# Generated by pormake.
# Topology gar, (4,6)-cn, num edge types: 1
# Building blocks:
#     Node 0, Type 0, BuildingBlock: UXUYUI_clean_sbu_0, # of connection points: 4
#     Node 1, Type 0, BuildingBlock: UXUYUI_clean_sbu_0, # of connection points: 4
#     Node 2, Type 0, BuildingBlock: UXUYUI_clean_sbu_0, # of connection points: 4
#     Node 3, Type 0, BuildingBlock: UXUYUI_clean_sbu_0, # of connection points: 4
#     Node 4, Type 0, BuildingBlock: UXUYUI_clean_sbu_0, # of connection points: 4
#     Node 5, Type 0, BuildingBlock: UXUYUI_clean_sbu_0, # of connection points: 4
#     Node 6, Type 0, BuildingBlock: UXUYUI_clean_sbu_0, # of connection points: 4
#     Node 7, Type 0, BuildingBlock: UXUYUI_clean_sbu_0, # of connection points: 4
#     Node 8, Type 0, BuildingBlock: UXUYUI_clean_sbu_0, # of connection points: 4
#     Node 9, Type 0, BuildingBlock: UXUYUI_clean_sbu_0, # of connection points: 4
#     Node 10, Type 0, BuildingBlock: UXUYUI_clean_sbu_0, # of connection points: 4
#     Node 11, Type 0, BuildingBlock: UXUYUI_clean_sbu_0, # of connection points: 4
#     Node 12, Type 0, BuildingBlock: UXUYUI_clean_sbu_0, # of connection points: 4
#     Node 13, Type 0, BuildingBlock: UXUYUI_clean_sbu_0, # of connection points: 4
#     Node 14, Type 0, BuildingBlock: UXUYUI_clean_sbu_0, # of connection points: 4
#     Node 15, Type 0, BuildingBlock: UXUYUI_clean_sbu_0, # of connection points: 4
#     Node 16, Type 0, BuildingBlock: UXUYUI_clean_sbu_0, # of connection points: 4
#     Node 17, Type 0, BuildingBlock: UXUYUI_clean_sbu_0, # of connection points: 4
#     Node 18, Type 0, BuildingBlock: UXUYUI_clean_sbu_0, # of connection points: 4
#     Node 19, Type 0, BuildingBlock: UXUYUI_clean_sbu_0, # of connection points: 4
#     Node 20, Type 0, BuildingBlock: UXUYUI_clean_sbu_0, # of connection points: 4
#     Node 21, Type 0, BuildingBlock: UXUYUI_clean_sbu_0, # of connection points: 4
#     Node 22, Type 0, BuildingBlock: UXUYUI_clean_sbu_0, # of connection points: 4
#     Node 23, Type 0, BuildingBlock: UXUYUI_clean_sbu_0, # of connection points: 4
#     Node 24, Type 1, BuildingBlock: KUMBUR_clean_sbu_1, # of connection points: 6
#     Node 25, Type 1, BuildingBlock: KUMBUR_clean_sbu_1, # of connection points: 6
#     Node 26, Type 1, BuildingBlock: KUMBUR_clean_sbu_1, # of connection points: 6
#     Node 27, Type 1, BuildingBlock: KUMBUR_clean_sbu_1, # of connection points: 6
#     Node 28, Type 1, BuildingBlock: KUMBUR_clean_sbu_1, # of connection points: 6
#     Node 29, Type 1, BuildingBlock: KUMBUR_clean_sbu_1, # of connection points: 6
#     Node 30, Type 1, BuildingBlock: KUMBUR_clean_sbu_1, # of connection points: 6
#     Node 31, Type 1, BuildingBlock: KUMBUR_clean_sbu_1, # of connection points: 6
#     Node 32, Type 1, BuildingBlock: KUMBUR_clean_sbu_1, # of connection points: 6
#     Node 33, Type 1, BuildingBlock: KUMBUR_clean_sbu_1, # of connection points: 6
#     Node 34, Type 1, BuildingBlock: KUMBUR_clean_sbu_1, # of connection points: 6
#     Node 35, Type 1, BuildingBlock: KUMBUR_clean_sbu_1, # of connection points: 6
#     Node 36, Type 1, BuildingBlock: KUMBUR_clean_sbu_1, # of connection points: 6
#     Node 37, Type 1, BuildingBlock: KUMBUR_clean_sbu_1, # of connection points: 6
#     Node 38, Type 1, BuildingBlock: KUMBUR_clean_sbu_1, # of connection points: 6
#     Node 39, Type 1, BuildingBlock: KUMBUR_clean_sbu_1, # of connection points: 6
#     Edge 40, Type (0, 1), BuildingBlock: MIFKUJ_clean_linker_0, # of connection points: 2
#     Edge 41, Type (0, 1), BuildingBlock: MIFKUJ_clean_linker_0, # of connection points: 2
#     Edge 42, Type (0, 1), BuildingBlock: MIFKUJ_clean_linker_0, # of connection points: 2
#     Edge 43, Type (0, 1), BuildingBlock: MIFKUJ_clean_linker_0, # of connection points: 2
#     Edge 44, Type (0, 1), BuildingBlock: MIFKUJ_clean_linker_0, # of connection points: 2
#     Edge 45, Type (0, 1), BuildingBlock: MIFKUJ_clean_linker_0, # of connection points: 2
#     Edge 46, Type (0, 1), BuildingBlock: MIFKUJ_clean_linker_0, # of connection points: 2
#     Edge 47, Type (0, 1), BuildingBlock: MIFKUJ_clean_linker_0, # of connection points: 2
#     Edge 48, Type (0, 1), BuildingBlock: MIFKUJ_clean_linker_0, # of connection points: 2
#     Edge 49, Type (0, 1), BuildingBlock: MIFKUJ_clean_linker_0, # of connection points: 2
#     Edge 50, Type (0, 1), BuildingBlock: MIFKUJ_clean_linker_0, # of connection points: 2
#     Edge 51, Type (0, 1), BuildingBlock: MIFKUJ_clean_linker_0, # of connection points: 2
#     Edge 52, Type (0, 1), BuildingBlock: MIFKUJ_clean_linker_0, # of connection points: 2
#     Edge 53, Type (0, 1), BuildingBlock: MIFKUJ_clean_linker_0, # of connection points: 2
#     Edge 54, Type (0, 1), BuildingBlock: MIFKUJ_clean_linker_0, # of connection points: 2
#     Edge 55, Type (0, 1), BuildingBlock: MIFKUJ_clean_linker_0, # of connection points: 2
#     Edge 56, Type (0, 1), BuildingBlock: MIFKUJ_clean_linker_0, # of connection points: 2
#     Edge 57, Type (0, 1), BuildingBlock: MIFKUJ_clean_linker_0, # of connection points: 2
#     Edge 58, Type (0, 1), BuildingBlock: MIFKUJ_clean_linker_0, # of connection points: 2
#     Edge 59, Type (0, 1), BuildingBlock: MIFKUJ_clean_linker_0, # of connection points: 2
#     Edge 60, Type (0, 1), BuildingBlock: MIFKUJ_clean_linker_0, # of connection points: 2
#     Edge 61, Type (0, 1), BuildingBlock: MIFKUJ_clean_linker_0, # of connection points: 2
#     Edge 62, Type (0, 1), BuildingBlock: MIFKUJ_clean_linker_0, # of connection points: 2
#     Edge 63, Type (0, 1), BuildingBlock: MIFKUJ_clean_linker_0, # of connection points: 2
#     Edge 64, Type (0, 1), BuildingBlock: MIFKUJ_clean_linker_0, # of connection points: 2
#     Edge 65, Type (0, 1), BuildingBlock: MIFKUJ_clean_linker_0, # of connection points: 2
#     Edge 66, Type (0, 1), BuildingBlock: MIFKUJ_clean_linker_0, # of connection points: 2
#     Edge 67, Type (0, 1), BuildingBlock: MIFKUJ_clean_linker_0, # of connection points: 2
#     Edge 68, Type (0, 1), BuildingBlock: MIFKUJ_clean_linker_0, # of connection points: 2
#     Edge 69, Type (0, 1), BuildingBlock: MIFKUJ_clean_linker_0, # of connection points: 2
#     Edge 70, Type (0, 1), BuildingBlock: MIFKUJ_clean_linker_0, # of connection points: 2
#     Edge 71, Type (0, 1), BuildingBlock: MIFKUJ_clean_linker_0, # of connection points: 2
#     Edge 72, Type (0, 1), BuildingBlock: MIFKUJ_clean_linker_0, # of connection points: 2
#     Edge 73, Type (0, 1), BuildingBlock: MIFKUJ_clean_linker_0, # of connection points: 2
#     Edge 74, Type (0, 1), BuildingBlock: MIFKUJ_clean_linker_0, # of connection points: 2
#     Edge 75, Type (0, 1), BuildingBlock: MIFKUJ_clean_linker_0, # of connection points: 2
#     Edge 76, Type (0, 1), BuildingBlock: MIFKUJ_clean_linker_0, # of connection points: 2
#     Edge 77, Type (0, 1), BuildingBlock: MIFKUJ_clean_linker_0, # of connection points: 2
#     Edge 78, Type (0, 1), BuildingBlock: MIFKUJ_clean_linker_0, # of connection points: 2
#     Edge 79, Type (0, 1), BuildingBlock: MIFKUJ_clean_linker_0, # of connection points: 2
#     Edge 80, Type (0, 1), BuildingBlock: MIFKUJ_clean_linker_0, # of connection points: 2
#     Edge 81, Type (0, 1), BuildingBlock: MIFKUJ_clean_linker_0, # of connection points: 2
#     Edge 82, Type (0, 1), BuildingBlock: MIFKUJ_clean_linker_0, # of connection points: 2
#     Edge 83, Type (0, 1), BuildingBlock: MIFKUJ_clean_linker_0, # of connection points: 2
#     Edge 84, Type (0, 1), BuildingBlock: MIFKUJ_clean_linker_0, # of connection points: 2
#     Edge 85, Type (0, 1), BuildingBlock: MIFKUJ_clean_linker_0, # of connection points: 2
#     Edge 86, Type (0, 1), BuildingBlock: MIFKUJ_clean_linker_0, # of connection points: 2
#     Edge 87, Type (0, 1), BuildingBlock: MIFKUJ_clean_linker_0, # of connection points: 2
#     Edge 88, Type (0, 1), BuildingBlock: MIFKUJ_clean_linker_0, # of connection points: 2
#     Edge 89, Type (0, 1), BuildingBlock: MIFKUJ_clean_linker_0, # of connection points: 2
#     Edge 90, Type (0, 1), BuildingBlock: MIFKUJ_clean_linker_0, # of connection points: 2
#     Edge 91, Type (0, 1), BuildingBlock: MIFKUJ_clean_linker_0, # of connection points: 2
#     Edge 92, Type (0, 1), BuildingBlock: MIFKUJ_clean_linker_0, # of connection points: 2
#     Edge 93, Type (0, 1), BuildingBlock: MIFKUJ_clean_linker_0, # of connection points: 2
#     Edge 94, Type (0, 1), BuildingBlock: MIFKUJ_clean_linker_0, # of connection points: 2
#     Edge 95, Type (0, 1), BuildingBlock: MIFKUJ_clean_linker_0, # of connection points: 2
#     Edge 96, Type (0, 1), BuildingBlock: MIFKUJ_clean_linker_0, # of connection points: 2
#     Edge 97, Type (0, 1), BuildingBlock: MIFKUJ_clean_linker_0, # of connection points: 2
#     Edge 98, Type (0, 1), BuildingBlock: MIFKUJ_clean_linker_0, # of connection points: 2
#     Edge 99, Type (0, 1), BuildingBlock: MIFKUJ_clean_linker_0, # of connection points: 2
#     Edge 100, Type (0, 1), BuildingBlock: MIFKUJ_clean_linker_0, # of connection points: 2
#     Edge 101, Type (0, 1), BuildingBlock: MIFKUJ_clean_linker_0, # of connection points: 2
#     Edge 102, Type (0, 1), BuildingBlock: MIFKUJ_clean_linker_0, # of connection points: 2
#     Edge 103, Type (0, 1), BuildingBlock: MIFKUJ_clean_linker_0, # of connection points: 2
#     Edge 104, Type (0, 1), BuildingBlock: MIFKUJ_clean_linker_0, # of connection points: 2
#     Edge 105, Type (0, 1), BuildingBlock: MIFKUJ_clean_linker_0, # of connection points: 2
#     Edge 106, Type (0, 1), BuildingBlock: MIFKUJ_clean_linker_0, # of connection points: 2
#     Edge 107, Type (0, 1), BuildingBlock: MIFKUJ_clean_linker_0, # of connection points: 2
#     Edge 108, Type (0, 1), BuildingBlock: MIFKUJ_clean_linker_0, # of connection points: 2
#     Edge 109, Type (0, 1), BuildingBlock: MIFKUJ_clean_linker_0, # of connection points: 2
#     Edge 110, Type (0, 1), BuildingBlock: MIFKUJ_clean_linker_0, # of connection points: 2
#     Edge 111, Type (0, 1), BuildingBlock: MIFKUJ_clean_linker_0, # of connection points: 2
#     Edge 112, Type (0, 1), BuildingBlock: MIFKUJ_clean_linker_0, # of connection points: 2
#     Edge 113, Type (0, 1), BuildingBlock: MIFKUJ_clean_linker_0, # of connection points: 2
#     Edge 114, Type (0, 1), BuildingBlock: MIFKUJ_clean_linker_0, # of connection points: 2
#     Edge 115, Type (0, 1), BuildingBlock: MIFKUJ_clean_linker_0, # of connection points: 2
#     Edge 116, Type (0, 1), BuildingBlock: MIFKUJ_clean_linker_0, # of connection points: 2
#     Edge 117, Type (0, 1), BuildingBlock: MIFKUJ_clean_linker_0, # of connection points: 2
#     Edge 118, Type (0, 1), BuildingBlock: MIFKUJ_clean_linker_0, # of connection points: 2
#     Edge 119, Type (0, 1), BuildingBlock: MIFKUJ_clean_linker_0, # of connection points: 2
#     Edge 120, Type (0, 1), BuildingBlock: MIFKUJ_clean_linker_0, # of connection points: 2
#     Edge 121, Type (0, 1), BuildingBlock: MIFKUJ_clean_linker_0, # of connection points: 2
#     Edge 122, Type (0, 1), BuildingBlock: MIFKUJ_clean_linker_0, # of connection points: 2
#     Edge 123, Type (0, 1), BuildingBlock: MIFKUJ_clean_linker_0, # of connection points: 2
#     Edge 124, Type (0, 1), BuildingBlock: MIFKUJ_clean_linker_0, # of connection points: 2
#     Edge 125, Type (0, 1), BuildingBlock: MIFKUJ_clean_linker_0, # of connection points: 2
#     Edge 126, Type (0, 1), BuildingBlock: MIFKUJ_clean_linker_0, # of connection points: 2
#     Edge 127, Type (0, 1), BuildingBlock: MIFKUJ_clean_linker_0, # of connection points: 2
#     Edge 128, Type (0, 1), BuildingBlock: MIFKUJ_clean_linker_0, # of connection points: 2
#     Edge 129, Type (0, 1), BuildingBlock: MIFKUJ_clean_linker_0, # of connection points: 2
#     Edge 130, Type (0, 1), BuildingBlock: MIFKUJ_clean_linker_0, # of connection points: 2
#     Edge 131, Type (0, 1), BuildingBlock: MIFKUJ_clean_linker_0, # of connection points: 2
#     Edge 132, Type (0, 1), BuildingBlock: MIFKUJ_clean_linker_0, # of connection points: 2
#     Edge 133, Type (0, 1), BuildingBlock: MIFKUJ_clean_linker_0, # of connection points: 2
#     Edge 134, Type (0, 1), BuildingBlock: MIFKUJ_clean_linker_0, # of connection points: 2
#     Edge 135, Type (0, 1), BuildingBlock: MIFKUJ_clean_linker_0, # of connection points: 2
# Relax obj value: 0.080
# Max RMSD: 0.193
# Mean RMSD: 0.153
data_MOF--net-gar--node1-UXUYUI_clean_sbu_0--node2-KUMBUR_clean_sbu_1--edge1-MIFKUJ_clean_linker_0
_symmetry_space_group_name_H-M    P1
_symmetry_Int_Tables_number       1
_symmetry_cell_setting            triclinic
loop_
_symmetry_equiv_pos_as_xyz
'x, y, z'
_cell_length_a     89.100032
_cell_length_b     89.122279
_cell_length_c     84.530279
_cell_angle_alpha  95.35183
_cell_angle_beta   95.352936
_cell_angle_gamma 100.1015
loop_
_atom_site_label
_atom_site_type_symbol
_atom_site_fract_x
_atom_site_fract_y
_atom_site_fract_z
_atom_type_partial_charge
Li0 Li 0.01853 0.28954 0.34401 0.0
Li1 Li 0.03586 0.30703 0.36737 0.0
Li2 Li 0.04843 0.29162 0.34502 0.0
Li3 Li 0.03381 0.2775 0.36627 0.0
C4 C 0.03404 0.31899 0.33335 0.0
N5 N 0.03228 0.34135 0.31311 0.0
C6 C 0.03021 0.33293 0.33896 0.0
C7 C 0.03695 0.31638 0.31747 0.0
C8 C 0.0294 0.3441 0.32853 0.0
C9 C 0.03598 0.32784 0.30741 0.0
C10 C 0.00648 0.29015 0.37778 0.0
C11 C 0.99803 0.28673 0.40369 0.0
N12 N 0.98417 0.28994 0.39839 0.0
C13 C 0.9922 0.29349 0.3726 0.0
C14 C 0.00947 0.28676 0.39344 0.0
C15 C 0.98105 0.29328 0.38319 0.0
C16 C 0.98763 0.27397 0.33211 0.0
N17 N 0.99799 0.28698 0.33115 0.0
C18 C 0.97845 0.29699 0.31582 0.0
C19 C 0.99365 0.29836 0.32302 0.0
C20 C 0.96741 0.28393 0.31719 0.0
C21 C 0.97228 0.27227 0.32534 0.0
H22 H 0.99112 0.26508 0.3387 0.0
H23 H 1.00182 0.30876 0.32252 0.0
C24 C 0.04997 0.33802 0.3827 0.0
N25 N 0.03749 0.32652 0.38183 0.0
C26 C 0.05085 0.35194 0.3925 0.0
C27 C 0.02626 0.342 0.40073 0.0
C28 C 0.02573 0.32842 0.39062 0.0
C29 C 0.0389 0.3541 0.40178 0.0
H30 H 0.05923 0.33646 0.37567 0.0
H31 H 0.01575 0.31949 0.38976 0.0
C32 C 0.03 0.26047 0.33137 0.0
N33 N 0.02706 0.23502 0.30924 0.0
C34 C 0.03363 0.24681 0.33613 0.0
C35 C 0.02487 0.26122 0.31538 0.0
C36 C 0.03207 0.23407 0.32475 0.0
C37 C 0.02346 0.24821 0.30437 0.0
C38 C 0.06455 0.29514 0.38055 0.0
C39 C 0.07823 0.29111 0.37635 0.0
C40 C 0.06329 0.30014 0.39645 0.0
C41 C 0.0905 0.29214 0.3882 0.0
C42 C 0.07582 0.301 0.40795 0.0
N43 N 0.08905 0.29703 0.40363 0.0
C44 C 0.07762 0.30412 0.33235 0.0
C45 C 0.06964 0.27736 0.32659 0.0
C46 C 0.09135 0.30343 0.32534 0.0
N47 N 0.06705 0.29116 0.33305 0.0
C48 C 0.08314 0.27616 0.31947 0.0
C49 C 0.09452 0.28924 0.31892 0.0
H50 H 0.07564 0.31503 0.33763 0.0
H51 H 0.06136 0.26708 0.32723 0.0
C52 C 0.01955 0.24995 0.37913 0.0
N53 N 0.03313 0.25974 0.37906 0.0
C54 C 0.01866 0.23704 0.38768 0.0
C55 C 0.04572 0.24437 0.39613 0.0
C56 C 0.0461 0.25708 0.38736 0.0
C57 C 0.03187 0.23398 0.39644 0.0
H58 H 0.00934 0.25207 0.3724 0.0
H59 H 0.05686 0.26479 0.38717 0.0
O60 O 0.03538 0.30814 0.34353 0.0
O61 O 0.01753 0.29033 0.3676 0.0
O62 O 0.0313 0.27297 0.34238 0.0
O63 O 0.05253 0.2944 0.36907 0.0
H64 H 0.02796 0.33512 0.35124 0.0
H65 H 0.03999 0.30565 0.31301 0.0
H66 H 0.02652 0.35498 0.33271 0.0
H67 H 0.03821 0.32601 0.29508 0.0
H68 H 1.00017 0.28416 0.41586 0.0
H69 H 0.98977 0.29634 0.36059 0.0
H70 H 0.02052 0.28427 0.39765 0.0
H71 H 0.96993 0.29581 0.37934 0.0
H72 H 0.97521 0.30634 0.30981 0.0
H73 H 0.9642 0.262 0.3267 0.0
H74 H 0.06088 0.36088 0.39293 0.0
H75 H 0.01666 0.34313 0.40742 0.0
H76 H 0.03763 0.24608 0.34847 0.0
H77 H 0.02199 0.27172 0.31156 0.0
H78 H 0.03483 0.22342 0.32826 0.0
H79 H 0.0195 0.24859 0.29194 0.0
H80 H 0.07936 0.28722 0.36409 0.0
H81 H 0.05275 0.30332 0.39984 0.0
H82 H 0.10117 0.28907 0.38514 0.0
H83 H 0.07504 0.30485 0.42032 0.0
H84 H 0.09962 0.31391 0.32547 0.0
H85 H 0.08464 0.26495 0.31451 0.0
H86 H 0.00771 0.22941 0.38717 0.0
H87 H 0.05624 0.24285 0.40276 0.0
Li88 Li 0.01434 0.76381 0.66678 0.0
Li89 Li 0.02913 0.75233 0.68939 0.0
Li90 Li 0.01142 0.73421 0.66587 0.0
Li91 Li 0.9991 0.74958 0.68793 0.0
C92 C 0.04109 0.75214 0.65541 0.0
N93 N 0.06338 0.75491 0.63474 0.0
C94 C 0.05625 0.75875 0.66114 0.0
C95 C 0.03722 0.747 0.63918 0.0
C96 C 0.06737 0.76003 0.6505 0.0
C97 C 0.04867 0.7485 0.62891 0.0
C98 C 0.01894 0.78101 0.70193 0.0
C99 C 0.01893 0.79238 0.72894 0.0
N100 N 0.02459 0.80637 0.7245 0.0
C101 C 0.02477 0.79547 0.69763 0.0
C102 C 0.016 0.7794 0.71769 0.0
C103 C 0.02755 0.80817 0.70922 0.0
C104 C 1.00184 0.78592 0.64863 0.0
N105 N 0.01514 0.78143 0.65385 0.0
C106 C 0.0296 0.8022 0.6421 0.0
C107 C 0.02888 0.78932 0.65067 0.0
C108 C 0.01604 0.80701 0.63645 0.0
C109 C 1.00202 0.79856 0.63977 0.0
H110 H 0.99102 0.77975 0.65143 0.0
H111 H 0.03938 0.78575 0.65496 0.0
C112 C 0.05705 0.74252 0.70125 0.0
N113 N 0.04964 0.75467 0.70243 0.0
C114 C 0.07228 0.74382 0.70825 0.0
C115 C 0.07209 0.76993 0.71831 0.0
C116 C 0.05688 0.76821 0.71093 0.0
C117 C 0.08012 0.7577 0.71681 0.0
H118 H 0.05131 0.73189 0.69436 0.0
H119 H 0.05107 0.7779 0.71162 0.0
C120 C 0.98294 0.74452 0.6524 0.0
N121 N 0.95784 0.73958 0.62954 0.0
C122 C 0.96826 0.73934 0.65657 0.0
C123 C 0.9849 0.74709 0.63662 0.0
C124 C 0.95571 0.73692 0.64483 0.0
C125 C 0.97205 0.74457 0.62523 0.0
C126 C 0.01137 0.7224 0.69994 0.0
C127 C 0.00526 0.70719 0.69396 0.0
C128 C 0.01653 0.72611 0.71619 0.0
C129 C 0.00442 0.69587 0.70438 0.0
C130 C 0.01548 0.71446 0.72623 0.0
N131 N 0.00951 0.69971 0.72017 0.0
C132 C 0.02355 0.7094 0.65004 0.0
C133 C 0.99678 0.7065 0.64361 0.0
C134 C 0.0238 0.69582 0.64017 0.0
N135 N 0.0102 0.7146 0.65161 0.0
C136 C 0.9965 0.69276 0.63366 0.0
C137 C 0.01017 0.68716 0.63168 0.0
H138 H 0.03413 0.71582 0.65649 0.0
H139 H 0.98621 0.71067 0.6449 0.0
C140 C 0.9757 0.7639 0.70215 0.0
N141 N 0.98041 0.75019 0.6997 0.0
C142 C 0.9621 0.76505 0.70914 0.0
C143 C 0.95815 0.73796 0.71119 0.0
C144 C 0.97191 0.73734 0.70424 0.0
C145 C 0.95287 0.75196 0.71369 0.0
H146 H 0.98235 0.77403 0.69836 0.0
H147 H 0.97562 0.72646 0.7022 0.0
O148 O 0.03018 0.75032 0.66575 0.0
O149 O 0.01576 0.76855 0.69064 0.0
O150 O 0.99526 0.74749 0.66387 0.0
O151 O 0.01271 0.73351 0.68981 0.0
H152 H 0.05942 0.76281 0.67367 0.0
H153 H 0.02551 0.74183 0.6346 0.0
H154 H 0.07916 0.76507 0.65477 0.0
H155 H 0.04588 0.74452 0.61632 0.0
H156 H 0.01668 0.79134 0.74118 0.0
H157 H 0.02706 0.79689 0.68546 0.0
H158 H 0.01142 0.76826 0.72116 0.0
H159 H 0.03202 0.81944 0.70606 0.0
H160 H 0.04067 0.80828 0.63979 0.0
H161 H 0.99129 0.8019 0.63584 0.0
H162 H 0.07801 0.7341 0.70673 0.0
H163 H 0.0777 0.7809 0.72463 0.0
H164 H 0.96657 0.7373 0.66874 0.0
H165 H 0.99621 0.75115 0.63325 0.0
H166 H 0.94427 0.73296 0.64789 0.0
H167 H 0.97335 0.74662 0.61298 0.0
H168 H 1.00128 0.70415 0.68138 0.0
H169 H 0.02137 0.73785 0.72095 0.0
H170 H 0.99976 0.68404 0.69992 0.0
H171 H 0.01946 0.71713 0.73884 0.0
H172 H 0.03464 0.69204 0.6394 0.0
H173 H 0.98567 0.68675 0.62736 0.0
H174 H 0.95864 0.77611 0.7105 0.0
H175 H 0.95172 0.72751 0.71458 0.0
Li176 Li 0.51823 0.79004 0.84495 0.0
Li177 Li 0.53563 0.80771 0.86837 0.0
Li178 Li 0.548 0.79215 0.84602 0.0
Li179 Li 0.5335 0.77818 0.86728 0.0
C180 C 0.53373 0.81923 0.83395 0.0
N181 N 0.5322 0.84104 0.81301 0.0
C182 C 0.53034 0.83346 0.83922 0.0
C183 C 0.53634 0.81605 0.81805 0.0
C184 C 0.52962 0.84434 0.82845 0.0
C185 C 0.5355 0.82724 0.80764 0.0
C186 C 0.50641 0.7913 0.87892 0.0
C187 C 0.49823 0.78832 0.905 0.0
N188 N 0.48415 0.79092 0.89958 0.0
C189 C 0.49189 0.79397 0.8736 0.0
C190 C 0.50966 0.78847 0.89473 0.0
C191 C 0.48078 0.79372 0.88423 0.0
C192 C 0.4887 0.77318 0.82918 0.0
N193 N 0.49778 0.78737 0.83193 0.0
C194 C 0.4771 0.79823 0.81984 0.0
C195 C 0.49225 0.79977 0.82719 0.0
C196 C 0.46724 0.78377 0.81721 0.0
C197 C 0.4735 0.77112 0.82182 0.0
H198 H 0.49312 0.76341 0.83308 0.0
H199 H 0.49942 0.81103 0.82962 0.0
C200 C 0.55074 0.83555 0.88993 0.0
N201 N 0.53704 0.82722 0.88281 0.0
C202 C 0.55137 0.84927 0.90003 0.0
C203 C 0.52389 0.84593 0.89517 0.0
C204 C 0.52375 0.83221 0.88537 0.0
C205 C 0.53782 0.85477 0.90273 0.0
H206 H 0.56125 0.83161 0.88776 0.0
H207 H 0.51294 0.82559 0.87968 0.0
C208 C 0.53001 0.76111 0.83228 0.0
N209 N 0.52748 0.73588 0.80995 0.0
C210 C 0.53352 0.74739 0.83698 0.0
C211 C 0.52521 0.76203 0.81624 0.0
C212 C 0.53217 0.73475 0.8255 0.0
C213 C 0.52401 0.74913 0.80512 0.0
C214 C 0.5644 0.79536 0.88134 0.0
C215 C 0.57794 0.79125 0.87677 0.0
C216 C 0.56342 0.80006 0.89738 0.0
C217 C 0.59034 0.79195 0.88838 0.0
C218 C 0.57609 0.80062 0.90863 0.0
N219 N 0.58917 0.7966 0.90394 0.0
C220 C 0.57571 0.80491 0.83113 0.0
C221 C 0.57009 0.77794 0.82917 0.0
C222 C 0.58921 0.80446 0.82367 0.0
N223 N 0.56639 0.79175 0.83384 0.0
C224 C 0.58353 0.77697 0.82186 0.0
C225 C 0.59362 0.79033 0.81896 0.0
H226 H 0.5728 0.81587 0.83496 0.0
H227 H 0.56283 0.76753 0.83154 0.0
C228 C 0.51901 0.7505 0.87955 0.0
N229 N 0.53258 0.76045 0.88005 0.0
C230 C 0.51794 0.7375 0.88796 0.0
C231 C 0.54476 0.74515 0.89752 0.0
C232 C 0.54535 0.75792 0.88882 0.0
C233 C 0.53094 0.73459 0.89717 0.0
H234 H 0.50896 0.75259 0.8725 0.0
H235 H 0.55613 0.76568 0.88898 0.0
O236 O 0.53499 0.80867 0.84448 0.0
O237 O 0.51727 0.79108 0.86855 0.0
O238 O 0.53097 0.77347 0.84341 0.0
O239 O 0.55228 0.79504 0.87009 0.0
H240 H 0.52838 0.8361 0.85153 0.0
H241 H 0.53907 0.8051 0.81385 0.0
H242 H 0.52705 0.85542 0.83237 0.0
H243 H 0.53753 0.82499 0.79529 0.0
H244 H 0.50055 0.78611 0.91727 0.0
H245 H 0.4892 0.79619 0.8614 0.0
H246 H 0.52085 0.78634 0.89898 0.0
H247 H 0.46948 0.79574 0.88027 0.0
H248 H 0.47304 0.80847 0.81682 0.0
H249 H 0.4667 0.75965 0.81989 0.0
H250 H 0.56242 0.85567 0.90542 0.0
H251 H 0.51311 0.84952 0.89694 0.0
H252 H 0.53724 0.74651 0.84936 0.0
H253 H 0.5224 0.77258 0.81246 0.0
H254 H 0.53484 0.72405 0.82896 0.0
H255 H 0.52028 0.74964 0.79267 0.0
H256 H 0.57887 0.78757 0.8644 0.0
H257 H 0.55299 0.80326 0.90107 0.0
H258 H 0.6009 0.78883 0.88502 0.0
H259 H 0.57552 0.80427 0.9211 0.0
H260 H 0.59604 0.81525 0.82169 0.0
H261 H 0.58605 0.76567 0.81902 0.0
H262 H 0.50696 0.72987 0.88736 0.0
H263 H 0.55518 0.7434 0.90418 0.0
Li264 Li 0.51479 0.26399 0.16677 0.0
Li265 Li 0.52928 0.25218 0.18931 0.0
Li266 Li 0.51145 0.23442 0.16578 0.0
Li267 Li 0.49928 0.24978 0.18783 0.0
C268 C 0.5414 0.25169 0.15544 0.0
N269 N 0.56376 0.25423 0.13482 0.0
C270 C 0.55657 0.25828 0.16117 0.0
C271 C 0.53756 0.24644 0.13922 0.0
C272 C 0.56771 0.25944 0.15056 0.0
C273 C 0.54905 0.24782 0.12898 0.0
C274 C 0.51914 0.28104 0.20191 0.0
C275 C 0.51867 0.29245 0.2288 0.0
N276 N 0.52447 0.30643 0.22443 0.0
C277 C 0.52513 0.29549 0.19767 0.0
C278 C 0.51588 0.27946 0.21758 0.0
C279 C 0.52774 0.30819 0.20923 0.0
C280 C 0.50446 0.29027 0.15483 0.0
N281 N 0.51566 0.28167 0.15398 0.0
C282 C 0.52773 0.29812 0.13588 0.0
C283 C 0.52722 0.28546 0.14475 0.0
C284 C 0.51641 0.30727 0.13668 0.0
C285 C 0.50469 0.30319 0.14639 0.0
H286 H 0.49535 0.28716 0.1622 0.0
H287 H 0.53619 0.27878 0.14428 0.0
C288 C 0.5568 0.24195 0.20188 0.0
N289 N 0.54972 0.25435 0.20235 0.0
C290 C 0.57202 0.24318 0.20892 0.0
C291 C 0.57249 0.26981 0.21742 0.0
C292 C 0.55728 0.26811 0.21012 0.0
C293 C 0.58017 0.25729 0.2167 0.0
H294 H 0.55082 0.23114 0.19552 0.0
H295 H 0.55172 0.27797 0.21022 0.0
C296 C 0.48319 0.24497 0.15243 0.0
N297 N 0.45798 0.23977 0.1297 0.0
C298 C 0.46865 0.23912 0.15655 0.0
C299 C 0.48495 0.24815 0.13677 0.0
C300 C 0.45604 0.23658 0.14488 0.0
C301 C 0.47204 0.24543 0.12543 0.0
C302 C 0.51128 0.22239 0.19977 0.0
C303 C 0.50515 0.20718 0.19378 0.0
C304 C 0.51641 0.22609 0.21602 0.0
C305 C 0.50425 0.19587 0.20421 0.0
C306 C 0.51531 0.21444 0.22607 0.0
N307 N 0.50931 0.1997 0.22 0.0
C308 C 0.52309 0.20988 0.14882 0.0
C309 C 0.49611 0.20682 0.14412 0.0
C310 C 0.52291 0.19638 0.13866 0.0
N311 N 0.50984 0.21497 0.15135 0.0
C312 C 0.4954 0.19309 0.13405 0.0
C313 C 0.50894 0.18772 0.13113 0.0
H314 H 0.53391 0.21634 0.15471 0.0
H315 H 0.48565 0.21091 0.14618 0.0
C316 C 0.47393 0.26319 0.1984 0.0
N317 N 0.48049 0.25053 0.19941 0.0
C318 C 0.46023 0.2644 0.20515 0.0
C319 C 0.46005 0.23964 0.21426 0.0
C320 C 0.47377 0.23886 0.20725 0.0
C321 C 0.45285 0.25252 0.21325 0.0
H322 H 0.47921 0.27234 0.19204 0.0
H323 H 0.47894 0.22879 0.20798 0.0
O324 O 0.5304 0.25025 0.1657 0.0
O325 O 0.51613 0.26858 0.19064 0.0
O326 O 0.49556 0.24798 0.16381 0.0
O327 O 0.51265 0.2335 0.18965 0.0
H328 H 0.55971 0.26246 0.17368 0.0
H329 H 0.52584 0.24136 0.13461 0.0
H330 H 0.57951 0.26448 0.15483 0.0
H331 H 0.54627 0.2438 0.1164 0.0
H332 H 0.51618 0.29143 0.24098 0.0
H333 H 0.52769 0.29688 0.18557 0.0
H334 H 0.51118 0.26833 0.22099 0.0
H335 H 0.53232 0.31946 0.20612 0.0
H336 H 0.53707 0.3009 0.1287 0.0
H337 H 0.49567 0.30984 0.14731 0.0
H338 H 0.5775 0.23326 0.20797 0.0
H339 H 0.57837 0.28094 0.22313 0.0
H340 H 0.46712 0.23662 0.16864 0.0
H341 H 0.49615 0.25274 0.13344 0.0
H342 H 0.4447 0.23211 0.1479 0.0
H343 H 0.4732 0.24787 0.11326 0.0
H344 H 0.50119 0.20415 0.1812 0.0
H345 H 0.52127 0.23782 0.22079 0.0
H346 H 0.49956 0.18404 0.19974 0.0
H347 H 0.51925 0.2171 0.23868 0.0
H348 H 0.53361 0.19263 0.13686 0.0
H349 H 0.48437 0.18679 0.12848 0.0
H350 H 0.45532 0.2745 0.20358 0.0
H351 H 0.45523 0.23017 0.22046 0.0
Li352 Li 0.04531 0.7954 0.09552 0.0
Li353 Li 0.06076 0.78297 0.11757 0.0
Li354 Li 0.04261 0.76534 0.09406 0.0
Li355 Li 0.03114 0.78008 0.11671 0.0
C356 C 0.07252 0.78325 0.08343 0.0
N357 N 0.09519 0.7853 0.06317 0.0
C358 C 0.08772 0.78944 0.0894 0.0
C359 C 0.06881 0.77813 0.06717 0.0
C360 C 0.09903 0.79038 0.07896 0.0
C361 C 0.08045 0.77926 0.05712 0.0
C362 C 0.05002 0.81137 0.13109 0.0
C363 C 0.04916 0.82207 0.15817 0.0
N364 N 0.05431 0.83632 0.15407 0.0
C365 C 0.05534 0.8261 0.12714 0.0
C366 C 0.04692 0.80929 0.14671 0.0
C367 C 0.05743 0.83857 0.13893 0.0
C368 C 0.03049 0.81805 0.08036 0.0
N369 N 0.04449 0.81419 0.08383 0.0
C370 C 0.05639 0.83738 0.07363 0.0
C371 C 0.05733 0.82356 0.08037 0.0
C372 C 0.04207 0.84187 0.07014 0.0
C373 C 0.02902 0.83161 0.07345 0.0
H374 H 0.02032 0.81067 0.08319 0.0
H375 H 0.06844 0.82057 0.08326 0.0
C376 C 0.08467 0.77078 0.13518 0.0
N377 N 0.08035 0.78423 0.13194 0.0
C378 C 0.09809 0.77066 0.14536 0.0
C379 C 0.103 0.79824 0.14848 0.0
C380 C 0.08929 0.79785 0.13843 0.0
C381 C 0.1076 0.7845 0.15223 0.0
H382 H 0.07765 0.76003 0.12985 0.0
H383 H 0.08584 0.80848 0.13582 0.0
C384 C 0.01387 0.77533 0.08166 0.0
N385 N 0.98833 0.76952 0.0593 0.0
C386 C 0.99947 0.7695 0.08611 0.0
C387 C 0.01533 0.77815 0.06584 0.0
C388 C 0.98668 0.76664 0.07463 0.0
C389 C 1.00226 0.77515 0.05471 0.0
C390 C 0.04301 0.7533 0.1281 0.0
C391 C 0.03649 0.7381 0.12247 0.0
C392 C 0.04801 0.7573 0.14436 0.0
C393 C 0.03513 0.72708 0.13322 0.0
C394 C 0.04645 0.74594 0.15473 0.0
N395 N 0.04011 0.73119 0.14899 0.0
C396 C 0.0525 0.73897 0.07725 0.0
C397 C 0.02561 0.73623 0.07679 0.0
C398 C 0.05097 0.72386 0.06975 0.0
N399 N 0.03992 0.7449 0.08079 0.0
C400 C 0.02359 0.72098 0.06957 0.0
C401 C 0.03637 0.71446 0.06607 0.0
H402 H 0.06382 0.7458 0.0807 0.0
H403 H 0.0157 0.74092 0.07977 0.0
C404 C 0.00522 0.79103 0.12907 0.0
N405 N 0.01349 0.77956 0.12961 0.0
C406 C 0.99234 0.79099 0.13758 0.0
C407 C 0.99672 0.76749 0.14742 0.0
C408 C 0.00938 0.76788 0.13857 0.0
C409 C 0.98777 0.77908 0.14702 0.0
H410 H 0.00851 0.8002 0.12183 0.0
H411 H 0.01584 0.75873 0.13889 0.0
O412 O 0.06143 0.78178 0.09358 0.0
O413 O 0.04747 0.79912 0.11958 0.0
O414 O 0.02639 0.77872 0.09287 0.0
O415 O 0.04463 0.76418 0.1177 0.0
H416 H 0.09076 0.79339 0.10198 0.0
H417 H 0.05708 0.77323 0.06242 0.0
H418 H 0.11086 0.7951 0.08341 0.0
H419 H 0.07778 0.7753 0.04451 0.0
H420 H 0.04676 0.82066 0.17031 0.0
H421 H 0.05777 0.82788 0.11509 0.0
H422 H 0.04273 0.79794 0.14991 0.0
H423 H 0.0615 0.85005 0.13603 0.0
H424 H 0.06695 0.84464 0.07165 0.0
H425 H 0.0176 0.83393 0.07078 0.0
H426 H 0.10113 0.75975 0.14761 0.0
H427 H 0.10981 0.80923 0.15349 0.0
H428 H 0.99817 0.76727 0.09833 0.0
H429 H 0.02642 0.78274 0.06225 0.0
H430 H 0.97545 0.76218 0.07791 0.0
H431 H 1.00318 0.77735 0.04243 0.0
H432 H 0.03253 0.73482 0.10995 0.0
H433 H 0.05305 0.76904 0.14889 0.0
H434 H 0.03013 0.71526 0.12902 0.0
H435 H 0.0503 0.74884 0.16734 0.0
H436 H 0.06117 0.71934 0.06748 0.0
H437 H 0.01211 0.71425 0.06694 0.0
H438 H 0.98591 0.80013 0.13643 0.0
H439 H 0.99414 0.75815 0.15462 0.0
Li440 Li 0.50504 0.77598 0.4394 0.0
Li441 Li 0.4875 0.75868 0.41599 0.0
Li442 Li 0.50303 0.74603 0.43813 0.0
Li443 Li 0.51701 0.76084 0.41692 0.0
C444 C 0.47567 0.76041 0.45005 0.0
N445 N 0.4534 0.76224 0.47039 0.0
C446 C 0.46171 0.76422 0.44449 0.0
C447 C 0.47834 0.75753 0.46594 0.0
C448 C 0.45058 0.76507 0.45496 0.0
C449 C 0.46693 0.75855 0.47605 0.0
C450 C 0.50398 0.78795 0.40549 0.0
C451 C 0.50703 0.79616 0.37943 0.0
N452 N 0.5041 0.81013 0.38475 0.0
C453 C 0.50093 0.80235 0.41069 0.0
C454 C 0.50702 0.78478 0.38974 0.0
C455 C 0.50107 0.81342 0.40003 0.0
C456 C 0.52048 0.80702 0.45076 0.0
N457 N 0.50767 0.79658 0.45225 0.0
C458 C 0.49798 0.81617 0.46789 0.0
C459 C 0.49656 0.80091 0.46081 0.0
C460 C 0.51079 0.82732 0.46592 0.0
C461 C 0.52221 0.82242 0.45737 0.0
H462 H 0.52916 0.80354 0.44385 0.0
H463 H 0.48632 0.79268 0.46177 0.0
C464 C 0.45834 0.74382 0.39659 0.0
N465 N 0.46807 0.7574 0.40157 0.0
C466 C 0.44458 0.74333 0.38661 0.0
C467 C 0.45102 0.77071 0.38685 0.0
C468 C 0.46453 0.77069 0.39685 0.0
C469 C 0.44062 0.75693 0.38157 0.0
H470 H 0.46116 0.73332 0.40046 0.0
H471 H 0.47216 0.78144 0.40093 0.0
C472 C 0.53408 0.76428 0.45192 0.0
N473 N 0.55939 0.76692 0.47417 0.0
C474 C 0.54774 0.76062 0.44721 0.0
C475 C 0.53325 0.76929 0.46792 0.0
C476 C 0.56042 0.76203 0.45865 0.0
C477 C 0.54619 0.77054 0.479 0.0
C478 C 0.49938 0.72996 0.40265 0.0
C479 C 0.50358 0.71638 0.40691 0.0
C480 C 0.49417 0.73105 0.38677 0.0
C481 C 0.50249 0.70402 0.39515 0.0
C482 C 0.49327 0.71845 0.37535 0.0
N483 N 0.4974 0.70531 0.37974 0.0
C484 C 0.49034 0.71693 0.45067 0.0
C485 C 0.51719 0.72429 0.45614 0.0
C486 C 0.49078 0.70309 0.45752 0.0
N487 N 0.50346 0.72726 0.44993 0.0
C488 C 0.51814 0.71063 0.4631 0.0
C489 C 0.50485 0.69954 0.46378 0.0
H490 H 0.47947 0.71925 0.44565 0.0
H491 H 0.52761 0.73232 0.45533 0.0
C492 C 0.54552 0.77497 0.40587 0.0
N493 N 0.5347 0.76187 0.40404 0.0
C494 C 0.5585 0.77604 0.39743 0.0
C495 C 0.54898 0.75031 0.38494 0.0
C496 C 0.53629 0.74964 0.39377 0.0
C497 C 0.56044 0.7636 0.38673 0.0
H498 H 0.54415 0.7846 0.41405 0.0
H499 H 0.52781 0.73923 0.39248 0.0
O500 O 0.48649 0.75905 0.43984 0.0
O501 O 0.50411 0.77706 0.41583 0.0
O502 O 0.52167 0.76321 0.44083 0.0
O503 O 0.50017 0.74207 0.41405 0.0
H504 H 0.45947 0.7664 0.43219 0.0
H505 H 0.48909 0.7545 0.47037 0.0
H506 H 0.43969 0.76794 0.45081 0.0
H507 H 0.4688 0.75635 0.48838 0.0
H508 H 0.50939 0.7939 0.3672 0.0
H509 H 0.49835 0.80492 0.42279 0.0
H510 H 0.50937 0.77366 0.38554 0.0
H511 H 0.49875 0.82462 0.4039 0.0
H512 H 0.4888 0.81937 0.47424 0.0
H513 H 0.53233 0.8305 0.45561 0.0
H514 H 0.43701 0.73238 0.38315 0.0
H515 H 0.44884 0.78153 0.38322 0.0
H516 H 0.54854 0.75672 0.43485 0.0
H517 H 0.52274 0.7722 0.4717 0.0
H518 H 0.57108 0.75925 0.45518 0.0
H519 H 0.54575 0.7744 0.49144 0.0
H520 H 0.50765 0.71537 0.41916 0.0
H521 H 0.49088 0.74152 0.38332 0.0
H522 H 0.50568 0.69342 0.39827 0.0
H523 H 0.48927 0.7191 0.36299 0.0
H524 H 0.48009 0.69524 0.45784 0.0
H525 H 0.52935 0.70863 0.46742 0.0
H526 H 0.5669 0.78659 0.39916 0.0
H527 H 0.54997 0.74034 0.37702 0.0
Li528 Li 0.5447 0.29511 0.59588 0.0
Li529 Li 0.56009 0.28283 0.61788 0.0
Li530 Li 0.54215 0.26513 0.59438 0.0
Li531 Li 0.53043 0.27974 0.61694 0.0
C532 C 0.57197 0.28311 0.58383 0.0
N533 N 0.59459 0.2853 0.56351 0.0
C534 C 0.58716 0.28941 0.58976 0.0
C535 C 0.56825 0.27793 0.56759 0.0
C536 C 0.59844 0.29041 0.57929 0.0
C537 C 0.57986 0.27915 0.5575 0.0
C538 C 0.54963 0.31123 0.63125 0.0
C539 C 0.5491 0.32246 0.6582 0.0
N540 N 0.55472 0.33651 0.65389 0.0
C541 C 0.55544 0.32576 0.62708 0.0
C542 C 0.54643 0.30952 0.64692 0.0
C543 C 0.55793 0.33841 0.6387 0.0
C544 C 0.53132 0.32048 0.58556 0.0
N545 N 0.54392 0.3139 0.58435 0.0
C546 C 0.55458 0.33429 0.56933 0.0
C547 C 0.55546 0.3206 0.57634 0.0
C548 C 0.54176 0.34163 0.57059 0.0
C549 C 0.53005 0.33422 0.57894 0.0
H550 H 0.52224 0.31519 0.59203 0.0
H551 H 0.56551 0.31542 0.57547 0.0
C552 C 0.58408 0.27075 0.6353 0.0
N553 N 0.57966 0.28417 0.63217 0.0
C554 C 0.59756 0.27067 0.64538 0.0
C555 C 0.60234 0.29826 0.64856 0.0
C556 C 0.58856 0.29782 0.63863 0.0
C557 C 0.60703 0.28454 0.65221 0.0
H558 H 0.5771 0.25998 0.62996 0.0
H559 H 0.58503 0.30843 0.63606 0.0
C560 C 0.51339 0.27532 0.58176 0.0
N561 N 0.48807 0.26992 0.55914 0.0
C562 C 0.49892 0.26932 0.58595 0.0
C563 C 0.51503 0.27855 0.56609 0.0
C564 C 0.48625 0.26669 0.57434 0.0
C565 C 0.50207 0.27572 0.55481 0.0
C566 C 0.54251 0.25301 0.62828 0.0
C567 C 0.53587 0.23786 0.62253 0.0
C568 C 0.54774 0.25683 0.6445 0.0
C569 C 0.53473 0.2267 0.63312 0.0
C570 C 0.54636 0.24533 0.65472 0.0
N571 N 0.53996 0.23063 0.64886 0.0
C572 C 0.55196 0.23704 0.58396 0.0
C573 C 0.52713 0.23763 0.57183 0.0
C574 C 0.55087 0.22177 0.57724 0.0
N575 N 0.5401 0.24466 0.58146 0.0
C576 C 0.52566 0.22238 0.56466 0.0
C577 C 0.5375 0.21404 0.5676 0.0
H578 H 0.56215 0.24266 0.59168 0.0
H579 H 0.51767 0.24364 0.57006 0.0
C580 C 0.504 0.29014 0.62854 0.0
N581 N 0.5127 0.27904 0.62969 0.0
C582 C 0.49102 0.28997 0.6369 0.0
C583 C 0.49623 0.26721 0.64791 0.0
C584 C 0.50894 0.26765 0.63914 0.0
C585 C 0.48696 0.27841 0.64682 0.0
H586 H 0.50706 0.2991 0.621 0.0
H587 H 0.51571 0.25877 0.63985 0.0
O588 O 0.5609 0.28164 0.594 0.0
O589 O 0.54665 0.29883 0.61991 0.0
O590 O 0.52582 0.27836 0.59307 0.0
O591 O 0.54405 0.26401 0.61801 0.0
H592 H 0.59021 0.29341 0.60233 0.0
H593 H 0.55653 0.27296 0.56287 0.0
H594 H 0.61026 0.29522 0.58372 0.0
H595 H 0.57718 0.27517 0.5449 0.0
H596 H 0.54665 0.32134 0.67037 0.0
H597 H 0.55795 0.32725 0.61498 0.0
H598 H 0.54186 0.29833 0.65028 0.0
H599 H 0.56237 0.34973 0.63563 0.0
H600 H 0.56398 0.33893 0.56297 0.0
H601 H 0.51998 0.33904 0.58084 0.0
H602 H 0.60069 0.25978 0.64758 0.0
H603 H 0.60914 0.30926 0.65354 0.0
H604 H 0.49749 0.26679 0.59805 0.0
H605 H 0.52617 0.28325 0.56271 0.0
H606 H 0.47496 0.2621 0.57742 0.0
H607 H 0.50313 0.27818 0.54263 0.0
H608 H 0.53164 0.23475 0.61003 0.0
H609 H 0.55283 0.26854 0.64913 0.0
H610 H 0.52968 0.21491 0.62883 0.0
H611 H 0.5504 0.24809 0.6673 0.0
H612 H 0.56038 0.21597 0.57977 0.0
H613 H 0.51508 0.21695 0.55743 0.0
H614 H 0.48431 0.29891 0.63574 0.0
H615 H 0.49349 0.25799 0.65524 0.0
Li616 Li 0.00447 0.27559 0.93948 0.0
Li617 Li 0.98689 0.25829 0.91606 0.0
Li618 Li 1.00252 0.24567 0.93836 0.0
Li619 Li 0.01638 0.26042 0.91712 0.0
C620 C 0.97523 0.26025 0.95032 0.0
N621 N 0.95323 0.26249 0.97092 0.0
C622 C 0.96128 0.26414 0.94487 0.0
C623 C 0.97803 0.2575 0.96624 0.0
C624 C 0.95029 0.2652 0.95546 0.0
C625 C 0.96675 0.25872 0.97648 0.0
C626 C 0.00322 0.28745 0.9055 0.0
C627 C 0.00644 0.29565 0.87946 0.0
N628 N 0.0037 0.30969 0.8848 0.0
C629 C 1.00034 0.30192 0.91072 0.0
C630 C 0.00624 0.28424 0.88975 0.0
C631 C 1.00067 0.31302 0.90008 0.0
C632 C 0.0202 0.30649 0.95096 0.0
N633 N 0.00724 0.29619 0.9523 0.0
C634 C 0.99769 0.31593 0.96784 0.0
C635 C 0.99613 0.30066 0.96075 0.0
C636 C 0.01067 0.32695 0.96607 0.0
C637 C 0.02211 0.32187 0.95765 0.0
H638 H 0.0289 0.30289 0.94415 0.0
H639 H 0.98578 0.29254 0.96161 0.0
C640 C 0.95915 0.24353 0.89413 0.0
N641 N 0.96749 0.25712 0.9015 0.0
C642 C 0.94557 0.24311 0.88389 0.0
C643 C 0.94905 0.27057 0.88912 0.0
C644 C 0.96264 0.2705 0.89905 0.0
C645 C 0.94022 0.25676 0.8813 0.0
H646 H 0.96298 0.23295 0.89619 0.0
H647 H 0.96927 0.28123 0.90494 0.0
C648 C 0.03364 0.26418 0.95194 0.0
N649 N 0.05917 0.26718 0.97399 0.0
C650 C 0.0473 0.26061 0.94713 0.0
C651 C 0.03293 0.26928 0.96795 0.0
C652 C 0.06009 0.2622 0.95846 0.0
C653 C 0.04598 0.27071 0.97892 0.0
C654 C 0.99925 0.22971 0.90279 0.0
C655 C 0.00328 0.21606 0.90708 0.0
C656 C 0.99467 0.23101 0.8868 0.0
C657 C 1.00259 0.20385 0.89525 0.0
C658 C 0.99411 0.21853 0.87532 0.0
N659 N 0.99804 0.20532 0.87975 0.0
C660 C 0.99028 0.21601 0.95007 0.0
C661 C 0.01685 0.22459 0.95731 0.0
C662 C 0.99097 0.20215 0.95679 0.0
N663 N 1.00315 0.22695 0.95024 0.0
C664 C 0.018 0.21096 0.96426 0.0
C665 C 0.005 0.19938 0.96393 0.0
H666 H 0.97948 0.21782 0.94431 0.0
H667 H 0.02708 0.23309 0.95723 0.0
C668 C 0.04342 0.275 0.90369 0.0
N669 N 0.03405 0.26127 0.9043 0.0
C670 C 0.0563 0.27595 0.89509 0.0
C671 C 0.04977 0.24867 0.88772 0.0
C672 C 0.03709 0.24823 0.89652 0.0
C673 C 0.05975 0.26266 0.88688 0.0
H674 H 0.041 0.28526 0.91004 0.0
H675 H 0.02973 0.23736 0.89717 0.0
O676 O 0.98589 0.25867 0.93998 0.0
O677 O 0.00349 0.27663 0.91591 0.0
O678 O 0.02108 0.26285 0.94098 0.0
O679 O 0.99955 0.24163 0.91426 0.0
H680 H 0.95892 0.26622 0.93256 0.0
H681 H 0.98876 0.2544 0.97059 0.0
H682 H 0.93941 0.26814 0.95139 0.0
H683 H 0.96873 0.25662 0.98883 0.0
H684 H 0.00881 0.29336 0.86724 0.0
H685 H 0.99786 0.30455 0.92283 0.0
H686 H 0.00851 0.27308 0.88556 0.0
H687 H 0.99853 0.32429 0.90397 0.0
H688 H 0.98849 0.31921 0.97409 0.0
H689 H 0.03241 0.3298 0.95606 0.0
H690 H 0.93915 0.23215 0.87829 0.0
H691 H 0.94557 0.28141 0.88745 0.0
H692 H 0.04801 0.25664 0.93477 0.0
H693 H 0.02242 0.27212 0.97182 0.0
H694 H 0.07074 0.25948 0.95491 0.0
H695 H 0.04563 0.27465 0.99135 0.0
H696 H 0.00691 0.2149 0.91941 0.0
H697 H 0.99153 0.24154 0.88331 0.0
H698 H 0.00565 0.1932 0.8984 0.0
H699 H 0.99053 0.21933 0.86289 0.0
H700 H 0.98065 0.19354 0.95615 0.0
H701 H 0.02908 0.20931 0.96947 0.0
H702 H 0.06362 0.28702 0.89517 0.0
H703 H 0.05161 0.23808 0.8815 0.0
Li704 Li 0.38961 0.0117 0.29843 0.0
Li705 Li 0.36768 0.99615 0.28266 0.0
Li706 Li 0.38855 0.0105 0.27018 0.0
Li707 Li 0.37001 0.02295 0.28406 0.0
C708 C 0.3986 0.98331 0.28422 0.0
N709 N 0.41798 0.96237 0.28593 0.0
C710 C 0.3928 0.96808 0.28623 0.0
C711 C 0.41425 0.98793 0.28312 0.0
C712 C 0.40279 0.95766 0.28709 0.0
C713 C 0.42386 0.97715 0.28397 0.0
C714 C 0.35848 0.00905 0.3133 0.0
C715 C 0.33342 0.00871 0.32197 0.0
N716 N 0.33895 0.00607 0.33681 0.0
C717 C 0.36392 0.00634 0.32863 0.0
C718 C 0.34311 0.01026 0.30991 0.0
C719 C 0.35387 0.00487 0.34035 0.0
C720 C 0.40701 0.02819 0.32416 0.0
N721 N 0.40239 0.01385 0.31645 0.0
C722 C 0.41605 0.00289 0.33625 0.0
C723 C 0.40647 1.00125 0.32215 0.0
C724 C 0.42114 0.01758 0.34426 0.0
C725 C 0.4167 0.03039 0.33826 0.0
H726 H 0.40298 0.03781 0.31943 0.0
H727 H 0.402 0.98998 0.316 0.0
C728 C 0.35177 0.97128 0.2653 0.0
N729 N 0.35376 0.97884 0.28021 0.0
C730 C 0.34162 0.95754 0.26199 0.0
C731 C 0.3359 0.95977 0.28958 0.0
C732 C 0.34614 0.97355 0.29232 0.0
C733 C 0.33397 0.95162 0.27438 0.0
H734 H 0.35847 0.97573 0.25618 0.0
H735 H 0.34849 0.97958 0.30419 0.0
C736 C 0.40374 0.0415 0.28648 0.0
N737 N 0.42665 0.06707 0.28873 0.0
C738 C 0.40005 0.0558 0.28418 0.0
C739 C 0.41906 0.04015 0.28986 0.0
C740 C 0.41181 0.0686 0.28533 0.0
C741 C 0.43049 0.05325 0.29101 0.0
C742 C 0.35577 0.0056 0.25169 0.0
C743 C 0.36035 0.00678 0.23642 0.0
C744 C 0.34018 1.00174 0.25354 0.0
C745 C 0.34925 0.00403 0.22319 0.0
C746 C 0.32943 0.99896 0.23998 0.0
N747 N 0.33414 1.00018 0.22522 0.0
C748 C 0.40193 0.9968 0.24626 0.0
C749 C 0.40568 0.02404 0.2483 0.0
C750 C 0.41034 0.99645 0.23326 0.0
N751 N 0.39993 0.01046 0.25343 0.0
C752 C 0.41402 0.02423 0.23528 0.0
C753 C 0.41629 0.01031 0.22768 0.0
H754 H 0.39681 0.98622 0.25052 0.0
H755 H 0.40352 0.03464 0.25411 0.0
C756 C 0.35787 0.04576 0.29869 0.0
N757 N 0.35887 0.03786 0.28445 0.0
C758 C 0.34955 0.05751 0.29917 0.0
C759 C 0.34298 0.05197 0.27043 0.0
C760 C 0.35165 0.04058 0.27049 0.0
C761 C 0.34232 0.06086 0.28481 0.0
H762 H 0.36388 0.04315 0.30952 0.0
H763 H 0.35296 0.03425 0.25938 0.0
O764 O 0.38888 0.99354 0.28313 0.0
O765 O 0.3682 0.01051 0.30172 0.0
O766 O 0.39229 0.02898 0.28568 0.0
O767 O 0.36655 0.0085 0.26475 0.0
H768 H 0.3807 0.96435 0.28712 0.0
H769 H 0.41888 0.9997 0.28154 0.0
H770 H 0.39847 0.94583 0.28865 0.0
H771 H 0.43599 0.98052 0.28307 0.0
H772 H 0.32149 0.00959 0.31953 0.0
H773 H 0.37577 0.00535 0.33145 0.0
H774 H 0.33873 0.0123 0.29808 0.0
H775 H 0.35792 0.00276 0.35226 0.0
H776 H 0.41931 0.99287 0.34096 0.0
H777 H 0.42036 0.04178 0.3446 0.0
H778 H 0.34049 0.95112 0.25027 0.0
H779 H 0.33046 0.95502 0.29942 0.0
H780 H 0.38822 0.05699 0.28154 0.0
H781 H 0.42206 0.02914 0.29172 0.0
H782 H 0.40912 0.07974 0.28357 0.0
H783 H 0.4424 0.05243 0.29373 0.0
H784 H 0.37236 0.0099 0.23481 0.0
H785 H 0.33646 1.00087 0.2653 0.0
H786 H 0.35263 0.00497 0.2113 0.0
H787 H 0.31733 0.99588 0.24118 0.0
H788 H 0.41181 0.98555 0.22737 0.0
H789 H 0.41852 0.03506 0.23107 0.0
H790 H 0.34942 0.06436 0.31042 0.0
H791 H 0.33743 0.05426 0.25918 0.0
Li792 Li 0.2688 0.17474 0.52114 0.0
Li793 Li 0.27963 0.154 0.50536 0.0
Li794 Li 0.26712 0.1734 0.49091 0.0
Li795 Li 0.25083 0.15199 0.50336 0.0
C796 C 0.29851 0.18778 0.50885 0.0
N797 N 0.32479 0.20992 0.51169 0.0
C798 C 0.31278 0.18406 0.51337 0.0
C799 C 0.29757 0.20273 0.50578 0.0
C800 C 0.32594 0.19542 0.51476 0.0
C801 C 0.31101 0.21377 0.50728 0.0
C802 C 0.26704 0.14234 0.53382 0.0
C803 C 0.26307 0.11674 0.54159 0.0
N804 N 0.26893 0.12251 0.55682 0.0
C805 C 0.27305 0.14803 0.54952 0.0
C806 C 0.26203 0.12659 0.52977 0.0
C807 C 0.27392 0.13781 0.56098 0.0
C808 C 0.25739 0.18897 0.54768 0.0
N809 N 0.27064 0.18764 0.54135 0.0
C810 C 0.28536 0.20224 0.56481 0.0
C811 C 0.2845 0.19424 0.5495 0.0
C812 C 0.27183 0.20343 0.57188 0.0
C813 C 0.25772 0.19686 0.56287 0.0
H814 H 0.24651 0.18359 0.54103 0.0
H815 H 0.29492 0.19294 0.54434 0.0
C816 C 0.30127 0.13821 0.49134 0.0
N817 N 0.29624 0.14267 0.50544 0.0
C818 C 0.3136 0.13039 0.49112 0.0
C819 C 0.31569 0.13227 0.51995 0.0
C820 C 0.30319 0.13985 0.51961 0.0
C821 C 0.32104 0.12742 0.50557 0.0
H822 H 0.29581 0.14087 0.48024 0.0
H823 H 0.29919 0.14371 0.53069 0.0
C824 C 0.24049 0.18417 0.50357 0.0
N825 N 0.21985 0.20374 0.50048 0.0
C826 C 0.22529 0.1784 0.49727 0.0
C827 C 0.24523 0.19986 0.50831 0.0
C828 C 0.21502 0.18849 0.4958 0.0
C829 C 0.2346 0.20957 0.50664 0.0
C830 C 0.2618 0.14009 0.47279 0.0
C831 C 0.25799 0.14444 0.45768 0.0
C832 C 0.26351 0.12499 0.47431 0.0
C833 C 0.25607 0.13359 0.44427 0.0
C834 C 0.26154 0.11449 0.46059 0.0
N835 N 0.25791 0.11897 0.44599 0.0
C836 C 0.28142 0.18637 0.46541 0.0
C837 C 0.25633 0.19133 0.46687 0.0
C838 C 0.28274 0.19395 0.45166 0.0
N839 N 0.26834 0.18514 0.4727 0.0
C840 C 0.25719 0.19908 0.4532 0.0
C841 C 0.27048 0.20039 0.44524 0.0
H842 H 0.29076 0.1812 0.47012 0.0
H843 H 0.24595 0.1901 0.47266 0.0
C844 C 0.22554 0.13509 0.51603 0.0
N845 N 0.23114 0.13827 0.50204 0.0
C846 C 0.2112 0.12564 0.51601 0.0
C847 C 0.20842 0.12302 0.48716 0.0
C848 C 0.22292 0.13241 0.48773 0.0
C849 C 0.20236 0.11949 0.50145 0.0
H850 H 0.23216 0.14002 0.52726 0.0
H851 H 0.22754 0.13516 0.47674 0.0
O852 O 0.2856 0.17668 0.50698 0.0
O853 O 0.26566 0.15224 0.5226 0.0
O854 O 0.25058 0.17442 0.50537 0.0
O855 O 0.26439 0.15075 0.48593 0.0
H856 H 0.31369 0.17252 0.51574 0.0
H857 H 0.2866 0.20574 0.50218 0.0
H858 H 0.33707 0.19271 0.51823 0.0
H859 H 0.31049 0.22539 0.50489 0.0
H860 H 0.25917 0.10451 0.53867 0.0
H861 H 0.27695 0.16021 0.55284 0.0
H862 H 0.25729 0.12205 0.51765 0.0
H863 H 0.27852 0.14205 0.5732 0.0
H864 H 0.29653 0.20694 0.57123 0.0
H865 H 0.24695 0.19768 0.56755 0.0
H866 H 0.3175 0.127 0.47979 0.0
H867 H 0.32109 0.13016 0.53134 0.0
H868 H 0.22147 0.16627 0.49358 0.0
H869 H 0.25697 0.20444 0.51325 0.0
H870 H 0.20321 0.1842 0.49096 0.0
H871 H 0.23808 0.22175 0.51027 0.0
H872 H 0.25662 0.15608 0.45631 0.0
H873 H 0.26653 0.12149 0.48593 0.0
H874 H 0.25318 0.1368 0.43249 0.0
H875 H 0.26297 0.10279 0.46155 0.0
H876 H 0.29313 0.19438 0.44589 0.0
H877 H 0.24749 0.20397 0.44892 0.0
H878 H 0.20694 0.12344 0.52731 0.0
H879 H 0.20207 0.11848 0.47566 0.0
Li880 Li 0.14268 0.04374 0.77989 0.0
Li881 Li 0.12136 0.02746 0.7921 0.0
Li882 Li 0.14067 0.01495 0.77784 0.0
Li883 Li 0.11995 0.0258 0.76211 0.0
C884 C 0.15438 0.0323 0.81048 0.0
N885 N 0.17519 0.03579 0.8375 0.0
C886 C 0.15005 0.03662 0.82547 0.0
C887 C 0.16928 0.02978 0.80921 0.0
C888 C 0.16074 0.03832 0.839 0.0
C889 C 0.17964 0.03161 0.82303 0.0
C890 C 0.11052 0.05408 0.77964 0.0
C891 C 0.08511 0.05996 0.77654 0.0
N892 N 0.0909 0.07463 0.783 0.0
C893 C 0.11624 0.0692 0.78625 0.0
C894 C 0.09486 0.04938 0.77471 0.0
C895 C 0.10612 0.07942 0.78785 0.0
C896 C 0.15787 0.0698 0.76744 0.0
N897 N 0.15634 0.06335 0.78129 0.0
C898 C 0.17305 0.08528 0.79601 0.0
C899 C 0.16376 0.07074 0.79544 0.0
C900 C 0.17472 0.09235 0.78188 0.0
C901 C 0.16705 0.08426 0.76745 0.0
H902 H 0.15185 0.06373 0.75634 0.0
H903 H 0.16229 0.06546 0.80635 0.0
C904 C 0.10956 0.01333 0.81779 0.0
N905 N 0.10981 0.02614 0.81017 0.0
C906 C 0.10233 0.01189 0.83171 0.0
C907 C 0.09538 0.03668 0.82952 0.0
C908 C 0.10289 0.03772 0.81572 0.0
C909 C 0.0952 0.02371 0.83781 0.0
H910 H 0.11523 0.00434 0.81319 0.0
H911 H 0.10344 0.04793 0.80971 0.0
C912 C 0.15222 0.02815 0.74922 0.0
N913 N 0.1719 0.02654 0.72603 0.0
C914 C 0.14651 0.0217 0.73366 0.0
C915 C 0.16792 0.0338 0.75303 0.0
C916 C 0.15665 0.021 0.72209 0.0
C917 C 0.17769 0.03286 0.74112 0.0
C918 C 0.10697 0.99607 0.77464 0.0
C919 C 0.11063 0.98178 0.7701 0.0
C920 C 0.09208 0.99704 0.77794 0.0
C921 C 0.09929 0.96863 0.76898 0.0
C922 C 0.08106 0.98361 0.77669 0.0
N923 N 0.08486 0.9698 0.77228 0.0
C924 C 0.15141 0.99009 0.79083 0.0
C925 C 0.15963 0.99469 0.76558 0.0
C926 C 0.1589 0.97755 0.79131 0.0
N927 N 0.15188 0.99836 0.77808 0.0
C928 C 0.1675 0.98245 0.7657 0.0
C929 C 0.16714 0.97367 0.77865 0.0
H930 H 0.14507 0.99317 0.80058 0.0
H931 H 0.15963 1.00111 0.7554 0.0
C932 C 0.10799 0.03668 0.73435 0.0
N933 N 0.10707 0.02387 0.74204 0.0
C934 C 0.10022 0.03612 0.71907 0.0
C935 C 0.09013 0.00929 0.72001 0.0
C936 C 0.09822 0.01034 0.73527 0.0
C937 C 0.09132 0.02224 0.71154 0.0
H938 H 0.1151 0.0473 0.73996 0.0
H939 H 0.09774 1.00025 0.74152 0.0
O940 O 0.14392 0.03013 0.7972 0.0
O941 O 0.1203 0.04403 0.77777 0.0
O942 O 0.14245 0.02898 0.76065 0.0
O943 O 0.11804 0.00899 0.77615 0.0
H944 H 0.13856 0.03863 0.82666 0.0
H945 H 0.17276 0.02637 0.79768 0.0
H946 H 0.15754 0.04161 0.85068 0.0
H947 H 0.19121 0.02967 0.82225 0.0
H948 H 0.07295 0.05651 0.77279 0.0
H949 H 0.12836 0.07298 0.79008 0.0
H950 H 0.09032 0.0377 0.76955 0.0
H951 H 0.11037 0.09117 0.79292 0.0
H952 H 0.17856 0.09105 0.80745 0.0
H953 H 0.16815 0.089 0.75619 0.0
H954 H 0.10235 1.00164 0.83766 0.0
H955 H 0.0902 0.04614 0.83393 0.0
H956 H 0.13438 0.01724 0.73056 0.0
H957 H 0.17248 0.0388 0.76506 0.0
H958 H 0.1524 0.01604 0.70999 0.0
H959 H 0.18987 0.03716 0.74387 0.0
H960 H 0.12212 0.98086 0.76748 0.0
H961 H 0.0891 0.00803 0.78151 0.0
H962 H 0.10196 0.95749 0.7655 0.0
H963 H 0.06948 0.98415 0.77926 0.0
H964 H 0.15841 0.97105 0.80152 0.0
H965 H 0.17356 0.97967 0.75561 0.0
H966 H 0.10131 0.04644 0.71312 0.0
H967 H 0.08349 0.99834 0.71465 0.0
Li968 Li 0.27197 0.92542 0.99907 0.0
Li969 Li 0.28396 0.90692 0.01356 0.0
Li970 Li 0.29899 0.92714 0.00096 0.0
Li971 Li 0.28301 0.90495 0.98511 0.0
C972 C 0.28982 0.93931 0.03214 0.0
N973 N 0.29636 0.95983 0.05954 0.0
C974 C 0.2872 0.93431 0.047 0.0
C975 C 0.29576 0.95476 0.03121 0.0
C976 C 0.29057 0.94486 0.06071 0.0
C977 C 0.29901 0.96495 0.0452 0.0
C978 C 0.25339 0.89136 0.9969 0.0
C979 C 0.24226 0.86448 0.99176 0.0
N980 N 0.22839 0.8678 0.99477 0.0
C981 C 0.23905 0.89452 -4e-05 0.0
C982 C 0.25507 0.87624 0.99281 0.0
C983 C 0.22655 0.88245 0.99883 0.0
C984 C 0.24576 0.93307 0.98543 0.0
N985 N 0.25697 0.9368 0.99785 0.0
C986 C 0.24581 0.95715 0.00871 0.0
C987 C 0.25741 0.94869 0.00921 0.0
C988 C 0.2335 0.95299 0.99661 0.0
C989 C 0.2337 0.94102 0.98461 0.0
H990 H 0.24599 0.92359 0.97652 0.0
H991 H 0.26655 0.95142 0.01883 0.0
C992 C 0.29678 0.89287 0.03747 0.0
N993 N 0.28339 0.89565 0.03044 0.0
C994 C 0.29665 0.88391 0.05001 0.0
C995 C 0.26901 0.88175 0.04831 0.0
C996 C 0.26967 0.89046 0.03557 0.0
C997 C 0.28262 0.87834 0.05561 0.0
H998 H 0.30753 0.89761 0.03331 0.0
H999 H 0.25931 0.89334 0.02995 0.0
C1000 C 0.28551 0.93613 0.97001 0.0
N1001 N 0.28722 0.95565 0.94646 0.0
C1002 C 0.28825 0.93089 0.95463 0.0
C1003 C 0.28371 0.95131 0.97346 0.0
C1004 C 0.28905 0.94093 0.94288 0.0
C1005 C 0.28459 0.961 0.96137 0.0
C1006 C 0.31178 0.8965 0.00057 0.0
C1007 C 0.32675 0.90254 0.99778 0.0
C1008 C 0.30793 0.88107 0.00307 0.0
C1009 C 0.33764 0.89302 0.99752 0.0
C1010 C 0.31915 0.87192 0.00269 0.0
N1011 N 0.33364 0.87803 -5e-05 0.0
C1012 C 0.32483 0.94316 0.01751 0.0
C1013 C 0.32164 0.94761 0.99015 0.0
C1014 C 0.33881 0.95306 0.0199 0.0
N1015 N 0.31668 0.94074 0.00286 0.0
C1016 C 0.33565 0.95749 0.99195 0.0
C1017 C 0.34426 0.96001 0.00691 0.0
H1018 H 0.32062 0.93703 0.02714 0.0
H1019 H 0.31515 0.94492 0.97853 0.0
C1020 C 0.26808 0.89229 0.95645 0.0
N1021 N 0.28042 0.89186 0.96694 0.0
C1022 C 0.26594 0.8835 0.94173 0.0
C1023 C 0.28875 0.87339 0.94961 0.0
C1024 C 0.29068 0.88272 0.96388 0.0
C1025 C 0.27651 0.87405 0.93817 0.0
H1026 H 0.26025 0.89987 0.95939 0.0
H1027 H 0.30051 0.88282 0.97226 0.0
O1028 O 0.28634 0.92911 0.01859 0.0
O1029 O 0.26561 0.90313 0.99771 0.0
O1030 O 0.28483 0.92645 0.98165 0.0
O1031 O 0.30098 0.90568 0.0008 0.0
H1032 H 0.28247 0.92245 0.04796 0.0
H1033 H 0.29771 0.95885 0.01977 0.0
H1034 H 0.28854 0.94114 0.07227 0.0
H1035 H 0.3036 0.97694 0.04467 0.0
H1036 H 0.24334 0.85272 0.98854 0.0
H1037 H 0.23762 0.90618 0.00321 0.0
H1038 H 0.26612 0.87364 0.99042 0.0
H1039 H 0.21538 0.88472 0.00118 0.0
H1040 H 0.24624 0.9665 0.018 0.0
H1041 H 0.22432 0.93731 0.97519 0.0
H1042 H 0.30738 0.88143 0.05526 0.0
H1043 H 0.25803 0.87804 0.05259 0.0
H1044 H 0.28989 0.91924 0.95183 0.0
H1045 H 0.28177 0.95558 0.98536 0.0
H1046 H 0.29118 0.93704 0.93093 0.0
H1047 H 0.28323 0.97278 0.96384 0.0
H1048 H 0.32991 0.91444 0.99578 0.0
H1049 H 0.29635 0.87618 0.00509 0.0
H1050 H 0.34926 0.89754 0.99537 0.0
H1051 H 0.31633 0.85995 0.00453 0.0
H1052 H 0.3457 0.95453 0.03139 0.0
H1053 H 0.34009 0.9624 0.98169 0.0
H1054 H 0.25646 0.88445 0.93313 0.0
H1055 H 0.29693 0.86596 0.94748 0.0
Li1056 Li 0.26813 0.3875 0.02824 0.0
Li1057 Li 0.28011 0.36803 0.04213 0.0
Li1058 Li 0.29691 0.38952 0.02968 0.0
Li1059 Li 0.27927 0.36677 0.01202 0.0
C1060 C 0.28412 0.40094 0.06053 0.0
N1061 N 0.28489 0.42162 0.08717 0.0
C1062 C 0.27842 0.39593 0.07437 0.0
C1063 C 0.29023 0.41644 0.06022 0.0
C1064 C 0.27894 0.40657 0.08773 0.0
C1065 C 0.29047 0.42673 0.07381 0.0
C1066 C 0.24904 0.3541 0.02562 0.0
C1067 C 0.23538 0.32799 0.02047 0.0
N1068 N 0.22279 0.33249 0.02593 0.0
C1069 C 0.23599 0.35849 0.03119 0.0
C1070 C 0.24876 0.33876 0.02017 0.0
C1071 C 0.22282 0.34739 0.03123 0.0
C1072 C 0.2417 0.39706 0.01434 0.0
N1073 N 0.25158 0.39889 0.02796 0.0
C1074 C 0.23718 0.41588 0.0408 0.0
C1075 C 0.24948 0.40804 0.04109 0.0
C1076 C 0.22675 0.41407 0.02697 0.0
C1077 C 0.22909 0.4045 0.01361 0.0
H1078 H 0.24355 0.38967 0.00408 0.0
H1079 H 0.2572 0.40917 0.05191 0.0
C1080 C 0.29226 0.35826 0.07077 0.0
N1081 N 0.27935 0.35633 0.06027 0.0
C1082 C 0.29205 0.35121 0.08491 0.0
C1083 C 0.26546 0.33981 0.0769 0.0
C1084 C 0.2661 0.34728 0.06307 0.0
C1085 C 0.27848 0.34194 0.08812 0.0
H1086 H 0.30262 0.3656 0.06835 0.0
H1087 H 0.25588 0.34609 0.05484 0.0
C1088 C 0.28183 0.39926 -0.00061 0.0
N1089 N 0.28198 0.41928 0.97637 0.0
C1090 C 0.2841 0.39446 0.98373 0.0
C1091 C 0.27969 0.41424 0.0034 0.0
C1092 C 0.28413 0.40475 0.97225 0.0
C1093 C 0.27979 0.42419 0.99157 0.0
C1094 C 0.30726 0.35733 0.02853 0.0
C1095 C 0.32241 0.36256 0.02581 0.0
C1096 C 0.3026 0.34213 0.03143 0.0
C1097 C 0.33273 0.35244 0.02602 0.0
C1098 C 0.31327 0.33237 0.03155 0.0
N1099 N 0.32798 0.33768 0.02887 0.0
C1100 C 0.32621 0.40527 0.04535 0.0
C1101 C 0.32079 0.41059 0.01873 0.0
C1102 C 0.34072 0.41476 0.04663 0.0
N1103 N 0.31659 0.40331 0.03152 0.0
C1104 C 0.3351 0.42025 0.01952 0.0
C1105 C 0.34538 0.42242 0.03358 0.0
H1106 H 0.32267 0.39934 0.05537 0.0
H1107 H 0.31313 0.40876 0.00777 0.0
C1108 C 0.26458 0.35371 0.98115 0.0
N1109 N 0.27702 0.35374 0.99181 0.0
C1110 C 0.26312 0.34571 0.96582 0.0
C1111 C 0.28687 0.33721 0.97289 0.0
C1112 C 0.28801 0.34557 0.98801 0.0
C1113 C 0.27445 0.33746 0.96144 0.0
H1114 H 0.25599 0.36028 0.98441 0.0
H1115 H 0.29789 0.34584 0.99652 0.0
O1116 O 0.28382 0.39067 0.04739 0.0
O1117 O 0.26199 0.36481 0.02541 0.0
O1118 O 0.28166 0.38927 0.0107 0.0
O1119 O 0.29708 0.36711 0.02844 0.0
H1120 H 0.27361 0.38397 0.07479 0.0
H1121 H 0.29465 0.42048 0.04957 0.0
H1122 H 0.2746 0.40286 0.09853 0.0
H1123 H 0.29511 0.43879 0.07374 0.0
H1124 H 0.23499 0.31605 0.01635 0.0
H1125 H 0.23605 0.37033 0.03548 0.0
H1126 H 0.2588 0.33521 0.01585 0.0
H1127 H 0.21263 0.35061 0.0355 0.0
H1128 H 0.23564 0.42301 0.0514 0.0
H1129 H 0.22131 0.40287 0.0027 0.0
H1130 H 0.30232 0.3531 0.09331 0.0
H1131 H 0.25474 0.33291 0.0791 0.0
H1132 H 0.2859 0.38292 0.98048 0.0
H1133 H 0.27796 0.41811 0.01551 0.0
H1134 H 0.28587 0.40119 0.96007 0.0
H1135 H 0.27812 0.43583 0.99446 0.0
H1136 H 0.32615 0.37431 0.02353 0.0
H1137 H 0.29088 0.33795 0.03356 0.0
H1138 H 0.3445 0.35632 0.02392 0.0
H1139 H 0.30986 0.32056 0.03379 0.0
H1140 H 0.34817 0.41614 0.05774 0.0
H1141 H 0.33822 0.42568 0.00906 0.0
H1142 H 0.25332 0.34614 0.95738 0.0
H1143 H 0.29593 0.33113 0.96996 0.0
Li1144 Li 0.76479 0.13716 0.04822 0.0
Li1145 Li 0.77581 0.11772 0.0339 0.0
Li1146 Li 0.76283 0.13566 0.01975 0.0
Li1147 Li 0.74894 0.11476 0.03234 0.0
C1148 C 0.79455 0.151 0.03632 0.0
N1149 N 0.82076 0.17328 0.03979 0.0
C1150 C 0.80876 0.14738 0.04126 0.0
C1151 C 0.79364 0.16594 0.03312 0.0
C1152 C 0.82189 0.15881 0.04293 0.0
C1153 C 0.80703 0.17705 0.03496 0.0
C1154 C 0.76299 0.10573 0.06288 0.0
C1155 C 0.75815 0.08004 0.07045 0.0
N1156 N 0.7618 0.08581 0.08608 0.0
C1157 C 0.76681 0.11138 0.07901 0.0
C1158 C 0.75877 0.08992 0.05852 0.0
C1159 C 0.76612 0.10113 0.09057 0.0
C1160 C 0.7542 0.1473 0.07516 0.0
N1161 N 0.76614 0.14984 0.06633 0.0
C1162 C 0.77951 0.17024 0.08505 0.0
C1163 C 0.77866 0.16092 0.07091 0.0
C1164 C 0.76757 0.16765 0.09471 0.0
C1165 C 0.75474 0.15607 0.08967 0.0
H1166 H 0.74451 0.13819 0.07104 0.0
H1167 H 0.78804 0.16248 0.06377 0.0
C1168 C 0.79583 0.10273 0.02002 0.0
N1169 N 0.79094 0.10696 0.03417 0.0
C1170 C 0.80725 0.09407 0.01972 0.0
C1171 C 0.80828 0.09461 0.04861 0.0
C1172 C 0.79681 0.10321 0.04832 0.0
C1173 C 0.81358 0.09014 0.03418 0.0
H1174 H 0.79101 0.10631 0.0091 0.0
H1175 H 0.79285 0.10718 0.05936 0.0
C1176 C 0.736 0.14567 0.03387 0.0
N1177 N 0.71502 0.16503 0.03472 0.0
C1178 C 0.72037 0.13977 0.02995 0.0
C1179 C 0.74101 0.16138 0.03824 0.0
C1180 C 0.70993 0.14976 0.03041 0.0
C1181 C 0.73019 0.17099 0.03864 0.0
C1182 C 0.7586 0.10269 0.00165 0.0
C1183 C 0.75475 0.10671 0.9864 0.0
C1184 C 0.75957 0.08749 0.00364 0.0
C1185 C 0.75196 0.09541 0.97333 0.0
C1186 C 0.75672 0.07653 0.99026 0.0
N1187 N 0.75301 0.08068 0.97551 0.0
C1188 C 0.7764 0.15041 0.99681 0.0
C1189 C 0.7498 0.15107 0.99676 0.0
C1190 C 0.77734 0.15906 0.98404 0.0
N1191 N 0.76285 0.14684 0.00291 0.0
C1192 C 0.75015 0.15955 0.9838 0.0
C1193 C 0.76408 0.16359 0.97751 0.0
H1194 H 0.78642 0.14647 0.00187 0.0
H1195 H 0.73917 0.1477 0.00176 0.0
C1196 C 0.72567 0.09825 0.04522 0.0
N1197 N 0.73165 0.10075 0.03131 0.0
C1198 C 0.7119 0.08823 0.04494 0.0
C1199 C 0.71101 0.08365 0.01605 0.0
C1200 C 0.72477 0.09374 0.0169 0.0
C1201 C 0.70445 0.08121 0.03016 0.0
H1202 H 0.73129 0.10454 0.05637 0.0
H1203 H 0.72948 0.09658 0.00605 0.0
O1204 O 0.7816 0.13994 0.03468 0.0
O1205 O 0.76319 0.11571 0.05151 0.0
O1206 O 0.74629 0.13598 0.03344 0.0
O1207 O 0.76143 0.11368 0.01451 0.0
H1208 H 0.80965 0.13588 0.04381 0.0
H1209 H 0.78268 0.16894 0.02941 0.0
H1210 H 0.83297 0.15617 0.04676 0.0
H1211 H 0.80652 0.18868 0.03259 0.0
H1212 H 0.75474 0.06779 0.06728 0.0
H1213 H 0.77032 0.12356 0.0826 0.0
H1214 H 0.75584 0.08536 0.04607 0.0
H1215 H 0.76901 0.10537 0.10309 0.0
H1216 H 0.78944 0.17928 0.08839 0.0
H1217 H 0.74542 0.15361 0.09695 0.0
H1218 H 0.81153 0.09105 0.00849 0.0
H1219 H 0.81328 0.09186 0.05991 0.0
H1220 H 0.71635 0.12761 0.02652 0.0
H1221 H 0.7531 0.16609 0.0413 0.0
H1222 H 0.69779 0.14538 0.02734 0.0
H1223 H 0.73386 0.18318 0.04204 0.0
H1224 H 0.7539 0.11841 0.98467 0.0
H1225 H 0.76248 0.08422 0.0154 0.0
H1226 H 0.74897 0.09835 0.96146 0.0
H1227 H 0.75746 0.06472 0.99159 0.0
H1228 H 0.78815 0.16194 0.97913 0.0
H1229 H 0.73977 0.16291 0.97875 0.0
H1230 H 0.7066 0.08685 0.05588 0.0
H1231 H 0.70502 0.07867 0.00449 0.0
Li1232 Li 0.17962 0.54547 0.25161 0.0
Li1233 Li 0.15845 0.53088 0.26319 0.0
Li1234 Li 0.17705 0.5184 0.24919 0.0
Li1235 Li 0.15765 0.52965 0.23489 0.0
C1236 C 0.19105 0.53467 0.28207 0.0
N1237 N 0.21272 0.5404 0.3085 0.0
C1238 C 0.18707 0.53973 0.29698 0.0
C1239 C 0.206 0.53235 0.28059 0.0
C1240 C 0.19819 0.54254 0.31021 0.0
C1241 C 0.21682 0.53542 0.2941 0.0
C1242 C 0.14853 0.55817 0.24984 0.0
C1243 C 0.1232 0.5641 0.24553 0.0
N1244 N 0.12925 0.57927 0.24929 0.0
C1245 C 0.1545 0.57381 0.2537 0.0
C1246 C 0.13276 0.55323 0.2458 0.0
C1247 C 0.14456 0.5843 0.25336 0.0
C1248 C 0.19255 0.57103 0.24027 0.0
N1249 N 0.19361 0.56291 0.25293 0.0
C1250 C 0.21494 0.58084 0.2659 0.0
C1251 C 0.20446 0.56743 0.26558 0.0
C1252 C 0.21348 0.5902 0.2536 0.0
C1253 C 0.20227 0.58497 0.24045 0.0
H1254 H 0.18372 0.5669 0.23038 0.0
H1255 H 0.20488 0.56093 0.2756 0.0
C1256 C 0.14295 0.51697 0.28584 0.0
N1257 N 0.14682 0.53049 0.27974 0.0
C1258 C 0.13437 0.5163 0.29871 0.0
C1259 C 0.13423 0.54351 0.2987 0.0
C1260 C 0.14277 0.54365 0.28583 0.0
C1261 C 0.13009 0.52972 0.30516 0.0
H1262 H 0.14671 0.50684 0.28083 0.0
H1263 H 0.14645 0.55427 0.28093 0.0
C1264 C 0.189 0.53241 0.22064 0.0
N1265 N 0.2086 0.53351 0.19715 0.0
C1266 C 0.18317 0.52815 0.20461 0.0
C1267 C 0.20478 0.53723 0.22476 0.0
C1268 C 0.19327 0.52877 0.19291 0.0
C1269 C 0.2145 0.53773 0.21269 0.0
C1270 C 0.14328 0.49986 0.24597 0.0
C1271 C 0.14667 0.48526 0.24249 0.0
C1272 C 0.12818 0.50151 0.24757 0.0
C1273 C 0.13483 0.47248 0.2407 0.0
C1274 C 0.11667 0.48843 0.24574 0.0
N1275 N 0.1202 0.47431 0.24237 0.0
C1276 C 0.18924 0.49683 0.26292 0.0
C1277 C 0.19439 0.49855 0.23594 0.0
C1278 C 0.19726 0.48497 0.264 0.0
N1279 N 0.18796 0.50319 0.24904 0.0
C1280 C 0.20263 0.48675 0.23652 0.0
C1281 C 0.20383 0.47981 0.25061 0.0
H1282 H 0.18379 0.50085 0.27298 0.0
H1283 H 0.19283 0.50371 0.225 0.0
C1284 C 0.14239 0.54037 0.21012 0.0
N1285 N 0.14514 0.52763 0.21659 0.0
C1286 C 0.13262 0.53885 0.19611 0.0
C1287 C 0.1293 0.51116 0.1957 0.0
C1288 C 0.13913 0.51324 0.20966 0.0
C1289 C 0.126 0.52409 0.18891 0.0
H1290 H 0.14786 0.55162 0.21581 0.0
H1291 H 0.14212 0.50342 0.21487 0.0
O1292 O 0.1804 0.53229 0.26894 0.0
O1293 O 0.15821 0.54785 0.24998 0.0
O1294 O 0.17924 0.53172 0.23221 0.0
O1295 O 0.15481 0.51242 0.24786 0.0
H1296 H 0.17555 0.54157 0.29831 0.0
H1297 H 0.20928 0.52861 0.26907 0.0
H1298 H 0.19529 0.5465 0.32183 0.0
H1299 H 0.22849 0.53391 0.29311 0.0
H1300 H 0.11097 0.56048 0.24233 0.0
H1301 H 0.16668 0.5778 0.25698 0.0
H1302 H 0.12797 0.54116 0.24281 0.0
H1303 H 0.14903 0.59643 0.25633 0.0
H1304 H 0.22366 0.58401 0.27602 0.0
H1305 H 0.20038 0.59178 0.23076 0.0
H1306 H 0.1314 0.50559 0.30379 0.0
H1307 H 0.1311 0.55402 0.30373 0.0
H1308 H 0.17099 0.52432 0.20122 0.0
H1309 H 0.20945 0.5405 0.23713 0.0
H1310 H 0.18893 0.52546 0.18045 0.0
H1311 H 0.22674 0.54145 0.21567 0.0
H1312 H 0.15831 0.48383 0.24115 0.0
H1313 H 0.1254 0.51275 0.25025 0.0
H1314 H 0.13728 0.46111 0.23799 0.0
H1315 H 0.10492 0.48949 0.24701 0.0
H1316 H 0.198 0.47959 0.27496 0.0
H1317 H 0.20741 0.48266 0.22597 0.0
H1318 H 0.13045 0.549 0.19083 0.0
H1319 H 0.12435 0.49965 0.19026 0.0
Li1320 Li 0.76806 0.88785 0.52855 0.0
Li1321 Li 0.7799 0.86838 0.54238 0.0
Li1322 Li 0.79679 0.8898 0.52988 0.0
Li1323 Li 0.77905 0.8671 0.51225 0.0
C1324 C 0.7836 0.90147 0.56053 0.0
N1325 N 0.78402 0.92248 0.58682 0.0
C1326 C 0.77844 0.89656 0.57463 0.0
C1327 C 0.789 0.91705 0.55977 0.0
C1328 C 0.77873 0.90736 0.58779 0.0
C1329 C 0.78911 0.9275 0.57321 0.0
C1330 C 0.74909 0.85422 0.52613 0.0
C1331 C 0.73617 0.82782 0.52182 0.0
N1332 N 0.7232 0.83215 0.52646 0.0
C1333 C 0.73564 0.85843 0.53083 0.0
C1334 C 0.74939 0.83882 0.52156 0.0
C1335 C 0.72267 0.84709 0.53093 0.0
C1336 C 0.74451 0.90157 0.51433 0.0
N1337 N 0.75155 0.8992 0.5286 0.0
C1338 C 0.73406 0.91159 0.54259 0.0
C1339 C 0.74657 0.90402 0.5426 0.0
C1340 C 0.72652 0.91422 0.52801 0.0
C1341 C 0.73203 0.90916 0.51375 0.0
H1342 H 0.74851 0.89743 0.50334 0.0
H1343 H 0.75206 0.9017 0.55381 0.0
C1344 C 0.7919 0.85446 0.56869 0.0
N1345 N 0.77874 0.85665 0.56048 0.0
C1346 C 0.7914 0.84693 0.58251 0.0
C1347 C 0.76381 0.84402 0.57923 0.0
C1348 C 0.76484 0.85158 0.56548 0.0
C1349 C 0.77721 0.84167 0.58808 0.0
H1350 H 0.80284 0.85878 0.56465 0.0
H1351 H 0.75454 0.8538 0.55909 0.0
C1352 C 0.78214 0.89958 0.49958 0.0
N1353 N 0.78293 0.91948 0.47641 0.0
C1354 C 0.78397 0.89447 0.48386 0.0
C1355 C 0.7808 0.91482 0.50356 0.0
C1356 C 0.78435 0.90471 0.47231 0.0
C1357 C 0.78118 0.9247 0.49165 0.0
C1358 C 0.807 0.85753 0.52857 0.0
C1359 C 0.82226 0.86288 0.52627 0.0
C1360 C 0.80222 0.84219 0.53089 0.0
C1361 C 0.83255 0.85273 0.52637 0.0
C1362 C 0.81288 0.83241 0.53095 0.0
N1363 N 0.82769 0.83784 0.5287 0.0
C1364 C 0.82591 0.90606 0.54572 0.0
C1365 C 0.82109 0.91012 0.51859 0.0
C1366 C 0.84043 0.91553 0.54697 0.0
N1367 N 0.81656 0.90351 0.53166 0.0
C1368 C 0.83542 0.91974 0.51935 0.0
C1369 C 0.8454 0.92256 0.53365 0.0
H1370 H 0.82212 0.90064 0.55595 0.0
H1371 H 0.81367 0.90778 0.50746 0.0
C1372 C 0.76375 0.85237 0.48182 0.0
N1373 N 0.77684 0.85404 0.49203 0.0
C1374 C 0.76245 0.84413 0.4666 0.0
C1375 C 0.78789 0.83898 0.47282 0.0
C1376 C 0.78874 0.8474 0.48783 0.0
C1377 C 0.77473 0.83745 0.46173 0.0
H1378 H 0.75445 0.85783 0.48533 0.0
H1379 H 0.79909 0.84888 0.49599 0.0
O1380 O 0.78376 0.89101 0.54768 0.0
O1381 O 0.76179 0.8652 0.52569 0.0
O1382 O 0.78152 0.88962 0.51094 0.0
O1383 O 0.79686 0.86735 0.52866 0.0
H1384 H 0.77426 0.88454 0.57543 0.0
H1385 H 0.79311 0.92101 0.54895 0.0
H1386 H 0.77479 0.90371 0.59879 0.0
H1387 H 0.79327 0.9396 0.57282 0.0
H1388 H 0.73621 0.81585 0.51831 0.0
H1389 H 0.73522 0.87032 0.53437 0.0
H1390 H 0.75972 0.83542 0.51782 0.0
H1391 H 0.71218 0.85018 0.53455 0.0
H1392 H 0.73013 0.91499 0.55388 0.0
H1393 H 0.72681 0.91107 0.50221 0.0
H1394 H 0.80205 0.84529 0.58878 0.0
H1395 H 0.75263 0.84049 0.58315 0.0
H1396 H 0.78512 0.88272 0.48062 0.0
H1397 H 0.77939 0.91892 0.5157 0.0
H1398 H 0.78574 0.90091 0.46009 0.0
H1399 H 0.78008 0.93651 0.49451 0.0
H1400 H 0.82609 0.87473 0.52442 0.0
H1401 H 0.79043 0.83792 0.53268 0.0
H1402 H 0.8444 0.8567 0.5246 0.0
H1403 H 0.80939 0.82051 0.53279 0.0
H1404 H 0.84764 0.91741 0.55828 0.0
H1405 H 0.83878 0.92465 0.50868 0.0
H1406 H 0.75212 0.8435 0.45854 0.0
H1407 H 0.79757 0.83384 0.46991 0.0
Li1408 Li 0.92738 0.01577 0.27099 0.0
Li1409 Li 0.90453 0.99797 0.25371 0.0
Li1410 Li 0.92581 0.01462 0.24085 0.0
Li1411 Li 0.90646 0.02668 0.25478 0.0
C1412 C 0.9368 0.98765 0.25488 0.0
N1413 N 0.95653 0.967 0.25499 0.0
C1414 C 0.9315 0.97246 0.25743 0.0
C1415 C 0.95211 0.99238 0.2524 0.0
C1416 C 0.94166 0.96218 0.25745 0.0
C1417 C 0.96192 0.98174 0.25249 0.0
C1418 C 0.89503 0.01301 0.28397 0.0
C1419 C 0.87007 0.01453 0.29207 0.0
N1420 N 0.87517 0.01228 0.30719 0.0
C1421 C 0.90002 0.01066 0.29956 0.0
C1422 C 0.87993 0.0149 0.28014 0.0
C1423 C 0.88981 0.01035 0.31114 0.0
C1424 C 0.94042 0.03045 0.30204 0.0
N1425 N 0.94065 0.01831 0.2911 0.0
C1426 C 0.95827 0.00902 0.30931 0.0
C1427 C 0.94945 0.00775 0.29446 0.0
C1428 C 0.95783 0.02108 0.32124 0.0
C1429 C 0.9488 0.032 0.3172 0.0
H1430 H 0.9333 0.03871 0.29917 0.0
H1431 H 0.94951 0.99813 0.28574 0.0
C1432 C 0.88959 0.96807 0.23898 0.0
N1433 N 0.89079 0.97829 0.25227 0.0
C1434 C 0.88026 0.95351 0.23807 0.0
C1435 C 0.87324 0.96038 0.2643 0.0
C1436 C 0.88284 0.97467 0.2648 0.0
C1437 C 0.87192 0.9495 0.25087 0.0
H1438 H 0.89605 0.97115 0.22917 0.0
H1439 H 0.88409 0.98275 0.27537 0.0
C1440 C 0.94014 0.04551 0.25693 0.0
N1441 N 0.96228 0.07138 0.25688 0.0
C1442 C 0.93598 0.05902 0.25234 0.0
C1443 C 0.95552 0.04513 0.26152 0.0
C1444 C 0.94736 0.07198 0.25238 0.0
C1445 C 0.96656 0.05835 0.26141 0.0
C1446 C 0.89266 0.01077 0.22285 0.0
C1447 C 0.89754 0.01595 0.20874 0.0
C1448 C 0.8771 0.00524 0.22358 0.0
C1449 C 0.88673 0.01554 0.19555 0.0
C1450 C 0.86664 0.00503 0.21013 0.0
N1451 N 0.87163 0.01013 0.19652 0.0
C1452 C 0.9405 0.00265 0.21507 0.0
C1453 C 0.94181 0.02952 0.21723 0.0
C1454 C 0.94816 0.00316 0.20134 0.0
N1455 N 0.93749 0.01572 0.22273 0.0
C1456 C 0.94937 0.03054 0.20348 0.0
C1457 C 0.95261 0.01724 0.19521 0.0
H1458 H 0.93676 0.99176 0.21949 0.0
H1459 H 0.93897 0.03972 0.22323 0.0
C1460 C 0.89411 0.05104 0.26927 0.0
N1461 N 0.89507 0.04318 0.25494 0.0
C1462 C 0.88643 0.06347 0.27006 0.0
C1463 C 0.88092 0.05959 0.24131 0.0
C1464 C 0.88872 0.04725 0.24107 0.0
C1465 C 0.87973 0.06796 0.25594 0.0
H1466 H 0.89939 0.04771 0.28011 0.0
H1467 H 0.88989 0.04111 0.22977 0.0
O1468 O 0.92697 0.99779 0.25472 0.0
O1469 O 0.90492 0.01343 0.27255 0.0
O1470 O 0.92911 0.03286 0.25734 0.0
O1471 O 0.90313 0.0108 0.23575 0.0
H1472 H 0.91968 0.96866 0.25942 0.0
H1473 H 0.95636 0.00413 0.25044 0.0
H1474 H 0.93773 0.95039 0.25941 0.0
H1475 H 0.9738 0.98521 0.25058 0.0
H1476 H 0.85835 0.01601 0.28932 0.0
H1477 H 0.91163 0.009 0.30266 0.0
H1478 H 0.8759 0.01665 0.26809 0.0
H1479 H 0.89351 0.00855 0.32326 0.0
H1480 H 0.96526 1.00047 0.31131 0.0
H1481 H 0.9477 0.04143 0.32576 0.0
H1482 H 0.87953 0.9455 0.22745 0.0
H1483 H 0.86722 0.95771 0.27454 0.0
H1484 H 0.9241 0.05948 0.2488 0.0
H1485 H 0.95887 0.03476 0.26519 0.0
H1486 H 0.94432 0.08252 0.24887 0.0
H1487 H 0.97852 0.05826 0.26495 0.0
H1488 H 0.90953 0.02024 0.20794 0.0
H1489 H 0.87317 1.00113 0.23441 0.0
H1490 H 0.89035 0.01951 0.18455 0.0
H1491 H 0.85455 1.00078 0.2105 0.0
H1492 H 0.95053 0.99258 0.1956 0.0
H1493 H 0.95222 0.04163 0.19914 0.0
H1494 H 0.8857 0.06943 0.28164 0.0
H1495 H 0.87618 0.06276 0.2301 0.0
Li1496 Li 0.26492 0.637 0.54856 0.0
Li1497 Li 0.27532 0.61719 0.534 0.0
Li1498 Li 0.26269 0.63562 0.5201 0.0
Li1499 Li 0.24826 0.61492 0.53256 0.0
C1500 C 0.29442 0.65065 0.53664 0.0
N1501 N 0.32037 0.67327 0.54035 0.0
C1502 C 0.30877 0.64713 0.54119 0.0
C1503 C 0.29324 0.66566 0.53396 0.0
C1504 C 0.32176 0.65873 0.54302 0.0
C1505 C 0.30652 0.67694 0.5359 0.0
C1506 C 0.26294 0.60552 0.56305 0.0
C1507 C 0.25918 0.57987 0.57074 0.0
N1508 N 0.26295 0.58574 0.58633 0.0
C1509 C 0.26689 0.6113 0.57914 0.0
C1510 C 0.25918 0.58968 0.55877 0.0
C1511 C 0.26681 0.60111 0.59073 0.0
C1512 C 0.25437 0.64781 0.57516 0.0
N1513 N 0.26667 0.64969 0.56678 0.0
C1514 C 0.28045 0.66955 0.58589 0.0
C1515 C 0.2796 0.66013 0.57181 0.0
C1516 C 0.26806 0.66772 0.59503 0.0
C1517 C 0.25486 0.6567 0.58959 0.0
H1518 H 0.24436 0.63918 0.57072 0.0
H1519 H 0.28931 0.66109 0.56507 0.0
C1520 C 0.2953 0.60138 0.5203 0.0
N1521 N 0.29039 0.60609 0.53429 0.0
C1522 C 0.30683 0.59279 0.5204 0.0
C1523 C 0.30769 0.59409 0.5493 0.0
C1524 C 0.29632 0.6028 0.54863 0.0
C1525 C 0.31316 0.58921 0.53508 0.0
H1526 H 0.29043 0.60455 0.50917 0.0
H1527 H 0.29247 0.60721 0.55955 0.0
C1528 C 0.23621 0.64618 0.5343 0.0
N1529 N 0.21543 0.66577 0.53495 0.0
C1530 C 0.22056 0.64043 0.53017 0.0
C1531 C 0.24132 0.66186 0.53877 0.0
C1532 C 0.21024 0.65054 0.53053 0.0
C1533 C 0.23061 0.67159 0.53906 0.0
C1534 C 0.25724 0.60246 0.50195 0.0
C1535 C 0.25338 0.60647 0.4867 0.0
C1536 C 0.25785 0.58721 0.50402 0.0
C1537 C 0.25023 0.5951 0.4737 0.0
C1538 C 0.25466 0.57617 0.49069 0.0
N1539 N 0.25095 0.58031 0.47594 0.0
C1540 C 0.27619 0.65117 0.49738 0.0
C1541 C 0.24941 0.65082 0.49725 0.0
C1542 C 0.27683 0.66003 0.48475 0.0
N1543 N 0.26267 0.64699 0.50337 0.0
C1544 C 0.24946 0.65948 0.48446 0.0
C1545 C 0.26332 0.66413 0.47825 0.0
H1546 H 0.28641 0.64753 0.50237 0.0
H1547 H 0.23881 0.64694 0.50214 0.0
C1548 C 0.22534 0.59694 0.54505 0.0
N1549 N 0.23047 0.60129 0.53128 0.0
C1550 C 0.21176 0.58655 0.54449 0.0
C1551 C 0.20886 0.58594 0.51559 0.0
C1552 C 0.22265 0.59612 0.51672 0.0
C1553 C 0.20325 0.58119 0.52963 0.0
H1554 H 0.23163 0.60178 0.55645 0.0
H1555 H 0.22687 0.60031 0.50608 0.0
O1556 O 0.28162 0.63939 0.53483 0.0
O1557 O 0.26258 0.61541 0.55163 0.0
O1558 O 0.24639 0.63637 0.53401 0.0
O1559 O 0.26076 0.61356 0.51469 0.0
H1560 H 0.30986 0.63556 0.54334 0.0
H1561 H 0.28218 0.66857 0.53054 0.0
H1562 H 0.33294 0.65618 0.54655 0.0
H1563 H 0.3058 0.68862 0.5339 0.0
H1564 H 0.25616 0.56758 0.56764 0.0
H1565 H 0.27001 0.62351 0.58266 0.0
H1566 H 0.25614 0.58504 0.54636 0.0
H1567 H 0.2698 0.60543 0.60323 0.0
H1568 H 0.29071 0.67812 0.58957 0.0
H1569 H 0.24519 0.65479 0.59649 0.0
H1570 H 0.31112 0.58948 0.50926 0.0
H1571 H 0.31245 0.59153 0.56079 0.0
H1572 H 0.21646 0.6283 0.52668 0.0
H1573 H 0.25341 0.66646 0.54201 0.0
H1574 H 0.19809 0.64626 0.52732 0.0
H1575 H 0.23436 0.68376 0.54254 0.0
H1576 H 0.25289 0.61824 0.48492 0.0
H1577 H 0.26086 0.58396 0.51576 0.0
H1578 H 0.24726 0.59804 0.46182 0.0
H1579 H 0.25515 0.56432 0.49207 0.0
H1580 H 0.28759 0.66332 0.47987 0.0
H1581 H 0.23889 0.66246 0.47942 0.0
H1582 H 0.2077 0.58317 0.55556 0.0
H1583 H 0.20235 0.58244 0.50396 0.0
Li1584 Li 0.40508 0.4983 0.75358 0.0
Li1585 Li 0.42793 0.51582 0.77106 0.0
Li1586 Li 0.40722 0.527 0.75498 0.0
Li1587 Li 0.42652 0.51496 0.74094 0.0
C1588 C 0.39545 0.51293 0.78388 0.0
N1589 N 0.37533 0.51184 0.80685 0.0
C1590 C 0.4004 0.5108 0.79954 0.0
C1591 C 0.38026 0.51444 0.77984 0.0
C1592 C 0.39005 0.51028 0.81099 0.0
C1593 C 0.37027 0.51389 0.79166 0.0
C1594 C 0.43713 0.48766 0.75472 0.0
C1595 C 0.46204 0.48131 0.75215 0.0
N1596 N 0.45643 0.4666 0.75461 0.0
C1597 C 0.43161 0.47251 0.75726 0.0
C1598 C 0.45246 0.49215 0.7522 0.0
C1599 C 0.44156 0.46203 0.75716 0.0
C1600 C 0.39027 0.46857 0.73845 0.0
N1601 N 0.39133 0.47861 0.75186 0.0
C1602 C 0.37382 0.46036 0.76356 0.0
C1603 C 0.38334 0.47473 0.76431 0.0
C1604 C 0.37274 0.4497 0.75002 0.0
C1605 C 0.3811 0.45391 0.73734 0.0
H1606 H 0.39677 0.47185 0.72873 0.0
H1607 H 0.3845 0.48266 0.77498 0.0
C1608 C 0.44239 0.53082 0.80162 0.0
N1609 N 0.44117 0.51801 0.7911 0.0
C1610 C 0.45088 0.53211 0.81671 0.0
C1611 C 0.4572 0.5073 0.80967 0.0
C1612 C 0.44849 0.50643 0.79483 0.0
C1613 C 0.45829 0.52013 0.82108 0.0
H1614 H 0.43641 0.53987 0.79847 0.0
H1615 H 0.44736 0.4963 0.78644 0.0
C1616 C 0.3933 0.51133 0.72296 0.0
N1617 N 0.37215 0.51046 0.69668 0.0
C1618 C 0.39812 0.51626 0.70872 0.0
C1619 C 0.37774 0.50594 0.72384 0.0
C1620 C 0.38724 0.51574 0.69556 0.0
C1621 C 0.36722 0.50561 0.71042 0.0
C1622 C 0.44082 0.54581 0.75738 0.0
C1623 C 0.43659 0.55929 0.75281 0.0
C1624 C 0.45621 0.54555 0.76208 0.0
C1625 C 0.44789 0.57234 0.75297 0.0
C1626 C 0.46717 0.55885 0.7621 0.0
N1627 N 0.46282 0.57185 0.75759 0.0
C1628 C 0.39352 0.55043 0.76952 0.0
C1629 C 0.39129 0.54877 0.74124 0.0
C1630 C 0.38576 0.56279 0.77023 0.0
N1631 N 0.396 0.5436 0.75518 0.0
C1632 C 0.38366 0.56123 0.74141 0.0
C1633 C 0.38075 0.56837 0.75604 0.0
H1634 H 0.39768 0.54635 0.78045 0.0
H1635 H 0.39364 0.54338 0.72999 0.0
C1636 C 0.44155 0.50339 0.71503 0.0
N1637 N 0.43828 0.51625 0.72292 0.0
C1638 C 0.44927 0.50432 0.70135 0.0
C1639 C 0.44993 0.53165 0.704 0.0
C1640 C 0.44239 0.53023 0.71771 0.0
C1641 C 0.45338 0.51859 0.69558 0.0
H1642 H 0.43788 0.49235 0.71917 0.0
H1643 H 0.4394 0.54025 0.72391 0.0
O1644 O 0.40548 0.51356 0.77259 0.0
O1645 O 0.42749 0.49799 0.75461 0.0
O1646 O 0.40386 0.51135 0.73579 0.0
O1647 O 0.42987 0.53305 0.75762 0.0
H1648 H 0.41211 0.50951 0.80281 0.0
H1649 H 0.37626 0.51604 0.76773 0.0
H1650 H 0.39373 0.50863 0.82317 0.0
H1651 H 0.35849 0.51509 0.78875 0.0
H1652 H 0.47393 0.48459 0.75015 0.0
H1653 H 0.41978 0.4689 0.75933 0.0
H1654 H 0.45688 0.50387 0.75025 0.0
H1655 H 0.43745 0.45026 0.75911 0.0
H1656 H 0.36766 0.45744 0.77364 0.0
H1657 H 0.38052 0.44597 0.72669 0.0
H1658 H 0.45116 0.54217 0.82504 0.0
H1659 H 0.46289 0.49787 0.81219 0.0
H1660 H 0.41012 0.52041 0.7078 0.0
H1661 H 0.37387 0.502 0.73476 0.0
H1662 H 0.39081 0.51949 0.68446 0.0
H1663 H 0.35513 0.50144 0.7109 0.0
H1664 H 0.42472 0.55968 0.74917 0.0
H1665 H 0.45962 0.53519 0.76573 0.0
H1666 H 0.44479 0.58286 0.74946 0.0
H1667 H 0.47914 0.55885 0.76573 0.0
H1668 H 0.38395 0.56811 0.78177 0.0
H1669 H 0.37994 0.56515 0.7302 0.0
H1670 H 0.45154 0.49395 0.69504 0.0
H1671 H 0.45292 0.54285 0.69993 0.0
Li1672 Li 0.65911 0.03189 0.76315 0.0
Li1673 Li 0.68026 0.04565 0.75093 0.0
Li1674 Li 0.65792 0.02986 0.7348 0.0
Li1675 Li 0.67722 0.01859 0.74931 0.0
C1676 C 0.64917 0.05866 0.75007 0.0
N1677 N 0.62959 0.07947 0.75066 0.0
C1678 C 0.65504 0.07432 0.75383 0.0
C1679 C 0.63335 0.05355 0.74666 0.0
C1680 C 0.64495 0.08466 0.7541 0.0
C1681 C 0.62363 0.06427 0.74697 0.0
C1682 C 0.69185 0.03563 0.78169 0.0
C1683 C 0.71788 0.03726 0.79339 0.0
N1684 N 0.71359 0.04103 0.80806 0.0
C1685 C 0.68769 0.03953 0.79686 0.0
C1686 C 0.70706 0.03451 0.77989 0.0
C1687 C 0.69886 0.04222 0.81005 0.0
C1688 C 0.64341 0.01809 0.78538 0.0
N1689 N 0.64766 0.03182 0.77986 0.0
C1690 C 0.63542 0.04454 0.7994 0.0
C1691 C 0.64401 0.04496 0.78653 0.0
C1692 C 0.63075 0.03046 0.80523 0.0
C1693 C 0.63475 0.01711 0.79814 0.0
H1694 H 0.64692 0.00798 0.77996 0.0
H1695 H 0.64795 0.05574 0.78203 0.0
C1696 C 0.69722 0.06909 0.73846 0.0
N1697 N 0.69456 0.06288 0.75221 0.0
C1698 C 0.70723 0.08293 0.73905 0.0
C1699 C 0.71167 0.08329 0.76788 0.0
C1700 C 0.70153 0.06952 0.76674 0.0
C1701 C 0.71417 0.09016 0.75395 0.0
H1702 H 0.69099 0.06366 0.72721 0.0
H1703 H 0.69857 0.06467 0.77748 0.0
C1704 C 0.6434 1.00051 0.74585 0.0
N1705 N 0.62027 0.97497 0.74157 0.0
C1706 C 0.64678 0.98595 0.7421 0.0
C1707 C 0.62827 1.00212 0.74738 0.0
C1708 C 0.63492 0.97318 0.73996 0.0
C1709 C 0.61673 0.98904 0.7452 0.0
C1710 C 0.68918 0.03183 0.72025 0.0
C1711 C 0.68326 0.02882 0.70413 0.0
C1712 C 0.70504 0.03544 0.72443 0.0
C1713 C 0.69335 0.02952 0.69242 0.0
C1714 C 0.71474 0.03614 0.71235 0.0
N1715 N 0.70875 0.03317 0.69673 0.0
C1716 C 0.64168 0.04027 0.71043 0.0
C1717 C 0.63978 0.0132 0.70941 0.0
C1718 C 0.63176 0.03857 0.6965 0.0
N1719 N 0.64516 0.02763 0.71659 0.0
C1720 C 0.6299 0.01096 0.69545 0.0
C1721 C 0.62585 0.02376 0.68902 0.0
H1722 H 0.6467 0.05158 0.71626 0.0
H1723 H 0.64335 0.00351 0.71438 0.0
C1724 C 0.69212 0.99807 0.76298 0.0
N1725 N 0.68791 0.00323 0.74896 0.0
C1726 C 0.70064 0.9865 0.76303 0.0
C1727 C 0.70008 0.9859 0.73419 0.0
C1728 C 0.6916 0.99749 0.73472 0.0
C1729 C 0.70452 0.98028 0.74846 0.0
H1730 H 0.68866 0.00282 0.774 0.0
H1731 H 0.68772 1.00171 0.72379 0.0
O1732 O 0.65899 0.0485 0.74941 0.0
O1733 O 0.68104 0.03302 0.7687 0.0
O1734 O 0.65497 0.01305 0.74834 0.0
O1735 O 0.67939 0.0313 0.73181 0.0
H1736 H 0.66728 0.07843 0.75648 0.0
H1737 H 0.62865 0.04146 0.74367 0.0
H1738 H 0.64933 0.09682 0.757 0.0
H1739 H 0.61137 0.06052 0.74424 0.0
H1740 H 0.72969 0.03641 0.79221 0.0
H1741 H 0.67599 0.04051 0.79844 0.0
H1742 H 0.71044 0.03157 0.76819 0.0
H1743 H 0.69581 0.04526 0.82186 0.0
H1744 H 0.6325 0.05502 0.80476 0.0
H1745 H 0.63152 0.00615 0.80265 0.0
H1746 H 0.70862 0.08848 0.72826 0.0
H1747 H 0.71651 0.08912 0.77955 0.0
H1748 H 0.65845 0.98453 0.74088 0.0
H1749 H 0.6255 0.01332 0.75034 0.0
H1750 H 0.63738 0.96184 0.73707 0.0
H1751 H 0.60497 0.99007 0.74643 0.0
H1752 H 0.67102 0.02595 0.70068 0.0
H1753 H 0.70977 0.03779 0.73687 0.0
H1754 H 0.68893 0.02719 0.6799 0.0
H1755 H 0.72705 0.03904 0.71538 0.0
H1756 H 0.62899 0.04862 0.69144 0.0
H1757 H 0.62552 0.99943 0.6897 0.0
H1758 H 0.70365 0.98205 0.77416 0.0
H1759 H 0.70284 0.98113 0.72279 0.0
Li1760 Li 0.76823 0.67432 0.02187 0.0
Li1761 Li 0.77915 0.65357 0.0062 0.0
Li1762 Li 0.76674 0.67297 0.9918 0.0
Li1763 Li 0.75032 0.65159 0.00393 0.0
C1764 C 0.79802 0.68726 0.00923 0.0
N1765 N 0.82426 0.70933 0.01112 0.0
C1766 C 0.81238 0.68355 0.01334 0.0
C1767 C 0.79697 0.70217 0.0061 0.0
C1768 C 0.82552 0.69488 0.01424 0.0
C1769 C 0.81039 0.71318 0.0071 0.0
C1770 C 0.76633 0.64189 0.03455 0.0
C1771 C 0.76257 0.61626 0.04225 0.0
N1772 N 0.76855 0.62201 0.05745 0.0
C1773 C 0.77245 0.64756 0.05023 0.0
C1774 C 0.76136 0.62613 0.03048 0.0
C1775 C 0.77349 0.63732 0.06164 0.0
C1776 C 0.75759 0.69031 0.04814 0.0
N1777 N 0.77048 0.68739 0.04196 0.0
C1778 C 0.7861 0.701 0.06535 0.0
C1779 C 0.7846 0.69271 0.05015 0.0
C1780 C 0.77295 0.704 0.07217 0.0
C1781 C 0.75857 0.6987 0.0632 0.0
H1782 H 0.74647 0.68582 0.04152 0.0
H1783 H 0.7947 0.69018 0.04507 0.0
C1784 C 0.80235 0.64019 0.99243 0.0
N1785 N 0.79579 0.6423 0.0062 0.0
C1786 C 0.8148 0.63254 0.99205 0.0
C1787 C 0.81361 0.62942 0.02001 0.0
C1788 C 0.80124 0.63716 0.01988 0.0
C1789 C 0.82052 0.62708 0.00599 0.0
H1790 H 0.79799 0.64458 0.98177 0.0
H1791 H 0.79615 0.63923 0.03078 0.0
C1792 C 0.74011 0.68392 0.004 0.0
N1793 N 0.71979 0.70374 0.00037 0.0
C1794 C 0.72499 0.6783 0.99736 0.0
C1795 C 0.74494 0.69959 0.00881 0.0
C1796 C 0.71488 0.68852 0.99562 0.0
C1797 C 0.73448 0.70944 0.00686 0.0
C1798 C 0.76183 0.63999 0.9734 0.0
C1799 C 0.75766 0.64444 0.95844 0.0
C1800 C 0.76424 0.62504 0.97459 0.0
C1801 C 0.75608 0.63387 0.94484 0.0
C1802 C 0.76253 0.61479 0.9607 0.0
N1803 N 0.75854 0.61939 0.94624 0.0
C1804 C 0.7807 0.68392 0.96553 0.0
C1805 C 0.75716 0.69223 0.9684 0.0
C1806 C 0.78219 0.69096 0.95149 0.0
N1807 N 0.76826 0.68453 0.9736 0.0
C1808 C 0.75834 0.69967 0.95456 0.0
C1809 C 0.77087 0.69889 0.94583 0.0
H1810 H 0.78932 0.67766 0.96985 0.0
H1811 H 0.74722 0.69237 0.97474 0.0
C1812 C 0.72503 0.63377 0.01587 0.0
N1813 N 0.7307 0.63774 0.00213 0.0
C1814 C 0.71075 0.62408 0.01536 0.0
C1815 C 0.70814 0.62293 0.98657 0.0
C1816 C 0.7226 0.63247 0.98762 0.0
C1817 C 0.70203 0.6186 0.00058 0.0
H1818 H 0.73155 0.63825 0.02728 0.0
H1819 H 0.72728 0.63583 0.97684 0.0
O1820 O 0.78512 0.67619 0.00791 0.0
O1821 O 0.76499 0.65178 0.02333 0.0
O1822 O 0.75004 0.67404 0.00606 0.0
O1823 O 0.76408 0.65039 0.98674 0.0
H1824 H 0.81337 0.67203 0.01578 0.0
H1825 H 0.78593 0.70517 0.00283 0.0
H1826 H 0.83671 0.69217 0.0174 0.0
H1827 H 0.80979 0.72477 0.00466 0.0
H1828 H 0.75873 0.60403 0.03931 0.0
H1829 H 0.77634 0.65973 0.05355 0.0
H1830 H 0.75659 0.62159 0.01837 0.0
H1831 H 0.7782 0.64154 0.07382 0.0
H1832 H 0.79742 0.70494 0.07175 0.0
H1833 H 0.74812 0.70054 0.06802 0.0
H1834 H 0.81997 0.63099 0.98106 0.0
H1835 H 0.81785 0.62541 0.03099 0.0
H1836 H 0.7211 0.66618 0.99363 0.0
H1837 H 0.75663 0.70407 0.01399 0.0
H1838 H 0.70313 0.68434 0.99052 0.0
H1839 H 0.73802 0.7216 0.01052 0.0
H1840 H 0.75571 0.65596 0.95731 0.0
H1841 H 0.76753 0.62145 0.98609 0.0
H1842 H 0.75293 0.63718 0.93317 0.0
H1843 H 0.76443 0.60321 0.9614 0.0
H1844 H 0.79203 0.69016 0.94506 0.0
H1845 H 0.74931 0.70556 0.95044 0.0
H1846 H 0.70641 0.62121 0.02645 0.0
H1847 H 0.70182 0.61892 0.97493 0.0
Li1848 Li 0.86754 0.4965 0.78308 0.0
Li1849 Li 0.88986 0.5113 0.79913 0.0
Li1850 Li 0.87093 0.52338 0.78482 0.0
Li1851 Li 0.88888 0.51047 0.77089 0.0
C1852 C 0.85856 0.50893 0.81369 0.0
N1853 N 0.83862 0.50508 0.83675 0.0
C1854 C 0.86395 0.50659 0.82917 0.0
C1855 C 0.84303 0.50931 0.80992 0.0
C1856 C 0.85369 0.50467 0.84066 0.0
C1857 C 0.83313 0.50734 0.82176 0.0
C1858 C 0.8984 0.48305 0.78462 0.0
C1859 C 0.92376 0.47714 0.78445 0.0
N1860 N 0.91798 0.46229 0.78621 0.0
C1861 C 0.89269 0.46774 0.78641 0.0
C1862 C 0.91405 0.48784 0.78365 0.0
C1863 C 0.90279 0.45742 0.78722 0.0
C1864 C 0.84913 0.47228 0.76573 0.0
N1865 N 0.85307 0.47947 0.78077 0.0
C1866 C 0.83699 0.46012 0.79183 0.0
C1867 C 0.84727 0.47384 0.79373 0.0
C1868 C 0.83328 0.45218 0.77654 0.0
C1869 C 0.83896 0.45848 0.76327 0.0
H1870 H 0.85451 0.47687 0.75584 0.0
H1871 H 0.85131 0.47941 0.80559 0.0
C1872 C 0.90662 0.52748 0.82511 0.0
N1873 N 0.90246 0.51316 0.81727 0.0
C1874 C 0.91603 0.5298 0.8394 0.0
C1875 C 0.91625 0.50246 0.8372 0.0
C1876 C 0.90682 0.50069 0.82296 0.0
C1877 C 0.92084 0.51715 0.84548 0.0
H1878 H 0.90243 0.53699 0.82032 0.0
H1879 H 0.90279 0.48941 0.81663 0.0
C1880 C 0.85601 0.50756 0.75262 0.0
N1881 N 0.83402 0.50372 0.72659 0.0
C1882 C 0.86039 0.5085 0.73724 0.0
C1883 C 0.84046 0.50478 0.75481 0.0
C1884 C 0.8491 0.50655 0.72423 0.0
C1885 C 0.82951 0.50279 0.74146 0.0
C1886 C 0.90461 0.54126 0.78719 0.0
C1887 C 0.90088 0.55541 0.78429 0.0
C1888 C 0.91994 0.54006 0.7909 0.0
C1889 C 0.9126 0.56821 0.78514 0.0
C1890 C 0.93132 0.55316 0.79169 0.0
N1891 N 0.92745 0.56684 0.78881 0.0
C1892 C 0.85678 0.54444 0.79956 0.0
C1893 C 0.85596 0.54363 0.77126 0.0
C1894 C 0.84797 0.55576 0.80006 0.0
N1895 N 0.86041 0.5387 0.7853 0.0
C1896 C 0.84729 0.55504 0.77119 0.0
C1897 C 0.84331 0.56121 0.78575 0.0
H1898 H 0.86081 0.54028 0.81048 0.0
H1899 H 0.8594 0.5389 0.76022 0.0
C1900 C 0.90174 0.49667 0.74657 0.0
N1901 N 0.90012 0.51034 0.75406 0.0
C1902 C 0.9098 0.49634 0.73331 0.0
C1903 C 0.91404 0.52415 0.73583 0.0
C1904 C 0.90598 0.52394 0.74904 0.0
C1905 C 0.91585 0.51023 0.72781 0.0
H1906 H 0.89655 0.48609 0.75076 0.0
H1907 H 0.90408 0.53455 0.75506 0.0
O1908 O 0.8685 0.5108 0.80233 0.0
O1909 O 0.88858 0.49317 0.78358 0.0
O1910 O 0.86699 0.50909 0.76539 0.0
O1911 O 0.89322 0.52872 0.78668 0.0
H1912 H 0.87592 0.50622 0.83229 0.0
H1913 H 0.83868 0.51105 0.79797 0.0
H1914 H 0.8577 0.50284 0.85268 0.0
H1915 H 0.82108 0.50759 0.81903 0.0
H1916 H 0.9359 0.48064 0.78366 0.0
H1917 H 0.88059 0.46389 0.78716 0.0
H1918 H 0.91861 0.49966 0.78223 0.0
H1919 H 0.89853 0.44553 0.78861 0.0
H1920 H 0.83315 0.45512 0.80229 0.0
H1921 H 0.8365 0.45222 0.75141 0.0
H1922 H 0.91924 0.54121 0.84579 0.0
H1923 H 0.91985 0.49252 0.84173 0.0
H1924 H 0.87239 0.51067 0.73536 0.0
H1925 H 0.83691 0.50398 0.76665 0.0
H1926 H 0.85233 0.50725 0.71226 0.0
H1927 H 0.81742 0.50048 0.74292 0.0
H1928 H 0.88907 0.55652 0.78142 0.0
H1929 H 0.92297 0.52918 0.79324 0.0
H1930 H 0.90988 0.57925 0.78291 0.0
H1931 H 0.94324 0.55245 0.79462 0.0
H1932 H 0.84509 0.56038 0.81146 0.0
H1933 H 0.84423 0.55934 0.75999 0.0
H1934 H 0.91091 0.48543 0.72716 0.0
H1935 H 0.91868 0.53503 0.7318 0.0
Li1936 Li 0.78352 0.40683 0.51294 0.0
Li1937 Li 0.77121 0.42537 0.4991 0.0
Li1938 Li 0.78286 0.40598 0.48468 0.0
Li1939 Li 0.79819 0.42796 0.50096 0.0
C1940 C 0.75306 0.39142 0.497 0.0
N1941 N 0.72806 0.36809 0.49628 0.0
C1942 C 0.73872 0.39485 0.4996 0.0
C1943 C 0.75474 0.37614 0.49407 0.0
C1944 C 0.72622 0.38289 0.49921 0.0
C1945 C 0.74193 0.36451 0.49372 0.0
C1946 C 0.78843 0.4395 0.53173 0.0
C1947 C 0.79513 0.46577 0.54363 0.0
N1948 N 0.79389 0.46095 0.55834 0.0
C1949 C 0.78724 0.43481 0.54696 0.0
C1950 C 0.79233 0.4551 0.53 0.0
C1951 C 0.79001 0.44583 0.56026 0.0
C1952 C 0.79668 0.39249 0.53638 0.0
N1953 N 0.78314 0.39513 0.52953 0.0
C1954 C 0.76908 0.38039 0.54705 0.0
C1955 C 0.76951 0.3895 0.53463 0.0
C1956 C 0.78286 0.37734 0.55427 0.0
C1957 C 0.79681 0.38347 0.54888 0.0
H1958 H 0.80732 0.39746 0.53216 0.0
H1959 H 0.75903 0.39228 0.52923 0.0
C1960 C 0.74827 0.43719 0.48416 0.0
N1961 N 0.7561 0.43638 0.49851 0.0
C1962 C 0.73643 0.44541 0.48345 0.0
C1963 C 0.74148 0.45199 0.51222 0.0
C1964 C 0.75309 0.44354 0.51239 0.0
C1965 C 0.733 0.45269 0.49766 0.0
H1966 H 0.75104 0.43116 0.47342 0.0
H1967 H 0.75934 0.44231 0.52359 0.0
C1968 C 0.81077 0.39672 0.49861 0.0
N1969 N 0.83117 0.37685 0.49586 0.0
C1970 C 0.82606 0.40231 0.49661 0.0
C1971 C 0.80582 0.38103 0.49918 0.0
C1972 C 0.8362 0.39208 0.49523 0.0
C1973 C 0.81633 0.37117 0.49778 0.0
C1974 C 0.78471 0.43698 0.46996 0.0
C1975 C 0.78708 0.43148 0.45453 0.0
C1976 C 0.78352 0.45234 0.47339 0.0
C1977 C 0.78823 0.44148 0.44274 0.0
C1978 C 0.78472 0.46197 0.46126 0.0
N1979 N 0.78704 0.4564 0.44632 0.0
C1980 C 0.76654 0.38767 0.45941 0.0
C1981 C 0.7936 0.3896 0.46051 0.0
C1982 C 0.7643 0.37724 0.44586 0.0
N1983 N 0.78097 0.39323 0.46652 0.0
C1984 C 0.79193 0.37927 0.44692 0.0
C1985 C 0.77711 0.37289 0.43965 0.0
H1986 H 0.75683 0.39128 0.46435 0.0
H1987 H 0.80492 0.39479 0.46619 0.0
C1988 C 0.82381 0.44505 0.5177 0.0
N1989 N 0.81554 0.44209 0.5031 0.0
C1990 C 0.83781 0.45494 0.51963 0.0
C1991 C 0.83406 0.45875 0.49155 0.0
C1992 C 0.82024 0.44867 0.49015 0.0
C1993 C 0.843 0.46152 0.50631 0.0
H1994 H 0.81982 0.43915 0.52757 0.0
H1995 H 0.81381 0.44546 0.47856 0.0
O1996 O 0.76528 0.40306 0.497 0.0
O1997 O 0.78546 0.42881 0.51861 0.0
O1998 O 0.80086 0.40669 0.50037 0.0
O1999 O 0.78401 0.42742 0.48172 0.0
H2000 H 0.73727 0.40664 0.50186 0.0
H2001 H 0.76576 0.37333 0.49196 0.0
H2002 H 0.71504 0.38538 0.5012 0.0
H2003 H 0.743 0.35262 0.49139 0.0
H2004 H 0.79823 0.47788 0.54251 0.0
H2005 H 0.78409 0.42279 0.54848 0.0
H2006 H 0.7932 0.45889 0.51827 0.0
H2007 H 0.78905 0.44237 0.57212 0.0
H2008 H 0.75817 0.3761 0.55123 0.0
H2009 H 0.80763 0.38132 0.55427 0.0
H2010 H 0.72966 0.44558 0.47215 0.0
H2011 H 0.73863 0.45724 0.52336 0.0
H2012 H 0.83006 0.41445 0.49619 0.0
H2013 H 0.79403 0.37655 0.50079 0.0
H2014 H 0.84807 0.39624 0.49371 0.0
H2015 H 0.8127 0.359 0.49827 0.0
H2016 H 0.78815 0.41966 0.45169 0.0
H2017 H 0.78183 0.45679 0.48532 0.0
H2018 H 0.79012 0.4374 0.43076 0.0
H2019 H 0.78386 0.4739 0.46373 0.0
H2020 H 0.75273 0.37253 0.4404 0.0
H2021 H 0.80204 0.37643 0.44207 0.0
H2022 H 0.84497 0.45658 0.53097 0.0
H2023 H 0.83831 0.46329 0.48102 0.0
Li2024 Li 0.62152 0.52741 0.29243 0.0
Li2025 Li 0.6429 0.54367 0.28007 0.0
Li2026 Li 0.62017 0.52569 0.26232 0.0
Li2027 Li 0.6409 0.51491 0.2781 0.0
C2028 C 0.6106 0.55389 0.27982 0.0
N2029 N 0.59078 0.57427 0.28296 0.0
C2030 C 0.61622 0.56909 0.28622 0.0
C2031 C 0.59494 0.54903 0.27501 0.0
C2032 C 0.606 0.57922 0.28772 0.0
C2033 C 0.58509 0.55952 0.2767 0.0
C2034 C 0.65468 0.53268 0.31073 0.0
C2035 C 0.68014 0.53276 0.32323 0.0
N2036 N 0.67556 0.53657 0.33774 0.0
C2037 C 0.65022 0.53664 0.32575 0.0
C2038 C 0.66976 0.53078 0.30941 0.0
C2039 C 0.66095 0.53855 0.33927 0.0
C2040 C 0.60782 0.51283 0.31732 0.0
N2041 N 0.60978 0.5262 0.31054 0.0
C2042 C 0.59659 0.53767 0.33051 0.0
C2043 C 0.60432 0.53851 0.31683 0.0
C2044 C 0.59451 0.52407 0.33792 0.0
C2045 C 0.60018 0.5115 0.33102 0.0
H2046 H 0.61245 0.50326 0.31225 0.0
H2047 H 0.60616 0.5491 0.31144 0.0
C2048 C 0.66041 0.56852 0.26742 0.0
N2049 N 0.6566 0.56332 0.2814 0.0
C2050 C 0.6698 0.58286 0.26738 0.0
C2051 C 0.67105 0.5865 0.29613 0.0
C2052 C 0.6618 0.57194 0.29564 0.0
C2053 C 0.67516 0.59228 0.28184 0.0
H2054 H 0.65606 0.56155 0.25623 0.0
H2055 H 0.65852 0.56765 0.30662 0.0
C2056 C 0.60712 0.49604 0.27479 0.0
N2057 N 0.58485 0.46988 0.27216 0.0
C2058 C 0.6108 0.4817 0.27058 0.0
C2059 C 0.59213 0.49712 0.27764 0.0
C2060 C 0.59937 0.4686 0.2693 0.0
C2061 C 0.58103 0.48373 0.27627 0.0
C2062 C 0.65249 0.52744 0.24954 0.0
C2063 C 0.64671 0.52152 0.23384 0.0
C2064 C 0.66828 0.53228 0.25354 0.0
C2065 C 0.65686 0.52059 0.22232 0.0
C2066 C 0.67806 0.5312 0.24167 0.0
N2067 N 0.6722 0.52544 0.22643 0.0
C2068 C 0.60718 0.53654 0.23476 0.0
C2069 C 0.59907 0.50987 0.23529 0.0
C2070 C 0.59898 0.53583 0.21965 0.0
N2071 N 0.60719 0.52367 0.24222 0.0
C2072 C 0.59064 0.50865 0.22018 0.0
C2073 C 0.5906 0.52172 0.212 0.0
H2074 H 0.61385 0.54735 0.24042 0.0
H2075 H 0.5993 0.49974 0.24134 0.0
C2076 C 0.65573 0.49268 0.29205 0.0
N2077 N 0.65217 0.49833 0.27805 0.0
C2078 C 0.6634 0.48024 0.29227 0.0
C2079 C 0.66345 0.47953 0.26365 0.0
C2080 C 0.65583 0.49198 0.26399 0.0
C2081 C 0.66731 0.47343 0.27791 0.0
H2082 H 0.65245 0.49771 0.30304 0.0
H2083 H 0.65264 0.49643 0.25296 0.0
O2084 O 0.62048 0.54394 0.27799 0.0
O2085 O 0.64414 0.53013 0.29749 0.0
O2086 O 0.61825 0.50891 0.27645 0.0
O2087 O 0.64266 0.52884 0.26083 0.0
H2088 H 0.62833 0.57301 0.28995 0.0
H2089 H 0.59047 0.53729 0.26998 0.0
H2090 H 0.61018 0.59103 0.29263 0.0
H2091 H 0.57293 0.55595 0.27302 0.0
H2092 H 0.69183 0.53123 0.32242 0.0
H2093 H 0.63859 0.53815 0.32699 0.0
H2094 H 0.67334 0.52763 0.29786 0.0
H2095 H 0.65765 0.54156 0.35098 0.0
H2096 H 0.59231 0.54763 0.33523 0.0
H2097 H 0.59911 0.50085 0.33639 0.0
H2098 H 0.67283 0.58642 0.25602 0.0
H2099 H 0.6746 0.59325 0.30761 0.0
H2100 H 0.62236 0.48068 0.26836 0.0
H2101 H 0.58914 0.50816 0.28097 0.0
H2102 H 0.60205 0.45741 0.26606 0.0
H2103 H 0.56939 0.48436 0.27849 0.0
H2104 H 0.6345 0.51772 0.23057 0.0
H2105 H 0.67289 0.53693 0.26566 0.0
H2106 H 0.65255 0.51607 0.21011 0.0
H2107 H 0.69031 0.53498 0.24454 0.0
H2108 H 0.59961 0.54621 0.21385 0.0
H2109 H 0.58426 0.49754 0.21498 0.0
H2110 H 0.66592 0.47579 0.30351 0.0
H2111 H 0.66633 0.47475 0.25232 0.0
Tb2112 Tb 0.04407 0.02661 0.02591 0.0
C2113 C 0.99019 0.97918 0.9913 0.0
N2114 N 0.99788 0.99262 0.9872 0.0
C2115 C 0.99709 0.98088 0.96026 0.0
C2116 C 0.98613 0.96595 0.98012 0.0
C2117 C 1.00048 0.99377 0.97162 0.0
C2118 C 0.9901 0.96683 0.96458 0.0
C2119 C 0.97579 0.96587 0.01051 0.0
C2120 C 0.985 0.97909 0.00625 0.0
C2121 C 0.97233 0.95249 -0.00031 0.0
C2122 C 0.9775 0.95252 0.98453 0.0
Tb2123 Tb 1.00143 0.01307 0.00676 0.0
N2124 N 0.98833 0.99229 0.01634 0.0
C2125 C 0.96984 0.96672 0.02526 0.0
C2126 C 0.98155 0.99354 0.03009 0.0
C2127 C 0.97256 0.98069 0.035 0.0
H2128 H 0.0043 0.00469 0.96755 0.0
H2129 H 0.96748 0.98165 0.04611 0.0
H2130 H 0.04117 0.03462 0.06473 0.0
H2131 H 0.07257 0.05993 0.98323 0.0
H2132 H 0.98285 0.00453 0.0371 0.0
H2133 H 0.96266 0.95683 0.02896 0.0
H2134 H 0.0586 0.03681 0.99232 0.0
H2135 H 0.99937 0.98192 0.94801 0.0
H2136 H 0.96528 0.9422 0.00274 0.0
H2137 H 0.97429 0.94227 0.9761 0.0
H2138 H 0.04893 0.05679 0.08508 0.0
H2139 H 0.98711 0.95696 0.95563 0.0
H2140 H 0.08017 0.08374 0.00183 0.0
N2141 N 0.04913 0.0467 0.04558 0.0
C2142 C 0.05731 0.05988 0.04154 0.0
C2143 C 0.05116 0.0579 0.07283 0.0
C2144 C 0.06242 0.07276 0.053 0.0
C2145 C 0.04646 0.0454 0.0611 0.0
C2146 C 0.0591 0.07167 0.06876 0.0
N2147 N 0.05641 0.04746 0.01533 0.0
C2148 C 0.06079 0.04718 0.00028 0.0
C2149 C 0.06963 0.07374 0.02141 0.0
C2150 C 0.06096 0.06032 0.02593 0.0
C2151 C 0.07349 0.07367 0.00575 0.0
C2152 C 0.06913 0.0603 0.99519 0.0
H2153 H 0.06291 0.08128 0.07793 0.0
H2154 H 0.07505 0.09613 0.05716 0.0
H2155 H 0.08128 0.09703 0.0295 0.0
O2156 O 0.06755 0.02626 0.02507 0.0
O2157 O 0.02976 0.04469 0.02308 0.0
O2158 O 0.01303 0.03542 0.00051 0.0
O2159 O 0.05558 0.01831 0.04518 0.0
O2160 O 0.04137 0.01577 0.00115 0.0
O2161 O 0.01804 0.02021 0.9901 0.0
O2162 O 0.98388 0.02451 0.01344 0.0
O2163 O 0.0119 0.99671 0.02049 0.0
O2164 O 0.03693 1.00231 0.01582 0.0
O2165 O 0.98151 0.01027 0.99089 0.0
O2166 O 0.00544 0.02545 0.03095 0.0
O2167 O 0.02732 0.01812 0.04172 0.0
C2168 C 0.02105 0.04705 0.01034 0.0
C2169 C 0.08259 0.01751 0.04638 0.0
C2170 C 0.10615 0.00773 0.04397 0.0
C2171 C 0.11082 0.01295 0.06027 0.0
C2172 C 0.08712 0.02217 0.06265 0.0
C2173 C 0.10125 0.01993 0.06955 0.0
C2174 C 0.09193 0.01013 0.03715 0.0
C2175 C 0.03184 0.0172 0.98875 0.0
C2176 C 0.06841 0.02085 0.03883 0.0
C2177 C 0.07097 0.08615 0.0485 0.0
C2178 C 0.07453 0.08666 0.03274 0.0
C2179 C 0.02529 0.99256 0.0196 0.0
C2180 C 0.96669 0.0296 0.99246 0.0
C2181 C 0.94486 0.04202 0.99378 0.0
C2182 C 0.94401 0.043 0.97728 0.0
C2183 C 0.96631 0.03107 0.976 0.0
C2184 C 0.95632 0.03561 0.00134 0.0
C2185 C 0.95497 0.03782 0.96848 0.0
C2186 C 0.01422 0.02255 0.04323 0.0
C2187 C 0.97528 0.01927 9e-05 0.0
H2188 H 0.12192 0.01185 0.06591 0.0
H2189 H 0.07991 0.02788 0.06987 0.0
H2190 H 0.10491 0.02379 0.08205 0.0
H2191 H 0.0879 0.00611 0.02473 0.0
H2192 H 0.9349 0.0477 0.97129 0.0
H2193 H 0.97422 0.02637 0.96887 0.0
H2194 H 0.95631 0.0341 0.01395 0.0
H2195 H 0.95435 0.03853 0.95574 0.0
Tb2196 Tb 0.26161 0.76896 0.28821 0.0
C2197 C 0.29723 0.74468 0.22523 0.0
N2198 N 0.30241 0.75529 0.23808 0.0
C2199 C 0.32641 0.74644 0.24044 0.0
C2200 C 0.3063 0.73422 0.21977 0.0
C2201 C 0.31699 0.75654 0.24545 0.0
C2202 C 0.32101 0.73514 0.22764 0.0
C2203 C 0.27656 0.73289 0.20474 0.0
C2204 C 0.28268 0.74417 0.21763 0.0
C2205 C 0.28548 0.72235 0.19936 0.0
C2206 C 0.30039 0.72315 0.20672 0.0
Tb2207 Tb 0.2856 0.77062 0.24579 0.0
N2208 N 0.27421 0.75427 0.22354 0.0
C2209 C 0.2616 0.73244 0.19776 0.0
C2210 C 0.25988 0.75433 0.21618 0.0
C2211 C 0.25331 0.74332 0.2034 0.0
H2212 H 0.32158 0.76546 0.25509 0.0
H2213 H 0.24182 0.74325 0.19789 0.0
H2214 H 0.22629 0.77416 0.27847 0.0
H2215 H 0.30286 0.79487 0.33913 0.0
H2216 H 0.25334 0.76274 0.22 0.0
H2217 H 0.25643 0.72386 0.18793 0.0
H2218 H 0.29067 0.77425 0.3183 0.0
H2219 H 0.33787 0.74742 0.24643 0.0
H2220 H 0.28097 0.71355 0.18951 0.0
H2221 H 0.30722 0.71506 0.20234 0.0
H2222 H 0.21059 0.79362 0.28456 0.0
H2223 H 0.32831 0.72728 0.22384 0.0
H2224 H 0.29073 0.81743 0.3448 0.0
N2225 N 0.24548 0.78533 0.29472 0.0
C2226 C 0.25105 0.7971 0.30626 0.0
C2227 C 0.22204 0.79489 0.29061 0.0
C2228 C 0.24258 0.80863 0.31006 0.0
C2229 C 0.23102 0.78387 0.28714 0.0
C2230 C 0.22793 0.80747 0.30194 0.0
N2231 N 0.27264 0.78569 0.31044 0.0
C2232 C 0.28557 0.7843 0.31984 0.0
C2233 C 0.27149 0.80921 0.32667 0.0
C2234 C 0.26525 0.79739 0.31433 0.0
C2235 C 0.28548 0.80854 0.33528 0.0
C2236 C 0.29238 0.79586 0.33206 0.0
H2237 H 0.22098 0.81604 0.30454 0.0
H2238 H 0.24266 0.82981 0.32497 0.0
H2239 H 0.2679 0.83019 0.33972 0.0
O2240 O 0.26307 0.7515 0.30269 0.0
O2241 O 0.26718 0.79139 0.28056 0.0
O2242 O 0.2867 0.78455 0.26853 0.0
O2243 O 0.24122 0.75394 0.29114 0.0
O2244 O 0.2859 0.76507 0.29142 0.0
O2245 O 0.29952 0.76775 0.26852 0.0
O2246 O 0.28359 0.78781 0.23077 0.0
O2247 O 0.27424 0.74732 0.24686 0.0
O2248 O 0.26988 0.76016 0.26782 0.0
O2249 O 0.30573 0.78408 0.24029 0.0
O2250 O 0.26211 0.77701 0.24506 0.0
O2251 O 0.24729 0.76611 0.26456 0.0
C2252 C 0.27801 0.79455 0.27139 0.0
C2253 C 0.24218 0.74564 0.31702 0.0
C2254 C 0.24567 0.73832 0.34376 0.0
C2255 C 0.23256 0.74396 0.34751 0.0
C2256 C 0.22896 0.75123 0.32071 0.0
C2257 C 0.22415 0.75029 0.33593 0.0
C2258 C 0.25031 0.73896 0.32855 0.0
C2259 C 0.29843 0.76508 0.28376 0.0
C2260 C 0.24829 0.74709 0.30164 0.0
C2261 C 0.24892 0.82076 0.32193 0.0
C2262 C 0.26334 0.82102 0.33026 0.0
C2263 C 0.268 0.74691 0.2598 0.0
C2264 C 0.3035 0.79144 0.21433 0.0
C2265 C 0.30131 0.80072 0.18846 0.0
C2266 C 0.31359 0.79391 0.18415 0.0
C2267 C 0.31574 0.78444 0.20998 0.0
C2268 C 0.29628 0.79947 0.20345 0.0
C2269 C 0.32073 0.78569 0.19489 0.0
C2270 C 0.24876 0.77272 0.25104 0.0
C2271 C 0.29835 0.79105 0.23024 0.0
H2272 H 0.22877 0.7433 0.35928 0.0
H2273 H 0.22246 0.75641 0.31197 0.0
H2274 H 0.21396 0.75455 0.33877 0.0
H2275 H 0.26047 0.73451 0.3258 0.0
H2276 H 0.31764 0.79503 0.17254 0.0
H2277 H 0.32154 0.77814 0.2182 0.0
H2278 H 0.28694 0.80504 0.20674 0.0
H2279 H 0.33021 0.78043 0.19159 0.0
Tb2280 Tb 0.50318 0.01907 0.52738 0.0
C2281 C 0.56101 0.04783 0.49074 0.0
N2282 N 0.55167 0.034 0.48654 0.0
C2283 C 0.55294 0.03725 0.45881 0.0
C2284 C 0.56624 0.05724 0.47913 0.0
C2285 C 0.54801 0.02837 0.47082 0.0
C2286 C 0.56191 0.05185 0.46298 0.0
C2287 C 0.57569 0.06643 0.51175 0.0
C2288 C 0.5657 0.05235 0.50676 0.0
C2289 C 0.58051 0.07615 0.5003 0.0
C2290 C 0.57578 0.07156 0.48401 0.0
Tb2291 Tb 0.54325 0.02109 0.50708 0.0
N2292 N 0.56049 0.04278 0.51746 0.0
C2293 C 0.5807 0.07018 0.52805 0.0
C2294 C 0.5662 0.04591 0.53318 0.0
C2295 C 0.57613 0.05974 0.53877 0.0
H2296 H 0.54093 0.01715 0.46752 0.0
H2297 H 0.58031 0.06226 0.55131 0.0
H2298 H 0.51242 0.01737 0.56635 0.0
H2299 H 0.46963 0.97766 0.48085 0.0
H2300 H 0.56345 0.03774 0.5414 0.0
H2301 H 0.58841 0.08088 0.53241 0.0
H2302 H 0.48908 1.00045 0.49127 0.0
H2303 H 0.54971 0.03287 0.44635 0.0
H2304 H 0.58806 0.0871 0.50391 0.0
H2305 H 0.57978 0.07905 0.47528 0.0
H2306 H 0.50459 0.99985 0.58619 0.0
H2307 H 0.56564 0.05873 0.45367 0.0
H2308 H 0.45772 0.96069 0.49957 0.0
N2309 N 0.49819 0.00351 0.54686 0.0
C2310 C 0.48734 0.99072 0.54215 0.0
C2311 C 0.49972 0.99711 0.57382 0.0
C2312 C 0.48216 0.98064 0.5532 0.0
C2313 C 0.50436 0.00689 0.56247 0.0
C2314 C 0.48853 0.98396 0.56919 0.0
N2315 N 0.48777 0.99696 0.51558 0.0
C2316 C 0.48369 0.99347 0.49953 0.0
C2317 C 0.47081 0.97413 0.52064 0.0
C2318 C 0.48176 0.98747 0.52604 0.0
C2319 C 0.46617 0.97079 0.50421 0.0
C2320 C 0.47283 0.98037 0.4936 0.0
H2321 H 0.48488 0.97647 0.57805 0.0
H2322 H 0.46654 0.95983 0.5563 0.0
H2323 H 0.45629 0.95442 0.52791 0.0
O2324 O 0.48297 0.02757 0.51974 0.0
O2325 O 0.51215 0.99737 0.52248 0.0
O2326 O 0.52438 1.00139 0.50019 0.0
O2327 O 0.49079 0.02736 0.54491 0.0
O2328 O 0.50448 0.02819 0.50461 0.0
O2329 O 0.52254 0.01821 0.49057 0.0
O2330 O 0.56209 0.0118 0.51671 0.0
O2331 O 0.53598 0.04369 0.51241 0.0
O2332 O 0.51913 0.0414 0.53208 0.0
O2333 O 0.5527 0.00626 0.49203 0.0
O2334 O 0.53924 0.01335 0.53021 0.0
O2335 O 0.52393 0.02722 0.54318 0.0
C2336 C 0.51845 0.99205 0.51008 0.0
C2337 C 0.46754 0.03749 0.53986 0.0
C2338 C 0.44654 0.0516 0.53556 0.0
C2339 C 0.44437 0.0515 0.55179 0.0
C2340 C 0.46498 0.03753 0.55604 0.0
C2341 C 0.45348 0.04445 0.56191 0.0
C2342 C 0.45809 0.04443 0.52949 0.0
C2343 C 0.51074 0.0252 0.49153 0.0
C2344 C 0.48059 0.03081 0.53456 0.0
C2345 C 0.47084 0.9676 0.54795 0.0
C2346 C 0.46506 0.96447 0.53175 0.0
C2347 C 0.52808 0.04967 0.52316 0.0
C2348 C 0.57855 0.00372 0.49786 0.0
C2349 C 0.60138 0.99194 0.49934 0.0
C2350 C 0.60495 0.99738 0.48483 0.0
C2351 C 0.58258 0.00933 0.48351 0.0
C2352 C 0.58821 0.99522 0.50591 0.0
C2353 C 0.59568 0.00614 0.47707 0.0
C2354 C 0.53641 0.02146 0.54286 0.0
C2355 C 0.56322 0.00435 0.50297 0.0
H2356 H 0.43554 0.05689 0.55664 0.0
H2357 H 0.47197 0.03229 0.56428 0.0
H2358 H 0.45169 0.04446 0.5744 0.0
H2359 H 0.45995 0.04463 0.51702 0.0
H2360 H 0.61494 0.99481 0.4795 0.0
H2361 H 0.57534 0.01572 0.47694 0.0
H2362 H 0.58509 0.99055 0.5168 0.0
H2363 H 0.59849 0.01021 0.46584 0.0
Tb2364 Tb 0.2949 0.2653 0.76822 0.0
C2365 C 0.23954 0.28557 0.73204 0.0
N2366 N 0.24633 0.29203 0.74676 0.0
C2367 C 0.24485 0.31704 0.73915 0.0
C2368 C 0.23591 0.29467 0.71998 0.0
C2369 C 0.24768 0.30743 0.75083 0.0
C2370 C 0.23933 0.31064 0.72352 0.0
C2371 C 0.22507 0.26286 0.71577 0.0
C2372 C 0.23425 0.26989 0.72988 0.0
C2373 C 0.22251 0.27167 0.7032 0.0
C2374 C 0.22799 0.28757 0.70527 0.0
Tb2375 Tb 0.25162 0.27509 0.7643 0.0
N2376 N 0.23678 0.2618 0.74238 0.0
C2377 C 0.21798 0.24745 0.7152 0.0
C2378 C 0.22859 0.24738 0.74258 0.0
C2379 C 0.21941 0.2398 0.72883 0.0
H2380 H 0.25084 0.31225 0.76314 0.0
H2381 H 0.2133 0.22818 0.72883 0.0
H2382 H 0.29093 0.22762 0.77084 0.0
H2383 H 0.32707 0.31451 0.80699 0.0
H2384 H 0.22922 0.24185 0.75339 0.0
H2385 H 0.21072 0.24164 0.70462 0.0
H2386 H 0.31132 0.30146 0.78266 0.0
H2387 H 0.24655 0.32932 0.7423 0.0
H2388 H 0.21567 0.26646 0.69214 0.0
H2389 H 0.22526 0.29435 0.69578 0.0
H2390 H 0.29716 0.21103 0.7912 0.0
H2391 H 0.23677 0.31807 0.71458 0.0
H2392 H 0.33458 0.29955 0.82864 0.0
N2393 N 0.30031 0.24847 0.78571 0.0
C2394 C 0.30888 0.25491 0.79963 0.0
C2395 C 0.3004 0.22337 0.79379 0.0
C2396 C 0.31311 0.24578 0.81143 0.0
C2397 C 0.29665 0.23288 0.78236 0.0
C2398 C 0.30852 0.22984 0.80846 0.0
N2399 N 0.30939 0.27918 0.79027 0.0
C2400 C 0.31422 0.29471 0.79193 0.0
C2401 C 0.32274 0.27778 0.81613 0.0
C2402 C 0.31366 0.27073 0.80193 0.0
C2403 C 0.32753 0.29371 0.81795 0.0
C2404 C 0.32329 0.30219 0.80577 0.0
H2405 H 0.3115 0.22243 0.81724 0.0
H2406 H 0.32535 0.24595 0.83486 0.0
H2407 H 0.33379 0.27396 0.83897 0.0
O2408 O 0.31845 0.27136 0.76364 0.0
O2409 O 0.28283 0.26889 0.78987 0.0
O2410 O 0.26817 0.28704 0.78416 0.0
O2411 O 0.30379 0.24996 0.7531 0.0
O2412 O 0.2935 0.28785 0.76064 0.0
O2413 O 0.27043 0.29584 0.76573 0.0
O2414 O 0.23905 0.26964 0.78397 0.0
O2415 O 0.25891 0.26029 0.74499 0.0
O2416 O 0.28399 0.27141 0.74608 0.0
O2417 O 0.22988 0.28094 0.76536 0.0
O2418 O 0.25514 0.25382 0.77423 0.0
O2419 O 0.2756 0.24573 0.76288 0.0
C2420 C 0.27581 0.28021 0.7945 0.0
C2421 C 0.33013 0.25301 0.74686 0.0
C2422 C 0.35378 0.25635 0.73336 0.0
C2423 C 0.35363 0.24058 0.73332 0.0
C2424 C 0.33041 0.23727 0.74634 0.0
C2425 C 0.34204 0.23115 0.73964 0.0
C2426 C 0.34191 0.26263 0.74022 0.0
C2427 C 0.28489 0.29849 0.76208 0.0
C2428 C 0.31721 0.25884 0.75398 0.0
C2429 C 0.322 0.25278 0.82566 0.0
C2430 C 0.32682 0.26873 0.82799 0.0
C2431 C 0.27147 0.26348 0.73796 0.0
C2432 C 0.21949 0.28423 0.78978 0.0
C2433 C 0.19661 0.28675 0.80363 0.0
C2434 C 0.20195 0.30274 0.80578 0.0
C2435 C 0.22457 0.30011 0.79279 0.0
C2436 C 0.2056 0.27748 0.79551 0.0
C2437 C 0.2158 0.30927 0.80063 0.0
C2438 C 0.26297 0.24311 0.77001 0.0
C2439 C 0.2273 0.2752 0.77856 0.0
H2440 H 0.3625 0.23547 0.72815 0.0
H2441 H 0.32159 0.22961 0.75118 0.0
H2442 H 0.34207 0.21899 0.73933 0.0
H2443 H 0.34182 0.27478 0.74034 0.0
H2444 H 0.19557 0.31034 0.81185 0.0
H2445 H 0.23505 0.30552 0.78848 0.0
H2446 H 0.20151 0.26522 0.79303 0.0
H2447 H 0.21969 0.32157 0.80264 0.0
Tb2448 Tb 0.03012 1.00044 0.5154 0.0
C2449 C 0.00898 0.05649 0.55189 0.0
N2450 N 1.00182 0.0478 0.5383 0.0
C2451 C 0.97744 0.04722 0.54831 0.0
C2452 C 1.00058 0.06084 0.5643 0.0
C2453 C 0.98623 0.04333 0.53624 0.0
C2454 C 0.98463 0.05598 0.56242 0.0
C2455 C 0.03264 0.07023 0.56714 0.0
C2456 C 0.02486 0.06101 0.55335 0.0
C2457 C 0.02429 0.07465 0.57951 0.0
C2458 C 0.00832 0.06992 0.57813 0.0
Tb2459 Tb 0.01754 0.04244 0.5196 0.0
N2460 N 0.03265 0.05616 0.54129 0.0
C2461 C 0.04856 0.07486 0.568 0.0
C2462 C 0.04805 0.06129 0.54175 0.0
C2463 C 0.05626 0.07049 0.55518 0.0
H2464 H 0.9805 0.03719 0.52511 0.0
H2465 H 0.06851 0.07442 0.55552 0.0
H2466 H 0.06692 0.00679 0.50868 0.0
H2467 H 0.97976 0.96421 0.48253 0.0
H2468 H 0.05403 0.05877 0.5317 0.0
H2469 H 0.05496 0.08203 0.57834 0.0
H2470 H 0.99418 0.9819 0.50503 0.0
H2471 H 0.96509 0.04363 0.54664 0.0
H2472 H 0.03007 0.08175 0.5902 0.0
H2473 H 1.00205 0.07342 0.58778 0.0
H2474 H 0.08214 0.99945 0.48751 0.0
H2475 H 0.97777 0.05906 0.57171 0.0
H2476 H 0.99317 0.9555 0.46003 0.0
N2477 N 0.04562 0.99472 0.49651 0.0
C2478 C 0.03862 0.98471 0.48377 0.0
C2479 C 0.06988 0.99545 0.48614 0.0
C2480 C 0.04697 0.97993 0.47147 0.0
C2481 C 0.06112 0.99985 0.49802 0.0
C2482 C 0.06277 0.98557 0.47272 0.0
N2483 N 0.01527 0.98453 0.49492 0.0
C2484 C 1.00004 0.97888 0.49506 0.0
C2485 C 0.0153 0.96875 0.4701 0.0
C2486 C 0.02299 0.97923 0.48308 0.0
C2487 C 0.99952 0.96352 0.46981 0.0
C2488 C 0.99189 0.96852 0.48242 0.0
H2489 H 0.06962 0.98214 0.46356 0.0
H2490 H 0.04557 0.96582 0.44888 0.0
H2491 H 0.01784 0.95601 0.44768 0.0
O2492 O 0.02243 0.98161 0.52916 0.0
O2493 O 0.02396 0.01012 0.49271 0.0
O2494 O 0.00755 0.02716 0.49803 0.0
O2495 O 0.0452 0.98618 0.52177 0.0
O2496 O 0.00872 0.00312 0.52574 0.0
O2497 O 0.99861 0.02243 0.51415 0.0
O2498 O 0.02616 0.06068 0.5063 0.0
O2499 O 0.02208 0.03121 0.54156 0.0
O2500 O 0.04039 0.01689 0.53599 0.0
O2501 O 0.00477 0.05977 0.51588 0.0
O2502 O 0.03871 0.04014 0.50871 0.0
O2503 O 0.04872 0.02075 0.51992 0.0
C2504 C 0.01446 0.01918 0.488 0.0
C2505 C 0.04084 0.96405 0.5365 0.0
C2506 C 0.03777 0.94112 0.55131 0.0
C2507 C 0.05297 0.9399 0.54925 0.0
C2508 C 0.05602 0.96216 0.5349 0.0
C2509 C 0.06194 0.95027 0.54116 0.0
C2510 C 0.03155 0.95329 0.54479 0.0
C2511 C 0.99698 0.00946 0.52089 0.0
C2512 C 0.03569 0.97733 0.52909 0.0
C2513 C 0.03935 0.9696 0.45845 0.0
C2514 C 0.02356 0.964 0.45779 0.0
C2515 C 0.03278 0.02355 0.5462 0.0
C2516 C 0.00783 0.07419 0.49365 0.0
C2517 C 0.0071 0.09585 0.4773 0.0
C2518 C 0.99281 0.08797 0.46965 0.0
C2519 C 0.99345 0.067 0.48577 0.0
C2520 C 0.01475 0.08871 0.48926 0.0
C2521 C 0.98613 0.07375 0.47381 0.0
C2522 C 0.0503 0.0333 0.51257 0.0
C2523 C 0.01446 0.06746 0.5077 0.0
H2524 H 0.05797 0.93077 0.55399 0.0
H2525 H 0.06355 0.96993 0.52871 0.0
H2526 H 0.07364 0.94909 0.53972 0.0
H2527 H 0.01985 0.95443 0.54629 0.0
H2528 H 0.98667 0.09289 0.46038 0.0
H2529 H 0.98769 0.05616 0.48902 0.0
H2530 H 0.02563 0.09465 0.49554 0.0
H2531 H 0.97504 0.06802 0.46787 0.0
Tb2532 Tb 0.27471 0.79116 0.75773 0.0
C2533 C 0.24309 0.73404 0.78915 0.0
N2534 N 0.25592 0.74456 0.79468 0.0
C2535 C 0.24779 0.74625 0.8209 0.0
C2536 C 0.23194 0.72934 0.79932 0.0
C2537 C 0.25853 0.75058 0.81035 0.0
C2538 C 0.23441 0.73562 0.81537 0.0
C2539 C 0.22778 0.71745 0.76685 0.0
C2540 C 0.24098 0.72827 0.77306 0.0
C2541 C 0.21664 0.71266 0.77696 0.0
C2542 C 0.2187 0.71861 0.79314 0.0
Tb2543 Tb 0.27258 0.75019 0.77638 0.0
N2544 N 0.25179 0.73351 0.7635 0.0
C2545 C 0.22624 0.71169 0.75068 0.0
C2546 C 0.25069 0.72743 0.74795 0.0
C2547 C 0.2378 0.71662 0.74123 0.0
H2548 H 0.26908 0.75839 0.8148 0.0
H2549 H 0.23693 0.71189 0.72884 0.0
H2550 H 0.2773 0.78233 0.71911 0.0
H2551 H 0.31197 0.82911 0.8044 0.0
H2552 H 0.25989 0.73043 0.74082 0.0
H2553 H 0.21636 0.7032 0.74549 0.0
H2554 H 0.28891 0.81027 0.79328 0.0
H2555 H 0.24989 0.751 0.8333 0.0
H2556 H 0.20639 0.70437 0.77239 0.0
H2557 H 0.20999 0.71484 0.80078 0.0
H2558 H 0.29579 0.78966 0.6999 0.0
H2559 H 0.22613 0.7323 0.8236 0.0
H2560 H 0.33147 0.83837 0.78679 0.0
N2561 N 0.29073 0.79663 0.73879 0.0
C2562 C 0.30344 0.80749 0.74382 0.0
C2563 C 0.29813 0.79468 0.71225 0.0
C2564 C 0.31417 0.81223 0.73322 0.0
C2565 C 0.28781 0.79034 0.72321 0.0
C2566 C 0.31139 0.80564 0.71727 0.0
N2567 N 0.29572 0.80797 0.7699 0.0
C2568 C 0.29753 0.81374 0.78561 0.0
C2569 C 0.31921 0.8244 0.76563 0.0
C2570 C 0.30595 0.81347 0.75986 0.0
C2571 C 0.32144 0.82994 0.78188 0.0
C2572 C 0.3105 0.82466 0.79188 0.0
H2573 H 0.31936 0.80897 0.70875 0.0
H2574 H 0.33574 0.82701 0.73094 0.0
H2575 H 0.34014 0.83768 0.75928 0.0
O2576 O 0.26406 0.81012 0.76469 0.0
O2577 O 0.29702 0.78294 0.76211 0.0
O2578 O 0.29405 0.76718 0.78231 0.0
O2579 O 0.26627 0.803 0.73977 0.0
O2580 O 0.2668 0.78929 0.78109 0.0
O2581 O 0.28004 0.77171 0.79114 0.0
O2582 O 0.28319 0.73113 0.76954 0.0
O2583 O 0.25055 0.75906 0.77251 0.0
O2584 O 0.25332 0.77398 0.75163 0.0
O2585 O 0.28099 0.73847 0.79442 0.0
O2586 O 0.28093 0.75215 0.7533 0.0
O2587 O 0.26754 0.76949 0.74325 0.0
C2588 C 0.30277 0.77489 0.77283 0.0
C2589 C 0.25384 0.82484 0.74405 0.0
C2590 C 0.24135 0.84698 0.74845 0.0
C2591 C 0.23955 0.84774 0.7319 0.0
C2592 C 0.25184 0.8259 0.7275 0.0
C2593 C 0.24475 0.83725 0.72152 0.0
C2594 C 0.24849 0.83548 0.7546 0.0
C2595 C 0.27148 0.78207 0.79287 0.0
C2596 C 0.26151 0.81257 0.74979 0.0
C2597 C 0.32736 0.82322 0.73891 0.0
C2598 C 0.32986 0.82929 0.75506 0.0
C2599 C 0.24464 0.76641 0.76123 0.0
C2600 C 0.29396 0.71698 0.79042 0.0
C2601 C 0.30582 0.69431 0.7865 0.0
C2602 C 0.30935 0.69513 0.80315 0.0
C2603 C 0.29766 0.7174 0.80702 0.0
C2604 C 0.29823 0.70541 0.78006 0.0
C2605 C 0.30533 0.7066 0.81329 0.0
C2606 C 0.27644 0.75946 0.74157 0.0
C2607 C 0.28598 0.72897 0.7845 0.0
H2608 H 0.23409 0.85652 0.72701 0.0
H2609 H 0.25578 0.81794 0.71908 0.0
H2610 H 0.2433 0.83793 0.70876 0.0
H2611 H 0.24992 0.83489 0.76738 0.0
H2612 H 0.3153 0.68683 0.80833 0.0
H2613 H 0.2947 0.72617 0.81528 0.0
H2614 H 0.2955 0.70489 0.76723 0.0
H2615 H 0.30814 0.7071 0.82608 0.0
Tb2616 Tb 0.52358 0.03353 0.99546 0.0
C2617 C 0.54936 0.99884 0.05697 0.0
N2618 N 0.53708 0.99285 0.04615 0.0
C2619 C 0.5456 0.96872 0.04379 0.0
C2620 C 0.56059 0.99017 0.06127 0.0
C2621 C 0.53492 0.9779 0.03972 0.0
C2622 C 0.5586 0.97493 0.05449 0.0
C2623 C 0.56336 0.02067 0.07471 0.0
C2624 C 0.55071 0.01382 0.0635 0.0
C2625 C 0.57484 0.01227 0.07877 0.0
C2626 C 0.57345 0.99703 0.07207 0.0
Tb2627 Tb 0.52175 0.00933 0.03789 0.0
N2628 N 0.53957 0.02165 0.05883 0.0
C2629 C 0.56404 0.03568 0.08154 0.0
C2630 C 0.53979 0.036 0.06629 0.0
C2631 C 0.55204 0.04325 0.07753 0.0
H2632 H 0.52509 0.97303 0.03118 0.0
H2633 H 0.55217 0.05468 0.08314 0.0
H2634 H 0.51712 0.06872 0.00605 0.0
H2635 H 0.50231 0.99462 0.94188 0.0
H2636 H 0.5306 0.04206 0.06399 0.0
H2637 H 0.57355 0.04139 0.09019 0.0
H2638 H 0.52102 0.00609 0.965 0.0
H2639 H 0.54392 0.95693 0.0385 0.0
H2640 H 0.58474 0.0174 0.08718 0.0
H2641 H 0.58233 0.99064 0.07537 0.0
H2642 H 0.49778 0.08424 0.99907 0.0
H2643 H 0.56697 0.96787 0.05745 0.0
H2644 H 0.48019 0.00689 0.93444 0.0
N2645 N 0.50731 0.04985 0.98878 0.0
C2646 C 0.49672 0.04483 0.9759 0.0
C2647 C 0.49719 0.07305 0.99259 0.0
C2648 C 0.4855 0.05339 0.97128 0.0
C2649 C 0.50802 0.06406 0.99674 0.0
C2650 C 0.48571 0.06758 0.97996 0.0
N2651 N 0.50861 0.02347 0.97199 0.0
C2652 C 0.51101 0.01107 0.96248 0.0
C2653 C 0.48672 0.02539 0.95368 0.0
C2654 C 0.49737 0.03111 0.9672 0.0
C2655 C 0.4882 0.01176 0.94484 0.0
C2656 C 0.50062 0.00476 0.94906 0.0
H2657 H 0.47732 0.07455 0.97678 0.0
H2658 H 0.46582 0.05397 0.95438 0.0
H2659 H 0.46679 0.02933 0.93902 0.0
O2660 O 0.54214 0.03208 0.98218 0.0
O2661 O 0.5 0.02358 0.99757 0.0
O2662 O 0.51326 0.01656 0.01677 0.0
O2663 O 0.53613 0.05388 0.98938 0.0
O2664 O 0.52733 0.00887 0.99311 0.0
O2665 O 0.52089 0.99448 0.01489 0.0
O2666 O 0.50471 0.01103 0.05293 0.0
O2667 O 0.54422 0.01441 0.03006 0.0
O2668 O 0.53725 0.03371 0.01808 0.0
O2669 O 0.50589 0.98934 0.04011 0.0
O2670 O 0.51566 0.03277 0.0402 0.0
O2671 O 0.52314 0.04737 0.01909 0.0
C2672 C 0.49979 0.0163 0.00986 0.0
C2673 C 0.54532 0.0509 0.96434 0.0
C2674 C 0.55369 0.0462 0.93829 0.0
C2675 C 0.54802 0.05892 0.93337 0.0
C2676 C 0.53964 0.06371 0.95941 0.0
C2677 C 0.54101 0.06766 0.94395 0.0
C2678 C 0.55241 0.04223 0.9537 0.0
C2679 C 0.52505 0.99583 0.00016 0.0
C2680 C 0.54439 0.04668 0.9806 0.0
C2681 C 0.47461 0.04761 0.95804 0.0
C2682 C 0.47518 0.0336 0.94929 0.0
C2683 C 0.54714 0.02484 0.02042 0.0
C2684 C 0.49748 0.98923 0.06594 0.0
C2685 C 0.49132 0.99154 0.09336 0.0
C2686 C 0.49318 0.97634 0.09453 0.0
C2687 C 0.49922 0.974 0.06719 0.0
C2688 C 0.49341 0.99786 0.07904 0.0
C2689 C 0.49707 0.96762 0.08147 0.0
C2690 C 0.51814 0.04591 0.0335 0.0
C2691 C 0.49951 0.99633 0.0511 0.0
H2692 H 0.54927 0.0622 0.92147 0.0
H2693 H 0.53425 0.07072 0.96748 0.0
H2694 H 0.53677 0.07759 0.94023 0.0
H2695 H 0.55713 0.03252 0.95742 0.0
H2696 H 0.49128 0.97109 0.1054 0.0
H2697 H 0.50218 0.96703 0.05718 0.0
H2698 H 0.49191 0.00958 0.07813 0.0
H2699 H 0.49832 0.95586 0.08238 0.0
Tb2700 Tb 0.26715 0.2509 0.25718 0.0
C2701 C 0.31496 0.30563 0.29322 0.0
N2702 N 0.30205 0.29657 0.29686 0.0
C2703 C 0.31383 0.29667 0.32362 0.0
C2704 C 0.328 0.31013 0.30459 0.0
C2705 C 0.30116 0.29255 0.31201 0.0
C2706 C 0.32734 0.30541 0.31987 0.0
C2707 C 0.32835 0.31976 0.27387 0.0
C2708 C 0.31506 0.31052 0.27804 0.0
C2709 C 0.34135 0.32416 0.28516 0.0
C2710 C 0.34117 0.3194 0.30047 0.0
Tb2711 Tb 0.28158 0.29338 0.27777 0.0
N2712 N 0.30232 0.30589 0.26725 0.0
C2713 C 0.32829 0.324 0.25836 0.0
C2714 C 0.30214 0.31037 0.25223 0.0
C2715 C 0.31516 0.31923 0.24749 0.0
H2716 H 0.29054 0.28686 0.31557 0.0
H2717 H 0.31494 0.32263 0.23552 0.0
H2718 H 0.25611 0.25601 0.21921 0.0
H2719 H 0.23879 0.21623 0.29833 0.0
H2720 H 0.29196 0.30769 0.24395 0.0
H2721 H 0.33831 0.33096 0.25465 0.0
H2722 H 0.26066 0.2322 0.28843 0.0
H2723 H 0.31302 0.29342 0.33558 0.0
H2724 H 0.35165 0.33122 0.28214 0.0
H2725 H 0.35128 0.32297 0.30906 0.0
H2726 H 0.2327 0.24981 0.20055 0.0
H2727 H 0.33708 0.30873 0.32897 0.0
H2728 H 0.21361 0.2099 0.28182 0.0
N2729 N 0.24573 0.24705 0.23886 0.0
C2730 C 0.23305 0.23821 0.24325 0.0
C2731 C 0.23251 0.24678 0.21265 0.0
C2732 C 0.21947 0.23371 0.23262 0.0
C2733 C 0.24575 0.2508 0.22353 0.0
C2734 C 0.21925 0.23834 0.21726 0.0
N2735 N 0.24755 0.23661 0.26765 0.0
C2736 C 0.24953 0.23033 0.28163 0.0
C2737 C 0.22139 0.22303 0.26285 0.0
C2738 C 0.23402 0.23274 0.25808 0.0
C2739 C 0.22305 0.21737 0.2777 0.0
C2740 C 0.23723 0.22095 0.28708 0.0
H2741 H 0.20911 0.23498 0.20869 0.0
H2742 H 0.19626 0.22064 0.22938 0.0
H2743 H 0.19788 0.21145 0.25593 0.0
O2744 O 0.27833 0.23239 0.26202 0.0
O2745 O 0.25044 0.26121 0.27054 0.0
O2746 O 0.25674 0.2872 0.26897 0.0
O2747 O 0.2658 0.23338 0.23872 0.0
O2748 O 0.27991 0.25465 0.28119 0.0
O2749 O 0.27223 0.27602 0.29261 0.0
O2750 O 0.28253 0.31712 0.27834 0.0
O2751 O 0.29958 0.27929 0.27338 0.0
O2752 O 0.28937 0.26253 0.2511 0.0
O2753 O 0.27575 0.30514 0.29827 0.0
O2754 O 0.27027 0.2919 0.25329 0.0
O2755 O 0.27365 0.26844 0.24134 0.0
C2756 C 0.24668 0.27492 0.27101 0.0
C2757 C 0.27771 0.21147 0.2409 0.0
C2758 C 0.28933 0.18932 0.24451 0.0
C2759 C 0.28607 0.18449 0.22805 0.0
C2760 C 0.27441 0.20655 0.22444 0.0
C2761 C 0.27859 0.19309 0.21808 0.0
C2762 C 0.28508 0.20277 0.25091 0.0
C2763 C 0.2763 0.26268 0.29363 0.0
C2764 C 0.27399 0.22593 0.24743 0.0
C2765 C 0.20676 0.22422 0.23741 0.0
C2766 C 0.20769 0.21895 0.25251 0.0
C2767 C 0.30127 0.26974 0.26098 0.0
C2768 C 0.26678 0.32816 0.29547 0.0
C2769 C 0.25197 0.3471 0.28739 0.0
C2770 C 0.24746 0.34878 0.30285 0.0
C2771 C 0.2623 0.33008 0.31092 0.0
C2772 C 0.26166 0.33681 0.28372 0.0
C2773 C 0.25264 0.34031 0.31455 0.0
C2774 C 0.27073 0.28234 0.24054 0.0
C2775 C 0.27796 0.31827 0.29251 0.0
H2776 H 0.28915 0.17398 0.22297 0.0
H2777 H 0.26874 0.21317 0.21646 0.0
H2778 H 0.27605 0.18934 0.20541 0.0
H2779 H 0.28774 0.20654 0.2636 0.0
H2780 H 0.24028 0.35699 0.30599 0.0
H2781 H 0.2665 0.32385 0.32027 0.0
H2782 H 0.26533 0.33578 0.27185 0.0
H2783 H 0.24938 0.34187 0.32652 0.0
Tb2784 Tb 0.53014 0.50013 0.01522 0.0
C2785 C 0.50825 0.55751 0.05027 0.0
N2786 N 0.50131 0.54766 0.03739 0.0
C2787 C 0.47705 0.54639 0.04789 0.0
C2788 C 0.49986 0.56201 0.06266 0.0
C2789 C 0.48584 0.54234 0.03588 0.0
C2790 C 0.4841 0.5562 0.06139 0.0
C2791 C 0.53161 0.57298 0.06443 0.0
C2792 C 0.52393 0.56284 0.05118 0.0
C2793 C 0.52328 0.57759 0.07675 0.0
C2794 C 0.50746 0.57207 0.07589 0.0
Tb2795 Tb 0.51693 0.54203 0.01861 0.0
N2796 N 0.53174 0.55755 0.0394 0.0
C2797 C 0.54745 0.57793 0.06502 0.0
C2798 C 0.54706 0.5629 0.03961 0.0
C2799 C 0.55518 0.57291 0.05252 0.0
H2800 H 0.48014 0.53538 0.0252 0.0
H2801 H 0.56738 0.57681 0.05274 0.0
H2802 H 0.56691 0.50673 0.00855 0.0
H2803 H 0.48026 0.46269 0.98296 0.0
H2804 H 0.55305 0.55984 0.02976 0.0
H2805 H 0.5538 0.58568 0.07501 0.0
H2806 H 0.49447 0.48089 0.0052 0.0
H2807 H 0.46482 0.54207 0.04664 0.0
H2808 H 0.52899 0.58532 0.08705 0.0
H2809 H 0.50122 0.57565 0.08554 0.0
H2810 H 0.58218 0.50002 0.98708 0.0
H2811 H 0.47725 0.55935 0.07067 0.0
H2812 H 0.49366 0.45433 0.96029 0.0
N2813 N 0.54572 0.49442 0.99642 0.0
C2814 C 0.53878 0.48447 0.9836 0.0
C2815 C 0.56995 0.49569 0.98586 0.0
C2816 C 0.54716 0.47991 0.97123 0.0
C2817 C 0.56118 0.49975 0.99789 0.0
C2818 C 0.5629 0.48581 0.97241 0.0
N2819 N 0.51544 0.48394 0.99484 0.0
C2820 C 0.50032 0.47794 0.99517 0.0
C2821 C 0.5156 0.46821 0.97002 0.0
C2822 C 0.52318 0.47883 0.98292 0.0
C2823 C 0.49992 0.46252 0.96997 0.0
C2824 C 0.49229 0.46732 0.98267 0.0
H2825 H 0.56974 0.48261 0.96315 0.0
H2826 H 0.54582 0.46597 0.94854 0.0
H2827 H 0.51821 0.45564 0.94753 0.0
O2828 O 0.52238 0.48162 0.02914 0.0
O2829 O 0.52395 0.50932 0.99231 0.0
O2830 O 0.5074 0.52612 0.99742 0.0
O2831 O 0.5454 0.48613 0.02221 0.0
O2832 O 0.50881 0.50256 0.02566 0.0
O2833 O 0.49857 0.52151 0.01374 0.0
O2834 O 0.52499 0.56152 0.00615 0.0
O2835 O 0.5221 0.53209 0.04134 0.0
O2836 O 0.53979 0.51708 0.03554 0.0
O2837 O 0.50152 0.55583 0.01159 0.0
O2838 O 0.53813 0.53965 0.00775 0.0
O2839 O 0.54848 0.52073 0.0196 0.0
C2840 C 0.51452 0.51836 0.98753 0.0
C2841 C 0.54065 0.46465 0.03792 0.0
C2842 C 0.53646 0.44147 0.05218 0.0
C2843 C 0.55217 0.44118 0.05263 0.0
C2844 C 0.55632 0.46376 0.0388 0.0
C2845 C 0.56196 0.45219 0.04604 0.0
C2846 C 0.53058 0.45334 0.04477 0.0
C2847 C 0.49705 0.50879 0.02083 0.0
C2848 C 0.53573 0.47749 0.02961 0.0
C2849 C 0.53959 0.46958 0.95819 0.0
C2850 C 0.52386 0.46369 0.95761 0.0
C2851 C 0.53211 0.52355 0.04587 0.0
C2852 C 0.50672 0.57867 0.99798 0.0
C2853 C 0.51062 0.6013 0.98293 0.0
C2854 C 0.49559 0.60318 0.98499 0.0
C2855 C 0.49175 0.58116 -0.00033 0.0
C2856 C 0.51632 0.58895 0.98954 0.0
C2857 C 0.4863 0.59324 0.99326 0.0
C2858 C 0.54994 0.53333 0.01227 0.0
C2859 C 0.51144 0.56523 0.00527 0.0
H2860 H 0.55692 0.43228 0.05813 0.0
H2861 H 0.56442 0.47208 0.03384 0.0
H2862 H 0.57406 0.45175 0.04651 0.0
H2863 H 0.51845 0.45369 0.04426 0.0
H2864 H 0.49098 0.61245 0.98007 0.0
H2865 H 0.48406 0.57371 0.00602 0.0
H2866 H 0.52787 0.58731 0.988 0.0
H2867 H 0.47473 0.59488 0.99469 0.0
Tb2868 Tb 0.77511 0.29077 0.25696 0.0
C2869 C 0.74302 0.2353 0.29034 0.0
N2870 N 0.75595 0.24582 0.29553 0.0
C2871 C 0.74827 0.24797 0.32195 0.0
C2872 C 0.7321 0.23077 0.3008 0.0
C2873 C 0.75881 0.25207 0.31113 0.0
C2874 C 0.73484 0.2373 0.31677 0.0
C2875 C 0.72745 0.21827 0.26851 0.0
C2876 C 0.74067 0.22923 0.27435 0.0
C2877 C 0.71654 0.21366 0.27892 0.0
C2878 C 0.71884 0.21992 0.295 0.0
Tb2879 Tb 0.77241 0.25081 0.27687 0.0
N2880 N 0.75132 0.23421 0.26452 0.0
C2881 C 0.72571 0.21215 0.25244 0.0
C2882 C 0.7501 0.22766 0.24913 0.0
C2883 C 0.73717 0.21675 0.24276 0.0
H2884 H 0.76943 0.25984 0.31535 0.0
H2885 H 0.7362 0.21168 0.23048 0.0
H2886 H 0.77558 0.28096 0.21803 0.0
H2887 H 0.81582 0.32751 0.30163 0.0
H2888 H 0.75928 0.23031 0.2419 0.0
H2889 H 0.71574 0.20364 0.2475 0.0
H2890 H 0.79198 0.30928 0.29196 0.0
H2891 H 0.75059 0.25291 0.33431 0.0
H2892 H 0.7063 0.20524 0.27466 0.0
H2893 H 0.71031 0.21626 0.30287 0.0
H2894 H 0.79292 0.28765 0.1976 0.0
H2895 H 0.72672 0.2341 0.3252 0.0
H2896 H 0.8338 0.3368 0.28258 0.0
N2897 N 0.79022 0.29514 0.237 0.0
C2898 C 0.80328 0.30574 0.24127 0.0
C2899 C 0.79601 0.29274 0.20986 0.0
C2900 C 0.81324 0.31029 0.2299 0.0
C2901 C 0.78635 0.28875 0.22152 0.0
C2902 C 0.80951 0.30357 0.21405 0.0
N2903 N 0.79711 0.30679 0.26795 0.0
C2904 C 0.80001 0.31258 0.28366 0.0
C2905 C 0.82021 0.32284 0.26209 0.0
C2906 C 0.80676 0.31189 0.25721 0.0
C2907 C 0.82351 0.32843 0.2783 0.0
C2908 C 0.8134 0.32321 0.28912 0.0
H2909 H 0.81689 0.30675 0.20496 0.0
H2910 H 0.83421 0.32528 0.22606 0.0
H2911 H 0.83998 0.33663 0.25407 0.0
O2912 O 0.76585 0.31062 0.26459 0.0
O2913 O 0.79704 0.28206 0.26164 0.0
O2914 O 0.79418 0.2674 0.28281 0.0
O2915 O 0.76676 0.30303 0.23947 0.0
O2916 O 0.76696 0.2892 0.28017 0.0
O2917 O 0.77995 0.27219 0.292 0.0
O2918 O 0.78254 0.23155 0.26973 0.0
O2919 O 0.7505 0.25974 0.27243 0.0
O2920 O 0.75322 0.27432 0.25121 0.0
O2921 O 0.78017 0.23834 0.29469 0.0
O2922 O 0.78081 0.25227 0.25371 0.0
O2923 O 0.7673 0.26912 0.24275 0.0
C2924 C 0.80285 0.27496 0.27319 0.0
C2925 C 0.75658 0.32619 0.24409 0.0
C2926 C 0.74266 0.34744 0.24761 0.0
C2927 C 0.74402 0.34997 0.2316 0.0
C2928 C 0.75773 0.3291 0.22813 0.0
C2929 C 0.75153 0.3409 0.22199 0.0
C2930 C 0.74915 0.33559 0.25398 0.0
C2931 C 0.77243 0.28355 0.29273 0.0
C2932 C 0.7631 0.31317 0.24973 0.0
C2933 C 0.8265 0.32146 0.23466 0.0
C2934 C 0.82987 0.32783 0.25067 0.0
C2935 C 0.74458 0.26679 0.26088 0.0
C2936 C 0.7916 0.21581 0.28992 0.0
C2937 C 0.80574 0.19481 0.28568 0.0
C2938 C 0.805 0.19225 0.30176 0.0
C2939 C 0.79107 0.21288 0.30594 0.0
C2940 C 0.79883 0.20655 0.27965 0.0
C2941 C 0.79768 0.20118 0.31176 0.0
C2942 C 0.77589 0.25877 0.24154 0.0
C2943 C 0.78465 0.22867 0.28453 0.0
H2944 H 0.73924 0.35906 0.22651 0.0
H2945 H 0.76345 0.32222 0.22027 0.0
H2946 H 0.75249 0.34298 0.20968 0.0
H2947 H 0.74809 0.33349 0.26628 0.0
H2948 H 0.81015 0.18326 0.30661 0.0
H2949 H 0.78554 0.21967 0.31408 0.0
H2950 H 0.7994 0.20864 0.26727 0.0
H2951 H 0.7972 0.19906 0.32413 0.0
Tb2952 Tb 0.02477 0.53222 0.49568 0.0
C2953 C 0.05183 0.49918 0.55896 0.0
N2954 N 0.04036 0.49313 0.54718 0.0
C2955 C 0.04988 0.4695 0.54521 0.0
C2956 C 0.06334 0.49098 0.56368 0.0
C2957 C 0.0389 0.47825 0.54079 0.0
C2958 C 0.06233 0.47599 0.55649 0.0
C2959 C 0.06409 0.52088 0.57794 0.0
C2960 C 0.05208 0.51378 0.56615 0.0
C2961 C 0.07587 0.51297 0.58239 0.0
C2962 C 0.07546 0.49801 0.57531 0.0
Tb2963 Tb 0.02451 0.5092 0.53872 0.0
N2964 N 0.04097 0.52135 0.56072 0.0
C2965 C 0.06405 0.53582 0.58466 0.0
C2966 C 0.04045 0.53563 0.56791 0.0
C2967 C 0.05204 0.54311 0.57979 0.0
H2968 H 0.02916 0.47302 0.53244 0.0
H2969 H 0.05174 0.55456 0.58513 0.0
H2970 H 0.02063 0.56797 0.5045 0.0
H2971 H 0.99299 0.4869 0.4511 0.0
H2972 H 0.03126 0.54146 0.56458 0.0
H2973 H 0.07312 0.54174 0.59368 0.0
H2974 H 0.01463 0.49907 0.47035 0.0
H2975 H 0.04874 0.45778 0.53988 0.0
H2976 H 0.08531 0.5183 0.59128 0.0
H2977 H 0.08456 0.49199 0.57891 0.0
H2978 H 1.00167 0.58408 0.49792 0.0
H2979 H 0.07093 0.46927 0.55976 0.0
H2980 H 0.9721 0.5008 0.44395 0.0
N2981 N 0.00883 0.54856 0.48881 0.0
C2982 C 0.99663 0.54282 0.47778 0.0
C2983 C 1.00005 0.57247 0.49223 0.0
C2984 C 0.98535 0.55155 0.47385 0.0
C2985 C 0.01079 0.56326 0.49592 0.0
C2986 C 0.98719 0.56656 0.48125 0.0
N2987 N 0.00638 0.51997 0.47524 0.0
C2988 C 0.00576 0.50548 0.46789 0.0
C2989 C 0.9826 0.52135 0.45956 0.0
C2990 C 0.99531 0.52797 0.47078 0.0
C2991 C 0.98169 0.50633 0.45259 0.0
C2992 C 0.99342 0.49844 0.45664 0.0
H2993 H 0.97879 0.57367 0.47857 0.0
H2994 H 0.9637 0.55145 0.45976 0.0
H2995 H 0.96128 0.52494 0.44723 0.0
O2996 O 0.04083 0.53032 0.47964 0.0
O2997 O 1.0025 0.52663 0.50394 0.0
O2998 O 0.0107 0.50786 0.51595 0.0
O2999 O 0.04005 0.55228 0.49225 0.0
O3000 O 0.03052 0.50861 0.49325 0.0
O3001 O 0.02707 0.49484 0.51598 0.0
O3002 O 0.00742 0.5112 0.55394 0.0
O3003 O 0.0477 0.52089 0.53682 0.0
O3004 O 0.03444 0.52471 0.51604 0.0
O3005 O 0.01047 0.48916 0.54346 0.0
O3006 O 0.01784 0.53254 0.53916 0.0
O3007 O 0.02799 0.54701 0.51903 0.0
C3008 C 1.0002 0.51601 0.51346 0.0
C3009 C 0.04815 0.55161 0.46623 0.0
C3010 C 0.05597 0.54869 0.43967 0.0
C3011 C 0.05186 0.56272 0.43669 0.0
C3012 C 0.04414 0.56576 0.46335 0.0
C3013 C 0.04608 0.5713 0.44859 0.0
C3014 C 0.05435 0.54332 0.45443 0.0
C3015 C 0.03012 0.49592 0.50075 0.0
C3016 C 0.04616 0.54499 0.48124 0.0
C3017 C 0.97257 0.54498 0.46283 0.0
C3018 C 0.97119 0.52989 0.45571 0.0
C3019 C 0.04782 0.52699 0.52379 0.0
C3020 C 1.00035 0.48972 0.56814 0.0
C3021 C 0.9925 0.49198 0.59483 0.0
C3022 C 0.99217 0.47622 0.59544 0.0
C3023 C 0.99993 0.47395 0.56889 0.0
C3024 C 0.99656 0.49867 0.58116 0.0
C3025 C 0.99593 0.46728 0.58252 0.0
C3026 C 0.02178 0.54573 0.53278 0.0
C3027 C 1.0031 0.49639 0.55323 0.0
H3028 H 0.05332 0.56709 0.42528 0.0
H3029 H 0.0395 0.57246 0.4724 0.0
H3030 H 0.04306 0.58221 0.44635 0.0
H3031 H 0.05773 0.53251 0.45663 0.0
H3032 H 0.98865 0.47074 0.60575 0.0
H3033 H 1.00241 0.46669 0.55883 0.0
H3034 H 0.99654 0.51078 0.5806 0.0
H3035 H 0.99544 0.45511 0.58296 0.0
Tb3036 Tb 0.79571 0.76606 0.26914 0.0
C3037 C 0.73812 0.78491 0.23316 0.0
N3038 N 0.74705 0.79192 0.24665 0.0
C3039 C 0.74746 0.8164 0.23686 0.0
C3040 C 0.73407 0.79335 0.22065 0.0
C3041 C 0.75101 0.80753 0.24899 0.0
C3042 C 0.73913 0.80926 0.22251 0.0
C3043 C 0.72327 0.76155 0.21841 0.0
C3044 C 0.73281 0.76921 0.23206 0.0
C3045 C 0.71947 0.76985 0.20575 0.0
C3046 C 0.72488 0.7857 0.20685 0.0
Tb3047 Tb 0.75238 0.77617 0.26537 0.0
N3048 N 0.73691 0.7615 0.24446 0.0
C3049 C 0.71766 0.74583 0.21801 0.0
C3050 C 0.73087 0.74634 0.24444 0.0
C3051 C 0.72133 0.73824 0.23117 0.0
H3052 H 0.75653 0.81326 0.26034 0.0
H3053 H 0.71665 0.72618 0.23119 0.0
H3054 H 0.79092 0.72815 0.27322 0.0
H3055 H 0.83412 0.81368 0.30345 0.0
H3056 H 0.73293 0.74055 0.2548 0.0
H3057 H 0.71022 0.73953 0.20778 0.0
H3058 H 0.81671 0.80021 0.2799 0.0
H3059 H 0.7509 0.82875 0.2387 0.0
H3060 H 0.7122 0.76415 0.19513 0.0
H3061 H 0.7217 0.79198 0.19708 0.0
H3062 H 0.79518 0.71233 0.29484 0.0
H3063 H 0.73629 0.81616 0.21318 0.0
H3064 H 0.83869 0.80007 0.32716 0.0
N3065 N 0.79956 0.74947 0.28769 0.0
C3066 C 0.80783 0.75618 0.30172 0.0
C3067 C 0.79855 0.72468 0.29703 0.0
C3068 C 0.8113 0.7474 0.31415 0.0
C3069 C 0.7958 0.7338 0.28488 0.0
C3070 C 0.80611 0.73152 0.31183 0.0
N3071 N 0.81082 0.77974 0.29068 0.0
C3072 C 0.81843 0.79439 0.29035 0.0
C3073 C 0.8239 0.77883 0.31672 0.0
C3074 C 0.814 0.77172 0.30309 0.0
C3075 C 0.83094 0.79421 0.31694 0.0
C3076 C 0.82837 0.80195 0.30359 0.0
H3077 H 0.80851 0.72438 0.3211 0.0
H3078 H 0.82317 0.74805 0.33787 0.0
H3079 H 0.83426 0.77556 0.34007 0.0
O3080 O 0.81077 0.77382 0.25219 0.0
O3081 O 0.7886 0.78052 0.28895 0.0
O3082 O 0.76329 0.77008 0.28746 0.0
O3083 O 0.81558 0.75669 0.2668 0.0
O3084 O 0.79097 0.78616 0.25795 0.0
O3085 O 0.77203 0.79582 0.27029 0.0
O3086 O 0.72916 0.77049 0.27082 0.0
O3087 O 0.76365 0.772 0.2432 0.0
O3088 O 0.77948 0.75469 0.24875 0.0
O3089 O 0.74358 0.79259 0.27944 0.0
O3090 O 0.75439 0.75393 0.274 0.0
O3091 O 0.77632 0.74608 0.26518 0.0
C3092 C 0.77575 0.77806 0.29562 0.0
C3093 C 0.82751 0.75721 0.24287 0.0
C3094 C 0.84968 0.75571 0.22756 0.0
C3095 C 0.84285 0.74047 0.22185 0.0
C3096 C 0.82112 0.74203 0.23675 0.0
C3097 C 0.82873 0.73378 0.22633 0.0
C3098 C 0.84178 0.76415 0.23804 0.0
C3099 C 0.78518 0.79779 0.26386 0.0
C3100 C 0.82041 0.76498 0.25584 0.0
C3101 C 0.82046 0.75461 0.32817 0.0
C3102 C 0.8268 0.77027 0.32942 0.0
C3103 C 0.77158 0.76143 0.23849 0.0
C3104 C 0.71744 0.78919 0.28692 0.0
C3105 C 0.69415 0.78554 0.30102 0.0
C3106 C 0.694 0.80126 0.30101 0.0
C3107 C 0.7168 0.80484 0.28733 0.0
C3108 C 0.70592 0.7794 0.29378 0.0
C3109 C 0.70517 0.81077 0.29423 0.0
C3110 C 0.76276 0.74337 0.27079 0.0
C3111 C 0.73022 0.78373 0.27913 0.0
H3112 H 0.84846 0.73366 0.2138 0.0
H3113 H 0.81043 0.73639 0.24043 0.0
H3114 H 0.82377 0.722 0.22186 0.0
H3115 H 0.84698 0.77577 0.24292 0.0
H3116 H 0.68518 0.80625 0.30641 0.0
H3117 H 0.72528 0.81257 0.28214 0.0
H3118 H 0.70624 0.7673 0.2937 0.0
H3119 H 0.70484 0.82286 0.29437 0.0
Tb3120 Tb 0.76095 0.26915 0.78761 0.0
C3121 C 0.79603 0.244 0.72492 0.0
N3122 N 0.80167 0.2553 0.73703 0.0
C3123 C 0.8257 0.24654 0.73914 0.0
C3124 C 0.8048 0.23309 0.71993 0.0
C3125 C 0.81643 0.25688 0.74395 0.0
C3126 C 0.81981 0.23449 0.7272 0.0
C3127 C 0.77446 0.23088 0.70614 0.0
C3128 C 0.78111 0.24299 0.71805 0.0
C3129 C 0.78307 0.21986 0.70126 0.0
C3130 C 0.79822 0.22098 0.7081 0.0
Tb3131 Tb 0.78503 0.27051 0.74529 0.0
N3132 N 0.77282 0.25332 0.72387 0.0
C3133 C 0.75927 0.23005 0.69972 0.0
C3134 C 0.75823 0.25295 0.71697 0.0
C3135 C 0.7512 0.24126 0.70501 0.0
H3136 H 0.82116 0.26613 0.75322 0.0
H3137 H 0.73952 0.24089 0.69989 0.0
H3138 H 0.72608 0.27551 0.7775 0.0
H3139 H 0.80063 0.29288 0.84027 0.0
H3140 H 0.7518 0.26157 0.72036 0.0
H3141 H 0.7537 0.22088 0.69062 0.0
H3142 H 0.7875 0.27226 0.8195 0.0
H3143 H 0.83734 0.2478 0.74477 0.0
H3144 H 0.77809 0.21037 0.69227 0.0
H3145 H 0.80472 0.21237 0.70427 0.0
H3146 H 0.7114 0.29606 0.78275 0.0
H3147 H 0.82694 0.22635 0.7237 0.0
H3148 H 0.79091 0.31723 0.84397 0.0
N3149 N 0.74546 0.28634 0.79365 0.0
C3150 C 0.75143 0.29829 0.80486 0.0
C3151 C 0.72276 0.29699 0.78887 0.0
C3152 C 0.74371 0.31055 0.80797 0.0
C3153 C 0.73112 0.28532 0.78592 0.0
C3154 C 0.7292 0.30983 0.79971 0.0
N3155 N 0.7718 0.2855 0.81007 0.0
C3156 C 0.78362 0.28308 0.82042 0.0
C3157 C 0.77201 0.3099 0.82527 0.0
C3158 C 0.76532 0.29799 0.81322 0.0
C3159 C 0.78532 0.30832 0.83461 0.0
C3160 C 0.79086 0.29462 0.83251 0.0
H3161 H 0.72277 0.31894 0.80182 0.0
H3162 H 0.74509 0.33265 0.82169 0.0
H3163 H 0.76997 0.33209 0.83691 0.0
O3164 O 0.76192 0.25038 0.80054 0.0
O3165 O 0.766 0.29127 0.77919 0.0
O3166 O 0.78594 0.28488 0.7677 0.0
O3167 O 0.74021 0.25566 0.7919 0.0
O3168 O 0.78564 0.26622 0.79135 0.0
O3169 O 0.79912 0.26831 0.76822 0.0
O3170 O 0.78294 0.28689 0.72934 0.0
O3171 O 0.77669 0.24696 0.74858 0.0
O3172 O 0.76844 0.26022 0.76684 0.0
O3173 O 0.80511 0.28427 0.73999 0.0
O3174 O 0.76147 0.27674 0.74429 0.0
O3175 O 0.7468 0.26575 0.76378 0.0
C3176 C 0.77701 0.29469 0.77032 0.0
C3177 C 0.7423 0.24644 0.81716 0.0
C3178 C 0.74739 0.23984 0.84401 0.0
C3179 C 0.73422 0.24506 0.8483 0.0
C3180 C 0.72898 0.25151 0.82144 0.0
C3181 C 0.72498 0.25078 0.83697 0.0
C3182 C 0.75131 0.24038 0.82849 0.0
C3183 C 0.79819 0.26611 0.78365 0.0
C3184 C 0.74717 0.24759 0.80115 0.0
C3185 C 0.75069 0.32296 0.81929 0.0
C3186 C 0.76487 0.32266 0.82792 0.0
C3187 C 0.76929 0.2467 0.76075 0.0
C3188 C 0.80339 0.2909 0.71367 0.0
C3189 C 0.80178 0.29979 0.68757 0.0
C3190 C 0.81443 0.29328 0.68391 0.0
C3191 C 0.816 0.2842 0.70997 0.0
C3192 C 0.79629 0.2986 0.70236 0.0
C3193 C 0.82145 0.28539 0.69509 0.0
C3194 C 0.74816 0.27265 0.75042 0.0
C3195 C 0.79774 0.29064 0.72935 0.0
H3196 H 0.73096 0.2444 0.86028 0.0
H3197 H 0.72171 0.2561 0.81286 0.0
H3198 H 0.7147 0.25462 0.84023 0.0
H3199 H 0.76147 0.23616 0.82531 0.0
H3200 H 0.81891 0.29444 0.67252 0.0
H3201 H 0.82174 0.27822 0.71856 0.0
H3202 H 0.78673 0.30404 0.7052 0.0
H3203 H 0.83125 0.28038 0.69231 0.0
Tb3204 Tb 0.76635 0.75066 0.75792 0.0
C3205 C 0.81657 0.80531 0.79173 0.0
N3206 N 0.80375 0.79694 0.7963 0.0
C3207 C 0.81693 0.79695 0.82243 0.0
C3208 C 0.83022 0.80951 0.80229 0.0
C3209 C 0.80369 0.79311 0.81156 0.0
C3210 C 0.83031 0.8051 0.81775 0.0
C3211 C 0.8289 0.81893 0.77147 0.0
C3212 C 0.81591 0.80991 0.77645 0.0
C3213 C 0.84259 0.82289 0.78185 0.0
C3214 C 0.84323 0.81821 0.79722 0.0
Tb3215 Tb 0.7824 0.79346 0.77816 0.0
N3216 N 0.80244 0.806 0.76671 0.0
C3217 C 0.8276 0.82415 0.7564 0.0
C3218 C 0.80081 0.81231 0.75271 0.0
C3219 C 0.81341 0.82102 0.74708 0.0
H3220 H 0.7933 0.78797 0.81573 0.0
H3221 H 0.81206 0.82572 0.7358 0.0
H3222 H 0.76029 0.75337 0.7184 0.0
H3223 H 0.73078 0.72282 0.79879 0.0
H3224 H 0.78965 0.81131 0.74622 0.0
H3225 H 0.8373 0.83113 0.75214 0.0
H3226 H 0.75405 0.73816 0.79101 0.0
H3227 H 0.81669 0.79396 0.83454 0.0
H3228 H 0.85266 0.82982 0.77822 0.0
H3229 H 0.8538 0.82156 0.80518 0.0
H3230 H 0.73897 0.74543 0.69708 0.0
H3231 H 0.84052 0.80823 0.82626 0.0
H3232 H 0.70838 0.71329 0.7786 0.0
N3233 N 0.74729 0.74534 0.73692 0.0
C3234 C 0.73387 0.73692 0.74025 0.0
C3235 C 0.73731 0.74317 0.70922 0.0
C3236 C 0.7216 0.73144 0.72815 0.0
C3237 C 0.74929 0.74807 0.72151 0.0
C3238 C 0.72338 0.7349 0.71256 0.0
N3239 N 0.74469 0.73869 0.76715 0.0
C3240 C 0.74424 0.73474 0.78232 0.0
C3241 C 0.71923 0.72388 0.75949 0.0
C3242 C 0.73269 0.73313 0.75572 0.0
C3243 C 0.71851 0.72032 0.77522 0.0
C3244 C 0.73109 0.72576 0.78667 0.0
H3245 H 0.71423 0.73088 0.70293 0.0
H3246 H 0.69861 0.71801 0.72274 0.0
H3247 H 0.69654 0.71145 0.75017 0.0
O3248 O 0.77572 0.73223 0.76599 0.0
O3249 O 0.74804 0.76261 0.76596 0.0
O3250 O 0.75769 0.78672 0.77993 0.0
O3251 O 0.7647 0.73104 0.74194 0.0
O3252 O 0.77844 0.75466 0.78221 0.0
O3253 O 0.77307 0.7771 0.79404 0.0
O3254 O 0.77841 0.8153 0.77393 0.0
O3255 O 0.79969 0.77856 0.77363 0.0
O3256 O 0.78918 0.76102 0.75182 0.0
O3257 O 0.78267 0.80963 0.79792 0.0
O3258 O 0.77045 0.79044 0.75358 0.0
O3259 O 0.77461 0.76726 0.74195 0.0
C3260 C 0.74623 0.77544 0.77419 0.0
C3261 C 0.78369 0.71632 0.7457 0.0
C3262 C 0.79634 0.69465 0.74688 0.0
C3263 C 0.80157 0.69693 0.73199 0.0
C3264 C 0.78904 0.71881 0.73084 0.0
C3265 C 0.7981 0.70918 0.7241 0.0
C3266 C 0.78765 0.70446 0.75379 0.0
C3267 C 0.77565 0.76311 0.7948 0.0
C3268 C 0.77218 0.72422 0.75202 0.0
C3269 C 0.70813 0.72235 0.73189 0.0
C3270 C 0.70696 0.71856 0.7475 0.0
C3271 C 0.80121 0.76875 0.76137 0.0
C3272 C 0.76678 0.82784 0.79378 0.0
C3273 C 0.75165 0.84731 0.7889 0.0
C3274 C 0.7452 0.84528 0.80321 0.0
C3275 C 0.7603 0.82578 0.80817 0.0
C3276 C 0.76234 0.83861 0.78419 0.0
C3277 C 0.74951 0.83447 0.8128 0.0
C3278 C 0.77131 0.78091 0.74094 0.0
C3279 C 0.77901 0.81987 0.78908 0.0
H3280 H 0.80816 0.68918 0.72647 0.0
H3281 H 0.78591 0.72789 0.72428 0.0
H3282 H 0.80206 0.71095 0.71258 0.0
H3283 H 0.78317 0.70225 0.76504 0.0
H3284 H 0.73714 0.85227 0.8071 0.0
H3285 H 0.7637 0.81768 0.81593 0.0
H3286 H 0.76753 0.84059 0.77327 0.0
H3287 H 0.74469 0.83303 0.82397 0.0
Tb3288 Tb 0.54531 0.52782 0.52695 0.0
C3289 C 0.49158 0.48019 0.48973 0.0
N3290 N 0.49906 0.49404 0.48639 0.0
C3291 C 0.49795 0.48397 0.45881 0.0
C3292 C 0.48732 0.46761 0.47777 0.0
C3293 C 0.50156 0.49622 0.47095 0.0
C3294 C 0.49097 0.46956 0.46226 0.0
C3295 C 0.47797 0.46531 0.50842 0.0
C3296 C 0.48692 0.479 0.50485 0.0
C3297 C 0.47419 0.45263 0.49671 0.0
C3298 C 0.47888 0.45376 0.48143 0.0
Tb3299 Tb 0.5027 0.51331 0.50716 0.0
N3300 N 0.49052 0.49157 0.51584 0.0
C3301 C 0.47262 0.46499 0.52346 0.0
C3302 C 0.4845 0.49163 0.53011 0.0
C3303 C 0.47578 0.47827 0.53428 0.0
H3304 H 0.50573 0.50747 0.46766 0.0
H3305 H 0.47129 0.47831 0.5457 0.0
H3306 H 0.53914 0.53811 0.56436 0.0
H3307 H 0.57698 0.55839 0.48442 0.0
H3308 H 0.48627 0.50202 0.53818 0.0
H3309 H 0.46568 0.4547 0.52666 0.0
H3310 H 0.5626 0.53574 0.49423 0.0
H3311 H 0.50013 0.48578 0.44668 0.0
H3312 H 0.46728 0.44203 0.49922 0.0
H3313 H 0.47551 0.44399 0.47238 0.0
H3314 H 0.54578 0.56114 0.58363 0.0
H3315 H 0.48784 0.46019 0.45273 0.0
H3316 H 0.58324 0.5831 0.50168 0.0
N3317 N 0.54853 0.54895 0.54513 0.0
C3318 C 0.55741 0.56168 0.54094 0.0
C3319 C 0.54885 0.56156 0.57157 0.0
C3320 C 0.56184 0.57509 0.5518 0.0
C3321 C 0.54471 0.54856 0.5604 0.0
C3322 C 0.55735 0.57494 0.56723 0.0
N3323 N 0.55827 0.54785 0.51574 0.0
C3324 C 0.56397 0.54664 0.50132 0.0
C3325 C 0.57126 0.57428 0.52096 0.0
C3326 C 0.56218 0.56121 0.5257 0.0
C3327 C 0.57622 0.57332 0.50575 0.0
C3328 C 0.57265 0.55941 0.49594 0.0
H3329 H 0.56066 0.58495 0.57597 0.0
H3330 H 0.57434 0.59851 0.55525 0.0
H3331 H 0.58243 0.59787 0.5282 0.0
O3332 O 0.56915 0.52907 0.52836 0.0
O3333 O 0.53062 0.54556 0.52333 0.0
O3334 O 0.51369 0.53581 0.50097 0.0
O3335 O 0.55651 0.52135 0.54752 0.0
O3336 O 0.54309 0.51673 0.50218 0.0
O3337 O 0.5197 0.52114 0.49118 0.0
O3338 O 0.48501 0.52399 0.51492 0.0
O3339 O 0.51376 0.49691 0.52026 0.0
O3340 O 0.53945 0.5032 0.51755 0.0
O3341 O 0.48251 0.51097 0.49171 0.0
O3342 O 0.5067 0.52556 0.53131 0.0
O3343 O 0.52848 0.51851 0.54244 0.0
C3344 C 0.52142 0.54762 0.51076 0.0
C3345 C 0.58063 0.51398 0.546 0.0
C3346 C 0.60086 0.50046 0.53886 0.0
C3347 C 0.60348 0.49746 0.5548 0.0
C3348 C 0.58344 0.51095 0.5619 0.0
C3349 C 0.5948 0.50271 0.56625 0.0
C3350 C 0.58946 0.50876 0.53445 0.0
C3351 C 0.53329 0.51771 0.4898 0.0
C3352 C 0.56992 0.52428 0.54242 0.0
C3353 C 0.57081 0.58812 0.54705 0.0
C3354 C 0.57542 0.58775 0.53165 0.0
C3355 C 0.5274 0.49311 0.52002 0.0
C3356 C 0.46836 0.53072 0.49456 0.0
C3357 C 0.44715 0.54412 0.49568 0.0
C3358 C 0.44905 0.54846 0.48038 0.0
C3359 C 0.4705 0.53523 0.47929 0.0
C3360 C 0.45691 0.53548 0.50281 0.0
C3361 C 0.46088 0.54418 0.47229 0.0
C3362 C 0.51487 0.52194 0.54363 0.0
C3363 C 0.47635 0.51952 0.50146 0.0
H3364 H 0.61254 0.49141 0.55844 0.0
H3365 H 0.57709 0.51532 0.57107 0.0
H3366 H 0.59708 0.50064 0.57858 0.0
H3367 H 0.58773 0.51134 0.5222 0.0
H3368 H 0.4413 0.55497 0.47469 0.0
H3369 H 0.47928 0.53152 0.47265 0.0
H3370 H 0.45501 0.53173 0.51444 0.0
H3371 H 0.46234 0.54746 0.46044 0.0
Tb3372 Tb 0.0033 0.51967 0.02666 0.0
C3373 C 0.05847 0.55034 0.99133 0.0
N3374 N 0.04821 0.53705 0.98699 0.0
C3375 C 0.04599 0.54269 0.95978 0.0
C3376 C 0.06274 0.56048 0.98001 0.0
C3377 C 0.04211 0.53299 0.97143 0.0
C3378 C 0.05632 0.55651 0.96408 0.0
C3379 C 0.07492 0.56774 0.01231 0.0
C3380 C 0.06453 0.55391 0.00728 0.0
C3381 C 0.07925 0.57785 0.00106 0.0
C3382 C 0.07319 0.57423 0.98496 0.0
Tb3383 Tb 0.04355 0.52209 0.00704 0.0
N3384 N 0.05977 0.54403 0.01795 0.0
C3385 C 0.08058 0.57099 0.02851 0.0
C3386 C 0.06588 0.54677 0.03355 0.0
C3387 C 0.07609 0.56042 0.03914 0.0
H3388 H 0.03455 0.52208 0.96788 0.0
H3389 H 0.08057 0.5627 0.05163 0.0
H3390 H 0.01323 0.51642 0.06507 0.0
H3391 H 0.96121 0.4851 0.98195 0.0
H3392 H 0.06323 0.5384 0.04165 0.0
H3393 H 0.08854 0.58153 0.03289 0.0
H3394 H 0.98081 0.50772 0.99295 0.0
H3395 H 0.04113 0.53943 0.94745 0.0
H3396 H 0.08725 0.58853 0.00469 0.0
H3397 H 0.07663 0.58217 0.97643 0.0
H3398 H 0.00719 0.49729 0.08387 0.0
H3399 H 0.05933 0.56399 0.95502 0.0
H3400 H 0.95378 0.46439 0.99887 0.0
N3401 N 0.99879 0.5031 0.0454 0.0
C3402 C 0.98804 0.49029 0.04045 0.0
C3403 C 1.00183 0.49511 0.07164 0.0
C3404 C 0.98386 0.47927 0.05093 0.0
C3405 C 0.00546 0.50582 0.06086 0.0
C3406 C 0.99103 0.48174 0.06665 0.0
N3407 N 0.98585 0.499 0.0149 0.0
C3408 C 0.97841 0.4983 -4e-05 0.0
C3409 C 0.96974 0.47538 0.01925 0.0
C3410 C 0.98124 0.48825 0.02474 0.0
C3411 C 0.96274 0.47407 0.00353 0.0
C3412 C 0.96698 0.48568 0.9939 0.0
H3413 H 0.98816 0.47353 0.07507 0.0
H3414 H 0.96908 0.45772 0.05334 0.0
H3415 H 0.95634 0.45466 0.02581 0.0
O3416 O 0.98454 0.53053 0.01967 0.0
O3417 O 0.01176 0.49756 0.02171 0.0
O3418 O 0.0271 0.50022 0.00102 0.0
O3419 O 0.99074 0.52728 0.0445 0.0
O3420 O 0.00495 0.52736 0.00309 0.0
O3421 O 0.02229 0.51423 0.99213 0.0
O3422 O 0.06308 0.51263 0.01525 0.0
O3423 O 0.03485 0.5441 0.01154 0.0
O3424 O 0.01977 0.54144 0.03237 0.0
O3425 O 0.0561 0.51346 0.98998 0.0
O3426 O 0.04063 0.51373 0.02997 0.0
O3427 O 0.02443 0.52738 0.0422 0.0
C3428 C 0.01897 0.49161 0.01031 0.0
C3429 C 0.96895 0.53991 0.03983 0.0
C3430 C 0.94752 0.55341 0.03509 0.0
C3431 C 0.94609 0.55456 0.05152 0.0
C3432 C 0.96713 0.54122 0.05622 0.0
C3433 C 0.95578 0.54847 0.06198 0.0
C3434 C 0.95897 0.54598 0.02916 0.0
C3435 C 0.01138 0.52216 0.99094 0.0
C3436 C 0.98154 0.53248 0.03443 0.0
C3437 C 0.97254 0.46629 0.04544 0.0
C3438 C 0.96538 0.46445 0.02971 0.0
C3439 C 0.02754 0.55002 0.02286 0.0
C3440 C 0.07858 0.50229 0.9953 0.0
C3441 C 0.10029 0.48926 0.00018 0.0
C3442 C 0.10181 0.4881 0.98377 0.0
C3443 C 0.08049 0.50097 0.97891 0.0
C3444 C 0.08864 0.49641 0.00604 0.0
C3445 C 0.09199 0.49394 0.97323 0.0
C3446 C 0.03638 0.52067 0.04261 0.0
C3447 C 0.0658 0.50952 0.0005 0.0
H3448 H 0.93736 0.56019 0.05626 0.0
H3449 H 0.97454 0.53669 0.06471 0.0
H3450 H 0.95454 0.54942 0.07463 0.0
H3451 H 0.96017 0.54511 0.01649 0.0
H3452 H 0.11066 0.4826 0.97909 0.0
H3453 H 0.07301 0.50534 0.97033 0.0
H3454 H 0.08735 0.49722 0.01869 0.0
H3455 H 0.09326 0.49296 0.96059 0.0
H3456 H 0.00485 0.19141 0.99481 0.0
H3457 H 0.0073 0.16656 0.0043 0.0
H3458 H 0.01124 0.14824 0.95612 0.0
H3459 H 0.00821 0.17285 0.94669 0.0
H3460 H 0.9942 0.12753 0.96827 0.0
H3461 H 0.04264 0.16028 0.98993 0.0
H3462 H 0.05862 0.1827 0.00648 0.0
H3463 H 0.03967 0.16758 0.04842 0.0
H3464 H 0.02339 0.14521 0.03207 0.0
H3465 H 0.0175 0.05761 0.981 0.0
H3466 H 0.01553 0.08336 0.97462 0.0
H3467 H 0.01938 0.09905 0.02494 0.0
H3468 H 0.0228 0.07341 0.03127 0.0
H3469 H 0.03125 0.12174 0.01374 0.0
H3470 H 0.98228 0.09151 0.99468 0.0
H3471 H 0.96279 0.07078 0.97999 0.0
H3472 H 0.97951 0.08169 0.9356 0.0
H3473 H 0.99905 0.10277 0.95013 0.0
C3474 C 0.00623 0.18205 0.98627 0.0
C3475 C 0.00634 0.18417 0.96995 0.0
C3476 C 0.00778 0.16779 0.99173 0.0
C3477 C 0.0098 0.15526 0.98109 0.0
C3478 C 0.00977 0.15748 0.96476 0.0
C3479 C 0.00805 0.17164 0.95931 0.0
C3480 C 0.01153 0.13974 0.98658 0.0
C3481 C 1.00254 0.12636 0.97806 0.0
C3482 C 0.02175 0.13782 -8e-05 0.0
C3483 C 0.03169 0.15115 0.00975 0.0
C3484 C 0.04182 0.16179 0.00267 0.0
C3485 C 0.05093 0.17448 0.01201 0.0
C3486 C 0.05013 0.17658 0.02848 0.0
C3487 C 0.04026 0.16596 0.03565 0.0
C3488 C 0.03109 0.15327 0.02635 0.0
C3489 C 0.01795 0.06653 0.99075 0.0
C3490 C 0.02014 0.06321 0.00669 0.0
C3491 C 0.01658 0.0814 0.98708 0.0
C3492 C 0.01661 0.09351 0.99917 0.0
C3493 C 0.01914 0.09022 0.01517 0.0
C3494 C 0.02106 0.07542 0.01885 0.0
C3495 C 0.0142 0.10941 0.99507 0.0
C3496 C 0.02297 0.12286 0.00389 0.0
C3497 C 0.00349 0.1115 0.98222 0.0
C3498 C 0.99221 0.09855 0.97349 0.0
C3499 C 0.98189 0.08939 0.9818 0.0
C3500 C 0.9708 0.07758 0.97348 0.0
C3501 C 0.96995 0.07477 0.95684 0.0
C3502 C 0.98019 0.08384 0.94848 0.0
C3503 C 0.99124 0.09576 0.95675 0.0
H3504 H 0.96128 0.06568 0.95039 0.0
H3505 H 0.05719 0.18642 0.03569 0.0
H3506 H 0.1364 0.80243 0.15279 0.0
H3507 H 0.1601 0.80156 0.16977 0.0
H3508 H 0.13559 0.76578 0.19355 0.0
H3509 H 0.11194 0.76649 0.1765 0.0
H3510 H 0.15559 0.78766 0.21526 0.0
H3511 H 0.15804 0.75719 0.16597 0.0
H3512 H 0.15776 0.75201 0.13677 0.0
H3513 H 0.19695 0.78798 0.13783 0.0
H3514 H 0.19729 0.79357 0.16702 0.0
H3515 H 0.21859 0.75944 0.25332 0.0
H3516 H 0.19521 0.76302 0.23775 0.0
H3517 H 0.22222 0.79394 0.21055 0.0
H3518 H 0.24568 0.79065 0.22633 0.0
H3519 H 0.20111 0.77571 0.19066 0.0
H3520 H 0.19919 0.80681 0.239 0.0
H3521 H 0.19925 0.81397 0.26789 0.0
H3522 H 0.15974 0.77881 0.26871 0.0
H3523 H 0.15946 0.7714 0.2398 0.0
C3524 C 0.136 0.79443 0.16169 0.0
C3525 C 0.12212 0.78447 0.1631 0.0
C3526 C 0.14964 0.79388 0.17139 0.0
C3527 C 0.14985 0.78352 0.18301 0.0
C3528 C 0.13592 0.77388 0.18474 0.0
C3529 C 0.12234 0.77423 0.17486 0.0
C3530 C 0.16455 0.78244 0.19306 0.0
C3531 C 0.16546 0.78484 0.20985 0.0
C3532 C 0.17776 0.77925 0.18619 0.0
C3533 C 0.17758 0.77592 0.16865 0.0
C3534 C 0.16651 0.7641 0.15996 0.0
C3535 C 0.16635 0.76107 0.14341 0.0
C3536 C 0.1773 0.76969 0.13544 0.0
C3537 C 0.18845 0.78134 0.14401 0.0
C3538 C 0.18863 0.78444 0.16056 0.0
C3539 C 0.21963 0.76726 0.24426 0.0
C3540 C 0.23424 0.7749 0.2414 0.0
C3541 C 0.20613 0.76928 0.23525 0.0
C3542 C 0.20668 0.77895 0.22294 0.0
C3543 C 0.22126 0.78644 0.21992 0.0
C3544 C 0.23477 0.78454 0.22903 0.0
C3545 C 0.19218 0.78083 0.21295 0.0
C3546 C 0.19129 0.77856 0.19613 0.0
C3547 C 0.17905 0.78433 0.2198 0.0
C3548 C 0.17941 0.78844 0.23726 0.0
C3549 C 0.1906 0.8005 0.24536 0.0
C3550 C 0.19063 0.80466 0.26173 0.0
C3551 C 0.17953 0.79683 0.27014 0.0
C3552 C 0.16834 0.78485 0.26219 0.0
C3553 C 0.16822 0.78069 0.2458 0.0
H3554 H 0.1796 0.80005 0.28282 0.0
H3555 H 0.17718 0.76731 0.12263 0.0
H3556 H 0.5163 0.85206 0.44901 0.0
H3557 H 0.51767 0.87917 0.45788 0.0
H3558 H 0.50976 0.86804 0.50535 0.0
H3559 H 0.50741 0.84064 0.49608 0.0
H3560 H 0.49575 0.88969 0.50066 0.0
H3561 H 0.54751 0.88644 0.49398 0.0
H3562 H 0.56831 0.87849 0.47982 0.0
H3563 H 0.55758 0.90478 0.44164 0.0
H3564 H 0.53666 0.91282 0.45555 0.0
H3565 H 0.51319 0.96971 0.53041 0.0
H3566 H 0.51305 0.94225 0.52519 0.0
H3567 H 0.52117 0.94789 0.47638 0.0
H3568 H 0.52235 0.97553 0.48195 0.0
H3569 H 0.53661 0.92864 0.48445 0.0
H3570 H 0.48255 0.92939 0.49171 0.0
H3571 H 0.46135 0.93523 0.50655 0.0
H3572 H 0.47806 0.91343 0.54606 0.0
H3573 H 0.49914 0.9071 0.53124 0.0
C3574 C 0.51492 0.85537 0.46137 0.0
C3575 C 0.51188 0.84406 0.47181 0.0
C3576 C 0.51584 0.87101 0.46654 0.0
C3577 C 0.51431 0.87608 0.48253 0.0
C3578 C 0.5111 0.86473 0.49298 0.0
C3579 C 0.50979 0.84897 0.48768 0.0
C3580 C 0.5158 0.89307 0.4881 0.0
C3581 C 0.50486 0.89812 0.49726 0.0
C3582 C 0.52757 0.90444 0.48385 0.0
C3583 C 0.5405 0.90016 0.47576 0.0
C3584 C 0.54961 0.89052 0.48256 0.0
C3585 C 0.56141 0.886 0.47458 0.0
C3586 C 0.56425 0.89111 0.45983 0.0
C3587 C 0.55537 0.90085 0.45307 0.0
C3588 C 0.54358 0.90543 0.46102 0.0
C3589 C 0.51491 0.96512 0.51854 0.0
C3590 C 0.51774 0.975 0.50663 0.0
C3591 C 0.51465 0.94922 0.51546 0.0
C3592 C 0.5167 0.94251 0.50018 0.0
C3593 C 0.51952 0.95246 0.48829 0.0
C3594 C 0.52014 0.9684 0.49148 0.0
C3595 C 0.51622 0.92534 0.49653 0.0
C3596 C 0.52749 0.92022 0.48784 0.0
C3597 C 0.50491 0.9139 0.50148 0.0
C3598 C 0.49244 0.9179 0.51044 0.0
C3599 C 0.48172 0.92591 0.50358 0.0
C3600 C 0.46971 0.92927 0.51198 0.0
C3601 C 0.46843 0.92483 0.5273 0.0
C3602 C 0.47908 0.91689 0.53421 0.0
C3603 C 0.49099 0.91332 0.52578 0.0
H3604 H 0.45914 0.92747 0.5338 0.0
H3605 H 0.57335 0.88753 0.45363 0.0
H3606 H 0.45745 0.28006 0.63537 0.0
H3607 H 0.43477 0.27849 0.64983 0.0
H3608 H 0.46256 0.27488 0.69344 0.0
H3609 H 0.48502 0.27544 0.67869 0.0
H3610 H 0.43782 0.25705 0.69399 0.0
H3611 H 0.44699 0.30969 0.68235 0.0
H3612 H 0.45113 0.33006 0.66451 0.0
H3613 H 0.4071 0.31213 0.63807 0.0
H3614 H 0.40277 0.29156 0.65567 0.0
H3615 H 0.38329 0.26668 0.74657 0.0
H3616 H 0.40574 0.27376 0.7323 0.0
H3617 H 0.37606 0.2714 0.68849 0.0
H3618 H 0.35356 0.26505 0.70307 0.0
H3619 H 0.40131 0.29275 0.68783 0.0
H3620 H 0.39223 0.24038 0.69919 0.0
H3621 H 0.38787 0.21981 0.71675 0.0
H3622 H 0.43193 0.23717 0.74337 0.0
H3623 H 0.43644 0.25802 0.72612 0.0
C3624 C 0.45873 0.27899 0.64806 0.0
C3625 C 0.47312 0.27795 0.65584 0.0
C3626 C 0.44571 0.27822 0.65643 0.0
C3627 C 0.44675 0.27695 0.67301 0.0
C3628 C 0.4612 0.27589 0.68074 0.0
C3629 C 0.47413 0.27625 0.67228 0.0
C3630 C 0.43287 0.27633 0.68222 0.0
C3631 C 0.43007 0.26509 0.69278 0.0
C3632 C 0.42222 0.28642 0.68052 0.0
C3633 C 0.4246 0.29905 0.67027 0.0
C3634 C 0.4382 0.3101 0.67272 0.0
C3635 C 0.44059 0.32166 0.66264 0.0
C3636 C 0.42939 0.32238 0.65015 0.0
C3637 C 0.41576 0.31157 0.64775 0.0
C3638 C 0.41332 0.29997 0.65779 0.0
C3639 C 0.38154 0.26832 0.73404 0.0
C3640 C 0.36659 0.26541 0.726 0.0
C3641 C 0.39442 0.27213 0.72578 0.0
C3642 C 0.39279 0.2727 0.7091 0.0
C3643 C 0.3778 0.27095 0.70128 0.0
C3644 C 0.36488 0.26735 0.70963 0.0
C3645 C 0.40654 0.27369 0.69975 0.0
C3646 C 0.40922 0.28486 0.68911 0.0
C3647 C 0.41712 0.26356 0.70135 0.0
C3648 C 0.41462 0.2508 0.71145 0.0
C3649 C 0.40097 0.23983 0.70882 0.0
C3650 C 0.39846 0.22813 0.71873 0.0
C3651 C 0.40961 0.22719 0.73118 0.0
C3652 C 0.42331 0.23792 0.73372 0.0
C3653 C 0.42585 0.24967 0.72389 0.0
H3654 H 0.40764 0.21813 0.73884 0.0
H3655 H 0.43128 0.33132 0.64233 0.0
H3656 H 0.03303 0.83601 0.64478 0.0
H3657 H 0.03355 0.85866 0.6302 0.0
H3658 H 1.00096 0.83196 0.59276 0.0
H3659 H 1.00013 0.80937 0.60754 0.0
H3660 H 0.0258 0.85054 0.58089 0.0
H3661 H 0.9888 0.85633 0.61729 0.0
H3662 H 0.97877 0.85782 0.64349 0.0
H3663 H 0.01393 0.89696 0.66048 0.0
H3664 H 0.02434 0.89554 0.63445 0.0
H3665 H 0.01603 0.91546 0.54011 0.0
H3666 H 0.00934 0.89254 0.55402 0.0
H3667 H 0.03609 0.91641 0.59702 0.0
H3668 H 0.04274 0.93911 0.58314 0.0
H3669 H 0.01206 0.89839 0.60527 0.0
H3670 H 0.0501 0.89202 0.57007 0.0
H3671 H 0.06116 0.89047 0.54444 0.0
H3672 H 0.02536 0.85242 0.52573 0.0
H3673 H 0.0139 0.85394 0.55117 0.0
C3674 C 0.02598 0.83495 0.63343 0.0
C3675 C 0.01652 0.82082 0.62737 0.0
C3676 C 0.02624 0.84796 0.62511 0.0
C3677 C 0.01725 0.84717 0.61032 0.0
C3678 C 0.008 0.83298 0.60411 0.0
C3679 C 0.00748 0.82006 0.61262 0.0
C3680 C 0.01753 0.86112 0.60143 0.0
C3681 C 0.02253 0.86091 0.58612 0.0
C3682 C 0.01362 0.87487 0.60827 0.0
C3683 C 0.00745 0.87572 0.62397 0.0
C3684 C 0.9945 0.86516 0.62666 0.0
C3685 C 0.98872 0.86601 0.64147 0.0
C3686 C 0.99574 0.87746 0.65366 0.0
C3687 C 0.00853 0.88809 0.65104 0.0
C3688 C 0.01437 0.88726 0.63626 0.0
C3689 C 0.0199 0.91602 0.55273 0.0
C3690 C 0.02949 0.92938 0.56064 0.0
C3691 C 0.01632 0.90278 0.56063 0.0
C3692 C 0.02236 0.90249 0.57664 0.0
C3693 C 0.03118 0.91615 0.58476 0.0
C3694 C 0.03482 0.92928 0.57685 0.0
C3695 C 0.02043 0.88791 0.58471 0.0
C3696 C 0.01519 0.888 0.59992 0.0
C3697 C 0.02424 0.87408 0.57782 0.0
C3698 C 0.03101 0.87324 0.56245 0.0
C3699 C 0.04448 0.88343 0.56043 0.0
C3700 C 0.05084 0.88254 0.54595 0.0
C3701 C 0.04393 0.87139 0.53344 0.0
C3702 C 0.03066 0.86109 0.53541 0.0
C3703 C 0.02422 0.86197 0.54985 0.0
H3704 H 0.04889 0.8707 0.52225 0.0
H3705 H 0.99124 0.87811 0.66511 0.0
H3706 H 0.44194 0.76302 0.82344 0.0
H3707 H 0.415 0.761 0.81355 0.0
H3708 H 0.42689 0.7987 0.7859 0.0
H3709 H 0.454 0.8006 0.79544 0.0
H3710 H 0.40307 0.80301 0.80077 0.0
H3711 H 0.4136 0.76084 0.76758 0.0
H3712 H 0.42263 0.73675 0.76035 0.0
H3713 H 0.39135 0.7131 0.78944 0.0
H3714 H 0.38223 0.73709 0.79695 0.0
H3715 H 0.32637 0.79312 0.76012 0.0
H3716 H 0.35409 0.79479 0.76602 0.0
H3717 H 0.34607 0.7597 0.79763 0.0
H3718 H 0.31842 0.75832 0.79217 0.0
H3719 H 0.36817 0.7544 0.77882 0.0
H3720 H 0.35837 0.79739 0.8124 0.0
H3721 H 0.34915 0.82157 0.8186 0.0
H3722 H 0.37928 0.84378 0.78754 0.0
H3723 H 0.3885 0.81965 0.78096 0.0
C3724 C 0.43901 0.77074 0.815 0.0
C3725 C 0.45051 0.78203 0.8104 0.0
C3726 C 0.42341 0.76957 0.80933 0.0
C3727 C 0.41865 0.77963 0.79882 0.0
C3728 C 0.43006 0.79079 0.79404 0.0
C3729 C 0.44569 0.79192 0.79963 0.0
C3730 C 0.40179 0.77897 0.79351 0.0
C3731 C 0.39555 0.79238 0.79571 0.0
C3732 C 0.39165 0.76515 0.78711 0.0
C3733 C 0.39737 0.7508 0.78298 0.0
C3734 C 0.40878 0.75054 0.77258 0.0
C3735 C 0.41387 0.73689 0.76839 0.0
C3736 C 0.40761 0.72342 0.77448 0.0
C3737 C 0.39622 0.72356 0.78476 0.0
C3738 C 0.39106 0.73717 0.78897 0.0
C3739 C 0.33042 0.78592 0.76851 0.0
C3740 C 0.31991 0.77585 0.77589 0.0
C3741 C 0.3464 0.78683 0.77186 0.0
C3742 C 0.3524 0.77748 0.78245 0.0
C3743 C 0.34191 0.76712 0.78947 0.0
C3744 C 0.32599 0.7664 0.78636 0.0
C3745 C 0.36949 0.77838 0.78626 0.0
C3746 C 0.37575 0.76501 0.78379 0.0
C3747 C 0.37966 0.79225 0.7923 0.0
C3748 C 0.37398 0.80668 0.79604 0.0
C3749 C 0.3629 0.80739 0.80676 0.0
C3750 C 0.3577 0.82109 0.81037 0.0
C3751 C 0.3636 0.83419 0.80344 0.0
C3752 C 0.3747 0.83362 0.79287 0.0
C3753 C 0.37992 0.81993 0.7892 0.0
H3754 H 0.35959 0.8448 0.80629 0.0
H3755 H 0.41156 0.71286 0.7712 0.0
H3756 H 0.5184 0.18422 0.10123 0.0
H3757 H 0.51871 0.16026 0.08433 0.0
H3758 H 0.49947 0.13417 0.12047 0.0
H3759 H 0.4989 0.15815 0.13719 0.0
H3760 H 0.52321 0.12256 0.11002 0.0
H3761 H 0.47798 0.13617 0.085 0.0
H3762 H 0.46167 0.15187 0.07146 0.0
H3763 H 0.4903 0.1547 0.0333 0.0
H3764 H 0.5069 0.13918 0.04671 0.0
H3765 H 0.50328 0.04919 0.06063 0.0
H3766 H 0.50171 0.07291 0.07719 0.0
H3767 H 0.52805 0.09947 0.04582 0.0
H3768 H 0.53077 0.0759 0.03005 0.0
H3769 H 0.50015 0.11051 0.05357 0.0
H3770 H 0.54613 0.09867 0.07912 0.0
H3771 H 0.56279 0.08316 0.09241 0.0
H3772 H 0.53259 0.07687 0.12897 0.0
H3773 H 0.51578 0.09244 0.1159 0.0
C3774 C 0.51412 0.17336 0.10548 0.0
C3775 C 0.50857 0.17311 0.12054 0.0
C3776 C 0.51423 0.15962 0.09578 0.0
C3777 C 0.50902 0.14521 0.10095 0.0
C3778 C 0.50352 0.14501 0.11606 0.0
C3779 C 0.50315 0.15875 0.12563 0.0
C3780 C 0.50988 0.13044 0.09099 0.0
C3781 C 0.51791 0.11989 0.09776 0.0
C3782 C 0.5034 0.12688 0.07477 0.0
C3783 C 0.49381 0.13671 0.06698 0.0
C3784 C 0.48093 0.14033 0.07384 0.0
C3785 C 0.47159 0.14914 0.06615 0.0
C3786 C 0.47498 0.15433 0.05156 0.0
C3787 C 0.48771 0.15071 0.04462 0.0
C3788 C 0.49709 0.14191 0.05226 0.0
C3789 C 0.50879 0.06006 0.05723 0.0
C3790 C 0.51677 0.06045 0.04355 0.0
C3791 C 0.50787 0.07366 0.06676 0.0
C3792 C 0.51462 0.08812 0.06274 0.0
C3793 C 0.52255 0.08856 0.04913 0.0
C3794 C 0.52386 0.07497 0.03989 0.0
C3795 C 0.5134 0.10274 0.07265 0.0
C3796 C 0.50535 0.11322 0.06586 0.0
C3797 C 0.51986 0.10628 0.08882 0.0
C3798 C 0.52959 0.0965 0.09641 0.0
C3799 C 0.54295 0.09382 0.08989 0.0
C3800 C 0.55247 0.08511 0.09743 0.0
C3801 C 0.5487 0.07894 0.11147 0.0
C3802 C 0.53546 0.08159 0.11806 0.0
C3803 C 0.52596 0.0904 0.11062 0.0
H3804 H 0.55608 0.07216 0.11726 0.0
H3805 H 0.46771 0.16111 0.04561 0.0
H3806 H 0.11311 0.30985 0.30271 0.0
H3807 H 0.13794 0.30778 0.29323 0.0
H3808 H 0.13533 0.26344 0.31031 0.0
H3809 H 0.11091 0.26562 0.32021 0.0
H3810 H 0.16254 0.27855 0.31891 0.0
H3811 H 0.13072 0.26989 0.26901 0.0
H3812 H 0.11286 0.27499 0.24694 0.0
H3813 H 0.14472 0.31525 0.23987 0.0
H3814 H 0.16267 0.31056 0.26209 0.0
H3815 H 0.22495 0.25405 0.28282 0.0
H3816 H 0.19944 0.25679 0.28968 0.0
H3817 H 0.20638 0.3025 0.27558 0.0
H3818 H 0.23202 0.29979 0.26863 0.0
H3819 H 0.17718 0.28756 0.26499 0.0
H3820 H 0.20875 0.29603 0.31506 0.0
H3821 H 0.22629 0.29097 0.33743 0.0
H3822 H 0.19426 0.25068 0.34409 0.0
H3823 H 0.17664 0.25533 0.32156 0.0
C3824 C 0.11778 0.29964 0.30453 0.0
C3825 C 0.10967 0.28791 0.31234 0.0
C3826 C 0.13203 0.29838 0.29887 0.0
C3827 C 0.13876 0.28536 0.30082 0.0
C3828 C 0.13063 0.27365 0.30852 0.0
C3829 C 0.11642 0.27487 0.31411 0.0
C3830 C 0.15453 0.28415 0.2958 0.0
C3831 C 0.16555 0.28029 0.30699 0.0
C3832 C 0.15897 0.28685 0.28041 0.0
C3833 C 0.14795 0.29 0.26741 0.0
C3834 C 0.13383 0.27996 0.26292 0.0
C3835 C 0.12371 0.28275 0.25034 0.0
C3836 C 0.12763 0.29547 0.24205 0.0
C3837 C 0.14168 0.30543 0.24633 0.0
C3838 C 0.15182 0.30272 0.25893 0.0
C3839 C 0.2211 0.26467 0.28101 0.0
C3840 C 0.23076 0.27664 0.275 0.0
C3841 C 0.20641 0.26629 0.2851 0.0
C3842 C 0.20074 0.27993 0.28334 0.0
C3843 C 0.21027 0.29182 0.27712 0.0
C3844 C 0.22506 0.29026 0.27316 0.0
C3845 C 0.18503 0.28178 0.28808 0.0
C3846 C 0.17408 0.28579 0.27688 0.0
C3847 C 0.18056 0.27914 0.30344 0.0
C3848 C 0.19148 0.27591 0.31646 0.0
C3849 C 0.20555 0.28595 0.32112 0.0
C3850 C 0.21549 0.28318 0.33387 0.0
C3851 C 0.21142 0.27048 0.34214 0.0
C3852 C 0.19742 0.26048 0.33764 0.0
C3853 C 0.18747 0.26317 0.32487 0.0
H3854 H 0.21909 0.26841 0.35206 0.0
H3855 H 0.1198 0.29758 0.23228 0.0
H3856 H 0.97476 0.04021 0.18728 0.0
H3857 H 0.98593 0.04182 0.162 0.0
H3858 H 0.95914 0.99751 0.14362 0.0
H3859 H 0.94739 0.99603 0.16852 0.0
H3860 H 0.99086 1.00148 0.13827 0.0
H3861 H 0.94754 0.02743 0.13182 0.0
H3862 H 0.93224 0.047 0.13921 0.0
H3863 H 0.97061 0.08273 0.13581 0.0
H3864 H 0.98621 0.06334 0.12863 0.0
H3865 H 1.0027 0.99777 0.05743 0.0
H3866 H 0.99165 0.99737 0.08268 0.0
H3867 H 0.00472 0.04676 0.09126 0.0
H3868 H 0.01311 0.04715 0.06446 0.0
H3869 H 0.98116 0.04105 0.10304 0.0
H3870 H 0.02508 0.01641 0.10944 0.0
H3871 H 0.04085 0.99749 0.10128 0.0
H3872 H 0.00381 0.9607 0.10568 0.0
H3873 H 0.98777 0.9794 0.1137 0.0
C3874 C 0.97107 0.03085 0.17784 0.0
C3875 C 0.96007 0.01799 0.18006 0.0
C3876 C 0.97757 0.03177 0.16341 0.0
C3877 C 0.97333 0.01981 0.15091 0.0
C3878 C 0.96263 0.00684 0.15315 0.0
C3879 C 0.95599 0.00599 0.16748 0.0
C3880 C 0.97985 0.02083 0.13539 0.0
C3881 C 0.98873 0.01008 0.1305 0.0
C3882 C 0.97744 0.03232 0.12549 0.0
C3883 C 0.96809 0.04394 0.12989 0.0
C3884 C 0.95276 0.03946 0.13281 0.0
C3885 C 0.94402 0.05052 0.13693 0.0
C3886 C 0.95046 0.0661 0.13803 0.0
C3887 C 0.96565 0.07065 0.13499 0.0
C3888 C 0.97444 0.05964 0.13089 0.0
C3889 C 1.0028 0.00854 0.06457 0.0
C3890 C 0.00839 0.02249 0.05894 0.0
C3891 C 0.99688 0.00832 0.07928 0.0
C3892 C 0.99782 0.02199 0.08944 0.0
C3893 C 0.00377 0.03599 0.08383 0.0
C3894 C 0.00869 0.03625 0.06857 0.0
C3895 C 0.99239 0.0217 0.10571 0.0
C3896 C 0.98365 0.03256 0.11081 0.0
C3897 C 0.99526 0.01053 0.116 0.0
C3898 C 0.00522 0.9993 0.11212 0.0
C3899 C 0.02033 0.00429 0.10873 0.0
C3900 C 0.0293 0.9936 0.10408 0.0
C3901 C 0.02333 0.9779 0.10295 0.0
C3902 C 0.00842 0.97286 0.10658 0.0
C3903 C 0.9994 0.98349 0.11122 0.0
H3904 H 0.03026 0.96965 0.09925 0.0
H3905 H 0.94368 0.07464 0.14119 0.0
H3906 H 0.27752 0.69324 0.47699 0.0
H3907 H 0.27896 0.70684 0.45305 0.0
H3908 H 0.25162 0.66686 0.42464 0.0
H3909 H 0.24999 0.65338 0.44861 0.0
H3910 H 0.27871 0.67978 0.41185 0.0
H3911 H 0.23452 0.69339 0.43282 0.0
H3912 H 0.21952 0.703 0.45329 0.0
H3913 H 0.24912 0.74711 0.45826 0.0
H3914 H 0.26452 0.73766 0.43803 0.0
H3915 H 0.24555 0.70818 0.34443 0.0
H3916 H 0.25609 0.69606 0.3666 0.0
H3917 H 0.27664 0.74075 0.39103 0.0
H3918 H 0.26536 0.75284 0.36908 0.0
H3919 H 0.25623 0.72646 0.40698 0.0
H3920 H 0.29906 0.71138 0.38232 0.0
H3921 H 0.31236 0.69968 0.36143 0.0
H3922 H 0.28229 0.65641 0.36159 0.0
H3923 H 0.2688 0.66785 0.38241 0.0
C3924 C 0.27179 0.68751 0.4656 0.0
C3925 C 0.26359 0.67247 0.46435 0.0
C3926 C 0.27263 0.69518 0.45205 0.0
C3927 C 0.26543 0.68772 0.43727 0.0
C3928 C 0.25726 0.67265 0.43604 0.0
C3929 C 0.25624 0.66507 0.44962 0.0
C3930 C 0.26631 0.69572 0.42303 0.0
C3931 C 0.2738 0.68999 0.41063 0.0
C3932 C 0.26 0.70904 0.42182 0.0
C3933 C 0.25083 0.71474 0.43409 0.0
C3934 C 0.23797 0.70508 0.43843 0.0
C3935 C 0.22936 0.71051 0.44996 0.0
C3936 C 0.2334 0.72564 0.45712 0.0
C3937 C 0.24604 0.73538 0.45274 0.0
C3938 C 0.25472 0.72999 0.44125 0.0
C3939 C 0.25261 0.71531 0.35443 0.0
C3940 C 0.25435 0.73129 0.35555 0.0
C3941 C 0.25887 0.70842 0.36692 0.0
C3942 C 0.26713 0.71754 0.38045 0.0
C3943 C 0.27026 0.73357 0.38067 0.0
C3944 C 0.26372 0.74044 0.36832 0.0
C3945 C 0.26889 0.71073 0.39554 0.0
C3946 C 0.26163 0.71656 0.40819 0.0
C3947 C 0.27509 0.69727 0.39675 0.0
C3948 C 0.28287 0.69052 0.38385 0.0
C3949 C 0.2952 0.69941 0.37778 0.0
C3950 C 0.30281 0.69281 0.366 0.0
C3951 C 0.29816 0.67732 0.36017 0.0
C3952 C 0.28589 0.6684 0.36611 0.0
C3953 C 0.27829 0.67493 0.37793 0.0
H3954 H 0.30408 0.67223 0.35106 0.0
H3955 H 0.22671 0.72984 0.46603 0.0
H3956 H 0.59935 0.03406 0.68356 0.0
H3957 H 0.58335 0.0314 0.65788 0.0
H3958 H 0.61462 0.00631 0.63566 0.0
H3959 H 0.63062 0.00895 0.6613 0.0
H3960 H 0.60829 0.03227 0.62111 0.0
H3961 H 0.58259 0.98699 0.64058 0.0
H3962 H 0.56972 0.97207 0.66022 0.0
H3963 H 0.5341 0.99888 0.65855 0.0
H3964 H 0.54693 0.01419 0.63914 0.0
H3965 H 0.55853 0.00466 0.54861 0.0
H3966 H 0.57442 0.00522 0.5738 0.0
H3967 H 0.55113 0.03871 0.59608 0.0
H3968 H 0.53554 0.03883 0.57076 0.0
H3969 H 0.55343 0.00729 0.60996 0.0
H3970 H 0.58135 0.05557 0.59633 0.0
H3971 H 0.59467 0.07269 0.57868 0.0
H3972 H 0.62502 0.04109 0.56993 0.0
H3973 H 0.61198 0.02389 0.58778 0.0
C3974 C 0.60264 0.0279 0.67316 0.0
C3975 C 0.61601 0.02166 0.67409 0.0
C3976 C 0.59354 0.0263 0.65868 0.0
C3977 C 0.5979 0.01854 0.6452 0.0
C3978 C 0.61118 0.01219 0.64615 0.0
C3979 C 0.6202 0.01368 0.66065 0.0
C3980 C 0.58921 0.01819 0.6298 0.0
C3981 C 0.59638 0.02658 0.61851 0.0
C3982 C 0.57362 0.01111 0.62691 0.0
C3983 C 0.56582 1.00184 0.63851 0.0
C3984 C 0.5721 0.98982 0.64452 0.0
C3985 C 0.56479 0.98127 0.65559 0.0
C3986 C 0.55112 0.98455 0.66066 0.0
C3987 C 0.54471 0.99636 0.65463 0.0
C3988 C 0.55199 0.00498 0.64359 0.0
C3989 C 0.55682 0.01219 0.55884 0.0
C3990 C 0.54568 0.02152 0.55792 0.0
C3991 C 0.5659 0.01251 0.57309 0.0
C3992 C 0.56373 0.02199 0.58644 0.0
C3993 C 0.55274 0.03137 0.58565 0.0
C3994 C 0.54384 0.03129 0.57132 0.0
C3995 C 0.57252 0.02146 0.60149 0.0
C3996 C 0.56538 0.01285 0.61261 0.0
C3997 C 0.58807 0.02845 0.60434 0.0
C3998 C 0.5956 0.0384 0.5932 0.0
C3999 C 0.59077 0.05222 0.59052 0.0
C4000 C 0.59833 0.06198 0.58057 0.0
C4001 C 0.61062 0.05793 0.5731 0.0
C4002 C 0.61546 0.04418 0.57568 0.0
C4003 C 0.60805 0.03446 0.58577 0.0
H4004 H 0.61641 0.06548 0.56535 0.0
H4005 H 0.54548 0.97791 0.66924 0.0
H4006 H 0.27699 0.30783 0.95124 0.0
H4007 H 0.27648 0.2962 0.92365 0.0
H4008 H 0.27124 0.33932 0.90647 0.0
H4009 H 0.27077 0.35053 0.93384 0.0
H4010 H 0.25419 0.31897 0.88792 0.0
H4011 H 0.30692 0.32271 0.91016 0.0
H4012 H 0.32703 0.31734 0.92977 0.0
H4013 H 0.31242 0.26897 0.91599 0.0
H4014 H 0.29205 0.27406 0.89647 0.0
H4015 H 0.27172 0.30793 0.80846 0.0
H4016 H 0.27139 0.31619 0.83669 0.0
H4017 H 0.27897 0.27183 0.84852 0.0
H4018 H 0.28036 0.26391 0.82019 0.0
H4019 H 0.29373 0.29031 0.87049 0.0
H4020 H 0.24017 0.28716 0.8492 0.0
H4021 H 0.21683 0.29278 0.83468 0.0
H4022 H 0.23283 0.34104 0.84812 0.0
H4023 H 0.25614 0.33567 0.86283 0.0
C4024 C 0.27568 0.31476 0.94152 0.0
C4025 C 0.2739 0.3301 0.94472 0.0
C4026 C 0.27553 0.30815 0.92571 0.0
C4027 C 0.27417 0.31689 0.91275 0.0
C4028 C 0.27231 0.33221 0.91607 0.0
C4029 C 0.27205 0.33866 0.93178 0.0
C4030 C 0.27431 0.31028 0.89569 0.0
C4031 C 0.26304 0.31293 0.88412 0.0
C4032 C 0.28539 0.30178 0.89059 0.0
C4033 C 0.29791 0.29876 0.90195 0.0
C4034 C 0.30798 0.31093 0.91134 0.0
C4035 C 0.31941 0.30794 0.92246 0.0
C4036 C 0.32099 0.29282 0.92415 0.0
C4037 C 0.31117 0.28067 0.91468 0.0
C4038 C 0.29969 0.2836 0.90359 0.0
C4039 C 0.27332 0.2999 0.81706 0.0
C4040 C 0.27595 0.28519 0.81195 0.0
C4041 C 0.27291 0.30458 0.83332 0.0
C4042 C 0.27461 0.29455 0.84503 0.0
C4043 C 0.2775 0.27989 0.83993 0.0
C4044 C 0.27829 0.27532 0.82365 0.0
C4045 C 0.27384 0.29951 0.86251 0.0
C4046 C 0.28492 0.29642 0.87421 0.0
C4047 C 0.26266 0.3078 0.86781 0.0
C4048 C 0.24988 0.31101 0.85701 0.0
C4049 C 0.23882 0.29896 0.84877 0.0
C4050 C 0.22555 0.30212 0.84062 0.0
C4051 C 0.22333 0.31728 0.84058 0.0
C4052 C 0.23454 0.32933 0.84824 0.0
C4053 C 0.24775 0.32623 0.85649 0.0
H4054 H 0.21287 0.31978 0.83481 0.0
H4055 H 0.32983 0.29053 0.93277 0.0
H4056 H 0.96837 0.04645 0.34396 0.0
H4057 H 0.97911 0.04687 0.37152 0.0
H4058 H 0.97857 0.99825 0.36382 0.0
H4059 H 0.9662 0.99733 0.33701 0.0
H4060 H 0.96912 0.00244 0.38965 0.0
H4061 H 0.01305 0.02967 0.36916 0.0
H4062 H 0.0282 0.04974 0.35592 0.0
H4063 H 0.01912 0.08443 0.39062 0.0
H4064 H 0.00375 0.06457 0.40395 0.0
H4065 H 0.01609 0.99802 0.46222 0.0
H4066 H 0.00768 0.99879 0.43399 0.0
H4067 H 0.99568 0.043 0.44547 0.0
H4068 H 0.00374 0.04195 0.47376 0.0
H4069 H 0.01185 0.04155 0.41826 0.0
H4070 H 0.96866 0.01229 0.43888 0.0
H4071 H 0.95545 0.99111 0.45202 0.0
H4072 H 0.96512 0.95842 0.41549 0.0
H4073 H 0.97895 0.97946 0.40246 0.0
C4074 C 0.97026 0.03573 0.34807 0.0
C4075 C 0.96609 0.02182 0.33786 0.0
C4076 C 0.97681 0.03608 0.36392 0.0
C4077 C 0.97991 0.02262 0.36999 0.0
C4078 C 0.97631 0.00886 0.35967 0.0
C4079 C 0.96937 0.00841 0.34402 0.0
C4080 C 0.98585 0.02249 0.38725 0.0
C4081 C 0.9787 0.01087 0.3957 0.0
C4082 C 0.99808 0.03367 0.39559 0.0
C4083 C 0.0071 0.04564 0.38744 0.0
C4084 C 0.01416 0.04159 0.37387 0.0
C4085 C 0.02281 0.05293 0.36638 0.0
C4086 C 0.02458 0.06835 0.3724 0.0
C4087 C 0.01771 0.07247 0.38595 0.0
C4088 C 0.00904 0.06119 0.39348 0.0
C4089 C 0.01153 0.0078 0.45885 0.0
C4090 C 0.01019 0.0197 0.47049 0.0
C4091 C 0.00676 0.00828 0.4426 0.0
C4092 C 1.00087 0.0209 0.43751 0.0
C4093 C 1.00007 0.03307 0.44901 0.0
C4094 C 0.00455 0.0324 0.46525 0.0
C4095 C 0.99533 0.02133 0.42029 0.0
C4096 C 1.00243 0.03307 0.412 0.0
C4097 C 0.9833 0.01007 0.41193 0.0
C4098 C 0.97506 0.99744 0.41984 0.0
C4099 C 0.96816 1.00058 0.43377 0.0
C4100 C 0.96052 0.98858 0.44118 0.0
C4101 C 0.95945 0.97338 0.43461 0.0
C4102 C 0.96601 0.97018 0.4206 0.0
C4103 C 0.9738 0.98214 0.41323 0.0
H4104 H 0.95355 0.96407 0.44034 0.0
H4105 H 0.0313 0.07711 0.36658 0.0
H4106 H 0.24528 0.68007 0.6075 0.0
H4107 H 0.24712 0.69567 0.63305 0.0
H4108 H 0.29519 0.69336 0.64167 0.0
H4109 H 0.29308 0.67642 0.61702 0.0
H4110 H 0.28192 0.68957 0.66736 0.0
H4111 H 0.28219 0.72587 0.62728 0.0
H4112 H 0.27176 0.73632 0.60344 0.0
H4113 H 0.23023 0.73911 0.62463 0.0
H4114 H 0.24038 0.72862 0.64853 0.0
H4115 H 0.30073 0.75033 0.72974 0.0
H4116 H 0.30021 0.73479 0.70411 0.0
H4117 H 0.25191 0.73567 0.69377 0.0
H4118 H 0.25269 0.75192 0.71871 0.0
H4119 H 0.26612 0.74033 0.66906 0.0
H4120 H 0.26511 0.70485 0.70916 0.0
H4121 H 0.27487 0.69482 0.73355 0.0
H4122 H 0.31638 0.69002 0.71316 0.0
H4123 H 0.30696 0.70022 0.68873 0.0
C4124 C 0.25615 0.68263 0.615 0.0
C4125 C 0.26906 0.67715 0.61029 0.0
C4126 C 0.25723 0.69172 0.62941 0.0
C4127 C 0.27137 0.69585 0.63889 0.0
C4128 C 0.28423 0.6903 0.63433 0.0
C4129 C 0.28305 0.68083 0.62018 0.0
C4130 C 0.27279 0.7059 0.65372 0.0
C4131 C 0.27865 0.70076 0.66778 0.0
C4132 C 0.26813 0.72024 0.65409 0.0
C4133 C 0.262 0.72636 0.63961 0.0
C4134 C 0.2708 0.72862 0.62679 0.0
C4135 C 0.26495 0.73458 0.61329 0.0
C4136 C 0.25033 0.73835 0.61251 0.0
C4137 C 0.24154 0.73619 0.62524 0.0
C4138 C 0.24735 0.73027 0.63877 0.0
C4139 C 0.29017 0.74737 0.72172 0.0
C4140 C 0.27678 0.75215 0.72581 0.0
C4141 C 0.28982 0.73845 0.70733 0.0
C4142 C 0.27595 0.73396 0.69742 0.0
C4143 C 0.26268 0.73912 0.70139 0.0
C4144 C 0.26316 0.74843 0.71547 0.0
C4145 C 0.27514 0.72399 0.6827 0.0
C4146 C 0.26943 0.72915 0.66866 0.0
C4147 C 0.27976 0.70962 0.68244 0.0
C4148 C 0.28537 0.70342 0.69715 0.0
C4149 C 0.27636 0.70176 0.70991 0.0
C4150 C 0.28183 0.69602 0.72374 0.0
C4151 C 0.29624 0.6918 0.72491 0.0
C4152 C 0.30522 0.6933 0.71225 0.0
C4153 C 0.29982 0.69904 0.6984 0.0
H4154 H 0.30044 0.68736 0.73562 0.0
H4155 H 0.24583 0.74297 0.60205 0.0
H4156 H 0.63834 0.04804 0.83367 0.0
H4157 H 0.625 0.04561 0.85762 0.0
H4158 H 0.59115 0.00859 0.83195 0.0
H4159 H 0.60439 0.01105 0.80793 0.0
H4160 H 0.57974 0.03242 0.84923 0.0
H4161 H 0.61722 0.99937 0.8567 0.0
H4162 H 0.64372 0.99461 0.85792 0.0
H4163 H 0.65773 0.03058 0.89668 0.0
H4164 H 0.63134 0.03569 0.89554 0.0
H4165 H 0.54179 0.02271 0.91544 0.0
H4166 H 0.5554 0.01279 0.89399 0.0
H4167 H 0.59763 0.04184 0.9159 0.0
H4168 H 0.58416 0.05111 0.93761 0.0
H4169 H 0.60418 0.01833 0.89958 0.0
H4170 H 0.57161 0.05497 0.89136 0.0
H4171 H 0.54771 0.06539 0.8896 0.0
H4172 H 0.52742 0.02973 0.85213 0.0
H4173 H 0.55107 0.01885 0.85396 0.0
C4174 C 0.62797 0.03951 0.83317 0.0
C4175 C 0.62229 0.0297 0.81916 0.0
C4176 C 0.62051 0.03803 0.8468 0.0
C4177 C 0.60735 0.02674 0.84643 0.0
C4178 C 0.60143 0.01721 0.83234 0.0
C4179 C 0.60894 0.01862 0.81874 0.0
C4180 C 0.59943 0.02522 0.86069 0.0
C4181 C 0.58485 0.02896 0.86017 0.0
C4182 C 0.60658 0.02136 0.87494 0.0
C4183 C 0.62231 0.01791 0.87601 0.0
C4184 C 0.62596 0.00628 0.86546 0.0
C4185 C 0.64096 0.00353 0.86613 0.0
C4186 C 0.6524 0.01229 0.87737 0.0
C4187 C 0.64885 0.02379 0.88799 0.0
C4188 C 0.63386 0.02659 0.88736 0.0
C4189 C 0.55408 0.02647 0.91584 0.0
C4190 C 0.56204 0.03783 0.92768 0.0
C4191 C 0.56181 0.02083 0.90371 0.0
C4192 C 0.57736 0.02698 0.90318 0.0
C4193 C 0.5856 0.03707 0.91605 0.0
C4194 C 0.57793 0.04246 0.92831 0.0
C4195 C 0.58429 0.02541 0.88818 0.0
C4196 C 0.59879 0.02128 0.88854 0.0
C4197 C 0.57734 0.02958 0.87387 0.0
C4198 C 0.56299 0.03591 0.87303 0.0
C4199 C 0.56197 0.04922 0.88291 0.0
C4200 C 0.54848 0.05522 0.88188 0.0
C4201 C 0.53602 0.04817 0.87082 0.0
C4202 C 0.53704 0.03511 0.86076 0.0
C4203 C 0.55046 0.029 0.86183 0.0
H4204 H 0.52561 0.05288 0.87 0.0
H4205 H 0.66402 0.01016 0.87784 0.0
H4206 H 0.28438 0.35717 0.11802 0.0
H4207 H 0.28185 0.34661 0.1435 0.0
H4208 H 0.26847 0.30099 0.11847 0.0
H4209 H 0.27015 0.31178 0.09285 0.0
H4210 H 0.2518 0.30264 0.1411 0.0
H4211 H 0.30589 0.3158 0.13993 0.0
H4212 H 0.33078 0.332 0.13724 0.0
H4213 H 0.32488 0.36336 0.17694 0.0
H4214 H 0.29987 0.34745 0.17973 0.0
H4215 H 0.27975 0.26978 0.21296 0.0
H4216 H 0.27886 0.2792 0.18677 0.0
H4217 H 0.26092 0.31811 0.20578 0.0
H4218 H 0.26078 0.30825 0.23195 0.0
H4219 H 0.29288 0.31874 0.18637 0.0
H4220 H 0.23733 0.30364 0.18619 0.0
H4221 H 0.21421 0.28483 0.18908 0.0
H4222 H 0.22492 0.25419 0.15127 0.0
H4223 H 0.24837 0.27268 0.14847 0.0
C4224 C 0.28099 0.34488 0.118 0.0
C4225 C 0.27761 0.33526 0.10352 0.0
C4226 C 0.27961 0.33881 0.13258 0.0
C4227 C 0.27529 0.32291 0.13305 0.0
C4228 C 0.27185 0.31328 0.11851 0.0
C4229 C 0.27288 0.31942 0.10388 0.0
C4230 C 0.2742 0.31646 0.1487 0.0
C4231 C 0.26088 0.30611 0.15091 0.0
C4232 C 0.28597 0.32088 0.16166 0.0
C4233 C 0.30095 0.33052 0.15993 0.0
C4234 C 0.30985 0.32622 0.148 0.0
C4235 C 0.32399 0.33534 0.14647 0.0
C4236 C 0.32939 0.34872 0.15689 0.0
C4237 C 0.32067 0.353 0.16887 0.0
C4238 C 0.30653 0.34394 0.17043 0.0
C4239 C 0.27518 0.28012 0.21155 0.0
C4240 C 0.26999 0.28807 0.22455 0.0
C4241 C 0.27478 0.28551 0.19655 0.0
C4242 C 0.26959 0.29918 0.19431 0.0
C4243 C 0.26471 0.30737 0.20725 0.0
C4244 C 0.2647 0.30176 0.2222 0.0
C4245 C 0.27044 0.30541 0.17872 0.0
C4246 C 0.28381 0.31549 0.17652 0.0
C4247 C 0.25889 0.3005 0.16574 0.0
C4248 C 0.24476 0.28943 0.16733 0.0
C4249 C 0.2349 0.29279 0.17868 0.0
C4250 C 0.22171 0.28221 0.18026 0.0
C4251 C 0.21814 0.26829 0.17042 0.0
C4252 C 0.22774 0.26495 0.15894 0.0
C4253 C 0.24099 0.27548 0.15736 0.0
H4254 H 0.20791 0.26012 0.17166 0.0
H4255 H 0.34034 0.35576 0.15569 0.0
H4256 H 0.22102 0.96096 0.02362 0.0
H4257 H 0.1965 0.96878 0.0253 0.0
H4258 H 0.18922 0.96644 0.97385 0.0
H4259 H 0.21463 0.96002 0.97206 0.0
H4260 H 0.17928 0.99001 0.9882 0.0
H4261 H 0.17399 0.93558 0.99496 0.0
H4262 H 0.18202 0.91424 0.00816 0.0
H4263 H 0.17326 0.93481 0.05355 0.0
H4264 H 0.16538 0.95632 0.0407 0.0
H4265 H 0.10892 0.00769 0.01154 0.0
H4266 H 0.1257 0.99482 0.99618 0.0
H4267 H 0.14398 0.97884 0.0394 0.0
H4268 H 0.12565 0.98927 0.05402 0.0
H4269 H 0.14343 0.95861 0.01892 0.0
H4270 H 0.15838 0.01497 0.01792 0.0
H4271 H 0.1569 0.04041 0.0092 0.0
H4272 H 0.15348 0.02152 0.96009 0.0
H4273 H 0.15461 0.99595 0.96851 0.0
C4274 C 0.21451 0.9626 0.01265 0.0
C4275 C 0.21967 0.95971 0.99765 0.0
C4276 C 0.20034 0.96674 0.01363 0.0
C4277 C 0.19086 0.96742 -0.00035 0.0
C4278 C 0.19631 0.96553 0.98472 0.0
C4279 C 0.21072 0.96179 0.98373 0.0
C4280 C 0.17523 0.97008 0.00077 0.0
C4281 C 0.17127 0.9831 0.99475 0.0
C4282 C 0.16498 0.96095 0.00933 0.0
C4283 C 0.16899 0.94751 0.01682 0.0
C4284 C 0.17371 0.93551 0.00774 0.0
C4285 C 0.17829 0.92341 0.01518 0.0
C4286 C 0.17812 0.92315 0.03167 0.0
C4287 C 0.17333 0.93497 0.04077 0.0
C4288 C 0.16877 0.94709 0.0334 0.0
C4289 C 0.11616 1.00102 0.01768 0.0
C4290 C 0.11608 0.99983 0.03422 0.0
C4291 C 0.126 0.99391 0.00888 0.0
C4292 C 0.13644 0.98615 0.01661 0.0
C4293 C 0.13607 0.98471 0.033 0.0
C4294 C 0.12578 0.99109 0.04155 0.0
C4295 C 0.14826 0.97982 0.0083 0.0
C4296 C 0.15127 0.96559 0.01225 0.0
C4297 C 0.1581 0.98839 0.99876 0.0
C4298 C 0.15613 0.00349 0.99383 0.0
C4299 C 0.15698 0.0162 0.00526 0.0
C4300 C 0.15628 0.03065 0.00037 0.0
C4301 C 0.15498 0.03256 0.9841 0.0
C4302 C 0.15434 0.02002 0.97268 0.0
C4303 C 0.15493 0.00554 0.9775 0.0
H4304 H 0.15457 0.04377 0.98035 0.0
H4305 H 0.18171 0.9138 0.03741 0.0
H4306 H 0.69377 0.59313 0.01591 0.0
H4307 H 0.66801 0.57795 0.01611 0.0
H4308 H 0.64936 0.6069 0.98437 0.0
H4309 H 0.67515 0.62199 0.98395 0.0
H4310 H 0.63344 0.60297 0.01088 0.0
H4311 H 0.65045 0.5718 0.97014 0.0
H4312 H 0.66739 0.55649 0.95727 0.0
H4313 H 0.66244 0.52552 0.99323 0.0
H4314 H 0.64565 0.5408 0.00647 0.0
H4315 H 0.55782 0.55752 0.99489 0.0
H4316 H 0.58342 0.57187 0.99256 0.0
H4317 H 0.60349 0.54284 0.02312 0.0
H4318 H 0.5779 0.52879 0.02603 0.0
H4319 H 0.61857 0.54675 0.99623 0.0
H4320 H 0.60389 0.57984 0.03838 0.0
H4321 H 0.58867 0.59658 0.05209 0.0
H4322 H 0.58914 0.62385 0.01282 0.0
H4323 H 0.60476 0.60754 0.99909 0.0
C4324 C 0.68419 0.59619 0.00888 0.0
C4325 C 0.68651 0.60878 -7e-05 0.0
C4326 C 0.66948 0.58745 0.00894 0.0
C4327 C 0.6567 0.59122 0.00022 0.0
C4328 C 0.65901 0.60372 0.99116 0.0
C4329 C 0.67377 0.6123 0.99088 0.0
C4330 C 0.64088 0.58266 0.00125 0.0
C4331 C 0.63012 0.59071 0.00741 0.0
C4332 C 0.63659 0.56659 0.99711 0.0
C4333 C 0.64695 0.55756 0.98942 0.0
C4334 C 0.65313 0.56184 0.97543 0.0
C4335 C 0.66267 0.55314 0.96804 0.0
C4336 C 0.66603 0.54007 0.97446 0.0
C4337 C 0.65985 0.53567 0.98829 0.0
C4338 C 0.65033 0.54434 0.99574 0.0
C4339 C 0.56765 0.55413 0.00113 0.0
C4340 C 0.56569 0.5417 0.01038 0.0
C4341 C 0.58232 0.56244 -0.00016 0.0
C4342 C 0.59546 0.5585 0.00767 0.0
C4343 C 0.59358 0.54608 0.01688 0.0
C4344 C 0.57889 0.53793 0.01839 0.0
C4345 C 0.61115 0.56707 0.00595 0.0
C4346 C 0.62188 0.55901 -0.00035 0.0
C4347 C 0.61543 0.58315 0.0099 0.0
C4348 C 0.60525 0.59234 0.01761 0.0
C4349 C 0.60056 0.58927 0.03258 0.0
C4350 C 0.59192 0.59872 0.04038 0.0
C4351 C 0.58773 0.61112 0.03323 0.0
C4352 C 0.5923 0.61419 0.01831 0.0
C4353 C 0.60111 0.6049 0.01055 0.0
H4354 H 0.58105 0.61841 0.0393 0.0
H4355 H 0.67338 0.53332 0.9687 0.0
H4356 H 0.66149 0.44768 0.25626 0.0
H4357 H 0.67446 0.42568 0.25566 0.0
H4358 H 0.70359 0.44626 0.29856 0.0
H4359 H 0.69081 0.46851 0.2991 0.0
H4360 H 0.71967 0.43464 0.27486 0.0
H4361 H 0.67491 0.4168 0.30085 0.0
H4362 H 0.64715 0.41159 0.30329 0.0
H4363 H 0.63916 0.38196 0.25909 0.0
H4364 H 0.66684 0.38714 0.2563 0.0
H4365 H 0.75302 0.36773 0.27457 0.0
H4366 H 0.74038 0.38844 0.28498 0.0
H4367 H 0.70083 0.37083 0.25053 0.0
H4368 H 0.71309 0.34996 0.24083 0.0
H4369 H 0.69087 0.38167 0.27457 0.0
H4370 H 0.7329 0.40091 0.24548 0.0
H4371 H 0.75975 0.40705 0.23961 0.0
H4372 H 0.7721 0.4347 0.2849 0.0
H4373 H 0.74536 0.4285 0.29116 0.0
C4374 C 0.67071 0.4476 0.26553 0.0
C4375 C 0.67511 0.4599 0.27772 0.0
C4376 C 0.67803 0.43493 0.26525 0.0
C4377 C 0.6899 0.43423 0.27716 0.0
C4378 C 0.69442 0.44652 0.28929 0.0
C4379 C 0.68703 0.45918 0.28964 0.0
C4380 C 0.69773 0.42076 0.27671 0.0
C4381 C 0.71347 0.42305 0.2751 0.0
C4382 C 0.68955 0.40563 0.27659 0.0
C4383 C 0.67293 0.40242 0.27834 0.0
C4384 C 0.66722 0.40925 0.29161 0.0
C4385 C 0.6515 0.40629 0.29306 0.0
C4386 C 0.6414 0.39647 0.28134 0.0
C4387 C 0.64699 0.38956 0.26816 0.0
C4388 C 0.6627 0.39249 0.26665 0.0
C4389 C 0.7414 0.36803 0.2697 0.0
C4390 C 0.73401 0.35729 0.25689 0.0
C4391 C 0.73428 0.38001 0.27544 0.0
C4392 C 0.71977 0.38156 0.26825 0.0
C4393 C 0.71202 0.37008 0.25629 0.0
C4394 C 0.71902 0.35809 0.25073 0.0
C4395 C 0.71285 0.39539 0.27223 0.0
C4396 C 0.69723 0.39322 0.27455 0.0
C4397 C 0.72107 0.41061 0.27251 0.0
C4398 C 0.7372 0.41402 0.26891 0.0
C4399 C 0.74138 0.40815 0.25427 0.0
C4400 C 0.75657 0.41166 0.25086 0.0
C4401 C 0.76764 0.4212 0.26191 0.0
C4402 C 0.76353 0.42726 0.27639 0.0
C4403 C 0.74837 0.42372 0.27988 0.0
H4404 H 0.77938 0.42395 0.25922 0.0
H4405 H 0.62923 0.39419 0.28248 0.0
H4406 H 0.85707 0.4913 0.51107 0.0
H4407 H 0.88484 0.50068 0.51181 0.0
H4408 H 0.89177 0.45402 0.50212 0.0
H4409 H 0.86423 0.44474 0.50172 0.0
H4410 H 0.90926 0.46952 0.52832 0.0
H4411 H 0.89548 0.47612 0.47402 0.0
H4412 H 0.88056 0.48491 0.45182 0.0
H4413 H 0.89752 0.53177 0.47105 0.0
H4414 H 0.91232 0.52327 0.49356 0.0
H4415 H 0.98705 0.48673 0.51462 0.0
H4416 H 0.95975 0.47729 0.51451 0.0
H4417 H 0.95198 0.52392 0.52097 0.0
H4418 H 0.97937 0.53344 0.52015 0.0
H4419 H 0.93487 0.50766 0.49561 0.0
H4420 H 0.94825 0.49945 0.55098 0.0
H4421 H 0.96265 0.48911 0.57243 0.0
H4422 H 0.94658 0.44336 0.54936 0.0
H4423 H 0.93215 0.45342 0.52769 0.0
C4424 C 0.86467 0.48323 0.5091 0.0
C4425 C 0.85905 0.46748 0.50658 0.0
C4426 C 0.8803 0.48849 0.50936 0.0
C4427 C 0.89004 0.47792 0.50693 0.0
C4428 C 0.88424 0.46219 0.504 0.0
C4429 C 0.86872 0.45697 0.50385 0.0
C4430 C 0.90647 0.48313 0.50881 0.0
C4431 C 0.91497 0.47775 0.5211 0.0
C4432 C 0.91353 0.49387 0.49934 0.0
C4433 C 0.9049 0.49905 0.48559 0.0
C4434 C 0.89594 0.4883 0.4736 0.0
C4435 C 0.88751 0.49323 0.46095 0.0
C4436 C 0.88806 0.50889 0.46005 0.0
C4437 C 0.89709 0.51965 0.47177 0.0
C4438 C 0.90551 0.51478 0.48448 0.0
C4439 C 0.97954 0.49493 0.5165 0.0
C4440 C 0.98497 0.51073 0.51735 0.0
C4441 C 0.96404 0.48955 0.51645 0.0
C4442 C 0.95407 0.49999 0.51784 0.0
C4443 C 0.95968 0.51581 0.51987 0.0
C4444 C 0.97517 0.5212 0.51949 0.0
C4445 C 0.93764 0.4944 0.51547 0.0
C4446 C 0.92916 0.49955 0.50293 0.0
C4447 C 0.9306 0.48324 0.52455 0.0
C4448 C 0.93917 0.47721 0.53769 0.0
C4449 C 0.94785 0.48719 0.55044 0.0
C4450 C 0.95602 0.48138 0.56264 0.0
C4451 C 0.95557 0.4656 0.56224 0.0
C4452 C 0.94692 0.45558 0.54965 0.0
C4453 C 0.93871 0.46133 0.53744 0.0
H4454 H 0.96187 0.46112 0.57172 0.0
H4455 H 0.88151 0.51268 0.45026 0.0
H4456 H 0.34731 0.08158 0.26376 0.0
H4457 H 0.33864 0.1059 0.26388 0.0
H4458 H 0.31566 0.09672 0.30569 0.0
H4459 H 0.32376 0.07174 0.30521 0.0
H4460 H 0.29861 0.10736 0.28069 0.0
H4461 H 0.34935 0.12107 0.3105 0.0
H4462 H 0.37688 0.11977 0.3135 0.0
H4463 H 0.38257 0.14049 0.27006 0.0
H4464 H 0.35505 0.14173 0.26668 0.0
H4465 H 0.28047 0.17963 0.27237 0.0
H4466 H 0.29095 0.16083 0.28733 0.0
H4467 H 0.32546 0.15953 0.2548 0.0
H4468 H 0.31534 0.17857 0.24022 0.0
H4469 H 0.33675 0.15556 0.28304 0.0
H4470 H 0.29074 0.13687 0.24781 0.0
H4471 H 0.26366 0.13323 0.23659 0.0
H4472 H 0.24942 0.11718 0.28016 0.0
H4473 H 0.27643 0.12117 0.29183 0.0
C4474 C 0.34014 0.08457 0.27278 0.0
C4475 C 0.33607 0.07487 0.28444 0.0
C4476 C 0.33545 0.09854 0.273 0.0
C4477 C 0.32697 0.1031 0.28509 0.0
C4478 C 0.32247 0.09331 0.29649 0.0
C4479 C 0.32706 0.07918 0.29621 0.0
C4480 C 0.3224 0.11798 0.28524 0.0
C4481 C 0.30681 0.11807 0.28178 0.0
C4482 C 0.3334 0.13157 0.2859 0.0
C4483 C 0.35014 0.13159 0.28841 0.0
C4484 C 0.35648 0.1254 0.30162 0.0
C4485 C 0.37208 0.12463 0.30336 0.0
C4486 C 0.38148 0.13008 0.292 0.0
C4487 C 0.3753 0.13634 0.27889 0.0
C4488 C 0.35971 0.13712 0.27709 0.0
C4489 C 0.29056 0.17561 0.26876 0.0
C4490 C 0.29696 0.18012 0.255 0.0
C4491 C 0.29648 0.16492 0.27726 0.0
C4492 C 0.30874 0.15867 0.27193 0.0
C4493 C 0.31594 0.16422 0.25903 0.0
C4494 C 0.31007 0.1749 0.2506 0.0
C4495 C 0.31285 0.14499 0.27818 0.0
C4496 C 0.3284 0.14507 0.28277 0.0
C4497 C 0.30188 0.1313 0.2776 0.0
C4498 C 0.28561 0.12976 0.27088 0.0
C4499 C 0.28184 0.13291 0.25515 0.0
C4500 C 0.2665 0.13072 0.24867 0.0
C4501 C 0.25482 0.1251 0.2577 0.0
C4502 C 0.25847 0.12167 0.27323 0.0
C4503 C 0.27378 0.12397 0.27981 0.0
H4504 H 0.24295 0.1233 0.25262 0.0
H4505 H 0.39354 0.12943 0.29335 0.0
H4506 H 0.34906 0.13657 0.52305 0.0
H4507 H 0.37106 0.12341 0.5236 0.0
H4508 H 0.34521 0.08716 0.4892 0.0
H4509 H 0.32323 0.10043 0.48842 0.0
H4510 H 0.36017 0.07698 0.51664 0.0
H4511 H 0.37226 0.11074 0.47651 0.0
H4512 H 0.37657 0.13569 0.46567 0.0
H4513 H 0.41303 0.15312 0.50325 0.0
H4514 H 0.4088 0.12833 0.51444 0.0
H4515 H 0.42286 0.03883 0.51272 0.0
H4516 H 0.40194 0.05135 0.50276 0.0
H4517 H 0.42604 0.09456 0.52774 0.0
H4518 H 0.44699 0.08212 0.53724 0.0
H4519 H 0.41111 0.10023 0.50213 0.0
H4520 H 0.39855 0.06923 0.54407 0.0
H4521 H 0.39427 0.04569 0.5575 0.0
H4522 H 0.35875 0.02472 0.52013 0.0
H4523 H 0.36304 0.04804 0.5063 0.0
C4524 C 0.34809 0.12581 0.51559 0.0
C4525 C 0.33444 0.11952 0.5057 0.0
C4526 C 0.36068 0.11834 0.51585 0.0
C4527 C 0.35981 0.10434 0.50637 0.0
C4528 C 0.34615 0.09798 0.49655 0.0
C4529 C 0.33364 0.10558 0.49608 0.0
C4530 C 0.37302 0.09615 0.50712 0.0
C4531 C 0.37123 0.0819 0.51316 0.0
C4532 C 0.38758 0.10281 0.50308 0.0
C4533 C 0.39013 0.11772 0.49638 0.0
C4534 C 0.38111 0.11993 0.48254 0.0
C4535 C 0.38356 0.13404 0.47631 0.0
C4536 C 0.39504 0.146 0.48378 0.0
C4537 C 0.40413 0.14386 0.49748 0.0
C4538 C 0.40172 0.12977 0.50376 0.0
C4539 C 0.42392 0.05111 0.51548 0.0
C4540 C 0.43653 0.05956 0.52565 0.0
C4541 C 0.41187 0.05823 0.51001 0.0
C4542 C 0.41216 0.07386 0.51484 0.0
C4543 C 0.42541 0.0825 0.52389 0.0
C4544 C 0.43744 0.07541 0.52927 0.0
C4545 C 0.39834 0.081 0.51174 0.0
C4546 C 0.4 0.09513 0.50537 0.0
C4547 C 0.38372 0.07439 0.51584 0.0
C4548 C 0.38128 0.06029 0.52402 0.0
C4549 C 0.38995 0.05953 0.53862 0.0
C4550 C 0.3875 0.04624 0.54632 0.0
C4551 C 0.37629 0.0337 0.53964 0.0
C4552 C 0.36748 0.03443 0.52526 0.0
C4553 C 0.36992 0.04767 0.51747 0.0
H4554 H 0.37438 0.02343 0.54564 0.0
H4555 H 0.39693 0.15691 0.47894 0.0
H4556 H 0.67428 0.61226 0.2588 0.0
H4557 H 0.69029 0.63729 0.25835 0.0
H4558 H 0.71311 0.6341 0.30478 0.0
H4559 H 0.69777 0.60853 0.30505 0.0
H4560 H 0.70322 0.66354 0.30046 0.0
H4561 H 0.7328 0.62913 0.27611 0.0
H4562 H 0.73722 0.60813 0.257 0.0
H4563 H 0.72379 0.63199 0.21772 0.0
H4564 H 0.71914 0.65307 0.23663 0.0
H4565 H 0.75993 0.73058 0.29859 0.0
H4566 H 0.7461 0.705 0.3021 0.0
H4567 H 0.73423 0.69569 0.25094 0.0
H4568 H 0.7494 0.7206 0.24751 0.0
H4569 H 0.73919 0.67174 0.2594 0.0
H4570 H 0.70827 0.7057 0.2824 0.0
H4571 H 0.70216 0.72648 0.30067 0.0
H4572 H 0.71571 0.70419 0.34113 0.0
H4573 H 0.72199 0.68333 0.3231 0.0
C4574 C 0.68286 0.6166 0.26885 0.0
C4575 C 0.6847 0.60803 0.28189 0.0
C4576 C 0.69194 0.63109 0.26861 0.0
C4577 C 0.70295 0.63758 0.28149 0.0
C4578 C 0.70464 0.62934 0.29471 0.0
C4579 C 0.69575 0.6147 0.29486 0.0
C4580 C 0.7128 0.65287 0.28092 0.0
C4581 C 0.71125 0.66537 0.29163 0.0
C4582 C 0.72295 0.65534 0.26914 0.0
C4583 C 0.72548 0.64258 0.25777 0.0
C4584 C 0.73064 0.62982 0.2634 0.0
C4585 C 0.73323 0.61792 0.2526 0.0
C4586 C 0.73075 0.6187 0.23616 0.0
C4587 C 0.72569 0.63139 0.23047 0.0
C4588 C 0.72309 0.64332 0.24121 0.0
C4589 C 0.75458 0.72287 0.28813 0.0
C4590 C 0.7558 0.72744 0.27278 0.0
C4591 C 0.74639 0.70833 0.29013 0.0
C4592 C 0.73863 0.69833 0.27685 0.0
C4593 C 0.74005 0.70299 0.26147 0.0
C4594 C 0.74874 0.71725 0.25947 0.0
C4595 C 0.72946 0.68284 0.27871 0.0
C4596 C 0.73116 0.67016 0.26826 0.0
C4597 C 0.71921 0.68033 0.29056 0.0
C4598 C 0.71577 0.69305 0.3014 0.0
C4599 C 0.71008 0.70531 0.29519 0.0
C4600 C 0.70654 0.71708 0.30551 0.0
C4601 C 0.70859 0.71668 0.32205 0.0
C4602 C 0.71415 0.7045 0.32832 0.0
C4603 C 0.71768 0.69269 0.31806 0.0
H4604 H 0.70583 0.7258 0.33001 0.0
H4605 H 0.73278 0.60949 0.22782 0.0
H4606 H 0.80642 0.43856 0.7859 0.0
H4607 H 0.79806 0.41085 0.78645 0.0
H4608 H 0.83913 0.40254 0.7664 0.0
H4609 H 0.84727 0.42995 0.7655 0.0
H4610 H 0.81284 0.38621 0.75024 0.0
H4611 H 0.83612 0.3994 0.80472 0.0
H4612 H 0.84007 0.4136 0.83169 0.0
H4613 H 0.79328 0.39646 0.83853 0.0
H4614 H 0.78896 0.38235 0.81151 0.0
H4615 H 0.80443 0.30752 0.76153 0.0
H4616 H 0.81469 0.33484 0.76299 0.0
H4617 H 0.77241 0.34514 0.77842 0.0
H4618 H 0.76173 0.31784 0.77641 0.0
H4619 H 0.80066 0.35999 0.79804 0.0
H4620 H 0.77574 0.3506 0.7446 0.0
H4621 H 0.76911 0.3375 0.71723 0.0
H4622 H 0.81621 0.34871 0.70832 0.0
H4623 H 0.8232 0.36163 0.73584 0.0
C4624 C 0.81342 0.43067 0.78143 0.0
C4625 C 0.82714 0.43599 0.77524 0.0
C4626 C 0.80885 0.41507 0.782 0.0
C4627 C 0.81819 0.40499 0.77665 0.0
C4628 C 0.83192 0.41035 0.77057 0.0
C4629 C 0.83638 0.42584 0.76983 0.0
C4630 C 0.81299 0.38865 0.77592 0.0
C4631 C 0.81046 0.38039 0.76071 0.0
C4632 C 0.80952 0.38147 0.78966 0.0
C4633 C 0.81218 0.38991 0.80599 0.0
C4634 C 0.82663 0.39875 0.81191 0.0
C4635 C 0.82894 0.40678 0.82723 0.0
C4636 C 0.81693 0.40596 0.8368 0.0
C4637 C 0.80258 0.39709 0.8311 0.0
C4638 C 0.80019 0.38907 0.81578 0.0
C4639 C 0.79716 0.31557 0.76476 0.0
C4640 C 0.78231 0.31069 0.76878 0.0
C4641 C 0.8031 0.33107 0.76581 0.0
C4642 C 0.79423 0.34162 0.77098 0.0
C4643 C 0.7793 0.33687 0.77459 0.0
C4644 C 0.77325 0.3214 0.7733 0.0
C4645 C 0.80053 0.35776 0.7724 0.0
C4646 C 0.80329 0.36589 0.78768 0.0
C4647 C 0.804 0.36495 0.75875 0.0
C4648 C 0.80002 0.35689 0.74234 0.0
C4649 C 0.78473 0.35007 0.7369 0.0
C4650 C 0.7809 0.34272 0.72136 0.0
C4651 C 0.79222 0.34226 0.71108 0.0
C4652 C 0.80745 0.34906 0.71633 0.0
C4653 C 0.81137 0.35639 0.73191 0.0
H4654 H 0.7891 0.33672 0.69902 0.0
H4655 H 0.81874 0.41218 0.84865 0.0
H4656 H 0.01913 0.85942 0.07283 0.0
H4657 H 0.01694 0.88361 0.06253 0.0
H4658 H 0.05989 0.88456 0.04288 0.0
H4659 H 0.06192 0.85984 0.05241 0.0
H4660 H 0.05846 0.91305 0.05853 0.0
H4661 H 0.02745 0.87812 0.01741 0.0
H4662 H 0.00734 0.85624 0.00565 0.0
H4663 H 0.97313 0.87776 0.02631 0.0
H4664 H 0.99307 0.89973 0.0383 0.0
H4665 H 0.05056 0.97863 0.01715 0.0
H4666 H 0.05401 0.95328 0.02409 0.0
H4667 H 0.00861 0.94542 0.03907 0.0
H4668 H 0.00511 0.97065 0.03201 0.0
H4669 H 0.01238 0.91987 0.02429 0.0
H4670 H 0.04454 0.95475 0.06634 0.0
H4671 H 0.06518 0.97656 0.0771 0.0
H4672 H 0.09787 0.95495 0.05368 0.0
H4673 H 0.07739 0.93305 0.04269 0.0
C4674 C 0.02807 0.86439 0.06604 0.0
C4675 C 0.04072 0.85713 0.06358 0.0
C4676 C 0.0268 0.8785 0.06019 0.0
C4677 C 0.03819 0.88615 0.05178 0.0
C4678 C 0.0509 0.8791 0.04936 0.0
C4679 C 0.05208 0.86483 0.055 0.0
C4680 C 0.03686 0.90151 0.04584 0.0
C4681 C 0.04845 0.91444 0.05086 0.0
C4682 C 0.0238 0.90368 0.03595 0.0
C4683 C 0.01177 0.89048 0.02889 0.0
C4684 C 0.01566 0.87812 0.01956 0.0
C4685 C 0.00428 0.86573 0.01282 0.0
C4686 C 0.98897 0.86559 0.01527 0.0
C4687 C 0.985 0.87787 0.02444 0.0
C4688 C 0.99633 0.89031 0.03119 0.0
C4689 C 0.04127 0.97153 0.02189 0.0
C4690 C 0.02746 0.97686 0.02381 0.0
C4691 C 0.0433 0.95694 0.02602 0.0
C4692 C 0.03169 0.94718 0.03242 0.0
C4693 C 0.01785 0.95247 0.03418 0.0
C4694 C 0.01581 0.96703 0.03005 0.0
C4695 C 0.03384 0.93156 0.03724 0.0
C4696 C 0.02239 0.91853 0.03198 0.0
C4697 C 0.04709 0.9293 0.04685 0.0
C4698 C 0.05942 0.94235 0.05359 0.0
C4699 C 0.05612 0.95469 0.06343 0.0
C4700 C 0.06779 0.96706 0.06958 0.0
C4701 C 0.08282 0.96716 0.06603 0.0
C4702 C 0.08622 0.95486 0.0564 0.0
C4703 C 0.0746 0.94246 0.05024 0.0
H4704 H 0.09183 0.97677 0.07076 0.0
H4705 H 0.98018 0.85598 0.01004 0.0
H4706 H 0.93025 0.24152 0.85108 0.0
H4707 H 0.90658 0.24216 0.83385 0.0
H4708 H 0.89293 0.27223 0.8705 0.0
H4709 H 0.91664 0.27184 0.88759 0.0
H4710 H 0.86862 0.24929 0.85728 0.0
H4711 H 0.90672 0.28613 0.83868 0.0
H4712 H 0.93092 0.29584 0.82798 0.0
H4713 H 0.91719 0.2639 0.7857 0.0
H4714 H 0.89301 0.25376 0.7963 0.0
H4715 H 0.81175 0.28137 0.81281 0.0
H4716 H 0.83505 0.27789 0.82863 0.0
H4717 H 0.84282 0.24511 0.79095 0.0
H4718 H 0.8187 0.24769 0.77564 0.0
H4719 H 0.8699 0.26774 0.80376 0.0
H4720 H 0.83129 0.23157 0.82192 0.0
H4721 H 0.80688 0.22231 0.83243 0.0
H4722 H 0.82146 0.25309 0.87543 0.0
H4723 H 0.84586 0.26281 0.86501 0.0
C4724 C 0.92219 0.24824 0.8555 0.0
C4725 C 0.92549 0.25669 0.87078 0.0
C4726 C 0.90864 0.24866 0.84558 0.0
C4727 C 0.89782 0.25732 0.85072 0.0
C4728 C 0.90097 0.26547 0.86612 0.0
C4729 C 0.91463 0.2653 0.87589 0.0
C4730 C 0.88333 0.25803 0.84015 0.0
C4731 C 0.86897 0.25348 0.84566 0.0
C4732 C 0.88354 0.26312 0.82472 0.0
C4733 C 0.89815 0.26902 0.81841 0.0
C4734 C 0.90894 0.28102 0.8272 0.0
C4735 C 0.92264 0.28664 0.82113 0.0
C4736 C 0.92562 0.28045 0.8062 0.0
C4737 C 0.91489 0.26865 0.79729 0.0
C4738 C 0.90119 0.26295 0.80333 0.0
C4739 C 0.81796 0.27291 0.80816 0.0
C4740 C 0.81283 0.26436 0.79318 0.0
C4741 C 0.83157 0.27116 0.81711 0.0
C4742 C 0.84078 0.26109 0.81117 0.0
C4743 C 0.83601 0.25293 0.79592 0.0
C4744 C 0.82219 0.25446 0.78712 0.0
C4745 C 0.85524 0.25912 0.82097 0.0
C4746 C 0.86957 0.26345 0.81534 0.0
C4747 C 0.85502 0.25382 0.83629 0.0
C4748 C 0.84034 0.24807 0.84258 0.0
C4749 C 0.82923 0.23652 0.83353 0.0
C4750 C 0.8154 0.23116 0.83949 0.0
C4751 C 0.81259 0.23715 0.85457 0.0
C4752 C 0.82363 0.24849 0.86373 0.0
C4753 C 0.83746 0.25394 0.8578 0.0
H4754 H 0.80188 0.23297 0.85917 0.0
H4755 H 0.93622 0.28484 0.80151 0.0
H4756 H 0.54335 0.19059 0.58452 0.0
H4757 H 0.54093 0.16343 0.57533 0.0
H4758 H 0.52568 0.17182 0.52759 0.0
H4759 H 0.52731 0.19911 0.53709 0.0
H4760 H 0.51076 0.14505 0.53188 0.0
H4761 H 0.56442 0.16539 0.53958 0.0
H4762 H 0.58836 0.1805 0.55424 0.0
H4763 H 0.58401 0.15174 0.59222 0.0
H4764 H 0.56 0.13651 0.57781 0.0
H4765 H 0.52976 0.07118 0.50154 0.0
H4766 H 0.53035 0.099 0.50693 0.0
H4767 H 0.5312 0.09478 0.55734 0.0
H4768 H 0.52999 0.06705 0.55196 0.0
H4769 H 0.55396 0.11969 0.54883 0.0
H4770 H 0.49964 0.09928 0.53976 0.0
H4771 H 0.47543 0.0853 0.52467 0.0
H4772 H 0.48158 0.11471 0.48744 0.0
H4773 H 0.50596 0.12875 0.50221 0.0
C4774 C 0.53952 0.18672 0.57204 0.0
C4775 C 0.53575 0.19722 0.56157 0.0
C4776 C 0.53821 0.17107 0.5667 0.0
C4777 C 0.53357 0.16531 0.55054 0.0
C4778 C 0.5294 0.17573 0.54008 0.0
C4779 C 0.53039 0.19143 0.54553 0.0
C4780 C 0.53335 0.14857 0.54478 0.0
C4781 C 0.52036 0.13964 0.53538 0.0
C4782 C 0.54572 0.14112 0.54923 0.0
C4783 C 0.56042 0.14986 0.55766 0.0
C4784 C 0.56859 0.1623 0.55106 0.0
C4785 C 0.58216 0.17088 0.55933 0.0
C4786 C 0.58769 0.16709 0.57416 0.0
C4787 C 0.57972 0.15465 0.58072 0.0
C4788 C 0.56616 0.146 0.57249 0.0
C4789 C 0.53016 0.07621 0.51378 0.0
C4790 C 0.52986 0.06681 0.52631 0.0
C4791 C 0.53038 0.09213 0.51685 0.0
C4792 C 0.53072 0.09914 0.53258 0.0
C4793 C 0.53086 0.08979 0.5451 0.0
C4794 C 0.53019 0.07387 0.542 0.0
C4795 C 0.53132 0.11618 0.53621 0.0
C4796 C 0.54444 0.12516 0.54519 0.0
C4797 C 0.51917 0.12364 0.5311 0.0
C4798 C 0.50475 0.11493 0.52199 0.0
C4799 C 0.49595 0.10263 0.52825 0.0
C4800 C 0.48216 0.09473 0.51979 0.0
C4801 C 0.47699 0.09908 0.50508 0.0
C4802 C 0.48561 0.11133 0.49881 0.0
C4803 C 0.49942 0.11927 0.50722 0.0
H4804 H 0.46628 0.09299 0.49858 0.0
H4805 H 0.59817 0.17379 0.58058 0.0
H4806 H 0.5907 0.7747 0.39807 0.0
H4807 H 0.61336 0.77544 0.38377 0.0
H4808 H 0.58455 0.7554 0.34044 0.0
H4809 H 0.56191 0.75395 0.35501 0.0
H4810 H 0.60816 0.7437 0.34015 0.0
H4811 H 0.60346 0.79649 0.34968 0.0
H4812 H 0.60121 0.82054 0.36549 0.0
H4813 H 0.64409 0.82062 0.39332 0.0
H4814 H 0.64651 0.79648 0.37778 0.0
H4815 H 0.66585 0.76948 0.28799 0.0
H4816 H 0.64334 0.76252 0.30238 0.0
H4817 H 0.67183 0.7762 0.34726 0.0
H4818 H 0.69422 0.78315 0.33286 0.0
H4819 H 0.64836 0.79057 0.34635 0.0
H4820 H 0.65315 0.73788 0.33527 0.0
H4821 H 0.65483 0.71392 0.31897 0.0
H4822 H 0.61126 0.71424 0.29271 0.0
H4823 H 0.6094 0.7383 0.30874 0.0
C4824 C 0.58916 0.77053 0.38547 0.0
C4825 C 0.57436 0.76436 0.37774 0.0
C4826 C 0.6022 0.77103 0.3772 0.0
C4827 C 0.60091 0.76584 0.36075 0.0
C4828 C 0.58611 0.75955 0.35305 0.0
C4829 C 0.57307 0.75875 0.36142 0.0
C4830 C 0.61489 0.76684 0.35166 0.0
C4831 C 0.6168 0.75407 0.34138 0.0
C4832 C 0.62656 0.78017 0.35327 0.0
C4833 C 0.62508 0.79462 0.36268 0.0
C4834 C 0.61235 0.80159 0.35925 0.0
C4835 C 0.61105 0.81524 0.36814 0.0
C4836 C 0.62248 0.82208 0.38043 0.0
C4837 C 0.63524 0.8153 0.38382 0.0
C4838 C 0.63658 0.80165 0.37496 0.0
C4839 C 0.66742 0.77031 0.30092 0.0
C4840 C 0.68196 0.77652 0.30925 0.0
C4841 C 0.65448 0.76644 0.3092 0.0
C4842 C 0.6557 0.76882 0.32604 0.0
C4843 C 0.67042 0.77422 0.33432 0.0
C4844 C 0.68332 0.77801 0.32607 0.0
C4845 C 0.64165 0.76743 0.33495 0.0
C4846 C 0.63971 0.78019 0.34515 0.0
C4847 C 0.62991 0.75418 0.33306 0.0
C4848 C 0.63123 0.73999 0.32308 0.0
C4849 C 0.64402 0.73295 0.32589 0.0
C4850 C 0.64497 0.71931 0.31673 0.0
C4851 C 0.63318 0.71259 0.30477 0.0
C4852 C 0.6204 0.71948 0.30195 0.0
C4853 C 0.61939 0.7331 0.31107 0.0
H4854 H 0.63393 0.70202 0.29773 0.0
H4855 H 0.62146 0.83265 0.3873 0.0
H4856 H 0.05421 0.21639 0.40246 0.0
H4857 H 0.05317 0.19445 0.41787 0.0
H4858 H 0.00684 0.19744 0.42656 0.0
H4859 H 0.00806 0.21987 0.41193 0.0
H4860 H 0.0213 0.19186 0.45289 0.0
H4861 H 0.01724 0.16889 0.39788 0.0
H4862 H 0.02621 0.16589 0.37121 0.0
H4863 H 0.06821 0.15504 0.39221 0.0
H4864 H 0.05953 0.15809 0.41902 0.0
H4865 H 0.99158 0.11947 0.47484 0.0
H4866 H 0.99865 0.143 0.46273 0.0
H4867 H 0.04321 0.13209 0.45683 0.0
H4868 H 0.03577 0.10785 0.46849 0.0
H4869 H 0.03345 0.14249 0.4306 0.0
H4870 H 0.03723 0.16341 0.48516 0.0
H4871 H 0.02902 0.1669 0.51213 0.0
H4872 H 0.98891 0.18235 0.49262 0.0
H4873 H 0.99683 0.17887 0.46553 0.0
C4874 C 0.04381 0.21256 0.40777 0.0
C4875 C 0.03121 0.22015 0.40575 0.0
C4876 C 0.04316 0.19975 0.41647 0.0
C4877 C 0.02982 0.19391 0.42332 0.0
C4878 C 0.01729 0.20151 0.42143 0.0
C4879 C 0.01795 0.21436 0.41283 0.0
C4880 C 0.02884 0.18007 0.43259 0.0
C4881 C 0.02382 0.18105 0.44788 0.0
C4882 C 0.0327 0.16597 0.42656 0.0
C4883 C 0.03779 0.16382 0.41044 0.0
C4884 C 0.02841 0.16591 0.3968 0.0
C4885 C 0.03344 0.1642 0.38167 0.0
C4886 C 0.04778 0.16031 0.38002 0.0
C4887 C 0.0571 0.15805 0.3935 0.0
C4888 C 0.05212 0.15975 0.40867 0.0
C4889 C 1.00299 0.1221 0.47117 0.0
C4890 C 0.01306 0.11162 0.4727 0.0
C4891 C 0.00711 0.13575 0.46429 0.0
C4892 C 0.02161 0.13972 0.45891 0.0
C4893 C 0.03195 0.12949 0.46084 0.0
C4894 C 0.02776 0.11567 0.46772 0.0
C4895 C 0.02544 0.15415 0.45074 0.0
C4896 C 0.03105 0.15333 0.43568 0.0
C4897 C 0.02226 0.16848 0.45702 0.0
C4898 C 0.01758 0.1708 0.47332 0.0
C4899 C 0.02663 0.1675 0.48663 0.0
C4900 C 0.02204 0.1695 0.50193 0.0
C4901 C 0.00844 0.17482 0.50409 0.0
C4902 C 0.99944 0.17824 0.49094 0.0
C4903 C 0.004 0.1763 0.47562 0.0
H4904 H 0.00489 0.17632 0.51594 0.0
H4905 H 0.05167 0.15901 0.3683 0.0
H4906 H 0.60472 0.26128 0.19955 0.0
H4907 H 0.63199 0.26348 0.20884 0.0
H4908 H 0.6209 0.25926 0.25699 0.0
H4909 H 0.59349 0.25753 0.24765 0.0
H4910 H 0.64751 0.27956 0.25797 0.0
H4911 H 0.62979 0.22827 0.23356 0.0
H4912 H 0.61598 0.20853 0.21228 0.0
H4913 H 0.64604 0.22659 0.17895 0.0
H4914 H 0.65995 0.24653 0.20003 0.0
H4915 H 0.72221 0.25987 0.2812 0.0
H4916 H 0.69436 0.25878 0.27574 0.0
H4917 H 0.70013 0.26903 0.22763 0.0
H4918 H 0.72781 0.27049 0.23308 0.0
H4919 H 0.6758 0.24469 0.2287 0.0
H4920 H 0.69342 0.29624 0.25377 0.0
H4921 H 0.70621 0.31647 0.27505 0.0
H4922 H 0.67605 0.29759 0.3079 0.0
H4923 H 0.66318 0.27712 0.28683 0.0
C4924 C 0.6081 0.26089 0.21213 0.0
C4925 C 0.59689 0.25913 0.22281 0.0
C4926 C 0.62375 0.26209 0.21748 0.0
C4927 C 0.62875 0.26126 0.23366 0.0
C4928 C 0.61755 0.25991 0.24446 0.0
C4929 C 0.60183 0.25885 0.2391 0.0
C4930 C 0.64551 0.26122 0.23896 0.0
C4931 C 0.65359 0.27174 0.25172 0.0
C4932 C 0.65377 0.25119 0.23088 0.0
C4933 C 0.64586 0.2389 0.21833 0.0
C4934 C 0.63344 0.22802 0.22168 0.0
C4935 C 0.62559 0.21681 0.20966 0.0
C4936 C 0.63012 0.21632 0.19427 0.0
C4937 C 0.64256 0.22698 0.19088 0.0
C4938 C 0.65046 0.23822 0.20287 0.0
C4939 C 0.71755 0.26187 0.26944 0.0
C4940 C 0.72742 0.26531 0.25762 0.0
C4941 C 0.70157 0.26132 0.26634 0.0
C4942 C 0.69496 0.26391 0.25124 0.0
C4943 C 0.70478 0.26702 0.23938 0.0
C4944 C 0.72072 0.26787 0.24255 0.0
C4945 C 0.67787 0.26315 0.24754 0.0
C4946 C 0.66971 0.25243 0.23506 0.0
C4947 C 0.66958 0.2729 0.25601 0.0
C4948 C 0.67746 0.28502 0.26878 0.0
C4949 C 0.68963 0.29629 0.26558 0.0
C4950 C 0.69686 0.30783 0.27759 0.0
C4951 C 0.69198 0.30828 0.29283 0.0
C4952 C 0.67984 0.2972 0.29609 0.0
C4953 C 0.67256 0.28563 0.28412 0.0
H4954 H 0.69758 0.31724 0.30211 0.0
H4955 H 0.62399 0.20766 0.18496 0.0
H4956 H 0.52251 0.87824 0.89658 0.0
H4957 H 0.5223 0.90202 0.91359 0.0
H4958 H 0.55324 0.88889 0.94977 0.0
H4959 H 0.55371 0.86512 0.93261 0.0
H4960 H 0.52898 0.89988 0.96288 0.0
H4961 H 0.56667 0.91708 0.92955 0.0
H4962 H 0.5784 0.92087 0.9046 0.0
H4963 H 0.54344 0.94546 0.8889 0.0
H4964 H 0.53136 0.94164 0.91368 0.0
H4965 H 0.54399 0.97583 0.00822 0.0
H4966 H 0.54717 0.95189 0.99298 0.0
H4967 H 0.51405 0.95887 0.9552 0.0
H4968 H 0.51004 0.98206 0.97095 0.0
H4969 H 0.54159 0.95113 0.94392 0.0
H4970 H 0.50368 0.93268 0.97782 0.0
H4971 H 0.49269 0.92851 0.0031 0.0
H4972 H 0.52958 0.90613 0.01837 0.0
H4973 H 0.54094 0.9104 0.99327 0.0
C4974 C 0.5293 0.88037 0.90815 0.0
C4975 C 0.5381 0.86961 0.91315 0.0
C4976 C 0.52923 0.89409 0.91789 0.0
C4977 C 0.53776 0.89745 0.93309 0.0
C4978 C 0.54652 0.8867 0.93816 0.0
C4979 C 0.54685 0.8731 0.92826 0.0
C4980 C 0.53723 0.91202 0.94364 0.0
C4981 C 0.532 0.91108 0.9588 0.0
C4982 C 0.54096 0.92678 0.93845 0.0
C4983 C 0.548 0.92891 0.9234 0.0
C4984 C 0.56137 0.92315 0.9207 0.0
C4985 C 0.56811 0.92534 0.9066 0.0
C4986 C 0.56164 0.93336 0.89514 0.0
C4987 C 0.54842 0.93923 0.89777 0.0
C4988 C 0.54163 0.93706 0.91185 0.0
C4989 C 0.53726 0.97218 0.99675 0.0
C4990 C 0.52705 0.98125 0.99068 0.0
C4991 C 0.53915 0.95848 0.98796 0.0
C4992 C 0.53099 0.95348 0.97273 0.0
C4993 C 0.52073 0.96248 0.96673 0.0
C4994 C 0.51862 0.97598 0.97566 0.0
C4995 C 0.53309 0.93897 0.96304 0.0
C4996 C 0.53865 0.93992 0.94803 0.0
C4997 C 0.52983 0.92425 0.96846 0.0
C4998 C 0.52329 0.92208 0.98377 0.0
C4999 C 0.50958 0.92708 0.98667 0.0
C5000 C 0.50325 0.92465 0.00094 0.0
C5001 C 0.51046 0.91712 0.01237 0.0
C5002 C 0.52403 0.91201 0.00954 0.0
C5003 C 0.53042 0.91444 0.99529 0.0
H5004 H 0.50551 0.9152 0.02338 0.0
H5005 H 0.56689 0.93506 0.88425 0.0
H5006 H 0.92562 0.73069 0.70908 0.0
H5007 H 0.90095 0.73278 0.71875 0.0
H5008 H 0.9205 0.77749 0.74321 0.0
H5009 H 0.94535 0.77536 0.73385 0.0
H5010 H 0.90055 0.76148 0.76149 0.0
H5011 H 0.89857 0.77342 0.7072 0.0
H5012 H 0.90131 0.76834 0.67854 0.0
H5013 H 0.86675 0.72761 0.67476 0.0
H5014 H 0.86398 0.73232 0.70349 0.0
H5015 H 0.82983 0.78518 0.77464 0.0
H5016 H 0.85509 0.78262 0.76748 0.0
H5017 H 0.83469 0.74335 0.73379 0.0
H5018 H 0.80922 0.7471 0.73976 0.0
H5019 H 0.85572 0.75643 0.72066 0.0
H5020 H 0.85712 0.74424 0.77491 0.0
H5021 H 0.85514 0.74844 0.80384 0.0
H5022 H 0.89082 0.7883 0.80835 0.0
H5023 H 0.89287 0.78448 0.77941 0.0
C5024 C 0.92485 0.74092 0.71669 0.0
C5025 C 0.93773 0.75289 0.72045 0.0
C5026 C 0.91056 0.74216 0.72216 0.0
C5027 C 0.90855 0.75541 0.73162 0.0
C5028 C 0.92151 0.76714 0.7359 0.0
C5029 C 0.93579 0.76595 0.73035 0.0
C5030 C 0.89286 0.75732 0.73633 0.0
C5031 C 0.89078 0.76052 0.75254 0.0
C5032 C 0.87984 0.75578 0.72485 0.0
C5033 C 0.88116 0.75315 0.70751 0.0
C5034 C 0.8916 0.76334 0.70027 0.0
C5035 C 0.89317 0.76053 0.68402 0.0
C5036 C 0.88423 0.74764 0.67484 0.0
C5037 C 0.87367 0.73758 0.68189 0.0
C5038 C 0.87209 0.74031 0.69815 0.0
C5039 C 0.83056 0.77618 0.7655 0.0
C5040 C 0.81712 0.76657 0.75769 0.0
C5041 C 0.84527 0.77445 0.76159 0.0
C5042 C 0.84728 0.76251 0.75023 0.0
C5043 C 0.83384 0.75274 0.74257 0.0
C5044 C 0.8191 0.75482 0.7461 0.0
C5045 C 0.86315 0.76044 0.74596 0.0
C5046 C 0.86535 0.75728 0.72975 0.0
C5047 C 0.87622 0.76188 0.75751 0.0
C5048 C 0.87505 0.76415 0.77494 0.0
C5049 C 0.86448 0.75395 0.78205 0.0
C5050 C 0.86335 0.75627 0.79846 0.0
C5051 C 0.87282 0.76865 0.80792 0.0
C5052 C 0.88347 0.77873 0.801 0.0
C5053 C 0.88463 0.77649 0.7846 0.0
H5054 H 0.87193 0.77041 0.82062 0.0
H5055 H 0.88547 0.74547 0.66226 0.0
H5056 H 0.10716 0.0151 0.86573 0.0
H5057 H 0.09589 0.01394 0.89095 0.0
H5058 H 0.05596 0.02894 0.86963 0.0
H5059 H 0.06741 0.03048 0.84442 0.0
H5060 H 0.06429 0.04337 0.89878 0.0
H5061 H 0.05582 0.99023 0.87626 0.0
H5062 H 0.06347 0.96661 0.86475 0.0
H5063 H 0.0944 0.96709 0.907 0.0
H5064 H 0.08704 0.99079 0.91868 0.0
H5065 H 0.01951 0.02749 0.96177 0.0
H5066 H 0.02898 0.0274 0.9357 0.0
H5067 H 0.06756 0.0083 0.95392 0.0
H5068 H 0.05719 0.00678 0.97957 0.0
H5069 H 0.05928 0.99596 0.92583 0.0
H5070 H 0.06847 0.04896 0.94861 0.0
H5071 H 0.06041 0.07203 0.96101 0.0
H5072 H 0.02889 0.07205 0.91939 0.0
H5073 H 0.03666 0.04893 0.90678 0.0
C5074 C 0.09592 0.01802 0.86638 0.0
C5075 C 0.08813 0.02277 0.85304 0.0
C5076 C 0.08947 0.01734 0.88081 0.0
C5077 C 0.07493 0.02109 0.88217 0.0
C5078 C 0.06717 0.02597 0.8689 0.0
C5079 C 0.07372 0.02683 0.85449 0.0
C5080 C 0.06791 0.02002 0.89745 0.0
C5081 C 0.06304 0.03294 0.9046 0.0
C5082 C 0.06656 0.00657 0.9053 0.0
C5083 C 0.07097 0.99233 0.89827 0.0
C5084 C 0.06432 0.98534 0.88304 0.0
C5085 C 0.06859 0.97193 0.8765 0.0
C5086 C 0.07943 0.96537 0.88513 0.0
C5087 C 0.08601 0.97218 0.90033 0.0
C5088 C 0.08178 0.98559 0.90692 0.0
C5089 C 0.0298 0.02288 0.96014 0.0
C5090 C 0.03747 0.01693 0.97275 0.0
C5091 C 0.0354 0.02314 0.94526 0.0
C5092 C 0.04925 0.01824 0.94286 0.0
C5093 C 0.05688 0.01221 0.95541 0.0
C5094 C 0.05097 0.01141 0.97012 0.0
C5095 C 0.05581 0.01935 0.92732 0.0
C5096 C 0.06057 0.00642 0.92007 0.0
C5097 C 0.05722 0.03286 0.91951 0.0
C5098 C 0.05309 0.04718 0.92679 0.0
C5099 C 0.05983 0.0539 0.94211 0.0
C5100 C 0.05529 0.06696 0.94918 0.0
C5101 C 0.04412 0.07346 0.94102 0.0
C5102 C 0.03754 0.067 0.9257 0.0
C5103 C 0.04203 0.05394 0.91857 0.0
H5104 H 0.04057 0.08352 0.94656 0.0
H5105 H 0.08272 0.95499 0.88004 0.0
H5106 H 0.8011 0.38458 0.58233 0.0
H5107 H 0.80026 0.37034 0.60561 0.0
H5108 H 0.76319 0.33621 0.58047 0.0
H5109 H 0.76404 0.3504 0.55696 0.0
H5110 H 0.75876 0.34695 0.61242 0.0
H5111 H 0.79646 0.32719 0.58337 0.0
H5112 H 0.81958 0.32885 0.56922 0.0
H5113 H 0.84722 0.35266 0.61148 0.0
H5114 H 0.82424 0.3514 0.62579 0.0
H5115 H 0.7749 0.29176 0.66822 0.0
H5116 H 0.76583 0.30629 0.64704 0.0
H5117 H 0.80408 0.34338 0.66245 0.0
H5118 H 0.81356 0.32852 0.68278 0.0
H5119 H 0.80509 0.32819 0.63332 0.0
H5120 H 0.76849 0.34955 0.66249 0.0
H5121 H 0.74575 0.35042 0.67683 0.0
H5122 H 0.71661 0.32587 0.63586 0.0
H5123 H 0.73919 0.32461 0.62136 0.0
C5124 C 0.79291 0.37395 0.58171 0.0
C5125 C 0.78269 0.36846 0.56794 0.0
C5126 C 0.79238 0.36592 0.59498 0.0
C5127 C 0.78171 0.35229 0.59455 0.0
C5128 C 0.77143 0.34678 0.58087 0.0
C5129 C 0.77195 0.35483 0.56756 0.0
C5130 C 0.78158 0.34379 0.60847 0.0
C5131 C 0.76874 0.34256 0.61698 0.0
C5132 C 0.79478 0.33845 0.61429 0.0
C5133 C 0.8086 0.33928 0.60561 0.0
C5134 C 0.80745 0.3329 0.5896 0.0
C5135 C 0.82054 0.33375 0.58155 0.0
C5136 C 0.83486 0.34087 0.58943 0.0
C5137 C 0.83612 0.34716 0.60538 0.0
C5138 C 0.82307 0.34637 0.61346 0.0
C5139 C 0.78113 0.30313 0.6671 0.0
C5140 C 0.79508 0.30902 0.67654 0.0
C5141 C 0.77582 0.31148 0.65531 0.0
C5142 C 0.78436 0.32581 0.65326 0.0
C5143 C 0.7974 0.3323 0.66392 0.0
C5144 C 0.80293 0.32379 0.67529 0.0
C5145 C 0.78254 0.33199 0.6379 0.0
C5146 C 0.795 0.33248 0.62888 0.0
C5147 C 0.76906 0.33678 0.63184 0.0
C5148 C 0.75559 0.33675 0.64093 0.0
C5149 C 0.75728 0.34407 0.65664 0.0
C5150 C 0.74439 0.34471 0.66477 0.0
C5151 C 0.72975 0.33815 0.65729 0.0
C5152 C 0.72796 0.3309 0.64167 0.0
C5153 C 0.7408 0.33021 0.6335 0.0
H5154 H 0.71979 0.33873 0.66357 0.0
H5155 H 0.84498 0.34149 0.58319 0.0
H5156 H 0.41189 0.00775 0.37129 0.0
H5157 H 0.4277 0.00991 0.39702 0.0
H5158 H 0.46665 0.03324 0.3764 0.0
H5159 H 0.45077 0.03116 0.35063 0.0
H5160 H 0.47133 0.00758 0.39371 0.0
H5161 H 0.44979 0.05434 0.39857 0.0
H5162 H 0.4289 0.0692 0.39869 0.0
H5163 H 0.4097 0.04393 0.43519 0.0
H5164 H 0.43037 0.02879 0.43512 0.0
H5165 H 0.52125 0.03317 0.46376 0.0
H5166 H 0.50604 0.0317 0.43808 0.0
H5167 H 0.46471 0.02009 0.46083 0.0
H5168 H 0.47988 0.02259 0.48649 0.0
H5169 H 0.46112 0.039 0.44176 0.0
H5170 H 0.48124 0.99241 0.4386 0.0
H5171 H 0.50115 0.97636 0.43957 0.0
H5172 H 0.52111 0.99797 0.40119 0.0
H5173 H 0.50147 0.0143 0.40014 0.0
C5174 C 0.42382 0.01336 0.37242 0.0
C5175 C 0.43037 0.01935 0.35941 0.0
C5176 C 0.43273 0.01459 0.38692 0.0
C5177 C 0.44813 0.02176 0.3883 0.0
C5178 C 0.45469 0.02772 0.37528 0.0
C5179 C 0.44573 0.02661 0.36078 0.0
C5180 C 0.45745 0.02292 0.40341 0.0
C5181 C 0.46931 0.01454 0.40427 0.0
C5182 C 0.45416 0.03154 0.41702 0.0
C5183 C 0.44151 0.04034 0.4167 0.0
C5184 C 0.441 0.05183 0.40647 0.0
C5185 C 0.42923 0.06034 0.40657 0.0
C5186 C 0.41795 0.05748 0.41691 0.0
C5187 C 0.41841 0.04611 0.42716 0.0
C5188 C 0.43015 0.03757 0.4271 0.0
C5189 C 0.50903 0.03002 0.46316 0.0
C5190 C 0.50183 0.02692 0.47678 0.0
C5191 C 0.50034 0.02924 0.44857 0.0
C5192 C 0.48438 0.02507 0.44759 0.0
C5193 C 0.47709 0.023 0.46139 0.0
C5194 C 0.48579 0.02438 0.476 0.0
C5195 C 0.47511 0.0236 0.43229 0.0
C5196 C 0.4632 0.03192 0.43133 0.0
C5197 C 0.47812 0.01453 0.41875 0.0
C5198 C 0.48997 0.0047 0.41941 0.0
C5199 C 0.48995 0.99383 0.43046 0.0
C5200 C 0.50118 0.98466 0.431 0.0
C5201 C 0.51241 0.98617 0.42048 0.0
C5202 C 0.51242 0.99682 0.40935 0.0
C5203 C 0.50124 0.00603 0.40877 0.0
H5204 H 0.52109 0.97906 0.42091 0.0
H5205 H 0.40888 0.06411 0.41701 0.0
H5206 H 0.79046 0.69908 0.09896 0.0
H5207 H 0.79073 0.71038 0.12656 0.0
H5208 H 0.75826 0.73797 0.11083 0.0
H5209 H 0.75791 0.72667 0.08314 0.0
H5210 H 0.78156 0.75419 0.13443 0.0
H5211 H 0.74509 0.70745 0.12642 0.0
H5212 H 0.73619 0.67988 0.11774 0.0
H5213 H 0.7699 0.66896 0.15234 0.0
H5214 H 0.77919 0.69652 0.16103 0.0
H5215 H 0.75859 0.77311 0.21227 0.0
H5216 H 0.75908 0.76486 0.18388 0.0
H5217 H 0.78625 0.73133 0.19659 0.0
H5218 H 0.78533 0.73908 0.2248 0.0
H5219 H 0.76494 0.71853 0.17378 0.0
H5220 H 0.80104 0.76651 0.18193 0.0
H5221 H 0.81024 0.79433 0.18856 0.0
H5222 H 0.77656 0.80331 0.15267 0.0
H5223 H 0.76696 0.77555 0.14605 0.0
C5224 C 0.78353 0.70771 0.10132 0.0
C5225 C 0.77408 0.71187 0.0888 0.0
C5226 C 0.78364 0.71412 0.11714 0.0
C5227 C 0.7744 0.72495 0.12086 0.0
C5228 C 0.76546 0.72962 0.10831 0.0
C5229 C 0.76519 0.72306 0.09249 0.0
C5230 C 0.77347 0.73071 0.1379 0.0
C5231 C 0.77775 0.74644 0.14302 0.0
C5232 C 0.76866 0.72061 0.14918 0.0
C5233 C 0.76292 0.70404 0.14428 0.0
C5234 C 0.75067 0.69917 0.13211 0.0
C5235 C 0.74555 0.68355 0.12719 0.0
C5236 C 0.7525 0.67267 0.13446 0.0
C5237 C 0.76454 0.6774 0.14671 0.0
C5238 C 0.76974 0.69302 0.15164 0.0
C5239 C 0.76456 0.7639 0.20906 0.0
C5240 C 0.77179 0.75673 0.221 0.0
C5241 C 0.76499 0.75928 0.19273 0.0
C5242 C 0.77283 0.7475 0.18791 0.0
C5243 C 0.78008 0.7404 0.19984 0.0
C5244 C 0.77957 0.74493 0.21608 0.0
C5245 C 0.77321 0.74215 0.17055 0.0
C5246 C 0.76878 0.72639 0.1653 0.0
C5247 C 0.77776 0.75229 0.15914 0.0
C5248 C 0.78316 0.76896 0.16363 0.0
C5249 C 0.79546 0.77442 0.17561 0.0
C5250 C 0.80077 0.79019 0.17933 0.0
C5251 C 0.79397 0.80058 0.17104 0.0
C5252 C 0.78179 0.79524 0.15909 0.0
C5253 C 0.7764 0.77951 0.15537 0.0
H5254 H 0.79812 0.81277 0.17376 0.0
H5255 H 0.74853 0.66058 0.13063 0.0
H5256 H 0.10435 0.03375 0.68625 0.0
H5257 H 0.09279 0.03295 0.65883 0.0
H5258 H 0.05025 0.00782 0.67095 0.0
H5259 H 0.06205 0.00821 0.69853 0.0
H5260 H 0.05456 0.99701 0.64192 0.0
H5261 H 0.0548 0.04699 0.66664 0.0
H5262 H 0.06564 0.07157 0.68297 0.0
H5263 H 0.09875 0.08196 0.6499 0.0
H5264 H 0.0882 0.05735 0.63345 0.0
H5265 H 0.01455 0.0173 0.56995 0.0
H5266 H 0.0228 0.016 0.59837 0.0
H5267 H 0.06999 0.02943 0.58988 0.0
H5268 H 0.06181 0.03015 0.56144 0.0
H5269 H 0.06055 0.04607 0.61772 0.0
H5270 H 0.05828 0.9941 0.59307 0.0
H5271 H 0.04471 0.97018 0.57714 0.0
H5272 H 0.01185 0.96422 0.61117 0.0
H5273 H 0.0251 0.98826 0.62718 0.0
C5274 C 0.0925 0.0281 0.68314 0.0
C5275 C 0.08407 0.02126 0.69469 0.0
C5276 C 0.08587 0.02766 0.6674 0.0
C5277 C 0.07047 0.02066 0.66276 0.0
C5278 C 0.06211 0.01338 0.67415 0.0
C5279 C 0.06886 0.01363 0.68994 0.0
C5280 C 0.06324 0.02136 0.64614 0.0
C5281 C 0.05569 0.00779 0.63675 0.0
C5282 C 0.06455 0.03537 0.63921 0.0
C5283 C 0.07076 0.05031 0.64887 0.0
C5284 C 0.06443 0.0545 0.66289 0.0
C5285 C 0.07052 0.06843 0.67216 0.0
C5286 C 0.08289 0.07831 0.66749 0.0
C5287 C 0.08916 0.0743 0.6535 0.0
C5288 C 0.08311 0.06038 0.64417 0.0
C5289 C 0.02666 0.02003 0.57422 0.0
C5290 C 0.03756 0.0238 0.56353 0.0
C5291 C 0.03137 0.01922 0.59041 0.0
C5292 C 0.04704 0.02254 0.59628 0.0
C5293 C 0.05786 0.02675 0.58566 0.0
C5294 C 0.05319 0.02714 0.56942 0.0
C5295 C 0.05225 0.02174 0.61346 0.0
C5296 C 0.05937 0.03533 0.62296 0.0
C5297 C 0.05017 0.00781 0.62053 0.0
C5298 C 0.04254 0.99311 0.61119 0.0
C5299 C 0.04809 0.98776 0.59709 0.0
C5300 C 0.04045 0.97417 0.58805 0.0
C5301 C 0.02733 0.96576 0.59307 0.0
C5302 C 0.02196 0.9708 0.60726 0.0
C5303 C 0.02953 0.9844 0.61632 0.0
H5304 H 0.0213 0.95536 0.58597 0.0
H5305 H 0.0876 0.08908 0.67469 0.0
H5306 H 0.75854 0.37299 0.41247 0.0
H5307 H 0.75658 0.35585 0.38778 0.0
H5308 H 0.78957 0.33183 0.40987 0.0
H5309 H 0.79131 0.34866 0.43481 0.0
H5310 H 0.79621 0.34454 0.38022 0.0
H5311 H 0.75604 0.31367 0.40399 0.0
H5312 H 0.73219 0.30899 0.41684 0.0
H5313 H 0.70715 0.32178 0.37589 0.0
H5314 H 0.73092 0.32681 0.36291 0.0
H5315 H 0.7917 0.28403 0.31961 0.0
H5316 H 0.79218 0.2997 0.34493 0.0
H5317 H 0.75388 0.31848 0.3253 0.0
H5318 H 0.75294 0.30247 0.3001 0.0
H5319 H 0.7499 0.30841 0.35384 0.0
H5320 H 0.78822 0.34349 0.33204 0.0
H5321 H 0.81137 0.35141 0.31872 0.0
H5322 H 0.83841 0.33271 0.35396 0.0
H5323 H 0.81545 0.32502 0.36769 0.0
C5324 C 0.76509 0.36382 0.41214 0.0
C5325 C 0.7751 0.36204 0.42535 0.0
C5326 C 0.76398 0.35415 0.39813 0.0
C5327 C 0.77291 0.34273 0.39733 0.0
C5328 C 0.78265 0.34068 0.41055 0.0
C5329 C 0.78368 0.35027 0.42461 0.0
C5330 C 0.77292 0.33373 0.3822 0.0
C5331 C 0.78621 0.33642 0.37451 0.0
C5332 C 0.75958 0.32378 0.37475 0.0
C5333 C 0.74529 0.32077 0.38256 0.0
C5334 C 0.74548 0.31564 0.3978 0.0
C5335 C 0.73197 0.3129 0.40509 0.0
C5336 C 0.71817 0.31513 0.39721 0.0
C5337 C 0.71785 0.32008 0.382 0.0
C5338 C 0.73134 0.32288 0.37467 0.0
C5339 C 0.78328 0.29137 0.32079 0.0
C5340 C 0.77221 0.29206 0.3081 0.0
C5341 C 0.78373 0.30043 0.33508 0.0
C5342 C 0.77323 0.31029 0.33664 0.0
C5343 C 0.76211 0.31094 0.32406 0.0
C5344 C 0.76158 0.30182 0.3098 0.0
C5345 C 0.7732 0.31917 0.35187 0.0
C5346 C 0.75992 0.31649 0.35957 0.0
C5347 C 0.78642 0.32939 0.35919 0.0
C5348 C 0.80015 0.33359 0.35079 0.0
C5349 C 0.7991 0.34101 0.33689 0.0
C5350 C 0.8122 0.34556 0.32934 0.0
C5351 C 0.82634 0.34251 0.33545 0.0
C5352 C 0.82745 0.33505 0.34923 0.0
C5353 C 0.81443 0.3307 0.35697 0.0
H5354 H 0.83644 0.34594 0.32952 0.0
H5355 H 0.70772 0.31298 0.40287 0.0
H5356 H 0.40786 0.02132 0.20038 0.0
H5357 H 0.42159 0.02253 0.17662 0.0
H5358 H 0.45612 1.00074 0.19947 0.0
H5359 H 0.44226 0.99938 0.22327 0.0
H5360 H 0.4673 0.02833 0.1855 0.0
H5361 H 0.43307 0.9798 0.17318 0.0
H5362 H 0.40789 0.96254 0.17023 0.0
H5363 H 0.39097 0.98826 0.13425 0.0
H5364 H 0.41602 0.00585 0.13718 0.0
H5365 H 0.50271 0.99462 0.12471 0.0
H5366 H 0.49132 0.00526 0.1473 0.0
H5367 H 0.45783 0.01988 0.11482 0.0
H5368 H 0.4689 0.0088 0.09215 0.0
H5369 H 0.44484 0.99996 0.13294 0.0
H5370 H 0.48145 0.04701 0.1438 0.0
H5371 H 0.50697 0.06379 0.148 0.0
H5372 H 0.52019 0.03968 0.18715 0.0
H5373 H 0.4948 0.02273 0.18314 0.0
C5374 C 0.41837 0.01678 0.20022 0.0
C5375 C 0.42418 0.01032 0.21341 0.0
C5376 C 0.42613 0.01745 0.18676 0.0
C5377 C 0.43978 0.01177 0.1865 0.0
C5378 C 0.44558 0.00522 0.19966 0.0
C5379 C 0.4377 0.00436 0.21308 0.0
C5380 C 0.44803 0.01273 0.17241 0.0
C5381 C 0.46253 0.02209 0.17397 0.0
C5382 C 0.44138 0.00491 0.15747 0.0
C5383 C 0.42635 0.99426 0.15554 0.0
C5384 C 0.42394 0.98187 0.16475 0.0
C5385 C 0.4097 0.97201 0.16306 0.0
C5386 C 0.39782 0.97433 0.1521 0.0
C5387 C 0.40018 0.98649 0.14276 0.0
C5388 C 0.4144 0.99641 0.14442 0.0
C5389 C 0.4931 1.00036 0.12243 0.0
C5390 C 0.48642 1.00056 0.10678 0.0
C5391 C 0.48678 0.0067 0.13531 0.0
C5392 C 0.47376 0.01337 0.13269 0.0
C5393 C 0.46793 0.01483 0.11703 0.0
C5394 C 0.47424 0.00846 0.10413 0.0
C5395 C 0.46445 0.01545 0.14591 0.0
C5396 C 0.4496 0.00657 0.14429 0.0
C5397 C 0.47089 0.02356 0.16084 0.0
C5398 C 0.48627 0.03355 0.16309 0.0
C5399 C 0.48985 0.04521 0.15322 0.0
C5400 C 0.50427 0.05479 0.1556 0.0
C5401 C 0.5152 0.05279 0.16782 0.0
C5402 C 0.51172 0.04123 0.1777 0.0
C5403 C 0.49731 0.03166 0.1754 0.0
H5404 H 0.52636 0.06021 0.16963 0.0
H5405 H 0.3868 0.96669 0.15081 0.0
H5406 H 0.7719 0.68426 0.91636 0.0
H5407 H 0.77306 0.69531 0.89095 0.0
H5408 H 0.77373 0.74015 0.91553 0.0
H5409 H 0.77172 0.72888 0.94085 0.0
H5410 H 0.75587 0.73677 0.88885 0.0
H5411 H 0.80741 0.72723 0.90202 0.0
H5412 H 0.82618 0.71088 0.90895 0.0
H5413 H 0.81012 0.68099 0.86557 0.0
H5414 H 0.79119 0.69709 0.85847 0.0
H5415 H 0.77124 0.77716 0.82396 0.0
H5416 H 0.77457 0.76809 0.84991 0.0
H5417 H 0.78118 0.72456 0.82741 0.0
H5418 H 0.78159 0.73503 0.80179 0.0
H5419 H 0.79552 0.72737 0.85358 0.0
H5420 H 0.74414 0.73632 0.83975 0.0
H5421 H 0.72796 0.75422 0.83057 0.0
H5422 H 0.74216 0.78389 0.87442 0.0
H5423 H 0.75918 0.76659 0.88345 0.0
C5424 C 0.77234 0.69648 0.9163 0.0
C5425 C 0.77183 0.70575 0.93054 0.0
C5426 C 0.77309 0.70282 0.90179 0.0
C5427 C 0.77386 0.71867 0.90128 0.0
C5428 C 0.77322 0.72792 0.91555 0.0
C5429 C 0.77211 0.7215 0.93002 0.0
C5430 C 0.77512 0.72556 0.88589 0.0
C5431 C 0.76463 0.7348 0.88122 0.0
C5432 C 0.78628 0.72277 0.87562 0.0
C5433 C 0.79785 0.7133 0.87977 0.0
C5434 C 0.80787 0.71714 0.89399 0.0
C5435 C 0.81853 0.70792 0.89795 0.0
C5436 C 0.81933 0.69489 0.88772 0.0
C5437 C 0.8095 0.69109 0.87348 0.0
C5438 C 0.79883 0.70027 0.86947 0.0
C5439 C 0.7741 0.7659 0.82453 0.0
C5440 C 0.77653 0.75704 0.81068 0.0
C5441 C 0.77551 0.76048 0.83947 0.0
C5442 C 0.77731 0.74526 0.84079 0.0
C5443 C 0.77965 0.7363 0.82693 0.0
C5444 C 0.77967 0.74226 0.81216 0.0
C5445 C 0.77616 0.73851 0.85636 0.0
C5446 C 0.78666 0.72928 0.86111 0.0
C5447 C 0.76481 0.74106 0.86656 0.0
C5448 C 0.75298 0.75021 0.86222 0.0
C5449 C 0.74367 0.74657 0.84751 0.0
C5450 C 0.73449 0.75671 0.84226 0.0
C5451 C 0.73399 0.77018 0.85193 0.0
C5452 C 0.74258 0.77347 0.86694 0.0
C5453 C 0.75207 0.76354 0.87209 0.0
H5454 H 0.72694 0.77808 0.8478 0.0
H5455 H 0.82757 0.68776 0.89081 0.0
H5456 H 0.84092 0.10211 0.05042 0.0
H5457 H 0.86485 0.09267 0.04812 0.0
H5458 H 0.8405 0.05391 0.01565 0.0
H5459 H 0.81644 0.06343 0.01784 0.0
H5460 H 0.86217 0.0475 0.04051 0.0
H5461 H 0.85703 0.07995 -0.00076 0.0
H5462 H 0.85287 0.10337 0.98748 0.0
H5463 H 0.89299 0.12917 0.01626 0.0
H5464 H 0.89721 0.10594 0.02845 0.0
H5465 H 0.91596 0.02643 0.99115 0.0
H5466 H 0.89519 0.0327 0.006 0.0
H5467 H 0.92629 0.07147 0.0325 0.0
H5468 H 0.94714 0.0651 0.01757 0.0
H5469 H 0.90245 0.079 0.01464 0.0
H5470 H 0.90793 0.04366 0.05383 0.0
H5471 H 0.91013 0.01919 0.06452 0.0
H5472 H 0.868 0.99725 0.03643 0.0
H5473 H 0.86559 0.02154 0.02555 0.0
C5474 C 0.8407 0.0914 0.04311 0.0
C5475 C 0.82711 0.0833 0.03438 0.0
C5476 C 0.85426 0.08614 0.04173 0.0
C5477 C 0.85419 0.07276 0.03168 0.0
C5478 C 0.84052 0.06428 0.02345 0.0
C5479 C 0.82695 0.06965 0.02469 0.0
C5480 C 0.86859 0.06799 0.02928 0.0
C5481 C 0.87104 0.05425 0.03478 0.0
C5482 C 0.87996 0.07717 0.02209 0.0
C5483 C 0.87729 0.09124 0.01497 0.0
C5484 C 0.86484 0.09066 0.00325 0.0
C5485 C 0.8625 0.10389 0.99646 0.0
C5486 C 0.87262 0.11777 0.00117 0.0
C5487 C 0.88512 0.11843 0.01267 0.0
C5488 C 0.88749 0.10523 0.01953 0.0
C5489 C 0.91827 0.03622 0.00023 0.0
C5490 C 0.93274 0.0457 0.00297 0.0
C5491 C 0.90659 0.03956 0.00894 0.0
C5492 C 0.90936 0.05243 0.0204 0.0
C5493 C 0.9241 0.06139 0.02378 0.0
C5494 C 0.93584 0.05796 0.01515 0.0
C5495 C 0.89623 0.05833 0.02585 0.0
C5496 C 0.89386 0.07235 0.02077 0.0
C5497 C 0.88476 0.04918 0.03303 0.0
C5498 C 0.88668 0.03437 0.03878 0.0
C5499 C 0.89926 0.03355 0.04978 0.0
C5500 C 0.90049 0.01974 0.05593 0.0
C5501 C 0.88923 0.00667 0.05113 0.0
C5502 C 0.87672 0.00737 0.04014 0.0
C5503 C 0.87541 0.02116 0.034 0.0
H5504 H 0.89019 0.996 0.05595 0.0
H5505 H 0.87082 0.12799 0.99587 0.0
H5506 H 0.37308 0.41717 0.04698 0.0
H5507 H 0.39863 0.43247 0.04642 0.0
H5508 H 0.37854 0.46541 0.02137 0.0
H5509 H 0.35301 0.45009 0.02175 0.0
H5510 H 0.40154 0.45819 0.00704 0.0
H5511 H 0.39518 0.4725 0.06269 0.0
H5512 H 0.39027 0.46703 0.09002 0.0
H5513 H 0.42845 0.44359 0.09337 0.0
H5514 H 0.4335 0.44882 0.06602 0.0
H5515 H 0.46902 0.5134 0.00732 0.0
H5516 H 0.44352 0.49985 0.01099 0.0
H5517 H 0.46387 0.47089 0.04152 0.0
H5518 H 0.48931 0.48516 0.03887 0.0
H5519 H 0.44067 0.47599 0.0537 0.0
H5520 H 0.4474 0.45909 0.00044 0.0
H5521 H 0.45185 0.45908 0.97208 0.0
H5522 H 0.41393 0.48209 0.96315 0.0
H5523 H 0.40938 0.48245 0.9915 0.0
C5524 C 0.37407 0.4278 0.04158 0.0
C5525 C 0.36093 0.43232 0.03435 0.0
C5526 C 0.38873 0.43659 0.04129 0.0
C5527 C 0.39062 0.45025 0.03398 0.0
C5528 C 0.37748 0.45493 0.02706 0.0
C5529 C 0.36285 0.44611 0.02724 0.0
C5530 C 0.40625 0.45918 0.03257 0.0
C5531 C 0.40999 0.46236 0.0173 0.0
C5532 C 0.41763 0.46397 0.0458 0.0
C5533 C 0.41465 0.46096 0.06228 0.0
C5534 C 0.40247 0.46611 0.06923 0.0
C5535 C 0.39968 0.46307 0.08473 0.0
C5536 C 0.40902 0.45495 0.09341 0.0
C5537 C 0.42122 0.44988 0.08664 0.0
C5538 C 0.42407 0.45291 0.07115 0.0
C5539 C 0.46809 0.50438 0.0151 0.0
C5540 C 0.48133 0.50062 0.02301 0.0
C5541 C 0.45343 0.49639 0.01697 0.0
C5542 C 0.45158 0.48409 0.02638 0.0
C5543 C 0.46481 0.48033 0.03425 0.0
C5544 C 0.47944 0.4885 0.03265 0.0
C5545 C 0.43596 0.47521 0.02811 0.0
C5546 C 0.43222 0.47199 0.04342 0.0
C5547 C 0.42468 0.46995 0.01484 0.0
C5548 C 0.42814 0.47091 0.99812 0.0
C5549 C 0.44018 0.46439 0.99249 0.0
C5550 C 0.44269 0.46427 0.97641 0.0
C5551 C 0.43318 0.47055 0.96584 0.0
C5552 C 0.42129 0.47722 0.97135 0.0
C5553 C 0.41875 0.47739 0.98743 0.0
H5554 H 0.43496 0.47009 0.95334 0.0
H5555 H 0.40683 0.45259 0.1054 0.0
H5556 H 0.38604 0.59388 0.74014 0.0
H5557 H 0.37269 0.61577 0.74137 0.0
H5558 H 0.34366 0.59451 0.77422 0.0
H5559 H 0.35702 0.5727 0.77314 0.0
H5560 H 0.32752 0.60593 0.74908 0.0
H5561 H 0.37117 0.62235 0.78856 0.0
H5562 H 0.39864 0.62811 0.79869 0.0
H5563 H 0.40684 0.66156 0.76556 0.0
H5564 H 0.37943 0.65579 0.75503 0.0
H5565 H 0.29584 0.66412 0.78762 0.0
H5566 H 0.30784 0.64312 0.77781 0.0
H5567 H 0.33814 0.67429 0.75364 0.0
H5568 H 0.32634 0.69562 0.76412 0.0
H5569 H 0.35425 0.65849 0.77056 0.0
H5570 H 0.30959 0.64328 0.73254 0.0
H5571 H 0.28187 0.63755 0.7234 0.0
H5572 H 0.27539 0.60195 0.75437 0.0
H5573 H 0.30304 0.60755 0.76379 0.0
C5574 C 0.37676 0.59387 0.74757 0.0
C5575 C 0.37258 0.58158 0.75657 0.0
C5576 C 0.36921 0.6064 0.74832 0.0
C5577 C 0.35721 0.60679 0.75793 0.0
C5578 C 0.35289 0.59445 0.76674 0.0
C5579 C 0.36058 0.58204 0.76618 0.0
C5580 C 0.34911 0.62003 0.75884 0.0
C5581 C 0.33334 0.61742 0.75383 0.0
C5582 C 0.35679 0.6351 0.76463 0.0
C5583 C 0.37329 0.63847 0.77084 0.0
C5584 C 0.37886 0.63079 0.78329 0.0
C5585 C 0.39441 0.63409 0.78914 0.0
C5586 C 0.40449 0.64515 0.78273 0.0
C5587 C 0.39903 0.65296 0.77048 0.0
C5588 C 0.38349 0.64968 0.76456 0.0
C5589 C 0.30472 0.6664 0.77977 0.0
C5590 C 0.3101 0.68145 0.77655 0.0
C5591 C 0.31159 0.65435 0.77411 0.0
C5592 C 0.32386 0.65698 0.76481 0.0
C5593 C 0.32867 0.67192 0.76075 0.0
C5594 C 0.32182 0.68407 0.76656 0.0
C5595 C 0.33252 0.64443 0.76091 0.0
C5596 C 0.34843 0.64711 0.76544 0.0
C5597 C 0.32497 0.6294 0.75468 0.0
C5598 C 0.30837 0.62587 0.74889 0.0
C5599 C 0.30224 0.63427 0.73744 0.0
C5600 C 0.28654 0.63103 0.7322 0.0
C5601 C 0.27688 0.6194 0.73831 0.0
C5602 C 0.28289 0.61094 0.74963 0.0
C5603 C 0.29858 0.61411 0.75489 0.0
H5604 H 0.26472 0.61693 0.73426 0.0
H5605 H 0.41653 0.6477 0.78729 0.0
H5606 H 0.18197 0.58625 0.54931 0.0
H5607 H 0.15491 0.57487 0.54557 0.0
H5608 H 0.16179 0.54621 0.50382 0.0
H5609 H 0.18928 0.55714 0.50783 0.0
H5610 H 0.13862 0.56638 0.50036 0.0
H5611 H 0.15385 0.52838 0.53204 0.0
H5612 H 0.16837 0.52039 0.55504 0.0
H5613 H 0.14363 0.54408 0.5873 0.0
H5614 H 0.12914 0.55247 0.5645 0.0
H5615 H 0.06226 0.5211 0.49814 0.0
H5616 H 0.08923 0.5314 0.496 0.0
H5617 H 0.09108 0.56206 0.53913 0.0
H5618 H 0.06396 0.55214 0.54092 0.0
H5619 H 0.11001 0.53849 0.53971 0.0
H5620 H 0.09588 0.5776 0.5101 0.0
H5621 H 0.08109 0.58708 0.48836 0.0
H5622 H 0.10439 0.5645 0.45375 0.0
H5623 H 0.11859 0.55398 0.47523 0.0
C5624 C 0.17789 0.57713 0.53968 0.0
C5625 C 0.18766 0.5725 0.52885 0.0
C5626 C 0.16244 0.57079 0.53748 0.0
C5627 C 0.15663 0.55985 0.52442 0.0
C5628 C 0.16632 0.55473 0.51391 0.0
C5629 C 0.18188 0.56095 0.51621 0.0
C5630 C 0.14018 0.55459 0.52146 0.0
C5631 C 0.13227 0.55992 0.50865 0.0
C5632 C 0.13225 0.54673 0.53278 0.0
C5633 C 0.14044 0.54111 0.54653 0.0
C5634 C 0.15153 0.53194 0.54404 0.0
C5635 C 0.15977 0.52734 0.55705 0.0
C5636 C 0.15693 0.53173 0.57262 0.0
C5637 C 0.1458 0.54067 0.57522 0.0
C5638 C 0.13755 0.54533 0.56225 0.0
C5639 C 0.06822 0.53072 0.50649 0.0
C5640 C 0.06131 0.53622 0.51946 0.0
C5641 C 0.08355 0.5364 0.50541 0.0
C5642 C 0.09186 0.5473 0.5175 0.0
C5643 C 0.08461 0.55363 0.52977 0.0
C5644 C 0.06926 0.5481 0.53071 0.0
C5645 C 0.10845 0.55037 0.51868 0.0
C5646 C 0.11634 0.54465 0.5312 0.0
C5647 C 0.11632 0.55808 0.50725 0.0
C5648 C 0.10812 0.56474 0.49429 0.0
C5649 C 0.09764 0.57438 0.49784 0.0
C5650 C 0.0893 0.57989 0.48555 0.0
C5651 C 0.09162 0.5762 0.46965 0.0
C5652 C 0.10239 0.5671 0.46605 0.0
C5653 C 0.11055 0.5613 0.47827 0.0
H5654 H 0.08517 0.5805 0.46014 0.0
H5655 H 0.16336 0.5282 0.58268 0.0
H5656 H 0.73037 0.97665 0.76611 0.0
H5657 H 0.73995 0.95257 0.7676 0.0
H5658 H 0.70343 0.92961 0.7317 0.0
H5659 H 0.69383 0.95355 0.7302 0.0
H5660 H 0.70607 0.91687 0.76176 0.0
H5661 H 0.73636 0.93488 0.72049 0.0
H5662 H 0.75372 0.95542 0.71011 0.0
H5663 H 0.78789 0.95576 0.74955 0.0
H5664 H 0.7706 0.93539 0.76034 0.0
H5665 H 0.72801 0.84616 0.76592 0.0
H5666 H 0.72169 0.86775 0.75219 0.0
H5667 H 0.762 0.89728 0.77779 0.0
H5668 H 0.76854 0.87559 0.79094 0.0
H5669 H 0.75677 0.90608 0.74938 0.0
H5670 H 0.7277 0.89191 0.79258 0.0
H5671 H 0.7103 0.87515 0.80729 0.0
H5672 H 0.67406 0.87138 0.76908 0.0
H5673 H 0.69141 0.88769 0.7539 0.0
C5674 C 0.72464 0.96647 0.75839 0.0
C5675 C 0.71152 0.96674 0.74798 0.0
C5676 C 0.73008 0.95287 0.75919 0.0
C5677 C 0.72235 0.93956 0.74965 0.0
C5678 C 0.70949 0.93993 0.73899 0.0
C5679 C 0.70413 0.95352 0.73808 0.0
C5680 C 0.72693 0.92493 0.75175 0.0
C5681 C 0.71696 0.91424 0.75871 0.0
C5682 C 0.74138 0.92211 0.74825 0.0
C5683 C 0.75219 0.93358 0.74121 0.0
C5684 C 0.74759 0.93931 0.72694 0.0
C5685 C 0.75739 0.95096 0.721 0.0
C5686 C 0.7719 0.95689 0.72916 0.0
C5687 C 0.77666 0.95113 0.74323 0.0
C5688 C 0.76687 0.9395 0.74924 0.0
C5689 C 0.73556 0.85725 0.7683 0.0
C5690 C 0.74847 0.85958 0.77963 0.0
C5691 C 0.73204 0.86947 0.76047 0.0
C5692 C 0.74124 0.8841 0.76427 0.0
C5693 C 0.75476 0.88607 0.77475 0.0
C5694 C 0.75838 0.87382 0.78239 0.0
C5695 C 0.73579 0.89771 0.75928 0.0
C5696 C 0.74565 0.90839 0.75198 0.0
C5697 C 0.72133 0.90076 0.76288 0.0
C5698 C 0.71096 0.89076 0.77195 0.0
C5699 C 0.71609 0.88732 0.7872 0.0
C5700 C 0.70623 0.87789 0.79563 0.0
C5701 C 0.69111 0.8721 0.78907 0.0
C5702 C 0.68581 0.87575 0.77409 0.0
C5703 C 0.69567 0.88504 0.76554 0.0
H5704 H 0.68347 0.86484 0.79563 0.0
H5705 H 0.77946 0.96594 0.72458 0.0
H5706 H 0.72104 0.93779 0.54899 0.0
H5707 H 0.69882 0.95055 0.54775 0.0
H5708 H 0.67903 0.92119 0.50475 0.0
H5709 H 0.70083 0.90805 0.50614 0.0
H5710 H 0.67942 0.95157 0.50165 0.0
H5711 H 0.66433 0.9157 0.53884 0.0
H5712 H 0.66718 0.90305 0.56338 0.0
H5713 H 0.66991 0.94605 0.59203 0.0
H5714 H 0.6673 0.959 0.56762 0.0
H5715 H 0.60499 0.96351 0.48807 0.0
H5716 H 0.62539 0.95002 0.49699 0.0
H5717 H 0.64133 0.98571 0.53601 0.0
H5718 H 0.62068 0.99918 0.52714 0.0
H5719 H 0.6439 0.95429 0.54329 0.0
H5720 H 0.65825 0.98993 0.50574 0.0
H5721 H 0.65473 1.00209 0.48096 0.0
H5722 H 0.65344 0.95905 0.45293 0.0
H5723 H 0.65666 0.94656 0.47757 0.0
C5724 C 0.71186 0.93386 0.5394 0.0
C5725 C 0.71287 0.92191 0.52759 0.0
C5726 C 0.69917 0.94121 0.5387 0.0
C5727 C 0.68725 0.93682 0.52616 0.0
C5728 C 0.68814 0.92484 0.51448 0.0
C5729 C 0.70071 0.91741 0.51524 0.0
C5730 C 0.67412 0.94506 0.52468 0.0
C5731 C 0.67161 0.95203 0.51072 0.0
C5732 C 0.66416 0.94607 0.53671 0.0
C5733 C 0.66582 0.93836 0.5514 0.0
C5734 C 0.66571 0.92249 0.55037 0.0
C5735 C 0.66724 0.91526 0.56425 0.0
C5736 C 0.66878 0.92375 0.57926 0.0
C5737 C 0.66875 0.93949 0.5804 0.0
C5738 C 0.66724 0.94679 0.56654 0.0
C5739 C 0.61258 0.96822 0.49882 0.0
C5740 C 0.61134 0.98235 0.50693 0.0
C5741 C 0.62423 0.96055 0.50389 0.0
C5742 C 0.63499 0.96697 0.51704 0.0
C5743 C 0.63312 0.98054 0.52587 0.0
C5744 C 0.62135 0.98821 0.52082 0.0
C5745 C 0.64909 0.96044 0.52011 0.0
C5746 C 0.65183 0.9539 0.53433 0.0
C5747 C 0.65934 0.9598 0.50834 0.0
C5748 C 0.65756 0.96729 0.4935 0.0
C5749 C 0.65708 0.98303 0.49429 0.0
C5750 C 0.65516 0.98998 0.48027 0.0
C5751 C 0.65383 0.98134 0.46538 0.0
C5752 C 0.65445 0.96572 0.46448 0.0
C5753 C 0.65633 0.95871 0.47846 0.0
H5754 H 0.65236 0.98674 0.45454 0.0
H5755 H 0.66995 0.91813 0.58999 0.0
H5756 H 0.38255 0.42238 0.74906 0.0
H5757 H 0.36732 0.3969 0.75036 0.0
H5758 H 0.32631 0.41648 0.75069 0.0
H5759 H 0.34178 0.44208 0.75035 0.0
H5760 H 0.32556 0.39733 0.77147 0.0
H5761 H 0.33665 0.3933 0.71595 0.0
H5762 H 0.35407 0.39483 0.69486 0.0
H5763 H 0.37741 0.36183 0.7155 0.0
H5764 H 0.36018 0.36018 0.73674 0.0
H5765 H 0.27424 0.32624 0.76461 0.0
H5766 H 0.28755 0.35136 0.7599 0.0
H5767 H 0.3281 0.33252 0.75236 0.0
H5768 H 0.31413 0.30719 0.75444 0.0
H5769 H 0.32872 0.35177 0.73445 0.0
H5770 H 0.31996 0.35603 0.79034 0.0
H5771 H 0.30393 0.35427 0.81263 0.0
H5772 H 0.27852 0.3865 0.79353 0.0
H5773 H 0.29433 0.38835 0.77108 0.0
C5774 C 0.37026 0.42116 0.74926 0.0
C5775 C 0.3633 0.43413 0.74949 0.0
C5776 C 0.36151 0.40657 0.74991 0.0
C5777 C 0.34551 0.40457 0.75031 0.0
C5778 C 0.33858 0.41761 0.75037 0.0
C5779 C 0.34739 0.43223 0.7501 0.0
C5780 C 0.33606 0.38908 0.75127 0.0
C5781 C 0.32612 0.38741 0.76323 0.0
C5782 C 0.33705 0.37591 0.74092 0.0
C5783 C 0.34717 0.37667 0.72795 0.0
C5784 C 0.34551 0.3864 0.71599 0.0
C5785 C 0.35535 0.38728 0.70401 0.0
C5786 C 0.36685 0.37844 0.70385 0.0
C5787 C 0.3685 0.36866 0.71563 0.0
C5788 C 0.35867 0.36771 0.7276 0.0
C5789 C 0.28575 0.32725 0.7614 0.0
C5790 C 0.29278 0.31434 0.75972 0.0
C5791 C 0.29364 0.34187 0.75915 0.0
C5792 C 0.30916 0.34421 0.7562 0.0
C5793 C 0.31619 0.33132 0.75456 0.0
C5794 C 0.30809 0.31667 0.75597 0.0
C5795 C 0.31821 0.35989 0.7548 0.0
C5796 C 0.3281 0.36163 0.74275 0.0
C5797 C 0.31744 0.37307 0.7653 0.0
C5798 C 0.30824 0.37224 0.779 0.0
C5799 C 0.31094 0.36272 0.79091 0.0
C5800 C 0.30189 0.3617 0.80356 0.0
C5801 C 0.2902 0.37024 0.80448 0.0
C5802 C 0.28758 0.37988 0.7928 0.0
C5803 C 0.29659 0.38095 0.78013 0.0
H5804 H 0.28318 0.36941 0.81426 0.0
H5805 H 0.37448 0.37917 0.6946 0.0
H5806 H 0.2245 0.60854 0.28172 0.0
H5807 H 0.2352 0.63543 0.28484 0.0
H5808 H 0.22987 0.63577 0.23355 0.0
H5809 H 0.22196 0.6082 0.23008 0.0
H5810 H 0.25322 0.65357 0.24429 0.0
H5811 H 0.20232 0.64608 0.26097 0.0
H5812 H 0.18139 0.6365 0.2767 0.0
H5813 H 0.20868 0.65834 0.31999 0.0
H5814 H 0.22982 0.66789 0.30455 0.0
H5815 H 0.24347 0.73015 0.24231 0.0
H5816 H 0.23469 0.70273 0.24362 0.0
H5817 H 0.26536 0.70512 0.28683 0.0
H5818 H 0.27478 0.73235 0.28503 0.0
H5819 H 0.23034 0.68682 0.28193 0.0
H5820 H 0.2811 0.69406 0.26241 0.0
H5821 H 0.3013 0.70118 0.24497 0.0
H5822 H 0.27079 0.67921 0.2038 0.0
H5823 H 0.25032 0.67222 0.22096 0.0
C5824 C 0.22625 0.614 0.27098 0.0
C5825 C 0.22203 0.60605 0.25555 0.0
C5826 C 0.23194 0.62957 0.27288 0.0
C5827 C 0.23255 0.6376 0.25949 0.0
C5828 C 0.22917 0.62972 0.24408 0.0
C5829 C 0.22439 0.61397 0.24213 0.0
C5830 C 0.23686 0.65426 0.26149 0.0
C5831 C 0.24799 0.66082 0.25232 0.0
C5832 C 0.23029 0.66362 0.27232 0.0
C5833 C 0.2177 0.65754 0.28162 0.0
C5834 C 0.2039 0.6487 0.27386 0.0
C5835 C 0.19199 0.64331 0.28272 0.0
C5836 C 0.19372 0.64677 0.29934 0.0
C5837 C 0.20736 0.65564 0.30713 0.0
C5838 C 0.2193 0.66104 0.29833 0.0
C5839 C 0.24778 0.72486 0.25241 0.0
C5840 C 0.25931 0.73309 0.26389 0.0
C5841 C 0.24295 0.70935 0.25304 0.0
C5842 C 0.24965 0.70227 0.26519 0.0
C5843 C 0.26022 0.71072 0.27744 0.0
C5844 C 0.26529 0.72619 0.27663 0.0
C5845 C 0.24625 0.68583 0.26443 0.0
C5846 C 0.23538 0.6794 0.27387 0.0
C5847 C 0.2526 0.6766 0.25342 0.0
C5848 C 0.26411 0.68281 0.24297 0.0
C5849 C 0.27855 0.69114 0.24961 0.0
C5850 C 0.2901 0.69502 0.23978 0.0
C5851 C 0.28734 0.69056 0.22332 0.0
C5852 C 0.27291 0.68262 0.21656 0.0
C5853 C 0.26133 0.67874 0.22632 0.0
H5854 H 0.29644 0.69308 0.21583 0.0
H5855 H 0.18448 0.64261 0.30618 0.0
H5856 H 0.48652 0.6708 0.45472 0.0
H5857 H 0.48888 0.64626 0.46432 0.0
H5858 H 0.52778 0.66848 0.49752 0.0
H5859 H 0.52545 0.69316 0.48805 0.0
H5860 H 0.53439 0.64321 0.48431 0.0
H5861 H 0.49104 0.65174 0.51181 0.0
H5862 H 0.46566 0.65892 0.51359 0.0
H5863 H 0.44575 0.62334 0.47586 0.0
H5864 H 0.47091 0.6157 0.47424 0.0
H5865 H 0.53727 0.57612 0.52536 0.0
H5866 H 0.53475 0.6017 0.51863 0.0
H5867 H 0.49789 0.58168 0.48206 0.0
H5868 H 0.50085 0.55602 0.4883 0.0
H5869 H 0.4905 0.60638 0.4984 0.0
H5870 H 0.53445 0.59671 0.47312 0.0
H5871 H 0.56025 0.59077 0.47102 0.0
H5872 H 0.57998 0.63007 0.50453 0.0
H5873 H 0.55425 0.63609 0.50704 0.0
C5874 C 0.49546 0.67066 0.46427 0.0
C5875 C 0.5058 0.68432 0.47043 0.0
C5876 C 0.4968 0.65643 0.46983 0.0
C5877 C 0.50846 0.65521 0.48188 0.0
C5878 C 0.51869 0.66883 0.48819 0.0
C5879 C 0.51736 0.68307 0.48264 0.0
C5880 C 0.51037 0.63975 0.48732 0.0
C5881 C 0.52481 0.63532 0.48767 0.0
C5882 C 0.49799 0.62905 0.49151 0.0
C5883 C 0.4828 0.63323 0.49285 0.0
C5884 C 0.4812 0.64543 0.50396 0.0
C5885 C 0.46686 0.64953 0.50499 0.0
C5886 C 0.45408 0.64157 0.49487 0.0
C5887 C 0.45561 0.62942 0.48379 0.0
C5888 C 0.46988 0.62512 0.4829 0.0
C5889 C 0.52882 0.57701 0.51569 0.0
C5890 C 0.51957 0.56366 0.50723 0.0
C5891 C 0.5273 0.59182 0.51186 0.0
C5892 C 0.51621 0.59391 0.49962 0.0
C5893 C 0.50662 0.58063 0.49148 0.0
C5894 C 0.50838 0.56582 0.49509 0.0
C5895 C 0.51454 0.60979 0.49532 0.0
C5896 C 0.50013 0.6143 0.49519 0.0
C5897 C 0.52702 0.62063 0.49149 0.0
C5898 C 0.54241 0.61673 0.49043 0.0
C5899 C 0.54427 0.60396 0.48021 0.0
C5900 C 0.55888 0.60061 0.4789 0.0
C5901 C 0.57174 0.61003 0.48765 0.0
C5902 C 0.57 0.62278 0.49778 0.0
C5903 C 0.55541 0.62615 0.49916 0.0
H5904 H 0.58305 0.60748 0.48655 0.0
H5905 H 0.443 0.64482 0.49561 0.0
H5906 H 0.63581 0.30229 0.65226 0.0
H5907 H 0.65963 0.30149 0.66909 0.0
H5908 H 0.63524 0.26622 0.69359 0.0
H5909 H 0.61148 0.26683 0.67668 0.0
H5910 H 0.65533 0.28836 0.71487 0.0
H5911 H 0.65741 0.25706 0.666 0.0
H5912 H 0.65703 0.25128 0.63686 0.0
H5913 H 0.69631 0.28699 0.63714 0.0
H5914 H 0.69676 0.29317 0.66627 0.0
H5915 H 0.71797 0.25967 0.75291 0.0
H5916 H 0.69462 0.26344 0.73738 0.0
H5917 H 0.72181 0.29413 0.71009 0.0
H5918 H 0.74521 0.29066 0.72583 0.0
H5919 H 0.70058 0.27567 0.69027 0.0
H5920 H 0.69894 0.30767 0.73809 0.0
H5921 H 0.69913 0.31541 0.76689 0.0
H5922 H 0.65985 0.28022 0.7686 0.0
H5923 H 0.65937 0.27231 0.73976 0.0
C5924 C 0.63547 0.29441 0.66128 0.0
C5925 C 0.62161 0.28457 0.66296 0.0
C5926 C 0.64918 0.29391 0.6709 0.0
C5927 C 0.64943 0.28371 0.68267 0.0
C5928 C 0.63551 0.27418 0.68465 0.0
C5929 C 0.62188 0.27448 0.67486 0.0
C5930 C 0.66415 0.28272 0.69268 0.0
C5931 C 0.66514 0.28539 0.70946 0.0
C5932 C 0.67728 0.27933 0.6858 0.0
C5933 C 0.677 0.2757 0.66829 0.0
C5934 C 0.66587 0.26379 0.65983 0.0
C5935 C 0.66566 0.26042 0.64331 0.0
C5936 C 0.67662 0.26879 0.63515 0.0
C5937 C 0.68782 0.28054 0.64348 0.0
C5938 C 0.68805 0.28398 0.65999 0.0
C5939 C 0.71905 0.26747 0.74383 0.0
C5940 C 0.73367 0.27499 0.74091 0.0
C5941 C 0.70558 0.26961 0.73486 0.0
C5942 C 0.70621 0.27925 0.72253 0.0
C5943 C 0.72081 0.28665 0.71948 0.0
C5944 C 0.73427 0.28464 0.72856 0.0
C5945 C 0.69177 0.28118 0.71253 0.0
C5946 C 0.69082 0.27868 0.69573 0.0
C5947 C 0.67873 0.28491 0.71939 0.0
C5948 C 0.67922 0.28929 0.73681 0.0
C5949 C 0.69042 0.3015 0.74464 0.0
C5950 C 0.69052 0.30597 0.76094 0.0
C5951 C 0.67955 0.29827 0.76959 0.0
C5952 C 0.66837 0.28615 0.7619 0.0
C5953 C 0.66814 0.2817 0.74556 0.0
H5954 H 0.67969 0.30172 0.78223 0.0
H5955 H 0.67645 0.26614 0.62236 0.0
H5956 H 0.01955 0.35216 0.95046 0.0
H5957 H 0.02101 0.37922 0.95954 0.0
H5958 H 0.00665 0.36724 0.00478 0.0
H5959 H 0.00443 0.33995 0.99531 0.0
H5960 H 0.99369 0.38913 0.99812 0.0
H5961 H 0.04643 0.38537 0.99882 0.0
H5962 H 0.0691 0.3778 0.98797 0.0
H5963 H 0.06401 0.40546 0.94954 0.0
H5964 H 0.04126 0.41313 0.96013 0.0
H5965 H 0.01011 0.4691 0.02989 0.0
H5966 H 0.00944 0.44144 0.02483 0.0
H5967 H 0.02327 0.44738 0.9779 0.0
H5968 H 0.02469 0.47497 0.98325 0.0
H5969 H 0.03778 0.42815 0.98837 0.0
H5970 H 0.98329 0.4304 0.98831 0.0
H5971 H 0.96037 0.43642 -5e-05 0.0
H5972 H 0.96984 0.41113 0.03938 0.0
H5973 H 0.99281 0.40497 0.02795 0.0
C5974 C 0.01682 0.35524 0.96241 0.0
C5975 C 0.01198 0.34371 0.97213 0.0
C5976 C 0.01777 0.37087 0.9677 0.0
C5977 C 0.01436 0.37567 0.98313 0.0
C5978 C 0.00944 0.36412 0.99286 0.0
C5979 C 0.00818 0.34842 0.98742 0.0
C5980 C 0.01556 0.39259 0.9888 0.0
C5981 C 0.00349 0.39758 0.99617 0.0
C5982 C 0.0282 0.40397 0.98636 0.0
C5983 C 0.04211 0.39975 0.98021 0.0
C5984 C 0.05014 0.38981 0.98804 0.0
C5985 C 0.063 0.38551 0.98194 0.0
C5986 C 0.06798 0.39112 0.96806 0.0
C5987 C 0.06015 0.40113 0.9603 0.0
C5988 C 0.0473 0.4055 0.96637 0.0
C5989 C 0.01289 0.4645 0.01845 0.0
C5990 C 0.01742 0.47444 0.00701 0.0
C5991 C 0.01242 0.44854 0.01547 0.0
C5992 C 0.01606 0.4419 0.00079 0.0
C5993 C 0.02043 0.4519 0.98936 0.0
C5994 C 0.02117 0.46782 0.99243 0.0
C5995 C 0.01567 0.42477 0.99723 0.0
C5996 C 0.02799 0.41971 0.99035 0.0
C5997 C 0.00336 0.41333 0.00036 0.0
C5998 C 0.98977 0.41731 0.00734 0.0
C5999 C 0.98051 0.42621 -0.0005 0.0
C6000 C 0.9675 0.42961 0.00604 0.0
C6001 C 0.96364 0.42413 0.02038 0.0
C6002 C 0.97282 0.41532 0.02826 0.0
C6003 C 0.98581 0.41185 0.02174 0.0
H6004 H 0.95351 0.42669 0.02539 0.0
H6005 H 0.0779 0.38773 0.96332 0.0
H6006 H 0.97456 0.80325 0.15924 0.0
H6007 H 0.95166 0.8022 0.17302 0.0
H6008 H 0.94658 0.75302 0.1707 0.0
H6009 H 0.96855 0.75379 0.15566 0.0
H6010 H 0.92022 0.75814 0.16547 0.0
H6011 H 0.96074 0.78146 0.20709 0.0
H6012 H 0.98305 0.80079 0.21946 0.0
H6013 H 0.95656 0.83639 0.2153 0.0
H6014 H 0.93412 0.81727 0.20279 0.0
H6015 H 0.87521 0.74261 0.22862 0.0
H6016 H 0.89858 0.74985 0.21592 0.0
H6017 H 0.88286 0.79023 0.20203 0.0
H6018 H 0.85911 0.78284 0.21459 0.0
H6019 H 0.9185 0.79209 0.21496 0.0
H6020 H 0.87774 0.76776 0.17392 0.0
H6021 H 0.85561 0.74767 0.16272 0.0
H6022 H 0.88349 0.71323 0.16708 0.0
H6023 H 0.90573 0.73312 0.17851 0.0
C6024 C 0.96854 0.79212 0.16138 0.0
C6025 C 0.97379 0.77861 0.15615 0.0
C6026 C 0.95544 0.79157 0.16965 0.0
C6027 C 0.94729 0.77754 0.17338 0.0
C6028 C 0.9525 0.76407 0.16817 0.0
C6029 C 0.96539 0.76457 0.15966 0.0
C6030 C 0.93316 0.77667 0.18221 0.0
C6031 C 0.92006 0.76554 0.17636 0.0
C6032 C 0.93239 0.78649 0.1963 0.0
C6033 C 0.94582 0.79797 0.20387 0.0
C6034 C 0.95971 0.79343 0.20874 0.0
C6035 C 0.97237 0.80434 0.21579 0.0
C6036 C 0.97123 0.81981 0.21813 0.0
C6037 C 0.95742 0.8244 0.21347 0.0
C6038 C 0.94473 0.81353 0.20642 0.0
C6039 C 0.87676 0.75316 0.22306 0.0
C6040 C 0.86513 0.76205 0.22255 0.0
C6041 C 0.8902 0.75731 0.21581 0.0
C6042 C 0.89254 0.77054 0.20787 0.0
C6043 C 0.88141 0.78 0.20812 0.0
C6044 C 0.86783 0.77579 0.21536 0.0
C6045 C 0.90594 0.77346 0.19825 0.0
C6046 C 0.9188 0.78486 0.20398 0.0
C6047 C 0.90662 0.76385 0.18412 0.0
C6048 C 0.89333 0.75189 0.17719 0.0
C6049 C 0.8791 0.75589 0.17261 0.0
C6050 C 0.86655 0.74454 0.1662 0.0
C6051 C 0.86813 0.72918 0.16423 0.0
C6052 C 0.88228 0.72513 0.16863 0.0
C6053 C 0.89486 0.73644 0.17506 0.0
H6054 H 0.85841 0.72041 0.15926 0.0
H6055 H 0.98105 0.82825 0.22358 0.0
H6056 H 0.51779 0.30865 0.10452 0.0
H6057 H 0.51812 0.33095 0.08959 0.0
H6058 H 0.5175 0.35959 0.13354 0.0
H6059 H 0.51606 0.33701 0.14821 0.0
H6060 H 0.50117 0.36948 0.11335 0.0
H6061 H 0.55135 0.35745 0.11038 0.0
H6062 H 0.57058 0.34156 0.1043 0.0
H6063 H 0.55248 0.33465 0.05474 0.0
H6064 H 0.53301 0.35032 0.06056 0.0
H6065 H 0.53024 0.44114 0.08321 0.0
H6066 H 0.52391 0.41827 0.09712 0.0
H6067 H 0.51747 0.38976 0.05203 0.0
H6068 H 0.52391 0.41266 0.03822 0.0
H6069 H 0.53668 0.37978 0.07226 0.0
H6070 H 0.48711 0.39326 0.07598 0.0
H6071 H 0.46855 0.40969 0.08283 0.0
H6072 H 0.48708 0.41502 0.13221 0.0
H6073 H 0.50586 0.39877 0.12562 0.0
C6074 C 0.51773 0.31972 0.11098 0.0
C6075 C 0.51693 0.32102 0.12758 0.0
C6076 C 0.51807 0.33259 0.10243 0.0
C6077 C 0.51822 0.34731 0.11032 0.0
C6078 C 0.5174 0.34853 0.12697 0.0
C6079 C 0.51662 0.33558 0.13543 0.0
C6080 C 0.51895 0.36132 0.10131 0.0
C6081 C 0.50915 0.37177 0.10456 0.0
C6082 C 0.52902 0.36445 0.08942 0.0
C6083 C 0.54062 0.35491 0.08594 0.0
C6084 C 0.55139 0.35243 0.09821 0.0
C6085 C 0.56235 0.34348 0.0948 0.0
C6086 C 0.56272 0.33706 0.07915 0.0
C6087 C 0.55216 0.3396 0.06686 0.0
C6088 C 0.54117 0.34851 0.0702 0.0
C6089 C 0.5267 0.43006 0.07619 0.0
C6090 C 0.52711 0.42883 0.05951 0.0
C6091 C 0.52322 0.41689 0.08419 0.0
C6092 C 0.52016 0.40209 0.07573 0.0
C6093 C 0.51976 0.40094 0.05895 0.0
C6094 C 0.52318 0.41409 0.05098 0.0
C6095 C 0.51895 0.38788 0.08437 0.0
C6096 C 0.52871 0.37743 0.08106 0.0
C6097 C 0.50903 0.3849 0.09636 0.0
C6098 C 0.49799 0.39494 0.10027 0.0
C6099 C 0.48733 0.39808 0.08827 0.0
C6100 C 0.47675 0.40732 0.09212 0.0
C6101 C 0.47667 0.41343 0.10794 0.0
C6102 C 0.48717 0.4103 0.11996 0.0
C6103 C 0.49778 0.40107 0.11617 0.0
H6104 H 0.46844 0.42056 0.1109 0.0
H6105 H 0.57122 0.33015 0.07654 0.0
H6106 H 0.94305 0.28193 0.33468 0.0
H6107 H 0.91593 0.28052 0.32557 0.0
H6108 H 0.9266 0.28143 0.27689 0.0
H6109 H 0.95403 0.28384 0.28628 0.0
H6110 H 0.90534 0.29712 0.27991 0.0
H6111 H 0.90814 0.24662 0.2931 0.0
H6112 H 0.91598 0.22779 0.31027 0.0
H6113 H 0.89021 0.24367 0.34677 0.0
H6114 H 0.88229 0.26265 0.32984 0.0
H6115 H 0.82462 0.27902 0.25201 0.0
H6116 H 0.85221 0.27941 0.25704 0.0
H6117 H 0.84765 0.27552 0.30696 0.0
H6118 H 0.81999 0.27395 0.30163 0.0
H6119 H 0.86628 0.25934 0.30045 0.0
H6120 H 0.86667 0.31216 0.28838 0.0
H6121 H 0.86051 0.332 0.27176 0.0
H6122 H 0.88001 0.31122 0.23261 0.0
H6123 H 0.88675 0.29151 0.24927 0.0
C6124 C 0.93962 0.2818 0.32202 0.0
C6125 C 0.95075 0.28287 0.31123 0.0
C6126 C 0.924 0.28085 0.31674 0.0
C6127 C 0.91883 0.28039 0.30037 0.0
C6128 C 0.93003 0.28166 0.28956 0.0
C6129 C 0.94577 0.283 0.29492 0.0
C6130 C 0.90186 0.27873 0.29475 0.0
C6131 C 0.89686 0.28868 0.28427 0.0
C6132 C 0.89046 0.26785 0.30031 0.0
C6133 C 0.89468 0.25607 0.31024 0.0
C6134 C 0.90415 0.24607 0.30479 0.0
C6135 C 0.90861 0.23539 0.31448 0.0
C6136 C 0.90361 0.23454 0.32961 0.0
C6137 C 0.89405 0.24432 0.33504 0.0
C6138 C 0.88953 0.25501 0.32538 0.0
C6139 C 0.82953 0.27833 0.26408 0.0
C6140 C 0.81997 0.27645 0.27639 0.0
C6141 C 0.84547 0.27871 0.26704 0.0
C6142 C 0.8525 0.27781 0.28255 0.0
C6143 C 0.84285 0.27616 0.29485 0.0
C6144 C 0.82691 0.27535 0.2918 0.0
C6145 C 0.86964 0.27817 0.2861 0.0
C6146 C 0.87471 0.26781 0.29608 0.0
C6147 C 0.88108 0.28861 0.28 0.0
C6148 C 0.87706 0.30035 0.26998 0.0
C6149 C 0.8696 0.31183 0.27621 0.0
C6150 C 0.86603 0.32306 0.26679 0.0
C6151 C 0.86969 0.32279 0.25104 0.0
C6152 C 0.87713 0.31139 0.24478 0.0
C6153 C 0.88094 0.30027 0.25424 0.0
H6154 H 0.86682 0.33144 0.24373 0.0
H6155 H 0.90713 0.22631 0.33712 0.0
H6156 H 0.98846 0.66016 0.62612 0.0
H6157 H 0.98916 0.63655 0.60905 0.0
H6158 H 0.033 0.657 0.59572 0.0
H6159 H 0.03221 0.6807 0.6124 0.0
H6160 H 0.01588 0.64152 0.56997 0.0
H6161 H 0.02822 0.62988 0.62373 0.0
H6162 H 0.02374 0.62693 0.65172 0.0
H6163 H 0.98273 0.59379 0.63583 0.0
H6164 H 0.98681 0.59675 0.60773 0.0
H6165 H 0.03858 0.57494 0.53363 0.0
H6166 H 0.03587 0.59837 0.54966 0.0
H6167 H 0.99701 0.57337 0.56891 0.0
H6168 H 1.00041 0.54971 0.55361 0.0
H6169 H 0.01032 0.59124 0.5915 0.0
H6170 H 0.99564 0.60365 0.53866 0.0
H6171 H 0.99768 0.60763 0.51039 0.0
H6172 H 0.0406 0.6386 0.52373 0.0
H6173 H 0.03858 0.63517 0.55214 0.0
C6174 C 0.99823 0.65975 0.61949 0.0
C6175 C 0.01033 0.67254 0.62091 0.0
C6176 C 0.99868 0.64607 0.60977 0.0
C6177 C 0.01126 0.64468 0.60111 0.0
C6178 C 0.02317 0.65754 0.60225 0.0
C6179 C 0.02276 0.67116 0.61199 0.0
C6180 C 0.0121 0.62997 0.59088 0.0
C6181 C 0.01482 0.63056 0.57478 0.0
C6182 C 0.01023 0.6154 0.59674 0.0
C6183 C 0.00774 0.61367 0.61363 0.0
C6184 C 0.01817 0.62207 0.6262 0.0
C6185 C 0.01571 0.62039 0.64209 0.0
C6186 C 1.00294 0.61021 0.64555 0.0
C6187 C 0.9926 0.60169 0.63313 0.0
C6188 C 0.99498 0.60337 0.61723 0.0
C6189 C 0.02938 0.57443 0.5412 0.0
C6190 C 0.0197 0.56031 0.5422 0.0
C6191 C 0.0277 0.58799 0.55034 0.0
C6192 C 0.01594 0.5881 0.56044 0.0
C6193 C 0.00622 0.57394 0.56136 0.0
C6194 C 0.00814 0.5603 0.55251 0.0
C6195 C 0.01413 0.60269 0.57047 0.0
C6196 C 0.01127 0.60212 0.58657 0.0
C6197 C 0.01559 0.61726 0.56454 0.0
C6198 C 0.01705 0.61901 0.54747 0.0
C6199 C 0.00557 0.61121 0.53554 0.0
C6200 C 0.0067 0.6134 0.5195 0.0
C6201 C 0.01936 0.62318 0.51523 0.0
C6202 C 0.03083 0.63097 0.52703 0.0
C6203 C 0.02965 0.62899 0.54311 0.0
H6204 H 0.02024 0.62482 0.5028 0.0
H6205 H 1.00107 0.60891 0.65786 0.0
H6206 H 0.62006 0.81301 0.81955 0.0
H6207 H 0.64423 0.81094 0.80912 0.0
H6208 H 0.62672 0.7636 0.79176 0.0
H6209 H 0.60216 0.76563 0.80109 0.0
H6210 H 0.65393 0.76634 0.8089 0.0
H6211 H 0.63449 0.78985 0.76585 0.0
H6212 H 0.62354 0.8085 0.75078 0.0
H6213 H 0.66239 0.84354 0.76903 0.0
H6214 H 0.67348 0.82518 0.78444 0.0
H6215 H 0.71967 0.7534 0.77105 0.0
H6216 H 0.69406 0.75589 0.77706 0.0
H6217 H 0.7101 0.80402 0.79215 0.0
H6218 H 0.73595 0.80146 0.78597 0.0
H6219 H 0.68304 0.80041 0.77475 0.0
H6220 H 0.69576 0.77687 0.82482 0.0
H6221 H 0.70287 0.75734 0.84148 0.0
H6222 H 0.67593 0.72155 0.80778 0.0
H6223 H 0.6677 0.74094 0.79155 0.0
C6224 C 0.62094 0.80216 0.81322 0.0
C6225 C 0.60862 0.78945 0.81164 0.0
C6226 C 0.63504 0.80102 0.80723 0.0
C6227 C 0.63755 0.78709 0.79961 0.0
C6228 C 0.6253 0.77451 0.79766 0.0
C6229 C 0.61111 0.7757 0.80332 0.0
C6230 C 0.6532 0.78522 0.79496 0.0
C6231 C 0.66012 0.77372 0.80122 0.0
C6232 C 0.66166 0.79487 0.78512 0.0
C6233 C 0.65469 0.80618 0.77654 0.0
C6234 C 0.64058 0.8016 0.76689 0.0
C6235 C 0.63438 0.81211 0.75821 0.0
C6236 C 0.64223 0.82722 0.75901 0.0
C6237 C 0.65629 0.83185 0.76848 0.0
C6238 C 0.66253 0.8214 0.7772 0.0
C6239 C 0.71793 0.7645 0.77565 0.0
C6240 C 0.73022 0.7771 0.77796 0.0
C6241 C 0.7031 0.76593 0.77931 0.0
C6242 C 0.69989 0.78012 0.78543 0.0
C6243 C 0.71207 0.79286 0.78758 0.0
C6244 C 0.72698 0.79136 0.78404 0.0
C6245 C 0.68382 0.78174 0.78901 0.0
C6246 C 0.67681 0.79312 0.78247 0.0
C6247 C 0.6751 0.77189 0.79842 0.0
C6248 C 0.68152 0.76027 0.80679 0.0
C6249 C 0.69162 0.76481 0.82083 0.0
C6250 C 0.69573 0.75379 0.83026 0.0
C6251 C 0.69026 0.73821 0.82546 0.0
C6252 C 0.68036 0.73361 0.81136 0.0
C6253 C 0.67582 0.7446 0.80214 0.0
H6254 H 0.69352 0.72972 0.83279 0.0
H6255 H 0.63745 0.83533 0.75223 0.0
H6256 H 0.47876 0.50771 0.68699 0.0
H6257 H 0.49001 0.50956 0.66159 0.0
H6258 H 0.45491 0.5337 0.64449 0.0
H6259 H 0.44383 0.53209 0.66987 0.0
H6260 H 0.45842 0.50936 0.62294 0.0
H6261 H 0.48939 0.55287 0.65455 0.0
H6262 H 0.50686 0.56733 0.67735 0.0
H6263 H 0.54121 0.54074 0.6668 0.0
H6264 H 0.52382 0.52587 0.64412 0.0
H6265 H 0.48955 0.53283 0.55245 0.0
H6266 H 0.47933 0.5324 0.57832 0.0
H6267 H 0.51569 0.51024 0.59629 0.0
H6268 H 0.52591 0.51046 0.57042 0.0
H6269 H 0.51175 0.53424 0.6175 0.0
H6270 H 0.47891 0.48735 0.59084 0.0
H6271 H 0.46076 0.47102 0.56965 0.0
H6272 H 0.43098 0.50404 0.57091 0.0
H6273 H 0.44871 0.52026 0.59259 0.0
C6274 C 0.47352 0.51345 0.67781 0.0
C6275 C 0.46045 0.5198 0.68039 0.0
C6276 C 0.47999 0.51459 0.66336 0.0
C6277 C 0.47335 0.52186 0.65117 0.0
C6278 C 0.46026 0.52811 0.65374 0.0
C6279 C 0.45397 0.52723 0.66825 0.0
C6280 C 0.47956 0.52233 0.63545 0.0
C6281 C 0.47003 0.51501 0.62176 0.0
C6282 C 0.49481 0.52937 0.63392 0.0
C6283 C 0.50519 0.53809 0.64776 0.0
C6284 C 0.50058 0.54994 0.65722 0.0
C6285 C 0.51049 0.55825 0.6701 0.0
C6286 C 0.52512 0.55492 0.67356 0.0
C6287 C 0.52986 0.54327 0.66414 0.0
C6288 C 0.51997 0.5349 0.65127 0.0
C6289 C 0.49535 0.5278 0.56188 0.0
C6290 C 0.50859 0.52172 0.55934 0.0
C6291 C 0.48945 0.52751 0.57665 0.0
C6292 C 0.49668 0.5212 0.58924 0.0
C6293 C 0.50992 0.51519 0.58677 0.0
C6294 C 0.51576 0.51534 0.57196 0.0
C6295 C 0.49062 0.52118 0.60507 0.0
C6296 C 0.50016 0.52862 0.61875 0.0
C6297 C 0.4754 0.51423 0.60669 0.0
C6298 C 0.46518 0.50506 0.59312 0.0
C6299 C 0.46855 0.49116 0.58648 0.0
C6300 C 0.4583 0.48189 0.57447 0.0
C6301 C 0.44482 0.48658 0.56879 0.0
C6302 C 0.44146 0.50046 0.57526 0.0
C6303 C 0.45154 0.50963 0.5875 0.0
H6304 H 0.43693 0.47941 0.55943 0.0
H6305 H 0.53279 0.5614 0.68351 0.0
H6306 H 0.75152 0.15314 0.9475 0.0
H6307 H 0.75394 0.16695 0.92377 0.0
H6308 H 0.78069 0.2066 0.95321 0.0
H6309 H 0.7784 0.19271 0.9769 0.0
H6310 H 0.7554 0.21171 0.93215 0.0
H6311 H 0.7993 0.18641 0.93172 0.0
H6312 H 0.81083 0.16326 0.93279 0.0
H6313 H 0.78234 0.14215 0.88994 0.0
H6314 H 0.77047 0.16511 0.88875 0.0
H6315 H 0.76618 0.25421 0.8701 0.0
H6316 H 0.77654 0.24174 0.89223 0.0
H6317 H 0.75845 0.19738 0.86581 0.0
H6318 H 0.74887 0.2099 0.84342 0.0
H6319 H 0.78195 0.19519 0.88626 0.0
H6320 H 0.73594 0.21599 0.88717 0.0
H6321 H 0.71956 0.23558 0.88643 0.0
H6322 H 0.74658 0.26132 0.9281 0.0
H6323 H 0.76331 0.24201 0.9289 0.0
C6324 C 0.75782 0.16483 0.94877 0.0
C6325 C 0.76477 0.17206 0.96371 0.0
C6326 C 0.75931 0.17259 0.93534 0.0
C6327 C 0.76767 0.1876 0.93691 0.0
C6328 C 0.77434 0.19493 0.95193 0.0
C6329 C 0.77301 0.1871 0.96532 0.0
C6330 C 0.76896 0.19593 0.9229 0.0
C6331 C 0.76152 0.20841 0.92225 0.0
C6332 C 0.77638 0.19097 0.90989 0.0
C6333 C 0.784 0.17746 0.91015 0.0
C6334 C 0.79549 0.17682 0.92253 0.0
C6335 C 0.80207 0.16373 0.92317 0.0
C6336 C 0.79732 0.15124 0.91144 0.0
C6337 C 0.78602 0.15185 0.899 0.0
C6338 C 0.77939 0.16491 0.89832 0.0
C6339 C 0.76496 0.24183 0.86891 0.0
C6340 C 0.75647 0.23285 0.85549 0.0
C6341 C 0.77089 0.23474 0.88143 0.0
C6342 C 0.76776 0.21868 0.88078 0.0
C6343 C 0.76084 0.20979 0.86656 0.0
C6344 C 0.75525 0.21689 0.85389 0.0
C6345 C 0.76866 0.21135 0.8956 0.0
C6346 C 0.77625 0.19886 0.89633 0.0
C6347 C 0.7609 0.21595 0.90859 0.0
C6348 C 0.75104 0.22772 0.90791 0.0
C6349 C 0.73851 0.22593 0.89605 0.0
C6350 C 0.72914 0.23697 0.89563 0.0
C6351 C 0.73209 0.24974 0.90715 0.0
C6352 C 0.74437 0.25148 0.91913 0.0
C6353 C 0.75381 0.24051 0.91955 0.0
H6354 H 0.7248 0.25825 0.90684 0.0
H6355 H 0.8024 0.1411 0.91198 0.0
H6356 H 0.10166 0.53771 0.18265 0.0
H6357 H 0.08554 0.53517 0.15714 0.0
H6358 H 0.11186 0.50344 0.13665 0.0
H6359 H 0.1282 0.50616 0.16204 0.0
H6360 H 0.10902 0.52791 0.1194 0.0
H6361 H 0.07774 0.48965 0.14392 0.0
H6362 H 0.06357 0.47889 0.1652 0.0
H6363 H 0.03388 0.51179 0.16151 0.0
H6364 H 0.04806 0.52297 0.14042 0.0
H6365 H 0.05763 0.50323 0.04911 0.0
H6366 H 0.07363 0.5043 0.07425 0.0
H6367 H 0.0518 0.53967 0.09528 0.0
H6368 H 0.0359 0.53905 0.06997 0.0
H6369 H 0.05231 0.51216 0.11171 0.0
H6370 H 0.08688 0.55335 0.0919 0.0
H6371 H 0.102 0.56545 0.07189 0.0
H6372 H 0.1244 0.52667 0.06643 0.0
H6373 H 0.10974 0.51457 0.08679 0.0
C6374 C 0.1039 0.53019 0.17267 0.0
C6375 C 0.11601 0.52212 0.17405 0.0
C6376 C 0.09469 0.52863 0.15829 0.0
C6377 C 0.09758 0.51899 0.14534 0.0
C6378 C 0.10955 0.5108 0.14673 0.0
C6379 C 0.11875 0.51233 0.16111 0.0
C6380 C 0.08878 0.51847 0.12996 0.0
C6381 C 0.09665 0.52421 0.11759 0.0
C6382 C 0.07268 0.51398 0.12802 0.0
C6383 C 0.06408 0.50725 0.14068 0.0
C6384 C 0.06829 0.4947 0.14775 0.0
C6385 C 0.06024 0.4885 0.15977 0.0
C6386 C 0.04786 0.49468 0.16474 0.0
C6387 C 0.04348 0.50704 0.15767 0.0
C6388 C 0.05152 0.5133 0.14567 0.0
C6389 C 0.05626 0.51127 0.05906 0.0
C6390 C 0.04544 0.52092 0.0578 0.0
C6391 C 0.06543 0.51191 0.07328 0.0
C6392 C 0.06377 0.52212 0.08627 0.0
C6393 C 0.05307 0.5318 0.08513 0.0
C6394 C 0.04398 0.53131 0.07083 0.0
C6395 C 0.07255 0.5218 0.1014 0.0
C6396 C 0.06468 0.5158 0.11362 0.0
C6397 C 0.08862 0.52604 0.10324 0.0
C6398 C 0.09716 0.53303 0.09073 0.0
C6399 C 0.09497 0.54738 0.08634 0.0
C6400 C 0.10349 0.55426 0.075 0.0
C6401 C 0.11403 0.54676 0.06776 0.0
C6402 C 0.1162 0.53244 0.072 0.0
C6403 C 0.10788 0.52562 0.08353 0.0
H6404 H 0.12057 0.55209 0.05894 0.0
H6405 H 0.04163 0.48986 0.17404 0.0
H6406 H 0.79843 0.83752 0.44306 0.0
H6407 H 0.79771 0.82591 0.41574 0.0
H6408 H 0.74922 0.80878 0.41436 0.0
H6409 H 0.74995 0.81979 0.44218 0.0
H6410 H 0.76303 0.78776 0.39853 0.0
H6411 H 0.76194 0.84104 0.39706 0.0
H6412 H 0.77083 0.86864 0.40565 0.0
H6413 H 0.8149 0.86594 0.39008 0.0
H6414 H 0.80632 0.83826 0.38158 0.0
H6415 H 0.75131 0.7736 0.31326 0.0
H6416 H 0.75032 0.78264 0.34122 0.0
H6417 H 0.79802 0.80412 0.34521 0.0
H6418 H 0.79877 0.79586 0.31696 0.0
H6419 H 0.78324 0.82263 0.35985 0.0
H6420 H 0.78386 0.76878 0.36119 0.0
H6421 H 0.77469 0.7411 0.35334 0.0
H6422 H 0.73092 0.74467 0.36918 0.0
H6423 H 0.73977 0.77243 0.37695 0.0
C6424 C 0.78761 0.83104 0.43718 0.0
C6425 C 0.77424 0.82972 0.44503 0.0
C6426 C 0.78719 0.82452 0.42138 0.0
C6427 C 0.77336 0.81665 0.41276 0.0
C6428 C 0.76004 0.81485 0.42064 0.0
C6429 C 0.76046 0.82133 0.43655 0.0
C6430 C 0.77283 0.81099 0.39538 0.0
C6431 C 0.76726 0.79542 0.39002 0.0
C6432 C 0.77849 0.82086 0.38421 0.0
C6433 C 0.78352 0.83758 0.38877 0.0
C6434 C 0.77354 0.84633 0.3955 0.0
C6435 C 0.77852 0.86198 0.40036 0.0
C6436 C 0.79343 0.86903 0.39843 0.0
C6437 C 0.80336 0.86046 0.39157 0.0
C6438 C 0.79843 0.8448 0.3867 0.0
C6439 C 0.76165 0.78022 0.32005 0.0
C6440 C 0.77528 0.78368 0.3128 0.0
C6441 C 0.76108 0.7853 0.33617 0.0
C6442 C 0.77419 0.79381 0.34563 0.0
C6443 C 0.78774 0.79747 0.33834 0.0
C6444 C 0.78824 0.79257 0.32214 0.0
C6445 C 0.7737 0.79928 0.36292 0.0
C6446 C 0.77902 0.81489 0.36828 0.0
C6447 C 0.76772 0.78942 0.37404 0.0
C6448 C 0.76244 0.77271 0.36952 0.0
C6449 C 0.77225 0.76368 0.36291 0.0
C6450 C 0.76711 0.74797 0.35849 0.0
C6451 C 0.75222 0.74113 0.36072 0.0
C6452 C 0.74245 0.74999 0.36744 0.0
C6453 C 0.74752 0.7657 0.37188 0.0
H6454 H 0.74825 0.72898 0.35727 0.0
H6455 H 0.79728 0.88115 0.40224 0.0
H6456 H 0.47496 0.54508 0.84119 0.0
H6457 H 0.48628 0.54553 0.86881 0.0
H6458 H 0.47166 0.49651 0.86602 0.0
H6459 H 0.45968 0.49606 0.83892 0.0
H6460 H 0.46395 0.50926 0.89194 0.0
H6461 H 0.51072 0.51576 0.86661 0.0
H6462 H 0.52978 0.52853 0.85047 0.0
H6463 H 0.53628 0.56986 0.88278 0.0
H6464 H 0.51709 0.55741 0.89898 0.0
H6465 H 0.50381 0.49421 0.96424 0.0
H6466 H 0.49553 0.4952 0.93591 0.0
H6467 H 0.50669 0.54459 0.9432 0.0
H6468 H 0.5148 0.54351 0.97161 0.0
H6469 H 0.51683 0.53303 0.91523 0.0
H6470 H 0.4709 0.52898 0.93934 0.0
H6471 H 0.4485 0.52027 0.95338 0.0
H6472 H 0.43852 0.47764 0.92287 0.0
H6473 H 0.46107 0.48597 0.90882 0.0
C6474 C 0.4741 0.53438 0.84644 0.0
C6475 C 0.46631 0.52052 0.83763 0.0
C6476 C 0.4808 0.53463 0.86224 0.0
C6477 C 0.48002 0.52103 0.8696 0.0
C6478 C 0.47253 0.50719 0.86071 0.0
C6479 C 0.46576 0.50694 0.84503 0.0
C6480 C 0.48583 0.52112 0.88688 0.0
C6481 C 0.47565 0.51414 0.8969 0.0
C6482 C 0.50085 0.52822 0.89369 0.0
C6483 C 0.51235 0.53569 0.88392 0.0
C6484 C 0.51611 0.52761 0.8702 0.0
C6485 C 0.52696 0.53479 0.86105 0.0
C6486 C 0.53421 0.55001 0.86557 0.0
C6487 C 0.53064 0.55808 0.87927 0.0
C6488 C 0.51979 0.55097 0.88844 0.0
C6489 C 0.5048 0.50521 0.95974 0.0
C6490 C 0.51026 0.51872 0.97011 0.0
C6491 C 0.49987 0.50582 0.94356 0.0
C6492 C 0.50047 0.51999 0.93731 0.0
C6493 C 0.50615 0.53351 0.94763 0.0
C6494 C 0.51077 0.53288 0.96388 0.0
C6495 C 0.49504 0.52068 0.92009 0.0
C6496 C 0.50523 0.5279 0.91016 0.0
C6497 C 0.47993 0.51398 0.91332 0.0
C6498 C 0.4678 0.50803 0.92317 0.0
C6499 C 0.46419 0.51758 0.9359 0.0
C6500 C 0.45139 0.51277 0.94378 0.0
C6501 C 0.44207 0.49847 0.93896 0.0
C6502 C 0.44575 0.48874 0.92656 0.0
C6503 C 0.45857 0.49348 0.91868 0.0
H6504 H 0.4319 0.49501 0.94474 0.0
H6505 H 0.54261 0.55554 0.85848 0.0
H6506 H 0.74458 0.17854 0.10842 0.0
H6507 H 0.74679 0.19414 0.13402 0.0
H6508 H 0.79554 0.19442 0.14033 0.0
H6509 H 0.79316 0.17742 0.11572 0.0
H6510 H 0.78406 0.19029 0.16666 0.0
H6511 H 0.77959 0.22595 0.12645 0.0
H6512 H 0.767 0.23535 0.10306 0.0
H6513 H 0.72636 0.23551 0.12664 0.0
H6514 H 0.7387 0.22606 0.15012 0.0
H6515 H 0.80065 0.25087 0.22958 0.0
H6516 H 0.8007 0.23585 0.20374 0.0
H6517 H 0.75172 0.23355 0.19423 0.0
H6518 H 0.75196 0.2495 0.21926 0.0
H6519 H 0.76484 0.23935 0.16937 0.0
H6520 H 0.76838 0.20364 0.20936 0.0
H6521 H 0.78052 0.19464 0.23328 0.0
H6522 H 0.82178 0.19436 0.21086 0.0
H6523 H 0.80993 0.20336 0.18686 0.0
C6524 C 0.75569 0.18166 0.11544 0.0
C6525 C 0.76873 0.17692 0.11008 0.0
C6526 C 0.75698 0.19076 0.12986 0.0
C6527 C 0.77139 0.19566 0.13868 0.0
C6528 C 0.78437 0.1908 0.13349 0.0
C6529 C 0.78301 0.18128 0.11937 0.0
C6530 C 0.773 0.20575 0.1535 0.0
C6531 C 0.78002 0.20111 0.16728 0.0
C6532 C 0.76743 0.21964 0.15415 0.0
C6533 C 0.76003 0.22521 0.13996 0.0
C6534 C 0.76795 0.22791 0.12659 0.0
C6535 C 0.76086 0.23328 0.11334 0.0
C6536 C 0.74588 0.236 0.11335 0.0
C6537 C 0.73796 0.2334 0.12664 0.0
C6538 C 0.745 0.22808 0.13992 0.0
C6539 C 0.79005 0.24726 0.22171 0.0
C6540 C 0.77632 0.2511 0.226 0.0
C6541 C 0.79003 0.23866 0.2072 0.0
C6542 C 0.77616 0.23345 0.19743 0.0
C6543 C 0.7625 0.23757 0.20171 0.0
C6544 C 0.76264 0.24664 0.21585 0.0
C6545 C 0.77567 0.22379 0.18256 0.0
C6546 C 0.76892 0.22854 0.16875 0.0
C6547 C 0.78132 0.20995 0.18196 0.0
C6548 C 0.7883 0.20427 0.19635 0.0
C6549 C 0.78006 0.20168 0.20956 0.0
C6550 C 0.78688 0.19655 0.22312 0.0
C6551 C 0.8019 0.19389 0.22358 0.0
C6552 C 0.81012 0.19633 0.21047 0.0
C6553 C 0.80336 0.20143 0.19688 0.0
H6554 H 0.80719 0.18995 0.23408 0.0
H6555 H 0.74042 0.24015 0.10308 0.0
H6556 H 0.09976 0.52079 0.30612 0.0
H6557 H 0.08633 0.52012 0.3302 0.0
H6558 H 0.12937 0.53756 0.35951 0.0
H6559 H 0.14274 0.5382 0.33539 0.0
H6560 H 0.11216 0.51268 0.37049 0.0
H6561 H 0.10641 0.56104 0.35358 0.0
H6562 H 0.09981 0.57926 0.33505 0.0
H6563 H 0.05279 0.55614 0.32886 0.0
H6564 H 0.05916 0.5376 0.34715 0.0
H6565 H 0.08516 0.5443 0.44038 0.0
H6566 H 0.09713 0.53394 0.41799 0.0
H6567 H 0.05264 0.52105 0.39031 0.0
H6568 H 0.04093 0.5325 0.41241 0.0
H6569 H 0.07041 0.54193 0.37789 0.0
H6570 H 0.07756 0.494 0.39762 0.0
H6571 H 0.08611 0.47695 0.41657 0.0
H6572 H 0.13243 0.50152 0.41927 0.0
H6573 H 0.12415 0.51878 0.40044 0.0
C6574 C 0.10621 0.52446 0.31776 0.0
C6575 C 0.12208 0.52953 0.31925 0.0
C6576 C 0.09863 0.52411 0.33138 0.0
C6577 C 0.10696 0.52882 0.34646 0.0
C6578 C 0.12287 0.53386 0.34789 0.0
C6579 C 0.13042 0.53428 0.33426 0.0
C6580 C 0.09901 0.52843 0.36077 0.0
C6581 C 0.10306 0.5191 0.37228 0.0
C6582 C 0.08714 0.53675 0.36275 0.0
C6583 C 0.08331 0.54779 0.35157 0.0
C6584 C 0.0947 0.55972 0.34812 0.0
C6585 C 0.09099 0.57013 0.33769 0.0
C6586 C 0.0759 0.56883 0.33073 0.0
C6587 C 0.06448 0.55711 0.33422 0.0
C6588 C 0.06814 0.54665 0.34462 0.0
C6589 C 0.07803 0.53906 0.42954 0.0
C6590 C 0.0624 0.53973 0.42759 0.0
C6591 C 0.08477 0.53282 0.41692 0.0
C6592 C 0.07575 0.52684 0.40246 0.0
C6593 C 0.05976 0.52574 0.40137 0.0
C6594 C 0.05312 0.53241 0.41382 0.0
C6595 C 0.08315 0.52576 0.38769 0.0
C6596 C 0.07921 0.53512 0.37609 0.0
C6597 C 0.09533 0.51772 0.38587 0.0
C6598 C 0.10019 0.50775 0.39771 0.0
C6599 C 0.08953 0.49587 0.4024 0.0
C6600 C 0.09435 0.48613 0.41307 0.0
C6601 C 0.10979 0.48816 0.41913 0.0
C6602 C 0.12046 0.49996 0.41457 0.0
C6603 C 0.11572 0.5097 0.40388 0.0
H6604 H 0.1135 0.48058 0.42735 0.0
H6605 H 0.07304 0.57692 0.32268 0.0
H6606 H 0.7556 0.8177 0.5949 0.0
H6607 H 0.75387 0.80638 0.62011 0.0
H6608 H 0.79527 0.83726 0.6408 0.0
H6609 H 0.7969 0.84891 0.61584 0.0
H6610 H 0.79497 0.80702 0.64697 0.0
H6611 H 0.76107 0.84412 0.64974 0.0
H6612 H 0.73899 0.85533 0.64005 0.0
H6613 H 0.70867 0.81249 0.64169 0.0
H6614 H 0.73062 0.80097 0.65118 0.0
H6615 H 0.79609 0.79259 0.72673 0.0
H6616 H 0.79654 0.80439 0.70213 0.0
H6617 H 0.74762 0.78793 0.69153 0.0
H6618 H 0.74688 0.78042 0.71863 0.0
H6619 H 0.75106 0.8097 0.67838 0.0
H6620 H 0.78398 0.77147 0.67504 0.0
H6621 H 0.80565 0.75977 0.68505 0.0
H6622 H 0.83694 0.8019 0.68301 0.0
H6623 H 0.81547 0.81387 0.67312 0.0
C6624 C 0.76428 0.8222 0.60484 0.0
C6625 C 0.77639 0.83428 0.60325 0.0
C6626 C 0.76329 0.81566 0.61924 0.0
C6627 C 0.77439 0.82103 0.6324 0.0
C6628 C 0.7866 0.83289 0.6308 0.0
C6629 C 0.78756 0.83949 0.61645 0.0
C6630 C 0.77334 0.81437 0.64788 0.0
C6631 C 0.78539 0.80757 0.6539 0.0
C6632 C 0.76065 0.81469 0.65669 0.0
C6633 C 0.7475 0.82165 0.65101 0.0
C6634 C 0.74971 0.83706 0.64791 0.0
C6635 C 0.73722 0.84348 0.64247 0.0
C6636 C 0.72244 0.83462 0.64021 0.0
C6637 C 0.72012 0.81933 0.64342 0.0
C6638 C 0.73258 0.81286 0.64883 0.0
C6639 C 0.78534 0.7924 0.71956 0.0
C6640 C 0.77139 0.7866 0.72507 0.0
C6641 C 0.78565 0.79841 0.70491 0.0
C6642 C 0.77223 0.79656 0.69414 0.0
C6643 C 0.75825 0.7898 0.69937 0.0
C6644 C 0.75779 0.78531 0.71484 0.0
C6645 C 0.7727 0.80194 0.67776 0.0
C6646 C 0.76055 0.80864 0.67147 0.0
C6647 C 0.78515 0.80111 0.66846 0.0
C6648 C 0.79812 0.79356 0.67338 0.0
C6649 C 0.7955 0.77819 0.67664 0.0
C6650 C 0.80774 0.77153 0.68234 0.0
C6651 C 0.82265 0.78009 0.68468 0.0
C6652 C 0.82539 0.79528 0.68117 0.0
C6653 C 0.8132 0.80199 0.67547 0.0
H6654 H 0.8321 0.77495 0.6892 0.0
H6655 H 0.71278 0.83961 0.63601 0.0
H6656 H 0.72924 0.48196 0.49563 0.0
H6657 H 0.70531 0.49172 0.49842 0.0
H6658 H 0.68211 0.44602 0.50417 0.0
H6659 H 0.70579 0.43635 0.50095 0.0
H6660 H 0.66547 0.45916 0.48435 0.0
H6661 H 0.69374 0.4715 0.53588 0.0
H6662 H 0.71624 0.48253 0.5553 0.0
H6663 H 0.71305 0.52768 0.54321 0.0
H6664 H 0.69064 0.51689 0.5235 0.0
H6665 H 0.60522 0.4717 0.53033 0.0
H6666 H 0.6265 0.4647 0.51685 0.0
H6667 H 0.64094 0.5119 0.50868 0.0
H6668 H 0.61958 0.51893 0.52223 0.0
H6669 H 0.6625 0.50023 0.52712 0.0
H6670 H 0.63079 0.48406 0.47585 0.0
H6671 H 0.60887 0.46956 0.45737 0.0
H6672 H 0.61824 0.42726 0.47287 0.0
H6673 H 0.64016 0.44151 0.49145 0.0
C6674 C 0.71887 0.47412 0.49724 0.0
C6675 C 0.71892 0.45853 0.49791 0.0
C6676 C 0.70538 0.47963 0.49895 0.0
C6677 C 0.69211 0.46953 0.50155 0.0
C6678 C 0.69227 0.45389 0.50205 0.0
C6679 C 0.70566 0.44841 0.50021 0.0
C6680 C 0.67793 0.47512 0.50381 0.0
C6681 C 0.66476 0.46812 0.49371 0.0
C6682 C 0.67724 0.4868 0.51604 0.0
C6683 C 0.6906 0.49337 0.52806 0.0
C6684 C 0.6979 0.48377 0.53726 0.0
C6685 C 0.71063 0.48998 0.54833 0.0
C6686 C 0.7161 0.50579 0.55045 0.0
C6687 C 0.70881 0.51543 0.54153 0.0
C6688 C 0.69609 0.50928 0.53041 0.0
C6689 C 0.61265 0.48043 0.52514 0.0
C6690 C 0.61095 0.4958 0.52733 0.0
C6691 C 0.6247 0.47645 0.51738 0.0
C6692 C 0.6352 0.48781 0.51178 0.0
C6693 C 0.63284 0.50301 0.51287 0.0
C6694 C 0.62067 0.50698 0.52053 0.0
C6695 C 0.64991 0.48427 0.50757 0.0
C6696 C 0.66324 0.49155 0.51748 0.0
C6697 C 0.65065 0.47233 0.49563 0.0
C6698 C 0.637 0.46387 0.48511 0.0
C6699 C 0.62804 0.47169 0.47544 0.0
C6700 C 0.61567 0.46351 0.4649 0.0
C6701 C 0.61214 0.44751 0.46397 0.0
C6702 C 0.62097 0.43965 0.4736 0.0
C6703 C 0.63337 0.44777 0.48411 0.0
H6704 H 0.60259 0.4412 0.45576 0.0
H6705 H 0.72597 0.51058 0.55903 0.0
H6706 H 0.17566 0.12061 0.48283 0.0
H6707 H 0.15001 0.10545 0.48364 0.0
H6708 H 0.16818 0.08114 0.52052 0.0
H6709 H 0.19384 0.09623 0.51975 0.0
H6710 H 0.1476 0.06168 0.4972 0.0
H6711 H 0.14966 0.10887 0.53055 0.0
H6712 H 0.15397 0.13699 0.53656 0.0
H6713 H 0.11832 0.13922 0.49947 0.0
H6714 H 0.11398 0.1111 0.49305 0.0
H6715 H 0.07819 0.02923 0.52685 0.0
H6716 H 0.10377 0.04304 0.52362 0.0
H6717 H 0.0838 0.07005 0.49059 0.0
H6718 H 0.05818 0.05614 0.4936 0.0
H6719 H 0.10526 0.08815 0.51115 0.0
H6720 H 0.10343 0.04199 0.47685 0.0
H6721 H 0.09969 0.01414 0.46886 0.0
H6722 H 0.13447 0.01013 0.50615 0.0
H6723 H 0.13846 0.03799 0.51432 0.0
C6724 C 0.17423 0.11193 0.491 0.0
C6725 C 0.18684 0.10972 0.50129 0.0
C6726 C 0.15953 0.10332 0.49152 0.0
C6727 C 0.15708 0.09221 0.50225 0.0
C6728 C 0.16973 0.08966 0.51218 0.0
C6729 C 0.18439 0.09838 0.5118 0.0
C6730 C 0.14133 0.08353 0.50344 0.0
C6731 C 0.1384 0.06747 0.50045 0.0
C6732 C 0.12915 0.09103 0.50726 0.0
C6733 C 0.13161 0.1079 0.51121 0.0
C6734 C 0.14283 0.11537 0.52359 0.0
C6735 C 0.14526 0.13131 0.52708 0.0
C6736 C 0.13645 0.13989 0.51837 0.0
C6737 C 0.12515 0.13255 0.50619 0.0
C6738 C 0.12269 0.11661 0.50262 0.0
C6739 C 0.07922 0.03787 0.51863 0.0
C6740 C 0.06605 0.04129 0.51024 0.0
C6741 C 0.09391 0.04584 0.51683 0.0
C6742 C 0.09584 0.05752 0.50668 0.0
C6743 C 0.0827 0.06108 0.49845 0.0
C6744 C 0.06802 0.05306 0.50016 0.0
C6745 C 0.1115 0.06624 0.50495 0.0
C6746 C 0.11443 0.08233 0.50787 0.0
C6747 C 0.12366 0.05878 0.50093 0.0
C6748 C 0.12113 0.04202 0.49628 0.0
C6749 C 0.1102 0.03514 0.48341 0.0
C6750 C 0.10809 0.01938 0.47881 0.0
C6751 C 0.11679 0.01036 0.48703 0.0
C6752 C 0.12771 0.01712 0.49981 0.0
C6753 C 0.12994 0.0329 0.5044 0.0
H6754 H 0.1151 0.99814 0.48348 0.0
H6755 H 0.13835 0.15223 0.5211 0.0
H6756 H 0.15544 0.94403 0.78283 0.0
H6757 H 0.16843 0.92197 0.78102 0.0
H6758 H 0.21026 0.95174 0.77337 0.0
H6759 H 0.19701 0.97358 0.77432 0.0
H6760 H 0.20659 0.92801 0.75355 0.0
H6761 H 0.20312 0.93474 0.81044 0.0
H6762 H 0.1896 0.93711 0.83446 0.0
H6763 H 0.16199 0.89247 0.82032 0.0
H6764 H 0.17523 0.88991 0.79613 0.0
H6765 H 0.25603 0.87588 0.75907 0.0
H6766 H 0.24399 0.89729 0.76841 0.0
H6767 H 0.20122 0.86593 0.76853 0.0
H6768 H 0.21339 0.84448 0.75937 0.0
H6769 H 0.20511 0.88983 0.79277 0.0
H6770 H 0.2082 0.88313 0.73624 0.0
H6771 H 0.22107 0.88052 0.71182 0.0
H6772 H 0.24876 0.92528 0.72495 0.0
H6773 H 0.23626 0.92803 0.74963 0.0
C6774 C 0.16745 0.94583 0.78092 0.0
C6775 C 0.17525 0.96048 0.77874 0.0
C6776 C 0.17491 0.93323 0.77997 0.0
C6777 C 0.19046 0.93514 0.77732 0.0
C6778 C 0.19828 0.94989 0.77541 0.0
C6779 C 0.19073 0.96239 0.776 0.0
C6780 C 0.19845 0.92176 0.77569 0.0
C6781 C 0.20648 0.91987 0.76234 0.0
C6782 C 0.19792 0.91072 0.78679 0.0
C6783 C 0.19009 0.91218 0.80143 0.0
C6784 C 0.19412 0.92546 0.81242 0.0
C6785 C 0.18651 0.92684 0.82607 0.0
C6786 C 0.17492 0.91496 0.8289 0.0
C6787 C 0.17096 0.90166 0.81812 0.0
C6788 C 0.17853 0.90023 0.80445 0.0
C6789 C 0.24425 0.87352 0.76178 0.0
C6790 C 0.23565 0.85858 0.75874 0.0
C6791 C 0.23733 0.88575 0.76693 0.0
C6792 C 0.22162 0.88325 0.76887 0.0
C6793 C 0.21334 0.86813 0.76709 0.0
C6794 C 0.2203 0.85588 0.76197 0.0
C6795 C 0.21352 0.89644 0.77091 0.0
C6796 C 0.20535 0.89815 0.78417 0.0
C6797 C 0.21389 0.90735 0.75973 0.0
C6798 C 0.22141 0.90571 0.74488 0.0
C6799 C 0.21713 0.89236 0.734 0.0
C6800 C 0.22435 0.89086 0.7201 0.0
C6801 C 0.23576 0.90271 0.71686 0.0
C6802 C 0.23995 0.91609 0.7275 0.0
C6803 C 0.23281 0.91763 0.74145 0.0
H6804 H 0.24132 0.90153 0.70608 0.0
H6805 H 0.16904 0.91605 0.83947 0.0
H6806 H 0.36649 0.94535 -0.00051 0.0
H6807 H 0.39404 0.95562 0.0036 0.0
H6808 H 0.38496 0.99981 0.0215 0.0
H6809 H 0.3572 0.98942 0.01738 0.0
H6810 H 0.40526 0.99918 0.9972 0.0
H6811 H 0.39715 0.97942 0.04783 0.0
H6812 H 0.38748 0.95936 0.06451 0.0
H6813 H 0.41543 0.92985 0.04378 0.0
H6814 H 0.42512 0.94966 0.02683 0.0
H6815 H 0.48058 0.03261 0.02203 0.0
H6816 H 0.45352 0.02276 0.02407 0.0
H6817 H 0.46058 0.97659 0.01143 0.0
H6818 H 0.48775 0.98652 0.00949 0.0
H6819 H 0.44108 0.97838 0.03415 0.0
H6820 H 0.44558 0.99275 0.9813 0.0
H6821 H 0.45125 0.0077 0.95872 0.0
H6822 H 0.42907 0.04293 0.97875 0.0
H6823 H 0.42319 0.02812 0.00139 0.0
C6824 C 0.3705 0.95727 0.00418 0.0
C6825 C 0.3602 0.9668 0.00813 0.0
C6826 C 0.38605 0.96302 0.00666 0.0
C6827 C 0.39121 0.97826 0.01314 0.0
C6828 C 0.38089 0.98794 0.01669 0.0
C6829 C 0.36527 0.98213 0.01428 0.0
C6830 C 0.40751 0.98419 0.01545 0.0
C6831 C 0.41315 0.99501 0.00557 0.0
C6832 C 0.41749 0.97785 0.02572 0.0
C6833 C 0.4118 0.966 0.03603 0.0
C6834 C 0.40116 0.96862 0.04677 0.0
C6835 C 0.39569 0.9573 0.05628 0.0
C6836 C 0.40083 0.94333 0.05519 0.0
C6837 C 0.41147 0.94067 0.04461 0.0
C6838 C 0.41697 0.95195 0.03508 0.0
C6839 C 0.47635 0.02033 0.02033 0.0
C6840 C 0.48583 0.01015 0.01582 0.0
C6841 C 0.46103 0.01478 0.02128 0.0
C6842 C 0.45527 0.9991 0.01751 0.0
C6843 C 0.46504 0.98876 0.01426 0.0
C6844 C 0.48042 0.99434 0.01334 0.0
C6845 C 0.43887 0.99367 0.01612 0.0
C6846 C 0.43321 0.98283 0.02603 0.0
C6847 C 0.42884 0.99961 0.00547 0.0
C6848 C 0.43415 0.00945 0.99313 0.0
C6849 C 0.44222 0.00384 0.98106 0.0
C6850 C 0.44534 0.01222 0.96818 0.0
C6851 C 0.4405 0.02625 0.96731 0.0
C6852 C 0.43279 0.03206 0.97944 0.0
C6853 C 0.42955 0.02368 0.99228 0.0
H6854 H 0.4426 0.03256 0.95716 0.0
H6855 H 0.39658 0.93458 0.06257 0.0
H6856 H 0.8192 0.56518 0.76554 0.0
H6857 H 0.81042 0.58938 0.76275 0.0
H6858 H 0.84188 0.61111 0.80373 0.0
H6859 H 0.8511 0.58715 0.80631 0.0
H6860 H 0.81155 0.61805 0.80211 0.0
H6861 H 0.85367 0.61663 0.77129 0.0
H6862 H 0.86892 0.60624 0.75151 0.0
H6863 H 0.83248 0.60513 0.71417 0.0
H6864 H 0.81685 0.61518 0.73377 0.0
H6865 H 0.81242 0.6943 0.77559 0.0
H6866 H 0.81753 0.67145 0.7878 0.0
H6867 H 0.78938 0.64253 0.74831 0.0
H6868 H 0.78459 0.66526 0.73597 0.0
H6869 H 0.82087 0.64099 0.75186 0.0
H6870 H 0.7779 0.6401 0.78299 0.0
H6871 H 0.7619 0.64845 0.80316 0.0
H6872 H 0.79975 0.65336 0.83981 0.0
H6873 H 0.81602 0.6452 0.81983 0.0
C6874 C 0.82407 0.57509 0.77404 0.0
C6875 C 0.83585 0.57448 0.78604 0.0
C6876 C 0.8191 0.58879 0.77244 0.0
C6877 C 0.8258 0.60182 0.78291 0.0
C6878 C 0.83675 0.60101 0.79559 0.0
C6879 C 0.84185 0.58736 0.7971 0.0
C6880 C 0.82179 0.61647 0.78011 0.0
C6881 C 0.81374 0.62331 0.79128 0.0
C6882 C 0.82473 0.62293 0.76586 0.0
C6883 C 0.834 0.6165 0.75408 0.0
C6884 C 0.8488 0.61396 0.75891 0.0
C6885 C 0.85754 0.60817 0.74771 0.0
C6886 C 0.85165 0.60498 0.7316 0.0
C6887 C 0.83701 0.60756 0.72666 0.0
C6888 C 0.82821 0.6133 0.73782 0.0
C6889 C 0.80725 0.683 0.76972 0.0
C6890 C 0.79863 0.68125 0.7547 0.0
C6891 C 0.80993 0.67009 0.77677 0.0
C6892 C 0.80375 0.65549 0.76888 0.0
C6893 C 0.79415 0.65381 0.75448 0.0
C6894 C 0.79166 0.66667 0.74735 0.0
C6895 C 0.80989 0.64226 0.77351 0.0
C6896 C 0.81869 0.63583 0.76276 0.0
C6897 C 0.80763 0.63623 0.78813 0.0
C6898 C 0.79826 0.64236 0.79985 0.0
C6899 C 0.78291 0.64329 0.79528 0.0
C6900 C 0.77376 0.64788 0.80671 0.0
C6901 C 0.77983 0.65152 0.82274 0.0
C6902 C 0.79508 0.65062 0.82738 0.0
C6903 C 0.80426 0.64602 0.81601 0.0
H6904 H 0.77269 0.65498 0.83158 0.0
H6905 H 0.85845 0.60055 0.72295 0.0
H6906 H 0.82016 0.5966 0.99894 0.0
H6907 H 0.84217 0.58338 4e-05 0.0
H6908 H 0.87269 0.62671 0.01467 0.0
H6909 H 0.85065 0.63988 0.01332 0.0
H6910 H 0.8849 0.61007 0.99345 0.0
H6911 H 0.86211 0.60121 0.04157 0.0
H6912 H 0.84164 0.59282 0.05827 0.0
H6913 H 0.83564 0.5468 0.03526 0.0
H6914 H 0.85593 0.55497 0.01824 0.0
H6915 H 0.94891 0.58346 0.03138 0.0
H6916 H 0.92758 0.59539 0.02176 0.0
H6917 H 0.89982 0.55058 0.00731 0.0
H6918 H 0.92121 0.53868 0.01716 0.0
H6919 H 0.88578 0.5671 0.02659 0.0
H6920 H 0.91034 0.57661 0.9793 0.0
H6921 H 0.93156 0.58584 0.96381 0.0
H6922 H 0.93526 0.63153 0.98695 0.0
H6923 H 0.91414 0.62255 0.00267 0.0
C6924 C 0.8316 0.60324 0.00229 0.0
C6925 C 0.83381 0.6192 0.00605 0.0
C6926 C 0.84416 0.59571 0.003 0.0
C6927 C 0.85913 0.60401 0.00762 0.0
C6928 C 0.8613 0.62004 0.01108 0.0
C6929 C 0.84874 0.62756 0.01036 0.0
C6930 C 0.87248 0.59599 0.00907 0.0
C6931 C 0.88514 0.60075 0.00081 0.0
C6932 C 0.87276 0.58363 0.01842 0.0
C6933 C 0.8604 0.57874 0.02849 0.0
C6934 C 0.85631 0.58933 0.03995 0.0
C6935 C 0.84477 0.58461 0.0495 0.0
C6936 C 0.83731 0.5693 0.04779 0.0
C6937 C 0.8414 0.55867 0.03654 0.0
C6938 C 0.85292 0.56333 0.02694 0.0
C6939 C 0.93847 0.5762 0.0255 0.0
C6940 C 0.93676 0.56017 0.02474 0.0
C6941 C 0.92623 0.58302 0.02004 0.0
C6942 C 0.91202 0.57392 0.01374 0.0
C6943 C 0.91065 0.55786 0.01208 0.0
C6944 C 0.92292 0.55105 0.01752 0.0
C6945 C 0.8982 0.58109 0.01088 0.0
C6946 C 0.88547 0.57625 0.01902 0.0
C6947 C 0.89796 0.59348 0.00157 0.0
C6948 C 0.91074 0.59888 0.99224 0.0
C6949 C 0.91577 0.5886 0.98118 0.0
C6950 C 0.92775 0.5938 0.97233 0.0
C6951 C 0.93478 0.60926 0.97442 0.0
C6952 C 0.92981 0.61956 0.98534 0.0
C6953 C 0.91782 0.61443 0.9942 0.0
H6954 H 0.94405 0.61326 0.96755 0.0
H6955 H 0.82839 0.56566 0.05522 0.0
H6956 H 0.16886 0.11531 0.764 0.0
H6957 H 0.18464 0.1405 0.76337 0.0
H6958 H 0.21758 0.1308 0.79986 0.0
H6959 H 0.20195 0.10535 0.8004 0.0
H6960 H 0.21172 0.16071 0.80489 0.0
H6961 H 0.22529 0.12811 0.76106 0.0
H6962 H 0.21924 0.1099 0.73649 0.0
H6963 H 0.19707 0.14205 0.71278 0.0
H6964 H 0.20292 0.16039 0.73724 0.0
H6965 H 0.26652 0.22723 0.79581 0.0
H6966 H 0.25341 0.20138 0.79912 0.0
H6967 H 0.22821 0.19856 0.7523 0.0
H6968 H 0.24355 0.22293 0.74806 0.0
H6969 H 0.23108 0.17355 0.75381 0.0
H6970 H 0.21481 0.20591 0.79619 0.0
H6971 H 0.21793 0.22416 0.82063 0.0
H6972 H 0.24101 0.19416 0.84676 0.0
H6973 H 0.23811 0.1758 0.82247 0.0
C6974 C 0.17952 0.1184 0.7718 0.0
C6975 C 0.18416 0.10809 0.78209 0.0
C6976 C 0.18852 0.1329 0.77149 0.0
C6977 C 0.20243 0.13753 0.78141 0.0
C6978 C 0.20691 0.12751 0.79206 0.0
C6979 C 0.19791 0.11294 0.79237 0.0
C6980 C 0.21244 0.15263 0.78027 0.0
C6981 C 0.21608 0.16356 0.79377 0.0
C6982 C 0.21782 0.15652 0.7657 0.0
C6983 C 0.21448 0.14556 0.75097 0.0
C6984 C 0.21908 0.13125 0.75061 0.0
C6985 C 0.2157 0.12092 0.73671 0.0
C6986 C 0.20776 0.1248 0.72309 0.0
C6987 C 0.20323 0.13905 0.72333 0.0
C6988 C 0.2066 0.14943 0.73719 0.0
C6989 C 0.25844 0.22081 0.78613 0.0
C6990 C 0.2559 0.22712 0.77173 0.0
C6991 C 0.25056 0.20614 0.78817 0.0
C6992 C 0.23915 0.19788 0.77627 0.0
C6993 C 0.23681 0.20437 0.76183 0.0
C6994 C 0.2454 0.21853 0.75945 0.0
C6995 C 0.23001 0.18235 0.77832 0.0
C6996 C 0.22664 0.17109 0.76499 0.0
C6997 C 0.22446 0.17842 0.79296 0.0
C6998 C 0.2264 0.18958 0.80748 0.0
C6999 C 0.22064 0.20327 0.80713 0.0
C7000 C 0.22235 0.21362 0.82096 0.0
C7001 C 0.22971 0.21034 0.83522 0.0
C7002 C 0.23534 0.1967 0.8357 0.0
C7003 C 0.23366 0.18632 0.82192 0.0
H7004 H 0.23101 0.21836 0.84592 0.0
H7005 H 0.20514 0.11678 0.71235 0.0
H7006 H 0.34832 0.92857 0.26724 0.0
H7007 H 0.33793 0.90133 0.26612 0.0
H7008 H 0.2941 0.9117 0.27682 0.0
H7009 H 0.30474 0.93929 0.27843 0.0
H7010 H 0.30556 0.89091 0.29524 0.0
H7011 H 0.29826 0.89933 0.23927 0.0
H7012 H 0.3073 0.90908 0.2148 0.0
H7013 H 0.3411 0.88015 0.21541 0.0
H7014 H 0.3324 0.87038 0.24001 0.0
H7015 H 0.26204 0.81744 0.2746 0.0
H7016 H 0.27238 0.84474 0.27542 0.0
H7017 H 0.31618 0.83442 0.26472 0.0
H7018 H 0.30608 0.80713 0.26409 0.0
H7019 H 0.30524 0.85509 0.24647 0.0
H7020 H 0.31516 0.84705 0.30072 0.0
H7021 H 0.31104 0.8389 0.32731 0.0
H7022 H 0.27687 0.86707 0.33174 0.0
H7023 H 0.28066 0.87528 0.30509 0.0
C7024 C 0.33639 0.92496 0.26904 0.0
C7025 C 0.32704 0.93564 0.27249 0.0
C7026 C 0.33054 0.90955 0.26845 0.0
C7027 C 0.31526 0.90481 0.27101 0.0
C7028 C 0.3059 0.91544 0.27463 0.0
C7029 C 0.31185 0.93098 0.27545 0.0
C7030 C 0.30936 0.88861 0.27039 0.0
C7031 C 0.30508 0.88302 0.28453 0.0
C7032 C 0.30976 0.8786 0.25655 0.0
C7033 C 0.3147 0.88416 0.2415 0.0
C7034 C 0.30765 0.89508 0.23421 0.0
C7035 C 0.31272 0.90062 0.22032 0.0
C7036 C 0.32477 0.89525 0.21356 0.0
C7037 C 0.33175 0.88429 0.22065 0.0
C7038 C 0.32674 0.87873 0.23454 0.0
C7039 C 0.27382 0.82102 0.27227 0.0
C7040 C 0.28333 0.81037 0.26929 0.0
C7041 C 0.27968 0.83649 0.27289 0.0
C7042 C 0.295 0.84125 0.27047 0.0
C7043 C 0.30434 0.83067 0.26675 0.0
C7044 C 0.29851 0.81519 0.2662 0.0
C7045 C 0.30105 0.8574 0.27122 0.0
C7046 C 0.30549 0.86297 0.25714 0.0
C7047 C 0.30115 0.86734 0.28523 0.0
C7048 C 0.2981 0.86168 0.30082 0.0
C7049 C 0.30659 0.85133 0.30725 0.0
C7050 C 0.30439 0.84677 0.32237 0.0
C7051 C 0.29376 0.85252 0.33123 0.0
C7052 C 0.28515 0.86268 0.32489 0.0
C7053 C 0.28732 0.86729 0.30977 0.0
H7054 H 0.29222 0.84913 0.34302 0.0
H7055 H 0.32869 0.89956 0.20282 0.0
H7056 H 0.56491 0.36343 0.56068 0.0
H7057 H 0.563 0.38741 0.55002 0.0
H7058 H 0.51466 0.37998 0.55487 0.0
H7059 H 0.516 0.35522 0.56386 0.0
H7060 H 0.51721 0.3931 0.53044 0.0
H7061 H 0.5472 0.40589 0.58214 0.0
H7062 H 0.56901 0.40556 0.60228 0.0
H7063 H 0.60045 0.42522 0.57098 0.0
H7064 H 0.57885 0.42539 0.55054 0.0
H7065 H 0.50632 0.47064 0.5304 0.0
H7066 H 0.50903 0.44512 0.53673 0.0
H7067 H 0.55588 0.45368 0.52591 0.0
H7068 H 0.55309 0.47939 0.51932 0.0
H7069 H 0.55495 0.43997 0.55182 0.0
H7070 H 0.5248 0.42897 0.50099 0.0
H7071 H 0.50311 0.4289 0.48059 0.0
H7072 H 0.47185 0.40607 0.5102 0.0
H7073 H 0.49329 0.40628 0.53095 0.0
C7074 C 0.55371 0.36652 0.55933 0.0
C7075 C 0.54069 0.35684 0.56366 0.0
C7076 C 0.55271 0.38068 0.5534 0.0
C7077 C 0.53876 0.38617 0.55201 0.0
C7078 C 0.5257 0.37643 0.5559 0.0
C7079 C 0.52659 0.3621 0.56142 0.0
C7080 C 0.53766 0.40188 0.54661 0.0
C7081 C 0.52539 0.40333 0.53538 0.0
C7082 C 0.54848 0.41548 0.55241 0.0
C7083 C 0.56143 0.41549 0.56475 0.0
C7084 C 0.55877 0.41005 0.57952 0.0
C7085 C 0.5711 0.40989 0.59098 0.0
C7086 C 0.58611 0.41532 0.58789 0.0
C7087 C 0.58882 0.42097 0.57334 0.0
C7088 C 0.57655 0.42109 0.56182 0.0
C7089 C 0.51712 0.46709 0.52895 0.0
C7090 C 0.52931 0.47722 0.52388 0.0
C7091 C 0.5187 0.45232 0.53268 0.0
C7092 C 0.5326 0.44702 0.53158 0.0
C7093 C 0.54494 0.45721 0.52681 0.0
C7094 C 0.54331 0.47201 0.52297 0.0
C7095 C 0.53437 0.43118 0.53592 0.0
C7096 C 0.54677 0.42972 0.54692 0.0
C7097 C 0.52363 0.4176 0.52995 0.0
C7098 C 0.51067 0.41775 0.5176 0.0
C7099 C 0.51329 0.42407 0.50324 0.0
C7100 C 0.50104 0.42397 0.49159 0.0
C7101 C 0.48613 0.41743 0.49408 0.0
C7102 C 0.48341 0.41109 0.50827 0.0
C7103 C 0.49561 0.41121 0.51999 0.0
H7104 H 0.47668 0.41729 0.48501 0.0
H7105 H 0.59563 0.41519 0.59678 0.0
H7106 H 0.42228 0.77897 0.38186 0.0
H7107 H 0.39884 0.77944 0.36476 0.0
H7108 H 0.40099 0.73524 0.34062 0.0
H7109 H 0.42493 0.73492 0.35735 0.0
H7110 H 0.3924 0.75324 0.31902 0.0
H7111 H 0.37472 0.7395 0.3684 0.0
H7112 H 0.37351 0.74178 0.39754 0.0
H7113 H 0.36158 0.7863 0.39603 0.0
H7114 H 0.36284 0.78433 0.36689 0.0
H7115 H 0.31525 0.74229 0.28013 0.0
H7116 H 0.33915 0.73989 0.29591 0.0
H7117 H 0.33883 0.78273 0.32412 0.0
H7118 H 0.3149 0.78492 0.30848 0.0
H7119 H 0.34634 0.76393 0.34342 0.0
H7120 H 0.36409 0.77768 0.29379 0.0
H7121 H 0.36477 0.77502 0.26457 0.0
H7122 H 0.37631 0.73037 0.26628 0.0
H7123 H 0.3755 0.73267 0.2955 0.0
C7124 C 0.41797 0.76936 0.37283 0.0
C7125 C 0.42579 0.75692 0.37113 0.0
C7126 C 0.40433 0.76958 0.3631 0.0
C7127 C 0.39783 0.7573 0.35138 0.0
C7128 C 0.40561 0.74488 0.34953 0.0
C7129 C 0.41931 0.74466 0.35929 0.0
C7130 C 0.38298 0.75751 0.3412 0.0
C7131 C 0.38228 0.75536 0.32439 0.0
C7132 C 0.36968 0.76054 0.34798 0.0
C7133 C 0.369 0.76182 0.3655 0.0
C7134 C 0.37195 0.74982 0.37431 0.0
C7135 C 0.37122 0.75104 0.39082 0.0
C7136 C 0.3675 0.76419 0.39864 0.0
C7137 C 0.36447 0.77613 0.38996 0.0
C7138 C 0.36516 0.77495 0.37344 0.0
C7139 C 0.32028 0.75113 0.28977 0.0
C7140 C 0.31293 0.76356 0.29336 0.0
C7141 C 0.33406 0.74984 0.29874 0.0
C7142 C 0.34107 0.76116 0.31132 0.0
C7143 C 0.33375 0.7737 0.31469 0.0
C7144 C 0.31994 0.77491 0.3058 0.0
C7145 C 0.35577 0.7599 0.3212 0.0
C7146 C 0.35644 0.76181 0.33799 0.0
C7147 C 0.369 0.75666 0.31437 0.0
C7148 C 0.36961 0.7553 0.29682 0.0
C7149 C 0.36669 0.76726 0.28793 0.0
C7150 C 0.36711 0.76582 0.27137 0.0
C7151 C 0.37057 0.75253 0.26358 0.0
C7152 C 0.37363 0.74065 0.27233 0.0
C7153 C 0.37321 0.74202 0.2889 0.0
H7154 H 0.37089 0.75144 0.25076 0.0
H7155 H 0.36694 0.76511 0.41142 0.0
H7156 H 0.04716 0.70163 0.03927 0.0
H7157 H 0.04494 0.67423 0.02975 0.0
H7158 H 0.01984 0.66205 0.06926 0.0
H7159 H 0.02161 0.68931 0.07846 0.0
H7160 H 0.04422 0.64663 0.06637 0.0
H7161 H 1.00178 0.65665 0.03278 0.0
H7162 H 0.98767 0.66845 0.01232 0.0
H7163 H 0.01538 0.65382 0.97711 0.0
H7164 H 0.02987 0.64217 0.99743 0.0
H7165 H 0.01881 0.56646 0.04844 0.0
H7166 H 0.02055 0.59408 0.05387 0.0
H7167 H 0.04123 0.60075 0.01037 0.0
H7168 H 0.03939 0.57288 0.00471 0.0
H7169 H 0.02022 0.61934 0.01387 0.0
H7170 H 0.06247 0.6091 0.04707 0.0
H7171 H 0.07647 0.59695 0.06729 0.0
H7172 H 0.04953 0.61222 0.10298 0.0
H7173 H 0.03513 0.62418 0.08288 0.0
C7174 C 0.04104 0.6931 0.04583 0.0
C7175 C 0.03456 0.69776 0.05966 0.0
C7176 C 0.03971 0.67739 0.04032 0.0
C7177 C 0.03217 0.66587 0.0487 0.0
C7178 C 0.02566 0.67056 0.06247 0.0
C7179 C 0.02666 0.68622 0.06773 0.0
C7180 C 0.03193 0.64902 0.04393 0.0
C7181 C 0.03879 0.64067 0.05494 0.0
C7182 C 0.02532 0.64115 0.02879 0.0
C7183 C 0.01711 0.64878 0.01673 0.0
C7184 C 0.00507 0.65619 0.02076 0.0
C7185 C 0.99695 0.66279 0.00916 0.0
C7186 C 1.00068 0.66195 0.99345 0.0
C7187 C 0.01255 0.65452 0.9893 0.0
C7188 C 0.02073 0.64793 0.00086 0.0
C7189 C 0.0238 0.57371 0.03996 0.0
C7190 C 0.02907 0.56721 0.02614 0.0
C7191 C 0.02484 0.58965 0.04316 0.0
C7192 C 0.03119 0.59978 0.03269 0.0
C7193 C 0.03631 0.59335 0.01874 0.0
C7194 C 0.03535 0.57733 0.01556 0.0
C7195 C 0.03239 0.61695 0.03643 0.0
C7196 C 0.02573 0.62534 0.02526 0.0
C7197 C 0.03926 0.62495 0.0514 0.0
C7198 C 0.0476 0.61739 0.06341 0.0
C7199 C 0.05939 0.6097 0.05918 0.0
C7200 C 0.06743 0.60287 0.07063 0.0
C7201 C 0.06387 0.60379 0.08641 0.0
C7202 C 0.05225 0.6115 0.09075 0.0
C7203 C 0.04414 0.61829 0.07933 0.0
H7204 H 0.07015 0.59855 0.09528 0.0
H7205 H 0.99433 0.66701 0.98447 0.0
H7206 H 0.0731 0.28598 0.87027 0.0
H7207 H 0.09551 0.2871 0.85559 0.0
H7208 H 0.10018 0.24188 0.86693 0.0
H7209 H 0.07824 0.24096 0.88236 0.0
H7210 H 0.12756 0.25893 0.86962 0.0
H7211 H 0.08478 0.25 0.82841 0.0
H7212 H 0.06133 0.25519 0.8137 0.0
H7213 H 0.08547 0.29941 0.80556 0.0
H7214 H 0.10899 0.29458 0.8204 0.0
H7215 H 0.18821 0.26003 0.81811 0.0
H7216 H 0.16467 0.25213 0.83064 0.0
H7217 H 0.14816 0.29227 0.81678 0.0
H7218 H 0.17051 0.29911 0.80305 0.0
H7219 H 0.12554 0.27334 0.8144 0.0
H7220 H 0.16739 0.28441 0.85798 0.0
H7221 H 0.19078 0.28039 0.87381 0.0
H7222 H 0.16903 0.23437 0.8788 0.0
H7223 H 0.14562 0.23803 0.86277 0.0
C7224 C 0.07892 0.27628 0.86986 0.0
C7225 C 0.07358 0.26334 0.87761 0.0
C7226 C 0.09172 0.27686 0.86119 0.0
C7227 C 0.09955 0.26446 0.85976 0.0
C7228 C 0.0944 0.25161 0.86764 0.0
C7229 C 0.08164 0.25104 0.87638 0.0
C7230 C 0.11318 0.26499 0.85028 0.0
C7231 C 0.12707 0.26196 0.85747 0.0
C7232 C 0.11281 0.26906 0.83444 0.0
C7233 C 0.09861 0.27196 0.82562 0.0
C7234 C 0.08505 0.26087 0.82359 0.0
C7235 C 0.07175 0.26375 0.81521 0.0
C7236 C 0.0719 0.27764 0.80873 0.0
C7237 C 0.08536 0.28867 0.81059 0.0
C7238 C 0.09867 0.28586 0.81898 0.0
C7239 C 0.17939 0.26697 0.81746 0.0
C7240 C 0.18161 0.28047 0.80979 0.0
C7241 C 0.16596 0.2626 0.82495 0.0
C7242 C 0.15453 0.2718 0.8253 0.0
C7243 C 0.15658 0.28486 0.81701 0.0
C7244 C 0.16965 0.28895 0.80924 0.0
C7245 C 0.14038 0.26826 0.83403 0.0
C7246 C 0.12621 0.27045 0.8266 0.0
C7247 C 0.14062 0.26371 0.84975 0.0
C7248 C 0.15486 0.26142 0.85897 0.0
C7249 C 0.16767 0.27338 0.8623 0.0
C7250 C 0.18092 0.27117 0.87133 0.0
C7251 C 0.18141 0.25712 0.87725 0.0
C7252 C 0.16866 0.24523 0.87415 0.0
C7253 C 0.15542 0.24736 0.86507 0.0
H7254 H 0.19166 0.25545 0.88428 0.0
H7255 H 0.0616 0.27983 0.80223 0.0
H7256 H 0.51509 0.70515 0.88765 0.0
H7257 H 0.51414 0.68247 0.90192 0.0
H7258 H 0.54393 0.70939 0.94147 0.0
H7259 H 0.54518 0.73208 0.92705 0.0
H7260 H 0.55242 0.68348 0.93789 0.0
H7261 H 0.503 0.6964 0.94167 0.0
H7262 H 0.47789 0.70243 0.93238 0.0
H7263 H 0.46562 0.65862 0.90406 0.0
H7264 H 0.49074 0.65242 0.91302 0.0
H7265 H 0.53126 0.62768 0.99395 0.0
H7266 H 0.53764 0.65004 0.97917 0.0
H7267 H 0.51399 0.62352 0.93596 0.0
H7268 H 0.50773 0.60126 0.9507 0.0
H7269 H 0.50294 0.64953 0.94224 0.0
H7270 H 0.55287 0.63678 0.9397 0.0
H7271 H 0.57789 0.63125 0.95005 0.0
H7272 H 0.58885 0.67537 0.97784 0.0
H7273 H 0.5638 0.6811 0.96781 0.0
C7274 C 0.52134 0.70634 0.89945 0.0
C7275 C 0.53015 0.72062 0.90613 0.0
C7276 C 0.52077 0.69327 0.90769 0.0
C7277 C 0.52874 0.69405 0.92305 0.0
C7278 C 0.53764 0.70828 0.92969 0.0
C7279 C 0.53835 0.72133 0.92138 0.0
C7280 C 0.52791 0.68007 0.93205 0.0
C7281 C 0.54153 0.67622 0.939 0.0
C7282 C 0.51382 0.67024 0.93347 0.0
C7283 C 0.49881 0.67402 0.92788 0.0
C7284 C 0.495 0.68812 0.93334 0.0
C7285 C 0.48075 0.69155 0.92816 0.0
C7286 C 0.47018 0.68093 0.9176 0.0
C7287 C 0.47383 0.66685 0.91221 0.0
C7288 C 0.48806 0.66336 0.91735 0.0
C7289 C 0.52812 0.62641 0.98114 0.0
C7290 C 0.51934 0.61252 0.97343 0.0
C7291 C 0.53163 0.63929 0.97269 0.0
C7292 C 0.52626 0.63862 0.95636 0.0
C7293 C 0.51828 0.62445 0.9485 0.0
C7294 C 0.5149 0.61161 0.9569 0.0
C7295 C 0.52742 0.65287 0.94786 0.0
C7296 C 0.51381 0.6568 0.94109 0.0
C7297 C 0.54148 0.66284 0.94683 0.0
C7298 C 0.55638 0.65928 0.95316 0.0
C7299 C 0.56053 0.64523 0.94817 0.0
C7300 C 0.57474 0.64208 0.95394 0.0
C7301 C 0.58493 0.65293 0.96464 0.0
C7302 C 0.58093 0.66696 0.96958 0.0
C7303 C 0.56673 0.67017 0.96385 0.0
H7304 H 0.59594 0.65048 0.96906 0.0
H7305 H 0.45915 0.6836 0.91362 0.0
H7306 H 0.09361 0.76017 0.74805 0.0
H7307 H 0.12089 0.76178 0.75754 0.0
H7308 H 0.1318 0.76182 0.70887 0.0
H7309 H 0.10456 0.75942 0.69949 0.0
H7310 H 0.14692 0.7443 0.72115 0.0
H7311 H 0.13989 0.79461 0.74136 0.0
H7312 H 0.12915 0.81398 0.75721 0.0
H7313 H 0.14364 0.79629 0.80047 0.0
H7314 H 0.1542 0.77661 0.78487 0.0
H7315 H 0.22788 0.77052 0.73353 0.0
H7316 H 0.20018 0.76886 0.72801 0.0
H7317 H 0.19429 0.75759 0.77577 0.0
H7318 H 0.22218 0.75894 0.78131 0.0
H7319 H 0.17664 0.77983 0.76633 0.0
H7320 H 0.18418 0.73029 0.74606 0.0
H7321 H 0.19477 0.71084 0.7302 0.0
H7322 H 0.17934 0.72781 0.68686 0.0
H7323 H 0.1688 0.74751 0.70245 0.0
C7324 C 0.10188 0.76061 0.73942 0.0
C7325 C 0.09686 0.75964 0.72298 0.0
C7326 C 0.11759 0.76165 0.74487 0.0
C7327 C 0.1288 0.7621 0.73404 0.0
C7328 C 0.12365 0.76141 0.71763 0.0
C7329 C 0.108 0.76009 0.71221 0.0
C7330 C 0.14568 0.76245 0.73939 0.0
C7331 C 0.15336 0.75233 0.73088 0.0
C7332 C 0.15433 0.77238 0.75255 0.0
C7333 C 0.14763 0.78397 0.7619 0.0
C7334 C 0.14061 0.79472 0.75423 0.0
C7335 C 0.13458 0.80578 0.76318 0.0
C7336 C 0.13565 0.80633 0.77983 0.0
C7337 C 0.14276 0.79582 0.78757 0.0
C7338 C 0.14876 0.7847 0.77868 0.0
C7339 C 0.22076 0.76763 0.74291 0.0
C7340 C 0.22745 0.76485 0.75791 0.0
C7341 C 0.2048 0.76666 0.7397 0.0
C7342 C 0.19491 0.76308 0.75141 0.0
C7343 C 0.20153 0.76041 0.76647 0.0
C7344 C 0.21754 0.76109 0.76961 0.0
C7345 C 0.17775 0.76204 0.74772 0.0
C7346 C 0.17009 0.77191 0.75657 0.0
C7347 C 0.16906 0.75197 0.73481 0.0
C7348 C 0.17588 0.74051 0.72545 0.0
C7349 C 0.18324 0.73003 0.73316 0.0
C7350 C 0.18921 0.71893 0.72422 0.0
C7351 C 0.18783 0.71815 0.70755 0.0
C7352 C 0.18046 0.72846 0.69978 0.0
C7353 C 0.17449 0.7396 0.70866 0.0
H7354 H 0.19241 0.7095 0.70065 0.0
H7355 H 0.13102 0.81493 0.78674 0.0
H7356 H 0.04617 0.38383 0.39447 0.0
H7357 H 0.04516 0.40764 0.41096 0.0
H7358 H 0.03214 0.38169 0.44974 0.0
H7359 H 0.03234 0.35787 0.43291 0.0
H7360 H 0.01606 0.40168 0.44948 0.0
H7361 H 0.07063 0.40677 0.44719 0.0
H7362 H 0.09467 0.40833 0.4346 0.0
H7363 H 0.08429 0.44637 0.41074 0.0
H7364 H 0.06013 0.44494 0.42306 0.0
H7365 H 0.02241 0.46589 0.5073 0.0
H7366 H 0.02562 0.44257 0.49203 0.0
H7367 H 0.04149 0.46876 0.45442 0.0
H7368 H 0.04063 0.49247 0.47103 0.0
H7369 H 0.05622 0.44843 0.45417 0.0
H7370 H 1.0012 0.44304 0.45633 0.0
H7371 H 0.97745 0.44156 0.46945 0.0
H7372 H 0.98867 0.40408 0.49375 0.0
H7373 H 0.01254 0.40543 0.48089 0.0
C7374 C 0.04323 0.38321 0.40657 0.0
C7375 C 0.03935 0.36884 0.4123 0.0
C7376 C 0.04275 0.39692 0.41612 0.0
C7377 C 0.03882 0.39678 0.43191 0.0
C7378 C 0.03516 0.38238 0.43768 0.0
C7379 C 0.03532 0.36867 0.42801 0.0
C7380 C 0.03785 0.4114 0.44219 0.0
C7381 C 0.02499 0.41181 0.45061 0.0
C7382 C 0.04916 0.42499 0.44356 0.0
C7383 C 0.06351 0.42562 0.4359 0.0
C7384 C 0.07342 0.41537 0.43914 0.0
C7385 C 0.08708 0.41626 0.43208 0.0
C7386 C 0.09099 0.42741 0.42184 0.0
C7387 C 0.08125 0.43772 0.41865 0.0
C7388 C 0.06757 0.43688 0.42567 0.0
C7389 C 0.02726 0.46688 0.49617 0.0
C7390 C 0.03172 0.48137 0.49087 0.0
C7391 C 0.02854 0.45328 0.48698 0.0
C7392 C 0.03338 0.45348 0.4716 0.0
C7393 C 0.0377 0.46797 0.46616 0.0
C7394 C 0.03708 0.48165 0.4757 0.0
C7395 C 0.03435 0.43881 0.46136 0.0
C7396 C 0.04723 0.43835 0.45297 0.0
C7397 C 0.02303 0.42517 0.46001 0.0
C7398 C 0.0087 0.42443 0.46775 0.0
C7399 C 0.99863 0.43454 0.46454 0.0
C7400 C 0.98515 0.43372 0.47192 0.0
C7401 C 0.98157 0.42276 0.48245 0.0
C7402 C 0.99145 0.41258 0.4856 0.0
C7403 C 0.00495 0.41335 0.47826 0.0
H7404 H 0.97113 0.42214 0.48815 0.0
H7405 H 0.10158 0.42809 0.41641 0.0
H7406 H 0.42904 0.22897 0.21798 0.0
H7407 H 0.40465 0.23077 0.22822 0.0
H7408 H 0.41694 0.28007 0.23391 0.0
H7409 H 0.44181 0.27838 0.2248 0.0
H7410 H 0.40185 0.27288 0.25723 0.0
H7411 H 0.39113 0.25591 0.20052 0.0
H7412 H 0.39155 0.2384 0.17625 0.0
H7413 H 0.36634 0.20113 0.19723 0.0
H7414 H 0.36598 0.21838 0.22172 0.0
H7415 H 0.32772 0.29116 0.26133 0.0
H7416 H 0.35293 0.28765 0.25496 0.0
H7417 H 0.33646 0.23881 0.24611 0.0
H7418 H 0.31079 0.24271 0.25177 0.0
H7419 H 0.35394 0.24445 0.22574 0.0
H7420 H 0.3632 0.2612 0.28194 0.0
H7421 H 0.36306 0.27821 0.30666 0.0
H7422 H 0.39114 0.31508 0.28782 0.0
H7423 H 0.39125 0.29838 0.26288 0.0
C7424 C 0.4268 0.24026 0.2216 0.0
C7425 C 0.43772 0.25351 0.22016 0.0
C7426 C 0.41255 0.24128 0.2273 0.0
C7427 C 0.40841 0.2556 0.2315 0.0
C7428 C 0.41948 0.26881 0.23062 0.0
C7429 C 0.4338 0.26781 0.22512 0.0
C7430 C 0.39262 0.25692 0.23649 0.0
C7431 C 0.3914 0.26676 0.2502 0.0
C7432 C 0.3787 0.24867 0.22783 0.0
C7433 C 0.37865 0.2384 0.21299 0.0
C7434 C 0.38573 0.24397 0.19997 0.0
C7435 C 0.38597 0.23409 0.18619 0.0
C7436 C 0.37901 0.21865 0.18521 0.0
C7437 C 0.37175 0.21308 0.19801 0.0
C7438 C 0.37152 0.2229 0.21184 0.0
C7439 C 0.32946 0.27969 0.25843 0.0
C7440 C 0.3171 0.26732 0.25756 0.0
C7441 C 0.3441 0.27758 0.25473 0.0
C7442 C 0.34721 0.26284 0.25046 0.0
C7443 C 0.33477 0.25037 0.24944 0.0
C7444 C 0.31997 0.25259 0.25277 0.0
C7445 C 0.36308 0.26054 0.24645 0.0
C7446 C 0.36434 0.25053 0.2329 0.0
C7447 C 0.37703 0.26855 0.25537 0.0
C7448 C 0.37712 0.27856 0.27046 0.0
C7449 C 0.36927 0.27296 0.28303 0.0
C7450 C 0.3692 0.28255 0.29708 0.0
C7451 C 0.37705 0.29773 0.29879 0.0
C7452 C 0.38504 0.30333 0.28647 0.0
C7453 C 0.38512 0.2938 0.27237 0.0
H7454 H 0.37697 0.30514 0.30967 0.0
H7455 H 0.37922 0.21102 0.17453 0.0
H7456 H 0.59722 0.54636 0.36329 0.0
H7457 H 0.5856 0.54473 0.38823 0.0
H7458 H 0.56359 0.49802 0.37224 0.0
H7459 H 0.57475 0.49974 0.34692 0.0
H7460 H 0.54425 0.51288 0.38714 0.0
H7461 H 0.59606 0.5063 0.39888 0.0
H7462 H 0.62425 0.51252 0.40011 0.0
H7463 H 0.62481 0.55457 0.42962 0.0
H7464 H 0.59659 0.54873 0.42834 0.0
H7465 H 0.53768 0.49335 0.46985 0.0
H7466 H 0.54628 0.49388 0.44296 0.0
H7467 H 0.55 0.54302 0.44736 0.0
H7468 H 0.54035 0.54235 0.47363 0.0
H7469 H 0.5781 0.52583 0.43843 0.0
H7470 H 0.52573 0.53242 0.42547 0.0
H7471 H 0.49775 0.52504 0.42535 0.0
H7472 H 0.49847 0.48185 0.39854 0.0
H7473 H 0.52658 0.48881 0.39893 0.0
C7474 C 0.58974 0.53579 0.36492 0.0
C7475 C 0.58701 0.52317 0.35302 0.0
C7476 C 0.58321 0.53482 0.37931 0.0
C7477 C 0.57388 0.52117 0.38228 0.0
C7478 C 0.5708 0.50866 0.3703 0.0
C7479 C 0.57732 0.50962 0.35586 0.0
C7480 C 0.56762 0.51992 0.398 0.0
C7481 C 0.5517 0.51556 0.39832 0.0
C7482 C 0.57725 0.52354 0.4127 0.0
C7483 C 0.5942 0.52716 0.41335 0.0
C7484 C 0.60218 0.51695 0.40549 0.0
C7485 C 0.61817 0.52039 0.40622 0.0
C7486 C 0.62631 0.53396 0.4149 0.0
C7487 C 0.61849 0.54409 0.42288 0.0
C7488 C 0.6025 0.54072 0.42215 0.0
C7489 C 0.54035 0.50422 0.465 0.0
C7490 C 0.53874 0.51786 0.47385 0.0
C7491 C 0.54517 0.50451 0.44968 0.0
C7492 C 0.5488 0.5185 0.44323 0.0
C7493 C 0.54722 0.53212 0.45212 0.0
C7494 C 0.54181 0.53174 0.46711 0.0
C7495 C 0.55485 0.51904 0.42747 0.0
C7496 C 0.57071 0.52318 0.42719 0.0
C7497 C 0.5452 0.51518 0.41288 0.0
C7498 C 0.52831 0.51101 0.41253 0.0
C7499 C 0.51998 0.52124 0.4198 0.0
C7500 C 0.50408 0.51715 0.41964 0.0
C7501 C 0.49635 0.50295 0.41202 0.0
C7502 C 0.50449 0.49282 0.40451 0.0
C7503 C 0.52041 0.49682 0.40472 0.0
H7504 H 0.48403 0.49981 0.41188 0.0
H7505 H 0.63869 0.53659 0.41547 0.0
H7506 H 0.2611 0.85382 0.06031 0.0
H7507 H 0.25963 0.84063 0.08439 0.0
H7508 H 0.30207 0.8694 0.10577 0.0
H7509 H 0.30321 0.88333 0.08231 0.0
H7510 H 0.29809 0.83457 0.10422 0.0
H7511 H 0.27736 0.87945 0.12036 0.0
H7512 H 0.2597 0.89752 0.11641 0.0
H7513 H 0.22112 0.8611 0.11652 0.0
H7514 H 0.23861 0.84273 0.12015 0.0
H7515 H 0.31282 0.82939 0.18295 0.0
H7516 H 0.30318 0.84332 0.16175 0.0
H7517 H 0.26435 0.8064 0.14873 0.0
H7518 H 0.27395 0.79247 0.17017 0.0
H7519 H 0.26275 0.84309 0.14497 0.0
H7520 H 0.28575 0.79807 0.12927 0.0
H7521 H 0.3052 0.78185 0.13355 0.0
H7522 H 0.34112 0.82073 0.13279 0.0
H7523 H 0.32185 0.83724 0.12889 0.0
C7524 C 0.26999 0.85748 0.07023 0.0
C7525 C 0.28222 0.86964 0.06951 0.0
C7526 C 0.26915 0.84992 0.08385 0.0
C7527 C 0.28066 0.85429 0.09666 0.0
C7528 C 0.2931 0.86606 0.09586 0.0
C7529 C 0.2938 0.87384 0.08242 0.0
C7530 C 0.28005 0.84627 0.11084 0.0
C7531 C 0.29031 0.83632 0.11309 0.0
C7532 C 0.26978 0.84866 0.12216 0.0
C7533 C 0.25927 0.85969 0.1203 0.0
C7534 C 0.26511 0.87526 0.11937 0.0
C7535 C 0.25514 0.88556 0.11722 0.0
C7536 C 0.23929 0.88045 0.11615 0.0
C7537 C 0.2334 0.86503 0.1173 0.0
C7538 C 0.24334 0.85467 0.11941 0.0
C7539 C 0.30203 0.82452 0.1758 0.0
C7540 C 0.29422 0.80987 0.17764 0.0
C7541 C 0.29644 0.8325 0.16394 0.0
C7542 C 0.28316 0.82575 0.15381 0.0
C7543 C 0.27454 0.81174 0.15664 0.0
C7544 C 0.28011 0.80376 0.16862 0.0
C7545 C 0.28083 0.8314 0.13831 0.0
C7546 C 0.27016 0.84098 0.13585 0.0
C7547 C 0.29082 0.82881 0.12674 0.0
C7548 C 0.30239 0.81889 0.12899 0.0
C7549 C 0.2978 0.80318 0.13021 0.0
C7550 C 0.30879 0.79393 0.13254 0.0
C7551 C 0.32439 0.80026 0.13349 0.0
C7552 C 0.32904 0.81585 0.1321 0.0
C7553 C 0.31809 0.82516 0.12984 0.0
H7554 H 0.33288 0.79308 0.13526 0.0
H7555 H 0.23158 0.88844 0.11449 0.0
H7556 H 0.91581 0.50086 0.87037 0.0
H7557 H 0.93228 0.50347 0.89559 0.0
H7558 H 0.9632 0.54075 0.87994 0.0
H7559 H 0.9469 0.53795 0.85445 0.0
H7560 H 0.97714 0.51747 0.89122 0.0
H7561 H 0.94126 0.54922 0.90674 0.0
H7562 H 0.91556 0.5552 0.90939 0.0
H7563 H 0.90565 0.51824 0.9382 0.0
H7564 H 0.93121 0.51188 0.93551 0.0
H7565 H 0.00936 0.54664 0.97526 0.0
H7566 H 0.99493 0.54624 0.9489 0.0
H7567 H 0.98078 0.49712 0.94679 0.0
H7568 H 0.9965 0.49731 0.97215 0.0
H7569 H 0.95933 0.52756 0.94448 0.0
H7570 H 0.9923 0.49231 0.9233 0.0
H7571 H 0.01812 0.48627 0.92201 0.0
H7572 H 0.03295 0.52917 0.90378 0.0
H7573 H 0.00731 0.53574 0.90567 0.0
C7574 C 0.92614 0.50958 0.87237 0.0
C7575 C 0.93029 0.51918 0.86069 0.0
C7576 C 0.93538 0.51114 0.88671 0.0
C7577 C 0.9487 0.52238 0.88942 0.0
C7578 C 0.95282 0.5321 0.87786 0.0
C7579 C 0.94357 0.53054 0.86348 0.0
C7580 C 0.95875 0.52335 0.90408 0.0
C7581 C 0.97336 0.51987 0.90288 0.0
C7582 C 0.95346 0.52614 0.9191 0.0
C7583 C 0.93811 0.53001 0.92081 0.0
C7584 C 0.93356 0.54229 0.91353 0.0
C7585 C 0.91902 0.54576 0.91506 0.0
C7586 C 0.90897 0.53709 0.92393 0.0
C7587 C 0.91344 0.52494 0.93133 0.0
C7588 C 0.92796 0.52141 0.92982 0.0
C7589 C 0.00336 0.53582 0.96887 0.0
C7590 C 0.00363 0.52203 0.97536 0.0
C7591 C 0.99526 0.53559 0.95403 0.0
C7592 C 0.98719 0.52162 0.94612 0.0
C7593 C 0.98744 0.50786 0.95269 0.0
C7594 C 0.99618 0.508 0.96708 0.0
C7595 C 0.97753 0.5216 0.93151 0.0
C7596 C 0.96305 0.52525 0.93277 0.0
C7597 C 0.9828 0.51876 0.91657 0.0
C7598 C 0.99805 0.51469 0.91505 0.0
C7599 C 1.00115 0.5006 0.91936 0.0
C7600 C 0.01574 0.49706 0.91847 0.0
C7601 C 0.02722 0.50739 0.91293 0.0
C7602 C 0.02409 0.52124 0.9082 0.0
C7603 C 0.00955 0.52491 0.90924 0.0
H7604 H 0.0385 0.50461 0.91221 0.0
H7605 H 0.89772 0.5398 0.9251 0.0
H7606 H 0.25303 0.19466 0.59467 0.0
H7607 H 0.25363 0.20641 0.62197 0.0
H7608 H 0.29261 0.24043 0.61528 0.0
H7609 H 0.29196 0.22884 0.58767 0.0
H7610 H 0.29652 0.22921 0.64409 0.0
H7611 H 0.25775 0.25075 0.61661 0.0
H7612 H 0.23452 0.25002 0.59802 0.0
H7613 H 0.20782 0.22083 0.62682 0.0
H7614 H 0.23094 0.22128 0.64551 0.0
H7615 H 0.2931 0.27322 0.71832 0.0
H7616 H 0.29382 0.26457 0.69019 0.0
H7617 H 0.25154 0.23245 0.69028 0.0
H7618 H 0.25064 0.24137 0.7184 0.0
H7619 H 0.25013 0.24448 0.66393 0.0
H7620 H 0.29002 0.22346 0.69183 0.0
H7621 H 0.31409 0.22302 0.70863 0.0
H7622 H 0.33962 0.25091 0.67788 0.0
H7623 H 0.31571 0.25198 0.66126 0.0
C7624 C 0.26162 0.2048 0.59881 0.0
C7625 C 0.27235 0.21083 0.58873 0.0
C7626 C 0.26197 0.21149 0.61455 0.0
C7627 C 0.27304 0.22447 0.62075 0.0
C7628 C 0.28393 0.23044 0.61084 0.0
C7629 C 0.28357 0.22375 0.59502 0.0
C7630 C 0.27323 0.23153 0.63762 0.0
C7631 C 0.28647 0.23281 0.64839 0.0
C7632 C 0.26006 0.236 0.64337 0.0
C7633 C 0.24607 0.23599 0.6324 0.0
C7634 C 0.24693 0.24414 0.61894 0.0
C7635 C 0.23379 0.24378 0.60839 0.0
C7636 C 0.21971 0.23537 0.61122 0.0
C7637 C 0.21874 0.22735 0.62465 0.0
C7638 C 0.23184 0.22768 0.63524 0.0
C7639 C 0.28393 0.2643 0.71238 0.0
C7640 C 0.27174 0.25807 0.7207 0.0
C7641 C 0.28441 0.25926 0.69623 0.0
C7642 C 0.27288 0.24759 0.68795 0.0
C7643 C 0.26063 0.24144 0.69624 0.0
C7644 C 0.26008 0.24659 0.71238 0.0
C7645 C 0.27342 0.24196 0.67068 0.0
C7646 C 0.26027 0.24098 0.65974 0.0
C7647 C 0.28677 0.23786 0.66478 0.0
C7648 C 0.30103 0.23792 0.67538 0.0
C7649 C 0.30073 0.22972 0.68882 0.0
C7650 C 0.31436 0.22935 0.69831 0.0
C7651 C 0.32836 0.23695 0.69434 0.0
C7652 C 0.32877 0.24509 0.681 0.0
C7653 C 0.31518 0.24562 0.67157 0.0
H7654 H 0.33892 0.23644 0.70151 0.0
H7655 H 0.20955 0.23508 0.60303 0.0
H7656 H 0.58707 0.49821 0.18748 0.0
H7657 H 0.57521 0.49726 0.1601 0.0
H7658 H 0.5643 0.54206 0.17103 0.0
H7659 H 0.57542 0.54277 0.19868 0.0
H7660 H 0.54145 0.52468 0.15167 0.0
H7661 H 0.5964 0.53615 0.15188 0.0
H7662 H 0.62262 0.53123 0.15783 0.0
H7663 H 0.61051 0.48825 0.12799 0.0
H7664 H 0.58413 0.4928 0.12208 0.0
H7665 H 0.5279 0.54273 0.07214 0.0
H7666 H 0.53714 0.54225 0.10004 0.0
H7667 H 0.5539 0.50063 0.08742 0.0
H7668 H 0.54611 0.5021 0.05925 0.0
H7669 H 0.5735 0.51586 0.10805 0.0
H7670 H 0.51847 0.50432 0.10738 0.0
H7671 H 0.49208 0.50895 0.10193 0.0
H7672 H 0.50386 0.55138 0.13274 0.0
H7673 H 0.53037 0.54709 0.1382 0.0
C7674 C 0.58191 0.50777 0.18422 0.0
C7675 C 0.58244 0.52066 0.19542 0.0
C7676 C 0.57526 0.50728 0.16842 0.0
C7677 C 0.56912 0.51974 0.16326 0.0
C7678 C 0.56906 0.53234 0.17456 0.0
C7679 C 0.57561 0.5328 0.1904 0.0
C7680 C 0.56332 0.51995 0.14604 0.0
C7681 C 0.54851 0.52287 0.14214 0.0
C7682 C 0.57232 0.5173 0.13345 0.0
C7683 C 0.58828 0.51476 0.13664 0.0
C7684 C 0.59932 0.52562 0.14664 0.0
C7685 C 0.6142 0.5229 0.15001 0.0
C7686 C 0.61822 0.50942 0.14332 0.0
C7687 C 0.60737 0.49867 0.13318 0.0
C7688 C 0.59246 0.50132 0.12981 0.0
C7689 C 0.53373 0.53362 0.0752 0.0
C7690 C 0.53649 0.52269 0.06325 0.0
C7691 C 0.53881 0.53315 0.09136 0.0
C7692 C 0.54605 0.52121 0.09619 0.0
C7693 C 0.54846 0.51005 0.08424 0.0
C7694 C 0.54391 0.51087 0.06804 0.0
C7695 C 0.55148 0.52049 0.1135 0.0
C7696 C 0.5663 0.51753 0.11748 0.0
C7697 C 0.54243 0.52302 0.12614 0.0
C7698 C 0.52642 0.52544 0.1231 0.0
C7699 C 0.51544 0.51466 0.11294 0.0
C7700 C 0.50046 0.51723 0.10985 0.0
C7701 C 0.4963 0.53047 0.11696 0.0
C7702 C 0.5071 0.54114 0.12723 0.0
C7703 C 0.52209 0.53864 0.13034 0.0
H7704 H 0.48471 0.53245 0.11453 0.0
H7705 H 0.62974 0.50732 0.14596 0.0
H7706 H 0.29985 0.86893 0.9211 0.0
H7707 H 0.29796 0.85269 0.89616 0.0
H7708 H 0.24848 0.84484 0.89359 0.0
H7709 H 0.25031 0.85955 0.91969 0.0
H7710 H 0.25746 0.81951 0.88757 0.0
H7711 H 0.27062 0.86965 0.86987 0.0
H7712 H 0.2861 0.89559 0.87079 0.0
H7713 H 0.32567 0.87623 0.86142 0.0
H7714 H 0.3105 0.85018 0.8607 0.0
H7715 H 0.2473 0.79185 0.80417 0.0
H7716 H 0.24751 0.80693 0.83002 0.0
H7717 H 0.29484 0.80346 0.84232 0.0
H7718 H 0.29459 0.78812 0.81671 0.0
H7719 H 0.2864 0.8346 0.84236 0.0
H7720 H 0.27521 0.78592 0.8638 0.0
H7721 H 0.26099 0.7595 0.86341 0.0
H7722 H 0.21878 0.77631 0.86499 0.0
H7723 H 0.2328 0.80287 0.86546 0.0
C7724 C 0.28856 0.86354 0.91539 0.0
C7725 C 0.27521 0.86533 0.92242 0.0
C7726 C 0.2875 0.85458 0.90096 0.0
C7727 C 0.27308 0.84795 0.89294 0.0
C7728 C 0.2597 0.85005 0.89964 0.0
C7729 C 0.26076 0.85855 0.91443 0.0
C7730 C 0.27203 0.83785 0.87815 0.0
C7731 C 0.26353 0.82295 0.87756 0.0
C7732 C 0.28042 0.84225 0.8654 0.0
C7733 C 0.28942 0.85795 0.86532 0.0
C7734 C 0.28263 0.87092 0.86806 0.0
C7735 C 0.29136 0.88565 0.86855 0.0
C7736 C 0.30686 0.88756 0.86619 0.0
C7737 C 0.31366 0.87474 0.86325 0.0
C7738 C 0.305 0.85999 0.86277 0.0
C7739 C 0.25759 0.79413 0.8126 0.0
C7740 C 0.27092 0.78907 0.80876 0.0
C7741 C 0.2577 0.80262 0.82719 0.0
C7742 C 0.27121 0.80616 0.83771 0.0
C7743 C 0.28438 0.80066 0.83413 0.0
C7744 C 0.28418 0.79191 0.81969 0.0
C7745 C 0.27185 0.81657 0.852 0.0
C7746 C 0.28024 0.83141 0.8524 0.0
C7747 C 0.26345 0.81218 0.86458 0.0
C7748 C 0.25501 0.79632 0.86458 0.0
C7749 C 0.26289 0.78396 0.86402 0.0
C7750 C 0.25488 0.76898 0.86384 0.0
C7751 C 0.23898 0.76622 0.86413 0.0
C7752 C 0.23109 0.77847 0.86476 0.0
C7753 C 0.23907 0.79349 0.86506 0.0
H7754 H 0.23279 0.7546 0.86388 0.0
H7755 H 0.31361 0.89897 0.86662 0.0
H7756 H 0.90934 0.52458 0.70205 0.0
H7757 H 0.92315 0.52617 0.6784 0.0
H7758 H 0.95333 0.4977 0.69759 0.0
H7759 H 0.93952 0.4961 0.72136 0.0
H7760 H 0.96803 0.52574 0.68712 0.0
H7761 H 0.92838 0.48169 0.66953 0.0
H7762 H 0.90149 0.4681 0.66524 0.0
H7763 H 0.89021 0.50037 0.63348 0.0
H7764 H 0.91703 0.51431 0.63778 0.0
H7765 H 1.00178 0.49246 0.62625 0.0
H7766 H 0.98981 0.50257 0.64848 0.0
H7767 H 0.96085 0.52275 0.61596 0.0
H7768 H 0.97242 0.51189 0.59343 0.0
H7769 H 0.94436 0.50424 0.63241 0.0
H7770 H 0.98655 0.54629 0.64818 0.0
H7771 H 0.01381 0.55872 0.65363 0.0
H7772 H 0.02086 0.52858 0.68929 0.0
H7773 H 0.99368 0.51599 0.68405 0.0
C7774 C 0.91891 0.51866 0.70114 0.0
C7775 C 0.92355 0.51031 0.71337 0.0
C7776 C 0.9267 0.51954 0.68771 0.0
C7777 C 0.93917 0.51209 0.68647 0.0
C7778 C 0.94371 0.50354 0.69855 0.0
C7779 C 0.93582 0.50255 0.71196 0.0
C7780 C 0.94768 0.51348 0.67261 0.0
C7781 C 0.96297 0.52104 0.67511 0.0
C7782 C 0.9407 0.50774 0.65707 0.0
C7783 C 0.92467 0.49914 0.65411 0.0
C7784 C 0.92015 0.48595 0.66171 0.0
C7785 C 0.90493 0.47818 0.65927 0.0
C7786 C 0.89414 0.48339 0.64913 0.0
C7787 C 0.89858 0.49636 0.64135 0.0
C7788 C 0.91379 0.50419 0.64377 0.0
C7789 C 0.99309 0.49932 0.62389 0.0
C7790 C 0.98776 0.50112 0.60821 0.0
C7791 C 0.98643 0.50535 0.63662 0.0
C7792 C 0.97453 0.51355 0.63388 0.0
C7793 C 0.97008 0.51651 0.61828 0.0
C7794 C 0.97669 0.51033 0.60547 0.0
C7795 C 0.96506 0.51624 0.64682 0.0
C7796 C 0.94944 0.50942 0.64426 0.0
C7797 C 0.9718 0.52252 0.66238 0.0
C7798 C 0.9881 0.53021 0.6657 0.0
C7799 C 0.99394 0.5423 0.65715 0.0
C7800 C 0.00936 0.54939 0.66022 0.0
C7801 C 0.01906 0.54444 0.67179 0.0
C7802 C 0.01334 0.53244 0.68036 0.0
C7803 C 0.99791 0.52537 0.6774 0.0
H7804 H 0.03102 0.5499 0.67411 0.0
H7805 H 0.88235 0.47738 0.64728 0.0
H7806 H 0.29552 0.21819 0.43497 0.0
H7807 H 0.2971 0.22922 0.40965 0.0
H7808 H 0.24898 0.21131 0.39602 0.0
H7809 H 0.24746 0.19962 0.42092 0.0
H7810 H 0.26386 0.20591 0.37177 0.0
H7811 H 0.26396 0.25073 0.40818 0.0
H7812 H 0.27268 0.26993 0.43167 0.0
H7813 H 0.31705 0.28079 0.41519 0.0
H7814 H 0.30865 0.26153 0.3917 0.0
H7815 H 0.2523 0.25686 0.31109 0.0
H7816 H 0.25211 0.2463 0.33696 0.0
H7817 H 0.30033 0.2451 0.33757 0.0
H7818 H 0.3003 0.25478 0.3112 0.0
H7819 H 0.2862 0.26031 0.36788 0.0
H7820 H 0.28581 0.21526 0.33142 0.0
H7821 H 0.27632 0.19724 0.30721 0.0
H7822 H 0.23193 0.1873 0.32379 0.0
H7823 H 0.24104 0.20564 0.34792 0.0
C7824 C 0.28527 0.21649 0.42657 0.0
C7825 C 0.27136 0.20793 0.43011 0.0
C7826 C 0.28615 0.223 0.41212 0.0
C7827 C 0.27313 0.22127 0.40088 0.0
C7828 C 0.25921 0.21287 0.40444 0.0
C7829 C 0.25833 0.20629 0.41883 0.0
C7830 C 0.27406 0.22769 0.38517 0.0
C7831 C 0.26861 0.21786 0.37102 0.0
C7832 C 0.28055 0.24322 0.38398 0.0
C7833 C 0.28573 0.25456 0.39828 0.0
C7834 C 0.27563 0.2571 0.40966 0.0
C7835 C 0.2805 0.26802 0.42295 0.0
C7836 C 0.29542 0.27654 0.42495 0.0
C7837 C 0.3055 0.27416 0.41365 0.0
C7838 C 0.30069 0.26325 0.40034 0.0
C7839 C 0.26281 0.25423 0.31675 0.0
C7840 C 0.27628 0.25641 0.30918 0.0
C7841 C 0.2627 0.24824 0.33148 0.0
C7842 C 0.2762 0.24489 0.33914 0.0
C7843 C 0.28978 0.24753 0.33179 0.0
C7844 C 0.28975 0.25295 0.31676 0.0
C7845 C 0.27602 0.23853 0.35476 0.0
C7846 C 0.28154 0.24837 0.36879 0.0
C7847 C 0.26959 0.22305 0.35586 0.0
C7848 C 0.26404 0.21204 0.34136 0.0
C7849 C 0.27395 0.20945 0.32979 0.0
C7850 C 0.26866 0.19913 0.3161 0.0
C7851 C 0.25351 0.19117 0.31394 0.0
C7852 C 0.24364 0.19351 0.32546 0.0
C7853 C 0.24886 0.20389 0.33914 0.0
H7854 H 0.24944 0.18316 0.30335 0.0
H7855 H 0.29916 0.28501 0.43522 0.0
H7856 H 0.3173 0.56415 0.51629 0.0
H7857 H 0.34123 0.55429 0.5154 0.0
H7858 H 0.3629 0.58831 0.55433 0.0
H7859 H 0.33926 0.59846 0.555 0.0
H7860 H 0.3773 0.58832 0.52628 0.0
H7861 H 0.3564 0.55305 0.56176 0.0
H7862 H 0.33483 0.53459 0.56902 0.0
H7863 H 0.3361 0.50465 0.52652 0.0
H7864 H 0.3575 0.52308 0.51884 0.0
H7865 H 0.44765 0.56471 0.52142 0.0
H7866 H 0.42546 0.56995 0.53477 0.0
H7867 H 0.39573 0.53477 0.50187 0.0
H7868 H 0.41789 0.52956 0.48863 0.0
H7869 H 0.3863 0.53548 0.53141 0.0
H7870 H 0.40224 0.56992 0.49339 0.0
H7871 H 0.41878 0.58942 0.48077 0.0
H7872 H 0.42271 0.6213 0.52294 0.0
H7873 H 0.40656 0.60182 0.53603 0.0
C7874 C 0.32714 0.56932 0.52477 0.0
C7875 C 0.32658 0.58195 0.53575 0.0
C7876 C 0.34066 0.56365 0.52435 0.0
C7877 C 0.35357 0.57056 0.53496 0.0
C7878 C 0.35288 0.58283 0.54624 0.0
C7879 C 0.33941 0.58851 0.54665 0.0
C7880 C 0.3683 0.56612 0.53306 0.0
C7881 C 0.37955 0.57693 0.52787 0.0
C7882 C 0.37063 0.55107 0.53455 0.0
C7883 C 0.35859 0.53943 0.53975 0.0
C7884 C 0.35212 0.5425 0.55399 0.0
C7885 C 0.33988 0.53207 0.55815 0.0
C7886 C 0.33411 0.51845 0.54824 0.0
C7887 C 0.34061 0.51519 0.5342 0.0
C7888 C 0.35283 0.52561 0.52995 0.0
C7889 C 0.43633 0.55815 0.51718 0.0
C7890 C 0.43412 0.54718 0.50379 0.0
C7891 C 0.42379 0.56098 0.52485 0.0
C7892 C 0.40905 0.55281 0.51913 0.0
C7893 C 0.40706 0.54115 0.50638 0.0
C7894 C 0.41957 0.53839 0.49868 0.0
C7895 C 0.39551 0.5578 0.52478 0.0
C7896 C 0.38437 0.54706 0.53045 0.0
C7897 C 0.39303 0.57289 0.52335 0.0
C7898 C 0.40346 0.58429 0.51583 0.0
C7899 C 0.4069 0.58097 0.50012 0.0
C7900 C 0.41615 0.59203 0.49286 0.0
C7901 C 0.4218 0.60655 0.50109 0.0
C7902 C 0.41836 0.61001 0.51664 0.0
C7903 C 0.40922 0.59894 0.524 0.0
H7904 H 0.42871 0.61518 0.49537 0.0
H7905 H 0.32459 0.51041 0.55145 0.0
H7906 H 0.87298 0.91834 0.54854 0.0
H7907 H 0.8985 0.93377 0.54804 0.0
H7908 H 0.87852 0.96491 0.52013 0.0
H7909 H 0.85308 0.94948 0.52047 0.0
H7910 H 0.90163 0.95787 0.50706 0.0
H7911 H 0.89437 0.97453 0.56101 0.0
H7912 H 0.88881 0.97132 0.58866 0.0
H7913 H 0.92728 0.94874 0.59597 0.0
H7914 H 0.93299 0.95168 0.5683 0.0
H7915 H 0.96893 0.01433 0.50765 0.0
H7916 H 0.94339 1.00053 0.51102 0.0
H7917 H 0.96374 0.97137 0.54128 0.0
H7918 H 0.98917 0.98569 0.53875 0.0
H7919 H 0.94042 0.97723 0.55367 0.0
H7920 H 0.9471 0.96025 0.49906 0.0
H7921 H 0.95019 0.96073 0.47038 0.0
H7922 H 0.91159 0.98328 0.46403 0.0
H7923 H 0.90837 0.98309 0.49265 0.0
C7924 C 0.87398 0.92861 0.54251 0.0
C7925 C 0.86091 0.93257 0.53445 0.0
C7926 C 0.88863 0.93748 0.54225 0.0
C7927 C 0.89056 0.95065 0.53412 0.0
C7928 C 0.87745 0.9548 0.52643 0.0
C7929 C 0.86286 0.9459 0.52658 0.0
C7930 C 0.9062 0.95957 0.53264 0.0
C7931 C 0.91001 0.96234 0.51731 0.0
C7932 C 0.91741 0.96499 0.5459 0.0
C7933 C 0.91401 0.9632 0.56253 0.0
C7934 C 0.90158 0.96878 0.56848 0.0
C7935 C 0.89842 0.96703 0.58416 0.0
C7936 C 0.90766 0.95979 0.59405 0.0
C7937 C 0.92012 0.95433 0.58829 0.0
C7938 C 0.92334 0.95605 0.57261 0.0
C7939 C 0.96798 0.00516 0.51525 0.0
C7940 C 0.98122 1.00132 0.52306 0.0
C7941 C 0.95331 0.99705 0.51696 0.0
C7942 C 0.95146 0.98463 0.52622 0.0
C7943 C 0.96469 0.98085 0.53407 0.0
C7944 C 0.97932 0.98908 0.53256 0.0
C7945 C 0.93584 0.97573 0.528 0.0
C7946 C 0.93204 0.97286 0.5434 0.0
C7947 C 0.92456 0.97023 0.51478 0.0
C7948 C 0.92757 0.97174 0.49801 0.0
C7949 C 0.93945 0.96554 0.4916 0.0
C7950 C 0.94116 0.96569 0.47534 0.0
C7951 C 0.93102 0.97195 0.4654 0.0
C7952 C 0.91939 0.97839 0.47174 0.0
C7953 C 0.91763 0.97828 0.48797 0.0
H7954 H 0.93206 0.97174 0.45275 0.0
H7955 H 0.9052 0.95845 0.60619 0.0
H7956 H 0.8883 0.09533 0.27501 0.0
H7957 H 0.87514 0.11714 0.27645 0.0
H7958 H 0.84024 0.09329 0.23946 0.0
H7959 H 0.85333 0.0713 0.23798 0.0
H7960 H 0.84801 0.1231 0.2348 0.0
H7961 H 0.83326 0.09563 0.27834 0.0
H7962 H 0.83678 0.08254 0.30248 0.0
H7963 H 0.86272 0.12438 0.32795 0.0
H7964 H 0.85957 0.13768 0.30388 0.0
H7965 H 0.79427 0.1729 0.2604 0.0
H7966 H 0.80688 0.15183 0.25076 0.0
H7967 H 0.84841 0.17313 0.28067 0.0
H7968 H 0.83596 0.1941 0.29011 0.0
H7969 H 0.83497 0.14326 0.28746 0.0
H7970 H 0.85007 0.17038 0.24321 0.0
H7971 H 0.84634 0.18311 0.21888 0.0
H7972 H 0.81859 0.14154 0.19474 0.0
H7973 H 0.82203 0.12859 0.21902 0.0
C7974 C 0.87775 0.09461 0.26727 0.0
C7975 C 0.87182 0.08143 0.2565 0.0
C7976 C 0.87025 0.10715 0.26807 0.0
C7977 C 0.85655 0.10681 0.25823 0.0
C7978 C 0.85077 0.09384 0.24718 0.0
C7979 C 0.8583 0.08127 0.24635 0.0
C7980 C 0.84822 0.11991 0.25978 0.0
C7981 C 0.84493 0.12737 0.24627 0.0
C7982 C 0.8443 0.12559 0.27475 0.0
C7983 C 0.84629 0.11762 0.28925 0.0
C7984 C 0.83983 0.10201 0.28904 0.0
C7985 C 0.84174 0.09456 0.30273 0.0
C7986 C 0.85 0.10261 0.31673 0.0
C7987 C 0.85635 0.11815 0.31709 0.0
C7988 C 0.85449 0.12565 0.30343 0.0
C7989 C 0.80628 0.17337 0.26433 0.0
C7990 C 0.81418 0.18511 0.27596 0.0
C7991 C 0.81345 0.1613 0.25891 0.0
C7992 C 0.82855 0.16085 0.26513 0.0
C7993 C 0.83676 0.17323 0.27575 0.0
C7994 C 0.82968 0.18525 0.28106 0.0
C7995 C 0.83513 0.14669 0.2626 0.0
C7996 C 0.83797 0.13895 0.27597 0.0
C7997 C 0.83848 0.14073 0.24751 0.0
C7998 C 0.83611 0.14859 0.23303 0.0
C7999 C 0.84299 0.16401 0.2328 0.0
C8000 C 0.84099 0.17125 0.21899 0.0
C8001 C 0.83217 0.16317 0.20529 0.0
C8002 C 0.82538 0.14781 0.20537 0.0
C8003 C 0.82736 0.1405 0.21915 0.0
H8004 H 0.83063 0.1688 0.19461 0.0
H8005 H 0.85146 0.09683 0.32732 0.0
H8006 H 0.68189 0.09467 0.01945 0.0
H8007 H 0.65442 0.08445 0.01735 0.0
H8008 H 0.66387 0.04332 0.03644 0.0
H8009 H 0.69162 0.05367 0.03861 0.0
H8010 H 0.64352 0.03955 0.00691 0.0
H8011 H 0.65183 0.06662 0.06001 0.0
H8012 H 0.6618 0.08909 0.07981 0.0
H8013 H 0.63324 0.11547 0.05497 0.0
H8014 H 0.6233 0.09323 0.03482 0.0
H8015 H 0.56981 0.00853 0.02288 0.0
H8016 H 0.59703 0.01856 0.02296 0.0
H8017 H 0.58679 0.06203 0.01093 0.0
H8018 H 0.55965 0.05248 0.01201 0.0
H8019 H 0.60763 0.06508 0.03655 0.0
H8020 H 0.59949 0.03934 0.98345 0.0
H8021 H 0.58889 0.01737 0.96322 0.0
H8022 H 0.61669 0.98961 0.98703 0.0
H8023 H 0.62731 0.01138 0.00753 0.0
C8024 C 0.67799 0.08344 0.02314 0.0
C8025 C 0.68842 0.07471 0.02903 0.0
C8026 C 0.66249 0.07772 0.02204 0.0
C8027 C 0.65746 0.06331 0.02689 0.0
C8028 C 0.66786 0.05452 0.03277 0.0
C8029 C 0.68347 0.06033 0.03398 0.0
C8030 C 0.6412 0.05732 0.02516 0.0
C8031 C 0.63561 0.0449 0.01352 0.0
C8032 C 0.63121 0.06495 0.03346 0.0
C8033 C 0.6369 0.07826 0.04581 0.0
C8034 C 0.64775 0.07723 0.05869 0.0
C8035 C 0.65339 0.08993 0.06999 0.0
C8036 C 0.64818 0.10371 0.06863 0.0
C8037 C 0.63727 0.10479 0.056 0.0
C8038 C 0.63162 0.09213 0.04464 0.0
C8039 C 0.57337 0.02012 0.01996 0.0
C8040 C 0.56278 0.02973 0.01726 0.0
C8041 C 0.58882 0.02578 0.01994 0.0
C8042 C 0.59365 0.0409 0.01677 0.0
C8043 C 0.58306 0.05029 0.01329 0.0
C8044 C 0.56762 0.04474 0.01366 0.0
C8045 C 0.60991 0.04719 0.01835 0.0
C8046 C 0.61551 0.05973 0.0299 0.0
C8047 C 0.61992 0.03984 0.00982 0.0
C8048 C 0.61418 0.02698 0.99703 0.0
C8049 C 0.60335 0.02855 0.98436 0.0
C8050 C 0.59732 0.01613 0.97287 0.0
C8051 C 0.60211 1.0021 0.97384 0.0
C8052 C 0.61301 1.0005 0.98627 0.0
C8053 C 0.61907 0.01289 0.99781 0.0
H8054 H 0.59738 0.99247 0.96497 0.0
H8055 H 0.65257 0.11353 0.07738 0.0
H8056 H 0.18845 0.45208 0.25416 0.0
H8057 H 0.19891 0.42875 0.25627 0.0
H8058 H 0.2439 0.45334 0.25 0.0
H8059 H 0.2332 0.47679 0.24739 0.0
H8060 H 0.23639 0.42426 0.23324 0.0
H8061 H 0.2367 0.44761 0.28642 0.0
H8062 H 0.22562 0.46036 0.30846 0.0
H8063 H 0.1909 0.42022 0.3079 0.0
H8064 H 0.20162 0.4073 0.28568 0.0
H8065 H 0.27067 0.36669 0.27175 0.0
H8066 H 0.26353 0.38849 0.25915 0.0
H8067 H 0.21599 0.37183 0.26451 0.0
H8068 H 0.22312 0.35025 0.27733 0.0
H8069 H 0.2281 0.39897 0.28237 0.0
H8070 H 0.22715 0.37635 0.22797 0.0
H8071 H 0.23689 0.36491 0.2042 0.0
H8072 H 0.2727 0.40446 0.20664 0.0
H8073 H 0.26332 0.41602 0.23055 0.0
C8074 C 0.20054 0.4524 0.25315 0.0
C8075 C 0.2102 0.46598 0.25086 0.0
C8076 C 0.20648 0.43919 0.25436 0.0
C8077 C 0.22217 0.43958 0.25363 0.0
C8078 C 0.23177 0.45302 0.25069 0.0
C8079 C 0.22574 0.46628 0.24925 0.0
C8080 C 0.22841 0.42588 0.25646 0.0
C8081 C 0.23493 0.41878 0.24408 0.0
C8082 C 0.22617 0.41891 0.27058 0.0
C8083 C 0.21996 0.42648 0.28433 0.0
C8084 C 0.22668 0.44151 0.29096 0.0
C8085 C 0.22045 0.44878 0.30348 0.0
C8086 C 0.20756 0.44111 0.30957 0.0
C8087 C 0.2009 0.42614 0.30318 0.0
C8088 C 0.20706 0.41882 0.29064 0.0
C8089 C 0.25865 0.36739 0.2696 0.0
C8090 C 0.24741 0.3571 0.2757 0.0
C8091 C 0.25459 0.37977 0.26237 0.0
C8092 C 0.23928 0.38175 0.26111 0.0
C8093 C 0.22787 0.37044 0.26548 0.0
C8094 C 0.23193 0.3582 0.27282 0.0
C8095 C 0.23562 0.39687 0.25882 0.0
C8096 C 0.22974 0.4044 0.27153 0.0
C8097 C 0.23859 0.40425 0.24506 0.0
C8098 C 0.24469 0.39692 0.23122 0.0
C8099 C 0.23727 0.38248 0.22361 0.0
C8100 C 0.24268 0.37601 0.21006 0.0
C8101 C 0.25545 0.38391 0.20396 0.0
C8102 C 0.26285 0.39831 0.2114 0.0
C8103 C 0.2575 0.40482 0.22496 0.0
H8104 H 0.25958 0.37891 0.19343 0.0
H8105 H 0.20274 0.44676 0.31925 0.0
H8106 H 0.1966 0.40123 0.01891 0.0
H8107 H 0.17447 0.41406 0.01826 0.0
H8108 H 0.20465 0.45761 0.03292 0.0
H8109 H 0.22671 0.44457 0.03444 0.0
H8110 H 0.18063 0.45765 0.04704 0.0
H8111 H 0.18794 0.44464 0.99237 0.0
H8112 H 0.19107 0.42774 0.96856 0.0
H8113 H 0.14664 0.40056 0.97082 0.0
H8114 H 0.14333 0.41717 0.99478 0.0
H8115 H 0.12807 0.50342 0.01532 0.0
H8116 H 0.14915 0.49064 0.02402 0.0
H8117 H 0.11836 0.44688 0.01522 0.0
H8118 H 0.09737 0.4597 0.00637 0.0
H8119 H 0.14255 0.44715 0.99884 0.0
H8120 H 0.13537 0.46195 0.05348 0.0
H8121 H 0.1328 0.48009 0.07651 0.0
H8122 H 0.17769 0.50571 0.07303 0.0
H8123 H 0.18045 0.48783 0.04984 0.0
C8124 C 0.19847 0.41354 0.02197 0.0
C8125 C 0.21336 0.42193 0.02656 0.0
C8126 C 0.18583 0.42091 0.02154 0.0
C8127 C 0.18783 0.43692 0.02515 0.0
C8128 C 0.20273 0.44527 0.03002 0.0
C8129 C 0.21535 0.43784 0.03083 0.0
C8130 C 0.17444 0.44493 0.02368 0.0
C8131 C 0.17241 0.45547 0.03641 0.0
C8132 C 0.16352 0.44202 0.00992 0.0
C8133 C 0.16545 0.43207 0.99546 0.0
C8134 C 0.17888 0.435 0.98785 0.0
C8135 C 0.18068 0.42548 0.97432 0.0
C8136 C 0.16908 0.41306 0.9682 0.0
C8137 C 0.15563 0.41017 0.97558 0.0
C8138 C 0.15378 0.41964 0.98912 0.0
C8139 C 0.12569 0.49117 0.016 0.0
C8140 C 0.11107 0.48255 0.0105 0.0
C8141 C 0.13776 0.48384 0.02087 0.0
C8142 C 0.13538 0.46776 0.02028 0.0
C8143 C 0.12049 0.45928 0.01581 0.0
C8144 C 0.10845 0.46661 0.01094 0.0
C8145 C 0.14863 0.45969 0.02227 0.0
C8146 C 0.15071 0.44924 0.00953 0.0
C8147 C 0.15968 0.46289 0.03588 0.0
C8148 C 0.15806 0.47362 0.04984 0.0
C8149 C 0.14465 0.47152 0.05755 0.0
C8150 C 0.14317 0.48174 0.07065 0.0
C8151 C 0.15506 0.49407 0.07621 0.0
C8152 C 0.16848 0.49617 0.0687 0.0
C8153 C 0.17002 0.48598 0.0556 0.0
H8154 H 0.15388 0.50197 0.08634 0.0
H8155 H 0.1705 0.4057 0.95773 0.0
H8156 H 0.84268 0.94232 0.25902 0.0
H8157 H 0.82739 0.91687 0.26003 0.0
H8158 H 0.86423 0.89607 0.2437 0.0
H8159 H 0.87929 0.92154 0.24206 0.0
H8160 H 0.83909 0.87992 0.23032 0.0
H8161 H 0.85607 0.9005 0.28486 0.0
H8162 H 0.85922 0.91956 0.30861 0.0
H8163 H 0.81029 0.91405 0.30784 0.0
H8164 H 0.80685 0.89513 0.28394 0.0
H8165 H 0.81175 0.80538 0.2502 0.0
H8166 H 0.82628 0.83049 0.24791 0.0
H8167 H 0.7919 0.85145 0.26955 0.0
H8168 H 0.77851 0.8262 0.27415 0.0
H8169 H 0.81588 0.86789 0.27974 0.0
H8170 H 0.79974 0.84607 0.22402 0.0
H8171 H 0.79835 0.82758 0.20009 0.0
H8172 H 0.84755 0.83531 0.20325 0.0
H8173 H 0.84922 0.85363 0.22733 0.0
C8174 C 0.8475 0.93231 0.25561 0.0
C8175 C 0.86225 0.93397 0.25057 0.0
C8176 C 0.83877 0.91773 0.25628 0.0
C8177 C 0.84474 0.90442 0.25236 0.0
C8178 C 0.85932 0.90607 0.24688 0.0
C8179 C 0.86794 0.92066 0.24593 0.0
C8180 C 0.83588 0.88881 0.25403 0.0
C8181 C 0.83411 0.87725 0.24118 0.0
C8182 C 0.82914 0.88526 0.26808 0.0
C8183 C 0.83121 0.89651 0.28254 0.0
C8184 C 0.84599 0.90342 0.28971 0.0
C8185 C 0.84782 0.9142 0.3032 0.0
C8186 C 0.83496 0.91804 0.30971 0.0
C8187 C 0.82024 0.91108 0.30277 0.0
C8188 C 0.81834 0.90033 0.28926 0.0
C8189 C 0.80719 0.81528 0.25454 0.0
C8190 C 0.79356 0.81354 0.26201 0.0
C8191 C 0.81548 0.82981 0.25291 0.0
C8192 C 0.81001 0.84316 0.25781 0.0
C8193 C 0.79642 0.84147 0.26537 0.0
C8194 C 0.78851 0.8269 0.26774 0.0
C8195 C 0.81875 0.85885 0.25586 0.0
C8196 C 0.82062 0.87048 0.26874 0.0
C8197 C 0.82574 0.86241 0.24185 0.0
C8198 C 0.82459 0.85114 0.22754 0.0
C8199 C 0.81024 0.84373 0.21967 0.0
C8200 C 0.80942 0.83328 0.20606 0.0
C8201 C 0.82287 0.83028 0.20015 0.0
C8202 C 0.83715 0.83765 0.20784 0.0
C8203 C 0.83804 0.84805 0.22146 0.0
H8204 H 0.82229 0.82229 0.18958 0.0
H8205 H 0.83641 0.92638 0.32015 0.0
H8206 H 0.74269 0.10407 0.74896 0.0
H8207 H 0.75235 0.13199 0.7524 0.0
H8208 H 0.7084 0.13956 0.76581 0.0
H8209 H 0.69886 0.11193 0.76236 0.0
H8210 H 0.72003 0.15723 0.74249 0.0
H8211 H 0.73569 0.14205 0.7947 0.0
H8212 H 0.74924 0.12753 0.81296 0.0
H8213 H 0.79193 0.14505 0.79558 0.0
H8214 H 0.77858 0.15958 0.77714 0.0
H8215 H 0.74021 0.23607 0.76637 0.0
H8216 H 0.72972 0.20916 0.76848 0.0
H8217 H 0.77515 0.1985 0.76681 0.0
H8218 H 0.78567 0.22546 0.76651 0.0
H8219 H 0.76154 0.18198 0.78496 0.0
H8220 H 0.74695 0.19626 0.73177 0.0
H8221 H 0.73382 0.20901 0.71134 0.0
H8222 H 0.69043 0.19252 0.72779 0.0
H8223 H 0.70328 0.17971 0.74831 0.0
C8224 C 0.73526 0.11185 0.75261 0.0
C8225 C 0.72023 0.10632 0.75552 0.0
C8226 C 0.74069 0.12757 0.75459 0.0
C8227 C 0.73099 0.1375 0.75941 0.0
C8228 C 0.71591 0.13188 0.76209 0.0
C8229 C 0.71054 0.11628 0.76017 0.0
C8230 C 0.73636 0.1539 0.76167 0.0
C8231 C 0.72906 0.16279 0.75179 0.0
C8232 C 0.7482 0.16074 0.77367 0.0
C8233 C 0.75613 0.15175 0.78447 0.0
C8234 C 0.74794 0.14267 0.79468 0.0
C8235 C 0.75559 0.13448 0.80509 0.0
C8236 C 0.77143 0.13534 0.8054 0.0
C8237 C 0.77966 0.14438 0.79531 0.0
C8238 C 0.77206 0.1526 0.7849 0.0
C8239 C 0.74796 0.22806 0.76757 0.0
C8240 C 0.76368 0.23258 0.76681 0.0
C8241 C 0.74196 0.21271 0.76826 0.0
C8242 C 0.75165 0.20193 0.76739 0.0
C8243 C 0.76751 0.2067 0.76755 0.0
C8244 C 0.77352 0.22202 0.76746 0.0
C8245 C 0.74549 0.18556 0.76552 0.0
C8246 C 0.75254 0.17658 0.77557 0.0
C8247 C 0.73361 0.17864 0.75339 0.0
C8248 C 0.72611 0.18725 0.74174 0.0
C8249 C 0.73464 0.19555 0.73118 0.0
C8250 C 0.72724 0.20273 0.71954 0.0
C8251 C 0.71132 0.20166 0.71833 0.0
C8252 C 0.70276 0.19341 0.72877 0.0
C8253 C 0.71009 0.18619 0.7404 0.0
H8254 H 0.70562 0.20716 0.70925 0.0
H8255 H 0.77734 0.12901 0.8135 0.0
loop_
_geom_bond_atom_site_label_1
_geom_bond_atom_site_label_2
_geom_bond_distance
_geom_bond_site_symmetry_2
_ccdc_geom_bond_type
Li0 N17 1.990 1_455 S
Li0 O60 1.956 . S
Li0 O61 1.970 . S
Li0 O62 1.961 . S
Li1 N25 1.990 . S
Li1 O60 1.970 . S
Li1 O61 1.956 . S
Li1 O63 1.961 . S
Li2 N47 1.990 . S
Li2 O60 1.961 . S
Li2 O62 1.956 . S
Li2 O63 1.970 . S
Li3 N53 1.990 . S
Li3 O61 1.961 . S
Li3 O62 1.970 . S
Li3 O63 1.956 . S
C4 C6 1.348 . S
C4 C7 1.356 . S
C4 O60 1.325 . S
N5 C8 1.314 . S
N5 C9 1.279 . S
C6 C4 1.348 . S
C6 C8 1.353 . S
C6 H64 0.929 . S
C7 C4 1.356 . S
C7 C9 1.358 . S
C7 H65 0.930 . S
C8 N5 1.314 . S
C8 C6 1.353 . S
C8 H66 0.930 . S
C9 N5 1.279 . S
C9 C7 1.358 . S
C9 H67 0.930 . S
C10 C13 1.348 1_455 S
C10 C14 1.356 . S
C10 O61 1.325 . S
C11 N12 1.279 . S
C11 C14 1.358 1_655 S
C11 H68 0.930 . S
N12 C11 1.279 . S
N12 C15 1.314 . S
C13 C10 1.348 1_655 S
C13 C15 1.353 . S
C13 H69 0.929 . S
C14 C10 1.356 . S
C14 C11 1.358 1_455 S
C14 H70 0.930 . S
C15 N12 1.314 . S
C15 C13 1.353 . S
C15 H71 0.930 . S
C16 N17 1.314 . S
C16 C21 1.353 . S
C16 H22 0.930 . S
N17 Li0 1.990 1_655 S
N17 C16 1.314 . S
N17 C19 1.279 . S
C18 C19 1.358 . S
C18 C20 1.356 . S
C18 H72 0.930 . S
C19 N17 1.279 . S
C19 C18 1.358 . S
C19 H23 0.930 . S
C20 C18 1.356 . S
C20 C21 1.348 . S
C21 C16 1.353 . S
C21 C20 1.348 . S
C21 H73 0.929 . S
H22 C16 0.930 . S
H23 C19 0.930 . S
C24 N25 1.314 . S
C24 C26 1.353 . S
C24 H30 0.930 . S
N25 Li1 1.990 . S
N25 C24 1.314 . S
N25 C28 1.279 . S
C26 C24 1.353 . S
C26 C29 1.348 . S
C26 H74 0.929 . S
C27 C28 1.358 . S
C27 C29 1.356 . S
C27 H75 0.930 . S
C28 N25 1.279 . S
C28 C27 1.358 . S
C28 H31 0.930 . S
C29 C26 1.348 . S
C29 C27 1.356 . S
H30 C24 0.930 . S
H31 C28 0.930 . S
C32 C34 1.348 . S
C32 C35 1.356 . S
C32 O62 1.325 . S
N33 C36 1.314 . S
N33 C37 1.279 . S
C34 C32 1.348 . S
C34 C36 1.353 . S
C34 H76 0.929 . S
C35 C32 1.356 . S
C35 C37 1.358 . S
C35 H77 0.930 . S
C36 N33 1.314 . S
C36 C34 1.353 . S
C36 H78 0.930 . S
C37 N33 1.279 . S
C37 C35 1.358 . S
C37 H79 0.930 . S
C38 C39 1.348 . S
C38 C40 1.356 . S
C38 O63 1.325 . S
C39 C38 1.348 . S
C39 C41 1.353 . S
C39 H80 0.929 . S
C40 C38 1.356 . S
C40 C42 1.358 . S
C40 H81 0.930 . S
C41 C39 1.353 . S
C41 N43 1.314 . S
C41 H82 0.930 . S
C42 C40 1.358 . S
C42 N43 1.279 . S
C42 H83 0.930 . S
N43 C41 1.314 . S
N43 C42 1.279 . S
C44 C46 1.353 . S
C44 N47 1.314 . S
C44 H50 0.930 . S
C45 N47 1.279 . S
C45 C48 1.358 . S
C45 H51 0.930 . S
C46 C44 1.353 . S
C46 C49 1.348 . S
C46 H84 0.929 . S
N47 Li2 1.990 . S
N47 C44 1.314 . S
N47 C45 1.279 . S
C48 C45 1.358 . S
C48 C49 1.356 . S
C48 H85 0.930 . S
C49 C46 1.348 . S
C49 C48 1.356 . S
H50 C44 0.930 . S
H51 C45 0.930 . S
C52 N53 1.314 . S
C52 C54 1.353 . S
C52 H58 0.930 . S
N53 Li3 1.990 . S
N53 C52 1.314 . S
N53 C56 1.279 . S
C54 C52 1.353 . S
C54 C57 1.348 . S
C54 H86 0.929 . S
C55 C56 1.358 . S
C55 C57 1.356 . S
C55 H87 0.930 . S
C56 N53 1.279 . S
C56 C55 1.358 . S
C56 H59 0.930 . S
C57 C54 1.348 . S
C57 C55 1.356 . S
H58 C52 0.930 . S
H59 C56 0.930 . S
O60 Li0 1.956 . S
O60 Li1 1.970 . S
O60 Li2 1.961 . S
O60 C4 1.325 . S
O61 Li0 1.970 . S
O61 Li1 1.956 . S
O61 Li3 1.961 . S
O61 C10 1.325 . S
O62 Li0 1.961 . S
O62 Li2 1.956 . S
O62 Li3 1.970 . S
O62 C32 1.325 . S
O63 Li1 1.961 . S
O63 Li2 1.970 . S
O63 Li3 1.956 . S
O63 C38 1.325 . S
H64 C6 0.929 . S
H65 C7 0.930 . S
H66 C8 0.930 . S
H67 C9 0.930 . S
H68 C11 0.930 . S
H69 C13 0.929 . S
H70 C14 0.930 . S
H71 C15 0.930 . S
H72 C18 0.930 . S
H73 C21 0.929 . S
H74 C26 0.929 . S
H75 C27 0.930 . S
H76 C34 0.929 . S
H77 C35 0.930 . S
H78 C36 0.930 . S
H79 C37 0.930 . S
H80 C39 0.929 . S
H81 C40 0.930 . S
H82 C41 0.930 . S
H83 C42 0.930 . S
H84 C46 0.929 . S
H85 C48 0.930 . S
H86 C54 0.929 . S
H87 C55 0.930 . S
Li88 N105 1.990 . S
Li88 O148 1.956 . S
Li88 O149 1.970 . S
Li88 O150 1.961 1_455 S
Li89 N113 1.990 . S
Li89 O148 1.970 . S
Li89 O149 1.956 . S
Li89 O151 1.961 . S
Li90 N135 1.990 . S
Li90 O148 1.961 . S
Li90 O150 1.956 1_455 S
Li90 O151 1.970 . S
Li91 N141 1.990 . S
Li91 O149 1.961 1_655 S
Li91 O150 1.970 . S
Li91 O151 1.956 1_655 S
C92 C94 1.348 . S
C92 C95 1.356 . S
C92 O148 1.325 . S
N93 C96 1.314 . S
N93 C97 1.279 . S
C94 C92 1.348 . S
C94 C96 1.353 . S
C94 H152 0.929 . S
C95 C92 1.356 . S
C95 C97 1.358 . S
C95 H153 0.930 . S
C96 N93 1.314 . S
C96 C94 1.353 . S
C96 H154 0.930 . S
C97 N93 1.279 . S
C97 C95 1.358 . S
C97 H155 0.930 . S
C98 C101 1.348 . S
C98 C102 1.356 . S
C98 O149 1.325 . S
C99 N100 1.279 . S
C99 C102 1.358 . S
C99 H156 0.930 . S
N100 C99 1.279 . S
N100 C103 1.314 . S
C101 C98 1.348 . S
C101 C103 1.353 . S
C101 H157 0.929 . S
C102 C98 1.356 . S
C102 C99 1.358 . S
C102 H158 0.930 . S
C103 N100 1.314 . S
C103 C101 1.353 . S
C103 H159 0.930 . S
C104 N105 1.314 . S
C104 C109 1.361 . S
C104 H110 0.930 1_455 S
N105 Li88 1.990 . S
N105 C104 1.314 . S
N105 C107 1.279 . S
C106 C107 1.358 . S
C106 C108 1.356 . S
C106 H160 0.930 . S
C107 N105 1.279 . S
C107 C106 1.358 . S
C107 H111 0.930 . S
C108 C106 1.356 . S
C108 C109 1.392 . S
C109 C104 1.361 . S
C109 C108 1.392 . S
C109 H161 0.879 1_455 S
H110 C104 0.930 1_655 S
H111 C107 0.930 . S
C112 N113 1.314 . S
C112 C114 1.353 . S
C112 H118 0.930 . S
N113 Li89 1.990 . S
N113 C112 1.314 . S
N113 C116 1.279 . S
C114 C112 1.353 . S
C114 C117 1.348 . S
C114 H162 0.929 . S
C115 C116 1.358 . S
C115 C117 1.356 . S
C115 H163 0.930 . S
C116 N113 1.279 . S
C116 C115 1.358 . S
C116 H119 0.930 . S
C117 C114 1.348 . S
C117 C115 1.356 . S
H118 C112 0.930 . S
H119 C116 0.930 . S
C120 C122 1.348 . S
C120 C123 1.356 . S
C120 O150 1.325 . S
N121 C124 1.314 . S
N121 C125 1.279 . S
C122 C120 1.348 . S
C122 C124 1.353 . S
C122 H164 0.929 . S
C123 C120 1.356 . S
C123 C125 1.358 . S
C123 H165 0.930 . S
C124 N121 1.314 . S
C124 C122 1.353 . S
C124 H166 0.930 . S
C125 N121 1.279 . S
C125 C123 1.358 . S
C125 H167 0.930 . S
C126 C127 1.348 . S
C126 C128 1.356 . S
C126 O151 1.325 . S
C127 C126 1.348 . S
C127 C129 1.353 . S
C127 H168 0.923 1_455 S
C128 C126 1.356 . S
C128 C130 1.358 . S
C128 H169 0.930 . S
C129 C127 1.353 . S
C129 N131 1.314 . S
C129 H170 0.923 1_455 S
C130 C128 1.358 . S
C130 N131 1.279 . S
C130 H171 0.930 . S
N131 C129 1.314 . S
N131 C130 1.279 . S
C132 C134 1.353 . S
C132 N135 1.314 . S
C132 H138 0.930 . S
C133 N135 1.279 1_655 S
C133 C136 1.358 . S
C133 H139 0.930 . S
C134 C132 1.353 . S
C134 C137 1.348 . S
C134 H172 0.929 . S
N135 Li90 1.990 . S
N135 C132 1.314 . S
N135 C133 1.279 1_455 S
C136 C133 1.358 . S
C136 C137 1.356 1_655 S
C136 H173 0.930 . S
C137 C134 1.348 . S
C137 C136 1.356 1_455 S
H138 C132 0.930 . S
H139 C133 0.930 . S
C140 N141 1.314 . S
C140 C142 1.353 . S
C140 H146 0.930 . S
N141 Li91 1.990 . S
N141 C140 1.314 . S
N141 C144 1.279 . S
C142 C140 1.353 . S
C142 C145 1.348 . S
C142 H174 0.929 . S
C143 C144 1.358 . S
C143 C145 1.356 . S
C143 H175 0.930 . S
C144 N141 1.279 . S
C144 C143 1.358 . S
C144 H147 0.930 . S
C145 C142 1.348 . S
C145 C143 1.356 . S
H146 C140 0.930 . S
H147 C144 0.930 . S
O148 Li88 1.956 . S
O148 Li89 1.970 . S
O148 Li90 1.961 . S
O148 C92 1.325 . S
O149 Li88 1.970 . S
O149 Li89 1.956 . S
O149 Li91 1.961 1_455 S
O149 C98 1.325 . S
O150 Li88 1.961 1_655 S
O150 Li90 1.956 1_655 S
O150 Li91 1.970 . S
O150 C120 1.325 . S
O151 Li89 1.961 . S
O151 Li90 1.970 . S
O151 Li91 1.956 1_455 S
O151 C126 1.325 . S
H152 C94 0.929 . S
H153 C95 0.930 . S
H154 C96 0.930 . S
H155 C97 0.930 . S
H156 C99 0.930 . S
H157 C101 0.929 . S
H158 C102 0.930 . S
H159 C103 0.930 . S
H160 C106 0.930 . S
H161 C109 0.879 1_655 S
H162 C114 0.929 . S
H163 C115 0.930 . S
H164 C122 0.929 . S
H165 C123 0.930 . S
H166 C124 0.930 . S
H167 C125 0.930 . S
H168 C127 0.923 1_655 S
H169 C128 0.930 . S
H170 C129 0.923 1_655 S
H171 C130 0.930 . S
H172 C134 0.929 . S
H173 C136 0.930 . S
H174 C142 0.929 . S
H175 C143 0.930 . S
Li176 N193 1.990 . S
Li176 O236 1.956 . S
Li176 O237 1.970 . S
Li176 O238 1.961 . S
Li177 N201 1.990 . S
Li177 O236 1.970 . S
Li177 O237 1.956 . S
Li177 O239 1.961 . S
Li178 N223 1.990 . S
Li178 O236 1.961 . S
Li178 O238 1.956 . S
Li178 O239 1.970 . S
Li179 N229 1.990 . S
Li179 O237 1.961 . S
Li179 O238 1.970 . S
Li179 O239 1.956 . S
C180 C182 1.348 . S
C180 C183 1.356 . S
C180 O236 1.325 . S
N181 C184 1.314 . S
N181 C185 1.279 . S
C182 C180 1.348 . S
C182 C184 1.353 . S
C182 H240 0.929 . S
C183 C180 1.356 . S
C183 C185 1.358 . S
C183 H241 0.930 . S
C184 N181 1.314 . S
C184 C182 1.353 . S
C184 H242 0.930 . S
C185 N181 1.279 . S
C185 C183 1.358 . S
C185 H243 0.930 . S
C186 C189 1.348 . S
C186 C190 1.356 . S
C186 O237 1.325 . S
C187 N188 1.279 . S
C187 C190 1.358 . S
C187 H244 0.930 . S
N188 C187 1.279 . S
N188 C191 1.314 . S
C189 C186 1.348 . S
C189 C191 1.353 . S
C189 H245 0.929 . S
C190 C186 1.356 . S
C190 C187 1.358 . S
C190 H246 0.930 . S
C191 N188 1.314 . S
C191 C189 1.353 . S
C191 H247 0.930 . S
C192 N193 1.314 . S
C192 C197 1.353 . S
C192 H198 0.930 . S
N193 Li176 1.990 . S
N193 C192 1.314 . S
N193 C195 1.279 . S
C194 C195 1.358 . S
C194 C196 1.356 . S
C194 H248 0.930 . S
C195 N193 1.279 . S
C195 C194 1.358 . S
C195 H199 0.930 . S
C196 C194 1.356 . S
C196 C197 1.348 . S
C197 C192 1.353 . S
C197 C196 1.348 . S
C197 H249 0.929 . S
H198 C192 0.930 . S
H199 C195 0.930 . S
C200 N201 1.314 . S
C200 C202 1.353 . S
C200 H206 0.930 . S
N201 Li177 1.990 . S
N201 C200 1.314 . S
N201 C204 1.279 . S
C202 C200 1.353 . S
C202 C205 1.348 . S
C202 H250 0.929 . S
C203 C204 1.358 . S
C203 C205 1.356 . S
C203 H251 0.930 . S
C204 N201 1.279 . S
C204 C203 1.358 . S
C204 H207 0.930 . S
C205 C202 1.348 . S
C205 C203 1.356 . S
H206 C200 0.930 . S
H207 C204 0.930 . S
C208 C210 1.348 . S
C208 C211 1.356 . S
C208 O238 1.325 . S
N209 C212 1.314 . S
N209 C213 1.279 . S
C210 C208 1.348 . S
C210 C212 1.353 . S
C210 H252 0.929 . S
C211 C208 1.356 . S
C211 C213 1.358 . S
C211 H253 0.930 . S
C212 N209 1.314 . S
C212 C210 1.353 . S
C212 H254 0.930 . S
C213 N209 1.279 . S
C213 C211 1.358 . S
C213 H255 0.930 . S
C214 C215 1.348 . S
C214 C216 1.356 . S
C214 O239 1.325 . S
C215 C214 1.348 . S
C215 C217 1.353 . S
C215 H256 0.929 . S
C216 C214 1.356 . S
C216 C218 1.358 . S
C216 H257 0.930 . S
C217 C215 1.353 . S
C217 N219 1.314 . S
C217 H258 0.930 . S
C218 C216 1.358 . S
C218 N219 1.279 . S
C218 H259 0.930 . S
N219 C217 1.314 . S
N219 C218 1.279 . S
C220 C222 1.353 . S
C220 N223 1.314 . S
C220 H226 0.930 . S
C221 N223 1.279 . S
C221 C224 1.358 . S
C221 H227 0.930 . S
C222 C220 1.353 . S
C222 C225 1.348 . S
C222 H260 0.929 . S
N223 Li178 1.990 . S
N223 C220 1.314 . S
N223 C221 1.279 . S
C224 C221 1.358 . S
C224 C225 1.356 . S
C224 H261 0.930 . S
C225 C222 1.348 . S
C225 C224 1.356 . S
H226 C220 0.930 . S
H227 C221 0.930 . S
C228 N229 1.314 . S
C228 C230 1.353 . S
C228 H234 0.930 . S
N229 Li179 1.990 . S
N229 C228 1.314 . S
N229 C232 1.279 . S
C230 C228 1.353 . S
C230 C233 1.348 . S
C230 H262 0.929 . S
C231 C232 1.358 . S
C231 C233 1.356 . S
C231 H263 0.930 . S
C232 N229 1.279 . S
C232 C231 1.358 . S
C232 H235 0.930 . S
C233 C230 1.348 . S
C233 C231 1.356 . S
H234 C228 0.930 . S
H235 C232 0.930 . S
O236 Li176 1.956 . S
O236 Li177 1.970 . S
O236 Li178 1.961 . S
O236 C180 1.325 . S
O237 Li176 1.970 . S
O237 Li177 1.956 . S
O237 Li179 1.961 . S
O237 C186 1.325 . S
O238 Li176 1.961 . S
O238 Li178 1.956 . S
O238 Li179 1.970 . S
O238 C208 1.325 . S
O239 Li177 1.961 . S
O239 Li178 1.970 . S
O239 Li179 1.956 . S
O239 C214 1.325 . S
H240 C182 0.929 . S
H241 C183 0.930 . S
H242 C184 0.930 . S
H243 C185 0.930 . S
H244 C187 0.930 . S
H245 C189 0.929 . S
H246 C190 0.930 . S
H247 C191 0.930 . S
H248 C194 0.930 . S
H249 C197 0.929 . S
H250 C202 0.929 . S
H251 C203 0.930 . S
H252 C210 0.929 . S
H253 C211 0.930 . S
H254 C212 0.930 . S
H255 C213 0.930 . S
H256 C215 0.929 . S
H257 C216 0.930 . S
H258 C217 0.930 . S
H259 C218 0.930 . S
H260 C222 0.929 . S
H261 C224 0.930 . S
H262 C230 0.929 . S
H263 C231 0.930 . S
Li264 N281 1.990 . S
Li264 O324 1.956 . S
Li264 O325 1.970 . S
Li264 O326 1.961 . S
Li265 N289 1.990 . S
Li265 O324 1.970 . S
Li265 O325 1.956 . S
Li265 O327 1.961 . S
Li266 N311 1.990 . S
Li266 O324 1.961 . S
Li266 O326 1.956 . S
Li266 O327 1.970 . S
Li267 N317 1.990 . S
Li267 O325 1.961 . S
Li267 O326 1.970 . S
Li267 O327 1.956 . S
C268 C270 1.348 . S
C268 C271 1.356 . S
C268 O324 1.325 . S
N269 C272 1.314 . S
N269 C273 1.279 . S
C270 C268 1.348 . S
C270 C272 1.353 . S
C270 H328 0.929 . S
C271 C268 1.356 . S
C271 C273 1.358 . S
C271 H329 0.930 . S
C272 N269 1.314 . S
C272 C270 1.353 . S
C272 H330 0.930 . S
C273 N269 1.279 . S
C273 C271 1.358 . S
C273 H331 0.930 . S
C274 C277 1.348 . S
C274 C278 1.356 . S
C274 O325 1.325 . S
C275 N276 1.279 . S
C275 C278 1.358 . S
C275 H332 0.930 . S
N276 C275 1.279 . S
N276 C279 1.314 . S
C277 C274 1.348 . S
C277 C279 1.353 . S
C277 H333 0.929 . S
C278 C274 1.356 . S
C278 C275 1.358 . S
C278 H334 0.930 . S
C279 N276 1.314 . S
C279 C277 1.353 . S
C279 H335 0.930 . S
C280 N281 1.314 . S
C280 C285 1.353 . S
C280 H286 0.930 . S
N281 Li264 1.990 . S
N281 C280 1.314 . S
N281 C283 1.279 . S
C282 C283 1.358 . S
C282 C284 1.356 . S
C282 H336 0.930 . S
C283 N281 1.279 . S
C283 C282 1.358 . S
C283 H287 0.930 . S
C284 C282 1.356 . S
C284 C285 1.348 . S
C285 C280 1.353 . S
C285 C284 1.348 . S
C285 H337 0.929 . S
H286 C280 0.930 . S
H287 C283 0.930 . S
C288 N289 1.314 . S
C288 C290 1.353 . S
C288 H294 0.930 . S
N289 Li265 1.990 . S
N289 C288 1.314 . S
N289 C292 1.279 . S
C290 C288 1.353 . S
C290 C293 1.348 . S
C290 H338 0.929 . S
C291 C292 1.358 . S
C291 C293 1.356 . S
C291 H339 0.930 . S
C292 N289 1.279 . S
C292 C291 1.358 . S
C292 H295 0.930 . S
C293 C290 1.348 . S
C293 C291 1.356 . S
H294 C288 0.930 . S
H295 C292 0.930 . S
C296 C298 1.348 . S
C296 C299 1.356 . S
C296 O326 1.325 . S
N297 C300 1.314 . S
N297 C301 1.279 . S
C298 C296 1.348 . S
C298 C300 1.353 . S
C298 H340 0.929 . S
C299 C296 1.356 . S
C299 C301 1.358 . S
C299 H341 0.930 . S
C300 N297 1.314 . S
C300 C298 1.353 . S
C300 H342 0.930 . S
C301 N297 1.279 . S
C301 C299 1.358 . S
C301 H343 0.930 . S
C302 C303 1.348 . S
C302 C304 1.356 . S
C302 O327 1.325 . S
C303 C302 1.348 . S
C303 C305 1.353 . S
C303 H344 0.929 . S
C304 C302 1.356 . S
C304 C306 1.358 . S
C304 H345 0.930 . S
C305 C303 1.353 . S
C305 N307 1.314 . S
C305 H346 0.930 . S
C306 C304 1.358 . S
C306 N307 1.279 . S
C306 H347 0.930 . S
N307 C305 1.314 . S
N307 C306 1.279 . S
C308 C310 1.353 . S
C308 N311 1.314 . S
C308 H314 0.930 . S
C309 N311 1.279 . S
C309 C312 1.358 . S
C309 H315 0.930 . S
C310 C308 1.353 . S
C310 C313 1.348 . S
C310 H348 0.929 . S
N311 Li266 1.990 . S
N311 C308 1.314 . S
N311 C309 1.279 . S
C312 C309 1.358 . S
C312 C313 1.356 . S
C312 H349 0.930 . S
C313 C310 1.348 . S
C313 C312 1.356 . S
H314 C308 0.930 . S
H315 C309 0.930 . S
C316 N317 1.314 . S
C316 C318 1.353 . S
C316 H322 0.930 . S
N317 Li267 1.990 . S
N317 C316 1.314 . S
N317 C320 1.279 . S
C318 C316 1.353 . S
C318 C321 1.348 . S
C318 H350 0.929 . S
C319 C320 1.358 . S
C319 C321 1.356 . S
C319 H351 0.930 . S
C320 N317 1.279 . S
C320 C319 1.358 . S
C320 H323 0.930 . S
C321 C318 1.348 . S
C321 C319 1.356 . S
H322 C316 0.930 . S
H323 C320 0.930 . S
O324 Li264 1.956 . S
O324 Li265 1.970 . S
O324 Li266 1.961 . S
O324 C268 1.325 . S
O325 Li264 1.970 . S
O325 Li265 1.956 . S
O325 Li267 1.961 . S
O325 C274 1.325 . S
O326 Li264 1.961 . S
O326 Li266 1.956 . S
O326 Li267 1.970 . S
O326 C296 1.325 . S
O327 Li265 1.961 . S
O327 Li266 1.970 . S
O327 Li267 1.956 . S
O327 C302 1.325 . S
H328 C270 0.929 . S
H329 C271 0.930 . S
H330 C272 0.930 . S
H331 C273 0.930 . S
H332 C275 0.930 . S
H333 C277 0.929 . S
H334 C278 0.930 . S
H335 C279 0.930 . S
H336 C282 0.930 . S
H337 C285 0.929 . S
H338 C290 0.929 . S
H339 C291 0.930 . S
H340 C298 0.929 . S
H341 C299 0.930 . S
H342 C300 0.930 . S
H343 C301 0.930 . S
H344 C303 0.929 . S
H345 C304 0.930 . S
H346 C305 0.930 . S
H347 C306 0.930 . S
H348 C310 0.929 . S
H349 C312 0.930 . S
H350 C318 0.929 . S
H351 C319 0.930 . S
Li352 N369 1.990 . S
Li352 O412 1.956 . S
Li352 O413 1.970 . S
Li352 O414 1.961 . S
Li353 N377 1.990 . S
Li353 O412 1.970 . S
Li353 O413 1.956 . S
Li353 O415 1.961 . S
Li354 N399 1.990 . S
Li354 O412 1.961 . S
Li354 O414 1.956 . S
Li354 O415 1.970 . S
Li355 N405 1.990 . S
Li355 O413 1.961 . S
Li355 O414 1.970 . S
Li355 O415 1.956 . S
C356 C358 1.348 . S
C356 C359 1.356 . S
C356 O412 1.325 . S
N357 C360 1.314 . S
N357 C361 1.279 . S
C358 C356 1.348 . S
C358 C360 1.353 . S
C358 H416 0.929 . S
C359 C356 1.356 . S
C359 C361 1.358 . S
C359 H417 0.930 . S
C360 N357 1.314 . S
C360 C358 1.353 . S
C360 H418 0.930 . S
C361 N357 1.279 . S
C361 C359 1.358 . S
C361 H419 0.930 . S
C362 C365 1.348 . S
C362 C366 1.356 . S
C362 O413 1.325 . S
C363 N364 1.279 . S
C363 C366 1.358 . S
C363 H420 0.930 . S
N364 C363 1.279 . S
N364 C367 1.314 . S
C365 C362 1.348 . S
C365 C367 1.353 . S
C365 H421 0.929 . S
C366 C362 1.356 . S
C366 C363 1.358 . S
C366 H422 0.930 . S
C367 N364 1.314 . S
C367 C365 1.353 . S
C367 H423 0.930 . S
C368 N369 1.314 . S
C368 C373 1.353 . S
C368 H374 0.930 . S
N369 Li352 1.990 . S
N369 C368 1.314 . S
N369 C371 1.279 . S
C370 C371 1.358 . S
C370 C372 1.356 . S
C370 H424 0.930 . S
C371 N369 1.279 . S
C371 C370 1.358 . S
C371 H375 0.930 . S
C372 C370 1.356 . S
C372 C373 1.348 . S
C373 C368 1.353 . S
C373 C372 1.348 . S
C373 H425 0.929 . S
H374 C368 0.930 . S
H375 C371 0.930 . S
C376 N377 1.314 . S
C376 C378 1.353 . S
C376 H382 0.930 . S
N377 Li353 1.990 . S
N377 C376 1.314 . S
N377 C380 1.279 . S
C378 C376 1.353 . S
C378 C381 1.348 . S
C378 H426 0.929 . S
C379 C380 1.358 . S
C379 C381 1.356 . S
C379 H427 0.930 . S
C380 N377 1.279 . S
C380 C379 1.358 . S
C380 H383 0.930 . S
C381 C378 1.348 . S
C381 C379 1.356 . S
H382 C376 0.930 . S
H383 C380 0.930 . S
C384 C386 1.348 1_455 S
C384 C387 1.356 . S
C384 O414 1.325 . S
N385 C388 1.314 . S
N385 C389 1.279 . S
C386 C384 1.348 1_655 S
C386 C388 1.353 . S
C386 H428 0.929 . S
C387 C384 1.356 . S
C387 C389 1.358 1_455 S
C387 H429 0.930 . S
C388 N385 1.314 . S
C388 C386 1.353 . S
C388 H430 0.930 . S
C389 N385 1.279 . S
C389 C387 1.358 1_655 S
C389 H431 0.930 . S
C390 C391 1.348 . S
C390 C392 1.356 . S
C390 O415 1.325 . S
C391 C390 1.348 . S
C391 C393 1.353 . S
C391 H432 0.929 . S
C392 C390 1.356 . S
C392 C394 1.358 . S
C392 H433 0.930 . S
C393 C391 1.353 . S
C393 N395 1.314 . S
C393 H434 0.930 . S
C394 C392 1.358 . S
C394 N395 1.279 . S
C394 H435 0.930 . S
N395 C393 1.314 . S
N395 C394 1.279 . S
C396 C398 1.353 . S
C396 N399 1.314 . S
C396 H402 0.930 . S
C397 N399 1.279 . S
C397 C400 1.358 . S
C397 H403 0.930 . S
C398 C396 1.353 . S
C398 C401 1.348 . S
C398 H436 0.929 . S
N399 Li354 1.990 . S
N399 C396 1.314 . S
N399 C397 1.279 . S
C400 C397 1.358 . S
C400 C401 1.356 . S
C400 H437 0.930 . S
C401 C398 1.348 . S
C401 C400 1.356 . S
H402 C396 0.930 . S
H403 C397 0.930 . S
C404 N405 1.314 . S
C404 C406 1.353 1_455 S
C404 H410 0.930 . S
N405 Li355 1.990 . S
N405 C404 1.314 . S
N405 C408 1.279 . S
C406 C404 1.353 1_655 S
C406 C409 1.348 . S
C406 H438 0.929 . S
C407 C408 1.358 1_655 S
C407 C409 1.356 . S
C407 H439 0.930 . S
C408 N405 1.279 . S
C408 C407 1.358 1_455 S
C408 H411 0.930 . S
C409 C406 1.348 . S
C409 C407 1.356 . S
H410 C404 0.930 . S
H411 C408 0.930 . S
O412 Li352 1.956 . S
O412 Li353 1.970 . S
O412 Li354 1.961 . S
O412 C356 1.325 . S
O413 Li352 1.970 . S
O413 Li353 1.956 . S
O413 Li355 1.961 . S
O413 C362 1.325 . S
O414 Li352 1.961 . S
O414 Li354 1.956 . S
O414 Li355 1.970 . S
O414 C384 1.325 . S
O415 Li353 1.961 . S
O415 Li354 1.970 . S
O415 Li355 1.956 . S
O415 C390 1.325 . S
H416 C358 0.929 . S
H417 C359 0.930 . S
H418 C360 0.930 . S
H419 C361 0.930 . S
H420 C363 0.930 . S
H421 C365 0.929 . S
H422 C366 0.930 . S
H423 C367 0.930 . S
H424 C370 0.930 . S
H425 C373 0.929 . S
H426 C378 0.929 . S
H427 C379 0.930 . S
H428 C386 0.929 . S
H429 C387 0.930 . S
H430 C388 0.930 . S
H431 C389 0.930 . S
H432 C391 0.929 . S
H433 C392 0.930 . S
H434 C393 0.930 . S
H435 C394 0.930 . S
H436 C398 0.929 . S
H437 C400 0.930 . S
H438 C406 0.929 . S
H439 C407 0.930 . S
Li440 N457 1.990 . S
Li440 O500 1.956 . S
Li440 O501 1.970 . S
Li440 O502 1.961 . S
Li441 N465 1.990 . S
Li441 O500 1.970 . S
Li441 O501 1.956 . S
Li441 O503 1.961 . S
Li442 N487 1.990 . S
Li442 O500 1.961 . S
Li442 O502 1.956 . S
Li442 O503 1.970 . S
Li443 N493 1.990 . S
Li443 O501 1.961 . S
Li443 O502 1.970 . S
Li443 O503 1.956 . S
C444 C446 1.348 . S
C444 C447 1.356 . S
C444 O500 1.325 . S
N445 C448 1.314 . S
N445 C449 1.279 . S
C446 C444 1.348 . S
C446 C448 1.353 . S
C446 H504 0.929 . S
C447 C444 1.356 . S
C447 C449 1.358 . S
C447 H505 0.930 . S
C448 N445 1.314 . S
C448 C446 1.353 . S
C448 H506 0.930 . S
C449 N445 1.279 . S
C449 C447 1.358 . S
C449 H507 0.930 . S
C450 C453 1.348 . S
C450 C454 1.356 . S
C450 O501 1.325 . S
C451 N452 1.279 . S
C451 C454 1.358 . S
C451 H508 0.930 . S
N452 C451 1.279 . S
N452 C455 1.314 . S
C453 C450 1.348 . S
C453 C455 1.353 . S
C453 H509 0.929 . S
C454 C450 1.356 . S
C454 C451 1.358 . S
C454 H510 0.930 . S
C455 N452 1.314 . S
C455 C453 1.353 . S
C455 H511 0.930 . S
C456 N457 1.314 . S
C456 C461 1.353 . S
C456 H462 0.930 . S
N457 Li440 1.990 . S
N457 C456 1.314 . S
N457 C459 1.279 . S
C458 C459 1.358 . S
C458 C460 1.356 . S
C458 H512 0.930 . S
C459 N457 1.279 . S
C459 C458 1.358 . S
C459 H463 0.930 . S
C460 C458 1.356 . S
C460 C461 1.348 . S
C461 C456 1.353 . S
C461 C460 1.348 . S
C461 H513 0.929 . S
H462 C456 0.930 . S
H463 C459 0.930 . S
C464 N465 1.314 . S
C464 C466 1.353 . S
C464 H470 0.930 . S
N465 Li441 1.990 . S
N465 C464 1.314 . S
N465 C468 1.279 . S
C466 C464 1.353 . S
C466 C469 1.348 . S
C466 H514 0.929 . S
C467 C468 1.358 . S
C467 C469 1.356 . S
C467 H515 0.930 . S
C468 N465 1.279 . S
C468 C467 1.358 . S
C468 H471 0.930 . S
C469 C466 1.348 . S
C469 C467 1.356 . S
H470 C464 0.930 . S
H471 C468 0.930 . S
C472 C474 1.348 . S
C472 C475 1.356 . S
C472 O502 1.325 . S
N473 C476 1.314 . S
N473 C477 1.279 . S
C474 C472 1.348 . S
C474 C476 1.353 . S
C474 H516 0.929 . S
C475 C472 1.356 . S
C475 C477 1.358 . S
C475 H517 0.930 . S
C476 N473 1.314 . S
C476 C474 1.353 . S
C476 H518 0.930 . S
C477 N473 1.279 . S
C477 C475 1.358 . S
C477 H519 0.930 . S
C478 C479 1.348 . S
C478 C480 1.356 . S
C478 O503 1.325 . S
C479 C478 1.348 . S
C479 C481 1.353 . S
C479 H520 0.929 . S
C480 C478 1.356 . S
C480 C482 1.358 . S
C480 H521 0.930 . S
C481 C479 1.353 . S
C481 N483 1.314 . S
C481 H522 0.930 . S
C482 C480 1.358 . S
C482 N483 1.279 . S
C482 H523 0.930 . S
N483 C481 1.314 . S
N483 C482 1.279 . S
C484 C486 1.353 . S
C484 N487 1.314 . S
C484 H490 0.930 . S
C485 N487 1.279 . S
C485 C488 1.358 . S
C485 H491 0.930 . S
C486 C484 1.353 . S
C486 C489 1.348 . S
C486 H524 0.929 . S
N487 Li442 1.990 . S
N487 C484 1.314 . S
N487 C485 1.279 . S
C488 C485 1.358 . S
C488 C489 1.356 . S
C488 H525 0.930 . S
C489 C486 1.348 . S
C489 C488 1.356 . S
H490 C484 0.930 . S
H491 C485 0.930 . S
C492 N493 1.314 . S
C492 C494 1.353 . S
C492 H498 0.930 . S
N493 Li443 1.990 . S
N493 C492 1.314 . S
N493 C496 1.279 . S
C494 C492 1.353 . S
C494 C497 1.348 . S
C494 H526 0.929 . S
C495 C496 1.358 . S
C495 C497 1.356 . S
C495 H527 0.930 . S
C496 N493 1.279 . S
C496 C495 1.358 . S
C496 H499 0.930 . S
C497 C494 1.348 . S
C497 C495 1.356 . S
H498 C492 0.930 . S
H499 C496 0.930 . S
O500 Li440 1.956 . S
O500 Li441 1.970 . S
O500 Li442 1.961 . S
O500 C444 1.325 . S
O501 Li440 1.970 . S
O501 Li441 1.956 . S
O501 Li443 1.961 . S
O501 C450 1.325 . S
O502 Li440 1.961 . S
O502 Li442 1.956 . S
O502 Li443 1.970 . S
O502 C472 1.325 . S
O503 Li441 1.961 . S
O503 Li442 1.970 . S
O503 Li443 1.956 . S
O503 C478 1.325 . S
H504 C446 0.929 . S
H505 C447 0.930 . S
H506 C448 0.930 . S
H507 C449 0.930 . S
H508 C451 0.930 . S
H509 C453 0.929 . S
H510 C454 0.930 . S
H511 C455 0.930 . S
H512 C458 0.930 . S
H513 C461 0.929 . S
H514 C466 0.929 . S
H515 C467 0.930 . S
H516 C474 0.929 . S
H517 C475 0.930 . S
H518 C476 0.930 . S
H519 C477 0.930 . S
H520 C479 0.929 . S
H521 C480 0.930 . S
H522 C481 0.930 . S
H523 C482 0.930 . S
H524 C486 0.929 . S
H525 C488 0.930 . S
H526 C494 0.929 . S
H527 C495 0.930 . S
Li528 N545 1.990 . S
Li528 O588 1.956 . S
Li528 O589 1.970 . S
Li528 O590 1.961 . S
Li529 N553 1.990 . S
Li529 O588 1.970 . S
Li529 O589 1.956 . S
Li529 O591 1.961 . S
Li530 N575 1.990 . S
Li530 O588 1.961 . S
Li530 O590 1.956 . S
Li530 O591 1.970 . S
Li531 N581 1.990 . S
Li531 O589 1.961 . S
Li531 O590 1.970 . S
Li531 O591 1.956 . S
C532 C534 1.348 . S
C532 C535 1.356 . S
C532 O588 1.325 . S
N533 C536 1.314 . S
N533 C537 1.279 . S
C534 C532 1.348 . S
C534 C536 1.353 . S
C534 H592 0.929 . S
C535 C532 1.356 . S
C535 C537 1.358 . S
C535 H593 0.930 . S
C536 N533 1.314 . S
C536 C534 1.353 . S
C536 H594 0.930 . S
C537 N533 1.279 . S
C537 C535 1.358 . S
C537 H595 0.930 . S
C538 C541 1.348 . S
C538 C542 1.356 . S
C538 O589 1.325 . S
C539 N540 1.279 . S
C539 C542 1.358 . S
C539 H596 0.930 . S
N540 C539 1.279 . S
N540 C543 1.314 . S
C541 C538 1.348 . S
C541 C543 1.353 . S
C541 H597 0.929 . S
C542 C538 1.356 . S
C542 C539 1.358 . S
C542 H598 0.930 . S
C543 N540 1.314 . S
C543 C541 1.353 . S
C543 H599 0.930 . S
C544 N545 1.314 . S
C544 C549 1.353 . S
C544 H550 0.930 . S
N545 Li528 1.990 . S
N545 C544 1.314 . S
N545 C547 1.279 . S
C546 C547 1.358 . S
C546 C548 1.356 . S
C546 H600 0.930 . S
C547 N545 1.279 . S
C547 C546 1.358 . S
C547 H551 0.930 . S
C548 C546 1.356 . S
C548 C549 1.348 . S
C549 C544 1.353 . S
C549 C548 1.348 . S
C549 H601 0.929 . S
H550 C544 0.930 . S
H551 C547 0.930 . S
C552 N553 1.314 . S
C552 C554 1.353 . S
C552 H558 0.930 . S
N553 Li529 1.990 . S
N553 C552 1.314 . S
N553 C556 1.279 . S
C554 C552 1.353 . S
C554 C557 1.348 . S
C554 H602 0.929 . S
C555 C556 1.358 . S
C555 C557 1.356 . S
C555 H603 0.930 . S
C556 N553 1.279 . S
C556 C555 1.358 . S
C556 H559 0.930 . S
C557 C554 1.348 . S
C557 C555 1.356 . S
H558 C552 0.930 . S
H559 C556 0.930 . S
C560 C562 1.348 . S
C560 C563 1.356 . S
C560 O590 1.325 . S
N561 C564 1.314 . S
N561 C565 1.279 . S
C562 C560 1.348 . S
C562 C564 1.353 . S
C562 H604 0.929 . S
C563 C560 1.356 . S
C563 C565 1.358 . S
C563 H605 0.930 . S
C564 N561 1.314 . S
C564 C562 1.353 . S
C564 H606 0.930 . S
C565 N561 1.279 . S
C565 C563 1.358 . S
C565 H607 0.930 . S
C566 C567 1.348 . S
C566 C568 1.356 . S
C566 O591 1.325 . S
C567 C566 1.348 . S
C567 C569 1.353 . S
C567 H608 0.929 . S
C568 C566 1.356 . S
C568 C570 1.358 . S
C568 H609 0.930 . S
C569 C567 1.353 . S
C569 N571 1.314 . S
C569 H610 0.930 . S
C570 C568 1.358 . S
C570 N571 1.279 . S
C570 H611 0.930 . S
N571 C569 1.314 . S
N571 C570 1.279 . S
C572 C574 1.353 . S
C572 N575 1.314 . S
C572 H578 0.930 . S
C573 N575 1.279 . S
C573 C576 1.358 . S
C573 H579 0.930 . S
C574 C572 1.353 . S
C574 C577 1.348 . S
C574 H612 0.929 . S
N575 Li530 1.990 . S
N575 C572 1.314 . S
N575 C573 1.279 . S
C576 C573 1.358 . S
C576 C577 1.356 . S
C576 H613 0.930 . S
C577 C574 1.348 . S
C577 C576 1.356 . S
H578 C572 0.930 . S
H579 C573 0.930 . S
C580 N581 1.314 . S
C580 C582 1.353 . S
C580 H586 0.930 . S
N581 Li531 1.990 . S
N581 C580 1.314 . S
N581 C584 1.279 . S
C582 C580 1.353 . S
C582 C585 1.348 . S
C582 H614 0.929 . S
C583 C584 1.358 . S
C583 C585 1.356 . S
C583 H615 0.930 . S
C584 N581 1.279 . S
C584 C583 1.358 . S
C584 H587 0.930 . S
C585 C582 1.348 . S
C585 C583 1.356 . S
H586 C580 0.930 . S
H587 C584 0.930 . S
O588 Li528 1.956 . S
O588 Li529 1.970 . S
O588 Li530 1.961 . S
O588 C532 1.325 . S
O589 Li528 1.970 . S
O589 Li529 1.956 . S
O589 Li531 1.961 . S
O589 C538 1.325 . S
O590 Li528 1.961 . S
O590 Li530 1.956 . S
O590 Li531 1.970 . S
O590 C560 1.325 . S
O591 Li529 1.961 . S
O591 Li530 1.970 . S
O591 Li531 1.956 . S
O591 C566 1.325 . S
H592 C534 0.929 . S
H593 C535 0.930 . S
H594 C536 0.930 . S
H595 C537 0.930 . S
H596 C539 0.930 . S
H597 C541 0.929 . S
H598 C542 0.930 . S
H599 C543 0.930 . S
H600 C546 0.930 . S
H601 C549 0.929 . S
H602 C554 0.929 . S
H603 C555 0.930 . S
H604 C562 0.929 . S
H605 C563 0.930 . S
H606 C564 0.930 . S
H607 C565 0.930 . S
H608 C567 0.929 . S
H609 C568 0.930 . S
H610 C569 0.930 . S
H611 C570 0.930 . S
H612 C574 0.929 . S
H613 C576 0.930 . S
H614 C582 0.929 . S
H615 C583 0.930 . S
Li616 N633 1.990 . S
Li616 O676 1.956 1_455 S
Li616 O677 1.970 . S
Li616 O678 1.961 . S
Li617 N641 1.990 . S
Li617 O676 1.970 . S
Li617 O677 1.956 1_655 S
Li617 O679 1.961 . S
Li618 N663 1.993 . S
Li618 O676 1.959 . S
Li618 O678 1.958 1_655 S
Li618 O679 1.970 . S
Li619 N669 1.990 . S
Li619 O677 1.961 . S
Li619 O678 1.970 . S
Li619 O679 1.956 1_455 S
C620 C622 1.348 . S
C620 C623 1.356 . S
C620 O676 1.325 . S
N621 C624 1.314 . S
N621 C625 1.279 . S
C622 C620 1.348 . S
C622 C624 1.353 . S
C622 H680 0.929 . S
C623 C620 1.356 . S
C623 C625 1.358 . S
C623 H681 0.930 . S
C624 N621 1.314 . S
C624 C622 1.353 . S
C624 H682 0.930 . S
C625 N621 1.279 . S
C625 C623 1.358 . S
C625 H683 0.930 . S
C626 C629 1.348 1_455 S
C626 C630 1.356 . S
C626 O677 1.325 . S
C627 N628 1.279 . S
C627 C630 1.358 . S
C627 H684 0.930 . S
N628 C627 1.279 . S
N628 C631 1.296 1_455 S
C629 C626 1.348 1_655 S
C629 C631 1.352 . S
C629 H685 0.929 . S
C630 C626 1.356 . S
C630 C627 1.358 . S
C630 H686 0.930 . S
C631 N628 1.296 1_655 S
C631 C629 1.352 . S
C631 H687 0.960 . S
C632 N633 1.314 . S
C632 C637 1.353 . S
C632 H638 0.930 . S
N633 Li616 1.990 . S
N633 C632 1.314 . S
N633 C635 1.279 1_455 S
C634 C635 1.358 . S
C634 C636 1.356 1_655 S
C634 H688 0.930 . S
C635 N633 1.279 1_655 S
C635 C634 1.358 . S
C635 H639 0.930 . S
C636 C634 1.356 1_455 S
C636 C637 1.348 . S
C637 C632 1.353 . S
C637 C636 1.348 . S
C637 H689 0.929 . S
H638 C632 0.930 . S
H639 C635 0.930 . S
C640 N641 1.314 . S
C640 C642 1.353 . S
C640 H646 0.930 . S
N641 Li617 1.990 . S
N641 C640 1.314 . S
N641 C644 1.279 . S
C642 C640 1.353 . S
C642 C645 1.348 . S
C642 H690 0.929 . S
C643 C644 1.358 . S
C643 C645 1.356 . S
C643 H691 0.930 . S
C644 N641 1.279 . S
C644 C643 1.358 . S
C644 H647 0.930 . S
C645 C642 1.348 . S
C645 C643 1.356 . S
H646 C640 0.930 . S
H647 C644 0.930 . S
C648 C650 1.348 . S
C648 C651 1.356 . S
C648 O678 1.325 . S
N649 C652 1.314 . S
N649 C653 1.279 . S
C650 C648 1.348 . S
C650 C652 1.353 . S
C650 H692 0.929 . S
C651 C648 1.356 . S
C651 C653 1.358 . S
C651 H693 0.930 . S
C652 N649 1.314 . S
C652 C650 1.353 . S
C652 H694 0.930 . S
C653 N649 1.279 . S
C653 C651 1.358 . S
C653 H695 0.930 . S
C654 C655 1.363 . S
C654 C656 1.356 . S
C654 O679 1.325 . S
C655 C654 1.363 . S
C655 C657 1.350 . S
C655 H696 0.919 1_655 S
C656 C654 1.356 . S
C656 C658 1.358 . S
C656 H697 0.930 . S
C657 C655 1.350 . S
C657 N659 1.314 . S
C657 H698 0.937 . S
C658 C656 1.358 . S
C658 N659 1.279 . S
C658 H699 0.930 . S
N659 C657 1.314 . S
N659 C658 1.279 . S
C660 C662 1.353 . S
C660 N663 1.342 . S
C660 H666 0.930 . S
C661 N663 1.251 1_455 S
C661 C664 1.358 . S
C661 H667 0.930 . S
C662 C660 1.353 . S
C662 C665 1.348 . S
C662 H700 0.929 . S
N663 Li618 1.993 . S
N663 C660 1.342 . S
N663 C661 1.251 1_655 S
C664 C661 1.358 . S
C664 C665 1.356 1_455 S
C664 H701 0.930 . S
C665 C662 1.348 . S
C665 C664 1.356 1_655 S
H666 C660 0.930 . S
H667 C661 0.930 . S
C668 N669 1.314 . S
C668 C670 1.353 . S
C668 H674 0.930 . S
N669 Li619 1.990 . S
N669 C668 1.314 . S
N669 C672 1.279 . S
C670 C668 1.353 . S
C670 C673 1.348 . S
C670 H702 0.929 . S
C671 C672 1.358 . S
C671 C673 1.356 . S
C671 H703 0.930 . S
C672 N669 1.279 . S
C672 C671 1.358 . S
C672 H675 0.930 . S
C673 C670 1.348 . S
C673 C671 1.356 . S
H674 C668 0.930 . S
H675 C672 0.930 . S
O676 Li616 1.956 1_655 S
O676 Li617 1.970 . S
O676 Li618 1.959 . S
O676 C620 1.325 . S
O677 Li616 1.970 . S
O677 Li617 1.956 1_455 S
O677 Li619 1.961 . S
O677 C626 1.325 . S
O678 Li616 1.961 . S
O678 Li618 1.958 1_455 S
O678 Li619 1.970 . S
O678 C648 1.325 . S
O679 Li617 1.961 . S
O679 Li618 1.970 . S
O679 Li619 1.956 1_655 S
O679 C654 1.325 . S
H680 C622 0.929 . S
H681 C623 0.930 . S
H682 C624 0.930 . S
H683 C625 0.930 . S
H684 C627 0.930 . S
H685 C629 0.929 . S
H686 C630 0.930 . S
H687 C631 0.960 . S
H688 C634 0.930 . S
H689 C637 0.929 . S
H690 C642 0.929 . S
H691 C643 0.930 . S
H692 C650 0.929 . S
H693 C651 0.930 . S
H694 C652 0.930 . S
H695 C653 0.930 . S
H696 C655 0.919 1_455 S
H697 C656 0.930 . S
H698 C657 0.937 . S
H699 C658 0.930 . S
H700 C662 0.929 . S
H701 C664 0.930 . S
H702 C670 0.929 . S
H703 C671 0.930 . S
Li704 N721 1.990 . S
Li704 O764 1.956 1_545 S
Li704 O765 1.970 . S
Li704 O766 1.961 . S
Li705 N729 1.990 . S
Li705 O764 1.970 . S
Li705 O765 1.956 1_565 S
Li705 O767 1.961 1_565 S
Li706 N751 1.990 . S
Li706 O764 1.961 1_545 S
Li706 O766 1.956 . S
Li706 O767 1.970 . S
Li707 N757 1.990 . S
Li707 O765 1.961 . S
Li707 O766 1.970 . S
Li707 O767 1.956 . S
C708 C710 1.348 . S
C708 C711 1.356 . S
C708 O764 1.325 . S
N709 C712 1.314 . S
N709 C713 1.279 . S
C710 C708 1.348 . S
C710 C712 1.353 . S
C710 H768 0.929 . S
C711 C708 1.356 . S
C711 C713 1.358 . S
C711 H769 0.930 . S
C712 N709 1.314 . S
C712 C710 1.353 . S
C712 H770 0.930 . S
C713 N709 1.279 . S
C713 C711 1.358 . S
C713 H771 0.930 . S
C714 C717 1.348 . S
C714 C718 1.356 . S
C714 O765 1.325 . S
C715 N716 1.279 . S
C715 C718 1.358 . S
C715 H772 0.930 . S
N716 C715 1.279 . S
N716 C719 1.314 . S
C717 C714 1.348 . S
C717 C719 1.353 . S
C717 H773 0.961 . S
C718 C714 1.356 . S
C718 C715 1.358 . S
C718 H774 0.930 . S
C719 N716 1.314 . S
C719 C717 1.353 . S
C719 H775 0.945 . S
C720 N721 1.314 . S
C720 C725 1.353 . S
C720 H726 0.930 . S
N721 Li704 1.990 . S
N721 C720 1.314 . S
N721 C723 1.297 . S
C722 C723 1.357 . S
C722 C724 1.356 . S
C722 H776 0.930 1_545 S
C723 N721 1.297 . S
C723 C722 1.357 . S
C723 H727 0.913 1_545 S
C724 C722 1.356 . S
C724 C725 1.348 . S
C725 C720 1.353 . S
C725 C724 1.348 . S
C725 H777 0.929 . S
H726 C720 0.930 . S
H727 C723 0.913 1_565 S
C728 N729 1.314 . S
C728 C730 1.353 . S
C728 H734 0.930 . S
N729 Li705 1.990 . S
N729 C728 1.314 . S
N729 C732 1.279 . S
C730 C728 1.353 . S
C730 C733 1.348 . S
C730 H778 0.929 . S
C731 C732 1.358 . S
C731 C733 1.356 . S
C731 H779 0.930 . S
C732 N729 1.279 . S
C732 C731 1.358 . S
C732 H735 0.930 . S
C733 C730 1.348 . S
C733 C731 1.356 . S
H734 C728 0.930 . S
H735 C732 0.930 . S
C736 C738 1.348 . S
C736 C739 1.356 . S
C736 O766 1.325 . S
N737 C740 1.314 . S
N737 C741 1.279 . S
C738 C736 1.348 . S
C738 C740 1.353 . S
C738 H780 0.929 . S
C739 C736 1.356 . S
C739 C741 1.358 . S
C739 H781 0.930 . S
C740 N737 1.314 . S
C740 C738 1.353 . S
C740 H782 0.930 . S
C741 N737 1.279 . S
C741 C739 1.358 . S
C741 H783 0.930 . S
C742 C743 1.348 . S
C742 C744 1.356 1_545 S
C742 O767 1.325 . S
C743 C742 1.348 . S
C743 C745 1.353 . S
C743 H784 0.929 . S
C744 C742 1.356 1_565 S
C744 C746 1.358 . S
C744 H785 0.930 . S
C745 C743 1.353 . S
C745 N747 1.316 . S
C745 H786 0.930 . S
C746 C744 1.358 . S
C746 N747 1.277 1_565 S
C746 H787 0.930 . S
N747 C745 1.316 . S
N747 C746 1.277 1_545 S
C748 C750 1.353 . S
C748 N751 1.314 1_565 S
C748 H754 0.930 . S
C749 N751 1.279 . S
C749 C752 1.358 . S
C749 H755 0.930 . S
C750 C748 1.353 . S
C750 C753 1.348 1_565 S
C750 H788 0.929 . S
N751 Li706 1.990 . S
N751 C748 1.314 1_545 S
N751 C749 1.279 . S
C752 C749 1.358 . S
C752 C753 1.356 . S
C752 H789 0.930 . S
C753 C750 1.348 1_545 S
C753 C752 1.356 . S
H754 C748 0.930 . S
H755 C749 0.930 . S
C756 N757 1.314 . S
C756 C758 1.353 . S
C756 H762 0.930 . S
N757 Li707 1.990 . S
N757 C756 1.314 . S
N757 C760 1.279 . S
C758 C756 1.353 . S
C758 C761 1.348 . S
C758 H790 0.929 . S
C759 C760 1.358 . S
C759 C761 1.356 . S
C759 H791 0.930 . S
C760 N757 1.279 . S
C760 C759 1.358 . S
C760 H763 0.930 . S
C761 C758 1.348 . S
C761 C759 1.356 . S
H762 C756 0.930 . S
H763 C760 0.930 . S
O764 Li704 1.956 1_565 S
O764 Li705 1.970 . S
O764 Li706 1.961 1_565 S
O764 C708 1.325 . S
O765 Li704 1.970 . S
O765 Li705 1.956 1_545 S
O765 Li707 1.961 . S
O765 C714 1.325 . S
O766 Li704 1.961 . S
O766 Li706 1.956 . S
O766 Li707 1.970 . S
O766 C736 1.325 . S
O767 Li705 1.961 1_545 S
O767 Li706 1.970 . S
O767 Li707 1.956 . S
O767 C742 1.325 . S
H768 C710 0.929 . S
H769 C711 0.930 . S
H770 C712 0.930 . S
H771 C713 0.930 . S
H772 C715 0.930 . S
H773 C717 0.961 . S
H774 C718 0.930 . S
H775 C719 0.945 . S
H776 C722 0.930 1_565 S
H777 C725 0.929 . S
H778 C730 0.929 . S
H779 C731 0.930 . S
H780 C738 0.929 . S
H781 C739 0.930 . S
H782 C740 0.930 . S
H783 C741 0.930 . S
H784 C743 0.929 . S
H785 C744 0.930 . S
H786 C745 0.930 . S
H787 C746 0.930 . S
H788 C750 0.929 . S
H789 C752 0.930 . S
H790 C758 0.929 . S
H791 C759 0.930 . S
Li792 N809 1.990 . S
Li792 O852 1.956 . S
Li792 O853 1.970 . S
Li792 O854 1.961 . S
Li793 N817 1.990 . S
Li793 O852 1.970 . S
Li793 O853 1.956 . S
Li793 O855 1.961 . S
Li794 N839 1.990 . S
Li794 O852 1.961 . S
Li794 O854 1.956 . S
Li794 O855 1.970 . S
Li795 N845 1.990 . S
Li795 O853 1.961 . S
Li795 O854 1.970 . S
Li795 O855 1.956 . S
C796 C798 1.348 . S
C796 C799 1.356 . S
C796 O852 1.325 . S
N797 C800 1.314 . S
N797 C801 1.279 . S
C798 C796 1.348 . S
C798 C800 1.353 . S
C798 H856 0.929 . S
C799 C796 1.356 . S
C799 C801 1.358 . S
C799 H857 0.930 . S
C800 N797 1.314 . S
C800 C798 1.353 . S
C800 H858 0.930 . S
C801 N797 1.279 . S
C801 C799 1.358 . S
C801 H859 0.930 . S
C802 C805 1.348 . S
C802 C806 1.356 . S
C802 O853 1.325 . S
C803 N804 1.279 . S
C803 C806 1.358 . S
C803 H860 0.930 . S
N804 C803 1.279 . S
N804 C807 1.314 . S
C805 C802 1.348 . S
C805 C807 1.353 . S
C805 H861 0.929 . S
C806 C802 1.356 . S
C806 C803 1.358 . S
C806 H862 0.930 . S
C807 N804 1.314 . S
C807 C805 1.353 . S
C807 H863 0.930 . S
C808 N809 1.314 . S
C808 C813 1.353 . S
C808 H814 0.930 . S
N809 Li792 1.990 . S
N809 C808 1.314 . S
N809 C811 1.279 . S
C810 C811 1.358 . S
C810 C812 1.356 . S
C810 H864 0.930 . S
C811 N809 1.279 . S
C811 C810 1.358 . S
C811 H815 0.930 . S
C812 C810 1.356 . S
C812 C813 1.348 . S
C813 C808 1.353 . S
C813 C812 1.348 . S
C813 H865 0.929 . S
H814 C808 0.930 . S
H815 C811 0.930 . S
C816 N817 1.314 . S
C816 C818 1.353 . S
C816 H822 0.930 . S
N817 Li793 1.990 . S
N817 C816 1.314 . S
N817 C820 1.279 . S
C818 C816 1.353 . S
C818 C821 1.348 . S
C818 H866 0.929 . S
C819 C820 1.358 . S
C819 C821 1.356 . S
C819 H867 0.930 . S
C820 N817 1.279 . S
C820 C819 1.358 . S
C820 H823 0.930 . S
C821 C818 1.348 . S
C821 C819 1.356 . S
H822 C816 0.930 . S
H823 C820 0.930 . S
C824 C826 1.348 . S
C824 C827 1.356 . S
C824 O854 1.325 . S
N825 C828 1.314 . S
N825 C829 1.279 . S
C826 C824 1.348 . S
C826 C828 1.353 . S
C826 H868 0.929 . S
C827 C824 1.356 . S
C827 C829 1.358 . S
C827 H869 0.930 . S
C828 N825 1.314 . S
C828 C826 1.353 . S
C828 H870 0.930 . S
C829 N825 1.279 . S
C829 C827 1.358 . S
C829 H871 0.930 . S
C830 C831 1.348 . S
C830 C832 1.356 . S
C830 O855 1.325 . S
C831 C830 1.348 . S
C831 C833 1.353 . S
C831 H872 0.929 . S
C832 C830 1.356 . S
C832 C834 1.358 . S
C832 H873 0.930 . S
C833 C831 1.353 . S
C833 N835 1.314 . S
C833 H874 0.930 . S
C834 C832 1.358 . S
C834 N835 1.279 . S
C834 H875 0.930 . S
N835 C833 1.314 . S
N835 C834 1.279 . S
C836 C838 1.353 . S
C836 N839 1.314 . S
C836 H842 0.930 . S
C837 N839 1.279 . S
C837 C840 1.358 . S
C837 H843 0.930 . S
C838 C836 1.353 . S
C838 C841 1.348 . S
C838 H876 0.929 . S
N839 Li794 1.990 . S
N839 C836 1.314 . S
N839 C837 1.279 . S
C840 C837 1.358 . S
C840 C841 1.356 . S
C840 H877 0.930 . S
C841 C838 1.348 . S
C841 C840 1.356 . S
H842 C836 0.930 . S
H843 C837 0.930 . S
C844 N845 1.314 . S
C844 C846 1.353 . S
C844 H850 0.930 . S
N845 Li795 1.990 . S
N845 C844 1.314 . S
N845 C848 1.279 . S
C846 C844 1.353 . S
C846 C849 1.348 . S
C846 H878 0.929 . S
C847 C848 1.358 . S
C847 C849 1.356 . S
C847 H879 0.930 . S
C848 N845 1.279 . S
C848 C847 1.358 . S
C848 H851 0.930 . S
C849 C846 1.348 . S
C849 C847 1.356 . S
H850 C844 0.930 . S
H851 C848 0.930 . S
O852 Li792 1.956 . S
O852 Li793 1.970 . S
O852 Li794 1.961 . S
O852 C796 1.325 . S
O853 Li792 1.970 . S
O853 Li793 1.956 . S
O853 Li795 1.961 . S
O853 C802 1.325 . S
O854 Li792 1.961 . S
O854 Li794 1.956 . S
O854 Li795 1.970 . S
O854 C824 1.325 . S
O855 Li793 1.961 . S
O855 Li794 1.970 . S
O855 Li795 1.956 . S
O855 C830 1.325 . S
H856 C798 0.929 . S
H857 C799 0.930 . S
H858 C800 0.930 . S
H859 C801 0.930 . S
H860 C803 0.930 . S
H861 C805 0.929 . S
H862 C806 0.930 . S
H863 C807 0.930 . S
H864 C810 0.930 . S
H865 C813 0.929 . S
H866 C818 0.929 . S
H867 C819 0.930 . S
H868 C826 0.929 . S
H869 C827 0.930 . S
H870 C828 0.930 . S
H871 C829 0.930 . S
H872 C831 0.929 . S
H873 C832 0.930 . S
H874 C833 0.930 . S
H875 C834 0.930 . S
H876 C838 0.929 . S
H877 C840 0.930 . S
H878 C846 0.929 . S
H879 C847 0.930 . S
Li880 N897 1.990 . S
Li880 O940 1.956 . S
Li880 O941 1.970 . S
Li880 O942 1.961 . S
Li881 N905 1.990 . S
Li881 O940 1.970 . S
Li881 O941 1.956 . S
Li881 O943 1.961 . S
Li882 N927 1.990 1_545 S
Li882 O940 1.961 . S
Li882 O942 1.956 . S
Li882 O943 1.970 . S
Li883 N933 1.990 . S
Li883 O941 1.961 . S
Li883 O942 1.970 . S
Li883 O943 1.956 . S
C884 C886 1.348 . S
C884 C887 1.356 . S
C884 O940 1.325 . S
N885 C888 1.314 . S
N885 C889 1.279 . S
C886 C884 1.348 . S
C886 C888 1.353 . S
C886 H944 0.929 . S
C887 C884 1.356 . S
C887 C889 1.358 . S
C887 H945 0.930 . S
C888 N885 1.314 . S
C888 C886 1.353 . S
C888 H946 0.930 . S
C889 N885 1.279 . S
C889 C887 1.358 . S
C889 H947 0.930 . S
C890 C893 1.348 . S
C890 C894 1.356 . S
C890 O941 1.325 . S
C891 N892 1.279 . S
C891 C894 1.358 . S
C891 H948 0.930 . S
N892 C891 1.279 . S
N892 C895 1.314 . S
C893 C890 1.348 . S
C893 C895 1.353 . S
C893 H949 0.929 . S
C894 C890 1.356 . S
C894 C891 1.358 . S
C894 H950 0.930 . S
C895 N892 1.314 . S
C895 C893 1.353 . S
C895 H951 0.930 . S
C896 N897 1.314 . S
C896 C901 1.353 . S
C896 H902 0.930 . S
N897 Li880 1.990 . S
N897 C896 1.314 . S
N897 C899 1.279 . S
C898 C899 1.358 . S
C898 C900 1.356 . S
C898 H952 0.930 . S
C899 N897 1.279 . S
C899 C898 1.358 . S
C899 H903 0.930 . S
C900 C898 1.356 . S
C900 C901 1.348 . S
C901 C896 1.353 . S
C901 C900 1.348 . S
C901 H953 0.929 . S
H902 C896 0.930 . S
H903 C899 0.930 . S
C904 N905 1.314 . S
C904 C906 1.353 . S
C904 H910 0.930 . S
N905 Li881 1.990 . S
N905 C904 1.314 . S
N905 C908 1.279 . S
C906 C904 1.353 . S
C906 C909 1.348 . S
C906 H954 0.991 . S
C907 C908 1.358 . S
C907 C909 1.356 . S
C907 H955 0.930 . S
C908 N905 1.279 . S
C908 C907 1.358 . S
C908 H911 0.930 . S
C909 C906 1.348 . S
C909 C907 1.356 . S
H910 C904 0.930 . S
H911 C908 0.930 . S
C912 C914 1.348 . S
C912 C915 1.356 . S
C912 O942 1.325 . S
N913 C916 1.314 . S
N913 C917 1.279 . S
C914 C912 1.348 . S
C914 C916 1.353 . S
C914 H956 0.929 . S
C915 C912 1.356 . S
C915 C917 1.358 . S
C915 H957 0.930 . S
C916 N913 1.314 . S
C916 C914 1.353 . S
C916 H958 0.930 . S
C917 N913 1.279 . S
C917 C915 1.358 . S
C917 H959 0.930 . S
C918 C919 1.348 . S
C918 C920 1.356 . S
C918 O943 1.325 1_565 S
C919 C918 1.348 . S
C919 C921 1.353 . S
C919 H960 0.929 . S
C920 C918 1.356 . S
C920 C922 1.358 . S
C920 H961 0.861 1_565 S
C921 C919 1.353 . S
C921 N923 1.314 . S
C921 H962 0.930 . S
C922 C920 1.358 . S
C922 N923 1.279 . S
C922 H963 0.930 . S
N923 C921 1.314 . S
N923 C922 1.279 . S
C924 C926 1.353 . S
C924 N927 1.314 . S
C924 H930 0.930 . S
C925 N927 1.279 . S
C925 C928 1.358 . S
C925 H931 0.930 . S
C926 C924 1.353 . S
C926 C929 1.348 . S
C926 H964 0.929 . S
N927 Li882 1.990 1_565 S
N927 C924 1.314 . S
N927 C925 1.279 . S
C928 C925 1.358 . S
C928 C929 1.356 . S
C928 H965 0.930 . S
C929 C926 1.348 . S
C929 C928 1.356 . S
H930 C924 0.930 . S
H931 C925 0.930 . S
C932 N933 1.314 . S
C932 C934 1.353 . S
C932 H938 0.930 . S
N933 Li883 1.990 . S
N933 C932 1.314 . S
N933 C936 1.279 . S
C934 C932 1.353 . S
C934 C937 1.348 . S
C934 H966 0.929 . S
C935 C936 1.358 . S
C935 C937 1.356 . S
C935 H967 0.930 1_545 S
C936 N933 1.279 . S
C936 C935 1.358 . S
C936 H939 0.930 1_545 S
C937 C934 1.348 . S
C937 C935 1.356 . S
H938 C932 0.930 . S
H939 C936 0.930 1_565 S
O940 Li880 1.956 . S
O940 Li881 1.970 . S
O940 Li882 1.961 . S
O940 C884 1.325 . S
O941 Li880 1.970 . S
O941 Li881 1.956 . S
O941 Li883 1.961 . S
O941 C890 1.325 . S
O942 Li880 1.961 . S
O942 Li882 1.956 . S
O942 Li883 1.970 . S
O942 C912 1.325 . S
O943 Li881 1.961 . S
O943 Li882 1.970 . S
O943 Li883 1.956 . S
O943 C918 1.325 1_545 S
H944 C886 0.929 . S
H945 C887 0.930 . S
H946 C888 0.930 . S
H947 C889 0.930 . S
H948 C891 0.930 . S
H949 C893 0.929 . S
H950 C894 0.930 . S
H951 C895 0.930 . S
H952 C898 0.930 . S
H953 C901 0.929 . S
H954 C906 0.991 . S
H955 C907 0.930 . S
H956 C914 0.929 . S
H957 C915 0.930 . S
H958 C916 0.930 . S
H959 C917 0.930 . S
H960 C919 0.929 . S
H961 C920 0.861 1_545 S
H962 C921 0.930 . S
H963 C922 0.930 . S
H964 C926 0.929 . S
H965 C928 0.930 . S
H966 C934 0.929 . S
H967 C935 0.930 1_565 S
Li968 N985 1.990 . S
Li968 O1028 1.980 . S
Li968 O1029 1.971 1_554 S
Li968 O1030 1.934 1_554 S
Li969 N993 1.990 . S
Li969 O1028 1.970 . S
Li969 O1029 1.956 1_554 S
Li969 O1031 1.995 . S
Li970 N1015 1.990 . S
Li970 O1028 1.961 . S
Li970 O1030 1.956 1_554 S
Li970 O1031 1.967 . S
Li971 N1021 1.990 . S
Li971 O1029 1.961 . S
Li971 O1030 1.970 . S
Li971 O1031 1.924 1_556 S
C972 C974 1.348 . S
C972 C975 1.356 . S
C972 O1028 1.325 . S
N973 C976 1.314 . S
N973 C977 1.279 . S
C974 C972 1.348 . S
C974 C976 1.353 . S
C974 H1032 0.929 . S
C975 C972 1.356 . S
C975 C977 1.358 . S
C975 H1033 0.930 . S
C976 N973 1.314 . S
C976 C974 1.353 . S
C976 H1034 0.930 . S
C977 N973 1.279 . S
C977 C975 1.358 . S
C977 H1035 0.930 . S
C978 C981 1.348 1_556 S
C978 C982 1.356 . S
C978 O1029 1.325 . S
C979 N980 1.279 . S
C979 C982 1.358 . S
C979 H1036 0.930 . S
N980 C979 1.279 . S
N980 C983 1.314 . S
C981 C978 1.348 1_554 S
C981 C983 1.353 1_554 S
C981 H1037 0.929 . S
C982 C978 1.356 . S
C982 C979 1.358 . S
C982 H1038 0.930 . S
C983 N980 1.314 . S
C983 C981 1.353 1_556 S
C983 H1039 0.929 1_556 S
C984 N985 1.271 1_556 S
C984 C989 1.353 . S
C984 H990 0.930 . S
N985 Li968 1.990 . S
N985 C984 1.271 1_554 S
N985 C987 1.324 . S
C986 C987 1.358 . S
C986 C988 1.348 1_554 S
C986 H1040 0.930 . S
C987 N985 1.324 . S
C987 C986 1.358 . S
C987 H991 0.930 . S
C988 C986 1.348 1_556 S
C988 C989 1.356 . S
C989 C984 1.353 . S
C989 C988 1.356 . S
C989 H1041 0.929 . S
H990 C984 0.930 . S
H991 C987 0.930 . S
C992 N993 1.314 . S
C992 C994 1.353 . S
C992 H998 0.930 . S
N993 Li969 1.990 . S
N993 C992 1.314 . S
N993 C996 1.279 . S
C994 C992 1.353 . S
C994 C997 1.348 . S
C994 H1042 0.929 . S
C995 C996 1.358 . S
C995 C997 1.356 . S
C995 H1043 0.930 . S
C996 N993 1.279 . S
C996 C995 1.358 . S
C996 H999 0.930 . S
C997 C994 1.348 . S
C997 C995 1.356 . S
H998 C992 0.930 . S
H999 C996 0.930 . S
C1000 C1002 1.348 . S
C1000 C1003 1.356 . S
C1000 O1030 1.325 . S
N1001 C1004 1.314 . S
N1001 C1005 1.279 . S
C1002 C1000 1.348 . S
C1002 C1004 1.353 . S
C1002 H1044 0.929 . S
C1003 C1000 1.356 . S
C1003 C1005 1.358 . S
C1003 H1045 0.930 . S
C1004 N1001 1.314 . S
C1004 C1002 1.353 . S
C1004 H1046 0.930 . S
C1005 N1001 1.279 . S
C1005 C1003 1.358 . S
C1005 H1047 0.930 . S
C1006 C1007 1.341 1_554 S
C1006 C1008 1.360 . S
C1006 O1031 1.324 . S
C1007 C1006 1.341 1_556 S
C1007 C1009 1.353 . S
C1007 H1048 0.929 . S
C1008 C1006 1.360 . S
C1008 C1010 1.358 . S
C1008 H1049 0.930 . S
C1009 C1007 1.353 . S
C1009 N1011 1.333 . S
C1009 H1050 0.930 . S
C1010 C1008 1.358 . S
C1010 N1011 1.261 1_554 S
C1010 H1051 0.930 . S
N1011 C1009 1.333 . S
N1011 C1010 1.261 1_556 S
C1012 C1014 1.353 . S
C1012 N1015 1.314 . S
C1012 H1018 0.930 . S
C1013 N1015 1.279 1_556 S
C1013 C1016 1.358 . S
C1013 H1019 0.930 . S
C1014 C1012 1.353 . S
C1014 C1017 1.348 . S
C1014 H1052 0.929 . S
N1015 Li970 1.990 . S
N1015 C1012 1.314 . S
N1015 C1013 1.279 1_554 S
C1016 C1013 1.358 . S
C1016 C1017 1.356 1_556 S
C1016 H1053 0.930 . S
C1017 C1014 1.348 . S
C1017 C1016 1.356 1_554 S
H1018 C1012 0.930 . S
H1019 C1013 0.930 . S
C1020 N1021 1.314 . S
C1020 C1022 1.353 . S
C1020 H1026 0.930 . S
N1021 Li971 1.990 . S
N1021 C1020 1.314 . S
N1021 C1024 1.279 . S
C1022 C1020 1.353 . S
C1022 C1025 1.348 . S
C1022 H1054 0.929 . S
C1023 C1024 1.358 . S
C1023 C1025 1.356 . S
C1023 H1055 0.930 . S
C1024 N1021 1.279 . S
C1024 C1023 1.358 . S
C1024 H1027 0.930 . S
C1025 C1022 1.348 . S
C1025 C1023 1.356 . S
H1026 C1020 0.930 . S
H1027 C1024 0.930 . S
O1028 Li968 1.980 . S
O1028 Li969 1.970 . S
O1028 Li970 1.961 . S
O1028 C972 1.325 . S
O1029 Li968 1.971 1_556 S
O1029 Li969 1.956 1_556 S
O1029 Li971 1.961 . S
O1029 C978 1.325 . S
O1030 Li968 1.934 1_556 S
O1030 Li970 1.956 1_556 S
O1030 Li971 1.970 . S
O1030 C1000 1.325 . S
O1031 Li969 1.995 . S
O1031 Li970 1.967 . S
O1031 Li971 1.924 1_554 S
O1031 C1006 1.324 . S
H1032 C974 0.929 . S
H1033 C975 0.930 . S
H1034 C976 0.930 . S
H1035 C977 0.930 . S
H1036 C979 0.930 . S
H1037 C981 0.929 . S
H1038 C982 0.930 . S
H1039 C983 0.929 1_554 S
H1040 C986 0.930 . S
H1041 C989 0.929 . S
H1042 C994 0.929 . S
H1043 C995 0.930 . S
H1044 C1002 0.929 . S
H1045 C1003 0.930 . S
H1046 C1004 0.930 . S
H1047 C1005 0.930 . S
H1048 C1007 0.929 . S
H1049 C1008 0.930 . S
H1050 C1009 0.930 . S
H1051 C1010 0.930 . S
H1052 C1014 0.929 . S
H1053 C1016 0.930 . S
H1054 C1022 0.929 . S
H1055 C1023 0.930 . S
Li1056 N1073 1.990 . S
Li1056 O1116 1.956 . S
Li1056 O1117 1.970 . S
Li1056 O1118 1.961 . S
Li1057 N1081 1.990 . S
Li1057 O1116 1.970 . S
Li1057 O1117 1.956 . S
Li1057 O1119 1.961 . S
Li1058 N1103 1.990 . S
Li1058 O1116 1.961 . S
Li1058 O1118 1.956 . S
Li1058 O1119 1.970 . S
Li1059 N1109 1.990 1_554 S
Li1059 O1117 1.961 . S
Li1059 O1118 1.970 . S
Li1059 O1119 1.956 . S
C1060 C1062 1.348 . S
C1060 C1063 1.356 . S
C1060 O1116 1.325 . S
N1061 C1064 1.314 . S
N1061 C1065 1.279 . S
C1062 C1060 1.348 . S
C1062 C1064 1.353 . S
C1062 H1120 0.929 . S
C1063 C1060 1.356 . S
C1063 C1065 1.358 . S
C1063 H1121 0.930 . S
C1064 N1061 1.314 . S
C1064 C1062 1.353 . S
C1064 H1122 0.930 . S
C1065 N1061 1.279 . S
C1065 C1063 1.358 . S
C1065 H1123 0.930 . S
C1066 C1069 1.348 . S
C1066 C1070 1.356 . S
C1066 O1117 1.325 . S
C1067 N1068 1.279 . S
C1067 C1070 1.358 . S
C1067 H1124 0.930 . S
N1068 C1067 1.279 . S
N1068 C1071 1.314 . S
C1069 C1066 1.348 . S
C1069 C1071 1.353 . S
C1069 H1125 0.929 . S
C1070 C1066 1.356 . S
C1070 C1067 1.358 . S
C1070 H1126 0.930 . S
C1071 N1068 1.314 . S
C1071 C1069 1.353 . S
C1071 H1127 0.930 . S
C1072 N1073 1.314 . S
C1072 C1077 1.353 . S
C1072 H1078 0.930 . S
N1073 Li1056 1.990 . S
N1073 C1072 1.314 . S
N1073 C1075 1.279 . S
C1074 C1075 1.358 . S
C1074 C1076 1.356 . S
C1074 H1128 0.930 . S
C1075 N1073 1.279 . S
C1075 C1074 1.358 . S
C1075 H1079 0.930 . S
C1076 C1074 1.356 . S
C1076 C1077 1.348 . S
C1077 C1072 1.353 . S
C1077 C1076 1.348 . S
C1077 H1129 0.929 . S
H1078 C1072 0.930 . S
H1079 C1075 0.930 . S
C1080 N1081 1.314 . S
C1080 C1082 1.353 . S
C1080 H1086 0.930 . S
N1081 Li1057 1.990 . S
N1081 C1080 1.314 . S
N1081 C1084 1.279 . S
C1082 C1080 1.353 . S
C1082 C1085 1.348 . S
C1082 H1130 0.929 . S
C1083 C1084 1.358 . S
C1083 C1085 1.356 . S
C1083 H1131 0.930 . S
C1084 N1081 1.279 . S
C1084 C1083 1.358 . S
C1084 H1087 0.930 . S
C1085 C1082 1.348 . S
C1085 C1083 1.356 . S
H1086 C1080 0.930 . S
H1087 C1084 0.930 . S
C1088 C1090 1.348 1_554 S
C1088 C1091 1.356 . S
C1088 O1118 1.325 . S
N1089 C1092 1.314 . S
N1089 C1093 1.279 . S
C1090 C1088 1.348 1_556 S
C1090 C1092 1.353 . S
C1090 H1132 0.929 . S
C1091 C1088 1.356 . S
C1091 C1093 1.358 1_554 S
C1091 H1133 0.930 . S
C1092 N1089 1.314 . S
C1092 C1090 1.353 . S
C1092 H1134 0.930 . S
C1093 N1089 1.279 . S
C1093 C1091 1.358 1_556 S
C1093 H1135 0.930 . S
C1094 C1095 1.348 . S
C1094 C1096 1.356 . S
C1094 O1119 1.325 . S
C1095 C1094 1.348 . S
C1095 C1097 1.353 . S
C1095 H1136 0.929 . S
C1096 C1094 1.356 . S
C1096 C1098 1.358 . S
C1096 H1137 0.930 . S
C1097 C1095 1.353 . S
C1097 N1099 1.314 . S
C1097 H1138 0.930 . S
C1098 C1096 1.358 . S
C1098 N1099 1.279 . S
C1098 H1139 0.930 . S
N1099 C1097 1.314 . S
N1099 C1098 1.279 . S
C1100 C1102 1.353 . S
C1100 N1103 1.314 . S
C1100 H1106 0.930 . S
C1101 N1103 1.279 . S
C1101 C1104 1.358 . S
C1101 H1107 0.930 . S
C1102 C1100 1.353 . S
C1102 C1105 1.348 . S
C1102 H1140 0.929 . S
N1103 Li1058 1.990 . S
N1103 C1100 1.314 . S
N1103 C1101 1.279 . S
C1104 C1101 1.358 . S
C1104 C1105 1.356 . S
C1104 H1141 0.930 . S
C1105 C1102 1.348 . S
C1105 C1104 1.356 . S
H1106 C1100 0.930 . S
H1107 C1101 0.930 . S
C1108 N1109 1.314 . S
C1108 C1110 1.353 . S
C1108 H1114 0.930 . S
N1109 Li1059 1.990 1_556 S
N1109 C1108 1.314 . S
N1109 C1112 1.279 . S
C1110 C1108 1.353 . S
C1110 C1113 1.348 . S
C1110 H1142 0.929 . S
C1111 C1112 1.358 . S
C1111 C1113 1.356 . S
C1111 H1143 0.930 . S
C1112 N1109 1.279 . S
C1112 C1111 1.358 . S
C1112 H1115 0.930 . S
C1113 C1110 1.348 . S
C1113 C1111 1.356 . S
H1114 C1108 0.930 . S
H1115 C1112 0.930 . S
O1116 Li1056 1.956 . S
O1116 Li1057 1.970 . S
O1116 Li1058 1.961 . S
O1116 C1060 1.325 . S
O1117 Li1056 1.970 . S
O1117 Li1057 1.956 . S
O1117 Li1059 1.961 . S
O1117 C1066 1.325 . S
O1118 Li1056 1.961 . S
O1118 Li1058 1.956 . S
O1118 Li1059 1.970 . S
O1118 C1088 1.325 . S
O1119 Li1057 1.961 . S
O1119 Li1058 1.970 . S
O1119 Li1059 1.956 . S
O1119 C1094 1.325 . S
H1120 C1062 0.929 . S
H1121 C1063 0.930 . S
H1122 C1064 0.930 . S
H1123 C1065 0.930 . S
H1124 C1067 0.930 . S
H1125 C1069 0.929 . S
H1126 C1070 0.930 . S
H1127 C1071 0.930 . S
H1128 C1074 0.930 . S
H1129 C1077 0.929 . S
H1130 C1082 0.929 . S
H1131 C1083 0.930 . S
H1132 C1090 0.929 . S
H1133 C1091 0.930 . S
H1134 C1092 0.930 . S
H1135 C1093 0.930 . S
H1136 C1095 0.929 . S
H1137 C1096 0.930 . S
H1138 C1097 0.930 . S
H1139 C1098 0.930 . S
H1140 C1102 0.929 . S
H1141 C1104 0.930 . S
H1142 C1110 0.929 . S
H1143 C1111 0.930 . S
Li1144 N1161 1.990 . S
Li1144 O1204 1.956 . S
Li1144 O1205 1.970 . S
Li1144 O1206 1.961 . S
Li1145 N1169 1.990 . S
Li1145 O1204 1.970 . S
Li1145 O1205 1.956 . S
Li1145 O1207 1.961 . S
Li1146 N1191 1.990 . S
Li1146 O1204 1.961 . S
Li1146 O1206 1.956 . S
Li1146 O1207 1.970 . S
Li1147 N1197 1.990 . S
Li1147 O1205 1.961 . S
Li1147 O1206 1.970 . S
Li1147 O1207 1.956 . S
C1148 C1150 1.348 . S
C1148 C1151 1.356 . S
C1148 O1204 1.325 . S
N1149 C1152 1.314 . S
N1149 C1153 1.279 . S
C1150 C1148 1.348 . S
C1150 C1152 1.353 . S
C1150 H1208 0.929 . S
C1151 C1148 1.356 . S
C1151 C1153 1.358 . S
C1151 H1209 0.930 . S
C1152 N1149 1.314 . S
C1152 C1150 1.353 . S
C1152 H1210 0.930 . S
C1153 N1149 1.279 . S
C1153 C1151 1.358 . S
C1153 H1211 0.930 . S
C1154 C1157 1.348 . S
C1154 C1158 1.356 . S
C1154 O1205 1.325 . S
C1155 N1156 1.279 . S
C1155 C1158 1.358 . S
C1155 H1212 0.930 . S
N1156 C1155 1.279 . S
N1156 C1159 1.314 . S
C1157 C1154 1.348 . S
C1157 C1159 1.353 . S
C1157 H1213 0.929 . S
C1158 C1154 1.356 . S
C1158 C1155 1.358 . S
C1158 H1214 0.930 . S
C1159 N1156 1.314 . S
C1159 C1157 1.353 . S
C1159 H1215 0.930 . S
C1160 N1161 1.314 . S
C1160 C1165 1.353 . S
C1160 H1166 0.930 . S
N1161 Li1144 1.990 . S
N1161 C1160 1.314 . S
N1161 C1163 1.279 . S
C1162 C1163 1.358 . S
C1162 C1164 1.356 . S
C1162 H1216 0.930 . S
C1163 N1161 1.279 . S
C1163 C1162 1.358 . S
C1163 H1167 0.930 . S
C1164 C1162 1.356 . S
C1164 C1165 1.348 . S
C1165 C1160 1.353 . S
C1165 C1164 1.348 . S
C1165 H1217 0.929 . S
H1166 C1160 0.930 . S
H1167 C1163 0.930 . S
C1168 N1169 1.314 . S
C1168 C1170 1.353 . S
C1168 H1174 0.930 . S
N1169 Li1145 1.990 . S
N1169 C1168 1.314 . S
N1169 C1172 1.279 . S
C1170 C1168 1.353 . S
C1170 C1173 1.348 . S
C1170 H1218 0.929 . S
C1171 C1172 1.358 . S
C1171 C1173 1.356 . S
C1171 H1219 0.930 . S
C1172 N1169 1.279 . S
C1172 C1171 1.358 . S
C1172 H1175 0.930 . S
C1173 C1170 1.348 . S
C1173 C1171 1.356 . S
H1174 C1168 0.930 . S
H1175 C1172 0.930 . S
C1176 C1178 1.348 . S
C1176 C1179 1.356 . S
C1176 O1206 1.325 . S
N1177 C1180 1.314 . S
N1177 C1181 1.279 . S
C1178 C1176 1.348 . S
C1178 C1180 1.353 . S
C1178 H1220 0.929 . S
C1179 C1176 1.356 . S
C1179 C1181 1.358 . S
C1179 H1221 0.930 . S
C1180 N1177 1.314 . S
C1180 C1178 1.353 . S
C1180 H1222 0.930 . S
C1181 N1177 1.279 . S
C1181 C1179 1.358 . S
C1181 H1223 0.930 . S
C1182 C1183 1.348 1_554 S
C1182 C1184 1.356 . S
C1182 O1207 1.325 . S
C1183 C1182 1.348 1_556 S
C1183 C1185 1.353 . S
C1183 H1224 0.929 . S
C1184 C1182 1.356 . S
C1184 C1186 1.358 1_554 S
C1184 H1225 0.930 . S
C1185 C1183 1.353 . S
C1185 N1187 1.314 . S
C1185 H1226 0.930 . S
C1186 C1184 1.358 1_556 S
C1186 N1187 1.279 . S
C1186 H1227 0.930 . S
N1187 C1185 1.314 . S
N1187 C1186 1.279 . S
C1188 C1190 1.353 . S
C1188 N1191 1.314 1_556 S
C1188 H1194 0.930 . S
C1189 N1191 1.279 1_556 S
C1189 C1192 1.358 . S
C1189 H1195 0.930 1_556 S
C1190 C1188 1.353 . S
C1190 C1193 1.348 . S
C1190 H1228 0.929 . S
N1191 Li1146 1.990 . S
N1191 C1188 1.314 1_554 S
N1191 C1189 1.279 1_554 S
C1192 C1189 1.358 . S
C1192 C1193 1.356 . S
C1192 H1229 0.930 . S
C1193 C1190 1.348 . S
C1193 C1192 1.356 . S
H1194 C1188 0.930 . S
H1195 C1189 0.930 1_554 S
C1196 N1197 1.314 . S
C1196 C1198 1.353 . S
C1196 H1202 0.930 . S
N1197 Li1147 1.990 . S
N1197 C1196 1.314 . S
N1197 C1200 1.279 . S
C1198 C1196 1.353 . S
C1198 C1201 1.348 . S
C1198 H1230 0.929 . S
C1199 C1200 1.358 . S
C1199 C1201 1.356 . S
C1199 H1231 0.930 . S
C1200 N1197 1.279 . S
C1200 C1199 1.358 . S
C1200 H1203 0.930 . S
C1201 C1198 1.348 . S
C1201 C1199 1.356 . S
H1202 C1196 0.930 . S
H1203 C1200 0.930 . S
O1204 Li1144 1.956 . S
O1204 Li1145 1.970 . S
O1204 Li1146 1.961 . S
O1204 C1148 1.325 . S
O1205 Li1144 1.970 . S
O1205 Li1145 1.956 . S
O1205 Li1147 1.961 . S
O1205 C1154 1.325 . S
O1206 Li1144 1.961 . S
O1206 Li1146 1.956 . S
O1206 Li1147 1.970 . S
O1206 C1176 1.325 . S
O1207 Li1145 1.961 . S
O1207 Li1146 1.970 . S
O1207 Li1147 1.956 . S
O1207 C1182 1.325 . S
H1208 C1150 0.929 . S
H1209 C1151 0.930 . S
H1210 C1152 0.930 . S
H1211 C1153 0.930 . S
H1212 C1155 0.930 . S
H1213 C1157 0.929 . S
H1214 C1158 0.930 . S
H1215 C1159 0.930 . S
H1216 C1162 0.930 . S
H1217 C1165 0.929 . S
H1218 C1170 0.929 . S
H1219 C1171 0.930 . S
H1220 C1178 0.929 . S
H1221 C1179 0.930 . S
H1222 C1180 0.930 . S
H1223 C1181 0.930 . S
H1224 C1183 0.929 . S
H1225 C1184 0.930 . S
H1226 C1185 0.930 . S
H1227 C1186 0.930 . S
H1228 C1190 0.929 . S
H1229 C1192 0.930 . S
H1230 C1198 0.929 . S
H1231 C1199 0.930 . S
Li1232 N1249 1.990 . S
Li1232 O1292 1.956 . S
Li1232 O1293 1.970 . S
Li1232 O1294 1.961 . S
Li1233 N1257 1.990 . S
Li1233 O1292 1.970 . S
Li1233 O1293 1.956 . S
Li1233 O1295 1.961 . S
Li1234 N1279 1.990 . S
Li1234 O1292 1.961 . S
Li1234 O1294 1.956 . S
Li1234 O1295 1.970 . S
Li1235 N1285 1.990 . S
Li1235 O1293 1.961 . S
Li1235 O1294 1.970 . S
Li1235 O1295 1.956 . S
C1236 C1238 1.348 . S
C1236 C1239 1.356 . S
C1236 O1292 1.325 . S
N1237 C1240 1.314 . S
N1237 C1241 1.279 . S
C1238 C1236 1.348 . S
C1238 C1240 1.353 . S
C1238 H1296 0.929 . S
C1239 C1236 1.356 . S
C1239 C1241 1.358 . S
C1239 H1297 0.930 . S
C1240 N1237 1.314 . S
C1240 C1238 1.353 . S
C1240 H1298 0.930 . S
C1241 N1237 1.279 . S
C1241 C1239 1.358 . S
C1241 H1299 0.930 . S
C1242 C1245 1.348 . S
C1242 C1246 1.356 . S
C1242 O1293 1.325 . S
C1243 N1244 1.279 . S
C1243 C1246 1.358 . S
C1243 H1300 0.930 . S
N1244 C1243 1.279 . S
N1244 C1247 1.314 . S
C1245 C1242 1.348 . S
C1245 C1247 1.353 . S
C1245 H1301 0.929 . S
C1246 C1242 1.356 . S
C1246 C1243 1.358 . S
C1246 H1302 0.930 . S
C1247 N1244 1.314 . S
C1247 C1245 1.353 . S
C1247 H1303 0.930 . S
C1248 N1249 1.314 . S
C1248 C1253 1.353 . S
C1248 H1254 0.930 . S
N1249 Li1232 1.990 . S
N1249 C1248 1.314 . S
N1249 C1251 1.279 . S
C1250 C1251 1.358 . S
C1250 C1252 1.356 . S
C1250 H1304 0.930 . S
C1251 N1249 1.279 . S
C1251 C1250 1.358 . S
C1251 H1255 0.930 . S
C1252 C1250 1.356 . S
C1252 C1253 1.348 . S
C1253 C1248 1.353 . S
C1253 C1252 1.348 . S
C1253 H1305 0.929 . S
H1254 C1248 0.930 . S
H1255 C1251 0.930 . S
C1256 N1257 1.314 . S
C1256 C1258 1.353 . S
C1256 H1262 0.930 . S
N1257 Li1233 1.990 . S
N1257 C1256 1.314 . S
N1257 C1260 1.279 . S
C1258 C1256 1.353 . S
C1258 C1261 1.348 . S
C1258 H1306 0.929 . S
C1259 C1260 1.358 . S
C1259 C1261 1.356 . S
C1259 H1307 0.930 . S
C1260 N1257 1.279 . S
C1260 C1259 1.358 . S
C1260 H1263 0.930 . S
C1261 C1258 1.348 . S
C1261 C1259 1.356 . S
H1262 C1256 0.930 . S
H1263 C1260 0.930 . S
C1264 C1266 1.348 . S
C1264 C1267 1.356 . S
C1264 O1294 1.325 . S
N1265 C1268 1.314 . S
N1265 C1269 1.279 . S
C1266 C1264 1.348 . S
C1266 C1268 1.353 . S
C1266 H1308 0.929 . S
C1267 C1264 1.356 . S
C1267 C1269 1.358 . S
C1267 H1309 0.930 . S
C1268 N1265 1.314 . S
C1268 C1266 1.353 . S
C1268 H1310 0.930 . S
C1269 N1265 1.279 . S
C1269 C1267 1.358 . S
C1269 H1311 0.930 . S
C1270 C1271 1.348 . S
C1270 C1272 1.356 . S
C1270 O1295 1.325 . S
C1271 C1270 1.348 . S
C1271 C1273 1.353 . S
C1271 H1312 0.929 . S
C1272 C1270 1.356 . S
C1272 C1274 1.358 . S
C1272 H1313 0.930 . S
C1273 C1271 1.353 . S
C1273 N1275 1.314 . S
C1273 H1314 0.930 . S
C1274 C1272 1.358 . S
C1274 N1275 1.279 . S
C1274 H1315 0.930 . S
N1275 C1273 1.314 . S
N1275 C1274 1.279 . S
C1276 C1278 1.353 . S
C1276 N1279 1.314 . S
C1276 H1282 0.930 . S
C1277 N1279 1.279 . S
C1277 C1280 1.358 . S
C1277 H1283 0.930 . S
C1278 C1276 1.353 . S
C1278 C1281 1.348 . S
C1278 H1316 0.929 . S
N1279 Li1234 1.990 . S
N1279 C1276 1.314 . S
N1279 C1277 1.279 . S
C1280 C1277 1.358 . S
C1280 C1281 1.356 . S
C1280 H1317 0.930 . S
C1281 C1278 1.348 . S
C1281 C1280 1.356 . S
H1282 C1276 0.930 . S
H1283 C1277 0.930 . S
C1284 N1285 1.314 . S
C1284 C1286 1.353 . S
C1284 H1290 0.930 . S
N1285 Li1235 1.990 . S
N1285 C1284 1.314 . S
N1285 C1288 1.279 . S
C1286 C1284 1.353 . S
C1286 C1289 1.348 . S
C1286 H1318 0.929 . S
C1287 C1288 1.358 . S
C1287 C1289 1.356 . S
C1287 H1319 0.930 . S
C1288 N1285 1.279 . S
C1288 C1287 1.358 . S
C1288 H1291 0.930 . S
C1289 C1286 1.348 . S
C1289 C1287 1.356 . S
H1290 C1284 0.930 . S
H1291 C1288 0.930 . S
O1292 Li1232 1.956 . S
O1292 Li1233 1.970 . S
O1292 Li1234 1.961 . S
O1292 C1236 1.325 . S
O1293 Li1232 1.970 . S
O1293 Li1233 1.956 . S
O1293 Li1235 1.961 . S
O1293 C1242 1.325 . S
O1294 Li1232 1.961 . S
O1294 Li1234 1.956 . S
O1294 Li1235 1.970 . S
O1294 C1264 1.325 . S
O1295 Li1233 1.961 . S
O1295 Li1234 1.970 . S
O1295 Li1235 1.956 . S
O1295 C1270 1.325 . S
H1296 C1238 0.929 . S
H1297 C1239 0.930 . S
H1298 C1240 0.930 . S
H1299 C1241 0.930 . S
H1300 C1243 0.930 . S
H1301 C1245 0.929 . S
H1302 C1246 0.930 . S
H1303 C1247 0.930 . S
H1304 C1250 0.930 . S
H1305 C1253 0.929 . S
H1306 C1258 0.929 . S
H1307 C1259 0.930 . S
H1308 C1266 0.929 . S
H1309 C1267 0.930 . S
H1310 C1268 0.930 . S
H1311 C1269 0.930 . S
H1312 C1271 0.929 . S
H1313 C1272 0.930 . S
H1314 C1273 0.930 . S
H1315 C1274 0.930 . S
H1316 C1278 0.929 . S
H1317 C1280 0.930 . S
H1318 C1286 0.929 . S
H1319 C1287 0.930 . S
Li1320 N1337 1.990 . S
Li1320 O1380 1.956 . S
Li1320 O1381 1.970 . S
Li1320 O1382 1.961 . S
Li1321 N1345 1.990 . S
Li1321 O1380 1.970 . S
Li1321 O1381 1.956 . S
Li1321 O1383 1.961 . S
Li1322 N1367 1.990 . S
Li1322 O1380 1.961 . S
Li1322 O1382 1.956 . S
Li1322 O1383 1.970 . S
Li1323 N1373 1.990 . S
Li1323 O1381 1.961 . S
Li1323 O1382 1.970 . S
Li1323 O1383 1.956 . S
C1324 C1326 1.348 . S
C1324 C1327 1.356 . S
C1324 O1380 1.325 . S
N1325 C1328 1.314 . S
N1325 C1329 1.279 . S
C1326 C1324 1.348 . S
C1326 C1328 1.353 . S
C1326 H1384 0.929 . S
C1327 C1324 1.356 . S
C1327 C1329 1.358 . S
C1327 H1385 0.930 . S
C1328 N1325 1.314 . S
C1328 C1326 1.353 . S
C1328 H1386 0.930 . S
C1329 N1325 1.279 . S
C1329 C1327 1.358 . S
C1329 H1387 0.930 . S
C1330 C1333 1.348 . S
C1330 C1334 1.356 . S
C1330 O1381 1.325 . S
C1331 N1332 1.279 . S
C1331 C1334 1.358 . S
C1331 H1388 0.930 . S
N1332 C1331 1.279 . S
N1332 C1335 1.314 . S
C1333 C1330 1.348 . S
C1333 C1335 1.353 . S
C1333 H1389 0.929 . S
C1334 C1330 1.356 . S
C1334 C1331 1.358 . S
C1334 H1390 0.930 . S
C1335 N1332 1.314 . S
C1335 C1333 1.353 . S
C1335 H1391 0.930 . S
C1336 N1337 1.314 . S
C1336 C1341 1.353 . S
C1336 H1342 0.930 . S
N1337 Li1320 1.990 . S
N1337 C1336 1.314 . S
N1337 C1339 1.279 . S
C1338 C1339 1.358 . S
C1338 C1340 1.356 . S
C1338 H1392 0.930 . S
C1339 N1337 1.279 . S
C1339 C1338 1.358 . S
C1339 H1343 0.930 . S
C1340 C1338 1.356 . S
C1340 C1341 1.348 . S
C1341 C1336 1.353 . S
C1341 C1340 1.348 . S
C1341 H1393 0.929 . S
H1342 C1336 0.930 . S
H1343 C1339 0.930 . S
C1344 N1345 1.314 . S
C1344 C1346 1.353 . S
C1344 H1350 0.930 . S
N1345 Li1321 1.990 . S
N1345 C1344 1.314 . S
N1345 C1348 1.279 . S
C1346 C1344 1.353 . S
C1346 C1349 1.348 . S
C1346 H1394 0.929 . S
C1347 C1348 1.358 . S
C1347 C1349 1.356 . S
C1347 H1395 0.930 . S
C1348 N1345 1.279 . S
C1348 C1347 1.358 . S
C1348 H1351 0.930 . S
C1349 C1346 1.348 . S
C1349 C1347 1.356 . S
H1350 C1344 0.930 . S
H1351 C1348 0.930 . S
C1352 C1354 1.348 . S
C1352 C1355 1.356 . S
C1352 O1382 1.325 . S
N1353 C1356 1.314 . S
N1353 C1357 1.279 . S
C1354 C1352 1.348 . S
C1354 C1356 1.353 . S
C1354 H1396 0.929 . S
C1355 C1352 1.356 . S
C1355 C1357 1.358 . S
C1355 H1397 0.930 . S
C1356 N1353 1.314 . S
C1356 C1354 1.353 . S
C1356 H1398 0.930 . S
C1357 N1353 1.279 . S
C1357 C1355 1.358 . S
C1357 H1399 0.930 . S
C1358 C1359 1.348 . S
C1358 C1360 1.356 . S
C1358 O1383 1.325 . S
C1359 C1358 1.348 . S
C1359 C1361 1.353 . S
C1359 H1400 0.929 . S
C1360 C1358 1.356 . S
C1360 C1362 1.358 . S
C1360 H1401 0.930 . S
C1361 C1359 1.353 . S
C1361 N1363 1.314 . S
C1361 H1402 0.930 . S
C1362 C1360 1.358 . S
C1362 N1363 1.279 . S
C1362 H1403 0.930 . S
N1363 C1361 1.314 . S
N1363 C1362 1.279 . S
C1364 C1366 1.353 . S
C1364 N1367 1.314 . S
C1364 H1370 0.930 . S
C1365 N1367 1.279 . S
C1365 C1368 1.358 . S
C1365 H1371 0.930 . S
C1366 C1364 1.353 . S
C1366 C1369 1.348 . S
C1366 H1404 0.929 . S
N1367 Li1322 1.990 . S
N1367 C1364 1.314 . S
N1367 C1365 1.279 . S
C1368 C1365 1.358 . S
C1368 C1369 1.356 . S
C1368 H1405 0.930 . S
C1369 C1366 1.348 . S
C1369 C1368 1.356 . S
H1370 C1364 0.930 . S
H1371 C1365 0.930 . S
C1372 N1373 1.314 . S
C1372 C1374 1.353 . S
C1372 H1378 0.930 . S
N1373 Li1323 1.990 . S
N1373 C1372 1.314 . S
N1373 C1376 1.279 . S
C1374 C1372 1.353 . S
C1374 C1377 1.348 . S
C1374 H1406 0.929 . S
C1375 C1376 1.358 . S
C1375 C1377 1.356 . S
C1375 H1407 0.930 . S
C1376 N1373 1.279 . S
C1376 C1375 1.358 . S
C1376 H1379 0.930 . S
C1377 C1374 1.348 . S
C1377 C1375 1.356 . S
H1378 C1372 0.930 . S
H1379 C1376 0.930 . S
O1380 Li1320 1.956 . S
O1380 Li1321 1.970 . S
O1380 Li1322 1.961 . S
O1380 C1324 1.325 . S
O1381 Li1320 1.970 . S
O1381 Li1321 1.956 . S
O1381 Li1323 1.961 . S
O1381 C1330 1.325 . S
O1382 Li1320 1.961 . S
O1382 Li1322 1.956 . S
O1382 Li1323 1.970 . S
O1382 C1352 1.325 . S
O1383 Li1321 1.961 . S
O1383 Li1322 1.970 . S
O1383 Li1323 1.956 . S
O1383 C1358 1.325 . S
H1384 C1326 0.929 . S
H1385 C1327 0.930 . S
H1386 C1328 0.930 . S
H1387 C1329 0.930 . S
H1388 C1331 0.930 . S
H1389 C1333 0.929 . S
H1390 C1334 0.930 . S
H1391 C1335 0.930 . S
H1392 C1338 0.930 . S
H1393 C1341 0.929 . S
H1394 C1346 0.929 . S
H1395 C1347 0.930 . S
H1396 C1354 0.929 . S
H1397 C1355 0.930 . S
H1398 C1356 0.930 . S
H1399 C1357 0.930 . S
H1400 C1359 0.929 . S
H1401 C1360 0.930 . S
H1402 C1361 0.930 . S
H1403 C1362 0.930 . S
H1404 C1366 0.929 . S
H1405 C1368 0.930 . S
H1406 C1374 0.929 . S
H1407 C1375 0.930 . S
Li1408 N1425 1.990 . S
Li1408 O1468 1.956 1_545 S
Li1408 O1469 1.970 . S
Li1408 O1470 1.961 . S
Li1409 N1433 1.990 . S
Li1409 O1468 1.970 . S
Li1409 O1469 1.956 1_565 S
Li1409 O1471 1.961 1_565 S
Li1410 N1455 1.990 . S
Li1410 O1468 1.961 1_545 S
Li1410 O1470 1.956 . S
Li1410 O1471 1.970 . S
Li1411 N1461 1.990 . S
Li1411 O1469 1.961 . S
Li1411 O1470 1.970 . S
Li1411 O1471 1.956 . S
C1412 C1414 1.348 . S
C1412 C1415 1.356 . S
C1412 O1468 1.325 . S
N1413 C1416 1.314 . S
N1413 C1417 1.279 . S
C1414 C1412 1.348 . S
C1414 C1416 1.353 . S
C1414 H1472 0.929 . S
C1415 C1412 1.356 . S
C1415 C1417 1.358 . S
C1415 H1473 0.994 . S
C1416 N1413 1.314 . S
C1416 C1414 1.353 . S
C1416 H1474 0.930 . S
C1417 N1413 1.279 . S
C1417 C1415 1.358 . S
C1417 H1475 0.930 . S
C1418 C1421 1.348 . S
C1418 C1422 1.356 . S
C1418 O1469 1.325 . S
C1419 N1420 1.279 . S
C1419 C1422 1.358 . S
C1419 H1476 0.930 . S
N1420 C1419 1.279 . S
N1420 C1423 1.314 . S
C1421 C1418 1.348 . S
C1421 C1423 1.353 . S
C1421 H1477 0.929 . S
C1422 C1418 1.356 . S
C1422 C1419 1.358 . S
C1422 H1478 0.930 . S
C1423 N1420 1.314 . S
C1423 C1421 1.353 . S
C1423 H1479 0.930 . S
C1424 N1425 1.314 . S
C1424 C1429 1.353 . S
C1424 H1430 0.930 . S
N1425 Li1408 1.990 . S
N1425 C1424 1.314 . S
N1425 C1427 1.279 . S
C1426 C1427 1.358 . S
C1426 C1428 1.356 . S
C1426 H1480 0.922 . S
C1427 N1425 1.279 . S
C1427 C1426 1.358 . S
C1427 H1431 0.930 1_545 S
C1428 C1426 1.356 . S
C1428 C1429 1.348 . S
C1429 C1424 1.353 . S
C1429 C1428 1.348 . S
C1429 H1481 0.929 . S
H1430 C1424 0.930 . S
H1431 C1427 0.930 1_565 S
C1432 N1433 1.314 . S
C1432 C1434 1.353 . S
C1432 H1438 0.930 . S
N1433 Li1409 1.990 . S
N1433 C1432 1.314 . S
N1433 C1436 1.279 . S
C1434 C1432 1.353 . S
C1434 C1437 1.348 . S
C1434 H1482 0.929 . S
C1435 C1436 1.358 . S
C1435 C1437 1.356 . S
C1435 H1483 0.930 . S
C1436 N1433 1.279 . S
C1436 C1435 1.358 . S
C1436 H1439 0.930 . S
C1437 C1434 1.348 . S
C1437 C1435 1.356 . S
H1438 C1432 0.930 . S
H1439 C1436 0.930 . S
C1440 C1442 1.348 . S
C1440 C1443 1.356 . S
C1440 O1470 1.325 . S
N1441 C1444 1.314 . S
N1441 C1445 1.279 . S
C1442 C1440 1.348 . S
C1442 C1444 1.353 . S
C1442 H1484 0.929 . S
C1443 C1440 1.356 . S
C1443 C1445 1.358 . S
C1443 H1485 0.930 . S
C1444 N1441 1.314 . S
C1444 C1442 1.353 . S
C1444 H1486 0.930 . S
C1445 N1441 1.279 . S
C1445 C1443 1.358 . S
C1445 H1487 0.930 . S
C1446 C1447 1.348 . S
C1446 C1448 1.356 . S
C1446 O1471 1.325 . S
C1447 C1446 1.348 . S
C1447 C1449 1.353 . S
C1447 H1488 0.929 . S
C1448 C1446 1.356 . S
C1448 C1450 1.358 . S
C1448 H1489 0.930 . S
C1449 C1447 1.353 . S
C1449 N1451 1.314 . S
C1449 H1490 0.930 . S
C1450 C1448 1.358 . S
C1450 N1451 1.279 . S
C1450 H1491 0.928 1_545 S
N1451 C1449 1.314 . S
N1451 C1450 1.279 . S
C1452 C1454 1.353 . S
C1452 N1455 1.314 . S
C1452 H1458 0.930 1_545 S
C1453 N1455 1.279 . S
C1453 C1456 1.358 . S
C1453 H1459 0.930 . S
C1454 C1452 1.353 . S
C1454 C1457 1.348 . S
C1454 H1492 0.929 1_545 S
N1455 Li1410 1.990 . S
N1455 C1452 1.314 . S
N1455 C1453 1.279 . S
C1456 C1453 1.358 . S
C1456 C1457 1.356 . S
C1456 H1493 0.930 . S
C1457 C1454 1.348 . S
C1457 C1456 1.356 . S
H1458 C1452 0.930 1_565 S
H1459 C1453 0.930 . S
C1460 N1461 1.314 . S
C1460 C1462 1.353 . S
C1460 H1466 0.930 . S
N1461 Li1411 1.990 . S
N1461 C1460 1.314 . S
N1461 C1464 1.279 . S
C1462 C1460 1.353 . S
C1462 C1465 1.348 . S
C1462 H1494 0.929 . S
C1463 C1464 1.358 . S
C1463 C1465 1.356 . S
C1463 H1495 0.930 . S
C1464 N1461 1.279 . S
C1464 C1463 1.358 . S
C1464 H1467 0.930 . S
C1465 C1462 1.348 . S
C1465 C1463 1.356 . S
H1466 C1460 0.930 . S
H1467 C1464 0.930 . S
O1468 Li1408 1.956 1_565 S
O1468 Li1409 1.970 . S
O1468 Li1410 1.961 1_565 S
O1468 C1412 1.325 . S
O1469 Li1408 1.970 . S
O1469 Li1409 1.956 1_545 S
O1469 Li1411 1.961 . S
O1469 C1418 1.325 . S
O1470 Li1408 1.961 . S
O1470 Li1410 1.956 . S
O1470 Li1411 1.970 . S
O1470 C1440 1.325 . S
O1471 Li1409 1.961 1_545 S
O1471 Li1410 1.970 . S
O1471 Li1411 1.956 . S
O1471 C1446 1.325 . S
H1472 C1414 0.929 . S
H1473 C1415 0.994 . S
H1474 C1416 0.930 . S
H1475 C1417 0.930 . S
H1476 C1419 0.930 . S
H1477 C1421 0.929 . S
H1478 C1422 0.930 . S
H1479 C1423 0.930 . S
H1480 C1426 0.922 . S
H1481 C1429 0.929 . S
H1482 C1434 0.929 . S
H1483 C1435 0.930 . S
H1484 C1442 0.929 . S
H1485 C1443 0.930 . S
H1486 C1444 0.930 . S
H1487 C1445 0.930 . S
H1488 C1447 0.929 . S
H1489 C1448 0.930 . S
H1490 C1449 0.930 . S
H1491 C1450 0.928 1_565 S
H1492 C1454 0.929 1_565 S
H1493 C1456 0.930 . S
H1494 C1462 0.929 . S
H1495 C1463 0.930 . S
Li1496 N1513 1.990 . S
Li1496 O1556 1.956 . S
Li1496 O1557 1.970 . S
Li1496 O1558 1.961 . S
Li1497 N1521 1.990 . S
Li1497 O1556 1.970 . S
Li1497 O1557 1.956 . S
Li1497 O1559 1.961 . S
Li1498 N1543 1.990 . S
Li1498 O1556 1.961 . S
Li1498 O1558 1.956 . S
Li1498 O1559 1.970 . S
Li1499 N1549 1.990 . S
Li1499 O1557 1.961 . S
Li1499 O1558 1.970 . S
Li1499 O1559 1.956 . S
C1500 C1502 1.348 . S
C1500 C1503 1.356 . S
C1500 O1556 1.325 . S
N1501 C1504 1.314 . S
N1501 C1505 1.279 . S
C1502 C1500 1.348 . S
C1502 C1504 1.353 . S
C1502 H1560 0.929 . S
C1503 C1500 1.356 . S
C1503 C1505 1.358 . S
C1503 H1561 0.930 . S
C1504 N1501 1.314 . S
C1504 C1502 1.353 . S
C1504 H1562 0.930 . S
C1505 N1501 1.279 . S
C1505 C1503 1.358 . S
C1505 H1563 0.930 . S
C1506 C1509 1.348 . S
C1506 C1510 1.356 . S
C1506 O1557 1.325 . S
C1507 N1508 1.279 . S
C1507 C1510 1.358 . S
C1507 H1564 0.930 . S
N1508 C1507 1.279 . S
N1508 C1511 1.314 . S
C1509 C1506 1.348 . S
C1509 C1511 1.353 . S
C1509 H1565 0.929 . S
C1510 C1506 1.356 . S
C1510 C1507 1.358 . S
C1510 H1566 0.930 . S
C1511 N1508 1.314 . S
C1511 C1509 1.353 . S
C1511 H1567 0.930 . S
C1512 N1513 1.314 . S
C1512 C1517 1.353 . S
C1512 H1518 0.930 . S
N1513 Li1496 1.990 . S
N1513 C1512 1.314 . S
N1513 C1515 1.279 . S
C1514 C1515 1.358 . S
C1514 C1516 1.356 . S
C1514 H1568 0.930 . S
C1515 N1513 1.279 . S
C1515 C1514 1.358 . S
C1515 H1519 0.930 . S
C1516 C1514 1.356 . S
C1516 C1517 1.348 . S
C1517 C1512 1.353 . S
C1517 C1516 1.348 . S
C1517 H1569 0.929 . S
H1518 C1512 0.930 . S
H1519 C1515 0.930 . S
C1520 N1521 1.314 . S
C1520 C1522 1.353 . S
C1520 H1526 0.930 . S
N1521 Li1497 1.990 . S
N1521 C1520 1.314 . S
N1521 C1524 1.279 . S
C1522 C1520 1.353 . S
C1522 C1525 1.348 . S
C1522 H1570 0.929 . S
C1523 C1524 1.358 . S
C1523 C1525 1.356 . S
C1523 H1571 0.930 . S
C1524 N1521 1.279 . S
C1524 C1523 1.358 . S
C1524 H1527 0.930 . S
C1525 C1522 1.348 . S
C1525 C1523 1.356 . S
H1526 C1520 0.930 . S
H1527 C1524 0.930 . S
C1528 C1530 1.348 . S
C1528 C1531 1.356 . S
C1528 O1558 1.325 . S
N1529 C1532 1.314 . S
N1529 C1533 1.279 . S
C1530 C1528 1.348 . S
C1530 C1532 1.353 . S
C1530 H1572 0.929 . S
C1531 C1528 1.356 . S
C1531 C1533 1.358 . S
C1531 H1573 0.930 . S
C1532 N1529 1.314 . S
C1532 C1530 1.353 . S
C1532 H1574 0.930 . S
C1533 N1529 1.279 . S
C1533 C1531 1.358 . S
C1533 H1575 0.930 . S
C1534 C1535 1.348 . S
C1534 C1536 1.356 . S
C1534 O1559 1.325 . S
C1535 C1534 1.348 . S
C1535 C1537 1.353 . S
C1535 H1576 0.929 . S
C1536 C1534 1.356 . S
C1536 C1538 1.358 . S
C1536 H1577 0.930 . S
C1537 C1535 1.353 . S
C1537 N1539 1.314 . S
C1537 H1578 0.930 . S
C1538 C1536 1.358 . S
C1538 N1539 1.279 . S
C1538 H1579 0.930 . S
N1539 C1537 1.314 . S
N1539 C1538 1.279 . S
C1540 C1542 1.353 . S
C1540 N1543 1.314 . S
C1540 H1546 0.930 . S
C1541 N1543 1.279 . S
C1541 C1544 1.358 . S
C1541 H1547 0.930 . S
C1542 C1540 1.353 . S
C1542 C1545 1.348 . S
C1542 H1580 0.929 . S
N1543 Li1498 1.990 . S
N1543 C1540 1.314 . S
N1543 C1541 1.279 . S
C1544 C1541 1.358 . S
C1544 C1545 1.356 . S
C1544 H1581 0.930 . S
C1545 C1542 1.348 . S
C1545 C1544 1.356 . S
H1546 C1540 0.930 . S
H1547 C1541 0.930 . S
C1548 N1549 1.314 . S
C1548 C1550 1.353 . S
C1548 H1554 0.930 . S
N1549 Li1499 1.990 . S
N1549 C1548 1.314 . S
N1549 C1552 1.279 . S
C1550 C1548 1.353 . S
C1550 C1553 1.348 . S
C1550 H1582 0.929 . S
C1551 C1552 1.358 . S
C1551 C1553 1.356 . S
C1551 H1583 0.930 . S
C1552 N1549 1.279 . S
C1552 C1551 1.358 . S
C1552 H1555 0.930 . S
C1553 C1550 1.348 . S
C1553 C1551 1.356 . S
H1554 C1548 0.930 . S
H1555 C1552 0.930 . S
O1556 Li1496 1.956 . S
O1556 Li1497 1.970 . S
O1556 Li1498 1.961 . S
O1556 C1500 1.325 . S
O1557 Li1496 1.970 . S
O1557 Li1497 1.956 . S
O1557 Li1499 1.961 . S
O1557 C1506 1.325 . S
O1558 Li1496 1.961 . S
O1558 Li1498 1.956 . S
O1558 Li1499 1.970 . S
O1558 C1528 1.325 . S
O1559 Li1497 1.961 . S
O1559 Li1498 1.970 . S
O1559 Li1499 1.956 . S
O1559 C1534 1.325 . S
H1560 C1502 0.929 . S
H1561 C1503 0.930 . S
H1562 C1504 0.930 . S
H1563 C1505 0.930 . S
H1564 C1507 0.930 . S
H1565 C1509 0.929 . S
H1566 C1510 0.930 . S
H1567 C1511 0.930 . S
H1568 C1514 0.930 . S
H1569 C1517 0.929 . S
H1570 C1522 0.929 . S
H1571 C1523 0.930 . S
H1572 C1530 0.929 . S
H1573 C1531 0.930 . S
H1574 C1532 0.930 . S
H1575 C1533 0.930 . S
H1576 C1535 0.929 . S
H1577 C1536 0.930 . S
H1578 C1537 0.930 . S
H1579 C1538 0.930 . S
H1580 C1542 0.929 . S
H1581 C1544 0.930 . S
H1582 C1550 0.929 . S
H1583 C1551 0.930 . S
Li1584 N1601 1.990 . S
Li1584 O1644 1.956 . S
Li1584 O1645 1.970 . S
Li1584 O1646 1.961 . S
Li1585 N1609 1.990 . S
Li1585 O1644 1.970 . S
Li1585 O1645 1.956 . S
Li1585 O1647 1.961 . S
Li1586 N1631 1.990 . S
Li1586 O1644 1.961 . S
Li1586 O1646 1.956 . S
Li1586 O1647 1.970 . S
Li1587 N1637 1.990 . S
Li1587 O1645 1.961 . S
Li1587 O1646 1.970 . S
Li1587 O1647 1.956 . S
C1588 C1590 1.348 . S
C1588 C1591 1.356 . S
C1588 O1644 1.325 . S
N1589 C1592 1.314 . S
N1589 C1593 1.279 . S
C1590 C1588 1.348 . S
C1590 C1592 1.353 . S
C1590 H1648 0.929 . S
C1591 C1588 1.356 . S
C1591 C1593 1.358 . S
C1591 H1649 0.930 . S
C1592 N1589 1.314 . S
C1592 C1590 1.353 . S
C1592 H1650 0.930 . S
C1593 N1589 1.279 . S
C1593 C1591 1.358 . S
C1593 H1651 0.930 . S
C1594 C1597 1.348 . S
C1594 C1598 1.356 . S
C1594 O1645 1.325 . S
C1595 N1596 1.279 . S
C1595 C1598 1.358 . S
C1595 H1652 0.930 . S
N1596 C1595 1.279 . S
N1596 C1599 1.314 . S
C1597 C1594 1.348 . S
C1597 C1599 1.353 . S
C1597 H1653 0.929 . S
C1598 C1594 1.356 . S
C1598 C1595 1.358 . S
C1598 H1654 0.930 . S
C1599 N1596 1.314 . S
C1599 C1597 1.353 . S
C1599 H1655 0.930 . S
C1600 N1601 1.314 . S
C1600 C1605 1.353 . S
C1600 H1606 0.930 . S
N1601 Li1584 1.990 . S
N1601 C1600 1.314 . S
N1601 C1603 1.279 . S
C1602 C1603 1.358 . S
C1602 C1604 1.356 . S
C1602 H1656 0.930 . S
C1603 N1601 1.279 . S
C1603 C1602 1.358 . S
C1603 H1607 0.930 . S
C1604 C1602 1.356 . S
C1604 C1605 1.348 . S
C1605 C1600 1.353 . S
C1605 C1604 1.348 . S
C1605 H1657 0.929 . S
H1606 C1600 0.930 . S
H1607 C1603 0.930 . S
C1608 N1609 1.314 . S
C1608 C1610 1.353 . S
C1608 H1614 0.930 . S
N1609 Li1585 1.990 . S
N1609 C1608 1.314 . S
N1609 C1612 1.279 . S
C1610 C1608 1.353 . S
C1610 C1613 1.348 . S
C1610 H1658 0.929 . S
C1611 C1612 1.358 . S
C1611 C1613 1.356 . S
C1611 H1659 0.930 . S
C1612 N1609 1.279 . S
C1612 C1611 1.358 . S
C1612 H1615 0.930 . S
C1613 C1610 1.348 . S
C1613 C1611 1.356 . S
H1614 C1608 0.930 . S
H1615 C1612 0.930 . S
C1616 C1618 1.348 . S
C1616 C1619 1.356 . S
C1616 O1646 1.325 . S
N1617 C1620 1.314 . S
N1617 C1621 1.279 . S
C1618 C1616 1.348 . S
C1618 C1620 1.353 . S
C1618 H1660 0.929 . S
C1619 C1616 1.356 . S
C1619 C1621 1.358 . S
C1619 H1661 0.930 . S
C1620 N1617 1.314 . S
C1620 C1618 1.353 . S
C1620 H1662 0.930 . S
C1621 N1617 1.279 . S
C1621 C1619 1.358 . S
C1621 H1663 0.930 . S
C1622 C1623 1.348 . S
C1622 C1624 1.356 . S
C1622 O1647 1.325 . S
C1623 C1622 1.348 . S
C1623 C1625 1.353 . S
C1623 H1664 0.929 . S
C1624 C1622 1.356 . S
C1624 C1626 1.358 . S
C1624 H1665 0.930 . S
C1625 C1623 1.353 . S
C1625 N1627 1.314 . S
C1625 H1666 0.930 . S
C1626 C1624 1.358 . S
C1626 N1627 1.279 . S
C1626 H1667 0.930 . S
N1627 C1625 1.314 . S
N1627 C1626 1.279 . S
C1628 C1630 1.353 . S
C1628 N1631 1.314 . S
C1628 H1634 0.930 . S
C1629 N1631 1.279 . S
C1629 C1632 1.358 . S
C1629 H1635 0.930 . S
C1630 C1628 1.353 . S
C1630 C1633 1.348 . S
C1630 H1668 0.929 . S
N1631 Li1586 1.990 . S
N1631 C1628 1.314 . S
N1631 C1629 1.279 . S
C1632 C1629 1.358 . S
C1632 C1633 1.356 . S
C1632 H1669 0.930 . S
C1633 C1630 1.348 . S
C1633 C1632 1.356 . S
H1634 C1628 0.930 . S
H1635 C1629 0.930 . S
C1636 N1637 1.314 . S
C1636 C1638 1.353 . S
C1636 H1642 0.930 . S
N1637 Li1587 1.990 . S
N1637 C1636 1.314 . S
N1637 C1640 1.279 . S
C1638 C1636 1.353 . S
C1638 C1641 1.348 . S
C1638 H1670 0.929 . S
C1639 C1640 1.358 . S
C1639 C1641 1.356 . S
C1639 H1671 0.930 . S
C1640 N1637 1.279 . S
C1640 C1639 1.358 . S
C1640 H1643 0.930 . S
C1641 C1638 1.348 . S
C1641 C1639 1.356 . S
H1642 C1636 0.930 . S
H1643 C1640 0.930 . S
O1644 Li1584 1.956 . S
O1644 Li1585 1.970 . S
O1644 Li1586 1.961 . S
O1644 C1588 1.325 . S
O1645 Li1584 1.970 . S
O1645 Li1585 1.956 . S
O1645 Li1587 1.961 . S
O1645 C1594 1.325 . S
O1646 Li1584 1.961 . S
O1646 Li1586 1.956 . S
O1646 Li1587 1.970 . S
O1646 C1616 1.325 . S
O1647 Li1585 1.961 . S
O1647 Li1586 1.970 . S
O1647 Li1587 1.956 . S
O1647 C1622 1.325 . S
H1648 C1590 0.929 . S
H1649 C1591 0.930 . S
H1650 C1592 0.930 . S
H1651 C1593 0.930 . S
H1652 C1595 0.930 . S
H1653 C1597 0.929 . S
H1654 C1598 0.930 . S
H1655 C1599 0.930 . S
H1656 C1602 0.930 . S
H1657 C1605 0.929 . S
H1658 C1610 0.929 . S
H1659 C1611 0.930 . S
H1660 C1618 0.929 . S
H1661 C1619 0.930 . S
H1662 C1620 0.930 . S
H1663 C1621 0.930 . S
H1664 C1623 0.929 . S
H1665 C1624 0.930 . S
H1666 C1625 0.930 . S
H1667 C1626 0.930 . S
H1668 C1630 0.929 . S
H1669 C1632 0.930 . S
H1670 C1638 0.929 . S
H1671 C1639 0.930 . S
Li1672 N1689 1.990 . S
Li1672 O1732 1.956 . S
Li1672 O1733 1.970 . S
Li1672 O1734 1.961 . S
Li1673 N1697 1.990 . S
Li1673 O1732 1.970 . S
Li1673 O1733 1.956 . S
Li1673 O1735 1.961 . S
Li1674 N1719 1.990 . S
Li1674 O1732 1.961 . S
Li1674 O1734 1.956 . S
Li1674 O1735 1.970 . S
Li1675 N1725 2.027 . S
Li1675 O1733 1.961 . S
Li1675 O1734 1.970 . S
Li1675 O1735 1.956 . S
C1676 C1678 1.348 . S
C1676 C1679 1.356 . S
C1676 O1732 1.325 . S
N1677 C1680 1.314 . S
N1677 C1681 1.279 . S
C1678 C1676 1.348 . S
C1678 C1680 1.353 . S
C1678 H1736 0.929 . S
C1679 C1676 1.356 . S
C1679 C1681 1.358 . S
C1679 H1737 0.930 . S
C1680 N1677 1.314 . S
C1680 C1678 1.353 . S
C1680 H1738 0.930 . S
C1681 N1677 1.279 . S
C1681 C1679 1.358 . S
C1681 H1739 0.930 . S
C1682 C1685 1.348 . S
C1682 C1686 1.356 . S
C1682 O1733 1.325 . S
C1683 N1684 1.279 . S
C1683 C1686 1.358 . S
C1683 H1740 0.930 . S
N1684 C1683 1.279 . S
N1684 C1687 1.314 . S
C1685 C1682 1.348 . S
C1685 C1687 1.353 . S
C1685 H1741 0.929 . S
C1686 C1682 1.356 . S
C1686 C1683 1.358 . S
C1686 H1742 0.930 . S
C1687 N1684 1.314 . S
C1687 C1685 1.353 . S
C1687 H1743 0.930 . S
C1688 N1689 1.314 . S
C1688 C1693 1.353 . S
C1688 H1694 0.930 . S
N1689 Li1672 1.990 . S
N1689 C1688 1.314 . S
N1689 C1691 1.279 . S
C1690 C1691 1.358 . S
C1690 C1692 1.356 . S
C1690 H1744 0.930 . S
C1691 N1689 1.279 . S
C1691 C1690 1.358 . S
C1691 H1695 0.930 . S
C1692 C1690 1.356 . S
C1692 C1693 1.348 . S
C1693 C1688 1.353 . S
C1693 C1692 1.348 . S
C1693 H1745 0.929 . S
H1694 C1688 0.930 . S
H1695 C1691 0.930 . S
C1696 N1697 1.314 . S
C1696 C1698 1.353 . S
C1696 H1702 0.930 . S
N1697 Li1673 1.990 . S
N1697 C1696 1.314 . S
N1697 C1700 1.279 . S
C1698 C1696 1.353 . S
C1698 C1701 1.348 . S
C1698 H1746 0.929 . S
C1699 C1700 1.358 . S
C1699 C1701 1.356 . S
C1699 H1747 0.930 . S
C1700 N1697 1.279 . S
C1700 C1699 1.358 . S
C1700 H1703 0.930 . S
C1701 C1698 1.348 . S
C1701 C1699 1.356 . S
H1702 C1696 0.930 . S
H1703 C1700 0.930 . S
C1704 C1706 1.397 . S
C1704 C1707 1.351 . S
C1704 O1734 1.285 1_565 S
N1705 C1708 1.314 . S
N1705 C1709 1.279 . S
C1706 C1704 1.397 . S
C1706 C1708 1.353 . S
C1706 H1748 0.929 . S
C1707 C1704 1.351 . S
C1707 C1709 1.358 . S
C1707 H1749 0.930 1_565 S
C1708 N1705 1.314 . S
C1708 C1706 1.353 . S
C1708 H1750 0.930 . S
C1709 N1705 1.279 . S
C1709 C1707 1.358 . S
C1709 H1751 0.930 . S
C1710 C1711 1.348 . S
C1710 C1712 1.356 . S
C1710 O1735 1.325 . S
C1711 C1710 1.348 . S
C1711 C1713 1.353 . S
C1711 H1752 0.929 . S
C1712 C1710 1.356 . S
C1712 C1714 1.358 . S
C1712 H1753 0.930 . S
C1713 C1711 1.353 . S
C1713 N1715 1.314 . S
C1713 H1754 0.930 . S
C1714 C1712 1.358 . S
C1714 N1715 1.279 . S
C1714 H1755 0.930 . S
N1715 C1713 1.314 . S
N1715 C1714 1.279 . S
C1716 C1718 1.353 . S
C1716 N1719 1.314 . S
C1716 H1722 0.930 . S
C1717 N1719 1.279 . S
C1717 C1720 1.358 . S
C1717 H1723 0.930 . S
C1718 C1716 1.353 . S
C1718 C1721 1.348 . S
C1718 H1756 0.929 . S
N1719 Li1674 1.990 . S
N1719 C1716 1.314 . S
N1719 C1717 1.279 . S
C1720 C1717 1.358 . S
C1720 C1721 1.356 . S
C1720 H1757 0.964 . S
C1721 C1718 1.348 . S
C1721 C1720 1.356 . S
H1722 C1716 0.930 . S
H1723 C1717 0.930 . S
C1724 N1725 1.287 1_565 S
C1724 C1726 1.353 . S
C1724 H1730 0.930 . S
N1725 Li1675 2.027 . S
N1725 C1724 1.287 1_545 S
N1725 C1728 1.264 1_545 S
C1726 C1724 1.353 . S
C1726 C1729 1.348 . S
C1726 H1758 0.929 . S
C1727 C1728 1.358 . S
C1727 C1729 1.356 . S
C1727 H1759 0.930 . S
C1728 N1725 1.264 1_565 S
C1728 C1727 1.358 . S
C1728 H1731 0.926 1_565 S
C1729 C1726 1.348 . S
C1729 C1727 1.356 . S
H1730 C1724 0.930 . S
H1731 C1728 0.926 1_545 S
O1732 Li1672 1.956 . S
O1732 Li1673 1.970 . S
O1732 Li1674 1.961 . S
O1732 C1676 1.325 . S
O1733 Li1672 1.970 . S
O1733 Li1673 1.956 . S
O1733 Li1675 1.961 . S
O1733 C1682 1.325 . S
O1734 Li1672 1.961 . S
O1734 Li1674 1.956 . S
O1734 Li1675 1.970 . S
O1734 C1704 1.285 1_545 S
O1735 Li1673 1.961 . S
O1735 Li1674 1.970 . S
O1735 Li1675 1.956 . S
O1735 C1710 1.325 . S
H1736 C1678 0.929 . S
H1737 C1679 0.930 . S
H1738 C1680 0.930 . S
H1739 C1681 0.930 . S
H1740 C1683 0.930 . S
H1741 C1685 0.929 . S
H1742 C1686 0.930 . S
H1743 C1687 0.930 . S
H1744 C1690 0.930 . S
H1745 C1693 0.929 . S
H1746 C1698 0.929 . S
H1747 C1699 0.930 . S
H1748 C1706 0.929 . S
H1749 C1707 0.930 1_545 S
H1750 C1708 0.930 . S
H1751 C1709 0.930 . S
H1752 C1711 0.929 . S
H1753 C1712 0.930 . S
H1754 C1713 0.930 . S
H1755 C1714 0.930 . S
H1756 C1718 0.929 . S
H1757 C1720 0.964 . S
H1758 C1726 0.929 . S
H1759 C1727 0.930 . S
Li1760 N1777 1.990 . S
Li1760 O1820 1.956 . S
Li1760 O1821 1.970 . S
Li1760 O1822 1.961 . S
Li1761 N1785 1.990 . S
Li1761 O1820 1.970 . S
Li1761 O1821 1.956 . S
Li1761 O1823 1.961 1_554 S
Li1762 N1807 1.990 . S
Li1762 O1820 1.961 1_556 S
Li1762 O1822 1.956 1_556 S
Li1762 O1823 1.970 . S
Li1763 N1813 1.990 1_554 S
Li1763 O1821 1.961 . S
Li1763 O1822 1.970 . S
Li1763 O1823 1.956 1_554 S
C1764 C1766 1.348 . S
C1764 C1767 1.356 . S
C1764 O1820 1.325 . S
N1765 C1768 1.314 . S
N1765 C1769 1.279 . S
C1766 C1764 1.348 . S
C1766 C1768 1.353 . S
C1766 H1824 0.929 . S
C1767 C1764 1.356 . S
C1767 C1769 1.358 . S
C1767 H1825 0.930 . S
C1768 N1765 1.314 . S
C1768 C1766 1.353 . S
C1768 H1826 0.930 . S
C1769 N1765 1.279 . S
C1769 C1767 1.358 . S
C1769 H1827 0.930 . S
C1770 C1773 1.348 . S
C1770 C1774 1.356 . S
C1770 O1821 1.325 . S
C1771 N1772 1.279 . S
C1771 C1774 1.358 . S
C1771 H1828 0.930 . S
N1772 C1771 1.279 . S
N1772 C1775 1.314 . S
C1773 C1770 1.348 . S
C1773 C1775 1.353 . S
C1773 H1829 0.929 . S
C1774 C1770 1.356 . S
C1774 C1771 1.358 . S
C1774 H1830 0.930 . S
C1775 N1772 1.314 . S
C1775 C1773 1.353 . S
C1775 H1831 0.930 . S
C1776 N1777 1.314 . S
C1776 C1781 1.353 . S
C1776 H1782 0.930 . S
N1777 Li1760 1.990 . S
N1777 C1776 1.314 . S
N1777 C1779 1.279 . S
C1778 C1779 1.358 . S
C1778 C1780 1.356 . S
C1778 H1832 0.930 . S
C1779 N1777 1.279 . S
C1779 C1778 1.358 . S
C1779 H1783 0.930 . S
C1780 C1778 1.356 . S
C1780 C1781 1.348 . S
C1781 C1776 1.353 . S
C1781 C1780 1.348 . S
C1781 H1833 0.929 . S
H1782 C1776 0.930 . S
H1783 C1779 0.930 . S
C1784 N1785 1.314 1_556 S
C1784 C1786 1.353 . S
C1784 H1790 0.930 . S
N1785 Li1761 1.990 . S
N1785 C1784 1.314 1_554 S
N1785 C1788 1.279 . S
C1786 C1784 1.353 . S
C1786 C1789 1.348 1_556 S
C1786 H1834 0.929 . S
C1787 C1788 1.358 . S
C1787 C1789 1.356 . S
C1787 H1835 0.930 . S
C1788 N1785 1.279 . S
C1788 C1787 1.358 . S
C1788 H1791 0.930 . S
C1789 C1786 1.348 1_554 S
C1789 C1787 1.356 . S
H1790 C1784 0.930 . S
H1791 C1788 0.930 . S
C1792 C1794 1.348 1_554 S
C1792 C1795 1.356 . S
C1792 O1822 1.325 . S
N1793 C1796 1.314 1_554 S
N1793 C1797 1.279 . S
C1794 C1792 1.348 1_556 S
C1794 C1796 1.353 . S
C1794 H1836 0.929 . S
C1795 C1792 1.356 . S
C1795 C1797 1.358 . S
C1795 H1837 0.930 . S
C1796 N1793 1.314 1_556 S
C1796 C1794 1.353 . S
C1796 H1838 0.930 . S
C1797 N1793 1.279 . S
C1797 C1795 1.358 . S
C1797 H1839 0.930 . S
C1798 C1799 1.348 . S
C1798 C1800 1.356 . S
C1798 O1823 1.325 . S
C1799 C1798 1.348 . S
C1799 C1801 1.353 . S
C1799 H1840 0.929 . S
C1800 C1798 1.356 . S
C1800 C1802 1.358 . S
C1800 H1841 0.930 . S
C1801 C1799 1.353 . S
C1801 N1803 1.314 . S
C1801 H1842 0.930 . S
C1802 C1800 1.358 . S
C1802 N1803 1.279 . S
C1802 H1843 0.930 . S
N1803 C1801 1.314 . S
N1803 C1802 1.279 . S
C1804 C1806 1.353 . S
C1804 N1807 1.314 . S
C1804 H1810 0.930 . S
C1805 N1807 1.279 . S
C1805 C1808 1.358 . S
C1805 H1811 0.930 . S
C1806 C1804 1.353 . S
C1806 C1809 1.348 . S
C1806 H1844 0.929 . S
N1807 Li1762 1.990 . S
N1807 C1804 1.314 . S
N1807 C1805 1.279 . S
C1808 C1805 1.358 . S
C1808 C1809 1.356 . S
C1808 H1845 0.930 . S
C1809 C1806 1.348 . S
C1809 C1808 1.356 . S
H1810 C1804 0.930 . S
H1811 C1805 0.930 . S
C1812 N1813 1.320 1_554 S
C1812 C1814 1.353 . S
C1812 H1818 0.930 . S
N1813 Li1763 1.990 1_556 S
N1813 C1812 1.320 1_556 S
N1813 C1816 1.275 . S
C1814 C1812 1.353 . S
C1814 C1817 1.348 1_554 S
C1814 H1846 0.929 . S
C1815 C1816 1.358 . S
C1815 C1817 1.356 . S
C1815 H1847 0.930 . S
C1816 N1813 1.275 . S
C1816 C1815 1.358 . S
C1816 H1819 0.930 . S
C1817 C1814 1.348 1_556 S
C1817 C1815 1.356 . S
H1818 C1812 0.930 . S
H1819 C1816 0.930 . S
O1820 Li1760 1.956 . S
O1820 Li1761 1.970 . S
O1820 Li1762 1.961 1_554 S
O1820 C1764 1.325 . S
O1821 Li1760 1.970 . S
O1821 Li1761 1.956 . S
O1821 Li1763 1.961 . S
O1821 C1770 1.325 . S
O1822 Li1760 1.961 . S
O1822 Li1762 1.956 1_554 S
O1822 Li1763 1.970 . S
O1822 C1792 1.325 . S
O1823 Li1761 1.961 1_556 S
O1823 Li1762 1.970 . S
O1823 Li1763 1.956 1_556 S
O1823 C1798 1.325 . S
H1824 C1766 0.929 . S
H1825 C1767 0.930 . S
H1826 C1768 0.930 . S
H1827 C1769 0.930 . S
H1828 C1771 0.930 . S
H1829 C1773 0.929 . S
H1830 C1774 0.930 . S
H1831 C1775 0.930 . S
H1832 C1778 0.930 . S
H1833 C1781 0.929 . S
H1834 C1786 0.929 . S
H1835 C1787 0.930 . S
H1836 C1794 0.929 . S
H1837 C1795 0.930 . S
H1838 C1796 0.930 . S
H1839 C1797 0.930 . S
H1840 C1799 0.929 . S
H1841 C1800 0.930 . S
H1842 C1801 0.930 . S
H1843 C1802 0.930 . S
H1844 C1806 0.929 . S
H1845 C1808 0.930 . S
H1846 C1814 0.929 . S
H1847 C1815 0.930 . S
Li1848 N1865 1.990 . S
Li1848 O1908 1.956 . S
Li1848 O1909 1.970 . S
Li1848 O1910 1.961 . S
Li1849 N1873 1.990 . S
Li1849 O1908 1.970 . S
Li1849 O1909 1.956 . S
Li1849 O1911 1.961 . S
Li1850 N1895 1.990 . S
Li1850 O1908 1.961 . S
Li1850 O1910 1.956 . S
Li1850 O1911 1.970 . S
Li1851 N1901 1.990 . S
Li1851 O1909 1.961 . S
Li1851 O1910 1.970 . S
Li1851 O1911 1.956 . S
C1852 C1854 1.348 . S
C1852 C1855 1.356 . S
C1852 O1908 1.325 . S
N1853 C1856 1.314 . S
N1853 C1857 1.279 . S
C1854 C1852 1.348 . S
C1854 C1856 1.353 . S
C1854 H1912 0.929 . S
C1855 C1852 1.356 . S
C1855 C1857 1.358 . S
C1855 H1913 0.930 . S
C1856 N1853 1.314 . S
C1856 C1854 1.353 . S
C1856 H1914 0.930 . S
C1857 N1853 1.279 . S
C1857 C1855 1.358 . S
C1857 H1915 0.930 . S
C1858 C1861 1.348 . S
C1858 C1862 1.356 . S
C1858 O1909 1.325 . S
C1859 N1860 1.279 . S
C1859 C1862 1.358 . S
C1859 H1916 0.930 . S
N1860 C1859 1.279 . S
N1860 C1863 1.314 . S
C1861 C1858 1.348 . S
C1861 C1863 1.353 . S
C1861 H1917 0.929 . S
C1862 C1858 1.356 . S
C1862 C1859 1.358 . S
C1862 H1918 0.930 . S
C1863 N1860 1.314 . S
C1863 C1861 1.353 . S
C1863 H1919 0.930 . S
C1864 N1865 1.314 . S
C1864 C1869 1.353 . S
C1864 H1870 0.930 . S
N1865 Li1848 1.990 . S
N1865 C1864 1.314 . S
N1865 C1867 1.279 . S
C1866 C1867 1.358 . S
C1866 C1868 1.356 . S
C1866 H1920 0.930 . S
C1867 N1865 1.279 . S
C1867 C1866 1.358 . S
C1867 H1871 0.930 . S
C1868 C1866 1.356 . S
C1868 C1869 1.348 . S
C1869 C1864 1.353 . S
C1869 C1868 1.348 . S
C1869 H1921 0.929 . S
H1870 C1864 0.930 . S
H1871 C1867 0.930 . S
C1872 N1873 1.314 . S
C1872 C1874 1.353 . S
C1872 H1878 0.930 . S
N1873 Li1849 1.990 . S
N1873 C1872 1.314 . S
N1873 C1876 1.279 . S
C1874 C1872 1.353 . S
C1874 C1877 1.348 . S
C1874 H1922 0.929 . S
C1875 C1876 1.358 . S
C1875 C1877 1.356 . S
C1875 H1923 0.930 . S
C1876 N1873 1.279 . S
C1876 C1875 1.358 . S
C1876 H1879 0.930 . S
C1877 C1874 1.348 . S
C1877 C1875 1.356 . S
H1878 C1872 0.930 . S
H1879 C1876 0.930 . S
C1880 C1882 1.348 . S
C1880 C1883 1.356 . S
C1880 O1910 1.325 . S
N1881 C1884 1.314 . S
N1881 C1885 1.279 . S
C1882 C1880 1.348 . S
C1882 C1884 1.353 . S
C1882 H1924 0.929 . S
C1883 C1880 1.356 . S
C1883 C1885 1.358 . S
C1883 H1925 0.930 . S
C1884 N1881 1.314 . S
C1884 C1882 1.353 . S
C1884 H1926 0.930 . S
C1885 N1881 1.279 . S
C1885 C1883 1.358 . S
C1885 H1927 0.930 . S
C1886 C1887 1.348 . S
C1886 C1888 1.356 . S
C1886 O1911 1.325 . S
C1887 C1886 1.348 . S
C1887 C1889 1.353 . S
C1887 H1928 0.929 . S
C1888 C1886 1.356 . S
C1888 C1890 1.358 . S
C1888 H1929 0.930 . S
C1889 C1887 1.353 . S
C1889 N1891 1.314 . S
C1889 H1930 0.930 . S
C1890 C1888 1.358 . S
C1890 N1891 1.279 . S
C1890 H1931 0.930 . S
N1891 C1889 1.314 . S
N1891 C1890 1.279 . S
C1892 C1894 1.353 . S
C1892 N1895 1.314 . S
C1892 H1898 0.930 . S
C1893 N1895 1.279 . S
C1893 C1896 1.358 . S
C1893 H1899 0.930 . S
C1894 C1892 1.353 . S
C1894 C1897 1.348 . S
C1894 H1932 0.929 . S
N1895 Li1850 1.990 . S
N1895 C1892 1.314 . S
N1895 C1893 1.279 . S
C1896 C1893 1.358 . S
C1896 C1897 1.356 . S
C1896 H1933 0.930 . S
C1897 C1894 1.348 . S
C1897 C1896 1.356 . S
H1898 C1892 0.930 . S
H1899 C1893 0.930 . S
C1900 N1901 1.314 . S
C1900 C1902 1.353 . S
C1900 H1906 0.930 . S
N1901 Li1851 1.990 . S
N1901 C1900 1.314 . S
N1901 C1904 1.279 . S
C1902 C1900 1.353 . S
C1902 C1905 1.348 . S
C1902 H1934 0.929 . S
C1903 C1904 1.358 . S
C1903 C1905 1.356 . S
C1903 H1935 0.930 . S
C1904 N1901 1.279 . S
C1904 C1903 1.358 . S
C1904 H1907 0.930 . S
C1905 C1902 1.348 . S
C1905 C1903 1.356 . S
H1906 C1900 0.930 . S
H1907 C1904 0.930 . S
O1908 Li1848 1.956 . S
O1908 Li1849 1.970 . S
O1908 Li1850 1.961 . S
O1908 C1852 1.325 . S
O1909 Li1848 1.970 . S
O1909 Li1849 1.956 . S
O1909 Li1851 1.961 . S
O1909 C1858 1.325 . S
O1910 Li1848 1.961 . S
O1910 Li1850 1.956 . S
O1910 Li1851 1.970 . S
O1910 C1880 1.325 . S
O1911 Li1849 1.961 . S
O1911 Li1850 1.970 . S
O1911 Li1851 1.956 . S
O1911 C1886 1.325 . S
H1912 C1854 0.929 . S
H1913 C1855 0.930 . S
H1914 C1856 0.930 . S
H1915 C1857 0.930 . S
H1916 C1859 0.930 . S
H1917 C1861 0.929 . S
H1918 C1862 0.930 . S
H1919 C1863 0.930 . S
H1920 C1866 0.930 . S
H1921 C1869 0.929 . S
H1922 C1874 0.929 . S
H1923 C1875 0.930 . S
H1924 C1882 0.929 . S
H1925 C1883 0.930 . S
H1926 C1884 0.930 . S
H1927 C1885 0.930 . S
H1928 C1887 0.929 . S
H1929 C1888 0.930 . S
H1930 C1889 0.930 . S
H1931 C1890 0.930 . S
H1932 C1894 0.929 . S
H1933 C1896 0.930 . S
H1934 C1902 0.929 . S
H1935 C1903 0.930 . S
Li1936 N1953 1.990 . S
Li1936 O1996 1.956 . S
Li1936 O1997 1.970 . S
Li1936 O1998 1.961 . S
Li1937 N1961 1.990 . S
Li1937 O1996 1.970 . S
Li1937 O1997 1.956 . S
Li1937 O1999 1.961 . S
Li1938 N1983 1.990 . S
Li1938 O1996 1.961 . S
Li1938 O1998 1.956 . S
Li1938 O1999 1.970 . S
Li1939 N1989 1.990 . S
Li1939 O1997 1.961 . S
Li1939 O1998 1.970 . S
Li1939 O1999 1.956 . S
C1940 C1942 1.348 . S
C1940 C1943 1.356 . S
C1940 O1996 1.325 . S
N1941 C1944 1.314 . S
N1941 C1945 1.279 . S
C1942 C1940 1.348 . S
C1942 C1944 1.353 . S
C1942 H2000 0.929 . S
C1943 C1940 1.356 . S
C1943 C1945 1.358 . S
C1943 H2001 0.930 . S
C1944 N1941 1.314 . S
C1944 C1942 1.353 . S
C1944 H2002 0.930 . S
C1945 N1941 1.279 . S
C1945 C1943 1.358 . S
C1945 H2003 0.930 . S
C1946 C1949 1.348 . S
C1946 C1950 1.356 . S
C1946 O1997 1.325 . S
C1947 N1948 1.279 . S
C1947 C1950 1.358 . S
C1947 H2004 0.930 . S
N1948 C1947 1.279 . S
N1948 C1951 1.314 . S
C1949 C1946 1.348 . S
C1949 C1951 1.353 . S
C1949 H2005 0.929 . S
C1950 C1946 1.356 . S
C1950 C1947 1.358 . S
C1950 H2006 0.930 . S
C1951 N1948 1.314 . S
C1951 C1949 1.353 . S
C1951 H2007 0.930 . S
C1952 N1953 1.314 . S
C1952 C1957 1.353 . S
C1952 H1958 0.930 . S
N1953 Li1936 1.990 . S
N1953 C1952 1.314 . S
N1953 C1955 1.279 . S
C1954 C1955 1.358 . S
C1954 C1956 1.356 . S
C1954 H2008 0.930 . S
C1955 N1953 1.279 . S
C1955 C1954 1.358 . S
C1955 H1959 0.930 . S
C1956 C1954 1.356 . S
C1956 C1957 1.348 . S
C1957 C1952 1.353 . S
C1957 C1956 1.348 . S
C1957 H2009 0.929 . S
H1958 C1952 0.930 . S
H1959 C1955 0.930 . S
C1960 N1961 1.314 . S
C1960 C1962 1.353 . S
C1960 H1966 0.930 . S
N1961 Li1937 1.990 . S
N1961 C1960 1.314 . S
N1961 C1964 1.279 . S
C1962 C1960 1.353 . S
C1962 C1965 1.348 . S
C1962 H2010 0.929 . S
C1963 C1964 1.358 . S
C1963 C1965 1.356 . S
C1963 H2011 0.930 . S
C1964 N1961 1.279 . S
C1964 C1963 1.358 . S
C1964 H1967 0.930 . S
C1965 C1962 1.348 . S
C1965 C1963 1.356 . S
H1966 C1960 0.930 . S
H1967 C1964 0.930 . S
C1968 C1970 1.348 . S
C1968 C1971 1.356 . S
C1968 O1998 1.325 . S
N1969 C1972 1.314 . S
N1969 C1973 1.279 . S
C1970 C1968 1.348 . S
C1970 C1972 1.353 . S
C1970 H2012 0.929 . S
C1971 C1968 1.356 . S
C1971 C1973 1.358 . S
C1971 H2013 0.930 . S
C1972 N1969 1.314 . S
C1972 C1970 1.353 . S
C1972 H2014 0.930 . S
C1973 N1969 1.279 . S
C1973 C1971 1.358 . S
C1973 H2015 0.930 . S
C1974 C1975 1.348 . S
C1974 C1976 1.356 . S
C1974 O1999 1.325 . S
C1975 C1974 1.348 . S
C1975 C1977 1.353 . S
C1975 H2016 0.929 . S
C1976 C1974 1.356 . S
C1976 C1978 1.358 . S
C1976 H2017 0.930 . S
C1977 C1975 1.353 . S
C1977 N1979 1.314 . S
C1977 H2018 0.930 . S
C1978 C1976 1.358 . S
C1978 N1979 1.279 . S
C1978 H2019 0.930 . S
N1979 C1977 1.314 . S
N1979 C1978 1.279 . S
C1980 C1982 1.353 . S
C1980 N1983 1.314 . S
C1980 H1986 0.930 . S
C1981 N1983 1.279 . S
C1981 C1984 1.358 . S
C1981 H1987 0.930 . S
C1982 C1980 1.353 . S
C1982 C1985 1.348 . S
C1982 H2020 0.929 . S
N1983 Li1938 1.990 . S
N1983 C1980 1.314 . S
N1983 C1981 1.279 . S
C1984 C1981 1.358 . S
C1984 C1985 1.356 . S
C1984 H2021 0.930 . S
C1985 C1982 1.348 . S
C1985 C1984 1.356 . S
H1986 C1980 0.930 . S
H1987 C1981 0.930 . S
C1988 N1989 1.314 . S
C1988 C1990 1.353 . S
C1988 H1994 0.930 . S
N1989 Li1939 1.990 . S
N1989 C1988 1.314 . S
N1989 C1992 1.279 . S
C1990 C1988 1.353 . S
C1990 C1993 1.348 . S
C1990 H2022 0.929 . S
C1991 C1992 1.358 . S
C1991 C1993 1.356 . S
C1991 H2023 0.930 . S
C1992 N1989 1.279 . S
C1992 C1991 1.358 . S
C1992 H1995 0.930 . S
C1993 C1990 1.348 . S
C1993 C1991 1.356 . S
H1994 C1988 0.930 . S
H1995 C1992 0.930 . S
O1996 Li1936 1.956 . S
O1996 Li1937 1.970 . S
O1996 Li1938 1.961 . S
O1996 C1940 1.325 . S
O1997 Li1936 1.970 . S
O1997 Li1937 1.956 . S
O1997 Li1939 1.961 . S
O1997 C1946 1.325 . S
O1998 Li1936 1.961 . S
O1998 Li1938 1.956 . S
O1998 Li1939 1.970 . S
O1998 C1968 1.325 . S
O1999 Li1937 1.961 . S
O1999 Li1938 1.970 . S
O1999 Li1939 1.956 . S
O1999 C1974 1.325 . S
H2000 C1942 0.929 . S
H2001 C1943 0.930 . S
H2002 C1944 0.930 . S
H2003 C1945 0.930 . S
H2004 C1947 0.930 . S
H2005 C1949 0.929 . S
H2006 C1950 0.930 . S
H2007 C1951 0.930 . S
H2008 C1954 0.930 . S
H2009 C1957 0.929 . S
H2010 C1962 0.929 . S
H2011 C1963 0.930 . S
H2012 C1970 0.929 . S
H2013 C1971 0.930 . S
H2014 C1972 0.930 . S
H2015 C1973 0.930 . S
H2016 C1975 0.929 . S
H2017 C1976 0.930 . S
H2018 C1977 0.930 . S
H2019 C1978 0.930 . S
H2020 C1982 0.929 . S
H2021 C1984 0.930 . S
H2022 C1990 0.929 . S
H2023 C1991 0.930 . S
Li2024 N2041 1.990 . S
Li2024 O2084 1.956 . S
Li2024 O2085 1.970 . S
Li2024 O2086 1.961 . S
Li2025 N2049 1.990 . S
Li2025 O2084 1.970 . S
Li2025 O2085 1.956 . S
Li2025 O2087 1.961 . S
Li2026 N2071 1.990 . S
Li2026 O2084 1.961 . S
Li2026 O2086 1.956 . S
Li2026 O2087 1.970 . S
Li2027 N2077 1.990 . S
Li2027 O2085 1.961 . S
Li2027 O2086 1.970 . S
Li2027 O2087 1.956 . S
C2028 C2030 1.348 . S
C2028 C2031 1.356 . S
C2028 O2084 1.325 . S
N2029 C2032 1.314 . S
N2029 C2033 1.279 . S
C2030 C2028 1.348 . S
C2030 C2032 1.353 . S
C2030 H2088 0.929 . S
C2031 C2028 1.356 . S
C2031 C2033 1.358 . S
C2031 H2089 0.930 . S
C2032 N2029 1.314 . S
C2032 C2030 1.353 . S
C2032 H2090 0.930 . S
C2033 N2029 1.279 . S
C2033 C2031 1.358 . S
C2033 H2091 0.930 . S
C2034 C2037 1.348 . S
C2034 C2038 1.356 . S
C2034 O2085 1.325 . S
C2035 N2036 1.279 . S
C2035 C2038 1.358 . S
C2035 H2092 0.930 . S
N2036 C2035 1.279 . S
N2036 C2039 1.314 . S
C2037 C2034 1.348 . S
C2037 C2039 1.353 . S
C2037 H2093 0.929 . S
C2038 C2034 1.356 . S
C2038 C2035 1.358 . S
C2038 H2094 0.930 . S
C2039 N2036 1.314 . S
C2039 C2037 1.353 . S
C2039 H2095 0.930 . S
C2040 N2041 1.314 . S
C2040 C2045 1.353 . S
C2040 H2046 0.930 . S
N2041 Li2024 1.990 . S
N2041 C2040 1.314 . S
N2041 C2043 1.279 . S
C2042 C2043 1.358 . S
C2042 C2044 1.356 . S
C2042 H2096 0.930 . S
C2043 N2041 1.279 . S
C2043 C2042 1.358 . S
C2043 H2047 0.930 . S
C2044 C2042 1.356 . S
C2044 C2045 1.348 . S
C2045 C2040 1.353 . S
C2045 C2044 1.348 . S
C2045 H2097 0.929 . S
H2046 C2040 0.930 . S
H2047 C2043 0.930 . S
C2048 N2049 1.314 . S
C2048 C2050 1.353 . S
C2048 H2054 0.930 . S
N2049 Li2025 1.990 . S
N2049 C2048 1.314 . S
N2049 C2052 1.279 . S
C2050 C2048 1.353 . S
C2050 C2053 1.348 . S
C2050 H2098 0.929 . S
C2051 C2052 1.358 . S
C2051 C2053 1.356 . S
C2051 H2099 0.930 . S
C2052 N2049 1.279 . S
C2052 C2051 1.358 . S
C2052 H2055 0.930 . S
C2053 C2050 1.348 . S
C2053 C2051 1.356 . S
H2054 C2048 0.930 . S
H2055 C2052 0.930 . S
C2056 C2058 1.348 . S
C2056 C2059 1.356 . S
C2056 O2086 1.325 . S
N2057 C2060 1.314 . S
N2057 C2061 1.279 . S
C2058 C2056 1.348 . S
C2058 C2060 1.353 . S
C2058 H2100 0.929 . S
C2059 C2056 1.356 . S
C2059 C2061 1.358 . S
C2059 H2101 0.930 . S
C2060 N2057 1.314 . S
C2060 C2058 1.353 . S
C2060 H2102 0.930 . S
C2061 N2057 1.279 . S
C2061 C2059 1.358 . S
C2061 H2103 0.930 . S
C2062 C2063 1.348 . S
C2062 C2064 1.356 . S
C2062 O2087 1.325 . S
C2063 C2062 1.348 . S
C2063 C2065 1.353 . S
C2063 H2104 0.929 . S
C2064 C2062 1.356 . S
C2064 C2066 1.358 . S
C2064 H2105 0.930 . S
C2065 C2063 1.353 . S
C2065 N2067 1.314 . S
C2065 H2106 0.930 . S
C2066 C2064 1.358 . S
C2066 N2067 1.279 . S
C2066 H2107 0.930 . S
N2067 C2065 1.314 . S
N2067 C2066 1.279 . S
C2068 C2070 1.353 . S
C2068 N2071 1.314 . S
C2068 H2074 0.930 . S
C2069 N2071 1.279 . S
C2069 C2072 1.358 . S
C2069 H2075 0.930 . S
C2070 C2068 1.353 . S
C2070 C2073 1.348 . S
C2070 H2108 0.929 . S
N2071 Li2026 1.990 . S
N2071 C2068 1.314 . S
N2071 C2069 1.279 . S
C2072 C2069 1.358 . S
C2072 C2073 1.356 . S
C2072 H2109 0.930 . S
C2073 C2070 1.348 . S
C2073 C2072 1.356 . S
H2074 C2068 0.930 . S
H2075 C2069 0.930 . S
C2076 N2077 1.314 . S
C2076 C2078 1.353 . S
C2076 H2082 0.930 . S
N2077 Li2027 1.990 . S
N2077 C2076 1.314 . S
N2077 C2080 1.279 . S
C2078 C2076 1.353 . S
C2078 C2081 1.348 . S
C2078 H2110 0.929 . S
C2079 C2080 1.358 . S
C2079 C2081 1.356 . S
C2079 H2111 0.930 . S
C2080 N2077 1.279 . S
C2080 C2079 1.358 . S
C2080 H2083 0.930 . S
C2081 C2078 1.348 . S
C2081 C2079 1.356 . S
H2082 C2076 0.930 . S
H2083 C2080 0.930 . S
O2084 Li2024 1.956 . S
O2084 Li2025 1.970 . S
O2084 Li2026 1.961 . S
O2084 C2028 1.325 . S
O2085 Li2024 1.970 . S
O2085 Li2025 1.956 . S
O2085 Li2027 1.961 . S
O2085 C2034 1.325 . S
O2086 Li2024 1.961 . S
O2086 Li2026 1.956 . S
O2086 Li2027 1.970 . S
O2086 C2056 1.325 . S
O2087 Li2025 1.961 . S
O2087 Li2026 1.970 . S
O2087 Li2027 1.956 . S
O2087 C2062 1.325 . S
H2088 C2030 0.929 . S
H2089 C2031 0.930 . S
H2090 C2032 0.930 . S
H2091 C2033 0.930 . S
H2092 C2035 0.930 . S
H2093 C2037 0.929 . S
H2094 C2038 0.930 . S
H2095 C2039 0.930 . S
H2096 C2042 0.930 . S
H2097 C2045 0.929 . S
H2098 C2050 0.929 . S
H2099 C2051 0.930 . S
H2100 C2058 0.929 . S
H2101 C2059 0.930 . S
H2102 C2060 0.930 . S
H2103 C2061 0.930 . S
H2104 C2063 0.929 . S
H2105 C2064 0.930 . S
H2106 C2065 0.930 . S
H2107 C2066 0.930 . S
H2108 C2070 0.929 . S
H2109 C2072 0.930 . S
H2110 C2078 0.929 . S
H2111 C2079 0.930 . S
Tb2112 N2141 2.617 . S
Tb2112 N2147 2.572 . S
Tb2112 O2156 2.465 . S
Tb2112 O2157 2.387 . S
Tb2112 O2159 2.428 . S
Tb2112 O2160 2.308 . S
Tb2112 O2164 2.285 1_545 S
Tb2112 O2167 2.393 . S
Tb2112 C2176 2.802 . S
C2113 N2114 1.379 . S
C2113 C2116 1.416 . S
C2113 C2120 1.424 1_556 S
N2114 C2113 1.379 . S
N2114 C2117 1.334 . S
N2114 Tb2123 2.617 1_566 S
C2115 C2117 1.390 . S
C2115 C2118 1.339 . S
C2115 H2135 0.930 . S
C2116 C2113 1.416 . S
C2116 C2118 1.416 . S
C2116 C2122 1.448 . S
C2117 N2114 1.334 . S
C2117 C2115 1.390 . S
C2117 H2128 0.930 . S
C2118 C2115 1.339 . S
C2118 C2116 1.416 . S
C2118 H2139 0.930 . S
C2119 C2120 1.413 . S
C2119 C2121 1.427 1_554 S
C2119 C2125 1.416 . S
C2120 C2113 1.424 1_554 S
C2120 C2119 1.413 . S
C2120 N2124 1.361 . S
C2121 C2119 1.427 1_556 S
C2121 C2122 1.328 . S
C2121 H2136 0.932 . S
C2122 C2116 1.448 . S
C2122 C2121 1.328 . S
C2122 H2137 0.930 . S
Tb2123 N2114 2.617 1_544 S
Tb2123 N2124 2.572 1_545 S
Tb2123 O2158 2.349 1_655 S
Tb2123 O2161 2.393 1_654 S
Tb2123 O2162 2.465 . S
Tb2123 O2163 2.387 1_645 S
Tb2123 O2165 2.428 1_554 S
Tb2123 O2166 2.308 1_655 S
Tb2123 C2187 2.806 . S
N2124 C2120 1.361 . S
N2124 Tb2123 2.572 1_565 S
N2124 C2126 1.340 . S
C2125 C2119 1.416 . S
C2125 C2127 1.332 . S
C2125 H2133 0.931 . S
C2126 N2124 1.340 . S
C2126 C2127 1.407 . S
C2126 H2132 0.930 . S
C2127 C2125 1.332 . S
C2127 C2126 1.407 . S
C2127 H2129 0.929 . S
H2128 C2117 0.930 . S
H2129 C2127 0.929 . S
H2130 C2145 0.930 . S
H2131 C2152 0.908 1_556 S
H2132 C2126 0.930 . S
H2133 C2125 0.931 . S
H2134 C2148 0.930 1_556 S
H2135 C2115 0.930 . S
H2136 C2121 0.932 . S
H2137 C2122 0.930 . S
H2138 C2143 0.930 . S
H2139 C2118 0.930 . S
H2140 C2151 0.931 . S
N2141 Tb2112 2.617 . S
N2141 C2142 1.379 . S
N2141 C2145 1.334 . S
C2142 N2141 1.379 . S
C2142 C2144 1.416 . S
C2142 C2150 1.424 . S
C2143 H2138 0.930 . S
C2143 C2145 1.390 . S
C2143 C2146 1.339 . S
C2144 C2142 1.416 . S
C2144 C2146 1.416 . S
C2144 C2177 1.448 . S
C2145 H2130 0.930 . S
C2145 N2141 1.334 . S
C2145 C2143 1.390 . S
C2146 C2143 1.339 . S
C2146 C2144 1.416 . S
C2146 H2153 0.930 . S
N2147 Tb2112 2.572 . S
N2147 C2148 1.340 . S
N2147 C2150 1.361 . S
C2148 H2134 0.930 1_554 S
C2148 N2147 1.340 . S
C2148 C2152 1.418 . S
C2149 C2150 1.413 . S
C2149 C2151 1.416 . S
C2149 C2178 1.427 . S
C2150 C2142 1.424 . S
C2150 N2147 1.361 . S
C2150 C2149 1.413 . S
C2151 H2140 0.931 . S
C2151 C2149 1.416 . S
C2151 C2152 1.344 . S
C2152 H2131 0.908 1_554 S
C2152 C2148 1.418 . S
C2152 C2151 1.344 . S
H2153 C2146 0.930 . S
H2154 C2177 0.930 . S
H2155 C2178 0.929 . S
O2156 Tb2112 2.465 . S
O2156 C2176 1.264 . S
O2157 Tb2112 2.387 . S
O2157 C2168 1.264 . S
O2158 Tb2123 2.349 1_455 S
O2158 C2168 1.243 . S
O2159 Tb2112 2.428 . S
O2159 C2176 1.256 . S
O2160 Tb2112 2.308 . S
O2160 C2175 1.266 1_554 S
O2161 Tb2123 2.393 1_456 S
O2161 C2175 1.248 . S
O2162 Tb2123 2.465 . S
O2162 C2187 1.292 . S
O2163 Tb2123 2.387 1_465 S
O2163 C2179 1.264 . S
O2164 Tb2112 2.285 1_565 S
O2164 C2179 1.282 . S
O2165 Tb2123 2.428 1_556 S
O2165 C2187 1.232 1_556 S
O2166 Tb2123 2.308 1_455 S
O2166 C2186 1.266 . S
O2167 Tb2112 2.393 . S
O2167 C2186 1.248 . S
C2168 O2157 1.264 . S
C2168 O2158 1.243 . S
C2169 C2172 1.399 . S
C2169 C2174 1.383 . S
C2169 C2176 1.496 . S
C2170 C2171 1.399 . S
C2170 C2174 1.389 1_565 S
C2171 C2170 1.399 . S
C2171 C2173 1.380 1_565 S
C2171 H2188 0.929 . S
C2172 C2169 1.399 . S
C2172 C2173 1.392 . S
C2172 H2189 0.929 . S
C2173 C2171 1.380 1_545 S
C2173 C2172 1.392 . S
C2173 H2190 0.929 . S
C2174 C2169 1.383 . S
C2174 C2170 1.389 1_545 S
C2174 H2191 0.931 . S
C2175 O2160 1.266 1_556 S
C2175 O2161 1.248 . S
C2176 Tb2112 2.802 . S
C2176 O2156 1.264 . S
C2176 O2159 1.256 . S
C2176 C2169 1.496 . S
C2177 C2144 1.448 . S
C2177 H2154 0.930 . S
C2177 C2178 1.328 . S
C2178 C2149 1.427 . S
C2178 H2155 0.929 . S
C2178 C2177 1.328 . S
C2179 O2163 1.264 . S
C2179 O2164 1.282 . S
C2180 C2183 1.399 . S
C2180 C2184 1.383 1_556 S
C2180 C2187 1.492 1_556 S
C2181 C2182 1.399 1_554 S
C2181 C2184 1.389 . S
C2182 C2181 1.399 1_556 S
C2182 C2185 1.380 . S
C2182 H2192 0.929 . S
C2183 C2180 1.399 . S
C2183 C2185 1.392 . S
C2183 H2193 0.929 . S
C2184 C2180 1.383 1_554 S
C2184 C2181 1.389 . S
C2184 H2194 0.931 . S
C2185 C2182 1.380 . S
C2185 C2183 1.392 . S
C2185 H2195 0.929 . S
C2186 O2166 1.266 . S
C2186 O2167 1.248 . S
C2187 Tb2123 2.806 . S
C2187 O2162 1.292 . S
C2187 O2165 1.232 1_554 S
C2187 C2180 1.492 1_554 S
H2188 C2171 0.929 . S
H2189 C2172 0.929 . S
H2190 C2173 0.929 . S
H2191 C2174 0.931 . S
H2192 C2182 0.929 . S
H2193 C2183 0.929 . S
H2194 C2184 0.931 . S
H2195 C2185 0.929 . S
Tb2196 N2225 2.617 . S
Tb2196 N2231 2.572 . S
Tb2196 O2240 2.465 . S
Tb2196 O2241 2.387 . S
Tb2196 O2243 2.428 . S
Tb2196 O2244 2.308 . S
Tb2196 O2248 2.349 . S
Tb2196 O2251 2.393 . S
Tb2196 C2260 2.802 . S
C2197 N2198 1.379 . S
C2197 C2200 1.416 . S
C2197 C2204 1.424 . S
N2198 C2197 1.379 . S
N2198 C2201 1.334 . S
N2198 Tb2207 2.617 . S
C2199 C2201 1.390 . S
C2199 C2202 1.339 . S
C2199 H2219 0.930 . S
C2200 C2197 1.416 . S
C2200 C2202 1.416 . S
C2200 C2206 1.448 . S
C2201 N2198 1.334 . S
C2201 C2199 1.390 . S
C2201 H2212 0.930 . S
C2202 C2199 1.339 . S
C2202 C2200 1.416 . S
C2202 H2223 0.930 . S
C2203 C2204 1.413 . S
C2203 C2205 1.427 . S
C2203 C2209 1.416 . S
C2204 C2197 1.424 . S
C2204 C2203 1.413 . S
C2204 N2208 1.361 . S
C2205 C2203 1.427 . S
C2205 C2206 1.328 . S
C2205 H2220 0.929 . S
C2206 C2200 1.448 . S
C2206 C2205 1.328 . S
C2206 H2221 0.930 . S
Tb2207 N2198 2.617 . S
Tb2207 N2208 2.572 . S
Tb2207 O2242 2.349 . S
Tb2207 O2245 2.393 . S
Tb2207 O2246 2.465 . S
Tb2207 O2247 2.387 . S
Tb2207 O2249 2.428 . S
Tb2207 O2250 2.308 . S
Tb2207 C2271 2.802 . S
N2208 C2204 1.361 . S
N2208 Tb2207 2.572 . S
N2208 C2210 1.340 . S
C2209 C2203 1.416 . S
C2209 C2211 1.332 . S
C2209 H2217 0.931 . S
C2210 N2208 1.340 . S
C2210 C2211 1.407 . S
C2210 H2216 0.930 . S
C2211 C2209 1.332 . S
C2211 C2210 1.407 . S
C2211 H2213 0.929 . S
H2212 C2201 0.930 . S
H2213 C2211 0.929 . S
H2214 C2229 0.930 . S
H2215 C2236 0.929 . S
H2216 C2210 0.930 . S
H2217 C2209 0.931 . S
H2218 C2232 0.930 . S
H2219 C2199 0.930 . S
H2220 C2205 0.929 . S
H2221 C2206 0.930 . S
H2222 C2227 0.930 . S
H2223 C2202 0.930 . S
H2224 C2235 0.931 . S
N2225 Tb2196 2.617 . S
N2225 C2226 1.379 . S
N2225 C2229 1.334 . S
C2226 N2225 1.379 . S
C2226 C2228 1.416 . S
C2226 C2234 1.424 . S
C2227 H2222 0.930 . S
C2227 C2229 1.390 . S
C2227 C2230 1.339 . S
C2228 C2226 1.416 . S
C2228 C2230 1.416 . S
C2228 C2261 1.448 . S
C2229 H2214 0.930 . S
C2229 N2225 1.334 . S
C2229 C2227 1.390 . S
C2230 C2227 1.339 . S
C2230 C2228 1.416 . S
C2230 H2237 0.930 . S
N2231 Tb2196 2.572 . S
N2231 C2232 1.340 . S
N2231 C2234 1.361 . S
C2232 H2218 0.930 . S
C2232 N2231 1.340 . S
C2232 C2236 1.407 . S
C2233 C2234 1.413 . S
C2233 C2235 1.416 . S
C2233 C2262 1.427 . S
C2234 C2226 1.424 . S
C2234 N2231 1.361 . S
C2234 C2233 1.413 . S
C2235 H2224 0.931 . S
C2235 C2233 1.416 . S
C2235 C2236 1.332 . S
C2236 H2215 0.929 . S
C2236 C2232 1.407 . S
C2236 C2235 1.332 . S
H2237 C2230 0.930 . S
H2238 C2261 0.930 . S
H2239 C2262 0.929 . S
O2240 Tb2196 2.465 . S
O2240 C2260 1.264 . S
O2241 Tb2196 2.387 . S
O2241 C2252 1.264 . S
O2242 Tb2207 2.349 . S
O2242 C2252 1.243 . S
O2243 Tb2196 2.428 . S
O2243 C2260 1.256 . S
O2244 Tb2196 2.308 . S
O2244 C2259 1.266 . S
O2245 Tb2207 2.393 . S
O2245 C2259 1.248 . S
O2246 Tb2207 2.465 . S
O2246 C2271 1.264 . S
O2247 Tb2207 2.387 . S
O2247 C2263 1.264 . S
O2248 Tb2196 2.349 . S
O2248 C2263 1.243 . S
O2249 Tb2207 2.428 . S
O2249 C2271 1.256 . S
O2250 Tb2207 2.308 . S
O2250 C2270 1.266 . S
O2251 Tb2196 2.393 . S
O2251 C2270 1.248 . S
C2252 O2241 1.264 . S
C2252 O2242 1.243 . S
C2253 C2256 1.399 . S
C2253 C2258 1.383 . S
C2253 C2260 1.496 . S
C2254 C2255 1.399 . S
C2254 C2258 1.389 . S
C2255 C2254 1.399 . S
C2255 C2257 1.380 . S
C2255 H2272 0.929 . S
C2256 C2253 1.399 . S
C2256 C2257 1.392 . S
C2256 H2273 0.929 . S
C2257 C2255 1.380 . S
C2257 C2256 1.392 . S
C2257 H2274 0.929 . S
C2258 C2253 1.383 . S
C2258 C2254 1.389 . S
C2258 H2275 0.931 . S
C2259 O2244 1.266 . S
C2259 O2245 1.248 . S
C2260 Tb2196 2.802 . S
C2260 O2240 1.264 . S
C2260 O2243 1.256 . S
C2260 C2253 1.496 . S
C2261 C2228 1.448 . S
C2261 H2238 0.930 . S
C2261 C2262 1.328 . S
C2262 C2233 1.427 . S
C2262 H2239 0.929 . S
C2262 C2261 1.328 . S
C2263 O2247 1.264 . S
C2263 O2248 1.243 . S
C2264 C2267 1.399 . S
C2264 C2268 1.383 . S
C2264 C2271 1.496 . S
C2265 C2266 1.399 . S
C2265 C2268 1.389 . S
C2266 C2265 1.399 . S
C2266 C2269 1.380 . S
C2266 H2276 0.929 . S
C2267 C2264 1.399 . S
C2267 C2269 1.392 . S
C2267 H2277 0.929 . S
C2268 C2264 1.383 . S
C2268 C2265 1.389 . S
C2268 H2278 0.931 . S
C2269 C2266 1.380 . S
C2269 C2267 1.392 . S
C2269 H2279 0.929 . S
C2270 O2250 1.266 . S
C2270 O2251 1.248 . S
C2271 Tb2207 2.802 . S
C2271 O2246 1.264 . S
C2271 O2249 1.256 . S
C2271 C2264 1.496 . S
H2272 C2255 0.929 . S
H2273 C2256 0.929 . S
H2274 C2257 0.929 . S
H2275 C2258 0.931 . S
H2276 C2266 0.929 . S
H2277 C2267 0.929 . S
H2278 C2268 0.931 . S
H2279 C2269 0.929 . S
Tb2280 N2309 2.617 1_545 S
Tb2280 N2315 2.572 1_545 S
Tb2280 O2324 2.465 . S
Tb2280 O2325 2.387 1_545 S
Tb2280 O2327 2.428 . S
Tb2280 O2328 2.308 . S
Tb2280 O2332 2.349 . S
Tb2280 O2335 2.393 . S
Tb2280 C2344 2.802 . S
C2281 N2282 1.379 . S
C2281 C2284 1.416 . S
C2281 C2288 1.424 . S
N2282 C2281 1.379 . S
N2282 C2285 1.334 . S
N2282 Tb2291 2.617 . S
C2283 C2285 1.390 . S
C2283 C2286 1.339 . S
C2283 H2303 0.930 . S
C2284 C2281 1.416 . S
C2284 C2286 1.416 . S
C2284 C2290 1.448 . S
C2285 N2282 1.334 . S
C2285 C2283 1.390 . S
C2285 H2296 0.930 . S
C2286 C2283 1.339 . S
C2286 C2284 1.416 . S
C2286 H2307 0.930 . S
C2287 C2288 1.413 . S
C2287 C2289 1.427 . S
C2287 C2293 1.416 . S
C2288 C2281 1.424 . S
C2288 C2287 1.413 . S
C2288 N2292 1.361 . S
C2289 C2287 1.427 . S
C2289 C2290 1.328 . S
C2289 H2304 0.929 . S
C2290 C2284 1.448 . S
C2290 C2289 1.328 . S
C2290 H2305 0.930 . S
Tb2291 N2282 2.617 . S
Tb2291 N2292 2.572 . S
Tb2291 O2326 2.349 1_545 S
Tb2291 O2329 2.393 . S
Tb2291 O2330 2.465 . S
Tb2291 O2331 2.387 . S
Tb2291 O2333 2.428 . S
Tb2291 O2334 2.308 . S
Tb2291 C2355 2.802 . S
N2292 C2288 1.361 . S
N2292 Tb2291 2.572 . S
N2292 C2294 1.340 . S
C2293 C2287 1.416 . S
C2293 C2295 1.332 . S
C2293 H2301 0.931 . S
C2294 N2292 1.340 . S
C2294 C2295 1.407 . S
C2294 H2300 0.930 . S
C2295 C2293 1.332 . S
C2295 C2294 1.407 . S
C2295 H2297 0.929 . S
H2296 C2285 0.930 . S
H2297 C2295 0.929 . S
H2298 C2313 0.879 1_545 S
H2299 C2320 0.929 . S
H2300 C2294 0.930 . S
H2301 C2293 0.931 . S
H2302 C2316 0.971 . S
H2303 C2283 0.930 . S
H2304 C2289 0.929 . S
H2305 C2290 0.930 . S
H2306 C2311 0.930 . S
H2307 C2286 0.930 . S
H2308 C2319 0.931 . S
N2309 Tb2280 2.617 1_565 S
N2309 C2310 1.379 . S
N2309 C2313 1.333 . S
C2310 N2309 1.379 . S
C2310 C2312 1.416 . S
C2310 C2318 1.424 . S
C2311 H2306 0.930 . S
C2311 C2313 1.445 . S
C2311 C2314 1.339 . S
C2312 C2310 1.416 . S
C2312 C2314 1.416 . S
C2312 C2345 1.448 . S
C2313 H2298 0.879 1_565 S
C2313 N2309 1.333 . S
C2313 C2311 1.445 . S
C2314 C2311 1.339 . S
C2314 C2312 1.416 . S
C2314 H2321 0.930 . S
N2315 Tb2280 2.572 1_565 S
N2315 C2316 1.340 . S
N2315 C2318 1.361 . S
C2316 H2302 0.971 . S
C2316 N2315 1.340 . S
C2316 C2320 1.407 . S
C2317 C2318 1.413 . S
C2317 C2319 1.416 . S
C2317 C2346 1.427 . S
C2318 C2310 1.424 . S
C2318 N2315 1.361 . S
C2318 C2317 1.413 . S
C2319 H2308 0.931 . S
C2319 C2317 1.416 . S
C2319 C2320 1.332 . S
C2320 H2299 0.929 . S
C2320 C2316 1.407 . S
C2320 C2319 1.332 . S
H2321 C2314 0.930 . S
H2322 C2345 0.930 . S
H2323 C2346 0.929 . S
O2324 Tb2280 2.465 . S
O2324 C2344 1.264 . S
O2325 Tb2280 2.387 1_565 S
O2325 C2336 1.264 . S
O2326 Tb2291 2.349 1_565 S
O2326 C2336 1.243 . S
O2327 Tb2280 2.428 . S
O2327 C2344 1.256 . S
O2328 Tb2280 2.308 . S
O2328 C2343 1.266 . S
O2329 Tb2291 2.393 . S
O2329 C2343 1.248 . S
O2330 Tb2291 2.465 . S
O2330 C2355 1.264 . S
O2331 Tb2291 2.387 . S
O2331 C2347 1.264 . S
O2332 Tb2280 2.349 . S
O2332 C2347 1.243 . S
O2333 Tb2291 2.428 . S
O2333 C2355 1.256 . S
O2334 Tb2291 2.308 . S
O2334 C2354 1.266 . S
O2335 Tb2280 2.393 . S
O2335 C2354 1.248 . S
C2336 O2325 1.264 . S
C2336 O2326 1.243 . S
C2337 C2340 1.399 . S
C2337 C2342 1.383 . S
C2337 C2344 1.496 . S
C2338 C2339 1.399 . S
C2338 C2342 1.389 . S
C2339 C2338 1.399 . S
C2339 C2341 1.380 . S
C2339 H2356 0.929 . S
C2340 C2337 1.399 . S
C2340 C2341 1.392 . S
C2340 H2357 0.929 . S
C2341 C2339 1.380 . S
C2341 C2340 1.392 . S
C2341 H2358 0.929 . S
C2342 C2337 1.383 . S
C2342 C2338 1.389 . S
C2342 H2359 0.931 . S
C2343 O2328 1.266 . S
C2343 O2329 1.248 . S
C2344 Tb2280 2.802 . S
C2344 O2324 1.264 . S
C2344 O2327 1.256 . S
C2344 C2337 1.496 . S
C2345 C2312 1.448 . S
C2345 H2322 0.930 . S
C2345 C2346 1.328 . S
C2346 C2317 1.427 . S
C2346 H2323 0.929 . S
C2346 C2345 1.328 . S
C2347 O2331 1.264 . S
C2347 O2332 1.243 . S
C2348 C2351 1.399 . S
C2348 C2352 1.383 . S
C2348 C2355 1.496 1_565 S
C2349 C2350 1.399 . S
C2349 C2352 1.389 . S
C2350 C2349 1.399 . S
C2350 C2353 1.380 . S
C2350 H2360 0.929 . S
C2351 C2348 1.399 . S
C2351 C2353 1.392 . S
C2351 H2361 0.929 . S
C2352 C2348 1.383 . S
C2352 C2349 1.389 . S
C2352 H2362 0.931 . S
C2353 C2350 1.380 . S
C2353 C2351 1.392 . S
C2353 H2363 0.929 . S
C2354 O2334 1.266 . S
C2354 O2335 1.248 . S
C2355 Tb2291 2.802 . S
C2355 O2330 1.264 . S
C2355 O2333 1.256 . S
C2355 C2348 1.496 1_545 S
H2356 C2339 0.929 . S
H2357 C2340 0.929 . S
H2358 C2341 0.929 . S
H2359 C2342 0.931 . S
H2360 C2350 0.929 . S
H2361 C2351 0.929 . S
H2362 C2352 0.931 . S
H2363 C2353 0.929 . S
Tb2364 N2393 2.617 . S
Tb2364 N2399 2.572 . S
Tb2364 O2408 2.465 . S
Tb2364 O2409 2.387 . S
Tb2364 O2411 2.428 . S
Tb2364 O2412 2.308 . S
Tb2364 O2416 2.349 . S
Tb2364 O2419 2.393 . S
Tb2364 C2428 2.802 . S
C2365 N2366 1.379 . S
C2365 C2368 1.416 . S
C2365 C2372 1.424 . S
N2366 C2365 1.379 . S
N2366 C2369 1.334 . S
N2366 Tb2375 2.617 . S
C2367 C2369 1.390 . S
C2367 C2370 1.339 . S
C2367 H2387 0.930 . S
C2368 C2365 1.416 . S
C2368 C2370 1.416 . S
C2368 C2374 1.448 . S
C2369 N2366 1.334 . S
C2369 C2367 1.390 . S
C2369 H2380 0.930 . S
C2370 C2367 1.339 . S
C2370 C2368 1.416 . S
C2370 H2391 0.930 . S
C2371 C2372 1.413 . S
C2371 C2373 1.427 . S
C2371 C2377 1.416 . S
C2372 C2365 1.424 . S
C2372 C2371 1.413 . S
C2372 N2376 1.361 . S
C2373 C2371 1.427 . S
C2373 C2374 1.328 . S
C2373 H2388 0.929 . S
C2374 C2368 1.448 . S
C2374 C2373 1.328 . S
C2374 H2389 0.930 . S
Tb2375 N2366 2.617 . S
Tb2375 N2376 2.572 . S
Tb2375 O2410 2.349 . S
Tb2375 O2413 2.393 . S
Tb2375 O2414 2.465 . S
Tb2375 O2415 2.387 . S
Tb2375 O2417 2.428 . S
Tb2375 O2418 2.308 . S
Tb2375 C2439 2.802 . S
N2376 C2372 1.361 . S
N2376 Tb2375 2.572 . S
N2376 C2378 1.340 . S
C2377 C2371 1.416 . S
C2377 C2379 1.332 . S
C2377 H2385 0.931 . S
C2378 N2376 1.340 . S
C2378 C2379 1.407 . S
C2378 H2384 0.930 . S
C2379 C2377 1.332 . S
C2379 C2378 1.407 . S
C2379 H2381 0.929 . S
H2380 C2369 0.930 . S
H2381 C2379 0.929 . S
H2382 C2397 0.930 . S
H2383 C2404 0.929 . S
H2384 C2378 0.930 . S
H2385 C2377 0.931 . S
H2386 C2400 0.930 . S
H2387 C2367 0.930 . S
H2388 C2373 0.929 . S
H2389 C2374 0.930 . S
H2390 C2395 0.930 . S
H2391 C2370 0.930 . S
H2392 C2403 0.931 . S
N2393 Tb2364 2.617 . S
N2393 C2394 1.379 . S
N2393 C2397 1.334 . S
C2394 N2393 1.379 . S
C2394 C2396 1.416 . S
C2394 C2402 1.424 . S
C2395 H2390 0.930 . S
C2395 C2397 1.390 . S
C2395 C2398 1.339 . S
C2396 C2394 1.416 . S
C2396 C2398 1.416 . S
C2396 C2429 1.448 . S
C2397 H2382 0.930 . S
C2397 N2393 1.334 . S
C2397 C2395 1.390 . S
C2398 C2395 1.339 . S
C2398 C2396 1.416 . S
C2398 H2405 0.930 . S
N2399 Tb2364 2.572 . S
N2399 C2400 1.340 . S
N2399 C2402 1.361 . S
C2400 H2386 0.930 . S
C2400 N2399 1.340 . S
C2400 C2404 1.407 . S
C2401 C2402 1.413 . S
C2401 C2403 1.416 . S
C2401 C2430 1.427 . S
C2402 C2394 1.424 . S
C2402 N2399 1.361 . S
C2402 C2401 1.413 . S
C2403 H2392 0.931 . S
C2403 C2401 1.416 . S
C2403 C2404 1.332 . S
C2404 H2383 0.929 . S
C2404 C2400 1.407 . S
C2404 C2403 1.332 . S
H2405 C2398 0.930 . S
H2406 C2429 0.930 . S
H2407 C2430 0.929 . S
O2408 Tb2364 2.465 . S
O2408 C2428 1.264 . S
O2409 Tb2364 2.387 . S
O2409 C2420 1.264 . S
O2410 Tb2375 2.349 . S
O2410 C2420 1.243 . S
O2411 Tb2364 2.428 . S
O2411 C2428 1.256 . S
O2412 Tb2364 2.308 . S
O2412 C2427 1.266 . S
O2413 Tb2375 2.393 . S
O2413 C2427 1.248 . S
O2414 Tb2375 2.465 . S
O2414 C2439 1.264 . S
O2415 Tb2375 2.387 . S
O2415 C2431 1.264 . S
O2416 Tb2364 2.349 . S
O2416 C2431 1.243 . S
O2417 Tb2375 2.428 . S
O2417 C2439 1.256 . S
O2418 Tb2375 2.308 . S
O2418 C2438 1.266 . S
O2419 Tb2364 2.393 . S
O2419 C2438 1.248 . S
C2420 O2409 1.264 . S
C2420 O2410 1.243 . S
C2421 C2424 1.399 . S
C2421 C2426 1.383 . S
C2421 C2428 1.496 . S
C2422 C2423 1.399 . S
C2422 C2426 1.389 . S
C2423 C2422 1.399 . S
C2423 C2425 1.380 . S
C2423 H2440 0.929 . S
C2424 C2421 1.399 . S
C2424 C2425 1.392 . S
C2424 H2441 0.929 . S
C2425 C2423 1.380 . S
C2425 C2424 1.392 . S
C2425 H2442 0.929 . S
C2426 C2421 1.383 . S
C2426 C2422 1.389 . S
C2426 H2443 0.931 . S
C2427 O2412 1.266 . S
C2427 O2413 1.248 . S
C2428 Tb2364 2.802 . S
C2428 O2408 1.264 . S
C2428 O2411 1.256 . S
C2428 C2421 1.496 . S
C2429 C2396 1.448 . S
C2429 H2406 0.930 . S
C2429 C2430 1.328 . S
C2430 C2401 1.427 . S
C2430 H2407 0.929 . S
C2430 C2429 1.328 . S
C2431 O2415 1.264 . S
C2431 O2416 1.243 . S
C2432 C2435 1.399 . S
C2432 C2436 1.383 . S
C2432 C2439 1.496 . S
C2433 C2434 1.399 . S
C2433 C2436 1.389 . S
C2434 C2433 1.399 . S
C2434 C2437 1.380 . S
C2434 H2444 0.929 . S
C2435 C2432 1.399 . S
C2435 C2437 1.392 . S
C2435 H2445 0.929 . S
C2436 C2432 1.383 . S
C2436 C2433 1.389 . S
C2436 H2446 0.931 . S
C2437 C2434 1.380 . S
C2437 C2435 1.392 . S
C2437 H2447 0.929 . S
C2438 O2418 1.266 . S
C2438 O2419 1.248 . S
C2439 Tb2375 2.802 . S
C2439 O2414 1.264 . S
C2439 O2417 1.256 . S
C2439 C2432 1.496 . S
H2440 C2423 0.929 . S
H2441 C2424 0.929 . S
H2442 C2425 0.929 . S
H2443 C2426 0.931 . S
H2444 C2434 0.929 . S
H2445 C2435 0.929 . S
H2446 C2436 0.931 . S
H2447 C2437 0.929 . S
Tb2448 N2477 2.617 . S
Tb2448 N2483 2.572 . S
Tb2448 O2492 2.465 . S
Tb2448 O2493 2.387 1_565 S
Tb2448 O2495 2.428 . S
Tb2448 O2496 2.288 1_565 S
Tb2448 O2500 2.349 1_565 S
Tb2448 O2503 2.393 1_565 S
Tb2448 C2512 2.802 . S
C2449 N2450 1.379 1_455 S
C2449 C2452 1.416 1_455 S
C2449 C2456 1.424 . S
N2450 C2449 1.379 1_655 S
N2450 C2453 1.334 . S
N2450 Tb2459 2.617 1_655 S
C2451 C2453 1.390 . S
C2451 C2454 1.339 . S
C2451 H2471 0.930 . S
C2452 C2449 1.416 1_655 S
C2452 C2454 1.416 . S
C2452 C2458 1.448 1_655 S
C2453 N2450 1.334 . S
C2453 C2451 1.390 . S
C2453 H2464 0.930 . S
C2454 C2451 1.339 . S
C2454 C2452 1.416 . S
C2454 H2475 0.930 . S
C2455 C2456 1.413 . S
C2455 C2457 1.427 . S
C2455 C2461 1.416 . S
C2456 C2449 1.424 . S
C2456 C2455 1.413 . S
C2456 N2460 1.361 . S
C2457 C2455 1.427 . S
C2457 C2458 1.328 . S
C2457 H2472 0.929 . S
C2458 C2452 1.448 1_455 S
C2458 C2457 1.328 . S
C2458 H2473 0.930 1_455 S
Tb2459 N2450 2.617 1_455 S
Tb2459 N2460 2.572 . S
Tb2459 O2494 2.349 . S
Tb2459 O2497 2.393 1_455 S
Tb2459 O2498 2.465 . S
Tb2459 O2499 2.387 . S
Tb2459 O2501 2.428 1_455 S
Tb2459 O2502 2.308 . S
Tb2459 C2523 2.802 . S
N2460 C2456 1.361 . S
N2460 Tb2459 2.572 . S
N2460 C2462 1.340 . S
C2461 C2455 1.416 . S
C2461 C2463 1.332 . S
C2461 H2469 0.931 . S
C2462 N2460 1.340 . S
C2462 C2463 1.407 . S
C2462 H2468 0.930 . S
C2463 C2461 1.332 . S
C2463 C2462 1.407 . S
C2463 H2465 0.929 . S
H2464 C2453 0.930 . S
H2465 C2463 0.929 . S
H2466 C2481 0.930 1_545 S
H2467 C2488 0.929 . S
H2468 C2462 0.930 . S
H2469 C2461 0.931 . S
H2470 C2484 0.910 1_655 S
H2471 C2451 0.930 . S
H2472 C2457 0.929 . S
H2473 C2458 0.930 1_655 S
H2474 C2479 0.930 . S
H2475 C2454 0.930 . S
H2476 C2487 0.947 . S
N2477 Tb2448 2.617 . S
N2477 C2478 1.379 . S
N2477 C2481 1.334 . S
C2478 N2477 1.379 . S
C2478 C2480 1.416 . S
C2478 C2486 1.424 . S
C2479 H2474 0.930 . S
C2479 C2481 1.390 . S
C2479 C2482 1.339 . S
C2480 C2478 1.416 . S
C2480 C2482 1.416 . S
C2480 C2513 1.448 . S
C2481 H2466 0.930 1_565 S
C2481 N2477 1.334 . S
C2481 C2479 1.390 . S
C2482 C2479 1.339 . S
C2482 C2480 1.416 . S
C2482 H2489 0.930 . S
N2483 Tb2448 2.572 . S
N2483 C2484 1.370 . S
N2483 C2486 1.361 . S
C2484 H2470 0.910 1_455 S
C2484 N2483 1.370 . S
C2484 C2488 1.397 1_455 S
C2485 C2486 1.413 . S
C2485 C2487 1.373 1_455 S
C2485 C2514 1.427 . S
C2486 C2478 1.424 . S
C2486 N2483 1.361 . S
C2486 C2485 1.413 . S
C2487 H2476 0.947 . S
C2487 C2485 1.373 1_655 S
C2487 C2488 1.360 . S
C2488 H2467 0.929 . S
C2488 C2484 1.397 1_655 S
C2488 C2487 1.360 . S
H2489 C2482 0.930 . S
H2490 C2513 0.930 . S
H2491 C2514 0.929 . S
O2492 Tb2448 2.465 . S
O2492 C2512 1.264 . S
O2493 Tb2448 2.387 1_545 S
O2493 C2504 1.264 . S
O2494 Tb2459 2.349 . S
O2494 C2504 1.243 . S
O2495 Tb2448 2.428 . S
O2495 C2512 1.256 . S
O2496 Tb2448 2.288 1_545 S
O2496 C2511 1.301 1_455 S
O2497 Tb2459 2.393 1_655 S
O2497 C2511 1.248 . S
O2498 Tb2459 2.465 . S
O2498 C2523 1.264 . S
O2499 Tb2459 2.387 . S
O2499 C2515 1.264 . S
O2500 Tb2448 2.349 1_545 S
O2500 C2515 1.243 . S
O2501 Tb2459 2.428 1_655 S
O2501 C2523 1.256 1_655 S
O2502 Tb2459 2.308 . S
O2502 C2522 1.266 . S
O2503 Tb2448 2.393 1_545 S
O2503 C2522 1.248 . S
C2504 O2493 1.264 . S
C2504 O2494 1.243 . S
C2505 C2508 1.399 . S
C2505 C2510 1.383 . S
C2505 C2512 1.496 . S
C2506 C2507 1.399 . S
C2506 C2510 1.389 . S
C2507 C2506 1.399 . S
C2507 C2509 1.380 . S
C2507 H2524 0.929 . S
C2508 C2505 1.399 . S
C2508 C2509 1.392 . S
C2508 H2525 0.929 . S
C2509 C2507 1.380 . S
C2509 C2508 1.392 . S
C2509 H2526 0.929 . S
C2510 C2505 1.383 . S
C2510 C2506 1.389 . S
C2510 H2527 0.931 . S
C2511 O2496 1.301 1_655 S
C2511 O2497 1.248 . S
C2512 Tb2448 2.802 . S
C2512 O2492 1.264 . S
C2512 O2495 1.256 . S
C2512 C2505 1.496 . S
C2513 C2480 1.448 . S
C2513 H2490 0.930 . S
C2513 C2514 1.328 . S
C2514 C2485 1.427 . S
C2514 H2491 0.929 . S
C2514 C2513 1.328 . S
C2515 O2499 1.264 . S
C2515 O2500 1.243 . S
C2516 C2519 1.399 1_455 S
C2516 C2520 1.383 . S
C2516 C2523 1.496 . S
C2517 C2518 1.356 1_455 S
C2517 C2520 1.389 . S
C2518 C2517 1.356 1_655 S
C2518 C2521 1.411 . S
C2518 H2528 0.942 . S
C2519 C2516 1.399 1_655 S
C2519 C2521 1.392 . S
C2519 H2529 0.929 . S
C2520 C2516 1.383 . S
C2520 C2517 1.389 . S
C2520 H2530 0.931 . S
C2521 C2518 1.411 . S
C2521 C2519 1.392 . S
C2521 H2531 0.929 . S
C2522 O2502 1.266 . S
C2522 O2503 1.248 . S
C2523 Tb2459 2.802 . S
C2523 O2498 1.264 . S
C2523 O2501 1.256 1_455 S
C2523 C2516 1.496 . S
H2524 C2507 0.929 . S
H2525 C2508 0.929 . S
H2526 C2509 0.929 . S
H2527 C2510 0.931 . S
H2528 C2518 0.942 . S
H2529 C2519 0.929 . S
H2530 C2520 0.931 . S
H2531 C2521 0.929 . S
Tb2532 N2561 2.617 . S
Tb2532 N2567 2.572 . S
Tb2532 O2576 2.465 . S
Tb2532 O2577 2.387 . S
Tb2532 O2579 2.428 . S
Tb2532 O2580 2.308 . S
Tb2532 O2584 2.349 . S
Tb2532 O2587 2.393 . S
Tb2532 C2596 2.802 . S
C2533 N2534 1.379 . S
C2533 C2536 1.416 . S
C2533 C2540 1.424 . S
N2534 C2533 1.379 . S
N2534 C2537 1.334 . S
N2534 Tb2543 2.617 . S
C2535 C2537 1.390 . S
C2535 C2538 1.339 . S
C2535 H2555 0.930 . S
C2536 C2533 1.416 . S
C2536 C2538 1.416 . S
C2536 C2542 1.448 . S
C2537 N2534 1.334 . S
C2537 C2535 1.390 . S
C2537 H2548 0.930 . S
C2538 C2535 1.339 . S
C2538 C2536 1.416 . S
C2538 H2559 0.930 . S
C2539 C2540 1.413 . S
C2539 C2541 1.427 . S
C2539 C2545 1.416 . S
C2540 C2533 1.424 . S
C2540 C2539 1.413 . S
C2540 N2544 1.361 . S
C2541 C2539 1.427 . S
C2541 C2542 1.328 . S
C2541 H2556 0.929 . S
C2542 C2536 1.448 . S
C2542 C2541 1.328 . S
C2542 H2557 0.930 . S
Tb2543 N2534 2.617 . S
Tb2543 N2544 2.572 . S
Tb2543 O2578 2.349 . S
Tb2543 O2581 2.393 . S
Tb2543 O2582 2.465 . S
Tb2543 O2583 2.387 . S
Tb2543 O2585 2.428 . S
Tb2543 O2586 2.308 . S
Tb2543 C2607 2.802 . S
N2544 C2540 1.361 . S
N2544 Tb2543 2.572 . S
N2544 C2546 1.340 . S
C2545 C2539 1.416 . S
C2545 C2547 1.332 . S
C2545 H2553 0.931 . S
C2546 N2544 1.340 . S
C2546 C2547 1.407 . S
C2546 H2552 0.930 . S
C2547 C2545 1.332 . S
C2547 C2546 1.407 . S
C2547 H2549 0.929 . S
H2548 C2537 0.930 . S
H2549 C2547 0.929 . S
H2550 C2565 0.930 . S
H2551 C2572 0.929 . S
H2552 C2546 0.930 . S
H2553 C2545 0.931 . S
H2554 C2568 0.930 . S
H2555 C2535 0.930 . S
H2556 C2541 0.929 . S
H2557 C2542 0.930 . S
H2558 C2563 0.930 . S
H2559 C2538 0.930 . S
H2560 C2571 0.931 . S
N2561 Tb2532 2.617 . S
N2561 C2562 1.379 . S
N2561 C2565 1.334 . S
C2562 N2561 1.379 . S
C2562 C2564 1.416 . S
C2562 C2570 1.424 . S
C2563 H2558 0.930 . S
C2563 C2565 1.390 . S
C2563 C2566 1.339 . S
C2564 C2562 1.416 . S
C2564 C2566 1.416 . S
C2564 C2597 1.448 . S
C2565 H2550 0.930 . S
C2565 N2561 1.334 . S
C2565 C2563 1.390 . S
C2566 C2563 1.339 . S
C2566 C2564 1.416 . S
C2566 H2573 0.930 . S
N2567 Tb2532 2.572 . S
N2567 C2568 1.340 . S
N2567 C2570 1.361 . S
C2568 H2554 0.930 . S
C2568 N2567 1.340 . S
C2568 C2572 1.407 . S
C2569 C2570 1.413 . S
C2569 C2571 1.416 . S
C2569 C2598 1.427 . S
C2570 C2562 1.424 . S
C2570 N2567 1.361 . S
C2570 C2569 1.413 . S
C2571 H2560 0.931 . S
C2571 C2569 1.416 . S
C2571 C2572 1.332 . S
C2572 H2551 0.929 . S
C2572 C2568 1.407 . S
C2572 C2571 1.332 . S
H2573 C2566 0.930 . S
H2574 C2597 0.930 . S
H2575 C2598 0.929 . S
O2576 Tb2532 2.465 . S
O2576 C2596 1.264 . S
O2577 Tb2532 2.387 . S
O2577 C2588 1.264 . S
O2578 Tb2543 2.349 . S
O2578 C2588 1.243 . S
O2579 Tb2532 2.428 . S
O2579 C2596 1.256 . S
O2580 Tb2532 2.308 . S
O2580 C2595 1.266 . S
O2581 Tb2543 2.393 . S
O2581 C2595 1.248 . S
O2582 Tb2543 2.465 . S
O2582 C2607 1.264 . S
O2583 Tb2543 2.387 . S
O2583 C2599 1.264 . S
O2584 Tb2532 2.349 . S
O2584 C2599 1.243 . S
O2585 Tb2543 2.428 . S
O2585 C2607 1.256 . S
O2586 Tb2543 2.308 . S
O2586 C2606 1.266 . S
O2587 Tb2532 2.393 . S
O2587 C2606 1.248 . S
C2588 O2577 1.264 . S
C2588 O2578 1.243 . S
C2589 C2592 1.399 . S
C2589 C2594 1.383 . S
C2589 C2596 1.496 . S
C2590 C2591 1.399 . S
C2590 C2594 1.389 . S
C2591 C2590 1.399 . S
C2591 C2593 1.380 . S
C2591 H2608 0.929 . S
C2592 C2589 1.399 . S
C2592 C2593 1.392 . S
C2592 H2609 0.929 . S
C2593 C2591 1.380 . S
C2593 C2592 1.392 . S
C2593 H2610 0.929 . S
C2594 C2589 1.383 . S
C2594 C2590 1.389 . S
C2594 H2611 0.931 . S
C2595 O2580 1.266 . S
C2595 O2581 1.248 . S
C2596 Tb2532 2.802 . S
C2596 O2576 1.264 . S
C2596 O2579 1.256 . S
C2596 C2589 1.496 . S
C2597 C2564 1.448 . S
C2597 H2574 0.930 . S
C2597 C2598 1.328 . S
C2598 C2569 1.427 . S
C2598 H2575 0.929 . S
C2598 C2597 1.328 . S
C2599 O2583 1.264 . S
C2599 O2584 1.243 . S
C2600 C2603 1.399 . S
C2600 C2604 1.383 . S
C2600 C2607 1.496 . S
C2601 C2602 1.399 . S
C2601 C2604 1.389 . S
C2602 C2601 1.399 . S
C2602 C2605 1.380 . S
C2602 H2612 0.929 . S
C2603 C2600 1.399 . S
C2603 C2605 1.392 . S
C2603 H2613 0.929 . S
C2604 C2600 1.383 . S
C2604 C2601 1.389 . S
C2604 H2614 0.931 . S
C2605 C2602 1.380 . S
C2605 C2603 1.392 . S
C2605 H2615 0.929 . S
C2606 O2586 1.266 . S
C2606 O2587 1.248 . S
C2607 Tb2543 2.802 . S
C2607 O2582 1.264 . S
C2607 O2585 1.256 . S
C2607 C2600 1.496 . S
H2608 C2591 0.929 . S
H2609 C2592 0.929 . S
H2610 C2593 0.929 . S
H2611 C2594 0.931 . S
H2612 C2602 0.929 . S
H2613 C2603 0.929 . S
H2614 C2604 0.931 . S
H2615 C2605 0.929 . S
Tb2616 N2645 2.617 . S
Tb2616 N2651 2.572 . S
Tb2616 O2660 2.465 . S
Tb2616 O2661 2.387 1_556 S
Tb2616 O2663 2.428 . S
Tb2616 O2664 2.308 . S
Tb2616 O2668 2.349 1_556 S
Tb2616 O2671 2.393 1_556 S
Tb2616 C2680 2.802 . S
C2617 N2618 1.379 . S
C2617 C2620 1.416 . S
C2617 C2624 1.424 1_565 S
N2618 C2617 1.379 . S
N2618 C2621 1.334 . S
N2618 Tb2627 2.617 1_565 S
C2619 C2621 1.390 . S
C2619 C2622 1.339 . S
C2619 H2639 0.930 . S
C2620 C2617 1.416 . S
C2620 C2622 1.416 . S
C2620 C2626 1.448 . S
C2621 N2618 1.334 . S
C2621 C2619 1.390 . S
C2621 H2632 0.930 . S
C2622 C2619 1.339 . S
C2622 C2620 1.416 . S
C2622 H2643 0.930 . S
C2623 C2624 1.413 . S
C2623 C2625 1.427 . S
C2623 C2629 1.416 . S
C2624 C2617 1.424 1_545 S
C2624 C2623 1.413 . S
C2624 N2628 1.361 . S
C2625 C2623 1.427 . S
C2625 C2626 1.328 1_545 S
C2625 H2640 0.929 . S
C2626 C2620 1.448 . S
C2626 C2625 1.328 1_565 S
C2626 H2641 0.930 . S
Tb2627 N2618 2.617 1_545 S
Tb2627 N2628 2.572 . S
Tb2627 O2662 2.349 . S
Tb2627 O2665 2.393 1_545 S
Tb2627 O2666 2.465 . S
Tb2627 O2667 2.387 . S
Tb2627 O2669 2.428 1_545 S
Tb2627 O2670 2.308 . S
Tb2627 C2691 2.804 . S
N2628 C2624 1.361 . S
N2628 Tb2627 2.572 . S
N2628 C2630 1.340 . S
C2629 C2623 1.416 . S
C2629 C2631 1.332 . S
C2629 H2637 0.931 . S
C2630 N2628 1.340 . S
C2630 C2631 1.407 . S
C2630 H2636 0.930 . S
C2631 C2629 1.332 . S
C2631 C2630 1.407 . S
C2631 H2633 0.929 . S
H2632 C2621 0.930 . S
H2633 C2631 0.929 . S
H2634 C2649 0.910 1_554 S
H2635 C2656 0.929 . S
H2636 C2630 0.930 . S
H2637 C2629 0.931 . S
H2638 C2652 0.930 1_565 S
H2639 C2619 0.930 . S
H2640 C2625 0.929 . S
H2641 C2626 0.930 . S
H2642 C2647 0.930 . S
H2643 C2622 0.930 . S
H2644 C2655 0.931 1_565 S
N2645 Tb2616 2.617 . S
N2645 C2646 1.379 . S
N2645 C2649 1.334 . S
C2646 N2645 1.379 . S
C2646 C2648 1.416 . S
C2646 C2654 1.424 . S
C2647 H2642 0.930 . S
C2647 C2649 1.390 . S
C2647 C2650 1.339 . S
C2648 C2646 1.416 . S
C2648 C2650 1.416 . S
C2648 C2681 1.448 . S
C2649 H2634 0.910 1_556 S
C2649 N2645 1.334 . S
C2649 C2647 1.390 . S
C2650 C2647 1.339 . S
C2650 C2648 1.416 . S
C2650 H2657 0.930 . S
N2651 Tb2616 2.572 . S
N2651 C2652 1.340 . S
N2651 C2654 1.361 . S
C2652 H2638 0.930 1_545 S
C2652 N2651 1.340 . S
C2652 C2656 1.407 1_545 S
C2653 C2654 1.413 . S
C2653 C2655 1.416 . S
C2653 C2682 1.427 . S
C2654 C2646 1.424 . S
C2654 N2651 1.361 . S
C2654 C2653 1.413 . S
C2655 H2644 0.931 1_545 S
C2655 C2653 1.416 . S
C2655 C2656 1.332 1_545 S
C2656 H2635 0.929 . S
C2656 C2652 1.407 1_565 S
C2656 C2655 1.332 1_565 S
H2657 C2650 0.930 . S
H2658 C2681 0.930 . S
H2659 C2682 0.929 . S
O2660 Tb2616 2.465 . S
O2660 C2680 1.264 . S
O2661 Tb2616 2.387 1_554 S
O2661 C2672 1.264 . S
O2662 Tb2627 2.349 . S
O2662 C2672 1.243 . S
O2663 Tb2616 2.428 . S
O2663 C2680 1.256 . S
O2664 Tb2616 2.308 . S
O2664 C2679 1.266 1_546 S
O2665 Tb2627 2.393 1_565 S
O2665 C2679 1.248 . S
O2666 Tb2627 2.465 . S
O2666 C2691 1.270 . S
O2667 Tb2627 2.387 . S
O2667 C2683 1.264 . S
O2668 Tb2616 2.349 1_554 S
O2668 C2683 1.243 . S
O2669 Tb2627 2.428 1_565 S
O2669 C2691 1.251 1_565 S
O2670 Tb2627 2.308 . S
O2670 C2690 1.266 . S
O2671 Tb2616 2.393 1_554 S
O2671 C2690 1.248 . S
C2672 O2661 1.264 . S
C2672 O2662 1.243 . S
C2673 C2676 1.399 . S
C2673 C2678 1.383 . S
C2673 C2680 1.496 . S
C2674 C2675 1.399 . S
C2674 C2678 1.389 . S
C2675 C2674 1.399 . S
C2675 C2677 1.380 . S
C2675 H2692 0.929 . S
C2676 C2673 1.399 . S
C2676 C2677 1.392 . S
C2676 H2693 0.929 . S
C2677 C2675 1.380 . S
C2677 C2676 1.392 . S
C2677 H2694 0.929 . S
C2678 C2673 1.383 . S
C2678 C2674 1.389 . S
C2678 H2695 0.931 . S
C2679 O2664 1.266 1_564 S
C2679 O2665 1.248 . S
C2680 Tb2616 2.802 . S
C2680 O2660 1.264 . S
C2680 O2663 1.256 . S
C2680 C2673 1.496 . S
C2681 C2648 1.448 . S
C2681 H2658 0.930 . S
C2681 C2682 1.328 . S
C2682 C2653 1.427 . S
C2682 H2659 0.929 . S
C2682 C2681 1.328 . S
C2683 O2667 1.264 . S
C2683 O2668 1.243 . S
C2684 C2687 1.399 . S
C2684 C2688 1.383 1_565 S
C2684 C2691 1.494 1_565 S
C2685 C2686 1.399 1_545 S
C2685 C2688 1.389 . S
C2686 C2685 1.399 1_565 S
C2686 C2689 1.380 . S
C2686 H2696 0.929 . S
C2687 C2684 1.399 . S
C2687 C2689 1.392 . S
C2687 H2697 0.929 . S
C2688 C2684 1.383 1_545 S
C2688 C2685 1.389 . S
C2688 H2698 0.931 . S
C2689 C2686 1.380 . S
C2689 C2687 1.392 . S
C2689 H2699 0.929 . S
C2690 O2670 1.266 . S
C2690 O2671 1.248 . S
C2691 Tb2627 2.804 . S
C2691 O2666 1.270 . S
C2691 O2669 1.251 1_545 S
C2691 C2684 1.494 1_545 S
H2692 C2675 0.929 . S
H2693 C2676 0.929 . S
H2694 C2677 0.929 . S
H2695 C2678 0.931 . S
H2696 C2686 0.929 . S
H2697 C2687 0.929 . S
H2698 C2688 0.931 . S
H2699 C2689 0.929 . S
Tb2700 N2729 2.617 . S
Tb2700 N2735 2.572 . S
Tb2700 O2744 2.465 . S
Tb2700 O2745 2.387 . S
Tb2700 O2747 2.428 . S
Tb2700 O2748 2.308 . S
Tb2700 O2752 2.349 . S
Tb2700 O2755 2.393 . S
Tb2700 C2764 2.802 . S
C2701 N2702 1.379 . S
C2701 C2704 1.416 . S
C2701 C2708 1.424 . S
N2702 C2701 1.379 . S
N2702 C2705 1.334 . S
N2702 Tb2711 2.617 . S
C2703 C2705 1.390 . S
C2703 C2706 1.339 . S
C2703 H2723 0.930 . S
C2704 C2701 1.416 . S
C2704 C2706 1.416 . S
C2704 C2710 1.448 . S
C2705 N2702 1.334 . S
C2705 C2703 1.390 . S
C2705 H2716 0.930 . S
C2706 C2703 1.339 . S
C2706 C2704 1.416 . S
C2706 H2727 0.930 . S
C2707 C2708 1.413 . S
C2707 C2709 1.427 . S
C2707 C2713 1.416 . S
C2708 C2701 1.424 . S
C2708 C2707 1.413 . S
C2708 N2712 1.361 . S
C2709 C2707 1.427 . S
C2709 C2710 1.328 . S
C2709 H2724 0.929 . S
C2710 C2704 1.448 . S
C2710 C2709 1.328 . S
C2710 H2725 0.930 . S
Tb2711 N2702 2.617 . S
Tb2711 N2712 2.572 . S
Tb2711 O2746 2.349 . S
Tb2711 O2749 2.393 . S
Tb2711 O2750 2.465 . S
Tb2711 O2751 2.387 . S
Tb2711 O2753 2.428 . S
Tb2711 O2754 2.308 . S
Tb2711 C2775 2.802 . S
N2712 C2708 1.361 . S
N2712 Tb2711 2.572 . S
N2712 C2714 1.340 . S
C2713 C2707 1.416 . S
C2713 C2715 1.332 . S
C2713 H2721 0.931 . S
C2714 N2712 1.340 . S
C2714 C2715 1.407 . S
C2714 H2720 0.930 . S
C2715 C2713 1.332 . S
C2715 C2714 1.407 . S
C2715 H2717 0.929 . S
H2716 C2705 0.930 . S
H2717 C2715 0.929 . S
H2718 C2733 0.930 . S
H2719 C2740 0.929 . S
H2720 C2714 0.930 . S
H2721 C2713 0.931 . S
H2722 C2736 0.930 . S
H2723 C2703 0.930 . S
H2724 C2709 0.929 . S
H2725 C2710 0.930 . S
H2726 C2731 0.930 . S
H2727 C2706 0.930 . S
H2728 C2739 0.931 . S
N2729 Tb2700 2.617 . S
N2729 C2730 1.379 . S
N2729 C2733 1.334 . S
C2730 N2729 1.379 . S
C2730 C2732 1.416 . S
C2730 C2738 1.424 . S
C2731 H2726 0.930 . S
C2731 C2733 1.390 . S
C2731 C2734 1.339 . S
C2732 C2730 1.416 . S
C2732 C2734 1.416 . S
C2732 C2765 1.448 . S
C2733 H2718 0.930 . S
C2733 N2729 1.334 . S
C2733 C2731 1.390 . S
C2734 C2731 1.339 . S
C2734 C2732 1.416 . S
C2734 H2741 0.930 . S
N2735 Tb2700 2.572 . S
N2735 C2736 1.340 . S
N2735 C2738 1.361 . S
C2736 H2722 0.930 . S
C2736 N2735 1.340 . S
C2736 C2740 1.407 . S
C2737 C2738 1.413 . S
C2737 C2739 1.416 . S
C2737 C2766 1.427 . S
C2738 C2730 1.424 . S
C2738 N2735 1.361 . S
C2738 C2737 1.413 . S
C2739 H2728 0.931 . S
C2739 C2737 1.416 . S
C2739 C2740 1.332 . S
C2740 H2719 0.929 . S
C2740 C2736 1.407 . S
C2740 C2739 1.332 . S
H2741 C2734 0.930 . S
H2742 C2765 0.930 . S
H2743 C2766 0.929 . S
O2744 Tb2700 2.465 . S
O2744 C2764 1.264 . S
O2745 Tb2700 2.387 . S
O2745 C2756 1.264 . S
O2746 Tb2711 2.349 . S
O2746 C2756 1.243 . S
O2747 Tb2700 2.428 . S
O2747 C2764 1.256 . S
O2748 Tb2700 2.308 . S
O2748 C2763 1.266 . S
O2749 Tb2711 2.393 . S
O2749 C2763 1.248 . S
O2750 Tb2711 2.465 . S
O2750 C2775 1.264 . S
O2751 Tb2711 2.387 . S
O2751 C2767 1.264 . S
O2752 Tb2700 2.349 . S
O2752 C2767 1.243 . S
O2753 Tb2711 2.428 . S
O2753 C2775 1.256 . S
O2754 Tb2711 2.308 . S
O2754 C2774 1.266 . S
O2755 Tb2700 2.393 . S
O2755 C2774 1.248 . S
C2756 O2745 1.264 . S
C2756 O2746 1.243 . S
C2757 C2760 1.399 . S
C2757 C2762 1.383 . S
C2757 C2764 1.496 . S
C2758 C2759 1.399 . S
C2758 C2762 1.389 . S
C2759 C2758 1.399 . S
C2759 C2761 1.380 . S
C2759 H2776 0.929 . S
C2760 C2757 1.399 . S
C2760 C2761 1.392 . S
C2760 H2777 0.929 . S
C2761 C2759 1.380 . S
C2761 C2760 1.392 . S
C2761 H2778 0.929 . S
C2762 C2757 1.383 . S
C2762 C2758 1.389 . S
C2762 H2779 0.931 . S
C2763 O2748 1.266 . S
C2763 O2749 1.248 . S
C2764 Tb2700 2.802 . S
C2764 O2744 1.264 . S
C2764 O2747 1.256 . S
C2764 C2757 1.496 . S
C2765 C2732 1.448 . S
C2765 H2742 0.930 . S
C2765 C2766 1.328 . S
C2766 C2737 1.427 . S
C2766 H2743 0.929 . S
C2766 C2765 1.328 . S
C2767 O2751 1.264 . S
C2767 O2752 1.243 . S
C2768 C2771 1.399 . S
C2768 C2772 1.383 . S
C2768 C2775 1.496 . S
C2769 C2770 1.399 . S
C2769 C2772 1.389 . S
C2770 C2769 1.399 . S
C2770 C2773 1.380 . S
C2770 H2780 0.929 . S
C2771 C2768 1.399 . S
C2771 C2773 1.392 . S
C2771 H2781 0.929 . S
C2772 C2768 1.383 . S
C2772 C2769 1.389 . S
C2772 H2782 0.931 . S
C2773 C2770 1.380 . S
C2773 C2771 1.392 . S
C2773 H2783 0.929 . S
C2774 O2754 1.266 . S
C2774 O2755 1.248 . S
C2775 Tb2711 2.802 . S
C2775 O2750 1.264 . S
C2775 O2753 1.256 . S
C2775 C2768 1.496 . S
H2776 C2759 0.929 . S
H2777 C2760 0.929 . S
H2778 C2761 0.929 . S
H2779 C2762 0.931 . S
H2780 C2770 0.929 . S
H2781 C2771 0.929 . S
H2782 C2772 0.931 . S
H2783 C2773 0.929 . S
Tb2784 N2813 2.617 1_554 S
Tb2784 N2819 2.572 1_554 S
Tb2784 O2828 2.465 . S
Tb2784 O2829 2.387 1_554 S
Tb2784 O2831 2.428 . S
Tb2784 O2832 2.308 . S
Tb2784 O2836 2.349 . S
Tb2784 O2839 2.393 . S
Tb2784 C2848 2.802 . S
C2785 N2786 1.379 . S
C2785 C2788 1.416 . S
C2785 C2792 1.424 . S
N2786 C2785 1.379 . S
N2786 C2789 1.334 . S
N2786 Tb2795 2.617 . S
C2787 C2789 1.390 . S
C2787 C2790 1.339 . S
C2787 H2807 0.930 . S
C2788 C2785 1.416 . S
C2788 C2790 1.416 . S
C2788 C2794 1.448 . S
C2789 N2786 1.334 . S
C2789 C2787 1.390 . S
C2789 H2800 0.930 . S
C2790 C2787 1.339 . S
C2790 C2788 1.416 . S
C2790 H2811 0.930 . S
C2791 C2792 1.413 . S
C2791 C2793 1.427 . S
C2791 C2797 1.416 . S
C2792 C2785 1.424 . S
C2792 C2791 1.413 . S
C2792 N2796 1.361 . S
C2793 C2791 1.427 . S
C2793 C2794 1.328 . S
C2793 H2808 0.929 . S
C2794 C2788 1.448 . S
C2794 C2793 1.328 . S
C2794 H2809 0.930 . S
Tb2795 N2786 2.617 . S
Tb2795 N2796 2.572 . S
Tb2795 O2830 2.349 1_554 S
Tb2795 O2833 2.393 . S
Tb2795 O2834 2.465 . S
Tb2795 O2835 2.387 . S
Tb2795 O2837 2.428 . S
Tb2795 O2838 2.308 . S
Tb2795 C2859 2.802 . S
N2796 C2792 1.361 . S
N2796 Tb2795 2.572 . S
N2796 C2798 1.340 . S
C2797 C2791 1.416 . S
C2797 C2799 1.332 . S
C2797 H2805 0.931 . S
C2798 N2796 1.340 . S
C2798 C2799 1.407 . S
C2798 H2804 0.930 . S
C2799 C2797 1.332 . S
C2799 C2798 1.407 . S
C2799 H2801 0.929 . S
H2800 C2789 0.930 . S
H2801 C2799 0.929 . S
H2802 C2817 0.930 1_554 S
H2803 C2824 0.929 . S
H2804 C2798 0.930 . S
H2805 C2797 0.931 . S
H2806 C2820 0.919 1_554 S
H2807 C2787 0.930 . S
H2808 C2793 0.929 . S
H2809 C2794 0.930 . S
H2810 C2815 0.930 . S
H2811 C2790 0.930 . S
H2812 C2823 0.931 . S
N2813 Tb2784 2.617 1_556 S
N2813 C2814 1.379 . S
N2813 C2817 1.334 . S
C2814 N2813 1.379 . S
C2814 C2816 1.416 . S
C2814 C2822 1.424 . S
C2815 H2810 0.930 . S
C2815 C2817 1.390 . S
C2815 C2818 1.339 . S
C2816 C2814 1.416 . S
C2816 C2818 1.416 . S
C2816 C2849 1.448 . S
C2817 H2802 0.930 1_556 S
C2817 N2813 1.334 . S
C2817 C2815 1.390 . S
C2818 C2815 1.339 . S
C2818 C2816 1.416 . S
C2818 H2825 0.930 . S
N2819 Tb2784 2.572 1_556 S
N2819 C2820 1.340 . S
N2819 C2822 1.361 . S
C2820 H2806 0.919 1_556 S
C2820 N2819 1.340 . S
C2820 C2824 1.407 . S
C2821 C2822 1.413 . S
C2821 C2823 1.416 . S
C2821 C2850 1.427 . S
C2822 C2814 1.424 . S
C2822 N2819 1.361 . S
C2822 C2821 1.413 . S
C2823 H2812 0.931 . S
C2823 C2821 1.416 . S
C2823 C2824 1.332 . S
C2824 H2803 0.929 . S
C2824 C2820 1.407 . S
C2824 C2823 1.332 . S
H2825 C2818 0.930 . S
H2826 C2849 0.930 . S
H2827 C2850 0.929 . S
O2828 Tb2784 2.465 . S
O2828 C2848 1.264 . S
O2829 Tb2784 2.387 1_556 S
O2829 C2840 1.264 . S
O2830 Tb2795 2.349 1_556 S
O2830 C2840 1.243 . S
O2831 Tb2784 2.428 . S
O2831 C2848 1.256 . S
O2832 Tb2784 2.308 . S
O2832 C2847 1.266 . S
O2833 Tb2795 2.393 . S
O2833 C2847 1.248 . S
O2834 Tb2795 2.465 . S
O2834 C2859 1.264 . S
O2835 Tb2795 2.387 . S
O2835 C2851 1.264 . S
O2836 Tb2784 2.349 . S
O2836 C2851 1.243 . S
O2837 Tb2795 2.428 . S
O2837 C2859 1.256 . S
O2838 Tb2795 2.308 . S
O2838 C2858 1.266 . S
O2839 Tb2784 2.393 . S
O2839 C2858 1.248 . S
C2840 O2829 1.264 . S
C2840 O2830 1.243 . S
C2841 C2844 1.399 . S
C2841 C2846 1.383 . S
C2841 C2848 1.496 . S
C2842 C2843 1.399 . S
C2842 C2846 1.389 . S
C2843 C2842 1.399 . S
C2843 C2845 1.380 . S
C2843 H2860 0.929 . S
C2844 C2841 1.399 . S
C2844 C2845 1.392 . S
C2844 H2861 0.929 . S
C2845 C2843 1.380 . S
C2845 C2844 1.392 . S
C2845 H2862 0.929 . S
C2846 C2841 1.383 . S
C2846 C2842 1.389 . S
C2846 H2863 0.931 . S
C2847 O2832 1.266 . S
C2847 O2833 1.248 . S
C2848 Tb2784 2.802 . S
C2848 O2828 1.264 . S
C2848 O2831 1.256 . S
C2848 C2841 1.496 . S
C2849 C2816 1.448 . S
C2849 H2826 0.930 . S
C2849 C2850 1.328 . S
C2850 C2821 1.427 . S
C2850 H2827 0.929 . S
C2850 C2849 1.328 . S
C2851 O2835 1.264 . S
C2851 O2836 1.243 . S
C2852 C2855 1.399 . S
C2852 C2856 1.383 . S
C2852 C2859 1.496 1_556 S
C2853 C2854 1.399 . S
C2853 C2856 1.389 . S
C2854 C2853 1.399 . S
C2854 C2857 1.380 . S
C2854 H2864 0.929 . S
C2855 C2852 1.399 . S
C2855 C2857 1.392 . S
C2855 H2865 0.929 . S
C2856 C2852 1.383 . S
C2856 C2853 1.389 . S
C2856 H2866 0.931 . S
C2857 C2854 1.380 . S
C2857 C2855 1.392 . S
C2857 H2867 0.929 . S
C2858 O2838 1.266 . S
C2858 O2839 1.248 . S
C2859 Tb2795 2.802 . S
C2859 O2834 1.264 . S
C2859 O2837 1.256 . S
C2859 C2852 1.496 1_554 S
H2860 C2843 0.929 . S
H2861 C2844 0.929 . S
H2862 C2845 0.929 . S
H2863 C2846 0.931 . S
H2864 C2854 0.929 . S
H2865 C2855 0.929 . S
H2866 C2856 0.931 . S
H2867 C2857 0.929 . S
Tb2868 N2897 2.617 . S
Tb2868 N2903 2.572 . S
Tb2868 O2912 2.465 . S
Tb2868 O2913 2.387 . S
Tb2868 O2915 2.428 . S
Tb2868 O2916 2.308 . S
Tb2868 O2920 2.349 . S
Tb2868 O2923 2.393 . S
Tb2868 C2932 2.802 . S
C2869 N2870 1.379 . S
C2869 C2872 1.416 . S
C2869 C2876 1.424 . S
N2870 C2869 1.379 . S
N2870 C2873 1.334 . S
N2870 Tb2879 2.617 . S
C2871 C2873 1.390 . S
C2871 C2874 1.339 . S
C2871 H2891 0.930 . S
C2872 C2869 1.416 . S
C2872 C2874 1.416 . S
C2872 C2878 1.448 . S
C2873 N2870 1.334 . S
C2873 C2871 1.390 . S
C2873 H2884 0.930 . S
C2874 C2871 1.339 . S
C2874 C2872 1.416 . S
C2874 H2895 0.930 . S
C2875 C2876 1.413 . S
C2875 C2877 1.427 . S
C2875 C2881 1.416 . S
C2876 C2869 1.424 . S
C2876 C2875 1.413 . S
C2876 N2880 1.361 . S
C2877 C2875 1.427 . S
C2877 C2878 1.328 . S
C2877 H2892 0.929 . S
C2878 C2872 1.448 . S
C2878 C2877 1.328 . S
C2878 H2893 0.930 . S
Tb2879 N2870 2.617 . S
Tb2879 N2880 2.572 . S
Tb2879 O2914 2.349 . S
Tb2879 O2917 2.393 . S
Tb2879 O2918 2.465 . S
Tb2879 O2919 2.387 . S
Tb2879 O2921 2.428 . S
Tb2879 O2922 2.308 . S
Tb2879 C2943 2.802 . S
N2880 C2876 1.361 . S
N2880 Tb2879 2.572 . S
N2880 C2882 1.340 . S
C2881 C2875 1.416 . S
C2881 C2883 1.332 . S
C2881 H2889 0.931 . S
C2882 N2880 1.340 . S
C2882 C2883 1.407 . S
C2882 H2888 0.930 . S
C2883 C2881 1.332 . S
C2883 C2882 1.407 . S
C2883 H2885 0.929 . S
H2884 C2873 0.930 . S
H2885 C2883 0.929 . S
H2886 C2901 0.930 . S
H2887 C2908 0.929 . S
H2888 C2882 0.930 . S
H2889 C2881 0.931 . S
H2890 C2904 0.930 . S
H2891 C2871 0.930 . S
H2892 C2877 0.929 . S
H2893 C2878 0.930 . S
H2894 C2899 0.930 . S
H2895 C2874 0.930 . S
H2896 C2907 0.931 . S
N2897 Tb2868 2.617 . S
N2897 C2898 1.379 . S
N2897 C2901 1.334 . S
C2898 N2897 1.379 . S
C2898 C2900 1.416 . S
C2898 C2906 1.424 . S
C2899 H2894 0.930 . S
C2899 C2901 1.390 . S
C2899 C2902 1.339 . S
C2900 C2898 1.416 . S
C2900 C2902 1.416 . S
C2900 C2933 1.448 . S
C2901 H2886 0.930 . S
C2901 N2897 1.334 . S
C2901 C2899 1.390 . S
C2902 C2899 1.339 . S
C2902 C2900 1.416 . S
C2902 H2909 0.930 . S
N2903 Tb2868 2.572 . S
N2903 C2904 1.340 . S
N2903 C2906 1.361 . S
C2904 H2890 0.930 . S
C2904 N2903 1.340 . S
C2904 C2908 1.407 . S
C2905 C2906 1.413 . S
C2905 C2907 1.416 . S
C2905 C2934 1.427 . S
C2906 C2898 1.424 . S
C2906 N2903 1.361 . S
C2906 C2905 1.413 . S
C2907 H2896 0.931 . S
C2907 C2905 1.416 . S
C2907 C2908 1.332 . S
C2908 H2887 0.929 . S
C2908 C2904 1.407 . S
C2908 C2907 1.332 . S
H2909 C2902 0.930 . S
H2910 C2933 0.930 . S
H2911 C2934 0.929 . S
O2912 Tb2868 2.465 . S
O2912 C2932 1.264 . S
O2913 Tb2868 2.387 . S
O2913 C2924 1.264 . S
O2914 Tb2879 2.349 . S
O2914 C2924 1.243 . S
O2915 Tb2868 2.428 . S
O2915 C2932 1.256 . S
O2916 Tb2868 2.308 . S
O2916 C2931 1.266 . S
O2917 Tb2879 2.393 . S
O2917 C2931 1.248 . S
O2918 Tb2879 2.465 . S
O2918 C2943 1.264 . S
O2919 Tb2879 2.387 . S
O2919 C2935 1.264 . S
O2920 Tb2868 2.349 . S
O2920 C2935 1.243 . S
O2921 Tb2879 2.428 . S
O2921 C2943 1.256 . S
O2922 Tb2879 2.308 . S
O2922 C2942 1.266 . S
O2923 Tb2868 2.393 . S
O2923 C2942 1.248 . S
C2924 O2913 1.264 . S
C2924 O2914 1.243 . S
C2925 C2928 1.399 . S
C2925 C2930 1.383 . S
C2925 C2932 1.496 . S
C2926 C2927 1.399 . S
C2926 C2930 1.389 . S
C2927 C2926 1.399 . S
C2927 C2929 1.380 . S
C2927 H2944 0.929 . S
C2928 C2925 1.399 . S
C2928 C2929 1.392 . S
C2928 H2945 0.929 . S
C2929 C2927 1.380 . S
C2929 C2928 1.392 . S
C2929 H2946 0.929 . S
C2930 C2925 1.383 . S
C2930 C2926 1.389 . S
C2930 H2947 0.931 . S
C2931 O2916 1.266 . S
C2931 O2917 1.248 . S
C2932 Tb2868 2.802 . S
C2932 O2912 1.264 . S
C2932 O2915 1.256 . S
C2932 C2925 1.496 . S
C2933 C2900 1.448 . S
C2933 H2910 0.930 . S
C2933 C2934 1.328 . S
C2934 C2905 1.427 . S
C2934 H2911 0.929 . S
C2934 C2933 1.328 . S
C2935 O2919 1.264 . S
C2935 O2920 1.243 . S
C2936 C2939 1.399 . S
C2936 C2940 1.383 . S
C2936 C2943 1.496 . S
C2937 C2938 1.399 . S
C2937 C2940 1.389 . S
C2938 C2937 1.399 . S
C2938 C2941 1.380 . S
C2938 H2948 0.929 . S
C2939 C2936 1.399 . S
C2939 C2941 1.392 . S
C2939 H2949 0.929 . S
C2940 C2936 1.383 . S
C2940 C2937 1.389 . S
C2940 H2950 0.931 . S
C2941 C2938 1.380 . S
C2941 C2939 1.392 . S
C2941 H2951 0.929 . S
C2942 O2922 1.266 . S
C2942 O2923 1.248 . S
C2943 Tb2879 2.802 . S
C2943 O2918 1.264 . S
C2943 O2921 1.256 . S
C2943 C2936 1.496 . S
H2944 C2927 0.929 . S
H2945 C2928 0.929 . S
H2946 C2929 0.929 . S
H2947 C2930 0.931 . S
H2948 C2938 0.929 . S
H2949 C2939 0.929 . S
H2950 C2940 0.931 . S
H2951 C2941 0.929 . S
Tb2952 N2981 2.617 1_455 S
Tb2952 N2987 2.572 1_455 S
Tb2952 O2996 2.465 . S
Tb2952 O2997 2.387 1_455 S
Tb2952 O2999 2.428 . S
Tb2952 O3000 2.308 . S
Tb2952 O3004 2.349 . S
Tb2952 O3007 2.393 . S
Tb2952 C3016 2.802 . S
C2953 N2954 1.379 . S
C2953 C2956 1.416 . S
C2953 C2960 1.424 . S
N2954 C2953 1.379 . S
N2954 C2957 1.334 . S
N2954 Tb2963 2.617 . S
C2955 C2957 1.390 . S
C2955 C2958 1.339 . S
C2955 H2975 0.930 . S
C2956 C2953 1.416 . S
C2956 C2958 1.416 . S
C2956 C2962 1.448 . S
C2957 N2954 1.334 . S
C2957 C2955 1.390 . S
C2957 H2968 0.930 . S
C2958 C2955 1.339 . S
C2958 C2956 1.416 . S
C2958 H2979 0.930 . S
C2959 C2960 1.413 . S
C2959 C2961 1.427 . S
C2959 C2965 1.416 . S
C2960 C2953 1.424 . S
C2960 C2959 1.413 . S
C2960 N2964 1.361 . S
C2961 C2959 1.427 . S
C2961 C2962 1.328 . S
C2961 H2976 0.929 . S
C2962 C2956 1.448 . S
C2962 C2961 1.328 . S
C2962 H2977 0.930 . S
Tb2963 N2954 2.617 . S
Tb2963 N2964 2.572 . S
Tb2963 O2998 2.349 1_455 S
Tb2963 O3001 2.393 . S
Tb2963 O3002 2.465 . S
Tb2963 O3003 2.387 . S
Tb2963 O3005 2.428 . S
Tb2963 O3006 2.308 . S
Tb2963 C3027 2.802 . S
N2964 C2960 1.361 . S
N2964 Tb2963 2.572 . S
N2964 C2966 1.340 . S
C2965 C2959 1.416 . S
C2965 C2967 1.332 . S
C2965 H2973 0.931 . S
C2966 N2964 1.340 . S
C2966 C2967 1.407 . S
C2966 H2972 0.930 . S
C2967 C2965 1.332 . S
C2967 C2966 1.407 . S
C2967 H2969 0.929 . S
H2968 C2957 0.930 . S
H2969 C2967 0.929 . S
H2970 C2985 0.913 1_455 S
H2971 C2992 0.929 . S
H2972 C2966 0.930 . S
H2973 C2965 0.931 . S
H2974 C2988 0.930 1_455 S
H2975 C2955 0.930 . S
H2976 C2961 0.929 . S
H2977 C2962 0.930 . S
H2978 C2983 0.930 . S
H2979 C2958 0.930 . S
H2980 C2991 0.931 . S
N2981 Tb2952 2.617 1_655 S
N2981 C2982 1.379 . S
N2981 C2985 1.330 . S
C2982 N2981 1.379 . S
C2982 C2984 1.416 . S
C2982 C2990 1.424 . S
C2983 H2978 0.930 . S
C2983 C2985 1.411 . S
C2983 C2986 1.339 . S
C2984 C2982 1.416 . S
C2984 C2986 1.416 . S
C2984 C3017 1.448 . S
C2985 H2970 0.913 1_655 S
C2985 N2981 1.330 . S
C2985 C2983 1.411 . S
C2986 C2983 1.339 . S
C2986 C2984 1.416 . S
C2986 H2993 0.930 . S
N2987 Tb2952 2.572 1_655 S
N2987 C2988 1.340 . S
N2987 C2990 1.361 . S
C2988 H2974 0.930 1_655 S
C2988 N2987 1.340 . S
C2988 C2992 1.407 . S
C2989 C2990 1.413 . S
C2989 C2991 1.416 . S
C2989 C3018 1.427 . S
C2990 C2982 1.424 . S
C2990 N2987 1.361 . S
C2990 C2989 1.413 . S
C2991 H2980 0.931 . S
C2991 C2989 1.416 . S
C2991 C2992 1.332 . S
C2992 H2971 0.929 . S
C2992 C2988 1.407 . S
C2992 C2991 1.332 . S
H2993 C2986 0.930 . S
H2994 C3017 0.930 . S
H2995 C3018 0.929 . S
O2996 Tb2952 2.465 . S
O2996 C3016 1.264 . S
O2997 Tb2952 2.387 1_655 S
O2997 C3008 1.264 . S
O2998 Tb2963 2.349 1_655 S
O2998 C3008 1.243 . S
O2999 Tb2952 2.428 . S
O2999 C3016 1.256 . S
O3000 Tb2952 2.308 . S
O3000 C3015 1.266 . S
O3001 Tb2963 2.393 . S
O3001 C3015 1.248 . S
O3002 Tb2963 2.465 . S
O3002 C3027 1.264 . S
O3003 Tb2963 2.387 . S
O3003 C3019 1.264 . S
O3004 Tb2952 2.349 . S
O3004 C3019 1.243 . S
O3005 Tb2963 2.428 . S
O3005 C3027 1.256 . S
O3006 Tb2963 2.308 . S
O3006 C3026 1.266 . S
O3007 Tb2952 2.393 . S
O3007 C3026 1.248 . S
C3008 O2997 1.264 . S
C3008 O2998 1.243 . S
C3009 C3012 1.399 . S
C3009 C3014 1.383 . S
C3009 C3016 1.496 . S
C3010 C3011 1.399 . S
C3010 C3014 1.389 . S
C3011 C3010 1.399 . S
C3011 C3013 1.380 . S
C3011 H3028 0.929 . S
C3012 C3009 1.399 . S
C3012 C3013 1.392 . S
C3012 H3029 0.929 . S
C3013 C3011 1.380 . S
C3013 C3012 1.392 . S
C3013 H3030 0.929 . S
C3014 C3009 1.383 . S
C3014 C3010 1.389 . S
C3014 H3031 0.931 . S
C3015 O3000 1.266 . S
C3015 O3001 1.248 . S
C3016 Tb2952 2.802 . S
C3016 O2996 1.264 . S
C3016 O2999 1.256 . S
C3016 C3009 1.496 . S
C3017 C2984 1.448 . S
C3017 H2994 0.930 . S
C3017 C3018 1.328 . S
C3018 C2989 1.427 . S
C3018 H2995 0.929 . S
C3018 C3017 1.328 . S
C3019 O3003 1.264 . S
C3019 O3004 1.243 . S
C3020 C3023 1.399 . S
C3020 C3024 1.383 . S
C3020 C3027 1.496 1_655 S
C3021 C3022 1.399 . S
C3021 C3024 1.389 . S
C3022 C3021 1.399 . S
C3022 C3025 1.380 . S
C3022 H3032 0.929 . S
C3023 C3020 1.399 . S
C3023 C3025 1.392 . S
C3023 H3033 0.929 . S
C3024 C3020 1.383 . S
C3024 C3021 1.389 . S
C3024 H3034 0.931 . S
C3025 C3022 1.380 . S
C3025 C3023 1.392 . S
C3025 H3035 0.929 . S
C3026 O3006 1.266 . S
C3026 O3007 1.248 . S
C3027 Tb2963 2.802 . S
C3027 O3002 1.264 . S
C3027 O3005 1.256 . S
C3027 C3020 1.496 1_455 S
H3028 C3011 0.929 . S
H3029 C3012 0.929 . S
H3030 C3013 0.929 . S
H3031 C3014 0.931 . S
H3032 C3022 0.929 . S
H3033 C3023 0.929 . S
H3034 C3024 0.931 . S
H3035 C3025 0.929 . S
Tb3036 N3065 2.617 . S
Tb3036 N3071 2.572 . S
Tb3036 O3080 2.465 . S
Tb3036 O3081 2.387 . S
Tb3036 O3083 2.428 . S
Tb3036 O3084 2.308 . S
Tb3036 O3088 2.349 . S
Tb3036 O3091 2.393 . S
Tb3036 C3100 2.802 . S
C3037 N3038 1.379 . S
C3037 C3040 1.416 . S
C3037 C3044 1.424 . S
N3038 C3037 1.379 . S
N3038 C3041 1.334 . S
N3038 Tb3047 2.617 . S
C3039 C3041 1.390 . S
C3039 C3042 1.339 . S
C3039 H3059 0.930 . S
C3040 C3037 1.416 . S
C3040 C3042 1.416 . S
C3040 C3046 1.448 . S
C3041 N3038 1.334 . S
C3041 C3039 1.390 . S
C3041 H3052 0.930 . S
C3042 C3039 1.339 . S
C3042 C3040 1.416 . S
C3042 H3063 0.930 . S
C3043 C3044 1.413 . S
C3043 C3045 1.427 . S
C3043 C3049 1.416 . S
C3044 C3037 1.424 . S
C3044 C3043 1.413 . S
C3044 N3048 1.361 . S
C3045 C3043 1.427 . S
C3045 C3046 1.328 . S
C3045 H3060 0.929 . S
C3046 C3040 1.448 . S
C3046 C3045 1.328 . S
C3046 H3061 0.930 . S
Tb3047 N3038 2.617 . S
Tb3047 N3048 2.572 . S
Tb3047 O3082 2.349 . S
Tb3047 O3085 2.393 . S
Tb3047 O3086 2.465 . S
Tb3047 O3087 2.387 . S
Tb3047 O3089 2.428 . S
Tb3047 O3090 2.308 . S
Tb3047 C3111 2.802 . S
N3048 C3044 1.361 . S
N3048 Tb3047 2.572 . S
N3048 C3050 1.340 . S
C3049 C3043 1.416 . S
C3049 C3051 1.332 . S
C3049 H3057 0.931 . S
C3050 N3048 1.340 . S
C3050 C3051 1.407 . S
C3050 H3056 0.930 . S
C3051 C3049 1.332 . S
C3051 C3050 1.407 . S
C3051 H3053 0.929 . S
H3052 C3041 0.930 . S
H3053 C3051 0.929 . S
H3054 C3069 0.930 . S
H3055 C3076 0.929 . S
H3056 C3050 0.930 . S
H3057 C3049 0.931 . S
H3058 C3072 0.930 . S
H3059 C3039 0.930 . S
H3060 C3045 0.929 . S
H3061 C3046 0.930 . S
H3062 C3067 0.930 . S
H3063 C3042 0.930 . S
H3064 C3075 0.931 . S
N3065 Tb3036 2.617 . S
N3065 C3066 1.379 . S
N3065 C3069 1.334 . S
C3066 N3065 1.379 . S
C3066 C3068 1.416 . S
C3066 C3074 1.424 . S
C3067 H3062 0.930 . S
C3067 C3069 1.390 . S
C3067 C3070 1.339 . S
C3068 C3066 1.416 . S
C3068 C3070 1.416 . S
C3068 C3101 1.448 . S
C3069 H3054 0.930 . S
C3069 N3065 1.334 . S
C3069 C3067 1.390 . S
C3070 C3067 1.339 . S
C3070 C3068 1.416 . S
C3070 H3077 0.930 . S
N3071 Tb3036 2.572 . S
N3071 C3072 1.340 . S
N3071 C3074 1.361 . S
C3072 H3058 0.930 . S
C3072 N3071 1.340 . S
C3072 C3076 1.407 . S
C3073 C3074 1.413 . S
C3073 C3075 1.416 . S
C3073 C3102 1.427 . S
C3074 C3066 1.424 . S
C3074 N3071 1.361 . S
C3074 C3073 1.413 . S
C3075 H3064 0.931 . S
C3075 C3073 1.416 . S
C3075 C3076 1.332 . S
C3076 H3055 0.929 . S
C3076 C3072 1.407 . S
C3076 C3075 1.332 . S
H3077 C3070 0.930 . S
H3078 C3101 0.930 . S
H3079 C3102 0.929 . S
O3080 Tb3036 2.465 . S
O3080 C3100 1.264 . S
O3081 Tb3036 2.387 . S
O3081 C3092 1.264 . S
O3082 Tb3047 2.349 . S
O3082 C3092 1.243 . S
O3083 Tb3036 2.428 . S
O3083 C3100 1.256 . S
O3084 Tb3036 2.308 . S
O3084 C3099 1.266 . S
O3085 Tb3047 2.393 . S
O3085 C3099 1.248 . S
O3086 Tb3047 2.465 . S
O3086 C3111 1.264 . S
O3087 Tb3047 2.387 . S
O3087 C3103 1.264 . S
O3088 Tb3036 2.349 . S
O3088 C3103 1.243 . S
O3089 Tb3047 2.428 . S
O3089 C3111 1.256 . S
O3090 Tb3047 2.308 . S
O3090 C3110 1.266 . S
O3091 Tb3036 2.393 . S
O3091 C3110 1.248 . S
C3092 O3081 1.264 . S
C3092 O3082 1.243 . S
C3093 C3096 1.399 . S
C3093 C3098 1.383 . S
C3093 C3100 1.496 . S
C3094 C3095 1.399 . S
C3094 C3098 1.389 . S
C3095 C3094 1.399 . S
C3095 C3097 1.380 . S
C3095 H3112 0.929 . S
C3096 C3093 1.399 . S
C3096 C3097 1.392 . S
C3096 H3113 0.929 . S
C3097 C3095 1.380 . S
C3097 C3096 1.392 . S
C3097 H3114 0.929 . S
C3098 C3093 1.383 . S
C3098 C3094 1.389 . S
C3098 H3115 0.931 . S
C3099 O3084 1.266 . S
C3099 O3085 1.248 . S
C3100 Tb3036 2.802 . S
C3100 O3080 1.264 . S
C3100 O3083 1.256 . S
C3100 C3093 1.496 . S
C3101 C3068 1.448 . S
C3101 H3078 0.930 . S
C3101 C3102 1.328 . S
C3102 C3073 1.427 . S
C3102 H3079 0.929 . S
C3102 C3101 1.328 . S
C3103 O3087 1.264 . S
C3103 O3088 1.243 . S
C3104 C3107 1.399 . S
C3104 C3108 1.383 . S
C3104 C3111 1.496 . S
C3105 C3106 1.399 . S
C3105 C3108 1.389 . S
C3106 C3105 1.399 . S
C3106 C3109 1.380 . S
C3106 H3116 0.929 . S
C3107 C3104 1.399 . S
C3107 C3109 1.392 . S
C3107 H3117 0.929 . S
C3108 C3104 1.383 . S
C3108 C3105 1.389 . S
C3108 H3118 0.931 . S
C3109 C3106 1.380 . S
C3109 C3107 1.392 . S
C3109 H3119 0.929 . S
C3110 O3090 1.266 . S
C3110 O3091 1.248 . S
C3111 Tb3047 2.802 . S
C3111 O3086 1.264 . S
C3111 O3089 1.256 . S
C3111 C3104 1.496 . S
H3112 C3095 0.929 . S
H3113 C3096 0.929 . S
H3114 C3097 0.929 . S
H3115 C3098 0.931 . S
H3116 C3106 0.929 . S
H3117 C3107 0.929 . S
H3118 C3108 0.931 . S
H3119 C3109 0.929 . S
Tb3120 N3149 2.617 . S
Tb3120 N3155 2.572 . S
Tb3120 O3164 2.465 . S
Tb3120 O3165 2.387 . S
Tb3120 O3167 2.428 . S
Tb3120 O3168 2.308 . S
Tb3120 O3172 2.349 . S
Tb3120 O3175 2.393 . S
Tb3120 C3184 2.802 . S
C3121 N3122 1.379 . S
C3121 C3124 1.416 . S
C3121 C3128 1.424 . S
N3122 C3121 1.379 . S
N3122 C3125 1.334 . S
N3122 Tb3131 2.617 . S
C3123 C3125 1.390 . S
C3123 C3126 1.339 . S
C3123 H3143 0.930 . S
C3124 C3121 1.416 . S
C3124 C3126 1.416 . S
C3124 C3130 1.448 . S
C3125 N3122 1.334 . S
C3125 C3123 1.390 . S
C3125 H3136 0.930 . S
C3126 C3123 1.339 . S
C3126 C3124 1.416 . S
C3126 H3147 0.930 . S
C3127 C3128 1.413 . S
C3127 C3129 1.427 . S
C3127 C3133 1.416 . S
C3128 C3121 1.424 . S
C3128 C3127 1.413 . S
C3128 N3132 1.361 . S
C3129 C3127 1.427 . S
C3129 C3130 1.328 . S
C3129 H3144 0.929 . S
C3130 C3124 1.448 . S
C3130 C3129 1.328 . S
C3130 H3145 0.930 . S
Tb3131 N3122 2.617 . S
Tb3131 N3132 2.572 . S
Tb3131 O3166 2.349 . S
Tb3131 O3169 2.393 . S
Tb3131 O3170 2.465 . S
Tb3131 O3171 2.387 . S
Tb3131 O3173 2.428 . S
Tb3131 O3174 2.308 . S
Tb3131 C3195 2.802 . S
N3132 C3128 1.361 . S
N3132 Tb3131 2.572 . S
N3132 C3134 1.340 . S
C3133 C3127 1.416 . S
C3133 C3135 1.332 . S
C3133 H3141 0.931 . S
C3134 N3132 1.340 . S
C3134 C3135 1.407 . S
C3134 H3140 0.930 . S
C3135 C3133 1.332 . S
C3135 C3134 1.407 . S
C3135 H3137 0.929 . S
H3136 C3125 0.930 . S
H3137 C3135 0.929 . S
H3138 C3153 0.930 . S
H3139 C3160 0.929 . S
H3140 C3134 0.930 . S
H3141 C3133 0.931 . S
H3142 C3156 0.930 . S
H3143 C3123 0.930 . S
H3144 C3129 0.929 . S
H3145 C3130 0.930 . S
H3146 C3151 0.930 . S
H3147 C3126 0.930 . S
H3148 C3159 0.931 . S
N3149 Tb3120 2.617 . S
N3149 C3150 1.379 . S
N3149 C3153 1.334 . S
C3150 N3149 1.379 . S
C3150 C3152 1.416 . S
C3150 C3158 1.424 . S
C3151 H3146 0.930 . S
C3151 C3153 1.390 . S
C3151 C3154 1.339 . S
C3152 C3150 1.416 . S
C3152 C3154 1.416 . S
C3152 C3185 1.448 . S
C3153 H3138 0.930 . S
C3153 N3149 1.334 . S
C3153 C3151 1.390 . S
C3154 C3151 1.339 . S
C3154 C3152 1.416 . S
C3154 H3161 0.930 . S
N3155 Tb3120 2.572 . S
N3155 C3156 1.340 . S
N3155 C3158 1.361 . S
C3156 H3142 0.930 . S
C3156 N3155 1.340 . S
C3156 C3160 1.407 . S
C3157 C3158 1.413 . S
C3157 C3159 1.416 . S
C3157 C3186 1.427 . S
C3158 C3150 1.424 . S
C3158 N3155 1.361 . S
C3158 C3157 1.413 . S
C3159 H3148 0.931 . S
C3159 C3157 1.416 . S
C3159 C3160 1.332 . S
C3160 H3139 0.929 . S
C3160 C3156 1.407 . S
C3160 C3159 1.332 . S
H3161 C3154 0.930 . S
H3162 C3185 0.930 . S
H3163 C3186 0.929 . S
O3164 Tb3120 2.465 . S
O3164 C3184 1.264 . S
O3165 Tb3120 2.387 . S
O3165 C3176 1.264 . S
O3166 Tb3131 2.349 . S
O3166 C3176 1.243 . S
O3167 Tb3120 2.428 . S
O3167 C3184 1.256 . S
O3168 Tb3120 2.308 . S
O3168 C3183 1.266 . S
O3169 Tb3131 2.393 . S
O3169 C3183 1.248 . S
O3170 Tb3131 2.465 . S
O3170 C3195 1.264 . S
O3171 Tb3131 2.387 . S
O3171 C3187 1.264 . S
O3172 Tb3120 2.349 . S
O3172 C3187 1.243 . S
O3173 Tb3131 2.428 . S
O3173 C3195 1.256 . S
O3174 Tb3131 2.308 . S
O3174 C3194 1.266 . S
O3175 Tb3120 2.393 . S
O3175 C3194 1.248 . S
C3176 O3165 1.264 . S
C3176 O3166 1.243 . S
C3177 C3180 1.399 . S
C3177 C3182 1.383 . S
C3177 C3184 1.496 . S
C3178 C3179 1.399 . S
C3178 C3182 1.389 . S
C3179 C3178 1.399 . S
C3179 C3181 1.380 . S
C3179 H3196 0.929 . S
C3180 C3177 1.399 . S
C3180 C3181 1.392 . S
C3180 H3197 0.929 . S
C3181 C3179 1.380 . S
C3181 C3180 1.392 . S
C3181 H3198 0.929 . S
C3182 C3177 1.383 . S
C3182 C3178 1.389 . S
C3182 H3199 0.931 . S
C3183 O3168 1.266 . S
C3183 O3169 1.248 . S
C3184 Tb3120 2.802 . S
C3184 O3164 1.264 . S
C3184 O3167 1.256 . S
C3184 C3177 1.496 . S
C3185 C3152 1.448 . S
C3185 H3162 0.930 . S
C3185 C3186 1.328 . S
C3186 C3157 1.427 . S
C3186 H3163 0.929 . S
C3186 C3185 1.328 . S
C3187 O3171 1.264 . S
C3187 O3172 1.243 . S
C3188 C3191 1.399 . S
C3188 C3192 1.383 . S
C3188 C3195 1.496 . S
C3189 C3190 1.399 . S
C3189 C3192 1.389 . S
C3190 C3189 1.399 . S
C3190 C3193 1.380 . S
C3190 H3200 0.929 . S
C3191 C3188 1.399 . S
C3191 C3193 1.392 . S
C3191 H3201 0.929 . S
C3192 C3188 1.383 . S
C3192 C3189 1.389 . S
C3192 H3202 0.931 . S
C3193 C3190 1.380 . S
C3193 C3191 1.392 . S
C3193 H3203 0.929 . S
C3194 O3174 1.266 . S
C3194 O3175 1.248 . S
C3195 Tb3131 2.802 . S
C3195 O3170 1.264 . S
C3195 O3173 1.256 . S
C3195 C3188 1.496 . S
H3196 C3179 0.929 . S
H3197 C3180 0.929 . S
H3198 C3181 0.929 . S
H3199 C3182 0.931 . S
H3200 C3190 0.929 . S
H3201 C3191 0.929 . S
H3202 C3192 0.931 . S
H3203 C3193 0.929 . S
Tb3204 N3233 2.617 . S
Tb3204 N3239 2.572 . S
Tb3204 O3248 2.465 . S
Tb3204 O3249 2.387 . S
Tb3204 O3251 2.428 . S
Tb3204 O3252 2.308 . S
Tb3204 O3256 2.349 . S
Tb3204 O3259 2.393 . S
Tb3204 C3268 2.802 . S
C3205 N3206 1.379 . S
C3205 C3208 1.416 . S
C3205 C3212 1.424 . S
N3206 C3205 1.379 . S
N3206 C3209 1.334 . S
N3206 Tb3215 2.617 . S
C3207 C3209 1.390 . S
C3207 C3210 1.339 . S
C3207 H3227 0.930 . S
C3208 C3205 1.416 . S
C3208 C3210 1.416 . S
C3208 C3214 1.448 . S
C3209 N3206 1.334 . S
C3209 C3207 1.390 . S
C3209 H3220 0.930 . S
C3210 C3207 1.339 . S
C3210 C3208 1.416 . S
C3210 H3231 0.930 . S
C3211 C3212 1.413 . S
C3211 C3213 1.427 . S
C3211 C3217 1.416 . S
C3212 C3205 1.424 . S
C3212 C3211 1.413 . S
C3212 N3216 1.361 . S
C3213 C3211 1.427 . S
C3213 C3214 1.328 . S
C3213 H3228 0.929 . S
C3214 C3208 1.448 . S
C3214 C3213 1.328 . S
C3214 H3229 0.930 . S
Tb3215 N3206 2.617 . S
Tb3215 N3216 2.572 . S
Tb3215 O3250 2.349 . S
Tb3215 O3253 2.393 . S
Tb3215 O3254 2.465 . S
Tb3215 O3255 2.387 . S
Tb3215 O3257 2.428 . S
Tb3215 O3258 2.308 . S
Tb3215 C3279 2.802 . S
N3216 C3212 1.361 . S
N3216 Tb3215 2.572 . S
N3216 C3218 1.340 . S
C3217 C3211 1.416 . S
C3217 C3219 1.332 . S
C3217 H3225 0.931 . S
C3218 N3216 1.340 . S
C3218 C3219 1.407 . S
C3218 H3224 0.930 . S
C3219 C3217 1.332 . S
C3219 C3218 1.407 . S
C3219 H3221 0.929 . S
H3220 C3209 0.930 . S
H3221 C3219 0.929 . S
H3222 C3237 0.930 . S
H3223 C3244 0.929 . S
H3224 C3218 0.930 . S
H3225 C3217 0.931 . S
H3226 C3240 0.930 . S
H3227 C3207 0.930 . S
H3228 C3213 0.929 . S
H3229 C3214 0.930 . S
H3230 C3235 0.930 . S
H3231 C3210 0.930 . S
H3232 C3243 0.931 . S
N3233 Tb3204 2.617 . S
N3233 C3234 1.379 . S
N3233 C3237 1.334 . S
C3234 N3233 1.379 . S
C3234 C3236 1.416 . S
C3234 C3242 1.424 . S
C3235 H3230 0.930 . S
C3235 C3237 1.390 . S
C3235 C3238 1.339 . S
C3236 C3234 1.416 . S
C3236 C3238 1.416 . S
C3236 C3269 1.448 . S
C3237 H3222 0.930 . S
C3237 N3233 1.334 . S
C3237 C3235 1.390 . S
C3238 C3235 1.339 . S
C3238 C3236 1.416 . S
C3238 H3245 0.930 . S
N3239 Tb3204 2.572 . S
N3239 C3240 1.340 . S
N3239 C3242 1.361 . S
C3240 H3226 0.930 . S
C3240 N3239 1.340 . S
C3240 C3244 1.407 . S
C3241 C3242 1.413 . S
C3241 C3243 1.416 . S
C3241 C3270 1.427 . S
C3242 C3234 1.424 . S
C3242 N3239 1.361 . S
C3242 C3241 1.413 . S
C3243 H3232 0.931 . S
C3243 C3241 1.416 . S
C3243 C3244 1.332 . S
C3244 H3223 0.929 . S
C3244 C3240 1.407 . S
C3244 C3243 1.332 . S
H3245 C3238 0.930 . S
H3246 C3269 0.930 . S
H3247 C3270 0.929 . S
O3248 Tb3204 2.465 . S
O3248 C3268 1.264 . S
O3249 Tb3204 2.387 . S
O3249 C3260 1.264 . S
O3250 Tb3215 2.349 . S
O3250 C3260 1.243 . S
O3251 Tb3204 2.428 . S
O3251 C3268 1.256 . S
O3252 Tb3204 2.308 . S
O3252 C3267 1.266 . S
O3253 Tb3215 2.393 . S
O3253 C3267 1.248 . S
O3254 Tb3215 2.465 . S
O3254 C3279 1.264 . S
O3255 Tb3215 2.387 . S
O3255 C3271 1.264 . S
O3256 Tb3204 2.349 . S
O3256 C3271 1.243 . S
O3257 Tb3215 2.428 . S
O3257 C3279 1.256 . S
O3258 Tb3215 2.308 . S
O3258 C3278 1.266 . S
O3259 Tb3204 2.393 . S
O3259 C3278 1.248 . S
C3260 O3249 1.264 . S
C3260 O3250 1.243 . S
C3261 C3264 1.399 . S
C3261 C3266 1.383 . S
C3261 C3268 1.496 . S
C3262 C3263 1.399 . S
C3262 C3266 1.389 . S
C3263 C3262 1.399 . S
C3263 C3265 1.380 . S
C3263 H3280 0.929 . S
C3264 C3261 1.399 . S
C3264 C3265 1.392 . S
C3264 H3281 0.929 . S
C3265 C3263 1.380 . S
C3265 C3264 1.392 . S
C3265 H3282 0.929 . S
C3266 C3261 1.383 . S
C3266 C3262 1.389 . S
C3266 H3283 0.931 . S
C3267 O3252 1.266 . S
C3267 O3253 1.248 . S
C3268 Tb3204 2.802 . S
C3268 O3248 1.264 . S
C3268 O3251 1.256 . S
C3268 C3261 1.496 . S
C3269 C3236 1.448 . S
C3269 H3246 0.930 . S
C3269 C3270 1.328 . S
C3270 C3241 1.427 . S
C3270 H3247 0.929 . S
C3270 C3269 1.328 . S
C3271 O3255 1.264 . S
C3271 O3256 1.243 . S
C3272 C3275 1.399 . S
C3272 C3276 1.383 . S
C3272 C3279 1.496 . S
C3273 C3274 1.399 . S
C3273 C3276 1.389 . S
C3274 C3273 1.399 . S
C3274 C3277 1.380 . S
C3274 H3284 0.929 . S
C3275 C3272 1.399 . S
C3275 C3277 1.392 . S
C3275 H3285 0.929 . S
C3276 C3272 1.383 . S
C3276 C3273 1.389 . S
C3276 H3286 0.931 . S
C3277 C3274 1.380 . S
C3277 C3275 1.392 . S
C3277 H3287 0.929 . S
C3278 O3258 1.266 . S
C3278 O3259 1.248 . S
C3279 Tb3215 2.802 . S
C3279 O3254 1.264 . S
C3279 O3257 1.256 . S
C3279 C3272 1.496 . S
H3280 C3263 0.929 . S
H3281 C3264 0.929 . S
H3282 C3265 0.929 . S
H3283 C3266 0.931 . S
H3284 C3274 0.929 . S
H3285 C3275 0.929 . S
H3286 C3276 0.931 . S
H3287 C3277 0.929 . S
Tb3288 N3317 2.617 . S
Tb3288 N3323 2.572 . S
Tb3288 O3332 2.465 . S
Tb3288 O3333 2.387 . S
Tb3288 O3335 2.428 . S
Tb3288 O3336 2.308 . S
Tb3288 O3340 2.349 . S
Tb3288 O3343 2.393 . S
Tb3288 C3352 2.802 . S
C3289 N3290 1.379 . S
C3289 C3292 1.416 . S
C3289 C3296 1.424 . S
N3290 C3289 1.379 . S
N3290 C3293 1.334 . S
N3290 Tb3299 2.617 . S
C3291 C3293 1.390 . S
C3291 C3294 1.339 . S
C3291 H3311 0.930 . S
C3292 C3289 1.416 . S
C3292 C3294 1.416 . S
C3292 C3298 1.448 . S
C3293 N3290 1.334 . S
C3293 C3291 1.390 . S
C3293 H3304 0.930 . S
C3294 C3291 1.339 . S
C3294 C3292 1.416 . S
C3294 H3315 0.930 . S
C3295 C3296 1.413 . S
C3295 C3297 1.427 . S
C3295 C3301 1.416 . S
C3296 C3289 1.424 . S
C3296 C3295 1.413 . S
C3296 N3300 1.361 . S
C3297 C3295 1.427 . S
C3297 C3298 1.328 . S
C3297 H3312 0.929 . S
C3298 C3292 1.448 . S
C3298 C3297 1.328 . S
C3298 H3313 0.930 . S
Tb3299 N3290 2.617 . S
Tb3299 N3300 2.572 . S
Tb3299 O3334 2.349 . S
Tb3299 O3337 2.393 . S
Tb3299 O3338 2.465 . S
Tb3299 O3339 2.387 . S
Tb3299 O3341 2.428 . S
Tb3299 O3342 2.308 . S
Tb3299 C3363 2.802 . S
N3300 C3296 1.361 . S
N3300 Tb3299 2.572 . S
N3300 C3302 1.340 . S
C3301 C3295 1.416 . S
C3301 C3303 1.332 . S
C3301 H3309 0.931 . S
C3302 N3300 1.340 . S
C3302 C3303 1.407 . S
C3302 H3308 0.930 . S
C3303 C3301 1.332 . S
C3303 C3302 1.407 . S
C3303 H3305 0.929 . S
H3304 C3293 0.930 . S
H3305 C3303 0.929 . S
H3306 C3321 0.930 . S
H3307 C3328 0.929 . S
H3308 C3302 0.930 . S
H3309 C3301 0.931 . S
H3310 C3324 0.930 . S
H3311 C3291 0.930 . S
H3312 C3297 0.929 . S
H3313 C3298 0.930 . S
H3314 C3319 0.930 . S
H3315 C3294 0.930 . S
H3316 C3327 0.931 . S
N3317 Tb3288 2.617 . S
N3317 C3318 1.379 . S
N3317 C3321 1.334 . S
C3318 N3317 1.379 . S
C3318 C3320 1.416 . S
C3318 C3326 1.424 . S
C3319 H3314 0.930 . S
C3319 C3321 1.390 . S
C3319 C3322 1.339 . S
C3320 C3318 1.416 . S
C3320 C3322 1.416 . S
C3320 C3353 1.448 . S
C3321 H3306 0.930 . S
C3321 N3317 1.334 . S
C3321 C3319 1.390 . S
C3322 C3319 1.339 . S
C3322 C3320 1.416 . S
C3322 H3329 0.930 . S
N3323 Tb3288 2.572 . S
N3323 C3324 1.340 . S
N3323 C3326 1.361 . S
C3324 H3310 0.930 . S
C3324 N3323 1.340 . S
C3324 C3328 1.407 . S
C3325 C3326 1.413 . S
C3325 C3327 1.416 . S
C3325 C3354 1.427 . S
C3326 C3318 1.424 . S
C3326 N3323 1.361 . S
C3326 C3325 1.413 . S
C3327 H3316 0.931 . S
C3327 C3325 1.416 . S
C3327 C3328 1.332 . S
C3328 H3307 0.929 . S
C3328 C3324 1.407 . S
C3328 C3327 1.332 . S
H3329 C3322 0.930 . S
H3330 C3353 0.930 . S
H3331 C3354 0.929 . S
O3332 Tb3288 2.465 . S
O3332 C3352 1.264 . S
O3333 Tb3288 2.387 . S
O3333 C3344 1.264 . S
O3334 Tb3299 2.349 . S
O3334 C3344 1.243 . S
O3335 Tb3288 2.428 . S
O3335 C3352 1.256 . S
O3336 Tb3288 2.308 . S
O3336 C3351 1.266 . S
O3337 Tb3299 2.393 . S
O3337 C3351 1.248 . S
O3338 Tb3299 2.465 . S
O3338 C3363 1.264 . S
O3339 Tb3299 2.387 . S
O3339 C3355 1.264 . S
O3340 Tb3288 2.349 . S
O3340 C3355 1.243 . S
O3341 Tb3299 2.428 . S
O3341 C3363 1.256 . S
O3342 Tb3299 2.308 . S
O3342 C3362 1.266 . S
O3343 Tb3288 2.393 . S
O3343 C3362 1.248 . S
C3344 O3333 1.264 . S
C3344 O3334 1.243 . S
C3345 C3348 1.399 . S
C3345 C3350 1.383 . S
C3345 C3352 1.496 . S
C3346 C3347 1.399 . S
C3346 C3350 1.389 . S
C3347 C3346 1.399 . S
C3347 C3349 1.380 . S
C3347 H3364 0.929 . S
C3348 C3345 1.399 . S
C3348 C3349 1.392 . S
C3348 H3365 0.929 . S
C3349 C3347 1.380 . S
C3349 C3348 1.392 . S
C3349 H3366 0.929 . S
C3350 C3345 1.383 . S
C3350 C3346 1.389 . S
C3350 H3367 0.931 . S
C3351 O3336 1.266 . S
C3351 O3337 1.248 . S
C3352 Tb3288 2.802 . S
C3352 O3332 1.264 . S
C3352 O3335 1.256 . S
C3352 C3345 1.496 . S
C3353 C3320 1.448 . S
C3353 H3330 0.930 . S
C3353 C3354 1.328 . S
C3354 C3325 1.427 . S
C3354 H3331 0.929 . S
C3354 C3353 1.328 . S
C3355 O3339 1.264 . S
C3355 O3340 1.243 . S
C3356 C3359 1.399 . S
C3356 C3360 1.383 . S
C3356 C3363 1.496 . S
C3357 C3358 1.399 . S
C3357 C3360 1.389 . S
C3358 C3357 1.399 . S
C3358 C3361 1.380 . S
C3358 H3368 0.929 . S
C3359 C3356 1.399 . S
C3359 C3361 1.392 . S
C3359 H3369 0.929 . S
C3360 C3356 1.383 . S
C3360 C3357 1.389 . S
C3360 H3370 0.931 . S
C3361 C3358 1.380 . S
C3361 C3359 1.392 . S
C3361 H3371 0.929 . S
C3362 O3342 1.266 . S
C3362 O3343 1.248 . S
C3363 Tb3299 2.802 . S
C3363 O3338 1.264 . S
C3363 O3341 1.256 . S
C3363 C3356 1.496 . S
H3364 C3347 0.929 . S
H3365 C3348 0.929 . S
H3366 C3349 0.929 . S
H3367 C3350 0.931 . S
H3368 C3358 0.929 . S
H3369 C3359 0.929 . S
H3370 C3360 0.931 . S
H3371 C3361 0.929 . S
Tb3372 N3401 2.619 . S
Tb3372 N3407 2.577 . S
Tb3372 O3416 2.472 . S
Tb3372 O3417 2.382 1_655 S
Tb3372 O3419 2.433 . S
Tb3372 O3420 2.306 1_655 S
Tb3372 O3424 2.347 1_655 S
Tb3372 O3427 2.387 1_655 S
Tb3372 C3436 2.809 . S
C3373 N3374 1.379 . S
C3373 C3376 1.416 . S
C3373 C3380 1.424 1_556 S
N3374 C3373 1.379 . S
N3374 C3377 1.334 . S
N3374 Tb3383 2.617 1_556 S
C3375 C3377 1.390 . S
C3375 C3378 1.339 . S
C3375 H3395 0.930 . S
C3376 C3373 1.416 . S
C3376 C3378 1.416 . S
C3376 C3382 1.448 . S
C3377 N3374 1.334 . S
C3377 C3375 1.390 . S
C3377 H3388 0.930 . S
C3378 C3375 1.339 . S
C3378 C3376 1.416 . S
C3378 H3399 0.930 . S
C3379 C3380 1.413 . S
C3379 C3381 1.427 . S
C3379 C3385 1.416 . S
C3380 C3373 1.424 1_554 S
C3380 C3379 1.413 . S
C3380 N3384 1.361 . S
C3381 C3379 1.427 . S
C3381 C3382 1.328 1_554 S
C3381 H3396 0.929 . S
C3382 C3376 1.448 . S
C3382 C3381 1.328 1_556 S
C3382 H3397 0.930 . S
Tb3383 N3374 2.617 1_554 S
Tb3383 N3384 2.572 . S
Tb3383 O3418 2.349 . S
Tb3383 O3421 2.393 1_554 S
Tb3383 O3422 2.465 . S
Tb3383 O3423 2.387 . S
Tb3383 O3425 2.428 1_554 S
Tb3383 O3426 2.308 . S
Tb3383 C3447 2.816 . S
N3384 C3380 1.361 . S
N3384 Tb3383 2.572 . S
N3384 C3386 1.340 . S
C3385 C3379 1.416 . S
C3385 C3387 1.332 . S
C3385 H3393 0.931 . S
C3386 N3384 1.340 . S
C3386 C3387 1.407 . S
C3386 H3392 0.930 . S
C3387 C3385 1.332 . S
C3387 C3386 1.407 . S
C3387 H3389 0.929 . S
H3388 C3377 0.930 . S
H3389 C3387 0.929 . S
H3390 C3405 0.930 1_455 S
H3391 C3412 0.929 . S
H3392 C3386 0.930 . S
H3393 C3385 0.931 . S
H3394 C3408 0.930 1_556 S
H3395 C3375 0.930 . S
H3396 C3381 0.929 . S
H3397 C3382 0.930 . S
H3398 C3403 0.930 . S
H3399 C3378 0.930 . S
H3400 C3411 0.931 . S
N3401 Tb3372 2.619 . S
N3401 C3402 1.379 . S
N3401 C3405 1.334 . S
C3402 N3401 1.379 . S
C3402 C3404 1.416 . S
C3402 C3410 1.424 . S
C3403 H3398 0.930 . S
C3403 C3405 1.390 . S
C3403 C3406 1.339 . S
C3404 C3402 1.416 . S
C3404 C3406 1.416 . S
C3404 C3437 1.448 . S
C3405 H3390 0.930 1_655 S
C3405 N3401 1.334 . S
C3405 C3403 1.390 . S
C3406 C3403 1.339 . S
C3406 C3404 1.416 . S
C3406 H3413 0.930 . S
N3407 Tb3372 2.577 . S
N3407 C3408 1.340 . S
N3407 C3410 1.361 . S
C3408 H3394 0.930 1_554 S
C3408 N3407 1.340 . S
C3408 C3412 1.407 1_554 S
C3409 C3410 1.413 . S
C3409 C3411 1.416 . S
C3409 C3438 1.427 . S
C3410 C3402 1.424 . S
C3410 N3407 1.361 . S
C3410 C3409 1.413 . S
C3411 H3400 0.931 . S
C3411 C3409 1.416 . S
C3411 C3412 1.332 1_554 S
C3412 H3391 0.929 . S
C3412 C3408 1.407 1_556 S
C3412 C3411 1.332 1_556 S
H3413 C3406 0.930 . S
H3414 C3437 0.930 . S
H3415 C3438 0.929 . S
O3416 Tb3372 2.472 . S
O3416 C3436 1.264 . S
O3417 Tb3372 2.382 1_455 S
O3417 C3428 1.264 . S
O3418 Tb3383 2.349 . S
O3418 C3428 1.243 . S
O3419 Tb3372 2.433 . S
O3419 C3436 1.256 . S
O3420 Tb3372 2.306 1_455 S
O3420 C3435 1.266 1_554 S
O3421 Tb3383 2.393 1_556 S
O3421 C3435 1.248 . S
O3422 Tb3383 2.465 . S
O3422 C3447 1.327 . S
O3423 Tb3383 2.387 . S
O3423 C3439 1.264 . S
O3424 Tb3372 2.347 1_455 S
O3424 C3439 1.243 . S
O3425 Tb3383 2.428 1_556 S
O3425 C3447 1.207 1_556 S
O3426 Tb3383 2.308 . S
O3426 C3446 1.266 . S
O3427 Tb3372 2.387 1_455 S
O3427 C3446 1.248 . S
C3428 O3417 1.264 . S
C3428 O3418 1.243 . S
C3429 C3432 1.399 . S
C3429 C3434 1.383 . S
C3429 C3436 1.496 . S
C3430 C3431 1.399 . S
C3430 C3434 1.389 . S
C3431 C3430 1.399 . S
C3431 C3433 1.380 . S
C3431 H3448 0.929 . S
C3432 C3429 1.399 . S
C3432 C3433 1.392 . S
C3432 H3449 0.929 . S
C3433 C3431 1.380 . S
C3433 C3432 1.392 . S
C3433 H3450 0.929 . S
C3434 C3429 1.383 . S
C3434 C3430 1.389 . S
C3434 H3451 0.931 . S
C3435 O3420 1.266 1_556 S
C3435 O3421 1.248 . S
C3436 Tb3372 2.809 . S
C3436 O3416 1.264 . S
C3436 O3419 1.256 . S
C3436 C3429 1.496 . S
C3437 C3404 1.448 . S
C3437 H3414 0.930 . S
C3437 C3438 1.328 . S
C3438 C3409 1.427 . S
C3438 H3415 0.929 . S
C3438 C3437 1.328 . S
C3439 O3423 1.264 . S
C3439 O3424 1.243 . S
C3440 C3443 1.399 . S
C3440 C3444 1.383 1_556 S
C3440 C3447 1.484 1_556 S
C3441 C3442 1.399 1_554 S
C3441 C3444 1.389 . S
C3442 C3441 1.399 1_556 S
C3442 C3445 1.380 . S
C3442 H3452 0.929 . S
C3443 C3440 1.399 . S
C3443 C3445 1.392 . S
C3443 H3453 0.929 . S
C3444 C3440 1.383 1_554 S
C3444 C3441 1.389 . S
C3444 H3454 0.931 . S
C3445 C3442 1.380 . S
C3445 C3443 1.392 . S
C3445 H3455 0.929 . S
C3446 O3426 1.266 . S
C3446 O3427 1.248 . S
C3447 Tb3383 2.816 . S
C3447 O3422 1.327 . S
C3447 O3425 1.207 1_554 S
C3447 C3440 1.484 1_554 S
H3448 C3431 0.929 . S
H3449 C3432 0.929 . S
H3450 C3433 0.929 . S
H3451 C3434 0.931 . S
H3452 C3442 0.929 . S
H3453 C3443 0.929 . S
H3454 C3444 0.931 . S
H3455 C3445 0.929 . S
H3456 C3474 0.903 1_554 S
H3457 C3476 0.947 1_554 S
H3458 C3478 0.950 . S
H3459 C3479 0.950 . S
H3460 C3481 0.950 . S
H3461 C3484 0.950 1_556 S
H3462 C3485 0.950 . S
H3463 C3487 0.950 . S
H3464 C3488 0.950 . S
H3465 C3489 0.951 . S
H3466 C3491 0.951 . S
H3467 C3493 0.950 . S
H3468 C3494 0.950 . S
H3469 C3496 0.950 . S
H3470 C3499 0.950 . S
H3471 C3500 0.950 . S
H3472 C3502 0.950 . S
H3473 C3503 0.950 . S
C3474 H3456 0.903 1_556 S
C3474 C3475 1.366 . S
C3474 C3476 1.369 1_655 S
C3475 C3474 1.366 . S
C3475 C3479 1.385 1_655 S
C3476 H3457 0.947 1_556 S
C3476 C3474 1.369 1_455 S
C3476 C3477 1.393 . S
C3477 C3476 1.393 . S
C3477 C3478 1.414 . S
C3477 C3480 1.499 . S
C3478 H3458 0.950 . S
C3478 C3477 1.414 . S
C3478 C3479 1.374 . S
C3479 H3459 0.950 . S
C3479 C3475 1.385 1_455 S
C3479 C3478 1.374 . S
C3480 C3477 1.499 . S
C3480 C3481 1.373 1_455 S
C3480 C3482 1.389 1_556 S
C3481 H3460 0.950 . S
C3481 C3480 1.373 1_655 S
C3481 C3497 1.382 . S
C3482 C3480 1.389 1_554 S
C3482 C3483 1.524 . S
C3482 C3496 1.377 . S
C3483 C3482 1.524 . S
C3483 C3484 1.397 . S
C3483 C3488 1.363 . S
C3484 H3461 0.950 1_554 S
C3484 C3483 1.397 . S
C3484 C3485 1.334 . S
C3485 H3462 0.950 . S
C3485 C3484 1.334 . S
C3485 C3486 1.287 . S
C3486 C3485 1.287 . S
C3486 C3487 1.524 . S
C3486 H3505 0.913 . S
C3487 H3463 0.950 . S
C3487 C3486 1.524 . S
C3487 C3488 1.415 . S
C3488 H3464 0.950 . S
C3488 C3483 1.363 . S
C3488 C3487 1.415 . S
C3489 H3465 0.951 . S
C3489 C3490 1.366 1_556 S
C3489 C3491 1.388 . S
C3490 C3489 1.366 1_554 S
C3490 C3494 1.385 . S
C3491 H3466 0.951 . S
C3491 C3489 1.388 . S
C3491 C3492 1.321 1_556 S
C3492 C3491 1.321 1_554 S
C3492 C3493 1.482 . S
C3492 C3495 1.481 1_554 S
C3493 H3467 0.950 . S
C3493 C3492 1.482 . S
C3493 C3494 1.374 . S
C3494 H3468 0.950 . S
C3494 C3490 1.385 . S
C3494 C3493 1.374 . S
C3495 C3492 1.481 1_556 S
C3495 C3496 1.373 1_556 S
C3495 C3497 1.376 1_455 S
C3496 H3469 0.950 . S
C3496 C3482 1.377 . S
C3496 C3495 1.373 1_554 S
C3497 C3481 1.382 . S
C3497 C3495 1.376 1_655 S
C3497 C3498 1.535 . S
C3498 C3497 1.535 . S
C3498 C3499 1.397 . S
C3498 C3503 1.363 . S
C3499 H3470 0.950 . S
C3499 C3498 1.397 . S
C3499 C3500 1.334 . S
C3500 H3471 0.950 . S
C3500 C3499 1.334 . S
C3500 C3501 1.287 . S
C3501 C3500 1.287 . S
C3501 C3502 1.524 . S
C3501 H3504 0.999 . S
C3502 H3472 0.950 . S
C3502 C3501 1.524 . S
C3502 C3503 1.415 . S
C3503 H3473 0.950 . S
C3503 C3498 1.363 . S
C3503 C3502 1.415 . S
H3504 C3501 0.999 . S
H3505 C3486 0.913 . S
H3506 C3524 0.951 . S
H3507 C3526 0.951 . S
H3508 C3528 0.950 . S
H3509 C3529 0.950 . S
H3510 C3531 0.950 . S
H3511 C3534 0.950 . S
H3512 C3535 0.950 . S
H3513 C3537 0.950 . S
H3514 C3538 0.950 . S
H3515 C3539 0.951 . S
H3516 C3541 0.951 . S
H3517 C3543 0.950 . S
H3518 C3544 0.950 . S
H3519 C3546 0.950 . S
H3520 C3549 0.950 . S
H3521 C3550 0.950 . S
H3522 C3552 0.950 . S
H3523 C3553 0.950 . S
C3524 H3506 0.951 . S
C3524 C3525 1.366 . S
C3524 C3526 1.388 . S
C3525 C3524 1.366 . S
C3525 C3529 1.385 . S
C3526 H3507 0.951 . S
C3526 C3524 1.388 . S
C3526 C3527 1.366 . S
C3527 C3526 1.366 . S
C3527 C3528 1.414 . S
C3527 C3530 1.499 . S
C3528 H3508 0.950 . S
C3528 C3527 1.414 . S
C3528 C3529 1.374 . S
C3529 H3509 0.950 . S
C3529 C3525 1.385 . S
C3529 C3528 1.374 . S
C3530 C3527 1.499 . S
C3530 C3531 1.373 . S
C3530 C3532 1.389 . S
C3531 H3510 0.950 . S
C3531 C3530 1.373 . S
C3531 C3547 1.377 . S
C3532 C3530 1.389 . S
C3532 C3533 1.524 . S
C3532 C3546 1.377 . S
C3533 C3532 1.524 . S
C3533 C3534 1.397 . S
C3533 C3538 1.363 . S
C3534 H3511 0.950 . S
C3534 C3533 1.397 . S
C3534 C3535 1.334 . S
C3535 H3512 0.950 . S
C3535 C3534 1.334 . S
C3535 C3536 1.287 . S
C3536 C3535 1.287 . S
C3536 C3537 1.524 . S
C3536 H3555 0.913 . S
C3537 H3513 0.950 . S
C3537 C3536 1.524 . S
C3537 C3538 1.415 . S
C3538 H3514 0.950 . S
C3538 C3533 1.363 . S
C3538 C3537 1.415 . S
C3539 H3515 0.951 . S
C3539 C3540 1.366 . S
C3539 C3541 1.388 . S
C3540 C3539 1.366 . S
C3540 C3544 1.385 . S
C3541 H3516 0.951 . S
C3541 C3539 1.388 . S
C3541 C3542 1.366 . S
C3542 C3541 1.366 . S
C3542 C3543 1.414 . S
C3542 C3545 1.499 . S
C3543 H3517 0.950 . S
C3543 C3542 1.414 . S
C3543 C3544 1.374 . S
C3544 H3518 0.950 . S
C3544 C3540 1.385 . S
C3544 C3543 1.374 . S
C3545 C3542 1.499 . S
C3545 C3546 1.373 . S
C3545 C3547 1.389 . S
C3546 H3519 0.950 . S
C3546 C3532 1.377 . S
C3546 C3545 1.373 . S
C3547 C3531 1.377 . S
C3547 C3545 1.389 . S
C3547 C3548 1.524 . S
C3548 C3547 1.524 . S
C3548 C3549 1.397 . S
C3548 C3553 1.363 . S
C3549 H3520 0.950 . S
C3549 C3548 1.397 . S
C3549 C3550 1.334 . S
C3550 H3521 0.950 . S
C3550 C3549 1.334 . S
C3550 C3551 1.287 . S
C3551 C3550 1.287 . S
C3551 C3552 1.524 . S
C3551 H3554 0.999 . S
C3552 H3522 0.950 . S
C3552 C3551 1.524 . S
C3552 C3553 1.415 . S
C3553 H3523 0.950 . S
C3553 C3548 1.363 . S
C3553 C3552 1.415 . S
H3554 C3551 0.999 . S
H3555 C3536 0.913 . S
H3556 C3574 0.951 . S
H3557 C3576 0.951 . S
H3558 C3578 0.950 . S
H3559 C3579 0.950 . S
H3560 C3581 0.950 . S
H3561 C3584 0.950 . S
H3562 C3585 0.950 . S
H3563 C3587 0.950 . S
H3564 C3588 0.950 . S
H3565 C3589 0.951 . S
H3566 C3591 0.951 . S
H3567 C3593 0.950 . S
H3568 C3594 0.950 . S
H3569 C3596 0.950 . S
H3570 C3599 0.950 . S
H3571 C3600 0.950 . S
H3572 C3602 0.950 . S
H3573 C3603 0.950 . S
C3574 H3556 0.951 . S
C3574 C3575 1.366 . S
C3574 C3576 1.388 . S
C3575 C3574 1.366 . S
C3575 C3579 1.385 . S
C3576 H3557 0.951 . S
C3576 C3574 1.388 . S
C3576 C3577 1.366 . S
C3577 C3576 1.366 . S
C3577 C3578 1.414 . S
C3577 C3580 1.499 . S
C3578 H3558 0.950 . S
C3578 C3577 1.414 . S
C3578 C3579 1.374 . S
C3579 H3559 0.950 . S
C3579 C3575 1.385 . S
C3579 C3578 1.374 . S
C3580 C3577 1.499 . S
C3580 C3581 1.373 . S
C3580 C3582 1.389 . S
C3581 H3560 0.950 . S
C3581 C3580 1.373 . S
C3581 C3597 1.377 . S
C3582 C3580 1.389 . S
C3582 C3583 1.524 . S
C3582 C3596 1.377 . S
C3583 C3582 1.524 . S
C3583 C3584 1.397 . S
C3583 C3588 1.363 . S
C3584 H3561 0.950 . S
C3584 C3583 1.397 . S
C3584 C3585 1.334 . S
C3585 H3562 0.950 . S
C3585 C3584 1.334 . S
C3585 C3586 1.287 . S
C3586 C3585 1.287 . S
C3586 C3587 1.524 . S
C3586 H3605 0.913 . S
C3587 H3563 0.950 . S
C3587 C3586 1.524 . S
C3587 C3588 1.415 . S
C3588 H3564 0.950 . S
C3588 C3583 1.363 . S
C3588 C3587 1.415 . S
C3589 H3565 0.951 . S
C3589 C3590 1.366 . S
C3589 C3591 1.388 . S
C3590 C3589 1.366 . S
C3590 C3594 1.385 . S
C3591 H3566 0.951 . S
C3591 C3589 1.388 . S
C3591 C3592 1.366 . S
C3592 C3591 1.366 . S
C3592 C3593 1.414 . S
C3592 C3595 1.499 . S
C3593 H3567 0.950 . S
C3593 C3592 1.414 . S
C3593 C3594 1.374 . S
C3594 H3568 0.950 . S
C3594 C3590 1.385 . S
C3594 C3593 1.374 . S
C3595 C3592 1.499 . S
C3595 C3596 1.373 . S
C3595 C3597 1.389 . S
C3596 H3569 0.950 . S
C3596 C3582 1.377 . S
C3596 C3595 1.373 . S
C3597 C3581 1.377 . S
C3597 C3595 1.389 . S
C3597 C3598 1.524 . S
C3598 C3597 1.524 . S
C3598 C3599 1.397 . S
C3598 C3603 1.363 . S
C3599 H3570 0.950 . S
C3599 C3598 1.397 . S
C3599 C3600 1.334 . S
C3600 H3571 0.950 . S
C3600 C3599 1.334 . S
C3600 C3601 1.287 . S
C3601 C3600 1.287 . S
C3601 C3602 1.524 . S
C3601 H3604 0.999 . S
C3602 H3572 0.950 . S
C3602 C3601 1.524 . S
C3602 C3603 1.415 . S
C3603 H3573 0.950 . S
C3603 C3598 1.363 . S
C3603 C3602 1.415 . S
H3604 C3601 0.999 . S
H3605 C3586 0.913 . S
H3606 C3624 0.951 . S
H3607 C3626 0.951 . S
H3608 C3628 0.950 . S
H3609 C3629 0.950 . S
H3610 C3631 0.950 . S
H3611 C3634 0.950 . S
H3612 C3635 0.950 . S
H3613 C3637 0.950 . S
H3614 C3638 0.950 . S
H3615 C3639 0.951 . S
H3616 C3641 0.951 . S
H3617 C3643 0.950 . S
H3618 C3644 0.950 . S
H3619 C3646 0.950 . S
H3620 C3649 0.950 . S
H3621 C3650 0.950 . S
H3622 C3652 0.950 . S
H3623 C3653 0.950 . S
C3624 H3606 0.951 . S
C3624 C3625 1.366 . S
C3624 C3626 1.388 . S
C3625 C3624 1.366 . S
C3625 C3629 1.385 . S
C3626 H3607 0.951 . S
C3626 C3624 1.388 . S
C3626 C3627 1.366 . S
C3627 C3626 1.366 . S
C3627 C3628 1.414 . S
C3627 C3630 1.499 . S
C3628 H3608 0.950 . S
C3628 C3627 1.414 . S
C3628 C3629 1.374 . S
C3629 H3609 0.950 . S
C3629 C3625 1.385 . S
C3629 C3628 1.374 . S
C3630 C3627 1.499 . S
C3630 C3631 1.373 . S
C3630 C3632 1.389 . S
C3631 H3610 0.950 . S
C3631 C3630 1.373 . S
C3631 C3647 1.377 . S
C3632 C3630 1.389 . S
C3632 C3633 1.524 . S
C3632 C3646 1.377 . S
C3633 C3632 1.524 . S
C3633 C3634 1.397 . S
C3633 C3638 1.363 . S
C3634 H3611 0.950 . S
C3634 C3633 1.397 . S
C3634 C3635 1.334 . S
C3635 H3612 0.950 . S
C3635 C3634 1.334 . S
C3635 C3636 1.287 . S
C3636 C3635 1.287 . S
C3636 C3637 1.524 . S
C3636 H3655 0.913 . S
C3637 H3613 0.950 . S
C3637 C3636 1.524 . S
C3637 C3638 1.415 . S
C3638 H3614 0.950 . S
C3638 C3633 1.363 . S
C3638 C3637 1.415 . S
C3639 H3615 0.951 . S
C3639 C3640 1.366 . S
C3639 C3641 1.388 . S
C3640 C3639 1.366 . S
C3640 C3644 1.385 . S
C3641 H3616 0.951 . S
C3641 C3639 1.388 . S
C3641 C3642 1.366 . S
C3642 C3641 1.366 . S
C3642 C3643 1.414 . S
C3642 C3645 1.499 . S
C3643 H3617 0.950 . S
C3643 C3642 1.414 . S
C3643 C3644 1.374 . S
C3644 H3618 0.950 . S
C3644 C3640 1.385 . S
C3644 C3643 1.374 . S
C3645 C3642 1.499 . S
C3645 C3646 1.373 . S
C3645 C3647 1.389 . S
C3646 H3619 0.950 . S
C3646 C3632 1.377 . S
C3646 C3645 1.373 . S
C3647 C3631 1.377 . S
C3647 C3645 1.389 . S
C3647 C3648 1.524 . S
C3648 C3647 1.524 . S
C3648 C3649 1.397 . S
C3648 C3653 1.363 . S
C3649 H3620 0.950 . S
C3649 C3648 1.397 . S
C3649 C3650 1.334 . S
C3650 H3621 0.950 . S
C3650 C3649 1.334 . S
C3650 C3651 1.287 . S
C3651 C3650 1.287 . S
C3651 C3652 1.524 . S
C3651 H3654 0.999 . S
C3652 H3622 0.950 . S
C3652 C3651 1.524 . S
C3652 C3653 1.415 . S
C3653 H3623 0.950 . S
C3653 C3648 1.363 . S
C3653 C3652 1.415 . S
H3654 C3651 0.999 . S
H3655 C3636 0.913 . S
H3656 C3674 0.951 . S
H3657 C3676 0.951 . S
H3658 C3678 0.950 . S
H3659 C3679 0.950 . S
H3660 C3681 0.950 . S
H3661 C3684 0.950 . S
H3662 C3685 0.950 . S
H3663 C3687 0.950 . S
H3664 C3688 0.950 . S
H3665 C3689 0.951 . S
H3666 C3691 0.951 . S
H3667 C3693 0.950 . S
H3668 C3694 0.950 . S
H3669 C3696 0.950 . S
H3670 C3699 0.950 . S
H3671 C3700 0.950 . S
H3672 C3702 0.950 . S
H3673 C3703 0.950 . S
C3674 H3656 0.951 . S
C3674 C3675 1.366 . S
C3674 C3676 1.388 . S
C3675 C3674 1.366 . S
C3675 C3679 1.385 . S
C3676 H3657 0.951 . S
C3676 C3674 1.388 . S
C3676 C3677 1.366 . S
C3677 C3676 1.366 . S
C3677 C3678 1.414 . S
C3677 C3680 1.499 . S
C3678 H3658 0.950 . S
C3678 C3677 1.414 . S
C3678 C3679 1.374 . S
C3679 H3659 0.950 . S
C3679 C3675 1.385 . S
C3679 C3678 1.374 . S
C3680 C3677 1.499 . S
C3680 C3681 1.373 . S
C3680 C3682 1.389 . S
C3681 H3660 0.950 . S
C3681 C3680 1.373 . S
C3681 C3697 1.377 . S
C3682 C3680 1.389 . S
C3682 C3683 1.524 . S
C3682 C3696 1.377 . S
C3683 C3682 1.524 . S
C3683 C3684 1.397 1_455 S
C3683 C3688 1.363 . S
C3684 H3661 0.950 . S
C3684 C3683 1.397 1_655 S
C3684 C3685 1.334 . S
C3685 H3662 0.950 . S
C3685 C3684 1.334 . S
C3685 C3686 1.287 . S
C3686 C3685 1.287 . S
C3686 C3687 1.524 1_655 S
C3686 H3705 0.913 . S
C3687 H3663 0.950 . S
C3687 C3686 1.524 1_455 S
C3687 C3688 1.415 . S
C3688 H3664 0.950 . S
C3688 C3683 1.363 . S
C3688 C3687 1.415 . S
C3689 H3665 0.951 . S
C3689 C3690 1.366 . S
C3689 C3691 1.388 . S
C3690 C3689 1.366 . S
C3690 C3694 1.385 . S
C3691 H3666 0.951 . S
C3691 C3689 1.388 . S
C3691 C3692 1.366 . S
C3692 C3691 1.366 . S
C3692 C3693 1.414 . S
C3692 C3695 1.499 . S
C3693 H3667 0.950 . S
C3693 C3692 1.414 . S
C3693 C3694 1.374 . S
C3694 H3668 0.950 . S
C3694 C3690 1.385 . S
C3694 C3693 1.374 . S
C3695 C3692 1.499 . S
C3695 C3696 1.373 . S
C3695 C3697 1.389 . S
C3696 H3669 0.950 . S
C3696 C3682 1.377 . S
C3696 C3695 1.373 . S
C3697 C3681 1.377 . S
C3697 C3695 1.389 . S
C3697 C3698 1.524 . S
C3698 C3697 1.524 . S
C3698 C3699 1.397 . S
C3698 C3703 1.363 . S
C3699 H3670 0.950 . S
C3699 C3698 1.397 . S
C3699 C3700 1.334 . S
C3700 H3671 0.950 . S
C3700 C3699 1.334 . S
C3700 C3701 1.287 . S
C3701 C3700 1.287 . S
C3701 C3702 1.524 . S
C3701 H3704 0.999 . S
C3702 H3672 0.950 . S
C3702 C3701 1.524 . S
C3702 C3703 1.415 . S
C3703 H3673 0.950 . S
C3703 C3698 1.363 . S
C3703 C3702 1.415 . S
H3704 C3701 0.999 . S
H3705 C3686 0.913 . S
H3706 C3724 0.951 . S
H3707 C3726 0.951 . S
H3708 C3728 0.950 . S
H3709 C3729 0.950 . S
H3710 C3731 0.950 . S
H3711 C3734 0.950 . S
H3712 C3735 0.950 . S
H3713 C3737 0.950 . S
H3714 C3738 0.950 . S
H3715 C3739 0.951 . S
H3716 C3741 0.951 . S
H3717 C3743 0.950 . S
H3718 C3744 0.950 . S
H3719 C3746 0.950 . S
H3720 C3749 0.950 . S
H3721 C3750 0.950 . S
H3722 C3752 0.950 . S
H3723 C3753 0.950 . S
C3724 H3706 0.951 . S
C3724 C3725 1.366 . S
C3724 C3726 1.388 . S
C3725 C3724 1.366 . S
C3725 C3729 1.385 . S
C3726 H3707 0.951 . S
C3726 C3724 1.388 . S
C3726 C3727 1.366 . S
C3727 C3726 1.366 . S
C3727 C3728 1.414 . S
C3727 C3730 1.499 . S
C3728 H3708 0.950 . S
C3728 C3727 1.414 . S
C3728 C3729 1.374 . S
C3729 H3709 0.950 . S
C3729 C3725 1.385 . S
C3729 C3728 1.374 . S
C3730 C3727 1.499 . S
C3730 C3731 1.373 . S
C3730 C3732 1.389 . S
C3731 H3710 0.950 . S
C3731 C3730 1.373 . S
C3731 C3747 1.377 . S
C3732 C3730 1.389 . S
C3732 C3733 1.524 . S
C3732 C3746 1.377 . S
C3733 C3732 1.524 . S
C3733 C3734 1.397 . S
C3733 C3738 1.363 . S
C3734 H3711 0.950 . S
C3734 C3733 1.397 . S
C3734 C3735 1.334 . S
C3735 H3712 0.950 . S
C3735 C3734 1.334 . S
C3735 C3736 1.287 . S
C3736 C3735 1.287 . S
C3736 C3737 1.524 . S
C3736 H3755 0.913 . S
C3737 H3713 0.950 . S
C3737 C3736 1.524 . S
C3737 C3738 1.415 . S
C3738 H3714 0.950 . S
C3738 C3733 1.363 . S
C3738 C3737 1.415 . S
C3739 H3715 0.951 . S
C3739 C3740 1.366 . S
C3739 C3741 1.388 . S
C3740 C3739 1.366 . S
C3740 C3744 1.385 . S
C3741 H3716 0.951 . S
C3741 C3739 1.388 . S
C3741 C3742 1.366 . S
C3742 C3741 1.366 . S
C3742 C3743 1.414 . S
C3742 C3745 1.499 . S
C3743 H3717 0.950 . S
C3743 C3742 1.414 . S
C3743 C3744 1.374 . S
C3744 H3718 0.950 . S
C3744 C3740 1.385 . S
C3744 C3743 1.374 . S
C3745 C3742 1.499 . S
C3745 C3746 1.373 . S
C3745 C3747 1.389 . S
C3746 H3719 0.950 . S
C3746 C3732 1.377 . S
C3746 C3745 1.373 . S
C3747 C3731 1.377 . S
C3747 C3745 1.389 . S
C3747 C3748 1.524 . S
C3748 C3747 1.524 . S
C3748 C3749 1.397 . S
C3748 C3753 1.363 . S
C3749 H3720 0.950 . S
C3749 C3748 1.397 . S
C3749 C3750 1.334 . S
C3750 H3721 0.950 . S
C3750 C3749 1.334 . S
C3750 C3751 1.287 . S
C3751 C3750 1.287 . S
C3751 C3752 1.524 . S
C3751 H3754 0.999 . S
C3752 H3722 0.950 . S
C3752 C3751 1.524 . S
C3752 C3753 1.415 . S
C3753 H3723 0.950 . S
C3753 C3748 1.363 . S
C3753 C3752 1.415 . S
H3754 C3751 0.999 . S
H3755 C3736 0.913 . S
H3756 C3774 0.951 . S
H3757 C3776 0.951 . S
H3758 C3778 0.950 . S
H3759 C3779 0.950 . S
H3760 C3781 0.950 . S
H3761 C3784 0.950 . S
H3762 C3785 0.950 . S
H3763 C3787 0.950 . S
H3764 C3788 0.950 . S
H3765 C3789 0.951 . S
H3766 C3791 0.951 . S
H3767 C3793 0.950 . S
H3768 C3794 0.950 . S
H3769 C3796 0.950 . S
H3770 C3799 0.950 . S
H3771 C3800 0.950 . S
H3772 C3802 0.950 . S
H3773 C3803 0.950 . S
C3774 H3756 0.951 . S
C3774 C3775 1.366 . S
C3774 C3776 1.388 . S
C3775 C3774 1.366 . S
C3775 C3779 1.385 . S
C3776 H3757 0.951 . S
C3776 C3774 1.388 . S
C3776 C3777 1.366 . S
C3777 C3776 1.366 . S
C3777 C3778 1.414 . S
C3777 C3780 1.499 . S
C3778 H3758 0.950 . S
C3778 C3777 1.414 . S
C3778 C3779 1.374 . S
C3779 H3759 0.950 . S
C3779 C3775 1.385 . S
C3779 C3778 1.374 . S
C3780 C3777 1.499 . S
C3780 C3781 1.373 . S
C3780 C3782 1.389 . S
C3781 H3760 0.950 . S
C3781 C3780 1.373 . S
C3781 C3797 1.377 . S
C3782 C3780 1.389 . S
C3782 C3783 1.524 . S
C3782 C3796 1.377 . S
C3783 C3782 1.524 . S
C3783 C3784 1.397 . S
C3783 C3788 1.363 . S
C3784 H3761 0.950 . S
C3784 C3783 1.397 . S
C3784 C3785 1.334 . S
C3785 H3762 0.950 . S
C3785 C3784 1.334 . S
C3785 C3786 1.287 . S
C3786 C3785 1.287 . S
C3786 C3787 1.524 . S
C3786 H3805 0.913 . S
C3787 H3763 0.950 . S
C3787 C3786 1.524 . S
C3787 C3788 1.415 . S
C3788 H3764 0.950 . S
C3788 C3783 1.363 . S
C3788 C3787 1.415 . S
C3789 H3765 0.951 . S
C3789 C3790 1.366 . S
C3789 C3791 1.388 . S
C3790 C3789 1.366 . S
C3790 C3794 1.385 . S
C3791 H3766 0.951 . S
C3791 C3789 1.388 . S
C3791 C3792 1.366 . S
C3792 C3791 1.366 . S
C3792 C3793 1.414 . S
C3792 C3795 1.499 . S
C3793 H3767 0.950 . S
C3793 C3792 1.414 . S
C3793 C3794 1.374 . S
C3794 H3768 0.950 . S
C3794 C3790 1.385 . S
C3794 C3793 1.374 . S
C3795 C3792 1.499 . S
C3795 C3796 1.373 . S
C3795 C3797 1.389 . S
C3796 H3769 0.950 . S
C3796 C3782 1.377 . S
C3796 C3795 1.373 . S
C3797 C3781 1.377 . S
C3797 C3795 1.389 . S
C3797 C3798 1.524 . S
C3798 C3797 1.524 . S
C3798 C3799 1.397 . S
C3798 C3803 1.363 . S
C3799 H3770 0.950 . S
C3799 C3798 1.397 . S
C3799 C3800 1.334 . S
C3800 H3771 0.950 . S
C3800 C3799 1.334 . S
C3800 C3801 1.287 . S
C3801 C3800 1.287 . S
C3801 C3802 1.524 . S
C3801 H3804 0.999 . S
C3802 H3772 0.950 . S
C3802 C3801 1.524 . S
C3802 C3803 1.415 . S
C3803 H3773 0.950 . S
C3803 C3798 1.363 . S
C3803 C3802 1.415 . S
H3804 C3801 0.999 . S
H3805 C3786 0.913 . S
H3806 C3824 0.951 . S
H3807 C3826 0.951 . S
H3808 C3828 0.950 . S
H3809 C3829 0.950 . S
H3810 C3831 0.950 . S
H3811 C3834 0.950 . S
H3812 C3835 0.950 . S
H3813 C3837 0.950 . S
H3814 C3838 0.950 . S
H3815 C3839 0.951 . S
H3816 C3841 0.951 . S
H3817 C3843 0.950 . S
H3818 C3844 0.950 . S
H3819 C3846 0.950 . S
H3820 C3849 0.950 . S
H3821 C3850 0.950 . S
H3822 C3852 0.950 . S
H3823 C3853 0.950 . S
C3824 H3806 0.951 . S
C3824 C3825 1.366 . S
C3824 C3826 1.388 . S
C3825 C3824 1.366 . S
C3825 C3829 1.385 . S
C3826 H3807 0.951 . S
C3826 C3824 1.388 . S
C3826 C3827 1.366 . S
C3827 C3826 1.366 . S
C3827 C3828 1.414 . S
C3827 C3830 1.499 . S
C3828 H3808 0.950 . S
C3828 C3827 1.414 . S
C3828 C3829 1.374 . S
C3829 H3809 0.950 . S
C3829 C3825 1.385 . S
C3829 C3828 1.374 . S
C3830 C3827 1.499 . S
C3830 C3831 1.373 . S
C3830 C3832 1.389 . S
C3831 H3810 0.950 . S
C3831 C3830 1.373 . S
C3831 C3847 1.377 . S
C3832 C3830 1.389 . S
C3832 C3833 1.524 . S
C3832 C3846 1.377 . S
C3833 C3832 1.524 . S
C3833 C3834 1.397 . S
C3833 C3838 1.363 . S
C3834 H3811 0.950 . S
C3834 C3833 1.397 . S
C3834 C3835 1.334 . S
C3835 H3812 0.950 . S
C3835 C3834 1.334 . S
C3835 C3836 1.287 . S
C3836 C3835 1.287 . S
C3836 C3837 1.524 . S
C3836 H3855 0.913 . S
C3837 H3813 0.950 . S
C3837 C3836 1.524 . S
C3837 C3838 1.415 . S
C3838 H3814 0.950 . S
C3838 C3833 1.363 . S
C3838 C3837 1.415 . S
C3839 H3815 0.951 . S
C3839 C3840 1.366 . S
C3839 C3841 1.388 . S
C3840 C3839 1.366 . S
C3840 C3844 1.385 . S
C3841 H3816 0.951 . S
C3841 C3839 1.388 . S
C3841 C3842 1.366 . S
C3842 C3841 1.366 . S
C3842 C3843 1.414 . S
C3842 C3845 1.499 . S
C3843 H3817 0.950 . S
C3843 C3842 1.414 . S
C3843 C3844 1.374 . S
C3844 H3818 0.950 . S
C3844 C3840 1.385 . S
C3844 C3843 1.374 . S
C3845 C3842 1.499 . S
C3845 C3846 1.373 . S
C3845 C3847 1.389 . S
C3846 H3819 0.950 . S
C3846 C3832 1.377 . S
C3846 C3845 1.373 . S
C3847 C3831 1.377 . S
C3847 C3845 1.389 . S
C3847 C3848 1.524 . S
C3848 C3847 1.524 . S
C3848 C3849 1.397 . S
C3848 C3853 1.363 . S
C3849 H3820 0.950 . S
C3849 C3848 1.397 . S
C3849 C3850 1.334 . S
C3850 H3821 0.950 . S
C3850 C3849 1.334 . S
C3850 C3851 1.287 . S
C3851 C3850 1.287 . S
C3851 C3852 1.524 . S
C3851 H3854 0.999 . S
C3852 H3822 0.950 . S
C3852 C3851 1.524 . S
C3852 C3853 1.415 . S
C3853 H3823 0.950 . S
C3853 C3848 1.363 . S
C3853 C3852 1.415 . S
H3854 C3851 0.999 . S
H3855 C3836 0.913 . S
H3856 C3874 0.951 . S
H3857 C3876 0.951 . S
H3858 C3878 0.950 1_565 S
H3859 C3879 0.950 1_565 S
H3860 C3881 0.950 1_565 S
H3861 C3884 0.950 . S
H3862 C3885 0.950 . S
H3863 C3887 0.950 . S
H3864 C3888 0.950 . S
H3865 C3889 0.951 . S
H3866 C3891 0.947 . S
H3867 C3893 0.950 . S
H3868 C3894 0.950 . S
H3869 C3896 0.950 . S
H3870 C3899 0.950 . S
H3871 C3900 0.950 . S
H3872 C3902 0.950 1_655 S
H3873 C3903 0.950 . S
C3874 H3856 0.951 . S
C3874 C3875 1.366 . S
C3874 C3876 1.388 . S
C3875 C3874 1.366 . S
C3875 C3879 1.385 . S
C3876 H3857 0.951 . S
C3876 C3874 1.388 . S
C3876 C3877 1.366 . S
C3877 C3876 1.366 . S
C3877 C3878 1.414 . S
C3877 C3880 1.499 . S
C3878 H3858 0.950 1_545 S
C3878 C3877 1.414 . S
C3878 C3879 1.374 . S
C3879 H3859 0.950 1_545 S
C3879 C3875 1.385 . S
C3879 C3878 1.374 . S
C3880 C3877 1.499 . S
C3880 C3881 1.373 . S
C3880 C3882 1.389 . S
C3881 H3860 0.950 1_545 S
C3881 C3880 1.373 . S
C3881 C3897 1.377 . S
C3882 C3880 1.389 . S
C3882 C3883 1.524 . S
C3882 C3896 1.377 . S
C3883 C3882 1.524 . S
C3883 C3884 1.397 . S
C3883 C3888 1.363 . S
C3884 H3861 0.950 . S
C3884 C3883 1.397 . S
C3884 C3885 1.334 . S
C3885 H3862 0.950 . S
C3885 C3884 1.334 . S
C3885 C3886 1.287 . S
C3886 C3885 1.287 . S
C3886 C3887 1.524 . S
C3886 H3905 0.913 . S
C3887 H3863 0.950 . S
C3887 C3886 1.524 . S
C3887 C3888 1.415 . S
C3888 H3864 0.950 . S
C3888 C3883 1.363 . S
C3888 C3887 1.415 . S
C3889 H3865 0.951 . S
C3889 C3890 1.366 1_655 S
C3889 C3891 1.388 . S
C3890 C3889 1.366 1_455 S
C3890 C3894 1.385 . S
C3891 H3866 0.947 . S
C3891 C3889 1.388 . S
C3891 C3892 1.366 . S
C3892 C3891 1.366 . S
C3892 C3893 1.414 1_655 S
C3892 C3895 1.499 . S
C3893 H3867 0.950 . S
C3893 C3892 1.414 1_455 S
C3893 C3894 1.374 . S
C3894 H3868 0.950 . S
C3894 C3890 1.385 . S
C3894 C3893 1.374 . S
C3895 C3892 1.499 . S
C3895 C3896 1.373 . S
C3895 C3897 1.389 . S
C3896 H3869 0.950 . S
C3896 C3882 1.377 . S
C3896 C3895 1.373 . S
C3897 C3881 1.377 . S
C3897 C3895 1.389 . S
C3897 C3898 1.571 1_545 S
C3898 C3897 1.571 1_565 S
C3898 C3899 1.335 1_665 S
C3898 C3903 1.379 . S
C3899 H3870 0.950 . S
C3899 C3898 1.335 1_445 S
C3899 C3900 1.334 1_545 S
C3900 H3871 0.950 . S
C3900 C3899 1.334 1_565 S
C3900 C3901 1.287 . S
C3901 C3900 1.287 . S
C3901 C3902 1.524 . S
C3901 H3904 0.999 . S
C3902 H3872 0.950 1_455 S
C3902 C3901 1.524 . S
C3902 C3903 1.415 1_455 S
C3903 H3873 0.950 . S
C3903 C3898 1.379 . S
C3903 C3902 1.415 1_655 S
H3904 C3901 0.999 . S
H3905 C3886 0.913 . S
H3906 C3924 0.951 . S
H3907 C3926 0.951 . S
H3908 C3928 0.950 . S
H3909 C3929 0.950 . S
H3910 C3931 0.950 . S
H3911 C3934 0.950 . S
H3912 C3935 0.950 . S
H3913 C3937 0.950 . S
H3914 C3938 0.950 . S
H3915 C3939 0.951 . S
H3916 C3941 0.951 . S
H3917 C3943 0.950 . S
H3918 C3944 0.950 . S
H3919 C3946 0.950 . S
H3920 C3949 0.950 . S
H3921 C3950 0.950 . S
H3922 C3952 0.950 . S
H3923 C3953 0.950 . S
C3924 H3906 0.951 . S
C3924 C3925 1.366 . S
C3924 C3926 1.388 . S
C3925 C3924 1.366 . S
C3925 C3929 1.385 . S
C3926 H3907 0.951 . S
C3926 C3924 1.388 . S
C3926 C3927 1.366 . S
C3927 C3926 1.366 . S
C3927 C3928 1.414 . S
C3927 C3930 1.499 . S
C3928 H3908 0.950 . S
C3928 C3927 1.414 . S
C3928 C3929 1.374 . S
C3929 H3909 0.950 . S
C3929 C3925 1.385 . S
C3929 C3928 1.374 . S
C3930 C3927 1.499 . S
C3930 C3931 1.373 . S
C3930 C3932 1.389 . S
C3931 H3910 0.950 . S
C3931 C3930 1.373 . S
C3931 C3947 1.377 . S
C3932 C3930 1.389 . S
C3932 C3933 1.524 . S
C3932 C3946 1.377 . S
C3933 C3932 1.524 . S
C3933 C3934 1.397 . S
C3933 C3938 1.363 . S
C3934 H3911 0.950 . S
C3934 C3933 1.397 . S
C3934 C3935 1.334 . S
C3935 H3912 0.950 . S
C3935 C3934 1.334 . S
C3935 C3936 1.287 . S
C3936 C3935 1.287 . S
C3936 C3937 1.524 . S
C3936 H3955 0.913 . S
C3937 H3913 0.950 . S
C3937 C3936 1.524 . S
C3937 C3938 1.415 . S
C3938 H3914 0.950 . S
C3938 C3933 1.363 . S
C3938 C3937 1.415 . S
C3939 H3915 0.951 . S
C3939 C3940 1.366 . S
C3939 C3941 1.388 . S
C3940 C3939 1.366 . S
C3940 C3944 1.385 . S
C3941 H3916 0.951 . S
C3941 C3939 1.388 . S
C3941 C3942 1.366 . S
C3942 C3941 1.366 . S
C3942 C3943 1.414 . S
C3942 C3945 1.499 . S
C3943 H3917 0.950 . S
C3943 C3942 1.414 . S
C3943 C3944 1.374 . S
C3944 H3918 0.950 . S
C3944 C3940 1.385 . S
C3944 C3943 1.374 . S
C3945 C3942 1.499 . S
C3945 C3946 1.373 . S
C3945 C3947 1.389 . S
C3946 H3919 0.950 . S
C3946 C3932 1.377 . S
C3946 C3945 1.373 . S
C3947 C3931 1.377 . S
C3947 C3945 1.389 . S
C3947 C3948 1.524 . S
C3948 C3947 1.524 . S
C3948 C3949 1.397 . S
C3948 C3953 1.363 . S
C3949 H3920 0.950 . S
C3949 C3948 1.397 . S
C3949 C3950 1.334 . S
C3950 H3921 0.950 . S
C3950 C3949 1.334 . S
C3950 C3951 1.287 . S
C3951 C3950 1.287 . S
C3951 C3952 1.524 . S
C3951 H3954 0.999 . S
C3952 H3922 0.950 . S
C3952 C3951 1.524 . S
C3952 C3953 1.415 . S
C3953 H3923 0.950 . S
C3953 C3948 1.363 . S
C3953 C3952 1.415 . S
H3954 C3951 0.999 . S
H3955 C3936 0.913 . S
H3956 C3974 0.951 . S
H3957 C3976 0.951 . S
H3958 C3978 0.950 . S
H3959 C3979 0.950 . S
H3960 C3981 0.950 . S
H3961 C3984 0.950 . S
H3962 C3985 0.950 . S
H3963 C3987 0.950 . S
H3964 C3988 0.950 . S
H3965 C3989 0.951 . S
H3966 C3991 0.951 . S
H3967 C3993 0.950 . S
H3968 C3994 0.950 . S
H3969 C3996 0.950 . S
H3970 C3999 0.950 . S
H3971 C4000 0.950 . S
H3972 C4002 0.950 . S
H3973 C4003 0.950 . S
C3974 H3956 0.951 . S
C3974 C3975 1.366 . S
C3974 C3976 1.388 . S
C3975 C3974 1.366 . S
C3975 C3979 1.385 . S
C3976 H3957 0.951 . S
C3976 C3974 1.388 . S
C3976 C3977 1.366 . S
C3977 C3976 1.366 . S
C3977 C3978 1.414 . S
C3977 C3980 1.499 . S
C3978 H3958 0.950 . S
C3978 C3977 1.414 . S
C3978 C3979 1.374 . S
C3979 H3959 0.950 . S
C3979 C3975 1.385 . S
C3979 C3978 1.374 . S
C3980 C3977 1.499 . S
C3980 C3981 1.373 . S
C3980 C3982 1.389 . S
C3981 H3960 0.950 . S
C3981 C3980 1.373 . S
C3981 C3997 1.377 . S
C3982 C3980 1.389 . S
C3982 C3983 1.524 . S
C3982 C3996 1.377 . S
C3983 C3982 1.524 . S
C3983 C3984 1.397 1_545 S
C3983 C3988 1.363 . S
C3984 H3961 0.950 . S
C3984 C3983 1.397 1_565 S
C3984 C3985 1.334 . S
C3985 H3962 0.950 . S
C3985 C3984 1.334 . S
C3985 C3986 1.287 . S
C3986 C3985 1.287 . S
C3986 C3987 1.524 . S
C3986 H4005 0.913 . S
C3987 H3963 0.950 . S
C3987 C3986 1.524 . S
C3987 C3988 1.415 1_565 S
C3988 H3964 0.950 . S
C3988 C3983 1.363 . S
C3988 C3987 1.415 1_545 S
C3989 H3965 0.951 . S
C3989 C3990 1.366 . S
C3989 C3991 1.388 . S
C3990 C3989 1.366 . S
C3990 C3994 1.385 . S
C3991 H3966 0.951 . S
C3991 C3989 1.388 . S
C3991 C3992 1.366 . S
C3992 C3991 1.366 . S
C3992 C3993 1.414 . S
C3992 C3995 1.499 . S
C3993 H3967 0.950 . S
C3993 C3992 1.414 . S
C3993 C3994 1.374 . S
C3994 H3968 0.950 . S
C3994 C3990 1.385 . S
C3994 C3993 1.374 . S
C3995 C3992 1.499 . S
C3995 C3996 1.373 . S
C3995 C3997 1.389 . S
C3996 H3969 0.950 . S
C3996 C3982 1.377 . S
C3996 C3995 1.373 . S
C3997 C3981 1.377 . S
C3997 C3995 1.389 . S
C3997 C3998 1.524 . S
C3998 C3997 1.524 . S
C3998 C3999 1.397 . S
C3998 C4003 1.363 . S
C3999 H3970 0.950 . S
C3999 C3998 1.397 . S
C3999 C4000 1.334 . S
C4000 H3971 0.950 . S
C4000 C3999 1.334 . S
C4000 C4001 1.287 . S
C4001 C4000 1.287 . S
C4001 C4002 1.524 . S
C4001 H4004 0.999 . S
C4002 H3972 0.950 . S
C4002 C4001 1.524 . S
C4002 C4003 1.415 . S
C4003 H3973 0.950 . S
C4003 C3998 1.363 . S
C4003 C4002 1.415 . S
H4004 C4001 0.999 . S
H4005 C3986 0.913 . S
H4006 C4024 0.951 . S
H4007 C4026 0.951 . S
H4008 C4028 0.950 . S
H4009 C4029 0.950 . S
H4010 C4031 0.950 . S
H4011 C4034 0.950 . S
H4012 C4035 0.950 . S
H4013 C4037 0.950 . S
H4014 C4038 0.950 . S
H4015 C4039 0.951 . S
H4016 C4041 0.951 . S
H4017 C4043 0.950 . S
H4018 C4044 0.950 . S
H4019 C4046 0.950 . S
H4020 C4049 0.950 . S
H4021 C4050 0.950 . S
H4022 C4052 0.950 . S
H4023 C4053 0.950 . S
C4024 H4006 0.951 . S
C4024 C4025 1.366 . S
C4024 C4026 1.388 . S
C4025 C4024 1.366 . S
C4025 C4029 1.385 . S
C4026 H4007 0.951 . S
C4026 C4024 1.388 . S
C4026 C4027 1.366 . S
C4027 C4026 1.366 . S
C4027 C4028 1.414 . S
C4027 C4030 1.499 . S
C4028 H4008 0.950 . S
C4028 C4027 1.414 . S
C4028 C4029 1.374 . S
C4029 H4009 0.950 . S
C4029 C4025 1.385 . S
C4029 C4028 1.374 . S
C4030 C4027 1.499 . S
C4030 C4031 1.373 . S
C4030 C4032 1.389 . S
C4031 H4010 0.950 . S
C4031 C4030 1.373 . S
C4031 C4047 1.377 . S
C4032 C4030 1.389 . S
C4032 C4033 1.524 . S
C4032 C4046 1.377 . S
C4033 C4032 1.524 . S
C4033 C4034 1.397 . S
C4033 C4038 1.363 . S
C4034 H4011 0.950 . S
C4034 C4033 1.397 . S
C4034 C4035 1.334 . S
C4035 H4012 0.950 . S
C4035 C4034 1.334 . S
C4035 C4036 1.287 . S
C4036 C4035 1.287 . S
C4036 C4037 1.524 . S
C4036 H4055 0.913 . S
C4037 H4013 0.950 . S
C4037 C4036 1.524 . S
C4037 C4038 1.415 . S
C4038 H4014 0.950 . S
C4038 C4033 1.363 . S
C4038 C4037 1.415 . S
C4039 H4015 0.951 . S
C4039 C4040 1.366 . S
C4039 C4041 1.388 . S
C4040 C4039 1.366 . S
C4040 C4044 1.385 . S
C4041 H4016 0.951 . S
C4041 C4039 1.388 . S
C4041 C4042 1.366 . S
C4042 C4041 1.366 . S
C4042 C4043 1.414 . S
C4042 C4045 1.499 . S
C4043 H4017 0.950 . S
C4043 C4042 1.414 . S
C4043 C4044 1.374 . S
C4044 H4018 0.950 . S
C4044 C4040 1.385 . S
C4044 C4043 1.374 . S
C4045 C4042 1.499 . S
C4045 C4046 1.373 . S
C4045 C4047 1.389 . S
C4046 H4019 0.950 . S
C4046 C4032 1.377 . S
C4046 C4045 1.373 . S
C4047 C4031 1.377 . S
C4047 C4045 1.389 . S
C4047 C4048 1.524 . S
C4048 C4047 1.524 . S
C4048 C4049 1.397 . S
C4048 C4053 1.363 . S
C4049 H4020 0.950 . S
C4049 C4048 1.397 . S
C4049 C4050 1.334 . S
C4050 H4021 0.950 . S
C4050 C4049 1.334 . S
C4050 C4051 1.287 . S
C4051 C4050 1.287 . S
C4051 C4052 1.524 . S
C4051 H4054 0.999 . S
C4052 H4022 0.950 . S
C4052 C4051 1.524 . S
C4052 C4053 1.415 . S
C4053 H4023 0.950 . S
C4053 C4048 1.363 . S
C4053 C4052 1.415 . S
H4054 C4051 0.999 . S
H4055 C4036 0.913 . S
H4056 C4074 0.951 . S
H4057 C4076 0.951 . S
H4058 C4078 0.950 1_565 S
H4059 C4079 0.938 1_565 S
H4060 C4081 0.956 . S
H4061 C4084 0.950 . S
H4062 C4085 0.950 . S
H4063 C4087 0.950 . S
H4064 C4088 0.965 . S
H4065 C4089 0.951 1_565 S
H4066 C4091 0.946 1_565 S
H4067 C4093 0.950 . S
H4068 C4094 0.950 . S
H4069 C4096 0.950 1_455 S
H4070 C4099 0.923 1_545 S
H4071 C4100 0.950 . S
H4072 C4102 0.950 . S
H4073 C4103 0.950 . S
C4074 H4056 0.951 . S
C4074 C4075 1.366 . S
C4074 C4076 1.388 . S
C4075 C4074 1.366 . S
C4075 C4079 1.385 . S
C4076 H4057 0.951 . S
C4076 C4074 1.388 . S
C4076 C4077 1.366 . S
C4077 C4076 1.366 . S
C4077 C4078 1.414 . S
C4077 C4080 1.499 . S
C4078 H4058 0.950 1_545 S
C4078 C4077 1.414 . S
C4078 C4079 1.374 . S
C4079 H4059 0.938 1_545 S
C4079 C4075 1.385 . S
C4079 C4078 1.374 . S
C4080 C4077 1.499 . S
C4080 C4081 1.373 . S
C4080 C4082 1.389 . S
C4081 H4060 0.956 . S
C4081 C4080 1.373 . S
C4081 C4097 1.377 . S
C4082 C4080 1.389 . S
C4082 C4083 1.524 1_655 S
C4082 C4096 1.377 . S
C4083 C4082 1.524 1_455 S
C4083 C4084 1.397 . S
C4083 C4088 1.363 . S
C4084 H4061 0.950 . S
C4084 C4083 1.397 . S
C4084 C4085 1.334 . S
C4085 H4062 0.950 . S
C4085 C4084 1.334 . S
C4085 C4086 1.287 . S
C4086 C4085 1.287 . S
C4086 C4087 1.524 . S
C4086 H4105 0.913 . S
C4087 H4063 0.950 . S
C4087 C4086 1.524 . S
C4087 C4088 1.415 . S
C4088 H4064 0.965 . S
C4088 C4083 1.363 . S
C4088 C4087 1.415 . S
C4089 H4065 0.951 1_545 S
C4089 C4090 1.366 . S
C4089 C4091 1.375 1_455 S
C4090 C4089 1.366 . S
C4090 C4094 1.385 . S
C4091 H4066 0.946 1_545 S
C4091 C4089 1.375 1_655 S
C4091 C4092 1.387 . S
C4092 C4091 1.387 . S
C4092 C4093 1.414 . S
C4092 C4095 1.499 . S
C4093 H4067 0.950 . S
C4093 C4092 1.414 . S
C4093 C4094 1.374 1_655 S
C4094 H4068 0.950 . S
C4094 C4090 1.385 . S
C4094 C4093 1.374 1_455 S
C4095 C4092 1.499 . S
C4095 C4096 1.373 . S
C4095 C4097 1.389 . S
C4096 H4069 0.950 1_655 S
C4096 C4082 1.377 . S
C4096 C4095 1.373 . S
C4097 C4081 1.377 . S
C4097 C4095 1.389 . S
C4097 C4098 1.524 1_545 S
C4098 C4097 1.524 1_565 S
C4098 C4099 1.405 . S
C4098 C4103 1.363 . S
C4099 H4070 0.923 1_565 S
C4099 C4098 1.405 . S
C4099 C4100 1.352 . S
C4100 H4071 0.950 . S
C4100 C4099 1.352 . S
C4100 C4101 1.287 . S
C4101 C4100 1.287 . S
C4101 C4102 1.524 . S
C4101 H4104 0.999 . S
C4102 H4072 0.950 . S
C4102 C4101 1.524 . S
C4102 C4103 1.415 . S
C4103 H4073 0.950 . S
C4103 C4098 1.363 . S
C4103 C4102 1.415 . S
H4104 C4101 0.999 . S
H4105 C4086 0.913 . S
H4106 C4124 0.951 . S
H4107 C4126 0.951 . S
H4108 C4128 0.950 . S
H4109 C4129 0.950 . S
H4110 C4131 0.950 . S
H4111 C4134 0.950 . S
H4112 C4135 0.950 . S
H4113 C4137 0.950 . S
H4114 C4138 0.950 . S
H4115 C4139 0.951 . S
H4116 C4141 0.951 . S
H4117 C4143 0.950 . S
H4118 C4144 0.950 . S
H4119 C4146 0.950 . S
H4120 C4149 0.950 . S
H4121 C4150 0.950 . S
H4122 C4152 0.950 . S
H4123 C4153 0.950 . S
C4124 H4106 0.951 . S
C4124 C4125 1.366 . S
C4124 C4126 1.388 . S
C4125 C4124 1.366 . S
C4125 C4129 1.385 . S
C4126 H4107 0.951 . S
C4126 C4124 1.388 . S
C4126 C4127 1.366 . S
C4127 C4126 1.366 . S
C4127 C4128 1.414 . S
C4127 C4130 1.499 . S
C4128 H4108 0.950 . S
C4128 C4127 1.414 . S
C4128 C4129 1.374 . S
C4129 H4109 0.950 . S
C4129 C4125 1.385 . S
C4129 C4128 1.374 . S
C4130 C4127 1.499 . S
C4130 C4131 1.373 . S
C4130 C4132 1.389 . S
C4131 H4110 0.950 . S
C4131 C4130 1.373 . S
C4131 C4147 1.377 . S
C4132 C4130 1.389 . S
C4132 C4133 1.524 . S
C4132 C4146 1.377 . S
C4133 C4132 1.524 . S
C4133 C4134 1.397 . S
C4133 C4138 1.363 . S
C4134 H4111 0.950 . S
C4134 C4133 1.397 . S
C4134 C4135 1.334 . S
C4135 H4112 0.950 . S
C4135 C4134 1.334 . S
C4135 C4136 1.287 . S
C4136 C4135 1.287 . S
C4136 C4137 1.524 . S
C4136 H4155 0.913 . S
C4137 H4113 0.950 . S
C4137 C4136 1.524 . S
C4137 C4138 1.415 . S
C4138 H4114 0.950 . S
C4138 C4133 1.363 . S
C4138 C4137 1.415 . S
C4139 H4115 0.951 . S
C4139 C4140 1.366 . S
C4139 C4141 1.388 . S
C4140 C4139 1.366 . S
C4140 C4144 1.385 . S
C4141 H4116 0.951 . S
C4141 C4139 1.388 . S
C4141 C4142 1.366 . S
C4142 C4141 1.366 . S
C4142 C4143 1.414 . S
C4142 C4145 1.499 . S
C4143 H4117 0.950 . S
C4143 C4142 1.414 . S
C4143 C4144 1.374 . S
C4144 H4118 0.950 . S
C4144 C4140 1.385 . S
C4144 C4143 1.374 . S
C4145 C4142 1.499 . S
C4145 C4146 1.373 . S
C4145 C4147 1.389 . S
C4146 H4119 0.950 . S
C4146 C4132 1.377 . S
C4146 C4145 1.373 . S
C4147 C4131 1.377 . S
C4147 C4145 1.389 . S
C4147 C4148 1.524 . S
C4148 C4147 1.524 . S
C4148 C4149 1.397 . S
C4148 C4153 1.363 . S
C4149 H4120 0.950 . S
C4149 C4148 1.397 . S
C4149 C4150 1.334 . S
C4150 H4121 0.950 . S
C4150 C4149 1.334 . S
C4150 C4151 1.287 . S
C4151 C4150 1.287 . S
C4151 C4152 1.524 . S
C4151 H4154 0.999 . S
C4152 H4122 0.950 . S
C4152 C4151 1.524 . S
C4152 C4153 1.415 . S
C4153 H4123 0.950 . S
C4153 C4148 1.363 . S
C4153 C4152 1.415 . S
H4154 C4151 0.999 . S
H4155 C4136 0.913 . S
H4156 C4174 0.951 . S
H4157 C4176 0.951 . S
H4158 C4178 0.950 . S
H4159 C4179 0.950 . S
H4160 C4181 0.950 . S
H4161 C4184 0.950 . S
H4162 C4185 0.950 1_565 S
H4163 C4187 0.950 . S
H4164 C4188 0.950 . S
H4165 C4189 0.951 . S
H4166 C4191 0.951 . S
H4167 C4193 0.950 . S
H4168 C4194 0.950 . S
H4169 C4196 0.950 . S
H4170 C4199 0.950 . S
H4171 C4200 0.950 . S
H4172 C4202 0.950 . S
H4173 C4203 0.950 . S
C4174 H4156 0.951 . S
C4174 C4175 1.366 . S
C4174 C4176 1.388 . S
C4175 C4174 1.366 . S
C4175 C4179 1.385 . S
C4176 H4157 0.951 . S
C4176 C4174 1.388 . S
C4176 C4177 1.366 . S
C4177 C4176 1.366 . S
C4177 C4178 1.414 . S
C4177 C4180 1.499 . S
C4178 H4158 0.950 . S
C4178 C4177 1.414 . S
C4178 C4179 1.374 . S
C4179 H4159 0.950 . S
C4179 C4175 1.385 . S
C4179 C4178 1.374 . S
C4180 C4177 1.499 . S
C4180 C4181 1.373 . S
C4180 C4182 1.389 . S
C4181 H4160 0.950 . S
C4181 C4180 1.373 . S
C4181 C4197 1.377 . S
C4182 C4180 1.389 . S
C4182 C4183 1.524 . S
C4182 C4196 1.377 . S
C4183 C4182 1.524 . S
C4183 C4184 1.397 . S
C4183 C4188 1.363 . S
C4184 H4161 0.950 . S
C4184 C4183 1.397 . S
C4184 C4185 1.334 . S
C4185 H4162 0.950 1_545 S
C4185 C4184 1.334 . S
C4185 C4186 1.287 . S
C4186 C4185 1.287 . S
C4186 C4187 1.524 . S
C4186 H4205 0.913 . S
C4187 H4163 0.950 . S
C4187 C4186 1.524 . S
C4187 C4188 1.415 . S
C4188 H4164 0.950 . S
C4188 C4183 1.363 . S
C4188 C4187 1.415 . S
C4189 H4165 0.951 . S
C4189 C4190 1.366 . S
C4189 C4191 1.388 . S
C4190 C4189 1.366 . S
C4190 C4194 1.385 . S
C4191 H4166 0.951 . S
C4191 C4189 1.388 . S
C4191 C4192 1.366 . S
C4192 C4191 1.366 . S
C4192 C4193 1.414 . S
C4192 C4195 1.499 . S
C4193 H4167 0.950 . S
C4193 C4192 1.414 . S
C4193 C4194 1.374 . S
C4194 H4168 0.950 . S
C4194 C4190 1.385 . S
C4194 C4193 1.374 . S
C4195 C4192 1.499 . S
C4195 C4196 1.373 . S
C4195 C4197 1.389 . S
C4196 H4169 0.950 . S
C4196 C4182 1.377 . S
C4196 C4195 1.373 . S
C4197 C4181 1.377 . S
C4197 C4195 1.389 . S
C4197 C4198 1.524 . S
C4198 C4197 1.524 . S
C4198 C4199 1.397 . S
C4198 C4203 1.363 . S
C4199 H4170 0.950 . S
C4199 C4198 1.397 . S
C4199 C4200 1.334 . S
C4200 H4171 0.950 . S
C4200 C4199 1.334 . S
C4200 C4201 1.287 . S
C4201 C4200 1.287 . S
C4201 C4202 1.524 . S
C4201 H4204 0.999 . S
C4202 H4172 0.950 . S
C4202 C4201 1.524 . S
C4202 C4203 1.415 . S
C4203 H4173 0.950 . S
C4203 C4198 1.363 . S
C4203 C4202 1.415 . S
H4204 C4201 0.999 . S
H4205 C4186 0.913 . S
H4206 C4224 0.951 . S
H4207 C4226 0.951 . S
H4208 C4228 0.950 . S
H4209 C4229 0.950 . S
H4210 C4231 0.950 . S
H4211 C4234 0.950 . S
H4212 C4235 0.950 . S
H4213 C4237 0.950 . S
H4214 C4238 0.950 . S
H4215 C4239 0.951 . S
H4216 C4241 0.951 . S
H4217 C4243 0.950 . S
H4218 C4244 0.950 . S
H4219 C4246 0.950 . S
H4220 C4249 0.950 . S
H4221 C4250 0.950 . S
H4222 C4252 0.950 . S
H4223 C4253 0.950 . S
C4224 H4206 0.951 . S
C4224 C4225 1.366 . S
C4224 C4226 1.388 . S
C4225 C4224 1.366 . S
C4225 C4229 1.385 . S
C4226 H4207 0.951 . S
C4226 C4224 1.388 . S
C4226 C4227 1.366 . S
C4227 C4226 1.366 . S
C4227 C4228 1.414 . S
C4227 C4230 1.499 . S
C4228 H4208 0.950 . S
C4228 C4227 1.414 . S
C4228 C4229 1.374 . S
C4229 H4209 0.950 . S
C4229 C4225 1.385 . S
C4229 C4228 1.374 . S
C4230 C4227 1.499 . S
C4230 C4231 1.373 . S
C4230 C4232 1.389 . S
C4231 H4210 0.950 . S
C4231 C4230 1.373 . S
C4231 C4247 1.377 . S
C4232 C4230 1.389 . S
C4232 C4233 1.524 . S
C4232 C4246 1.377 . S
C4233 C4232 1.524 . S
C4233 C4234 1.397 . S
C4233 C4238 1.363 . S
C4234 H4211 0.950 . S
C4234 C4233 1.397 . S
C4234 C4235 1.334 . S
C4235 H4212 0.950 . S
C4235 C4234 1.334 . S
C4235 C4236 1.287 . S
C4236 C4235 1.287 . S
C4236 C4237 1.524 . S
C4236 H4255 0.913 . S
C4237 H4213 0.950 . S
C4237 C4236 1.524 . S
C4237 C4238 1.415 . S
C4238 H4214 0.950 . S
C4238 C4233 1.363 . S
C4238 C4237 1.415 . S
C4239 H4215 0.951 . S
C4239 C4240 1.366 . S
C4239 C4241 1.388 . S
C4240 C4239 1.366 . S
C4240 C4244 1.385 . S
C4241 H4216 0.951 . S
C4241 C4239 1.388 . S
C4241 C4242 1.366 . S
C4242 C4241 1.366 . S
C4242 C4243 1.414 . S
C4242 C4245 1.499 . S
C4243 H4217 0.950 . S
C4243 C4242 1.414 . S
C4243 C4244 1.374 . S
C4244 H4218 0.950 . S
C4244 C4240 1.385 . S
C4244 C4243 1.374 . S
C4245 C4242 1.499 . S
C4245 C4246 1.373 . S
C4245 C4247 1.389 . S
C4246 H4219 0.950 . S
C4246 C4232 1.377 . S
C4246 C4245 1.373 . S
C4247 C4231 1.377 . S
C4247 C4245 1.389 . S
C4247 C4248 1.524 . S
C4248 C4247 1.524 . S
C4248 C4249 1.397 . S
C4248 C4253 1.363 . S
C4249 H4220 0.950 . S
C4249 C4248 1.397 . S
C4249 C4250 1.334 . S
C4250 H4221 0.950 . S
C4250 C4249 1.334 . S
C4250 C4251 1.287 . S
C4251 C4250 1.287 . S
C4251 C4252 1.524 . S
C4251 H4254 0.999 . S
C4252 H4222 0.950 . S
C4252 C4251 1.524 . S
C4252 C4253 1.415 . S
C4253 H4223 0.950 . S
C4253 C4248 1.363 . S
C4253 C4252 1.415 . S
H4254 C4251 0.999 . S
H4255 C4236 0.913 . S
H4256 C4274 0.951 . S
H4257 C4276 0.951 . S
H4258 C4278 0.950 . S
H4259 C4279 0.950 . S
H4260 C4281 0.974 . S
H4261 C4284 0.950 . S
H4262 C4285 0.950 . S
H4263 C4287 0.950 . S
H4264 C4288 0.950 . S
H4265 C4289 0.951 1_556 S
H4266 C4291 0.951 1_556 S
H4267 C4293 0.950 . S
H4268 C4294 0.950 . S
H4269 C4296 0.950 . S
H4270 C4299 0.950 . S
H4271 C4300 0.950 1_554 S
H4272 C4302 0.950 . S
H4273 C4303 0.926 1_565 S
C4274 H4256 0.951 . S
C4274 C4275 1.341 1_554 S
C4274 C4276 1.388 . S
C4275 C4274 1.341 1_556 S
C4275 C4279 1.404 . S
C4276 H4257 0.951 . S
C4276 C4274 1.388 . S
C4276 C4277 1.366 . S
C4277 C4276 1.366 . S
C4277 C4278 1.414 1_554 S
C4277 C4280 1.499 . S
C4278 H4258 0.950 . S
C4278 C4277 1.414 1_556 S
C4278 C4279 1.374 . S
C4279 H4259 0.950 . S
C4279 C4275 1.404 . S
C4279 C4278 1.374 . S
C4280 C4277 1.499 . S
C4280 C4281 1.358 1_554 S
C4280 C4282 1.389 . S
C4281 H4260 0.974 . S
C4281 C4280 1.358 1_556 S
C4281 C4297 1.369 1_556 S
C4282 C4280 1.389 . S
C4282 C4283 1.524 . S
C4282 C4296 1.377 . S
C4283 C4282 1.524 . S
C4283 C4284 1.397 . S
C4283 C4288 1.363 . S
C4284 H4261 0.950 . S
C4284 C4283 1.397 . S
C4284 C4285 1.334 . S
C4285 H4262 0.950 . S
C4285 C4284 1.334 . S
C4285 C4286 1.287 . S
C4286 C4285 1.287 . S
C4286 C4287 1.524 . S
C4286 H4305 0.913 . S
C4287 H4263 0.950 . S
C4287 C4286 1.524 . S
C4287 C4288 1.415 . S
C4288 H4264 0.950 . S
C4288 C4283 1.363 . S
C4288 C4287 1.415 . S
C4289 H4265 0.951 1_554 S
C4289 C4290 1.366 . S
C4289 C4291 1.388 . S
C4290 C4289 1.366 . S
C4290 C4294 1.385 . S
C4291 H4266 0.951 1_554 S
C4291 C4289 1.388 . S
C4291 C4292 1.366 . S
C4292 C4291 1.366 . S
C4292 C4293 1.414 . S
C4292 C4295 1.499 . S
C4293 H4267 0.950 . S
C4293 C4292 1.414 . S
C4293 C4294 1.374 . S
C4294 H4268 0.950 . S
C4294 C4290 1.385 . S
C4294 C4293 1.374 . S
C4295 C4292 1.499 . S
C4295 C4296 1.373 . S
C4295 C4297 1.389 . S
C4296 H4269 0.950 . S
C4296 C4282 1.377 . S
C4296 C4295 1.373 . S
C4297 C4281 1.369 1_554 S
C4297 C4295 1.389 . S
C4297 C4298 1.515 1_564 S
C4298 C4297 1.515 1_546 S
C4298 C4299 1.405 1_556 S
C4298 C4303 1.361 . S
C4299 H4270 0.950 . S
C4299 C4298 1.405 1_554 S
C4299 C4300 1.334 1_554 S
C4300 H4271 0.950 1_556 S
C4300 C4299 1.334 1_556 S
C4300 C4301 1.287 . S
C4301 C4300 1.287 . S
C4301 C4302 1.524 . S
C4301 H4304 0.999 . S
C4302 H4272 0.950 . S
C4302 C4301 1.524 . S
C4302 C4303 1.442 . S
C4303 H4273 0.926 1_545 S
C4303 C4298 1.361 . S
C4303 C4302 1.442 . S
H4304 C4301 0.999 . S
H4305 C4286 0.913 . S
H4306 C4324 0.951 . S
H4307 C4326 0.951 . S
H4308 C4328 0.950 . S
H4309 C4329 0.950 . S
H4310 C4331 0.950 . S
H4311 C4334 0.950 . S
H4312 C4335 0.950 . S
H4313 C4337 0.950 . S
H4314 C4338 0.950 1_554 S
H4315 C4339 0.951 1_556 S
H4316 C4341 0.951 1_556 S
H4317 C4343 0.950 . S
H4318 C4344 0.950 . S
H4319 C4346 0.947 1_556 S
H4320 C4349 0.950 . S
H4321 C4350 0.950 . S
H4322 C4352 0.950 . S
H4323 C4353 0.950 . S
C4324 H4306 0.951 . S
C4324 C4325 1.366 1_554 S
C4324 C4326 1.388 . S
C4325 C4324 1.366 1_556 S
C4325 C4329 1.385 . S
C4326 H4307 0.951 . S
C4326 C4324 1.388 . S
C4326 C4327 1.376 . S
C4327 C4326 1.376 . S
C4327 C4328 1.398 1_554 S
C4327 C4330 1.505 . S
C4328 H4308 0.950 . S
C4328 C4327 1.398 1_556 S
C4328 C4329 1.374 . S
C4329 H4309 0.950 . S
C4329 C4325 1.385 . S
C4329 C4328 1.374 . S
C4330 C4327 1.505 . S
C4330 C4331 1.373 . S
C4330 C4332 1.389 1_554 S
C4331 H4310 0.950 . S
C4331 C4330 1.373 . S
C4331 C4347 1.377 . S
C4332 C4330 1.389 1_556 S
C4332 C4333 1.524 . S
C4332 C4346 1.357 1_556 S
C4333 C4332 1.524 . S
C4333 C4334 1.397 . S
C4333 C4338 1.363 . S
C4334 H4311 0.950 . S
C4334 C4333 1.397 . S
C4334 C4335 1.334 . S
C4335 H4312 0.950 . S
C4335 C4334 1.334 . S
C4335 C4336 1.287 . S
C4336 C4335 1.287 . S
C4336 C4337 1.524 . S
C4336 H4355 0.913 . S
C4337 H4313 0.950 . S
C4337 C4336 1.524 . S
C4337 C4338 1.415 . S
C4338 H4314 0.950 1_556 S
C4338 C4333 1.363 . S
C4338 C4337 1.415 . S
C4339 H4315 0.951 1_554 S
C4339 C4340 1.366 . S
C4339 C4341 1.388 . S
C4340 C4339 1.366 . S
C4340 C4344 1.385 . S
C4341 H4316 0.951 1_554 S
C4341 C4339 1.388 . S
C4341 C4342 1.366 . S
C4342 C4341 1.366 . S
C4342 C4343 1.414 . S
C4342 C4345 1.499 . S
C4343 H4317 0.950 . S
C4343 C4342 1.414 . S
C4343 C4344 1.374 . S
C4344 H4318 0.950 . S
C4344 C4340 1.385 . S
C4344 C4343 1.374 . S
C4345 C4342 1.499 . S
C4345 C4346 1.402 . S
C4345 C4347 1.389 . S
C4346 H4319 0.947 1_554 S
C4346 C4332 1.357 1_554 S
C4346 C4345 1.402 . S
C4347 C4331 1.377 . S
C4347 C4345 1.389 . S
C4347 C4348 1.524 . S
C4348 C4347 1.524 . S
C4348 C4349 1.397 . S
C4348 C4353 1.363 . S
C4349 H4320 0.950 . S
C4349 C4348 1.397 . S
C4349 C4350 1.334 . S
C4350 H4321 0.950 . S
C4350 C4349 1.334 . S
C4350 C4351 1.287 . S
C4351 C4350 1.287 . S
C4351 C4352 1.524 . S
C4351 H4354 0.999 . S
C4352 H4322 0.950 . S
C4352 C4351 1.524 . S
C4352 C4353 1.415 . S
C4353 H4323 0.950 . S
C4353 C4348 1.363 . S
C4353 C4352 1.415 . S
H4354 C4351 0.999 . S
H4355 C4336 0.913 . S
H4356 C4374 0.951 . S
H4357 C4376 0.951 . S
H4358 C4378 0.950 . S
H4359 C4379 0.950 . S
H4360 C4381 0.950 . S
H4361 C4384 0.950 . S
H4362 C4385 0.950 . S
H4363 C4387 0.950 . S
H4364 C4388 0.950 . S
H4365 C4389 0.951 . S
H4366 C4391 0.951 . S
H4367 C4393 0.950 . S
H4368 C4394 0.950 . S
H4369 C4396 0.950 . S
H4370 C4399 0.950 . S
H4371 C4400 0.950 . S
H4372 C4402 0.950 . S
H4373 C4403 0.950 . S
C4374 H4356 0.951 . S
C4374 C4375 1.366 . S
C4374 C4376 1.388 . S
C4375 C4374 1.366 . S
C4375 C4379 1.385 . S
C4376 H4357 0.951 . S
C4376 C4374 1.388 . S
C4376 C4377 1.366 . S
C4377 C4376 1.366 . S
C4377 C4378 1.414 . S
C4377 C4380 1.499 . S
C4378 H4358 0.950 . S
C4378 C4377 1.414 . S
C4378 C4379 1.374 . S
C4379 H4359 0.950 . S
C4379 C4375 1.385 . S
C4379 C4378 1.374 . S
C4380 C4377 1.499 . S
C4380 C4381 1.373 . S
C4380 C4382 1.389 . S
C4381 H4360 0.950 . S
C4381 C4380 1.373 . S
C4381 C4397 1.377 . S
C4382 C4380 1.389 . S
C4382 C4383 1.524 . S
C4382 C4396 1.377 . S
C4383 C4382 1.524 . S
C4383 C4384 1.397 . S
C4383 C4388 1.363 . S
C4384 H4361 0.950 . S
C4384 C4383 1.397 . S
C4384 C4385 1.334 . S
C4385 H4362 0.950 . S
C4385 C4384 1.334 . S
C4385 C4386 1.287 . S
C4386 C4385 1.287 . S
C4386 C4387 1.524 . S
C4386 H4405 0.913 . S
C4387 H4363 0.950 . S
C4387 C4386 1.524 . S
C4387 C4388 1.415 . S
C4388 H4364 0.950 . S
C4388 C4383 1.363 . S
C4388 C4387 1.415 . S
C4389 H4365 0.951 . S
C4389 C4390 1.366 . S
C4389 C4391 1.388 . S
C4390 C4389 1.366 . S
C4390 C4394 1.385 . S
C4391 H4366 0.951 . S
C4391 C4389 1.388 . S
C4391 C4392 1.366 . S
C4392 C4391 1.366 . S
C4392 C4393 1.414 . S
C4392 C4395 1.499 . S
C4393 H4367 0.950 . S
C4393 C4392 1.414 . S
C4393 C4394 1.374 . S
C4394 H4368 0.950 . S
C4394 C4390 1.385 . S
C4394 C4393 1.374 . S
C4395 C4392 1.499 . S
C4395 C4396 1.373 . S
C4395 C4397 1.389 . S
C4396 H4369 0.950 . S
C4396 C4382 1.377 . S
C4396 C4395 1.373 . S
C4397 C4381 1.377 . S
C4397 C4395 1.389 . S
C4397 C4398 1.524 . S
C4398 C4397 1.524 . S
C4398 C4399 1.397 . S
C4398 C4403 1.363 . S
C4399 H4370 0.950 . S
C4399 C4398 1.397 . S
C4399 C4400 1.334 . S
C4400 H4371 0.950 . S
C4400 C4399 1.334 . S
C4400 C4401 1.287 . S
C4401 C4400 1.287 . S
C4401 C4402 1.524 . S
C4401 H4404 0.999 . S
C4402 H4372 0.950 . S
C4402 C4401 1.524 . S
C4402 C4403 1.415 . S
C4403 H4373 0.950 . S
C4403 C4398 1.363 . S
C4403 C4402 1.415 . S
H4404 C4401 0.999 . S
H4405 C4386 0.913 . S
H4406 C4424 0.951 . S
H4407 C4426 0.951 . S
H4408 C4428 0.950 . S
H4409 C4429 0.950 . S
H4410 C4431 0.950 . S
H4411 C4434 0.950 . S
H4412 C4435 0.950 . S
H4413 C4437 0.950 . S
H4414 C4438 0.950 . S
H4415 C4439 0.951 . S
H4416 C4441 0.951 . S
H4417 C4443 0.950 . S
H4418 C4444 0.950 . S
H4419 C4446 0.950 . S
H4420 C4449 0.950 . S
H4421 C4450 0.950 . S
H4422 C4452 0.950 . S
H4423 C4453 0.950 . S
C4424 H4406 0.951 . S
C4424 C4425 1.366 . S
C4424 C4426 1.388 . S
C4425 C4424 1.366 . S
C4425 C4429 1.385 . S
C4426 H4407 0.951 . S
C4426 C4424 1.388 . S
C4426 C4427 1.366 . S
C4427 C4426 1.366 . S
C4427 C4428 1.414 . S
C4427 C4430 1.499 . S
C4428 H4408 0.950 . S
C4428 C4427 1.414 . S
C4428 C4429 1.374 . S
C4429 H4409 0.950 . S
C4429 C4425 1.385 . S
C4429 C4428 1.374 . S
C4430 C4427 1.499 . S
C4430 C4431 1.373 . S
C4430 C4432 1.389 . S
C4431 H4410 0.950 . S
C4431 C4430 1.373 . S
C4431 C4447 1.377 . S
C4432 C4430 1.389 . S
C4432 C4433 1.524 . S
C4432 C4446 1.377 . S
C4433 C4432 1.524 . S
C4433 C4434 1.397 . S
C4433 C4438 1.363 . S
C4434 H4411 0.950 . S
C4434 C4433 1.397 . S
C4434 C4435 1.334 . S
C4435 H4412 0.950 . S
C4435 C4434 1.334 . S
C4435 C4436 1.287 . S
C4436 C4435 1.287 . S
C4436 C4437 1.524 . S
C4436 H4455 0.913 . S
C4437 H4413 0.950 . S
C4437 C4436 1.524 . S
C4437 C4438 1.415 . S
C4438 H4414 0.950 . S
C4438 C4433 1.363 . S
C4438 C4437 1.415 . S
C4439 H4415 0.951 . S
C4439 C4440 1.366 . S
C4439 C4441 1.388 . S
C4440 C4439 1.366 . S
C4440 C4444 1.385 . S
C4441 H4416 0.951 . S
C4441 C4439 1.388 . S
C4441 C4442 1.366 . S
C4442 C4441 1.366 . S
C4442 C4443 1.414 . S
C4442 C4445 1.499 . S
C4443 H4417 0.950 . S
C4443 C4442 1.414 . S
C4443 C4444 1.374 . S
C4444 H4418 0.950 . S
C4444 C4440 1.385 . S
C4444 C4443 1.374 . S
C4445 C4442 1.499 . S
C4445 C4446 1.373 . S
C4445 C4447 1.389 . S
C4446 H4419 0.950 . S
C4446 C4432 1.377 . S
C4446 C4445 1.373 . S
C4447 C4431 1.377 . S
C4447 C4445 1.389 . S
C4447 C4448 1.524 . S
C4448 C4447 1.524 . S
C4448 C4449 1.397 . S
C4448 C4453 1.363 . S
C4449 H4420 0.950 . S
C4449 C4448 1.397 . S
C4449 C4450 1.334 . S
C4450 H4421 0.950 . S
C4450 C4449 1.334 . S
C4450 C4451 1.287 . S
C4451 C4450 1.287 . S
C4451 C4452 1.524 . S
C4451 H4454 0.999 . S
C4452 H4422 0.950 . S
C4452 C4451 1.524 . S
C4452 C4453 1.415 . S
C4453 H4423 0.950 . S
C4453 C4448 1.363 . S
C4453 C4452 1.415 . S
H4454 C4451 0.999 . S
H4455 C4436 0.913 . S
H4456 C4474 0.951 . S
H4457 C4476 0.951 . S
H4458 C4478 0.950 . S
H4459 C4479 0.950 . S
H4460 C4481 0.950 . S
H4461 C4484 0.950 . S
H4462 C4485 0.950 . S
H4463 C4487 0.950 . S
H4464 C4488 0.950 . S
H4465 C4489 0.951 . S
H4466 C4491 0.951 . S
H4467 C4493 0.950 . S
H4468 C4494 0.950 . S
H4469 C4496 0.950 . S
H4470 C4499 0.950 . S
H4471 C4500 0.950 . S
H4472 C4502 0.950 . S
H4473 C4503 0.950 . S
C4474 H4456 0.951 . S
C4474 C4475 1.366 . S
C4474 C4476 1.388 . S
C4475 C4474 1.366 . S
C4475 C4479 1.385 . S
C4476 H4457 0.951 . S
C4476 C4474 1.388 . S
C4476 C4477 1.366 . S
C4477 C4476 1.366 . S
C4477 C4478 1.414 . S
C4477 C4480 1.499 . S
C4478 H4458 0.950 . S
C4478 C4477 1.414 . S
C4478 C4479 1.374 . S
C4479 H4459 0.950 . S
C4479 C4475 1.385 . S
C4479 C4478 1.374 . S
C4480 C4477 1.499 . S
C4480 C4481 1.373 . S
C4480 C4482 1.389 . S
C4481 H4460 0.950 . S
C4481 C4480 1.373 . S
C4481 C4497 1.377 . S
C4482 C4480 1.389 . S
C4482 C4483 1.524 . S
C4482 C4496 1.377 . S
C4483 C4482 1.524 . S
C4483 C4484 1.397 . S
C4483 C4488 1.363 . S
C4484 H4461 0.950 . S
C4484 C4483 1.397 . S
C4484 C4485 1.334 . S
C4485 H4462 0.950 . S
C4485 C4484 1.334 . S
C4485 C4486 1.287 . S
C4486 C4485 1.287 . S
C4486 C4487 1.524 . S
C4486 H4505 0.913 . S
C4487 H4463 0.950 . S
C4487 C4486 1.524 . S
C4487 C4488 1.415 . S
C4488 H4464 0.950 . S
C4488 C4483 1.363 . S
C4488 C4487 1.415 . S
C4489 H4465 0.951 . S
C4489 C4490 1.366 . S
C4489 C4491 1.388 . S
C4490 C4489 1.366 . S
C4490 C4494 1.385 . S
C4491 H4466 0.951 . S
C4491 C4489 1.388 . S
C4491 C4492 1.366 . S
C4492 C4491 1.366 . S
C4492 C4493 1.414 . S
C4492 C4495 1.499 . S
C4493 H4467 0.950 . S
C4493 C4492 1.414 . S
C4493 C4494 1.374 . S
C4494 H4468 0.950 . S
C4494 C4490 1.385 . S
C4494 C4493 1.374 . S
C4495 C4492 1.499 . S
C4495 C4496 1.373 . S
C4495 C4497 1.389 . S
C4496 H4469 0.950 . S
C4496 C4482 1.377 . S
C4496 C4495 1.373 . S
C4497 C4481 1.377 . S
C4497 C4495 1.389 . S
C4497 C4498 1.524 . S
C4498 C4497 1.524 . S
C4498 C4499 1.397 . S
C4498 C4503 1.363 . S
C4499 H4470 0.950 . S
C4499 C4498 1.397 . S
C4499 C4500 1.334 . S
C4500 H4471 0.950 . S
C4500 C4499 1.334 . S
C4500 C4501 1.287 . S
C4501 C4500 1.287 . S
C4501 C4502 1.524 . S
C4501 H4504 0.999 . S
C4502 H4472 0.950 . S
C4502 C4501 1.524 . S
C4502 C4503 1.415 . S
C4503 H4473 0.950 . S
C4503 C4498 1.363 . S
C4503 C4502 1.415 . S
H4504 C4501 0.999 . S
H4505 C4486 0.913 . S
H4506 C4524 0.951 . S
H4507 C4526 0.951 . S
H4508 C4528 0.950 . S
H4509 C4529 0.950 . S
H4510 C4531 0.950 . S
H4511 C4534 0.950 . S
H4512 C4535 0.950 . S
H4513 C4537 0.950 . S
H4514 C4538 0.950 . S
H4515 C4539 0.951 . S
H4516 C4541 0.951 . S
H4517 C4543 0.950 . S
H4518 C4544 0.950 . S
H4519 C4546 0.950 . S
H4520 C4549 0.950 . S
H4521 C4550 0.950 . S
H4522 C4552 0.950 . S
H4523 C4553 0.950 . S
C4524 H4506 0.951 . S
C4524 C4525 1.366 . S
C4524 C4526 1.388 . S
C4525 C4524 1.366 . S
C4525 C4529 1.385 . S
C4526 H4507 0.951 . S
C4526 C4524 1.388 . S
C4526 C4527 1.366 . S
C4527 C4526 1.366 . S
C4527 C4528 1.414 . S
C4527 C4530 1.499 . S
C4528 H4508 0.950 . S
C4528 C4527 1.414 . S
C4528 C4529 1.374 . S
C4529 H4509 0.950 . S
C4529 C4525 1.385 . S
C4529 C4528 1.374 . S
C4530 C4527 1.499 . S
C4530 C4531 1.373 . S
C4530 C4532 1.389 . S
C4531 H4510 0.950 . S
C4531 C4530 1.373 . S
C4531 C4547 1.377 . S
C4532 C4530 1.389 . S
C4532 C4533 1.524 . S
C4532 C4546 1.377 . S
C4533 C4532 1.524 . S
C4533 C4534 1.397 . S
C4533 C4538 1.363 . S
C4534 H4511 0.950 . S
C4534 C4533 1.397 . S
C4534 C4535 1.334 . S
C4535 H4512 0.950 . S
C4535 C4534 1.334 . S
C4535 C4536 1.287 . S
C4536 C4535 1.287 . S
C4536 C4537 1.524 . S
C4536 H4555 0.913 . S
C4537 H4513 0.950 . S
C4537 C4536 1.524 . S
C4537 C4538 1.415 . S
C4538 H4514 0.950 . S
C4538 C4533 1.363 . S
C4538 C4537 1.415 . S
C4539 H4515 0.951 . S
C4539 C4540 1.366 . S
C4539 C4541 1.388 . S
C4540 C4539 1.366 . S
C4540 C4544 1.385 . S
C4541 H4516 0.951 . S
C4541 C4539 1.388 . S
C4541 C4542 1.366 . S
C4542 C4541 1.366 . S
C4542 C4543 1.414 . S
C4542 C4545 1.499 . S
C4543 H4517 0.950 . S
C4543 C4542 1.414 . S
C4543 C4544 1.374 . S
C4544 H4518 0.950 . S
C4544 C4540 1.385 . S
C4544 C4543 1.374 . S
C4545 C4542 1.499 . S
C4545 C4546 1.373 . S
C4545 C4547 1.389 . S
C4546 H4519 0.950 . S
C4546 C4532 1.377 . S
C4546 C4545 1.373 . S
C4547 C4531 1.377 . S
C4547 C4545 1.389 . S
C4547 C4548 1.524 . S
C4548 C4547 1.524 . S
C4548 C4549 1.397 . S
C4548 C4553 1.363 . S
C4549 H4520 0.950 . S
C4549 C4548 1.397 . S
C4549 C4550 1.334 . S
C4550 H4521 0.950 . S
C4550 C4549 1.334 . S
C4550 C4551 1.287 . S
C4551 C4550 1.287 . S
C4551 C4552 1.524 . S
C4551 H4554 0.999 . S
C4552 H4522 0.950 . S
C4552 C4551 1.524 . S
C4552 C4553 1.415 . S
C4553 H4523 0.950 . S
C4553 C4548 1.363 . S
C4553 C4552 1.415 . S
H4554 C4551 0.999 . S
H4555 C4536 0.913 . S
H4556 C4574 0.951 . S
H4557 C4576 0.951 . S
H4558 C4578 0.950 . S
H4559 C4579 0.950 . S
H4560 C4581 0.950 . S
H4561 C4584 0.950 . S
H4562 C4585 0.950 . S
H4563 C4587 0.950 . S
H4564 C4588 0.950 . S
H4565 C4589 0.951 . S
H4566 C4591 0.951 . S
H4567 C4593 0.950 . S
H4568 C4594 0.950 . S
H4569 C4596 0.950 . S
H4570 C4599 0.950 . S
H4571 C4600 0.950 . S
H4572 C4602 0.950 . S
H4573 C4603 0.950 . S
C4574 H4556 0.951 . S
C4574 C4575 1.366 . S
C4574 C4576 1.388 . S
C4575 C4574 1.366 . S
C4575 C4579 1.385 . S
C4576 H4557 0.951 . S
C4576 C4574 1.388 . S
C4576 C4577 1.366 . S
C4577 C4576 1.366 . S
C4577 C4578 1.414 . S
C4577 C4580 1.499 . S
C4578 H4558 0.950 . S
C4578 C4577 1.414 . S
C4578 C4579 1.374 . S
C4579 H4559 0.950 . S
C4579 C4575 1.385 . S
C4579 C4578 1.374 . S
C4580 C4577 1.499 . S
C4580 C4581 1.373 . S
C4580 C4582 1.389 . S
C4581 H4560 0.950 . S
C4581 C4580 1.373 . S
C4581 C4597 1.377 . S
C4582 C4580 1.389 . S
C4582 C4583 1.524 . S
C4582 C4596 1.377 . S
C4583 C4582 1.524 . S
C4583 C4584 1.397 . S
C4583 C4588 1.363 . S
C4584 H4561 0.950 . S
C4584 C4583 1.397 . S
C4584 C4585 1.334 . S
C4585 H4562 0.950 . S
C4585 C4584 1.334 . S
C4585 C4586 1.287 . S
C4586 C4585 1.287 . S
C4586 C4587 1.524 . S
C4586 H4605 0.913 . S
C4587 H4563 0.950 . S
C4587 C4586 1.524 . S
C4587 C4588 1.415 . S
C4588 H4564 0.950 . S
C4588 C4583 1.363 . S
C4588 C4587 1.415 . S
C4589 H4565 0.951 . S
C4589 C4590 1.366 . S
C4589 C4591 1.388 . S
C4590 C4589 1.366 . S
C4590 C4594 1.385 . S
C4591 H4566 0.951 . S
C4591 C4589 1.388 . S
C4591 C4592 1.366 . S
C4592 C4591 1.366 . S
C4592 C4593 1.414 . S
C4592 C4595 1.499 . S
C4593 H4567 0.950 . S
C4593 C4592 1.414 . S
C4593 C4594 1.374 . S
C4594 H4568 0.950 . S
C4594 C4590 1.385 . S
C4594 C4593 1.374 . S
C4595 C4592 1.499 . S
C4595 C4596 1.373 . S
C4595 C4597 1.389 . S
C4596 H4569 0.950 . S
C4596 C4582 1.377 . S
C4596 C4595 1.373 . S
C4597 C4581 1.377 . S
C4597 C4595 1.389 . S
C4597 C4598 1.524 . S
C4598 C4597 1.524 . S
C4598 C4599 1.397 . S
C4598 C4603 1.363 . S
C4599 H4570 0.950 . S
C4599 C4598 1.397 . S
C4599 C4600 1.334 . S
C4600 H4571 0.950 . S
C4600 C4599 1.334 . S
C4600 C4601 1.287 . S
C4601 C4600 1.287 . S
C4601 C4602 1.524 . S
C4601 H4604 0.999 . S
C4602 H4572 0.950 . S
C4602 C4601 1.524 . S
C4602 C4603 1.415 . S
C4603 H4573 0.950 . S
C4603 C4598 1.363 . S
C4603 C4602 1.415 . S
H4604 C4601 0.999 . S
H4605 C4586 0.913 . S
H4606 C4624 0.951 . S
H4607 C4626 0.951 . S
H4608 C4628 0.950 . S
H4609 C4629 0.950 . S
H4610 C4631 0.950 . S
H4611 C4634 0.950 . S
H4612 C4635 0.950 . S
H4613 C4637 0.950 . S
H4614 C4638 0.950 . S
H4615 C4639 0.951 . S
H4616 C4641 0.951 . S
H4617 C4643 0.950 . S
H4618 C4644 0.950 . S
H4619 C4646 0.950 . S
H4620 C4649 0.950 . S
H4621 C4650 0.950 . S
H4622 C4652 0.950 . S
H4623 C4653 0.950 . S
C4624 H4606 0.951 . S
C4624 C4625 1.366 . S
C4624 C4626 1.388 . S
C4625 C4624 1.366 . S
C4625 C4629 1.385 . S
C4626 H4607 0.951 . S
C4626 C4624 1.388 . S
C4626 C4627 1.366 . S
C4627 C4626 1.366 . S
C4627 C4628 1.414 . S
C4627 C4630 1.499 . S
C4628 H4608 0.950 . S
C4628 C4627 1.414 . S
C4628 C4629 1.374 . S
C4629 H4609 0.950 . S
C4629 C4625 1.385 . S
C4629 C4628 1.374 . S
C4630 C4627 1.499 . S
C4630 C4631 1.373 . S
C4630 C4632 1.389 . S
C4631 H4610 0.950 . S
C4631 C4630 1.373 . S
C4631 C4647 1.377 . S
C4632 C4630 1.389 . S
C4632 C4633 1.524 . S
C4632 C4646 1.377 . S
C4633 C4632 1.524 . S
C4633 C4634 1.397 . S
C4633 C4638 1.363 . S
C4634 H4611 0.950 . S
C4634 C4633 1.397 . S
C4634 C4635 1.334 . S
C4635 H4612 0.950 . S
C4635 C4634 1.334 . S
C4635 C4636 1.287 . S
C4636 C4635 1.287 . S
C4636 C4637 1.524 . S
C4636 H4655 0.913 . S
C4637 H4613 0.950 . S
C4637 C4636 1.524 . S
C4637 C4638 1.415 . S
C4638 H4614 0.950 . S
C4638 C4633 1.363 . S
C4638 C4637 1.415 . S
C4639 H4615 0.951 . S
C4639 C4640 1.366 . S
C4639 C4641 1.388 . S
C4640 C4639 1.366 . S
C4640 C4644 1.385 . S
C4641 H4616 0.951 . S
C4641 C4639 1.388 . S
C4641 C4642 1.366 . S
C4642 C4641 1.366 . S
C4642 C4643 1.414 . S
C4642 C4645 1.499 . S
C4643 H4617 0.950 . S
C4643 C4642 1.414 . S
C4643 C4644 1.374 . S
C4644 H4618 0.950 . S
C4644 C4640 1.385 . S
C4644 C4643 1.374 . S
C4645 C4642 1.499 . S
C4645 C4646 1.373 . S
C4645 C4647 1.389 . S
C4646 H4619 0.950 . S
C4646 C4632 1.377 . S
C4646 C4645 1.373 . S
C4647 C4631 1.377 . S
C4647 C4645 1.389 . S
C4647 C4648 1.524 . S
C4648 C4647 1.524 . S
C4648 C4649 1.397 . S
C4648 C4653 1.363 . S
C4649 H4620 0.950 . S
C4649 C4648 1.397 . S
C4649 C4650 1.334 . S
C4650 H4621 0.950 . S
C4650 C4649 1.334 . S
C4650 C4651 1.287 . S
C4651 C4650 1.287 . S
C4651 C4652 1.524 . S
C4651 H4654 0.999 . S
C4652 H4622 0.950 . S
C4652 C4651 1.524 . S
C4652 C4653 1.415 . S
C4653 H4623 0.950 . S
C4653 C4648 1.363 . S
C4653 C4652 1.415 . S
H4654 C4651 0.999 . S
H4655 C4636 0.913 . S
H4656 C4674 0.951 . S
H4657 C4676 0.951 . S
H4658 C4678 0.950 . S
H4659 C4679 0.950 . S
H4660 C4681 0.950 . S
H4661 C4684 0.950 . S
H4662 C4685 0.950 . S
H4663 C4687 0.950 . S
H4664 C4688 0.950 . S
H4665 C4689 0.951 . S
H4666 C4691 0.951 . S
H4667 C4693 0.950 . S
H4668 C4694 0.950 . S
H4669 C4696 0.950 . S
H4670 C4699 0.950 . S
H4671 C4700 0.950 . S
H4672 C4702 0.950 . S
H4673 C4703 0.950 . S
C4674 H4656 0.951 . S
C4674 C4675 1.366 . S
C4674 C4676 1.388 . S
C4675 C4674 1.366 . S
C4675 C4679 1.385 . S
C4676 H4657 0.951 . S
C4676 C4674 1.388 . S
C4676 C4677 1.366 . S
C4677 C4676 1.366 . S
C4677 C4678 1.414 . S
C4677 C4680 1.499 . S
C4678 H4658 0.950 . S
C4678 C4677 1.414 . S
C4678 C4679 1.374 . S
C4679 H4659 0.950 . S
C4679 C4675 1.385 . S
C4679 C4678 1.374 . S
C4680 C4677 1.499 . S
C4680 C4681 1.373 . S
C4680 C4682 1.389 . S
C4681 H4660 0.950 . S
C4681 C4680 1.373 . S
C4681 C4697 1.377 . S
C4682 C4680 1.389 . S
C4682 C4683 1.524 . S
C4682 C4696 1.377 . S
C4683 C4682 1.524 . S
C4683 C4684 1.397 . S
C4683 C4688 1.363 1_455 S
C4684 H4661 0.950 . S
C4684 C4683 1.397 . S
C4684 C4685 1.334 . S
C4685 H4662 0.950 . S
C4685 C4684 1.334 . S
C4685 C4686 1.287 1_455 S
C4686 C4685 1.287 1_655 S
C4686 C4687 1.524 . S
C4686 H4705 0.913 . S
C4687 H4663 0.950 . S
C4687 C4686 1.524 . S
C4687 C4688 1.415 . S
C4688 H4664 0.950 . S
C4688 C4683 1.363 1_655 S
C4688 C4687 1.415 . S
C4689 H4665 0.951 . S
C4689 C4690 1.366 . S
C4689 C4691 1.388 . S
C4690 C4689 1.366 . S
C4690 C4694 1.385 . S
C4691 H4666 0.951 . S
C4691 C4689 1.388 . S
C4691 C4692 1.366 . S
C4692 C4691 1.366 . S
C4692 C4693 1.414 . S
C4692 C4695 1.499 . S
C4693 H4667 0.950 . S
C4693 C4692 1.414 . S
C4693 C4694 1.374 . S
C4694 H4668 0.950 . S
C4694 C4690 1.385 . S
C4694 C4693 1.374 . S
C4695 C4692 1.499 . S
C4695 C4696 1.373 . S
C4695 C4697 1.389 . S
C4696 H4669 0.950 . S
C4696 C4682 1.377 . S
C4696 C4695 1.373 . S
C4697 C4681 1.377 . S
C4697 C4695 1.389 . S
C4697 C4698 1.524 . S
C4698 C4697 1.524 . S
C4698 C4699 1.397 . S
C4698 C4703 1.363 . S
C4699 H4670 0.950 . S
C4699 C4698 1.397 . S
C4699 C4700 1.334 . S
C4700 H4671 0.950 . S
C4700 C4699 1.334 . S
C4700 C4701 1.287 . S
C4701 C4700 1.287 . S
C4701 C4702 1.524 . S
C4701 H4704 0.999 . S
C4702 H4672 0.950 . S
C4702 C4701 1.524 . S
C4702 C4703 1.415 . S
C4703 H4673 0.950 . S
C4703 C4698 1.363 . S
C4703 C4702 1.415 . S
H4704 C4701 0.999 . S
H4705 C4686 0.913 . S
H4706 C4724 0.951 . S
H4707 C4726 0.951 . S
H4708 C4728 0.950 . S
H4709 C4729 0.950 . S
H4710 C4731 0.950 . S
H4711 C4734 0.950 . S
H4712 C4735 0.950 . S
H4713 C4737 0.950 . S
H4714 C4738 0.950 . S
H4715 C4739 0.951 . S
H4716 C4741 0.951 . S
H4717 C4743 0.950 . S
H4718 C4744 0.950 . S
H4719 C4746 0.950 . S
H4720 C4749 0.950 . S
H4721 C4750 0.950 . S
H4722 C4752 0.950 . S
H4723 C4753 0.950 . S
C4724 H4706 0.951 . S
C4724 C4725 1.366 . S
C4724 C4726 1.388 . S
C4725 C4724 1.366 . S
C4725 C4729 1.385 . S
C4726 H4707 0.951 . S
C4726 C4724 1.388 . S
C4726 C4727 1.366 . S
C4727 C4726 1.366 . S
C4727 C4728 1.414 . S
C4727 C4730 1.499 . S
C4728 H4708 0.950 . S
C4728 C4727 1.414 . S
C4728 C4729 1.374 . S
C4729 H4709 0.950 . S
C4729 C4725 1.385 . S
C4729 C4728 1.374 . S
C4730 C4727 1.499 . S
C4730 C4731 1.373 . S
C4730 C4732 1.389 . S
C4731 H4710 0.950 . S
C4731 C4730 1.373 . S
C4731 C4747 1.377 . S
C4732 C4730 1.389 . S
C4732 C4733 1.524 . S
C4732 C4746 1.377 . S
C4733 C4732 1.524 . S
C4733 C4734 1.397 . S
C4733 C4738 1.363 . S
C4734 H4711 0.950 . S
C4734 C4733 1.397 . S
C4734 C4735 1.334 . S
C4735 H4712 0.950 . S
C4735 C4734 1.334 . S
C4735 C4736 1.287 . S
C4736 C4735 1.287 . S
C4736 C4737 1.524 . S
C4736 H4755 0.913 . S
C4737 H4713 0.950 . S
C4737 C4736 1.524 . S
C4737 C4738 1.415 . S
C4738 H4714 0.950 . S
C4738 C4733 1.363 . S
C4738 C4737 1.415 . S
C4739 H4715 0.951 . S
C4739 C4740 1.366 . S
C4739 C4741 1.388 . S
C4740 C4739 1.366 . S
C4740 C4744 1.385 . S
C4741 H4716 0.951 . S
C4741 C4739 1.388 . S
C4741 C4742 1.366 . S
C4742 C4741 1.366 . S
C4742 C4743 1.414 . S
C4742 C4745 1.499 . S
C4743 H4717 0.950 . S
C4743 C4742 1.414 . S
C4743 C4744 1.374 . S
C4744 H4718 0.950 . S
C4744 C4740 1.385 . S
C4744 C4743 1.374 . S
C4745 C4742 1.499 . S
C4745 C4746 1.373 . S
C4745 C4747 1.389 . S
C4746 H4719 0.950 . S
C4746 C4732 1.377 . S
C4746 C4745 1.373 . S
C4747 C4731 1.377 . S
C4747 C4745 1.389 . S
C4747 C4748 1.524 . S
C4748 C4747 1.524 . S
C4748 C4749 1.397 . S
C4748 C4753 1.363 . S
C4749 H4720 0.950 . S
C4749 C4748 1.397 . S
C4749 C4750 1.334 . S
C4750 H4721 0.950 . S
C4750 C4749 1.334 . S
C4750 C4751 1.287 . S
C4751 C4750 1.287 . S
C4751 C4752 1.524 . S
C4751 H4754 0.999 . S
C4752 H4722 0.950 . S
C4752 C4751 1.524 . S
C4752 C4753 1.415 . S
C4753 H4723 0.950 . S
C4753 C4748 1.363 . S
C4753 C4752 1.415 . S
H4754 C4751 0.999 . S
H4755 C4736 0.913 . S
H4756 C4774 0.951 . S
H4757 C4776 0.951 . S
H4758 C4778 0.950 . S
H4759 C4779 0.950 . S
H4760 C4781 0.950 . S
H4761 C4784 0.950 . S
H4762 C4785 0.950 . S
H4763 C4787 0.950 . S
H4764 C4788 0.950 . S
H4765 C4789 0.951 . S
H4766 C4791 0.951 . S
H4767 C4793 0.950 . S
H4768 C4794 0.950 . S
H4769 C4796 0.950 . S
H4770 C4799 0.950 . S
H4771 C4800 0.950 . S
H4772 C4802 0.950 . S
H4773 C4803 0.950 . S
C4774 H4756 0.951 . S
C4774 C4775 1.366 . S
C4774 C4776 1.388 . S
C4775 C4774 1.366 . S
C4775 C4779 1.385 . S
C4776 H4757 0.951 . S
C4776 C4774 1.388 . S
C4776 C4777 1.366 . S
C4777 C4776 1.366 . S
C4777 C4778 1.414 . S
C4777 C4780 1.499 . S
C4778 H4758 0.950 . S
C4778 C4777 1.414 . S
C4778 C4779 1.374 . S
C4779 H4759 0.950 . S
C4779 C4775 1.385 . S
C4779 C4778 1.374 . S
C4780 C4777 1.499 . S
C4780 C4781 1.373 . S
C4780 C4782 1.389 . S
C4781 H4760 0.950 . S
C4781 C4780 1.373 . S
C4781 C4797 1.377 . S
C4782 C4780 1.389 . S
C4782 C4783 1.524 . S
C4782 C4796 1.377 . S
C4783 C4782 1.524 . S
C4783 C4784 1.397 . S
C4783 C4788 1.363 . S
C4784 H4761 0.950 . S
C4784 C4783 1.397 . S
C4784 C4785 1.334 . S
C4785 H4762 0.950 . S
C4785 C4784 1.334 . S
C4785 C4786 1.287 . S
C4786 C4785 1.287 . S
C4786 C4787 1.524 . S
C4786 H4805 0.913 . S
C4787 H4763 0.950 . S
C4787 C4786 1.524 . S
C4787 C4788 1.415 . S
C4788 H4764 0.950 . S
C4788 C4783 1.363 . S
C4788 C4787 1.415 . S
C4789 H4765 0.951 . S
C4789 C4790 1.366 . S
C4789 C4791 1.388 . S
C4790 C4789 1.366 . S
C4790 C4794 1.385 . S
C4791 H4766 0.951 . S
C4791 C4789 1.388 . S
C4791 C4792 1.366 . S
C4792 C4791 1.366 . S
C4792 C4793 1.414 . S
C4792 C4795 1.499 . S
C4793 H4767 0.950 . S
C4793 C4792 1.414 . S
C4793 C4794 1.374 . S
C4794 H4768 0.950 . S
C4794 C4790 1.385 . S
C4794 C4793 1.374 . S
C4795 C4792 1.499 . S
C4795 C4796 1.373 . S
C4795 C4797 1.389 . S
C4796 H4769 0.950 . S
C4796 C4782 1.377 . S
C4796 C4795 1.373 . S
C4797 C4781 1.377 . S
C4797 C4795 1.389 . S
C4797 C4798 1.524 . S
C4798 C4797 1.524 . S
C4798 C4799 1.397 . S
C4798 C4803 1.363 . S
C4799 H4770 0.950 . S
C4799 C4798 1.397 . S
C4799 C4800 1.334 . S
C4800 H4771 0.950 . S
C4800 C4799 1.334 . S
C4800 C4801 1.287 . S
C4801 C4800 1.287 . S
C4801 C4802 1.524 . S
C4801 H4804 0.999 . S
C4802 H4772 0.950 . S
C4802 C4801 1.524 . S
C4802 C4803 1.415 . S
C4803 H4773 0.950 . S
C4803 C4798 1.363 . S
C4803 C4802 1.415 . S
H4804 C4801 0.999 . S
H4805 C4786 0.913 . S
H4806 C4824 0.951 . S
H4807 C4826 0.951 . S
H4808 C4828 0.950 . S
H4809 C4829 0.950 . S
H4810 C4831 0.950 . S
H4811 C4834 0.950 . S
H4812 C4835 0.950 . S
H4813 C4837 0.950 . S
H4814 C4838 0.950 . S
H4815 C4839 0.951 . S
H4816 C4841 0.951 . S
H4817 C4843 0.950 . S
H4818 C4844 0.950 . S
H4819 C4846 0.950 . S
H4820 C4849 0.950 . S
H4821 C4850 0.950 . S
H4822 C4852 0.950 . S
H4823 C4853 0.950 . S
C4824 H4806 0.951 . S
C4824 C4825 1.366 . S
C4824 C4826 1.388 . S
C4825 C4824 1.366 . S
C4825 C4829 1.385 . S
C4826 H4807 0.951 . S
C4826 C4824 1.388 . S
C4826 C4827 1.366 . S
C4827 C4826 1.366 . S
C4827 C4828 1.414 . S
C4827 C4830 1.499 . S
C4828 H4808 0.950 . S
C4828 C4827 1.414 . S
C4828 C4829 1.374 . S
C4829 H4809 0.950 . S
C4829 C4825 1.385 . S
C4829 C4828 1.374 . S
C4830 C4827 1.499 . S
C4830 C4831 1.373 . S
C4830 C4832 1.389 . S
C4831 H4810 0.950 . S
C4831 C4830 1.373 . S
C4831 C4847 1.377 . S
C4832 C4830 1.389 . S
C4832 C4833 1.524 . S
C4832 C4846 1.377 . S
C4833 C4832 1.524 . S
C4833 C4834 1.397 . S
C4833 C4838 1.363 . S
C4834 H4811 0.950 . S
C4834 C4833 1.397 . S
C4834 C4835 1.334 . S
C4835 H4812 0.950 . S
C4835 C4834 1.334 . S
C4835 C4836 1.287 . S
C4836 C4835 1.287 . S
C4836 C4837 1.524 . S
C4836 H4855 0.913 . S
C4837 H4813 0.950 . S
C4837 C4836 1.524 . S
C4837 C4838 1.415 . S
C4838 H4814 0.950 . S
C4838 C4833 1.363 . S
C4838 C4837 1.415 . S
C4839 H4815 0.951 . S
C4839 C4840 1.366 . S
C4839 C4841 1.388 . S
C4840 C4839 1.366 . S
C4840 C4844 1.385 . S
C4841 H4816 0.951 . S
C4841 C4839 1.388 . S
C4841 C4842 1.366 . S
C4842 C4841 1.366 . S
C4842 C4843 1.414 . S
C4842 C4845 1.499 . S
C4843 H4817 0.950 . S
C4843 C4842 1.414 . S
C4843 C4844 1.374 . S
C4844 H4818 0.950 . S
C4844 C4840 1.385 . S
C4844 C4843 1.374 . S
C4845 C4842 1.499 . S
C4845 C4846 1.373 . S
C4845 C4847 1.389 . S
C4846 H4819 0.950 . S
C4846 C4832 1.377 . S
C4846 C4845 1.373 . S
C4847 C4831 1.377 . S
C4847 C4845 1.389 . S
C4847 C4848 1.524 . S
C4848 C4847 1.524 . S
C4848 C4849 1.397 . S
C4848 C4853 1.363 . S
C4849 H4820 0.950 . S
C4849 C4848 1.397 . S
C4849 C4850 1.334 . S
C4850 H4821 0.950 . S
C4850 C4849 1.334 . S
C4850 C4851 1.287 . S
C4851 C4850 1.287 . S
C4851 C4852 1.524 . S
C4851 H4854 0.999 . S
C4852 H4822 0.950 . S
C4852 C4851 1.524 . S
C4852 C4853 1.415 . S
C4853 H4823 0.950 . S
C4853 C4848 1.363 . S
C4853 C4852 1.415 . S
H4854 C4851 0.999 . S
H4855 C4836 0.913 . S
H4856 C4874 0.951 . S
H4857 C4876 0.951 . S
H4858 C4878 0.950 . S
H4859 C4879 0.950 . S
H4860 C4881 0.950 . S
H4861 C4884 0.950 . S
H4862 C4885 0.950 . S
H4863 C4887 0.950 . S
H4864 C4888 0.950 . S
H4865 C4889 0.951 1_655 S
H4866 C4891 0.962 . S
H4867 C4893 0.950 . S
H4868 C4894 0.950 . S
H4869 C4896 0.950 . S
H4870 C4899 0.950 . S
H4871 C4900 0.950 . S
H4872 C4902 0.950 . S
H4873 C4903 0.950 . S
C4874 H4856 0.951 . S
C4874 C4875 1.366 . S
C4874 C4876 1.388 . S
C4875 C4874 1.366 . S
C4875 C4879 1.385 . S
C4876 H4857 0.951 . S
C4876 C4874 1.388 . S
C4876 C4877 1.366 . S
C4877 C4876 1.366 . S
C4877 C4878 1.414 . S
C4877 C4880 1.499 . S
C4878 H4858 0.950 . S
C4878 C4877 1.414 . S
C4878 C4879 1.374 . S
C4879 H4859 0.950 . S
C4879 C4875 1.385 . S
C4879 C4878 1.374 . S
C4880 C4877 1.499 . S
C4880 C4881 1.373 . S
C4880 C4882 1.389 . S
C4881 H4860 0.950 . S
C4881 C4880 1.373 . S
C4881 C4897 1.377 . S
C4882 C4880 1.389 . S
C4882 C4883 1.524 . S
C4882 C4896 1.377 . S
C4883 C4882 1.524 . S
C4883 C4884 1.397 . S
C4883 C4888 1.363 . S
C4884 H4861 0.950 . S
C4884 C4883 1.397 . S
C4884 C4885 1.334 . S
C4885 H4862 0.950 . S
C4885 C4884 1.334 . S
C4885 C4886 1.287 . S
C4886 C4885 1.287 . S
C4886 C4887 1.524 . S
C4886 H4905 0.913 . S
C4887 H4863 0.950 . S
C4887 C4886 1.524 . S
C4887 C4888 1.415 . S
C4888 H4864 0.950 . S
C4888 C4883 1.363 . S
C4888 C4887 1.415 . S
C4889 H4865 0.951 1_455 S
C4889 C4890 1.366 . S
C4889 C4891 1.388 . S
C4890 C4889 1.366 . S
C4890 C4894 1.385 . S
C4891 H4866 0.962 . S
C4891 C4889 1.388 . S
C4891 C4892 1.366 . S
C4892 C4891 1.366 . S
C4892 C4893 1.414 . S
C4892 C4895 1.499 . S
C4893 H4867 0.950 . S
C4893 C4892 1.414 . S
C4893 C4894 1.374 . S
C4894 H4868 0.950 . S
C4894 C4890 1.385 . S
C4894 C4893 1.374 . S
C4895 C4892 1.499 . S
C4895 C4896 1.373 . S
C4895 C4897 1.389 . S
C4896 H4869 0.950 . S
C4896 C4882 1.377 . S
C4896 C4895 1.373 . S
C4897 C4881 1.377 . S
C4897 C4895 1.389 . S
C4897 C4898 1.524 . S
C4898 C4897 1.524 . S
C4898 C4899 1.397 . S
C4898 C4903 1.363 1_455 S
C4899 H4870 0.950 . S
C4899 C4898 1.397 . S
C4899 C4900 1.334 . S
C4900 H4871 0.950 . S
C4900 C4899 1.334 . S
C4900 C4901 1.287 . S
C4901 C4900 1.287 . S
C4901 C4902 1.524 1_455 S
C4901 H4904 0.999 . S
C4902 H4872 0.950 . S
C4902 C4901 1.524 1_655 S
C4902 C4903 1.415 . S
C4903 H4873 0.950 . S
C4903 C4898 1.363 1_655 S
C4903 C4902 1.415 . S
H4904 C4901 0.999 . S
H4905 C4886 0.913 . S
H4906 C4924 0.951 . S
H4907 C4926 0.951 . S
H4908 C4928 0.950 . S
H4909 C4929 0.950 . S
H4910 C4931 0.950 . S
H4911 C4934 0.950 . S
H4912 C4935 0.950 . S
H4913 C4937 0.950 . S
H4914 C4938 0.950 . S
H4915 C4939 0.951 . S
H4916 C4941 0.951 . S
H4917 C4943 0.950 . S
H4918 C4944 0.950 . S
H4919 C4946 0.950 . S
H4920 C4949 0.950 . S
H4921 C4950 0.950 . S
H4922 C4952 0.950 . S
H4923 C4953 0.950 . S
C4924 H4906 0.951 . S
C4924 C4925 1.366 . S
C4924 C4926 1.388 . S
C4925 C4924 1.366 . S
C4925 C4929 1.385 . S
C4926 H4907 0.951 . S
C4926 C4924 1.388 . S
C4926 C4927 1.366 . S
C4927 C4926 1.366 . S
C4927 C4928 1.414 . S
C4927 C4930 1.499 . S
C4928 H4908 0.950 . S
C4928 C4927 1.414 . S
C4928 C4929 1.374 . S
C4929 H4909 0.950 . S
C4929 C4925 1.385 . S
C4929 C4928 1.374 . S
C4930 C4927 1.499 . S
C4930 C4931 1.373 . S
C4930 C4932 1.389 . S
C4931 H4910 0.950 . S
C4931 C4930 1.373 . S
C4931 C4947 1.377 . S
C4932 C4930 1.389 . S
C4932 C4933 1.524 . S
C4932 C4946 1.377 . S
C4933 C4932 1.524 . S
C4933 C4934 1.397 . S
C4933 C4938 1.363 . S
C4934 H4911 0.950 . S
C4934 C4933 1.397 . S
C4934 C4935 1.334 . S
C4935 H4912 0.950 . S
C4935 C4934 1.334 . S
C4935 C4936 1.287 . S
C4936 C4935 1.287 . S
C4936 C4937 1.524 . S
C4936 H4955 0.913 . S
C4937 H4913 0.950 . S
C4937 C4936 1.524 . S
C4937 C4938 1.415 . S
C4938 H4914 0.950 . S
C4938 C4933 1.363 . S
C4938 C4937 1.415 . S
C4939 H4915 0.951 . S
C4939 C4940 1.366 . S
C4939 C4941 1.388 . S
C4940 C4939 1.366 . S
C4940 C4944 1.385 . S
C4941 H4916 0.951 . S
C4941 C4939 1.388 . S
C4941 C4942 1.366 . S
C4942 C4941 1.366 . S
C4942 C4943 1.414 . S
C4942 C4945 1.499 . S
C4943 H4917 0.950 . S
C4943 C4942 1.414 . S
C4943 C4944 1.374 . S
C4944 H4918 0.950 . S
C4944 C4940 1.385 . S
C4944 C4943 1.374 . S
C4945 C4942 1.499 . S
C4945 C4946 1.373 . S
C4945 C4947 1.389 . S
C4946 H4919 0.950 . S
C4946 C4932 1.377 . S
C4946 C4945 1.373 . S
C4947 C4931 1.377 . S
C4947 C4945 1.389 . S
C4947 C4948 1.524 . S
C4948 C4947 1.524 . S
C4948 C4949 1.397 . S
C4948 C4953 1.363 . S
C4949 H4920 0.950 . S
C4949 C4948 1.397 . S
C4949 C4950 1.334 . S
C4950 H4921 0.950 . S
C4950 C4949 1.334 . S
C4950 C4951 1.287 . S
C4951 C4950 1.287 . S
C4951 C4952 1.524 . S
C4951 H4954 0.999 . S
C4952 H4922 0.950 . S
C4952 C4951 1.524 . S
C4952 C4953 1.415 . S
C4953 H4923 0.950 . S
C4953 C4948 1.363 . S
C4953 C4952 1.415 . S
H4954 C4951 0.999 . S
H4955 C4936 0.913 . S
H4956 C4974 0.951 . S
H4957 C4976 0.951 . S
H4958 C4978 0.950 . S
H4959 C4979 0.950 . S
H4960 C4981 0.950 . S
H4961 C4984 0.950 . S
H4962 C4985 0.950 . S
H4963 C4987 0.950 . S
H4964 C4988 0.950 . S
H4965 C4989 0.951 1_554 S
H4966 C4991 0.951 . S
H4967 C4993 0.950 . S
H4968 C4994 0.950 . S
H4969 C4996 0.950 . S
H4970 C4999 0.950 . S
H4971 C5000 0.949 1_554 S
H4972 C5002 0.950 . S
H4973 C5003 0.950 . S
C4974 H4956 0.951 . S
C4974 C4975 1.366 . S
C4974 C4976 1.388 . S
C4975 C4974 1.366 . S
C4975 C4979 1.385 . S
C4976 H4957 0.951 . S
C4976 C4974 1.388 . S
C4976 C4977 1.366 . S
C4977 C4976 1.366 . S
C4977 C4978 1.414 . S
C4977 C4980 1.499 . S
C4978 H4958 0.950 . S
C4978 C4977 1.414 . S
C4978 C4979 1.374 . S
C4979 H4959 0.950 . S
C4979 C4975 1.385 . S
C4979 C4978 1.374 . S
C4980 C4977 1.499 . S
C4980 C4981 1.373 . S
C4980 C4982 1.389 . S
C4981 H4960 0.950 . S
C4981 C4980 1.373 . S
C4981 C4997 1.377 . S
C4982 C4980 1.389 . S
C4982 C4983 1.524 . S
C4982 C4996 1.377 . S
C4983 C4982 1.524 . S
C4983 C4984 1.397 . S
C4983 C4988 1.363 . S
C4984 H4961 0.950 . S
C4984 C4983 1.397 . S
C4984 C4985 1.334 . S
C4985 H4962 0.950 . S
C4985 C4984 1.334 . S
C4985 C4986 1.287 . S
C4986 C4985 1.287 . S
C4986 C4987 1.524 . S
C4986 H5005 0.913 . S
C4987 H4963 0.950 . S
C4987 C4986 1.524 . S
C4987 C4988 1.415 . S
C4988 H4964 0.950 . S
C4988 C4983 1.363 . S
C4988 C4987 1.415 . S
C4989 H4965 0.951 1_556 S
C4989 C4990 1.366 . S
C4989 C4991 1.388 . S
C4990 C4989 1.366 . S
C4990 C4994 1.385 . S
C4991 H4966 0.951 . S
C4991 C4989 1.388 . S
C4991 C4992 1.366 . S
C4992 C4991 1.366 . S
C4992 C4993 1.414 . S
C4992 C4995 1.499 . S
C4993 H4967 0.950 . S
C4993 C4992 1.414 . S
C4993 C4994 1.374 . S
C4994 H4968 0.950 . S
C4994 C4990 1.385 . S
C4994 C4993 1.374 . S
C4995 C4992 1.499 . S
C4995 C4996 1.373 . S
C4995 C4997 1.389 . S
C4996 H4969 0.950 . S
C4996 C4982 1.377 . S
C4996 C4995 1.373 . S
C4997 C4981 1.377 . S
C4997 C4995 1.389 . S
C4997 C4998 1.524 . S
C4998 C4997 1.524 . S
C4998 C4999 1.397 . S
C4998 C5003 1.363 . S
C4999 H4970 0.950 . S
C4999 C4998 1.397 . S
C4999 C5000 1.334 . S
C5000 H4971 0.949 1_556 S
C5000 C4999 1.334 . S
C5000 C5001 1.287 1_556 S
C5001 C5000 1.287 1_554 S
C5001 C5002 1.524 . S
C5001 H5004 0.999 . S
C5002 H4972 0.950 . S
C5002 C5001 1.524 . S
C5002 C5003 1.415 1_554 S
C5003 H4973 0.950 . S
C5003 C4998 1.363 . S
C5003 C5002 1.415 1_556 S
H5004 C5001 0.999 . S
H5005 C4986 0.913 . S
H5006 C5024 0.951 . S
H5007 C5026 0.951 . S
H5008 C5028 0.950 . S
H5009 C5029 0.950 . S
H5010 C5031 0.950 . S
H5011 C5034 0.950 . S
H5012 C5035 0.950 . S
H5013 C5037 0.950 . S
H5014 C5038 0.950 . S
H5015 C5039 0.951 . S
H5016 C5041 0.951 . S
H5017 C5043 0.950 . S
H5018 C5044 0.950 . S
H5019 C5046 0.950 . S
H5020 C5049 0.950 . S
H5021 C5050 0.950 . S
H5022 C5052 0.950 . S
H5023 C5053 0.950 . S
C5024 H5006 0.951 . S
C5024 C5025 1.366 . S
C5024 C5026 1.388 . S
C5025 C5024 1.366 . S
C5025 C5029 1.385 . S
C5026 H5007 0.951 . S
C5026 C5024 1.388 . S
C5026 C5027 1.366 . S
C5027 C5026 1.366 . S
C5027 C5028 1.414 . S
C5027 C5030 1.499 . S
C5028 H5008 0.950 . S
C5028 C5027 1.414 . S
C5028 C5029 1.374 . S
C5029 H5009 0.950 . S
C5029 C5025 1.385 . S
C5029 C5028 1.374 . S
C5030 C5027 1.499 . S
C5030 C5031 1.373 . S
C5030 C5032 1.389 . S
C5031 H5010 0.950 . S
C5031 C5030 1.373 . S
C5031 C5047 1.377 . S
C5032 C5030 1.389 . S
C5032 C5033 1.524 . S
C5032 C5046 1.377 . S
C5033 C5032 1.524 . S
C5033 C5034 1.397 . S
C5033 C5038 1.363 . S
C5034 H5011 0.950 . S
C5034 C5033 1.397 . S
C5034 C5035 1.334 . S
C5035 H5012 0.950 . S
C5035 C5034 1.334 . S
C5035 C5036 1.287 . S
C5036 C5035 1.287 . S
C5036 C5037 1.524 . S
C5036 H5055 0.913 . S
C5037 H5013 0.950 . S
C5037 C5036 1.524 . S
C5037 C5038 1.415 . S
C5038 H5014 0.950 . S
C5038 C5033 1.363 . S
C5038 C5037 1.415 . S
C5039 H5015 0.951 . S
C5039 C5040 1.366 . S
C5039 C5041 1.388 . S
C5040 C5039 1.366 . S
C5040 C5044 1.385 . S
C5041 H5016 0.951 . S
C5041 C5039 1.388 . S
C5041 C5042 1.366 . S
C5042 C5041 1.366 . S
C5042 C5043 1.414 . S
C5042 C5045 1.499 . S
C5043 H5017 0.950 . S
C5043 C5042 1.414 . S
C5043 C5044 1.374 . S
C5044 H5018 0.950 . S
C5044 C5040 1.385 . S
C5044 C5043 1.374 . S
C5045 C5042 1.499 . S
C5045 C5046 1.373 . S
C5045 C5047 1.389 . S
C5046 H5019 0.950 . S
C5046 C5032 1.377 . S
C5046 C5045 1.373 . S
C5047 C5031 1.377 . S
C5047 C5045 1.389 . S
C5047 C5048 1.524 . S
C5048 C5047 1.524 . S
C5048 C5049 1.397 . S
C5048 C5053 1.363 . S
C5049 H5020 0.950 . S
C5049 C5048 1.397 . S
C5049 C5050 1.334 . S
C5050 H5021 0.950 . S
C5050 C5049 1.334 . S
C5050 C5051 1.287 . S
C5051 C5050 1.287 . S
C5051 C5052 1.524 . S
C5051 H5054 0.999 . S
C5052 H5022 0.950 . S
C5052 C5051 1.524 . S
C5052 C5053 1.415 . S
C5053 H5023 0.950 . S
C5053 C5048 1.363 . S
C5053 C5052 1.415 . S
H5054 C5051 0.999 . S
H5055 C5036 0.913 . S
H5056 C5074 0.951 . S
H5057 C5076 0.951 . S
H5058 C5078 0.950 . S
H5059 C5079 0.950 . S
H5060 C5081 0.950 . S
H5061 C5084 0.950 . S
H5062 C5085 0.950 . S
H5063 C5087 0.950 . S
H5064 C5088 0.950 . S
H5065 C5089 0.951 . S
H5066 C5091 0.951 . S
H5067 C5093 0.950 . S
H5068 C5094 0.950 . S
H5069 C5096 0.950 1_565 S
H5070 C5099 0.950 . S
H5071 C5100 0.950 . S
H5072 C5102 0.950 . S
H5073 C5103 0.950 . S
C5074 H5056 0.951 . S
C5074 C5075 1.366 . S
C5074 C5076 1.388 . S
C5075 C5074 1.366 . S
C5075 C5079 1.385 . S
C5076 H5057 0.951 . S
C5076 C5074 1.388 . S
C5076 C5077 1.366 . S
C5077 C5076 1.366 . S
C5077 C5078 1.414 . S
C5077 C5080 1.499 . S
C5078 H5058 0.950 . S
C5078 C5077 1.414 . S
C5078 C5079 1.374 . S
C5079 H5059 0.950 . S
C5079 C5075 1.385 . S
C5079 C5078 1.374 . S
C5080 C5077 1.499 . S
C5080 C5081 1.373 . S
C5080 C5082 1.389 . S
C5081 H5060 0.950 . S
C5081 C5080 1.373 . S
C5081 C5097 1.377 . S
C5082 C5080 1.389 . S
C5082 C5083 1.524 1_545 S
C5082 C5096 1.377 . S
C5083 C5082 1.524 1_565 S
C5083 C5084 1.397 . S
C5083 C5088 1.363 . S
C5084 H5061 0.950 . S
C5084 C5083 1.397 . S
C5084 C5085 1.334 . S
C5085 H5062 0.950 . S
C5085 C5084 1.334 . S
C5085 C5086 1.287 . S
C5086 C5085 1.287 . S
C5086 C5087 1.524 . S
C5086 H5105 0.913 . S
C5087 H5063 0.950 . S
C5087 C5086 1.524 . S
C5087 C5088 1.415 . S
C5088 H5064 0.950 . S
C5088 C5083 1.363 . S
C5088 C5087 1.415 . S
C5089 H5065 0.951 . S
C5089 C5090 1.366 . S
C5089 C5091 1.388 . S
C5090 C5089 1.366 . S
C5090 C5094 1.385 . S
C5091 H5066 0.951 . S
C5091 C5089 1.388 . S
C5091 C5092 1.366 . S
C5092 C5091 1.366 . S
C5092 C5093 1.414 . S
C5092 C5095 1.499 . S
C5093 H5067 0.950 . S
C5093 C5092 1.414 . S
C5093 C5094 1.374 . S
C5094 H5068 0.950 . S
C5094 C5090 1.385 . S
C5094 C5093 1.374 . S
C5095 C5092 1.499 . S
C5095 C5096 1.373 . S
C5095 C5097 1.389 . S
C5096 H5069 0.950 1_545 S
C5096 C5082 1.377 . S
C5096 C5095 1.373 . S
C5097 C5081 1.377 . S
C5097 C5095 1.389 . S
C5097 C5098 1.524 . S
C5098 C5097 1.524 . S
C5098 C5099 1.397 . S
C5098 C5103 1.363 . S
C5099 H5070 0.950 . S
C5099 C5098 1.397 . S
C5099 C5100 1.334 . S
C5100 H5071 0.950 . S
C5100 C5099 1.334 . S
C5100 C5101 1.287 . S
C5101 C5100 1.287 . S
C5101 C5102 1.524 . S
C5101 H5104 0.999 . S
C5102 H5072 0.950 . S
C5102 C5101 1.524 . S
C5102 C5103 1.415 . S
C5103 H5073 0.950 . S
C5103 C5098 1.363 . S
C5103 C5102 1.415 . S
H5104 C5101 0.999 . S
H5105 C5086 0.913 . S
H5106 C5124 0.951 . S
H5107 C5126 0.951 . S
H5108 C5128 0.950 . S
H5109 C5129 0.950 . S
H5110 C5131 0.950 . S
H5111 C5134 0.950 . S
H5112 C5135 0.950 . S
H5113 C5137 0.950 . S
H5114 C5138 0.950 . S
H5115 C5139 0.951 . S
H5116 C5141 0.951 . S
H5117 C5143 0.950 . S
H5118 C5144 0.950 . S
H5119 C5146 0.950 . S
H5120 C5149 0.950 . S
H5121 C5150 0.950 . S
H5122 C5152 0.950 . S
H5123 C5153 0.950 . S
C5124 H5106 0.951 . S
C5124 C5125 1.366 . S
C5124 C5126 1.388 . S
C5125 C5124 1.366 . S
C5125 C5129 1.385 . S
C5126 H5107 0.951 . S
C5126 C5124 1.388 . S
C5126 C5127 1.366 . S
C5127 C5126 1.366 . S
C5127 C5128 1.414 . S
C5127 C5130 1.499 . S
C5128 H5108 0.950 . S
C5128 C5127 1.414 . S
C5128 C5129 1.374 . S
C5129 H5109 0.950 . S
C5129 C5125 1.385 . S
C5129 C5128 1.374 . S
C5130 C5127 1.499 . S
C5130 C5131 1.373 . S
C5130 C5132 1.389 . S
C5131 H5110 0.950 . S
C5131 C5130 1.373 . S
C5131 C5147 1.377 . S
C5132 C5130 1.389 . S
C5132 C5133 1.524 . S
C5132 C5146 1.377 . S
C5133 C5132 1.524 . S
C5133 C5134 1.397 . S
C5133 C5138 1.363 . S
C5134 H5111 0.950 . S
C5134 C5133 1.397 . S
C5134 C5135 1.334 . S
C5135 H5112 0.950 . S
C5135 C5134 1.334 . S
C5135 C5136 1.287 . S
C5136 C5135 1.287 . S
C5136 C5137 1.524 . S
C5136 H5155 0.913 . S
C5137 H5113 0.950 . S
C5137 C5136 1.524 . S
C5137 C5138 1.415 . S
C5138 H5114 0.950 . S
C5138 C5133 1.363 . S
C5138 C5137 1.415 . S
C5139 H5115 0.951 . S
C5139 C5140 1.366 . S
C5139 C5141 1.388 . S
C5140 C5139 1.366 . S
C5140 C5144 1.385 . S
C5141 H5116 0.951 . S
C5141 C5139 1.388 . S
C5141 C5142 1.366 . S
C5142 C5141 1.366 . S
C5142 C5143 1.414 . S
C5142 C5145 1.499 . S
C5143 H5117 0.950 . S
C5143 C5142 1.414 . S
C5143 C5144 1.374 . S
C5144 H5118 0.950 . S
C5144 C5140 1.385 . S
C5144 C5143 1.374 . S
C5145 C5142 1.499 . S
C5145 C5146 1.373 . S
C5145 C5147 1.389 . S
C5146 H5119 0.950 . S
C5146 C5132 1.377 . S
C5146 C5145 1.373 . S
C5147 C5131 1.377 . S
C5147 C5145 1.389 . S
C5147 C5148 1.524 . S
C5148 C5147 1.524 . S
C5148 C5149 1.397 . S
C5148 C5153 1.363 . S
C5149 H5120 0.950 . S
C5149 C5148 1.397 . S
C5149 C5150 1.334 . S
C5150 H5121 0.950 . S
C5150 C5149 1.334 . S
C5150 C5151 1.287 . S
C5151 C5150 1.287 . S
C5151 C5152 1.524 . S
C5151 H5154 0.999 . S
C5152 H5122 0.950 . S
C5152 C5151 1.524 . S
C5152 C5153 1.415 . S
C5153 H5123 0.950 . S
C5153 C5148 1.363 . S
C5153 C5152 1.415 . S
H5154 C5151 0.999 . S
H5155 C5136 0.913 . S
H5156 C5174 0.951 . S
H5157 C5176 0.951 . S
H5158 C5178 0.950 . S
H5159 C5179 0.950 . S
H5160 C5181 0.950 . S
H5161 C5184 0.950 . S
H5162 C5185 0.950 . S
H5163 C5187 0.950 . S
H5164 C5188 0.950 . S
H5165 C5189 0.951 . S
H5166 C5191 0.951 . S
H5167 C5193 0.950 . S
H5168 C5194 0.950 . S
H5169 C5196 0.950 . S
H5170 C5199 0.950 . S
H5171 C5200 0.950 . S
H5172 C5202 0.950 . S
H5173 C5203 0.950 . S
C5174 H5156 0.951 . S
C5174 C5175 1.366 . S
C5174 C5176 1.388 . S
C5175 C5174 1.366 . S
C5175 C5179 1.385 . S
C5176 H5157 0.951 . S
C5176 C5174 1.388 . S
C5176 C5177 1.366 . S
C5177 C5176 1.366 . S
C5177 C5178 1.414 . S
C5177 C5180 1.499 . S
C5178 H5158 0.950 . S
C5178 C5177 1.414 . S
C5178 C5179 1.374 . S
C5179 H5159 0.950 . S
C5179 C5175 1.385 . S
C5179 C5178 1.374 . S
C5180 C5177 1.499 . S
C5180 C5181 1.373 . S
C5180 C5182 1.389 . S
C5181 H5160 0.950 . S
C5181 C5180 1.373 . S
C5181 C5197 1.377 . S
C5182 C5180 1.389 . S
C5182 C5183 1.524 . S
C5182 C5196 1.377 . S
C5183 C5182 1.524 . S
C5183 C5184 1.397 . S
C5183 C5188 1.363 . S
C5184 H5161 0.950 . S
C5184 C5183 1.397 . S
C5184 C5185 1.334 . S
C5185 H5162 0.950 . S
C5185 C5184 1.334 . S
C5185 C5186 1.287 . S
C5186 C5185 1.287 . S
C5186 C5187 1.524 . S
C5186 H5205 0.913 . S
C5187 H5163 0.950 . S
C5187 C5186 1.524 . S
C5187 C5188 1.415 . S
C5188 H5164 0.950 . S
C5188 C5183 1.363 . S
C5188 C5187 1.415 . S
C5189 H5165 0.951 . S
C5189 C5190 1.366 . S
C5189 C5191 1.388 . S
C5190 C5189 1.366 . S
C5190 C5194 1.385 . S
C5191 H5166 0.951 . S
C5191 C5189 1.388 . S
C5191 C5192 1.366 . S
C5192 C5191 1.366 . S
C5192 C5193 1.414 . S
C5192 C5195 1.499 . S
C5193 H5167 0.950 . S
C5193 C5192 1.414 . S
C5193 C5194 1.374 . S
C5194 H5168 0.950 . S
C5194 C5190 1.385 . S
C5194 C5193 1.374 . S
C5195 C5192 1.499 . S
C5195 C5196 1.373 . S
C5195 C5197 1.389 . S
C5196 H5169 0.950 . S
C5196 C5182 1.377 . S
C5196 C5195 1.373 . S
C5197 C5181 1.377 . S
C5197 C5195 1.389 . S
C5197 C5198 1.524 . S
C5198 C5197 1.524 . S
C5198 C5199 1.397 1_545 S
C5198 C5203 1.363 . S
C5199 H5170 0.950 . S
C5199 C5198 1.397 1_565 S
C5199 C5200 1.334 . S
C5200 H5171 0.950 . S
C5200 C5199 1.334 . S
C5200 C5201 1.287 . S
C5201 C5200 1.287 . S
C5201 C5202 1.524 . S
C5201 H5204 0.999 . S
C5202 H5172 0.950 . S
C5202 C5201 1.524 . S
C5202 C5203 1.415 1_565 S
C5203 H5173 0.950 . S
C5203 C5198 1.363 . S
C5203 C5202 1.415 1_545 S
H5204 C5201 0.999 . S
H5205 C5186 0.913 . S
H5206 C5224 0.951 . S
H5207 C5226 0.951 . S
H5208 C5228 0.950 . S
H5209 C5229 0.950 . S
H5210 C5231 0.950 . S
H5211 C5234 0.950 . S
H5212 C5235 0.950 . S
H5213 C5237 0.950 . S
H5214 C5238 0.950 . S
H5215 C5239 0.951 . S
H5216 C5241 0.951 . S
H5217 C5243 0.950 . S
H5218 C5244 0.950 . S
H5219 C5246 0.950 . S
H5220 C5249 0.950 . S
H5221 C5250 0.950 . S
H5222 C5252 0.950 . S
H5223 C5253 0.950 . S
C5224 H5206 0.951 . S
C5224 C5225 1.366 . S
C5224 C5226 1.388 . S
C5225 C5224 1.366 . S
C5225 C5229 1.385 . S
C5226 H5207 0.951 . S
C5226 C5224 1.388 . S
C5226 C5227 1.366 . S
C5227 C5226 1.366 . S
C5227 C5228 1.414 . S
C5227 C5230 1.499 . S
C5228 H5208 0.950 . S
C5228 C5227 1.414 . S
C5228 C5229 1.374 . S
C5229 H5209 0.950 . S
C5229 C5225 1.385 . S
C5229 C5228 1.374 . S
C5230 C5227 1.499 . S
C5230 C5231 1.373 . S
C5230 C5232 1.389 . S
C5231 H5210 0.950 . S
C5231 C5230 1.373 . S
C5231 C5247 1.377 . S
C5232 C5230 1.389 . S
C5232 C5233 1.524 . S
C5232 C5246 1.377 . S
C5233 C5232 1.524 . S
C5233 C5234 1.397 . S
C5233 C5238 1.363 . S
C5234 H5211 0.950 . S
C5234 C5233 1.397 . S
C5234 C5235 1.334 . S
C5235 H5212 0.950 . S
C5235 C5234 1.334 . S
C5235 C5236 1.287 . S
C5236 C5235 1.287 . S
C5236 C5237 1.524 . S
C5236 H5255 0.913 . S
C5237 H5213 0.950 . S
C5237 C5236 1.524 . S
C5237 C5238 1.415 . S
C5238 H5214 0.950 . S
C5238 C5233 1.363 . S
C5238 C5237 1.415 . S
C5239 H5215 0.951 . S
C5239 C5240 1.366 . S
C5239 C5241 1.388 . S
C5240 C5239 1.366 . S
C5240 C5244 1.385 . S
C5241 H5216 0.951 . S
C5241 C5239 1.388 . S
C5241 C5242 1.366 . S
C5242 C5241 1.366 . S
C5242 C5243 1.414 . S
C5242 C5245 1.499 . S
C5243 H5217 0.950 . S
C5243 C5242 1.414 . S
C5243 C5244 1.374 . S
C5244 H5218 0.950 . S
C5244 C5240 1.385 . S
C5244 C5243 1.374 . S
C5245 C5242 1.499 . S
C5245 C5246 1.373 . S
C5245 C5247 1.389 . S
C5246 H5219 0.950 . S
C5246 C5232 1.377 . S
C5246 C5245 1.373 . S
C5247 C5231 1.377 . S
C5247 C5245 1.389 . S
C5247 C5248 1.524 . S
C5248 C5247 1.524 . S
C5248 C5249 1.397 . S
C5248 C5253 1.363 . S
C5249 H5220 0.950 . S
C5249 C5248 1.397 . S
C5249 C5250 1.334 . S
C5250 H5221 0.950 . S
C5250 C5249 1.334 . S
C5250 C5251 1.287 . S
C5251 C5250 1.287 . S
C5251 C5252 1.524 . S
C5251 H5254 0.999 . S
C5252 H5222 0.950 . S
C5252 C5251 1.524 . S
C5252 C5253 1.415 . S
C5253 H5223 0.950 . S
C5253 C5248 1.363 . S
C5253 C5252 1.415 . S
H5254 C5251 0.999 . S
H5255 C5236 0.913 . S
H5256 C5274 0.951 . S
H5257 C5276 0.951 . S
H5258 C5278 0.950 . S
H5259 C5279 0.950 . S
H5260 C5281 0.950 1_565 S
H5261 C5284 0.950 . S
H5262 C5285 0.950 . S
H5263 C5287 0.950 . S
H5264 C5288 0.950 . S
H5265 C5289 0.951 . S
H5266 C5291 0.951 . S
H5267 C5293 0.950 . S
H5268 C5294 0.950 . S
H5269 C5296 0.950 . S
H5270 C5299 0.950 . S
H5271 C5300 0.950 . S
H5272 C5302 0.950 . S
H5273 C5303 0.950 . S
C5274 H5256 0.951 . S
C5274 C5275 1.366 . S
C5274 C5276 1.388 . S
C5275 C5274 1.366 . S
C5275 C5279 1.385 . S
C5276 H5257 0.951 . S
C5276 C5274 1.388 . S
C5276 C5277 1.366 . S
C5277 C5276 1.366 . S
C5277 C5278 1.414 . S
C5277 C5280 1.499 . S
C5278 H5258 0.950 . S
C5278 C5277 1.414 . S
C5278 C5279 1.374 . S
C5279 H5259 0.950 . S
C5279 C5275 1.385 . S
C5279 C5278 1.374 . S
C5280 C5277 1.499 . S
C5280 C5281 1.373 . S
C5280 C5282 1.389 . S
C5281 H5260 0.950 1_545 S
C5281 C5280 1.373 . S
C5281 C5297 1.377 . S
C5282 C5280 1.389 . S
C5282 C5283 1.524 . S
C5282 C5296 1.377 . S
C5283 C5282 1.524 . S
C5283 C5284 1.397 . S
C5283 C5288 1.363 . S
C5284 H5261 0.950 . S
C5284 C5283 1.397 . S
C5284 C5285 1.334 . S
C5285 H5262 0.950 . S
C5285 C5284 1.334 . S
C5285 C5286 1.287 . S
C5286 C5285 1.287 . S
C5286 C5287 1.524 . S
C5286 H5305 0.913 . S
C5287 H5263 0.950 . S
C5287 C5286 1.524 . S
C5287 C5288 1.415 . S
C5288 H5264 0.950 . S
C5288 C5283 1.363 . S
C5288 C5287 1.415 . S
C5289 H5265 0.951 . S
C5289 C5290 1.366 . S
C5289 C5291 1.388 . S
C5290 C5289 1.366 . S
C5290 C5294 1.385 . S
C5291 H5266 0.951 . S
C5291 C5289 1.388 . S
C5291 C5292 1.366 . S
C5292 C5291 1.366 . S
C5292 C5293 1.414 . S
C5292 C5295 1.499 . S
C5293 H5267 0.950 . S
C5293 C5292 1.414 . S
C5293 C5294 1.374 . S
C5294 H5268 0.950 . S
C5294 C5290 1.385 . S
C5294 C5293 1.374 . S
C5295 C5292 1.499 . S
C5295 C5296 1.373 . S
C5295 C5297 1.389 . S
C5296 H5269 0.950 . S
C5296 C5282 1.377 . S
C5296 C5295 1.373 . S
C5297 C5281 1.377 . S
C5297 C5295 1.389 . S
C5297 C5298 1.524 1_545 S
C5298 C5297 1.524 1_565 S
C5298 C5299 1.397 . S
C5298 C5303 1.363 . S
C5299 H5270 0.950 . S
C5299 C5298 1.397 . S
C5299 C5300 1.334 . S
C5300 H5271 0.950 . S
C5300 C5299 1.334 . S
C5300 C5301 1.287 . S
C5301 C5300 1.287 . S
C5301 C5302 1.524 . S
C5301 H5304 0.999 . S
C5302 H5272 0.950 . S
C5302 C5301 1.524 . S
C5302 C5303 1.415 . S
C5303 H5273 0.950 . S
C5303 C5298 1.363 . S
C5303 C5302 1.415 . S
H5304 C5301 0.999 . S
H5305 C5286 0.913 . S
H5306 C5324 0.951 . S
H5307 C5326 0.951 . S
H5308 C5328 0.950 . S
H5309 C5329 0.950 . S
H5310 C5331 0.950 . S
H5311 C5334 0.950 . S
H5312 C5335 0.950 . S
H5313 C5337 0.950 . S
H5314 C5338 0.950 . S
H5315 C5339 0.951 . S
H5316 C5341 0.951 . S
H5317 C5343 0.950 . S
H5318 C5344 0.950 . S
H5319 C5346 0.950 . S
H5320 C5349 0.950 . S
H5321 C5350 0.950 . S
H5322 C5352 0.950 . S
H5323 C5353 0.950 . S
C5324 H5306 0.951 . S
C5324 C5325 1.366 . S
C5324 C5326 1.388 . S
C5325 C5324 1.366 . S
C5325 C5329 1.385 . S
C5326 H5307 0.951 . S
C5326 C5324 1.388 . S
C5326 C5327 1.366 . S
C5327 C5326 1.366 . S
C5327 C5328 1.414 . S
C5327 C5330 1.499 . S
C5328 H5308 0.950 . S
C5328 C5327 1.414 . S
C5328 C5329 1.374 . S
C5329 H5309 0.950 . S
C5329 C5325 1.385 . S
C5329 C5328 1.374 . S
C5330 C5327 1.499 . S
C5330 C5331 1.373 . S
C5330 C5332 1.389 . S
C5331 H5310 0.950 . S
C5331 C5330 1.373 . S
C5331 C5347 1.377 . S
C5332 C5330 1.389 . S
C5332 C5333 1.524 . S
C5332 C5346 1.377 . S
C5333 C5332 1.524 . S
C5333 C5334 1.397 . S
C5333 C5338 1.363 . S
C5334 H5311 0.950 . S
C5334 C5333 1.397 . S
C5334 C5335 1.334 . S
C5335 H5312 0.950 . S
C5335 C5334 1.334 . S
C5335 C5336 1.287 . S
C5336 C5335 1.287 . S
C5336 C5337 1.524 . S
C5336 H5355 0.913 . S
C5337 H5313 0.950 . S
C5337 C5336 1.524 . S
C5337 C5338 1.415 . S
C5338 H5314 0.950 . S
C5338 C5333 1.363 . S
C5338 C5337 1.415 . S
C5339 H5315 0.951 . S
C5339 C5340 1.366 . S
C5339 C5341 1.388 . S
C5340 C5339 1.366 . S
C5340 C5344 1.385 . S
C5341 H5316 0.951 . S
C5341 C5339 1.388 . S
C5341 C5342 1.366 . S
C5342 C5341 1.366 . S
C5342 C5343 1.414 . S
C5342 C5345 1.499 . S
C5343 H5317 0.950 . S
C5343 C5342 1.414 . S
C5343 C5344 1.374 . S
C5344 H5318 0.950 . S
C5344 C5340 1.385 . S
C5344 C5343 1.374 . S
C5345 C5342 1.499 . S
C5345 C5346 1.373 . S
C5345 C5347 1.389 . S
C5346 H5319 0.950 . S
C5346 C5332 1.377 . S
C5346 C5345 1.373 . S
C5347 C5331 1.377 . S
C5347 C5345 1.389 . S
C5347 C5348 1.524 . S
C5348 C5347 1.524 . S
C5348 C5349 1.397 . S
C5348 C5353 1.363 . S
C5349 H5320 0.950 . S
C5349 C5348 1.397 . S
C5349 C5350 1.334 . S
C5350 H5321 0.950 . S
C5350 C5349 1.334 . S
C5350 C5351 1.287 . S
C5351 C5350 1.287 . S
C5351 C5352 1.524 . S
C5351 H5354 0.999 . S
C5352 H5322 0.950 . S
C5352 C5351 1.524 . S
C5352 C5353 1.415 . S
C5353 H5323 0.950 . S
C5353 C5348 1.363 . S
C5353 C5352 1.415 . S
H5354 C5351 0.999 . S
H5355 C5336 0.913 . S
H5356 C5374 0.951 . S
H5357 C5376 0.951 . S
H5358 C5378 0.950 . S
H5359 C5379 0.950 . S
H5360 C5381 0.950 . S
H5361 C5384 0.950 . S
H5362 C5385 0.950 . S
H5363 C5387 0.950 . S
H5364 C5388 0.906 1_545 S
H5365 C5389 0.951 . S
H5366 C5391 0.951 . S
H5367 C5393 0.950 . S
H5368 C5394 0.950 . S
H5369 C5396 0.950 1_565 S
H5370 C5399 0.950 . S
H5371 C5400 0.950 . S
H5372 C5402 0.950 . S
H5373 C5403 0.950 . S
C5374 H5356 0.951 . S
C5374 C5375 1.366 . S
C5374 C5376 1.388 . S
C5375 C5374 1.366 . S
C5375 C5379 1.385 . S
C5376 H5357 0.951 . S
C5376 C5374 1.388 . S
C5376 C5377 1.366 . S
C5377 C5376 1.366 . S
C5377 C5378 1.414 . S
C5377 C5380 1.499 . S
C5378 H5358 0.950 . S
C5378 C5377 1.414 . S
C5378 C5379 1.374 . S
C5379 H5359 0.950 . S
C5379 C5375 1.385 . S
C5379 C5378 1.374 . S
C5380 C5377 1.499 . S
C5380 C5381 1.373 . S
C5380 C5382 1.402 . S
C5381 H5360 0.950 . S
C5381 C5380 1.373 . S
C5381 C5397 1.377 . S
C5382 C5380 1.402 . S
C5382 C5383 1.507 1_545 S
C5382 C5396 1.380 . S
C5383 C5382 1.507 1_565 S
C5383 C5384 1.397 . S
C5383 C5388 1.363 . S
C5384 H5361 0.950 . S
C5384 C5383 1.397 . S
C5384 C5385 1.334 . S
C5385 H5362 0.950 . S
C5385 C5384 1.334 . S
C5385 C5386 1.287 . S
C5386 C5385 1.287 . S
C5386 C5387 1.524 . S
C5386 H5405 0.913 . S
C5387 H5363 0.950 . S
C5387 C5386 1.524 . S
C5387 C5388 1.415 . S
C5388 H5364 0.906 1_565 S
C5388 C5383 1.363 . S
C5388 C5387 1.415 . S
C5389 H5365 0.951 . S
C5389 C5390 1.366 . S
C5389 C5391 1.388 . S
C5390 C5389 1.366 . S
C5390 C5394 1.385 . S
C5391 H5366 0.951 . S
C5391 C5389 1.388 . S
C5391 C5392 1.366 . S
C5392 C5391 1.366 . S
C5392 C5393 1.414 . S
C5392 C5395 1.499 . S
C5393 H5367 0.950 . S
C5393 C5392 1.414 . S
C5393 C5394 1.374 . S
C5394 H5368 0.950 . S
C5394 C5390 1.385 . S
C5394 C5393 1.374 . S
C5395 C5392 1.499 . S
C5395 C5396 1.373 . S
C5395 C5397 1.389 . S
C5396 H5369 0.950 1_545 S
C5396 C5382 1.380 . S
C5396 C5395 1.373 . S
C5397 C5381 1.377 . S
C5397 C5395 1.389 . S
C5397 C5398 1.524 . S
C5398 C5397 1.524 . S
C5398 C5399 1.397 . S
C5398 C5403 1.363 . S
C5399 H5370 0.950 . S
C5399 C5398 1.397 . S
C5399 C5400 1.334 . S
C5400 H5371 0.950 . S
C5400 C5399 1.334 . S
C5400 C5401 1.287 . S
C5401 C5400 1.287 . S
C5401 C5402 1.524 . S
C5401 H5404 0.999 . S
C5402 H5372 0.950 . S
C5402 C5401 1.524 . S
C5402 C5403 1.415 . S
C5403 H5373 0.950 . S
C5403 C5398 1.363 . S
C5403 C5402 1.415 . S
H5404 C5401 0.999 . S
H5405 C5386 0.913 . S
H5406 C5424 0.951 . S
H5407 C5426 0.951 . S
H5408 C5428 0.950 . S
H5409 C5429 0.950 . S
H5410 C5431 0.950 . S
H5411 C5434 0.950 . S
H5412 C5435 0.950 . S
H5413 C5437 0.950 . S
H5414 C5438 0.950 . S
H5415 C5439 0.951 . S
H5416 C5441 0.951 . S
H5417 C5443 0.950 . S
H5418 C5444 0.950 . S
H5419 C5446 0.950 . S
H5420 C5449 0.950 . S
H5421 C5450 0.950 . S
H5422 C5452 0.950 . S
H5423 C5453 0.950 . S
C5424 H5406 0.951 . S
C5424 C5425 1.366 . S
C5424 C5426 1.388 . S
C5425 C5424 1.366 . S
C5425 C5429 1.385 . S
C5426 H5407 0.951 . S
C5426 C5424 1.388 . S
C5426 C5427 1.366 . S
C5427 C5426 1.366 . S
C5427 C5428 1.414 . S
C5427 C5430 1.499 . S
C5428 H5408 0.950 . S
C5428 C5427 1.414 . S
C5428 C5429 1.374 . S
C5429 H5409 0.950 . S
C5429 C5425 1.385 . S
C5429 C5428 1.374 . S
C5430 C5427 1.499 . S
C5430 C5431 1.373 . S
C5430 C5432 1.389 . S
C5431 H5410 0.950 . S
C5431 C5430 1.373 . S
C5431 C5447 1.377 . S
C5432 C5430 1.389 . S
C5432 C5433 1.524 . S
C5432 C5446 1.377 . S
C5433 C5432 1.524 . S
C5433 C5434 1.397 . S
C5433 C5438 1.363 . S
C5434 H5411 0.950 . S
C5434 C5433 1.397 . S
C5434 C5435 1.334 . S
C5435 H5412 0.950 . S
C5435 C5434 1.334 . S
C5435 C5436 1.287 . S
C5436 C5435 1.287 . S
C5436 C5437 1.524 . S
C5436 H5455 0.913 . S
C5437 H5413 0.950 . S
C5437 C5436 1.524 . S
C5437 C5438 1.415 . S
C5438 H5414 0.950 . S
C5438 C5433 1.363 . S
C5438 C5437 1.415 . S
C5439 H5415 0.951 . S
C5439 C5440 1.366 . S
C5439 C5441 1.388 . S
C5440 C5439 1.366 . S
C5440 C5444 1.385 . S
C5441 H5416 0.951 . S
C5441 C5439 1.388 . S
C5441 C5442 1.366 . S
C5442 C5441 1.366 . S
C5442 C5443 1.414 . S
C5442 C5445 1.499 . S
C5443 H5417 0.950 . S
C5443 C5442 1.414 . S
C5443 C5444 1.374 . S
C5444 H5418 0.950 . S
C5444 C5440 1.385 . S
C5444 C5443 1.374 . S
C5445 C5442 1.499 . S
C5445 C5446 1.373 . S
C5445 C5447 1.389 . S
C5446 H5419 0.950 . S
C5446 C5432 1.377 . S
C5446 C5445 1.373 . S
C5447 C5431 1.377 . S
C5447 C5445 1.389 . S
C5447 C5448 1.524 . S
C5448 C5447 1.524 . S
C5448 C5449 1.397 . S
C5448 C5453 1.363 . S
C5449 H5420 0.950 . S
C5449 C5448 1.397 . S
C5449 C5450 1.334 . S
C5450 H5421 0.950 . S
C5450 C5449 1.334 . S
C5450 C5451 1.287 . S
C5451 C5450 1.287 . S
C5451 C5452 1.524 . S
C5451 H5454 0.999 . S
C5452 H5422 0.950 . S
C5452 C5451 1.524 . S
C5452 C5453 1.415 . S
C5453 H5423 0.950 . S
C5453 C5448 1.363 . S
C5453 C5452 1.415 . S
H5454 C5451 0.999 . S
H5455 C5436 0.913 . S
H5456 C5474 0.951 . S
H5457 C5476 0.951 . S
H5458 C5478 0.950 . S
H5459 C5479 0.950 . S
H5460 C5481 0.950 . S
H5461 C5484 0.942 1_556 S
H5462 C5485 0.950 . S
H5463 C5487 0.950 . S
H5464 C5488 0.950 . S
H5465 C5489 0.951 . S
H5466 C5491 0.951 . S
H5467 C5493 0.950 . S
H5468 C5494 0.950 . S
H5469 C5496 0.950 . S
H5470 C5499 0.950 . S
H5471 C5500 0.950 . S
H5472 C5502 0.950 1_565 S
H5473 C5503 0.950 . S
C5474 H5456 0.951 . S
C5474 C5475 1.366 . S
C5474 C5476 1.388 . S
C5475 C5474 1.366 . S
C5475 C5479 1.385 . S
C5476 H5457 0.951 . S
C5476 C5474 1.388 . S
C5476 C5477 1.366 . S
C5477 C5476 1.366 . S
C5477 C5478 1.414 . S
C5477 C5480 1.499 . S
C5478 H5458 0.950 . S
C5478 C5477 1.414 . S
C5478 C5479 1.374 . S
C5479 H5459 0.950 . S
C5479 C5475 1.385 . S
C5479 C5478 1.374 . S
C5480 C5477 1.499 . S
C5480 C5481 1.373 . S
C5480 C5482 1.389 . S
C5481 H5460 0.950 . S
C5481 C5480 1.373 . S
C5481 C5497 1.377 . S
C5482 C5480 1.389 . S
C5482 C5483 1.524 . S
C5482 C5496 1.377 . S
C5483 C5482 1.524 . S
C5483 C5484 1.397 . S
C5483 C5488 1.363 . S
C5484 H5461 0.942 1_554 S
C5484 C5483 1.397 . S
C5484 C5485 1.334 1_554 S
C5485 H5462 0.950 . S
C5485 C5484 1.334 1_556 S
C5485 C5486 1.289 . S
C5486 C5485 1.289 . S
C5486 C5487 1.511 1_556 S
C5486 H5505 0.923 . S
C5487 H5463 0.950 . S
C5487 C5486 1.511 1_554 S
C5487 C5488 1.415 . S
C5488 H5464 0.950 . S
C5488 C5483 1.363 . S
C5488 C5487 1.415 . S
C5489 H5465 0.951 . S
C5489 C5490 1.366 . S
C5489 C5491 1.388 . S
C5490 C5489 1.366 . S
C5490 C5494 1.385 . S
C5491 H5466 0.951 . S
C5491 C5489 1.388 . S
C5491 C5492 1.366 . S
C5492 C5491 1.366 . S
C5492 C5493 1.414 . S
C5492 C5495 1.499 . S
C5493 H5467 0.950 . S
C5493 C5492 1.414 . S
C5493 C5494 1.374 . S
C5494 H5468 0.950 . S
C5494 C5490 1.385 . S
C5494 C5493 1.374 . S
C5495 C5492 1.499 . S
C5495 C5496 1.373 . S
C5495 C5497 1.389 . S
C5496 H5469 0.950 . S
C5496 C5482 1.377 . S
C5496 C5495 1.373 . S
C5497 C5481 1.377 . S
C5497 C5495 1.389 . S
C5497 C5498 1.524 . S
C5498 C5497 1.524 . S
C5498 C5499 1.397 . S
C5498 C5503 1.363 . S
C5499 H5470 0.950 . S
C5499 C5498 1.397 . S
C5499 C5500 1.334 . S
C5500 H5471 0.950 . S
C5500 C5499 1.334 . S
C5500 C5501 1.287 . S
C5501 C5500 1.287 . S
C5501 C5502 1.524 . S
C5501 H5504 0.935 1_545 S
C5502 H5472 0.950 1_545 S
C5502 C5501 1.524 . S
C5502 C5503 1.415 . S
C5503 H5473 0.950 . S
C5503 C5498 1.363 . S
C5503 C5502 1.415 . S
H5504 C5501 0.935 1_565 S
H5505 C5486 0.923 . S
H5506 C5524 0.951 . S
H5507 C5526 0.951 . S
H5508 C5528 0.950 . S
H5509 C5529 0.950 . S
H5510 C5531 0.950 . S
H5511 C5534 0.950 . S
H5512 C5535 0.950 . S
H5513 C5537 0.950 . S
H5514 C5538 0.950 . S
H5515 C5539 0.951 . S
H5516 C5541 0.951 . S
H5517 C5543 0.950 . S
H5518 C5544 0.950 . S
H5519 C5546 0.950 . S
H5520 C5549 0.950 . S
H5521 C5550 0.950 . S
H5522 C5552 0.950 . S
H5523 C5553 0.950 . S
C5524 H5506 0.951 . S
C5524 C5525 1.366 . S
C5524 C5526 1.388 . S
C5525 C5524 1.366 . S
C5525 C5529 1.385 . S
C5526 H5507 0.951 . S
C5526 C5524 1.388 . S
C5526 C5527 1.366 . S
C5527 C5526 1.366 . S
C5527 C5528 1.414 . S
C5527 C5530 1.499 . S
C5528 H5508 0.950 . S
C5528 C5527 1.414 . S
C5528 C5529 1.374 . S
C5529 H5509 0.950 . S
C5529 C5525 1.385 . S
C5529 C5528 1.374 . S
C5530 C5527 1.499 . S
C5530 C5531 1.373 . S
C5530 C5532 1.389 . S
C5531 H5510 0.950 . S
C5531 C5530 1.373 . S
C5531 C5547 1.377 . S
C5532 C5530 1.389 . S
C5532 C5533 1.524 . S
C5532 C5546 1.377 . S
C5533 C5532 1.524 . S
C5533 C5534 1.397 . S
C5533 C5538 1.363 . S
C5534 H5511 0.950 . S
C5534 C5533 1.397 . S
C5534 C5535 1.334 . S
C5535 H5512 0.950 . S
C5535 C5534 1.334 . S
C5535 C5536 1.287 . S
C5536 C5535 1.287 . S
C5536 C5537 1.524 . S
C5536 H5555 0.913 . S
C5537 H5513 0.950 . S
C5537 C5536 1.524 . S
C5537 C5538 1.415 . S
C5538 H5514 0.950 . S
C5538 C5533 1.363 . S
C5538 C5537 1.415 . S
C5539 H5515 0.951 . S
C5539 C5540 1.366 . S
C5539 C5541 1.388 . S
C5540 C5539 1.366 . S
C5540 C5544 1.385 . S
C5541 H5516 0.951 . S
C5541 C5539 1.388 . S
C5541 C5542 1.366 . S
C5542 C5541 1.366 . S
C5542 C5543 1.414 . S
C5542 C5545 1.499 . S
C5543 H5517 0.950 . S
C5543 C5542 1.414 . S
C5543 C5544 1.374 . S
C5544 H5518 0.950 . S
C5544 C5540 1.385 . S
C5544 C5543 1.374 . S
C5545 C5542 1.499 . S
C5545 C5546 1.373 . S
C5545 C5547 1.389 . S
C5546 H5519 0.950 . S
C5546 C5532 1.377 . S
C5546 C5545 1.373 . S
C5547 C5531 1.377 . S
C5547 C5545 1.389 . S
C5547 C5548 1.484 1_554 S
C5548 C5547 1.484 1_556 S
C5548 C5549 1.416 . S
C5548 C5553 1.385 . S
C5549 H5520 0.950 . S
C5549 C5548 1.416 . S
C5549 C5550 1.334 . S
C5550 H5521 0.950 . S
C5550 C5549 1.334 . S
C5550 C5551 1.287 . S
C5551 C5550 1.287 . S
C5551 C5552 1.524 . S
C5551 H5554 0.999 . S
C5552 H5522 0.950 . S
C5552 C5551 1.524 . S
C5552 C5553 1.415 . S
C5553 H5523 0.950 . S
C5553 C5548 1.385 . S
C5553 C5552 1.415 . S
H5554 C5551 0.999 . S
H5555 C5536 0.913 . S
H5556 C5574 0.951 . S
H5557 C5576 0.951 . S
H5558 C5578 0.950 . S
H5559 C5579 0.950 . S
H5560 C5581 0.950 . S
H5561 C5584 0.950 . S
H5562 C5585 0.950 . S
H5563 C5587 0.950 . S
H5564 C5588 0.950 . S
H5565 C5589 0.951 . S
H5566 C5591 0.951 . S
H5567 C5593 0.950 . S
H5568 C5594 0.950 . S
H5569 C5596 0.950 . S
H5570 C5599 0.950 . S
H5571 C5600 0.950 . S
H5572 C5602 0.950 . S
H5573 C5603 0.950 . S
C5574 H5556 0.951 . S
C5574 C5575 1.366 . S
C5574 C5576 1.388 . S
C5575 C5574 1.366 . S
C5575 C5579 1.385 . S
C5576 H5557 0.951 . S
C5576 C5574 1.388 . S
C5576 C5577 1.366 . S
C5577 C5576 1.366 . S
C5577 C5578 1.414 . S
C5577 C5580 1.499 . S
C5578 H5558 0.950 . S
C5578 C5577 1.414 . S
C5578 C5579 1.374 . S
C5579 H5559 0.950 . S
C5579 C5575 1.385 . S
C5579 C5578 1.374 . S
C5580 C5577 1.499 . S
C5580 C5581 1.373 . S
C5580 C5582 1.389 . S
C5581 H5560 0.950 . S
C5581 C5580 1.373 . S
C5581 C5597 1.377 . S
C5582 C5580 1.389 . S
C5582 C5583 1.524 . S
C5582 C5596 1.377 . S
C5583 C5582 1.524 . S
C5583 C5584 1.397 . S
C5583 C5588 1.363 . S
C5584 H5561 0.950 . S
C5584 C5583 1.397 . S
C5584 C5585 1.334 . S
C5585 H5562 0.950 . S
C5585 C5584 1.334 . S
C5585 C5586 1.287 . S
C5586 C5585 1.287 . S
C5586 C5587 1.524 . S
C5586 H5605 0.913 . S
C5587 H5563 0.950 . S
C5587 C5586 1.524 . S
C5587 C5588 1.415 . S
C5588 H5564 0.950 . S
C5588 C5583 1.363 . S
C5588 C5587 1.415 . S
C5589 H5565 0.951 . S
C5589 C5590 1.366 . S
C5589 C5591 1.388 . S
C5590 C5589 1.366 . S
C5590 C5594 1.385 . S
C5591 H5566 0.951 . S
C5591 C5589 1.388 . S
C5591 C5592 1.366 . S
C5592 C5591 1.366 . S
C5592 C5593 1.414 . S
C5592 C5595 1.499 . S
C5593 H5567 0.950 . S
C5593 C5592 1.414 . S
C5593 C5594 1.374 . S
C5594 H5568 0.950 . S
C5594 C5590 1.385 . S
C5594 C5593 1.374 . S
C5595 C5592 1.499 . S
C5595 C5596 1.373 . S
C5595 C5597 1.389 . S
C5596 H5569 0.950 . S
C5596 C5582 1.377 . S
C5596 C5595 1.373 . S
C5597 C5581 1.377 . S
C5597 C5595 1.389 . S
C5597 C5598 1.524 . S
C5598 C5597 1.524 . S
C5598 C5599 1.397 . S
C5598 C5603 1.363 . S
C5599 H5570 0.950 . S
C5599 C5598 1.397 . S
C5599 C5600 1.334 . S
C5600 H5571 0.950 . S
C5600 C5599 1.334 . S
C5600 C5601 1.287 . S
C5601 C5600 1.287 . S
C5601 C5602 1.524 . S
C5601 H5604 0.999 . S
C5602 H5572 0.950 . S
C5602 C5601 1.524 . S
C5602 C5603 1.415 . S
C5603 H5573 0.950 . S
C5603 C5598 1.363 . S
C5603 C5602 1.415 . S
H5604 C5601 0.999 . S
H5605 C5586 0.913 . S
H5606 C5624 0.951 . S
H5607 C5626 0.951 . S
H5608 C5628 0.950 . S
H5609 C5629 0.950 . S
H5610 C5631 0.950 . S
H5611 C5634 0.950 . S
H5612 C5635 0.950 . S
H5613 C5637 0.950 . S
H5614 C5638 0.950 . S
H5615 C5639 0.951 . S
H5616 C5641 0.951 . S
H5617 C5643 0.950 . S
H5618 C5644 0.950 . S
H5619 C5646 0.950 . S
H5620 C5649 0.950 . S
H5621 C5650 0.950 . S
H5622 C5652 0.950 . S
H5623 C5653 0.950 . S
C5624 H5606 0.951 . S
C5624 C5625 1.366 . S
C5624 C5626 1.388 . S
C5625 C5624 1.366 . S
C5625 C5629 1.385 . S
C5626 H5607 0.951 . S
C5626 C5624 1.388 . S
C5626 C5627 1.366 . S
C5627 C5626 1.366 . S
C5627 C5628 1.414 . S
C5627 C5630 1.499 . S
C5628 H5608 0.950 . S
C5628 C5627 1.414 . S
C5628 C5629 1.374 . S
C5629 H5609 0.950 . S
C5629 C5625 1.385 . S
C5629 C5628 1.374 . S
C5630 C5627 1.499 . S
C5630 C5631 1.373 . S
C5630 C5632 1.389 . S
C5631 H5610 0.950 . S
C5631 C5630 1.373 . S
C5631 C5647 1.377 . S
C5632 C5630 1.389 . S
C5632 C5633 1.524 . S
C5632 C5646 1.377 . S
C5633 C5632 1.524 . S
C5633 C5634 1.397 . S
C5633 C5638 1.363 . S
C5634 H5611 0.950 . S
C5634 C5633 1.397 . S
C5634 C5635 1.334 . S
C5635 H5612 0.950 . S
C5635 C5634 1.334 . S
C5635 C5636 1.287 . S
C5636 C5635 1.287 . S
C5636 C5637 1.524 . S
C5636 H5655 0.913 . S
C5637 H5613 0.950 . S
C5637 C5636 1.524 . S
C5637 C5638 1.415 . S
C5638 H5614 0.950 . S
C5638 C5633 1.363 . S
C5638 C5637 1.415 . S
C5639 H5615 0.951 . S
C5639 C5640 1.366 . S
C5639 C5641 1.388 . S
C5640 C5639 1.366 . S
C5640 C5644 1.385 . S
C5641 H5616 0.951 . S
C5641 C5639 1.388 . S
C5641 C5642 1.366 . S
C5642 C5641 1.366 . S
C5642 C5643 1.414 . S
C5642 C5645 1.499 . S
C5643 H5617 0.950 . S
C5643 C5642 1.414 . S
C5643 C5644 1.374 . S
C5644 H5618 0.950 . S
C5644 C5640 1.385 . S
C5644 C5643 1.374 . S
C5645 C5642 1.499 . S
C5645 C5646 1.373 . S
C5645 C5647 1.389 . S
C5646 H5619 0.950 . S
C5646 C5632 1.377 . S
C5646 C5645 1.373 . S
C5647 C5631 1.377 . S
C5647 C5645 1.389 . S
C5647 C5648 1.524 . S
C5648 C5647 1.524 . S
C5648 C5649 1.397 . S
C5648 C5653 1.363 . S
C5649 H5620 0.950 . S
C5649 C5648 1.397 . S
C5649 C5650 1.334 . S
C5650 H5621 0.950 . S
C5650 C5649 1.334 . S
C5650 C5651 1.287 . S
C5651 C5650 1.287 . S
C5651 C5652 1.524 . S
C5651 H5654 0.999 . S
C5652 H5622 0.950 . S
C5652 C5651 1.524 . S
C5652 C5653 1.415 . S
C5653 H5623 0.950 . S
C5653 C5648 1.363 . S
C5653 C5652 1.415 . S
H5654 C5651 0.999 . S
H5655 C5636 0.913 . S
H5656 C5674 0.951 . S
H5657 C5676 0.951 . S
H5658 C5678 0.950 . S
H5659 C5679 0.950 . S
H5660 C5681 0.950 . S
H5661 C5684 0.950 . S
H5662 C5685 0.950 . S
H5663 C5687 0.950 . S
H5664 C5688 0.950 . S
H5665 C5689 0.951 . S
H5666 C5691 0.951 . S
H5667 C5693 0.950 . S
H5668 C5694 0.950 . S
H5669 C5696 0.950 . S
H5670 C5699 0.950 . S
H5671 C5700 0.950 . S
H5672 C5702 0.950 . S
H5673 C5703 0.950 . S
C5674 H5656 0.951 . S
C5674 C5675 1.366 . S
C5674 C5676 1.388 . S
C5675 C5674 1.366 . S
C5675 C5679 1.385 . S
C5676 H5657 0.951 . S
C5676 C5674 1.388 . S
C5676 C5677 1.366 . S
C5677 C5676 1.366 . S
C5677 C5678 1.414 . S
C5677 C5680 1.499 . S
C5678 H5658 0.950 . S
C5678 C5677 1.414 . S
C5678 C5679 1.374 . S
C5679 H5659 0.950 . S
C5679 C5675 1.385 . S
C5679 C5678 1.374 . S
C5680 C5677 1.499 . S
C5680 C5681 1.373 . S
C5680 C5682 1.389 . S
C5681 H5660 0.950 . S
C5681 C5680 1.373 . S
C5681 C5697 1.377 . S
C5682 C5680 1.389 . S
C5682 C5683 1.524 . S
C5682 C5696 1.377 . S
C5683 C5682 1.524 . S
C5683 C5684 1.397 . S
C5683 C5688 1.363 . S
C5684 H5661 0.950 . S
C5684 C5683 1.397 . S
C5684 C5685 1.334 . S
C5685 H5662 0.950 . S
C5685 C5684 1.334 . S
C5685 C5686 1.287 . S
C5686 C5685 1.287 . S
C5686 C5687 1.524 . S
C5686 H5705 0.913 . S
C5687 H5663 0.950 . S
C5687 C5686 1.524 . S
C5687 C5688 1.415 . S
C5688 H5664 0.950 . S
C5688 C5683 1.363 . S
C5688 C5687 1.415 . S
C5689 H5665 0.951 . S
C5689 C5690 1.366 . S
C5689 C5691 1.388 . S
C5690 C5689 1.366 . S
C5690 C5694 1.385 . S
C5691 H5666 0.951 . S
C5691 C5689 1.388 . S
C5691 C5692 1.366 . S
C5692 C5691 1.366 . S
C5692 C5693 1.414 . S
C5692 C5695 1.499 . S
C5693 H5667 0.950 . S
C5693 C5692 1.414 . S
C5693 C5694 1.374 . S
C5694 H5668 0.950 . S
C5694 C5690 1.385 . S
C5694 C5693 1.374 . S
C5695 C5692 1.499 . S
C5695 C5696 1.373 . S
C5695 C5697 1.389 . S
C5696 H5669 0.950 . S
C5696 C5682 1.377 . S
C5696 C5695 1.373 . S
C5697 C5681 1.377 . S
C5697 C5695 1.389 . S
C5697 C5698 1.524 . S
C5698 C5697 1.524 . S
C5698 C5699 1.397 . S
C5698 C5703 1.363 . S
C5699 H5670 0.950 . S
C5699 C5698 1.397 . S
C5699 C5700 1.334 . S
C5700 H5671 0.950 . S
C5700 C5699 1.334 . S
C5700 C5701 1.287 . S
C5701 C5700 1.287 . S
C5701 C5702 1.524 . S
C5701 H5704 0.999 . S
C5702 H5672 0.950 . S
C5702 C5701 1.524 . S
C5702 C5703 1.415 . S
C5703 H5673 0.950 . S
C5703 C5698 1.363 . S
C5703 C5702 1.415 . S
H5704 C5701 0.999 . S
H5705 C5686 0.913 . S
H5706 C5724 0.951 . S
H5707 C5726 0.951 . S
H5708 C5728 0.950 . S
H5709 C5729 0.950 . S
H5710 C5731 0.950 . S
H5711 C5734 0.950 . S
H5712 C5735 0.950 . S
H5713 C5737 0.950 . S
H5714 C5738 0.950 . S
H5715 C5739 0.951 . S
H5716 C5741 0.951 . S
H5717 C5743 0.950 . S
H5718 C5744 0.950 . S
H5719 C5746 0.950 . S
H5720 C5749 0.950 . S
H5721 C5750 0.950 . S
H5722 C5752 0.950 . S
H5723 C5753 0.950 . S
C5724 H5706 0.951 . S
C5724 C5725 1.366 . S
C5724 C5726 1.388 . S
C5725 C5724 1.366 . S
C5725 C5729 1.385 . S
C5726 H5707 0.951 . S
C5726 C5724 1.388 . S
C5726 C5727 1.366 . S
C5727 C5726 1.366 . S
C5727 C5728 1.414 . S
C5727 C5730 1.499 . S
C5728 H5708 0.950 . S
C5728 C5727 1.414 . S
C5728 C5729 1.374 . S
C5729 H5709 0.950 . S
C5729 C5725 1.385 . S
C5729 C5728 1.374 . S
C5730 C5727 1.499 . S
C5730 C5731 1.373 . S
C5730 C5732 1.389 . S
C5731 H5710 0.950 . S
C5731 C5730 1.373 . S
C5731 C5747 1.377 . S
C5732 C5730 1.389 . S
C5732 C5733 1.524 . S
C5732 C5746 1.377 . S
C5733 C5732 1.524 . S
C5733 C5734 1.397 . S
C5733 C5738 1.363 . S
C5734 H5711 0.950 . S
C5734 C5733 1.397 . S
C5734 C5735 1.334 . S
C5735 H5712 0.950 . S
C5735 C5734 1.334 . S
C5735 C5736 1.287 . S
C5736 C5735 1.287 . S
C5736 C5737 1.524 . S
C5736 H5755 0.913 . S
C5737 H5713 0.950 . S
C5737 C5736 1.524 . S
C5737 C5738 1.415 . S
C5738 H5714 0.950 . S
C5738 C5733 1.363 . S
C5738 C5737 1.415 . S
C5739 H5715 0.951 . S
C5739 C5740 1.366 . S
C5739 C5741 1.388 . S
C5740 C5739 1.366 . S
C5740 C5744 1.385 . S
C5741 H5716 0.951 . S
C5741 C5739 1.388 . S
C5741 C5742 1.366 . S
C5742 C5741 1.366 . S
C5742 C5743 1.414 . S
C5742 C5745 1.499 . S
C5743 H5717 0.950 . S
C5743 C5742 1.414 . S
C5743 C5744 1.374 . S
C5744 H5718 0.950 . S
C5744 C5740 1.385 . S
C5744 C5743 1.374 . S
C5745 C5742 1.499 . S
C5745 C5746 1.373 . S
C5745 C5747 1.389 . S
C5746 H5719 0.950 . S
C5746 C5732 1.377 . S
C5746 C5745 1.373 . S
C5747 C5731 1.377 . S
C5747 C5745 1.389 . S
C5747 C5748 1.524 . S
C5748 C5747 1.524 . S
C5748 C5749 1.397 . S
C5748 C5753 1.363 . S
C5749 H5720 0.950 . S
C5749 C5748 1.397 . S
C5749 C5750 1.334 . S
C5750 H5721 0.950 . S
C5750 C5749 1.334 . S
C5750 C5751 1.287 . S
C5751 C5750 1.287 . S
C5751 C5752 1.524 . S
C5751 H5754 0.999 . S
C5752 H5722 0.950 . S
C5752 C5751 1.524 . S
C5752 C5753 1.415 . S
C5753 H5723 0.950 . S
C5753 C5748 1.363 . S
C5753 C5752 1.415 . S
H5754 C5751 0.999 . S
H5755 C5736 0.913 . S
H5756 C5774 0.951 . S
H5757 C5776 0.951 . S
H5758 C5778 0.950 . S
H5759 C5779 0.950 . S
H5760 C5781 0.950 . S
H5761 C5784 0.950 . S
H5762 C5785 0.950 . S
H5763 C5787 0.950 . S
H5764 C5788 0.950 . S
H5765 C5789 0.951 . S
H5766 C5791 0.951 . S
H5767 C5793 0.950 . S
H5768 C5794 0.950 . S
H5769 C5796 0.950 . S
H5770 C5799 0.950 . S
H5771 C5800 0.950 . S
H5772 C5802 0.950 . S
H5773 C5803 0.950 . S
C5774 H5756 0.951 . S
C5774 C5775 1.366 . S
C5774 C5776 1.388 . S
C5775 C5774 1.366 . S
C5775 C5779 1.385 . S
C5776 H5757 0.951 . S
C5776 C5774 1.388 . S
C5776 C5777 1.366 . S
C5777 C5776 1.366 . S
C5777 C5778 1.414 . S
C5777 C5780 1.499 . S
C5778 H5758 0.950 . S
C5778 C5777 1.414 . S
C5778 C5779 1.374 . S
C5779 H5759 0.950 . S
C5779 C5775 1.385 . S
C5779 C5778 1.374 . S
C5780 C5777 1.499 . S
C5780 C5781 1.373 . S
C5780 C5782 1.389 . S
C5781 H5760 0.950 . S
C5781 C5780 1.373 . S
C5781 C5797 1.377 . S
C5782 C5780 1.389 . S
C5782 C5783 1.524 . S
C5782 C5796 1.377 . S
C5783 C5782 1.524 . S
C5783 C5784 1.397 . S
C5783 C5788 1.363 . S
C5784 H5761 0.950 . S
C5784 C5783 1.397 . S
C5784 C5785 1.334 . S
C5785 H5762 0.950 . S
C5785 C5784 1.334 . S
C5785 C5786 1.287 . S
C5786 C5785 1.287 . S
C5786 C5787 1.524 . S
C5786 H5805 0.913 . S
C5787 H5763 0.950 . S
C5787 C5786 1.524 . S
C5787 C5788 1.415 . S
C5788 H5764 0.950 . S
C5788 C5783 1.363 . S
C5788 C5787 1.415 . S
C5789 H5765 0.951 . S
C5789 C5790 1.366 . S
C5789 C5791 1.388 . S
C5790 C5789 1.366 . S
C5790 C5794 1.385 . S
C5791 H5766 0.951 . S
C5791 C5789 1.388 . S
C5791 C5792 1.366 . S
C5792 C5791 1.366 . S
C5792 C5793 1.414 . S
C5792 C5795 1.499 . S
C5793 H5767 0.950 . S
C5793 C5792 1.414 . S
C5793 C5794 1.374 . S
C5794 H5768 0.950 . S
C5794 C5790 1.385 . S
C5794 C5793 1.374 . S
C5795 C5792 1.499 . S
C5795 C5796 1.373 . S
C5795 C5797 1.389 . S
C5796 H5769 0.950 . S
C5796 C5782 1.377 . S
C5796 C5795 1.373 . S
C5797 C5781 1.377 . S
C5797 C5795 1.389 . S
C5797 C5798 1.524 . S
C5798 C5797 1.524 . S
C5798 C5799 1.397 . S
C5798 C5803 1.363 . S
C5799 H5770 0.950 . S
C5799 C5798 1.397 . S
C5799 C5800 1.334 . S
C5800 H5771 0.950 . S
C5800 C5799 1.334 . S
C5800 C5801 1.287 . S
C5801 C5800 1.287 . S
C5801 C5802 1.524 . S
C5801 H5804 0.999 . S
C5802 H5772 0.950 . S
C5802 C5801 1.524 . S
C5802 C5803 1.415 . S
C5803 H5773 0.950 . S
C5803 C5798 1.363 . S
C5803 C5802 1.415 . S
H5804 C5801 0.999 . S
H5805 C5786 0.913 . S
H5806 C5824 0.951 . S
H5807 C5826 0.951 . S
H5808 C5828 0.950 . S
H5809 C5829 0.950 . S
H5810 C5831 0.950 . S
H5811 C5834 0.950 . S
H5812 C5835 0.950 . S
H5813 C5837 0.950 . S
H5814 C5838 0.950 . S
H5815 C5839 0.951 . S
H5816 C5841 0.951 . S
H5817 C5843 0.950 . S
H5818 C5844 0.950 . S
H5819 C5846 0.950 . S
H5820 C5849 0.950 . S
H5821 C5850 0.950 . S
H5822 C5852 0.950 . S
H5823 C5853 0.950 . S
C5824 H5806 0.951 . S
C5824 C5825 1.366 . S
C5824 C5826 1.388 . S
C5825 C5824 1.366 . S
C5825 C5829 1.385 . S
C5826 H5807 0.951 . S
C5826 C5824 1.388 . S
C5826 C5827 1.366 . S
C5827 C5826 1.366 . S
C5827 C5828 1.414 . S
C5827 C5830 1.499 . S
C5828 H5808 0.950 . S
C5828 C5827 1.414 . S
C5828 C5829 1.374 . S
C5829 H5809 0.950 . S
C5829 C5825 1.385 . S
C5829 C5828 1.374 . S
C5830 C5827 1.499 . S
C5830 C5831 1.373 . S
C5830 C5832 1.389 . S
C5831 H5810 0.950 . S
C5831 C5830 1.373 . S
C5831 C5847 1.377 . S
C5832 C5830 1.389 . S
C5832 C5833 1.524 . S
C5832 C5846 1.377 . S
C5833 C5832 1.524 . S
C5833 C5834 1.397 . S
C5833 C5838 1.363 . S
C5834 H5811 0.950 . S
C5834 C5833 1.397 . S
C5834 C5835 1.334 . S
C5835 H5812 0.950 . S
C5835 C5834 1.334 . S
C5835 C5836 1.287 . S
C5836 C5835 1.287 . S
C5836 C5837 1.524 . S
C5836 H5855 0.913 . S
C5837 H5813 0.950 . S
C5837 C5836 1.524 . S
C5837 C5838 1.415 . S
C5838 H5814 0.950 . S
C5838 C5833 1.363 . S
C5838 C5837 1.415 . S
C5839 H5815 0.951 . S
C5839 C5840 1.366 . S
C5839 C5841 1.388 . S
C5840 C5839 1.366 . S
C5840 C5844 1.385 . S
C5841 H5816 0.951 . S
C5841 C5839 1.388 . S
C5841 C5842 1.366 . S
C5842 C5841 1.366 . S
C5842 C5843 1.414 . S
C5842 C5845 1.499 . S
C5843 H5817 0.950 . S
C5843 C5842 1.414 . S
C5843 C5844 1.374 . S
C5844 H5818 0.950 . S
C5844 C5840 1.385 . S
C5844 C5843 1.374 . S
C5845 C5842 1.499 . S
C5845 C5846 1.373 . S
C5845 C5847 1.389 . S
C5846 H5819 0.950 . S
C5846 C5832 1.377 . S
C5846 C5845 1.373 . S
C5847 C5831 1.377 . S
C5847 C5845 1.389 . S
C5847 C5848 1.524 . S
C5848 C5847 1.524 . S
C5848 C5849 1.397 . S
C5848 C5853 1.363 . S
C5849 H5820 0.950 . S
C5849 C5848 1.397 . S
C5849 C5850 1.334 . S
C5850 H5821 0.950 . S
C5850 C5849 1.334 . S
C5850 C5851 1.287 . S
C5851 C5850 1.287 . S
C5851 C5852 1.524 . S
C5851 H5854 0.999 . S
C5852 H5822 0.950 . S
C5852 C5851 1.524 . S
C5852 C5853 1.415 . S
C5853 H5823 0.950 . S
C5853 C5848 1.363 . S
C5853 C5852 1.415 . S
H5854 C5851 0.999 . S
H5855 C5836 0.913 . S
H5856 C5874 0.951 . S
H5857 C5876 0.951 . S
H5858 C5878 0.950 . S
H5859 C5879 0.950 . S
H5860 C5881 0.950 . S
H5861 C5884 0.950 . S
H5862 C5885 0.950 . S
H5863 C5887 0.950 . S
H5864 C5888 0.950 . S
H5865 C5889 0.951 . S
H5866 C5891 0.951 . S
H5867 C5893 0.950 . S
H5868 C5894 0.950 . S
H5869 C5896 0.950 . S
H5870 C5899 0.950 . S
H5871 C5900 0.950 . S
H5872 C5902 0.950 . S
H5873 C5903 0.950 . S
C5874 H5856 0.951 . S
C5874 C5875 1.366 . S
C5874 C5876 1.388 . S
C5875 C5874 1.366 . S
C5875 C5879 1.385 . S
C5876 H5857 0.951 . S
C5876 C5874 1.388 . S
C5876 C5877 1.366 . S
C5877 C5876 1.366 . S
C5877 C5878 1.414 . S
C5877 C5880 1.499 . S
C5878 H5858 0.950 . S
C5878 C5877 1.414 . S
C5878 C5879 1.374 . S
C5879 H5859 0.950 . S
C5879 C5875 1.385 . S
C5879 C5878 1.374 . S
C5880 C5877 1.499 . S
C5880 C5881 1.373 . S
C5880 C5882 1.389 . S
C5881 H5860 0.950 . S
C5881 C5880 1.373 . S
C5881 C5897 1.377 . S
C5882 C5880 1.389 . S
C5882 C5883 1.524 . S
C5882 C5896 1.377 . S
C5883 C5882 1.524 . S
C5883 C5884 1.397 . S
C5883 C5888 1.363 . S
C5884 H5861 0.950 . S
C5884 C5883 1.397 . S
C5884 C5885 1.334 . S
C5885 H5862 0.950 . S
C5885 C5884 1.334 . S
C5885 C5886 1.287 . S
C5886 C5885 1.287 . S
C5886 C5887 1.524 . S
C5886 H5905 0.913 . S
C5887 H5863 0.950 . S
C5887 C5886 1.524 . S
C5887 C5888 1.415 . S
C5888 H5864 0.950 . S
C5888 C5883 1.363 . S
C5888 C5887 1.415 . S
C5889 H5865 0.951 . S
C5889 C5890 1.366 . S
C5889 C5891 1.388 . S
C5890 C5889 1.366 . S
C5890 C5894 1.385 . S
C5891 H5866 0.951 . S
C5891 C5889 1.388 . S
C5891 C5892 1.366 . S
C5892 C5891 1.366 . S
C5892 C5893 1.414 . S
C5892 C5895 1.499 . S
C5893 H5867 0.950 . S
C5893 C5892 1.414 . S
C5893 C5894 1.374 . S
C5894 H5868 0.950 . S
C5894 C5890 1.385 . S
C5894 C5893 1.374 . S
C5895 C5892 1.499 . S
C5895 C5896 1.373 . S
C5895 C5897 1.389 . S
C5896 H5869 0.950 . S
C5896 C5882 1.377 . S
C5896 C5895 1.373 . S
C5897 C5881 1.377 . S
C5897 C5895 1.389 . S
C5897 C5898 1.524 . S
C5898 C5897 1.524 . S
C5898 C5899 1.397 . S
C5898 C5903 1.363 . S
C5899 H5870 0.950 . S
C5899 C5898 1.397 . S
C5899 C5900 1.334 . S
C5900 H5871 0.950 . S
C5900 C5899 1.334 . S
C5900 C5901 1.287 . S
C5901 C5900 1.287 . S
C5901 C5902 1.524 . S
C5901 H5904 0.999 . S
C5902 H5872 0.950 . S
C5902 C5901 1.524 . S
C5902 C5903 1.415 . S
C5903 H5873 0.950 . S
C5903 C5898 1.363 . S
C5903 C5902 1.415 . S
H5904 C5901 0.999 . S
H5905 C5886 0.913 . S
H5906 C5924 0.951 . S
H5907 C5926 0.951 . S
H5908 C5928 0.950 . S
H5909 C5929 0.950 . S
H5910 C5931 0.950 . S
H5911 C5934 0.950 . S
H5912 C5935 0.950 . S
H5913 C5937 0.950 . S
H5914 C5938 0.950 . S
H5915 C5939 0.951 . S
H5916 C5941 0.951 . S
H5917 C5943 0.950 . S
H5918 C5944 0.950 . S
H5919 C5946 0.950 . S
H5920 C5949 0.950 . S
H5921 C5950 0.950 . S
H5922 C5952 0.950 . S
H5923 C5953 0.950 . S
C5924 H5906 0.951 . S
C5924 C5925 1.366 . S
C5924 C5926 1.388 . S
C5925 C5924 1.366 . S
C5925 C5929 1.385 . S
C5926 H5907 0.951 . S
C5926 C5924 1.388 . S
C5926 C5927 1.366 . S
C5927 C5926 1.366 . S
C5927 C5928 1.414 . S
C5927 C5930 1.499 . S
C5928 H5908 0.950 . S
C5928 C5927 1.414 . S
C5928 C5929 1.374 . S
C5929 H5909 0.950 . S
C5929 C5925 1.385 . S
C5929 C5928 1.374 . S
C5930 C5927 1.499 . S
C5930 C5931 1.373 . S
C5930 C5932 1.389 . S
C5931 H5910 0.950 . S
C5931 C5930 1.373 . S
C5931 C5947 1.377 . S
C5932 C5930 1.389 . S
C5932 C5933 1.524 . S
C5932 C5946 1.377 . S
C5933 C5932 1.524 . S
C5933 C5934 1.397 . S
C5933 C5938 1.363 . S
C5934 H5911 0.950 . S
C5934 C5933 1.397 . S
C5934 C5935 1.334 . S
C5935 H5912 0.950 . S
C5935 C5934 1.334 . S
C5935 C5936 1.287 . S
C5936 C5935 1.287 . S
C5936 C5937 1.524 . S
C5936 H5955 0.913 . S
C5937 H5913 0.950 . S
C5937 C5936 1.524 . S
C5937 C5938 1.415 . S
C5938 H5914 0.950 . S
C5938 C5933 1.363 . S
C5938 C5937 1.415 . S
C5939 H5915 0.951 . S
C5939 C5940 1.366 . S
C5939 C5941 1.388 . S
C5940 C5939 1.366 . S
C5940 C5944 1.385 . S
C5941 H5916 0.951 . S
C5941 C5939 1.388 . S
C5941 C5942 1.366 . S
C5942 C5941 1.366 . S
C5942 C5943 1.414 . S
C5942 C5945 1.499 . S
C5943 H5917 0.950 . S
C5943 C5942 1.414 . S
C5943 C5944 1.374 . S
C5944 H5918 0.950 . S
C5944 C5940 1.385 . S
C5944 C5943 1.374 . S
C5945 C5942 1.499 . S
C5945 C5946 1.373 . S
C5945 C5947 1.389 . S
C5946 H5919 0.950 . S
C5946 C5932 1.377 . S
C5946 C5945 1.373 . S
C5947 C5931 1.377 . S
C5947 C5945 1.389 . S
C5947 C5948 1.524 . S
C5948 C5947 1.524 . S
C5948 C5949 1.397 . S
C5948 C5953 1.363 . S
C5949 H5920 0.950 . S
C5949 C5948 1.397 . S
C5949 C5950 1.334 . S
C5950 H5921 0.950 . S
C5950 C5949 1.334 . S
C5950 C5951 1.287 . S
C5951 C5950 1.287 . S
C5951 C5952 1.524 . S
C5951 H5954 0.999 . S
C5952 H5922 0.950 . S
C5952 C5951 1.524 . S
C5952 C5953 1.415 . S
C5953 H5923 0.950 . S
C5953 C5948 1.363 . S
C5953 C5952 1.415 . S
H5954 C5951 0.999 . S
H5955 C5936 0.913 . S
H5956 C5974 0.951 . S
H5957 C5976 0.951 . S
H5958 C5978 1.018 . S
H5959 C5979 0.950 1_554 S
H5960 C5981 0.952 1_655 S
H5961 C5984 0.950 . S
H5962 C5985 0.950 . S
H5963 C5987 0.950 . S
H5964 C5988 0.950 . S
H5965 C5989 0.951 . S
H5966 C5991 0.951 . S
H5967 C5993 0.950 . S
H5968 C5994 0.950 . S
H5969 C5996 0.950 . S
H5970 C5999 0.880 1_556 S
H5971 C6000 0.976 . S
H5972 C6002 0.950 . S
H5973 C6003 0.950 . S
C5974 H5956 0.951 . S
C5974 C5975 1.366 . S
C5974 C5976 1.388 . S
C5975 C5974 1.366 . S
C5975 C5979 1.385 . S
C5976 H5957 0.951 . S
C5976 C5974 1.388 . S
C5976 C5977 1.366 . S
C5977 C5976 1.366 . S
C5977 C5978 1.355 1_556 S
C5977 C5980 1.499 . S
C5978 H5958 1.018 . S
C5978 C5977 1.355 1_554 S
C5978 C5979 1.369 1_554 S
C5979 H5959 0.950 1_556 S
C5979 C5975 1.385 . S
C5979 C5978 1.369 1_556 S
C5980 C5977 1.499 . S
C5980 C5981 1.371 1_556 S
C5980 C5982 1.389 . S
C5981 H5960 0.952 1_455 S
C5981 C5980 1.371 1_554 S
C5981 C5997 1.377 . S
C5982 C5980 1.389 . S
C5982 C5983 1.524 . S
C5982 C5996 1.377 . S
C5983 C5982 1.524 . S
C5983 C5984 1.397 . S
C5983 C5988 1.363 . S
C5984 H5961 0.950 . S
C5984 C5983 1.397 . S
C5984 C5985 1.334 . S
C5985 H5962 0.950 . S
C5985 C5984 1.334 . S
C5985 C5986 1.287 . S
C5986 C5985 1.287 . S
C5986 C5987 1.524 . S
C5986 H6005 0.913 . S
C5987 H5963 0.950 . S
C5987 C5986 1.524 . S
C5987 C5988 1.415 . S
C5988 H5964 0.950 . S
C5988 C5983 1.363 . S
C5988 C5987 1.415 . S
C5989 H5965 0.951 . S
C5989 C5990 1.366 . S
C5989 C5991 1.388 . S
C5990 C5989 1.366 . S
C5990 C5994 1.385 1_554 S
C5991 H5966 0.951 . S
C5991 C5989 1.388 . S
C5991 C5992 1.422 . S
C5992 C5991 1.422 . S
C5992 C5993 1.364 1_554 S
C5992 C5995 1.493 1_554 S
C5993 H5967 0.950 . S
C5993 C5992 1.364 1_556 S
C5993 C5994 1.374 . S
C5994 H5968 0.950 . S
C5994 C5990 1.385 1_556 S
C5994 C5993 1.374 . S
C5995 C5992 1.493 1_556 S
C5995 C5996 1.373 . S
C5995 C5997 1.389 1_556 S
C5996 H5969 0.950 . S
C5996 C5982 1.377 . S
C5996 C5995 1.373 . S
C5997 C5981 1.377 . S
C5997 C5995 1.389 1_554 S
C5997 C5998 1.524 1_455 S
C5998 C5997 1.524 1_655 S
C5998 C5999 1.438 . S
C5998 C6003 1.363 . S
C5999 H5970 0.880 1_554 S
C5999 C5998 1.438 . S
C5999 C6000 1.365 . S
C6000 H5971 0.976 . S
C6000 C5999 1.365 . S
C6000 C6001 1.287 . S
C6001 C6000 1.287 . S
C6001 C6002 1.524 . S
C6001 H6004 0.999 . S
C6002 H5972 0.950 . S
C6002 C6001 1.524 . S
C6002 C6003 1.415 . S
C6003 H5973 0.950 . S
C6003 C5998 1.363 . S
C6003 C6002 1.415 . S
H6004 C6001 0.999 . S
H6005 C5986 0.913 . S
H6006 C6024 0.951 . S
H6007 C6026 0.951 . S
H6008 C6028 0.950 . S
H6009 C6029 0.950 . S
H6010 C6031 0.950 . S
H6011 C6034 0.950 . S
H6012 C6035 0.950 . S
H6013 C6037 0.950 . S
H6014 C6038 0.950 . S
H6015 C6039 0.951 . S
H6016 C6041 0.951 . S
H6017 C6043 0.950 . S
H6018 C6044 0.950 . S
H6019 C6046 0.950 . S
H6020 C6049 0.950 . S
H6021 C6050 0.950 . S
H6022 C6052 0.950 . S
H6023 C6053 0.950 . S
C6024 H6006 0.951 . S
C6024 C6025 1.366 . S
C6024 C6026 1.388 . S
C6025 C6024 1.366 . S
C6025 C6029 1.385 . S
C6026 H6007 0.951 . S
C6026 C6024 1.388 . S
C6026 C6027 1.366 . S
C6027 C6026 1.366 . S
C6027 C6028 1.414 . S
C6027 C6030 1.499 . S
C6028 H6008 0.950 . S
C6028 C6027 1.414 . S
C6028 C6029 1.374 . S
C6029 H6009 0.950 . S
C6029 C6025 1.385 . S
C6029 C6028 1.374 . S
C6030 C6027 1.499 . S
C6030 C6031 1.373 . S
C6030 C6032 1.389 . S
C6031 H6010 0.950 . S
C6031 C6030 1.373 . S
C6031 C6047 1.377 . S
C6032 C6030 1.389 . S
C6032 C6033 1.524 . S
C6032 C6046 1.377 . S
C6033 C6032 1.524 . S
C6033 C6034 1.397 . S
C6033 C6038 1.363 . S
C6034 H6011 0.950 . S
C6034 C6033 1.397 . S
C6034 C6035 1.334 . S
C6035 H6012 0.950 . S
C6035 C6034 1.334 . S
C6035 C6036 1.287 . S
C6036 C6035 1.287 . S
C6036 C6037 1.524 . S
C6036 H6055 0.913 . S
C6037 H6013 0.950 . S
C6037 C6036 1.524 . S
C6037 C6038 1.415 . S
C6038 H6014 0.950 . S
C6038 C6033 1.363 . S
C6038 C6037 1.415 . S
C6039 H6015 0.951 . S
C6039 C6040 1.366 . S
C6039 C6041 1.388 . S
C6040 C6039 1.366 . S
C6040 C6044 1.385 . S
C6041 H6016 0.951 . S
C6041 C6039 1.388 . S
C6041 C6042 1.366 . S
C6042 C6041 1.366 . S
C6042 C6043 1.414 . S
C6042 C6045 1.499 . S
C6043 H6017 0.950 . S
C6043 C6042 1.414 . S
C6043 C6044 1.374 . S
C6044 H6018 0.950 . S
C6044 C6040 1.385 . S
C6044 C6043 1.374 . S
C6045 C6042 1.499 . S
C6045 C6046 1.373 . S
C6045 C6047 1.389 . S
C6046 H6019 0.950 . S
C6046 C6032 1.377 . S
C6046 C6045 1.373 . S
C6047 C6031 1.377 . S
C6047 C6045 1.389 . S
C6047 C6048 1.524 . S
C6048 C6047 1.524 . S
C6048 C6049 1.397 . S
C6048 C6053 1.363 . S
C6049 H6020 0.950 . S
C6049 C6048 1.397 . S
C6049 C6050 1.334 . S
C6050 H6021 0.950 . S
C6050 C6049 1.334 . S
C6050 C6051 1.287 . S
C6051 C6050 1.287 . S
C6051 C6052 1.524 . S
C6051 H6054 0.999 . S
C6052 H6022 0.950 . S
C6052 C6051 1.524 . S
C6052 C6053 1.415 . S
C6053 H6023 0.950 . S
C6053 C6048 1.363 . S
C6053 C6052 1.415 . S
H6054 C6051 0.999 . S
H6055 C6036 0.913 . S
H6056 C6074 0.951 . S
H6057 C6076 0.951 . S
H6058 C6078 0.950 . S
H6059 C6079 0.950 . S
H6060 C6081 0.950 . S
H6061 C6084 0.950 . S
H6062 C6085 0.950 . S
H6063 C6087 0.950 . S
H6064 C6088 0.950 . S
H6065 C6089 0.951 . S
H6066 C6091 0.951 . S
H6067 C6093 0.950 . S
H6068 C6094 0.950 . S
H6069 C6096 0.950 . S
H6070 C6099 0.950 . S
H6071 C6100 0.950 . S
H6072 C6102 0.950 . S
H6073 C6103 0.950 . S
C6074 H6056 0.951 . S
C6074 C6075 1.366 . S
C6074 C6076 1.388 . S
C6075 C6074 1.366 . S
C6075 C6079 1.385 . S
C6076 H6057 0.951 . S
C6076 C6074 1.388 . S
C6076 C6077 1.366 . S
C6077 C6076 1.366 . S
C6077 C6078 1.414 . S
C6077 C6080 1.499 . S
C6078 H6058 0.950 . S
C6078 C6077 1.414 . S
C6078 C6079 1.374 . S
C6079 H6059 0.950 . S
C6079 C6075 1.385 . S
C6079 C6078 1.374 . S
C6080 C6077 1.499 . S
C6080 C6081 1.373 . S
C6080 C6082 1.389 . S
C6081 H6060 0.950 . S
C6081 C6080 1.373 . S
C6081 C6097 1.377 . S
C6082 C6080 1.389 . S
C6082 C6083 1.524 . S
C6082 C6096 1.377 . S
C6083 C6082 1.524 . S
C6083 C6084 1.397 . S
C6083 C6088 1.363 . S
C6084 H6061 0.950 . S
C6084 C6083 1.397 . S
C6084 C6085 1.334 . S
C6085 H6062 0.950 . S
C6085 C6084 1.334 . S
C6085 C6086 1.287 . S
C6086 C6085 1.287 . S
C6086 C6087 1.524 . S
C6086 H6105 0.913 . S
C6087 H6063 0.950 . S
C6087 C6086 1.524 . S
C6087 C6088 1.415 . S
C6088 H6064 0.950 . S
C6088 C6083 1.363 . S
C6088 C6087 1.415 . S
C6089 H6065 0.951 . S
C6089 C6090 1.366 . S
C6089 C6091 1.388 . S
C6090 C6089 1.366 . S
C6090 C6094 1.385 . S
C6091 H6066 0.951 . S
C6091 C6089 1.388 . S
C6091 C6092 1.366 . S
C6092 C6091 1.366 . S
C6092 C6093 1.414 . S
C6092 C6095 1.499 . S
C6093 H6067 0.950 . S
C6093 C6092 1.414 . S
C6093 C6094 1.374 . S
C6094 H6068 0.950 . S
C6094 C6090 1.385 . S
C6094 C6093 1.374 . S
C6095 C6092 1.499 . S
C6095 C6096 1.373 . S
C6095 C6097 1.389 . S
C6096 H6069 0.950 . S
C6096 C6082 1.377 . S
C6096 C6095 1.373 . S
C6097 C6081 1.377 . S
C6097 C6095 1.389 . S
C6097 C6098 1.524 . S
C6098 C6097 1.524 . S
C6098 C6099 1.397 . S
C6098 C6103 1.363 . S
C6099 H6070 0.950 . S
C6099 C6098 1.397 . S
C6099 C6100 1.334 . S
C6100 H6071 0.950 . S
C6100 C6099 1.334 . S
C6100 C6101 1.287 . S
C6101 C6100 1.287 . S
C6101 C6102 1.524 . S
C6101 H6104 0.999 . S
C6102 H6072 0.950 . S
C6102 C6101 1.524 . S
C6102 C6103 1.415 . S
C6103 H6073 0.950 . S
C6103 C6098 1.363 . S
C6103 C6102 1.415 . S
H6104 C6101 0.999 . S
H6105 C6086 0.913 . S
H6106 C6124 0.951 . S
H6107 C6126 0.951 . S
H6108 C6128 0.950 . S
H6109 C6129 0.950 . S
H6110 C6131 0.950 . S
H6111 C6134 0.950 . S
H6112 C6135 0.950 . S
H6113 C6137 0.950 . S
H6114 C6138 0.950 . S
H6115 C6139 0.951 . S
H6116 C6141 0.951 . S
H6117 C6143 0.950 . S
H6118 C6144 0.950 . S
H6119 C6146 0.950 . S
H6120 C6149 0.950 . S
H6121 C6150 0.950 . S
H6122 C6152 0.950 . S
H6123 C6153 0.950 . S
C6124 H6106 0.951 . S
C6124 C6125 1.366 . S
C6124 C6126 1.388 . S
C6125 C6124 1.366 . S
C6125 C6129 1.385 . S
C6126 H6107 0.951 . S
C6126 C6124 1.388 . S
C6126 C6127 1.366 . S
C6127 C6126 1.366 . S
C6127 C6128 1.414 . S
C6127 C6130 1.499 . S
C6128 H6108 0.950 . S
C6128 C6127 1.414 . S
C6128 C6129 1.374 . S
C6129 H6109 0.950 . S
C6129 C6125 1.385 . S
C6129 C6128 1.374 . S
C6130 C6127 1.499 . S
C6130 C6131 1.373 . S
C6130 C6132 1.389 . S
C6131 H6110 0.950 . S
C6131 C6130 1.373 . S
C6131 C6147 1.377 . S
C6132 C6130 1.389 . S
C6132 C6133 1.524 . S
C6132 C6146 1.377 . S
C6133 C6132 1.524 . S
C6133 C6134 1.397 . S
C6133 C6138 1.363 . S
C6134 H6111 0.950 . S
C6134 C6133 1.397 . S
C6134 C6135 1.334 . S
C6135 H6112 0.950 . S
C6135 C6134 1.334 . S
C6135 C6136 1.287 . S
C6136 C6135 1.287 . S
C6136 C6137 1.524 . S
C6136 H6155 0.913 . S
C6137 H6113 0.950 . S
C6137 C6136 1.524 . S
C6137 C6138 1.415 . S
C6138 H6114 0.950 . S
C6138 C6133 1.363 . S
C6138 C6137 1.415 . S
C6139 H6115 0.951 . S
C6139 C6140 1.366 . S
C6139 C6141 1.388 . S
C6140 C6139 1.366 . S
C6140 C6144 1.385 . S
C6141 H6116 0.951 . S
C6141 C6139 1.388 . S
C6141 C6142 1.366 . S
C6142 C6141 1.366 . S
C6142 C6143 1.414 . S
C6142 C6145 1.499 . S
C6143 H6117 0.950 . S
C6143 C6142 1.414 . S
C6143 C6144 1.374 . S
C6144 H6118 0.950 . S
C6144 C6140 1.385 . S
C6144 C6143 1.374 . S
C6145 C6142 1.499 . S
C6145 C6146 1.373 . S
C6145 C6147 1.389 . S
C6146 H6119 0.950 . S
C6146 C6132 1.377 . S
C6146 C6145 1.373 . S
C6147 C6131 1.377 . S
C6147 C6145 1.389 . S
C6147 C6148 1.524 . S
C6148 C6147 1.524 . S
C6148 C6149 1.397 . S
C6148 C6153 1.363 . S
C6149 H6120 0.950 . S
C6149 C6148 1.397 . S
C6149 C6150 1.334 . S
C6150 H6121 0.950 . S
C6150 C6149 1.334 . S
C6150 C6151 1.287 . S
C6151 C6150 1.287 . S
C6151 C6152 1.524 . S
C6151 H6154 0.999 . S
C6152 H6122 0.950 . S
C6152 C6151 1.524 . S
C6152 C6153 1.415 . S
C6153 H6123 0.950 . S
C6153 C6148 1.363 . S
C6153 C6152 1.415 . S
H6154 C6151 0.999 . S
H6155 C6136 0.913 . S
H6156 C6174 0.951 . S
H6157 C6176 0.951 . S
H6158 C6178 0.950 . S
H6159 C6179 0.950 . S
H6160 C6181 0.950 . S
H6161 C6184 0.950 . S
H6162 C6185 0.950 . S
H6163 C6187 0.950 . S
H6164 C6188 0.950 . S
H6165 C6189 0.951 . S
H6166 C6191 0.951 . S
H6167 C6193 0.947 . S
H6168 C6194 0.950 1_655 S
H6169 C6196 0.950 . S
H6170 C6199 0.950 1_655 S
H6171 C6200 0.950 1_655 S
H6172 C6202 0.950 . S
H6173 C6203 0.950 . S
C6174 H6156 0.951 . S
C6174 C6175 1.366 1_655 S
C6174 C6176 1.388 . S
C6175 C6174 1.366 1_455 S
C6175 C6179 1.385 . S
C6176 H6157 0.951 . S
C6176 C6174 1.388 . S
C6176 C6177 1.366 1_655 S
C6177 C6176 1.366 1_455 S
C6177 C6178 1.414 . S
C6177 C6180 1.499 . S
C6178 H6158 0.950 . S
C6178 C6177 1.414 . S
C6178 C6179 1.374 . S
C6179 H6159 0.950 . S
C6179 C6175 1.385 . S
C6179 C6178 1.374 . S
C6180 C6177 1.499 . S
C6180 C6181 1.373 . S
C6180 C6182 1.389 . S
C6181 H6160 0.950 . S
C6181 C6180 1.373 . S
C6181 C6197 1.377 . S
C6182 C6180 1.389 . S
C6182 C6183 1.524 . S
C6182 C6196 1.377 . S
C6183 C6182 1.524 . S
C6183 C6184 1.397 . S
C6183 C6188 1.363 1_455 S
C6184 H6161 0.950 . S
C6184 C6183 1.397 . S
C6184 C6185 1.334 . S
C6185 H6162 0.950 . S
C6185 C6184 1.334 . S
C6185 C6186 1.287 . S
C6186 C6185 1.287 . S
C6186 C6187 1.524 1_455 S
C6186 H6205 0.928 . S
C6187 H6163 0.950 . S
C6187 C6186 1.524 1_655 S
C6187 C6188 1.415 . S
C6188 H6164 0.950 . S
C6188 C6183 1.363 1_655 S
C6188 C6187 1.415 . S
C6189 H6165 0.951 . S
C6189 C6190 1.366 . S
C6189 C6191 1.388 . S
C6190 C6189 1.366 . S
C6190 C6194 1.385 . S
C6191 H6166 0.951 . S
C6191 C6189 1.388 . S
C6191 C6192 1.366 . S
C6192 C6191 1.366 . S
C6192 C6193 1.416 1_455 S
C6192 C6195 1.499 . S
C6193 H6167 0.947 . S
C6193 C6192 1.416 1_655 S
C6193 C6194 1.375 1_655 S
C6194 H6168 0.950 1_455 S
C6194 C6190 1.385 . S
C6194 C6193 1.375 1_455 S
C6195 C6192 1.499 . S
C6195 C6196 1.373 . S
C6195 C6197 1.389 . S
C6196 H6169 0.950 . S
C6196 C6182 1.377 . S
C6196 C6195 1.373 . S
C6197 C6181 1.377 . S
C6197 C6195 1.389 . S
C6197 C6198 1.524 . S
C6198 C6197 1.524 . S
C6198 C6199 1.397 . S
C6198 C6203 1.363 . S
C6199 H6170 0.950 1_455 S
C6199 C6198 1.397 . S
C6199 C6200 1.334 . S
C6200 H6171 0.950 1_455 S
C6200 C6199 1.334 . S
C6200 C6201 1.287 . S
C6201 C6200 1.287 . S
C6201 C6202 1.524 . S
C6201 H6204 0.999 . S
C6202 H6172 0.950 . S
C6202 C6201 1.524 . S
C6202 C6203 1.415 . S
C6203 H6173 0.950 . S
C6203 C6198 1.363 . S
C6203 C6202 1.415 . S
H6204 C6201 0.999 . S
H6205 C6186 0.928 . S
H6206 C6224 0.951 . S
H6207 C6226 0.951 . S
H6208 C6228 0.950 . S
H6209 C6229 0.950 . S
H6210 C6231 0.950 . S
H6211 C6234 0.950 . S
H6212 C6235 0.950 . S
H6213 C6237 0.950 . S
H6214 C6238 0.950 . S
H6215 C6239 0.951 . S
H6216 C6241 0.951 . S
H6217 C6243 0.950 . S
H6218 C6244 0.950 . S
H6219 C6246 0.950 . S
H6220 C6249 0.950 . S
H6221 C6250 0.950 . S
H6222 C6252 0.950 . S
H6223 C6253 0.950 . S
C6224 H6206 0.951 . S
C6224 C6225 1.366 . S
C6224 C6226 1.388 . S
C6225 C6224 1.366 . S
C6225 C6229 1.385 . S
C6226 H6207 0.951 . S
C6226 C6224 1.388 . S
C6226 C6227 1.366 . S
C6227 C6226 1.366 . S
C6227 C6228 1.414 . S
C6227 C6230 1.499 . S
C6228 H6208 0.950 . S
C6228 C6227 1.414 . S
C6228 C6229 1.374 . S
C6229 H6209 0.950 . S
C6229 C6225 1.385 . S
C6229 C6228 1.374 . S
C6230 C6227 1.499 . S
C6230 C6231 1.373 . S
C6230 C6232 1.389 . S
C6231 H6210 0.950 . S
C6231 C6230 1.373 . S
C6231 C6247 1.377 . S
C6232 C6230 1.389 . S
C6232 C6233 1.524 . S
C6232 C6246 1.377 . S
C6233 C6232 1.524 . S
C6233 C6234 1.397 . S
C6233 C6238 1.363 . S
C6234 H6211 0.950 . S
C6234 C6233 1.397 . S
C6234 C6235 1.334 . S
C6235 H6212 0.950 . S
C6235 C6234 1.334 . S
C6235 C6236 1.287 . S
C6236 C6235 1.287 . S
C6236 C6237 1.524 . S
C6236 H6255 0.913 . S
C6237 H6213 0.950 . S
C6237 C6236 1.524 . S
C6237 C6238 1.415 . S
C6238 H6214 0.950 . S
C6238 C6233 1.363 . S
C6238 C6237 1.415 . S
C6239 H6215 0.951 . S
C6239 C6240 1.366 . S
C6239 C6241 1.388 . S
C6240 C6239 1.366 . S
C6240 C6244 1.385 . S
C6241 H6216 0.951 . S
C6241 C6239 1.388 . S
C6241 C6242 1.366 . S
C6242 C6241 1.366 . S
C6242 C6243 1.414 . S
C6242 C6245 1.499 . S
C6243 H6217 0.950 . S
C6243 C6242 1.414 . S
C6243 C6244 1.374 . S
C6244 H6218 0.950 . S
C6244 C6240 1.385 . S
C6244 C6243 1.374 . S
C6245 C6242 1.499 . S
C6245 C6246 1.373 . S
C6245 C6247 1.389 . S
C6246 H6219 0.950 . S
C6246 C6232 1.377 . S
C6246 C6245 1.373 . S
C6247 C6231 1.377 . S
C6247 C6245 1.389 . S
C6247 C6248 1.524 . S
C6248 C6247 1.524 . S
C6248 C6249 1.397 . S
C6248 C6253 1.363 . S
C6249 H6220 0.950 . S
C6249 C6248 1.397 . S
C6249 C6250 1.334 . S
C6250 H6221 0.950 . S
C6250 C6249 1.334 . S
C6250 C6251 1.287 . S
C6251 C6250 1.287 . S
C6251 C6252 1.524 . S
C6251 H6254 0.999 . S
C6252 H6222 0.950 . S
C6252 C6251 1.524 . S
C6252 C6253 1.415 . S
C6253 H6223 0.950 . S
C6253 C6248 1.363 . S
C6253 C6252 1.415 . S
H6254 C6251 0.999 . S
H6255 C6236 0.913 . S
H6256 C6274 0.951 . S
H6257 C6276 0.951 . S
H6258 C6278 0.950 . S
H6259 C6279 0.950 . S
H6260 C6281 0.950 . S
H6261 C6284 0.950 . S
H6262 C6285 0.950 . S
H6263 C6287 0.950 . S
H6264 C6288 0.950 . S
H6265 C6289 0.951 . S
H6266 C6291 0.951 . S
H6267 C6293 0.950 . S
H6268 C6294 0.950 . S
H6269 C6296 0.950 . S
H6270 C6299 0.950 . S
H6271 C6300 0.950 . S
H6272 C6302 0.950 . S
H6273 C6303 0.950 . S
C6274 H6256 0.951 . S
C6274 C6275 1.366 . S
C6274 C6276 1.388 . S
C6275 C6274 1.366 . S
C6275 C6279 1.385 . S
C6276 H6257 0.951 . S
C6276 C6274 1.388 . S
C6276 C6277 1.366 . S
C6277 C6276 1.366 . S
C6277 C6278 1.414 . S
C6277 C6280 1.499 . S
C6278 H6258 0.950 . S
C6278 C6277 1.414 . S
C6278 C6279 1.374 . S
C6279 H6259 0.950 . S
C6279 C6275 1.385 . S
C6279 C6278 1.374 . S
C6280 C6277 1.499 . S
C6280 C6281 1.373 . S
C6280 C6282 1.389 . S
C6281 H6260 0.950 . S
C6281 C6280 1.373 . S
C6281 C6297 1.377 . S
C6282 C6280 1.389 . S
C6282 C6283 1.524 . S
C6282 C6296 1.377 . S
C6283 C6282 1.524 . S
C6283 C6284 1.397 . S
C6283 C6288 1.363 . S
C6284 H6261 0.950 . S
C6284 C6283 1.397 . S
C6284 C6285 1.334 . S
C6285 H6262 0.950 . S
C6285 C6284 1.334 . S
C6285 C6286 1.287 . S
C6286 C6285 1.287 . S
C6286 C6287 1.524 . S
C6286 H6305 0.913 . S
C6287 H6263 0.950 . S
C6287 C6286 1.524 . S
C6287 C6288 1.415 . S
C6288 H6264 0.950 . S
C6288 C6283 1.363 . S
C6288 C6287 1.415 . S
C6289 H6265 0.951 . S
C6289 C6290 1.366 . S
C6289 C6291 1.388 . S
C6290 C6289 1.366 . S
C6290 C6294 1.385 . S
C6291 H6266 0.951 . S
C6291 C6289 1.388 . S
C6291 C6292 1.366 . S
C6292 C6291 1.366 . S
C6292 C6293 1.414 . S
C6292 C6295 1.499 . S
C6293 H6267 0.950 . S
C6293 C6292 1.414 . S
C6293 C6294 1.374 . S
C6294 H6268 0.950 . S
C6294 C6290 1.385 . S
C6294 C6293 1.374 . S
C6295 C6292 1.499 . S
C6295 C6296 1.373 . S
C6295 C6297 1.389 . S
C6296 H6269 0.950 . S
C6296 C6282 1.377 . S
C6296 C6295 1.373 . S
C6297 C6281 1.377 . S
C6297 C6295 1.389 . S
C6297 C6298 1.524 . S
C6298 C6297 1.524 . S
C6298 C6299 1.397 . S
C6298 C6303 1.363 . S
C6299 H6270 0.950 . S
C6299 C6298 1.397 . S
C6299 C6300 1.334 . S
C6300 H6271 0.950 . S
C6300 C6299 1.334 . S
C6300 C6301 1.287 . S
C6301 C6300 1.287 . S
C6301 C6302 1.524 . S
C6301 H6304 0.999 . S
C6302 H6272 0.950 . S
C6302 C6301 1.524 . S
C6302 C6303 1.415 . S
C6303 H6273 0.950 . S
C6303 C6298 1.363 . S
C6303 C6302 1.415 . S
H6304 C6301 0.999 . S
H6305 C6286 0.913 . S
H6306 C6324 0.951 . S
H6307 C6326 0.951 . S
H6308 C6328 0.950 . S
H6309 C6329 0.950 . S
H6310 C6331 0.950 . S
H6311 C6334 0.950 . S
H6312 C6335 0.950 . S
H6313 C6337 0.950 . S
H6314 C6338 0.950 . S
H6315 C6339 0.951 . S
H6316 C6341 0.951 . S
H6317 C6343 0.950 . S
H6318 C6344 0.950 . S
H6319 C6346 0.950 . S
H6320 C6349 0.950 . S
H6321 C6350 0.950 . S
H6322 C6352 0.950 . S
H6323 C6353 0.950 . S
C6324 H6306 0.951 . S
C6324 C6325 1.366 . S
C6324 C6326 1.388 . S
C6325 C6324 1.366 . S
C6325 C6329 1.385 . S
C6326 H6307 0.951 . S
C6326 C6324 1.388 . S
C6326 C6327 1.366 . S
C6327 C6326 1.366 . S
C6327 C6328 1.414 . S
C6327 C6330 1.499 . S
C6328 H6308 0.950 . S
C6328 C6327 1.414 . S
C6328 C6329 1.374 . S
C6329 H6309 0.950 . S
C6329 C6325 1.385 . S
C6329 C6328 1.374 . S
C6330 C6327 1.499 . S
C6330 C6331 1.373 . S
C6330 C6332 1.389 . S
C6331 H6310 0.950 . S
C6331 C6330 1.373 . S
C6331 C6347 1.377 . S
C6332 C6330 1.389 . S
C6332 C6333 1.524 . S
C6332 C6346 1.377 . S
C6333 C6332 1.524 . S
C6333 C6334 1.397 . S
C6333 C6338 1.363 . S
C6334 H6311 0.950 . S
C6334 C6333 1.397 . S
C6334 C6335 1.334 . S
C6335 H6312 0.950 . S
C6335 C6334 1.334 . S
C6335 C6336 1.287 . S
C6336 C6335 1.287 . S
C6336 C6337 1.524 . S
C6336 H6355 0.913 . S
C6337 H6313 0.950 . S
C6337 C6336 1.524 . S
C6337 C6338 1.415 . S
C6338 H6314 0.950 . S
C6338 C6333 1.363 . S
C6338 C6337 1.415 . S
C6339 H6315 0.951 . S
C6339 C6340 1.366 . S
C6339 C6341 1.388 . S
C6340 C6339 1.366 . S
C6340 C6344 1.385 . S
C6341 H6316 0.951 . S
C6341 C6339 1.388 . S
C6341 C6342 1.366 . S
C6342 C6341 1.366 . S
C6342 C6343 1.414 . S
C6342 C6345 1.499 . S
C6343 H6317 0.950 . S
C6343 C6342 1.414 . S
C6343 C6344 1.374 . S
C6344 H6318 0.950 . S
C6344 C6340 1.385 . S
C6344 C6343 1.374 . S
C6345 C6342 1.499 . S
C6345 C6346 1.373 . S
C6345 C6347 1.389 . S
C6346 H6319 0.950 . S
C6346 C6332 1.377 . S
C6346 C6345 1.373 . S
C6347 C6331 1.377 . S
C6347 C6345 1.389 . S
C6347 C6348 1.524 . S
C6348 C6347 1.524 . S
C6348 C6349 1.397 . S
C6348 C6353 1.363 . S
C6349 H6320 0.950 . S
C6349 C6348 1.397 . S
C6349 C6350 1.334 . S
C6350 H6321 0.950 . S
C6350 C6349 1.334 . S
C6350 C6351 1.287 . S
C6351 C6350 1.287 . S
C6351 C6352 1.524 . S
C6351 H6354 0.999 . S
C6352 H6322 0.950 . S
C6352 C6351 1.524 . S
C6352 C6353 1.415 . S
C6353 H6323 0.950 . S
C6353 C6348 1.363 . S
C6353 C6352 1.415 . S
H6354 C6351 0.999 . S
H6355 C6336 0.913 . S
H6356 C6374 0.951 . S
H6357 C6376 0.951 . S
H6358 C6378 0.950 . S
H6359 C6379 0.950 . S
H6360 C6381 0.950 . S
H6361 C6384 0.950 . S
H6362 C6385 0.950 . S
H6363 C6387 0.950 . S
H6364 C6388 0.950 . S
H6365 C6389 0.951 . S
H6366 C6391 0.951 . S
H6367 C6393 0.950 . S
H6368 C6394 0.950 . S
H6369 C6396 0.950 . S
H6370 C6399 0.950 . S
H6371 C6400 0.950 . S
H6372 C6402 0.950 . S
H6373 C6403 0.950 . S
C6374 H6356 0.951 . S
C6374 C6375 1.366 . S
C6374 C6376 1.388 . S
C6375 C6374 1.366 . S
C6375 C6379 1.385 . S
C6376 H6357 0.951 . S
C6376 C6374 1.388 . S
C6376 C6377 1.366 . S
C6377 C6376 1.366 . S
C6377 C6378 1.414 . S
C6377 C6380 1.499 . S
C6378 H6358 0.950 . S
C6378 C6377 1.414 . S
C6378 C6379 1.374 . S
C6379 H6359 0.950 . S
C6379 C6375 1.385 . S
C6379 C6378 1.374 . S
C6380 C6377 1.499 . S
C6380 C6381 1.373 . S
C6380 C6382 1.389 . S
C6381 H6360 0.950 . S
C6381 C6380 1.373 . S
C6381 C6397 1.377 . S
C6382 C6380 1.389 . S
C6382 C6383 1.524 . S
C6382 C6396 1.377 . S
C6383 C6382 1.524 . S
C6383 C6384 1.397 . S
C6383 C6388 1.363 . S
C6384 H6361 0.950 . S
C6384 C6383 1.397 . S
C6384 C6385 1.334 . S
C6385 H6362 0.950 . S
C6385 C6384 1.334 . S
C6385 C6386 1.287 . S
C6386 C6385 1.287 . S
C6386 C6387 1.524 . S
C6386 H6405 0.913 . S
C6387 H6363 0.950 . S
C6387 C6386 1.524 . S
C6387 C6388 1.415 . S
C6388 H6364 0.950 . S
C6388 C6383 1.363 . S
C6388 C6387 1.415 . S
C6389 H6365 0.951 . S
C6389 C6390 1.366 . S
C6389 C6391 1.388 . S
C6390 C6389 1.366 . S
C6390 C6394 1.385 . S
C6391 H6366 0.951 . S
C6391 C6389 1.388 . S
C6391 C6392 1.366 . S
C6392 C6391 1.366 . S
C6392 C6393 1.414 . S
C6392 C6395 1.499 . S
C6393 H6367 0.950 . S
C6393 C6392 1.414 . S
C6393 C6394 1.374 . S
C6394 H6368 0.950 . S
C6394 C6390 1.385 . S
C6394 C6393 1.374 . S
C6395 C6392 1.499 . S
C6395 C6396 1.373 . S
C6395 C6397 1.389 . S
C6396 H6369 0.950 . S
C6396 C6382 1.377 . S
C6396 C6395 1.373 . S
C6397 C6381 1.377 . S
C6397 C6395 1.389 . S
C6397 C6398 1.524 . S
C6398 C6397 1.524 . S
C6398 C6399 1.397 . S
C6398 C6403 1.363 . S
C6399 H6370 0.950 . S
C6399 C6398 1.397 . S
C6399 C6400 1.334 . S
C6400 H6371 0.950 . S
C6400 C6399 1.334 . S
C6400 C6401 1.287 . S
C6401 C6400 1.287 . S
C6401 C6402 1.524 . S
C6401 H6404 0.999 . S
C6402 H6372 0.950 . S
C6402 C6401 1.524 . S
C6402 C6403 1.415 . S
C6403 H6373 0.950 . S
C6403 C6398 1.363 . S
C6403 C6402 1.415 . S
H6404 C6401 0.999 . S
H6405 C6386 0.913 . S
H6406 C6424 0.951 . S
H6407 C6426 0.951 . S
H6408 C6428 0.950 . S
H6409 C6429 0.950 . S
H6410 C6431 0.950 . S
H6411 C6434 0.950 . S
H6412 C6435 0.950 . S
H6413 C6437 0.950 . S
H6414 C6438 0.950 . S
H6415 C6439 0.951 . S
H6416 C6441 0.951 . S
H6417 C6443 0.950 . S
H6418 C6444 0.950 . S
H6419 C6446 0.950 . S
H6420 C6449 0.950 . S
H6421 C6450 0.950 . S
H6422 C6452 0.950 . S
H6423 C6453 0.950 . S
C6424 H6406 0.951 . S
C6424 C6425 1.366 . S
C6424 C6426 1.388 . S
C6425 C6424 1.366 . S
C6425 C6429 1.385 . S
C6426 H6407 0.951 . S
C6426 C6424 1.388 . S
C6426 C6427 1.366 . S
C6427 C6426 1.366 . S
C6427 C6428 1.414 . S
C6427 C6430 1.499 . S
C6428 H6408 0.950 . S
C6428 C6427 1.414 . S
C6428 C6429 1.374 . S
C6429 H6409 0.950 . S
C6429 C6425 1.385 . S
C6429 C6428 1.374 . S
C6430 C6427 1.499 . S
C6430 C6431 1.373 . S
C6430 C6432 1.389 . S
C6431 H6410 0.950 . S
C6431 C6430 1.373 . S
C6431 C6447 1.377 . S
C6432 C6430 1.389 . S
C6432 C6433 1.524 . S
C6432 C6446 1.377 . S
C6433 C6432 1.524 . S
C6433 C6434 1.397 . S
C6433 C6438 1.363 . S
C6434 H6411 0.950 . S
C6434 C6433 1.397 . S
C6434 C6435 1.334 . S
C6435 H6412 0.950 . S
C6435 C6434 1.334 . S
C6435 C6436 1.287 . S
C6436 C6435 1.287 . S
C6436 C6437 1.524 . S
C6436 H6455 0.913 . S
C6437 H6413 0.950 . S
C6437 C6436 1.524 . S
C6437 C6438 1.415 . S
C6438 H6414 0.950 . S
C6438 C6433 1.363 . S
C6438 C6437 1.415 . S
C6439 H6415 0.951 . S
C6439 C6440 1.366 . S
C6439 C6441 1.388 . S
C6440 C6439 1.366 . S
C6440 C6444 1.385 . S
C6441 H6416 0.951 . S
C6441 C6439 1.388 . S
C6441 C6442 1.366 . S
C6442 C6441 1.366 . S
C6442 C6443 1.414 . S
C6442 C6445 1.499 . S
C6443 H6417 0.950 . S
C6443 C6442 1.414 . S
C6443 C6444 1.374 . S
C6444 H6418 0.950 . S
C6444 C6440 1.385 . S
C6444 C6443 1.374 . S
C6445 C6442 1.499 . S
C6445 C6446 1.373 . S
C6445 C6447 1.389 . S
C6446 H6419 0.950 . S
C6446 C6432 1.377 . S
C6446 C6445 1.373 . S
C6447 C6431 1.377 . S
C6447 C6445 1.389 . S
C6447 C6448 1.524 . S
C6448 C6447 1.524 . S
C6448 C6449 1.397 . S
C6448 C6453 1.363 . S
C6449 H6420 0.950 . S
C6449 C6448 1.397 . S
C6449 C6450 1.334 . S
C6450 H6421 0.950 . S
C6450 C6449 1.334 . S
C6450 C6451 1.287 . S
C6451 C6450 1.287 . S
C6451 C6452 1.524 . S
C6451 H6454 0.999 . S
C6452 H6422 0.950 . S
C6452 C6451 1.524 . S
C6452 C6453 1.415 . S
C6453 H6423 0.950 . S
C6453 C6448 1.363 . S
C6453 C6452 1.415 . S
H6454 C6451 0.999 . S
H6455 C6436 0.913 . S
H6456 C6474 0.951 . S
H6457 C6476 0.951 . S
H6458 C6478 0.950 . S
H6459 C6479 0.950 . S
H6460 C6481 0.950 . S
H6461 C6484 0.950 . S
H6462 C6485 0.950 . S
H6463 C6487 0.950 . S
H6464 C6488 0.950 . S
H6465 C6489 0.951 . S
H6466 C6491 0.951 . S
H6467 C6493 0.950 . S
H6468 C6494 0.950 . S
H6469 C6496 0.950 . S
H6470 C6499 0.950 . S
H6471 C6500 0.950 . S
H6472 C6502 0.950 . S
H6473 C6503 0.950 . S
C6474 H6456 0.951 . S
C6474 C6475 1.366 . S
C6474 C6476 1.388 . S
C6475 C6474 1.366 . S
C6475 C6479 1.385 . S
C6476 H6457 0.951 . S
C6476 C6474 1.388 . S
C6476 C6477 1.366 . S
C6477 C6476 1.366 . S
C6477 C6478 1.414 . S
C6477 C6480 1.499 . S
C6478 H6458 0.950 . S
C6478 C6477 1.414 . S
C6478 C6479 1.374 . S
C6479 H6459 0.950 . S
C6479 C6475 1.385 . S
C6479 C6478 1.374 . S
C6480 C6477 1.499 . S
C6480 C6481 1.373 . S
C6480 C6482 1.389 . S
C6481 H6460 0.950 . S
C6481 C6480 1.373 . S
C6481 C6497 1.377 . S
C6482 C6480 1.389 . S
C6482 C6483 1.524 . S
C6482 C6496 1.377 . S
C6483 C6482 1.524 . S
C6483 C6484 1.397 . S
C6483 C6488 1.363 . S
C6484 H6461 0.950 . S
C6484 C6483 1.397 . S
C6484 C6485 1.334 . S
C6485 H6462 0.950 . S
C6485 C6484 1.334 . S
C6485 C6486 1.287 . S
C6486 C6485 1.287 . S
C6486 C6487 1.524 . S
C6486 H6505 0.913 . S
C6487 H6463 0.950 . S
C6487 C6486 1.524 . S
C6487 C6488 1.415 . S
C6488 H6464 0.950 . S
C6488 C6483 1.363 . S
C6488 C6487 1.415 . S
C6489 H6465 0.951 . S
C6489 C6490 1.366 . S
C6489 C6491 1.388 . S
C6490 C6489 1.366 . S
C6490 C6494 1.385 . S
C6491 H6466 0.951 . S
C6491 C6489 1.388 . S
C6491 C6492 1.366 . S
C6492 C6491 1.366 . S
C6492 C6493 1.414 . S
C6492 C6495 1.499 . S
C6493 H6467 0.950 . S
C6493 C6492 1.414 . S
C6493 C6494 1.374 . S
C6494 H6468 0.950 . S
C6494 C6490 1.385 . S
C6494 C6493 1.374 . S
C6495 C6492 1.499 . S
C6495 C6496 1.373 . S
C6495 C6497 1.389 . S
C6496 H6469 0.950 . S
C6496 C6482 1.377 . S
C6496 C6495 1.373 . S
C6497 C6481 1.377 . S
C6497 C6495 1.389 . S
C6497 C6498 1.524 . S
C6498 C6497 1.524 . S
C6498 C6499 1.397 . S
C6498 C6503 1.363 . S
C6499 H6470 0.950 . S
C6499 C6498 1.397 . S
C6499 C6500 1.334 . S
C6500 H6471 0.950 . S
C6500 C6499 1.334 . S
C6500 C6501 1.287 . S
C6501 C6500 1.287 . S
C6501 C6502 1.524 . S
C6501 H6504 0.999 . S
C6502 H6472 0.950 . S
C6502 C6501 1.524 . S
C6502 C6503 1.415 . S
C6503 H6473 0.950 . S
C6503 C6498 1.363 . S
C6503 C6502 1.415 . S
H6504 C6501 0.999 . S
H6505 C6486 0.913 . S
H6506 C6524 0.951 . S
H6507 C6526 0.951 . S
H6508 C6528 0.950 . S
H6509 C6529 0.950 . S
H6510 C6531 0.950 . S
H6511 C6534 0.950 . S
H6512 C6535 0.950 . S
H6513 C6537 0.950 . S
H6514 C6538 0.950 . S
H6515 C6539 0.951 . S
H6516 C6541 0.951 . S
H6517 C6543 0.950 . S
H6518 C6544 0.950 . S
H6519 C6546 0.950 . S
H6520 C6549 0.950 . S
H6521 C6550 0.950 . S
H6522 C6552 0.950 . S
H6523 C6553 0.950 . S
C6524 H6506 0.951 . S
C6524 C6525 1.366 . S
C6524 C6526 1.388 . S
C6525 C6524 1.366 . S
C6525 C6529 1.385 . S
C6526 H6507 0.951 . S
C6526 C6524 1.388 . S
C6526 C6527 1.366 . S
C6527 C6526 1.366 . S
C6527 C6528 1.414 . S
C6527 C6530 1.499 . S
C6528 H6508 0.950 . S
C6528 C6527 1.414 . S
C6528 C6529 1.374 . S
C6529 H6509 0.950 . S
C6529 C6525 1.385 . S
C6529 C6528 1.374 . S
C6530 C6527 1.499 . S
C6530 C6531 1.373 . S
C6530 C6532 1.389 . S
C6531 H6510 0.950 . S
C6531 C6530 1.373 . S
C6531 C6547 1.377 . S
C6532 C6530 1.389 . S
C6532 C6533 1.524 . S
C6532 C6546 1.377 . S
C6533 C6532 1.524 . S
C6533 C6534 1.397 . S
C6533 C6538 1.363 . S
C6534 H6511 0.950 . S
C6534 C6533 1.397 . S
C6534 C6535 1.334 . S
C6535 H6512 0.950 . S
C6535 C6534 1.334 . S
C6535 C6536 1.287 . S
C6536 C6535 1.287 . S
C6536 C6537 1.524 . S
C6536 H6555 0.913 . S
C6537 H6513 0.950 . S
C6537 C6536 1.524 . S
C6537 C6538 1.415 . S
C6538 H6514 0.950 . S
C6538 C6533 1.363 . S
C6538 C6537 1.415 . S
C6539 H6515 0.951 . S
C6539 C6540 1.366 . S
C6539 C6541 1.388 . S
C6540 C6539 1.366 . S
C6540 C6544 1.385 . S
C6541 H6516 0.951 . S
C6541 C6539 1.388 . S
C6541 C6542 1.366 . S
C6542 C6541 1.366 . S
C6542 C6543 1.414 . S
C6542 C6545 1.499 . S
C6543 H6517 0.950 . S
C6543 C6542 1.414 . S
C6543 C6544 1.374 . S
C6544 H6518 0.950 . S
C6544 C6540 1.385 . S
C6544 C6543 1.374 . S
C6545 C6542 1.499 . S
C6545 C6546 1.373 . S
C6545 C6547 1.389 . S
C6546 H6519 0.950 . S
C6546 C6532 1.377 . S
C6546 C6545 1.373 . S
C6547 C6531 1.377 . S
C6547 C6545 1.389 . S
C6547 C6548 1.524 . S
C6548 C6547 1.524 . S
C6548 C6549 1.397 . S
C6548 C6553 1.363 . S
C6549 H6520 0.950 . S
C6549 C6548 1.397 . S
C6549 C6550 1.334 . S
C6550 H6521 0.950 . S
C6550 C6549 1.334 . S
C6550 C6551 1.287 . S
C6551 C6550 1.287 . S
C6551 C6552 1.524 . S
C6551 H6554 0.999 . S
C6552 H6522 0.950 . S
C6552 C6551 1.524 . S
C6552 C6553 1.415 . S
C6553 H6523 0.950 . S
C6553 C6548 1.363 . S
C6553 C6552 1.415 . S
H6554 C6551 0.999 . S
H6555 C6536 0.913 . S
H6556 C6574 0.951 . S
H6557 C6576 0.951 . S
H6558 C6578 0.950 . S
H6559 C6579 0.950 . S
H6560 C6581 0.950 . S
H6561 C6584 0.950 . S
H6562 C6585 0.950 . S
H6563 C6587 0.950 . S
H6564 C6588 0.950 . S
H6565 C6589 0.951 . S
H6566 C6591 0.951 . S
H6567 C6593 0.950 . S
H6568 C6594 0.950 . S
H6569 C6596 0.950 . S
H6570 C6599 0.950 . S
H6571 C6600 0.950 . S
H6572 C6602 0.950 . S
H6573 C6603 0.950 . S
C6574 H6556 0.951 . S
C6574 C6575 1.366 . S
C6574 C6576 1.388 . S
C6575 C6574 1.366 . S
C6575 C6579 1.385 . S
C6576 H6557 0.951 . S
C6576 C6574 1.388 . S
C6576 C6577 1.366 . S
C6577 C6576 1.366 . S
C6577 C6578 1.414 . S
C6577 C6580 1.499 . S
C6578 H6558 0.950 . S
C6578 C6577 1.414 . S
C6578 C6579 1.374 . S
C6579 H6559 0.950 . S
C6579 C6575 1.385 . S
C6579 C6578 1.374 . S
C6580 C6577 1.499 . S
C6580 C6581 1.373 . S
C6580 C6582 1.389 . S
C6581 H6560 0.950 . S
C6581 C6580 1.373 . S
C6581 C6597 1.377 . S
C6582 C6580 1.389 . S
C6582 C6583 1.524 . S
C6582 C6596 1.377 . S
C6583 C6582 1.524 . S
C6583 C6584 1.397 . S
C6583 C6588 1.363 . S
C6584 H6561 0.950 . S
C6584 C6583 1.397 . S
C6584 C6585 1.334 . S
C6585 H6562 0.950 . S
C6585 C6584 1.334 . S
C6585 C6586 1.287 . S
C6586 C6585 1.287 . S
C6586 C6587 1.524 . S
C6586 H6605 0.913 . S
C6587 H6563 0.950 . S
C6587 C6586 1.524 . S
C6587 C6588 1.415 . S
C6588 H6564 0.950 . S
C6588 C6583 1.363 . S
C6588 C6587 1.415 . S
C6589 H6565 0.951 . S
C6589 C6590 1.366 . S
C6589 C6591 1.388 . S
C6590 C6589 1.366 . S
C6590 C6594 1.385 . S
C6591 H6566 0.951 . S
C6591 C6589 1.388 . S
C6591 C6592 1.366 . S
C6592 C6591 1.366 . S
C6592 C6593 1.414 . S
C6592 C6595 1.499 . S
C6593 H6567 0.950 . S
C6593 C6592 1.414 . S
C6593 C6594 1.374 . S
C6594 H6568 0.950 . S
C6594 C6590 1.385 . S
C6594 C6593 1.374 . S
C6595 C6592 1.499 . S
C6595 C6596 1.373 . S
C6595 C6597 1.389 . S
C6596 H6569 0.950 . S
C6596 C6582 1.377 . S
C6596 C6595 1.373 . S
C6597 C6581 1.377 . S
C6597 C6595 1.389 . S
C6597 C6598 1.524 . S
C6598 C6597 1.524 . S
C6598 C6599 1.397 . S
C6598 C6603 1.363 . S
C6599 H6570 0.950 . S
C6599 C6598 1.397 . S
C6599 C6600 1.334 . S
C6600 H6571 0.950 . S
C6600 C6599 1.334 . S
C6600 C6601 1.287 . S
C6601 C6600 1.287 . S
C6601 C6602 1.524 . S
C6601 H6604 0.999 . S
C6602 H6572 0.950 . S
C6602 C6601 1.524 . S
C6602 C6603 1.415 . S
C6603 H6573 0.950 . S
C6603 C6598 1.363 . S
C6603 C6602 1.415 . S
H6604 C6601 0.999 . S
H6605 C6586 0.913 . S
H6606 C6624 0.951 . S
H6607 C6626 0.951 . S
H6608 C6628 0.950 . S
H6609 C6629 0.950 . S
H6610 C6631 0.950 . S
H6611 C6634 0.950 . S
H6612 C6635 0.950 . S
H6613 C6637 0.950 . S
H6614 C6638 0.950 . S
H6615 C6639 0.951 . S
H6616 C6641 0.951 . S
H6617 C6643 0.950 . S
H6618 C6644 0.950 . S
H6619 C6646 0.950 . S
H6620 C6649 0.950 . S
H6621 C6650 0.950 . S
H6622 C6652 0.950 . S
H6623 C6653 0.950 . S
C6624 H6606 0.951 . S
C6624 C6625 1.366 . S
C6624 C6626 1.388 . S
C6625 C6624 1.366 . S
C6625 C6629 1.385 . S
C6626 H6607 0.951 . S
C6626 C6624 1.388 . S
C6626 C6627 1.366 . S
C6627 C6626 1.366 . S
C6627 C6628 1.414 . S
C6627 C6630 1.499 . S
C6628 H6608 0.950 . S
C6628 C6627 1.414 . S
C6628 C6629 1.374 . S
C6629 H6609 0.950 . S
C6629 C6625 1.385 . S
C6629 C6628 1.374 . S
C6630 C6627 1.499 . S
C6630 C6631 1.373 . S
C6630 C6632 1.389 . S
C6631 H6610 0.950 . S
C6631 C6630 1.373 . S
C6631 C6647 1.377 . S
C6632 C6630 1.389 . S
C6632 C6633 1.524 . S
C6632 C6646 1.377 . S
C6633 C6632 1.524 . S
C6633 C6634 1.397 . S
C6633 C6638 1.363 . S
C6634 H6611 0.950 . S
C6634 C6633 1.397 . S
C6634 C6635 1.334 . S
C6635 H6612 0.950 . S
C6635 C6634 1.334 . S
C6635 C6636 1.287 . S
C6636 C6635 1.287 . S
C6636 C6637 1.524 . S
C6636 H6655 0.913 . S
C6637 H6613 0.950 . S
C6637 C6636 1.524 . S
C6637 C6638 1.415 . S
C6638 H6614 0.950 . S
C6638 C6633 1.363 . S
C6638 C6637 1.415 . S
C6639 H6615 0.951 . S
C6639 C6640 1.366 . S
C6639 C6641 1.388 . S
C6640 C6639 1.366 . S
C6640 C6644 1.385 . S
C6641 H6616 0.951 . S
C6641 C6639 1.388 . S
C6641 C6642 1.366 . S
C6642 C6641 1.366 . S
C6642 C6643 1.414 . S
C6642 C6645 1.499 . S
C6643 H6617 0.950 . S
C6643 C6642 1.414 . S
C6643 C6644 1.374 . S
C6644 H6618 0.950 . S
C6644 C6640 1.385 . S
C6644 C6643 1.374 . S
C6645 C6642 1.499 . S
C6645 C6646 1.373 . S
C6645 C6647 1.389 . S
C6646 H6619 0.950 . S
C6646 C6632 1.377 . S
C6646 C6645 1.373 . S
C6647 C6631 1.377 . S
C6647 C6645 1.389 . S
C6647 C6648 1.524 . S
C6648 C6647 1.524 . S
C6648 C6649 1.397 . S
C6648 C6653 1.363 . S
C6649 H6620 0.950 . S
C6649 C6648 1.397 . S
C6649 C6650 1.334 . S
C6650 H6621 0.950 . S
C6650 C6649 1.334 . S
C6650 C6651 1.287 . S
C6651 C6650 1.287 . S
C6651 C6652 1.524 . S
C6651 H6654 0.999 . S
C6652 H6622 0.950 . S
C6652 C6651 1.524 . S
C6652 C6653 1.415 . S
C6653 H6623 0.950 . S
C6653 C6648 1.363 . S
C6653 C6652 1.415 . S
H6654 C6651 0.999 . S
H6655 C6636 0.913 . S
H6656 C6674 0.951 . S
H6657 C6676 0.951 . S
H6658 C6678 0.950 . S
H6659 C6679 0.950 . S
H6660 C6681 0.950 . S
H6661 C6684 0.950 . S
H6662 C6685 0.950 . S
H6663 C6687 0.950 . S
H6664 C6688 0.950 . S
H6665 C6689 0.951 . S
H6666 C6691 0.951 . S
H6667 C6693 0.950 . S
H6668 C6694 0.950 . S
H6669 C6696 0.950 . S
H6670 C6699 0.950 . S
H6671 C6700 0.950 . S
H6672 C6702 0.950 . S
H6673 C6703 0.950 . S
C6674 H6656 0.951 . S
C6674 C6675 1.366 . S
C6674 C6676 1.388 . S
C6675 C6674 1.366 . S
C6675 C6679 1.385 . S
C6676 H6657 0.951 . S
C6676 C6674 1.388 . S
C6676 C6677 1.366 . S
C6677 C6676 1.366 . S
C6677 C6678 1.414 . S
C6677 C6680 1.499 . S
C6678 H6658 0.950 . S
C6678 C6677 1.414 . S
C6678 C6679 1.374 . S
C6679 H6659 0.950 . S
C6679 C6675 1.385 . S
C6679 C6678 1.374 . S
C6680 C6677 1.499 . S
C6680 C6681 1.373 . S
C6680 C6682 1.389 . S
C6681 H6660 0.950 . S
C6681 C6680 1.373 . S
C6681 C6697 1.377 . S
C6682 C6680 1.389 . S
C6682 C6683 1.524 . S
C6682 C6696 1.377 . S
C6683 C6682 1.524 . S
C6683 C6684 1.397 . S
C6683 C6688 1.363 . S
C6684 H6661 0.950 . S
C6684 C6683 1.397 . S
C6684 C6685 1.334 . S
C6685 H6662 0.950 . S
C6685 C6684 1.334 . S
C6685 C6686 1.287 . S
C6686 C6685 1.287 . S
C6686 C6687 1.524 . S
C6686 H6705 0.913 . S
C6687 H6663 0.950 . S
C6687 C6686 1.524 . S
C6687 C6688 1.415 . S
C6688 H6664 0.950 . S
C6688 C6683 1.363 . S
C6688 C6687 1.415 . S
C6689 H6665 0.951 . S
C6689 C6690 1.366 . S
C6689 C6691 1.388 . S
C6690 C6689 1.366 . S
C6690 C6694 1.385 . S
C6691 H6666 0.951 . S
C6691 C6689 1.388 . S
C6691 C6692 1.366 . S
C6692 C6691 1.366 . S
C6692 C6693 1.414 . S
C6692 C6695 1.499 . S
C6693 H6667 0.950 . S
C6693 C6692 1.414 . S
C6693 C6694 1.374 . S
C6694 H6668 0.950 . S
C6694 C6690 1.385 . S
C6694 C6693 1.374 . S
C6695 C6692 1.499 . S
C6695 C6696 1.373 . S
C6695 C6697 1.389 . S
C6696 H6669 0.950 . S
C6696 C6682 1.377 . S
C6696 C6695 1.373 . S
C6697 C6681 1.377 . S
C6697 C6695 1.389 . S
C6697 C6698 1.524 . S
C6698 C6697 1.524 . S
C6698 C6699 1.397 . S
C6698 C6703 1.363 . S
C6699 H6670 0.950 . S
C6699 C6698 1.397 . S
C6699 C6700 1.334 . S
C6700 H6671 0.950 . S
C6700 C6699 1.334 . S
C6700 C6701 1.287 . S
C6701 C6700 1.287 . S
C6701 C6702 1.524 . S
C6701 H6704 0.999 . S
C6702 H6672 0.950 . S
C6702 C6701 1.524 . S
C6702 C6703 1.415 . S
C6703 H6673 0.950 . S
C6703 C6698 1.363 . S
C6703 C6702 1.415 . S
H6704 C6701 0.999 . S
H6705 C6686 0.913 . S
H6706 C6724 0.951 . S
H6707 C6726 0.951 . S
H6708 C6728 0.950 . S
H6709 C6729 0.950 . S
H6710 C6731 0.950 . S
H6711 C6734 0.950 . S
H6712 C6735 0.950 . S
H6713 C6737 0.950 . S
H6714 C6738 0.950 . S
H6715 C6739 0.951 . S
H6716 C6741 0.951 . S
H6717 C6743 0.950 . S
H6718 C6744 0.950 . S
H6719 C6746 0.950 . S
H6720 C6749 0.950 . S
H6721 C6750 0.950 . S
H6722 C6752 0.950 . S
H6723 C6753 0.950 . S
C6724 H6706 0.951 . S
C6724 C6725 1.366 . S
C6724 C6726 1.388 . S
C6725 C6724 1.366 . S
C6725 C6729 1.385 . S
C6726 H6707 0.951 . S
C6726 C6724 1.388 . S
C6726 C6727 1.366 . S
C6727 C6726 1.366 . S
C6727 C6728 1.414 . S
C6727 C6730 1.499 . S
C6728 H6708 0.950 . S
C6728 C6727 1.414 . S
C6728 C6729 1.374 . S
C6729 H6709 0.950 . S
C6729 C6725 1.385 . S
C6729 C6728 1.374 . S
C6730 C6727 1.499 . S
C6730 C6731 1.373 . S
C6730 C6732 1.389 . S
C6731 H6710 0.950 . S
C6731 C6730 1.373 . S
C6731 C6747 1.377 . S
C6732 C6730 1.389 . S
C6732 C6733 1.524 . S
C6732 C6746 1.377 . S
C6733 C6732 1.524 . S
C6733 C6734 1.397 . S
C6733 C6738 1.363 . S
C6734 H6711 0.950 . S
C6734 C6733 1.397 . S
C6734 C6735 1.334 . S
C6735 H6712 0.950 . S
C6735 C6734 1.334 . S
C6735 C6736 1.287 . S
C6736 C6735 1.287 . S
C6736 C6737 1.524 . S
C6736 H6755 0.913 . S
C6737 H6713 0.950 . S
C6737 C6736 1.524 . S
C6737 C6738 1.415 . S
C6738 H6714 0.950 . S
C6738 C6733 1.363 . S
C6738 C6737 1.415 . S
C6739 H6715 0.951 . S
C6739 C6740 1.366 . S
C6739 C6741 1.388 . S
C6740 C6739 1.366 . S
C6740 C6744 1.385 . S
C6741 H6716 0.951 . S
C6741 C6739 1.388 . S
C6741 C6742 1.366 . S
C6742 C6741 1.366 . S
C6742 C6743 1.414 . S
C6742 C6745 1.499 . S
C6743 H6717 0.950 . S
C6743 C6742 1.414 . S
C6743 C6744 1.374 . S
C6744 H6718 0.950 . S
C6744 C6740 1.385 . S
C6744 C6743 1.374 . S
C6745 C6742 1.499 . S
C6745 C6746 1.373 . S
C6745 C6747 1.389 . S
C6746 H6719 0.950 . S
C6746 C6732 1.377 . S
C6746 C6745 1.373 . S
C6747 C6731 1.377 . S
C6747 C6745 1.389 . S
C6747 C6748 1.524 . S
C6748 C6747 1.524 . S
C6748 C6749 1.397 . S
C6748 C6753 1.363 . S
C6749 H6720 0.950 . S
C6749 C6748 1.397 . S
C6749 C6750 1.334 . S
C6750 H6721 0.950 . S
C6750 C6749 1.334 . S
C6750 C6751 1.287 . S
C6751 C6750 1.287 . S
C6751 C6752 1.524 . S
C6751 H6754 0.972 1_545 S
C6752 H6722 0.950 . S
C6752 C6751 1.524 . S
C6752 C6753 1.415 . S
C6753 H6723 0.950 . S
C6753 C6748 1.363 . S
C6753 C6752 1.415 . S
H6754 C6751 0.972 1_565 S
H6755 C6736 0.913 . S
H6756 C6774 0.951 . S
H6757 C6776 0.951 . S
H6758 C6778 0.950 . S
H6759 C6779 0.950 . S
H6760 C6781 0.950 . S
H6761 C6784 0.950 . S
H6762 C6785 0.950 . S
H6763 C6787 0.950 . S
H6764 C6788 0.950 . S
H6765 C6789 0.951 . S
H6766 C6791 0.951 . S
H6767 C6793 0.950 . S
H6768 C6794 0.950 . S
H6769 C6796 0.950 . S
H6770 C6799 0.950 . S
H6771 C6800 0.950 . S
H6772 C6802 0.950 . S
H6773 C6803 0.950 . S
C6774 H6756 0.951 . S
C6774 C6775 1.366 . S
C6774 C6776 1.388 . S
C6775 C6774 1.366 . S
C6775 C6779 1.385 . S
C6776 H6757 0.951 . S
C6776 C6774 1.388 . S
C6776 C6777 1.366 . S
C6777 C6776 1.366 . S
C6777 C6778 1.414 . S
C6777 C6780 1.499 . S
C6778 H6758 0.950 . S
C6778 C6777 1.414 . S
C6778 C6779 1.374 . S
C6779 H6759 0.950 . S
C6779 C6775 1.385 . S
C6779 C6778 1.374 . S
C6780 C6777 1.499 . S
C6780 C6781 1.373 . S
C6780 C6782 1.389 . S
C6781 H6760 0.950 . S
C6781 C6780 1.373 . S
C6781 C6797 1.377 . S
C6782 C6780 1.389 . S
C6782 C6783 1.524 . S
C6782 C6796 1.377 . S
C6783 C6782 1.524 . S
C6783 C6784 1.397 . S
C6783 C6788 1.363 . S
C6784 H6761 0.950 . S
C6784 C6783 1.397 . S
C6784 C6785 1.334 . S
C6785 H6762 0.950 . S
C6785 C6784 1.334 . S
C6785 C6786 1.287 . S
C6786 C6785 1.287 . S
C6786 C6787 1.524 . S
C6786 H6805 0.913 . S
C6787 H6763 0.950 . S
C6787 C6786 1.524 . S
C6787 C6788 1.415 . S
C6788 H6764 0.950 . S
C6788 C6783 1.363 . S
C6788 C6787 1.415 . S
C6789 H6765 0.951 . S
C6789 C6790 1.366 . S
C6789 C6791 1.388 . S
C6790 C6789 1.366 . S
C6790 C6794 1.385 . S
C6791 H6766 0.951 . S
C6791 C6789 1.388 . S
C6791 C6792 1.366 . S
C6792 C6791 1.366 . S
C6792 C6793 1.414 . S
C6792 C6795 1.499 . S
C6793 H6767 0.950 . S
C6793 C6792 1.414 . S
C6793 C6794 1.374 . S
C6794 H6768 0.950 . S
C6794 C6790 1.385 . S
C6794 C6793 1.374 . S
C6795 C6792 1.499 . S
C6795 C6796 1.373 . S
C6795 C6797 1.389 . S
C6796 H6769 0.950 . S
C6796 C6782 1.377 . S
C6796 C6795 1.373 . S
C6797 C6781 1.377 . S
C6797 C6795 1.389 . S
C6797 C6798 1.524 . S
C6798 C6797 1.524 . S
C6798 C6799 1.397 . S
C6798 C6803 1.363 . S
C6799 H6770 0.950 . S
C6799 C6798 1.397 . S
C6799 C6800 1.334 . S
C6800 H6771 0.950 . S
C6800 C6799 1.334 . S
C6800 C6801 1.287 . S
C6801 C6800 1.287 . S
C6801 C6802 1.524 . S
C6801 H6804 0.999 . S
C6802 H6772 0.950 . S
C6802 C6801 1.524 . S
C6802 C6803 1.415 . S
C6803 H6773 0.950 . S
C6803 C6798 1.363 . S
C6803 C6802 1.415 . S
H6804 C6801 0.999 . S
H6805 C6786 0.913 . S
H6806 C6824 0.951 . S
H6807 C6826 0.951 . S
H6808 C6828 0.950 . S
H6809 C6829 0.950 . S
H6810 C6831 0.950 1_556 S
H6811 C6834 0.950 . S
H6812 C6835 0.950 . S
H6813 C6837 0.950 . S
H6814 C6838 0.950 . S
H6815 C6839 0.951 . S
H6816 C6841 0.951 . S
H6817 C6843 0.950 . S
H6818 C6844 0.950 . S
H6819 C6846 0.950 . S
H6820 C6849 0.950 1_565 S
H6821 C6850 0.950 . S
H6822 C6852 0.950 . S
H6823 C6853 0.950 . S
C6824 H6806 0.951 . S
C6824 C6825 1.366 . S
C6824 C6826 1.388 . S
C6825 C6824 1.366 . S
C6825 C6829 1.385 . S
C6826 H6807 0.951 . S
C6826 C6824 1.388 . S
C6826 C6827 1.366 . S
C6827 C6826 1.366 . S
C6827 C6828 1.414 . S
C6827 C6830 1.499 . S
C6828 H6808 0.950 . S
C6828 C6827 1.414 . S
C6828 C6829 1.374 . S
C6829 H6809 0.950 . S
C6829 C6825 1.385 . S
C6829 C6828 1.374 . S
C6830 C6827 1.499 . S
C6830 C6831 1.373 . S
C6830 C6832 1.389 . S
C6831 H6810 0.950 1_554 S
C6831 C6830 1.373 . S
C6831 C6847 1.377 . S
C6832 C6830 1.389 . S
C6832 C6833 1.524 . S
C6832 C6846 1.377 . S
C6833 C6832 1.524 . S
C6833 C6834 1.397 . S
C6833 C6838 1.363 . S
C6834 H6811 0.950 . S
C6834 C6833 1.397 . S
C6834 C6835 1.334 . S
C6835 H6812 0.950 . S
C6835 C6834 1.334 . S
C6835 C6836 1.287 . S
C6836 C6835 1.287 . S
C6836 C6837 1.524 . S
C6836 H6855 0.913 . S
C6837 H6813 0.950 . S
C6837 C6836 1.524 . S
C6837 C6838 1.415 . S
C6838 H6814 0.950 . S
C6838 C6833 1.363 . S
C6838 C6837 1.415 . S
C6839 H6815 0.951 . S
C6839 C6840 1.366 . S
C6839 C6841 1.388 . S
C6840 C6839 1.366 . S
C6840 C6844 1.385 1_545 S
C6841 H6816 0.951 . S
C6841 C6839 1.388 . S
C6841 C6842 1.366 1_545 S
C6842 C6841 1.366 1_565 S
C6842 C6843 1.414 . S
C6842 C6845 1.499 . S
C6843 H6817 0.950 . S
C6843 C6842 1.414 . S
C6843 C6844 1.374 . S
C6844 H6818 0.950 . S
C6844 C6840 1.385 1_565 S
C6844 C6843 1.374 . S
C6845 C6842 1.499 . S
C6845 C6846 1.373 . S
C6845 C6847 1.389 . S
C6846 H6819 0.950 . S
C6846 C6832 1.377 . S
C6846 C6845 1.373 . S
C6847 C6831 1.377 . S
C6847 C6845 1.389 . S
C6847 C6848 1.524 1_564 S
C6848 C6847 1.524 1_546 S
C6848 C6849 1.397 . S
C6848 C6853 1.363 . S
C6849 H6820 0.950 1_545 S
C6849 C6848 1.397 . S
C6849 C6850 1.334 . S
C6850 H6821 0.950 . S
C6850 C6849 1.334 . S
C6850 C6851 1.287 . S
C6851 C6850 1.287 . S
C6851 C6852 1.524 . S
C6851 H6854 0.999 . S
C6852 H6822 0.950 . S
C6852 C6851 1.524 . S
C6852 C6853 1.415 . S
C6853 H6823 0.950 . S
C6853 C6848 1.363 . S
C6853 C6852 1.415 . S
H6854 C6851 0.999 . S
H6855 C6836 0.913 . S
H6856 C6874 0.951 . S
H6857 C6876 0.951 . S
H6858 C6878 0.950 . S
H6859 C6879 0.950 . S
H6860 C6881 0.950 . S
H6861 C6884 0.950 . S
H6862 C6885 0.950 . S
H6863 C6887 0.950 . S
H6864 C6888 0.950 . S
H6865 C6889 0.951 . S
H6866 C6891 0.951 . S
H6867 C6893 0.950 . S
H6868 C6894 0.950 . S
H6869 C6896 0.950 . S
H6870 C6899 0.950 . S
H6871 C6900 0.950 . S
H6872 C6902 0.950 . S
H6873 C6903 0.950 . S
C6874 H6856 0.951 . S
C6874 C6875 1.366 . S
C6874 C6876 1.388 . S
C6875 C6874 1.366 . S
C6875 C6879 1.385 . S
C6876 H6857 0.951 . S
C6876 C6874 1.388 . S
C6876 C6877 1.366 . S
C6877 C6876 1.366 . S
C6877 C6878 1.414 . S
C6877 C6880 1.499 . S
C6878 H6858 0.950 . S
C6878 C6877 1.414 . S
C6878 C6879 1.374 . S
C6879 H6859 0.950 . S
C6879 C6875 1.385 . S
C6879 C6878 1.374 . S
C6880 C6877 1.499 . S
C6880 C6881 1.373 . S
C6880 C6882 1.389 . S
C6881 H6860 0.950 . S
C6881 C6880 1.373 . S
C6881 C6897 1.377 . S
C6882 C6880 1.389 . S
C6882 C6883 1.524 . S
C6882 C6896 1.377 . S
C6883 C6882 1.524 . S
C6883 C6884 1.397 . S
C6883 C6888 1.363 . S
C6884 H6861 0.950 . S
C6884 C6883 1.397 . S
C6884 C6885 1.334 . S
C6885 H6862 0.950 . S
C6885 C6884 1.334 . S
C6885 C6886 1.287 . S
C6886 C6885 1.287 . S
C6886 C6887 1.524 . S
C6886 H6905 0.913 . S
C6887 H6863 0.950 . S
C6887 C6886 1.524 . S
C6887 C6888 1.415 . S
C6888 H6864 0.950 . S
C6888 C6883 1.363 . S
C6888 C6887 1.415 . S
C6889 H6865 0.951 . S
C6889 C6890 1.366 . S
C6889 C6891 1.388 . S
C6890 C6889 1.366 . S
C6890 C6894 1.385 . S
C6891 H6866 0.951 . S
C6891 C6889 1.388 . S
C6891 C6892 1.366 . S
C6892 C6891 1.366 . S
C6892 C6893 1.414 . S
C6892 C6895 1.499 . S
C6893 H6867 0.950 . S
C6893 C6892 1.414 . S
C6893 C6894 1.374 . S
C6894 H6868 0.950 . S
C6894 C6890 1.385 . S
C6894 C6893 1.374 . S
C6895 C6892 1.499 . S
C6895 C6896 1.373 . S
C6895 C6897 1.389 . S
C6896 H6869 0.950 . S
C6896 C6882 1.377 . S
C6896 C6895 1.373 . S
C6897 C6881 1.377 . S
C6897 C6895 1.389 . S
C6897 C6898 1.524 . S
C6898 C6897 1.524 . S
C6898 C6899 1.397 . S
C6898 C6903 1.363 . S
C6899 H6870 0.950 . S
C6899 C6898 1.397 . S
C6899 C6900 1.334 . S
C6900 H6871 0.950 . S
C6900 C6899 1.334 . S
C6900 C6901 1.287 . S
C6901 C6900 1.287 . S
C6901 C6902 1.524 . S
C6901 H6904 0.999 . S
C6902 H6872 0.950 . S
C6902 C6901 1.524 . S
C6902 C6903 1.415 . S
C6903 H6873 0.950 . S
C6903 C6898 1.363 . S
C6903 C6902 1.415 . S
H6904 C6901 0.999 . S
H6905 C6886 0.913 . S
H6906 C6924 0.951 1_556 S
H6907 C6926 0.951 . S
H6908 C6928 0.950 . S
H6909 C6929 0.950 . S
H6910 C6931 0.923 1_556 S
H6911 C6934 0.950 . S
H6912 C6935 0.950 . S
H6913 C6937 0.950 . S
H6914 C6938 0.950 . S
H6915 C6939 0.951 . S
H6916 C6941 0.951 . S
H6917 C6943 0.950 . S
H6918 C6944 0.950 . S
H6919 C6946 0.950 . S
H6920 C6949 0.950 . S
H6921 C6950 0.950 . S
H6922 C6952 0.950 . S
H6923 C6953 0.950 1_554 S
C6924 H6906 0.951 1_554 S
C6924 C6925 1.366 . S
C6924 C6926 1.388 . S
C6925 C6924 1.366 . S
C6925 C6929 1.385 . S
C6926 H6907 0.951 . S
C6926 C6924 1.388 . S
C6926 C6927 1.366 . S
C6927 C6926 1.366 . S
C6927 C6928 1.414 . S
C6927 C6930 1.499 . S
C6928 H6908 0.950 . S
C6928 C6927 1.414 . S
C6928 C6929 1.374 . S
C6929 H6909 0.950 . S
C6929 C6925 1.385 . S
C6929 C6928 1.374 . S
C6930 C6927 1.499 . S
C6930 C6931 1.373 . S
C6930 C6932 1.389 . S
C6931 H6910 0.923 1_554 S
C6931 C6930 1.373 . S
C6931 C6947 1.377 . S
C6932 C6930 1.389 . S
C6932 C6933 1.524 . S
C6932 C6946 1.377 . S
C6933 C6932 1.524 . S
C6933 C6934 1.397 . S
C6933 C6938 1.363 . S
C6934 H6911 0.950 . S
C6934 C6933 1.397 . S
C6934 C6935 1.334 . S
C6935 H6912 0.950 . S
C6935 C6934 1.334 . S
C6935 C6936 1.287 . S
C6936 C6935 1.287 . S
C6936 C6937 1.524 . S
C6936 H6955 0.913 . S
C6937 H6913 0.950 . S
C6937 C6936 1.524 . S
C6937 C6938 1.415 . S
C6938 H6914 0.950 . S
C6938 C6933 1.363 . S
C6938 C6937 1.415 . S
C6939 H6915 0.951 . S
C6939 C6940 1.366 . S
C6939 C6941 1.388 . S
C6940 C6939 1.366 . S
C6940 C6944 1.385 . S
C6941 H6916 0.951 . S
C6941 C6939 1.388 . S
C6941 C6942 1.366 . S
C6942 C6941 1.366 . S
C6942 C6943 1.414 . S
C6942 C6945 1.499 . S
C6943 H6917 0.950 . S
C6943 C6942 1.414 . S
C6943 C6944 1.374 . S
C6944 H6918 0.950 . S
C6944 C6940 1.385 . S
C6944 C6943 1.374 . S
C6945 C6942 1.499 . S
C6945 C6946 1.373 . S
C6945 C6947 1.389 . S
C6946 H6919 0.950 . S
C6946 C6932 1.377 . S
C6946 C6945 1.373 . S
C6947 C6931 1.377 . S
C6947 C6945 1.389 . S
C6947 C6948 1.524 1_554 S
C6948 C6947 1.524 1_556 S
C6948 C6949 1.397 . S
C6948 C6953 1.363 . S
C6949 H6920 0.950 . S
C6949 C6948 1.397 . S
C6949 C6950 1.334 . S
C6950 H6921 0.950 . S
C6950 C6949 1.334 . S
C6950 C6951 1.287 . S
C6951 C6950 1.287 . S
C6951 C6952 1.524 . S
C6951 H6954 0.999 . S
C6952 H6922 0.950 . S
C6952 C6951 1.524 . S
C6952 C6953 1.415 . S
C6953 H6923 0.950 1_556 S
C6953 C6948 1.363 . S
C6953 C6952 1.415 . S
H6954 C6951 0.999 . S
H6955 C6936 0.913 . S
H6956 C6974 0.951 . S
H6957 C6976 0.951 . S
H6958 C6978 0.950 . S
H6959 C6979 0.950 . S
H6960 C6981 0.950 . S
H6961 C6984 0.950 . S
H6962 C6985 0.950 . S
H6963 C6987 0.950 . S
H6964 C6988 0.950 . S
H6965 C6989 0.951 . S
H6966 C6991 0.951 . S
H6967 C6993 0.950 . S
H6968 C6994 0.950 . S
H6969 C6996 0.950 . S
H6970 C6999 0.950 . S
H6971 C7000 0.950 . S
H6972 C7002 0.950 . S
H6973 C7003 0.950 . S
C6974 H6956 0.951 . S
C6974 C6975 1.366 . S
C6974 C6976 1.388 . S
C6975 C6974 1.366 . S
C6975 C6979 1.385 . S
C6976 H6957 0.951 . S
C6976 C6974 1.388 . S
C6976 C6977 1.366 . S
C6977 C6976 1.366 . S
C6977 C6978 1.414 . S
C6977 C6980 1.499 . S
C6978 H6958 0.950 . S
C6978 C6977 1.414 . S
C6978 C6979 1.374 . S
C6979 H6959 0.950 . S
C6979 C6975 1.385 . S
C6979 C6978 1.374 . S
C6980 C6977 1.499 . S
C6980 C6981 1.373 . S
C6980 C6982 1.389 . S
C6981 H6960 0.950 . S
C6981 C6980 1.373 . S
C6981 C6997 1.377 . S
C6982 C6980 1.389 . S
C6982 C6983 1.524 . S
C6982 C6996 1.377 . S
C6983 C6982 1.524 . S
C6983 C6984 1.397 . S
C6983 C6988 1.363 . S
C6984 H6961 0.950 . S
C6984 C6983 1.397 . S
C6984 C6985 1.334 . S
C6985 H6962 0.950 . S
C6985 C6984 1.334 . S
C6985 C6986 1.287 . S
C6986 C6985 1.287 . S
C6986 C6987 1.524 . S
C6986 H7005 0.913 . S
C6987 H6963 0.950 . S
C6987 C6986 1.524 . S
C6987 C6988 1.415 . S
C6988 H6964 0.950 . S
C6988 C6983 1.363 . S
C6988 C6987 1.415 . S
C6989 H6965 0.951 . S
C6989 C6990 1.366 . S
C6989 C6991 1.388 . S
C6990 C6989 1.366 . S
C6990 C6994 1.385 . S
C6991 H6966 0.951 . S
C6991 C6989 1.388 . S
C6991 C6992 1.366 . S
C6992 C6991 1.366 . S
C6992 C6993 1.414 . S
C6992 C6995 1.499 . S
C6993 H6967 0.950 . S
C6993 C6992 1.414 . S
C6993 C6994 1.374 . S
C6994 H6968 0.950 . S
C6994 C6990 1.385 . S
C6994 C6993 1.374 . S
C6995 C6992 1.499 . S
C6995 C6996 1.373 . S
C6995 C6997 1.389 . S
C6996 H6969 0.950 . S
C6996 C6982 1.377 . S
C6996 C6995 1.373 . S
C6997 C6981 1.377 . S
C6997 C6995 1.389 . S
C6997 C6998 1.524 . S
C6998 C6997 1.524 . S
C6998 C6999 1.397 . S
C6998 C7003 1.363 . S
C6999 H6970 0.950 . S
C6999 C6998 1.397 . S
C6999 C7000 1.334 . S
C7000 H6971 0.950 . S
C7000 C6999 1.334 . S
C7000 C7001 1.287 . S
C7001 C7000 1.287 . S
C7001 C7002 1.524 . S
C7001 H7004 0.999 . S
C7002 H6972 0.950 . S
C7002 C7001 1.524 . S
C7002 C7003 1.415 . S
C7003 H6973 0.950 . S
C7003 C6998 1.363 . S
C7003 C7002 1.415 . S
H7004 C7001 0.999 . S
H7005 C6986 0.913 . S
H7006 C7024 0.951 . S
H7007 C7026 0.951 . S
H7008 C7028 0.950 . S
H7009 C7029 0.950 . S
H7010 C7031 0.950 . S
H7011 C7034 0.950 . S
H7012 C7035 0.950 . S
H7013 C7037 0.950 . S
H7014 C7038 0.950 . S
H7015 C7039 0.951 . S
H7016 C7041 0.951 . S
H7017 C7043 0.950 . S
H7018 C7044 0.950 . S
H7019 C7046 0.950 . S
H7020 C7049 0.950 . S
H7021 C7050 0.950 . S
H7022 C7052 0.950 . S
H7023 C7053 0.950 . S
C7024 H7006 0.951 . S
C7024 C7025 1.366 . S
C7024 C7026 1.388 . S
C7025 C7024 1.366 . S
C7025 C7029 1.385 . S
C7026 H7007 0.951 . S
C7026 C7024 1.388 . S
C7026 C7027 1.366 . S
C7027 C7026 1.366 . S
C7027 C7028 1.414 . S
C7027 C7030 1.499 . S
C7028 H7008 0.950 . S
C7028 C7027 1.414 . S
C7028 C7029 1.374 . S
C7029 H7009 0.950 . S
C7029 C7025 1.385 . S
C7029 C7028 1.374 . S
C7030 C7027 1.499 . S
C7030 C7031 1.373 . S
C7030 C7032 1.389 . S
C7031 H7010 0.950 . S
C7031 C7030 1.373 . S
C7031 C7047 1.377 . S
C7032 C7030 1.389 . S
C7032 C7033 1.524 . S
C7032 C7046 1.377 . S
C7033 C7032 1.524 . S
C7033 C7034 1.397 . S
C7033 C7038 1.363 . S
C7034 H7011 0.950 . S
C7034 C7033 1.397 . S
C7034 C7035 1.334 . S
C7035 H7012 0.950 . S
C7035 C7034 1.334 . S
C7035 C7036 1.287 . S
C7036 C7035 1.287 . S
C7036 C7037 1.524 . S
C7036 H7055 0.913 . S
C7037 H7013 0.950 . S
C7037 C7036 1.524 . S
C7037 C7038 1.415 . S
C7038 H7014 0.950 . S
C7038 C7033 1.363 . S
C7038 C7037 1.415 . S
C7039 H7015 0.951 . S
C7039 C7040 1.366 . S
C7039 C7041 1.388 . S
C7040 C7039 1.366 . S
C7040 C7044 1.385 . S
C7041 H7016 0.951 . S
C7041 C7039 1.388 . S
C7041 C7042 1.366 . S
C7042 C7041 1.366 . S
C7042 C7043 1.414 . S
C7042 C7045 1.499 . S
C7043 H7017 0.950 . S
C7043 C7042 1.414 . S
C7043 C7044 1.374 . S
C7044 H7018 0.950 . S
C7044 C7040 1.385 . S
C7044 C7043 1.374 . S
C7045 C7042 1.499 . S
C7045 C7046 1.373 . S
C7045 C7047 1.389 . S
C7046 H7019 0.950 . S
C7046 C7032 1.377 . S
C7046 C7045 1.373 . S
C7047 C7031 1.377 . S
C7047 C7045 1.389 . S
C7047 C7048 1.524 . S
C7048 C7047 1.524 . S
C7048 C7049 1.397 . S
C7048 C7053 1.363 . S
C7049 H7020 0.950 . S
C7049 C7048 1.397 . S
C7049 C7050 1.334 . S
C7050 H7021 0.950 . S
C7050 C7049 1.334 . S
C7050 C7051 1.287 . S
C7051 C7050 1.287 . S
C7051 C7052 1.524 . S
C7051 H7054 0.999 . S
C7052 H7022 0.950 . S
C7052 C7051 1.524 . S
C7052 C7053 1.415 . S
C7053 H7023 0.950 . S
C7053 C7048 1.363 . S
C7053 C7052 1.415 . S
H7054 C7051 0.999 . S
H7055 C7036 0.913 . S
H7056 C7074 0.951 . S
H7057 C7076 0.951 . S
H7058 C7078 0.950 . S
H7059 C7079 0.950 . S
H7060 C7081 0.950 . S
H7061 C7084 0.950 . S
H7062 C7085 0.950 . S
H7063 C7087 0.950 . S
H7064 C7088 0.950 . S
H7065 C7089 0.951 . S
H7066 C7091 0.951 . S
H7067 C7093 0.950 . S
H7068 C7094 0.950 . S
H7069 C7096 0.950 . S
H7070 C7099 0.950 . S
H7071 C7100 0.950 . S
H7072 C7102 0.950 . S
H7073 C7103 0.950 . S
C7074 H7056 0.951 . S
C7074 C7075 1.366 . S
C7074 C7076 1.388 . S
C7075 C7074 1.366 . S
C7075 C7079 1.385 . S
C7076 H7057 0.951 . S
C7076 C7074 1.388 . S
C7076 C7077 1.366 . S
C7077 C7076 1.366 . S
C7077 C7078 1.414 . S
C7077 C7080 1.499 . S
C7078 H7058 0.950 . S
C7078 C7077 1.414 . S
C7078 C7079 1.374 . S
C7079 H7059 0.950 . S
C7079 C7075 1.385 . S
C7079 C7078 1.374 . S
C7080 C7077 1.499 . S
C7080 C7081 1.373 . S
C7080 C7082 1.389 . S
C7081 H7060 0.950 . S
C7081 C7080 1.373 . S
C7081 C7097 1.377 . S
C7082 C7080 1.389 . S
C7082 C7083 1.524 . S
C7082 C7096 1.377 . S
C7083 C7082 1.524 . S
C7083 C7084 1.397 . S
C7083 C7088 1.363 . S
C7084 H7061 0.950 . S
C7084 C7083 1.397 . S
C7084 C7085 1.334 . S
C7085 H7062 0.950 . S
C7085 C7084 1.334 . S
C7085 C7086 1.287 . S
C7086 C7085 1.287 . S
C7086 C7087 1.524 . S
C7086 H7105 0.913 . S
C7087 H7063 0.950 . S
C7087 C7086 1.524 . S
C7087 C7088 1.415 . S
C7088 H7064 0.950 . S
C7088 C7083 1.363 . S
C7088 C7087 1.415 . S
C7089 H7065 0.951 . S
C7089 C7090 1.366 . S
C7089 C7091 1.388 . S
C7090 C7089 1.366 . S
C7090 C7094 1.385 . S
C7091 H7066 0.951 . S
C7091 C7089 1.388 . S
C7091 C7092 1.366 . S
C7092 C7091 1.366 . S
C7092 C7093 1.414 . S
C7092 C7095 1.499 . S
C7093 H7067 0.950 . S
C7093 C7092 1.414 . S
C7093 C7094 1.374 . S
C7094 H7068 0.950 . S
C7094 C7090 1.385 . S
C7094 C7093 1.374 . S
C7095 C7092 1.499 . S
C7095 C7096 1.373 . S
C7095 C7097 1.389 . S
C7096 H7069 0.950 . S
C7096 C7082 1.377 . S
C7096 C7095 1.373 . S
C7097 C7081 1.377 . S
C7097 C7095 1.389 . S
C7097 C7098 1.524 . S
C7098 C7097 1.524 . S
C7098 C7099 1.397 . S
C7098 C7103 1.363 . S
C7099 H7070 0.950 . S
C7099 C7098 1.397 . S
C7099 C7100 1.334 . S
C7100 H7071 0.950 . S
C7100 C7099 1.334 . S
C7100 C7101 1.287 . S
C7101 C7100 1.287 . S
C7101 C7102 1.524 . S
C7101 H7104 0.999 . S
C7102 H7072 0.950 . S
C7102 C7101 1.524 . S
C7102 C7103 1.415 . S
C7103 H7073 0.950 . S
C7103 C7098 1.363 . S
C7103 C7102 1.415 . S
H7104 C7101 0.999 . S
H7105 C7086 0.913 . S
H7106 C7124 0.951 . S
H7107 C7126 0.951 . S
H7108 C7128 0.950 . S
H7109 C7129 0.950 . S
H7110 C7131 0.950 . S
H7111 C7134 0.950 . S
H7112 C7135 0.950 . S
H7113 C7137 0.950 . S
H7114 C7138 0.950 . S
H7115 C7139 0.951 . S
H7116 C7141 0.951 . S
H7117 C7143 0.950 . S
H7118 C7144 0.950 . S
H7119 C7146 0.950 . S
H7120 C7149 0.950 . S
H7121 C7150 0.950 . S
H7122 C7152 0.950 . S
H7123 C7153 0.950 . S
C7124 H7106 0.951 . S
C7124 C7125 1.366 . S
C7124 C7126 1.388 . S
C7125 C7124 1.366 . S
C7125 C7129 1.385 . S
C7126 H7107 0.951 . S
C7126 C7124 1.388 . S
C7126 C7127 1.366 . S
C7127 C7126 1.366 . S
C7127 C7128 1.414 . S
C7127 C7130 1.499 . S
C7128 H7108 0.950 . S
C7128 C7127 1.414 . S
C7128 C7129 1.374 . S
C7129 H7109 0.950 . S
C7129 C7125 1.385 . S
C7129 C7128 1.374 . S
C7130 C7127 1.499 . S
C7130 C7131 1.373 . S
C7130 C7132 1.389 . S
C7131 H7110 0.950 . S
C7131 C7130 1.373 . S
C7131 C7147 1.377 . S
C7132 C7130 1.389 . S
C7132 C7133 1.524 . S
C7132 C7146 1.377 . S
C7133 C7132 1.524 . S
C7133 C7134 1.397 . S
C7133 C7138 1.363 . S
C7134 H7111 0.950 . S
C7134 C7133 1.397 . S
C7134 C7135 1.334 . S
C7135 H7112 0.950 . S
C7135 C7134 1.334 . S
C7135 C7136 1.287 . S
C7136 C7135 1.287 . S
C7136 C7137 1.524 . S
C7136 H7155 0.913 . S
C7137 H7113 0.950 . S
C7137 C7136 1.524 . S
C7137 C7138 1.415 . S
C7138 H7114 0.950 . S
C7138 C7133 1.363 . S
C7138 C7137 1.415 . S
C7139 H7115 0.951 . S
C7139 C7140 1.366 . S
C7139 C7141 1.388 . S
C7140 C7139 1.366 . S
C7140 C7144 1.385 . S
C7141 H7116 0.951 . S
C7141 C7139 1.388 . S
C7141 C7142 1.366 . S
C7142 C7141 1.366 . S
C7142 C7143 1.414 . S
C7142 C7145 1.499 . S
C7143 H7117 0.950 . S
C7143 C7142 1.414 . S
C7143 C7144 1.374 . S
C7144 H7118 0.950 . S
C7144 C7140 1.385 . S
C7144 C7143 1.374 . S
C7145 C7142 1.499 . S
C7145 C7146 1.373 . S
C7145 C7147 1.389 . S
C7146 H7119 0.950 . S
C7146 C7132 1.377 . S
C7146 C7145 1.373 . S
C7147 C7131 1.377 . S
C7147 C7145 1.389 . S
C7147 C7148 1.524 . S
C7148 C7147 1.524 . S
C7148 C7149 1.397 . S
C7148 C7153 1.363 . S
C7149 H7120 0.950 . S
C7149 C7148 1.397 . S
C7149 C7150 1.334 . S
C7150 H7121 0.950 . S
C7150 C7149 1.334 . S
C7150 C7151 1.287 . S
C7151 C7150 1.287 . S
C7151 C7152 1.524 . S
C7151 H7154 0.999 . S
C7152 H7122 0.950 . S
C7152 C7151 1.524 . S
C7152 C7153 1.415 . S
C7153 H7123 0.950 . S
C7153 C7148 1.363 . S
C7153 C7152 1.415 . S
H7154 C7151 0.999 . S
H7155 C7136 0.913 . S
H7156 C7174 0.951 . S
H7157 C7176 0.951 . S
H7158 C7178 0.950 . S
H7159 C7179 0.950 . S
H7160 C7181 0.950 . S
H7161 C7184 0.950 1_655 S
H7162 C7185 0.950 . S
H7163 C7187 0.950 . S
H7164 C7188 0.951 1_556 S
H7165 C7189 0.951 . S
H7166 C7191 0.951 . S
H7167 C7193 0.950 . S
H7168 C7194 0.950 . S
H7169 C7196 0.950 . S
H7170 C7199 0.950 . S
H7171 C7200 0.950 . S
H7172 C7202 0.950 . S
H7173 C7203 0.950 . S
C7174 H7156 0.951 . S
C7174 C7175 1.366 . S
C7174 C7176 1.388 . S
C7175 C7174 1.366 . S
C7175 C7179 1.385 . S
C7176 H7157 0.951 . S
C7176 C7174 1.388 . S
C7176 C7177 1.366 . S
C7177 C7176 1.366 . S
C7177 C7178 1.414 . S
C7177 C7180 1.499 . S
C7178 H7158 0.950 . S
C7178 C7177 1.414 . S
C7178 C7179 1.374 . S
C7179 H7159 0.950 . S
C7179 C7175 1.385 . S
C7179 C7178 1.374 . S
C7180 C7177 1.499 . S
C7180 C7181 1.373 . S
C7180 C7182 1.389 . S
C7181 H7160 0.950 . S
C7181 C7180 1.373 . S
C7181 C7197 1.377 . S
C7182 C7180 1.389 . S
C7182 C7183 1.524 . S
C7182 C7196 1.377 . S
C7183 C7182 1.524 . S
C7183 C7184 1.397 . S
C7183 C7188 1.360 . S
C7184 H7161 0.950 1_455 S
C7184 C7183 1.397 . S
C7184 C7185 1.334 1_455 S
C7185 H7162 0.950 . S
C7185 C7184 1.334 1_655 S
C7185 C7186 1.287 1_554 S
C7186 C7185 1.287 1_556 S
C7186 C7187 1.524 1_655 S
C7186 H7205 0.913 . S
C7187 H7163 0.950 . S
C7187 C7186 1.524 1_455 S
C7187 C7188 1.417 1_556 S
C7188 H7164 0.951 1_554 S
C7188 C7183 1.360 . S
C7188 C7187 1.417 1_554 S
C7189 H7165 0.951 . S
C7189 C7190 1.366 . S
C7189 C7191 1.388 . S
C7190 C7189 1.366 . S
C7190 C7194 1.385 . S
C7191 H7166 0.951 . S
C7191 C7189 1.388 . S
C7191 C7192 1.366 . S
C7192 C7191 1.366 . S
C7192 C7193 1.414 . S
C7192 C7195 1.499 . S
C7193 H7167 0.950 . S
C7193 C7192 1.414 . S
C7193 C7194 1.374 . S
C7194 H7168 0.950 . S
C7194 C7190 1.385 . S
C7194 C7193 1.374 . S
C7195 C7192 1.499 . S
C7195 C7196 1.373 . S
C7195 C7197 1.389 . S
C7196 H7169 0.950 . S
C7196 C7182 1.377 . S
C7196 C7195 1.373 . S
C7197 C7181 1.377 . S
C7197 C7195 1.389 . S
C7197 C7198 1.524 . S
C7198 C7197 1.524 . S
C7198 C7199 1.397 . S
C7198 C7203 1.363 . S
C7199 H7170 0.950 . S
C7199 C7198 1.397 . S
C7199 C7200 1.334 . S
C7200 H7171 0.950 . S
C7200 C7199 1.334 . S
C7200 C7201 1.287 . S
C7201 C7200 1.287 . S
C7201 C7202 1.524 . S
C7201 H7204 0.999 . S
C7202 H7172 0.950 . S
C7202 C7201 1.524 . S
C7202 C7203 1.415 . S
C7203 H7173 0.950 . S
C7203 C7198 1.363 . S
C7203 C7202 1.415 . S
H7204 C7201 0.999 . S
H7205 C7186 0.913 . S
H7206 C7224 0.951 . S
H7207 C7226 0.951 . S
H7208 C7228 0.950 . S
H7209 C7229 0.950 . S
H7210 C7231 0.950 . S
H7211 C7234 0.950 . S
H7212 C7235 0.950 . S
H7213 C7237 0.950 . S
H7214 C7238 0.950 . S
H7215 C7239 0.951 . S
H7216 C7241 0.951 . S
H7217 C7243 0.950 . S
H7218 C7244 0.950 . S
H7219 C7246 0.950 . S
H7220 C7249 0.950 . S
H7221 C7250 0.950 . S
H7222 C7252 0.950 . S
H7223 C7253 0.950 . S
C7224 H7206 0.951 . S
C7224 C7225 1.366 . S
C7224 C7226 1.388 . S
C7225 C7224 1.366 . S
C7225 C7229 1.385 . S
C7226 H7207 0.951 . S
C7226 C7224 1.388 . S
C7226 C7227 1.366 . S
C7227 C7226 1.366 . S
C7227 C7228 1.414 . S
C7227 C7230 1.499 . S
C7228 H7208 0.950 . S
C7228 C7227 1.414 . S
C7228 C7229 1.374 . S
C7229 H7209 0.950 . S
C7229 C7225 1.385 . S
C7229 C7228 1.374 . S
C7230 C7227 1.499 . S
C7230 C7231 1.373 . S
C7230 C7232 1.389 . S
C7231 H7210 0.950 . S
C7231 C7230 1.373 . S
C7231 C7247 1.377 . S
C7232 C7230 1.389 . S
C7232 C7233 1.524 . S
C7232 C7246 1.377 . S
C7233 C7232 1.524 . S
C7233 C7234 1.397 . S
C7233 C7238 1.363 . S
C7234 H7211 0.950 . S
C7234 C7233 1.397 . S
C7234 C7235 1.334 . S
C7235 H7212 0.950 . S
C7235 C7234 1.334 . S
C7235 C7236 1.287 . S
C7236 C7235 1.287 . S
C7236 C7237 1.524 . S
C7236 H7255 0.913 . S
C7237 H7213 0.950 . S
C7237 C7236 1.524 . S
C7237 C7238 1.415 . S
C7238 H7214 0.950 . S
C7238 C7233 1.363 . S
C7238 C7237 1.415 . S
C7239 H7215 0.951 . S
C7239 C7240 1.366 . S
C7239 C7241 1.388 . S
C7240 C7239 1.366 . S
C7240 C7244 1.385 . S
C7241 H7216 0.951 . S
C7241 C7239 1.388 . S
C7241 C7242 1.366 . S
C7242 C7241 1.366 . S
C7242 C7243 1.414 . S
C7242 C7245 1.499 . S
C7243 H7217 0.950 . S
C7243 C7242 1.414 . S
C7243 C7244 1.374 . S
C7244 H7218 0.950 . S
C7244 C7240 1.385 . S
C7244 C7243 1.374 . S
C7245 C7242 1.499 . S
C7245 C7246 1.373 . S
C7245 C7247 1.389 . S
C7246 H7219 0.950 . S
C7246 C7232 1.377 . S
C7246 C7245 1.373 . S
C7247 C7231 1.377 . S
C7247 C7245 1.389 . S
C7247 C7248 1.524 . S
C7248 C7247 1.524 . S
C7248 C7249 1.397 . S
C7248 C7253 1.363 . S
C7249 H7220 0.950 . S
C7249 C7248 1.397 . S
C7249 C7250 1.334 . S
C7250 H7221 0.950 . S
C7250 C7249 1.334 . S
C7250 C7251 1.287 . S
C7251 C7250 1.287 . S
C7251 C7252 1.524 . S
C7251 H7254 0.999 . S
C7252 H7222 0.950 . S
C7252 C7251 1.524 . S
C7252 C7253 1.415 . S
C7253 H7223 0.950 . S
C7253 C7248 1.363 . S
C7253 C7252 1.415 . S
H7254 C7251 0.999 . S
H7255 C7236 0.913 . S
H7256 C7274 0.951 . S
H7257 C7276 0.951 . S
H7258 C7278 0.950 . S
H7259 C7279 0.950 . S
H7260 C7281 0.950 . S
H7261 C7284 0.950 . S
H7262 C7285 0.950 . S
H7263 C7287 0.950 . S
H7264 C7288 0.950 . S
H7265 C7289 0.951 . S
H7266 C7291 0.951 . S
H7267 C7293 0.950 . S
H7268 C7294 0.950 . S
H7269 C7296 0.950 . S
H7270 C7299 0.950 . S
H7271 C7300 0.950 . S
H7272 C7302 0.950 . S
H7273 C7303 0.950 . S
C7274 H7256 0.951 . S
C7274 C7275 1.366 . S
C7274 C7276 1.388 . S
C7275 C7274 1.366 . S
C7275 C7279 1.385 . S
C7276 H7257 0.951 . S
C7276 C7274 1.388 . S
C7276 C7277 1.366 . S
C7277 C7276 1.366 . S
C7277 C7278 1.414 . S
C7277 C7280 1.499 . S
C7278 H7258 0.950 . S
C7278 C7277 1.414 . S
C7278 C7279 1.374 . S
C7279 H7259 0.950 . S
C7279 C7275 1.385 . S
C7279 C7278 1.374 . S
C7280 C7277 1.499 . S
C7280 C7281 1.373 . S
C7280 C7282 1.389 . S
C7281 H7260 0.950 . S
C7281 C7280 1.373 . S
C7281 C7297 1.377 . S
C7282 C7280 1.389 . S
C7282 C7283 1.524 . S
C7282 C7296 1.377 . S
C7283 C7282 1.524 . S
C7283 C7284 1.397 . S
C7283 C7288 1.363 . S
C7284 H7261 0.950 . S
C7284 C7283 1.397 . S
C7284 C7285 1.334 . S
C7285 H7262 0.950 . S
C7285 C7284 1.334 . S
C7285 C7286 1.287 . S
C7286 C7285 1.287 . S
C7286 C7287 1.524 . S
C7286 H7305 0.913 . S
C7287 H7263 0.950 . S
C7287 C7286 1.524 . S
C7287 C7288 1.415 . S
C7288 H7264 0.950 . S
C7288 C7283 1.363 . S
C7288 C7287 1.415 . S
C7289 H7265 0.951 . S
C7289 C7290 1.366 . S
C7289 C7291 1.388 . S
C7290 C7289 1.366 . S
C7290 C7294 1.385 . S
C7291 H7266 0.951 . S
C7291 C7289 1.388 . S
C7291 C7292 1.366 . S
C7292 C7291 1.366 . S
C7292 C7293 1.414 . S
C7292 C7295 1.499 . S
C7293 H7267 0.950 . S
C7293 C7292 1.414 . S
C7293 C7294 1.374 . S
C7294 H7268 0.950 . S
C7294 C7290 1.385 . S
C7294 C7293 1.374 . S
C7295 C7292 1.499 . S
C7295 C7296 1.373 . S
C7295 C7297 1.389 . S
C7296 H7269 0.950 . S
C7296 C7282 1.377 . S
C7296 C7295 1.373 . S
C7297 C7281 1.377 . S
C7297 C7295 1.389 . S
C7297 C7298 1.524 . S
C7298 C7297 1.524 . S
C7298 C7299 1.397 . S
C7298 C7303 1.363 . S
C7299 H7270 0.950 . S
C7299 C7298 1.397 . S
C7299 C7300 1.334 . S
C7300 H7271 0.950 . S
C7300 C7299 1.334 . S
C7300 C7301 1.287 . S
C7301 C7300 1.287 . S
C7301 C7302 1.524 . S
C7301 H7304 0.999 . S
C7302 H7272 0.950 . S
C7302 C7301 1.524 . S
C7302 C7303 1.415 . S
C7303 H7273 0.950 . S
C7303 C7298 1.363 . S
C7303 C7302 1.415 . S
H7304 C7301 0.999 . S
H7305 C7286 0.913 . S
H7306 C7324 0.951 . S
H7307 C7326 0.951 . S
H7308 C7328 0.950 . S
H7309 C7329 0.950 . S
H7310 C7331 0.950 . S
H7311 C7334 0.950 . S
H7312 C7335 0.950 . S
H7313 C7337 0.950 . S
H7314 C7338 0.950 . S
H7315 C7339 0.951 . S
H7316 C7341 0.951 . S
H7317 C7343 0.950 . S
H7318 C7344 0.950 . S
H7319 C7346 0.950 . S
H7320 C7349 0.950 . S
H7321 C7350 0.950 . S
H7322 C7352 0.950 . S
H7323 C7353 0.950 . S
C7324 H7306 0.951 . S
C7324 C7325 1.366 . S
C7324 C7326 1.388 . S
C7325 C7324 1.366 . S
C7325 C7329 1.385 . S
C7326 H7307 0.951 . S
C7326 C7324 1.388 . S
C7326 C7327 1.366 . S
C7327 C7326 1.366 . S
C7327 C7328 1.414 . S
C7327 C7330 1.499 . S
C7328 H7308 0.950 . S
C7328 C7327 1.414 . S
C7328 C7329 1.374 . S
C7329 H7309 0.950 . S
C7329 C7325 1.385 . S
C7329 C7328 1.374 . S
C7330 C7327 1.499 . S
C7330 C7331 1.373 . S
C7330 C7332 1.389 . S
C7331 H7310 0.950 . S
C7331 C7330 1.373 . S
C7331 C7347 1.377 . S
C7332 C7330 1.389 . S
C7332 C7333 1.524 . S
C7332 C7346 1.377 . S
C7333 C7332 1.524 . S
C7333 C7334 1.397 . S
C7333 C7338 1.363 . S
C7334 H7311 0.950 . S
C7334 C7333 1.397 . S
C7334 C7335 1.334 . S
C7335 H7312 0.950 . S
C7335 C7334 1.334 . S
C7335 C7336 1.287 . S
C7336 C7335 1.287 . S
C7336 C7337 1.524 . S
C7336 H7355 0.913 . S
C7337 H7313 0.950 . S
C7337 C7336 1.524 . S
C7337 C7338 1.415 . S
C7338 H7314 0.950 . S
C7338 C7333 1.363 . S
C7338 C7337 1.415 . S
C7339 H7315 0.951 . S
C7339 C7340 1.366 . S
C7339 C7341 1.388 . S
C7340 C7339 1.366 . S
C7340 C7344 1.385 . S
C7341 H7316 0.951 . S
C7341 C7339 1.388 . S
C7341 C7342 1.366 . S
C7342 C7341 1.366 . S
C7342 C7343 1.414 . S
C7342 C7345 1.499 . S
C7343 H7317 0.950 . S
C7343 C7342 1.414 . S
C7343 C7344 1.374 . S
C7344 H7318 0.950 . S
C7344 C7340 1.385 . S
C7344 C7343 1.374 . S
C7345 C7342 1.499 . S
C7345 C7346 1.373 . S
C7345 C7347 1.389 . S
C7346 H7319 0.950 . S
C7346 C7332 1.377 . S
C7346 C7345 1.373 . S
C7347 C7331 1.377 . S
C7347 C7345 1.389 . S
C7347 C7348 1.524 . S
C7348 C7347 1.524 . S
C7348 C7349 1.397 . S
C7348 C7353 1.363 . S
C7349 H7320 0.950 . S
C7349 C7348 1.397 . S
C7349 C7350 1.334 . S
C7350 H7321 0.950 . S
C7350 C7349 1.334 . S
C7350 C7351 1.287 . S
C7351 C7350 1.287 . S
C7351 C7352 1.524 . S
C7351 H7354 0.999 . S
C7352 H7322 0.950 . S
C7352 C7351 1.524 . S
C7352 C7353 1.415 . S
C7353 H7323 0.950 . S
C7353 C7348 1.363 . S
C7353 C7352 1.415 . S
H7354 C7351 0.999 . S
H7355 C7336 0.913 . S
H7356 C7374 0.951 . S
H7357 C7376 0.951 . S
H7358 C7378 0.950 . S
H7359 C7379 0.950 . S
H7360 C7381 0.950 . S
H7361 C7384 0.950 . S
H7362 C7385 0.950 . S
H7363 C7387 0.950 . S
H7364 C7388 0.950 . S
H7365 C7389 0.951 . S
H7366 C7391 0.951 . S
H7367 C7393 0.950 . S
H7368 C7394 0.950 . S
H7369 C7396 0.950 . S
H7370 C7399 0.950 . S
H7371 C7400 0.950 . S
H7372 C7402 0.950 . S
H7373 C7403 0.950 . S
C7374 H7356 0.951 . S
C7374 C7375 1.366 . S
C7374 C7376 1.388 . S
C7375 C7374 1.366 . S
C7375 C7379 1.385 . S
C7376 H7357 0.951 . S
C7376 C7374 1.388 . S
C7376 C7377 1.366 . S
C7377 C7376 1.366 . S
C7377 C7378 1.414 . S
C7377 C7380 1.499 . S
C7378 H7358 0.950 . S
C7378 C7377 1.414 . S
C7378 C7379 1.374 . S
C7379 H7359 0.950 . S
C7379 C7375 1.385 . S
C7379 C7378 1.374 . S
C7380 C7377 1.499 . S
C7380 C7381 1.373 . S
C7380 C7382 1.389 . S
C7381 H7360 0.950 . S
C7381 C7380 1.373 . S
C7381 C7397 1.377 . S
C7382 C7380 1.389 . S
C7382 C7383 1.524 . S
C7382 C7396 1.377 . S
C7383 C7382 1.524 . S
C7383 C7384 1.397 . S
C7383 C7388 1.363 . S
C7384 H7361 0.950 . S
C7384 C7383 1.397 . S
C7384 C7385 1.334 . S
C7385 H7362 0.950 . S
C7385 C7384 1.334 . S
C7385 C7386 1.287 . S
C7386 C7385 1.287 . S
C7386 C7387 1.524 . S
C7386 H7405 0.913 . S
C7387 H7363 0.950 . S
C7387 C7386 1.524 . S
C7387 C7388 1.415 . S
C7388 H7364 0.950 . S
C7388 C7383 1.363 . S
C7388 C7387 1.415 . S
C7389 H7365 0.951 . S
C7389 C7390 1.366 . S
C7389 C7391 1.388 . S
C7390 C7389 1.366 . S
C7390 C7394 1.385 . S
C7391 H7366 0.951 . S
C7391 C7389 1.388 . S
C7391 C7392 1.366 . S
C7392 C7391 1.366 . S
C7392 C7393 1.414 . S
C7392 C7395 1.499 . S
C7393 H7367 0.950 . S
C7393 C7392 1.414 . S
C7393 C7394 1.374 . S
C7394 H7368 0.950 . S
C7394 C7390 1.385 . S
C7394 C7393 1.374 . S
C7395 C7392 1.499 . S
C7395 C7396 1.373 . S
C7395 C7397 1.389 . S
C7396 H7369 0.950 . S
C7396 C7382 1.377 . S
C7396 C7395 1.373 . S
C7397 C7381 1.377 . S
C7397 C7395 1.389 . S
C7397 C7398 1.524 . S
C7398 C7397 1.524 . S
C7398 C7399 1.397 1_455 S
C7398 C7403 1.363 . S
C7399 H7370 0.950 . S
C7399 C7398 1.397 1_655 S
C7399 C7400 1.334 . S
C7400 H7371 0.950 . S
C7400 C7399 1.334 . S
C7400 C7401 1.287 . S
C7401 C7400 1.287 . S
C7401 C7402 1.524 . S
C7401 H7404 0.999 . S
C7402 H7372 0.950 . S
C7402 C7401 1.524 . S
C7402 C7403 1.415 1_655 S
C7403 H7373 0.950 . S
C7403 C7398 1.363 . S
C7403 C7402 1.415 1_455 S
H7404 C7401 0.999 . S
H7405 C7386 0.913 . S
H7406 C7424 0.951 . S
H7407 C7426 0.951 . S
H7408 C7428 0.950 . S
H7409 C7429 0.950 . S
H7410 C7431 0.950 . S
H7411 C7434 0.950 . S
H7412 C7435 0.950 . S
H7413 C7437 0.950 . S
H7414 C7438 0.950 . S
H7415 C7439 0.951 . S
H7416 C7441 0.951 . S
H7417 C7443 0.950 . S
H7418 C7444 0.950 . S
H7419 C7446 0.950 . S
H7420 C7449 0.950 . S
H7421 C7450 0.950 . S
H7422 C7452 0.950 . S
H7423 C7453 0.950 . S
C7424 H7406 0.951 . S
C7424 C7425 1.366 . S
C7424 C7426 1.388 . S
C7425 C7424 1.366 . S
C7425 C7429 1.385 . S
C7426 H7407 0.951 . S
C7426 C7424 1.388 . S
C7426 C7427 1.366 . S
C7427 C7426 1.366 . S
C7427 C7428 1.414 . S
C7427 C7430 1.499 . S
C7428 H7408 0.950 . S
C7428 C7427 1.414 . S
C7428 C7429 1.374 . S
C7429 H7409 0.950 . S
C7429 C7425 1.385 . S
C7429 C7428 1.374 . S
C7430 C7427 1.499 . S
C7430 C7431 1.373 . S
C7430 C7432 1.389 . S
C7431 H7410 0.950 . S
C7431 C7430 1.373 . S
C7431 C7447 1.377 . S
C7432 C7430 1.389 . S
C7432 C7433 1.524 . S
C7432 C7446 1.377 . S
C7433 C7432 1.524 . S
C7433 C7434 1.397 . S
C7433 C7438 1.363 . S
C7434 H7411 0.950 . S
C7434 C7433 1.397 . S
C7434 C7435 1.334 . S
C7435 H7412 0.950 . S
C7435 C7434 1.334 . S
C7435 C7436 1.287 . S
C7436 C7435 1.287 . S
C7436 C7437 1.524 . S
C7436 H7455 0.913 . S
C7437 H7413 0.950 . S
C7437 C7436 1.524 . S
C7437 C7438 1.415 . S
C7438 H7414 0.950 . S
C7438 C7433 1.363 . S
C7438 C7437 1.415 . S
C7439 H7415 0.951 . S
C7439 C7440 1.366 . S
C7439 C7441 1.388 . S
C7440 C7439 1.366 . S
C7440 C7444 1.385 . S
C7441 H7416 0.951 . S
C7441 C7439 1.388 . S
C7441 C7442 1.366 . S
C7442 C7441 1.366 . S
C7442 C7443 1.414 . S
C7442 C7445 1.499 . S
C7443 H7417 0.950 . S
C7443 C7442 1.414 . S
C7443 C7444 1.374 . S
C7444 H7418 0.950 . S
C7444 C7440 1.385 . S
C7444 C7443 1.374 . S
C7445 C7442 1.499 . S
C7445 C7446 1.373 . S
C7445 C7447 1.389 . S
C7446 H7419 0.950 . S
C7446 C7432 1.377 . S
C7446 C7445 1.373 . S
C7447 C7431 1.377 . S
C7447 C7445 1.389 . S
C7447 C7448 1.524 . S
C7448 C7447 1.524 . S
C7448 C7449 1.397 . S
C7448 C7453 1.363 . S
C7449 H7420 0.950 . S
C7449 C7448 1.397 . S
C7449 C7450 1.334 . S
C7450 H7421 0.950 . S
C7450 C7449 1.334 . S
C7450 C7451 1.287 . S
C7451 C7450 1.287 . S
C7451 C7452 1.524 . S
C7451 H7454 0.999 . S
C7452 H7422 0.950 . S
C7452 C7451 1.524 . S
C7452 C7453 1.415 . S
C7453 H7423 0.950 . S
C7453 C7448 1.363 . S
C7453 C7452 1.415 . S
H7454 C7451 0.999 . S
H7455 C7436 0.913 . S
H7456 C7474 0.951 . S
H7457 C7476 0.951 . S
H7458 C7478 0.950 . S
H7459 C7479 0.950 . S
H7460 C7481 0.950 . S
H7461 C7484 0.950 . S
H7462 C7485 0.950 . S
H7463 C7487 0.950 . S
H7464 C7488 0.950 . S
H7465 C7489 0.951 . S
H7466 C7491 0.951 . S
H7467 C7493 0.950 . S
H7468 C7494 0.950 . S
H7469 C7496 0.950 . S
H7470 C7499 0.950 . S
H7471 C7500 0.950 . S
H7472 C7502 0.950 . S
H7473 C7503 0.950 . S
C7474 H7456 0.951 . S
C7474 C7475 1.366 . S
C7474 C7476 1.388 . S
C7475 C7474 1.366 . S
C7475 C7479 1.385 . S
C7476 H7457 0.951 . S
C7476 C7474 1.388 . S
C7476 C7477 1.366 . S
C7477 C7476 1.366 . S
C7477 C7478 1.414 . S
C7477 C7480 1.499 . S
C7478 H7458 0.950 . S
C7478 C7477 1.414 . S
C7478 C7479 1.374 . S
C7479 H7459 0.950 . S
C7479 C7475 1.385 . S
C7479 C7478 1.374 . S
C7480 C7477 1.499 . S
C7480 C7481 1.373 . S
C7480 C7482 1.389 . S
C7481 H7460 0.950 . S
C7481 C7480 1.373 . S
C7481 C7497 1.377 . S
C7482 C7480 1.389 . S
C7482 C7483 1.524 . S
C7482 C7496 1.377 . S
C7483 C7482 1.524 . S
C7483 C7484 1.397 . S
C7483 C7488 1.363 . S
C7484 H7461 0.950 . S
C7484 C7483 1.397 . S
C7484 C7485 1.334 . S
C7485 H7462 0.950 . S
C7485 C7484 1.334 . S
C7485 C7486 1.287 . S
C7486 C7485 1.287 . S
C7486 C7487 1.524 . S
C7486 H7505 0.913 . S
C7487 H7463 0.950 . S
C7487 C7486 1.524 . S
C7487 C7488 1.415 . S
C7488 H7464 0.950 . S
C7488 C7483 1.363 . S
C7488 C7487 1.415 . S
C7489 H7465 0.951 . S
C7489 C7490 1.366 . S
C7489 C7491 1.388 . S
C7490 C7489 1.366 . S
C7490 C7494 1.385 . S
C7491 H7466 0.951 . S
C7491 C7489 1.388 . S
C7491 C7492 1.366 . S
C7492 C7491 1.366 . S
C7492 C7493 1.414 . S
C7492 C7495 1.499 . S
C7493 H7467 0.950 . S
C7493 C7492 1.414 . S
C7493 C7494 1.374 . S
C7494 H7468 0.950 . S
C7494 C7490 1.385 . S
C7494 C7493 1.374 . S
C7495 C7492 1.499 . S
C7495 C7496 1.373 . S
C7495 C7497 1.389 . S
C7496 H7469 0.950 . S
C7496 C7482 1.377 . S
C7496 C7495 1.373 . S
C7497 C7481 1.377 . S
C7497 C7495 1.389 . S
C7497 C7498 1.524 . S
C7498 C7497 1.524 . S
C7498 C7499 1.397 . S
C7498 C7503 1.363 . S
C7499 H7470 0.950 . S
C7499 C7498 1.397 . S
C7499 C7500 1.334 . S
C7500 H7471 0.950 . S
C7500 C7499 1.334 . S
C7500 C7501 1.287 . S
C7501 C7500 1.287 . S
C7501 C7502 1.524 . S
C7501 H7504 0.999 . S
C7502 H7472 0.950 . S
C7502 C7501 1.524 . S
C7502 C7503 1.415 . S
C7503 H7473 0.950 . S
C7503 C7498 1.363 . S
C7503 C7502 1.415 . S
H7504 C7501 0.999 . S
H7505 C7486 0.913 . S
H7506 C7524 0.951 . S
H7507 C7526 0.951 . S
H7508 C7528 0.950 . S
H7509 C7529 0.950 . S
H7510 C7531 0.950 . S
H7511 C7534 0.950 . S
H7512 C7535 0.950 . S
H7513 C7537 0.950 . S
H7514 C7538 0.950 . S
H7515 C7539 0.951 . S
H7516 C7541 0.951 . S
H7517 C7543 0.950 . S
H7518 C7544 0.950 . S
H7519 C7546 0.950 . S
H7520 C7549 0.950 . S
H7521 C7550 0.950 . S
H7522 C7552 0.950 . S
H7523 C7553 0.950 . S
C7524 H7506 0.951 . S
C7524 C7525 1.366 . S
C7524 C7526 1.388 . S
C7525 C7524 1.366 . S
C7525 C7529 1.385 . S
C7526 H7507 0.951 . S
C7526 C7524 1.388 . S
C7526 C7527 1.366 . S
C7527 C7526 1.366 . S
C7527 C7528 1.414 . S
C7527 C7530 1.499 . S
C7528 H7508 0.950 . S
C7528 C7527 1.414 . S
C7528 C7529 1.374 . S
C7529 H7509 0.950 . S
C7529 C7525 1.385 . S
C7529 C7528 1.374 . S
C7530 C7527 1.499 . S
C7530 C7531 1.373 . S
C7530 C7532 1.389 . S
C7531 H7510 0.950 . S
C7531 C7530 1.373 . S
C7531 C7547 1.377 . S
C7532 C7530 1.389 . S
C7532 C7533 1.524 . S
C7532 C7546 1.377 . S
C7533 C7532 1.524 . S
C7533 C7534 1.397 . S
C7533 C7538 1.363 . S
C7534 H7511 0.950 . S
C7534 C7533 1.397 . S
C7534 C7535 1.334 . S
C7535 H7512 0.950 . S
C7535 C7534 1.334 . S
C7535 C7536 1.287 . S
C7536 C7535 1.287 . S
C7536 C7537 1.524 . S
C7536 H7555 0.913 . S
C7537 H7513 0.950 . S
C7537 C7536 1.524 . S
C7537 C7538 1.415 . S
C7538 H7514 0.950 . S
C7538 C7533 1.363 . S
C7538 C7537 1.415 . S
C7539 H7515 0.951 . S
C7539 C7540 1.366 . S
C7539 C7541 1.388 . S
C7540 C7539 1.366 . S
C7540 C7544 1.385 . S
C7541 H7516 0.951 . S
C7541 C7539 1.388 . S
C7541 C7542 1.366 . S
C7542 C7541 1.366 . S
C7542 C7543 1.414 . S
C7542 C7545 1.499 . S
C7543 H7517 0.950 . S
C7543 C7542 1.414 . S
C7543 C7544 1.374 . S
C7544 H7518 0.950 . S
C7544 C7540 1.385 . S
C7544 C7543 1.374 . S
C7545 C7542 1.499 . S
C7545 C7546 1.373 . S
C7545 C7547 1.389 . S
C7546 H7519 0.950 . S
C7546 C7532 1.377 . S
C7546 C7545 1.373 . S
C7547 C7531 1.377 . S
C7547 C7545 1.389 . S
C7547 C7548 1.524 . S
C7548 C7547 1.524 . S
C7548 C7549 1.397 . S
C7548 C7553 1.363 . S
C7549 H7520 0.950 . S
C7549 C7548 1.397 . S
C7549 C7550 1.334 . S
C7550 H7521 0.950 . S
C7550 C7549 1.334 . S
C7550 C7551 1.287 . S
C7551 C7550 1.287 . S
C7551 C7552 1.524 . S
C7551 H7554 0.999 . S
C7552 H7522 0.950 . S
C7552 C7551 1.524 . S
C7552 C7553 1.415 . S
C7553 H7523 0.950 . S
C7553 C7548 1.363 . S
C7553 C7552 1.415 . S
H7554 C7551 0.999 . S
H7555 C7536 0.913 . S
H7556 C7574 0.951 . S
H7557 C7576 0.951 . S
H7558 C7578 0.950 . S
H7559 C7579 0.950 . S
H7560 C7581 0.950 . S
H7561 C7584 0.950 . S
H7562 C7585 0.950 . S
H7563 C7587 0.950 . S
H7564 C7588 0.950 . S
H7565 C7589 0.951 . S
H7566 C7591 0.928 1_455 S
H7567 C7593 0.950 . S
H7568 C7594 0.950 . S
H7569 C7596 0.950 . S
H7570 C7599 0.950 . S
H7571 C7600 0.950 . S
H7572 C7602 0.950 . S
H7573 C7603 0.950 . S
C7574 H7556 0.951 . S
C7574 C7575 1.366 . S
C7574 C7576 1.388 . S
C7575 C7574 1.366 . S
C7575 C7579 1.385 . S
C7576 H7557 0.951 . S
C7576 C7574 1.388 . S
C7576 C7577 1.366 . S
C7577 C7576 1.366 . S
C7577 C7578 1.414 . S
C7577 C7580 1.499 . S
C7578 H7558 0.950 . S
C7578 C7577 1.414 . S
C7578 C7579 1.374 . S
C7579 H7559 0.950 . S
C7579 C7575 1.385 . S
C7579 C7578 1.374 . S
C7580 C7577 1.499 . S
C7580 C7581 1.373 . S
C7580 C7582 1.389 . S
C7581 H7560 0.950 . S
C7581 C7580 1.373 . S
C7581 C7597 1.377 . S
C7582 C7580 1.389 . S
C7582 C7583 1.524 . S
C7582 C7596 1.377 . S
C7583 C7582 1.524 . S
C7583 C7584 1.397 . S
C7583 C7588 1.363 . S
C7584 H7561 0.950 . S
C7584 C7583 1.397 . S
C7584 C7585 1.334 . S
C7585 H7562 0.950 . S
C7585 C7584 1.334 . S
C7585 C7586 1.287 . S
C7586 C7585 1.287 . S
C7586 C7587 1.524 . S
C7586 H7605 0.913 . S
C7587 H7563 0.950 . S
C7587 C7586 1.524 . S
C7587 C7588 1.415 . S
C7588 H7564 0.950 . S
C7588 C7583 1.363 . S
C7588 C7587 1.415 . S
C7589 H7565 0.951 . S
C7589 C7590 1.384 . S
C7589 C7591 1.388 1_455 S
C7590 C7589 1.384 . S
C7590 C7594 1.342 1_455 S
C7591 H7566 0.928 1_655 S
C7591 C7589 1.388 1_655 S
C7591 C7592 1.366 . S
C7592 C7591 1.366 . S
C7592 C7593 1.414 . S
C7592 C7595 1.499 . S
C7593 H7567 0.950 . S
C7593 C7592 1.414 . S
C7593 C7594 1.374 . S
C7594 H7568 0.950 . S
C7594 C7590 1.342 1_655 S
C7594 C7593 1.374 . S
C7595 C7592 1.499 . S
C7595 C7596 1.373 . S
C7595 C7597 1.389 . S
C7596 H7569 0.950 . S
C7596 C7582 1.377 . S
C7596 C7595 1.373 . S
C7597 C7581 1.377 . S
C7597 C7595 1.389 . S
C7597 C7598 1.524 . S
C7598 C7597 1.524 . S
C7598 C7599 1.397 . S
C7598 C7603 1.363 1_655 S
C7599 H7570 0.950 . S
C7599 C7598 1.397 . S
C7599 C7600 1.334 1_655 S
C7600 H7571 0.950 . S
C7600 C7599 1.334 1_455 S
C7600 C7601 1.287 . S
C7601 C7600 1.287 . S
C7601 C7602 1.524 . S
C7601 H7604 0.999 . S
C7602 H7572 0.950 . S
C7602 C7601 1.524 . S
C7602 C7603 1.415 . S
C7603 H7573 0.950 . S
C7603 C7598 1.363 1_455 S
C7603 C7602 1.415 . S
H7604 C7601 0.999 . S
H7605 C7586 0.913 . S
H7606 C7624 0.951 . S
H7607 C7626 0.951 . S
H7608 C7628 0.950 . S
H7609 C7629 0.950 . S
H7610 C7631 0.950 . S
H7611 C7634 0.950 . S
H7612 C7635 0.950 . S
H7613 C7637 0.950 . S
H7614 C7638 0.950 . S
H7615 C7639 0.951 . S
H7616 C7641 0.951 . S
H7617 C7643 0.950 . S
H7618 C7644 0.950 . S
H7619 C7646 0.950 . S
H7620 C7649 0.950 . S
H7621 C7650 0.950 . S
H7622 C7652 0.950 . S
H7623 C7653 0.950 . S
C7624 H7606 0.951 . S
C7624 C7625 1.366 . S
C7624 C7626 1.388 . S
C7625 C7624 1.366 . S
C7625 C7629 1.385 . S
C7626 H7607 0.951 . S
C7626 C7624 1.388 . S
C7626 C7627 1.366 . S
C7627 C7626 1.366 . S
C7627 C7628 1.414 . S
C7627 C7630 1.499 . S
C7628 H7608 0.950 . S
C7628 C7627 1.414 . S
C7628 C7629 1.374 . S
C7629 H7609 0.950 . S
C7629 C7625 1.385 . S
C7629 C7628 1.374 . S
C7630 C7627 1.499 . S
C7630 C7631 1.373 . S
C7630 C7632 1.389 . S
C7631 H7610 0.950 . S
C7631 C7630 1.373 . S
C7631 C7647 1.377 . S
C7632 C7630 1.389 . S
C7632 C7633 1.524 . S
C7632 C7646 1.377 . S
C7633 C7632 1.524 . S
C7633 C7634 1.397 . S
C7633 C7638 1.363 . S
C7634 H7611 0.950 . S
C7634 C7633 1.397 . S
C7634 C7635 1.334 . S
C7635 H7612 0.950 . S
C7635 C7634 1.334 . S
C7635 C7636 1.287 . S
C7636 C7635 1.287 . S
C7636 C7637 1.524 . S
C7636 H7655 0.913 . S
C7637 H7613 0.950 . S
C7637 C7636 1.524 . S
C7637 C7638 1.415 . S
C7638 H7614 0.950 . S
C7638 C7633 1.363 . S
C7638 C7637 1.415 . S
C7639 H7615 0.951 . S
C7639 C7640 1.366 . S
C7639 C7641 1.388 . S
C7640 C7639 1.366 . S
C7640 C7644 1.385 . S
C7641 H7616 0.951 . S
C7641 C7639 1.388 . S
C7641 C7642 1.366 . S
C7642 C7641 1.366 . S
C7642 C7643 1.414 . S
C7642 C7645 1.499 . S
C7643 H7617 0.950 . S
C7643 C7642 1.414 . S
C7643 C7644 1.374 . S
C7644 H7618 0.950 . S
C7644 C7640 1.385 . S
C7644 C7643 1.374 . S
C7645 C7642 1.499 . S
C7645 C7646 1.373 . S
C7645 C7647 1.389 . S
C7646 H7619 0.950 . S
C7646 C7632 1.377 . S
C7646 C7645 1.373 . S
C7647 C7631 1.377 . S
C7647 C7645 1.389 . S
C7647 C7648 1.524 . S
C7648 C7647 1.524 . S
C7648 C7649 1.397 . S
C7648 C7653 1.363 . S
C7649 H7620 0.950 . S
C7649 C7648 1.397 . S
C7649 C7650 1.334 . S
C7650 H7621 0.950 . S
C7650 C7649 1.334 . S
C7650 C7651 1.287 . S
C7651 C7650 1.287 . S
C7651 C7652 1.524 . S
C7651 H7654 0.999 . S
C7652 H7622 0.950 . S
C7652 C7651 1.524 . S
C7652 C7653 1.415 . S
C7653 H7623 0.950 . S
C7653 C7648 1.363 . S
C7653 C7652 1.415 . S
H7654 C7651 0.999 . S
H7655 C7636 0.913 . S
H7656 C7674 0.951 . S
H7657 C7676 0.951 . S
H7658 C7678 0.950 . S
H7659 C7679 0.950 . S
H7660 C7681 0.950 . S
H7661 C7684 0.950 . S
H7662 C7685 0.950 . S
H7663 C7687 0.950 . S
H7664 C7688 0.950 . S
H7665 C7689 0.951 . S
H7666 C7691 0.951 . S
H7667 C7693 0.950 . S
H7668 C7694 0.950 . S
H7669 C7696 0.950 . S
H7670 C7699 0.950 . S
H7671 C7700 0.950 . S
H7672 C7702 0.950 . S
H7673 C7703 0.950 . S
C7674 H7656 0.951 . S
C7674 C7675 1.366 . S
C7674 C7676 1.388 . S
C7675 C7674 1.366 . S
C7675 C7679 1.385 . S
C7676 H7657 0.951 . S
C7676 C7674 1.388 . S
C7676 C7677 1.366 . S
C7677 C7676 1.366 . S
C7677 C7678 1.414 . S
C7677 C7680 1.499 . S
C7678 H7658 0.950 . S
C7678 C7677 1.414 . S
C7678 C7679 1.374 . S
C7679 H7659 0.950 . S
C7679 C7675 1.385 . S
C7679 C7678 1.374 . S
C7680 C7677 1.499 . S
C7680 C7681 1.373 . S
C7680 C7682 1.389 . S
C7681 H7660 0.950 . S
C7681 C7680 1.373 . S
C7681 C7697 1.377 . S
C7682 C7680 1.389 . S
C7682 C7683 1.524 . S
C7682 C7696 1.377 . S
C7683 C7682 1.524 . S
C7683 C7684 1.397 . S
C7683 C7688 1.363 . S
C7684 H7661 0.950 . S
C7684 C7683 1.397 . S
C7684 C7685 1.334 . S
C7685 H7662 0.950 . S
C7685 C7684 1.334 . S
C7685 C7686 1.287 . S
C7686 C7685 1.287 . S
C7686 C7687 1.524 . S
C7686 H7705 0.913 . S
C7687 H7663 0.950 . S
C7687 C7686 1.524 . S
C7687 C7688 1.415 . S
C7688 H7664 0.950 . S
C7688 C7683 1.363 . S
C7688 C7687 1.415 . S
C7689 H7665 0.951 . S
C7689 C7690 1.366 . S
C7689 C7691 1.388 . S
C7690 C7689 1.366 . S
C7690 C7694 1.385 . S
C7691 H7666 0.951 . S
C7691 C7689 1.388 . S
C7691 C7692 1.366 . S
C7692 C7691 1.366 . S
C7692 C7693 1.414 . S
C7692 C7695 1.499 . S
C7693 H7667 0.950 . S
C7693 C7692 1.414 . S
C7693 C7694 1.374 . S
C7694 H7668 0.950 . S
C7694 C7690 1.385 . S
C7694 C7693 1.374 . S
C7695 C7692 1.499 . S
C7695 C7696 1.373 . S
C7695 C7697 1.389 . S
C7696 H7669 0.950 . S
C7696 C7682 1.377 . S
C7696 C7695 1.373 . S
C7697 C7681 1.377 . S
C7697 C7695 1.389 . S
C7697 C7698 1.524 . S
C7698 C7697 1.524 . S
C7698 C7699 1.397 . S
C7698 C7703 1.363 . S
C7699 H7670 0.950 . S
C7699 C7698 1.397 . S
C7699 C7700 1.334 . S
C7700 H7671 0.950 . S
C7700 C7699 1.334 . S
C7700 C7701 1.287 . S
C7701 C7700 1.287 . S
C7701 C7702 1.524 . S
C7701 H7704 0.999 . S
C7702 H7672 0.950 . S
C7702 C7701 1.524 . S
C7702 C7703 1.415 . S
C7703 H7673 0.950 . S
C7703 C7698 1.363 . S
C7703 C7702 1.415 . S
H7704 C7701 0.999 . S
H7705 C7686 0.913 . S
H7706 C7724 0.951 . S
H7707 C7726 0.951 . S
H7708 C7728 0.950 . S
H7709 C7729 0.950 . S
H7710 C7731 0.950 . S
H7711 C7734 0.950 . S
H7712 C7735 0.950 . S
H7713 C7737 0.950 . S
H7714 C7738 0.950 . S
H7715 C7739 0.951 . S
H7716 C7741 0.951 . S
H7717 C7743 0.950 . S
H7718 C7744 0.950 . S
H7719 C7746 0.950 . S
H7720 C7749 0.950 . S
H7721 C7750 0.950 . S
H7722 C7752 0.950 . S
H7723 C7753 0.950 . S
C7724 H7706 0.951 . S
C7724 C7725 1.366 . S
C7724 C7726 1.388 . S
C7725 C7724 1.366 . S
C7725 C7729 1.385 . S
C7726 H7707 0.951 . S
C7726 C7724 1.388 . S
C7726 C7727 1.366 . S
C7727 C7726 1.366 . S
C7727 C7728 1.414 . S
C7727 C7730 1.499 . S
C7728 H7708 0.950 . S
C7728 C7727 1.414 . S
C7728 C7729 1.374 . S
C7729 H7709 0.950 . S
C7729 C7725 1.385 . S
C7729 C7728 1.374 . S
C7730 C7727 1.499 . S
C7730 C7731 1.373 . S
C7730 C7732 1.389 . S
C7731 H7710 0.950 . S
C7731 C7730 1.373 . S
C7731 C7747 1.377 . S
C7732 C7730 1.389 . S
C7732 C7733 1.524 . S
C7732 C7746 1.377 . S
C7733 C7732 1.524 . S
C7733 C7734 1.397 . S
C7733 C7738 1.363 . S
C7734 H7711 0.950 . S
C7734 C7733 1.397 . S
C7734 C7735 1.334 . S
C7735 H7712 0.950 . S
C7735 C7734 1.334 . S
C7735 C7736 1.287 . S
C7736 C7735 1.287 . S
C7736 C7737 1.524 . S
C7736 H7755 0.913 . S
C7737 H7713 0.950 . S
C7737 C7736 1.524 . S
C7737 C7738 1.415 . S
C7738 H7714 0.950 . S
C7738 C7733 1.363 . S
C7738 C7737 1.415 . S
C7739 H7715 0.951 . S
C7739 C7740 1.366 . S
C7739 C7741 1.388 . S
C7740 C7739 1.366 . S
C7740 C7744 1.385 . S
C7741 H7716 0.951 . S
C7741 C7739 1.388 . S
C7741 C7742 1.366 . S
C7742 C7741 1.366 . S
C7742 C7743 1.414 . S
C7742 C7745 1.499 . S
C7743 H7717 0.950 . S
C7743 C7742 1.414 . S
C7743 C7744 1.374 . S
C7744 H7718 0.950 . S
C7744 C7740 1.385 . S
C7744 C7743 1.374 . S
C7745 C7742 1.499 . S
C7745 C7746 1.373 . S
C7745 C7747 1.389 . S
C7746 H7719 0.950 . S
C7746 C7732 1.377 . S
C7746 C7745 1.373 . S
C7747 C7731 1.377 . S
C7747 C7745 1.389 . S
C7747 C7748 1.524 . S
C7748 C7747 1.524 . S
C7748 C7749 1.397 . S
C7748 C7753 1.363 . S
C7749 H7720 0.950 . S
C7749 C7748 1.397 . S
C7749 C7750 1.334 . S
C7750 H7721 0.950 . S
C7750 C7749 1.334 . S
C7750 C7751 1.287 . S
C7751 C7750 1.287 . S
C7751 C7752 1.524 . S
C7751 H7754 0.999 . S
C7752 H7722 0.950 . S
C7752 C7751 1.524 . S
C7752 C7753 1.415 . S
C7753 H7723 0.950 . S
C7753 C7748 1.363 . S
C7753 C7752 1.415 . S
H7754 C7751 0.999 . S
H7755 C7736 0.913 . S
H7756 C7774 0.951 . S
H7757 C7776 0.951 . S
H7758 C7778 0.950 . S
H7759 C7779 0.950 . S
H7760 C7781 0.950 . S
H7761 C7784 0.950 . S
H7762 C7785 0.950 . S
H7763 C7787 0.950 . S
H7764 C7788 0.950 . S
H7765 C7789 0.951 . S
H7766 C7791 0.951 . S
H7767 C7793 0.950 . S
H7768 C7794 0.950 . S
H7769 C7796 0.950 . S
H7770 C7799 0.950 . S
H7771 C7800 0.950 . S
H7772 C7802 0.950 . S
H7773 C7803 0.950 . S
C7774 H7756 0.951 . S
C7774 C7775 1.366 . S
C7774 C7776 1.388 . S
C7775 C7774 1.366 . S
C7775 C7779 1.385 . S
C7776 H7757 0.951 . S
C7776 C7774 1.388 . S
C7776 C7777 1.366 . S
C7777 C7776 1.366 . S
C7777 C7778 1.414 . S
C7777 C7780 1.499 . S
C7778 H7758 0.950 . S
C7778 C7777 1.414 . S
C7778 C7779 1.374 . S
C7779 H7759 0.950 . S
C7779 C7775 1.385 . S
C7779 C7778 1.374 . S
C7780 C7777 1.499 . S
C7780 C7781 1.373 . S
C7780 C7782 1.389 . S
C7781 H7760 0.950 . S
C7781 C7780 1.373 . S
C7781 C7797 1.377 . S
C7782 C7780 1.389 . S
C7782 C7783 1.524 . S
C7782 C7796 1.377 . S
C7783 C7782 1.524 . S
C7783 C7784 1.397 . S
C7783 C7788 1.363 . S
C7784 H7761 0.950 . S
C7784 C7783 1.397 . S
C7784 C7785 1.334 . S
C7785 H7762 0.950 . S
C7785 C7784 1.334 . S
C7785 C7786 1.287 . S
C7786 C7785 1.287 . S
C7786 C7787 1.524 . S
C7786 H7805 0.913 . S
C7787 H7763 0.950 . S
C7787 C7786 1.524 . S
C7787 C7788 1.415 . S
C7788 H7764 0.950 . S
C7788 C7783 1.363 . S
C7788 C7787 1.415 . S
C7789 H7765 0.951 . S
C7789 C7790 1.366 . S
C7789 C7791 1.388 . S
C7790 C7789 1.366 . S
C7790 C7794 1.385 . S
C7791 H7766 0.951 . S
C7791 C7789 1.388 . S
C7791 C7792 1.366 . S
C7792 C7791 1.366 . S
C7792 C7793 1.414 . S
C7792 C7795 1.499 . S
C7793 H7767 0.950 . S
C7793 C7792 1.414 . S
C7793 C7794 1.374 . S
C7794 H7768 0.950 . S
C7794 C7790 1.385 . S
C7794 C7793 1.374 . S
C7795 C7792 1.499 . S
C7795 C7796 1.373 . S
C7795 C7797 1.389 . S
C7796 H7769 0.950 . S
C7796 C7782 1.377 . S
C7796 C7795 1.373 . S
C7797 C7781 1.377 . S
C7797 C7795 1.389 . S
C7797 C7798 1.524 . S
C7798 C7797 1.524 . S
C7798 C7799 1.397 . S
C7798 C7803 1.363 . S
C7799 H7770 0.950 . S
C7799 C7798 1.397 . S
C7799 C7800 1.334 1_655 S
C7800 H7771 0.950 . S
C7800 C7799 1.334 1_455 S
C7800 C7801 1.287 . S
C7801 C7800 1.287 . S
C7801 C7802 1.524 . S
C7801 H7804 0.999 . S
C7802 H7772 0.950 . S
C7802 C7801 1.524 . S
C7802 C7803 1.415 1_455 S
C7803 H7773 0.950 . S
C7803 C7798 1.363 . S
C7803 C7802 1.415 1_655 S
H7804 C7801 0.999 . S
H7805 C7786 0.913 . S
H7806 C7824 0.951 . S
H7807 C7826 0.951 . S
H7808 C7828 0.950 . S
H7809 C7829 0.950 . S
H7810 C7831 0.950 . S
H7811 C7834 0.950 . S
H7812 C7835 0.950 . S
H7813 C7837 0.950 . S
H7814 C7838 0.950 . S
H7815 C7839 0.951 . S
H7816 C7841 0.951 . S
H7817 C7843 0.950 . S
H7818 C7844 0.950 . S
H7819 C7846 0.950 . S
H7820 C7849 0.950 . S
H7821 C7850 0.950 . S
H7822 C7852 0.950 . S
H7823 C7853 0.950 . S
C7824 H7806 0.951 . S
C7824 C7825 1.366 . S
C7824 C7826 1.388 . S
C7825 C7824 1.366 . S
C7825 C7829 1.385 . S
C7826 H7807 0.951 . S
C7826 C7824 1.388 . S
C7826 C7827 1.366 . S
C7827 C7826 1.366 . S
C7827 C7828 1.414 . S
C7827 C7830 1.499 . S
C7828 H7808 0.950 . S
C7828 C7827 1.414 . S
C7828 C7829 1.374 . S
C7829 H7809 0.950 . S
C7829 C7825 1.385 . S
C7829 C7828 1.374 . S
C7830 C7827 1.499 . S
C7830 C7831 1.373 . S
C7830 C7832 1.389 . S
C7831 H7810 0.950 . S
C7831 C7830 1.373 . S
C7831 C7847 1.377 . S
C7832 C7830 1.389 . S
C7832 C7833 1.524 . S
C7832 C7846 1.377 . S
C7833 C7832 1.524 . S
C7833 C7834 1.397 . S
C7833 C7838 1.363 . S
C7834 H7811 0.950 . S
C7834 C7833 1.397 . S
C7834 C7835 1.334 . S
C7835 H7812 0.950 . S
C7835 C7834 1.334 . S
C7835 C7836 1.287 . S
C7836 C7835 1.287 . S
C7836 C7837 1.524 . S
C7836 H7855 0.913 . S
C7837 H7813 0.950 . S
C7837 C7836 1.524 . S
C7837 C7838 1.415 . S
C7838 H7814 0.950 . S
C7838 C7833 1.363 . S
C7838 C7837 1.415 . S
C7839 H7815 0.951 . S
C7839 C7840 1.366 . S
C7839 C7841 1.388 . S
C7840 C7839 1.366 . S
C7840 C7844 1.385 . S
C7841 H7816 0.951 . S
C7841 C7839 1.388 . S
C7841 C7842 1.366 . S
C7842 C7841 1.366 . S
C7842 C7843 1.414 . S
C7842 C7845 1.499 . S
C7843 H7817 0.950 . S
C7843 C7842 1.414 . S
C7843 C7844 1.374 . S
C7844 H7818 0.950 . S
C7844 C7840 1.385 . S
C7844 C7843 1.374 . S
C7845 C7842 1.499 . S
C7845 C7846 1.373 . S
C7845 C7847 1.389 . S
C7846 H7819 0.950 . S
C7846 C7832 1.377 . S
C7846 C7845 1.373 . S
C7847 C7831 1.377 . S
C7847 C7845 1.389 . S
C7847 C7848 1.524 . S
C7848 C7847 1.524 . S
C7848 C7849 1.397 . S
C7848 C7853 1.363 . S
C7849 H7820 0.950 . S
C7849 C7848 1.397 . S
C7849 C7850 1.334 . S
C7850 H7821 0.950 . S
C7850 C7849 1.334 . S
C7850 C7851 1.287 . S
C7851 C7850 1.287 . S
C7851 C7852 1.524 . S
C7851 H7854 0.999 . S
C7852 H7822 0.950 . S
C7852 C7851 1.524 . S
C7852 C7853 1.415 . S
C7853 H7823 0.950 . S
C7853 C7848 1.363 . S
C7853 C7852 1.415 . S
H7854 C7851 0.999 . S
H7855 C7836 0.913 . S
H7856 C7874 0.951 . S
H7857 C7876 0.951 . S
H7858 C7878 0.950 . S
H7859 C7879 0.950 . S
H7860 C7881 0.950 . S
H7861 C7884 0.950 . S
H7862 C7885 0.950 . S
H7863 C7887 0.950 . S
H7864 C7888 0.950 . S
H7865 C7889 0.951 . S
H7866 C7891 0.951 . S
H7867 C7893 0.950 . S
H7868 C7894 0.950 . S
H7869 C7896 0.950 . S
H7870 C7899 0.950 . S
H7871 C7900 0.950 . S
H7872 C7902 0.950 . S
H7873 C7903 0.950 . S
C7874 H7856 0.951 . S
C7874 C7875 1.366 . S
C7874 C7876 1.388 . S
C7875 C7874 1.366 . S
C7875 C7879 1.385 . S
C7876 H7857 0.951 . S
C7876 C7874 1.388 . S
C7876 C7877 1.366 . S
C7877 C7876 1.366 . S
C7877 C7878 1.414 . S
C7877 C7880 1.499 . S
C7878 H7858 0.950 . S
C7878 C7877 1.414 . S
C7878 C7879 1.374 . S
C7879 H7859 0.950 . S
C7879 C7875 1.385 . S
C7879 C7878 1.374 . S
C7880 C7877 1.499 . S
C7880 C7881 1.373 . S
C7880 C7882 1.389 . S
C7881 H7860 0.950 . S
C7881 C7880 1.373 . S
C7881 C7897 1.377 . S
C7882 C7880 1.389 . S
C7882 C7883 1.524 . S
C7882 C7896 1.377 . S
C7883 C7882 1.524 . S
C7883 C7884 1.397 . S
C7883 C7888 1.363 . S
C7884 H7861 0.950 . S
C7884 C7883 1.397 . S
C7884 C7885 1.334 . S
C7885 H7862 0.950 . S
C7885 C7884 1.334 . S
C7885 C7886 1.287 . S
C7886 C7885 1.287 . S
C7886 C7887 1.524 . S
C7886 H7905 0.913 . S
C7887 H7863 0.950 . S
C7887 C7886 1.524 . S
C7887 C7888 1.415 . S
C7888 H7864 0.950 . S
C7888 C7883 1.363 . S
C7888 C7887 1.415 . S
C7889 H7865 0.951 . S
C7889 C7890 1.366 . S
C7889 C7891 1.388 . S
C7890 C7889 1.366 . S
C7890 C7894 1.385 . S
C7891 H7866 0.951 . S
C7891 C7889 1.388 . S
C7891 C7892 1.366 . S
C7892 C7891 1.366 . S
C7892 C7893 1.414 . S
C7892 C7895 1.499 . S
C7893 H7867 0.950 . S
C7893 C7892 1.414 . S
C7893 C7894 1.374 . S
C7894 H7868 0.950 . S
C7894 C7890 1.385 . S
C7894 C7893 1.374 . S
C7895 C7892 1.499 . S
C7895 C7896 1.373 . S
C7895 C7897 1.389 . S
C7896 H7869 0.950 . S
C7896 C7882 1.377 . S
C7896 C7895 1.373 . S
C7897 C7881 1.377 . S
C7897 C7895 1.389 . S
C7897 C7898 1.524 . S
C7898 C7897 1.524 . S
C7898 C7899 1.397 . S
C7898 C7903 1.363 . S
C7899 H7870 0.950 . S
C7899 C7898 1.397 . S
C7899 C7900 1.334 . S
C7900 H7871 0.950 . S
C7900 C7899 1.334 . S
C7900 C7901 1.287 . S
C7901 C7900 1.287 . S
C7901 C7902 1.524 . S
C7901 H7904 0.999 . S
C7902 H7872 0.950 . S
C7902 C7901 1.524 . S
C7902 C7903 1.415 . S
C7903 H7873 0.950 . S
C7903 C7898 1.363 . S
C7903 C7902 1.415 . S
H7904 C7901 0.999 . S
H7905 C7886 0.913 . S
H7906 C7924 0.951 . S
H7907 C7926 0.951 . S
H7908 C7928 0.950 . S
H7909 C7929 0.950 . S
H7910 C7931 0.950 . S
H7911 C7934 0.950 . S
H7912 C7935 0.950 . S
H7913 C7937 0.950 . S
H7914 C7938 0.950 . S
H7915 C7939 0.958 1_545 S
H7916 C7941 0.951 . S
H7917 C7943 0.950 . S
H7918 C7944 0.950 . S
H7919 C7946 0.950 . S
H7920 C7949 0.950 . S
H7921 C7950 0.950 . S
H7922 C7952 0.950 . S
H7923 C7953 0.950 . S
C7924 H7906 0.951 . S
C7924 C7925 1.366 . S
C7924 C7926 1.388 . S
C7925 C7924 1.366 . S
C7925 C7929 1.385 . S
C7926 H7907 0.951 . S
C7926 C7924 1.388 . S
C7926 C7927 1.366 . S
C7927 C7926 1.366 . S
C7927 C7928 1.414 . S
C7927 C7930 1.499 . S
C7928 H7908 0.950 . S
C7928 C7927 1.414 . S
C7928 C7929 1.374 . S
C7929 H7909 0.950 . S
C7929 C7925 1.385 . S
C7929 C7928 1.374 . S
C7930 C7927 1.499 . S
C7930 C7931 1.373 . S
C7930 C7932 1.389 . S
C7931 H7910 0.950 . S
C7931 C7930 1.373 . S
C7931 C7947 1.377 . S
C7932 C7930 1.389 . S
C7932 C7933 1.524 . S
C7932 C7946 1.377 . S
C7933 C7932 1.524 . S
C7933 C7934 1.397 . S
C7933 C7938 1.363 . S
C7934 H7911 0.950 . S
C7934 C7933 1.397 . S
C7934 C7935 1.334 . S
C7935 H7912 0.950 . S
C7935 C7934 1.334 . S
C7935 C7936 1.287 . S
C7936 C7935 1.287 . S
C7936 C7937 1.524 . S
C7936 H7955 0.913 . S
C7937 H7913 0.950 . S
C7937 C7936 1.524 . S
C7937 C7938 1.415 . S
C7938 H7914 0.950 . S
C7938 C7933 1.363 . S
C7938 C7937 1.415 . S
C7939 H7915 0.958 1_565 S
C7939 C7940 1.362 . S
C7939 C7941 1.385 . S
C7940 C7939 1.362 . S
C7940 C7944 1.385 . S
C7941 H7916 0.951 . S
C7941 C7939 1.385 . S
C7941 C7942 1.366 . S
C7942 C7941 1.366 . S
C7942 C7943 1.414 . S
C7942 C7945 1.499 . S
C7943 H7917 0.950 . S
C7943 C7942 1.414 . S
C7943 C7944 1.374 . S
C7944 H7918 0.950 . S
C7944 C7940 1.385 . S
C7944 C7943 1.374 . S
C7945 C7942 1.499 . S
C7945 C7946 1.373 . S
C7945 C7947 1.389 . S
C7946 H7919 0.950 . S
C7946 C7932 1.377 . S
C7946 C7945 1.373 . S
C7947 C7931 1.377 . S
C7947 C7945 1.389 . S
C7947 C7948 1.524 . S
C7948 C7947 1.524 . S
C7948 C7949 1.397 . S
C7948 C7953 1.363 . S
C7949 H7920 0.950 . S
C7949 C7948 1.397 . S
C7949 C7950 1.334 . S
C7950 H7921 0.950 . S
C7950 C7949 1.334 . S
C7950 C7951 1.287 . S
C7951 C7950 1.287 . S
C7951 C7952 1.524 . S
C7951 H7954 0.999 . S
C7952 H7922 0.950 . S
C7952 C7951 1.524 . S
C7952 C7953 1.415 . S
C7953 H7923 0.950 . S
C7953 C7948 1.363 . S
C7953 C7952 1.415 . S
H7954 C7951 0.999 . S
H7955 C7936 0.913 . S
H7956 C7974 0.951 . S
H7957 C7976 0.951 . S
H7958 C7978 0.950 . S
H7959 C7979 0.950 . S
H7960 C7981 0.950 . S
H7961 C7984 0.950 . S
H7962 C7985 0.950 . S
H7963 C7987 0.950 . S
H7964 C7988 0.950 . S
H7965 C7989 0.951 . S
H7966 C7991 0.951 . S
H7967 C7993 0.950 . S
H7968 C7994 0.950 . S
H7969 C7996 0.950 . S
H7970 C7999 0.950 . S
H7971 C8000 0.950 . S
H7972 C8002 0.950 . S
H7973 C8003 0.950 . S
C7974 H7956 0.951 . S
C7974 C7975 1.366 . S
C7974 C7976 1.388 . S
C7975 C7974 1.366 . S
C7975 C7979 1.385 . S
C7976 H7957 0.951 . S
C7976 C7974 1.388 . S
C7976 C7977 1.366 . S
C7977 C7976 1.366 . S
C7977 C7978 1.414 . S
C7977 C7980 1.499 . S
C7978 H7958 0.950 . S
C7978 C7977 1.414 . S
C7978 C7979 1.374 . S
C7979 H7959 0.950 . S
C7979 C7975 1.385 . S
C7979 C7978 1.374 . S
C7980 C7977 1.499 . S
C7980 C7981 1.373 . S
C7980 C7982 1.389 . S
C7981 H7960 0.950 . S
C7981 C7980 1.373 . S
C7981 C7997 1.377 . S
C7982 C7980 1.389 . S
C7982 C7983 1.524 . S
C7982 C7996 1.377 . S
C7983 C7982 1.524 . S
C7983 C7984 1.397 . S
C7983 C7988 1.363 . S
C7984 H7961 0.950 . S
C7984 C7983 1.397 . S
C7984 C7985 1.334 . S
C7985 H7962 0.950 . S
C7985 C7984 1.334 . S
C7985 C7986 1.287 . S
C7986 C7985 1.287 . S
C7986 C7987 1.524 . S
C7986 H8005 0.913 . S
C7987 H7963 0.950 . S
C7987 C7986 1.524 . S
C7987 C7988 1.415 . S
C7988 H7964 0.950 . S
C7988 C7983 1.363 . S
C7988 C7987 1.415 . S
C7989 H7965 0.951 . S
C7989 C7990 1.366 . S
C7989 C7991 1.388 . S
C7990 C7989 1.366 . S
C7990 C7994 1.385 . S
C7991 H7966 0.951 . S
C7991 C7989 1.388 . S
C7991 C7992 1.366 . S
C7992 C7991 1.366 . S
C7992 C7993 1.414 . S
C7992 C7995 1.499 . S
C7993 H7967 0.950 . S
C7993 C7992 1.414 . S
C7993 C7994 1.374 . S
C7994 H7968 0.950 . S
C7994 C7990 1.385 . S
C7994 C7993 1.374 . S
C7995 C7992 1.499 . S
C7995 C7996 1.373 . S
C7995 C7997 1.389 . S
C7996 H7969 0.950 . S
C7996 C7982 1.377 . S
C7996 C7995 1.373 . S
C7997 C7981 1.377 . S
C7997 C7995 1.389 . S
C7997 C7998 1.524 . S
C7998 C7997 1.524 . S
C7998 C7999 1.397 . S
C7998 C8003 1.363 . S
C7999 H7970 0.950 . S
C7999 C7998 1.397 . S
C7999 C8000 1.334 . S
C8000 H7971 0.950 . S
C8000 C7999 1.334 . S
C8000 C8001 1.287 . S
C8001 C8000 1.287 . S
C8001 C8002 1.524 . S
C8001 H8004 0.999 . S
C8002 H7972 0.950 . S
C8002 C8001 1.524 . S
C8002 C8003 1.415 . S
C8003 H7973 0.950 . S
C8003 C7998 1.363 . S
C8003 C8002 1.415 . S
H8004 C8001 0.999 . S
H8005 C7986 0.913 . S
H8006 C8024 0.951 . S
H8007 C8026 0.951 . S
H8008 C8028 0.950 . S
H8009 C8029 0.950 . S
H8010 C8031 0.950 . S
H8011 C8034 0.950 . S
H8012 C8035 0.950 . S
H8013 C8037 0.950 . S
H8014 C8038 0.950 . S
H8015 C8039 0.951 . S
H8016 C8041 0.951 . S
H8017 C8043 0.950 . S
H8018 C8044 0.950 . S
H8019 C8046 0.950 . S
H8020 C8049 0.950 . S
H8021 C8050 0.950 . S
H8022 C8052 1.019 . S
H8023 C8053 0.950 . S
C8024 H8006 0.951 . S
C8024 C8025 1.366 . S
C8024 C8026 1.388 . S
C8025 C8024 1.366 . S
C8025 C8029 1.385 . S
C8026 H8007 0.951 . S
C8026 C8024 1.388 . S
C8026 C8027 1.366 . S
C8027 C8026 1.366 . S
C8027 C8028 1.414 . S
C8027 C8030 1.499 . S
C8028 H8008 0.950 . S
C8028 C8027 1.414 . S
C8028 C8029 1.374 . S
C8029 H8009 0.950 . S
C8029 C8025 1.385 . S
C8029 C8028 1.374 . S
C8030 C8027 1.499 . S
C8030 C8031 1.373 . S
C8030 C8032 1.389 . S
C8031 H8010 0.950 . S
C8031 C8030 1.373 . S
C8031 C8047 1.377 . S
C8032 C8030 1.389 . S
C8032 C8033 1.524 . S
C8032 C8046 1.377 . S
C8033 C8032 1.524 . S
C8033 C8034 1.397 . S
C8033 C8038 1.363 . S
C8034 H8011 0.950 . S
C8034 C8033 1.397 . S
C8034 C8035 1.334 . S
C8035 H8012 0.950 . S
C8035 C8034 1.334 . S
C8035 C8036 1.287 . S
C8036 C8035 1.287 . S
C8036 C8037 1.524 . S
C8036 H8055 0.913 . S
C8037 H8013 0.950 . S
C8037 C8036 1.524 . S
C8037 C8038 1.415 . S
C8038 H8014 0.950 . S
C8038 C8033 1.363 . S
C8038 C8037 1.415 . S
C8039 H8015 0.951 . S
C8039 C8040 1.366 . S
C8039 C8041 1.388 . S
C8040 C8039 1.366 . S
C8040 C8044 1.385 . S
C8041 H8016 0.951 . S
C8041 C8039 1.388 . S
C8041 C8042 1.366 . S
C8042 C8041 1.366 . S
C8042 C8043 1.414 . S
C8042 C8045 1.499 . S
C8043 H8017 0.950 . S
C8043 C8042 1.414 . S
C8043 C8044 1.374 . S
C8044 H8018 0.950 . S
C8044 C8040 1.385 . S
C8044 C8043 1.374 . S
C8045 C8042 1.499 . S
C8045 C8046 1.373 . S
C8045 C8047 1.389 . S
C8046 H8019 0.950 . S
C8046 C8032 1.377 . S
C8046 C8045 1.373 . S
C8047 C8031 1.377 . S
C8047 C8045 1.389 . S
C8047 C8048 1.524 . S
C8048 C8047 1.524 . S
C8048 C8049 1.397 1_554 S
C8048 C8053 1.363 . S
C8049 H8020 0.950 . S
C8049 C8048 1.397 1_556 S
C8049 C8050 1.334 . S
C8050 H8021 0.950 . S
C8050 C8049 1.334 . S
C8050 C8051 1.287 . S
C8051 C8050 1.287 . S
C8051 C8052 1.496 1_545 S
C8051 H8054 0.999 1_545 S
C8052 H8022 1.019 . S
C8052 C8051 1.496 1_565 S
C8052 C8053 1.366 1_566 S
C8053 H8023 0.950 . S
C8053 C8048 1.363 . S
C8053 C8052 1.366 1_544 S
H8054 C8051 0.999 1_565 S
H8055 C8036 0.913 . S
H8056 C8074 0.951 . S
H8057 C8076 0.951 . S
H8058 C8078 0.950 . S
H8059 C8079 0.950 . S
H8060 C8081 0.950 . S
H8061 C8084 0.950 . S
H8062 C8085 0.950 . S
H8063 C8087 0.950 . S
H8064 C8088 0.950 . S
H8065 C8089 0.951 . S
H8066 C8091 0.951 . S
H8067 C8093 0.950 . S
H8068 C8094 0.950 . S
H8069 C8096 0.950 . S
H8070 C8099 0.950 . S
H8071 C8100 0.950 . S
H8072 C8102 0.950 . S
H8073 C8103 0.950 . S
C8074 H8056 0.951 . S
C8074 C8075 1.366 . S
C8074 C8076 1.388 . S
C8075 C8074 1.366 . S
C8075 C8079 1.385 . S
C8076 H8057 0.951 . S
C8076 C8074 1.388 . S
C8076 C8077 1.366 . S
C8077 C8076 1.366 . S
C8077 C8078 1.414 . S
C8077 C8080 1.499 . S
C8078 H8058 0.950 . S
C8078 C8077 1.414 . S
C8078 C8079 1.374 . S
C8079 H8059 0.950 . S
C8079 C8075 1.385 . S
C8079 C8078 1.374 . S
C8080 C8077 1.499 . S
C8080 C8081 1.373 . S
C8080 C8082 1.389 . S
C8081 H8060 0.950 . S
C8081 C8080 1.373 . S
C8081 C8097 1.377 . S
C8082 C8080 1.389 . S
C8082 C8083 1.524 . S
C8082 C8096 1.377 . S
C8083 C8082 1.524 . S
C8083 C8084 1.397 . S
C8083 C8088 1.363 . S
C8084 H8061 0.950 . S
C8084 C8083 1.397 . S
C8084 C8085 1.334 . S
C8085 H8062 0.950 . S
C8085 C8084 1.334 . S
C8085 C8086 1.287 . S
C8086 C8085 1.287 . S
C8086 C8087 1.524 . S
C8086 H8105 0.913 . S
C8087 H8063 0.950 . S
C8087 C8086 1.524 . S
C8087 C8088 1.415 . S
C8088 H8064 0.950 . S
C8088 C8083 1.363 . S
C8088 C8087 1.415 . S
C8089 H8065 0.951 . S
C8089 C8090 1.366 . S
C8089 C8091 1.388 . S
C8090 C8089 1.366 . S
C8090 C8094 1.385 . S
C8091 H8066 0.951 . S
C8091 C8089 1.388 . S
C8091 C8092 1.366 . S
C8092 C8091 1.366 . S
C8092 C8093 1.414 . S
C8092 C8095 1.499 . S
C8093 H8067 0.950 . S
C8093 C8092 1.414 . S
C8093 C8094 1.374 . S
C8094 H8068 0.950 . S
C8094 C8090 1.385 . S
C8094 C8093 1.374 . S
C8095 C8092 1.499 . S
C8095 C8096 1.373 . S
C8095 C8097 1.389 . S
C8096 H8069 0.950 . S
C8096 C8082 1.377 . S
C8096 C8095 1.373 . S
C8097 C8081 1.377 . S
C8097 C8095 1.389 . S
C8097 C8098 1.524 . S
C8098 C8097 1.524 . S
C8098 C8099 1.397 . S
C8098 C8103 1.363 . S
C8099 H8070 0.950 . S
C8099 C8098 1.397 . S
C8099 C8100 1.334 . S
C8100 H8071 0.950 . S
C8100 C8099 1.334 . S
C8100 C8101 1.287 . S
C8101 C8100 1.287 . S
C8101 C8102 1.524 . S
C8101 H8104 0.999 . S
C8102 H8072 0.950 . S
C8102 C8101 1.524 . S
C8102 C8103 1.415 . S
C8103 H8073 0.950 . S
C8103 C8098 1.363 . S
C8103 C8102 1.415 . S
H8104 C8101 0.999 . S
H8105 C8086 0.913 . S
H8106 C8124 0.951 . S
H8107 C8126 0.951 . S
H8108 C8128 0.950 . S
H8109 C8129 0.950 . S
H8110 C8131 0.950 . S
H8111 C8134 0.950 . S
H8112 C8135 0.950 . S
H8113 C8137 0.950 . S
H8114 C8138 0.950 . S
H8115 C8139 0.951 . S
H8116 C8141 0.951 . S
H8117 C8143 0.950 . S
H8118 C8144 0.950 . S
H8119 C8146 0.954 . S
H8120 C8149 0.950 . S
H8121 C8150 0.950 . S
H8122 C8152 0.950 . S
H8123 C8153 0.950 . S
C8124 H8106 0.951 . S
C8124 C8125 1.366 . S
C8124 C8126 1.388 . S
C8125 C8124 1.366 . S
C8125 C8129 1.385 . S
C8126 H8107 0.951 . S
C8126 C8124 1.388 . S
C8126 C8127 1.366 . S
C8127 C8126 1.366 . S
C8127 C8128 1.414 . S
C8127 C8130 1.499 . S
C8128 H8108 0.950 . S
C8128 C8127 1.414 . S
C8128 C8129 1.374 . S
C8129 H8109 0.950 . S
C8129 C8125 1.385 . S
C8129 C8128 1.374 . S
C8130 C8127 1.499 . S
C8130 C8131 1.373 . S
C8130 C8132 1.389 . S
C8131 H8110 0.950 . S
C8131 C8130 1.373 . S
C8131 C8147 1.377 . S
C8132 C8130 1.389 . S
C8132 C8133 1.524 1_554 S
C8132 C8146 1.377 . S
C8133 C8132 1.524 1_556 S
C8133 C8134 1.397 . S
C8133 C8138 1.363 . S
C8134 H8111 0.950 . S
C8134 C8133 1.397 . S
C8134 C8135 1.334 . S
C8135 H8112 0.950 . S
C8135 C8134 1.334 . S
C8135 C8136 1.287 . S
C8136 C8135 1.287 . S
C8136 C8137 1.524 . S
C8136 H8155 0.913 . S
C8137 H8113 0.950 . S
C8137 C8136 1.524 . S
C8137 C8138 1.415 . S
C8138 H8114 0.950 . S
C8138 C8133 1.363 . S
C8138 C8137 1.415 . S
C8139 H8115 0.951 . S
C8139 C8140 1.366 . S
C8139 C8141 1.388 . S
C8140 C8139 1.366 . S
C8140 C8144 1.385 . S
C8141 H8116 0.951 . S
C8141 C8139 1.388 . S
C8141 C8142 1.366 . S
C8142 C8141 1.366 . S
C8142 C8143 1.414 . S
C8142 C8145 1.499 . S
C8143 H8117 0.950 . S
C8143 C8142 1.414 . S
C8143 C8144 1.374 . S
C8144 H8118 0.950 . S
C8144 C8140 1.385 . S
C8144 C8143 1.374 . S
C8145 C8142 1.499 . S
C8145 C8146 1.373 . S
C8145 C8147 1.389 . S
C8146 H8119 0.954 . S
C8146 C8132 1.377 . S
C8146 C8145 1.373 . S
C8147 C8131 1.377 . S
C8147 C8145 1.389 . S
C8147 C8148 1.524 . S
C8148 C8147 1.524 . S
C8148 C8149 1.397 . S
C8148 C8153 1.363 . S
C8149 H8120 0.950 . S
C8149 C8148 1.397 . S
C8149 C8150 1.334 . S
C8150 H8121 0.950 . S
C8150 C8149 1.334 . S
C8150 C8151 1.287 . S
C8151 C8150 1.287 . S
C8151 C8152 1.524 . S
C8151 H8154 0.999 . S
C8152 H8122 0.950 . S
C8152 C8151 1.524 . S
C8152 C8153 1.415 . S
C8153 H8123 0.950 . S
C8153 C8148 1.363 . S
C8153 C8152 1.415 . S
H8154 C8151 0.999 . S
H8155 C8136 0.913 . S
H8156 C8174 0.951 . S
H8157 C8176 0.951 . S
H8158 C8178 0.950 . S
H8159 C8179 0.950 . S
H8160 C8181 0.950 . S
H8161 C8184 0.950 . S
H8162 C8185 0.950 . S
H8163 C8187 0.950 . S
H8164 C8188 0.950 . S
H8165 C8189 0.951 . S
H8166 C8191 0.951 . S
H8167 C8193 0.950 . S
H8168 C8194 0.950 . S
H8169 C8196 0.950 . S
H8170 C8199 0.950 . S
H8171 C8200 0.950 . S
H8172 C8202 0.950 . S
H8173 C8203 0.950 . S
C8174 H8156 0.951 . S
C8174 C8175 1.366 . S
C8174 C8176 1.388 . S
C8175 C8174 1.366 . S
C8175 C8179 1.385 . S
C8176 H8157 0.951 . S
C8176 C8174 1.388 . S
C8176 C8177 1.366 . S
C8177 C8176 1.366 . S
C8177 C8178 1.414 . S
C8177 C8180 1.499 . S
C8178 H8158 0.950 . S
C8178 C8177 1.414 . S
C8178 C8179 1.374 . S
C8179 H8159 0.950 . S
C8179 C8175 1.385 . S
C8179 C8178 1.374 . S
C8180 C8177 1.499 . S
C8180 C8181 1.373 . S
C8180 C8182 1.389 . S
C8181 H8160 0.950 . S
C8181 C8180 1.373 . S
C8181 C8197 1.377 . S
C8182 C8180 1.389 . S
C8182 C8183 1.524 . S
C8182 C8196 1.377 . S
C8183 C8182 1.524 . S
C8183 C8184 1.397 . S
C8183 C8188 1.363 . S
C8184 H8161 0.950 . S
C8184 C8183 1.397 . S
C8184 C8185 1.334 . S
C8185 H8162 0.950 . S
C8185 C8184 1.334 . S
C8185 C8186 1.287 . S
C8186 C8185 1.287 . S
C8186 C8187 1.524 . S
C8186 H8205 0.913 . S
C8187 H8163 0.950 . S
C8187 C8186 1.524 . S
C8187 C8188 1.415 . S
C8188 H8164 0.950 . S
C8188 C8183 1.363 . S
C8188 C8187 1.415 . S
C8189 H8165 0.951 . S
C8189 C8190 1.366 . S
C8189 C8191 1.388 . S
C8190 C8189 1.366 . S
C8190 C8194 1.385 . S
C8191 H8166 0.951 . S
C8191 C8189 1.388 . S
C8191 C8192 1.366 . S
C8192 C8191 1.366 . S
C8192 C8193 1.414 . S
C8192 C8195 1.499 . S
C8193 H8167 0.950 . S
C8193 C8192 1.414 . S
C8193 C8194 1.374 . S
C8194 H8168 0.950 . S
C8194 C8190 1.385 . S
C8194 C8193 1.374 . S
C8195 C8192 1.499 . S
C8195 C8196 1.373 . S
C8195 C8197 1.389 . S
C8196 H8169 0.950 . S
C8196 C8182 1.377 . S
C8196 C8195 1.373 . S
C8197 C8181 1.377 . S
C8197 C8195 1.389 . S
C8197 C8198 1.524 . S
C8198 C8197 1.524 . S
C8198 C8199 1.397 . S
C8198 C8203 1.363 . S
C8199 H8170 0.950 . S
C8199 C8198 1.397 . S
C8199 C8200 1.334 . S
C8200 H8171 0.950 . S
C8200 C8199 1.334 . S
C8200 C8201 1.287 . S
C8201 C8200 1.287 . S
C8201 C8202 1.524 . S
C8201 H8204 0.999 . S
C8202 H8172 0.950 . S
C8202 C8201 1.524 . S
C8202 C8203 1.415 . S
C8203 H8173 0.950 . S
C8203 C8198 1.363 . S
C8203 C8202 1.415 . S
H8204 C8201 0.999 . S
H8205 C8186 0.913 . S
H8206 C8224 0.951 . S
H8207 C8226 0.951 . S
H8208 C8228 0.950 . S
H8209 C8229 0.950 . S
H8210 C8231 0.950 . S
H8211 C8234 0.950 . S
H8212 C8235 0.950 . S
H8213 C8237 0.950 . S
H8214 C8238 0.950 . S
H8215 C8239 0.951 . S
H8216 C8241 0.951 . S
H8217 C8243 0.950 . S
H8218 C8244 0.950 . S
H8219 C8246 0.950 . S
H8220 C8249 0.950 . S
H8221 C8250 0.950 . S
H8222 C8252 0.950 . S
H8223 C8253 0.950 . S
C8224 H8206 0.951 . S
C8224 C8225 1.366 . S
C8224 C8226 1.388 . S
C8225 C8224 1.366 . S
C8225 C8229 1.385 . S
C8226 H8207 0.951 . S
C8226 C8224 1.388 . S
C8226 C8227 1.366 . S
C8227 C8226 1.366 . S
C8227 C8228 1.414 . S
C8227 C8230 1.499 . S
C8228 H8208 0.950 . S
C8228 C8227 1.414 . S
C8228 C8229 1.374 . S
C8229 H8209 0.950 . S
C8229 C8225 1.385 . S
C8229 C8228 1.374 . S
C8230 C8227 1.499 . S
C8230 C8231 1.373 . S
C8230 C8232 1.389 . S
C8231 H8210 0.950 . S
C8231 C8230 1.373 . S
C8231 C8247 1.377 . S
C8232 C8230 1.389 . S
C8232 C8233 1.524 . S
C8232 C8246 1.377 . S
C8233 C8232 1.524 . S
C8233 C8234 1.397 . S
C8233 C8238 1.363 . S
C8234 H8211 0.950 . S
C8234 C8233 1.397 . S
C8234 C8235 1.334 . S
C8235 H8212 0.950 . S
C8235 C8234 1.334 . S
C8235 C8236 1.287 . S
C8236 C8235 1.287 . S
C8236 C8237 1.524 . S
C8236 H8255 0.913 . S
C8237 H8213 0.950 . S
C8237 C8236 1.524 . S
C8237 C8238 1.415 . S
C8238 H8214 0.950 . S
C8238 C8233 1.363 . S
C8238 C8237 1.415 . S
C8239 H8215 0.951 . S
C8239 C8240 1.366 . S
C8239 C8241 1.388 . S
C8240 C8239 1.366 . S
C8240 C8244 1.385 . S
C8241 H8216 0.951 . S
C8241 C8239 1.388 . S
C8241 C8242 1.366 . S
C8242 C8241 1.366 . S
C8242 C8243 1.414 . S
C8242 C8245 1.499 . S
C8243 H8217 0.950 . S
C8243 C8242 1.414 . S
C8243 C8244 1.374 . S
C8244 H8218 0.950 . S
C8244 C8240 1.385 . S
C8244 C8243 1.374 . S
C8245 C8242 1.499 . S
C8245 C8246 1.373 . S
C8245 C8247 1.389 . S
C8246 H8219 0.950 . S
C8246 C8232 1.377 . S
C8246 C8245 1.373 . S
C8247 C8231 1.377 . S
C8247 C8245 1.389 . S
C8247 C8248 1.524 . S
C8248 C8247 1.524 . S
C8248 C8249 1.397 . S
C8248 C8253 1.363 . S
C8249 H8220 0.950 . S
C8249 C8248 1.397 . S
C8249 C8250 1.334 . S
C8250 H8221 0.950 . S
C8250 C8249 1.334 . S
C8250 C8251 1.287 . S
C8251 C8250 1.287 . S
C8251 C8252 1.524 . S
C8251 H8254 0.999 . S
C8252 H8222 0.950 . S
C8252 C8251 1.524 . S
C8252 C8253 1.415 . S
C8253 H8223 0.950 . S
C8253 C8248 1.363 . S
C8253 C8252 1.415 . S
H8254 C8251 0.999 . S
H8255 C8236 0.913 . S
C3475 C665 1.856 . S
C3490 C2168 1.881 . S
C3525 C381 1.749 . S
C3540 C2270 1.738 . S
C3575 C460 1.747 . S
C3590 C2336 1.779 . S
C3640 C2422 1.486 . S
C3625 C585 1.612 . S
C3675 C108 1.612 . S
C3690 C2506 1.486 . S
C3740 C2588 1.779 . S
C3725 C196 1.747 . S
C3790 C2690 1.737 . S
C3775 C313 1.749 . S
C3825 C49 1.856 . S
C3840 C2756 1.882 . S
C3890 C2186 1.356 . S
C3875 C1457 1.390 . S
C3925 C1545 0.757 . S
C3940 C2254 0.754 . S
C3990 C2354 0.968 . S
C3975 C1721 0.978 . S
C4040 C2420 1.569 . S
C4025 C1113 1.556 . S
C4075 C1428 1.556 . S
C4090 C2504 1.569 . S
C4140 C2606 0.968 . S
C4125 C1516 0.979 . S
C4190 C2674 0.756 . S
C4175 C1692 0.757 . S
C4240 C2774 1.356 . S
C4225 C1085 1.390 . S
C4290 C2170 0.795 . S
C4275 C988 0.805 . S
C4325 C1817 1.646 . S
C4340 C2858 1.624 . S
C4390 C2926 1.232 . S
C4375 C2081 1.310 . S
C4440 C3008 0.732 . S
C4425 C1993 0.733 . S
C4475 C761 0.805 . S
C4490 C2758 0.796 . S
C4525 C821 1.310 . S
C4540 C2338 1.232 . S
C4575 C2053 1.647 . S
C4590 C3110 1.624 . S
C4640 C3176 0.733 . S
C4625 C1868 0.733 . S
C4690 C2179 1.877 . S
C4675 C372 1.853 . S
C4740 C3183 1.734 . S
C4725 C645 1.747 . S
C4775 C577 1.742 . S
C4790 C2347 1.773 . S
C4825 C497 1.609 . S
C4840 C3105 1.481 . S
C4890 C2517 1.482 . S
C4875 C57 1.609 . S
C4925 C293 1.742 . S
C4940 C2935 1.773 . S
C4990 C2679 1.734 1_556 S
C4975 C205 1.743 . S
C5040 C3271 1.877 . S
C5025 C145 1.853 . S
C5090 C2175 1.351 . S
C5075 C909 1.385 . S
C5140 C3189 0.751 . S
C5125 C1956 0.753 . S
C5175 C724 0.974 . S
C5190 C2343 0.965 . S
C5225 C1780 1.553 . S
C5240 C3103 1.564 . S
C5275 C937 1.552 . S
C5290 C2515 1.564 . S
C5340 C2931 0.965 . S
C5325 C1985 0.974 . S
C5375 C753 0.753 . S
C5390 C2685 0.751 . S
C5425 C1809 1.385 . S
C5440 C3267 1.351 . S
C5475 C1173 0.802 . S
C5490 C2181 0.791 . S
C5525 C1105 1.641 . S
C5540 C2847 1.621 . S
C5575 C1633 1.308 . S
C5590 C2601 1.228 . S
C5625 C1553 0.727 . S
C5640 C3019 0.726 . S
C5690 C3273 0.793 . S
C5675 C1729 0.801 . S
C5725 C1340 1.308 . S
C5740 C2349 1.229 . S
C5790 C2427 1.621 . S
C5775 C1604 1.641 . S
C5840 C2263 0.727 . S
C5825 C1252 0.728 . S
C5875 C489 1.856 . S
C5890 C3344 1.882 . S
C5940 C3194 1.738 . S
C5925 C557 1.749 . S
C5975 C636 1.747 . S
C5990 C3428 1.780 . S
C6025 C409 1.612 . S
C6040 C3094 1.485 . S
C6075 C284 1.612 . S
C6090 C2842 1.484 . S
C6140 C2924 1.780 . S
C6125 C20 1.747 . S
C6190 C3026 1.738 . S
C6175 C137 1.749 . S
C6240 C3260 1.882 . S
C6225 C225 1.856 . S
C6290 C3362 1.356 . S
C6275 C1641 1.390 . S
C6325 C1193 0.757 . S
C6340 C3178 0.756 . S
C6390 C3446 0.968 . S
C6375 C1289 0.979 . S
C6440 C3092 1.569 . S
C6425 C1377 1.557 . S
C6490 C2840 1.568 . S
C6475 C1613 1.556 . S
C6525 C1164 0.979 . S
C6540 C2942 0.968 . S
C6590 C3010 0.754 . S
C6575 C1261 0.757 . S
C6625 C1349 1.390 . S
C6640 C3278 1.356 . S
C6690 C3346 0.794 . S
C6675 C1965 0.805 . S
C6725 C849 1.647 . S
C6740 C2522 1.624 . S
C6790 C2590 1.232 . S
C6775 C929 1.310 . S
C6840 C2672 0.732 . S
C6825 C1017 0.733 . S
C6890 C3262 0.794 . S
C6875 C1897 0.805 . S
C6925 C1789 1.310 . S
C6940 C3430 1.231 . S
C6990 C2438 1.624 . S
C6975 C900 1.647 . S
C7040 C2252 0.732 . S
C7025 C733 0.733 . S
C7075 C548 1.853 . S
C7090 C3355 1.876 . S
C7140 C2259 1.734 . S
C7125 C469 1.743 . S
C7175 C401 1.742 . S
C7190 C3439 1.773 . S
C7225 C673 1.609 . S
C7240 C2433 1.478 . S
C7275 C233 1.609 . S
C7290 C2853 1.481 . S
C7340 C2599 1.773 . S
C7325 C117 1.742 . S
C7375 C29 1.742 . S
C7390 C3015 1.734 . S
C7425 C321 1.853 . S
C7440 C2767 1.877 . S
C7490 C3351 1.351 . S
C7475 C2044 1.386 . S
C7525 C997 0.752 . S
C7540 C2265 0.748 . S
C7590 C3435 0.998 . S
C7575 C1877 0.974 . S
C7625 C812 1.552 . S
C7640 C2431 1.563 . S
C7675 C2073 1.552 . S
C7690 C2851 1.563 . S
C7740 C2595 0.965 . S
C7725 C1025 0.982 . S
C7775 C1905 0.753 . S
C7790 C3021 0.751 . S
C7840 C2763 1.350 . S
C7825 C841 1.385 . S
C7890 C3357 0.793 . S
C7875 C1525 0.801 . S
C7940 C2511 1.621 1_565 S
C7925 C1369 1.641 . S
C7975 C1465 1.308 . S
C7990 C2937 1.228 . S
C8040 C2683 0.727 . S
C8025 C1201 0.728 . S
C8075 C1281 0.802 . S
C8090 C2769 0.791 . S
C8125 C1076 1.308 . S
C8140 C3441 1.228 . S
C8190 C3099 1.621 . S
C8175 C1437 1.642 . S
C8240 C3187 0.726 . S
C8225 C1701 0.727 . S
