# Generated by pormake.
# Topology ocu, (6,8)-cn, num edge types: 1
# Building blocks:
#     Node 0, Type 0, BuildingBlock: FUNLAD_clean_sbu_0, # of connection points: 6
#     Node 1, Type 0, BuildingBlock: FUNLAD_clean_sbu_0, # of connection points: 6
#     Node 2, Type 0, BuildingBlock: FUNLAD_clean_sbu_0, # of connection points: 6
#     Node 3, Type 0, BuildingBlock: FUNLAD_clean_sbu_0, # of connection points: 6
#     Node 4, Type 0, BuildingBlock: FUNLAD_clean_sbu_0, # of connection points: 6
#     Node 5, Type 0, BuildingBlock: FUNLAD_clean_sbu_0, # of connection points: 6
#     Node 6, Type 0, BuildingBlock: FUNLAD_clean_sbu_0, # of connection points: 6
#     Node 7, Type 0, BuildingBlock: FUNLAD_clean_sbu_0, # of connection points: 6
#     Node 8, Type 1, BuildingBlock: GIZVER_clean_sbu_0, # of connection points: 8
#     Node 9, Type 1, BuildingBlock: GIZVER_clean_sbu_0, # of connection points: 8
#     Node 10, Type 1, BuildingBlock: GIZVER_clean_sbu_0, # of connection points: 8
#     Node 11, Type 1, BuildingBlock: GIZVER_clean_sbu_0, # of connection points: 8
#     Node 12, Type 1, BuildingBlock: GIZVER_clean_sbu_0, # of connection points: 8
#     Node 13, Type 1, BuildingBlock: GIZVER_clean_sbu_0, # of connection points: 8
#     Edge 14, Type (0, 1), BuildingBlock: XIVTED_clean_linker_0, # of connection points: 2
#     Edge 15, Type (0, 1), BuildingBlock: XIVTED_clean_linker_0, # of connection points: 2
#     Edge 16, Type (0, 1), BuildingBlock: XIVTED_clean_linker_0, # of connection points: 2
#     Edge 17, Type (0, 1), BuildingBlock: XIVTED_clean_linker_0, # of connection points: 2
#     Edge 18, Type (0, 1), BuildingBlock: XIVTED_clean_linker_0, # of connection points: 2
#     Edge 19, Type (0, 1), BuildingBlock: XIVTED_clean_linker_0, # of connection points: 2
#     Edge 20, Type (0, 1), BuildingBlock: XIVTED_clean_linker_0, # of connection points: 2
#     Edge 21, Type (0, 1), BuildingBlock: XIVTED_clean_linker_0, # of connection points: 2
#     Edge 22, Type (0, 1), BuildingBlock: XIVTED_clean_linker_0, # of connection points: 2
#     Edge 23, Type (0, 1), BuildingBlock: XIVTED_clean_linker_0, # of connection points: 2
#     Edge 24, Type (0, 1), BuildingBlock: XIVTED_clean_linker_0, # of connection points: 2
#     Edge 25, Type (0, 1), BuildingBlock: XIVTED_clean_linker_0, # of connection points: 2
#     Edge 26, Type (0, 1), BuildingBlock: XIVTED_clean_linker_0, # of connection points: 2
#     Edge 27, Type (0, 1), BuildingBlock: XIVTED_clean_linker_0, # of connection points: 2
#     Edge 28, Type (0, 1), BuildingBlock: XIVTED_clean_linker_0, # of connection points: 2
#     Edge 29, Type (0, 1), BuildingBlock: XIVTED_clean_linker_0, # of connection points: 2
#     Edge 30, Type (0, 1), BuildingBlock: XIVTED_clean_linker_0, # of connection points: 2
#     Edge 31, Type (0, 1), BuildingBlock: XIVTED_clean_linker_0, # of connection points: 2
#     Edge 32, Type (0, 1), BuildingBlock: XIVTED_clean_linker_0, # of connection points: 2
#     Edge 33, Type (0, 1), BuildingBlock: XIVTED_clean_linker_0, # of connection points: 2
#     Edge 34, Type (0, 1), BuildingBlock: XIVTED_clean_linker_0, # of connection points: 2
#     Edge 35, Type (0, 1), BuildingBlock: XIVTED_clean_linker_0, # of connection points: 2
#     Edge 36, Type (0, 1), BuildingBlock: XIVTED_clean_linker_0, # of connection points: 2
#     Edge 37, Type (0, 1), BuildingBlock: XIVTED_clean_linker_0, # of connection points: 2
#     Edge 38, Type (0, 1), BuildingBlock: XIVTED_clean_linker_0, # of connection points: 2
#     Edge 39, Type (0, 1), BuildingBlock: XIVTED_clean_linker_0, # of connection points: 2
#     Edge 40, Type (0, 1), BuildingBlock: XIVTED_clean_linker_0, # of connection points: 2
#     Edge 41, Type (0, 1), BuildingBlock: XIVTED_clean_linker_0, # of connection points: 2
#     Edge 42, Type (0, 1), BuildingBlock: XIVTED_clean_linker_0, # of connection points: 2
#     Edge 43, Type (0, 1), BuildingBlock: XIVTED_clean_linker_0, # of connection points: 2
#     Edge 44, Type (0, 1), BuildingBlock: XIVTED_clean_linker_0, # of connection points: 2
#     Edge 45, Type (0, 1), BuildingBlock: XIVTED_clean_linker_0, # of connection points: 2
#     Edge 46, Type (0, 1), BuildingBlock: XIVTED_clean_linker_0, # of connection points: 2
#     Edge 47, Type (0, 1), BuildingBlock: XIVTED_clean_linker_0, # of connection points: 2
#     Edge 48, Type (0, 1), BuildingBlock: XIVTED_clean_linker_0, # of connection points: 2
#     Edge 49, Type (0, 1), BuildingBlock: XIVTED_clean_linker_0, # of connection points: 2
#     Edge 50, Type (0, 1), BuildingBlock: XIVTED_clean_linker_0, # of connection points: 2
#     Edge 51, Type (0, 1), BuildingBlock: XIVTED_clean_linker_0, # of connection points: 2
#     Edge 52, Type (0, 1), BuildingBlock: XIVTED_clean_linker_0, # of connection points: 2
#     Edge 53, Type (0, 1), BuildingBlock: XIVTED_clean_linker_0, # of connection points: 2
#     Edge 54, Type (0, 1), BuildingBlock: XIVTED_clean_linker_0, # of connection points: 2
#     Edge 55, Type (0, 1), BuildingBlock: XIVTED_clean_linker_0, # of connection points: 2
#     Edge 56, Type (0, 1), BuildingBlock: XIVTED_clean_linker_0, # of connection points: 2
#     Edge 57, Type (0, 1), BuildingBlock: XIVTED_clean_linker_0, # of connection points: 2
#     Edge 58, Type (0, 1), BuildingBlock: XIVTED_clean_linker_0, # of connection points: 2
#     Edge 59, Type (0, 1), BuildingBlock: XIVTED_clean_linker_0, # of connection points: 2
#     Edge 60, Type (0, 1), BuildingBlock: XIVTED_clean_linker_0, # of connection points: 2
#     Edge 61, Type (0, 1), BuildingBlock: XIVTED_clean_linker_0, # of connection points: 2
# Relax obj value: 0.239
# Max RMSD: 0.291
# Mean RMSD: 0.224
data_MOF--net-ocu--node1-FUNLAD_clean_sbu_0--node2-GIZVER_clean_sbu_0--edge1-XIVTED_clean_linker_0
_symmetry_space_group_name_H-M    P1
_symmetry_Int_Tables_number       1
_symmetry_cell_setting            triclinic
loop_
_symmetry_equiv_pos_as_xyz
'x, y, z'
_cell_length_a     42.206756
_cell_length_b     43.888184
_cell_length_c     32.019974
_cell_angle_alpha  83.352215
_cell_angle_beta   84.819069
_cell_angle_gamma 94.117718
loop_
_atom_site_label
_atom_site_type_symbol
_atom_site_fract_x
_atom_site_fract_y
_atom_site_fract_z
_atom_type_partial_charge
C0 C 0.22004 0.28969 0.31282 0.0
N1 N 0.20348 0.20872 0.25668 0.0
C2 C 0.19142 0.19168 0.29354 0.0
C3 C 0.17079 0.16558 0.29296 0.0
C4 C 0.16225 0.15738 0.25417 0.0
C5 C 0.17402 0.17584 0.21672 0.0
C6 C 0.19511 0.20144 0.21868 0.0
Zn7 Zn 0.23765 0.24332 0.25728 0.0
C8 C 0.23054 0.29559 0.19158 0.0
N9 N 0.3115 0.314 0.25352 0.0
C10 C 0.32015 0.32139 0.29133 0.0
C11 C 0.32425 0.33023 0.2164 0.0
C12 C 0.34624 0.35539 0.21643 0.0
C13 C 0.35545 0.36352 0.25497 0.0
C14 C 0.34259 0.34606 0.29277 0.0
Zn15 Zn 0.27708 0.27959 0.25317 0.0
O16 O 0.20873 0.26456 0.30163 0.0
C17 C 0.28456 0.22778 0.31902 0.0
O18 O 0.24814 0.30039 0.29819 0.0
H19 H 0.31709 0.32385 0.18679 0.0
H20 H 0.19835 0.19795 0.3233 0.0
H21 H 0.30936 0.30838 0.32051 0.0
O22 O 0.25837 0.21741 0.30714 0.0
O23 O 0.29747 0.25364 0.30163 0.0
H24 H 0.20541 0.21505 0.18969 0.0
O25 O 0.30574 0.25824 0.20764 0.0
O26 O 0.26622 0.2224 0.21315 0.0
O27 O 0.25646 0.30572 0.20428 0.0
O28 O 0.21754 0.26947 0.20801 0.0
C29 C 0.29398 0.23299 0.19724 0.0
H30 H 0.16155 0.15192 0.3225 0.0
H31 H 0.16764 0.17006 0.1864 0.0
H32 H 0.35626 0.36819 0.18662 0.0
H33 H 0.3494 0.35177 0.32292 0.0
C34 C 0.71822 0.29855 0.21783 0.0
N35 N 0.75241 0.21939 0.17508 0.0
C36 C 0.74531 0.23268 0.13688 0.0
C37 C 0.72858 0.21534 0.11063 0.0
C38 C 0.71882 0.18409 0.12397 0.0
C39 C 0.72915 0.1705 0.16178 0.0
C40 C 0.74602 0.18859 0.18682 0.0
Zn41 Zn 0.76138 0.24591 0.22246 0.0
C42 C 0.81055 0.2972 0.20308 0.0
N43 N 0.77043 0.2985 0.32572 0.0
C44 C 0.75108 0.31642 0.34686 0.0
C45 C 0.80219 0.29939 0.33071 0.0
C46 C 0.81573 0.31847 0.35693 0.0
C47 C 0.79688 0.33762 0.37867 0.0
C48 C 0.76396 0.33641 0.37365 0.0
Zn49 Zn 0.75926 0.27238 0.27819 0.0
O50 O 0.72814 0.27597 0.20045 0.0
C51 C 0.70954 0.22182 0.29747 0.0
O52 O 0.7279 0.30416 0.25295 0.0
H53 H 0.81796 0.28652 0.3125 0.0
H54 H 0.75038 0.25722 0.12814 0.0
H55 H 0.72605 0.31608 0.34188 0.0
O56 O 0.72319 0.21826 0.26142 0.0
O57 O 0.71936 0.24473 0.31547 0.0
H58 H 0.75141 0.17845 0.21751 0.0
O59 O 0.78997 0.23982 0.30188 0.0
O60 O 0.79478 0.21549 0.24597 0.0
O61 O 0.79827 0.29927 0.24023 0.0
O62 O 0.79972 0.27535 0.18389 0.0
C63 C 0.80198 0.21894 0.28293 0.0
H64 H 0.72188 0.22674 0.0813 0.0
H65 H 0.7221 0.14669 0.17386 0.0
H66 H 0.84133 0.31929 0.35822 0.0
H67 H 0.74854 0.35105 0.38958 0.0
C68 C 0.77781 0.72325 0.31726 0.0
N69 N 0.81618 0.8089 0.26239 0.0
C70 C 0.81726 0.81091 0.30435 0.0
C71 C 0.84385 0.82478 0.31901 0.0
C72 C 0.86982 0.83711 0.29043 0.0
C73 C 0.86792 0.83625 0.24698 0.0
C74 C 0.84067 0.82151 0.2335 0.0
Zn75 Zn 0.77821 0.78059 0.2506 0.0
C76 C 0.79541 0.73346 0.19672 0.0
N77 N 0.7 0.71609 0.24413 0.0
C78 C 0.67676 0.70189 0.27374 0.0
C79 C 0.69828 0.71429 0.20224 0.0
C80 C 0.67223 0.69887 0.18843 0.0
C81 C 0.64758 0.68468 0.21782 0.0
C82 C 0.65015 0.68552 0.26112 0.0
Zn83 Zn 0.73759 0.74489 0.25542 0.0
O84 O 0.79138 0.74874 0.29944 0.0
C85 C 0.71973 0.79177 0.30893 0.0
O86 O 0.75116 0.7136 0.30578 0.0
H87 H 0.71679 0.72563 0.17898 0.0
H88 H 0.798 0.8005 0.32715 0.0
H89 H 0.67852 0.70378 0.30684 0.0
O90 O 0.74798 0.80187 0.29422 0.0
O91 O 0.70803 0.76655 0.29847 0.0
H92 H 0.83952 0.81931 0.20035 0.0
O93 O 0.72469 0.77689 0.20552 0.0
O94 O 0.76469 0.81221 0.20137 0.0
O95 O 0.7675 0.72336 0.21268 0.0
O96 O 0.80739 0.75891 0.20627 0.0
C97 C 0.73841 0.80269 0.18878 0.0
H98 H 0.8442 0.82562 0.35267 0.0
H99 H 0.88756 0.84594 0.22409 0.0
H100 H 0.67135 0.69808 0.15484 0.0
H101 H 0.63156 0.6744 0.28459 0.0
C102 C 0.21719 0.80023 0.27555 0.0
N103 N 0.2962 0.77684 0.33899 0.0
C104 C 0.29518 0.80781 0.33932 0.0
C105 C 0.31132 0.82334 0.36741 0.0
C106 C 0.33001 0.80744 0.39489 0.0
C107 C 0.33145 0.77559 0.39408 0.0
C108 C 0.31389 0.76051 0.36588 0.0
Zn109 Zn 0.2738 0.76068 0.28945 0.0
C110 C 0.22114 0.71277 0.30903 0.0
N111 N 0.22766 0.74235 0.18067 0.0
C112 C 0.21103 0.75923 0.15309 0.0
C113 C 0.22722 0.71122 0.18139 0.0
C114 C 0.20946 0.69582 0.15481 0.0
C115 C 0.19126 0.71219 0.12694 0.0
C116 C 0.19245 0.74447 0.12578 0.0
Zn117 Zn 0.24974 0.75815 0.22999 0.0
O118 O 0.23845 0.79156 0.29876 0.0
C119 C 0.30167 0.80634 0.21028 0.0
O120 O 0.21448 0.78916 0.24099 0.0
H121 H 0.23912 0.69765 0.20448 0.0
H122 H 0.28304 0.82123 0.31637 0.0
H123 H 0.21108 0.78385 0.15345 0.0
O124 O 0.30324 0.79588 0.24873 0.0
O125 O 0.27987 0.79453 0.19045 0.0
H126 H 0.31531 0.73613 0.36452 0.0
O127 O 0.28526 0.72743 0.22014 0.0
O128 O 0.30893 0.72911 0.27829 0.0
O129 O 0.22044 0.72289 0.27032 0.0
O130 O 0.24263 0.72459 0.32942 0.0
C131 C 0.30642 0.71843 0.24335 0.0
H132 H 0.31038 0.84804 0.36623 0.0
H133 H 0.34617 0.7627 0.41452 0.0
H134 H 0.20858 0.67092 0.15811 0.0
H135 H 0.17863 0.75802 0.10482 0.0
C136 C 0.22112 0.80252 0.72722 0.0
N137 N 0.2485 0.72122 0.68251 0.0
C138 C 0.21701 0.72223 0.67642 0.0
C139 C 0.20166 0.70078 0.65507 0.0
C140 C 0.21824 0.67705 0.64054 0.0
C141 C 0.25118 0.67721 0.64448 0.0
C142 C 0.26598 0.6997 0.66598 0.0
Zn143 Zn 0.26176 0.74684 0.72954 0.0
C144 C 0.31246 0.79585 0.71012 0.0
N145 N 0.27381 0.79782 0.83391 0.0
C146 C 0.25535 0.81625 0.85553 0.0
C147 C 0.30545 0.79708 0.83927 0.0
C148 C 0.31949 0.8143 0.86735 0.0
C149 C 0.30144 0.83368 0.88959 0.0
C150 C 0.26893 0.83483 0.8835 0.0
Zn151 Zn 0.26054 0.7729 0.78593 0.0
O152 O 0.23179 0.7809 0.70849 0.0
C153 C 0.21 0.72354 0.80519 0.0
O154 O 0.22934 0.80625 0.76371 0.0
H155 H 0.32062 0.7841 0.82039 0.0
H156 H 0.2025 0.73783 0.69141 0.0
H157 H 0.2305 0.81731 0.85016 0.0
O158 O 0.22253 0.72102 0.76826 0.0
O159 O 0.22106 0.7453 0.82443 0.0
H160 H 0.29071 0.69856 0.67196 0.0
O161 O 0.29085 0.7392 0.80672 0.0
O162 O 0.29231 0.71331 0.75212 0.0
O163 O 0.29939 0.79893 0.74664 0.0
O164 O 0.30175 0.7737 0.69132 0.0
C165 C 0.30092 0.71721 0.78829 0.0
H166 H 0.17631 0.7016 0.65241 0.0
H167 H 0.26474 0.6591 0.63367 0.0
H168 H 0.34482 0.81349 0.87025 0.0
H169 H 0.25441 0.85002 0.89976 0.0
C170 C 0.27896 0.21868 0.81696 0.0
N171 N 0.31815 0.30498 0.76213 0.0
C172 C 0.31968 0.30669 0.80408 0.0
C173 C 0.34603 0.32134 0.81827 0.0
C174 C 0.37117 0.33488 0.78919 0.0
C175 C 0.36884 0.3342 0.74582 0.0
C176 C 0.34192 0.31858 0.73282 0.0
Zn177 Zn 0.28025 0.27662 0.75055 0.0
C178 C 0.29777 0.2295 0.69677 0.0
N179 N 0.2014 0.21311 0.74361 0.0
C180 C 0.17755 0.19997 0.7731 0.0
C181 C 0.19964 0.21138 0.70172 0.0
C182 C 0.17293 0.19721 0.68776 0.0
C183 C 0.14766 0.18421 0.71703 0.0
C184 C 0.15026 0.18484 0.76035 0.0
Zn185 Zn 0.23951 0.24116 0.75498 0.0
O186 O 0.29282 0.24447 0.80047 0.0
C187 C 0.22248 0.28827 0.80915 0.0
O188 O 0.25276 0.20932 0.80407 0.0
H189 H 0.21856 0.22204 0.67854 0.0
H190 H 0.30082 0.29575 0.82713 0.0
H191 H 0.17932 0.20188 0.80621 0.0
O192 O 0.25042 0.29841 0.79331 0.0
O193 O 0.21056 0.26287 0.79939 0.0
H194 H 0.34035 0.3167 0.69966 0.0
O195 O 0.22651 0.27328 0.70621 0.0
O196 O 0.26695 0.30818 0.70012 0.0
O197 O 0.26938 0.21967 0.71118 0.0
O198 O 0.30966 0.25457 0.70748 0.0
C199 C 0.24025 0.29875 0.68853 0.0
H200 H 0.34678 0.32202 0.8519 0.0
H201 H 0.38785 0.34485 0.7226 0.0
H202 H 0.17199 0.1965 0.65416 0.0
H203 H 0.13118 0.17455 0.78371 0.0
C204 C 0.7094 0.29919 0.76247 0.0
N205 N 0.78968 0.27535 0.82431 0.0
C206 C 0.78644 0.30548 0.8291 0.0
C207 C 0.80698 0.32157 0.85172 0.0
C208 C 0.83225 0.30725 0.86871 0.0
C209 C 0.83415 0.27563 0.86623 0.0
C210 C 0.81242 0.25997 0.84362 0.0
Zn211 Zn 0.76662 0.26011 0.77487 0.0
C212 C 0.71536 0.21155 0.79334 0.0
N213 N 0.72052 0.2428 0.66504 0.0
C214 C 0.70312 0.25956 0.63822 0.0
C215 C 0.7213 0.21186 0.66423 0.0
C216 C 0.70517 0.19677 0.63574 0.0
C217 C 0.68676 0.2131 0.60833 0.0
C218 C 0.68558 0.24493 0.60961 0.0
Zn219 Zn 0.74293 0.25824 0.7149 0.0
O220 O 0.7302 0.28976 0.78597 0.0
C221 C 0.79465 0.30681 0.69708 0.0
O222 O 0.70768 0.28948 0.72679 0.0
H223 H 0.73325 0.19814 0.68709 0.0
H224 H 0.76989 0.31845 0.81236 0.0
H225 H 0.70193 0.28392 0.63995 0.0
O226 O 0.79496 0.29647 0.73579 0.0
O227 O 0.77389 0.29474 0.67584 0.0
H228 H 0.8153 0.23627 0.83901 0.0
O229 O 0.77824 0.22762 0.70439 0.0
O230 O 0.80242 0.22984 0.76192 0.0
O231 O 0.71369 0.22264 0.75514 0.0
O232 O 0.73723 0.22288 0.81349 0.0
C233 C 0.79973 0.21901 0.72721 0.0
H234 H 0.80427 0.34577 0.85346 0.0
H235 H 0.85339 0.26371 0.87903 0.0
H236 H 0.70589 0.17207 0.63654 0.0
H237 H 0.67107 0.25813 0.58922 0.0
C238 C 0.72047 0.78639 0.80911 0.0
N239 N 0.70333 0.70517 0.7531 0.0
C240 C 0.69113 0.68856 0.79022 0.0
C241 C 0.6694 0.66318 0.79025 0.0
C242 C 0.65988 0.65526 0.75178 0.0
C243 C 0.67208 0.6731 0.71402 0.0
C244 C 0.69431 0.69797 0.71536 0.0
Zn245 Zn 0.73767 0.73973 0.75322 0.0
C246 C 0.72992 0.79154 0.68732 0.0
N247 N 0.81107 0.81091 0.74926 0.0
C248 C 0.81951 0.8183 0.78718 0.0
C249 C 0.82337 0.82764 0.71228 0.0
C250 C 0.8445 0.85343 0.71261 0.0
C251 C 0.85328 0.86164 0.75129 0.0
C252 C 0.8411 0.84358 0.78889 0.0
Zn253 Zn 0.77689 0.77624 0.74898 0.0
O254 O 0.70914 0.76087 0.79901 0.0
C255 C 0.78455 0.72414 0.81465 0.0
O256 O 0.74807 0.79737 0.79294 0.0
H257 H 0.81638 0.82128 0.68259 0.0
H258 H 0.69856 0.69478 0.81977 0.0
H259 H 0.80902 0.80496 0.81626 0.0
O260 O 0.75883 0.71357 0.80186 0.0
O261 O 0.79702 0.75049 0.79843 0.0
H262 H 0.70468 0.71125 0.68617 0.0
O263 O 0.80599 0.75466 0.70484 0.0
O264 O 0.76638 0.71909 0.70791 0.0
O265 O 0.75623 0.80182 0.69892 0.0
O266 O 0.71691 0.76578 0.70497 0.0
C267 C 0.79456 0.72963 0.69347 0.0
H268 H 0.6599 0.64997 0.82001 0.0
H269 H 0.66498 0.66751 0.68394 0.0
H270 H 0.85402 0.86678 0.68296 0.0
H271 H 0.84762 0.84937 0.81914 0.0
Co272 Co 0.05159 0.94714 0.48239 0.0
Co273 Co 0.06704 0.97742 0.54119 0.0
Co274 Co 0.00998 1.00858 0.50438 0.0
O275 O 0.05055 0.98926 0.49194 0.0
H276 H 0.0661 1.00288 0.47334 0.0
O277 O 0.96944 0.02805 0.51684 0.0
Co278 Co 0.96878 0.07016 0.52702 0.0
Co279 Co 0.95285 0.04038 0.46775 0.0
H280 H 0.95385 0.01442 0.53538 0.0
O281 O 0.10909 0.97391 0.54247 0.0
O282 O 0.06991 0.93609 0.53834 0.0
O283 O 0.04331 0.98458 0.59303 0.0
O284 O 0.99871 0.98416 0.56129 0.0
O285 O 0.03412 0.03955 0.53126 0.0
O286 O 0.96506 0.10774 0.54074 0.0
O287 O 0.92942 0.06616 0.55421 0.0
O288 O 0.01125 0.07892 0.50243 0.0
O289 O 0.02119 0.03301 0.4474 0.0
O290 O 0.97641 0.033 0.41601 0.0
O291 O 0.95111 0.08186 0.47111 0.0
O292 O 0.9109 0.04537 0.46609 0.0
C293 C 0.08215 0.92287 0.44985 0.0
C294 C 0.98834 0.94863 0.48383 0.0
C295 C 0.0132 0.98389 0.59461 0.0
C296 C 0.09833 0.94501 0.54852 0.0
C297 C 0.93811 0.0945 0.55941 0.0
C298 C 0.03213 0.06836 0.52521 0.0
C299 C 1.00652 0.03343 0.4142 0.0
C300 C 0.92247 0.07403 0.46088 0.0
O301 O 0.05546 0.90948 0.46917 0.0
O302 O 0.0908 0.95126 0.45481 0.0
O303 O 0.98596 0.97741 0.4776 0.0
O304 O 0.00913 0.9384 0.5071 0.0
Co305 Co 0.54791 0.94647 0.99227 0.0
Co306 Co 0.54497 0.96587 0.0646 0.0
Co307 Co 0.5079 0.01035 0.00394 0.0
O308 O 0.54592 0.98646 0.0111 0.0
H309 H 0.56577 0.99919 0.00408 0.0
O310 O 0.46982 0.03413 0.99652 0.0
Co311 Co 0.46773 0.07426 0.01458 0.0
Co312 Co 0.47101 0.05427 0.94251 0.0
H313 H 0.44999 0.0214 0.00363 0.0
O314 O 0.58269 0.96271 0.08641 0.0
O315 O 0.55706 0.92858 0.05024 0.0
O316 O 0.50503 0.95845 0.09872 0.0
O317 O 0.47822 0.98479 0.05192 0.0
O318 O 0.52462 0.03972 0.04167 0.0
O319 O 0.46333 0.1103 0.03216 0.0
O320 O 0.42487 0.07221 0.03119 0.0
O321 O 0.51271 0.08173 1.00267 0.0
O322 O 0.53756 0.03583 0.95615 0.0
O323 O 0.51115 0.06177 0.90855 0.0
O324 O 0.45895 0.09167 0.95631 0.0
O325 O 0.43334 0.05742 0.92038 0.0
C326 C 0.5821 0.92127 0.96596 0.0
C327 C 0.48437 0.9529 0.98049 0.0
C328 C 0.47891 0.96625 0.08589 0.0
C329 C 0.58148 0.93681 0.07032 0.0
C330 C 0.4336 0.09983 0.03996 0.0
C331 C 0.53075 0.06825 0.02763 0.0
C332 C 0.53714 0.05414 0.92196 0.0
C333 C 0.43459 0.08342 0.9362 0.0
O334 O 0.55242 0.91062 0.97387 0.0
O335 O 0.59072 0.94875 0.97532 0.0
O336 O 0.49136 0.9812 0.96602 0.0
O337 O 0.5027 0.93877 0.00444 0.0
Co338 Co 0.05243 0.4494 0.99317 0.0
Co339 Co 0.04893 0.4709 0.06528 0.0
Co340 Co 0.00908 0.51103 1.00253 0.0
O341 O 0.04902 0.48984 0.01021 0.0
H342 H 0.06819 0.50341 1.00206 0.0
O343 O 0.96892 0.532 0.99494 0.0
Co344 Co 0.96467 0.57216 0.01234 0.0
Co345 Co 0.96911 0.55123 0.94011 0.0
H346 H 0.94986 0.51821 1.00271 0.0
O347 O 0.08747 0.46626 0.08656 0.0
O348 O 0.06009 0.43306 0.05146 0.0
O349 O 1.00874 0.46201 0.09964 0.0
O350 O 0.98085 0.48309 0.04968 0.0
O351 O 0.02333 0.54133 0.04103 0.0
O352 O 0.95882 0.60811 0.02911 0.0
O353 O 0.92155 0.56888 0.02877 0.0
O354 O 1.00857 0.58102 1.0003 0.0
O355 O 0.03731 0.53898 0.95549 0.0
O356 O 0.00941 0.56102 0.90626 0.0
O357 O 0.9566 0.58856 0.95409 0.0
O358 O 0.93068 0.55465 0.91841 0.0
C359 C 0.08736 0.42425 0.9685 0.0
C360 C 0.99153 0.45214 0.97698 0.0
C361 C 0.98231 0.46595 0.08471 0.0
C362 C 0.08486 0.44022 0.07105 0.0
C363 C 0.92939 0.59683 0.03716 0.0
C364 C 0.02587 0.57023 0.02805 0.0
C365 C 0.03585 0.5566 0.9209 0.0
C366 C 0.93221 0.58063 0.9342 0.0
O367 O 0.05783 0.4132 0.97659 0.0
O368 O 0.09548 0.45212 0.97691 0.0
O369 O 0.99509 0.48096 0.96368 0.0
O370 O 1.00827 0.44104 0.00522 0.0
Co371 Co 0.55062 0.44848 0.97621 0.0
Co372 Co 0.56864 0.4773 0.03535 0.0
Co373 Co 0.50949 0.50888 0.00495 0.0
O374 O 0.54992 0.4903 0.98821 0.0
H375 H 0.5647 0.50444 0.96919 0.0
O376 O 0.46899 0.52747 0.02152 0.0
Co377 Co 0.46844 0.56953 0.03238 0.0
Co378 Co 0.45031 0.53992 0.97393 0.0
H379 H 0.45427 0.5135 0.04085 0.0
O380 O 0.6109 0.47311 0.03332 0.0
O381 O 0.57071 0.43617 0.03013 0.0
O382 O 0.547 0.48312 0.08926 0.0
O383 O 0.50078 0.48309 0.06124 0.0
O384 O 0.53458 0.5396 0.03155 0.0
O385 O 0.46515 0.60709 0.04678 0.0
O386 O 0.42994 0.56535 0.06245 0.0
O387 O 0.50989 0.57837 0.00477 0.0
O388 O 0.51823 0.53462 0.94863 0.0
O389 O 0.47218 0.53375 0.92025 0.0
O390 O 0.4485 0.58117 0.97828 0.0
O391 O 0.40807 0.54442 0.97539 0.0
C392 C 0.58037 0.42496 0.94058 0.0
C393 C 0.48722 0.44955 0.98261 0.0
C394 C 0.51682 0.48213 0.09325 0.0
C395 C 0.59972 0.44433 0.03876 0.0
C396 C 0.43884 0.59375 0.06723 0.0
C397 C 0.5316 0.56832 0.02645 0.0
C398 C 0.50237 0.53495 0.91652 0.0
C399 C 0.41951 0.57311 0.96954 0.0
O400 O 0.55412 0.41126 0.96075 0.0
O401 O 0.58912 0.45323 0.94614 0.0
O402 O 0.48435 0.47827 0.97836 0.0
O403 O 0.5091 0.43904 0.00362 0.0
Co404 Co 0.07287 0.46832 0.50593 0.0
Co405 Co 0.04825 0.47564 0.43524 0.0
Co406 Co 1.00787 0.50982 0.50305 0.0
O407 O 0.02998 0.4723 0.49079 0.0
H408 H 0.01628 0.45346 0.49791 0.0
O409 O 0.98592 0.54749 0.51528 0.0
Co410 Co 0.94342 0.55256 0.49947 0.0
Co411 Co 0.96716 0.54413 0.57051 0.0
H412 H 0.99992 0.56617 0.50869 0.0
O413 O 0.05134 0.44021 0.41036 0.0
O414 O 0.08789 0.46298 0.44657 0.0
O415 O 0.0566 0.51619 0.40452 0.0
O416 O 0.0343 0.53976 0.45637 0.0
O417 O 0.97435 0.49816 0.46563 0.0
O418 O 0.90552 0.55905 0.48411 0.0
O419 O 0.9465 0.5945 0.48553 0.0
O420 O 0.93435 0.50992 0.50902 0.0
O421 O 0.9814 0.47995 0.54959 0.0
O422 O 0.95799 0.50352 0.60067 0.0
O423 O 0.928 0.55779 0.55886 0.0
O424 O 0.96482 0.57939 0.59585 0.0
C425 C 0.10008 0.43409 0.52816 0.0
C426 C 0.0707 0.5255 0.52579 0.0
C427 C 0.05163 0.54054 0.42107 0.0
C428 C 0.07895 0.44068 0.42535 0.0
C429 C 0.91711 0.58751 0.47749 0.0
C430 C 0.94477 0.49474 0.47989 0.0
C431 C 0.96349 0.47917 0.58442 0.0
C432 C 0.93732 0.57967 0.58062 0.0
O433 O 0.1112 0.4627 0.52083 0.0
O434 O 0.07075 0.42649 0.52043 0.0
O435 O 0.0413 0.52121 0.54069 0.0
O436 O 0.08095 0.51112 0.49569 0.0
Co437 Co 0.57457 0.97092 0.50496 0.0
Co438 Co 0.55228 0.98016 0.4335 0.0
Co439 Co 0.5084 0.01044 0.50203 0.0
O440 O 0.53266 0.97524 0.48764 0.0
H441 H 0.51945 0.95601 0.49262 0.0
O442 O 0.48401 0.04554 0.51664 0.0
Co443 Co 0.44196 0.04963 0.49958 0.0
Co444 Co 0.46425 0.04022 0.57091 0.0
H445 H 0.49714 0.06483 0.51171 0.0
O446 O 0.55552 0.946 0.40675 0.0
O447 O 0.5916 0.96733 0.44535 0.0
O448 O 0.55842 0.02094 0.40456 0.0
O449 O 0.53234 0.04274 0.45553 0.0
O450 O 0.47579 0.99792 0.46452 0.0
O451 O 0.40428 0.05641 0.48286 0.0
O452 O 0.44504 0.09133 0.48825 0.0
O453 O 0.4334 1.00589 0.50653 0.0
O454 O 0.48465 0.97812 0.5484 0.0
O455 O 0.45803 0.99923 0.59957 0.0
O456 O 0.42493 0.05321 0.55931 0.0
O457 O 0.46109 0.0742 0.59808 0.0
C458 C 0.60013 0.93546 0.52625 0.0
C459 C 0.56959 0.03091 0.52353 0.0
C460 C 0.55032 0.04472 0.42046 0.0
C461 C 0.58287 0.94585 0.42249 0.0
C462 C 0.41606 0.08488 0.47856 0.0
C463 C 0.44722 0.98977 0.48067 0.0
C464 C 0.46655 0.9757 0.58337 0.0
C465 C 0.43374 0.07454 0.58239 0.0
O466 O 0.61216 0.96385 0.52191 0.0
O467 O 0.57117 0.92923 0.51636 0.0
O468 O 0.54098 0.02291 0.53958 0.0
O469 O 0.58342 0.01463 0.49792 0.0
H470 H 0.10356 0.15416 0.22515 0.0
H471 H 0.06265 0.01051 0.39228 0.0
H472 H 0.17159 0.09859 0.2831 0.0
H473 H 0.99321 0.06863 0.34273 0.0
H474 H 0.10005 0.02952 0.33075 0.0
H475 H 0.06217 0.11155 0.24499 0.0
C476 C 0.10992 0.13253 0.24075 0.0
C477 C 0.14047 0.12986 0.2538 0.0
C478 C 0.07641 0.0377 0.33273 0.0
C479 C 0.0937 0.08163 0.27703 0.0
C480 C 0.05518 0.02696 0.36794 0.0
C481 C 0.02549 0.03904 0.37306 0.0
C482 C 0.06821 0.06149 0.30342 0.0
C483 C 0.01633 0.05941 0.34021 0.0
C484 C 0.08638 0.10827 0.25215 0.0
C485 C 0.14791 0.10155 0.27358 0.0
N486 N 0.03806 0.0708 0.30723 0.0
N487 N 0.12447 0.07867 0.28541 0.0
H488 H 0.8144 0.15998 0.27017 0.0
H489 H 0.93114 0.13739 0.45263 0.0
H490 H 0.83699 0.23151 0.34713 0.0
H491 H 0.87422 0.06246 0.41243 0.0
H492 H 0.904 0.1738 0.40667 0.0
H493 H 0.84489 0.12519 0.31358 0.0
C494 C 0.82613 0.16846 0.29578 0.0
C495 C 0.82303 0.19854 0.30527 0.0
C496 C 0.89748 0.14935 0.40818 0.0
C497 C 0.85781 0.1591 0.35483 0.0
C498 C 0.91287 0.12862 0.43442 0.0
C499 C 0.90483 0.09685 0.4366 0.0
C500 C 0.87446 0.13811 0.3834 0.0
C501 C 0.88104 0.08673 0.41214 0.0
C502 C 0.84328 0.14859 0.32071 0.0
C503 C 0.83857 0.20836 0.33899 0.0
N504 N 0.86692 0.10725 0.38636 0.0
N505 N 0.85531 0.18871 0.36256 0.0
H506 H 0.89688 0.89595 0.27138 0.0
H507 H 0.98977 0.88614 0.47938 0.0
H508 H 0.90489 0.81069 0.34977 0.0
H509 H 0.95696 0.96892 0.4167 0.0
H510 H 0.96928 0.85752 0.42441 0.0
H511 H 0.93219 0.92247 0.31475 0.0
C512 C 0.90695 0.88271 0.29689 0.0
C513 C 0.89783 0.85131 0.30747 0.0
C514 C 0.96684 0.88201 0.4228 0.0
C515 C 0.93726 0.88132 0.35778 0.0
C516 C 0.97833 0.89828 0.45423 0.0
C517 C 0.97497 0.92995 0.45292 0.0
C518 C 0.95224 0.89767 0.38979 0.0
C519 C 0.96003 0.94453 0.41941 0.0
C520 C 0.92673 0.89783 0.32198 0.0
C521 C 0.91124 0.8351 0.34105 0.0
N522 N 0.94931 0.92831 0.38932 0.0
N523 N 0.92993 0.85037 0.36551 0.0
H524 H 0.23603 0.85246 0.30609 0.0
H525 H 0.06501 0.869 0.41984 0.0
H526 H 0.15193 0.79913 0.27998 0.0
H527 H 0.14315 0.93908 0.41308 0.0
H528 H 0.09645 0.8426 0.36959 0.0
H529 H 0.20236 0.88499 0.34441 0.0
C530 C 0.21032 0.84805 0.30781 0.0
C531 C 0.19658 0.82319 0.29004 0.0
C532 C 0.10665 0.86382 0.37895 0.0
C533 C 0.15796 0.85968 0.33478 0.0
C534 C 0.08888 0.87875 0.408 0.0
C535 C 0.10165 0.90614 0.42102 0.0
C536 C 0.13755 0.87615 0.36316 0.0
C537 C 0.13248 0.91793 0.40412 0.0
C538 C 0.19114 0.86656 0.32973 0.0
C539 C 0.16328 0.81829 0.29306 0.0
N540 N 0.14948 0.90273 0.37628 0.0
N541 N 0.14499 0.83611 0.31578 0.0
H542 H 0.18049 0.78703 0.6707 0.0
H543 H 0.14973 0.95899 0.59079 0.0
H544 H 0.21328 0.86378 0.73287 0.0
H545 H 0.08862 0.88169 0.56462 0.0
H546 H 0.177 0.92426 0.6375 0.0
H547 H 0.14952 0.821 0.62785 0.0
C548 C 0.18097 0.81105 0.67558 0.0
C549 C 0.19961 0.82266 0.70531 0.0
C550 C 0.15763 0.91489 0.62157 0.0
C551 C 0.16454 0.86179 0.65568 0.0
C552 C 0.14217 0.93464 0.59446 0.0
C553 C 0.11677 0.92326 0.57352 0.0
C554 C 0.14806 0.88334 0.62752 0.0
C555 C 0.10806 0.89148 0.58001 0.0
C556 C 0.16321 0.83039 0.65111 0.0
C557 C 0.19915 0.85391 0.71043 0.0
N558 N 0.12379 0.87258 0.60632 0.0
N559 N 0.18222 0.87253 0.6854 0.0
H560 H 0.10907 0.21008 0.66194 0.0
H561 H 0.0667 0.04791 0.58896 0.0
H562 H 0.12506 0.12398 0.73298 0.0
H563 H 0.0292 0.13036 0.53259 0.0
H564 H 0.08606 0.07605 0.64332 0.0
H565 H 0.07535 0.18219 0.61819 0.0
C566 C 0.10451 0.18532 0.66913 0.0
C567 C 0.11986 0.16913 0.70078 0.0
C568 C 0.07341 0.08805 0.61933 0.0
C569 C 0.08242 0.13716 0.65028 0.0
C570 C 0.06253 0.07204 0.58784 0.0
C571 C 0.04613 0.08674 0.55596 0.0
C572 C 0.0685 0.1193 0.61892 0.0
C573 C 0.04167 0.11809 0.5565 0.0
C574 C 0.08552 0.16943 0.64401 0.0
C575 C 0.11352 0.13719 0.70891 0.0
N576 N 0.053 0.13342 0.58742 0.0
N577 N 0.09574 0.12215 0.6832 0.0
H578 H 0.78144 0.16854 0.69216 0.0
H579 H 0.95509 0.14786 0.59081 0.0
H580 H 0.86478 0.21846 0.72698 0.0
H581 H 0.87612 0.07931 0.59279 0.0
H582 H 0.92248 0.17496 0.63901 0.0
H583 H 0.8157 0.13568 0.65549 0.0
C584 C 0.80706 0.17221 0.69256 0.0
C585 C 0.82045 0.1962 0.71237 0.0
C586 C 0.91237 0.15391 0.62908 0.0
C587 C 0.85983 0.15918 0.66968 0.0
C588 C 0.93082 0.13858 0.60122 0.0
C589 C 0.91815 0.11144 0.58744 0.0
C590 C 0.88089 0.14224 0.64282 0.0
C591 C 0.88676 0.10024 0.60243 0.0
C592 C 0.82659 0.15346 0.67165 0.0
C593 C 0.85367 0.20003 0.71219 0.0
N594 N 0.8691 0.11585 0.62906 0.0
N595 N 0.87238 0.18198 0.69043 0.0
H596 H 0.91165 0.86346 0.78134 0.0
H597 H 0.95792 1.0082 0.61642 0.0
H598 H 0.84603 0.92066 0.72091 0.0
H599 H 0.02501 0.94716 0.66553 0.0
H600 H 0.91952 0.98909 0.67687 0.0
H601 H 0.95416 0.90515 0.76229 0.0
C602 C 0.90605 0.88525 0.76532 0.0
C603 C 0.87584 0.88864 0.75144 0.0
C604 C 0.94286 0.98029 0.67507 0.0
C605 C 0.92388 0.93585 0.72924 0.0
C606 C 0.96468 0.99111 0.6405 0.0
C607 C 0.99398 0.97829 0.63553 0.0
C608 C 0.95009 0.95571 0.70384 0.0
C609 C 1.00222 0.95702 0.66799 0.0
C610 C 0.93023 0.90897 0.75439 0.0
C611 C 0.86941 0.91713 0.73111 0.0
N612 N 0.97991 0.94561 0.70031 0.0
N613 N 0.89344 0.9395 0.71985 0.0
H614 H 0.27549 0.17728 0.17264 0.0
H615 H 0.44473 0.16055 0.04763 0.0
H616 H 0.35491 0.24662 0.15782 0.0
H617 H 0.37046 0.08603 0.07312 0.0
H618 H 0.40969 0.19378 0.0815 0.0
H619 H 0.30743 0.14543 0.13058 0.0
C620 C 0.29959 0.18597 0.1603 0.0
C621 C 0.31258 0.21473 0.16902 0.0
C622 C 0.40089 0.17022 0.07971 0.0
C623 C 0.3493 0.17812 0.12073 0.0
C624 C 0.42094 0.15108 0.06032 0.0
C625 C 0.41073 0.12017 0.05797 0.0
C626 C 0.37016 0.1586 0.09716 0.0
C627 C 0.37942 0.10959 0.07446 0.0
C628 C 0.31782 0.16766 0.13632 0.0
C629 C 0.34391 0.22465 0.15206 0.0
N630 N 0.36028 0.12874 0.09365 0.0
N631 N 0.36119 0.20635 0.12889 0.0
H632 H 0.83017 0.31664 0.11814 0.0
H633 H 0.97008 0.43758 0.16627 0.0
H634 H 0.84973 0.33312 0.24386 0.0
H635 H 0.93061 0.44452 0.04626 0.0
H636 H 0.92862 0.3965 0.19378 0.0
H637 H 0.87007 0.3596 0.08922 0.0
C638 C 0.84303 0.32898 0.13963 0.0
C639 C 0.83649 0.32108 0.18357 0.0
C640 C 0.92877 0.40718 0.16153 0.0
C641 C 0.88213 0.37035 0.15071 0.0
C642 C 0.95239 0.43085 0.14584 0.0
C643 C 0.95384 0.44495 0.10392 0.0
C644 C 0.90656 0.39677 0.13502 0.0
C645 C 0.93031 0.43475 0.07893 0.0
C646 C 0.86559 0.35369 0.12313 0.0
C647 C 0.85377 0.33826 0.20981 0.0
N648 N 0.90795 0.41112 0.09464 0.0
N649 N 0.87569 0.36179 0.19308 0.0
H650 H 0.74993 0.86473 0.16224 0.0
H651 H 0.58351 0.87514 0.06037 0.0
H652 H 0.68725 0.78527 0.14798 0.0
H653 H 0.63966 0.95263 0.09526 0.0
H654 H 0.62606 0.84213 0.07917 0.0
H655 H 0.71488 0.89748 0.12374 0.0
C656 C 0.72919 0.8541 0.15031 0.0
C657 C 0.72133 0.82227 0.15886 0.0
C658 C 0.62908 0.86643 0.08235 0.0
C659 C 0.68085 0.85959 0.11524 0.0
C660 C 0.60481 0.88524 0.07162 0.0
C661 C 0.60767 0.91654 0.07714 0.0
C662 C 0.65643 0.87914 0.0983 0.0
C663 C 0.63603 0.9285 0.09133 0.0
C664 C 0.70903 0.87281 0.12856 0.0
C665 C 0.69404 0.80978 0.14261 0.0
N666 N 0.6591 0.9098 0.10166 0.0
N667 N 0.67463 0.82847 0.12202 0.0
H668 H 0.20189 0.66067 0.08828 0.0
H669 H 0.02437 0.63191 0.02796 0.0
H670 H 0.12958 0.72296 0.1123 0.0
H671 H 0.08309 0.55755 0.05878 0.0
H672 H 0.06567 0.6683 0.04654 0.0
H673 H 0.16182 0.62598 0.06335 0.0
C674 C 0.17767 0.66725 0.08792 0.0
C675 C 0.16902 0.69461 0.10317 0.0
C676 C 0.06949 0.64403 0.04936 0.0
C677 C 0.12319 0.65504 0.07417 0.0
C678 C 0.04596 0.6232 0.0388 0.0
C679 C 0.05025 0.59159 0.04209 0.0
C680 C 0.09786 0.63335 0.06261 0.0
C681 C 0.07871 0.58167 0.05626 0.0
C682 C 0.15484 0.64735 0.0738 0.0
C683 C 0.13743 0.70224 0.1008 0.0
N684 N 0.10161 0.60255 0.06573 0.0
N685 N 0.1156 0.68245 0.08686 0.0
H686 H 0.33195 0.81613 0.95846 0.0
H687 H 0.43808 0.97654 0.93413 0.0
H688 H 0.31169 0.89639 0.87774 0.0
H689 H 0.45908 0.89432 0.01083 0.0
H690 H 0.38756 0.95017 0.92099 0.0
H691 H 0.37298 0.84727 0.98755 0.0
C692 C 0.3355 0.84061 0.94792 0.0
C693 C 0.31837 0.85381 0.91589 0.0
C694 C 0.40313 0.93796 0.9409 0.0
C695 C 0.3662 0.88942 0.94766 0.0
C696 C 0.4321 0.95296 0.94828 0.0
C697 C 0.4532 0.9375 0.97312 0.0
C698 C 0.39509 0.90724 0.95845 0.0
C699 C 0.44386 0.90707 0.99101 0.0
C700 C 0.35918 0.85833 0.96413 0.0
C701 C 0.32417 0.88548 0.90276 0.0
N702 N 0.41566 0.89294 0.98312 0.0
N703 N 0.34798 0.90214 0.9182 0.0
H704 H 0.16248 0.27404 0.85097 0.0
H705 H 0.14976 0.4394 0.93282 0.0
H706 H 0.24026 0.34525 0.83061 0.0
H707 H 0.07767 0.36316 0.96248 0.0
H708 H 0.1845 0.40544 0.89725 0.0
H709 H 0.13177 0.30657 0.89359 0.0
C710 C 0.17318 0.29643 0.85561 0.0
C711 C 0.20397 0.30688 0.83701 0.0
C712 C 0.16111 0.39621 0.91182 0.0
C713 C 0.16883 0.34451 0.88569 0.0
C714 C 0.14135 0.41557 0.93219 0.0
C715 C 0.11059 0.40431 0.9502 0.0
C716 C 0.14993 0.36546 0.90953 0.0
C717 C 0.10097 0.37314 0.94854 0.0
C718 C 0.15564 0.31506 0.87999 0.0
C719 C 0.21657 0.3362 0.84424 0.0
N720 N 0.12039 0.355 0.92841 0.0
N721 N 0.19891 0.35403 0.86774 0.0
H722 H 0.66783 0.18382 0.75535 0.0
H723 H 0.5939 0.06549 0.95634 0.0
H724 H 0.70794 0.17998 0.87499 0.0
H725 H 0.54885 0.08402 0.84144 0.0
H726 H 0.63918 0.10214 0.9259 0.0
H727 H 0.62779 0.14286 0.78526 0.0
C728 C 0.66833 0.17439 0.78806 0.0
C729 C 0.69144 0.18577 0.81265 0.0
C730 C 0.61956 0.09786 0.90721 0.0
C731 C 0.6449 0.13803 0.84748 0.0
C732 C 0.59379 0.07667 0.92438 0.0
C733 C 0.56738 0.07148 0.90142 0.0
C734 C 0.61917 0.11376 0.86653 0.0
C735 C 0.56854 0.08714 0.86041 0.0
C736 C 0.64527 0.15082 0.80517 0.0
C737 C 0.69061 0.17214 0.85481 0.0
N738 N 0.5938 0.10747 0.84448 0.0
N739 N 0.66769 0.14906 0.87093 0.0
H740 H 0.83874 0.74042 0.85075 0.0
H741 H 0.87313 0.56663 0.91049 0.0
H742 H 0.77021 0.6634 0.84537 0.0
H743 H 0.93364 0.64257 0.94161 0.0
H744 H 0.83345 0.60202 0.89172 0.0
H745 H 0.87179 0.70581 0.88951 0.0
C746 C 0.83038 0.71631 0.85829 0.0
C747 C 0.80186 0.7047 0.84425 0.0
C748 C 0.85523 0.61101 0.90301 0.0
C749 C 0.83978 0.66495 0.88819 0.0
C750 C 0.87802 0.5908 0.91355 0.0
C751 C 0.90701 0.60177 0.92685 0.0
C752 C 0.86158 0.64259 0.90515 0.0
C753 C 0.91175 0.63322 0.93098 0.0
C754 C 0.84929 0.69657 0.88044 0.0
C755 C 0.79213 0.67333 0.85522 0.0
N756 N 0.88945 0.65265 0.91952 0.0
N757 N 0.81129 0.65449 0.87597 0.0
H758 H 0.24786 0.35527 0.15792 0.0
H759 H 0.08149 0.37855 0.0618 0.0
H760 H 0.17483 0.28117 0.15761 0.0
H761 H 0.14398 0.45182 0.09621 0.0
H762 H 0.12074 0.34201 0.08089 0.0
H763 H 0.21543 0.39001 0.1185 0.0
C764 C 0.22524 0.34616 0.149 0.0
C765 C 0.2138 0.31538 0.16171 0.0
C766 C 0.12588 0.36615 0.08387 0.0
C767 C 0.17649 0.3551 0.11681 0.0
C768 C 0.10354 0.38699 0.073 0.0
C769 C 0.10921 0.41815 0.07829 0.0
C770 C 0.15414 0.3767 0.09964 0.0
C771 C 0.13833 0.42791 0.09242 0.0
C772 C 0.20668 0.36605 0.12662 0.0
C773 C 0.18439 0.30484 0.14894 0.0
N774 N 0.15959 0.40724 0.10284 0.0
N775 N 0.16656 0.32477 0.12757 0.0
H776 H 0.18998 0.70384 0.88993 0.0
H777 H 0.04804 0.58595 0.83985 0.0
H778 H 0.16999 0.68904 0.76376 0.0
H779 H 0.08798 0.57669 0.9595 0.0
H780 H 0.08997 0.62673 0.81299 0.0
H781 H 0.14935 0.66133 0.91818 0.0
C782 C 0.17685 0.69199 0.86821 0.0
C783 C 0.18349 0.70019 0.82435 0.0
C784 C 0.08981 0.61561 0.84502 0.0
C785 C 0.13705 0.65147 0.8564 0.0
C786 C 0.06591 0.59211 0.86032 0.0
C787 C 0.06448 0.57746 0.90195 0.0
C788 C 0.11229 0.62529 0.87166 0.0
C789 C 0.08826 0.58693 0.92705 0.0
C790 C 0.15388 0.66753 0.88432 0.0
C791 C 0.16587 0.68364 0.79777 0.0
N792 N 0.11088 0.61041 0.91174 0.0
N793 N 0.14357 0.66036 0.81413 0.0
H794 H 0.26704 0.15663 0.84302 0.0
H795 H 0.43259 0.14497 0.94669 0.0
H796 H 0.32993 0.23568 0.85838 0.0
H797 H 0.37671 0.06798 0.91 0.0
H798 H 0.3903 0.1782 0.92771 0.0
H799 H 0.30173 0.12354 0.88164 0.0
C800 C 0.28775 0.16709 0.85522 0.0
C801 C 0.29579 0.19891 0.84694 0.0
C802 C 0.38728 0.15396 0.92416 0.0
C803 C 0.33584 0.1612 0.8907 0.0
C804 C 0.41141 0.13502 0.93498 0.0
C805 C 0.40854 0.10379 0.92905 0.0
C806 C 0.36007 0.14146 0.90769 0.0
C807 C 0.38033 0.09204 0.91429 0.0
C808 C 0.3077 0.14819 0.87703 0.0
C809 C 0.32302 0.21119 0.86353 0.0
N810 N 0.3574 0.11087 0.90388 0.0
N811 N 0.34223 0.19231 0.88418 0.0
H812 H 0.86257 0.29582 0.94119 0.0
H813 H 0.95626 0.46394 0.90966 0.0
H814 H 0.86016 0.3628 0.83191 0.0
H815 H 0.97221 0.39254 0.00831 0.0
H816 H 0.91841 0.42775 0.88307 0.0
H817 H 0.90159 0.33109 0.96815 0.0
C818 C 0.87039 0.3178 0.92281 0.0
C819 C 0.85771 0.3266 0.88468 0.0
C820 C 0.93024 0.42001 0.91053 0.0
C821 C 0.9019 0.36704 0.91522 0.0
C822 C 0.95175 0.44073 0.92578 0.0
C823 C 0.96758 0.43125 0.96106 0.0
C824 C 0.92435 0.38967 0.9309 0.0
C825 C 0.96076 0.40082 0.98076 0.0
C826 C 0.89249 0.33798 0.93823 0.0
C827 C 0.86868 0.35537 0.86203 0.0
N828 N 0.93967 0.38116 0.96545 0.0
N829 N 0.88992 0.37456 0.87773 0.0
H830 H 0.65978 0.77164 0.84856 0.0
H831 H 0.64594 0.93504 0.9363 0.0
H832 H 0.73768 0.84261 0.83337 0.0
H833 H 0.57053 0.86155 0.95292 0.0
H834 H 0.68127 0.90113 0.90176 0.0
H835 H 0.62784 0.80377 0.89033 0.0
C836 C 0.67026 0.79386 0.85424 0.0
C837 C 0.70143 0.80441 0.83722 0.0
C838 C 0.65699 0.89249 0.91319 0.0
C839 C 0.66487 0.8416 0.88487 0.0
C840 C 0.63686 0.91184 0.93291 0.0
C841 C 0.60509 0.90134 0.94714 0.0
C842 C 0.64522 0.86247 0.9078 0.0
C843 C 0.59468 0.87092 0.94208 0.0
C844 C 0.652 0.81228 0.87807 0.0
C845 C 0.71372 0.8335 0.84572 0.0
N846 N 0.61455 0.85274 0.92275 0.0
N847 N 0.69538 0.85112 0.86868 0.0
H848 H 0.85516 0.74752 0.15397 0.0
H849 H 0.86753 0.58125 0.07493 0.0
H850 H 0.77745 0.67625 0.17635 0.0
H851 H 0.93832 0.65821 0.04086 0.0
H852 H 0.83301 0.61532 0.11071 0.0
H853 H 0.88545 0.7147 0.11128 0.0
C854 C 0.8444 0.72506 0.14977 0.0
C855 C 0.81375 0.71468 0.16892 0.0
C856 C 0.85606 0.62468 0.0951 0.0
C857 C 0.84839 0.67673 0.12021 0.0
C858 C 0.87568 0.60525 0.0746 0.0
C859 C 0.90605 0.6167 0.05535 0.0
C860 C 0.867 0.65566 0.09625 0.0
C861 C 0.91535 0.64809 0.05582 0.0
C862 C 0.86168 0.70627 0.12535 0.0
C863 C 0.80104 0.68526 0.16227 0.0
N864 N 0.8961 0.66628 0.07611 0.0
N865 N 0.81845 0.66727 0.13873 0.0
H866 H 0.30778 0.83796 0.12871 0.0
H867 H 0.46843 0.93621 0.16623 0.0
H868 H 0.34989 0.83423 0.24694 0.0
H869 H 0.42139 0.95473 0.053 0.0
H870 H 0.42385 0.89941 0.19575 0.0
H871 H 0.34813 0.88034 0.09914 0.0
C872 C 0.32536 0.84597 0.14846 0.0
C873 C 0.32534 0.8322 0.19042 0.0
C874 C 0.42296 0.91167 0.16458 0.0
C875 C 0.37151 0.88077 0.15684 0.0
C876 C 0.44846 0.93292 0.14774 0.0
C877 C 0.44888 0.94873 0.10695 0.0
C878 C 0.39753 0.90551 0.14042 0.0
C879 C 0.42216 0.94323 0.08462 0.0
C880 C 0.34833 0.87025 0.13161 0.0
C881 C 0.34878 0.84378 0.21443 0.0
N882 N 0.39781 0.92182 0.10136 0.0
N883 N 0.37074 0.86708 0.19734 0.0
H884 H 0.71356 0.12214 0.11427 0.0
H885 H 0.5491 0.12973 0.00815 0.0
H886 H 0.66864 0.20623 0.08401 0.0
H887 H 0.58026 0.04555 0.06872 0.0
H888 H 0.59732 0.1577 0.02553 0.0
H889 H 0.66945 0.09356 0.0874 0.0
C890 C 0.69464 0.13471 0.10176 0.0
C891 C 0.69492 0.16678 0.10187 0.0
C892 C 0.59364 0.1331 0.03498 0.0
C893 C 0.64441 0.13403 0.07055 0.0
C894 C 0.56608 0.11707 0.02506 0.0
C895 C 0.56035 0.08524 0.03741 0.0
C896 C 0.61589 0.11725 0.05719 0.0
C897 C 0.58344 0.07012 0.05899 0.0
C898 C 0.66947 0.11831 0.08634 0.0
C899 C 0.66991 0.18169 0.08428 0.0
N900 N 0.61015 0.08626 0.06825 0.0
N901 N 0.64569 0.1652 0.06961 0.0
H902 H 0.60017 0.65549 0.72604 0.0
H903 H 0.55595 0.50972 0.89002 0.0
H904 H 0.66652 0.59561 0.77946 0.0
H905 H 0.48878 0.57326 0.84802 0.0
H906 H 0.59245 0.52879 0.8276 0.0
H907 H 0.55691 0.61481 0.74743 0.0
C908 C 0.6057 0.63332 0.74093 0.0
C909 C 0.63647 0.62885 0.75217 0.0
C910 C 0.56947 0.53818 0.83139 0.0
C911 C 0.58761 0.5828 0.77711 0.0
C912 C 0.54875 0.52738 0.86708 0.0
C913 C 0.52005 0.54084 0.87456 0.0
C914 C 0.56181 0.56336 0.80399 0.0
C915 C 0.51115 0.56287 0.84356 0.0
C916 C 0.58109 0.61018 0.75323 0.0
C917 C 0.64278 0.59992 0.7712 0.0
N918 N 0.53248 0.5742 0.81006 0.0
N919 N 0.61839 0.57813 0.78386 0.0
H920 H 0.30831 0.65636 0.78028 0.0
H921 H 0.43011 0.63624 0.95705 0.0
H922 H 0.33991 0.73077 0.84765 0.0
H923 H 0.36863 0.56108 0.92544 0.0
H924 H 0.40333 0.67196 0.90991 0.0
H925 H 0.33792 0.62138 0.82488 0.0
C926 C 0.32184 0.66538 0.80397 0.0
C927 C 0.32153 0.69637 0.81053 0.0
C928 C 0.39569 0.64763 0.91357 0.0
C929 C 0.35519 0.6568 0.86141 0.0
C930 C 0.41085 0.62729 0.94055 0.0
C931 C 0.40153 0.59565 0.94539 0.0
C932 C 0.3715 0.63612 0.89077 0.0
C933 C 0.37651 0.5853 0.92303 0.0
C934 C 0.33846 0.64545 0.82961 0.0
C935 C 0.33929 0.70693 0.84184 0.0
N936 N 0.36257 0.60542 0.89646 0.0
N937 N 0.3554 0.6872 0.86612 0.0
H938 H 0.41063 0.30924 0.84315 0.0
H939 H 0.45252 0.47089 0.91929 0.0
H940 H 0.39204 0.39564 0.77517 0.0
H941 H 0.48996 0.38785 0.97378 0.0
H942 H 0.43254 0.4433 0.86467 0.0
H943 H 0.44415 0.33703 0.88721 0.0
C944 C 0.41457 0.33408 0.8367 0.0
C945 C 0.39864 0.35033 0.80573 0.0
C946 C 0.44529 0.43105 0.88832 0.0
C947 C 0.43584 0.3822 0.85669 0.0
C948 C 0.45654 0.44675 0.91995 0.0
C949 C 0.47307 0.4317 0.95139 0.0
C950 C 0.45003 0.3998 0.88816 0.0
C951 C 0.47739 0.40039 0.95022 0.0
C952 C 0.43343 0.34992 0.86202 0.0
C953 C 0.4041 0.38238 0.79864 0.0
N954 N 0.46575 0.38539 0.91919 0.0
N955 N 0.42182 0.39736 0.82452 0.0
H956 H 0.64397 0.29755 0.76871 0.0
H957 H 0.64093 0.44151 0.90209 0.0
H958 H 0.72824 0.35178 0.79226 0.0
H959 H 0.56265 0.3715 0.90973 0.0
H960 H 0.671 0.41429 0.8511 0.0
H961 H 0.61106 0.33079 0.80842 0.0
C962 C 0.65539 0.31692 0.78131 0.0
C963 C 0.68871 0.32202 0.77752 0.0
C964 C 0.6472 0.40494 0.86393 0.0
C965 C 0.6517 0.3596 0.82303 0.0
C966 C 0.63009 0.42043 0.8931 0.0
C967 C 0.59941 0.40858 0.91058 0.0
C968 C 0.63339 0.37762 0.85178 0.0
C969 C 0.58643 0.38126 0.8975 0.0
C970 C 0.63674 0.33563 0.8043 0.0
C971 C 0.70256 0.34705 0.79487 0.0
N972 N 0.60347 0.36671 0.8689 0.0
N973 N 0.68404 0.36483 0.81703 0.0
H974 H 0.67864 0.28334 0.15961 0.0
H975 H 0.65277 0.45637 0.0788 0.0
H976 H 0.71065 0.35959 0.22336 0.0
H977 H 0.58837 0.38115 0.05361 0.0
H978 H 0.6792 0.42045 0.12486 0.0
H979 H 0.64904 0.31807 0.11537 0.0
C980 C 0.67916 0.30737 0.16458 0.0
C981 C 0.69715 0.31868 0.19516 0.0
C982 C 0.65933 0.41179 0.10921 0.0
C983 C 0.66392 0.35851 0.14404 0.0
C984 C 0.64436 0.43222 0.08246 0.0
C985 C 0.61818 0.4218 0.06221 0.0
C986 C 0.64847 0.38054 0.11542 0.0
C987 C 0.60841 0.3902 0.06858 0.0
C988 C 0.66226 0.32711 0.13932 0.0
C989 C 0.69696 0.34994 0.20031 0.0
N990 N 0.62364 0.37062 0.09459 0.0
N991 N 0.68093 0.36889 0.17458 0.0
H992 H 0.62641 0.624 0.23535 0.0
H993 H 0.5293 0.6304 0.03139 0.0
H994 H 0.60853 0.70855 0.16192 0.0
H995 H 0.5642 0.54825 0.09274 0.0
H996 H 0.5494 0.65917 0.08616 0.0
H997 H 0.59242 0.59542 0.1925 0.0
C998 C 0.61443 0.63654 0.2111 0.0
C999 C 0.62033 0.66848 0.20174 0.0
C1000 C 0.55246 0.6348 0.08759 0.0
C1001 C 0.58244 0.63623 0.15198 0.0
C1002 C 0.54116 0.61843 0.05625 0.0
C1003 C 0.54514 0.5869 0.05728 0.0
C1004 C 0.56774 0.61945 0.12015 0.0
C1005 C 0.56069 0.57255 0.09033 0.0
C1006 C 0.59541 0.62029 0.18629 0.0
C1007 C 0.60461 0.68381 0.16973 0.0
N1008 N 0.57139 0.58892 0.12034 0.0
N1009 N 0.58673 0.6675 0.14551 0.0
H1010 H 0.28703 0.66603 0.21358 0.0
H1011 H 0.4569 0.64767 0.0967 0.0
H1012 H 0.37186 0.71946 0.23696 0.0
H1013 H 0.37812 0.57806 0.10579 0.0
H1014 H 0.42623 0.67478 0.14696 0.0
H1015 H 0.32004 0.63319 0.17477 0.0
C1016 C 0.31276 0.67039 0.2112 0.0
C1017 C 0.32686 0.69533 0.2285 0.0
C1018 C 0.41572 0.6535 0.13812 0.0
C1019 C 0.36479 0.65846 0.18301 0.0
C1020 C 0.43307 0.63814 0.1091 0.0
C1021 C 0.41991 0.61067 0.09668 0.0
C1022 C 0.3848 0.64156 0.15453 0.0
C1023 C 0.38913 0.59923 0.11427 0.0
C1024 C 0.33159 0.65171 0.18895 0.0
C1025 C 0.36021 0.70021 0.2244 0.0
N1026 N 0.37252 0.61486 0.14205 0.0
N1027 N 0.37811 0.6822 0.2014 0.0
H1028 H 0.41255 0.36354 0.28879 0.0
H1029 H 0.53229 0.44492 0.16174 0.0
H1030 H 0.35243 0.42242 0.22035 0.0
H1031 H 0.46179 0.50482 0.12015 0.0
H1032 H 0.49583 0.42436 0.22337 0.0
H1033 H 0.45729 0.40261 0.26993 0.0
C1034 C 0.40872 0.38513 0.2706 0.0
C1035 C 0.37935 0.38958 0.25467 0.0
C1036 C 0.48838 0.44262 0.20178 0.0
C1037 C 0.43034 0.43373 0.23142 0.0
C1038 C 0.50938 0.45434 0.16643 0.0
C1039 C 0.49931 0.47556 0.13531 0.0
C1040 C 0.45726 0.45237 0.20554 0.0
C1041 C 0.46981 0.48752 0.14285 0.0
C1042 C 0.43438 0.40735 0.2593 0.0
C1043 C 0.37515 0.41792 0.23202 0.0
N1044 N 0.44958 0.47535 0.17683 0.0
N1045 N 0.40057 0.4387 0.22036 0.0
H1046 H 0.77592 0.67823 0.65772 0.0
H1047 H 0.95385 0.63316 0.61176 0.0
H1048 H 0.85922 0.73797 0.67106 0.0
H1049 H 0.87304 0.58246 0.5714 0.0
H1050 H 0.91926 0.67216 0.63191 0.0
H1051 H 0.81038 0.64374 0.62394 0.0
C1052 C 0.80142 0.68434 0.65306 0.0
C1053 C 0.81469 0.71101 0.66756 0.0
C1054 C 0.90903 0.65265 0.61842 0.0
C1055 C 0.85434 0.67129 0.62933 0.0
C1056 C 0.92878 0.6302 0.60704 0.0
C1057 C 0.9163 0.60419 0.59036 0.0
C1058 C 0.87629 0.64907 0.61364 0.0
C1059 C 0.88366 0.60198 0.58448 0.0
C1060 C 0.82109 0.66458 0.63376 0.0
C1061 C 0.8479 0.71769 0.66051 0.0
N1062 N 0.8647 0.62395 0.59656 0.0
N1063 N 0.86656 0.6978 0.64239 0.0
H1064 H 0.34383 0.83898 0.74927 0.0
H1065 H 0.45574 0.92245 0.54597 0.0
H1066 H 0.34271 0.80588 0.6276 0.0
H1067 H 0.43967 0.95924 0.66455 0.0
H1068 H 0.42058 0.87631 0.57561 0.0
H1069 H 0.38463 0.87915 0.71929 0.0
C1070 C 0.35219 0.84001 0.7161 0.0
C1071 C 0.33934 0.81888 0.69099 0.0
C1072 C 0.42511 0.89433 0.59523 0.0
C1073 C 0.38688 0.86575 0.65591 0.0
C1074 C 0.4454 0.92064 0.57844 0.0
C1075 C 0.45071 0.94503 0.60266 0.0
C1076 C 0.41039 0.89212 0.63683 0.0
C1077 C 0.43636 0.94127 0.64448 0.0
C1078 C 0.37568 0.86317 0.69891 0.0
C1079 C 0.35175 0.82159 0.64824 0.0
N1080 N 0.41698 0.91557 0.66 0.0
N1081 N 0.37468 0.8447 0.63198 0.0
H1082 H 0.25612 0.35821 0.64982 0.0
H1083 H 0.08628 0.37227 0.55823 0.0
H1084 H 0.18463 0.2818 0.65701 0.0
H1085 H 0.16332 0.44424 0.53671 0.0
H1086 H 0.12254 0.33772 0.59185 0.0
H1087 H 0.22322 0.38948 0.60533 0.0
C1088 C 0.23377 0.3479 0.64168 0.0
C1089 C 0.22312 0.31741 0.6575 0.0
C1090 C 0.13148 0.36106 0.57944 0.0
C1091 C 0.18508 0.35308 0.60707 0.0
C1092 C 0.11077 0.38073 0.56022 0.0
C1093 C 0.12154 0.41133 0.54512 0.0
C1094 C 0.16309 0.37216 0.58362 0.0
C1095 C 0.15367 0.42099 0.54841 0.0
C1096 C 0.2149 0.36575 0.61637 0.0
C1097 C 0.1938 0.30529 0.6459 0.0
N1098 N 0.17311 0.40164 0.56752 0.0
N1099 N 0.17575 0.32319 0.6218 0.0
H1100 H 0.70791 0.18113 0.54506 0.0
H1101 H 0.5445 0.07462 0.56867 0.0
H1102 H 0.62192 0.20237 0.61484 0.0
H1103 H 0.62953 0.05688 0.4929 0.0
H1104 H 0.57046 0.12422 0.57974 0.0
H1105 H 0.67747 0.13963 0.5175 0.0
C1106 C 0.68234 0.17764 0.55338 0.0
C1107 C 0.66729 0.19528 0.5819 0.0
C1108 C 0.5834 0.10957 0.5605 0.0
C1109 C 0.63247 0.14697 0.55209 0.0
C1110 C 0.56865 0.08109 0.55436 0.0
C1111 C 0.58499 0.06124 0.53028 0.0
C1112 C 0.61483 0.11832 0.54264 0.0
C1113 C 0.6161 0.07118 0.51211 0.0
C1114 C 0.66501 0.15373 0.53807 0.0
C1115 C 0.63426 0.18951 0.59245 0.0
N1116 N 0.63004 0.09887 0.5189 0.0
N1117 N 0.61802 0.16551 0.5781 0.0
H1118 H 0.78623 0.39856 0.38237 0.0
H1119 H 0.95764 0.44007 0.45067 0.0
H1120 H 0.84527 0.3284 0.4291 0.0
H1121 H 0.8808 0.49695 0.47696 0.0
H1122 H 0.91859 0.40096 0.4317 0.0
H1123 H 0.82137 0.43725 0.40932 0.0
C1124 C 0.80608 0.39116 0.39903 0.0
C1125 C 0.81306 0.3602 0.40279 0.0
C1126 C 0.91039 0.42207 0.4416 0.0
C1127 C 0.85387 0.40439 0.43206 0.0
C1128 C 0.93265 0.44444 0.45196 0.0
C1129 C 0.9224 0.47172 0.4653 0.0
C1130 C 0.87786 0.42744 0.44358 0.0
C1131 C 0.88966 0.47614 0.46692 0.0
C1132 C 0.8263 0.41328 0.41398 0.0
C1133 C 0.83941 0.35208 0.42442 0.0
N1134 N 0.86856 0.45435 0.45584 0.0
N1135 N 0.85918 0.37407 0.43746 0.0
H1136 H 0.65538 0.78339 0.33339 0.0
H1137 H 0.647 0.94275 0.43294 0.0
H1138 H 0.73898 0.84405 0.34238 0.0
H1139 H 0.56654 0.89264 0.39079 0.0
H1140 H 0.68099 0.9026 0.41226 0.0
H1141 H 0.62246 0.81882 0.36759 0.0
C1142 C 0.66689 0.80393 0.34305 0.0
C1143 C 0.69999 0.81085 0.33459 0.0
C1144 C 0.65584 0.90045 0.40775 0.0
C1145 C 0.66235 0.8517 0.37364 0.0
C1146 C 0.63646 0.92332 0.41956 0.0
C1147 C 0.60397 0.92137 0.41293 0.0
C1148 C 0.64249 0.87532 0.38977 0.0
C1149 C 0.59153 0.89547 0.39588 0.0
C1150 C 0.64806 0.82426 0.36241 0.0
C1151 C 0.71352 0.83789 0.34792 0.0
N1152 N 0.61076 0.87361 0.38484 0.0
N1153 N 0.69465 0.85741 0.36653 0.0
H1154 H 0.2002 0.69334 0.39394 0.0
H1155 H 0.07906 0.55685 0.33983 0.0
H1156 H 0.18512 0.67459 0.26759 0.0
H1157 H 0.07281 0.58878 0.46246 0.0
H1158 H 0.11994 0.59874 0.31428 0.0
H1159 H 0.15667 0.65339 0.42166 0.0
C1160 C 0.18801 0.68078 0.37208 0.0
C1161 C 0.19649 0.68753 0.32829 0.0
C1162 C 0.10945 0.59689 0.3467 0.0
C1163 C 0.14662 0.64185 0.35974 0.0
C1164 C 0.08585 0.57299 0.36125 0.0
C1165 C 0.07203 0.56928 0.4033 0.0
C1166 C 0.12008 0.6172 0.37442 0.0
C1167 C 0.08234 0.59089 0.42962 0.0
C1168 C 0.16299 0.65814 0.38788 0.0
C1169 C 0.17954 0.67051 0.30154 0.0
N1170 N 0.10592 0.61364 0.41494 0.0
N1171 N 0.15573 0.64862 0.3176 0.0
H1172 H 0.26441 0.17141 0.36326 0.0
H1173 H 0.43359 0.14615 0.45051 0.0
H1174 H 0.34305 0.24172 0.34576 0.0
H1175 H 0.35236 0.07869 0.47136 0.0
H1176 H 0.39971 0.1836 0.41806 0.0
H1177 H 0.29505 0.13904 0.40901 0.0
C1178 C 0.28799 0.18016 0.36934 0.0
C1179 C 0.30127 0.20919 0.35031 0.0
C1180 C 0.38932 0.16065 0.4301 0.0
C1181 C 0.3367 0.17214 0.40238 0.0
C1182 C 0.40864 0.13932 0.44865 0.0
C1183 C 0.39595 0.10912 0.46296 0.0
C1184 C 0.35717 0.1516 0.426 0.0
C1185 C 0.36338 0.10154 0.46005 0.0
C1186 C 0.30553 0.16166 0.39546 0.0
C1187 C 0.33193 0.21939 0.35953 0.0
N1188 N 0.34526 0.12251 0.44163 0.0
N1189 N 0.34872 0.20077 0.38456 0.0
H1190 H 0.75073 0.84735 0.64206 0.0
H1191 H 0.58182 0.87441 0.55484 0.0
H1192 H 0.67094 0.77825 0.66143 0.0
H1193 H 0.66383 0.94095 0.53369 0.0
H1194 H 0.61513 0.83664 0.58782 0.0
H1195 H 0.72044 0.8799 0.59609 0.0
C1196 C 0.72695 0.8389 0.63636 0.0
C1197 C 0.71327 0.81017 0.65597 0.0
C1198 C 0.62582 0.85946 0.5756 0.0
C1199 C 0.67823 0.84744 0.6036 0.0
C1200 C 0.60683 0.88097 0.55674 0.0
C1201 C 0.61991 0.91101 0.54218 0.0
C1202 C 0.65804 0.86816 0.57974 0.0
C1203 C 0.65252 0.91824 0.54517 0.0
C1204 C 0.70961 0.8575 0.6101 0.0
C1205 C 0.68238 0.80035 0.64719 0.0
N1206 N 0.67033 0.8971 0.56387 0.0
N1207 N 0.66578 0.81907 0.622 0.0
H1208 H 0.67623 0.21552 0.37796 0.0
H1209 H 0.57649 0.05994 0.33892 0.0
H1210 H 0.68127 0.17511 0.26117 0.0
H1211 H 0.56322 0.09829 0.45669 0.0
H1212 H 0.6123 0.10472 0.30976 0.0
H1213 H 0.63351 0.17534 0.40766 0.0
C1214 C 0.66834 0.19843 0.35848 0.0
C1215 C 0.68269 0.19883 0.31693 0.0
C1216 C 0.60145 0.10367 0.34191 0.0
C1217 C 0.63368 0.15282 0.35069 0.0
C1218 C 0.58071 0.07802 0.35858 0.0
C1219 C 0.56674 0.07502 0.40053 0.0
C1220 C 0.60896 0.12678 0.36725 0.0
C1221 C 0.57334 0.09949 0.42422 0.0
C1222 C 0.64391 0.1755 0.37546 0.0
C1223 C 0.67132 0.17593 0.29335 0.0
N1224 N 0.59427 0.1241 0.40749 0.0
N1225 N 0.6478 0.15408 0.3105 0.0
H1226 H 0.76139 0.66443 0.35776 0.0
H1227 H 0.93227 0.64878 0.44519 0.0
H1228 H 0.83411 0.74009 0.34716 0.0
H1229 H 0.85332 0.57897 0.47248 0.0
H1230 H 0.8963 0.68374 0.41168 0.0
H1231 H 0.79421 0.63339 0.40259 0.0
C1232 C 0.78402 0.67462 0.36521 0.0
C1233 C 0.79503 0.70481 0.34835 0.0
C1234 C 0.88689 0.66081 0.42536 0.0
C1235 C 0.83296 0.6694 0.39917 0.0
C1236 C 0.90743 0.64092 0.44453 0.0
C1237 C 0.896 0.61076 0.46109 0.0
C1238 C 0.85483 0.65034 0.42275 0.0
C1239 C 0.86346 0.60183 0.45952 0.0
C1240 C 0.80283 0.6569 0.39073 0.0
C1241 C 0.82467 0.71681 0.3591 0.0
N1242 N 0.84421 0.62135 0.4404 0.0
N1243 N 0.84268 0.69903 0.38341 0.0
H1244 H 0.30863 0.84012 0.45726 0.0
H1245 H 0.47223 0.9463 0.43494 0.0
H1246 H 0.39489 0.81833 0.38866 0.0
H1247 H 0.38732 0.96365 0.51126 0.0
H1248 H 0.44617 0.89685 0.42331 0.0
H1249 H 0.33898 0.88167 0.48482 0.0
C1250 C 0.33423 0.84353 0.44916 0.0
C1251 C 0.34939 0.82568 0.42101 0.0
C1252 C 0.43329 0.91139 0.44278 0.0
C1253 C 0.38415 0.87403 0.45088 0.0
C1254 C 0.44809 0.93978 0.44925 0.0
C1255 C 0.43181 0.95949 0.47364 0.0
C1256 C 0.40185 0.90259 0.46061 0.0
C1257 C 0.40072 0.94947 0.49181 0.0
C1258 C 0.35152 0.86745 0.46449 0.0
C1259 C 0.38246 0.83135 0.41076 0.0
N1260 N 0.38672 0.92189 0.48468 0.0
N1261 N 0.39867 0.85536 0.42515 0.0
H1262 H 0.15585 0.27958 0.33761 0.0
H1263 H 0.14311 0.43901 0.43566 0.0
H1264 H 0.23787 0.3423 0.3465 0.0
H1265 H 0.06372 0.38687 0.39421 0.0
H1266 H 0.17808 0.39956 0.41554 0.0
H1267 H 0.12178 0.31422 0.37158 0.0
C1268 C 0.16679 0.30039 0.34725 0.0
C1269 C 0.19977 0.30813 0.33879 0.0
C1270 C 0.15296 0.39678 0.41107 0.0
C1271 C 0.16079 0.34807 0.37754 0.0
C1272 C 0.133 0.41926 0.42256 0.0
C1273 C 0.10051 0.41652 0.41601 0.0
C1274 C 0.14022 0.37125 0.39341 0.0
C1275 C 0.08867 0.39025 0.39928 0.0
C1276 C 0.14728 0.32027 0.36646 0.0
C1277 C 0.21253 0.33549 0.35207 0.0
N1278 N 0.10849 0.36877 0.38848 0.0
N1279 N 0.19302 0.35456 0.37052 0.0
H1280 H 0.36228 0.23712 0.67306 0.0
H1281 H 0.36956 0.0781 0.57212 0.0
H1282 H 0.2782 0.17743 0.66297 0.0
H1283 H 0.45028 0.12737 0.61489 0.0
H1284 H 0.33582 0.11831 0.59336 0.0
H1285 H 0.39493 0.20137 0.63907 0.0
C1286 C 0.35061 0.21673 0.6632 0.0
C1287 C 0.31744 0.21021 0.67126 0.0
C1288 C 0.36097 0.12026 0.59789 0.0
C1289 C 0.35479 0.16896 0.63243 0.0
C1290 C 0.38021 0.09735 0.58576 0.0
C1291 C 0.41271 0.09905 0.59236 0.0
C1292 C 0.37446 0.14519 0.61617 0.0
C1293 C 0.42528 0.12473 0.60978 0.0
C1294 C 0.3693 0.19621 0.64396 0.0
C1295 C 0.30371 0.18332 0.65771 0.0
N1296 N 0.40619 0.14664 0.6211 0.0
N1297 N 0.32243 0.16361 0.6392 0.0
H1298 H 0.82708 0.34669 0.73996 0.0
H1299 H 0.94584 0.42955 0.54348 0.0
H1300 H 0.81868 0.32537 0.61303 0.0
H1301 H 0.93296 0.46374 0.66431 0.0
H1302 H 0.90436 0.38761 0.56888 0.0
H1303 H 0.86972 0.38614 0.71309 0.0
C1304 C 0.83409 0.35035 0.70624 0.0
C1305 C 0.819 0.33251 0.67878 0.0
C1306 C 0.91087 0.40412 0.58993 0.0
C1307 C 0.86881 0.37808 0.64754 0.0
C1308 C 0.93487 0.42791 0.57565 0.0
C1309 C 0.94321 0.45031 0.60182 0.0
C1310 C 0.8953 0.40232 0.63098 0.0
C1311 C 0.92759 0.4471 0.64295 0.0
C1312 C 0.8586 0.37302 0.6909 0.0
C1313 C 0.82937 0.33863 0.63539 0.0
N1314 N 0.90458 0.42371 0.65613 0.0
N1315 N 0.85376 0.36075 0.62113 0.0
H1316 H 0.16475 0.645 0.68075 0.0
H1317 H 0.13123 0.54648 0.49224 0.0
H1318 H 0.22909 0.6504 0.56711 0.0
H1319 H 0.06186 0.55419 0.59734 0.0
H1320 H 0.16914 0.58108 0.52102 0.0
H1321 H 0.12945 0.60741 0.65338 0.0
C1322 C 0.1715 0.63806 0.65 0.0
C1323 C 0.19964 0.65113 0.62582 0.0
C1324 C 0.14566 0.5752 0.5378 0.0
C1325 C 0.15918 0.60801 0.59417 0.0
C1326 C 0.12394 0.55541 0.52145 0.0
C1327 C 0.09327 0.5473 0.54254 0.0
C1328 C 0.13681 0.58685 0.57573 0.0
C1329 C 0.08517 0.5598 0.58002 0.0
C1330 C 0.15129 0.61665 0.63436 0.0
C1331 C 0.20757 0.6409 0.58663 0.0
N1332 N 0.10686 0.57885 0.59548 0.0
N1333 N 0.18725 0.62006 0.57179 0.0
loop_
_geom_bond_atom_site_label_1
_geom_bond_atom_site_label_2
_geom_bond_distance
_geom_bond_site_symmetry_2
_ccdc_geom_bond_type
C0 O16 1.251 . S
C0 O18 1.254 . S
N1 C2 1.333 . S
N1 C6 1.307 . S
N1 Zn7 2.020 . S
C2 N1 1.333 . S
C2 C3 1.379 . S
C2 H20 0.952 . S
C3 C2 1.379 . S
C3 C4 1.390 . S
C3 H30 0.949 . S
C4 C3 1.390 . S
C4 C5 1.357 . S
C5 C4 1.357 . S
C5 C6 1.370 . S
C5 H31 0.950 . S
C6 N1 1.307 . S
C6 C5 1.370 . S
C6 H24 0.948 . S
Zn7 N1 2.020 . S
Zn7 O16 2.039 . S
Zn7 O22 2.034 . S
Zn7 O26 2.025 . S
Zn7 O28 2.024 . S
C8 O27 1.246 . S
C8 O28 1.249 . S
N9 C10 1.307 . S
N9 C11 1.333 . S
N9 Zn15 2.020 . S
C10 N9 1.307 . S
C10 C14 1.370 . S
C10 H21 0.948 . S
C11 N9 1.333 . S
C11 C12 1.379 . S
C11 H19 0.952 . S
C12 C11 1.379 . S
C12 C13 1.390 . S
C12 H32 0.949 . S
C13 C12 1.390 . S
C13 C14 1.357 . S
C14 C10 1.370 . S
C14 C13 1.357 . S
C14 H33 0.950 . S
Zn15 N9 2.020 . S
Zn15 O18 2.025 . S
Zn15 O23 2.024 . S
Zn15 O25 2.039 . S
Zn15 O27 2.034 . S
O16 C0 1.251 . S
O16 Zn7 2.039 . S
C17 O22 1.246 . S
C17 O23 1.249 . S
O18 C0 1.254 . S
O18 Zn15 2.025 . S
H19 C11 0.952 . S
H20 C2 0.952 . S
H21 C10 0.948 . S
O22 Zn7 2.034 . S
O22 C17 1.246 . S
O23 Zn15 2.024 . S
O23 C17 1.249 . S
H24 C6 0.948 . S
O25 Zn15 2.039 . S
O25 C29 1.251 . S
O26 Zn7 2.025 . S
O26 C29 1.254 . S
O27 C8 1.246 . S
O27 Zn15 2.034 . S
O28 Zn7 2.024 . S
O28 C8 1.249 . S
C29 O25 1.251 . S
C29 O26 1.254 . S
H30 C3 0.949 . S
H31 C5 0.950 . S
H32 C12 0.949 . S
H33 C14 0.950 . S
C34 O50 1.251 . S
C34 O52 1.254 . S
N35 C36 1.333 . S
N35 C40 1.307 . S
N35 Zn41 2.020 . S
C36 N35 1.333 . S
C36 C37 1.379 . S
C36 H54 0.952 . S
C37 C36 1.379 . S
C37 C38 1.390 . S
C37 H64 0.949 . S
C38 C37 1.390 . S
C38 C39 1.357 . S
C39 C38 1.357 . S
C39 C40 1.370 . S
C39 H65 0.950 . S
C40 N35 1.307 . S
C40 C39 1.370 . S
C40 H58 0.948 . S
Zn41 N35 2.020 . S
Zn41 O50 2.039 . S
Zn41 O56 2.034 . S
Zn41 O60 2.025 . S
Zn41 O62 2.024 . S
C42 O61 1.246 . S
C42 O62 1.249 . S
N43 C44 1.307 . S
N43 C45 1.333 . S
N43 Zn49 2.020 . S
C44 N43 1.307 . S
C44 C48 1.370 . S
C44 H55 0.948 . S
C45 N43 1.333 . S
C45 C46 1.379 . S
C45 H53 0.952 . S
C46 C45 1.379 . S
C46 C47 1.390 . S
C46 H66 0.949 . S
C47 C46 1.390 . S
C47 C48 1.357 . S
C48 C44 1.370 . S
C48 C47 1.357 . S
C48 H67 0.950 . S
Zn49 N43 2.020 . S
Zn49 O52 2.025 . S
Zn49 O57 2.024 . S
Zn49 O59 2.039 . S
Zn49 O61 2.034 . S
O50 C34 1.251 . S
O50 Zn41 2.039 . S
C51 O56 1.246 . S
C51 O57 1.249 . S
O52 C34 1.254 . S
O52 Zn49 2.025 . S
H53 C45 0.952 . S
H54 C36 0.952 . S
H55 C44 0.948 . S
O56 Zn41 2.034 . S
O56 C51 1.246 . S
O57 Zn49 2.024 . S
O57 C51 1.249 . S
H58 C40 0.948 . S
O59 Zn49 2.039 . S
O59 C63 1.251 . S
O60 Zn41 2.025 . S
O60 C63 1.254 . S
O61 C42 1.246 . S
O61 Zn49 2.034 . S
O62 Zn41 2.024 . S
O62 C42 1.249 . S
C63 O59 1.251 . S
C63 O60 1.254 . S
H64 C37 0.949 . S
H65 C39 0.950 . S
H66 C46 0.949 . S
H67 C48 0.950 . S
C68 O84 1.251 . S
C68 O86 1.254 . S
N69 C70 1.333 . S
N69 C74 1.307 . S
N69 Zn75 2.020 . S
C70 N69 1.333 . S
C70 C71 1.379 . S
C70 H88 0.952 . S
C71 C70 1.379 . S
C71 C72 1.390 . S
C71 H98 0.949 . S
C72 C71 1.390 . S
C72 C73 1.357 . S
C73 C72 1.357 . S
C73 C74 1.370 . S
C73 H99 0.950 . S
C74 N69 1.307 . S
C74 C73 1.370 . S
C74 H92 0.948 . S
Zn75 N69 2.020 . S
Zn75 O84 2.039 . S
Zn75 O90 2.034 . S
Zn75 O94 2.025 . S
Zn75 O96 2.024 . S
C76 O95 1.246 . S
C76 O96 1.249 . S
N77 C78 1.307 . S
N77 C79 1.333 . S
N77 Zn83 2.020 . S
C78 N77 1.307 . S
C78 C82 1.370 . S
C78 H89 0.948 . S
C79 N77 1.333 . S
C79 C80 1.379 . S
C79 H87 0.952 . S
C80 C79 1.379 . S
C80 C81 1.390 . S
C80 H100 0.949 . S
C81 C80 1.390 . S
C81 C82 1.357 . S
C82 C78 1.370 . S
C82 C81 1.357 . S
C82 H101 0.950 . S
Zn83 N77 2.020 . S
Zn83 O86 2.025 . S
Zn83 O91 2.024 . S
Zn83 O93 2.039 . S
Zn83 O95 2.034 . S
O84 C68 1.251 . S
O84 Zn75 2.039 . S
C85 O90 1.246 . S
C85 O91 1.249 . S
O86 C68 1.254 . S
O86 Zn83 2.025 . S
H87 C79 0.952 . S
H88 C70 0.952 . S
H89 C78 0.948 . S
O90 Zn75 2.034 . S
O90 C85 1.246 . S
O91 Zn83 2.024 . S
O91 C85 1.249 . S
H92 C74 0.948 . S
O93 Zn83 2.039 . S
O93 C97 1.251 . S
O94 Zn75 2.025 . S
O94 C97 1.254 . S
O95 C76 1.246 . S
O95 Zn83 2.034 . S
O96 Zn75 2.024 . S
O96 C76 1.249 . S
C97 O93 1.251 . S
C97 O94 1.254 . S
H98 C71 0.949 . S
H99 C73 0.950 . S
H100 C80 0.949 . S
H101 C82 0.950 . S
C102 O118 1.251 . S
C102 O120 1.254 . S
N103 C104 1.333 . S
N103 C108 1.307 . S
N103 Zn109 2.020 . S
C104 N103 1.333 . S
C104 C105 1.379 . S
C104 H122 0.952 . S
C105 C104 1.379 . S
C105 C106 1.390 . S
C105 H132 0.949 . S
C106 C105 1.390 . S
C106 C107 1.357 . S
C107 C106 1.357 . S
C107 C108 1.370 . S
C107 H133 0.950 . S
C108 N103 1.307 . S
C108 C107 1.370 . S
C108 H126 0.948 . S
Zn109 N103 2.020 . S
Zn109 O118 2.039 . S
Zn109 O124 2.034 . S
Zn109 O128 2.025 . S
Zn109 O130 2.024 . S
C110 O129 1.246 . S
C110 O130 1.249 . S
N111 C112 1.307 . S
N111 C113 1.333 . S
N111 Zn117 2.020 . S
C112 N111 1.307 . S
C112 C116 1.370 . S
C112 H123 0.948 . S
C113 N111 1.333 . S
C113 C114 1.379 . S
C113 H121 0.952 . S
C114 C113 1.379 . S
C114 C115 1.390 . S
C114 H134 0.949 . S
C115 C114 1.390 . S
C115 C116 1.357 . S
C116 C112 1.370 . S
C116 C115 1.357 . S
C116 H135 0.950 . S
Zn117 N111 2.020 . S
Zn117 O120 2.025 . S
Zn117 O125 2.024 . S
Zn117 O127 2.039 . S
Zn117 O129 2.034 . S
O118 C102 1.251 . S
O118 Zn109 2.039 . S
C119 O124 1.246 . S
C119 O125 1.249 . S
O120 C102 1.254 . S
O120 Zn117 2.025 . S
H121 C113 0.952 . S
H122 C104 0.952 . S
H123 C112 0.948 . S
O124 Zn109 2.034 . S
O124 C119 1.246 . S
O125 Zn117 2.024 . S
O125 C119 1.249 . S
H126 C108 0.948 . S
O127 Zn117 2.039 . S
O127 C131 1.251 . S
O128 Zn109 2.025 . S
O128 C131 1.254 . S
O129 C110 1.246 . S
O129 Zn117 2.034 . S
O130 Zn109 2.024 . S
O130 C110 1.249 . S
C131 O127 1.251 . S
C131 O128 1.254 . S
H132 C105 0.949 . S
H133 C107 0.950 . S
H134 C114 0.949 . S
H135 C116 0.950 . S
C136 O152 1.251 . S
C136 O154 1.254 . S
N137 C138 1.333 . S
N137 C142 1.307 . S
N137 Zn143 2.020 . S
C138 N137 1.333 . S
C138 C139 1.379 . S
C138 H156 0.952 . S
C139 C138 1.379 . S
C139 C140 1.390 . S
C139 H166 0.949 . S
C140 C139 1.390 . S
C140 C141 1.357 . S
C141 C140 1.357 . S
C141 C142 1.370 . S
C141 H167 0.950 . S
C142 N137 1.307 . S
C142 C141 1.370 . S
C142 H160 0.948 . S
Zn143 N137 2.020 . S
Zn143 O152 2.039 . S
Zn143 O158 2.034 . S
Zn143 O162 2.025 . S
Zn143 O164 2.024 . S
C144 O163 1.246 . S
C144 O164 1.249 . S
N145 C146 1.307 . S
N145 C147 1.333 . S
N145 Zn151 2.020 . S
C146 N145 1.307 . S
C146 C150 1.370 . S
C146 H157 0.948 . S
C147 N145 1.333 . S
C147 C148 1.379 . S
C147 H155 0.952 . S
C148 C147 1.379 . S
C148 C149 1.390 . S
C148 H168 0.949 . S
C149 C148 1.390 . S
C149 C150 1.357 . S
C150 C146 1.370 . S
C150 C149 1.357 . S
C150 H169 0.950 . S
Zn151 N145 2.020 . S
Zn151 O154 2.025 . S
Zn151 O159 2.024 . S
Zn151 O161 2.039 . S
Zn151 O163 2.034 . S
O152 C136 1.251 . S
O152 Zn143 2.039 . S
C153 O158 1.246 . S
C153 O159 1.249 . S
O154 C136 1.254 . S
O154 Zn151 2.025 . S
H155 C147 0.952 . S
H156 C138 0.952 . S
H157 C146 0.948 . S
O158 Zn143 2.034 . S
O158 C153 1.246 . S
O159 Zn151 2.024 . S
O159 C153 1.249 . S
H160 C142 0.948 . S
O161 Zn151 2.039 . S
O161 C165 1.251 . S
O162 Zn143 2.025 . S
O162 C165 1.254 . S
O163 C144 1.246 . S
O163 Zn151 2.034 . S
O164 Zn143 2.024 . S
O164 C144 1.249 . S
C165 O161 1.251 . S
C165 O162 1.254 . S
H166 C139 0.949 . S
H167 C141 0.950 . S
H168 C148 0.949 . S
H169 C150 0.950 . S
C170 O186 1.251 . S
C170 O188 1.254 . S
N171 C172 1.333 . S
N171 C176 1.307 . S
N171 Zn177 2.020 . S
C172 N171 1.333 . S
C172 C173 1.379 . S
C172 H190 0.952 . S
C173 C172 1.379 . S
C173 C174 1.390 . S
C173 H200 0.949 . S
C174 C173 1.390 . S
C174 C175 1.357 . S
C175 C174 1.357 . S
C175 C176 1.370 . S
C175 H201 0.950 . S
C176 N171 1.307 . S
C176 C175 1.370 . S
C176 H194 0.948 . S
Zn177 N171 2.020 . S
Zn177 O186 2.039 . S
Zn177 O192 2.034 . S
Zn177 O196 2.025 . S
Zn177 O198 2.024 . S
C178 O197 1.246 . S
C178 O198 1.249 . S
N179 C180 1.307 . S
N179 C181 1.333 . S
N179 Zn185 2.020 . S
C180 N179 1.307 . S
C180 C184 1.370 . S
C180 H191 0.948 . S
C181 N179 1.333 . S
C181 C182 1.379 . S
C181 H189 0.952 . S
C182 C181 1.379 . S
C182 C183 1.390 . S
C182 H202 0.949 . S
C183 C182 1.390 . S
C183 C184 1.357 . S
C184 C180 1.370 . S
C184 C183 1.357 . S
C184 H203 0.950 . S
Zn185 N179 2.020 . S
Zn185 O188 2.025 . S
Zn185 O193 2.024 . S
Zn185 O195 2.039 . S
Zn185 O197 2.034 . S
O186 C170 1.251 . S
O186 Zn177 2.039 . S
C187 O192 1.246 . S
C187 O193 1.249 . S
O188 C170 1.254 . S
O188 Zn185 2.025 . S
H189 C181 0.952 . S
H190 C172 0.952 . S
H191 C180 0.948 . S
O192 Zn177 2.034 . S
O192 C187 1.246 . S
O193 Zn185 2.024 . S
O193 C187 1.249 . S
H194 C176 0.948 . S
O195 Zn185 2.039 . S
O195 C199 1.251 . S
O196 Zn177 2.025 . S
O196 C199 1.254 . S
O197 C178 1.246 . S
O197 Zn185 2.034 . S
O198 Zn177 2.024 . S
O198 C178 1.249 . S
C199 O195 1.251 . S
C199 O196 1.254 . S
H200 C173 0.949 . S
H201 C175 0.950 . S
H202 C182 0.949 . S
H203 C184 0.950 . S
C204 O220 1.251 . S
C204 O222 1.254 . S
N205 C206 1.333 . S
N205 C210 1.307 . S
N205 Zn211 2.020 . S
C206 N205 1.333 . S
C206 C207 1.379 . S
C206 H224 0.952 . S
C207 C206 1.379 . S
C207 C208 1.390 . S
C207 H234 0.949 . S
C208 C207 1.390 . S
C208 C209 1.357 . S
C209 C208 1.357 . S
C209 C210 1.370 . S
C209 H235 0.950 . S
C210 N205 1.307 . S
C210 C209 1.370 . S
C210 H228 0.948 . S
Zn211 N205 2.020 . S
Zn211 O220 2.039 . S
Zn211 O226 2.034 . S
Zn211 O230 2.025 . S
Zn211 O232 2.024 . S
C212 O231 1.246 . S
C212 O232 1.249 . S
N213 C214 1.307 . S
N213 C215 1.333 . S
N213 Zn219 2.020 . S
C214 N213 1.307 . S
C214 C218 1.370 . S
C214 H225 0.948 . S
C215 N213 1.333 . S
C215 C216 1.379 . S
C215 H223 0.952 . S
C216 C215 1.379 . S
C216 C217 1.390 . S
C216 H236 0.949 . S
C217 C216 1.390 . S
C217 C218 1.357 . S
C218 C214 1.370 . S
C218 C217 1.357 . S
C218 H237 0.950 . S
Zn219 N213 2.020 . S
Zn219 O222 2.025 . S
Zn219 O227 2.024 . S
Zn219 O229 2.039 . S
Zn219 O231 2.034 . S
O220 C204 1.251 . S
O220 Zn211 2.039 . S
C221 O226 1.246 . S
C221 O227 1.249 . S
O222 C204 1.254 . S
O222 Zn219 2.025 . S
H223 C215 0.952 . S
H224 C206 0.952 . S
H225 C214 0.948 . S
O226 Zn211 2.034 . S
O226 C221 1.246 . S
O227 Zn219 2.024 . S
O227 C221 1.249 . S
H228 C210 0.948 . S
O229 Zn219 2.039 . S
O229 C233 1.251 . S
O230 Zn211 2.025 . S
O230 C233 1.254 . S
O231 C212 1.246 . S
O231 Zn219 2.034 . S
O232 Zn211 2.024 . S
O232 C212 1.249 . S
C233 O229 1.251 . S
C233 O230 1.254 . S
H234 C207 0.949 . S
H235 C209 0.950 . S
H236 C216 0.949 . S
H237 C218 0.950 . S
C238 O254 1.251 . S
C238 O256 1.254 . S
N239 C240 1.333 . S
N239 C244 1.307 . S
N239 Zn245 2.020 . S
C240 N239 1.333 . S
C240 C241 1.379 . S
C240 H258 0.952 . S
C241 C240 1.379 . S
C241 C242 1.390 . S
C241 H268 0.949 . S
C242 C241 1.390 . S
C242 C243 1.357 . S
C243 C242 1.357 . S
C243 C244 1.370 . S
C243 H269 0.950 . S
C244 N239 1.307 . S
C244 C243 1.370 . S
C244 H262 0.948 . S
Zn245 N239 2.020 . S
Zn245 O254 2.039 . S
Zn245 O260 2.034 . S
Zn245 O264 2.025 . S
Zn245 O266 2.024 . S
C246 O265 1.246 . S
C246 O266 1.249 . S
N247 C248 1.307 . S
N247 C249 1.333 . S
N247 Zn253 2.020 . S
C248 N247 1.307 . S
C248 C252 1.370 . S
C248 H259 0.948 . S
C249 N247 1.333 . S
C249 C250 1.379 . S
C249 H257 0.952 . S
C250 C249 1.379 . S
C250 C251 1.390 . S
C250 H270 0.949 . S
C251 C250 1.390 . S
C251 C252 1.357 . S
C252 C248 1.370 . S
C252 C251 1.357 . S
C252 H271 0.950 . S
Zn253 N247 2.020 . S
Zn253 O256 2.025 . S
Zn253 O261 2.024 . S
Zn253 O263 2.039 . S
Zn253 O265 2.034 . S
O254 C238 1.251 . S
O254 Zn245 2.039 . S
C255 O260 1.246 . S
C255 O261 1.249 . S
O256 C238 1.254 . S
O256 Zn253 2.025 . S
H257 C249 0.952 . S
H258 C240 0.952 . S
H259 C248 0.948 . S
O260 Zn245 2.034 . S
O260 C255 1.246 . S
O261 Zn253 2.024 . S
O261 C255 1.249 . S
H262 C244 0.948 . S
O263 Zn253 2.039 . S
O263 C267 1.251 . S
O264 Zn245 2.025 . S
O264 C267 1.254 . S
O265 C246 1.246 . S
O265 Zn253 2.034 . S
O266 Zn245 2.024 . S
O266 C246 1.249 . S
C267 O263 1.251 . S
C267 O264 1.254 . S
H268 C241 0.949 . S
H269 C243 0.950 . S
H270 C250 0.949 . S
H271 C252 0.950 . S
Co272 O275 2.042 . S
Co272 O282 2.264 . S
Co272 O301 2.286 . S
Co272 O302 2.069 . S
Co272 O304 2.015 1_455 S
Co273 O275 2.122 . S
Co273 O281 2.073 . S
Co273 O282 2.327 . S
Co273 O283 1.976 1_455 S
Co274 O275 2.085 1_545 S
Co274 O277 2.089 1_455 S
Co274 O284 2.110 1_445 S
Co274 O285 2.145 . S
Co274 O289 2.112 . S
Co274 O303 2.142 1_445 S
O275 Co272 2.042 . S
O275 Co273 2.122 . S
O275 Co274 2.085 1_565 S
O275 H276 0.980 . S
H276 O275 0.980 . S
O277 Co274 2.089 1_655 S
O277 Co278 2.042 . S
O277 Co279 2.122 . S
O277 H280 0.980 . S
Co278 O277 2.042 . S
Co278 O286 2.286 . S
Co278 O287 2.069 . S
Co278 O288 2.015 1_655 S
Co278 O291 2.264 . S
Co279 O277 2.122 . S
Co279 O290 1.976 1_655 S
Co279 O291 2.327 . S
Co279 O292 2.073 . S
H280 O277 0.980 . S
O281 Co273 2.073 . S
O281 C296 1.245 . S
O282 Co272 2.264 . S
O282 Co273 2.327 . S
O282 C296 1.257 . S
O283 Co273 1.976 1_655 S
O283 C295 1.251 . S
O284 Co274 2.110 1_665 S
O284 C295 1.274 . S
O285 Co274 2.145 . S
O285 C298 1.246 . S
O286 Co278 2.286 . S
O286 C297 1.259 . S
O287 Co278 2.069 . S
O287 C297 1.289 . S
O288 Co278 2.015 1_455 S
O288 C298 1.257 . S
O289 Co274 2.112 . S
O289 C299 1.274 . S
O290 Co279 1.976 1_455 S
O290 C299 1.251 . S
O291 Co278 2.264 . S
O291 Co279 2.327 . S
O291 C300 1.257 . S
O292 Co279 2.073 . S
O292 C300 1.245 . S
C293 O301 1.259 . S
C293 O302 1.289 . S
C294 O303 1.246 . S
C294 O304 1.257 . S
C295 O283 1.251 . S
C295 O284 1.274 . S
C296 O281 1.245 . S
C296 O282 1.257 . S
C297 O286 1.259 . S
C297 O287 1.289 . S
C298 O285 1.246 . S
C298 O288 1.257 . S
C299 O289 1.274 . S
C299 O290 1.251 . S
C300 O291 1.257 . S
C300 O292 1.245 . S
O301 Co272 2.286 . S
O301 C293 1.259 . S
O302 Co272 2.069 . S
O302 C293 1.289 . S
O303 Co274 2.142 1_665 S
O303 C294 1.246 . S
O304 Co272 2.015 1_655 S
O304 C294 1.257 . S
Co305 O308 2.042 1_556 S
Co305 O315 2.264 1_556 S
Co305 O334 2.286 . S
Co305 O335 2.069 . S
Co305 O337 2.015 . S
Co306 O308 2.122 . S
Co306 O314 2.073 . S
Co306 O315 2.327 . S
Co306 O316 1.976 . S
Co307 O308 2.085 1_545 S
Co307 O310 2.089 1_554 S
Co307 O317 2.110 1_545 S
Co307 O318 2.145 . S
Co307 O322 2.112 1_554 S
Co307 O336 2.142 1_544 S
O308 Co305 2.042 1_554 S
O308 Co306 2.122 . S
O308 Co307 2.085 1_565 S
O308 H309 0.980 . S
H309 O308 0.980 . S
O310 Co307 2.089 1_556 S
O310 Co311 2.042 1_556 S
O310 Co312 2.122 . S
O310 H313 0.980 . S
Co311 O310 2.042 1_554 S
Co311 O319 2.286 . S
Co311 O320 2.069 . S
Co311 O321 2.015 . S
Co311 O324 2.264 1_554 S
Co312 O310 2.122 . S
Co312 O323 1.976 . S
Co312 O324 2.327 . S
Co312 O325 2.073 . S
H313 O310 0.980 . S
O314 Co306 2.073 . S
O314 C329 1.245 . S
O315 Co305 2.264 1_554 S
O315 Co306 2.327 . S
O315 C329 1.257 . S
O316 Co306 1.976 . S
O316 C328 1.251 . S
O317 Co307 2.110 1_565 S
O317 C328 1.274 . S
O318 Co307 2.145 . S
O318 C331 1.246 . S
O319 Co311 2.286 . S
O319 C330 1.259 . S
O320 Co311 2.069 . S
O320 C330 1.289 . S
O321 Co311 2.015 . S
O321 C331 1.257 . S
O322 Co307 2.112 1_556 S
O322 C332 1.274 . S
O323 Co312 1.976 . S
O323 C332 1.251 . S
O324 Co311 2.264 1_556 S
O324 Co312 2.327 . S
O324 C333 1.257 . S
O325 Co312 2.073 . S
O325 C333 1.245 . S
C326 O334 1.259 . S
C326 O335 1.289 . S
C327 O336 1.246 . S
C327 O337 1.257 . S
C328 O316 1.251 . S
C328 O317 1.274 . S
C329 O314 1.245 . S
C329 O315 1.257 . S
C330 O319 1.259 . S
C330 O320 1.289 . S
C331 O318 1.246 . S
C331 O321 1.257 . S
C332 O322 1.274 . S
C332 O323 1.251 . S
C333 O324 1.257 . S
C333 O325 1.245 . S
O334 Co305 2.286 . S
O334 C326 1.259 . S
O335 Co305 2.069 . S
O335 C326 1.289 . S
O336 Co307 2.142 1_566 S
O336 C327 1.246 . S
O337 Co305 2.015 . S
O337 C327 1.257 . S
Co338 O341 2.042 1_556 S
Co338 O348 2.264 1_556 S
Co338 O367 2.286 . S
Co338 O368 2.069 . S
Co338 O370 2.015 1_455 S
Co339 O341 2.122 . S
Co339 O347 2.073 . S
Co339 O348 2.327 . S
Co339 O349 1.976 1_455 S
Co340 O341 2.087 . S
Co340 O343 2.087 1_454 S
Co340 O350 2.111 1_455 S
Co340 O351 2.143 . S
Co340 O355 2.111 1_554 S
Co340 O369 2.143 1_454 S
O341 Co338 2.042 1_554 S
O341 Co339 2.122 . S
O341 Co340 2.087 . S
O341 H342 0.980 . S
H342 O341 0.980 . S
O343 Co340 2.087 1_656 S
O343 Co344 2.042 1_556 S
O343 Co345 2.122 . S
O343 H346 0.980 . S
Co344 O343 2.042 1_554 S
Co344 O352 2.286 . S
Co344 O353 2.069 . S
Co344 O354 2.015 1_655 S
Co344 O357 2.264 1_554 S
Co345 O343 2.122 . S
Co345 O356 1.976 1_655 S
Co345 O357 2.327 . S
Co345 O358 2.073 . S
H346 O343 0.980 . S
O347 Co339 2.073 . S
O347 C362 1.245 . S
O348 Co338 2.264 1_554 S
O348 Co339 2.327 . S
O348 C362 1.257 . S
O349 Co339 1.976 1_655 S
O349 C361 1.251 . S
O350 Co340 2.111 1_655 S
O350 C361 1.274 . S
O351 Co340 2.143 . S
O351 C364 1.246 . S
O352 Co344 2.286 . S
O352 C363 1.259 . S
O353 Co344 2.069 . S
O353 C363 1.289 . S
O354 Co344 2.015 1_455 S
O354 C364 1.257 . S
O355 Co340 2.111 1_556 S
O355 C365 1.274 . S
O356 Co345 1.976 1_455 S
O356 C365 1.251 . S
O357 Co344 2.264 1_556 S
O357 Co345 2.327 . S
O357 C366 1.257 . S
O358 Co345 2.073 . S
O358 C366 1.245 . S
C359 O367 1.259 . S
C359 O368 1.289 . S
C360 O369 1.246 . S
C360 O370 1.257 . S
C361 O349 1.251 . S
C361 O350 1.274 . S
C362 O347 1.245 . S
C362 O348 1.257 . S
C363 O352 1.259 . S
C363 O353 1.289 . S
C364 O351 1.246 . S
C364 O354 1.257 . S
C365 O355 1.274 . S
C365 O356 1.251 . S
C366 O357 1.257 . S
C366 O358 1.245 . S
O367 Co338 2.286 . S
O367 C359 1.259 . S
O368 Co338 2.069 . S
O368 C359 1.289 . S
O369 Co340 2.143 1_656 S
O369 C360 1.246 . S
O370 Co338 2.015 1_655 S
O370 C360 1.257 . S
Co371 O374 2.042 1_556 S
Co371 O381 2.264 1_556 S
Co371 O400 2.286 . S
Co371 O401 2.069 . S
Co371 O403 2.015 . S
Co372 O374 2.122 . S
Co372 O380 2.073 . S
Co372 O381 2.327 . S
Co372 O382 1.976 . S
Co373 O374 2.087 . S
Co373 O376 2.087 1_554 S
Co373 O383 2.111 . S
Co373 O384 2.143 . S
Co373 O388 2.111 1_554 S
Co373 O402 2.143 1_554 S
O374 Co371 2.042 1_554 S
O374 Co372 2.122 . S
O374 Co373 2.087 . S
O374 H375 0.980 . S
H375 O374 0.980 . S
O376 Co373 2.087 1_556 S
O376 Co377 2.042 1_556 S
O376 Co378 2.122 . S
O376 H379 0.980 . S
Co377 O376 2.042 1_554 S
Co377 O385 2.286 . S
Co377 O386 2.069 . S
Co377 O387 2.015 . S
Co377 O390 2.264 1_554 S
Co378 O376 2.122 . S
Co378 O389 1.976 . S
Co378 O390 2.327 . S
Co378 O391 2.073 . S
H379 O376 0.980 . S
O380 Co372 2.073 . S
O380 C395 1.245 . S
O381 Co371 2.264 1_554 S
O381 Co372 2.327 . S
O381 C395 1.257 . S
O382 Co372 1.976 . S
O382 C394 1.251 . S
O383 Co373 2.111 . S
O383 C394 1.274 . S
O384 Co373 2.143 . S
O384 C397 1.246 . S
O385 Co377 2.286 . S
O385 C396 1.259 . S
O386 Co377 2.069 . S
O386 C396 1.289 . S
O387 Co377 2.015 . S
O387 C397 1.257 . S
O388 Co373 2.111 1_556 S
O388 C398 1.274 . S
O389 Co378 1.976 . S
O389 C398 1.251 . S
O390 Co377 2.264 1_556 S
O390 Co378 2.327 . S
O390 C399 1.257 . S
O391 Co378 2.073 . S
O391 C399 1.245 . S
C392 O400 1.259 . S
C392 O401 1.289 . S
C393 O402 1.246 . S
C393 O403 1.257 . S
C394 O382 1.251 . S
C394 O383 1.274 . S
C395 O380 1.245 . S
C395 O381 1.257 . S
C396 O385 1.259 . S
C396 O386 1.289 . S
C397 O384 1.246 . S
C397 O387 1.257 . S
C398 O388 1.274 . S
C398 O389 1.251 . S
C399 O390 1.257 . S
C399 O391 1.245 . S
O400 Co371 2.286 . S
O400 C392 1.259 . S
O401 Co371 2.069 . S
O401 C392 1.289 . S
O402 Co373 2.143 1_556 S
O402 C393 1.246 . S
O403 Co371 2.015 . S
O403 C393 1.257 . S
Co404 O407 2.042 . S
Co404 O414 2.264 . S
Co404 O433 2.286 . S
Co404 O434 2.069 . S
Co404 O436 2.015 . S
Co405 O407 2.122 . S
Co405 O413 2.073 . S
Co405 O414 2.327 . S
Co405 O415 1.976 . S
Co406 O407 2.087 . S
Co406 O409 2.087 1_455 S
Co406 O416 2.111 . S
Co406 O417 2.143 1_455 S
Co406 O421 2.111 1_455 S
Co406 O435 2.143 . S
O407 Co404 2.042 . S
O407 Co405 2.122 . S
O407 Co406 2.087 . S
O407 H408 0.980 . S
H408 O407 0.980 . S
O409 Co406 2.087 1_655 S
O409 Co410 2.042 . S
O409 Co411 2.122 . S
O409 H412 0.980 . S
Co410 O409 2.042 . S
Co410 O418 2.286 . S
Co410 O419 2.069 . S
Co410 O420 2.015 . S
Co410 O423 2.264 . S
Co411 O409 2.122 . S
Co411 O422 1.976 . S
Co411 O423 2.327 . S
Co411 O424 2.073 . S
H412 O409 0.980 . S
O413 Co405 2.073 . S
O413 C428 1.245 . S
O414 Co404 2.264 . S
O414 Co405 2.327 . S
O414 C428 1.257 . S
O415 Co405 1.976 . S
O415 C427 1.251 . S
O416 Co406 2.111 . S
O416 C427 1.274 . S
O417 Co406 2.143 1_655 S
O417 C430 1.246 . S
O418 Co410 2.286 . S
O418 C429 1.259 . S
O419 Co410 2.069 . S
O419 C429 1.289 . S
O420 Co410 2.015 . S
O420 C430 1.257 . S
O421 Co406 2.111 1_655 S
O421 C431 1.274 . S
O422 Co411 1.976 . S
O422 C431 1.251 . S
O423 Co410 2.264 . S
O423 Co411 2.327 . S
O423 C432 1.257 . S
O424 Co411 2.073 . S
O424 C432 1.245 . S
C425 O433 1.259 . S
C425 O434 1.289 . S
C426 O435 1.246 . S
C426 O436 1.257 . S
C427 O415 1.251 . S
C427 O416 1.274 . S
C428 O413 1.245 . S
C428 O414 1.257 . S
C429 O418 1.259 . S
C429 O419 1.289 . S
C430 O417 1.246 . S
C430 O420 1.257 . S
C431 O421 1.274 . S
C431 O422 1.251 . S
C432 O423 1.257 . S
C432 O424 1.245 . S
O433 Co404 2.286 . S
O433 C425 1.259 . S
O434 Co404 2.069 . S
O434 C425 1.289 . S
O435 Co406 2.143 . S
O435 C426 1.246 . S
O436 Co404 2.015 . S
O436 C426 1.257 . S
Co437 O440 2.042 . S
Co437 O447 2.264 . S
Co437 O466 2.286 . S
Co437 O467 2.069 . S
Co437 O469 2.015 1_565 S
Co438 O440 2.122 . S
Co438 O446 2.073 . S
Co438 O447 2.327 . S
Co438 O448 1.976 1_565 S
Co439 O440 2.085 1_545 S
Co439 O442 2.089 . S
Co439 O449 2.113 . S
Co439 O450 2.142 1_545 S
Co439 O454 2.110 1_545 S
Co439 O468 2.145 . S
O440 Co437 2.042 . S
O440 Co438 2.122 . S
O440 Co439 2.085 1_565 S
O440 H441 0.980 . S
H441 O440 0.980 . S
O442 Co439 2.089 . S
O442 Co443 2.042 . S
O442 Co444 2.122 . S
O442 H445 0.980 . S
Co443 O442 2.042 . S
Co443 O451 2.286 . S
Co443 O452 2.069 . S
Co443 O453 2.015 1_545 S
Co443 O456 2.264 . S
Co444 O442 2.122 . S
Co444 O455 1.976 1_545 S
Co444 O456 2.327 . S
Co444 O457 2.073 . S
H445 O442 0.980 . S
O446 Co438 2.073 . S
O446 C461 1.245 . S
O447 Co437 2.264 . S
O447 Co438 2.327 . S
O447 C461 1.257 . S
O448 Co438 1.976 1_545 S
O448 C460 1.251 . S
O449 Co439 2.113 . S
O449 C460 1.274 . S
O450 Co439 2.142 1_565 S
O450 C463 1.246 . S
O451 Co443 2.286 . S
O451 C462 1.259 . S
O452 Co443 2.069 . S
O452 C462 1.289 . S
O453 Co443 2.015 1_565 S
O453 C463 1.257 . S
O454 Co439 2.110 1_565 S
O454 C464 1.274 . S
O455 Co444 1.976 1_565 S
O455 C464 1.251 . S
O456 Co443 2.264 . S
O456 Co444 2.327 . S
O456 C465 1.257 . S
O457 Co444 2.073 . S
O457 C465 1.245 . S
C458 O466 1.259 . S
C458 O467 1.289 . S
C459 O468 1.246 . S
C459 O469 1.257 . S
C460 O448 1.251 . S
C460 O449 1.274 . S
C461 O446 1.245 . S
C461 O447 1.257 . S
C462 O451 1.259 . S
C462 O452 1.289 . S
C463 O450 1.246 . S
C463 O453 1.257 . S
C464 O454 1.274 . S
C464 O455 1.251 . S
C465 O456 1.257 . S
C465 O457 1.245 . S
O466 Co437 2.286 . S
O466 C458 1.259 . S
O467 Co437 2.069 . S
O467 C458 1.289 . S
O468 Co439 2.145 . S
O468 C459 1.246 . S
O469 Co437 2.015 1_545 S
O469 C459 1.257 . S
H470 C476 0.930 . S
H471 C480 0.930 . S
H472 C485 0.929 . S
H473 C483 0.929 . S
H474 C478 0.929 . S
H475 C484 0.929 . S
C476 H470 0.930 . S
C476 C477 1.367 . S
C476 C484 1.378 . S
C477 C476 1.367 . S
C477 C485 1.433 . S
C478 H474 0.929 . S
C478 C480 1.378 . S
C478 C482 1.350 . S
C479 C482 1.463 . S
C479 C484 1.350 . S
C479 N487 1.427 . S
C480 H471 0.930 . S
C480 C478 1.378 . S
C480 C481 1.367 . S
C481 C480 1.367 . S
C481 C483 1.433 . S
C482 C478 1.350 . S
C482 C479 1.463 . S
C482 N486 1.427 . S
C483 H473 0.929 . S
C483 C481 1.433 . S
C483 N486 1.384 . S
C484 H475 0.929 . S
C484 C476 1.378 . S
C484 C479 1.350 . S
C485 H472 0.929 . S
C485 C477 1.433 . S
C485 N487 1.384 . S
N486 C482 1.427 . S
N486 C483 1.384 . S
N487 C479 1.427 . S
N487 C485 1.384 . S
H488 C494 0.930 . S
H489 C498 0.930 . S
H490 C503 0.929 . S
H491 C501 0.929 . S
H492 C496 0.929 . S
H493 C502 0.929 . S
C494 H488 0.930 . S
C494 C495 1.367 . S
C494 C502 1.378 . S
C495 C494 1.367 . S
C495 C503 1.433 . S
C496 H492 0.929 . S
C496 C498 1.378 . S
C496 C500 1.350 . S
C497 C500 1.463 . S
C497 C502 1.350 . S
C497 N505 1.427 . S
C498 H489 0.930 . S
C498 C496 1.378 . S
C498 C499 1.367 . S
C499 C498 1.367 . S
C499 C501 1.433 . S
C500 C496 1.350 . S
C500 C497 1.463 . S
C500 N504 1.427 . S
C501 H491 0.929 . S
C501 C499 1.433 . S
C501 N504 1.384 . S
C502 H493 0.929 . S
C502 C494 1.378 . S
C502 C497 1.350 . S
C503 H490 0.929 . S
C503 C495 1.433 . S
C503 N505 1.384 . S
N504 C500 1.427 . S
N504 C501 1.384 . S
N505 C497 1.427 . S
N505 C503 1.384 . S
H506 C512 0.930 . S
H507 C516 0.930 . S
H508 C521 0.929 . S
H509 C519 0.929 . S
H510 C514 0.929 . S
H511 C520 0.929 . S
C512 H506 0.930 . S
C512 C513 1.367 . S
C512 C520 1.378 . S
C513 C512 1.367 . S
C513 C521 1.433 . S
C514 H510 0.929 . S
C514 C516 1.378 . S
C514 C518 1.350 . S
C515 C518 1.463 . S
C515 C520 1.350 . S
C515 N523 1.427 . S
C516 H507 0.930 . S
C516 C514 1.378 . S
C516 C517 1.367 . S
C517 C516 1.367 . S
C517 C519 1.433 . S
C518 C514 1.350 . S
C518 C515 1.463 . S
C518 N522 1.427 . S
C519 H509 0.929 . S
C519 C517 1.433 . S
C519 N522 1.384 . S
C520 H511 0.929 . S
C520 C512 1.378 . S
C520 C515 1.350 . S
C521 H508 0.929 . S
C521 C513 1.433 . S
C521 N523 1.384 . S
N522 C518 1.427 . S
N522 C519 1.384 . S
N523 C515 1.427 . S
N523 C521 1.384 . S
H524 C530 0.930 . S
H525 C534 0.930 . S
H526 C539 0.929 . S
H527 C537 0.929 . S
H528 C532 0.929 . S
H529 C538 0.929 . S
C530 H524 0.930 . S
C530 C531 1.367 . S
C530 C538 1.378 . S
C531 C530 1.367 . S
C531 C539 1.433 . S
C532 H528 0.929 . S
C532 C534 1.378 . S
C532 C536 1.350 . S
C533 C536 1.463 . S
C533 C538 1.350 . S
C533 N541 1.427 . S
C534 H525 0.930 . S
C534 C532 1.378 . S
C534 C535 1.367 . S
C535 C534 1.367 . S
C535 C537 1.433 . S
C536 C532 1.350 . S
C536 C533 1.463 . S
C536 N540 1.427 . S
C537 H527 0.929 . S
C537 C535 1.433 . S
C537 N540 1.384 . S
C538 H529 0.929 . S
C538 C530 1.378 . S
C538 C533 1.350 . S
C539 H526 0.929 . S
C539 C531 1.433 . S
C539 N541 1.384 . S
N540 C536 1.427 . S
N540 C537 1.384 . S
N541 C533 1.427 . S
N541 C539 1.384 . S
H542 C548 0.930 . S
H543 C552 0.930 . S
H544 C557 0.929 . S
H545 C555 0.929 . S
H546 C550 0.929 . S
H547 C556 0.929 . S
C548 H542 0.930 . S
C548 C549 1.367 . S
C548 C556 1.378 . S
C549 C548 1.367 . S
C549 C557 1.433 . S
C550 H546 0.929 . S
C550 C552 1.378 . S
C550 C554 1.350 . S
C551 C554 1.463 . S
C551 C556 1.350 . S
C551 N559 1.427 . S
C552 H543 0.930 . S
C552 C550 1.378 . S
C552 C553 1.367 . S
C553 C552 1.367 . S
C553 C555 1.433 . S
C554 C550 1.350 . S
C554 C551 1.463 . S
C554 N558 1.427 . S
C555 H545 0.929 . S
C555 C553 1.433 . S
C555 N558 1.384 . S
C556 H547 0.929 . S
C556 C548 1.378 . S
C556 C551 1.350 . S
C557 H544 0.929 . S
C557 C549 1.433 . S
C557 N559 1.384 . S
N558 C554 1.427 . S
N558 C555 1.384 . S
N559 C551 1.427 . S
N559 C557 1.384 . S
H560 C566 0.930 . S
H561 C570 0.930 . S
H562 C575 0.929 . S
H563 C573 0.929 . S
H564 C568 0.929 . S
H565 C574 0.929 . S
C566 H560 0.930 . S
C566 C567 1.367 . S
C566 C574 1.378 . S
C567 C566 1.367 . S
C567 C575 1.433 . S
C568 H564 0.929 . S
C568 C570 1.378 . S
C568 C572 1.350 . S
C569 C572 1.463 . S
C569 C574 1.350 . S
C569 N577 1.427 . S
C570 H561 0.930 . S
C570 C568 1.378 . S
C570 C571 1.367 . S
C571 C570 1.367 . S
C571 C573 1.433 . S
C572 C568 1.350 . S
C572 C569 1.463 . S
C572 N576 1.427 . S
C573 H563 0.929 . S
C573 C571 1.433 . S
C573 N576 1.384 . S
C574 H565 0.929 . S
C574 C566 1.378 . S
C574 C569 1.350 . S
C575 H562 0.929 . S
C575 C567 1.433 . S
C575 N577 1.384 . S
N576 C572 1.427 . S
N576 C573 1.384 . S
N577 C569 1.427 . S
N577 C575 1.384 . S
H578 C584 0.930 . S
H579 C588 0.930 . S
H580 C593 0.929 . S
H581 C591 0.929 . S
H582 C586 0.929 . S
H583 C592 0.929 . S
C584 H578 0.930 . S
C584 C585 1.367 . S
C584 C592 1.378 . S
C585 C584 1.367 . S
C585 C593 1.433 . S
C586 H582 0.929 . S
C586 C588 1.378 . S
C586 C590 1.350 . S
C587 C590 1.463 . S
C587 C592 1.350 . S
C587 N595 1.427 . S
C588 H579 0.930 . S
C588 C586 1.378 . S
C588 C589 1.367 . S
C589 C588 1.367 . S
C589 C591 1.433 . S
C590 C586 1.350 . S
C590 C587 1.463 . S
C590 N594 1.427 . S
C591 H581 0.929 . S
C591 C589 1.433 . S
C591 N594 1.384 . S
C592 H583 0.929 . S
C592 C584 1.378 . S
C592 C587 1.350 . S
C593 H580 0.929 . S
C593 C585 1.433 . S
C593 N595 1.384 . S
N594 C590 1.427 . S
N594 C591 1.384 . S
N595 C587 1.427 . S
N595 C593 1.384 . S
H596 C602 0.930 . S
H597 C606 0.930 . S
H598 C611 0.929 . S
H599 C609 0.929 . S
H600 C604 0.929 . S
H601 C610 0.929 . S
C602 H596 0.930 . S
C602 C603 1.367 . S
C602 C610 1.378 . S
C603 C602 1.367 . S
C603 C611 1.433 . S
C604 H600 0.929 . S
C604 C606 1.378 . S
C604 C608 1.350 . S
C605 C608 1.463 . S
C605 C610 1.350 . S
C605 N613 1.427 . S
C606 H597 0.930 . S
C606 C604 1.378 . S
C606 C607 1.367 . S
C607 C606 1.367 . S
C607 C609 1.433 . S
C608 C604 1.350 . S
C608 C605 1.463 . S
C608 N612 1.427 . S
C609 H599 0.929 . S
C609 C607 1.433 . S
C609 N612 1.384 . S
C610 H601 0.929 . S
C610 C602 1.378 . S
C610 C605 1.350 . S
C611 H598 0.929 . S
C611 C603 1.433 . S
C611 N613 1.384 . S
N612 C608 1.427 . S
N612 C609 1.384 . S
N613 C605 1.427 . S
N613 C611 1.384 . S
H614 C620 0.930 . S
H615 C624 0.930 . S
H616 C629 0.929 . S
H617 C627 0.929 . S
H618 C622 0.929 . S
H619 C628 0.929 . S
C620 H614 0.930 . S
C620 C621 1.367 . S
C620 C628 1.378 . S
C621 C620 1.367 . S
C621 C629 1.433 . S
C622 H618 0.929 . S
C622 C624 1.378 . S
C622 C626 1.350 . S
C623 C626 1.463 . S
C623 C628 1.350 . S
C623 N631 1.427 . S
C624 H615 0.930 . S
C624 C622 1.378 . S
C624 C625 1.367 . S
C625 C624 1.367 . S
C625 C627 1.433 . S
C626 C622 1.350 . S
C626 C623 1.463 . S
C626 N630 1.427 . S
C627 H617 0.929 . S
C627 C625 1.433 . S
C627 N630 1.384 . S
C628 H619 0.929 . S
C628 C620 1.378 . S
C628 C623 1.350 . S
C629 H616 0.929 . S
C629 C621 1.433 . S
C629 N631 1.384 . S
N630 C626 1.427 . S
N630 C627 1.384 . S
N631 C623 1.427 . S
N631 C629 1.384 . S
H632 C638 0.930 . S
H633 C642 0.930 . S
H634 C647 0.929 . S
H635 C645 0.929 . S
H636 C640 0.929 . S
H637 C646 0.929 . S
C638 H632 0.930 . S
C638 C639 1.367 . S
C638 C646 1.378 . S
C639 C638 1.367 . S
C639 C647 1.433 . S
C640 H636 0.929 . S
C640 C642 1.378 . S
C640 C644 1.350 . S
C641 C644 1.463 . S
C641 C646 1.350 . S
C641 N649 1.427 . S
C642 H633 0.930 . S
C642 C640 1.378 . S
C642 C643 1.367 . S
C643 C642 1.367 . S
C643 C645 1.433 . S
C644 C640 1.350 . S
C644 C641 1.463 . S
C644 N648 1.427 . S
C645 H635 0.929 . S
C645 C643 1.433 . S
C645 N648 1.384 . S
C646 H637 0.929 . S
C646 C638 1.378 . S
C646 C641 1.350 . S
C647 H634 0.929 . S
C647 C639 1.433 . S
C647 N649 1.384 . S
N648 C644 1.427 . S
N648 C645 1.384 . S
N649 C641 1.427 . S
N649 C647 1.384 . S
H650 C656 0.930 . S
H651 C660 0.930 . S
H652 C665 0.929 . S
H653 C663 0.929 . S
H654 C658 0.929 . S
H655 C664 0.929 . S
C656 H650 0.930 . S
C656 C657 1.367 . S
C656 C664 1.378 . S
C657 C656 1.367 . S
C657 C665 1.433 . S
C658 H654 0.929 . S
C658 C660 1.378 . S
C658 C662 1.350 . S
C659 C662 1.463 . S
C659 C664 1.350 . S
C659 N667 1.427 . S
C660 H651 0.930 . S
C660 C658 1.378 . S
C660 C661 1.367 . S
C661 C660 1.367 . S
C661 C663 1.433 . S
C662 C658 1.350 . S
C662 C659 1.463 . S
C662 N666 1.427 . S
C663 H653 0.929 . S
C663 C661 1.433 . S
C663 N666 1.384 . S
C664 H655 0.929 . S
C664 C656 1.378 . S
C664 C659 1.350 . S
C665 H652 0.929 . S
C665 C657 1.433 . S
C665 N667 1.384 . S
N666 C662 1.427 . S
N666 C663 1.384 . S
N667 C659 1.427 . S
N667 C665 1.384 . S
H668 C674 0.930 . S
H669 C678 0.930 . S
H670 C683 0.929 . S
H671 C681 0.929 . S
H672 C676 0.929 . S
H673 C682 0.929 . S
C674 H668 0.930 . S
C674 C675 1.367 . S
C674 C682 1.378 . S
C675 C674 1.367 . S
C675 C683 1.433 . S
C676 H672 0.929 . S
C676 C678 1.378 . S
C676 C680 1.350 . S
C677 C680 1.463 . S
C677 C682 1.350 . S
C677 N685 1.427 . S
C678 H669 0.930 . S
C678 C676 1.378 . S
C678 C679 1.367 . S
C679 C678 1.367 . S
C679 C681 1.433 . S
C680 C676 1.350 . S
C680 C677 1.463 . S
C680 N684 1.427 . S
C681 H671 0.929 . S
C681 C679 1.433 . S
C681 N684 1.384 . S
C682 H673 0.929 . S
C682 C674 1.378 . S
C682 C677 1.350 . S
C683 H670 0.929 . S
C683 C675 1.433 . S
C683 N685 1.384 . S
N684 C680 1.427 . S
N684 C681 1.384 . S
N685 C677 1.427 . S
N685 C683 1.384 . S
H686 C692 0.930 . S
H687 C696 0.930 . S
H688 C701 0.929 . S
H689 C699 0.929 . S
H690 C694 0.929 . S
H691 C700 0.929 . S
C692 H686 0.930 . S
C692 C693 1.367 . S
C692 C700 1.378 . S
C693 C692 1.367 . S
C693 C701 1.433 . S
C694 H690 0.929 . S
C694 C696 1.378 . S
C694 C698 1.350 . S
C695 C698 1.463 . S
C695 C700 1.350 . S
C695 N703 1.427 . S
C696 H687 0.930 . S
C696 C694 1.378 . S
C696 C697 1.367 . S
C697 C696 1.367 . S
C697 C699 1.433 . S
C698 C694 1.350 . S
C698 C695 1.463 . S
C698 N702 1.427 . S
C699 H689 0.929 . S
C699 C697 1.433 . S
C699 N702 1.384 . S
C700 H691 0.929 . S
C700 C692 1.378 . S
C700 C695 1.350 . S
C701 H688 0.929 . S
C701 C693 1.433 . S
C701 N703 1.384 . S
N702 C698 1.427 . S
N702 C699 1.384 . S
N703 C695 1.427 . S
N703 C701 1.384 . S
H704 C710 0.930 . S
H705 C714 0.930 . S
H706 C719 0.929 . S
H707 C717 0.929 . S
H708 C712 0.929 . S
H709 C718 0.929 . S
C710 H704 0.930 . S
C710 C711 1.367 . S
C710 C718 1.378 . S
C711 C710 1.367 . S
C711 C719 1.433 . S
C712 H708 0.929 . S
C712 C714 1.378 . S
C712 C716 1.350 . S
C713 C716 1.463 . S
C713 C718 1.350 . S
C713 N721 1.427 . S
C714 H705 0.930 . S
C714 C712 1.378 . S
C714 C715 1.367 . S
C715 C714 1.367 . S
C715 C717 1.433 . S
C716 C712 1.350 . S
C716 C713 1.463 . S
C716 N720 1.427 . S
C717 H707 0.929 . S
C717 C715 1.433 . S
C717 N720 1.384 . S
C718 H709 0.929 . S
C718 C710 1.378 . S
C718 C713 1.350 . S
C719 H706 0.929 . S
C719 C711 1.433 . S
C719 N721 1.384 . S
N720 C716 1.427 . S
N720 C717 1.384 . S
N721 C713 1.427 . S
N721 C719 1.384 . S
H722 C728 0.930 . S
H723 C732 0.930 . S
H724 C737 0.929 . S
H725 C735 0.929 . S
H726 C730 0.929 . S
H727 C736 0.929 . S
C728 H722 0.930 . S
C728 C729 1.367 . S
C728 C736 1.378 . S
C729 C728 1.367 . S
C729 C737 1.433 . S
C730 H726 0.929 . S
C730 C732 1.378 . S
C730 C734 1.350 . S
C731 C734 1.463 . S
C731 C736 1.350 . S
C731 N739 1.427 . S
C732 H723 0.930 . S
C732 C730 1.378 . S
C732 C733 1.367 . S
C733 C732 1.367 . S
C733 C735 1.433 . S
C734 C730 1.350 . S
C734 C731 1.463 . S
C734 N738 1.427 . S
C735 H725 0.929 . S
C735 C733 1.433 . S
C735 N738 1.384 . S
C736 H727 0.929 . S
C736 C728 1.378 . S
C736 C731 1.350 . S
C737 H724 0.929 . S
C737 C729 1.433 . S
C737 N739 1.384 . S
N738 C734 1.427 . S
N738 C735 1.384 . S
N739 C731 1.427 . S
N739 C737 1.384 . S
H740 C746 0.930 . S
H741 C750 0.930 . S
H742 C755 0.929 . S
H743 C753 0.929 . S
H744 C748 0.929 . S
H745 C754 0.929 . S
C746 H740 0.930 . S
C746 C747 1.367 . S
C746 C754 1.378 . S
C747 C746 1.367 . S
C747 C755 1.433 . S
C748 H744 0.929 . S
C748 C750 1.378 . S
C748 C752 1.350 . S
C749 C752 1.463 . S
C749 C754 1.350 . S
C749 N757 1.427 . S
C750 H741 0.930 . S
C750 C748 1.378 . S
C750 C751 1.367 . S
C751 C750 1.367 . S
C751 C753 1.433 . S
C752 C748 1.350 . S
C752 C749 1.463 . S
C752 N756 1.427 . S
C753 H743 0.929 . S
C753 C751 1.433 . S
C753 N756 1.384 . S
C754 H745 0.929 . S
C754 C746 1.378 . S
C754 C749 1.350 . S
C755 H742 0.929 . S
C755 C747 1.433 . S
C755 N757 1.384 . S
N756 C752 1.427 . S
N756 C753 1.384 . S
N757 C749 1.427 . S
N757 C755 1.384 . S
H758 C764 0.930 . S
H759 C768 0.930 . S
H760 C773 0.929 . S
H761 C771 0.929 . S
H762 C766 0.929 . S
H763 C772 0.929 . S
C764 H758 0.930 . S
C764 C765 1.367 . S
C764 C772 1.378 . S
C765 C764 1.367 . S
C765 C773 1.433 . S
C766 H762 0.929 . S
C766 C768 1.378 . S
C766 C770 1.350 . S
C767 C770 1.463 . S
C767 C772 1.350 . S
C767 N775 1.427 . S
C768 H759 0.930 . S
C768 C766 1.378 . S
C768 C769 1.367 . S
C769 C768 1.367 . S
C769 C771 1.433 . S
C770 C766 1.350 . S
C770 C767 1.463 . S
C770 N774 1.427 . S
C771 H761 0.929 . S
C771 C769 1.433 . S
C771 N774 1.384 . S
C772 H763 0.929 . S
C772 C764 1.378 . S
C772 C767 1.350 . S
C773 H760 0.929 . S
C773 C765 1.433 . S
C773 N775 1.384 . S
N774 C770 1.427 . S
N774 C771 1.384 . S
N775 C767 1.427 . S
N775 C773 1.384 . S
H776 C782 0.930 . S
H777 C786 0.930 . S
H778 C791 0.929 . S
H779 C789 0.929 . S
H780 C784 0.929 . S
H781 C790 0.929 . S
C782 H776 0.930 . S
C782 C783 1.367 . S
C782 C790 1.378 . S
C783 C782 1.367 . S
C783 C791 1.433 . S
C784 H780 0.929 . S
C784 C786 1.378 . S
C784 C788 1.350 . S
C785 C788 1.463 . S
C785 C790 1.350 . S
C785 N793 1.427 . S
C786 H777 0.930 . S
C786 C784 1.378 . S
C786 C787 1.367 . S
C787 C786 1.367 . S
C787 C789 1.433 . S
C788 C784 1.350 . S
C788 C785 1.463 . S
C788 N792 1.427 . S
C789 H779 0.929 . S
C789 C787 1.433 . S
C789 N792 1.384 . S
C790 H781 0.929 . S
C790 C782 1.378 . S
C790 C785 1.350 . S
C791 H778 0.929 . S
C791 C783 1.433 . S
C791 N793 1.384 . S
N792 C788 1.427 . S
N792 C789 1.384 . S
N793 C785 1.427 . S
N793 C791 1.384 . S
H794 C800 0.930 . S
H795 C804 0.930 . S
H796 C809 0.929 . S
H797 C807 0.929 . S
H798 C802 0.929 . S
H799 C808 0.929 . S
C800 H794 0.930 . S
C800 C801 1.367 . S
C800 C808 1.378 . S
C801 C800 1.367 . S
C801 C809 1.433 . S
C802 H798 0.929 . S
C802 C804 1.378 . S
C802 C806 1.350 . S
C803 C806 1.463 . S
C803 C808 1.350 . S
C803 N811 1.427 . S
C804 H795 0.930 . S
C804 C802 1.378 . S
C804 C805 1.367 . S
C805 C804 1.367 . S
C805 C807 1.433 . S
C806 C802 1.350 . S
C806 C803 1.463 . S
C806 N810 1.427 . S
C807 H797 0.929 . S
C807 C805 1.433 . S
C807 N810 1.384 . S
C808 H799 0.929 . S
C808 C800 1.378 . S
C808 C803 1.350 . S
C809 H796 0.929 . S
C809 C801 1.433 . S
C809 N811 1.384 . S
N810 C806 1.427 . S
N810 C807 1.384 . S
N811 C803 1.427 . S
N811 C809 1.384 . S
H812 C818 0.930 . S
H813 C822 0.930 . S
H814 C827 0.929 . S
H815 C825 0.929 1_554 S
H816 C820 0.929 . S
H817 C826 0.929 . S
C818 H812 0.930 . S
C818 C819 1.367 . S
C818 C826 1.378 . S
C819 C818 1.367 . S
C819 C827 1.433 . S
C820 H816 0.929 . S
C820 C822 1.378 . S
C820 C824 1.350 . S
C821 C824 1.463 . S
C821 C826 1.350 . S
C821 N829 1.427 . S
C822 H813 0.930 . S
C822 C820 1.378 . S
C822 C823 1.367 . S
C823 C822 1.367 . S
C823 C825 1.433 . S
C824 C820 1.350 . S
C824 C821 1.463 . S
C824 N828 1.427 . S
C825 H815 0.929 1_556 S
C825 C823 1.433 . S
C825 N828 1.384 . S
C826 H817 0.929 . S
C826 C818 1.378 . S
C826 C821 1.350 . S
C827 H814 0.929 . S
C827 C819 1.433 . S
C827 N829 1.384 . S
N828 C824 1.427 . S
N828 C825 1.384 . S
N829 C821 1.427 . S
N829 C827 1.384 . S
H830 C836 0.930 . S
H831 C840 0.930 . S
H832 C845 0.929 . S
H833 C843 0.929 . S
H834 C838 0.929 . S
H835 C844 0.929 . S
C836 H830 0.930 . S
C836 C837 1.367 . S
C836 C844 1.378 . S
C837 C836 1.367 . S
C837 C845 1.433 . S
C838 H834 0.929 . S
C838 C840 1.378 . S
C838 C842 1.350 . S
C839 C842 1.463 . S
C839 C844 1.350 . S
C839 N847 1.427 . S
C840 H831 0.930 . S
C840 C838 1.378 . S
C840 C841 1.367 . S
C841 C840 1.367 . S
C841 C843 1.433 . S
C842 C838 1.350 . S
C842 C839 1.463 . S
C842 N846 1.427 . S
C843 H833 0.929 . S
C843 C841 1.433 . S
C843 N846 1.384 . S
C844 H835 0.929 . S
C844 C836 1.378 . S
C844 C839 1.350 . S
C845 H832 0.929 . S
C845 C837 1.433 . S
C845 N847 1.384 . S
N846 C842 1.427 . S
N846 C843 1.384 . S
N847 C839 1.427 . S
N847 C845 1.384 . S
H848 C854 0.930 . S
H849 C858 0.930 . S
H850 C863 0.929 . S
H851 C861 0.929 . S
H852 C856 0.929 . S
H853 C862 0.929 . S
C854 H848 0.930 . S
C854 C855 1.367 . S
C854 C862 1.378 . S
C855 C854 1.367 . S
C855 C863 1.433 . S
C856 H852 0.929 . S
C856 C858 1.378 . S
C856 C860 1.350 . S
C857 C860 1.463 . S
C857 C862 1.350 . S
C857 N865 1.427 . S
C858 H849 0.930 . S
C858 C856 1.378 . S
C858 C859 1.367 . S
C859 C858 1.367 . S
C859 C861 1.433 . S
C860 C856 1.350 . S
C860 C857 1.463 . S
C860 N864 1.427 . S
C861 H851 0.929 . S
C861 C859 1.433 . S
C861 N864 1.384 . S
C862 H853 0.929 . S
C862 C854 1.378 . S
C862 C857 1.350 . S
C863 H850 0.929 . S
C863 C855 1.433 . S
C863 N865 1.384 . S
N864 C860 1.427 . S
N864 C861 1.384 . S
N865 C857 1.427 . S
N865 C863 1.384 . S
H866 C872 0.930 . S
H867 C876 0.930 . S
H868 C881 0.929 . S
H869 C879 0.929 . S
H870 C874 0.929 . S
H871 C880 0.929 . S
C872 H866 0.930 . S
C872 C873 1.367 . S
C872 C880 1.378 . S
C873 C872 1.367 . S
C873 C881 1.433 . S
C874 H870 0.929 . S
C874 C876 1.378 . S
C874 C878 1.350 . S
C875 C878 1.463 . S
C875 C880 1.350 . S
C875 N883 1.427 . S
C876 H867 0.930 . S
C876 C874 1.378 . S
C876 C877 1.367 . S
C877 C876 1.367 . S
C877 C879 1.433 . S
C878 C874 1.350 . S
C878 C875 1.463 . S
C878 N882 1.427 . S
C879 H869 0.929 . S
C879 C877 1.433 . S
C879 N882 1.384 . S
C880 H871 0.929 . S
C880 C872 1.378 . S
C880 C875 1.350 . S
C881 H868 0.929 . S
C881 C873 1.433 . S
C881 N883 1.384 . S
N882 C878 1.427 . S
N882 C879 1.384 . S
N883 C875 1.427 . S
N883 C881 1.384 . S
H884 C890 0.930 . S
H885 C894 0.930 . S
H886 C899 0.929 . S
H887 C897 0.929 . S
H888 C892 0.929 . S
H889 C898 0.929 . S
C890 H884 0.930 . S
C890 C891 1.367 . S
C890 C898 1.378 . S
C891 C890 1.367 . S
C891 C899 1.433 . S
C892 H888 0.929 . S
C892 C894 1.378 . S
C892 C896 1.350 . S
C893 C896 1.463 . S
C893 C898 1.350 . S
C893 N901 1.427 . S
C894 H885 0.930 . S
C894 C892 1.378 . S
C894 C895 1.367 . S
C895 C894 1.367 . S
C895 C897 1.433 . S
C896 C892 1.350 . S
C896 C893 1.463 . S
C896 N900 1.427 . S
C897 H887 0.929 . S
C897 C895 1.433 . S
C897 N900 1.384 . S
C898 H889 0.929 . S
C898 C890 1.378 . S
C898 C893 1.350 . S
C899 H886 0.929 . S
C899 C891 1.433 . S
C899 N901 1.384 . S
N900 C896 1.427 . S
N900 C897 1.384 . S
N901 C893 1.427 . S
N901 C899 1.384 . S
H902 C908 0.930 . S
H903 C912 0.930 1_554 S
H904 C917 0.929 . S
H905 C915 0.929 . S
H906 C910 0.929 . S
H907 C916 0.929 . S
C908 H902 0.930 . S
C908 C909 1.367 . S
C908 C916 1.378 . S
C909 C908 1.367 . S
C909 C917 1.433 . S
C910 H906 0.929 . S
C910 C912 1.378 . S
C910 C914 1.350 . S
C911 C914 1.463 . S
C911 C916 1.350 . S
C911 N919 1.427 . S
C912 H903 0.930 1_556 S
C912 C910 1.378 . S
C912 C913 1.367 . S
C913 C912 1.367 . S
C913 C915 1.433 . S
C914 C910 1.350 . S
C914 C911 1.463 . S
C914 N918 1.427 . S
C915 H905 0.929 . S
C915 C913 1.433 . S
C915 N918 1.384 . S
C916 H907 0.929 . S
C916 C908 1.378 . S
C916 C911 1.350 . S
C917 H904 0.929 . S
C917 C909 1.433 . S
C917 N919 1.384 . S
N918 C914 1.427 . S
N918 C915 1.384 . S
N919 C911 1.427 . S
N919 C917 1.384 . S
H920 C926 0.930 . S
H921 C930 0.930 . S
H922 C935 0.929 . S
H923 C933 0.929 . S
H924 C928 0.929 . S
H925 C934 0.929 . S
C926 H920 0.930 . S
C926 C927 1.367 . S
C926 C934 1.378 . S
C927 C926 1.367 . S
C927 C935 1.433 . S
C928 H924 0.929 . S
C928 C930 1.378 . S
C928 C932 1.350 . S
C929 C932 1.463 . S
C929 C934 1.350 . S
C929 N937 1.427 . S
C930 H921 0.930 . S
C930 C928 1.378 . S
C930 C931 1.367 . S
C931 C930 1.367 . S
C931 C933 1.433 . S
C932 C928 1.350 . S
C932 C929 1.463 . S
C932 N936 1.427 . S
C933 H923 0.929 . S
C933 C931 1.433 . S
C933 N936 1.384 . S
C934 H925 0.929 . S
C934 C926 1.378 . S
C934 C929 1.350 . S
C935 H922 0.929 . S
C935 C927 1.433 . S
C935 N937 1.384 . S
N936 C932 1.427 . S
N936 C933 1.384 . S
N937 C929 1.427 . S
N937 C935 1.384 . S
H938 C944 0.930 . S
H939 C948 0.930 . S
H940 C953 0.929 . S
H941 C951 0.929 . S
H942 C946 0.929 . S
H943 C952 0.929 . S
C944 H938 0.930 . S
C944 C945 1.367 . S
C944 C952 1.378 . S
C945 C944 1.367 . S
C945 C953 1.433 . S
C946 H942 0.929 . S
C946 C948 1.378 . S
C946 C950 1.350 . S
C947 C950 1.463 . S
C947 C952 1.350 . S
C947 N955 1.427 . S
C948 H939 0.930 . S
C948 C946 1.378 . S
C948 C949 1.367 . S
C949 C948 1.367 . S
C949 C951 1.433 . S
C950 C946 1.350 . S
C950 C947 1.463 . S
C950 N954 1.427 . S
C951 H941 0.929 . S
C951 C949 1.433 . S
C951 N954 1.384 . S
C952 H943 0.929 . S
C952 C944 1.378 . S
C952 C947 1.350 . S
C953 H940 0.929 . S
C953 C945 1.433 . S
C953 N955 1.384 . S
N954 C950 1.427 . S
N954 C951 1.384 . S
N955 C947 1.427 . S
N955 C953 1.384 . S
H956 C962 0.930 . S
H957 C966 0.930 . S
H958 C971 0.929 . S
H959 C969 0.929 . S
H960 C964 0.929 . S
H961 C970 0.929 . S
C962 H956 0.930 . S
C962 C963 1.367 . S
C962 C970 1.378 . S
C963 C962 1.367 . S
C963 C971 1.433 . S
C964 H960 0.929 . S
C964 C966 1.378 . S
C964 C968 1.350 . S
C965 C968 1.463 . S
C965 C970 1.350 . S
C965 N973 1.427 . S
C966 H957 0.930 . S
C966 C964 1.378 . S
C966 C967 1.367 . S
C967 C966 1.367 . S
C967 C969 1.433 . S
C968 C964 1.350 . S
C968 C965 1.463 . S
C968 N972 1.427 . S
C969 H959 0.929 . S
C969 C967 1.433 . S
C969 N972 1.384 . S
C970 H961 0.929 . S
C970 C962 1.378 . S
C970 C965 1.350 . S
C971 H958 0.929 . S
C971 C963 1.433 . S
C971 N973 1.384 . S
N972 C968 1.427 . S
N972 C969 1.384 . S
N973 C965 1.427 . S
N973 C971 1.384 . S
H974 C980 0.930 . S
H975 C984 0.930 . S
H976 C989 0.929 . S
H977 C987 0.929 . S
H978 C982 0.929 . S
H979 C988 0.929 . S
C980 H974 0.930 . S
C980 C981 1.367 . S
C980 C988 1.378 . S
C981 C980 1.367 . S
C981 C989 1.433 . S
C982 H978 0.929 . S
C982 C984 1.378 . S
C982 C986 1.350 . S
C983 C986 1.463 . S
C983 C988 1.350 . S
C983 N991 1.427 . S
C984 H975 0.930 . S
C984 C982 1.378 . S
C984 C985 1.367 . S
C985 C984 1.367 . S
C985 C987 1.433 . S
C986 C982 1.350 . S
C986 C983 1.463 . S
C986 N990 1.427 . S
C987 H977 0.929 . S
C987 C985 1.433 . S
C987 N990 1.384 . S
C988 H979 0.929 . S
C988 C980 1.378 . S
C988 C983 1.350 . S
C989 H976 0.929 . S
C989 C981 1.433 . S
C989 N991 1.384 . S
N990 C986 1.427 . S
N990 C987 1.384 . S
N991 C983 1.427 . S
N991 C989 1.384 . S
H992 C998 0.930 . S
H993 C1002 0.930 . S
H994 C1007 0.929 . S
H995 C1005 0.929 . S
H996 C1000 0.929 . S
H997 C1006 0.929 . S
C998 H992 0.930 . S
C998 C999 1.367 . S
C998 C1006 1.378 . S
C999 C998 1.367 . S
C999 C1007 1.433 . S
C1000 H996 0.929 . S
C1000 C1002 1.378 . S
C1000 C1004 1.350 . S
C1001 C1004 1.463 . S
C1001 C1006 1.350 . S
C1001 N1009 1.427 . S
C1002 H993 0.930 . S
C1002 C1000 1.378 . S
C1002 C1003 1.367 . S
C1003 C1002 1.367 . S
C1003 C1005 1.433 . S
C1004 C1000 1.350 . S
C1004 C1001 1.463 . S
C1004 N1008 1.427 . S
C1005 H995 0.929 . S
C1005 C1003 1.433 . S
C1005 N1008 1.384 . S
C1006 H997 0.929 . S
C1006 C998 1.378 . S
C1006 C1001 1.350 . S
C1007 H994 0.929 . S
C1007 C999 1.433 . S
C1007 N1009 1.384 . S
N1008 C1004 1.427 . S
N1008 C1005 1.384 . S
N1009 C1001 1.427 . S
N1009 C1007 1.384 . S
H1010 C1016 0.930 . S
H1011 C1020 0.930 . S
H1012 C1025 0.929 . S
H1013 C1023 0.929 . S
H1014 C1018 0.929 . S
H1015 C1024 0.929 . S
C1016 H1010 0.930 . S
C1016 C1017 1.367 . S
C1016 C1024 1.378 . S
C1017 C1016 1.367 . S
C1017 C1025 1.433 . S
C1018 H1014 0.929 . S
C1018 C1020 1.378 . S
C1018 C1022 1.350 . S
C1019 C1022 1.463 . S
C1019 C1024 1.350 . S
C1019 N1027 1.427 . S
C1020 H1011 0.930 . S
C1020 C1018 1.378 . S
C1020 C1021 1.367 . S
C1021 C1020 1.367 . S
C1021 C1023 1.433 . S
C1022 C1018 1.350 . S
C1022 C1019 1.463 . S
C1022 N1026 1.427 . S
C1023 H1013 0.929 . S
C1023 C1021 1.433 . S
C1023 N1026 1.384 . S
C1024 H1015 0.929 . S
C1024 C1016 1.378 . S
C1024 C1019 1.350 . S
C1025 H1012 0.929 . S
C1025 C1017 1.433 . S
C1025 N1027 1.384 . S
N1026 C1022 1.427 . S
N1026 C1023 1.384 . S
N1027 C1019 1.427 . S
N1027 C1025 1.384 . S
H1028 C1034 0.930 . S
H1029 C1038 0.930 . S
H1030 C1043 0.929 . S
H1031 C1041 0.929 . S
H1032 C1036 0.929 . S
H1033 C1042 0.929 . S
C1034 H1028 0.930 . S
C1034 C1035 1.367 . S
C1034 C1042 1.378 . S
C1035 C1034 1.367 . S
C1035 C1043 1.433 . S
C1036 H1032 0.929 . S
C1036 C1038 1.378 . S
C1036 C1040 1.350 . S
C1037 C1040 1.463 . S
C1037 C1042 1.350 . S
C1037 N1045 1.427 . S
C1038 H1029 0.930 . S
C1038 C1036 1.378 . S
C1038 C1039 1.367 . S
C1039 C1038 1.367 . S
C1039 C1041 1.433 . S
C1040 C1036 1.350 . S
C1040 C1037 1.463 . S
C1040 N1044 1.427 . S
C1041 H1031 0.929 . S
C1041 C1039 1.433 . S
C1041 N1044 1.384 . S
C1042 H1033 0.929 . S
C1042 C1034 1.378 . S
C1042 C1037 1.350 . S
C1043 H1030 0.929 . S
C1043 C1035 1.433 . S
C1043 N1045 1.384 . S
N1044 C1040 1.427 . S
N1044 C1041 1.384 . S
N1045 C1037 1.427 . S
N1045 C1043 1.384 . S
H1046 C1052 0.930 . S
H1047 C1056 0.930 . S
H1048 C1061 0.929 . S
H1049 C1059 0.929 . S
H1050 C1054 0.929 . S
H1051 C1060 0.929 . S
C1052 H1046 0.930 . S
C1052 C1053 1.367 . S
C1052 C1060 1.378 . S
C1053 C1052 1.367 . S
C1053 C1061 1.433 . S
C1054 H1050 0.929 . S
C1054 C1056 1.378 . S
C1054 C1058 1.350 . S
C1055 C1058 1.463 . S
C1055 C1060 1.350 . S
C1055 N1063 1.427 . S
C1056 H1047 0.930 . S
C1056 C1054 1.378 . S
C1056 C1057 1.367 . S
C1057 C1056 1.367 . S
C1057 C1059 1.433 . S
C1058 C1054 1.350 . S
C1058 C1055 1.463 . S
C1058 N1062 1.427 . S
C1059 H1049 0.929 . S
C1059 C1057 1.433 . S
C1059 N1062 1.384 . S
C1060 H1051 0.929 . S
C1060 C1052 1.378 . S
C1060 C1055 1.350 . S
C1061 H1048 0.929 . S
C1061 C1053 1.433 . S
C1061 N1063 1.384 . S
N1062 C1058 1.427 . S
N1062 C1059 1.384 . S
N1063 C1055 1.427 . S
N1063 C1061 1.384 . S
H1064 C1070 0.930 . S
H1065 C1074 0.930 . S
H1066 C1079 0.929 . S
H1067 C1077 0.929 . S
H1068 C1072 0.929 . S
H1069 C1078 0.929 . S
C1070 H1064 0.930 . S
C1070 C1071 1.367 . S
C1070 C1078 1.378 . S
C1071 C1070 1.367 . S
C1071 C1079 1.433 . S
C1072 H1068 0.929 . S
C1072 C1074 1.378 . S
C1072 C1076 1.350 . S
C1073 C1076 1.463 . S
C1073 C1078 1.350 . S
C1073 N1081 1.427 . S
C1074 H1065 0.930 . S
C1074 C1072 1.378 . S
C1074 C1075 1.367 . S
C1075 C1074 1.367 . S
C1075 C1077 1.433 . S
C1076 C1072 1.350 . S
C1076 C1073 1.463 . S
C1076 N1080 1.427 . S
C1077 H1067 0.929 . S
C1077 C1075 1.433 . S
C1077 N1080 1.384 . S
C1078 H1069 0.929 . S
C1078 C1070 1.378 . S
C1078 C1073 1.350 . S
C1079 H1066 0.929 . S
C1079 C1071 1.433 . S
C1079 N1081 1.384 . S
N1080 C1076 1.427 . S
N1080 C1077 1.384 . S
N1081 C1073 1.427 . S
N1081 C1079 1.384 . S
H1082 C1088 0.930 . S
H1083 C1092 0.930 . S
H1084 C1097 0.929 . S
H1085 C1095 0.929 . S
H1086 C1090 0.929 . S
H1087 C1096 0.929 . S
C1088 H1082 0.930 . S
C1088 C1089 1.367 . S
C1088 C1096 1.378 . S
C1089 C1088 1.367 . S
C1089 C1097 1.433 . S
C1090 H1086 0.929 . S
C1090 C1092 1.378 . S
C1090 C1094 1.350 . S
C1091 C1094 1.463 . S
C1091 C1096 1.350 . S
C1091 N1099 1.427 . S
C1092 H1083 0.930 . S
C1092 C1090 1.378 . S
C1092 C1093 1.367 . S
C1093 C1092 1.367 . S
C1093 C1095 1.433 . S
C1094 C1090 1.350 . S
C1094 C1091 1.463 . S
C1094 N1098 1.427 . S
C1095 H1085 0.929 . S
C1095 C1093 1.433 . S
C1095 N1098 1.384 . S
C1096 H1087 0.929 . S
C1096 C1088 1.378 . S
C1096 C1091 1.350 . S
C1097 H1084 0.929 . S
C1097 C1089 1.433 . S
C1097 N1099 1.384 . S
N1098 C1094 1.427 . S
N1098 C1095 1.384 . S
N1099 C1091 1.427 . S
N1099 C1097 1.384 . S
H1100 C1106 0.930 . S
H1101 C1110 0.930 . S
H1102 C1115 0.929 . S
H1103 C1113 0.929 . S
H1104 C1108 0.929 . S
H1105 C1114 0.929 . S
C1106 H1100 0.930 . S
C1106 C1107 1.367 . S
C1106 C1114 1.378 . S
C1107 C1106 1.367 . S
C1107 C1115 1.433 . S
C1108 H1104 0.929 . S
C1108 C1110 1.378 . S
C1108 C1112 1.350 . S
C1109 C1112 1.463 . S
C1109 C1114 1.350 . S
C1109 N1117 1.427 . S
C1110 H1101 0.930 . S
C1110 C1108 1.378 . S
C1110 C1111 1.367 . S
C1111 C1110 1.367 . S
C1111 C1113 1.433 . S
C1112 C1108 1.350 . S
C1112 C1109 1.463 . S
C1112 N1116 1.427 . S
C1113 H1103 0.929 . S
C1113 C1111 1.433 . S
C1113 N1116 1.384 . S
C1114 H1105 0.929 . S
C1114 C1106 1.378 . S
C1114 C1109 1.350 . S
C1115 H1102 0.929 . S
C1115 C1107 1.433 . S
C1115 N1117 1.384 . S
N1116 C1112 1.427 . S
N1116 C1113 1.384 . S
N1117 C1109 1.427 . S
N1117 C1115 1.384 . S
H1118 C1124 0.930 . S
H1119 C1128 0.930 . S
H1120 C1133 0.929 . S
H1121 C1131 0.929 . S
H1122 C1126 0.929 . S
H1123 C1132 0.929 . S
C1124 H1118 0.930 . S
C1124 C1125 1.367 . S
C1124 C1132 1.378 . S
C1125 C1124 1.367 . S
C1125 C1133 1.433 . S
C1126 H1122 0.929 . S
C1126 C1128 1.378 . S
C1126 C1130 1.350 . S
C1127 C1130 1.463 . S
C1127 C1132 1.350 . S
C1127 N1135 1.427 . S
C1128 H1119 0.930 . S
C1128 C1126 1.378 . S
C1128 C1129 1.367 . S
C1129 C1128 1.367 . S
C1129 C1131 1.433 . S
C1130 C1126 1.350 . S
C1130 C1127 1.463 . S
C1130 N1134 1.427 . S
C1131 H1121 0.929 . S
C1131 C1129 1.433 . S
C1131 N1134 1.384 . S
C1132 H1123 0.929 . S
C1132 C1124 1.378 . S
C1132 C1127 1.350 . S
C1133 H1120 0.929 . S
C1133 C1125 1.433 . S
C1133 N1135 1.384 . S
N1134 C1130 1.427 . S
N1134 C1131 1.384 . S
N1135 C1127 1.427 . S
N1135 C1133 1.384 . S
H1136 C1142 0.930 . S
H1137 C1146 0.930 . S
H1138 C1151 0.929 . S
H1139 C1149 0.929 . S
H1140 C1144 0.929 . S
H1141 C1150 0.929 . S
C1142 H1136 0.930 . S
C1142 C1143 1.367 . S
C1142 C1150 1.378 . S
C1143 C1142 1.367 . S
C1143 C1151 1.433 . S
C1144 H1140 0.929 . S
C1144 C1146 1.378 . S
C1144 C1148 1.350 . S
C1145 C1148 1.463 . S
C1145 C1150 1.350 . S
C1145 N1153 1.427 . S
C1146 H1137 0.930 . S
C1146 C1144 1.378 . S
C1146 C1147 1.367 . S
C1147 C1146 1.367 . S
C1147 C1149 1.433 . S
C1148 C1144 1.350 . S
C1148 C1145 1.463 . S
C1148 N1152 1.427 . S
C1149 H1139 0.929 . S
C1149 C1147 1.433 . S
C1149 N1152 1.384 . S
C1150 H1141 0.929 . S
C1150 C1142 1.378 . S
C1150 C1145 1.350 . S
C1151 H1138 0.929 . S
C1151 C1143 1.433 . S
C1151 N1153 1.384 . S
N1152 C1148 1.427 . S
N1152 C1149 1.384 . S
N1153 C1145 1.427 . S
N1153 C1151 1.384 . S
H1154 C1160 0.930 . S
H1155 C1164 0.930 . S
H1156 C1169 0.929 . S
H1157 C1167 0.929 . S
H1158 C1162 0.929 . S
H1159 C1168 0.929 . S
C1160 H1154 0.930 . S
C1160 C1161 1.367 . S
C1160 C1168 1.378 . S
C1161 C1160 1.367 . S
C1161 C1169 1.433 . S
C1162 H1158 0.929 . S
C1162 C1164 1.378 . S
C1162 C1166 1.350 . S
C1163 C1166 1.463 . S
C1163 C1168 1.350 . S
C1163 N1171 1.427 . S
C1164 H1155 0.930 . S
C1164 C1162 1.378 . S
C1164 C1165 1.367 . S
C1165 C1164 1.367 . S
C1165 C1167 1.433 . S
C1166 C1162 1.350 . S
C1166 C1163 1.463 . S
C1166 N1170 1.427 . S
C1167 H1157 0.929 . S
C1167 C1165 1.433 . S
C1167 N1170 1.384 . S
C1168 H1159 0.929 . S
C1168 C1160 1.378 . S
C1168 C1163 1.350 . S
C1169 H1156 0.929 . S
C1169 C1161 1.433 . S
C1169 N1171 1.384 . S
N1170 C1166 1.427 . S
N1170 C1167 1.384 . S
N1171 C1163 1.427 . S
N1171 C1169 1.384 . S
H1172 C1178 0.930 . S
H1173 C1182 0.930 . S
H1174 C1187 0.929 . S
H1175 C1185 0.929 . S
H1176 C1180 0.929 . S
H1177 C1186 0.929 . S
C1178 H1172 0.930 . S
C1178 C1179 1.367 . S
C1178 C1186 1.378 . S
C1179 C1178 1.367 . S
C1179 C1187 1.433 . S
C1180 H1176 0.929 . S
C1180 C1182 1.378 . S
C1180 C1184 1.350 . S
C1181 C1184 1.463 . S
C1181 C1186 1.350 . S
C1181 N1189 1.427 . S
C1182 H1173 0.930 . S
C1182 C1180 1.378 . S
C1182 C1183 1.367 . S
C1183 C1182 1.367 . S
C1183 C1185 1.433 . S
C1184 C1180 1.350 . S
C1184 C1181 1.463 . S
C1184 N1188 1.427 . S
C1185 H1175 0.929 . S
C1185 C1183 1.433 . S
C1185 N1188 1.384 . S
C1186 H1177 0.929 . S
C1186 C1178 1.378 . S
C1186 C1181 1.350 . S
C1187 H1174 0.929 . S
C1187 C1179 1.433 . S
C1187 N1189 1.384 . S
N1188 C1184 1.427 . S
N1188 C1185 1.384 . S
N1189 C1181 1.427 . S
N1189 C1187 1.384 . S
H1190 C1196 0.930 . S
H1191 C1200 0.930 . S
H1192 C1205 0.929 . S
H1193 C1203 0.929 . S
H1194 C1198 0.929 . S
H1195 C1204 0.929 . S
C1196 H1190 0.930 . S
C1196 C1197 1.367 . S
C1196 C1204 1.378 . S
C1197 C1196 1.367 . S
C1197 C1205 1.433 . S
C1198 H1194 0.929 . S
C1198 C1200 1.378 . S
C1198 C1202 1.350 . S
C1199 C1202 1.463 . S
C1199 C1204 1.350 . S
C1199 N1207 1.427 . S
C1200 H1191 0.930 . S
C1200 C1198 1.378 . S
C1200 C1201 1.367 . S
C1201 C1200 1.367 . S
C1201 C1203 1.433 . S
C1202 C1198 1.350 . S
C1202 C1199 1.463 . S
C1202 N1206 1.427 . S
C1203 H1193 0.929 . S
C1203 C1201 1.433 . S
C1203 N1206 1.384 . S
C1204 H1195 0.929 . S
C1204 C1196 1.378 . S
C1204 C1199 1.350 . S
C1205 H1192 0.929 . S
C1205 C1197 1.433 . S
C1205 N1207 1.384 . S
N1206 C1202 1.427 . S
N1206 C1203 1.384 . S
N1207 C1199 1.427 . S
N1207 C1205 1.384 . S
H1208 C1214 0.930 . S
H1209 C1218 0.930 . S
H1210 C1223 0.929 . S
H1211 C1221 0.929 . S
H1212 C1216 0.929 . S
H1213 C1222 0.929 . S
C1214 H1208 0.930 . S
C1214 C1215 1.367 . S
C1214 C1222 1.378 . S
C1215 C1214 1.367 . S
C1215 C1223 1.433 . S
C1216 H1212 0.929 . S
C1216 C1218 1.378 . S
C1216 C1220 1.350 . S
C1217 C1220 1.463 . S
C1217 C1222 1.350 . S
C1217 N1225 1.427 . S
C1218 H1209 0.930 . S
C1218 C1216 1.378 . S
C1218 C1219 1.367 . S
C1219 C1218 1.367 . S
C1219 C1221 1.433 . S
C1220 C1216 1.350 . S
C1220 C1217 1.463 . S
C1220 N1224 1.427 . S
C1221 H1211 0.929 . S
C1221 C1219 1.433 . S
C1221 N1224 1.384 . S
C1222 H1213 0.929 . S
C1222 C1214 1.378 . S
C1222 C1217 1.350 . S
C1223 H1210 0.929 . S
C1223 C1215 1.433 . S
C1223 N1225 1.384 . S
N1224 C1220 1.427 . S
N1224 C1221 1.384 . S
N1225 C1217 1.427 . S
N1225 C1223 1.384 . S
H1226 C1232 0.930 . S
H1227 C1236 0.930 . S
H1228 C1241 0.929 . S
H1229 C1239 0.929 . S
H1230 C1234 0.929 . S
H1231 C1240 0.929 . S
C1232 H1226 0.930 . S
C1232 C1233 1.367 . S
C1232 C1240 1.378 . S
C1233 C1232 1.367 . S
C1233 C1241 1.433 . S
C1234 H1230 0.929 . S
C1234 C1236 1.378 . S
C1234 C1238 1.350 . S
C1235 C1238 1.463 . S
C1235 C1240 1.350 . S
C1235 N1243 1.427 . S
C1236 H1227 0.930 . S
C1236 C1234 1.378 . S
C1236 C1237 1.367 . S
C1237 C1236 1.367 . S
C1237 C1239 1.433 . S
C1238 C1234 1.350 . S
C1238 C1235 1.463 . S
C1238 N1242 1.427 . S
C1239 H1229 0.929 . S
C1239 C1237 1.433 . S
C1239 N1242 1.384 . S
C1240 H1231 0.929 . S
C1240 C1232 1.378 . S
C1240 C1235 1.350 . S
C1241 H1228 0.929 . S
C1241 C1233 1.433 . S
C1241 N1243 1.384 . S
N1242 C1238 1.427 . S
N1242 C1239 1.384 . S
N1243 C1235 1.427 . S
N1243 C1241 1.384 . S
H1244 C1250 0.930 . S
H1245 C1254 0.930 . S
H1246 C1259 0.929 . S
H1247 C1257 0.929 . S
H1248 C1252 0.929 . S
H1249 C1258 0.929 . S
C1250 H1244 0.930 . S
C1250 C1251 1.367 . S
C1250 C1258 1.378 . S
C1251 C1250 1.367 . S
C1251 C1259 1.433 . S
C1252 H1248 0.929 . S
C1252 C1254 1.378 . S
C1252 C1256 1.350 . S
C1253 C1256 1.463 . S
C1253 C1258 1.350 . S
C1253 N1261 1.427 . S
C1254 H1245 0.930 . S
C1254 C1252 1.378 . S
C1254 C1255 1.367 . S
C1255 C1254 1.367 . S
C1255 C1257 1.433 . S
C1256 C1252 1.350 . S
C1256 C1253 1.463 . S
C1256 N1260 1.427 . S
C1257 H1247 0.929 . S
C1257 C1255 1.433 . S
C1257 N1260 1.384 . S
C1258 H1249 0.929 . S
C1258 C1250 1.378 . S
C1258 C1253 1.350 . S
C1259 H1246 0.929 . S
C1259 C1251 1.433 . S
C1259 N1261 1.384 . S
N1260 C1256 1.427 . S
N1260 C1257 1.384 . S
N1261 C1253 1.427 . S
N1261 C1259 1.384 . S
H1262 C1268 0.930 . S
H1263 C1272 0.930 . S
H1264 C1277 0.929 . S
H1265 C1275 0.929 . S
H1266 C1270 0.929 . S
H1267 C1276 0.929 . S
C1268 H1262 0.930 . S
C1268 C1269 1.367 . S
C1268 C1276 1.378 . S
C1269 C1268 1.367 . S
C1269 C1277 1.433 . S
C1270 H1266 0.929 . S
C1270 C1272 1.378 . S
C1270 C1274 1.350 . S
C1271 C1274 1.463 . S
C1271 C1276 1.350 . S
C1271 N1279 1.427 . S
C1272 H1263 0.930 . S
C1272 C1270 1.378 . S
C1272 C1273 1.367 . S
C1273 C1272 1.367 . S
C1273 C1275 1.433 . S
C1274 C1270 1.350 . S
C1274 C1271 1.463 . S
C1274 N1278 1.427 . S
C1275 H1265 0.929 . S
C1275 C1273 1.433 . S
C1275 N1278 1.384 . S
C1276 H1267 0.929 . S
C1276 C1268 1.378 . S
C1276 C1271 1.350 . S
C1277 H1264 0.929 . S
C1277 C1269 1.433 . S
C1277 N1279 1.384 . S
N1278 C1274 1.427 . S
N1278 C1275 1.384 . S
N1279 C1271 1.427 . S
N1279 C1277 1.384 . S
H1280 C1286 0.930 . S
H1281 C1290 0.930 . S
H1282 C1295 0.929 . S
H1283 C1293 0.929 . S
H1284 C1288 0.929 . S
H1285 C1294 0.929 . S
C1286 H1280 0.930 . S
C1286 C1287 1.367 . S
C1286 C1294 1.378 . S
C1287 C1286 1.367 . S
C1287 C1295 1.433 . S
C1288 H1284 0.929 . S
C1288 C1290 1.378 . S
C1288 C1292 1.350 . S
C1289 C1292 1.463 . S
C1289 C1294 1.350 . S
C1289 N1297 1.427 . S
C1290 H1281 0.930 . S
C1290 C1288 1.378 . S
C1290 C1291 1.367 . S
C1291 C1290 1.367 . S
C1291 C1293 1.433 . S
C1292 C1288 1.350 . S
C1292 C1289 1.463 . S
C1292 N1296 1.427 . S
C1293 H1283 0.929 . S
C1293 C1291 1.433 . S
C1293 N1296 1.384 . S
C1294 H1285 0.929 . S
C1294 C1286 1.378 . S
C1294 C1289 1.350 . S
C1295 H1282 0.929 . S
C1295 C1287 1.433 . S
C1295 N1297 1.384 . S
N1296 C1292 1.427 . S
N1296 C1293 1.384 . S
N1297 C1289 1.427 . S
N1297 C1295 1.384 . S
H1298 C1304 0.930 . S
H1299 C1308 0.930 . S
H1300 C1313 0.929 . S
H1301 C1311 0.929 . S
H1302 C1306 0.929 . S
H1303 C1312 0.929 . S
C1304 H1298 0.930 . S
C1304 C1305 1.367 . S
C1304 C1312 1.378 . S
C1305 C1304 1.367 . S
C1305 C1313 1.433 . S
C1306 H1302 0.929 . S
C1306 C1308 1.378 . S
C1306 C1310 1.350 . S
C1307 C1310 1.463 . S
C1307 C1312 1.350 . S
C1307 N1315 1.427 . S
C1308 H1299 0.930 . S
C1308 C1306 1.378 . S
C1308 C1309 1.367 . S
C1309 C1308 1.367 . S
C1309 C1311 1.433 . S
C1310 C1306 1.350 . S
C1310 C1307 1.463 . S
C1310 N1314 1.427 . S
C1311 H1301 0.929 . S
C1311 C1309 1.433 . S
C1311 N1314 1.384 . S
C1312 H1303 0.929 . S
C1312 C1304 1.378 . S
C1312 C1307 1.350 . S
C1313 H1300 0.929 . S
C1313 C1305 1.433 . S
C1313 N1315 1.384 . S
N1314 C1310 1.427 . S
N1314 C1311 1.384 . S
N1315 C1307 1.427 . S
N1315 C1313 1.384 . S
H1316 C1322 0.930 . S
H1317 C1326 0.930 . S
H1318 C1331 0.929 . S
H1319 C1329 0.929 . S
H1320 C1324 0.929 . S
H1321 C1330 0.929 . S
C1322 H1316 0.930 . S
C1322 C1323 1.367 . S
C1322 C1330 1.378 . S
C1323 C1322 1.367 . S
C1323 C1331 1.433 . S
C1324 H1320 0.929 . S
C1324 C1326 1.378 . S
C1324 C1328 1.350 . S
C1325 C1328 1.463 . S
C1325 C1330 1.350 . S
C1325 N1333 1.427 . S
C1326 H1317 0.930 . S
C1326 C1324 1.378 . S
C1326 C1327 1.367 . S
C1327 C1326 1.367 . S
C1327 C1329 1.433 . S
C1328 C1324 1.350 . S
C1328 C1325 1.463 . S
C1328 N1332 1.427 . S
C1329 H1319 0.929 . S
C1329 C1327 1.433 . S
C1329 N1332 1.384 . S
C1330 H1321 0.929 . S
C1330 C1322 1.378 . S
C1330 C1325 1.350 . S
C1331 H1318 0.929 . S
C1331 C1323 1.433 . S
C1331 N1333 1.384 . S
N1332 C1328 1.427 . S
N1332 C1329 1.384 . S
N1333 C1325 1.427 . S
N1333 C1331 1.384 . S
C481 C299 0.590 . S
C477 C4 0.253 . S
C499 C300 1.816 . S
C495 C63 1.940 . S
C517 C294 1.037 . S
C513 C72 1.067 . S
C531 C102 1.194 . S
C535 C293 1.180 . S
C549 C136 1.934 . S
C553 C296 1.802 . S
C571 C298 1.052 . S
C567 C183 1.068 . S
C585 C233 1.188 . S
C589 C297 1.178 . S
C603 C251 0.258 . S
C607 C295 0.596 . S
C625 C330 1.560 . S
C621 C29 1.566 . S
C639 C42 2.133 . S
C643 C361 2.059 . S
C661 C329 1.495 . S
C657 C97 1.539 . S
C679 C364 1.169 . S
C675 C115 1.181 . S
C693 C149 1.267 . S
C697 C327 1.286 . S
C715 C359 1.567 . S
C711 C187 1.578 . S
C729 C212 1.910 . S
C733 C332 1.894 . S
C747 C255 1.516 . S
C751 C366 1.435 . S
C765 C8 1.512 . S
C769 C362 1.441 . S
C783 C153 2.133 . S
C787 C365 2.053 . S
C805 C333 1.498 . S
C801 C170 1.537 . S
C823 C360 1.182 . S
C819 C208 1.194 . S
C837 C238 1.566 . S
C841 C326 1.561 . S
C855 C76 1.580 . S
C859 C363 1.562 . S
C877 C328 1.886 . S
C873 C119 1.916 . S
C891 C38 1.270 . S
C895 C331 1.276 . S
C909 C242 0.233 . S
C913 C398 0.583 . S
C927 C165 1.428 . S
C931 C399 1.335 . S
C949 C393 1.040 . S
C945 C174 1.056 . S
C967 C392 1.681 . S
C963 C204 1.703 . S
C981 C34 1.417 . S
C985 C395 1.315 . S
C1003 C397 1.027 . S
C999 C81 1.053 . S
C1017 C131 1.699 . S
C1021 C396 1.672 . S
C1035 C13 0.229 . S
C1039 C394 0.586 . S
C1053 C267 1.718 . S
C1057 C432 1.650 . S
C1075 C464 1.905 . S
C1071 C144 1.917 . S
C1089 C199 1.370 . S
C1093 C425 1.360 . S
C1107 C217 1.309 . S
C1111 C459 1.344 . S
C1129 C430 1.161 . S
C1125 C47 1.143 . S
C1143 C85 1.836 . S
C1147 C461 1.773 . S
C1165 C427 2.069 . S
C1161 C110 2.136 . S
C1183 C462 1.389 . S
C1179 C17 1.383 . S
C1201 C458 1.384 . S
C1197 C246 1.389 . S
C1215 C51 1.920 . S
C1219 C460 1.904 . S
C1233 C68 1.370 . S
C1237 C429 1.362 . S
C1255 C463 1.343 . S
C1251 C106 1.311 . S
C1269 C0 1.721 . S
C1273 C428 1.632 . S
C1287 C178 1.837 . S
C1291 C465 1.762 . S
C1309 C431 2.077 . S
C1305 C221 2.134 . S
C1327 C426 1.150 . S
C1323 C140 1.135 . S
