# Generated by pormake.
# Topology zzz, (3,6)-cn, num edge types: 1
# Building blocks:
#     Node 0, Type 0, BuildingBlock: OLANEW_clean_sbu_2, # of connection points: 3
#     Node 1, Type 0, BuildingBlock: OLANEW_clean_sbu_2, # of connection points: 3
#     Node 2, Type 0, BuildingBlock: OLANEW_clean_sbu_2, # of connection points: 3
#     Node 3, Type 0, BuildingBlock: OLANEW_clean_sbu_2, # of connection points: 3
#     Node 4, Type 0, BuildingBlock: OLANEW_clean_sbu_2, # of connection points: 3
#     Node 5, Type 0, BuildingBlock: OLANEW_clean_sbu_2, # of connection points: 3
#     Node 6, Type 0, BuildingBlock: OLANEW_clean_sbu_2, # of connection points: 3
#     Node 7, Type 0, BuildingBlock: OLANEW_clean_sbu_2, # of connection points: 3
#     Node 8, Type 1, BuildingBlock: VOLQOD_clean_sbu_1, # of connection points: 6
#     Node 9, Type 1, BuildingBlock: VOLQOD_clean_sbu_1, # of connection points: 6
#     Node 10, Type 1, BuildingBlock: VOLQOD_clean_sbu_1, # of connection points: 6
#     Node 11, Type 1, BuildingBlock: VOLQOD_clean_sbu_1, # of connection points: 6
#     Edge 12, Type (0, 1), BuildingBlock: ZUJKAS_clean_linker_0, # of connection points: 2
#     Edge 13, Type (0, 1), BuildingBlock: ZUJKAS_clean_linker_0, # of connection points: 2
#     Edge 14, Type (0, 1), BuildingBlock: ZUJKAS_clean_linker_0, # of connection points: 2
#     Edge 15, Type (0, 1), BuildingBlock: ZUJKAS_clean_linker_0, # of connection points: 2
#     Edge 16, Type (0, 1), BuildingBlock: ZUJKAS_clean_linker_0, # of connection points: 2
#     Edge 17, Type (0, 1), BuildingBlock: ZUJKAS_clean_linker_0, # of connection points: 2
#     Edge 18, Type (0, 1), BuildingBlock: ZUJKAS_clean_linker_0, # of connection points: 2
#     Edge 19, Type (0, 1), BuildingBlock: ZUJKAS_clean_linker_0, # of connection points: 2
#     Edge 20, Type (0, 1), BuildingBlock: ZUJKAS_clean_linker_0, # of connection points: 2
#     Edge 21, Type (0, 1), BuildingBlock: ZUJKAS_clean_linker_0, # of connection points: 2
#     Edge 22, Type (0, 1), BuildingBlock: ZUJKAS_clean_linker_0, # of connection points: 2
#     Edge 23, Type (0, 1), BuildingBlock: ZUJKAS_clean_linker_0, # of connection points: 2
#     Edge 24, Type (0, 1), BuildingBlock: ZUJKAS_clean_linker_0, # of connection points: 2
#     Edge 25, Type (0, 1), BuildingBlock: ZUJKAS_clean_linker_0, # of connection points: 2
#     Edge 26, Type (0, 1), BuildingBlock: ZUJKAS_clean_linker_0, # of connection points: 2
#     Edge 27, Type (0, 1), BuildingBlock: ZUJKAS_clean_linker_0, # of connection points: 2
#     Edge 28, Type (0, 1), BuildingBlock: ZUJKAS_clean_linker_0, # of connection points: 2
#     Edge 29, Type (0, 1), BuildingBlock: ZUJKAS_clean_linker_0, # of connection points: 2
#     Edge 30, Type (0, 1), BuildingBlock: ZUJKAS_clean_linker_0, # of connection points: 2
#     Edge 31, Type (0, 1), BuildingBlock: ZUJKAS_clean_linker_0, # of connection points: 2
#     Edge 32, Type (0, 1), BuildingBlock: ZUJKAS_clean_linker_0, # of connection points: 2
#     Edge 33, Type (0, 1), BuildingBlock: ZUJKAS_clean_linker_0, # of connection points: 2
#     Edge 34, Type (0, 1), BuildingBlock: ZUJKAS_clean_linker_0, # of connection points: 2
#     Edge 35, Type (0, 1), BuildingBlock: ZUJKAS_clean_linker_0, # of connection points: 2
# Relax obj value: 0.190
# Max RMSD: 0.236
# Mean RMSD: 0.108
data_MOF--net-zzz--node1-OLANEW_clean_sbu_2--node2-VOLQOD_clean_sbu_1--edge1-ZUJKAS_clean_linker_0
_symmetry_space_group_name_H-M    P1
_symmetry_Int_Tables_number       1
_symmetry_cell_setting            triclinic
loop_
_symmetry_equiv_pos_as_xyz
'x, y, z'
_cell_length_a     68.169088
_cell_length_b     67.700743
_cell_length_c     24.25354
_cell_angle_alpha  90.122379
_cell_angle_beta   89.850976
_cell_angle_gamma 90.996441
loop_
_atom_site_label
_atom_site_type_symbol
_atom_site_fract_x
_atom_site_fract_y
_atom_site_fract_z
_atom_type_partial_charge
O0 O 0.76546 0.55266 0.01338 0.0
Cd1 Cd 0.77799 0.54922 0.91923 0.0
O2 O 0.76872 0.5473 0.1021 0.0
Cd3 Cd 0.78675 0.53833 0.17152 0.0
O4 O 0.80866 0.535 0.23586 0.0
C5 C 0.82178 0.52199 0.23151 0.0
O6 O 0.82159 0.51016 0.18852 0.0
C7 C 0.77527 0.5458 0.05323 0.0
C8 C 0.74859 0.53512 0.84951 0.0
O9 O 0.75161 0.55371 0.85632 0.0
O10 O 0.75969 0.52316 0.87525 0.0
O11 O 0.91181 0.78671 0.05315 0.0
Cd12 Cd 0.8991 0.75695 0.09776 0.0
O13 O 0.93944 0.77943 0.09387 0.0
Cd14 Cd 0.96867 0.78899 0.12057 0.0
O15 O 0.98654 0.81236 0.15801 0.0
C16 C 0.97802 0.82887 0.16113 0.0
O17 O 0.96023 0.83028 0.14106 0.0
C18 C 0.92976 0.79069 0.06251 0.0
C19 C 0.91694 0.72425 0.05125 0.0
O20 O 0.89983 0.72944 0.03572 0.0
O21 O 0.92545 0.73431 0.08937 0.0
O22 O 0.7434 0.95772 0.05986 0.0
Cd23 Cd 0.77535 0.94693 0.09109 0.0
O24 O 0.75148 0.9878 0.0864 0.0
Cd25 Cd 0.74139 0.01704 0.10968 0.0
O26 O 0.71669 0.02432 0.16229 0.0
C27 C 0.71236 0.01018 0.19471 0.0
O28 O 0.72314 0.99427 0.19342 0.0
C29 C 0.73905 0.97579 0.06529 0.0
C30 C 0.80481 0.96369 0.02598 0.0
O31 O 0.79872 0.97252 0.0694 0.0
O32 O 0.79705 0.94687 0.01374 0.0
O33 O 0.5116 0.71812 0.0736 0.0
Cd34 Cd 0.51535 0.74653 0.13541 0.0
O35 O 0.48536 0.72847 0.03025 0.0
Cd36 Cd 0.47942 0.74648 0.10259 0.0
O37 O 0.48138 0.72833 0.17612 0.0
C38 C 0.47277 0.71164 0.1708 0.0
O39 O 0.46196 0.70842 0.12679 0.0
C40 C 0.49924 0.71625 0.03459 0.0
C41 C 0.52261 0.78064 0.0739 0.0
O42 O 0.50519 0.77559 0.08865 0.0
O43 O 0.53678 0.76974 0.08914 0.0
O44 O 0.21719 0.60699 0.4051 0.0
Cd45 Cd 0.24674 0.617 0.35511 0.0
O46 O 0.2206 0.57907 0.36069 0.0
Cd47 Cd 0.2099 0.55029 0.33153 0.0
O48 O 0.1929 0.5282 0.28585 0.0
C49 C 0.17472 0.52621 0.29651 0.0
O50 O 0.16714 0.53672 0.33662 0.0
C51 C 0.2112 0.58948 0.39522 0.0
C52 C 0.2783 0.59584 0.39486 0.0
O53 O 0.27521 0.6135 0.41154 0.0
O54 O 0.26667 0.58833 0.35878 0.0
O55 O 0.0063 0.22985 0.28979 0.0
Cd56 Cd 0.00332 0.26079 0.24005 0.0
O57 O 0.03692 0.2282 0.26236 0.0
Cd58 Cd 0.06345 0.21102 0.25015 0.0
O59 O 0.07697 0.18544 0.21206 0.0
C60 C 0.07659 0.16878 0.23617 0.0
O61 O 0.06961 0.16761 0.28658 0.0
C62 C 0.02259 0.22107 0.28998 0.0
C63 C 0.00583 0.29093 0.31762 0.0
O64 O 0.9892 0.28329 0.304 0.0
O65 O 0.02123 0.2847 0.29316 0.0
O66 O 0.3023 0.89937 0.36557 0.0
Cd67 Cd 0.27077 0.88385 0.34412 0.0
O68 O 0.29527 0.92435 0.31182 0.0
Cd69 Cd 0.30488 0.95138 0.26973 0.0
O70 O 0.32614 0.97071 0.2283 0.0
C71 C 0.34361 0.96445 0.22654 0.0
O72 O 0.34745 0.94747 0.24993 0.0
C73 C 0.30688 0.91612 0.34534 0.0
C74 C 0.24264 0.89987 0.41356 0.0
O75 O 0.25181 0.88427 0.42732 0.0
O76 O 0.24651 0.9076 0.36649 0.0
O77 O 0.42001 0.27145 0.34214 0.0
Cd78 Cd 0.39973 0.24154 0.33921 0.0
O79 O 0.41522 0.27957 0.25557 0.0
Cd80 Cd 0.42156 0.2982 0.18402 0.0
O81 O 0.43016 0.31947 0.12065 0.0
C82 C 0.44642 0.32882 0.12475 0.0
O83 O 0.45781 0.32533 0.16714 0.0
C84 C 0.42317 0.2831 0.30201 0.0
C85 C 0.41708 0.21414 0.40829 0.0
O86 O 0.42115 0.21475 0.35668 0.0
O87 O 0.40434 0.22615 0.42699 0.0
O88 O 0.07282 0.98199 0.72632 0.0
Zn89 Zn 0.04638 0.9892 0.75823 0.0
O90 O 0.02935 -0.0005 0.70032 0.0
Zn91 Zn 0.01838 0.02454 0.72373 0.0
Zn92 Zn 0.04428 0.00342 0.63258 0.0
Zn93 Zn 0.00806 0.98076 0.68608 0.0
O94 O 0.98938 0.02175 0.73917 0.0
O95 O 0.98187 0.99251 0.70268 0.0
O96 O 0.05108 0.00972 0.81736 0.0
O97 O 0.03151 0.03411 0.7932 0.0
O98 O 0.02245 0.0454 0.66544 0.0
O99 O 0.04254 0.0314 0.60525 0.0
O100 O 0.03446 0.98539 0.57187 0.0
O101 O 0.03403 0.96505 0.79465 0.0
O102 O 0.00852 0.97025 0.60885 0.0
O103 O 0.00973 0.95764 0.73689 0.0
C104 C 0.08128 0.98677 0.6812 0.0
C105 C 0.97677 0.0084 0.72645 0.0
C106 C 0.0328 0.0462 0.62164 0.0
C107 C 0.04407 0.02679 0.8258 0.0
C108 C 0.02011 0.97316 0.56837 0.0
C109 C 0.01992 0.95377 0.77923 0.0
O110 O 0.07232 0.9962 0.64381 0.0
O111 O 0.51465 0.05307 0.72319 0.0
Zn112 Zn 0.52022 0.02656 0.75883 0.0
O113 O 0.51995 0.00541 0.70226 0.0
Zn114 Zn 0.49938 0.98624 0.71933 0.0
Zn115 Zn 0.51518 0.01613 0.62896 0.0
Zn116 Zn 0.54491 0.99182 0.70072 0.0
O117 O 0.51035 0.96005 0.73919 0.0
O118 O 0.5424 0.96345 0.72594 0.0
O119 O 0.49879 0.02196 0.81597 0.0
O120 O 0.48382 0.99485 0.7846 0.0
O121 O 0.48083 0.98234 0.65641 0.0
O122 O 0.49117 0.0037 0.59307 0.0
O123 O 0.53817 0.01226 0.57812 0.0
O124 O 0.54658 0.02777 0.79882 0.0
O125 O 0.55783 0.99309 0.62625 0.0
O126 O 0.56333 0.00504 0.75301 0.0
C127 C 0.51116 0.05787 0.67335 0.0
C128 C 0.52752 0.95303 0.74032 0.0
C129 C 0.47914 0.99031 0.60925 0.0
C130 C 0.48525 0.0088 0.81964 0.0
C131 C 0.55381 0.00237 0.58224 0.0
C132 C 0.56235 0.0184 0.7898 0.0
O133 O 0.51093 0.04511 0.63471 0.0
O134 O 0.46287 0.5091 0.6085 0.0
Zn135 Zn 0.4897 0.50651 0.64295 0.0
O136 O 0.51012 0.50311 0.58651 0.0
Zn137 Zn 0.52419 0.47861 0.59991 0.0
Zn138 Zn 0.49825 0.5023 0.51333 0.0
Zn139 Zn 0.52856 0.52535 0.58892 0.0
O140 O 0.55333 0.48375 0.61003 0.0
O141 O 0.55598 0.51633 0.6014 0.0
O142 O 0.48894 0.48349 0.69525 0.0
O143 O 0.51379 0.46497 0.66831 0.0
O144 O 0.52 0.45951 0.53685 0.0
O145 O 0.50205 0.47598 0.47673 0.0
O146 O 0.50806 0.52437 0.46446 0.0
O147 O 0.49474 0.53127 0.68788 0.0
O148 O 0.52802 0.54131 0.51961 0.0
O149 O 0.52165 0.54411 0.64944 0.0
C150 C 0.45728 0.50907 0.55842 0.0
C151 C 0.5637 0.4996 0.60935 0.0
C152 C 0.51087 0.46039 0.49116 0.0
C153 C 0.49957 0.46835 0.70104 0.0
C154 C 0.51935 0.53918 0.47358 0.0
C155 C 0.50795 0.54478 0.68507 0.0
O156 O 0.46936 0.50658 0.51904 0.0
O157 O 0.97925 0.51676 0.66771 0.0
Zn158 Zn 0.00056 0.5192 0.72549 0.0
O159 O 0.00115 0.49551 0.7723 0.0
Zn160 Zn 0.99838 0.50309 0.84919 0.0
Zn161 Zn 0.97944 0.47755 0.75331 0.0
Zn162 Zn 0.02604 0.48201 0.76257 0.0
O163 O 0.02111 0.49433 0.89486 0.0
O164 O 0.04043 0.47925 0.83488 0.0
O165 O 0.99555 0.54376 0.77073 0.0
O166 O 0.99595 0.53234 0.85647 0.0
O167 O 0.97339 0.49248 0.8817 0.0
O168 O 0.95949 0.47483 0.8149 0.0
O169 O 0.98923 0.45101 0.72988 0.0
O170 O 0.02641 0.52326 0.6862 0.0
O171 O 0.02164 0.45497 0.72958 0.0
O172 O 0.04383 0.49735 0.71111 0.0
C173 C 0.9663 0.50339 0.65824 0.0
C174 C 0.0367 0.48502 0.88378 0.0
C175 C 0.9592 0.48192 0.86358 0.0
C176 C 0.99441 0.54655 0.8226 0.0
C177 C 0.00631 0.44449 0.72011 0.0
C178 C 0.04213 0.51337 0.6842 0.0
O179 O 0.96498 0.48796 0.68799 0.0
H180 H 0.22185 0.93342 0.39701 0.0
H181 H 0.19801 0.94834 0.45901 0.0
H182 H 0.20699 0.90193 0.57734 0.0
H183 H 0.2308 0.88673 0.51523 0.0
H184 H 0.16769 0.909 0.55544 0.0
H185 H 0.20746 0.97897 0.60246 0.0
H186 H 0.20571 0.97418 0.52982 0.0
H187 H 0.21941 0.95781 0.5729 0.0
C188 C 0.21884 0.92641 0.43631 0.0
C189 C 0.22822 0.90889 0.45122 0.0
C190 C 0.20534 0.93506 0.47191 0.0
C191 C 0.20105 0.92645 0.5232 0.0
C192 C 0.21028 0.90891 0.53815 0.0
H193 H 0.10309 0.9604 0.74012 0.0
H194 H 0.13423 0.94576 0.71216 0.0
C195 C 0.22383 0.90023 0.50256 0.0
C196 C 0.18598 0.93519 0.55937 0.0
H197 H 0.1727 0.97848 0.62011 0.0
C198 C 0.1689 0.92405 0.5706 0.0
C199 C 0.1877 0.9548 0.5792 0.0
C200 C 0.20615 0.96708 0.57098 0.0
C201 C 0.15293 0.93244 0.5981 0.0
C202 C 0.15429 0.95237 0.61554 0.0
C203 C 0.17173 0.96321 0.60665 0.0
C204 C 0.137 0.96281 0.6371 0.0
C205 C 0.13433 0.92028 0.60536 0.0
C206 C 0.12878 0.97781 0.60538 0.0
C207 C 0.11112 0.98623 0.62121 0.0
C208 C 0.10133 0.97983 0.66926 0.0
C209 C 0.11019 0.96558 0.70274 0.0
C210 C 0.12792 0.95713 0.68672 0.0
H211 H 0.13467 0.90622 0.58172 0.0
H212 H 0.13235 0.91664 0.64963 0.0
H213 H 0.12139 0.92876 0.59194 0.0
H214 H 0.13563 0.98245 0.56706 0.0
H215 H 0.10482 0.99729 0.59469 0.0
H216 H 0.44353 0.18608 0.37986 0.0
H217 H 0.46104 0.16391 0.44109 0.0
H218 H 0.43183 0.18923 0.58176 0.0
H219 H 0.41395 0.2113 0.52062 0.0
H220 H 0.48641 0.17378 0.52882 0.0
H221 H 0.4214 0.12976 0.60018 0.0
H222 H 0.42049 0.14578 0.54092 0.0
H223 H 0.42027 0.15607 0.60921 0.0
C224 C 0.44072 0.18687 0.42377 0.0
C225 C 0.42725 0.20036 0.44535 0.0
C226 C 0.4508 0.17425 0.45872 0.0
C227 C 0.44761 0.17483 0.51586 0.0
C228 C 0.43427 0.18834 0.53769 0.0
H229 H 0.49563 0.0861 0.74127 0.0
H230 H 0.4822 0.11798 0.71306 0.0
C231 C 0.4241 0.20096 0.50269 0.0
C232 C 0.45835 0.16117 0.552 0.0
H233 H 0.45224 0.12015 0.63217 0.0
C234 C 0.47894 0.1622 0.55201 0.0
C235 C 0.44856 0.14622 0.58266 0.0
C236 C 0.42647 0.1442 0.5832 0.0
C237 C 0.49002 0.14814 0.57995 0.0
C238 C 0.48024 0.13256 0.60797 0.0
C239 C 0.45967 0.13218 0.61071 0.0
C240 C 0.4908 0.11502 0.62755 0.0
C241 C 0.5121 0.14975 0.57796 0.0
C242 C 0.50024 0.10301 0.58894 0.0
C243 C 0.50772 0.08487 0.6047 0.0
C244 C 0.50593 0.07835 0.65949 0.0
C245 C 0.49732 0.09081 0.69885 0.0
C246 C 0.48961 0.10896 0.68281 0.0
H247 H 0.51713 0.16527 0.57137 0.0
H248 H 0.51874 0.14416 0.61656 0.0
H249 H 0.51758 0.14078 0.543 0.0
H250 H 0.50099 0.10723 0.5459 0.0
H251 H 0.51432 0.07563 0.57346 0.0
H252 H 0.28138 0.55579 0.39939 0.0
H253 H 0.3085 0.53684 0.43688 0.0
H254 H 0.33987 0.59119 0.47394 0.0
H255 H 0.31231 0.61012 0.43957 0.0
H256 H 0.34374 0.53324 0.40558 0.0
H257 H 0.34726 0.56402 0.61574 0.0
H258 H 0.32712 0.56898 0.57005 0.0
H259 H 0.34944 0.58369 0.56678 0.0
C260 C 0.29401 0.56366 0.41607 0.0
C261 C 0.29473 0.58441 0.41693 0.0
C262 C 0.30948 0.55283 0.43755 0.0
C263 C 0.32609 0.56255 0.45952 0.0
C264 C 0.32694 0.58331 0.45929 0.0
H265 H 0.44328 0.5229 0.46139 0.0
H266 H 0.4101 0.53303 0.44064 0.0
C267 C 0.31128 0.59413 0.43905 0.0
C268 C 0.34305 0.55106 0.47938 0.0
H269 H 0.37713 0.5492 0.58192 0.0
C270 C 0.35081 0.53651 0.44463 0.0
C271 C 0.35205 0.55479 0.53103 0.0
C272 C 0.34335 0.56856 0.57321 0.0
C273 C 0.36791 0.52647 0.45861 0.0
C274 C 0.37804 0.53173 0.50752 0.0
C275 C 0.36964 0.5454 0.54384 0.0
C276 C 0.39796 0.5244 0.51983 0.0
C277 C 0.37488 0.51035 0.42059 0.0
C278 C 0.40248 0.51678 0.57207 0.0
C279 C 0.42171 0.51146 0.58467 0.0
C280 C 0.43668 0.51349 0.54501 0.0
C281 C 0.43203 0.52083 0.49258 0.0
C282 C 0.41297 0.52649 0.48045 0.0
H283 H 0.3623 0.50293 0.39952 0.0
H284 H 0.38443 0.51695 0.38814 0.0
H285 H 0.38326 0.49902 0.44311 0.0
H286 H 0.39119 0.51518 0.60332 0.0
H287 H 0.42487 0.50588 0.62545 0.0
H288 H 0.03896 0.30933 0.35713 0.0
H289 H 0.04134 0.33309 0.4331 0.0
H290 H 0.97849 0.3303 0.45364 0.0
H291 H 0.97596 0.30641 0.37822 0.0
H292 H 0.02372 0.37005 0.44152 0.0
H293 H 0.99897 0.32017 0.61 0.0
H294 H 0.00675 0.31114 0.54346 0.0
H295 H 0.98252 0.32075 0.55235 0.0
C296 C 0.02564 0.31376 0.37782 0.0
C297 C 0.00727 0.30594 0.3618 0.0
C298 C 0.02704 0.3273 0.42125 0.0
C299 C 0.01014 0.33312 0.44959 0.0
C300 C 0.99176 0.32562 0.4331 0.0
H301 H 0.97685 0.41916 0.68744 0.0
H302 H 0.97963 0.39075 0.626 0.0
C303 C 0.99033 0.3121 0.38969 0.0
C304 C 0.01158 0.34764 0.49505 0.0
H305 H 0.0004 0.35466 0.6309 0.0
C306 C 0.01886 0.36665 0.48312 0.0
C307 C 0.00522 0.34308 0.54918 0.0
C308 C 0.99809 0.32262 0.56479 0.0
C309 C 0.01923 0.38152 0.52343 0.0
C310 C 0.01248 0.37709 0.5773 0.0
C311 C 0.0056 0.35795 0.58956 0.0
C312 C 0.01128 0.39254 0.62027 0.0
C313 C 0.02608 0.40206 0.50743 0.0
C314 C 0.02824 0.4024 0.63913 0.0
C315 C 0.02673 0.41871 0.6742 0.0
C316 C 0.0082 0.42535 0.6911 0.0
C317 C 0.99134 0.41456 0.67497 0.0
C318 C 0.99288 0.3983 0.63986 0.0
H319 H 0.0269 0.40393 0.46198 0.0
H320 H 0.0161 0.41334 0.52452 0.0
H321 H 0.04094 0.40491 0.52457 0.0
H322 H 0.0426 0.3979 0.62523 0.0
H323 H 0.04003 0.42656 0.68619 0.0
H324 H 0.82156 0.94792 0.93385 0.0
H325 H 0.84836 0.96194 0.87856 0.0
H326 H 0.85007 0.01356 0.98306 0.0
H327 H 0.82341 -0.00047 0.03923 0.0
H328 H 0.85156 0.99835 0.82043 0.0
H329 H 0.9064 0.99286 0.98924 0.0
H330 H 0.88288 0.98025 0.99192 0.0
H331 H 0.88462 0.00633 0.0052 0.0
C332 C 0.8276 0.96227 0.94508 0.0
C333 C 0.8205 0.97253 0.99126 0.0
C334 C 0.84285 0.97029 0.9133 0.0
C335 C 0.85131 0.98866 0.92715 0.0
C336 C 0.84392 -0.00079 0.97226 0.0
H337 H 0.96132 0.03681 0.79375 0.0
H338 H 0.92898 0.03615 0.83771 0.0
C339 C 0.82867 0.99118 0.0042 0.0
C340 C 0.86833 0.99631 0.89528 0.0
H341 H 0.9176 0.00524 0.90438 0.0
C342 C 0.86598 6e-05 0.8388 0.0
C343 C 0.88707 0.99859 0.91953 0.0
C344 C 0.89054 0.99418 0.97969 0.0
C345 C 0.88203 0.0056 0.80557 0.0
C346 C 0.9009 0.00712 0.8294 0.0
C347 C 0.90309 0.00415 0.88629 0.0
C348 C 0.91889 0.00967 0.7957 0.0
C349 C 0.87868 0.00957 0.74518 0.0
C350 C 0.92375 0.99523 0.75666 0.0
C351 C 0.94218 0.99554 0.73154 0.0
C352 C 0.9562 0.01022 0.7453 0.0
C353 C 0.95089 0.0253 0.78218 0.0
C354 C 0.93243 0.02495 0.80741 0.0
H355 H 0.86339 0.01424 0.73745 0.0
H356 H 0.88896 0.02116 0.72947 0.0
H357 H 0.88111 0.99579 0.72142 0.0
H358 H 0.91369 0.98308 0.74784 0.0
H359 H 0.94575 0.9837 0.7033 0.0
H360 H 0.55758 0.79481 0.03252 0.0
H361 H 0.56283 0.82393 0.9739 0.0
H362 H 0.50076 0.83512 0.9778 0.0
H363 H 0.49538 0.80632 0.03649 0.0
H364 H 0.54601 0.83206 0.86891 0.0
H365 H 0.52591 0.88806 0.02515 0.0
H366 H 0.5318 0.86298 0.04316 0.0
H367 H 0.50775 0.86871 0.018 0.0
C368 C 0.54508 0.80356 0.02115 0.0
C369 C 0.52608 0.79835 0.03944 0.0
C370 C 0.5481 0.82013 0.9876 0.0
C371 C 0.53221 0.83179 0.97229 0.0
C372 C 0.51326 0.82651 0.9901 0.0
H373 H 0.49899 0.92642 0.77027 0.0
H374 H 0.50294 0.89612 0.82283 0.0
C375 C 0.51021 0.81 0.02348 0.0
C376 C 0.53515 0.84933 0.9368 0.0
H377 H 0.52585 0.8986 0.93088 0.0
C378 C 0.54195 0.84669 0.8826 0.0
C379 C 0.52994 0.86838 0.95505 0.0
C380 C 0.52363 0.87228 0.0137 0.0
C381 C 0.54261 0.86252 0.8452 0.0
C382 C 0.5364 0.88129 0.86279 0.0
C383 C 0.53044 0.88408 0.91757 0.0
C384 C 0.53462 0.89803 0.82443 0.0
C385 C 0.54907 0.85901 0.78656 0.0
C386 C 0.55122 0.90884 0.80696 0.0
C387 C 0.54904 0.92628 0.77685 0.0
C388 C 0.53021 0.93315 0.76416 0.0
C389 C 0.5137 0.92166 0.77954 0.0
C390 C 0.5159 0.90432 0.80957 0.0
H391 H 0.5523 0.84324 0.77847 0.0
H392 H 0.53749 0.8638 0.75764 0.0
H393 H 0.56247 0.86802 0.77777 0.0
H394 H 0.56577 0.90422 0.81852 0.0
H395 H 0.56205 0.93479 0.76571 0.0
H396 H 0.72311 0.55684 0.789 0.0
H397 H 0.6946 0.54484 0.73724 0.0
H398 H 0.70862 0.48482 0.77864 0.0
H399 H 0.73717 0.49669 0.83109 0.0
H400 H 0.69135 0.5167 0.64736 0.0
H401 H 0.65205 0.4924 0.83798 0.0
H402 H 0.67323 0.50875 0.84007 0.0
H403 H 0.67621 0.48289 0.82676 0.0
C404 C 0.72024 0.54108 0.78685 0.0
C405 C 0.73229 0.52773 0.8146 0.0
C406 C 0.70398 0.53425 0.7571 0.0
C407 C 0.69942 0.51399 0.75472 0.0
C408 C 0.71179 0.50054 0.78065 0.0
H409 H 0.58522 0.46774 0.64194 0.0
H410 H 0.6198 0.46782 0.66944 0.0
C411 C 0.7281 0.50735 0.81044 0.0
C412 C 0.68115 0.50725 0.72731 0.0
H413 H 0.63485 0.48997 0.75471 0.0
C414 C 0.67906 0.51061 0.6706 0.0
C415 C 0.66523 0.49918 0.75778 0.0
C416 C 0.66661 0.49566 0.81908 0.0
C417 C 0.66118 0.50671 0.64381 0.0
C418 C 0.64494 0.49967 0.67488 0.0
C419 C 0.64734 0.49536 0.73101 0.0
C420 C 0.62485 0.49882 0.65188 0.0
C421 C 0.65977 0.5105 0.58269 0.0
C422 C 0.61629 0.51619 0.63276 0.0
C423 C 0.59662 0.51622 0.61719 0.0
C424 C 0.58501 0.49889 0.62081 0.0
C425 C 0.59375 0.48133 0.63855 0.0
C426 C 0.6135 0.48134 0.65426 0.0
H427 H 0.67429 0.50906 0.56225 0.0
H428 H 0.64915 0.50014 0.56271 0.0
H429 H 0.65476 0.52581 0.57594 0.0
H430 H 0.62462 0.52996 0.63188 0.0
H431 H 0.5904 0.53001 0.60376 0.0
H432 H 0.89963 0.69288 0.99895 0.0
H433 H 0.91572 0.66431 0.95825 0.0
H434 H 0.97228 0.6894 0.00151 0.0
H435 H 0.95616 0.71744 0.04502 0.0
H436 H 0.93979 0.66041 0.87599 0.0
H437 H 0.97786 0.6359 0.06491 0.0
H438 H 0.95979 0.655 0.06615 0.0
H439 H 0.98466 0.66061 0.04539 0.0
C440 C 0.91549 0.69221 6e-05 0.0
C441 C 0.92665 0.70721 0.02569 0.0
C442 C 0.92468 0.67592 0.97669 0.0
C443 C 0.94522 0.67448 0.97774 0.0
C444 C 0.95641 0.68982 0.00176 0.0
H445 H -9e-05 0.5826 0.77273 0.0
H446 H 0.99024 0.61494 0.80845 0.0
C447 C 0.9472 0.70589 0.02631 0.0
C448 C 0.95476 0.65693 0.95337 0.0
H449 H 0.98583 0.61935 0.98211 0.0
C450 C 0.94984 0.6514 0.89921 0.0
C451 C 0.96777 0.6451 0.98383 0.0
C452 C 0.97268 0.64932 0.04344 0.0
C453 C 0.95717 0.63416 0.87512 0.0
C454 C 0.97047 0.62254 0.90523 0.0
C455 C 0.97577 0.62835 0.95886 0.0
C456 C 0.97768 0.60337 0.88419 0.0
C457 C 0.94983 0.62816 0.81873 0.0
C458 C 0.97472 0.58627 0.91594 0.0
C459 C 0.98073 0.56797 0.89642 0.0
C460 C 0.98959 0.56629 0.84429 0.0
C461 C 0.99293 0.58344 0.81282 0.0
C462 C 0.98726 0.60188 0.83299 0.0
H463 H 0.93597 0.63565 0.80809 0.0
H464 H 0.96097 0.63239 0.7873 0.0
H465 H 0.94722 0.61195 0.81621 0.0
H466 H 0.96738 0.587 0.95556 0.0
H467 H 0.97785 0.55503 0.92159 0.0
H468 H 0.05419 0.20977 0.34951 0.0
H469 H 0.05746 0.17974 0.40455 0.0
H470 H 0.99863 0.16161 0.36006 0.0
H471 H 0.99535 0.1916 0.30449 0.0
H472 H 0.03512 0.16743 0.49356 0.0
H473 H 0.03125 0.11276 0.32321 0.0
H474 H 0.03547 0.13882 0.31161 0.0
H475 H 0.01104 0.12944 0.32432 0.0
C476 C 0.04212 0.19917 0.35055 0.0
C477 C 0.02471 0.20269 0.32166 0.0
C478 C 0.04393 0.18215 0.38244 0.0
C479 C 0.02845 0.16828 0.3854 0.0
C480 C 0.01092 0.1719 0.35718 0.0
H481 H 0.00928 0.0783 0.6328 0.0
H482 H 0.0091 0.10798 0.57588 0.0
C483 C 0.00903 0.18905 0.32575 0.0
C484 C 0.0304 0.15036 0.41962 0.0
H485 H 0.02852 0.1 0.41455 0.0
C486 C 0.03378 0.15267 0.47632 0.0
C487 C 0.02903 0.13116 0.39675 0.0
C488 C 0.0267 0.12782 0.33555 0.0
C489 C 0.03533 0.13626 0.51114 0.0
C490 C 0.03295 0.11704 0.48876 0.0
C491 C 0.03009 0.11474 0.43176 0.0
C492 C 0.03324 0.09913 0.52376 0.0
C493 C 0.03977 0.13969 0.57137 0.0
C494 C 0.04652 0.08403 0.51245 0.0
C495 C 0.04648 0.06689 0.54446 0.0
C496 C 0.03316 0.06454 0.58845 0.0
C497 C 0.01987 0.07971 0.59964 0.0
C498 C 0.01982 0.09676 0.56731 0.0
H499 H 0.04705 0.1543 0.57823 0.0
H500 H 0.02584 0.13946 0.59512 0.0
H501 H 0.04936 0.12803 0.58796 0.0
H502 H 0.05694 0.08552 0.47886 0.0
H503 H 0.0569 0.05549 0.53468 0.0
H504 H 0.31321 0.95521 0.36636 0.0
H505 H 0.34368 0.97134 0.39694 0.0
H506 H 0.37242 0.91508 0.39599 0.0
H507 H 0.34209 0.89897 0.36352 0.0
H508 H 0.36185 0.96335 0.49376 0.0
H509 H 0.4129 0.95117 0.31951 0.0
H510 H 0.38658 0.94875 0.31273 0.0
H511 H 0.40048 0.9289 0.34132 0.0
C512 C 0.32622 0.9464 0.37083 0.0
C513 C 0.32549 0.92594 0.36117 0.0
C514 C 0.34354 0.9556 0.38878 0.0
C515 C 0.36041 0.94448 0.39759 0.0
C516 C 0.35972 0.92402 0.38795 0.0
H517 H 0.45241 0.96066 0.62832 0.0
H518 H 0.42399 0.95139 0.57284 0.0
C519 C 0.34238 0.91481 0.36999 0.0
C520 C 0.37807 0.95385 0.42239 0.0
H521 H 0.42767 0.95936 0.40693 0.0
C522 C 0.3762 0.96272 0.47441 0.0
C523 C 0.3967 0.95333 0.39668 0.0
C524 C 0.39931 0.94521 0.33921 0.0
C525 C 0.39261 0.97018 0.5027 0.0
C526 C 0.41143 0.96835 0.47877 0.0
C527 C 0.41323 0.96045 0.42549 0.0
C528 C 0.42939 0.9735 0.51012 0.0
C529 C 0.38968 0.97974 0.55832 0.0
C530 C 0.44224 0.98857 0.49211 0.0
C531 C 0.45867 0.9939 0.52373 0.0
C532 C 0.46249 0.98415 0.57368 0.0
C533 C 0.44985 0.96864 0.59045 0.0
C534 C 0.43353 0.96334 0.55888 0.0
H535 H 0.3745 0.98523 0.56322 0.0
H536 H 0.39219 0.96867 0.59112 0.0
H537 H 0.40017 0.99228 0.56458 0.0
H538 H 0.43933 0.99648 0.4543 0.0
H539 H 0.46815 0.00585 0.50952 0.0
H540 H 0.45661 0.28491 0.36203 0.0
H541 H 0.47686 0.31419 0.38286 0.0
H542 H 0.43894 0.34979 0.28321 0.0
H543 H 0.41864 0.32052 0.26217 0.0
H544 H 0.47991 0.35931 0.27141 0.0
H545 H 0.45589 0.35568 0.49042 0.0
H546 H 0.46697 0.33357 0.46505 0.0
H547 H 0.44405 0.34141 0.43673 0.0
C548 C 0.45274 0.29896 0.3441 0.0
C549 C 0.43619 0.30046 0.31011 0.0
C550 C 0.46429 0.31564 0.35602 0.0
C551 C 0.45925 0.33415 0.33504 0.0
C552 C 0.4431 0.33559 0.29958 0.0
H553 H 0.48906 0.45543 0.39733 0.0
H554 H 0.47988 0.42427 0.35309 0.0
C555 C 0.43161 0.31886 0.28731 0.0
C556 C 0.46991 0.35219 0.35342 0.0
H557 H 0.4794 0.38018 0.46762 0.0
C558 C 0.47989 0.36389 0.3143 0.0
C559 C 0.46975 0.35811 0.40937 0.0
C560 C 0.45846 0.34667 0.45282 0.0
C561 C 0.48988 0.38135 0.32989 0.0
C562 C 0.48961 0.38729 0.38582 0.0
C563 C 0.47978 0.37546 0.42485 0.0
C564 C 0.49817 0.40634 0.40502 0.0
C565 C 0.50071 0.39321 0.28653 0.0
C566 C 0.51174 0.40666 0.44844 0.0
C567 C 0.51689 0.42445 0.47431 0.0
C568 C 0.50845 0.44225 0.45738 0.0
C569 C 0.49584 0.44202 0.41151 0.0
C570 C 0.49066 0.4242 0.38579 0.0
H571 H 0.50451 0.38394 0.2503 0.0
H572 H 0.49118 0.40525 0.27198 0.0
H573 H 0.51437 0.39999 0.30343 0.0
H574 H 0.51764 0.39301 0.46403 0.0
H575 H 0.52672 0.42409 0.50928 0.0
H576 H 0.17827 0.60941 0.42351 0.0
H577 H 0.1489 0.59617 0.47038 0.0
H578 H 0.17496 0.53864 0.47649 0.0
H579 H 0.20439 0.55181 0.43054 0.0
H580 H 0.12412 0.56103 0.43431 0.0
H581 H 0.15925 0.55352 0.63991 0.0
H582 H 0.16902 0.56973 0.58711 0.0
H583 H 0.17235 0.54355 0.58197 0.0
C584 C 0.17767 0.59394 0.43481 0.0
C585 C 0.19341 0.58153 0.42257 0.0
C586 C 0.16092 0.58641 0.46133 0.0
C587 C 0.15985 0.56647 0.47683 0.0
C588 C 0.17557 0.55408 0.46485 0.0
H589 H 0.07686 0.49502 0.66345 0.0
H590 H 0.10479 0.50766 0.61012 0.0
C591 C 0.19224 0.56156 0.43802 0.0
C592 C 0.14238 0.55861 0.50612 0.0
H593 H 0.12696 0.54085 0.63067 0.0
C594 C 0.12465 0.55667 0.47729 0.0
C595 C 0.14327 0.55287 0.56199 0.0
C596 C 0.16193 0.5551 0.59492 0.0
C597 C 0.10774 0.54879 0.50282 0.0
C598 C 0.10858 0.54317 0.55894 0.0
C599 C 0.12636 0.54515 0.58765 0.0
C600 C 0.09119 0.53527 0.58896 0.0
C601 C 0.08931 0.54612 0.46912 0.0
C602 C 0.07431 0.54664 0.59495 0.0
C603 C 0.05825 0.53943 0.62523 0.0
C604 C 0.05888 0.52078 0.65063 0.0
C605 C 0.07585 0.50944 0.6445 0.0
C606 C 0.09185 0.51663 0.61402 0.0
H607 H 0.09256 0.54582 0.4242 0.0
H608 H 0.08136 0.53224 0.48038 0.0
H609 H 0.07945 0.55867 0.47716 0.0
H610 H 0.07366 0.56125 0.57705 0.0
H611 H 0.04548 0.54862 0.62939 0.0
H612 H 0.96601 0.79356 0.0168 0.0
H613 H 0.98202 0.82285 0.97738 0.0
H614 H 0.93094 0.85716 0.01563 0.0
H615 H 0.91458 0.82753 0.0532 0.0
H616 H 0.94253 0.86542 0.91783 0.0
H617 H 0.00834 0.86875 0.04947 0.0
H618 H 0.00619 0.84499 0.0171 0.0
H619 H 0.98755 0.85287 0.06481 0.0
C620 C 0.95832 0.80743 0.01733 0.0
C621 C 0.93922 0.80844 0.03871 0.0
C622 C 0.96754 0.8242 0.99522 0.0
C623 C 0.95797 0.8424 0.99504 0.0
C624 C 0.93872 0.84335 0.01585 0.0
H625 H 0.02134 0.95021 0.89134 0.0
H626 H 0.00615 0.92389 0.94717 0.0
C627 C 0.92936 0.82645 0.03711 0.0
C628 C 0.96754 0.86003 0.9695 0.0
H629 H 0.01079 0.88617 0.96278 0.0
C630 C 0.95736 0.8701 0.92826 0.0
C631 C 0.98672 0.86655 0.98389 0.0
C632 C 0.99773 0.85785 0.0317 0.0
C633 C 0.96609 0.8859 0.89948 0.0
C634 C 0.98591 0.89121 0.91036 0.0
C635 C 0.99579 0.88177 0.95335 0.0
C636 C 0.99658 0.90634 0.87711 0.0
C637 C 0.95381 0.89684 0.8582 0.0
C638 C 0.99703 0.90482 0.81938 0.0
C639 C 0.00532 0.91996 0.78761 0.0
C640 C 0.01394 0.9366 0.81299 0.0
C641 C 0.01483 0.93748 0.87081 0.0
C642 C 0.0061 0.9225 0.90266 0.0
H643 H 0.93796 0.89577 0.86879 0.0
H644 H 0.95814 0.9127 0.85598 0.0
H645 H 0.95572 0.89011 0.81682 0.0
H646 H 0.99051 0.89213 0.79874 0.0
H647 H 0.00467 0.91882 0.74307 0.0
H648 H 0.70384 0.95662 0.07756 0.0
H649 H 0.67179 0.96718 0.04373 0.0
H650 H 0.69862 0.02049 0.97903 0.0
H651 H 0.73052 0.01015 0.01357 0.0
H652 H 0.66221 0.02728 0.02548 0.0
H653 H 0.6594 0.96354 0.88075 0.0
H654 H 0.66127 0.9568 0.95203 0.0
H655 H 0.68116 0.97008 0.91918 0.0
C656 C 0.7028 0.97066 0.05654 0.0
C657 C 0.71957 0.98263 0.04833 0.0
C658 C 0.68454 0.97667 0.03723 0.0
C659 C 0.68289 0.9945 0.00821 0.0
C660 C 0.69955 0.00673 0.00151 0.0
H661 H 0.60014 0.01874 0.75641 0.0
H662 H 0.62915 0.01599 0.81435 0.0
C663 C 0.71774 0.00083 0.02134 0.0
C664 C 0.66424 -0.00021 0.98112 0.0
H665 H 0.63226 0.98445 0.88134 0.0
C666 C 0.65557 0.01792 0.99407 0.0
C667 C 0.65578 0.98764 0.9397 0.0
C668 C 0.66494 0.96852 0.92161 0.0
C669 C 0.63876 0.02431 0.96621 0.0
C670 C 0.63031 0.01208 0.92501 0.0
C671 C 0.63878 0.99382 0.91294 0.0
C672 C 0.61324 0.01803 0.89146 0.0
C673 C 0.63057 0.0443 0.97976 0.0
C674 C 0.59475 0.02103 0.91556 0.0
C675 C 0.57811 0.023 0.88224 0.0
C676 C 0.5798 0.02159 0.82462 0.0
C677 C 0.59847 0.01984 0.80075 0.0
C678 C 0.61503 0.0182 0.83382 0.0
H679 H 0.64128 0.05369 0.00283 0.0
H680 H 0.62628 0.05217 0.94165 0.0
H681 H 0.61728 0.04233 0.0058 0.0
H682 H 0.59297 0.02063 0.95991 0.0
H683 H 0.56382 0.02409 0.90154 0.0
H684 H 0.4822 0.71136 0.93309 0.0
H685 H 0.48348 0.68213 0.8735 0.0
H686 H 0.51903 0.65274 0.99416 0.0
H687 H 0.51853 0.68207 0.05248 0.0
H688 H 0.53325 0.64692 0.89602 0.0
H689 H 0.45323 0.63138 0.88977 0.0
H690 H 0.45951 0.65559 0.86481 0.0
H691 H 0.46401 0.64945 0.93582 0.0
C692 C 0.49032 0.69866 0.94672 0.0
C693 C 0.50029 0.69901 0.99735 0.0
C694 C 0.49088 0.6819 0.91292 0.0
C695 C 0.50101 0.66507 0.92988 0.0
C696 C 0.51108 0.66551 0.98024 0.0
H697 H 0.48775 0.54805 0.78244 0.0
H698 H 0.48652 0.57691 0.84343 0.0
C699 C 0.51081 0.68233 0.0135 0.0
C700 C 0.50164 0.6471 0.89485 0.0
H701 H 0.473 0.61294 0.82771 0.0
C702 C 0.52005 0.63944 0.88133 0.0
C703 C 0.48443 0.63711 0.87653 0.0
C704 C 0.46419 0.64367 0.89295 0.0
C705 C 0.52177 0.62223 0.8496 0.0
C706 C 0.50459 0.61281 0.82895 0.0
C707 C 0.48616 0.62029 0.84304 0.0
C708 C 0.50545 0.59528 0.79234 0.0
C709 C 0.54197 0.61411 0.83972 0.0
C710 C 0.51629 0.5961 0.74313 0.0
C711 C 0.5173 0.57958 0.70885 0.0
C712 C 0.50708 0.56203 0.72239 0.0
C713 C 0.49583 0.56135 0.77102 0.0
C714 C 0.49509 0.57783 0.80581 0.0
H715 H 0.55241 0.61895 0.87237 0.0
H716 H 0.54163 0.59771 0.8383 0.0
H717 H 0.5477 0.61972 0.79975 0.0
H718 H 0.52389 0.60958 0.73095 0.0
H719 H 0.52583 0.5807 0.67121 0.0
H720 H 0.78783 0.51052 0.09199 0.0
H721 H 0.81836 0.49382 0.06797 0.0
H722 H 0.8359 0.54368 0.96749 0.0
H723 H 0.80509 0.55994 0.98977 0.0
H724 H 0.84077 0.51059 0.91348 0.0
H725 H 0.87326 0.50254 0.12168 0.0
H726 H 0.84935 0.49135 0.11485 0.0
H727 H 0.85231 0.51774 0.109 0.0
C728 C 0.79837 0.51793 0.0653 0.0
C729 C 0.79422 0.53644 0.04255 0.0
C730 C 0.81583 0.50845 0.05181 0.0
C731 C 0.82958 0.51759 0.01648 0.0
C732 C 0.82552 0.53631 0.99476 0.0
H733 H 0.95018 0.50332 0.95521 0.0
H734 H 0.91788 0.5077 0.99532 0.0
C735 C 0.80795 0.54559 0.00743 0.0
C736 C 0.84777 0.50746 -0.00054 0.0
H737 H 0.89022 0.48779 0.04754 0.0
C738 C 0.85157 0.50555 0.94281 0.0
C739 C 0.86184 0.50088 0.03781 0.0
C740 C 0.85912 0.50337 0.0992 0.0
C741 C 0.86933 0.49808 0.92327 0.0
C742 C 0.88343 0.49145 0.96154 0.0
C743 C 0.87932 0.49264 0.01826 0.0
C744 C 0.90342 0.48577 0.94373 0.0
C745 C 0.87321 0.49855 0.86191 0.0
C746 C 0.90635 0.47118 0.90335 0.0
C747 C 0.92486 0.46891 0.87926 0.0
C748 C 0.94083 0.48084 0.8963 0.0
C749 C 0.93822 0.49395 0.94071 0.0
C750 C 0.91969 0.49648 0.96387 0.0
H751 H 0.86288 0.50831 0.83996 0.0
H752 H 0.8884 0.50381 0.85297 0.0
H753 H 0.87132 0.48343 0.84475 0.0
H754 H 0.89413 0.46225 0.88851 0.0
H755 H 0.92645 0.45848 0.8457 0.0
H756 H 0.07218 0.13044 0.27025 0.0
H757 H 0.07282 0.10081 0.21243 0.0
H758 H 0.08949 0.13647 0.07217 0.0
H759 H 0.08927 0.16599 0.12962 0.0
H760 H 0.04801 0.09568 0.12856 0.0
H761 H 0.12346 0.08914 0.04855 0.0
H762 H 0.1177 0.10424 0.10772 0.0
H763 H 0.11472 0.1137 0.0389 0.0
C764 C 0.07653 0.1319 0.22744 0.0
C765 C 0.08052 0.1506 0.20439 0.0
C766 C 0.07689 0.11495 0.19448 0.0
C767 C 0.08138 0.11638 0.13809 0.0
C768 C 0.08643 0.1349 0.1158 0.0
H769 H 0.03125 0.06295 0.85872 0.0
H770 H 0.04131 0.08189 0.9397 0.0
C771 C 0.08612 0.15183 0.14867 0.0
C772 C 0.07793 0.09932 0.10079 0.0
H773 H 0.09756 0.07497 0.99087 0.0
C774 C 0.059 0.09084 0.0993 0.0
C775 C 0.09229 0.0928 0.063 0.0
C776 C 0.11323 0.10032 0.06503 0.0
C777 C 0.05367 0.07704 0.05865 0.0
C778 C 0.06753 0.07188 0.01791 0.0
C779 C 0.08686 0.07924 0.02165 0.0
C780 C 0.06175 0.06018 0.96885 0.0
C781 C 0.03306 0.06854 0.05876 0.0
C782 C 0.07032 0.04192 0.95766 0.0
C783 C 0.06464 0.03102 0.9111 0.0
C784 C 0.05042 0.03832 0.87477 0.0
C785 C 0.04215 0.05681 0.88585 0.0
C786 C 0.0478 0.06762 0.93233 0.0
H787 H 0.02641 0.06908 0.1006 0.0
H788 H 0.02381 0.07736 0.03079 0.0
H789 H 0.03279 0.05299 0.04406 0.0
H790 H 0.08124 0.03603 0.98521 0.0
H791 H 0.07137 0.01688 0.90369 0.0
H792 H 0.34159 0.00086 0.17756 0.0
H793 H 0.36608 0.01649 0.11686 0.0
H794 H 0.40444 0.96726 0.14109 0.0
H795 H 0.38046 0.95193 0.20293 0.0
H796 H 0.42478 0.00217 0.13771 0.0
H797 H 0.37292 0.99639 0.96121 0.0
H798 H 0.36477 0.01096 0.01853 0.0
H799 H 0.36789 0.98481 0.02668 0.0
C800 C 0.35535 0.99349 0.1704 0.0
C801 C 0.35896 0.975 0.19434 0.0
C802 C 0.36928 0.0024 0.13555 0.0
C803 C 0.38689 0.99283 0.12347 0.0
C804 C 0.39091 0.97489 0.14963 0.0
H805 H 0.45747 0.98091 0.84503 0.0
H806 H 0.43401 0.98104 0.92053 0.0
C807 C 0.37713 0.96609 0.18484 0.0
C808 C 0.40064 0.00049 0.08077 0.0
H809 H 0.40484 0.00757 0.94192 0.0
C810 C 0.42041 0.00365 0.09496 0.0
C811 C 0.39486 0.00229 0.025 0.0
C812 C 0.37401 0.99831 0.00662 0.0
C813 C 0.43474 0.00758 0.05454 0.0
C814 C 0.42903 0.00877 0.99866 0.0
C815 C 0.40912 0.00669 0.98489 0.0
C816 C 0.44355 0.00938 0.95312 0.0
C817 C 0.45599 0.00922 0.07152 0.0
C818 C 0.45675 0.02535 0.9462 0.0
C819 C 0.47042 0.02528 0.90291 0.0
C820 C 0.47094 0.0093 0.86568 0.0
C821 C 0.45752 0.99349 0.87271 0.0
C822 C 0.44403 0.99353 0.91589 0.0
H823 H 0.45822 0.00472 0.11505 0.0
H824 H 0.46525 -9e-05 0.04457 0.0
H825 H 0.46115 0.02477 0.06707 0.0
H826 H 0.45641 0.03788 0.97399 0.0
H827 H 0.48047 0.03773 0.89846 0.0
H828 H 0.48074 0.35031 0.11918 0.0
H829 H 0.49071 0.37417 0.04842 0.0
H830 H 0.43575 0.36439 0.96416 0.0
H831 H 0.42579 0.34026 0.03407 0.0
H832 H 0.46753 0.36386 0.89406 0.0
H833 H 0.47069 0.43013 0.02918 0.0
H834 H 0.48535 0.41004 0.05257 0.0
H835 H 0.45909 0.4072 0.05032 0.0
C836 C 0.47075 0.35327 0.08567 0.0
C837 C 0.45245 0.34341 0.08233 0.0
C838 C 0.47643 0.367 0.04546 0.0
C839 C 0.46385 0.37126 0.00151 0.0
C840 C 0.44564 0.36137 0.99789 0.0
H841 H 0.46911 0.46942 0.77467 0.0
H842 H 0.4611 0.44561 0.84714 0.0
C843 C 0.43997 0.3476 0.03793 0.0
C844 C 0.46977 0.3857 0.95849 0.0
H845 H 0.48257 0.43411 0.93779 0.0
C846 C 0.47082 0.37923 0.90356 0.0
C847 C 0.47384 0.40578 0.971 0.0
C848 C 0.47203 0.4138 0.02886 0.0
C849 C 0.4759 0.39227 0.86075 0.0
C850 C 0.48042 0.41224 0.87342 0.0
C851 C 0.47928 0.41874 0.92831 0.0
C852 C 0.4857 0.42678 0.83003 0.0
C853 C 0.47592 0.38465 0.80222 0.0
C854 C 0.50238 0.42423 0.7969 0.0
C855 C 0.50698 0.43778 0.75518 0.0
C856 C 0.49506 0.45422 0.74616 0.0
C857 C 0.47859 0.45692 0.7803 0.0
C858 C 0.47399 0.44334 0.82184 0.0
H859 H 0.46743 0.37056 0.79823 0.0
H860 H 0.46963 0.39563 0.7736 0.0
H861 H 0.49124 0.38188 0.78918 0.0
H862 H 0.51185 0.41177 0.80331 0.0
H863 H 0.51985 0.43532 0.72998 0.0
H864 H 0.13482 0.52213 0.30129 0.0
H865 H 0.11331 0.50671 0.23289 0.0
H866 H 0.16374 0.48795 0.13999 0.0
H867 H 0.18544 0.5037 0.20783 0.0
H868 H 0.13859 0.50869 0.07825 0.0
H869 H 0.09687 0.45098 0.19164 0.0
H870 H 0.09626 0.47435 0.22648 0.0
H871 H 0.11927 0.46201 0.21804 0.0
C872 C 0.14138 0.51438 0.26694 0.0
C873 C 0.16185 0.51429 0.25977 0.0
C874 C 0.12904 0.5054 0.22807 0.0
C875 C 0.13691 0.49596 0.18165 0.0
C876 C 0.15736 0.49506 0.17569 0.0
H877 H 0.07285 0.46797 0.87565 0.0
H878 H 0.09818 0.46666 0.94689 0.0
C879 C 0.16973 0.50409 0.21448 0.0
C880 C 0.12383 0.48944 0.13615 0.0
H881 H 0.08182 0.46314 0.10835 0.0
C882 C 0.12642 0.49839 0.08442 0.0
C883 C 0.10795 0.47604 0.14437 0.0
C884 C 0.10503 0.46515 0.19802 0.0
C885 C 0.11291 0.49523 0.0417 0.0
C886 C 0.09654 0.48252 0.05073 0.0
C887 C 0.09438 0.47289 0.10164 0.0
C888 C 0.08059 0.48067 0.00968 0.0
C889 C 0.11567 0.50641 0.98834 0.0
C890 C 0.06209 0.48821 0.02218 0.0
C891 C 0.04758 0.48893 0.9818 0.0
C892 C 0.0513 0.48207 0.92804 0.0
C893 C 0.06955 0.47354 0.91646 0.0
C894 C 0.08406 0.47282 0.95703 0.0
H895 H 0.12709 0.51825 0.99173 0.0
H896 H 0.12022 0.49603 0.95546 0.0
H897 H 0.1017 0.51319 0.97539 0.0
H898 H 0.05912 0.4943 0.06266 0.0
H899 H 0.03366 0.49545 0.99235 0.0
H900 H 0.96259 0.86527 0.17714 0.0
H901 H 0.97526 0.89173 0.23581 0.0
H902 H 0.02663 0.85762 0.27072 0.0
H903 H 0.01374 0.8307 0.21292 0.0
H904 H 0.00945 0.86986 0.36287 0.0
H905 H 0.01741 0.93366 0.22275 0.0
H906 H 0.99338 0.92266 0.21747 0.0
H907 H 0.01451 0.90865 0.19766 0.0
C908 C 0.97674 0.86347 0.19657 0.0
C909 C 0.98707 0.84579 0.19086 0.0
C910 C 0.98408 0.87875 0.22967 0.0
C911 C 0.00203 0.8768 0.25709 0.0
C912 C 0.01279 0.85948 0.24966 0.0
H913 H 0.04489 0.97085 0.47929 0.0
H914 H 0.04242 0.94783 0.40143 0.0
C915 C 0.0054 0.84411 0.21669 0.0
C916 C 0.00819 0.89174 0.2986 0.0
H917 H 0.01344 0.94144 0.31988 0.0
C918 C 0.01068 0.88547 0.35321 0.0
C919 C 0.01003 0.9121 0.28601 0.0
C920 C 0.0089 0.91962 0.22764 0.0
C921 C 0.01387 0.89907 0.39599 0.0
C922 C 0.01415 0.9195 0.384 0.0
C923 C 0.01282 0.92577 0.32905 0.0
C924 C 0.015 0.93448 0.42846 0.0
C925 C 0.01665 0.89143 0.45382 0.0
C926 C 5e-05 0.93502 0.46825 0.0
C927 C 0.00141 0.94806 0.51271 0.0
C928 C 0.01769 0.96097 0.51801 0.0
C929 C 0.03218 0.96106 0.47655 0.0
C930 C 0.03083 0.94792 0.43207 0.0
H931 H 0.02183 0.87595 0.45367 0.0
H932 H 0.02735 0.90077 0.47702 0.0
H933 H 0.0024 0.89166 0.476 0.0
H934 H 0.98748 0.92506 0.46543 0.0
H935 H 0.98988 0.94772 0.54351 0.0
H936 H 0.68326 0.0377 0.19733 0.0
H937 H 0.65486 0.03838 0.25988 0.0
H938 H 0.67481 0.98552 0.33935 0.0
H939 H 0.70303 0.98462 0.27737 0.0
H940 H 0.62563 0.00425 0.27789 0.0
H941 H 0.66668 0.02859 0.46451 0.0
H942 H 0.67569 0.03293 0.39536 0.0
H943 H 0.67743 0.00885 0.42567 0.0
C944 C 0.68162 0.02629 0.22833 0.0
C945 C 0.69541 0.01116 0.23261 0.0
C946 C 0.6654 0.02667 0.26379 0.0
C947 C 0.66293 0.01208 0.30429 0.0
C948 C 0.67663 0.99699 0.30858 0.0
H949 H 0.587 0.98057 0.57218 0.0
H950 H 0.61225 0.98326 0.50094 0.0
C951 C 0.69271 0.9965 0.27304 0.0
C952 C 0.64597 0.01228 0.34217 0.0
H953 H 0.63411 0.01672 0.47817 0.0
C954 C 0.62735 0.00719 0.32161 0.0
C955 C 0.64842 0.01605 0.39901 0.0
C956 C 0.66809 0.02207 0.42264 0.0
C957 C 0.61113 0.00501 0.35708 0.0
C958 C 0.61367 0.0084 0.41423 0.0
C959 C 0.63224 0.01401 0.43438 0.0
C960 C 0.59746 0.00579 0.4544 0.0
C961 C 0.59166 0.99835 0.33342 0.0
C962 C 0.58067 0.01743 0.4515 0.0
C963 C 0.56611 0.01583 0.49201 0.0
C964 C 0.56822 0.00272 0.5365 0.0
C965 C 0.58491 0.99083 0.5386 0.0
C966 C 0.59937 0.99236 0.49795 0.0
H967 H 0.59334 0.99168 0.29182 0.0
H968 H 0.58426 0.9874 0.36084 0.0
H969 H 0.582 0.01129 0.32956 0.0
H970 H 0.57909 0.02816 0.41884 0.0
H971 H 0.55351 0.02531 0.48933 0.0
H972 H 0.45718 0.67433 0.16854 0.0
H973 H 0.46807 0.64566 0.22027 0.0
H974 H 0.51053 0.68225 0.30601 0.0
H975 H 0.4996 0.71115 0.25474 0.0
H976 H 0.50684 0.63128 0.21772 0.0
H977 H 0.48309 0.6508 0.43031 0.0
H978 H 0.47345 0.66273 0.36989 0.0
H979 H 0.49745 0.66935 0.39491 0.0
C980 C 0.46861 0.67639 0.19905 0.0
C981 C 0.47753 0.69503 0.20756 0.0
C982 C 0.47486 0.65996 0.22838 0.0
C983 C 0.49005 0.66187 0.26697 0.0
C984 C 0.49861 0.68054 0.27687 0.0
H985 H 0.54112 0.57344 0.48008 0.0
H986 H 0.53707 0.60321 0.42492 0.0
C987 C 0.49234 0.69702 0.24754 0.0
C988 C 0.4975 0.64409 0.29463 0.0
H989 H 0.5014 0.62178 0.41991 0.0
C990 C 0.50571 0.62919 0.26196 0.0
C991 C 0.49611 0.64153 0.3523 0.0
C992 C 0.48692 0.65685 0.38903 0.0
C993 C 0.51245 0.61166 0.28548 0.0
C994 C 0.51064 0.6089 0.343 0.0
C995 C 0.50283 0.624 0.37579 0.0
C996 C 0.51557 0.59006 0.36998 0.0
C997 C 0.5215 0.59631 0.24862 0.0
C998 C 0.50523 0.57263 0.35628 0.0
C999 C 0.50754 0.55554 0.38758 0.0
C1000 C 0.52008 0.55566 0.43356 0.0
C1001 C 0.53129 0.57283 0.44509 0.0
C1002 C 0.52897 0.58989 0.4137 0.0
H1003 H 0.5272 0.60294 0.20976 0.0
H1004 H 0.53367 0.58874 0.26978 0.0
H1005 H 0.51016 0.58505 0.23753 0.0
H1006 H 0.49456 0.57254 0.32327 0.0
H1007 H 0.49864 0.54262 0.37761 0.0
H1008 H 0.85177 0.49566 0.23543 0.0
H1009 H 0.87691 0.49286 0.30677 0.0
H1010 H 0.85217 0.54216 0.39393 0.0
H1011 H 0.82682 0.54487 0.32353 0.0
H1012 H 0.90504 0.52028 0.34295 0.0
H1013 H 0.85375 0.49927 0.51181 0.0
H1014 H 0.84662 0.49891 0.44021 0.0
H1015 H 0.84763 0.52184 0.47773 0.0
C1016 C 0.85162 0.50586 0.2699 0.0
C1017 C 0.83717 0.52036 0.27411 0.0
C1018 C 0.86603 0.50427 0.3105 0.0
C1019 C 0.8662 0.5171 0.35602 0.0
C1020 C 0.85205 0.53184 0.35973 0.0
H1021 H 0.96159 0.53557 0.59102 0.0
H1022 H 0.93784 0.53918 0.51626 0.0
C1023 C 0.83761 0.53341 0.3193 0.0
C1024 C 0.88117 0.51509 0.39968 0.0
H1025 H 0.88665 0.50657 0.53735 0.0
C1026 C 0.90107 0.51724 0.38546 0.0
C1027 C 0.87591 0.51089 0.45493 0.0
C1028 C 0.85483 0.5074 0.47214 0.0
C1029 C 0.91587 0.51551 0.42525 0.0
C1030 C 0.91056 0.51188 0.48078 0.0
C1031 C 0.89067 0.50955 0.49482 0.0
C1032 C 0.92537 0.50972 0.52489 0.0
C1033 C 0.93704 0.51717 0.40729 0.0
C1034 C 0.92597 0.49213 0.55516 0.0
C1035 C 0.93933 0.49009 0.59815 0.0
C1036 C 0.95239 0.50565 0.61189 0.0
C1037 C 0.95182 0.52327 0.58134 0.0
C1038 C 0.93834 0.52532 0.53838 0.0
H1039 H 0.93869 0.51493 0.36213 0.0
H1040 H 0.94282 0.53216 0.41748 0.0
H1041 H 0.94614 0.50622 0.42904 0.0
H1042 H 0.91604 0.47994 0.54552 0.0
H1043 H 0.93936 0.47629 0.62065 0.0
loop_
_geom_bond_atom_site_label_1
_geom_bond_atom_site_label_2
_geom_bond_distance
_geom_bond_site_symmetry_2
_ccdc_geom_bond_type
O0 Cd1 2.289 1_556 S
O0 C7 1.275 . S
Cd1 O0 2.289 1_554 S
Cd1 O9 2.372 1_554 S
Cd1 O10 2.381 . S
O2 Cd3 2.385 . S
O2 C7 1.255 1_554 S
Cd3 O2 2.385 . S
Cd3 O4 2.317 . S
O4 Cd3 2.317 . S
O4 C5 1.232 . S
C5 O4 1.232 . S
C5 O6 1.218 . S
O6 C5 1.218 . S
C7 O0 1.275 . S
C7 O2 1.255 1_556 S
C8 O9 1.258 . S
C8 O10 1.256 1_556 S
O9 Cd1 2.372 1_556 S
O9 C8 1.258 . S
O10 Cd1 2.381 . S
O10 C8 1.256 1_554 S
O11 Cd12 2.300 1_655 S
O11 C18 1.275 1_655 S
Cd12 O11 2.300 1_455 S
Cd12 O20 2.381 1_455 S
Cd12 O21 2.378 . S
O13 Cd14 2.385 . S
O13 C18 1.255 . S
Cd14 O13 2.385 . S
Cd14 O15 2.317 . S
O15 Cd14 2.317 . S
O15 C16 1.232 . S
C16 O15 1.232 . S
C16 O17 1.218 . S
O17 C16 1.218 . S
C18 O11 1.275 1_455 S
C18 O13 1.255 . S
C19 O20 1.252 1_455 S
C19 O21 1.264 . S
O20 Cd12 2.381 1_655 S
O20 C19 1.252 1_655 S
O21 Cd12 2.378 . S
O21 C19 1.264 . S
O22 Cd23 2.300 1_566 S
O22 C29 1.275 1_566 S
Cd23 O22 2.300 1_544 S
Cd23 O31 2.381 1_545 S
Cd23 O32 2.378 . S
O24 Cd25 2.385 . S
O24 C29 1.255 . S
Cd25 O24 2.385 . S
Cd25 O26 2.317 . S
O26 Cd25 2.317 . S
O26 C27 1.232 . S
C27 O26 1.232 . S
C27 O28 1.218 . S
O28 C27 1.218 . S
C29 O22 1.275 1_544 S
C29 O24 1.255 . S
C30 O31 1.258 1_545 S
C30 O32 1.256 . S
O31 Cd23 2.381 1_565 S
O31 C30 1.258 1_565 S
O32 Cd23 2.378 . S
O32 C30 1.256 . S
O33 Cd34 2.300 1_556 S
O33 C40 1.275 . S
Cd34 O33 2.300 1_554 S
Cd34 O42 2.381 1_554 S
Cd34 O43 2.378 . S
O35 Cd36 2.385 . S
O35 C40 1.255 1_554 S
Cd36 O35 2.385 . S
Cd36 O37 2.317 . S
O37 Cd36 2.317 . S
O37 C38 1.232 . S
C38 O37 1.232 . S
C38 O39 1.218 . S
O39 C38 1.218 . S
C40 O33 1.275 . S
C40 O35 1.255 1_556 S
C41 O42 1.258 1_554 S
C41 O43 1.255 . S
O42 Cd34 2.381 1_556 S
O42 C41 1.258 1_556 S
O43 Cd34 2.378 . S
O43 C41 1.255 . S
O44 Cd45 2.300 . S
O44 C51 1.275 . S
Cd45 O44 2.300 . S
Cd45 O53 2.381 . S
Cd45 O54 2.378 . S
O46 Cd47 2.385 . S
O46 C51 1.255 . S
Cd47 O46 2.385 . S
Cd47 O48 2.317 . S
O48 Cd47 2.317 . S
O48 C49 1.232 . S
C49 O48 1.232 . S
C49 O50 1.218 . S
O50 C49 1.218 . S
C51 O44 1.275 . S
C51 O46 1.255 . S
C52 O53 1.258 . S
C52 O54 1.256 . S
O53 Cd45 2.381 . S
O53 C52 1.258 . S
O54 Cd45 2.378 . S
O54 C52 1.256 . S
O55 Cd56 2.300 . S
O55 C62 1.275 . S
Cd56 O55 2.300 . S
Cd56 O64 2.381 . S
Cd56 O65 2.378 . S
O57 Cd58 2.385 . S
O57 C62 1.255 . S
Cd58 O57 2.385 . S
Cd58 O59 2.317 . S
O59 Cd58 2.317 . S
O59 C60 1.232 . S
C60 O59 1.232 . S
C60 O61 1.218 . S
O61 C60 1.218 . S
C62 O55 1.275 . S
C62 O57 1.255 . S
C63 O64 1.258 . S
C63 O65 1.256 . S
O64 Cd56 2.381 . S
O64 C63 1.258 . S
O65 Cd56 2.378 . S
O65 C63 1.256 . S
O66 Cd67 2.300 . S
O66 C73 1.275 . S
Cd67 O66 2.300 . S
Cd67 O75 2.385 . S
Cd67 O76 2.378 . S
O68 Cd69 2.385 . S
O68 C73 1.255 . S
Cd69 O68 2.385 . S
Cd69 O70 2.317 . S
O70 Cd69 2.317 . S
O70 C71 1.232 . S
C71 O70 1.232 . S
C71 O72 1.218 . S
O72 C71 1.218 . S
C73 O66 1.275 . S
C73 O68 1.255 . S
C74 O75 1.261 . S
C74 O76 1.256 . S
O75 Cd67 2.385 . S
O75 C74 1.261 . S
O76 Cd67 2.378 . S
O76 C74 1.256 . S
O77 Cd78 2.300 . S
O77 C84 1.275 . S
Cd78 O77 2.300 . S
Cd78 O86 2.381 . S
Cd78 O87 2.378 . S
O79 Cd80 2.385 . S
O79 C84 1.255 . S
Cd80 O79 2.385 . S
Cd80 O81 2.317 . S
O81 Cd80 2.317 . S
O81 C82 1.232 . S
C82 O81 1.232 . S
C82 O83 1.218 . S
O83 C82 1.218 . S
C84 O77 1.275 . S
C84 O79 1.255 . S
C85 O86 1.258 . S
C85 O87 1.256 . S
O86 Cd78 2.381 . S
O86 C85 1.258 . S
O87 Cd78 2.378 . S
O87 C85 1.256 . S
O88 Zn89 1.954 . S
O88 C104 1.225 1_545 S
Zn89 O88 1.954 . S
Zn89 O90 1.948 1_545 S
Zn89 O96 1.932 . S
Zn89 O101 1.908 1_545 S
O90 Zn89 1.948 1_565 S
O90 Zn91 1.904 1_565 S
O90 Zn92 1.952 . S
O90 Zn93 1.994 . S
Zn91 O90 1.904 1_545 S
Zn91 O94 1.933 1_455 S
Zn91 O97 1.941 . S
Zn91 O98 1.965 . S
Zn92 O90 1.952 . S
Zn92 O99 1.938 1_565 S
Zn92 O100 1.906 . S
Zn92 O110 1.953 . S
Zn93 O90 1.994 . S
Zn93 O95 1.881 1_455 S
Zn93 O102 1.971 1_455 S
Zn93 O103 1.934 . S
O94 Zn91 1.933 1_655 S
O94 C105 1.226 . S
O95 Zn93 1.881 1_655 S
O95 C105 1.307 1_565 S
O96 Zn89 1.932 . S
O96 C107 1.253 . S
O97 Zn91 1.941 . S
O97 C107 1.283 . S
O98 Zn91 1.965 . S
O98 C106 1.303 . S
O99 Zn92 1.938 1_545 S
O99 C106 1.247 . S
O100 Zn92 1.906 . S
O100 C108 1.313 . S
O101 Zn89 1.908 1_565 S
O101 C109 1.311 . S
O102 Zn93 1.971 1_655 S
O102 C108 1.270 1_655 S
O103 Zn93 1.934 . S
O103 C109 1.231 . S
C104 O88 1.225 1_565 S
C104 O110 1.298 . S
C105 O94 1.226 . S
C105 O95 1.307 1_545 S
C106 O98 1.303 . S
C106 O99 1.247 . S
C107 O96 1.253 . S
C107 O97 1.283 . S
C108 O100 1.313 . S
C108 O102 1.270 1_455 S
C109 O101 1.311 . S
C109 O103 1.231 . S
O110 Zn92 1.953 . S
O110 C104 1.298 . S
O111 Zn112 1.953 . S
O111 C127 1.225 . S
Zn112 O111 1.953 . S
Zn112 O113 1.949 . S
Zn112 O119 1.919 . S
Zn112 O124 1.924 . S
O113 Zn112 1.949 . S
O113 Zn114 1.923 1_545 S
O113 Zn115 1.950 . S
O113 Zn116 1.945 1_545 S
Zn114 O113 1.923 1_565 S
Zn114 O117 1.933 . S
Zn114 O120 1.941 . S
Zn114 O121 1.965 . S
Zn115 O113 1.950 . S
Zn115 O122 1.938 . S
Zn115 O123 1.906 . S
Zn115 O133 1.953 . S
Zn116 O113 1.945 1_565 S
Zn116 O118 1.932 . S
Zn116 O125 1.977 . S
Zn116 O126 1.910 1_565 S
O117 Zn114 1.933 . S
O117 C128 1.226 . S
O118 Zn116 1.932 . S
O118 C128 1.307 . S
O119 Zn112 1.919 . S
O119 C130 1.253 . S
O120 Zn114 1.941 . S
O120 C130 1.283 1_565 S
O121 Zn114 1.965 . S
O121 C129 1.303 1_565 S
O122 Zn115 1.938 . S
O122 C129 1.247 . S
O123 Zn115 1.906 . S
O123 C131 1.304 1_545 S
O124 Zn112 1.924 . S
O124 C132 1.311 . S
O125 Zn116 1.977 . S
O125 C131 1.272 . S
O126 Zn116 1.910 1_545 S
O126 C132 1.231 . S
C127 O111 1.225 . S
C127 O133 1.298 . S
C128 O117 1.226 . S
C128 O118 1.307 . S
C129 O121 1.303 1_545 S
C129 O122 1.247 . S
C130 O119 1.253 . S
C130 O120 1.283 1_545 S
C131 O123 1.304 1_565 S
C131 O125 1.272 . S
C132 O124 1.311 . S
C132 O126 1.231 . S
O133 Zn115 1.953 . S
O133 C127 1.298 . S
O134 Zn135 1.953 . S
O134 C150 1.225 . S
Zn135 O134 1.953 . S
Zn135 O136 1.949 . S
Zn135 O142 1.919 . S
Zn135 O147 1.924 . S
O136 Zn135 1.949 . S
O136 Zn137 1.923 . S
O136 Zn138 1.950 . S
O136 Zn139 1.945 . S
Zn137 O136 1.923 . S
Zn137 O140 1.933 . S
Zn137 O143 1.941 . S
Zn137 O144 1.965 . S
Zn138 O136 1.950 . S
Zn138 O145 1.938 . S
Zn138 O146 1.906 . S
Zn138 O156 1.953 . S
Zn139 O136 1.945 . S
Zn139 O141 1.932 . S
Zn139 O148 1.977 . S
Zn139 O149 1.910 . S
O140 Zn137 1.933 . S
O140 C151 1.226 . S
O141 Zn139 1.932 . S
O141 C151 1.307 . S
O142 Zn135 1.919 . S
O142 C153 1.253 . S
O143 Zn137 1.941 . S
O143 C153 1.283 . S
O144 Zn137 1.965 . S
O144 C152 1.303 . S
O145 Zn138 1.938 . S
O145 C152 1.247 . S
O146 Zn138 1.906 . S
O146 C154 1.304 . S
O147 Zn135 1.924 . S
O147 C155 1.311 . S
O148 Zn139 1.977 . S
O148 C154 1.272 . S
O149 Zn139 1.910 . S
O149 C155 1.231 . S
C150 O134 1.225 . S
C150 O156 1.298 . S
C151 O140 1.226 . S
C151 O141 1.307 . S
C152 O144 1.303 . S
C152 O145 1.247 . S
C153 O142 1.253 . S
C153 O143 1.283 . S
C154 O146 1.304 . S
C154 O148 1.272 . S
C155 O147 1.311 . S
C155 O149 1.231 . S
O156 Zn138 1.953 . S
O156 C150 1.298 . S
O157 Zn158 1.925 1_655 S
O157 C173 1.225 . S
Zn158 O157 1.925 1_455 S
Zn158 O159 1.949 . S
Zn158 O165 1.919 . S
Zn158 O170 1.954 . S
O159 Zn158 1.949 . S
O159 Zn160 1.917 1_455 S
O159 Zn161 1.929 1_455 S
O159 Zn162 1.973 . S
Zn160 O159 1.917 1_655 S
Zn160 O163 1.933 1_655 S
Zn160 O166 1.941 . S
Zn160 O167 1.965 . S
Zn161 O159 1.929 1_655 S
Zn161 O168 1.938 . S
Zn161 O169 1.906 . S
Zn161 O179 1.953 . S
Zn162 O159 1.973 . S
Zn162 O164 1.932 . S
Zn162 O171 1.977 . S
Zn162 O172 1.910 . S
O163 Zn160 1.933 1_455 S
O163 C174 1.226 . S
O164 Zn162 1.932 . S
O164 C174 1.307 . S
O165 Zn158 1.919 . S
O165 C176 1.251 1_455 S
O166 Zn160 1.941 . S
O166 C176 1.286 . S
O167 Zn160 1.965 . S
O167 C175 1.303 . S
O168 Zn161 1.938 . S
O168 C175 1.247 . S
O169 Zn161 1.906 . S
O169 C177 1.304 1_655 S
O170 Zn158 1.954 . S
O170 C178 1.311 . S
O171 Zn162 1.977 . S
O171 C177 1.272 . S
O172 Zn162 1.910 . S
O172 C178 1.231 . S
C173 O157 1.225 . S
C173 O179 1.298 . S
C174 O163 1.226 . S
C174 O164 1.307 . S
C175 O167 1.303 . S
C175 O168 1.247 . S
C176 O165 1.251 1_655 S
C176 O166 1.286 . S
C177 O169 1.304 1_455 S
C177 O171 1.272 . S
C178 O170 1.311 . S
C178 O172 1.231 . S
O179 Zn161 1.953 . S
O179 C173 1.298 . S
H180 C188 0.929 . S
H181 C190 0.930 . S
H182 C192 0.930 . S
H183 C195 0.929 . S
H184 C198 0.930 . S
H185 C200 0.960 . S
H186 C200 0.960 . S
H187 C200 0.960 . S
C188 H180 0.929 . S
C188 C189 1.377 . S
C188 C190 1.384 . S
C189 C188 1.377 . S
C189 C195 1.390 1_545 S
C190 H181 0.930 . S
C190 C188 1.384 . S
C190 C191 1.372 . S
C191 C190 1.372 . S
C191 C192 1.400 1_545 S
C191 C196 1.490 . S
C192 H182 0.930 . S
C192 C191 1.400 1_565 S
C192 C195 1.386 . S
H193 C209 0.930 . S
H194 C210 0.931 . S
C195 H183 0.929 . S
C195 C189 1.390 1_565 S
C195 C192 1.386 . S
C196 C191 1.490 . S
C196 C198 1.395 1_545 S
C196 C199 1.403 . S
H197 C203 0.930 . S
C198 H184 0.930 . S
C198 C196 1.395 1_565 S
C198 C201 1.403 . S
C199 C196 1.403 . S
C199 C200 1.524 . S
C199 C203 1.400 . S
C200 H185 0.960 . S
C200 H186 0.960 . S
C200 H187 0.960 . S
C200 C199 1.524 . S
C201 C198 1.403 . S
C201 C202 1.388 1_565 S
C201 C205 1.495 . S
C202 C201 1.388 1_545 S
C202 C203 1.391 . S
C202 C204 1.477 1_545 S
C203 H197 0.930 . S
C203 C199 1.400 . S
C203 C202 1.391 . S
C204 C202 1.477 1_565 S
C204 C206 1.381 1_565 S
C204 C210 1.383 . S
C205 C201 1.495 . S
C205 H211 0.959 . S
C205 H212 0.961 . S
C205 H213 0.960 . S
C206 C204 1.381 1_545 S
C206 C207 1.394 . S
C206 H214 0.930 . S
C207 C206 1.394 . S
C207 C208 1.383 1_545 S
C207 H215 0.929 . S
C208 C207 1.383 1_565 S
C208 C209 1.377 . S
C209 H193 0.930 . S
C209 C208 1.377 . S
C209 C210 1.379 . S
C210 H194 0.931 . S
C210 C204 1.383 . S
C210 C209 1.379 . S
H211 C205 0.959 . S
H212 C205 0.961 . S
H213 C205 0.960 . S
H214 C206 0.930 . S
H215 C207 0.929 . S
H216 C224 0.929 . S
H217 C226 0.930 . S
H218 C228 0.930 . S
H219 C231 0.929 . S
H220 C234 0.930 . S
H221 C236 0.960 . S
H222 C236 0.960 . S
H223 C236 0.960 . S
C224 H216 0.929 . S
C224 C225 1.377 . S
C224 C226 1.384 . S
C225 C224 1.377 . S
C225 C231 1.390 . S
C226 H217 0.930 . S
C226 C224 1.384 . S
C226 C227 1.372 . S
C227 C226 1.372 . S
C227 C228 1.400 . S
C227 C232 1.490 . S
C228 H218 0.930 . S
C228 C227 1.400 . S
C228 C231 1.386 . S
H229 C245 0.930 . S
H230 C246 0.931 . S
C231 H219 0.929 . S
C231 C225 1.390 . S
C231 C228 1.386 . S
C232 C227 1.490 . S
C232 C234 1.395 . S
C232 C235 1.403 . S
H233 C239 0.930 . S
C234 H220 0.930 . S
C234 C232 1.395 . S
C234 C237 1.403 . S
C235 C232 1.403 . S
C235 C236 1.524 . S
C235 C239 1.400 . S
C236 H221 0.960 . S
C236 H222 0.960 . S
C236 H223 0.960 . S
C236 C235 1.524 . S
C237 C234 1.403 . S
C237 C238 1.392 . S
C237 C241 1.495 . S
C238 C237 1.392 . S
C238 C239 1.385 . S
C238 C240 1.478 . S
C239 H233 0.930 . S
C239 C235 1.400 . S
C239 C238 1.385 . S
C240 C238 1.478 . S
C240 C242 1.381 . S
C240 C246 1.383 . S
C241 C237 1.495 . S
C241 H247 0.959 . S
C241 H248 0.961 . S
C241 H249 0.960 . S
C242 C240 1.381 . S
C242 C243 1.394 . S
C242 H250 0.930 . S
C243 C242 1.394 . S
C243 C244 1.383 . S
C243 H251 0.929 . S
C244 C243 1.383 . S
C244 C245 1.377 . S
C245 H229 0.930 . S
C245 C244 1.377 . S
C245 C246 1.379 . S
C246 H230 0.931 . S
C246 C240 1.383 . S
C246 C245 1.379 . S
H247 C241 0.959 . S
H248 C241 0.961 . S
H249 C241 0.960 . S
H250 C242 0.930 . S
H251 C243 0.929 . S
H252 C260 0.929 . S
H253 C262 0.930 . S
H254 C264 0.930 . S
H255 C267 0.929 . S
H256 C270 0.930 . S
H257 C272 0.960 . S
H258 C272 0.960 . S
H259 C272 0.960 . S
C260 H252 0.929 . S
C260 C261 1.377 . S
C260 C262 1.384 . S
C261 C260 1.377 . S
C261 C267 1.390 . S
C262 H253 0.930 . S
C262 C260 1.384 . S
C262 C263 1.372 . S
C263 C262 1.372 . S
C263 C264 1.400 . S
C263 C268 1.490 . S
C264 H254 0.930 . S
C264 C263 1.400 . S
C264 C267 1.386 . S
H265 C281 0.930 . S
H266 C282 0.931 . S
C267 H255 0.929 . S
C267 C261 1.390 . S
C267 C264 1.386 . S
C268 C263 1.490 . S
C268 C270 1.395 . S
C268 C271 1.403 . S
H269 C275 0.930 . S
C270 H256 0.930 . S
C270 C268 1.395 . S
C270 C273 1.403 . S
C271 C268 1.403 . S
C271 C272 1.524 . S
C271 C275 1.400 . S
C272 H257 0.960 . S
C272 H258 0.960 . S
C272 H259 0.960 . S
C272 C271 1.524 . S
C273 C270 1.403 . S
C273 C274 1.392 . S
C273 C277 1.495 . S
C274 C273 1.392 . S
C274 C275 1.385 . S
C274 C276 1.478 . S
C275 H269 0.930 . S
C275 C271 1.400 . S
C275 C274 1.385 . S
C276 C274 1.478 . S
C276 C278 1.381 . S
C276 C282 1.383 . S
C277 C273 1.495 . S
C277 H283 0.959 . S
C277 H284 0.961 . S
C277 H285 0.960 . S
C278 C276 1.381 . S
C278 C279 1.394 . S
C278 H286 0.930 . S
C279 C278 1.394 . S
C279 C280 1.383 . S
C279 H287 0.929 . S
C280 C279 1.383 . S
C280 C281 1.377 . S
C281 H265 0.930 . S
C281 C280 1.377 . S
C281 C282 1.379 . S
C282 H266 0.931 . S
C282 C276 1.383 . S
C282 C281 1.379 . S
H283 C277 0.959 . S
H284 C277 0.961 . S
H285 C277 0.960 . S
H286 C278 0.930 . S
H287 C279 0.929 . S
H288 C296 0.929 . S
H289 C298 0.930 . S
H290 C300 0.930 . S
H291 C303 0.929 . S
H292 C306 0.930 . S
H293 C308 0.960 . S
H294 C308 0.960 . S
H295 C308 0.960 . S
C296 H288 0.929 . S
C296 C297 1.377 . S
C296 C298 1.384 . S
C297 C296 1.377 . S
C297 C303 1.390 . S
C298 H289 0.930 . S
C298 C296 1.384 . S
C298 C299 1.372 . S
C299 C298 1.372 . S
C299 C300 1.400 . S
C299 C304 1.490 . S
C300 H290 0.930 . S
C300 C299 1.400 . S
C300 C303 1.386 . S
H301 C317 0.930 . S
H302 C318 0.931 1_655 S
C303 H291 0.929 . S
C303 C297 1.390 . S
C303 C300 1.386 . S
C304 C299 1.490 . S
C304 C306 1.395 . S
C304 C307 1.403 . S
H305 C311 0.930 . S
C306 H292 0.930 . S
C306 C304 1.395 . S
C306 C309 1.403 . S
C307 C304 1.403 . S
C307 C308 1.524 . S
C307 C311 1.400 . S
C308 H293 0.960 . S
C308 H294 0.960 . S
C308 H295 0.960 . S
C308 C307 1.524 . S
C309 C306 1.403 . S
C309 C310 1.392 . S
C309 C313 1.495 . S
C310 C309 1.392 . S
C310 C311 1.385 . S
C310 C312 1.478 . S
C311 H305 0.930 . S
C311 C307 1.400 . S
C311 C310 1.385 . S
C312 C310 1.478 . S
C312 C314 1.381 . S
C312 C318 1.383 . S
C313 C309 1.495 . S
C313 H319 0.959 . S
C313 H320 0.961 . S
C313 H321 0.960 . S
C314 C312 1.381 . S
C314 C315 1.394 . S
C314 H322 0.930 . S
C315 C314 1.394 . S
C315 C316 1.383 . S
C315 H323 0.929 . S
C316 C315 1.383 . S
C316 C317 1.377 1_455 S
C317 H301 0.930 . S
C317 C316 1.377 1_655 S
C317 C318 1.379 1_655 S
C318 H302 0.931 1_455 S
C318 C312 1.383 . S
C318 C317 1.379 1_455 S
H319 C313 0.959 . S
H320 C313 0.961 . S
H321 C313 0.960 . S
H322 C314 0.930 . S
H323 C315 0.929 . S
H324 C332 0.929 . S
H325 C334 0.930 . S
H326 C336 0.930 . S
H327 C339 0.929 . S
H328 C342 0.930 . S
H329 C344 0.960 . S
H330 C344 0.960 . S
H331 C344 0.960 1_554 S
C332 H324 0.929 . S
C332 C333 1.392 1_556 S
C332 C334 1.384 . S
C333 C332 1.392 1_554 S
C333 C339 1.377 1_565 S
C334 H325 0.930 . S
C334 C332 1.384 . S
C334 C335 1.378 . S
C335 C334 1.378 . S
C335 C336 1.394 1_566 S
C335 C340 1.490 1_565 S
C336 H326 0.930 . S
C336 C335 1.394 1_544 S
C336 C339 1.386 . S
H337 C353 0.930 . S
H338 C354 0.931 . S
C339 H327 0.929 . S
C339 C333 1.377 1_545 S
C339 C336 1.386 . S
C340 C335 1.490 1_545 S
C340 C342 1.407 . S
C340 C343 1.391 1_545 S
H341 C347 0.930 . S
C342 H328 0.930 . S
C342 C340 1.407 . S
C342 C345 1.403 . S
C343 C340 1.391 1_565 S
C343 C344 1.524 . S
C343 C347 1.400 . S
C344 H329 0.960 . S
C344 H330 0.960 . S
C344 H331 0.960 1_556 S
C344 C343 1.524 . S
C345 C342 1.403 . S
C345 C346 1.392 . S
C345 C349 1.495 . S
C346 C345 1.392 . S
C346 C347 1.385 1_545 S
C346 C348 1.478 . S
C347 H341 0.930 . S
C347 C343 1.400 . S
C347 C346 1.385 1_565 S
C348 C346 1.478 . S
C348 C350 1.381 1_545 S
C348 C354 1.383 . S
C349 C345 1.495 . S
C349 H355 0.959 . S
C349 H356 0.961 . S
C349 H357 0.960 . S
C350 C348 1.381 1_565 S
C350 C351 1.394 . S
C350 H358 0.930 . S
C351 C350 1.394 . S
C351 C352 1.383 1_565 S
C351 H359 0.929 . S
C352 C351 1.383 1_545 S
C352 C353 1.377 . S
C353 H337 0.930 . S
C353 C352 1.377 . S
C353 C354 1.379 . S
C354 H338 0.931 . S
C354 C348 1.383 . S
C354 C353 1.379 . S
H355 C349 0.959 . S
H356 C349 0.961 . S
H357 C349 0.960 . S
H358 C350 0.930 . S
H359 C351 0.929 . S
H360 C368 0.929 . S
H361 C370 0.930 1_554 S
H362 C372 0.930 . S
H363 C375 0.929 . S
H364 C378 0.930 . S
H365 C380 0.960 . S
H366 C380 0.960 . S
H367 C380 0.960 . S
C368 H360 0.929 . S
C368 C369 1.377 1_554 S
C368 C370 1.384 1_554 S
C369 C368 1.377 1_556 S
C369 C375 1.390 . S
C370 H361 0.930 1_556 S
C370 C368 1.384 1_556 S
C370 C371 1.372 . S
C371 C370 1.372 . S
C371 C372 1.400 . S
C371 C376 1.490 . S
C372 H362 0.930 . S
C372 C371 1.400 . S
C372 C375 1.386 . S
H373 C389 0.930 . S
H374 C390 0.931 . S
C375 H363 0.929 . S
C375 C369 1.390 . S
C375 C372 1.386 . S
C376 C371 1.490 . S
C376 C378 1.395 . S
C376 C379 1.403 . S
H377 C383 0.930 . S
C378 H364 0.930 . S
C378 C376 1.395 . S
C378 C381 1.403 . S
C379 C376 1.403 . S
C379 C380 1.524 . S
C379 C383 1.400 . S
C380 H365 0.960 . S
C380 H366 0.960 . S
C380 H367 0.960 . S
C380 C379 1.524 . S
C381 C378 1.403 . S
C381 C382 1.392 . S
C381 C385 1.495 . S
C382 C381 1.392 . S
C382 C383 1.385 . S
C382 C384 1.478 . S
C383 H377 0.930 . S
C383 C379 1.400 . S
C383 C382 1.385 . S
C384 C382 1.478 . S
C384 C386 1.381 . S
C384 C390 1.383 . S
C385 C381 1.495 . S
C385 H391 0.959 . S
C385 H392 0.961 . S
C385 H393 0.960 . S
C386 C384 1.381 . S
C386 C387 1.394 . S
C386 H394 0.930 . S
C387 C386 1.394 . S
C387 C388 1.383 . S
C387 H395 0.929 . S
C388 C387 1.383 . S
C388 C389 1.377 . S
C389 H373 0.930 . S
C389 C388 1.377 . S
C389 C390 1.379 . S
C390 H374 0.931 . S
C390 C384 1.383 . S
C390 C389 1.379 . S
H391 C385 0.959 . S
H392 C385 0.961 . S
H393 C385 0.960 . S
H394 C386 0.930 . S
H395 C387 0.929 . S
H396 C404 0.929 . S
H397 C406 0.930 . S
H398 C408 0.930 . S
H399 C411 0.929 . S
H400 C414 0.930 . S
H401 C416 0.960 . S
H402 C416 0.960 . S
H403 C416 0.960 . S
C404 H396 0.929 . S
C404 C405 1.377 . S
C404 C406 1.384 . S
C405 C404 1.377 . S
C405 C411 1.390 . S
C406 H397 0.930 . S
C406 C404 1.384 . S
C406 C407 1.372 . S
C407 C406 1.372 . S
C407 C408 1.400 . S
C407 C412 1.490 . S
C408 H398 0.930 . S
C408 C407 1.400 . S
C408 C411 1.386 . S
H409 C425 0.930 . S
H410 C426 0.931 . S
C411 H399 0.929 . S
C411 C405 1.390 . S
C411 C408 1.386 . S
C412 C407 1.490 . S
C412 C414 1.395 . S
C412 C415 1.403 . S
H413 C419 0.930 . S
C414 H400 0.930 . S
C414 C412 1.395 . S
C414 C417 1.403 . S
C415 C412 1.403 . S
C415 C416 1.524 . S
C415 C419 1.400 . S
C416 H401 0.960 . S
C416 H402 0.960 . S
C416 H403 0.960 . S
C416 C415 1.524 . S
C417 C414 1.403 . S
C417 C418 1.392 . S
C417 C421 1.495 . S
C418 C417 1.392 . S
C418 C419 1.385 . S
C418 C420 1.478 . S
C419 H413 0.930 . S
C419 C415 1.400 . S
C419 C418 1.385 . S
C420 C418 1.478 . S
C420 C422 1.381 . S
C420 C426 1.383 . S
C421 C417 1.495 . S
C421 H427 0.959 . S
C421 H428 0.961 . S
C421 H429 0.960 . S
C422 C420 1.381 . S
C422 C423 1.394 . S
C422 H430 0.930 . S
C423 C422 1.394 . S
C423 C424 1.383 . S
C423 H431 0.929 . S
C424 C423 1.383 . S
C424 C425 1.377 . S
C425 H409 0.930 . S
C425 C424 1.377 . S
C425 C426 1.379 . S
C426 H410 0.931 . S
C426 C420 1.383 . S
C426 C425 1.379 . S
H427 C421 0.959 . S
H428 C421 0.961 . S
H429 C421 0.960 . S
H430 C422 0.930 . S
H431 C423 0.929 . S
H432 C440 0.929 . S
H433 C442 0.930 . S
H434 C444 0.930 . S
H435 C447 0.929 . S
H436 C450 0.930 . S
H437 C452 0.960 . S
H438 C452 0.960 . S
H439 C452 0.960 . S
C440 H432 0.929 . S
C440 C441 1.377 . S
C440 C442 1.384 1_554 S
C441 C440 1.377 . S
C441 C447 1.390 1_655 S
C442 H433 0.930 . S
C442 C440 1.384 1_556 S
C442 C443 1.372 . S
C443 C442 1.372 . S
C443 C444 1.400 1_655 S
C443 C448 1.490 . S
C444 H434 0.930 . S
C444 C443 1.400 1_455 S
C444 C447 1.386 1_556 S
H445 C461 0.930 . S
H446 C462 0.931 . S
C447 H435 0.929 . S
C447 C441 1.390 1_455 S
C447 C444 1.386 1_554 S
C448 C443 1.490 . S
C448 C450 1.395 . S
C448 C451 1.403 1_655 S
H449 C455 0.930 . S
C450 H436 0.930 . S
C450 C448 1.395 . S
C450 C453 1.403 . S
C451 C448 1.403 1_455 S
C451 C452 1.524 1_556 S
C451 C455 1.400 . S
C452 H437 0.960 . S
C452 H438 0.960 . S
C452 H439 0.960 . S
C452 C451 1.524 1_554 S
C453 C450 1.403 . S
C453 C454 1.392 . S
C453 C457 1.495 . S
C454 C453 1.392 . S
C454 C455 1.385 1_655 S
C454 C456 1.478 . S
C455 H449 0.930 . S
C455 C451 1.400 . S
C455 C454 1.385 1_455 S
C456 C454 1.478 . S
C456 C458 1.391 . S
C456 C462 1.372 1_655 S
C457 C453 1.495 . S
C457 H463 0.959 . S
C457 H464 0.961 . S
C457 H465 0.960 . S
C458 C456 1.391 . S
C458 C459 1.394 . S
C458 H466 0.930 . S
C459 C458 1.394 . S
C459 C460 1.383 1_655 S
C459 H467 0.929 . S
C460 C459 1.383 1_455 S
C460 C461 1.377 . S
C461 H445 0.930 . S
C461 C460 1.377 . S
C461 C462 1.379 . S
C462 H446 0.931 . S
C462 C456 1.372 1_455 S
C462 C461 1.379 . S
H463 C457 0.959 . S
H464 C457 0.961 . S
H465 C457 0.960 . S
H466 C458 0.930 . S
H467 C459 0.929 . S
H468 C476 0.929 . S
H469 C478 0.930 . S
H470 C480 0.930 . S
H471 C483 0.929 . S
H472 C486 0.930 . S
H473 C488 0.960 . S
H474 C488 0.960 . S
H475 C488 0.960 . S
C476 H468 0.929 . S
C476 C477 1.377 . S
C476 C478 1.384 . S
C477 C476 1.377 . S
C477 C483 1.390 . S
C478 H469 0.930 . S
C478 C476 1.384 . S
C478 C479 1.372 . S
C479 C478 1.372 . S
C479 C480 1.400 . S
C479 C484 1.490 . S
C480 H470 0.930 . S
C480 C479 1.400 . S
C480 C483 1.386 . S
H481 C497 0.930 1_655 S
H482 C498 0.931 . S
C483 H471 0.929 . S
C483 C477 1.390 . S
C483 C480 1.386 . S
C484 C479 1.490 . S
C484 C486 1.395 . S
C484 C487 1.403 . S
H485 C491 0.930 . S
C486 H472 0.930 . S
C486 C484 1.395 . S
C486 C489 1.403 . S
C487 C484 1.403 . S
C487 C488 1.524 . S
C487 C491 1.400 . S
C488 H473 0.960 . S
C488 H474 0.960 . S
C488 H475 0.960 . S
C488 C487 1.524 . S
C489 C486 1.403 . S
C489 C490 1.392 . S
C489 C493 1.495 . S
C490 C489 1.392 . S
C490 C491 1.385 . S
C490 C492 1.478 . S
C491 H485 0.930 . S
C491 C487 1.400 . S
C491 C490 1.385 . S
C492 C490 1.478 . S
C492 C494 1.381 . S
C492 C498 1.383 . S
C493 C489 1.495 . S
C493 H499 0.959 . S
C493 H500 0.961 . S
C493 H501 0.960 . S
C494 C492 1.381 . S
C494 C495 1.394 . S
C494 H502 0.930 . S
C495 C494 1.394 . S
C495 C496 1.383 . S
C495 H503 0.929 . S
C496 C495 1.383 . S
C496 C497 1.377 . S
C497 H481 0.930 1_455 S
C497 C496 1.377 . S
C497 C498 1.379 . S
C498 H482 0.931 . S
C498 C492 1.383 . S
C498 C497 1.379 . S
H499 C493 0.959 . S
H500 C493 0.961 . S
H501 C493 0.960 . S
H502 C494 0.930 . S
H503 C495 0.929 . S
H504 C512 0.929 . S
H505 C514 0.930 . S
H506 C516 0.930 . S
H507 C519 0.929 . S
H508 C522 0.930 . S
H509 C524 0.960 . S
H510 C524 0.960 . S
H511 C524 0.960 . S
C512 H504 0.929 . S
C512 C513 1.377 . S
C512 C514 1.384 . S
C513 C512 1.377 . S
C513 C519 1.390 1_545 S
C514 H505 0.930 . S
C514 C512 1.384 . S
C514 C515 1.372 . S
C515 C514 1.372 . S
C515 C516 1.400 1_545 S
C515 C520 1.490 . S
C516 H506 0.930 . S
C516 C515 1.400 1_565 S
C516 C519 1.386 . S
H517 C533 0.930 . S
H518 C534 0.931 . S
C519 H507 0.929 . S
C519 C513 1.390 1_565 S
C519 C516 1.386 . S
C520 C515 1.490 . S
C520 C522 1.395 . S
C520 C523 1.403 . S
H521 C527 0.930 . S
C522 H508 0.930 . S
C522 C520 1.395 . S
C522 C525 1.403 . S
C523 C520 1.403 . S
C523 C524 1.524 . S
C523 C527 1.400 . S
C524 H509 0.960 . S
C524 H510 0.960 . S
C524 H511 0.960 . S
C524 C523 1.524 . S
C525 C522 1.403 . S
C525 C526 1.392 . S
C525 C529 1.495 . S
C526 C525 1.392 . S
C526 C527 1.385 . S
C526 C528 1.478 . S
C527 H521 0.930 . S
C527 C523 1.400 . S
C527 C526 1.385 . S
C528 C526 1.478 . S
C528 C530 1.381 . S
C528 C534 1.383 1_545 S
C529 C525 1.495 . S
C529 H535 0.959 . S
C529 H536 0.961 1_545 S
C529 H537 0.960 . S
C530 C528 1.381 . S
C530 C531 1.394 . S
C530 H538 0.930 . S
C531 C530 1.394 . S
C531 C532 1.383 . S
C531 H539 0.929 . S
C532 C531 1.383 . S
C532 C533 1.377 1_545 S
C533 H517 0.930 . S
C533 C532 1.377 1_565 S
C533 C534 1.379 . S
C534 H518 0.931 . S
C534 C528 1.383 1_565 S
C534 C533 1.379 . S
H535 C529 0.959 . S
H536 C529 0.961 1_565 S
H537 C529 0.960 . S
H538 C530 0.930 . S
H539 C531 0.929 . S
H540 C548 0.929 . S
H541 C550 0.930 . S
H542 C552 0.930 . S
H543 C555 0.929 . S
H544 C558 0.930 . S
H545 C560 0.960 . S
H546 C560 0.960 . S
H547 C560 0.960 . S
C548 H540 0.929 . S
C548 C549 1.377 . S
C548 C550 1.384 . S
C549 C548 1.377 . S
C549 C555 1.390 . S
C550 H541 0.930 . S
C550 C548 1.384 . S
C550 C551 1.372 . S
C551 C550 1.372 . S
C551 C552 1.400 . S
C551 C556 1.490 . S
C552 H542 0.930 . S
C552 C551 1.400 . S
C552 C555 1.386 . S
H553 C569 0.930 . S
H554 C570 0.931 . S
C555 H543 0.929 . S
C555 C549 1.390 . S
C555 C552 1.386 . S
C556 C551 1.490 . S
C556 C558 1.395 . S
C556 C559 1.403 . S
H557 C563 0.930 . S
C558 H544 0.930 . S
C558 C556 1.395 . S
C558 C561 1.403 . S
C559 C556 1.403 . S
C559 C560 1.524 . S
C559 C563 1.400 . S
C560 H545 0.960 . S
C560 H546 0.960 . S
C560 H547 0.960 . S
C560 C559 1.524 . S
C561 C558 1.403 . S
C561 C562 1.392 . S
C561 C565 1.495 . S
C562 C561 1.392 . S
C562 C563 1.385 . S
C562 C564 1.478 . S
C563 H557 0.930 . S
C563 C559 1.400 . S
C563 C562 1.385 . S
C564 C562 1.478 . S
C564 C566 1.381 . S
C564 C570 1.383 . S
C565 C561 1.495 . S
C565 H571 0.959 . S
C565 H572 0.961 . S
C565 H573 0.960 . S
C566 C564 1.381 . S
C566 C567 1.394 . S
C566 H574 0.930 . S
C567 C566 1.394 . S
C567 C568 1.383 . S
C567 H575 0.929 . S
C568 C567 1.383 . S
C568 C569 1.377 . S
C569 H553 0.930 . S
C569 C568 1.377 . S
C569 C570 1.379 . S
C570 H554 0.931 . S
C570 C564 1.383 . S
C570 C569 1.379 . S
H571 C565 0.959 . S
H572 C565 0.961 . S
H573 C565 0.960 . S
H574 C566 0.930 . S
H575 C567 0.929 . S
H576 C584 0.929 . S
H577 C586 0.930 . S
H578 C588 0.930 . S
H579 C591 0.929 . S
H580 C594 0.930 . S
H581 C596 0.960 . S
H582 C596 0.960 . S
H583 C596 0.960 . S
C584 H576 0.929 . S
C584 C585 1.377 . S
C584 C586 1.384 . S
C585 C584 1.377 . S
C585 C591 1.390 . S
C586 H577 0.930 . S
C586 C584 1.384 . S
C586 C587 1.372 . S
C587 C586 1.372 . S
C587 C588 1.400 . S
C587 C592 1.490 . S
C588 H578 0.930 . S
C588 C587 1.400 . S
C588 C591 1.386 . S
H589 C605 0.930 . S
H590 C606 0.931 . S
C591 H579 0.929 . S
C591 C585 1.390 . S
C591 C588 1.386 . S
C592 C587 1.490 . S
C592 C594 1.395 . S
C592 C595 1.403 . S
H593 C599 0.930 . S
C594 H580 0.930 . S
C594 C592 1.395 . S
C594 C597 1.403 . S
C595 C592 1.403 . S
C595 C596 1.524 . S
C595 C599 1.400 . S
C596 H581 0.960 . S
C596 H582 0.960 . S
C596 H583 0.960 . S
C596 C595 1.524 . S
C597 C594 1.403 . S
C597 C598 1.392 . S
C597 C601 1.495 . S
C598 C597 1.392 . S
C598 C599 1.385 . S
C598 C600 1.478 . S
C599 H593 0.930 . S
C599 C595 1.400 . S
C599 C598 1.385 . S
C600 C598 1.478 . S
C600 C602 1.381 . S
C600 C606 1.383 . S
C601 C597 1.495 . S
C601 H607 0.959 . S
C601 H608 0.961 . S
C601 H609 0.960 . S
C602 C600 1.381 . S
C602 C603 1.394 . S
C602 H610 0.930 . S
C603 C602 1.394 . S
C603 C604 1.383 . S
C603 H611 0.929 . S
C604 C603 1.383 . S
C604 C605 1.377 . S
C605 H589 0.930 . S
C605 C604 1.377 . S
C605 C606 1.379 . S
C606 H590 0.931 . S
C606 C600 1.383 . S
C606 C605 1.379 . S
H607 C601 0.959 . S
H608 C601 0.961 . S
H609 C601 0.960 . S
H610 C602 0.930 . S
H611 C603 0.929 . S
H612 C620 0.929 1_556 S
H613 C622 0.930 . S
H614 C624 0.930 . S
H615 C627 0.930 1_655 S
H616 C630 0.888 1_655 S
H617 C632 0.960 . S
H618 C632 0.960 . S
H619 C632 0.960 . S
C620 H612 0.929 1_554 S
C620 C621 1.380 . S
C620 C622 1.384 1_554 S
C621 C620 1.380 . S
C621 C627 1.389 . S
C622 H613 0.930 . S
C622 C620 1.384 1_556 S
C622 C623 1.372 . S
C623 C622 1.372 . S
C623 C624 1.400 1_556 S
C623 C628 1.490 . S
C624 H614 0.930 . S
C624 C623 1.400 1_554 S
C624 C627 1.385 . S
H625 C641 0.930 . S
H626 C642 0.931 . S
C627 H615 0.930 1_455 S
C627 C621 1.389 . S
C627 C624 1.385 . S
C628 C623 1.490 . S
C628 C630 1.430 . S
C628 C631 1.403 . S
H629 C635 0.930 . S
C630 H616 0.888 1_455 S
C630 C628 1.430 . S
C630 C633 1.412 . S
C631 C628 1.403 . S
C631 C632 1.524 1_556 S
C631 C635 1.400 . S
C632 H617 0.960 . S
C632 H618 0.960 . S
C632 H619 0.960 . S
C632 C631 1.524 1_554 S
C633 C630 1.412 . S
C633 C634 1.392 . S
C633 C637 1.495 1_455 S
C634 C633 1.392 . S
C634 C635 1.385 . S
C634 C636 1.478 . S
C635 H629 0.930 . S
C635 C631 1.400 . S
C635 C634 1.385 . S
C636 C634 1.478 . S
C636 C638 1.381 . S
C636 C642 1.383 . S
C637 C633 1.495 1_655 S
C637 H643 0.959 . S
C637 H644 0.961 . S
C637 H645 0.960 . S
C638 C636 1.381 . S
C638 C639 1.394 . S
C638 H646 0.930 . S
C639 C638 1.394 . S
C639 C640 1.383 . S
C639 H647 0.929 . S
C640 C639 1.383 . S
C640 C641 1.377 . S
C641 H625 0.930 . S
C641 C640 1.377 . S
C641 C642 1.379 . S
C642 H626 0.931 . S
C642 C636 1.383 . S
C642 C641 1.379 . S
H643 C637 0.959 . S
H644 C637 0.961 . S
H645 C637 0.960 . S
H646 C638 0.930 . S
H647 C639 0.929 . S
H648 C656 0.929 . S
H649 C658 0.930 . S
H650 C660 0.930 . S
H651 C663 0.929 . S
H652 C666 0.930 . S
H653 C668 0.960 . S
H654 C668 0.960 . S
H655 C668 0.973 . S
C656 H648 0.929 . S
C656 C657 1.401 . S
C656 C658 1.384 . S
C657 C656 1.401 . S
C657 C663 1.358 1_564 S
C658 H649 0.930 . S
C658 C656 1.384 . S
C658 C659 1.372 1_564 S
C659 C658 1.372 1_546 S
C659 C660 1.400 . S
C659 C664 1.490 . S
C660 H650 0.930 . S
C660 C659 1.400 . S
C660 C663 1.386 . S
H661 C677 0.930 . S
H662 C678 0.931 . S
C663 H651 0.929 . S
C663 C657 1.358 1_546 S
C663 C660 1.386 . S
C664 C659 1.490 . S
C664 C666 1.395 . S
C664 C667 1.403 . S
H665 C671 0.930 . S
C666 H652 0.930 . S
C666 C664 1.395 . S
C666 C669 1.403 . S
C667 C664 1.403 . S
C667 C668 1.524 1_545 S
C667 C671 1.400 . S
C668 H653 0.960 . S
C668 H654 0.960 . S
C668 H655 0.973 . S
C668 C667 1.524 1_565 S
C669 C666 1.403 . S
C669 C670 1.392 . S
C669 C673 1.495 . S
C670 C669 1.392 . S
C670 C671 1.385 . S
C670 C672 1.478 . S
C671 H665 0.930 . S
C671 C667 1.400 . S
C671 C670 1.385 . S
C672 C670 1.478 . S
C672 C674 1.381 . S
C672 C678 1.383 . S
C673 C669 1.495 . S
C673 H679 0.959 1_556 S
C673 H680 0.961 . S
C673 H681 0.960 . S
C674 C672 1.381 . S
C674 C675 1.394 . S
C674 H682 0.930 . S
C675 C674 1.394 . S
C675 C676 1.383 . S
C675 H683 0.929 . S
C676 C675 1.383 . S
C676 C677 1.377 . S
C677 H661 0.930 . S
C677 C676 1.377 . S
C677 C678 1.379 . S
C678 H662 0.931 . S
C678 C672 1.383 . S
C678 C677 1.379 . S
H679 C673 0.959 1_554 S
H680 C673 0.961 . S
H681 C673 0.960 . S
H682 C674 0.930 . S
H683 C675 0.929 . S
H684 C692 0.929 . S
H685 C694 0.930 . S
H686 C696 0.930 . S
H687 C699 0.929 . S
H688 C702 0.930 . S
H689 C704 0.960 . S
H690 C704 0.960 . S
H691 C704 0.960 1_554 S
C692 H684 0.929 . S
C692 C693 1.377 . S
C692 C694 1.384 . S
C693 C692 1.377 . S
C693 C699 1.390 1_556 S
C694 H685 0.930 . S
C694 C692 1.384 . S
C694 C695 1.372 . S
C695 C694 1.372 . S
C695 C696 1.400 . S
C695 C700 1.490 . S
C696 H686 0.930 . S
C696 C695 1.400 . S
C696 C699 1.386 1_556 S
H697 C713 0.930 . S
H698 C714 0.931 . S
C699 H687 0.929 . S
C699 C693 1.390 1_554 S
C699 C696 1.386 1_554 S
C700 C695 1.490 . S
C700 C702 1.395 . S
C700 C703 1.403 . S
H701 C707 0.930 . S
C702 H688 0.930 . S
C702 C700 1.395 . S
C702 C705 1.403 . S
C703 C700 1.403 . S
C703 C704 1.524 . S
C703 C707 1.400 . S
C704 H689 0.960 . S
C704 H690 0.960 . S
C704 H691 0.960 1_556 S
C704 C703 1.524 . S
C705 C702 1.403 . S
C705 C706 1.392 . S
C705 C709 1.495 . S
C706 C705 1.392 . S
C706 C707 1.385 . S
C706 C708 1.478 . S
C707 H701 0.930 . S
C707 C703 1.400 . S
C707 C706 1.385 . S
C708 C706 1.478 . S
C708 C710 1.381 . S
C708 C714 1.383 . S
C709 C705 1.495 . S
C709 H715 0.959 . S
C709 H716 0.961 . S
C709 H717 0.960 . S
C710 C708 1.381 . S
C710 C711 1.394 . S
C710 H718 0.930 . S
C711 C710 1.394 . S
C711 C712 1.383 . S
C711 H719 0.929 . S
C712 C711 1.383 . S
C712 C713 1.377 . S
C713 H697 0.930 . S
C713 C712 1.377 . S
C713 C714 1.379 . S
C714 H698 0.931 . S
C714 C708 1.383 . S
C714 C713 1.379 . S
H715 C709 0.959 . S
H716 C709 0.961 . S
H717 C709 0.960 . S
H718 C710 0.930 . S
H719 C711 0.929 . S
H720 C728 0.929 . S
H721 C730 0.930 . S
H722 C732 0.930 . S
H723 C735 0.929 . S
H724 C738 0.930 . S
H725 C740 0.960 . S
H726 C740 0.960 . S
H727 C740 0.960 . S
C728 H720 0.929 . S
C728 C729 1.377 . S
C728 C730 1.384 . S
C729 C728 1.377 . S
C729 C735 1.390 . S
C730 H721 0.930 . S
C730 C728 1.384 . S
C730 C731 1.372 . S
C731 C730 1.372 . S
C731 C732 1.400 . S
C731 C736 1.490 . S
C732 H722 0.930 . S
C732 C731 1.400 . S
C732 C735 1.386 . S
H733 C749 0.930 . S
H734 C750 0.931 . S
C735 H723 0.929 . S
C735 C729 1.390 . S
C735 C732 1.386 . S
C736 C731 1.490 . S
C736 C738 1.395 . S
C736 C739 1.403 . S
H737 C743 0.930 . S
C738 H724 0.930 . S
C738 C736 1.395 . S
C738 C741 1.403 . S
C739 C736 1.403 . S
C739 C740 1.524 . S
C739 C743 1.400 . S
C740 H725 0.960 . S
C740 H726 0.960 . S
C740 H727 0.960 . S
C740 C739 1.524 . S
C741 C738 1.403 . S
C741 C742 1.392 . S
C741 C745 1.495 . S
C742 C741 1.392 . S
C742 C743 1.385 . S
C742 C744 1.478 . S
C743 H737 0.930 . S
C743 C739 1.400 . S
C743 C742 1.385 . S
C744 C742 1.478 . S
C744 C746 1.381 . S
C744 C750 1.383 . S
C745 C741 1.495 . S
C745 H751 0.959 . S
C745 H752 0.961 . S
C745 H753 0.960 . S
C746 C744 1.381 . S
C746 C747 1.394 . S
C746 H754 0.930 . S
C747 C746 1.394 . S
C747 C748 1.383 . S
C747 H755 0.929 . S
C748 C747 1.383 . S
C748 C749 1.377 . S
C749 H733 0.930 . S
C749 C748 1.377 . S
C749 C750 1.379 . S
C750 H734 0.931 . S
C750 C744 1.383 . S
C750 C749 1.379 . S
H751 C745 0.959 . S
H752 C745 0.961 . S
H753 C745 0.960 . S
H754 C746 0.930 . S
H755 C747 0.929 . S
H756 C764 0.929 . S
H757 C766 0.930 . S
H758 C768 0.930 . S
H759 C771 0.929 . S
H760 C774 0.930 . S
H761 C776 0.960 . S
H762 C776 0.960 . S
H763 C776 0.960 . S
C764 H756 0.929 . S
C764 C765 1.377 . S
C764 C766 1.384 . S
C765 C764 1.377 . S
C765 C771 1.390 . S
C766 H757 0.930 . S
C766 C764 1.384 . S
C766 C767 1.372 . S
C767 C766 1.372 . S
C767 C768 1.400 . S
C767 C772 1.490 . S
C768 H758 0.930 . S
C768 C767 1.400 . S
C768 C771 1.386 . S
H769 C785 0.930 . S
H770 C786 0.931 . S
C771 H759 0.929 . S
C771 C765 1.390 . S
C771 C768 1.386 . S
C772 C767 1.490 . S
C772 C774 1.395 . S
C772 C775 1.403 . S
H773 C779 0.930 1_556 S
C774 H760 0.930 . S
C774 C772 1.395 . S
C774 C777 1.403 . S
C775 C772 1.403 . S
C775 C776 1.524 . S
C775 C779 1.400 . S
C776 H761 0.960 . S
C776 H762 0.960 . S
C776 H763 0.960 . S
C776 C775 1.524 . S
C777 C774 1.403 . S
C777 C778 1.392 . S
C777 C781 1.495 1_455 S
C778 C777 1.392 . S
C778 C779 1.385 . S
C778 C780 1.478 1_554 S
C779 H773 0.930 1_554 S
C779 C775 1.400 . S
C779 C778 1.385 . S
C780 C778 1.478 1_556 S
C780 C782 1.381 . S
C780 C786 1.383 . S
C781 C777 1.495 1_655 S
C781 H787 0.959 . S
C781 H788 0.961 . S
C781 H789 0.960 . S
C782 C780 1.381 . S
C782 C783 1.394 . S
C782 H790 0.930 1_556 S
C783 C782 1.394 . S
C783 C784 1.383 . S
C783 H791 0.929 . S
C784 C783 1.383 . S
C784 C785 1.377 . S
C785 H769 0.930 . S
C785 C784 1.377 . S
C785 C786 1.379 . S
C786 H770 0.931 . S
C786 C780 1.383 . S
C786 C785 1.379 . S
H787 C781 0.959 . S
H788 C781 0.961 . S
H789 C781 0.960 . S
H790 C782 0.930 1_554 S
H791 C783 0.929 . S
H792 C800 0.929 . S
H793 C802 0.930 . S
H794 C804 0.930 . S
H795 C807 0.929 . S
H796 C810 0.930 . S
H797 C812 0.960 . S
H798 C812 0.960 . S
H799 C812 0.960 1_554 S
C800 H792 0.929 . S
C800 C801 1.377 . S
C800 C802 1.384 . S
C801 C800 1.377 . S
C801 C807 1.390 1_545 S
C802 H793 0.930 . S
C802 C800 1.384 . S
C802 C803 1.372 . S
C803 C802 1.372 . S
C803 C804 1.400 1_545 S
C803 C808 1.490 . S
C804 H794 0.930 . S
C804 C803 1.400 1_565 S
C804 C807 1.386 . S
H805 C821 0.930 . S
H806 C822 0.931 . S
C807 H795 0.929 . S
C807 C801 1.390 1_565 S
C807 C804 1.386 . S
C808 C803 1.490 . S
C808 C810 1.395 . S
C808 C811 1.398 1_544 S
H809 C815 0.930 . S
C810 H796 0.930 . S
C810 C808 1.395 . S
C810 C813 1.403 . S
C811 C808 1.398 1_566 S
C811 C812 1.525 . S
C811 C815 1.404 . S
C812 H797 0.960 . S
C812 H798 0.960 . S
C812 H799 0.960 1_556 S
C812 C811 1.525 . S
C813 C810 1.403 . S
C813 C814 1.392 1_554 S
C813 C817 1.495 . S
C814 C813 1.392 1_556 S
C814 C815 1.385 1_545 S
C814 C816 1.478 . S
C815 H809 0.930 . S
C815 C811 1.404 . S
C815 C814 1.385 1_565 S
C816 C814 1.478 . S
C816 C818 1.381 . S
C816 C822 1.383 1_545 S
C817 C813 1.495 . S
C817 H823 0.959 . S
C817 H824 0.961 . S
C817 H825 0.960 . S
C818 C816 1.381 . S
C818 C819 1.394 . S
C818 H826 0.930 . S
C819 C818 1.394 . S
C819 C820 1.383 . S
C819 H827 0.929 . S
C820 C819 1.383 . S
C820 C821 1.377 1_545 S
C821 H805 0.930 . S
C821 C820 1.377 1_565 S
C821 C822 1.379 . S
C822 H806 0.931 . S
C822 C816 1.383 1_565 S
C822 C821 1.379 . S
H823 C817 0.959 . S
H824 C817 0.961 . S
H825 C817 0.960 . S
H826 C818 0.930 . S
H827 C819 0.929 . S
H828 C836 0.929 . S
H829 C838 0.930 . S
H830 C840 0.930 . S
H831 C843 0.929 . S
H832 C846 0.930 . S
H833 C848 0.960 . S
H834 C848 0.960 . S
H835 C848 0.960 . S
C836 H828 0.929 . S
C836 C837 1.377 . S
C836 C838 1.384 . S
C837 C836 1.377 . S
C837 C843 1.390 . S
C838 H829 0.930 . S
C838 C836 1.384 . S
C838 C839 1.372 . S
C839 C838 1.372 . S
C839 C840 1.400 . S
C839 C844 1.490 . S
C840 H830 0.930 . S
C840 C839 1.400 . S
C840 C843 1.386 . S
H841 C857 0.930 . S
H842 C858 0.931 . S
C843 H831 0.929 . S
C843 C837 1.390 . S
C843 C840 1.386 . S
C844 C839 1.490 . S
C844 C846 1.395 1_554 S
C844 C847 1.403 . S
H845 C851 0.926 1_554 S
C846 H832 0.930 . S
C846 C844 1.395 1_556 S
C846 C849 1.403 . S
C847 C844 1.403 . S
C847 C848 1.524 . S
C847 C851 1.400 1_554 S
C848 H833 0.960 . S
C848 H834 0.960 . S
C848 H835 0.960 . S
C848 C847 1.524 . S
C849 C846 1.403 . S
C849 C850 1.392 . S
C849 C853 1.495 . S
C850 C849 1.392 . S
C850 C851 1.385 . S
C850 C852 1.478 . S
C851 H845 0.926 1_556 S
C851 C847 1.400 1_556 S
C851 C850 1.385 . S
C852 C850 1.478 . S
C852 C854 1.381 . S
C852 C858 1.383 . S
C853 C849 1.495 . S
C853 H859 0.959 . S
C853 H860 0.961 . S
C853 H861 0.960 . S
C854 C852 1.381 . S
C854 C855 1.394 . S
C854 H862 0.930 . S
C855 C854 1.394 . S
C855 C856 1.383 . S
C855 H863 0.929 . S
C856 C855 1.383 . S
C856 C857 1.377 . S
C857 H841 0.930 . S
C857 C856 1.377 . S
C857 C858 1.379 . S
C858 H842 0.931 . S
C858 C852 1.383 . S
C858 C857 1.379 . S
H859 C853 0.959 . S
H860 C853 0.961 . S
H861 C853 0.960 . S
H862 C854 0.930 . S
H863 C855 0.929 . S
H864 C872 0.929 . S
H865 C874 0.930 . S
H866 C876 0.930 . S
H867 C879 0.929 . S
H868 C882 0.930 . S
H869 C884 0.960 . S
H870 C884 0.960 . S
H871 C884 0.960 . S
C872 H864 0.929 . S
C872 C873 1.377 . S
C872 C874 1.384 . S
C873 C872 1.377 . S
C873 C879 1.390 . S
C874 H865 0.930 . S
C874 C872 1.384 . S
C874 C875 1.372 . S
C875 C874 1.372 . S
C875 C876 1.400 . S
C875 C880 1.490 . S
C876 H866 0.930 . S
C876 C875 1.400 . S
C876 C879 1.386 . S
H877 C893 0.930 . S
H878 C894 0.931 . S
C879 H867 0.929 . S
C879 C873 1.390 . S
C879 C876 1.386 . S
C880 C875 1.490 . S
C880 C882 1.395 1_554 S
C880 C883 1.403 . S
H881 C887 0.930 . S
C882 H868 0.930 . S
C882 C880 1.395 1_556 S
C882 C885 1.403 . S
C883 C880 1.403 . S
C883 C884 1.524 . S
C883 C887 1.400 1_554 S
C884 H869 0.960 . S
C884 H870 0.960 . S
C884 H871 0.960 . S
C884 C883 1.524 . S
C885 C882 1.403 . S
C885 C886 1.392 . S
C885 C889 1.495 . S
C886 C885 1.392 . S
C886 C887 1.385 . S
C886 C888 1.478 . S
C887 H881 0.930 . S
C887 C883 1.400 1_556 S
C887 C886 1.385 . S
C888 C886 1.478 . S
C888 C890 1.381 . S
C888 C894 1.383 . S
C889 C885 1.495 . S
C889 H895 0.959 . S
C889 H896 0.961 . S
C889 H897 0.960 . S
C890 C888 1.381 . S
C890 C891 1.394 . S
C890 H898 0.930 . S
C891 C890 1.394 . S
C891 C892 1.383 . S
C891 H899 0.929 . S
C892 C891 1.383 . S
C892 C893 1.377 . S
C893 H877 0.930 . S
C893 C892 1.377 . S
C893 C894 1.379 . S
C894 H878 0.931 . S
C894 C888 1.383 . S
C894 C893 1.379 . S
H895 C889 0.959 . S
H896 C889 0.961 . S
H897 C889 0.960 . S
H898 C890 0.930 . S
H899 C891 0.929 . S
H900 C908 0.929 . S
H901 C910 0.930 . S
H902 C912 0.930 . S
H903 C915 0.929 . S
H904 C918 0.930 . S
H905 C920 0.960 . S
H906 C920 0.960 . S
H907 C920 0.960 . S
C908 H900 0.929 . S
C908 C909 1.360 1_655 S
C908 C910 1.384 . S
C909 C908 1.360 1_455 S
C909 C915 1.406 . S
C910 H901 0.930 . S
C910 C908 1.384 . S
C910 C911 1.372 . S
C911 C910 1.372 . S
C911 C912 1.400 1_655 S
C911 C916 1.490 . S
C912 H902 0.930 . S
C912 C911 1.400 1_455 S
C912 C915 1.386 . S
H913 C929 0.930 . S
H914 C930 0.931 . S
C915 H903 0.929 . S
C915 C909 1.406 . S
C915 C912 1.386 . S
C916 C911 1.490 . S
C916 C918 1.395 . S
C916 C919 1.403 1_655 S
H917 C923 0.930 . S
C918 H904 0.930 . S
C918 C916 1.395 . S
C918 C921 1.403 . S
C919 C916 1.403 1_455 S
C919 C920 1.524 . S
C919 C923 1.400 . S
C920 H905 0.960 . S
C920 H906 0.960 . S
C920 H907 0.960 . S
C920 C919 1.524 . S
C921 C918 1.403 . S
C921 C922 1.392 . S
C921 C925 1.495 . S
C922 C921 1.392 . S
C922 C923 1.385 1_655 S
C922 C924 1.478 . S
C923 H917 0.930 . S
C923 C919 1.400 . S
C923 C922 1.385 1_455 S
C924 C922 1.478 . S
C924 C926 1.381 . S
C924 C930 1.383 1_655 S
C925 C921 1.495 . S
C925 H931 0.959 . S
C925 H932 0.961 . S
C925 H933 0.960 . S
C926 C924 1.381 . S
C926 C927 1.394 . S
C926 H934 0.930 . S
C927 C926 1.394 . S
C927 C928 1.383 . S
C927 H935 0.929 . S
C928 C927 1.383 . S
C928 C929 1.377 1_655 S
C929 H913 0.930 . S
C929 C928 1.377 1_455 S
C929 C930 1.379 . S
C930 H914 0.931 . S
C930 C924 1.383 1_455 S
C930 C929 1.379 . S
H931 C925 0.959 . S
H932 C925 0.961 . S
H933 C925 0.960 . S
H934 C926 0.930 . S
H935 C927 0.929 . S
H936 C944 0.929 . S
H937 C946 0.930 . S
H938 C948 0.930 . S
H939 C951 0.929 . S
H940 C954 0.930 . S
H941 C956 0.960 . S
H942 C956 0.960 . S
H943 C956 0.960 . S
C944 H936 0.929 . S
C944 C945 1.361 1_545 S
C944 C946 1.384 . S
C945 C944 1.361 1_565 S
C945 C951 1.407 . S
C946 H937 0.930 . S
C946 C944 1.384 . S
C946 C947 1.372 1_545 S
C947 C946 1.372 1_565 S
C947 C948 1.400 . S
C947 C952 1.490 . S
C948 H938 0.930 . S
C948 C947 1.400 . S
C948 C951 1.386 . S
H949 C965 0.930 . S
H950 C966 0.931 . S
C951 H939 0.929 . S
C951 C945 1.407 . S
C951 C948 1.386 . S
C952 C947 1.490 . S
C952 C954 1.395 1_565 S
C952 C955 1.403 . S
H953 C959 0.930 . S
C954 H940 0.930 . S
C954 C952 1.395 1_545 S
C954 C957 1.403 . S
C955 C952 1.403 . S
C955 C956 1.524 . S
C955 C959 1.400 . S
C956 H941 0.960 . S
C956 H942 0.960 . S
C956 H943 0.960 . S
C956 C955 1.524 . S
C957 C954 1.403 . S
C957 C958 1.392 1_545 S
C957 C961 1.495 . S
C958 C957 1.392 1_565 S
C958 C959 1.385 . S
C958 C960 1.478 . S
C959 H953 0.930 . S
C959 C955 1.400 . S
C959 C958 1.385 . S
C960 C958 1.478 . S
C960 C962 1.381 1_565 S
C960 C966 1.383 . S
C961 C957 1.495 . S
C961 H967 0.959 . S
C961 H968 0.961 . S
C961 H969 0.960 . S
C962 C960 1.381 1_545 S
C962 C963 1.394 . S
C962 H970 0.930 . S
C963 C962 1.394 . S
C963 C964 1.383 1_545 S
C963 H971 0.929 . S
C964 C963 1.383 1_565 S
C964 C965 1.377 . S
C965 H949 0.930 . S
C965 C964 1.377 . S
C965 C966 1.379 . S
C966 H950 0.931 . S
C966 C960 1.383 . S
C966 C965 1.379 . S
H967 C961 0.959 . S
H968 C961 0.961 . S
H969 C961 0.960 . S
H970 C962 0.930 . S
H971 C963 0.929 . S
H972 C980 0.929 . S
H973 C982 0.930 . S
H974 C984 0.930 . S
H975 C987 0.929 . S
H976 C990 0.930 . S
H977 C992 0.960 . S
H978 C992 0.960 . S
H979 C992 0.960 . S
C980 H972 0.929 . S
C980 C981 1.377 . S
C980 C982 1.384 . S
C981 C980 1.377 . S
C981 C987 1.390 . S
C982 H973 0.930 . S
C982 C980 1.384 . S
C982 C983 1.372 . S
C983 C982 1.372 . S
C983 C984 1.400 . S
C983 C988 1.490 . S
C984 H974 0.930 . S
C984 C983 1.400 . S
C984 C987 1.386 . S
H985 C1001 0.930 . S
H986 C1002 0.931 . S
C987 H975 0.929 . S
C987 C981 1.390 . S
C987 C984 1.386 . S
C988 C983 1.490 . S
C988 C990 1.395 . S
C988 C991 1.403 . S
H989 C995 0.930 . S
C990 H976 0.930 . S
C990 C988 1.395 . S
C990 C993 1.403 . S
C991 C988 1.403 . S
C991 C992 1.524 . S
C991 C995 1.400 . S
C992 H977 0.960 . S
C992 H978 0.960 . S
C992 H979 0.960 . S
C992 C991 1.524 . S
C993 C990 1.403 . S
C993 C994 1.392 . S
C993 C997 1.495 . S
C994 C993 1.392 . S
C994 C995 1.385 . S
C994 C996 1.478 . S
C995 H989 0.930 . S
C995 C991 1.400 . S
C995 C994 1.385 . S
C996 C994 1.478 . S
C996 C998 1.381 . S
C996 C1002 1.383 . S
C997 C993 1.495 . S
C997 H1003 0.959 . S
C997 H1004 0.961 . S
C997 H1005 0.960 . S
C998 C996 1.381 . S
C998 C999 1.394 . S
C998 H1006 0.930 . S
C999 C998 1.394 . S
C999 C1000 1.383 . S
C999 H1007 0.929 . S
C1000 C999 1.383 . S
C1000 C1001 1.377 . S
C1001 H985 0.930 . S
C1001 C1000 1.377 . S
C1001 C1002 1.379 . S
C1002 H986 0.931 . S
C1002 C996 1.383 . S
C1002 C1001 1.379 . S
H1003 C997 0.959 . S
H1004 C997 0.961 . S
H1005 C997 0.960 . S
H1006 C998 0.930 . S
H1007 C999 0.929 . S
H1008 C1016 0.929 . S
H1009 C1018 0.930 . S
H1010 C1020 0.930 . S
H1011 C1023 0.929 . S
H1012 C1026 0.930 . S
H1013 C1028 0.960 . S
H1014 C1028 0.960 . S
H1015 C1028 0.960 . S
C1016 H1008 0.929 . S
C1016 C1017 1.377 . S
C1016 C1018 1.384 . S
C1017 C1016 1.377 . S
C1017 C1023 1.390 . S
C1018 H1009 0.930 . S
C1018 C1016 1.384 . S
C1018 C1019 1.372 . S
C1019 C1018 1.372 . S
C1019 C1020 1.400 . S
C1019 C1024 1.490 . S
C1020 H1010 0.930 . S
C1020 C1019 1.400 . S
C1020 C1023 1.386 . S
H1021 C1037 0.930 . S
H1022 C1038 0.931 . S
C1023 H1011 0.929 . S
C1023 C1017 1.390 . S
C1023 C1020 1.386 . S
C1024 C1019 1.490 . S
C1024 C1026 1.395 . S
C1024 C1027 1.403 . S
H1025 C1031 0.930 . S
C1026 H1012 0.930 . S
C1026 C1024 1.395 . S
C1026 C1029 1.403 . S
C1027 C1024 1.403 . S
C1027 C1028 1.524 . S
C1027 C1031 1.400 . S
C1028 H1013 0.960 . S
C1028 H1014 0.960 . S
C1028 H1015 0.960 . S
C1028 C1027 1.524 . S
C1029 C1026 1.403 . S
C1029 C1030 1.392 . S
C1029 C1033 1.495 . S
C1030 C1029 1.392 . S
C1030 C1031 1.385 . S
C1030 C1032 1.478 . S
C1031 H1025 0.930 . S
C1031 C1027 1.400 . S
C1031 C1030 1.385 . S
C1032 C1030 1.478 . S
C1032 C1034 1.381 . S
C1032 C1038 1.383 . S
C1033 C1029 1.495 . S
C1033 H1039 0.959 . S
C1033 H1040 0.961 . S
C1033 H1041 0.960 . S
C1034 C1032 1.381 . S
C1034 C1035 1.394 . S
C1034 H1042 0.930 . S
C1035 C1034 1.394 . S
C1035 C1036 1.383 . S
C1035 H1043 0.929 . S
C1036 C1035 1.383 . S
C1036 C1037 1.377 . S
C1037 H1021 0.930 . S
C1037 C1036 1.377 . S
C1037 C1038 1.379 . S
C1038 H1022 0.931 . S
C1038 C1032 1.383 . S
C1038 C1037 1.379 . S
H1039 C1033 0.959 . S
H1040 C1033 0.961 . S
H1041 C1033 0.960 . S
H1042 C1034 0.930 . S
H1043 C1035 0.929 . S
C189 C74 1.506 . S
C208 C104 1.497 . S
C244 C127 1.589 . S
C225 C85 1.584 . S
C280 C150 1.599 . S
C261 C52 1.594 . S
C316 C177 1.446 . S
C297 C63 1.541 . S
C352 C105 1.530 . S
C333 C30 1.507 1_565 S
C369 C41 1.425 1_556 S
C388 C128 1.440 . S
C405 C8 1.399 . S
C424 C151 1.415 . S
C441 C19 1.542 1_655 S
C460 C176 1.532 1_455 S
C496 C106 0.226 . S
C477 C62 0.125 . S
C532 C129 0.239 . S
C513 C73 0.242 . S
C568 C152 0.169 . S
C549 C84 0.212 . S
C585 C51 0.270 . S
C604 C178 0.537 . S
C621 C18 0.467 . S
C640 C109 0.462 . S
C676 C132 0.569 . S
C657 C29 0.412 1_565 S
C712 C155 0.473 . S
C693 C40 0.432 . S
C729 C7 0.332 . S
C748 C175 0.261 . S
C765 C60 1.411 . S
C784 C107 1.575 . S
C801 C71 1.298 . S
C820 C130 1.510 . S
C856 C153 1.505 . S
C837 C82 1.358 . S
C892 C174 1.276 . S
C873 C49 1.063 . S
C909 C16 1.350 . S
C928 C108 1.492 1_655 S
C964 C131 1.435 . S
C945 C27 1.302 1_565 S
C1000 C154 1.461 . S
C981 C38 1.260 . S
C1017 C5 1.458 . S
C1036 C173 1.748 . S
