# Generated by pormake.
# Topology pts, (4,4)-cn, num edge types: 1
# Building blocks:
#     Node 0, Type 0, BuildingBlock: KOZSID_clean_sbu_0, # of connection points: 4
#     Node 1, Type 0, BuildingBlock: KOZSID_clean_sbu_0, # of connection points: 4
#     Node 2, Type 1, BuildingBlock: AZAVOO_clean_sbu_0, # of connection points: 4
#     Node 3, Type 1, BuildingBlock: AZAVOO_clean_sbu_0, # of connection points: 4
#     Edge 4, Type (0, 1), BuildingBlock: FUNLAD_clean_linker_1, # of connection points: 2
#     Edge 5, Type (0, 1), BuildingBlock: FUNLAD_clean_linker_1, # of connection points: 2
#     Edge 6, Type (0, 1), BuildingBlock: FUNLAD_clean_linker_1, # of connection points: 2
#     Edge 7, Type (0, 1), BuildingBlock: FUNLAD_clean_linker_1, # of connection points: 2
#     Edge 8, Type (0, 1), BuildingBlock: FUNLAD_clean_linker_1, # of connection points: 2
#     Edge 9, Type (0, 1), BuildingBlock: FUNLAD_clean_linker_1, # of connection points: 2
#     Edge 10, Type (0, 1), BuildingBlock: FUNLAD_clean_linker_1, # of connection points: 2
#     Edge 11, Type (0, 1), BuildingBlock: FUNLAD_clean_linker_1, # of connection points: 2
# Relax obj value: 0.000
# Max RMSD: 0.030
# Mean RMSD: 0.016
data_MOF--net-pts--node1-KOZSID_clean_sbu_0--node2-AZAVOO_clean_sbu_0--edge1-FUNLAD_clean_linker_1
_symmetry_space_group_name_H-M    P1
_symmetry_Int_Tables_number       1
_symmetry_cell_setting            triclinic
loop_
_symmetry_equiv_pos_as_xyz
'x, y, z'
_cell_length_a     27.591856
_cell_length_b     28.279037
_cell_length_c     41.287458
_cell_angle_alpha  86.176284
_cell_angle_beta   99.736798
_cell_angle_gamma 90.384119
loop_
_atom_site_label
_atom_site_type_symbol
_atom_site_fract_x
_atom_site_fract_y
_atom_site_fract_z
_atom_type_partial_charge
C0 C 0.63827 0.08965 0.06503 0.0
C1 C 0.65851 0.13313 0.07407 0.0
C2 C 0.63906 0.16653 0.05 0.0
C3 C 0.6082 0.14209 0.02755 0.0
N4 N 0.60633 0.0954 0.03611 0.0
Co5 Co 0.56648 0.04816 0.00961 0.0
N6 N 0.52478 0.09819 0.98225 0.0
C7 C 0.53573 0.14461 0.97989 0.0
C8 C 0.49817 0.17156 0.96207 0.0
C9 C 0.46142 0.14022 0.95241 0.0
C10 C 0.47913 0.09515 0.96393 0.0
N11 N 0.52639 0.0011 0.98341 0.0
C12 C 0.48054 0.00541 0.96549 0.0
C13 C 0.46579 0.96291 0.95175 0.0
C14 C 0.50346 0.93124 0.96169 0.0
C15 C 0.53916 0.95585 0.98079 0.0
N16 N 0.60827 0.99781 0.0364 0.0
C17 C 0.60985 0.95203 0.02936 0.0
C18 C 0.63729 0.92403 0.05397 0.0
C19 C 0.65515 0.95422 0.07758 0.0
C20 C 0.6395 0.99956 0.06546 0.0
N21 N 0.5205 0.04463 0.0411 0.0
C22 C 0.45123 0.03978 0.0839 0.0
C23 C 0.47075 0.99854 0.07404 0.0
C24 C 0.50498 0.00167 0.05258 0.0
C25 C 0.46811 0.08365 0.0724 0.0
C26 C 0.50268 0.08523 0.05113 0.0
N27 N 0.61244 0.05191 0.97805 0.0
C28 C 0.69555 0.05622 0.96708 0.0
C29 C 0.6785 0.05862 0.93299 0.0
C30 C 0.62755 0.05793 0.92212 0.0
C31 C 0.59524 0.05443 0.94492 0.0
C32 C 0.66207 0.0527 0.98903 0.0
H33 H 0.55626 0.05392 0.9357 0.0
H34 H 0.67658 0.05093 0.01498 0.0
H35 H 0.51849 0.96923 0.04504 0.0
H36 H 0.51477 0.11945 0.0427 0.0
C37 C 0.57571 0.16253 1.00077 0.0
C38 C 0.65694 0.04348 0.08115 0.0
C39 C 0.45239 0.05006 0.95794 0.0
C40 C 0.57872 0.93517 0.00241 0.0
H41 H 0.68585 0.14025 0.09517 0.0
H42 H 0.64608 0.20425 0.04927 0.0
H43 H 0.49607 0.20984 0.95882 0.0
H44 H 0.42526 0.1506 0.93977 0.0
H45 H 0.43142 0.95527 0.9362 0.0
H46 H 0.50354 0.894 0.9571 0.0
H47 H 0.64159 0.88589 0.05541 0.0
H48 H 0.6766 0.94369 0.1012 0.0
H49 H 0.45909 0.9639 0.08254 0.0
H50 H 0.45552 0.11667 0.07996 0.0
H51 H 0.73428 0.05776 0.97713 0.0
H52 H 0.61264 0.05994 0.89604 0.0
C53 C 0.09542 0.48456 0.56739 0.0
C54 C 0.13816 0.462 0.58404 0.0
C55 C 0.17692 0.48757 0.57623 0.0
C56 C 0.15643 0.52304 0.55429 0.0
N57 N 0.10675 0.52186 0.54739 0.0
Co58 Co 0.06427 0.56097 0.51101 0.0
N59 N 0.12224 0.5971 0.49874 0.0
C60 C 0.16929 0.59283 0.51448 0.0
C61 C 0.20126 0.62304 0.50187 0.0
C62 C 0.17308 0.64858 0.47658 0.0
C63 C 0.12503 0.63202 0.47481 0.0
N64 N 0.02195 0.5985 0.47383 0.0
C65 C 0.03403 0.63127 0.45093 0.0
C66 C 0.99389 0.6415 0.4261 0.0
C67 C 0.95478 0.61742 0.43485 0.0
C68 C 0.97324 0.59237 0.46366 0.0
N69 N 0.00605 0.52623 0.52398 0.0
C70 C 0.95835 0.53433 0.51064 0.0
C71 C 0.9258 0.50786 0.52561 0.0
C72 C 0.95425 0.48084 0.54995 0.0
C73 C 1.00311 0.4917 0.54809 0.0
N74 N 0.05569 0.61007 0.54187 0.0
C75 C 0.04423 0.68154 0.58467 0.0
C76 C 0.00564 0.66945 0.56019 0.0
C77 C 0.01207 0.63409 0.53919 0.0
C78 C 0.0885 0.65641 0.58779 0.0
C79 C 0.09337 0.62124 0.56628 0.0
N80 N 0.07299 0.51188 0.48004 0.0
C81 C 0.03881 0.45555 0.44068 0.0
C82 C 0.08587 0.44237 0.43597 0.0
C83 C 0.12607 0.46485 0.45367 0.0
C84 C 0.11897 0.49902 0.47533 0.0
C85 C 0.03335 0.49 0.46264 0.0
H86 H 0.15142 0.51438 0.48802 0.0
H87 H 0.99659 0.49817 0.46516 0.0
H88 H 0.98127 0.62697 0.52085 0.0
H89 H 0.12804 0.60356 0.56992 0.0
C90 C 0.18307 0.55738 0.53925 0.0
C91 C 0.04502 0.46836 0.56995 0.0
C92 C 0.08306 0.6525 0.45136 0.0
C93 C 0.94544 0.56386 0.48222 0.0
H94 H 0.14223 0.42935 0.59929 0.0
H95 H 0.21561 0.48016 0.58468 0.0
H96 H 0.24054 0.62587 0.50993 0.0
H97 H 0.18701 0.67654 0.4616 0.0
H98 H 0.99247 0.66349 0.40357 0.0
H99 H 0.9174 0.61775 0.42158 0.0
H100 H 0.8861 0.50764 0.51923 0.0
H101 H 0.94011 0.4559 0.56702 0.0
H102 H 0.97055 0.68768 0.55695 0.0
H103 H 0.11936 0.66307 0.60682 0.0
H104 H 0.00594 0.4398 0.42783 0.0
H105 H 0.16326 0.45586 0.451 0.0
Mg106 Mg 0.10529 0.05057 0.28232 0.0
O107 O 0.03181 0.04509 0.24585 0.0
O108 O 0.97168 0.03656 0.27601 0.0
Mg109 Mg 1.00461 0.03535 0.33055 0.0
C110 C 0.98636 0.04038 0.24823 0.0
C111 C 0.1844 0.05008 0.2371 0.0
O112 O 0.19706 0.01317 0.25779 0.0
O113 O 0.08623 0.12683 0.29248 0.0
O114 O 0.02679 0.11302 0.32283 0.0
O115 O 0.11439 0.97105 0.28807 0.0
O116 O 0.07475 0.0124 0.31881 0.0
C117 C 0.055 0.14122 0.30937 0.0
C118 C 0.08873 0.97187 0.31153 0.0
O119 O 0.14703 0.07452 0.24018 0.0
Mg120 Mg 0.03364 0.05879 0.74248 0.0
O121 O 0.1111 0.05316 0.77549 0.0
O122 O 0.16504 0.04788 0.7409 0.0
Mg123 Mg 0.12524 0.04853 0.68789 0.0
C124 C 0.1552 0.04982 0.76987 0.0
C125 C 0.9519 0.06563 0.78364 0.0
O126 O 0.93107 0.04466 0.75738 0.0
O127 O 0.0488 0.13649 0.7263 0.0
O128 O 0.10302 0.12535 0.69266 0.0
O129 O 0.0261 0.97923 0.74259 0.0
O130 O 0.05949 0.02318 0.7062 0.0
C131 C 0.07688 0.1524 0.70639 0.0
C132 C 0.04796 0.98186 0.71716 0.0
O133 O 0.99659 0.0784 0.7857 0.0
H134 H 0.41304 0.00183 0.12092 0.0
C135 C 0.41457 0.03541 0.10667 0.0
H136 H 0.38176 0.10338 0.09546 0.0
H137 H 0.216 0.97757 0.16508 0.0
H138 H 0.2076 0.93097 0.11718 0.0
H139 H 0.26112 0.94556 0.0754 0.0
H140 H 0.32371 0.00635 0.08142 0.0
C141 C 0.38197 0.06958 0.10954 0.0
C142 C 0.34633 0.0632 0.13307 0.0
C143 C 0.309 0.02826 0.12874 0.0
C144 C 0.27731 0.02057 0.15247 0.0
C145 C 0.24102 0.98488 0.14782 0.0
C146 C 0.23566 0.958 0.12038 0.0
C147 C 0.26584 0.96616 0.09688 0.0
C148 C 0.30195 0.00095 0.1008 0.0
H149 H 0.20344 0.09495 0.19486 0.0
C150 C 0.21358 0.06321 0.21083 0.0
H151 H 0.26156 0.00423 0.22168 0.0
H152 H 0.41125 0.13542 0.14763 0.0
H153 H 0.41756 0.18378 0.19448 0.0
H154 H 0.36239 0.17068 0.23537 0.0
H155 H 0.30041 0.10925 0.22961 0.0
C156 C 0.25217 0.03681 0.20649 0.0
C157 C 0.28192 0.04864 0.18003 0.0
C158 C 0.31773 0.085 0.18358 0.0
C159 C 0.3498 0.09239 0.16003 0.0
C160 C 0.38576 0.12841 0.16459 0.0
C161 C 0.38989 0.15638 0.19143 0.0
C162 C 0.35881 0.14901 0.21445 0.0
C163 C 0.32326 0.11368 0.21079 0.0
H164 H 1.00333 0.4068 0.58269 0.0
C165 C 0.03542 0.42823 0.59055 0.0
H166 H 0.08892 0.43892 0.63406 0.0
H167 H 0.01996 0.28799 0.73428 0.0
H168 H 0.01067 0.36168 0.75971 0.0
H169 H 0.0201 0.43879 0.72984 0.0
H170 H 0.03949 0.44283 0.67458 0.0
C171 C 0.06307 0.41439 0.62142 0.0
C172 C 0.05484 0.36774 0.63885 0.0
C173 C 0.04239 0.36602 0.67091 0.0
C174 C 0.03593 0.32151 0.68795 0.0
C175 C 0.02484 0.32083 0.72021 0.0
C176 C 0.01936 0.36284 0.73506 0.0
C177 C 0.02472 0.40626 0.71825 0.0
C178 C 0.03603 0.40807 0.68655 0.0
H179 H 0.11239 0.21601 0.68844 0.0
C180 C 0.07903 0.2034 0.6969 0.0
H181 H 1.00503 0.22013 0.69888 0.0
H182 H 0.08663 0.35643 0.57997 0.0
H183 H 0.08807 0.28349 0.55285 0.0
H184 H 0.06406 0.20788 0.57892 0.0
H185 H 0.0404 0.20483 0.63292 0.0
C186 C 0.03941 0.23201 0.69163 0.0
C187 C 0.04094 0.27882 0.67272 0.0
C188 C 0.05028 0.28067 0.63985 0.0
C189 C 0.05981 0.32483 0.6236 0.0
C190 C 0.07516 0.32464 0.5925 0.0
C191 C 0.0768 0.28279 0.57675 0.0
C192 C 0.06361 0.24021 0.59151 0.0
C193 C 0.05055 0.23893 0.62268 0.0
H194 H 0.69897 0.07091 0.12491 0.0
C195 C 0.6973 0.04342 0.10762 0.0
H196 H 0.74339 0.99175 0.09046 0.0
H197 H 0.90033 0.12033 0.19017 0.0
H198 H 0.8761 0.18584 0.14978 0.0
H199 H 0.81155 0.17574 0.10155 0.0
H200 H 0.77024 0.10041 0.09376 0.0
C201 C 0.74017 0.01586 0.10935 0.0
C202 C 0.78397 0.02056 0.13576 0.0
C203 C 0.80951 0.06424 0.13908 0.0
C204 C 0.84846 0.06942 0.16605 0.0
C205 C 0.87148 0.11409 0.1697 0.0
C206 C 0.85788 0.15202 0.14671 0.0
C207 C 0.82142 0.14639 0.11962 0.0
C208 C 0.79756 0.10307 0.11565 0.0
H209 H 0.96203 0.0396 0.19419 0.0
C210 C 0.9494 0.03889 0.21777 0.0
H211 H 0.88797 0.03406 0.24223 0.0
H212 H 0.74909 0.92967 0.13375 0.0
H213 H 0.77698 0.86298 0.17197 0.0
H214 H 0.84492 0.87188 0.21832 0.0
H215 H 0.88525 0.94763 0.22653 0.0
C216 C 0.90089 0.03605 0.21874 0.0
C217 C 0.86328 0.03035 0.18883 0.0
C218 C 0.83996 0.98592 0.18429 0.0
C219 C 0.80062 0.98088 0.15762 0.0
C220 C 0.77848 0.93586 0.15372 0.0
C221 C 0.79438 0.89712 0.17545 0.0
C222 C 0.83262 0.90212 0.20153 0.0
C223 C 0.85533 0.94587 0.206 0.0
H224 H 0.99885 0.73132 0.60619 0.0
C225 C 0.03648 0.72 0.60628 0.0
H226 H 0.11129 0.73384 0.62518 0.0
H227 H 0.99523 0.93249 0.64575 0.0
H228 H 0.97855 0.9422 0.5862 0.0
H229 H 1.00247 0.88031 0.55251 0.0
H230 H 0.04192 0.80781 0.57824 0.0
C231 C 0.0731 0.74336 0.62436 0.0
C232 C 0.06273 0.78282 0.64449 0.0
C233 C 0.04206 0.82612 0.62902 0.0
C234 C 0.03119 0.86311 0.64846 0.0
C235 C 0.00697 0.90437 0.63231 0.0
C236 C 0.99669 0.91024 0.59807 0.0
C237 C 0.00993 0.87531 0.57911 0.0
C238 C 0.0323 0.83367 0.59425 0.0
H239 H 0.08434 0.94426 0.68287 0.0
C240 C 0.05945 0.93973 0.70063 0.0
H241 H 0.01128 0.89303 0.7214 0.0
H242 H 0.10152 0.70429 0.68194 0.0
H243 H 0.12125 0.69573 0.74158 0.0
H244 H 0.10654 0.76141 0.77519 0.0
H245 H 0.07168 0.83596 0.74943 0.0
C246 C 0.03636 0.89811 0.70382 0.0
C247 C 0.04412 0.85809 0.68335 0.0
C248 C 0.0649 0.81486 0.69877 0.0
C249 C 0.07405 0.77718 0.67934 0.0
C250 C 0.09431 0.73423 0.69546 0.0
C251 C 0.10575 0.72881 0.72968 0.0
C252 C 0.09743 0.76577 0.74861 0.0
C253 C 0.07732 0.80838 0.73349 0.0
H254 H 0.38147 0.01675 0.94808 0.0
C255 C 0.40285 0.04743 0.94186 0.0
H256 H 0.40547 0.10041 0.90168 0.0
H257 H 0.23583 0.96645 0.82558 0.0
H258 H 0.30396 0.91267 0.82523 0.0
H259 H 0.38699 0.92989 0.85476 0.0
H260 H 0.40193 1.00012 0.88556 0.0
C261 C 0.38297 0.07517 0.91329 0.0
C262 C 0.33328 0.06537 0.89446 0.0
C263 C 0.32587 0.02577 0.87488 0.0
C264 C 0.27883 0.0176 0.85597 0.0
C265 C 0.27151 0.97572 0.83882 0.0
C266 C 0.31018 0.94436 0.83866 0.0
C267 C 0.35685 0.95392 0.85542 0.0
C268 C 0.36484 0.99415 0.87327 0.0
H269 H 0.23396 0.05157 0.78987 0.0
C270 C 0.19772 0.04989 0.79695 0.0
H271 H 0.15887 0.04791 0.83692 0.0
H272 H 0.33385 0.14214 0.93125 0.0
H273 H 0.26627 0.19693 0.93062 0.0
H274 H 0.18636 0.186 0.89488 0.0
H275 H 0.17328 0.12005 0.85982 0.0
C276 C 0.19458 0.04841 0.82916 0.0
C277 C 0.2403 0.0512 0.85436 0.0
C278 C 0.24727 0.08998 0.87475 0.0
C279 C 0.29367 0.0968 0.895 0.0
C280 C 0.29959 0.13571 0.91515 0.0
C281 C 0.26109 0.16736 0.91506 0.0
C282 C 0.21608 0.16117 0.89495 0.0
C283 C 0.20906 0.1231 0.87493 0.0
H284 H 0.13337 0.39801 0.41189 0.0
C285 C 0.09528 0.40505 0.41383 0.0
H286 H 0.02166 0.38395 0.39749 0.0
H287 H 0.05664 0.28028 0.27384 0.0
H288 H 0.01511 0.35188 0.24745 0.0
H289 H 1.00032 0.41857 0.28021 0.0
H290 H 0.02669 0.41414 0.33951 0.0
C291 C 0.06035 0.37803 0.39735 0.0
C292 C 0.07309 0.33927 0.37742 0.0
C293 C 0.05777 0.34259 0.34276 0.0
C294 C 0.06635 0.30421 0.32381 0.0
C295 C 0.05053 0.30833 0.28931 0.0
C296 C 0.02688 0.34925 0.27389 0.0
C297 C 0.01856 0.38681 0.29234 0.0
C298 C 0.03378 0.38375 0.32636 0.0
H299 H 0.0186 0.20353 0.32338 0.0
C300 C 0.05246 0.19148 0.3163 0.0
H301 H 0.12765 0.20657 0.31702 0.0
H302 H 0.1048 0.31931 0.4437 0.0
H303 H 0.1482 0.24885 0.46937 0.0
H304 H 0.16683 0.18429 0.436 0.0
H305 H 0.14152 0.18974 0.37669 0.0
C306 C 0.09222 0.21938 0.321 0.0
C307 C 0.09037 0.26264 0.33949 0.0
C308 C 0.10768 0.26008 0.37392 0.0
C309 C 0.09818 0.29797 0.39304 0.0
C310 C 0.11264 0.29267 0.42771 0.0
C311 C 0.13728 0.25212 0.44286 0.0
C312 C 0.14766 0.21573 0.42409 0.0
C313 C 0.13291 0.21934 0.39006 0.0
H314 H 0.69596 0.07238 0.88268 0.0
C315 C 0.71216 0.0627 0.90813 0.0
H316 H 0.77822 0.0406 0.9395 0.0
H317 H 0.87953 0.96834 0.82595 0.0
H318 H 0.85823 0.89381 0.85245 0.0
H319 H 0.80632 0.8921 0.89564 0.0
H320 H 0.77547 0.96492 0.91266 0.0
C321 C 0.76085 0.05345 0.915 0.0
C322 C 0.79189 0.05506 0.8886 0.0
C323 C 0.80969 0.01221 0.87889 0.0
C324 C 0.83913 0.01318 0.85367 0.0
C325 C 0.85647 0.96972 0.84463 0.0
C326 C 0.84467 0.92665 0.85972 0.0
C327 C 0.81551 0.92569 0.88406 0.0
C328 C 0.79812 0.9678 0.89364 0.0
H329 H 0.94342 0.08688 0.83321 0.0
C330 C 0.92455 0.07162 0.81108 0.0
H331 H 0.85937 0.0401 0.7879 0.0
H332 H 0.76801 0.14387 0.90346 0.0
H333 H 0.78816 0.21845 0.87639 0.0
H334 H 0.83601 0.22001 0.83098 0.0
H335 H 0.8646 0.14709 0.81265 0.0
C336 C 0.87771 0.05685 0.80957 0.0
C337 C 0.85082 0.05701 0.83806 0.0
C338 C 0.83353 0.09998 0.84804 0.0
C339 C 0.80455 0.09901 0.8736 0.0
C340 C 0.78901 0.14248 0.88367 0.0
C341 C 0.80048 0.18556 0.86842 0.0
C342 C 0.82752 0.18644 0.8429 0.0
C343 C 0.84387 0.14429 0.83269 0.0
H344 H 0.12693 0.69576 0.42196 0.0
C345 C 0.09118 0.69137 0.42929 0.0
H346 H 0.02456 0.7313 0.4296 0.0
H347 H 0.12825 0.9228 0.38965 0.0
H348 H 0.13393 0.92966 0.44828 0.0
H349 H 0.10968 0.86339 0.48402 0.0
H350 H 0.08036 0.78953 0.46126 0.0
C351 C 0.05748 0.72837 0.4187 0.0
C352 C 0.06997 0.76881 0.3967 0.0
C353 C 0.08516 0.81235 0.41013 0.0
C354 C 0.09747 0.85113 0.3893 0.0
C355 C 0.11595 0.89302 0.40388 0.0
C356 C 0.11998 0.89726 0.43765 0.0
C357 C 0.10645 0.85992 0.45778 0.0
C358 C 0.08951 0.81778 0.44436 0.0
H359 H 0.04672 0.93115 0.34458 0.0
C360 C 0.0757 0.92855 0.32992 0.0
H361 H 0.13136 0.88535 0.31802 0.0
H362 H 0.04374 0.68967 0.36326 0.0
H363 H 0.03765 0.68255 0.30452 0.0
H364 H 0.05598 0.75057 0.26802 0.0
H365 H 0.08069 0.82606 0.29007 0.0
C366 C 0.10204 0.88831 0.33235 0.0
C367 C 0.09223 0.84696 0.35474 0.0
C368 C 0.07787 0.80304 0.34145 0.0
C369 C 0.06698 0.76386 0.36247 0.0
C370 C 0.05247 0.72053 0.34848 0.0
C371 C 0.04878 0.71597 0.31477 0.0
C372 C 0.05911 0.75426 0.29422 0.0
C373 C 0.07337 0.79739 0.30724 0.0
loop_
_geom_bond_atom_site_label_1
_geom_bond_atom_site_label_2
_geom_bond_distance
_geom_bond_site_symmetry_2
_ccdc_geom_bond_type
C0 C1 1.443 . S
C0 N4 1.376 . S
C0 C38 1.389 . S
C1 C0 1.443 . S
C1 C2 1.340 . S
C1 H41 0.951 . S
C2 C1 1.340 . S
C2 C3 1.439 . S
C2 H42 0.950 . S
C3 C2 1.439 . S
C3 N4 1.374 . S
C3 C37 1.395 . S
N4 C0 1.376 . S
N4 C3 1.374 . S
N4 Co5 2.008 . S
Co5 N4 2.008 . S
Co5 N6 1.995 1_554 S
Co5 N11 2.008 1_544 S
Co5 N16 1.995 1_545 S
Co5 N21 2.282 . S
Co5 N27 2.282 1_554 S
N6 Co5 1.995 1_556 S
N6 C7 1.376 . S
N6 C10 1.383 . S
C7 N6 1.376 . S
C7 C8 1.446 . S
C7 C37 1.391 1_556 S
C8 C7 1.446 . S
C8 C9 1.339 . S
C8 H43 0.949 . S
C9 C8 1.339 . S
C9 C10 1.439 . S
C9 H44 0.950 . S
C10 N6 1.383 . S
C10 C9 1.439 . S
C10 C39 1.392 . S
N11 Co5 2.008 1_566 S
N11 C12 1.376 1_565 S
N11 C15 1.374 . S
C12 N11 1.376 1_545 S
C12 C13 1.443 1_545 S
C12 C39 1.389 . S
C13 C12 1.443 1_565 S
C13 C14 1.340 . S
C13 H45 0.951 . S
C14 C13 1.340 . S
C14 C15 1.439 . S
C14 H46 0.950 . S
C15 N11 1.374 . S
C15 C14 1.439 . S
C15 C40 1.395 1_556 S
N16 Co5 1.995 1_565 S
N16 C17 1.376 . S
N16 C20 1.382 1_565 S
C17 N16 1.376 . S
C17 C18 1.446 . S
C17 C40 1.391 . S
C18 C17 1.446 . S
C18 C19 1.339 . S
C18 H47 0.949 . S
C19 C18 1.339 . S
C19 C20 1.432 1_565 S
C19 H48 0.950 . S
C20 N16 1.382 1_545 S
C20 C19 1.432 1_545 S
C20 C38 1.399 . S
N21 Co5 2.282 . S
N21 C24 1.332 . S
N21 C26 1.332 . S
C22 C23 1.386 . S
C22 C25 1.388 . S
C23 C22 1.386 . S
C23 C24 1.382 . S
C23 H49 0.950 1_545 S
C24 N21 1.332 . S
C24 C23 1.382 . S
C24 H35 0.952 1_545 S
C25 C22 1.388 . S
C25 C26 1.382 . S
C25 H50 0.950 . S
C26 N21 1.332 . S
C26 C25 1.382 . S
C26 H36 0.948 . S
N27 Co5 2.282 1_556 S
N27 C31 1.332 . S
N27 C32 1.332 . S
C28 C29 1.388 . S
C28 C32 1.382 . S
C28 H51 0.950 1_545 S
C29 C28 1.388 . S
C29 C30 1.386 . S
C30 C29 1.386 . S
C30 C31 1.382 . S
C30 H52 0.950 . S
C31 N27 1.332 . S
C31 C30 1.382 . S
C31 H33 0.952 . S
C32 N27 1.332 . S
C32 C28 1.382 . S
C32 H34 0.948 1_545 S
H33 C31 0.952 . S
H34 C32 0.948 1_565 S
H35 C24 0.952 1_565 S
H36 C26 0.948 . S
C37 C3 1.395 . S
C37 C7 1.391 1_554 S
C38 C0 1.389 . S
C38 C20 1.399 . S
C39 C10 1.392 . S
C39 C12 1.389 . S
C40 C15 1.395 1_554 S
C40 C17 1.391 . S
H41 C1 0.951 . S
H42 C2 0.950 . S
H43 C8 0.949 . S
H44 C9 0.950 . S
H45 C13 0.951 . S
H46 C14 0.950 . S
H47 C18 0.949 . S
H48 C19 0.950 . S
H49 C23 0.950 1_565 S
H50 C25 0.950 . S
H51 C28 0.950 1_565 S
H52 C30 0.950 . S
C53 C54 1.443 . S
C53 N57 1.376 . S
C53 C91 1.389 . S
C54 C53 1.443 . S
C54 C55 1.340 . S
C54 H94 0.951 . S
C55 C54 1.340 . S
C55 C56 1.439 . S
C55 H95 0.950 . S
C56 C55 1.439 . S
C56 N57 1.374 . S
C56 C90 1.395 . S
N57 C53 1.376 . S
N57 C56 1.374 . S
N57 Co58 2.008 . S
Co58 N57 2.008 . S
Co58 N59 1.995 . S
Co58 N64 2.008 . S
Co58 N69 1.995 . S
Co58 N74 2.282 . S
Co58 N80 2.282 . S
N59 Co58 1.995 . S
N59 C60 1.376 . S
N59 C63 1.383 . S
C60 N59 1.376 . S
C60 C61 1.446 . S
C60 C90 1.391 . S
C61 C60 1.446 . S
C61 C62 1.339 . S
C61 H96 0.949 . S
C62 C61 1.339 . S
C62 C63 1.439 . S
C62 H97 0.950 . S
C63 N59 1.383 . S
C63 C62 1.439 . S
C63 C92 1.392 . S
N64 Co58 2.008 . S
N64 C65 1.376 . S
N64 C68 1.374 1_455 S
C65 N64 1.376 . S
C65 C66 1.443 1_455 S
C65 C92 1.389 . S
C66 C65 1.443 1_655 S
C66 C67 1.340 . S
C66 H98 0.951 . S
C67 C66 1.340 . S
C67 C68 1.439 . S
C67 H99 0.950 . S
C68 N64 1.374 1_655 S
C68 C67 1.439 . S
C68 C93 1.395 . S
N69 Co58 1.995 . S
N69 C70 1.376 1_455 S
N69 C73 1.383 . S
C70 N69 1.376 1_655 S
C70 C71 1.446 . S
C70 C93 1.391 . S
C71 C70 1.446 . S
C71 C72 1.339 . S
C71 H100 0.949 . S
C72 C71 1.339 . S
C72 C73 1.439 1_655 S
C72 H101 0.950 . S
C73 N69 1.383 . S
C73 C72 1.439 1_455 S
C73 C91 1.392 . S
N74 Co58 2.282 . S
N74 C77 1.332 . S
N74 C79 1.332 . S
C75 C76 1.386 . S
C75 C78 1.388 . S
C76 C75 1.386 . S
C76 C77 1.382 . S
C76 H102 0.950 1_455 S
C77 N74 1.332 . S
C77 C76 1.382 . S
C77 H88 0.952 1_455 S
C78 C75 1.388 . S
C78 C79 1.382 . S
C78 H103 0.950 . S
C79 N74 1.332 . S
C79 C78 1.382 . S
C79 H89 0.948 . S
N80 Co58 2.282 . S
N80 C84 1.332 . S
N80 C85 1.332 . S
C81 C82 1.388 . S
C81 C85 1.382 . S
C81 H104 0.950 1_455 S
C82 C81 1.388 . S
C82 C83 1.386 . S
C83 C82 1.386 . S
C83 C84 1.382 . S
C83 H105 0.950 . S
C84 N80 1.332 . S
C84 C83 1.382 . S
C84 H86 0.952 . S
C85 N80 1.332 . S
C85 C81 1.382 . S
C85 H87 0.948 1_455 S
H86 C84 0.952 . S
H87 C85 0.948 1_655 S
H88 C77 0.952 1_655 S
H89 C79 0.948 . S
C90 C56 1.395 . S
C90 C60 1.391 . S
C91 C53 1.389 . S
C91 C73 1.392 . S
C92 C63 1.392 . S
C92 C65 1.389 . S
C93 C68 1.395 . S
C93 C70 1.391 . S
H94 C54 0.951 . S
H95 C55 0.950 . S
H96 C61 0.949 . S
H97 C62 0.950 . S
H98 C66 0.951 . S
H99 C67 0.950 . S
H100 C71 0.949 . S
H101 C72 0.950 . S
H102 C76 0.950 1_655 S
H103 C78 0.950 . S
H104 C81 0.950 1_655 S
H105 C83 0.950 . S
Mg106 O107 2.028 . S
Mg106 O113 1.986 . S
Mg106 O115 2.114 1_545 S
Mg106 O116 2.251 . S
Mg106 O119 2.010 . S
O107 Mg106 2.028 . S
O107 C110 1.250 1_455 S
O108 Mg109 2.028 . S
O108 C110 1.248 . S
Mg109 O108 2.028 . S
Mg109 O114 2.032 1_655 S
Mg109 O116 2.079 1_655 S
C110 O107 1.250 1_655 S
C110 O108 1.248 . S
C111 O112 1.264 . S
C111 O119 1.249 . S
O112 C111 1.264 . S
O113 Mg106 1.986 . S
O113 C117 1.246 . S
O114 Mg109 2.032 1_455 S
O114 C117 1.259 . S
O115 Mg106 2.114 1_565 S
O115 C118 1.252 . S
O116 Mg106 2.251 . S
O116 Mg109 2.079 1_455 S
O116 C118 1.273 1_545 S
C117 O113 1.246 . S
C117 O114 1.259 . S
C118 O115 1.252 . S
C118 O116 1.273 1_565 S
O119 Mg106 2.010 . S
O119 C111 1.249 . S
Mg120 O121 2.028 . S
Mg120 O127 1.986 . S
Mg120 O129 2.114 1_545 S
Mg120 O130 2.251 . S
Mg120 O133 2.010 1_455 S
O121 Mg120 2.028 . S
O121 C124 1.250 . S
O122 Mg123 2.028 . S
O122 C124 1.248 . S
Mg123 O122 2.028 . S
Mg123 O128 2.032 . S
Mg123 O130 2.079 . S
C124 O121 1.250 . S
C124 O122 1.248 . S
C125 O126 1.264 . S
C125 O133 1.249 . S
O126 C125 1.264 . S
O127 Mg120 1.986 . S
O127 C131 1.246 . S
O128 Mg123 2.032 . S
O128 C131 1.259 . S
O129 Mg120 2.114 1_565 S
O129 C132 1.252 . S
O130 Mg120 2.251 . S
O130 Mg123 2.079 . S
O130 C132 1.273 1_545 S
C131 O127 1.246 . S
C131 O128 1.259 . S
C132 O129 1.252 . S
C132 O130 1.273 1_565 S
O133 Mg120 2.010 1_655 S
O133 C125 1.249 . S
H134 C135 0.951 . S
C135 H134 0.951 . S
C135 C141 1.265 . S
H136 C141 0.950 . S
H137 C145 0.949 . S
H138 C146 0.950 . S
H139 C147 0.951 . S
H140 C148 0.951 . S
C141 C135 1.265 . S
C141 H136 0.950 . S
C141 C142 1.478 . S
C142 C141 1.478 . S
C142 C143 1.397 . S
C142 C159 1.394 . S
C143 C142 1.397 . S
C143 C144 1.438 . S
C143 C148 1.429 1_545 S
C144 C143 1.438 . S
C144 C145 1.428 1_545 S
C144 C157 1.394 . S
C145 H137 0.949 . S
C145 C144 1.428 1_565 S
C145 C146 1.345 . S
C146 H138 0.950 . S
C146 C145 1.345 . S
C146 C147 1.424 . S
C147 H139 0.951 . S
C147 C146 1.424 . S
C147 C148 1.347 . S
C148 H140 0.951 . S
C148 C143 1.429 1_565 S
C148 C147 1.347 . S
H149 C150 0.951 . S
C150 H149 0.951 . S
C150 C156 1.265 . S
H151 C156 0.950 . S
H152 C160 0.949 . S
H153 C161 0.950 . S
H154 C162 0.951 . S
H155 C163 0.951 . S
C156 C150 1.265 . S
C156 H151 0.950 . S
C156 C157 1.478 . S
C157 C144 1.394 . S
C157 C156 1.478 . S
C157 C158 1.397 . S
C158 C157 1.397 . S
C158 C159 1.438 . S
C158 C163 1.429 . S
C159 C142 1.394 . S
C159 C158 1.438 . S
C159 C160 1.428 . S
C160 H152 0.949 . S
C160 C159 1.428 . S
C160 C161 1.345 . S
C161 H153 0.950 . S
C161 C160 1.345 . S
C161 C162 1.424 . S
C162 H154 0.951 . S
C162 C161 1.424 . S
C162 C163 1.347 . S
C163 H155 0.951 . S
C163 C158 1.429 . S
C163 C162 1.347 . S
H164 C165 0.951 . S
C165 H164 0.951 . S
C165 C171 1.265 . S
H166 C171 0.950 . S
H167 C175 0.949 . S
H168 C176 0.950 . S
H169 C177 0.951 . S
H170 C178 0.951 . S
C171 C165 1.265 . S
C171 H166 0.950 . S
C171 C172 1.478 . S
C172 C171 1.478 . S
C172 C173 1.397 . S
C172 C189 1.394 . S
C173 C172 1.397 . S
C173 C174 1.438 . S
C173 C178 1.429 . S
C174 C173 1.438 . S
C174 C175 1.428 . S
C174 C187 1.394 . S
C175 H167 0.949 . S
C175 C174 1.428 . S
C175 C176 1.345 . S
C176 H168 0.950 . S
C176 C175 1.345 . S
C176 C177 1.424 . S
C177 H169 0.951 . S
C177 C176 1.424 . S
C177 C178 1.347 . S
C178 H170 0.951 . S
C178 C173 1.429 . S
C178 C177 1.347 . S
H179 C180 0.951 . S
C180 H179 0.951 . S
C180 C186 1.265 . S
H181 C186 0.950 1_655 S
H182 C190 0.949 . S
H183 C191 0.950 . S
H184 C192 0.951 1_655 S
H185 C193 0.951 . S
C186 C180 1.265 . S
C186 H181 0.950 1_455 S
C186 C187 1.478 . S
C187 C174 1.394 . S
C187 C186 1.478 . S
C187 C188 1.397 . S
C188 C187 1.397 . S
C188 C189 1.438 . S
C188 C193 1.429 . S
C189 C172 1.394 . S
C189 C188 1.438 . S
C189 C190 1.428 . S
C190 H182 0.949 . S
C190 C189 1.428 . S
C190 C191 1.345 . S
C191 H183 0.950 . S
C191 C190 1.345 . S
C191 C192 1.424 . S
C192 H184 0.951 1_455 S
C192 C191 1.424 . S
C192 C193 1.347 . S
C193 H185 0.951 . S
C193 C188 1.429 . S
C193 C192 1.347 . S
H194 C195 0.951 . S
C195 H194 0.951 . S
C195 C201 1.265 . S
H196 C201 0.950 . S
H197 C205 0.949 . S
H198 C206 0.950 . S
H199 C207 0.951 . S
H200 C208 0.951 . S
C201 C195 1.265 . S
C201 H196 0.950 . S
C201 C202 1.478 . S
C202 C201 1.478 . S
C202 C203 1.397 . S
C202 C219 1.394 . S
C203 C202 1.397 . S
C203 C204 1.438 . S
C203 C208 1.429 . S
C204 C203 1.438 . S
C204 C205 1.428 . S
C204 C217 1.394 . S
C205 H197 0.949 . S
C205 C204 1.428 . S
C205 C206 1.345 . S
C206 H198 0.950 . S
C206 C205 1.345 . S
C206 C207 1.424 . S
C207 H199 0.951 . S
C207 C206 1.424 . S
C207 C208 1.347 . S
C208 H200 0.951 . S
C208 C203 1.429 . S
C208 C207 1.347 . S
H209 C210 0.951 . S
C210 H209 0.951 . S
C210 C216 1.265 . S
H211 C216 0.950 . S
H212 C220 0.949 . S
H213 C221 0.950 . S
H214 C222 0.951 . S
H215 C223 0.951 . S
C216 C210 1.265 . S
C216 H211 0.950 . S
C216 C217 1.478 . S
C217 C204 1.394 . S
C217 C216 1.478 . S
C217 C218 1.397 . S
C218 C217 1.397 . S
C218 C219 1.438 . S
C218 C223 1.429 1_545 S
C219 C202 1.394 . S
C219 C218 1.438 . S
C219 C220 1.428 1_545 S
C220 H212 0.949 . S
C220 C219 1.428 1_565 S
C220 C221 1.345 . S
C221 H213 0.950 . S
C221 C220 1.345 . S
C221 C222 1.424 . S
C222 H214 0.951 . S
C222 C221 1.424 . S
C222 C223 1.347 . S
C223 H215 0.951 . S
C223 C218 1.429 1_565 S
C223 C222 1.347 . S
H224 C225 0.951 . S
C225 H224 0.951 . S
C225 C231 1.265 . S
H226 C231 0.950 . S
H227 C235 0.949 . S
H228 C236 0.950 . S
H229 C237 0.951 . S
H230 C238 0.951 . S
C231 C225 1.265 . S
C231 H226 0.950 . S
C231 C232 1.478 . S
C232 C231 1.478 . S
C232 C233 1.397 . S
C232 C249 1.394 . S
C233 C232 1.397 . S
C233 C234 1.438 . S
C233 C238 1.429 . S
C234 C233 1.438 . S
C234 C235 1.428 . S
C234 C247 1.394 . S
C235 H227 0.949 . S
C235 C234 1.428 . S
C235 C236 1.345 . S
C236 H228 0.950 . S
C236 C235 1.345 . S
C236 C237 1.424 . S
C237 H229 0.951 . S
C237 C236 1.424 . S
C237 C238 1.347 . S
C238 H230 0.951 . S
C238 C233 1.429 . S
C238 C237 1.347 . S
H239 C240 0.951 . S
C240 H239 0.951 . S
C240 C246 1.265 . S
H241 C246 0.944 1_655 S
H242 C250 0.949 . S
H243 C251 0.950 . S
H244 C252 0.951 . S
H245 C253 0.951 . S
C246 C240 1.265 . S
C246 H241 0.944 1_455 S
C246 C247 1.478 . S
C247 C234 1.394 . S
C247 C246 1.478 . S
C247 C248 1.397 . S
C248 C247 1.397 . S
C248 C249 1.438 . S
C248 C253 1.429 . S
C249 C232 1.394 . S
C249 C248 1.438 . S
C249 C250 1.428 . S
C250 H242 0.949 . S
C250 C249 1.428 . S
C250 C251 1.345 . S
C251 H243 0.950 . S
C251 C250 1.345 . S
C251 C252 1.424 . S
C252 H244 0.951 . S
C252 C251 1.424 . S
C252 C253 1.347 . S
C253 H245 0.951 . S
C253 C248 1.429 . S
C253 C252 1.347 . S
H254 C255 0.951 . S
C255 H254 0.951 . S
C255 C261 1.265 . S
H256 C261 0.950 . S
H257 C265 0.949 . S
H258 C266 0.950 . S
H259 C267 0.951 . S
H260 C268 0.951 . S
C261 C255 1.265 . S
C261 H256 0.950 . S
C261 C262 1.478 . S
C262 C261 1.478 . S
C262 C263 1.397 . S
C262 C279 1.394 . S
C263 C262 1.397 . S
C263 C264 1.438 . S
C263 C268 1.429 1_545 S
C264 C263 1.438 . S
C264 C265 1.428 1_545 S
C264 C277 1.394 . S
C265 H257 0.949 . S
C265 C264 1.428 1_565 S
C265 C266 1.345 . S
C266 H258 0.950 . S
C266 C265 1.345 . S
C266 C267 1.424 . S
C267 H259 0.951 . S
C267 C266 1.424 . S
C267 C268 1.347 . S
C268 H260 0.951 . S
C268 C263 1.429 1_565 S
C268 C267 1.347 . S
H269 C270 0.951 . S
C270 H269 0.951 . S
C270 C276 1.265 . S
H271 C276 0.950 . S
H272 C280 0.949 . S
H273 C281 0.950 . S
H274 C282 0.951 . S
H275 C283 0.951 . S
C276 C270 1.265 . S
C276 H271 0.950 . S
C276 C277 1.478 . S
C277 C264 1.394 . S
C277 C276 1.478 . S
C277 C278 1.397 . S
C278 C277 1.397 . S
C278 C279 1.438 . S
C278 C283 1.429 . S
C279 C262 1.394 . S
C279 C278 1.438 . S
C279 C280 1.428 . S
C280 H272 0.949 . S
C280 C279 1.428 . S
C280 C281 1.345 . S
C281 H273 0.950 . S
C281 C280 1.345 . S
C281 C282 1.424 . S
C282 H274 0.951 . S
C282 C281 1.424 . S
C282 C283 1.347 . S
C283 H275 0.951 . S
C283 C278 1.429 . S
C283 C282 1.347 . S
H284 C285 0.951 . S
C285 H284 0.951 . S
C285 C291 1.265 . S
H286 C291 0.950 . S
H287 C295 0.949 . S
H288 C296 0.950 . S
H289 C297 0.951 1_655 S
H290 C298 0.951 . S
C291 C285 1.265 . S
C291 H286 0.950 . S
C291 C292 1.478 . S
C292 C291 1.478 . S
C292 C293 1.397 . S
C292 C309 1.394 . S
C293 C292 1.397 . S
C293 C294 1.438 . S
C293 C298 1.429 . S
C294 C293 1.438 . S
C294 C295 1.428 . S
C294 C307 1.394 . S
C295 H287 0.949 . S
C295 C294 1.428 . S
C295 C296 1.345 . S
C296 H288 0.950 . S
C296 C295 1.345 . S
C296 C297 1.424 . S
C297 H289 0.951 1_455 S
C297 C296 1.424 . S
C297 C298 1.347 . S
C298 H290 0.951 . S
C298 C293 1.429 . S
C298 C297 1.347 . S
H299 C300 0.951 . S
C300 H299 0.951 . S
C300 C306 1.265 . S
H301 C306 0.950 . S
H302 C310 0.949 . S
H303 C311 0.950 . S
H304 C312 0.951 . S
H305 C313 0.951 . S
C306 C300 1.265 . S
C306 H301 0.950 . S
C306 C307 1.478 . S
C307 C294 1.394 . S
C307 C306 1.478 . S
C307 C308 1.397 . S
C308 C307 1.397 . S
C308 C309 1.438 . S
C308 C313 1.429 . S
C309 C292 1.394 . S
C309 C308 1.438 . S
C309 C310 1.428 . S
C310 H302 0.949 . S
C310 C309 1.428 . S
C310 C311 1.345 . S
C311 H303 0.950 . S
C311 C310 1.345 . S
C311 C312 1.424 . S
C312 H304 0.951 . S
C312 C311 1.424 . S
C312 C313 1.347 . S
C313 H305 0.951 . S
C313 C308 1.429 . S
C313 C312 1.347 . S
H314 C315 0.951 . S
C315 H314 0.951 . S
C315 C321 1.265 . S
H316 C321 0.950 . S
H317 C325 0.949 . S
H318 C326 0.950 . S
H319 C327 0.951 . S
H320 C328 0.951 . S
C321 C315 1.265 . S
C321 H316 0.950 . S
C321 C322 1.478 . S
C322 C321 1.478 . S
C322 C323 1.397 . S
C322 C339 1.394 . S
C323 C322 1.397 . S
C323 C324 1.438 . S
C323 C328 1.429 1_545 S
C324 C323 1.438 . S
C324 C325 1.428 1_545 S
C324 C337 1.394 . S
C325 H317 0.949 . S
C325 C324 1.428 1_565 S
C325 C326 1.345 . S
C326 H318 0.950 . S
C326 C325 1.345 . S
C326 C327 1.424 . S
C327 H319 0.951 . S
C327 C326 1.424 . S
C327 C328 1.347 . S
C328 H320 0.951 . S
C328 C323 1.429 1_565 S
C328 C327 1.347 . S
H329 C330 0.951 . S
C330 H329 0.951 . S
C330 C336 1.265 . S
H331 C336 0.950 . S
H332 C340 0.949 . S
H333 C341 0.950 . S
H334 C342 0.951 . S
H335 C343 0.951 . S
C336 C330 1.265 . S
C336 H331 0.950 . S
C336 C337 1.478 . S
C337 C324 1.394 . S
C337 C336 1.478 . S
C337 C338 1.397 . S
C338 C337 1.397 . S
C338 C339 1.438 . S
C338 C343 1.429 . S
C339 C322 1.394 . S
C339 C338 1.438 . S
C339 C340 1.428 . S
C340 H332 0.949 . S
C340 C339 1.428 . S
C340 C341 1.345 . S
C341 H333 0.950 . S
C341 C340 1.345 . S
C341 C342 1.424 . S
C342 H334 0.951 . S
C342 C341 1.424 . S
C342 C343 1.347 . S
C343 H335 0.951 . S
C343 C338 1.429 . S
C343 C342 1.347 . S
H344 C345 0.951 . S
C345 H344 0.951 . S
C345 C351 1.265 . S
H346 C351 0.950 . S
H347 C355 0.949 . S
H348 C356 0.950 . S
H349 C357 0.951 . S
H350 C358 0.951 . S
C351 C345 1.265 . S
C351 H346 0.950 . S
C351 C352 1.478 . S
C352 C351 1.478 . S
C352 C353 1.397 . S
C352 C369 1.394 . S
C353 C352 1.397 . S
C353 C354 1.438 . S
C353 C358 1.429 . S
C354 C353 1.438 . S
C354 C355 1.428 . S
C354 C367 1.394 . S
C355 H347 0.949 . S
C355 C354 1.428 . S
C355 C356 1.345 . S
C356 H348 0.950 . S
C356 C355 1.345 . S
C356 C357 1.424 . S
C357 H349 0.951 . S
C357 C356 1.424 . S
C357 C358 1.347 . S
C358 H350 0.951 . S
C358 C353 1.429 . S
C358 C357 1.347 . S
H359 C360 0.951 . S
C360 H359 0.951 . S
C360 C366 1.265 . S
H361 C366 0.950 . S
H362 C370 0.949 . S
H363 C371 0.950 . S
H364 C372 0.951 . S
H365 C373 0.951 . S
C366 C360 1.265 . S
C366 H361 0.950 . S
C366 C367 1.478 . S
C367 C354 1.394 . S
C367 C366 1.478 . S
C367 C368 1.397 . S
C368 C367 1.397 . S
C368 C369 1.438 . S
C368 C373 1.429 . S
C369 C352 1.394 . S
C369 C368 1.438 . S
C369 C370 1.428 . S
C370 H362 0.949 . S
C370 C369 1.428 . S
C370 C371 1.345 . S
C371 H363 0.950 . S
C371 C370 1.345 . S
C371 C372 1.424 . S
C372 H364 0.951 . S
C372 C371 1.424 . S
C372 C373 1.347 . S
C373 H365 0.951 . S
C373 C368 1.429 . S
C373 C372 1.347 . S
C150 C111 1.347 . S
C135 C22 1.487 . S
C180 C131 1.431 . S
C165 C91 1.486 . S
C210 C110 1.492 . S
C195 C38 1.484 . S
C240 C132 1.498 . S
C225 C75 1.495 . S
C270 C124 1.409 . S
C255 C39 1.496 . S
C300 C117 1.431 . S
C285 C82 1.486 . S
C330 C125 1.341 . S
C315 C29 1.487 . S
C345 C92 1.494 . S
C360 C118 1.497 . S
