# Generated by pormake.
# Topology tsx, (6,3)-cn, num edge types: 1
# Building blocks:
#     Node 0, Type 0, BuildingBlock: FUNLAD_clean_sbu_0, # of connection points: 6
#     Node 1, Type 0, BuildingBlock: FUNLAD_clean_sbu_0, # of connection points: 6
#     Node 2, Type 1, BuildingBlock: WUSLED_clean_sbu_0, # of connection points: 3
#     Node 3, Type 1, BuildingBlock: WUSLED_clean_sbu_0, # of connection points: 3
#     Node 4, Type 1, BuildingBlock: WUSLED_clean_sbu_0, # of connection points: 3
#     Node 5, Type 1, BuildingBlock: WUSLED_clean_sbu_0, # of connection points: 3
#     Edge 6, Type (0, 1), BuildingBlock: UVAHIK_clean_linker_0, # of connection points: 2
#     Edge 7, Type (0, 1), BuildingBlock: UVAHIK_clean_linker_0, # of connection points: 2
#     Edge 8, Type (0, 1), BuildingBlock: UVAHIK_clean_linker_0, # of connection points: 2
#     Edge 9, Type (0, 1), BuildingBlock: UVAHIK_clean_linker_0, # of connection points: 2
#     Edge 10, Type (0, 1), BuildingBlock: UVAHIK_clean_linker_0, # of connection points: 2
#     Edge 11, Type (0, 1), BuildingBlock: UVAHIK_clean_linker_0, # of connection points: 2
#     Edge 12, Type (0, 1), BuildingBlock: UVAHIK_clean_linker_0, # of connection points: 2
#     Edge 13, Type (0, 1), BuildingBlock: UVAHIK_clean_linker_0, # of connection points: 2
#     Edge 14, Type (0, 1), BuildingBlock: UVAHIK_clean_linker_0, # of connection points: 2
#     Edge 15, Type (0, 1), BuildingBlock: UVAHIK_clean_linker_0, # of connection points: 2
#     Edge 16, Type (0, 1), BuildingBlock: UVAHIK_clean_linker_0, # of connection points: 2
#     Edge 17, Type (0, 1), BuildingBlock: UVAHIK_clean_linker_0, # of connection points: 2
# Relax obj value: 0.157
# Max RMSD: 0.152
# Mean RMSD: 0.091
data_MOF--net-tsx--node1-FUNLAD_clean_sbu_0--node2-WUSLED_clean_sbu_0--edge1-UVAHIK_clean_linker_0
_symmetry_space_group_name_H-M    P1
_symmetry_Int_Tables_number       1
_symmetry_cell_setting            triclinic
loop_
_symmetry_equiv_pos_as_xyz
'x, y, z'
_cell_length_a     30.457087
_cell_length_b     33.721926
_cell_length_c     62.977762
_cell_angle_alpha  91.403803
_cell_angle_beta   92.070906
_cell_angle_gamma 89.932084
loop_
_atom_site_label
_atom_site_type_symbol
_atom_site_fract_x
_atom_site_fract_y
_atom_site_fract_z
_atom_type_partial_charge
C0 C 0.96041 0.94472 0.00769 0.0
N1 N 0.0233 0.00919 0.05763 0.0
C2 C 0.98407 0.00941 0.06731 0.0
C3 C 0.98257 0.01166 0.08943 0.0
C4 C 0.02182 0.01394 0.10185 0.0
C5 C 0.06188 0.01358 0.09142 0.0
C6 C 0.06187 0.01113 0.06921 0.0
Zn7 Zn 0.02333 0.00602 0.02506 0.0
C8 C 0.08869 0.94754 0.00878 0.0
N9 N 0.02163 0.9992 0.95708 0.0
C10 C 0.98244 0.99479 0.9462 0.0
C11 C 0.05985 0.00205 0.94666 0.0
C12 C 0.05954 1.00068 0.92445 0.0
C13 C 0.01955 0.99601 0.91283 0.0
C14 C 0.98066 0.99298 0.92401 0.0
Zn15 Zn 0.02245 0.00218 0.98966 0.0
O16 O 0.97457 0.96179 0.02479 0.0
C17 C 0.95675 0.06023 0.00527 0.0
O18 O 0.97552 0.95504 0.99009 0.0
H19 H 0.09068 0.00542 0.9556 0.0
H20 H 0.95376 0.00778 0.05784 0.0
H21 H 0.95239 0.99286 0.95475 0.0
O22 O 0.97345 0.05108 0.02331 0.0
O23 O 0.97106 0.04366 0.98857 0.0
H24 H 0.09271 0.01097 0.06122 0.0
O25 O 0.06931 0.04951 0.98998 0.0
O26 O 0.07213 0.05019 0.02486 0.0
O27 O 0.07378 0.96054 0.99117 0.0
O28 O 0.07306 0.96086 0.02603 0.0
C29 C 0.08526 0.06365 0.00752 0.0
H30 H 0.95092 0.01118 0.09672 0.0
H31 H 0.09295 0.01576 0.10028 0.0
H32 H 0.09032 0.00274 0.91646 0.0
H33 H 0.94907 0.98985 0.91568 0.0
C34 C 0.46035 0.44744 0.5086 0.0
N35 N 0.52451 0.51289 0.55765 0.0
C36 C 0.48534 0.51366 0.56739 0.0
C37 C 0.484 0.51594 0.58951 0.0
C38 C 0.52333 0.51766 0.60187 0.0
C39 C 0.56333 0.51686 0.59139 0.0
C40 C 0.56316 0.51442 0.56918 0.0
Zn41 Zn 0.5242 0.50904 0.52509 0.0
C42 C 0.58868 0.44949 0.509 0.0
N43 N 0.52113 0.50008 0.45717 0.0
C44 C 0.48194 0.49594 0.44627 0.0
C45 C 0.55942 0.50264 0.44679 0.0
C46 C 0.55918 0.50143 0.42459 0.0
C47 C 0.51918 0.49728 0.41293 0.0
C48 C 0.48022 0.49435 0.42407 0.0
Zn49 Zn 0.52221 0.50369 0.48974 0.0
O50 O 0.47517 0.46543 0.52528 0.0
C51 C 0.45734 0.56274 0.50514 0.0
O52 O 0.47503 0.45647 0.49067 0.0
H53 H 0.59024 0.50579 0.45575 0.0
H54 H 0.45496 0.51233 0.55797 0.0
H55 H 0.45185 0.49421 0.45481 0.0
O56 O 0.47472 0.55439 0.52317 0.0
O57 O 0.47088 0.54527 0.48853 0.0
H58 H 0.59395 0.51381 0.56114 0.0
O59 O 0.56934 0.55108 0.4896 0.0
O60 O 0.57322 0.55267 0.52448 0.0
O61 O 0.57342 0.46199 0.49135 0.0
O62 O 0.57355 0.46347 0.52624 0.0
C63 C 0.58588 0.56562 0.50694 0.0
H64 H 0.45238 0.51581 0.59684 0.0
H65 H 0.59448 0.51861 0.60021 0.0
H66 H 0.59002 0.50335 0.41664 0.0
H67 H 0.44862 0.49159 0.41572 0.0
C68 C 0.94603 0.06002 0.47468 0.0
C69 C 0.91785 0.07685 0.45927 0.0
C70 C 0.89146 0.12465 0.48547 0.0
C71 C 0.8907 0.10859 0.46463 0.0
C72 C 0.91934 0.10729 0.501 0.0
C73 C 0.94648 0.07521 0.49561 0.0
U74 U 0.00172 0.00585 0.43063 0.0
O75 O 0.0691 0.9837 0.42728 0.0
O76 O 0.01324 0.94254 0.42371 0.0
C77 C 0.05616 0.94679 0.4241 0.0
C78 C 0.97619 0.02805 0.46841 0.0
C79 C 0.08187 0.91638 0.43525 0.0
C80 C 0.10856 0.88396 0.46729 0.0
C81 C 0.08319 0.91359 0.45747 0.0
C82 C 0.1311 0.86014 0.43273 0.0
C83 C 0.13261 0.85674 0.45496 0.0
C84 C 0.10595 0.88957 0.42302 0.0
C85 C 0.97823 0.04138 0.37444 0.0
C86 C 1.00022 0.00373 0.34317 0.0
C87 C 0.97462 0.07142 0.33977 0.0
C88 C 0.96852 0.07389 0.36167 0.0
C89 C 0.99043 0.03628 0.33026 0.0
C90 C 0.99436 0.00633 0.3651 0.0
C91 C 0.97186 0.04459 0.39746 0.0
O92 O 0.95775 0.99869 0.45722 0.0
O93 O 0.01302 0.04027 0.4605 0.0
O94 O 0.0066 0.05587 0.40901 0.0
O95 O 0.95068 0.01501 0.40565 0.0
H96 H 0.91713 0.06563 0.44299 0.0
H97 H 0.86904 0.12056 0.45235 0.0
H98 H 0.92098 0.11907 0.51716 0.0
H99 H 0.96824 0.06269 0.50768 0.0
H100 H 0.10898 0.88205 0.48444 0.0
H101 H 0.0647 0.93419 0.46714 0.0
H102 H 0.14994 0.84035 0.42276 0.0
H103 H 0.10548 0.89149 0.40586 0.0
H104 H 0.01293 0.97643 0.33637 0.0
H105 H 0.96635 0.09685 0.33024 0.0
H106 H 0.95612 0.1012 0.36863 0.0
H107 H 0.00243 0.98101 0.37476 0.0
C108 C 0.95408 0.95087 0.53788 0.0
C109 C 0.92389 0.93849 0.55265 0.0
C110 C 0.89588 0.88757 0.52767 0.0
C111 C 0.89496 0.90742 0.54756 0.0
C112 C 0.92557 0.90063 0.51268 0.0
C113 C 0.95454 0.93204 0.51778 0.0
U114 U 0.01304 0.00565 0.58247 0.0
O115 O 0.08227 0.02282 0.58822 0.0
O116 O 0.03042 0.06828 0.58814 0.0
C117 C 0.07279 0.06081 0.58962 0.0
C118 C 0.98677 0.98137 0.54427 0.0
C119 C 0.10145 0.08776 0.57849 0.0
C120 C 0.11996 0.12595 0.54778 0.0
C121 C 0.09339 0.0978 0.55719 0.0
C122 C 0.16309 0.13319 0.58075 0.0
C123 C 0.15461 0.14447 0.55964 0.0
C124 C 0.13675 0.1052 0.59005 0.0
C125 C 0.98282 0.97655 0.63847 0.0
C126 C 0.02671 0.99138 0.6707 0.0
C127 C 0.95125 0.96977 0.67305 0.0
C128 C 0.94722 0.9672 0.65088 0.0
C129 C 0.99116 0.98157 0.68328 0.0
C130 C 0.02253 0.98902 0.6485 0.0
C131 C 0.97794 0.97271 0.61517 0.0
O132 O 0.97079 0.01315 0.55376 0.0
O133 O 0.02223 0.96759 0.55406 0.0
O134 O 0.0118 0.95767 0.60541 0.0
O135 O 0.96047 0.00338 0.60555 0.0
H136 H 0.92316 0.95249 0.56831 0.0
H137 H 0.87198 0.89878 0.55934 0.0
H138 H 0.9273 0.88586 0.49727 0.0
H139 H 0.97788 0.94104 0.50625 0.0
H140 H 0.11265 0.13406 0.5315 0.0
H141 H 0.06621 0.0845 0.54802 0.0
H142 H 0.19006 0.14624 0.59018 0.0
H143 H 0.14354 0.09765 0.60647 0.0
H144 H 0.05804 1.0002 0.678 0.0
H145 H 0.92293 0.96274 0.68216 0.0
H146 H 0.91622 0.95779 0.64341 0.0
H147 H 0.05041 0.99655 0.63918 0.0
C148 C 0.4473 0.55894 0.97463 0.0
C149 C 0.41937 0.57589 0.95917 0.0
C150 C 0.39275 0.62364 0.98533 0.0
C151 C 0.39223 0.60767 0.96447 0.0
C152 C 0.42037 0.60616 1.00092 0.0
C153 C 0.4475 0.57404 0.99558 0.0
U154 U 0.50313 0.50487 0.93065 0.0
O155 O 0.57056 0.48279 0.92731 0.0
O156 O 0.51474 0.44159 0.92368 0.0
C157 C 0.55766 0.44588 0.9241 0.0
C158 C 0.47748 0.52696 0.96842 0.0
C159 C 0.58337 0.41547 0.93525 0.0
C160 C 0.60894 0.38224 0.96724 0.0
C161 C 0.58371 0.41197 0.95743 0.0
C162 C 0.63335 0.35977 0.93277 0.0
C163 C 0.63382 0.35562 0.95495 0.0
C164 C 0.60835 0.3893 0.92307 0.0
C165 C 0.47968 0.5408 0.87449 0.0
C166 C 0.50117 0.50338 0.84306 0.0
C167 C 0.47658 0.57143 0.83998 0.0
C168 C 0.47047 0.57362 0.86188 0.0
C169 C 0.4919 0.53625 0.8303 0.0
C170 C 0.4953 0.50569 0.86499 0.0
C171 C 0.47332 0.54376 0.89752 0.0
O172 O 0.45908 0.49762 0.95719 0.0
O173 O 0.51436 0.53918 0.96055 0.0
O174 O 0.50803 0.555 0.9091 0.0
O175 O 0.45216 0.51408 0.90564 0.0
H176 H 0.41884 0.56474 0.94287 0.0
H177 H 0.37077 0.61973 0.95215 0.0
H178 H 0.42181 0.61787 0.01709 0.0
H179 H 0.46907 0.56143 0.0077 0.0
H180 H 0.60857 0.37975 0.98435 0.0
H181 H 0.56453 0.43208 0.96706 0.0
H182 H 0.65284 0.34045 0.92285 0.0
H183 H 0.60864 0.39177 0.90594 0.0
H184 H 0.5135 0.47604 0.83613 0.0
H185 H 0.46871 0.59712 0.83057 0.0
H186 H 0.45846 0.60097 0.86896 0.0
H187 H 0.50299 0.48013 0.87454 0.0
C188 C 0.45454 0.44844 0.03842 0.0
C189 C 0.42661 0.43466 0.05384 0.0
C190 C 0.39745 0.38401 0.029 0.0
C191 C 0.39822 0.403 0.04915 0.0
C192 C 0.42519 0.39824 0.01345 0.0
C193 C 0.45357 0.43024 0.01815 0.0
U194 U 0.51273 0.50872 0.0814 0.0
O195 O 0.58057 0.53044 0.0856 0.0
O196 O 0.52555 0.57273 0.08537 0.0
C197 C 0.5684 0.5679 0.08557 0.0
C198 C 0.4857 0.48061 0.04402 0.0
C199 C 0.59277 0.59476 0.07207 0.0
C200 C 0.64528 0.60685 0.04472 0.0
C201 C 0.62006 0.58048 0.05604 0.0
C202 C 0.61518 0.66204 0.06478 0.0
C203 C 0.64342 0.64792 0.04912 0.0
C204 C 0.59027 0.63574 0.07615 0.0
C205 C 0.48637 0.48144 0.13854 0.0
C206 C 0.53026 0.49544 0.17089 0.0
C207 C 0.45383 0.47667 0.17302 0.0
C208 C 0.45011 0.47378 0.15087 0.0
C209 C 0.49407 0.48708 0.18335 0.0
C210 C 0.52641 0.49274 0.14867 0.0
C211 C 0.4817 0.47641 0.11527 0.0
O212 O 0.46829 0.51204 0.05319 0.0
O213 O 0.52237 0.46906 0.05365 0.0
O214 O 0.5163 0.46279 0.10555 0.0
O215 O 0.46171 0.50539 0.10523 0.0
H216 H 0.42699 0.44826 0.06962 0.0
H217 H 0.37674 0.39347 0.06138 0.0
H218 H 0.42568 0.38413 0.99783 0.0
H219 H 0.47512 0.4404 0.0061 0.0
H220 H 0.66647 0.59512 0.03262 0.0
H221 H 0.6225 0.54898 0.05248 0.0
H222 H 0.61346 0.69341 0.0688 0.0
H223 H 0.56966 0.6474 0.08852 0.0
H224 H 0.56182 0.50322 0.17828 0.0
H225 H 0.42504 0.47082 0.18205 0.0
H226 H 0.41887 0.46526 0.14333 0.0
H227 H 0.55483 0.49894 0.13944 0.0
C228 C 0.14086 0.10635 0.02719 0.0
C229 C 0.11854 0.09568 0.00799 0.0
C230 C 0.17147 0.13715 0.02802 0.0
C231 C 0.24091 0.19913 0.99467 0.0
H232 H 0.24481 0.26719 0.04524 0.0
C233 C 0.34496 0.34436 0.00489 0.0
C234 C 0.368 0.34933 0.02456 0.0
C235 C 0.31519 0.31299 1.00148 0.0
C236 C 0.24431 0.24828 0.03108 0.0
H237 H 0.11126 0.10875 0.97451 0.0
H238 H 0.16412 0.16334 0.97606 0.0
H239 H 0.19092 0.21408 0.04183 0.0
H240 H 0.37966 0.32366 0.05554 0.0
H241 H 0.32731 0.26974 0.04971 0.0
H242 H 0.29417 0.2342 0.98391 0.0
C243 C 0.15843 0.1474 0.99042 0.0
C244 C 0.21352 0.2177 0.02913 0.0
C245 C 0.12796 0.11625 0.98954 0.0
C246 C 0.36163 0.32145 0.04042 0.0
C247 C 0.33173 0.29044 0.03707 0.0
C248 C 0.27156 0.23009 0.99656 0.0
C249 C 0.1803 0.15845 0.00973 0.0
C250 C 0.21181 0.19228 0.01107 0.0
C251 C 0.30769 0.2862 0.01771 0.0
C252 C 0.27397 0.25457 0.01494 0.0
H253 H 0.13478 0.09085 0.04166 0.0
H254 H 0.1884 0.1441 0.04307 0.0
H255 H 0.24079 0.17997 0.98062 0.0
H256 H 0.34887 0.36539 0.99238 0.0
H257 H 0.29697 0.31047 0.98641 0.0
C258 C 0.13232 0.89373 0.02686 0.0
C259 C 0.12304 0.91641 0.0088 0.0
C260 C 0.16263 0.86243 0.02604 0.0
C261 C 0.21543 0.79578 0.98667 0.0
H262 H 0.29587 0.77066 0.03358 0.0
C263 C 0.35941 0.68912 0.97567 0.0
C264 C 0.36489 0.65871 0.99043 0.0
C265 C 0.33087 0.72067 0.97947 0.0
C266 C 0.2733 0.77719 0.02044 0.0
H267 H 0.13984 0.9253 0.97608 0.0
H268 H 0.1932 0.87192 0.97483 0.0
H269 H 0.24438 0.82608 0.03731 0.0
H270 H 0.34575 0.63868 0.02124 0.0
H271 H 0.29619 0.69451 0.02802 0.0
H272 H 0.24476 0.74754 0.96967 0.0
C273 C 0.17621 0.87721 0.98944 0.0
C274 C 0.24375 0.80885 0.02256 0.0
C275 C 0.14576 0.90807 0.9902 0.0
C276 C 0.34247 0.66165 0.00957 0.0
C277 C 0.31404 0.69355 0.01345 0.0
C278 C 0.24509 0.76454 0.9845 0.0
C279 C 0.18444 0.85341 0.00718 0.0
C280 C 0.21481 0.81884 0.00558 0.0
C281 C 0.30732 0.72293 0.99822 0.0
C282 C 0.2747 0.75516 1.00123 0.0
H283 H 0.11529 0.89942 0.04143 0.0
H284 H 0.16798 0.84463 0.03997 0.0
H285 H 0.19284 0.80177 0.97346 0.0
H286 H 0.37705 0.68849 0.96104 0.0
H287 H 0.32706 0.74332 0.96763 0.0
C288 C 0.90708 0.90568 0.02795 0.0
C289 C 0.92621 0.91367 0.00853 0.0
C290 C 0.87438 0.87697 0.02902 0.0
C291 C 0.82919 0.78727 0.0025 0.0
H292 H 0.72966 0.81063 0.03743 0.0
C293 C 0.71722 0.66711 0.03609 0.0
C294 C 0.67252 0.676 0.03846 0.0
C295 C 0.74585 0.69558 0.02863 0.0
C296 C 0.75684 0.80371 0.02736 0.0
H297 H 0.92615 0.89744 0.97499 0.0
H298 H 0.86881 0.84685 0.97692 0.0
H299 H 0.78369 0.862 0.03182 0.0
H300 H 0.62225 0.72068 0.0334 0.0
H301 H 0.67213 0.77029 0.02031 0.0
H302 H 0.80237 0.72871 0.99825 0.0
C303 C 0.87938 0.86294 0.9913 0.0
C304 C 0.7881 0.83306 0.02435 0.0
C305 C 0.91205 0.89198 0.99019 0.0
C306 C 0.65667 0.71321 0.03214 0.0
C307 C 0.68525 0.74162 0.02465 0.0
C308 C 0.79791 0.75775 0.00559 0.0
C309 C 0.86 0.85537 0.01073 0.0
C310 C 0.82502 0.82501 0.01221 0.0
C311 C 0.73039 0.73353 0.02335 0.0
C312 C 0.76168 0.7655 0.01831 0.0
H313 H 0.91721 0.92174 0.04241 0.0
H314 H 0.86063 0.87139 0.04429 0.0
H315 H 0.85739 0.78015 0.99312 0.0
H316 H 0.73054 0.63886 0.04101 0.0
H317 H 0.78048 0.68849 0.02803 0.0
C318 C 0.91308 0.11776 0.01965 0.0
C319 C 0.92094 0.08975 0.00333 0.0
C320 C 0.88072 0.14701 0.01682 0.0
C321 C 0.81698 0.1961 0.97336 0.0
H322 H 0.74273 0.23422 0.01828 0.0
C323 C 0.66308 0.28623 0.9547 0.0
C324 C 0.66094 0.32379 0.96481 0.0
C325 C 0.69309 0.2579 0.96189 0.0
C326 C 0.76351 0.22392 0.00568 0.0
H327 H 0.89951 0.06902 0.97177 0.0
H328 H 0.84254 0.11857 0.96717 0.0
H329 H 0.79904 0.18389 0.02595 0.0
H330 H 0.68665 0.35997 0.99136 0.0
H331 H 0.73889 0.30969 0.00422 0.0
H332 H 0.78078 0.23511 0.95298 0.0
C333 C 0.86226 0.11928 0.98183 0.0
C334 C 0.79583 0.19526 0.01004 0.0
C335 C 0.89481 0.0906 0.98452 0.0
C336 C 0.68745 0.33131 0.98324 0.0
C337 C 0.71738 0.30264 0.99058 0.0
C338 C 0.78449 0.22414 0.96898 0.0
C339 C 0.85535 0.14845 0.99771 0.0
C340 C 0.82251 0.18054 0.99381 0.0
C341 C 0.72136 0.2662 0.97951 0.0
C342 C 0.75704 0.23793 0.98498 0.0
H343 H 0.93274 0.11778 0.03433 0.0
H344 H 0.87645 0.16907 0.02936 0.0
H345 H 0.83773 0.18655 0.9606 0.0
H346 H 0.64233 0.27907 0.94081 0.0
H347 H 0.69499 0.22974 0.95331 0.0
C348 C 0.6285 0.61758 0.48834 0.0
C349 C 0.61917 0.59763 0.507 0.0
C350 C 0.65872 0.64896 0.48892 0.0
C351 C 0.71195 0.72129 0.52702 0.0
H352 H 0.79447 0.73652 0.48245 0.0
C353 C 0.85899 0.82563 0.53911 0.0
C354 C 0.86655 0.85287 0.52309 0.0
C355 C 0.82927 0.79454 0.53562 0.0
C356 C 0.7713 0.73279 0.4949 0.0
H357 H 0.63547 0.59407 0.54073 0.0
H358 H 0.68851 0.64773 0.54164 0.0
H359 H 0.74149 0.68189 0.47924 0.0
H360 H 0.84987 0.86767 0.49046 0.0
H361 H 0.79806 0.81265 0.48425 0.0
H362 H 0.74215 0.77156 0.54288 0.0
C363 C 0.67172 0.64009 0.52665 0.0
C364 C 0.74091 0.70159 0.49306 0.0
C365 C 0.64144 0.60907 0.5261 0.0
C366 C 0.84492 0.84717 0.50312 0.0
C367 C 0.81524 0.81573 0.49956 0.0
C368 C 0.74241 0.75214 0.52892 0.0
C369 C 0.68034 0.66087 0.50816 0.0
C370 C 0.71127 0.69513 0.50927 0.0
C371 C 0.8065 0.7896 0.51595 0.0
C372 C 0.77281 0.75794 0.51305 0.0
H373 H 0.61187 0.60947 0.47337 0.0
H374 H 0.66436 0.66444 0.47441 0.0
H375 H 0.68888 0.71797 0.53955 0.0
H376 H 0.87597 0.8284 0.55449 0.0
H377 H 0.82397 0.77435 0.54839 0.0
C378 C 0.63226 0.3958 0.52725 0.0
C379 C 0.62284 0.41819 0.5091 0.0
C380 C 0.66233 0.3643 0.52646 0.0
C381 C 0.71399 0.29666 0.48718 0.0
H382 H 0.79531 0.27201 0.53381 0.0
C383 C 0.85781 0.19002 0.47583 0.0
C384 C 0.8636 0.15971 0.49062 0.0
C385 C 0.82928 0.22155 0.47968 0.0
C386 C 0.77249 0.27841 0.52075 0.0
H387 H 0.63919 0.42638 0.47625 0.0
H388 H 0.69214 0.37267 0.47507 0.0
H389 H 0.74405 0.32762 0.53757 0.0
H390 H 0.84502 0.13984 0.52155 0.0
H391 H 0.79549 0.19566 0.52844 0.0
H392 H 0.74287 0.24813 0.47022 0.0
C393 C 0.67541 0.37832 0.48972 0.0
C394 C 0.74307 0.31017 0.5229 0.0
C395 C 0.64521 0.40938 0.49044 0.0
C396 C 0.8415 0.16273 0.50985 0.0
C397 C 0.81309 0.19462 0.51379 0.0
C398 C 0.74353 0.26532 0.48499 0.0
C399 C 0.68375 0.35479 0.50756 0.0
C400 C 0.71385 0.32001 0.506 0.0
C401 C 0.80606 0.2239 0.49853 0.0
C402 C 0.77347 0.25613 0.50162 0.0
H403 H 0.61549 0.40186 0.54185 0.0
H404 H 0.66778 0.34671 0.54047 0.0
H405 H 0.69117 0.30253 0.47404 0.0
H406 H 0.87519 0.18932 0.46112 0.0
H407 H 0.82523 0.24413 0.46782 0.0
C408 C 0.41532 0.38983 0.49357 0.0
C409 C 0.42659 0.41629 0.51051 0.0
C410 C 0.38503 0.35918 0.49632 0.0
C411 C 0.33831 0.30171 0.5394 0.0
H412 H 0.24607 0.272 0.498 0.0
C413 C 0.19243 0.21012 0.56314 0.0
C414 C 0.18148 0.17628 0.55061 0.0
C415 C 0.22122 0.23841 0.5559 0.0
C416 C 0.27199 0.27978 0.50957 0.0
H417 H 0.41327 0.4325 0.54323 0.0
H418 H 0.36044 0.38011 0.54782 0.0
H419 H 0.29934 0.32345 0.48959 0.0
H420 H 0.19028 0.14673 0.5201 0.0
H421 H 0.24084 0.19685 0.50728 0.0
H422 H 0.31074 0.25898 0.55955 0.0
C423 C 0.37574 0.38205 0.53262 0.0
C424 C 0.30249 0.30912 0.50477 0.0
C425 C 0.40594 0.4123 0.52993 0.0
C426 C 0.19816 0.1725 0.53011 0.0
C427 C 0.22705 0.2011 0.52279 0.0
C428 C 0.30788 0.27279 0.54421 0.0
C429 C 0.36552 0.35459 0.51604 0.0
C430 C 0.33537 0.32103 0.51987 0.0
C431 C 0.23972 0.23376 0.5359 0.0
C432 C 0.27382 0.2621 0.52958 0.0
H433 H 0.43061 0.39223 0.4784 0.0
H434 H 0.37785 0.33849 0.48324 0.0
H435 H 0.36395 0.3093 0.55116 0.0
H436 H 0.17921 0.21447 0.57877 0.0
H437 H 0.22958 0.26378 0.56614 0.0
C438 C 0.39478 0.59245 0.48454 0.0
C439 C 0.42158 0.59229 0.50314 0.0
C440 C 0.36211 0.62102 0.48182 0.0
C441 C 0.29674 0.69797 0.50992 0.0
H442 H 0.27899 0.73562 0.45255 0.0
C443 C 0.1874 0.83317 0.48293 0.0
C444 C 0.16004 0.82514 0.46484 0.0
C445 C 0.21757 0.80466 0.49022 0.0
C446 C 0.28344 0.72525 0.46863 0.0
H447 H 0.43453 0.62149 0.53376 0.0
H448 H 0.37807 0.67257 0.52873 0.0
H449 H 0.3363 0.68735 0.46008 0.0
H450 H 0.14023 0.77971 0.44144 0.0
H451 H 0.19331 0.73065 0.45384 0.0
H452 H 0.24406 0.73726 0.51833 0.0
C453 C 0.38187 0.65005 0.51638 0.0
C454 C 0.31614 0.69738 0.47297 0.0
C455 C 0.41435 0.62093 0.51924 0.0
C456 C 0.16162 0.78726 0.45505 0.0
C457 C 0.19187 0.75909 0.46218 0.0
C458 C 0.26422 0.72647 0.5056 0.0
C459 C 0.35576 0.65077 0.49746 0.0
C460 C 0.32266 0.68263 0.49355 0.0
C461 C 0.22096 0.76787 0.47944 0.0
C462 C 0.25679 0.7397 0.4848 0.0
H463 H 0.39901 0.57039 0.47197 0.0
H464 H 0.34184 0.61976 0.46734 0.0
H465 H 0.3007 0.68721 0.52594 0.0
H466 H 0.18706 0.86208 0.49079 0.0
H467 H 0.23971 0.81209 0.50356 0.0
C468 C 0.05189 0.99654 0.13825 0.0
C469 C 0.02079 0.01675 0.12548 0.0
C470 C 0.05044 0.99886 0.16043 0.0
C471 C 0.00473 0.05924 0.20454 0.0
H472 H 0.02853 0.96519 0.23724 0.0
C473 C 0.01516 0.06516 0.29629 0.0
C474 C 0.99639 0.03357 0.30693 0.0
C475 C 0.02001 0.06295 0.27429 0.0
C476 C 0.02146 0.99168 0.22835 0.0
H477 H 0.96421 0.05588 0.12619 0.0
H478 H 0.96091 0.05895 0.16471 0.0
H479 H 0.03245 0.9617 0.19867 0.0
H480 H 0.96774 0.97496 0.30279 0.0
H481 H 0.97564 0.97125 0.2644 0.0
H482 H 0.99233 0.08891 0.23412 0.0
C483 C 0.98683 0.04169 0.15762 0.0
C484 C 0.02429 0.98981 0.20623 0.0
C485 C 0.98836 0.03949 0.13547 0.0
C486 C 0.98284 0.9996 0.29509 0.0
C487 C 0.98747 0.99746 0.27308 0.0
C488 C 0.00176 0.06108 0.22664 0.0
C489 C 0.01781 0.02139 0.17041 0.0
C490 C 0.01579 0.02353 0.19402 0.0
C491 C 0.00597 0.02918 0.26237 0.0
C492 C 0.00996 0.0273 0.23885 0.0
H493 H 0.07706 0.97843 0.13112 0.0
H494 H 0.07514 0.98318 0.16976 0.0
H495 H 0.99852 0.08595 0.19571 0.0
H496 H 0.02655 0.0915 0.305 0.0
H497 H 0.03514 0.08764 0.26667 0.0
C498 C 0.99159 0.96649 0.87796 0.0
C499 C 0.01824 0.99439 0.88921 0.0
C500 C 0.98969 0.96531 0.85575 0.0
C501 C 0.04876 0.9981 0.80863 0.0
H502 H 0.93672 0.97662 0.77944 0.0
C503 C 0.01985 0.01368 0.71761 0.0
C504 C 0.99562 0.98325 0.70694 0.0
C505 C 0.02349 0.01533 0.73984 0.0
C506 C 0.96833 0.98232 0.78735 0.0
H507 H 0.06362 0.04314 0.88595 0.0
H508 H 0.05987 0.04154 0.84717 0.0
H509 H 0.94132 0.97924 0.81813 0.0
H510 H 0.95732 0.93006 0.71143 0.0
H511 H 0.96313 0.93337 0.75009 0.0
H512 H 0.07551 1.00165 0.77771 0.0
C513 C 0.04106 0.01999 0.85549 0.0
C514 C 0.97103 0.98373 0.80956 0.0
C515 C 0.04317 0.02098 0.87773 0.0
C516 C 0.97543 0.9544 0.71907 0.0
C517 C 0.97884 0.95621 0.74125 0.0
C518 C 0.04598 0.99695 0.78639 0.0
C519 C 0.01417 0.99221 0.8442 0.0
C520 C 0.01132 0.99139 0.82051 0.0
C521 C 0.00279 0.98675 0.7519 0.0
C522 C 0.00577 0.98881 0.77551 0.0
H523 H 0.97252 0.94519 0.88634 0.0
H524 H 0.96933 0.94298 0.84763 0.0
H525 H 0.08046 0.00354 0.8165 0.0
H526 H 0.03534 0.0367 0.70883 0.0
H527 H 0.0418 0.03946 0.74759 0.0
C528 C 0.49041 0.54322 0.63563 0.0
C529 C 0.52246 0.52023 0.62551 0.0
C530 C 0.48889 0.54505 0.65778 0.0
C531 C 0.52536 0.4917 0.70606 0.0
H532 H 0.49494 0.59067 0.73453 0.0
C533 C 0.48385 0.50029 0.79495 0.0
C534 C 0.49791 0.53388 0.80698 0.0
C535 C 0.4885 0.49851 0.77293 0.0
C536 C 0.50394 0.56286 0.72689 0.0
H537 H 0.5781 0.48107 0.63094 0.0
H538 H 0.57622 0.48516 0.66959 0.0
H539 H 0.50121 0.5884 0.69612 0.0
H540 H 0.52902 0.59145 0.80539 0.0
H541 H 0.53766 0.5882 0.76705 0.0
H542 H 0.52909 0.4664 0.73691 0.0
C543 C 0.5518 0.50133 0.66035 0.0
C544 C 0.50695 0.56143 0.70479 0.0
C545 C 0.55323 0.4994 0.63817 0.0
C546 C 0.51724 0.56542 0.79652 0.0
C547 C 0.52211 0.56356 0.77453 0.0
C548 C 0.52249 0.49316 0.72819 0.0
C549 C 0.51952 0.52409 0.67045 0.0
C550 C 0.51746 0.52579 0.69406 0.0
C551 C 0.50754 0.53019 0.76242 0.0
C552 C 0.51155 0.52873 0.73889 0.0
H553 H 0.46652 0.56008 0.62643 0.0
H554 H 0.46324 0.5625 0.66496 0.0
H555 H 0.53308 0.46363 0.69834 0.0
H556 H 0.46833 0.47571 0.8025 0.0
H557 H 0.47627 0.47261 0.7641 0.0
C558 C 0.49085 0.4691 0.37779 0.0
C559 C 0.51798 0.49628 0.3893 0.0
C560 C 0.4892 0.46849 0.35557 0.0
C561 C 0.54984 0.50104 0.30893 0.0
H562 H 0.43772 0.48272 0.2792 0.0
C563 C 0.52339 0.51814 0.21785 0.0
C564 C 0.49822 0.48854 0.20701 0.0
C565 C 0.52665 0.51956 0.24008 0.0
C566 C 0.46935 0.48754 0.28727 0.0
H567 H 0.56437 0.54441 0.38649 0.0
H568 H 0.56113 0.54372 0.34773 0.0
H569 H 0.44169 0.48449 0.3179 0.0
H570 H 0.45789 0.43648 0.21121 0.0
H571 H 0.46311 0.43934 0.24987 0.0
H572 H 0.57729 0.50446 0.27816 0.0
C573 C 0.54174 0.52231 0.35585 0.0
C574 C 0.47168 0.48846 0.30947 0.0
C575 C 0.54357 0.52276 0.37808 0.0
C576 C 0.47675 0.46023 0.21898 0.0
C577 C 0.47981 0.46179 0.24117 0.0
C578 C 0.54745 0.50034 0.28669 0.0
C579 C 0.51444 0.49523 0.3443 0.0
C580 C 0.51199 0.49497 0.32061 0.0
C581 C 0.50464 0.49154 0.25199 0.0
C582 C 0.50721 0.49332 0.27561 0.0
H583 H 0.47125 0.44791 0.38596 0.0
H584 H 0.46846 0.44671 0.34724 0.0
H585 H 0.58155 0.5056 0.31695 0.0
H586 H 0.53994 0.5407 0.20917 0.0
H587 H 0.54569 0.54308 0.24797 0.0
loop_
_geom_bond_atom_site_label_1
_geom_bond_atom_site_label_2
_geom_bond_distance
_geom_bond_site_symmetry_2
_ccdc_geom_bond_type
C0 O16 1.251 . S
C0 O18 1.254 1_554 S
N1 C2 1.333 1_445 S
N1 C6 1.307 . S
N1 Zn7 2.020 . S
C2 N1 1.333 1_665 S
C2 C3 1.379 . S
C2 H20 0.952 . S
C3 C2 1.379 . S
C3 C4 1.390 1_665 S
C3 H30 0.949 . S
C4 C3 1.390 1_445 S
C4 C5 1.357 . S
C5 C4 1.357 . S
C5 C6 1.370 . S
C5 H31 0.950 . S
C6 N1 1.307 . S
C6 C5 1.370 . S
C6 H24 0.948 . S
Zn7 N1 2.020 . S
Zn7 O16 2.039 1_445 S
Zn7 O22 2.034 1_455 S
Zn7 O26 2.025 . S
Zn7 O28 2.024 1_545 S
C8 O27 1.246 1_554 S
C8 O28 1.249 . S
N9 C10 1.307 1_445 S
N9 C11 1.333 . S
N9 Zn15 2.020 . S
C10 N9 1.307 1_665 S
C10 C14 1.370 . S
C10 H21 0.948 . S
C11 N9 1.333 . S
C11 C12 1.379 . S
C11 H19 0.952 . S
C12 C11 1.379 . S
C12 C13 1.390 . S
C12 H32 0.949 . S
C13 C12 1.390 . S
C13 C14 1.357 1_445 S
C14 C10 1.370 . S
C14 C13 1.357 1_665 S
C14 H33 0.950 . S
Zn15 N9 2.020 . S
Zn15 O18 2.025 1_445 S
Zn15 O23 2.024 1_455 S
Zn15 O25 2.039 . S
Zn15 O27 2.034 1_545 S
O16 C0 1.251 . S
O16 Zn7 2.039 1_665 S
C17 O22 1.246 . S
C17 O23 1.249 1_554 S
O18 C0 1.254 1_556 S
O18 Zn15 2.025 1_665 S
H19 C11 0.952 . S
H20 C2 0.952 . S
H21 C10 0.948 . S
O22 Zn7 2.034 1_655 S
O22 C17 1.246 . S
O23 Zn15 2.024 1_655 S
O23 C17 1.249 1_556 S
H24 C6 0.948 . S
O25 Zn15 2.039 . S
O25 C29 1.251 1_556 S
O26 Zn7 2.025 . S
O26 C29 1.254 . S
O27 C8 1.246 1_556 S
O27 Zn15 2.034 1_565 S
O28 Zn7 2.024 1_565 S
O28 C8 1.249 . S
C29 O25 1.251 1_554 S
C29 O26 1.254 . S
H30 C3 0.949 . S
H31 C5 0.950 . S
H32 C12 0.949 . S
H33 C14 0.950 . S
C34 O50 1.251 . S
C34 O52 1.254 . S
N35 C36 1.333 . S
N35 C40 1.307 . S
N35 Zn41 2.020 . S
C36 N35 1.333 . S
C36 C37 1.379 . S
C36 H54 0.952 . S
C37 C36 1.379 . S
C37 C38 1.390 . S
C37 H64 0.949 . S
C38 C37 1.390 . S
C38 C39 1.357 . S
C39 C38 1.357 . S
C39 C40 1.370 . S
C39 H65 0.950 . S
C40 N35 1.307 . S
C40 C39 1.370 . S
C40 H58 0.948 . S
Zn41 N35 2.020 . S
Zn41 O50 2.039 . S
Zn41 O56 2.034 . S
Zn41 O60 2.025 . S
Zn41 O62 2.024 . S
C42 O61 1.246 . S
C42 O62 1.249 . S
N43 C44 1.307 . S
N43 C45 1.333 . S
N43 Zn49 2.020 . S
C44 N43 1.307 . S
C44 C48 1.370 . S
C44 H55 0.948 . S
C45 N43 1.333 . S
C45 C46 1.379 . S
C45 H53 0.952 . S
C46 C45 1.379 . S
C46 C47 1.390 . S
C46 H66 0.949 . S
C47 C46 1.390 . S
C47 C48 1.357 . S
C48 C44 1.370 . S
C48 C47 1.357 . S
C48 H67 0.950 . S
Zn49 N43 2.020 . S
Zn49 O52 2.025 . S
Zn49 O57 2.024 . S
Zn49 O59 2.039 . S
Zn49 O61 2.034 . S
O50 C34 1.251 . S
O50 Zn41 2.039 . S
C51 O56 1.246 . S
C51 O57 1.249 . S
O52 C34 1.254 . S
O52 Zn49 2.025 . S
H53 C45 0.952 . S
H54 C36 0.952 . S
H55 C44 0.948 . S
O56 Zn41 2.034 . S
O56 C51 1.246 . S
O57 Zn49 2.024 . S
O57 C51 1.249 . S
H58 C40 0.948 . S
O59 Zn49 2.039 . S
O59 C63 1.251 . S
O60 Zn41 2.025 . S
O60 C63 1.254 . S
O61 C42 1.246 . S
O61 Zn49 2.034 . S
O62 Zn41 2.024 . S
O62 C42 1.249 . S
C63 O59 1.251 . S
C63 O60 1.254 . S
H64 C37 0.949 . S
H65 C39 0.950 . S
H66 C46 0.949 . S
H67 C48 0.950 . S
C68 C69 1.264 . S
C68 C73 1.479 . S
C68 C78 1.465 . S
C69 C68 1.264 . S
C69 C71 1.339 . S
C69 H96 0.931 . S
C70 C71 1.395 . S
C70 C72 1.320 . S
C71 C69 1.339 . S
C71 C70 1.395 . S
C71 H97 0.929 . S
C72 C70 1.320 . S
C72 C73 1.405 . S
C72 H98 0.930 . S
C73 C68 1.479 . S
C73 C72 1.405 . S
C73 H99 0.931 . S
U74 O75 2.454 1_545 S
U74 O76 2.458 1_545 S
U74 C77 2.984 1_545 S
U74 C78 2.847 1_455 S
U74 C91 2.882 . S
U74 O92 2.441 1_455 S
U74 O93 2.420 1_455 S
U74 O94 2.455 1_545 S
U74 O95 2.449 . S
O75 U74 2.454 1_565 S
O75 C77 1.353 . S
O76 U74 2.458 1_565 S
O76 C77 1.286 . S
C77 U74 2.984 1_565 S
C77 O75 1.353 . S
C77 O76 1.286 . S
C77 C79 1.363 . S
C78 C68 1.465 . S
C78 U74 2.847 1_655 S
C78 O92 1.249 . S
C78 O93 1.202 . S
C79 C77 1.363 . S
C79 C81 1.408 . S
C79 C84 1.342 . S
C80 C81 1.310 . S
C80 C83 1.461 . S
C80 H100 0.932 . S
C81 C79 1.408 . S
C81 C80 1.310 . S
C81 H101 0.930 . S
C82 C83 1.474 . S
C82 C84 1.285 . S
C82 H102 0.929 . S
C83 C80 1.461 . S
C83 C82 1.474 . S
C84 C79 1.342 . S
C84 C82 1.285 . S
C84 H103 0.930 . S
C85 C88 1.424 1_455 S
C85 C90 1.245 1_545 S
C85 C91 1.428 . S
C86 C89 1.260 1_565 S
C86 C90 1.477 . S
C86 H104 0.932 . S
C87 C88 1.384 . S
C87 C89 1.479 1_655 S
C87 H105 0.929 . S
C88 C85 1.424 1_655 S
C88 C87 1.384 . S
C88 H106 0.928 . S
C89 C86 1.260 1_545 S
C89 C87 1.479 1_455 S
C90 C85 1.245 1_565 S
C90 C86 1.477 . S
C90 H107 0.932 . S
C91 U74 2.882 . S
C91 C85 1.428 . S
C91 O94 1.301 1_545 S
C91 O95 1.282 . S
O92 U74 2.441 1_655 S
O92 C78 1.249 . S
O93 U74 2.420 1_655 S
O93 C78 1.202 . S
O94 U74 2.455 1_565 S
O94 C91 1.301 1_565 S
O95 U74 2.449 . S
O95 C91 1.282 . S
H96 C69 0.931 . S
H97 C71 0.929 . S
H98 C72 0.930 . S
H99 C73 0.931 . S
H100 C80 0.932 . S
H101 C81 0.930 . S
H102 C82 0.929 . S
H103 C84 0.930 . S
H104 C86 0.932 . S
H105 C87 0.929 . S
H106 C88 0.928 . S
H107 C90 0.932 . S
C108 C109 1.264 . S
C108 C113 1.479 . S
C108 C118 1.465 . S
C109 C108 1.264 . S
C109 C111 1.339 . S
C109 H136 0.931 . S
C110 C111 1.395 . S
C110 C112 1.320 . S
C111 C109 1.339 . S
C111 C110 1.395 . S
C111 H137 0.929 . S
C112 C110 1.320 . S
C112 C113 1.405 . S
C112 H138 0.930 . S
C113 C108 1.479 . S
C113 C112 1.405 . S
C113 H139 0.931 . S
U114 O115 2.454 1_565 S
U114 O116 2.458 1_565 S
U114 C117 2.984 1_565 S
U114 C118 2.847 1_455 S
U114 C131 2.882 . S
U114 O132 2.441 . S
U114 O133 2.420 1_455 S
U114 O134 2.455 1_565 S
U114 O135 2.449 . S
O115 U114 2.454 1_545 S
O115 C117 1.353 . S
O116 U114 2.458 1_545 S
O116 C117 1.286 . S
C117 U114 2.984 1_545 S
C117 O115 1.353 . S
C117 O116 1.286 . S
C117 C119 1.363 . S
C118 C108 1.465 . S
C118 U114 2.847 1_655 S
C118 O132 1.249 1_655 S
C118 O133 1.202 . S
C119 C117 1.363 . S
C119 C121 1.408 . S
C119 C124 1.342 . S
C120 C121 1.310 . S
C120 C123 1.461 . S
C120 H140 0.932 . S
C121 C119 1.408 . S
C121 C120 1.310 . S
C121 H141 0.930 . S
C122 C123 1.474 . S
C122 C124 1.285 . S
C122 H142 0.929 . S
C123 C120 1.461 . S
C123 C122 1.474 . S
C124 C119 1.342 . S
C124 C122 1.285 . S
C124 H143 0.930 . S
C125 C128 1.424 . S
C125 C130 1.245 1_565 S
C125 C131 1.428 . S
C126 C129 1.260 . S
C126 C130 1.477 . S
C126 H144 0.932 . S
C127 C128 1.384 . S
C127 C129 1.479 1_565 S
C127 H145 0.929 1_455 S
C128 C125 1.424 . S
C128 C127 1.384 . S
C128 H146 0.928 1_455 S
C129 C126 1.260 . S
C129 C127 1.479 1_545 S
C130 C125 1.245 1_545 S
C130 C126 1.477 . S
C130 H147 0.932 . S
C131 U114 2.882 . S
C131 C125 1.428 . S
C131 O134 1.301 1_565 S
C131 O135 1.282 . S
O132 U114 2.441 . S
O132 C118 1.249 1_455 S
O133 U114 2.420 1_655 S
O133 C118 1.202 . S
O134 U114 2.455 1_545 S
O134 C131 1.301 1_545 S
O135 U114 2.449 . S
O135 C131 1.282 . S
H136 C109 0.931 . S
H137 C111 0.929 . S
H138 C112 0.930 . S
H139 C113 0.931 . S
H140 C120 0.932 . S
H141 C121 0.930 . S
H142 C122 0.929 . S
H143 C124 0.930 . S
H144 C126 0.932 . S
H145 C127 0.929 1_655 S
H146 C128 0.928 1_655 S
H147 C130 0.932 . S
C148 C149 1.264 . S
C148 C153 1.479 . S
C148 C158 1.465 . S
C149 C148 1.264 . S
C149 C151 1.339 . S
C149 H176 0.931 . S
C150 C151 1.395 . S
C150 C152 1.320 1_556 S
C151 C149 1.339 . S
C151 C150 1.395 . S
C151 H177 0.929 . S
C152 C150 1.320 1_554 S
C152 C153 1.405 1_554 S
C152 H178 0.930 . S
C153 C148 1.479 . S
C153 C152 1.405 1_556 S
C153 H179 0.931 1_556 S
U154 O155 2.454 . S
U154 O156 2.458 . S
U154 C157 2.984 . S
U154 C158 2.847 . S
U154 C171 2.882 . S
U154 O172 2.441 . S
U154 O173 2.420 . S
U154 O174 2.455 . S
U154 O175 2.449 . S
O155 U154 2.454 . S
O155 C157 1.353 . S
O156 U154 2.458 . S
O156 C157 1.286 . S
C157 U154 2.984 . S
C157 O155 1.353 . S
C157 O156 1.286 . S
C157 C159 1.363 . S
C158 C148 1.465 . S
C158 U154 2.847 . S
C158 O172 1.249 . S
C158 O173 1.202 . S
C159 C157 1.363 . S
C159 C161 1.408 . S
C159 C164 1.342 . S
C160 C161 1.310 1_554 S
C160 C163 1.461 1_554 S
C160 H180 0.932 . S
C161 C159 1.408 . S
C161 C160 1.310 1_556 S
C161 H181 0.930 1_556 S
C162 C163 1.474 . S
C162 C164 1.285 . S
C162 H182 0.929 . S
C163 C160 1.461 1_556 S
C163 C162 1.474 . S
C164 C159 1.342 . S
C164 C162 1.285 . S
C164 H183 0.930 . S
C165 C168 1.424 . S
C165 C170 1.245 . S
C165 C171 1.428 . S
C166 C169 1.260 . S
C166 C170 1.477 . S
C166 H184 0.932 . S
C167 C168 1.384 . S
C167 C169 1.479 . S
C167 H185 0.929 . S
C168 C165 1.424 . S
C168 C167 1.384 . S
C168 H186 0.928 . S
C169 C166 1.260 . S
C169 C167 1.479 . S
C170 C165 1.245 . S
C170 C166 1.477 . S
C170 H187 0.932 . S
C171 U154 2.882 . S
C171 C165 1.428 . S
C171 O174 1.301 . S
C171 O175 1.282 . S
O172 U154 2.441 . S
O172 C158 1.249 . S
O173 U154 2.420 . S
O173 C158 1.202 . S
O174 U154 2.455 . S
O174 C171 1.301 . S
O175 U154 2.449 . S
O175 C171 1.282 . S
H176 C149 0.931 . S
H177 C151 0.929 . S
H178 C152 0.930 . S
H179 C153 0.931 1_554 S
H180 C160 0.932 . S
H181 C161 0.930 1_554 S
H182 C162 0.929 . S
H183 C164 0.930 . S
H184 C166 0.932 . S
H185 C167 0.929 . S
H186 C168 0.928 . S
H187 C170 0.932 . S
C188 C189 1.264 . S
C188 C193 1.479 . S
C188 C198 1.465 . S
C189 C188 1.264 . S
C189 C191 1.339 . S
C189 H216 0.931 . S
C190 C191 1.395 . S
C190 C192 1.320 . S
C191 C189 1.339 . S
C191 C190 1.395 . S
C191 H217 0.929 . S
C192 C190 1.320 . S
C192 C193 1.405 . S
C192 H218 0.930 1_554 S
C193 C188 1.479 . S
C193 C192 1.405 . S
C193 H219 0.931 . S
U194 O195 2.454 . S
U194 O196 2.458 . S
U194 C197 2.984 . S
U194 C198 2.847 . S
U194 C211 2.882 . S
U194 O212 2.441 . S
U194 O213 2.420 . S
U194 O214 2.455 . S
U194 O215 2.449 . S
O195 U194 2.454 . S
O195 C197 1.353 . S
O196 U194 2.458 . S
O196 C197 1.286 . S
C197 U194 2.984 . S
C197 O195 1.353 . S
C197 O196 1.286 . S
C197 C199 1.363 . S
C198 C188 1.465 . S
C198 U194 2.847 . S
C198 O212 1.249 . S
C198 O213 1.202 . S
C199 C197 1.363 . S
C199 C201 1.408 . S
C199 C204 1.342 . S
C200 C201 1.310 . S
C200 C203 1.461 . S
C200 H220 0.932 1_554 S
C201 C199 1.408 . S
C201 C200 1.310 . S
C201 H221 0.930 . S
C202 C203 1.474 . S
C202 C204 1.285 . S
C202 H222 0.929 . S
C203 C200 1.461 . S
C203 C202 1.474 . S
C204 C199 1.342 . S
C204 C202 1.285 . S
C204 H223 0.930 . S
C205 C208 1.424 . S
C205 C210 1.245 . S
C205 C211 1.428 . S
C206 C209 1.260 . S
C206 C210 1.477 . S
C206 H224 0.932 . S
C207 C208 1.384 . S
C207 C209 1.479 . S
C207 H225 0.929 . S
C208 C205 1.424 . S
C208 C207 1.384 . S
C208 H226 0.928 . S
C209 C206 1.260 . S
C209 C207 1.479 . S
C210 C205 1.245 . S
C210 C206 1.477 . S
C210 H227 0.932 . S
C211 U194 2.882 . S
C211 C205 1.428 . S
C211 O214 1.301 . S
C211 O215 1.282 . S
O212 U194 2.441 . S
O212 C198 1.249 . S
O213 U194 2.420 . S
O213 C198 1.202 . S
O214 U194 2.455 . S
O214 C211 1.301 . S
O215 U194 2.449 . S
O215 C211 1.282 . S
H216 C189 0.931 . S
H217 C191 0.929 . S
H218 C192 0.930 1_556 S
H219 C193 0.931 . S
H220 C200 0.932 1_556 S
H221 C201 0.930 . S
H222 C202 0.929 . S
H223 C204 0.930 . S
H224 C206 0.932 . S
H225 C207 0.929 . S
H226 C208 0.928 . S
H227 C210 0.932 . S
C228 C229 1.349 . S
C228 C230 1.327 . S
C228 H253 0.950 . S
C229 C228 1.349 . S
C229 C245 1.349 1_554 S
C230 C228 1.327 . S
C230 C249 1.429 . S
C230 H254 0.950 . S
C231 C248 1.574 . S
C231 C250 1.368 1_556 S
C231 H255 0.949 . S
H232 C236 0.949 . S
C233 C234 1.349 1_556 S
C233 C235 1.327 . S
C233 H256 0.950 . S
C234 C233 1.349 1_554 S
C234 C246 1.349 . S
C235 C233 1.327 . S
C235 C251 1.429 1_556 S
C235 H257 0.950 . S
C236 H232 0.949 . S
C236 C244 1.574 . S
C236 C252 1.368 . S
H237 C245 0.950 . S
H238 C243 0.950 . S
H239 C244 0.949 . S
H240 C246 0.950 . S
H241 C247 0.950 . S
H242 C248 0.949 . S
C243 H238 0.950 . S
C243 C245 1.327 . S
C243 C249 1.429 1_556 S
C244 C236 1.574 . S
C244 H239 0.949 . S
C244 C250 1.368 . S
C245 C229 1.349 1_556 S
C245 H237 0.950 . S
C245 C243 1.327 . S
C246 C234 1.349 . S
C246 H240 0.950 . S
C246 C247 1.327 . S
C247 H241 0.950 . S
C247 C246 1.327 . S
C247 C251 1.429 . S
C248 C231 1.574 . S
C248 H242 0.949 . S
C248 C252 1.368 1_556 S
C249 C230 1.429 . S
C249 C243 1.429 1_554 S
C249 C250 1.523 . S
C250 C231 1.368 1_554 S
C250 C244 1.368 . S
C250 C249 1.523 . S
C251 C235 1.429 1_554 S
C251 C247 1.429 . S
C251 C252 1.523 . S
C252 C236 1.368 . S
C252 C248 1.368 1_554 S
C252 C251 1.523 . S
H253 C228 0.950 . S
H254 C230 0.950 . S
H255 C231 0.949 . S
H256 C233 0.950 . S
H257 C235 0.950 . S
C258 C259 1.349 . S
C258 C260 1.327 . S
C258 H283 0.950 . S
C259 C258 1.349 . S
C259 C275 1.349 1_554 S
C260 C258 1.327 . S
C260 C279 1.429 . S
C260 H284 0.950 . S
C261 C278 1.574 . S
C261 C280 1.368 1_556 S
C261 H285 0.949 . S
H262 C266 0.949 . S
C263 C264 1.349 . S
C263 C265 1.327 . S
C263 H286 0.950 . S
C264 C263 1.349 . S
C264 C276 1.349 1_556 S
C265 C263 1.327 . S
C265 C281 1.429 . S
C265 H287 0.950 . S
C266 H262 0.949 . S
C266 C274 1.574 . S
C266 C282 1.338 1_554 S
H267 C275 0.950 . S
H268 C273 0.950 . S
H269 C274 0.949 . S
H270 C276 0.950 . S
H271 C277 0.950 . S
H272 C278 0.949 . S
C273 H268 0.950 . S
C273 C275 1.327 . S
C273 C279 1.429 1_556 S
C274 C266 1.574 . S
C274 H269 0.949 . S
C274 C280 1.368 . S
C275 C259 1.349 1_556 S
C275 H267 0.950 . S
C275 C273 1.327 . S
C276 C264 1.349 1_554 S
C276 H270 0.950 . S
C276 C277 1.327 . S
C277 H271 0.950 . S
C277 C276 1.327 . S
C277 C281 1.429 1_554 S
C278 C261 1.574 . S
C278 H272 0.949 . S
C278 C282 1.398 . S
C279 C260 1.429 . S
C279 C273 1.429 1_554 S
C279 C280 1.523 . S
C280 C261 1.368 1_554 S
C280 C274 1.368 . S
C280 C279 1.523 . S
C281 C265 1.429 . S
C281 C277 1.429 1_556 S
C281 C282 1.525 . S
C282 C266 1.338 1_556 S
C282 C278 1.398 . S
C282 C281 1.525 . S
H283 C258 0.950 . S
H284 C260 0.950 . S
H285 C261 0.949 . S
H286 C263 0.950 . S
H287 C265 0.950 . S
C288 C289 1.349 . S
C288 C290 1.327 . S
C288 H313 0.950 . S
C289 C288 1.349 . S
C289 C305 1.340 1_554 S
C290 C288 1.327 . S
C290 C309 1.429 . S
C290 H314 0.950 . S
C291 C308 1.574 . S
C291 C310 1.368 . S
C291 H315 0.949 1_554 S
H292 C296 0.949 . S
C293 C294 1.349 . S
C293 C295 1.327 . S
C293 H316 0.950 . S
C294 C293 1.349 . S
C294 C306 1.349 . S
C295 C293 1.327 . S
C295 C311 1.429 . S
C295 H317 0.947 1_554 S
C296 H292 0.949 . S
C296 C304 1.574 . S
C296 C312 1.368 . S
H297 C305 0.962 . S
H298 C303 0.949 1_556 S
H299 C304 0.949 . S
H300 C306 0.950 . S
H301 C307 0.950 . S
H302 C308 0.949 1_556 S
C303 H298 0.949 1_554 S
C303 C305 1.325 1_554 S
C303 C309 1.429 . S
C304 C296 1.574 . S
C304 H299 0.949 . S
C304 C310 1.368 . S
C305 C289 1.340 1_556 S
C305 H297 0.962 . S
C305 C303 1.325 1_556 S
C306 C294 1.349 . S
C306 H300 0.950 . S
C306 C307 1.327 . S
C307 H301 0.950 . S
C307 C306 1.327 . S
C307 C311 1.429 . S
C308 C291 1.574 . S
C308 H302 0.949 1_554 S
C308 C312 1.368 . S
C309 C290 1.429 . S
C309 C303 1.429 . S
C309 C310 1.523 . S
C310 C291 1.368 . S
C310 C304 1.368 . S
C310 C309 1.523 . S
C311 C295 1.429 . S
C311 C307 1.429 . S
C311 C312 1.523 . S
C312 C296 1.368 . S
C312 C308 1.368 . S
C312 C311 1.523 . S
H313 C288 0.950 . S
H314 C290 0.950 . S
H315 C291 0.949 1_556 S
H316 C293 0.950 . S
H317 C295 0.947 1_556 S
C318 C319 1.349 . S
C318 C320 1.327 . S
C318 H343 0.950 . S
C319 C318 1.349 . S
C319 C335 1.349 1_554 S
C320 C318 1.327 . S
C320 C339 1.429 . S
C320 H344 0.950 . S
C321 C338 1.574 . S
C321 C340 1.368 1_556 S
C321 H345 0.949 . S
H322 C326 0.949 . S
C323 C324 1.349 . S
C323 C325 1.327 . S
C323 H346 0.950 . S
C324 C323 1.349 . S
C324 C336 1.349 1_556 S
C325 C323 1.327 . S
C325 C341 1.422 1_556 S
C325 H347 0.950 . S
C326 H322 0.949 . S
C326 C334 1.574 . S
C326 C342 1.368 . S
H327 C335 0.950 . S
H328 C333 0.950 . S
H329 C334 0.949 . S
H330 C336 0.950 . S
H331 C337 0.950 . S
H332 C338 0.949 . S
C333 H328 0.950 . S
C333 C335 1.327 . S
C333 C339 1.429 1_556 S
C334 C326 1.574 . S
C334 H329 0.949 . S
C334 C340 1.368 . S
C335 C319 1.349 1_556 S
C335 H327 0.950 . S
C335 C333 1.327 . S
C336 C324 1.349 1_554 S
C336 H330 0.950 . S
C336 C337 1.327 . S
C337 H331 0.950 . S
C337 C336 1.327 . S
C337 C341 1.435 . S
C338 C321 1.574 . S
C338 H332 0.949 . S
C338 C342 1.368 1_556 S
C339 C320 1.429 . S
C339 C333 1.429 1_554 S
C339 C340 1.523 . S
C340 C321 1.368 1_554 S
C340 C334 1.368 . S
C340 C339 1.523 . S
C341 C325 1.422 1_554 S
C341 C337 1.435 . S
C341 C342 1.523 . S
C342 C326 1.368 . S
C342 C338 1.368 1_554 S
C342 C341 1.523 . S
H343 C318 0.950 . S
H344 C320 0.950 . S
H345 C321 0.949 . S
H346 C323 0.950 . S
H347 C325 0.950 . S
C348 C349 1.349 . S
C348 C350 1.327 . S
C348 H373 0.950 . S
C349 C348 1.349 . S
C349 C365 1.349 . S
C350 C348 1.327 . S
C350 C369 1.429 . S
C350 H374 0.950 . S
C351 C368 1.574 . S
C351 C370 1.368 . S
C351 H375 0.949 . S
H352 C356 0.949 . S
C353 C354 1.349 . S
C353 C355 1.327 . S
C353 H376 0.950 . S
C354 C353 1.349 . S
C354 C366 1.349 . S
C355 C353 1.327 . S
C355 C371 1.429 . S
C355 H377 0.950 . S
C356 H352 0.949 . S
C356 C364 1.574 . S
C356 C372 1.368 . S
H357 C365 0.950 . S
H358 C363 0.950 . S
H359 C364 0.949 . S
H360 C366 0.950 . S
H361 C367 0.950 . S
H362 C368 0.949 . S
C363 H358 0.950 . S
C363 C365 1.327 . S
C363 C369 1.429 . S
C364 C356 1.574 . S
C364 H359 0.949 . S
C364 C370 1.368 . S
C365 C349 1.349 . S
C365 H357 0.950 . S
C365 C363 1.327 . S
C366 C354 1.349 . S
C366 H360 0.950 . S
C366 C367 1.327 . S
C367 H361 0.950 . S
C367 C366 1.327 . S
C367 C371 1.429 . S
C368 C351 1.574 . S
C368 H362 0.949 . S
C368 C372 1.368 . S
C369 C350 1.429 . S
C369 C363 1.429 . S
C369 C370 1.523 . S
C370 C351 1.368 . S
C370 C364 1.368 . S
C370 C369 1.523 . S
C371 C355 1.429 . S
C371 C367 1.429 . S
C371 C372 1.523 . S
C372 C356 1.368 . S
C372 C368 1.368 . S
C372 C371 1.523 . S
H373 C348 0.950 . S
H374 C350 0.950 . S
H375 C351 0.949 . S
H376 C353 0.950 . S
H377 C355 0.950 . S
C378 C379 1.349 . S
C378 C380 1.327 . S
C378 H403 0.950 . S
C379 C378 1.349 . S
C379 C395 1.349 . S
C380 C378 1.327 . S
C380 C399 1.429 . S
C380 H404 0.950 . S
C381 C398 1.574 . S
C381 C400 1.368 . S
C381 H405 0.949 . S
H382 C386 0.949 . S
C383 C384 1.349 . S
C383 C385 1.327 . S
C383 H406 0.950 . S
C384 C383 1.349 . S
C384 C396 1.349 . S
C385 C383 1.327 . S
C385 C401 1.429 . S
C385 H407 0.950 . S
C386 H382 0.949 . S
C386 C394 1.574 . S
C386 C402 1.368 . S
H387 C395 0.950 . S
H388 C393 0.950 . S
H389 C394 0.949 . S
H390 C396 0.950 . S
H391 C397 0.950 . S
H392 C398 0.949 . S
C393 H388 0.950 . S
C393 C395 1.327 . S
C393 C399 1.429 . S
C394 C386 1.574 . S
C394 H389 0.949 . S
C394 C400 1.368 . S
C395 C379 1.349 . S
C395 H387 0.950 . S
C395 C393 1.327 . S
C396 C384 1.349 . S
C396 H390 0.950 . S
C396 C397 1.327 . S
C397 H391 0.950 . S
C397 C396 1.327 . S
C397 C401 1.429 . S
C398 C381 1.574 . S
C398 H392 0.949 . S
C398 C402 1.368 . S
C399 C380 1.429 . S
C399 C393 1.429 . S
C399 C400 1.523 . S
C400 C381 1.368 . S
C400 C394 1.368 . S
C400 C399 1.523 . S
C401 C385 1.429 . S
C401 C397 1.429 . S
C401 C402 1.523 . S
C402 C386 1.368 . S
C402 C398 1.368 . S
C402 C401 1.523 . S
H403 C378 0.950 . S
H404 C380 0.950 . S
H405 C381 0.949 . S
H406 C383 0.950 . S
H407 C385 0.950 . S
C408 C409 1.349 . S
C408 C410 1.327 . S
C408 H433 0.950 . S
C409 C408 1.349 . S
C409 C425 1.349 . S
C410 C408 1.327 . S
C410 C429 1.429 . S
C410 H434 0.950 . S
C411 C428 1.574 . S
C411 C430 1.368 . S
C411 H435 0.949 . S
H412 C416 0.949 . S
C413 C414 1.349 . S
C413 C415 1.327 . S
C413 H436 0.950 . S
C414 C413 1.349 . S
C414 C426 1.349 . S
C415 C413 1.327 . S
C415 C431 1.429 . S
C415 H437 0.950 . S
C416 H412 0.949 . S
C416 C424 1.574 . S
C416 C432 1.368 . S
H417 C425 0.950 . S
H418 C423 0.950 . S
H419 C424 0.949 . S
H420 C426 0.950 . S
H421 C427 0.950 . S
H422 C428 0.949 . S
C423 H418 0.950 . S
C423 C425 1.327 . S
C423 C429 1.429 . S
C424 C416 1.574 . S
C424 H419 0.949 . S
C424 C430 1.368 . S
C425 C409 1.349 . S
C425 H417 0.950 . S
C425 C423 1.327 . S
C426 C414 1.349 . S
C426 H420 0.950 . S
C426 C427 1.327 . S
C427 H421 0.950 . S
C427 C426 1.327 . S
C427 C431 1.429 . S
C428 C411 1.574 . S
C428 H422 0.949 . S
C428 C432 1.368 . S
C429 C410 1.429 . S
C429 C423 1.429 . S
C429 C430 1.523 . S
C430 C411 1.368 . S
C430 C424 1.368 . S
C430 C429 1.523 . S
C431 C415 1.429 . S
C431 C427 1.429 . S
C431 C432 1.523 . S
C432 C416 1.368 . S
C432 C428 1.368 . S
C432 C431 1.523 . S
H433 C408 0.950 . S
H434 C410 0.950 . S
H435 C411 0.949 . S
H436 C413 0.950 . S
H437 C415 0.950 . S
C438 C439 1.349 . S
C438 C440 1.327 . S
C438 H463 0.950 . S
C439 C438 1.349 . S
C439 C455 1.349 . S
C440 C438 1.327 . S
C440 C459 1.429 . S
C440 H464 0.950 . S
C441 C458 1.574 . S
C441 C460 1.368 . S
C441 H465 0.949 . S
H442 C446 0.949 . S
C443 C444 1.349 . S
C443 C445 1.327 . S
C443 H466 0.950 . S
C444 C443 1.349 . S
C444 C456 1.349 . S
C445 C443 1.327 . S
C445 C461 1.429 . S
C445 H467 0.950 . S
C446 H442 0.949 . S
C446 C454 1.574 . S
C446 C462 1.368 . S
H447 C455 0.950 . S
H448 C453 0.950 . S
H449 C454 0.949 . S
H450 C456 0.950 . S
H451 C457 0.950 . S
H452 C458 0.949 . S
C453 H448 0.950 . S
C453 C455 1.327 . S
C453 C459 1.429 . S
C454 C446 1.574 . S
C454 H449 0.949 . S
C454 C460 1.368 . S
C455 C439 1.349 . S
C455 H447 0.950 . S
C455 C453 1.327 . S
C456 C444 1.349 . S
C456 H450 0.950 . S
C456 C457 1.327 . S
C457 H451 0.950 . S
C457 C456 1.327 . S
C457 C461 1.429 . S
C458 C441 1.574 . S
C458 H452 0.949 . S
C458 C462 1.368 . S
C459 C440 1.429 . S
C459 C453 1.429 . S
C459 C460 1.523 . S
C460 C441 1.368 . S
C460 C454 1.368 . S
C460 C459 1.523 . S
C461 C445 1.429 . S
C461 C457 1.429 . S
C461 C462 1.523 . S
C462 C446 1.368 . S
C462 C458 1.368 . S
C462 C461 1.523 . S
H463 C438 0.950 . S
H464 C440 0.950 . S
H465 C441 0.949 . S
H466 C443 0.950 . S
H467 C445 0.950 . S
C468 C469 1.349 1_565 S
C468 C470 1.327 . S
C468 H493 0.950 . S
C469 C468 1.349 1_545 S
C469 C485 1.349 1_455 S
C470 C468 1.327 . S
C470 C489 1.429 1_565 S
C470 H494 0.950 . S
C471 C488 1.574 . S
C471 C490 1.368 1_655 S
C471 H495 0.949 . S
H472 C476 0.949 . S
C473 C474 1.349 . S
C473 C475 1.327 . S
C473 H496 0.950 . S
C474 C473 1.349 . S
C474 C486 1.349 1_645 S
C475 C473 1.327 . S
C475 C491 1.424 1_655 S
C475 H497 0.950 . S
C476 H472 0.949 . S
C476 C484 1.574 . S
C476 C492 1.368 1_565 S
H477 C485 0.950 . S
H478 C483 0.950 . S
H479 C484 0.949 . S
H480 C486 0.950 . S
H481 C487 0.950 . S
H482 C488 0.949 . S
C483 H478 0.950 . S
C483 C485 1.327 . S
C483 C489 1.429 1_655 S
C484 C476 1.574 . S
C484 H479 0.949 . S
C484 C490 1.368 1_565 S
C485 C469 1.349 1_655 S
C485 H477 0.950 . S
C485 C483 1.327 . S
C486 C474 1.349 1_465 S
C486 H480 0.950 . S
C486 C487 1.327 . S
C487 H481 0.950 . S
C487 C486 1.327 . S
C487 C491 1.433 1_565 S
C488 C471 1.574 . S
C488 H482 0.949 . S
C488 C492 1.368 1_655 S
C489 C470 1.429 1_545 S
C489 C483 1.429 1_455 S
C489 C490 1.523 . S
C490 C471 1.368 1_455 S
C490 C484 1.368 1_545 S
C490 C489 1.523 . S
C491 C475 1.424 1_455 S
C491 C487 1.433 1_545 S
C491 C492 1.523 . S
C492 C476 1.368 1_545 S
C492 C488 1.368 1_455 S
C492 C491 1.523 . S
H493 C468 0.950 . S
H494 C470 0.950 . S
H495 C471 0.949 . S
H496 C473 0.950 . S
H497 C475 0.950 . S
C498 C499 1.349 1_665 S
C498 C500 1.327 . S
C498 H523 0.950 . S
C499 C498 1.349 1_445 S
C499 C515 1.349 . S
C500 C498 1.327 . S
C500 C519 1.429 1_665 S
C500 H524 0.950 . S
C501 C518 1.574 . S
C501 C520 1.368 . S
C501 H525 0.949 . S
H502 C506 0.949 . S
C503 C504 1.349 . S
C503 C505 1.327 . S
C503 H526 0.950 . S
C504 C503 1.349 . S
C504 C516 1.349 1_445 S
C505 C503 1.327 . S
C505 C521 1.429 . S
C505 H527 0.950 . S
C506 H502 0.949 . S
C506 C514 1.574 . S
C506 C522 1.368 1_665 S
H507 C515 0.950 . S
H508 C513 0.950 . S
H509 C514 0.949 . S
H510 C516 0.950 . S
H511 C517 0.950 . S
H512 C518 0.949 . S
C513 H508 0.950 . S
C513 C515 1.327 . S
C513 C519 1.429 . S
C514 C506 1.574 . S
C514 H509 0.949 . S
C514 C520 1.368 1_665 S
C515 C499 1.349 . S
C515 H507 0.950 . S
C515 C513 1.327 . S
C516 C504 1.349 1_665 S
C516 H510 0.950 . S
C516 C517 1.327 . S
C517 H511 0.950 . S
C517 C516 1.327 . S
C517 C521 1.429 1_665 S
C518 C501 1.574 . S
C518 H512 0.949 . S
C518 C522 1.368 . S
C519 C500 1.429 1_445 S
C519 C513 1.429 . S
C519 C520 1.523 . S
C520 C501 1.368 . S
C520 C514 1.368 1_445 S
C520 C519 1.523 . S
C521 C505 1.429 . S
C521 C517 1.429 1_445 S
C521 C522 1.523 . S
C522 C506 1.368 1_445 S
C522 C518 1.368 . S
C522 C521 1.523 . S
H523 C498 0.950 . S
H524 C500 0.950 . S
H525 C501 0.949 . S
H526 C503 0.950 . S
H527 C505 0.950 . S
C528 C529 1.349 . S
C528 C530 1.327 . S
C528 H553 0.950 . S
C529 C528 1.349 . S
C529 C545 1.349 . S
C530 C528 1.327 . S
C530 C549 1.429 . S
C530 H554 0.950 . S
C531 C548 1.574 . S
C531 C550 1.368 . S
C531 H555 0.949 . S
H532 C536 0.949 . S
C533 C534 1.349 . S
C533 C535 1.327 . S
C533 H556 0.950 . S
C534 C533 1.349 . S
C534 C546 1.349 . S
C535 C533 1.327 . S
C535 C551 1.429 . S
C535 H557 0.950 . S
C536 H532 0.949 . S
C536 C544 1.574 . S
C536 C552 1.368 . S
H537 C545 0.950 . S
H538 C543 0.950 . S
H539 C544 0.949 . S
H540 C546 0.950 . S
H541 C547 0.950 . S
H542 C548 0.949 . S
C543 H538 0.950 . S
C543 C545 1.327 . S
C543 C549 1.429 . S
C544 C536 1.574 . S
C544 H539 0.949 . S
C544 C550 1.368 . S
C545 C529 1.349 . S
C545 H537 0.950 . S
C545 C543 1.327 . S
C546 C534 1.349 . S
C546 H540 0.950 . S
C546 C547 1.327 . S
C547 H541 0.950 . S
C547 C546 1.327 . S
C547 C551 1.429 . S
C548 C531 1.574 . S
C548 H542 0.949 . S
C548 C552 1.368 . S
C549 C530 1.429 . S
C549 C543 1.429 . S
C549 C550 1.523 . S
C550 C531 1.368 . S
C550 C544 1.368 . S
C550 C549 1.523 . S
C551 C535 1.429 . S
C551 C547 1.429 . S
C551 C552 1.523 . S
C552 C536 1.368 . S
C552 C548 1.368 . S
C552 C551 1.523 . S
H553 C528 0.950 . S
H554 C530 0.950 . S
H555 C531 0.949 . S
H556 C533 0.950 . S
H557 C535 0.950 . S
C558 C559 1.349 . S
C558 C560 1.327 . S
C558 H583 0.950 . S
C559 C558 1.349 . S
C559 C575 1.349 . S
C560 C558 1.327 . S
C560 C579 1.429 . S
C560 H584 0.950 . S
C561 C578 1.574 . S
C561 C580 1.368 . S
C561 H585 0.949 . S
H562 C566 0.949 . S
C563 C564 1.349 . S
C563 C565 1.327 . S
C563 H586 0.950 . S
C564 C563 1.349 . S
C564 C576 1.349 . S
C565 C563 1.327 . S
C565 C581 1.429 . S
C565 H587 0.950 . S
C566 H562 0.949 . S
C566 C574 1.574 . S
C566 C582 1.368 . S
H567 C575 0.950 . S
H568 C573 0.950 . S
H569 C574 0.949 . S
H570 C576 0.950 . S
H571 C577 0.950 . S
H572 C578 0.949 . S
C573 H568 0.950 . S
C573 C575 1.327 . S
C573 C579 1.429 . S
C574 C566 1.574 . S
C574 H569 0.949 . S
C574 C580 1.368 . S
C575 C559 1.349 . S
C575 H567 0.950 . S
C575 C573 1.327 . S
C576 C564 1.349 . S
C576 H570 0.950 . S
C576 C577 1.327 . S
C577 H571 0.950 . S
C577 C576 1.327 . S
C577 C581 1.429 . S
C578 C561 1.574 . S
C578 H572 0.949 . S
C578 C582 1.368 . S
C579 C560 1.429 . S
C579 C573 1.429 . S
C579 C580 1.523 . S
C580 C561 1.368 . S
C580 C574 1.368 . S
C580 C579 1.523 . S
C581 C565 1.429 . S
C581 C577 1.429 . S
C581 C582 1.523 . S
C582 C566 1.368 . S
C582 C578 1.368 . S
C582 C581 1.523 . S
H583 C558 0.950 . S
H584 C560 0.950 . S
H585 C561 0.949 . S
H586 C563 0.950 . S
H587 C565 0.950 . S
C234 C190 1.435 . S
C229 C29 1.464 . S
C259 C8 1.446 . S
C264 C150 1.417 . S
C289 C0 1.440 . S
C294 C203 1.405 . S
C319 C17 1.458 . S
C324 C163 1.421 . S
C349 C63 1.464 . S
C354 C110 1.435 . S
C379 C42 1.446 . S
C384 C70 1.417 . S
C414 C123 1.405 . S
C409 C34 1.440 . S
C444 C83 1.421 . S
C439 C51 1.459 . S
C469 C4 1.480 . S
C474 C89 1.469 1_655 S
C499 C13 1.478 . S
C504 C129 1.469 . S
C534 C169 1.469 . S
C529 C38 1.480 . S
C559 C47 1.478 . S
C564 C209 1.469 . S
