# Generated by pormake.
# Topology scu, (8,4)-cn, num edge types: 1
# Building blocks:
#     Node 0, Type 0, BuildingBlock: TAGTUT_clean_sbu_3, # of connection points: 8
#     Node 1, Type 1, BuildingBlock: NAWXER_clean_sbu_0, # of connection points: 4
#     Node 2, Type 1, BuildingBlock: NAWXER_clean_sbu_0, # of connection points: 4
#     Edge 3, Type (0, 1), BuildingBlock: MIFKUJ_clean_linker_0, # of connection points: 2
#     Edge 4, Type (0, 1), BuildingBlock: MIFKUJ_clean_linker_0, # of connection points: 2
#     Edge 5, Type (0, 1), BuildingBlock: MIFKUJ_clean_linker_0, # of connection points: 2
#     Edge 6, Type (0, 1), BuildingBlock: MIFKUJ_clean_linker_0, # of connection points: 2
#     Edge 7, Type (0, 1), BuildingBlock: MIFKUJ_clean_linker_0, # of connection points: 2
#     Edge 8, Type (0, 1), BuildingBlock: MIFKUJ_clean_linker_0, # of connection points: 2
#     Edge 9, Type (0, 1), BuildingBlock: MIFKUJ_clean_linker_0, # of connection points: 2
#     Edge 10, Type (0, 1), BuildingBlock: MIFKUJ_clean_linker_0, # of connection points: 2
# Relax obj value: 0.034
# Max RMSD: 0.102
# Mean RMSD: 0.062
data_MOF--net-scu--node1-TAGTUT_clean_sbu_3--node2-NAWXER_clean_sbu_0--edge1-MIFKUJ_clean_linker_0
_symmetry_space_group_name_H-M    P1
_symmetry_Int_Tables_number       1
_symmetry_cell_setting            triclinic
loop_
_symmetry_equiv_pos_as_xyz
'x, y, z'
_cell_length_a     34.208027
_cell_length_b     29.274538
_cell_length_c     25.634084
_cell_angle_alpha  89.977586
_cell_angle_beta   91.544024
_cell_angle_gamma 89.943791
loop_
_atom_site_label
_atom_site_type_symbol
_atom_site_fract_x
_atom_site_fract_y
_atom_site_fract_z
_atom_type_partial_charge
C0 C 1.00371 0.91784 0.06676 0.0
C1 C 0.86288 0.99221 0.07123 0.0
C2 C 0.88963 0.03729 0.91576 0.0
Mg3 Mg 0.08084 0.9527 0.00804 0.0
Mg4 Mg 0.09155 0.06063 0.97309 0.0
O5 O 0.06017 0.0079 0.96985 0.0
Mg6 Mg 0.00662 0.01009 0.9987 0.0
O7 O 0.95319 0.00846 0.02772 0.0
Mg8 Mg 0.93205 0.95324 0.9902 0.0
Mg9 Mg 0.92202 0.06141 0.02456 0.0
C10 C 0.01226 0.10188 0.92471 0.0
O11 O 0.02105 0.06793 0.05681 0.0
O12 O 0.13469 0.95837 0.95368 0.0
O13 O 0.96489 0.10826 0.0603 0.0
O14 O 0.11443 0.99503 0.07082 0.0
O15 O 0.13854 0.03222 0.9294 0.0
O16 O 0.11424 0.06932 0.05187 0.0
O17 O 0.98866 0.95293 0.94203 0.0
O18 O 0.04459 0.91286 0.9482 0.0
C19 C 0.00931 0.91775 0.93085 0.0
C20 C 0.15088 0.99084 0.92807 0.0
O21 O 0.99251 0.06731 0.94003 0.0
O22 O 0.8786 0.95949 0.04545 0.0
O23 O 0.0487 0.10759 0.93687 0.0
O24 O 0.89825 0.99597 0.92766 0.0
O25 O 0.87537 0.03348 0.06918 0.0
O26 O 0.89938 0.07038 0.94579 0.0
O27 O 0.02411 0.95311 0.05551 0.0
O28 O 0.96838 0.91286 0.04973 0.0
C29 C 0.1234 0.03628 0.08238 0.0
C30 C 1.0014 0.10267 0.0721 0.0
C31 C 0.01629 0.55318 0.57166 0.0
C32 C 0.04682 0.4346 0.44505 0.0
O33 O 0.04918 0.53333 0.56713 0.0
Zn34 Zn 0.03292 0.49204 0.51173 0.0
O35 O 0.98689 0.54066 0.5431 0.0
Zn36 Zn 0.97316 0.49254 0.48263 0.0
O37 O 0.93562 0.45156 0.51432 0.0
O38 O 0.99446 0.44851 0.55183 0.0
O39 O 0.01113 0.44784 0.44321 0.0
O40 O 0.07009 0.45028 0.48018 0.0
O41 O 0.01979 0.5394 0.45019 0.0
O42 O 0.95734 0.53352 0.42658 0.0
C43 C 0.95864 0.43588 0.54975 0.0
C44 C 0.9906 0.55228 0.42139 0.0
C45 C 0.56371 0.03841 0.55719 0.0
C46 C 0.44391 0.03867 0.448 0.0
O47 O 0.55231 -0.00204 0.54479 0.0
Zn48 Zn 0.50494 0.96665 0.49979 0.0
O49 O 0.54388 0.07262 0.54111 0.0
Zn50 Zn 0.50444 0.03881 0.50192 0.0
O51 O 0.47326 0.00528 0.56297 0.0
O52 O 0.47864 0.93084 0.55145 0.0
O53 O 0.46357 0.07261 0.46492 0.0
O54 O 0.45626 -0.00191 0.45797 0.0
O55 O 0.53275 0.93445 0.44647 0.0
O56 O 0.5382 0.0093 0.44078 0.0
C57 C 0.46566 0.96431 0.57736 0.0
C58 C 0.54682 0.96928 0.42418 0.0
H59 H 0.06859 0.0923 0.13114 0.0
H60 H 0.10054 0.1485 0.1884 0.0
H61 H 0.00935 0.2457 0.14976 0.0
H62 H 0.97863 0.19055 0.09029 0.0
H63 H 0.07974 0.28715 0.15633 0.0
H64 H 0.00821 0.17419 0.26383 0.0
H65 H 0.99821 0.09488 0.29345 0.0
H66 H 0.11916 0.08599 0.34194 0.0
H67 H 0.1298 0.16523 0.31243 0.0
H68 H 0.01196 0.41986 0.35096 0.0
H69 H 0.02894 0.36439 0.2853 0.0
H70 H 0.12812 0.32058 0.38022 0.0
H71 H 0.11095 0.377 0.44737 0.0
H72 H 0.08319 0.24859 0.34493 0.0
H73 H 0.14652 0.37118 0.267 0.0
H74 H 0.15844 0.44984 0.23705 0.0
H75 H 0.05952 0.44098 0.13093 0.0
H76 H 0.04649 0.36258 0.16081 0.0
C77 C 0.05606 0.12609 0.1336 0.0
C78 C 0.02136 0.1371 0.10565 0.0
C79 C 0.07408 0.158 0.16689 0.0
C80 C 0.05721 0.20123 0.1737 0.0
C81 C 0.02303 0.21262 0.14496 0.0
C82 C 1.00526 0.1809 0.11133 0.0
C83 C 0.07298 0.23388 0.21321 0.0
C84 C 0.0807 0.27883 0.19758 0.0
C85 C 0.07655 0.22236 0.26678 0.0
C86 C 0.06981 0.17536 0.28575 0.0
C87 C 0.03261 0.15525 0.28085 0.0
C88 C 0.02685 0.11035 0.29758 0.0
C89 C 0.05804 0.0854 0.31951 0.0
C90 C 0.09502 0.10536 0.32498 0.0
C91 C 0.10092 0.15027 0.30836 0.0
C92 C 0.03762 0.39879 0.35799 0.0
C93 C 0.05997 0.40258 0.40457 0.0
C94 C 0.04755 0.36734 0.32003 0.0
C95 C 0.08014 0.33879 0.32743 0.0
C96 C 0.10305 0.34267 0.37359 0.0
C97 C 0.09327 0.37482 0.41177 0.0
C98 C 0.0871 0.30267 0.28823 0.0
C99 C 0.08378 0.2569 0.3037 0.0
C100 C 0.08813 0.31341 0.23443 0.0
C101 C 0.09557 0.36079 0.21619 0.0
C102 C 0.12713 0.38605 0.2375 0.0
C103 C 0.1341 0.43062 0.22051 0.0
C104 C 0.10982 0.45033 0.18202 0.0
C105 C 0.07839 0.42559 0.16061 0.0
C106 C 0.07125 0.38103 0.1775 0.0
H107 H 0.11539 0.48474 0.16872 0.0
H108 H 0.05354 0.05061 0.33232 0.0
H109 H 0.83452 0.90867 0.10254 0.0
H110 H 0.78093 0.89455 0.16227 0.0
H111 H 0.76261 0.03976 0.17672 0.0
H112 H 0.81586 0.05413 0.11811 0.0
H113 H 0.76425 -0.00057 0.27032 0.0
H114 H 0.70195 0.97184 0.10053 0.0
H115 H 0.69446 0.93278 0.01561 0.0
H116 H 0.68186 0.80404 0.09371 0.0
H117 H 0.68975 0.84232 0.17913 0.0
H118 H 0.58004 0.03708 0.36759 0.0
H119 H 0.63325 0.03038 0.30679 0.0
H120 H 0.63309 0.88399 0.3255 0.0
H121 H 0.5793 0.89029 0.38656 0.0
H122 H 0.64453 0.91197 0.22165 0.0
H123 H 0.69904 0.94087 0.39152 0.0
H124 H 0.70506 0.98012 0.47644 0.0
H125 H 0.73295 0.10554 0.39901 0.0
H126 H 0.72642 0.06724 0.31352 0.0
C127 C 0.81887 0.93754 0.11819 0.0
C128 C 0.82956 0.98254 0.10545 0.0
C129 C 0.78825 0.92941 0.1523 0.0
C130 C 0.76768 0.96613 0.17388 0.0
C131 C 0.77818 0.0109 0.16083 0.0
C132 C 0.80867 0.01903 0.1271 0.0
C133 C 0.73546 0.95883 0.21068 0.0
C134 C 0.73802 0.98046 0.25952 0.0
C135 C 0.70178 0.93276 0.19743 0.0
C136 C 0.6969 0.90984 0.14614 0.0
C137 C 0.69789 0.93515 0.09957 0.0
C138 C 0.69351 0.91317 0.05136 0.0
C139 C 0.68781 0.86594 0.04926 0.0
C140 C 0.68635 0.84061 0.09539 0.0
C141 C 0.69076 0.86243 0.1437 0.0
C142 C 0.59089 0.00333 0.35844 0.0
C143 C 0.57564 0.96425 0.38241 0.0
C144 C 0.62142 -0.00041 0.32372 0.0
C145 C 0.63756 0.95677 0.31238 0.0
C146 C 0.62114 0.91737 0.33397 0.0
C147 C 0.59045 0.92107 0.36887 0.0
C148 C 0.67289 0.95403 0.28023 0.0
C149 C 0.67101 0.93037 0.23263 0.0
C150 C 0.70736 0.97815 0.29461 0.0
C151 C 0.71198 0.00121 0.34604 0.0
C152 C 0.70622 0.97689 0.39256 0.0
C153 C 0.70974 -0.00103 0.44081 0.0
C154 C 0.71933 0.04531 0.44312 0.0
C155 C 0.72552 0.06964 0.39717 0.0
C156 C 0.72195 0.04775 0.34879 0.0
H157 H 0.72201 0.06234 0.48052 0.0
H158 H 0.68443 0.84898 0.0119 0.0
H159 H 0.99416 0.8283 0.04741 0.0
H160 H 1.00553 0.76577 0.10885 0.0
H161 H 0.06097 0.85906 0.21785 0.0
H162 H 0.04961 0.9224 0.15589 0.0
H163 H 0.08056 0.73583 0.18428 0.0
H164 H 1.00085 0.85852 0.28047 0.0
H165 H 0.9519 0.9202 0.26993 0.0
H166 H 0.87715 0.83061 0.17985 0.0
H167 H 0.92589 0.76859 0.18968 0.0
H168 H 0.05559 0.60454 0.41166 0.0
H169 H 0.06615 0.66669 0.35085 0.0
H170 H 0.95014 0.64735 0.28434 0.0
H171 H 0.93886 0.58517 0.34637 0.0
H172 H 0.96487 0.73564 0.29736 0.0
H173 H 0.0301 0.60966 0.22182 0.0
H174 H 0.07448 0.54345 0.21925 0.0
H175 H 0.17276 0.63086 0.25257 0.0
H176 H 0.12877 0.69757 0.25643 0.0
C177 C 0.00992 0.83522 0.0838 0.0
C178 C 0.02058 0.88004 0.09751 0.0
C179 C 0.01656 0.79948 0.11863 0.0
C180 C 0.03375 0.80808 0.16774 0.0
C181 C 0.04772 0.85203 0.17985 0.0
C182 C 0.04132 0.88802 0.14458 0.0
C183 C 0.02999 0.77307 0.20852 0.0
C184 C 0.05603 0.73616 0.21023 0.0
C185 C 0.99668 0.77262 0.23984 0.0
C186 C 0.96686 0.80915 0.23579 0.0
C187 C 0.97391 0.85207 0.25854 0.0
C188 C 0.94627 0.88706 0.25262 0.0
C189 C 0.91143 0.87933 0.22422 0.0
C190 C 0.90412 0.83654 0.20186 0.0
C191 C 0.9317 0.80147 0.20765 0.0
C192 C 0.03223 0.61326 0.38407 0.0
C193 C 0.99639 0.58967 0.38364 0.0
C194 C 0.03843 0.64881 0.3492 0.0
C195 C 0.00918 0.66123 0.3126 0.0
C196 C 0.97315 0.63817 0.31228 0.0
C197 C 0.96677 0.60261 0.34756 0.0
C198 C 0.01638 0.69857 0.27509 0.0
C199 C 0.99032 0.73558 0.273 0.0
C200 C 0.04941 0.69851 0.24277 0.0
C201 C 0.07607 0.65857 0.23998 0.0
C202 C 0.06114 0.61474 0.22903 0.0
C203 C 0.08624 0.57711 0.22728 0.0
C204 C 0.12644 0.5829 0.23581 0.0
C205 C 0.14161 0.6264 0.24603 0.0
C206 C 0.11659 0.66415 0.24801 0.0
H207 H 0.14583 0.55371 0.23443 0.0
H208 H 0.89011 0.90648 0.21953 0.0
H209 H 0.15659 0.1172 0.1155 0.0
H210 H 0.20495 0.12778 0.18664 0.0
H211 H 0.19525 0.9853 0.22713 0.0
H212 H 0.14652 0.97463 0.15719 0.0
H213 H 0.204 0.03585 0.31324 0.0
H214 H 0.26746 0.02397 0.14736 0.0
H215 H 0.28025 0.04658 0.0567 0.0
H216 H 0.31476 0.1803 0.10897 0.0
H217 H 0.30167 0.15862 0.19992 0.0
H218 H 0.38871 0.97454 0.42233 0.0
H219 H 0.32852 0.98468 0.37031 0.0
H220 H 0.35413 0.12798 0.35284 0.0
H221 H 0.41467 0.11811 0.4051 0.0
H222 H 0.33493 0.08817 0.25981 0.0
H223 H 0.27103 0.10035 0.42535 0.0
H224 H 0.25431 0.07914 0.51519 0.0
H225 H 0.22282 0.94431 0.46347 0.0
H226 H 0.23798 0.96534 0.37291 0.0
C227 C 0.16426 0.08828 0.14008 0.0
C228 C 0.14805 0.04488 0.13 0.0
C229 C 0.19207 0.09435 0.18061 0.0
C230 C 0.2044 0.0571 0.21154 0.0
C231 C 0.18642 0.01451 0.20364 0.0
C232 C 0.1586 0.00845 0.16337 0.0
C233 C 0.23778 0.06122 0.24973 0.0
C234 C 0.23265 0.04713 0.30143 0.0
C235 C 0.27506 0.0769 0.23487 0.0
C236 C 0.28316 0.08986 0.1803 0.0
C237 C 0.27751 0.0583 0.13945 0.0
C238 C 0.28485 0.07092 0.08804 0.0
C239 C 0.2982 0.1149 0.07706 0.0
C240 C 0.30435 0.14629 0.11751 0.0
C241 C 0.29699 0.13385 0.169 0.0
C242 C 0.38153 0.00832 0.4077 0.0
C243 C 0.40672 0.04546 0.41765 0.0
C244 C 0.34683 0.01415 0.37834 0.0
C245 C 0.33648 0.05721 0.3581 0.0
C246 C 0.36138 0.09449 0.36828 0.0
C247 C 0.396 0.08877 0.39812 0.0
C248 C 0.30126 0.06218 0.32312 0.0
C249 C 0.30613 0.0777 0.27187 0.0
C250 C 0.2638 0.04765 0.33826 0.0
C251 C 0.25597 0.03426 0.39264 0.0
C252 C 0.26078 0.0661 0.43327 0.0
C253 C 0.25137 0.0542 0.48422 0.0
C254 C 0.23792 0.01025 0.49516 0.0
C255 C 0.23335 0.97829 0.45499 0.0
C256 C 0.242 0.9903 0.40378 0.0
H257 H 0.23094 0.00104 0.53473 0.0
H258 H 0.30386 0.12461 0.03723 0.0
H259 H 0.02339 0.82815 0.94427 0.0
H260 H 0.01276 0.76783 0.88012 0.0
H261 H 0.94934 0.86188 0.77971 0.0
H262 H 0.96017 0.92326 0.84441 0.0
H263 H 0.92509 0.75285 0.79154 0.0
H264 H 0.02601 0.86179 0.74201 0.0
H265 H 0.08255 0.91132 0.76311 0.0
H266 H 0.14761 0.7952 0.81991 0.0
H267 H 0.09115 0.7451 0.79997 0.0
H268 H 0.95877 0.61706 0.56847 0.0
H269 H 0.94933 0.68064 0.62794 0.0
H270 H 0.05206 0.63957 0.71761 0.0
H271 H 0.06256 0.57646 0.65665 0.0
H272 H 0.052 0.72756 0.70635 0.0
H273 H 0.95606 0.61838 0.75813 0.0
H274 H 0.90064 0.5653 0.74573 0.0
H275 H 0.82728 0.67612 0.69312 0.0
H276 H 0.88243 0.72978 0.70458 0.0
C277 C 1.00623 0.83576 0.90917 0.0
C278 C 0.99317 0.88041 0.89864 0.0
C279 C 1.00007 0.80124 0.87275 0.0
C280 C 0.98079 0.81076 0.82518 0.0
C281 C 0.96429 0.85415 0.81644 0.0
C282 C 0.97043 0.88903 0.85327 0.0
C283 C 0.9838 0.77719 0.78268 0.0
C284 C 0.9524 0.74782 0.77175 0.0
C285 C 0.02003 0.7699 0.75878 0.0
C286 C 0.05426 0.7998 0.76989 0.0
C287 C 0.05226 0.8469 0.7594 0.0
C288 C 0.0843 0.87506 0.77109 0.0
C289 C 0.11863 0.85643 0.79291 0.0
C290 C 0.121 0.80958 0.80303 0.0
C291 C 0.089 0.78129 0.79149 0.0
C292 C 0.97935 0.62141 0.60094 0.0
C293 C 0.0113 0.59157 0.60817 0.0
C294 C 0.97376 0.65771 0.63507 0.0
C295 C 0.99949 0.66439 0.67786 0.0
C296 C 0.03173 0.63495 0.68491 0.0
C297 C 0.03771 0.59891 0.65018 0.0
C298 C 0.99317 0.70266 0.7146 0.0
C299 C 0.02425 0.73281 0.72498 0.0
C300 C 0.95673 0.71018 0.7384 0.0
C301 C 0.92349 0.67801 0.7317 0.0
C302 C 0.92819 0.63137 0.74355 0.0
C303 C 0.89681 0.60119 0.73675 0.0
C304 C 0.86049 0.61731 0.71851 0.0
C305 C 0.85544 0.66367 0.70718 0.0
C306 C 0.88674 0.69399 0.71386 0.0
H307 H 0.83624 0.59389 0.71326 0.0
H308 H 0.14343 0.87826 0.80181 0.0
H309 H 0.17591 0.90741 0.89234 0.0
H310 H 0.23041 0.89267 0.83438 0.0
H311 H 0.25742 0.03664 0.83316 0.0
H312 H 0.20274 0.05166 0.88934 0.0
H313 H 0.25878 0.00549 0.73855 0.0
H314 H 0.31203 0.9562 0.90581 0.0
H315 H 0.31379 0.91054 0.98672 0.0
H316 H 0.31788 0.78699 0.89675 0.0
H317 H 0.31565 0.83196 0.81524 0.0
H318 H 0.44624 0.02593 0.65161 0.0
H319 H 0.39558 0.01857 0.71613 0.0
H320 H 0.37462 0.87947 0.66785 0.0
H321 H 0.42602 0.8863 0.60323 0.0
H322 H 0.3673 0.89786 0.78106 0.0
H323 H 0.32022 0.95239 0.61261 0.0
H324 H 0.32843 0.00242 0.53625 0.0
H325 H 0.3168 0.12084 0.63338 0.0
H326 H 0.30954 0.07152 0.71059 0.0
C327 C 0.19362 0.93583 0.87987 0.0
C328 C 0.18486 0.98073 0.89531 0.0
C329 C 0.22482 0.92736 0.84684 0.0
C330 C 0.24817 0.96354 0.82952 0.0
C331 C 0.2397 0.00818 0.84562 0.0
C332 C 0.20841 0.0167 0.87793 0.0
C333 C 0.28114 0.95577 0.79395 0.0
C334 C 0.28245 0.98197 0.74809 0.0
C335 C 0.31179 0.92443 0.80555 0.0
C336 C 0.3132 0.89739 0.85447 0.0
C337 C 0.31299 0.91928 0.90329 0.0
C338 C 0.31413 0.89353 0.94925 0.0
C339 C 0.31581 0.84589 0.94687 0.0
C340 C 0.31649 0.8239 0.89853 0.0
C341 C 0.31531 0.84949 0.85244 0.0
C342 C 0.43143 0.99344 0.65527 0.0
C343 C 0.43964 0.95693 0.62172 0.0
C344 C 0.4026 0.98925 0.69234 0.0
C345 C 0.38103 0.94872 0.69613 0.0
C346 C 0.39099 0.91102 0.66542 0.0
C347 C 0.42021 0.91507 0.62842 0.0
C348 C 0.34507 0.94841 0.727 0.0
C349 C 0.34316 0.92067 0.77143 0.0
C350 C 0.31393 0.97866 0.71451 0.0
C351 C 0.31459 0.00825 0.66745 0.0
C352 C 0.3194 0.9891 0.61768 0.0
C353 C 0.32411 0.01732 0.57431 0.0
C354 C 0.32346 0.06477 0.58007 0.0
C355 C 0.31748 0.08408 0.62906 0.0
C356 C 0.31304 0.056 0.67264 0.0
H357 H 0.32739 0.08657 0.54651 0.0
H358 H 0.3167 0.82601 0.9825 0.0
H359 H 0.95144 0.08699 0.85563 0.0
H360 H 0.92273 0.14132 0.79262 0.0
H361 H 0.99999 0.24656 0.85213 0.0
H362 H 0.02919 0.19234 0.91461 0.0
H363 H 0.92039 0.27569 0.8316 0.0
H364 H 0.02636 0.19285 0.75484 0.0
H365 H 0.06191 0.12518 0.72429 0.0
H366 H 0.96668 0.09311 0.61817 0.0
H367 H 0.92978 0.15973 0.64964 0.0
H368 H 0.98307 0.43293 0.65028 0.0
H369 H 0.96993 0.37415 0.71454 0.0
H370 H 0.89224 0.30633 0.60417 0.0
H371 H 0.90514 0.3662 0.53912 0.0
H372 H 0.9518 0.25056 0.64594 0.0
H373 H 0.85336 0.34677 0.71146 0.0
H374 H 0.82377 0.41925 0.7394 0.0
H375 H 0.91015 0.43113 0.86327 0.0
H376 H 0.94066 0.35908 0.83566 0.0
C377 C 0.96185 0.12192 0.85581 0.0
C378 C 0.99266 0.13548 0.88986 0.0
C379 C 0.94549 0.1528 0.81974 0.0
C380 C 0.95934 0.19783 0.81779 0.0
C381 C 0.98886 0.21195 0.85327 0.0
C382 C 1.00569 0.18091 0.88863 0.0
C383 C 0.94555 0.22961 0.77637 0.0
C384 C 0.92697 0.2702 0.79091 0.0
C385 C 0.95331 0.22167 0.72317 0.0
C386 C 0.97487 0.18069 0.70555 0.0
C387 C 0.01256 0.17083 0.72587 0.0
C388 C 0.03301 0.13271 0.70828 0.0
C389 C 0.01639 0.10462 0.66966 0.0
C390 C 0.97933 0.11467 0.64846 0.0
C391 C 0.95856 0.15249 0.66632 0.0
C392 C 0.96255 0.40601 0.63998 0.0
C393 C 0.94526 0.40383 0.58976 0.0
C394 C 0.95483 0.37262 0.67688 0.0
C395 C 0.92987 0.33608 0.66429 0.0
C396 C 0.91134 0.33454 0.61469 0.0
C397 C 0.91861 0.36866 0.57774 0.0
C398 C 0.92767 0.29737 0.7013 0.0
C399 C 0.94357 0.2554 0.68616 0.0
C400 C 0.91787 0.30429 0.75399 0.0
C401 C 0.89936 0.34744 0.77136 0.0
C402 C 0.86619 0.36492 0.74451 0.0
C403 C 0.84923 0.40595 0.76031 0.0
C404 C 0.86508 0.42979 0.80306 0.0
C405 C 0.89787 0.41259 0.83019 0.0
C406 C 0.91496 0.37159 0.81455 0.0
H407 H 0.85194 0.46158 0.81519 0.0
H408 H 0.03235 0.07524 0.65589 0.0
H409 H 0.86444 0.97538 0.84256 0.0
H410 H 0.81406 0.98595 0.7748 0.0
H411 H 0.8054 0.12863 0.81482 0.0
H412 H 0.85573 0.11822 0.88366 0.0
H413 H 0.73438 0.08904 0.81016 0.0
H414 H 0.84379 0.09492 0.70073 0.0
H415 H 0.90659 0.06974 0.66619 0.0
H416 H 0.85365 0.94546 0.61074 0.0
H417 H 0.7906 0.96913 0.64657 0.0
H418 H 0.59231 0.11745 0.60164 0.0
H419 H 0.65202 0.12663 0.65568 0.0
H420 H 0.67696 0.983 0.63929 0.0
H421 H 0.61766 0.97355 0.58533 0.0
H422 H 0.74228 0.03478 0.62742 0.0
H423 H 0.63726 0.02327 0.74894 0.0
H424 H 0.5747 0.04554 0.78726 0.0
H425 H 0.62015 0.1795 0.8199 0.0
H426 H 0.68286 0.15817 0.78108 0.0
C427 C 0.85239 0.00927 0.83657 0.0
C428 C 0.864 0.04586 0.86902 0.0
C429 C 0.82357 0.01529 0.79754 0.0
C430 C 0.80589 0.05811 0.78955 0.0
C431 C 0.81853 0.09523 0.82036 0.0
C432 C 0.84747 0.08925 0.85954 0.0
C433 C 0.77244 0.0629 0.75154 0.0
C434 C 0.73637 0.07818 0.76985 0.0
C435 C 0.77473 0.04784 0.69919 0.0
C436 C 0.81244 0.03373 0.6767 0.0
C437 C 0.84553 0.06205 0.68153 0.0
C438 C 0.88122 0.04805 0.66166 0.0
C439 C 0.88416 0.0061 0.63614 0.0
C440 C 0.85134 0.97798 0.63049 0.0
C441 C 0.8156 0.99165 0.65064 0.0
C442 C 0.61055 0.08784 0.60946 0.0
C443 C 0.60002 0.04469 0.58942 0.0
C444 C 0.64464 0.09314 0.64043 0.0
C445 C 0.66885 0.05543 0.65183 0.0
C446 C 0.65878 0.01259 0.631 0.0
C447 C 0.62468 0.00721 0.60037 0.0
C448 C 0.70424 0.05999 0.68645 0.0
C449 C 0.74058 0.04641 0.66747 0.0
C450 C 0.70221 0.07645 0.73823 0.0
C451 C 0.66455 0.08932 0.7615 0.0
C452 C 0.63379 0.05761 0.76384 0.0
C453 C 0.59833 0.07003 0.78574 0.0
C454 C 0.59341 0.11396 0.80583 0.0
C455 C 0.62398 0.14552 0.8042 0.0
C456 C 0.65948 0.13328 0.78227 0.0
H457 H 0.56595 0.12351 0.8228 0.0
H458 H 0.91186 0.99539 0.62075 0.0
loop_
_geom_bond_atom_site_label_1
_geom_bond_atom_site_label_2
_geom_bond_distance
_geom_bond_site_symmetry_2
_ccdc_geom_bond_type
C0 O27 1.312 1_655 S
C0 O28 1.208 . S
C1 O22 1.331 . S
C1 O25 1.244 1_565 S
C2 O24 1.264 1_545 S
C2 O26 1.273 . S
Mg3 O5 1.936 1_565 S
Mg3 O12 2.081 . S
Mg3 O14 2.023 1_556 S
Mg3 O18 2.031 . S
Mg3 O27 2.291 1_556 S
Mg4 O5 1.963 . S
Mg4 O15 1.942 . S
Mg4 O16 1.955 1_556 S
Mg4 O23 1.986 . S
O5 Mg3 1.936 1_545 S
O5 Mg4 1.963 . S
O5 Mg6 1.915 1_556 S
Mg6 O5 1.915 1_554 S
Mg6 O7 1.915 1_455 S
Mg6 O11 2.013 . S
Mg6 O17 2.114 1_444 S
Mg6 O21 2.013 1_454 S
Mg6 O27 2.114 1_545 S
O7 Mg6 1.915 1_655 S
O7 Mg8 1.936 1_545 S
O7 Mg9 1.963 . S
Mg8 O7 1.936 1_565 S
Mg8 O17 2.291 1_554 S
Mg8 O22 2.081 . S
Mg8 O24 2.023 1_554 S
Mg8 O28 2.031 . S
Mg9 O7 1.963 . S
Mg9 O13 1.986 . S
Mg9 O25 1.942 . S
Mg9 O26 1.955 1_554 S
C10 O21 1.191 1_455 S
C10 O23 1.307 . S
O11 Mg6 2.013 . S
O11 C30 1.191 1_455 S
O12 Mg3 2.081 . S
O12 C20 1.331 . S
O13 Mg9 1.986 . S
O13 C30 1.307 . S
O14 Mg3 2.023 1_554 S
O14 C29 1.264 1_565 S
O15 Mg4 1.942 . S
O15 C20 1.244 1_545 S
O16 Mg4 1.955 1_554 S
O16 C29 1.273 . S
O17 Mg6 2.114 1_666 S
O17 Mg8 2.291 1_556 S
O17 C19 1.312 1_655 S
O18 Mg3 2.031 . S
O18 C19 1.208 . S
C19 O17 1.312 1_455 S
C19 O18 1.208 . S
C20 O12 1.331 . S
C20 O15 1.244 1_565 S
O21 Mg6 2.013 1_656 S
O21 C10 1.191 1_655 S
O22 C1 1.331 . S
O22 Mg8 2.081 . S
O23 Mg4 1.986 . S
O23 C10 1.307 . S
O24 C2 1.264 1_565 S
O24 Mg8 2.023 1_556 S
O25 C1 1.244 1_545 S
O25 Mg9 1.942 . S
O26 C2 1.273 . S
O26 Mg9 1.955 1_556 S
O27 C0 1.312 1_455 S
O27 Mg3 2.291 1_554 S
O27 Mg6 2.114 1_565 S
O28 C0 1.208 . S
O28 Mg8 2.031 . S
C29 O14 1.264 1_545 S
C29 O16 1.273 . S
C30 O11 1.191 1_655 S
C30 O13 1.307 . S
C31 O33 1.251 . S
C31 O35 1.254 1_455 S
C32 O39 1.245 . S
C32 O40 1.260 1_655 S
O33 C31 1.251 . S
O33 Zn34 2.028 . S
Zn34 O33 2.028 . S
Zn34 O38 2.035 . S
Zn34 O40 2.035 . S
Zn34 O41 2.028 . S
O35 C31 1.254 1_655 S
O35 Zn36 2.035 . S
Zn36 O35 2.035 . S
Zn36 O37 2.028 . S
Zn36 O39 2.028 . S
Zn36 O42 2.035 . S
O37 Zn36 2.028 . S
O37 C43 1.245 . S
O38 Zn34 2.035 . S
O38 C43 1.260 1_455 S
O39 C32 1.245 . S
O39 Zn36 2.028 . S
O40 C32 1.260 1_455 S
O40 Zn34 2.035 . S
O41 Zn34 2.028 . S
O41 C44 1.251 . S
O42 Zn36 2.035 . S
O42 C44 1.254 1_655 S
C43 O37 1.245 . S
C43 O38 1.260 1_655 S
C44 O41 1.251 . S
C44 O42 1.254 1_455 S
C45 O47 1.247 1_545 S
C45 O49 1.258 . S
C46 O53 1.247 . S
C46 O54 1.258 1_545 S
O47 C45 1.247 1_565 S
O47 Zn48 2.028 . S
Zn48 O47 2.028 . S
Zn48 O52 2.035 . S
Zn48 O54 2.035 . S
Zn48 O55 2.028 . S
O49 C45 1.258 . S
O49 Zn50 2.035 . S
Zn50 O49 2.035 . S
Zn50 O51 2.028 . S
Zn50 O53 2.028 . S
Zn50 O56 2.035 . S
O51 Zn50 2.028 . S
O51 C57 1.247 . S
O52 Zn48 2.035 . S
O52 C57 1.258 1_565 S
O53 C46 1.247 . S
O53 Zn50 2.028 . S
O54 C46 1.258 1_565 S
O54 Zn48 2.035 . S
O55 Zn48 2.028 . S
O55 C58 1.247 1_565 S
O56 Zn50 2.035 . S
O56 C58 1.258 . S
C57 O51 1.247 . S
C57 O52 1.258 1_545 S
C58 O55 1.247 1_545 S
C58 O56 1.258 . S
H59 C77 0.951 . S
H60 C79 0.951 . S
H61 C81 0.950 . S
H62 C82 0.950 . S
H63 C84 0.950 . S
H64 C87 0.950 . S
H65 C88 0.950 . S
H66 C90 0.950 . S
H67 C91 0.950 . S
H68 C92 0.951 . S
H69 C94 0.951 . S
H70 C96 0.950 . S
H71 C97 0.950 . S
H72 C99 0.950 . S
H73 C102 0.950 . S
H74 C103 0.950 . S
H75 C105 0.950 . S
H76 C106 0.950 . S
C77 H59 0.951 . S
C77 C78 1.362 1_455 S
C77 C79 1.388 . S
C78 C77 1.362 1_655 S
C78 C82 1.390 . S
C79 H60 0.951 . S
C79 C77 1.388 . S
C79 C80 1.366 1_455 S
C80 C79 1.366 1_655 S
C80 C81 1.414 . S
C80 C83 1.499 . S
C81 H61 0.950 . S
C81 C80 1.414 . S
C81 C82 1.374 . S
C82 H62 0.950 . S
C82 C78 1.390 . S
C82 C81 1.374 . S
C83 C80 1.499 . S
C83 C84 1.373 1_655 S
C83 C85 1.389 . S
C84 H63 0.950 . S
C84 C83 1.373 1_455 S
C84 C100 1.377 . S
C85 C83 1.389 . S
C85 C86 1.524 . S
C85 C99 1.377 . S
C86 C85 1.524 . S
C86 C87 1.397 . S
C86 C91 1.363 . S
C87 H64 0.950 . S
C87 C86 1.397 . S
C87 C88 1.334 . S
C88 H65 0.950 . S
C88 C87 1.334 . S
C88 C89 1.287 . S
C89 C88 1.287 . S
C89 C90 1.524 . S
C89 H108 0.913 . S
C90 H66 0.950 . S
C90 C89 1.524 . S
C90 C91 1.415 . S
C91 H67 0.950 . S
C91 C86 1.363 . S
C91 C90 1.415 . S
C92 H68 0.951 . S
C92 C93 1.365 . S
C92 C94 1.388 . S
C93 C92 1.365 . S
C93 C97 1.385 1_655 S
C94 H69 0.951 . S
C94 C92 1.388 . S
C94 C95 1.366 1_655 S
C95 C94 1.366 1_455 S
C95 C96 1.414 . S
C95 C98 1.499 . S
C96 H70 0.950 . S
C96 C95 1.414 . S
C96 C97 1.374 . S
C97 H71 0.950 . S
C97 C93 1.385 1_455 S
C97 C96 1.374 . S
C98 C95 1.499 . S
C98 C99 1.373 1_455 S
C98 C100 1.389 . S
C99 H72 0.950 . S
C99 C85 1.377 . S
C99 C98 1.373 1_655 S
C100 C84 1.377 . S
C100 C98 1.389 . S
C100 C101 1.524 . S
C101 C100 1.524 . S
C101 C102 1.397 . S
C101 C106 1.363 . S
C102 H73 0.950 . S
C102 C101 1.397 . S
C102 C103 1.334 . S
C103 H74 0.950 . S
C103 C102 1.334 . S
C103 C104 1.287 . S
C104 C103 1.287 . S
C104 C105 1.524 . S
C104 H107 0.999 . S
C105 H75 0.950 . S
C105 C104 1.524 . S
C105 C106 1.415 . S
C106 H76 0.950 . S
C106 C101 1.363 . S
C106 C105 1.415 . S
H107 C104 0.999 . S
H108 C89 0.913 . S
H109 C127 0.951 . S
H110 C129 0.951 . S
H111 C131 0.950 . S
H112 C132 0.950 . S
H113 C134 0.950 . S
H114 C137 0.950 . S
H115 C138 0.950 . S
H116 C140 0.950 . S
H117 C141 0.950 . S
H118 C142 0.951 . S
H119 C144 0.951 . S
H120 C146 0.950 . S
H121 C147 0.950 . S
H122 C149 0.950 . S
H123 C152 0.950 . S
H124 C153 0.950 . S
H125 C155 0.950 . S
H126 C156 0.950 . S
C127 H109 0.951 . S
C127 C128 1.366 . S
C127 C129 1.388 . S
C128 C127 1.366 . S
C128 C132 1.385 1_565 S
C129 H110 0.951 . S
C129 C127 1.388 . S
C129 C130 1.366 . S
C130 C129 1.366 . S
C130 C131 1.414 1_565 S
C130 C133 1.499 . S
C131 H111 0.950 . S
C131 C130 1.414 1_545 S
C131 C132 1.374 . S
C132 H112 0.950 . S
C132 C128 1.385 1_545 S
C132 C131 1.374 . S
C133 C130 1.499 . S
C133 C134 1.373 1_565 S
C133 C135 1.389 . S
C134 H113 0.950 . S
C134 C133 1.373 1_545 S
C134 C150 1.377 . S
C135 C133 1.389 . S
C135 C136 1.524 . S
C135 C149 1.377 . S
C136 C135 1.524 . S
C136 C137 1.397 . S
C136 C141 1.363 . S
C137 H114 0.950 . S
C137 C136 1.397 . S
C137 C138 1.334 . S
C138 H115 0.950 . S
C138 C137 1.334 . S
C138 C139 1.287 . S
C139 C138 1.287 . S
C139 C140 1.524 . S
C139 H158 0.913 . S
C140 H116 0.950 . S
C140 C139 1.524 . S
C140 C141 1.415 . S
C141 H117 0.950 . S
C141 C136 1.363 . S
C141 C140 1.415 . S
C142 H118 0.951 . S
C142 C143 1.366 . S
C142 C144 1.388 . S
C143 C142 1.366 . S
C143 C147 1.385 1_545 S
C144 H119 0.951 . S
C144 C142 1.388 . S
C144 C145 1.366 . S
C145 C144 1.366 . S
C145 C146 1.414 1_545 S
C145 C148 1.499 . S
C146 H120 0.950 . S
C146 C145 1.414 1_565 S
C146 C147 1.374 . S
C147 H121 0.950 . S
C147 C143 1.385 1_565 S
C147 C146 1.374 . S
C148 C145 1.499 . S
C148 C149 1.373 1_545 S
C148 C150 1.389 . S
C149 H122 0.950 . S
C149 C135 1.377 . S
C149 C148 1.373 1_565 S
C150 C134 1.377 . S
C150 C148 1.389 . S
C150 C151 1.524 . S
C151 C150 1.524 . S
C151 C152 1.397 . S
C151 C156 1.363 . S
C152 H123 0.950 . S
C152 C151 1.397 . S
C152 C153 1.334 . S
C153 H124 0.950 . S
C153 C152 1.334 . S
C153 C154 1.287 . S
C154 C153 1.287 . S
C154 C155 1.524 . S
C154 H157 0.999 . S
C155 H125 0.950 . S
C155 C154 1.524 . S
C155 C156 1.415 . S
C156 H126 0.950 . S
C156 C151 1.363 . S
C156 C155 1.415 . S
H157 C154 0.999 . S
H158 C139 0.913 . S
H159 C177 0.951 . S
H160 C179 0.951 . S
H161 C181 0.950 . S
H162 C182 0.950 . S
H163 C184 0.950 . S
H164 C187 0.950 . S
H165 C188 0.950 . S
H166 C190 0.950 . S
H167 C191 0.950 . S
H168 C192 0.951 . S
H169 C194 0.951 . S
H170 C196 0.950 . S
H171 C197 0.950 . S
H172 C199 0.950 . S
H173 C202 0.950 . S
H174 C203 0.950 . S
H175 C205 0.950 . S
H176 C206 0.950 . S
C177 H159 0.951 . S
C177 C178 1.366 1_655 S
C177 C179 1.388 . S
C178 C177 1.366 1_455 S
C178 C182 1.385 . S
C179 H160 0.951 . S
C179 C177 1.388 . S
C179 C180 1.366 1_655 S
C180 C179 1.366 1_455 S
C180 C181 1.414 . S
C180 C183 1.499 . S
C181 H161 0.950 . S
C181 C180 1.414 . S
C181 C182 1.374 . S
C182 H162 0.950 . S
C182 C178 1.385 . S
C182 C181 1.374 . S
C183 C180 1.499 . S
C183 C184 1.373 . S
C183 C185 1.389 1_455 S
C184 H163 0.950 . S
C184 C183 1.373 . S
C184 C200 1.377 . S
C185 C183 1.389 1_655 S
C185 C186 1.524 . S
C185 C199 1.377 . S
C186 C185 1.524 . S
C186 C187 1.397 . S
C186 C191 1.363 . S
C187 H164 0.950 . S
C187 C186 1.397 . S
C187 C188 1.334 . S
C188 H165 0.950 . S
C188 C187 1.334 . S
C188 C189 1.287 . S
C189 C188 1.287 . S
C189 C190 1.524 . S
C189 H208 0.913 . S
C190 H166 0.950 . S
C190 C189 1.524 . S
C190 C191 1.415 . S
C191 H167 0.950 . S
C191 C186 1.363 . S
C191 C190 1.415 . S
C192 H168 0.951 . S
C192 C193 1.367 . S
C192 C194 1.388 . S
C193 C192 1.367 . S
C193 C197 1.383 1_455 S
C194 H169 0.951 . S
C194 C192 1.388 . S
C194 C195 1.366 . S
C195 C194 1.366 . S
C195 C196 1.414 1_455 S
C195 C198 1.499 . S
C196 H170 0.950 . S
C196 C195 1.414 1_655 S
C196 C197 1.374 . S
C197 H171 0.950 . S
C197 C193 1.383 1_655 S
C197 C196 1.374 . S
C198 C195 1.499 . S
C198 C199 1.349 1_455 S
C198 C200 1.414 . S
C199 H172 0.950 . S
C199 C185 1.377 . S
C199 C198 1.349 1_655 S
C200 C184 1.377 . S
C200 C198 1.414 . S
C200 C201 1.524 . S
C201 C200 1.524 . S
C201 C202 1.397 . S
C201 C206 1.363 . S
C202 H173 0.950 . S
C202 C201 1.397 . S
C202 C203 1.334 . S
C203 H174 0.950 . S
C203 C202 1.334 . S
C203 C204 1.287 . S
C204 C203 1.287 . S
C204 C205 1.524 . S
C204 H207 0.999 . S
C205 H175 0.950 . S
C205 C204 1.524 . S
C205 C206 1.415 . S
C206 H176 0.950 . S
C206 C201 1.363 . S
C206 C205 1.415 . S
H207 C204 0.999 . S
H208 C189 0.913 . S
H209 C227 0.951 . S
H210 C229 0.951 . S
H211 C231 0.950 . S
H212 C232 0.950 . S
H213 C234 0.950 . S
H214 C237 0.950 . S
H215 C238 0.950 . S
H216 C240 0.950 . S
H217 C241 0.950 . S
H218 C242 0.951 . S
H219 C244 0.951 . S
H220 C246 0.950 . S
H221 C247 0.950 . S
H222 C249 0.950 . S
H223 C252 0.950 . S
H224 C253 0.950 . S
H225 C255 0.950 . S
H226 C256 0.950 . S
C227 H209 0.951 . S
C227 C228 1.366 . S
C227 C229 1.388 . S
C228 C227 1.366 . S
C228 C232 1.385 1_545 S
C229 H210 0.951 . S
C229 C227 1.388 . S
C229 C230 1.366 . S
C230 C229 1.366 . S
C230 C231 1.414 1_545 S
C230 C233 1.499 . S
C231 H211 0.950 . S
C231 C230 1.414 1_565 S
C231 C232 1.374 . S
C232 H212 0.950 . S
C232 C228 1.385 1_565 S
C232 C231 1.374 . S
C233 C230 1.499 . S
C233 C234 1.373 1_545 S
C233 C235 1.389 . S
C234 H213 0.950 . S
C234 C233 1.373 1_565 S
C234 C250 1.377 . S
C235 C233 1.389 . S
C235 C236 1.524 . S
C235 C249 1.377 . S
C236 C235 1.524 . S
C236 C237 1.397 . S
C236 C241 1.363 . S
C237 H214 0.950 . S
C237 C236 1.397 . S
C237 C238 1.334 . S
C238 H215 0.950 . S
C238 C237 1.334 . S
C238 C239 1.287 . S
C239 C238 1.287 . S
C239 C240 1.524 . S
C239 H258 0.913 . S
C240 H216 0.950 . S
C240 C239 1.524 . S
C240 C241 1.415 . S
C241 H217 0.950 . S
C241 C236 1.363 . S
C241 C240 1.415 . S
C242 H218 0.951 . S
C242 C243 1.366 1_565 S
C242 C244 1.388 . S
C243 C242 1.366 1_545 S
C243 C247 1.385 . S
C244 H219 0.951 . S
C244 C242 1.388 . S
C244 C245 1.366 1_565 S
C245 C244 1.366 1_545 S
C245 C246 1.414 . S
C245 C248 1.499 . S
C246 H220 0.950 . S
C246 C245 1.414 . S
C246 C247 1.374 . S
C247 H221 0.950 . S
C247 C243 1.385 . S
C247 C246 1.374 . S
C248 C245 1.499 . S
C248 C249 1.373 . S
C248 C250 1.389 1_545 S
C249 H222 0.950 . S
C249 C235 1.377 . S
C249 C248 1.373 . S
C250 C234 1.377 . S
C250 C248 1.389 1_565 S
C250 C251 1.524 . S
C251 C250 1.524 . S
C251 C252 1.397 . S
C251 C256 1.363 . S
C252 H223 0.950 . S
C252 C251 1.397 . S
C252 C253 1.334 . S
C253 H224 0.950 . S
C253 C252 1.334 . S
C253 C254 1.287 . S
C254 C253 1.287 . S
C254 C255 1.524 . S
C254 H257 0.999 . S
C255 H225 0.950 . S
C255 C254 1.524 . S
C255 C256 1.415 . S
C256 H226 0.950 . S
C256 C251 1.363 . S
C256 C255 1.415 . S
H257 C254 0.999 . S
H258 C239 0.913 . S
H259 C277 0.951 . S
H260 C279 0.951 . S
H261 C281 0.950 . S
H262 C282 0.950 . S
H263 C284 0.950 . S
H264 C287 0.950 . S
H265 C288 0.950 . S
H266 C290 0.950 . S
H267 C291 0.950 . S
H268 C292 0.951 . S
H269 C294 0.951 . S
H270 C296 0.950 . S
H271 C297 0.950 . S
H272 C299 0.950 . S
H273 C302 0.950 . S
H274 C303 0.950 . S
H275 C305 0.950 . S
H276 C306 0.950 . S
C277 H259 0.951 . S
C277 C278 1.366 1_455 S
C277 C279 1.388 . S
C278 C277 1.366 1_655 S
C278 C282 1.385 . S
C279 H260 0.951 . S
C279 C277 1.388 . S
C279 C280 1.366 . S
C280 C279 1.366 . S
C280 C281 1.413 1_455 S
C280 C283 1.499 . S
C281 H261 0.950 . S
C281 C280 1.413 1_655 S
C281 C282 1.374 . S
C282 H262 0.950 . S
C282 C278 1.385 . S
C282 C281 1.374 . S
C283 C280 1.499 . S
C283 C284 1.371 1_455 S
C283 C285 1.391 . S
C284 H263 0.950 . S
C284 C283 1.371 1_655 S
C284 C300 1.377 . S
C285 C283 1.391 . S
C285 C286 1.524 . S
C285 C299 1.377 . S
C286 C285 1.524 . S
C286 C287 1.397 . S
C286 C291 1.363 . S
C287 H264 0.950 . S
C287 C286 1.397 . S
C287 C288 1.334 . S
C288 H265 0.950 . S
C288 C287 1.334 . S
C288 C289 1.287 . S
C289 C288 1.287 . S
C289 C290 1.524 . S
C289 H308 0.913 . S
C290 H266 0.950 . S
C290 C289 1.524 . S
C290 C291 1.415 . S
C291 H267 0.950 . S
C291 C286 1.363 . S
C291 C290 1.415 . S
C292 H268 0.951 . S
C292 C293 1.366 1_655 S
C292 C294 1.388 . S
C293 C292 1.366 1_455 S
C293 C297 1.384 . S
C294 H269 0.951 . S
C294 C292 1.388 . S
C294 C295 1.366 . S
C295 C294 1.366 . S
C295 C296 1.414 1_655 S
C295 C298 1.499 . S
C296 H270 0.950 . S
C296 C295 1.414 1_455 S
C296 C297 1.374 . S
C297 H271 0.950 . S
C297 C293 1.384 . S
C297 C296 1.374 . S
C298 C295 1.499 . S
C298 C299 1.373 1_655 S
C298 C300 1.389 . S
C299 H272 0.950 . S
C299 C285 1.377 . S
C299 C298 1.373 1_455 S
C300 C284 1.377 . S
C300 C298 1.389 . S
C300 C301 1.524 . S
C301 C300 1.524 . S
C301 C302 1.397 . S
C301 C306 1.363 . S
C302 H273 0.950 . S
C302 C301 1.397 . S
C302 C303 1.334 . S
C303 H274 0.950 . S
C303 C302 1.334 . S
C303 C304 1.287 . S
C304 C303 1.287 . S
C304 C305 1.524 . S
C304 H307 0.999 . S
C305 H275 0.950 . S
C305 C304 1.524 . S
C305 C306 1.415 . S
C306 H276 0.950 . S
C306 C301 1.363 . S
C306 C305 1.415 . S
H307 C304 0.999 . S
H308 C289 0.913 . S
H309 C327 0.951 . S
H310 C329 0.951 . S
H311 C331 0.950 . S
H312 C332 0.950 . S
H313 C334 0.950 . S
H314 C337 0.950 . S
H315 C338 0.950 . S
H316 C340 0.950 . S
H317 C341 0.950 . S
H318 C342 0.951 . S
H319 C344 0.951 . S
H320 C346 0.950 . S
H321 C347 0.950 . S
H322 C349 0.950 . S
H323 C352 0.950 . S
H324 C353 0.950 . S
H325 C355 0.950 . S
H326 C356 0.950 . S
C327 H309 0.951 . S
C327 C328 1.366 . S
C327 C329 1.388 . S
C328 C327 1.366 . S
C328 C332 1.385 1_565 S
C329 H310 0.951 . S
C329 C327 1.388 . S
C329 C330 1.366 . S
C330 C329 1.366 . S
C330 C331 1.414 1_565 S
C330 C333 1.499 . S
C331 H311 0.950 . S
C331 C330 1.414 1_545 S
C331 C332 1.374 . S
C332 H312 0.950 . S
C332 C328 1.385 1_545 S
C332 C331 1.374 . S
C333 C330 1.499 . S
C333 C334 1.373 1_565 S
C333 C335 1.389 . S
C334 H313 0.950 . S
C334 C333 1.373 1_545 S
C334 C350 1.377 . S
C335 C333 1.389 . S
C335 C336 1.524 . S
C335 C349 1.377 . S
C336 C335 1.524 . S
C336 C337 1.397 . S
C336 C341 1.363 . S
C337 H314 0.950 . S
C337 C336 1.397 . S
C337 C338 1.334 . S
C338 H315 0.950 . S
C338 C337 1.334 . S
C338 C339 1.287 . S
C339 C338 1.287 . S
C339 C340 1.524 . S
C339 H358 0.913 . S
C340 H316 0.950 . S
C340 C339 1.524 . S
C340 C341 1.415 . S
C341 H317 0.950 . S
C341 C336 1.363 . S
C341 C340 1.415 . S
C342 H318 0.951 . S
C342 C343 1.366 . S
C342 C344 1.388 . S
C343 C342 1.366 . S
C343 C347 1.385 1_545 S
C344 H319 0.951 . S
C344 C342 1.388 . S
C344 C345 1.366 . S
C345 C344 1.366 . S
C345 C346 1.414 1_545 S
C345 C348 1.498 1_545 S
C346 H320 0.950 . S
C346 C345 1.414 1_565 S
C346 C347 1.374 . S
C347 H321 0.950 . S
C347 C343 1.385 1_565 S
C347 C346 1.374 . S
C348 C345 1.498 1_565 S
C348 C349 1.377 . S
C348 C350 1.386 1_565 S
C349 H322 0.950 . S
C349 C335 1.377 . S
C349 C348 1.377 . S
C350 C334 1.377 . S
C350 C348 1.386 1_545 S
C350 C351 1.524 . S
C351 C350 1.524 . S
C351 C352 1.397 . S
C351 C356 1.363 . S
C352 H323 0.950 . S
C352 C351 1.397 . S
C352 C353 1.334 . S
C353 H324 0.950 . S
C353 C352 1.334 . S
C353 C354 1.287 . S
C354 C353 1.287 . S
C354 C355 1.524 . S
C354 H357 0.999 . S
C355 H325 0.950 . S
C355 C354 1.524 . S
C355 C356 1.415 . S
C356 H326 0.950 . S
C356 C351 1.363 . S
C356 C355 1.415 . S
H357 C354 0.999 . S
H358 C339 0.913 . S
H359 C377 0.951 . S
H360 C379 0.951 . S
H361 C381 0.950 . S
H362 C382 0.950 . S
H363 C384 0.950 . S
H364 C387 0.950 . S
H365 C388 0.950 . S
H366 C390 0.950 . S
H367 C391 0.950 . S
H368 C392 0.951 . S
H369 C394 0.951 . S
H370 C396 0.950 . S
H371 C397 0.950 . S
H372 C399 0.950 . S
H373 C402 0.950 . S
H374 C403 0.950 . S
H375 C405 0.950 . S
H376 C406 0.950 . S
C377 H359 0.951 . S
C377 C378 1.366 1_655 S
C377 C379 1.388 . S
C378 C377 1.366 1_455 S
C378 C382 1.385 . S
C379 H360 0.951 . S
C379 C377 1.388 . S
C379 C380 1.366 1_655 S
C380 C379 1.366 1_455 S
C380 C381 1.414 . S
C380 C383 1.499 . S
C381 H361 0.950 . S
C381 C380 1.414 . S
C381 C382 1.374 . S
C382 H362 0.950 . S
C382 C378 1.385 . S
C382 C381 1.374 . S
C383 C380 1.499 . S
C383 C384 1.373 1_455 S
C383 C385 1.389 . S
C384 H363 0.950 . S
C384 C383 1.373 1_655 S
C384 C400 1.377 . S
C385 C383 1.389 . S
C385 C386 1.524 . S
C385 C399 1.377 . S
C386 C385 1.524 . S
C386 C387 1.397 . S
C386 C391 1.363 . S
C387 H364 0.950 . S
C387 C386 1.397 . S
C387 C388 1.334 . S
C388 H365 0.950 . S
C388 C387 1.334 . S
C388 C389 1.287 . S
C389 C388 1.287 . S
C389 C390 1.524 . S
C389 H408 0.913 . S
C390 H366 0.950 . S
C390 C389 1.524 . S
C390 C391 1.415 . S
C391 H367 0.950 . S
C391 C386 1.363 . S
C391 C390 1.415 . S
C392 H368 0.951 . S
C392 C393 1.366 . S
C392 C394 1.388 . S
C393 C392 1.366 . S
C393 C397 1.384 1_455 S
C394 H369 0.951 . S
C394 C392 1.388 . S
C394 C395 1.366 1_455 S
C395 C394 1.366 1_655 S
C395 C396 1.414 . S
C395 C398 1.499 . S
C396 H370 0.950 . S
C396 C395 1.414 . S
C396 C397 1.374 . S
C397 H371 0.950 . S
C397 C393 1.384 1_655 S
C397 C396 1.374 . S
C398 C395 1.499 . S
C398 C399 1.373 1_655 S
C398 C400 1.389 . S
C399 H372 0.950 . S
C399 C385 1.377 . S
C399 C398 1.373 1_455 S
C400 C384 1.377 . S
C400 C398 1.389 . S
C400 C401 1.524 . S
C401 C400 1.524 . S
C401 C402 1.397 . S
C401 C406 1.363 . S
C402 H373 0.950 . S
C402 C401 1.397 . S
C402 C403 1.334 . S
C403 H374 0.950 . S
C403 C402 1.334 . S
C403 C404 1.287 . S
C404 C403 1.287 . S
C404 C405 1.524 . S
C404 H407 0.999 . S
C405 H375 0.950 . S
C405 C404 1.524 . S
C405 C406 1.415 . S
C406 H376 0.950 . S
C406 C401 1.363 . S
C406 C405 1.415 . S
H407 C404 0.999 . S
H408 C389 0.913 . S
H409 C427 0.957 . S
H410 C429 0.951 . S
H411 C431 0.950 . S
H412 C432 0.950 . S
H413 C434 0.950 . S
H414 C437 0.950 . S
H415 C438 0.950 . S
H416 C440 0.950 . S
H417 C441 0.950 . S
H418 C442 0.951 . S
H419 C444 0.951 . S
H420 C446 0.950 . S
H421 C447 0.950 . S
H422 C449 0.950 . S
H423 C452 0.950 . S
H424 C453 0.950 . S
H425 C455 0.950 . S
H426 C456 0.950 1_545 S
C427 H409 0.957 . S
C427 C428 1.360 1_565 S
C427 C429 1.388 . S
C428 C427 1.360 1_545 S
C428 C432 1.385 . S
C429 H410 0.951 . S
C429 C427 1.388 . S
C429 C430 1.366 1_565 S
C430 C429 1.366 1_545 S
C430 C431 1.414 . S
C430 C433 1.499 . S
C431 H411 0.950 . S
C431 C430 1.414 . S
C431 C432 1.374 . S
C432 H412 0.950 . S
C432 C428 1.385 . S
C432 C431 1.374 . S
C433 C430 1.499 . S
C433 C434 1.373 1_545 S
C433 C435 1.389 . S
C434 H413 0.950 . S
C434 C433 1.373 1_565 S
C434 C450 1.377 . S
C435 C433 1.389 . S
C435 C436 1.524 . S
C435 C449 1.377 . S
C436 C435 1.524 . S
C436 C437 1.397 . S
C436 C441 1.363 . S
C437 H414 0.950 . S
C437 C436 1.397 . S
C437 C438 1.334 . S
C438 H415 0.950 . S
C438 C437 1.334 . S
C438 C439 1.287 . S
C439 C438 1.287 . S
C439 C440 1.524 . S
C439 H458 0.913 . S
C440 H416 0.950 . S
C440 C439 1.524 . S
C440 C441 1.415 . S
C441 H417 0.950 . S
C441 C436 1.363 . S
C441 C440 1.415 . S
C442 H418 0.951 . S
C442 C443 1.366 . S
C442 C444 1.388 . S
C443 C442 1.366 . S
C443 C447 1.385 1_545 S
C444 H419 0.951 . S
C444 C442 1.388 . S
C444 C445 1.366 . S
C445 C444 1.366 . S
C445 C446 1.414 1_545 S
C445 C448 1.499 . S
C446 H420 0.950 . S
C446 C445 1.414 1_565 S
C446 C447 1.374 . S
C447 H421 0.950 . S
C447 C443 1.385 1_565 S
C447 C446 1.374 . S
C448 C445 1.499 . S
C448 C449 1.373 . S
C448 C450 1.389 1_545 S
C449 H422 0.950 . S
C449 C435 1.377 . S
C449 C448 1.373 . S
C450 C434 1.377 . S
C450 C448 1.389 1_565 S
C450 C451 1.524 . S
C451 C450 1.524 . S
C451 C452 1.397 . S
C451 C456 1.363 . S
C452 H423 0.950 . S
C452 C451 1.397 . S
C452 C453 1.334 . S
C453 H424 0.950 . S
C453 C452 1.334 . S
C453 C454 1.287 . S
C454 C453 1.287 . S
C454 C455 1.524 . S
C454 H457 0.999 . S
C455 H425 0.950 . S
C455 C454 1.524 . S
C455 C456 1.415 . S
C456 H426 0.950 1_565 S
C456 C451 1.363 . S
C456 C455 1.415 . S
H457 C454 0.999 . S
H458 C439 0.913 . S
C78 C30 1.280 . S
C93 C32 1.304 . S
C128 C1 1.540 . S
C143 C58 1.567 . S
C178 C0 1.266 1_455 S
C193 C44 1.317 . S
C228 C29 1.580 . S
C243 C46 1.608 . S
C278 C19 1.267 1_655 S
C293 C31 1.319 . S
C328 C20 1.540 . S
C343 C57 1.569 . S
C393 C43 1.305 1_455 S
C378 C10 1.275 . S
C428 C2 1.579 . S
C443 C45 1.612 . S
