# Generated by pormake.
# Topology hwx, (6,3)-cn, num edge types: 1
# Building blocks:
#     Node 0, Type 0, BuildingBlock: IZENUY_clean_sbu_0, # of connection points: 6
#     Node 1, Type 0, BuildingBlock: IZENUY_clean_sbu_0, # of connection points: 6
#     Node 2, Type 0, BuildingBlock: IZENUY_clean_sbu_0, # of connection points: 6
#     Node 3, Type 0, BuildingBlock: IZENUY_clean_sbu_0, # of connection points: 6
#     Node 4, Type 1, BuildingBlock: OLANEW_clean_sbu_2, # of connection points: 3
#     Node 5, Type 1, BuildingBlock: OLANEW_clean_sbu_2, # of connection points: 3
#     Node 6, Type 1, BuildingBlock: OLANEW_clean_sbu_2, # of connection points: 3
#     Node 7, Type 1, BuildingBlock: OLANEW_clean_sbu_2, # of connection points: 3
#     Node 8, Type 1, BuildingBlock: OLANEW_clean_sbu_2, # of connection points: 3
#     Node 9, Type 1, BuildingBlock: OLANEW_clean_sbu_2, # of connection points: 3
#     Node 10, Type 1, BuildingBlock: OLANEW_clean_sbu_2, # of connection points: 3
#     Node 11, Type 1, BuildingBlock: OLANEW_clean_sbu_2, # of connection points: 3
#     Edge 12, Type (0, 1), BuildingBlock: XIVTED_clean_linker_0, # of connection points: 2
#     Edge 13, Type (0, 1), BuildingBlock: XIVTED_clean_linker_0, # of connection points: 2
#     Edge 14, Type (0, 1), BuildingBlock: XIVTED_clean_linker_0, # of connection points: 2
#     Edge 15, Type (0, 1), BuildingBlock: XIVTED_clean_linker_0, # of connection points: 2
#     Edge 16, Type (0, 1), BuildingBlock: XIVTED_clean_linker_0, # of connection points: 2
#     Edge 17, Type (0, 1), BuildingBlock: XIVTED_clean_linker_0, # of connection points: 2
#     Edge 18, Type (0, 1), BuildingBlock: XIVTED_clean_linker_0, # of connection points: 2
#     Edge 19, Type (0, 1), BuildingBlock: XIVTED_clean_linker_0, # of connection points: 2
#     Edge 20, Type (0, 1), BuildingBlock: XIVTED_clean_linker_0, # of connection points: 2
#     Edge 21, Type (0, 1), BuildingBlock: XIVTED_clean_linker_0, # of connection points: 2
#     Edge 22, Type (0, 1), BuildingBlock: XIVTED_clean_linker_0, # of connection points: 2
#     Edge 23, Type (0, 1), BuildingBlock: XIVTED_clean_linker_0, # of connection points: 2
#     Edge 24, Type (0, 1), BuildingBlock: XIVTED_clean_linker_0, # of connection points: 2
#     Edge 25, Type (0, 1), BuildingBlock: XIVTED_clean_linker_0, # of connection points: 2
#     Edge 26, Type (0, 1), BuildingBlock: XIVTED_clean_linker_0, # of connection points: 2
#     Edge 27, Type (0, 1), BuildingBlock: XIVTED_clean_linker_0, # of connection points: 2
#     Edge 28, Type (0, 1), BuildingBlock: XIVTED_clean_linker_0, # of connection points: 2
#     Edge 29, Type (0, 1), BuildingBlock: XIVTED_clean_linker_0, # of connection points: 2
#     Edge 30, Type (0, 1), BuildingBlock: XIVTED_clean_linker_0, # of connection points: 2
#     Edge 31, Type (0, 1), BuildingBlock: XIVTED_clean_linker_0, # of connection points: 2
#     Edge 32, Type (0, 1), BuildingBlock: XIVTED_clean_linker_0, # of connection points: 2
#     Edge 33, Type (0, 1), BuildingBlock: XIVTED_clean_linker_0, # of connection points: 2
#     Edge 34, Type (0, 1), BuildingBlock: XIVTED_clean_linker_0, # of connection points: 2
#     Edge 35, Type (0, 1), BuildingBlock: XIVTED_clean_linker_0, # of connection points: 2
# Relax obj value: 0.014
# Max RMSD: 0.068
# Mean RMSD: 0.060
data_MOF--net-hwx--node1-IZENUY_clean_sbu_0--node2-OLANEW_clean_sbu_2--edge1-XIVTED_clean_linker_0
_symmetry_space_group_name_H-M    P1
_symmetry_Int_Tables_number       1
_symmetry_cell_setting            triclinic
loop_
_symmetry_equiv_pos_as_xyz
'x, y, z'
_cell_length_a     54.494664
_cell_length_b     54.383198
_cell_length_c     22.41208
_cell_angle_alpha  85.502886
_cell_angle_beta   94.522793
_cell_angle_gamma 90.03842
loop_
_atom_site_label
_atom_site_type_symbol
_atom_site_fract_x
_atom_site_fract_y
_atom_site_fract_z
_atom_type_partial_charge
Fe0 Fe 0.23931 0.22121 0.09902 0.0
Fe1 Fe 0.23346 0.22221 0.96148 0.0
O2 O 0.22665 0.20873 0.0328 0.0
Fe3 Fe 0.20705 0.18275 0.03773 0.0
O4 O 0.19383 0.19075 0.1066 0.0
O5 O 0.20909 0.22721 0.12288 0.0
O6 O 0.23903 0.25327 0.06605 0.0
C7 C 0.22686 0.26362 0.02039 0.0
C8 C 0.24212 0.16939 0.12813 0.0
O9 O 0.22023 0.25161 0.97595 0.0
C10 C 0.23635 0.17322 0.94339 0.0
O11 O 0.2704 0.21622 0.07993 0.0
O12 O 0.26474 0.23185 0.98635 0.0
O13 O 0.23091 0.16397 0.0796 0.0
O14 O 0.24193 0.19131 0.14375 0.0
C15 C 0.18284 0.21017 0.94434 0.0
O16 O 0.24718 0.19372 0.94292 0.0
O17 O 0.21674 0.1699 0.96972 0.0
C18 C 0.27892 0.22467 0.03192 0.0
O19 O 0.20341 0.21494 0.92336 0.0
O20 O 0.18188 0.19985 0.99641 0.0
C21 C 0.19273 0.21111 0.13007 0.0
Fe22 Fe 0.25969 0.71607 0.6173 0.0
Fe23 Fe 0.28708 0.67948 0.54837 0.0
O24 O 0.26671 0.70486 0.54831 0.0
Fe25 Fe 0.25332 0.71882 0.47936 0.0
O26 O 0.2528 0.75014 0.50503 0.0
O27 O 0.27136 0.74643 0.5962 0.0
O28 O 0.2904 0.70897 0.6558 0.0
C29 C 0.31092 0.70536 0.63464 0.0
C30 C 0.2139 0.71888 0.54747 0.0
O31 O 0.31181 0.69622 0.5849 0.0
C32 C 0.25208 0.66761 0.46169 0.0
O33 O 0.24735 0.68638 0.64299 0.0
O34 O 0.27857 0.6645 0.61998 0.0
O35 O 0.2226 0.71217 0.50091 0.0
O36 O 0.22793 0.72539 0.59117 0.0
C37 C 0.29995 0.71081 0.44891 0.0
O38 O 0.26358 0.66111 0.51147 0.0
O39 O 0.25151 0.69004 0.44125 0.0
C40 C 0.25919 0.66633 0.64694 0.0
O41 O 0.2995 0.68971 0.47696 0.0
O42 O 0.28316 0.72637 0.45283 0.0
C43 C 0.26445 0.7595 0.54888 0.0
Fe44 Fe 0.77094 0.79705 0.91579 0.0
Fe45 Fe 0.77371 0.79178 0.05343 0.0
O46 O 0.78177 0.80771 0.98578 0.0
Fe47 Fe 0.80078 0.8343 0.98783 0.0
O48 O 0.78639 0.8498 0.91776 0.0
O49 O 0.7551 0.82611 0.89324 0.0
O50 O 0.74187 0.78528 0.94108 0.0
C51 C 0.72992 0.78992 0.98497 0.0
C52 C 0.81996 0.81058 0.89863 0.0
O53 O 0.7409 0.79627 0.03301 0.0
C54 C 0.8221 0.80237 0.08379 0.0
O55 O 0.78586 0.76715 0.93364 0.0
O56 O 0.77345 0.76118 0.02472 0.0
O57 O 0.82408 0.81977 0.94836 0.0
O58 O 0.79817 0.80679 0.87769 0.0
C59 C 0.77061 0.84214 0.07666 0.0
O60 O 0.80582 0.78599 0.07882 0.0
O61 O 0.81864 0.82375 0.0579 0.0
C62 C 0.78286 0.75315 0.98016 0.0
O63 O 0.77259 0.81949 0.09425 0.0
O64 O 0.77892 0.85056 0.02812 0.0
C65 C 0.76548 0.84687 0.89035 0.0
Fe66 Fe 0.70119 0.34106 0.50631 0.0
Fe67 Fe 0.7257 0.29713 0.582 0.0
O68 O 0.71736 0.31266 0.51103 0.0
Fe69 Fe 0.72515 0.29976 0.44495 0.0
O70 O 0.74331 0.32664 0.42359 0.0
O71 O 0.71518 0.35394 0.43877 0.0
O72 O 0.726 0.35543 0.54985 0.0
C73 C 0.73482 0.34701 0.60108 0.0
C74 C 0.67725 0.31905 0.41343 0.0
O75 O 0.72991 0.32532 0.6212 0.0
C76 C 0.71136 0.25824 0.51009 0.0
O77 O 0.68432 0.33326 0.57283 0.0
O78 O 0.69375 0.29442 0.5988 0.0
O79 O 0.69792 0.31203 0.39864 0.0
O80 O 0.67541 0.32847 0.46251 0.0
C81 C 0.76726 0.28977 0.52613 0.0
O82 O 0.72319 0.26604 0.55564 0.0
O83 O 0.70741 0.27204 0.4623 0.0
C84 C 0.67911 0.31244 0.59792 0.0
O85 O 0.75811 0.29889 0.56941 0.0
O86 O 0.75386 0.28516 0.47953 0.0
C87 C 0.73505 0.34848 0.41697 0.0
O88 O 0.19329 0.523 0.95073 0.0
Cd89 Cd 0.1807 0.49466 0.03326 0.0
O90 O 0.23187 0.5242 0.98751 0.0
Cd91 Cd 0.22366 0.50922 0.07687 0.0
O92 O 0.22195 0.52492 0.16328 0.0
C93 C 0.21067 0.54549 0.16052 0.0
O94 O 0.19972 0.55407 0.10872 0.0
C95 C 0.21534 0.53001 0.94555 0.0
C96 C 0.19284 0.44518 0.0231 0.0
O97 O 0.17269 0.45453 0.99782 0.0
O98 O 0.20737 0.45927 0.05245 0.0
O99 O 0.95872 0.75687 0.44212 0.0
Cd100 Cd 0.98059 0.74939 0.54179 0.0
O101 O 0.96729 0.79636 0.42848 0.0
Cd102 Cd 0.98192 0.79723 0.52164 0.0
O103 O 0.96678 0.79796 0.60868 0.0
C104 C 0.94655 0.78639 0.61016 0.0
O105 O 0.93841 0.77516 0.56272 0.0
C106 C 0.95736 0.77704 0.40916 0.0
C107 C 0.03135 0.74336 0.54096 0.0
O108 O 0.01668 0.7253 0.53274 0.0
O109 O 0.02202 0.76438 0.5488 0.0
O110 O 0.79376 0.49262 0.10414 0.0
Cd111 Cd 0.80759 0.51795 0.01713 0.0
O112 O 0.82044 0.46385 0.08901 0.0
Cd113 Cd 0.82784 0.47901 0.99926 0.0
O114 O 0.81896 0.46857 0.90811 0.0
C115 C 0.82609 0.447 0.89944 0.0
O116 O 0.83965 0.43456 0.94266 0.0
C117 C 0.8043 0.47201 0.12055 0.0
C118 C 0.80197 0.56918 0.01369 0.0
O119 O 0.82 0.55814 0.04498 0.0
O120 O 0.78614 0.55597 0.98552 0.0
O121 O 0.01071 0.19857 0.6895 0.0
Cd122 Cd 0.98014 0.19049 0.60776 0.0
O123 O 0.02771 0.21683 0.61333 0.0
Cd124 Cd 0.05493 0.23588 0.56046 0.0
O125 O 0.07901 0.24068 0.48754 0.0
C126 C 0.07505 0.22602 0.44644 0.0
O127 O 0.05706 0.21003 0.45069 0.0
C128 C 0.02905 0.20983 0.66902 0.0
C129 C 0.93518 0.21485 0.60402 0.0
O130 O 0.93766 0.19246 0.62627 0.0
O131 O 0.95416 0.22601 0.58526 0.0
O132 O 0.6755 1.0004 0.63138 0.0
Cd133 Cd 0.6563 0.02885 0.55026 0.0
O134 O 0.69819 0.99077 0.56064 0.0
Cd135 Cd 0.72288 0.9691 0.51287 0.0
O136 O 0.73522 0.951 0.43677 0.0
C137 C 0.72009 0.93636 0.41212 0.0
O138 O 0.69878 0.93246 0.43477 0.0
C139 C 0.69232 0.98699 0.6144 0.0
C140 C 0.66977 0.0785 0.54685 0.0
O141 O 0.64966 0.07123 0.56845 0.0
O142 O 0.68384 0.06225 0.52864 0.0
O143 O 0.52671 0.29994 0.08682 0.0
Cd144 Cd 0.49993 0.29679 0.99484 0.0
O145 O 0.53754 0.33724 0.05366 0.0
Cd146 Cd 0.52008 0.33531 0.96347 0.0
O147 O 0.53272 0.32882 0.87638 0.0
C148 C 0.54479 0.309 0.87374 0.0
O149 O 0.54653 0.29293 0.92084 0.0
C150 C 0.53871 0.31966 0.09472 0.0
C151 C 0.45394 0.27638 0.01154 0.0
O152 O 0.47125 0.26334 0.99435 0.0
O153 O 0.4585 0.29885 0.02175 0.0
O154 O 0.29586 0.01969 0.45231 0.0
Cd155 Cd 0.30859 0.99109 0.53952 0.0
O156 O 0.31765 0.04898 0.4933 0.0
Cd157 Cd 0.32253 0.03171 0.58455 0.0
O158 O 0.31492 0.04617 0.6694 0.0
C159 C 0.29278 0.04637 0.68342 0.0
O160 O 0.27585 0.03548 0.64989 0.0
C161 C 0.30467 0.0414 0.44883 0.0
C162 C 0.2954 0.94165 0.53149 0.0
O163 O 0.31401 0.95067 0.50597 0.0
O164 O 0.28264 0.9561 0.55954 0.0
O165 O 0.48546 0.70398 0.88845 0.0
Cd166 Cd 0.51775 0.69298 0.96819 0.0
O167 O 0.46528 0.71812 0.95871 0.0
Cd168 Cd 0.43458 0.73007 0.00628 0.0
O169 O 0.41028 0.7348 0.07692 0.0
C170 C 0.41743 0.72463 0.1283 0.0
O171 O 0.43849 0.71259 0.13488 0.0
C172 C 0.46583 0.71325 0.90423 0.0
C173 C 0.56 0.72167 0.96695 0.0
O174 O 0.55679 0.70371 0.93343 0.0
O175 O 0.5429 0.72651 0.00048 0.0
H176 H 0.15295 0.18203 0.15183 0.0
H177 H 0.11352 0.25688 0.42234 0.0
H178 H 0.18894 0.24875 0.20364 0.0
H179 H 0.07305 0.19503 0.35605 0.0
H180 H 0.14088 0.2549 0.34138 0.0
H181 H 0.12297 0.18716 0.22517 0.0
C182 C 0.15452 0.19781 0.17849 0.0
C183 C 0.17364 0.21487 0.17188 0.0
C184 C 0.12592 0.24185 0.34439 0.0
C185 C 0.13935 0.22083 0.25619 0.0
C186 C 0.11032 0.24296 0.39063 0.0
C187 C 0.09105 0.226 0.39618 0.0
C188 C 0.12231 0.22358 0.30365 0.0
C189 C 0.08771 0.20842 0.35369 0.0
C190 C 0.13735 0.20076 0.22033 0.0
C191 C 0.17459 0.23508 0.20737 0.0
N192 N 0.10326 0.20758 0.30947 0.0
N193 N 0.15779 0.2374 0.2483 0.0
H194 H 0.21505 0.65911 0.6969 0.0
H195 H 0.26079 0.54073 0.90696 0.0
H196 H 0.28631 0.62542 0.68882 0.0
H197 H 0.18378 0.5588 0.86839 0.0
H198 H 0.27091 0.57283 0.83042 0.0
H199 H 0.20355 0.62398 0.76421 0.0
C200 C 0.22827 0.64437 0.7093 0.0
C201 C 0.25172 0.64528 0.6874 0.0
C202 C 0.25177 0.5696 0.83825 0.0
C203 C 0.23871 0.60514 0.76434 0.0
C204 C 0.24599 0.55127 0.88192 0.0
C205 C 0.22141 0.54709 0.89416 0.0
C206 C 0.2329 0.5842 0.80727 0.0
C207 C 0.20297 0.56132 0.86026 0.0
C208 C 0.22165 0.62427 0.74739 0.0
C209 C 0.26804 0.62554 0.70459 0.0
N210 N 0.20911 0.57946 0.81887 0.0
N211 N 0.2613 0.60641 0.74237 0.0
H212 H 0.85988 0.83402 0.1091 0.0
H213 H 0.92952 0.74063 0.35979 0.0
H214 H 0.83571 0.75951 0.15184 0.0
H215 H 0.94874 0.81736 0.32868 0.0
H216 H 0.89876 0.74548 0.27431 0.0
H217 H 0.89569 0.82653 0.18044 0.0
C218 C 0.86211 0.81603 0.13331 0.0
C219 C 0.84454 0.79745 0.12486 0.0
C220 C 0.90988 0.76118 0.28581 0.0
C221 C 0.88572 0.78875 0.2068 0.0
C222 C 0.92756 0.75842 0.33449 0.0
C223 C 0.94161 0.77869 0.35193 0.0
C224 C 0.9062 0.78439 0.25423 0.0
C225 C 0.93824 0.80125 0.31723 0.0
C226 C 0.88263 0.81177 0.17407 0.0
C227 C 0.84863 0.77446 0.15723 0.0
N228 N 0.92074 0.80353 0.27042 0.0
N229 N 0.86872 0.77081 0.19702 0.0
H230 H 0.76607 0.33182 0.6972 0.0
H231 H 0.79396 0.46533 0.80546 0.0
H232 H 0.73886 0.39771 0.59306 0.0
H233 H 0.83525 0.39993 0.87324 0.0
H234 H 0.77354 0.44189 0.72673 0.0
H235 H 0.79093 0.35719 0.76293 0.0
C236 C 0.76528 0.35169 0.68823 0.0
C237 C 0.75017 0.36268 0.63992 0.0
C238 C 0.7873 0.43282 0.75844 0.0
C239 C 0.77875 0.39196 0.71526 0.0
C240 C 0.79898 0.44617 0.80333 0.0
C241 C 0.81615 0.4345 0.84646 0.0
C242 C 0.79269 0.40762 0.75719 0.0
C243 C 0.82199 0.40967 0.84141 0.0
C244 C 0.77964 0.36618 0.72559 0.0
C245 C 0.7502 0.3885 0.62998 0.0
N246 N 0.81009 0.39702 0.79812 0.0
N247 N 0.7641 0.40234 0.66779 0.0
H248 H 0.67745 0.32593 0.29222 0.0
H249 H 0.5406 0.29185 0.20332 0.0
H250 H 0.62852 0.31315 0.43362 0.0
H251 H 0.57746 0.35086 0.10626 0.0
H252 H 0.5734 0.29249 0.28547 0.0
H253 H 0.6419 0.32738 0.21826 0.0
C254 C 0.6592 0.32328 0.30761 0.0
C255 C 0.65582 0.31946 0.36896 0.0
C256 C 0.57397 0.30543 0.24632 0.0
C257 C 0.61528 0.32078 0.28473 0.0
C258 C 0.55538 0.30506 0.19956 0.0
C259 C 0.55634 0.3213 0.14787 0.0
C260 C 0.59384 0.32161 0.2402 0.0
C261 C 0.57591 0.33805 0.14525 0.0
C262 C 0.63898 0.32426 0.26551 0.0
C263 C 0.63178 0.31628 0.3866 0.0
N264 N 0.59408 0.33749 0.19028 0.0
N265 N 0.61231 0.31674 0.3445 0.0
H266 H 0.28059 0.17096 0.89368 0.0
H267 H 0.24797 0.04873 0.73002 0.0
H268 H 0.21346 0.13018 0.91579 0.0
H269 H 0.32085 0.08 0.74285 0.0
H270 H 0.23486 0.07834 0.79789 0.0
H271 H 0.29541 0.13818 0.83685 0.0
C272 C 0.26894 0.15514 0.88654 0.0
C273 C 0.24566 0.15342 0.90923 0.0
C274 C 0.25378 0.07856 0.78633 0.0
C275 C 0.26257 0.11579 0.84424 0.0
C276 C 0.2613 0.06164 0.74762 0.0
C277 C 0.28551 0.06196 0.73043 0.0
C278 C 0.27052 0.09615 0.80748 0.0
C279 C 0.30199 0.07908 0.7548 0.0
C280 C 0.27748 0.13636 0.85436 0.0
C281 C 0.2315 0.13235 0.89902 0.0
N282 N 0.29412 0.09566 0.79155 0.0
N283 N 0.2401 0.11445 0.86695 0.0
H284 H 0.30021 0.74781 0.35818 0.0
H285 H 0.42521 0.70053 0.23973 0.0
H286 H 0.34257 0.68542 0.44126 0.0
H287 H 0.37417 0.74996 0.13285 0.0
H288 H 0.39815 0.69966 0.32151 0.0
H289 H 0.33031 0.75363 0.28274 0.0
C290 C 0.31592 0.73547 0.36086 0.0
C291 C 0.31876 0.71593 0.40569 0.0
C292 C 0.39291 0.71077 0.28025 0.0
C293 C 0.35318 0.72255 0.31985 0.0
C294 C 0.40837 0.71132 0.23354 0.0
C295 C 0.40183 0.72517 0.17916 0.0
C296 C 0.37079 0.72427 0.27273 0.0
C297 C 0.37983 0.73887 0.17386 0.0
C298 C 0.33302 0.73876 0.3177 0.0
C299 C 0.33949 0.70055 0.40709 0.0
N300 N 0.36503 0.73802 0.22004 0.0
N301 N 0.35586 0.70415 0.36471 0.0
H302 H 0.71687 0.85398 0.85113 0.0
H303 H 0.73955 0.96914 0.62059 0.0
H304 H 0.78863 0.88654 0.83731 0.0
H305 H 0.67065 0.95864 0.70124 0.0
H306 H 0.75737 0.93484 0.68785 0.0
H307 H 0.69892 0.88835 0.7842 0.0
C308 C 0.72884 0.8683 0.83389 0.0
C309 C 0.75427 0.86742 0.84992 0.0
C310 C 0.73835 0.94007 0.69072 0.0
C311 C 0.73394 0.9065 0.77289 0.0
C312 C 0.72813 0.95948 0.65208 0.0
C313 C 0.70355 0.9666 0.65511 0.0
C314 C 0.72374 0.9274 0.73185 0.0
C315 C 0.68971 0.95376 0.69761 0.0
C316 C 0.71859 0.88793 0.79598 0.0
C317 C 0.76892 0.88655 0.82643 0.0
N318 N 0.69991 0.93463 0.73395 0.0
N319 N 0.75858 0.90518 0.78873 0.0
H320 H 0.81844 0.78131 0.80601 0.0
H321 H 0.95268 0.81453 0.70739 0.0
H322 H 0.86793 0.82726 0.90784 0.0
H323 H 0.90477 0.76056 0.6284 0.0
H324 H 0.92344 0.81877 0.78404 0.0
H325 H 0.85106 0.77314 0.74263 0.0
C326 C 0.83623 0.78975 0.815 0.0
C327 C 0.84037 0.80524 0.86189 0.0
C328 C 0.91953 0.80584 0.75023 0.0
C329 C 0.87809 0.79588 0.78903 0.0
C330 C 0.9362 0.80337 0.70658 0.0
C331 C 0.931 0.78737 0.66102 0.0
C332 C 0.89759 0.79224 0.74795 0.0
C333 C 0.90943 0.77334 0.66215 0.0
C334 C 0.85495 0.78496 0.77888 0.0
C335 C 0.86394 0.81531 0.87193 0.0
N336 N 0.89349 0.77625 0.70451 0.0
N337 N 0.88193 0.81064 0.83533 0.0
H338 H 0.77732 0.34404 0.35909 0.0
H339 H 0.76646 0.47982 0.19155 0.0
H340 H 0.72072 0.39647 0.38738 0.0
H341 H 0.82395 0.42774 0.16752 0.0
H342 H 0.75107 0.45073 0.26879 0.0
H343 H 0.79606 0.37545 0.29328 0.0
C344 C 0.76885 0.36215 0.35163 0.0
C345 C 0.74727 0.36749 0.37854 0.0
C346 C 0.76718 0.44578 0.24693 0.0
C347 C 0.76869 0.40364 0.30313 0.0
C348 C 0.77603 0.46243 0.20296 0.0
C349 C 0.79644 0.4562 0.17259 0.0
C350 C 0.77877 0.42269 0.26054 0.0
C351 C 0.80807 0.43335 0.18935 0.0
C352 C 0.77959 0.38011 0.31408 0.0
C353 C 0.73725 0.39139 0.3674 0.0
N354 N 0.79897 0.4174 0.23176 0.0
N355 N 0.74796 0.4085 0.33038 0.0
H356 H 0.1354 0.20604 0.9761 0.0
H357 H 0.0768 0.21309 0.63846 0.0
H358 H 0.17764 0.22201 0.82273 0.0
H359 H 0.03297 0.21264 0.79058 0.0
H360 H 0.1138 0.21691 0.70514 0.0
H361 H 0.09767 0.20872 0.90937 0.0
C362 C 0.13675 0.21023 0.92842 0.0
C363 C 0.15978 0.2136 0.90495 0.0
C364 C 0.09608 0.2164 0.72392 0.0
C365 C 0.11659 0.21658 0.82825 0.0
C366 C 0.07483 0.2146 0.68559 0.0
C367 C 0.05161 0.21334 0.70859 0.0
C368 C 0.09421 0.21647 0.78602 0.0
C369 C 0.05049 0.21376 0.77087 0.0
C370 C 0.11518 0.21181 0.89036 0.0
C371 C 0.16034 0.21919 0.84284 0.0
N372 N 0.07148 0.2152 0.80745 0.0
N373 N 0.13909 0.22029 0.80662 0.0
H374 H 0.22206 0.67441 0.35808 0.0
H375 H 0.2352 0.53568 0.27192 0.0
H376 H 0.25909 0.61737 0.4768 0.0
H377 H 0.19074 0.59125 0.16575 0.0
H378 H 0.24207 0.56426 0.35068 0.0
H379 H 0.20845 0.64337 0.29011 0.0
C380 C 0.22723 0.65532 0.37006 0.0
C381 C 0.24197 0.64856 0.42298 0.0
C382 C 0.2306 0.57008 0.3104 0.0
C383 C 0.22652 0.61282 0.34496 0.0
C384 C 0.22664 0.55376 0.26544 0.0
C385 C 0.21257 0.56115 0.21184 0.0
C386 C 0.22053 0.59401 0.30151 0.0
C387 C 0.20189 0.58479 0.20604 0.0
C388 C 0.21939 0.63757 0.33123 0.0
C389 C 0.24786 0.62347 0.43636 0.0
N390 N 0.20628 0.60042 0.24998 0.0
N391 N 0.24033 0.60655 0.39729 0.0
H392 H 0.35748 0.69279 0.61037 0.0
H393 H 0.42461 0.74284 0.90654 0.0
H394 H 0.31782 0.72678 0.74198 0.0
H395 H 0.45684 0.68985 0.80181 0.0
H396 H 0.38691 0.74261 0.83968 0.0
H397 H 0.39563 0.69737 0.67263 0.0
C398 C 0.35675 0.70132 0.65228 0.0
C399 C 0.33429 0.7092 0.67118 0.0
C400 C 0.40225 0.73099 0.83159 0.0
C401 C 0.37815 0.71459 0.74274 0.0
C402 C 0.4237 0.73087 0.87024 0.0
C403 C 0.44366 0.71564 0.86129 0.0
C404 C 0.40094 0.71611 0.78302 0.0
C405 C 0.44186 0.7017 0.81098 0.0
C406 C 0.3786 0.70388 0.68788 0.0
C407 C 0.33465 0.72025 0.72586 0.0
N408 N 0.42087 0.70219 0.77399 0.0
N409 N 0.35625 0.72258 0.75982 0.0
H410 H 0.78269 0.89054 0.09226 0.0
H411 H 0.69505 0.89907 0.36028 0.0
H412 H 0.73623 0.83136 0.15541 0.0
H413 H 0.75857 0.94568 0.34141 0.0
H414 H 0.70524 0.87837 0.27268 0.0
H415 H 0.76908 0.91547 0.17076 0.0
C416 C 0.76936 0.88298 0.12198 0.0
C417 C 0.76068 0.85884 0.11777 0.0
C418 C 0.71693 0.89317 0.28762 0.0
C419 C 0.74511 0.88705 0.20692 0.0
C420 C 0.71112 0.90501 0.33764 0.0
C421 C 0.7261 0.924 0.35854 0.0
C422 C 0.73775 0.90047 0.25776 0.0
C423 C 0.74665 0.93096 0.32713 0.0
C424 C 0.76177 0.89709 0.16692 0.0
C425 C 0.74356 0.84981 0.15755 0.0
N426 N 0.7519 0.91919 0.27822 0.0
N427 N 0.73637 0.86389 0.20042 0.0
H428 H 0.64188 0.34601 0.59815 0.0
H429 H 0.57494 0.27025 0.85735 0.0
H430 H 0.66503 0.27332 0.67269 0.0
H431 H 0.55036 0.34149 0.776 0.0
H432 H 0.6053 0.26896 0.7831 0.0
H433 H 0.60603 0.34286 0.65661 0.0
C434 C 0.63942 0.32934 0.62677 0.0
C435 C 0.65671 0.31003 0.63113 0.0
C436 C 0.59308 0.28474 0.78106 0.0
C437 C 0.61553 0.30629 0.69829 0.0
C438 C 0.57568 0.28547 0.82337 0.0
C439 C 0.56029 0.30617 0.82342 0.0
C440 C 0.5952 0.30491 0.73867 0.0
C441 C 0.56198 0.32526 0.77805 0.0
C442 C 0.61885 0.32752 0.66 0.0
C443 C 0.65231 0.28875 0.66832 0.0
N444 N 0.57933 0.32429 0.73797 0.0
N445 N 0.63226 0.28754 0.70089 0.0
H446 H 0.23749 0.11924 0.12297 0.0
H447 H 0.32153 0.08831 0.42851 0.0
H448 H 0.27264 0.1741 0.22935 0.0
H449 H 0.27384 0.03455 0.34776 0.0
H450 H 0.30841 0.11855 0.3466 0.0
H451 H 0.25492 0.08689 0.1963 0.0
C452 C 0.24897 0.1245 0.16151 0.0
C453 C 0.25345 0.14948 0.17025 0.0
C454 C 0.30088 0.10012 0.34653 0.0
C455 C 0.27352 0.11253 0.25398 0.0
C456 C 0.30842 0.08275 0.39329 0.0
C457 C 0.2986 0.05883 0.39547 0.0
C458 C 0.28338 0.09367 0.30121 0.0
C459 C 0.28181 0.05278 0.34811 0.0
C460 C 0.25886 0.10601 0.20337 0.0
C461 C 0.2685 0.15515 0.22098 0.0
N462 N 0.2746 0.07015 0.30303 0.0
N463 N 0.27795 0.13684 0.26086 0.0
H464 H 0.19625 0.29185 0.93875 0.0
H465 H 0.23097 0.41864 0.08355 0.0
H466 H 0.24653 0.29688 0.09608 0.0
H467 H 0.16839 0.41143 0.95567 0.0
H468 H 0.23973 0.37471 0.08083 0.0
H469 H 0.18844 0.33631 0.93682 0.0
C470 C 0.20571 0.30228 0.97274 0.0
C471 C 0.22206 0.29056 0.01769 0.0
C472 C 0.22409 0.38273 0.05329 0.0
C473 C 0.21328 0.34143 0.01555 0.0
C474 C 0.21912 0.40785 0.05467 0.0
C475 C 0.19886 0.41875 0.01993 0.0
C476 C 0.20882 0.36835 0.01657 0.0
C477 C 0.18415 0.4038 0.98338 0.0
C478 C 0.20119 0.32764 0.9717 0.0
C479 C 0.23371 0.30504 0.06069 0.0
N480 N 0.18943 0.37937 0.98261 0.0
N481 N 0.22914 0.32967 0.05844 0.0
H482 H 0.17815 0.69681 0.47811 0.0
H483 H 0.06747 0.77397 0.58306 0.0
H484 H 0.18824 0.74699 0.61794 0.0
H485 H 0.05655 0.70493 0.50219 0.0
H486 H 0.11205 0.76753 0.58646 0.0
H487 H 0.13358 0.70251 0.47703 0.0
C488 C 0.17099 0.70901 0.50862 0.0
C489 C 0.18692 0.72147 0.54815 0.0
C490 C 0.09986 0.75379 0.5681 0.0
C491 C 0.13602 0.72824 0.54664 0.0
C492 C 0.07445 0.75751 0.56584 0.0
C493 C 0.0583 0.73995 0.54231 0.0
C494 C 0.10917 0.73257 0.5458 0.0
C495 C 0.06834 0.7189 0.52086 0.0
C496 C 0.14557 0.71218 0.50809 0.0
C497 C 0.17662 0.73695 0.58691 0.0
N498 N 0.09315 0.71586 0.52278 0.0
N499 N 0.15181 0.74007 0.58484 0.0
H500 H 0.78126 0.72342 0.88609 0.0
H501 H 0.8238 0.60145 0.08893 0.0
H502 H 0.79619 0.7221 0.07825 0.0
H503 H 0.77597 0.59892 0.92667 0.0
H504 H 0.8209 0.64657 0.07877 0.0
H505 H 0.7867 0.67833 0.89298 0.0
C506 C 0.78596 0.71369 0.92952 0.0
C507 C 0.78814 0.72643 0.98173 0.0
C508 C 0.81105 0.6361 0.04544 0.0
C509 C 0.79455 0.6752 0.98979 0.0
C510 C 0.81271 0.61038 0.05117 0.0
C511 C 0.79997 0.59642 0.0088 0.0
C512 C 0.79698 0.64797 0.99635 0.0
C513 C 0.7859 0.60898 0.96065 0.0
C514 C 0.78888 0.68802 0.93346 0.0
C515 C 0.79413 0.71294 0.03697 0.0
N516 N 0.78489 0.63407 0.95549 0.0
N517 N 0.7972 0.68809 0.03954 0.0
H518 H 0.78558 0.24949 0.47959 0.0
H519 H 0.92464 0.26428 0.59698 0.0
H520 H 0.8064 0.30774 0.59333 0.0
H521 H 0.89039 0.1928 0.59275 0.0
H522 H 0.88371 0.28372 0.57796 0.0
H523 H 0.82687 0.23161 0.5008 0.0
C524 C 0.79896 0.25869 0.50837 0.0
C525 C 0.79266 0.28011 0.53479 0.0
C526 C 0.88528 0.26379 0.58159 0.0
C527 C 0.83975 0.25987 0.55872 0.0
C528 C 0.90851 0.25272 0.59229 0.0
C529 C 0.9108 0.22693 0.59661 0.0
C530 C 0.86444 0.24893 0.57339 0.0
C531 C 0.88939 0.21275 0.59017 0.0
C532 C 0.82238 0.24837 0.5208 0.0
C533 C 0.8106 0.29115 0.57229 0.0
N534 N 0.86709 0.22395 0.57809 0.0
N535 N 0.83348 0.28098 0.58289 0.0
H536 H 0.67083 0.2367 0.45559 0.0
H537 H 0.71554 0.09882 0.54337 0.0
H538 H 0.73759 0.21982 0.56785 0.0
H539 H 0.63856 0.11825 0.53633 0.0
H540 H 0.7257 0.14281 0.53177 0.0
H541 H 0.66026 0.19252 0.46373 0.0
C542 C 0.68331 0.22367 0.48143 0.0
C543 C 0.70502 0.23182 0.51134 0.0
C544 C 0.7066 0.13737 0.53279 0.0
C545 C 0.69334 0.18168 0.51993 0.0
C546 C 0.7008 0.11235 0.53932 0.0
C547 C 0.6762 0.10494 0.54124 0.0
C548 C 0.68764 0.15506 0.52652 0.0
C549 C 0.65778 0.12323 0.53567 0.0
C550 C 0.67722 0.19862 0.48635 0.0
C551 C 0.72056 0.21428 0.54454 0.0
N552 N 0.66385 0.14749 0.52801 0.0
N553 N 0.71452 0.19001 0.54757 0.0
H554 H 0.31082 0.23492 0.1266 0.0
H555 H 0.43171 0.23965 0.95092 0.0
H556 H 0.30742 0.22554 0.9367 0.0
H557 H 0.41977 0.29004 0.08536 0.0
H558 H 0.38928 0.22488 0.95716 0.0
H559 H 0.35443 0.24569 0.12403 0.0
C560 C 0.31934 0.23484 0.08454 0.0
C561 C 0.30554 0.22947 0.03165 0.0
C562 C 0.3961 0.23905 0.98543 0.0
C563 C 0.35526 0.24138 0.02881 0.0
C564 C 0.42025 0.24738 0.98219 0.0
C565 C 0.42913 0.26613 0.01757 0.0
C566 C 0.38109 0.24912 0.02545 0.0
C567 C 0.41353 0.27566 0.05709 0.0
C568 C 0.34411 0.2411 0.08312 0.0
C569 C 0.31743 0.22977 0.97829 0.0
N570 N 0.39027 0.26693 0.06028 0.0
N571 N 0.34171 0.23553 0.97823 0.0
H572 H 0.26947 0.78908 0.64237 0.0
H573 H 0.30812 0.90944 0.451 0.0
H574 H 0.26853 0.79124 0.44933 0.0
H575 H 0.26962 0.91342 0.61099 0.0
H576 H 0.29976 0.865 0.45388 0.0
H577 H 0.27585 0.83381 0.63663 0.0
C578 C 0.27068 0.79896 0.59882 0.0
C579 C 0.2684 0.78647 0.5462 0.0
C580 C 0.29306 0.87569 0.48808 0.0
C581 C 0.27601 0.83746 0.53952 0.0
C582 C 0.29786 0.90097 0.48659 0.0
C583 C 0.28949 0.91511 0.53076 0.0
C584 C 0.28036 0.8644 0.53492 0.0
C585 C 0.27627 0.90322 0.57587 0.0
C586 C 0.27418 0.82445 0.5956 0.0
C587 C 0.27002 0.8002 0.49093 0.0
N588 N 0.27235 0.87849 0.57721 0.0
N589 N 0.27397 0.82495 0.48903 0.0
H590 H 0.70107 0.77973 0.88554 0.0
H591 H 0.57869 0.75169 0.05236 0.0
H592 H 0.69774 0.78817 0.07479 0.0
H593 H 0.59428 0.72337 0.8847 0.0
H594 H 0.61897 0.7721 0.05636 0.0
H595 H 0.65842 0.76668 0.87965 0.0
C596 C 0.69134 0.77896 0.92598 0.0
C597 C 0.70321 0.78466 0.98106 0.0
C598 C 0.61342 0.76154 0.01862 0.0
C599 C 0.65406 0.76963 0.97435 0.0
C600 C 0.59045 0.74999 0.01612 0.0
C601 C 0.58322 0.73572 0.96823 0.0
C602 C 0.62899 0.75903 0.97244 0.0
C603 C 0.59917 0.73404 0.92264 0.0
C604 C 0.66694 0.77146 0.92249 0.0
C605 C 0.6894 0.78372 0.03154 0.0
N606 N 0.62127 0.74554 0.9259 0.0
N607 N 0.66553 0.77611 0.02711 0.0
loop_
_geom_bond_atom_site_label_1
_geom_bond_atom_site_label_2
_geom_bond_distance
_geom_bond_site_symmetry_2
_ccdc_geom_bond_type
Fe0 O2 1.918 . S
Fe0 O5 1.997 . S
Fe0 O6 2.002 . S
Fe0 O11 1.976 . S
Fe0 O14 1.996 . S
Fe1 O2 1.918 1_556 S
Fe1 O9 1.997 . S
Fe1 O12 1.996 . S
Fe1 O16 1.976 . S
Fe1 O19 2.002 . S
O2 Fe0 1.918 . S
O2 Fe1 1.918 1_554 S
O2 Fe3 1.918 . S
Fe3 O2 1.918 . S
Fe3 O4 2.002 . S
Fe3 O13 1.976 . S
Fe3 O17 1.996 1_554 S
Fe3 O20 1.997 1_554 S
O4 Fe3 2.002 . S
O4 C21 1.295 . S
O5 Fe0 1.997 . S
O5 C21 1.235 . S
O6 Fe0 2.002 . S
O6 C7 1.295 . S
C7 O6 1.295 . S
C7 O9 1.235 1_554 S
C8 O13 1.287 . S
C8 O14 1.255 . S
O9 Fe1 1.997 . S
O9 C7 1.235 1_556 S
C10 O16 1.287 . S
C10 O17 1.255 . S
O11 Fe0 1.976 . S
O11 C18 1.287 . S
O12 Fe1 1.996 . S
O12 C18 1.255 1_556 S
O13 Fe3 1.976 . S
O13 C8 1.287 . S
O14 Fe0 1.996 . S
O14 C8 1.255 . S
C15 O19 1.295 . S
C15 O20 1.235 . S
O16 Fe1 1.976 . S
O16 C10 1.287 . S
O17 Fe3 1.996 1_556 S
O17 C10 1.255 . S
C18 O11 1.287 . S
C18 O12 1.255 1_554 S
O19 Fe1 2.002 . S
O19 C15 1.295 . S
O20 Fe3 1.997 1_556 S
O20 C15 1.235 . S
C21 O4 1.295 . S
C21 O5 1.235 . S
Fe22 O24 1.918 . S
Fe22 O27 1.997 . S
Fe22 O28 2.002 . S
Fe22 O33 1.976 . S
Fe22 O36 1.996 . S
Fe23 O24 1.918 . S
Fe23 O31 1.997 . S
Fe23 O34 1.996 . S
Fe23 O38 1.976 . S
Fe23 O41 2.002 . S
O24 Fe22 1.918 . S
O24 Fe23 1.918 . S
O24 Fe25 1.918 . S
Fe25 O24 1.918 . S
Fe25 O26 2.002 . S
Fe25 O35 1.976 . S
Fe25 O39 1.996 . S
Fe25 O42 1.997 . S
O26 Fe25 2.002 . S
O26 C43 1.295 . S
O27 Fe22 1.997 . S
O27 C43 1.235 . S
O28 Fe22 2.002 . S
O28 C29 1.295 . S
C29 O28 1.295 . S
C29 O31 1.235 . S
C30 O35 1.287 . S
C30 O36 1.255 . S
O31 Fe23 1.997 . S
O31 C29 1.235 . S
C32 O38 1.287 . S
C32 O39 1.255 . S
O33 Fe22 1.976 . S
O33 C40 1.287 . S
O34 Fe23 1.996 . S
O34 C40 1.255 . S
O35 Fe25 1.976 . S
O35 C30 1.287 . S
O36 Fe22 1.996 . S
O36 C30 1.255 . S
C37 O41 1.295 . S
C37 O42 1.235 . S
O38 Fe23 1.976 . S
O38 C32 1.287 . S
O39 Fe25 1.996 . S
O39 C32 1.255 . S
C40 O33 1.287 . S
C40 O34 1.255 . S
O41 Fe23 2.002 . S
O41 C37 1.295 . S
O42 Fe25 1.997 . S
O42 C37 1.235 . S
C43 O26 1.295 . S
C43 O27 1.235 . S
Fe44 O46 1.918 1_556 S
Fe44 O49 1.997 . S
Fe44 O50 2.002 . S
Fe44 O55 1.976 . S
Fe44 O58 1.996 . S
Fe45 O46 1.918 . S
Fe45 O53 1.997 . S
Fe45 O56 1.996 . S
Fe45 O60 1.976 . S
Fe45 O63 2.002 . S
O46 Fe44 1.918 1_554 S
O46 Fe45 1.918 . S
O46 Fe47 1.918 . S
Fe47 O46 1.918 . S
Fe47 O48 2.002 1_554 S
Fe47 O57 1.976 1_554 S
Fe47 O61 1.996 . S
Fe47 O64 1.997 . S
O48 Fe47 2.002 1_556 S
O48 C65 1.295 . S
O49 Fe44 1.997 . S
O49 C65 1.235 . S
O50 Fe44 2.002 . S
O50 C51 1.295 1_556 S
C51 O50 1.295 1_554 S
C51 O53 1.235 . S
C52 O57 1.287 . S
C52 O58 1.255 . S
O53 Fe45 1.997 . S
O53 C51 1.235 . S
C54 O60 1.287 . S
C54 O61 1.255 . S
O55 Fe44 1.976 . S
O55 C62 1.287 1_556 S
O56 Fe45 1.996 . S
O56 C62 1.255 . S
O57 Fe47 1.976 1_556 S
O57 C52 1.287 . S
O58 Fe44 1.996 . S
O58 C52 1.255 . S
C59 O63 1.295 . S
C59 O64 1.235 . S
O60 Fe45 1.976 . S
O60 C54 1.287 . S
O61 Fe47 1.996 . S
O61 C54 1.255 . S
C62 O55 1.287 1_554 S
C62 O56 1.255 . S
O63 Fe45 2.002 . S
O63 C59 1.295 . S
O64 Fe47 1.997 . S
O64 C59 1.235 . S
C65 O48 1.295 . S
C65 O49 1.235 . S
Fe66 O68 1.918 . S
Fe66 O71 1.997 . S
Fe66 O72 2.002 . S
Fe66 O77 1.976 . S
Fe66 O80 1.996 . S
Fe67 O68 1.918 . S
Fe67 O75 1.997 . S
Fe67 O78 1.996 . S
Fe67 O82 1.976 . S
Fe67 O85 2.002 . S
O68 Fe66 1.918 . S
O68 Fe67 1.918 . S
O68 Fe69 1.918 . S
Fe69 O68 1.918 . S
Fe69 O70 2.002 . S
Fe69 O79 1.976 . S
Fe69 O83 1.996 . S
Fe69 O86 1.997 . S
O70 Fe69 2.002 . S
O70 C87 1.295 . S
O71 Fe66 1.997 . S
O71 C87 1.235 . S
O72 Fe66 2.002 . S
O72 C73 1.295 . S
C73 O72 1.295 . S
C73 O75 1.235 . S
C74 O79 1.287 . S
C74 O80 1.255 . S
O75 Fe67 1.997 . S
O75 C73 1.235 . S
C76 O82 1.287 . S
C76 O83 1.255 . S
O77 Fe66 1.976 . S
O77 C84 1.287 . S
O78 Fe67 1.996 . S
O78 C84 1.255 . S
O79 Fe69 1.976 . S
O79 C74 1.287 . S
O80 Fe66 1.996 . S
O80 C74 1.255 . S
C81 O85 1.295 . S
C81 O86 1.235 . S
O82 Fe67 1.976 . S
O82 C76 1.287 . S
O83 Fe69 1.996 . S
O83 C76 1.255 . S
C84 O77 1.287 . S
C84 O78 1.255 . S
O85 Fe67 2.002 . S
O85 C81 1.295 . S
O86 Fe69 1.997 . S
O86 C81 1.235 . S
C87 O70 1.295 . S
C87 O71 1.235 . S
O88 Cd89 2.300 1_556 S
O88 C95 1.275 . S
Cd89 O88 2.300 1_554 S
Cd89 O97 2.381 1_554 S
Cd89 O98 2.378 . S
O90 Cd91 2.385 1_556 S
O90 C95 1.255 . S
Cd91 O90 2.385 1_554 S
Cd91 O92 2.317 . S
O92 Cd91 2.317 . S
O92 C93 1.232 . S
C93 O92 1.232 . S
C93 O94 1.218 . S
O94 C93 1.218 . S
C95 O88 1.275 . S
C95 O90 1.255 . S
C96 O97 1.258 1_554 S
C96 O98 1.256 . S
O97 Cd89 2.381 1_556 S
O97 C96 1.258 1_556 S
O98 Cd89 2.378 . S
O98 C96 1.256 . S
O99 Cd100 2.300 1_655 S
O99 C106 1.275 . S
Cd100 O99 2.300 1_455 S
Cd100 O108 2.381 . S
Cd100 O109 2.378 . S
O101 Cd102 2.385 . S
O101 C106 1.255 . S
Cd102 O101 2.385 . S
Cd102 O103 2.317 . S
O103 Cd102 2.317 . S
O103 C104 1.232 . S
C104 O103 1.232 . S
C104 O105 1.218 . S
O105 C104 1.218 . S
C106 O99 1.275 . S
C106 O101 1.255 . S
C107 O108 1.258 . S
C107 O109 1.256 . S
O108 Cd100 2.381 . S
O108 C107 1.258 . S
O109 Cd100 2.378 . S
O109 C107 1.256 . S
O110 Cd111 2.300 . S
O110 C117 1.275 . S
Cd111 O110 2.300 . S
Cd111 O119 2.381 . S
Cd111 O120 2.378 . S
O112 Cd113 2.381 1_554 S
O112 C117 1.255 . S
Cd113 O112 2.381 1_556 S
Cd113 O114 2.321 . S
O114 Cd113 2.321 . S
O114 C115 1.232 . S
C115 O114 1.232 . S
C115 O116 1.218 . S
O116 C115 1.218 . S
C117 O110 1.275 . S
C117 O112 1.255 . S
C118 O119 1.258 . S
C118 O120 1.256 . S
O119 Cd111 2.381 . S
O119 C118 1.258 . S
O120 Cd111 2.378 . S
O120 C118 1.256 . S
O121 Cd122 2.300 1_455 S
O121 C128 1.275 . S
Cd122 O121 2.300 1_655 S
Cd122 O130 2.381 . S
Cd122 O131 2.378 . S
O123 Cd124 2.385 . S
O123 C128 1.255 . S
Cd124 O123 2.385 . S
Cd124 O125 2.317 . S
O125 Cd124 2.317 . S
O125 C126 1.232 . S
C126 O125 1.232 . S
C126 O127 1.218 . S
O127 C126 1.218 . S
C128 O121 1.275 . S
C128 O123 1.255 . S
C129 O130 1.258 . S
C129 O131 1.256 . S
O130 Cd122 2.381 . S
O130 C129 1.258 . S
O131 Cd122 2.378 . S
O131 C129 1.256 . S
O132 Cd133 2.300 1_565 S
O132 C139 1.275 . S
Cd133 O132 2.300 1_545 S
Cd133 O141 2.381 . S
Cd133 O142 2.378 . S
O134 Cd135 2.385 . S
O134 C139 1.255 . S
Cd135 O134 2.385 . S
Cd135 O136 2.317 . S
O136 Cd135 2.317 . S
O136 C137 1.232 . S
C137 O136 1.232 . S
C137 O138 1.218 . S
O138 C137 1.218 . S
C139 O132 1.275 . S
C139 O134 1.255 . S
C140 O141 1.258 . S
C140 O142 1.256 . S
O141 Cd133 2.381 . S
O141 C140 1.258 . S
O142 Cd133 2.378 . S
O142 C140 1.256 . S
O143 Cd144 2.300 . S
O143 C150 1.275 . S
Cd144 O143 2.300 . S
Cd144 O152 2.381 . S
Cd144 O153 2.378 1_554 S
O145 Cd146 2.385 1_554 S
O145 C150 1.255 . S
Cd146 O145 2.385 1_556 S
Cd146 O147 2.317 . S
O147 Cd146 2.317 . S
O147 C148 1.232 . S
C148 O147 1.232 . S
C148 O149 1.218 . S
O149 C148 1.218 . S
C150 O143 1.275 . S
C150 O145 1.255 . S
C151 O152 1.258 . S
C151 O153 1.256 1_554 S
O152 Cd144 2.381 . S
O152 C151 1.258 . S
O153 Cd144 2.378 1_556 S
O153 C151 1.256 1_556 S
O154 Cd155 2.300 1_545 S
O154 C161 1.275 . S
Cd155 O154 2.300 1_565 S
Cd155 O163 2.381 . S
Cd155 O164 2.378 . S
O156 Cd157 2.385 . S
O156 C161 1.255 . S
Cd157 O156 2.385 . S
Cd157 O158 2.317 . S
O158 Cd157 2.317 . S
O158 C159 1.232 . S
C159 O158 1.232 . S
C159 O160 1.218 . S
O160 C159 1.218 . S
C161 O154 1.275 . S
C161 O156 1.255 . S
C162 O163 1.258 . S
C162 O164 1.256 . S
O163 Cd155 2.381 . S
O163 C162 1.258 . S
O164 Cd155 2.378 . S
O164 C162 1.256 . S
O165 Cd166 2.300 1_556 S
O165 C172 1.275 . S
Cd166 O165 2.300 1_554 S
Cd166 O174 2.381 1_554 S
Cd166 O175 2.378 . S
O167 Cd168 2.385 1_556 S
O167 C172 1.255 . S
Cd168 O167 2.385 1_554 S
Cd168 O169 2.317 . S
O169 Cd168 2.317 . S
O169 C170 1.232 . S
C170 O169 1.232 . S
C170 O171 1.218 . S
O171 C170 1.218 . S
C172 O165 1.275 . S
C172 O167 1.255 . S
C173 O174 1.258 1_554 S
C173 O175 1.256 . S
O174 Cd166 2.381 1_556 S
O174 C173 1.258 1_556 S
O175 Cd166 2.378 . S
O175 C173 1.256 . S
H176 C182 0.930 . S
H177 C186 0.930 . S
H178 C191 0.929 . S
H179 C189 0.929 . S
H180 C184 0.929 . S
H181 C190 0.929 . S
C182 H176 0.930 . S
C182 C183 1.367 . S
C182 C190 1.378 . S
C183 C182 1.367 . S
C183 C191 1.433 . S
C184 H180 0.929 . S
C184 C186 1.378 . S
C184 C188 1.350 . S
C185 C188 1.463 . S
C185 C190 1.350 . S
C185 N193 1.427 . S
C186 H177 0.930 . S
C186 C184 1.378 . S
C186 C187 1.367 . S
C187 C186 1.367 . S
C187 C189 1.433 . S
C188 C184 1.350 . S
C188 C185 1.463 . S
C188 N192 1.427 . S
C189 H179 0.929 . S
C189 C187 1.433 . S
C189 N192 1.384 . S
C190 H181 0.929 . S
C190 C182 1.378 . S
C190 C185 1.350 . S
C191 H178 0.929 . S
C191 C183 1.433 . S
C191 N193 1.384 . S
N192 C188 1.427 . S
N192 C189 1.384 . S
N193 C185 1.427 . S
N193 C191 1.384 . S
H194 C200 0.930 . S
H195 C204 0.930 . S
H196 C209 0.929 . S
H197 C207 0.929 . S
H198 C202 0.929 . S
H199 C208 0.929 . S
C200 H194 0.930 . S
C200 C201 1.367 . S
C200 C208 1.378 . S
C201 C200 1.367 . S
C201 C209 1.433 . S
C202 H198 0.929 . S
C202 C204 1.378 . S
C202 C206 1.350 . S
C203 C206 1.463 . S
C203 C208 1.350 . S
C203 N211 1.427 . S
C204 H195 0.930 . S
C204 C202 1.378 . S
C204 C205 1.367 . S
C205 C204 1.367 . S
C205 C207 1.433 . S
C206 C202 1.350 . S
C206 C203 1.463 . S
C206 N210 1.427 . S
C207 H197 0.929 . S
C207 C205 1.433 . S
C207 N210 1.384 . S
C208 H199 0.929 . S
C208 C200 1.378 . S
C208 C203 1.350 . S
C209 H196 0.929 . S
C209 C201 1.433 . S
C209 N211 1.384 . S
N210 C206 1.427 . S
N210 C207 1.384 . S
N211 C203 1.427 . S
N211 C209 1.384 . S
H212 C218 0.930 . S
H213 C222 0.930 . S
H214 C227 0.929 . S
H215 C225 0.929 . S
H216 C220 0.929 . S
H217 C226 0.929 . S
C218 H212 0.930 . S
C218 C219 1.367 . S
C218 C226 1.378 . S
C219 C218 1.367 . S
C219 C227 1.433 . S
C220 H216 0.929 . S
C220 C222 1.378 . S
C220 C224 1.350 . S
C221 C224 1.463 . S
C221 C226 1.350 . S
C221 N229 1.427 . S
C222 H213 0.930 . S
C222 C220 1.378 . S
C222 C223 1.367 . S
C223 C222 1.367 . S
C223 C225 1.433 . S
C224 C220 1.350 . S
C224 C221 1.463 . S
C224 N228 1.427 . S
C225 H215 0.929 . S
C225 C223 1.433 . S
C225 N228 1.384 . S
C226 H217 0.929 . S
C226 C218 1.378 . S
C226 C221 1.350 . S
C227 H214 0.929 . S
C227 C219 1.433 . S
C227 N229 1.384 . S
N228 C224 1.427 . S
N228 C225 1.384 . S
N229 C221 1.427 . S
N229 C227 1.384 . S
H230 C236 0.930 . S
H231 C240 0.930 . S
H232 C245 0.929 . S
H233 C243 0.929 . S
H234 C238 0.929 . S
H235 C244 0.929 . S
C236 H230 0.930 . S
C236 C237 1.367 . S
C236 C244 1.378 . S
C237 C236 1.367 . S
C237 C245 1.433 . S
C238 H234 0.929 . S
C238 C240 1.378 . S
C238 C242 1.350 . S
C239 C242 1.463 . S
C239 C244 1.350 . S
C239 N247 1.427 . S
C240 H231 0.930 . S
C240 C238 1.378 . S
C240 C241 1.367 . S
C241 C240 1.367 . S
C241 C243 1.433 . S
C242 C238 1.350 . S
C242 C239 1.463 . S
C242 N246 1.427 . S
C243 H233 0.929 . S
C243 C241 1.433 . S
C243 N246 1.384 . S
C244 H235 0.929 . S
C244 C236 1.378 . S
C244 C239 1.350 . S
C245 H232 0.929 . S
C245 C237 1.433 . S
C245 N247 1.384 . S
N246 C242 1.427 . S
N246 C243 1.384 . S
N247 C239 1.427 . S
N247 C245 1.384 . S
H248 C254 0.930 . S
H249 C258 0.930 . S
H250 C263 0.929 . S
H251 C261 0.929 . S
H252 C256 0.929 . S
H253 C262 0.929 . S
C254 H248 0.930 . S
C254 C255 1.367 . S
C254 C262 1.378 . S
C255 C254 1.367 . S
C255 C263 1.433 . S
C256 H252 0.929 . S
C256 C258 1.378 . S
C256 C260 1.350 . S
C257 C260 1.463 . S
C257 C262 1.350 . S
C257 N265 1.427 . S
C258 H249 0.930 . S
C258 C256 1.378 . S
C258 C259 1.367 . S
C259 C258 1.367 . S
C259 C261 1.433 . S
C260 C256 1.350 . S
C260 C257 1.463 . S
C260 N264 1.427 . S
C261 H251 0.929 . S
C261 C259 1.433 . S
C261 N264 1.384 . S
C262 H253 0.929 . S
C262 C254 1.378 . S
C262 C257 1.350 . S
C263 H250 0.929 . S
C263 C255 1.433 . S
C263 N265 1.384 . S
N264 C260 1.427 . S
N264 C261 1.384 . S
N265 C257 1.427 . S
N265 C263 1.384 . S
H266 C272 0.930 . S
H267 C276 0.930 . S
H268 C281 0.929 . S
H269 C279 0.929 . S
H270 C274 0.929 . S
H271 C280 0.929 . S
C272 H266 0.930 . S
C272 C273 1.367 . S
C272 C280 1.378 . S
C273 C272 1.367 . S
C273 C281 1.433 . S
C274 H270 0.929 . S
C274 C276 1.378 . S
C274 C278 1.350 . S
C275 C278 1.463 . S
C275 C280 1.350 . S
C275 N283 1.427 . S
C276 H267 0.930 . S
C276 C274 1.378 . S
C276 C277 1.367 . S
C277 C276 1.367 . S
C277 C279 1.433 . S
C278 C274 1.350 . S
C278 C275 1.463 . S
C278 N282 1.427 . S
C279 H269 0.929 . S
C279 C277 1.433 . S
C279 N282 1.384 . S
C280 H271 0.929 . S
C280 C272 1.378 . S
C280 C275 1.350 . S
C281 H268 0.929 . S
C281 C273 1.433 . S
C281 N283 1.384 . S
N282 C278 1.427 . S
N282 C279 1.384 . S
N283 C275 1.427 . S
N283 C281 1.384 . S
H284 C290 0.930 . S
H285 C294 0.930 . S
H286 C299 0.929 . S
H287 C297 0.929 . S
H288 C292 0.929 . S
H289 C298 0.929 . S
C290 H284 0.930 . S
C290 C291 1.367 . S
C290 C298 1.378 . S
C291 C290 1.367 . S
C291 C299 1.433 . S
C292 H288 0.929 . S
C292 C294 1.378 . S
C292 C296 1.350 . S
C293 C296 1.463 . S
C293 C298 1.350 . S
C293 N301 1.427 . S
C294 H285 0.930 . S
C294 C292 1.378 . S
C294 C295 1.367 . S
C295 C294 1.367 . S
C295 C297 1.433 . S
C296 C292 1.350 . S
C296 C293 1.463 . S
C296 N300 1.427 . S
C297 H287 0.929 . S
C297 C295 1.433 . S
C297 N300 1.384 . S
C298 H289 0.929 . S
C298 C290 1.378 . S
C298 C293 1.350 . S
C299 H286 0.929 . S
C299 C291 1.433 . S
C299 N301 1.384 . S
N300 C296 1.427 . S
N300 C297 1.384 . S
N301 C293 1.427 . S
N301 C299 1.384 . S
H302 C308 0.930 . S
H303 C312 0.930 . S
H304 C317 0.929 . S
H305 C315 0.929 . S
H306 C310 0.929 . S
H307 C316 0.929 . S
C308 H302 0.930 . S
C308 C309 1.367 . S
C308 C316 1.378 . S
C309 C308 1.367 . S
C309 C317 1.433 . S
C310 H306 0.929 . S
C310 C312 1.378 . S
C310 C314 1.350 . S
C311 C314 1.463 . S
C311 C316 1.350 . S
C311 N319 1.427 . S
C312 H303 0.930 . S
C312 C310 1.378 . S
C312 C313 1.367 . S
C313 C312 1.367 . S
C313 C315 1.433 . S
C314 C310 1.350 . S
C314 C311 1.463 . S
C314 N318 1.427 . S
C315 H305 0.929 . S
C315 C313 1.433 . S
C315 N318 1.384 . S
C316 H307 0.929 . S
C316 C308 1.378 . S
C316 C311 1.350 . S
C317 H304 0.929 . S
C317 C309 1.433 . S
C317 N319 1.384 . S
N318 C314 1.427 . S
N318 C315 1.384 . S
N319 C311 1.427 . S
N319 C317 1.384 . S
H320 C326 0.930 . S
H321 C330 0.930 . S
H322 C335 0.929 . S
H323 C333 0.929 . S
H324 C328 0.929 . S
H325 C334 0.929 . S
C326 H320 0.930 . S
C326 C327 1.367 . S
C326 C334 1.378 . S
C327 C326 1.367 . S
C327 C335 1.433 . S
C328 H324 0.929 . S
C328 C330 1.378 . S
C328 C332 1.350 . S
C329 C332 1.463 . S
C329 C334 1.350 . S
C329 N337 1.427 . S
C330 H321 0.930 . S
C330 C328 1.378 . S
C330 C331 1.367 . S
C331 C330 1.367 . S
C331 C333 1.433 . S
C332 C328 1.350 . S
C332 C329 1.463 . S
C332 N336 1.427 . S
C333 H323 0.929 . S
C333 C331 1.433 . S
C333 N336 1.384 . S
C334 H325 0.929 . S
C334 C326 1.378 . S
C334 C329 1.350 . S
C335 H322 0.929 . S
C335 C327 1.433 . S
C335 N337 1.384 . S
N336 C332 1.427 . S
N336 C333 1.384 . S
N337 C329 1.427 . S
N337 C335 1.384 . S
H338 C344 0.930 . S
H339 C348 0.930 . S
H340 C353 0.929 . S
H341 C351 0.929 . S
H342 C346 0.929 . S
H343 C352 0.929 . S
C344 H338 0.930 . S
C344 C345 1.367 . S
C344 C352 1.378 . S
C345 C344 1.367 . S
C345 C353 1.433 . S
C346 H342 0.929 . S
C346 C348 1.378 . S
C346 C350 1.350 . S
C347 C350 1.463 . S
C347 C352 1.350 . S
C347 N355 1.427 . S
C348 H339 0.930 . S
C348 C346 1.378 . S
C348 C349 1.367 . S
C349 C348 1.367 . S
C349 C351 1.433 . S
C350 C346 1.350 . S
C350 C347 1.463 . S
C350 N354 1.427 . S
C351 H341 0.929 . S
C351 C349 1.433 . S
C351 N354 1.384 . S
C352 H343 0.929 . S
C352 C344 1.378 . S
C352 C347 1.350 . S
C353 H340 0.929 . S
C353 C345 1.433 . S
C353 N355 1.384 . S
N354 C350 1.427 . S
N354 C351 1.384 . S
N355 C347 1.427 . S
N355 C353 1.384 . S
H356 C362 0.930 . S
H357 C366 0.930 . S
H358 C371 0.929 . S
H359 C369 0.929 . S
H360 C364 0.929 . S
H361 C370 0.929 . S
C362 H356 0.930 . S
C362 C363 1.367 . S
C362 C370 1.378 . S
C363 C362 1.367 . S
C363 C371 1.433 . S
C364 H360 0.929 . S
C364 C366 1.378 . S
C364 C368 1.350 . S
C365 C368 1.463 . S
C365 C370 1.350 . S
C365 N373 1.427 . S
C366 H357 0.930 . S
C366 C364 1.378 . S
C366 C367 1.367 . S
C367 C366 1.367 . S
C367 C369 1.433 . S
C368 C364 1.350 . S
C368 C365 1.463 . S
C368 N372 1.427 . S
C369 H359 0.929 . S
C369 C367 1.433 . S
C369 N372 1.384 . S
C370 H361 0.929 . S
C370 C362 1.378 . S
C370 C365 1.350 . S
C371 H358 0.929 . S
C371 C363 1.433 . S
C371 N373 1.384 . S
N372 C368 1.427 . S
N372 C369 1.384 . S
N373 C365 1.427 . S
N373 C371 1.384 . S
H374 C380 0.930 . S
H375 C384 0.930 . S
H376 C389 0.929 . S
H377 C387 0.929 . S
H378 C382 0.929 . S
H379 C388 0.929 . S
C380 H374 0.930 . S
C380 C381 1.367 . S
C380 C388 1.378 . S
C381 C380 1.367 . S
C381 C389 1.433 . S
C382 H378 0.929 . S
C382 C384 1.378 . S
C382 C386 1.350 . S
C383 C386 1.463 . S
C383 C388 1.350 . S
C383 N391 1.427 . S
C384 H375 0.930 . S
C384 C382 1.378 . S
C384 C385 1.367 . S
C385 C384 1.367 . S
C385 C387 1.433 . S
C386 C382 1.350 . S
C386 C383 1.463 . S
C386 N390 1.427 . S
C387 H377 0.929 . S
C387 C385 1.433 . S
C387 N390 1.384 . S
C388 H379 0.929 . S
C388 C380 1.378 . S
C388 C383 1.350 . S
C389 H376 0.929 . S
C389 C381 1.433 . S
C389 N391 1.384 . S
N390 C386 1.427 . S
N390 C387 1.384 . S
N391 C383 1.427 . S
N391 C389 1.384 . S
H392 C398 0.930 . S
H393 C402 0.930 . S
H394 C407 0.929 . S
H395 C405 0.929 . S
H396 C400 0.929 . S
H397 C406 0.929 . S
C398 H392 0.930 . S
C398 C399 1.367 . S
C398 C406 1.378 . S
C399 C398 1.367 . S
C399 C407 1.433 . S
C400 H396 0.929 . S
C400 C402 1.378 . S
C400 C404 1.350 . S
C401 C404 1.463 . S
C401 C406 1.350 . S
C401 N409 1.427 . S
C402 H393 0.930 . S
C402 C400 1.378 . S
C402 C403 1.367 . S
C403 C402 1.367 . S
C403 C405 1.433 . S
C404 C400 1.350 . S
C404 C401 1.463 . S
C404 N408 1.427 . S
C405 H395 0.929 . S
C405 C403 1.433 . S
C405 N408 1.384 . S
C406 H397 0.929 . S
C406 C398 1.378 . S
C406 C401 1.350 . S
C407 H394 0.929 . S
C407 C399 1.433 . S
C407 N409 1.384 . S
N408 C404 1.427 . S
N408 C405 1.384 . S
N409 C401 1.427 . S
N409 C407 1.384 . S
H410 C416 0.930 . S
H411 C420 0.930 . S
H412 C425 0.929 . S
H413 C423 0.929 . S
H414 C418 0.929 . S
H415 C424 0.929 . S
C416 H410 0.930 . S
C416 C417 1.367 . S
C416 C424 1.378 . S
C417 C416 1.367 . S
C417 C425 1.433 . S
C418 H414 0.929 . S
C418 C420 1.378 . S
C418 C422 1.350 . S
C419 C422 1.463 . S
C419 C424 1.350 . S
C419 N427 1.427 . S
C420 H411 0.930 . S
C420 C418 1.378 . S
C420 C421 1.367 . S
C421 C420 1.367 . S
C421 C423 1.433 . S
C422 C418 1.350 . S
C422 C419 1.463 . S
C422 N426 1.427 . S
C423 H413 0.929 . S
C423 C421 1.433 . S
C423 N426 1.384 . S
C424 H415 0.929 . S
C424 C416 1.378 . S
C424 C419 1.350 . S
C425 H412 0.929 . S
C425 C417 1.433 . S
C425 N427 1.384 . S
N426 C422 1.427 . S
N426 C423 1.384 . S
N427 C419 1.427 . S
N427 C425 1.384 . S
H428 C434 0.930 . S
H429 C438 0.930 . S
H430 C443 0.929 . S
H431 C441 0.929 . S
H432 C436 0.929 . S
H433 C442 0.929 . S
C434 H428 0.930 . S
C434 C435 1.367 . S
C434 C442 1.378 . S
C435 C434 1.367 . S
C435 C443 1.433 . S
C436 H432 0.929 . S
C436 C438 1.378 . S
C436 C440 1.350 . S
C437 C440 1.463 . S
C437 C442 1.350 . S
C437 N445 1.427 . S
C438 H429 0.930 . S
C438 C436 1.378 . S
C438 C439 1.367 . S
C439 C438 1.367 . S
C439 C441 1.433 . S
C440 C436 1.350 . S
C440 C437 1.463 . S
C440 N444 1.427 . S
C441 H431 0.929 . S
C441 C439 1.433 . S
C441 N444 1.384 . S
C442 H433 0.929 . S
C442 C434 1.378 . S
C442 C437 1.350 . S
C443 H430 0.929 . S
C443 C435 1.433 . S
C443 N445 1.384 . S
N444 C440 1.427 . S
N444 C441 1.384 . S
N445 C437 1.427 . S
N445 C443 1.384 . S
H446 C452 0.930 . S
H447 C456 0.930 . S
H448 C461 0.929 . S
H449 C459 0.929 . S
H450 C454 0.929 . S
H451 C460 0.929 . S
C452 H446 0.930 . S
C452 C453 1.367 . S
C452 C460 1.378 . S
C453 C452 1.367 . S
C453 C461 1.433 . S
C454 H450 0.929 . S
C454 C456 1.378 . S
C454 C458 1.350 . S
C455 C458 1.463 . S
C455 C460 1.350 . S
C455 N463 1.427 . S
C456 H447 0.930 . S
C456 C454 1.378 . S
C456 C457 1.367 . S
C457 C456 1.367 . S
C457 C459 1.433 . S
C458 C454 1.350 . S
C458 C455 1.463 . S
C458 N462 1.427 . S
C459 H449 0.929 . S
C459 C457 1.433 . S
C459 N462 1.384 . S
C460 H451 0.929 . S
C460 C452 1.378 . S
C460 C455 1.350 . S
C461 H448 0.929 . S
C461 C453 1.433 . S
C461 N463 1.384 . S
N462 C458 1.427 . S
N462 C459 1.384 . S
N463 C455 1.427 . S
N463 C461 1.384 . S
H464 C470 0.930 . S
H465 C474 0.930 . S
H466 C479 0.929 . S
H467 C477 0.929 . S
H468 C472 0.929 . S
H469 C478 0.929 . S
C470 H464 0.930 . S
C470 C471 1.367 1_556 S
C470 C478 1.378 . S
C471 C470 1.367 1_554 S
C471 C479 1.433 . S
C472 H468 0.929 . S
C472 C474 1.378 . S
C472 C476 1.350 . S
C473 C476 1.463 . S
C473 C478 1.350 1_554 S
C473 N481 1.427 . S
C474 H465 0.930 . S
C474 C472 1.378 . S
C474 C475 1.367 . S
C475 C474 1.367 . S
C475 C477 1.433 1_554 S
C476 C472 1.350 . S
C476 C473 1.463 . S
C476 N480 1.427 1_554 S
C477 H467 0.929 . S
C477 C475 1.433 1_556 S
C477 N480 1.384 . S
C478 H469 0.929 . S
C478 C470 1.378 . S
C478 C473 1.350 1_556 S
C479 H466 0.929 . S
C479 C471 1.433 . S
C479 N481 1.384 . S
N480 C476 1.427 1_556 S
N480 C477 1.384 . S
N481 C473 1.427 . S
N481 C479 1.384 . S
H482 C488 0.930 . S
H483 C492 0.930 . S
H484 C497 0.929 . S
H485 C495 0.929 . S
H486 C490 0.929 . S
H487 C496 0.929 . S
C488 H482 0.930 . S
C488 C489 1.367 . S
C488 C496 1.378 . S
C489 C488 1.367 . S
C489 C497 1.433 . S
C490 H486 0.929 . S
C490 C492 1.378 . S
C490 C494 1.350 . S
C491 C494 1.463 . S
C491 C496 1.350 . S
C491 N499 1.427 . S
C492 H483 0.930 . S
C492 C490 1.378 . S
C492 C493 1.367 . S
C493 C492 1.367 . S
C493 C495 1.433 . S
C494 C490 1.350 . S
C494 C491 1.463 . S
C494 N498 1.427 . S
C495 H485 0.929 . S
C495 C493 1.433 . S
C495 N498 1.384 . S
C496 H487 0.929 . S
C496 C488 1.378 . S
C496 C491 1.350 . S
C497 H484 0.929 . S
C497 C489 1.433 . S
C497 N499 1.384 . S
N498 C494 1.427 . S
N498 C495 1.384 . S
N499 C491 1.427 . S
N499 C497 1.384 . S
H500 C506 0.930 . S
H501 C510 0.930 . S
H502 C515 0.929 . S
H503 C513 0.929 . S
H504 C508 0.929 . S
H505 C514 0.929 . S
C506 H500 0.930 . S
C506 C507 1.367 1_556 S
C506 C514 1.378 . S
C507 C506 1.367 1_554 S
C507 C515 1.433 . S
C508 H504 0.929 . S
C508 C510 1.378 . S
C508 C512 1.350 . S
C509 C512 1.463 . S
C509 C514 1.350 1_554 S
C509 N517 1.427 . S
C510 H501 0.930 . S
C510 C508 1.378 . S
C510 C511 1.367 . S
C511 C510 1.367 . S
C511 C513 1.433 1_554 S
C512 C508 1.350 . S
C512 C509 1.463 . S
C512 N516 1.427 1_554 S
C513 H503 0.929 . S
C513 C511 1.433 1_556 S
C513 N516 1.384 . S
C514 H505 0.929 . S
C514 C506 1.378 . S
C514 C509 1.350 1_556 S
C515 H502 0.929 . S
C515 C507 1.433 . S
C515 N517 1.384 . S
N516 C512 1.427 1_556 S
N516 C513 1.384 . S
N517 C509 1.427 . S
N517 C515 1.384 . S
H518 C524 0.930 . S
H519 C528 0.930 . S
H520 C533 0.929 . S
H521 C531 0.929 . S
H522 C526 0.929 . S
H523 C532 0.929 . S
C524 H518 0.930 . S
C524 C525 1.367 . S
C524 C532 1.378 . S
C525 C524 1.367 . S
C525 C533 1.433 . S
C526 H522 0.929 . S
C526 C528 1.378 . S
C526 C530 1.350 . S
C527 C530 1.463 . S
C527 C532 1.350 . S
C527 N535 1.427 . S
C528 H519 0.930 . S
C528 C526 1.378 . S
C528 C529 1.367 . S
C529 C528 1.367 . S
C529 C531 1.433 . S
C530 C526 1.350 . S
C530 C527 1.463 . S
C530 N534 1.427 . S
C531 H521 0.929 . S
C531 C529 1.433 . S
C531 N534 1.384 . S
C532 H523 0.929 . S
C532 C524 1.378 . S
C532 C527 1.350 . S
C533 H520 0.929 . S
C533 C525 1.433 . S
C533 N535 1.384 . S
N534 C530 1.427 . S
N534 C531 1.384 . S
N535 C527 1.427 . S
N535 C533 1.384 . S
H536 C542 0.930 . S
H537 C546 0.930 . S
H538 C551 0.929 . S
H539 C549 0.929 . S
H540 C544 0.929 . S
H541 C550 0.929 . S
C542 H536 0.930 . S
C542 C543 1.367 . S
C542 C550 1.378 . S
C543 C542 1.367 . S
C543 C551 1.433 . S
C544 H540 0.929 . S
C544 C546 1.378 . S
C544 C548 1.350 . S
C545 C548 1.463 . S
C545 C550 1.350 . S
C545 N553 1.427 . S
C546 H537 0.930 . S
C546 C544 1.378 . S
C546 C547 1.367 . S
C547 C546 1.367 . S
C547 C549 1.433 . S
C548 C544 1.350 . S
C548 C545 1.463 . S
C548 N552 1.427 . S
C549 H539 0.929 . S
C549 C547 1.433 . S
C549 N552 1.384 . S
C550 H541 0.929 . S
C550 C542 1.378 . S
C550 C545 1.350 . S
C551 H538 0.929 . S
C551 C543 1.433 . S
C551 N553 1.384 . S
N552 C548 1.427 . S
N552 C549 1.384 . S
N553 C545 1.427 . S
N553 C551 1.384 . S
H554 C560 0.930 . S
H555 C564 0.930 . S
H556 C569 0.929 . S
H557 C567 0.929 . S
H558 C562 0.929 . S
H559 C568 0.929 . S
C560 H554 0.930 . S
C560 C561 1.367 . S
C560 C568 1.378 . S
C561 C560 1.367 . S
C561 C569 1.433 1_554 S
C562 H558 0.929 . S
C562 C564 1.378 . S
C562 C566 1.350 1_556 S
C563 C566 1.463 . S
C563 C568 1.350 . S
C563 N571 1.427 1_554 S
C564 H555 0.930 . S
C564 C562 1.378 . S
C564 C565 1.367 1_556 S
C565 C564 1.367 1_554 S
C565 C567 1.433 . S
C566 C562 1.350 1_554 S
C566 C563 1.463 . S
C566 N570 1.427 . S
C567 H557 0.929 . S
C567 C565 1.433 . S
C567 N570 1.384 . S
C568 H559 0.929 . S
C568 C560 1.378 . S
C568 C563 1.350 . S
C569 H556 0.929 . S
C569 C561 1.433 1_556 S
C569 N571 1.384 . S
N570 C566 1.427 . S
N570 C567 1.384 . S
N571 C563 1.427 1_556 S
N571 C569 1.384 . S
H572 C578 0.930 . S
H573 C582 0.930 . S
H574 C587 0.929 . S
H575 C585 0.929 . S
H576 C580 0.929 . S
H577 C586 0.929 . S
C578 H572 0.930 . S
C578 C579 1.367 . S
C578 C586 1.378 . S
C579 C578 1.367 . S
C579 C587 1.433 . S
C580 H576 0.929 . S
C580 C582 1.378 . S
C580 C584 1.350 . S
C581 C584 1.463 . S
C581 C586 1.350 . S
C581 N589 1.427 . S
C582 H573 0.930 . S
C582 C580 1.378 . S
C582 C583 1.367 . S
C583 C582 1.367 . S
C583 C585 1.433 . S
C584 C580 1.350 . S
C584 C581 1.463 . S
C584 N588 1.427 . S
C585 H575 0.929 . S
C585 C583 1.433 . S
C585 N588 1.384 . S
C586 H577 0.929 . S
C586 C578 1.378 . S
C586 C581 1.350 . S
C587 H574 0.929 . S
C587 C579 1.433 . S
C587 N589 1.384 . S
N588 C584 1.427 . S
N588 C585 1.384 . S
N589 C581 1.427 . S
N589 C587 1.384 . S
H590 C596 0.930 . S
H591 C600 0.930 . S
H592 C605 0.929 . S
H593 C603 0.929 . S
H594 C598 0.929 . S
H595 C604 0.929 . S
C596 H590 0.930 . S
C596 C597 1.367 1_556 S
C596 C604 1.378 . S
C597 C596 1.367 1_554 S
C597 C605 1.433 . S
C598 H594 0.929 . S
C598 C600 1.378 . S
C598 C602 1.350 . S
C599 C602 1.463 . S
C599 C604 1.350 1_554 S
C599 N607 1.427 . S
C600 H591 0.930 . S
C600 C598 1.378 . S
C600 C601 1.367 . S
C601 C600 1.367 . S
C601 C603 1.433 1_554 S
C602 C598 1.350 . S
C602 C599 1.463 . S
C602 N606 1.427 1_554 S
C603 H593 0.929 . S
C603 C601 1.433 1_556 S
C603 N606 1.384 . S
C604 H595 0.929 . S
C604 C596 1.378 . S
C604 C599 1.350 1_556 S
C605 H592 0.929 . S
C605 C597 1.433 . S
C605 N607 1.384 . S
N606 C602 1.427 1_556 S
N606 C603 1.384 . S
N607 C599 1.427 . S
N607 C605 1.384 . S
C183 C21 1.482 . S
C187 C126 1.239 . S
C201 C40 1.570 . S
C205 C95 1.482 . S
C223 C106 1.473 . S
C219 C54 1.477 . S
C237 C73 1.513 . S
C241 C115 1.411 . S
C259 C150 1.493 . S
C255 C74 1.504 . S
C277 C159 1.409 . S
C273 C10 1.520 . S
C295 C170 1.229 . S
C291 C37 1.464 . S
C313 C139 1.492 . S
C309 C65 1.565 . S
C327 C52 1.445 . S
C331 C104 1.295 . S
C345 C87 1.593 . S
C349 C117 1.589 . S
C363 C15 1.522 . S
C367 C128 1.489 . S
C385 C93 1.195 . S
C381 C32 1.480 . S
C399 C29 1.548 . S
C403 C172 1.505 . S
C421 C137 1.249 . S
C417 C59 1.544 . S
C439 C148 1.305 . S
C435 C84 1.424 . S
C453 C8 1.536 . S
C457 C161 1.529 . S
C475 C96 1.551 . S
C471 C7 1.593 . S
C493 C107 1.524 . S
C489 C30 1.522 . S
C507 C62 1.603 . S
C511 C118 1.602 . S
C525 C81 1.522 . S
C529 C129 1.513 . S
C547 C140 1.553 . S
C543 C76 1.604 . S
C561 C18 1.522 . S
C565 C151 1.528 . S
C579 C43 1.594 . S
C583 C162 1.599 . S
C597 C51 1.526 . S
C601 C173 1.516 . S
