# Generated by pormake.
# Topology ocu, (6,8)-cn, num edge types: 1
# Building blocks:
#     Node 0, Type 0, BuildingBlock: HISSIN_clean_sbu_0, # of connection points: 6
#     Node 1, Type 0, BuildingBlock: HISSIN_clean_sbu_0, # of connection points: 6
#     Node 2, Type 0, BuildingBlock: HISSIN_clean_sbu_0, # of connection points: 6
#     Node 3, Type 0, BuildingBlock: HISSIN_clean_sbu_0, # of connection points: 6
#     Node 4, Type 0, BuildingBlock: HISSIN_clean_sbu_0, # of connection points: 6
#     Node 5, Type 0, BuildingBlock: HISSIN_clean_sbu_0, # of connection points: 6
#     Node 6, Type 0, BuildingBlock: HISSIN_clean_sbu_0, # of connection points: 6
#     Node 7, Type 0, BuildingBlock: HISSIN_clean_sbu_0, # of connection points: 6
#     Node 8, Type 1, BuildingBlock: AJUNOK_clean_sbu_0, # of connection points: 8
#     Node 9, Type 1, BuildingBlock: AJUNOK_clean_sbu_0, # of connection points: 8
#     Node 10, Type 1, BuildingBlock: AJUNOK_clean_sbu_0, # of connection points: 8
#     Node 11, Type 1, BuildingBlock: AJUNOK_clean_sbu_0, # of connection points: 8
#     Node 12, Type 1, BuildingBlock: AJUNOK_clean_sbu_0, # of connection points: 8
#     Node 13, Type 1, BuildingBlock: AJUNOK_clean_sbu_0, # of connection points: 8
#     Edge 14, Type (0, 1), BuildingBlock: OJICUG_clean_linker_0, # of connection points: 2
#     Edge 15, Type (0, 1), BuildingBlock: OJICUG_clean_linker_0, # of connection points: 2
#     Edge 16, Type (0, 1), BuildingBlock: OJICUG_clean_linker_0, # of connection points: 2
#     Edge 17, Type (0, 1), BuildingBlock: OJICUG_clean_linker_0, # of connection points: 2
#     Edge 18, Type (0, 1), BuildingBlock: OJICUG_clean_linker_0, # of connection points: 2
#     Edge 19, Type (0, 1), BuildingBlock: OJICUG_clean_linker_0, # of connection points: 2
#     Edge 20, Type (0, 1), BuildingBlock: OJICUG_clean_linker_0, # of connection points: 2
#     Edge 21, Type (0, 1), BuildingBlock: OJICUG_clean_linker_0, # of connection points: 2
#     Edge 22, Type (0, 1), BuildingBlock: OJICUG_clean_linker_0, # of connection points: 2
#     Edge 23, Type (0, 1), BuildingBlock: OJICUG_clean_linker_0, # of connection points: 2
#     Edge 24, Type (0, 1), BuildingBlock: OJICUG_clean_linker_0, # of connection points: 2
#     Edge 25, Type (0, 1), BuildingBlock: OJICUG_clean_linker_0, # of connection points: 2
#     Edge 26, Type (0, 1), BuildingBlock: OJICUG_clean_linker_0, # of connection points: 2
#     Edge 27, Type (0, 1), BuildingBlock: OJICUG_clean_linker_0, # of connection points: 2
#     Edge 28, Type (0, 1), BuildingBlock: OJICUG_clean_linker_0, # of connection points: 2
#     Edge 29, Type (0, 1), BuildingBlock: OJICUG_clean_linker_0, # of connection points: 2
#     Edge 30, Type (0, 1), BuildingBlock: OJICUG_clean_linker_0, # of connection points: 2
#     Edge 31, Type (0, 1), BuildingBlock: OJICUG_clean_linker_0, # of connection points: 2
#     Edge 32, Type (0, 1), BuildingBlock: OJICUG_clean_linker_0, # of connection points: 2
#     Edge 33, Type (0, 1), BuildingBlock: OJICUG_clean_linker_0, # of connection points: 2
#     Edge 34, Type (0, 1), BuildingBlock: OJICUG_clean_linker_0, # of connection points: 2
#     Edge 35, Type (0, 1), BuildingBlock: OJICUG_clean_linker_0, # of connection points: 2
#     Edge 36, Type (0, 1), BuildingBlock: OJICUG_clean_linker_0, # of connection points: 2
#     Edge 37, Type (0, 1), BuildingBlock: OJICUG_clean_linker_0, # of connection points: 2
#     Edge 38, Type (0, 1), BuildingBlock: OJICUG_clean_linker_0, # of connection points: 2
#     Edge 39, Type (0, 1), BuildingBlock: OJICUG_clean_linker_0, # of connection points: 2
#     Edge 40, Type (0, 1), BuildingBlock: OJICUG_clean_linker_0, # of connection points: 2
#     Edge 41, Type (0, 1), BuildingBlock: OJICUG_clean_linker_0, # of connection points: 2
#     Edge 42, Type (0, 1), BuildingBlock: OJICUG_clean_linker_0, # of connection points: 2
#     Edge 43, Type (0, 1), BuildingBlock: OJICUG_clean_linker_0, # of connection points: 2
#     Edge 44, Type (0, 1), BuildingBlock: OJICUG_clean_linker_0, # of connection points: 2
#     Edge 45, Type (0, 1), BuildingBlock: OJICUG_clean_linker_0, # of connection points: 2
#     Edge 46, Type (0, 1), BuildingBlock: OJICUG_clean_linker_0, # of connection points: 2
#     Edge 47, Type (0, 1), BuildingBlock: OJICUG_clean_linker_0, # of connection points: 2
#     Edge 48, Type (0, 1), BuildingBlock: OJICUG_clean_linker_0, # of connection points: 2
#     Edge 49, Type (0, 1), BuildingBlock: OJICUG_clean_linker_0, # of connection points: 2
#     Edge 50, Type (0, 1), BuildingBlock: OJICUG_clean_linker_0, # of connection points: 2
#     Edge 51, Type (0, 1), BuildingBlock: OJICUG_clean_linker_0, # of connection points: 2
#     Edge 52, Type (0, 1), BuildingBlock: OJICUG_clean_linker_0, # of connection points: 2
#     Edge 53, Type (0, 1), BuildingBlock: OJICUG_clean_linker_0, # of connection points: 2
#     Edge 54, Type (0, 1), BuildingBlock: OJICUG_clean_linker_0, # of connection points: 2
#     Edge 55, Type (0, 1), BuildingBlock: OJICUG_clean_linker_0, # of connection points: 2
#     Edge 56, Type (0, 1), BuildingBlock: OJICUG_clean_linker_0, # of connection points: 2
#     Edge 57, Type (0, 1), BuildingBlock: OJICUG_clean_linker_0, # of connection points: 2
#     Edge 58, Type (0, 1), BuildingBlock: OJICUG_clean_linker_0, # of connection points: 2
#     Edge 59, Type (0, 1), BuildingBlock: OJICUG_clean_linker_0, # of connection points: 2
#     Edge 60, Type (0, 1), BuildingBlock: OJICUG_clean_linker_0, # of connection points: 2
#     Edge 61, Type (0, 1), BuildingBlock: OJICUG_clean_linker_0, # of connection points: 2
# Relax obj value: 0.172
# Max RMSD: 0.213
# Mean RMSD: 0.156
data_MOF--net-ocu--node1-HISSIN_clean_sbu_0--node2-AJUNOK_clean_sbu_0--edge1-OJICUG_clean_linker_0
_symmetry_space_group_name_H-M    P1
_symmetry_Int_Tables_number       1
_symmetry_cell_setting            triclinic
loop_
_symmetry_equiv_pos_as_xyz
'x, y, z'
_cell_length_a     34.86923
_cell_length_b     35.804601
_cell_length_c     29.351364
_cell_angle_alpha  109.15286
_cell_angle_beta   87.376625
_cell_angle_gamma 116.93213
loop_
_atom_site_label
_atom_site_type_symbol
_atom_site_fract_x
_atom_site_fract_y
_atom_site_fract_z
_atom_type_partial_charge
Eu0 Eu 0.30974 0.27038 0.31322 0.0
Eu1 Eu 0.2529 0.24412 0.21015 0.0
C2 C 0.22106 0.17939 0.27095 0.0
C3 C 0.37346 0.25519 0.39834 0.0
C4 C 0.35775 0.21073 0.36724 0.0
C5 C 0.425 0.24626 0.44138 0.0
C6 C 0.37577 0.18441 0.37264 0.0
C7 C 0.40701 0.27272 0.4357 0.0
C8 C 0.40994 0.20191 0.40947 0.0
C9 C 0.35581 0.28324 0.39003 0.0
O10 O 0.22038 0.27131 0.27151 0.0
O11 O 0.27797 0.31619 0.33183 0.0
C12 C 0.23883 0.3047 0.31287 0.0
O13 O 0.35341 0.30563 0.26606 0.0
O14 O 0.1931 0.21776 0.1632 0.0
O15 O 0.25487 0.25525 0.14087 0.0
O16 O 0.30144 0.31653 0.23924 0.0
C17 C 0.34225 0.32711 0.2456 0.0
O18 O 0.315 0.21105 0.26063 0.0
O19 O 0.30124 0.21602 0.18756 0.0
O20 O 0.22301 0.18013 0.22648 0.0
O21 O 0.37241 0.30125 0.35719 0.0
O22 O 0.3137 0.26606 0.38525 0.0
O23 O 0.24365 0.2148 0.30888 0.0
C24 C 0.19685 0.26853 0.1248 0.0
C25 C 0.21434 0.2899 0.09078 0.0
C26 C 0.15188 0.30632 0.14438 0.0
C27 C 0.20098 0.31942 0.08385 0.0
C28 C 0.16539 0.2771 0.15147 0.0
C29 C 0.16963 0.32822 0.11073 0.0
C30 C 0.21283 0.23906 0.13366 0.0
C31 C 0.31706 0.20095 0.21354 0.0
H32 H 0.33172 0.19645 0.33838 0.0
H33 H 0.45151 0.2609 0.46987 0.0
H34 H 0.36291 0.15028 0.34787 0.0
H35 H 0.4197 0.30701 0.45999 0.0
H36 H 0.2388 0.28416 0.06988 0.0
H37 H 0.12703 0.31131 0.16507 0.0
H38 H 0.21574 0.33584 0.05795 0.0
H39 H 0.15122 0.26142 0.17812 0.0
Eu40 Eu 0.82829 0.21569 0.21384 0.0
Eu41 Eu 0.76224 0.26028 0.241 0.0
C42 C 0.83502 0.28533 0.32131 0.0
C43 C 0.90821 0.17877 0.23495 0.0
C44 C 0.95077 0.21182 0.25483 0.0
C45 C 0.91009 0.14047 0.28894 0.0
C46 C 0.97247 0.20962 0.29196 0.0
C47 C 0.88838 0.14269 0.25193 0.0
C48 C 0.95215 0.17417 0.3098 0.0
C49 C 0.88351 0.18409 0.19996 0.0
O50 O 0.82429 0.31071 0.22563 0.0
O51 O 0.84341 0.2616 0.17103 0.0
C52 C 0.84497 0.30107 0.18878 0.0
O53 O 0.76812 0.17193 0.15974 0.0
O54 O 0.7475 0.31608 0.27013 0.0
O55 O 0.69592 0.24946 0.23257 0.0
O56 O 0.75744 0.22983 0.16045 0.0
C57 C 0.74823 0.18792 0.14082 0.0
O58 O 0.78996 0.18896 0.26957 0.0
O59 O 0.72956 0.19354 0.25093 0.0
O60 O 0.79522 0.27842 0.31404 0.0
O61 O 0.84154 0.15871 0.19242 0.0
O62 O 0.89402 0.22515 0.2043 0.0
O63 O 0.8553 0.27163 0.28587 0.0
C64 C 0.69464 0.30794 0.21454 0.0
C65 C 0.65179 0.28449 0.19193 0.0
C66 C 0.71324 0.35441 0.16425 0.0
C67 C 0.63985 0.29553 0.15546 0.0
C68 C 0.72534 0.34303 0.20037 0.0
C69 C 0.67048 0.33051 0.14125 0.0
C70 C 0.70773 0.29214 0.24849 0.0
C71 C 0.74858 0.17728 0.27064 0.0
H72 H 0.96697 0.24001 0.24249 0.0
H73 H 0.89397 0.11211 0.301 0.0
H74 H 1.00486 0.23611 0.30729 0.0
H75 H 0.85576 0.11647 0.23726 0.0
H76 H 0.62771 0.25706 0.2019 0.0
H77 H 0.73736 0.3816 0.15396 0.0
H78 H 0.60643 0.27718 0.13893 0.0
H79 H 0.75885 0.36129 0.21654 0.0
Eu80 Eu 0.78808 0.77211 0.20487 0.0
Eu81 Eu 0.7676 0.72124 0.28629 0.0
C82 C 0.69549 0.68748 0.19882 0.0
C83 C 0.76571 0.83077 0.13367 0.0
C84 C 0.72229 0.81165 0.14257 0.0
C85 C 0.75441 0.88531 0.11183 0.0
C86 C 0.69519 0.82922 0.13627 0.0
C87 C 0.78155 0.86761 0.1181 0.0
C88 C 0.71092 0.86647 0.12113 0.0
C89 C 0.79523 0.81525 0.14579 0.0
O90 O 0.78796 0.68168 0.2211 0.0
O91 O 0.8255 0.73224 0.183 0.0
C92 C 0.81543 0.6946 0.19033 0.0
O93 O 0.84493 0.81585 0.26342 0.0
O94 O 0.74017 0.65911 0.30209 0.0
O95 O 0.77703 0.72216 0.35978 0.0
O96 O 0.83941 0.76503 0.29804 0.0
C97 C 0.86107 0.80348 0.29182 0.0
O98 O 0.74156 0.7906 0.25096 0.0
O99 O 0.75093 0.77874 0.32089 0.0
O100 O 0.70228 0.69413 0.2451 0.0
O101 O 0.81335 0.8347 0.19069 0.0
O102 O 0.78094 0.77212 0.13119 0.0
O103 O 0.72679 0.70729 0.17522 0.0
C104 C 0.78882 0.66152 0.35743 0.0
C105 C 0.83224 0.67923 0.34817 0.0
C106 C 0.7991 0.60837 0.38354 0.0
C107 C 0.85892 0.66198 0.35684 0.0
C108 C 0.77242 0.6259 0.3751 0.0
C109 C 0.84275 0.62629 0.37459 0.0
C110 C 0.76043 0.67877 0.34613 0.0
C111 C 0.73756 0.79725 0.29729 0.0
H112 H 0.70958 0.78374 0.15557 0.0
H113 H 0.76746 0.91375 0.09972 0.0
H114 H 0.66217 0.81431 0.14459 0.0
H115 H 0.81512 0.8832 0.11169 0.0
H116 H 0.8455 0.70622 0.33375 0.0
H117 H 0.78569 0.58108 0.3975 0.0
H118 H 0.89208 0.67613 0.34877 0.0
H119 H 0.73894 0.61147 0.3821 0.0
Eu120 Eu 0.3145 0.70121 0.22752 0.0
Eu121 Eu 0.27267 0.76563 0.28981 0.0
C122 C 0.23321 0.70038 0.18041 0.0
C123 C 0.32016 0.60498 0.13065 0.0
C124 C 0.27851 0.57079 0.12991 0.0
C125 C 0.32351 0.56093 0.04934 0.0
C126 C 0.26023 0.53116 0.08975 0.0
C127 C 0.34186 0.60018 0.08954 0.0
C128 C 0.28307 0.52538 0.04949 0.0
C129 C 0.3413 0.64604 0.1734 0.0
O130 O 0.2247 0.69569 0.28185 0.0
O131 O 0.27371 0.66948 0.27944 0.0
C132 C 0.23609 0.66796 0.28951 0.0
O133 O 0.3651 0.75491 0.28916 0.0
O134 O 0.23176 0.77642 0.3456 0.0
O135 O 0.26629 0.82678 0.31265 0.0
O136 O 0.31657 0.76301 0.34075 0.0
C137 C 0.35625 0.77077 0.3331 0.0
O138 O 0.33177 0.75613 0.19659 0.0
O139 O 0.33369 0.80998 0.26616 0.0
O140 O 0.24074 0.739 0.21322 0.0
O141 O 0.34864 0.68284 0.16685 0.0
O142 O 0.327 0.64441 0.2149 0.0
O143 O 0.25103 0.67648 0.18567 0.0
C144 C 0.25647 0.85095 0.39581 0.0
C145 C 0.29982 0.88337 0.41217 0.0
C146 C 0.23502 0.8852 0.47098 0.0
C147 C 0.31047 0.91761 0.45729 0.0
C148 C 0.22461 0.85112 0.42631 0.0
C149 C 0.27779 0.92018 0.48628 0.0
C150 C 0.24314 0.81684 0.34712 0.0
C151 C 0.34371 0.79825 0.22194 0.0
H152 H 0.26059 0.57412 0.16085 0.0
H153 H 0.34252 0.55739 0.01948 0.0
H154 H 0.22912 0.50436 0.09095 0.0
H155 H 0.37371 0.62633 0.08909 0.0
H156 H 0.32513 0.88321 0.38942 0.0
H157 H 0.20848 0.88569 0.49134 0.0
H158 H 0.34381 0.94336 0.4681 0.0
H159 H 0.19111 0.82593 0.41456 0.0
Eu160 Eu 0.32356 0.71849 0.71391 0.0
Eu161 Eu 0.25873 0.76366 0.74849 0.0
C162 C 0.33756 0.79003 0.82146 0.0
C163 C 0.40168 0.68018 0.73217 0.0
C164 C 0.43285 0.71794 0.76876 0.0
C165 C 0.40643 0.63296 0.77277 0.0
C166 C 0.45004 0.71322 0.80733 0.0
C167 C 0.38953 0.63762 0.73395 0.0
C168 C 0.43615 0.67077 0.81028 0.0
C169 C 0.37714 0.68509 0.69674 0.0
O170 O 0.31705 0.81179 0.72495 0.0
O171 O 0.33362 0.76134 0.66871 0.0
C172 C 0.33438 0.80045 0.68548 0.0
O173 O 0.26203 0.6754 0.66185 0.0
O174 O 0.24595 0.82102 0.77471 0.0
O175 O 0.19308 0.75412 0.7577 0.0
O176 O 0.24534 0.7313 0.66771 0.0
C177 C 0.23971 0.69068 0.64552 0.0
O178 O 0.28878 0.69299 0.77196 0.0
O179 O 0.22714 0.69529 0.75421 0.0
O180 O 0.29719 0.78234 0.81827 0.0
O181 O 0.33513 0.66044 0.69133 0.0
O182 O 0.388 0.72586 0.69932 0.0
O183 O 0.35552 0.77678 0.78326 0.0
C184 C 0.18093 0.80446 0.73248 0.0
C185 C 0.14558 0.76891 0.69886 0.0
C186 C 0.178 0.85506 0.69592 0.0
C187 C 0.12723 0.77623 0.66359 0.0
C188 C 0.19648 0.84772 0.73116 0.0
C189 C 0.1435 0.81929 0.66149 0.0
C190 C 0.20402 0.79591 0.76562 0.0
C191 C 0.24725 0.6797 0.7733 0.0
H192 H 0.44278 0.75132 0.76877 0.0
H193 H 0.3959 0.59977 0.77372 0.0
H194 H 0.47301 0.74287 0.83574 0.0
H195 H 0.36558 0.60801 0.70633 0.0
H196 H 0.13266 0.73511 0.69885 0.0
H197 H 0.19053 0.8888 0.69585 0.0
H198 H 0.10074 0.748 0.63746 0.0
H199 H 0.22351 0.87577 0.75678 0.0
Eu200 Eu 0.29052 0.27524 0.70414 0.0
Eu201 Eu 0.26989 0.22251 0.7834 0.0
C202 C 0.20124 0.1862 0.69105 0.0
C203 C 0.26719 0.33521 0.63515 0.0
C204 C 0.22335 0.31442 0.6421 0.0
C205 C 0.25499 0.38992 0.6147 0.0
C206 C 0.19559 0.33117 0.63542 0.0
C207 C 0.28279 0.37302 0.6213 0.0
C208 C 0.21104 0.36929 0.62187 0.0
C209 C 0.29711 0.31985 0.64674 0.0
O210 O 0.29497 0.18666 0.72015 0.0
O211 O 0.3314 0.23864 0.68335 0.0
C212 C 0.32278 0.20109 0.6903 0.0
O213 O 0.34315 0.32064 0.76688 0.0
O214 O 0.24356 0.15973 0.79777 0.0
O215 O 0.27759 0.22241 0.85682 0.0
O216 O 0.34136 0.26933 0.7983 0.0
C217 C 0.3607 0.30911 0.79485 0.0
O218 O 0.23999 0.28863 0.74763 0.0
O219 O 0.25107 0.27838 0.81797 0.0
O220 O 0.2056 0.19278 0.73774 0.0
O221 O 0.31515 0.33862 0.69162 0.0
O222 O 0.28334 0.2768 0.63121 0.0
O223 O 0.23377 0.20778 0.67005 0.0
C224 C 0.29071 0.16278 0.85562 0.0
C225 C 0.33448 0.18097 0.84769 0.0
C226 C 0.30106 0.11122 0.8848 0.0
C227 C 0.36136 0.1647 0.8585 0.0
C228 C 0.27421 0.12775 0.87422 0.0
C229 C 0.34504 0.12953 0.87713 0.0
C230 C 0.26213 0.17913 0.84256 0.0
C231 C 0.23633 0.29571 0.79414 0.0
H232 H 0.21073 0.28567 0.65369 0.0
H233 H 0.26789 0.41908 0.60388 0.0
H234 H 0.1622 0.31485 0.64208 0.0
H235 H 0.31661 0.38986 0.61632 0.0
H236 H 0.34786 0.20759 0.8327 0.0
H237 H 0.28747 0.08436 0.89941 0.0
H238 H 0.39479 0.17915 0.85136 0.0
H239 H 0.24049 0.11302 0.88033 0.0
Eu240 Eu 0.81025 0.21356 0.73739 0.0
Eu241 Eu 0.76137 0.2726 0.79125 0.0
C242 C 0.72546 0.20236 0.68296 0.0
C243 C 0.83734 0.13661 0.63734 0.0
C244 C 0.79585 0.11303 0.6107 0.0
C245 C 0.86621 0.10737 0.56578 0.0
C246 C 0.78937 0.0856 0.56219 0.0
C247 C 0.87256 0.13449 0.61421 0.0
C248 C 0.82438 0.08172 0.53952 0.0
C249 C 0.84421 0.16352 0.68907 0.0
O250 O 0.72006 0.20139 0.78545 0.0
O251 O 0.77669 0.1893 0.79707 0.0
C252 C 0.73623 0.18064 0.80108 0.0
O253 O 0.85759 0.26905 0.8 0.0
O254 O 0.72091 0.28368 0.84752 0.0
O255 O 0.74507 0.32698 0.80446 0.0
O256 O 0.80908 0.28309 0.8487 0.0
C257 C 0.84801 0.28719 0.84253 0.0
O258 O 0.82093 0.2622 0.69938 0.0
O259 O 0.82099 0.31742 0.76593 0.0
O260 O 0.72852 0.23976 0.71449 0.0
O261 O 0.86334 0.20671 0.69945 0.0
O262 O 0.81138 0.1499 0.71336 0.0
O263 O 0.74824 0.18345 0.68972 0.0
C264 C 0.74099 0.35928 0.8877 0.0
C265 C 0.78488 0.39127 0.90044 0.0
C266 C 0.72356 0.40076 0.96136 0.0
C267 C 0.79781 0.42873 0.94287 0.0
C268 C 0.71075 0.36366 0.91904 0.0
C269 C 0.76705 0.43443 0.97326 0.0
C270 C 0.7262 0.32053 0.84263 0.0
C271 C 0.83144 0.30435 0.72217 0.0
H272 H 0.76822 0.11478 0.62774 0.0
H273 H 0.89386 0.10452 0.54992 0.0
H274 H 0.75686 0.0663 0.54298 0.0
H275 H 0.90481 0.15278 0.63404 0.0
H276 H 0.80892 0.38782 0.87707 0.0
H277 H 0.69861 0.40417 0.98311 0.0
H278 H 0.83149 0.45386 0.95105 0.0
H279 H 0.6769 0.33893 0.91011 0.0
Eu280 Eu 0.81133 0.77189 0.8022 0.0
Eu281 Eu 0.74729 0.73763 0.70219 0.0
C282 C 0.71557 0.69144 0.77977 0.0
C283 C 0.88709 0.76469 0.88288 0.0
C284 C 0.88696 0.75596 0.92612 0.0
C285 C 0.92645 0.72207 0.85001 0.0
C286 C 0.90598 0.73023 0.93121 0.0
C287 C 0.90707 0.74753 0.84483 0.0
C288 C 0.92587 0.71264 0.89315 0.0
C289 C 0.86216 0.7872 0.87618 0.0
O290 O 0.72221 0.77564 0.76267 0.0
O291 O 0.78124 0.81962 0.82174 0.0
C292 C 0.74227 0.80949 0.80329 0.0
O293 O 0.85039 0.80145 0.74827 0.0
O294 O 0.68337 0.70834 0.66178 0.0
O295 O 0.74114 0.73742 0.6284 0.0
O296 O 0.79613 0.80954 0.72137 0.0
C297 C 0.8372 0.82075 0.72641 0.0
O298 O 0.81077 0.70803 0.75315 0.0
O299 O 0.79449 0.70857 0.67877 0.0
O300 O 0.71749 0.68199 0.7329 0.0
O301 O 0.87479 0.80968 0.84643 0.0
O302 O 0.82027 0.76301 0.87032 0.0
O303 O 0.74295 0.72982 0.81116 0.0
C304 C 0.68316 0.75175 0.61649 0.0
C305 C 0.70451 0.79816 0.64079 0.0
C306 C 0.62843 0.75999 0.57809 0.0
C307 C 0.68806 0.82525 0.63378 0.0
C308 C 0.64507 0.73289 0.58501 0.0
C309 C 0.64957 0.80657 0.60261 0.0
C310 C 0.69926 0.72309 0.62643 0.0
C311 C 0.81164 0.69557 0.70587 0.0
H312 H 0.871 0.76806 0.95561 0.0
H313 H 0.94182 0.70977 0.82003 0.0
H314 H 0.90393 0.72314 0.96462 0.0
H315 H 0.90701 0.75305 0.81069 0.0
H316 H 0.7338 0.81349 0.66564 0.0
H317 H 0.59841 0.74423 0.55439 0.0
H318 H 0.70564 0.86092 0.65277 0.0
H319 H 0.62779 0.69713 0.56637 0.0
Cd320 Cd 0.97191 0.93898 0.52086 0.0
Cd321 Cd 0.09924 0.03889 0.45195 0.0
C322 C 0.05489 0.93136 0.54135 0.0
N323 N 1.01405 0.90365 0.51814 0.0
C324 C 1.02213 0.83968 0.51254 0.0
C325 C 0.06305 0.86763 0.54014 0.0
C326 C 0.08027 0.91402 0.55256 0.0
C327 C 0.9978 0.85852 0.50224 0.0
H328 H 0.06645 0.967 0.55437 0.0
H329 H 0.96488 0.83702 0.48475 0.0
C330 C 1.02102 0.93704 0.41217 0.0
C331 C 1.02675 0.06799 0.45181 0.0
C332 C 1.0073 0.09078 0.44046 0.0
C333 C 0.03328 0.13425 0.44014 0.0
C334 C 0.07776 0.15541 0.45659 0.0
C335 C 0.09584 0.13131 0.4678 0.0
N336 N 0.07036 0.08786 0.46319 0.0
H337 H 1.00767 0.03311 0.44713 0.0
H338 H 0.13059 0.14608 0.47618 0.0
C339 C 0.19291 0.04738 0.4702 0.0
N340 N 0.15782 0.04355 0.49412 0.0
C341 C 0.19113 0.04082 0.56176 0.0
C342 C 0.22682 0.04211 0.53671 0.0
C343 C 0.22775 0.0469 0.49078 0.0
C344 C 0.15651 0.04057 0.53924 0.0
H345 H 0.19301 0.04837 0.43381 0.0
H346 H 0.12798 0.03608 0.55716 0.0
C347 C 0.04918 0.04204 0.56224 0.0
C348 C 0.92669 0.90272 0.5901 0.0
N349 N 0.91564 0.93117 0.4722 0.0
C350 C 0.87627 0.91722 0.48851 0.0
C351 C 0.84446 0.92443 0.47144 0.0
C352 C 0.85338 0.94642 0.43718 0.0
C353 C 0.89152 0.95301 0.41513 0.0
C354 C 0.92308 0.947 0.43474 0.0
C355 C 0.13655 0.06624 0.37441 0.0
O356 O 1.0188 0.95114 0.45729 0.0
O357 O 0.05344 0.96165 0.39594 0.0
O358 O 0.05324 0.02772 0.51755 0.0
O359 O 1.01651 0.01667 0.57766 0.0
O360 O 0.92709 0.8776 0.54793 0.0
O361 O 0.94549 0.94466 0.59908 0.0
O362 O 0.15485 0.08814 0.41798 0.0
O363 O 0.10067 0.03102 0.3666 0.0
H364 H 0.87105 0.9047 0.51832 0.0
H365 H 0.95458 0.95854 0.42258 0.0
H366 H 1.00789 0.80372 0.50194 0.0
H367 H 0.1114 0.93685 0.57441 0.0
H368 H 0.97303 0.07288 0.42739 0.0
H369 H 0.09879 0.18904 0.45728 0.0
H370 H 0.18861 0.03745 0.59723 0.0
H371 H 0.25339 0.04668 0.46868 0.0
H372 H 0.8157 0.91769 0.48971 0.0
H373 H 0.89937 0.96764 0.38689 0.0
Cd374 Cd 0.48328 0.99156 0.08439 0.0
Cd375 Cd 0.56741 0.00752 0.94562 0.0
C376 C 0.56621 0.99167 0.13626 0.0
N377 N 0.53697 0.97093 0.09565 0.0
C378 C 0.56555 0.91953 0.06197 0.0
C379 C 0.59599 0.93995 0.10339 0.0
C380 C 0.59634 0.97681 0.14076 0.0
C381 C 0.53613 0.93533 0.05906 0.0
H382 H 0.56592 0.01945 0.16537 0.0
H383 H 0.51213 0.91854 0.02764 0.0
C384 C 0.47314 0.93262 0.95163 0.0
C385 C 0.48939 0.00941 0.8885 0.0
C386 C 0.46017 0.02408 0.88013 0.0
C387 C 0.45937 0.06148 0.9152 0.0
C388 C 0.48807 0.08282 0.95837 0.0
C389 C 0.51658 0.06693 0.96532 0.0
N390 N 0.51683 0.03084 0.93064 0.0
H391 H 0.49037 0.98107 0.86114 0.0
H392 H 0.5388 0.08367 -0.00159 0.0
C393 C 0.59616 0.93607 0.87559 0.0
N394 N 0.59982 0.95817 0.92403 0.0
C395 C 0.64847 0.93162 0.93978 0.0
C396 C 0.64578 0.90891 0.8897 0.0
C397 C 0.6187 0.91131 0.85772 0.0
C398 C 0.62517 0.95607 0.9562 0.0
H399 H 0.57666 0.93881 0.85045 0.0
H400 H 0.62819 0.97417 0.99454 0.0
C401 C 0.57511 0.06013 0.07132 0.0
C402 C 0.42971 0.93105 0.13082 0.0
N403 N 0.4507 0.04095 0.10232 0.0
C404 C 0.45886 0.06875 0.1493 0.0
C405 C 0.4382 0.09564 0.16559 0.0
C406 C 0.40821 0.09421 0.13359 0.0
C407 C 0.40154 0.06627 0.08469 0.0
C408 C 0.42301 0.03973 0.06984 0.0
C409 C 0.62629 0.06482 0.90071 0.0
O410 O 0.48355 0.95905 0.99546 0.0
O411 O 0.50006 0.94048 0.92095 0.0
O412 O 0.55754 0.0294 0.03092 0.0
O413 O 0.55331 0.05965 0.10723 0.0
O414 O 0.42379 0.92132 0.08506 0.0
O415 O 0.45892 0.96997 0.15515 0.0
O416 O 0.63493 0.07213 0.94553 0.0
O417 O 0.59088 0.0313 0.87813 0.0
H418 H 0.48084 0.06931 0.17466 0.0
H419 H 0.41657 0.01729 0.03265 0.0
H420 H 0.5643 0.89142 0.03197 0.0
H421 H 0.61884 0.99327 0.17367 0.0
H422 H 0.43911 0.00687 0.84605 0.0
H423 H 0.48838 0.11143 0.98669 0.0
H424 H 0.66841 0.93058 0.96609 0.0
H425 H 0.61585 0.89529 0.81881 0.0
H426 H 0.44552 0.11714 0.20331 0.0
H427 H 0.37876 0.06361 0.05846 0.0
Cd428 Cd 0.98898 0.49433 0.05607 0.0
Cd429 Cd 0.08579 0.51871 0.93127 0.0
C430 C 0.07121 0.49291 0.10804 0.0
N431 N 0.04076 0.47149 0.06847 0.0
C432 C 0.06239 0.41386 0.03953 0.0
C433 C 0.09361 0.4346 0.08035 0.0
C434 C 0.0982 0.4751 0.11457 0.0
C435 C 0.03619 0.43276 0.0345 0.0
H436 H 0.07396 0.52325 0.1352 0.0
H437 H 1.01103 0.41554 0.00418 0.0
C438 C 0.99374 0.44571 0.93201 0.0
C439 C 1.00774 0.53371 0.89094 0.0
C440 C 0.98654 0.55778 0.88635 0.0
C441 C 1.00394 0.6037 0.91344 0.0
C442 C 0.04249 0.62388 0.94497 0.0
C443 C 0.06241 0.59856 0.94864 0.0
N444 N 0.04496 0.55433 0.9219 0.0
H445 H 0.99458 0.4987 0.86937 0.0
H446 H 0.09236 0.61441 0.97244 0.0
C447 C 0.10067 0.4343 0.87056 0.0
N448 N 0.11291 0.46457 0.91655 0.0
C449 C 0.16062 0.43643 0.93131 0.0
C450 C 0.14999 0.4062 0.88301 0.0
C451 C 0.11835 0.40478 0.85332 0.0
C452 C 0.1419 0.46558 0.94729 0.0
H453 H 0.07805 0.43406 0.84631 0.0
H454 H 0.15183 0.49006 0.98362 0.0
C455 C 0.08157 0.57453 0.06063 0.0
C456 C 0.93338 0.43106 0.09656 0.0
N457 N 0.95196 0.53958 0.07452 0.0
C458 C 0.94569 0.55296 0.12207 0.0
C459 C 0.92252 0.5772 0.13812 0.0
C460 C 0.90555 0.58867 0.10532 0.0
C461 C 0.91345 0.57556 0.05649 0.0
C462 C 0.93653 0.55064 0.04171 0.0
C463 C 0.14475 0.566 0.87805 0.0
O464 O 1.0034 0.47785 0.97174 0.0
O465 O 1.01923 0.45091 0.89979 0.0
O466 O 0.07455 0.54784 0.01721 0.0
O467 O 0.05273 0.56477 0.08892 0.0
O468 O 0.92896 0.42239 0.0508 0.0
O469 O 0.96239 0.46936 0.12257 0.0
O470 O 0.15607 0.57498 0.92265 0.0
O471 O 0.10701 0.53475 0.85938 0.0
H472 H 0.95849 0.54448 0.14784 0.0
H473 H 0.94167 0.5398 0.00399 0.0
H474 H 0.05677 0.38218 0.01267 0.0
H475 H 0.12194 0.49254 0.1465 0.0
H476 H 0.95673 0.54045 0.86191 0.0
H477 H 0.05786 0.65922 0.96592 0.0
H478 H 0.18448 0.43892 0.95597 0.0
H479 H 0.10774 0.38154 0.81637 0.0
H480 H 0.91818 0.58716 0.17623 0.0
H481 H 0.90106 0.58355 0.02979 0.0
Cd482 Cd 0.47351 0.43357 0.03152 0.0
Cd483 Cd 0.58894 0.55454 0.96915 0.0
C484 C 0.56375 0.43333 0.02513 0.0
N485 N 0.52115 0.40338 0.01891 0.0
C486 C 0.53895 0.34606 0.01691 0.0
C487 C 0.58321 0.37746 0.02829 0.0
C488 C 0.59557 0.42086 0.02901 0.0
C489 C 0.50828 0.35978 0.0119 0.0
H490 H 0.57289 0.46759 0.02996 0.0
H491 H 0.47415 0.33634 0.00593 0.0
C492 C 0.51414 0.44991 0.92234 0.0
C493 C 0.50724 0.56445 0.95401 0.0
C494 C 0.48376 0.58242 0.94 0.0
C495 C 0.50218 0.62886 0.95154 0.0
C496 C 0.54167 0.65631 0.98216 0.0
C497 C 0.56408 0.63683 0.99548 0.0
N498 N 0.54735 0.59161 0.9792 0.0
H499 H 0.49555 0.52876 0.94023 0.0
H500 H 0.5966 0.65783 0.01434 0.0
C501 C 0.68882 0.58065 0.98925 0.0
N502 N 0.65194 0.56618 0.01037 0.0
C503 C 0.68798 0.55648 0.06969 0.0
C504 C 0.72485 0.56523 0.04471 0.0
C505 C 0.72562 0.58043 0.00569 0.0
C506 C 0.65138 0.55531 0.05069 0.0
H507 H 0.68877 0.58932 0.95729 0.0
H508 H 0.62197 0.54329 0.06689 0.0
C509 C 0.5423 0.54176 0.07646 0.0
C510 C 0.43498 0.4032 0.10698 0.0
N511 N 0.41096 0.41279 0.98412 0.0
C512 C 0.41198 0.44357 0.96621 0.0
C513 C 0.37357 0.44082 0.95022 0.0
C514 C 0.33354 0.40678 0.95432 0.0
C515 C 0.33382 0.37218 0.96688 0.0
C516 C 0.3733 0.37614 0.98231 0.0
C517 C 0.62483 0.59143 0.89785 0.0
O518 O 0.51307 0.45799 0.96754 0.0
O519 O 0.54376 0.4796 0.90855 0.0
O520 O 0.54519 0.53128 0.03135 0.0
O521 O 0.51409 0.51173 0.09101 0.0
O522 O 0.44049 0.37722 0.06874 0.0
O523 O 0.44657 0.44306 0.10942 0.0
O524 O 0.62869 0.61548 0.94207 0.0
O525 O 0.60657 0.54923 0.8871 0.0
H526 H 0.44235 0.47261 0.96885 0.0
H527 H 0.37354 0.35217 0.99694 0.0
H528 H 0.52756 0.31222 0.01603 0.0
H529 H 0.62928 0.44587 0.03609 0.0
H530 H 0.45378 0.55984 0.91595 0.0
H531 H 0.55676 0.69228 0.99225 0.0
H532 H 0.68542 0.54696 0.10143 0.0
H533 H 0.75255 0.58845 0.98466 0.0
H534 H 0.37561 0.46859 0.94117 0.0
H535 H 0.30386 0.345 0.96989 0.0
Cd536 Cd 0.98023 0.48924 0.57871 0.0
Cd537 Cd 0.06363 0.50188 0.43908 0.0
C538 C 0.06101 0.48836 0.633 0.0
N539 N 0.03343 0.46835 0.59112 0.0
C540 C 0.06442 0.41902 0.55799 0.0
C541 C 0.09319 0.43872 0.60077 0.0
C542 C 0.09142 0.47414 0.63852 0.0
C543 C 0.03464 0.43418 0.55407 0.0
H544 H 0.05923 0.51515 0.66226 0.0
H545 H 1.01216 0.41821 0.52139 0.0
C546 C 0.96856 0.43063 0.44726 0.0
C547 C 0.98718 0.50436 0.37887 0.0
C548 C 0.95813 0.51934 0.37074 0.0
C549 C 0.95685 0.5561 0.40659 0.0
C550 C 0.98485 0.57652 0.45013 0.0
C551 C 1.01311 0.56034 0.45681 0.0
N552 N 1.0138 0.52483 0.42154 0.0
H553 H 0.98849 0.47642 0.3511 0.0
H554 H 0.03473 0.57634 0.49026 0.0
C555 C 0.07591 0.41001 0.41153 0.0
N556 N 0.09834 0.45542 0.42919 0.0
C557 C 0.16572 0.45179 0.42129 0.0
C558 C 0.14353 0.40488 0.40082 0.0
C559 C 0.09786 0.38413 0.39734 0.0
C560 C 0.1425 0.47636 0.4351 0.0
H561 H 0.04089 0.39371 0.40651 0.0
H562 H 0.15984 0.51244 0.44845 0.0
C563 C 0.07233 0.55737 0.56528 0.0
C564 C 0.92439 0.43081 0.62565 0.0
N565 N 0.94823 0.53881 0.59577 0.0
C566 C 0.96161 0.57208 0.63987 0.0
C567 C 0.94076 0.59881 0.65602 0.0
C568 C 0.90521 0.59142 0.62692 0.0
C569 C 0.8931 0.55777 0.58066 0.0
C570 C 0.91495 0.53169 0.56588 0.0
C571 C 0.12467 0.55651 0.39262 0.0
O572 O 0.98106 0.45854 0.49024 0.0
O573 O 0.99404 0.43638 0.41486 0.0
O574 O 0.05557 0.52622 0.52495 0.0
O575 O 0.0501 0.55673 0.60085 0.0
O576 O 0.91976 0.41984 0.57959 0.0
O577 O 0.95395 0.46963 0.64966 0.0
O578 O 0.12351 0.57143 0.43825 0.0
O579 O 0.09761 0.51628 0.36914 0.0
H580 H 0.98781 0.57706 0.66334 0.0
H581 H 0.90429 0.50474 0.53119 0.0
H582 H 0.06487 0.39207 0.52764 0.0
H583 H 0.1126 0.49004 0.67239 0.0
H584 H 0.93752 0.50286 0.3364 0.0
H585 H 0.98474 0.60459 0.479 0.0
H586 H 0.20072 0.46966 0.4244 0.0
H587 H 0.07904 0.34814 0.38268 0.0
H588 H 0.95218 0.62472 0.69148 0.0
H589 H 0.86586 0.55035 0.55685 0.0
Cd590 Cd 0.48125 0.98631 0.54821 0.0
Cd591 Cd 0.58432 0.01775 0.43011 0.0
C592 C 0.53047 0.95458 0.60904 0.0
N593 N 0.52904 0.96035 0.56566 0.0
C594 C 0.57374 0.92473 0.53608 0.0
C595 C 0.57408 0.91634 0.57958 0.0
C596 C 0.55272 0.93253 0.61674 0.0
C597 C 0.55089 0.94662 0.52982 0.0
H598 H 0.51309 0.96565 0.63727 0.0
H599 H 0.54981 0.95147 0.49564 0.0
C600 C 0.49169 0.94101 0.42355 0.0
C601 C 0.50762 0.03314 0.39071 0.0
C602 C 0.48369 0.05519 0.38851 0.0
C603 C 0.49454 0.09757 0.42311 0.0
C604 C 0.52923 0.1163 0.45966 0.0
C605 C 0.55232 0.09314 0.46043 0.0
N606 N 0.54119 0.05228 0.42642 0.0
H607 H 0.49969 0.001 0.36347 0.0
H608 H 0.57976 0.10823 0.48777 0.0
C609 C 0.60044 0.93375 0.37039 0.0
N610 N 0.61302 0.96511 0.41577 0.0
C611 C 0.66269 0.93953 0.43139 0.0
C612 C 0.65132 0.90789 0.38388 0.0
C613 C 0.61873 0.90474 0.354 0.0
C614 C 0.64334 0.96812 0.44653 0.0
H615 H 0.57709 0.93219 0.3459 0.0
H616 H 0.65367 0.99364 0.48223 0.0
C617 C 0.57732 0.06422 0.56061 0.0
C618 C 0.41724 0.92443 0.58526 0.0
N619 N 0.45252 0.03941 0.568 0.0
C620 C 0.45147 0.05696 0.61654 0.0
C621 C 0.43165 0.08441 0.63432 0.0
C622 C 0.41288 0.09509 0.60229 0.0
C623 C 0.41651 0.07867 0.55241 0.0
C624 C 0.43605 0.05032 0.53588 0.0
C625 C 0.64286 0.0675 0.37815 0.0
O626 O 0.49777 0.97172 0.46391 0.0
O627 O 0.51904 0.94971 0.39368 0.0
O628 O 0.57132 0.04037 0.51606 0.0
O629 O 0.54743 0.05217 0.5871 0.0
O630 O 0.41939 0.91378 0.5397 0.0
O631 O 0.44299 0.96393 0.61188 0.0
O632 O 0.65401 0.07601 0.42266 0.0
O633 O 0.60529 0.03608 0.35914 0.0
H634 H 0.46531 0.04882 0.64178 0.0
H635 H 0.43711 0.03634 0.49737 0.0
H636 H 0.5904 0.91387 0.50669 0.0
H637 H 0.5516 0.9267 0.65082 0.0
H638 H 0.45704 0.03922 0.35985 0.0
H639 H 0.53939 0.14917 0.48656 0.0
H640 H 0.68756 0.94347 0.45593 0.0
H641 H 0.6079 0.88054 0.31751 0.0
H642 H 0.43074 0.09693 0.67311 0.0
H643 H 0.40277 0.08608 0.52623 0.0
C644 C 0.15187 0.11778 0.27827 0.0
C645 C 0.19716 0.13786 0.28078 0.0
H646 H 0.09634 0.0776 0.3065 0.0
C647 C 0.2208 0.12653 0.30634 0.0
H648 H 0.13331 0.12694 0.25948 0.0
C649 C 0.20018 0.09977 0.33401 0.0
C650 C 0.1555 0.08317 0.33547 0.0
H651 H 0.25584 0.14199 0.30876 0.0
H652 H 0.21952 0.09465 0.35692 0.0
C653 C 0.13093 0.08999 0.30535 0.0
C654 C 1.01873 0.18036 0.34747 0.0
C655 C 0.9751 0.17111 0.34868 0.0
H656 H 0.07135 0.17607 0.37565 0.0
C657 C 0.95277 0.15585 0.38523 0.0
H658 H 0.03676 0.19186 0.31961 0.0
C659 C 0.97272 0.147 0.41769 0.0
C660 C 1.0154 0.15327 0.41424 0.0
H661 H 0.9194 0.14942 0.38779 0.0
H662 H 0.95416 0.13348 0.44416 0.0
C663 C 0.03867 0.17152 0.37989 0.0
C664 C 0.9124 0.83463 0.36645 0.0
C665 C 0.9041 0.83457 0.32006 0.0
H666 H 0.95545 0.86815 0.43237 0.0
C667 C 0.93642 0.86558 0.30227 0.0
H668 H 0.88786 0.81136 0.3813 0.0
C669 C 0.97603 0.89688 0.33099 0.0
C670 C 0.98338 0.8985 0.37851 0.0
H671 H 0.93084 0.86606 0.26651 0.0
H672 H 0.99985 0.92138 0.31699 0.0
C673 C 0.95136 0.86673 0.39559 0.0
C674 C 0.25576 0.96208 0.55972 0.0
C675 C 0.28485 0.96282 0.52481 0.0
H676 H 0.21245 0.98729 0.59099 0.0
C677 C 0.30921 0.00313 0.51616 0.0
H678 H 0.23884 0.93297 0.5704 0.0
C679 C 0.29603 0.0363 0.53095 0.0
C680 C 0.25702 0.02787 0.55159 0.0
H681 H 0.33367 0.00645 0.49158 0.0
H682 H 0.31196 0.06455 0.51867 0.0
C683 C 0.24087 0.99392 0.57209 0.0
C684 C 0.07799 0.80687 0.61534 0.0
C685 C 0.1233 0.82725 0.62485 0.0
H686 H 1.02354 0.80368 0.58105 0.0
C687 C 0.14884 0.85698 0.60122 0.0
H688 H 0.05746 0.78418 0.63337 0.0
C689 C 0.12932 0.86803 0.57076 0.0
C690 C 0.08396 0.84953 0.56352 0.0
H691 H 0.18388 0.87247 0.60718 0.0
H692 H 0.14969 0.89218 0.55427 0.0
C693 C 0.05854 0.81789 0.58502 0.0
C694 C 0.15596 0.14667 0.61025 0.0
C695 C 0.15973 0.15248 0.65992 0.0
H696 H 0.1186 0.10739 0.54086 0.0
C697 C 0.12439 0.12473 0.67822 0.0
H698 H 0.18229 0.16754 0.59471 0.0
C699 C 0.08706 0.09043 0.6469 0.0
C700 C 0.08453 0.08312 0.5967 0.0
H701 H 0.12607 0.1285 0.71634 0.0
H702 H 0.06113 0.06831 0.66167 0.0
C703 C 0.11895 0.11245 0.57916 0.0
C704 C 0.8494 0.0524 0.46124 0.0
C705 C 0.81732 0.0457 0.49261 0.0
H706 H 0.88592 0.02497 0.41628 0.0
C707 C 0.78576 0.0018 0.48614 0.0
H708 H 0.87283 0.08589 0.46351 0.0
C709 C 0.79229 0.96593 0.45729 0.0
C710 C 0.83156 0.97411 0.43716 0.0
H711 H 0.7595 0.99528 0.50843 0.0
H712 H 0.77002 0.9329 0.45734 0.0
C713 C 0.85663 0.01679 0.43362 0.0
C714 C 0.86167 0.88232 0.69333 0.0
C715 C 0.86505 0.84576 0.69688 0.0
H716 H 0.87969 0.92988 0.65691 0.0
C717 C 0.89021 0.82921 0.66657 0.0
H718 H 0.84188 0.8951 0.71607 0.0
C719 C 0.91019 0.84778 0.63155 0.0
C720 C 0.9063 0.88395 0.62754 0.0
H721 H 0.89252 0.80048 0.66818 0.0
H722 H 0.92852 0.8338 0.60748 0.0
C723 C 0.88292 0.9019 0.65946 0.0
C724 C 0.35003 0.16578 0.1432 0.0
C725 C 0.33819 0.17186 0.19067 0.0
H726 H 0.38157 0.13725 0.088 0.0
C727 C 0.34829 0.15086 0.21787 0.0
H728 H 0.34298 0.18139 0.12106 0.0
C729 C 0.3702 0.12562 0.19905 0.0
C730 C 0.38319 0.12029 0.15216 0.0
H731 H 0.33935 0.1539 0.25422 0.0
H732 H 0.37671 0.10997 0.22153 0.0
C733 C 0.37217 0.14031 0.12419 0.0
C734 C 0.88212 0.3797 0.19099 0.0
C735 C 0.86728 0.33413 0.16486 0.0
H736 H 0.91488 0.44621 0.18959 0.0
C737 C 0.87246 0.32039 0.11534 0.0
H738 H 0.87834 0.39112 0.22916 0.0
C739 C 0.89237 0.35184 0.09238 0.0
C740 C 0.90819 0.39748 0.11892 0.0
H741 H 0.86077 0.28534 0.09426 0.0
H742 H 0.8965 0.34058 0.05431 0.0
C743 C 0.90285 0.41115 0.16835 0.0
C744 C 0.69723 0.93218 0.13185 0.0
C745 C 0.68203 0.88569 0.11577 0.0
H746 H 0.68221 0.98584 0.14058 0.0
C747 C 0.63853 0.85747 0.09548 0.0
H748 H 0.73043 0.9549 0.14813 0.0
C749 C 0.61088 0.87515 0.09163 0.0
C750 C 0.6259 0.92159 0.10786 0.0
H751 H 0.62578 0.82154 0.08229 0.0
H752 H 0.57743 0.85224 0.07645 0.0
C753 C 0.66945 0.94993 0.12807 0.0
C754 C 0.19941 0.64647 0.09794 0.0
C755 C 0.1986 0.67898 0.14026 0.0
H756 H 0.16158 0.58744 0.03757 0.0
C757 C 0.16082 0.68359 0.14798 0.0
H758 H 0.2286 0.64292 0.09107 0.0
C759 C 0.12256 0.65161 0.1178 0.0
C760 C 0.12223 0.61551 0.07941 0.0
H761 H 0.15962 0.70862 0.18021 0.0
H762 H 0.09259 0.65277 0.12718 0.0
C763 C 0.16127 0.61496 0.06723 0.0
C764 C 0.40332 0.81643 0.87589 0.0
C765 C 0.36569 0.81931 0.86742 0.0
H766 H 0.46772 0.85128 0.91243 0.0
C767 C 0.35961 0.85505 0.89846 0.0
H768 H 0.40825 0.78866 0.85302 0.0
C769 C 0.39369 0.89084 0.93278 0.0
C770 C 0.43347 0.89051 0.93602 0.0
H771 H 0.33061 0.8577 0.89267 0.0
H772 H 0.3907 0.9207 0.95225 0.0
C773 C 0.43708 0.85191 0.91015 0.0
C774 C 0.20128 0.34319 0.792 0.0
C775 C 0.21454 0.32386 0.8187 0.0
H776 H 0.17255 0.38434 0.79086 0.0
C777 C 0.2073 0.33276 0.86797 0.0
H778 H 0.2066 0.33806 0.75428 0.0
C779 C 0.1868 0.35957 0.88934 0.0
C780 C 0.17293 0.3782 0.862 0.0
H781 H 0.21736 0.319 0.89005 0.0
H782 H 0.18137 0.36519 0.92708 0.0
C783 C 0.18117 0.36981 0.81316 0.0
C784 C 0.66426 0.12502 0.81103 0.0
C785 C 0.70906 0.1495 0.82538 0.0
H786 H 0.60312 0.07857 0.82348 0.0
C787 C 0.72695 0.14586 0.86466 0.0
H788 H 0.64979 0.12735 0.78083 0.0
C789 C 0.70004 0.11879 0.89001 0.0
C790 C 0.6552 0.09419 0.87539 0.0
H791 H 0.76146 0.16486 0.87657 0.0
H792 H 0.71427 0.11676 0.9206 0.0
C793 C 0.63764 0.09717 0.8354 0.0
C794 C 0.94386 0.64841 0.85825 0.0
C795 C 0.9454 0.68426 0.89833 0.0
H796 H 0.96127 0.5956 0.83116 0.0
C797 C 0.9656 0.69258 0.94357 0.0
H798 H 0.92802 0.64025 0.82294 0.0
C799 C 0.98377 0.66612 0.94855 0.0
C800 C 0.98281 0.63071 0.90836 0.0
H801 H 0.96802 0.72002 0.9753 0.0
H802 H 0.99849 0.67346 0.98417 0.0
C803 C 0.96238 0.62217 0.86315 0.0
C804 C 0.14958 0.36103 0.05695 0.0
C805 C 0.15471 0.35933 0.10345 0.0
H806 H 0.12744 0.38676 0.0133 0.0
C807 C 0.14354 0.38625 0.14282 0.0
H808 H 0.15782 0.34097 0.02565 0.0
C809 C 0.12547 0.41202 0.13559 0.0
C810 C 0.11825 0.41193 0.08878 0.0
H811 H 0.14802 0.38689 0.17937 0.0
H812 H 0.11552 0.43056 0.16658 0.0
C813 C 0.13166 0.38701 0.04975 0.0
C814 C 0.24203 0.64789 0.83868 0.0
C815 C 0.22261 0.6479 0.79781 0.0
H816 H 0.23217 0.62211 0.89708 0.0
C817 C 0.17849 0.619 0.78197 0.0
H818 H 0.27609 0.67012 0.85153 0.0
C819 C 0.15377 0.5912 0.80725 0.0
C820 C 0.17254 0.59251 0.84946 0.0
H821 H 0.16294 0.61822 0.75029 0.0
H822 H 0.11956 0.56979 0.79457 0.0
C823 C 0.21698 0.62068 0.86476 0.0
C824 C 0.35909 0.06579 0.87551 0.0
C825 C 0.37384 0.11197 0.88803 0.0
H826 H 0.37421 0.01367 0.87423 0.0
C827 C 0.41671 0.14131 0.91027 0.0
H828 H 0.32643 0.04218 0.85798 0.0
C829 C 0.44414 0.12497 0.91946 0.0
C830 C 0.42961 0.07878 0.9064 0.0
H831 H 0.42909 0.17707 0.92085 0.0
H832 H 0.47707 0.14861 0.93606 0.0
C833 C 0.38666 0.04941 0.88438 0.0
C834 C 0.87962 0.35722 0.91405 0.0
C835 C 0.88382 0.32118 0.88048 0.0
H836 H 0.91278 0.42676 0.95725 0.0
C837 C 0.92499 0.32369 0.87543 0.0
H838 H 0.84812 0.35587 0.91916 0.0
C839 C 0.96162 0.36406 0.89702 0.0
C840 C 0.95725 0.4019 0.92425 0.0
H841 H 0.92899 0.29598 0.8507 0.0
H842 H 0.99318 0.36662 0.88889 0.0
C843 C 0.91648 0.39777 0.93583 0.0
C844 C 0.73701 0.87438 0.86913 0.0
C845 C 0.71835 0.83515 0.82798 0.0
H846 H 0.72927 0.92857 0.92085 0.0
C847 C 0.67527 0.81986 0.80925 0.0
H848 H 0.76995 0.88725 0.88478 0.0
C849 C 0.65198 0.84315 0.82996 0.0
C850 C 0.67069 0.88296 0.87023 0.0
H851 H 0.65911 0.78958 0.77807 0.0
H852 H 0.61895 0.82965 0.81416 0.0
C853 C 0.71349 0.89796 0.89 0.0
C854 C 0.82806 0.62782 0.17615 0.0
C855 C 0.83609 0.6658 0.16471 0.0
H856 H 0.84272 0.57388 0.16619 0.0
C857 C 0.86509 0.67632 0.13037 0.0
H858 H 0.80577 0.61808 0.20195 0.0
C859 C 0.88643 0.65048 0.10951 0.0
C860 C 0.87973 0.61375 0.12285 0.0
H861 H 0.87199 0.70504 0.12028 0.0
H862 H 0.90938 0.66026 0.08429 0.0
C863 C 0.84952 0.60239 0.15572 0.0
C864 C 0.38764 0.87805 0.22725 0.0
C865 C 0.36585 0.83246 0.19895 0.0
H866 H 0.42505 0.94507 0.22789 0.0
C867 C 0.3641 0.81981 0.1481 0.0
H868 H 0.38948 0.88885 0.26652 0.0
C869 C 0.3837 0.85199 0.12599 0.0
C870 C 0.40606 0.89751 0.15426 0.0
H871 H 0.34722 0.78499 0.12524 0.0
H872 H 0.38204 0.84108 0.08674 0.0
C873 C 0.40788 0.91024 0.20514 0.0
C874 C 0.69568 0.11196 0.08669 0.0
C875 C 0.7065 0.15706 0.11022 0.0
H876 H 0.64428 0.04546 0.05484 0.0
C877 C 0.67416 0.1707 0.11256 0.0
H878 H 0.71999 0.10065 0.08436 0.0
C879 C 0.63097 0.13907 0.09713 0.0
C880 C 0.62001 0.09383 0.07732 0.0
H881 H 0.68148 0.2053 0.13024 0.0
H882 H 0.60601 0.14969 0.10291 0.0
C883 C 0.65256 0.0805 0.06982 0.0
C884 C 0.67561 0.61653 0.78806 0.0
C885 C 0.68221 0.66043 0.79983 0.0
H886 H 0.65185 0.55952 0.81093 0.0
C887 C 0.66425 0.67842 0.83939 0.0
H888 H 0.68972 0.60241 0.7579 0.0
C889 C 0.6437 0.6547 0.86982 0.0
C890 C 0.64052 0.61244 0.86098 0.0
H891 H 0.66881 0.71221 0.84878 0.0
H892 H 0.632 0.6703 0.90152 0.0
C893 C 0.65453 0.5924 0.8186 0.0
C894 C 0.42391 0.63697 0.87525 0.0
C895 C 0.45257 0.66561 0.8522 0.0
H896 H 0.41704 0.60436 0.92678 0.0
C897 C 0.49717 0.68736 0.86771 0.0
H898 H 0.38925 0.62059 0.86466 0.0
C899 C 0.51311 0.67797 0.90303 0.0
C900 C 0.48468 0.6469 0.9238 0.0
H901 H 0.51994 0.70959 0.85049 0.0
H902 H 0.5479 0.69273 0.91143 0.0
C903 C 0.43979 0.62788 0.91092 0.0
C904 C 0.41534 0.338 0.86663 0.0
C905 C 0.40258 0.3426 0.82483 0.0
H906 H 0.46108 0.36861 0.93055 0.0
C907 C 0.42911 0.38082 0.81331 0.0
H908 H 0.3955 0.30893 0.87651 0.0
C909 C 0.46678 0.4145 0.84381 0.0
C910 C 0.47832 0.41102 0.8869 0.0
H911 H 0.42033 0.38519 0.78119 0.0
H912 H 0.48575 0.44426 0.83478 0.0
C913 C 0.45281 0.37209 0.89758 0.0
C914 C 0.79993 0.51752 0.00102 0.0
C915 C 0.77724 0.47801 0.01152 0.0
H916 H 0.8053 0.58107 0.00931 0.0
C917 C 0.75371 0.47917 0.05157 0.0
H918 H 0.82061 0.51909 0.9723 0.0
C919 C 0.74274 0.51368 0.07078 0.0
C920 C 0.75554 0.54746 0.05009 0.0
H921 H 0.73837 0.45037 0.06303 0.0
H922 H 0.71949 0.50957 0.09662 0.0
C923 C 0.79005 0.55281 0.02152 0.0
C924 C 0.66594 0.38876 0.11681 0.0
C925 C 0.65656 0.34408 0.10537 0.0
H926 H 0.64997 0.43443 0.10167 0.0
C927 C 0.62948 0.31195 0.06254 0.0
H928 H 0.68677 0.41418 0.14964 0.0
C929 C 0.60887 0.32365 0.03405 0.0
C930 C 0.61433 0.36749 0.04856 0.0
H931 H 0.62258 0.27738 0.05246 0.0
H932 H 0.58663 0.29778 0.00242 0.0
C933 C 0.6449 0.40035 0.08887 0.0
C934 C 0.62097 0.62352 0.18972 0.0
C935 C 0.65235 0.65459 0.17103 0.0
H936 H 0.56075 0.56343 0.17445 0.0
C937 C 0.64342 0.65201 0.1236 0.0
H938 H 0.62671 0.62481 0.22629 0.0
C939 C 0.6057 0.61719 0.09424 0.0
C940 C 0.57596 0.58398 0.11133 0.0
H941 H 0.66656 0.67568 0.10816 0.0
H942 H 0.60168 0.61433 0.05688 0.0
C943 C 0.58304 0.58848 0.16009 0.0
C944 C 0.26308 0.4454 0.02942 0.0
C945 C 0.27059 0.4805 0.01291 0.0
H946 H 0.27631 0.39139 0.02146 0.0
C947 C 0.27975 0.47617 0.96484 0.0
H948 H 0.25455 0.44681 0.06569 0.0
C949 C 0.2917 0.4435 0.93873 0.0
C950 C 0.29578 0.41618 0.96137 0.0
H951 H 0.2837 0.50167 0.95024 0.0
H952 H 0.30461 0.44478 0.90468 0.0
C953 C 0.27554 0.41315 0.00359 0.0
C954 C 0.36719 0.38645 0.20901 0.0
C955 C 0.37161 0.35186 0.21672 0.0
H956 H 0.38486 0.43063 0.16842 0.0
C957 C 0.39945 0.33652 0.19067 0.0
H958 H 0.34552 0.3984 0.2285 0.0
C959 C 0.42066 0.35378 0.1553 0.0
C960 C 0.41522 0.38742 0.14655 0.0
H961 H 0.40277 0.30934 0.19551 0.0
H962 H 0.44071 0.3403 0.13421 0.0
C963 C 0.38946 0.40465 0.17465 0.0
C964 C 0.85122 0.65365 0.71407 0.0
C965 C 0.83369 0.66727 0.68407 0.0
H966 H 0.88624 0.61922 0.72008 0.0
C967 C 0.83923 0.65495 0.6344 0.0
H968 H 0.84772 0.66211 0.75246 0.0
C969 C 0.862 0.6302 0.61559 0.0
C970 C 0.8801 0.61725 0.64597 0.0
H971 H 0.82648 0.66491 0.6101 0.0
H972 H 0.86615 0.62203 0.57739 0.0
C973 C 0.87389 0.62917 0.69543 0.0
C974 C 0.36307 0.87655 0.68082 0.0
C975 C 0.35305 0.83152 0.65843 0.0
H976 H 0.39084 0.94126 0.67465 0.0
C977 C 0.36031 0.81639 0.60982 0.0
H978 H 0.35749 0.88911 0.71809 0.0
C979 C 0.3786 0.84616 0.58457 0.0
C980 C 0.39047 0.89156 0.60785 0.0
H981 H 0.35225 0.78166 0.59142 0.0
H982 H 0.38528 0.83405 0.5477 0.0
C983 C 0.38189 0.90635 0.65587 0.0
C984 C 0.1386 0.35845 0.59317 0.0
C985 C 0.18135 0.38746 0.6158 0.0
H986 H 0.07743 0.35163 0.5713 0.0
C987 C 0.19505 0.43371 0.63335 0.0
H988 H 0.12702 0.32269 0.57882 0.0
C989 C 0.16657 0.45044 0.62872 0.0
C990 C 0.12378 0.42134 0.60612 0.0
H991 H 0.22761 0.45701 0.6514 0.0
H992 H 0.17821 0.48622 0.64243 0.0
C993 C 0.11026 0.37513 0.58839 0.0
C994 C 0.6941 0.14433 0.60157 0.0
C995 C 0.69054 0.17621 0.64256 0.0
H996 H 0.65983 0.08316 0.54192 0.0
C997 C 0.65055 0.17627 0.64911 0.0
H998 H 0.72495 0.14427 0.5955 0.0
C999 C 0.61354 0.14119 0.619 0.0
C1000 C 0.61645 0.1064 0.58168 0.0
H1001 H 0.6471 0.20064 0.68028 0.0
H1002 H 0.58228 0.13951 0.62716 0.0
C1003 C 0.65707 0.10959 0.57089 0.0
C1004 C 0.85533 0.35301 0.39463 0.0
C1005 C 0.8608 0.31548 0.36842 0.0
H1006 H 0.88717 0.42098 0.44299 0.0
C1007 C 0.89719 0.31245 0.38146 0.0
H1008 H 0.82734 0.35589 0.38523 0.0
C1009 C 0.9309 0.3493 0.41466 0.0
C1010 C 0.92831 0.38923 0.43489 0.0
H1011 H 0.90163 0.28343 0.36223 0.0
H1012 H 0.96092 0.34828 0.41996 0.0
C1013 C 0.88933 0.39011 0.42785 0.0
C1014 C 0.70877 0.83502 0.37077 0.0
C1015 C 0.71636 0.82599 0.32162 0.0
H1016 H 0.68231 0.86753 0.42916 0.0
C1017 C 0.70349 0.84529 0.29449 0.0
H1018 H 0.71843 0.82119 0.39309 0.0
C1019 C 0.68326 0.87185 0.31504 0.0
C1020 C 0.67462 0.88027 0.36369 0.0
H1021 H 0.70902 0.84002 0.2568 0.0
H1022 H 0.67469 0.88618 0.29245 0.0
C1023 C 0.6882 0.86185 0.39154 0.0
C1024 C 0.19926 0.5942 0.30149 0.0
C1025 C 0.20852 0.63911 0.31595 0.0
H1026 H 0.16416 0.53218 0.31424 0.0
C1027 C 0.19136 0.65699 0.35659 0.0
H1028 H 0.2123 0.5799 0.27026 0.0
C1029 C 0.16529 0.63038 0.38257 0.0
C1030 C 0.15484 0.58512 0.36733 0.0
H1031 H 0.19851 0.69175 0.36858 0.0
H1032 H 0.15231 0.64488 0.41372 0.0
C1033 C 0.17186 0.5671 0.32653 0.0
C1034 C 0.43908 0.14764 0.37122 0.0
C1035 C 0.43055 0.17436 0.41333 0.0
H1036 H 0.46626 0.10321 0.34125 0.0
C1037 C 0.44224 0.17475 0.45879 0.0
H1038 H 0.43112 0.14704 0.33565 0.0
C1039 C 0.46228 0.14932 0.46201 0.0
C1040 C 0.47128 0.12301 0.41986 0.0
H1041 H 0.43556 0.19442 0.49189 0.0
H1042 H 0.47055 0.15013 0.49756 0.0
C1043 C 0.45918 0.12237 0.37444 0.0
C1044 C 0.6111 0.82665 0.55102 0.0
C1045 C 0.63124 0.83544 0.59643 0.0
H1046 H 0.57701 0.84442 0.51018 0.0
C1047 C 0.63331 0.87183 0.63607 0.0
H1048 H 0.60931 0.79936 0.51948 0.0
C1049 C 0.61548 0.89839 0.63053 0.0
C1050 C 0.59484 0.88926 0.58524 0.0
H1051 H 0.64809 0.87946 0.67177 0.0
H1052 H 0.61801 0.92619 0.66188 0.0
C1053 C 0.59309 0.85307 0.54553 0.0
C1054 C 0.74157 0.14687 0.33766 0.0
C1055 C 0.72281 0.1468 0.29626 0.0
H1056 H 0.73056 0.12217 0.39702 0.0
C1057 C 0.67838 0.11924 0.28101 0.0
H1058 H 0.77582 0.16812 0.35017 0.0
C1059 C 0.65284 0.09267 0.30714 0.0
C1060 C 0.67109 0.09387 0.34962 0.0
H1061 H 0.66328 0.11846 0.24901 0.0
H1062 H 0.6185 0.07208 0.2947 0.0
C1063 C 0.71573 0.12091 0.36455 0.0
C1064 C 0.91451 0.63693 0.40537 0.0
C1065 C 0.8715 0.60801 0.3835 0.0
H1066 H 0.97497 0.64341 0.42942 0.0
C1067 C 0.85662 0.56168 0.36946 0.0
H1068 H 0.92698 0.67277 0.41702 0.0
C1069 C 0.88423 0.54477 0.37666 0.0
C1070 C 0.92726 0.57377 0.39853 0.0
H1071 H 0.82381 0.53845 0.35216 0.0
H1072 H 0.87173 0.50895 0.36553 0.0
C1073 C 0.94195 0.62006 0.4129 0.0
C1074 C 0.38361 0.84103 0.40462 0.0
C1075 C 0.39174 0.80845 0.36951 0.0
H1076 H 0.40959 0.91025 0.44857 0.0
C1077 C 0.43457 0.81762 0.36204 0.0
H1078 H 0.35086 0.8346 0.41169 0.0
C1079 C 0.46801 0.8605 0.38391 0.0
C1080 C 0.45897 0.89467 0.41334 0.0
H1081 H 0.44181 0.7929 0.33592 0.0
H1082 H 0.50048 0.86769 0.37469 0.0
C1083 C 0.41713 0.88428 0.42601 0.0
C1084 C 0.23201 0.36683 0.38063 0.0
C1085 C 0.2144 0.32976 0.33726 0.0
H1086 H 0.22367 0.41902 0.43511 0.0
C1087 C 0.17285 0.31702 0.31618 0.0
H1088 H 0.26378 0.3777 0.39811 0.0
C1089 C 0.14991 0.34074 0.33723 0.0
C1090 C 0.16756 0.3782 0.38024 0.0
H1091 H 0.15797 0.28885 0.28274 0.0
H1092 H 0.11865 0.33025 0.31878 0.0
C1093 C 0.20897 0.39072 0.40176 0.0
C1094 C 0.37198 0.18293 0.6288 0.0
C1095 C 0.3448 0.17346 0.66497 0.0
H1096 H 0.41434 0.1656 0.58005 0.0
C1097 C 0.33892 0.13676 0.67791 0.0
H1098 H 0.3772 0.21061 0.61749 0.0
C1099 C 0.36022 0.11134 0.65679 0.0
C1100 C 0.38823 0.12128 0.62161 0.0
H1101 H 0.31819 0.1278 0.70521 0.0
H1102 H 0.35475 0.08368 0.66829 0.0
C1103 C 0.39316 0.15696 0.60712 0.0
C1104 C 0.8539 0.32244 0.64684 0.0
C1105 C 0.85414 0.33704 0.69755 0.0
H1106 H 0.8752 0.34077 0.58426 0.0
C1107 C 0.87617 0.38296 0.72427 0.0
H1108 H 0.8369 0.28728 0.62522 0.0
C1109 C 0.89846 0.41359 0.70081 0.0
C1110 C 0.89849 0.39891 0.65012 0.0
H1111 H 0.87691 0.39518 0.7634 0.0
H1112 H 0.91591 0.44873 0.72241 0.0
C1113 C 0.87556 0.3531 0.62333 0.0
C1114 C 0.16669 0.67049 0.61073 0.0
C1115 C 0.20042 0.65918 0.61091 0.0
H1116 H 0.09829 0.64585 0.5966 0.0
C1117 C 0.19264 0.61515 0.58574 0.0
H1118 H 0.17176 0.70425 0.62922 0.0
C1119 C 0.15066 0.58205 0.56558 0.0
C1120 C 0.11634 0.59279 0.57156 0.0
H1121 H 0.21817 0.60568 0.58495 0.0
H1122 H 0.14443 0.5476 0.54968 0.0
C1123 C 0.12464 0.63724 0.5921 0.0
loop_
_geom_bond_atom_site_label_1
_geom_bond_atom_site_label_2
_geom_bond_distance
_geom_bond_site_symmetry_2
_ccdc_geom_bond_type
Eu0 C9 2.828 . S
Eu0 O11 2.392 . S
Eu0 O13 2.418 . S
Eu0 O18 2.373 . S
Eu0 O21 2.488 . S
Eu0 O22 2.471 . S
Eu0 O23 2.349 . S
Eu1 O10 2.373 . S
Eu1 O14 2.488 . S
Eu1 O15 2.471 . S
Eu1 O16 2.349 . S
Eu1 O19 2.392 . S
Eu1 O20 2.418 . S
Eu1 C30 2.828 . S
C2 O20 1.244 . S
C2 O23 1.265 . S
C3 C4 1.379 . S
C3 C7 1.373 . S
C3 C9 1.505 . S
C4 C3 1.379 . S
C4 C6 1.369 . S
C4 H32 0.930 . S
C5 C7 1.383 . S
C5 C8 1.382 . S
C5 H33 0.930 . S
C6 C4 1.369 . S
C6 C8 1.392 . S
C6 H34 0.930 . S
C7 C3 1.373 . S
C7 C5 1.383 . S
C7 H35 0.931 . S
C8 C5 1.382 . S
C8 C6 1.392 . S
C9 Eu0 2.828 . S
C9 C3 1.505 . S
C9 O21 1.249 . S
C9 O22 1.244 . S
O10 Eu1 2.373 . S
O10 C12 1.258 . S
O11 Eu0 2.392 . S
O11 C12 1.242 . S
C12 O10 1.258 . S
C12 O11 1.242 . S
O13 Eu0 2.418 . S
O13 C17 1.244 . S
O14 Eu1 2.488 . S
O14 C30 1.249 . S
O15 Eu1 2.471 . S
O15 C30 1.244 . S
O16 Eu1 2.349 . S
O16 C17 1.265 . S
C17 O13 1.244 . S
C17 O16 1.265 . S
O18 Eu0 2.373 . S
O18 C31 1.258 . S
O19 Eu1 2.392 . S
O19 C31 1.242 . S
O20 Eu1 2.418 . S
O20 C2 1.244 . S
O21 Eu0 2.488 . S
O21 C9 1.249 . S
O22 Eu0 2.471 . S
O22 C9 1.244 . S
O23 Eu0 2.349 . S
O23 C2 1.265 . S
C24 C25 1.379 . S
C24 C28 1.373 . S
C24 C30 1.505 . S
C25 C24 1.379 . S
C25 C27 1.369 . S
C25 H36 0.930 . S
C26 C28 1.383 . S
C26 C29 1.382 . S
C26 H37 0.930 . S
C27 C25 1.369 . S
C27 C29 1.392 . S
C27 H38 0.930 . S
C28 C24 1.373 . S
C28 C26 1.383 . S
C28 H39 0.931 . S
C29 C26 1.382 . S
C29 C27 1.392 . S
C30 Eu1 2.828 . S
C30 O14 1.249 . S
C30 O15 1.244 . S
C30 C24 1.505 . S
C31 O18 1.258 . S
C31 O19 1.242 . S
H32 C4 0.930 . S
H33 C5 0.930 . S
H34 C6 0.930 . S
H35 C7 0.931 . S
H36 C25 0.930 . S
H37 C26 0.930 . S
H38 C27 0.930 . S
H39 C28 0.931 . S
Eu40 C49 2.828 . S
Eu40 O51 2.392 . S
Eu40 O53 2.418 . S
Eu40 O58 2.373 . S
Eu40 O61 2.488 . S
Eu40 O62 2.471 . S
Eu40 O63 2.349 . S
Eu41 O50 2.373 . S
Eu41 O54 2.488 . S
Eu41 O55 2.471 . S
Eu41 O56 2.349 . S
Eu41 O59 2.392 . S
Eu41 O60 2.418 . S
Eu41 C70 2.828 . S
C42 O60 1.244 . S
C42 O63 1.265 . S
C43 C44 1.379 . S
C43 C47 1.373 . S
C43 C49 1.505 . S
C44 C43 1.379 . S
C44 C46 1.369 . S
C44 H72 0.930 . S
C45 C47 1.383 . S
C45 C48 1.382 . S
C45 H73 0.930 . S
C46 C44 1.369 . S
C46 C48 1.392 . S
C46 H74 0.930 . S
C47 C43 1.373 . S
C47 C45 1.383 . S
C47 H75 0.931 . S
C48 C45 1.382 . S
C48 C46 1.392 . S
C49 Eu40 2.828 . S
C49 C43 1.505 . S
C49 O61 1.249 . S
C49 O62 1.244 . S
O50 Eu41 2.373 . S
O50 C52 1.258 . S
O51 Eu40 2.392 . S
O51 C52 1.242 . S
C52 O50 1.258 . S
C52 O51 1.242 . S
O53 Eu40 2.418 . S
O53 C57 1.244 . S
O54 Eu41 2.488 . S
O54 C70 1.249 . S
O55 Eu41 2.471 . S
O55 C70 1.244 . S
O56 Eu41 2.349 . S
O56 C57 1.265 . S
C57 O53 1.244 . S
C57 O56 1.265 . S
O58 Eu40 2.373 . S
O58 C71 1.258 . S
O59 Eu41 2.392 . S
O59 C71 1.242 . S
O60 Eu41 2.418 . S
O60 C42 1.244 . S
O61 Eu40 2.488 . S
O61 C49 1.249 . S
O62 Eu40 2.471 . S
O62 C49 1.244 . S
O63 Eu40 2.349 . S
O63 C42 1.265 . S
C64 C65 1.379 . S
C64 C68 1.373 . S
C64 C70 1.505 . S
C65 C64 1.379 . S
C65 C67 1.369 . S
C65 H76 0.930 . S
C66 C68 1.383 . S
C66 C69 1.382 . S
C66 H77 0.930 . S
C67 C65 1.369 . S
C67 C69 1.392 . S
C67 H78 0.930 . S
C68 C64 1.373 . S
C68 C66 1.383 . S
C68 H79 0.931 . S
C69 C66 1.382 . S
C69 C67 1.392 . S
C70 Eu41 2.828 . S
C70 O54 1.249 . S
C70 O55 1.244 . S
C70 C64 1.505 . S
C71 O58 1.258 . S
C71 O59 1.242 . S
H72 C44 0.930 . S
H73 C45 0.930 . S
H74 C46 0.930 . S
H75 C47 0.931 . S
H76 C65 0.930 . S
H77 C66 0.930 . S
H78 C67 0.930 . S
H79 C68 0.931 . S
Eu80 C89 2.828 . S
Eu80 O91 2.392 . S
Eu80 O93 2.418 . S
Eu80 O98 2.373 . S
Eu80 O101 2.488 . S
Eu80 O102 2.471 . S
Eu80 O103 2.349 . S
Eu81 O90 2.373 . S
Eu81 O94 2.488 . S
Eu81 O95 2.471 . S
Eu81 O96 2.349 . S
Eu81 O99 2.392 . S
Eu81 O100 2.418 . S
Eu81 C110 2.828 . S
C82 O100 1.244 . S
C82 O103 1.265 . S
C83 C84 1.379 . S
C83 C87 1.373 . S
C83 C89 1.505 . S
C84 C83 1.379 . S
C84 C86 1.369 . S
C84 H112 0.930 . S
C85 C87 1.383 . S
C85 C88 1.382 . S
C85 H113 0.930 . S
C86 C84 1.369 . S
C86 C88 1.392 . S
C86 H114 0.930 . S
C87 C83 1.373 . S
C87 C85 1.383 . S
C87 H115 0.931 . S
C88 C85 1.382 . S
C88 C86 1.392 . S
C89 Eu80 2.828 . S
C89 C83 1.505 . S
C89 O101 1.249 . S
C89 O102 1.244 . S
O90 Eu81 2.373 . S
O90 C92 1.258 . S
O91 Eu80 2.392 . S
O91 C92 1.242 . S
C92 O90 1.258 . S
C92 O91 1.242 . S
O93 Eu80 2.418 . S
O93 C97 1.244 . S
O94 Eu81 2.488 . S
O94 C110 1.249 . S
O95 Eu81 2.471 . S
O95 C110 1.244 . S
O96 Eu81 2.349 . S
O96 C97 1.265 . S
C97 O93 1.244 . S
C97 O96 1.265 . S
O98 Eu80 2.373 . S
O98 C111 1.258 . S
O99 Eu81 2.392 . S
O99 C111 1.242 . S
O100 Eu81 2.418 . S
O100 C82 1.244 . S
O101 Eu80 2.488 . S
O101 C89 1.249 . S
O102 Eu80 2.471 . S
O102 C89 1.244 . S
O103 Eu80 2.349 . S
O103 C82 1.265 . S
C104 C105 1.379 . S
C104 C108 1.373 . S
C104 C110 1.505 . S
C105 C104 1.379 . S
C105 C107 1.369 . S
C105 H116 0.930 . S
C106 C108 1.383 . S
C106 C109 1.382 . S
C106 H117 0.930 . S
C107 C105 1.369 . S
C107 C109 1.392 . S
C107 H118 0.930 . S
C108 C104 1.373 . S
C108 C106 1.383 . S
C108 H119 0.931 . S
C109 C106 1.382 . S
C109 C107 1.392 . S
C110 Eu81 2.828 . S
C110 O94 1.249 . S
C110 O95 1.244 . S
C110 C104 1.505 . S
C111 O98 1.258 . S
C111 O99 1.242 . S
H112 C84 0.930 . S
H113 C85 0.930 . S
H114 C86 0.930 . S
H115 C87 0.931 . S
H116 C105 0.930 . S
H117 C106 0.930 . S
H118 C107 0.930 . S
H119 C108 0.931 . S
Eu120 C129 2.828 . S
Eu120 O131 2.392 . S
Eu120 O133 2.418 . S
Eu120 O138 2.373 . S
Eu120 O141 2.488 . S
Eu120 O142 2.471 . S
Eu120 O143 2.349 . S
Eu121 O130 2.373 . S
Eu121 O134 2.488 . S
Eu121 O135 2.471 . S
Eu121 O136 2.349 . S
Eu121 O139 2.392 . S
Eu121 O140 2.418 . S
Eu121 C150 2.828 . S
C122 O140 1.244 . S
C122 O143 1.265 . S
C123 C124 1.379 . S
C123 C127 1.373 . S
C123 C129 1.505 . S
C124 C123 1.379 . S
C124 C126 1.369 . S
C124 H152 0.930 . S
C125 C127 1.383 . S
C125 C128 1.382 . S
C125 H153 0.930 . S
C126 C124 1.369 . S
C126 C128 1.392 . S
C126 H154 0.930 . S
C127 C123 1.373 . S
C127 C125 1.383 . S
C127 H155 0.931 . S
C128 C125 1.382 . S
C128 C126 1.392 . S
C129 Eu120 2.828 . S
C129 C123 1.505 . S
C129 O141 1.249 . S
C129 O142 1.244 . S
O130 Eu121 2.373 . S
O130 C132 1.258 . S
O131 Eu120 2.392 . S
O131 C132 1.242 . S
C132 O130 1.258 . S
C132 O131 1.242 . S
O133 Eu120 2.418 . S
O133 C137 1.244 . S
O134 Eu121 2.488 . S
O134 C150 1.249 . S
O135 Eu121 2.471 . S
O135 C150 1.244 . S
O136 Eu121 2.349 . S
O136 C137 1.265 . S
C137 O133 1.244 . S
C137 O136 1.265 . S
O138 Eu120 2.373 . S
O138 C151 1.258 . S
O139 Eu121 2.392 . S
O139 C151 1.242 . S
O140 Eu121 2.418 . S
O140 C122 1.244 . S
O141 Eu120 2.488 . S
O141 C129 1.249 . S
O142 Eu120 2.471 . S
O142 C129 1.244 . S
O143 Eu120 2.349 . S
O143 C122 1.265 . S
C144 C145 1.379 . S
C144 C148 1.373 . S
C144 C150 1.505 . S
C145 C144 1.379 . S
C145 C147 1.369 . S
C145 H156 0.930 . S
C146 C148 1.383 . S
C146 C149 1.382 . S
C146 H157 0.930 . S
C147 C145 1.369 . S
C147 C149 1.392 . S
C147 H158 0.930 . S
C148 C144 1.373 . S
C148 C146 1.383 . S
C148 H159 0.931 . S
C149 C146 1.382 . S
C149 C147 1.392 . S
C150 Eu121 2.828 . S
C150 O134 1.249 . S
C150 O135 1.244 . S
C150 C144 1.505 . S
C151 O138 1.258 . S
C151 O139 1.242 . S
H152 C124 0.930 . S
H153 C125 0.930 . S
H154 C126 0.930 . S
H155 C127 0.931 . S
H156 C145 0.930 . S
H157 C146 0.930 . S
H158 C147 0.930 . S
H159 C148 0.931 . S
Eu160 C169 2.828 . S
Eu160 O171 2.392 . S
Eu160 O173 2.418 . S
Eu160 O178 2.373 . S
Eu160 O181 2.488 . S
Eu160 O182 2.471 . S
Eu160 O183 2.349 . S
Eu161 O170 2.373 . S
Eu161 O174 2.488 . S
Eu161 O175 2.471 . S
Eu161 O176 2.349 . S
Eu161 O179 2.392 . S
Eu161 O180 2.418 . S
Eu161 C190 2.828 . S
C162 O180 1.244 . S
C162 O183 1.265 . S
C163 C164 1.379 . S
C163 C167 1.373 . S
C163 C169 1.505 . S
C164 C163 1.379 . S
C164 C166 1.369 . S
C164 H192 0.930 . S
C165 C167 1.383 . S
C165 C168 1.382 . S
C165 H193 0.930 . S
C166 C164 1.369 . S
C166 C168 1.392 . S
C166 H194 0.930 . S
C167 C163 1.373 . S
C167 C165 1.383 . S
C167 H195 0.931 . S
C168 C165 1.382 . S
C168 C166 1.392 . S
C169 Eu160 2.828 . S
C169 C163 1.505 . S
C169 O181 1.249 . S
C169 O182 1.244 . S
O170 Eu161 2.373 . S
O170 C172 1.258 . S
O171 Eu160 2.392 . S
O171 C172 1.242 . S
C172 O170 1.258 . S
C172 O171 1.242 . S
O173 Eu160 2.418 . S
O173 C177 1.244 . S
O174 Eu161 2.488 . S
O174 C190 1.249 . S
O175 Eu161 2.471 . S
O175 C190 1.244 . S
O176 Eu161 2.349 . S
O176 C177 1.265 . S
C177 O173 1.244 . S
C177 O176 1.265 . S
O178 Eu160 2.373 . S
O178 C191 1.258 . S
O179 Eu161 2.392 . S
O179 C191 1.242 . S
O180 Eu161 2.418 . S
O180 C162 1.244 . S
O181 Eu160 2.488 . S
O181 C169 1.249 . S
O182 Eu160 2.471 . S
O182 C169 1.244 . S
O183 Eu160 2.349 . S
O183 C162 1.265 . S
C184 C185 1.379 . S
C184 C188 1.373 . S
C184 C190 1.505 . S
C185 C184 1.379 . S
C185 C187 1.369 . S
C185 H196 0.930 . S
C186 C188 1.383 . S
C186 C189 1.382 . S
C186 H197 0.930 . S
C187 C185 1.369 . S
C187 C189 1.392 . S
C187 H198 0.930 . S
C188 C184 1.373 . S
C188 C186 1.383 . S
C188 H199 0.931 . S
C189 C186 1.382 . S
C189 C187 1.392 . S
C190 Eu161 2.828 . S
C190 O174 1.249 . S
C190 O175 1.244 . S
C190 C184 1.505 . S
C191 O178 1.258 . S
C191 O179 1.242 . S
H192 C164 0.930 . S
H193 C165 0.930 . S
H194 C166 0.930 . S
H195 C167 0.931 . S
H196 C185 0.930 . S
H197 C186 0.930 . S
H198 C187 0.930 . S
H199 C188 0.931 . S
Eu200 C209 2.828 . S
Eu200 O211 2.392 . S
Eu200 O213 2.418 . S
Eu200 O218 2.373 . S
Eu200 O221 2.488 . S
Eu200 O222 2.471 . S
Eu200 O223 2.349 . S
Eu201 O210 2.373 . S
Eu201 O214 2.488 . S
Eu201 O215 2.471 . S
Eu201 O216 2.349 . S
Eu201 O219 2.392 . S
Eu201 O220 2.418 . S
Eu201 C230 2.828 . S
C202 O220 1.244 . S
C202 O223 1.265 . S
C203 C204 1.379 . S
C203 C207 1.373 . S
C203 C209 1.505 . S
C204 C203 1.379 . S
C204 C206 1.369 . S
C204 H232 0.930 . S
C205 C207 1.383 . S
C205 C208 1.382 . S
C205 H233 0.930 . S
C206 C204 1.369 . S
C206 C208 1.392 . S
C206 H234 0.930 . S
C207 C203 1.373 . S
C207 C205 1.383 . S
C207 H235 0.931 . S
C208 C205 1.382 . S
C208 C206 1.392 . S
C209 Eu200 2.828 . S
C209 C203 1.505 . S
C209 O221 1.249 . S
C209 O222 1.244 . S
O210 Eu201 2.373 . S
O210 C212 1.258 . S
O211 Eu200 2.392 . S
O211 C212 1.242 . S
C212 O210 1.258 . S
C212 O211 1.242 . S
O213 Eu200 2.418 . S
O213 C217 1.244 . S
O214 Eu201 2.488 . S
O214 C230 1.249 . S
O215 Eu201 2.471 . S
O215 C230 1.244 . S
O216 Eu201 2.349 . S
O216 C217 1.265 . S
C217 O213 1.244 . S
C217 O216 1.265 . S
O218 Eu200 2.373 . S
O218 C231 1.258 . S
O219 Eu201 2.392 . S
O219 C231 1.242 . S
O220 Eu201 2.418 . S
O220 C202 1.244 . S
O221 Eu200 2.488 . S
O221 C209 1.249 . S
O222 Eu200 2.471 . S
O222 C209 1.244 . S
O223 Eu200 2.349 . S
O223 C202 1.265 . S
C224 C225 1.379 . S
C224 C228 1.373 . S
C224 C230 1.505 . S
C225 C224 1.379 . S
C225 C227 1.369 . S
C225 H236 0.930 . S
C226 C228 1.383 . S
C226 C229 1.382 . S
C226 H237 0.930 . S
C227 C225 1.369 . S
C227 C229 1.392 . S
C227 H238 0.930 . S
C228 C224 1.373 . S
C228 C226 1.383 . S
C228 H239 0.931 . S
C229 C226 1.382 . S
C229 C227 1.392 . S
C230 Eu201 2.828 . S
C230 O214 1.249 . S
C230 O215 1.244 . S
C230 C224 1.505 . S
C231 O218 1.258 . S
C231 O219 1.242 . S
H232 C204 0.930 . S
H233 C205 0.930 . S
H234 C206 0.930 . S
H235 C207 0.931 . S
H236 C225 0.930 . S
H237 C226 0.930 . S
H238 C227 0.930 . S
H239 C228 0.931 . S
Eu240 C249 2.828 . S
Eu240 O251 2.392 . S
Eu240 O253 2.418 . S
Eu240 O258 2.373 . S
Eu240 O261 2.488 . S
Eu240 O262 2.471 . S
Eu240 O263 2.349 . S
Eu241 O250 2.373 . S
Eu241 O254 2.488 . S
Eu241 O255 2.471 . S
Eu241 O256 2.349 . S
Eu241 O259 2.392 . S
Eu241 O260 2.418 . S
Eu241 C270 2.828 . S
C242 O260 1.244 . S
C242 O263 1.265 . S
C243 C244 1.379 . S
C243 C247 1.373 . S
C243 C249 1.505 . S
C244 C243 1.379 . S
C244 C246 1.369 . S
C244 H272 0.930 . S
C245 C247 1.383 . S
C245 C248 1.382 . S
C245 H273 0.930 . S
C246 C244 1.369 . S
C246 C248 1.392 . S
C246 H274 0.930 . S
C247 C243 1.373 . S
C247 C245 1.383 . S
C247 H275 0.931 . S
C248 C245 1.382 . S
C248 C246 1.392 . S
C249 Eu240 2.828 . S
C249 C243 1.505 . S
C249 O261 1.249 . S
C249 O262 1.244 . S
O250 Eu241 2.373 . S
O250 C252 1.258 . S
O251 Eu240 2.392 . S
O251 C252 1.242 . S
C252 O250 1.258 . S
C252 O251 1.242 . S
O253 Eu240 2.418 . S
O253 C257 1.244 . S
O254 Eu241 2.488 . S
O254 C270 1.249 . S
O255 Eu241 2.471 . S
O255 C270 1.244 . S
O256 Eu241 2.349 . S
O256 C257 1.265 . S
C257 O253 1.244 . S
C257 O256 1.265 . S
O258 Eu240 2.373 . S
O258 C271 1.258 . S
O259 Eu241 2.392 . S
O259 C271 1.242 . S
O260 Eu241 2.418 . S
O260 C242 1.244 . S
O261 Eu240 2.488 . S
O261 C249 1.249 . S
O262 Eu240 2.471 . S
O262 C249 1.244 . S
O263 Eu240 2.349 . S
O263 C242 1.265 . S
C264 C265 1.379 . S
C264 C268 1.373 . S
C264 C270 1.505 . S
C265 C264 1.379 . S
C265 C267 1.369 . S
C265 H276 0.930 . S
C266 C268 1.383 . S
C266 C269 1.382 . S
C266 H277 0.930 . S
C267 C265 1.369 . S
C267 C269 1.392 . S
C267 H278 0.930 . S
C268 C264 1.373 . S
C268 C266 1.383 . S
C268 H279 0.931 . S
C269 C266 1.382 . S
C269 C267 1.392 . S
C270 Eu241 2.828 . S
C270 O254 1.249 . S
C270 O255 1.244 . S
C270 C264 1.505 . S
C271 O258 1.258 . S
C271 O259 1.242 . S
H272 C244 0.930 . S
H273 C245 0.930 . S
H274 C246 0.930 . S
H275 C247 0.931 . S
H276 C265 0.930 . S
H277 C266 0.930 . S
H278 C267 0.930 . S
H279 C268 0.931 . S
Eu280 C289 2.828 . S
Eu280 O291 2.392 . S
Eu280 O293 2.418 . S
Eu280 O298 2.373 . S
Eu280 O301 2.488 . S
Eu280 O302 2.471 . S
Eu280 O303 2.349 . S
Eu281 O290 2.373 . S
Eu281 O294 2.488 . S
Eu281 O295 2.471 . S
Eu281 O296 2.349 . S
Eu281 O299 2.392 . S
Eu281 O300 2.418 . S
Eu281 C310 2.828 . S
C282 O300 1.244 . S
C282 O303 1.265 . S
C283 C284 1.379 . S
C283 C287 1.373 . S
C283 C289 1.505 . S
C284 C283 1.379 . S
C284 C286 1.369 . S
C284 H312 0.930 . S
C285 C287 1.383 . S
C285 C288 1.382 . S
C285 H313 0.930 . S
C286 C284 1.369 . S
C286 C288 1.392 . S
C286 H314 0.930 . S
C287 C283 1.373 . S
C287 C285 1.383 . S
C287 H315 0.931 . S
C288 C285 1.382 . S
C288 C286 1.392 . S
C289 Eu280 2.828 . S
C289 C283 1.505 . S
C289 O301 1.249 . S
C289 O302 1.244 . S
O290 Eu281 2.373 . S
O290 C292 1.258 . S
O291 Eu280 2.392 . S
O291 C292 1.242 . S
C292 O290 1.258 . S
C292 O291 1.242 . S
O293 Eu280 2.418 . S
O293 C297 1.244 . S
O294 Eu281 2.488 . S
O294 C310 1.249 . S
O295 Eu281 2.471 . S
O295 C310 1.244 . S
O296 Eu281 2.349 . S
O296 C297 1.265 . S
C297 O293 1.244 . S
C297 O296 1.265 . S
O298 Eu280 2.373 . S
O298 C311 1.258 . S
O299 Eu281 2.392 . S
O299 C311 1.242 . S
O300 Eu281 2.418 . S
O300 C282 1.244 . S
O301 Eu280 2.488 . S
O301 C289 1.249 . S
O302 Eu280 2.471 . S
O302 C289 1.244 . S
O303 Eu280 2.349 . S
O303 C282 1.265 . S
C304 C305 1.379 . S
C304 C308 1.373 . S
C304 C310 1.505 . S
C305 C304 1.379 . S
C305 C307 1.369 . S
C305 H316 0.930 . S
C306 C308 1.383 . S
C306 C309 1.382 . S
C306 H317 0.930 . S
C307 C305 1.369 . S
C307 C309 1.392 . S
C307 H318 0.930 . S
C308 C304 1.373 . S
C308 C306 1.383 . S
C308 H319 0.931 . S
C309 C306 1.382 . S
C309 C307 1.392 . S
C310 Eu281 2.828 . S
C310 O294 1.249 . S
C310 O295 1.244 . S
C310 C304 1.505 . S
C311 O298 1.258 . S
C311 O299 1.242 . S
H312 C284 0.930 . S
H313 C285 0.930 . S
H314 C286 0.930 . S
H315 C287 0.931 . S
H316 C305 0.930 . S
H317 C306 0.930 . S
H318 C307 0.930 . S
H319 C308 0.931 . S
Cd320 N323 2.334 1_655 S
Cd320 N349 2.304 1_565 S
Cd320 O356 2.268 . S
Cd320 O359 2.273 1_665 S
Cd320 O360 2.417 . S
Cd320 O361 2.330 . S
Cd321 N336 2.304 1_455 S
Cd321 N340 2.334 1_545 S
Cd321 O357 2.273 1_445 S
Cd321 O358 2.268 . S
Cd321 O362 2.417 . S
Cd321 O363 2.330 . S
C322 N323 1.332 . S
C322 C326 1.381 . S
C322 H328 0.931 . S
N323 Cd320 2.334 1_455 S
N323 C322 1.332 . S
N323 C327 1.335 1_455 S
C324 C325 1.396 . S
C324 C327 1.351 1_455 S
C324 H366 0.931 . S
C325 C324 1.396 . S
C325 C326 1.382 . S
C326 C322 1.381 . S
C326 C325 1.382 . S
C326 H367 0.930 . S
C327 N323 1.335 1_655 S
C327 C324 1.351 1_655 S
C327 H329 0.951 . S
H328 C322 0.931 . S
H329 C327 0.951 . S
C330 O356 1.238 . S
C330 O357 1.253 . S
C331 C332 1.379 . S
C331 N336 1.337 . S
C331 H337 0.929 . S
C332 C331 1.379 . S
C332 C333 1.380 . S
C332 H368 0.929 . S
C333 C332 1.380 . S
C333 C334 1.399 . S
C334 C333 1.399 . S
C334 C335 1.376 1_655 S
C334 H369 0.931 . S
C335 C334 1.376 1_455 S
C335 N336 1.338 1_455 S
C335 H338 0.930 . S
N336 Cd321 2.304 1_655 S
N336 C331 1.337 . S
N336 C335 1.338 1_655 S
H337 C331 0.929 . S
H338 C335 0.930 . S
C339 N340 1.332 . S
C339 C343 1.381 . S
C339 H345 0.931 . S
N340 Cd321 2.334 1_565 S
N340 C339 1.332 . S
N340 C344 1.328 . S
C341 C342 1.396 . S
C341 C344 1.378 . S
C341 H370 0.931 . S
C342 C341 1.396 . S
C342 C343 1.382 . S
C343 C339 1.381 . S
C343 C342 1.382 . S
C343 H371 0.930 . S
C344 N340 1.328 . S
C344 C341 1.378 . S
C344 H346 0.930 1_565 S
H345 C339 0.931 . S
H346 C344 0.930 1_545 S
C347 O358 1.238 . S
C347 O359 1.253 . S
C348 O360 1.239 . S
C348 O361 1.230 . S
N349 Cd320 2.304 1_545 S
N349 C350 1.337 . S
N349 C354 1.338 . S
C350 N349 1.337 . S
C350 C351 1.379 . S
C350 H364 0.929 . S
C351 C350 1.379 . S
C351 C352 1.380 . S
C351 H372 0.929 . S
C352 C351 1.380 . S
C352 C353 1.399 . S
C353 C352 1.399 . S
C353 C354 1.376 . S
C353 H373 0.931 . S
C354 N349 1.338 . S
C354 C353 1.376 . S
C354 H365 0.930 1_545 S
C355 O362 1.239 . S
C355 O363 1.230 . S
O356 Cd320 2.268 . S
O356 C330 1.238 . S
O357 Cd321 2.273 1_665 S
O357 C330 1.253 . S
O358 Cd321 2.268 . S
O358 C347 1.238 . S
O359 Cd320 2.273 1_445 S
O359 C347 1.253 . S
O360 Cd320 2.417 . S
O360 C348 1.239 . S
O361 Cd320 2.330 . S
O361 C348 1.230 . S
O362 Cd321 2.417 . S
O362 C355 1.239 . S
O363 Cd321 2.330 . S
O363 C355 1.230 . S
H364 C350 0.929 . S
H365 C354 0.930 1_565 S
H366 C324 0.931 . S
H367 C326 0.930 . S
H368 C332 0.929 . S
H369 C334 0.931 . S
H370 C341 0.931 . S
H371 C343 0.930 . S
H372 C351 0.929 . S
H373 C353 0.931 . S
Cd374 N377 2.334 . S
Cd374 N403 2.304 1_565 S
Cd374 O410 2.268 1_554 S
Cd374 O413 2.273 1_565 S
Cd374 O414 2.417 . S
Cd374 O415 2.330 . S
Cd375 N390 2.304 . S
Cd375 N394 2.334 1_545 S
Cd375 O411 2.273 1_545 S
Cd375 O412 2.268 1_556 S
Cd375 O416 2.417 . S
Cd375 O417 2.330 . S
C376 N377 1.332 . S
C376 C380 1.381 . S
C376 H382 0.931 . S
N377 Cd374 2.334 . S
N377 C376 1.332 . S
N377 C381 1.328 . S
C378 C379 1.408 . S
C378 C381 1.376 . S
C378 H420 0.922 1_554 S
C379 C378 1.408 . S
C379 C380 1.382 . S
C380 C376 1.381 . S
C380 C379 1.382 . S
C380 H421 0.930 . S
C381 N377 1.328 . S
C381 C378 1.376 . S
C381 H383 0.930 1_554 S
H382 C376 0.931 . S
H383 C381 0.930 1_556 S
C384 O410 1.238 . S
C384 O411 1.253 . S
C385 C386 1.379 . S
C385 N390 1.337 . S
C385 H391 0.929 . S
C386 C385 1.379 . S
C386 C387 1.380 . S
C386 H422 0.929 . S
C387 C386 1.380 . S
C387 C388 1.399 1_556 S
C388 C387 1.399 1_554 S
C388 C389 1.377 1_554 S
C388 H423 0.931 . S
C389 C388 1.377 1_556 S
C389 N390 1.343 . S
C389 H392 0.924 1_556 S
N390 Cd375 2.304 . S
N390 C385 1.337 . S
N390 C389 1.343 . S
H391 C385 0.929 . S
H392 C389 0.924 1_554 S
C393 N394 1.332 . S
C393 C397 1.381 . S
C393 H399 0.931 . S
N394 Cd375 2.334 1_565 S
N394 C393 1.332 . S
N394 C398 1.328 . S
C395 C396 1.396 . S
C395 C398 1.378 . S
C395 H424 0.921 1_556 S
C396 C395 1.396 . S
C396 C397 1.382 . S
C397 C393 1.381 . S
C397 C396 1.382 . S
C397 H425 0.930 . S
C398 N394 1.328 . S
C398 C395 1.378 . S
C398 H400 0.930 1_566 S
H399 C393 0.931 . S
H400 C398 0.930 1_544 S
C401 O412 1.238 . S
C401 O413 1.253 . S
C402 O414 1.239 . S
C402 O415 1.230 . S
N403 Cd374 2.304 1_545 S
N403 C404 1.337 . S
N403 C408 1.338 . S
C404 N403 1.337 . S
C404 C405 1.379 . S
C404 H418 0.929 . S
C405 C404 1.379 . S
C405 C406 1.380 . S
C405 H426 0.929 . S
C406 C405 1.380 . S
C406 C407 1.399 . S
C407 C406 1.399 . S
C407 C408 1.376 . S
C407 H427 0.932 1_554 S
C408 N403 1.338 . S
C408 C407 1.376 . S
C408 H419 0.930 1_544 S
C409 O416 1.239 . S
C409 O417 1.230 . S
O410 Cd374 2.268 1_556 S
O410 C384 1.238 . S
O411 Cd375 2.273 1_565 S
O411 C384 1.253 . S
O412 Cd375 2.268 1_554 S
O412 C401 1.238 . S
O413 Cd374 2.273 1_545 S
O413 C401 1.253 . S
O414 Cd374 2.417 . S
O414 C402 1.239 . S
O415 Cd374 2.330 . S
O415 C402 1.230 . S
O416 Cd375 2.417 . S
O416 C409 1.239 . S
O417 Cd375 2.330 . S
O417 C409 1.230 . S
H418 C404 0.929 . S
H419 C408 0.930 1_566 S
H420 C378 0.922 1_556 S
H421 C380 0.930 . S
H422 C386 0.929 . S
H423 C388 0.931 . S
H424 C395 0.921 1_554 S
H425 C397 0.930 . S
H426 C405 0.929 . S
H427 C407 0.932 1_556 S
Cd428 N431 2.334 1_655 S
Cd428 N457 2.304 . S
Cd428 O464 2.268 1_554 S
Cd428 O467 2.273 1_655 S
Cd428 O468 2.417 . S
Cd428 O469 2.330 . S
Cd429 N444 2.304 1_455 S
Cd429 N448 2.334 . S
Cd429 O465 2.273 1_455 S
Cd429 O466 2.268 1_556 S
Cd429 O470 2.417 . S
Cd429 O471 2.330 . S
C430 N431 1.332 . S
C430 C434 1.381 . S
C430 H436 0.931 . S
N431 Cd428 2.334 1_455 S
N431 C430 1.332 . S
N431 C435 1.328 1_455 S
C432 C433 1.408 . S
C432 C435 1.376 1_455 S
C432 H474 0.921 1_554 S
C433 C432 1.408 . S
C433 C434 1.382 . S
C434 C430 1.381 . S
C434 C433 1.382 . S
C434 H475 0.930 . S
C435 N431 1.328 1_655 S
C435 C432 1.376 1_655 S
C435 H437 0.930 1_554 S
H436 C430 0.931 . S
H437 C435 0.930 1_556 S
C438 O464 1.238 . S
C438 O465 1.253 . S
C439 C440 1.379 . S
C439 N444 1.337 . S
C439 H445 0.929 . S
C440 C439 1.379 . S
C440 C441 1.380 . S
C440 H476 0.929 . S
C441 C440 1.380 . S
C441 C442 1.399 1_556 S
C442 C441 1.399 1_554 S
C442 C443 1.377 1_654 S
C442 H477 0.931 . S
C443 C442 1.377 1_456 S
C443 N444 1.343 1_455 S
C443 H446 0.924 1_556 S
N444 Cd429 2.304 1_655 S
N444 C439 1.337 . S
N444 C443 1.343 1_655 S
H445 C439 0.929 . S
H446 C443 0.924 1_554 S
C447 N448 1.332 . S
C447 C451 1.381 . S
C447 H453 0.931 . S
N448 Cd429 2.334 . S
N448 C447 1.332 . S
N448 C452 1.328 . S
C449 C450 1.396 . S
C449 C452 1.378 . S
C449 H478 0.921 1_556 S
C450 C449 1.396 . S
C450 C451 1.382 . S
C451 C447 1.381 . S
C451 C450 1.382 . S
C451 H479 0.930 . S
C452 N448 1.328 . S
C452 C449 1.378 . S
C452 H454 0.930 1_556 S
H453 C447 0.931 . S
H454 C452 0.930 1_554 S
C455 O466 1.238 . S
C455 O467 1.253 . S
C456 O468 1.239 . S
C456 O469 1.230 . S
N457 Cd428 2.304 . S
N457 C458 1.337 . S
N457 C462 1.338 . S
C458 N457 1.337 . S
C458 C459 1.379 . S
C458 H472 0.929 . S
C459 C458 1.379 . S
C459 C460 1.380 . S
C459 H480 0.929 . S
C460 C459 1.380 . S
C460 C461 1.399 . S
C461 C460 1.399 . S
C461 C462 1.376 . S
C461 H481 0.932 1_554 S
C462 N457 1.338 . S
C462 C461 1.376 . S
C462 H473 0.930 1_554 S
C463 O470 1.239 . S
C463 O471 1.230 . S
O464 Cd428 2.268 1_556 S
O464 C438 1.238 . S
O465 Cd429 2.273 1_655 S
O465 C438 1.253 . S
O466 Cd429 2.268 1_554 S
O466 C455 1.238 . S
O467 Cd428 2.273 1_455 S
O467 C455 1.253 . S
O468 Cd428 2.417 . S
O468 C456 1.239 . S
O469 Cd428 2.330 . S
O469 C456 1.230 . S
O470 Cd429 2.417 . S
O470 C463 1.239 . S
O471 Cd429 2.330 . S
O471 C463 1.230 . S
H472 C458 0.929 . S
H473 C462 0.930 1_556 S
H474 C432 0.921 1_556 S
H475 C434 0.930 . S
H476 C440 0.929 . S
H477 C442 0.931 . S
H478 C449 0.921 1_554 S
H479 C451 0.930 . S
H480 C459 0.929 . S
H481 C461 0.932 1_556 S
Cd482 N485 2.334 . S
Cd482 N511 2.304 . S
Cd482 O518 2.268 1_554 S
Cd482 O521 2.273 . S
Cd482 O522 2.417 . S
Cd482 O523 2.330 . S
Cd483 N498 2.304 . S
Cd483 N502 2.334 . S
Cd483 O519 2.273 . S
Cd483 O520 2.268 1_556 S
Cd483 O524 2.417 . S
Cd483 O525 2.330 . S
C484 N485 1.332 . S
C484 C488 1.381 . S
C484 H490 0.931 . S
N485 Cd482 2.334 . S
N485 C484 1.332 . S
N485 C489 1.328 . S
C486 C487 1.409 . S
C486 C489 1.376 . S
C486 H528 0.921 1_554 S
C487 C486 1.409 . S
C487 C488 1.382 . S
C488 C484 1.381 . S
C488 C487 1.382 . S
C488 H529 0.930 . S
C489 N485 1.328 . S
C489 C486 1.376 . S
C489 H491 0.930 1_554 S
H490 C484 0.931 . S
H491 C489 0.930 1_556 S
C492 O518 1.238 . S
C492 O519 1.253 . S
C493 C494 1.379 . S
C493 N498 1.337 . S
C493 H499 0.929 . S
C494 C493 1.379 . S
C494 C495 1.380 . S
C494 H530 0.929 . S
C495 C494 1.380 . S
C495 C496 1.399 1_556 S
C496 C495 1.399 1_554 S
C496 C497 1.376 1_554 S
C496 H531 0.931 . S
C497 C496 1.376 1_556 S
C497 N498 1.342 . S
C497 H500 0.925 1_556 S
N498 Cd483 2.304 . S
N498 C493 1.337 . S
N498 C497 1.342 . S
H499 C493 0.929 . S
H500 C497 0.925 1_554 S
C501 N502 1.332 . S
C501 C505 1.381 . S
C501 H507 0.931 . S
N502 Cd483 2.334 . S
N502 C501 1.332 . S
N502 C506 1.328 . S
C503 C504 1.396 . S
C503 C506 1.378 . S
C503 H532 0.920 1_556 S
C504 C503 1.396 . S
C504 C505 1.382 . S
C505 C501 1.381 . S
C505 C504 1.382 . S
C505 H533 0.930 . S
C506 N502 1.328 . S
C506 C503 1.378 . S
C506 H508 0.930 1_556 S
H507 C501 0.931 . S
H508 C506 0.930 1_554 S
C509 O520 1.238 . S
C509 O521 1.253 . S
C510 O522 1.239 . S
C510 O523 1.230 . S
N511 Cd482 2.304 . S
N511 C512 1.337 . S
N511 C516 1.338 . S
C512 N511 1.337 . S
C512 C513 1.379 . S
C512 H526 0.929 . S
C513 C512 1.379 . S
C513 C514 1.380 . S
C513 H534 0.929 . S
C514 C513 1.380 . S
C514 C515 1.399 . S
C515 C514 1.399 . S
C515 C516 1.376 . S
C515 H535 0.930 . S
C516 N511 1.338 . S
C516 C515 1.376 . S
C516 H527 0.930 1_554 S
C517 O524 1.239 . S
C517 O525 1.230 . S
O518 Cd482 2.268 1_556 S
O518 C492 1.238 . S
O519 Cd483 2.273 . S
O519 C492 1.253 . S
O520 Cd483 2.268 1_554 S
O520 C509 1.238 . S
O521 Cd482 2.273 . S
O521 C509 1.253 . S
O522 Cd482 2.417 . S
O522 C510 1.239 . S
O523 Cd482 2.330 . S
O523 C510 1.230 . S
O524 Cd483 2.417 . S
O524 C517 1.239 . S
O525 Cd483 2.330 . S
O525 C517 1.230 . S
H526 C512 0.929 . S
H527 C516 0.930 1_556 S
H528 C486 0.921 1_556 S
H529 C488 0.930 . S
H530 C494 0.929 . S
H531 C496 0.931 . S
H532 C503 0.920 1_554 S
H533 C505 0.930 . S
H534 C513 0.929 . S
H535 C515 0.930 . S
Cd536 N539 2.334 1_655 S
Cd536 N565 2.304 . S
Cd536 O572 2.268 . S
Cd536 O575 2.273 1_655 S
Cd536 O576 2.417 . S
Cd536 O577 2.330 . S
Cd537 N552 2.304 1_455 S
Cd537 N556 2.334 . S
Cd537 O573 2.273 1_455 S
Cd537 O574 2.268 . S
Cd537 O578 2.417 . S
Cd537 O579 2.330 . S
C538 N539 1.332 . S
C538 C542 1.381 . S
C538 H544 0.931 . S
N539 Cd536 2.334 1_455 S
N539 C538 1.332 . S
N539 C543 1.328 1_455 S
C540 C541 1.396 . S
C540 C543 1.378 1_455 S
C540 H582 0.931 . S
C541 C540 1.396 . S
C541 C542 1.382 . S
C542 C538 1.381 . S
C542 C541 1.382 . S
C542 H583 0.930 . S
C543 N539 1.328 1_655 S
C543 C540 1.378 1_655 S
C543 H545 0.930 . S
H544 C538 0.931 . S
H545 C543 0.930 . S
C546 O572 1.238 . S
C546 O573 1.253 . S
C547 C548 1.379 . S
C547 N552 1.337 . S
C547 H553 0.929 . S
C548 C547 1.379 . S
C548 C549 1.380 . S
C548 H584 0.929 . S
C549 C548 1.380 . S
C549 C550 1.399 . S
C550 C549 1.399 . S
C550 C551 1.376 1_655 S
C550 H585 0.931 . S
C551 C550 1.376 1_455 S
C551 N552 1.338 1_455 S
C551 H554 0.930 . S
N552 Cd537 2.304 1_655 S
N552 C547 1.337 . S
N552 C551 1.338 1_655 S
H553 C547 0.929 . S
H554 C551 0.930 . S
C555 N556 1.332 . S
C555 C559 1.381 . S
C555 H561 0.931 . S
N556 Cd537 2.334 . S
N556 C555 1.332 . S
N556 C560 1.328 . S
C557 C558 1.396 . S
C557 C560 1.378 . S
C557 H586 0.931 . S
C558 C557 1.396 . S
C558 C559 1.382 . S
C559 C555 1.381 . S
C559 C558 1.382 . S
C559 H587 0.930 . S
C560 N556 1.328 . S
C560 C557 1.378 . S
C560 H562 0.930 . S
H561 C555 0.931 . S
H562 C560 0.930 . S
C563 O574 1.238 . S
C563 O575 1.253 . S
C564 O576 1.239 . S
C564 O577 1.230 . S
N565 Cd536 2.304 . S
N565 C566 1.337 . S
N565 C570 1.338 . S
C566 N565 1.337 . S
C566 C567 1.379 . S
C566 H580 0.929 . S
C567 C566 1.379 . S
C567 C568 1.380 . S
C567 H588 0.929 . S
C568 C567 1.380 . S
C568 C569 1.399 . S
C569 C568 1.399 . S
C569 C570 1.376 . S
C569 H589 0.931 . S
C570 N565 1.338 . S
C570 C569 1.376 . S
C570 H581 0.930 . S
C571 O578 1.239 . S
C571 O579 1.230 . S
O572 Cd536 2.268 . S
O572 C546 1.238 . S
O573 Cd537 2.273 1_655 S
O573 C546 1.253 . S
O574 Cd537 2.268 . S
O574 C563 1.238 . S
O575 Cd536 2.273 1_455 S
O575 C563 1.253 . S
O576 Cd536 2.417 . S
O576 C564 1.239 . S
O577 Cd536 2.330 . S
O577 C564 1.230 . S
O578 Cd537 2.417 . S
O578 C571 1.239 . S
O579 Cd537 2.330 . S
O579 C571 1.230 . S
H580 C566 0.929 . S
H581 C570 0.930 . S
H582 C540 0.931 . S
H583 C542 0.930 . S
H584 C548 0.929 . S
H585 C550 0.931 . S
H586 C557 0.931 . S
H587 C559 0.930 . S
H588 C567 0.929 . S
H589 C569 0.931 . S
Cd590 N593 2.334 . S
Cd590 N619 2.304 1_565 S
Cd590 O626 2.268 . S
Cd590 O629 2.273 1_565 S
Cd590 O630 2.417 . S
Cd590 O631 2.330 . S
Cd591 N606 2.304 . S
Cd591 N610 2.334 1_545 S
Cd591 O627 2.273 1_545 S
Cd591 O628 2.268 . S
Cd591 O632 2.417 . S
Cd591 O633 2.330 . S
C592 N593 1.332 . S
C592 C596 1.381 . S
C592 H598 0.931 . S
N593 Cd590 2.334 . S
N593 C592 1.332 . S
N593 C597 1.328 . S
C594 C595 1.396 . S
C594 C597 1.378 . S
C594 H636 0.931 . S
C595 C594 1.396 . S
C595 C596 1.382 . S
C596 C592 1.381 . S
C596 C595 1.382 . S
C596 H637 0.930 . S
C597 N593 1.328 . S
C597 C594 1.378 . S
C597 H599 0.930 . S
H598 C592 0.931 . S
H599 C597 0.930 . S
C600 O626 1.238 . S
C600 O627 1.253 . S
C601 C602 1.379 . S
C601 N606 1.337 . S
C601 H607 0.929 . S
C602 C601 1.379 . S
C602 C603 1.380 . S
C602 H638 0.929 . S
C603 C602 1.380 . S
C603 C604 1.399 . S
C604 C603 1.399 . S
C604 C605 1.376 . S
C604 H639 0.931 . S
C605 C604 1.376 . S
C605 N606 1.338 . S
C605 H608 0.930 . S
N606 Cd591 2.304 . S
N606 C601 1.337 . S
N606 C605 1.338 . S
H607 C601 0.929 . S
H608 C605 0.930 . S
C609 N610 1.332 . S
C609 C613 1.381 . S
C609 H615 0.931 . S
N610 Cd591 2.334 1_565 S
N610 C609 1.332 . S
N610 C614 1.328 . S
C611 C612 1.396 . S
C611 C614 1.378 . S
C611 H640 0.931 . S
C612 C611 1.396 . S
C612 C613 1.382 . S
C613 C609 1.381 . S
C613 C612 1.382 . S
C613 H641 0.930 . S
C614 N610 1.328 . S
C614 C611 1.378 . S
C614 H616 0.930 1_565 S
H615 C609 0.931 . S
H616 C614 0.930 1_545 S
C617 O628 1.238 . S
C617 O629 1.253 . S
C618 O630 1.239 . S
C618 O631 1.230 . S
N619 Cd590 2.304 1_545 S
N619 C620 1.337 . S
N619 C624 1.338 . S
C620 N619 1.337 . S
C620 C621 1.379 . S
C620 H634 0.929 . S
C621 C620 1.379 . S
C621 C622 1.380 . S
C621 H642 0.929 . S
C622 C621 1.380 . S
C622 C623 1.399 . S
C623 C622 1.399 . S
C623 C624 1.376 . S
C623 H643 0.931 . S
C624 N619 1.338 . S
C624 C623 1.376 . S
C624 H635 0.930 1_545 S
C625 O632 1.239 . S
C625 O633 1.230 . S
O626 Cd590 2.268 . S
O626 C600 1.238 . S
O627 Cd591 2.273 1_565 S
O627 C600 1.253 . S
O628 Cd591 2.268 . S
O628 C617 1.238 . S
O629 Cd590 2.273 1_545 S
O629 C617 1.253 . S
O630 Cd590 2.417 . S
O630 C618 1.239 . S
O631 Cd590 2.330 . S
O631 C618 1.230 . S
O632 Cd591 2.417 . S
O632 C625 1.239 . S
O633 Cd591 2.330 . S
O633 C625 1.230 . S
H634 C620 0.929 . S
H635 C624 0.930 1_565 S
H636 C594 0.931 . S
H637 C596 0.930 . S
H638 C602 0.929 . S
H639 C604 0.931 . S
H640 C611 0.931 . S
H641 C613 0.930 . S
H642 C621 0.929 . S
H643 C623 0.931 . S
C644 C645 1.387 . S
C644 H648 0.950 . S
C644 C653 1.390 . S
C645 C644 1.387 . S
C645 C647 1.387 . S
H646 C653 0.950 . S
C647 C645 1.387 . S
C647 C649 1.390 . S
C647 H651 0.950 . S
H648 C644 0.950 . S
C649 C647 1.390 . S
C649 C650 1.387 . S
C649 H652 0.950 . S
C650 C649 1.387 . S
C650 C653 1.387 . S
H651 C647 0.950 . S
H652 C649 0.950 . S
C653 C644 1.390 . S
C653 H646 0.950 . S
C653 C650 1.387 . S
C654 C655 1.387 . S
C654 H658 0.950 . S
C654 C663 1.390 . S
C655 C654 1.387 . S
C655 C657 1.387 . S
H656 C663 0.950 . S
C657 C655 1.387 . S
C657 C659 1.390 . S
C657 H661 0.950 . S
H658 C654 0.950 . S
C659 C657 1.390 . S
C659 C660 1.387 . S
C659 H662 0.950 . S
C660 C659 1.387 . S
C660 C663 1.387 . S
H661 C657 0.950 . S
H662 C659 0.950 . S
C663 C654 1.390 . S
C663 H656 0.950 . S
C663 C660 1.387 . S
C664 C665 1.387 . S
C664 H668 0.950 . S
C664 C673 1.390 . S
C665 C664 1.387 . S
C665 C667 1.387 . S
H666 C673 0.950 . S
C667 C665 1.387 . S
C667 C669 1.390 . S
C667 H671 0.950 . S
H668 C664 0.950 . S
C669 C667 1.390 . S
C669 C670 1.387 . S
C669 H672 0.950 . S
C670 C669 1.387 . S
C670 C673 1.387 . S
H671 C667 0.950 . S
H672 C669 0.950 . S
C673 C664 1.390 . S
C673 H666 0.950 . S
C673 C670 1.387 . S
C674 C675 1.387 . S
C674 H678 0.950 . S
C674 C683 1.390 . S
C675 C674 1.387 . S
C675 C677 1.387 . S
H676 C683 0.950 . S
C677 C675 1.387 . S
C677 C679 1.390 . S
C677 H681 0.950 . S
H678 C674 0.950 . S
C679 C677 1.390 . S
C679 C680 1.387 . S
C679 H682 0.950 . S
C680 C679 1.387 . S
C680 C683 1.387 . S
H681 C677 0.950 . S
H682 C679 0.950 . S
C683 C674 1.390 . S
C683 H676 0.950 . S
C683 C680 1.387 . S
C684 C685 1.387 . S
C684 H688 0.950 . S
C684 C693 1.390 . S
C685 C684 1.387 . S
C685 C687 1.387 . S
H686 C693 0.950 . S
C687 C685 1.387 . S
C687 C689 1.390 . S
C687 H691 0.950 . S
H688 C684 0.950 . S
C689 C687 1.390 . S
C689 C690 1.387 . S
C689 H692 0.950 . S
C690 C689 1.387 . S
C690 C693 1.387 . S
H691 C687 0.950 . S
H692 C689 0.950 . S
C693 C684 1.390 . S
C693 H686 0.950 . S
C693 C690 1.387 . S
C694 C695 1.387 . S
C694 H698 0.950 . S
C694 C703 1.390 . S
C695 C694 1.387 . S
C695 C697 1.387 . S
H696 C703 0.950 . S
C697 C695 1.387 . S
C697 C699 1.390 . S
C697 H701 0.950 . S
H698 C694 0.950 . S
C699 C697 1.390 . S
C699 C700 1.387 . S
C699 H702 0.950 . S
C700 C699 1.387 . S
C700 C703 1.387 . S
H701 C697 0.950 . S
H702 C699 0.950 . S
C703 C694 1.390 . S
C703 H696 0.950 . S
C703 C700 1.387 . S
C704 C705 1.387 . S
C704 H708 0.950 . S
C704 C713 1.390 . S
C705 C704 1.387 . S
C705 C707 1.387 . S
H706 C713 0.950 . S
C707 C705 1.387 . S
C707 C709 1.390 . S
C707 H711 0.950 . S
H708 C704 0.950 . S
C709 C707 1.390 . S
C709 C710 1.387 . S
C709 H712 0.950 . S
C710 C709 1.387 . S
C710 C713 1.387 . S
H711 C707 0.950 . S
H712 C709 0.950 . S
C713 C704 1.390 . S
C713 H706 0.950 . S
C713 C710 1.387 . S
C714 C715 1.387 . S
C714 H718 0.950 . S
C714 C723 1.390 . S
C715 C714 1.387 . S
C715 C717 1.387 . S
H716 C723 0.950 . S
C717 C715 1.387 . S
C717 C719 1.390 . S
C717 H721 0.950 . S
H718 C714 0.950 . S
C719 C717 1.390 . S
C719 C720 1.387 . S
C719 H722 0.950 . S
C720 C719 1.387 . S
C720 C723 1.387 . S
H721 C717 0.950 . S
H722 C719 0.950 . S
C723 C714 1.390 . S
C723 H716 0.950 . S
C723 C720 1.387 . S
C724 C725 1.387 . S
C724 H728 0.950 . S
C724 C733 1.390 . S
C725 C724 1.387 . S
C725 C727 1.387 . S
H726 C733 0.950 . S
C727 C725 1.387 . S
C727 C729 1.390 . S
C727 H731 0.950 . S
H728 C724 0.950 . S
C729 C727 1.390 . S
C729 C730 1.387 . S
C729 H732 0.950 . S
C730 C729 1.387 . S
C730 C733 1.387 . S
H731 C727 0.950 . S
H732 C729 0.950 . S
C733 C724 1.390 . S
C733 H726 0.950 . S
C733 C730 1.387 . S
C734 C735 1.387 . S
C734 H738 0.950 . S
C734 C743 1.390 . S
C735 C734 1.387 . S
C735 C737 1.387 . S
H736 C743 0.950 . S
C737 C735 1.387 . S
C737 C739 1.390 . S
C737 H741 0.950 . S
H738 C734 0.950 . S
C739 C737 1.390 . S
C739 C740 1.387 . S
C739 H742 0.950 . S
C740 C739 1.387 . S
C740 C743 1.387 . S
H741 C737 0.950 . S
H742 C739 0.950 . S
C743 C734 1.390 . S
C743 H736 0.950 . S
C743 C740 1.387 . S
C744 C745 1.387 . S
C744 H748 0.950 . S
C744 C753 1.390 . S
C745 C744 1.387 . S
C745 C747 1.387 . S
H746 C753 0.950 . S
C747 C745 1.387 . S
C747 C749 1.390 . S
C747 H751 0.950 . S
H748 C744 0.950 . S
C749 C747 1.390 . S
C749 C750 1.387 . S
C749 H752 0.950 . S
C750 C749 1.387 . S
C750 C753 1.387 . S
H751 C747 0.950 . S
H752 C749 0.950 . S
C753 C744 1.390 . S
C753 H746 0.950 . S
C753 C750 1.387 . S
C754 C755 1.387 . S
C754 H758 0.950 . S
C754 C763 1.390 . S
C755 C754 1.387 . S
C755 C757 1.387 . S
H756 C763 0.950 . S
C757 C755 1.387 . S
C757 C759 1.390 . S
C757 H761 0.950 . S
H758 C754 0.950 . S
C759 C757 1.390 . S
C759 C760 1.387 . S
C759 H762 0.950 . S
C760 C759 1.387 . S
C760 C763 1.387 . S
H761 C757 0.950 . S
H762 C759 0.950 . S
C763 C754 1.390 . S
C763 H756 0.950 . S
C763 C760 1.387 . S
C764 C765 1.387 . S
C764 H768 0.950 . S
C764 C773 1.390 . S
C765 C764 1.387 . S
C765 C767 1.387 . S
H766 C773 0.950 . S
C767 C765 1.387 . S
C767 C769 1.390 . S
C767 H771 0.950 . S
H768 C764 0.950 . S
C769 C767 1.390 . S
C769 C770 1.387 . S
C769 H772 0.950 . S
C770 C769 1.387 . S
C770 C773 1.387 . S
H771 C767 0.950 . S
H772 C769 0.950 . S
C773 C764 1.390 . S
C773 H766 0.950 . S
C773 C770 1.387 . S
C774 C775 1.387 . S
C774 H778 0.950 . S
C774 C783 1.390 . S
C775 C774 1.387 . S
C775 C777 1.387 . S
H776 C783 0.950 . S
C777 C775 1.387 . S
C777 C779 1.390 . S
C777 H781 0.950 . S
H778 C774 0.950 . S
C779 C777 1.390 . S
C779 C780 1.387 . S
C779 H782 0.950 . S
C780 C779 1.387 . S
C780 C783 1.387 . S
H781 C777 0.950 . S
H782 C779 0.950 . S
C783 C774 1.390 . S
C783 H776 0.950 . S
C783 C780 1.387 . S
C784 C785 1.387 . S
C784 H788 0.950 . S
C784 C793 1.390 . S
C785 C784 1.387 . S
C785 C787 1.387 . S
H786 C793 0.950 . S
C787 C785 1.387 . S
C787 C789 1.390 . S
C787 H791 0.950 . S
H788 C784 0.950 . S
C789 C787 1.390 . S
C789 C790 1.387 . S
C789 H792 0.950 . S
C790 C789 1.387 . S
C790 C793 1.387 . S
H791 C787 0.950 . S
H792 C789 0.950 . S
C793 C784 1.390 . S
C793 H786 0.950 . S
C793 C790 1.387 . S
C794 C795 1.387 . S
C794 H798 0.950 . S
C794 C803 1.390 . S
C795 C794 1.387 . S
C795 C797 1.387 . S
H796 C803 0.950 . S
C797 C795 1.387 . S
C797 C799 1.390 . S
C797 H801 0.950 . S
H798 C794 0.950 . S
C799 C797 1.390 . S
C799 C800 1.387 . S
C799 H802 0.950 1_556 S
C800 C799 1.387 . S
C800 C803 1.387 . S
H801 C797 0.950 . S
H802 C799 0.950 1_554 S
C803 C794 1.390 . S
C803 H796 0.950 . S
C803 C800 1.387 . S
C804 C805 1.387 . S
C804 H808 0.950 . S
C804 C813 1.390 . S
C805 C804 1.387 . S
C805 C807 1.387 . S
H806 C813 0.950 1_556 S
C807 C805 1.387 . S
C807 C809 1.390 . S
C807 H811 0.950 . S
H808 C804 0.950 . S
C809 C807 1.390 . S
C809 C810 1.387 . S
C809 H812 0.950 . S
C810 C809 1.387 . S
C810 C813 1.387 . S
H811 C807 0.950 . S
H812 C809 0.950 . S
C813 C804 1.390 . S
C813 H806 0.950 1_554 S
C813 C810 1.387 . S
C814 C815 1.387 . S
C814 H818 0.950 . S
C814 C823 1.390 . S
C815 C814 1.387 . S
C815 C817 1.387 . S
H816 C823 0.950 . S
C817 C815 1.387 . S
C817 C819 1.390 . S
C817 H821 0.950 . S
H818 C814 0.950 . S
C819 C817 1.390 . S
C819 C820 1.387 . S
C819 H822 0.950 . S
C820 C819 1.387 . S
C820 C823 1.387 . S
H821 C817 0.950 . S
H822 C819 0.950 . S
C823 C814 1.390 . S
C823 H816 0.950 . S
C823 C820 1.387 . S
C824 C825 1.387 . S
C824 H828 0.950 . S
C824 C833 1.390 . S
C825 C824 1.387 . S
C825 C827 1.387 . S
H826 C833 0.950 . S
C827 C825 1.387 . S
C827 C829 1.390 . S
C827 H831 0.950 . S
H828 C824 0.950 . S
C829 C827 1.390 . S
C829 C830 1.387 . S
C829 H832 0.950 . S
C830 C829 1.387 . S
C830 C833 1.387 . S
H831 C827 0.950 . S
H832 C829 0.950 . S
C833 C824 1.390 . S
C833 H826 0.950 . S
C833 C830 1.387 . S
C834 C835 1.387 . S
C834 H838 0.950 . S
C834 C843 1.390 . S
C835 C834 1.387 . S
C835 C837 1.387 . S
H836 C843 0.950 . S
C837 C835 1.387 . S
C837 C839 1.390 . S
C837 H841 0.950 . S
H838 C834 0.950 . S
C839 C837 1.390 . S
C839 C840 1.387 . S
C839 H842 0.950 . S
C840 C839 1.387 . S
C840 C843 1.387 . S
H841 C837 0.950 . S
H842 C839 0.950 . S
C843 C834 1.390 . S
C843 H836 0.950 . S
C843 C840 1.387 . S
C844 C845 1.387 . S
C844 H848 0.950 . S
C844 C853 1.390 . S
C845 C844 1.387 . S
C845 C847 1.387 . S
H846 C853 0.950 . S
C847 C845 1.387 . S
C847 C849 1.390 . S
C847 H851 0.950 . S
H848 C844 0.950 . S
C849 C847 1.390 . S
C849 C850 1.387 . S
C849 H852 0.950 . S
C850 C849 1.387 . S
C850 C853 1.387 . S
H851 C847 0.950 . S
H852 C849 0.950 . S
C853 C844 1.390 . S
C853 H846 0.950 . S
C853 C850 1.387 . S
C854 C855 1.387 . S
C854 H858 0.950 . S
C854 C863 1.390 . S
C855 C854 1.387 . S
C855 C857 1.387 . S
H856 C863 0.950 . S
C857 C855 1.387 . S
C857 C859 1.390 . S
C857 H861 0.950 . S
H858 C854 0.950 . S
C859 C857 1.390 . S
C859 C860 1.387 . S
C859 H862 0.950 . S
C860 C859 1.387 . S
C860 C863 1.387 . S
H861 C857 0.950 . S
H862 C859 0.950 . S
C863 C854 1.390 . S
C863 H856 0.950 . S
C863 C860 1.387 . S
C864 C865 1.387 . S
C864 H868 0.950 . S
C864 C873 1.390 . S
C865 C864 1.387 . S
C865 C867 1.387 . S
H866 C873 0.950 . S
C867 C865 1.387 . S
C867 C869 1.390 . S
C867 H871 0.950 . S
H868 C864 0.950 . S
C869 C867 1.390 . S
C869 C870 1.387 . S
C869 H872 0.950 . S
C870 C869 1.387 . S
C870 C873 1.387 . S
H871 C867 0.950 . S
H872 C869 0.950 . S
C873 C864 1.390 . S
C873 H866 0.950 . S
C873 C870 1.387 . S
C874 C875 1.387 . S
C874 H878 0.950 . S
C874 C883 1.390 . S
C875 C874 1.387 . S
C875 C877 1.387 . S
H876 C883 0.950 . S
C877 C875 1.387 . S
C877 C879 1.390 . S
C877 H881 0.950 . S
H878 C874 0.950 . S
C879 C877 1.390 . S
C879 C880 1.387 . S
C879 H882 0.950 . S
C880 C879 1.387 . S
C880 C883 1.387 . S
H881 C877 0.950 . S
H882 C879 0.950 . S
C883 C874 1.390 . S
C883 H876 0.950 . S
C883 C880 1.387 . S
C884 C885 1.387 . S
C884 H888 0.950 . S
C884 C893 1.390 . S
C885 C884 1.387 . S
C885 C887 1.387 . S
H886 C893 0.950 . S
C887 C885 1.387 . S
C887 C889 1.390 . S
C887 H891 0.950 . S
H888 C884 0.950 . S
C889 C887 1.390 . S
C889 C890 1.387 . S
C889 H892 0.950 . S
C890 C889 1.387 . S
C890 C893 1.387 . S
H891 C887 0.950 . S
H892 C889 0.950 . S
C893 C884 1.390 . S
C893 H886 0.950 . S
C893 C890 1.387 . S
C894 C895 1.387 . S
C894 H898 0.950 . S
C894 C903 1.390 . S
C895 C894 1.387 . S
C895 C897 1.387 . S
H896 C903 0.950 . S
C897 C895 1.387 . S
C897 C899 1.390 . S
C897 H901 0.950 . S
H898 C894 0.950 . S
C899 C897 1.390 . S
C899 C900 1.387 . S
C899 H902 0.950 . S
C900 C899 1.387 . S
C900 C903 1.387 . S
H901 C897 0.950 . S
H902 C899 0.950 . S
C903 C894 1.390 . S
C903 H896 0.950 . S
C903 C900 1.387 . S
C904 C905 1.387 . S
C904 H908 0.950 . S
C904 C913 1.390 . S
C905 C904 1.387 . S
C905 C907 1.387 . S
H906 C913 0.950 . S
C907 C905 1.387 . S
C907 C909 1.390 . S
C907 H911 0.950 . S
H908 C904 0.950 . S
C909 C907 1.390 . S
C909 C910 1.387 . S
C909 H912 0.950 . S
C910 C909 1.387 . S
C910 C913 1.387 . S
H911 C907 0.950 . S
H912 C909 0.950 . S
C913 C904 1.390 . S
C913 H906 0.950 . S
C913 C910 1.387 . S
C914 C915 1.387 . S
C914 H918 0.950 . S
C914 C923 1.390 . S
C915 C914 1.387 . S
C915 C917 1.387 . S
H916 C923 0.950 . S
C917 C915 1.387 . S
C917 C919 1.390 . S
C917 H921 0.950 . S
H918 C914 0.950 . S
C919 C917 1.390 . S
C919 C920 1.387 . S
C919 H922 0.950 . S
C920 C919 1.387 . S
C920 C923 1.387 . S
H921 C917 0.950 . S
H922 C919 0.950 . S
C923 C914 1.390 . S
C923 H916 0.950 . S
C923 C920 1.387 . S
C924 C925 1.387 . S
C924 H928 0.950 . S
C924 C933 1.390 . S
C925 C924 1.387 . S
C925 C927 1.387 . S
H926 C933 0.950 . S
C927 C925 1.387 . S
C927 C929 1.390 . S
C927 H931 0.950 . S
H928 C924 0.950 . S
C929 C927 1.390 . S
C929 C930 1.387 . S
C929 H932 0.950 . S
C930 C929 1.387 . S
C930 C933 1.387 . S
H931 C927 0.950 . S
H932 C929 0.950 . S
C933 C924 1.390 . S
C933 H926 0.950 . S
C933 C930 1.387 . S
C934 C935 1.387 . S
C934 H938 0.950 . S
C934 C943 1.390 . S
C935 C934 1.387 . S
C935 C937 1.387 . S
H936 C943 0.950 . S
C937 C935 1.387 . S
C937 C939 1.390 . S
C937 H941 0.950 . S
H938 C934 0.950 . S
C939 C937 1.390 . S
C939 C940 1.387 . S
C939 H942 0.950 . S
C940 C939 1.387 . S
C940 C943 1.387 . S
H941 C937 0.950 . S
H942 C939 0.950 . S
C943 C934 1.390 . S
C943 H936 0.950 . S
C943 C940 1.387 . S
C944 C945 1.387 . S
C944 H948 0.950 . S
C944 C953 1.390 . S
C945 C944 1.387 . S
C945 C947 1.387 . S
H946 C953 0.950 . S
C947 C945 1.387 . S
C947 C949 1.390 . S
C947 H951 0.950 . S
H948 C944 0.950 . S
C949 C947 1.390 . S
C949 C950 1.387 . S
C949 H952 0.950 . S
C950 C949 1.387 . S
C950 C953 1.387 . S
H951 C947 0.950 . S
H952 C949 0.950 . S
C953 C944 1.390 . S
C953 H946 0.950 . S
C953 C950 1.387 . S
C954 C955 1.387 . S
C954 H958 0.950 . S
C954 C963 1.390 . S
C955 C954 1.387 . S
C955 C957 1.387 . S
H956 C963 0.950 . S
C957 C955 1.387 . S
C957 C959 1.390 . S
C957 H961 0.950 . S
H958 C954 0.950 . S
C959 C957 1.390 . S
C959 C960 1.387 . S
C959 H962 0.950 . S
C960 C959 1.387 . S
C960 C963 1.387 . S
H961 C957 0.950 . S
H962 C959 0.950 . S
C963 C954 1.390 . S
C963 H956 0.950 . S
C963 C960 1.387 . S
C964 C965 1.387 . S
C964 H968 0.950 . S
C964 C973 1.390 . S
C965 C964 1.387 . S
C965 C967 1.387 . S
H966 C973 0.950 . S
C967 C965 1.387 . S
C967 C969 1.390 . S
C967 H971 0.950 . S
H968 C964 0.950 . S
C969 C967 1.390 . S
C969 C970 1.387 . S
C969 H972 0.950 . S
C970 C969 1.387 . S
C970 C973 1.387 . S
H971 C967 0.950 . S
H972 C969 0.950 . S
C973 C964 1.390 . S
C973 H966 0.950 . S
C973 C970 1.387 . S
C974 C975 1.387 . S
C974 H978 0.950 . S
C974 C983 1.390 . S
C975 C974 1.387 . S
C975 C977 1.387 . S
H976 C983 0.950 . S
C977 C975 1.387 . S
C977 C979 1.390 . S
C977 H981 0.950 . S
H978 C974 0.950 . S
C979 C977 1.390 . S
C979 C980 1.387 . S
C979 H982 0.950 . S
C980 C979 1.387 . S
C980 C983 1.387 . S
H981 C977 0.950 . S
H982 C979 0.950 . S
C983 C974 1.390 . S
C983 H976 0.950 . S
C983 C980 1.387 . S
C984 C985 1.387 . S
C984 H988 0.950 . S
C984 C993 1.390 . S
C985 C984 1.387 . S
C985 C987 1.387 . S
H986 C993 0.950 . S
C987 C985 1.387 . S
C987 C989 1.390 . S
C987 H991 0.950 . S
H988 C984 0.950 . S
C989 C987 1.390 . S
C989 C990 1.387 . S
C989 H992 0.950 . S
C990 C989 1.387 . S
C990 C993 1.387 . S
H991 C987 0.950 . S
H992 C989 0.950 . S
C993 C984 1.390 . S
C993 H986 0.950 . S
C993 C990 1.387 . S
C994 C995 1.387 . S
C994 H998 0.950 . S
C994 C1003 1.390 . S
C995 C994 1.387 . S
C995 C997 1.387 . S
H996 C1003 0.950 . S
C997 C995 1.387 . S
C997 C999 1.390 . S
C997 H1001 0.950 . S
H998 C994 0.950 . S
C999 C997 1.390 . S
C999 C1000 1.387 . S
C999 H1002 0.950 . S
C1000 C999 1.387 . S
C1000 C1003 1.387 . S
H1001 C997 0.950 . S
H1002 C999 0.950 . S
C1003 C994 1.390 . S
C1003 H996 0.950 . S
C1003 C1000 1.387 . S
C1004 C1005 1.387 . S
C1004 H1008 0.950 . S
C1004 C1013 1.390 . S
C1005 C1004 1.387 . S
C1005 C1007 1.387 . S
H1006 C1013 0.950 . S
C1007 C1005 1.387 . S
C1007 C1009 1.390 . S
C1007 H1011 0.950 . S
H1008 C1004 0.950 . S
C1009 C1007 1.390 . S
C1009 C1010 1.387 . S
C1009 H1012 0.950 . S
C1010 C1009 1.387 . S
C1010 C1013 1.387 . S
H1011 C1007 0.950 . S
H1012 C1009 0.950 . S
C1013 C1004 1.390 . S
C1013 H1006 0.950 . S
C1013 C1010 1.387 . S
C1014 C1015 1.387 . S
C1014 H1018 0.950 . S
C1014 C1023 1.390 . S
C1015 C1014 1.387 . S
C1015 C1017 1.387 . S
H1016 C1023 0.950 . S
C1017 C1015 1.387 . S
C1017 C1019 1.390 . S
C1017 H1021 0.950 . S
H1018 C1014 0.950 . S
C1019 C1017 1.390 . S
C1019 C1020 1.387 . S
C1019 H1022 0.950 . S
C1020 C1019 1.387 . S
C1020 C1023 1.387 . S
H1021 C1017 0.950 . S
H1022 C1019 0.950 . S
C1023 C1014 1.390 . S
C1023 H1016 0.950 . S
C1023 C1020 1.387 . S
C1024 C1025 1.387 . S
C1024 H1028 0.950 . S
C1024 C1033 1.390 . S
C1025 C1024 1.387 . S
C1025 C1027 1.387 . S
H1026 C1033 0.950 . S
C1027 C1025 1.387 . S
C1027 C1029 1.390 . S
C1027 H1031 0.950 . S
H1028 C1024 0.950 . S
C1029 C1027 1.390 . S
C1029 C1030 1.387 . S
C1029 H1032 0.950 . S
C1030 C1029 1.387 . S
C1030 C1033 1.387 . S
H1031 C1027 0.950 . S
H1032 C1029 0.950 . S
C1033 C1024 1.390 . S
C1033 H1026 0.950 . S
C1033 C1030 1.387 . S
C1034 C1035 1.387 . S
C1034 H1038 0.950 . S
C1034 C1043 1.390 . S
C1035 C1034 1.387 . S
C1035 C1037 1.387 . S
H1036 C1043 0.950 . S
C1037 C1035 1.387 . S
C1037 C1039 1.390 . S
C1037 H1041 0.950 . S
H1038 C1034 0.950 . S
C1039 C1037 1.390 . S
C1039 C1040 1.387 . S
C1039 H1042 0.950 . S
C1040 C1039 1.387 . S
C1040 C1043 1.387 . S
H1041 C1037 0.950 . S
H1042 C1039 0.950 . S
C1043 C1034 1.390 . S
C1043 H1036 0.950 . S
C1043 C1040 1.387 . S
C1044 C1045 1.387 . S
C1044 H1048 0.950 . S
C1044 C1053 1.390 . S
C1045 C1044 1.387 . S
C1045 C1047 1.387 . S
H1046 C1053 0.950 . S
C1047 C1045 1.387 . S
C1047 C1049 1.390 . S
C1047 H1051 0.950 . S
H1048 C1044 0.950 . S
C1049 C1047 1.390 . S
C1049 C1050 1.387 . S
C1049 H1052 0.950 . S
C1050 C1049 1.387 . S
C1050 C1053 1.387 . S
H1051 C1047 0.950 . S
H1052 C1049 0.950 . S
C1053 C1044 1.390 . S
C1053 H1046 0.950 . S
C1053 C1050 1.387 . S
C1054 C1055 1.387 . S
C1054 H1058 0.950 . S
C1054 C1063 1.390 . S
C1055 C1054 1.387 . S
C1055 C1057 1.387 . S
H1056 C1063 0.950 . S
C1057 C1055 1.387 . S
C1057 C1059 1.390 . S
C1057 H1061 0.950 . S
H1058 C1054 0.950 . S
C1059 C1057 1.390 . S
C1059 C1060 1.387 . S
C1059 H1062 0.950 . S
C1060 C1059 1.387 . S
C1060 C1063 1.387 . S
H1061 C1057 0.950 . S
H1062 C1059 0.950 . S
C1063 C1054 1.390 . S
C1063 H1056 0.950 . S
C1063 C1060 1.387 . S
C1064 C1065 1.387 . S
C1064 H1068 0.950 . S
C1064 C1073 1.390 . S
C1065 C1064 1.387 . S
C1065 C1067 1.387 . S
H1066 C1073 0.950 . S
C1067 C1065 1.387 . S
C1067 C1069 1.390 . S
C1067 H1071 0.950 . S
H1068 C1064 0.950 . S
C1069 C1067 1.390 . S
C1069 C1070 1.387 . S
C1069 H1072 0.950 . S
C1070 C1069 1.387 . S
C1070 C1073 1.387 . S
H1071 C1067 0.950 . S
H1072 C1069 0.950 . S
C1073 C1064 1.390 . S
C1073 H1066 0.950 . S
C1073 C1070 1.387 . S
C1074 C1075 1.387 . S
C1074 H1078 0.950 . S
C1074 C1083 1.390 . S
C1075 C1074 1.387 . S
C1075 C1077 1.387 . S
H1076 C1083 0.950 . S
C1077 C1075 1.387 . S
C1077 C1079 1.390 . S
C1077 H1081 0.950 . S
H1078 C1074 0.950 . S
C1079 C1077 1.390 . S
C1079 C1080 1.387 . S
C1079 H1082 0.950 . S
C1080 C1079 1.387 . S
C1080 C1083 1.387 . S
H1081 C1077 0.950 . S
H1082 C1079 0.950 . S
C1083 C1074 1.390 . S
C1083 H1076 0.950 . S
C1083 C1080 1.387 . S
C1084 C1085 1.387 . S
C1084 H1088 0.950 . S
C1084 C1093 1.390 . S
C1085 C1084 1.387 . S
C1085 C1087 1.387 . S
H1086 C1093 0.950 . S
C1087 C1085 1.387 . S
C1087 C1089 1.390 . S
C1087 H1091 0.950 . S
H1088 C1084 0.950 . S
C1089 C1087 1.390 . S
C1089 C1090 1.387 . S
C1089 H1092 0.950 . S
C1090 C1089 1.387 . S
C1090 C1093 1.387 . S
H1091 C1087 0.950 . S
H1092 C1089 0.950 . S
C1093 C1084 1.390 . S
C1093 H1086 0.950 . S
C1093 C1090 1.387 . S
C1094 C1095 1.387 . S
C1094 H1098 0.950 . S
C1094 C1103 1.390 . S
C1095 C1094 1.387 . S
C1095 C1097 1.387 . S
H1096 C1103 0.950 . S
C1097 C1095 1.387 . S
C1097 C1099 1.390 . S
C1097 H1101 0.950 . S
H1098 C1094 0.950 . S
C1099 C1097 1.390 . S
C1099 C1100 1.387 . S
C1099 H1102 0.950 . S
C1100 C1099 1.387 . S
C1100 C1103 1.387 . S
H1101 C1097 0.950 . S
H1102 C1099 0.950 . S
C1103 C1094 1.390 . S
C1103 H1096 0.950 . S
C1103 C1100 1.387 . S
C1104 C1105 1.387 . S
C1104 H1108 0.950 . S
C1104 C1113 1.390 . S
C1105 C1104 1.387 . S
C1105 C1107 1.387 . S
H1106 C1113 0.950 . S
C1107 C1105 1.387 . S
C1107 C1109 1.390 . S
C1107 H1111 0.950 . S
H1108 C1104 0.950 . S
C1109 C1107 1.390 . S
C1109 C1110 1.387 . S
C1109 H1112 0.950 . S
C1110 C1109 1.387 . S
C1110 C1113 1.387 . S
H1111 C1107 0.950 . S
H1112 C1109 0.950 . S
C1113 C1104 1.390 . S
C1113 H1106 0.950 . S
C1113 C1110 1.387 . S
C1114 C1115 1.387 . S
C1114 H1118 0.950 . S
C1114 C1123 1.390 . S
C1115 C1114 1.387 . S
C1115 C1117 1.387 . S
H1116 C1123 0.950 . S
C1117 C1115 1.387 . S
C1117 C1119 1.390 . S
C1117 H1121 0.950 . S
H1118 C1114 0.950 . S
C1119 C1117 1.390 . S
C1119 C1120 1.387 . S
C1119 H1122 0.950 . S
C1120 C1119 1.387 . S
C1120 C1123 1.387 . S
H1121 C1117 0.950 . S
H1122 C1119 0.950 . S
C1123 C1114 1.390 . S
C1123 H1116 0.950 . S
C1123 C1120 1.387 . S
C650 C355 1.655 . S
C645 C2 1.649 . S
C660 C333 1.553 . S
C655 C48 1.601 . S
C670 C330 0.946 . S
C665 C97 0.956 . S
C675 C149 0.697 . S
C680 C342 0.577 . S
C685 C189 1.594 . S
C690 C325 1.535 . S
C700 C347 0.949 . S
C695 C202 0.956 . S
C705 C248 0.705 . S
C710 C352 0.581 . S
C715 C297 1.646 . S
C720 C348 1.650 . S
C730 C406 2.918 . S
C725 C31 2.957 . S
C735 C52 1.565 . S
C740 C456 1.573 . S
C750 C379 1.495 . S
C745 C88 1.553 . S
C760 C455 0.960 . S
C755 C122 0.938 . S
C765 C162 0.965 . S
C770 C384 0.964 . S
C780 C450 2.909 . S
C775 C231 2.949 . S
C785 C252 1.603 . S
C790 C409 1.635 . S
C795 C288 1.569 . S
C800 C441 1.511 . S
C805 C29 1.575 . S
C810 C433 1.518 . S
C815 C191 1.574 . S
C820 C463 1.583 . S
C830 C387 1.515 . S
C825 C229 1.569 . S
C840 C438 0.969 . S
C835 C257 0.942 . S
C845 C292 2.960 . S
C850 C396 2.920 . S
C855 C92 2.960 . S
C860 C460 2.924 . S
C870 C402 1.632 . S
C865 C151 1.604 . S
C875 C57 0.980 . S
C880 C401 0.977 . S
C885 C282 1.649 . S
C890 C517 1.655 . S
C895 C168 1.603 . S
C900 C495 1.552 . S
C910 C492 0.947 . S
C905 C217 0.955 . S
C920 C504 0.586 . S
C915 C269 0.709 . S
C925 C69 1.591 . S
C930 C487 1.536 . S
C940 C509 0.948 . S
C935 C82 0.958 . S
C945 C128 0.706 . S
C950 C514 0.587 . S
C955 C17 1.646 . S
C960 C510 1.650 . S
C965 C311 2.956 . S
C970 C568 2.917 . S
C980 C618 1.573 . S
C975 C172 1.565 . S
C985 C208 1.553 . S
C990 C541 1.493 . S
C995 C242 0.938 . S
C1000 C617 0.961 . S
C1010 C546 0.963 . S
C1005 C42 0.966 . S
C1015 C111 2.950 . S
C1020 C612 2.910 . S
C1030 C571 1.634 . S
C1025 C132 1.603 . S
C1040 C603 1.511 . S
C1035 C8 1.569 . S
C1050 C595 1.518 . S
C1045 C309 1.575 . S
C1055 C71 1.574 . S
C1060 C625 1.584 . S
C1065 C109 1.569 . S
C1070 C549 1.517 . S
C1080 C600 0.968 . S
C1075 C137 0.942 . S
C1085 C12 2.960 . S
C1090 C558 2.921 . S
C1095 C212 2.959 . S
C1100 C622 2.923 . S
C1110 C564 1.633 . S
C1105 C271 1.605 . S
C1120 C563 0.977 . S
C1115 C177 0.980 . S
