# Generated by pormake.
# Topology nia, (6,6)-cn, num edge types: 1
# Building blocks:
#     Node 0, Type 0, BuildingBlock: JUFBIX_clean_sbu_0, # of connection points: 6
#     Node 1, Type 0, BuildingBlock: JUFBIX_clean_sbu_0, # of connection points: 6
#     Node 2, Type 1, BuildingBlock: MIDCAF_clean_sbu_0, # of connection points: 6
#     Node 3, Type 1, BuildingBlock: MIDCAF_clean_sbu_0, # of connection points: 6
#     Edge 4, Type (0, 1), BuildingBlock: XIVTED_clean_linker_0, # of connection points: 2
#     Edge 5, Type (0, 1), BuildingBlock: XIVTED_clean_linker_0, # of connection points: 2
#     Edge 6, Type (0, 1), BuildingBlock: XIVTED_clean_linker_0, # of connection points: 2
#     Edge 7, Type (0, 1), BuildingBlock: XIVTED_clean_linker_0, # of connection points: 2
#     Edge 8, Type (0, 1), BuildingBlock: XIVTED_clean_linker_0, # of connection points: 2
#     Edge 9, Type (0, 1), BuildingBlock: XIVTED_clean_linker_0, # of connection points: 2
#     Edge 10, Type (0, 1), BuildingBlock: XIVTED_clean_linker_0, # of connection points: 2
#     Edge 11, Type (0, 1), BuildingBlock: XIVTED_clean_linker_0, # of connection points: 2
#     Edge 12, Type (0, 1), BuildingBlock: XIVTED_clean_linker_0, # of connection points: 2
#     Edge 13, Type (0, 1), BuildingBlock: XIVTED_clean_linker_0, # of connection points: 2
#     Edge 14, Type (0, 1), BuildingBlock: XIVTED_clean_linker_0, # of connection points: 2
#     Edge 15, Type (0, 1), BuildingBlock: XIVTED_clean_linker_0, # of connection points: 2
# Relax obj value: 0.149
# Max RMSD: 0.239
# Mean RMSD: 0.155
data_MOF--net-nia--node1-JUFBIX_clean_sbu_0--node2-MIDCAF_clean_sbu_0--edge1-XIVTED_clean_linker_0
_symmetry_space_group_name_H-M    P1
_symmetry_Int_Tables_number       1
_symmetry_cell_setting            triclinic
loop_
_symmetry_equiv_pos_as_xyz
'x, y, z'
_cell_length_a     24.497661
_cell_length_b     24.421563
_cell_length_c     33.217073
_cell_angle_alpha  84.693006
_cell_angle_beta   83.909
_cell_angle_gamma 121.84455
loop_
_atom_site_label
_atom_site_type_symbol
_atom_site_fract_x
_atom_site_fract_y
_atom_site_fract_z
_atom_type_partial_charge
Co0 Co 0.93991 0.94041 1.04343 0.0
C1 C 0.87068 0.96012 0.10814 0.0
Co2 Co -0.00467 0.03573 0.0644 0.0
C3 C 0.90044 0.82583 1.00346 0.0
C4 C 0.82136 0.83502 1.02693 0.0
N5 N 0.88595 0.86163 1.02583 0.0
N6 N 0.84751 0.77898 0.99027 0.0
C7 C 0.79776 0.78445 1.00532 0.0
H8 H 0.94934 0.83634 0.99488 0.0
H9 H 0.79355 0.8535 1.04052 0.0
C10 C 0.06487 0.01665 0.99977 0.0
N11 N 0.04773 0.11613 0.08023 0.0
C12 C 0.05052 0.13364 0.11783 0.0
C13 C 0.09428 0.17132 0.05413 0.0
N14 N 0.09784 0.19723 0.11594 0.0
C15 C 0.12537 0.22091 0.07595 0.0
C16 C 0.00238 0.93437 0.10571 0.0
O17 O 0.01221 0.96122 1.00244 0.0
O18 O 0.06712 0.05464 1.02413 0.0
O19 O 0.02066 -0.00571 0.10372 0.0
O20 O -0.03376 0.90088 0.08129 0.0
O21 O 0.92274 0.01635 0.10431 0.0
H22 H 0.10503 0.17535 1.02116 0.0
H23 H 0.01935 0.10035 0.146 0.0
O24 O 0.86898 0.92075 0.08509 0.0
O25 O 0.91385 -0.01944 1.00551 0.0
O26 O -0.03029 0.0756 1.02493 0.0
C27 C 0.93257 0.04037 1.00161 0.0
H28 H 0.74809 0.75502 1.0001 0.0
H29 H 0.16459 0.27096 0.06338 0.0
Co30 Co 0.0161 0.00425 0.56442 0.0
C31 C 0.01714 0.09011 0.50211 0.0
Co32 Co 0.92135 0.96645 0.54402 0.0
C33 C 0.1172 0.03486 0.6138 0.0
C34 C 0.1534 0.06204 0.5488 0.0
N35 N 0.09834 0.03597 0.57707 0.0
N36 N 0.18164 0.05823 0.60921 0.0
C37 C 0.20447 0.07538 0.56843 0.0
H38 H 0.08408 0.01519 0.64312 0.0
H39 H 0.15594 0.06951 0.51588 0.0
C40 C 0.92094 0.88086 0.60655 0.0
N41 N 0.83907 0.93472 0.53123 0.0
C42 C 0.82026 0.93509 0.4944 0.0
C43 C 0.78401 0.90933 0.55937 0.0
N44 N 0.75587 0.91193 0.4988 0.0
C45 C 0.73301 0.89573 0.53957 0.0
C46 C -0.00347 0.93361 0.49895 0.0
O47 O -0.01935 0.92626 0.60356 0.0
O48 O 0.88678 0.88859 0.58313 0.0
O49 O 0.94104 0.92693 0.50266 0.0
O50 O 0.03504 0.9646 0.52292 0.0
O51 O -0.04284 0.04538 0.50486 0.0
H52 H 0.7814 0.90247 0.59233 0.0
H53 H 0.8534 0.95405 0.46512 0.0
O54 O 0.05061 0.08129 0.52551 0.0
O55 O -0.00328 0.04429 0.60549 0.0
O56 O 0.90226 0.00583 0.58568 0.0
C57 C 0.94115 0.03744 0.60932 0.0
H58 H 0.25459 0.09576 0.55391 0.0
H59 H 0.68293 0.87579 0.55395 0.0
Zn60 Zn 0.29999 0.70369 0.22413 0.0
Zn61 Zn 0.25339 0.67088 0.38377 0.0
Zn62 Zn 0.27632 0.68536 0.30444 0.0
C63 C 0.38709 0.76013 0.35858 0.0
C64 C 0.21572 0.54849 0.36673 0.0
O65 O 0.22385 0.72964 0.28072 0.0
O66 O 0.23479 0.72534 0.21428 0.0
C67 C 0.42008 0.77968 0.24522 0.0
O68 O 0.37217 0.74154 0.32413 0.0
O69 O 0.34278 0.74086 0.38957 0.0
O70 O 0.22864 0.57905 0.39654 0.0
O71 O 0.22647 0.57909 0.33013 0.0
O72 O 0.39403 0.775 0.21387 0.0
O73 O 0.38423 0.74765 0.28086 0.0
O74 O 0.23736 0.5874 0.28719 0.0
O75 O 0.27726 0.61332 0.22043 0.0
C76 C 0.24629 0.57065 0.25264 0.0
O77 O 0.21528 0.7252 0.32374 0.0
O78 O 0.1835 0.68902 0.39085 0.0
C79 C 0.21089 0.73788 0.24488 0.0
C80 C 0.18132 0.71859 0.35847 0.0
Zn81 Zn 0.63533 0.25199 0.88436 0.0
Zn82 Zn 0.6837 0.30523 0.72536 0.0
Zn83 Zn 0.66028 0.2855 0.80335 0.0
C84 C 0.71694 0.4246 0.74708 0.0
C85 C 0.55095 0.21339 0.74871 0.0
O86 O 0.71014 0.23598 0.8228 0.0
O87 O 0.67464 0.20007 0.88985 0.0
C88 C 0.71196 0.39132 0.86229 0.0
O89 O 0.70959 0.39312 0.78268 0.0
O90 O 0.70271 0.39521 0.7168 0.0
O91 O 0.59617 0.23328 0.71821 0.0
O92 O 0.56463 0.23187 0.78336 0.0
O93 O 0.68886 0.34493 0.8924 0.0
O94 O 0.7038 0.37937 0.82569 0.0
O95 O 0.55186 0.2258 0.82617 0.0
O96 O 0.53892 0.20412 0.894 0.0
C97 C 0.51456 0.1995 0.86193 0.0
O98 O 0.72174 0.24818 0.77965 0.0
O99 O 0.75749 0.2933 0.71393 0.0
C100 C 0.70866 0.20489 0.85688 0.0
C101 C 0.75783 0.25934 0.74478 0.0
H102 H 0.09133 -0.00722 0.15669 0.0
H103 H 0.09927 0.67326 0.21531 0.0
H104 H -0.03699 0.80597 0.12194 0.0
H105 H 0.22508 0.85403 0.25666 0.0
H106 H 0.03869 0.71808 0.18953 0.0
H107 H 0.13227 0.94126 0.20068 0.0
C108 C 0.07133 0.9409 0.15858 0.0
C109 C 0.02425 0.90384 0.13514 0.0
C110 C 0.07872 0.74786 0.20487 0.0
C111 C 0.07068 0.8447 0.18542 0.0
C112 C 0.11297 0.72202 0.21981 0.0
C113 C 0.16662 0.75996 0.23833 0.0
C114 C 0.0993 0.8129 0.20752 0.0
C115 C 0.18319 0.82308 0.24307 0.0
C116 C 0.09466 0.91153 0.18374 0.0
C117 C -0.00013 0.83676 0.13899 0.0
N118 N 0.15021 0.84812 0.22714 0.0
N119 N 0.02367 0.80962 0.16331 0.0
H120 H 0.18276 0.10499 0.68034 0.0
H121 H 0.50255 0.10719 0.71186 0.0
H122 H 0.2669 0.02091 0.60822 0.0
H123 H 0.44719 0.22547 0.77015 0.0
H124 H 0.39832 0.0515 0.6882 0.0
H125 H 0.26182 0.12733 0.72669 0.0
C126 C 0.21697 0.09001 0.67493 0.0
C127 C 0.21933 0.06198 0.64033 0.0
C128 C 0.40814 0.08874 0.70683 0.0
C129 C 0.30895 0.08683 0.69266 0.0
C130 C 0.46749 0.12025 0.72047 0.0
C131 C 0.48307 0.17073 0.74295 0.0
C132 C 0.36455 0.10893 0.71488 0.0
C133 C 0.43626 0.18603 0.75336 0.0
C134 C 0.2621 0.10294 0.70113 0.0
C135 C 0.26444 0.04355 0.63428 0.0
N136 N 0.37933 0.15603 0.73857 0.0
N137 N 0.30768 0.05668 0.65996 0.0
H138 H 0.01736 0.1991 0.1779 0.0
H139 H 0.31988 0.52382 0.22834 0.0
H140 H 0.21977 0.2814 0.12748 0.0
H141 H 0.12014 0.46439 0.26726 0.0
H142 H 0.28169 0.4184 0.20684 0.0
H143 H 0.05149 0.27927 0.22491 0.0
C144 C 0.06891 0.23302 0.17755 0.0
C145 C 0.11599 0.23454 0.14864 0.0
C146 C 0.24592 0.42756 0.22078 0.0
C147 C 0.1553 0.32577 0.20174 0.0
C148 C 0.26781 0.48758 0.23326 0.0
C149 C 0.22298 0.50232 0.24954 0.0
C150 C 0.17855 0.3825 0.22357 0.0
C151 C 0.15605 0.45424 0.2551 0.0
C152 C 0.08838 0.27887 0.2041 0.0
C153 C 0.18213 0.27947 0.14901 0.0
N154 N 0.13566 0.39665 0.24142 0.0
N155 N 0.19977 0.32354 0.17481 0.0
H156 H 0.01863 0.15272 0.63629 0.0
H157 H 0.71952 0.13395 0.77512 0.0
H158 H 0.81887 -0.01012 0.65112 0.0
H159 H 0.87893 0.31283 0.69905 0.0
H160 H 0.77091 0.07646 0.75103 0.0
H161 H -0.01866 0.20717 0.68002 0.0
C162 C -0.03278 0.12792 0.64945 0.0
C163 C 0.92159 0.06715 0.63983 0.0
C164 C 0.79526 0.12863 0.74048 0.0
C165 C 0.87916 0.12811 0.69022 0.0
C166 C 0.76637 0.16149 0.75445 0.0
C167 C 0.79503 0.22803 0.73882 0.0
C168 C 0.85367 0.16303 0.71139 0.0
C169 C 0.85522 0.26135 0.71158 0.0
C170 C 0.94605 0.15898 0.67421 0.0
C171 C 0.85546 0.03712 0.65748 0.0
N172 N 0.88246 0.22845 0.69853 0.0
N173 N 0.83617 0.06791 0.68179 0.0
H174 H 0.83045 0.03779 0.13618 0.0
H175 H 0.49377 0.73416 0.26867 0.0
H176 H 0.77598 0.83706 0.14752 0.0
H177 H 0.50831 0.90404 0.20434 0.0
H178 H 0.61104 0.78428 0.24389 0.0
H179 H 0.72493 0.00048 0.17955 0.0
C180 C 0.79684 -0.01389 0.14841 0.0
C181 C 0.8115 0.94029 0.13801 0.0
C182 C 0.58885 0.81128 0.23611 0.0
C183 C 0.69209 0.89777 0.18792 0.0
C184 C 0.52233 0.78317 0.25073 0.0
C185 C 0.49193 0.81562 0.23901 0.0
C186 C 0.62506 0.87232 0.20976 0.0
C187 C 0.53037 0.87787 0.21426 0.0
C188 C 0.73677 0.96493 0.17296 0.0
C189 C 0.76621 0.87387 0.15448 0.0
N190 N 0.59502 0.90421 0.20026 0.0
N191 N 0.70856 0.8546 0.17859 0.0
H192 H -0.01909 0.84153 0.65683 0.0
H193 H 0.82261 0.52523 0.77257 0.0
H194 H 0.79331 0.77874 0.62375 0.0
H195 H 0.67023 0.48379 0.70308 0.0
H196 H 0.87421 0.64273 0.74744 0.0
H197 H 0.93182 0.73531 0.70108 0.0
C198 C 0.92917 0.80568 0.65932 0.0
C199 C 0.89138 0.8189 0.63614 0.0
C200 C 0.8295 0.60818 0.73767 0.0
C201 C 0.83414 0.69713 0.68748 0.0
C202 C 0.79951 0.54115 0.75265 0.0
C203 C 0.74234 0.49512 0.73971 0.0
C204 C 0.80202 0.62864 0.70935 0.0
C205 C 0.71456 0.51786 0.71356 0.0
C206 C 0.90087 0.74494 0.68496 0.0
C207 C 0.82462 0.77066 0.64063 0.0
N208 N 0.74479 0.58276 0.69911 0.0
N209 N 0.79847 0.71198 0.6654 0.0
H210 H 0.91984 0.8226 0.46738 0.0
H211 H 0.22603 0.84684 0.33338 0.0
H212 H 0.12002 -0.01907 0.45953 0.0
H213 H 0.05539 0.6634 0.39613 0.0
H214 H 0.1748 0.90393 0.35838 0.0
H215 H -0.04192 0.77144 0.42125 0.0
C216 C -0.02839 0.8471 0.45537 0.0
C217 C 0.01697 0.90556 0.46762 0.0
C218 C 0.1479 0.851 0.36564 0.0
C219 C 0.06057 0.84841 0.41448 0.0
C220 C 0.17671 0.81845 0.35097 0.0
C221 C 0.14457 0.75049 0.3626 0.0
C222 C 0.08638 0.81503 0.39166 0.0
C223 C 0.08149 0.71594 0.38646 0.0
C224 C -0.00669 0.81792 0.42919 0.0
C225 C 0.08354 0.93534 0.45125 0.0
N226 N 0.05453 0.7486 0.40048 0.0
N227 N 0.10335 0.90642 0.42558 0.0
H228 H 0.10406 0.94079 0.96705 0.0
H229 H 0.44434 0.25183 0.84295 0.0
H230 H 0.15984 0.14107 0.96323 0.0
H231 H 0.42376 0.07252 0.89543 0.0
H232 H 0.32696 0.20221 0.86751 0.0
H233 H 0.20923 -0.01974 0.92239 0.0
C234 C 0.13791 -0.00713 0.95625 0.0
C235 C 0.12379 0.03785 0.96921 0.0
C236 C 0.34787 0.17322 0.87274 0.0
C237 C 0.24282 0.08294 0.91787 0.0
C238 C 0.41449 0.20124 0.85836 0.0
C239 C 0.44309 0.16578 0.86692 0.0
C240 C 0.30994 0.10936 0.8957 0.0
C241 C 0.403 0.10104 0.88804 0.0
C242 C 0.19777 0.0153 0.93094 0.0
C243 C 0.16928 0.10483 0.95441 0.0
N244 N 0.3384 0.07489 0.90195 0.0
N245 N 0.22674 0.12534 0.92962 0.0
H246 H 0.1465 0.18566 0.48339 0.0
H247 H 0.10685 0.44533 0.34585 0.0
H248 H -0.03995 0.13804 0.45473 0.0
H249 H 0.26814 0.49304 0.40804 0.0
H250 H 0.05919 0.32799 0.37133 0.0
H251 H 0.1981 0.29328 0.44138 0.0
C252 C 0.11629 0.19768 0.46808 0.0
C253 C 0.04854 0.153 0.47322 0.0
C254 C 0.10553 0.36425 0.37875 0.0
C255 C 0.10782 0.27711 0.42484 0.0
C256 C 0.13293 0.43087 0.3639 0.0
C257 C 0.1914 0.47837 0.37488 0.0
C258 C 0.13754 0.34576 0.40424 0.0
C259 C 0.22285 0.45771 0.39902 0.0
C260 C 0.14593 0.25932 0.44401 0.0
C261 C 0.01234 0.17125 0.45194 0.0
N262 N 0.19549 0.3931 0.41295 0.0
N263 N 0.04236 0.23233 0.42895 0.0
H264 H -0.02694 0.16876 0.97667 0.0
H265 H 0.67037 0.07784 0.87297 0.0
H266 H 0.84011 0.97273 0.95579 0.0
H267 H 0.84022 0.27456 0.85044 0.0
H268 H 0.73498 0.03766 0.89894 0.0
H269 H 0.9284 0.20957 0.92816 0.0
C270 C 0.93485 0.13443 0.96172 0.0
C271 C 0.90966 0.06719 0.97072 0.0
C272 C 0.7588 0.08945 0.88729 0.0
C273 C 0.85856 0.11336 0.91535 0.0
C274 C 0.72202 0.11215 0.87223 0.0
C275 C 0.75052 0.17924 0.85944 0.0
C276 C 0.82374 0.13463 0.89093 0.0
C277 C 0.81708 0.22228 0.85974 0.0
C278 C 0.90977 0.15777 0.93381 0.0
C279 C 0.86063 0.02493 0.95011 0.0
N280 N 0.8513 0.19942 0.87623 0.0
N281 N 0.8361 0.04859 0.92386 0.0
H282 H 0.75248 0.86091 0.42924 0.0
H283 H 0.4408 0.87096 0.39095 0.0
H284 H 0.67292 0.95203 0.49792 0.0
H285 H 0.48611 0.74002 0.3411 0.0
H286 H 0.54502 0.92462 0.41493 0.0
H287 H 0.67366 0.83828 0.38264 0.0
C288 C 0.71935 0.87736 0.43381 0.0
C289 C 0.71826 0.90761 0.4675 0.0
C290 C 0.53305 0.88509 0.39796 0.0
C291 C 0.62896 0.88251 0.41485 0.0
C292 C 0.47378 0.8548 0.38409 0.0
C293 C 0.45547 0.80157 0.36377 0.0
C294 C 0.57373 0.86098 0.39231 0.0
C295 C 0.49942 0.78194 0.35587 0.0
C296 C 0.67435 0.86426 0.40749 0.0
C297 C 0.67444 0.9278 0.47253 0.0
N298 N 0.55627 0.81099 0.37077 0.0
N299 N 0.63136 0.91458 0.4467 0.0
H300 H 0.91125 0.71589 0.9888 0.0
H301 H 0.7051 0.49486 0.8307 0.0
H302 H 0.77577 0.74181 0.93017 0.0
H303 H 0.79811 0.43958 0.91407 0.0
H304 H 0.75333 0.60115 0.85371 0.0
H305 H 0.89257 0.62987 0.94853 0.0
C306 C 0.87846 0.70412 0.96697 0.0
C307 C 0.84404 0.73486 0.9633 0.0
C308 C 0.76401 0.5661 0.86646 0.0
C309 C 0.82246 0.63723 0.91729 0.0
C310 C 0.73701 0.50586 0.85305 0.0
C311 C 0.74783 0.45879 0.87055 0.0
C312 C 0.80193 0.57895 0.89752 0.0
C313 C 0.78837 0.47466 0.90006 0.0
C314 C 0.86755 0.655 0.94417 0.0
C315 C 0.80204 0.71805 0.93458 0.0
N316 N 0.81363 0.53322 0.91282 0.0
N317 N 0.79204 0.67007 0.9129 0.0
loop_
_geom_bond_atom_site_label_1
_geom_bond_atom_site_label_2
_geom_bond_distance
_geom_bond_site_symmetry_2
_ccdc_geom_bond_type
Co0 N5 2.057 . S
Co0 O17 2.021 1_665 S
Co0 O20 2.062 1_656 S
Co0 O24 2.117 1_556 S
Co0 O25 2.020 1_565 S
C1 O21 1.259 1_565 S
C1 O24 1.258 . S
Co2 N11 2.057 . S
Co2 O18 2.117 1_554 S
Co2 O19 2.020 . S
Co2 O21 2.021 1_455 S
Co2 O26 2.063 1_554 S
C3 N5 1.316 . S
C3 N6 1.347 . S
C3 H8 0.931 1_655 S
C4 N5 1.375 . S
C4 C7 1.350 . S
C4 H9 0.930 . S
N5 Co0 2.057 . S
N5 C3 1.316 . S
N5 C4 1.375 . S
N6 C3 1.347 . S
N6 C7 1.373 . S
C7 C4 1.350 . S
C7 N6 1.373 . S
C7 H28 0.931 . S
H8 C3 0.931 1_455 S
H9 C4 0.930 . S
C10 O17 1.259 . S
C10 O18 1.258 . S
N11 Co2 2.057 . S
N11 C12 1.316 . S
N11 C13 1.375 . S
C12 N11 1.316 . S
C12 N14 1.347 . S
C12 H23 0.931 . S
C13 N11 1.375 . S
C13 C15 1.350 . S
C13 H22 0.930 . S
N14 C12 1.347 . S
N14 C15 1.373 . S
C15 C13 1.350 . S
C15 N14 1.373 . S
C15 H29 0.931 . S
C16 O19 1.256 1_565 S
C16 O20 1.255 . S
O17 Co0 2.021 1_445 S
O17 C10 1.259 . S
O18 Co2 2.117 1_556 S
O18 C10 1.258 . S
O19 Co2 2.020 . S
O19 C16 1.256 1_545 S
O20 Co0 2.062 1_454 S
O20 C16 1.255 . S
O21 C1 1.259 1_545 S
O21 Co2 2.021 1_655 S
H22 C13 0.930 . S
H23 C12 0.931 . S
O24 Co0 2.117 1_554 S
O24 C1 1.258 . S
O25 Co0 2.020 1_545 S
O25 C27 1.256 . S
O26 Co2 2.063 1_556 S
O26 C27 1.254 1_455 S
C27 O25 1.256 . S
C27 O26 1.254 1_655 S
H28 C7 0.931 . S
H29 C15 0.931 . S
Co30 N35 2.057 . S
Co30 O47 2.021 1_545 S
Co30 O50 2.062 1_545 S
Co30 O54 2.117 . S
Co30 O55 2.020 . S
C31 O51 1.259 . S
C31 O54 1.258 . S
Co32 N41 2.057 . S
Co32 O48 2.117 . S
Co32 O49 2.020 1_655 S
Co32 O51 2.021 1_665 S
Co32 O56 2.062 1_565 S
C33 N35 1.316 . S
C33 N36 1.347 . S
C33 H38 0.931 . S
C34 N35 1.375 . S
C34 C37 1.350 . S
C34 H39 0.930 . S
N35 Co30 2.057 . S
N35 C33 1.316 . S
N35 C34 1.375 . S
N36 C33 1.347 . S
N36 C37 1.373 . S
C37 C34 1.350 . S
C37 N36 1.373 . S
C37 H58 0.931 . S
H38 C33 0.931 . S
H39 C34 0.930 . S
C40 O47 1.259 1_655 S
C40 O48 1.258 . S
N41 Co32 2.057 . S
N41 C42 1.316 . S
N41 C43 1.375 . S
C42 N41 1.316 . S
C42 N44 1.347 . S
C42 H53 0.931 . S
C43 N41 1.375 . S
C43 C45 1.350 . S
C43 H52 0.930 . S
N44 C42 1.347 . S
N44 C45 1.373 . S
C45 C43 1.350 . S
C45 N44 1.373 . S
C45 H59 0.931 . S
C46 O49 1.256 . S
C46 O50 1.255 . S
O47 Co30 2.021 1_565 S
O47 C40 1.259 1_455 S
O48 Co32 2.117 . S
O48 C40 1.258 . S
O49 Co32 2.020 1_455 S
O49 C46 1.256 . S
O50 Co30 2.062 1_565 S
O50 C46 1.255 . S
O51 C31 1.259 . S
O51 Co32 2.021 1_445 S
H52 C43 0.930 . S
H53 C42 0.931 . S
O54 Co30 2.117 . S
O54 C31 1.258 . S
O55 Co30 2.020 . S
O55 C57 1.256 1_455 S
O56 Co32 2.062 1_545 S
O56 C57 1.255 . S
C57 O55 1.256 1_655 S
C57 O56 1.255 . S
H58 C37 0.931 . S
H59 C45 0.931 . S
Zn60 O66 1.920 . S
Zn60 O72 1.898 . S
Zn60 O75 1.905 . S
Zn61 O69 1.905 . S
Zn61 O70 1.898 . S
Zn61 O78 1.920 . S
Zn62 O65 2.080 . S
Zn62 O68 2.114 . S
Zn62 O71 2.120 . S
Zn62 O73 2.120 . S
Zn62 O74 2.114 . S
Zn62 O77 2.080 . S
C63 O68 1.166 . S
C63 O69 1.182 . S
C64 O70 1.167 . S
C64 O71 1.299 . S
O65 Zn62 2.080 . S
O65 C79 1.305 . S
O66 Zn60 1.920 . S
O66 C79 1.234 . S
C67 O72 1.167 . S
C67 O73 1.299 . S
O68 Zn62 2.114 . S
O68 C63 1.166 . S
O69 Zn61 1.905 . S
O69 C63 1.182 . S
O70 Zn61 1.898 . S
O70 C64 1.167 . S
O71 Zn62 2.120 . S
O71 C64 1.299 . S
O72 Zn60 1.898 . S
O72 C67 1.167 . S
O73 Zn62 2.120 . S
O73 C67 1.299 . S
O74 Zn62 2.114 . S
O74 C76 1.166 . S
O75 Zn60 1.905 . S
O75 C76 1.182 . S
C76 O74 1.166 . S
C76 O75 1.182 . S
O77 Zn62 2.080 . S
O77 C80 1.305 . S
O78 Zn61 1.920 . S
O78 C80 1.234 . S
C79 O65 1.305 . S
C79 O66 1.234 . S
C80 O77 1.305 . S
C80 O78 1.234 . S
Zn81 O87 1.920 . S
Zn81 O93 1.898 . S
Zn81 O96 1.905 . S
Zn82 O90 1.905 . S
Zn82 O91 1.898 . S
Zn82 O99 1.920 . S
Zn83 O86 2.080 . S
Zn83 O89 2.114 . S
Zn83 O92 2.120 . S
Zn83 O94 2.120 . S
Zn83 O95 2.114 . S
Zn83 O98 2.080 . S
C84 O89 1.166 . S
C84 O90 1.182 . S
C85 O91 1.167 . S
C85 O92 1.299 . S
O86 Zn83 2.080 . S
O86 C100 1.305 . S
O87 Zn81 1.920 . S
O87 C100 1.234 . S
C88 O93 1.167 . S
C88 O94 1.299 . S
O89 Zn83 2.114 . S
O89 C84 1.166 . S
O90 Zn82 1.905 . S
O90 C84 1.182 . S
O91 Zn82 1.898 . S
O91 C85 1.167 . S
O92 Zn83 2.120 . S
O92 C85 1.299 . S
O93 Zn81 1.898 . S
O93 C88 1.167 . S
O94 Zn83 2.120 . S
O94 C88 1.299 . S
O95 Zn83 2.114 . S
O95 C97 1.166 . S
O96 Zn81 1.905 . S
O96 C97 1.182 . S
C97 O95 1.166 . S
C97 O96 1.182 . S
O98 Zn83 2.080 . S
O98 C101 1.305 . S
O99 Zn82 1.920 . S
O99 C101 1.234 . S
C100 O86 1.305 . S
C100 O87 1.234 . S
C101 O98 1.305 . S
C101 O99 1.234 . S
H102 C108 0.930 . S
H103 C112 0.930 . S
H104 C117 0.929 . S
H105 C115 0.929 . S
H106 C110 0.929 . S
H107 C116 0.929 . S
C108 H102 0.930 . S
C108 C109 1.367 . S
C108 C116 1.378 . S
C109 C108 1.367 . S
C109 C117 1.433 . S
C110 H106 0.929 . S
C110 C112 1.378 . S
C110 C114 1.350 . S
C111 C114 1.463 . S
C111 C116 1.350 . S
C111 N119 1.427 . S
C112 H103 0.930 . S
C112 C110 1.378 . S
C112 C113 1.367 . S
C113 C112 1.367 . S
C113 C115 1.433 . S
C114 C110 1.350 . S
C114 C111 1.463 . S
C114 N118 1.427 . S
C115 H105 0.929 . S
C115 C113 1.433 . S
C115 N118 1.384 . S
C116 H107 0.929 . S
C116 C108 1.378 . S
C116 C111 1.350 . S
C117 H104 0.929 . S
C117 C109 1.433 . S
C117 N119 1.384 . S
N118 C114 1.427 . S
N118 C115 1.384 . S
N119 C111 1.427 . S
N119 C117 1.384 . S
H120 C126 0.930 . S
H121 C130 0.930 . S
H122 C135 0.929 . S
H123 C133 0.929 . S
H124 C128 0.929 . S
H125 C134 0.929 . S
C126 H120 0.930 . S
C126 C127 1.367 . S
C126 C134 1.378 . S
C127 C126 1.367 . S
C127 C135 1.433 . S
C128 H124 0.929 . S
C128 C130 1.378 . S
C128 C132 1.350 . S
C129 C132 1.463 . S
C129 C134 1.350 . S
C129 N137 1.427 . S
C130 H121 0.930 . S
C130 C128 1.378 . S
C130 C131 1.367 . S
C131 C130 1.367 . S
C131 C133 1.433 . S
C132 C128 1.350 . S
C132 C129 1.463 . S
C132 N136 1.427 . S
C133 H123 0.929 . S
C133 C131 1.433 . S
C133 N136 1.384 . S
C134 H125 0.929 . S
C134 C126 1.378 . S
C134 C129 1.350 . S
C135 H122 0.929 . S
C135 C127 1.433 . S
C135 N137 1.384 . S
N136 C132 1.427 . S
N136 C133 1.384 . S
N137 C129 1.427 . S
N137 C135 1.384 . S
H138 C144 0.930 . S
H139 C148 0.930 . S
H140 C153 0.929 . S
H141 C151 0.929 . S
H142 C146 0.929 . S
H143 C152 0.929 . S
C144 H138 0.930 . S
C144 C145 1.367 . S
C144 C152 1.378 . S
C145 C144 1.367 . S
C145 C153 1.433 . S
C146 H142 0.929 . S
C146 C148 1.378 . S
C146 C150 1.350 . S
C147 C150 1.463 . S
C147 C152 1.350 . S
C147 N155 1.427 . S
C148 H139 0.930 . S
C148 C146 1.378 . S
C148 C149 1.367 . S
C149 C148 1.367 . S
C149 C151 1.433 . S
C150 C146 1.350 . S
C150 C147 1.463 . S
C150 N154 1.427 . S
C151 H141 0.929 . S
C151 C149 1.433 . S
C151 N154 1.384 . S
C152 H143 0.929 . S
C152 C144 1.378 . S
C152 C147 1.350 . S
C153 H140 0.929 . S
C153 C145 1.433 . S
C153 N155 1.384 . S
N154 C150 1.427 . S
N154 C151 1.384 . S
N155 C147 1.427 . S
N155 C153 1.384 . S
H156 C162 0.930 . S
H157 C166 0.930 . S
H158 C171 0.929 . S
H159 C169 0.929 . S
H160 C164 0.929 . S
H161 C170 0.929 . S
C162 H156 0.930 . S
C162 C163 1.367 . S
C162 C170 1.378 . S
C163 C162 1.367 . S
C163 C171 1.433 . S
C164 H160 0.929 . S
C164 C166 1.378 . S
C164 C168 1.350 . S
C165 C168 1.463 . S
C165 C170 1.350 . S
C165 N173 1.427 . S
C166 H157 0.930 . S
C166 C164 1.378 . S
C166 C167 1.367 . S
C167 C166 1.367 . S
C167 C169 1.433 . S
C168 C164 1.350 . S
C168 C165 1.463 . S
C168 N172 1.427 . S
C169 H159 0.929 . S
C169 C167 1.433 . S
C169 N172 1.384 . S
C170 H161 0.929 . S
C170 C162 1.378 . S
C170 C165 1.350 . S
C171 H158 0.929 . S
C171 C163 1.433 . S
C171 N173 1.384 . S
N172 C168 1.427 . S
N172 C169 1.384 . S
N173 C165 1.427 . S
N173 C171 1.384 . S
H174 C180 0.930 1_545 S
H175 C184 0.930 . S
H176 C189 0.929 . S
H177 C187 0.929 . S
H178 C182 0.929 . S
H179 C188 0.929 . S
C180 H174 0.930 1_565 S
C180 C181 1.367 . S
C180 C188 1.378 . S
C181 C180 1.367 . S
C181 C189 1.433 . S
C182 H178 0.929 . S
C182 C184 1.378 . S
C182 C186 1.350 . S
C183 C186 1.463 . S
C183 C188 1.350 . S
C183 N191 1.427 . S
C184 H175 0.930 . S
C184 C182 1.378 . S
C184 C185 1.367 . S
C185 C184 1.367 . S
C185 C187 1.433 . S
C186 C182 1.350 . S
C186 C183 1.463 . S
C186 N190 1.427 . S
C187 H177 0.929 . S
C187 C185 1.433 . S
C187 N190 1.384 . S
C188 H179 0.929 . S
C188 C180 1.378 . S
C188 C183 1.350 . S
C189 H176 0.929 . S
C189 C181 1.433 . S
C189 N191 1.384 . S
N190 C186 1.427 . S
N190 C187 1.384 . S
N191 C183 1.427 . S
N191 C189 1.384 . S
H192 C198 0.930 . S
H193 C202 0.930 . S
H194 C207 0.929 . S
H195 C205 0.929 . S
H196 C200 0.929 . S
H197 C206 0.929 . S
C198 H192 0.930 . S
C198 C199 1.367 . S
C198 C206 1.378 . S
C199 C198 1.367 . S
C199 C207 1.433 . S
C200 H196 0.929 . S
C200 C202 1.378 . S
C200 C204 1.350 . S
C201 C204 1.463 . S
C201 C206 1.350 . S
C201 N209 1.427 . S
C202 H193 0.930 . S
C202 C200 1.378 . S
C202 C203 1.367 . S
C203 C202 1.367 . S
C203 C205 1.433 . S
C204 C200 1.350 . S
C204 C201 1.463 . S
C204 N208 1.427 . S
C205 H195 0.929 . S
C205 C203 1.433 . S
C205 N208 1.384 . S
C206 H197 0.929 . S
C206 C198 1.378 . S
C206 C201 1.350 . S
C207 H194 0.929 . S
C207 C199 1.433 . S
C207 N209 1.384 . S
N208 C204 1.427 . S
N208 C205 1.384 . S
N209 C201 1.427 . S
N209 C207 1.384 . S
H210 C216 0.930 . S
H211 C220 0.930 . S
H212 C225 0.929 1_545 S
H213 C223 0.929 . S
H214 C218 0.929 . S
H215 C224 0.929 . S
C216 H210 0.930 . S
C216 C217 1.367 . S
C216 C224 1.378 . S
C217 C216 1.367 . S
C217 C225 1.433 . S
C218 H214 0.929 . S
C218 C220 1.378 . S
C218 C222 1.350 . S
C219 C222 1.463 . S
C219 C224 1.350 . S
C219 N227 1.427 . S
C220 H211 0.930 . S
C220 C218 1.378 . S
C220 C221 1.367 . S
C221 C220 1.367 . S
C221 C223 1.433 . S
C222 C218 1.350 . S
C222 C219 1.463 . S
C222 N226 1.427 . S
C223 H213 0.929 . S
C223 C221 1.433 . S
C223 N226 1.384 . S
C224 H215 0.929 . S
C224 C216 1.378 . S
C224 C219 1.350 . S
C225 H212 0.929 1_565 S
C225 C217 1.433 . S
C225 N227 1.384 . S
N226 C222 1.427 . S
N226 C223 1.384 . S
N227 C219 1.427 . S
N227 C225 1.384 . S
H228 C234 0.930 . S
H229 C238 0.930 . S
H230 C243 0.929 . S
H231 C241 0.929 . S
H232 C236 0.929 . S
H233 C242 0.929 . S
C234 H228 0.930 . S
C234 C235 1.367 . S
C234 C242 1.378 . S
C235 C234 1.367 . S
C235 C243 1.433 . S
C236 H232 0.929 . S
C236 C238 1.378 . S
C236 C240 1.350 . S
C237 C240 1.463 . S
C237 C242 1.350 . S
C237 N245 1.427 . S
C238 H229 0.930 . S
C238 C236 1.378 . S
C238 C239 1.367 . S
C239 C238 1.367 . S
C239 C241 1.433 . S
C240 C236 1.350 . S
C240 C237 1.463 . S
C240 N244 1.427 . S
C241 H231 0.929 . S
C241 C239 1.433 . S
C241 N244 1.384 . S
C242 H233 0.929 . S
C242 C234 1.378 . S
C242 C237 1.350 . S
C243 H230 0.929 . S
C243 C235 1.433 . S
C243 N245 1.384 . S
N244 C240 1.427 . S
N244 C241 1.384 . S
N245 C237 1.427 . S
N245 C243 1.384 . S
H246 C252 0.930 . S
H247 C256 0.930 . S
H248 C261 0.929 . S
H249 C259 0.929 . S
H250 C254 0.929 . S
H251 C260 0.929 . S
C252 H246 0.930 . S
C252 C253 1.367 . S
C252 C260 1.378 . S
C253 C252 1.367 . S
C253 C261 1.433 . S
C254 H250 0.929 . S
C254 C256 1.378 . S
C254 C258 1.350 . S
C255 C258 1.463 . S
C255 C260 1.350 . S
C255 N263 1.427 . S
C256 H247 0.930 . S
C256 C254 1.378 . S
C256 C257 1.367 . S
C257 C256 1.367 . S
C257 C259 1.433 . S
C258 C254 1.350 . S
C258 C255 1.463 . S
C258 N262 1.427 . S
C259 H249 0.929 . S
C259 C257 1.433 . S
C259 N262 1.384 . S
C260 H251 0.929 . S
C260 C252 1.378 . S
C260 C255 1.350 . S
C261 H248 0.929 . S
C261 C253 1.433 . S
C261 N263 1.384 . S
N262 C258 1.427 . S
N262 C259 1.384 . S
N263 C255 1.427 . S
N263 C261 1.384 . S
H264 C270 0.930 . S
H265 C274 0.930 . S
H266 C279 0.929 . S
H267 C277 0.929 . S
H268 C272 0.929 . S
H269 C278 0.929 . S
C270 H264 0.930 . S
C270 C271 1.367 . S
C270 C278 1.378 . S
C271 C270 1.367 . S
C271 C279 1.433 . S
C272 H268 0.929 . S
C272 C274 1.378 . S
C272 C276 1.350 . S
C273 C276 1.463 . S
C273 C278 1.350 . S
C273 N281 1.427 . S
C274 H265 0.930 . S
C274 C272 1.378 . S
C274 C275 1.367 . S
C275 C274 1.367 . S
C275 C277 1.433 . S
C276 C272 1.350 . S
C276 C273 1.463 . S
C276 N280 1.427 . S
C277 H267 0.929 . S
C277 C275 1.433 . S
C277 N280 1.384 . S
C278 H269 0.929 . S
C278 C270 1.378 . S
C278 C273 1.350 . S
C279 H266 0.929 . S
C279 C271 1.433 . S
C279 N281 1.384 . S
N280 C276 1.427 . S
N280 C277 1.384 . S
N281 C273 1.427 . S
N281 C279 1.384 . S
H282 C288 0.930 . S
H283 C292 0.930 . S
H284 C297 0.929 . S
H285 C295 0.929 . S
H286 C290 0.929 . S
H287 C296 0.929 . S
C288 H282 0.930 . S
C288 C289 1.367 . S
C288 C296 1.378 . S
C289 C288 1.367 . S
C289 C297 1.433 . S
C290 H286 0.929 . S
C290 C292 1.378 . S
C290 C294 1.350 . S
C291 C294 1.463 . S
C291 C296 1.350 . S
C291 N299 1.427 . S
C292 H283 0.930 . S
C292 C290 1.378 . S
C292 C293 1.367 . S
C293 C292 1.367 . S
C293 C295 1.433 . S
C294 C290 1.350 . S
C294 C291 1.463 . S
C294 N298 1.427 . S
C295 H285 0.929 . S
C295 C293 1.433 . S
C295 N298 1.384 . S
C296 H287 0.929 . S
C296 C288 1.378 . S
C296 C291 1.350 . S
C297 H284 0.929 . S
C297 C289 1.433 . S
C297 N299 1.384 . S
N298 C294 1.427 . S
N298 C295 1.384 . S
N299 C291 1.427 . S
N299 C297 1.384 . S
H300 C306 0.930 . S
H301 C310 0.930 . S
H302 C315 0.929 . S
H303 C313 0.929 . S
H304 C308 0.929 . S
H305 C314 0.929 . S
C306 H300 0.930 . S
C306 C307 1.367 . S
C306 C314 1.378 . S
C307 C306 1.367 . S
C307 C315 1.433 . S
C308 H304 0.929 . S
C308 C310 1.378 . S
C308 C312 1.350 . S
C309 C312 1.463 . S
C309 C314 1.350 . S
C309 N317 1.427 . S
C310 H301 0.930 . S
C310 C308 1.378 . S
C310 C311 1.367 . S
C311 C310 1.367 . S
C311 C313 1.433 . S
C312 C308 1.350 . S
C312 C309 1.463 . S
C312 N316 1.427 . S
C313 H303 0.929 . S
C313 C311 1.433 . S
C313 N316 1.384 . S
C314 H305 0.929 . S
C314 C306 1.378 . S
C314 C309 1.350 . S
C315 H302 0.929 . S
C315 C307 1.433 . S
C315 N317 1.384 . S
N316 C312 1.427 . S
N316 C313 1.384 . S
N317 C309 1.427 . S
N317 C315 1.384 . S
C109 C16 1.506 . S
C113 C79 1.336 . S
C127 N36 1.195 . S
C131 C85 1.112 . S
C145 N14 1.215 . S
C149 C76 1.141 . S
C163 C57 1.639 . S
C167 C101 1.458 . S
C181 C1 1.802 . S
C185 C67 1.642 . S
C203 C84 1.551 . S
C199 C40 1.681 . S
C217 C46 1.506 . S
C221 C80 1.350 . S
C239 C97 1.565 . S
C235 C10 1.682 . S
C257 C64 1.656 . S
C253 C31 1.806 . S
C275 C100 1.468 . S
C271 C27 1.645 . S
C293 C63 1.140 . S
C289 N44 1.195 . S
C311 C88 1.120 . S
C307 N6 1.200 . S
