# Generated by pormake.
# Topology pyr, (3,6)-cn, num edge types: 1
# Building blocks:
#     Node 0, Type 0, BuildingBlock: OLANEW_clean_sbu_2, # of connection points: 3
#     Node 1, Type 0, BuildingBlock: OLANEW_clean_sbu_2, # of connection points: 3
#     Node 2, Type 0, BuildingBlock: OLANEW_clean_sbu_2, # of connection points: 3
#     Node 3, Type 0, BuildingBlock: OLANEW_clean_sbu_2, # of connection points: 3
#     Node 4, Type 0, BuildingBlock: OLANEW_clean_sbu_2, # of connection points: 3
#     Node 5, Type 0, BuildingBlock: OLANEW_clean_sbu_2, # of connection points: 3
#     Node 6, Type 0, BuildingBlock: OLANEW_clean_sbu_2, # of connection points: 3
#     Node 7, Type 0, BuildingBlock: OLANEW_clean_sbu_2, # of connection points: 3
#     Node 8, Type 1, BuildingBlock: VOLQOD_clean_sbu_1, # of connection points: 6
#     Node 9, Type 1, BuildingBlock: VOLQOD_clean_sbu_1, # of connection points: 6
#     Node 10, Type 1, BuildingBlock: VOLQOD_clean_sbu_1, # of connection points: 6
#     Node 11, Type 1, BuildingBlock: VOLQOD_clean_sbu_1, # of connection points: 6
#     Edge 12, Type (0, 1), BuildingBlock: AJUNOK_clean_linker_0, # of connection points: 2
#     Edge 13, Type (0, 1), BuildingBlock: AJUNOK_clean_linker_0, # of connection points: 2
#     Edge 14, Type (0, 1), BuildingBlock: AJUNOK_clean_linker_0, # of connection points: 2
#     Edge 15, Type (0, 1), BuildingBlock: AJUNOK_clean_linker_0, # of connection points: 2
#     Edge 16, Type (0, 1), BuildingBlock: AJUNOK_clean_linker_0, # of connection points: 2
#     Edge 17, Type (0, 1), BuildingBlock: AJUNOK_clean_linker_0, # of connection points: 2
#     Edge 18, Type (0, 1), BuildingBlock: AJUNOK_clean_linker_0, # of connection points: 2
#     Edge 19, Type (0, 1), BuildingBlock: AJUNOK_clean_linker_0, # of connection points: 2
#     Edge 20, Type (0, 1), BuildingBlock: AJUNOK_clean_linker_0, # of connection points: 2
#     Edge 21, Type (0, 1), BuildingBlock: AJUNOK_clean_linker_0, # of connection points: 2
#     Edge 22, Type (0, 1), BuildingBlock: AJUNOK_clean_linker_0, # of connection points: 2
#     Edge 23, Type (0, 1), BuildingBlock: AJUNOK_clean_linker_0, # of connection points: 2
#     Edge 24, Type (0, 1), BuildingBlock: AJUNOK_clean_linker_0, # of connection points: 2
#     Edge 25, Type (0, 1), BuildingBlock: AJUNOK_clean_linker_0, # of connection points: 2
#     Edge 26, Type (0, 1), BuildingBlock: AJUNOK_clean_linker_0, # of connection points: 2
#     Edge 27, Type (0, 1), BuildingBlock: AJUNOK_clean_linker_0, # of connection points: 2
#     Edge 28, Type (0, 1), BuildingBlock: AJUNOK_clean_linker_0, # of connection points: 2
#     Edge 29, Type (0, 1), BuildingBlock: AJUNOK_clean_linker_0, # of connection points: 2
#     Edge 30, Type (0, 1), BuildingBlock: AJUNOK_clean_linker_0, # of connection points: 2
#     Edge 31, Type (0, 1), BuildingBlock: AJUNOK_clean_linker_0, # of connection points: 2
#     Edge 32, Type (0, 1), BuildingBlock: AJUNOK_clean_linker_0, # of connection points: 2
#     Edge 33, Type (0, 1), BuildingBlock: AJUNOK_clean_linker_0, # of connection points: 2
#     Edge 34, Type (0, 1), BuildingBlock: AJUNOK_clean_linker_0, # of connection points: 2
#     Edge 35, Type (0, 1), BuildingBlock: AJUNOK_clean_linker_0, # of connection points: 2
# Relax obj value: 0.097
# Max RMSD: 0.152
# Mean RMSD: 0.133
data_MOF--net-pry--node1-OLANEW_clean_sbu_2--node2-VOLQOD_clean_sbu_1--edge1-AJUNOK_clean_linker_0
_symmetry_space_group_name_H-M    P1
_symmetry_Int_Tables_number       1
_symmetry_cell_setting            triclinic
loop_
_symmetry_equiv_pos_as_xyz
'x, y, z'
_cell_length_a     29.818647
_cell_length_b     30.1273
_cell_length_c     29.520088
_cell_angle_alpha  94.865321
_cell_angle_beta   88.864089
_cell_angle_gamma 95.13663
loop_
_atom_site_label
_atom_site_type_symbol
_atom_site_fract_x
_atom_site_fract_y
_atom_site_fract_z
_atom_type_partial_charge
O0 O 0.19371 0.13262 0.11499 0.0
Cd1 Cd 0.11465 0.15119 0.11749 0.0
O2 O 0.17416 0.06917 0.14485 0.0
Cd3 Cd 0.10613 0.08211 0.16731 0.0
O4 O 0.07372 0.07247 0.23318 0.0
C5 C 0.1024 0.07136 0.26428 0.0
O6 O 0.14536 0.07703 0.25341 0.0
C7 C 0.20414 0.09534 0.12727 0.0
C8 C 0.09606 0.2344 0.08935 0.0
O9 O 0.10026 0.22872 0.13156 0.0
O10 O 0.10183 0.20121 0.06033 0.0
O11 O 0.47459 0.94658 0.74731 0.0
Cd12 Cd 0.46781 0.93224 0.66475 0.0
O13 O 0.42469 0.99621 0.75191 0.0
Cd14 Cd 0.40225 0.98434 0.6818 0.0
O15 O 0.34381 0.98156 0.63817 0.0
C16 C 0.30935 0.95734 0.65037 0.0
O17 O 0.31272 0.93375 0.68542 0.0
C18 C 0.4533 0.97535 0.77092 0.0
C19 C 0.48941 0.8465 0.63367 0.0
O20 O 0.52016 0.87889 0.63983 0.0
O21 O 0.44851 0.85473 0.64217 0.0
O22 O 0.68864 0.50393 0.94947 0.0
Cd23 Cd 0.60676 0.49799 0.94167 0.0
O24 O 0.6799 0.44509 0.98784 0.0
Cd25 Cd 0.69414 0.39132 0.02878 0.0
O26 O 0.66849 0.32747 0.05259 0.0
C27 C 0.62705 0.31683 0.04443 0.0
O28 O 0.60462 0.34488 0.02407 0.0
C29 C 0.70606 0.47557 0.97157 0.0
C30 C 0.58159 0.50481 0.85227 0.0
O31 O 0.58953 0.53965 0.87995 0.0
O32 O 0.58551 0.46655 0.867 0.0
O33 O 0.9296 0.67258 0.44246 0.0
Cd34 Cd 0.91391 0.59297 0.41911 0.0
O35 O 0.97483 0.66101 0.49731 0.0
Cd36 Cd 0.94849 0.5912 0.49401 0.0
O37 O 0.87987 0.56154 0.5022 0.0
C38 C 0.85516 0.58667 0.52644 0.0
O39 O 0.87371 0.62477 0.54545 0.0
C40 C 0.9573 0.68796 0.47336 0.0
C41 C 0.94166 0.57409 0.32944 0.0
O42 O 0.96962 0.57667 0.36215 0.0
O43 O 0.90039 0.57986 0.33916 0.0
O44 O 0.95021 0.92292 0.89176 0.0
Cd45 Cd 0.93219 0.90659 0.97017 0.0
O46 O 0.92831 0.99079 0.90142 0.0
Cd47 Cd 0.90077 0.98406 0.9697 0.0
O48 O 0.84157 0.98759 0.01398 0.0
C49 C 0.80697 0.96241 0.00101 0.0
O50 O 0.81056 0.93441 0.96475 0.0
C51 C 0.94507 0.96012 0.87605 0.0
C52 C 0.95146 0.81974 0.9835 0.0
O53 O 0.91321 0.82781 0.96857 0.0
O54 O 0.98055 0.85302 0.993 0.0
O55 O 0.58409 0.00629 0.42211 0.0
Cd56 Cd 0.6087 0.0203 0.50098 0.0
O57 O 0.57942 0.07836 0.43022 0.0
Cd58 Cd 0.56373 0.14416 0.4129 0.0
O59 O 0.55456 0.21539 0.42203 0.0
C60 C 0.53689 0.23062 0.45902 0.0
O61 O 0.52352 0.20258 0.48932 0.0
C62 C 0.57503 0.04179 0.40522 0.0
C63 C 0.70069 0.0156 0.51241 0.0
O64 O 0.67215 0.98331 0.52211 0.0
O65 O 0.68599 0.04979 0.49663 0.0
O66 O 0.5423 0.71132 0.14208 0.0
Cd67 Cd 0.55889 0.63378 0.14324 0.0
O68 O 0.4774 0.68315 0.11447 0.0
Cd69 Cd 0.40907 0.68716 0.09172 0.0
O70 O 0.33844 0.66719 0.07792 0.0
C71 C 0.32915 0.62817 0.05876 0.0
O72 O 0.36234 0.60335 0.04756 0.0
C73 C 0.50368 0.7171 0.1275 0.0
C74 C 0.55318 0.60867 0.23173 0.0
O75 O 0.59101 0.62257 0.21426 0.0
O76 O 0.51799 0.60641 0.20713 0.0
O77 O 0.10931 0.53757 0.6852 0.0
Cd78 Cd 0.12525 0.52844 0.60351 0.0
O79 O 0.1031 0.46459 0.6782 0.0
Cd80 Cd 0.08365 0.39832 0.70002 0.0
O81 O 0.06428 0.32695 0.69123 0.0
C82 C 0.08051 0.30694 0.6559 0.0
O83 O 0.10792 0.33019 0.62956 0.0
C84 C 0.10156 0.50083 0.70322 0.0
C85 C 0.21688 0.52789 0.58284 0.0
O86 O 0.19686 0.56385 0.58343 0.0
O87 O 0.19362 0.49202 0.59262 0.0
O88 O 0.99662 0.09866 0.6107 0.0
Zn89 Zn 0.97241 0.0339 0.60252 0.0
O90 O 0.01166 -0.00134 0.56319 0.0
Zn91 Zn 0.97988 0.976 0.50716 0.0
Zn92 Zn 0.06542 0.0361 0.54757 0.0
Zn93 Zn 0.02934 0.9493 0.59606 0.0
O94 O 0.97845 0.90854 0.49938 0.0
O95 O 0.00845 0.89044 0.56283 0.0
O96 O 0.90926 0.02831 0.57836 0.0
O97 O 0.91522 0.99153 0.51017 0.0
O98 O 0.00989 0.00118 0.45134 0.0
O99 O 0.07012 0.0411 0.4805 0.0
O100 O 0.12199 0.01186 0.5671 0.0
O101 O 0.96878 0.01297 0.66506 0.0
O102 O 0.09675 0.95119 0.60046 0.0
O103 O 0.00533 0.95191 0.66089 0.0
C104 C 0.03431 0.11872 0.60015 0.0
C105 C 0.98999 0.87921 0.52451 0.0
C106 C 0.04614 0.02624 0.44645 0.0
C107 C 0.89194 0.01121 0.54108 0.0
C108 C 0.12922 0.97776 0.58761 0.0
C109 C 0.98283 0.98036 0.68364 0.0
O110 O 0.06381 0.09832 0.57703 0.0
O111 O 0.51272 0.12234 0.05956 0.0
Zn112 Zn 0.47852 0.06149 0.05567 0.0
O113 O 0.50846 0.02039 0.09019 0.0
Zn114 Zn 0.5265 0.97137 0.04819 0.0
Zn115 Zn 0.56207 0.05172 0.11964 0.0
Zn116 Zn 0.46705 0.99662 0.13638 0.0
O117 O 0.50314 0.91215 0.06911 0.0
O118 O 0.46287 0.92898 0.13138 0.0
O119 O 0.47399 0.03938 0.98925 0.0
O120 O 0.50541 0.97524 0.98463 0.0
O121 O 0.59373 0.97139 0.04502 0.0
O122 O 0.61876 0.02444 0.09726 0.0
O123 O 0.55812 0.05038 0.18784 0.0
O124 O 0.41527 0.06778 0.0788 0.0
O125 O 0.4911 0.01433 0.19937 0.0
O126 O 0.40514 0.01922 0.13142 0.0
C127 C 0.54816 0.1391 0.08022 0.0
C128 C 0.47916 0.90039 0.10286 0.0
C129 C 0.62609 0.99336 0.06676 0.0
C130 C 0.48555 0.00455 0.96609 0.0
C131 C 0.52786 0.03443 0.2145 0.0
C132 C 0.39018 0.04817 0.10779 0.0
O133 O 0.56993 0.11585 0.10472 0.0
O134 O 0.5663 0.5594 0.6462 0.0
Zn135 Zn 0.57312 0.58185 0.58429 0.0
O136 O 0.53468 0.5435 0.54147 0.0
Zn137 Zn 0.57274 0.51566 0.49521 0.0
Zn138 Zn 0.49928 0.49669 0.57261 0.0
Zn139 Zn 0.49452 0.58001 0.51255 0.0
O140 O 0.56458 0.53917 0.43496 0.0
O141 O 0.50759 0.58168 0.44514 0.0
O142 O 0.63894 0.5807 0.5671 0.0
O143 O 0.63819 0.52846 0.50956 0.0
O144 O 0.55854 0.44937 0.48791 0.0
O145 O 0.5083 0.43498 0.5423 0.0
O146 O 0.43257 0.50532 0.57078 0.0
O147 O 0.55646 0.64566 0.58977 0.0
O148 O 0.43008 0.55814 0.52311 0.0
O149 O 0.50051 0.64334 0.54097 0.0
C150 C 0.54444 0.5262 0.66285 0.0
C151 C 0.53761 0.5645 0.41968 0.0
C152 C 0.53264 0.42176 0.50867 0.0
C153 C 0.6597 0.55625 0.53784 0.0
C154 C 0.41024 0.53019 0.54847 0.0
C155 C 0.52631 0.66473 0.57072 0.0
O156 O 0.51796 0.49876 0.63854 0.0
O157 O 0.97574 0.50583 0.11701 0.0
Zn158 Zn 0.98156 0.47994 0.05206 0.0
O159 O 0.02107 0.52112 0.01756 0.0
Zn160 Zn 0.98771 0.54104 0.96831 0.0
Zn161 Zn 0.0434 0.57397 0.05715 0.0
Zn162 Zn 0.07158 0.49012 0.99132 0.0
O163 O 0.01515 0.52531 0.90702 0.0
O164 O 0.0724 0.4873 0.92268 0.0
O165 O 0.91781 0.47153 0.02685 0.0
O166 O 0.92372 0.51605 0.9703 0.0
O167 O 0.98431 0.6071 0.97475 0.0
O168 O 0.02068 0.63106 0.03804 0.0
O169 O 0.11115 0.58214 0.05564 0.0
O170 O 0.00847 0.4204 0.05438 0.0
O171 O 0.13021 0.52373 0.01096 0.0
O172 O 0.07058 0.4277 0.01173 0.0
C173 C 0.99468 0.5398 0.14007 0.0
C174 C 0.04857 0.50375 0.89406 0.0
C175 C 0.99761 0.63856 0.0041 0.0
C176 C 0.90031 0.48982 0.99486 0.0
C177 C 0.14108 0.55956 0.03579 0.0
C178 C 0.0439 0.40481 0.03687 0.0
O179 O 0.02248 0.56779 0.12182 0.0
C180 C 0.04386 0.04439 0.32037 0.0
C181 C 0.08827 0.06158 0.31119 0.0
C182 C 0.03052 0.03285 0.36404 0.0
C183 C 0.06094 0.0385 0.40041 0.0
H184 H 0.01927 0.03914 0.29348 0.0
H185 H 0.99602 0.01958 0.36931 0.0
S186 S 0.18108 0.08314 0.39456 0.0
N187 N 0.16254 0.08432 0.34244 0.0
N188 N 0.13763 0.06282 0.42416 0.0
C189 C 0.10536 0.05616 0.39176 0.0
C190 C 0.11897 0.06763 0.3473 0.0
C191 C 0.49025 0.95841 0.84227 0.0
C192 C 0.46115 0.984 0.82062 0.0
C193 C 0.49768 0.96521 0.88917 0.0
C194 C 0.47655 0.99807 0.91651 0.0
H195 H 0.5074 0.93266 0.82295 0.0
H196 H 0.52048 0.94458 0.90397 0.0
S197 S 0.39674 0.07396 0.87687 0.0
N198 N 0.41072 0.04354 0.83047 0.0
N199 N 0.42479 0.05626 0.91844 0.0
C200 C 0.44737 0.02399 0.89537 0.0
C201 C 0.43964 0.01697 0.84757 0.0
C202 C 0.5764 0.55109 0.78666 0.0
C203 C 0.56962 0.5091 0.8044 0.0
C204 C 0.56754 0.55619 0.74112 0.0
C205 C 0.55097 0.51964 0.71142 0.0
H206 H 0.58952 0.5803 0.80785 0.0
H207 H 0.57395 0.58919 0.7291 0.0
S208 S 0.52567 0.40271 0.74126 0.0
N209 N 0.54417 0.43031 0.78894 0.0
N210 N 0.52707 0.44005 0.7033 0.0
C211 C 0.54296 0.47758 0.72889 0.0
C212 C 0.55247 0.47227 0.77532 0.0
C213 C 0.92593 0.5432 0.24958 0.0
C214 C 0.95647 0.56484 0.28172 0.0
C215 C 0.93894 0.53434 0.20406 0.0
C216 C 0.98264 0.54779 0.18876 0.0
H217 H 0.89176 0.53271 0.25972 0.0
H218 H 0.91423 0.51768 0.18048 0.0
S219 S 0.07528 0.60574 0.25931 0.0
N220 N 0.03252 0.59912 0.29524 0.0
N221 N 0.05661 0.58354 0.2094 0.0
C222 C 0.01349 0.56957 0.22051 0.0
C223 C 0.00052 0.57776 0.26707 0.0
C224 C 0.28435 0.10934 0.1003 0.0
C225 C 0.25124 0.08239 0.12241 0.0
C226 C 0.32897 0.09799 0.0958 0.0
C227 C 0.34261 0.05937 0.11354 0.0
H228 H 0.27582 0.13951 0.08622 0.0
H229 H 0.35303 0.11998 0.07847 0.0
S230 S 0.26913 0.977 0.17419 0.0
N231 N 0.23545 0.01481 0.16208 0.0
N232 N 0.31906 0.99383 0.15369 0.0
C233 C 0.30992 0.0321 0.13577 0.0
C234 C 0.2644 0.04347 0.14014 0.0
C235 C 0.22668 0.93508 0.64673 0.0
C236 C 0.26472 0.95972 0.62965 0.0
C237 C 0.18331 0.94011 0.63181 0.0
C238 C 0.176 0.97013 0.59924 0.0
H239 H 0.23011 0.91249 0.67285 0.0
H240 H 0.15521 0.92124 0.64713 0.0
S241 S 0.26457 0.03894 0.53983 0.0
N242 N 0.29252 0.01261 0.57546 0.0
N243 N 0.21095 0.02212 0.54745 0.0
C244 C 0.21388 0.99351 0.58028 0.0
C245 C 0.2582 0.98826 0.59541 0.0
C246 C 0.77823 0.44128 0.98534 0.0
C247 C 0.75547 0.47921 0.97857 0.0
C248 C 0.82515 0.44463 0.99125 0.0
C249 C 0.85092 0.48585 0.98951 0.0
H250 H 0.76002 0.40859 0.98496 0.0
H251 H 0.84147 0.4147 0.99613 0.0
S252 S 0.80767 0.59559 0.97574 0.0
N253 N 0.76248 0.55966 0.97299 0.0
N254 N 0.8503 0.56565 0.98284 0.0
C255 C 0.82861 0.52398 0.98312 0.0
C256 C 0.78103 0.52072 0.97782 0.0
C257 C 0.78056 0.6024 0.56099 0.0
C258 C 0.80586 0.57562 0.53066 0.0
C259 C 0.73358 0.59529 0.56363 0.0
C260 C 0.70975 0.56119 0.5359 0.0
H261 H 0.79704 0.62962 0.58261 0.0
H262 H 0.71587 0.61736 0.58714 0.0
S263 S 0.76026 0.48029 0.45196 0.0
N264 N 0.80372 0.51254 0.4733 0.0
N265 N 0.71544 0.49908 0.47811 0.0
C266 C 0.73472 0.53338 0.50609 0.0
C267 C 0.78271 0.54058 0.50354 0.0
C268 C 0.0582 0.3052 0.10457 0.0
C269 C 0.08317 0.2775 0.07483 0.0
C270 C 0.04447 0.34557 0.09147 0.0
C271 C 0.05606 0.36041 0.04847 0.0
H272 H 0.04869 0.29539 0.13815 0.0
H273 H 0.02551 0.36581 0.11567 0.0
S274 S 0.12111 0.30042 0.95792 0.0
N275 N 0.11844 0.26758 0.00012 0.0
N276 N 0.09379 0.344 0.976 0.0
C277 C 0.08114 0.33312 0.01843 0.0
C278 C 0.09434 0.29156 0.03144 0.0
C279 C 0.62977 0.24309 0.07701 0.0
C280 C 0.60506 0.27286 0.0556 0.0
C281 C 0.61067 0.20048 0.08589 0.0
C282 C 0.5661 0.1857 0.07352 0.0
H283 H 0.66446 0.25242 0.08649 0.0
H284 H 0.63154 0.17862 0.10163 0.0
S285 S 0.48585 0.25177 0.01928 0.0
N286 N 0.53271 0.28527 0.02421 0.0
N287 N 0.49695 0.20522 0.04079 0.0
C288 C 0.54057 0.21553 0.05315 0.0
C289 C 0.55998 0.25905 0.04424 0.0
C290 C 0.99343 0.75328 0.52134 0.0
C291 C 0.96701 0.73698 0.48354 0.0
C292 C 0.00078 0.79914 0.53392 0.0
C293 C 0.98221 0.83089 0.50919 0.0
H294 H 0.0081 0.73046 0.54204 0.0
H295 H 0.02111 0.80964 0.56357 0.0
S296 S 0.91164 0.80594 0.40626 0.0
N297 N 0.9231 0.75644 0.42056 0.0
N298 N 0.93696 0.84268 0.44421 0.0
C299 C 0.9564 0.81518 0.47071 0.0
C300 C 0.9488 0.7683 0.45791 0.0
C301 C 0.46674 0.77024 0.59692 0.0
C302 C 0.50047 0.8009 0.61692 0.0
C303 C 0.47582 0.72675 0.58113 0.0
C304 C 0.51883 0.71183 0.58542 0.0
H305 H 0.43295 0.77988 0.59324 0.0
H306 H 0.44853 0.70435 0.56634 0.0
S307 S 0.61921 0.77913 0.6347 0.0
N308 N 0.57897 0.81356 0.63939 0.0
N309 N 0.5958 0.73148 0.61045 0.0
C310 C 0.55299 0.74216 0.60517 0.0
C311 C 0.5439 0.78677 0.62066 0.0
C312 C 0.97193 0.93176 0.79868 0.0
C313 C 0.95631 0.96688 0.82762 0.0
C314 C 0.98055 0.9364 0.75235 0.0
C315 C 0.97371 0.97629 0.7329 0.0
H316 H 0.97714 0.9001 0.81171 0.0
H317 H 0.99219 0.90822 0.73157 0.0
S318 S 0.93539 0.07941 0.79418 0.0
N319 N 0.93594 0.0437 0.83351 0.0
N320 N 0.952 0.05236 0.74675 0.0
C321 C 0.95874 0.01197 0.76157 0.0
C322 C 0.95014 0.00731 0.80877 0.0
C323 C 0.57607 0.07494 0.33037 0.0
C324 C 0.56036 0.04052 0.35754 0.0
C325 C 0.56492 0.07303 0.28424 0.0
C326 C 0.53691 0.03708 0.26387 0.0
H327 H 0.59838 0.10285 0.3444 0.0
H328 H 0.57856 0.09982 0.26434 0.0
S329 S 0.48625 0.93892 0.32072 0.0
N330 N 0.51519 0.96963 0.36103 0.0
N331 N 0.49336 0.96642 0.27468 0.0
C332 C 0.52021 0.00289 0.29099 0.0
C333 C 0.53226 0.00446 0.3377 0.0
C334 C 0.50855 0.59687 0.30296 0.0
C335 C 0.54995 0.59642 0.27925 0.0
C336 C 0.50483 0.58677 0.34845 0.0
C337 C 0.54218 0.57497 0.37163 0.0
H338 H 0.47886 0.6058 0.28651 0.0
H339 H 0.47235 0.58785 0.36543 0.0
S340 S 0.65812 0.56823 0.32469 0.0
N341 N 0.62906 0.58309 0.2823 0.0
N342 N 0.622 0.56345 0.36745 0.0
C343 C 0.5837 0.57392 0.34815 0.0
C344 C 0.58761 0.58485 0.30208 0.0
C345 C 0.05701 0.52905 0.77008 0.0
C346 C 0.08848 0.50037 0.75163 0.0
C347 C 0.04352 0.52894 0.8158 0.0
C348 C 0.06162 0.5007 0.84511 0.0
H349 H 0.04234 0.55146 0.74888 0.0
H350 H 0.01923 0.55185 0.82835 0.0
S351 S 0.14715 0.42077 0.81327 0.0
N352 N 0.13864 0.44404 0.76587 0.0
N353 N 0.11355 0.44367 0.85193 0.0
C354 C 0.09353 0.47204 0.82693 0.0
C355 C 0.10689 0.47192 0.78018 0.0
C356 C 0.72398 0.94232 0.00411 0.0
C357 C 0.76208 0.96809 0.02236 0.0
C358 C 0.68051 0.94994 0.0197 0.0
C359 C 0.67305 0.98368 0.05433 0.0
H360 H 0.72747 0.91668 0.97657 0.0
H361 H 0.65248 0.92971 0.00351 0.0
S362 S 0.76169 0.05788 0.11672 0.0
N363 N 0.78977 0.02677 0.07936 0.0
N364 N 0.70799 0.04113 0.10875 0.0
C365 C 0.71097 0.00847 0.0744 0.0
C366 C 0.75543 0.00066 0.05843 0.0
C367 C 0.78095 0.02762 0.48704 0.0
C368 C 0.7492 0.01394 0.52007 0.0
C369 C 0.82726 0.0261 0.49373 0.0
C370 C 0.84324 0.01248 0.53437 0.0
H371 H 0.76986 0.03886 0.45555 0.0
H372 H 0.85074 0.0363 0.4673 0.0
S373 S 0.77392 0.97447 0.63172 0.0
N374 N 0.73686 0.98613 0.59459 0.0
N375 N 0.82395 0.98532 0.60807 0.0
C376 C 0.81187 -0.0006 0.56788 0.0
C377 C 0.76478 -0.00042 0.56047 0.0
C378 C 0.24661 0.63304 0.07249 0.0
C379 C 0.28165 0.61023 0.05146 0.0
C380 C 0.2015 0.61626 0.06743 0.0
C381 C 0.18939 0.57601 0.04093 0.0
H382 H 0.254 0.66399 0.09351 0.0
H383 H 0.17596 0.63517 0.08455 0.0
S384 S 0.26842 0.50411 0.97724 0.0
N385 N 0.3012 0.54574 0.00217 0.0
N386 N 0.21654 0.51419 0.9925 0.0
C387 C 0.22415 0.55302 0.0193 0.0
C388 C 0.27016 0.57011 0.02459 0.0
C389 C 0.29054 0.4944 0.58635 0.0
C390 C 0.26557 0.52789 0.57172 0.0
C391 C 0.33709 0.49493 0.57805 0.0
C392 C 0.36043 0.52864 0.55424 0.0
H393 H 0.27424 0.46809 0.6053 0.0
H394 H 0.35491 0.46889 0.59084 0.0
S395 S 0.30958 0.62226 0.5057 0.0
N396 N 0.26701 0.59443 0.53039 0.0
N397 N 0.35409 0.59538 0.51429 0.0
C398 C 0.33542 0.56158 0.53818 0.0
C399 C 0.28816 0.56125 0.54709 0.0
C400 C 0.99876 0.76544 0.01556 0.0
C401 C 0.96207 0.7733 0.98893 0.0
C402 C 0.00979 0.72184 0.02073 0.0
C403 C 0.98501 0.68442 0.99886 0.0
H404 H 0.01908 0.79318 0.03278 0.0
H405 H 0.03834 0.71751 0.04155 0.0
S406 S 0.88562 0.68679 0.92533 0.0
N407 N 0.90073 0.73987 0.94068 0.0
N408 N 0.92158 0.6582 0.94993 0.0
C409 C 0.94817 0.69184 0.97214 0.0
C410 C 0.93666 0.73616 0.96733 0.0
C411 C 0.47459 0.77464 0.08292 0.0
C412 C 0.49049 0.76262 0.12427 0.0
C413 C 0.46849 0.81935 0.0768 0.0
C414 C 0.47656 0.85305 0.11237 0.0
H415 H 0.46938 0.74979 0.05433 0.0
H416 H 0.45887 0.82787 0.04363 0.0
S417 S 0.51456 0.83789 0.22844 0.0
N418 N 0.51193 0.78719 0.20192 0.0
N419 N 0.49851 0.87099 0.19113 0.0
C420 C 0.48971 0.84092 0.15473 0.0
C421 C 0.49725 0.79569 0.16049 0.0
C422 C 0.08958 0.23725 0.60588 0.0
C423 C 0.06805 0.25878 0.64334 0.0
C424 C 0.07829 0.19212 0.59226 0.0
C425 C 0.0447 0.16661 0.61525 0.0
H426 H 0.11551 0.25532 0.58674 0.0
H427 H 0.0959 0.17724 0.56316 0.0
S428 S 0.9789 0.20641 0.71639 0.0
N429 N 0.01202 0.25073 0.70395 0.0
N430 N 0.99066 0.1658 0.6781 0.0
C431 C 0.0229 0.18753 0.6529 0.0
C432 C 0.03466 0.23357 0.66705 0.0
C433 C 0.5148 0.2954 0.51097 0.0
C434 C 0.53385 0.27942 0.46935 0.0
C435 C 0.51368 0.34132 0.52297 0.0
C436 C 0.5318 0.37327 0.49397 0.0
H437 H 0.5011 0.27231 0.53495 0.0
H438 H 0.49934 0.35178 0.55573 0.0
S439 S 0.58279 0.34913 0.37957 0.0
N440 N 0.56925 0.29942 0.39799 0.0
N441 N 0.56723 0.38555 0.42048 0.0
C442 C 0.54993 0.35778 0.45168 0.0
C443 C 0.5509 0.31097 0.43938 0.0
loop_
_geom_bond_atom_site_label_1
_geom_bond_atom_site_label_2
_geom_bond_distance
_geom_bond_site_symmetry_2
_ccdc_geom_bond_type
O0 Cd1 2.300 . S
O0 C7 1.275 . S
Cd1 O0 2.300 . S
Cd1 O9 2.381 . S
Cd1 O10 2.378 . S
O2 Cd3 2.385 . S
O2 C7 1.255 . S
Cd3 O2 2.385 . S
Cd3 O4 2.317 . S
O4 Cd3 2.317 . S
O4 C5 1.232 . S
C5 O4 1.232 . S
C5 O6 1.218 . S
O6 C5 1.218 . S
C7 O0 1.275 . S
C7 O2 1.255 . S
C8 O9 1.258 . S
C8 O10 1.256 . S
O9 Cd1 2.381 . S
O9 C8 1.258 . S
O10 Cd1 2.378 . S
O10 C8 1.256 . S
O11 Cd12 2.300 . S
O11 C18 1.275 . S
Cd12 O11 2.300 . S
Cd12 O20 2.381 . S
Cd12 O21 2.378 . S
O13 Cd14 2.385 . S
O13 C18 1.255 . S
Cd14 O13 2.385 . S
Cd14 O15 2.317 . S
O15 Cd14 2.317 . S
O15 C16 1.232 . S
C16 O15 1.232 . S
C16 O17 1.218 . S
O17 C16 1.218 . S
C18 O11 1.275 . S
C18 O13 1.255 . S
C19 O20 1.258 . S
C19 O21 1.256 . S
O20 Cd12 2.381 . S
O20 C19 1.258 . S
O21 Cd12 2.378 . S
O21 C19 1.256 . S
O22 Cd23 2.300 . S
O22 C29 1.275 . S
Cd23 O22 2.300 . S
Cd23 O31 2.381 . S
Cd23 O32 2.378 . S
O24 Cd25 2.385 . S
O24 C29 1.255 . S
Cd25 O24 2.385 . S
Cd25 O26 2.317 . S
O26 Cd25 2.317 . S
O26 C27 1.232 . S
C27 O26 1.232 . S
C27 O28 1.218 1_556 S
O28 C27 1.218 1_554 S
C29 O22 1.275 . S
C29 O24 1.255 . S
C30 O31 1.258 . S
C30 O32 1.256 . S
O31 Cd23 2.381 . S
O31 C30 1.258 . S
O32 Cd23 2.378 . S
O32 C30 1.256 . S
O33 Cd34 2.300 . S
O33 C40 1.275 . S
Cd34 O33 2.300 . S
Cd34 O42 2.381 . S
Cd34 O43 2.378 . S
O35 Cd36 2.385 . S
O35 C40 1.255 . S
Cd36 O35 2.385 . S
Cd36 O37 2.317 . S
O37 Cd36 2.317 . S
O37 C38 1.232 . S
C38 O37 1.232 . S
C38 O39 1.218 . S
O39 C38 1.218 . S
C40 O33 1.275 . S
C40 O35 1.255 . S
C41 O42 1.258 . S
C41 O43 1.256 . S
O42 Cd34 2.381 . S
O42 C41 1.258 . S
O43 Cd34 2.378 . S
O43 C41 1.256 . S
O44 Cd45 2.300 . S
O44 C51 1.275 . S
Cd45 O44 2.300 . S
Cd45 O53 2.381 . S
Cd45 O54 2.378 1_556 S
O46 Cd47 2.385 1_556 S
O46 C51 1.255 1_545 S
Cd47 O46 2.385 1_554 S
Cd47 O48 2.326 . S
O48 Cd47 2.326 . S
O48 C49 1.241 . S
C49 O48 1.241 . S
C49 O50 1.218 1_554 S
O50 C49 1.218 1_556 S
C51 O44 1.275 . S
C51 O46 1.255 1_565 S
C52 O53 1.258 . S
C52 O54 1.256 1_556 S
O53 Cd45 2.381 . S
O53 C52 1.258 . S
O54 Cd45 2.378 1_554 S
O54 C52 1.256 1_554 S
O55 Cd56 2.300 . S
O55 C62 1.275 . S
Cd56 O55 2.300 . S
Cd56 O64 2.381 . S
Cd56 O65 2.378 . S
O57 Cd58 2.385 . S
O57 C62 1.255 . S
Cd58 O57 2.385 . S
Cd58 O59 2.317 . S
O59 Cd58 2.317 . S
O59 C60 1.232 . S
C60 O59 1.232 . S
C60 O61 1.218 . S
O61 C60 1.218 . S
C62 O55 1.275 . S
C62 O57 1.255 . S
C63 O64 1.258 . S
C63 O65 1.256 . S
O64 Cd56 2.381 . S
O64 C63 1.258 . S
O65 Cd56 2.378 . S
O65 C63 1.256 . S
O66 Cd67 2.300 . S
O66 C73 1.275 . S
Cd67 O66 2.300 . S
Cd67 O75 2.381 . S
Cd67 O76 2.378 . S
O68 Cd69 2.385 . S
O68 C73 1.255 . S
Cd69 O68 2.385 . S
Cd69 O70 2.317 . S
O70 Cd69 2.317 . S
O70 C71 1.232 . S
C71 O70 1.232 . S
C71 O72 1.218 . S
O72 C71 1.218 . S
C73 O66 1.275 . S
C73 O68 1.255 . S
C74 O75 1.258 . S
C74 O76 1.256 . S
O75 Cd67 2.381 . S
O75 C74 1.258 . S
O76 Cd67 2.378 . S
O76 C74 1.256 . S
O77 Cd78 2.300 . S
O77 C84 1.275 . S
Cd78 O77 2.300 . S
Cd78 O86 2.381 . S
Cd78 O87 2.378 . S
O79 Cd80 2.385 . S
O79 C84 1.255 . S
Cd80 O79 2.385 . S
Cd80 O81 2.317 . S
O81 Cd80 2.317 . S
O81 C82 1.232 . S
C82 O81 1.232 . S
C82 O83 1.218 . S
O83 C82 1.218 . S
C84 O77 1.275 . S
C84 O79 1.255 . S
C85 O86 1.258 . S
C85 O87 1.256 . S
O86 Cd78 2.381 . S
O86 C85 1.258 . S
O87 Cd78 2.378 . S
O87 C85 1.256 . S
O88 Zn89 1.953 . S
O88 C104 1.225 1_655 S
Zn89 O88 1.953 . S
Zn89 O90 1.949 1_655 S
Zn89 O96 1.919 . S
Zn89 O101 1.924 . S
O90 Zn89 1.949 1_455 S
O90 Zn91 1.923 1_445 S
O90 Zn92 1.950 . S
O90 Zn93 1.945 1_545 S
Zn91 O90 1.923 1_665 S
Zn91 O94 1.933 . S
Zn91 O97 1.941 1_565 S
Zn91 O98 1.965 1_665 S
Zn92 O90 1.950 . S
Zn92 O99 1.938 . S
Zn92 O100 1.906 . S
Zn92 O110 1.953 . S
Zn93 O90 1.945 1_565 S
Zn93 O95 1.932 1_455 S
Zn93 O102 1.977 . S
Zn93 O103 1.910 1_455 S
O94 Zn91 1.933 . S
O94 C105 1.226 . S
O95 Zn93 1.932 1_655 S
O95 C105 1.307 . S
O96 Zn89 1.919 . S
O96 C107 1.253 . S
O97 Zn91 1.941 1_545 S
O97 C107 1.283 . S
O98 Zn91 1.965 1_445 S
O98 C106 1.303 . S
O99 Zn92 1.938 . S
O99 C106 1.247 . S
O100 Zn92 1.906 . S
O100 C108 1.304 1_545 S
O101 Zn89 1.924 . S
O101 C109 1.311 . S
O102 Zn93 1.977 . S
O102 C108 1.272 . S
O103 Zn93 1.910 1_655 S
O103 C109 1.231 1_565 S
C104 O88 1.225 1_455 S
C104 O110 1.298 . S
C105 O94 1.226 . S
C105 O95 1.307 . S
C106 O98 1.303 . S
C106 O99 1.247 . S
C107 O96 1.253 . S
C107 O97 1.283 . S
C108 O100 1.304 1_565 S
C108 O102 1.272 . S
C109 O101 1.311 . S
C109 O103 1.231 1_545 S
O110 Zn92 1.953 . S
O110 C104 1.298 . S
O111 Zn112 1.953 . S
O111 C127 1.225 . S
Zn112 O111 1.953 . S
Zn112 O113 1.949 . S
Zn112 O119 1.919 1_554 S
Zn112 O124 1.924 . S
O113 Zn112 1.949 . S
O113 Zn114 1.923 1_545 S
O113 Zn115 1.950 . S
O113 Zn116 1.945 . S
Zn114 O113 1.923 1_565 S
Zn114 O117 1.933 . S
Zn114 O120 1.941 1_554 S
Zn114 O121 1.965 . S
Zn115 O113 1.950 . S
Zn115 O122 1.938 . S
Zn115 O123 1.906 . S
Zn115 O133 1.953 . S
Zn116 O113 1.945 . S
Zn116 O118 1.932 1_545 S
Zn116 O125 1.977 . S
Zn116 O126 1.910 . S
O117 Zn114 1.933 . S
O117 C128 1.226 . S
O118 Zn116 1.932 1_565 S
O118 C128 1.307 . S
O119 Zn112 1.919 1_556 S
O119 C130 1.253 1_545 S
O120 Zn114 1.941 1_556 S
O120 C130 1.283 . S
O121 Zn114 1.965 . S
O121 C129 1.303 1_565 S
O122 Zn115 1.938 . S
O122 C129 1.247 . S
O123 Zn115 1.906 . S
O123 C131 1.304 . S
O124 Zn112 1.924 . S
O124 C132 1.311 . S
O125 Zn116 1.977 . S
O125 C131 1.272 . S
O126 Zn116 1.910 . S
O126 C132 1.231 . S
C127 O111 1.225 . S
C127 O133 1.298 . S
C128 O117 1.226 . S
C128 O118 1.307 . S
C129 O121 1.303 1_545 S
C129 O122 1.247 . S
C130 O119 1.253 1_565 S
C130 O120 1.283 . S
C131 O123 1.304 . S
C131 O125 1.272 . S
C132 O124 1.311 . S
C132 O126 1.231 . S
O133 Zn115 1.953 . S
O133 C127 1.298 . S
O134 Zn135 1.953 . S
O134 C150 1.225 . S
Zn135 O134 1.953 . S
Zn135 O136 1.949 . S
Zn135 O142 1.919 . S
Zn135 O147 1.924 . S
O136 Zn135 1.949 . S
O136 Zn137 1.923 . S
O136 Zn138 1.950 . S
O136 Zn139 1.945 . S
Zn137 O136 1.923 . S
Zn137 O140 1.933 . S
Zn137 O143 1.941 . S
Zn137 O144 1.965 . S
Zn138 O136 1.950 . S
Zn138 O145 1.938 . S
Zn138 O146 1.906 . S
Zn138 O156 1.953 . S
Zn139 O136 1.945 . S
Zn139 O141 1.932 . S
Zn139 O148 1.977 . S
Zn139 O149 1.910 . S
O140 Zn137 1.933 . S
O140 C151 1.226 . S
O141 Zn139 1.932 . S
O141 C151 1.307 . S
O142 Zn135 1.919 . S
O142 C153 1.253 . S
O143 Zn137 1.941 . S
O143 C153 1.283 . S
O144 Zn137 1.965 . S
O144 C152 1.303 . S
O145 Zn138 1.938 . S
O145 C152 1.247 . S
O146 Zn138 1.906 . S
O146 C154 1.304 . S
O147 Zn135 1.924 . S
O147 C155 1.311 . S
O148 Zn139 1.977 . S
O148 C154 1.272 . S
O149 Zn139 1.910 . S
O149 C155 1.231 . S
C150 O134 1.225 . S
C150 O156 1.298 . S
C151 O140 1.226 . S
C151 O141 1.307 . S
C152 O144 1.303 . S
C152 O145 1.247 . S
C153 O142 1.253 . S
C153 O143 1.283 . S
C154 O146 1.304 . S
C154 O148 1.272 . S
C155 O147 1.311 . S
C155 O149 1.231 . S
O156 Zn138 1.953 . S
O156 C150 1.298 . S
O157 Zn158 1.953 . S
O157 C173 1.225 . S
Zn158 O157 1.953 . S
Zn158 O159 1.949 1_655 S
Zn158 O165 1.919 . S
Zn158 O170 1.924 1_655 S
O159 Zn158 1.949 1_455 S
O159 Zn160 1.923 1_554 S
O159 Zn161 1.950 . S
O159 Zn162 1.945 1_554 S
Zn160 O159 1.923 1_556 S
Zn160 O163 1.933 . S
Zn160 O166 1.941 1_455 S
Zn160 O167 1.965 . S
Zn161 O159 1.950 . S
Zn161 O168 1.938 . S
Zn161 O169 1.906 . S
Zn161 O179 1.953 . S
Zn162 O159 1.945 1_556 S
Zn162 O164 1.932 . S
Zn162 O171 1.977 1_556 S
Zn162 O172 1.910 1_556 S
O163 Zn160 1.933 . S
O163 C174 1.226 . S
O164 Zn162 1.932 . S
O164 C174 1.307 . S
O165 Zn158 1.919 . S
O165 C176 1.253 1_554 S
O166 Zn160 1.941 1_655 S
O166 C176 1.283 . S
O167 Zn160 1.965 . S
O167 C175 1.303 . S
O168 Zn161 1.938 . S
O168 C175 1.247 1_554 S
O169 Zn161 1.906 . S
O169 C177 1.304 . S
O170 Zn158 1.924 1_455 S
O170 C178 1.311 . S
O171 Zn162 1.977 1_554 S
O171 C177 1.272 . S
O172 Zn162 1.910 1_554 S
O172 C178 1.231 . S
C173 O157 1.225 . S
C173 O179 1.298 1_655 S
C174 O163 1.226 . S
C174 O164 1.307 . S
C175 O167 1.303 . S
C175 O168 1.247 1_556 S
C176 O165 1.253 1_556 S
C176 O166 1.283 . S
C177 O169 1.304 . S
C177 O171 1.272 . S
C178 O170 1.311 . S
C178 O172 1.231 . S
O179 Zn161 1.953 . S
O179 C173 1.298 1_455 S
C180 C181 1.369 . S
C180 C182 1.419 . S
C180 H184 0.930 . S
C181 C180 1.369 . S
C181 C190 1.429 . S
C182 C180 1.419 . S
C182 C183 1.363 . S
C182 H185 0.929 . S
C183 C182 1.363 . S
C183 C189 1.428 . S
H184 C180 0.930 . S
H185 C182 0.929 . S
S186 N187 1.613 . S
S186 N188 1.610 . S
N187 S186 1.613 . S
N187 C190 1.350 . S
N188 S186 1.610 . S
N188 C189 1.351 . S
C189 C183 1.428 . S
C189 N188 1.351 . S
C189 C190 1.434 . S
C190 C181 1.429 . S
C190 N187 1.350 . S
C190 C189 1.434 . S
C191 C192 1.369 . S
C191 C193 1.419 . S
C191 H195 0.930 . S
C192 C191 1.369 . S
C192 C201 1.429 . S
C193 C191 1.419 . S
C193 C194 1.363 . S
C193 H196 0.929 . S
C194 C193 1.363 . S
C194 C200 1.428 . S
H195 C191 0.930 . S
H196 C193 0.929 . S
S197 N198 1.613 . S
S197 N199 1.610 . S
N198 S197 1.613 . S
N198 C201 1.350 1_545 S
N199 S197 1.610 . S
N199 C200 1.351 1_545 S
C200 C194 1.428 . S
C200 N199 1.351 1_565 S
C200 C201 1.434 . S
C201 C192 1.429 . S
C201 N198 1.350 1_565 S
C201 C200 1.434 . S
C202 C203 1.369 . S
C202 C204 1.419 . S
C202 H206 0.930 . S
C203 C202 1.369 . S
C203 C212 1.429 . S
C204 C202 1.419 . S
C204 C205 1.363 . S
C204 H207 0.929 . S
C205 C204 1.363 . S
C205 C211 1.428 . S
H206 C202 0.930 . S
H207 C204 0.929 . S
S208 N209 1.613 . S
S208 N210 1.610 . S
N209 S208 1.613 . S
N209 C212 1.350 . S
N210 S208 1.610 . S
N210 C211 1.351 . S
C211 C205 1.428 . S
C211 N210 1.351 . S
C211 C212 1.434 . S
C212 C203 1.429 . S
C212 N209 1.350 . S
C212 C211 1.434 . S
C213 C214 1.369 . S
C213 C215 1.419 . S
C213 H217 0.930 . S
C214 C213 1.369 . S
C214 C223 1.429 1_655 S
C215 C213 1.419 . S
C215 C216 1.363 . S
C215 H218 0.929 . S
C216 C215 1.363 . S
C216 C222 1.428 1_655 S
H217 C213 0.930 . S
H218 C215 0.929 . S
S219 N220 1.613 . S
S219 N221 1.610 . S
N220 S219 1.613 . S
N220 C223 1.350 . S
N221 S219 1.610 . S
N221 C222 1.351 . S
C222 C216 1.428 1_455 S
C222 N221 1.351 . S
C222 C223 1.434 . S
C223 C214 1.429 1_455 S
C223 N220 1.350 . S
C223 C222 1.434 . S
C224 C225 1.369 . S
C224 C226 1.419 . S
C224 H228 0.930 . S
C225 C224 1.369 . S
C225 C234 1.429 . S
C226 C224 1.419 . S
C226 C227 1.363 . S
C226 H229 0.929 . S
C227 C226 1.363 . S
C227 C233 1.428 . S
H228 C224 0.930 . S
H229 C226 0.929 . S
S230 N231 1.613 . S
S230 N232 1.610 . S
N231 S230 1.613 . S
N231 C234 1.350 . S
N232 S230 1.610 . S
N232 C233 1.351 . S
C233 C227 1.428 . S
C233 N232 1.351 . S
C233 C234 1.434 . S
C234 C225 1.429 . S
C234 N231 1.350 . S
C234 C233 1.434 . S
C235 C236 1.369 . S
C235 C237 1.419 . S
C235 H239 0.930 . S
C236 C235 1.369 . S
C236 C245 1.429 . S
C237 C235 1.419 . S
C237 C238 1.363 . S
C237 H240 0.929 . S
C238 C237 1.363 . S
C238 C244 1.428 . S
H239 C235 0.930 . S
H240 C237 0.929 . S
S241 N242 1.613 . S
S241 N243 1.610 . S
N242 S241 1.613 . S
N242 C245 1.350 . S
N243 S241 1.610 . S
N243 C244 1.351 . S
C244 C238 1.428 . S
C244 N243 1.351 . S
C244 C245 1.434 . S
C245 C236 1.429 . S
C245 N242 1.350 . S
C245 C244 1.434 . S
C246 C247 1.369 . S
C246 C248 1.419 . S
C246 H250 0.930 . S
C247 C246 1.369 . S
C247 C256 1.429 . S
C248 C246 1.419 . S
C248 C249 1.363 . S
C248 H251 0.929 . S
C249 C248 1.363 . S
C249 C255 1.428 . S
H250 C246 0.930 . S
H251 C248 0.929 . S
S252 N253 1.613 . S
S252 N254 1.610 . S
N253 S252 1.613 . S
N253 C256 1.350 1_554 S
N254 S252 1.610 . S
N254 C255 1.351 1_554 S
C255 C249 1.428 . S
C255 N254 1.351 1_556 S
C255 C256 1.434 . S
C256 C247 1.429 . S
C256 N253 1.350 1_556 S
C256 C255 1.434 . S
C257 C258 1.369 . S
C257 C259 1.419 . S
C257 H261 0.930 . S
C258 C257 1.369 . S
C258 C267 1.429 . S
C259 C257 1.419 . S
C259 C260 1.363 . S
C259 H262 0.929 . S
C260 C259 1.363 . S
C260 C266 1.428 . S
H261 C257 0.930 . S
H262 C259 0.929 . S
S263 N264 1.613 . S
S263 N265 1.610 . S
N264 S263 1.613 . S
N264 C267 1.350 . S
N265 S263 1.610 . S
N265 C266 1.351 . S
C266 C260 1.428 . S
C266 N265 1.351 . S
C266 C267 1.434 . S
C267 C258 1.429 . S
C267 N264 1.350 . S
C267 C266 1.434 . S
C268 C269 1.369 . S
C268 C270 1.419 . S
C268 H272 0.930 . S
C269 C268 1.369 . S
C269 C278 1.429 . S
C270 C268 1.419 . S
C270 C271 1.363 . S
C270 H273 0.929 . S
C271 C270 1.363 . S
C271 C277 1.428 . S
H272 C268 0.930 . S
H273 C270 0.929 . S
S274 N275 1.613 1_556 S
S274 N276 1.610 1_556 S
N275 S274 1.613 1_554 S
N275 C278 1.350 . S
N276 S274 1.610 1_554 S
N276 C277 1.351 . S
C277 C271 1.428 . S
C277 N276 1.351 . S
C277 C278 1.434 . S
C278 C269 1.429 . S
C278 N275 1.350 . S
C278 C277 1.434 . S
C279 C280 1.369 . S
C279 C281 1.419 . S
C279 H283 0.930 . S
C280 C279 1.369 . S
C280 C289 1.429 . S
C281 C279 1.419 . S
C281 C282 1.363 . S
C281 H284 0.929 . S
C282 C281 1.363 . S
C282 C288 1.428 . S
H283 C279 0.930 . S
H284 C281 0.929 . S
S285 N286 1.613 . S
S285 N287 1.610 . S
N286 S285 1.613 . S
N286 C289 1.350 . S
N287 S285 1.610 . S
N287 C288 1.351 . S
C288 C282 1.428 . S
C288 N287 1.351 . S
C288 C289 1.434 . S
C289 C280 1.429 . S
C289 N286 1.350 . S
C289 C288 1.434 . S
C290 C291 1.369 . S
C290 C292 1.419 . S
C290 H294 0.940 . S
C291 C290 1.369 . S
C291 C300 1.429 . S
C292 C290 1.419 . S
C292 C293 1.363 . S
C292 H295 0.929 1_655 S
C293 C292 1.363 . S
C293 C299 1.428 . S
H294 C290 0.940 . S
H295 C292 0.929 1_455 S
S296 N297 1.613 . S
S296 N298 1.610 . S
N297 S296 1.613 . S
N297 C300 1.350 . S
N298 S296 1.610 . S
N298 C299 1.351 . S
C299 C293 1.428 . S
C299 N298 1.351 . S
C299 C300 1.434 . S
C300 C291 1.429 . S
C300 N297 1.350 . S
C300 C299 1.434 . S
C301 C302 1.369 . S
C301 C303 1.419 . S
C301 H305 0.930 . S
C302 C301 1.369 . S
C302 C311 1.429 . S
C303 C301 1.419 . S
C303 C304 1.363 . S
C303 H306 0.929 . S
C304 C303 1.363 . S
C304 C310 1.428 . S
H305 C301 0.930 . S
H306 C303 0.929 . S
S307 N308 1.613 . S
S307 N309 1.610 . S
N308 S307 1.613 . S
N308 C311 1.350 . S
N309 S307 1.610 . S
N309 C310 1.351 . S
C310 C304 1.428 . S
C310 N309 1.351 . S
C310 C311 1.434 . S
C311 C302 1.429 . S
C311 N308 1.350 . S
C311 C310 1.434 . S
C312 C313 1.369 . S
C312 C314 1.418 . S
C312 H316 0.930 1_655 S
C313 C312 1.369 . S
C313 C322 1.429 . S
C314 C312 1.418 . S
C314 C315 1.364 1_565 S
C314 H317 0.929 1_665 S
C315 C314 1.364 1_545 S
C315 C321 1.428 . S
H316 C312 0.930 1_455 S
H317 C314 0.929 1_445 S
S318 N319 1.613 . S
S318 N320 1.610 1_565 S
N319 S318 1.613 . S
N319 C322 1.350 . S
N320 S318 1.610 1_545 S
N320 C321 1.351 . S
C321 C315 1.428 . S
C321 N320 1.351 . S
C321 C322 1.434 1_545 S
C322 C313 1.429 . S
C322 N319 1.350 . S
C322 C321 1.434 1_565 S
C323 C324 1.369 . S
C323 C325 1.419 . S
C323 H327 0.930 . S
C324 C323 1.369 . S
C324 C333 1.429 . S
C325 C323 1.419 . S
C325 C326 1.363 . S
C325 H328 0.929 . S
C326 C325 1.363 . S
C326 C332 1.428 . S
H327 C323 0.930 . S
H328 C325 0.929 . S
S329 N330 1.613 . S
S329 N331 1.610 . S
N330 S329 1.613 . S
N330 C333 1.350 . S
N331 S329 1.610 . S
N331 C332 1.351 . S
C332 C326 1.428 . S
C332 N331 1.351 . S
C332 C333 1.434 . S
C333 C324 1.429 . S
C333 N330 1.350 . S
C333 C332 1.434 . S
C334 C335 1.369 . S
C334 C336 1.419 . S
C334 H338 0.930 . S
C335 C334 1.369 . S
C335 C344 1.429 . S
C336 C334 1.419 . S
C336 C337 1.363 . S
C336 H339 0.929 . S
C337 C336 1.363 . S
C337 C343 1.428 . S
H338 C334 0.930 . S
H339 C336 0.929 . S
S340 N341 1.613 . S
S340 N342 1.610 . S
N341 S340 1.613 . S
N341 C344 1.350 . S
N342 S340 1.610 . S
N342 C343 1.351 . S
C343 C337 1.428 . S
C343 N342 1.351 . S
C343 C344 1.434 . S
C344 C335 1.429 . S
C344 N341 1.350 . S
C344 C343 1.434 . S
C345 C346 1.369 . S
C345 C347 1.419 . S
C345 H349 0.930 . S
C346 C345 1.369 . S
C346 C355 1.429 . S
C347 C345 1.419 . S
C347 C348 1.363 . S
C347 H350 0.929 . S
C348 C347 1.363 . S
C348 C354 1.428 . S
H349 C345 0.930 . S
H350 C347 0.929 . S
S351 N352 1.613 . S
S351 N353 1.610 . S
N352 S351 1.613 . S
N352 C355 1.350 . S
N353 S351 1.610 . S
N353 C354 1.351 . S
C354 C348 1.428 . S
C354 N353 1.351 . S
C354 C355 1.434 . S
C355 C346 1.429 . S
C355 N352 1.350 . S
C355 C354 1.434 . S
C356 C357 1.369 1_556 S
C356 C358 1.419 . S
C356 H360 0.930 . S
C357 C356 1.369 1_554 S
C357 C366 1.429 . S
C358 C356 1.419 . S
C358 C359 1.363 1_556 S
C358 H361 0.929 . S
C359 C358 1.363 1_554 S
C359 C365 1.428 . S
H360 C356 0.930 . S
H361 C358 0.929 . S
S362 N363 1.613 . S
S362 N364 1.610 . S
N363 S362 1.613 . S
N363 C366 1.350 . S
N364 S362 1.610 . S
N364 C365 1.351 . S
C365 C359 1.428 . S
C365 N364 1.351 . S
C365 C366 1.434 . S
C366 C357 1.429 . S
C366 N363 1.350 . S
C366 C365 1.434 . S
C367 C368 1.369 . S
C367 C369 1.419 . S
C367 H371 0.930 . S
C368 C367 1.369 . S
C368 C377 1.429 . S
C369 C367 1.419 . S
C369 C370 1.363 . S
C369 H372 0.929 . S
C370 C369 1.363 . S
C370 C376 1.428 . S
H371 C367 0.930 . S
H372 C369 0.929 . S
S373 N374 1.613 . S
S373 N375 1.610 . S
N374 S373 1.613 . S
N374 C377 1.350 . S
N375 S373 1.610 . S
N375 C376 1.351 . S
C376 C370 1.428 . S
C376 N375 1.351 . S
C376 C377 1.434 . S
C377 C368 1.429 . S
C377 N374 1.350 . S
C377 C376 1.434 . S
C378 C379 1.369 . S
C378 C380 1.419 . S
C378 H382 0.930 . S
C379 C378 1.369 . S
C379 C388 1.429 . S
C380 C378 1.419 . S
C380 C381 1.363 . S
C380 H383 0.929 . S
C381 C380 1.363 . S
C381 C387 1.428 1_554 S
H382 C378 0.930 . S
H383 C380 0.929 . S
S384 N385 1.613 . S
S384 N386 1.610 . S
N385 S384 1.613 . S
N385 C388 1.350 1_556 S
N386 S384 1.610 . S
N386 C387 1.351 . S
C387 C381 1.428 1_556 S
C387 N386 1.351 . S
C387 C388 1.434 1_556 S
C388 C379 1.429 . S
C388 N385 1.350 1_554 S
C388 C387 1.434 1_554 S
C389 C390 1.369 . S
C389 C391 1.419 . S
C389 H393 0.930 . S
C390 C389 1.369 . S
C390 C399 1.429 . S
C391 C389 1.419 . S
C391 C392 1.363 . S
C391 H394 0.929 . S
C392 C391 1.363 . S
C392 C398 1.428 . S
H393 C389 0.930 . S
H394 C391 0.929 . S
S395 N396 1.613 . S
S395 N397 1.610 . S
N396 S395 1.613 . S
N396 C399 1.350 . S
N397 S395 1.610 . S
N397 C398 1.351 . S
C398 C392 1.428 . S
C398 N397 1.351 . S
C398 C399 1.434 . S
C399 C390 1.429 . S
C399 N396 1.350 . S
C399 C398 1.434 . S
C400 C401 1.366 1_554 S
C400 C402 1.419 . S
C400 H404 0.930 . S
C401 C400 1.366 1_556 S
C401 C410 1.432 . S
C402 C400 1.419 . S
C402 C403 1.363 1_554 S
C402 H405 0.929 . S
C403 C402 1.363 1_556 S
C403 C409 1.428 . S
H404 C400 0.930 . S
H405 C402 0.929 . S
S406 N407 1.613 . S
S406 N408 1.610 . S
N407 S406 1.613 . S
N407 C410 1.350 . S
N408 S406 1.610 . S
N408 C409 1.351 . S
C409 C403 1.428 . S
C409 N408 1.351 . S
C409 C410 1.434 . S
C410 C401 1.432 . S
C410 N407 1.350 . S
C410 C409 1.434 . S
C411 C412 1.369 . S
C411 C413 1.419 . S
C411 H415 0.930 . S
C412 C411 1.369 . S
C412 C421 1.429 . S
C413 C411 1.419 . S
C413 C414 1.363 . S
C413 H416 0.929 . S
C414 C413 1.363 . S
C414 C420 1.428 . S
H415 C411 0.930 . S
H416 C413 0.929 . S
S417 N418 1.613 . S
S417 N419 1.610 . S
N418 S417 1.613 . S
N418 C421 1.350 . S
N419 S417 1.610 . S
N419 C420 1.351 . S
C420 C414 1.428 . S
C420 N419 1.351 . S
C420 C421 1.434 . S
C421 C412 1.429 . S
C421 N418 1.350 . S
C421 C420 1.434 . S
C422 C423 1.369 . S
C422 C424 1.419 . S
C422 H426 0.930 . S
C423 C422 1.369 . S
C423 C432 1.429 . S
C424 C422 1.419 . S
C424 C425 1.363 . S
C424 H427 0.929 . S
C425 C424 1.363 . S
C425 C431 1.428 . S
H426 C422 0.930 . S
H427 C424 0.929 . S
S428 N429 1.613 . S
S428 N430 1.610 . S
N429 S428 1.613 . S
N429 C432 1.350 . S
N430 S428 1.610 . S
N430 C431 1.351 . S
C431 C425 1.428 . S
C431 N430 1.351 . S
C431 C432 1.434 . S
C432 C423 1.429 . S
C432 N429 1.350 . S
C432 C431 1.434 . S
C433 C434 1.369 . S
C433 C435 1.419 . S
C433 H437 0.930 . S
C434 C433 1.369 . S
C434 C443 1.429 . S
C435 C433 1.419 . S
C435 C436 1.363 . S
C435 H438 0.929 . S
C436 C435 1.363 . S
C436 C442 1.428 . S
H437 C433 0.930 . S
H438 C435 0.929 . S
S439 N440 1.613 . S
S439 N441 1.610 . S
N440 S439 1.613 . S
N440 C443 1.350 . S
N441 S439 1.610 . S
N441 C442 1.351 . S
C442 C436 1.428 . S
C442 N441 1.351 . S
C442 C443 1.434 . S
C443 C434 1.429 . S
C443 N440 1.350 . S
C443 C442 1.434 . S
C181 C5 1.701 . S
C183 C106 1.780 . S
C192 C18 1.557 . S
C194 C130 1.614 . S
C205 C150 1.326 . S
C203 C30 1.273 . S
C214 C41 1.308 . S
C216 C173 1.309 . S
C227 C132 1.863 . S
C225 C7 1.850 . S
C238 C108 1.836 . S
C236 C16 1.661 . S
C249 C176 1.655 . S
C247 C29 1.582 . S
C260 C153 1.279 . S
C258 C38 1.330 . S
C269 C8 1.576 . S
C271 C178 1.541 . S
C282 C127 1.747 . S
C280 C27 1.468 1_554 S
C291 C40 1.611 . S
C293 C105 1.620 . S
C302 C19 1.232 . S
C304 C155 1.206 . S
C315 C109 1.701 . S
C313 C51 1.666 . S
C324 C62 1.600 . S
C326 C131 1.709 . S
C335 C74 1.587 . S
C337 C151 1.666 . S
C346 C84 1.451 . S
C348 C174 1.627 . S
C357 C49 1.816 . S
C359 C129 1.827 . S
C370 C107 1.545 . S
C368 C63 1.479 . S
C381 C177 1.455 . S
C379 C71 1.188 . S
C392 C154 1.306 . S
C390 C85 1.285 . S
C401 C52 1.804 . S
C403 C175 1.768 1_655 S
C414 C128 1.822 . S
C412 C73 1.635 . S
C425 C104 1.500 . S
C423 C82 1.059 . S
C434 C60 1.476 . S
C436 C152 1.839 . S
