# Generated by pormake.
# Topology ocu, (6,8)-cn, num edge types: 1
# Building blocks:
#     Node 0, Type 0, BuildingBlock: CUWYAW_clean_sbu_0, # of connection points: 6
#     Node 1, Type 0, BuildingBlock: CUWYAW_clean_sbu_0, # of connection points: 6
#     Node 2, Type 0, BuildingBlock: CUWYAW_clean_sbu_0, # of connection points: 6
#     Node 3, Type 0, BuildingBlock: CUWYAW_clean_sbu_0, # of connection points: 6
#     Node 4, Type 0, BuildingBlock: CUWYAW_clean_sbu_0, # of connection points: 6
#     Node 5, Type 0, BuildingBlock: CUWYAW_clean_sbu_0, # of connection points: 6
#     Node 6, Type 0, BuildingBlock: CUWYAW_clean_sbu_0, # of connection points: 6
#     Node 7, Type 0, BuildingBlock: CUWYAW_clean_sbu_0, # of connection points: 6
#     Node 8, Type 1, BuildingBlock: GIZVER_clean_sbu_0, # of connection points: 8
#     Node 9, Type 1, BuildingBlock: GIZVER_clean_sbu_0, # of connection points: 8
#     Node 10, Type 1, BuildingBlock: GIZVER_clean_sbu_0, # of connection points: 8
#     Node 11, Type 1, BuildingBlock: GIZVER_clean_sbu_0, # of connection points: 8
#     Node 12, Type 1, BuildingBlock: GIZVER_clean_sbu_0, # of connection points: 8
#     Node 13, Type 1, BuildingBlock: GIZVER_clean_sbu_0, # of connection points: 8
#     Edge 14, Type (0, 1), BuildingBlock: XIVTED_clean_linker_0, # of connection points: 2
#     Edge 15, Type (0, 1), BuildingBlock: XIVTED_clean_linker_0, # of connection points: 2
#     Edge 16, Type (0, 1), BuildingBlock: XIVTED_clean_linker_0, # of connection points: 2
#     Edge 17, Type (0, 1), BuildingBlock: XIVTED_clean_linker_0, # of connection points: 2
#     Edge 18, Type (0, 1), BuildingBlock: XIVTED_clean_linker_0, # of connection points: 2
#     Edge 19, Type (0, 1), BuildingBlock: XIVTED_clean_linker_0, # of connection points: 2
#     Edge 20, Type (0, 1), BuildingBlock: XIVTED_clean_linker_0, # of connection points: 2
#     Edge 21, Type (0, 1), BuildingBlock: XIVTED_clean_linker_0, # of connection points: 2
#     Edge 22, Type (0, 1), BuildingBlock: XIVTED_clean_linker_0, # of connection points: 2
#     Edge 23, Type (0, 1), BuildingBlock: XIVTED_clean_linker_0, # of connection points: 2
#     Edge 24, Type (0, 1), BuildingBlock: XIVTED_clean_linker_0, # of connection points: 2
#     Edge 25, Type (0, 1), BuildingBlock: XIVTED_clean_linker_0, # of connection points: 2
#     Edge 26, Type (0, 1), BuildingBlock: XIVTED_clean_linker_0, # of connection points: 2
#     Edge 27, Type (0, 1), BuildingBlock: XIVTED_clean_linker_0, # of connection points: 2
#     Edge 28, Type (0, 1), BuildingBlock: XIVTED_clean_linker_0, # of connection points: 2
#     Edge 29, Type (0, 1), BuildingBlock: XIVTED_clean_linker_0, # of connection points: 2
#     Edge 30, Type (0, 1), BuildingBlock: XIVTED_clean_linker_0, # of connection points: 2
#     Edge 31, Type (0, 1), BuildingBlock: XIVTED_clean_linker_0, # of connection points: 2
#     Edge 32, Type (0, 1), BuildingBlock: XIVTED_clean_linker_0, # of connection points: 2
#     Edge 33, Type (0, 1), BuildingBlock: XIVTED_clean_linker_0, # of connection points: 2
#     Edge 34, Type (0, 1), BuildingBlock: XIVTED_clean_linker_0, # of connection points: 2
#     Edge 35, Type (0, 1), BuildingBlock: XIVTED_clean_linker_0, # of connection points: 2
#     Edge 36, Type (0, 1), BuildingBlock: XIVTED_clean_linker_0, # of connection points: 2
#     Edge 37, Type (0, 1), BuildingBlock: XIVTED_clean_linker_0, # of connection points: 2
#     Edge 38, Type (0, 1), BuildingBlock: XIVTED_clean_linker_0, # of connection points: 2
#     Edge 39, Type (0, 1), BuildingBlock: XIVTED_clean_linker_0, # of connection points: 2
#     Edge 40, Type (0, 1), BuildingBlock: XIVTED_clean_linker_0, # of connection points: 2
#     Edge 41, Type (0, 1), BuildingBlock: XIVTED_clean_linker_0, # of connection points: 2
#     Edge 42, Type (0, 1), BuildingBlock: XIVTED_clean_linker_0, # of connection points: 2
#     Edge 43, Type (0, 1), BuildingBlock: XIVTED_clean_linker_0, # of connection points: 2
#     Edge 44, Type (0, 1), BuildingBlock: XIVTED_clean_linker_0, # of connection points: 2
#     Edge 45, Type (0, 1), BuildingBlock: XIVTED_clean_linker_0, # of connection points: 2
#     Edge 46, Type (0, 1), BuildingBlock: XIVTED_clean_linker_0, # of connection points: 2
#     Edge 47, Type (0, 1), BuildingBlock: XIVTED_clean_linker_0, # of connection points: 2
#     Edge 48, Type (0, 1), BuildingBlock: XIVTED_clean_linker_0, # of connection points: 2
#     Edge 49, Type (0, 1), BuildingBlock: XIVTED_clean_linker_0, # of connection points: 2
#     Edge 50, Type (0, 1), BuildingBlock: XIVTED_clean_linker_0, # of connection points: 2
#     Edge 51, Type (0, 1), BuildingBlock: XIVTED_clean_linker_0, # of connection points: 2
#     Edge 52, Type (0, 1), BuildingBlock: XIVTED_clean_linker_0, # of connection points: 2
#     Edge 53, Type (0, 1), BuildingBlock: XIVTED_clean_linker_0, # of connection points: 2
#     Edge 54, Type (0, 1), BuildingBlock: XIVTED_clean_linker_0, # of connection points: 2
#     Edge 55, Type (0, 1), BuildingBlock: XIVTED_clean_linker_0, # of connection points: 2
#     Edge 56, Type (0, 1), BuildingBlock: XIVTED_clean_linker_0, # of connection points: 2
#     Edge 57, Type (0, 1), BuildingBlock: XIVTED_clean_linker_0, # of connection points: 2
#     Edge 58, Type (0, 1), BuildingBlock: XIVTED_clean_linker_0, # of connection points: 2
#     Edge 59, Type (0, 1), BuildingBlock: XIVTED_clean_linker_0, # of connection points: 2
#     Edge 60, Type (0, 1), BuildingBlock: XIVTED_clean_linker_0, # of connection points: 2
#     Edge 61, Type (0, 1), BuildingBlock: XIVTED_clean_linker_0, # of connection points: 2
# Relax obj value: 0.185
# Max RMSD: 0.246
# Mean RMSD: 0.164
data_MOF--net-ocu--node1-CUWYAW_clean_sbu_0--node2-GIZVER_clean_sbu_0--edge1-XIVTED_clean_linker_0
_symmetry_space_group_name_H-M    P1
_symmetry_Int_Tables_number       1
_symmetry_cell_setting            triclinic
loop_
_symmetry_equiv_pos_as_xyz
'x, y, z'
_cell_length_a     44.375014
_cell_length_b     46.154473
_cell_length_c     31.933197
_cell_angle_alpha  83.3129
_cell_angle_beta   103.0995
_cell_angle_gamma 108.71209
loop_
_atom_site_label
_atom_site_type_symbol
_atom_site_fract_x
_atom_site_fract_y
_atom_site_fract_z
_atom_type_partial_charge
C0 C 0.33502 0.33917 0.40081 0.0
Eu1 Eu 0.31586 0.30978 0.32957 0.0
C2 C 0.3198 0.3482 0.4314 0.0
C3 C 0.32856 0.37916 0.44032 0.0
C4 C 0.31203 0.38876 0.46556 0.0
C5 C 0.28656 0.36748 0.48257 0.0
C6 C 0.27929 0.3362 0.47587 0.0
C7 C 0.29561 0.32664 0.45027 0.0
C8 C 0.35229 0.33382 0.26595 0.0
C9 C 0.25327 0.32955 0.27012 0.0
C10 C 0.26569 0.24822 0.19143 0.0
Eu11 Eu 0.28532 0.27821 0.26224 0.0
C12 C 0.28081 0.23547 0.16499 0.0
C13 C 0.26174 0.21182 0.13767 0.0
C14 C 0.27636 0.19854 0.11398 0.0
C15 C 0.3102 0.20897 0.11728 0.0
C16 C 0.32907 0.23303 0.14431 0.0
C17 C 0.31451 0.24611 0.16807 0.0
C18 C 0.24969 0.25466 0.32679 0.0
C19 C 0.34684 0.25734 0.32193 0.0
O20 O 0.33066 0.31 0.39933 0.0
O21 O 0.33226 0.35269 0.36259 0.0
O22 O 0.3633 0.32648 0.30538 0.0
O23 O 0.32134 0.32607 0.26038 0.0
O24 O 0.27161 0.32944 0.30933 0.0
O25 O 0.25617 0.31223 0.24226 0.0
O26 O 0.27511 0.27798 0.19228 0.0
O27 O 0.26414 0.2351 0.22956 0.0
O28 O 0.23818 0.26214 0.28755 0.0
O29 O 0.28049 0.26204 0.33147 0.0
O30 O 0.32805 0.25687 0.28306 0.0
O31 O 0.34498 0.27564 0.34927 0.0
H32 H 0.3473 0.3961 0.42626 0.0
H33 H 0.31798 0.41307 0.46954 0.0
H34 H 0.26013 0.3192 0.48907 0.0
H35 H 0.28851 0.30252 0.4442 0.0
H36 H 0.23565 0.20335 0.13516 0.0
H37 H 0.26131 0.18003 0.09342 0.0
H38 H 0.35528 0.24108 0.14828 0.0
H39 H 0.32961 0.26417 0.1894 0.0
C40 C 0.83139 0.30011 0.19998 0.0
Eu41 Eu 0.81057 0.2958 0.27085 0.0
C42 C 0.8186 0.3111 0.15682 0.0
C43 C 0.83884 0.32092 0.12698 0.0
C44 C 0.83291 0.34222 0.09399 0.0
C45 C 0.80735 0.35477 0.09183 0.0
C46 C 0.78347 0.33982 0.11606 0.0
C47 C 0.78939 0.31845 0.14904 0.0
C48 C 0.74893 0.25923 0.2707 0.0
C49 C 0.7624 0.33458 0.27373 0.0
C50 C 0.77465 0.28504 0.42356 0.0
Eu51 Eu 0.7937 0.29475 0.35032 0.0
C52 C 0.75188 0.29397 0.44221 0.0
C53 C 0.72706 0.30386 0.41529 0.0
C54 C 0.6977 0.29843 0.42843 0.0
C55 C 0.69258 0.28096 0.46702 0.0
C56 C 0.7208 0.28093 0.49838 0.0
C57 C 0.75009 0.28579 0.48531 0.0
C58 C 0.83909 0.34816 0.33511 0.0
C59 C 0.84299 0.25601 0.34793 0.0
O60 O 0.84305 0.32128 0.22841 0.0
O61 O 0.81306 0.27454 0.21469 0.0
O62 O 0.75756 0.27979 0.24119 0.0
O63 O 0.77315 0.25928 0.30073 0.0
O64 O 0.78666 0.3341 0.25638 0.0
O65 O 0.75666 0.31691 0.30869 0.0
O66 O 0.80099 0.30633 0.41724 0.0
O67 O 0.76117 0.26717 0.39117 0.0
O68 O 0.81272 0.346 0.34771 0.0
O69 O 0.83997 0.3218 0.32882 0.0
O70 O 0.82972 0.26717 0.37282 0.0
O71 O 0.83801 0.26293 0.30616 0.0
H72 H 0.86118 0.315 0.13206 0.0
H73 H 0.8515 0.35221 0.07513 0.0
H74 H 0.76287 0.34803 0.11412 0.0
H75 H 0.77305 0.31055 0.17133 0.0
H76 H 0.72876 0.31205 0.38245 0.0
H77 H 0.6779 0.30315 0.40498 0.0
H78 H 0.71942 0.2719 0.5309 0.0
H79 H 0.76984 0.27977 0.50745 0.0
C80 C 0.82045 0.7671 0.43021 0.0
Eu81 Eu 0.80333 0.77803 0.34793 0.0
C82 C 0.85111 0.76879 0.46069 0.0
C83 C 0.85406 0.74277 0.48649 0.0
C84 C 0.88461 0.74122 0.50785 0.0
C85 C 0.91259 0.76564 0.50347 0.0
C86 C 0.90924 0.79291 0.48141 0.0
C87 C 0.87859 0.79453 0.46037 0.0
C88 C 0.74691 0.74785 0.29418 0.0
C89 C 0.83522 0.7534 0.27937 0.0
C90 C 0.79879 0.82688 0.17778 0.0
Eu91 Eu 0.80145 0.81082 0.25891 0.0
C92 C 0.80088 0.85527 0.15181 0.0
C93 C 0.80657 0.88238 0.17189 0.0
C94 C 0.80263 0.90826 0.14728 0.0
C95 C 0.79255 0.90722 0.10218 0.0
C96 C 0.79118 0.88113 0.08205 0.0
C97 C 0.79497 0.85508 0.10688 0.0
C98 C 0.8483 0.84173 0.32161 0.0
C99 C 0.76871 0.83543 0.32626 0.0
O100 O 0.81625 0.79314 0.41341 0.0
O101 O 0.81136 0.74604 0.40184 0.0
O102 O 0.75465 0.7399 0.33442 0.0
O103 O 0.76873 0.77153 0.28608 0.0
O104 O 0.83299 0.75313 0.32062 0.0
O105 O 0.82287 0.77217 0.25073 0.0
O106 O 0.77289 0.8158 0.19492 0.0
O107 O 0.82558 0.82642 0.20487 0.0
O108 O 0.83207 0.85453 0.29024 0.0
O109 O 0.84047 0.81313 0.31746 0.0
O110 O 0.77041 0.83505 0.28481 0.0
O111 O 0.78118 0.81672 0.35521 0.0
H112 H 0.83307 0.72279 0.48752 0.0
H113 H 0.88654 0.71981 0.52418 0.0
H114 H 0.93046 0.81212 0.47791 0.0
H115 H 0.87668 0.81517 0.44171 0.0
H116 H 0.81172 0.88288 0.20668 0.0
H117 H 0.80391 0.92776 0.16421 0.0
H118 H 0.78418 0.87987 0.04737 0.0
H119 H 0.79128 0.83431 0.09109 0.0
C120 C 0.24378 0.84959 0.30536 0.0
Eu121 Eu 0.27591 0.81418 0.29302 0.0
C122 C 0.25245 0.87912 0.32503 0.0
C123 C 0.23246 0.89794 0.31206 0.0
C124 C 0.23713 0.92314 0.33586 0.0
C125 C 0.26194 0.92982 0.37295 0.0
C126 C 0.28364 0.91242 0.38347 0.0
C127 C 0.27871 0.8871 0.36 0.0
C128 C 0.25494 0.77035 0.23311 0.0
C129 C 0.26034 0.75044 0.35403 0.0
C130 C 0.35587 0.74537 0.29531 0.0
Eu131 Eu 0.31996 0.77802 0.30505 0.0
C132 C 0.35762 0.72895 0.25962 0.0
C133 C 0.38652 0.73765 0.24415 0.0
C134 C 0.38859 0.72339 0.2093 0.0
C135 C 0.36185 0.69996 0.18946 0.0
C136 C 0.33295 0.69096 0.20512 0.0
C137 C 0.33073 0.70553 0.2398 0.0
C138 C 0.33967 0.82251 0.3641 0.0
C139 C 0.33371 0.8382 0.24164 0.0
O140 O 0.25259 0.8498 0.26889 0.0
O141 O 0.24877 0.82712 0.33206 0.0
O142 O 0.25223 0.79771 0.22577 0.0
O143 O 0.26811 0.76746 0.27199 0.0
O144 O 0.25604 0.77782 0.34476 0.0
O145 O 0.28269 0.74397 0.33904 0.0
O146 O 0.3302 0.73439 0.3124 0.0
O147 O 0.36441 0.77513 0.29007 0.0
O148 O 0.34265 0.79532 0.37286 0.0
O149 O 0.32736 0.82463 0.32495 0.0
O150 O 0.33143 0.8087 0.24495 0.0
O151 O 0.31727 0.8477 0.26401 0.0
H152 H 0.21206 0.89209 0.28519 0.0
H153 H 0.21972 0.93583 0.32713 0.0
H154 H 0.30314 0.91715 0.41156 0.0
H155 H 0.2941 0.87258 0.37094 0.0
H156 H 0.40751 0.7556 0.25898 0.0
H157 H 0.41139 0.73031 0.19839 0.0
H158 H 0.31209 0.67287 0.19037 0.0
H159 H 0.30801 0.69852 0.25089 0.0
C160 C 0.37935 0.83256 0.72491 0.0
Eu161 Eu 0.32948 0.80609 0.7607 0.0
C162 C 0.41451 0.84805 0.73837 0.0
C163 C 0.43721 0.8329 0.73746 0.0
C164 C 0.47034 0.84903 0.74333 0.0
C165 C 0.4813 0.88071 0.74947 0.0
C166 C 0.45868 0.89514 0.75381 0.0
C167 C 0.42574 0.87902 0.74833 0.0
C168 C 0.27897 0.75727 0.72735 0.0
C169 C 0.26937 0.83243 0.74995 0.0
C170 C 0.23481 0.74494 0.84851 0.0
Eu171 Eu 0.28553 0.77704 0.8182 0.0
C172 C 0.21535 0.71248 0.85035 0.0
C173 C 0.21444 0.69666 0.89043 0.0
C174 C 0.19296 0.66729 0.89352 0.0
C175 C 0.17169 0.65335 0.85658 0.0
C176 C 0.17406 0.66836 0.8161 0.0
C177 C 0.19587 0.69766 0.81294 0.0
C178 C 0.33559 0.82399 0.8552 0.0
C179 C 0.34726 0.7545 0.83092 0.0
O180 O 0.36888 0.80302 0.73267 0.0
O181 O 0.35966 0.84657 0.73155 0.0
O182 O 0.28951 0.78242 0.70521 0.0
O183 O 0.29588 0.75886 0.76459 0.0
O184 O 0.29874 0.83849 0.7419 0.0
O185 O 0.25818 0.80842 0.77548 0.0
O186 O 0.23324 0.75903 0.81049 0.0
O187 O 0.26413 0.75249 0.87225 0.0
O188 O 0.32177 0.79931 0.876 0.0
O189 O 0.3207 0.82418 0.81659 0.0
O190 O 0.31553 0.74401 0.82876 0.0
O191 O 0.35954 0.78233 0.814 0.0
H192 H 0.42925 0.80894 0.73019 0.0
H193 H 0.4871 0.83703 0.74058 0.0
H194 H 0.46584 0.91953 0.75793 0.0
H195 H 0.40896 0.89141 0.7495 0.0
H196 H 0.22924 0.70756 0.91964 0.0
H197 H 0.19132 0.6565 0.92527 0.0
H198 H 0.15795 0.65805 0.7872 0.0
H199 H 0.19634 0.70914 0.78141 0.0
C200 C 0.33553 0.25628 0.7045 0.0
Eu201 Eu 0.32142 0.28087 0.7652 0.0
C202 C 0.35464 0.23843 0.69151 0.0
C203 C 0.38851 0.24524 0.7055 0.0
C204 C 0.40616 0.23039 0.68865 0.0
C205 C 0.3906 0.20835 0.65703 0.0
C206 C 0.35655 0.20125 0.64389 0.0
C207 C 0.33896 0.21601 0.66084 0.0
C208 C 0.36215 0.32662 0.81616 0.0
C209 C 0.33098 0.24369 0.85895 0.0
C210 C 0.28184 0.3205 0.90242 0.0
Eu211 Eu 0.2953 0.29484 0.84221 0.0
C212 C 0.26393 0.34008 0.91391 0.0
C213 C 0.23149 0.3376 0.89431 0.0
C214 C 0.21431 0.35392 0.90923 0.0
C215 C 0.22888 0.37313 0.94447 0.0
C216 C 0.26169 0.37611 0.96313 0.0
C217 C 0.27884 0.35987 0.9481 0.0
C218 C 0.25448 0.249 0.79136 0.0
C219 C 0.28476 0.33119 0.7482 0.0
O220 O 0.31184 0.24206 0.72468 0.0
O221 O 0.35062 0.28419 0.71706 0.0
O222 O 0.36091 0.32677 0.77515 0.0
O223 O 0.34381 0.30176 0.82864 0.0
O224 O 0.3274 0.24359 0.81659 0.0
O225 O 0.32517 0.26488 0.87779 0.0
O226 O 0.3067 0.3334 0.88385 0.0
O227 O 0.26523 0.29316 0.88864 0.0
O228 O 0.25586 0.24895 0.83244 0.0
O229 O 0.27277 0.27387 0.77879 0.0
O230 O 0.28914 0.33189 0.79056 0.0
O231 O 0.29038 0.30977 0.72963 0.0
H232 H 0.4015 0.26245 0.72895 0.0
H233 H 0.43215 0.23633 0.70048 0.0
H234 H 0.34337 0.18494 0.61933 0.0
H235 H 0.31299 0.21049 0.64887 0.0
H236 H 0.21918 0.32261 0.8679 0.0
H237 H 0.18941 0.35127 0.8931 0.0
H238 H 0.27398 0.39018 0.99048 0.0
H239 H 0.3037 0.36212 0.9642 0.0
C240 C 0.74638 0.32585 0.76765 0.0
Eu241 Eu 0.78754 0.29438 0.78046 0.0
C242 C 0.73886 0.34493 0.79514 0.0
C243 C 0.70695 0.34575 0.78968 0.0
C244 C 0.69889 0.36188 0.81763 0.0
C245 C 0.72269 0.37759 0.85141 0.0
C246 C 0.75489 0.37746 0.85613 0.0
C247 C 0.76288 0.36103 0.82839 0.0
C248 C 0.77919 0.24962 0.7237 0.0
C249 C 0.76262 0.23845 0.84562 0.0
C250 C 0.86751 0.22863 0.82992 0.0
Eu251 Eu 0.82872 0.26256 0.81459 0.0
C252 C 0.86378 0.19838 0.81593 0.0
C253 C 0.89101 0.18839 0.82063 0.0
C254 C 0.88921 0.16366 0.79778 0.0
C255 C 0.86029 0.14913 0.7694 0.0
C256 C 0.83236 0.15766 0.76755 0.0
C257 C 0.83408 0.18199 0.79112 0.0
C258 C 0.83776 0.30761 0.87068 0.0
C259 C 0.85458 0.32134 0.74993 0.0
O260 O 0.77493 0.33621 0.75768 0.0
O261 O 0.73875 0.29669 0.77832 0.0
O262 O 0.77987 0.27768 0.71321 0.0
O263 O 0.78319 0.24602 0.76439 0.0
O264 O 0.76507 0.26764 0.83685 0.0
O265 O 0.783 0.22808 0.83225 0.0
O266 O 0.84931 0.22961 0.85621 0.0
O267 O 0.86754 0.2495 0.79867 0.0
O268 O 0.83645 0.27946 0.88145 0.0
O269 O 0.83358 0.31096 0.82999 0.0
O270 O 0.85829 0.29492 0.76713 0.0
O271 O 0.82911 0.32839 0.75438 0.0
H272 H 0.68812 0.33339 0.76432 0.0
H273 H 0.67393 0.36182 0.81312 0.0
H274 H 0.77359 0.38912 0.88215 0.0
H275 H 0.78765 0.36039 0.83347 0.0
H276 H 0.91417 0.20097 0.83951 0.0
H277 H 0.91119 0.15775 0.79932 0.0
H278 H 0.80985 0.14685 0.74585 0.0
H279 H 0.81294 0.18952 0.7877 0.0
C280 C 0.79629 0.83339 0.90371 0.0
Eu281 Eu 0.80946 0.81269 0.83997 0.0
C282 C 0.78535 0.85955 0.90951 0.0
C283 C 0.80751 0.8869 0.9267 0.0
C284 C 0.79673 0.91163 0.93099 0.0
C285 C 0.76363 0.90943 0.91799 0.0
C286 C 0.74155 0.88181 0.90183 0.0
C287 C 0.75221 0.85724 0.89772 0.0
C288 C 0.85238 0.84599 0.78657 0.0
C289 C 0.76609 0.82493 0.74652 0.0
C290 C 0.81687 0.7578 0.69396 0.0
Eu291 Eu 0.80354 0.77267 0.76204 0.0
C292 C 0.8257 0.73466 0.67605 0.0
C293 C 0.82757 0.73781 0.63245 0.0
C294 C 0.84273 0.72051 0.61644 0.0
C295 C 0.85637 0.7 0.64404 0.0
C296 C 0.85239 0.69539 0.68706 0.0
C297 C 0.83718 0.71267 0.70301 0.0
C298 C 0.75895 0.73936 0.81253 0.0
C299 C 0.84547 0.7588 0.85631 0.0
O300 O 0.77523 0.81218 0.87887 0.0
O301 O 0.82603 0.83942 0.89769 0.0
O302 O 0.84898 0.85591 0.82114 0.0
O303 O 0.8329 0.81883 0.78364 0.0
O304 O 0.77223 0.82835 0.78858 0.0
O305 O 0.77715 0.80653 0.72954 0.0
O306 O 0.83883 0.77279 0.72533 0.0
O307 O 0.78704 0.75122 0.69988 0.0
O308 O 0.76241 0.7304 0.77719 0.0
O309 O 0.77903 0.76628 0.81797 0.0
O310 O 0.83781 0.75434 0.81434 0.0
O311 O 0.83698 0.77928 0.8733 0.0
H312 H 0.83316 0.88922 0.9366 0.0
H313 H 0.81427 0.93254 0.94392 0.0
H314 H 0.71574 0.87894 0.89284 0.0
H315 H 0.73429 0.8364 0.88516 0.0
H316 H 0.81902 0.75495 0.61138 0.0
H317 H 0.84558 0.72461 0.58326 0.0
H318 H 0.86223 0.67932 0.70881 0.0
H319 H 0.83599 0.71008 0.73682 0.0
Co320 Co 0.10326 0.99989 0.54767 0.0
Co321 Co 0.09145 0.99654 0.62116 0.0
Co322 Co 0.05426 0.04341 0.55517 0.0
O323 O 0.09273 0.02751 0.57839 0.0
H324 H 0.11187 0.04459 0.5874 0.0
O325 O 1.01565 0.05914 0.53231 0.0
Co326 Co 1.0086 0.08945 0.56182 0.0
Co327 Co 1.01574 0.08817 0.48748 0.0
H328 H 0.99613 0.04213 0.52593 0.0
O329 O 0.1295 0.99309 0.66072 0.0
O330 O 0.10685 0.9696 0.59861 0.0
O331 O 0.04823 0.97789 0.63251 0.0
O332 O 1.02374 1.01115 0.5936 0.0
O333 O 0.07202 0.07272 0.60269 0.0
O334 O 0.99792 0.1142 0.59028 0.0
O335 O 0.96569 0.07141 0.55638 0.0
O336 O 0.05379 0.1114 0.57284 0.0
O337 O 0.08485 0.07574 0.51648 0.0
O338 O 0.05737 0.10449 0.47198 0.0
O339 O 1.00187 0.11714 0.50823 0.0
O340 O 0.97785 0.09079 0.44843 0.0
C341 C 0.1449 0.99771 0.53443 0.0
C342 C 1.03533 0.98609 0.50957 0.0
C343 C 1.0232 0.98693 0.6198 0.0
C344 C 0.12846 0.97303 0.63463 0.0
C345 C 0.96954 0.09397 0.58004 0.0
C346 C 0.07524 0.10132 0.59808 0.0
C347 C 0.08352 0.09759 0.48644 0.0
C348 C 0.97991 0.11253 0.47241 0.0
O349 O 0.11727 0.9778 0.51926 0.0
O350 O 0.14624 1.01879 0.55912 0.0
O351 O 1.03617 1.01409 0.50766 0.0
O352 O 0.05888 0.97715 0.53102 0.0
Co353 Co 0.58611 1.00784 0.02845 0.0
Co354 Co 0.58245 1.00551 0.10809 0.0
Co355 Co 0.54364 0.05004 0.04788 0.0
O356 O 0.58171 0.03505 0.06482 0.0
H357 H 0.60145 0.05192 0.07139 0.0
O358 O 0.50592 0.06566 0.03063 0.0
Co359 Co 0.50237 0.09889 0.05677 0.0
Co360 Co 0.50628 0.08988 0.98031 0.0
H361 H 0.48587 0.04894 0.02737 0.0
O362 O 0.62286 1.00385 0.14017 0.0
O363 O 0.5947 0.98092 0.07865 0.0
O364 O 0.54103 0.98502 0.12267 0.0
O365 O 0.51419 1.01647 0.08451 0.0
O366 O 0.56311 0.07703 0.09829 0.0
O367 O 0.49507 0.12809 0.08014 0.0
O368 O 0.45884 0.08528 0.05071 0.0
O369 O 0.54816 0.1172 0.06778 0.0
O370 O 0.57392 0.08269 0.01182 0.0
O371 O 0.54587 0.1059 0.9599 0.0
O372 O 0.49765 0.12153 0.99974 0.0
O373 O 0.46755 0.09065 0.94563 0.0
C374 C 0.62284 1.00482 1.0024 0.0
C375 C 0.51982 0.99467 1.00077 0.0
C376 C 0.51509 0.99252 0.11011 0.0
C377 C 0.62066 0.98734 0.10864 0.0
C378 C 0.46511 0.11114 0.0686 0.0
C379 C 0.56688 0.10573 0.0962 0.0
C380 C 0.5726 0.10178 0.9789 0.0
C381 C 0.47221 0.11372 0.96864 0.0
O382 O 0.59408 0.9849 0.99442 0.0
O383 O 0.62885 0.02629 0.02909 0.0
O384 O 0.52321 1.02322 0.99713 0.0
O385 O 0.54237 0.98505 0.02308 0.0
Co386 Co 0.05787 0.48255 0.09159 0.0
Co387 Co 0.05688 0.48538 0.17074 0.0
Co388 Co 1.01632 0.53452 0.11876 0.0
O389 O 0.05495 0.51579 0.12452 0.0
H390 H 0.07541 0.53199 0.12805 0.0
O391 O 0.97885 0.55495 0.11695 0.0
Co392 Co 0.98126 0.5972 0.13851 0.0
Co393 Co 0.96791 0.5755 0.06447 0.0
H394 H 0.95903 0.5395 0.12107 0.0
O395 O 0.09635 0.48037 0.20429 0.0
O396 O 0.06713 0.45484 0.14569 0.0
O397 O 1.01467 0.46956 0.1881 0.0
O398 O 1.00898 0.51581 0.17708 0.0
O399 O 0.04967 0.57244 0.14564 0.0
O400 O 0.98058 0.63374 0.15927 0.0
O401 O 0.93805 0.59218 0.149 0.0
O402 O 1.02619 0.61034 0.1347 0.0
O403 O 1.02578 0.55137 0.06093 0.0
O404 O 0.99193 0.57553 0.0214 0.0
O405 O 0.96926 0.61419 0.07787 0.0
O406 O 0.92647 0.57781 0.04277 0.0
C407 C 0.09303 0.47075 0.06792 0.0
C408 C 0.985 0.47101 0.07752 0.0
C409 C 0.99702 0.48709 0.18515 0.0
C410 C 0.09228 0.45912 0.17835 0.0
C411 C 0.95025 0.6206 0.16165 0.0
C412 C 0.05117 0.60092 0.1413 0.0
C413 C 1.0154 0.56466 0.02594 0.0
C414 C 0.94073 0.60639 0.05185 0.0
O415 O 0.06245 0.45519 0.06066 0.0
O416 O 0.10238 0.49512 0.09091 0.0
O417 O 0.98309 0.49663 0.08798 0.0
O418 O 1.01182 0.46481 0.08364 0.0
Co419 Co 0.59217 0.48882 0.04473 0.0
Co420 Co 0.59159 0.50095 0.11842 0.0
Co421 Co 0.5553 0.54314 0.04461 0.0
O422 O 0.59289 0.52574 0.06837 0.0
H423 H 0.61366 0.54142 0.0702 0.0
O424 O 0.51806 0.56038 0.01998 0.0
Co425 Co 0.51461 0.59571 0.04252 0.0
Co426 Co 0.51868 0.58431 0.96847 0.0
H427 H 0.4977 0.54407 0.01705 0.0
O428 O 0.62915 0.4985 0.15701 0.0
O429 O 0.60054 0.46688 0.10342 0.0
O430 O 0.55047 0.48813 0.1355 0.0
O431 O 0.52322 0.51256 0.08322 0.0
O432 O 0.57374 0.57372 0.09078 0.0
O433 O 0.50745 0.62601 0.0635 0.0
O434 O 0.47107 0.58256 0.0358 0.0
O435 O 0.56062 0.61336 0.05403 0.0
O436 O 0.58702 0.5738 1.00624 0.0
O437 O 0.56016 0.59707 0.95144 0.0
O438 O 0.51088 0.61867 0.98446 0.0
O439 O 0.47997 0.58814 0.93137 0.0
C440 C 0.62454 0.47284 0.0257 0.0
C441 C 0.52955 0.4837 1.00821 0.0
C442 C 0.52407 0.49329 0.11678 0.0
C443 C 0.62417 0.47374 0.1374 0.0
C444 C 0.47753 0.60879 0.05268 0.0
C445 C 0.57881 0.60262 0.08431 0.0
C446 C 0.58646 0.59242 0.97197 0.0
C447 C 0.4861 0.61267 0.95203 0.0
O448 O 0.59407 0.4571 0.02152 0.0
O449 O 0.63518 0.49944 0.04319 0.0
O450 O 0.53673 0.51245 0.9988 0.0
O451 O 0.54662 0.47343 0.04046 0.0
Co452 Co 0.13062 0.50057 0.58749 0.0
Co453 Co 0.10335 0.50201 0.50574 0.0
Co454 Co 0.06806 0.5302 0.55792 0.0
O455 O 0.0878 0.4979 0.55584 0.0
H456 H 0.07268 0.47767 0.55852 0.0
O457 O 0.04903 0.56194 0.56187 0.0
Co458 Co 1.03149 0.58463 0.51513 0.0
Co459 Co 1.00879 0.54844 0.57001 0.0
H460 H 0.06169 0.57494 0.58527 0.0
O461 O 0.10737 0.46838 0.48487 0.0
O462 O 0.14442 0.50106 0.53249 0.0
O463 O 0.10839 0.53965 0.47237 0.0
O464 O 0.0969 0.5633 0.52067 0.0
O465 O 1.03567 0.51344 0.50567 0.0
O466 O 1.01772 0.6112 0.47558 0.0
O467 O 0.0485 0.61909 0.54223 0.0
O468 O 1.01087 0.54903 0.48087 0.0
O469 O 1.03813 0.49794 0.59535 0.0
O470 O 0.98967 0.50521 0.57094 0.0
O471 O 0.99026 0.57539 0.53727 0.0
O472 O 1.00181 0.56866 0.61014 0.0
C473 C 0.15478 0.47014 0.61476 0.0
C474 C 0.13115 0.55768 0.60737 0.0
C475 C 0.1091 0.56419 0.48723 0.0
C476 C 0.13598 0.47707 0.50958 0.0
C477 C 1.03322 0.62943 0.50716 0.0
C478 C 1.01417 0.5227 0.47909 0.0
C479 C 1.00663 0.48843 0.59089 0.0
C480 C 0.98928 0.58207 0.57555 0.0
O481 O 0.1688 0.49947 0.61679 0.0
O482 O 0.12452 0.45971 0.59488 0.0
O483 O 0.10129 0.54723 0.60984 0.0
O484 O 0.14301 0.54401 0.58597 0.0
Co485 Co 0.65115 1.0065 0.51344 0.0
Co486 Co 0.63526 1.01683 0.4342 0.0
Co487 Co 0.58907 0.04593 0.47729 0.0
O488 O 0.61004 1.01128 0.47734 0.0
H489 H 0.59346 0.99161 0.47462 0.0
O490 O 0.56808 0.08167 0.47396 0.0
Co491 Co 0.52173 0.08373 0.45021 0.0
Co492 Co 0.55751 0.08735 0.52528 0.0
H493 H 0.58328 0.10079 0.46655 0.0
O494 O 0.63376 0.98423 0.40181 0.0
O495 O 0.6715 1.00171 0.46059 0.0
O496 O 0.64336 0.05981 0.41032 0.0
O497 O 0.59363 0.05693 0.41601 0.0
O498 O 0.54502 1.01566 0.45766 0.0
O499 O 0.48131 0.08876 0.42665 0.0
O500 O 0.52778 0.12669 0.43983 0.0
O501 O 0.50749 0.03985 0.4549 0.0
O502 O 0.58564 0.03186 0.53853 0.0
O503 O 0.56647 0.05967 0.57245 0.0
O504 O 0.51424 0.08687 0.50971 0.0
O505 O 0.55724 0.12503 0.53994 0.0
C506 C 0.66638 0.97033 0.54599 0.0
C507 C 0.66174 0.07579 0.51645 0.0
C508 C 0.62048 0.07199 0.40506 0.0
C509 C 0.66077 0.98323 0.4275 0.0
C510 C 0.49609 0.11812 0.42554 0.0
C511 C 0.51563 1.01556 0.45509 0.0
C512 C 0.57808 0.03794 0.57207 0.0
C513 C 0.52593 0.11249 0.53018 0.0
O514 O 0.68534 0.99842 0.54869 0.0
O515 O 0.63759 0.96463 0.52085 0.0
O516 O 0.63255 0.07622 0.50054 0.0
O517 O 0.67066 0.05168 0.51694 0.0
H518 H 0.26574 0.22616 0.40893 0.0
H519 H 0.07992 0.11864 0.40285 0.0
H520 H 0.18353 0.22802 0.30788 0.0
H521 H 0.1521 0.1216 0.5193 0.0
H522 H 0.12057 0.15527 0.36766 0.0
H523 H 0.22858 0.18673 0.4493 0.0
C524 C 0.24002 0.21848 0.39507 0.0
C525 C 0.22822 0.23095 0.35434 0.0
C526 C 0.12799 0.148 0.40081 0.0
C527 C 0.18499 0.1849 0.40085 0.0
C528 C 0.10452 0.12663 0.42124 0.0
C529 C 0.11189 0.11626 0.46468 0.0
C530 C 0.16017 0.16014 0.42316 0.0
C531 C 0.14479 0.12816 0.48581 0.0
C532 C 0.21869 0.19579 0.4183 0.0
C533 C 0.19435 0.21957 0.33877 0.0
N534 N 0.16744 0.14937 0.46509 0.0
N535 N 0.17446 0.19757 0.36156 0.0
H536 H 0.86437 0.21984 0.30561 0.0
H537 H 0.97255 0.15894 0.51412 0.0
H538 H 0.86892 0.24402 0.43375 0.0
H539 H 0.94087 0.11587 0.39242 0.0
H540 H 0.93939 0.19344 0.48544 0.0
H541 H 0.89694 0.18558 0.33628 0.0
C542 C 0.87224 0.21812 0.34023 0.0
C543 C 0.86354 0.23513 0.36686 0.0
C544 C 0.93964 0.17638 0.46506 0.0
C545 C 0.90168 0.1955 0.4027 0.0
C546 C 0.95859 0.15654 0.48151 0.0
C547 C 0.95958 0.13398 0.45606 0.0
C548 C 0.92181 0.1743 0.4223 0.0
C549 C 0.94102 0.13256 0.41368 0.0
C550 C 0.89087 0.19834 0.35782 0.0
C551 C 0.87473 0.23149 0.41166 0.0
N552 N 0.92331 0.15235 0.39829 0.0
N553 N 0.89321 0.21237 0.428 0.0
H554 H 0.9023 0.82758 0.36993 0.0
H555 H 0.97858 0.99516 0.46446 0.0
H556 H 0.85462 0.89761 0.34589 0.0
H557 H 1.02714 0.92568 0.49737 0.0
H558 H 0.93244 0.9585 0.42235 0.0
H559 H 0.9477 0.86164 0.41884 0.0
C560 C 0.90131 0.84997 0.3753 0.0
C561 C 0.8748 0.85988 0.354 0.0
C562 C 0.95314 0.95116 0.43881 0.0
C563 C 0.92641 0.89891 0.40901 0.0
C564 C 0.9796 0.9722 0.46283 0.0
C565 C 1.00697 0.96365 0.48433 0.0
C566 C 0.95388 0.92124 0.43591 0.0
C567 C 1.00662 0.93337 0.4812 0.0
C568 C 0.92717 0.86942 0.403 0.0
C569 C 0.8747 0.88914 0.36164 0.0
N570 N 0.98058 0.91329 0.4573 0.0
N571 N 0.90005 0.90758 0.38832 0.0
H572 H 0.24999 0.98556 0.35806 0.0
H573 H 0.17094 0.95137 0.55636 0.0
H574 H 0.27036 0.92026 0.4601 0.0
H575 H 0.18458 0.03904 0.48738 0.0
H576 H 0.21355 0.9433 0.52662 0.0
H577 H 0.23297 1.01032 0.40838 0.0
C578 C 0.2517 0.97694 0.39127 0.0
C579 C 0.26089 0.95038 0.40459 0.0
C580 C 0.20791 0.96469 0.5187 0.0
C581 C 0.24124 0.97829 0.46199 0.0
C582 C 0.18357 0.96917 0.5356 0.0
C583 C 0.17445 0.99573 0.52386 0.0
C584 C 0.22222 0.98646 0.48862 0.0
C585 C 0.1912 1.01825 0.49692 0.0
C586 C 0.24214 0.99115 0.42002 0.0
C587 C 0.26328 0.94054 0.44819 0.0
N588 N 0.21386 1.01279 0.47921 0.0
N589 N 0.25274 0.95403 0.47505 0.0
H590 H 0.28956 0.89439 0.72828 0.0
H591 H 0.11596 0.91291 0.61423 0.0
H592 H 0.20228 0.81858 0.72835 0.0
H593 H 0.18943 0.98521 0.68694 0.0
H594 H 0.14962 0.87861 0.64132 0.0
H595 H 0.256 0.92838 0.69932 0.0
C596 C 0.26336 0.88476 0.72196 0.0
C597 C 0.24894 0.85335 0.7311 0.0
C598 C 0.15842 0.90203 0.65118 0.0
C599 C 0.21005 0.89244 0.69664 0.0
C600 C 0.13927 0.92174 0.6355 0.0
C601 C 0.14962 0.95218 0.6483 0.0
C602 C 0.18882 0.91287 0.67898 0.0
C603 C 0.18018 0.96201 0.67623 0.0
C604 C 0.24418 0.90429 0.70553 0.0
C605 C 0.21467 0.84253 0.72219 0.0
N606 N 0.19866 0.94267 0.69017 0.0
N607 N 0.19654 0.86182 0.70516 0.0
H608 H 0.21866 0.1913 0.81285 0.0
H609 H 0.10065 0.16324 0.58367 0.0
H610 H 0.23485 0.25489 0.70408 0.0
H611 H 0.1137 0.08871 0.67351 0.0
H612 H 0.14612 0.19874 0.62969 0.0
H613 H 0.17636 0.15458 0.76465 0.0
C614 C 0.21335 0.19745 0.7788 0.0
C615 C 0.23016 0.22612 0.76238 0.0
C616 C 0.13908 0.17459 0.63916 0.0
C617 C 0.18165 0.18456 0.7073 0.0
C618 C 0.11306 0.15435 0.61306 0.0
C619 C 0.10327 0.12297 0.62485 0.0
C620 C 0.15504 0.16348 0.67775 0.0
C621 C 0.12042 0.11269 0.66314 0.0
C622 C 0.18932 0.17651 0.75133 0.0
C623 C 0.22245 0.23298 0.718 0.0
N624 N 0.14524 0.13293 0.68844 0.0
N625 N 0.1985 0.21247 0.69203 0.0
H626 H 0.88282 0.09939 0.77996 0.0
H627 H 0.9518 0.14488 0.58062 0.0
H628 H 0.84248 0.15747 0.68307 0.0
H629 H 0.92674 0.04877 0.61864 0.0
H630 H 0.91222 0.15043 0.61891 0.0
H631 H 0.89867 0.0787 0.72372 0.0
C632 C 0.8764 0.107 0.74669 0.0
C633 C 0.86157 0.13023 0.73601 0.0
C634 C 0.91479 0.12797 0.61795 0.0
C635 C 0.88033 0.10757 0.67237 0.0
C636 C 0.93739 0.12485 0.59629 0.0
C637 C 0.94227 0.09636 0.59657 0.0
C638 C 0.8981 0.10269 0.64148 0.0
C639 C 0.92334 0.07107 0.61767 0.0
C640 C 0.88534 0.0952 0.71471 0.0
C641 C 0.85385 0.13953 0.69253 0.0
N642 N 0.90261 0.07497 0.64047 0.0
N643 N 0.86421 0.12882 0.66237 0.0
H644 H 0.87833 0.82933 0.72302 0.0
H645 H 0.9768 1.00348 0.6519 0.0
H646 H 0.87785 0.90867 0.78119 0.0
H647 H 1.00102 0.92426 0.62937 0.0
H648 H 0.93416 0.96949 0.68929 0.0
H649 H 0.91656 0.86329 0.6795 0.0
C650 C 0.88578 0.85378 0.72646 0.0
C651 C 0.87433 0.8657 0.75634 0.0
C652 C 0.94856 0.95946 0.67573 0.0
C653 C 0.91868 0.90552 0.70551 0.0
C654 C 0.97286 0.979 0.65383 0.0
C655 C 0.99294 0.96712 0.63678 0.0
C656 C 0.94347 0.92741 0.68034 0.0
C657 C 0.98647 0.93488 0.64161 0.0
C658 C 0.90793 0.87335 0.70158 0.0
C659 C 0.88571 0.898 0.75897 0.0
N660 N 0.96266 0.9165 0.66243 0.0
N661 N 0.90677 0.91645 0.73418 0.0
H662 H 0.35958 0.23556 0.0742 0.0
H663 H 0.39926 0.08169 0.05426 0.0
H664 H 0.2982 0.14737 0.11153 0.0
H665 H 0.47097 0.16903 0.08603 0.0
H666 H 0.35631 0.10477 0.05416 0.0
H667 H 0.39417 0.21013 0.0535 0.0
C668 C 0.35312 0.2108 0.07738 0.0
C669 C 0.32653 0.19356 0.09561 0.0
C670 C 0.38152 0.11869 0.06098 0.0
C671 C 0.36579 0.1645 0.07196 0.0
C672 C 0.40596 0.10557 0.06139 0.0
C673 C 0.43871 0.12335 0.07087 0.0
C674 C 0.39011 0.14982 0.06909 0.0
C675 C 0.4461 0.15429 0.07926 0.0
C676 C 0.37279 0.19636 0.06555 0.0
C677 C 0.31866 0.16149 0.09791 0.0
N678 N 0.42199 0.16654 0.07797 0.0
N679 N 0.33859 0.14791 0.08688 0.0
H680 H 0.8345 0.38944 0.02483 0.0
H681 H 0.94879 0.51255 0.18638 0.0
H682 H 0.79597 0.39841 0.13334 0.0
H683 H 0.96373 0.42961 0.15799 0.0
H684 H 0.89186 0.49389 0.14694 0.0
H685 H 0.88006 0.43491 0.04596 0.0
C686 C 0.83447 0.40185 0.05161 0.0
C687 C 0.81364 0.38811 0.08034 0.0
C688 C 0.90796 0.48016 0.14933 0.0
C689 C 0.86463 0.44017 0.10342 0.0
C690 C 0.94012 0.49048 0.17203 0.0
C691 C 0.96138 0.47321 0.17376 0.0
C692 C 0.89762 0.45267 0.12827 0.0
C693 C 0.94861 0.44416 0.15653 0.0
C694 C 0.86074 0.42767 0.06384 0.0
C695 C 0.81333 0.40658 0.1124 0.0
N696 N 0.91776 0.43512 0.13372 0.0
N697 N 0.83982 0.43084 0.12499 0.0
H698 H 0.7363 0.89328 0.04152 0.0
H699 H 0.68517 1.01454 0.14092 0.0
H700 H 0.80618 0.96912 0.11217 0.0
H701 H 0.61908 0.94089 0.06288 0.0
H702 H 0.73092 1.00292 0.12333 0.0
H703 H 0.69523 0.91834 0.03426 0.0
C704 C 0.7435 0.91576 0.05429 0.0
C705 C 0.77445 0.92835 0.07964 0.0
C706 C 0.70637 0.98939 0.11002 0.0
C707 C 0.72678 0.95634 0.07332 0.0
C708 C 0.68036 0.99568 0.12062 0.0
C709 C 0.64846 0.97844 0.10357 0.0
C710 C 0.70021 0.96566 0.08243 0.0
C711 C 0.64337 0.95464 0.07681 0.0
C712 C 0.71966 0.92983 0.05082 0.0
C713 C 0.78214 0.95792 0.09421 0.0
N714 N 0.66899 0.94894 0.06711 0.0
N715 N 0.75806 0.97047 0.09239 0.0
H716 H 0.24639 0.7092 0.25264 0.0
H717 H 0.06545 0.6616 0.11585 0.0
H718 H 0.20586 0.77116 0.16344 0.0
H719 H 0.11092 0.5948 0.1825 0.0
H720 H 0.11758 0.70141 0.13122 0.0
H721 H 0.1988 0.66649 0.22504 0.0
C722 C 0.22779 0.71375 0.22664 0.0
C723 C 0.23001 0.74389 0.2106 0.0
C724 C 0.11632 0.67805 0.14226 0.0
C725 C 0.17515 0.69513 0.17939 0.0
C726 C 0.08643 0.65523 0.13366 0.0
C727 C 0.08357 0.62472 0.14826 0.0
C728 C 0.14378 0.67061 0.16622 0.0
C729 C 0.11187 0.61797 0.17071 0.0
C730 C 0.20055 0.68935 0.21103 0.0
C731 C 0.20516 0.74838 0.17696 0.0
N732 N 0.14067 0.64076 0.17945 0.0
N733 N 0.17862 0.72438 0.16295 0.0
H734 H 0.36743 0.82603 0.9384 0.0
H735 H 0.47606 1.00188 0.92644 0.0
H736 H 0.3619 0.88178 0.82041 0.0
H737 H 0.49563 0.93542 0.02692 0.0
H738 H 0.42938 0.9612 0.88998 0.0
H739 H 0.40985 0.86893 0.97418 0.0
C740 C 0.37513 0.8474 0.92002 0.0
C741 C 0.36115 0.85036 0.87641 0.0
C742 C 0.44392 0.95569 0.92009 0.0
C743 C 0.4099 0.89982 0.91726 0.0
C744 C 0.47035 0.97887 0.94098 0.0
C745 C 0.48989 0.97191 0.97951 0.0
C746 C 0.43682 0.92563 0.9384 0.0
C747 C 0.48151 0.94175 0.99698 0.0
C748 C 0.39941 0.87192 0.94046 0.0
C749 C 0.37211 0.8786 0.85415 0.0
N750 N 0.45571 0.91984 0.97636 0.0
N751 N 0.39589 0.90234 0.87485 0.0
H752 H 0.16381 0.35268 0.9487 0.0
H753 H 0.16068 0.49438 0.07264 0.0
H754 H 0.24959 0.42953 0.98305 0.0
H755 H 0.07714 0.41915 0.02379 0.0
H756 H 0.19486 0.47192 0.04313 0.0
H757 H 0.13302 0.37741 0.9784 0.0
C758 C 0.1763 0.37492 0.96199 0.0
C759 C 0.20965 0.38884 0.96265 0.0
C760 C 0.169 0.46047 0.03893 0.0
C761 C 0.1739 0.4176 0.99828 0.0
C762 C 0.14945 0.47332 0.0558 0.0
C763 C 0.11571 0.45891 0.05078 0.0
C764 C 0.15479 0.43289 0.01705 0.0
C765 C 0.10282 0.43147 0.02864 0.0
C766 C 0.15858 0.38905 0.97946 0.0
C767 C 0.22412 0.41751 0.98187 0.0
N768 N 0.12216 0.41958 0.01291 0.0
N769 N 0.20627 0.43085 0.99877 0.0
H770 H 0.75439 0.17838 0.87831 0.0
H771 H 0.58081 0.15712 0.93471 0.0
H772 H 0.71062 0.25074 0.86511 0.0
H773 H 0.63343 0.09255 0.98546 0.0
H774 H 0.62716 0.18935 0.90522 0.0
H775 H 0.71039 0.14503 0.91336 0.0
C776 C 0.73568 0.18739 0.8828 0.0
C777 C 0.73657 0.21771 0.86849 0.0
C778 C 0.62884 0.16822 0.92283 0.0
C779 C 0.68548 0.17914 0.90851 0.0
C780 C 0.60213 0.14954 0.93976 0.0
C781 C 0.6027 0.12167 0.96284 0.0
C782 C 0.65693 0.15927 0.92797 0.0
C783 C 0.63159 0.11372 0.96818 0.0
C784 C 0.71051 0.16825 0.90298 0.0
C785 C 0.71135 0.22775 0.87546 0.0
N786 N 0.6573 0.1322 0.9506 0.0
N787 N 0.68703 0.20863 0.89446 0.0
H788 H 0.8525 0.70503 0.83761 0.0
H789 H 0.95519 0.66813 0.06692 0.0
H790 H 0.87586 0.76461 0.94257 0.0
H791 H 0.89422 0.59925 0.9779 0.0
H792 H 0.93328 0.70651 0.02064 0.0
H793 H 0.87557 0.66928 0.88641 0.0
C794 C 0.86277 0.71087 0.87081 0.0
C795 C 0.86208 0.73813 0.8857 0.0
C796 C 0.92467 0.68293 0.01149 0.0
C797 C 0.88888 0.69674 0.94235 0.0
C798 C 0.93717 0.66099 0.0379 0.0
C799 C 0.92658 0.6302 0.02659 0.0
C800 C 0.90198 0.67423 0.97292 0.0
C801 C 0.90313 0.6225 0.9884 0.0
C802 C 0.87579 0.69022 0.89884 0.0
C803 C 0.87572 0.74397 0.92946 0.0
N804 N 0.892 0.64425 0.96299 0.0
N805 N 0.88864 0.72358 0.95612 0.0
H806 H 0.24163 0.37168 0.31657 0.0
H807 H 0.09833 0.41283 0.13209 0.0
H808 H 0.20873 0.33138 0.19296 0.0
H809 H 0.13971 0.45835 0.25149 0.0
H810 H 0.13639 0.38194 0.15337 0.0
H811 H 0.20328 0.40185 0.29387 0.0
C812 C 0.22643 0.36895 0.28467 0.0
C813 C 0.22908 0.34844 0.25705 0.0
C814 C 0.13713 0.39865 0.17503 0.0
C815 C 0.18386 0.38376 0.23015 0.0
C816 C 0.11515 0.41645 0.16277 0.0
C817 C 0.11508 0.43874 0.18969 0.0
C818 C 0.15959 0.40252 0.21497 0.0
C819 C 0.13818 0.4418 0.22912 0.0
C820 C 0.20431 0.38641 0.27155 0.0
C821 C 0.20812 0.34658 0.2159 0.0
N822 N 0.15892 0.4242 0.24028 0.0
N823 N 0.18677 0.36366 0.20401 0.0
H824 H 0.10814 0.64585 0.82021 0.0
H825 H 0.06075 0.53764 0.02029 0.0
H826 H 0.17095 0.6008 0.90665 0.0
H827 H 1.00691 0.5968 0.9484 0.0
H828 H 0.09201 0.54648 0.96399 0.0
H829 H 0.06216 0.61255 0.84978 0.0
C830 C 0.11205 0.62809 0.8442 0.0
C831 C 0.14349 0.62659 0.862 0.0
C832 C 0.07304 0.55718 0.96023 0.0
C833 C 0.0913 0.58918 0.89669 0.0
C834 C 0.05532 0.55237 0.99253 0.0
C835 C 1.03186 0.56735 0.98972 0.0
C836 C 0.0675 0.57729 0.92499 0.0
C837 C 1.02527 0.58537 0.95238 0.0
C838 C 0.08582 0.60931 0.86141 0.0
C839 C 0.14715 0.60317 0.89296 0.0
N840 N 0.04343 0.59028 0.92178 0.0
N841 N 0.12144 0.58583 0.91017 0.0
H842 H 0.37196 0.25046 0.93817 0.0
H843 H 0.41039 0.09479 0.92243 0.0
H844 H 0.32323 0.18615 0.83834 0.0
H845 H 0.47835 0.17017 0.99566 0.0
H846 H 0.37094 0.12301 0.90508 0.0
H847 H 0.4034 0.21586 0.97327 0.0
C848 C 0.36735 0.22876 0.92426 0.0
C849 C 0.34536 0.2212 0.88509 0.0
C850 C 0.39442 0.13335 0.92514 0.0
C851 C 0.38095 0.18192 0.92468 0.0
C852 C 0.41704 0.11733 0.93487 0.0
C853 C 0.44792 0.13041 0.95986 0.0
C854 C 0.4027 0.1628 0.94026 0.0
C855 C 0.45491 0.15942 0.97585 0.0
C856 C 0.38541 0.2092 0.94407 0.0
C857 C 0.34032 0.19297 0.86821 0.0
N858 N 0.43252 0.17483 0.96547 0.0
N859 N 0.35815 0.17446 0.88793 0.0
H860 H 0.85963 0.30161 0.95765 0.0
H861 H 0.94192 0.48146 1.00384 0.0
H862 H 0.85605 0.37147 0.85631 0.0
H863 H 0.96507 0.40837 0.08801 0.0
H864 H 0.90393 0.44304 0.95312 0.0
H865 H 0.89099 0.34131 1.00863 0.0
C866 C 0.86524 0.32534 0.94596 0.0
C867 C 0.85511 0.33284 0.9021 0.0
C868 C 0.91688 0.43539 0.98306 0.0
C869 C 0.89165 0.37927 0.96146 0.0
C870 C 0.93827 0.45736 0.01245 0.0
C871 C 0.95633 0.44833 0.05118 0.0
C872 C 0.91296 0.4039 0.99248 0.0
C873 C 0.95131 0.41662 0.05931 0.0
C874 C 0.88336 0.34815 0.97532 0.0
C875 C 0.86329 0.36433 0.88957 0.0
N876 N 0.93023 0.39584 0.03068 0.0
N877 N 0.88102 0.38624 0.9189 0.0
H878 H 0.71811 0.92953 0.86038 0.0
H879 H 0.68928 0.0279 0.02882 0.0
H880 H 0.781 0.94788 0.98517 0.0
H881 H 0.61495 0.97383 0.93165 0.0
H882 H 0.73043 1.01403 1.00192 0.0
H883 H 0.68871 0.96256 0.87458 0.0
C884 C 0.72599 0.94082 0.89062 0.0
C885 C 0.7512 0.93498 0.92238 0.0
C886 C 0.70514 1.00578 0.98614 0.0
C887 C 0.71781 0.97306 0.93861 0.0
C888 C 0.68171 1.01366 1.00138 0.0
C889 C 0.64864 1.00136 0.98306 0.0
C890 C 0.69527 0.98622 0.95175 0.0
C891 C 0.6401 0.98326 0.94737 0.0
C892 C 0.70927 0.95975 0.89861 0.0
C893 C 0.76126 0.95127 0.96018 0.0
N894 N 0.66322 0.9761 0.9331 0.0
N895 N 0.74409 0.96919 0.96768 0.0
H896 H 0.84518 0.69661 0.3138 0.0
H897 H 0.95706 0.68301 0.15182 0.0
H898 H 0.86431 0.76145 0.2076 0.0
H899 H 0.89965 0.60158 0.21031 0.0
H900 H 0.92971 0.71337 0.17934 0.0
H901 H 0.87032 0.66405 0.28557 0.0
C902 C 0.85474 0.70439 0.28476 0.0
C903 C 0.85204 0.73259 0.26367 0.0
C904 C 0.92287 0.68888 0.18632 0.0
C905 C 0.88233 0.69445 0.23058 0.0
C906 C 0.93867 0.67119 0.17038 0.0
C907 C 0.93106 0.63894 0.17773 0.0
C908 C 0.89928 0.67513 0.21184 0.0
C909 C 0.90667 0.62599 0.20272 0.0
C910 C 0.86914 0.68542 0.26833 0.0
C911 C 0.86526 0.74032 0.22569 0.0
N912 N 0.8923 0.64385 0.21894 0.0
N913 N 0.87977 0.72198 0.21115 0.0
H914 H 0.3789 0.82801 0.20298 0.0
H915 H 0.45843 1.00334 0.12151 0.0
H916 H 0.34411 0.90087 0.22516 0.0
H917 H 0.50301 0.93166 0.13302 0.0
H918 H 0.41273 0.9665 0.15076 0.0
H919 H 0.42027 0.86547 0.16865 0.0
C920 C 0.37962 0.85182 0.20032 0.0
C921 C 0.35758 0.86094 0.21724 0.0
C922 C 0.43254 0.95891 0.14672 0.0
C923 C 0.40575 0.90472 0.17738 0.0
C924 C 0.45863 0.97997 0.12977 0.0
C925 C 0.48514 0.97099 0.12493 0.0
C926 C 0.43246 0.92836 0.15823 0.0
C927 C 0.48364 0.94013 0.13646 0.0
C928 C 0.40352 0.87339 0.18076 0.0
C929 C 0.36034 0.89249 0.21271 0.0
N930 N 0.4581 0.92026 0.15224 0.0
N931 N 0.38379 0.91308 0.19336 0.0
H932 H 0.68998 0.26438 0.23514 0.0
H933 H 0.61657 0.09236 0.15685 0.0
H934 H 0.73985 0.19687 0.27824 0.0
H935 H 0.57547 0.1657 0.10857 0.0
H936 H 0.65837 0.12722 0.20834 0.0
H937 H 0.64347 0.22514 0.19804 0.0
C938 C 0.69067 0.24095 0.23777 0.0
C939 C 0.71861 0.23377 0.25999 0.0
C940 C 0.64007 0.13555 0.18657 0.0
C941 C 0.66586 0.18869 0.21589 0.0
C942 C 0.61623 0.1157 0.15709 0.0
C943 C 0.5925 0.1261 0.12798 0.0
C944 C 0.64004 0.16596 0.18717 0.0
C945 C 0.5933 0.15659 0.12997 0.0
C946 C 0.66425 0.21858 0.21614 0.0
C947 C 0.71851 0.20319 0.26191 0.0
N948 N 0.61659 0.1753 0.15886 0.0
N949 N 0.69268 0.18178 0.23952 0.0
H950 H 0.70894 0.68829 0.78779 0.0
H951 H 0.64593 0.63299 0.01224 0.0
H952 H 0.75296 0.74244 0.89931 0.0
H953 H 0.59494 0.59672 0.88892 0.0
H954 H 0.68834 0.66971 0.97668 0.0
H955 H 0.67078 0.65265 0.82802 0.0
C956 C 0.71067 0.69297 0.82086 0.0
C957 C 0.73462 0.7191 0.83942 0.0
C958 C 0.66812 0.65342 0.95747 0.0
C959 C 0.68986 0.6767 0.88743 0.0
C960 C 0.644 0.63196 0.978 0.0
C961 C 0.61673 0.61071 0.95407 0.0
C962 C 0.66542 0.65386 0.91237 0.0
C963 C 0.61547 0.6119 0.90929 0.0
C964 C 0.68858 0.67226 0.84409 0.0
C965 C 0.73501 0.72307 0.88293 0.0
N966 N 0.63907 0.63262 0.89041 0.0
N967 N 0.71327 0.70222 0.90527 0.0
H968 H 0.41433 0.77112 0.85935 0.0
H969 H 0.42377 0.59909 0.90461 0.0
H970 H 0.32925 0.69199 0.84818 0.0
H971 H 0.50101 0.67506 0.96425 0.0
H972 H 0.39073 0.63341 0.87744 0.0
H973 H 0.44806 0.73762 0.8911 0.0
C974 C 0.40265 0.74676 0.86348 0.0
C975 C 0.36862 0.73461 0.85092 0.0
C976 C 0.41486 0.64268 0.89652 0.0
C977 C 0.40755 0.69574 0.88697 0.0
C978 C 0.43391 0.62302 0.91207 0.0
C979 C 0.46551 0.63394 0.93694 0.0
C980 C 0.42739 0.67405 0.90479 0.0
C981 C 0.47689 0.66538 0.9454 0.0
C982 C 0.422 0.72761 0.88183 0.0
C983 C 0.3552 0.70268 0.85737 0.0
N984 N 0.45811 0.68426 0.92908 0.0
N985 N 0.37455 0.68455 0.87439 0.0
H986 H 0.37606 0.32373 0.90399 0.0
H987 H 0.49859 0.49418 0.92582 0.0
H988 H 0.39912 0.38386 0.7941 0.0
H989 H 0.49902 0.42347 0.02692 0.0
H990 H 0.45598 0.45675 0.87911 0.0
H991 H 0.41498 0.36288 0.9515 0.0
C992 C 0.38923 0.34526 0.8899 0.0
C993 C 0.38458 0.35056 0.84509 0.0
C994 C 0.46538 0.4495 0.91156 0.0
C995 C 0.42893 0.39546 0.89919 0.0
C996 C 0.48959 0.47086 0.9383 0.0
C997 C 0.50256 0.46189 0.98025 0.0
C998 C 0.45372 0.41908 0.92709 0.0
C999 C 0.48995 0.43134 0.99468 0.0
C1000 C 0.41148 0.36753 0.917 0.0
C1001 C 0.40219 0.37884 0.8285 0.0
N1002 N 0.46623 0.41107 0.96819 0.0
N1003 N 0.4236 0.40028 0.85556 0.0
H1004 H 0.75183 0.4354 0.88246 0.0
H1005 H 0.61655 0.41275 0.02165 0.0
H1006 H 0.67243 0.35307 0.89268 0.0
H1007 H 0.68071 0.50213 0.99472 0.0
H1008 H 0.64531 0.38965 0.98612 0.0
H1009 H 0.73347 0.45935 0.93297 0.0
C1010 C 0.73071 0.42236 0.89557 0.0
C1011 C 0.71329 0.39239 0.88301 0.0
C1012 C 0.6534 0.41431 0.98809 0.0
C1013 C 0.69256 0.41932 0.94071 0.0
C1014 C 0.63702 0.42755 1.00856 0.0
C1015 C 0.646 0.45945 0.01061 0.0
C1016 C 0.67876 0.43303 0.96865 0.0
C1017 C 0.673 0.47743 0.99363 0.0
C1018 C 0.72026 0.43602 0.92423 0.0
C1019 C 0.68618 0.37641 0.90086 0.0
N1020 N 0.68822 0.46397 0.97262 0.0
N1021 N 0.67667 0.39008 0.92865 0.0
H1022 H 0.75081 0.35574 0.18906 0.0
H1023 H 0.65638 0.46958 0.22118 0.0
H1024 H 0.72531 0.35867 0.31056 0.0
H1025 H 0.63603 0.42788 0.09992 0.0
H1026 H 0.68836 0.43519 0.25385 0.0
H1027 H 0.71606 0.38776 0.15538 0.0
C1028 C 0.73802 0.36315 0.20879 0.0
C1029 C 0.74118 0.35429 0.25293 0.0
C1030 C 0.67693 0.43352 0.22008 0.0
C1031 C 0.70151 0.39177 0.21432 0.0
C1032 C 0.65866 0.4533 0.20118 0.0
C1033 C 0.64333 0.45197 0.15732 0.0
C1034 C 0.68097 0.41247 0.195 0.0
C1035 C 0.64733 0.43 0.13361 0.0
C1036 C 0.71801 0.38136 0.18938 0.0
C1037 C 0.72371 0.3647 0.27651 0.0
N1038 N 0.66598 0.4115 0.15249 0.0
N1039 N 0.70509 0.38307 0.25714 0.0
H1040 H 0.72724 0.76055 0.20775 0.0
H1041 H 0.61204 0.58922 0.16381 0.0
H1042 H 0.70812 0.69019 0.30815 0.0
H1043 H 0.60458 0.665 0.07343 0.0
H1044 H 0.65245 0.62522 0.21432 0.0
H1045 H 0.68662 0.72544 0.15543 0.0
C1046 C 0.71435 0.73783 0.21878 0.0
C1047 C 0.72096 0.72828 0.26231 0.0
C1048 C 0.64197 0.63398 0.18342 0.0
C1049 C 0.67508 0.68791 0.20279 0.0
C1050 C 0.61901 0.6134 0.15444 0.0
C1051 C 0.6047 0.62406 0.11433 0.0
C1052 C 0.65113 0.66549 0.17214 0.0
C1053 C 0.61477 0.65574 0.10409 0.0
C1054 C 0.69124 0.7178 0.18897 0.0
C1055 C 0.70369 0.69854 0.27491 0.0
N1056 N 0.6374 0.67532 0.13274 0.0
N1057 N 0.68177 0.67938 0.24531 0.0
H1058 H 0.34552 0.63826 0.18083 0.0
H1059 H 0.47628 0.66726 0.04116 0.0
H1060 H 0.38665 0.72559 0.11852 0.0
H1061 H 0.41949 0.57611 0.07494 0.0
H1062 H 0.43671 0.68765 0.05869 0.0
H1063 H 0.364 0.61333 0.13235 0.0
C1064 C 0.35762 0.65205 0.15609 0.0
C1065 C 0.3654 0.68405 0.15424 0.0
C1066 C 0.43247 0.66312 0.06175 0.0
C1067 C 0.38696 0.65594 0.09941 0.0
C1068 C 0.45519 0.65153 0.05197 0.0
C1069 C 0.45134 0.62014 0.05765 0.0
C1070 C 0.40625 0.64323 0.07868 0.0
C1071 C 0.42336 0.60056 0.07078 0.0
C1072 C 0.36825 0.63785 0.12852 0.0
C1073 C 0.38102 0.70091 0.12166 0.0
N1074 N 0.40216 0.61253 0.08196 0.0
N1075 N 0.39185 0.68671 0.09604 0.0
H1076 H 0.33833 0.36182 0.18242 0.0
H1077 H 0.52324 0.47489 0.20089 0.0
H1078 H 0.41795 0.36204 0.28859 0.0
H1079 H 0.45705 0.46607 0.07816 0.0
H1080 H 0.4812 0.43769 0.23329 0.0
H1081 H 0.37668 0.40173 0.14408 0.0
C1082 C 0.3637 0.37005 0.19786 0.0
C1083 C 0.37439 0.35798 0.23942 0.0
C1084 C 0.47538 0.44383 0.19931 0.0
C1085 C 0.419 0.40468 0.19526 0.0
C1086 C 0.49964 0.46556 0.18049 0.0
C1087 C 0.49442 0.47448 0.1362 0.0
C1088 C 0.4445 0.4299 0.17445 0.0
C1089 C 0.46269 0.46075 0.11239 0.0
C1090 C 0.38573 0.39302 0.17577 0.0
C1091 C 0.40791 0.37012 0.25698 0.0
N1092 N 0.43923 0.43928 0.13161 0.0
N1093 N 0.42842 0.3924 0.23531 0.0
H1094 H 0.84591 0.67267 0.56768 0.0
H1095 H 1.00229 0.61638 0.64435 0.0
H1096 H 0.91549 0.69631 0.68654 0.0
H1097 H 0.94154 0.60001 0.51789 0.0
H1098 H 0.97297 0.64981 0.65667 0.0
H1099 H 0.88199 0.64935 0.5454 0.0
C1100 C 0.86876 0.67294 0.58902 0.0
C1101 C 0.87746 0.68581 0.6294 0.0
C1102 C 0.96602 0.63912 0.62606 0.0
C1103 C 0.91868 0.65945 0.60421 0.0
C1104 C 0.98272 0.61992 0.61909 0.0
C1105 C 0.97372 0.60487 0.58049 0.0
C1106 C 0.93968 0.64293 0.5945 0.0
C1107 C 0.94883 0.6109 0.54838 0.0
C1108 C 0.88935 0.65976 0.57626 0.0
C1109 C 0.90741 0.68586 0.65567 0.0
N1110 N 0.93219 0.62913 0.55638 0.0
N1111 N 0.9268 0.67273 0.64273 0.0
H1112 H 0.5161 0.8718 0.69379 0.0
H1113 H 0.57062 0.0453 0.65277 0.0
H1114 H 0.52139 0.93398 0.78829 0.0
H1115 H 0.59191 0.98355 0.58012 0.0
H1116 H 0.56465 1.00652 0.71156 0.0
H1117 H 0.55697 0.91156 0.66341 0.0
C1118 C 0.52658 0.89343 0.70932 0.0
C1119 C 0.51399 0.8999 0.74252 0.0
C1120 C 0.57135 1.00166 0.68318 0.0
C1121 C 0.56001 0.94616 0.70627 0.0
C1122 C 0.57452 1.02376 0.64941 0.0
C1123 C 0.58059 1.01726 0.61082 0.0
C1124 C 0.57359 0.97266 0.67795 0.0
C1125 C 0.5863 0.98928 0.60879 0.0
C1126 C 0.5499 0.91639 0.69151 0.0
C1127 C 0.5291 0.92844 0.76121 0.0
N1128 N 0.58186 0.96772 0.64144 0.0
N1129 N 0.55048 0.95092 0.74185 0.0
H1130 H 0.24354 0.32326 0.66919 0.0
H1131 H 0.21365 0.48477 0.66849 0.0
H1132 H 0.29086 0.38835 0.76839 0.0
H1133 H 0.14154 0.40917 0.59988 0.0
H1134 H 0.24815 0.45235 0.69478 0.0
H1135 H 0.21232 0.35772 0.63237 0.0
C1136 C 0.24777 0.34502 0.68271 0.0
C1137 C 0.26958 0.35304 0.72192 0.0
C1138 C 0.22476 0.44277 0.67405 0.0
C1139 C 0.23418 0.39199 0.68054 0.0
C1140 C 0.20496 0.46124 0.65907 0.0
C1141 C 0.17447 0.44952 0.63237 0.0
C1142 C 0.21421 0.41229 0.6622 0.0
C1143 C 0.16467 0.41891 0.62101 0.0
C1144 C 0.22978 0.36442 0.662 0.0
C1145 C 0.27406 0.38125 0.7384 0.0
N1146 N 0.18458 0.40123 0.636 0.0
N1147 N 0.25645 0.39966 0.71769 0.0
H1148 H 0.7547 0.2545 0.63657 0.0
H1149 H 0.71684 0.07949 0.58093 0.0
H1150 H 0.76753 0.18625 0.73713 0.0
H1151 H 0.6561 0.13402 0.51522 0.0
H1152 H 0.74623 0.12103 0.63091 0.0
H1153 H 0.72878 0.21376 0.58502 0.0
C1154 C 0.75252 0.23103 0.64798 0.0
C1155 C 0.76404 0.22425 0.6918 0.0
C1156 C 0.72682 0.12408 0.60502 0.0
C1157 C 0.73458 0.1769 0.63169 0.0
C1158 C 0.71018 0.10042 0.57594 0.0
C1159 C 0.6841 0.10307 0.54246 0.0
C1160 C 0.71811 0.15126 0.60049 0.0
C1161 C 0.67642 0.13084 0.53923 0.0
C1162 C 0.73759 0.20768 0.6183 0.0
C1163 C 0.76001 0.19302 0.70392 0.0
N1164 N 0.69332 0.15364 0.56729 0.0
N1165 N 0.74603 0.17075 0.67424 0.0
H1166 H 0.90455 0.35357 0.35176 0.0
H1167 H 0.95535 0.52524 0.42954 0.0
H1168 H 0.83792 0.40596 0.33953 0.0
H1169 H 1.01945 0.46913 0.45706 0.0
H1170 H 0.91468 0.48494 0.38545 0.0
H1171 H 0.94952 0.39879 0.37899 0.0
C1172 C 0.8995 0.37474 0.35393 0.0
C1173 C 0.86748 0.37598 0.3437 0.0
C1174 C 0.9378 0.4816 0.40078 0.0
C1175 C 0.91855 0.42761 0.37518 0.0
C1176 C 0.96112 0.50471 0.42583 0.0
C1177 C 0.99084 0.50058 0.44748 0.0
C1178 C 0.9442 0.45412 0.39715 0.0
C1179 C 0.99679 0.47331 0.44143 0.0
C1180 C 0.9251 0.40049 0.36976 0.0
C1181 C 0.86225 0.40395 0.34739 0.0
N1182 N 0.97366 0.45111 0.41718 0.0
N1183 N 0.88739 0.4285 0.36312 0.0
H1184 H 0.77142 0.85093 0.41023 0.0
H1185 H 0.65304 0.95999 0.34789 0.0
H1186 H 0.7305 0.87264 0.2795 0.0
H1187 H 0.71126 0.95775 0.47505 0.0
H1188 H 0.6785 0.92639 0.32459 0.0
H1189 H 0.74818 0.88618 0.43526 0.0
C1190 C 0.75751 0.86284 0.38635 0.0
C1191 C 0.75347 0.85781 0.34196 0.0
C1192 C 0.68602 0.9331 0.35765 0.0
C1193 C 0.72548 0.89967 0.37176 0.0
C1194 C 0.67126 0.95269 0.37142 0.0
C1195 C 0.67943 0.96287 0.41416 0.0
C1196 C 0.70958 0.922 0.38637 0.0
C1197 C 0.70365 0.9515 0.44184 0.0
C1198 C 0.74412 0.88339 0.40104 0.0
C1199 C 0.73486 0.87495 0.31386 0.0
N1200 N 0.71731 0.93195 0.42776 0.0
N1201 N 0.72177 0.89438 0.32899 0.0
H1202 H 0.21462 0.75332 0.40015 0.0
H1203 H 0.13869 0.57092 0.41886 0.0
H1204 H 0.25367 0.68908 0.36031 0.0
H1205 H 0.12477 0.62571 0.50931 0.0
H1206 H 0.17423 0.61643 0.3896 0.0
H1207 H 0.17671 0.71002 0.43382 0.0
C1208 C 0.21546 0.73029 0.39858 0.0
C1209 C 0.23779 0.72519 0.37723 0.0
C1210 C 0.16344 0.61875 0.41575 0.0
C1211 C 0.19376 0.67528 0.41513 0.0
C1212 C 0.14275 0.59254 0.43263 0.0
C1213 C 0.12832 0.59387 0.46717 0.0
C1214 C 0.1701 0.64741 0.43259 0.0
C1215 C 0.13507 0.6232 0.48279 0.0
C1216 C 0.19377 0.70555 0.41792 0.0
C1217 C 0.23733 0.69459 0.37637 0.0
N1218 N 0.15536 0.64873 0.46541 0.0
N1219 N 0.21574 0.67115 0.39447 0.0
H1220 H 0.3478 0.20589 0.28398 0.0
H1221 H 0.50906 0.17982 0.44389 0.0
H1222 H 0.39937 0.2626 0.3913 0.0
H1223 H 0.43627 0.10801 0.36974 0.0
H1224 H 0.47414 0.21345 0.4191 0.0
H1225 H 0.38387 0.1735 0.30813 0.0
C1226 C 0.36675 0.21183 0.31246 0.0
C1227 C 0.36994 0.23747 0.33531 0.0
C1228 C 0.46582 0.19039 0.408 0.0
C1229 C 0.41261 0.19988 0.36343 0.0
C1230 C 0.48601 0.17107 0.42206 0.0
C1231 C 0.47617 0.14059 0.40907 0.0
C1232 C 0.43538 0.17984 0.37963 0.0
C1233 C 0.44541 0.13106 0.38098 0.0
C1234 C 0.38746 0.19308 0.32644 0.0
C1235 C 0.3954 0.2433 0.37226 0.0
N1236 N 0.42664 0.15036 0.36721 0.0
N1237 N 0.41552 0.22507 0.38473 0.0
H1238 H 0.7197 0.84934 0.76003 0.0
H1239 H 0.72624 0.96343 0.5563 0.0
H1240 H 0.77238 0.84477 0.66413 0.0
H1241 H 0.63457 0.92226 0.59582 0.0
H1242 H 0.74829 0.92619 0.60383 0.0
H1243 H 0.69252 0.88214 0.709 0.0
C1244 C 0.7255 0.85512 0.72833 0.0
C1245 C 0.74828 0.84407 0.71636 0.0
C1246 C 0.72327 0.92512 0.60186 0.0
C1247 C 0.71787 0.88209 0.65839 0.0
C1248 C 0.71063 0.9463 0.57466 0.0
C1249 C 0.67835 0.94565 0.57152 0.0
C1250 C 0.70397 0.90371 0.62759 0.0
C1251 C 0.65941 0.92321 0.5967 0.0
C1252 C 0.70987 0.87368 0.69921 0.0
C1253 C 0.75482 0.85243 0.67477 0.0
N1254 N 0.67262 0.90341 0.6242 0.0
N1255 N 0.74012 0.87118 0.64768 0.0
H1256 H 0.63467 0.26417 0.40351 0.0
H1257 H 0.67876 0.11514 0.43053 0.0
H1258 H 0.67828 0.23116 0.52717 0.0
H1259 H 0.57822 0.10472 0.3727 0.0
H1260 H 0.68528 0.16729 0.44791 0.0
H1261 H 0.61357 0.21181 0.38029 0.0
C1262 C 0.64 0.24635 0.42622 0.0
C1263 C 0.66296 0.25319 0.46529 0.0
C1264 C 0.66195 0.1536 0.43077 0.0
C1265 C 0.63753 0.19337 0.43904 0.0
C1266 C 0.65838 0.12415 0.4201 0.0
C1267 C 0.62775 0.10549 0.40096 0.0
C1268 C 0.63484 0.16433 0.42191 0.0
C1269 C 0.60213 0.11841 0.38814 0.0
C1270 C 0.62768 0.21634 0.4126 0.0
C1271 C 0.66448 0.2281 0.49464 0.0
N1272 N 0.60605 0.14709 0.39944 0.0
N1273 N 0.65374 0.19941 0.4801 0.0
H1274 H 0.94037 0.73877 0.57664 0.0
H1275 H 0.05325 0.66734 0.57402 0.0
H1276 H 0.95502 0.77681 0.45015 0.0
H1277 H 1.00378 0.66082 0.4407 0.0
H1278 H 1.03557 0.71138 0.57914 0.0
H1279 H 0.98242 0.71434 0.58079 0.0
C1280 C 0.95341 0.74298 0.55056 0.0
C1281 C 0.94421 0.75966 0.51297 0.0
C1282 C 1.02913 0.70059 0.54864 0.0
C1283 C 0.99173 0.73161 0.51711 0.0
C1284 C 1.03932 0.67557 0.54545 0.0
C1285 C 1.02933 0.65996 0.50698 0.0
C1286 C 1.00911 0.71019 0.51303 0.0
C1287 C 1.01157 0.67189 0.47109 0.0
C1288 C 0.97744 0.72914 0.55293 0.0
C1289 C 0.96155 0.76424 0.47981 0.0
N1290 N 1.00168 0.69621 0.47512 0.0
N1291 N 0.98382 0.74945 0.48207 0.0
H1292 H 0.34091 0.88138 0.34363 0.0
H1293 H 0.51988 0.95666 0.46817 0.0
H1294 H 0.39181 0.8267 0.43239 0.0
H1295 H 0.45043 1.00693 0.42709 0.0
H1296 H 0.47534 0.90869 0.45325 0.0
H1297 H 0.38207 0.92757 0.37211 0.0
C1298 C 0.36028 0.87907 0.37008 0.0
C1299 C 0.36241 0.85006 0.38632 0.0
C1300 C 0.46995 0.93027 0.44798 0.0
C1301 C 0.41096 0.9032 0.41761 0.0
C1302 C 0.49535 0.95767 0.4562 0.0
C1303 C 0.48904 0.98601 0.44856 0.0
C1304 C 0.43813 0.93126 0.4313 0.0
C1305 C 0.45665 0.98578 0.4334 0.0
C1306 C 0.38404 0.90554 0.38602 0.0
C1307 C 0.38896 0.8486 0.41935 0.0
N1308 N 0.43259 0.95896 0.42483 0.0
N1309 N 0.41252 0.87484 0.43351 0.0
H1310 H 0.30284 0.41487 0.53673 0.0
H1311 H 0.11988 0.41813 0.48744 0.0
H1312 H 0.22053 0.34542 0.47047 0.0
H1313 H 0.20145 0.49286 0.54287 0.0
H1314 H 0.1559 0.38704 0.49404 0.0
H1315 H 0.26545 0.43899 0.55335 0.0
C1316 C 0.27694 0.40443 0.52628 0.0
C1317 C 0.26485 0.37841 0.50147 0.0
C1318 C 0.16599 0.4102 0.50493 0.0
C1319 C 0.22215 0.40582 0.52023 0.0
C1320 C 0.14546 0.42806 0.50082 0.0
C1321 C 0.15785 0.45829 0.51386 0.0
C1322 C 0.19929 0.42275 0.52171 0.0
C1323 C 0.19105 0.46974 0.53191 0.0
C1324 C 0.25565 0.41817 0.53583 0.0
C1325 C 0.23107 0.36541 0.48969 0.0
N1326 N 0.21075 0.45201 0.53493 0.0
N1327 N 0.21096 0.37952 0.49862 0.0
H1328 H 0.3722 0.14965 0.62678 0.0
H1329 H 0.54265 0.16968 0.56103 0.0
H1330 H 0.45297 0.23282 0.64073 0.0
H1331 H 0.46006 0.08919 0.53301 0.0
H1332 H 0.5097 0.19254 0.5901 0.0
H1333 H 0.40314 0.1269 0.59307 0.0
C1334 C 0.3963 0.16334 0.62271 0.0
C1335 C 0.40966 0.1935 0.63706 0.0
C1336 C 0.49859 0.16992 0.57752 0.0
C1337 C 0.44576 0.16696 0.5984 0.0
C1338 C 0.51749 0.15674 0.56075 0.0
C1339 C 0.50438 0.1272 0.54452 0.0
C1340 C 0.46602 0.15361 0.57868 0.0
C1341 C 0.47139 0.11194 0.54507 0.0
C1342 C 0.41408 0.15013 0.60349 0.0
C1343 C 0.44147 0.20945 0.63118 0.0
N1344 N 0.4535 0.12517 0.56209 0.0
N1345 N 0.45821 0.19606 0.61253 0.0
H1346 H 0.84475 0.36756 0.69204 0.0
H1347 H 1.02754 0.4512 0.66119 0.0
H1348 H 0.91969 0.32677 0.75222 0.0
H1349 H 0.94181 0.4589 0.57061 0.0
H1350 H 0.99222 0.4086 0.69979 0.0
H1351 H 0.88307 0.40489 0.65359 0.0
C1352 C 0.86931 0.36635 0.69728 0.0
C1353 C 0.87865 0.34362 0.72557 0.0
C1354 C 0.98135 0.41955 0.67118 0.0
C1355 C 0.92363 0.38738 0.68125 0.0
C1356 C 1.00157 0.44382 0.64894 0.0
C1357 C 0.98794 0.45925 0.61248 0.0
C1358 C 0.94722 0.41086 0.65724 0.0
C1359 C 0.95386 0.44841 0.59869 0.0
C1360 C 0.89133 0.38779 0.67505 0.0
C1361 C 0.91114 0.34363 0.7306 0.0
N1362 N 0.93502 0.42552 0.62109 0.0
N1363 N 0.93247 0.36523 0.70904 0.0
H1364 H 0.27343 0.69979 0.76244 0.0
H1365 H 0.11484 0.6106 0.60363 0.0
H1366 H 0.232 0.74863 0.65289 0.0
H1367 H 0.1938 0.57255 0.6511 0.0
H1368 H 0.15014 0.66022 0.6321 0.0
H1369 H 0.23661 0.65141 0.73316 0.0
C1370 C 0.25648 0.70034 0.73225 0.0
C1371 C 0.25595 0.72825 0.70977 0.0
C1372 C 0.15957 0.64092 0.63631 0.0
C1373 C 0.21338 0.67295 0.67668 0.0
C1374 C 0.13943 0.6126 0.6205 0.0
C1375 C 0.15141 0.58744 0.62545 0.0
C1376 C 0.19151 0.64372 0.65822 0.0
C1377 C 0.18368 0.59141 0.64676 0.0
C1378 C 0.2356 0.67273 0.71558 0.0
C1379 C 0.23335 0.72757 0.67093 0.0
N1380 N 0.2025 0.61891 0.66285 0.0
N1381 N 0.21271 0.70029 0.65566 0.0
loop_
_geom_bond_atom_site_label_1
_geom_bond_atom_site_label_2
_geom_bond_distance
_geom_bond_site_symmetry_2
_ccdc_geom_bond_type
C0 Eu1 2.835 . S
C0 C2 1.500 . S
C0 O20 1.257 . S
C0 O21 1.260 . S
Eu1 C0 2.835 . S
Eu1 O20 2.473 . S
Eu1 O21 2.480 . S
Eu1 O22 2.430 . S
Eu1 O23 2.670 . S
Eu1 O24 2.394 . S
Eu1 O29 2.355 . S
Eu1 O31 2.374 . S
C2 C0 1.500 . S
C2 C3 1.377 . S
C2 C7 1.377 . S
C3 C2 1.377 . S
C3 C4 1.395 . S
C3 H32 0.931 . S
C4 C3 1.395 . S
C4 C5 1.383 . S
C4 H33 0.931 . S
C5 C4 1.383 . S
C5 C6 1.394 . S
C6 C5 1.394 . S
C6 C7 1.378 . S
C6 H34 0.931 . S
C7 C2 1.377 . S
C7 C6 1.378 . S
C7 H35 0.931 . S
C8 O22 1.259 . S
C8 O23 1.270 . S
C9 O24 1.251 . S
C9 O25 1.251 . S
C10 Eu11 2.835 . S
C10 C12 1.500 . S
C10 O26 1.257 . S
C10 O27 1.260 . S
Eu11 C10 2.835 . S
Eu11 O23 2.355 . S
Eu11 O25 2.374 . S
Eu11 O26 2.473 . S
Eu11 O27 2.480 . S
Eu11 O28 2.430 . S
Eu11 O29 2.670 . S
Eu11 O30 2.394 . S
C12 C10 1.500 . S
C12 C13 1.377 . S
C12 C17 1.377 . S
C13 C12 1.377 . S
C13 C14 1.395 . S
C13 H36 0.931 . S
C14 C13 1.395 . S
C14 C15 1.383 . S
C14 H37 0.931 . S
C15 C14 1.383 . S
C15 C16 1.394 . S
C16 C15 1.394 . S
C16 C17 1.378 . S
C16 H38 0.931 . S
C17 C12 1.377 . S
C17 C16 1.378 . S
C17 H39 0.931 . S
C18 O28 1.259 . S
C18 O29 1.270 . S
C19 O30 1.251 . S
C19 O31 1.251 . S
O20 C0 1.257 . S
O20 Eu1 2.473 . S
O21 C0 1.260 . S
O21 Eu1 2.480 . S
O22 Eu1 2.430 . S
O22 C8 1.259 . S
O23 Eu1 2.670 . S
O23 C8 1.270 . S
O23 Eu11 2.355 . S
O24 Eu1 2.394 . S
O24 C9 1.251 . S
O25 C9 1.251 . S
O25 Eu11 2.374 . S
O26 C10 1.257 . S
O26 Eu11 2.473 . S
O27 C10 1.260 . S
O27 Eu11 2.480 . S
O28 Eu11 2.430 . S
O28 C18 1.259 . S
O29 Eu1 2.355 . S
O29 Eu11 2.670 . S
O29 C18 1.270 . S
O30 Eu11 2.394 . S
O30 C19 1.251 . S
O31 Eu1 2.374 . S
O31 C19 1.251 . S
H32 C3 0.931 . S
H33 C4 0.931 . S
H34 C6 0.931 . S
H35 C7 0.931 . S
H36 C13 0.931 . S
H37 C14 0.931 . S
H38 C16 0.931 . S
H39 C17 0.931 . S
C40 Eu41 2.835 . S
C40 C42 1.500 . S
C40 O60 1.257 . S
C40 O61 1.260 . S
Eu41 C40 2.835 . S
Eu41 O60 2.473 . S
Eu41 O61 2.480 . S
Eu41 O62 2.430 . S
Eu41 O63 2.670 . S
Eu41 O64 2.394 . S
Eu41 O69 2.355 . S
Eu41 O71 2.374 . S
C42 C40 1.500 . S
C42 C43 1.377 . S
C42 C47 1.377 . S
C43 C42 1.377 . S
C43 C44 1.395 . S
C43 H72 0.931 . S
C44 C43 1.395 . S
C44 C45 1.383 . S
C44 H73 0.931 . S
C45 C44 1.383 . S
C45 C46 1.394 . S
C46 C45 1.394 . S
C46 C47 1.378 . S
C46 H74 0.931 . S
C47 C42 1.377 . S
C47 C46 1.378 . S
C47 H75 0.931 . S
C48 O62 1.259 . S
C48 O63 1.270 . S
C49 O64 1.251 . S
C49 O65 1.251 . S
C50 Eu51 2.835 . S
C50 C52 1.500 . S
C50 O66 1.257 . S
C50 O67 1.260 . S
Eu51 C50 2.835 . S
Eu51 O63 2.355 . S
Eu51 O65 2.374 . S
Eu51 O66 2.473 . S
Eu51 O67 2.480 . S
Eu51 O68 2.430 . S
Eu51 O69 2.670 . S
Eu51 O70 2.394 . S
C52 C50 1.500 . S
C52 C53 1.377 . S
C52 C57 1.377 . S
C53 C52 1.377 . S
C53 C54 1.395 . S
C53 H76 0.931 . S
C54 C53 1.395 . S
C54 C55 1.383 . S
C54 H77 0.931 . S
C55 C54 1.383 . S
C55 C56 1.394 . S
C56 C55 1.394 . S
C56 C57 1.378 . S
C56 H78 0.931 . S
C57 C52 1.377 . S
C57 C56 1.378 . S
C57 H79 0.931 . S
C58 O68 1.259 . S
C58 O69 1.270 . S
C59 O70 1.251 . S
C59 O71 1.251 . S
O60 C40 1.257 . S
O60 Eu41 2.473 . S
O61 C40 1.260 . S
O61 Eu41 2.480 . S
O62 Eu41 2.430 . S
O62 C48 1.259 . S
O63 Eu41 2.670 . S
O63 C48 1.270 . S
O63 Eu51 2.355 . S
O64 Eu41 2.394 . S
O64 C49 1.251 . S
O65 C49 1.251 . S
O65 Eu51 2.374 . S
O66 C50 1.257 . S
O66 Eu51 2.473 . S
O67 C50 1.260 . S
O67 Eu51 2.480 . S
O68 Eu51 2.430 . S
O68 C58 1.259 . S
O69 Eu41 2.355 . S
O69 Eu51 2.670 . S
O69 C58 1.270 . S
O70 Eu51 2.394 . S
O70 C59 1.251 . S
O71 Eu41 2.374 . S
O71 C59 1.251 . S
H72 C43 0.931 . S
H73 C44 0.931 . S
H74 C46 0.931 . S
H75 C47 0.931 . S
H76 C53 0.931 . S
H77 C54 0.931 . S
H78 C56 0.931 . S
H79 C57 0.931 . S
C80 Eu81 2.835 . S
C80 C82 1.500 . S
C80 O100 1.257 . S
C80 O101 1.260 . S
Eu81 C80 2.835 . S
Eu81 O100 2.473 . S
Eu81 O101 2.480 . S
Eu81 O102 2.430 . S
Eu81 O103 2.670 . S
Eu81 O104 2.394 . S
Eu81 O109 2.355 . S
Eu81 O111 2.374 . S
C82 C80 1.500 . S
C82 C83 1.377 . S
C82 C87 1.377 . S
C83 C82 1.377 . S
C83 C84 1.395 . S
C83 H112 0.931 . S
C84 C83 1.395 . S
C84 C85 1.383 . S
C84 H113 0.931 . S
C85 C84 1.383 . S
C85 C86 1.394 . S
C86 C85 1.394 . S
C86 C87 1.378 . S
C86 H114 0.931 . S
C87 C82 1.377 . S
C87 C86 1.378 . S
C87 H115 0.931 . S
C88 O102 1.259 . S
C88 O103 1.270 . S
C89 O104 1.251 . S
C89 O105 1.251 . S
C90 Eu91 2.835 . S
C90 C92 1.500 . S
C90 O106 1.257 . S
C90 O107 1.260 . S
Eu91 C90 2.835 . S
Eu91 O103 2.355 . S
Eu91 O105 2.374 . S
Eu91 O106 2.473 . S
Eu91 O107 2.480 . S
Eu91 O108 2.430 . S
Eu91 O109 2.670 . S
Eu91 O110 2.394 . S
C92 C90 1.500 . S
C92 C93 1.377 . S
C92 C97 1.377 . S
C93 C92 1.377 . S
C93 C94 1.395 . S
C93 H116 0.931 . S
C94 C93 1.395 . S
C94 C95 1.383 . S
C94 H117 0.931 . S
C95 C94 1.383 . S
C95 C96 1.394 . S
C96 C95 1.394 . S
C96 C97 1.378 . S
C96 H118 0.931 . S
C97 C92 1.377 . S
C97 C96 1.378 . S
C97 H119 0.931 . S
C98 O108 1.259 . S
C98 O109 1.270 . S
C99 O110 1.251 . S
C99 O111 1.251 . S
O100 C80 1.257 . S
O100 Eu81 2.473 . S
O101 C80 1.260 . S
O101 Eu81 2.480 . S
O102 Eu81 2.430 . S
O102 C88 1.259 . S
O103 Eu81 2.670 . S
O103 C88 1.270 . S
O103 Eu91 2.355 . S
O104 Eu81 2.394 . S
O104 C89 1.251 . S
O105 C89 1.251 . S
O105 Eu91 2.374 . S
O106 C90 1.257 . S
O106 Eu91 2.473 . S
O107 C90 1.260 . S
O107 Eu91 2.480 . S
O108 Eu91 2.430 . S
O108 C98 1.259 . S
O109 Eu81 2.355 . S
O109 Eu91 2.670 . S
O109 C98 1.270 . S
O110 Eu91 2.394 . S
O110 C99 1.251 . S
O111 Eu81 2.374 . S
O111 C99 1.251 . S
H112 C83 0.931 . S
H113 C84 0.931 . S
H114 C86 0.931 . S
H115 C87 0.931 . S
H116 C93 0.931 . S
H117 C94 0.931 . S
H118 C96 0.931 . S
H119 C97 0.931 . S
C120 Eu121 2.835 . S
C120 C122 1.500 . S
C120 O140 1.257 . S
C120 O141 1.260 . S
Eu121 C120 2.835 . S
Eu121 O140 2.473 . S
Eu121 O141 2.480 . S
Eu121 O142 2.430 . S
Eu121 O143 2.670 . S
Eu121 O144 2.394 . S
Eu121 O149 2.355 . S
Eu121 O151 2.374 . S
C122 C120 1.500 . S
C122 C123 1.377 . S
C122 C127 1.377 . S
C123 C122 1.377 . S
C123 C124 1.395 . S
C123 H152 0.931 . S
C124 C123 1.395 . S
C124 C125 1.383 . S
C124 H153 0.931 . S
C125 C124 1.383 . S
C125 C126 1.394 . S
C126 C125 1.394 . S
C126 C127 1.378 . S
C126 H154 0.931 . S
C127 C122 1.377 . S
C127 C126 1.378 . S
C127 H155 0.931 . S
C128 O142 1.259 . S
C128 O143 1.270 . S
C129 O144 1.251 . S
C129 O145 1.251 . S
C130 Eu131 2.835 . S
C130 C132 1.500 . S
C130 O146 1.257 . S
C130 O147 1.260 . S
Eu131 C130 2.835 . S
Eu131 O143 2.355 . S
Eu131 O145 2.374 . S
Eu131 O146 2.473 . S
Eu131 O147 2.480 . S
Eu131 O148 2.430 . S
Eu131 O149 2.670 . S
Eu131 O150 2.394 . S
C132 C130 1.500 . S
C132 C133 1.377 . S
C132 C137 1.377 . S
C133 C132 1.377 . S
C133 C134 1.395 . S
C133 H156 0.931 . S
C134 C133 1.395 . S
C134 C135 1.383 . S
C134 H157 0.931 . S
C135 C134 1.383 . S
C135 C136 1.394 . S
C136 C135 1.394 . S
C136 C137 1.378 . S
C136 H158 0.931 . S
C137 C132 1.377 . S
C137 C136 1.378 . S
C137 H159 0.931 . S
C138 O148 1.259 . S
C138 O149 1.270 . S
C139 O150 1.251 . S
C139 O151 1.251 . S
O140 C120 1.257 . S
O140 Eu121 2.473 . S
O141 C120 1.260 . S
O141 Eu121 2.480 . S
O142 Eu121 2.430 . S
O142 C128 1.259 . S
O143 Eu121 2.670 . S
O143 C128 1.270 . S
O143 Eu131 2.355 . S
O144 Eu121 2.394 . S
O144 C129 1.251 . S
O145 C129 1.251 . S
O145 Eu131 2.374 . S
O146 C130 1.257 . S
O146 Eu131 2.473 . S
O147 C130 1.260 . S
O147 Eu131 2.480 . S
O148 Eu131 2.430 . S
O148 C138 1.259 . S
O149 Eu121 2.355 . S
O149 Eu131 2.670 . S
O149 C138 1.270 . S
O150 Eu131 2.394 . S
O150 C139 1.251 . S
O151 Eu121 2.374 . S
O151 C139 1.251 . S
H152 C123 0.931 . S
H153 C124 0.931 . S
H154 C126 0.931 . S
H155 C127 0.931 . S
H156 C133 0.931 . S
H157 C134 0.931 . S
H158 C136 0.931 . S
H159 C137 0.931 . S
C160 Eu161 2.835 . S
C160 C162 1.500 . S
C160 O180 1.257 . S
C160 O181 1.260 . S
Eu161 C160 2.835 . S
Eu161 O180 2.473 . S
Eu161 O181 2.480 . S
Eu161 O182 2.430 . S
Eu161 O183 2.670 . S
Eu161 O184 2.394 . S
Eu161 O189 2.355 . S
Eu161 O191 2.374 . S
C162 C160 1.500 . S
C162 C163 1.377 . S
C162 C167 1.377 . S
C163 C162 1.377 . S
C163 C164 1.395 . S
C163 H192 0.931 . S
C164 C163 1.395 . S
C164 C165 1.383 . S
C164 H193 0.931 . S
C165 C164 1.383 . S
C165 C166 1.394 . S
C166 C165 1.394 . S
C166 C167 1.378 . S
C166 H194 0.931 . S
C167 C162 1.377 . S
C167 C166 1.378 . S
C167 H195 0.931 . S
C168 O182 1.259 . S
C168 O183 1.270 . S
C169 O184 1.251 . S
C169 O185 1.251 . S
C170 Eu171 2.835 . S
C170 C172 1.500 . S
C170 O186 1.257 . S
C170 O187 1.260 . S
Eu171 C170 2.835 . S
Eu171 O183 2.355 . S
Eu171 O185 2.374 . S
Eu171 O186 2.473 . S
Eu171 O187 2.480 . S
Eu171 O188 2.430 . S
Eu171 O189 2.670 . S
Eu171 O190 2.394 . S
C172 C170 1.500 . S
C172 C173 1.377 . S
C172 C177 1.377 . S
C173 C172 1.377 . S
C173 C174 1.395 . S
C173 H196 0.931 . S
C174 C173 1.395 . S
C174 C175 1.383 . S
C174 H197 0.931 1_556 S
C175 C174 1.383 . S
C175 C176 1.394 . S
C176 C175 1.394 . S
C176 C177 1.378 . S
C176 H198 0.931 . S
C177 C172 1.377 . S
C177 C176 1.378 . S
C177 H199 0.931 . S
C178 O188 1.259 . S
C178 O189 1.270 . S
C179 O190 1.251 . S
C179 O191 1.251 . S
O180 C160 1.257 . S
O180 Eu161 2.473 . S
O181 C160 1.260 . S
O181 Eu161 2.480 . S
O182 Eu161 2.430 . S
O182 C168 1.259 . S
O183 Eu161 2.670 . S
O183 C168 1.270 . S
O183 Eu171 2.355 . S
O184 Eu161 2.394 . S
O184 C169 1.251 . S
O185 C169 1.251 . S
O185 Eu171 2.374 . S
O186 C170 1.257 . S
O186 Eu171 2.473 . S
O187 C170 1.260 . S
O187 Eu171 2.480 . S
O188 Eu171 2.430 . S
O188 C178 1.259 . S
O189 Eu161 2.355 . S
O189 Eu171 2.670 . S
O189 C178 1.270 . S
O190 Eu171 2.394 . S
O190 C179 1.251 . S
O191 Eu161 2.374 . S
O191 C179 1.251 . S
H192 C163 0.931 . S
H193 C164 0.931 . S
H194 C166 0.931 . S
H195 C167 0.931 . S
H196 C173 0.931 . S
H197 C174 0.931 1_554 S
H198 C176 0.931 . S
H199 C177 0.931 . S
C200 Eu201 2.835 . S
C200 C202 1.500 . S
C200 O220 1.257 . S
C200 O221 1.260 . S
Eu201 C200 2.835 . S
Eu201 O220 2.473 . S
Eu201 O221 2.480 . S
Eu201 O222 2.430 . S
Eu201 O223 2.670 . S
Eu201 O224 2.394 . S
Eu201 O229 2.355 . S
Eu201 O231 2.374 . S
C202 C200 1.500 . S
C202 C203 1.377 . S
C202 C207 1.377 . S
C203 C202 1.377 . S
C203 C204 1.395 . S
C203 H232 0.931 . S
C204 C203 1.395 . S
C204 C205 1.383 . S
C204 H233 0.931 . S
C205 C204 1.383 . S
C205 C206 1.394 . S
C206 C205 1.394 . S
C206 C207 1.378 . S
C206 H234 0.931 . S
C207 C202 1.377 . S
C207 C206 1.378 . S
C207 H235 0.931 . S
C208 O222 1.259 . S
C208 O223 1.270 . S
C209 O224 1.251 . S
C209 O225 1.251 . S
C210 Eu211 2.835 . S
C210 C212 1.500 . S
C210 O226 1.257 . S
C210 O227 1.260 . S
Eu211 C210 2.835 . S
Eu211 O223 2.355 . S
Eu211 O225 2.374 . S
Eu211 O226 2.473 . S
Eu211 O227 2.480 . S
Eu211 O228 2.430 . S
Eu211 O229 2.670 . S
Eu211 O230 2.394 . S
C212 C210 1.500 . S
C212 C213 1.377 . S
C212 C217 1.377 . S
C213 C212 1.377 . S
C213 C214 1.395 . S
C213 H236 0.931 . S
C214 C213 1.395 . S
C214 C215 1.383 . S
C214 H237 0.931 . S
C215 C214 1.383 . S
C215 C216 1.394 . S
C216 C215 1.394 . S
C216 C217 1.378 . S
C216 H238 0.931 . S
C217 C212 1.377 . S
C217 C216 1.378 . S
C217 H239 0.931 . S
C218 O228 1.259 . S
C218 O229 1.270 . S
C219 O230 1.251 . S
C219 O231 1.251 . S
O220 C200 1.257 . S
O220 Eu201 2.473 . S
O221 C200 1.260 . S
O221 Eu201 2.480 . S
O222 Eu201 2.430 . S
O222 C208 1.259 . S
O223 Eu201 2.670 . S
O223 C208 1.270 . S
O223 Eu211 2.355 . S
O224 Eu201 2.394 . S
O224 C209 1.251 . S
O225 C209 1.251 . S
O225 Eu211 2.374 . S
O226 C210 1.257 . S
O226 Eu211 2.473 . S
O227 C210 1.260 . S
O227 Eu211 2.480 . S
O228 Eu211 2.430 . S
O228 C218 1.259 . S
O229 Eu201 2.355 . S
O229 Eu211 2.670 . S
O229 C218 1.270 . S
O230 Eu211 2.394 . S
O230 C219 1.251 . S
O231 Eu201 2.374 . S
O231 C219 1.251 . S
H232 C203 0.931 . S
H233 C204 0.931 . S
H234 C206 0.931 . S
H235 C207 0.931 . S
H236 C213 0.931 . S
H237 C214 0.931 . S
H238 C216 0.931 . S
H239 C217 0.931 . S
C240 Eu241 2.835 . S
C240 C242 1.500 . S
C240 O260 1.257 . S
C240 O261 1.260 . S
Eu241 C240 2.835 . S
Eu241 O260 2.473 . S
Eu241 O261 2.480 . S
Eu241 O262 2.430 . S
Eu241 O263 2.670 . S
Eu241 O264 2.394 . S
Eu241 O269 2.355 . S
Eu241 O271 2.374 . S
C242 C240 1.500 . S
C242 C243 1.377 . S
C242 C247 1.377 . S
C243 C242 1.377 . S
C243 C244 1.395 . S
C243 H272 0.931 . S
C244 C243 1.395 . S
C244 C245 1.383 . S
C244 H273 0.931 . S
C245 C244 1.383 . S
C245 C246 1.394 . S
C246 C245 1.394 . S
C246 C247 1.378 . S
C246 H274 0.931 . S
C247 C242 1.377 . S
C247 C246 1.378 . S
C247 H275 0.931 . S
C248 O262 1.259 . S
C248 O263 1.270 . S
C249 O264 1.251 . S
C249 O265 1.251 . S
C250 Eu251 2.835 . S
C250 C252 1.500 . S
C250 O266 1.257 . S
C250 O267 1.260 . S
Eu251 C250 2.835 . S
Eu251 O263 2.355 . S
Eu251 O265 2.374 . S
Eu251 O266 2.473 . S
Eu251 O267 2.480 . S
Eu251 O268 2.430 . S
Eu251 O269 2.670 . S
Eu251 O270 2.394 . S
C252 C250 1.500 . S
C252 C253 1.377 . S
C252 C257 1.377 . S
C253 C252 1.377 . S
C253 C254 1.395 . S
C253 H276 0.931 . S
C254 C253 1.395 . S
C254 C255 1.383 . S
C254 H277 0.931 . S
C255 C254 1.383 . S
C255 C256 1.394 . S
C256 C255 1.394 . S
C256 C257 1.378 . S
C256 H278 0.931 . S
C257 C252 1.377 . S
C257 C256 1.378 . S
C257 H279 0.931 . S
C258 O268 1.259 . S
C258 O269 1.270 . S
C259 O270 1.251 . S
C259 O271 1.251 . S
O260 C240 1.257 . S
O260 Eu241 2.473 . S
O261 C240 1.260 . S
O261 Eu241 2.480 . S
O262 Eu241 2.430 . S
O262 C248 1.259 . S
O263 Eu241 2.670 . S
O263 C248 1.270 . S
O263 Eu251 2.355 . S
O264 Eu241 2.394 . S
O264 C249 1.251 . S
O265 C249 1.251 . S
O265 Eu251 2.374 . S
O266 C250 1.257 . S
O266 Eu251 2.473 . S
O267 C250 1.260 . S
O267 Eu251 2.480 . S
O268 Eu251 2.430 . S
O268 C258 1.259 . S
O269 Eu241 2.355 . S
O269 Eu251 2.670 . S
O269 C258 1.270 . S
O270 Eu251 2.394 . S
O270 C259 1.251 . S
O271 Eu241 2.374 . S
O271 C259 1.251 . S
H272 C243 0.931 . S
H273 C244 0.931 . S
H274 C246 0.931 . S
H275 C247 0.931 . S
H276 C253 0.931 . S
H277 C254 0.931 . S
H278 C256 0.931 . S
H279 C257 0.931 . S
C280 Eu281 2.835 . S
C280 C282 1.500 . S
C280 O300 1.257 . S
C280 O301 1.260 . S
Eu281 C280 2.835 . S
Eu281 O300 2.473 . S
Eu281 O301 2.480 . S
Eu281 O302 2.430 . S
Eu281 O303 2.670 . S
Eu281 O304 2.394 . S
Eu281 O309 2.355 . S
Eu281 O311 2.374 . S
C282 C280 1.500 . S
C282 C283 1.377 . S
C282 C287 1.377 . S
C283 C282 1.377 . S
C283 C284 1.395 . S
C283 H312 0.931 . S
C284 C283 1.395 . S
C284 C285 1.383 . S
C284 H313 0.931 . S
C285 C284 1.383 . S
C285 C286 1.394 . S
C286 C285 1.394 . S
C286 C287 1.378 . S
C286 H314 0.931 . S
C287 C282 1.377 . S
C287 C286 1.378 . S
C287 H315 0.931 . S
C288 O302 1.259 . S
C288 O303 1.270 . S
C289 O304 1.251 . S
C289 O305 1.251 . S
C290 Eu291 2.835 . S
C290 C292 1.500 . S
C290 O306 1.257 . S
C290 O307 1.260 . S
Eu291 C290 2.835 . S
Eu291 O303 2.355 . S
Eu291 O305 2.374 . S
Eu291 O306 2.473 . S
Eu291 O307 2.480 . S
Eu291 O308 2.430 . S
Eu291 O309 2.670 . S
Eu291 O310 2.394 . S
C292 C290 1.500 . S
C292 C293 1.377 . S
C292 C297 1.377 . S
C293 C292 1.377 . S
C293 C294 1.395 . S
C293 H316 0.931 . S
C294 C293 1.395 . S
C294 C295 1.383 . S
C294 H317 0.931 . S
C295 C294 1.383 . S
C295 C296 1.394 . S
C296 C295 1.394 . S
C296 C297 1.378 . S
C296 H318 0.931 . S
C297 C292 1.377 . S
C297 C296 1.378 . S
C297 H319 0.931 . S
C298 O308 1.259 . S
C298 O309 1.270 . S
C299 O310 1.251 . S
C299 O311 1.251 . S
O300 C280 1.257 . S
O300 Eu281 2.473 . S
O301 C280 1.260 . S
O301 Eu281 2.480 . S
O302 Eu281 2.430 . S
O302 C288 1.259 . S
O303 Eu281 2.670 . S
O303 C288 1.270 . S
O303 Eu291 2.355 . S
O304 Eu281 2.394 . S
O304 C289 1.251 . S
O305 C289 1.251 . S
O305 Eu291 2.374 . S
O306 C290 1.257 . S
O306 Eu291 2.473 . S
O307 C290 1.260 . S
O307 Eu291 2.480 . S
O308 Eu291 2.430 . S
O308 C298 1.259 . S
O309 Eu281 2.355 . S
O309 Eu291 2.670 . S
O309 C298 1.270 . S
O310 Eu291 2.394 . S
O310 C299 1.251 . S
O311 Eu281 2.374 . S
O311 C299 1.251 . S
H312 C283 0.931 . S
H313 C284 0.931 . S
H314 C286 0.931 . S
H315 C287 0.931 . S
H316 C293 0.931 . S
H317 C294 0.931 . S
H318 C296 0.931 . S
H319 C297 0.931 . S
Co320 O323 2.042 . S
Co320 O330 2.264 . S
Co320 O349 2.286 . S
Co320 O350 2.069 . S
Co320 O352 2.015 1_455 S
Co321 O323 2.122 . S
Co321 O329 2.073 . S
Co321 O330 2.327 . S
Co321 O331 1.976 1_455 S
Co322 O323 2.087 1_545 S
Co322 O325 2.087 1_455 S
Co322 O332 2.111 1_445 S
Co322 O333 2.143 . S
Co322 O337 2.111 . S
Co322 O351 2.143 1_445 S
O323 Co320 2.042 . S
O323 Co321 2.122 . S
O323 Co322 2.087 1_565 S
O323 H324 0.980 1_565 S
H324 O323 0.980 1_545 S
O325 Co322 2.087 1_655 S
O325 Co326 2.042 . S
O325 Co327 2.122 . S
O325 H328 0.980 . S
Co326 O325 2.042 . S
Co326 O334 2.286 . S
Co326 O335 2.069 . S
Co326 O336 2.015 1_655 S
Co326 O339 2.264 . S
Co327 O325 2.122 . S
Co327 O338 1.976 1_655 S
Co327 O339 2.327 . S
Co327 O340 2.073 . S
H328 O325 0.980 . S
O329 Co321 2.073 . S
O329 C344 1.245 . S
O330 Co320 2.264 . S
O330 Co321 2.327 . S
O330 C344 1.257 . S
O331 Co321 1.976 1_655 S
O331 C343 1.251 . S
O332 Co322 2.111 1_665 S
O332 C343 1.274 . S
O333 Co322 2.143 . S
O333 C346 1.246 . S
O334 Co326 2.286 . S
O334 C345 1.259 . S
O335 Co326 2.069 . S
O335 C345 1.289 . S
O336 Co326 2.015 1_455 S
O336 C346 1.257 . S
O337 Co322 2.111 . S
O337 C347 1.274 . S
O338 Co327 1.976 1_455 S
O338 C347 1.251 . S
O339 Co326 2.264 . S
O339 Co327 2.327 . S
O339 C348 1.257 . S
O340 Co327 2.073 . S
O340 C348 1.245 . S
C341 O349 1.259 . S
C341 O350 1.289 . S
C342 O351 1.246 . S
C342 O352 1.257 . S
C343 O331 1.251 . S
C343 O332 1.274 . S
C344 O329 1.245 . S
C344 O330 1.257 . S
C345 O334 1.259 . S
C345 O335 1.289 . S
C346 O333 1.246 . S
C346 O336 1.257 . S
C347 O337 1.274 . S
C347 O338 1.251 . S
C348 O339 1.257 . S
C348 O340 1.245 . S
O349 Co320 2.286 . S
O349 C341 1.259 . S
O350 Co320 2.069 . S
O350 C341 1.289 . S
O351 Co322 2.143 1_665 S
O351 C342 1.246 . S
O352 Co320 2.015 1_655 S
O352 C342 1.257 . S
Co353 O356 2.042 1_566 S
Co353 O363 2.264 1_556 S
Co353 O382 2.286 . S
Co353 O383 2.069 . S
Co353 O385 2.015 . S
Co354 O356 2.122 1_565 S
Co354 O362 2.073 . S
Co354 O363 2.327 . S
Co354 O364 1.976 . S
Co355 O356 2.087 . S
Co355 O358 2.087 1_554 S
Co355 O365 2.111 . S
Co355 O366 2.143 . S
Co355 O370 2.111 1_554 S
Co355 O384 2.150 1_554 S
O356 Co353 2.042 1_544 S
O356 Co354 2.122 1_545 S
O356 Co355 2.087 . S
O356 H357 0.980 . S
H357 O356 0.980 . S
O358 Co355 2.087 1_556 S
O358 Co359 2.042 1_556 S
O358 Co360 2.122 . S
O358 H361 0.980 . S
Co359 O358 2.042 1_554 S
Co359 O367 2.286 . S
Co359 O368 2.069 . S
Co359 O369 2.015 . S
Co359 O372 2.264 1_554 S
Co360 O358 2.122 . S
Co360 O371 1.976 . S
Co360 O372 2.327 . S
Co360 O373 2.073 . S
H361 O358 0.980 . S
O362 Co354 2.073 . S
O362 C377 1.245 . S
O363 Co353 2.264 1_554 S
O363 Co354 2.327 . S
O363 C377 1.257 . S
O364 Co354 1.976 . S
O364 C376 1.251 . S
O365 Co355 2.111 . S
O365 C376 1.274 1_545 S
O366 Co355 2.143 . S
O366 C379 1.246 . S
O367 Co359 2.286 . S
O367 C378 1.259 . S
O368 Co359 2.069 . S
O368 C378 1.289 . S
O369 Co359 2.015 . S
O369 C379 1.257 . S
O370 Co355 2.111 1_556 S
O370 C380 1.274 . S
O371 Co360 1.976 . S
O371 C380 1.251 . S
O372 Co359 2.264 1_556 S
O372 Co360 2.327 . S
O372 C381 1.257 . S
O373 Co360 2.073 . S
O373 C381 1.245 . S
C374 O382 1.259 . S
C374 O383 1.289 . S
C375 O384 1.234 1_565 S
C375 O385 1.257 . S
C376 O364 1.251 . S
C376 O365 1.274 1_565 S
C377 O362 1.245 . S
C377 O363 1.257 . S
C378 O367 1.259 . S
C378 O368 1.289 . S
C379 O366 1.246 . S
C379 O369 1.257 . S
C380 O370 1.274 . S
C380 O371 1.251 . S
C381 O372 1.257 . S
C381 O373 1.245 . S
O382 Co353 2.286 . S
O382 C374 1.259 . S
O383 Co353 2.069 . S
O383 C374 1.289 . S
O384 Co355 2.150 1_556 S
O384 C375 1.234 1_545 S
O385 Co353 2.015 . S
O385 C375 1.257 . S
Co386 O389 2.042 . S
Co386 O396 2.264 . S
Co386 O415 2.286 . S
Co386 O416 2.069 . S
Co386 O418 2.015 1_455 S
Co387 O389 2.122 . S
Co387 O395 2.073 . S
Co387 O396 2.327 . S
Co387 O397 1.976 1_455 S
Co388 O389 2.087 . S
Co388 O391 2.087 1_455 S
Co388 O398 2.111 1_455 S
Co388 O399 2.143 . S
Co388 O403 2.111 . S
Co388 O417 2.143 1_455 S
O389 Co386 2.042 . S
O389 Co387 2.122 . S
O389 Co388 2.087 . S
O389 H390 0.980 . S
H390 O389 0.980 . S
O391 Co388 2.087 1_655 S
O391 Co392 2.042 . S
O391 Co393 2.122 1_554 S
O391 H394 0.980 . S
Co392 O391 2.042 . S
Co392 O400 2.286 . S
Co392 O401 2.069 . S
Co392 O402 2.015 1_655 S
Co392 O405 2.264 . S
Co393 O391 2.122 1_556 S
Co393 O404 1.976 1_655 S
Co393 O405 2.327 1_556 S
Co393 O406 2.073 . S
H394 O391 0.980 . S
O395 Co387 2.073 . S
O395 C410 1.245 . S
O396 Co386 2.264 . S
O396 Co387 2.327 . S
O396 C410 1.257 . S
O397 Co387 1.976 1_655 S
O397 C409 1.251 . S
O398 Co388 2.111 1_655 S
O398 C409 1.274 . S
O399 Co388 2.143 . S
O399 C412 1.246 . S
O400 Co392 2.286 . S
O400 C411 1.259 . S
O401 Co392 2.069 . S
O401 C411 1.289 . S
O402 Co392 2.015 1_455 S
O402 C412 1.257 . S
O403 Co388 2.111 . S
O403 C413 1.274 . S
O404 Co393 1.976 1_455 S
O404 C413 1.251 1_556 S
O405 Co392 2.264 . S
O405 Co393 2.327 1_554 S
O405 C414 1.257 1_554 S
O406 Co393 2.073 . S
O406 C414 1.245 . S
C407 O415 1.259 . S
C407 O416 1.289 . S
C408 O417 1.246 . S
C408 O418 1.257 . S
C409 O397 1.251 . S
C409 O398 1.274 . S
C410 O395 1.245 . S
C410 O396 1.257 . S
C411 O400 1.259 . S
C411 O401 1.289 . S
C412 O399 1.246 . S
C412 O402 1.257 . S
C413 O403 1.274 . S
C413 O404 1.251 1_554 S
C414 O405 1.257 1_556 S
C414 O406 1.245 . S
O415 Co386 2.286 . S
O415 C407 1.259 . S
O416 Co386 2.069 . S
O416 C407 1.289 . S
O417 Co388 2.143 1_655 S
O417 C408 1.246 . S
O418 Co386 2.015 1_655 S
O418 C408 1.257 . S
Co419 O422 2.042 . S
Co419 O429 2.264 . S
Co419 O448 2.286 1_554 S
Co419 O449 2.069 . S
Co419 O451 2.015 1_554 S
Co420 O422 2.122 . S
Co420 O428 2.073 . S
Co420 O429 2.327 . S
Co420 O430 1.976 . S
Co421 O422 2.087 . S
Co421 O424 2.087 . S
Co421 O431 2.111 . S
Co421 O432 2.143 . S
Co421 O436 2.111 1_554 S
Co421 O450 2.143 1_554 S
O422 Co419 2.042 . S
O422 Co420 2.122 . S
O422 Co421 2.087 . S
O422 H423 0.980 . S
H423 O422 0.980 . S
O424 Co421 2.087 . S
O424 Co425 2.042 . S
O424 Co426 2.122 1_554 S
O424 H427 0.980 . S
Co425 O424 2.042 . S
Co425 O433 2.286 . S
Co425 O434 2.069 . S
Co425 O435 2.015 . S
Co425 O438 2.264 1_554 S
Co426 O424 2.122 1_556 S
Co426 O437 1.976 . S
Co426 O438 2.327 . S
Co426 O439 2.073 . S
H427 O424 0.980 . S
O428 Co420 2.073 . S
O428 C443 1.245 . S
O429 Co419 2.264 . S
O429 Co420 2.327 . S
O429 C443 1.257 . S
O430 Co420 1.976 . S
O430 C442 1.251 . S
O431 Co421 2.111 . S
O431 C442 1.274 . S
O432 Co421 2.143 . S
O432 C445 1.246 . S
O433 Co425 2.286 . S
O433 C444 1.259 . S
O434 Co425 2.069 . S
O434 C444 1.289 . S
O435 Co425 2.015 . S
O435 C445 1.257 . S
O436 Co421 2.111 1_556 S
O436 C446 1.274 . S
O437 Co426 1.976 . S
O437 C446 1.251 . S
O438 Co425 2.264 1_556 S
O438 Co426 2.327 . S
O438 C447 1.257 . S
O439 Co426 2.073 . S
O439 C447 1.245 . S
C440 O448 1.259 . S
C440 O449 1.289 1_556 S
C441 O450 1.246 . S
C441 O451 1.257 . S
C442 O430 1.251 . S
C442 O431 1.274 . S
C443 O428 1.245 . S
C443 O429 1.257 . S
C444 O433 1.259 . S
C444 O434 1.289 . S
C445 O432 1.246 . S
C445 O435 1.257 . S
C446 O436 1.274 . S
C446 O437 1.251 . S
C447 O438 1.257 . S
C447 O439 1.245 . S
O448 Co419 2.286 1_556 S
O448 C440 1.259 . S
O449 Co419 2.069 . S
O449 C440 1.289 1_554 S
O450 Co421 2.143 1_556 S
O450 C441 1.246 . S
O451 Co419 2.015 1_556 S
O451 C441 1.257 . S
Co452 O455 2.042 . S
Co452 O462 2.264 . S
Co452 O481 2.286 . S
Co452 O482 2.069 . S
Co452 O484 2.015 . S
Co453 O455 2.122 . S
Co453 O461 2.073 . S
Co453 O462 2.327 . S
Co453 O463 1.976 . S
Co454 O455 2.087 . S
Co454 O457 2.087 . S
Co454 O464 2.111 . S
Co454 O465 2.143 1_455 S
Co454 O469 2.111 . S
Co454 O483 2.143 . S
O455 Co452 2.042 . S
O455 Co453 2.122 . S
O455 Co454 2.087 . S
O455 H456 0.980 . S
H456 O455 0.980 . S
O457 Co454 2.087 . S
O457 Co458 2.042 1_455 S
O457 Co459 2.126 . S
O457 H460 0.980 . S
Co458 O457 2.042 1_655 S
Co458 O466 2.286 . S
Co458 O467 2.069 . S
Co458 O468 2.015 . S
Co458 O471 2.264 . S
Co459 O457 2.126 . S
Co459 O470 1.975 1_455 S
Co459 O471 2.321 1_455 S
Co459 O472 2.070 1_455 S
H460 O457 0.980 . S
O461 Co453 2.073 . S
O461 C476 1.245 . S
O462 Co452 2.264 . S
O462 Co453 2.327 . S
O462 C476 1.257 . S
O463 Co453 1.976 . S
O463 C475 1.251 . S
O464 Co454 2.111 . S
O464 C475 1.274 . S
O465 Co454 2.143 1_655 S
O465 C478 1.246 . S
O466 Co458 2.286 . S
O466 C477 1.259 . S
O467 Co458 2.069 . S
O467 C477 1.289 . S
O468 Co458 2.015 . S
O468 C478 1.257 . S
O469 Co454 2.111 . S
O469 C479 1.274 1_455 S
O470 Co459 1.975 1_655 S
O470 C479 1.251 . S
O471 Co458 2.264 . S
O471 Co459 2.321 1_655 S
O471 C480 1.257 . S
O472 Co459 2.070 1_655 S
O472 C480 1.245 . S
C473 O481 1.259 . S
C473 O482 1.289 . S
C474 O483 1.246 . S
C474 O484 1.257 . S
C475 O463 1.251 . S
C475 O464 1.274 . S
C476 O461 1.245 . S
C476 O462 1.257 . S
C477 O466 1.259 . S
C477 O467 1.289 . S
C478 O465 1.246 . S
C478 O468 1.257 . S
C479 O469 1.274 1_655 S
C479 O470 1.251 . S
C480 O471 1.257 . S
C480 O472 1.245 . S
O481 Co452 2.286 . S
O481 C473 1.259 . S
O482 Co452 2.069 . S
O482 C473 1.289 . S
O483 Co454 2.143 . S
O483 C474 1.246 . S
O484 Co452 2.015 . S
O484 C474 1.257 . S
Co485 O488 2.042 . S
Co485 O495 2.264 . S
Co485 O514 2.286 . S
Co485 O515 2.069 . S
Co485 O517 2.015 1_565 S
Co486 O488 2.122 . S
Co486 O494 2.073 . S
Co486 O495 2.327 . S
Co486 O496 1.976 1_565 S
Co487 O488 2.087 1_545 S
Co487 O490 2.087 . S
Co487 O497 2.111 . S
Co487 O498 2.143 1_545 S
Co487 O502 2.111 1_545 S
Co487 O516 2.143 . S
O488 Co485 2.042 . S
O488 Co486 2.122 . S
O488 Co487 2.087 1_565 S
O488 H489 0.980 . S
H489 O488 0.980 . S
O490 Co487 2.087 . S
O490 Co491 2.042 . S
O490 Co492 2.122 . S
O490 H493 0.980 . S
Co491 O490 2.042 . S
Co491 O499 2.286 . S
Co491 O500 2.069 . S
Co491 O501 2.015 1_545 S
Co491 O504 2.264 . S
Co492 O490 2.122 . S
Co492 O503 1.976 1_545 S
Co492 O504 2.327 . S
Co492 O505 2.073 . S
H493 O490 0.980 . S
O494 Co486 2.073 . S
O494 C509 1.245 . S
O495 Co485 2.264 . S
O495 Co486 2.327 . S
O495 C509 1.257 . S
O496 Co486 1.976 1_545 S
O496 C508 1.251 . S
O497 Co487 2.111 . S
O497 C508 1.274 . S
O498 Co487 2.143 1_565 S
O498 C511 1.246 . S
O499 Co491 2.286 . S
O499 C510 1.259 . S
O500 Co491 2.069 . S
O500 C510 1.289 . S
O501 Co491 2.015 1_565 S
O501 C511 1.257 . S
O502 Co487 2.111 1_565 S
O502 C512 1.274 . S
O503 Co492 1.976 1_565 S
O503 C512 1.251 . S
O504 Co491 2.264 . S
O504 Co492 2.327 . S
O504 C513 1.257 . S
O505 Co492 2.073 . S
O505 C513 1.245 . S
C506 O514 1.259 . S
C506 O515 1.289 . S
C507 O516 1.246 . S
C507 O517 1.257 . S
C508 O496 1.251 . S
C508 O497 1.274 . S
C509 O494 1.245 . S
C509 O495 1.257 . S
C510 O499 1.259 . S
C510 O500 1.289 . S
C511 O498 1.246 . S
C511 O501 1.257 . S
C512 O502 1.274 . S
C512 O503 1.251 . S
C513 O504 1.257 . S
C513 O505 1.245 . S
O514 Co485 2.286 . S
O514 C506 1.259 . S
O515 Co485 2.069 . S
O515 C506 1.289 . S
O516 Co487 2.143 . S
O516 C507 1.246 . S
O517 Co485 2.015 1_545 S
O517 C507 1.257 . S
H518 C524 0.930 . S
H519 C528 0.930 . S
H520 C533 0.929 . S
H521 C531 0.929 . S
H522 C526 0.929 . S
H523 C532 0.929 . S
C524 H518 0.930 . S
C524 C525 1.367 . S
C524 C532 1.378 . S
C525 C524 1.367 . S
C525 C533 1.433 . S
C526 H522 0.929 . S
C526 C528 1.378 . S
C526 C530 1.350 . S
C527 C530 1.463 . S
C527 C532 1.350 . S
C527 N535 1.427 . S
C528 H519 0.930 . S
C528 C526 1.378 . S
C528 C529 1.367 . S
C529 C528 1.367 . S
C529 C531 1.433 . S
C530 C526 1.350 . S
C530 C527 1.463 . S
C530 N534 1.427 . S
C531 H521 0.929 . S
C531 C529 1.433 . S
C531 N534 1.384 . S
C532 H523 0.929 . S
C532 C524 1.378 . S
C532 C527 1.350 . S
C533 H520 0.929 . S
C533 C525 1.433 . S
C533 N535 1.384 . S
N534 C530 1.427 . S
N534 C531 1.384 . S
N535 C527 1.427 . S
N535 C533 1.384 . S
H536 C542 0.930 . S
H537 C546 0.930 . S
H538 C551 0.929 . S
H539 C549 0.929 . S
H540 C544 0.929 . S
H541 C550 0.929 . S
C542 H536 0.930 . S
C542 C543 1.367 . S
C542 C550 1.378 . S
C543 C542 1.367 . S
C543 C551 1.433 . S
C544 H540 0.929 . S
C544 C546 1.378 . S
C544 C548 1.350 . S
C545 C548 1.463 . S
C545 C550 1.350 . S
C545 N553 1.427 . S
C546 H537 0.930 . S
C546 C544 1.378 . S
C546 C547 1.367 . S
C547 C546 1.367 . S
C547 C549 1.433 . S
C548 C544 1.350 . S
C548 C545 1.463 . S
C548 N552 1.427 . S
C549 H539 0.929 . S
C549 C547 1.433 . S
C549 N552 1.384 . S
C550 H541 0.929 . S
C550 C542 1.378 . S
C550 C545 1.350 . S
C551 H538 0.929 . S
C551 C543 1.433 . S
C551 N553 1.384 . S
N552 C548 1.427 . S
N552 C549 1.384 . S
N553 C545 1.427 . S
N553 C551 1.384 . S
H554 C560 0.930 . S
H555 C564 0.930 . S
H556 C569 0.929 . S
H557 C567 0.929 . S
H558 C562 0.929 . S
H559 C568 0.929 . S
C560 H554 0.930 . S
C560 C561 1.367 . S
C560 C568 1.378 . S
C561 C560 1.367 . S
C561 C569 1.433 . S
C562 H558 0.929 . S
C562 C564 1.378 . S
C562 C566 1.350 . S
C563 C566 1.463 . S
C563 C568 1.350 . S
C563 N571 1.427 . S
C564 H555 0.930 . S
C564 C562 1.378 . S
C564 C565 1.367 . S
C565 C564 1.367 . S
C565 C567 1.433 . S
C566 C562 1.350 . S
C566 C563 1.463 . S
C566 N570 1.427 . S
C567 H557 0.929 . S
C567 C565 1.433 . S
C567 N570 1.384 . S
C568 H559 0.929 . S
C568 C560 1.378 . S
C568 C563 1.350 . S
C569 H556 0.929 . S
C569 C561 1.433 . S
C569 N571 1.384 . S
N570 C566 1.427 . S
N570 C567 1.384 . S
N571 C563 1.427 . S
N571 C569 1.384 . S
H572 C578 0.930 . S
H573 C582 0.930 . S
H574 C587 0.929 . S
H575 C585 0.929 . S
H576 C580 0.929 . S
H577 C586 0.929 . S
C578 H572 0.930 . S
C578 C579 1.367 . S
C578 C586 1.378 . S
C579 C578 1.367 . S
C579 C587 1.433 . S
C580 H576 0.929 . S
C580 C582 1.378 . S
C580 C584 1.350 . S
C581 C584 1.463 . S
C581 C586 1.350 . S
C581 N589 1.427 . S
C582 H573 0.930 . S
C582 C580 1.378 . S
C582 C583 1.367 . S
C583 C582 1.367 . S
C583 C585 1.433 . S
C584 C580 1.350 . S
C584 C581 1.463 . S
C584 N588 1.427 . S
C585 H575 0.929 . S
C585 C583 1.433 . S
C585 N588 1.384 . S
C586 H577 0.929 . S
C586 C578 1.378 . S
C586 C581 1.350 . S
C587 H574 0.929 . S
C587 C579 1.433 . S
C587 N589 1.384 . S
N588 C584 1.427 . S
N588 C585 1.384 . S
N589 C581 1.427 . S
N589 C587 1.384 . S
H590 C596 0.930 . S
H591 C600 0.930 . S
H592 C605 0.929 . S
H593 C603 0.929 . S
H594 C598 0.929 . S
H595 C604 0.929 . S
C596 H590 0.930 . S
C596 C597 1.367 . S
C596 C604 1.378 . S
C597 C596 1.367 . S
C597 C605 1.433 . S
C598 H594 0.929 . S
C598 C600 1.378 . S
C598 C602 1.350 . S
C599 C602 1.463 . S
C599 C604 1.350 . S
C599 N607 1.427 . S
C600 H591 0.930 . S
C600 C598 1.378 . S
C600 C601 1.367 . S
C601 C600 1.367 . S
C601 C603 1.433 . S
C602 C598 1.350 . S
C602 C599 1.463 . S
C602 N606 1.427 . S
C603 H593 0.929 . S
C603 C601 1.433 . S
C603 N606 1.384 . S
C604 H595 0.929 . S
C604 C596 1.378 . S
C604 C599 1.350 . S
C605 H592 0.929 . S
C605 C597 1.433 . S
C605 N607 1.384 . S
N606 C602 1.427 . S
N606 C603 1.384 . S
N607 C599 1.427 . S
N607 C605 1.384 . S
H608 C614 0.930 . S
H609 C618 0.930 . S
H610 C623 0.929 . S
H611 C621 0.929 . S
H612 C616 0.929 . S
H613 C622 0.929 . S
C614 H608 0.930 . S
C614 C615 1.367 . S
C614 C622 1.378 . S
C615 C614 1.367 . S
C615 C623 1.433 . S
C616 H612 0.929 . S
C616 C618 1.378 . S
C616 C620 1.350 . S
C617 C620 1.463 . S
C617 C622 1.350 . S
C617 N625 1.427 . S
C618 H609 0.930 . S
C618 C616 1.378 . S
C618 C619 1.367 . S
C619 C618 1.367 . S
C619 C621 1.433 . S
C620 C616 1.350 . S
C620 C617 1.463 . S
C620 N624 1.427 . S
C621 H611 0.929 . S
C621 C619 1.433 . S
C621 N624 1.384 . S
C622 H613 0.929 . S
C622 C614 1.378 . S
C622 C617 1.350 . S
C623 H610 0.929 . S
C623 C615 1.433 . S
C623 N625 1.384 . S
N624 C620 1.427 . S
N624 C621 1.384 . S
N625 C617 1.427 . S
N625 C623 1.384 . S
H626 C632 0.930 . S
H627 C636 0.930 . S
H628 C641 0.929 . S
H629 C639 0.929 . S
H630 C634 0.929 . S
H631 C640 0.929 . S
C632 H626 0.930 . S
C632 C633 1.367 . S
C632 C640 1.378 . S
C633 C632 1.367 . S
C633 C641 1.433 . S
C634 H630 0.929 . S
C634 C636 1.378 . S
C634 C638 1.350 . S
C635 C638 1.463 . S
C635 C640 1.350 . S
C635 N643 1.427 . S
C636 H627 0.930 . S
C636 C634 1.378 . S
C636 C637 1.367 . S
C637 C636 1.367 . S
C637 C639 1.433 . S
C638 C634 1.350 . S
C638 C635 1.463 . S
C638 N642 1.427 . S
C639 H629 0.929 . S
C639 C637 1.433 . S
C639 N642 1.384 . S
C640 H631 0.929 . S
C640 C632 1.378 . S
C640 C635 1.350 . S
C641 H628 0.929 . S
C641 C633 1.433 . S
C641 N643 1.384 . S
N642 C638 1.427 . S
N642 C639 1.384 . S
N643 C635 1.427 . S
N643 C641 1.384 . S
H644 C650 0.930 . S
H645 C654 0.930 . S
H646 C659 0.929 . S
H647 C657 0.929 . S
H648 C652 0.929 . S
H649 C658 0.929 . S
C650 H644 0.930 . S
C650 C651 1.367 . S
C650 C658 1.378 . S
C651 C650 1.367 . S
C651 C659 1.433 . S
C652 H648 0.929 . S
C652 C654 1.378 . S
C652 C656 1.350 . S
C653 C656 1.463 . S
C653 C658 1.350 . S
C653 N661 1.427 . S
C654 H645 0.930 . S
C654 C652 1.378 . S
C654 C655 1.367 . S
C655 C654 1.367 . S
C655 C657 1.433 . S
C656 C652 1.350 . S
C656 C653 1.463 . S
C656 N660 1.427 . S
C657 H647 0.929 . S
C657 C655 1.433 . S
C657 N660 1.384 . S
C658 H649 0.929 . S
C658 C650 1.378 . S
C658 C653 1.350 . S
C659 H646 0.929 . S
C659 C651 1.433 . S
C659 N661 1.384 . S
N660 C656 1.427 . S
N660 C657 1.384 . S
N661 C653 1.427 . S
N661 C659 1.384 . S
H662 C668 0.930 . S
H663 C672 0.930 . S
H664 C677 0.929 . S
H665 C675 0.929 . S
H666 C670 0.929 . S
H667 C676 0.929 . S
C668 H662 0.930 . S
C668 C669 1.367 . S
C668 C676 1.378 . S
C669 C668 1.367 . S
C669 C677 1.433 . S
C670 H666 0.929 . S
C670 C672 1.378 . S
C670 C674 1.350 . S
C671 C674 1.463 . S
C671 C676 1.350 . S
C671 N679 1.427 . S
C672 H663 0.930 . S
C672 C670 1.378 . S
C672 C673 1.367 . S
C673 C672 1.367 . S
C673 C675 1.433 . S
C674 C670 1.350 . S
C674 C671 1.463 . S
C674 N678 1.427 . S
C675 H665 0.929 . S
C675 C673 1.433 . S
C675 N678 1.384 . S
C676 H667 0.929 . S
C676 C668 1.378 . S
C676 C671 1.350 . S
C677 H664 0.929 . S
C677 C669 1.433 . S
C677 N679 1.384 . S
N678 C674 1.427 . S
N678 C675 1.384 . S
N679 C671 1.427 . S
N679 C677 1.384 . S
H680 C686 0.930 . S
H681 C690 0.930 . S
H682 C695 0.929 . S
H683 C693 0.929 . S
H684 C688 0.929 . S
H685 C694 0.929 . S
C686 H680 0.930 . S
C686 C687 1.367 . S
C686 C694 1.378 . S
C687 C686 1.367 . S
C687 C695 1.433 . S
C688 H684 0.929 . S
C688 C690 1.378 . S
C688 C692 1.350 . S
C689 C692 1.463 . S
C689 C694 1.350 . S
C689 N697 1.427 . S
C690 H681 0.930 . S
C690 C688 1.378 . S
C690 C691 1.367 . S
C691 C690 1.367 . S
C691 C693 1.433 . S
C692 C688 1.350 . S
C692 C689 1.463 . S
C692 N696 1.427 . S
C693 H683 0.929 . S
C693 C691 1.433 . S
C693 N696 1.384 . S
C694 H685 0.929 . S
C694 C686 1.378 . S
C694 C689 1.350 . S
C695 H682 0.929 . S
C695 C687 1.433 . S
C695 N697 1.384 . S
N696 C692 1.427 . S
N696 C693 1.384 . S
N697 C689 1.427 . S
N697 C695 1.384 . S
H698 C704 0.930 . S
H699 C708 0.930 . S
H700 C713 0.929 . S
H701 C711 0.929 . S
H702 C706 0.929 . S
H703 C712 0.929 . S
C704 H698 0.930 . S
C704 C705 1.367 . S
C704 C712 1.378 . S
C705 C704 1.367 . S
C705 C713 1.433 . S
C706 H702 0.929 . S
C706 C708 1.378 . S
C706 C710 1.350 . S
C707 C710 1.463 . S
C707 C712 1.350 . S
C707 N715 1.427 . S
C708 H699 0.930 . S
C708 C706 1.378 . S
C708 C709 1.367 . S
C709 C708 1.367 . S
C709 C711 1.433 . S
C710 C706 1.350 . S
C710 C707 1.463 . S
C710 N714 1.427 . S
C711 H701 0.929 . S
C711 C709 1.433 . S
C711 N714 1.384 . S
C712 H703 0.929 . S
C712 C704 1.378 . S
C712 C707 1.350 . S
C713 H700 0.929 . S
C713 C705 1.433 . S
C713 N715 1.384 . S
N714 C710 1.427 . S
N714 C711 1.384 . S
N715 C707 1.427 . S
N715 C713 1.384 . S
H716 C722 0.930 . S
H717 C726 0.930 . S
H718 C731 0.929 . S
H719 C729 0.929 . S
H720 C724 0.929 . S
H721 C730 0.929 . S
C722 H716 0.930 . S
C722 C723 1.367 . S
C722 C730 1.378 . S
C723 C722 1.367 . S
C723 C731 1.433 . S
C724 H720 0.929 . S
C724 C726 1.378 . S
C724 C728 1.350 . S
C725 C728 1.463 . S
C725 C730 1.350 . S
C725 N733 1.427 . S
C726 H717 0.930 . S
C726 C724 1.378 . S
C726 C727 1.367 . S
C727 C726 1.367 . S
C727 C729 1.433 . S
C728 C724 1.350 . S
C728 C725 1.463 . S
C728 N732 1.427 . S
C729 H719 0.929 . S
C729 C727 1.433 . S
C729 N732 1.384 . S
C730 H721 0.929 . S
C730 C722 1.378 . S
C730 C725 1.350 . S
C731 H718 0.929 . S
C731 C723 1.433 . S
C731 N733 1.384 . S
N732 C728 1.427 . S
N732 C729 1.384 . S
N733 C725 1.427 . S
N733 C731 1.384 . S
H734 C740 0.930 . S
H735 C744 0.930 . S
H736 C749 0.929 . S
H737 C747 0.929 . S
H738 C742 0.929 . S
H739 C748 0.929 . S
C740 H734 0.930 . S
C740 C741 1.367 . S
C740 C748 1.378 . S
C741 C740 1.367 . S
C741 C749 1.433 . S
C742 H738 0.929 . S
C742 C744 1.378 . S
C742 C746 1.350 . S
C743 C746 1.463 . S
C743 C748 1.350 . S
C743 N751 1.427 . S
C744 H735 0.930 . S
C744 C742 1.378 . S
C744 C745 1.367 . S
C745 C744 1.367 . S
C745 C747 1.433 . S
C746 C742 1.350 . S
C746 C743 1.463 . S
C746 N750 1.427 . S
C747 H737 0.929 . S
C747 C745 1.433 . S
C747 N750 1.384 . S
C748 H739 0.929 . S
C748 C740 1.378 . S
C748 C743 1.350 . S
C749 H736 0.929 . S
C749 C741 1.433 . S
C749 N751 1.384 . S
N750 C746 1.427 . S
N750 C747 1.384 . S
N751 C743 1.427 . S
N751 C749 1.384 . S
H752 C758 0.930 . S
H753 C762 0.930 . S
H754 C767 0.929 . S
H755 C765 0.929 . S
H756 C760 0.929 . S
H757 C766 0.929 . S
C758 H752 0.930 . S
C758 C759 1.367 . S
C758 C766 1.378 . S
C759 C758 1.367 . S
C759 C767 1.433 . S
C760 H756 0.929 . S
C760 C762 1.378 . S
C760 C764 1.350 . S
C761 C764 1.463 . S
C761 C766 1.350 . S
C761 N769 1.427 . S
C762 H753 0.930 . S
C762 C760 1.378 . S
C762 C763 1.367 1_556 S
C763 C762 1.367 1_554 S
C763 C765 1.433 . S
C764 C760 1.350 . S
C764 C761 1.463 . S
C764 N768 1.427 . S
C765 H755 0.929 . S
C765 C763 1.433 . S
C765 N768 1.384 1_554 S
C766 H757 0.929 . S
C766 C758 1.378 . S
C766 C761 1.350 . S
C767 H754 0.929 . S
C767 C759 1.433 . S
C767 N769 1.384 . S
N768 C764 1.427 . S
N768 C765 1.384 1_556 S
N769 C761 1.427 . S
N769 C767 1.384 . S
H770 C776 0.930 . S
H771 C780 0.930 . S
H772 C785 0.929 . S
H773 C783 0.929 . S
H774 C778 0.929 . S
H775 C784 0.929 . S
C776 H770 0.930 . S
C776 C777 1.367 . S
C776 C784 1.378 . S
C777 C776 1.367 . S
C777 C785 1.433 . S
C778 H774 0.929 . S
C778 C780 1.378 . S
C778 C782 1.350 . S
C779 C782 1.463 . S
C779 C784 1.350 . S
C779 N787 1.427 . S
C780 H771 0.930 . S
C780 C778 1.378 . S
C780 C781 1.367 . S
C781 C780 1.367 . S
C781 C783 1.433 . S
C782 C778 1.350 . S
C782 C779 1.463 . S
C782 N786 1.427 . S
C783 H773 0.929 . S
C783 C781 1.433 . S
C783 N786 1.384 . S
C784 H775 0.929 . S
C784 C776 1.378 . S
C784 C779 1.350 . S
C785 H772 0.929 . S
C785 C777 1.433 . S
C785 N787 1.384 . S
N786 C782 1.427 . S
N786 C783 1.384 . S
N787 C779 1.427 . S
N787 C785 1.384 . S
H788 C794 0.930 . S
H789 C798 0.930 1_554 S
H790 C803 0.929 . S
H791 C801 0.929 . S
H792 C796 0.929 . S
H793 C802 0.929 . S
C794 H788 0.930 . S
C794 C795 1.367 . S
C794 C802 1.378 . S
C795 C794 1.367 . S
C795 C803 1.433 . S
C796 H792 0.929 . S
C796 C798 1.378 . S
C796 C800 1.350 . S
C797 C800 1.463 . S
C797 C802 1.350 . S
C797 N805 1.427 . S
C798 H789 0.930 1_556 S
C798 C796 1.378 . S
C798 C799 1.367 . S
C799 C798 1.367 . S
C799 C801 1.433 . S
C800 C796 1.350 . S
C800 C797 1.463 . S
C800 N804 1.427 . S
C801 H791 0.929 . S
C801 C799 1.433 . S
C801 N804 1.384 . S
C802 H793 0.929 . S
C802 C794 1.378 . S
C802 C797 1.350 . S
C803 H790 0.929 . S
C803 C795 1.433 . S
C803 N805 1.384 . S
N804 C800 1.427 . S
N804 C801 1.384 . S
N805 C797 1.427 . S
N805 C803 1.384 . S
H806 C812 0.930 . S
H807 C816 0.930 . S
H808 C821 0.929 . S
H809 C819 0.929 . S
H810 C814 0.929 . S
H811 C820 0.929 . S
C812 H806 0.930 . S
C812 C813 1.367 . S
C812 C820 1.378 . S
C813 C812 1.367 . S
C813 C821 1.433 . S
C814 H810 0.929 . S
C814 C816 1.378 . S
C814 C818 1.350 . S
C815 C818 1.463 . S
C815 C820 1.350 . S
C815 N823 1.427 . S
C816 H807 0.930 . S
C816 C814 1.378 . S
C816 C817 1.367 . S
C817 C816 1.367 . S
C817 C819 1.433 . S
C818 C814 1.350 . S
C818 C815 1.463 . S
C818 N822 1.427 . S
C819 H809 0.929 . S
C819 C817 1.433 . S
C819 N822 1.384 . S
C820 H811 0.929 . S
C820 C812 1.378 . S
C820 C815 1.350 . S
C821 H808 0.929 . S
C821 C813 1.433 . S
C821 N823 1.384 . S
N822 C818 1.427 . S
N822 C819 1.384 . S
N823 C815 1.427 . S
N823 C821 1.384 . S
H824 C830 0.930 . S
H825 C834 0.930 . S
H826 C839 0.929 . S
H827 C837 0.929 . S
H828 C832 0.929 . S
H829 C838 0.929 . S
C830 H824 0.930 . S
C830 C831 1.367 . S
C830 C838 1.378 . S
C831 C830 1.367 . S
C831 C839 1.433 1_556 S
C832 H828 0.929 . S
C832 C834 1.378 . S
C832 C836 1.336 1_554 S
C833 C836 1.470 . S
C833 C838 1.350 . S
C833 N841 1.427 1_556 S
C834 H825 0.930 . S
C834 C832 1.378 . S
C834 C835 1.367 . S
C835 C834 1.367 . S
C835 C837 1.433 1_554 S
C836 C832 1.336 1_556 S
C836 C833 1.470 . S
C836 N840 1.435 . S
C837 H827 0.929 . S
C837 C835 1.433 1_556 S
C837 N840 1.384 . S
C838 H829 0.929 . S
C838 C830 1.378 . S
C838 C833 1.350 . S
C839 H826 0.929 . S
C839 C831 1.433 1_554 S
C839 N841 1.384 . S
N840 C836 1.435 . S
N840 C837 1.384 . S
N841 C833 1.427 1_554 S
N841 C839 1.384 . S
H842 C848 0.930 . S
H843 C852 0.930 . S
H844 C857 0.929 . S
H845 C855 0.929 . S
H846 C850 0.929 . S
H847 C856 0.929 . S
C848 H842 0.930 . S
C848 C849 1.367 . S
C848 C856 1.378 . S
C849 C848 1.367 . S
C849 C857 1.433 . S
C850 H846 0.929 . S
C850 C852 1.378 . S
C850 C854 1.350 . S
C851 C854 1.463 . S
C851 C856 1.350 . S
C851 N859 1.427 . S
C852 H843 0.930 . S
C852 C850 1.378 . S
C852 C853 1.367 . S
C853 C852 1.367 . S
C853 C855 1.433 . S
C854 C850 1.350 . S
C854 C851 1.463 . S
C854 N858 1.427 . S
C855 H845 0.929 . S
C855 C853 1.433 . S
C855 N858 1.384 . S
C856 H847 0.929 . S
C856 C848 1.378 . S
C856 C851 1.350 . S
C857 H844 0.929 . S
C857 C849 1.433 . S
C857 N859 1.384 . S
N858 C854 1.427 . S
N858 C855 1.384 . S
N859 C851 1.427 . S
N859 C857 1.384 . S
H860 C866 0.930 . S
H861 C870 0.930 . S
H862 C875 0.929 . S
H863 C873 0.929 . S
H864 C868 0.929 . S
H865 C874 0.929 . S
C866 H860 0.930 . S
C866 C867 1.367 . S
C866 C874 1.378 . S
C867 C866 1.367 . S
C867 C875 1.433 . S
C868 H864 0.929 . S
C868 C870 1.378 . S
C868 C872 1.350 . S
C869 C872 1.463 . S
C869 C874 1.350 . S
C869 N877 1.427 . S
C870 H861 0.930 . S
C870 C868 1.378 . S
C870 C871 1.367 . S
C871 C870 1.367 . S
C871 C873 1.433 1_556 S
C872 C868 1.350 . S
C872 C869 1.463 . S
C872 N876 1.427 . S
C873 H863 0.929 . S
C873 C871 1.433 1_554 S
C873 N876 1.384 1_554 S
C874 H865 0.929 . S
C874 C866 1.378 . S
C874 C869 1.350 . S
C875 H862 0.929 . S
C875 C867 1.433 . S
C875 N877 1.384 . S
N876 C872 1.427 . S
N876 C873 1.384 1_556 S
N877 C869 1.427 . S
N877 C875 1.384 . S
H878 C884 0.930 . S
H879 C888 0.930 . S
H880 C893 0.929 . S
H881 C891 0.929 . S
H882 C886 0.929 . S
H883 C892 0.929 . S
C884 H878 0.930 . S
C884 C885 1.367 . S
C884 C892 1.378 . S
C885 C884 1.367 . S
C885 C893 1.433 . S
C886 H882 0.929 . S
C886 C888 1.378 . S
C886 C890 1.350 . S
C887 C890 1.463 . S
C887 C892 1.350 . S
C887 N895 1.427 . S
C888 H879 0.930 . S
C888 C886 1.378 . S
C888 C889 1.367 . S
C889 C888 1.367 . S
C889 C891 1.433 . S
C890 C886 1.350 . S
C890 C887 1.463 . S
C890 N894 1.427 . S
C891 H881 0.929 . S
C891 C889 1.433 . S
C891 N894 1.384 . S
C892 H883 0.929 . S
C892 C884 1.378 . S
C892 C887 1.350 . S
C893 H880 0.929 . S
C893 C885 1.433 . S
C893 N895 1.384 . S
N894 C890 1.427 . S
N894 C891 1.384 . S
N895 C887 1.427 . S
N895 C893 1.384 . S
H896 C902 0.930 . S
H897 C906 0.930 . S
H898 C911 0.929 . S
H899 C909 0.929 . S
H900 C904 0.929 . S
H901 C910 0.929 . S
C902 H896 0.930 . S
C902 C903 1.367 . S
C902 C910 1.378 . S
C903 C902 1.367 . S
C903 C911 1.433 . S
C904 H900 0.929 . S
C904 C906 1.378 . S
C904 C908 1.350 . S
C905 C908 1.463 . S
C905 C910 1.350 . S
C905 N913 1.427 . S
C906 H897 0.930 . S
C906 C904 1.378 . S
C906 C907 1.367 . S
C907 C906 1.367 . S
C907 C909 1.433 . S
C908 C904 1.350 . S
C908 C905 1.463 . S
C908 N912 1.427 . S
C909 H899 0.929 . S
C909 C907 1.433 . S
C909 N912 1.384 . S
C910 H901 0.929 . S
C910 C902 1.378 . S
C910 C905 1.350 . S
C911 H898 0.929 . S
C911 C903 1.433 . S
C911 N913 1.384 . S
N912 C908 1.427 . S
N912 C909 1.384 . S
N913 C905 1.427 . S
N913 C911 1.384 . S
H914 C920 0.930 . S
H915 C924 0.930 . S
H916 C929 0.929 . S
H917 C927 0.929 . S
H918 C922 0.929 . S
H919 C928 0.929 . S
C920 H914 0.930 . S
C920 C921 1.367 . S
C920 C928 1.378 . S
C921 C920 1.367 . S
C921 C929 1.433 . S
C922 H918 0.929 . S
C922 C924 1.378 . S
C922 C926 1.350 . S
C923 C926 1.463 . S
C923 C928 1.350 . S
C923 N931 1.427 . S
C924 H915 0.930 . S
C924 C922 1.378 . S
C924 C925 1.367 . S
C925 C924 1.367 . S
C925 C927 1.433 . S
C926 C922 1.350 . S
C926 C923 1.463 . S
C926 N930 1.427 . S
C927 H917 0.929 . S
C927 C925 1.433 . S
C927 N930 1.384 . S
C928 H919 0.929 . S
C928 C920 1.378 . S
C928 C923 1.350 . S
C929 H916 0.929 . S
C929 C921 1.433 . S
C929 N931 1.384 . S
N930 C926 1.427 . S
N930 C927 1.384 . S
N931 C923 1.427 . S
N931 C929 1.384 . S
H932 C938 0.930 . S
H933 C942 0.930 . S
H934 C947 0.929 . S
H935 C945 0.929 . S
H936 C940 0.929 . S
H937 C946 0.929 . S
C938 H932 0.930 . S
C938 C939 1.367 . S
C938 C946 1.378 . S
C939 C938 1.367 . S
C939 C947 1.433 . S
C940 H936 0.929 . S
C940 C942 1.378 . S
C940 C944 1.350 . S
C941 C944 1.463 . S
C941 C946 1.350 . S
C941 N949 1.427 . S
C942 H933 0.930 . S
C942 C940 1.378 . S
C942 C943 1.367 . S
C943 C942 1.367 . S
C943 C945 1.433 . S
C944 C940 1.350 . S
C944 C941 1.463 . S
C944 N948 1.427 . S
C945 H935 0.929 . S
C945 C943 1.433 . S
C945 N948 1.384 . S
C946 H937 0.929 . S
C946 C938 1.378 . S
C946 C941 1.350 . S
C947 H934 0.929 . S
C947 C939 1.433 . S
C947 N949 1.384 . S
N948 C944 1.427 . S
N948 C945 1.384 . S
N949 C941 1.427 . S
N949 C947 1.384 . S
H950 C956 0.930 . S
H951 C960 0.930 . S
H952 C965 0.929 . S
H953 C963 0.929 . S
H954 C958 0.929 . S
H955 C964 0.929 . S
C956 H950 0.930 . S
C956 C957 1.367 . S
C956 C964 1.378 . S
C957 C956 1.367 . S
C957 C965 1.433 . S
C958 H954 0.929 . S
C958 C960 1.378 . S
C958 C962 1.350 . S
C959 C962 1.463 . S
C959 C964 1.350 . S
C959 N967 1.427 . S
C960 H951 0.930 . S
C960 C958 1.378 . S
C960 C961 1.367 . S
C961 C960 1.367 . S
C961 C963 1.433 . S
C962 C958 1.350 . S
C962 C959 1.463 . S
C962 N966 1.427 . S
C963 H953 0.929 . S
C963 C961 1.433 . S
C963 N966 1.384 . S
C964 H955 0.929 . S
C964 C956 1.378 . S
C964 C959 1.350 . S
C965 H952 0.929 . S
C965 C957 1.433 . S
C965 N967 1.384 . S
N966 C962 1.427 . S
N966 C963 1.384 . S
N967 C959 1.427 . S
N967 C965 1.384 . S
H968 C974 0.930 . S
H969 C978 0.930 . S
H970 C983 0.929 . S
H971 C981 0.929 . S
H972 C976 0.929 . S
H973 C982 0.929 . S
C974 H968 0.930 . S
C974 C975 1.367 . S
C974 C982 1.378 . S
C975 C974 1.367 . S
C975 C983 1.433 . S
C976 H972 0.929 . S
C976 C978 1.378 . S
C976 C980 1.350 . S
C977 C980 1.463 . S
C977 C982 1.350 . S
C977 N985 1.427 . S
C978 H969 0.930 . S
C978 C976 1.378 . S
C978 C979 1.367 . S
C979 C978 1.367 . S
C979 C981 1.433 . S
C980 C976 1.350 . S
C980 C977 1.463 . S
C980 N984 1.427 . S
C981 H971 0.929 . S
C981 C979 1.433 . S
C981 N984 1.384 . S
C982 H973 0.929 . S
C982 C974 1.378 . S
C982 C977 1.350 . S
C983 H970 0.929 . S
C983 C975 1.433 . S
C983 N985 1.384 . S
N984 C980 1.427 . S
N984 C981 1.384 . S
N985 C977 1.427 . S
N985 C983 1.384 . S
H986 C992 0.930 . S
H987 C996 0.930 . S
H988 C1001 0.929 . S
H989 C999 0.929 1_554 S
H990 C994 0.929 . S
H991 C1000 0.929 . S
C992 H986 0.930 . S
C992 C993 1.367 . S
C992 C1000 1.378 . S
C993 C992 1.367 . S
C993 C1001 1.433 . S
C994 H990 0.929 . S
C994 C996 1.378 . S
C994 C998 1.350 . S
C995 C998 1.463 . S
C995 C1000 1.350 . S
C995 N1003 1.427 . S
C996 H987 0.930 . S
C996 C994 1.378 . S
C996 C997 1.367 . S
C997 C996 1.367 . S
C997 C999 1.433 . S
C998 C994 1.350 . S
C998 C995 1.463 . S
C998 N1002 1.427 . S
C999 H989 0.929 1_556 S
C999 C997 1.433 . S
C999 N1002 1.384 . S
C1000 H991 0.929 . S
C1000 C992 1.378 . S
C1000 C995 1.350 . S
C1001 H988 0.929 . S
C1001 C993 1.433 . S
C1001 N1003 1.384 . S
N1002 C998 1.427 . S
N1002 C999 1.384 . S
N1003 C995 1.427 . S
N1003 C1001 1.384 . S
H1004 C1010 0.930 . S
H1005 C1014 0.930 . S
H1006 C1019 0.929 . S
H1007 C1017 0.929 1_554 S
H1008 C1012 0.929 . S
H1009 C1018 0.929 . S
C1010 H1004 0.930 . S
C1010 C1011 1.367 . S
C1010 C1018 1.378 . S
C1011 C1010 1.367 . S
C1011 C1019 1.433 . S
C1012 H1008 0.929 . S
C1012 C1014 1.378 . S
C1012 C1016 1.350 . S
C1013 C1016 1.463 . S
C1013 C1018 1.350 . S
C1013 N1021 1.427 . S
C1014 H1005 0.930 . S
C1014 C1012 1.378 . S
C1014 C1015 1.367 . S
C1015 C1014 1.367 . S
C1015 C1017 1.433 . S
C1016 C1012 1.350 . S
C1016 C1013 1.463 . S
C1016 N1020 1.427 . S
C1017 H1007 0.929 1_556 S
C1017 C1015 1.433 . S
C1017 N1020 1.384 . S
C1018 H1009 0.929 . S
C1018 C1010 1.378 . S
C1018 C1013 1.350 . S
C1019 H1006 0.929 . S
C1019 C1011 1.433 . S
C1019 N1021 1.384 . S
N1020 C1016 1.427 . S
N1020 C1017 1.384 . S
N1021 C1013 1.427 . S
N1021 C1019 1.384 . S
H1022 C1028 0.930 . S
H1023 C1032 0.930 . S
H1024 C1037 0.929 . S
H1025 C1035 0.929 . S
H1026 C1030 0.929 . S
H1027 C1036 0.929 . S
C1028 H1022 0.930 . S
C1028 C1029 1.367 . S
C1028 C1036 1.378 . S
C1029 C1028 1.367 . S
C1029 C1037 1.433 . S
C1030 H1026 0.929 . S
C1030 C1032 1.378 . S
C1030 C1034 1.350 . S
C1031 C1034 1.463 . S
C1031 C1036 1.350 . S
C1031 N1039 1.427 . S
C1032 H1023 0.930 . S
C1032 C1030 1.378 . S
C1032 C1033 1.367 . S
C1033 C1032 1.367 . S
C1033 C1035 1.433 . S
C1034 C1030 1.350 . S
C1034 C1031 1.463 . S
C1034 N1038 1.427 . S
C1035 H1025 0.929 . S
C1035 C1033 1.433 . S
C1035 N1038 1.384 . S
C1036 H1027 0.929 . S
C1036 C1028 1.378 . S
C1036 C1031 1.350 . S
C1037 H1024 0.929 . S
C1037 C1029 1.433 . S
C1037 N1039 1.384 . S
N1038 C1034 1.427 . S
N1038 C1035 1.384 . S
N1039 C1031 1.427 . S
N1039 C1037 1.384 . S
H1040 C1046 0.930 . S
H1041 C1050 0.930 . S
H1042 C1055 0.929 . S
H1043 C1053 0.929 . S
H1044 C1048 0.929 . S
H1045 C1054 0.929 . S
C1046 H1040 0.930 . S
C1046 C1047 1.367 . S
C1046 C1054 1.378 . S
C1047 C1046 1.367 . S
C1047 C1055 1.433 . S
C1048 H1044 0.929 . S
C1048 C1050 1.378 . S
C1048 C1052 1.350 . S
C1049 C1052 1.463 . S
C1049 C1054 1.350 . S
C1049 N1057 1.427 . S
C1050 H1041 0.930 . S
C1050 C1048 1.378 . S
C1050 C1051 1.367 . S
C1051 C1050 1.367 . S
C1051 C1053 1.433 . S
C1052 C1048 1.350 . S
C1052 C1049 1.463 . S
C1052 N1056 1.427 . S
C1053 H1043 0.929 . S
C1053 C1051 1.433 . S
C1053 N1056 1.384 . S
C1054 H1045 0.929 . S
C1054 C1046 1.378 . S
C1054 C1049 1.350 . S
C1055 H1042 0.929 . S
C1055 C1047 1.433 . S
C1055 N1057 1.384 . S
N1056 C1052 1.427 . S
N1056 C1053 1.384 . S
N1057 C1049 1.427 . S
N1057 C1055 1.384 . S
H1058 C1064 0.930 . S
H1059 C1068 0.930 . S
H1060 C1073 0.929 . S
H1061 C1071 0.929 . S
H1062 C1066 0.929 . S
H1063 C1072 0.929 . S
C1064 H1058 0.930 . S
C1064 C1065 1.367 . S
C1064 C1072 1.378 . S
C1065 C1064 1.367 . S
C1065 C1073 1.433 . S
C1066 H1062 0.929 . S
C1066 C1068 1.378 . S
C1066 C1070 1.350 . S
C1067 C1070 1.463 . S
C1067 C1072 1.350 . S
C1067 N1075 1.427 . S
C1068 H1059 0.930 . S
C1068 C1066 1.378 . S
C1068 C1069 1.367 . S
C1069 C1068 1.367 . S
C1069 C1071 1.433 . S
C1070 C1066 1.350 . S
C1070 C1067 1.463 . S
C1070 N1074 1.427 . S
C1071 H1061 0.929 . S
C1071 C1069 1.433 . S
C1071 N1074 1.384 . S
C1072 H1063 0.929 . S
C1072 C1064 1.378 . S
C1072 C1067 1.350 . S
C1073 H1060 0.929 . S
C1073 C1065 1.433 . S
C1073 N1075 1.384 . S
N1074 C1070 1.427 . S
N1074 C1071 1.384 . S
N1075 C1067 1.427 . S
N1075 C1073 1.384 . S
H1076 C1082 0.930 . S
H1077 C1086 0.930 . S
H1078 C1091 0.929 . S
H1079 C1089 0.929 . S
H1080 C1084 0.929 . S
H1081 C1090 0.929 . S
C1082 H1076 0.930 . S
C1082 C1083 1.367 . S
C1082 C1090 1.378 . S
C1083 C1082 1.367 . S
C1083 C1091 1.433 . S
C1084 H1080 0.929 . S
C1084 C1086 1.378 . S
C1084 C1088 1.350 . S
C1085 C1088 1.463 . S
C1085 C1090 1.350 . S
C1085 N1093 1.427 . S
C1086 H1077 0.930 . S
C1086 C1084 1.378 . S
C1086 C1087 1.367 . S
C1087 C1086 1.367 . S
C1087 C1089 1.433 . S
C1088 C1084 1.350 . S
C1088 C1085 1.463 . S
C1088 N1092 1.427 . S
C1089 H1079 0.929 . S
C1089 C1087 1.433 . S
C1089 N1092 1.384 . S
C1090 H1081 0.929 . S
C1090 C1082 1.378 . S
C1090 C1085 1.350 . S
C1091 H1078 0.929 . S
C1091 C1083 1.433 . S
C1091 N1093 1.384 . S
N1092 C1088 1.427 . S
N1092 C1089 1.384 . S
N1093 C1085 1.427 . S
N1093 C1091 1.384 . S
H1094 C1100 0.930 . S
H1095 C1104 0.930 . S
H1096 C1109 0.929 . S
H1097 C1107 0.929 . S
H1098 C1102 0.929 . S
H1099 C1108 0.929 . S
C1100 H1094 0.930 . S
C1100 C1101 1.367 . S
C1100 C1108 1.378 . S
C1101 C1100 1.367 . S
C1101 C1109 1.433 . S
C1102 H1098 0.929 . S
C1102 C1104 1.378 . S
C1102 C1106 1.350 . S
C1103 C1106 1.463 . S
C1103 C1108 1.350 . S
C1103 N1111 1.427 . S
C1104 H1095 0.930 . S
C1104 C1102 1.378 . S
C1104 C1105 1.367 . S
C1105 C1104 1.367 . S
C1105 C1107 1.433 . S
C1106 C1102 1.350 . S
C1106 C1103 1.463 . S
C1106 N1110 1.427 . S
C1107 H1097 0.929 . S
C1107 C1105 1.433 . S
C1107 N1110 1.384 . S
C1108 H1099 0.929 . S
C1108 C1100 1.378 . S
C1108 C1103 1.350 . S
C1109 H1096 0.929 . S
C1109 C1101 1.433 . S
C1109 N1111 1.384 . S
N1110 C1106 1.427 . S
N1110 C1107 1.384 . S
N1111 C1103 1.427 . S
N1111 C1109 1.384 . S
H1112 C1118 0.930 . S
H1113 C1122 0.930 . S
H1114 C1127 0.929 . S
H1115 C1125 0.929 . S
H1116 C1120 0.929 . S
H1117 C1126 0.929 . S
C1118 H1112 0.930 . S
C1118 C1119 1.367 . S
C1118 C1126 1.378 . S
C1119 C1118 1.367 . S
C1119 C1127 1.433 . S
C1120 H1116 0.929 . S
C1120 C1122 1.378 . S
C1120 C1124 1.350 . S
C1121 C1124 1.463 . S
C1121 C1126 1.350 . S
C1121 N1129 1.427 . S
C1122 H1113 0.930 . S
C1122 C1120 1.378 . S
C1122 C1123 1.367 . S
C1123 C1122 1.367 . S
C1123 C1125 1.433 . S
C1124 C1120 1.350 . S
C1124 C1121 1.463 . S
C1124 N1128 1.427 . S
C1125 H1115 0.929 . S
C1125 C1123 1.433 . S
C1125 N1128 1.384 . S
C1126 H1117 0.929 . S
C1126 C1118 1.378 . S
C1126 C1121 1.350 . S
C1127 H1114 0.929 . S
C1127 C1119 1.433 . S
C1127 N1129 1.384 . S
N1128 C1124 1.427 . S
N1128 C1125 1.384 . S
N1129 C1121 1.427 . S
N1129 C1127 1.384 . S
H1130 C1136 0.930 . S
H1131 C1140 0.930 . S
H1132 C1145 0.929 . S
H1133 C1143 0.929 . S
H1134 C1138 0.929 . S
H1135 C1144 0.929 . S
C1136 H1130 0.930 . S
C1136 C1137 1.367 . S
C1136 C1144 1.378 . S
C1137 C1136 1.367 . S
C1137 C1145 1.433 . S
C1138 H1134 0.929 . S
C1138 C1140 1.378 . S
C1138 C1142 1.350 . S
C1139 C1142 1.463 . S
C1139 C1144 1.350 . S
C1139 N1147 1.427 . S
C1140 H1131 0.930 . S
C1140 C1138 1.378 . S
C1140 C1141 1.367 . S
C1141 C1140 1.367 . S
C1141 C1143 1.433 . S
C1142 C1138 1.350 . S
C1142 C1139 1.463 . S
C1142 N1146 1.427 . S
C1143 H1133 0.929 . S
C1143 C1141 1.433 . S
C1143 N1146 1.384 . S
C1144 H1135 0.929 . S
C1144 C1136 1.378 . S
C1144 C1139 1.350 . S
C1145 H1132 0.929 . S
C1145 C1137 1.433 . S
C1145 N1147 1.384 . S
N1146 C1142 1.427 . S
N1146 C1143 1.384 . S
N1147 C1139 1.427 . S
N1147 C1145 1.384 . S
H1148 C1154 0.930 . S
H1149 C1158 0.930 . S
H1150 C1163 0.929 . S
H1151 C1161 0.929 . S
H1152 C1156 0.929 . S
H1153 C1162 0.929 . S
C1154 H1148 0.930 . S
C1154 C1155 1.367 . S
C1154 C1162 1.378 . S
C1155 C1154 1.367 . S
C1155 C1163 1.433 . S
C1156 H1152 0.929 . S
C1156 C1158 1.378 . S
C1156 C1160 1.350 . S
C1157 C1160 1.463 . S
C1157 C1162 1.350 . S
C1157 N1165 1.427 . S
C1158 H1149 0.930 . S
C1158 C1156 1.378 . S
C1158 C1159 1.367 . S
C1159 C1158 1.367 . S
C1159 C1161 1.433 . S
C1160 C1156 1.350 . S
C1160 C1157 1.463 . S
C1160 N1164 1.427 . S
C1161 H1151 0.929 . S
C1161 C1159 1.433 . S
C1161 N1164 1.384 . S
C1162 H1153 0.929 . S
C1162 C1154 1.378 . S
C1162 C1157 1.350 . S
C1163 H1150 0.929 . S
C1163 C1155 1.433 . S
C1163 N1165 1.384 . S
N1164 C1160 1.427 . S
N1164 C1161 1.384 . S
N1165 C1157 1.427 . S
N1165 C1163 1.384 . S
H1166 C1172 0.930 . S
H1167 C1176 0.930 . S
H1168 C1181 0.929 . S
H1169 C1179 0.929 . S
H1170 C1174 0.929 . S
H1171 C1180 0.929 . S
C1172 H1166 0.930 . S
C1172 C1173 1.367 . S
C1172 C1180 1.378 . S
C1173 C1172 1.367 . S
C1173 C1181 1.433 . S
C1174 H1170 0.929 . S
C1174 C1176 1.378 . S
C1174 C1178 1.350 . S
C1175 C1178 1.463 . S
C1175 C1180 1.350 . S
C1175 N1183 1.427 . S
C1176 H1167 0.930 . S
C1176 C1174 1.378 . S
C1176 C1177 1.367 . S
C1177 C1176 1.367 . S
C1177 C1179 1.433 . S
C1178 C1174 1.350 . S
C1178 C1175 1.463 . S
C1178 N1182 1.427 . S
C1179 H1169 0.929 . S
C1179 C1177 1.433 . S
C1179 N1182 1.384 . S
C1180 H1171 0.929 . S
C1180 C1172 1.378 . S
C1180 C1175 1.350 . S
C1181 H1168 0.929 . S
C1181 C1173 1.433 . S
C1181 N1183 1.384 . S
N1182 C1178 1.427 . S
N1182 C1179 1.384 . S
N1183 C1175 1.427 . S
N1183 C1181 1.384 . S
H1184 C1190 0.930 . S
H1185 C1194 0.930 . S
H1186 C1199 0.929 . S
H1187 C1197 0.929 . S
H1188 C1192 0.929 . S
H1189 C1198 0.929 . S
C1190 H1184 0.930 . S
C1190 C1191 1.367 . S
C1190 C1198 1.378 . S
C1191 C1190 1.367 . S
C1191 C1199 1.433 . S
C1192 H1188 0.929 . S
C1192 C1194 1.378 . S
C1192 C1196 1.350 . S
C1193 C1196 1.463 . S
C1193 C1198 1.350 . S
C1193 N1201 1.427 . S
C1194 H1185 0.930 . S
C1194 C1192 1.378 . S
C1194 C1195 1.367 . S
C1195 C1194 1.367 . S
C1195 C1197 1.433 . S
C1196 C1192 1.350 . S
C1196 C1193 1.463 . S
C1196 N1200 1.427 . S
C1197 H1187 0.929 . S
C1197 C1195 1.433 . S
C1197 N1200 1.384 . S
C1198 H1189 0.929 . S
C1198 C1190 1.378 . S
C1198 C1193 1.350 . S
C1199 H1186 0.929 . S
C1199 C1191 1.433 . S
C1199 N1201 1.384 . S
N1200 C1196 1.427 . S
N1200 C1197 1.384 . S
N1201 C1193 1.427 . S
N1201 C1199 1.384 . S
H1202 C1208 0.930 . S
H1203 C1212 0.930 . S
H1204 C1217 0.929 . S
H1205 C1215 0.929 . S
H1206 C1210 0.929 . S
H1207 C1216 0.929 . S
C1208 H1202 0.930 . S
C1208 C1209 1.367 . S
C1208 C1216 1.378 . S
C1209 C1208 1.367 . S
C1209 C1217 1.433 . S
C1210 H1206 0.929 . S
C1210 C1212 1.378 . S
C1210 C1214 1.350 . S
C1211 C1214 1.463 . S
C1211 C1216 1.350 . S
C1211 N1219 1.427 . S
C1212 H1203 0.930 . S
C1212 C1210 1.378 . S
C1212 C1213 1.367 . S
C1213 C1212 1.367 . S
C1213 C1215 1.433 . S
C1214 C1210 1.350 . S
C1214 C1211 1.463 . S
C1214 N1218 1.427 . S
C1215 H1205 0.929 . S
C1215 C1213 1.433 . S
C1215 N1218 1.384 . S
C1216 H1207 0.929 . S
C1216 C1208 1.378 . S
C1216 C1211 1.350 . S
C1217 H1204 0.929 . S
C1217 C1209 1.433 . S
C1217 N1219 1.384 . S
N1218 C1214 1.427 . S
N1218 C1215 1.384 . S
N1219 C1211 1.427 . S
N1219 C1217 1.384 . S
H1220 C1226 0.930 . S
H1221 C1230 0.930 . S
H1222 C1235 0.929 . S
H1223 C1233 0.929 . S
H1224 C1228 0.929 . S
H1225 C1234 0.929 . S
C1226 H1220 0.930 . S
C1226 C1227 1.367 . S
C1226 C1234 1.378 . S
C1227 C1226 1.367 . S
C1227 C1235 1.433 . S
C1228 H1224 0.929 . S
C1228 C1230 1.378 . S
C1228 C1232 1.350 . S
C1229 C1232 1.463 . S
C1229 C1234 1.350 . S
C1229 N1237 1.427 . S
C1230 H1221 0.930 . S
C1230 C1228 1.378 . S
C1230 C1231 1.367 . S
C1231 C1230 1.367 . S
C1231 C1233 1.433 . S
C1232 C1228 1.350 . S
C1232 C1229 1.463 . S
C1232 N1236 1.427 . S
C1233 H1223 0.929 . S
C1233 C1231 1.433 . S
C1233 N1236 1.384 . S
C1234 H1225 0.929 . S
C1234 C1226 1.378 . S
C1234 C1229 1.350 . S
C1235 H1222 0.929 . S
C1235 C1227 1.433 . S
C1235 N1237 1.384 . S
N1236 C1232 1.427 . S
N1236 C1233 1.384 . S
N1237 C1229 1.427 . S
N1237 C1235 1.384 . S
H1238 C1244 0.930 . S
H1239 C1248 0.930 . S
H1240 C1253 0.929 . S
H1241 C1251 0.929 . S
H1242 C1246 0.929 . S
H1243 C1252 0.929 . S
C1244 H1238 0.930 . S
C1244 C1245 1.367 . S
C1244 C1252 1.378 . S
C1245 C1244 1.367 . S
C1245 C1253 1.433 . S
C1246 H1242 0.929 . S
C1246 C1248 1.378 . S
C1246 C1250 1.350 . S
C1247 C1250 1.463 . S
C1247 C1252 1.350 . S
C1247 N1255 1.427 . S
C1248 H1239 0.930 . S
C1248 C1246 1.378 . S
C1248 C1249 1.367 . S
C1249 C1248 1.367 . S
C1249 C1251 1.433 . S
C1250 C1246 1.350 . S
C1250 C1247 1.463 . S
C1250 N1254 1.427 . S
C1251 H1241 0.929 . S
C1251 C1249 1.433 . S
C1251 N1254 1.384 . S
C1252 H1243 0.929 . S
C1252 C1244 1.378 . S
C1252 C1247 1.350 . S
C1253 H1240 0.929 . S
C1253 C1245 1.433 . S
C1253 N1255 1.384 . S
N1254 C1250 1.427 . S
N1254 C1251 1.384 . S
N1255 C1247 1.427 . S
N1255 C1253 1.384 . S
H1256 C1262 0.930 . S
H1257 C1266 0.930 . S
H1258 C1271 0.929 . S
H1259 C1269 0.929 . S
H1260 C1264 0.929 . S
H1261 C1270 0.929 . S
C1262 H1256 0.930 . S
C1262 C1263 1.367 . S
C1262 C1270 1.378 . S
C1263 C1262 1.367 . S
C1263 C1271 1.433 . S
C1264 H1260 0.929 . S
C1264 C1266 1.378 . S
C1264 C1268 1.350 . S
C1265 C1268 1.463 . S
C1265 C1270 1.350 . S
C1265 N1273 1.427 . S
C1266 H1257 0.930 . S
C1266 C1264 1.378 . S
C1266 C1267 1.367 . S
C1267 C1266 1.367 . S
C1267 C1269 1.433 . S
C1268 C1264 1.350 . S
C1268 C1265 1.463 . S
C1268 N1272 1.427 . S
C1269 H1259 0.929 . S
C1269 C1267 1.433 . S
C1269 N1272 1.384 . S
C1270 H1261 0.929 . S
C1270 C1262 1.378 . S
C1270 C1265 1.350 . S
C1271 H1258 0.929 . S
C1271 C1263 1.433 . S
C1271 N1273 1.384 . S
N1272 C1268 1.427 . S
N1272 C1269 1.384 . S
N1273 C1265 1.427 . S
N1273 C1271 1.384 . S
H1274 C1280 0.930 . S
H1275 C1284 0.930 . S
H1276 C1289 0.929 . S
H1277 C1287 0.929 . S
H1278 C1282 0.929 . S
H1279 C1288 0.929 . S
C1280 H1274 0.930 . S
C1280 C1281 1.367 . S
C1280 C1288 1.378 . S
C1281 C1280 1.367 . S
C1281 C1289 1.433 . S
C1282 H1278 0.929 . S
C1282 C1284 1.378 . S
C1282 C1286 1.350 . S
C1283 C1286 1.463 . S
C1283 C1288 1.350 . S
C1283 N1291 1.427 . S
C1284 H1275 0.930 . S
C1284 C1282 1.378 . S
C1284 C1285 1.367 . S
C1285 C1284 1.367 . S
C1285 C1287 1.433 . S
C1286 C1282 1.350 . S
C1286 C1283 1.463 . S
C1286 N1290 1.427 . S
C1287 H1277 0.929 . S
C1287 C1285 1.433 . S
C1287 N1290 1.384 . S
C1288 H1279 0.929 . S
C1288 C1280 1.378 . S
C1288 C1283 1.350 . S
C1289 H1276 0.929 . S
C1289 C1281 1.433 . S
C1289 N1291 1.384 . S
N1290 C1286 1.427 . S
N1290 C1287 1.384 . S
N1291 C1283 1.427 . S
N1291 C1289 1.384 . S
H1292 C1298 0.930 . S
H1293 C1302 0.930 . S
H1294 C1307 0.929 . S
H1295 C1305 0.929 . S
H1296 C1300 0.929 . S
H1297 C1306 0.929 . S
C1298 H1292 0.930 . S
C1298 C1299 1.367 . S
C1298 C1306 1.378 . S
C1299 C1298 1.367 . S
C1299 C1307 1.433 . S
C1300 H1296 0.929 . S
C1300 C1302 1.378 . S
C1300 C1304 1.350 . S
C1301 C1304 1.463 . S
C1301 C1306 1.350 . S
C1301 N1309 1.427 . S
C1302 H1293 0.930 . S
C1302 C1300 1.378 . S
C1302 C1303 1.367 . S
C1303 C1302 1.367 . S
C1303 C1305 1.433 . S
C1304 C1300 1.350 . S
C1304 C1301 1.463 . S
C1304 N1308 1.427 . S
C1305 H1295 0.929 . S
C1305 C1303 1.433 . S
C1305 N1308 1.384 . S
C1306 H1297 0.929 . S
C1306 C1298 1.378 . S
C1306 C1301 1.350 . S
C1307 H1294 0.929 . S
C1307 C1299 1.433 . S
C1307 N1309 1.384 . S
N1308 C1304 1.427 . S
N1308 C1305 1.384 . S
N1309 C1301 1.427 . S
N1309 C1307 1.384 . S
H1310 C1316 0.930 . S
H1311 C1320 0.930 . S
H1312 C1325 0.929 . S
H1313 C1323 0.929 . S
H1314 C1318 0.929 . S
H1315 C1324 0.929 . S
C1316 H1310 0.930 . S
C1316 C1317 1.367 . S
C1316 C1324 1.378 . S
C1317 C1316 1.367 . S
C1317 C1325 1.433 . S
C1318 H1314 0.929 . S
C1318 C1320 1.378 . S
C1318 C1322 1.350 . S
C1319 C1322 1.463 . S
C1319 C1324 1.350 . S
C1319 N1327 1.427 . S
C1320 H1311 0.930 . S
C1320 C1318 1.378 . S
C1320 C1321 1.367 . S
C1321 C1320 1.367 . S
C1321 C1323 1.433 . S
C1322 C1318 1.350 . S
C1322 C1319 1.463 . S
C1322 N1326 1.427 . S
C1323 H1313 0.929 . S
C1323 C1321 1.433 . S
C1323 N1326 1.384 . S
C1324 H1315 0.929 . S
C1324 C1316 1.378 . S
C1324 C1319 1.350 . S
C1325 H1312 0.929 . S
C1325 C1317 1.433 . S
C1325 N1327 1.384 . S
N1326 C1322 1.427 . S
N1326 C1323 1.384 . S
N1327 C1319 1.427 . S
N1327 C1325 1.384 . S
H1328 C1334 0.930 . S
H1329 C1338 0.930 . S
H1330 C1343 0.929 . S
H1331 C1341 0.929 . S
H1332 C1336 0.929 . S
H1333 C1342 0.929 . S
C1334 H1328 0.930 . S
C1334 C1335 1.367 . S
C1334 C1342 1.378 . S
C1335 C1334 1.367 . S
C1335 C1343 1.433 . S
C1336 H1332 0.929 . S
C1336 C1338 1.378 . S
C1336 C1340 1.350 . S
C1337 C1340 1.463 . S
C1337 C1342 1.350 . S
C1337 N1345 1.427 . S
C1338 H1329 0.930 . S
C1338 C1336 1.378 . S
C1338 C1339 1.367 . S
C1339 C1338 1.367 . S
C1339 C1341 1.433 . S
C1340 C1336 1.350 . S
C1340 C1337 1.463 . S
C1340 N1344 1.427 . S
C1341 H1331 0.929 . S
C1341 C1339 1.433 . S
C1341 N1344 1.384 . S
C1342 H1333 0.929 . S
C1342 C1334 1.378 . S
C1342 C1337 1.350 . S
C1343 H1330 0.929 . S
C1343 C1335 1.433 . S
C1343 N1345 1.384 . S
N1344 C1340 1.427 . S
N1344 C1341 1.384 . S
N1345 C1337 1.427 . S
N1345 C1343 1.384 . S
H1346 C1352 0.930 . S
H1347 C1356 0.930 . S
H1348 C1361 0.929 . S
H1349 C1359 0.929 . S
H1350 C1354 0.929 . S
H1351 C1360 0.929 . S
C1352 H1346 0.930 . S
C1352 C1353 1.367 . S
C1352 C1360 1.378 . S
C1353 C1352 1.367 . S
C1353 C1361 1.433 . S
C1354 H1350 0.929 . S
C1354 C1356 1.378 . S
C1354 C1358 1.350 . S
C1355 C1358 1.463 . S
C1355 C1360 1.350 . S
C1355 N1363 1.427 . S
C1356 H1347 0.930 . S
C1356 C1354 1.378 . S
C1356 C1357 1.367 . S
C1357 C1356 1.367 . S
C1357 C1359 1.433 . S
C1358 C1354 1.350 . S
C1358 C1355 1.463 . S
C1358 N1362 1.427 . S
C1359 H1349 0.929 . S
C1359 C1357 1.433 . S
C1359 N1362 1.384 . S
C1360 H1351 0.929 . S
C1360 C1352 1.378 . S
C1360 C1355 1.350 . S
C1361 H1348 0.929 . S
C1361 C1353 1.433 . S
C1361 N1363 1.384 . S
N1362 C1358 1.427 . S
N1362 C1359 1.384 . S
N1363 C1355 1.427 . S
N1363 C1361 1.384 . S
H1364 C1370 0.930 . S
H1365 C1374 0.930 . S
H1366 C1379 0.929 . S
H1367 C1377 0.929 . S
H1368 C1372 0.929 . S
H1369 C1378 0.929 . S
C1370 H1364 0.930 . S
C1370 C1371 1.367 . S
C1370 C1378 1.378 . S
C1371 C1370 1.367 . S
C1371 C1379 1.433 . S
C1372 H1368 0.929 . S
C1372 C1374 1.378 . S
C1372 C1376 1.350 . S
C1373 C1376 1.463 . S
C1373 C1378 1.350 . S
C1373 N1381 1.427 . S
C1374 H1365 0.930 . S
C1374 C1372 1.378 . S
C1374 C1375 1.367 . S
C1375 C1374 1.367 . S
C1375 C1377 1.433 . S
C1376 C1372 1.350 . S
C1376 C1373 1.463 . S
C1376 N1380 1.427 . S
C1377 H1367 0.929 . S
C1377 C1375 1.433 . S
C1377 N1380 1.384 . S
C1378 H1369 0.929 . S
C1378 C1370 1.378 . S
C1378 C1373 1.350 . S
C1379 H1366 0.929 . S
C1379 C1371 1.433 . S
C1379 N1381 1.384 . S
N1380 C1376 1.427 . S
N1380 C1377 1.384 . S
N1381 C1373 1.427 . S
N1381 C1379 1.384 . S
C529 C347 2.396 . S
C525 C18 2.503 . S
C547 C348 2.724 . S
C543 C59 2.743 . S
C565 C342 1.327 . S
C561 C98 1.345 . S
C579 C125 0.585 . S
C583 C341 0.600 . S
C597 C169 2.650 . S
C601 C344 2.623 . S
C619 C346 1.147 . S
C615 C218 1.173 . S
C633 C255 0.848 . S
C637 C345 0.846 . S
C651 C288 2.476 . S
C655 C343 2.373 . S
C673 C378 0.838 . S
C669 C15 0.837 . S
C687 C45 0.632 . S
C691 C409 0.252 . S
C709 C377 0.370 . S
C705 C95 0.166 . S
C727 C412 0.975 . S
C723 C128 0.979 . S
C741 C178 1.261 . S
C745 C375 1.223 . S
C763 C407 1.524 . S
C759 C215 1.535 . S
C777 C249 2.127 . S
C781 C380 2.189 . S
C795 C299 2.061 . S
C799 C414 2.004 . S
C813 C9 2.748 . S
C817 C410 2.721 . S
C831 C175 0.526 . S
C835 C413 0.414 . S
C853 C381 1.519 . S
C849 C209 1.551 . S
C871 C408 1.461 1_556 S
C867 C258 1.540 . S
C885 C285 1.373 . S
C889 C374 1.403 . S
C903 C89 3.148 . S
C907 C411 3.167 . S
C925 C376 2.443 . S
C921 C139 2.476 . S
C939 C48 1.747 . S
C943 C379 1.723 . S
C957 C298 2.480 . S
C961 C446 2.358 . S
C975 C179 2.194 . S
C979 C447 2.169 . S
C997 C441 1.335 . S
C993 C208 1.364 . S
C1015 C440 1.043 . S
C1011 C245 1.051 . S
C1029 C49 2.327 . S
C1033 C443 2.297 . S
C1051 C445 1.213 . S
C1047 C88 1.240 . S
C1065 C135 0.936 . S
C1069 C444 0.935 . S
C1083 C8 2.478 . S
C1087 C442 2.338 . S
C1101 C295 1.380 . S
C1105 C480 1.353 . S
C1123 C512 0.606 . S
C1119 C165 0.565 . S
C1137 C219 1.640 . S
C1141 C473 1.642 . S
C1155 C248 1.833 . S
C1159 C507 1.833 . S
C1177 C478 1.511 . S
C1173 C58 1.542 . S
C1191 C99 3.337 . S
C1195 C509 3.286 . S
C1213 C475 2.678 . S
C1209 C129 2.710 . S
C1231 C510 2.681 . S
C1227 C19 2.615 . S
C1249 C506 1.990 . S
C1245 C289 1.925 . S
C1263 C55 0.813 . S
C1267 C508 0.695 . S
C1281 C85 0.214 . S
C1285 C477 0.150 . S
C1303 C511 1.282 . S
C1299 C138 1.274 . S
C1317 C5 0.809 . S
C1321 C476 0.778 . S
C1335 C205 1.696 . S
C1339 C513 1.637 . S
C1357 C479 2.293 . S
C1353 C259 2.305 . S
C1375 C474 1.064 . S
C1371 C168 1.027 . S
