# Generated by pormake.
# Topology bcu-b, (8,8)-cn, num edge types: 1
# Building blocks:
#     Node 0, Type 0, BuildingBlock: TAGTUT_clean_sbu_3, # of connection points: 8
#     Node 1, Type 1, BuildingBlock: TAGTUT_clean_sbu_1, # of connection points: 8
#     Edge 2, Type (0, 1), BuildingBlock: FUNLAD_clean_linker_1, # of connection points: 2
#     Edge 3, Type (0, 1), BuildingBlock: FUNLAD_clean_linker_1, # of connection points: 2
#     Edge 4, Type (0, 1), BuildingBlock: FUNLAD_clean_linker_1, # of connection points: 2
#     Edge 5, Type (0, 1), BuildingBlock: FUNLAD_clean_linker_1, # of connection points: 2
#     Edge 6, Type (0, 1), BuildingBlock: FUNLAD_clean_linker_1, # of connection points: 2
#     Edge 7, Type (0, 1), BuildingBlock: FUNLAD_clean_linker_1, # of connection points: 2
#     Edge 8, Type (0, 1), BuildingBlock: FUNLAD_clean_linker_1, # of connection points: 2
#     Edge 9, Type (0, 1), BuildingBlock: FUNLAD_clean_linker_1, # of connection points: 2
# Relax obj value: 0.017
# Max RMSD: 0.086
# Mean RMSD: 0.075
data_MOF--net-bcu-b--node1-TAGTUT_clean_sbu_3--node2-TAGTUT_clean_sbu_1--edge1-FUNLAD_clean_linker_1
_symmetry_space_group_name_H-M    P1
_symmetry_Int_Tables_number       1
_symmetry_cell_setting            triclinic
loop_
_symmetry_equiv_pos_as_xyz
'x, y, z'
_cell_length_a     20.573962
_cell_length_b     19.883278
_cell_length_c     21.592908
_cell_angle_alpha  91.658635
_cell_angle_beta   91.198567
_cell_angle_gamma 108.69017
loop_
_atom_site_label
_atom_site_type_symbol
_atom_site_fract_x
_atom_site_fract_y
_atom_site_fract_z
_atom_type_partial_charge
C0 C 0.09813 0.11486 0.10423 0.0
C1 C 0.21029 0.89984 0.08913 0.0
C2 C 0.1413 0.8928 0.901 0.0
Mg3 Mg 0.97292 0.13118 0.01435 0.0
Mg4 Mg 0.85125 0.98245 0.97249 0.0
O5 O 0.94419 0.03684 0.96823 0.0
Mg6 Mg 0.00972 0.9929 0.00591 0.0
O7 O 0.07931 0.95379 0.04392 0.0
Mg8 Mg 0.16524 0.02321 0.01184 0.0
Mg9 Mg 0.06664 0.85835 0.02064 0.0
C10 C 0.9146 0.87367 0.90697 0.0
O11 O 0.92906 0.9136 0.06315 0.0
O12 O 0.8949 0.15987 0.94586 0.0
O13 O 0.96243 0.8159 0.05381 0.0
O14 O 0.88737 0.09726 0.0849 0.0
O15 O 0.81515 0.05378 0.92077 0.0
O16 O 0.81506 0.98809 0.06525 0.0
O17 O 0.0938 0.06563 0.95241 0.0
O18 O 0.06283 0.16281 0.94547 0.0
C19 C 0.10413 0.12795 0.93302 0.0
C20 C 0.83922 0.1213 0.91685 0.0
O21 O 0.97518 0.90785 0.92837 0.0
O22 O 0.22407 0.96523 0.07443 0.0
O23 O 0.86079 0.88805 0.92428 0.0
O24 O 0.17378 0.95211 0.92842 0.0
O25 O 0.15386 0.85136 0.073 0.0
O26 O 0.08944 0.84842 0.92472 0.0
O27 O 0.04 0.08357 0.07714 0.0
O28 O 0.15146 0.09728 0.09148 0.0
C29 C 0.83621 0.04462 0.0996 0.0
C30 C 0.91986 0.84734 0.07142 0.0
C31 C 0.35694 0.65704 0.56924 0.0
C32 C 0.4267 0.62905 0.38599 0.0
C33 C 0.37977 0.35666 0.449 0.0
Mg34 Mg 0.49659 0.65766 0.51563 0.0
O35 O 0.4589 0.5605 0.53154 0.0
Mg36 Mg 0.36496 0.50821 0.49561 0.0
Mg37 Mg 0.50547 0.49207 0.50176 0.0
O38 O 0.55283 0.42423 0.47206 0.0
Mg39 Mg 0.5189 0.32862 0.49434 0.0
Mg40 Mg 0.64928 0.47991 0.49964 0.0
C41 C 0.63392 0.62657 0.55739 0.0
C42 C 0.60413 0.56649 0.39074 0.0
O43 O 0.32985 0.5943 0.54503 0.0
O44 O 0.42128 0.69177 0.56632 0.0
O45 O 0.38168 0.57454 0.40704 0.0
O46 O 0.4791 0.66642 0.41823 0.0
O47 O 0.60261 0.67229 0.54836 0.0
O48 O 0.60436 0.55959 0.54913 0.0
C49 C 0.4016 0.42297 0.61027 0.0
O50 O 0.46122 0.43028 0.58876 0.0
O51 O 0.35826 0.44768 0.58372 0.0
O52 O 0.68058 0.39171 0.44494 0.0
O53 O 0.58773 0.29299 0.43765 0.0
O54 O 0.64379 0.41947 0.58846 0.0
C55 C 0.65029 0.32703 0.42561 0.0
O56 O 0.55039 0.32373 0.59079 0.0
O57 O 0.41172 0.31272 0.46309 0.0
C58 C 0.6058 0.36596 0.61609 0.0
O59 O 0.40868 0.42435 0.45309 0.0
O60 O 0.54572 0.55436 0.41543 0.0
O61 O 0.6503 0.54263 0.41304 0.0
H62 H 0.05727 0.18377 0.16368 0.0
C63 C 0.10287 0.16986 0.15294 0.0
H64 H 0.20753 0.18739 0.17462 0.0
H65 H 0.30782 0.47172 0.31582 0.0
H66 H 0.3356 0.51518 0.21275 0.0
H67 H 0.28523 0.43945 0.11995 0.0
H68 H 0.20728 0.31901 0.13014 0.0
C69 C 0.1614 0.19991 0.18601 0.0
C70 C 0.1681 0.25213 0.23807 0.0
C71 C 0.21105 0.32287 0.23144 0.0
C72 C 0.23947 0.36652 0.28488 0.0
C73 C 0.28499 0.43597 0.27695 0.0
C74 C 0.30111 0.46172 0.21793 0.0
C75 C 0.27275 0.4191 0.16568 0.0
C76 C 0.22841 0.35024 0.17208 0.0
H77 H 0.29437 0.27044 0.40696 0.0
C78 C 0.31122 0.32701 0.41909 0.0
H79 H 0.29353 0.42449 0.407 0.0
H80 H 0.07383 0.12468 0.26647 0.0
H81 H 0.03597 0.08684 0.3693 0.0
H82 H 0.08216 0.1652 0.46166 0.0
H83 H 0.1677 0.28197 0.45134 0.0
C84 C 0.27596 0.3678 0.3963 0.0
C85 C 0.22494 0.33836 0.34446 0.0
C86 C 0.17206 0.2729 0.35069 0.0
C87 C 0.14431 0.22879 0.29735 0.0
C88 C 0.0958 0.16096 0.30527 0.0
C89 C 0.07364 0.13861 0.3641 0.0
C90 C 0.09969 0.1827 0.41613 0.0
C91 C 0.14864 0.24913 0.40976 0.0
H92 H 0.74493 0.01609 0.15849 0.0
C93 C 0.79618 0.05343 0.15371 0.0
H94 H 0.86936 0.14974 0.18584 0.0
H95 H 0.66616 0.30748 0.26553 0.0
H96 H 0.70288 0.36081 0.16752 0.0
H97 H 0.77168 0.31223 0.09783 0.0
H98 H 0.80364 0.20968 0.12566 0.0
C99 C 0.81866 0.1117 0.19175 0.0
C100 C 0.77214 0.13592 0.23224 0.0
C101 C 0.75502 0.19699 0.21595 0.0
C102 C 0.71648 0.22587 0.25666 0.0
C103 C 0.69757 0.28488 0.23767 0.0
C104 C 0.71775 0.31569 0.18113 0.0
C105 C 0.75642 0.28831 0.14189 0.0
C106 C 0.77473 0.22957 0.15868 0.0
H107 H 0.74118 0.32193 0.37524 0.0
C108 C 0.68849 0.29211 0.38556 0.0
H109 H 0.60701 0.19578 0.36963 0.0
H110 H 0.7927 0.01627 0.27587 0.0
H111 H 0.75141 0.95975 0.37219 0.0
H112 H 0.6857 0.0104 0.44322 0.0
H113 H 0.66012 0.11769 0.41855 0.0
C114 C 0.65915 0.2269 0.3589 0.0
C115 C 0.6965 0.19471 0.31449 0.0
C116 C 0.71063 0.13159 0.32934 0.0
C117 C 0.74864 0.10221 0.28823 0.0
C118 C 0.7634 0.04024 0.30501 0.0
C119 C 0.7403 0.00745 0.36022 0.0
C120 C 0.70317 0.03595 0.40025 0.0
C121 C 0.68867 0.09747 0.38543 0.0
H122 H 0.85463 0.74934 0.1114 0.0
C123 C 0.86068 0.80525 0.10605 0.0
H124 H 0.82659 0.89038 0.13442 0.0
H125 H 0.61152 0.57187 0.21625 0.0
H126 H 0.58085 0.54989 0.1066 0.0
H127 H 0.63514 0.6394 0.03041 0.0
H128 H 0.72124 0.75128 0.06359 0.0
C129 C 0.81904 0.83401 0.13626 0.0
C130 C 0.77116 0.79143 0.18173 0.0
C131 C 0.71877 0.72809 0.16201 0.0
C132 C 0.68616 0.67751 0.20609 0.0
C133 C 0.63695 0.61277 0.18486 0.0
C134 C 0.61895 0.59946 0.12203 0.0
C135 C 0.64962 0.6498 0.0791 0.0
C136 C 0.69911 0.71346 0.0986 0.0
H137 H 0.5815 0.63533 0.3203 0.0
C138 C 0.62027 0.6137 0.33791 0.0
H139 H 0.72334 0.61588 0.3342 0.0
H140 H 0.85973 0.91433 0.23569 0.0
H141 H 0.88385 0.94027 0.34573 0.0
H142 H 0.82499 0.85368 0.42251 0.0
H143 H 0.74205 0.74023 0.38941 0.0
C144 C 0.68336 0.63464 0.31487 0.0
C145 C 0.70495 0.69172 0.26977 0.0
C146 C 0.75137 0.75864 0.28998 0.0
C147 C 0.78456 0.80879 0.24584 0.0
C148 C 0.83281 0.8742 0.26715 0.0
C149 C 0.84716 0.88982 0.33027 0.0
C150 C 0.81403 0.84109 0.3735 0.0
C151 C 0.76669 0.77615 0.35387 0.0
H152 H 0.27908 0.90945 0.17114 0.0
C153 C 0.25893 0.8785 0.12866 0.0
H154 H 0.2499 0.78758 0.07301 0.0
H155 H 0.45647 0.7942 0.32378 0.0
H156 H 0.52981 0.90808 0.29115 0.0
H157 H 0.50001 0.96181 0.19768 0.0
H158 H 0.39512 0.9027 0.13761 0.0
C159 C 0.26997 0.81627 0.11656 0.0
C160 C 0.29636 0.77831 0.16471 0.0
C161 C 0.36044 0.81088 0.19639 0.0
C162 C 0.38024 0.77716 0.24745 0.0
C163 C 0.44088 0.81465 0.28224 0.0
C164 C 0.48327 0.88064 0.26437 0.0
C165 C 0.46631 0.91108 0.21196 0.0
C166 C 0.40566 0.87689 0.17823 0.0
H167 H 0.45247 0.67101 0.29259 0.0
C168 C 0.41258 0.65639 0.32655 0.0
H169 H 0.31662 0.66016 0.3547 0.0
H170 H 0.17042 0.6984 0.11301 0.0
H171 H 0.10354 0.57945 0.13874 0.0
H172 H 0.14352 0.51682 0.22069 0.0
H173 H 0.25018 0.57388 0.27814 0.0
C174 C 0.35491 0.67347 0.31912 0.0
C175 C 0.33858 0.70809 0.2633 0.0
C176 C 0.27694 0.67351 0.22879 0.0
C177 C 0.25518 0.70888 0.18018 0.0
C178 C 0.19129 0.67388 0.14895 0.0
C179 C 0.15182 0.60537 0.1635 0.0
C180 C 0.17418 0.5702 0.20971 0.0
C181 C 0.23563 0.60372 0.24236 0.0
H182 H 0.21501 0.914 0.8262 0.0
C183 C 0.16983 0.8744 0.84337 0.0
H184 H 0.10559 0.7677 0.83465 0.0
H185 H 0.29549 0.83204 0.57947 0.0
H186 H 0.23021 0.90958 0.55081 0.0
H187 H 0.14554 0.93122 0.62132 0.0
H188 H 0.1258 0.87581 0.72102 0.0
C189 C 0.14849 0.8091 0.81633 0.0
C190 C 0.19195 0.78897 0.76972 0.0
C191 C 0.20173 0.8206 0.71111 0.0
C192 C 0.24955 0.80704 0.66992 0.0
C193 C 0.25926 0.84013 0.61215 0.0
C194 C 0.2222 0.88471 0.59519 0.0
C195 C 0.17461 0.89701 0.63495 0.0
C196 C 0.16412 0.8653 0.69221 0.0
H197 H 0.25691 0.65587 0.60386 0.0
C198 C 0.31131 0.6864 0.60491 0.0
H199 H 0.38847 0.77429 0.64724 0.0
H200 H 0.18392 0.71771 0.87778 0.0
H201 H 0.24719 0.63836 0.90494 0.0
H202 H 0.32923 0.61411 0.83296 0.0
H203 H 0.34868 0.66948 0.73344 0.0
C204 C 0.3342 0.74393 0.64315 0.0
C205 C 0.2864 0.76091 0.68695 0.0
C206 C 0.27553 0.72803 0.74492 0.0
C207 C 0.22805 0.74182 0.78626 0.0
C208 C 0.2189 0.70885 0.84423 0.0
C209 C 0.25499 0.66317 0.86052 0.0
C210 C 0.30118 0.64952 0.82001 0.0
C211 C 0.31169 0.68154 0.76293 0.0
H212 H 0.19853 0.12674 0.88763 0.0
C213 C 0.16352 0.15726 0.89374 0.0
H214 H 0.13608 0.24495 0.86409 0.0
H215 H 0.45674 0.33371 0.77089 0.0
H216 H 0.49043 0.34898 0.88045 0.0
H217 H 0.40358 0.31329 0.96067 0.0
H218 H 0.28251 0.2621 0.93213 0.0
C219 C 0.17269 0.21596 0.86151 0.0
C220 C 0.22624 0.23581 0.81408 0.0
C221 C 0.29669 0.26572 0.83193 0.0
C222 C 0.34681 0.28754 0.78584 0.0
C223 C 0.41677 0.31741 0.80441 0.0
C224 C 0.43674 0.32613 0.86696 0.0
C225 C 0.38778 0.30591 0.91213 0.0
C226 C 0.31846 0.27628 0.89512 0.0
H227 H 0.35599 0.41372 0.70098 0.0
C228 C 0.38088 0.38771 0.66852 0.0
H229 H 0.39211 0.28971 0.64009 0.0
H230 H 0.09633 0.17416 0.7641 0.0
H231 H 0.06371 0.15759 0.65468 0.0
H232 H 0.15088 0.19635 0.57499 0.0
H233 H 0.27128 0.25149 0.60433 0.0
C234 C 0.3745 0.31925 0.67547 0.0
C235 C 0.32629 0.2803 0.7224 0.0
C236 C 0.25646 0.24658 0.70447 0.0
C237 C 0.20628 0.22469 0.75038 0.0
C238 C 0.13662 0.19231 0.73117 0.0
C239 C 0.11718 0.18236 0.66849 0.0
C240 C 0.16624 0.20415 0.62363 0.0
C241 C 0.23513 0.23593 0.64111 0.0
H242 H 0.75322 0.11548 0.85361 0.0
C243 C 0.79916 0.15253 0.87611 0.0
H244 H 0.85947 0.26087 0.88653 0.0
H245 H 0.66561 0.21041 0.62324 0.0
H246 H 0.73978 0.14639 0.58526 0.0
H247 H 0.83026 0.12843 0.65316 0.0
H248 H 0.84691 0.1745 0.75952 0.0
C249 C 0.81541 0.22153 0.86378 0.0
C250 C 0.76996 0.24409 0.81987 0.0
C251 C 0.76206 0.21868 0.75711 0.0
C252 C 0.7106 0.23007 0.71774 0.0
C253 C 0.70358 0.20327 0.65549 0.0
C254 C 0.74603 0.16652 0.6329 0.0
C255 C 0.79689 0.15634 0.67112 0.0
C256 C 0.80539 0.18243 0.73233 0.0
H257 H 0.67631 0.39293 0.69714 0.0
C258 C 0.63322 0.35081 0.67579 0.0
H259 H 0.57927 0.24116 0.67331 0.0
H260 H 0.77524 0.30444 0.93599 0.0
H261 H 0.70352 0.37195 0.97352 0.0
H262 H 0.6148 0.39259 0.90526 0.0
H263 H 0.5962 0.34476 0.79911 0.0
C264 C 0.6186 0.28506 0.69693 0.0
C265 C 0.6684 0.26888 0.74051 0.0
C266 C 0.67804 0.29658 0.80259 0.0
C267 C 0.72914 0.28446 0.84217 0.0
C268 C 0.73723 0.3121 0.90403 0.0
C269 C 0.69642 0.35093 0.92615 0.0
C270 C 0.64639 0.36251 0.88767 0.0
C271 C 0.63669 0.33533 0.82672 0.0
H272 H 0.95577 0.82817 0.82878 0.0
C273 C 0.90874 0.82689 0.85154 0.0
H274 H 0.80133 0.79922 0.84308 0.0
H275 H 0.76589 0.85569 0.57013 0.0
H276 H 0.76326 0.96667 0.61748 0.0
H277 H 0.7986 -0.00242 0.7273 0.0
H278 H 0.8367 0.9173 0.79029 0.0
C279 C 0.84814 0.79788 0.82139 0.0
C280 C 0.84388 0.78693 0.75313 0.0
C281 C 0.8227 0.835 0.71689 0.0
C282 C 0.80176 0.81692 0.6539 0.0
C283 C 0.78025 0.86546 0.61873 0.0
C284 C 0.7793 0.92992 0.64519 0.0
C285 C 0.7993 0.94739 0.70699 0.0
C286 C 0.82075 0.90069 0.74267 0.0
H287 H 0.71079 0.61746 0.62406 0.0
C288 C 0.70226 0.65042 0.58755 0.0
H289 H 0.73674 0.7457 0.54187 0.0
H290 H 0.89938 0.69305 0.80567 0.0
H291 H 0.91965 0.59209 0.75283 0.0
H292 H 0.889 0.56511 0.64156 0.0
H293 H 0.83607 0.6384 0.58279 0.0
C294 C 0.74765 0.7149 0.57893 0.0
C295 C 0.80022 0.74987 0.62862 0.0
C296 C 0.8354 0.71008 0.66085 0.0
C297 C 0.85551 0.72736 0.72413 0.0
C298 C 0.88472 0.68309 0.75704 0.0
C299 C 0.89657 0.62512 0.72724 0.0
C300 C 0.87921 0.60983 0.66457 0.0
C301 C 0.84879 0.6517 0.63152 0.0
loop_
_geom_bond_atom_site_label_1
_geom_bond_atom_site_label_2
_geom_bond_distance
_geom_bond_site_symmetry_2
_ccdc_geom_bond_type
C0 O27 1.312 . S
C0 O28 1.208 . S
C1 O22 1.331 . S
C1 O25 1.244 . S
C2 O24 1.264 . S
C2 O26 1.273 . S
Mg3 O5 1.935 1_454 S
Mg3 O12 2.079 1_454 S
Mg3 O14 2.022 1_455 S
Mg3 O18 2.033 1_554 S
Mg3 O27 2.293 . S
Mg4 O5 1.963 . S
Mg4 O15 1.942 . S
Mg4 O16 1.955 1_556 S
Mg4 O23 1.986 1_545 S
O5 Mg3 1.935 1_656 S
O5 Mg4 1.963 . S
O5 Mg6 1.915 1_546 S
Mg6 O5 1.915 1_564 S
Mg6 O7 1.915 1_655 S
Mg6 O11 2.013 . S
Mg6 O17 2.114 1_664 S
Mg6 O21 2.013 1_554 S
Mg6 O27 2.114 1_665 S
O7 Mg6 1.915 1_455 S
O7 Mg8 1.936 . S
O7 Mg9 1.963 . S
Mg8 O7 1.936 . S
Mg8 O17 2.291 1_564 S
Mg8 O22 2.081 . S
Mg8 O24 2.023 1_554 S
Mg8 O28 2.031 1_565 S
Mg9 O7 1.963 . S
Mg9 O13 1.986 1_455 S
Mg9 O25 1.942 . S
Mg9 O26 1.955 1_554 S
C10 O21 1.191 . S
C10 O23 1.307 . S
O11 Mg6 2.013 . S
O11 C30 1.191 . S
O12 Mg3 2.079 1_656 S
O12 C20 1.331 . S
O13 Mg9 1.986 1_655 S
O13 C30 1.307 . S
O14 Mg3 2.022 1_655 S
O14 C29 1.264 . S
O15 Mg4 1.942 . S
O15 C20 1.244 . S
O16 Mg4 1.955 1_554 S
O16 C29 1.273 . S
O17 Mg6 2.114 1_446 S
O17 Mg8 2.291 1_546 S
O17 C19 1.312 . S
O18 Mg3 2.033 1_556 S
O18 C19 1.208 . S
C19 O17 1.312 . S
C19 O18 1.208 . S
C20 O12 1.331 . S
C20 O15 1.244 . S
O21 Mg6 2.013 1_556 S
O21 C10 1.191 . S
O22 C1 1.331 . S
O22 Mg8 2.081 . S
O23 Mg4 1.986 1_565 S
O23 C10 1.307 . S
O24 C2 1.264 . S
O24 Mg8 2.023 1_556 S
O25 C1 1.244 . S
O25 Mg9 1.942 . S
O26 C2 1.273 . S
O26 Mg9 1.955 1_556 S
O27 C0 1.312 . S
O27 Mg3 2.293 . S
O27 Mg6 2.114 1_445 S
O28 C0 1.208 . S
O28 Mg8 2.031 1_545 S
C29 O14 1.264 . S
C29 O16 1.273 . S
C30 O11 1.191 . S
C30 O13 1.307 . S
C31 O43 1.241 . S
C31 O44 1.280 . S
C32 O45 1.277 . S
C32 O46 1.245 . S
C33 O57 1.247 . S
C33 O59 1.289 . S
Mg34 O35 1.926 . S
Mg34 O44 1.984 . S
Mg34 O46 1.988 . S
Mg34 O47 2.061 . S
O35 Mg34 1.926 . S
O35 Mg36 1.986 . S
O35 Mg37 1.917 . S
Mg36 O35 1.986 . S
Mg36 O43 2.042 . S
Mg36 O45 2.041 . S
Mg36 O51 2.038 . S
Mg36 O59 2.238 . S
Mg37 O35 1.917 . S
Mg37 O38 1.917 . S
Mg37 O48 2.106 . S
Mg37 O50 2.079 . S
Mg37 O59 2.106 . S
Mg37 O60 2.079 . S
O38 Mg37 1.917 . S
O38 Mg39 1.926 . S
O38 Mg40 1.986 . S
Mg39 O38 1.926 . S
Mg39 O53 1.984 . S
Mg39 O56 1.988 . S
Mg39 O57 2.061 . S
Mg40 O38 1.986 . S
Mg40 O48 2.238 . S
Mg40 O52 2.042 . S
Mg40 O54 2.041 . S
Mg40 O61 2.038 . S
C41 O47 1.247 . S
C41 O48 1.289 . S
C42 O60 1.245 . S
C42 O61 1.274 . S
O43 C31 1.241 . S
O43 Mg36 2.042 . S
O44 C31 1.280 . S
O44 Mg34 1.984 . S
O45 C32 1.277 . S
O45 Mg36 2.041 . S
O46 C32 1.245 . S
O46 Mg34 1.988 . S
O47 Mg34 2.061 . S
O47 C41 1.247 . S
O48 Mg37 2.106 . S
O48 Mg40 2.238 . S
O48 C41 1.289 . S
C49 O50 1.245 . S
C49 O51 1.274 . S
O50 Mg37 2.079 . S
O50 C49 1.245 . S
O51 Mg36 2.038 . S
O51 C49 1.274 . S
O52 Mg40 2.042 . S
O52 C55 1.241 . S
O53 Mg39 1.984 . S
O53 C55 1.280 . S
O54 Mg40 2.041 . S
O54 C58 1.277 . S
C55 O52 1.241 . S
C55 O53 1.280 . S
O56 Mg39 1.988 . S
O56 C58 1.245 . S
O57 C33 1.247 . S
O57 Mg39 2.061 . S
C58 O54 1.277 . S
C58 O56 1.245 . S
O59 C33 1.289 . S
O59 Mg36 2.238 . S
O59 Mg37 2.106 . S
O60 Mg37 2.079 . S
O60 C42 1.245 . S
O61 Mg40 2.038 . S
O61 C42 1.274 . S
H62 C63 0.951 . S
C63 H62 0.951 . S
C63 C69 1.265 . S
H64 C69 0.950 . S
H65 C73 0.949 . S
H66 C74 0.950 . S
H67 C75 0.951 . S
H68 C76 0.951 . S
C69 C63 1.265 . S
C69 H64 0.950 . S
C69 C70 1.478 . S
C70 C69 1.478 . S
C70 C71 1.397 . S
C70 C87 1.394 . S
C71 C70 1.397 . S
C71 C72 1.438 . S
C71 C76 1.429 . S
C72 C71 1.438 . S
C72 C73 1.428 . S
C72 C85 1.394 . S
C73 H65 0.949 . S
C73 C72 1.428 . S
C73 C74 1.345 . S
C74 H66 0.950 . S
C74 C73 1.345 . S
C74 C75 1.424 . S
C75 H67 0.951 . S
C75 C74 1.424 . S
C75 C76 1.347 . S
C76 H68 0.951 . S
C76 C71 1.429 . S
C76 C75 1.347 . S
H77 C78 0.951 . S
C78 H77 0.951 . S
C78 C84 1.265 . S
H79 C84 0.950 . S
H80 C88 0.949 . S
H81 C89 0.950 . S
H82 C90 0.951 . S
H83 C91 0.951 . S
C84 C78 1.265 . S
C84 H79 0.950 . S
C84 C85 1.478 . S
C85 C72 1.394 . S
C85 C84 1.478 . S
C85 C86 1.397 . S
C86 C85 1.397 . S
C86 C87 1.438 . S
C86 C91 1.429 . S
C87 C70 1.394 . S
C87 C86 1.438 . S
C87 C88 1.428 . S
C88 H80 0.949 . S
C88 C87 1.428 . S
C88 C89 1.345 . S
C89 H81 0.950 . S
C89 C88 1.345 . S
C89 C90 1.424 . S
C90 H82 0.951 . S
C90 C89 1.424 . S
C90 C91 1.347 . S
C91 H83 0.951 . S
C91 C86 1.429 . S
C91 C90 1.347 . S
H92 C93 0.951 . S
C93 H92 0.951 . S
C93 C99 1.265 . S
H94 C99 0.950 . S
H95 C103 0.949 . S
H96 C104 0.950 . S
H97 C105 0.951 . S
H98 C106 0.951 . S
C99 C93 1.265 . S
C99 H94 0.950 . S
C99 C100 1.478 . S
C100 C99 1.478 . S
C100 C101 1.397 . S
C100 C117 1.394 . S
C101 C100 1.397 . S
C101 C102 1.438 . S
C101 C106 1.429 . S
C102 C101 1.438 . S
C102 C103 1.428 . S
C102 C115 1.394 . S
C103 H95 0.949 . S
C103 C102 1.428 . S
C103 C104 1.345 . S
C104 H96 0.950 . S
C104 C103 1.345 . S
C104 C105 1.424 . S
C105 H97 0.951 . S
C105 C104 1.424 . S
C105 C106 1.347 . S
C106 H98 0.951 . S
C106 C101 1.429 . S
C106 C105 1.347 . S
H107 C108 0.951 . S
C108 H107 0.951 . S
C108 C114 1.265 . S
H109 C114 0.950 . S
H110 C118 0.949 . S
H111 C119 0.950 . S
H112 C120 0.951 . S
H113 C121 0.951 . S
C114 C108 1.265 . S
C114 H109 0.950 . S
C114 C115 1.478 . S
C115 C102 1.394 . S
C115 C114 1.478 . S
C115 C116 1.397 . S
C116 C115 1.397 . S
C116 C117 1.438 . S
C116 C121 1.429 . S
C117 C100 1.394 . S
C117 C116 1.438 . S
C117 C118 1.428 . S
C118 H110 0.949 . S
C118 C117 1.428 . S
C118 C119 1.345 . S
C119 H111 0.950 . S
C119 C118 1.345 . S
C119 C120 1.424 . S
C120 H112 0.951 . S
C120 C119 1.424 . S
C120 C121 1.347 . S
C121 H113 0.951 . S
C121 C116 1.429 . S
C121 C120 1.347 . S
H122 C123 0.951 . S
C123 H122 0.951 . S
C123 C129 1.265 . S
H124 C129 0.950 . S
H125 C133 0.949 . S
H126 C134 0.950 . S
H127 C135 0.951 . S
H128 C136 0.951 . S
C129 C123 1.265 . S
C129 H124 0.950 . S
C129 C130 1.478 . S
C130 C129 1.478 . S
C130 C131 1.397 . S
C130 C147 1.394 . S
C131 C130 1.397 . S
C131 C132 1.438 . S
C131 C136 1.429 . S
C132 C131 1.438 . S
C132 C133 1.428 . S
C132 C145 1.394 . S
C133 H125 0.949 . S
C133 C132 1.428 . S
C133 C134 1.345 . S
C134 H126 0.950 . S
C134 C133 1.345 . S
C134 C135 1.424 . S
C135 H127 0.951 . S
C135 C134 1.424 . S
C135 C136 1.347 . S
C136 H128 0.951 . S
C136 C131 1.429 . S
C136 C135 1.347 . S
H137 C138 0.951 . S
C138 H137 0.951 . S
C138 C144 1.265 . S
H139 C144 0.950 . S
H140 C148 0.949 . S
H141 C149 0.950 . S
H142 C150 0.951 . S
H143 C151 0.951 . S
C144 C138 1.265 . S
C144 H139 0.950 . S
C144 C145 1.478 . S
C145 C132 1.394 . S
C145 C144 1.478 . S
C145 C146 1.397 . S
C146 C145 1.397 . S
C146 C147 1.438 . S
C146 C151 1.429 . S
C147 C130 1.394 . S
C147 C146 1.438 . S
C147 C148 1.428 . S
C148 H140 0.949 . S
C148 C147 1.428 . S
C148 C149 1.345 . S
C149 H141 0.950 . S
C149 C148 1.345 . S
C149 C150 1.424 . S
C150 H142 0.951 . S
C150 C149 1.424 . S
C150 C151 1.347 . S
C151 H143 0.951 . S
C151 C146 1.429 . S
C151 C150 1.347 . S
H152 C153 0.951 . S
C153 H152 0.951 . S
C153 C159 1.265 . S
H154 C159 0.950 . S
H155 C163 0.949 . S
H156 C164 0.950 . S
H157 C165 0.951 . S
H158 C166 0.951 . S
C159 C153 1.265 . S
C159 H154 0.950 . S
C159 C160 1.478 . S
C160 C159 1.478 . S
C160 C161 1.397 . S
C160 C177 1.394 . S
C161 C160 1.397 . S
C161 C162 1.438 . S
C161 C166 1.429 . S
C162 C161 1.438 . S
C162 C163 1.428 . S
C162 C175 1.394 . S
C163 H155 0.949 . S
C163 C162 1.428 . S
C163 C164 1.345 . S
C164 H156 0.950 . S
C164 C163 1.345 . S
C164 C165 1.424 . S
C165 H157 0.951 . S
C165 C164 1.424 . S
C165 C166 1.347 . S
C166 H158 0.951 . S
C166 C161 1.429 . S
C166 C165 1.347 . S
H167 C168 0.951 . S
C168 H167 0.951 . S
C168 C174 1.265 . S
H169 C174 0.950 . S
H170 C178 0.949 . S
H171 C179 0.950 . S
H172 C180 0.951 . S
H173 C181 0.951 . S
C174 C168 1.265 . S
C174 H169 0.950 . S
C174 C175 1.478 . S
C175 C162 1.394 . S
C175 C174 1.478 . S
C175 C176 1.397 . S
C176 C175 1.397 . S
C176 C177 1.438 . S
C176 C181 1.429 . S
C177 C160 1.394 . S
C177 C176 1.438 . S
C177 C178 1.428 . S
C178 H170 0.949 . S
C178 C177 1.428 . S
C178 C179 1.345 . S
C179 H171 0.950 . S
C179 C178 1.345 . S
C179 C180 1.424 . S
C180 H172 0.951 . S
C180 C179 1.424 . S
C180 C181 1.347 . S
C181 H173 0.951 . S
C181 C176 1.429 . S
C181 C180 1.347 . S
H182 C183 0.951 . S
C183 H182 0.951 . S
C183 C189 1.265 . S
H184 C189 0.950 . S
H185 C193 0.949 . S
H186 C194 0.950 . S
H187 C195 0.951 . S
H188 C196 0.951 . S
C189 C183 1.265 . S
C189 H184 0.950 . S
C189 C190 1.478 . S
C190 C189 1.478 . S
C190 C191 1.397 . S
C190 C207 1.394 . S
C191 C190 1.397 . S
C191 C192 1.438 . S
C191 C196 1.429 . S
C192 C191 1.438 . S
C192 C193 1.428 . S
C192 C205 1.394 . S
C193 H185 0.949 . S
C193 C192 1.428 . S
C193 C194 1.345 . S
C194 H186 0.950 . S
C194 C193 1.345 . S
C194 C195 1.424 . S
C195 H187 0.951 . S
C195 C194 1.424 . S
C195 C196 1.347 . S
C196 H188 0.951 . S
C196 C191 1.429 . S
C196 C195 1.347 . S
H197 C198 0.951 . S
C198 H197 0.951 . S
C198 C204 1.265 . S
H199 C204 0.950 . S
H200 C208 0.949 . S
H201 C209 0.950 . S
H202 C210 0.951 . S
H203 C211 0.951 . S
C204 C198 1.265 . S
C204 H199 0.950 . S
C204 C205 1.478 . S
C205 C192 1.394 . S
C205 C204 1.478 . S
C205 C206 1.397 . S
C206 C205 1.397 . S
C206 C207 1.438 . S
C206 C211 1.429 . S
C207 C190 1.394 . S
C207 C206 1.438 . S
C207 C208 1.428 . S
C208 H200 0.949 . S
C208 C207 1.428 . S
C208 C209 1.345 . S
C209 H201 0.950 . S
C209 C208 1.345 . S
C209 C210 1.424 . S
C210 H202 0.951 . S
C210 C209 1.424 . S
C210 C211 1.347 . S
C211 H203 0.951 . S
C211 C206 1.429 . S
C211 C210 1.347 . S
H212 C213 0.951 . S
C213 H212 0.951 . S
C213 C219 1.265 . S
H214 C219 0.950 . S
H215 C223 0.949 . S
H216 C224 0.950 . S
H217 C225 0.951 . S
H218 C226 0.951 . S
C219 C213 1.265 . S
C219 H214 0.950 . S
C219 C220 1.478 . S
C220 C219 1.478 . S
C220 C221 1.397 . S
C220 C237 1.394 . S
C221 C220 1.397 . S
C221 C222 1.438 . S
C221 C226 1.429 . S
C222 C221 1.438 . S
C222 C223 1.428 . S
C222 C235 1.394 . S
C223 H215 0.949 . S
C223 C222 1.428 . S
C223 C224 1.345 . S
C224 H216 0.950 . S
C224 C223 1.345 . S
C224 C225 1.424 . S
C225 H217 0.951 . S
C225 C224 1.424 . S
C225 C226 1.347 . S
C226 H218 0.951 . S
C226 C221 1.429 . S
C226 C225 1.347 . S
H227 C228 0.951 . S
C228 H227 0.951 . S
C228 C234 1.265 . S
H229 C234 0.950 . S
H230 C238 0.949 . S
H231 C239 0.950 . S
H232 C240 0.951 . S
H233 C241 0.951 . S
C234 C228 1.265 . S
C234 H229 0.950 . S
C234 C235 1.478 . S
C235 C222 1.394 . S
C235 C234 1.478 . S
C235 C236 1.397 . S
C236 C235 1.397 . S
C236 C237 1.438 . S
C236 C241 1.429 . S
C237 C220 1.394 . S
C237 C236 1.438 . S
C237 C238 1.428 . S
C238 H230 0.949 . S
C238 C237 1.428 . S
C238 C239 1.345 . S
C239 H231 0.950 . S
C239 C238 1.345 . S
C239 C240 1.424 . S
C240 H232 0.951 . S
C240 C239 1.424 . S
C240 C241 1.347 . S
C241 H233 0.951 . S
C241 C236 1.429 . S
C241 C240 1.347 . S
H242 C243 0.951 . S
C243 H242 0.951 . S
C243 C249 1.265 . S
H244 C249 0.950 . S
H245 C253 0.949 . S
H246 C254 0.950 . S
H247 C255 0.951 . S
H248 C256 0.951 . S
C249 C243 1.265 . S
C249 H244 0.950 . S
C249 C250 1.478 . S
C250 C249 1.478 . S
C250 C251 1.397 . S
C250 C267 1.394 . S
C251 C250 1.397 . S
C251 C252 1.438 . S
C251 C256 1.429 . S
C252 C251 1.438 . S
C252 C253 1.428 . S
C252 C265 1.394 . S
C253 H245 0.949 . S
C253 C252 1.428 . S
C253 C254 1.345 . S
C254 H246 0.950 . S
C254 C253 1.345 . S
C254 C255 1.424 . S
C255 H247 0.951 . S
C255 C254 1.424 . S
C255 C256 1.347 . S
C256 H248 0.951 . S
C256 C251 1.429 . S
C256 C255 1.347 . S
H257 C258 0.951 . S
C258 H257 0.951 . S
C258 C264 1.265 . S
H259 C264 0.950 . S
H260 C268 0.949 . S
H261 C269 0.950 . S
H262 C270 0.951 . S
H263 C271 0.951 . S
C264 C258 1.265 . S
C264 H259 0.950 . S
C264 C265 1.478 . S
C265 C252 1.394 . S
C265 C264 1.478 . S
C265 C266 1.397 . S
C266 C265 1.397 . S
C266 C267 1.438 . S
C266 C271 1.429 . S
C267 C250 1.394 . S
C267 C266 1.438 . S
C267 C268 1.428 . S
C268 H260 0.949 . S
C268 C267 1.428 . S
C268 C269 1.345 . S
C269 H261 0.950 . S
C269 C268 1.345 . S
C269 C270 1.424 . S
C270 H262 0.951 . S
C270 C269 1.424 . S
C270 C271 1.347 . S
C271 H263 0.951 . S
C271 C266 1.429 . S
C271 C270 1.347 . S
H272 C273 0.951 . S
C273 H272 0.951 . S
C273 C279 1.265 . S
H274 C279 0.950 . S
H275 C283 0.949 . S
H276 C284 0.950 . S
H277 C285 0.951 . S
H278 C286 0.951 . S
C279 C273 1.265 . S
C279 H274 0.950 . S
C279 C280 1.478 . S
C280 C279 1.478 . S
C280 C281 1.397 . S
C280 C297 1.394 . S
C281 C280 1.397 . S
C281 C282 1.438 . S
C281 C286 1.429 . S
C282 C281 1.438 . S
C282 C283 1.428 . S
C282 C295 1.394 . S
C283 H275 0.949 . S
C283 C282 1.428 . S
C283 C284 1.345 . S
C284 H276 0.950 . S
C284 C283 1.345 . S
C284 C285 1.424 . S
C285 H277 0.951 . S
C285 C284 1.424 . S
C285 C286 1.347 . S
C286 H278 0.951 . S
C286 C281 1.429 . S
C286 C285 1.347 . S
H287 C288 0.951 . S
C288 H287 0.951 . S
C288 C294 1.265 . S
H289 C294 0.950 . S
H290 C298 0.949 . S
H291 C299 0.950 . S
H292 C300 0.951 . S
H293 C301 0.951 . S
C294 C288 1.265 . S
C294 H289 0.950 . S
C294 C295 1.478 . S
C295 C282 1.394 . S
C295 C294 1.478 . S
C295 C296 1.397 . S
C296 C295 1.397 . S
C296 C297 1.438 . S
C296 C301 1.429 . S
C297 C280 1.394 . S
C297 C296 1.438 . S
C297 C298 1.428 . S
C298 H290 0.949 . S
C298 C297 1.428 . S
C298 C299 1.345 . S
C299 H291 0.950 . S
C299 C298 1.345 . S
C299 C300 1.424 . S
C300 H292 0.951 . S
C300 C299 1.424 . S
C300 C301 1.347 . S
C301 H293 0.951 . S
C301 C296 1.429 . S
C301 C300 1.347 . S
C63 C0 1.119 . S
C78 C33 1.043 . S
C93 C29 1.624 . S
C108 C55 1.605 . S
C123 C30 1.369 . S
C138 C42 1.400 . S
C153 C1 1.660 . S
C168 C32 1.668 . S
C183 C2 1.614 . S
C198 C31 1.600 . S
C228 C49 1.423 . S
C213 C19 1.444 . S
C243 C20 1.626 . S
C258 C58 1.628 . S
C288 C41 1.032 . S
C273 C10 1.083 . S
