# Generated by pormake.
# Topology gar, (4,6)-cn, num edge types: 1
# Building blocks:
#     Node 0, Type 0, BuildingBlock: CEKHIL_clean_sbu_0, # of connection points: 4
#     Node 1, Type 0, BuildingBlock: CEKHIL_clean_sbu_0, # of connection points: 4
#     Node 2, Type 0, BuildingBlock: CEKHIL_clean_sbu_0, # of connection points: 4
#     Node 3, Type 0, BuildingBlock: CEKHIL_clean_sbu_0, # of connection points: 4
#     Node 4, Type 0, BuildingBlock: CEKHIL_clean_sbu_0, # of connection points: 4
#     Node 5, Type 0, BuildingBlock: CEKHIL_clean_sbu_0, # of connection points: 4
#     Node 6, Type 0, BuildingBlock: CEKHIL_clean_sbu_0, # of connection points: 4
#     Node 7, Type 0, BuildingBlock: CEKHIL_clean_sbu_0, # of connection points: 4
#     Node 8, Type 0, BuildingBlock: CEKHIL_clean_sbu_0, # of connection points: 4
#     Node 9, Type 0, BuildingBlock: CEKHIL_clean_sbu_0, # of connection points: 4
#     Node 10, Type 0, BuildingBlock: CEKHIL_clean_sbu_0, # of connection points: 4
#     Node 11, Type 0, BuildingBlock: CEKHIL_clean_sbu_0, # of connection points: 4
#     Node 12, Type 0, BuildingBlock: CEKHIL_clean_sbu_0, # of connection points: 4
#     Node 13, Type 0, BuildingBlock: CEKHIL_clean_sbu_0, # of connection points: 4
#     Node 14, Type 0, BuildingBlock: CEKHIL_clean_sbu_0, # of connection points: 4
#     Node 15, Type 0, BuildingBlock: CEKHIL_clean_sbu_0, # of connection points: 4
#     Node 16, Type 0, BuildingBlock: CEKHIL_clean_sbu_0, # of connection points: 4
#     Node 17, Type 0, BuildingBlock: CEKHIL_clean_sbu_0, # of connection points: 4
#     Node 18, Type 0, BuildingBlock: CEKHIL_clean_sbu_0, # of connection points: 4
#     Node 19, Type 0, BuildingBlock: CEKHIL_clean_sbu_0, # of connection points: 4
#     Node 20, Type 0, BuildingBlock: CEKHIL_clean_sbu_0, # of connection points: 4
#     Node 21, Type 0, BuildingBlock: CEKHIL_clean_sbu_0, # of connection points: 4
#     Node 22, Type 0, BuildingBlock: CEKHIL_clean_sbu_0, # of connection points: 4
#     Node 23, Type 0, BuildingBlock: CEKHIL_clean_sbu_0, # of connection points: 4
#     Node 24, Type 1, BuildingBlock: MIFKUJ_clean_sbu_0, # of connection points: 6
#     Node 25, Type 1, BuildingBlock: MIFKUJ_clean_sbu_0, # of connection points: 6
#     Node 26, Type 1, BuildingBlock: MIFKUJ_clean_sbu_0, # of connection points: 6
#     Node 27, Type 1, BuildingBlock: MIFKUJ_clean_sbu_0, # of connection points: 6
#     Node 28, Type 1, BuildingBlock: MIFKUJ_clean_sbu_0, # of connection points: 6
#     Node 29, Type 1, BuildingBlock: MIFKUJ_clean_sbu_0, # of connection points: 6
#     Node 30, Type 1, BuildingBlock: MIFKUJ_clean_sbu_0, # of connection points: 6
#     Node 31, Type 1, BuildingBlock: MIFKUJ_clean_sbu_0, # of connection points: 6
#     Node 32, Type 1, BuildingBlock: MIFKUJ_clean_sbu_0, # of connection points: 6
#     Node 33, Type 1, BuildingBlock: MIFKUJ_clean_sbu_0, # of connection points: 6
#     Node 34, Type 1, BuildingBlock: MIFKUJ_clean_sbu_0, # of connection points: 6
#     Node 35, Type 1, BuildingBlock: MIFKUJ_clean_sbu_0, # of connection points: 6
#     Node 36, Type 1, BuildingBlock: MIFKUJ_clean_sbu_0, # of connection points: 6
#     Node 37, Type 1, BuildingBlock: MIFKUJ_clean_sbu_0, # of connection points: 6
#     Node 38, Type 1, BuildingBlock: MIFKUJ_clean_sbu_0, # of connection points: 6
#     Node 39, Type 1, BuildingBlock: MIFKUJ_clean_sbu_0, # of connection points: 6
#     Edge 40, Type (0, 1), BuildingBlock: CIFDUS_clean_linker_0, # of connection points: 2
#     Edge 41, Type (0, 1), BuildingBlock: CIFDUS_clean_linker_0, # of connection points: 2
#     Edge 42, Type (0, 1), BuildingBlock: CIFDUS_clean_linker_0, # of connection points: 2
#     Edge 43, Type (0, 1), BuildingBlock: CIFDUS_clean_linker_0, # of connection points: 2
#     Edge 44, Type (0, 1), BuildingBlock: CIFDUS_clean_linker_0, # of connection points: 2
#     Edge 45, Type (0, 1), BuildingBlock: CIFDUS_clean_linker_0, # of connection points: 2
#     Edge 46, Type (0, 1), BuildingBlock: CIFDUS_clean_linker_0, # of connection points: 2
#     Edge 47, Type (0, 1), BuildingBlock: CIFDUS_clean_linker_0, # of connection points: 2
#     Edge 48, Type (0, 1), BuildingBlock: CIFDUS_clean_linker_0, # of connection points: 2
#     Edge 49, Type (0, 1), BuildingBlock: CIFDUS_clean_linker_0, # of connection points: 2
#     Edge 50, Type (0, 1), BuildingBlock: CIFDUS_clean_linker_0, # of connection points: 2
#     Edge 51, Type (0, 1), BuildingBlock: CIFDUS_clean_linker_0, # of connection points: 2
#     Edge 52, Type (0, 1), BuildingBlock: CIFDUS_clean_linker_0, # of connection points: 2
#     Edge 53, Type (0, 1), BuildingBlock: CIFDUS_clean_linker_0, # of connection points: 2
#     Edge 54, Type (0, 1), BuildingBlock: CIFDUS_clean_linker_0, # of connection points: 2
#     Edge 55, Type (0, 1), BuildingBlock: CIFDUS_clean_linker_0, # of connection points: 2
#     Edge 56, Type (0, 1), BuildingBlock: CIFDUS_clean_linker_0, # of connection points: 2
#     Edge 57, Type (0, 1), BuildingBlock: CIFDUS_clean_linker_0, # of connection points: 2
#     Edge 58, Type (0, 1), BuildingBlock: CIFDUS_clean_linker_0, # of connection points: 2
#     Edge 59, Type (0, 1), BuildingBlock: CIFDUS_clean_linker_0, # of connection points: 2
#     Edge 60, Type (0, 1), BuildingBlock: CIFDUS_clean_linker_0, # of connection points: 2
#     Edge 61, Type (0, 1), BuildingBlock: CIFDUS_clean_linker_0, # of connection points: 2
#     Edge 62, Type (0, 1), BuildingBlock: CIFDUS_clean_linker_0, # of connection points: 2
#     Edge 63, Type (0, 1), BuildingBlock: CIFDUS_clean_linker_0, # of connection points: 2
#     Edge 64, Type (0, 1), BuildingBlock: CIFDUS_clean_linker_0, # of connection points: 2
#     Edge 65, Type (0, 1), BuildingBlock: CIFDUS_clean_linker_0, # of connection points: 2
#     Edge 66, Type (0, 1), BuildingBlock: CIFDUS_clean_linker_0, # of connection points: 2
#     Edge 67, Type (0, 1), BuildingBlock: CIFDUS_clean_linker_0, # of connection points: 2
#     Edge 68, Type (0, 1), BuildingBlock: CIFDUS_clean_linker_0, # of connection points: 2
#     Edge 69, Type (0, 1), BuildingBlock: CIFDUS_clean_linker_0, # of connection points: 2
#     Edge 70, Type (0, 1), BuildingBlock: CIFDUS_clean_linker_0, # of connection points: 2
#     Edge 71, Type (0, 1), BuildingBlock: CIFDUS_clean_linker_0, # of connection points: 2
#     Edge 72, Type (0, 1), BuildingBlock: CIFDUS_clean_linker_0, # of connection points: 2
#     Edge 73, Type (0, 1), BuildingBlock: CIFDUS_clean_linker_0, # of connection points: 2
#     Edge 74, Type (0, 1), BuildingBlock: CIFDUS_clean_linker_0, # of connection points: 2
#     Edge 75, Type (0, 1), BuildingBlock: CIFDUS_clean_linker_0, # of connection points: 2
#     Edge 76, Type (0, 1), BuildingBlock: CIFDUS_clean_linker_0, # of connection points: 2
#     Edge 77, Type (0, 1), BuildingBlock: CIFDUS_clean_linker_0, # of connection points: 2
#     Edge 78, Type (0, 1), BuildingBlock: CIFDUS_clean_linker_0, # of connection points: 2
#     Edge 79, Type (0, 1), BuildingBlock: CIFDUS_clean_linker_0, # of connection points: 2
#     Edge 80, Type (0, 1), BuildingBlock: CIFDUS_clean_linker_0, # of connection points: 2
#     Edge 81, Type (0, 1), BuildingBlock: CIFDUS_clean_linker_0, # of connection points: 2
#     Edge 82, Type (0, 1), BuildingBlock: CIFDUS_clean_linker_0, # of connection points: 2
#     Edge 83, Type (0, 1), BuildingBlock: CIFDUS_clean_linker_0, # of connection points: 2
#     Edge 84, Type (0, 1), BuildingBlock: CIFDUS_clean_linker_0, # of connection points: 2
#     Edge 85, Type (0, 1), BuildingBlock: CIFDUS_clean_linker_0, # of connection points: 2
#     Edge 86, Type (0, 1), BuildingBlock: CIFDUS_clean_linker_0, # of connection points: 2
#     Edge 87, Type (0, 1), BuildingBlock: CIFDUS_clean_linker_0, # of connection points: 2
#     Edge 88, Type (0, 1), BuildingBlock: CIFDUS_clean_linker_0, # of connection points: 2
#     Edge 89, Type (0, 1), BuildingBlock: CIFDUS_clean_linker_0, # of connection points: 2
#     Edge 90, Type (0, 1), BuildingBlock: CIFDUS_clean_linker_0, # of connection points: 2
#     Edge 91, Type (0, 1), BuildingBlock: CIFDUS_clean_linker_0, # of connection points: 2
#     Edge 92, Type (0, 1), BuildingBlock: CIFDUS_clean_linker_0, # of connection points: 2
#     Edge 93, Type (0, 1), BuildingBlock: CIFDUS_clean_linker_0, # of connection points: 2
#     Edge 94, Type (0, 1), BuildingBlock: CIFDUS_clean_linker_0, # of connection points: 2
#     Edge 95, Type (0, 1), BuildingBlock: CIFDUS_clean_linker_0, # of connection points: 2
#     Edge 96, Type (0, 1), BuildingBlock: CIFDUS_clean_linker_0, # of connection points: 2
#     Edge 97, Type (0, 1), BuildingBlock: CIFDUS_clean_linker_0, # of connection points: 2
#     Edge 98, Type (0, 1), BuildingBlock: CIFDUS_clean_linker_0, # of connection points: 2
#     Edge 99, Type (0, 1), BuildingBlock: CIFDUS_clean_linker_0, # of connection points: 2
#     Edge 100, Type (0, 1), BuildingBlock: CIFDUS_clean_linker_0, # of connection points: 2
#     Edge 101, Type (0, 1), BuildingBlock: CIFDUS_clean_linker_0, # of connection points: 2
#     Edge 102, Type (0, 1), BuildingBlock: CIFDUS_clean_linker_0, # of connection points: 2
#     Edge 103, Type (0, 1), BuildingBlock: CIFDUS_clean_linker_0, # of connection points: 2
#     Edge 104, Type (0, 1), BuildingBlock: CIFDUS_clean_linker_0, # of connection points: 2
#     Edge 105, Type (0, 1), BuildingBlock: CIFDUS_clean_linker_0, # of connection points: 2
#     Edge 106, Type (0, 1), BuildingBlock: CIFDUS_clean_linker_0, # of connection points: 2
#     Edge 107, Type (0, 1), BuildingBlock: CIFDUS_clean_linker_0, # of connection points: 2
#     Edge 108, Type (0, 1), BuildingBlock: CIFDUS_clean_linker_0, # of connection points: 2
#     Edge 109, Type (0, 1), BuildingBlock: CIFDUS_clean_linker_0, # of connection points: 2
#     Edge 110, Type (0, 1), BuildingBlock: CIFDUS_clean_linker_0, # of connection points: 2
#     Edge 111, Type (0, 1), BuildingBlock: CIFDUS_clean_linker_0, # of connection points: 2
#     Edge 112, Type (0, 1), BuildingBlock: CIFDUS_clean_linker_0, # of connection points: 2
#     Edge 113, Type (0, 1), BuildingBlock: CIFDUS_clean_linker_0, # of connection points: 2
#     Edge 114, Type (0, 1), BuildingBlock: CIFDUS_clean_linker_0, # of connection points: 2
#     Edge 115, Type (0, 1), BuildingBlock: CIFDUS_clean_linker_0, # of connection points: 2
#     Edge 116, Type (0, 1), BuildingBlock: CIFDUS_clean_linker_0, # of connection points: 2
#     Edge 117, Type (0, 1), BuildingBlock: CIFDUS_clean_linker_0, # of connection points: 2
#     Edge 118, Type (0, 1), BuildingBlock: CIFDUS_clean_linker_0, # of connection points: 2
#     Edge 119, Type (0, 1), BuildingBlock: CIFDUS_clean_linker_0, # of connection points: 2
#     Edge 120, Type (0, 1), BuildingBlock: CIFDUS_clean_linker_0, # of connection points: 2
#     Edge 121, Type (0, 1), BuildingBlock: CIFDUS_clean_linker_0, # of connection points: 2
#     Edge 122, Type (0, 1), BuildingBlock: CIFDUS_clean_linker_0, # of connection points: 2
#     Edge 123, Type (0, 1), BuildingBlock: CIFDUS_clean_linker_0, # of connection points: 2
#     Edge 124, Type (0, 1), BuildingBlock: CIFDUS_clean_linker_0, # of connection points: 2
#     Edge 125, Type (0, 1), BuildingBlock: CIFDUS_clean_linker_0, # of connection points: 2
#     Edge 126, Type (0, 1), BuildingBlock: CIFDUS_clean_linker_0, # of connection points: 2
#     Edge 127, Type (0, 1), BuildingBlock: CIFDUS_clean_linker_0, # of connection points: 2
#     Edge 128, Type (0, 1), BuildingBlock: CIFDUS_clean_linker_0, # of connection points: 2
#     Edge 129, Type (0, 1), BuildingBlock: CIFDUS_clean_linker_0, # of connection points: 2
#     Edge 130, Type (0, 1), BuildingBlock: CIFDUS_clean_linker_0, # of connection points: 2
#     Edge 131, Type (0, 1), BuildingBlock: CIFDUS_clean_linker_0, # of connection points: 2
#     Edge 132, Type (0, 1), BuildingBlock: CIFDUS_clean_linker_0, # of connection points: 2
#     Edge 133, Type (0, 1), BuildingBlock: CIFDUS_clean_linker_0, # of connection points: 2
#     Edge 134, Type (0, 1), BuildingBlock: CIFDUS_clean_linker_0, # of connection points: 2
#     Edge 135, Type (0, 1), BuildingBlock: CIFDUS_clean_linker_0, # of connection points: 2
# Relax obj value: 0.100
# Max RMSD: 0.291
# Mean RMSD: 0.130
data_MOF--net-gar--node1-CEKHIL_clean_sbu_0--node2-MIFKUJ_clean_sbu_0--edge1-CIFDUS_clean_linker_0
_symmetry_space_group_name_H-M    P1
_symmetry_Int_Tables_number       1
_symmetry_cell_setting            triclinic
loop_
_symmetry_equiv_pos_as_xyz
'x, y, z'
_cell_length_a     50.23354
_cell_length_b     49.677197
_cell_length_c     47.000565
_cell_angle_alpha  94.618208
_cell_angle_beta   94.772494
_cell_angle_gamma 99.298341
loop_
_atom_site_label
_atom_site_type_symbol
_atom_site_fract_x
_atom_site_fract_y
_atom_site_fract_z
_atom_type_partial_charge
Co0 Co 0.0325 0.27816 0.4003 0.0
O1 O 0.07076 0.2759 0.40349 0.0
O2 O 0.04139 0.2598 0.36581 0.0
C3 C 0.03698 0.3224 0.41774 0.0
O4 O 0.99314 0.27731 0.38658 0.0
Co5 Co 0.99846 0.29064 0.44981 0.0
O6 O 0.96931 0.29431 0.41969 0.0
C7 C 0.01484 0.2362 0.44138 0.0
C8 C 0.06616 0.26371 0.37752 0.0
C9 C 0.97143 0.28517 0.39404 0.0
O10 O 0.02389 0.24233 0.41747 0.0
O11 O 0.00559 0.25324 0.45825 0.0
O12 O 0.04075 0.31598 0.39115 0.0
O13 O 0.03232 0.30217 0.43329 0.0
Co14 Co 1.00251 0.74924 0.64387 0.0
O15 O 0.96422 0.74678 0.6356 0.0
O16 O 0.98393 0.73374 0.67497 0.0
C17 C 0.01319 0.79266 0.63291 0.0
O18 O 0.04165 0.7497 0.65967 0.0
Co19 Co 0.03961 0.75843 0.59453 0.0
O20 O 0.06917 0.76272 0.62604 0.0
C21 C 0.00692 0.70409 0.59776 0.0
C22 C 0.96179 0.73705 0.66018 0.0
C23 C 0.06542 0.75622 0.65129 0.0
O24 O 1.00072 0.71189 0.62279 0.0
O25 O 0.01999 0.72034 0.58198 0.0
O26 O 0.00587 0.78761 0.65805 0.0
O27 O 0.01151 0.77152 0.61457 0.0
Co28 Co 0.54413 0.78678 0.91772 0.0
O29 O 0.5808 0.78065 0.92374 0.0
O30 O 0.55464 0.76961 0.88279 0.0
C31 C 0.55133 0.83028 0.93774 0.0
O32 O 0.50568 0.79104 0.90345 0.0
Co33 Co 0.51221 0.79735 0.96993 0.0
O34 O 0.48668 0.80892 0.94062 0.0
C35 C 0.52145 0.7415 0.95385 0.0
C36 C 0.57805 0.77031 0.89721 0.0
C37 C 0.48657 0.80199 0.91388 0.0
O38 O 0.53097 0.74991 0.93096 0.0
O39 O 0.51451 0.75762 0.9735 0.0
O40 O 0.55647 0.82473 0.91148 0.0
O41 O 0.54495 0.8093 0.95196 0.0
Co42 Co 0.49792 0.25508 0.14279 0.0
O43 O 0.45978 0.25439 0.13521 0.0
O44 O 0.47905 0.23978 0.17388 0.0
C45 C 0.51047 0.29851 0.13234 0.0
O46 O 0.53697 0.25346 0.1576 0.0
Co47 Co 0.53369 0.26278 0.09205 0.0
O48 O 0.5637 0.26336 0.12231 0.0
C49 C 0.49952 0.20946 0.0959 0.0
C50 C 0.45708 0.24402 0.15942 0.0
C51 C 0.56039 0.25749 0.14785 0.0
O52 O 0.4942 0.21769 0.12116 0.0
O53 O 0.51264 0.22525 0.07973 0.0
O54 O 0.50323 0.29355 0.15755 0.0
O55 O 0.50745 0.27743 0.11372 0.0
Co56 Co 0.0202 0.77161 0.16612 0.0
O57 O 0.98255 0.76129 0.15351 0.0
O58 O 1.00149 0.75463 0.19615 0.0
C59 C 0.0242 0.81383 0.15159 0.0
O60 O 0.05816 0.78043 0.18673 0.0
Co61 Co 0.06125 0.78362 0.12178 0.0
O62 O 0.08675 0.79809 0.15616 0.0
C63 C 0.03744 0.72662 0.12752 0.0
C64 C 0.97973 0.75232 0.17842 0.0
C65 C 0.08166 0.79221 0.18127 0.0
O66 O 0.02686 0.73508 0.14978 0.0
O67 O 0.05034 0.7429 0.11163 0.0
O68 O 0.01545 0.80899 0.17622 0.0
O69 O 0.02808 0.7927 0.13549 0.0
Co70 Co 0.51109 0.76239 0.37687 0.0
O71 O 0.54985 0.76944 0.38276 0.0
O72 O 0.5261 0.74853 0.34306 0.0
C73 C 0.50612 0.80497 0.39337 0.0
O74 O 0.47103 0.75321 0.36227 0.0
Co75 Co 0.47696 0.76591 0.42825 0.0
O76 O 0.44621 0.76279 0.39826 0.0
C77 C 0.50629 0.71976 0.41974 0.0
C78 C 0.54968 0.75836 0.3568 0.0
C79 C 0.44827 0.75586 0.37193 0.0
O80 O 0.51046 0.72639 0.39433 0.0
O81 O 0.49556 0.73447 0.43766 0.0
O82 O 0.51106 0.79964 0.36701 0.0
O83 O 0.50623 0.785 0.40936 0.0
Co84 Co 0.52758 0.28727 0.67175 0.0
O85 O 0.48874 0.2794 0.66892 0.0
O86 O 0.51552 0.27194 0.70623 0.0
C87 C 0.53001 0.32961 0.65662 0.0
O88 O 0.56859 0.29328 0.6825 0.0
Co89 Co 0.55693 0.2959 0.6174 0.0
O90 O 0.58992 0.30677 0.64463 0.0
C91 C 0.53416 0.2399 0.62882 0.0
C92 C 0.49103 0.27067 0.69411 0.0
C93 C 0.59036 0.30169 0.67079 0.0
O94 O 0.52824 0.24957 0.65323 0.0
O95 O 0.54424 0.25513 0.61032 0.0
O96 O 0.52724 0.32562 0.68327 0.0
O97 O 0.5292 0.3077 0.63946 0.0
Co98 Co 0.01005 0.25361 0.88191 0.0
O99 O 0.04884 0.25997 0.88186 0.0
O100 O 0.02023 0.23792 0.84593 0.0
C101 C 0.00755 0.2966 0.89906 0.0
O102 O 0.96859 0.24521 0.87389 0.0
Co103 Co 0.98465 0.26008 0.93978 0.0
O104 O 0.95077 0.25785 0.9143 0.0
C105 C 0.00956 0.21163 0.92594 0.0
C106 C 0.04512 0.2477 0.85613 0.0
C107 C 0.94824 0.24956 0.88766 0.0
O108 O 0.01114 0.21805 0.89999 0.0
O109 O 1.002 0.22715 0.94569 0.0
O110 O 0.00925 0.29093 0.87185 0.0
O111 O 0.00977 0.27693 0.91489 0.0
Co112 Co 0.40622 0.03518 0.31268 0.0
O113 O 0.40589 0.07312 0.30915 0.0
O114 O 0.37026 0.04008 0.29801 0.0
C115 C 0.42844 0.04211 0.35678 0.0
O116 O 0.39876 0.99391 0.31513 0.0
Co117 Co 0.4605 0.01283 0.32107 0.0
O118 O 0.43703 0.97956 0.33101 0.0
C119 C 0.43959 0.02478 0.26338 0.0
C120 C 0.38027 0.06611 0.30082 0.0
C121 C 0.4115 0.97528 0.32423 0.0
O122 O 0.41742 0.02993 0.27278 0.0
O123 O 0.45957 0.01957 0.27957 0.0
O124 O 0.40235 0.04108 0.35355 0.0
O125 O 0.44024 0.04072 0.33352 0.0
Co126 Co 0.27546 0.12889 0.48564 0.0
O127 O 0.3147 0.13315 0.49022 0.0
O128 O 0.28726 0.09515 0.49623 0.0
C129 C 0.27318 0.149 0.44371 0.0
O130 O 0.23418 0.11549 0.48179 0.0
Co131 Co 0.24488 0.17798 0.48454 0.0
O132 O 0.21204 0.15011 0.47271 0.0
C133 C 0.26845 0.16403 0.54013 0.0
C134 C 0.31202 0.10784 0.49616 0.0
C135 C 0.21206 0.12483 0.47559 0.0
O136 O 0.27498 0.14231 0.5275 0.0
O137 O 0.25805 0.18169 0.52644 0.0
O138 O 0.27554 0.12331 0.44384 0.0
O139 O 0.27381 0.16203 0.46871 0.0
Co140 Co 0.14793 0.00868 0.81313 0.0
O141 O 0.13943 0.96935 0.80702 0.0
O142 O 0.17909 0.99387 0.80114 0.0
C143 C 0.12905 0.01092 0.85524 0.0
O144 O 0.16517 0.04911 0.81784 0.0
Co145 Co 0.10379 0.04544 0.81861 0.0
O146 O 0.13439 0.07646 0.8252 0.0
C147 C 0.11213 0.01938 0.76178 0.0
C148 C 0.16418 0.96985 0.80072 0.0
C149 C 0.15861 0.07298 0.82225 0.0
O150 O 0.13405 0.01184 0.77215 0.0
O151 O 0.09636 0.03052 0.77734 0.0
O152 O 0.15379 0.00633 0.85464 0.0
O153 O 0.11661 0.0132 0.83072 0.0
Co154 Co 0.24711 0.87481 -0.00109 0.0
O155 O 0.20882 0.86755 0.00279 0.0
O156 O 0.23537 0.90707 0.017 0.0
C157 C 0.24402 0.85607 0.95286 0.0
O158 O 0.2872 0.89043 0.99771 0.0
Co159 Co 0.27952 0.8274 0.98536 0.0
O160 O 0.30922 0.85764 0.98037 0.0
C161 C 0.26279 0.83786 0.04361 0.0
C162 C 0.21112 0.8926 0.0142 0.0
C163 C 0.30867 0.8825 0.98914 0.0
O164 O 0.25528 0.86051 0.03733 0.0
O165 O 0.27036 0.82099 0.02515 0.0
O166 O 0.2398 0.88104 0.95833 0.0
O167 O 0.24786 0.84307 0.975 0.0
Co168 Co 0.26854 0.38805 0.03922 0.0
O169 O 0.22948 0.38004 0.03477 0.0
O170 O 0.25341 0.41864 0.05626 0.0
C171 C 0.27354 0.37483 0.99299 0.0
O172 O 0.30917 0.40452 0.04629 0.0
Co173 Co 0.30254 0.34226 0.02988 0.0
O174 O 0.33324 0.37294 0.03052 0.0
C175 C 0.27239 0.34474 0.08096 0.0
C176 C 0.22974 0.40427 0.04737 0.0
C177 C 0.33175 0.39739 0.03991 0.0
O178 O 0.26868 0.36922 0.07624 0.0
O179 O 0.28332 0.32977 0.06346 0.0
O180 O 0.26876 0.39921 0.00041 0.0
O181 O 0.27321 0.35862 0.01317 0.0
Co182 Co 0.78556 0.14248 0.03538 0.0
O183 O 0.82232 0.13688 0.03349 0.0
O184 O 0.78955 0.10672 0.04739 0.0
C185 C 0.78293 0.15893 0.99237 0.0
O186 O 0.74488 0.14034 0.03844 0.0
Co187 Co 0.76971 0.20035 0.03201 0.0
O188 O 0.73204 0.1801 0.02839 0.0
C189 C 0.7986 0.18648 0.08486 0.0
C190 C 0.81458 0.11279 0.04162 0.0
C191 C 0.72646 0.15524 0.03399 0.0
O192 O 0.79436 0.16075 0.07586 0.0
O193 O 0.79331 0.20513 0.06904 0.0
O194 O 0.77836 0.13258 0.99374 0.0
O195 O 0.78973 0.17385 0.01623 0.0
Co196 Co 0.15144 0.49842 0.25884 0.0
O197 O 0.15069 0.45965 0.25904 0.0
O198 O 0.18291 0.48839 0.24223 0.0
C199 C 0.14174 0.50554 0.30444 0.0
O200 O 0.15969 0.53968 0.25628 0.0
Co201 Co 0.09958 0.52374 0.26872 0.0
O202 O 0.12433 0.55908 0.26892 0.0
C203 C 0.10344 0.49218 0.21378 0.0
C204 C 0.17357 0.46363 0.24786 0.0
C205 C 0.14836 0.56079 0.26154 0.0
O206 O 0.12897 0.49247 0.22028 0.0
O207 O 0.08799 0.50076 0.23155 0.0
O208 O 0.16646 0.50411 0.2991 0.0
O209 O 0.12379 0.50029 0.28265 0.0
Co210 Co 0.78325 0.89004 0.5396 0.0
O211 O 0.74421 0.88012 0.53628 0.0
O212 O 0.76695 0.9185 0.5593 0.0
C213 C 0.78691 0.87967 0.4924 0.0
O214 O 0.82347 0.90871 0.54588 0.0
Co215 Co 0.82043 0.84806 0.52477 0.0
O216 O 0.84978 0.88015 0.52802 0.0
C217 C 0.7908 0.8439 0.5765 0.0
C218 C 0.74359 0.90356 0.55028 0.0
C219 C 0.84667 0.90362 0.53887 0.0
O220 O 0.78565 0.86851 0.57489 0.0
O221 O 0.8022 0.83169 0.55709 0.0
O222 O 0.78122 0.90327 0.50152 0.0
O223 O 0.7887 0.86275 0.51161 0.0
Co224 Co 0.87566 0.01133 0.24592 0.0
O225 O 0.87899 0.0509 0.25122 0.0
O226 O 0.84411 0.02323 0.22732 0.0
C227 C 0.88854 0.00703 0.29226 0.0
O228 O 0.86302 0.96956 0.23832 0.0
Co229 Co 0.92403 0.98067 0.2585 0.0
O230 O 0.89523 0.94824 0.25792 0.0
C231 C 0.92191 0.0126 0.2083 0.0
C232 C 0.85487 0.04798 0.23787 0.0
C233 C 0.87116 0.94783 0.24672 0.0
O234 O 0.89649 0.01367 0.21023 0.0
O235 O 0.93665 0.00293 0.22712 0.0
O236 O 0.86365 0.00949 0.28453 0.0
O237 O 0.90469 0.00882 0.27239 0.0
Co238 Co 0.28617 0.63931 0.53041 0.0
O239 O 0.32313 0.63668 0.52432 0.0
O240 O 0.29583 0.60632 0.54511 0.0
C241 C 0.27435 0.65026 0.48603 0.0
O242 O 0.24624 0.63452 0.5383 0.0
Co243 Co 0.26642 0.69545 0.52615 0.0
O244 O 0.23034 0.67273 0.52746 0.0
C245 C 0.3007 0.68697 0.57733 0.0
C246 C 0.31934 0.61365 0.53573 0.0
C247 C 0.2267 0.64827 0.53465 0.0
O248 O 0.29788 0.66114 0.56913 0.0
O249 O 0.29231 0.70434 0.56159 0.0
O250 O 0.27469 0.62483 0.49047 0.0
O251 O 0.28373 0.66795 0.50753 0.0
Co252 Co 0.38817 0.51025 0.75783 0.0
O253 O 0.39542 0.54971 0.76133 0.0
O254 O 0.35737 0.52433 0.74075 0.0
C255 C 0.40281 0.50604 0.80368 0.0
O256 O 0.37238 0.46928 0.75171 0.0
Co257 Co 0.43422 0.47605 0.7675 0.0
O258 O 0.40387 0.44525 0.76776 0.0
C259 C 0.43062 0.50671 0.71647 0.0
C260 C 0.37115 0.54859 0.74892 0.0
C261 C 0.3796 0.44668 0.75848 0.0
O262 O 0.40608 0.50959 0.72061 0.0
O263 O 0.44579 0.49632 0.73428 0.0
O264 O 0.37841 0.51076 0.79737 0.0
O265 O 0.41779 0.50598 0.78273 0.0
Co266 Co 0.63484 0.99879 0.76886 0.0
O267 O 0.62828 0.96105 0.77659 0.0
O268 O 0.66393 0.98078 0.75648 0.0
C269 C 0.62589 0.01607 0.81187 0.0
O270 O 0.64876 0.03746 0.75878 0.0
Co271 Co 0.5878 0.03283 0.76972 0.0
O272 O 0.61647 0.0637 0.76376 0.0
C273 C 0.58677 0.98813 0.72481 0.0
C274 C 0.65106 0.95905 0.76616 0.0
C275 C 0.64037 0.06065 0.75851 0.0
O276 O 0.61245 0.98886 0.73058 0.0
O277 O 0.57272 1.00114 0.74077 0.0
O278 O 0.64967 0.00975 0.8087 0.0
O279 O 0.60812 0.00943 0.79006 0.0
Co280 Co 0.76893 0.6335 0.99033 0.0
O281 O 0.8078 0.64371 0.99305 0.0
O282 O 0.78642 0.60263 -0.00022 0.0
C283 C 0.76187 0.65263 0.94848 0.0
O284 O 0.72937 0.61433 0.98842 0.0
Co285 Co 0.7309 0.67579 0.99153 0.0
O286 O 0.70101 0.64425 0.98175 0.0
C287 C 0.75979 0.66564 0.04588 0.0
C288 C 0.80933 0.61879 0.99855 0.0
C289 C 0.70524 0.61989 0.98404 0.0
O290 O 0.76884 0.64589 0.03241 0.0
O291 O 0.74579 0.68126 0.03307 0.0
O292 O 0.76767 0.62808 0.94863 0.0
O293 O 0.76166 0.66547 0.97351 0.0
Co294 Co 0.89481 0.5308 0.79752 0.0
O295 O 0.89014 0.5674 0.78949 0.0
O296 O 0.85816 0.53055 0.78134 0.0
C297 C 0.91614 0.54192 0.84217 0.0
O298 O 0.8909 0.49017 0.80346 0.0
Co299 Co 0.95136 0.51392 0.80956 0.0
O300 O 0.93062 0.47928 0.82004 0.0
C301 C 0.93042 0.52007 0.75002 0.0
C302 C 0.86516 0.55681 0.7806 0.0
C303 C 0.90514 0.473 0.8133 0.0
O304 O 0.90737 0.52389 0.75828 0.0
O305 O 0.95076 0.51764 0.76737 0.0
O306 O 0.88988 0.539 0.83793 0.0
O307 O 0.92859 0.54049 0.81932 0.0
Co308 Co 0.75082 0.38749 0.5004 0.0
O309 O 0.71555 0.38967 0.51255 0.0
O310 O 0.7497 0.42446 0.51618 0.0
C311 C 0.73581 0.36364 0.45772 0.0
O312 O 0.78983 0.39356 0.48982 0.0
Co313 Co 0.77024 0.33164 0.4876 0.0
O314 O 0.80132 0.35398 0.47256 0.0
C315 C 0.76852 0.35436 0.54756 0.0
C316 C 0.72466 0.41543 0.52024 0.0
C317 C 0.80659 0.3799 0.47836 0.0
O318 O 0.76299 0.37701 0.53915 0.0
O319 O 0.77022 0.33348 0.53036 0.0
O320 O 0.7374 0.39013 0.46067 0.0
O321 O 0.74145 0.3525 0.48079 0.0
Co322 Co 0.64496 0.51322 0.30883 0.0
O323 O 0.64474 0.4739 0.3033 0.0
O324 O 0.68075 0.50577 0.30245 0.0
C325 C 0.62062 0.51196 0.34765 0.0
O326 O 0.65479 0.55515 0.3138 0.0
Co327 Co 0.59336 0.54045 0.30664 0.0
O328 O 0.61837 0.57552 0.31762 0.0
C329 C 0.61288 0.51888 0.25275 0.0
C330 C 0.67055 0.47989 0.30068 0.0
C331 C 0.64387 0.5768 0.31725 0.0
O332 O 0.6348 0.51414 0.26636 0.0
O333 O 0.59356 0.52701 0.26537 0.0
O334 O 0.64658 0.51176 0.35068 0.0
O335 O 0.61024 0.5116 0.32163 0.0
Zn336 Zn 0.04204 0.99446 0.04312 0.0
Zn337 Zn 0.9848 0.01795 0.00652 0.0
C338 C 0.03008 0.95187 0.07598 0.0
O339 O 0.04157 0.97256 0.0945 0.0
C340 C 1.00207 0.06631 0.98492 0.0
O341 O 0.98997 0.04934 0.96307 0.0
O342 O 0.08263 0.99302 0.05271 0.0
O343 O 0.03904 0.99837 0.00035 0.0
O344 O 1.00084 1.00007 0.97391 0.0
C345 C 0.08792 0.97244 0.03735 0.0
O346 O 0.0686 0.95844 0.01886 0.0
O347 O 0.02562 0.95611 0.04985 0.0
C348 C 0.93701 0.03475 0.01912 0.0
O349 O 0.95396 0.04367 0.04194 0.0
O350 O 0.94529 0.02146 0.99824 0.0
O351 O 0.98707 0.99804 0.04196 0.0
O352 O 0.02265 0.01812 0.07014 0.0
O353 O 0.00368 0.05758 0.0097 0.0
C354 C 0.02607 0.99905 0.97606 0.0
C355 C 0.99695 0.01119 0.06572 0.0
Zn356 Zn 0.24456 0.75992 0.30566 0.0
Zn357 Zn 0.27826 0.78991 0.25694 0.0
C358 C 0.20513 0.71976 0.2752 0.0
O359 O 0.19079 0.73657 0.28727 0.0
C360 C 0.31637 0.83118 0.28894 0.0
O361 O 0.33208 0.81471 0.27886 0.0
O362 O 0.23475 0.74766 0.34391 0.0
O363 O 0.28503 0.76758 0.31264 0.0
O364 O 0.29921 0.76078 0.26999 0.0
C365 C 0.24133 0.72442 0.34784 0.0
O366 O 0.25169 0.71142 0.32715 0.0
O367 O 0.23081 0.72634 0.27783 0.0
C368 C 0.28179 0.82394 0.21182 0.0
O369 O 0.27482 0.84037 0.23215 0.0
O370 O 0.28662 0.80046 0.21764 0.0
O371 O 0.23782 0.78104 0.25124 0.0
O372 O 0.2252 0.79043 0.29405 0.0
O373 O 0.29083 0.82426 0.28375 0.0
C374 C 0.30201 0.75933 0.29693 0.0
C375 C 0.22243 0.79183 0.26714 0.0
Zn376 Zn 0.49915 0.03171 0.53928 0.0
Zn377 Zn 0.56261 0.99523 0.52123 0.0
C378 C 0.51391 0.08147 0.57193 0.0
O379 O 0.49639 0.06738 0.58671 0.0
C380 C 0.54157 0.94918 0.48319 0.0
O381 O 0.5551 0.96547 0.46674 0.0
O382 O 0.45909 0.03784 0.5304 0.0
O383 O 0.51495 0.01125 0.50708 0.0
O384 O 0.55328 0.01697 0.48779 0.0
C385 C 0.45745 0.05918 0.51723 0.0
O386 O 0.47992 0.07274 0.50943 0.0
O387 O 0.52063 0.06969 0.54926 0.0
C388 C 0.60783 0.96899 0.53845 0.0
O389 O 0.58716 0.95057 0.5431 0.0
O390 O 0.60305 0.99154 0.52947 0.0
O391 O 0.54573 0.01463 0.55291 0.0
O392 O 0.50824 0.01061 0.57354 0.0
O393 O 0.54141 0.95725 0.50954 0.0
C394 C 0.52906 0.02171 0.48827 0.0
C395 C 0.5318 0.00432 0.57188 0.0
Zn396 Zn 0.29426 0.23908 0.76322 0.0
Zn397 Zn 0.24306 0.26922 0.78339 0.0
C398 C 0.27945 0.20992 0.7088 0.0
O399 O 0.29014 0.19221 0.72347 0.0
C400 C 0.26131 0.30107 0.83463 0.0
O401 O 0.2552 0.31874 0.81683 0.0
O402 O 0.33224 0.23072 0.75888 0.0
O403 O 0.30176 0.27903 0.77847 0.0
O404 O 0.26653 0.29599 0.76131 0.0
C405 C 0.34238 0.24474 0.73965 0.0
O406 O 0.32828 0.26156 0.72755 0.0
O407 O 0.27675 0.23268 0.7219 0.0
C408 C 0.19009 0.26078 0.79886 0.0
O409 O 0.20054 0.24074 0.80949 0.0
O410 O 0.20491 0.27793 0.7856 0.0
O411 O 0.23697 0.22912 0.76794 0.0
O412 O 0.27203 0.21303 0.78669 0.0
O413 O 0.25885 0.27597 0.82506 0.0
C414 C 0.29201 0.29833 0.76746 0.0
C415 C 0.24656 0.21058 0.78058 0.0
Zn416 Zn 0.05279 0.98297 0.54173 0.0
Zn417 Zn 0.01682 0.03186 0.48726 0.0
C418 C 0.09053 0.99497 0.59092 0.0
O419 O 0.10461 0.98223 0.57353 0.0
C420 C 0.97613 0.0175 0.44195 0.0
O421 O 0.96336 0.02853 0.46195 0.0
O422 O 0.05152 0.94246 0.54347 0.0
O423 O 0.01475 0.98954 0.53353 0.0
O424 O 0.98847 0.01435 0.51225 0.0
C425 C 0.04098 0.93499 0.56586 0.0
O426 O 0.03173 0.95319 0.5825 0.0
O427 O 0.06731 0.99944 0.58152 0.0
C428 C 0.02914 0.08155 0.46521 0.0
O429 O 0.04032 0.06476 0.44879 0.0
O430 O 0.01681 0.07225 0.48587 0.0
O431 O 0.05717 0.02741 0.49287 0.0
O432 O 0.0798 0.99996 0.5165 0.0
O433 O 1.001 0.01581 0.44757 0.0
C434 C 0.99119 0.99491 0.52758 0.0
C435 C 0.07935 0.01915 0.50019 0.0
Zn436 Zn 0.26689 0.80035 0.7525 0.0
Zn437 Zn 0.30832 0.74218 0.77676 0.0
C438 C 0.21107 0.76881 0.73736 0.0
O439 O 0.21083 0.76343 0.76426 0.0
C440 C 0.35338 0.78299 0.80612 0.0
O441 O 0.33443 0.79343 0.81861 0.0
O442 O 0.26283 0.84033 0.7608 0.0
O443 O 0.27121 0.78287 0.78954 0.0
O444 O 0.28772 0.75043 0.81095 0.0
C445 C 0.24115 0.84279 0.77228 0.0
O446 O 0.22595 0.82059 0.77899 0.0
O447 O 0.23214 0.78258 0.72909 0.0
C448 C 0.3342 0.69926 0.75708 0.0
O449 O 0.3484 0.72088 0.74792 0.0
O450 O 0.31351 0.70225 0.77022 0.0
O451 O 0.28927 0.75322 0.74137 0.0
O452 O 0.29634 0.79409 0.72713 0.0
O453 O 0.34652 0.76339 0.78644 0.0
C454 C 0.27481 0.77054 0.81187 0.0
C455 C 0.30145 0.76977 0.72561 0.0
Zn456 Zn 0.53788 0.02928 0.00201 0.0
Zn457 Zn 0.50099 0.00297 0.05117 0.0
C458 C 0.57736 0.06992 0.03027 0.0
O459 O 0.56205 0.08311 0.01436 0.0
C460 C 0.46082 0.95862 0.02568 0.0
O461 O 0.47896 0.94522 0.03688 0.0
O462 O 0.55575 0.03693 0.96651 0.0
O463 O 0.52827 0.98868 0.99689 0.0
O464 O 0.53057 0.98093 0.04221 0.0
C465 C 0.57828 0.02834 0.96622 0.0
O466 O 0.58659 0.01557 0.98783 0.0
O467 O 0.56905 0.0446 0.03236 0.0
C468 C 0.47539 0.00829 0.10162 0.0
O469 O 0.45973 0.01988 0.0843 0.0
O470 O 0.49498 0.99843 0.0919 0.0
O471 O 0.50558 0.04419 0.05022 0.0
O472 O 0.50756 0.05048 0.00455 0.0
O473 O 0.46563 0.98468 0.02835 0.0
C474 C 0.53295 0.97332 0.01625 0.0
C475 C 0.50249 0.05865 0.02946 0.0
Zn476 Zn 0.26926 0.22241 0.25282 0.0
Zn477 Zn 0.25422 0.28521 0.28246 0.0
C478 C 0.31578 0.23124 0.22697 0.0
O479 O 0.29749 0.21539 0.20872 0.0
C480 C 0.19698 0.25946 0.29386 0.0
O481 O 0.19349 0.24226 0.27061 0.0
O482 O 0.27215 0.18201 0.2496 0.0
O483 O 0.25419 0.22862 0.29102 0.0
O484 O 0.27869 0.26754 0.30981 0.0
C485 C 0.28958 0.17908 0.26986 0.0
O486 O 0.30027 0.20067 0.28753 0.0
O487 O 0.30855 0.24009 0.25085 0.0
C488 C 0.24019 0.33305 0.26913 0.0
O489 O 0.22206 0.31305 0.2557 0.0
O490 O 0.25953 0.32691 0.2854 0.0
O491 O 0.25162 0.27555 0.23908 0.0
O492 O 0.24912 0.23372 0.21829 0.0
O493 O 0.21883 0.27653 0.29951 0.0
C494 C 0.26896 0.24253 0.31212 0.0
C495 C 0.24877 0.25905 0.21648 0.0
Zn496 Zn 0.53681 0.48473 0.03307 0.0
Zn497 Zn 0.50028 0.53506 0.01006 0.0
C498 C 0.56709 0.5044 0.08477 0.0
O499 O 0.58433 0.49325 0.07007 0.0
C500 C 0.45387 0.52029 0.96932 0.0
O501 O 0.44212 0.52925 0.99131 0.0
O502 O 0.54466 0.44712 0.04018 0.0
O503 O 0.49705 0.47682 0.01788 0.0
O504 O 0.48177 0.51157 0.03874 0.0
C505 C 0.53253 0.43831 0.06117 0.0
O506 O 0.51724 0.4536 0.07407 0.0
O507 O 0.54374 0.50536 0.07247 0.0
C508 C 0.50204 0.58618 0.99249 0.0
O509 O 0.50951 0.57109 0.97131 0.0
O510 O 0.49528 0.5748 0.01477 0.0
O511 O 0.54037 0.53761 0.00414 0.0
O512 O 0.56395 0.50425 0.00939 0.0
O513 O 0.4792 0.51996 0.97233 0.0
C514 C 0.47908 0.48596 0.03158 0.0
C515 C 0.56238 0.5282 0.00257 0.0
Zn516 Zn 0.74779 0.28944 0.2631 0.0
Zn517 Zn 0.77364 0.2339 0.28748 0.0
C518 C 0.70976 0.26334 0.21882 0.0
O519 O 0.72941 0.27494 0.2048 0.0
C520 C 0.83002 0.25653 0.29806 0.0
O521 O 0.83151 0.23868 0.27629 0.0
O522 O 0.73659 0.3271 0.25993 0.0
O523 O 0.75526 0.286 0.30462 0.0
O524 O 0.74417 0.24246 0.31226 0.0
C525 C 0.74349 0.34848 0.27756 0.0
O526 O 0.76262 0.3488 0.29848 0.0
O527 O 0.71342 0.26459 0.24602 0.0
C528 C 0.77907 0.17636 0.26942 0.0
O529 O 0.7612 0.17836 0.24799 0.0
O530 O 0.78474 0.19585 0.28956 0.0
O531 O 0.7674 0.23842 0.24559 0.0
O532 O 0.77882 0.2823 0.24048 0.0
O533 O 0.80686 0.25956 0.30538 0.0
C534 C 0.74334 0.26774 0.31877 0.0
C535 C 0.78096 0.25747 0.23365 0.0
Zn536 Zn 0.03503 0.52349 0.48945 0.0
Zn537 Zn 1.00131 0.49883 0.54142 0.0
C538 C 0.07844 0.56123 0.51804 0.0
O539 O 0.06371 0.57705 0.50509 0.0
C540 C 0.95524 0.46332 0.51079 0.0
O541 O 0.97028 0.4448 0.51665 0.0
O542 O 0.04766 0.53196 0.45132 0.0
O543 O 0.02404 0.48294 0.48374 0.0
O544 O 0.02605 0.47257 0.52845 0.0
C545 C 0.06977 0.52381 0.44664 0.0
O546 O 0.08186 0.5115 0.46645 0.0
O547 O 0.06918 0.53572 0.51689 0.0
C548 C 0.9745 0.50368 0.59116 0.0
O549 O 0.96088 0.51723 0.57385 0.0
O550 O 0.99362 0.49261 0.58184 0.0
O551 O 0.01307 0.53982 0.54396 0.0
O552 O 0.0067 0.54613 0.49834 0.0
O553 O 0.96466 0.48845 0.51824 0.0
C554 C 0.02738 0.46602 0.50195 0.0
C555 C 0.00647 0.5545 0.52451 0.0
Zn556 Zn 0.79357 0.74001 0.26941 0.0
Zn557 Zn 0.74575 0.76862 0.28642 0.0
C558 C 0.77685 0.70848 0.21542 0.0
O559 O 0.7889 0.6911 0.22924 0.0
C560 C 0.76829 0.80539 0.33415 0.0
O561 O 0.75891 0.82157 0.31642 0.0
O562 O 0.8304 0.72988 0.26647 0.0
O563 O 0.80262 0.78088 0.27965 0.0
O564 O 0.76606 0.79258 0.25882 0.0
C565 C 0.84108 0.73974 0.2452 0.0
O566 O 0.8278 0.75469 0.22922 0.0
O567 O 0.7744 0.73114 0.22887 0.0
C568 C 0.70013 0.76865 0.31394 0.0
O569 O 0.71511 0.7547 0.32927 0.0
O570 O 0.70895 0.7786 0.29171 0.0
O571 O 0.73579 0.72696 0.27926 0.0
O572 O 0.77417 0.71569 0.296 0.0
O573 O 0.76644 0.78009 0.32572 0.0
C574 C 0.79154 0.79777 0.26582 0.0
C575 C 0.74856 0.71013 0.29126 0.0
Zn576 Zn 0.75234 0.2472 0.80009 0.0
Zn577 Zn 0.78103 0.27902 0.7524 0.0
C578 C 0.75298 0.1925 0.77781 0.0
O579 O 0.7725 0.19509 0.79877 0.0
C580 C 0.81857 0.32361 0.78151 0.0
O581 O 0.83523 0.30808 0.77166 0.0
O582 O 0.74034 0.23183 0.83572 0.0
O583 O 0.7928 0.25892 0.80906 0.0
O584 O 0.80371 0.25121 0.7654 0.0
C585 C 0.75381 0.24121 0.85941 0.0
O586 O 0.77189 0.26364 0.86047 0.0
O587 O 0.74308 0.21361 0.77182 0.0
C588 C 0.78359 0.30911 0.70532 0.0
O589 O 0.7706 0.32351 0.72241 0.0
O590 O 0.79149 0.28784 0.71387 0.0
O591 O 0.73999 0.27099 0.7453 0.0
O592 O 0.7285 0.27431 0.78943 0.0
O593 O 0.79318 0.31486 0.77739 0.0
C594 C 0.80969 0.25234 0.79228 0.0
C595 C 0.72314 0.27613 0.76287 0.0
Zn596 Zn 0.77615 0.73202 0.75329 0.0
Zn597 Zn 0.75048 0.78664 0.78746 0.0
C598 C 0.82289 0.7402 0.72882 0.0
O599 O 0.80322 0.73097 0.70848 0.0
C600 C 0.70724 0.76568 0.81549 0.0
O601 O 0.72601 0.77785 0.83564 0.0
O602 O 0.77652 0.69204 0.73983 0.0
O603 O 0.76259 0.7302 0.79307 0.0
O604 O 0.77569 0.77142 0.81579 0.0
C605 C 0.7887 0.68028 0.75885 0.0
O606 O 0.79671 0.69366 0.78411 0.0
O607 O 0.81661 0.74569 0.75413 0.0
C608 C 0.72508 0.83035 0.78257 0.0
O609 O 0.71288 0.81097 0.76293 0.0
O610 O 0.74478 0.82544 0.7992 0.0
O611 O 0.7604 0.79153 0.74745 0.0
O612 O 0.75844 0.75179 0.72198 0.0
O613 O 0.7129 0.76476 0.78957 0.0
C614 C 0.77019 0.74552 0.81631 0.0
C615 C 0.75971 0.7777 0.72345 0.0
Zn616 Zn 0.55799 0.51381 0.55604 0.0
Zn617 Zn 0.50438 0.53645 0.51993 0.0
C618 C 0.53875 0.46958 0.58325 0.0
O619 O 0.55213 0.48832 0.60288 0.0
C620 C 0.51891 0.58154 0.48992 0.0
O621 O 0.51092 0.56142 0.46959 0.0
O622 O 0.59564 0.50567 0.56751 0.0
O623 O 0.56252 0.52774 0.51773 0.0
O624 O 0.52342 0.51342 0.492 0.0
C625 C 0.59917 0.4852 0.55095 0.0
O626 O 0.58018 0.47466 0.53035 0.0
O627 O 0.53544 0.4759 0.55757 0.0
C628 C 0.45319 0.54989 0.52576 0.0
O629 O 0.46772 0.56117 0.54948 0.0
O630 O 0.46437 0.53647 0.50715 0.0
O631 O 0.50334 0.52849 0.56195 0.0
O632 O 0.54446 0.53899 0.58483 0.0
O633 O 0.51988 0.57599 0.51596 0.0
C634 C 0.54927 0.51798 0.49404 0.0
C635 C 0.51883 0.53498 0.58517 0.0
Zn636 Zn 0.98775 0.5225 0.02765 0.0
Zn637 Zn 0.05026 0.49203 0.00531 0.0
C638 C 0.00732 0.57118 0.06112 0.0
O639 O 0.99226 0.5568 0.07798 0.0
C640 C 0.03561 0.4536 0.95584 0.0
O641 O 0.04665 0.47457 0.94302 0.0
O642 O 0.94781 0.52776 0.02398 0.0
O643 O 0.99842 0.50419 0.99202 0.0
O644 O 0.03864 0.52045 0.98031 0.0
C645 C 0.94304 0.54991 0.01416 0.0
O646 O 0.96328 0.56664 0.00579 0.0
O647 O 0.00989 0.56026 0.03633 0.0
C648 C 0.09563 0.47018 0.02455 0.0
O649 O 0.07478 0.45278 0.03073 0.0
O650 O 0.091 0.49136 0.01257 0.0
O651 O 0.03473 0.49148 0.04366 0.0
O652 O 0.99783 0.5023 0.06116 0.0
O653 O 0.03465 0.45628 0.98283 0.0
C654 C 0.01307 0.51949 0.97702 0.0
C655 C 0.02004 0.49311 0.06432 0.0
H656 H 0.01414 0.19332 0.979 0.0
H657 H 0.01602 0.16802 0.88914 0.0
H658 H 0.01736 0.12114 0.90043 0.0
H659 H 0.01263 0.08662 0.93485 0.0
H660 H 0.0095 0.1113 0.02447 0.0
H661 H 0.0145 0.15937 0.01426 0.0
C662 C 0.01512 0.17765 0.96185 0.0
C663 C 0.01446 0.18418 0.93315 0.0
C664 C 0.01556 0.15065 0.96845 0.0
C665 C 0.01626 0.16363 0.91136 0.0
C666 C 0.01695 0.13677 0.91779 0.0
C667 C 0.0134 0.10255 0.95224 0.0
C668 C 0.0103 0.09544 0.98032 0.0
C669 C 0.01578 0.12994 0.94611 0.0
C670 C 0.01181 0.11628 0.00269 0.0
C671 C 0.01446 0.14372 0.9968 0.0
H672 H 0.13339 0.81671 0.1778 0.0
H673 H 0.08128 0.77754 0.23642 0.0
H674 H 0.12053 0.77821 0.27105 0.0
H675 H 0.17034 0.78414 0.28162 0.0
H676 H 0.22159 0.81942 0.2203 0.0
H677 H 0.18207 0.82662 0.19017 0.0
C678 C 0.13045 0.80862 0.19829 0.0
C679 C 0.10445 0.79664 0.20421 0.0
C680 C 0.15309 0.80835 0.21768 0.0
C681 C 0.10111 0.78665 0.2311 0.0
C682 C 0.12357 0.78695 0.25093 0.0
C683 C 0.17276 0.79396 0.262 0.0
C684 C 0.19875 0.80112 0.25304 0.0
C685 C 0.14977 0.7969 0.24403 0.0
C686 C 0.20173 0.8137 0.22752 0.0
C687 C 0.17914 0.81768 0.21021 0.0
H688 H 0.50473 0.82294 0.44933 0.0
H689 H 0.50773 0.85051 0.36468 0.0
H690 H 0.51615 0.89809 0.38533 0.0
H691 H 0.52817 0.93142 0.42738 0.0
H692 H 0.5265 0.9044 0.51228 0.0
H693 H 0.51173 0.85695 0.49157 0.0
C694 C 0.50676 0.83937 0.4354 0.0
C695 C 0.50606 0.83325 0.40556 0.0
C696 C 0.51212 0.86671 0.44746 0.0
C697 C 0.50848 0.85471 0.38773 0.0
C698 C 0.51338 0.88192 0.39952 0.0
C699 C 0.52431 0.91518 0.44137 0.0
C700 C 0.52886 0.92126 0.47127 0.0
C701 C 0.51617 0.88809 0.42936 0.0
C702 C 0.52328 0.90015 0.48917 0.0
C703 C 0.51494 0.87304 0.47734 0.0
H704 H 0.44138 0.25127 0.66774 0.0
H705 H 0.4856 0.26746 0.7516 0.0
H706 H 0.44308 0.25684 0.77392 0.0
H707 H 0.39247 0.24846 0.7691 0.0
H708 H 0.34961 0.2341 0.68447 0.0
H709 H 0.39237 0.23798 0.66289 0.0
C710 C 0.44178 0.25219 0.69093 0.0
C711 C 0.46647 0.26055 0.70803 0.0
C712 C 0.41741 0.24635 0.70343 0.0
C713 C 0.46677 0.26118 0.73799 0.0
C714 C 0.44245 0.25521 0.75073 0.0
C715 C 0.39267 0.24542 0.74602 0.0
C716 C 0.36808 0.24099 0.72829 0.0
C717 C 0.41752 0.24849 0.73365 0.0
C718 C 0.36839 0.23753 0.69841 0.0
C719 C 0.3928 0.23989 0.68607 0.0
H720 H 0.02765 0.80877 0.58154 0.0
H721 H 0.01595 0.83975 0.66732 0.0
H722 H 0.02468 0.88655 0.6541 0.0
H723 H 0.03305 0.91832 0.61787 0.0
H724 H 0.04499 0.88845 0.5319 0.0
H725 H 0.03888 0.84137 0.54556 0.0
C726 C 0.02724 0.8258 0.59736 0.0
C727 C 0.02094 0.82084 0.62529 0.0
C728 C 0.03215 0.85272 0.58957 0.0
C729 C 0.02062 0.84304 0.64565 0.0
C730 C 0.02555 0.8698 0.63811 0.0
C731 C 0.03435 0.90154 0.60206 0.0
C732 C 0.0391 0.90673 0.57384 0.0
C733 C 0.03087 0.8748 0.61005 0.0
C734 C 0.04123 0.88487 0.55375 0.0
C735 C 0.0377 0.85801 0.56155 0.0
H736 H 0.47226 0.7804 0.85826 0.0
H737 H 0.44674 0.83117 0.92632 0.0
H738 H 0.40472 0.8327 0.89723 0.0
H739 H 0.3732 0.81588 0.85474 0.0
H740 H 0.3975 0.76358 0.78728 0.0
H741 H 0.44209 0.76693 0.81361 0.0
C742 C 0.45768 0.7921 0.8666 0.0
C743 C 0.46258 0.80528 0.89465 0.0
C744 C 0.43323 0.79261 0.84988 0.0
C745 C 0.44343 0.82045 0.905 0.0
C746 C 0.41934 0.82141 0.88835 0.0
C747 C 0.38837 0.8056 0.84549 0.0
C748 C 0.38184 0.78929 0.81919 0.0
C749 C 0.41372 0.807 0.86107 0.0
C750 C 0.40187 0.77618 0.80756 0.0
C751 C 0.42737 0.77796 0.82268 0.0
H752 H 0.5017 0.18524 0.04237 0.0
H753 H 0.48245 0.16698 0.12737 0.0
H754 H 0.47902 0.1181 0.11321 0.0
H755 H 0.48662 0.08118 0.07848 0.0
H756 H 0.50667 0.0997 0.9938 0.0
H757 H 0.50444 0.14787 0.00611 0.0
C758 C 0.49643 0.1706 0.05776 0.0
C759 C 0.49281 0.17986 0.08605 0.0
C760 C 0.49487 0.14257 0.04963 0.0
C761 C 0.48553 0.1605 0.10551 0.0
C762 C 0.48369 0.13252 0.09747 0.0
C763 C 0.49021 0.09569 0.06259 0.0
C764 C 0.49724 0.08691 0.03542 0.0
C765 C 0.48915 0.12342 0.06987 0.0
C766 C 0.5014 0.1059 0.01494 0.0
C767 C 0.50022 0.13349 0.02198 0.0
H768 H 0.12042 0.28016 0.39011 0.0
H769 H 0.06091 0.23147 0.32704 0.0
H770 H 0.09633 0.22414 0.29617 0.0
H771 H 0.14386 0.2346 0.28535 0.0
H772 H 0.20282 0.28482 0.348 0.0
H773 H 0.16813 0.28838 0.38057 0.0
C774 C 0.11528 0.26761 0.36981 0.0
C775 C 0.0881 0.25651 0.36084 0.0
C776 C 0.13566 0.26396 0.35185 0.0
C777 C 0.08171 0.2404 0.33439 0.0
C778 C 0.10194 0.23623 0.31666 0.0
C779 C 0.14913 0.2461 0.30622 0.0
C780 C 0.17584 0.25964 0.314 0.0
C781 C 0.12893 0.24841 0.32487 0.0
C782 C 0.18234 0.27445 0.34121 0.0
C783 C 0.16252 0.27647 0.35997 0.0
H784 H 0.90567 0.9981 0.15142 0.0
H785 H 0.97043 0.04538 0.20936 0.0
H786 H 0.99952 0.05057 0.17034 0.0
H787 H 0.00841 0.03731 0.1206 0.0
H788 H 0.94367 0.98851 0.06333 0.0
H789 H 0.91322 0.98838 0.10074 0.0
C790 C 0.92581 0.01029 0.15521 0.0
C791 C 0.93577 0.02153 0.18316 0.0
C792 C 0.94287 0.01241 0.13279 0.0
C793 C 0.96222 0.0367 0.18792 0.0
C794 C 0.979 0.03945 0.16567 0.0
C795 C 0.98763 0.0268 0.11629 0.0
C796 C 0.97868 0.01277 0.08911 0.0
C797 C 0.9699 0.0266 0.13816 0.0
C798 C 0.95146 0.99939 0.084 0.0
C799 C 0.93381 0.9993 0.10543 0.0
H800 H 0.26134 0.6997 0.4759 0.0
H801 H 0.26383 0.61956 0.4344 0.0
H802 H 0.25085 0.63494 0.38788 0.0
H803 H 0.24294 0.67223 0.35885 0.0
H804 H 0.24026 0.75237 0.40025 0.0
H805 H 0.24862 0.73571 0.44724 0.0
C806 C 0.25881 0.68553 0.45671 0.0
C807 C 0.26391 0.65865 0.45846 0.0
C808 C 0.2513 0.6945 0.43014 0.0
C809 C 0.26018 0.64039 0.43352 0.0
C810 C 0.2528 0.64918 0.40695 0.0
C811 C 0.24383 0.68597 0.37819 0.0
C812 C 0.24134 0.71356 0.37614 0.0
C813 C 0.24892 0.67634 0.40498 0.0
C814 C 0.24213 0.73104 0.40131 0.0
C815 C 0.24711 0.72158 0.42814 0.0
H816 H 0.60943 0.98454 0.67462 0.0
H817 H 0.53345 0.96678 0.71139 0.0
H818 H 0.50864 0.96462 0.66418 0.0
H819 H 0.50875 0.97896 0.61534 0.0
H820 H 0.58512 1.00062 0.58024 0.0
H821 H 0.60935 0.98932 0.62324 0.0
C822 C 0.58751 0.97908 0.6721 0.0
C823 C 0.57325 0.97657 0.69642 0.0
C824 C 0.57333 0.97911 0.6451 0.0
C825 C 0.54483 0.96935 0.69291 0.0
C826 C 0.5306 0.96832 0.66596 0.0
C827 C 0.53061 0.98045 0.61684 0.0
C828 C 0.54507 0.99087 0.5947 0.0
C829 C 0.54462 0.97502 0.64228 0.0
C830 C 0.57341 0.99246 0.59681 0.0
C831 C 0.58739 0.98629 0.62163 0.0
H832 H 0.27428 0.32274 0.96985 0.0
H833 H 0.27808 0.40598 0.94815 0.0
H834 H 0.27704 0.39053 0.89744 0.0
H835 H 0.27136 0.35331 0.85911 0.0
H836 H 0.26604 0.26966 0.8798 0.0
H837 H 0.2717 0.28536 0.93106 0.0
C838 C 0.27522 0.3375 0.95403 0.0
C839 C 0.27603 0.36546 0.96276 0.0
C840 C 0.27419 0.3284 0.92473 0.0
C841 C 0.27726 0.38435 0.94202 0.0
C842 C 0.27663 0.37552 0.91299 0.0
C843 C 0.27165 0.33845 0.87478 0.0
C844 C 0.26801 0.31031 0.86559 0.0
C845 C 0.2745 0.34757 0.90407 0.0
C846 C 0.26874 0.29143 0.88625 0.0
C847 C 0.27187 0.3004 0.91557 0.0
H848 H 0.93762 0.99595 0.31035 0.0
H849 H 0.86272 0.01259 0.34094 0.0
H850 H 0.88282 0.01491 0.39058 0.0
H851 H 0.92304 0.01667 0.42471 0.0
H852 H 0.99816 1.00115 0.39356 0.0
H853 H 0.97644 0.99371 0.34449 0.0
C854 C 0.92554 0.99977 0.32786 0.0
C855 C 0.89883 0.00443 0.32205 0.0
C856 C 0.93734 0.00148 0.35614 0.0
C857 C 0.88335 0.00904 0.34492 0.0
C858 C 0.89489 0.01049 0.37326 0.0
C859 C 0.93462 0.01142 0.40723 0.0
C860 C 0.96229 0.00983 0.41274 0.0
C861 C 0.92209 0.00747 0.37905 0.0
C862 C 0.9769 0.00266 0.38989 0.0
C863 C 0.96451 0.99847 0.36183 0.0
H864 H 0.32164 0.73917 0.59863 0.0
H865 H 0.30009 0.65761 0.62428 0.0
H866 H 0.3029 0.67641 0.67435 0.0
H867 H 0.30257 0.71626 0.70867 0.0
H868 H 0.3228 0.79791 0.68268 0.0
H869 H 0.32938 0.77873 0.63481 0.0
C870 C 0.31815 0.72542 0.61525 0.0
C871 C 0.31006 0.69707 0.60763 0.0
C872 C 0.31903 0.73642 0.64382 0.0
C873 C 0.30618 0.67951 0.62947 0.0
C874 C 0.30751 0.69028 0.6581 0.0
C875 C 0.30924 0.72995 0.69288 0.0
C876 C 0.31172 0.75854 0.69921 0.0
C877 C 0.31258 0.71878 0.66526 0.0
C878 C 0.32037 0.77586 0.67835 0.0
C879 C 0.32408 0.76489 0.65091 0.0
H880 H 0.64973 0.01288 0.86497 0.0
H881 H 0.58436 0.04361 0.81978 0.0
H882 H 0.56549 0.0536 0.86481 0.0
H883 H 0.56404 0.04743 0.91572 0.0
H884 H 0.62783 0.01401 0.96065 0.0
H885 H 0.65095 0.01145 0.91715 0.0
C886 C 0.63174 0.02238 0.86515 0.0
C887 C 0.61822 0.02721 0.83925 0.0
C888 C 0.62047 0.02716 0.891 0.0
C889 C 0.59489 0.03942 0.83956 0.0
C890 C 0.58405 0.04506 0.86526 0.0
C891 C 0.58319 0.03996 0.9161 0.0
C892 C 0.59392 0.03043 0.94113 0.0
C893 C 0.59607 0.03799 0.89092 0.0
C894 C 0.61891 0.02107 0.94144 0.0
C895 C 0.63217 0.01961 0.9166 0.0
H896 H 0.26436 0.29105 0.09099 0.0
H897 H 0.26196 0.37166 0.13139 0.0
H898 H 0.25212 0.3519 0.17631 0.0
H899 H 0.24754 0.31208 0.20488 0.0
H900 H 0.2499 0.23164 0.1638 0.0
H901 H 0.25618 0.25108 0.1183 0.0
C902 C 0.26164 0.3044 0.10956 0.0
C903 C 0.26433 0.33294 0.10781 0.0
C904 C 0.25597 0.2929 0.13522 0.0
C905 C 0.26018 0.3497 0.13205 0.0
C906 C 0.2546 0.33839 0.15778 0.0
C907 C 0.249 0.29866 0.18592 0.0
C908 C 0.24831 0.27031 0.18798 0.0
C909 C 0.25289 0.31005 0.15974 0.0
C910 C 0.25027 0.25342 0.16302 0.0
C911 C 0.25404 0.26458 0.13696 0.0
H912 H 0.20691 0.94593 0.03278 0.0
H913 H 0.16019 0.86454 0.01336 0.0
H914 H 0.11881 0.88207 0.02148 0.0
H915 H 0.09517 0.92035 0.03034 0.0
H916 H 0.1398 0.00234 0.04966 0.0
H917 H 0.18267 0.98477 0.04589 0.0
C918 C 0.1877 0.93204 0.03064 0.0
C919 C 0.18676 0.90391 0.02213 0.0
C920 C 0.16358 0.94236 0.03527 0.0
C921 C 0.16165 0.88624 0.01959 0.0
C922 C 0.13787 0.89624 0.02426 0.0
C923 C 0.1143 0.93444 0.03401 0.0
C924 C 0.11433 0.96263 0.03999 0.0
C925 C 0.13853 0.92425 0.03151 0.0
C926 C 0.13926 0.98053 0.04512 0.0
C927 C 0.16373 0.97047 0.04272 0.0
H928 H 0.6519 0.62327 0.97231 0.0
H929 H 0.70449 0.56667 0.99684 0.0
H930 H 0.66499 0.53245 0.00279 0.0
H931 H 0.61538 0.51987 0.00466 0.0
H932 H 0.5637 0.57762 0.98091 0.0
H933 H 0.60285 0.60978 0.971 0.0
C934 C 0.65484 0.60338 0.97871 0.0
C935 C 0.68131 0.59779 0.98431 0.0
C936 C 0.63207 0.5839 0.98243 0.0
C937 C 0.68447 0.5717 0.99238 0.0
C938 C 0.66183 0.5521 0.99592 0.0
C939 C 0.61264 0.53933 0.99695 0.0
C940 C 0.58643 0.54619 0.99369 0.0
C941 C 0.6355 0.55814 0.99154 0.0
C942 C 0.58345 0.57163 0.98376 0.0
C943 C 0.60592 0.59018 0.9781 0.0
H944 H 0.65604 0.42741 0.27536 0.0
H945 H 0.72416 0.48444 0.31813 0.0
H946 H 0.75288 0.44923 0.31461 0.0
H947 H 0.75848 0.40165 0.3005 0.0
H948 H 0.69134 0.34564 0.25434 0.0
H949 H 0.66266 0.38086 0.25778 0.0
C950 C 0.67719 0.43209 0.28383 0.0
C951 C 0.68787 0.45847 0.2972 0.0
C952 C 0.69386 0.41189 0.28103 0.0
C953 C 0.71542 0.46433 0.30772 0.0
C954 C 0.73187 0.44417 0.30577 0.0
C955 C 0.73764 0.39724 0.29098 0.0
C956 C 0.72714 0.37097 0.27723 0.0
C957 C 0.72131 0.41781 0.29259 0.0
C958 C 0.70009 0.36569 0.26487 0.0
C959 C 0.68357 0.38581 0.26698 0.0
H960 H 0.82828 0.43397 0.49287 0.0
H961 H 0.84814 0.3575 0.45747 0.0
H962 H 0.89587 0.37775 0.46161 0.0
H963 H 0.93253 0.41503 0.4811 0.0
H964 H 0.91326 0.49159 0.51645 0.0
H965 H 0.86484 0.47353 0.50617 0.0
C966 C 0.84294 0.42185 0.48555 0.0
C967 C 0.83452 0.39403 0.47544 0.0
C968 C 0.87059 0.43354 0.48826 0.0
C969 C 0.85391 0.37882 0.46573 0.0
C970 C 0.88133 0.39036 0.46816 0.0
C971 C 0.91772 0.42791 0.48614 0.0
C972 C 0.92642 0.45443 0.49989 0.0
C973 C 0.88997 0.41735 0.48035 0.0
C974 C 0.90706 0.47105 0.50591 0.0
C975 C 0.87936 0.46068 0.50019 0.0
H976 H 0.33666 0.06809 0.26202 0.0
H977 H 0.38577 0.11157 0.33652 0.0
H978 H 0.35966 0.14861 0.33514 0.0
H979 H 0.32536 0.16991 0.31176 0.0
H980 H 0.27801 0.13048 0.23442 0.0
H981 H 0.30059 0.09031 0.2381 0.0
C982 C 0.34139 0.08568 0.2779 0.0
C983 C 0.36317 0.08735 0.29919 0.0
C984 C 0.32671 0.10752 0.27648 0.0
C985 C 0.36932 0.11013 0.31971 0.0
C986 C 0.35436 0.13124 0.31904 0.0
C987 C 0.31977 0.15256 0.29563 0.0
C988 C 0.30023 0.15329 0.2727 0.0
C989 C 0.33338 0.13035 0.29731 0.0
C990 C 0.29308 0.13043 0.25228 0.0
C991 C 0.30608 0.10755 0.25431 0.0
H992 H 0.36392 0.12645 0.48651 0.0
H993 H 0.31443 0.05844 0.51839 0.0
H994 H 0.35453 0.03683 0.52782 0.0
H995 H 0.40454 0.03766 0.52737 0.0
H996 H 0.45215 0.10599 0.49338 0.0
H997 H 0.41222 0.12662 0.48446 0.0
C998 C 0.36182 0.10691 0.49558 0.0
C999 C 0.33614 0.09426 0.50189 0.0
C1000 C 0.38484 0.09447 0.50058 0.0
C1001 C 0.33392 0.06874 0.51335 0.0
C1002 C 0.35691 0.05635 0.51876 0.0
C1003 C 0.40612 0.057 0.51796 0.0
C1004 C 0.43166 0.07014 0.51128 0.0
C1005 C 0.38262 0.06905 0.51252 0.0
C1006 C 0.43306 0.0952 0.49892 0.0
C1007 C 0.41011 0.10721 0.49376 0.0
H1008 H 0.6989 0.5893 0.31457 0.0
H1009 H 0.62726 0.62666 0.31927 0.0
H1010 H 0.65331 0.67089 0.31212 0.0
H1011 H 0.69562 0.69865 0.30129 0.0
H1012 H 0.7678 0.66229 0.29806 0.0
H1013 H 0.74237 0.61818 0.30779 0.0
C1014 C 0.68902 0.60715 0.31442 0.0
C1015 C 0.66097 0.60434 0.31723 0.0
C1016 C 0.70416 0.63277 0.3102 0.0
C1017 C 0.6487 0.62792 0.31708 0.0
C1018 C 0.66358 0.65334 0.31285 0.0
C1019 C 0.70582 0.6811 0.30279 0.0
C1020 C 0.73351 0.68372 0.29862 0.0
C1021 C 0.69117 0.6559 0.30878 0.0
C1022 C 0.74649 0.66085 0.30111 0.0
C1023 C 0.73194 0.63559 0.30664 0.0
H1024 H 0.85104 0.45166 0.80487 0.0
H1025 H 0.92971 0.42901 0.82347 0.0
H1026 H 0.90927 0.38078 0.81806 0.0
H1027 H 0.86998 0.34486 0.80308 0.0
H1028 H 0.79119 0.36697 0.78463 0.0
H1029 H 0.81072 0.41549 0.79534 0.0
C1030 C 0.8637 0.43622 0.80809 0.0
C1031 C 0.89198 0.44409 0.81412 0.0
C1032 C 0.85182 0.40835 0.80483 0.0
C1033 C 0.90795 0.4237 0.8186 0.0
C1034 C 0.89629 0.39602 0.81543 0.0
C1035 C 0.85701 0.36029 0.80179 0.0
C1036 C 0.82926 0.35235 0.79275 0.0
C1037 C 0.86839 0.3881 0.80777 0.0
C1038 C 0.81263 0.37253 0.79154 0.0
C1039 C 0.82383 0.4003 0.79748 0.0
H1040 H 0.0221 0.82707 0.09665 0.0
H1041 H 0.03119 0.86212 0.18465 0.0
H1042 H 0.03268 0.90791 0.16884 0.0
H1043 H 0.03131 0.93783 0.13023 0.0
H1044 H 0.02087 0.90322 0.04201 0.0
H1045 H 0.01942 0.85725 0.05767 0.0
C1046 C 0.02463 0.84481 0.11229 0.0
C1047 C 0.02674 0.84138 0.14172 0.0
C1048 C 0.02484 0.871 0.10303 0.0
C1049 C 0.02958 0.86436 0.16186 0.0
C1050 C 0.03035 0.8905 0.15285 0.0
C1051 C 0.02856 0.92022 0.1144 0.0
C1052 C 0.02622 0.92389 0.08504 0.0
C1053 C 0.02787 0.89402 0.12352 0.0
C1054 C 0.02252 0.90088 0.06477 0.0
C1055 C 0.0219 0.87464 0.0737 0.0
H1056 H 0.93315 0.24873 0.82984 0.0
H1057 H 0.90063 0.24149 0.91165 0.0
H1058 H 0.8551 0.24012 0.88903 0.0
H1059 H 0.82471 0.24419 0.84706 0.0
H1060 H 0.85592 0.25186 0.76481 0.0
H1061 H 0.90153 0.24962 0.78646 0.0
C1062 C 0.91605 0.24648 0.8426 0.0
C1063 C 0.92049 0.24551 0.8725 0.0
C1064 C 0.88963 0.24601 0.82945 0.0
C1065 C 0.898 0.24264 0.88869 0.0
C1066 C 0.87186 0.24184 0.87579 0.0
C1067 C 0.84143 0.24525 0.83377 0.0
C1068 C 0.83692 0.2485 0.80441 0.0
C1069 C 0.8675 0.2441 0.84634 0.0
C1070 C 0.85881 0.24942 0.78749 0.0
C1071 C 0.88493 0.24823 0.79989 0.0
H1072 H 0.54996 0.20999 0.58363 0.0
H1073 H 0.50737 0.2017 0.65951 0.0
H1074 H 0.49897 0.15216 0.64937 0.0
H1075 H 0.50241 0.11127 0.61859 0.0
H1076 H 0.54434 0.11863 0.54236 0.0
H1077 H 0.55457 0.16844 0.55328 0.0
C1078 C 0.53881 0.19737 0.59793 0.0
C1079 C 0.52924 0.20971 0.62223 0.0
C1080 C 0.53403 0.1687 0.59204 0.0
C1081 C 0.51501 0.19291 0.64063 0.0
C1082 C 0.51017 0.1645 0.63489 0.0
C1083 C 0.51395 0.12369 0.60441 0.0
C1084 C 0.52252 0.11124 0.57966 0.0
C1085 C 0.51946 0.15221 0.61062 0.0
C1086 C 0.53754 0.12769 0.5616 0.0
C1087 C 0.54328 0.15619 0.56776 0.0
H1088 H 0.59992 0.77865 0.38161 0.0
H1089 H 0.55699 0.73944 0.30186 0.0
H1090 H 0.59995 0.7419 0.28011 0.0
H1091 H 0.65024 0.75383 0.2847 0.0
H1092 H 0.6921 0.79101 0.36559 0.0
H1093 H 0.64893 0.79136 0.38588 0.0
C1094 C 0.59986 0.7706 0.35945 0.0
C1095 C 0.57533 0.75872 0.34343 0.0
C1096 C 0.62445 0.77211 0.34723 0.0
C1097 C 0.57566 0.7485 0.31472 0.0
C1098 C 0.60019 0.75004 0.30225 0.0
C1099 C 0.64967 0.76254 0.30651 0.0
C1100 C 0.67402 0.77282 0.32363 0.0
C1101 C 0.62475 0.76175 0.31834 0.0
C1102 C 0.67341 0.78335 0.35209 0.0
C1103 C 0.64882 0.78335 0.36371 0.0
H1104 H 0.04038 0.19719 0.41714 0.0
H1105 H 0.99023 0.21217 0.48506 0.0
H1106 H 0.99076 0.16598 0.49898 0.0
H1107 H 0.00485 0.12093 0.49138 0.0
H1108 H 0.05535 0.10656 0.42361 0.0
H1109 H 0.05531 0.15289 0.41031 0.0
C1110 C 0.02949 0.19039 0.43495 0.0
C1111 C 0.01519 0.20816 0.44989 0.0
C1112 C 0.02996 0.16386 0.44297 0.0
C1113 C 1.00143 0.19898 0.47312 0.0
C1114 C 1.00169 0.17253 0.48112 0.0
C1115 C 0.01594 0.12799 0.4738 0.0
C1116 C 0.02995 0.11022 0.45847 0.0
C1117 C 0.01583 0.15476 0.46616 0.0
C1118 C 0.04426 0.11972 0.43575 0.0
C1119 C 0.04426 0.14625 0.42806 0.0
H1120 H 0.60705 0.24482 0.13061 0.0
H1121 H 0.56871 0.26374 0.2068 0.0
H1122 H 0.61123 0.26345 0.23646 0.0
H1123 H 0.6606 0.26262 0.23986 0.0
H1124 H 0.69818 0.24494 0.16275 0.0
H1125 H 0.65446 0.23945 0.13434 0.0
C1126 C 0.6079 0.24879 0.15373 0.0
C1127 C 0.58492 0.25483 0.16645 0.0
C1128 C 0.63227 0.24871 0.17046 0.0
C1129 C 0.5862 0.25924 0.19648 0.0
C1130 C 0.6105 0.25912 0.21342 0.0
C1131 C 0.65904 0.25688 0.21695 0.0
C1132 C 0.68259 0.25433 0.20335 0.0
C1133 C 0.63386 0.25449 0.20056 0.0
C1134 C 0.68036 0.24716 0.17364 0.0
C1135 C 0.6554 0.24415 0.15736 0.0
H1136 H 0.54268 0.84842 0.9921 0.0
H1137 H 0.55881 0.87589 0.90939 0.0
H1138 H 0.55604 0.92265 0.92709 0.0
H1139 H 0.54721 0.95534 0.965 0.0
H1140 H 0.53133 0.9291 0.04819 0.0
H1141 H 0.5362 0.8823 0.03145 0.0
C1142 C 0.54569 0.86469 0.97804 0.0
C1143 C 0.55076 0.85865 0.94942 0.0
C1144 C 0.54413 0.89171 0.9884 0.0
C1145 C 0.55479 0.87994 0.93148 0.0
C1146 C 0.55321 0.90672 0.94156 0.0
C1147 C 0.54489 0.93944 0.97959 0.0
C1148 C 0.53854 0.94562 0.00768 0.0
C1149 C 0.54762 0.91275 0.96984 0.0
C1150 C 0.53609 0.92486 0.0264 0.0
C1151 C 0.53877 0.89808 0.0168 0.0
H1152 H 0.94839 0.74708 0.71482 0.0
H1153 H 0.9149 0.71651 0.62858 0.0
H1154 H 0.86913 0.71471 0.64266 0.0
H1155 H 0.83895 0.72454 0.67794 0.0
H1156 H 0.87051 0.75626 0.76446 0.0
H1157 H 0.91688 0.75529 0.75175 0.0
C1158 C 0.93098 0.73948 0.69941 0.0
C1159 C 0.93486 0.73176 0.67075 0.0
C1160 C 0.90454 0.73929 0.7075 0.0
C1161 C 0.91229 0.72246 0.65074 0.0
C1162 C 0.88616 0.72159 0.65872 0.0
C1163 C 0.85586 0.73132 0.69419 0.0
C1164 C 0.85125 0.74075 0.72207 0.0
C1165 C 0.8821 0.73053 0.6868 0.0
C1166 C 0.87352 0.74917 0.74276 0.0
C1167 C 0.9 0.74847 0.73552 0.0
H1168 H 0.07586 0.01259 0.85815 0.0
H1169 H 0.14889 0.00589 0.9104 0.0
H1170 H 0.1231 1.00062 0.95223 0.0
H1171 H 0.07981 0.99753 0.97355 0.0
H1172 H 0.0068 0.00367 0.92073 0.0
H1173 H 0.0327 0.00913 0.87926 0.0
C1174 C 0.08625 0.01016 0.87872 0.0
C1175 C 0.11431 0.00977 0.88121 0.0
C1176 C 0.07125 0.00671 0.90242 0.0
C1177 C 0.12735 0.00641 0.90797 0.0
C1178 C 0.11259 0.00326 0.93182 0.0
C1179 C 0.06944 0.99986 0.95294 0.0
C1180 C 0.04128 1.00005 0.95031 0.0
C1181 C 0.08449 0.00321 0.92922 0.0
C1182 C 0.02835 0.00324 0.92341 0.0
C1183 C 0.04318 0.00653 0.8997 0.0
H1184 H 0.79134 0.31571 0.57343 0.0
H1185 H 0.75481 0.38742 0.59148 0.0
H1186 H 0.75818 0.38076 0.64249 0.0
H1187 H 0.76854 0.35277 0.68122 0.0
H1188 H 0.80457 0.28079 0.66286 0.0
H1189 H 0.80451 0.28958 0.61253 0.0
C1190 C 0.78418 0.32997 0.58849 0.0
C1191 C 0.77253 0.35182 0.57862 0.0
C1192 C 0.78603 0.32596 0.61766 0.0
C1193 C 0.76379 0.37037 0.59851 0.0
C1194 C 0.76563 0.36654 0.62766 0.0
C1195 C 0.7766 0.33912 0.66627 0.0
C1196 C 0.78628 0.31601 0.67568 0.0
C1197 C 0.77628 0.34414 0.63737 0.0
C1198 C 0.79687 0.29866 0.65611 0.0
C1199 C 0.79678 0.30361 0.62733 0.0
H1200 H 0.48278 0.05246 0.36924 0.0
H1201 H 0.4077 0.03143 0.40718 0.0
H1202 H 0.43292 0.02592 0.45246 0.0
H1203 H 0.47555 0.02162 0.47862 0.0
H1204 H 0.55112 0.04386 0.44206 0.0
H1205 H 0.52624 0.05401 0.39822 0.0
C1206 C 0.47198 0.04689 0.38753 0.0
C1207 C 0.44348 0.04186 0.38488 0.0
C1208 C 0.48659 0.04374 0.41338 0.0
C1209 C 0.42964 0.03517 0.40874 0.0
C1210 C 0.44403 0.03194 0.43454 0.0
C1211 C 0.48677 0.02967 0.46159 0.0
C1212 C 0.51517 0.03228 0.46375 0.0
C1213 C 0.47242 0.03549 0.43678 0.0
C1214 C 0.52925 0.04181 0.44096 0.0
C1215 C 0.51504 0.04751 0.41591 0.0
H1216 H 0.74447 0.7051 0.08204 0.0
H1217 H 0.78691 0.63606 0.0817 0.0
H1218 H 0.79474 0.64259 0.13389 0.0
H1219 H 0.79002 0.668 0.17961 0.0
H1220 H 0.74857 0.73764 0.1802 0.0
H1221 H 0.7397 0.73055 0.12792 0.0
C1222 C 0.75547 0.69144 0.0933 0.0
C1223 C 0.76507 0.67009 0.07773 0.0
C1224 C 0.75996 0.69532 0.12342 0.0
C1225 C 0.77928 0.65269 0.09292 0.0
C1226 C 0.78374 0.65636 0.12285 0.0
C1227 C 0.77883 0.68153 0.16839 0.0
C1228 C 0.76985 0.70326 0.18391 0.0
C1229 C 0.77416 0.67758 0.13831 0.0
C1230 C 0.75565 0.72072 0.16886 0.0
C1231 C 0.75063 0.71671 0.13894 0.0
H1232 H 0.14248 0.00452 0.71917 0.0
H1233 H 0.06462 0.02671 0.73363 0.0
H1234 H 0.05193 0.02263 0.68234 0.0
H1235 H 0.06224 0.01221 0.6334 0.0
H1236 H 0.13945 0.98933 0.61791 0.0
H1237 H 0.15308 0.99454 0.66949 0.0
C1238 C 0.12272 0.00837 0.71111 0.0
C1239 C 0.10461 0.01589 0.73038 0.0
C1240 C 0.11542 0.00606 0.68136 0.0
C1241 C 0.07909 0.02093 0.71945 0.0
C1242 C 0.07175 0.01865 0.69003 0.0
C1243 C 0.08217 0.0086 0.64123 0.0
C1244 C 0.09979 1.00044 0.62183 0.0
C1245 C 0.08972 0.01125 0.67082 0.0
C1246 C 0.12547 0.99567 0.63241 0.0
C1247 C 0.13326 0.99855 0.66191 0.0
H1248 H 0.73694 0.30939 0.44653 0.0
H1249 H 0.72342 0.38153 0.40573 0.0
H1250 H 0.71942 0.3557 0.35867 0.0
H1251 H 0.72491 0.3146 0.32948 0.0
H1252 H 0.74246 0.24348 0.36952 0.0
H1253 H 0.73865 0.26661 0.41681 0.0
C1254 C 0.73287 0.3194 0.42736 0.0
C1255 C 0.73088 0.34745 0.42953 0.0
C1256 C 0.73114 0.30456 0.4004 0.0
C1257 C 0.72533 0.36007 0.40456 0.0
C1258 C 0.72298 0.3453 0.3777 0.0
C1259 C 0.72751 0.30398 0.34856 0.0
C1260 C 0.73439 0.2776 0.34619 0.0
C1261 C 0.72659 0.31781 0.37542 0.0
C1262 C 0.73715 0.26379 0.37087 0.0
C1263 C 0.73531 0.27716 0.39787 0.0
H1264 H 0.47723 0.0036 0.23488 0.0
H1265 H 0.40741 0.04337 0.22177 0.0
H1266 H 0.41198 0.04119 0.17026 0.0
H1267 H 0.43625 0.02844 0.1292 0.0
H1268 H 0.50571 0.98824 0.14307 0.0
H1269 H 0.50066 0.9901 0.19423 0.0
C1270 C 0.46302 0.01195 0.22086 0.0
C1271 C 0.44212 0.02381 0.23222 0.0
C1272 C 0.46563 0.01046 0.19142 0.0
C1273 C 0.42371 0.03415 0.2136 0.0
C1274 C 0.42631 0.03292 0.18416 0.0
C1275 C 0.45022 0.01999 0.1434 0.0
C1276 C 0.47137 0.0083 0.13234 0.0
C1277 C 0.44724 0.02114 0.17286 0.0
C1278 C 0.48926 0.99739 0.15101 0.0
C1279 C 0.48644 0.99847 0.18029 0.0
H1280 H 0.76857 0.70767 0.94243 0.0
H1281 H 0.75207 0.6283 0.89392 0.0
H1282 H 0.75285 0.65005 0.84916 0.0
H1283 H 0.75941 0.69124 0.82377 0.0
H1284 H 0.77808 0.77101 0.87147 0.0
H1285 H 0.77526 0.7495 0.9165 0.0
C1286 C 0.76484 0.69517 0.92204 0.0
C1287 C 0.76012 0.66633 0.92156 0.0
C1288 C 0.76594 0.70788 0.89624 0.0
C1289 C 0.7557 0.65047 0.89495 0.0
C1290 C 0.75621 0.66291 0.86932 0.0
C1291 C 0.763 0.70407 0.84395 0.0
C1292 C 0.76911 0.73282 0.84404 0.0
C1293 C 0.7616 0.69156 0.8697 0.0
C1294 C 0.7735 0.74888 0.8706 0.0
C1295 C 0.7718 0.73656 0.8964 0.0
H1296 H 0.83707 0.0937 0.99617 0.0
H1297 H 0.83378 0.08788 0.08677 0.0
H1298 H 0.8704 0.06049 0.08726 0.0
H1299 H 0.90634 0.04265 0.06256 0.0
H1300 H 0.90819 0.04689 0.97144 0.0
H1301 H 0.86862 0.06999 0.97019 0.0
C1302 C 0.84413 0.08594 0.01587 0.0
C1303 C 0.83313 0.09277 0.04146 0.0
C1304 C 0.86483 0.07006 0.0158 0.0
C1305 C 0.84206 0.08267 0.06689 0.0
C1306 C 0.86301 0.06718 0.06714 0.0
C1307 C 0.89772 0.0482 0.04235 0.0
C1308 C 0.91023 0.0434 0.01715 0.0
C1309 C 0.87499 0.06138 0.04185 0.0
C1310 C 0.89881 0.05034 0.99105 0.0
C1311 C 0.87635 0.06373 0.9904 0.0
H1312 H 0.38305 0.38785 0.03548 0.0
H1313 H 0.33803 0.4538 0.0502 0.0
H1314 H 0.37974 0.48729 0.05054 0.0
H1315 H 0.42902 0.49781 0.04394 0.0
H1316 H 0.47242 0.43061 0.02835 0.0
H1317 H 0.43143 0.3979 0.03118 0.0
C1318 C 0.38219 0.40953 0.03891 0.0
C1319 C 0.3572 0.41814 0.04263 0.0
C1320 C 0.40612 0.4286 0.03882 0.0
C1321 C 0.35686 0.44644 0.04728 0.0
C1322 C 0.38075 0.46565 0.04738 0.0
C1323 C 0.42952 0.47602 0.04144 0.0
C1324 C 0.4539 0.46681 0.03573 0.0
C1325 C 0.40551 0.45699 0.04279 0.0
C1326 C 0.45405 0.43843 0.03249 0.0
C1327 C 0.43055 0.4196 0.03413 0.0
H1328 H 0.39825 0.6003 0.75026 0.0
H1329 H 0.31747 0.55353 0.743 0.0
H1330 H 0.2984 0.59601 0.74529 0.0
H1331 H 0.30511 0.64697 0.75166 0.0
H1332 H 0.38632 0.69264 0.75626 0.0
H1333 H 0.40474 0.65023 0.75287 0.0
C1334 C 0.37645 0.59938 0.74893 0.0
C1335 C 0.35931 0.57385 0.74663 0.0
C1336 C 0.3657 0.62378 0.75007 0.0
C1337 C 0.3311 0.57297 0.74465 0.0
C1338 C 0.3202 0.59726 0.74617 0.0
C1339 C 0.32679 0.64751 0.75192 0.0
C1340 C 0.34433 0.6729 0.75446 0.0
C1341 C 0.33734 0.62285 0.74931 0.0
C1342 C 0.37238 0.67337 0.75431 0.0
C1343 C 0.38297 0.64912 0.7524 0.0
H1344 H 0.2057 0.5936 0.53572 0.0
H1345 H 0.18366 0.67429 0.5409 0.0
H1346 H 0.13617 0.6543 0.53982 0.0
H1347 H 0.10041 0.61429 0.53221 0.0
H1348 H 0.121 0.53321 0.52595 0.0
H1349 H 0.16932 0.55291 0.53328 0.0
C1350 C 0.19054 0.60679 0.53707 0.0
C1351 C 0.19837 0.63544 0.5379 0.0
C1352 C 0.16289 0.59511 0.53615 0.0
C1353 C 0.17835 0.65218 0.53975 0.0
C1354 C 0.15108 0.64079 0.53919 0.0
C1355 C 0.11544 0.60088 0.53291 0.0
C1356 C 0.10712 0.57236 0.52827 0.0
C1357 C 0.14306 0.61232 0.53658 0.0
C1358 C 0.12685 0.55526 0.52953 0.0
C1359 C 0.15452 0.56654 0.53348 0.0
H1360 H 0.70261 0.9521 0.78248 0.0
H1361 H 0.62289 0.90829 0.75156 0.0
H1362 H 0.63883 0.86461 0.75482 0.0
H1363 H 0.675 0.839 0.76667 0.0
H1364 H 0.75434 0.88153 0.8007 0.0
H1365 H 0.73893 0.92574 0.79676 0.0
C1366 C 0.68895 0.93292 0.77617 0.0
C1367 C 0.66177 0.93321 0.76632 0.0
C1368 C 0.69805 0.90782 0.77915 0.0
C1369 C 0.64394 0.9084 0.75893 0.0
C1370 C 0.653 0.88349 0.76092 0.0
C1371 C 0.68894 0.85795 0.77335 0.0
C1372 C 0.71578 0.8571 0.78381 0.0
C1373 C 0.67992 0.88298 0.77113 0.0
C1374 C 0.73352 0.88174 0.79275 0.0
C1375 C 0.72476 0.90696 0.79025 0.0
H1376 H 0.73223 0.95566 0.54837 0.0
H1377 H 0.69569 0.8725 0.55753 0.0
H1378 H 0.65097 0.88587 0.55632 0.0
H1379 H 0.62186 0.92015 0.54955 0.0
H1380 H 0.65693 0.00295 0.53688 0.0
H1381 H 0.70245 0.99084 0.54245 0.0
C1382 C 0.71449 0.94065 0.55064 0.0
C1383 C 0.71733 0.91313 0.55334 0.0
C1384 C 0.68851 0.94835 0.54887 0.0
C1385 C 0.69409 0.89378 0.55558 0.0
C1386 C 0.66848 0.9014 0.55476 0.0
C1387 C 0.6394 0.93571 0.54816 0.0
C1388 C 0.63582 0.96248 0.54274 0.0
C1389 C 0.66538 0.92848 0.55089 0.0
C1390 C 0.65896 0.98219 0.54093 0.0
C1391 C 0.68503 0.97525 0.54415 0.0
H1392 H 0.38902 0.39515 0.76417 0.0
H1393 H 0.32392 0.44061 0.74801 0.0
H1394 H 0.29069 0.39864 0.74819 0.0
H1395 H 0.28022 0.34896 0.75529 0.0
H1396 H 0.34679 0.30533 0.77221 0.0
H1397 H 0.37907 0.34659 0.76934 0.0
C1398 C 0.36758 0.39604 0.76056 0.0
C1399 C 0.35909 0.42116 0.75626 0.0
C1400 C 0.3487 0.37203 0.76096 0.0
C1401 C 0.33113 0.42161 0.75138 0.0
C1402 C 0.31208 0.39759 0.75158 0.0
C1403 C 0.30178 0.3485 0.75817 0.0
C1404 C 0.3109 0.32395 0.76415 0.0
C1405 C 0.32062 0.37267 0.7567 0.0
C1406 C 0.33899 0.32382 0.7678 0.0
C1407 C 0.35761 0.34747 0.76614 0.0
H1408 H 0.12774 0.60675 0.25263 0.0
H1409 H 0.2035 0.57697 0.26541 0.0
H1410 H 0.22839 0.62381 0.26695 0.0
H1411 H 0.22813 0.67365 0.26981 0.0
H1412 H 0.15185 0.70268 0.25788 0.0
H1413 H 0.1277 0.65563 0.25034 0.0
C1414 C 0.14972 0.61045 0.25557 0.0
C1415 C 0.16373 0.58849 0.25939 0.0
C1416 C 0.1638 0.6373 0.25654 0.0
C1417 C 0.19222 0.59356 0.26258 0.0
C1418 C 0.20645 0.62034 0.26352 0.0
C1419 C 0.20629 0.66964 0.26487 0.0
C1420 C 0.19176 0.69161 0.26466 0.0
C1421 C 0.19241 0.64245 0.26119 0.0
C1422 C 0.16346 0.68612 0.25839 0.0
C1423 C 0.14962 0.65922 0.2542 0.0
H1424 H 0.51289 0.70493 0.47397 0.0
H1425 H 0.51506 0.67549 0.38535 0.0
H1426 H 0.52189 0.63072 0.39977 0.0
H1427 H 0.52335 0.59898 0.43707 0.0
H1428 H 0.52101 0.62835 0.52565 0.0
H1429 H 0.51858 0.67432 0.51169 0.0
C1430 C 0.51498 0.68878 0.45778 0.0
C1431 C 0.51303 0.69346 0.42855 0.0
C1432 C 0.51889 0.66311 0.46621 0.0
C1433 C 0.51633 0.67244 0.40795 0.0
C1434 C 0.52018 0.64681 0.41618 0.0
C1435 C 0.52264 0.61551 0.4534 0.0
C1436 C 0.52206 0.61016 0.48235 0.0
C1437 C 0.52093 0.64177 0.44518 0.0
C1438 C 0.52147 0.63188 0.50324 0.0
C1439 C 0.5199 0.65813 0.49524 0.0
H1440 H 0.60184 0.28708 0.72513 0.0
H1441 H 0.64003 0.31874 0.65279 0.0
H1442 H 0.68423 0.31463 0.67548 0.0
H1443 H 0.71193 0.29876 0.71381 0.0
H1444 H 0.67497 0.2682 0.78704 0.0
H1445 H 0.63057 0.27529 0.76612 0.0
C1446 C 0.61984 0.29345 0.71449 0.0
C1447 C 0.61735 0.30287 0.68703 0.0
C1448 C 0.64549 0.29098 0.72768 0.0
C1449 C 0.64107 0.31116 0.67376 0.0
C1450 C 0.66648 0.30876 0.68668 0.0
C1451 C 0.69418 0.29379 0.7253 0.0
C1452 C 0.69668 0.28266 0.75175 0.0
C1453 C 0.66887 0.29811 0.71328 0.0
C1454 C 0.67357 0.27676 0.76659 0.0
C1455 C 0.64817 0.28073 0.75459 0.0
H1456 H 0.01654 0.3442 0.87404 0.0
H1457 H 0.9958 0.31096 0.95291 0.0
H1458 H 1.00006 0.35708 0.97675 0.0
H1459 H 0.01426 0.40639 0.97658 0.0
H1460 H 0.03704 0.44002 0.89849 0.0
H1461 H 0.02717 0.39421 0.87289 0.0
C1462 C 0.01251 0.34712 0.89629 0.0
C1463 C 0.00615 0.32431 0.9118 0.0
C1464 C 0.01564 0.37371 0.91009 0.0
C1465 C 1.00098 0.32826 0.94062 0.0
C1466 C 1.00346 0.35461 0.95429 0.0
C1467 C 0.01681 0.40378 0.95389 0.0
C1468 C 0.02673 0.42651 0.93957 0.0
C1469 C 0.01155 0.37743 0.93946 0.0
C1470 C 0.02967 0.4228 0.9101 0.0
C1471 C 0.02406 0.39661 0.89544 0.0
H1472 H 0.96458 0.74361 0.23186 0.0
H1473 H 0.9336 0.73866 0.14273 0.0
H1474 H 0.88738 0.73087 0.15578 0.0
H1475 H 0.85613 0.73199 0.19253 0.0
H1476 H 0.88571 0.73721 0.28184 0.0
H1477 H 0.93217 0.73797 0.26879 0.0
C1478 C 0.94768 0.74023 0.21533 0.0
C1479 C 0.95245 0.74227 0.18646 0.0
C1480 C 0.92098 0.73613 0.22302 0.0
C1481 C 0.93043 0.73766 0.16517 0.0
C1482 C 0.90398 0.73323 0.17257 0.0
C1483 C 0.87275 0.73288 0.20909 0.0
C1484 C 0.86788 0.73504 0.238 0.0
C1485 C 0.89909 0.73352 0.20144 0.0
C1486 C 0.88924 0.73563 0.25938 0.0
C1487 C 0.91573 0.73623 0.25193 0.0
H1488 H 0.52779 0.3142 0.08188 0.0
H1489 H 0.51141 0.34593 0.16572 0.0
H1490 H 0.51916 0.39243 0.15149 0.0
H1491 H 0.52634 0.42343 0.11412 0.0
H1492 H 0.54297 0.39267 0.03017 0.0
H1493 H 0.53972 0.34633 0.04564 0.0
C1494 C 0.52623 0.33135 0.0971 0.0
C1495 C 0.51867 0.32664 0.12467 0.0
C1496 C 0.53061 0.35809 0.08872 0.0
C1497 C 0.51702 0.34901 0.14431 0.0
C1498 C 0.52138 0.3756 0.13618 0.0
C1499 C 0.52948 0.4066 0.09927 0.0
C1500 C 0.53447 0.41123 0.07097 0.0
C1501 C 0.52749 0.38026 0.10826 0.0
C1502 C 0.53903 0.38947 0.05207 0.0
C1503 C 0.53704 0.36302 0.06087 0.0
H1504 H 0.92106 0.29862 0.39948 0.0
H1505 H 0.9692 0.26452 0.33828 0.0
H1506 H 0.93044 0.25533 0.30244 0.0
H1507 H 0.88211 0.25332 0.28938 0.0
H1508 H 0.83325 0.28686 0.34995 0.0
H1509 H 0.87308 0.3003 0.3847 0.0
C1510 C 0.92313 0.28938 0.37825 0.0
C1511 C 0.94801 0.28195 0.37189 0.0
C1512 C 0.9006 0.28399 0.35749 0.0
C1513 C 0.95031 0.27025 0.34407 0.0
C1514 C 0.92812 0.26495 0.32341 0.0
C1515 C 0.8802 0.2639 0.31003 0.0
C1516 C 0.85468 0.26875 0.31712 0.0
C1517 C 0.90305 0.27122 0.33005 0.0
C1518 C 0.85265 0.28273 0.34392 0.0
C1519 C 0.87541 0.29031 0.36391 0.0
H1520 H 0.00663 0.6812 0.54329 0.0
H1521 H 0.99388 0.66064 0.62923 0.0
H1522 H 0.99071 0.61205 0.6135 0.0
H1523 H 0.99588 0.57599 0.57641 0.0
H1524 H 0.00852 0.59675 0.49053 0.0
H1525 H 0.00731 0.64475 0.50524 0.0
C1526 C 1.0029 0.6661 0.55857 0.0
C1527 C 1.00091 0.6746 0.58749 0.0
C1528 C 1.00131 0.63827 0.54946 0.0
C1529 C 0.9956 0.6547 0.60686 0.0
C1530 C 0.99393 0.62691 0.59792 0.0
C1531 C 0.99817 0.591 0.56086 0.0
C1532 C 1.0027 0.5829 0.53254 0.0
C1533 C 0.99747 0.61856 0.56945 0.0
C1534 C 0.00515 0.60247 0.51251 0.0
C1535 C 0.00453 0.62993 0.52091 0.0
H1536 H 0.58657 0.76524 0.84038 0.0
H1537 H 0.62193 0.75565 0.92508 0.0
H1538 H 0.664 0.74847 0.90579 0.0
H1539 H 0.69271 0.75158 0.86656 0.0
H1540 H 0.65932 0.76383 0.78204 0.0
H1541 H 0.61439 0.76261 0.79927 0.0
C1542 C 0.60332 0.761 0.85443 0.0
C1543 C 0.60132 0.76138 0.88416 0.0
C1544 C 0.62785 0.75754 0.84325 0.0
C1545 C 0.62313 0.75587 0.90218 0.0
C1546 C 0.6472 0.75174 0.89119 0.0
C1547 C 0.67546 0.75342 0.85176 0.0
C1548 C 0.6793 0.75811 0.82322 0.0
C1549 C 0.6501 0.75356 0.862 0.0
C1550 C 0.65681 0.76013 0.80413 0.0
C1551 C 0.6312 0.75972 0.81407 0.0
H1552 H 0.48383 0.51977 0.70929 0.0
H1553 H 0.40419 0.513 0.66434 0.0
H1554 H 0.42472 0.52284 0.61993 0.0
H1555 H 0.4652 0.52987 0.59351 0.0
H1556 H 0.54472 0.53735 0.63919 0.0
H1557 H 0.52415 0.53057 0.68387 0.0
C1558 C 0.47087 0.52048 0.68982 0.0
C1559 C 0.44246 0.5152 0.69004 0.0
C1560 C 0.48279 0.52611 0.66454 0.0
C1561 C 0.42607 0.51685 0.66474 0.0
C1562 C 0.43782 0.52236 0.63935 0.0
C1563 C 0.47813 0.53038 0.61325 0.0
C1564 C 0.50656 0.53393 0.61283 0.0
C1565 C 0.46615 0.52653 0.63893 0.0
C1566 C 0.52285 0.5346 0.63876 0.0
C1567 C 0.51109 0.53064 0.66434 0.0
H1568 H 0.7416 0.15364 0.94989 0.0
H1569 H 0.82307 0.195 0.97691 0.0
H1570 H 0.8209 0.22493 0.93846 0.0
H1571 H 0.79515 0.24115 0.89937 0.0
H1572 H 0.71362 0.20059 0.87107 0.0
H1573 H 0.71616 0.16881 0.90816 0.0
C1574 C 0.75898 0.16878 0.94672 0.0
C1575 C 0.78255 0.17213 0.96573 0.0
C1576 C 0.75729 0.18649 0.925 0.0
C1577 C 0.80484 0.19211 0.96216 0.0
C1578 C 0.80353 0.20935 0.94044 0.0
C1579 C 0.77778 0.2256 0.90153 0.0
C1580 C 0.75405 0.22352 0.88302 0.0
C1581 C 0.77965 0.20717 0.92224 0.0
C1582 C 0.73199 0.20276 0.88547 0.0
C1583 C 0.73351 0.18449 0.90648 0.0
H1584 H 0.05009 0.4836 0.19469 0.0
H1585 H 0.12934 0.48394 0.16525 0.0
H1586 H 0.10941 0.48053 0.1155 0.0
H1587 H 0.07071 0.48422 0.08132 0.0
H1588 H 0.99225 0.487 0.11162 0.0
H1589 H 0.01083 0.48255 0.16033 0.0
C1590 C 0.06309 0.48262 0.17746 0.0
C1591 C 0.0913 0.48459 0.18378 0.0
C1592 C 0.05168 0.4816 0.14912 0.0
C1593 C 0.10762 0.48269 0.16107 0.0
C1594 C 0.09625 0.48093 0.13262 0.0
C1595 C 0.05749 0.48327 0.09843 0.0
C1596 C 0.03013 0.48617 0.09283 0.0
C1597 C 0.06847 0.4814 0.1265 0.0
C1598 C 0.01339 0.48505 0.11535 0.0
C1599 C 0.02402 0.48253 0.14321 0.0
H1600 H 0.79335 0.82988 0.46823 0.0
H1601 H 0.78199 0.91056 0.4474 0.0
H1602 H 0.77774 0.89511 0.39628 0.0
H1603 H 0.77329 0.85782 0.35786 0.0
H1604 H 0.78305 0.77666 0.37859 0.0
H1605 H 0.79218 0.79327 0.42942 0.0
C1606 C 0.79028 0.84418 0.4525 0.0
C1607 C 0.78777 0.87129 0.46161 0.0
C1608 C 0.78741 0.83503 0.42316 0.0
C1609 C 0.78388 0.88957 0.44097 0.0
C1610 C 0.78137 0.88073 0.41173 0.0
C1611 C 0.7777 0.84377 0.37342 0.0
C1612 C 0.77724 0.81596 0.36441 0.0
C1613 C 0.78248 0.85336 0.40262 0.0
C1614 C 0.78318 0.79814 0.3849 0.0
C1615 C 0.78831 0.80761 0.41401 0.0
H1616 H 0.37933 0.51336 0.85336 0.0
H1617 H 0.45127 0.49164 0.81986 0.0
H1618 H 0.47247 0.49168 0.86836 0.0
H1619 H 0.47233 0.50194 0.92001 0.0
H1620 H 0.4011 0.52476 0.95412 0.0
H1621 H 0.37783 0.51993 0.90577 0.0
C1622 C 0.39949 0.50827 0.85673 0.0
C1623 C 0.4138 0.50279 0.83308 0.0
C1624 C 0.4118 0.50871 0.88479 0.0
C1625 C 0.43988 0.49617 0.83772 0.0
C1626 C 0.45207 0.49621 0.86546 0.0
C1627 C 0.45161 0.50558 0.91694 0.0
C1628 C 0.43862 0.51403 0.94061 0.0
C1629 C 0.43849 0.50311 0.88912 0.0
C1630 C 0.41167 0.51841 0.93625 0.0
C1631 C 0.39835 0.51572 0.90858 0.0
H1632 H 0.81336 0.23859 0.10931 0.0
H1633 H 0.7993 0.15464 0.13011 0.0
H1634 H 0.79757 0.17049 0.18044 0.0
H1635 H 0.7913 0.2074 0.21576 0.0
H1636 H 0.7996 0.29062 0.19305 0.0
H1637 H 0.81257 0.27584 0.14609 0.0
C1638 C 0.81036 0.22366 0.12486 0.0
C1639 C 0.80565 0.1954 0.11577 0.0
C1640 C 0.80783 0.23282 0.15326 0.0
C1641 C 0.80263 0.17647 0.1364 0.0
C1642 C 0.80137 0.18553 0.16514 0.0
C1643 C 0.79605 0.22236 0.20062 0.0
C1644 C 0.79355 0.24991 0.20751 0.0
C1645 C 0.80243 0.21354 0.17337 0.0
C1646 C 0.80086 0.26922 0.18809 0.0
C1647 C 0.80822 0.26075 0.16123 0.0
H1648 H 0.0949 0.52094 0.31802 0.0
H1649 H 0.17157 0.50535 0.35568 0.0
H1650 H 0.15656 0.5117 0.40365 0.0
H1651 H 0.12026 0.51796 0.43422 0.0
H1652 H 0.04379 0.53393 0.39627 0.0
H1653 H 0.06031 0.53149 0.34883 0.0
C1654 C 0.10843 0.51917 0.33672 0.0
C1655 C 0.13415 0.51235 0.3334 0.0
C1656 C 0.09968 0.52283 0.36405 0.0
C1657 C 0.15163 0.51049 0.35779 0.0
C1658 C 0.14302 0.51403 0.38515 0.0
C1659 C 0.10729 0.52112 0.41558 0.0
C1660 C 0.08073 0.52574 0.41862 0.0
C1661 C 0.11687 0.51961 0.38845 0.0
C1662 C 0.06428 0.53025 0.39442 0.0
C1663 C 0.07366 0.52875 0.36731 0.0
H1664 H 0.77396 0.86166 0.62848 0.0
H1665 H 0.791 0.78959 0.58037 0.0
H1666 H 0.78148 0.76269 0.62016 0.0
H1667 H 0.77023 0.75928 0.66964 0.0
H1668 H 0.75372 0.83093 0.71866 0.0
H1669 H 0.76081 0.8577 0.67788 0.0
C1670 C 0.77546 0.84007 0.62665 0.0
C1671 C 0.78353 0.82802 0.60131 0.0
C1672 C 0.77003 0.82433 0.64997 0.0
C1673 C 0.78521 0.79983 0.59954 0.0
C1674 C 0.77967 0.78419 0.62237 0.0
C1675 C 0.76787 0.78065 0.67133 0.0
C1676 C 0.76151 0.7929 0.69734 0.0
C1677 C 0.77233 0.79621 0.64782 0.0
C1678 C 0.75872 0.82079 0.69902 0.0
C1679 C 0.76282 0.83626 0.67564 0.0
H1680 H 0.67677 0.40016 0.5414 0.0
H1681 H 0.73228 0.47155 0.52466 0.0
H1682 H 0.69945 0.50087 0.53746 0.0
H1683 H 0.65241 0.5052 0.54735 0.0
H1684 H 0.59711 0.43302 0.56217 0.0
H1685 H 0.63246 0.40507 0.5568 0.0
C1686 C 0.68184 0.42218 0.54089 0.0
C1687 C 0.7067 0.43363 0.53167 0.0
C1688 C 0.66285 0.43878 0.54804 0.0
C1689 C 0.71316 0.46223 0.53153 0.0
C1690 C 0.69437 0.47899 0.53878 0.0
C1691 C 0.64857 0.48355 0.55038 0.0
C1692 C 0.62246 0.47108 0.55541 0.0
C1693 C 0.66882 0.46741 0.54631 0.0
C1694 C 0.61726 0.44293 0.55857 0.0
C1695 C 0.63735 0.42694 0.55525 0.0
H1696 H 0.20119 0.07142 0.4888 0.0
H1697 H 0.16199 0.13663 0.45912 0.0
H1698 H 0.11771 0.10906 0.46172 0.0
H1699 H 0.08981 0.068 0.47634 0.0
H1700 H 0.12884 0.00291 0.50642 0.0
H1701 H 0.17303 0.02871 0.49958 0.0
C1702 C 0.183 0.07951 0.48252 0.0
C1703 C 0.18522 0.10631 0.47402 0.0
C1704 C 0.15732 0.06357 0.48431 0.0
C1705 C 0.16119 0.11624 0.46598 0.0
C1706 C 0.1357 0.10046 0.46748 0.0
C1707 C 0.10787 0.05916 0.48084 0.0
C1708 C 0.10573 0.03344 0.49193 0.0
C1709 C 0.13347 0.0743 0.47717 0.0
C1710 C 0.12964 0.02263 0.49794 0.0
C1711 C 0.15506 0.03744 0.4941 0.0
H1712 H 0.21494 0.96362 0.78668 0.0
H1713 H 0.13746 0.91802 0.80186 0.0
H1714 H 0.15478 0.87526 0.79487 0.0
H1715 H 0.19156 0.85069 0.78517 0.0
H1716 H 0.26915 0.89476 0.7686 0.0
H1717 H 0.25216 0.93825 0.77551 0.0
C1718 C 0.20186 0.9443 0.78831 0.0
C1719 C 0.17493 0.94409 0.79484 0.0
C1720 C 0.21197 0.91954 0.78419 0.0
C1721 C 0.15823 0.91887 0.79685 0.0
C1722 C 0.16812 0.89434 0.79293 0.0
C1723 C 0.20491 0.86977 0.78314 0.0
C1724 C 0.23167 0.86946 0.77656 0.0
C1725 C 0.19494 0.89445 0.78677 0.0
C1726 C 0.24848 0.89442 0.77371 0.0
C1727 C 0.23875 0.91927 0.77764 0.0
H1728 H 0.35853 0.87169 0.9789 0.0
H1729 H 0.31751 0.93771 0.00669 0.0
H1730 H 0.36115 0.96828 0.01748 0.0
H1731 H 0.41132 0.97487 0.0235 0.0
H1732 H 0.45144 0.90739 0.99858 0.0
H1733 H 0.40781 0.87892 0.98197 0.0
C1734 C 0.35895 0.89285 0.98699 0.0
C1735 C 0.33463 0.90222 0.99218 0.0
C1736 C 0.38408 0.91007 0.99384 0.0
C1737 C 0.33583 0.9298 0.0026 0.0
C1738 C 0.36083 0.94731 0.00886 0.0
C1739 C 0.41045 0.95409 0.01396 0.0
C1740 C 0.43452 0.94318 0.01235 0.0
C1741 C 0.38514 0.93748 0.00522 0.0
C1742 C 0.43315 0.91616 0.00023 0.0
C1743 C 0.40822 0.89986 0.99075 0.0
H1744 H 0.8724 0.60129 0.7503 0.0
H1745 H 0.81306 0.55122 0.79329 0.0
H1746 H 0.78171 0.58366 0.78687 0.0
H1747 H 0.77385 0.62937 0.7746 0.0
H1748 H 0.83186 0.67802 0.72896 0.0
H1749 H 0.86088 0.64291 0.73017 0.0
C1750 C 0.85241 0.59734 0.75778 0.0
C1751 C 0.84511 0.57422 0.7726 0.0
C1752 C 0.83427 0.61577 0.75343 0.0
C1753 C 0.81907 0.56897 0.78187 0.0
C1754 C 0.80119 0.58754 0.77829 0.0
C1755 C 0.79231 0.63164 0.76392 0.0
C1756 C 0.80065 0.65589 0.75137 0.0
C1757 C 0.80886 0.61137 0.76478 0.0
C1758 C 0.82487 0.65914 0.73817 0.0
C1759 C 0.84161 0.63926 0.73923 0.0
H1760 H 0.82031 0.568 0.01045 0.0
H1761 H 0.8586 0.64878 0.99398 0.0
H1762 H 0.90264 0.6344 0.99715 0.0
H1763 H 0.93049 0.59928 0.00387 0.0
H1764 H 0.89394 0.5184 0.02144 0.0
H1765 H 0.84915 0.5324 0.01856 0.0
C1766 C 0.83832 0.58244 0.00768 0.0
C1767 C 0.83601 0.60947 0.00192 0.0
C1768 C 0.86394 0.57402 0.00962 0.0
C1769 C 0.85962 0.6279 0.99843 0.0
C1770 C 0.88492 0.61969 0.00019 0.0
C1771 C 0.91278 0.58458 0.00703 0.0
C1772 C 0.91563 0.55775 0.01272 0.0
C1773 C 0.88731 0.59283 0.00561 0.0
C1774 C 0.89237 0.53917 0.01701 0.0
C1775 C 0.86675 0.54719 0.01536 0.0
H1776 H 0.14921 0.1192 0.80041 0.0
H1777 H 0.21386 0.08097 0.83616 0.0
H1778 H 0.24726 0.12048 0.82701 0.0
H1779 H 0.25785 0.16571 0.80745 0.0
H1780 H 0.19205 0.19997 0.76722 0.0
H1781 H 0.15953 0.16229 0.77953 0.0
C1782 C 0.17058 0.11965 0.80665 0.0
C1783 C 0.17902 0.09745 0.81942 0.0
C1784 C 0.18954 0.14171 0.80027 0.0
C1785 C 0.20686 0.09799 0.82656 0.0
C1786 C 0.22593 0.1205 0.8212 0.0
C1787 C 0.23642 0.16485 0.80134 0.0
C1788 C 0.22754 0.1861 0.78691 0.0
C1789 C 0.21752 0.14243 0.80777 0.0
C1790 C 0.19964 0.18435 0.7788 0.0
C1791 C 0.18087 0.1627 0.78577 0.0
H1792 H 0.35675 0.95772 0.31538 0.0
H1793 H 0.4326 0.92904 0.33347 0.0
H1794 H 0.40909 0.88186 0.32734 0.0
H1795 H 0.36803 0.84859 0.31168 0.0
H1796 H 0.29206 0.87662 0.29333 0.0
H1797 H 0.31454 0.92414 0.30522 0.0
C1798 C 0.36812 0.94119 0.3183 0.0
C1799 C 0.3965 0.94702 0.32437 0.0
C1800 C 0.35448 0.91393 0.31461 0.0
C1801 C 0.4108 0.92528 0.32852 0.0
C1802 C 0.39739 0.8982 0.32497 0.0
C1803 C 0.35631 0.86508 0.3107 0.0
C1804 C 0.32854 0.85916 0.30129 0.0
C1805 C 0.36939 0.89228 0.31722 0.0
C1806 C 0.3135 0.88067 0.3005 0.0
C1807 C 0.32639 0.90786 0.30709 0.0
H1808 H 0.52742 0.34355 0.60122 0.0
H1809 H 0.53458 0.37772 0.68952 0.0
H1810 H 0.53507 0.42338 0.67418 0.0
H1811 H 0.53496 0.45388 0.6363 0.0
H1812 H 0.52889 0.42137 0.54769 0.0
H1813 H 0.52574 0.37473 0.56247 0.0
C1814 C 0.52918 0.36104 0.61705 0.0
C1815 C 0.53116 0.35721 0.64652 0.0
C1816 C 0.52931 0.38747 0.60804 0.0
C1817 C 0.53316 0.38003 0.66675 0.0
C1818 C 0.53334 0.40619 0.65801 0.0
C1819 C 0.5327 0.43659 0.62012 0.0
C1820 C 0.5322 0.44109 0.59095 0.0
C1821 C 0.53154 0.41014 0.62879 0.0
C1822 C 0.52905 0.41844 0.57029 0.0
C1823 C 0.52756 0.39181 0.57877 0.0
H1824 H 0.39682 0.74086 0.38424 0.0
H1825 H 0.44403 0.76238 0.31439 0.0
H1826 H 0.40238 0.7625 0.28327 0.0
H1827 H 0.35257 0.76138 0.27785 0.0
H1828 H 0.30659 0.74033 0.34893 0.0
H1829 H 0.34763 0.73479 0.37738 0.0
C1830 C 0.39801 0.7453 0.36211 0.0
C1831 C 0.42343 0.75197 0.35176 0.0
C1832 C 0.37415 0.74553 0.34455 0.0
C1833 C 0.42465 0.75721 0.32289 0.0
C1834 C 0.40085 0.75742 0.30514 0.0
C1835 C 0.35155 0.75509 0.29935 0.0
C1836 C 0.32662 0.75172 0.3114 0.0
C1837 C 0.37547 0.75231 0.31597 0.0
C1838 C 0.32558 0.74349 0.33929 0.0
C1839 C 0.34904 0.74032 0.35564 0.0
H1840 H 0.047 0.69909 0.07752 0.0
H1841 H 0.0197 0.6866 0.16104 0.0
H1842 H 0.0101 0.63743 0.14838 0.0
H1843 H 0.00658 0.59827 0.11301 0.0
H1844 H 0.03237 0.60964 0.02884 0.0
H1845 H 0.04579 0.6589 0.04255 0.0
C1846 C 0.03921 0.68559 0.09303 0.0
C1847 C 0.03386 0.69665 0.12008 0.0
C1848 C 0.03339 0.65712 0.08553 0.0
C1849 C 0.02376 0.67879 0.13993 0.0
C1850 C 0.01828 0.65059 0.13276 0.0
C1851 C 0.01532 0.61143 0.09766 0.0
C1852 C 0.01826 0.60035 0.0699 0.0
C1853 C 0.02256 0.63961 0.1055 0.0
C1854 C 0.02985 0.61769 0.05038 0.0
C1855 C 0.03742 0.64587 0.05816 0.0
H1856 H 0.0845 0.28928 0.8483 0.0
H1857 H 0.05804 0.20258 0.82703 0.0
H1858 H 0.10042 0.19922 0.80545 0.0
H1859 H 0.14668 0.22055 0.79683 0.0
H1860 H 0.17163 0.30786 0.81488 0.0
H1861 H 0.12793 0.31166 0.83318 0.0
C1862 C 0.08793 0.26976 0.83852 0.0
C1863 C 0.06849 0.24612 0.83941 0.0
C1864 C 0.112 0.26819 0.8257 0.0
C1865 C 0.07281 0.22097 0.82648 0.0
C1866 C 0.09704 0.21908 0.8143 0.0
C1867 C 0.14227 0.24045 0.80429 0.0
C1868 C 0.16228 0.26391 0.80474 0.0
C1869 C 0.11701 0.24246 0.81437 0.0
C1870 C 0.15642 0.28961 0.81421 0.0
C1871 C 0.13155 0.29172 0.82486 0.0
H1872 H 0.50323 0.71424 -0.001 0.0
H1873 H 0.53319 0.70153 0.91617 0.0
H1874 H 0.5292 0.65285 0.921 0.0
H1875 H 0.51792 0.61401 0.94832 0.0
H1876 H 0.48837 0.62509 0.03137 0.0
H1877 H 0.49144 0.67434 0.02674 0.0
C1878 C 0.50883 0.70083 0.98199 0.0
C1879 C 0.5185 0.71174 0.95725 0.0
C1880 C 0.50658 0.67257 0.98487 0.0
C1881 C 0.52569 0.69392 0.93546 0.0
C1882 C 0.52343 0.66598 0.93816 0.0
C1883 C 0.51202 0.62707 0.96548 0.0
C1884 C 0.5029 0.61585 0.99016 0.0
C1885 C 0.51397 0.65513 0.96273 0.0
C1886 C 0.49544 0.63321 0.01212 0.0
C1887 C 0.49722 0.66135 0.00948 0.0
H1888 H 0.11734 0.75968 0.63834 0.0
H1889 H 0.06823 0.75143 0.70932 0.0
H1890 H 0.10892 0.7522 0.7421 0.0
H1891 H 0.15882 0.75778 0.75082 0.0
H1892 H 0.20713 0.76689 0.67929 0.0
H1893 H 0.16622 0.76289 0.64647 0.0
C1894 C 0.1154 0.75804 0.66098 0.0
C1895 C 0.08973 0.75579 0.67135 0.0
C1896 C 0.13876 0.75855 0.67961 0.0
C1897 C 0.08773 0.75331 0.70073 0.0
C1898 C 0.11099 0.75374 0.71949 0.0
C1899 C 0.16033 0.75846 0.728 0.0
C1900 C 0.18599 0.76274 0.71753 0.0
C1901 C 0.13666 0.75664 0.7092 0.0
C1902 C 0.18764 0.76377 0.68792 0.0
C1903 C 0.16427 0.76155 0.66913 0.0
H1904 H 0.03181 0.34054 0.47273 0.0
H1905 H 0.04172 0.36818 0.38889 0.0
H1906 H 0.04063 0.41516 0.40801 0.0
H1907 H 0.03588 0.44801 0.44806 0.0
H1908 H 0.02592 0.42075 0.53208 0.0
H1909 H 0.0283 0.37388 0.51334 0.0
C1910 C 0.03375 0.35685 0.45864 0.0
C1911 C 0.03671 0.35087 0.42938 0.0
C1912 C 0.03316 0.38381 0.4698 0.0
C1913 C 0.03936 0.37223 0.41145 0.0
C1914 C 0.03874 0.39909 0.42237 0.0
C1915 C 0.03427 0.43188 0.46237 0.0
C1916 C 0.03057 0.4379 0.49144 0.0
C1917 C 0.03551 0.40506 0.45145 0.0
C1918 C 0.0288 0.41672 0.50965 0.0
C1919 C 0.03006 0.3899 0.49891 0.0
H1920 H 0.44205 0.25239 0.21374 0.0
H1921 H 0.41121 0.22249 0.12659 0.0
H1922 H 0.36495 0.21638 0.13995 0.0
H1923 H 0.33328 0.22097 0.17542 0.0
H1924 H 0.36224 0.25231 0.26267 0.0
H1925 H 0.40923 0.25702 0.25021 0.0
C1926 C 0.42514 0.24414 0.19792 0.0
C1927 C 0.42991 0.23763 0.16928 0.0
C1928 C 0.39834 0.24146 0.20562 0.0
C1929 C 0.40793 0.22752 0.14875 0.0
C1930 C 0.3815 0.22415 0.15633 0.0
C1931 C 0.3498 0.22886 0.19183 0.0
C1932 C 0.34425 0.23629 0.21993 0.0
C1933 C 0.37647 0.23139 0.18455 0.0
C1934 C 0.36597 0.24664 0.2408 0.0
C1935 C 0.39282 0.24913 0.23372 0.0
H1936 H 0.63596 0.5113 0.40469 0.0
H1937 H 0.56663 0.51425 0.34511 0.0
H1938 H 0.53786 0.51487 0.38442 0.0
H1939 H 0.5323 0.51538 0.43633 0.0
H1940 H 0.60233 0.51338 0.49547 0.0
H1941 H 0.6304 0.51122 0.45605 0.0
C1942 C 0.61458 0.51212 0.40032 0.0
C1943 C 0.60359 0.51283 0.37198 0.0
C1944 C 0.59802 0.51245 0.42307 0.0
C1945 C 0.57575 0.51378 0.36674 0.0
C1946 C 0.55918 0.51407 0.38923 0.0
C1947 C 0.55361 0.51418 0.44051 0.0
C1948 C 0.565 0.51447 0.46893 0.0
C1949 C 0.57005 0.51343 0.41757 0.0
C1950 C 0.59283 0.51318 0.47389 0.0
C1951 C 0.60906 0.51203 0.45131 0.0
H1952 H 0.2659 0.87244 0.09257 0.0
H1953 H 0.26392 0.78764 0.06232 0.0
H1954 H 0.27111 0.77619 0.11138 0.0
H1955 H 0.27853 0.79002 0.16292 0.0
H1956 H 0.28001 0.87447 0.1938 0.0
H1957 H 0.27282 0.88625 0.1446 0.0
C1958 C 0.26674 0.85143 0.09675 0.0
C1959 C 0.26441 0.83101 0.07374 0.0
C1960 C 0.27119 0.84491 0.12515 0.0
C1961 C 0.26578 0.80387 0.07957 0.0
C1962 C 0.26998 0.79724 0.10765 0.0
C1963 C 0.27759 0.81106 0.15888 0.0
C1964 C 0.28 0.83134 0.18196 0.0
C1965 C 0.27299 0.81761 0.13059 0.0
C1966 C 0.27832 0.85845 0.17637 0.0
C1967 C 0.27408 0.8652 0.14824 0.0
H1968 H 0.97051 0.55182 0.85673 0.0
H1969 H 0.89397 0.53141 0.89201 0.0
H1970 H 0.91771 0.5252 0.9379 0.0
H1971 H 0.95965 0.5206 0.96584 0.0
H1972 H 0.03653 0.54181 0.93156 0.0
H1973 H 0.01313 0.55263 0.8872 0.0
C1974 C 0.95905 0.5463 0.87458 0.0
C1975 C 0.93051 0.5417 0.87088 0.0
C1976 C 0.97284 0.54269 0.90088 0.0
C1977 C 0.91592 0.53491 0.89425 0.0
C1978 C 0.92948 0.53126 0.92046 0.0
C1979 C 0.97142 0.52827 0.94903 0.0
C1980 C 0.99983 0.53036 0.95208 0.0
C1981 C 0.95787 0.53441 0.92373 0.0
C1982 C 0.01467 0.54004 0.92984 0.0
C1983 C 1.00128 0.5461 0.90441 0.0
H1984 H 0.25534 0.20618 0.57423 0.0
H1985 H 0.29007 0.1323 0.57816 0.0
H1986 H 0.29546 0.13958 0.63047 0.0
H1987 H 0.29071 0.16697 0.67501 0.0
H1988 H 0.2566 0.24113 0.67119 0.0
H1989 H 0.25038 0.23346 0.61881 0.0
C1990 C 0.26415 0.19162 0.58642 0.0
C1991 C 0.27232 0.16869 0.57204 0.0
C1992 C 0.26717 0.19589 0.61655 0.0
C1993 C 0.28362 0.15013 0.58845 0.0
C1994 C 0.28667 0.15425 0.61843 0.0
C1995 C 0.28172 0.18141 0.6628 0.0
C1996 C 0.27403 0.20458 0.67712 0.0
C1997 C 0.2785 0.17704 0.63269 0.0
C1998 C 0.26262 0.22311 0.66081 0.0
C1999 C 0.25914 0.21876 0.63083 0.0
H2000 H 0.57221 0.53247 0.2181 0.0
H2001 H 0.6457 0.49793 0.2156 0.0
H2002 H 0.63877 0.49207 0.16313 0.0
H2003 H 0.61094 0.49533 0.11829 0.0
H2004 H 0.53708 0.52905 0.12159 0.0
H2005 H 0.54534 0.5369 0.17375 0.0
C2006 C 0.58682 0.52361 0.20623 0.0
C2007 C 0.6094 0.51546 0.22092 0.0
C2008 C 0.58269 0.52027 0.17625 0.0
C2009 C 0.62812 0.5043 0.20494 0.0
C2010 C 0.62416 0.50096 0.17494 0.0
C2011 C 0.59676 0.50466 0.13037 0.0
C2012 C 0.57338 0.5116 0.11603 0.0
C2013 C 0.60142 0.50873 0.1604 0.0
C2014 C 0.5552 0.52353 0.13205 0.0
C2015 C 0.55987 0.52794 0.16188 0.0
H2016 H 0.25169 0.80433 0.93843 0.0
H2017 H 0.24279 0.8798 0.90206 0.0
H2018 H 0.24986 0.85918 0.85469 0.0
H2019 H 0.26126 0.82062 0.8246 0.0
H2020 H 0.27064 0.74548 0.86142 0.0
H2021 H 0.26085 0.76524 0.90795 0.0
C2022 C 0.25121 0.81632 0.92016 0.0
C2023 C 0.24691 0.84366 0.9238 0.0
C2024 C 0.25546 0.80441 0.89319 0.0
C2025 C 0.24615 0.85877 0.89984 0.0
C2026 C 0.25022 0.84699 0.8728 0.0
C2027 C 0.26055 0.8083 0.84259 0.0
C2028 C 0.26639 0.78146 0.83939 0.0
C2029 C 0.25518 0.81991 0.86932 0.0
C2030 C 0.26615 0.76612 0.86323 0.0
C2031 C 0.2606 0.77744 0.88984 0.0
H2032 H 0.96934 0.49843 0.72401 0.0
H2033 H 0.89914 0.53656 0.7062 0.0
H2034 H 0.90618 0.53406 0.65522 0.0
H2035 H 0.93314 0.52228 0.6161 0.0
H2036 H 1.00292 0.4836 0.63433 0.0
H2037 H 0.99503 0.48502 0.68492 0.0
C2038 C 0.95556 0.50627 0.70905 0.0
C2039 C 0.93389 0.51791 0.71898 0.0
C2040 C 0.95963 0.50464 0.67987 0.0
C2041 C 0.916 0.52754 0.69915 0.0
C2042 C 0.92005 0.52615 0.67001 0.0
C2043 C 0.94657 0.51405 0.63111 0.0
C2044 C 0.96869 0.50299 0.62145 0.0
C2045 C 0.94191 0.51492 0.66019 0.0
C2046 C 0.98577 0.49225 0.64116 0.0
C2047 C 0.98132 0.49312 0.67011 0.0
H2048 H 0.28434 0.20382 0.43739 0.0
H2049 H 0.25733 0.12495 0.3895 0.0
H2050 H 0.25362 0.14703 0.34503 0.0
H2051 H 0.25736 0.18847 0.31986 0.0
H2052 H 0.2875 0.26745 0.36639 0.0
H2053 H 0.29056 0.24563 0.41131 0.0
C2054 C 0.27754 0.1915 0.41721 0.0
C2055 C 0.27086 0.16273 0.41683 0.0
C2056 C 0.27604 0.20435 0.39151 0.0
C2057 C 0.2625 0.14706 0.39045 0.0
C2058 C 0.26037 0.15969 0.365 0.0
C2059 C 0.26484 0.20103 0.33973 0.0
C2060 C 0.27224 0.22968 0.33959 0.0
C2061 C 0.26704 0.18829 0.36529 0.0
C2062 C 0.28178 0.24542 0.36573 0.0
C2063 C 0.28345 0.23292 0.39145 0.0
H2064 H 0.35059 0.60253 0.49374 0.0
H2065 H 0.33597 0.58649 0.58033 0.0
H2066 H 0.37518 0.56275 0.58399 0.0
H2067 H 0.41604 0.55063 0.56388 0.0
H2068 H 0.42897 0.56397 0.47624 0.0
H2069 H 0.38758 0.58421 0.47127 0.0
C2070 C 0.35588 0.59353 0.51328 0.0
C2071 C 0.3408 0.59654 0.53693 0.0
C2072 C 0.37799 0.57941 0.5149 0.0
C2073 C 0.3474 0.58445 0.56195 0.0
C2074 C 0.36982 0.57098 0.56403 0.0
C2075 C 0.40939 0.55741 0.5435 0.0
C2076 C 0.42547 0.55595 0.52045 0.0
C2077 C 0.38558 0.56885 0.54084 0.0
C2078 C 0.41674 0.56467 0.49413 0.0
C2079 C 0.39326 0.57649 0.49143 0.0
H2080 H 0.89931 0.89815 0.54929 0.0
H2081 H 0.84859 0.95881 0.53454 0.0
H2082 H 0.88896 0.99327 0.53143 0.0
H2083 H 0.93875 0.00487 0.52849 0.0
H2084 H 0.98845 0.94334 0.5438 0.0
H2085 H 0.94864 0.91083 0.55143 0.0
C2086 C 0.89705 0.91902 0.5458 0.0
C2087 C 0.87089 0.92579 0.54195 0.0
C2088 C 0.9203 0.93863 0.54402 0.0
C2089 C 0.86844 0.95302 0.53773 0.0
C2090 C 0.89155 0.97269 0.53572 0.0
C2091 C 0.9409 0.98449 0.53394 0.0
C2092 C 0.96684 0.97677 0.53576 0.0
C2093 C 0.91761 0.96557 0.53817 0.0
C2094 C 0.96906 0.95018 0.5428 0.0
C2095 C 0.94616 0.93138 0.54688 0.0
H2096 H 0.86302 0.09379 0.27544 0.0
H2097 H 0.8104 0.05309 0.20211 0.0
H2098 H 0.78216 0.08888 0.20554 0.0
H2099 H 0.77189 0.13137 0.23004 0.0
H2100 H 0.82345 0.17058 0.30493 0.0
H2101 H 0.85228 0.13563 0.30043 0.0
C2102 C 0.84556 0.09291 0.25997 0.0
C2103 C 0.83906 0.07091 0.23829 0.0
C2104 C 0.82894 0.11313 0.26264 0.0
C2105 C 0.81601 0.06985 0.21885 0.0
C2106 C 0.79977 0.09027 0.22091 0.0
C2107 C 0.78931 0.13221 0.24554 0.0
C2108 C 0.79528 0.15366 0.26793 0.0
C2109 C 0.80588 0.11189 0.24289 0.0
C2110 C 0.8181 0.1543 0.28765 0.0
C2111 C 0.83476 0.13437 0.28499 0.0
H2112 H 0.70473 0.10334 0.04594 0.0
H2113 H 0.68265 0.18076 0.02597 0.0
H2114 H 0.63506 0.16196 0.02678 0.0
H2115 H 0.59941 0.12313 0.02982 0.0
H2116 H 0.62012 0.04493 0.0481 0.0
H2117 H 0.6684 0.06467 0.05204 0.0
C2118 C 0.68953 0.11614 0.04188 0.0
C2119 C 0.69749 0.14343 0.03561 0.0
C2120 C 0.66187 0.10514 0.04226 0.0
C2121 C 0.67736 0.15968 0.03063 0.0
C2122 C 0.65002 0.14897 0.03116 0.0
C2123 C 0.61443 0.11042 0.03509 0.0
C2124 C 0.6061 0.08255 0.03851 0.0
C2125 C 0.64203 0.12167 0.03653 0.0
C2126 C 0.62591 0.06649 0.04549 0.0
C2127 C 0.65355 0.07771 0.04746 0.0
H2128 H 0.21699 0.45424 0.28107 0.0
H2129 H 0.16238 0.42174 0.20623 0.0
H2130 H 0.18142 0.37934 0.20417 0.0
H2131 H 0.20936 0.34988 0.22692 0.0
H2132 H 0.26178 0.38015 0.3041 0.0
H2133 H 0.24834 0.42539 0.30183 0.0
C2134 C 0.20989 0.43806 0.26395 0.0
C2135 C 0.18866 0.44095 0.24356 0.0
C2136 C 0.2203 0.41338 0.2636 0.0
C2137 C 0.17897 0.41985 0.22183 0.0
C2138 C 0.18972 0.39564 0.2208 0.0
C2139 C 0.21809 0.36642 0.24317 0.0
C2140 C 0.2362 0.36157 0.26595 0.0
C2141 C 0.20974 0.39189 0.24209 0.0
C2142 C 0.24772 0.38335 0.28645 0.0
C2143 C 0.23991 0.40914 0.28521 0.0
H2144 H 0.21941 0.45544 0.03788 0.0
H2145 H 0.18217 0.37644 0.05995 0.0
H2146 H 0.13782 0.39072 0.05673 0.0
H2147 H 0.1092 0.42398 0.04416 0.0
H2148 H 0.14482 0.50209 0.01831 0.0
H2149 H 0.19013 0.48992 0.02639 0.0
C2150 C 0.20161 0.44165 0.04254 0.0
C2151 C 0.20405 0.41499 0.04944 0.0
C2152 C 0.17585 0.44969 0.03951 0.0
C2153 C 0.18078 0.39706 0.05476 0.0
C2154 C 0.15541 0.40518 0.05278 0.0
C2155 C 0.12682 0.43853 0.04041 0.0
C2156 C 0.12348 0.46392 0.03049 0.0
C2157 C 0.15262 0.43119 0.04458 0.0
C2158 C 0.1467 0.48237 0.0258 0.0
C2159 C 0.17264 0.4754 0.03046 0.0
H2160 H 0.88354 0.89741 0.2534 0.0
H2161 H 0.81524 0.9383 0.23624 0.0
H2162 H 0.78414 0.89527 0.23901 0.0
H2163 H 0.77645 0.84622 0.24973 0.0
H2164 H 0.84617 0.80728 0.26754 0.0
H2165 H 0.87627 0.84919 0.26113 0.0
C2166 C 0.86185 0.89704 0.25003 0.0
C2167 C 0.85188 0.92129 0.2448 0.0
C2168 C 0.84417 0.87243 0.25202 0.0
C2169 C 0.82362 0.92005 0.24025 0.0
C2170 C 0.80578 0.89542 0.242 0.0
C2171 C 0.79821 0.84689 0.25192 0.0
C2172 C 0.80888 0.8235 0.25943 0.0
C2173 C 0.81581 0.87149 0.24838 0.0
C2174 C 0.83721 0.82487 0.26215 0.0
C2175 C 0.85458 0.8489 0.25843 0.0
H2176 H 0.69559 0.06986 0.76765 0.0
H2177 H 0.62783 0.10733 0.73835 0.0
H2178 H 0.658 0.15076 0.73694 0.0
H2179 H 0.70223 0.17951 0.75023 0.0
H2180 H 0.76959 0.14324 0.78301 0.0
H2181 H 0.74119 0.09793 0.7762 0.0
C2182 C 0.68754 0.08739 0.76041 0.0
C2183 C 0.65945 0.08543 0.75347 0.0
C2184 C 0.70493 0.11262 0.76042 0.0
C2185 C 0.64932 0.10838 0.74421 0.0
C2186 C 0.66656 0.13324 0.74336 0.0
C2187 C 0.71093 0.16164 0.75525 0.0
C2188 C 0.73793 0.16483 0.7674 0.0
C2189 C 0.69423 0.13584 0.75234 0.0
C2190 C 0.7488 0.1414 0.77381 0.0
C2191 C 0.73252 0.11548 0.77008 0.0
loop_
_geom_bond_atom_site_label_1
_geom_bond_atom_site_label_2
_geom_bond_distance
_geom_bond_site_symmetry_2
_ccdc_geom_bond_type
Co0 O1 2.216 . S
Co0 O2 2.091 . S
Co0 O4 2.004 1_455 S
Co0 O10 2.021 . S
Co0 O12 2.137 . S
Co0 O13 2.244 . S
O1 Co0 2.216 . S
O1 C8 1.247 . S
O2 Co0 2.091 . S
O2 C8 1.261 . S
C3 O12 1.247 . S
C3 O13 1.272 . S
O4 Co0 2.004 1_655 S
O4 C9 1.259 . S
Co5 O6 2.061 . S
Co5 O11 2.052 1_655 S
Co5 O13 2.135 1_655 S
O6 Co5 2.061 . S
O6 C9 1.235 . S
C7 O10 1.238 . S
C7 O11 1.241 . S
C8 O1 1.247 . S
C8 O2 1.261 . S
C9 O4 1.259 . S
C9 O6 1.235 . S
O10 Co0 2.021 . S
O10 C7 1.238 . S
O11 Co5 2.052 1_455 S
O11 C7 1.241 . S
O12 Co0 2.137 . S
O12 C3 1.247 . S
O13 Co0 2.244 . S
O13 C3 1.272 . S
O13 Co5 2.135 1_455 S
Co14 O15 2.216 1_455 S
Co14 O16 2.091 1_455 S
Co14 O18 2.004 . S
Co14 O24 2.021 . S
Co14 O26 2.137 . S
Co14 O27 2.244 . S
O15 Co14 2.216 1_655 S
O15 C22 1.247 . S
O16 Co14 2.091 1_655 S
O16 C22 1.261 . S
C17 O26 1.247 . S
C17 O27 1.272 . S
O18 Co14 2.004 . S
O18 C23 1.259 . S
Co19 O20 2.061 . S
Co19 O25 2.052 . S
Co19 O27 2.135 . S
O20 Co19 2.061 . S
O20 C23 1.235 . S
C21 O24 1.238 . S
C21 O25 1.241 . S
C22 O15 1.247 . S
C22 O16 1.261 . S
C23 O18 1.259 . S
C23 O20 1.235 . S
O24 Co14 2.021 . S
O24 C21 1.238 . S
O25 Co19 2.052 . S
O25 C21 1.241 . S
O26 Co14 2.137 . S
O26 C17 1.247 . S
O27 Co14 2.244 . S
O27 C17 1.272 . S
O27 Co19 2.135 . S
Co28 O29 2.216 . S
Co28 O30 2.091 . S
Co28 O32 2.004 . S
Co28 O38 2.021 . S
Co28 O40 2.137 . S
Co28 O41 2.244 . S
O29 Co28 2.216 . S
O29 C36 1.247 . S
O30 Co28 2.091 . S
O30 C36 1.261 . S
C31 O40 1.247 . S
C31 O41 1.272 . S
O32 Co28 2.004 . S
O32 C37 1.259 . S
Co33 O34 2.061 . S
Co33 O39 2.052 . S
Co33 O41 2.135 . S
O34 Co33 2.061 . S
O34 C37 1.235 . S
C35 O38 1.238 . S
C35 O39 1.241 . S
C36 O29 1.247 . S
C36 O30 1.261 . S
C37 O32 1.259 . S
C37 O34 1.235 . S
O38 Co28 2.021 . S
O38 C35 1.238 . S
O39 Co33 2.052 . S
O39 C35 1.241 . S
O40 Co28 2.137 . S
O40 C31 1.247 . S
O41 Co28 2.244 . S
O41 C31 1.272 . S
O41 Co33 2.135 . S
Co42 O43 2.216 . S
Co42 O44 2.091 . S
Co42 O46 2.004 . S
Co42 O52 2.021 . S
Co42 O54 2.137 . S
Co42 O55 2.244 . S
O43 Co42 2.216 . S
O43 C50 1.247 . S
O44 Co42 2.091 . S
O44 C50 1.261 . S
C45 O54 1.247 . S
C45 O55 1.272 . S
O46 Co42 2.004 . S
O46 C51 1.259 . S
Co47 O48 2.061 . S
Co47 O53 2.052 . S
Co47 O55 2.135 . S
O48 Co47 2.061 . S
O48 C51 1.235 . S
C49 O52 1.238 . S
C49 O53 1.241 . S
C50 O43 1.247 . S
C50 O44 1.261 . S
C51 O46 1.259 . S
C51 O48 1.235 . S
O52 Co42 2.021 . S
O52 C49 1.238 . S
O53 Co47 2.052 . S
O53 C49 1.241 . S
O54 Co42 2.137 . S
O54 C45 1.247 . S
O55 Co42 2.244 . S
O55 C45 1.272 . S
O55 Co47 2.135 . S
Co56 O57 2.216 1_455 S
Co56 O58 2.091 . S
Co56 O60 2.004 . S
Co56 O66 2.021 . S
Co56 O68 2.137 . S
Co56 O69 2.244 . S
O57 Co56 2.216 1_655 S
O57 C64 1.247 . S
O58 Co56 2.091 . S
O58 C64 1.261 1_455 S
C59 O68 1.247 . S
C59 O69 1.272 . S
O60 Co56 2.004 . S
O60 C65 1.259 . S
Co61 O62 2.061 . S
Co61 O67 2.052 . S
Co61 O69 2.135 . S
O62 Co61 2.061 . S
O62 C65 1.235 . S
C63 O66 1.238 . S
C63 O67 1.241 . S
C64 O57 1.247 . S
C64 O58 1.261 1_655 S
C65 O60 1.259 . S
C65 O62 1.235 . S
O66 Co56 2.021 . S
O66 C63 1.238 . S
O67 Co61 2.052 . S
O67 C63 1.241 . S
O68 Co56 2.137 . S
O68 C59 1.247 . S
O69 Co56 2.244 . S
O69 C59 1.272 . S
O69 Co61 2.135 . S
Co70 O71 2.216 . S
Co70 O72 2.091 . S
Co70 O74 2.004 . S
Co70 O80 2.021 . S
Co70 O82 2.137 . S
Co70 O83 2.244 . S
O71 Co70 2.216 . S
O71 C78 1.247 . S
O72 Co70 2.091 . S
O72 C78 1.261 . S
C73 O82 1.247 . S
C73 O83 1.272 . S
O74 Co70 2.004 . S
O74 C79 1.259 . S
Co75 O76 2.061 . S
Co75 O81 2.052 . S
Co75 O83 2.135 . S
O76 Co75 2.061 . S
O76 C79 1.235 . S
C77 O80 1.238 . S
C77 O81 1.241 . S
C78 O71 1.247 . S
C78 O72 1.261 . S
C79 O74 1.259 . S
C79 O76 1.235 . S
O80 Co70 2.021 . S
O80 C77 1.238 . S
O81 Co75 2.052 . S
O81 C77 1.241 . S
O82 Co70 2.137 . S
O82 C73 1.247 . S
O83 Co70 2.244 . S
O83 C73 1.272 . S
O83 Co75 2.135 . S
Co84 O85 2.216 . S
Co84 O86 2.091 . S
Co84 O88 2.004 . S
Co84 O94 2.021 . S
Co84 O96 2.137 . S
Co84 O97 2.244 . S
O85 Co84 2.216 . S
O85 C92 1.247 . S
O86 Co84 2.091 . S
O86 C92 1.261 . S
C87 O96 1.247 . S
C87 O97 1.272 . S
O88 Co84 2.004 . S
O88 C93 1.259 . S
Co89 O90 2.061 . S
Co89 O95 2.052 . S
Co89 O97 2.135 . S
O90 Co89 2.061 . S
O90 C93 1.235 . S
C91 O94 1.238 . S
C91 O95 1.241 . S
C92 O85 1.247 . S
C92 O86 1.261 . S
C93 O88 1.259 . S
C93 O90 1.235 . S
O94 Co84 2.021 . S
O94 C91 1.238 . S
O95 Co89 2.052 . S
O95 C91 1.241 . S
O96 Co84 2.137 . S
O96 C87 1.247 . S
O97 Co84 2.244 . S
O97 C87 1.272 . S
O97 Co89 2.135 . S
Co98 O99 2.216 . S
Co98 O100 2.091 . S
Co98 O102 2.004 1_455 S
Co98 O108 2.021 . S
Co98 O110 2.137 . S
Co98 O111 2.244 1_455 S
O99 Co98 2.216 . S
O99 C106 1.247 . S
O100 Co98 2.091 . S
O100 C106 1.261 . S
C101 O110 1.247 . S
C101 O111 1.272 1_455 S
O102 Co98 2.004 1_655 S
O102 C107 1.259 . S
Co103 O104 2.061 . S
Co103 O109 2.052 . S
Co103 O111 2.135 . S
O104 Co103 2.061 . S
O104 C107 1.235 . S
C105 O108 1.236 1_655 S
C105 O109 1.241 . S
C106 O99 1.247 . S
C106 O100 1.261 . S
C107 O102 1.259 . S
C107 O104 1.235 . S
O108 Co98 2.021 . S
O108 C105 1.236 1_455 S
O109 Co103 2.052 . S
O109 C105 1.241 . S
O110 Co98 2.137 . S
O110 C101 1.247 . S
O111 Co98 2.244 1_655 S
O111 C101 1.272 1_655 S
O111 Co103 2.135 . S
Co112 O113 2.216 . S
Co112 O114 2.091 . S
Co112 O116 2.004 1_545 S
Co112 O122 2.021 . S
Co112 O124 2.137 . S
Co112 O125 2.244 . S
O113 Co112 2.216 . S
O113 C120 1.247 . S
O114 Co112 2.091 . S
O114 C120 1.261 . S
C115 O124 1.247 . S
C115 O125 1.272 . S
O116 Co112 2.004 1_565 S
O116 C121 1.259 . S
Co117 O118 2.061 . S
Co117 O123 2.052 1_565 S
Co117 O125 2.135 1_565 S
O118 Co117 2.061 . S
O118 C121 1.235 . S
C119 O122 1.238 . S
C119 O123 1.241 . S
C120 O113 1.247 . S
C120 O114 1.261 . S
C121 O116 1.259 . S
C121 O118 1.235 . S
O122 Co112 2.021 . S
O122 C119 1.238 . S
O123 Co117 2.052 1_545 S
O123 C119 1.241 . S
O124 Co112 2.137 . S
O124 C115 1.247 . S
O125 Co112 2.244 . S
O125 C115 1.272 . S
O125 Co117 2.135 1_545 S
Co126 O127 2.216 . S
Co126 O128 2.091 . S
Co126 O130 2.004 . S
Co126 O136 2.021 . S
Co126 O138 2.137 . S
Co126 O139 2.244 . S
O127 Co126 2.216 . S
O127 C134 1.247 . S
O128 Co126 2.091 . S
O128 C134 1.261 . S
C129 O138 1.247 . S
C129 O139 1.272 . S
O130 Co126 2.004 . S
O130 C135 1.259 . S
Co131 O132 2.061 . S
Co131 O137 2.052 . S
Co131 O139 2.135 . S
O132 Co131 2.061 . S
O132 C135 1.235 . S
C133 O136 1.238 . S
C133 O137 1.241 . S
C134 O127 1.247 . S
C134 O128 1.261 . S
C135 O130 1.259 . S
C135 O132 1.235 . S
O136 Co126 2.021 . S
O136 C133 1.238 . S
O137 Co131 2.052 . S
O137 C133 1.241 . S
O138 Co126 2.137 . S
O138 C129 1.247 . S
O139 Co126 2.244 . S
O139 C129 1.272 . S
O139 Co131 2.135 . S
Co140 O141 2.216 1_545 S
Co140 O142 2.091 1_545 S
Co140 O144 2.004 . S
Co140 O150 2.021 . S
Co140 O152 2.137 . S
Co140 O153 2.244 . S
O141 Co140 2.216 1_565 S
O141 C148 1.247 . S
O142 Co140 2.091 1_565 S
O142 C148 1.261 . S
C143 O152 1.247 . S
C143 O153 1.272 . S
O144 Co140 2.004 . S
O144 C149 1.259 . S
Co145 O146 2.061 . S
Co145 O151 2.052 . S
Co145 O153 2.135 . S
O146 Co145 2.061 . S
O146 C149 1.235 . S
C147 O150 1.238 . S
C147 O151 1.241 . S
C148 O141 1.247 . S
C148 O142 1.261 . S
C149 O144 1.259 . S
C149 O146 1.235 . S
O150 Co140 2.021 . S
O150 C147 1.238 . S
O151 Co145 2.052 . S
O151 C147 1.241 . S
O152 Co140 2.137 . S
O152 C143 1.247 . S
O153 Co140 2.244 . S
O153 C143 1.272 . S
O153 Co145 2.135 . S
Co154 O155 2.216 . S
Co154 O156 2.091 . S
Co154 O158 2.004 . S
Co154 O164 2.021 . S
Co154 O166 2.137 1_554 S
Co154 O167 2.244 1_554 S
O155 Co154 2.216 . S
O155 C162 1.247 . S
O156 Co154 2.091 . S
O156 C162 1.261 . S
C157 O166 1.247 . S
C157 O167 1.272 . S
O158 Co154 2.004 . S
O158 C163 1.259 . S
Co159 O160 2.061 . S
Co159 O165 2.052 . S
Co159 O167 2.135 1_554 S
O160 Co159 2.061 . S
O160 C163 1.235 . S
C161 O164 1.238 . S
C161 O165 1.241 . S
C162 O155 1.247 . S
C162 O156 1.261 . S
C163 O158 1.259 . S
C163 O160 1.235 . S
O164 Co154 2.021 . S
O164 C161 1.238 . S
O165 Co159 2.052 . S
O165 C161 1.241 . S
O166 Co154 2.137 1_556 S
O166 C157 1.247 . S
O167 Co154 2.244 1_556 S
O167 C157 1.272 . S
O167 Co159 2.135 1_556 S
Co168 O169 2.216 . S
Co168 O170 2.091 . S
Co168 O172 2.004 . S
Co168 O178 2.021 . S
Co168 O180 2.143 . S
Co168 O181 2.244 . S
O169 Co168 2.216 . S
O169 C176 1.247 . S
O170 Co168 2.091 . S
O170 C176 1.261 . S
C171 O180 1.247 1_556 S
C171 O181 1.271 1_556 S
O172 Co168 2.004 . S
O172 C177 1.259 . S
Co173 O174 2.061 . S
Co173 O179 2.052 . S
Co173 O181 2.135 . S
O174 Co173 2.061 . S
O174 C177 1.235 . S
C175 O178 1.238 . S
C175 O179 1.241 . S
C176 O169 1.247 . S
C176 O170 1.261 . S
C177 O172 1.259 . S
C177 O174 1.235 . S
O178 Co168 2.021 . S
O178 C175 1.238 . S
O179 Co173 2.052 . S
O179 C175 1.241 . S
O180 Co168 2.143 . S
O180 C171 1.247 1_554 S
O181 Co168 2.244 . S
O181 C171 1.271 1_554 S
O181 Co173 2.135 . S
Co182 O183 2.216 . S
Co182 O184 2.091 . S
Co182 O186 2.004 . S
Co182 O192 2.021 . S
Co182 O194 2.137 1_554 S
Co182 O195 2.244 . S
O183 Co182 2.216 . S
O183 C190 1.247 . S
O184 Co182 2.091 . S
O184 C190 1.261 . S
C185 O194 1.247 . S
C185 O195 1.272 1_556 S
O186 Co182 2.004 . S
O186 C191 1.259 . S
Co187 O188 2.061 . S
Co187 O193 2.052 . S
Co187 O195 2.135 . S
O188 Co187 2.061 . S
O188 C191 1.235 . S
C189 O192 1.238 . S
C189 O193 1.241 . S
C190 O183 1.247 . S
C190 O184 1.261 . S
C191 O186 1.259 . S
C191 O188 1.235 . S
O192 Co182 2.021 . S
O192 C189 1.238 . S
O193 Co187 2.052 . S
O193 C189 1.241 . S
O194 Co182 2.137 1_556 S
O194 C185 1.247 . S
O195 Co182 2.244 . S
O195 C185 1.272 1_554 S
O195 Co187 2.135 . S
Co196 O197 2.216 . S
Co196 O198 2.091 . S
Co196 O200 2.004 . S
Co196 O206 2.021 . S
Co196 O208 2.137 . S
Co196 O209 2.244 . S
O197 Co196 2.216 . S
O197 C204 1.247 . S
O198 Co196 2.091 . S
O198 C204 1.261 . S
C199 O208 1.247 . S
C199 O209 1.272 . S
O200 Co196 2.004 . S
O200 C205 1.259 . S
Co201 O202 2.061 . S
Co201 O207 2.052 . S
Co201 O209 2.135 . S
O202 Co201 2.061 . S
O202 C205 1.235 . S
C203 O206 1.238 . S
C203 O207 1.241 . S
C204 O197 1.247 . S
C204 O198 1.261 . S
C205 O200 1.259 . S
C205 O202 1.235 . S
O206 Co196 2.021 . S
O206 C203 1.238 . S
O207 Co201 2.052 . S
O207 C203 1.241 . S
O208 Co196 2.137 . S
O208 C199 1.247 . S
O209 Co196 2.244 . S
O209 C199 1.272 . S
O209 Co201 2.135 . S
Co210 O211 2.216 . S
Co210 O212 2.091 . S
Co210 O214 2.004 . S
Co210 O220 2.021 . S
Co210 O222 2.137 . S
Co210 O223 2.244 . S
O211 Co210 2.216 . S
O211 C218 1.247 . S
O212 Co210 2.091 . S
O212 C218 1.261 . S
C213 O222 1.247 . S
C213 O223 1.272 . S
O214 Co210 2.004 . S
O214 C219 1.259 . S
Co215 O216 2.061 . S
Co215 O221 2.052 . S
Co215 O223 2.135 . S
O216 Co215 2.061 . S
O216 C219 1.235 . S
C217 O220 1.238 . S
C217 O221 1.241 . S
C218 O211 1.247 . S
C218 O212 1.261 . S
C219 O214 1.259 . S
C219 O216 1.235 . S
O220 Co210 2.021 . S
O220 C217 1.238 . S
O221 Co215 2.052 . S
O221 C217 1.241 . S
O222 Co210 2.137 . S
O222 C213 1.247 . S
O223 Co210 2.244 . S
O223 C213 1.272 . S
O223 Co215 2.135 . S
Co224 O225 2.216 . S
Co224 O226 2.091 . S
Co224 O228 2.004 1_545 S
Co224 O234 2.021 . S
Co224 O236 2.137 . S
Co224 O237 2.244 . S
O225 Co224 2.216 . S
O225 C232 1.247 . S
O226 Co224 2.091 . S
O226 C232 1.261 . S
C227 O236 1.247 . S
C227 O237 1.272 . S
O228 Co224 2.004 1_565 S
O228 C233 1.259 . S
Co229 O230 2.061 . S
Co229 O235 2.052 . S
Co229 O237 2.135 1_565 S
O230 Co229 2.061 . S
O230 C233 1.235 . S
C231 O234 1.238 . S
C231 O235 1.241 1_545 S
C232 O225 1.247 . S
C232 O226 1.261 . S
C233 O228 1.259 . S
C233 O230 1.235 . S
O234 Co224 2.021 . S
O234 C231 1.238 . S
O235 Co229 2.052 . S
O235 C231 1.241 1_565 S
O236 Co224 2.137 . S
O236 C227 1.247 . S
O237 Co224 2.244 . S
O237 C227 1.272 . S
O237 Co229 2.135 1_545 S
Co238 O239 2.216 . S
Co238 O240 2.091 . S
Co238 O242 2.004 . S
Co238 O248 2.021 . S
Co238 O250 2.137 . S
Co238 O251 2.244 . S
O239 Co238 2.216 . S
O239 C246 1.247 . S
O240 Co238 2.091 . S
O240 C246 1.261 . S
C241 O250 1.247 . S
C241 O251 1.272 . S
O242 Co238 2.004 . S
O242 C247 1.259 . S
Co243 O244 2.061 . S
Co243 O249 2.052 . S
Co243 O251 2.135 . S
O244 Co243 2.061 . S
O244 C247 1.235 . S
C245 O248 1.238 . S
C245 O249 1.241 . S
C246 O239 1.247 . S
C246 O240 1.261 . S
C247 O242 1.259 . S
C247 O244 1.235 . S
O248 Co238 2.021 . S
O248 C245 1.238 . S
O249 Co243 2.052 . S
O249 C245 1.241 . S
O250 Co238 2.137 . S
O250 C241 1.247 . S
O251 Co238 2.244 . S
O251 C241 1.272 . S
O251 Co243 2.135 . S
Co252 O253 2.216 . S
Co252 O254 2.091 . S
Co252 O256 2.004 . S
Co252 O262 2.021 . S
Co252 O264 2.137 . S
Co252 O265 2.244 . S
O253 Co252 2.216 . S
O253 C260 1.247 . S
O254 Co252 2.091 . S
O254 C260 1.261 . S
C255 O264 1.247 . S
C255 O265 1.272 . S
O256 Co252 2.004 . S
O256 C261 1.259 . S
Co257 O258 2.061 . S
Co257 O263 2.052 . S
Co257 O265 2.135 . S
O258 Co257 2.061 . S
O258 C261 1.235 . S
C259 O262 1.238 . S
C259 O263 1.241 . S
C260 O253 1.247 . S
C260 O254 1.261 . S
C261 O256 1.259 . S
C261 O258 1.235 . S
O262 Co252 2.021 . S
O262 C259 1.238 . S
O263 Co257 2.052 . S
O263 C259 1.241 . S
O264 Co252 2.137 . S
O264 C255 1.247 . S
O265 Co252 2.244 . S
O265 C255 1.272 . S
O265 Co257 2.135 . S
Co266 O267 2.216 . S
Co266 O268 2.091 . S
Co266 O270 2.004 1_565 S
Co266 O276 2.021 . S
Co266 O278 2.137 . S
Co266 O279 2.244 1_565 S
O267 Co266 2.216 . S
O267 C274 1.247 . S
O268 Co266 2.091 . S
O268 C274 1.261 . S
C269 O278 1.234 1_545 S
C269 O279 1.283 . S
O270 Co266 2.004 1_545 S
O270 C275 1.259 . S
Co271 O272 2.061 . S
Co271 O277 2.052 . S
Co271 O279 2.135 . S
O272 Co271 2.061 . S
O272 C275 1.235 . S
C273 O276 1.241 . S
C273 O277 1.236 1_565 S
C274 O267 1.247 . S
C274 O268 1.261 . S
C275 O270 1.259 . S
C275 O272 1.235 . S
O276 Co266 2.021 . S
O276 C273 1.241 . S
O277 Co271 2.052 . S
O277 C273 1.236 1_545 S
O278 Co266 2.137 . S
O278 C269 1.234 1_565 S
O279 Co266 2.244 1_545 S
O279 C269 1.283 . S
O279 Co271 2.135 . S
Co280 O281 2.216 . S
Co280 O282 2.094 . S
Co280 O284 2.004 . S
Co280 O290 2.021 1_556 S
Co280 O292 2.137 . S
Co280 O293 2.244 . S
O281 Co280 2.216 . S
O281 C288 1.247 1_556 S
O282 Co280 2.094 . S
O282 C288 1.263 1_556 S
C283 O292 1.247 . S
C283 O293 1.272 . S
O284 Co280 2.004 . S
O284 C289 1.259 . S
Co285 O286 2.066 1_554 S
Co285 O291 2.062 . S
Co285 O293 2.128 1_554 S
O286 Co285 2.066 1_556 S
O286 C289 1.238 . S
C287 O290 1.238 . S
C287 O291 1.241 . S
C288 O281 1.247 1_554 S
C288 O282 1.263 1_554 S
C289 O284 1.259 . S
C289 O286 1.238 . S
O290 Co280 2.021 1_554 S
O290 C287 1.238 . S
O291 Co285 2.062 . S
O291 C287 1.241 . S
O292 Co280 2.137 . S
O292 C283 1.247 . S
O293 Co280 2.244 . S
O293 C283 1.272 . S
O293 Co285 2.128 1_556 S
Co294 O295 2.216 . S
Co294 O296 2.091 . S
Co294 O298 2.004 . S
Co294 O304 2.021 . S
Co294 O306 2.137 . S
Co294 O307 2.244 . S
O295 Co294 2.216 . S
O295 C302 1.247 . S
O296 Co294 2.091 . S
O296 C302 1.261 . S
C297 O306 1.247 . S
C297 O307 1.272 . S
O298 Co294 2.004 . S
O298 C303 1.259 . S
Co299 O300 2.061 . S
Co299 O305 2.052 . S
Co299 O307 2.135 . S
O300 Co299 2.061 . S
O300 C303 1.235 . S
C301 O304 1.238 . S
C301 O305 1.241 . S
C302 O295 1.247 . S
C302 O296 1.261 . S
C303 O298 1.259 . S
C303 O300 1.235 . S
O304 Co294 2.021 . S
O304 C301 1.238 . S
O305 Co299 2.052 . S
O305 C301 1.241 . S
O306 Co294 2.137 . S
O306 C297 1.247 . S
O307 Co294 2.244 . S
O307 C297 1.272 . S
O307 Co299 2.135 . S
Co308 O309 2.216 . S
Co308 O310 2.091 . S
Co308 O312 2.004 . S
Co308 O318 2.021 . S
Co308 O320 2.137 . S
Co308 O321 2.244 . S
O309 Co308 2.216 . S
O309 C316 1.247 . S
O310 Co308 2.091 . S
O310 C316 1.261 . S
C311 O320 1.247 . S
C311 O321 1.272 . S
O312 Co308 2.004 . S
O312 C317 1.259 . S
Co313 O314 2.061 . S
Co313 O319 2.052 . S
Co313 O321 2.135 . S
O314 Co313 2.061 . S
O314 C317 1.235 . S
C315 O318 1.238 . S
C315 O319 1.241 . S
C316 O309 1.247 . S
C316 O310 1.261 . S
C317 O312 1.259 . S
C317 O314 1.235 . S
O318 Co308 2.021 . S
O318 C315 1.238 . S
O319 Co313 2.052 . S
O319 C315 1.241 . S
O320 Co308 2.137 . S
O320 C311 1.247 . S
O321 Co308 2.244 . S
O321 C311 1.272 . S
O321 Co313 2.135 . S
Co322 O323 2.216 . S
Co322 O324 2.091 . S
Co322 O326 2.004 . S
Co322 O332 2.021 . S
Co322 O334 2.137 . S
Co322 O335 2.244 . S
O323 Co322 2.216 . S
O323 C330 1.247 . S
O324 Co322 2.091 . S
O324 C330 1.261 . S
C325 O334 1.247 . S
C325 O335 1.272 . S
O326 Co322 2.004 . S
O326 C331 1.259 . S
Co327 O328 2.061 . S
Co327 O333 2.052 . S
Co327 O335 2.135 . S
O328 Co327 2.061 . S
O328 C331 1.235 . S
C329 O332 1.238 . S
C329 O333 1.241 . S
C330 O323 1.247 . S
C330 O324 1.261 . S
C331 O326 1.259 . S
C331 O328 1.235 . S
O332 Co322 2.021 . S
O332 C329 1.238 . S
O333 Co327 2.052 . S
O333 C329 1.241 . S
O334 Co322 2.137 . S
O334 C325 1.247 . S
O335 Co322 2.244 . S
O335 C325 1.272 . S
O335 Co327 2.135 . S
Zn336 O342 1.969 . S
Zn336 O343 1.965 1_565 S
Zn336 O347 2.024 . S
Zn336 O352 1.969 1_565 S
Zn337 O344 1.969 1_654 S
Zn337 O350 1.969 1_554 S
Zn337 O351 1.965 . S
Zn337 O353 2.024 1_655 S
C338 O339 1.229 . S
C338 O347 1.058 . S
O339 C338 1.229 . S
C340 O341 1.229 1_454 S
C340 O353 1.058 . S
O341 C340 1.229 1_656 S
O342 Zn336 1.969 . S
O342 C345 1.267 . S
O343 Zn336 1.965 1_545 S
O343 C354 1.260 1_554 S
O344 Zn337 1.969 1_456 S
O344 C354 1.258 . S
C345 O342 1.267 . S
C345 O346 1.228 . S
O346 C345 1.228 . S
O347 Zn336 2.024 . S
O347 C338 1.058 . S
C348 O349 1.228 . S
C348 O350 1.267 1_554 S
O349 C348 1.228 . S
O350 Zn337 1.969 1_556 S
O350 C348 1.267 1_556 S
O351 Zn337 1.965 . S
O351 C355 1.260 1_655 S
O352 Zn336 1.969 1_545 S
O352 C355 1.258 . S
O353 Zn337 2.024 1_455 S
O353 C340 1.058 . S
C354 O343 1.260 1_556 S
C354 O344 1.258 . S
C355 O351 1.260 1_455 S
C355 O352 1.258 . S
Zn356 O362 1.969 . S
Zn356 O363 1.965 . S
Zn356 O367 2.024 . S
Zn356 O372 1.969 . S
Zn357 O364 1.969 . S
Zn357 O370 1.969 . S
Zn357 O371 1.965 . S
Zn357 O373 2.024 . S
C358 O359 1.229 . S
C358 O367 1.058 . S
O359 C358 1.229 . S
C360 O361 1.229 . S
C360 O373 1.058 . S
O361 C360 1.229 . S
O362 Zn356 1.969 . S
O362 C365 1.267 . S
O363 Zn356 1.965 . S
O363 C374 1.260 . S
O364 Zn357 1.969 . S
O364 C374 1.258 . S
C365 O362 1.267 . S
C365 O366 1.228 . S
O366 C365 1.228 . S
O367 Zn356 2.024 . S
O367 C358 1.058 . S
C368 O369 1.228 . S
C368 O370 1.267 . S
O369 C368 1.228 . S
O370 Zn357 1.969 . S
O370 C368 1.267 . S
O371 Zn357 1.965 . S
O371 C375 1.260 . S
O372 Zn356 1.969 . S
O372 C375 1.258 . S
O373 Zn357 2.024 . S
O373 C360 1.058 . S
C374 O363 1.260 . S
C374 O364 1.258 . S
C375 O371 1.260 . S
C375 O372 1.258 . S
Zn376 O382 1.969 . S
Zn376 O383 1.965 . S
Zn376 O387 2.024 . S
Zn376 O392 1.969 . S
Zn377 O384 1.969 . S
Zn377 O390 1.969 . S
Zn377 O391 1.965 1_565 S
Zn377 O393 2.024 . S
C378 O379 1.229 . S
C378 O387 1.058 . S
O379 C378 1.229 . S
C380 O381 1.229 . S
C380 O393 1.058 . S
O381 C380 1.229 . S
O382 Zn376 1.969 . S
O382 C385 1.267 . S
O383 Zn376 1.965 . S
O383 C394 1.260 . S
O384 Zn377 1.969 . S
O384 C394 1.258 1_565 S
C385 O382 1.267 . S
C385 O386 1.228 . S
O386 C385 1.228 . S
O387 Zn376 2.024 . S
O387 C378 1.058 . S
C388 O389 1.228 . S
C388 O390 1.267 . S
O389 C388 1.228 . S
O390 Zn377 1.969 . S
O390 C388 1.267 . S
O391 Zn377 1.965 1_545 S
O391 C395 1.260 . S
O392 Zn376 1.969 . S
O392 C395 1.258 . S
O393 Zn377 2.024 . S
O393 C380 1.058 . S
C394 O383 1.260 . S
C394 O384 1.258 1_545 S
C395 O391 1.260 . S
C395 O392 1.258 . S
Zn396 O402 1.969 . S
Zn396 O403 1.965 . S
Zn396 O407 2.024 . S
Zn396 O412 1.969 . S
Zn397 O404 1.969 . S
Zn397 O410 1.969 . S
Zn397 O411 1.965 . S
Zn397 O413 2.024 . S
C398 O399 1.229 . S
C398 O407 1.058 . S
O399 C398 1.229 . S
C400 O401 1.229 . S
C400 O413 1.058 . S
O401 C400 1.229 . S
O402 Zn396 1.969 . S
O402 C405 1.267 . S
O403 Zn396 1.965 . S
O403 C414 1.260 . S
O404 Zn397 1.969 . S
O404 C414 1.258 . S
C405 O402 1.267 . S
C405 O406 1.228 . S
O406 C405 1.228 . S
O407 Zn396 2.024 . S
O407 C398 1.058 . S
C408 O409 1.228 . S
C408 O410 1.267 . S
O409 C408 1.228 . S
O410 Zn397 1.969 . S
O410 C408 1.267 . S
O411 Zn397 1.965 . S
O411 C415 1.260 . S
O412 Zn396 1.969 . S
O412 C415 1.258 . S
O413 Zn397 2.024 . S
O413 C400 1.058 . S
C414 O403 1.260 . S
C414 O404 1.258 . S
C415 O411 1.260 . S
C415 O412 1.258 . S
Zn416 O422 1.969 . S
Zn416 O423 1.965 1_455 S
Zn416 O427 2.024 1_565 S
Zn416 O432 1.969 1_565 S
Zn417 O424 1.969 1_455 S
Zn417 O430 1.969 1_455 S
Zn417 O431 1.965 . S
Zn417 O433 2.024 . S
C418 O419 1.229 1_545 S
C418 O427 1.058 . S
O419 C418 1.229 1_565 S
C420 O421 1.229 . S
C420 O433 1.058 1_655 S
O421 C420 1.229 . S
O422 Zn416 1.969 . S
O422 C425 1.267 . S
O423 Zn416 1.965 1_655 S
O423 C434 1.260 . S
O424 Zn417 1.969 1_655 S
O424 C434 1.258 1_545 S
C425 O422 1.267 . S
C425 O426 1.228 . S
O426 C425 1.228 . S
O427 Zn416 2.024 1_545 S
O427 C418 1.058 . S
C428 O429 1.228 . S
C428 O430 1.267 1_455 S
O429 C428 1.228 . S
O430 Zn417 1.969 1_655 S
O430 C428 1.267 1_655 S
O431 Zn417 1.965 . S
O431 C435 1.260 . S
O432 Zn416 1.969 1_545 S
O432 C435 1.258 . S
O433 Zn417 2.024 . S
O433 C420 1.058 1_455 S
C434 O423 1.260 . S
C434 O424 1.258 1_565 S
C435 O431 1.260 . S
C435 O432 1.258 . S
Zn436 O442 1.969 . S
Zn436 O443 1.965 . S
Zn436 O447 2.024 . S
Zn436 O452 1.969 . S
Zn437 O444 1.969 . S
Zn437 O450 1.969 . S
Zn437 O451 1.965 . S
Zn437 O453 2.024 . S
C438 O439 1.229 . S
C438 O447 1.058 . S
O439 C438 1.229 . S
C440 O441 1.229 . S
C440 O453 1.058 . S
O441 C440 1.229 . S
O442 Zn436 1.969 . S
O442 C445 1.267 . S
O443 Zn436 1.965 . S
O443 C454 1.260 . S
O444 Zn437 1.969 . S
O444 C454 1.258 . S
C445 O442 1.267 . S
C445 O446 1.228 . S
O446 C445 1.228 . S
O447 Zn436 2.024 . S
O447 C438 1.058 . S
C448 O449 1.228 . S
C448 O450 1.267 . S
O449 C448 1.228 . S
O450 Zn437 1.969 . S
O450 C448 1.267 . S
O451 Zn437 1.965 . S
O451 C455 1.260 . S
O452 Zn436 1.969 . S
O452 C455 1.258 . S
O453 Zn437 2.024 . S
O453 C440 1.058 . S
C454 O443 1.260 . S
C454 O444 1.258 . S
C455 O451 1.260 . S
C455 O452 1.258 . S
Zn456 O462 1.969 . S
Zn456 O463 1.965 1_545 S
Zn456 O467 2.024 1_556 S
Zn456 O472 1.969 1_556 S
Zn457 O464 1.969 . S
Zn457 O470 1.969 . S
Zn457 O471 1.965 1_565 S
Zn457 O473 2.013 1_565 S
C458 O459 1.229 . S
C458 O467 1.058 . S
O459 C458 1.229 . S
C460 O461 1.229 . S
C460 O473 1.028 1_565 S
O461 C460 1.229 . S
O462 Zn456 1.969 . S
O462 C465 1.267 . S
O463 Zn456 1.965 1_565 S
O463 C474 1.260 1_556 S
O464 Zn457 1.969 . S
O464 C474 1.258 . S
C465 O462 1.267 . S
C465 O466 1.228 . S
O466 C465 1.228 . S
O467 Zn456 2.024 1_554 S
O467 C458 1.058 . S
C468 O469 1.228 . S
C468 O470 1.267 1_545 S
O469 C468 1.228 . S
O470 Zn457 1.969 . S
O470 C468 1.267 1_565 S
O471 Zn457 1.965 1_545 S
O471 C475 1.260 . S
O472 Zn456 1.969 1_554 S
O472 C475 1.258 . S
O473 Zn457 2.013 1_545 S
O473 C460 1.028 1_545 S
C474 O463 1.260 1_554 S
C474 O464 1.258 . S
C475 O471 1.260 . S
C475 O472 1.258 . S
Zn476 O482 1.969 . S
Zn476 O483 1.965 . S
Zn476 O487 2.024 . S
Zn476 O492 1.969 . S
Zn477 O484 1.969 . S
Zn477 O490 1.969 . S
Zn477 O491 1.965 . S
Zn477 O493 2.024 . S
C478 O479 1.229 . S
C478 O487 1.058 . S
O479 C478 1.229 . S
C480 O481 1.229 . S
C480 O493 1.058 . S
O481 C480 1.229 . S
O482 Zn476 1.969 . S
O482 C485 1.267 . S
O483 Zn476 1.965 . S
O483 C494 1.260 . S
O484 Zn477 1.969 . S
O484 C494 1.258 . S
C485 O482 1.267 . S
C485 O486 1.228 . S
O486 C485 1.228 . S
O487 Zn476 2.024 . S
O487 C478 1.058 . S
C488 O489 1.228 . S
C488 O490 1.267 . S
O489 C488 1.228 . S
O490 Zn477 1.969 . S
O490 C488 1.267 . S
O491 Zn477 1.965 . S
O491 C495 1.260 . S
O492 Zn476 1.969 . S
O492 C495 1.258 . S
O493 Zn477 2.024 . S
O493 C480 1.058 . S
C494 O483 1.260 . S
C494 O484 1.258 . S
C495 O491 1.260 . S
C495 O492 1.258 . S
Zn496 O502 1.969 . S
Zn496 O503 1.965 . S
Zn496 O507 2.024 . S
Zn496 O512 1.969 . S
Zn497 O504 1.969 1_556 S
Zn497 O510 1.969 1_556 S
Zn497 O511 1.965 1_556 S
Zn497 O513 2.024 . S
C498 O499 1.229 . S
C498 O507 1.058 . S
O499 C498 1.229 . S
C500 O501 1.229 . S
C500 O513 1.058 . S
O501 C500 1.229 . S
O502 Zn496 1.969 . S
O502 C505 1.267 . S
O503 Zn496 1.965 . S
O503 C514 1.260 . S
O504 Zn497 1.969 1_554 S
O504 C514 1.258 . S
C505 O502 1.267 . S
C505 O506 1.228 . S
O506 C505 1.228 . S
O507 Zn496 2.024 . S
O507 C498 1.058 . S
C508 O509 1.228 . S
C508 O510 1.267 1_556 S
O509 C508 1.228 . S
O510 Zn497 1.969 1_554 S
O510 C508 1.267 1_554 S
O511 Zn497 1.965 1_554 S
O511 C515 1.260 . S
O512 Zn496 1.969 . S
O512 C515 1.258 . S
O513 Zn497 2.024 . S
O513 C500 1.058 . S
C514 O503 1.260 . S
C514 O504 1.258 . S
C515 O511 1.260 . S
C515 O512 1.258 . S
Zn516 O522 1.969 . S
Zn516 O523 1.965 . S
Zn516 O527 2.024 . S
Zn516 O532 1.969 . S
Zn517 O524 1.969 . S
Zn517 O530 1.969 . S
Zn517 O531 1.965 . S
Zn517 O533 2.024 . S
C518 O519 1.229 . S
C518 O527 1.058 . S
O519 C518 1.229 . S
C520 O521 1.229 . S
C520 O533 1.058 . S
O521 C520 1.229 . S
O522 Zn516 1.969 . S
O522 C525 1.267 . S
O523 Zn516 1.965 . S
O523 C534 1.260 . S
O524 Zn517 1.969 . S
O524 C534 1.258 . S
C525 O522 1.267 . S
C525 O526 1.228 . S
O526 C525 1.228 . S
O527 Zn516 2.024 . S
O527 C518 1.058 . S
C528 O529 1.228 . S
C528 O530 1.267 . S
O529 C528 1.228 . S
O530 Zn517 1.969 . S
O530 C528 1.267 . S
O531 Zn517 1.965 . S
O531 C535 1.260 . S
O532 Zn516 1.969 . S
O532 C535 1.258 . S
O533 Zn517 2.024 . S
O533 C520 1.058 . S
C534 O523 1.260 . S
C534 O524 1.258 . S
C535 O531 1.260 . S
C535 O532 1.258 . S
Zn536 O542 1.969 . S
Zn536 O543 1.965 . S
Zn536 O547 2.024 . S
Zn536 O552 1.969 . S
Zn537 O544 1.975 . S
Zn537 O550 1.969 . S
Zn537 O551 1.965 1_655 S
Zn537 O553 2.024 . S
C538 O539 1.229 . S
C538 O547 1.058 . S
O539 C538 1.229 . S
C540 O541 1.229 . S
C540 O553 1.058 . S
O541 C540 1.229 . S
O542 Zn536 1.969 . S
O542 C545 1.267 . S
O543 Zn536 1.965 . S
O543 C554 1.260 . S
O544 Zn537 1.975 . S
O544 C554 1.251 1_655 S
C545 O542 1.267 . S
C545 O546 1.228 . S
O546 C545 1.228 . S
O547 Zn536 2.024 . S
O547 C538 1.058 . S
C548 O549 1.228 . S
C548 O550 1.267 . S
O549 C548 1.228 . S
O550 Zn537 1.969 . S
O550 C548 1.267 . S
O551 Zn537 1.965 1_455 S
O551 C555 1.260 . S
O552 Zn536 1.969 . S
O552 C555 1.258 . S
O553 Zn537 2.024 . S
O553 C540 1.058 . S
C554 O543 1.260 . S
C554 O544 1.251 1_455 S
C555 O551 1.260 . S
C555 O552 1.258 . S
Zn556 O562 1.969 . S
Zn556 O563 1.965 . S
Zn556 O567 2.024 . S
Zn556 O572 1.969 . S
Zn557 O564 1.969 . S
Zn557 O570 1.969 . S
Zn557 O571 1.965 . S
Zn557 O573 2.024 . S
C558 O559 1.229 . S
C558 O567 1.058 . S
O559 C558 1.229 . S
C560 O561 1.229 . S
C560 O573 1.058 . S
O561 C560 1.229 . S
O562 Zn556 1.969 . S
O562 C565 1.267 . S
O563 Zn556 1.965 . S
O563 C574 1.260 . S
O564 Zn557 1.969 . S
O564 C574 1.258 . S
C565 O562 1.267 . S
C565 O566 1.228 . S
O566 C565 1.228 . S
O567 Zn556 2.024 . S
O567 C558 1.058 . S
C568 O569 1.228 . S
C568 O570 1.267 . S
O569 C568 1.228 . S
O570 Zn557 1.969 . S
O570 C568 1.267 . S
O571 Zn557 1.965 . S
O571 C575 1.260 . S
O572 Zn556 1.969 . S
O572 C575 1.258 . S
O573 Zn557 2.024 . S
O573 C560 1.058 . S
C574 O563 1.260 . S
C574 O564 1.258 . S
C575 O571 1.260 . S
C575 O572 1.258 . S
Zn576 O582 1.969 . S
Zn576 O583 1.965 . S
Zn576 O587 2.024 . S
Zn576 O592 1.969 . S
Zn577 O584 1.969 . S
Zn577 O590 1.969 . S
Zn577 O591 1.965 . S
Zn577 O593 2.024 . S
C578 O579 1.229 . S
C578 O587 1.058 . S
O579 C578 1.229 . S
C580 O581 1.229 . S
C580 O593 1.058 . S
O581 C580 1.229 . S
O582 Zn576 1.969 . S
O582 C585 1.267 . S
O583 Zn576 1.965 . S
O583 C594 1.260 . S
O584 Zn577 1.969 . S
O584 C594 1.258 . S
C585 O582 1.267 . S
C585 O586 1.228 . S
O586 C585 1.228 . S
O587 Zn576 2.024 . S
O587 C578 1.058 . S
C588 O589 1.228 . S
C588 O590 1.267 . S
O589 C588 1.228 . S
O590 Zn577 1.969 . S
O590 C588 1.267 . S
O591 Zn577 1.965 . S
O591 C595 1.260 . S
O592 Zn576 1.969 . S
O592 C595 1.258 . S
O593 Zn577 2.024 . S
O593 C580 1.058 . S
C594 O583 1.260 . S
C594 O584 1.258 . S
C595 O591 1.260 . S
C595 O592 1.258 . S
Zn596 O602 1.969 . S
Zn596 O603 1.965 . S
Zn596 O607 2.024 . S
Zn596 O612 1.969 . S
Zn597 O604 1.969 . S
Zn597 O610 1.969 . S
Zn597 O611 1.965 . S
Zn597 O613 2.024 . S
C598 O599 1.229 . S
C598 O607 1.058 . S
O599 C598 1.229 . S
C600 O601 1.229 . S
C600 O613 1.058 . S
O601 C600 1.229 . S
O602 Zn596 1.969 . S
O602 C605 1.267 . S
O603 Zn596 1.965 . S
O603 C614 1.260 . S
O604 Zn597 1.969 . S
O604 C614 1.258 . S
C605 O602 1.267 . S
C605 O606 1.228 . S
O606 C605 1.228 . S
O607 Zn596 2.024 . S
O607 C598 1.058 . S
C608 O609 1.228 . S
C608 O610 1.267 . S
O609 C608 1.228 . S
O610 Zn597 1.969 . S
O610 C608 1.267 . S
O611 Zn597 1.965 . S
O611 C615 1.260 . S
O612 Zn596 1.969 . S
O612 C615 1.258 . S
O613 Zn597 2.024 . S
O613 C600 1.058 . S
C614 O603 1.260 . S
C614 O604 1.258 . S
C615 O611 1.260 . S
C615 O612 1.258 . S
Zn616 O622 1.969 . S
Zn616 O623 1.965 . S
Zn616 O627 2.024 . S
Zn616 O632 1.969 . S
Zn617 O624 1.969 . S
Zn617 O630 1.969 . S
Zn617 O631 1.965 . S
Zn617 O633 2.024 . S
C618 O619 1.229 . S
C618 O627 1.058 . S
O619 C618 1.229 . S
C620 O621 1.229 . S
C620 O633 1.058 . S
O621 C620 1.229 . S
O622 Zn616 1.969 . S
O622 C625 1.267 . S
O623 Zn616 1.965 . S
O623 C634 1.260 . S
O624 Zn617 1.969 . S
O624 C634 1.258 . S
C625 O622 1.267 . S
C625 O626 1.228 . S
O626 C625 1.228 . S
O627 Zn616 2.024 . S
O627 C618 1.058 . S
C628 O629 1.228 . S
C628 O630 1.267 . S
O629 C628 1.228 . S
O630 Zn617 1.969 . S
O630 C628 1.267 . S
O631 Zn617 1.965 . S
O631 C635 1.260 . S
O632 Zn616 1.969 . S
O632 C635 1.258 . S
O633 Zn617 2.024 . S
O633 C620 1.058 . S
C634 O623 1.260 . S
C634 O624 1.258 . S
C635 O631 1.260 . S
C635 O632 1.258 . S
Zn636 O642 1.969 . S
Zn636 O643 1.965 . S
Zn636 O647 2.024 1_655 S
Zn636 O652 1.969 1_655 S
Zn637 O644 1.969 1_554 S
Zn637 O650 1.969 . S
Zn637 O651 1.965 . S
Zn637 O653 2.024 . S
C638 O639 1.229 1_455 S
C638 O647 1.058 . S
O639 C638 1.229 1_655 S
C640 O641 1.226 1_554 S
C640 O653 1.062 . S
O641 C640 1.226 1_556 S
O642 Zn636 1.969 . S
O642 C645 1.267 . S
O643 Zn636 1.965 . S
O643 C654 1.260 1_654 S
O644 Zn637 1.969 1_556 S
O644 C654 1.258 . S
C645 O642 1.267 . S
C645 O646 1.228 . S
O646 C645 1.228 . S
O647 Zn636 2.024 1_455 S
O647 C638 1.058 . S
C648 O649 1.228 . S
C648 O650 1.267 . S
O649 C648 1.228 . S
O650 Zn637 1.969 . S
O650 C648 1.267 . S
O651 Zn637 1.965 . S
O651 C655 1.260 . S
O652 Zn636 1.969 1_455 S
O652 C655 1.258 . S
O653 Zn637 2.024 . S
O653 C640 1.062 . S
C654 O643 1.260 1_456 S
C654 O644 1.258 . S
C655 O651 1.260 . S
C655 O652 1.258 . S
H656 C662 0.930 . S
H657 C665 0.930 . S
H658 C666 0.930 . S
H659 C667 0.930 1_554 S
H660 C670 0.930 . S
H661 C671 0.930 . S
C662 H656 0.930 . S
C662 C663 1.355 1_655 S
C662 C664 1.415 . S
C663 C662 1.355 1_455 S
C663 C665 1.419 . S
C664 C662 1.415 . S
C664 C669 1.425 1_655 S
C664 C671 1.409 . S
C665 H657 0.930 . S
C665 C663 1.419 . S
C665 C666 1.362 . S
C666 H658 0.930 . S
C666 C665 1.362 . S
C666 C669 1.409 . S
C667 H659 0.930 1_556 S
C667 C668 1.349 1_556 S
C667 C669 1.415 . S
C668 C667 1.349 1_554 S
C668 C670 1.412 1_454 S
C669 C664 1.425 1_455 S
C669 C666 1.409 . S
C669 C667 1.415 . S
C670 H660 0.930 . S
C670 C668 1.412 1_656 S
C670 C671 1.362 . S
C671 H661 0.930 . S
C671 C664 1.409 . S
C671 C670 1.362 . S
H672 C678 0.930 . S
H673 C681 0.930 . S
H674 C682 0.930 . S
H675 C683 0.930 . S
H676 C686 0.930 . S
H677 C687 0.930 . S
C678 H672 0.930 . S
C678 C679 1.355 . S
C678 C680 1.415 . S
C679 C678 1.355 . S
C679 C681 1.419 . S
C680 C678 1.415 . S
C680 C685 1.425 . S
C680 C687 1.409 . S
C681 H673 0.930 . S
C681 C679 1.419 . S
C681 C682 1.362 . S
C682 H674 0.930 . S
C682 C681 1.362 . S
C682 C685 1.409 . S
C683 H675 0.930 . S
C683 C684 1.355 . S
C683 C685 1.415 . S
C684 C683 1.355 . S
C684 C686 1.419 . S
C685 C680 1.425 . S
C685 C682 1.409 . S
C685 C683 1.415 . S
C686 H676 0.930 . S
C686 C684 1.419 . S
C686 C687 1.362 . S
C687 H677 0.930 . S
C687 C680 1.409 . S
C687 C686 1.362 . S
H688 C694 0.930 . S
H689 C697 0.930 . S
H690 C698 0.930 . S
H691 C699 0.930 . S
H692 C702 0.930 . S
H693 C703 0.930 . S
C694 H688 0.930 . S
C694 C695 1.355 . S
C694 C696 1.415 . S
C695 C694 1.355 . S
C695 C697 1.419 . S
C696 C694 1.415 . S
C696 C701 1.425 . S
C696 C703 1.409 . S
C697 H689 0.930 . S
C697 C695 1.419 . S
C697 C698 1.362 . S
C698 H690 0.930 . S
C698 C697 1.362 . S
C698 C701 1.409 . S
C699 H691 0.930 . S
C699 C700 1.355 . S
C699 C701 1.415 . S
C700 C699 1.355 . S
C700 C702 1.419 . S
C701 C696 1.425 . S
C701 C698 1.409 . S
C701 C699 1.415 . S
C702 H692 0.930 . S
C702 C700 1.419 . S
C702 C703 1.362 . S
C703 H693 0.930 . S
C703 C696 1.409 . S
C703 C702 1.362 . S
H704 C710 0.930 . S
H705 C713 0.930 . S
H706 C714 0.930 . S
H707 C715 0.930 . S
H708 C718 0.930 . S
H709 C719 0.930 . S
C710 H704 0.930 . S
C710 C711 1.355 . S
C710 C712 1.415 . S
C711 C710 1.355 . S
C711 C713 1.419 . S
C712 C710 1.415 . S
C712 C717 1.425 . S
C712 C719 1.409 . S
C713 H705 0.930 . S
C713 C711 1.419 . S
C713 C714 1.362 . S
C714 H706 0.930 . S
C714 C713 1.362 . S
C714 C717 1.409 . S
C715 H707 0.930 . S
C715 C716 1.355 . S
C715 C717 1.415 . S
C716 C715 1.355 . S
C716 C718 1.419 . S
C717 C712 1.425 . S
C717 C714 1.409 . S
C717 C715 1.415 . S
C718 H708 0.930 . S
C718 C716 1.419 . S
C718 C719 1.362 . S
C719 H709 0.930 . S
C719 C712 1.409 . S
C719 C718 1.362 . S
H720 C726 0.930 . S
H721 C729 0.930 . S
H722 C730 0.930 . S
H723 C731 0.930 . S
H724 C734 0.930 . S
H725 C735 0.930 . S
C726 H720 0.930 . S
C726 C727 1.355 . S
C726 C728 1.415 . S
C727 C726 1.355 . S
C727 C729 1.419 . S
C728 C726 1.415 . S
C728 C733 1.425 . S
C728 C735 1.409 . S
C729 H721 0.930 . S
C729 C727 1.419 . S
C729 C730 1.362 . S
C730 H722 0.930 . S
C730 C729 1.362 . S
C730 C733 1.409 . S
C731 H723 0.930 . S
C731 C732 1.355 . S
C731 C733 1.415 . S
C732 C731 1.355 . S
C732 C734 1.419 . S
C733 C728 1.425 . S
C733 C730 1.409 . S
C733 C731 1.415 . S
C734 H724 0.930 . S
C734 C732 1.419 . S
C734 C735 1.362 . S
C735 H725 0.930 . S
C735 C728 1.409 . S
C735 C734 1.362 . S
H736 C742 0.930 . S
H737 C745 0.930 . S
H738 C746 0.930 . S
H739 C747 0.930 . S
H740 C750 0.930 . S
H741 C751 0.930 . S
C742 H736 0.930 . S
C742 C743 1.355 . S
C742 C744 1.415 . S
C743 C742 1.355 . S
C743 C745 1.419 . S
C744 C742 1.415 . S
C744 C749 1.425 . S
C744 C751 1.409 . S
C745 H737 0.930 . S
C745 C743 1.419 . S
C745 C746 1.362 . S
C746 H738 0.930 . S
C746 C745 1.362 . S
C746 C749 1.409 . S
C747 H739 0.930 . S
C747 C748 1.355 . S
C747 C749 1.415 . S
C748 C747 1.355 . S
C748 C750 1.419 . S
C749 C744 1.425 . S
C749 C746 1.409 . S
C749 C747 1.415 . S
C750 H740 0.930 . S
C750 C748 1.419 . S
C750 C751 1.362 . S
C751 H741 0.930 . S
C751 C744 1.409 . S
C751 C750 1.362 . S
H752 C758 0.930 . S
H753 C761 0.930 . S
H754 C762 0.930 . S
H755 C763 0.930 . S
H756 C766 0.930 . S
H757 C767 0.930 . S
C758 H752 0.930 . S
C758 C759 1.355 . S
C758 C760 1.415 . S
C759 C758 1.355 . S
C759 C761 1.419 . S
C760 C758 1.415 . S
C760 C765 1.425 . S
C760 C767 1.409 . S
C761 H753 0.930 . S
C761 C759 1.419 . S
C761 C762 1.362 . S
C762 H754 0.930 . S
C762 C761 1.362 . S
C762 C765 1.409 . S
C763 H755 0.930 . S
C763 C764 1.355 . S
C763 C765 1.415 . S
C764 C763 1.355 . S
C764 C766 1.419 . S
C765 C760 1.425 . S
C765 C762 1.409 . S
C765 C763 1.415 . S
C766 H756 0.930 . S
C766 C764 1.419 . S
C766 C767 1.362 . S
C767 H757 0.930 . S
C767 C760 1.409 . S
C767 C766 1.362 . S
H768 C774 0.930 . S
H769 C777 0.930 . S
H770 C778 0.930 . S
H771 C779 0.930 . S
H772 C782 0.930 . S
H773 C783 0.930 . S
C774 H768 0.930 . S
C774 C775 1.355 . S
C774 C776 1.415 . S
C775 C774 1.355 . S
C775 C777 1.419 . S
C776 C774 1.415 . S
C776 C781 1.425 . S
C776 C783 1.409 . S
C777 H769 0.930 . S
C777 C775 1.419 . S
C777 C778 1.362 . S
C778 H770 0.930 . S
C778 C777 1.362 . S
C778 C781 1.409 . S
C779 H771 0.930 . S
C779 C780 1.355 . S
C779 C781 1.415 . S
C780 C779 1.355 . S
C780 C782 1.419 . S
C781 C776 1.425 . S
C781 C778 1.409 . S
C781 C779 1.415 . S
C782 H772 0.930 . S
C782 C780 1.419 . S
C782 C783 1.362 . S
C783 H773 0.930 . S
C783 C776 1.409 . S
C783 C782 1.362 . S
H784 C790 0.930 . S
H785 C793 0.930 . S
H786 C794 0.963 . S
H787 C795 0.930 1_455 S
H788 C798 0.930 . S
H789 C799 0.930 . S
C790 H784 0.930 . S
C790 C791 1.355 . S
C790 C792 1.415 . S
C791 C790 1.355 . S
C791 C793 1.419 . S
C792 C790 1.415 . S
C792 C797 1.425 . S
C792 C799 1.409 . S
C793 H785 0.930 . S
C793 C791 1.419 . S
C793 C794 1.362 . S
C794 H786 0.963 . S
C794 C793 1.362 . S
C794 C797 1.409 . S
C795 H787 0.930 1_655 S
C795 C796 1.355 . S
C795 C797 1.415 . S
C796 C795 1.355 . S
C796 C798 1.419 . S
C797 C792 1.425 . S
C797 C794 1.409 . S
C797 C795 1.415 . S
C798 H788 0.930 . S
C798 C796 1.419 . S
C798 C799 1.362 . S
C799 H789 0.930 . S
C799 C792 1.409 . S
C799 C798 1.362 . S
H800 C806 0.930 . S
H801 C809 0.930 . S
H802 C810 0.930 . S
H803 C811 0.930 . S
H804 C814 0.930 . S
H805 C815 0.930 . S
C806 H800 0.930 . S
C806 C807 1.355 . S
C806 C808 1.415 . S
C807 C806 1.355 . S
C807 C809 1.419 . S
C808 C806 1.415 . S
C808 C813 1.425 . S
C808 C815 1.409 . S
C809 H801 0.930 . S
C809 C807 1.419 . S
C809 C810 1.362 . S
C810 H802 0.930 . S
C810 C809 1.362 . S
C810 C813 1.409 . S
C811 H803 0.930 . S
C811 C812 1.355 . S
C811 C813 1.415 . S
C812 C811 1.355 . S
C812 C814 1.419 . S
C813 C808 1.425 . S
C813 C810 1.409 . S
C813 C811 1.415 . S
C814 H804 0.930 . S
C814 C812 1.419 . S
C814 C815 1.362 . S
C815 H805 0.930 . S
C815 C808 1.409 . S
C815 C814 1.362 . S
H816 C822 0.930 . S
H817 C825 0.930 . S
H818 C826 0.930 . S
H819 C827 0.930 . S
H820 C830 0.930 . S
H821 C831 0.930 . S
C822 H816 0.930 . S
C822 C823 1.355 1_545 S
C822 C824 1.415 . S
C823 C822 1.355 1_565 S
C823 C825 1.419 . S
C824 C822 1.415 . S
C824 C829 1.425 1_545 S
C824 C831 1.409 . S
C825 H817 0.930 . S
C825 C823 1.419 . S
C825 C826 1.362 . S
C826 H818 0.930 . S
C826 C825 1.362 . S
C826 C829 1.409 . S
C827 H819 0.930 . S
C827 C828 1.355 1_565 S
C827 C829 1.415 . S
C828 C827 1.355 1_545 S
C828 C830 1.419 . S
C829 C824 1.425 1_565 S
C829 C826 1.409 . S
C829 C827 1.415 . S
C830 H820 0.930 . S
C830 C828 1.419 . S
C830 C831 1.362 . S
C831 H821 0.930 . S
C831 C824 1.409 . S
C831 C830 1.362 . S
H832 C838 0.930 . S
H833 C841 0.930 . S
H834 C842 0.930 . S
H835 C843 0.930 . S
H836 C846 0.930 . S
H837 C847 0.930 . S
C838 H832 0.930 . S
C838 C839 1.355 . S
C838 C840 1.415 . S
C839 C838 1.355 . S
C839 C841 1.419 . S
C840 C838 1.415 . S
C840 C845 1.425 . S
C840 C847 1.409 . S
C841 H833 0.930 . S
C841 C839 1.419 . S
C841 C842 1.362 . S
C842 H834 0.930 . S
C842 C841 1.362 . S
C842 C845 1.409 . S
C843 H835 0.930 . S
C843 C844 1.355 . S
C843 C845 1.415 . S
C844 C843 1.355 . S
C844 C846 1.419 . S
C845 C840 1.425 . S
C845 C842 1.409 . S
C845 C843 1.415 . S
C846 H836 0.930 . S
C846 C844 1.419 . S
C846 C847 1.362 . S
C847 H837 0.930 . S
C847 C840 1.409 . S
C847 C846 1.362 . S
H848 C854 0.930 . S
H849 C857 0.930 . S
H850 C858 0.930 . S
H851 C859 0.930 . S
H852 C862 0.930 . S
H853 C863 0.930 1_455 S
C854 H848 0.930 . S
C854 C855 1.355 . S
C854 C856 1.415 . S
C855 C854 1.355 . S
C855 C857 1.419 . S
C856 C854 1.415 . S
C856 C861 1.425 . S
C856 C863 1.409 . S
C857 H849 0.930 . S
C857 C855 1.419 . S
C857 C858 1.362 . S
C858 H850 0.930 . S
C858 C857 1.362 . S
C858 C861 1.409 . S
C859 H851 0.930 . S
C859 C860 1.355 . S
C859 C861 1.415 . S
C860 C859 1.355 . S
C860 C862 1.419 1_655 S
C861 C856 1.425 . S
C861 C858 1.409 . S
C861 C859 1.415 . S
C862 H852 0.930 . S
C862 C860 1.419 1_455 S
C862 C863 1.362 1_455 S
C863 H853 0.930 1_655 S
C863 C856 1.409 . S
C863 C862 1.362 1_655 S
H864 C870 0.930 . S
H865 C873 0.930 . S
H866 C874 0.930 . S
H867 C875 0.930 . S
H868 C878 0.930 . S
H869 C879 0.930 . S
C870 H864 0.930 . S
C870 C871 1.355 . S
C870 C872 1.415 . S
C871 C870 1.355 . S
C871 C873 1.419 . S
C872 C870 1.415 . S
C872 C877 1.425 . S
C872 C879 1.409 . S
C873 H865 0.930 . S
C873 C871 1.419 . S
C873 C874 1.362 . S
C874 H866 0.930 . S
C874 C873 1.362 . S
C874 C877 1.409 . S
C875 H867 0.930 . S
C875 C876 1.355 . S
C875 C877 1.415 . S
C876 C875 1.355 . S
C876 C878 1.419 . S
C877 C872 1.425 . S
C877 C874 1.409 . S
C877 C875 1.415 . S
C878 H868 0.930 . S
C878 C876 1.419 . S
C878 C879 1.362 . S
C879 H869 0.930 . S
C879 C872 1.409 . S
C879 C878 1.362 . S
H880 C886 0.930 . S
H881 C889 0.930 . S
H882 C890 0.930 . S
H883 C891 0.930 . S
H884 C894 0.930 1_565 S
H885 C895 0.930 . S
C886 H880 0.930 . S
C886 C887 1.355 1_565 S
C886 C888 1.415 1_565 S
C887 C886 1.355 1_545 S
C887 C889 1.419 . S
C888 C886 1.415 1_545 S
C888 C893 1.425 . S
C888 C895 1.409 1_545 S
C889 H881 0.930 . S
C889 C887 1.419 . S
C889 C890 1.362 . S
C890 H882 0.930 . S
C890 C889 1.362 . S
C890 C893 1.409 . S
C891 H883 0.930 . S
C891 C892 1.355 . S
C891 C893 1.415 . S
C892 C891 1.355 . S
C892 C894 1.419 . S
C893 C888 1.425 . S
C893 C890 1.409 . S
C893 C891 1.415 . S
C894 H884 0.930 1_545 S
C894 C892 1.419 . S
C894 C895 1.362 1_545 S
C895 H885 0.930 . S
C895 C888 1.409 1_565 S
C895 C894 1.362 1_565 S
H896 C902 0.930 . S
H897 C905 0.930 . S
H898 C906 0.930 . S
H899 C907 0.930 . S
H900 C910 0.930 . S
H901 C911 0.930 . S
C902 H896 0.930 . S
C902 C903 1.355 . S
C902 C904 1.415 . S
C903 C902 1.355 . S
C903 C905 1.419 . S
C904 C902 1.415 . S
C904 C909 1.425 . S
C904 C911 1.409 . S
C905 H897 0.930 . S
C905 C903 1.419 . S
C905 C906 1.362 . S
C906 H898 0.930 . S
C906 C905 1.362 . S
C906 C909 1.409 . S
C907 H899 0.930 . S
C907 C908 1.355 . S
C907 C909 1.415 . S
C908 C907 1.355 . S
C908 C910 1.419 . S
C909 C904 1.425 . S
C909 C906 1.409 . S
C909 C907 1.415 . S
C910 H900 0.930 . S
C910 C908 1.419 . S
C910 C911 1.362 . S
C911 H901 0.930 . S
C911 C904 1.409 . S
C911 C910 1.362 . S
H912 C918 0.930 . S
H913 C921 0.927 . S
H914 C922 0.930 1_556 S
H915 C923 0.930 . S
H916 C926 0.930 . S
H917 C927 0.930 . S
C918 H912 0.930 . S
C918 C919 1.355 . S
C918 C920 1.415 . S
C919 C918 1.355 . S
C919 C921 1.421 1_554 S
C920 C918 1.415 . S
C920 C925 1.425 . S
C920 C927 1.409 . S
C921 H913 0.927 . S
C921 C919 1.421 1_556 S
C921 C922 1.363 1_556 S
C922 H914 0.930 1_554 S
C922 C921 1.363 1_554 S
C922 C925 1.409 . S
C923 H915 0.930 . S
C923 C924 1.355 . S
C923 C925 1.415 . S
C924 C923 1.355 . S
C924 C926 1.419 . S
C925 C920 1.425 . S
C925 C922 1.409 . S
C925 C923 1.415 . S
C926 H916 0.930 . S
C926 C924 1.419 . S
C926 C927 1.362 . S
C927 H917 0.930 . S
C927 C920 1.409 . S
C927 C926 1.362 . S
H928 C934 0.930 . S
H929 C937 0.930 . S
H930 C938 0.930 . S
H931 C939 0.930 . S
H932 C942 0.930 . S
H933 C943 0.930 . S
C934 H928 0.930 . S
C934 C935 1.360 . S
C934 C936 1.415 . S
C935 C934 1.360 . S
C935 C937 1.409 1_556 S
C936 C934 1.415 . S
C936 C941 1.425 1_556 S
C936 C943 1.409 . S
C937 H929 0.930 . S
C937 C935 1.409 1_554 S
C937 C938 1.362 . S
C938 H930 0.930 . S
C938 C937 1.362 . S
C938 C941 1.409 . S
C939 H931 0.930 . S
C939 C940 1.355 . S
C939 C941 1.415 . S
C940 C939 1.355 . S
C940 C942 1.419 1_554 S
C941 C936 1.425 1_554 S
C941 C938 1.409 . S
C941 C939 1.415 . S
C942 H932 0.930 . S
C942 C940 1.419 1_556 S
C942 C943 1.362 . S
C943 H933 0.930 . S
C943 C936 1.409 . S
C943 C942 1.362 . S
H944 C950 0.930 . S
H945 C953 0.930 . S
H946 C954 0.930 . S
H947 C955 0.930 . S
H948 C958 0.930 . S
H949 C959 0.930 . S
C950 H944 0.930 . S
C950 C951 1.355 . S
C950 C952 1.415 . S
C951 C950 1.355 . S
C951 C953 1.419 . S
C952 C950 1.415 . S
C952 C957 1.425 . S
C952 C959 1.409 . S
C953 H945 0.930 . S
C953 C951 1.419 . S
C953 C954 1.362 . S
C954 H946 0.930 . S
C954 C953 1.362 . S
C954 C957 1.409 . S
C955 H947 0.930 . S
C955 C956 1.355 . S
C955 C957 1.415 . S
C956 C955 1.355 . S
C956 C958 1.419 . S
C957 C952 1.425 . S
C957 C954 1.409 . S
C957 C955 1.415 . S
C958 H948 0.930 . S
C958 C956 1.419 . S
C958 C959 1.362 . S
C959 H949 0.930 . S
C959 C952 1.409 . S
C959 C958 1.362 . S
H960 C966 0.930 . S
H961 C969 0.930 . S
H962 C970 0.930 . S
H963 C971 0.930 . S
H964 C974 0.930 . S
H965 C975 0.930 . S
C966 H960 0.930 . S
C966 C967 1.355 . S
C966 C968 1.415 . S
C967 C966 1.355 . S
C967 C969 1.419 . S
C968 C966 1.415 . S
C968 C973 1.425 . S
C968 C975 1.409 . S
C969 H961 0.930 . S
C969 C967 1.419 . S
C969 C970 1.362 . S
C970 H962 0.930 . S
C970 C969 1.362 . S
C970 C973 1.409 . S
C971 H963 0.930 . S
C971 C972 1.355 . S
C971 C973 1.415 . S
C972 C971 1.355 . S
C972 C974 1.419 . S
C973 C968 1.425 . S
C973 C970 1.409 . S
C973 C971 1.415 . S
C974 H964 0.930 . S
C974 C972 1.419 . S
C974 C975 1.362 . S
C975 H965 0.930 . S
C975 C968 1.409 . S
C975 C974 1.362 . S
H976 C982 0.930 . S
H977 C985 0.930 . S
H978 C986 0.930 . S
H979 C987 0.930 . S
H980 C990 0.930 . S
H981 C991 0.930 . S
C982 H976 0.930 . S
C982 C983 1.355 . S
C982 C984 1.415 . S
C983 C982 1.355 . S
C983 C985 1.419 . S
C984 C982 1.415 . S
C984 C989 1.425 . S
C984 C991 1.409 . S
C985 H977 0.930 . S
C985 C983 1.419 . S
C985 C986 1.362 . S
C986 H978 0.930 . S
C986 C985 1.362 . S
C986 C989 1.409 . S
C987 H979 0.930 . S
C987 C988 1.355 . S
C987 C989 1.415 . S
C988 C987 1.355 . S
C988 C990 1.419 . S
C989 C984 1.425 . S
C989 C986 1.409 . S
C989 C987 1.415 . S
C990 H980 0.930 . S
C990 C988 1.419 . S
C990 C991 1.362 . S
C991 H981 0.930 . S
C991 C984 1.409 . S
C991 C990 1.362 . S
H992 C998 0.930 . S
H993 C1001 0.930 . S
H994 C1002 0.930 . S
H995 C1003 0.930 . S
H996 C1006 0.930 . S
H997 C1007 0.930 . S
C998 H992 0.930 . S
C998 C999 1.355 . S
C998 C1000 1.415 . S
C999 C998 1.355 . S
C999 C1001 1.419 . S
C1000 C998 1.415 . S
C1000 C1005 1.425 . S
C1000 C1007 1.409 . S
C1001 H993 0.930 . S
C1001 C999 1.419 . S
C1001 C1002 1.362 . S
C1002 H994 0.930 . S
C1002 C1001 1.362 . S
C1002 C1005 1.409 . S
C1003 H995 0.930 . S
C1003 C1004 1.355 . S
C1003 C1005 1.415 . S
C1004 C1003 1.355 . S
C1004 C1006 1.419 . S
C1005 C1000 1.425 . S
C1005 C1002 1.409 . S
C1005 C1003 1.415 . S
C1006 H996 0.930 . S
C1006 C1004 1.419 . S
C1006 C1007 1.362 . S
C1007 H997 0.930 . S
C1007 C1000 1.409 . S
C1007 C1006 1.362 . S
H1008 C1014 0.930 . S
H1009 C1017 0.930 . S
H1010 C1018 0.930 . S
H1011 C1019 0.930 . S
H1012 C1022 0.930 . S
H1013 C1023 0.930 . S
C1014 H1008 0.930 . S
C1014 C1015 1.355 . S
C1014 C1016 1.415 . S
C1015 C1014 1.355 . S
C1015 C1017 1.419 . S
C1016 C1014 1.415 . S
C1016 C1021 1.425 . S
C1016 C1023 1.409 . S
C1017 H1009 0.930 . S
C1017 C1015 1.419 . S
C1017 C1018 1.362 . S
C1018 H1010 0.930 . S
C1018 C1017 1.362 . S
C1018 C1021 1.409 . S
C1019 H1011 0.930 . S
C1019 C1020 1.355 . S
C1019 C1021 1.415 . S
C1020 C1019 1.355 . S
C1020 C1022 1.419 . S
C1021 C1016 1.425 . S
C1021 C1018 1.409 . S
C1021 C1019 1.415 . S
C1022 H1012 0.930 . S
C1022 C1020 1.419 . S
C1022 C1023 1.362 . S
C1023 H1013 0.930 . S
C1023 C1016 1.409 . S
C1023 C1022 1.362 . S
H1024 C1030 0.930 . S
H1025 C1033 0.930 . S
H1026 C1034 0.930 . S
H1027 C1035 0.930 . S
H1028 C1038 0.930 . S
H1029 C1039 0.930 . S
C1030 H1024 0.930 . S
C1030 C1031 1.355 . S
C1030 C1032 1.415 . S
C1031 C1030 1.355 . S
C1031 C1033 1.419 . S
C1032 C1030 1.415 . S
C1032 C1037 1.425 . S
C1032 C1039 1.409 . S
C1033 H1025 0.930 . S
C1033 C1031 1.419 . S
C1033 C1034 1.362 . S
C1034 H1026 0.930 . S
C1034 C1033 1.362 . S
C1034 C1037 1.409 . S
C1035 H1027 0.930 . S
C1035 C1036 1.355 . S
C1035 C1037 1.415 . S
C1036 C1035 1.355 . S
C1036 C1038 1.419 . S
C1037 C1032 1.425 . S
C1037 C1034 1.409 . S
C1037 C1035 1.415 . S
C1038 H1028 0.930 . S
C1038 C1036 1.419 . S
C1038 C1039 1.362 . S
C1039 H1029 0.930 . S
C1039 C1032 1.409 . S
C1039 C1038 1.362 . S
H1040 C1046 0.930 . S
H1041 C1049 0.930 . S
H1042 C1050 0.930 . S
H1043 C1051 0.930 . S
H1044 C1054 0.930 . S
H1045 C1055 0.930 . S
C1046 H1040 0.930 . S
C1046 C1047 1.355 . S
C1046 C1048 1.415 . S
C1047 C1046 1.355 . S
C1047 C1049 1.419 . S
C1048 C1046 1.415 . S
C1048 C1053 1.425 . S
C1048 C1055 1.409 . S
C1049 H1041 0.930 . S
C1049 C1047 1.419 . S
C1049 C1050 1.362 . S
C1050 H1042 0.930 . S
C1050 C1049 1.362 . S
C1050 C1053 1.409 . S
C1051 H1043 0.930 . S
C1051 C1052 1.355 . S
C1051 C1053 1.415 . S
C1052 C1051 1.355 . S
C1052 C1054 1.419 . S
C1053 C1048 1.425 . S
C1053 C1050 1.409 . S
C1053 C1051 1.415 . S
C1054 H1044 0.930 . S
C1054 C1052 1.419 . S
C1054 C1055 1.362 . S
C1055 H1045 0.930 . S
C1055 C1048 1.409 . S
C1055 C1054 1.362 . S
H1056 C1062 0.930 . S
H1057 C1065 0.930 . S
H1058 C1066 0.930 . S
H1059 C1067 0.930 . S
H1060 C1070 0.930 . S
H1061 C1071 0.930 . S
C1062 H1056 0.930 . S
C1062 C1063 1.355 . S
C1062 C1064 1.415 . S
C1063 C1062 1.355 . S
C1063 C1065 1.419 . S
C1064 C1062 1.415 . S
C1064 C1069 1.425 . S
C1064 C1071 1.409 . S
C1065 H1057 0.930 . S
C1065 C1063 1.419 . S
C1065 C1066 1.362 . S
C1066 H1058 0.930 . S
C1066 C1065 1.362 . S
C1066 C1069 1.409 . S
C1067 H1059 0.930 . S
C1067 C1068 1.355 . S
C1067 C1069 1.415 . S
C1068 C1067 1.355 . S
C1068 C1070 1.419 . S
C1069 C1064 1.425 . S
C1069 C1066 1.409 . S
C1069 C1067 1.415 . S
C1070 H1060 0.930 . S
C1070 C1068 1.419 . S
C1070 C1071 1.362 . S
C1071 H1061 0.930 . S
C1071 C1064 1.409 . S
C1071 C1070 1.362 . S
H1072 C1078 0.930 . S
H1073 C1081 0.930 . S
H1074 C1082 0.930 . S
H1075 C1083 0.930 . S
H1076 C1086 0.930 . S
H1077 C1087 0.930 . S
C1078 H1072 0.930 . S
C1078 C1079 1.355 . S
C1078 C1080 1.415 . S
C1079 C1078 1.355 . S
C1079 C1081 1.419 . S
C1080 C1078 1.415 . S
C1080 C1085 1.425 . S
C1080 C1087 1.409 . S
C1081 H1073 0.930 . S
C1081 C1079 1.419 . S
C1081 C1082 1.362 . S
C1082 H1074 0.930 . S
C1082 C1081 1.362 . S
C1082 C1085 1.409 . S
C1083 H1075 0.930 . S
C1083 C1084 1.355 . S
C1083 C1085 1.415 . S
C1084 C1083 1.355 . S
C1084 C1086 1.419 . S
C1085 C1080 1.425 . S
C1085 C1082 1.409 . S
C1085 C1083 1.415 . S
C1086 H1076 0.930 . S
C1086 C1084 1.419 . S
C1086 C1087 1.362 . S
C1087 H1077 0.930 . S
C1087 C1080 1.409 . S
C1087 C1086 1.362 . S
H1088 C1094 0.930 . S
H1089 C1097 0.930 . S
H1090 C1098 0.930 . S
H1091 C1099 0.930 . S
H1092 C1102 0.930 . S
H1093 C1103 0.930 . S
C1094 H1088 0.930 . S
C1094 C1095 1.355 . S
C1094 C1096 1.415 . S
C1095 C1094 1.355 . S
C1095 C1097 1.419 . S
C1096 C1094 1.415 . S
C1096 C1101 1.425 . S
C1096 C1103 1.409 . S
C1097 H1089 0.930 . S
C1097 C1095 1.419 . S
C1097 C1098 1.362 . S
C1098 H1090 0.930 . S
C1098 C1097 1.362 . S
C1098 C1101 1.409 . S
C1099 H1091 0.930 . S
C1099 C1100 1.355 . S
C1099 C1101 1.415 . S
C1100 C1099 1.355 . S
C1100 C1102 1.419 . S
C1101 C1096 1.425 . S
C1101 C1098 1.409 . S
C1101 C1099 1.415 . S
C1102 H1092 0.930 . S
C1102 C1100 1.419 . S
C1102 C1103 1.362 . S
C1103 H1093 0.930 . S
C1103 C1096 1.409 . S
C1103 C1102 1.362 . S
H1104 C1110 0.930 . S
H1105 C1113 0.930 . S
H1106 C1114 0.930 . S
H1107 C1115 0.930 . S
H1108 C1118 0.930 . S
H1109 C1119 0.930 . S
C1110 H1104 0.930 . S
C1110 C1111 1.355 . S
C1110 C1112 1.415 . S
C1111 C1110 1.355 . S
C1111 C1113 1.419 . S
C1112 C1110 1.415 . S
C1112 C1117 1.425 . S
C1112 C1119 1.409 . S
C1113 H1105 0.930 . S
C1113 C1111 1.419 . S
C1113 C1114 1.362 . S
C1114 H1106 0.930 . S
C1114 C1113 1.362 . S
C1114 C1117 1.409 . S
C1115 H1107 0.930 . S
C1115 C1116 1.355 . S
C1115 C1117 1.415 . S
C1116 C1115 1.355 . S
C1116 C1118 1.419 . S
C1117 C1112 1.425 . S
C1117 C1114 1.409 . S
C1117 C1115 1.415 . S
C1118 H1108 0.930 . S
C1118 C1116 1.419 . S
C1118 C1119 1.362 . S
C1119 H1109 0.930 . S
C1119 C1112 1.409 . S
C1119 C1118 1.362 . S
H1120 C1126 0.930 . S
H1121 C1129 0.930 . S
H1122 C1130 0.930 . S
H1123 C1131 0.930 . S
H1124 C1134 0.930 . S
H1125 C1135 0.930 . S
C1126 H1120 0.930 . S
C1126 C1127 1.355 . S
C1126 C1128 1.415 . S
C1127 C1126 1.355 . S
C1127 C1129 1.419 . S
C1128 C1126 1.415 . S
C1128 C1133 1.425 . S
C1128 C1135 1.409 . S
C1129 H1121 0.930 . S
C1129 C1127 1.419 . S
C1129 C1130 1.362 . S
C1130 H1122 0.930 . S
C1130 C1129 1.362 . S
C1130 C1133 1.409 . S
C1131 H1123 0.930 . S
C1131 C1132 1.355 . S
C1131 C1133 1.415 . S
C1132 C1131 1.355 . S
C1132 C1134 1.419 . S
C1133 C1128 1.425 . S
C1133 C1130 1.409 . S
C1133 C1131 1.415 . S
C1134 H1124 0.930 . S
C1134 C1132 1.419 . S
C1134 C1135 1.362 . S
C1135 H1125 0.930 . S
C1135 C1128 1.409 . S
C1135 C1134 1.362 . S
H1136 C1142 0.930 . S
H1137 C1145 0.930 . S
H1138 C1146 0.930 . S
H1139 C1147 0.930 . S
H1140 C1150 0.930 . S
H1141 C1151 0.930 1_554 S
C1142 H1136 0.930 . S
C1142 C1143 1.355 . S
C1142 C1144 1.415 . S
C1143 C1142 1.355 . S
C1143 C1145 1.419 . S
C1144 C1142 1.415 . S
C1144 C1149 1.425 . S
C1144 C1151 1.409 . S
C1145 H1137 0.930 . S
C1145 C1143 1.419 . S
C1145 C1146 1.362 . S
C1146 H1138 0.930 . S
C1146 C1145 1.362 . S
C1146 C1149 1.409 . S
C1147 H1139 0.930 . S
C1147 C1148 1.370 . S
C1147 C1149 1.415 . S
C1148 C1147 1.370 . S
C1148 C1150 1.412 1_556 S
C1149 C1144 1.425 . S
C1149 C1146 1.409 . S
C1149 C1147 1.415 . S
C1150 H1140 0.930 . S
C1150 C1148 1.412 1_554 S
C1150 C1151 1.362 1_554 S
C1151 H1141 0.930 1_556 S
C1151 C1144 1.409 . S
C1151 C1150 1.362 1_556 S
H1152 C1158 0.930 . S
H1153 C1161 0.930 . S
H1154 C1162 0.930 . S
H1155 C1163 0.930 . S
H1156 C1166 0.930 . S
H1157 C1167 0.930 . S
C1158 H1152 0.930 . S
C1158 C1159 1.355 . S
C1158 C1160 1.415 . S
C1159 C1158 1.355 . S
C1159 C1161 1.419 . S
C1160 C1158 1.415 . S
C1160 C1165 1.425 . S
C1160 C1167 1.409 . S
C1161 H1153 0.930 . S
C1161 C1159 1.419 . S
C1161 C1162 1.362 . S
C1162 H1154 0.930 . S
C1162 C1161 1.362 . S
C1162 C1165 1.409 . S
C1163 H1155 0.930 . S
C1163 C1164 1.355 . S
C1163 C1165 1.415 . S
C1164 C1163 1.355 . S
C1164 C1166 1.419 . S
C1165 C1160 1.425 . S
C1165 C1162 1.409 . S
C1165 C1163 1.415 . S
C1166 H1156 0.930 . S
C1166 C1164 1.419 . S
C1166 C1167 1.362 . S
C1167 H1157 0.930 . S
C1167 C1160 1.409 . S
C1167 C1166 1.362 . S
H1168 C1174 0.930 . S
H1169 C1177 0.930 . S
H1170 C1178 0.930 1_565 S
H1171 C1179 0.927 1_565 S
H1172 C1182 0.930 . S
H1173 C1183 0.930 . S
C1174 H1168 0.930 . S
C1174 C1175 1.355 . S
C1174 C1176 1.415 . S
C1175 C1174 1.355 . S
C1175 C1177 1.419 . S
C1176 C1174 1.415 . S
C1176 C1181 1.425 . S
C1176 C1183 1.409 . S
C1177 H1169 0.930 . S
C1177 C1175 1.419 . S
C1177 C1178 1.362 . S
C1178 H1170 0.930 1_545 S
C1178 C1177 1.362 . S
C1178 C1181 1.409 . S
C1179 H1171 0.927 1_545 S
C1179 C1180 1.356 . S
C1179 C1181 1.415 . S
C1180 C1179 1.356 . S
C1180 C1182 1.419 . S
C1181 C1176 1.425 . S
C1181 C1178 1.409 . S
C1181 C1179 1.415 . S
C1182 H1172 0.930 . S
C1182 C1180 1.419 . S
C1182 C1183 1.362 . S
C1183 H1173 0.930 . S
C1183 C1176 1.409 . S
C1183 C1182 1.362 . S
H1184 C1190 0.930 . S
H1185 C1193 0.930 . S
H1186 C1194 0.930 . S
H1187 C1195 0.930 . S
H1188 C1198 0.930 . S
H1189 C1199 0.930 . S
C1190 H1184 0.930 . S
C1190 C1191 1.355 . S
C1190 C1192 1.415 . S
C1191 C1190 1.355 . S
C1191 C1193 1.419 . S
C1192 C1190 1.415 . S
C1192 C1197 1.425 . S
C1192 C1199 1.409 . S
C1193 H1185 0.930 . S
C1193 C1191 1.419 . S
C1193 C1194 1.362 . S
C1194 H1186 0.930 . S
C1194 C1193 1.362 . S
C1194 C1197 1.409 . S
C1195 H1187 0.930 . S
C1195 C1196 1.355 . S
C1195 C1197 1.415 . S
C1196 C1195 1.355 . S
C1196 C1198 1.419 . S
C1197 C1192 1.425 . S
C1197 C1194 1.409 . S
C1197 C1195 1.415 . S
C1198 H1188 0.930 . S
C1198 C1196 1.419 . S
C1198 C1199 1.362 . S
C1199 H1189 0.930 . S
C1199 C1192 1.409 . S
C1199 C1198 1.362 . S
H1200 C1206 0.930 . S
H1201 C1209 0.930 . S
H1202 C1210 0.930 . S
H1203 C1211 0.930 . S
H1204 C1214 0.930 1_565 S
H1205 C1215 0.930 1_565 S
C1206 H1200 0.930 . S
C1206 C1207 1.355 . S
C1206 C1208 1.415 . S
C1207 C1206 1.355 . S
C1207 C1209 1.419 . S
C1208 C1206 1.415 . S
C1208 C1213 1.425 . S
C1208 C1215 1.409 . S
C1209 H1201 0.930 . S
C1209 C1207 1.419 . S
C1209 C1210 1.362 . S
C1210 H1202 0.930 . S
C1210 C1209 1.362 . S
C1210 C1213 1.409 . S
C1211 H1203 0.930 . S
C1211 C1212 1.355 . S
C1211 C1213 1.415 . S
C1212 C1211 1.355 . S
C1212 C1214 1.419 . S
C1213 C1208 1.425 . S
C1213 C1210 1.409 . S
C1213 C1211 1.415 . S
C1214 H1204 0.930 1_545 S
C1214 C1212 1.419 . S
C1214 C1215 1.362 . S
C1215 H1205 0.930 1_545 S
C1215 C1208 1.409 . S
C1215 C1214 1.362 . S
H1216 C1222 0.930 . S
H1217 C1225 0.930 . S
H1218 C1226 0.930 . S
H1219 C1227 0.930 . S
H1220 C1230 0.930 . S
H1221 C1231 0.930 . S
C1222 H1216 0.930 . S
C1222 C1223 1.355 . S
C1222 C1224 1.415 . S
C1223 C1222 1.355 . S
C1223 C1225 1.419 . S
C1224 C1222 1.415 . S
C1224 C1229 1.425 . S
C1224 C1231 1.409 . S
C1225 H1217 0.930 . S
C1225 C1223 1.419 . S
C1225 C1226 1.362 . S
C1226 H1218 0.930 . S
C1226 C1225 1.362 . S
C1226 C1229 1.409 . S
C1227 H1219 0.930 . S
C1227 C1228 1.355 . S
C1227 C1229 1.415 . S
C1228 C1227 1.355 . S
C1228 C1230 1.419 . S
C1229 C1224 1.425 . S
C1229 C1226 1.409 . S
C1229 C1227 1.415 . S
C1230 H1220 0.930 . S
C1230 C1228 1.419 . S
C1230 C1231 1.362 . S
C1231 H1221 0.930 . S
C1231 C1224 1.409 . S
C1231 C1230 1.362 . S
H1232 C1238 0.930 . S
H1233 C1241 0.930 . S
H1234 C1242 0.930 . S
H1235 C1243 0.930 . S
H1236 C1246 0.930 . S
H1237 C1247 0.930 . S
C1238 H1232 0.930 . S
C1238 C1239 1.355 . S
C1238 C1240 1.415 . S
C1239 C1238 1.355 . S
C1239 C1241 1.419 . S
C1240 C1238 1.415 . S
C1240 C1245 1.425 . S
C1240 C1247 1.409 . S
C1241 H1233 0.930 . S
C1241 C1239 1.419 . S
C1241 C1242 1.362 . S
C1242 H1234 0.930 . S
C1242 C1241 1.362 . S
C1242 C1245 1.409 . S
C1243 H1235 0.930 . S
C1243 C1244 1.355 . S
C1243 C1245 1.415 . S
C1244 C1243 1.355 . S
C1244 C1246 1.419 . S
C1245 C1240 1.425 . S
C1245 C1242 1.409 . S
C1245 C1243 1.415 . S
C1246 H1236 0.930 . S
C1246 C1244 1.419 . S
C1246 C1247 1.362 . S
C1247 H1237 0.930 . S
C1247 C1240 1.409 . S
C1247 C1246 1.362 . S
H1248 C1254 0.930 . S
H1249 C1257 0.930 . S
H1250 C1258 0.930 . S
H1251 C1259 0.930 . S
H1252 C1262 0.930 . S
H1253 C1263 0.930 . S
C1254 H1248 0.930 . S
C1254 C1255 1.355 . S
C1254 C1256 1.415 . S
C1255 C1254 1.355 . S
C1255 C1257 1.419 . S
C1256 C1254 1.415 . S
C1256 C1261 1.425 . S
C1256 C1263 1.409 . S
C1257 H1249 0.930 . S
C1257 C1255 1.419 . S
C1257 C1258 1.362 . S
C1258 H1250 0.930 . S
C1258 C1257 1.362 . S
C1258 C1261 1.409 . S
C1259 H1251 0.930 . S
C1259 C1260 1.355 . S
C1259 C1261 1.415 . S
C1260 C1259 1.355 . S
C1260 C1262 1.419 . S
C1261 C1256 1.425 . S
C1261 C1258 1.409 . S
C1261 C1259 1.415 . S
C1262 H1252 0.930 . S
C1262 C1260 1.419 . S
C1262 C1263 1.362 . S
C1263 H1253 0.930 . S
C1263 C1256 1.409 . S
C1263 C1262 1.362 . S
H1264 C1270 0.930 1_565 S
H1265 C1273 0.930 . S
H1266 C1274 0.930 . S
H1267 C1275 0.930 . S
H1268 C1278 0.930 . S
H1269 C1279 0.930 . S
C1270 H1264 0.930 1_545 S
C1270 C1271 1.355 . S
C1270 C1272 1.415 . S
C1271 C1270 1.355 . S
C1271 C1273 1.419 . S
C1272 C1270 1.415 . S
C1272 C1277 1.425 . S
C1272 C1279 1.409 1_545 S
C1273 H1265 0.930 . S
C1273 C1271 1.419 . S
C1273 C1274 1.362 . S
C1274 H1266 0.930 . S
C1274 C1273 1.362 . S
C1274 C1277 1.409 . S
C1275 H1267 0.930 . S
C1275 C1276 1.355 1_545 S
C1275 C1277 1.415 . S
C1276 C1275 1.355 1_565 S
C1276 C1278 1.419 . S
C1277 C1272 1.425 . S
C1277 C1274 1.409 . S
C1277 C1275 1.415 . S
C1278 H1268 0.930 . S
C1278 C1276 1.419 . S
C1278 C1279 1.362 . S
C1279 H1269 0.930 . S
C1279 C1272 1.409 1_565 S
C1279 C1278 1.362 . S
H1280 C1286 0.930 . S
H1281 C1289 0.930 . S
H1282 C1290 0.930 . S
H1283 C1291 0.930 . S
H1284 C1294 0.930 . S
H1285 C1295 0.930 . S
C1286 H1280 0.930 . S
C1286 C1287 1.355 . S
C1286 C1288 1.415 . S
C1287 C1286 1.355 . S
C1287 C1289 1.419 . S
C1288 C1286 1.415 . S
C1288 C1293 1.425 . S
C1288 C1295 1.409 . S
C1289 H1281 0.930 . S
C1289 C1287 1.419 . S
C1289 C1290 1.362 . S
C1290 H1282 0.930 . S
C1290 C1289 1.362 . S
C1290 C1293 1.409 . S
C1291 H1283 0.930 . S
C1291 C1292 1.355 . S
C1291 C1293 1.415 . S
C1292 C1291 1.355 . S
C1292 C1294 1.419 . S
C1293 C1288 1.425 . S
C1293 C1290 1.409 . S
C1293 C1291 1.415 . S
C1294 H1284 0.930 . S
C1294 C1292 1.419 . S
C1294 C1295 1.362 . S
C1295 H1285 0.930 . S
C1295 C1288 1.409 . S
C1295 C1294 1.362 . S
H1296 C1302 0.930 . S
H1297 C1305 0.930 . S
H1298 C1306 0.930 . S
H1299 C1307 0.930 . S
H1300 C1310 0.930 . S
H1301 C1311 0.930 . S
C1302 H1296 0.930 . S
C1302 C1303 1.355 . S
C1302 C1304 1.415 . S
C1303 C1302 1.355 . S
C1303 C1305 1.419 . S
C1304 C1302 1.415 . S
C1304 C1309 1.425 . S
C1304 C1311 1.409 1_554 S
C1305 H1297 0.930 . S
C1305 C1303 1.419 . S
C1305 C1306 1.362 . S
C1306 H1298 0.930 . S
C1306 C1305 1.362 . S
C1306 C1309 1.409 . S
C1307 H1299 0.930 . S
C1307 C1308 1.355 . S
C1307 C1309 1.415 . S
C1308 C1307 1.355 . S
C1308 C1310 1.419 1_554 S
C1309 C1304 1.425 . S
C1309 C1306 1.409 . S
C1309 C1307 1.415 . S
C1310 H1300 0.930 . S
C1310 C1308 1.419 1_556 S
C1310 C1311 1.362 . S
C1311 H1301 0.930 . S
C1311 C1304 1.409 1_556 S
C1311 C1310 1.362 . S
H1312 C1318 0.930 . S
H1313 C1321 0.930 . S
H1314 C1322 0.930 . S
H1315 C1323 0.930 . S
H1316 C1326 0.930 1_556 S
H1317 C1327 0.930 1_556 S
C1318 H1312 0.930 . S
C1318 C1319 1.355 . S
C1318 C1320 1.415 . S
C1319 C1318 1.355 . S
C1319 C1321 1.419 . S
C1320 C1318 1.415 . S
C1320 C1325 1.425 . S
C1320 C1327 1.409 . S
C1321 H1313 0.930 . S
C1321 C1319 1.419 . S
C1321 C1322 1.362 . S
C1322 H1314 0.930 . S
C1322 C1321 1.362 . S
C1322 C1325 1.409 . S
C1323 H1315 0.930 . S
C1323 C1324 1.355 . S
C1323 C1325 1.415 . S
C1324 C1323 1.355 . S
C1324 C1326 1.419 . S
C1325 C1320 1.425 . S
C1325 C1322 1.409 . S
C1325 C1323 1.415 . S
C1326 H1316 0.930 1_554 S
C1326 C1324 1.419 . S
C1326 C1327 1.362 . S
C1327 H1317 0.930 1_554 S
C1327 C1320 1.409 . S
C1327 C1326 1.362 . S
H1328 C1334 0.930 . S
H1329 C1337 0.930 . S
H1330 C1338 0.930 . S
H1331 C1339 0.930 . S
H1332 C1342 0.930 . S
H1333 C1343 0.930 . S
C1334 H1328 0.930 . S
C1334 C1335 1.355 . S
C1334 C1336 1.415 . S
C1335 C1334 1.355 . S
C1335 C1337 1.419 . S
C1336 C1334 1.415 . S
C1336 C1341 1.425 . S
C1336 C1343 1.409 . S
C1337 H1329 0.930 . S
C1337 C1335 1.419 . S
C1337 C1338 1.362 . S
C1338 H1330 0.930 . S
C1338 C1337 1.362 . S
C1338 C1341 1.409 . S
C1339 H1331 0.930 . S
C1339 C1340 1.355 . S
C1339 C1341 1.415 . S
C1340 C1339 1.355 . S
C1340 C1342 1.419 . S
C1341 C1336 1.425 . S
C1341 C1338 1.409 . S
C1341 C1339 1.415 . S
C1342 H1332 0.930 . S
C1342 C1340 1.419 . S
C1342 C1343 1.362 . S
C1343 H1333 0.930 . S
C1343 C1336 1.409 . S
C1343 C1342 1.362 . S
H1344 C1350 0.930 . S
H1345 C1353 0.930 . S
H1346 C1354 0.930 . S
H1347 C1355 0.930 . S
H1348 C1358 0.930 . S
H1349 C1359 0.930 . S
C1350 H1344 0.930 . S
C1350 C1351 1.355 . S
C1350 C1352 1.415 . S
C1351 C1350 1.355 . S
C1351 C1353 1.419 . S
C1352 C1350 1.415 . S
C1352 C1357 1.425 . S
C1352 C1359 1.409 . S
C1353 H1345 0.930 . S
C1353 C1351 1.419 . S
C1353 C1354 1.362 . S
C1354 H1346 0.930 . S
C1354 C1353 1.362 . S
C1354 C1357 1.409 . S
C1355 H1347 0.930 . S
C1355 C1356 1.355 . S
C1355 C1357 1.415 . S
C1356 C1355 1.355 . S
C1356 C1358 1.419 . S
C1357 C1352 1.425 . S
C1357 C1354 1.409 . S
C1357 C1355 1.415 . S
C1358 H1348 0.930 . S
C1358 C1356 1.419 . S
C1358 C1359 1.362 . S
C1359 H1349 0.930 . S
C1359 C1352 1.409 . S
C1359 C1358 1.362 . S
H1360 C1366 0.930 . S
H1361 C1369 0.930 . S
H1362 C1370 0.930 . S
H1363 C1371 0.930 . S
H1364 C1374 0.930 . S
H1365 C1375 0.930 . S
C1366 H1360 0.930 . S
C1366 C1367 1.355 . S
C1366 C1368 1.415 . S
C1367 C1366 1.355 . S
C1367 C1369 1.419 . S
C1368 C1366 1.415 . S
C1368 C1373 1.425 . S
C1368 C1375 1.409 . S
C1369 H1361 0.930 . S
C1369 C1367 1.419 . S
C1369 C1370 1.362 . S
C1370 H1362 0.930 . S
C1370 C1369 1.362 . S
C1370 C1373 1.409 . S
C1371 H1363 0.930 . S
C1371 C1372 1.355 . S
C1371 C1373 1.415 . S
C1372 C1371 1.355 . S
C1372 C1374 1.419 . S
C1373 C1368 1.425 . S
C1373 C1370 1.409 . S
C1373 C1371 1.415 . S
C1374 H1364 0.930 . S
C1374 C1372 1.419 . S
C1374 C1375 1.362 . S
C1375 H1365 0.930 . S
C1375 C1368 1.409 . S
C1375 C1374 1.362 . S
H1376 C1382 0.930 . S
H1377 C1385 0.930 . S
H1378 C1386 0.930 . S
H1379 C1387 0.930 . S
H1380 C1390 0.930 1_545 S
H1381 C1391 0.930 . S
C1382 H1376 0.930 . S
C1382 C1383 1.355 . S
C1382 C1384 1.415 . S
C1383 C1382 1.355 . S
C1383 C1385 1.419 . S
C1384 C1382 1.415 . S
C1384 C1389 1.425 . S
C1384 C1391 1.409 . S
C1385 H1377 0.930 . S
C1385 C1383 1.419 . S
C1385 C1386 1.362 . S
C1386 H1378 0.930 . S
C1386 C1385 1.362 . S
C1386 C1389 1.409 . S
C1387 H1379 0.930 . S
C1387 C1388 1.355 . S
C1387 C1389 1.415 . S
C1388 C1387 1.355 . S
C1388 C1390 1.419 . S
C1389 C1384 1.425 . S
C1389 C1386 1.409 . S
C1389 C1387 1.415 . S
C1390 H1380 0.930 1_565 S
C1390 C1388 1.419 . S
C1390 C1391 1.362 . S
C1391 H1381 0.930 . S
C1391 C1384 1.409 . S
C1391 C1390 1.362 . S
H1392 C1398 0.930 . S
H1393 C1401 0.930 . S
H1394 C1402 0.930 . S
H1395 C1403 0.930 . S
H1396 C1406 0.930 . S
H1397 C1407 0.930 . S
C1398 H1392 0.930 . S
C1398 C1399 1.355 . S
C1398 C1400 1.415 . S
C1399 C1398 1.355 . S
C1399 C1401 1.419 . S
C1400 C1398 1.415 . S
C1400 C1405 1.425 . S
C1400 C1407 1.409 . S
C1401 H1393 0.930 . S
C1401 C1399 1.419 . S
C1401 C1402 1.362 . S
C1402 H1394 0.930 . S
C1402 C1401 1.362 . S
C1402 C1405 1.409 . S
C1403 H1395 0.930 . S
C1403 C1404 1.355 . S
C1403 C1405 1.415 . S
C1404 C1403 1.355 . S
C1404 C1406 1.419 . S
C1405 C1400 1.425 . S
C1405 C1402 1.409 . S
C1405 C1403 1.415 . S
C1406 H1396 0.930 . S
C1406 C1404 1.419 . S
C1406 C1407 1.362 . S
C1407 H1397 0.930 . S
C1407 C1400 1.409 . S
C1407 C1406 1.362 . S
H1408 C1414 0.930 . S
H1409 C1417 0.930 . S
H1410 C1418 0.930 . S
H1411 C1419 0.930 . S
H1412 C1422 0.930 . S
H1413 C1423 0.930 . S
C1414 H1408 0.930 . S
C1414 C1415 1.355 . S
C1414 C1416 1.415 . S
C1415 C1414 1.355 . S
C1415 C1417 1.419 . S
C1416 C1414 1.415 . S
C1416 C1421 1.425 . S
C1416 C1423 1.409 . S
C1417 H1409 0.930 . S
C1417 C1415 1.419 . S
C1417 C1418 1.362 . S
C1418 H1410 0.930 . S
C1418 C1417 1.362 . S
C1418 C1421 1.409 . S
C1419 H1411 0.930 . S
C1419 C1420 1.355 . S
C1419 C1421 1.415 . S
C1420 C1419 1.355 . S
C1420 C1422 1.419 . S
C1421 C1416 1.425 . S
C1421 C1418 1.409 . S
C1421 C1419 1.415 . S
C1422 H1412 0.930 . S
C1422 C1420 1.419 . S
C1422 C1423 1.362 . S
C1423 H1413 0.930 . S
C1423 C1416 1.409 . S
C1423 C1422 1.362 . S
H1424 C1430 0.930 . S
H1425 C1433 0.930 . S
H1426 C1434 0.930 . S
H1427 C1435 0.930 . S
H1428 C1438 0.930 . S
H1429 C1439 0.930 . S
C1430 H1424 0.930 . S
C1430 C1431 1.355 . S
C1430 C1432 1.415 . S
C1431 C1430 1.355 . S
C1431 C1433 1.419 . S
C1432 C1430 1.415 . S
C1432 C1437 1.425 . S
C1432 C1439 1.409 . S
C1433 H1425 0.930 . S
C1433 C1431 1.419 . S
C1433 C1434 1.362 . S
C1434 H1426 0.930 . S
C1434 C1433 1.362 . S
C1434 C1437 1.409 . S
C1435 H1427 0.930 . S
C1435 C1436 1.355 . S
C1435 C1437 1.415 . S
C1436 C1435 1.355 . S
C1436 C1438 1.419 . S
C1437 C1432 1.425 . S
C1437 C1434 1.409 . S
C1437 C1435 1.415 . S
C1438 H1428 0.930 . S
C1438 C1436 1.419 . S
C1438 C1439 1.362 . S
C1439 H1429 0.930 . S
C1439 C1432 1.409 . S
C1439 C1438 1.362 . S
H1440 C1446 0.930 . S
H1441 C1449 0.930 . S
H1442 C1450 0.930 . S
H1443 C1451 0.930 . S
H1444 C1454 0.930 . S
H1445 C1455 0.930 . S
C1446 H1440 0.930 . S
C1446 C1447 1.355 . S
C1446 C1448 1.415 . S
C1447 C1446 1.355 . S
C1447 C1449 1.419 . S
C1448 C1446 1.415 . S
C1448 C1453 1.425 . S
C1448 C1455 1.409 . S
C1449 H1441 0.930 . S
C1449 C1447 1.419 . S
C1449 C1450 1.362 . S
C1450 H1442 0.930 . S
C1450 C1449 1.362 . S
C1450 C1453 1.409 . S
C1451 H1443 0.930 . S
C1451 C1452 1.355 . S
C1451 C1453 1.415 . S
C1452 C1451 1.355 . S
C1452 C1454 1.419 . S
C1453 C1448 1.425 . S
C1453 C1450 1.409 . S
C1453 C1451 1.415 . S
C1454 H1444 0.930 . S
C1454 C1452 1.419 . S
C1454 C1455 1.362 . S
C1455 H1445 0.930 . S
C1455 C1448 1.409 . S
C1455 C1454 1.362 . S
H1456 C1462 0.930 1_655 S
H1457 C1465 0.930 . S
H1458 C1466 0.930 1_554 S
H1459 C1467 0.923 1_554 S
H1460 C1470 0.930 . S
H1461 C1471 0.930 . S
C1462 H1456 0.930 1_455 S
C1462 C1463 1.354 . S
C1462 C1464 1.415 . S
C1463 C1462 1.354 . S
C1463 C1465 1.419 . S
C1464 C1462 1.415 . S
C1464 C1469 1.425 . S
C1464 C1471 1.409 1_455 S
C1465 H1457 0.930 . S
C1465 C1463 1.419 . S
C1465 C1466 1.362 . S
C1466 H1458 0.930 1_556 S
C1466 C1465 1.362 . S
C1466 C1469 1.409 . S
C1467 H1459 0.923 1_556 S
C1467 C1468 1.357 . S
C1467 C1469 1.419 . S
C1468 C1467 1.357 . S
C1468 C1470 1.419 1_455 S
C1469 C1464 1.425 . S
C1469 C1466 1.409 . S
C1469 C1467 1.419 . S
C1470 H1460 0.930 . S
C1470 C1468 1.419 1_655 S
C1470 C1471 1.362 . S
C1471 H1461 0.930 . S
C1471 C1464 1.409 1_655 S
C1471 C1470 1.362 . S
H1472 C1478 0.930 . S
H1473 C1481 0.930 . S
H1474 C1482 0.930 . S
H1475 C1483 0.930 . S
H1476 C1486 0.930 . S
H1477 C1487 0.930 . S
C1478 H1472 0.930 . S
C1478 C1479 1.355 . S
C1478 C1480 1.415 . S
C1479 C1478 1.355 . S
C1479 C1481 1.419 . S
C1480 C1478 1.415 . S
C1480 C1485 1.425 . S
C1480 C1487 1.409 . S
C1481 H1473 0.930 . S
C1481 C1479 1.419 . S
C1481 C1482 1.362 . S
C1482 H1474 0.930 . S
C1482 C1481 1.362 . S
C1482 C1485 1.409 . S
C1483 H1475 0.930 . S
C1483 C1484 1.355 . S
C1483 C1485 1.415 . S
C1484 C1483 1.355 . S
C1484 C1486 1.419 . S
C1485 C1480 1.425 . S
C1485 C1482 1.409 . S
C1485 C1483 1.415 . S
C1486 H1476 0.930 . S
C1486 C1484 1.419 . S
C1486 C1487 1.362 . S
C1487 H1477 0.930 . S
C1487 C1480 1.409 . S
C1487 C1486 1.362 . S
H1488 C1494 0.930 . S
H1489 C1497 0.930 . S
H1490 C1498 0.930 . S
H1491 C1499 0.930 . S
H1492 C1502 0.930 . S
H1493 C1503 0.930 . S
C1494 H1488 0.930 . S
C1494 C1495 1.355 . S
C1494 C1496 1.415 . S
C1495 C1494 1.355 . S
C1495 C1497 1.419 . S
C1496 C1494 1.415 . S
C1496 C1501 1.425 . S
C1496 C1503 1.409 . S
C1497 H1489 0.930 . S
C1497 C1495 1.419 . S
C1497 C1498 1.362 . S
C1498 H1490 0.930 . S
C1498 C1497 1.362 . S
C1498 C1501 1.409 . S
C1499 H1491 0.930 . S
C1499 C1500 1.355 . S
C1499 C1501 1.415 . S
C1500 C1499 1.355 . S
C1500 C1502 1.419 . S
C1501 C1496 1.425 . S
C1501 C1498 1.409 . S
C1501 C1499 1.415 . S
C1502 H1492 0.930 . S
C1502 C1500 1.419 . S
C1502 C1503 1.362 . S
C1503 H1493 0.930 . S
C1503 C1496 1.409 . S
C1503 C1502 1.362 . S
H1504 C1510 0.930 . S
H1505 C1513 0.930 . S
H1506 C1514 0.930 . S
H1507 C1515 0.930 . S
H1508 C1518 0.930 . S
H1509 C1519 0.930 . S
C1510 H1504 0.930 . S
C1510 C1511 1.355 . S
C1510 C1512 1.415 . S
C1511 C1510 1.355 . S
C1511 C1513 1.419 . S
C1512 C1510 1.415 . S
C1512 C1517 1.425 . S
C1512 C1519 1.409 . S
C1513 H1505 0.930 . S
C1513 C1511 1.419 . S
C1513 C1514 1.362 . S
C1514 H1506 0.930 . S
C1514 C1513 1.362 . S
C1514 C1517 1.409 . S
C1515 H1507 0.930 . S
C1515 C1516 1.355 . S
C1515 C1517 1.415 . S
C1516 C1515 1.355 . S
C1516 C1518 1.419 . S
C1517 C1512 1.425 . S
C1517 C1514 1.409 . S
C1517 C1515 1.415 . S
C1518 H1508 0.930 . S
C1518 C1516 1.419 . S
C1518 C1519 1.362 . S
C1519 H1509 0.930 . S
C1519 C1512 1.409 . S
C1519 C1518 1.362 . S
H1520 C1526 0.930 . S
H1521 C1529 0.930 . S
H1522 C1530 0.930 . S
H1523 C1531 0.930 . S
H1524 C1534 0.930 . S
H1525 C1535 0.930 . S
C1526 H1520 0.930 . S
C1526 C1527 1.355 1_655 S
C1526 C1528 1.415 . S
C1527 C1526 1.355 1_455 S
C1527 C1529 1.419 . S
C1528 C1526 1.415 . S
C1528 C1533 1.425 1_655 S
C1528 C1535 1.409 . S
C1529 H1521 0.930 . S
C1529 C1527 1.419 . S
C1529 C1530 1.362 . S
C1530 H1522 0.930 . S
C1530 C1529 1.362 . S
C1530 C1533 1.409 . S
C1531 H1523 0.930 . S
C1531 C1532 1.355 . S
C1531 C1533 1.415 . S
C1532 C1531 1.355 . S
C1532 C1534 1.419 1_455 S
C1533 C1528 1.425 1_455 S
C1533 C1530 1.409 . S
C1533 C1531 1.415 . S
C1534 H1524 0.930 . S
C1534 C1532 1.419 1_655 S
C1534 C1535 1.362 . S
C1535 H1525 0.930 . S
C1535 C1528 1.409 . S
C1535 C1534 1.362 . S
H1536 C1542 0.930 . S
H1537 C1545 0.930 . S
H1538 C1546 0.930 . S
H1539 C1547 0.930 . S
H1540 C1550 0.930 . S
H1541 C1551 0.930 . S
C1542 H1536 0.930 . S
C1542 C1543 1.355 . S
C1542 C1544 1.415 . S
C1543 C1542 1.355 . S
C1543 C1545 1.419 . S
C1544 C1542 1.415 . S
C1544 C1549 1.425 . S
C1544 C1551 1.409 . S
C1545 H1537 0.930 . S
C1545 C1543 1.419 . S
C1545 C1546 1.362 . S
C1546 H1538 0.930 . S
C1546 C1545 1.362 . S
C1546 C1549 1.409 . S
C1547 H1539 0.930 . S
C1547 C1548 1.355 . S
C1547 C1549 1.415 . S
C1548 C1547 1.355 . S
C1548 C1550 1.419 . S
C1549 C1544 1.425 . S
C1549 C1546 1.409 . S
C1549 C1547 1.415 . S
C1550 H1540 0.930 . S
C1550 C1548 1.419 . S
C1550 C1551 1.362 . S
C1551 H1541 0.930 . S
C1551 C1544 1.409 . S
C1551 C1550 1.362 . S
H1552 C1558 0.930 . S
H1553 C1561 0.930 . S
H1554 C1562 0.930 . S
H1555 C1563 0.930 . S
H1556 C1566 0.930 . S
H1557 C1567 0.930 . S
C1558 H1552 0.930 . S
C1558 C1559 1.355 . S
C1558 C1560 1.415 . S
C1559 C1558 1.355 . S
C1559 C1561 1.419 . S
C1560 C1558 1.415 . S
C1560 C1565 1.425 . S
C1560 C1567 1.409 . S
C1561 H1553 0.930 . S
C1561 C1559 1.419 . S
C1561 C1562 1.362 . S
C1562 H1554 0.930 . S
C1562 C1561 1.362 . S
C1562 C1565 1.409 . S
C1563 H1555 0.930 . S
C1563 C1564 1.355 . S
C1563 C1565 1.415 . S
C1564 C1563 1.355 . S
C1564 C1566 1.419 . S
C1565 C1560 1.425 . S
C1565 C1562 1.409 . S
C1565 C1563 1.415 . S
C1566 H1556 0.930 . S
C1566 C1564 1.419 . S
C1566 C1567 1.362 . S
C1567 H1557 0.930 . S
C1567 C1560 1.409 . S
C1567 C1566 1.362 . S
H1568 C1574 0.930 . S
H1569 C1577 0.930 . S
H1570 C1578 0.930 . S
H1571 C1579 0.930 . S
H1572 C1582 0.930 . S
H1573 C1583 0.930 . S
C1574 H1568 0.930 . S
C1574 C1575 1.355 . S
C1574 C1576 1.415 . S
C1575 C1574 1.355 . S
C1575 C1577 1.419 . S
C1576 C1574 1.415 . S
C1576 C1581 1.425 . S
C1576 C1583 1.409 . S
C1577 H1569 0.930 . S
C1577 C1575 1.419 . S
C1577 C1578 1.362 . S
C1578 H1570 0.930 . S
C1578 C1577 1.362 . S
C1578 C1581 1.409 . S
C1579 H1571 0.930 . S
C1579 C1580 1.355 . S
C1579 C1581 1.415 . S
C1580 C1579 1.355 . S
C1580 C1582 1.419 . S
C1581 C1576 1.425 . S
C1581 C1578 1.409 . S
C1581 C1579 1.415 . S
C1582 H1572 0.930 . S
C1582 C1580 1.419 . S
C1582 C1583 1.362 . S
C1583 H1573 0.930 . S
C1583 C1576 1.409 . S
C1583 C1582 1.362 . S
H1584 C1590 0.930 . S
H1585 C1593 0.930 . S
H1586 C1594 0.930 . S
H1587 C1595 0.930 . S
H1588 C1598 0.930 . S
H1589 C1599 0.930 . S
C1590 H1584 0.930 . S
C1590 C1591 1.355 . S
C1590 C1592 1.415 . S
C1591 C1590 1.355 . S
C1591 C1593 1.419 . S
C1592 C1590 1.415 . S
C1592 C1597 1.425 . S
C1592 C1599 1.409 . S
C1593 H1585 0.930 . S
C1593 C1591 1.419 . S
C1593 C1594 1.362 . S
C1594 H1586 0.930 . S
C1594 C1593 1.362 . S
C1594 C1597 1.409 . S
C1595 H1587 0.930 . S
C1595 C1596 1.355 . S
C1595 C1597 1.415 . S
C1596 C1595 1.355 . S
C1596 C1598 1.419 . S
C1597 C1592 1.425 . S
C1597 C1594 1.409 . S
C1597 C1595 1.415 . S
C1598 H1588 0.930 . S
C1598 C1596 1.419 . S
C1598 C1599 1.362 . S
C1599 H1589 0.930 . S
C1599 C1592 1.409 . S
C1599 C1598 1.362 . S
H1600 C1606 0.930 . S
H1601 C1609 0.930 . S
H1602 C1610 0.930 . S
H1603 C1611 0.930 . S
H1604 C1614 0.930 . S
H1605 C1615 0.930 . S
C1606 H1600 0.930 . S
C1606 C1607 1.355 . S
C1606 C1608 1.415 . S
C1607 C1606 1.355 . S
C1607 C1609 1.419 . S
C1608 C1606 1.415 . S
C1608 C1613 1.425 . S
C1608 C1615 1.409 . S
C1609 H1601 0.930 . S
C1609 C1607 1.419 . S
C1609 C1610 1.362 . S
C1610 H1602 0.930 . S
C1610 C1609 1.362 . S
C1610 C1613 1.409 . S
C1611 H1603 0.930 . S
C1611 C1612 1.355 . S
C1611 C1613 1.415 . S
C1612 C1611 1.355 . S
C1612 C1614 1.419 . S
C1613 C1608 1.425 . S
C1613 C1610 1.409 . S
C1613 C1611 1.415 . S
C1614 H1604 0.930 . S
C1614 C1612 1.419 . S
C1614 C1615 1.362 . S
C1615 H1605 0.930 . S
C1615 C1608 1.409 . S
C1615 C1614 1.362 . S
H1616 C1622 0.930 . S
H1617 C1625 0.930 . S
H1618 C1626 0.930 . S
H1619 C1627 0.930 . S
H1620 C1630 0.930 . S
H1621 C1631 0.930 . S
C1622 H1616 0.930 . S
C1622 C1623 1.355 . S
C1622 C1624 1.415 . S
C1623 C1622 1.355 . S
C1623 C1625 1.419 . S
C1624 C1622 1.415 . S
C1624 C1629 1.425 . S
C1624 C1631 1.409 . S
C1625 H1617 0.930 . S
C1625 C1623 1.419 . S
C1625 C1626 1.362 . S
C1626 H1618 0.930 . S
C1626 C1625 1.362 . S
C1626 C1629 1.409 . S
C1627 H1619 0.930 . S
C1627 C1628 1.355 . S
C1627 C1629 1.415 . S
C1628 C1627 1.355 . S
C1628 C1630 1.419 . S
C1629 C1624 1.425 . S
C1629 C1626 1.409 . S
C1629 C1627 1.415 . S
C1630 H1620 0.930 . S
C1630 C1628 1.419 . S
C1630 C1631 1.362 . S
C1631 H1621 0.930 . S
C1631 C1624 1.409 . S
C1631 C1630 1.362 . S
H1632 C1638 0.930 . S
H1633 C1641 0.930 . S
H1634 C1642 0.930 . S
H1635 C1643 0.930 . S
H1636 C1646 0.930 . S
H1637 C1647 0.930 . S
C1638 H1632 0.930 . S
C1638 C1639 1.355 . S
C1638 C1640 1.415 . S
C1639 C1638 1.355 . S
C1639 C1641 1.419 . S
C1640 C1638 1.415 . S
C1640 C1645 1.425 . S
C1640 C1647 1.409 . S
C1641 H1633 0.930 . S
C1641 C1639 1.419 . S
C1641 C1642 1.362 . S
C1642 H1634 0.930 . S
C1642 C1641 1.362 . S
C1642 C1645 1.409 . S
C1643 H1635 0.930 . S
C1643 C1644 1.355 . S
C1643 C1645 1.415 . S
C1644 C1643 1.355 . S
C1644 C1646 1.419 . S
C1645 C1640 1.425 . S
C1645 C1642 1.409 . S
C1645 C1643 1.415 . S
C1646 H1636 0.930 . S
C1646 C1644 1.419 . S
C1646 C1647 1.362 . S
C1647 H1637 0.930 . S
C1647 C1640 1.409 . S
C1647 C1646 1.362 . S
H1648 C1654 0.930 . S
H1649 C1657 0.930 . S
H1650 C1658 0.930 . S
H1651 C1659 0.930 . S
H1652 C1662 0.930 . S
H1653 C1663 0.930 . S
C1654 H1648 0.930 . S
C1654 C1655 1.355 . S
C1654 C1656 1.415 . S
C1655 C1654 1.355 . S
C1655 C1657 1.419 . S
C1656 C1654 1.415 . S
C1656 C1661 1.425 . S
C1656 C1663 1.409 . S
C1657 H1649 0.930 . S
C1657 C1655 1.419 . S
C1657 C1658 1.362 . S
C1658 H1650 0.930 . S
C1658 C1657 1.362 . S
C1658 C1661 1.409 . S
C1659 H1651 0.930 . S
C1659 C1660 1.355 . S
C1659 C1661 1.415 . S
C1660 C1659 1.355 . S
C1660 C1662 1.419 . S
C1661 C1656 1.425 . S
C1661 C1658 1.409 . S
C1661 C1659 1.415 . S
C1662 H1652 0.930 . S
C1662 C1660 1.419 . S
C1662 C1663 1.362 . S
C1663 H1653 0.930 . S
C1663 C1656 1.409 . S
C1663 C1662 1.362 . S
H1664 C1670 0.930 . S
H1665 C1673 0.930 . S
H1666 C1674 0.930 . S
H1667 C1675 0.930 . S
H1668 C1678 0.930 . S
H1669 C1679 0.930 . S
C1670 H1664 0.930 . S
C1670 C1671 1.355 . S
C1670 C1672 1.415 . S
C1671 C1670 1.355 . S
C1671 C1673 1.419 . S
C1672 C1670 1.415 . S
C1672 C1677 1.425 . S
C1672 C1679 1.409 . S
C1673 H1665 0.930 . S
C1673 C1671 1.419 . S
C1673 C1674 1.362 . S
C1674 H1666 0.930 . S
C1674 C1673 1.362 . S
C1674 C1677 1.409 . S
C1675 H1667 0.930 . S
C1675 C1676 1.355 . S
C1675 C1677 1.415 . S
C1676 C1675 1.355 . S
C1676 C1678 1.419 . S
C1677 C1672 1.425 . S
C1677 C1674 1.409 . S
C1677 C1675 1.415 . S
C1678 H1668 0.930 . S
C1678 C1676 1.419 . S
C1678 C1679 1.362 . S
C1679 H1669 0.930 . S
C1679 C1672 1.409 . S
C1679 C1678 1.362 . S
H1680 C1686 0.930 . S
H1681 C1689 0.930 . S
H1682 C1690 0.930 . S
H1683 C1691 0.930 . S
H1684 C1694 0.930 . S
H1685 C1695 0.930 . S
C1686 H1680 0.930 . S
C1686 C1687 1.355 . S
C1686 C1688 1.415 . S
C1687 C1686 1.355 . S
C1687 C1689 1.419 . S
C1688 C1686 1.415 . S
C1688 C1693 1.425 . S
C1688 C1695 1.409 . S
C1689 H1681 0.930 . S
C1689 C1687 1.419 . S
C1689 C1690 1.362 . S
C1690 H1682 0.930 . S
C1690 C1689 1.362 . S
C1690 C1693 1.409 . S
C1691 H1683 0.930 . S
C1691 C1692 1.355 . S
C1691 C1693 1.415 . S
C1692 C1691 1.355 . S
C1692 C1694 1.419 . S
C1693 C1688 1.425 . S
C1693 C1690 1.409 . S
C1693 C1691 1.415 . S
C1694 H1684 0.930 . S
C1694 C1692 1.419 . S
C1694 C1695 1.362 . S
C1695 H1685 0.930 . S
C1695 C1688 1.409 . S
C1695 C1694 1.362 . S
H1696 C1702 0.930 . S
H1697 C1705 0.930 . S
H1698 C1706 0.930 . S
H1699 C1707 0.930 . S
H1700 C1710 0.930 . S
H1701 C1711 0.930 . S
C1702 H1696 0.930 . S
C1702 C1703 1.355 . S
C1702 C1704 1.415 . S
C1703 C1702 1.355 . S
C1703 C1705 1.419 . S
C1704 C1702 1.415 . S
C1704 C1709 1.425 . S
C1704 C1711 1.409 . S
C1705 H1697 0.930 . S
C1705 C1703 1.419 . S
C1705 C1706 1.362 . S
C1706 H1698 0.930 . S
C1706 C1705 1.362 . S
C1706 C1709 1.409 . S
C1707 H1699 0.930 . S
C1707 C1708 1.355 . S
C1707 C1709 1.415 . S
C1708 C1707 1.355 . S
C1708 C1710 1.419 . S
C1709 C1704 1.425 . S
C1709 C1706 1.409 . S
C1709 C1707 1.415 . S
C1710 H1700 0.930 . S
C1710 C1708 1.419 . S
C1710 C1711 1.362 . S
C1711 H1701 0.930 . S
C1711 C1704 1.409 . S
C1711 C1710 1.362 . S
H1712 C1718 0.930 . S
H1713 C1721 0.930 . S
H1714 C1722 0.930 . S
H1715 C1723 0.930 . S
H1716 C1726 0.930 . S
H1717 C1727 0.930 . S
C1718 H1712 0.930 . S
C1718 C1719 1.355 . S
C1718 C1720 1.415 . S
C1719 C1718 1.355 . S
C1719 C1721 1.419 . S
C1720 C1718 1.415 . S
C1720 C1725 1.425 . S
C1720 C1727 1.409 . S
C1721 H1713 0.930 . S
C1721 C1719 1.419 . S
C1721 C1722 1.362 . S
C1722 H1714 0.930 . S
C1722 C1721 1.362 . S
C1722 C1725 1.409 . S
C1723 H1715 0.930 . S
C1723 C1724 1.355 . S
C1723 C1725 1.415 . S
C1724 C1723 1.355 . S
C1724 C1726 1.419 . S
C1725 C1720 1.425 . S
C1725 C1722 1.409 . S
C1725 C1723 1.415 . S
C1726 H1716 0.930 . S
C1726 C1724 1.419 . S
C1726 C1727 1.362 . S
C1727 H1717 0.930 . S
C1727 C1720 1.409 . S
C1727 C1726 1.362 . S
H1728 C1734 0.930 1_556 S
H1729 C1737 0.930 . S
H1730 C1738 0.930 . S
H1731 C1739 0.930 . S
H1732 C1742 0.930 . S
H1733 C1743 0.930 . S
C1734 H1728 0.930 1_554 S
C1734 C1735 1.355 . S
C1734 C1736 1.415 . S
C1735 C1734 1.355 . S
C1735 C1737 1.419 . S
C1736 C1734 1.415 . S
C1736 C1741 1.425 . S
C1736 C1743 1.409 1_554 S
C1737 H1729 0.930 . S
C1737 C1735 1.419 . S
C1737 C1738 1.362 . S
C1738 H1730 0.930 . S
C1738 C1737 1.362 . S
C1738 C1741 1.409 . S
C1739 H1731 0.930 . S
C1739 C1740 1.355 . S
C1739 C1741 1.415 . S
C1740 C1739 1.355 . S
C1740 C1742 1.419 1_554 S
C1741 C1736 1.425 . S
C1741 C1738 1.409 . S
C1741 C1739 1.415 . S
C1742 H1732 0.930 . S
C1742 C1740 1.419 1_556 S
C1742 C1743 1.362 . S
C1743 H1733 0.930 . S
C1743 C1736 1.409 1_556 S
C1743 C1742 1.362 . S
H1744 C1750 0.930 . S
H1745 C1753 0.930 . S
H1746 C1754 0.930 . S
H1747 C1755 0.930 . S
H1748 C1758 0.930 . S
H1749 C1759 0.930 . S
C1750 H1744 0.930 . S
C1750 C1751 1.355 . S
C1750 C1752 1.415 . S
C1751 C1750 1.355 . S
C1751 C1753 1.419 . S
C1752 C1750 1.415 . S
C1752 C1757 1.425 . S
C1752 C1759 1.409 . S
C1753 H1745 0.930 . S
C1753 C1751 1.419 . S
C1753 C1754 1.362 . S
C1754 H1746 0.930 . S
C1754 C1753 1.362 . S
C1754 C1757 1.409 . S
C1755 H1747 0.930 . S
C1755 C1756 1.355 . S
C1755 C1757 1.415 . S
C1756 C1755 1.355 . S
C1756 C1758 1.419 . S
C1757 C1752 1.425 . S
C1757 C1754 1.409 . S
C1757 C1755 1.415 . S
C1758 H1748 0.930 . S
C1758 C1756 1.419 . S
C1758 C1759 1.362 . S
C1759 H1749 0.930 . S
C1759 C1752 1.409 . S
C1759 C1758 1.362 . S
H1760 C1766 0.930 . S
H1761 C1769 0.930 . S
H1762 C1770 0.930 . S
H1763 C1771 0.930 1_556 S
H1764 C1774 0.930 . S
H1765 C1775 0.930 . S
C1766 H1760 0.930 . S
C1766 C1767 1.355 . S
C1766 C1768 1.415 . S
C1767 C1766 1.355 . S
C1767 C1769 1.419 1_554 S
C1768 C1766 1.415 . S
C1768 C1773 1.425 . S
C1768 C1775 1.409 . S
C1769 H1761 0.930 . S
C1769 C1767 1.419 1_556 S
C1769 C1770 1.362 . S
C1770 H1762 0.930 . S
C1770 C1769 1.362 . S
C1770 C1773 1.409 1_556 S
C1771 H1763 0.930 1_554 S
C1771 C1772 1.355 . S
C1771 C1773 1.415 . S
C1772 C1771 1.355 . S
C1772 C1774 1.419 . S
C1773 C1768 1.425 . S
C1773 C1770 1.409 1_554 S
C1773 C1771 1.415 . S
C1774 H1764 0.930 . S
C1774 C1772 1.419 . S
C1774 C1775 1.362 . S
C1775 H1765 0.930 . S
C1775 C1768 1.409 . S
C1775 C1774 1.362 . S
H1776 C1782 0.930 . S
H1777 C1785 0.930 . S
H1778 C1786 0.930 . S
H1779 C1787 0.930 . S
H1780 C1790 0.930 . S
H1781 C1791 0.930 . S
C1782 H1776 0.930 . S
C1782 C1783 1.355 . S
C1782 C1784 1.415 . S
C1783 C1782 1.355 . S
C1783 C1785 1.419 . S
C1784 C1782 1.415 . S
C1784 C1789 1.425 . S
C1784 C1791 1.409 . S
C1785 H1777 0.930 . S
C1785 C1783 1.419 . S
C1785 C1786 1.362 . S
C1786 H1778 0.930 . S
C1786 C1785 1.362 . S
C1786 C1789 1.409 . S
C1787 H1779 0.930 . S
C1787 C1788 1.355 . S
C1787 C1789 1.415 . S
C1788 C1787 1.355 . S
C1788 C1790 1.419 . S
C1789 C1784 1.425 . S
C1789 C1786 1.409 . S
C1789 C1787 1.415 . S
C1790 H1780 0.930 . S
C1790 C1788 1.419 . S
C1790 C1791 1.362 . S
C1791 H1781 0.930 . S
C1791 C1784 1.409 . S
C1791 C1790 1.362 . S
H1792 C1798 0.930 . S
H1793 C1801 0.930 . S
H1794 C1802 0.930 . S
H1795 C1803 0.930 . S
H1796 C1806 0.930 . S
H1797 C1807 0.930 . S
C1798 H1792 0.930 . S
C1798 C1799 1.355 . S
C1798 C1800 1.415 . S
C1799 C1798 1.355 . S
C1799 C1801 1.419 . S
C1800 C1798 1.415 . S
C1800 C1805 1.425 . S
C1800 C1807 1.409 . S
C1801 H1793 0.930 . S
C1801 C1799 1.419 . S
C1801 C1802 1.362 . S
C1802 H1794 0.930 . S
C1802 C1801 1.362 . S
C1802 C1805 1.409 . S
C1803 H1795 0.930 . S
C1803 C1804 1.355 . S
C1803 C1805 1.415 . S
C1804 C1803 1.355 . S
C1804 C1806 1.419 . S
C1805 C1800 1.425 . S
C1805 C1802 1.409 . S
C1805 C1803 1.415 . S
C1806 H1796 0.930 . S
C1806 C1804 1.419 . S
C1806 C1807 1.362 . S
C1807 H1797 0.930 . S
C1807 C1800 1.409 . S
C1807 C1806 1.362 . S
H1808 C1814 0.930 . S
H1809 C1817 0.930 . S
H1810 C1818 0.930 . S
H1811 C1819 0.930 . S
H1812 C1822 0.930 . S
H1813 C1823 0.930 . S
C1814 H1808 0.930 . S
C1814 C1815 1.355 . S
C1814 C1816 1.415 . S
C1815 C1814 1.355 . S
C1815 C1817 1.419 . S
C1816 C1814 1.415 . S
C1816 C1821 1.425 . S
C1816 C1823 1.409 . S
C1817 H1809 0.930 . S
C1817 C1815 1.419 . S
C1817 C1818 1.362 . S
C1818 H1810 0.930 . S
C1818 C1817 1.362 . S
C1818 C1821 1.409 . S
C1819 H1811 0.930 . S
C1819 C1820 1.355 . S
C1819 C1821 1.415 . S
C1820 C1819 1.355 . S
C1820 C1822 1.419 . S
C1821 C1816 1.425 . S
C1821 C1818 1.409 . S
C1821 C1819 1.415 . S
C1822 H1812 0.930 . S
C1822 C1820 1.419 . S
C1822 C1823 1.362 . S
C1823 H1813 0.930 . S
C1823 C1816 1.409 . S
C1823 C1822 1.362 . S
H1824 C1830 0.930 . S
H1825 C1833 0.930 . S
H1826 C1834 0.930 . S
H1827 C1835 0.930 . S
H1828 C1838 0.930 . S
H1829 C1839 0.930 . S
C1830 H1824 0.930 . S
C1830 C1831 1.355 . S
C1830 C1832 1.415 . S
C1831 C1830 1.355 . S
C1831 C1833 1.419 . S
C1832 C1830 1.415 . S
C1832 C1837 1.425 . S
C1832 C1839 1.409 . S
C1833 H1825 0.930 . S
C1833 C1831 1.419 . S
C1833 C1834 1.362 . S
C1834 H1826 0.930 . S
C1834 C1833 1.362 . S
C1834 C1837 1.409 . S
C1835 H1827 0.930 . S
C1835 C1836 1.355 . S
C1835 C1837 1.415 . S
C1836 C1835 1.355 . S
C1836 C1838 1.419 . S
C1837 C1832 1.425 . S
C1837 C1834 1.409 . S
C1837 C1835 1.415 . S
C1838 H1828 0.930 . S
C1838 C1836 1.419 . S
C1838 C1839 1.362 . S
C1839 H1829 0.930 . S
C1839 C1832 1.409 . S
C1839 C1838 1.362 . S
H1840 C1846 0.930 . S
H1841 C1849 0.932 . S
H1842 C1850 0.930 . S
H1843 C1851 0.930 1_655 S
H1844 C1854 0.930 . S
H1845 C1855 0.930 . S
C1846 H1840 0.930 . S
C1846 C1847 1.355 . S
C1846 C1848 1.415 . S
C1847 C1846 1.355 . S
C1847 C1849 1.417 1_455 S
C1848 C1846 1.415 . S
C1848 C1853 1.425 . S
C1848 C1855 1.409 . S
C1849 H1841 0.932 . S
C1849 C1847 1.417 1_655 S
C1849 C1850 1.362 . S
C1850 H1842 0.930 . S
C1850 C1849 1.362 . S
C1850 C1853 1.409 1_655 S
C1851 H1843 0.930 1_455 S
C1851 C1852 1.355 . S
C1851 C1853 1.415 . S
C1852 C1851 1.355 . S
C1852 C1854 1.419 . S
C1853 C1848 1.425 . S
C1853 C1850 1.409 1_455 S
C1853 C1851 1.415 . S
C1854 H1844 0.930 . S
C1854 C1852 1.419 . S
C1854 C1855 1.362 . S
C1855 H1845 0.930 . S
C1855 C1848 1.409 . S
C1855 C1854 1.362 . S
H1856 C1862 0.930 . S
H1857 C1865 0.930 . S
H1858 C1866 0.930 . S
H1859 C1867 0.930 . S
H1860 C1870 0.930 . S
H1861 C1871 0.930 . S
C1862 H1856 0.930 . S
C1862 C1863 1.355 . S
C1862 C1864 1.415 . S
C1863 C1862 1.355 . S
C1863 C1865 1.419 . S
C1864 C1862 1.415 . S
C1864 C1869 1.425 . S
C1864 C1871 1.409 . S
C1865 H1857 0.930 . S
C1865 C1863 1.419 . S
C1865 C1866 1.362 . S
C1866 H1858 0.930 . S
C1866 C1865 1.362 . S
C1866 C1869 1.409 . S
C1867 H1859 0.930 . S
C1867 C1868 1.355 . S
C1867 C1869 1.415 . S
C1868 C1867 1.355 . S
C1868 C1870 1.419 . S
C1869 C1864 1.425 . S
C1869 C1866 1.409 . S
C1869 C1867 1.415 . S
C1870 H1860 0.930 . S
C1870 C1868 1.419 . S
C1870 C1871 1.362 . S
C1871 H1861 0.930 . S
C1871 C1864 1.409 . S
C1871 C1870 1.362 . S
H1872 C1878 0.930 . S
H1873 C1881 0.930 . S
H1874 C1882 0.930 . S
H1875 C1883 0.930 . S
H1876 C1886 0.930 1_554 S
H1877 C1887 0.930 . S
C1878 H1872 0.930 . S
C1878 C1879 1.355 . S
C1878 C1880 1.415 . S
C1879 C1878 1.355 . S
C1879 C1881 1.419 . S
C1880 C1878 1.415 . S
C1880 C1885 1.425 . S
C1880 C1887 1.409 . S
C1881 H1873 0.930 . S
C1881 C1879 1.419 . S
C1881 C1882 1.362 . S
C1882 H1874 0.930 . S
C1882 C1881 1.362 . S
C1882 C1885 1.409 . S
C1883 H1875 0.930 . S
C1883 C1884 1.355 . S
C1883 C1885 1.415 . S
C1884 C1883 1.355 . S
C1884 C1886 1.419 . S
C1885 C1880 1.425 . S
C1885 C1882 1.409 . S
C1885 C1883 1.415 . S
C1886 H1876 0.930 1_556 S
C1886 C1884 1.419 . S
C1886 C1887 1.362 . S
C1887 H1877 0.930 . S
C1887 C1880 1.409 . S
C1887 C1886 1.362 . S
H1888 C1894 0.930 . S
H1889 C1897 0.930 . S
H1890 C1898 0.930 . S
H1891 C1899 0.930 . S
H1892 C1902 0.930 . S
H1893 C1903 0.930 . S
C1894 H1888 0.930 . S
C1894 C1895 1.355 . S
C1894 C1896 1.415 . S
C1895 C1894 1.355 . S
C1895 C1897 1.419 . S
C1896 C1894 1.415 . S
C1896 C1901 1.425 . S
C1896 C1903 1.409 . S
C1897 H1889 0.930 . S
C1897 C1895 1.419 . S
C1897 C1898 1.362 . S
C1898 H1890 0.930 . S
C1898 C1897 1.362 . S
C1898 C1901 1.409 . S
C1899 H1891 0.930 . S
C1899 C1900 1.355 . S
C1899 C1901 1.415 . S
C1900 C1899 1.355 . S
C1900 C1902 1.419 . S
C1901 C1896 1.425 . S
C1901 C1898 1.409 . S
C1901 C1899 1.415 . S
C1902 H1892 0.930 . S
C1902 C1900 1.419 . S
C1902 C1903 1.362 . S
C1903 H1893 0.930 . S
C1903 C1896 1.409 . S
C1903 C1902 1.362 . S
H1904 C1910 0.930 1_655 S
H1905 C1913 0.930 . S
H1906 C1914 0.930 . S
H1907 C1915 0.930 . S
H1908 C1918 0.930 . S
H1909 C1919 0.930 . S
C1910 H1904 0.930 1_455 S
C1910 C1911 1.355 . S
C1910 C1912 1.415 . S
C1911 C1910 1.355 . S
C1911 C1913 1.419 . S
C1912 C1910 1.415 . S
C1912 C1917 1.425 . S
C1912 C1919 1.409 1_455 S
C1913 H1905 0.930 . S
C1913 C1911 1.419 . S
C1913 C1914 1.362 . S
C1914 H1906 0.930 . S
C1914 C1913 1.362 . S
C1914 C1917 1.409 . S
C1915 H1907 0.930 . S
C1915 C1916 1.355 . S
C1915 C1917 1.415 . S
C1916 C1915 1.355 . S
C1916 C1918 1.419 1_455 S
C1917 C1912 1.425 . S
C1917 C1914 1.409 . S
C1917 C1915 1.415 . S
C1918 H1908 0.930 . S
C1918 C1916 1.419 1_655 S
C1918 C1919 1.362 . S
C1919 H1909 0.930 . S
C1919 C1912 1.409 1_655 S
C1919 C1918 1.362 . S
H1920 C1926 0.930 . S
H1921 C1929 0.930 . S
H1922 C1930 0.930 . S
H1923 C1931 0.930 . S
H1924 C1934 0.930 . S
H1925 C1935 0.930 . S
C1926 H1920 0.930 . S
C1926 C1927 1.355 . S
C1926 C1928 1.415 . S
C1927 C1926 1.355 . S
C1927 C1929 1.419 . S
C1928 C1926 1.415 . S
C1928 C1933 1.425 . S
C1928 C1935 1.409 . S
C1929 H1921 0.930 . S
C1929 C1927 1.419 . S
C1929 C1930 1.362 . S
C1930 H1922 0.930 . S
C1930 C1929 1.362 . S
C1930 C1933 1.409 . S
C1931 H1923 0.930 . S
C1931 C1932 1.355 . S
C1931 C1933 1.415 . S
C1932 C1931 1.355 . S
C1932 C1934 1.419 . S
C1933 C1928 1.425 . S
C1933 C1930 1.409 . S
C1933 C1931 1.415 . S
C1934 H1924 0.930 . S
C1934 C1932 1.419 . S
C1934 C1935 1.362 . S
C1935 H1925 0.930 . S
C1935 C1928 1.409 . S
C1935 C1934 1.362 . S
H1936 C1942 0.930 . S
H1937 C1945 0.930 . S
H1938 C1946 0.930 . S
H1939 C1947 0.930 . S
H1940 C1950 0.930 . S
H1941 C1951 0.930 . S
C1942 H1936 0.930 . S
C1942 C1943 1.355 . S
C1942 C1944 1.415 . S
C1943 C1942 1.355 . S
C1943 C1945 1.419 . S
C1944 C1942 1.415 . S
C1944 C1949 1.425 . S
C1944 C1951 1.409 . S
C1945 H1937 0.930 . S
C1945 C1943 1.419 . S
C1945 C1946 1.362 . S
C1946 H1938 0.930 . S
C1946 C1945 1.362 . S
C1946 C1949 1.409 . S
C1947 H1939 0.930 . S
C1947 C1948 1.355 . S
C1947 C1949 1.415 . S
C1948 C1947 1.355 . S
C1948 C1950 1.419 . S
C1949 C1944 1.425 . S
C1949 C1946 1.409 . S
C1949 C1947 1.415 . S
C1950 H1940 0.930 . S
C1950 C1948 1.419 . S
C1950 C1951 1.362 . S
C1951 H1941 0.930 . S
C1951 C1944 1.409 . S
C1951 C1950 1.362 . S
H1952 C1958 0.930 . S
H1953 C1961 0.930 . S
H1954 C1962 0.930 . S
H1955 C1963 0.930 . S
H1956 C1966 0.930 . S
H1957 C1967 0.930 . S
C1958 H1952 0.930 . S
C1958 C1959 1.355 . S
C1958 C1960 1.415 . S
C1959 C1958 1.355 . S
C1959 C1961 1.419 . S
C1960 C1958 1.415 . S
C1960 C1965 1.425 . S
C1960 C1967 1.409 . S
C1961 H1953 0.930 . S
C1961 C1959 1.419 . S
C1961 C1962 1.362 . S
C1962 H1954 0.930 . S
C1962 C1961 1.362 . S
C1962 C1965 1.409 . S
C1963 H1955 0.930 . S
C1963 C1964 1.355 . S
C1963 C1965 1.415 . S
C1964 C1963 1.355 . S
C1964 C1966 1.419 . S
C1965 C1960 1.425 . S
C1965 C1962 1.409 . S
C1965 C1963 1.415 . S
C1966 H1956 0.930 . S
C1966 C1964 1.419 . S
C1966 C1967 1.362 . S
C1967 H1957 0.930 . S
C1967 C1960 1.409 . S
C1967 C1966 1.362 . S
H1968 C1974 0.930 . S
H1969 C1977 0.930 . S
H1970 C1978 0.930 . S
H1971 C1979 0.930 . S
H1972 C1982 0.930 . S
H1973 C1983 0.930 . S
C1974 H1968 0.930 . S
C1974 C1975 1.355 . S
C1974 C1976 1.415 . S
C1975 C1974 1.355 . S
C1975 C1977 1.419 . S
C1976 C1974 1.415 . S
C1976 C1981 1.425 . S
C1976 C1983 1.409 . S
C1977 H1969 0.930 . S
C1977 C1975 1.419 . S
C1977 C1978 1.362 . S
C1978 H1970 0.930 . S
C1978 C1977 1.362 . S
C1978 C1981 1.409 . S
C1979 H1971 0.930 . S
C1979 C1980 1.355 . S
C1979 C1981 1.415 . S
C1980 C1979 1.355 . S
C1980 C1982 1.419 . S
C1981 C1976 1.425 . S
C1981 C1978 1.409 . S
C1981 C1979 1.415 . S
C1982 H1972 0.930 . S
C1982 C1980 1.419 . S
C1982 C1983 1.362 . S
C1983 H1973 0.930 . S
C1983 C1976 1.409 . S
C1983 C1982 1.362 . S
H1984 C1990 0.930 . S
H1985 C1993 0.930 . S
H1986 C1994 0.930 . S
H1987 C1995 0.930 . S
H1988 C1998 0.930 . S
H1989 C1999 0.930 . S
C1990 H1984 0.930 . S
C1990 C1991 1.355 . S
C1990 C1992 1.415 . S
C1991 C1990 1.355 . S
C1991 C1993 1.419 . S
C1992 C1990 1.415 . S
C1992 C1997 1.425 . S
C1992 C1999 1.409 . S
C1993 H1985 0.930 . S
C1993 C1991 1.419 . S
C1993 C1994 1.362 . S
C1994 H1986 0.930 . S
C1994 C1993 1.362 . S
C1994 C1997 1.409 . S
C1995 H1987 0.930 . S
C1995 C1996 1.355 . S
C1995 C1997 1.415 . S
C1996 C1995 1.355 . S
C1996 C1998 1.419 . S
C1997 C1992 1.425 . S
C1997 C1994 1.409 . S
C1997 C1995 1.415 . S
C1998 H1988 0.930 . S
C1998 C1996 1.419 . S
C1998 C1999 1.362 . S
C1999 H1989 0.930 . S
C1999 C1992 1.409 . S
C1999 C1998 1.362 . S
H2000 C2006 0.930 . S
H2001 C2009 0.930 . S
H2002 C2010 0.930 . S
H2003 C2011 0.930 . S
H2004 C2014 0.930 . S
H2005 C2015 0.930 . S
C2006 H2000 0.930 . S
C2006 C2007 1.355 . S
C2006 C2008 1.415 . S
C2007 C2006 1.355 . S
C2007 C2009 1.419 . S
C2008 C2006 1.415 . S
C2008 C2013 1.425 . S
C2008 C2015 1.409 . S
C2009 H2001 0.930 . S
C2009 C2007 1.419 . S
C2009 C2010 1.362 . S
C2010 H2002 0.930 . S
C2010 C2009 1.362 . S
C2010 C2013 1.409 . S
C2011 H2003 0.930 . S
C2011 C2012 1.355 . S
C2011 C2013 1.415 . S
C2012 C2011 1.355 . S
C2012 C2014 1.419 . S
C2013 C2008 1.425 . S
C2013 C2010 1.409 . S
C2013 C2011 1.415 . S
C2014 H2004 0.930 . S
C2014 C2012 1.419 . S
C2014 C2015 1.362 . S
C2015 H2005 0.930 . S
C2015 C2008 1.409 . S
C2015 C2014 1.362 . S
H2016 C2022 0.930 . S
H2017 C2025 0.930 . S
H2018 C2026 0.930 . S
H2019 C2027 0.930 . S
H2020 C2030 0.930 . S
H2021 C2031 0.930 . S
C2022 H2016 0.930 . S
C2022 C2023 1.355 . S
C2022 C2024 1.415 . S
C2023 C2022 1.355 . S
C2023 C2025 1.419 . S
C2024 C2022 1.415 . S
C2024 C2029 1.425 . S
C2024 C2031 1.409 . S
C2025 H2017 0.930 . S
C2025 C2023 1.419 . S
C2025 C2026 1.362 . S
C2026 H2018 0.930 . S
C2026 C2025 1.362 . S
C2026 C2029 1.409 . S
C2027 H2019 0.930 . S
C2027 C2028 1.355 . S
C2027 C2029 1.415 . S
C2028 C2027 1.355 . S
C2028 C2030 1.419 . S
C2029 C2024 1.425 . S
C2029 C2026 1.409 . S
C2029 C2027 1.415 . S
C2030 H2020 0.930 . S
C2030 C2028 1.419 . S
C2030 C2031 1.362 . S
C2031 H2021 0.930 . S
C2031 C2024 1.409 . S
C2031 C2030 1.362 . S
H2032 C2038 0.930 . S
H2033 C2041 0.930 . S
H2034 C2042 0.930 . S
H2035 C2043 0.930 . S
H2036 C2046 0.930 1_455 S
H2037 C2047 0.930 . S
C2038 H2032 0.930 . S
C2038 C2039 1.355 . S
C2038 C2040 1.415 . S
C2039 C2038 1.355 . S
C2039 C2041 1.419 . S
C2040 C2038 1.415 . S
C2040 C2045 1.425 . S
C2040 C2047 1.409 . S
C2041 H2033 0.930 . S
C2041 C2039 1.419 . S
C2041 C2042 1.362 . S
C2042 H2034 0.930 . S
C2042 C2041 1.362 . S
C2042 C2045 1.409 . S
C2043 H2035 0.930 . S
C2043 C2044 1.355 . S
C2043 C2045 1.415 . S
C2044 C2043 1.355 . S
C2044 C2046 1.419 . S
C2045 C2040 1.425 . S
C2045 C2042 1.409 . S
C2045 C2043 1.415 . S
C2046 H2036 0.930 1_655 S
C2046 C2044 1.419 . S
C2046 C2047 1.362 . S
C2047 H2037 0.930 . S
C2047 C2040 1.409 . S
C2047 C2046 1.362 . S
H2048 C2054 0.930 . S
H2049 C2057 0.930 . S
H2050 C2058 0.930 . S
H2051 C2059 0.930 . S
H2052 C2062 0.930 . S
H2053 C2063 0.930 . S
C2054 H2048 0.930 . S
C2054 C2055 1.355 . S
C2054 C2056 1.415 . S
C2055 C2054 1.355 . S
C2055 C2057 1.419 . S
C2056 C2054 1.415 . S
C2056 C2061 1.425 . S
C2056 C2063 1.409 . S
C2057 H2049 0.930 . S
C2057 C2055 1.419 . S
C2057 C2058 1.362 . S
C2058 H2050 0.930 . S
C2058 C2057 1.362 . S
C2058 C2061 1.409 . S
C2059 H2051 0.930 . S
C2059 C2060 1.355 . S
C2059 C2061 1.415 . S
C2060 C2059 1.355 . S
C2060 C2062 1.419 . S
C2061 C2056 1.425 . S
C2061 C2058 1.409 . S
C2061 C2059 1.415 . S
C2062 H2052 0.930 . S
C2062 C2060 1.419 . S
C2062 C2063 1.362 . S
C2063 H2053 0.930 . S
C2063 C2056 1.409 . S
C2063 C2062 1.362 . S
H2064 C2070 0.930 . S
H2065 C2073 0.930 . S
H2066 C2074 0.930 . S
H2067 C2075 0.930 . S
H2068 C2078 0.930 . S
H2069 C2079 0.930 . S
C2070 H2064 0.930 . S
C2070 C2071 1.355 . S
C2070 C2072 1.415 . S
C2071 C2070 1.355 . S
C2071 C2073 1.419 . S
C2072 C2070 1.415 . S
C2072 C2077 1.425 . S
C2072 C2079 1.409 . S
C2073 H2065 0.930 . S
C2073 C2071 1.419 . S
C2073 C2074 1.362 . S
C2074 H2066 0.930 . S
C2074 C2073 1.362 . S
C2074 C2077 1.409 . S
C2075 H2067 0.930 . S
C2075 C2076 1.355 . S
C2075 C2077 1.415 . S
C2076 C2075 1.355 . S
C2076 C2078 1.419 . S
C2077 C2072 1.425 . S
C2077 C2074 1.409 . S
C2077 C2075 1.415 . S
C2078 H2068 0.930 . S
C2078 C2076 1.419 . S
C2078 C2079 1.362 . S
C2079 H2069 0.930 . S
C2079 C2072 1.409 . S
C2079 C2078 1.362 . S
H2080 C2086 0.930 . S
H2081 C2089 0.930 . S
H2082 C2090 0.930 . S
H2083 C2091 0.930 . S
H2084 C2094 0.930 . S
H2085 C2095 0.930 . S
C2086 H2080 0.930 . S
C2086 C2087 1.355 . S
C2086 C2088 1.415 . S
C2087 C2086 1.355 . S
C2087 C2089 1.419 . S
C2088 C2086 1.415 . S
C2088 C2093 1.425 . S
C2088 C2095 1.409 . S
C2089 H2081 0.930 . S
C2089 C2087 1.419 . S
C2089 C2090 1.362 . S
C2090 H2082 0.930 . S
C2090 C2089 1.362 . S
C2090 C2093 1.409 . S
C2091 H2083 0.930 . S
C2091 C2092 1.355 . S
C2091 C2093 1.415 . S
C2092 C2091 1.355 . S
C2092 C2094 1.419 . S
C2093 C2088 1.425 . S
C2093 C2090 1.409 . S
C2093 C2091 1.415 . S
C2094 H2084 0.930 . S
C2094 C2092 1.419 . S
C2094 C2095 1.362 . S
C2095 H2085 0.930 . S
C2095 C2088 1.409 . S
C2095 C2094 1.362 . S
H2096 C2102 0.930 . S
H2097 C2105 0.930 . S
H2098 C2106 0.930 . S
H2099 C2107 0.930 . S
H2100 C2110 0.930 . S
H2101 C2111 0.930 . S
C2102 H2096 0.930 . S
C2102 C2103 1.355 . S
C2102 C2104 1.415 . S
C2103 C2102 1.355 . S
C2103 C2105 1.419 . S
C2104 C2102 1.415 . S
C2104 C2109 1.425 . S
C2104 C2111 1.409 . S
C2105 H2097 0.930 . S
C2105 C2103 1.419 . S
C2105 C2106 1.362 . S
C2106 H2098 0.930 . S
C2106 C2105 1.362 . S
C2106 C2109 1.409 . S
C2107 H2099 0.930 . S
C2107 C2108 1.355 . S
C2107 C2109 1.415 . S
C2108 C2107 1.355 . S
C2108 C2110 1.419 . S
C2109 C2104 1.425 . S
C2109 C2106 1.409 . S
C2109 C2107 1.415 . S
C2110 H2100 0.930 . S
C2110 C2108 1.419 . S
C2110 C2111 1.362 . S
C2111 H2101 0.930 . S
C2111 C2104 1.409 . S
C2111 C2110 1.362 . S
H2112 C2118 0.930 . S
H2113 C2121 0.930 . S
H2114 C2122 0.930 . S
H2115 C2123 0.930 . S
H2116 C2126 0.930 . S
H2117 C2127 0.930 . S
C2118 H2112 0.930 . S
C2118 C2119 1.355 . S
C2118 C2120 1.415 . S
C2119 C2118 1.355 . S
C2119 C2121 1.419 . S
C2120 C2118 1.415 . S
C2120 C2125 1.425 . S
C2120 C2127 1.409 . S
C2121 H2113 0.930 . S
C2121 C2119 1.419 . S
C2121 C2122 1.362 . S
C2122 H2114 0.930 . S
C2122 C2121 1.362 . S
C2122 C2125 1.409 . S
C2123 H2115 0.930 . S
C2123 C2124 1.355 . S
C2123 C2125 1.415 . S
C2124 C2123 1.355 . S
C2124 C2126 1.419 . S
C2125 C2120 1.425 . S
C2125 C2122 1.409 . S
C2125 C2123 1.415 . S
C2126 H2116 0.930 . S
C2126 C2124 1.419 . S
C2126 C2127 1.362 . S
C2127 H2117 0.930 . S
C2127 C2120 1.409 . S
C2127 C2126 1.362 . S
H2128 C2134 0.930 . S
H2129 C2137 0.930 . S
H2130 C2138 0.930 . S
H2131 C2139 0.930 . S
H2132 C2142 0.930 . S
H2133 C2143 0.930 . S
C2134 H2128 0.930 . S
C2134 C2135 1.355 . S
C2134 C2136 1.415 . S
C2135 C2134 1.355 . S
C2135 C2137 1.419 . S
C2136 C2134 1.415 . S
C2136 C2141 1.425 . S
C2136 C2143 1.409 . S
C2137 H2129 0.930 . S
C2137 C2135 1.419 . S
C2137 C2138 1.362 . S
C2138 H2130 0.930 . S
C2138 C2137 1.362 . S
C2138 C2141 1.409 . S
C2139 H2131 0.930 . S
C2139 C2140 1.355 . S
C2139 C2141 1.415 . S
C2140 C2139 1.355 . S
C2140 C2142 1.419 . S
C2141 C2136 1.425 . S
C2141 C2138 1.409 . S
C2141 C2139 1.415 . S
C2142 H2132 0.930 . S
C2142 C2140 1.419 . S
C2142 C2143 1.362 . S
C2143 H2133 0.930 . S
C2143 C2136 1.409 . S
C2143 C2142 1.362 . S
H2144 C2150 0.930 . S
H2145 C2153 0.930 . S
H2146 C2154 0.930 . S
H2147 C2155 0.930 . S
H2148 C2158 0.930 . S
H2149 C2159 0.930 . S
C2150 H2144 0.930 . S
C2150 C2151 1.355 . S
C2150 C2152 1.415 . S
C2151 C2150 1.355 . S
C2151 C2153 1.419 . S
C2152 C2150 1.415 . S
C2152 C2157 1.425 . S
C2152 C2159 1.409 1_554 S
C2153 H2145 0.930 . S
C2153 C2151 1.419 . S
C2153 C2154 1.362 . S
C2154 H2146 0.930 . S
C2154 C2153 1.362 . S
C2154 C2157 1.409 . S
C2155 H2147 0.930 . S
C2155 C2156 1.355 . S
C2155 C2157 1.415 . S
C2156 C2155 1.355 . S
C2156 C2158 1.419 1_554 S
C2157 C2152 1.425 . S
C2157 C2154 1.409 . S
C2157 C2155 1.415 . S
C2158 H2148 0.930 . S
C2158 C2156 1.419 1_556 S
C2158 C2159 1.362 . S
C2159 H2149 0.930 . S
C2159 C2152 1.409 1_556 S
C2159 C2158 1.362 . S
H2160 C2166 0.930 . S
H2161 C2169 0.930 . S
H2162 C2170 0.930 . S
H2163 C2171 0.930 . S
H2164 C2174 0.930 . S
H2165 C2175 0.930 . S
C2166 H2160 0.930 . S
C2166 C2167 1.355 . S
C2166 C2168 1.415 . S
C2167 C2166 1.355 . S
C2167 C2169 1.419 . S
C2168 C2166 1.415 . S
C2168 C2173 1.425 . S
C2168 C2175 1.409 . S
C2169 H2161 0.930 . S
C2169 C2167 1.419 . S
C2169 C2170 1.362 . S
C2170 H2162 0.930 . S
C2170 C2169 1.362 . S
C2170 C2173 1.409 . S
C2171 H2163 0.930 . S
C2171 C2172 1.355 . S
C2171 C2173 1.415 . S
C2172 C2171 1.355 . S
C2172 C2174 1.419 . S
C2173 C2168 1.425 . S
C2173 C2170 1.409 . S
C2173 C2171 1.415 . S
C2174 H2164 0.930 . S
C2174 C2172 1.419 . S
C2174 C2175 1.362 . S
C2175 H2165 0.930 . S
C2175 C2168 1.409 . S
C2175 C2174 1.362 . S
H2176 C2182 0.930 . S
H2177 C2185 0.930 . S
H2178 C2186 0.930 . S
H2179 C2187 0.930 . S
H2180 C2190 0.930 . S
H2181 C2191 0.930 . S
C2182 H2176 0.930 . S
C2182 C2183 1.355 . S
C2182 C2184 1.415 . S
C2183 C2182 1.355 . S
C2183 C2185 1.419 . S
C2184 C2182 1.415 . S
C2184 C2189 1.425 . S
C2184 C2191 1.409 . S
C2185 H2177 0.930 . S
C2185 C2183 1.419 . S
C2185 C2186 1.362 . S
C2186 H2178 0.930 . S
C2186 C2185 1.362 . S
C2186 C2189 1.409 . S
C2187 H2179 0.930 . S
C2187 C2188 1.355 . S
C2187 C2189 1.415 . S
C2188 C2187 1.355 . S
C2188 C2190 1.419 . S
C2189 C2184 1.425 . S
C2189 C2186 1.409 . S
C2189 C2187 1.415 . S
C2190 H2180 0.930 . S
C2190 C2188 1.419 . S
C2190 C2191 1.362 . S
C2191 H2181 0.930 . S
C2191 C2184 1.409 . S
C2191 C2190 1.362 . S
C663 C105 1.470 1_455 S
C668 C340 1.238 . S
C679 C65 1.556 . S
C684 C375 1.496 . S
C695 C73 1.176 . S
C700 C380 1.033 . S
C716 C405 1.321 . S
C711 C92 1.450 . S
C727 C17 1.501 . S
C732 C425 1.454 . S
C748 C440 1.078 . S
C743 C37 1.156 . S
C764 C475 1.553 . S
C759 C49 1.481 . S
C775 C8 1.443 . S
C780 C480 1.214 . S
C796 C355 1.567 1_655 S
C791 C231 1.589 . S
C807 C241 1.074 . S
C812 C365 1.032 . S
C828 C395 1.403 . S
C823 C273 1.409 . S
C844 C400 1.114 . S
C839 C171 1.259 . S
C855 C227 1.247 . S
C860 C420 1.160 . S
C876 C455 1.440 . S
C871 C245 1.452 . S
C892 C465 0.955 . S
C887 C269 1.093 . S
C908 C495 1.609 . S
C903 C175 1.604 . S
C924 C345 1.405 . S
C919 C162 1.531 . S
C935 C289 1.774 . S
C940 C515 1.760 . S
C956 C525 1.406 . S
C951 C330 1.553 . S
C972 C540 1.065 . S
C967 C317 1.119 . S
C983 C120 1.494 . S
C988 C485 1.366 . S
C999 C134 1.582 . S
C1004 C385 1.449 . S
C1015 C331 1.736 . S
C1020 C575 1.700 . S
C1036 C580 1.033 . S
C1031 C303 1.097 . S
C1052 C338 1.358 . S
C1047 C59 1.516 . S
C1068 C594 1.531 . S
C1063 C107 1.572 . S
C1079 C91 1.188 . S
C1084 C378 1.138 . S
C1095 C78 1.469 . S
C1100 C568 1.362 . S
C1116 C428 1.417 . S
C1111 C7 1.484 . S
C1127 C51 1.184 . S
C1132 C518 1.008 . S
C1148 C474 1.576 1_556 S
C1143 C31 1.587 . S
C1164 C598 1.337 . S
C1159 C22 1.482 . S
C1180 C354 1.612 . S
C1175 C143 1.684 . S
C1196 C588 1.097 . S
C1191 C315 1.095 . S
C1207 C115 1.495 . S
C1212 C394 1.461 . S
C1223 C287 1.288 . S
C1228 C558 1.239 . S
C1239 C147 1.207 . S
C1244 C418 1.123 . S
C1260 C534 1.462 . S
C1255 C311 1.499 . S
C1271 C119 1.133 . S
C1276 C468 1.108 1_565 S
C1287 C283 1.678 . S
C1292 C614 1.627 . S
C1303 C190 1.520 . S
C1308 C348 1.410 . S
C1319 C177 1.809 . S
C1324 C514 1.754 . S
C1335 C260 1.544 . S
C1340 C448 1.416 . S
C1351 C247 1.151 . S
C1356 C538 1.122 . S
C1372 C608 1.382 . S
C1367 C274 1.491 . S
C1383 C218 1.607 . S
C1388 C388 1.532 . S
C1404 C414 1.718 . S
C1399 C261 1.771 . S
C1420 C358 0.964 . S
C1415 C205 1.122 . S
C1431 C77 1.516 . S
C1436 C620 1.356 . S
C1452 C595 1.531 . S
C1447 C93 1.536 . S
C1463 C101 1.181 . S
C1468 C640 1.080 1_556 S
C1479 C64 1.466 . S
C1484 C565 1.401 . S
C1495 C45 1.503 . S
C1500 C505 1.465 . S
C1516 C520 0.997 . S
C1511 C9 1.172 . S
C1532 C555 1.553 . S
C1527 C21 1.481 . S
C1548 C600 1.222 . S
C1543 C36 1.465 . S
C1564 C635 1.589 . S
C1559 C259 1.649 . S
C1575 C185 1.099 . S
C1580 C585 1.021 . S
C1596 C655 1.418 . S
C1591 C203 1.455 . S
C1612 C560 1.192 . S
C1607 C213 1.264 . S
C1628 C500 1.194 . S
C1623 C255 1.257 . S
C1639 C189 1.435 . S
C1644 C535 1.458 . S
C1660 C545 1.034 . S
C1655 C199 1.082 . S
C1671 C217 1.583 . S
C1676 C615 1.561 . S
C1692 C625 1.278 . S
C1687 C316 1.478 . S
C1703 C135 1.774 . S
C1708 C435 1.737 . S
C1724 C445 1.489 . S
C1719 C148 1.586 . S
C1740 C460 1.102 . S
C1735 C163 1.128 . S
C1756 C605 1.258 . S
C1751 C302 1.447 . S
C1767 C288 1.606 . S
C1772 C645 1.516 . S
C1788 C415 1.710 . S
C1783 C149 1.737 . S
C1804 C360 1.077 . S
C1799 C121 1.105 . S
C1815 C87 1.490 . S
C1820 C618 1.239 . S
C1836 C374 1.523 . S
C1831 C79 1.583 . S
C1847 C63 1.206 . S
C1852 C638 1.165 . S
C1863 C106 1.470 . S
C1868 C408 1.354 . S
C1879 C35 1.533 . S
C1884 C508 1.492 . S
C1900 C438 1.021 . S
C1895 C23 1.195 . S
C1911 C3 1.596 . S
C1916 C554 1.544 . S
C1927 C50 1.459 . S
C1932 C478 1.274 . S
C1948 C634 1.557 . S
C1943 C325 1.670 . S
C1959 C161 1.035 . S
C1964 C368 0.987 . S
C1980 C654 1.474 1_655 S
C1975 C297 1.489 . S
C1991 C133 1.256 . S
C1996 C398 1.194 . S
C2007 C329 1.264 . S
C2012 C498 1.208 . S
C2028 C454 1.432 . S
C2023 C157 1.505 . S
C2039 C301 1.135 . S
C2044 C548 1.118 . S
C2060 C494 1.625 . S
C2055 C129 1.679 . S
C2076 C628 1.288 . S
C2071 C246 1.460 . S
C2092 C434 1.778 . S
C2087 C219 1.799 . S
C2103 C232 1.558 . S
C2108 C528 1.430 . S
C2124 C458 1.095 . S
C2119 C191 1.140 . S
C2135 C204 1.485 . S
C2140 C488 1.370 . S
C2151 C176 1.613 . S
C2156 C648 1.521 . S
C2172 C574 1.715 . S
C2167 C233 1.773 . S
C2188 C578 1.102 . S
C2183 C275 1.119 . S
