# Generated by pormake.
# Topology iac, (4,6)-cn, num edge types: 1
# Building blocks:
#     Node 0, Type 0, BuildingBlock: QUQFOY_clean_sbu_3, # of connection points: 4
#     Node 1, Type 0, BuildingBlock: QUQFOY_clean_sbu_3, # of connection points: 4
#     Node 2, Type 0, BuildingBlock: QUQFOY_clean_sbu_3, # of connection points: 4
#     Node 3, Type 0, BuildingBlock: QUQFOY_clean_sbu_3, # of connection points: 4
#     Node 4, Type 0, BuildingBlock: QUQFOY_clean_sbu_3, # of connection points: 4
#     Node 5, Type 0, BuildingBlock: QUQFOY_clean_sbu_3, # of connection points: 4
#     Node 6, Type 0, BuildingBlock: QUQFOY_clean_sbu_3, # of connection points: 4
#     Node 7, Type 0, BuildingBlock: QUQFOY_clean_sbu_3, # of connection points: 4
#     Node 8, Type 0, BuildingBlock: QUQFOY_clean_sbu_3, # of connection points: 4
#     Node 9, Type 0, BuildingBlock: QUQFOY_clean_sbu_3, # of connection points: 4
#     Node 10, Type 0, BuildingBlock: QUQFOY_clean_sbu_3, # of connection points: 4
#     Node 11, Type 0, BuildingBlock: QUQFOY_clean_sbu_3, # of connection points: 4
#     Node 12, Type 0, BuildingBlock: QUQFOY_clean_sbu_3, # of connection points: 4
#     Node 13, Type 0, BuildingBlock: QUQFOY_clean_sbu_3, # of connection points: 4
#     Node 14, Type 0, BuildingBlock: QUQFOY_clean_sbu_3, # of connection points: 4
#     Node 15, Type 0, BuildingBlock: QUQFOY_clean_sbu_3, # of connection points: 4
#     Node 16, Type 0, BuildingBlock: QUQFOY_clean_sbu_3, # of connection points: 4
#     Node 17, Type 0, BuildingBlock: QUQFOY_clean_sbu_3, # of connection points: 4
#     Node 18, Type 0, BuildingBlock: QUQFOY_clean_sbu_3, # of connection points: 4
#     Node 19, Type 0, BuildingBlock: QUQFOY_clean_sbu_3, # of connection points: 4
#     Node 20, Type 0, BuildingBlock: QUQFOY_clean_sbu_3, # of connection points: 4
#     Node 21, Type 0, BuildingBlock: QUQFOY_clean_sbu_3, # of connection points: 4
#     Node 22, Type 0, BuildingBlock: QUQFOY_clean_sbu_3, # of connection points: 4
#     Node 23, Type 0, BuildingBlock: QUQFOY_clean_sbu_3, # of connection points: 4
#     Node 24, Type 1, BuildingBlock: FUNLAD_clean_sbu_0, # of connection points: 6
#     Node 25, Type 1, BuildingBlock: FUNLAD_clean_sbu_0, # of connection points: 6
#     Node 26, Type 1, BuildingBlock: FUNLAD_clean_sbu_0, # of connection points: 6
#     Node 27, Type 1, BuildingBlock: FUNLAD_clean_sbu_0, # of connection points: 6
#     Node 28, Type 1, BuildingBlock: FUNLAD_clean_sbu_0, # of connection points: 6
#     Node 29, Type 1, BuildingBlock: FUNLAD_clean_sbu_0, # of connection points: 6
#     Node 30, Type 1, BuildingBlock: FUNLAD_clean_sbu_0, # of connection points: 6
#     Node 31, Type 1, BuildingBlock: FUNLAD_clean_sbu_0, # of connection points: 6
#     Node 32, Type 1, BuildingBlock: FUNLAD_clean_sbu_0, # of connection points: 6
#     Node 33, Type 1, BuildingBlock: FUNLAD_clean_sbu_0, # of connection points: 6
#     Node 34, Type 1, BuildingBlock: FUNLAD_clean_sbu_0, # of connection points: 6
#     Node 35, Type 1, BuildingBlock: FUNLAD_clean_sbu_0, # of connection points: 6
#     Node 36, Type 1, BuildingBlock: FUNLAD_clean_sbu_0, # of connection points: 6
#     Node 37, Type 1, BuildingBlock: FUNLAD_clean_sbu_0, # of connection points: 6
#     Node 38, Type 1, BuildingBlock: FUNLAD_clean_sbu_0, # of connection points: 6
#     Node 39, Type 1, BuildingBlock: FUNLAD_clean_sbu_0, # of connection points: 6
#     Edge 40, Type (0, 1), BuildingBlock: OJICUG_clean_linker_0, # of connection points: 2
#     Edge 41, Type (0, 1), BuildingBlock: OJICUG_clean_linker_0, # of connection points: 2
#     Edge 42, Type (0, 1), BuildingBlock: OJICUG_clean_linker_0, # of connection points: 2
#     Edge 43, Type (0, 1), BuildingBlock: OJICUG_clean_linker_0, # of connection points: 2
#     Edge 44, Type (0, 1), BuildingBlock: OJICUG_clean_linker_0, # of connection points: 2
#     Edge 45, Type (0, 1), BuildingBlock: OJICUG_clean_linker_0, # of connection points: 2
#     Edge 46, Type (0, 1), BuildingBlock: OJICUG_clean_linker_0, # of connection points: 2
#     Edge 47, Type (0, 1), BuildingBlock: OJICUG_clean_linker_0, # of connection points: 2
#     Edge 48, Type (0, 1), BuildingBlock: OJICUG_clean_linker_0, # of connection points: 2
#     Edge 49, Type (0, 1), BuildingBlock: OJICUG_clean_linker_0, # of connection points: 2
#     Edge 50, Type (0, 1), BuildingBlock: OJICUG_clean_linker_0, # of connection points: 2
#     Edge 51, Type (0, 1), BuildingBlock: OJICUG_clean_linker_0, # of connection points: 2
#     Edge 52, Type (0, 1), BuildingBlock: OJICUG_clean_linker_0, # of connection points: 2
#     Edge 53, Type (0, 1), BuildingBlock: OJICUG_clean_linker_0, # of connection points: 2
#     Edge 54, Type (0, 1), BuildingBlock: OJICUG_clean_linker_0, # of connection points: 2
#     Edge 55, Type (0, 1), BuildingBlock: OJICUG_clean_linker_0, # of connection points: 2
#     Edge 56, Type (0, 1), BuildingBlock: OJICUG_clean_linker_0, # of connection points: 2
#     Edge 57, Type (0, 1), BuildingBlock: OJICUG_clean_linker_0, # of connection points: 2
#     Edge 58, Type (0, 1), BuildingBlock: OJICUG_clean_linker_0, # of connection points: 2
#     Edge 59, Type (0, 1), BuildingBlock: OJICUG_clean_linker_0, # of connection points: 2
#     Edge 60, Type (0, 1), BuildingBlock: OJICUG_clean_linker_0, # of connection points: 2
#     Edge 61, Type (0, 1), BuildingBlock: OJICUG_clean_linker_0, # of connection points: 2
#     Edge 62, Type (0, 1), BuildingBlock: OJICUG_clean_linker_0, # of connection points: 2
#     Edge 63, Type (0, 1), BuildingBlock: OJICUG_clean_linker_0, # of connection points: 2
#     Edge 64, Type (0, 1), BuildingBlock: OJICUG_clean_linker_0, # of connection points: 2
#     Edge 65, Type (0, 1), BuildingBlock: OJICUG_clean_linker_0, # of connection points: 2
#     Edge 66, Type (0, 1), BuildingBlock: OJICUG_clean_linker_0, # of connection points: 2
#     Edge 67, Type (0, 1), BuildingBlock: OJICUG_clean_linker_0, # of connection points: 2
#     Edge 68, Type (0, 1), BuildingBlock: OJICUG_clean_linker_0, # of connection points: 2
#     Edge 69, Type (0, 1), BuildingBlock: OJICUG_clean_linker_0, # of connection points: 2
#     Edge 70, Type (0, 1), BuildingBlock: OJICUG_clean_linker_0, # of connection points: 2
#     Edge 71, Type (0, 1), BuildingBlock: OJICUG_clean_linker_0, # of connection points: 2
#     Edge 72, Type (0, 1), BuildingBlock: OJICUG_clean_linker_0, # of connection points: 2
#     Edge 73, Type (0, 1), BuildingBlock: OJICUG_clean_linker_0, # of connection points: 2
#     Edge 74, Type (0, 1), BuildingBlock: OJICUG_clean_linker_0, # of connection points: 2
#     Edge 75, Type (0, 1), BuildingBlock: OJICUG_clean_linker_0, # of connection points: 2
#     Edge 76, Type (0, 1), BuildingBlock: OJICUG_clean_linker_0, # of connection points: 2
#     Edge 77, Type (0, 1), BuildingBlock: OJICUG_clean_linker_0, # of connection points: 2
#     Edge 78, Type (0, 1), BuildingBlock: OJICUG_clean_linker_0, # of connection points: 2
#     Edge 79, Type (0, 1), BuildingBlock: OJICUG_clean_linker_0, # of connection points: 2
#     Edge 80, Type (0, 1), BuildingBlock: OJICUG_clean_linker_0, # of connection points: 2
#     Edge 81, Type (0, 1), BuildingBlock: OJICUG_clean_linker_0, # of connection points: 2
#     Edge 82, Type (0, 1), BuildingBlock: OJICUG_clean_linker_0, # of connection points: 2
#     Edge 83, Type (0, 1), BuildingBlock: OJICUG_clean_linker_0, # of connection points: 2
#     Edge 84, Type (0, 1), BuildingBlock: OJICUG_clean_linker_0, # of connection points: 2
#     Edge 85, Type (0, 1), BuildingBlock: OJICUG_clean_linker_0, # of connection points: 2
#     Edge 86, Type (0, 1), BuildingBlock: OJICUG_clean_linker_0, # of connection points: 2
#     Edge 87, Type (0, 1), BuildingBlock: OJICUG_clean_linker_0, # of connection points: 2
#     Edge 88, Type (0, 1), BuildingBlock: OJICUG_clean_linker_0, # of connection points: 2
#     Edge 89, Type (0, 1), BuildingBlock: OJICUG_clean_linker_0, # of connection points: 2
#     Edge 90, Type (0, 1), BuildingBlock: OJICUG_clean_linker_0, # of connection points: 2
#     Edge 91, Type (0, 1), BuildingBlock: OJICUG_clean_linker_0, # of connection points: 2
#     Edge 92, Type (0, 1), BuildingBlock: OJICUG_clean_linker_0, # of connection points: 2
#     Edge 93, Type (0, 1), BuildingBlock: OJICUG_clean_linker_0, # of connection points: 2
#     Edge 94, Type (0, 1), BuildingBlock: OJICUG_clean_linker_0, # of connection points: 2
#     Edge 95, Type (0, 1), BuildingBlock: OJICUG_clean_linker_0, # of connection points: 2
#     Edge 96, Type (0, 1), BuildingBlock: OJICUG_clean_linker_0, # of connection points: 2
#     Edge 97, Type (0, 1), BuildingBlock: OJICUG_clean_linker_0, # of connection points: 2
#     Edge 98, Type (0, 1), BuildingBlock: OJICUG_clean_linker_0, # of connection points: 2
#     Edge 99, Type (0, 1), BuildingBlock: OJICUG_clean_linker_0, # of connection points: 2
#     Edge 100, Type (0, 1), BuildingBlock: OJICUG_clean_linker_0, # of connection points: 2
#     Edge 101, Type (0, 1), BuildingBlock: OJICUG_clean_linker_0, # of connection points: 2
#     Edge 102, Type (0, 1), BuildingBlock: OJICUG_clean_linker_0, # of connection points: 2
#     Edge 103, Type (0, 1), BuildingBlock: OJICUG_clean_linker_0, # of connection points: 2
#     Edge 104, Type (0, 1), BuildingBlock: OJICUG_clean_linker_0, # of connection points: 2
#     Edge 105, Type (0, 1), BuildingBlock: OJICUG_clean_linker_0, # of connection points: 2
#     Edge 106, Type (0, 1), BuildingBlock: OJICUG_clean_linker_0, # of connection points: 2
#     Edge 107, Type (0, 1), BuildingBlock: OJICUG_clean_linker_0, # of connection points: 2
#     Edge 108, Type (0, 1), BuildingBlock: OJICUG_clean_linker_0, # of connection points: 2
#     Edge 109, Type (0, 1), BuildingBlock: OJICUG_clean_linker_0, # of connection points: 2
#     Edge 110, Type (0, 1), BuildingBlock: OJICUG_clean_linker_0, # of connection points: 2
#     Edge 111, Type (0, 1), BuildingBlock: OJICUG_clean_linker_0, # of connection points: 2
#     Edge 112, Type (0, 1), BuildingBlock: OJICUG_clean_linker_0, # of connection points: 2
#     Edge 113, Type (0, 1), BuildingBlock: OJICUG_clean_linker_0, # of connection points: 2
#     Edge 114, Type (0, 1), BuildingBlock: OJICUG_clean_linker_0, # of connection points: 2
#     Edge 115, Type (0, 1), BuildingBlock: OJICUG_clean_linker_0, # of connection points: 2
#     Edge 116, Type (0, 1), BuildingBlock: OJICUG_clean_linker_0, # of connection points: 2
#     Edge 117, Type (0, 1), BuildingBlock: OJICUG_clean_linker_0, # of connection points: 2
#     Edge 118, Type (0, 1), BuildingBlock: OJICUG_clean_linker_0, # of connection points: 2
#     Edge 119, Type (0, 1), BuildingBlock: OJICUG_clean_linker_0, # of connection points: 2
#     Edge 120, Type (0, 1), BuildingBlock: OJICUG_clean_linker_0, # of connection points: 2
#     Edge 121, Type (0, 1), BuildingBlock: OJICUG_clean_linker_0, # of connection points: 2
#     Edge 122, Type (0, 1), BuildingBlock: OJICUG_clean_linker_0, # of connection points: 2
#     Edge 123, Type (0, 1), BuildingBlock: OJICUG_clean_linker_0, # of connection points: 2
#     Edge 124, Type (0, 1), BuildingBlock: OJICUG_clean_linker_0, # of connection points: 2
#     Edge 125, Type (0, 1), BuildingBlock: OJICUG_clean_linker_0, # of connection points: 2
#     Edge 126, Type (0, 1), BuildingBlock: OJICUG_clean_linker_0, # of connection points: 2
#     Edge 127, Type (0, 1), BuildingBlock: OJICUG_clean_linker_0, # of connection points: 2
#     Edge 128, Type (0, 1), BuildingBlock: OJICUG_clean_linker_0, # of connection points: 2
#     Edge 129, Type (0, 1), BuildingBlock: OJICUG_clean_linker_0, # of connection points: 2
#     Edge 130, Type (0, 1), BuildingBlock: OJICUG_clean_linker_0, # of connection points: 2
#     Edge 131, Type (0, 1), BuildingBlock: OJICUG_clean_linker_0, # of connection points: 2
#     Edge 132, Type (0, 1), BuildingBlock: OJICUG_clean_linker_0, # of connection points: 2
#     Edge 133, Type (0, 1), BuildingBlock: OJICUG_clean_linker_0, # of connection points: 2
#     Edge 134, Type (0, 1), BuildingBlock: OJICUG_clean_linker_0, # of connection points: 2
#     Edge 135, Type (0, 1), BuildingBlock: OJICUG_clean_linker_0, # of connection points: 2
# Relax obj value: 0.370
# Max RMSD: 0.299
# Mean RMSD: 0.137
data_MOF--net-iac--node1-QUQFOY_clean_sbu_3--node2-FUNLAD_clean_sbu_0--edge1-OJICUG_clean_linker_0
_symmetry_space_group_name_H-M    P1
_symmetry_Int_Tables_number       1
_symmetry_cell_setting            triclinic
loop_
_symmetry_equiv_pos_as_xyz
'x, y, z'
_cell_length_a     41.502611
_cell_length_b     40.040269
_cell_length_c     46.259739
_cell_angle_alpha  90.137472
_cell_angle_beta   91.870289
_cell_angle_gamma 89.769876
loop_
_atom_site_label
_atom_site_type_symbol
_atom_site_fract_x
_atom_site_fract_y
_atom_site_fract_z
_atom_type_partial_charge
C0 C 0.02367 0.16456 0.18246 0.0
O1 O 0.04446 0.14576 0.19504 0.0
Cd2 Cd 0.10079 0.1474 0.18365 0.0
O3 O 0.03201 0.18428 0.16251 0.0
Cd4 Cd 0.08235 0.1989 0.13848 0.0
C5 C 0.10761 0.12392 0.11383 0.0
O6 O 0.1149 0.2058 0.18257 0.0
O7 O 0.13982 0.20806 0.1422 0.0
O8 O 0.07483 0.25838 0.13505 0.0
C9 C 0.13992 0.21372 0.16918 0.0
O10 O 0.1135 0.1157 0.14003 0.0
C11 C 0.06925 0.25903 0.108 0.0
O12 O 0.09444 0.15187 0.10784 0.0
O13 O 0.06773 0.23125 0.0948 0.0
C14 C 0.97196 0.77843 0.34899 0.0
O15 O -0.00952 0.79841 0.33631 0.0
Cd16 Cd 0.04569 0.80851 0.34857 0.0
O17 O 0.98301 0.76054 0.37002 0.0
Cd18 Cd 0.03889 0.75441 0.39528 0.0
C19 C 0.03742 0.83635 0.41806 0.0
O20 O 0.07195 0.75505 0.35116 0.0
O21 O 0.09858 0.76002 0.39142 0.0
O22 O 0.03133 0.69331 0.40095 0.0
C23 C 0.0992 0.7557 0.36428 0.0
O24 O 0.04476 0.84295 0.3922 0.0
C25 C 0.03844 0.69238 0.42786 0.0
O26 O 0.03233 0.80617 0.42544 0.0
O27 O 0.04467 0.72027 0.43988 0.0
C28 C 0.52068 0.66665 0.67626 0.0
O29 O 0.54189 0.64836 0.68884 0.0
Cd30 Cd 0.59807 0.65107 0.67753 0.0
O31 O 0.52846 0.68616 0.65592 0.0
Cd32 Cd 0.57881 0.70109 0.63148 0.0
C33 C 0.60608 0.62629 0.60824 0.0
O34 O 0.60961 0.71002 0.67581 0.0
O35 O 0.63648 0.71194 0.63651 0.0
O36 O 0.56954 0.76011 0.62687 0.0
C37 C 0.63495 0.71854 0.66325 0.0
O38 O 0.61192 0.61867 0.63457 0.0
C39 C 0.56534 0.76014 0.59966 0.0
O40 O 0.59231 0.65379 0.60178 0.0
O41 O 0.56529 0.73213 0.5868 0.0
C42 C 0.47356 0.27454 0.84749 0.0
O43 O 0.49204 0.2945 0.83473 0.0
Cd44 Cd 0.54689 0.30541 0.84795 0.0
O45 O 0.48449 0.25719 0.86889 0.0
Cd46 Cd 0.53984 0.25156 0.89487 0.0
C47 C 0.53683 0.33364 0.91714 0.0
O48 O 0.57354 0.25212 0.85118 0.0
O49 O 0.59969 0.25685 0.89172 0.0
O50 O 0.53161 0.19062 0.90047 0.0
C51 C 0.60064 0.25268 0.86457 0.0
O52 O 0.5444 0.34022 0.89133 0.0
C53 C 0.53796 0.18971 0.92751 0.0
O54 O 0.53228 0.3034 0.92463 0.0
O55 O 0.54433 0.21754 0.93959 0.0
C56 C 0.11182 0.05449 0.30119 0.0
O57 O 0.10123 0.07598 0.28303 0.0
Cd58 Cd 0.11156 0.07687 0.23273 0.0
O59 O 0.12985 0.03036 0.29339 0.0
Cd60 Cd 0.15417 0.01242 0.24729 0.0
C61 C 0.1917 0.08742 0.24356 0.0
O62 O 0.10206 0.0194 0.22098 0.0
O63 O 0.14171 0.00398 0.19528 0.0
O64 O 0.16388 0.95681 0.26905 0.0
C65 C 0.11173 0.00928 0.19691 0.0
O66 O 0.16607 0.09987 0.23221 0.0
C67 C 0.18902 0.95113 0.2547 0.0
O68 O 0.19271 0.05742 0.25218 0.0
O69 O 0.19764 0.97372 0.23748 0.0
C70 C 0.33677 0.97043 0.5406 0.0
O71 O 0.31429 0.98712 0.52811 0.0
Cd72 Cd 0.25936 0.97268 0.52165 0.0
O73 O 0.33077 0.94381 0.5547 0.0
Cd74 Cd 0.2813 0.91084 0.56634 0.0
C75 C 0.27828 0.89471 0.49459 0.0
O76 O 0.24302 0.95638 0.56756 0.0
O77 O 0.22245 0.90746 0.56209 0.0
O78 O 0.28908 0.90048 0.61817 0.0
C79 C 0.21802 0.93853 0.56548 0.0
O80 O 0.2666 0.92396 0.49101 0.0
C81 C 0.28776 0.86882 0.61612 0.0
O82 O 0.28644 0.88396 0.51967 0.0
O83 O 0.28624 0.85658 0.59076 0.0
C84 C 0.47357 0.98617 0.78161 0.0
O85 O 0.48899 0.97057 0.76247 0.0
Cd86 Cd 0.47041 0.96404 0.71433 0.0
O87 O 0.44776 0.00251 0.77506 0.0
Cd88 Cd 0.4131 0.01707 0.7312 0.0
C89 C 0.39622 0.9342 0.73518 0.0
O90 O 0.46124 0.02128 0.70369 0.0
O91 O 0.41737 0.02446 0.67799 0.0
O92 O 0.40111 0.07078 0.75494 0.0
C93 C 0.44783 0.02657 0.67931 0.0
O94 O 0.42427 0.92916 0.72563 0.0
C95 C 0.37417 0.07512 0.74154 0.0
O96 O 0.38556 0.9638 0.73844 0.0
O97 O 0.36492 0.05217 0.72428 0.0
C98 C 0.33012 0.01985 0.01911 0.0
O99 O 0.32358 0.99591 0.03579 0.0
Cd100 Cd 0.27835 -0.00209 0.0641 0.0
O101 O 0.31014 0.04341 0.01354 0.0
Cd102 Cd 0.25265 0.05691 0.02067 0.0
C103 C 0.28443 0.08132 0.08456 0.0
O104 O 0.24025 -0.00049 0.02494 0.0
O105 O 0.20287 0.03188 0.03998 0.0
O106 O 0.24767 0.06765 0.96889 0.0
C107 C 0.21243 0.0024 0.03456 0.0
O108 O 0.29002 0.05064 0.09003 0.0
C109 C 0.23457 0.09622 0.97132 0.0
O110 O 0.26963 0.09019 0.06139 0.0
O111 O 0.22827 0.10577 -0.00326 0.0
C112 C 0.83573 0.46658 0.04065 0.0
O113 O 0.81334 0.48382 0.02859 0.0
Cd114 Cd 0.75817 0.47007 0.02244 0.0
O115 O 0.82941 0.44015 0.05487 0.0
Cd116 Cd 0.77946 0.40842 0.0673 0.0
C117 C 0.77709 0.39191 -0.00428 0.0
O118 O 0.7408 0.45376 0.06799 0.0
O119 O 0.72077 0.40462 0.06204 0.0
O120 O 0.78719 0.39951 0.11933 0.0
C121 C 0.71598 0.43565 0.06539 0.0
O122 O 0.76546 0.42117 -0.0079 0.0
C123 C 0.7859 0.36781 0.11794 0.0
O124 O 0.78507 0.38111 0.02084 0.0
O125 O 0.78427 0.35485 0.09284 0.0
C126 C 0.97613 0.49251 0.2818 0.0
O127 O -0.00867 0.47686 0.26254 0.0
Cd128 Cd 0.97282 0.46841 0.21445 0.0
O129 O 0.95002 0.50846 0.2756 0.0
Cd130 Cd 0.91429 0.52168 0.23244 0.0
C131 C 0.89979 0.4376 0.23681 0.0
O132 O 0.95976 0.5242 0.20233 0.0
O133 O 0.91451 0.52613 0.17847 0.0
O134 O 0.90679 0.58063 0.24529 0.0
C135 C 0.94503 0.52791 0.17832 0.0
O136 O 0.9275 0.43281 0.22643 0.0
C137 C 0.87617 0.58016 0.24339 0.0
O138 O 0.88902 0.46711 0.24056 0.0
O139 O 0.86305 0.55217 0.23775 0.0
C140 C 0.83506 0.52619 0.52476 0.0
O141 O 0.82843 0.50239 0.54158 0.0
Cd142 Cd 0.78223 0.5008 0.56902 0.0
O143 O 0.81528 0.5499 0.51915 0.0
Cd144 Cd 0.75865 0.56468 0.52806 0.0
C145 C 0.78721 0.58136 0.59606 0.0
O146 O 0.74497 0.50751 0.52966 0.0
O147 O 0.70744 0.53977 0.54473 0.0
O148 O 0.74661 0.57784 0.47706 0.0
C149 C 0.71674 0.51043 0.5384 0.0
O150 O 0.79155 0.55016 0.59996 0.0
C151 C 0.74106 0.60863 0.48137 0.0
O152 O 0.77495 0.59248 0.57244 0.0
O153 O 0.7425 0.61877 0.5074 0.0
C154 C 0.59913 0.54237 0.79637 0.0
O155 O 0.58261 0.55939 0.77803 0.0
Cd156 Cd 0.59379 0.56498 0.72878 0.0
O157 O 0.62238 0.52366 0.78856 0.0
Cd158 Cd 0.64938 0.50717 0.74273 0.0
C159 C 0.67239 0.58825 0.74549 0.0
O160 O 0.59763 0.50753 0.71645 0.0
O161 O 0.63855 0.49935 0.69007 0.0
O162 O 0.6621 0.4529 0.76591 0.0
C163 C 0.60819 0.50106 0.69181 0.0
O164 O 0.6435 0.59586 0.73805 0.0
C165 C 0.68796 0.44825 0.75239 0.0
O166 O 0.6813 0.55791 0.74761 0.0
O167 O 0.69593 0.47092 0.73493 0.0
C168 C 0.93432 0.83477 0.85418 0.0
O169 O 0.93165 0.86527 0.84711 0.0
Cd170 Cd 0.97338 0.90268 0.86403 0.0
O171 O 0.95738 0.82499 0.87062 0.0
Cd172 Cd 0.00213 0.84912 0.89799 0.0
C173 C 0.95353 0.90311 0.93319 0.0
O174 O 0.02537 0.87371 0.85541 0.0
O175 O 0.0538 0.87745 0.89545 0.0
O176 O 0.00879 0.7902 0.894 0.0
C177 C 0.05267 0.87866 0.86802 0.0
O178 O 0.95244 0.92122 0.91069 0.0
C179 C 0.01888 0.78597 0.91989 0.0
O180 O 0.96982 0.87631 0.93335 0.0
O181 O 0.02469 0.81186 0.93509 0.0
C182 C 0.96931 0.25351 0.7076 0.0
O183 O 0.98732 0.23298 0.72149 0.0
Cd184 Cd 0.03977 0.21441 0.70742 0.0
O185 O 0.97901 0.26692 0.6843 0.0
Cd186 Cd 0.03166 0.26656 0.65588 0.0
C187 C 0.03045 0.18246 0.63833 0.0
O188 O 0.06945 0.2644 0.69902 0.0
O189 O 0.09175 0.2616 0.65789 0.0
O190 O 0.02528 0.32732 0.6462 0.0
C191 C 0.09527 0.26241 0.68519 0.0
O192 O 0.03609 0.17715 0.66517 0.0
C193 C 0.02576 0.32536 0.6188 0.0
O194 O 0.02625 0.21225 0.62909 0.0
O195 O 0.02881 0.29617 0.60842 0.0
C196 C 0.45591 0.33121 0.34507 0.0
O197 O 0.45469 0.36083 0.33534 0.0
Cd198 Cd 0.48528 0.40372 0.36031 0.0
O199 O 0.47337 0.3241 0.36717 0.0
Cd200 Cd 0.51107 0.35223 0.39978 0.0
C201 C 0.45437 0.4049 0.426 0.0
O202 O 0.54 0.37972 0.36109 0.0
O203 O 0.56203 0.38186 0.40415 0.0
O204 O 0.52779 0.29468 0.40232 0.0
C205 C 0.56492 0.3852 0.37709 0.0
O206 O 0.45494 0.422 0.40293 0.0
C207 C 0.52828 0.29349 0.42976 0.0
O208 O 0.4724 0.37951 0.4288 0.0
O209 O 0.52361 0.32068 0.44322 0.0
C210 C 0.4679 0.75084 0.20704 0.0
O211 O 0.48569 0.7301 0.22092 0.0
Cd212 Cd 0.5382 0.71154 0.20677 0.0
O213 O 0.47786 0.76424 0.18383 0.0
Cd214 Cd 0.53073 0.76352 0.1556 0.0
C215 C 0.52958 0.67922 0.13784 0.0
O216 O 0.56828 0.76159 0.19903 0.0
O217 O 0.59097 0.75938 0.15806 0.0
O218 O 0.52363 0.82426 0.14603 0.0
C219 C 0.59425 0.7601 0.18539 0.0
O220 O 0.5349 0.67388 0.16472 0.0
C221 C 0.52443 0.82248 0.11863 0.0
O222 O 0.52559 0.70907 0.12864 0.0
O223 O 0.52808 0.79339 0.10818 0.0
C224 C 0.96591 0.99136 0.85634 0.0
O225 O 0.98222 0.97412 0.83887 0.0
Cd226 Cd 0.97161 0.96456 0.78822 0.0
O227 O 0.93994 0.00612 0.84788 0.0
Cd228 Cd 0.90631 0.01367 0.80261 0.0
C229 C 0.8952 0.93039 0.79007 0.0
O230 O 0.95078 0.01549 0.77075 0.0
O231 O 0.90375 0.01676 0.74998 0.0
O232 O 0.89636 0.07158 0.81596 0.0
C233 C 0.93394 0.01478 0.74744 0.0
O234 O 0.9249 0.92855 0.78403 0.0
C235 C 0.86626 0.07095 0.81003 0.0
O236 O 0.88296 0.95729 0.79996 0.0
O237 O 0.85431 0.04304 0.80226 0.0
C238 C 0.83116 0.06439 0.50488 0.0
O239 O 0.80998 0.04639 0.51645 0.0
Cd240 Cd 0.75443 0.05904 0.52297 0.0
O241 O 0.82381 0.09273 0.49388 0.0
Cd242 Cd 0.77584 0.12947 0.48501 0.0
C243 C 0.76484 0.13572 0.55773 0.0
O244 O 0.73758 0.08485 0.47968 0.0
O245 O 0.71683 0.13397 0.4804 0.0
O246 O 0.79568 0.14074 0.43687 0.0
C247 C 0.71242 0.10269 0.48088 0.0
O248 O 0.75651 0.10509 0.55733 0.0
C249 C 0.79368 0.17235 0.43864 0.0
O250 O 0.77447 0.15038 0.53508 0.0
O251 O 0.78354 0.18429 0.46219 0.0
C252 C 0.59444 0.03288 0.34697 0.0
O253 O 0.58004 0.05222 0.32899 0.0
Cd254 Cd 0.59255 0.06467 0.28058 0.0
O255 O 0.62045 0.01767 0.34054 0.0
Cd256 Cd 0.65607 0.01257 0.29753 0.0
C257 C 0.66966 0.09728 0.28966 0.0
O258 O 0.6095 0.01151 0.26596 0.0
O259 O 0.65403 0.00914 0.24397 0.0
O260 O 0.66521 0.95397 0.31175 0.0
C261 C 0.62356 0.01065 0.24225 0.0
O262 O 0.63988 0.10041 0.28254 0.0
C263 C 0.69501 0.95344 0.30637 0.0
O264 O 0.68147 0.06902 0.29754 0.0
O265 O 0.70716 0.98082 0.29829 0.0
C266 C 0.80921 0.02999 -0.00225 0.0
O267 O 0.78057 0.03798 -0.00984 0.0
Cd268 Cd 0.73535 0.00213 -0.00544 0.0
O269 O 0.81604 0.00182 0.00942 0.0
Cd270 Cd 0.78948 0.9501 0.02595 0.0
C271 C 0.75844 0.92921 0.95969 0.0
O272 O 0.74425 0.98059 0.04166 0.0
O273 O 0.73698 0.92771 0.0388 0.0
O274 O 0.81784 0.94614 0.07269 0.0
C275 C 0.72566 0.95617 0.04492 0.0
O276 O 0.73971 0.95442 0.96147 0.0
C277 C 0.82541 0.91553 0.07024 0.0
O278 O 0.78047 0.92359 0.97898 0.0
O279 O 0.81916 0.90188 0.04589 0.0
C280 C 0.32931 0.56455 0.00483 0.0
O281 O 0.30819 0.54683 0.01676 0.0
Cd282 Cd 0.25274 0.55943 0.02359 0.0
O283 O 0.32188 0.59269 -0.00658 0.0
Cd284 Cd 0.27329 0.62894 0.98437 0.0
C285 C 0.26325 0.6369 0.05708 0.0
O286 O 0.23503 0.58405 0.98006 0.0
O287 O 0.21411 0.63308 0.98107 0.0
O288 O 0.29192 0.63901 0.9355 0.0
C289 C 0.20983 0.60177 0.98155 0.0
O290 O 0.25502 0.60625 0.05712 0.0
C291 C 0.28955 0.67064 0.93655 0.0
O292 O 0.27262 0.65119 0.03414 0.0
O293 O 0.27989 0.68316 0.96004 0.0
C294 C 0.09611 0.52587 0.84691 0.0
O295 O 0.08116 0.54464 0.8288 0.0
Cd296 Cd 0.0929 0.55781 0.7803 0.0
O297 O 0.12266 0.51164 0.84063 0.0
Cd298 Cd 0.15829 0.5079 0.79758 0.0
C299 C 0.16912 0.5928 0.78831 0.0
O300 O 0.11208 0.50561 0.76569 0.0
O301 O 0.15693 0.50381 0.74419 0.0
O302 O 0.16871 0.44988 0.81199 0.0
C303 C 0.12648 0.50518 0.74214 0.0
O304 O 0.13921 0.59487 0.78136 0.0
C305 C 0.19847 0.44994 0.80646 0.0
O306 O 0.18182 0.56513 0.7967 0.0
O307 O 0.21012 0.47752 0.79827 0.0
C308 C 0.31317 0.52081 0.49071 0.0
O309 O 0.28503 0.52625 0.48025 0.0
Cd310 Cd 0.24163 0.48844 0.48526 0.0
O311 O 0.32024 0.49423 0.50485 0.0
Cd312 Cd 0.29364 0.44266 0.52196 0.0
C313 C 0.26945 0.41447 0.45613 0.0
O314 O 0.24789 0.47423 0.5349 0.0
O315 O 0.23938 0.4216 0.53263 0.0
O316 O 0.31987 0.44035 0.57003 0.0
C317 C 0.22888 0.4504 0.53881 0.0
O318 O 0.24893 0.43826 0.45547 0.0
C319 C 0.32772 0.40974 0.56844 0.0
O320 O 0.29063 0.41221 0.47657 0.0
O321 O 0.32235 0.3954 0.54428 0.0
C322 C 0.46576 0.49771 0.34951 0.0
O323 O 0.48309 0.48366 0.33084 0.0
Cd324 Cd 0.47073 0.47769 0.27997 0.0
O325 O 0.43838 0.51029 0.34233 0.0
Cd326 Cd 0.40319 0.51802 0.29852 0.0
C327 C 0.39763 0.43616 0.28184 0.0
O328 O 0.44497 0.52731 0.26465 0.0
O329 O 0.39733 0.51882 0.24645 0.0
O330 O 0.39141 0.5743 0.31395 0.0
C331 C 0.427 0.52303 0.24229 0.0
O332 O 0.42689 0.43798 0.2744 0.0
C333 C 0.36122 0.57256 0.30887 0.0
O334 O 0.38386 0.46044 0.29458 0.0
O335 O 0.35001 0.54452 0.30056 0.0
C336 C 0.00693 -0.0028 0.97681 0.0
N337 N 0.97701 0.05899 0.04295 0.0
C338 C 0.9778 0.08139 0.0209 0.0
C339 C 0.94999 0.09919 0.01298 0.0
C340 C 0.92186 0.09342 0.02816 0.0
C341 C 0.92441 0.0767 0.05483 0.0
C342 C 0.95243 0.05877 0.06158 0.0
Zn343 Zn 0.00339 0.01663 0.03919 0.0
C344 C 0.96271 0.95647 0.03509 0.0
N345 N 0.05908 0.92798 0.02835 0.0
C346 C 0.07786 0.92574 0.00487 0.0
C347 C 0.0661 0.90941 0.05242 0.0
C348 C 0.09712 0.89639 0.05666 0.0
C349 C 0.11987 0.90296 0.03566 0.0
C350 C 0.10839 0.91154 0.00776 0.0
Zn351 Zn 0.03211 0.9707 0.0328 0.0
O352 O -0.00513 0.01847 -0.00629 0.0
C353 C 0.07233 0.03155 0.03498 0.0
O354 O 0.02493 0.97433 0.98734 0.0
H355 H 0.04994 0.90935 0.07026 0.0
H356 H -0.00203 0.08152 0.00668 0.0
H357 H 0.07187 0.93945 0.98537 0.0
O358 O 0.04457 0.04471 0.03603 0.0
O359 O 0.07496 2e-05 0.03264 0.0
H360 H 0.95248 0.04087 0.07906 0.0
O361 O 0.03912 0.96842 0.07743 0.0
O362 O 0.01301 0.01495 0.08521 0.0
O363 O -0.00969 0.94276 0.03396 0.0
O364 O 0.96093 0.98747 0.04087 0.0
C365 C 0.03075 0.99115 0.09473 0.0
H366 H 0.94894 0.11228 -0.0075 0.0
H367 H 0.90327 0.07201 0.06733 0.0
H368 H 0.10476 0.88815 0.0781 0.0
H369 H 0.12482 0.91525 -0.00967 0.0
C370 C 0.3416 0.77179 0.25577 0.0
N371 N 0.254 0.73894 0.21869 0.0
C372 C 0.26534 0.75541 0.19545 0.0
C373 C 0.2632 0.74106 0.16799 0.0
C374 C 0.24884 0.70958 0.16428 0.0
C375 C 0.23472 0.69459 0.18828 0.0
C376 C 0.23787 0.70963 0.2155 0.0
Zn377 Zn 0.26939 0.7552 0.25851 0.0
C378 C 0.29875 0.69933 0.29385 0.0
N379 N 0.30724 0.78808 0.33957 0.0
C380 C 0.32083 0.8188 0.34213 0.0
C381 C 0.29775 0.77086 0.36313 0.0
C382 C 0.29868 0.78595 0.39028 0.0
C383 C 0.30937 0.81901 0.393 0.0
C384 C 0.32216 0.83486 0.36889 0.0
Zn385 Zn 0.29164 0.77187 0.3001 0.0
O386 O 0.317 0.76179 0.24113 0.0
C387 C 0.26051 0.82783 0.26641 0.0
O388 O 0.33824 0.77968 0.2822 0.0
H389 H 0.2868 0.74654 0.36051 0.0
H390 H 0.27816 0.77868 0.19848 0.0
H391 H 0.3282 0.83194 0.32306 0.0
O392 O 0.25575 0.80509 0.24756 0.0
O393 O 0.27582 0.82087 0.28983 0.0
H394 H 0.2291 0.69696 0.23429 0.0
O395 O 0.24556 0.7634 0.31774 0.0
O396 O 0.22218 0.7486 0.2766 0.0
O397 O 0.30616 0.72342 0.31056 0.0
O398 O 0.28273 0.70512 0.27045 0.0
C399 C 0.22027 0.75448 0.30361 0.0
H400 H 0.27466 0.75357 0.15036 0.0
H401 H 0.2226 0.67075 0.18635 0.0
H402 H 0.28849 0.77297 0.40834 0.0
H403 H 0.33108 0.86022 0.37033 0.0
C404 C 0.51805 0.03851 0.57497 0.0
N405 N 0.55217 0.95573 0.53006 0.0
C406 C 0.5694 0.94916 0.55486 0.0
C407 C 0.57418 0.91635 0.56389 0.0
C408 C 0.56176 0.88987 0.5469 0.0
C409 C 0.5456 0.89744 0.52054 0.0
C410 C 0.54074 0.93073 0.51266 0.0
Zn411 Zn 0.53919 0.0035 0.52143 0.0
C412 C 0.46654 0.00827 0.51395 0.0
N413 N 0.50816 0.10214 0.50478 0.0
C414 C 0.52284 0.12602 0.52146 0.0
C415 C 0.49197 0.10992 0.47968 0.0
C416 C 0.4928 0.14242 0.46908 0.0
C417 C 0.51045 0.16685 0.48455 0.0
C418 C 0.52427 0.1588 0.51169 0.0
Zn419 Zn 0.52003 0.05414 0.51329 0.0
O420 O 0.53177 0.01202 0.56639 0.0
C421 C 0.59248 0.05024 0.52061 0.0
O422 O 0.51183 0.06174 0.55707 0.0
H423 H 0.48051 0.09046 0.46682 0.0
H424 H 0.57826 0.96946 0.56833 0.0
H425 H 0.53584 0.11915 0.54121 0.0
O426 O 0.58799 0.01923 0.52454 0.0
O427 O 0.56826 0.06943 0.51752 0.0
H428 H 0.52689 0.93659 0.49312 0.0
O429 O 0.52764 0.04624 0.46917 0.0
O430 O 0.54643 0.99569 0.47658 0.0
O431 O 0.4722 0.03883 0.50894 0.0
O432 O 0.49001 0.98816 0.51825 0.0
C433 C 0.54006 0.01969 0.45941 0.0
H434 H 0.58626 0.91206 0.58464 0.0
H435 H 0.53614 0.87798 0.50642 0.0
H436 H 0.48123 0.14797 0.44831 0.0
H437 H 0.53814 0.17692 0.52422 0.0
C438 C 0.30297 0.19799 0.75617 0.0
N439 N 0.25277 0.22683 0.8286 0.0
C440 C 0.23513 0.19872 0.82356 0.0
C441 C 0.22622 0.17854 0.84647 0.0
C442 C 0.23569 0.18721 0.8749 0.0
C443 C 0.25235 0.21736 0.87962 0.0
C444 C 0.26074 0.23689 0.85601 0.0
Zn445 Zn 0.27141 0.25004 0.79356 0.0
C446 C 0.34109 0.26721 0.80234 0.0
N447 N 0.31047 0.29296 0.71799 0.0
C448 C 0.30278 0.28146 0.69097 0.0
C449 C 0.32897 0.32068 0.72202 0.0
C450 C 0.33947 0.33872 0.69834 0.0
C451 C 0.33055 0.32843 0.67014 0.0
C452 C 0.31251 0.29892 0.66667 0.0
Zn453 Zn 0.29151 0.27049 0.75328 0.0
O454 O 0.28813 0.20292 0.77937 0.0
C455 C 0.22189 0.25419 0.74351 0.0
O456 O 0.30697 0.22224 0.73893 0.0
H457 H 0.3348 0.32946 0.74368 0.0
H458 H 0.2292 0.19103 0.80162 0.0
H459 H 0.28806 0.25938 0.68824 0.0
O460 O 0.22547 0.24496 0.76979 0.0
O461 O 0.24622 0.26529 0.73064 0.0
H462 H 0.27491 0.25924 0.8595 0.0
O463 O 0.27613 0.31832 0.7686 0.0
O464 O 0.25565 0.2975 0.80783 0.0
O465 O 0.33624 0.27555 0.77607 0.0
O466 O 0.31761 0.25587 0.81638 0.0
C467 C 0.26123 0.32259 0.79196 0.0
H468 H 0.21301 0.15577 0.84187 0.0
H469 H 0.2604 0.22486 0.90116 0.0
H470 H 0.35371 0.361 0.70214 0.0
H471 H 0.30457 0.2902 0.64545 0.0
C472 C 0.09129 0.99205 0.54189 0.0
N473 N 0.04911 0.04584 0.4731 0.0
C474 C 0.07872 0.05984 0.47054 0.0
C475 C 0.09029 0.06684 0.44317 0.0
C476 C 0.07079 0.06003 0.41856 0.0
C477 C 0.03961 0.04776 0.42195 0.0
C478 C 0.02935 0.04041 0.44951 0.0
Zn479 Zn 0.03604 0.02437 0.51081 0.0
C480 C 0.02418 0.9491 0.49703 0.0
N481 N 0.00811 0.97162 0.58483 0.0
C482 C 0.02801 0.97977 0.60771 0.0
C483 C 0.97837 0.95858 0.58881 0.0
C484 C 0.96639 0.95683 0.61666 0.0
C485 C 0.98528 0.96873 0.64029 0.0
C486 C 0.0171 0.9784 0.63568 0.0
Zn487 Zn 0.02029 0.99237 0.54664 0.0
O488 O 0.0855 0.01269 0.52155 0.0
C489 C 0.03264 0.06788 0.56026 0.0
O490 O 0.06814 0.98024 0.55566 0.0
H491 H 0.96288 0.9524 0.57034 0.0
H492 H 0.09411 0.06385 0.48952 0.0
H493 H 0.05117 0.99102 0.60433 0.0
O494 O 0.03979 0.07044 0.53384 0.0
O495 O 0.02488 0.03934 0.56985 0.0
H496 H 0.00636 0.02832 0.45177 0.0
O497 O 0.972 0.00384 0.5369 0.0
O498 O 0.98637 0.03579 0.50121 0.0
O499 O 0.01604 0.94625 0.52323 0.0
O500 O 0.03226 0.97775 0.48787 0.0
C501 C 0.96434 0.02335 0.51624 0.0
H502 H 0.11452 0.07634 0.44118 0.0
H503 H 0.02414 0.04177 0.40335 0.0
H504 H 0.94186 0.9486 0.6194 0.0
H505 H 0.03245 0.98825 0.65302 0.0
C506 C 0.27473 0.78751 0.71814 0.0
N507 N 0.34465 0.72198 0.7519 0.0
C508 C 0.34135 0.70524 0.72632 0.0
C509 C 0.36818 0.69082 0.71366 0.0
C510 C 0.3986 0.69324 0.72766 0.0
C511 C 0.40101 0.70917 0.75473 0.0
C512 C 0.37364 0.72364 0.76642 0.0
Zn513 Zn 0.30647 0.74919 0.76642 0.0
C514 C 0.32601 0.82055 0.77735 0.0
N515 N 0.22762 0.80949 0.79561 0.0
C516 C 0.20158 0.81377 0.77732 0.0
C517 C 0.22746 0.82176 0.82308 0.0
C518 C 0.19995 0.83747 0.83347 0.0
C519 C 0.17233 0.84166 0.81526 0.0
C520 C 0.17404 0.83036 0.78648 0.0
Zn521 Zn 0.26653 0.78174 0.78177 0.0
O522 O 0.29573 0.76492 0.72313 0.0
C523 C 0.24689 0.71021 0.76966 0.0
O524 O 0.25749 0.79763 0.73862 0.0
H525 H 0.24836 0.81859 0.83737 0.0
H526 H 0.31808 0.70415 0.71515 0.0
H527 H 0.20173 0.80373 0.75563 0.0
O528 O 0.27611 0.70731 0.7626 0.0
O529 O 0.23614 0.73881 0.77685 0.0
H530 H 0.37581 0.73735 0.78655 0.0
O531 O 0.27744 0.76566 0.82484 0.0
O532 O 0.31691 0.73405 0.80991 0.0
O533 O 0.29729 0.82376 0.78584 0.0
O534 O 0.33622 0.79176 0.77029 0.0
C535 C 0.29965 0.74443 0.83036 0.0
H536 H 0.36532 0.67856 0.69284 0.0
H537 H 0.42412 0.71192 0.76605 0.0
H538 H 0.2002 0.84508 0.85592 0.0
H539 H 0.15414 0.83365 0.77106 0.0
C540 C 0.5206 0.94249 0.04721 0.0
N541 N 0.5328 0.03974 0.07927 0.0
C542 C 0.51524 0.02642 0.10067 0.0
C543 C 0.52648 0.02858 0.12932 0.0
C544 C 0.55578 0.04486 0.13568 0.0
C545 C 0.57065 0.06254 0.11364 0.0
C546 C 0.55874 0.05948 0.08529 0.0
Zn547 Zn 0.52951 0.01849 0.03957 0.0
C548 C 0.59384 0.99145 0.02467 0.0
N549 N 0.52713 0.96844 0.95907 0.0
C550 C 0.49989 0.95236 0.94979 0.0
C551 C 0.54936 0.97901 0.94019 0.0
C552 C 0.543 0.97675 0.91054 0.0
C553 C 0.51341 0.96377 0.90042 0.0
C554 C 0.49239 0.94992 0.92026 0.0
Zn555 Zn 0.52943 0.98891 -0.00083 0.0
O556 O 0.52213 0.97076 0.05979 0.0
C557 C 0.46502 0.01501 0.01444 0.0
O558 O 0.52224 0.94148 0.01977 0.0
H559 H 0.57058 0.99222 0.94802 0.0
H560 H 0.49463 0.01089 0.0953 0.0
H561 H 0.48259 0.94416 0.96522 0.0
O562 O 0.48002 0.02743 0.03624 0.0
O563 O 0.47994 -0.00256 -0.0036 0.0
H564 H 0.57238 0.06972 0.06789 0.0
O565 O 0.53647 0.03703 0.97883 0.0
O566 O 0.53692 0.06526 0.01938 0.0
O567 O 0.57873 0.9799 0.00263 0.0
O568 O 0.57919 0.00935 0.04266 0.0
C569 C 0.53825 0.06495 -0.00801 0.0
H570 H 0.51418 0.01467 0.14567 0.0
H571 H 0.59287 0.07607 0.11785 0.0
H572 H 0.55975 0.98779 0.89587 0.0
H573 H 0.46955 0.93924 0.9131 0.0
C574 C 0.28622 0.18739 0.26894 0.0
N575 N 0.34143 0.22793 0.20549 0.0
C576 C 0.35466 0.19693 0.20815 0.0
C577 C 0.35274 0.17464 0.18505 0.0
C578 C 0.33771 0.18471 0.15883 0.0
C579 C 0.32952 0.21867 0.15536 0.0
C580 C 0.33131 0.23999 0.17928 0.0
Zn581 Zn 0.32164 0.24613 0.24199 0.0
C582 C 0.25229 0.26061 0.23065 0.0
N583 N 0.27481 0.27421 0.3183 0.0
C584 C 0.28394 0.26247 0.3449 0.0
C585 C 0.25788 0.30321 0.31521 0.0
C586 C 0.25212 0.32321 0.33916 0.0
C587 C 0.26379 0.31327 0.36665 0.0
C588 C 0.27854 0.2817 0.36956 0.0
Zn589 Zn 0.29529 0.25603 0.28199 0.0
O590 O 0.30375 0.19774 0.24892 0.0
C591 C 0.36524 0.24346 0.29253 0.0
O592 O 0.27995 0.20681 0.28981 0.0
H593 H 0.25133 0.31243 0.29387 0.0
H594 H 0.36238 0.18774 0.22923 0.0
H595 H 0.29752 0.23943 0.34685 0.0
O596 O 0.36432 0.2373 0.26562 0.0
O597 O 0.33916 0.24912 0.30533 0.0
H598 H 0.32098 0.26479 0.17764 0.0
O599 O 0.31059 0.30527 0.2737 0.0
O600 O 0.3385 0.29461 0.23524 0.0
O601 O 0.25206 0.26296 0.25799 0.0
O602 O 0.27879 0.25582 0.21839 0.0
C603 C 0.32921 0.31513 0.25428 0.0
H604 H 0.35957 0.1489 0.18901 0.0
H605 H 0.31903 0.22795 0.13519 0.0
H606 H 0.24096 0.34742 0.33571 0.0
H607 H 0.28737 0.27276 0.39043 0.0
C608 C 0.58906 0.48821 0.04033 0.0
N609 N 0.54667 0.54225 0.97168 0.0
C610 C 0.57668 0.55467 0.96759 0.0
C611 C 0.58718 0.56003 0.93954 0.0
C612 C 0.56625 0.55312 0.91585 0.0
C613 C 0.53491 0.54235 0.92085 0.0
C614 C 0.52572 0.53668 0.94895 0.0
Zn615 Zn 0.53392 0.52152 0.00979 0.0
C616 C 0.52115 0.44629 -0.00422 0.0
N617 N 0.50532 0.46829 0.08356 0.0
C618 C 0.52633 0.47247 0.1065 0.0
C619 C 0.47393 0.46039 0.08759 0.0
C620 C 0.46154 0.46217 0.11522 0.0
C621 C 0.48203 0.47106 0.13878 0.0
C622 C 0.51522 0.4732 0.13446 0.0
Zn623 Zn 0.51808 0.48927 0.04546 0.0
O624 O 0.58332 0.50913 0.02018 0.0
C625 C 0.53152 0.56466 0.0595 0.0
O626 O 0.56589 0.47642 0.05408 0.0
H627 H 0.45764 0.45638 0.06923 0.0
H628 H 0.59314 0.55853 0.98588 0.0
H629 H 0.55113 0.47905 0.10333 0.0
O630 O 0.53847 0.56738 0.03301 0.0
O631 O 0.52359 0.53608 0.069 0.0
H632 H 0.50256 0.52541 0.95222 0.0
O633 O 0.46982 0.50185 0.03578 0.0
O634 O 0.48436 0.53414 0.00055 0.0
O635 O 0.51305 0.44334 0.02196 0.0
O636 O 0.52937 0.47494 0.98677 0.0
C637 C 0.46224 0.52185 0.0155 0.0
H638 H 0.6116 0.56839 0.93633 0.0
H639 H 0.51832 0.53612 0.90309 0.0
H640 H 0.43576 0.45984 0.11743 0.0
H641 H 0.53213 0.47859 0.15217 0.0
C642 C 0.77667 0.28953 0.22212 0.0
N643 N 0.84769 0.22397 0.25498 0.0
C644 C 0.84416 0.20712 0.22949 0.0
C645 C 0.87071 0.19166 0.2172 0.0
C646 C 0.90102 0.1932 0.23151 0.0
C647 C 0.90363 0.20943 0.25841 0.0
C648 C 0.87659 0.22491 0.26971 0.0
Zn649 Zn 0.81032 0.25194 0.2699 0.0
C650 C 0.83105 0.32309 0.27937 0.0
N651 N 0.73437 0.31344 0.30105 0.0
C652 C 0.70445 0.31066 0.28845 0.0
C653 C 0.73986 0.33385 0.32426 0.0
C654 C 0.71451 0.35182 0.33613 0.0
C655 C 0.68313 0.34871 0.3241 0.0
C656 C 0.67842 0.32806 0.29967 0.0
Zn657 Zn 0.77133 0.28481 0.28597 0.0
O658 O 0.79815 0.26731 0.22687 0.0
C659 C 0.75038 0.21351 0.27503 0.0
O660 O 0.76002 0.29991 0.24295 0.0
H661 H 0.76385 0.33572 0.33396 0.0
H662 H 0.82095 0.2066 0.21816 0.0
H663 H 0.70059 0.29426 0.27006 0.0
O664 O 0.77927 0.2103 0.2671 0.0
O665 O 0.74029 0.24217 0.28272 0.0
H666 H 0.87898 0.23877 0.28975 0.0
O667 O 0.78363 0.26987 0.32897 0.0
O668 O 0.82183 0.23719 0.31322 0.0
O669 O 0.80257 0.32647 0.28828 0.0
O670 O 0.84102 0.29416 0.2725 0.0
C671 C 0.80553 0.24819 0.33406 0.0
H672 H 0.86773 0.17926 0.19645 0.0
H673 H 0.92668 0.2116 0.26992 0.0
H674 H 0.71942 0.36765 0.35475 0.0
H675 H 0.65464 0.32432 0.28991 0.0
C676 C 0.02403 0.44496 0.54696 0.0
N677 N 0.03903 0.54153 0.57916 0.0
C678 C 0.02057 0.52888 0.60022 0.0
C679 C 0.03149 0.53017 0.62898 0.0
C680 C 0.06143 0.54493 0.6358 0.0
C681 C 0.07737 0.56218 0.61411 0.0
C682 C 0.06574 0.55997 0.58562 0.0
Zn683 Zn 0.03497 0.52075 0.5394 0.0
C684 C 0.09799 0.49171 0.52342 0.0
N685 N 0.02948 0.47122 0.45886 0.0
C686 C 0.00179 0.45607 0.44945 0.0
C687 C 0.052 0.48133 0.44007 0.0
C688 C 0.04562 0.47959 0.41043 0.0
C689 C 0.01568 0.46763 0.4002 0.0
C690 C -0.00574 0.45417 0.4199 0.0
Zn691 Zn 0.03265 0.49125 0.49903 0.0
O692 O 0.02675 0.47317 0.55949 0.0
C693 C 0.96953 0.51882 0.51545 0.0
O694 O 0.02491 0.44385 0.51947 0.0
H695 H 0.07357 0.49386 0.44799 0.0
H696 H -0.00063 0.51438 0.59449 0.0
H697 H 0.98425 0.44823 0.4648 0.0
O698 O 0.98559 0.53095 0.53676 0.0
O699 O 0.98334 0.50074 0.49706 0.0
H700 H 0.08001 0.56976 0.56845 0.0
O701 O 0.04007 0.53945 0.4788 0.0
O702 O 0.04304 0.56749 0.51943 0.0
O703 O 0.08176 0.48103 0.5017 0.0
O704 O 0.08462 0.51016 0.54186 0.0
C705 C 0.04302 0.56728 0.49198 0.0
H706 H 0.01836 0.51663 0.64502 0.0
H707 H 0.10012 0.57459 0.61869 0.0
H708 H 0.06267 0.49034 0.39588 0.0
H709 H 0.97112 0.44427 0.41262 0.0
C710 C 0.80334 0.70237 0.25674 0.0
N711 N 0.75218 0.72963 0.33044 0.0
C712 C 0.74241 0.6973 0.32836 0.0
C713 C 0.73593 0.67902 0.35315 0.0
C714 C 0.73833 0.69429 0.38061 0.0
C715 C 0.74601 0.72856 0.38173 0.0
C716 C 0.75346 0.74558 0.35645 0.0
Zn717 Zn 0.76972 0.75255 0.29437 0.0
C718 C 0.8394 0.77228 0.30376 0.0
N719 N 0.80862 0.79781 0.21938 0.0
C720 C 0.80057 0.78638 0.19241 0.0
C721 C 0.82736 0.82538 0.22324 0.0
C722 C 0.83787 0.84324 0.19945 0.0
C723 C 0.82856 0.83307 0.1713 0.0
C724 C 0.81016 0.80376 0.168 0.0
Zn725 Zn 0.79033 0.77508 0.25494 0.0
O726 O 0.787 0.70535 0.27936 0.0
C727 C 0.72057 0.75571 0.24486 0.0
O728 O 0.80798 0.72792 0.24116 0.0
H729 H 0.83348 0.83416 0.24484 0.0
H730 H 0.74098 0.68504 0.30752 0.0
H731 H 0.78574 0.76436 0.18979 0.0
O732 O 0.72398 0.74631 0.27112 0.0
O733 O 0.74482 0.7677 0.23234 0.0
H734 H 0.76129 0.77126 0.35781 0.0
O735 O 0.77347 0.82219 0.26951 0.0
O736 O 0.75306 0.80054 0.30838 0.0
O737 O 0.83462 0.78195 0.27783 0.0
O738 O 0.81612 0.75925 0.317 0.0
C739 C 0.75822 0.82592 0.29269 0.0
H740 H 0.73059 0.65277 0.35057 0.0
H741 H 0.74716 0.74217 0.40195 0.0
H742 H 0.85245 0.86528 0.20318 0.0
H743 H 0.80188 0.7951 0.14687 0.0
C744 C 0.84295 0.27176 0.75654 0.0
N745 N 0.75606 0.23666 0.71982 0.0
C746 C 0.76698 0.25329 0.6965 0.0
C747 C 0.76472 0.23894 0.66906 0.0
C748 C 0.75065 0.20731 0.66543 0.0
C749 C 0.73701 0.19208 0.68955 0.0
C750 C 0.7403 0.20712 0.71676 0.0
Zn751 Zn 0.77132 0.25327 0.75951 0.0
C752 C 0.80249 0.19791 0.79455 0.0
N753 N 0.80864 0.28692 0.84044 0.0
C754 C 0.82144 0.318 0.84308 0.0
C755 C 0.79975 0.26927 0.86396 0.0
C756 C 0.80041 0.28419 0.89118 0.0
C757 C 0.81023 0.31752 0.894 0.0
C758 C 0.82252 0.33389 0.86992 0.0
Zn759 Zn 0.79324 0.27048 0.80102 0.0
O760 O 0.81862 0.2609 0.74202 0.0
C761 C 0.76088 0.32592 0.76718 0.0
O762 O 0.83945 0.27971 0.78294 0.0
H763 H 0.78944 0.24466 0.86128 0.0
H764 H 0.7795 0.27675 0.69943 0.0
H765 H 0.82835 0.33147 0.82404 0.0
O766 O 0.75672 0.30296 0.74843 0.0
O767 O 0.77603 0.31933 0.79079 0.0
H768 H 0.73186 0.19434 0.73563 0.0
O769 O 0.74743 0.26072 0.81889 0.0
O770 O 0.72431 0.24575 0.7777 0.0
O771 O 0.80936 0.22216 0.81129 0.0
O772 O 0.78587 0.20335 0.77141 0.0
C773 C 0.72228 0.25147 0.80471 0.0
H774 H 0.77583 0.25164 0.65134 0.0
H775 H 0.72515 0.1681 0.68772 0.0
H776 H 0.79063 0.2708 0.90921 0.0
H777 H 0.83078 0.35948 0.87144 0.0
C778 C 0.75562 0.6951 0.7835 0.0
N779 N 0.82838 0.72053 0.72887 0.0
C780 C 0.83615 0.68799 0.73391 0.0
C781 C 0.83728 0.66548 0.71092 0.0
C782 C 0.8311 0.67691 0.68256 0.0
C783 C 0.82865 0.71157 0.67792 0.0
C784 C 0.82696 0.73308 0.70159 0.0
Zn785 Zn 0.8033 0.7445 0.75987 0.0
C786 C 0.73901 0.76654 0.73423 0.0
N787 N 0.74416 0.78906 0.82225 0.0
C788 C 0.74572 0.7765 0.84954 0.0
C789 C 0.73492 0.8212 0.81711 0.0
C790 C 0.73088 0.84322 0.84013 0.0
C791 C 0.73629 0.83188 0.86858 0.0
C792 C 0.74182 0.79763 0.8732 0.0
Zn793 Zn 0.76909 0.76522 0.79102 0.0
O794 O 0.78029 0.69858 0.76835 0.0
C795 C 0.83413 0.74691 0.81616 0.0
O796 O 0.74535 0.71982 0.79785 0.0
H797 H 0.7341 0.83074 0.79525 0.0
H798 H 0.83727 0.67858 0.75582 0.0
H799 H 0.7532 0.75089 0.85312 0.0
O800 O 0.83996 0.73622 0.791 0.0
O801 O 0.80543 0.75467 0.82213 0.0
H802 H 0.82075 0.75905 0.69809 0.0
O803 O 0.79282 0.81057 0.78362 0.0
O804 O 0.82577 0.79054 0.75176 0.0
O805 O 0.73355 0.77601 0.7598 0.0
O806 O 0.76624 0.75396 0.72867 0.0
C807 C 0.81617 0.81481 0.76706 0.0
H808 H 0.83947 0.63912 0.71575 0.0
H809 H 0.82509 0.72169 0.65636 0.0
H810 H 0.72662 0.86941 0.83555 0.0
H811 H 0.74544 0.78776 0.89485 0.0
C812 C 0.50812 0.50105 0.46952 0.0
N813 N 0.47708 0.56042 0.53705 0.0
C814 C 0.47723 0.58306 0.51516 0.0
C815 C 0.44881 0.59977 0.50716 0.0
C816 C 0.42082 0.59261 0.5221 0.0
C817 C 0.42395 0.57623 0.54891 0.0
C818 C 0.45255 0.55935 0.55571 0.0
Zn819 Zn 0.50365 0.51828 0.53242 0.0
C820 C 0.46267 0.45844 0.52597 0.0
N821 N 0.55996 0.43033 0.51944 0.0
C822 C 0.58024 0.43071 0.49692 0.0
C823 C 0.56731 0.41184 0.54346 0.0
C824 C 0.59927 0.4024 0.54923 0.0
C825 C 0.62251 0.41151 0.52939 0.0
C826 C 0.61198 0.42022 0.50126 0.0
Zn827 Zn 0.53229 0.47254 0.52472 0.0
O828 O 0.49561 0.52146 0.48694 0.0
C829 C 0.57244 0.53355 0.52935 0.0
O830 O 0.52633 0.47805 0.47948 0.0
H831 H 0.55019 0.40968 0.56046 0.0
H832 H 0.49741 0.58397 0.50097 0.0
H833 H 0.57409 0.44435 0.47742 0.0
O834 O 0.54467 0.54665 0.53025 0.0
O835 O 0.57514 0.50209 0.5265 0.0
H836 H 0.45311 0.54133 0.5731 0.0
O837 O 0.53803 0.46821 0.56934 0.0
O838 O 0.5128 0.51492 0.57844 0.0
O839 O 0.49014 0.44457 0.52393 0.0
O840 O 0.4612 0.48909 0.53305 0.0
C841 C 0.52983 0.49027 0.58731 0.0
H842 H 0.44736 0.61279 0.48664 0.0
H843 H 0.40297 0.57064 0.56135 0.0
H844 H 0.6064 0.39433 0.57085 0.0
H845 H 0.62904 0.42631 0.48484 0.0
C846 C 0.0137 0.53631 0.0727 0.0
N847 N 0.0524 0.45229 0.03245 0.0
C848 C 0.06802 0.44781 0.05841 0.0
C849 C 0.07318 0.41576 0.06922 0.0
C850 C 0.06303 0.38784 0.05281 0.0
C851 C 0.04871 0.39331 0.02525 0.0
C852 C 0.04319 0.42588 0.01564 0.0
Zn853 Zn 0.03799 0.49894 0.02098 0.0
C854 C 0.96574 0.50112 0.01169 0.0
N855 N 0.0045 0.59556 -0.0005 0.0
C856 C 0.01506 0.62167 0.01603 0.0
C857 C -0.00906 0.6003 0.97271 0.0
C858 C -0.00922 0.63189 0.9603 0.0
C859 C 0.00372 0.65912 0.97602 0.0
C860 C 0.01443 0.65391 0.00481 0.0
Zn861 Zn 0.01809 0.5489 0.01114 0.0
O862 O 0.02862 0.51005 0.0652 0.0
C863 C 0.08999 0.54801 0.02042 0.0
O864 O 0.00724 0.55867 0.05405 0.0
H865 H 0.98251 0.57917 0.96002 0.0
H866 H 0.07524 0.46916 0.07139 0.0
H867 H 0.02597 0.61727 0.03722 0.0
O868 O 0.08609 0.51693 0.02459 0.0
O869 O 0.06541 0.56661 0.01664 0.0
H870 H 0.03054 0.43004 -0.00484 0.0
O871 O 0.02837 0.53868 0.96796 0.0
O872 O 0.04722 0.48849 0.97672 0.0
O873 O 0.97118 0.53144 0.00563 0.0
O874 O -0.01065 0.48158 0.01734 0.0
C875 C 0.04119 0.51201 0.95898 0.0
H876 H 0.08378 0.41321 0.09079 0.0
H877 H 0.04114 0.37276 0.01143 0.0
H878 H 0.98246 0.63425 0.938 0.0
H879 H 0.02359 0.67419 0.01818 0.0
C880 C 0.11706 0.06554 0.09646 0.0
C881 C 0.11225 0.09956 0.09026 0.0
H882 H 0.10952 0.01561 0.08156 0.0
C883 C 0.10647 0.10931 0.06135 0.0
H884 H 0.12213 0.05722 0.11842 0.0
C885 C 0.09982 0.08533 0.0401 0.0
C886 C 0.0987 0.05148 0.04762 0.0
H887 H 0.10362 0.13542 0.0557 0.0
H888 H 0.09077 0.09352 0.01904 0.0
C889 C 0.11056 0.04157 0.07509 0.0
C890 C 0.15975 0.75757 0.3637 0.0
C891 C 0.13005 0.75404 0.34857 0.0
H892 H 0.21107 0.76029 0.36158 0.0
C893 C 0.13025 0.74928 0.31836 0.0
H894 H 0.16063 0.76117 0.38692 0.0
C895 C 0.15943 0.74857 0.30366 0.0
C896 C 0.18909 0.75276 0.31882 0.0
H897 H 0.10783 0.74637 0.30599 0.0
H898 H 0.15868 0.74535 0.2804 0.0
C899 C 0.18878 0.75702 0.34907 0.0
C900 C 0.53964 0.80035 0.56477 0.0
C901 C 0.56513 0.79165 0.58384 0.0
H902 H 0.51788 0.83884 0.5388 0.0
C903 C 0.59065 0.81389 0.58881 0.0
H904 H 0.51977 0.78332 0.56076 0.0
C905 C 0.59042 0.84497 0.57547 0.0
C906 C 0.56402 0.85496 0.55767 0.0
H907 H 0.61082 0.8072 0.60316 0.0
H908 H 0.61075 0.86136 0.57959 0.0
C909 C 0.53884 0.83201 0.55205 0.0
C910 C 0.42959 0.28892 0.81131 0.0
C911 C 0.43924 0.27227 0.83693 0.0
H912 H 0.39164 0.3006 0.78075 0.0
C913 C 0.4158 0.25448 0.85191 0.0
H914 H 0.44674 0.30296 0.79909 0.0
C915 C 0.38358 0.25334 0.8413 0.0
C916 C 0.37429 0.26975 0.81541 0.0
H917 H 0.4223 0.24149 0.87177 0.0
H918 H 0.36613 0.23918 0.85307 0.0
C919 C 0.39777 0.28761 0.80072 0.0
C920 C 0.03881 0.89755 0.4297 0.0
C921 C 0.03376 0.86458 0.43895 0.0
H922 H 0.03943 0.94943 0.4403 0.0
C923 C 0.02463 0.85952 0.46769 0.0
H924 H 0.04572 0.90269 0.40778 0.0
C925 C 0.0209 0.88679 0.48665 0.0
C926 C 0.02619 0.9197 0.47724 0.0
H927 H 0.0204 0.83452 0.47557 0.0
H928 H 0.01419 0.88207 0.50869 0.0
C929 C 0.03507 0.92457 0.44846 0.0
C930 C 0.46293 0.68505 0.67189 0.0
C931 C 0.48775 0.66856 0.68764 0.0
H932 H 0.41517 0.70548 0.67218 0.0
C933 C 0.48176 0.65725 0.71573 0.0
H934 H 0.46673 0.69403 0.6502 0.0
C935 C 0.45233 0.66415 0.72842 0.0
C936 C 0.42809 0.68197 0.71312 0.0
H937 H 0.50037 0.64453 0.72849 0.0
H938 H 0.44881 0.65629 0.75049 0.0
C939 C 0.43334 0.6915 0.68443 0.0
C940 C 0.53507 0.12693 0.9296 0.0
C941 C 0.53849 0.15777 0.94401 0.0
H942 H 0.53276 0.07363 0.93325 0.0
C943 C 0.54284 0.1577 0.97431 0.0
H944 H 0.53184 0.12599 0.90629 0.0
C945 C 0.5433 0.12763 -0.01017 0.0
C946 C 0.53967 0.09679 0.97544 0.0
H947 H 0.54565 0.18095 0.98612 0.0
H948 H 0.54628 0.12859 0.01316 0.0
C949 C 0.53577 0.09685 0.94509 0.0
C950 C 0.16617 0.23787 0.21365 0.0
C951 C 0.16761 0.22953 0.18422 0.0
H952 H 0.19178 0.25552 0.25139 0.0
C953 C 0.19572 0.23643 0.16932 0.0
H954 H 0.14456 0.23335 0.22554 0.0
C955 C 0.22269 0.24941 0.18404 0.0
C956 C 0.22195 0.25571 0.21392 0.0
H957 H 0.19731 0.23073 0.14651 0.0
H958 H 0.24461 0.2528 0.17231 0.0
C959 C 0.19308 0.25098 0.22836 0.0
C960 C 0.09577 0.97807 0.15233 0.0
C961 C 0.0892 0.00345 0.17214 0.0
H962 H 0.08152 0.95316 0.11337 0.0
C963 C 0.06115 0.02296 0.16801 0.0
H964 H 0.11701 0.96245 0.15522 0.0
C965 C 0.04087 0.01817 0.1435 0.0
C966 C 0.04788 0.99313 0.12328 0.0
H967 H 0.0556 0.0427 0.18314 0.0
H968 H 0.02033 0.0346 0.13997 0.0
C969 C 0.07512 0.9726 0.12848 0.0
C970 C 0.27941 0.88773 0.44109 0.0
C971 C 0.28523 0.87441 0.46884 0.0
H972 H 0.28271 0.8807 0.39556 0.0
C973 C 0.29959 0.84264 0.47159 0.0
H974 H 0.2684 0.91211 0.43814 0.0
C975 C 0.30808 0.82468 0.44701 0.0
C976 C 0.30259 0.83834 0.41934 0.0
H977 H 0.30452 0.83174 0.49269 0.0
H978 H 0.31908 0.80025 0.44961 0.0
C979 C 0.28804 0.86994 0.41666 0.0
C980 C 0.49767 0.0167 0.65163 0.0
C981 C 0.467 0.03149 0.65348 0.0
H982 H 0.53807 0.00708 0.62493 0.0
C983 C 0.45482 0.05093 0.63047 0.0
H984 H 0.50755 0.00157 0.66919 0.0
C985 C 0.47276 0.05512 0.60576 0.0
C986 C 0.50279 0.0391 0.60328 0.0
H987 H 0.43136 0.06277 0.63153 0.0
H988 H 0.4623 0.06951 0.58798 0.0
C989 C 0.5152 0.01999 0.62648 0.0
C990 C 0.22218 0.15248 0.94988 0.0
C991 C 0.23012 0.1186 0.94609 0.0
H992 H 0.21745 0.20082 0.93028 0.0
C993 C 0.23704 0.10707 0.91827 0.0
H994 H 0.21673 0.16213 0.97107 0.0
C995 C 0.2375 0.12918 0.89501 0.0
C996 C 0.23115 0.16339 0.89901 0.0
H997 H 0.24328 0.08114 0.91463 0.0
H998 H 0.24438 0.11967 0.87415 0.0
C999 C 0.22282 0.17469 0.92659 0.0
C1000 C 0.07592 0.0772 0.33883 0.0
C1001 C 0.10276 0.05768 0.33165 0.0
H1002 H 0.04482 0.09331 0.37226 0.0
C1003 C 0.12053 0.04122 0.35374 0.0
H1004 H 0.06177 0.09023 0.32228 0.0
C1005 C 0.11115 0.04362 0.38241 0.0
C1006 C 0.08359 0.06206 0.3893 0.0
H1007 H 0.14148 0.02625 0.34887 0.0
H1008 H 0.1246 0.02991 0.399 0.0
C1009 C 0.06625 0.0791 0.36737 0.0
C1010 C 0.27175 0.86099 0.66715 0.0
C1011 C 0.28466 0.84749 0.64198 0.0
H1012 H 0.25729 0.85228 0.71038 0.0
C1013 C 0.29241 0.81326 0.6413 0.0
H1014 H 0.26511 0.88715 0.6682 0.0
C1015 C 0.28825 0.7932 0.66572 0.0
C1016 C 0.27527 0.8068 0.69089 0.0
H1017 H 0.30217 0.80215 0.62207 0.0
H1018 H 0.29545 0.76719 0.66503 0.0
C1019 C 0.26675 0.84083 0.69116 0.0
C1020 C 0.51489 0.96856 0.81897 0.0
C1021 C 0.48433 0.98229 0.8121 0.0
H1022 H 0.54785 0.95142 0.85234 0.0
C1023 C 0.46334 0.98948 0.83449 0.0
H1024 H 0.53161 0.96267 0.80218 0.0
C1025 C 0.47255 0.98258 0.86314 0.0
C1026 C 0.503 0.96866 0.86992 0.0
H1027 H 0.43957 -0.00019 0.82987 0.0
H1028 H 0.45604 0.98867 0.88006 0.0
C1029 C 0.52419 0.96196 0.84762 0.0
C1030 C 0.28199 0.13814 0.10629 0.0
C1031 C 0.29791 0.10739 0.10379 0.0
H1032 H 0.28155 0.18623 0.12597 0.0
C1033 C 0.32803 0.10278 0.1179 0.0
H1034 H 0.25879 0.14233 0.09545 0.0
C1035 C 0.34195 0.12852 0.13441 0.0
C1036 C 0.32562 0.15912 0.13776 0.0
H1037 H 0.34115 0.07952 0.11565 0.0
H1038 H 0.36539 0.12427 0.14471 0.0
C1039 C 0.29545 0.16355 0.12338 0.0
C1040 C 0.16934 0.97386 0.06113 0.0
C1041 C 0.19363 0.97253 0.04096 0.0
H1042 H 0.12753 0.95066 0.07696 0.0
C1043 C 0.19899 0.94268 0.02574 0.0
H1044 H 0.16571 0.99614 0.07394 0.0
C1045 C 0.17738 0.91622 0.02762 0.0
C1046 C 0.15032 0.9194 0.04484 0.0
H1047 H 0.21822 0.94082 0.01053 0.0
H1048 H 0.17965 0.8951 0.01313 0.0
C1049 C 0.14807 0.94728 0.06339 0.0
C1050 C 0.67998 0.48226 0.0481 0.0
C1051 C 0.68378 0.4502 0.06014 0.0
H1052 H 0.64668 0.51937 0.03163 0.0
C1053 C 0.65645 0.43125 0.06587 0.0
H1054 H 0.7008 0.49724 0.04329 0.0
C1055 C 0.62578 0.44406 0.05973 0.0
C1056 C 0.62183 0.47578 0.04711 0.0
H1057 H 0.6588 0.40648 0.07512 0.0
H1058 H 0.6051 0.42876 0.06436 0.0
C1059 C 0.64915 0.49481 0.04126 0.0
C1060 C 0.85243 0.41263 0.26164 0.0
C1061 C 0.88186 0.40845 0.24778 0.0
H1062 H 0.81362 0.38912 0.28315 0.0
C1063 C 0.89541 0.37623 0.24646 0.0
H1064 H 0.84148 0.43712 0.26339 0.0
C1065 C 0.87975 0.34885 0.25821 0.0
C1066 C 0.85002 0.35287 0.27154 0.0
H1067 H 0.91822 0.37202 0.2363 0.0
H1068 H 0.89062 0.32436 0.25614 0.0
C1069 C 0.83668 0.38515 0.27336 0.0
C1070 C 0.88201 0.5006 0.50232 0.0
C1071 C 0.86797 0.52836 0.5154 0.0
H1072 H 0.92588 0.47625 0.49152 0.0
C1073 C 0.88715 0.55499 0.5253 0.0
H1074 H 0.86734 0.47973 0.49493 0.0
C1075 C 0.92057 0.55253 0.5244 0.0
C1076 C 0.93476 0.52381 0.51289 0.0
H1077 H 0.8765 0.57635 0.53587 0.0
H1078 H 0.93528 0.5724 0.53365 0.0
C1079 C 0.91532 0.49857 0.5006 0.0
C1080 C 0.23531 0.12478 0.22787 0.0
C1081 C 0.21921 0.10922 0.25016 0.0
H1082 H 0.27048 0.16067 0.21658 0.0
C1083 C 0.22793 0.11648 0.2791 0.0
H1084 H 0.22881 0.11947 0.20545 0.0
C1085 C 0.25121 0.14076 0.28567 0.0
C1086 C 0.26673 0.15721 0.26333 0.0
H1087 H 0.21549 0.10466 0.29657 0.0
H1088 H 0.25623 0.1475 0.30806 0.0
C1089 C 0.25931 0.14813 0.23439 0.0
C1090 C 0.39614 0.95798 0.54021 0.0
C1091 C 0.37037 0.98033 0.53531 0.0
H1092 H 0.44673 0.94888 0.53653 0.0
C1093 C 0.37645 0.01133 0.52233 0.0
H1094 H 0.39219 0.93374 0.54979 0.0
C1095 C 0.40747 0.01981 0.51443 0.0
C1096 C 0.43324 -0.0025 0.51921 0.0
H1097 H 0.35714 0.02911 0.51808 0.0
H1098 H 0.41127 0.04407 0.50482 0.0
C1099 C 0.42727 0.96645 0.53215 0.0
C1100 C 0.86944 0.64184 0.23736 0.0
C1101 C 0.85684 0.61111 0.24613 0.0
H1102 H 0.86183 0.69456 0.23283 0.0
C1103 C 0.82556 0.61028 0.25689 0.0
H1104 H 0.89336 0.64315 0.22871 0.0
C1105 C 0.80774 0.63987 0.25982 0.0
C1106 C 0.82041 0.6706 0.25104 0.0
H1107 H 0.81524 0.5869 0.26372 0.0
H1108 H 0.78413 0.63876 0.2691 0.0
C1109 C 0.85124 0.67119 0.23938 0.0
C1110 C 0.72302 0.40312 0.73269 0.0
C1111 C 0.70773 0.4177 0.75633 0.0
H1112 H 0.75138 0.36203 0.71741 0.0
C1113 C 0.71133 0.40271 0.78363 0.0
H1114 H 0.72051 0.41418 0.71138 0.0
C1115 C 0.72997 0.37372 0.78726 0.0
C1116 C 0.74441 0.35851 0.76346 0.0
H1117 H 0.69991 0.41353 0.8022 0.0
H1118 H 0.73211 0.36251 0.80854 0.0
C1119 C 0.74068 0.37339 0.73611 0.0
C1120 C 0.92918 0.94751 0.96417 0.0
C1121 C 0.93932 0.91434 0.9605 0.0
H1122 H 0.92471 0.98765 -0.00583 0.0
C1123 C 0.94069 0.89315 0.98477 0.0
H1124 H 0.9263 0.96406 0.94579 0.0
C1125 C 0.93911 0.90658 0.01255 0.0
C1126 C 0.93763 0.94136 0.01606 0.0
H1127 H 0.94678 0.86696 0.98258 0.0
H1128 H 0.94566 0.89075 0.0308 0.0
C1129 C 0.92745 0.96083 -0.00792 0.0
C1130 C 0.93365 0.26275 0.74968 0.0
C1131 C 0.93724 0.26195 0.71952 0.0
H1132 H 0.90157 0.2675 0.78489 0.0
C1133 C 0.90972 0.26714 0.70151 0.0
H1134 H 0.95435 0.259 0.76421 0.0
C1135 C 0.87914 0.27128 0.71345 0.0
C1136 C 0.87554 0.27137 0.74368 0.0
H1137 H 0.91161 0.26653 0.67822 0.0
H1138 H 0.8582 0.27383 0.69901 0.0
C1139 C 0.90336 0.26784 0.76159 0.0
C1140 C 0.52172 0.25976 0.47441 0.0
C1141 C 0.52873 0.26126 0.44492 0.0
H1142 H 0.50958 0.22861 0.50998 0.0
C1143 C 0.53144 0.23149 0.4291 0.0
H1144 H 0.51929 0.28234 0.4871 0.0
C1145 C 0.52569 0.20089 0.44213 0.0
C1146 C 0.51711 0.19945 0.47121 0.0
H1147 H 0.53689 0.23187 0.40636 0.0
H1148 H 0.52774 0.17833 0.42933 0.0
C1149 C 0.51594 0.22907 0.48746 0.0
C1150 C 0.65505 0.76199 0.18518 0.0
C1151 C 0.62659 0.75814 0.20055 0.0
H1152 H 0.70672 0.76431 0.18692 0.0
C1153 C 0.62942 0.75222 0.23053 0.0
H1154 H 0.65386 0.76653 0.16209 0.0
C1155 C 0.65985 0.75042 0.24475 0.0
C1156 C 0.6883 0.75493 0.22946 0.0
H1157 H 0.60808 0.74894 0.24306 0.0
H1158 H 0.66102 0.74618 0.26788 0.0
C1159 C 0.68543 0.76065 0.19945 0.0
C1160 C 0.03258 0.158 0.58783 0.0
C1161 C 0.03008 0.15351 0.61787 0.0
H1162 H 0.03588 0.13468 0.54609 0.0
C1163 C 0.02856 0.12068 0.62854 0.0
H1164 H 0.034 0.18288 0.57883 0.0
C1165 C 0.02947 0.09317 0.60983 0.0
C1166 C 0.03233 0.09755 0.57986 0.0
H1167 H 0.02662 0.11612 0.65149 0.0
H1168 H 0.02811 0.06835 0.61899 0.0
C1169 C 0.03389 0.13035 0.56907 0.0
C1170 C 0.62452 0.37501 0.38135 0.0
C1171 C 0.59718 0.3839 0.36429 0.0
H1172 H 0.67288 0.35635 0.38208 0.0
C1173 C 0.59996 0.38588 0.33414 0.0
H1174 H 0.62323 0.37319 0.40464 0.0
C1175 C 0.62857 0.37647 0.32117 0.0
C1176 C 0.65502 0.36466 0.33802 0.0
H1177 H 0.57944 0.39299 0.3204 0.0
H1178 H 0.62949 0.37716 0.29781 0.0
C1179 C 0.65309 0.36535 0.36835 0.0
C1180 C 0.51849 0.88471 0.11246 0.0
C1181 C 0.5218 0.85287 0.09997 0.0
H1182 H 0.51525 0.93752 0.10583 0.0
C1183 C 0.52315 0.8506 0.06963 0.0
H1184 H 0.51728 0.88752 0.1357 0.0
C1185 C 0.52187 0.87947 0.05233 0.0
C1186 C 0.51925 0.91137 0.06494 0.0
H1187 H 0.52563 0.82651 0.05922 0.0
H1188 H 0.52358 0.87682 0.02912 0.0
C1189 C 0.51726 0.91348 0.09524 0.0
C1190 C 0.87685 0.8194 0.8502 0.0
C1191 C 0.90905 0.81085 0.84617 0.0
H1192 H 0.82787 0.80456 0.84597 0.0
C1193 C 0.91692 0.77862 0.83652 0.0
H1194 H 0.87041 0.84388 0.85829 0.0
C1195 C 0.89249 0.75601 0.82881 0.0
C1196 C 0.86005 0.76497 0.83191 0.0
H1197 H 0.94185 0.77148 0.83383 0.0
H1198 H 0.89883 0.73222 0.81929 0.0
C1199 C 0.85262 0.79646 0.84374 0.0
C1200 C 0.9624 0.01618 0.90602 0.0
C1201 C 0.9774 0.99415 0.8869 0.0
H1202 H 0.96034 0.03483 0.9493 0.0
C1203 C 0.00343 0.97448 0.89734 0.0
H1204 H 0.94243 0.03182 0.89867 0.0
C1205 C 0.01348 0.97597 0.92642 0.0
C1206 C -0.0019 -0.00244 0.94561 0.0
H1207 H 0.01558 0.95724 0.88322 0.0
H1208 H 0.03302 0.95984 0.93392 0.0
C1209 C 0.97279 0.01804 0.93501 0.0
C1210 C 0.75696 0.18916 0.58497 0.0
C1211 C 0.76195 0.15447 0.58503 0.0
H1212 H 0.74787 0.23292 0.61007 0.0
C1213 C 0.76245 0.13727 0.61145 0.0
H1214 H 0.75598 0.20297 0.56485 0.0
C1215 C 0.75837 0.15438 0.63735 0.0
C1216 C 0.75307 0.18909 0.63748 0.0
H1217 H 0.76641 0.11052 0.61217 0.0
H1218 H 0.76009 0.14033 0.65731 0.0
C1219 C 0.75228 0.20627 0.61091 0.0
C1220 C 0.55325 0.04741 0.38309 0.0
C1221 C 0.57973 0.02765 0.37535 0.0
H1222 H 0.51961 0.05984 0.4154 0.0
C1223 C 0.59114 0.00285 0.39463 0.0
H1224 H 0.54359 0.06659 0.36875 0.0
C1225 C 0.57689 -0.00134 0.42143 0.0
C1226 C 0.55123 0.01939 0.42945 0.0
H1227 H 0.61126 0.98699 0.38917 0.0
H1228 H 0.58687 0.98019 0.43632 0.0
C1229 C 0.53928 0.0434 0.40981 0.0
C1230 C 0.83334 0.90972 0.12368 0.0
C1231 C 0.83472 0.89538 0.096 0.0
H1232 H 0.82955 0.90148 0.16893 0.0
C1233 C 0.83921 0.86068 0.09364 0.0
H1234 H 0.82988 0.93637 0.1263 0.0
C1235 C 0.83947 0.84049 0.11831 0.0
C1236 C 0.83497 0.85456 0.14582 0.0
H1237 H 0.84061 0.84888 0.07262 0.0
H1238 H 0.84177 0.81373 0.11564 0.0
C1239 C 0.83326 0.88957 0.14826 0.0
C1240 C 0.97769 0.98758 0.71992 0.0
C1241 C 0.94717 0.00278 0.72018 0.0
H1242 H 0.01293 0.96291 0.69475 0.0
C1243 C 0.92829 0.00423 0.69449 0.0
H1244 H -0.00742 0.98563 0.73951 0.0
C1245 C 0.94004 0.99154 0.66879 0.0
C1246 C 0.97082 0.97679 0.66833 0.0
H1247 H 0.90457 0.01565 0.69413 0.0
H1248 H 0.92548 0.99457 0.64912 0.0
C1249 C -0.01075 0.97439 0.69431 0.0
C1250 C 0.78888 0.22669 0.41186 0.0
C1251 C 0.80102 0.19392 0.41373 0.0
H1252 H 0.78092 0.2698 0.38511 0.0
C1253 C 0.81835 0.18105 0.39058 0.0
H1254 H 0.77549 0.23733 0.42938 0.0
C1255 C 0.82202 0.19986 0.36547 0.0
C1256 C 0.80792 0.23175 0.36275 0.0
H1257 H 0.82826 0.15599 0.39148 0.0
H1258 H 0.83428 0.18856 0.34756 0.0
C1259 C 0.79205 0.24532 0.38652 0.0
C1260 C 0.57318 0.02742 0.21502 0.0
C1261 C 0.60619 0.01929 0.21503 0.0
H1262 H 0.53146 0.04295 0.19003 0.0
C1263 C 0.62266 0.02105 0.18911 0.0
H1264 H 0.5599 0.02654 0.23477 0.0
C1265 C 0.60639 0.03048 0.16358 0.0
C1266 C 0.57333 0.03848 0.16347 0.0
H1267 H 0.64808 0.01496 0.18849 0.0
H1268 H 0.61957 0.03051 0.14376 0.0
C1269 C 0.55691 0.03695 0.18947 0.0
C1270 C 0.77277 0.87632 0.93406 0.0
C1271 C 0.75298 0.90473 0.93601 0.0
H1272 H 0.78298 0.83123 0.91132 0.0
C1273 C 0.72694 0.90858 0.91601 0.0
H1274 H 0.793 0.8725 0.94908 0.0
C1275 C 0.72091 0.88458 0.89453 0.0
C1276 C 0.74072 0.85618 0.89263 0.0
H1277 H 0.71104 0.93004 0.91702 0.0
H1278 H 0.7007 0.88821 0.87944 0.0
C1279 C 0.76673 0.85237 0.91263 0.0
C1280 C 0.83368 0.08183 0.01703 0.0
C1281 C 0.83443 0.0552 -0.00273 0.0
H1282 H 0.86209 0.11641 0.04241 0.0
C1283 C 0.86231 0.04886 0.98205 0.0
H1284 H 0.81221 0.08681 0.02906 0.0
C1285 C 0.89033 0.06659 0.98881 0.0
C1286 C 0.89102 0.08977 0.01178 0.0
H1287 H 0.86322 0.02827 0.96683 0.0
H1288 H 0.91237 0.05865 0.97885 0.0
C1289 C 0.86204 0.09894 0.02448 0.0
C1290 C 0.37183 0.5241 0.02163 0.0
C1291 C 0.36318 0.55268 0.00553 0.0
H1292 H 0.40968 0.49204 0.03729 0.0
C1293 C 0.38732 0.57009 -0.00879 0.0
H1294 H 0.35393 0.50998 0.0329 0.0
C1295 C 0.41952 0.55953 -0.00642 0.0
C1296 C 0.42814 0.53159 0.01053 0.0
H1297 H 0.38144 0.59212 0.97853 0.0
H1298 H 0.43773 0.57376 0.98281 0.0
C1299 C 0.40388 0.51378 0.02419 0.0
C1300 C 0.22277 0.61994 0.78097 0.0
C1301 C 0.18938 0.62282 0.78443 0.0
H1302 H 0.26697 0.64514 0.77278 0.0
C1303 C 0.17494 0.65463 0.7821 0.0
H1304 H 0.23458 0.59579 0.78232 0.0
C1305 C 0.19345 0.68291 0.77669 0.0
C1306 C 0.22679 0.68002 0.773 0.0
H1307 H 0.14924 0.65775 0.78457 0.0
H1308 H 0.18163 0.70706 0.77546 0.0
C1309 C 0.24124 0.64819 0.7751 0.0
C1310 C 0.173 0.4389 0.52128 0.0
C1311 C 0.19439 0.45764 0.5388 0.0
H1312 H 0.12564 0.43579 0.50196 0.0
C1313 C 0.18365 0.48693 0.55217 0.0
H1314 H 0.18097 0.4165 0.51039 0.0
C1315 C 0.15208 0.49796 0.54741 0.0
C1316 C 0.13115 0.48019 0.52868 0.0
H1317 H 0.2 0.50184 0.56557 0.0
H1318 H 0.14436 0.52085 0.5577 0.0
C1319 C 0.14162 0.45029 0.51603 0.0
C1320 C 0.84221 0.90072 0.79189 0.0
C1321 C 0.87439 0.9013 0.78347 0.0
H1322 H 0.7983 0.87305 0.79277 0.0
C1323 C 0.88639 0.87419 0.76757 0.0
H1324 H 0.83217 0.92125 0.80399 0.0
C1325 C 0.86684 0.84686 0.76068 0.0
C1326 C 0.83496 0.84589 0.76977 0.0
H1327 H 0.911 0.87393 0.76049 0.0
H1328 H 0.87711 0.82599 0.74917 0.0
C1329 C 0.82274 0.87322 0.78522 0.0
C1330 C 0.65653 0.11046 0.49813 0.0
C1331 C 0.68195 0.08888 0.49136 0.0
H1332 H 0.60891 0.11531 0.51368 0.0
C1333 C 0.67873 0.05449 0.49668 0.0
H1334 H 0.65836 0.13712 0.49466 0.0
C1335 C 0.65031 0.04189 0.50792 0.0
C1336 C 0.62462 0.06349 0.51403 0.0
H1337 H 0.69807 0.03726 0.492 0.0
H1338 H 0.64808 0.01518 0.51087 0.0
C1339 C 0.62829 0.09795 0.50939 0.0
C1340 C 0.20636 0.38998 0.82062 0.0
C1341 C 0.21752 0.41855 0.80651 0.0
H1342 H 0.21187 0.33735 0.82759 0.0
C1343 C 0.24515 0.41585 0.78986 0.0
H1344 H 0.18515 0.39129 0.83363 0.0
C1345 C 0.2601 0.38483 0.78596 0.0
C1346 C 0.24813 0.35599 0.79911 0.0
H1347 H 0.25427 0.43737 0.77863 0.0
H1348 H 0.28052 0.38328 0.77201 0.0
C1349 C 0.22171 0.35909 0.8172 0.0
C1350 C 0.31462 0.60627 0.28954 0.0
C1351 C 0.34118 0.60297 0.30897 0.0
H1352 H 0.28045 0.63974 0.2691 0.0
C1353 C 0.35127 0.63065 0.32547 0.0
H1354 H 0.30653 0.5853 0.2764 0.0
C1355 C 0.33618 0.66155 0.32158 0.0
C1356 C 0.31112 0.66554 0.30066 0.0
H1357 H 0.37166 0.62873 0.34062 0.0
H1358 H 0.34531 0.68267 0.33397 0.0
C1359 C 0.29988 0.63744 0.28519 0.0
C1360 C 0.6066 0.6112 0.55593 0.0
C1361 C 0.61141 0.60168 0.58501 0.0
H1362 H 0.59198 0.59514 0.5134 0.0
C1363 C 0.61568 0.56769 0.59158 0.0
H1364 H 0.60416 0.63728 0.55004 0.0
C1365 C 0.60949 0.54358 0.57026 0.0
C1366 C 0.59863 0.55332 0.54245 0.0
H1367 H 0.61995 0.55956 0.6137 0.0
H1368 H 0.60787 0.51773 0.5769 0.0
C1369 C 0.60033 0.58707 0.53472 0.0
C1370 C 0.63216 0.24604 0.81894 0.0
C1371 C 0.63168 0.25087 0.84913 0.0
H1372 H 0.6609 0.24207 0.78119 0.0
C1373 C 0.66127 0.25436 0.86447 0.0
H1374 H 0.60984 0.24316 0.80641 0.0
C1375 C 0.69045 0.25376 0.85004 0.0
C1376 C 0.69102 0.24949 0.8198 0.0
H1377 H 0.66194 0.25801 0.88769 0.0
H1378 H 0.71264 0.25706 0.86268 0.0
C1379 C 0.66147 0.24528 0.80446 0.0
C1380 C 0.09141 0.31505 0.09937 0.0
C1381 C 0.06805 0.29089 0.09258 0.0
H1382 H 0.1096 0.36349 0.09082 0.0
C1383 C 0.04411 0.29758 0.07137 0.0
H1384 H 0.1105 0.30998 0.11533 0.0
C1385 C 0.04264 0.3289 0.05809 0.0
C1386 C 0.06579 0.3536 0.06516 0.0
H1387 H 0.02591 0.27909 0.06588 0.0
H1388 H 0.02275 0.33394 0.04301 0.0
C1389 C 0.09068 0.34581 0.08544 0.0
C1390 C 0.92749 0.79517 0.31407 0.0
C1391 C 0.93748 0.77677 0.33869 0.0
H1392 H 0.88931 0.80844 0.28426 0.0
C1393 C 0.91427 0.7577 0.35279 0.0
H1394 H 0.94441 0.8103 0.30256 0.0
C1395 C 0.88202 0.75685 0.34219 0.0
C1396 C 0.87245 0.77487 0.31719 0.0
H1397 H 0.92101 0.74335 0.37187 0.0
H1398 H 0.8648 0.74154 0.35317 0.0
C1399 C 0.89564 0.79417 0.3035 0.0
C1400 C 0.53637 0.39496 0.92844 0.0
C1401 C 0.53227 0.36189 0.93784 0.0
H1402 H 0.53571 0.44689 0.93886 0.0
C1403 C 0.52326 0.3567 0.96661 0.0
H1404 H 0.54312 0.40018 0.90649 0.0
C1405 C 0.51887 0.38394 0.98546 0.0
C1406 C 0.52335 0.41695 0.97594 0.0
H1407 H 0.51973 0.33163 0.9746 0.0
H1408 H 0.51239 0.37912 0.00755 0.0
C1409 C 0.53197 0.42195 0.94711 0.0
C1410 C 0.96618 0.18326 0.17688 0.0
C1411 C -0.0095 0.16667 0.1932 0.0
H1412 H 0.91867 0.20431 0.17619 0.0
C1413 C 0.98373 0.15549 0.22114 0.0
H1414 H 0.97059 0.19208 0.15525 0.0
C1415 C 0.95405 0.16279 0.23322 0.0
C1416 C 0.9304 0.18091 0.21742 0.0
H1417 H 0.00195 0.14266 0.23429 0.0
H1418 H 0.94995 0.15517 0.25525 0.0
C1419 C 0.93637 0.19013 0.18882 0.0
C1420 C 0.03656 0.62952 0.42985 0.0
C1421 C 0.04014 0.66034 0.44424 0.0
H1422 H 0.03513 0.57617 0.43339 0.0
C1423 C 0.04594 0.66018 0.47439 0.0
H1424 H 0.03226 0.62864 0.40664 0.0
C1425 C 0.04757 0.63003 0.48979 0.0
C1426 C 0.04369 0.5992 0.47543 0.0
H1427 H 0.04896 0.68342 0.48619 0.0
H1428 H 0.05158 0.63094 0.51304 0.0
C1429 C 0.0384 0.59936 0.44521 0.0
C1430 C 0.65513 0.75069 0.70595 0.0
C1431 C 0.66116 0.73567 0.67922 0.0
H1432 H 0.67514 0.77383 0.74395 0.0
C1433 C 0.69234 0.73655 0.66846 0.0
H1434 H 0.63109 0.75101 0.71441 0.0
C1435 C 0.71769 0.74966 0.68541 0.0
C1436 C 0.71204 0.76234 0.71318 0.0
H1437 H 0.69745 0.72555 0.64768 0.0
H1438 H 0.74194 0.74797 0.67751 0.0
C1439 C 0.68031 0.7642 0.72268 0.0
C1440 C 0.5582 0.51646 0.66287 0.0
C1441 C 0.58638 0.49702 0.66633 0.0
H1442 H 0.51795 0.52996 0.63476 0.0
C1443 C 0.59382 0.47355 0.64513 0.0
H1444 H 0.55203 0.53475 0.67909 0.0
C1445 C 0.57378 0.46981 0.62062 0.0
C1446 C 0.54642 0.49038 0.61615 0.0
H1447 H 0.61521 0.45805 0.64748 0.0
H1448 H 0.58073 0.45172 0.60452 0.0
C1449 C 0.53862 0.51357 0.63768 0.0
C1450 C 0.79955 0.3404 0.97265 0.0
C1451 C 0.78446 0.37181 0.96996 0.0
H1452 H 0.82018 0.29868 0.9506 0.0
C1453 C 0.77844 0.38514 0.94224 0.0
H1454 H 0.80467 0.32953 -0.00627 0.0
C1455 C 0.78761 0.36773 0.91778 0.0
C1456 C 0.80292 0.33652 0.92041 0.0
H1457 H 0.76687 0.40925 0.93933 0.0
H1458 H 0.7821 0.37848 0.89672 0.0
C1459 C 0.80859 0.32283 0.94804 0.0
C1460 C -0.00577 0.51752 0.15006 0.0
C1461 C 0.96305 0.53119 0.15159 0.0
H1462 H 0.03486 0.50828 0.12361 0.0
C1463 C 0.94981 0.5486 0.12778 0.0
H1464 H 0.00499 0.504 0.16822 0.0
C1465 C 0.96739 0.5521 0.10274 0.0
C1466 C -0.00186 0.53745 0.10083 0.0
H1467 H 0.92595 0.55959 0.12857 0.0
H1468 H 0.9563 0.56501 0.08439 0.0
C1469 C 0.01142 0.52015 0.12471 0.0
C1470 C 0.71947 0.62259 0.43173 0.0
C1471 C 0.73657 0.63208 0.45703 0.0
H1472 H 0.70435 0.63551 0.38872 0.0
C1473 C 0.75186 0.66321 0.45806 0.0
H1474 H 0.70721 0.59876 0.43055 0.0
C1475 C 0.75177 0.68368 0.43363 0.0
C1476 C 0.7354 0.67406 0.40772 0.0
H1477 H 0.76552 0.67092 0.47728 0.0
H1478 H 0.7659 0.70628 0.43495 0.0
C1479 C 0.71828 0.64363 0.40759 0.0
C1480 C 0.56506 0.56509 0.83527 0.0
C1481 C 0.59189 0.54602 0.82727 0.0
H1482 H 0.53648 0.58294 0.86973 0.0
C1483 C 0.61193 0.53171 0.84901 0.0
H1484 H 0.54925 0.57677 0.81913 0.0
C1485 C 0.60468 0.53567 0.87814 0.0
C1486 C 0.57722 0.5538 0.88588 0.0
H1487 H 0.63297 0.5172 0.84355 0.0
H1488 H 0.61975 0.52341 0.89452 0.0
C1489 C 0.55779 0.56887 0.86423 0.0
C1490 C 0.77082 0.36128 0.1694 0.0
C1491 C 0.78334 0.34719 0.14429 0.0
H1492 H 0.75769 0.35373 0.21319 0.0
C1493 C 0.79152 0.31307 0.14425 0.0
H1494 H 0.76386 0.38737 0.16996 0.0
C1495 C 0.7883 0.29374 0.16924 0.0
C1496 C 0.77588 0.30796 0.19439 0.0
H1497 H 0.80099 0.3015 0.12509 0.0
H1498 H 0.7959 0.26783 0.169 0.0
C1499 C 0.76677 0.34182 0.19403 0.0
C1500 C 0.01737 0.474 0.31887 0.0
C1501 C 0.98709 0.48848 0.31221 0.0
H1502 H 0.04991 0.45542 0.35197 0.0
C1503 C 0.96628 0.4958 0.33471 0.0
H1504 H 0.03393 0.46796 0.30199 0.0
C1505 C 0.97533 0.48819 0.36324 0.0
C1506 C 0.00543 0.47336 0.36979 0.0
H1507 H 0.94272 0.50671 0.33026 0.0
H1508 H 0.95896 0.49436 0.38024 0.0
C1509 C 0.02649 0.46663 0.34741 0.0
C1510 C 0.78554 0.63781 0.61878 0.0
C1511 C 0.79851 0.60543 0.61834 0.0
H1512 H 0.78508 0.68531 0.6395 0.0
C1513 C 0.8235 0.59699 0.63824 0.0
H1514 H 0.76622 0.64502 0.60373 0.0
C1515 C 0.83524 0.62056 0.65827 0.0
C1516 C 0.82185 0.65289 0.65912 0.0
H1517 H 0.83435 0.57234 0.63803 0.0
H1518 H 0.85471 0.61335 0.67314 0.0
C1519 C 0.79682 0.66113 0.63907 0.0
C1520 C 0.7025 0.45201 0.52503 0.0
C1521 C 0.69672 0.48064 0.5418 0.0
H1522 H 0.6833 0.40585 0.50863 0.0
C1523 C 0.67091 0.48095 0.56044 0.0
H1524 H 0.72276 0.45093 0.51086 0.0
C1525 C 0.64901 0.45466 0.55986 0.0
C1526 C 0.65228 0.42807 0.54011 0.0
H1527 H 0.66678 0.50224 0.57432 0.0
H1528 H 0.62759 0.45722 0.57244 0.0
C1529 C 0.68031 0.42592 0.52408 0.0
C1530 C 0.18219 0.98538 0.54853 0.0
C1531 C 0.1859 0.95342 0.56079 0.0
H1532 H 0.14896 0.02262 0.5322 0.0
C1533 C 0.15855 0.93492 0.5673 0.0
H1534 H 0.20305 2e-05 0.54315 0.0
C1535 C 0.12792 0.94802 0.56159 0.0
C1536 C 0.12403 0.97958 0.54864 0.0
H1537 H 0.16085 0.91026 0.57677 0.0
H1538 H 0.10722 0.93301 0.56674 0.0
C1539 C 0.15139 -0.00179 0.54211 0.0
C1540 C 0.39166 0.8732 0.74609 0.0
C1541 C 0.37782 0.90532 0.74605 0.0
H1542 H 0.38682 0.82169 0.75688 0.0
C1543 C 0.34767 0.90974 0.75863 0.0
H1544 H 0.41504 0.86883 0.737 0.0
C1545 C 0.3315 0.88253 0.77038 0.0
C1546 C 0.34518 0.85032 0.76989 0.0
H1547 H 0.33647 0.9342 0.75932 0.0
H1548 H 0.30788 0.88659 0.77907 0.0
C1549 C 0.37563 0.84614 0.7579 0.0
C1550 C 0.37837 0.9953 -0.00197 0.0
C1551 C 0.36327 0.02278 0.01058 0.0
H1552 H 0.42315 0.97171 0.98894 0.0
C1553 C 0.38159 0.04971 0.02122 0.0
H1554 H 0.36438 0.97418 -0.00989 0.0
C1555 C 0.41509 0.0478 0.02163 0.0
C1556 C 0.43027 0.01932 0.01071 0.0
H1557 H 0.3701 0.07083 0.03143 0.0
H1558 H 0.42906 0.06789 0.03145 0.0
C1559 C 0.4118 0.99382 -0.00237 0.0
C1560 C 0.72791 0.61072 0.75616 0.0
C1561 C 0.69429 0.6149 0.75602 0.0
H1562 H 0.77402 0.63304 0.76537 0.0
C1563 C 0.68133 0.6441 0.76803 0.0
H1564 H 0.7385 0.58827 0.74737 0.0
C1565 C 0.70151 0.66899 0.77933 0.0
C1566 C 0.73512 0.66558 0.77828 0.0
H1567 H 0.65549 0.64773 0.7688 0.0
H1568 H 0.69071 0.69168 0.78746 0.0
C1569 C 0.74817 0.63608 0.76683 0.0
C1570 C 0.89499 0.45302 0.04018 0.0
C1571 C 0.86943 0.47546 0.03451 0.0
H1572 H 0.94551 0.44307 0.03668 0.0
C1573 C 0.87574 0.50542 0.01996 0.0
H1574 H 0.89087 0.42952 0.05098 0.0
C1575 C 0.90674 0.51288 0.01137 0.0
C1576 C 0.93236 0.49063 0.01711 0.0
H1577 H 0.85664 0.52323 0.01501 0.0
H1578 H 0.91067 0.53645 0.00061 0.0
C1579 C 0.92617 0.46052 0.03153 0.0
C1580 C 0.35289 0.12081 0.77252 0.0
C1581 C 0.35484 0.10584 0.74522 0.0
H1582 H 0.33395 0.16115 0.79733 0.0
C1583 C 0.33878 0.12089 0.72131 0.0
H1584 H 0.36503 0.10971 0.79126 0.0
C1585 C 0.32181 0.15099 0.72458 0.0
C1586 C 0.31959 0.1657 0.752 0.0
H1587 H 0.34012 0.10987 0.69997 0.0
H1588 H 0.31031 0.16262 0.70579 0.0
C1589 C 0.33496 0.1501 0.77597 0.0
C1590 C 0.21184 0.90444 0.28477 0.0
C1591 C 0.20767 0.91983 0.25771 0.0
H1592 H 0.23303 0.86379 0.30876 0.0
C1593 C 0.22209 0.90547 0.23352 0.0
H1594 H 0.20115 0.91516 0.30374 0.0
C1595 C 0.23963 0.87562 0.2362 0.0
C1596 C 0.2441 0.86044 0.26334 0.0
H1597 H 0.21917 0.91694 0.2124 0.0
H1598 H 0.24976 0.86448 0.21714 0.0
C1599 C 0.23035 0.8753 0.28764 0.0
C1600 C 0.437 0.39572 0.4763 0.0
C1601 C 0.43751 0.41662 0.45186 0.0
H1602 H 0.44201 0.39375 0.52235 0.0
C1603 C 0.42917 0.45037 0.45507 0.0
H1604 H 0.44174 0.36919 0.4744 0.0
C1605 C 0.42795 0.46416 0.48285 0.0
C1606 C 0.4369 0.44446 0.50706 0.0
H1607 H 0.42798 0.46686 0.43655 0.0
H1608 H 0.42689 0.49113 0.4847 0.0
C1609 C 0.43635 0.40965 0.50394 0.0
C1610 C 0.43212 0.76017 0.24909 0.0
C1611 C 0.43587 0.75966 0.21893 0.0
H1612 H 0.4 0.7654 0.28423 0.0
C1613 C 0.40854 0.76577 0.20089 0.0
H1614 H 0.45266 0.75573 0.26365 0.0
C1615 C 0.37799 0.77059 0.21277 0.0
C1616 C 0.37425 0.77048 0.24298 0.0
H1617 H 0.41052 0.76543 0.1776 0.0
H1618 H 0.3572 0.77389 0.19828 0.0
C1619 C 0.4019 0.76594 0.26093 0.0
C1620 C -0.00849 0.73195 0.92479 0.0
C1621 C 0.01716 0.75291 0.93311 0.0
H1622 H 0.9657 0.68743 0.93299 0.0
C1623 C 0.03828 0.74343 0.95584 0.0
H1624 H 0.97433 0.73926 0.90778 0.0
C1625 C 0.03409 0.71289 0.96973 0.0
C1626 C 0.00794 0.69198 0.96181 0.0
H1627 H 0.05805 0.75949 0.9627 0.0
H1628 H 0.05158 0.70568 0.98644 0.0
C1629 C 0.98659 0.70215 0.93929 0.0
C1630 C 0.13058 0.25361 0.73009 0.0
C1631 C 0.12763 0.25948 0.70011 0.0
H1632 H 0.16239 0.2467 0.76719 0.0
C1633 C 0.15599 0.26227 0.68446 0.0
H1634 H 0.10929 0.25113 0.74283 0.0
C1635 C 0.18644 0.25995 0.69846 0.0
C1636 C 0.18945 0.2543 0.72847 0.0
H1637 H 0.1547 0.26672 0.66137 0.0
H1638 H 0.20769 0.26281 0.68571 0.0
C1639 C 0.16108 0.25084 0.74406 0.0
C1640 C 0.52753 0.61739 0.12793 0.0
C1641 C 0.52927 0.65025 0.11734 0.0
H1642 H 0.5268 0.56506 0.11829 0.0
C1643 C 0.53198 0.65476 0.08732 0.0
H1644 H 0.52542 0.61281 0.15086 0.0
C1645 C 0.53324 0.62711 0.06851 0.0
C1646 C 0.53142 0.59428 0.07922 0.0
H1647 H 0.53357 0.67964 0.07836 0.0
H1648 H 0.53536 0.63149 0.04556 0.0
C1649 C 0.52839 0.58989 0.10918 0.0
C1650 C 0.1124 0.88596 0.86365 0.0
C1651 C 0.08275 0.87466 0.85197 0.0
H1652 H 0.16364 0.88627 0.86055 0.0
C1653 C 0.08257 0.85521 0.8267 0.0
H1654 H 0.11324 0.90111 0.8831 0.0
C1655 C 0.11143 0.84531 0.81448 0.0
C1656 C 0.14145 0.85541 0.82664 0.0
H1657 H 0.06014 0.84568 0.81736 0.0
H1658 H 0.10987 0.82827 0.79632 0.0
C1659 C 0.14136 0.87692 0.85088 0.0
C1660 C 0.02449 0.35318 0.56968 0.0
C1661 C 0.02357 0.35568 0.60004 0.0
H1662 H 0.02509 0.37914 0.52905 0.0
C1663 C 0.02122 0.38765 0.61244 0.0
H1664 H 0.02623 0.32898 0.55934 0.0
C1665 C 0.02053 0.41633 0.59512 0.0
C1666 C 0.0221 0.41398 0.56479 0.0
H1667 H 0.02037 0.39063 0.63568 0.0
H1668 H 0.01926 0.44048 0.60564 0.0
C1669 C 0.02373 0.38197 0.55227 0.0
C1670 C 0.42116 0.28104 0.34837 0.0
C1671 C 0.43663 0.3047 0.3313 0.0
H1672 H 0.38585 0.24209 0.34916 0.0
C1673 C 0.43301 0.30318 0.30117 0.0
H1674 H 0.42391 0.28173 0.37174 0.0
C1675 C 0.41277 0.27941 0.28828 0.0
C1676 C 0.39483 0.25775 0.30542 0.0
H1677 H 0.44511 0.32095 0.28765 0.0
H1678 H 0.40886 0.28025 0.26501 0.0
C1679 C 0.39987 0.25807 0.33553 0.0
C1680 C 0.46278 0.52122 0.39954 0.0
C1681 C 0.47768 0.49972 0.37994 0.0
H1682 H 0.46126 0.53908 0.44305 0.0
C1683 C 0.50399 0.48009 0.38971 0.0
H1684 H 0.44263 0.53688 0.39264 0.0
C1685 C 0.51445 0.48108 0.41871 0.0
C1686 C 0.49918 0.50218 0.43839 0.0
H1687 H 0.51603 0.46329 0.37514 0.0
H1688 H 0.53417 0.46494 0.42577 0.0
C1689 C 0.4736 0.52265 0.4284 0.0
C1690 C 0.26077 0.63909 0.11077 0.0
C1691 C 0.26052 0.65604 0.08422 0.0
H1692 H 0.25803 0.64255 0.15658 0.0
C1693 C 0.25584 0.69078 0.08393 0.0
H1694 H 0.26451 0.61232 0.11171 0.0
C1695 C 0.25112 0.70816 0.10976 0.0
C1696 C 0.2515 0.69119 0.13643 0.0
H1697 H 0.2551 0.70442 0.06373 0.0
H1698 H 0.24695 0.73484 0.10875 0.0
C1699 C 0.25659 0.65644 0.13653 0.0
C1700 C 0.09417 0.49669 0.89516 0.0
C1701 C 0.08135 0.52008 0.8752 0.0
H1702 H 0.0909 0.47505 0.93743 0.0
C1703 C 0.05339 0.53793 0.88217 0.0
H1704 H 0.11547 0.48229 0.89032 0.0
C1705 C 0.03934 0.5336 0.90879 0.0
C1706 C 0.05269 0.51119 0.92916 0.0
H1707 H 0.04257 0.55592 0.86731 0.0
H1708 H 0.01846 0.54866 0.91376 0.0
C1709 C 0.07985 0.49219 0.92193 0.0
C1710 C 0.34246 0.35573 0.59271 0.0
C1711 C 0.33667 0.39026 0.59466 0.0
H1712 H 0.34595 0.30909 0.61514 0.0
C1713 C 0.33394 0.40482 0.62213 0.0
H1714 H 0.34493 0.34379 0.57186 0.0
C1715 C 0.33393 0.38489 0.64687 0.0
C1716 C 0.33696 0.34995 0.64474 0.0
H1717 H 0.32945 0.43135 0.62441 0.0
H1718 H 0.32927 0.39678 0.66737 0.0
C1719 C 0.3427 0.3358 0.61751 0.0
C1720 C 0.4695 0.52347 0.2058 0.0
C1721 C 0.44065 0.51047 0.21558 0.0
H1722 H 0.50462 0.52205 0.17335 0.0
C1723 C 0.42597 0.48351 0.20086 0.0
H1724 H 0.48123 0.54414 0.21699 0.0
C1725 C 0.44 0.46974 0.17659 0.0
C1726 C 0.46862 0.48313 0.16625 0.0
H1727 H 0.40402 0.47251 0.20852 0.0
H1728 H 0.42839 0.44863 0.166 0.0
C1729 C 0.48312 0.51029 0.1811 0.0
C1730 C 0.31313 0.67829 0.88782 0.0
C1731 C 0.29602 0.69154 0.91097 0.0
H1732 H 0.32852 0.68503 0.84451 0.0
C1733 C 0.28336 0.72407 0.90855 0.0
H1734 H 0.32337 0.65339 0.8891 0.0
C1735 C 0.28599 0.74211 0.88282 0.0
C1736 C 0.30187 0.72824 0.85918 0.0
H1737 H 0.27009 0.73499 0.92602 0.0
H1738 H 0.27462 0.76646 0.88109 0.0
C1739 C 0.31628 0.69655 0.86232 0.0
C1740 C 0.12661 0.51685 0.68928 0.0
C1741 C 0.1097 0.51496 0.71495 0.0
H1742 H 0.12455 0.52779 0.64418 0.0
C1743 C 0.07702 0.52439 0.71481 0.0
H1744 H 0.1518 0.50977 0.68877 0.0
C1745 C 0.06152 0.53547 0.68937 0.0
C1746 C 0.07837 0.53714 0.6636 0.0
H1747 H 0.06343 0.52346 0.73438 0.0
H1748 H 0.03632 0.54252 0.68984 0.0
C1749 C 0.11108 0.52773 0.66385 0.0
C1750 C 0.24023 0.38526 0.41521 0.0
C1751 C 0.26768 0.38817 0.43364 0.0
H1752 H 0.21682 0.35852 0.38045 0.0
C1753 C 0.29297 0.36504 0.43097 0.0
H1754 H 0.2201 0.40235 0.41701 0.0
C1755 C 0.29119 0.34007 0.40987 0.0
C1756 C 0.26395 0.33742 0.39111 0.0
H1757 H 0.31444 0.36656 0.44486 0.0
H1758 H 0.3117 0.32355 0.40768 0.0
C1759 C 0.23831 0.36007 0.3943 0.0
C1760 C 0.33395 0.57409 0.51034 0.0
C1761 C 0.33681 0.54761 0.49065 0.0
H1762 H 0.35942 0.61096 0.53569 0.0
C1763 C 0.36516 0.54349 0.47561 0.0
H1764 H 0.31205 0.57738 0.52218 0.0
C1765 C 0.39171 0.56344 0.48248 0.0
C1766 C 0.39052 0.58665 0.50539 0.0
H1767 H 0.36767 0.52306 0.46042 0.0
H1768 H 0.41433 0.55728 0.47268 0.0
C1769 C 0.36084 0.59349 0.51785 0.0
C1770 C 0.88907 0.07043 0.49141 0.0
C1771 C 0.86505 0.05271 0.50561 0.0
H1772 H 0.93948 0.07479 0.48332 0.0
C1773 C 0.87387 0.02416 0.52167 0.0
H1774 H 0.88304 0.09244 0.47875 0.0
C1775 C 0.90603 0.01427 0.52441 0.0
C1776 C 0.93016 0.03247 0.51094 0.0
H1777 H 0.85603 0.00983 0.53282 0.0
H1778 H 0.91201 0.99258 0.53752 0.0
C1779 C 0.92136 0.06028 0.49394 0.0
C1780 C 0.67712 0.15918 0.28578 0.0
C1781 C 0.69073 0.12692 0.28696 0.0
H1782 H 0.68514 0.21169 0.28107 0.0
C1783 C 0.7241 0.12337 0.28366 0.0
H1784 H 0.65147 0.16283 0.28821 0.0
C1785 C 0.74332 0.15142 0.27895 0.0
C1786 C 0.72967 0.18367 0.27789 0.0
H1787 H 0.73529 0.09889 0.28419 0.0
H1788 H 0.76899 0.14785 0.27658 0.0
C1789 C 0.69638 0.18721 0.28155 0.0
C1790 C 0.67103 0.94216 0.02568 0.0
C1791 C 0.69098 0.96225 0.04346 0.0
H1792 H 0.62459 0.93644 0.00501 0.0
C1793 C 0.67859 0.99145 0.05576 0.0
H1794 H 0.68027 0.9198 0.01559 0.0
C1795 C 0.6468 0.00094 0.04977 0.0
C1796 C 0.6273 0.9817 0.03087 0.0
H1797 H 0.6938 0.00739 0.06931 0.0
H1798 H 0.63774 0.02372 0.0593 0.0
C1799 C 0.63945 0.95202 0.01919 0.0
C1800 C 0.34827 0.40059 0.28437 0.0
C1801 C 0.379 0.40607 0.27357 0.0
H1802 H 0.30799 0.3676 0.28617 0.0
C1803 C 0.3916 0.38296 0.25389 0.0
H1804 H 0.33777 0.41807 0.29932 0.0
C1805 C 0.37429 0.35443 0.24589 0.0
C1806 C 0.3442 0.34824 0.25766 0.0
H1807 H 0.41504 0.38668 0.24481 0.0
H1808 H 0.38521 0.33649 0.23159 0.0
C1809 C 0.3311 0.37185 0.27661 0.0
C1810 C 0.17661 0.5534 -0.00228 0.0
C1811 C 0.17943 0.58774 -0.00797 0.0
H1812 H 0.14634 0.51384 0.01196 0.0
C1813 C 0.15359 0.60904 -0.00174 0.0
H1814 H 0.19626 0.53639 -0.00654 0.0
C1815 C 0.1253 0.59624 0.00927 0.0
C1816 C 0.12206 0.56179 0.01425 0.0
H1817 H 0.1551 0.63567 -0.00551 0.0
H1818 H 0.10557 0.61334 0.01308 0.0
C1819 C 0.14821 0.54054 0.00875 0.0
C1820 C 0.70171 0.89294 0.31984 0.0
C1821 C 0.7137 0.92174 0.3066 0.0
H1822 H 0.70682 0.8401 0.32639 0.0
C1823 C 0.7422 0.91917 0.29113 0.0
H1824 H 0.67983 0.89411 0.33194 0.0
C1825 C 0.7573 0.88819 0.28753 0.0
C1826 C 0.74462 0.85916 0.29981 0.0
H1827 H 0.75202 0.94083 0.2806 0.0
H1828 H 0.77847 0.88684 0.27448 0.0
C1829 C 0.71722 0.86201 0.31673 0.0
C1830 C 0.85788 0.13034 0.82456 0.0
C1831 C 0.84698 0.10205 0.80925 0.0
H1832 H 0.85197 0.18259 0.83231 0.0
C1833 C 0.81954 0.10486 0.79074 0.0
H1834 H 0.87895 0.12889 0.83897 0.0
C1835 C 0.8044 0.13586 0.78641 0.0
C1836 C 0.81605 0.1644 0.80099 0.0
H1837 H 0.81073 0.08348 0.77851 0.0
H1838 H 0.78407 0.13762 0.77119 0.0
C1839 C 0.84238 0.16109 0.82072 0.0
loop_
_geom_bond_atom_site_label_1
_geom_bond_atom_site_label_2
_geom_bond_distance
_geom_bond_site_symmetry_2
_ccdc_geom_bond_type
C0 O1 1.306 . S
C0 O3 1.160 . S
O1 C0 1.306 . S
O1 Cd2 2.228 . S
Cd2 O1 2.228 . S
Cd2 O6 2.273 . S
Cd2 O10 2.277 . S
O3 C0 1.160 . S
O3 Cd4 2.203 . S
Cd4 O3 2.203 . S
Cd4 O6 2.411 . S
Cd4 O7 2.333 . S
Cd4 O8 2.352 . S
Cd4 O12 2.277 . S
Cd4 O13 2.356 . S
C5 O10 1.209 . S
C5 O12 1.226 . S
O6 Cd2 2.273 . S
O6 Cd4 2.411 . S
O6 C9 1.320 . S
O7 Cd4 2.333 . S
O7 C9 1.214 . S
O8 Cd4 2.352 . S
O8 C11 1.258 . S
C9 O6 1.320 . S
C9 O7 1.214 . S
O10 Cd2 2.277 . S
O10 C5 1.209 . S
C11 O8 1.258 . S
C11 O13 1.282 . S
O12 Cd4 2.277 . S
O12 C5 1.226 . S
O13 Cd4 2.356 . S
O13 C11 1.282 . S
C14 O15 1.306 1_655 S
C14 O17 1.160 . S
O15 C14 1.306 1_455 S
O15 Cd16 2.228 . S
Cd16 O15 2.228 . S
Cd16 O20 2.273 . S
Cd16 O24 2.277 . S
O17 C14 1.160 . S
O17 Cd18 2.203 1_655 S
Cd18 O17 2.203 1_455 S
Cd18 O20 2.411 . S
Cd18 O21 2.333 . S
Cd18 O22 2.352 . S
Cd18 O26 2.277 . S
Cd18 O27 2.356 . S
C19 O24 1.209 . S
C19 O26 1.226 . S
O20 Cd16 2.273 . S
O20 Cd18 2.411 . S
O20 C23 1.320 . S
O21 Cd18 2.333 . S
O21 C23 1.214 . S
O22 Cd18 2.352 . S
O22 C25 1.258 . S
C23 O20 1.320 . S
C23 O21 1.214 . S
O24 Cd16 2.277 . S
O24 C19 1.209 . S
C25 O22 1.258 . S
C25 O27 1.282 . S
O26 Cd18 2.277 . S
O26 C19 1.226 . S
O27 Cd18 2.356 . S
O27 C25 1.282 . S
C28 O29 1.306 . S
C28 O31 1.160 . S
O29 C28 1.306 . S
O29 Cd30 2.228 . S
Cd30 O29 2.228 . S
Cd30 O34 2.273 . S
Cd30 O38 2.277 . S
O31 C28 1.160 . S
O31 Cd32 2.203 . S
Cd32 O31 2.203 . S
Cd32 O34 2.411 . S
Cd32 O35 2.333 . S
Cd32 O36 2.352 . S
Cd32 O40 2.277 . S
Cd32 O41 2.356 . S
C33 O38 1.209 . S
C33 O40 1.226 . S
O34 Cd30 2.273 . S
O34 Cd32 2.411 . S
O34 C37 1.320 . S
O35 Cd32 2.333 . S
O35 C37 1.214 . S
O36 Cd32 2.352 . S
O36 C39 1.258 . S
C37 O34 1.320 . S
C37 O35 1.214 . S
O38 Cd30 2.277 . S
O38 C33 1.209 . S
C39 O36 1.258 . S
C39 O41 1.282 . S
O40 Cd32 2.277 . S
O40 C33 1.226 . S
O41 Cd32 2.356 . S
O41 C39 1.282 . S
C42 O43 1.306 . S
C42 O45 1.160 . S
O43 C42 1.306 . S
O43 Cd44 2.228 . S
Cd44 O43 2.228 . S
Cd44 O48 2.273 . S
Cd44 O52 2.277 . S
O45 C42 1.160 . S
O45 Cd46 2.203 . S
Cd46 O45 2.203 . S
Cd46 O48 2.411 . S
Cd46 O49 2.333 . S
Cd46 O50 2.352 . S
Cd46 O54 2.277 . S
Cd46 O55 2.356 . S
C47 O52 1.209 . S
C47 O54 1.226 . S
O48 Cd44 2.273 . S
O48 Cd46 2.411 . S
O48 C51 1.320 . S
O49 Cd46 2.333 . S
O49 C51 1.214 . S
O50 Cd46 2.352 . S
O50 C53 1.258 . S
C51 O48 1.320 . S
C51 O49 1.214 . S
O52 Cd44 2.277 . S
O52 C47 1.209 . S
C53 O50 1.258 . S
C53 O55 1.282 . S
O54 Cd46 2.277 . S
O54 C47 1.226 . S
O55 Cd46 2.356 . S
O55 C53 1.282 . S
C56 O57 1.306 . S
C56 O59 1.160 . S
O57 C56 1.306 . S
O57 Cd58 2.228 . S
Cd58 O57 2.228 . S
Cd58 O62 2.273 . S
Cd58 O66 2.277 . S
O59 C56 1.160 . S
O59 Cd60 2.203 . S
Cd60 O59 2.203 . S
Cd60 O62 2.411 . S
Cd60 O63 2.333 . S
Cd60 O64 2.352 1_545 S
Cd60 O68 2.277 . S
Cd60 O69 2.356 1_545 S
C61 O66 1.209 . S
C61 O68 1.226 . S
O62 Cd58 2.273 . S
O62 Cd60 2.411 . S
O62 C65 1.320 . S
O63 Cd60 2.333 . S
O63 C65 1.214 . S
O64 Cd60 2.352 1_565 S
O64 C67 1.258 . S
C65 O62 1.320 . S
C65 O63 1.214 . S
O66 Cd58 2.277 . S
O66 C61 1.209 . S
C67 O64 1.258 . S
C67 O69 1.282 . S
O68 Cd60 2.277 . S
O68 C61 1.226 . S
O69 Cd60 2.356 1_565 S
O69 C67 1.282 . S
C70 O71 1.306 . S
C70 O73 1.160 . S
O71 C70 1.306 . S
O71 Cd72 2.228 . S
Cd72 O71 2.228 . S
Cd72 O76 2.273 . S
Cd72 O80 2.277 . S
O73 C70 1.160 . S
O73 Cd74 2.203 . S
Cd74 O73 2.203 . S
Cd74 O76 2.411 . S
Cd74 O77 2.333 . S
Cd74 O78 2.352 . S
Cd74 O82 2.277 . S
Cd74 O83 2.356 . S
C75 O80 1.209 . S
C75 O82 1.226 . S
O76 Cd72 2.273 . S
O76 Cd74 2.411 . S
O76 C79 1.320 . S
O77 Cd74 2.333 . S
O77 C79 1.214 . S
O78 Cd74 2.352 . S
O78 C81 1.258 . S
C79 O76 1.320 . S
C79 O77 1.214 . S
O80 Cd72 2.277 . S
O80 C75 1.209 . S
C81 O78 1.258 . S
C81 O83 1.282 . S
O82 Cd74 2.277 . S
O82 C75 1.226 . S
O83 Cd74 2.356 . S
O83 C81 1.282 . S
C84 O85 1.306 1_545 S
C84 O87 1.160 . S
O85 C84 1.306 1_565 S
O85 Cd86 2.228 . S
Cd86 O85 2.228 . S
Cd86 O90 2.273 1_565 S
Cd86 O94 2.277 . S
O87 C84 1.160 . S
O87 Cd88 2.203 . S
Cd88 O87 2.203 . S
Cd88 O90 2.411 . S
Cd88 O91 2.333 . S
Cd88 O92 2.352 . S
Cd88 O96 2.277 1_545 S
Cd88 O97 2.356 . S
C89 O94 1.209 . S
C89 O96 1.226 . S
O90 Cd86 2.273 1_545 S
O90 Cd88 2.411 . S
O90 C93 1.320 . S
O91 Cd88 2.333 . S
O91 C93 1.214 . S
O92 Cd88 2.352 . S
O92 C95 1.258 . S
C93 O90 1.320 . S
C93 O91 1.214 . S
O94 Cd86 2.277 . S
O94 C89 1.209 . S
C95 O92 1.258 . S
C95 O97 1.282 . S
O96 Cd88 2.277 1_565 S
O96 C89 1.226 . S
O97 Cd88 2.356 . S
O97 C95 1.282 . S
C98 O99 1.306 . S
C98 O101 1.160 . S
O99 C98 1.306 . S
O99 Cd100 2.228 . S
Cd100 O99 2.228 . S
Cd100 O104 2.273 . S
Cd100 O108 2.277 . S
O101 C98 1.160 . S
O101 Cd102 2.203 . S
Cd102 O101 2.203 . S
Cd102 O104 2.411 . S
Cd102 O105 2.333 . S
Cd102 O106 2.352 1_554 S
Cd102 O110 2.277 . S
Cd102 O111 2.356 1_554 S
C103 O108 1.209 . S
C103 O110 1.226 . S
O104 Cd100 2.273 . S
O104 Cd102 2.411 . S
O104 C107 1.320 . S
O105 Cd102 2.333 . S
O105 C107 1.214 . S
O106 Cd102 2.352 1_556 S
O106 C109 1.258 . S
C107 O104 1.320 . S
C107 O105 1.214 . S
O108 Cd100 2.277 . S
O108 C103 1.209 . S
C109 O106 1.258 . S
C109 O111 1.282 . S
O110 Cd102 2.277 . S
O110 C103 1.226 . S
O111 Cd102 2.356 1_556 S
O111 C109 1.282 . S
C112 O113 1.306 . S
C112 O115 1.160 . S
O113 C112 1.306 . S
O113 Cd114 2.228 . S
Cd114 O113 2.228 . S
Cd114 O118 2.273 . S
Cd114 O122 2.277 . S
O115 C112 1.160 . S
O115 Cd116 2.203 . S
Cd116 O115 2.203 . S
Cd116 O118 2.411 . S
Cd116 O119 2.333 . S
Cd116 O120 2.352 . S
Cd116 O124 2.277 . S
Cd116 O125 2.356 . S
C117 O122 1.209 . S
C117 O124 1.226 . S
O118 Cd114 2.273 . S
O118 Cd116 2.411 . S
O118 C121 1.320 . S
O119 Cd116 2.333 . S
O119 C121 1.214 . S
O120 Cd116 2.352 . S
O120 C123 1.258 . S
C121 O118 1.320 . S
C121 O119 1.214 . S
O122 Cd114 2.277 . S
O122 C117 1.209 . S
C123 O120 1.258 . S
C123 O125 1.282 . S
O124 Cd116 2.277 . S
O124 C117 1.226 . S
O125 Cd116 2.356 . S
O125 C123 1.282 . S
C126 O127 1.306 . S
C126 O129 1.160 . S
O127 C126 1.306 . S
O127 Cd128 2.228 . S
Cd128 O127 2.228 . S
Cd128 O132 2.273 . S
Cd128 O136 2.277 . S
O129 C126 1.160 . S
O129 Cd130 2.203 . S
Cd130 O129 2.203 . S
Cd130 O132 2.411 . S
Cd130 O133 2.333 . S
Cd130 O134 2.352 . S
Cd130 O138 2.277 . S
Cd130 O139 2.356 . S
C131 O136 1.209 . S
C131 O138 1.226 . S
O132 Cd128 2.273 . S
O132 Cd130 2.411 . S
O132 C135 1.320 . S
O133 Cd130 2.333 . S
O133 C135 1.214 . S
O134 Cd130 2.352 . S
O134 C137 1.258 . S
C135 O132 1.320 . S
C135 O133 1.214 . S
O136 Cd128 2.277 . S
O136 C131 1.209 . S
C137 O134 1.258 . S
C137 O139 1.282 . S
O138 Cd130 2.277 . S
O138 C131 1.226 . S
O139 Cd130 2.356 . S
O139 C137 1.282 . S
C140 O141 1.306 . S
C140 O143 1.160 . S
O141 C140 1.306 . S
O141 Cd142 2.228 . S
Cd142 O141 2.228 . S
Cd142 O146 2.273 . S
Cd142 O150 2.277 . S
O143 C140 1.160 . S
O143 Cd144 2.203 . S
Cd144 O143 2.203 . S
Cd144 O146 2.411 . S
Cd144 O147 2.333 . S
Cd144 O148 2.352 . S
Cd144 O152 2.277 . S
Cd144 O153 2.356 . S
C145 O150 1.209 . S
C145 O152 1.226 . S
O146 Cd142 2.273 . S
O146 Cd144 2.411 . S
O146 C149 1.320 . S
O147 Cd144 2.333 . S
O147 C149 1.214 . S
O148 Cd144 2.352 . S
O148 C151 1.258 . S
C149 O146 1.320 . S
C149 O147 1.214 . S
O150 Cd142 2.277 . S
O150 C145 1.209 . S
C151 O148 1.258 . S
C151 O153 1.282 . S
O152 Cd144 2.277 . S
O152 C145 1.226 . S
O153 Cd144 2.356 . S
O153 C151 1.282 . S
C154 O155 1.306 . S
C154 O157 1.160 . S
O155 C154 1.306 . S
O155 Cd156 2.228 . S
Cd156 O155 2.228 . S
Cd156 O160 2.273 . S
Cd156 O164 2.277 . S
O157 C154 1.160 . S
O157 Cd158 2.203 . S
Cd158 O157 2.203 . S
Cd158 O160 2.411 . S
Cd158 O161 2.333 . S
Cd158 O162 2.352 . S
Cd158 O166 2.277 . S
Cd158 O167 2.356 . S
C159 O164 1.209 . S
C159 O166 1.226 . S
O160 Cd156 2.273 . S
O160 Cd158 2.411 . S
O160 C163 1.320 . S
O161 Cd158 2.333 . S
O161 C163 1.214 . S
O162 Cd158 2.352 . S
O162 C165 1.258 . S
C163 O160 1.320 . S
C163 O161 1.214 . S
O164 Cd156 2.277 . S
O164 C159 1.209 . S
C165 O162 1.258 . S
C165 O167 1.282 . S
O166 Cd158 2.277 . S
O166 C159 1.226 . S
O167 Cd158 2.356 . S
O167 C165 1.282 . S
C168 O169 1.306 . S
C168 O171 1.160 . S
O169 C168 1.306 . S
O169 Cd170 2.228 1_655 S
Cd170 O169 2.228 1_455 S
Cd170 O174 2.273 . S
Cd170 O178 2.277 . S
O171 C168 1.160 . S
O171 Cd172 2.203 1_655 S
Cd172 O171 2.203 1_455 S
Cd172 O174 2.411 . S
Cd172 O175 2.333 . S
Cd172 O176 2.352 1_455 S
Cd172 O180 2.277 . S
Cd172 O181 2.356 . S
C173 O178 1.209 . S
C173 O180 1.226 . S
O174 Cd170 2.273 . S
O174 Cd172 2.411 . S
O174 C177 1.320 . S
O175 Cd172 2.333 . S
O175 C177 1.214 . S
O176 Cd172 2.352 1_655 S
O176 C179 1.258 1_655 S
C177 O174 1.320 . S
C177 O175 1.214 . S
O178 Cd170 2.277 . S
O178 C173 1.209 . S
C179 O176 1.258 1_455 S
C179 O181 1.282 . S
O180 Cd172 2.277 . S
O180 C173 1.226 . S
O181 Cd172 2.356 . S
O181 C179 1.282 . S
C182 O183 1.306 1_655 S
C182 O185 1.160 . S
O183 C182 1.306 1_455 S
O183 Cd184 2.228 . S
Cd184 O183 2.228 . S
Cd184 O188 2.273 . S
Cd184 O192 2.277 . S
O185 C182 1.160 . S
O185 Cd186 2.203 1_655 S
Cd186 O185 2.203 1_455 S
Cd186 O188 2.411 . S
Cd186 O189 2.333 . S
Cd186 O190 2.352 . S
Cd186 O194 2.277 . S
Cd186 O195 2.356 . S
C187 O192 1.209 . S
C187 O194 1.226 . S
O188 Cd184 2.273 . S
O188 Cd186 2.411 . S
O188 C191 1.320 . S
O189 Cd186 2.333 . S
O189 C191 1.214 . S
O190 Cd186 2.352 . S
O190 C193 1.258 . S
C191 O188 1.320 . S
C191 O189 1.214 . S
O192 Cd184 2.277 . S
O192 C187 1.209 . S
C193 O190 1.258 . S
C193 O195 1.282 . S
O194 Cd186 2.277 . S
O194 C187 1.226 . S
O195 Cd186 2.356 . S
O195 C193 1.282 . S
C196 O197 1.306 . S
C196 O199 1.160 . S
O197 C196 1.306 . S
O197 Cd198 2.228 . S
Cd198 O197 2.228 . S
Cd198 O202 2.273 . S
Cd198 O206 2.277 . S
O199 C196 1.160 . S
O199 Cd200 2.203 . S
Cd200 O199 2.203 . S
Cd200 O202 2.411 . S
Cd200 O203 2.333 . S
Cd200 O204 2.352 . S
Cd200 O208 2.277 . S
Cd200 O209 2.356 . S
C201 O206 1.209 . S
C201 O208 1.226 . S
O202 Cd198 2.273 . S
O202 Cd200 2.411 . S
O202 C205 1.320 . S
O203 Cd200 2.333 . S
O203 C205 1.214 . S
O204 Cd200 2.352 . S
O204 C207 1.258 . S
C205 O202 1.320 . S
C205 O203 1.214 . S
O206 Cd198 2.277 . S
O206 C201 1.209 . S
C207 O204 1.258 . S
C207 O209 1.282 . S
O208 Cd200 2.277 . S
O208 C201 1.226 . S
O209 Cd200 2.356 . S
O209 C207 1.282 . S
C210 O211 1.306 . S
C210 O213 1.160 . S
O211 C210 1.306 . S
O211 Cd212 2.228 . S
Cd212 O211 2.228 . S
Cd212 O216 2.273 . S
Cd212 O220 2.277 . S
O213 C210 1.160 . S
O213 Cd214 2.203 . S
Cd214 O213 2.203 . S
Cd214 O216 2.411 . S
Cd214 O217 2.333 . S
Cd214 O218 2.352 . S
Cd214 O222 2.277 . S
Cd214 O223 2.356 . S
C215 O220 1.209 . S
C215 O222 1.226 . S
O216 Cd212 2.273 . S
O216 Cd214 2.411 . S
O216 C219 1.320 . S
O217 Cd214 2.333 . S
O217 C219 1.214 . S
O218 Cd214 2.352 . S
O218 C221 1.258 . S
C219 O216 1.320 . S
C219 O217 1.214 . S
O220 Cd212 2.277 . S
O220 C215 1.209 . S
C221 O218 1.258 . S
C221 O223 1.282 . S
O222 Cd214 2.277 . S
O222 C215 1.226 . S
O223 Cd214 2.356 . S
O223 C221 1.282 . S
C224 O225 1.306 1_545 S
C224 O227 1.160 . S
O225 C224 1.306 1_565 S
O225 Cd226 2.228 . S
Cd226 O225 2.228 . S
Cd226 O230 2.273 1_565 S
Cd226 O234 2.277 . S
O227 C224 1.160 . S
O227 Cd228 2.203 . S
Cd228 O227 2.203 . S
Cd228 O230 2.411 . S
Cd228 O231 2.333 . S
Cd228 O232 2.352 . S
Cd228 O236 2.277 1_545 S
Cd228 O237 2.356 . S
C229 O234 1.209 . S
C229 O236 1.226 . S
O230 Cd226 2.273 1_545 S
O230 Cd228 2.411 . S
O230 C233 1.320 . S
O231 Cd228 2.333 . S
O231 C233 1.214 . S
O232 Cd228 2.352 . S
O232 C235 1.258 . S
C233 O230 1.320 . S
C233 O231 1.214 . S
O234 Cd226 2.277 . S
O234 C229 1.209 . S
C235 O232 1.258 . S
C235 O237 1.282 . S
O236 Cd228 2.277 1_565 S
O236 C229 1.226 . S
O237 Cd228 2.356 . S
O237 C235 1.282 . S
C238 O239 1.306 . S
C238 O241 1.160 . S
O239 C238 1.306 . S
O239 Cd240 2.228 . S
Cd240 O239 2.228 . S
Cd240 O244 2.273 . S
Cd240 O248 2.277 . S
O241 C238 1.160 . S
O241 Cd242 2.203 . S
Cd242 O241 2.203 . S
Cd242 O244 2.411 . S
Cd242 O245 2.333 . S
Cd242 O246 2.352 . S
Cd242 O250 2.277 . S
Cd242 O251 2.356 . S
C243 O248 1.209 . S
C243 O250 1.226 . S
O244 Cd240 2.273 . S
O244 Cd242 2.411 . S
O244 C247 1.320 . S
O245 Cd242 2.333 . S
O245 C247 1.214 . S
O246 Cd242 2.352 . S
O246 C249 1.258 . S
C247 O244 1.320 . S
C247 O245 1.214 . S
O248 Cd240 2.277 . S
O248 C243 1.209 . S
C249 O246 1.258 . S
C249 O251 1.282 . S
O250 Cd242 2.277 . S
O250 C243 1.226 . S
O251 Cd242 2.356 . S
O251 C249 1.282 . S
C252 O253 1.306 . S
C252 O255 1.160 . S
O253 C252 1.306 . S
O253 Cd254 2.228 . S
Cd254 O253 2.228 . S
Cd254 O258 2.273 . S
Cd254 O262 2.277 . S
O255 C252 1.160 . S
O255 Cd256 2.203 . S
Cd256 O255 2.203 . S
Cd256 O258 2.411 . S
Cd256 O259 2.333 . S
Cd256 O260 2.352 1_545 S
Cd256 O264 2.277 . S
Cd256 O265 2.356 1_545 S
C257 O262 1.209 . S
C257 O264 1.226 . S
O258 Cd254 2.273 . S
O258 Cd256 2.411 . S
O258 C261 1.320 . S
O259 Cd256 2.333 . S
O259 C261 1.214 . S
O260 Cd256 2.352 1_565 S
O260 C263 1.258 . S
C261 O258 1.320 . S
C261 O259 1.214 . S
O262 Cd254 2.277 . S
O262 C257 1.209 . S
C263 O260 1.258 . S
C263 O265 1.282 . S
O264 Cd256 2.277 . S
O264 C257 1.226 . S
O265 Cd256 2.356 1_565 S
O265 C263 1.282 . S
C266 O267 1.306 . S
C266 O269 1.160 . S
O267 C266 1.306 . S
O267 Cd268 2.228 1_554 S
Cd268 O267 2.228 1_556 S
Cd268 O272 2.273 1_556 S
Cd268 O276 2.277 . S
O269 C266 1.160 . S
O269 Cd270 2.203 . S
Cd270 O269 2.203 . S
Cd270 O272 2.411 . S
Cd270 O273 2.333 . S
Cd270 O274 2.352 . S
Cd270 O278 2.277 1_554 S
Cd270 O279 2.356 . S
C271 O276 1.209 . S
C271 O278 1.226 . S
O272 Cd268 2.273 1_554 S
O272 Cd270 2.411 . S
O272 C275 1.320 . S
O273 Cd270 2.333 . S
O273 C275 1.214 . S
O274 Cd270 2.352 . S
O274 C277 1.258 . S
C275 O272 1.320 . S
C275 O273 1.214 . S
O276 Cd268 2.277 . S
O276 C271 1.209 . S
C277 O274 1.258 . S
C277 O279 1.282 . S
O278 Cd270 2.277 1_556 S
O278 C271 1.226 . S
O279 Cd270 2.356 . S
O279 C277 1.282 . S
C280 O281 1.306 . S
C280 O283 1.160 1_554 S
O281 C280 1.306 . S
O281 Cd282 2.228 . S
Cd282 O281 2.228 . S
Cd282 O286 2.273 . S
Cd282 O290 2.277 . S
O283 C280 1.160 1_556 S
O283 Cd284 2.203 . S
Cd284 O283 2.203 . S
Cd284 O286 2.411 1_556 S
Cd284 O287 2.333 . S
Cd284 O288 2.352 . S
Cd284 O292 2.277 1_556 S
Cd284 O293 2.356 . S
C285 O290 1.209 . S
C285 O292 1.226 . S
O286 Cd282 2.273 . S
O286 Cd284 2.411 1_554 S
O286 C289 1.320 1_554 S
O287 Cd284 2.333 . S
O287 C289 1.214 . S
O288 Cd284 2.352 . S
O288 C291 1.258 . S
C289 O286 1.320 1_556 S
C289 O287 1.214 . S
O290 Cd282 2.277 . S
O290 C285 1.209 . S
C291 O288 1.258 . S
C291 O293 1.282 . S
O292 Cd284 2.277 1_554 S
O292 C285 1.226 . S
O293 Cd284 2.356 . S
O293 C291 1.282 . S
C294 O295 1.306 . S
C294 O297 1.160 . S
O295 C294 1.306 . S
O295 Cd296 2.228 . S
Cd296 O295 2.228 . S
Cd296 O300 2.273 . S
Cd296 O304 2.277 . S
O297 C294 1.160 . S
O297 Cd298 2.203 . S
Cd298 O297 2.203 . S
Cd298 O300 2.411 . S
Cd298 O301 2.333 . S
Cd298 O302 2.352 . S
Cd298 O306 2.277 . S
Cd298 O307 2.356 . S
C299 O304 1.209 . S
C299 O306 1.226 . S
O300 Cd296 2.273 . S
O300 Cd298 2.411 . S
O300 C303 1.320 . S
O301 Cd298 2.333 . S
O301 C303 1.214 . S
O302 Cd298 2.352 . S
O302 C305 1.258 . S
C303 O300 1.320 . S
C303 O301 1.214 . S
O304 Cd296 2.277 . S
O304 C299 1.209 . S
C305 O302 1.258 . S
C305 O307 1.282 . S
O306 Cd298 2.277 . S
O306 C299 1.226 . S
O307 Cd298 2.356 . S
O307 C305 1.282 . S
C308 O309 1.306 . S
C308 O311 1.160 . S
O309 C308 1.306 . S
O309 Cd310 2.228 . S
Cd310 O309 2.228 . S
Cd310 O314 2.273 . S
Cd310 O318 2.277 . S
O311 C308 1.160 . S
O311 Cd312 2.203 . S
Cd312 O311 2.203 . S
Cd312 O314 2.411 . S
Cd312 O315 2.333 . S
Cd312 O316 2.352 . S
Cd312 O320 2.277 . S
Cd312 O321 2.356 . S
C313 O318 1.209 . S
C313 O320 1.226 . S
O314 Cd310 2.273 . S
O314 Cd312 2.411 . S
O314 C317 1.320 . S
O315 Cd312 2.333 . S
O315 C317 1.214 . S
O316 Cd312 2.352 . S
O316 C319 1.258 . S
C317 O314 1.320 . S
C317 O315 1.214 . S
O318 Cd310 2.277 . S
O318 C313 1.209 . S
C319 O316 1.258 . S
C319 O321 1.282 . S
O320 Cd312 2.277 . S
O320 C313 1.226 . S
O321 Cd312 2.356 . S
O321 C319 1.282 . S
C322 O323 1.306 . S
C322 O325 1.160 . S
O323 C322 1.306 . S
O323 Cd324 2.228 . S
Cd324 O323 2.228 . S
Cd324 O328 2.273 . S
Cd324 O332 2.277 . S
O325 C322 1.160 . S
O325 Cd326 2.203 . S
Cd326 O325 2.203 . S
Cd326 O328 2.411 . S
Cd326 O329 2.333 . S
Cd326 O330 2.352 . S
Cd326 O334 2.277 . S
Cd326 O335 2.356 . S
C327 O332 1.209 . S
C327 O334 1.226 . S
O328 Cd324 2.273 . S
O328 Cd326 2.411 . S
O328 C331 1.320 . S
O329 Cd326 2.333 . S
O329 C331 1.214 . S
O330 Cd326 2.352 . S
O330 C333 1.258 . S
C331 O328 1.320 . S
C331 O329 1.214 . S
O332 Cd324 2.277 . S
O332 C327 1.209 . S
C333 O330 1.258 . S
C333 O335 1.282 . S
O334 Cd326 2.277 . S
O334 C327 1.226 . S
O335 Cd326 2.356 . S
O335 C333 1.282 . S
C336 O352 1.254 . S
C336 O354 1.254 . S
N337 C338 1.333 1_565 S
N337 C342 1.307 . S
N337 Zn343 2.020 1_665 S
C338 N337 1.333 1_545 S
C338 C339 1.379 . S
C338 H356 0.952 . S
C339 C338 1.379 . S
C339 C340 1.390 1_545 S
C339 H366 0.949 . S
C340 C339 1.390 1_565 S
C340 C341 1.357 . S
C341 C340 1.357 . S
C341 C342 1.370 . S
C341 H367 0.950 . S
C342 N337 1.307 . S
C342 C341 1.370 . S
C342 H360 0.948 . S
Zn343 N337 2.020 1_445 S
Zn343 O352 2.034 1_554 S
Zn343 O358 2.034 . S
Zn343 O362 2.025 1_545 S
Zn343 O364 2.024 1_545 S
C344 O363 1.246 . S
C344 O364 1.249 . S
N345 C346 1.307 1_554 S
N345 C347 1.333 . S
N345 Zn351 2.020 . S
C346 N345 1.307 1_556 S
C346 C350 1.370 . S
C346 H357 0.948 . S
C347 N345 1.333 . S
C347 C348 1.379 . S
C347 H355 0.952 . S
C348 C347 1.379 . S
C348 C349 1.390 . S
C348 H368 0.949 . S
C349 C348 1.390 . S
C349 C350 1.357 1_554 S
C350 C346 1.370 . S
C350 C349 1.357 1_556 S
C350 H369 0.950 . S
Zn351 N345 2.020 . S
Zn351 O354 2.025 1_554 S
Zn351 O359 2.024 . S
Zn351 O361 2.039 . S
Zn351 O363 2.034 1_545 S
O352 C336 1.254 . S
O352 Zn343 2.034 1_556 S
C353 O358 1.246 . S
C353 O359 1.249 . S
O354 C336 1.254 . S
O354 Zn351 2.025 1_556 S
H355 C347 0.952 . S
H356 C338 0.952 . S
H357 C346 0.948 . S
O358 Zn343 2.034 . S
O358 C353 1.246 . S
O359 Zn351 2.024 . S
O359 C353 1.249 . S
H360 C342 0.948 . S
O361 Zn351 2.039 . S
O361 C365 1.251 1_545 S
O362 Zn343 2.025 1_565 S
O362 C365 1.254 . S
O363 C344 1.246 . S
O363 Zn351 2.034 1_565 S
O364 Zn343 2.024 1_565 S
O364 C344 1.249 . S
C365 O361 1.251 1_565 S
C365 O362 1.254 . S
H366 C339 0.949 . S
H367 C341 0.950 . S
H368 C348 0.949 . S
H369 C350 0.950 . S
C370 O386 1.251 . S
C370 O388 1.254 . S
N371 C372 1.333 . S
N371 C376 1.307 . S
N371 Zn377 2.020 . S
C372 N371 1.333 . S
C372 C373 1.379 . S
C372 H390 0.952 . S
C373 C372 1.379 . S
C373 C374 1.390 . S
C373 H400 0.949 . S
C374 C373 1.390 . S
C374 C375 1.357 . S
C375 C374 1.357 . S
C375 C376 1.370 . S
C375 H401 0.950 . S
C376 N371 1.307 . S
C376 C375 1.370 . S
C376 H394 0.948 . S
Zn377 N371 2.020 . S
Zn377 O386 2.039 . S
Zn377 O392 2.034 . S
Zn377 O396 2.025 . S
Zn377 O398 2.024 . S
C378 O397 1.246 . S
C378 O398 1.249 . S
N379 C380 1.307 . S
N379 C381 1.333 . S
N379 Zn385 2.020 . S
C380 N379 1.307 . S
C380 C384 1.370 . S
C380 H391 0.948 . S
C381 N379 1.333 . S
C381 C382 1.379 . S
C381 H389 0.952 . S
C382 C381 1.379 . S
C382 C383 1.390 . S
C382 H402 0.949 . S
C383 C382 1.390 . S
C383 C384 1.357 . S
C384 C380 1.370 . S
C384 C383 1.357 . S
C384 H403 0.950 . S
Zn385 N379 2.020 . S
Zn385 O388 2.025 . S
Zn385 O393 2.024 . S
Zn385 O395 2.039 . S
Zn385 O397 2.034 . S
O386 C370 1.251 . S
O386 Zn377 2.039 . S
C387 O392 1.246 . S
C387 O393 1.249 . S
O388 C370 1.254 . S
O388 Zn385 2.025 . S
H389 C381 0.952 . S
H390 C372 0.952 . S
H391 C380 0.948 . S
O392 Zn377 2.034 . S
O392 C387 1.246 . S
O393 Zn385 2.024 . S
O393 C387 1.249 . S
H394 C376 0.948 . S
O395 Zn385 2.039 . S
O395 C399 1.251 . S
O396 Zn377 2.025 . S
O396 C399 1.254 . S
O397 C378 1.246 . S
O397 Zn385 2.034 . S
O398 Zn377 2.024 . S
O398 C378 1.249 . S
C399 O395 1.251 . S
C399 O396 1.254 . S
H400 C373 0.949 . S
H401 C375 0.950 . S
H402 C382 0.949 . S
H403 C384 0.950 . S
C404 O420 1.251 . S
C404 O422 1.254 . S
N405 C406 1.333 . S
N405 C410 1.307 . S
N405 Zn411 2.020 . S
C406 N405 1.333 . S
C406 C407 1.379 . S
C406 H424 0.952 . S
C407 C406 1.379 . S
C407 C408 1.390 . S
C407 H434 0.949 . S
C408 C407 1.390 . S
C408 C409 1.357 . S
C409 C408 1.357 . S
C409 C410 1.370 . S
C409 H435 0.950 . S
C410 N405 1.307 . S
C410 C409 1.370 . S
C410 H428 0.948 . S
Zn411 N405 2.020 . S
Zn411 O420 2.039 1_565 S
Zn411 O426 2.034 1_565 S
Zn411 O430 2.025 . S
Zn411 O432 2.024 . S
C412 O431 1.246 1_565 S
C412 O432 1.249 . S
N413 C414 1.307 . S
N413 C415 1.333 . S
N413 Zn419 2.020 . S
C414 N413 1.307 . S
C414 C418 1.370 . S
C414 H425 0.948 . S
C415 N413 1.333 . S
C415 C416 1.379 . S
C415 H423 0.952 . S
C416 C415 1.379 . S
C416 C417 1.390 . S
C416 H436 0.949 . S
C417 C416 1.390 . S
C417 C418 1.357 . S
C418 C414 1.370 . S
C418 C417 1.357 . S
C418 H437 0.950 . S
Zn419 N413 2.020 . S
Zn419 O422 2.025 . S
Zn419 O427 2.024 . S
Zn419 O429 2.039 . S
Zn419 O431 2.034 . S
O420 C404 1.251 . S
O420 Zn411 2.039 1_545 S
C421 O426 1.246 . S
C421 O427 1.249 . S
O422 C404 1.254 . S
O422 Zn419 2.025 . S
H423 C415 0.952 . S
H424 C406 0.952 . S
H425 C414 0.948 . S
O426 Zn411 2.034 1_545 S
O426 C421 1.246 . S
O427 Zn419 2.024 . S
O427 C421 1.249 . S
H428 C410 0.948 . S
O429 Zn419 2.039 . S
O429 C433 1.251 . S
O430 Zn411 2.025 . S
O430 C433 1.254 1_565 S
O431 C412 1.246 1_545 S
O431 Zn419 2.034 . S
O432 Zn411 2.024 . S
O432 C412 1.249 . S
C433 O429 1.251 . S
C433 O430 1.254 1_545 S
H434 C407 0.949 . S
H435 C409 0.950 . S
H436 C416 0.949 . S
H437 C418 0.950 . S
C438 O454 1.251 . S
C438 O456 1.254 . S
N439 C440 1.333 . S
N439 C444 1.307 . S
N439 Zn445 2.020 . S
C440 N439 1.333 . S
C440 C441 1.379 . S
C440 H458 0.952 . S
C441 C440 1.379 . S
C441 C442 1.390 . S
C441 H468 0.949 . S
C442 C441 1.390 . S
C442 C443 1.357 . S
C443 C442 1.357 . S
C443 C444 1.370 . S
C443 H469 0.950 . S
C444 N439 1.307 . S
C444 C443 1.370 . S
C444 H462 0.948 . S
Zn445 N439 2.020 . S
Zn445 O454 2.039 . S
Zn445 O460 2.034 . S
Zn445 O464 2.025 . S
Zn445 O466 2.024 . S
C446 O465 1.246 . S
C446 O466 1.249 . S
N447 C448 1.307 . S
N447 C449 1.333 . S
N447 Zn453 2.020 . S
C448 N447 1.307 . S
C448 C452 1.370 . S
C448 H459 0.948 . S
C449 N447 1.333 . S
C449 C450 1.379 . S
C449 H457 0.952 . S
C450 C449 1.379 . S
C450 C451 1.390 . S
C450 H470 0.949 . S
C451 C450 1.390 . S
C451 C452 1.357 . S
C452 C448 1.370 . S
C452 C451 1.357 . S
C452 H471 0.950 . S
Zn453 N447 2.020 . S
Zn453 O456 2.025 . S
Zn453 O461 2.024 . S
Zn453 O463 2.039 . S
Zn453 O465 2.034 . S
O454 C438 1.251 . S
O454 Zn445 2.039 . S
C455 O460 1.246 . S
C455 O461 1.249 . S
O456 C438 1.254 . S
O456 Zn453 2.025 . S
H457 C449 0.952 . S
H458 C440 0.952 . S
H459 C448 0.948 . S
O460 Zn445 2.034 . S
O460 C455 1.246 . S
O461 Zn453 2.024 . S
O461 C455 1.249 . S
H462 C444 0.948 . S
O463 Zn453 2.039 . S
O463 C467 1.251 . S
O464 Zn445 2.025 . S
O464 C467 1.254 . S
O465 C446 1.246 . S
O465 Zn453 2.034 . S
O466 Zn445 2.024 . S
O466 C446 1.249 . S
C467 O463 1.251 . S
C467 O464 1.254 . S
H468 C441 0.949 . S
H469 C443 0.950 . S
H470 C450 0.949 . S
H471 C452 0.950 . S
C472 O488 1.251 1_565 S
C472 O490 1.254 . S
N473 C474 1.333 . S
N473 C478 1.307 . S
N473 Zn479 2.020 . S
C474 N473 1.333 . S
C474 C475 1.379 . S
C474 H492 0.952 . S
C475 C474 1.379 . S
C475 C476 1.390 . S
C475 H502 0.949 . S
C476 C475 1.390 . S
C476 C477 1.357 . S
C477 C476 1.357 . S
C477 C478 1.370 . S
C477 H503 0.950 . S
C478 N473 1.307 . S
C478 C477 1.370 . S
C478 H496 0.948 . S
Zn479 N473 2.020 . S
Zn479 O488 2.039 . S
Zn479 O494 2.034 . S
Zn479 O498 2.025 . S
Zn479 O500 2.024 1_545 S
C480 O499 1.246 . S
C480 O500 1.249 . S
N481 C482 1.307 . S
N481 C483 1.333 1_455 S
N481 Zn487 2.020 1_565 S
C482 N481 1.307 . S
C482 C486 1.370 . S
C482 H493 0.950 . S
C483 N481 1.333 1_655 S
C483 C484 1.379 . S
C483 H491 0.952 . S
C484 C483 1.379 . S
C484 C485 1.390 . S
C484 H504 0.949 . S
C485 C484 1.390 . S
C485 C486 1.357 1_655 S
C486 C482 1.370 . S
C486 C485 1.357 1_455 S
C486 H505 0.950 . S
Zn487 N481 2.020 1_545 S
Zn487 O490 2.025 1_545 S
Zn487 O495 2.024 . S
Zn487 O497 2.039 1_455 S
Zn487 O499 2.034 1_545 S
O488 C472 1.251 1_545 S
O488 Zn479 2.039 . S
C489 O494 1.246 . S
C489 O495 1.249 . S
O490 C472 1.254 . S
O490 Zn487 2.025 1_565 S
H491 C483 0.952 . S
H492 C474 0.952 . S
H493 C482 0.950 . S
O494 Zn479 2.034 . S
O494 C489 1.246 . S
O495 Zn487 2.024 . S
O495 C489 1.249 . S
H496 C478 0.948 . S
O497 Zn487 2.039 1_655 S
O497 C501 1.251 . S
O498 Zn479 2.025 . S
O498 C501 1.254 1_455 S
O499 C480 1.246 . S
O499 Zn487 2.034 1_565 S
O500 Zn479 2.024 1_565 S
O500 C480 1.249 . S
C501 O497 1.251 . S
C501 O498 1.254 1_655 S
H502 C475 0.949 . S
H503 C477 0.950 . S
H504 C484 0.949 . S
H505 C486 0.950 . S
C506 O522 1.251 . S
C506 O524 1.254 . S
N507 C508 1.333 . S
N507 C512 1.307 . S
N507 Zn513 2.020 . S
C508 N507 1.333 . S
C508 C509 1.379 . S
C508 H526 0.952 . S
C509 C508 1.379 . S
C509 C510 1.390 . S
C509 H536 0.949 . S
C510 C509 1.390 . S
C510 C511 1.357 . S
C511 C510 1.357 . S
C511 C512 1.370 . S
C511 H537 0.950 . S
C512 N507 1.307 . S
C512 C511 1.370 . S
C512 H530 0.948 . S
Zn513 N507 2.020 . S
Zn513 O522 2.039 . S
Zn513 O528 2.034 . S
Zn513 O532 2.025 . S
Zn513 O534 2.024 . S
C514 O533 1.246 . S
C514 O534 1.249 . S
N515 C516 1.307 . S
N515 C517 1.333 . S
N515 Zn521 2.020 . S
C516 N515 1.307 . S
C516 C520 1.370 . S
C516 H527 0.948 . S
C517 N515 1.333 . S
C517 C518 1.379 . S
C517 H525 0.952 . S
C518 C517 1.379 . S
C518 C519 1.390 . S
C518 H538 0.949 . S
C519 C518 1.390 . S
C519 C520 1.357 . S
C520 C516 1.370 . S
C520 C519 1.357 . S
C520 H539 0.950 . S
Zn521 N515 2.020 . S
Zn521 O524 2.025 . S
Zn521 O529 2.024 . S
Zn521 O531 2.039 . S
Zn521 O533 2.034 . S
O522 C506 1.251 . S
O522 Zn513 2.039 . S
C523 O528 1.246 . S
C523 O529 1.249 . S
O524 C506 1.254 . S
O524 Zn521 2.025 . S
H525 C517 0.952 . S
H526 C508 0.952 . S
H527 C516 0.948 . S
O528 Zn513 2.034 . S
O528 C523 1.246 . S
O529 Zn521 2.024 . S
O529 C523 1.249 . S
H530 C512 0.948 . S
O531 Zn521 2.039 . S
O531 C535 1.251 . S
O532 Zn513 2.025 . S
O532 C535 1.254 . S
O533 C514 1.246 . S
O533 Zn521 2.034 . S
O534 Zn513 2.024 . S
O534 C514 1.249 . S
C535 O531 1.251 . S
C535 O532 1.254 . S
H536 C509 0.949 . S
H537 C511 0.950 . S
H538 C518 0.949 . S
H539 C520 0.950 . S
C540 O556 1.251 . S
C540 O558 1.254 . S
N541 C542 1.333 . S
N541 C546 1.307 . S
N541 Zn547 2.020 . S
C542 N541 1.333 . S
C542 C543 1.379 . S
C542 H560 0.952 . S
C543 C542 1.379 . S
C543 C544 1.390 . S
C543 H570 0.949 . S
C544 C543 1.390 . S
C544 C545 1.357 . S
C545 C544 1.357 . S
C545 C546 1.370 . S
C545 H571 0.950 . S
C546 N541 1.307 . S
C546 C545 1.370 . S
C546 H564 0.948 . S
Zn547 N541 2.020 . S
Zn547 O556 2.039 1_545 S
Zn547 O562 2.034 . S
Zn547 O566 2.025 . S
Zn547 O568 2.024 . S
C548 O567 1.246 . S
C548 O568 1.249 1_565 S
N549 C550 1.307 . S
N549 C551 1.333 1_565 S
N549 Zn555 2.020 1_566 S
C550 N549 1.307 . S
C550 C554 1.370 . S
C550 H561 0.948 . S
C551 N549 1.333 1_545 S
C551 C552 1.379 1_545 S
C551 H559 0.952 . S
C552 C551 1.379 1_565 S
C552 C553 1.390 . S
C552 H572 0.949 1_565 S
C553 C552 1.390 . S
C553 C554 1.357 . S
C554 C550 1.370 . S
C554 C553 1.357 . S
C554 H573 0.950 . S
Zn555 N549 2.020 1_544 S
Zn555 O558 2.025 1_545 S
Zn555 O563 2.024 . S
Zn555 O565 2.039 1_554 S
Zn555 O567 2.034 1_545 S
O556 C540 1.251 . S
O556 Zn547 2.039 1_565 S
C557 O562 1.246 . S
C557 O563 1.249 . S
O558 C540 1.254 . S
O558 Zn555 2.025 1_565 S
H559 C551 0.952 . S
H560 C542 0.952 . S
H561 C550 0.948 . S
O562 Zn547 2.034 . S
O562 C557 1.246 . S
O563 Zn555 2.024 . S
O563 C557 1.249 . S
H564 C546 0.948 . S
O565 Zn555 2.039 1_556 S
O565 C569 1.251 1_556 S
O566 Zn547 2.025 . S
O566 C569 1.254 . S
O567 C548 1.246 . S
O567 Zn555 2.034 1_565 S
O568 Zn547 2.024 . S
O568 C548 1.249 1_545 S
C569 O565 1.251 1_554 S
C569 O566 1.254 . S
H570 C543 0.949 . S
H571 C545 0.950 . S
H572 C552 0.949 1_545 S
H573 C554 0.950 . S
C574 O590 1.251 . S
C574 O592 1.254 . S
N575 C576 1.333 . S
N575 C580 1.307 . S
N575 Zn581 2.020 . S
C576 N575 1.333 . S
C576 C577 1.379 . S
C576 H594 0.952 . S
C577 C576 1.379 . S
C577 C578 1.390 . S
C577 H604 0.949 . S
C578 C577 1.390 . S
C578 C579 1.357 . S
C579 C578 1.357 . S
C579 C580 1.370 . S
C579 H605 0.950 . S
C580 N575 1.307 . S
C580 C579 1.370 . S
C580 H598 0.948 . S
Zn581 N575 2.020 . S
Zn581 O590 2.039 . S
Zn581 O596 2.034 . S
Zn581 O600 2.025 . S
Zn581 O602 2.024 . S
C582 O601 1.246 . S
C582 O602 1.249 . S
N583 C584 1.307 . S
N583 C585 1.333 . S
N583 Zn589 2.020 . S
C584 N583 1.307 . S
C584 C588 1.370 . S
C584 H595 0.948 . S
C585 N583 1.333 . S
C585 C586 1.379 . S
C585 H593 0.952 . S
C586 C585 1.379 . S
C586 C587 1.390 . S
C586 H606 0.949 . S
C587 C586 1.390 . S
C587 C588 1.357 . S
C588 C584 1.370 . S
C588 C587 1.357 . S
C588 H607 0.950 . S
Zn589 N583 2.020 . S
Zn589 O592 2.025 . S
Zn589 O597 2.024 . S
Zn589 O599 2.039 . S
Zn589 O601 2.034 . S
O590 C574 1.251 . S
O590 Zn581 2.039 . S
C591 O596 1.246 . S
C591 O597 1.249 . S
O592 C574 1.254 . S
O592 Zn589 2.025 . S
H593 C585 0.952 . S
H594 C576 0.952 . S
H595 C584 0.948 . S
O596 Zn581 2.034 . S
O596 C591 1.246 . S
O597 Zn589 2.024 . S
O597 C591 1.249 . S
H598 C580 0.948 . S
O599 Zn589 2.039 . S
O599 C603 1.251 . S
O600 Zn581 2.025 . S
O600 C603 1.254 . S
O601 C582 1.246 . S
O601 Zn589 2.034 . S
O602 Zn581 2.024 . S
O602 C582 1.249 . S
C603 O599 1.251 . S
C603 O600 1.254 . S
H604 C577 0.949 . S
H605 C579 0.950 . S
H606 C586 0.949 . S
H607 C588 0.950 . S
C608 O624 1.251 . S
C608 O626 1.254 . S
N609 C610 1.333 . S
N609 C614 1.307 . S
N609 Zn615 2.020 1_556 S
C610 N609 1.333 . S
C610 C611 1.379 . S
C610 H628 0.952 . S
C611 C610 1.379 . S
C611 C612 1.390 . S
C611 H638 0.949 . S
C612 C611 1.390 . S
C612 C613 1.357 . S
C613 C612 1.357 . S
C613 C614 1.370 . S
C613 H639 0.950 . S
C614 N609 1.307 . S
C614 C613 1.370 . S
C614 H632 0.948 . S
Zn615 N609 2.020 1_554 S
Zn615 O624 2.039 . S
Zn615 O630 2.034 . S
Zn615 O634 2.027 . S
Zn615 O636 2.024 1_554 S
C616 O635 1.246 . S
C616 O636 1.249 1_554 S
N617 C618 1.307 . S
N617 C619 1.333 . S
N617 Zn623 2.020 . S
C618 N617 1.307 . S
C618 C622 1.370 . S
C618 H629 0.948 . S
C619 N617 1.333 . S
C619 C620 1.379 . S
C619 H627 0.952 . S
C620 C619 1.379 . S
C620 C621 1.390 . S
C620 H640 0.949 . S
C621 C620 1.390 . S
C621 C622 1.357 . S
C622 C618 1.370 . S
C622 C621 1.357 . S
C622 H641 0.950 . S
Zn623 N617 2.020 . S
Zn623 O626 2.025 . S
Zn623 O631 2.024 . S
Zn623 O633 2.039 . S
Zn623 O635 2.034 . S
O624 C608 1.251 . S
O624 Zn615 2.039 . S
C625 O630 1.246 . S
C625 O631 1.249 . S
O626 C608 1.254 . S
O626 Zn623 2.025 . S
H627 C619 0.952 . S
H628 C610 0.952 . S
H629 C618 0.948 . S
O630 Zn615 2.034 . S
O630 C625 1.246 . S
O631 Zn623 2.024 . S
O631 C625 1.249 . S
H632 C614 0.948 . S
O633 Zn623 2.039 . S
O633 C637 1.251 . S
O634 Zn615 2.027 . S
O634 C637 1.275 . S
O635 C616 1.246 . S
O635 Zn623 2.034 . S
O636 Zn615 2.024 1_556 S
O636 C616 1.249 1_556 S
C637 O633 1.251 . S
C637 O634 1.275 . S
H638 C611 0.949 . S
H639 C613 0.950 . S
H640 C620 0.949 . S
H641 C622 0.950 . S
C642 O658 1.251 . S
C642 O660 1.254 . S
N643 C644 1.333 . S
N643 C648 1.307 . S
N643 Zn649 2.020 . S
C644 N643 1.333 . S
C644 C645 1.379 . S
C644 H662 0.952 . S
C645 C644 1.379 . S
C645 C646 1.390 . S
C645 H672 0.949 . S
C646 C645 1.390 . S
C646 C647 1.357 . S
C647 C646 1.357 . S
C647 C648 1.370 . S
C647 H673 0.950 . S
C648 N643 1.307 . S
C648 C647 1.370 . S
C648 H666 0.948 . S
Zn649 N643 2.020 . S
Zn649 O658 2.039 . S
Zn649 O664 2.034 . S
Zn649 O668 2.025 . S
Zn649 O670 2.024 . S
C650 O669 1.246 . S
C650 O670 1.249 . S
N651 C652 1.307 . S
N651 C653 1.333 . S
N651 Zn657 2.020 . S
C652 N651 1.307 . S
C652 C656 1.370 . S
C652 H663 0.948 . S
C653 N651 1.333 . S
C653 C654 1.379 . S
C653 H661 0.952 . S
C654 C653 1.379 . S
C654 C655 1.390 . S
C654 H674 0.949 . S
C655 C654 1.390 . S
C655 C656 1.357 . S
C656 C652 1.370 . S
C656 C655 1.357 . S
C656 H675 0.950 . S
Zn657 N651 2.020 . S
Zn657 O660 2.025 . S
Zn657 O665 2.024 . S
Zn657 O667 2.039 . S
Zn657 O669 2.034 . S
O658 C642 1.251 . S
O658 Zn649 2.039 . S
C659 O664 1.246 . S
C659 O665 1.249 . S
O660 C642 1.254 . S
O660 Zn657 2.025 . S
H661 C653 0.952 . S
H662 C644 0.952 . S
H663 C652 0.948 . S
O664 Zn649 2.034 . S
O664 C659 1.246 . S
O665 Zn657 2.024 . S
O665 C659 1.249 . S
H666 C648 0.948 . S
O667 Zn657 2.039 . S
O667 C671 1.251 . S
O668 Zn649 2.025 . S
O668 C671 1.254 . S
O669 C650 1.246 . S
O669 Zn657 2.034 . S
O670 Zn649 2.024 . S
O670 C650 1.249 . S
C671 O667 1.251 . S
C671 O668 1.254 . S
H672 C645 0.949 . S
H673 C647 0.950 . S
H674 C654 0.949 . S
H675 C656 0.950 . S
C676 O692 1.251 . S
C676 O694 1.254 . S
N677 C678 1.333 . S
N677 C682 1.307 . S
N677 Zn683 2.020 . S
C678 N677 1.333 . S
C678 C679 1.379 . S
C678 H696 0.952 . S
C679 C678 1.379 . S
C679 C680 1.390 . S
C679 H706 0.949 . S
C680 C679 1.390 . S
C680 C681 1.357 . S
C681 C680 1.357 . S
C681 C682 1.370 . S
C681 H707 0.950 . S
C682 N677 1.307 . S
C682 C681 1.370 . S
C682 H700 0.948 . S
Zn683 N677 2.020 . S
Zn683 O692 2.039 . S
Zn683 O698 2.034 . S
Zn683 O702 2.025 . S
Zn683 O704 2.024 . S
C684 O703 1.246 . S
C684 O704 1.249 . S
N685 C686 1.307 1_455 S
N685 C687 1.333 . S
N685 Zn691 2.020 . S
C686 N685 1.307 1_655 S
C686 C690 1.370 . S
C686 H697 0.948 . S
C687 N685 1.333 . S
C687 C688 1.379 . S
C687 H695 0.952 . S
C688 C687 1.379 . S
C688 C689 1.390 1_455 S
C688 H708 0.949 . S
C689 C688 1.390 1_655 S
C689 C690 1.357 . S
C690 C686 1.370 . S
C690 C689 1.357 . S
C690 H709 0.950 . S
Zn691 N685 2.020 . S
Zn691 O694 2.025 . S
Zn691 O699 2.024 1_455 S
Zn691 O701 2.039 . S
Zn691 O703 2.034 . S
O692 C676 1.251 . S
O692 Zn683 2.039 . S
C693 O698 1.246 1_655 S
C693 O699 1.249 . S
O694 C676 1.254 . S
O694 Zn691 2.025 . S
H695 C687 0.952 . S
H696 C678 0.952 . S
H697 C686 0.948 . S
O698 Zn683 2.034 . S
O698 C693 1.246 1_455 S
O699 Zn691 2.024 1_655 S
O699 C693 1.249 . S
H700 C682 0.948 . S
O701 Zn691 2.039 . S
O701 C705 1.251 . S
O702 Zn683 2.025 . S
O702 C705 1.254 . S
O703 C684 1.246 . S
O703 Zn691 2.034 . S
O704 Zn683 2.024 . S
O704 C684 1.249 . S
C705 O701 1.251 . S
C705 O702 1.254 . S
H706 C679 0.949 . S
H707 C681 0.950 . S
H708 C688 0.949 . S
H709 C690 0.950 . S
C710 O726 1.251 . S
C710 O728 1.254 . S
N711 C712 1.333 . S
N711 C716 1.307 . S
N711 Zn717 2.020 . S
C712 N711 1.333 . S
C712 C713 1.379 . S
C712 H730 0.952 . S
C713 C712 1.379 . S
C713 C714 1.390 . S
C713 H740 0.949 . S
C714 C713 1.390 . S
C714 C715 1.357 . S
C715 C714 1.357 . S
C715 C716 1.370 . S
C715 H741 0.950 . S
C716 N711 1.307 . S
C716 C715 1.370 . S
C716 H734 0.948 . S
Zn717 N711 2.020 . S
Zn717 O726 2.039 . S
Zn717 O732 2.034 . S
Zn717 O736 2.025 . S
Zn717 O738 2.024 . S
C718 O737 1.246 . S
C718 O738 1.249 . S
N719 C720 1.307 . S
N719 C721 1.333 . S
N719 Zn725 2.020 . S
C720 N719 1.307 . S
C720 C724 1.370 . S
C720 H731 0.948 . S
C721 N719 1.333 . S
C721 C722 1.379 . S
C721 H729 0.952 . S
C722 C721 1.379 . S
C722 C723 1.390 . S
C722 H742 0.949 . S
C723 C722 1.390 . S
C723 C724 1.357 . S
C724 C720 1.370 . S
C724 C723 1.357 . S
C724 H743 0.950 . S
Zn725 N719 2.020 . S
Zn725 O728 2.025 . S
Zn725 O733 2.024 . S
Zn725 O735 2.039 . S
Zn725 O737 2.034 . S
O726 C710 1.251 . S
O726 Zn717 2.039 . S
C727 O732 1.246 . S
C727 O733 1.249 . S
O728 C710 1.254 . S
O728 Zn725 2.025 . S
H729 C721 0.952 . S
H730 C712 0.952 . S
H731 C720 0.948 . S
O732 Zn717 2.034 . S
O732 C727 1.246 . S
O733 Zn725 2.024 . S
O733 C727 1.249 . S
H734 C716 0.948 . S
O735 Zn725 2.039 . S
O735 C739 1.251 . S
O736 Zn717 2.025 . S
O736 C739 1.254 . S
O737 C718 1.246 . S
O737 Zn725 2.034 . S
O738 Zn717 2.024 . S
O738 C718 1.249 . S
C739 O735 1.251 . S
C739 O736 1.254 . S
H740 C713 0.949 . S
H741 C715 0.950 . S
H742 C722 0.949 . S
H743 C724 0.950 . S
C744 O760 1.251 . S
C744 O762 1.254 . S
N745 C746 1.333 . S
N745 C750 1.307 . S
N745 Zn751 2.020 . S
C746 N745 1.333 . S
C746 C747 1.379 . S
C746 H764 0.952 . S
C747 C746 1.379 . S
C747 C748 1.390 . S
C747 H774 0.949 . S
C748 C747 1.390 . S
C748 C749 1.357 . S
C749 C748 1.357 . S
C749 C750 1.370 . S
C749 H775 0.950 . S
C750 N745 1.307 . S
C750 C749 1.370 . S
C750 H768 0.948 . S
Zn751 N745 2.020 . S
Zn751 O760 2.039 . S
Zn751 O766 2.034 . S
Zn751 O770 2.025 . S
Zn751 O772 2.024 . S
C752 O771 1.246 . S
C752 O772 1.249 . S
N753 C754 1.307 . S
N753 C755 1.333 . S
N753 Zn759 2.020 . S
C754 N753 1.307 . S
C754 C758 1.370 . S
C754 H765 0.948 . S
C755 N753 1.333 . S
C755 C756 1.379 . S
C755 H763 0.952 . S
C756 C755 1.379 . S
C756 C757 1.390 . S
C756 H776 0.949 . S
C757 C756 1.390 . S
C757 C758 1.357 . S
C758 C754 1.370 . S
C758 C757 1.357 . S
C758 H777 0.950 . S
Zn759 N753 2.020 . S
Zn759 O762 2.025 . S
Zn759 O767 2.024 . S
Zn759 O769 2.039 . S
Zn759 O771 2.034 . S
O760 C744 1.251 . S
O760 Zn751 2.039 . S
C761 O766 1.246 . S
C761 O767 1.249 . S
O762 C744 1.254 . S
O762 Zn759 2.025 . S
H763 C755 0.952 . S
H764 C746 0.952 . S
H765 C754 0.948 . S
O766 Zn751 2.034 . S
O766 C761 1.246 . S
O767 Zn759 2.024 . S
O767 C761 1.249 . S
H768 C750 0.948 . S
O769 Zn759 2.039 . S
O769 C773 1.251 . S
O770 Zn751 2.025 . S
O770 C773 1.254 . S
O771 C752 1.246 . S
O771 Zn759 2.034 . S
O772 Zn751 2.024 . S
O772 C752 1.249 . S
C773 O769 1.251 . S
C773 O770 1.254 . S
H774 C747 0.949 . S
H775 C749 0.950 . S
H776 C756 0.949 . S
H777 C758 0.950 . S
C778 O794 1.251 . S
C778 O796 1.254 . S
N779 C780 1.333 . S
N779 C784 1.307 . S
N779 Zn785 2.020 . S
C780 N779 1.333 . S
C780 C781 1.379 . S
C780 H798 0.952 . S
C781 C780 1.379 . S
C781 C782 1.390 . S
C781 H808 0.949 . S
C782 C781 1.390 . S
C782 C783 1.357 . S
C783 C782 1.357 . S
C783 C784 1.370 . S
C783 H809 0.950 . S
C784 N779 1.307 . S
C784 C783 1.370 . S
C784 H802 0.948 . S
Zn785 N779 2.020 . S
Zn785 O794 2.039 . S
Zn785 O800 2.034 . S
Zn785 O804 2.025 . S
Zn785 O806 2.024 . S
C786 O805 1.246 . S
C786 O806 1.249 . S
N787 C788 1.307 . S
N787 C789 1.333 . S
N787 Zn793 2.020 . S
C788 N787 1.307 . S
C788 C792 1.370 . S
C788 H799 0.948 . S
C789 N787 1.333 . S
C789 C790 1.379 . S
C789 H797 0.952 . S
C790 C789 1.379 . S
C790 C791 1.390 . S
C790 H810 0.949 . S
C791 C790 1.390 . S
C791 C792 1.357 . S
C792 C788 1.370 . S
C792 C791 1.357 . S
C792 H811 0.950 . S
Zn793 N787 2.020 . S
Zn793 O796 2.025 . S
Zn793 O801 2.024 . S
Zn793 O803 2.039 . S
Zn793 O805 2.034 . S
O794 C778 1.251 . S
O794 Zn785 2.039 . S
C795 O800 1.246 . S
C795 O801 1.249 . S
O796 C778 1.254 . S
O796 Zn793 2.025 . S
H797 C789 0.952 . S
H798 C780 0.952 . S
H799 C788 0.948 . S
O800 Zn785 2.034 . S
O800 C795 1.246 . S
O801 Zn793 2.024 . S
O801 C795 1.249 . S
H802 C784 0.948 . S
O803 Zn793 2.039 . S
O803 C807 1.251 . S
O804 Zn785 2.025 . S
O804 C807 1.254 . S
O805 C786 1.246 . S
O805 Zn793 2.034 . S
O806 Zn785 2.024 . S
O806 C786 1.249 . S
C807 O803 1.251 . S
C807 O804 1.254 . S
H808 C781 0.949 . S
H809 C783 0.950 . S
H810 C790 0.949 . S
H811 C792 0.950 . S
C812 O828 1.251 . S
C812 O830 1.254 . S
N813 C814 1.333 . S
N813 C818 1.307 . S
N813 Zn819 2.020 . S
C814 N813 1.333 . S
C814 C815 1.379 . S
C814 H832 0.952 . S
C815 C814 1.379 . S
C815 C816 1.390 . S
C815 H842 0.949 . S
C816 C815 1.390 . S
C816 C817 1.357 . S
C817 C816 1.357 . S
C817 C818 1.370 . S
C817 H843 0.950 . S
C818 N813 1.307 . S
C818 C817 1.370 . S
C818 H836 0.948 . S
Zn819 N813 2.020 . S
Zn819 O828 2.039 . S
Zn819 O834 2.034 . S
Zn819 O838 2.025 . S
Zn819 O840 2.024 . S
C820 O839 1.246 . S
C820 O840 1.249 . S
N821 C822 1.307 . S
N821 C823 1.333 . S
N821 Zn827 2.020 . S
C822 N821 1.307 . S
C822 C826 1.370 . S
C822 H833 0.948 . S
C823 N821 1.333 . S
C823 C824 1.379 . S
C823 H831 0.952 . S
C824 C823 1.379 . S
C824 C825 1.390 . S
C824 H844 0.949 . S
C825 C824 1.390 . S
C825 C826 1.357 . S
C826 C822 1.370 . S
C826 C825 1.357 . S
C826 H845 0.950 . S
Zn827 N821 2.020 . S
Zn827 O830 2.025 . S
Zn827 O835 2.024 . S
Zn827 O837 2.039 . S
Zn827 O839 2.034 . S
O828 C812 1.251 . S
O828 Zn819 2.039 . S
C829 O834 1.246 . S
C829 O835 1.249 . S
O830 C812 1.254 . S
O830 Zn827 2.025 . S
H831 C823 0.952 . S
H832 C814 0.952 . S
H833 C822 0.948 . S
O834 Zn819 2.034 . S
O834 C829 1.246 . S
O835 Zn827 2.024 . S
O835 C829 1.249 . S
H836 C818 0.948 . S
O837 Zn827 2.039 . S
O837 C841 1.251 . S
O838 Zn819 2.025 . S
O838 C841 1.254 . S
O839 C820 1.246 . S
O839 Zn827 2.034 . S
O840 Zn819 2.024 . S
O840 C820 1.249 . S
C841 O837 1.251 . S
C841 O838 1.254 . S
H842 C815 0.949 . S
H843 C817 0.950 . S
H844 C824 0.949 . S
H845 C826 0.950 . S
C846 O862 1.251 . S
C846 O864 1.254 . S
N847 C848 1.333 . S
N847 C852 1.307 . S
N847 Zn853 2.020 . S
C848 N847 1.333 . S
C848 C849 1.379 . S
C848 H866 0.952 . S
C849 C848 1.379 . S
C849 C850 1.390 . S
C849 H876 0.949 . S
C850 C849 1.390 . S
C850 C851 1.357 . S
C851 C850 1.357 . S
C851 C852 1.370 . S
C851 H877 0.950 . S
C852 N847 1.307 . S
C852 C851 1.370 . S
C852 H870 0.948 . S
Zn853 N847 2.020 . S
Zn853 O862 2.039 . S
Zn853 O868 2.034 . S
Zn853 O872 2.041 . S
Zn853 O874 2.024 . S
C854 O873 1.246 . S
C854 O874 1.249 1_655 S
N855 C856 1.307 . S
N855 C857 1.333 1_554 S
N855 Zn861 2.020 . S
C856 N855 1.307 . S
C856 C860 1.370 . S
C856 H867 0.948 . S
C857 N855 1.333 1_556 S
C857 C858 1.380 1_455 S
C857 H865 0.952 . S
C858 C857 1.380 1_655 S
C858 C859 1.390 . S
C858 H878 0.949 . S
C859 C858 1.390 . S
C859 C860 1.357 1_656 S
C860 C856 1.370 . S
C860 C859 1.357 1_454 S
C860 H879 0.950 . S
Zn861 N855 2.020 . S
Zn861 O864 2.025 . S
Zn861 O869 2.024 . S
Zn861 O871 2.039 1_554 S
Zn861 O873 2.034 1_455 S
O862 C846 1.251 . S
O862 Zn853 2.039 . S
C863 O868 1.246 . S
C863 O869 1.249 . S
O864 C846 1.254 . S
O864 Zn861 2.025 . S
H865 C857 0.952 . S
H866 C848 0.952 . S
H867 C856 0.948 . S
O868 Zn853 2.034 . S
O868 C863 1.246 . S
O869 Zn861 2.024 . S
O869 C863 1.249 . S
H870 C852 0.948 . S
O871 Zn861 2.039 1_556 S
O871 C875 1.251 . S
O872 Zn853 2.041 . S
O872 C875 1.243 1_554 S
O873 C854 1.246 . S
O873 Zn861 2.034 1_655 S
O874 Zn853 2.024 . S
O874 C854 1.249 1_455 S
C875 O871 1.251 . S
C875 O872 1.243 1_556 S
H876 C849 0.949 . S
H877 C851 0.950 . S
H878 C858 0.949 . S
H879 C860 0.950 . S
C880 C881 1.387 . S
C880 H884 0.950 . S
C880 C889 1.390 . S
C881 C880 1.387 . S
C881 C883 1.387 . S
H882 C889 0.950 . S
C883 C881 1.387 . S
C883 C885 1.390 . S
C883 H887 0.950 . S
H884 C880 0.950 . S
C885 C883 1.390 . S
C885 C886 1.387 . S
C885 H888 0.950 . S
C886 C885 1.387 . S
C886 C889 1.387 . S
H887 C883 0.950 . S
H888 C885 0.950 . S
C889 C880 1.390 . S
C889 H882 0.950 . S
C889 C886 1.387 . S
C890 C891 1.387 . S
C890 H894 0.950 . S
C890 C899 1.390 . S
C891 C890 1.387 . S
C891 C893 1.387 . S
H892 C899 0.950 . S
C893 C891 1.387 . S
C893 C895 1.390 . S
C893 H897 0.950 . S
H894 C890 0.950 . S
C895 C893 1.390 . S
C895 C896 1.387 . S
C895 H898 0.950 . S
C896 C895 1.387 . S
C896 C899 1.387 . S
H897 C893 0.950 . S
H898 C895 0.950 . S
C899 C890 1.390 . S
C899 H892 0.950 . S
C899 C896 1.387 . S
C900 C901 1.387 . S
C900 H904 0.950 . S
C900 C909 1.390 . S
C901 C900 1.387 . S
C901 C903 1.387 . S
H902 C909 0.950 . S
C903 C901 1.387 . S
C903 C905 1.390 . S
C903 H907 0.950 . S
H904 C900 0.950 . S
C905 C903 1.390 . S
C905 C906 1.387 . S
C905 H908 0.950 . S
C906 C905 1.387 . S
C906 C909 1.387 . S
H907 C903 0.950 . S
H908 C905 0.950 . S
C909 C900 1.390 . S
C909 H902 0.950 . S
C909 C906 1.387 . S
C910 C911 1.387 . S
C910 H914 0.950 . S
C910 C919 1.390 . S
C911 C910 1.387 . S
C911 C913 1.387 . S
H912 C919 0.950 . S
C913 C911 1.387 . S
C913 C915 1.390 . S
C913 H917 0.950 . S
H914 C910 0.950 . S
C915 C913 1.390 . S
C915 C916 1.387 . S
C915 H918 0.950 . S
C916 C915 1.387 . S
C916 C919 1.387 . S
H917 C913 0.950 . S
H918 C915 0.950 . S
C919 C910 1.390 . S
C919 H912 0.950 . S
C919 C916 1.387 . S
C920 C921 1.387 . S
C920 H924 0.950 . S
C920 C929 1.390 . S
C921 C920 1.387 . S
C921 C923 1.387 . S
H922 C929 0.950 . S
C923 C921 1.387 . S
C923 C925 1.390 . S
C923 H927 0.950 . S
H924 C920 0.950 . S
C925 C923 1.390 . S
C925 C926 1.387 . S
C925 H928 0.950 1_455 S
C926 C925 1.387 . S
C926 C929 1.387 . S
H927 C923 0.950 . S
H928 C925 0.950 1_655 S
C929 C920 1.390 . S
C929 H922 0.950 . S
C929 C926 1.387 . S
C930 C931 1.387 . S
C930 H934 0.950 . S
C930 C939 1.390 . S
C931 C930 1.387 . S
C931 C933 1.387 . S
H932 C939 0.950 . S
C933 C931 1.387 . S
C933 C935 1.390 . S
C933 H937 0.950 . S
H934 C930 0.950 . S
C935 C933 1.390 . S
C935 C936 1.387 . S
C935 H938 0.950 . S
C936 C935 1.387 . S
C936 C939 1.387 . S
H937 C933 0.950 . S
H938 C935 0.950 . S
C939 C930 1.390 . S
C939 H932 0.950 . S
C939 C936 1.387 . S
C940 C941 1.387 . S
C940 H944 0.950 . S
C940 C949 1.390 . S
C941 C940 1.387 . S
C941 C943 1.387 . S
H942 C949 0.950 . S
C943 C941 1.387 . S
C943 C945 1.390 . S
C943 H947 0.950 . S
H944 C940 0.950 . S
C945 C943 1.390 . S
C945 C946 1.387 . S
C945 H948 0.950 . S
C946 C945 1.387 . S
C946 C949 1.387 . S
H947 C943 0.950 . S
H948 C945 0.950 . S
C949 C940 1.390 . S
C949 H942 0.950 . S
C949 C946 1.387 . S
C950 C951 1.387 . S
C950 H954 0.950 . S
C950 C959 1.390 . S
C951 C950 1.387 . S
C951 C953 1.387 . S
H952 C959 0.950 . S
C953 C951 1.387 . S
C953 C955 1.390 . S
C953 H957 0.950 . S
H954 C950 0.950 . S
C955 C953 1.390 . S
C955 C956 1.387 . S
C955 H958 0.950 . S
C956 C955 1.387 . S
C956 C959 1.387 . S
H957 C953 0.950 . S
H958 C955 0.950 . S
C959 C950 1.390 . S
C959 H952 0.950 . S
C959 C956 1.387 . S
C960 C961 1.387 . S
C960 H964 0.950 . S
C960 C969 1.390 . S
C961 C960 1.387 . S
C961 C963 1.387 1_545 S
H962 C969 0.950 . S
C963 C961 1.387 1_565 S
C963 C965 1.390 . S
C963 H967 0.950 . S
H964 C960 0.950 . S
C965 C963 1.390 . S
C965 C966 1.387 . S
C965 H968 0.950 . S
C966 C965 1.387 . S
C966 C969 1.387 1_565 S
H967 C963 0.950 . S
H968 C965 0.950 . S
C969 C960 1.390 . S
C969 H962 0.950 . S
C969 C966 1.387 1_545 S
C970 C971 1.387 . S
C970 H974 0.950 . S
C970 C979 1.390 . S
C971 C970 1.387 . S
C971 C973 1.387 . S
H972 C979 0.950 . S
C973 C971 1.387 . S
C973 C975 1.390 . S
C973 H977 0.950 . S
H974 C970 0.950 . S
C975 C973 1.390 . S
C975 C976 1.387 . S
C975 H978 0.950 . S
C976 C975 1.387 . S
C976 C979 1.387 . S
H977 C973 0.950 . S
H978 C975 0.950 . S
C979 C970 1.390 . S
C979 H972 0.950 . S
C979 C976 1.387 . S
C980 C981 1.387 1_565 S
C980 H984 0.950 . S
C980 C989 1.390 . S
C981 C980 1.387 1_545 S
C981 C983 1.387 . S
H982 C989 0.950 . S
C983 C981 1.387 . S
C983 C985 1.390 . S
C983 H987 0.950 . S
H984 C980 0.950 . S
C985 C983 1.390 . S
C985 C986 1.387 . S
C985 H988 0.950 . S
C986 C985 1.387 . S
C986 C989 1.387 1_545 S
H987 C983 0.950 . S
H988 C985 0.950 . S
C989 C980 1.390 . S
C989 H982 0.950 . S
C989 C986 1.387 1_565 S
C990 C991 1.387 . S
C990 H994 0.950 . S
C990 C999 1.390 . S
C991 C990 1.387 . S
C991 C993 1.387 . S
H992 C999 0.950 . S
C993 C991 1.387 . S
C993 C995 1.390 . S
C993 H997 0.950 . S
H994 C990 0.950 . S
C995 C993 1.390 . S
C995 C996 1.387 . S
C995 H998 0.950 . S
C996 C995 1.387 . S
C996 C999 1.387 . S
H997 C993 0.950 . S
H998 C995 0.950 . S
C999 C990 1.390 . S
C999 H992 0.950 . S
C999 C996 1.387 . S
C1000 C1001 1.387 . S
C1000 H1004 0.950 . S
C1000 C1009 1.390 . S
C1001 C1000 1.387 . S
C1001 C1003 1.387 . S
H1002 C1009 0.950 . S
C1003 C1001 1.387 . S
C1003 C1005 1.390 . S
C1003 H1007 0.950 . S
H1004 C1000 0.950 . S
C1005 C1003 1.390 . S
C1005 C1006 1.387 . S
C1005 H1008 0.950 . S
C1006 C1005 1.387 . S
C1006 C1009 1.387 . S
H1007 C1003 0.950 . S
H1008 C1005 0.950 . S
C1009 C1000 1.390 . S
C1009 H1002 0.950 . S
C1009 C1006 1.387 . S
C1010 C1011 1.387 . S
C1010 H1014 0.950 . S
C1010 C1019 1.390 . S
C1011 C1010 1.387 . S
C1011 C1013 1.387 . S
H1012 C1019 0.950 . S
C1013 C1011 1.387 . S
C1013 C1015 1.390 . S
C1013 H1017 0.950 . S
H1014 C1010 0.950 . S
C1015 C1013 1.390 . S
C1015 C1016 1.387 . S
C1015 H1018 0.950 . S
C1016 C1015 1.387 . S
C1016 C1019 1.387 . S
H1017 C1013 0.950 . S
H1018 C1015 0.950 . S
C1019 C1010 1.390 . S
C1019 H1012 0.950 . S
C1019 C1016 1.387 . S
C1020 C1021 1.389 . S
C1020 H1024 0.955 . S
C1020 C1029 1.384 1_545 S
C1021 C1020 1.389 . S
C1021 C1023 1.387 1_545 S
H1022 C1029 0.950 . S
C1023 C1021 1.387 1_565 S
C1023 C1025 1.390 . S
C1023 H1027 0.950 . S
H1024 C1020 0.955 . S
C1025 C1023 1.390 . S
C1025 C1026 1.387 . S
C1025 H1028 0.950 . S
C1026 C1025 1.387 . S
C1026 C1029 1.387 . S
H1027 C1023 0.950 . S
H1028 C1025 0.950 . S
C1029 C1020 1.384 1_565 S
C1029 H1022 0.950 . S
C1029 C1026 1.387 . S
C1030 C1031 1.387 . S
C1030 H1034 0.950 . S
C1030 C1039 1.390 . S
C1031 C1030 1.387 . S
C1031 C1033 1.387 . S
H1032 C1039 0.950 . S
C1033 C1031 1.387 . S
C1033 C1035 1.390 . S
C1033 H1037 0.950 . S
H1034 C1030 0.950 . S
C1035 C1033 1.390 . S
C1035 C1036 1.387 . S
C1035 H1038 0.950 . S
C1036 C1035 1.387 . S
C1036 C1039 1.387 . S
H1037 C1033 0.950 . S
H1038 C1035 0.950 . S
C1039 C1030 1.390 . S
C1039 H1032 0.950 . S
C1039 C1036 1.387 . S
C1040 C1041 1.387 . S
C1040 H1044 0.950 . S
C1040 C1049 1.390 . S
C1041 C1040 1.387 . S
C1041 C1043 1.387 . S
H1042 C1049 0.950 . S
C1043 C1041 1.387 . S
C1043 C1045 1.390 1_554 S
C1043 H1047 0.950 1_554 S
H1044 C1040 0.950 . S
C1045 C1043 1.390 1_556 S
C1045 C1046 1.387 1_556 S
C1045 H1048 0.950 . S
C1046 C1045 1.387 1_554 S
C1046 C1049 1.387 . S
H1047 C1043 0.950 1_556 S
H1048 C1045 0.950 . S
C1049 C1040 1.390 . S
C1049 H1042 0.950 . S
C1049 C1046 1.387 . S
C1050 C1051 1.387 . S
C1050 H1054 0.950 . S
C1050 C1059 1.390 . S
C1051 C1050 1.387 . S
C1051 C1053 1.387 . S
H1052 C1059 0.950 . S
C1053 C1051 1.387 . S
C1053 C1055 1.390 . S
C1053 H1057 0.950 . S
H1054 C1050 0.950 . S
C1055 C1053 1.390 . S
C1055 C1056 1.387 . S
C1055 H1058 0.950 . S
C1056 C1055 1.387 . S
C1056 C1059 1.387 . S
H1057 C1053 0.950 . S
H1058 C1055 0.950 . S
C1059 C1050 1.390 . S
C1059 H1052 0.950 . S
C1059 C1056 1.387 . S
C1060 C1061 1.387 . S
C1060 H1064 0.950 . S
C1060 C1069 1.390 . S
C1061 C1060 1.387 . S
C1061 C1063 1.387 . S
H1062 C1069 0.950 . S
C1063 C1061 1.387 . S
C1063 C1065 1.390 . S
C1063 H1067 0.950 . S
H1064 C1060 0.950 . S
C1065 C1063 1.390 . S
C1065 C1066 1.387 . S
C1065 H1068 0.950 . S
C1066 C1065 1.387 . S
C1066 C1069 1.387 . S
H1067 C1063 0.950 . S
H1068 C1065 0.950 . S
C1069 C1060 1.390 . S
C1069 H1062 0.950 . S
C1069 C1066 1.387 . S
C1070 C1071 1.387 . S
C1070 H1074 0.950 . S
C1070 C1079 1.390 . S
C1071 C1070 1.387 . S
C1071 C1073 1.387 . S
H1072 C1079 0.950 . S
C1073 C1071 1.387 . S
C1073 C1075 1.390 . S
C1073 H1077 0.950 . S
H1074 C1070 0.950 . S
C1075 C1073 1.390 . S
C1075 C1076 1.387 . S
C1075 H1078 0.950 . S
C1076 C1075 1.387 . S
C1076 C1079 1.387 . S
H1077 C1073 0.950 . S
H1078 C1075 0.950 . S
C1079 C1070 1.390 . S
C1079 H1072 0.950 . S
C1079 C1076 1.387 . S
C1080 C1081 1.387 . S
C1080 H1084 0.950 . S
C1080 C1089 1.390 . S
C1081 C1080 1.387 . S
C1081 C1083 1.387 . S
H1082 C1089 0.950 . S
C1083 C1081 1.387 . S
C1083 C1085 1.390 . S
C1083 H1087 0.950 . S
H1084 C1080 0.950 . S
C1085 C1083 1.390 . S
C1085 C1086 1.387 . S
C1085 H1088 0.950 . S
C1086 C1085 1.387 . S
C1086 C1089 1.387 . S
H1087 C1083 0.950 . S
H1088 C1085 0.950 . S
C1089 C1080 1.390 . S
C1089 H1082 0.950 . S
C1089 C1086 1.387 . S
C1090 C1091 1.387 . S
C1090 H1094 0.950 . S
C1090 C1099 1.390 . S
C1091 C1090 1.387 . S
C1091 C1093 1.387 . S
H1092 C1099 0.950 . S
C1093 C1091 1.387 . S
C1093 C1095 1.390 . S
C1093 H1097 0.950 . S
H1094 C1090 0.950 . S
C1095 C1093 1.390 . S
C1095 C1096 1.387 . S
C1095 H1098 0.950 1_565 S
C1096 C1095 1.387 . S
C1096 C1099 1.387 . S
H1097 C1093 0.950 . S
H1098 C1095 0.950 1_545 S
C1099 C1090 1.390 . S
C1099 H1092 0.950 . S
C1099 C1096 1.387 . S
C1100 C1101 1.387 . S
C1100 H1104 0.950 . S
C1100 C1109 1.390 . S
C1101 C1100 1.387 . S
C1101 C1103 1.387 . S
H1102 C1109 0.950 . S
C1103 C1101 1.387 . S
C1103 C1105 1.390 . S
C1103 H1107 0.950 . S
H1104 C1100 0.950 . S
C1105 C1103 1.390 . S
C1105 C1106 1.387 . S
C1105 H1108 0.950 . S
C1106 C1105 1.387 . S
C1106 C1109 1.387 . S
H1107 C1103 0.950 . S
H1108 C1105 0.950 . S
C1109 C1100 1.390 . S
C1109 H1102 0.950 . S
C1109 C1106 1.387 . S
C1110 C1111 1.387 . S
C1110 H1114 0.950 . S
C1110 C1119 1.390 . S
C1111 C1110 1.387 . S
C1111 C1113 1.387 . S
H1112 C1119 0.950 . S
C1113 C1111 1.387 . S
C1113 C1115 1.390 . S
C1113 H1117 0.950 . S
H1114 C1110 0.950 . S
C1115 C1113 1.390 . S
C1115 C1116 1.387 . S
C1115 H1118 0.950 . S
C1116 C1115 1.387 . S
C1116 C1119 1.387 . S
H1117 C1113 0.950 . S
H1118 C1115 0.950 . S
C1119 C1110 1.390 . S
C1119 H1112 0.950 . S
C1119 C1116 1.387 . S
C1120 C1121 1.387 . S
C1120 H1124 0.950 . S
C1120 C1129 1.390 . S
C1121 C1120 1.387 . S
C1121 C1123 1.387 . S
H1122 C1129 0.950 1_554 S
C1123 C1121 1.387 . S
C1123 C1125 1.390 . S
C1123 H1127 0.950 . S
H1124 C1120 0.950 . S
C1125 C1123 1.390 . S
C1125 C1126 1.387 . S
C1125 H1128 0.950 . S
C1126 C1125 1.387 . S
C1126 C1129 1.387 . S
H1127 C1123 0.950 . S
H1128 C1125 0.950 . S
C1129 C1120 1.390 . S
C1129 H1122 0.950 1_556 S
C1129 C1126 1.387 . S
C1130 C1131 1.387 . S
C1130 H1134 0.950 . S
C1130 C1139 1.390 . S
C1131 C1130 1.387 . S
C1131 C1133 1.387 . S
H1132 C1139 0.950 . S
C1133 C1131 1.387 . S
C1133 C1135 1.390 . S
C1133 H1137 0.950 . S
H1134 C1130 0.950 . S
C1135 C1133 1.390 . S
C1135 C1136 1.387 . S
C1135 H1138 0.950 . S
C1136 C1135 1.387 . S
C1136 C1139 1.387 . S
H1137 C1133 0.950 . S
H1138 C1135 0.950 . S
C1139 C1130 1.390 . S
C1139 H1132 0.950 . S
C1139 C1136 1.387 . S
C1140 C1141 1.387 . S
C1140 H1144 0.950 . S
C1140 C1149 1.390 . S
C1141 C1140 1.387 . S
C1141 C1143 1.387 . S
H1142 C1149 0.950 . S
C1143 C1141 1.387 . S
C1143 C1145 1.390 . S
C1143 H1147 0.950 . S
H1144 C1140 0.950 . S
C1145 C1143 1.390 . S
C1145 C1146 1.387 . S
C1145 H1148 0.950 . S
C1146 C1145 1.387 . S
C1146 C1149 1.387 . S
H1147 C1143 0.950 . S
H1148 C1145 0.950 . S
C1149 C1140 1.390 . S
C1149 H1142 0.950 . S
C1149 C1146 1.387 . S
C1150 C1151 1.387 . S
C1150 H1154 0.950 . S
C1150 C1159 1.390 . S
C1151 C1150 1.387 . S
C1151 C1153 1.387 . S
H1152 C1159 0.950 . S
C1153 C1151 1.387 . S
C1153 C1155 1.390 . S
C1153 H1157 0.950 . S
H1154 C1150 0.950 . S
C1155 C1153 1.390 . S
C1155 C1156 1.387 . S
C1155 H1158 0.950 . S
C1156 C1155 1.387 . S
C1156 C1159 1.387 . S
H1157 C1153 0.950 . S
H1158 C1155 0.950 . S
C1159 C1150 1.390 . S
C1159 H1152 0.950 . S
C1159 C1156 1.387 . S
C1160 C1161 1.387 . S
C1160 H1164 0.950 1_455 S
C1160 C1169 1.390 . S
C1161 C1160 1.387 . S
C1161 C1163 1.387 . S
H1162 C1169 0.950 . S
C1163 C1161 1.387 . S
C1163 C1165 1.390 . S
C1163 H1167 0.950 . S
H1164 C1160 0.950 1_655 S
C1165 C1163 1.390 . S
C1165 C1166 1.387 . S
C1165 H1168 0.950 . S
C1166 C1165 1.387 . S
C1166 C1169 1.387 . S
H1167 C1163 0.950 . S
H1168 C1165 0.950 . S
C1169 C1160 1.390 . S
C1169 H1162 0.950 . S
C1169 C1166 1.387 . S
C1170 C1171 1.387 . S
C1170 H1174 0.950 . S
C1170 C1179 1.390 . S
C1171 C1170 1.387 . S
C1171 C1173 1.387 . S
H1172 C1179 0.950 . S
C1173 C1171 1.387 . S
C1173 C1175 1.390 . S
C1173 H1177 0.950 . S
H1174 C1170 0.950 . S
C1175 C1173 1.390 . S
C1175 C1176 1.387 . S
C1175 H1178 0.950 . S
C1176 C1175 1.387 . S
C1176 C1179 1.387 . S
H1177 C1173 0.950 . S
H1178 C1175 0.950 . S
C1179 C1170 1.390 . S
C1179 H1172 0.950 . S
C1179 C1176 1.387 . S
C1180 C1181 1.387 . S
C1180 H1184 0.950 . S
C1180 C1189 1.390 . S
C1181 C1180 1.387 . S
C1181 C1183 1.387 . S
H1182 C1189 0.950 . S
C1183 C1181 1.387 . S
C1183 C1185 1.390 . S
C1183 H1187 0.950 . S
H1184 C1180 0.950 . S
C1185 C1183 1.390 . S
C1185 C1186 1.387 . S
C1185 H1188 0.950 . S
C1186 C1185 1.387 . S
C1186 C1189 1.387 . S
H1187 C1183 0.950 . S
H1188 C1185 0.950 . S
C1189 C1180 1.390 . S
C1189 H1182 0.950 . S
C1189 C1186 1.387 . S
C1190 C1191 1.387 . S
C1190 H1194 0.950 . S
C1190 C1199 1.390 . S
C1191 C1190 1.387 . S
C1191 C1193 1.387 . S
H1192 C1199 0.950 . S
C1193 C1191 1.387 . S
C1193 C1195 1.390 . S
C1193 H1197 0.950 . S
H1194 C1190 0.950 . S
C1195 C1193 1.390 . S
C1195 C1196 1.387 . S
C1195 H1198 0.950 . S
C1196 C1195 1.387 . S
C1196 C1199 1.387 . S
H1197 C1193 0.950 . S
H1198 C1195 0.950 . S
C1199 C1190 1.390 . S
C1199 H1192 0.950 . S
C1199 C1196 1.387 . S
C1200 C1201 1.387 1_565 S
C1200 H1204 0.950 . S
C1200 C1209 1.395 . S
C1201 C1200 1.387 1_545 S
C1201 C1203 1.387 . S
H1202 C1209 0.962 . S
C1203 C1201 1.387 . S
C1203 C1205 1.390 . S
C1203 H1207 0.950 . S
H1204 C1200 0.950 . S
C1205 C1203 1.390 . S
C1205 C1206 1.387 1_655 S
C1205 H1208 0.950 1_655 S
C1206 C1205 1.387 1_455 S
C1206 C1209 1.370 1_445 S
H1207 C1203 0.950 . S
H1208 C1205 0.950 1_455 S
C1209 C1200 1.395 . S
C1209 H1202 0.962 . S
C1209 C1206 1.370 1_665 S
C1210 C1211 1.387 . S
C1210 H1214 0.950 . S
C1210 C1219 1.390 . S
C1211 C1210 1.387 . S
C1211 C1213 1.387 . S
H1212 C1219 0.950 . S
C1213 C1211 1.387 . S
C1213 C1215 1.390 . S
C1213 H1217 0.950 . S
H1214 C1210 0.950 . S
C1215 C1213 1.390 . S
C1215 C1216 1.387 . S
C1215 H1218 0.950 . S
C1216 C1215 1.387 . S
C1216 C1219 1.387 . S
H1217 C1213 0.950 . S
H1218 C1215 0.950 . S
C1219 C1210 1.390 . S
C1219 H1212 0.950 . S
C1219 C1216 1.387 . S
C1220 C1221 1.387 . S
C1220 H1224 0.950 . S
C1220 C1229 1.390 . S
C1221 C1220 1.387 . S
C1221 C1223 1.387 1_545 S
H1222 C1229 0.950 . S
C1223 C1221 1.387 1_565 S
C1223 C1225 1.390 . S
C1223 H1227 0.950 . S
H1224 C1220 0.950 . S
C1225 C1223 1.390 . S
C1225 C1226 1.387 1_565 S
C1225 H1228 0.950 . S
C1226 C1225 1.387 1_545 S
C1226 C1229 1.387 . S
H1227 C1223 0.950 . S
H1228 C1225 0.950 . S
C1229 C1220 1.390 . S
C1229 H1222 0.950 . S
C1229 C1226 1.387 . S
C1230 C1231 1.387 . S
C1230 H1234 0.950 . S
C1230 C1239 1.390 . S
C1231 C1230 1.387 . S
C1231 C1233 1.387 . S
H1232 C1239 0.950 . S
C1233 C1231 1.387 . S
C1233 C1235 1.390 . S
C1233 H1237 0.950 . S
H1234 C1230 0.950 . S
C1235 C1233 1.390 . S
C1235 C1236 1.387 . S
C1235 H1238 0.950 . S
C1236 C1235 1.387 . S
C1236 C1239 1.387 . S
H1237 C1233 0.950 . S
H1238 C1235 0.950 . S
C1239 C1230 1.390 . S
C1239 H1232 0.950 . S
C1239 C1236 1.387 . S
C1240 C1241 1.394 . S
C1240 H1244 0.950 . S
C1240 C1249 1.390 . S
C1241 C1240 1.394 . S
C1241 C1243 1.383 1_565 S
H1242 C1249 0.950 . S
C1243 C1241 1.383 1_545 S
C1243 C1245 1.390 . S
C1243 H1247 0.950 . S
H1244 C1240 0.950 . S
C1245 C1243 1.390 . S
C1245 C1246 1.387 1_545 S
C1245 H1248 0.950 . S
C1246 C1245 1.387 1_565 S
C1246 C1249 1.387 . S
H1247 C1243 0.950 . S
H1248 C1245 0.950 . S
C1249 C1240 1.390 . S
C1249 H1242 0.950 . S
C1249 C1246 1.387 . S
C1250 C1251 1.387 . S
C1250 H1254 0.950 . S
C1250 C1259 1.390 . S
C1251 C1250 1.387 . S
C1251 C1253 1.387 . S
H1252 C1259 0.950 . S
C1253 C1251 1.387 . S
C1253 C1255 1.390 . S
C1253 H1257 0.950 . S
H1254 C1250 0.950 . S
C1255 C1253 1.390 . S
C1255 C1256 1.387 . S
C1255 H1258 0.950 . S
C1256 C1255 1.387 . S
C1256 C1259 1.387 . S
H1257 C1253 0.950 . S
H1258 C1255 0.950 . S
C1259 C1250 1.390 . S
C1259 H1252 0.950 . S
C1259 C1256 1.387 . S
C1260 C1261 1.387 . S
C1260 H1264 0.950 . S
C1260 C1269 1.390 . S
C1261 C1260 1.387 . S
C1261 C1263 1.387 . S
H1262 C1269 0.950 . S
C1263 C1261 1.387 . S
C1263 C1265 1.390 . S
C1263 H1267 0.950 1_545 S
H1264 C1260 0.950 . S
C1265 C1263 1.390 . S
C1265 C1266 1.387 . S
C1265 H1268 0.950 . S
C1266 C1265 1.387 . S
C1266 C1269 1.387 . S
H1267 C1263 0.950 1_565 S
H1268 C1265 0.950 . S
C1269 C1260 1.390 . S
C1269 H1262 0.950 . S
C1269 C1266 1.387 . S
C1270 C1271 1.387 . S
C1270 H1274 0.950 . S
C1270 C1279 1.390 . S
C1271 C1270 1.387 . S
C1271 C1273 1.387 . S
H1272 C1279 0.950 . S
C1273 C1271 1.387 . S
C1273 C1275 1.390 . S
C1273 H1277 0.950 . S
H1274 C1270 0.950 . S
C1275 C1273 1.390 . S
C1275 C1276 1.387 . S
C1275 H1278 0.950 . S
C1276 C1275 1.387 . S
C1276 C1279 1.387 . S
H1277 C1273 0.950 . S
H1278 C1275 0.950 . S
C1279 C1270 1.390 . S
C1279 H1272 0.950 . S
C1279 C1276 1.387 . S
C1280 C1281 1.387 . S
C1280 H1284 0.950 . S
C1280 C1289 1.390 . S
C1281 C1280 1.387 . S
C1281 C1283 1.387 . S
H1282 C1289 0.950 1_545 S
C1283 C1281 1.387 . S
C1283 C1285 1.390 . S
C1283 H1287 0.950 . S
H1284 C1280 0.950 . S
C1285 C1283 1.390 . S
C1285 C1286 1.387 . S
C1285 H1288 0.950 . S
C1286 C1285 1.387 . S
C1286 C1289 1.387 . S
H1287 C1283 0.950 . S
H1288 C1285 0.950 . S
C1289 C1280 1.390 . S
C1289 H1282 0.950 1_565 S
C1289 C1286 1.387 . S
C1290 C1291 1.387 . S
C1290 H1294 0.950 . S
C1290 C1299 1.390 . S
C1291 C1290 1.387 . S
C1291 C1293 1.387 1_554 S
H1292 C1299 0.950 . S
C1293 C1291 1.387 1_556 S
C1293 C1295 1.390 . S
C1293 H1297 0.950 . S
H1294 C1290 0.950 . S
C1295 C1293 1.390 . S
C1295 C1296 1.387 1_556 S
C1295 H1298 0.950 . S
C1296 C1295 1.387 1_554 S
C1296 C1299 1.387 . S
H1297 C1293 0.950 . S
H1298 C1295 0.950 . S
C1299 C1290 1.390 . S
C1299 H1292 0.950 . S
C1299 C1296 1.387 . S
C1300 C1301 1.387 . S
C1300 H1304 0.950 . S
C1300 C1309 1.390 . S
C1301 C1300 1.387 . S
C1301 C1303 1.387 . S
H1302 C1309 0.950 . S
C1303 C1301 1.387 . S
C1303 C1305 1.390 . S
C1303 H1307 0.950 . S
H1304 C1300 0.950 . S
C1305 C1303 1.390 . S
C1305 C1306 1.387 . S
C1305 H1308 0.950 . S
C1306 C1305 1.387 . S
C1306 C1309 1.387 . S
H1307 C1303 0.950 . S
H1308 C1305 0.950 . S
C1309 C1300 1.390 . S
C1309 H1302 0.950 . S
C1309 C1306 1.387 . S
C1310 C1311 1.387 . S
C1310 H1314 0.950 . S
C1310 C1319 1.390 . S
C1311 C1310 1.387 . S
C1311 C1313 1.387 . S
H1312 C1319 0.950 . S
C1313 C1311 1.387 . S
C1313 C1315 1.390 . S
C1313 H1317 0.950 . S
H1314 C1310 0.950 . S
C1315 C1313 1.390 . S
C1315 C1316 1.387 . S
C1315 H1318 0.950 . S
C1316 C1315 1.387 . S
C1316 C1319 1.387 . S
H1317 C1313 0.950 . S
H1318 C1315 0.950 . S
C1319 C1310 1.390 . S
C1319 H1312 0.950 . S
C1319 C1316 1.387 . S
C1320 C1321 1.387 . S
C1320 H1324 0.950 . S
C1320 C1329 1.390 . S
C1321 C1320 1.387 . S
C1321 C1323 1.387 . S
H1322 C1329 0.950 . S
C1323 C1321 1.387 . S
C1323 C1325 1.390 . S
C1323 H1327 0.950 . S
H1324 C1320 0.950 . S
C1325 C1323 1.390 . S
C1325 C1326 1.387 . S
C1325 H1328 0.950 . S
C1326 C1325 1.387 . S
C1326 C1329 1.387 . S
H1327 C1323 0.950 . S
H1328 C1325 0.950 . S
C1329 C1320 1.390 . S
C1329 H1322 0.950 . S
C1329 C1326 1.387 . S
C1330 C1331 1.387 . S
C1330 H1334 0.950 . S
C1330 C1339 1.390 . S
C1331 C1330 1.387 . S
C1331 C1333 1.387 . S
H1332 C1339 0.950 . S
C1333 C1331 1.387 . S
C1333 C1335 1.390 . S
C1333 H1337 0.950 . S
H1334 C1330 0.950 . S
C1335 C1333 1.390 . S
C1335 C1336 1.387 . S
C1335 H1338 0.950 . S
C1336 C1335 1.387 . S
C1336 C1339 1.387 . S
H1337 C1333 0.950 . S
H1338 C1335 0.950 . S
C1339 C1330 1.390 . S
C1339 H1332 0.950 . S
C1339 C1336 1.387 . S
C1340 C1341 1.387 . S
C1340 H1344 0.950 . S
C1340 C1349 1.390 . S
C1341 C1340 1.387 . S
C1341 C1343 1.387 . S
H1342 C1349 0.950 . S
C1343 C1341 1.387 . S
C1343 C1345 1.390 . S
C1343 H1347 0.950 . S
H1344 C1340 0.950 . S
C1345 C1343 1.390 . S
C1345 C1346 1.387 . S
C1345 H1348 0.950 . S
C1346 C1345 1.387 . S
C1346 C1349 1.387 . S
H1347 C1343 0.950 . S
H1348 C1345 0.950 . S
C1349 C1340 1.390 . S
C1349 H1342 0.950 . S
C1349 C1346 1.387 . S
C1350 C1351 1.387 . S
C1350 H1354 0.950 . S
C1350 C1359 1.390 . S
C1351 C1350 1.387 . S
C1351 C1353 1.387 . S
H1352 C1359 0.950 . S
C1353 C1351 1.387 . S
C1353 C1355 1.390 . S
C1353 H1357 0.950 . S
H1354 C1350 0.950 . S
C1355 C1353 1.390 . S
C1355 C1356 1.387 . S
C1355 H1358 0.950 . S
C1356 C1355 1.387 . S
C1356 C1359 1.387 . S
H1357 C1353 0.950 . S
H1358 C1355 0.950 . S
C1359 C1350 1.390 . S
C1359 H1352 0.950 . S
C1359 C1356 1.387 . S
C1360 C1361 1.387 . S
C1360 H1364 0.950 . S
C1360 C1369 1.390 . S
C1361 C1360 1.387 . S
C1361 C1363 1.387 . S
H1362 C1369 0.950 . S
C1363 C1361 1.387 . S
C1363 C1365 1.390 . S
C1363 H1367 0.950 . S
H1364 C1360 0.950 . S
C1365 C1363 1.390 . S
C1365 C1366 1.387 . S
C1365 H1368 0.950 . S
C1366 C1365 1.387 . S
C1366 C1369 1.387 . S
H1367 C1363 0.950 . S
H1368 C1365 0.950 . S
C1369 C1360 1.390 . S
C1369 H1362 0.950 . S
C1369 C1366 1.387 . S
C1370 C1371 1.387 . S
C1370 H1374 0.950 . S
C1370 C1379 1.390 . S
C1371 C1370 1.387 . S
C1371 C1373 1.387 . S
H1372 C1379 0.950 . S
C1373 C1371 1.387 . S
C1373 C1375 1.390 . S
C1373 H1377 0.950 . S
H1374 C1370 0.950 . S
C1375 C1373 1.390 . S
C1375 C1376 1.387 . S
C1375 H1378 0.950 . S
C1376 C1375 1.387 . S
C1376 C1379 1.387 . S
H1377 C1373 0.950 . S
H1378 C1375 0.950 . S
C1379 C1370 1.390 . S
C1379 H1372 0.950 . S
C1379 C1376 1.387 . S
C1380 C1381 1.387 . S
C1380 H1384 0.950 . S
C1380 C1389 1.390 . S
C1381 C1380 1.387 . S
C1381 C1383 1.387 . S
H1382 C1389 0.950 . S
C1383 C1381 1.387 . S
C1383 C1385 1.390 . S
C1383 H1387 0.950 . S
H1384 C1380 0.950 . S
C1385 C1383 1.390 . S
C1385 C1386 1.387 . S
C1385 H1388 0.950 . S
C1386 C1385 1.387 . S
C1386 C1389 1.387 . S
H1387 C1383 0.950 . S
H1388 C1385 0.950 . S
C1389 C1380 1.390 . S
C1389 H1382 0.950 . S
C1389 C1386 1.387 . S
C1390 C1391 1.387 . S
C1390 H1394 0.950 . S
C1390 C1399 1.390 . S
C1391 C1390 1.387 . S
C1391 C1393 1.387 . S
H1392 C1399 0.950 . S
C1393 C1391 1.387 . S
C1393 C1395 1.390 . S
C1393 H1397 0.950 . S
H1394 C1390 0.950 . S
C1395 C1393 1.390 . S
C1395 C1396 1.387 . S
C1395 H1398 0.950 . S
C1396 C1395 1.387 . S
C1396 C1399 1.387 . S
H1397 C1393 0.950 . S
H1398 C1395 0.950 . S
C1399 C1390 1.390 . S
C1399 H1392 0.950 . S
C1399 C1396 1.387 . S
C1400 C1401 1.387 . S
C1400 H1404 0.950 . S
C1400 C1409 1.390 . S
C1401 C1400 1.387 . S
C1401 C1403 1.387 . S
H1402 C1409 0.950 . S
C1403 C1401 1.387 . S
C1403 C1405 1.390 1_556 S
C1403 H1407 0.950 . S
H1404 C1400 0.950 . S
C1405 C1403 1.390 1_554 S
C1405 C1406 1.387 1_554 S
C1405 H1408 0.950 . S
C1406 C1405 1.387 1_556 S
C1406 C1409 1.387 . S
H1407 C1403 0.950 . S
H1408 C1405 0.950 . S
C1409 C1400 1.390 . S
C1409 H1402 0.950 . S
C1409 C1406 1.387 . S
C1410 C1411 1.387 1_655 S
C1410 H1414 0.950 1_655 S
C1410 C1419 1.390 . S
C1411 C1410 1.387 1_455 S
C1411 C1413 1.387 1_455 S
H1412 C1419 0.950 . S
C1413 C1411 1.387 1_655 S
C1413 C1415 1.390 . S
C1413 H1417 0.950 1_655 S
H1414 C1410 0.950 1_455 S
C1415 C1413 1.390 . S
C1415 C1416 1.387 . S
C1415 H1418 0.950 . S
C1416 C1415 1.387 . S
C1416 C1419 1.387 . S
H1417 C1413 0.950 1_455 S
H1418 C1415 0.950 . S
C1419 C1410 1.390 . S
C1419 H1412 0.950 . S
C1419 C1416 1.387 . S
C1420 C1421 1.387 . S
C1420 H1424 0.950 . S
C1420 C1429 1.390 . S
C1421 C1420 1.387 . S
C1421 C1423 1.387 . S
H1422 C1429 0.950 . S
C1423 C1421 1.387 . S
C1423 C1425 1.390 . S
C1423 H1427 0.950 . S
H1424 C1420 0.950 . S
C1425 C1423 1.390 . S
C1425 C1426 1.387 . S
C1425 H1428 0.950 . S
C1426 C1425 1.387 . S
C1426 C1429 1.387 . S
H1427 C1423 0.950 . S
H1428 C1425 0.950 . S
C1429 C1420 1.390 . S
C1429 H1422 0.950 . S
C1429 C1426 1.387 . S
C1430 C1431 1.387 . S
C1430 H1434 0.950 . S
C1430 C1439 1.390 . S
C1431 C1430 1.387 . S
C1431 C1433 1.387 . S
H1432 C1439 0.950 . S
C1433 C1431 1.387 . S
C1433 C1435 1.390 . S
C1433 H1437 0.950 . S
H1434 C1430 0.950 . S
C1435 C1433 1.390 . S
C1435 C1436 1.387 . S
C1435 H1438 0.950 . S
C1436 C1435 1.387 . S
C1436 C1439 1.387 . S
H1437 C1433 0.950 . S
H1438 C1435 0.950 . S
C1439 C1430 1.390 . S
C1439 H1432 0.950 . S
C1439 C1436 1.387 . S
C1440 C1441 1.387 . S
C1440 H1444 0.950 . S
C1440 C1449 1.390 . S
C1441 C1440 1.387 . S
C1441 C1443 1.387 . S
H1442 C1449 0.950 . S
C1443 C1441 1.387 . S
C1443 C1445 1.390 . S
C1443 H1447 0.950 . S
H1444 C1440 0.950 . S
C1445 C1443 1.390 . S
C1445 C1446 1.387 . S
C1445 H1448 0.950 . S
C1446 C1445 1.387 . S
C1446 C1449 1.387 . S
H1447 C1443 0.950 . S
H1448 C1445 0.950 . S
C1449 C1440 1.390 . S
C1449 H1442 0.950 . S
C1449 C1446 1.387 . S
C1450 C1451 1.387 . S
C1450 H1454 0.950 1_556 S
C1450 C1459 1.390 . S
C1451 C1450 1.387 . S
C1451 C1453 1.387 . S
H1452 C1459 0.950 . S
C1453 C1451 1.387 . S
C1453 C1455 1.390 . S
C1453 H1457 0.950 . S
H1454 C1450 0.950 1_554 S
C1455 C1453 1.390 . S
C1455 C1456 1.387 . S
C1455 H1458 0.950 . S
C1456 C1455 1.387 . S
C1456 C1459 1.387 . S
H1457 C1453 0.950 . S
H1458 C1455 0.950 . S
C1459 C1450 1.390 . S
C1459 H1452 0.950 . S
C1459 C1456 1.387 . S
C1460 C1461 1.387 . S
C1460 H1464 0.950 . S
C1460 C1469 1.390 . S
C1461 C1460 1.387 . S
C1461 C1463 1.387 . S
H1462 C1469 0.950 . S
C1463 C1461 1.387 . S
C1463 C1465 1.390 . S
C1463 H1467 0.950 . S
H1464 C1460 0.950 . S
C1465 C1463 1.390 . S
C1465 C1466 1.389 1_655 S
C1465 H1468 0.950 . S
C1466 C1465 1.389 1_455 S
C1466 C1469 1.388 1_455 S
H1467 C1463 0.950 . S
H1468 C1465 0.950 . S
C1469 C1460 1.390 . S
C1469 H1462 0.950 . S
C1469 C1466 1.388 1_655 S
C1470 C1471 1.387 . S
C1470 H1474 0.950 . S
C1470 C1479 1.390 . S
C1471 C1470 1.387 . S
C1471 C1473 1.387 . S
H1472 C1479 0.950 . S
C1473 C1471 1.387 . S
C1473 C1475 1.390 . S
C1473 H1477 0.950 . S
H1474 C1470 0.950 . S
C1475 C1473 1.390 . S
C1475 C1476 1.387 . S
C1475 H1478 0.950 . S
C1476 C1475 1.387 . S
C1476 C1479 1.387 . S
H1477 C1473 0.950 . S
H1478 C1475 0.950 . S
C1479 C1470 1.390 . S
C1479 H1472 0.950 . S
C1479 C1476 1.387 . S
C1480 C1481 1.387 . S
C1480 H1484 0.950 . S
C1480 C1489 1.390 . S
C1481 C1480 1.387 . S
C1481 C1483 1.387 . S
H1482 C1489 0.950 . S
C1483 C1481 1.387 . S
C1483 C1485 1.390 . S
C1483 H1487 0.950 . S
H1484 C1480 0.950 . S
C1485 C1483 1.390 . S
C1485 C1486 1.387 . S
C1485 H1488 0.950 . S
C1486 C1485 1.387 . S
C1486 C1489 1.387 . S
H1487 C1483 0.950 . S
H1488 C1485 0.950 . S
C1489 C1480 1.390 . S
C1489 H1482 0.950 . S
C1489 C1486 1.387 . S
C1490 C1491 1.387 . S
C1490 H1494 0.950 . S
C1490 C1499 1.390 . S
C1491 C1490 1.387 . S
C1491 C1493 1.387 . S
H1492 C1499 0.950 . S
C1493 C1491 1.387 . S
C1493 C1495 1.390 . S
C1493 H1497 0.950 . S
H1494 C1490 0.950 . S
C1495 C1493 1.390 . S
C1495 C1496 1.387 . S
C1495 H1498 0.950 . S
C1496 C1495 1.387 . S
C1496 C1499 1.387 . S
H1497 C1493 0.950 . S
H1498 C1495 0.950 . S
C1499 C1490 1.390 . S
C1499 H1492 0.950 . S
C1499 C1496 1.387 . S
C1500 C1501 1.387 . S
C1500 H1504 0.950 . S
C1500 C1509 1.390 . S
C1501 C1500 1.387 . S
C1501 C1503 1.387 . S
H1502 C1509 0.950 . S
C1503 C1501 1.387 . S
C1503 C1505 1.390 . S
C1503 H1507 0.950 . S
H1504 C1500 0.950 . S
C1505 C1503 1.390 . S
C1505 C1506 1.387 . S
C1505 H1508 0.950 . S
C1506 C1505 1.387 . S
C1506 C1509 1.387 . S
H1507 C1503 0.950 . S
H1508 C1505 0.950 . S
C1509 C1500 1.390 . S
C1509 H1502 0.950 . S
C1509 C1506 1.387 . S
C1510 C1511 1.387 . S
C1510 H1514 0.950 . S
C1510 C1519 1.390 . S
C1511 C1510 1.387 . S
C1511 C1513 1.387 . S
H1512 C1519 0.950 . S
C1513 C1511 1.387 . S
C1513 C1515 1.390 . S
C1513 H1517 0.950 . S
H1514 C1510 0.950 . S
C1515 C1513 1.390 . S
C1515 C1516 1.387 . S
C1515 H1518 0.950 . S
C1516 C1515 1.387 . S
C1516 C1519 1.387 . S
H1517 C1513 0.950 . S
H1518 C1515 0.950 . S
C1519 C1510 1.390 . S
C1519 H1512 0.950 . S
C1519 C1516 1.387 . S
C1520 C1521 1.387 . S
C1520 H1524 0.950 . S
C1520 C1529 1.390 . S
C1521 C1520 1.387 . S
C1521 C1523 1.387 . S
H1522 C1529 0.950 . S
C1523 C1521 1.387 . S
C1523 C1525 1.390 . S
C1523 H1527 0.950 . S
H1524 C1520 0.950 . S
C1525 C1523 1.390 . S
C1525 C1526 1.387 . S
C1525 H1528 0.950 . S
C1526 C1525 1.387 . S
C1526 C1529 1.387 . S
H1527 C1523 0.950 . S
H1528 C1525 0.950 . S
C1529 C1520 1.390 . S
C1529 H1522 0.950 . S
C1529 C1526 1.387 . S
C1530 C1531 1.387 . S
C1530 H1534 0.950 . S
C1530 C1539 1.390 . S
C1531 C1530 1.387 . S
C1531 C1533 1.387 . S
H1532 C1539 0.950 . S
C1533 C1531 1.387 . S
C1533 C1535 1.390 . S
C1533 H1537 0.950 . S
H1534 C1530 0.950 . S
C1535 C1533 1.390 . S
C1535 C1536 1.387 . S
C1535 H1538 0.950 . S
C1536 C1535 1.387 . S
C1536 C1539 1.387 . S
H1537 C1533 0.950 . S
H1538 C1535 0.950 . S
C1539 C1530 1.390 . S
C1539 H1532 0.950 . S
C1539 C1536 1.387 . S
C1540 C1541 1.387 . S
C1540 H1544 0.950 . S
C1540 C1549 1.390 . S
C1541 C1540 1.387 . S
C1541 C1543 1.387 . S
H1542 C1549 0.950 . S
C1543 C1541 1.387 . S
C1543 C1545 1.390 . S
C1543 H1547 0.950 . S
H1544 C1540 0.950 . S
C1545 C1543 1.390 . S
C1545 C1546 1.387 . S
C1545 H1548 0.950 . S
C1546 C1545 1.387 . S
C1546 C1549 1.387 . S
H1547 C1543 0.950 . S
H1548 C1545 0.950 . S
C1549 C1540 1.390 . S
C1549 H1542 0.950 . S
C1549 C1546 1.387 . S
C1550 C1551 1.387 . S
C1550 H1554 0.950 1_554 S
C1550 C1559 1.390 . S
C1551 C1550 1.387 . S
C1551 C1553 1.387 . S
H1552 C1559 0.950 . S
C1553 C1551 1.387 . S
C1553 C1555 1.390 . S
C1553 H1557 0.950 . S
H1554 C1550 0.950 1_556 S
C1555 C1553 1.390 . S
C1555 C1556 1.387 . S
C1555 H1558 0.950 . S
C1556 C1555 1.387 . S
C1556 C1559 1.387 . S
H1557 C1553 0.950 . S
H1558 C1555 0.950 . S
C1559 C1550 1.390 . S
C1559 H1552 0.950 . S
C1559 C1556 1.387 . S
C1560 C1561 1.387 . S
C1560 H1564 0.950 . S
C1560 C1569 1.390 . S
C1561 C1560 1.387 . S
C1561 C1563 1.387 . S
H1562 C1569 0.950 . S
C1563 C1561 1.387 . S
C1563 C1565 1.390 . S
C1563 H1567 0.950 . S
H1564 C1560 0.950 . S
C1565 C1563 1.390 . S
C1565 C1566 1.387 . S
C1565 H1568 0.950 . S
C1566 C1565 1.387 . S
C1566 C1569 1.387 . S
H1567 C1563 0.950 . S
H1568 C1565 0.950 . S
C1569 C1560 1.390 . S
C1569 H1562 0.950 . S
C1569 C1566 1.387 . S
C1570 C1571 1.387 . S
C1570 H1574 0.950 . S
C1570 C1579 1.390 . S
C1571 C1570 1.387 . S
C1571 C1573 1.387 . S
H1572 C1579 0.950 . S
C1573 C1571 1.387 . S
C1573 C1575 1.390 . S
C1573 H1577 0.950 . S
H1574 C1570 0.950 . S
C1575 C1573 1.390 . S
C1575 C1576 1.387 . S
C1575 H1578 0.950 . S
C1576 C1575 1.387 . S
C1576 C1579 1.387 . S
H1577 C1573 0.950 . S
H1578 C1575 0.950 . S
C1579 C1570 1.390 . S
C1579 H1572 0.950 . S
C1579 C1576 1.387 . S
C1580 C1581 1.387 . S
C1580 H1584 0.950 . S
C1580 C1589 1.390 . S
C1581 C1580 1.387 . S
C1581 C1583 1.387 . S
H1582 C1589 0.950 . S
C1583 C1581 1.387 . S
C1583 C1585 1.390 . S
C1583 H1587 0.950 . S
H1584 C1580 0.950 . S
C1585 C1583 1.390 . S
C1585 C1586 1.387 . S
C1585 H1588 0.950 . S
C1586 C1585 1.387 . S
C1586 C1589 1.387 . S
H1587 C1583 0.950 . S
H1588 C1585 0.950 . S
C1589 C1580 1.390 . S
C1589 H1582 0.950 . S
C1589 C1586 1.387 . S
C1590 C1591 1.387 . S
C1590 H1594 0.950 . S
C1590 C1599 1.390 . S
C1591 C1590 1.387 . S
C1591 C1593 1.387 . S
H1592 C1599 0.950 . S
C1593 C1591 1.387 . S
C1593 C1595 1.390 . S
C1593 H1597 0.950 . S
H1594 C1590 0.950 . S
C1595 C1593 1.390 . S
C1595 C1596 1.387 . S
C1595 H1598 0.950 . S
C1596 C1595 1.387 . S
C1596 C1599 1.387 . S
H1597 C1593 0.950 . S
H1598 C1595 0.950 . S
C1599 C1590 1.390 . S
C1599 H1592 0.950 . S
C1599 C1596 1.387 . S
C1600 C1601 1.387 . S
C1600 H1604 0.950 . S
C1600 C1609 1.390 . S
C1601 C1600 1.387 . S
C1601 C1603 1.387 . S
H1602 C1609 0.950 . S
C1603 C1601 1.387 . S
C1603 C1605 1.390 . S
C1603 H1607 0.950 . S
H1604 C1600 0.950 . S
C1605 C1603 1.390 . S
C1605 C1606 1.387 . S
C1605 H1608 0.950 . S
C1606 C1605 1.387 . S
C1606 C1609 1.387 . S
H1607 C1603 0.950 . S
H1608 C1605 0.950 . S
C1609 C1600 1.390 . S
C1609 H1602 0.950 . S
C1609 C1606 1.387 . S
C1610 C1611 1.387 . S
C1610 H1614 0.950 . S
C1610 C1619 1.390 . S
C1611 C1610 1.387 . S
C1611 C1613 1.387 . S
H1612 C1619 0.950 . S
C1613 C1611 1.387 . S
C1613 C1615 1.390 . S
C1613 H1617 0.950 . S
H1614 C1610 0.950 . S
C1615 C1613 1.390 . S
C1615 C1616 1.387 . S
C1615 H1618 0.950 . S
C1616 C1615 1.387 . S
C1616 C1619 1.387 . S
H1617 C1613 0.950 . S
H1618 C1615 0.950 . S
C1619 C1610 1.390 . S
C1619 H1612 0.950 . S
C1619 C1616 1.387 . S
C1620 C1621 1.387 1_655 S
C1620 H1624 0.950 . S
C1620 C1629 1.390 . S
C1621 C1620 1.387 1_455 S
C1621 C1623 1.387 . S
H1622 C1629 0.950 . S
C1623 C1621 1.387 . S
C1623 C1625 1.390 . S
C1623 H1627 0.950 . S
H1624 C1620 0.950 . S
C1625 C1623 1.390 . S
C1625 C1626 1.387 1_455 S
C1625 H1628 0.972 . S
C1626 C1625 1.387 1_655 S
C1626 C1629 1.387 . S
H1627 C1623 0.950 . S
H1628 C1625 0.972 . S
C1629 C1620 1.390 . S
C1629 H1622 0.950 . S
C1629 C1626 1.387 . S
C1630 C1631 1.387 . S
C1630 H1634 0.950 . S
C1630 C1639 1.390 . S
C1631 C1630 1.387 . S
C1631 C1633 1.387 . S
H1632 C1639 0.950 . S
C1633 C1631 1.387 . S
C1633 C1635 1.390 . S
C1633 H1637 0.950 . S
H1634 C1630 0.950 . S
C1635 C1633 1.390 . S
C1635 C1636 1.387 . S
C1635 H1638 0.950 . S
C1636 C1635 1.387 . S
C1636 C1639 1.387 . S
H1637 C1633 0.950 . S
H1638 C1635 0.950 . S
C1639 C1630 1.390 . S
C1639 H1632 0.950 . S
C1639 C1636 1.387 . S
C1640 C1641 1.387 . S
C1640 H1644 0.950 . S
C1640 C1649 1.390 . S
C1641 C1640 1.387 . S
C1641 C1643 1.387 . S
H1642 C1649 0.950 . S
C1643 C1641 1.387 . S
C1643 C1645 1.390 . S
C1643 H1647 0.950 . S
H1644 C1640 0.950 . S
C1645 C1643 1.390 . S
C1645 C1646 1.387 . S
C1645 H1648 0.950 . S
C1646 C1645 1.387 . S
C1646 C1649 1.387 . S
H1647 C1643 0.950 . S
H1648 C1645 0.950 . S
C1649 C1640 1.390 . S
C1649 H1642 0.950 . S
C1649 C1646 1.387 . S
C1650 C1651 1.387 . S
C1650 H1654 0.950 . S
C1650 C1659 1.390 . S
C1651 C1650 1.387 . S
C1651 C1653 1.387 . S
H1652 C1659 0.950 . S
C1653 C1651 1.387 . S
C1653 C1655 1.390 . S
C1653 H1657 0.950 . S
H1654 C1650 0.950 . S
C1655 C1653 1.390 . S
C1655 C1656 1.387 . S
C1655 H1658 0.950 . S
C1656 C1655 1.387 . S
C1656 C1659 1.387 . S
H1657 C1653 0.950 . S
H1658 C1655 0.950 . S
C1659 C1650 1.390 . S
C1659 H1652 0.950 . S
C1659 C1656 1.387 . S
C1660 C1661 1.387 . S
C1660 H1664 0.950 . S
C1660 C1669 1.390 . S
C1661 C1660 1.387 . S
C1661 C1663 1.387 . S
H1662 C1669 0.950 . S
C1663 C1661 1.387 . S
C1663 C1665 1.390 . S
C1663 H1667 0.950 . S
H1664 C1660 0.950 . S
C1665 C1663 1.390 . S
C1665 C1666 1.387 . S
C1665 H1668 0.950 . S
C1666 C1665 1.387 . S
C1666 C1669 1.387 . S
H1667 C1663 0.950 . S
H1668 C1665 0.950 . S
C1669 C1660 1.390 . S
C1669 H1662 0.950 . S
C1669 C1666 1.387 . S
C1670 C1671 1.387 . S
C1670 H1674 0.950 . S
C1670 C1679 1.390 . S
C1671 C1670 1.387 . S
C1671 C1673 1.387 . S
H1672 C1679 0.950 . S
C1673 C1671 1.387 . S
C1673 C1675 1.390 . S
C1673 H1677 0.950 . S
H1674 C1670 0.950 . S
C1675 C1673 1.390 . S
C1675 C1676 1.387 . S
C1675 H1678 0.950 . S
C1676 C1675 1.387 . S
C1676 C1679 1.387 . S
H1677 C1673 0.950 . S
H1678 C1675 0.950 . S
C1679 C1670 1.390 . S
C1679 H1672 0.950 . S
C1679 C1676 1.387 . S
C1680 C1681 1.387 . S
C1680 H1684 0.950 . S
C1680 C1689 1.390 . S
C1681 C1680 1.387 . S
C1681 C1683 1.387 . S
H1682 C1689 0.950 . S
C1683 C1681 1.387 . S
C1683 C1685 1.390 . S
C1683 H1687 0.950 . S
H1684 C1680 0.950 . S
C1685 C1683 1.390 . S
C1685 C1686 1.387 . S
C1685 H1688 0.950 . S
C1686 C1685 1.387 . S
C1686 C1689 1.387 . S
H1687 C1683 0.950 . S
H1688 C1685 0.950 . S
C1689 C1680 1.390 . S
C1689 H1682 0.950 . S
C1689 C1686 1.387 . S
C1690 C1691 1.387 . S
C1690 H1694 0.950 . S
C1690 C1699 1.390 . S
C1691 C1690 1.387 . S
C1691 C1693 1.387 . S
H1692 C1699 0.950 . S
C1693 C1691 1.387 . S
C1693 C1695 1.390 . S
C1693 H1697 0.950 . S
H1694 C1690 0.950 . S
C1695 C1693 1.390 . S
C1695 C1696 1.387 . S
C1695 H1698 0.950 . S
C1696 C1695 1.387 . S
C1696 C1699 1.387 . S
H1697 C1693 0.950 . S
H1698 C1695 0.950 . S
C1699 C1690 1.390 . S
C1699 H1692 0.950 . S
C1699 C1696 1.387 . S
C1700 C1701 1.387 . S
C1700 H1704 0.950 . S
C1700 C1709 1.390 . S
C1701 C1700 1.387 . S
C1701 C1703 1.387 . S
H1702 C1709 0.950 . S
C1703 C1701 1.387 . S
C1703 C1705 1.390 . S
C1703 H1707 0.950 . S
H1704 C1700 0.950 . S
C1705 C1703 1.390 . S
C1705 C1706 1.387 . S
C1705 H1708 0.950 . S
C1706 C1705 1.387 . S
C1706 C1709 1.387 . S
H1707 C1703 0.950 . S
H1708 C1705 0.950 . S
C1709 C1700 1.390 . S
C1709 H1702 0.950 . S
C1709 C1706 1.387 . S
C1710 C1711 1.387 . S
C1710 H1714 0.950 . S
C1710 C1719 1.390 . S
C1711 C1710 1.387 . S
C1711 C1713 1.387 . S
H1712 C1719 0.950 . S
C1713 C1711 1.387 . S
C1713 C1715 1.390 . S
C1713 H1717 0.950 . S
H1714 C1710 0.950 . S
C1715 C1713 1.390 . S
C1715 C1716 1.387 . S
C1715 H1718 0.950 . S
C1716 C1715 1.387 . S
C1716 C1719 1.387 . S
H1717 C1713 0.950 . S
H1718 C1715 0.950 . S
C1719 C1710 1.390 . S
C1719 H1712 0.950 . S
C1719 C1716 1.387 . S
C1720 C1721 1.387 . S
C1720 H1724 0.950 . S
C1720 C1729 1.390 . S
C1721 C1720 1.387 . S
C1721 C1723 1.387 . S
H1722 C1729 0.950 . S
C1723 C1721 1.387 . S
C1723 C1725 1.390 . S
C1723 H1727 0.950 . S
H1724 C1720 0.950 . S
C1725 C1723 1.390 . S
C1725 C1726 1.387 . S
C1725 H1728 0.950 . S
C1726 C1725 1.387 . S
C1726 C1729 1.387 . S
H1727 C1723 0.950 . S
H1728 C1725 0.950 . S
C1729 C1720 1.390 . S
C1729 H1722 0.950 . S
C1729 C1726 1.387 . S
C1730 C1731 1.387 . S
C1730 H1734 0.950 . S
C1730 C1739 1.390 . S
C1731 C1730 1.387 . S
C1731 C1733 1.387 . S
H1732 C1739 0.950 . S
C1733 C1731 1.387 . S
C1733 C1735 1.390 . S
C1733 H1737 0.950 . S
H1734 C1730 0.950 . S
C1735 C1733 1.390 . S
C1735 C1736 1.387 . S
C1735 H1738 0.950 . S
C1736 C1735 1.387 . S
C1736 C1739 1.387 . S
H1737 C1733 0.950 . S
H1738 C1735 0.950 . S
C1739 C1730 1.390 . S
C1739 H1732 0.950 . S
C1739 C1736 1.387 . S
C1740 C1741 1.387 . S
C1740 H1744 0.950 . S
C1740 C1749 1.390 . S
C1741 C1740 1.387 . S
C1741 C1743 1.387 . S
H1742 C1749 0.950 . S
C1743 C1741 1.387 . S
C1743 C1745 1.390 . S
C1743 H1747 0.950 . S
H1744 C1740 0.950 . S
C1745 C1743 1.390 . S
C1745 C1746 1.387 . S
C1745 H1748 0.950 . S
C1746 C1745 1.387 . S
C1746 C1749 1.387 . S
H1747 C1743 0.950 . S
H1748 C1745 0.950 . S
C1749 C1740 1.390 . S
C1749 H1742 0.950 . S
C1749 C1746 1.387 . S
C1750 C1751 1.387 . S
C1750 H1754 0.950 . S
C1750 C1759 1.390 . S
C1751 C1750 1.387 . S
C1751 C1753 1.387 . S
H1752 C1759 0.950 . S
C1753 C1751 1.387 . S
C1753 C1755 1.390 . S
C1753 H1757 0.950 . S
H1754 C1750 0.950 . S
C1755 C1753 1.390 . S
C1755 C1756 1.387 . S
C1755 H1758 0.950 . S
C1756 C1755 1.387 . S
C1756 C1759 1.387 . S
H1757 C1753 0.950 . S
H1758 C1755 0.950 . S
C1759 C1750 1.390 . S
C1759 H1752 0.950 . S
C1759 C1756 1.387 . S
C1760 C1761 1.387 . S
C1760 H1764 0.950 . S
C1760 C1769 1.390 . S
C1761 C1760 1.387 . S
C1761 C1763 1.387 . S
H1762 C1769 0.950 . S
C1763 C1761 1.387 . S
C1763 C1765 1.390 . S
C1763 H1767 0.950 . S
H1764 C1760 0.950 . S
C1765 C1763 1.390 . S
C1765 C1766 1.387 . S
C1765 H1768 0.950 . S
C1766 C1765 1.387 . S
C1766 C1769 1.387 . S
H1767 C1763 0.950 . S
H1768 C1765 0.950 . S
C1769 C1760 1.390 . S
C1769 H1762 0.950 . S
C1769 C1766 1.387 . S
C1770 C1771 1.387 . S
C1770 H1774 0.950 . S
C1770 C1779 1.390 . S
C1771 C1770 1.387 . S
C1771 C1773 1.387 . S
H1772 C1779 0.950 . S
C1773 C1771 1.387 . S
C1773 C1775 1.390 . S
C1773 H1777 0.950 . S
H1774 C1770 0.950 . S
C1775 C1773 1.390 . S
C1775 C1776 1.387 . S
C1775 H1778 0.950 . S
C1776 C1775 1.387 . S
C1776 C1779 1.387 . S
H1777 C1773 0.950 . S
H1778 C1775 0.950 . S
C1779 C1770 1.390 . S
C1779 H1772 0.950 . S
C1779 C1776 1.387 . S
C1780 C1781 1.387 . S
C1780 H1784 0.950 . S
C1780 C1789 1.390 . S
C1781 C1780 1.387 . S
C1781 C1783 1.387 . S
H1782 C1789 0.950 . S
C1783 C1781 1.387 . S
C1783 C1785 1.390 . S
C1783 H1787 0.950 . S
H1784 C1780 0.950 . S
C1785 C1783 1.390 . S
C1785 C1786 1.387 . S
C1785 H1788 0.950 . S
C1786 C1785 1.387 . S
C1786 C1789 1.387 . S
H1787 C1783 0.950 . S
H1788 C1785 0.950 . S
C1789 C1780 1.390 . S
C1789 H1782 0.950 . S
C1789 C1786 1.387 . S
C1790 C1791 1.387 . S
C1790 H1794 0.950 1_554 S
C1790 C1799 1.390 1_554 S
C1791 C1790 1.387 . S
C1791 C1793 1.387 . S
H1792 C1799 0.950 . S
C1793 C1791 1.387 . S
C1793 C1795 1.390 . S
C1793 H1797 0.950 . S
H1794 C1790 0.950 1_556 S
C1795 C1793 1.390 . S
C1795 C1796 1.387 . S
C1795 H1798 0.950 . S
C1796 C1795 1.387 . S
C1796 C1799 1.387 1_554 S
H1797 C1793 0.950 . S
H1798 C1795 0.950 . S
C1799 C1790 1.390 1_556 S
C1799 H1792 0.950 . S
C1799 C1796 1.387 1_556 S
C1800 C1801 1.387 . S
C1800 H1804 0.950 . S
C1800 C1809 1.390 . S
C1801 C1800 1.387 . S
C1801 C1803 1.387 . S
H1802 C1809 0.950 . S
C1803 C1801 1.387 . S
C1803 C1805 1.390 . S
C1803 H1807 0.950 . S
H1804 C1800 0.950 . S
C1805 C1803 1.390 . S
C1805 C1806 1.387 . S
C1805 H1808 0.950 . S
C1806 C1805 1.387 . S
C1806 C1809 1.387 . S
H1807 C1803 0.950 . S
H1808 C1805 0.950 . S
C1809 C1800 1.390 . S
C1809 H1802 0.950 . S
C1809 C1806 1.387 . S
C1810 C1811 1.387 . S
C1810 H1814 0.950 . S
C1810 C1819 1.390 . S
C1811 C1810 1.387 . S
C1811 C1813 1.387 1_554 S
H1812 C1819 0.950 . S
C1813 C1811 1.387 1_556 S
C1813 C1815 1.390 1_556 S
C1813 H1817 0.950 . S
H1814 C1810 0.950 . S
C1815 C1813 1.390 1_554 S
C1815 C1816 1.387 . S
C1815 H1818 0.950 1_554 S
C1816 C1815 1.387 . S
C1816 C1819 1.387 . S
H1817 C1813 0.950 . S
H1818 C1815 0.950 1_556 S
C1819 C1810 1.390 . S
C1819 H1812 0.950 . S
C1819 C1816 1.387 . S
C1820 C1821 1.387 . S
C1820 H1824 0.950 . S
C1820 C1829 1.390 . S
C1821 C1820 1.387 . S
C1821 C1823 1.387 . S
H1822 C1829 0.950 . S
C1823 C1821 1.387 . S
C1823 C1825 1.390 . S
C1823 H1827 0.950 . S
H1824 C1820 0.950 . S
C1825 C1823 1.390 . S
C1825 C1826 1.387 . S
C1825 H1828 0.950 . S
C1826 C1825 1.387 . S
C1826 C1829 1.387 . S
H1827 C1823 0.950 . S
H1828 C1825 0.950 . S
C1829 C1820 1.390 . S
C1829 H1822 0.950 . S
C1829 C1826 1.387 . S
C1830 C1831 1.387 . S
C1830 H1834 0.950 . S
C1830 C1839 1.390 . S
C1831 C1830 1.387 . S
C1831 C1833 1.387 . S
H1832 C1839 0.950 . S
C1833 C1831 1.387 . S
C1833 C1835 1.390 . S
C1833 H1837 0.950 . S
H1834 C1830 0.950 . S
C1835 C1833 1.390 . S
C1835 C1836 1.387 . S
C1835 H1838 0.950 . S
C1836 C1835 1.387 . S
C1836 C1839 1.387 . S
H1837 C1833 0.950 . S
H1838 C1835 0.950 . S
C1839 C1830 1.390 . S
C1839 H1832 0.950 . S
C1839 C1836 1.387 . S
C886 C353 1.314 . S
C881 C5 1.312 . S
C891 C23 2.002 . S
C896 C399 1.982 . S
C901 C39 0.997 . S
C906 C408 0.994 . S
C916 C446 1.755 . S
C911 C42 1.782 . S
C921 C19 1.792 . S
C926 C480 1.755 . S
C936 C510 0.973 . S
C931 C28 0.978 . S
C946 C569 1.717 1_556 S
C941 C53 1.721 . S
C951 C9 1.215 . S
C956 C582 1.222 . S
C961 C65 1.616 . S
C966 C365 1.582 . S
C971 C75 1.347 . S
C976 C383 1.321 . S
C986 C404 1.879 . S
C981 C93 1.920 . S
C996 C442 1.136 . S
C991 C109 1.150 . S
C1001 C56 1.400 . S
C1006 C476 1.376 . S
C1016 C506 1.705 . S
C1011 C81 1.720 . S
C1026 C553 1.398 . S
C1021 C84 1.407 . S
C1036 C578 0.904 . S
C1031 C103 0.915 . S
C1046 C349 0.891 . S
C1041 C107 0.895 . S
C1056 C608 1.703 . S
C1051 C121 1.698 . S
C1061 C131 1.651 . S
C1066 C650 1.633 . S
C1076 C693 0.572 . S
C1071 C140 0.567 . S
C1081 C61 1.580 . S
C1086 C574 1.541 . S
C1096 C412 1.611 . S
C1091 C70 1.599 . S
C1101 C137 1.443 . S
C1106 C710 1.448 . S
C1116 C761 1.638 . S
C1111 C165 1.637 . S
C1121 C173 1.300 . S
C1126 C344 1.303 1_556 S
C1136 C744 1.938 . S
C1131 C182 1.954 . S
C1141 C207 1.003 . S
C1146 C417 0.997 . S
C1151 C219 1.785 . S
C1156 C727 1.723 . S
C1166 C489 1.728 . S
C1161 C187 1.762 . S
C1176 C655 0.971 . S
C1171 C205 0.977 . S
C1186 C540 1.690 . S
C1181 C221 1.697 . S
C1196 C795 1.207 . S
C1191 C168 1.237 . S
C1206 C336 1.551 . S
C1201 C224 1.603 . S
C1211 C243 1.327 . S
C1216 C748 1.303 . S
C1226 C433 1.827 . S
C1221 C252 1.859 . S
C1231 C277 1.156 . S
C1236 C723 1.118 . S
C1241 C233 1.430 1_565 S
C1246 C485 1.386 . S
C1251 C249 1.714 . S
C1256 C671 1.690 . S
C1266 C544 1.391 . S
C1261 C261 1.437 . S
C1271 C271 0.907 . S
C1276 C791 0.895 . S
C1281 C266 0.901 . S
C1286 C340 0.884 . S
C1291 C280 1.658 . S
C1296 C637 1.667 . S
C1301 C299 1.613 . S
C1306 C523 1.599 . S
C1311 C317 0.522 . S
C1316 C684 0.546 . S
C1326 C807 1.521 . S
C1321 C229 1.558 . S
C1336 C421 1.603 . S
C1331 C247 1.633 . S
C1346 C467 1.428 . S
C1341 C305 1.419 . S
C1356 C378 1.627 . S
C1351 C333 1.623 . S
C1361 C33 1.316 . S
C1366 C829 1.318 . S
C1376 C773 1.981 . S
C1371 C51 2.001 . S
C1386 C850 0.997 . S
C1381 C11 1.000 . S
C1391 C14 1.782 . S
C1396 C718 1.755 . S
C1401 C47 1.793 . S
C1406 C616 1.756 1_556 S
C1416 C646 0.974 . S
C1411 C0 0.978 . S
C1426 C705 1.719 . S
C1421 C25 1.723 . S
C1436 C786 1.223 . S
C1431 C37 1.216 . S
C1446 C841 1.583 . S
C1441 C163 1.616 . S
C1451 C117 1.347 1_556 S
C1456 C757 1.321 . S
C1461 C135 1.920 . S
C1466 C846 1.877 . S
C1476 C714 1.142 . S
C1471 C151 1.157 . S
C1486 C612 1.373 . S
C1481 C154 1.397 . S
C1491 C123 1.722 . S
C1496 C642 1.707 . S
C1506 C689 1.399 . S
C1501 C126 1.409 . S
C1511 C145 0.915 . S
C1516 C782 0.903 . S
C1526 C825 0.891 . S
C1521 C149 0.894 . S
C1536 C472 1.704 . S
C1531 C79 1.698 . S
C1546 C514 1.635 . S
C1541 C89 1.653 . S
C1551 C98 0.566 . S
C1556 C557 0.571 . S
C1566 C778 1.540 . S
C1561 C159 1.579 . S
C1571 C112 1.599 . S
C1576 C854 1.612 . S
C1586 C438 1.447 . S
C1581 C95 1.443 . S
C1596 C387 1.638 . S
C1591 C67 1.636 . S
C1601 C201 1.299 . S
C1606 C820 1.302 . S
C1616 C370 1.938 . S
C1611 C210 1.954 . S
C1626 C859 0.993 . S
C1621 C179 1.000 . S
C1631 C191 1.786 . S
C1636 C455 1.725 . S
C1641 C215 1.761 . S
C1646 C625 1.725 . S
C1651 C177 0.977 . S
C1656 C519 0.966 . S
C1661 C193 1.697 . S
C1666 C676 1.691 . S
C1671 C196 1.233 . S
C1676 C591 1.207 . S
C1686 C812 1.551 . S
C1681 C322 1.603 . S
C1691 C285 1.325 . S
C1696 C374 1.301 . S
C1706 C875 1.825 . S
C1701 C294 1.858 . S
C1711 C319 1.161 . S
C1716 C451 1.125 . S
C1721 C331 1.430 . S
C1726 C621 1.385 . S
C1736 C535 1.689 . S
C1731 C291 1.713 . S
C1741 C303 1.436 . S
C1746 C680 1.391 . S
C1756 C587 0.891 . S
C1751 C313 0.904 . S
C1766 C816 0.879 . S
C1761 C308 0.899 . S
C1776 C501 1.666 . S
C1771 C238 1.658 . S
C1781 C257 1.611 . S
C1786 C659 1.598 . S
C1796 C548 0.546 . S
C1791 C275 0.522 . S
C1806 C603 1.520 . S
C1801 C327 1.558 . S
C1811 C289 1.634 1_554 S
C1816 C863 1.604 . S
C1826 C739 1.428 . S
C1821 C263 1.420 . S
C1836 C752 1.627 . S
C1831 C235 1.622 . S
