# Generated by pormake.
# Topology tph, (6,8)-cn, num edge types: 1
# Building blocks:
#     Node 0, Type 0, BuildingBlock: OJICUG_clean_sbu_0, # of connection points: 6
#     Node 1, Type 0, BuildingBlock: OJICUG_clean_sbu_0, # of connection points: 6
#     Node 2, Type 0, BuildingBlock: OJICUG_clean_sbu_0, # of connection points: 6
#     Node 3, Type 0, BuildingBlock: OJICUG_clean_sbu_0, # of connection points: 6
#     Node 4, Type 0, BuildingBlock: OJICUG_clean_sbu_0, # of connection points: 6
#     Node 5, Type 0, BuildingBlock: OJICUG_clean_sbu_0, # of connection points: 6
#     Node 6, Type 0, BuildingBlock: OJICUG_clean_sbu_0, # of connection points: 6
#     Node 7, Type 0, BuildingBlock: OJICUG_clean_sbu_0, # of connection points: 6
#     Node 8, Type 0, BuildingBlock: OJICUG_clean_sbu_0, # of connection points: 6
#     Node 9, Type 0, BuildingBlock: OJICUG_clean_sbu_0, # of connection points: 6
#     Node 10, Type 0, BuildingBlock: OJICUG_clean_sbu_0, # of connection points: 6
#     Node 11, Type 0, BuildingBlock: OJICUG_clean_sbu_0, # of connection points: 6
#     Node 12, Type 0, BuildingBlock: OJICUG_clean_sbu_0, # of connection points: 6
#     Node 13, Type 0, BuildingBlock: OJICUG_clean_sbu_0, # of connection points: 6
#     Node 14, Type 0, BuildingBlock: OJICUG_clean_sbu_0, # of connection points: 6
#     Node 15, Type 0, BuildingBlock: OJICUG_clean_sbu_0, # of connection points: 6
#     Node 16, Type 1, BuildingBlock: TAGTUT_clean_sbu_1, # of connection points: 8
#     Node 17, Type 1, BuildingBlock: TAGTUT_clean_sbu_1, # of connection points: 8
#     Node 18, Type 1, BuildingBlock: TAGTUT_clean_sbu_1, # of connection points: 8
#     Node 19, Type 1, BuildingBlock: TAGTUT_clean_sbu_1, # of connection points: 8
#     Node 20, Type 1, BuildingBlock: TAGTUT_clean_sbu_1, # of connection points: 8
#     Node 21, Type 1, BuildingBlock: TAGTUT_clean_sbu_1, # of connection points: 8
#     Node 22, Type 1, BuildingBlock: TAGTUT_clean_sbu_1, # of connection points: 8
#     Node 23, Type 1, BuildingBlock: TAGTUT_clean_sbu_1, # of connection points: 8
#     Node 24, Type 1, BuildingBlock: TAGTUT_clean_sbu_1, # of connection points: 8
#     Node 25, Type 1, BuildingBlock: TAGTUT_clean_sbu_1, # of connection points: 8
#     Node 26, Type 1, BuildingBlock: TAGTUT_clean_sbu_1, # of connection points: 8
#     Node 27, Type 1, BuildingBlock: TAGTUT_clean_sbu_1, # of connection points: 8
#     Edge 28, Type (0, 1), BuildingBlock: UVAHIK_clean_linker_0, # of connection points: 2
#     Edge 29, Type (0, 1), BuildingBlock: UVAHIK_clean_linker_0, # of connection points: 2
#     Edge 30, Type (0, 1), BuildingBlock: UVAHIK_clean_linker_0, # of connection points: 2
#     Edge 31, Type (0, 1), BuildingBlock: UVAHIK_clean_linker_0, # of connection points: 2
#     Edge 32, Type (0, 1), BuildingBlock: UVAHIK_clean_linker_0, # of connection points: 2
#     Edge 33, Type (0, 1), BuildingBlock: UVAHIK_clean_linker_0, # of connection points: 2
#     Edge 34, Type (0, 1), BuildingBlock: UVAHIK_clean_linker_0, # of connection points: 2
#     Edge 35, Type (0, 1), BuildingBlock: UVAHIK_clean_linker_0, # of connection points: 2
#     Edge 36, Type (0, 1), BuildingBlock: UVAHIK_clean_linker_0, # of connection points: 2
#     Edge 37, Type (0, 1), BuildingBlock: UVAHIK_clean_linker_0, # of connection points: 2
#     Edge 38, Type (0, 1), BuildingBlock: UVAHIK_clean_linker_0, # of connection points: 2
#     Edge 39, Type (0, 1), BuildingBlock: UVAHIK_clean_linker_0, # of connection points: 2
#     Edge 40, Type (0, 1), BuildingBlock: UVAHIK_clean_linker_0, # of connection points: 2
#     Edge 41, Type (0, 1), BuildingBlock: UVAHIK_clean_linker_0, # of connection points: 2
#     Edge 42, Type (0, 1), BuildingBlock: UVAHIK_clean_linker_0, # of connection points: 2
#     Edge 43, Type (0, 1), BuildingBlock: UVAHIK_clean_linker_0, # of connection points: 2
#     Edge 44, Type (0, 1), BuildingBlock: UVAHIK_clean_linker_0, # of connection points: 2
#     Edge 45, Type (0, 1), BuildingBlock: UVAHIK_clean_linker_0, # of connection points: 2
#     Edge 46, Type (0, 1), BuildingBlock: UVAHIK_clean_linker_0, # of connection points: 2
#     Edge 47, Type (0, 1), BuildingBlock: UVAHIK_clean_linker_0, # of connection points: 2
#     Edge 48, Type (0, 1), BuildingBlock: UVAHIK_clean_linker_0, # of connection points: 2
#     Edge 49, Type (0, 1), BuildingBlock: UVAHIK_clean_linker_0, # of connection points: 2
#     Edge 50, Type (0, 1), BuildingBlock: UVAHIK_clean_linker_0, # of connection points: 2
#     Edge 51, Type (0, 1), BuildingBlock: UVAHIK_clean_linker_0, # of connection points: 2
#     Edge 52, Type (0, 1), BuildingBlock: UVAHIK_clean_linker_0, # of connection points: 2
#     Edge 53, Type (0, 1), BuildingBlock: UVAHIK_clean_linker_0, # of connection points: 2
#     Edge 54, Type (0, 1), BuildingBlock: UVAHIK_clean_linker_0, # of connection points: 2
#     Edge 55, Type (0, 1), BuildingBlock: UVAHIK_clean_linker_0, # of connection points: 2
#     Edge 56, Type (0, 1), BuildingBlock: UVAHIK_clean_linker_0, # of connection points: 2
#     Edge 57, Type (0, 1), BuildingBlock: UVAHIK_clean_linker_0, # of connection points: 2
#     Edge 58, Type (0, 1), BuildingBlock: UVAHIK_clean_linker_0, # of connection points: 2
#     Edge 59, Type (0, 1), BuildingBlock: UVAHIK_clean_linker_0, # of connection points: 2
#     Edge 60, Type (0, 1), BuildingBlock: UVAHIK_clean_linker_0, # of connection points: 2
#     Edge 61, Type (0, 1), BuildingBlock: UVAHIK_clean_linker_0, # of connection points: 2
#     Edge 62, Type (0, 1), BuildingBlock: UVAHIK_clean_linker_0, # of connection points: 2
#     Edge 63, Type (0, 1), BuildingBlock: UVAHIK_clean_linker_0, # of connection points: 2
#     Edge 64, Type (0, 1), BuildingBlock: UVAHIK_clean_linker_0, # of connection points: 2
#     Edge 65, Type (0, 1), BuildingBlock: UVAHIK_clean_linker_0, # of connection points: 2
#     Edge 66, Type (0, 1), BuildingBlock: UVAHIK_clean_linker_0, # of connection points: 2
#     Edge 67, Type (0, 1), BuildingBlock: UVAHIK_clean_linker_0, # of connection points: 2
#     Edge 68, Type (0, 1), BuildingBlock: UVAHIK_clean_linker_0, # of connection points: 2
#     Edge 69, Type (0, 1), BuildingBlock: UVAHIK_clean_linker_0, # of connection points: 2
#     Edge 70, Type (0, 1), BuildingBlock: UVAHIK_clean_linker_0, # of connection points: 2
#     Edge 71, Type (0, 1), BuildingBlock: UVAHIK_clean_linker_0, # of connection points: 2
#     Edge 72, Type (0, 1), BuildingBlock: UVAHIK_clean_linker_0, # of connection points: 2
#     Edge 73, Type (0, 1), BuildingBlock: UVAHIK_clean_linker_0, # of connection points: 2
#     Edge 74, Type (0, 1), BuildingBlock: UVAHIK_clean_linker_0, # of connection points: 2
#     Edge 75, Type (0, 1), BuildingBlock: UVAHIK_clean_linker_0, # of connection points: 2
#     Edge 76, Type (0, 1), BuildingBlock: UVAHIK_clean_linker_0, # of connection points: 2
#     Edge 77, Type (0, 1), BuildingBlock: UVAHIK_clean_linker_0, # of connection points: 2
#     Edge 78, Type (0, 1), BuildingBlock: UVAHIK_clean_linker_0, # of connection points: 2
#     Edge 79, Type (0, 1), BuildingBlock: UVAHIK_clean_linker_0, # of connection points: 2
#     Edge 80, Type (0, 1), BuildingBlock: UVAHIK_clean_linker_0, # of connection points: 2
#     Edge 81, Type (0, 1), BuildingBlock: UVAHIK_clean_linker_0, # of connection points: 2
#     Edge 82, Type (0, 1), BuildingBlock: UVAHIK_clean_linker_0, # of connection points: 2
#     Edge 83, Type (0, 1), BuildingBlock: UVAHIK_clean_linker_0, # of connection points: 2
#     Edge 84, Type (0, 1), BuildingBlock: UVAHIK_clean_linker_0, # of connection points: 2
#     Edge 85, Type (0, 1), BuildingBlock: UVAHIK_clean_linker_0, # of connection points: 2
#     Edge 86, Type (0, 1), BuildingBlock: UVAHIK_clean_linker_0, # of connection points: 2
#     Edge 87, Type (0, 1), BuildingBlock: UVAHIK_clean_linker_0, # of connection points: 2
#     Edge 88, Type (0, 1), BuildingBlock: UVAHIK_clean_linker_0, # of connection points: 2
#     Edge 89, Type (0, 1), BuildingBlock: UVAHIK_clean_linker_0, # of connection points: 2
#     Edge 90, Type (0, 1), BuildingBlock: UVAHIK_clean_linker_0, # of connection points: 2
#     Edge 91, Type (0, 1), BuildingBlock: UVAHIK_clean_linker_0, # of connection points: 2
#     Edge 92, Type (0, 1), BuildingBlock: UVAHIK_clean_linker_0, # of connection points: 2
#     Edge 93, Type (0, 1), BuildingBlock: UVAHIK_clean_linker_0, # of connection points: 2
#     Edge 94, Type (0, 1), BuildingBlock: UVAHIK_clean_linker_0, # of connection points: 2
#     Edge 95, Type (0, 1), BuildingBlock: UVAHIK_clean_linker_0, # of connection points: 2
#     Edge 96, Type (0, 1), BuildingBlock: UVAHIK_clean_linker_0, # of connection points: 2
#     Edge 97, Type (0, 1), BuildingBlock: UVAHIK_clean_linker_0, # of connection points: 2
#     Edge 98, Type (0, 1), BuildingBlock: UVAHIK_clean_linker_0, # of connection points: 2
#     Edge 99, Type (0, 1), BuildingBlock: UVAHIK_clean_linker_0, # of connection points: 2
#     Edge 100, Type (0, 1), BuildingBlock: UVAHIK_clean_linker_0, # of connection points: 2
#     Edge 101, Type (0, 1), BuildingBlock: UVAHIK_clean_linker_0, # of connection points: 2
#     Edge 102, Type (0, 1), BuildingBlock: UVAHIK_clean_linker_0, # of connection points: 2
#     Edge 103, Type (0, 1), BuildingBlock: UVAHIK_clean_linker_0, # of connection points: 2
#     Edge 104, Type (0, 1), BuildingBlock: UVAHIK_clean_linker_0, # of connection points: 2
#     Edge 105, Type (0, 1), BuildingBlock: UVAHIK_clean_linker_0, # of connection points: 2
#     Edge 106, Type (0, 1), BuildingBlock: UVAHIK_clean_linker_0, # of connection points: 2
#     Edge 107, Type (0, 1), BuildingBlock: UVAHIK_clean_linker_0, # of connection points: 2
#     Edge 108, Type (0, 1), BuildingBlock: UVAHIK_clean_linker_0, # of connection points: 2
#     Edge 109, Type (0, 1), BuildingBlock: UVAHIK_clean_linker_0, # of connection points: 2
#     Edge 110, Type (0, 1), BuildingBlock: UVAHIK_clean_linker_0, # of connection points: 2
#     Edge 111, Type (0, 1), BuildingBlock: UVAHIK_clean_linker_0, # of connection points: 2
#     Edge 112, Type (0, 1), BuildingBlock: UVAHIK_clean_linker_0, # of connection points: 2
#     Edge 113, Type (0, 1), BuildingBlock: UVAHIK_clean_linker_0, # of connection points: 2
#     Edge 114, Type (0, 1), BuildingBlock: UVAHIK_clean_linker_0, # of connection points: 2
#     Edge 115, Type (0, 1), BuildingBlock: UVAHIK_clean_linker_0, # of connection points: 2
#     Edge 116, Type (0, 1), BuildingBlock: UVAHIK_clean_linker_0, # of connection points: 2
#     Edge 117, Type (0, 1), BuildingBlock: UVAHIK_clean_linker_0, # of connection points: 2
#     Edge 118, Type (0, 1), BuildingBlock: UVAHIK_clean_linker_0, # of connection points: 2
#     Edge 119, Type (0, 1), BuildingBlock: UVAHIK_clean_linker_0, # of connection points: 2
#     Edge 120, Type (0, 1), BuildingBlock: UVAHIK_clean_linker_0, # of connection points: 2
#     Edge 121, Type (0, 1), BuildingBlock: UVAHIK_clean_linker_0, # of connection points: 2
#     Edge 122, Type (0, 1), BuildingBlock: UVAHIK_clean_linker_0, # of connection points: 2
#     Edge 123, Type (0, 1), BuildingBlock: UVAHIK_clean_linker_0, # of connection points: 2
# Relax obj value: 0.203
# Max RMSD: 0.314
# Mean RMSD: 0.271
data_MOF--net-tph--node1-OJICUG_clean_sbu_0--node2-TAGTUT_clean_sbu_1--edge1-UVAHIK_clean_linker_0
_symmetry_space_group_name_H-M    P1
_symmetry_Int_Tables_number       1
_symmetry_cell_setting            triclinic
loop_
_symmetry_equiv_pos_as_xyz
'x, y, z'
_cell_length_a     60.58678
_cell_length_b     60.063996
_cell_length_c     59.345479
_cell_angle_alpha  90.213072
_cell_angle_beta   92.284196
_cell_angle_gamma 90.286903
loop_
_atom_site_label
_atom_site_type_symbol
_atom_site_fract_x
_atom_site_fract_y
_atom_site_fract_z
_atom_type_partial_charge
Sc0 Sc 0.15453 0.18782 0.17018 0.0
Sc1 Sc 0.19653 0.14952 0.1748 0.0
Sc2 Sc 0.19521 0.18794 0.13103 0.0
O3 O 0.18237 0.17507 0.15854 0.0
C4 C 0.14671 0.19527 0.11732 0.0
C5 C 0.14445 0.13813 0.17294 0.0
C6 C 0.20083 0.13514 0.12433 0.0
C7 C 0.1798 0.17285 0.21587 0.0
C8 C 0.1808 0.23031 0.16119 0.0
C9 C 0.23858 0.17795 0.16017 0.0
O10 O 0.14208 0.2002 0.13745 0.0
O11 O 0.1641 0.13453 0.18086 0.0
O12 O 0.20217 0.15503 0.11686 0.0
O13 O 0.16193 0.17793 0.20512 0.0
O14 O 0.18804 0.2221 0.14286 0.0
O15 O 0.22998 0.16151 0.17023 0.0
O16 O 0.17119 0.21859 0.17574 0.0
O17 O 0.19691 0.16743 0.2057 0.0
O18 O 0.22748 0.19056 0.14689 0.0
O19 O 0.13853 0.1566 0.16424 0.0
O20 O 0.1644 0.18548 0.11282 0.0
O21 O 0.1974 0.13057 0.14474 0.0
Sc22 Sc 0.42787 0.61562 0.06293 0.0
Sc23 Sc 0.39922 0.56638 0.07049 0.0
Sc24 Sc 0.44054 0.58247 0.10997 0.0
O25 O 0.42296 0.588 0.08106 0.0
C26 C 0.47689 0.60151 0.07651 0.0
C27 C 0.41979 0.57661 0.02544 0.0
C28 C 0.43448 0.53328 0.09441 0.0
C29 C 0.37776 0.61248 0.05467 0.0
C30 C 0.43205 0.63436 0.11328 0.0
C31 C 0.38986 0.57239 0.12165 0.0
O32 O 0.46261 0.60927 0.06238 0.0
O33 O 0.41528 0.5614 0.03946 0.0
O34 O 0.44766 0.5486 0.10118 0.0
O35 O 0.39369 0.62405 0.06276 0.0
O36 O 0.43459 0.61524 0.1219 0.0
O37 O 0.38274 0.57182 0.10116 0.0
O38 O 0.43169 0.63758 0.09209 0.0
O39 O 0.37854 0.59137 0.05355 0.0
O40 O 0.41051 0.57294 0.12735 0.0
O41 O 0.42298 0.59694 0.03137 0.0
O42 O 0.47175 0.59258 0.09517 0.0
O43 O 0.41567 0.53742 0.08511 0.0
Sc44 Sc 0.85982 0.29748 0.20218 0.0
Sc45 Sc 0.82244 0.30642 0.15736 0.0
Sc46 Sc 0.82368 0.34261 0.20312 0.0
O47 O 0.83531 0.31549 0.18767 0.0
C48 C 0.82975 0.30968 0.2436 0.0
C49 C 0.83173 0.25908 0.18065 0.0
C50 C 0.77991 0.31936 0.18089 0.0
C51 C 0.87253 0.30008 0.15042 0.0
C52 C 0.87587 0.34581 0.21394 0.0
C53 C 0.82182 0.35976 0.15401 0.0
O54 O 0.84692 0.30075 0.23581 0.0
O55 O 0.82611 0.27091 0.16361 0.0
O56 O 0.78962 0.33547 0.19145 0.0
O57 O 0.87586 0.29241 0.17029 0.0
O58 O 0.85638 0.35325 0.21625 0.0
O59 O 0.81656 0.34049 0.14648 0.0
O60 O 0.87974 0.32636 0.20685 0.0
O61 O 0.85424 0.30832 0.14353 0.0
O62 O 0.82857 0.3631 0.17427 0.0
O63 O 0.8415 0.26724 0.19811 0.0
O64 O 0.81792 0.3237 0.23273 0.0
O65 O 0.79033 0.3046 0.17031 0.0
Sc66 Sc 0.60622 0.93914 0.08248 0.0
Sc67 Sc 0.56939 0.89844 0.06021 0.0
Sc68 Sc 0.55724 0.92679 0.11037 0.0
O69 O 0.57747 0.92162 0.08425 0.0
C70 C 0.60487 0.93085 0.13538 0.0
C71 C 0.6213 0.89052 0.06813 0.0
C72 C 0.55707 0.87387 0.1057 0.0
C73 C 0.58953 0.93726 0.03057 0.0
C74 C 0.57175 0.97631 0.09804 0.0
C75 C 0.52157 0.91668 0.07011 0.0
O76 O 0.61509 0.934 0.11741 0.0
O77 O 0.602 0.8847 0.06132 0.0
O78 O 0.55524 0.89158 0.11737 0.0
O79 O 0.601 0.94568 0.04693 0.0
O80 O 0.55772 0.96249 0.1054 0.0
O81 O 0.53527 0.90815 0.05695 0.0
O82 O 0.58993 0.9703 0.0898 0.0
O83 O 0.57688 0.92049 0.03284 0.0
O84 O 0.52731 0.92438 0.08948 0.0
O85 O 0.62571 0.90986 0.07591 0.0
O86 O 0.58398 0.92901 0.13563 0.0
O87 O 0.5616 0.87393 0.08498 0.0
Sc88 Sc 0.18173 0.84809 0.31344 0.0
Sc89 Sc 0.15029 0.8009 0.32327 0.0
Sc90 Sc 0.19855 0.81172 0.35543 0.0
O91 O 0.17655 0.8203 0.33091 0.0
C92 C 0.23063 0.82844 0.3204 0.0
C93 C 0.16684 0.81577 0.27498 0.0
C94 C 0.18568 0.76454 0.3334 0.0
C95 C 0.12845 0.84682 0.31545 0.0
C96 C 0.19621 0.86516 0.36019 0.0
C97 C 0.15485 0.79971 0.37788 0.0
O98 O 0.21788 0.84471 0.31535 0.0
O99 O 0.15245 0.80624 0.28687 0.0
O100 O 0.19499 0.77606 0.34919 0.0
O101 O 0.14642 0.85525 0.3087 0.0
O102 O 0.20541 0.84656 0.36496 0.0
O103 O 0.14547 0.79374 0.35907 0.0
O104 O 0.18258 0.86738 0.34357 0.0
O105 O 0.12782 0.82809 0.32529 0.0
O106 O 0.17324 0.81004 0.37922 0.0
O107 O 0.18115 0.82944 0.28301 0.0
O108 O 0.22453 0.81221 0.33228 0.0
O109 O 0.1709 0.77236 0.31996 0.0
Sc110 Sc 0.07336 0.61071 0.94166 0.0
Sc111 Sc 0.06118 0.5827 0.89044 0.0
Sc112 Sc 0.10526 0.56533 0.92646 0.0
O113 O 0.0798 0.58622 0.91948 0.0
C114 C 0.12479 0.61152 0.94607 0.0
C115 C 0.0637 0.63538 0.89467 0.0
C116 C 0.11123 0.57627 0.87489 0.0
C117 C 0.02501 0.59358 0.92733 0.0
C118 C 0.08672 0.56975 0.97426 0.0
C119 C 0.0701 0.53214 0.90226 0.0
O120 O 0.10697 0.62237 0.94314 0.0
O121 O 0.06261 0.61767 0.88288 0.0
O122 O 0.1192 0.5729 0.89475 0.0
O123 O 0.03906 0.60112 0.94201 0.0
O124 O 0.09311 0.55686 0.9588 0.0
O125 O 0.05723 0.54726 0.89475 0.0
O126 O 0.08045 0.58965 0.9705 0.0
O127 O 0.03031 0.58728 0.90767 0.0
O128 O 0.08847 0.53646 0.91241 0.0
O129 O 0.06648 0.63528 0.91599 0.0
O130 O 0.12603 0.59072 0.94237 0.0
O131 O 0.0905 0.57826 0.87038 0.0
Sc132 Sc 0.85392 0.68924 0.30328 0.0
Sc133 Sc 0.80799 0.65359 0.30694 0.0
Sc134 Sc 0.82291 0.68937 0.35236 0.0
O135 O 0.82817 0.6775 0.32084 0.0
C136 C 0.87524 0.68471 0.35289 0.0
C137 C 0.85537 0.63754 0.29178 0.0
C138 C 0.81176 0.63769 0.35793 0.0
C139 C 0.81637 0.68474 0.26463 0.0
C140 C 0.83828 0.7335 0.32716 0.0
C141 C 0.77367 0.6853 0.33152 0.0
O142 O 0.87691 0.68655 0.33171 0.0
O143 O 0.83552 0.63334 0.29667 0.0
O144 O 0.81694 0.65668 0.3661 0.0
O145 O 0.83404 0.6934 0.27295 0.0
O146 O 0.82882 0.72386 0.34327 0.0
O147 O 0.77839 0.67071 0.3168 0.0
O148 O 0.84726 0.72292 0.31149 0.0
O149 O 0.80539 0.6701 0.27487 0.0
O150 O 0.78812 0.69403 0.34504 0.0
O151 O 0.86383 0.65686 0.29295 0.0
O152 O 0.85694 0.68521 0.3626 0.0
O153 O 0.80829 0.63433 0.337 0.0
Sc154 Sc 0.93999 0.9239 0.88702 0.0
Sc155 Sc 0.89243 0.93874 0.91605 0.0
Sc156 Sc 0.92402 0.89228 0.93359 0.0
O157 O 0.91893 0.91846 0.91238 0.0
C158 C 0.93487 0.87095 0.8861 0.0
C159 C 0.89291 0.9319 0.86268 0.0
C160 C 0.87142 0.89126 0.92678 0.0
C161 C 0.92943 0.97373 0.90141 0.0
C162 C 0.97358 0.90943 0.92687 0.0
C163 C 0.90925 0.93099 0.96724 0.0
O164 O 0.94026 0.88937 0.87737 0.0
O165 O 0.88296 0.9358 0.88076 0.0
O166 O 0.88987 0.8821 0.93144 0.0
O167 O 0.94196 0.95912 0.89326 0.0
O168 O 0.95923 0.89873 0.93769 0.0
O169 O 0.8993 0.94251 0.95196 0.0
O170 O 0.96882 0.91978 0.9087 0.0
O171 O 0.91114 0.96889 0.9101 0.0
O172 O 0.91899 0.91274 0.96309 0.0
O173 O 0.9135 0.9282 0.86227 0.0
O174 O 0.92849 0.86923 0.90616 0.0
O175 O 0.8697 0.91169 0.92164 0.0
Sc176 Sc 0.39354 0.44353 0.41854 0.0
Sc177 Sc 0.42376 0.3953 0.43288 0.0
Sc178 Sc 0.44066 0.42982 0.38891 0.0
O179 O 0.4195 0.42303 0.41369 0.0
C180 C 0.39362 0.44017 0.3653 0.0
C181 C 0.37143 0.39587 0.42661 0.0
C182 C 0.43307 0.37751 0.38339 0.0
C183 C 0.41005 0.43281 0.46877 0.0
C184 C 0.43169 0.47848 0.4058 0.0
C185 C 0.47367 0.41106 0.42777 0.0
O186 O 0.38327 0.44111 0.38351 0.0
O187 O 0.38967 0.38569 0.42878 0.0
O188 O 0.43762 0.39669 0.3759 0.0
O189 O 0.40196 0.44633 0.45414 0.0
O190 O 0.44501 0.46389 0.39901 0.0
O191 O 0.45874 0.40128 0.4386 0.0
O192 O 0.41248 0.47359 0.41232 0.0
O193 O 0.41769 0.41375 0.4636 0.0
O194 O 0.4695 0.4216 0.40957 0.0
O195 O 0.37024 0.41688 0.42453 0.0
O196 O 0.41449 0.4384 0.36484 0.0
O197 O 0.42905 0.374 0.40398 0.0
Sc198 Sc 0.35869 0.80072 0.70002 0.0
Sc199 Sc 0.31978 0.81001 0.65672 0.0
Sc200 Sc 0.32247 0.84572 0.70289 0.0
O201 O 0.33366 0.81884 0.68665 0.0
C202 C 0.33041 0.81272 0.74294 0.0
C203 C 0.32914 0.76267 0.67972 0.0
C204 C 0.27808 0.82224 0.68239 0.0
C205 C 0.36944 0.80366 0.6478 0.0
C206 C 0.37513 0.84883 0.71189 0.0
C207 C 0.31912 0.86332 0.65386 0.0
O208 O 0.34727 0.80398 0.73431 0.0
O209 O 0.32336 0.77446 0.66272 0.0
O210 O 0.28789 0.83844 0.69273 0.0
O211 O 0.37348 0.79561 0.6674 0.0
O212 O 0.3557 0.85614 0.71497 0.0
O213 O 0.31375 0.8441 0.64628 0.0
O214 O 0.37881 0.82959 0.70406 0.0
O215 O 0.35097 0.81203 0.64176 0.0
O216 O 0.32617 0.86656 0.67405 0.0
O217 O 0.33994 0.77065 0.69667 0.0
O218 O 0.31795 0.82652 0.73254 0.0
O219 O 0.28825 0.80808 0.67082 0.0
Sc220 Sc 0.10764 0.43795 0.58288 0.0
Sc221 Sc 0.07219 0.39546 0.56179 0.0
Sc222 Sc 0.05894 0.42485 0.61094 0.0
O223 O 0.07946 0.41956 0.58514 0.0
C224 C 0.1059 0.43205 0.63629 0.0
C225 C 0.12435 0.38937 0.57085 0.0
C226 C 0.05984 0.3717 0.60751 0.0
C227 C 0.09156 0.4332 0.53081 0.0
C228 C 0.07237 0.47459 0.59669 0.0
C229 C 0.02375 0.41326 0.57093 0.0
O230 O 0.11573 0.43676 0.61841 0.0
O231 O 0.10549 0.38328 0.56288 0.0
O232 O 0.05655 0.3897 0.61828 0.0
O233 O 0.10345 0.44167 0.54682 0.0
O234 O 0.05956 0.46067 0.60589 0.0
O235 O 0.03758 0.40354 0.55873 0.0
O236 O 0.09001 0.46881 0.58723 0.0
O237 O 0.07831 0.41707 0.53373 0.0
O238 O 0.02931 0.42257 0.58961 0.0
O239 O 0.12801 0.40866 0.57917 0.0
O240 O 0.08555 0.42686 0.63627 0.0
O241 O 0.0657 0.37126 0.58721 0.0
Sc242 Sc 0.93038 0.11472 0.56042 0.0
Sc243 Sc 0.90164 0.06549 0.56871 0.0
Sc244 Sc 0.94325 0.08222 0.60816 0.0
O245 O 0.92544 0.08732 0.57908 0.0
C246 C 0.97955 0.10005 0.57406 0.0
C247 C 0.92201 0.07557 0.52322 0.0
C248 C 0.93669 0.03235 0.59314 0.0
C249 C 0.87991 0.11159 0.5528 0.0
C250 C 0.93639 0.1345 0.61024 0.0
C251 C 0.89244 0.07259 0.62019 0.0
O252 O 0.96524 0.1085 0.56035 0.0
O253 O 0.91701 0.06057 0.53727 0.0
O254 O 0.94917 0.0477 0.60112 0.0
O255 O 0.89625 0.12327 0.55969 0.0
O256 O 0.93951 0.11567 0.61928 0.0
O257 O 0.88554 0.07048 0.59972 0.0
O258 O 0.93378 0.13714 0.58908 0.0
O259 O 0.88039 0.09043 0.55243 0.0
O260 O 0.91299 0.07453 0.62604 0.0
O261 O 0.92576 0.0958 0.52906 0.0
O262 O 0.97447 0.09063 0.59251 0.0
O263 O 0.91852 0.03645 0.58251 0.0
Sc264 Sc 0.69965 0.69021 0.6329 0.0
Sc265 Sc 0.66023 0.69255 0.67349 0.0
Sc266 Sc 0.69503 0.64741 0.67145 0.0
O267 O 0.68509 0.67677 0.65931 0.0
C268 C 0.69524 0.63869 0.61995 0.0
C269 C 0.65137 0.70248 0.62096 0.0
C270 C 0.64219 0.64466 0.67402 0.0
C271 C 0.6906 0.73229 0.6652 0.0
C272 C 0.74056 0.67123 0.65925 0.0
C273 C 0.68619 0.67047 0.71607 0.0
O274 O 0.70336 0.65787 0.61586 0.0
O275 O 0.64753 0.7068 0.64152 0.0
O276 O 0.66142 0.63708 0.67911 0.0
O277 O 0.69623 0.72427 0.64625 0.0
O278 O 0.7298 0.65399 0.66511 0.0
O279 O 0.66929 0.68023 0.70725 0.0
O280 O 0.73136 0.6879 0.64978 0.0
O281 O 0.68092 0.72071 0.67971 0.0
O282 O 0.70047 0.66109 0.70427 0.0
O283 O 0.66875 0.69277 0.6151 0.0
O284 O 0.68934 0.63288 0.63929 0.0
O285 O 0.63906 0.66461 0.66769 0.0
Sc286 Sc 0.67956 0.35123 0.81374 0.0
Sc287 Sc 0.64461 0.3071 0.82373 0.0
Sc288 Sc 0.69345 0.31395 0.85582 0.0
O289 O 0.67236 0.32414 0.83133 0.0
C290 C 0.72712 0.32907 0.82163 0.0
C291 C 0.66225 0.3206 0.77552 0.0
C292 C 0.67764 0.26824 0.83207 0.0
C293 C 0.62657 0.35411 0.8163 0.0
C294 C 0.69413 0.3675 0.86082 0.0
C295 C 0.64905 0.30439 0.87801 0.0
O296 O 0.71535 0.34598 0.81642 0.0
O297 O 0.64658 0.3134 0.78737 0.0
O298 O 0.6878 0.27862 0.84823 0.0
O299 O 0.64479 0.3603 0.80812 0.0
O300 O 0.70203 0.34832 0.86581 0.0
O301 O 0.6397 0.29873 0.85913 0.0
O302 O 0.68116 0.37064 0.8438 0.0
O303 O 0.62486 0.33622 0.82745 0.0
O304 O 0.66783 0.3139 0.8795 0.0
O305 O 0.67835 0.33198 0.78371 0.0
O306 O 0.71985 0.31307 0.83311 0.0
O307 O 0.66305 0.27739 0.8193 0.0
Sc308 Sc 0.57772 0.11377 0.44029 0.0
Sc309 Sc 0.56571 0.08454 0.38966 0.0
Sc310 Sc 0.6084 0.06673 0.42695 0.0
O311 O 0.58377 0.0883 0.41901 0.0
C312 C 0.62926 0.11224 0.44661 0.0
C313 C 0.572 0.13719 0.39225 0.0
C314 C 0.61584 0.07583 0.37538 0.0
C315 C 0.5288 0.09905 0.42455 0.0
C316 C 0.5878 0.07272 0.4739 0.0
C317 C 0.57251 0.03421 0.40282 0.0
O318 O 0.61184 0.12363 0.44344 0.0
O319 O 0.56961 0.11908 0.38125 0.0
O320 O 0.62343 0.07309 0.39548 0.0
O321 O 0.54279 0.10681 0.43916 0.0
O322 O 0.59499 0.05961 0.45902 0.0
O323 O 0.56005 0.04951 0.39496 0.0
O324 O 0.58208 0.09274 0.4697 0.0
O325 O 0.53446 0.09101 0.40568 0.0
O326 O 0.59092 0.03826 0.41302 0.0
O327 O 0.57387 0.13788 0.41364 0.0
O328 O 0.62991 0.09143 0.4429 0.0
O329 O 0.59522 0.07808 0.37047 0.0
Sc330 Sc 0.35109 0.18834 0.80503 0.0
Sc331 Sc 0.30582 0.15237 0.80774 0.0
Sc332 Sc 0.31776 0.1907 0.85161 0.0
O333 O 0.32468 0.17724 0.82142 0.0
C334 C 0.36944 0.18951 0.856 0.0
C335 C 0.35522 0.13673 0.79871 0.0
C336 C 0.30798 0.13883 0.85911 0.0
C337 C 0.31608 0.1791 0.76419 0.0
C338 C 0.33231 0.23313 0.82252 0.0
C339 C 0.2698 0.18443 0.82967 0.0
O340 O 0.37164 0.19303 0.83514 0.0
O341 O 0.3344 0.1334 0.79715 0.0
O342 O 0.31007 0.15872 0.86645 0.0
O343 O 0.3348 0.1855 0.77223 0.0
O344 O 0.32531 0.22448 0.84055 0.0
O345 O 0.27524 0.16794 0.81747 0.0
O346 O 0.33987 0.22166 0.8066 0.0
O347 O 0.30234 0.16853 0.77574 0.0
O348 O 0.28378 0.19571 0.84155 0.0
O349 O 0.3639 0.15556 0.80314 0.0
O350 O 0.35086 0.18616 0.8645 0.0
O351 O 0.30758 0.13397 0.83829 0.0
C352 C 0.97901 0.26635 0.94554 0.0
C353 C 0.04205 0.26201 0.91841 0.0
C354 C 0.01133 0.3056 0.84737 0.0
Mg355 Mg 0.99993 0.23502 0.91058 0.0
O356 O 0.98784 0.25616 0.89093 0.0
Mg357 Mg 0.99639 0.28814 0.897 0.0
Mg358 Mg 0.99676 0.25368 0.85913 0.0
O359 O 0.00555 0.25121 0.82751 0.0
Mg360 Mg 0.99697 0.27311 0.80693 0.0
Mg361 Mg 0.99645 0.21955 0.82114 0.0
C362 C 0.98432 0.20205 0.87115 0.0
C363 C 0.03962 0.22138 0.85562 0.0
O364 O 0.98163 0.28305 0.93233 0.0
O365 O 0.98442 0.24645 0.94024 0.0
O366 O 0.03058 0.27938 0.91383 0.0
O367 O 0.03419 0.24247 0.91531 0.0
O368 O 0.99045 0.20502 0.89191 0.0
O369 O 0.98276 0.21819 0.85698 0.0
C370 C 0.95385 0.28588 0.86129 0.0
O371 O 0.96331 0.26995 0.85096 0.0
O372 O 0.96279 0.29522 0.87894 0.0
O373 O 0.01231 0.22372 0.78597 0.0
O374 O 0.01584 0.26066 0.7801 0.0
O375 O 0.96285 0.2303 0.80458 0.0
C376 C 0.019 0.24036 0.77445 0.0
O377 O 0.96285 0.26695 0.79798 0.0
O378 O 0.00692 0.30274 0.82619 0.0
C379 C 0.95322 0.24799 0.79732 0.0
O380 O 0.0104 0.28933 0.86136 0.0
O381 O 0.03077 0.23732 0.8666 0.0
O382 O 0.02968 0.21203 0.83855 0.0
C383 C 0.47799 0.77052 0.442 0.0
C384 C 0.54272 0.76402 0.4187 0.0
C385 C 0.51594 0.80798 0.34555 0.0
Mg386 Mg 0.50012 0.73813 0.40891 0.0
O387 O 0.49022 0.75931 0.38822 0.0
Mg388 Mg 0.49896 0.79118 0.39449 0.0
Mg389 Mg 0.50057 0.75638 0.35693 0.0
O390 O 0.51062 0.75355 0.32573 0.0
Mg391 Mg 0.5028 0.77538 0.30481 0.0
Mg392 Mg 0.50128 0.72197 0.3192 0.0
C393 C 0.48636 0.70513 0.36888 0.0
C394 C 0.54341 0.72369 0.35516 0.0
O395 O 0.48218 0.78687 0.42884 0.0
O396 O 0.48296 0.75034 0.43733 0.0
O397 O 0.53218 0.78178 0.41331 0.0
O398 O 0.53427 0.74474 0.41544 0.0
O399 O 0.49098 0.70824 0.38996 0.0
O400 O 0.48627 0.72108 0.35446 0.0
C401 C 0.45786 0.78923 0.35699 0.0
O402 O 0.46747 0.77302 0.34723 0.0
O403 O 0.46633 0.79865 0.37482 0.0
O404 O 0.51816 0.72575 0.28453 0.0
O405 O 0.52223 0.76262 0.27854 0.0
O406 O 0.46837 0.7329 0.30139 0.0
C407 C 0.52528 0.74225 0.27306 0.0
O408 O 0.46882 0.76955 0.29497 0.0
O409 O 0.51223 0.80503 0.32427 0.0
C410 C 0.45907 0.75066 0.29383 0.0
O411 O 0.5146 0.79179 0.35957 0.0
O412 O 0.53426 0.73967 0.36585 0.0
O413 O 0.53393 0.71438 0.33781 0.0
C414 C 0.98682 0.73776 0.55162 0.0
C415 C 0.04955 0.75261 0.58034 0.0
C416 C 0.0266 0.70335 0.6509 0.0
Mg417 Mg 0.0041 0.77275 0.58656 0.0
O418 O 0.9973 0.75039 0.60671 0.0
Mg419 Mg 0.00914 0.71979 0.60105 0.0
Mg420 Mg 0.00788 0.75399 0.63873 0.0
O421 O 0.01801 0.75744 0.67067 0.0
Mg422 Mg 0.01178 0.7348 0.69084 0.0
Mg423 Mg 0.00685 0.78828 0.67689 0.0
C424 C 0.98771 0.80372 0.62595 0.0
C425 C 0.04791 0.79034 0.64322 0.0
O426 O 0.99253 0.72225 0.56548 0.0
O427 O 0.98915 0.7585 0.55637 0.0
O428 O 0.04133 0.73356 0.58519 0.0
O429 O 0.03875 0.77059 0.58269 0.0
O430 O 0.99115 0.80097 0.6049 0.0
O431 O 0.99108 0.78814 0.64053 0.0
C432 C 0.96799 0.71758 0.63508 0.0
O433 O 0.97642 0.73443 0.64575 0.0
O434 O 0.97713 0.70897 0.6179 0.0
O435 O 0.02472 0.78519 0.71271 0.0
O436 O 0.031 0.74856 0.71841 0.0
O437 O 0.97525 0.77507 0.69299 0.0
C438 C 0.03297 0.769 0.72442 0.0
O439 O 0.97778 0.7385 0.6993 0.0
O440 O 0.02258 0.70575 0.67188 0.0
C441 C 0.96719 0.7568 0.70023 0.0
O442 O 0.02462 0.71976 0.63706 0.0
O443 O 0.03979 0.77359 0.63207 0.0
O444 O 0.03833 0.79867 0.66019 0.0
C445 C 0.9465 0.02543 0.23151 0.0
C446 C 0.92911 0.95986 0.25171 0.0
C447 C 0.8554 0.97449 0.19667 0.0
Mg448 Mg 0.91581 0.00656 0.26728 0.0
O449 O 0.89477 0.00802 0.2437 0.0
Mg450 Mg 0.90218 0.99421 0.21414 0.0
Mg451 Mg 0.86496 0.99445 0.24709 0.0
O452 O 0.83495 0.98158 0.25023 0.0
Mg453 Mg 0.81381 0.98576 0.22679 0.0
Mg454 Mg 0.82776 0.9929 0.28103 0.0
C455 C 0.87446 0.01905 0.29628 0.0
C456 C 0.86761 0.95708 0.28663 0.0
O457 O 0.93441 0.01544 0.21627 0.0
O458 O 0.94202 0.02508 0.25244 0.0
O459 O 0.92244 0.96489 0.23153 0.0
O460 O 0.92611 0.97284 0.26835 0.0
O461 O 0.89548 0.01808 0.29435 0.0
O462 O 0.86061 0.01336 0.28028 0.0
C463 C 0.86298 0.03122 0.20721 0.0
O464 O 0.85359 0.0233 0.22453 0.0
O465 O 0.88112 0.02319 0.20016 0.0
O466 O 0.79567 0.97023 0.27721 0.0
O467 O 0.79094 0.96265 0.23996 0.0
O468 O 0.80635 0.02156 0.26754 0.0
C469 C 0.7855 0.96025 0.26048 0.0
O470 O 0.79781 0.01786 0.23082 0.0
O471 O 0.83453 0.97804 0.19808 0.0
C472 C 0.79632 0.0283 0.24952 0.0
O473 O 0.86877 0.97548 0.21408 0.0
O474 O 0.87687 0.96508 0.26931 0.0
O475 O 0.8494 0.96472 0.2936 0.0
C476 C 0.25897 0.94595 0.98682 0.0
C477 C 0.21476 0.92452 0.03544 0.0
C478 C 0.19739 0.85396 0.98666 0.0
Mg479 Mg 0.26204 0.91235 0.02658 0.0
O480 O 0.25392 0.89322 0.00279 0.0
Mg481 Mg 0.22599 0.90071 0.98518 0.0
Mg482 Mg 0.24681 0.86218 0.01166 0.0
O483 O 0.23956 0.83153 0.02082 0.0
Mg484 Mg 0.22609 0.81165 0.0005 0.0
Mg485 Mg 0.26794 0.82347 0.03704 0.0
C486 C 0.29382 0.87153 0.03885 0.0
C487 C 0.24118 0.86015 0.06565 0.0
O488 O 0.24388 0.93384 0.97688 0.0
O489 O 0.26825 0.94076 0.00586 0.0
O490 O 0.21047 0.91943 0.01478 0.0
O491 O 0.2334 0.92002 0.04502 0.0
O492 O 0.28861 0.89211 0.04127 0.0
O493 O 0.28196 0.85798 0.02653 0.0
C494 C 0.25358 0.86342 0.95763 0.0
O495 O 0.25692 0.85278 0.97614 0.0
O496 O 0.24262 0.88165 0.95682 0.0
O497 O 0.25095 0.78968 0.04625 0.0
O498 O 0.21982 0.78613 0.02436 0.0
O499 O 0.2805 0.80455 0.00613 0.0
C500 C 0.23305 0.77926 0.0402 0.0
O501 O 0.25228 0.79834 0.9813 0.0
O502 O 0.19962 0.83269 0.98602 0.0
C503 C 0.27256 0.79601 0.98768 0.0
O504 O 0.21209 0.86659 0.99635 0.0
O505 O 0.23639 0.87089 0.04745 0.0
O506 O 0.25304 0.8425 0.06583 0.0
C507 C 0.05851 0.52612 0.26499 0.0
C508 C 0.0779 0.45874 0.25855 0.0
C509 C 0.15197 0.48226 0.30451 0.0
Mg510 Mg 0.08898 0.50096 0.23264 0.0
O511 O 0.11027 0.50901 0.25455 0.0
Mg512 Mg 0.10451 0.50075 0.28665 0.0
Mg513 Mg 0.14044 0.49628 0.25206 0.0
O514 O 0.1706 0.4841 0.24981 0.0
Mg515 Mg 0.19219 0.49093 0.27215 0.0
Mg516 Mg 0.17654 0.4921 0.21774 0.0
C517 C 0.12861 0.51041 0.2002 0.0
C518 C 0.13881 0.45351 0.21789 0.0
O519 O 0.07113 0.52012 0.28186 0.0
O520 O 0.06279 0.52142 0.24451 0.0
O521 O 0.08471 0.4687 0.27664 0.0
O522 O 0.08023 0.46725 0.23914 0.0
O523 O 0.10788 0.50728 0.20289 0.0
O524 O 0.14299 0.51055 0.21669 0.0
C525 C 0.14292 0.53916 0.28572 0.0
O526 O 0.15165 0.52873 0.26942 0.0
O527 O 0.12529 0.53214 0.29482 0.0
O528 O 0.20905 0.47135 0.22251 0.0
O529 O 0.21533 0.46743 0.26008 0.0
O530 O 0.19706 0.52316 0.22795 0.0
C531 C 0.21995 0.4632 0.2396 0.0
O532 O 0.2061 0.52325 0.26479 0.0
O533 O 0.17283 0.48524 0.30224 0.0
C534 C 0.20694 0.53201 0.24524 0.0
O535 O 0.13811 0.48253 0.28756 0.0
O536 O 0.12951 0.46295 0.23453 0.0
O537 O 0.15606 0.46162 0.20917 0.0
C538 C 0.76317 0.55714 0.02962 0.0
C539 C 0.75589 0.57119 0.9592 0.0
C540 C 0.80056 0.64603 0.97787 0.0
Mg541 Mg 0.7303 0.58555 0.00014 0.0
O542 O 0.75138 0.60749 0.00674 0.0
Mg543 Mg 0.78312 0.60067 0.00069 0.0
Mg544 Mg 0.7487 0.63672 0.99106 0.0
O545 O 0.74649 0.66611 0.97615 0.0
Mg546 Mg 0.76833 0.68727 0.98383 0.0
Mg547 Mg 0.71503 0.6738 0.98216 0.0
C548 C 0.69766 0.62686 0.00581 0.0
C549 C 0.71619 0.63252 0.94652 0.0
O550 O 0.77904 0.56965 0.02331 0.0
O551 O 0.74295 0.56038 0.02321 0.0
O552 O 0.77361 0.57825 0.96947 0.0
O553 O 0.73684 0.57451 0.96694 0.0
O554 O 0.70087 0.60572 0.00505 0.0
O555 O 0.71343 0.64111 0.00357 0.0
C556 C 0.78041 0.64227 0.03593 0.0
O557 O 0.76477 0.65025 0.02329 0.0
O558 O 0.79007 0.62394 0.03115 0.0
O559 O 0.72081 0.70578 0.95941 0.0
O560 O 0.75784 0.71037 0.95881 0.0
O561 O 0.72442 0.69574 0.01288 0.0
C562 C 0.73817 0.71582 0.95247 0.0
O563 O 0.76063 0.7029 0.01541 0.0
O564 O 0.79801 0.66721 0.97962 0.0
C565 C 0.7412 0.70508 0.02273 0.0
O566 O 0.7841 0.63251 0.97911 0.0
O567 O 0.73218 0.62343 0.95796 0.0
O568 O 0.70756 0.651 0.95237 0.0
C569 C 0.26542 0.05755 0.52237 0.0
C570 C 0.25492 0.07335 0.45265 0.0
C571 C 0.30225 0.14759 0.47339 0.0
Mg572 Mg 0.23188 0.08727 0.49539 0.0
O573 O 0.25373 0.10858 0.50153 0.0
Mg574 Mg 0.28483 0.10135 0.4934 0.0
Mg575 Mg 0.25092 0.13859 0.48763 0.0
O576 O 0.24857 0.16875 0.47444 0.0
Mg577 Mg 0.27101 0.18915 0.48268 0.0
Mg578 Mg 0.21754 0.17655 0.48224 0.0
C579 C 0.20042 0.12884 0.50439 0.0
C580 C 0.21607 0.13687 0.4447 0.0
O581 O 0.28119 0.06973 0.51528 0.0
O582 O 0.24501 0.06142 0.51726 0.0
O583 O 0.27319 0.08015 0.462 0.0
O584 O 0.23641 0.07671 0.46157 0.0
O585 O 0.20319 0.10771 0.5025 0.0
O586 O 0.21634 0.14294 0.50216 0.0
C587 C 0.28531 0.14128 0.53075 0.0
O588 O 0.26906 0.15033 0.5198 0.0
O589 O 0.29402 0.12305 0.52417 0.0
O590 O 0.22307 0.20944 0.46082 0.0
O591 O 0.26009 0.21359 0.4591 0.0
O592 O 0.22834 0.19696 0.51357 0.0
C593 C 0.24032 0.21959 0.45375 0.0
O594 O 0.26462 0.20361 0.51526 0.0
O595 O 0.30015 0.16861 0.47696 0.0
C596 C 0.24548 0.20569 0.52331 0.0
O597 O 0.28555 0.13423 0.47338 0.0
O598 O 0.23241 0.12707 0.45488 0.0
O599 O 0.2082 0.15528 0.45176 0.0
C600 C 0.44225 0.53224 0.73075 0.0
C601 C 0.42733 0.46558 0.74961 0.0
C602 C 0.35214 0.477 0.69768 0.0
Mg603 Mg 0.41332 0.51139 0.76703 0.0
O604 O 0.39153 0.51281 0.74414 0.0
Mg605 Mg 0.39848 0.50009 0.71397 0.0
Mg606 Mg 0.36233 0.49805 0.74804 0.0
O607 O 0.33304 0.48381 0.75183 0.0
Mg608 Mg 0.31106 0.48625 0.72905 0.0
Mg609 Mg 0.32627 0.49441 0.78297 0.0
C610 C 0.37245 0.5217 0.79755 0.0
C611 C 0.36719 0.45963 0.78634 0.0
O612 O 0.43007 0.52209 0.7157 0.0
O613 O 0.43831 0.53142 0.75181 0.0
O614 O 0.42004 0.47112 0.72979 0.0
O615 O 0.42458 0.47786 0.76682 0.0
O616 O 0.3934 0.52146 0.79501 0.0
O617 O 0.35835 0.516 0.78177 0.0
C618 C 0.35795 0.53584 0.70924 0.0
O619 O 0.34925 0.52692 0.72647 0.0
O620 O 0.37622 0.52882 0.70151 0.0
O621 O 0.29487 0.47083 0.78001 0.0
O622 O 0.28959 0.46224 0.74309 0.0
O623 O 0.30359 0.52249 0.76998 0.0
C624 C 0.28466 0.46014 0.76378 0.0
O625 O 0.29406 0.51767 0.73354 0.0
O626 O 0.33113 0.47885 0.69978 0.0
C627 C 0.29279 0.52846 0.75208 0.0
O628 O 0.3659 0.47997 0.71454 0.0
O629 O 0.37569 0.4686 0.76908 0.0
O630 O 0.3491 0.46657 0.79428 0.0
C631 C 0.75946 0.44511 0.48606 0.0
C632 C 0.71637 0.42608 0.53637 0.0
C633 C 0.69775 0.35348 0.48904 0.0
Mg634 Mg 0.76312 0.41273 0.52681 0.0
O635 O 0.75415 0.39304 0.50376 0.0
Mg636 Mg 0.72592 0.40029 0.4866 0.0
Mg637 Mg 0.74737 0.36218 0.51327 0.0
O638 O 0.74048 0.33157 0.52296 0.0
Mg639 Mg 0.72738 0.31161 0.50248 0.0
Mg640 Mg 0.7693 0.32385 0.53858 0.0
C641 C 0.79498 0.37204 0.53929 0.0
C642 C 0.74272 0.36064 0.5674 0.0
O643 O 0.74388 0.43302 0.47694 0.0
O644 O 0.76922 0.44026 0.50496 0.0
O645 O 0.71154 0.41999 0.51609 0.0
O646 O 0.73515 0.42174 0.54576 0.0
O647 O 0.78989 0.39269 0.5414 0.0
O648 O 0.78283 0.35832 0.52746 0.0
C649 C 0.75241 0.36235 0.45896 0.0
O650 O 0.75669 0.3522 0.47759 0.0
O651 O 0.74127 0.38045 0.45824 0.0
O652 O 0.75285 0.28991 0.5482 0.0
O653 O 0.72188 0.2857 0.52617 0.0
O654 O 0.78158 0.30481 0.50759 0.0
C655 C 0.73519 0.27912 0.54208 0.0
O656 O 0.75344 0.29903 0.48261 0.0
O657 O 0.70049 0.33227 0.4884 0.0
C658 C 0.77367 0.29648 0.48904 0.0
O659 O 0.71217 0.36644 0.49874 0.0
O660 O 0.73775 0.3713 0.54919 0.0
O661 O 0.7546 0.343 0.56751 0.0
C662 C 0.5561 0.0246 0.76129 0.0
C663 C 0.57731 0.95804 0.7592 0.0
C664 C 0.6505 0.98547 0.80452 0.0
Mg665 Mg 0.58811 0.99868 0.73113 0.0
O666 O 0.60868 0.00922 0.75279 0.0
Mg667 Mg 0.60266 0.00232 0.78508 0.0
Mg668 Mg 0.63921 0.99708 0.75144 0.0
O669 O 0.66958 0.98526 0.74998 0.0
Mg670 Mg 0.69126 0.99228 0.77211 0.0
Mg671 Mg 0.6757 0.99134 0.71754 0.0
C672 C 0.62785 0.00857 0.69883 0.0
C673 C 0.63815 0.95277 0.71942 0.0
O674 O 0.56897 0.02061 0.77861 0.0
O675 O 0.56066 0.01837 0.74131 0.0
O676 O 0.5836 0.9694 0.77662 0.0
O677 O 0.5802 0.96508 0.7393 0.0
O678 O 0.60724 0.00459 0.70143 0.0
O679 O 0.64207 0.00985 0.71544 0.0
C680 C 0.64029 0.04148 0.78307 0.0
O681 O 0.64978 0.03038 0.76767 0.0
O682 O 0.62244 0.03456 0.79179 0.0
O683 O 0.70782 0.97028 0.72347 0.0
O684 O 0.71359 0.96738 0.7612 0.0
O685 O 0.69667 0.02257 0.72624 0.0
C686 C 0.71828 0.96233 0.74092 0.0
O687 O 0.70637 0.02359 0.76295 0.0
O688 O 0.67139 0.98832 0.80224 0.0
C689 C 0.70714 0.03164 0.74307 0.0
O690 O 0.63675 0.98488 0.78747 0.0
O691 O 0.62883 0.96287 0.73561 0.0
O692 O 0.65526 0.96064 0.71028 0.0
C693 C 0.48962 0.24081 0.05361 0.0
C694 C 0.55322 0.25011 0.08225 0.0
C695 C 0.52747 0.2053 0.15344 0.0
Mg696 Mg 0.51001 0.27436 0.08849 0.0
O697 O 0.49993 0.25289 0.10828 0.0
Mg698 Mg 0.50998 0.22146 0.10317 0.0
Mg699 Mg 0.51023 0.25635 0.14038 0.0
O700 O 0.52063 0.25993 0.17225 0.0
Mg701 Mg 0.51416 0.23796 0.19316 0.0
Mg702 Mg 0.51061 0.2913 0.17777 0.0
C703 C 0.49499 0.30707 0.12724 0.0
C704 C 0.55104 0.29172 0.14353 0.0
O705 O 0.49376 0.22488 0.06754 0.0
O706 O 0.49397 0.26128 0.05827 0.0
O707 O 0.54304 0.23211 0.08716 0.0
O708 O 0.54442 0.26914 0.08474 0.0
O709 O 0.50028 0.30406 0.1067 0.0
O710 O 0.49455 0.29107 0.14162 0.0
C711 C 0.46854 0.222 0.13693 0.0
O712 O 0.47801 0.23822 0.14775 0.0
O713 O 0.47718 0.213 0.11971 0.0
O714 O 0.52894 0.28874 0.2132 0.0
O715 O 0.53355 0.25211 0.22051 0.0
O716 O 0.47889 0.27927 0.19451 0.0
C717 C 0.53641 0.27271 0.22556 0.0
O718 O 0.48045 0.24281 0.20184 0.0
O719 O 0.52402 0.20822 0.1745 0.0
C720 C 0.47038 0.26144 0.20226 0.0
O721 O 0.52549 0.22145 0.13929 0.0
O722 O 0.54265 0.27468 0.13313 0.0
O723 O 0.54187 0.3007 0.1604 0.0
C724 C 0.06665 0.33072 0.61122 0.0
C725 C 0.05652 0.35021 0.61896 0.0
C726 C 0.0636 0.31042 0.62216 0.0
C727 C 0.0266 0.28141 0.65995 0.0
H728 H 0.0791 0.2527 0.68522 0.0
C729 C 0.04894 0.2484 0.74874 0.0
C730 C 0.02949 0.23669 0.75294 0.0
C731 C 0.05514 0.25186 0.72668 0.0
C732 C 0.06427 0.26016 0.67786 0.0
H733 H 0.03497 0.36361 0.64392 0.0
H734 H 0.02949 0.32817 0.66284 0.0
H735 H 0.08264 0.28152 0.65654 0.0
H736 H 0.00243 0.21739 0.73796 0.0
H737 H 0.01309 0.22374 0.69906 0.0
H738 H 0.0083 0.26147 0.68234 0.0
C739 C 0.03973 0.3286 0.64828 0.0
C740 C 0.06629 0.27662 0.66145 0.0
C741 C 0.04306 0.34893 0.63762 0.0
C742 C 0.01761 0.22634 0.73501 0.0
C743 C 0.02364 0.23009 0.71281 0.0
C744 C 0.02456 0.26489 0.67618 0.0
C745 C 0.05003 0.30919 0.64072 0.0
C746 C 0.04755 0.28821 0.65334 0.0
C747 C 0.0417 0.24405 0.70845 0.0
C748 C 0.04347 0.25502 0.68625 0.0
H749 H 0.07721 0.33122 0.59692 0.0
H750 H 0.0718 0.2957 0.61611 0.0
H751 H 0.01189 0.28992 0.65366 0.0
H752 H 0.05825 0.25657 0.76241 0.0
H753 H 0.06905 0.2628 0.72398 0.0
C754 C 0.62692 0.73146 0.60278 0.0
C755 C 0.63629 0.71011 0.60255 0.0
C756 C 0.61656 0.74006 0.58314 0.0
C757 C 0.59311 0.72303 0.52699 0.0
H758 H 0.61102 0.78176 0.50739 0.0
C759 C 0.5635 0.78206 0.45094 0.0
C760 C 0.5623 0.76533 0.43426 0.0
C761 C 0.57568 0.77855 0.47114 0.0
C762 C 0.6059 0.76536 0.51274 0.0
H763 H 0.64118 0.68059 0.58231 0.0
H764 H 0.62307 0.69529 0.54843 0.0
H765 H 0.62243 0.7687 0.54526 0.0
H766 H 0.57565 0.73364 0.42399 0.0
H767 H 0.59731 0.72784 0.4589 0.0
H768 H 0.57698 0.7194 0.49456 0.0
C769 C 0.62359 0.70551 0.56353 0.0
C770 C 0.6122 0.75798 0.53443 0.0
C771 C 0.63403 0.69708 0.58293 0.0
C772 C 0.57607 0.74669 0.43667 0.0
C773 C 0.58829 0.74326 0.45674 0.0
C774 C 0.58703 0.73029 0.50539 0.0
C775 C 0.61518 0.72727 0.56319 0.0
C776 C 0.6062 0.73654 0.54159 0.0
C777 C 0.5869 0.75839 0.47473 0.0
C778 C 0.59372 0.75132 0.49785 0.0
H779 H 0.62872 0.74191 0.61767 0.0
H780 H 0.61006 0.75682 0.5834 0.0
H781 H 0.58781 0.70664 0.53215 0.0
H782 H 0.55305 0.79661 0.44956 0.0
H783 H 0.57449 0.79056 0.4847 0.0
C784 C 0.9154 0.16768 0.62303 0.0
C785 C 0.93363 0.1534 0.62568 0.0
C786 C 0.9094 0.18143 0.64093 0.0
C787 C 0.91525 0.18134 0.70271 0.0
H788 H 0.89843 0.24343 0.70069 0.0
C789 C 0.93148 0.25809 0.76266 0.0
C790 C 0.93334 0.24522 0.78236 0.0
C791 C 0.9201 0.24974 0.74352 0.0
C792 C 0.90299 0.22604 0.70159 0.0
H793 H 0.96103 0.14369 0.64796 0.0
H794 H 0.95122 0.16817 0.67866 0.0
H795 H 0.90509 0.22351 0.66559 0.0
H796 H 0.92066 0.21626 0.79925 0.0
H797 H 0.89912 0.20261 0.76648 0.0
H798 H 0.91511 0.18374 0.73828 0.0
C799 C 0.94103 0.16826 0.66324 0.0
C800 C 0.90666 0.21463 0.68142 0.0
C801 C 0.94683 0.15446 0.64559 0.0
C802 C 0.92001 0.22619 0.78403 0.0
C803 C 0.90793 0.21823 0.76509 0.0
C804 C 0.91187 0.19269 0.72273 0.0
C805 C 0.92166 0.18104 0.66155 0.0
C806 C 0.91391 0.19247 0.68196 0.0
C807 C 0.90988 0.22864 0.74399 0.0
C808 C 0.90674 0.21553 0.72262 0.0
H809 H 0.90485 0.16695 0.60787 0.0
H810 H 0.89449 0.19124 0.63913 0.0
H811 H 0.92008 0.16401 0.7036 0.0
H812 H 0.94131 0.27306 0.76093 0.0
H813 H 0.92178 0.25864 0.72786 0.0
C814 C 0.39924 0.78386 0.62781 0.0
C815 C 0.38629 0.80287 0.6307 0.0
C816 C 0.41208 0.78187 0.6088 0.0
C817 C 0.41241 0.80341 0.55077 0.0
H818 H 0.46814 0.77227 0.54824 0.0
C819 C 0.46036 0.79647 0.4691 0.0
C820 C 0.46815 0.77513 0.46393 0.0
C821 C 0.45189 0.80086 0.4902 0.0
C822 C 0.45253 0.78093 0.54875 0.0
H823 H 0.37805 0.8355 0.61749 0.0
H824 H 0.40104 0.83247 0.58499 0.0
H825 H 0.45184 0.77869 0.58474 0.0
H826 H 0.47322 0.74169 0.47695 0.0
H827 H 0.45837 0.74942 0.51363 0.0
H828 H 0.41304 0.80559 0.51486 0.0
C829 C 0.40069 0.8187 0.59671 0.0
C830 C 0.4432 0.78458 0.5696 0.0
C831 C 0.38765 0.82051 0.61539 0.0
C832 C 0.46728 0.7583 0.48031 0.0
C833 C 0.45898 0.76275 0.50143 0.0
C834 C 0.4218 0.79991 0.53002 0.0
C835 C 0.41231 0.799 0.59267 0.0
C836 C 0.42298 0.7958 0.57082 0.0
C837 C 0.45121 0.78406 0.50658 0.0
C838 C 0.44186 0.78853 0.52877 0.0
H839 H 0.39835 0.77003 0.6394 0.0
H840 H 0.4208 0.76644 0.60615 0.0
H841 H 0.39655 0.81161 0.551 0.0
H842 H 0.46086 0.80982 0.45691 0.0
H843 H 0.44609 0.81748 0.49381 0.0
C844 C 0.04995 0.65826 0.86205 0.0
C845 C 0.06129 0.65704 0.88309 0.0
C846 C 0.0475 0.67863 0.85106 0.0
C847 C 0.07416 0.73108 0.84268 0.0
H848 H 0.01774 0.74596 0.8136 0.0
C849 C 0.02993 0.78274 0.76363 0.0
C850 C 0.04277 0.77304 0.7471 0.0
C851 C 0.03472 0.77841 0.78647 0.0
C852 C 0.03355 0.7426 0.82204 0.0
H853 H 0.07909 0.6762 0.9091 0.0
H854 H 0.07537 0.71189 0.88932 0.0
H855 H 0.01954 0.71713 0.84227 0.0
H856 H 0.07211 0.7539 0.74115 0.0
H857 H 0.08079 0.74674 0.78075 0.0
H858 H 0.08841 0.75542 0.82118 0.0
C859 C 0.0681 0.69704 0.88165 0.0
C860 C 0.03457 0.72588 0.83829 0.0
C861 C 0.07019 0.67666 0.89291 0.0
C862 C 0.06206 0.76161 0.75369 0.0
C863 C 0.06702 0.75755 0.77643 0.0
C864 C 0.07318 0.74771 0.82622 0.0
C865 C 0.05663 0.69817 0.86068 0.0
C866 C 0.055 0.71926 0.84794 0.0
C867 C 0.05251 0.76453 0.79293 0.0
C868 C 0.05299 0.75285 0.81495 0.0
H869 H 0.04283 0.64348 0.8541 0.0
H870 H 0.03886 0.67902 0.83472 0.0
H871 H 0.09011 0.72627 0.84995 0.0
H872 H 0.01484 0.79145 0.75888 0.0
H873 H 0.02337 0.78418 0.79885 0.0
C874 C 0.91401 0.69655 0.36215 0.0
C875 C 0.89546 0.68372 0.3673 0.0
C876 C 0.93123 0.69952 0.37825 0.0
C877 C 0.95469 0.68115 0.43321 0.0
H878 H 0.95322 0.74371 0.44943 0.0
C879 C 0.98385 0.74547 0.51043 0.0
C880 C 0.97954 0.73136 0.52856 0.0
C881 C 0.97901 0.73856 0.48832 0.0
C882 C 0.95444 0.72628 0.44497 0.0
H883 H 0.88122 0.66204 0.392 0.0
H884 H 0.91148 0.66683 0.41993 0.0
H885 H 0.93769 0.73161 0.4131 0.0
H886 H 0.96653 0.69919 0.53795 0.0
H887 H 0.95682 0.68761 0.49948 0.0
H888 H 0.97106 0.6757 0.46525 0.0
C889 C 0.91269 0.67475 0.40364 0.0
C890 C 0.94555 0.71937 0.42409 0.0
C891 C 0.8953 0.67217 0.38779 0.0
C892 C 0.97001 0.71038 0.52424 0.0
C893 C 0.96477 0.70364 0.50216 0.0
C894 C 0.96396 0.68811 0.45398 0.0
C895 C 0.93026 0.68925 0.3994 0.0
C896 C 0.94482 0.69668 0.41844 0.0
C897 C 0.96938 0.71757 0.4839 0.0
C898 C 0.96307 0.71064 0.46049 0.0
H899 H 0.91445 0.70564 0.34643 0.0
H900 H 0.94465 0.7108 0.37471 0.0
H901 H 0.95434 0.66356 0.42911 0.0
H902 H 0.99161 0.76158 0.51327 0.0
H903 H 0.98309 0.7496 0.4747 0.0
C904 C 0.95026 0.84839 0.85518 0.0
C905 C 0.93424 0.85111 0.87138 0.0
C906 C 0.94816 0.83135 0.83918 0.0
C907 C 0.90836 0.80306 0.80465 0.0
H908 H 0.95624 0.76298 0.79174 0.0
C909 C 0.9459 0.74181 0.73202 0.0
C910 C 0.94845 0.75827 0.71548 0.0
C911 C 0.93583 0.747 0.75215 0.0
C912 C 0.94241 0.77361 0.79533 0.0
H913 H 0.90359 0.83813 0.88382 0.0
H914 H 0.89952 0.80863 0.85508 0.0
H915 H 0.95737 0.78397 0.82702 0.0
H916 H 0.93862 0.7915 0.70521 0.0
H917 H 0.92084 0.8004 0.7401 0.0
H918 H 0.89435 0.79411 0.77204 0.0
C919 C 0.91389 0.81943 0.85521 0.0
C920 C 0.94318 0.78572 0.81546 0.0
C921 C 0.91631 0.83616 0.87165 0.0
C922 C 0.93732 0.77859 0.71779 0.0
C923 C 0.92705 0.78369 0.73783 0.0
C924 C 0.90777 0.79122 0.78426 0.0
C925 C 0.92972 0.81707 0.83874 0.0
C926 C 0.92653 0.80103 0.81996 0.0
C927 C 0.92779 0.76855 0.75583 0.0
C928 C 0.92515 0.77689 0.77912 0.0
H929 H 0.96415 0.85977 0.85458 0.0
H930 H 0.96046 0.82993 0.8265 0.0
H931 H 0.89542 0.81494 0.80775 0.0
H932 H 0.95394 0.72582 0.73068 0.0
H933 H 0.93622 0.73488 0.76563 0.0
C934 C 0.12257 0.78833 0.40088 0.0
C935 C 0.14522 0.79297 0.39938 0.0
C936 C 0.11401 0.78206 0.42155 0.0
C937 C 0.12906 0.75721 0.4764 0.0
H938 H 0.08051 0.79139 0.49904 0.0
C939 C 0.07537 0.73568 0.55327 0.0
C940 C 0.06944 0.75391 0.56667 0.0
C941 C 0.08832 0.73894 0.53452 0.0
C942 C 0.09415 0.78178 0.49296 0.0
H943 H 0.17672 0.7939 0.41821 0.0
H944 H 0.16182 0.78267 0.45389 0.0
H945 H 0.09379 0.79923 0.46152 0.0
H946 H 0.07508 0.78915 0.57288 0.0
H947 H 0.09754 0.79474 0.5402 0.0
H948 H 0.12916 0.73957 0.50785 0.0
C949 C 0.15068 0.78406 0.43923 0.0
C950 C 0.10154 0.78609 0.47141 0.0
C951 C 0.15914 0.79071 0.4188 0.0
C952 C 0.07902 0.77483 0.56266 0.0
C953 C 0.09176 0.7781 0.54387 0.0
C954 C 0.12138 0.75261 0.49785 0.0
C955 C 0.12805 0.77983 0.44087 0.0
C956 C 0.11919 0.77401 0.46301 0.0
C957 C 0.09548 0.76045 0.52896 0.0
C958 C 0.10405 0.76508 0.50642 0.0
H959 H 0.11147 0.78986 0.38621 0.0
H960 H 0.09646 0.77885 0.42243 0.0
H961 H 0.14268 0.74763 0.47024 0.0
H962 H 0.0683 0.71934 0.5559 0.0
H963 H 0.09111 0.72503 0.52334 0.0
C964 C 0.6544 0.0813 0.36269 0.0
C965 C 0.63204 0.07664 0.35719 0.0
C966 C 0.67009 0.08148 0.34608 0.0
C967 C 0.68208 0.05723 0.29156 0.0
H968 H 0.72961 0.10079 0.29334 0.0
C969 C 0.7586 0.04302 0.23939 0.0
C970 C 0.77848 0.04481 0.25237 0.0
C971 C 0.73911 0.05243 0.24708 0.0
C972 C 0.71649 0.08847 0.29257 0.0
H973 H 0.60867 0.06879 0.32966 0.0
H974 H 0.63636 0.06867 0.30052 0.0
H975 H 0.69809 0.10588 0.31715 0.0
H976 H 0.79397 0.06012 0.28213 0.0
H977 H 0.76036 0.07649 0.2954 0.0
H978 H 0.70094 0.03916 0.26795 0.0
C979 C 0.64159 0.0723 0.31782 0.0
C980 C 0.6984 0.09141 0.30621 0.0
C981 C 0.62573 0.07244 0.33448 0.0
C982 C 0.77894 0.05836 0.27175 0.0
C983 C 0.75954 0.06779 0.27938 0.0
C984 C 0.70027 0.05419 0.27803 0.0
C985 C 0.66397 0.07679 0.32348 0.0
C986 C 0.6813 0.07549 0.30638 0.0
C987 C 0.73914 0.06396 0.26779 0.0
C988 C 0.71806 0.06942 0.27885 0.0
H989 H 0.65989 0.08476 0.37995 0.0
H990 H 0.68719 0.0847 0.3511 0.0
H991 H 0.66927 0.04458 0.2914 0.0
H992 H 0.75761 0.03265 0.22441 0.0
H993 H 0.7238 0.04957 0.23743 0.0
C994 C 0.30099 0.09875 0.86676 0.0
C995 C 0.30575 0.12024 0.87514 0.0
C996 C 0.29891 0.0809 0.88133 0.0
C997 C 0.28649 0.06643 0.93925 0.0
H998 H 0.30722 0.00861 0.92004 0.0
C999 C 0.27606 0.98388 0.98899 0.0
C1000 C 0.26601 0.9667 0.97599 0.0
C1001 C 0.28299 0.00345 0.97876 0.0
C1002 C 0.30141 0.02467 0.9256 0.0
H1003 H 0.31205 0.13977 0.90558 0.0
H1004 H 0.30853 0.1082 0.93127 0.0
H1005 H 0.31696 0.04177 0.89902 0.0
H1006 H 0.25536 0.9565 0.94217 0.0
H1007 H 0.26792 0.99059 0.92424 0.0
H1008 H 0.27087 0.04903 0.96587 0.0
C1009 C 0.30629 0.10539 0.91329 0.0
C1010 C 0.30692 0.04363 0.9136 0.0
C1011 C 0.30834 0.12343 0.89859 0.0
C1012 C 0.26301 0.96946 0.9526 0.0
C1013 C 0.2703 0.98886 0.94234 0.0
C1014 C 0.28119 0.04741 0.95147 0.0
C1015 C 0.30166 0.08393 0.90473 0.0
C1016 C 0.29887 0.06461 0.9198 0.0
C1017 C 0.28036 0.00597 0.95534 0.0
C1018 C 0.28806 0.02634 0.94427 0.0
H1019 H 0.29867 0.09561 0.84883 0.0
H1020 H 0.29474 0.06472 0.8742 0.0
H1021 H 0.27996 0.08234 0.94437 0.0
H1022 H 0.27844 0.98226 0.00709 0.0
H1023 H 0.29073 0.01645 0.98906 0.0
C1024 C 0.39013 0.44527 0.32334 0.0
C1025 C 0.38073 0.439 0.34369 0.0
C1026 C 0.37808 0.44294 0.30283 0.0
C1027 C 0.33194 0.41239 0.27551 0.0
H1028 H 0.31488 0.4678 0.24669 0.0
C1029 C 0.24522 0.4328 0.25111 0.0
C1030 C 0.24005 0.45023 0.23624 0.0
C1031 C 0.2668 0.42512 0.25357 0.0
C1032 C 0.31993 0.45195 0.25378 0.0
H1033 H 0.35166 0.42486 0.35848 0.0
H1034 H 0.33086 0.42055 0.32275 0.0
H1035 H 0.34635 0.46724 0.2734 0.0
H1036 H 0.25253 0.47158 0.21027 0.0
H1037 H 0.29059 0.45819 0.21462 0.0
H1038 H 0.30481 0.3973 0.25693 0.0
C1039 C 0.34747 0.42732 0.32267 0.0
C1040 C 0.33794 0.45172 0.26922 0.0
C1041 C 0.35924 0.4301 0.34313 0.0
C1042 C 0.25619 0.45808 0.22187 0.0
C1043 C 0.27798 0.45053 0.22449 0.0
C1044 C 0.31416 0.41253 0.25982 0.0
C1045 C 0.35675 0.4337 0.30237 0.0
C1046 C 0.34309 0.43227 0.28126 0.0
C1047 C 0.28373 0.43496 0.24138 0.0
C1048 C 0.30693 0.43267 0.2501 0.0
H1049 H 0.4067 0.45211 0.3233 0.0
H1050 H 0.38542 0.4482 0.28736 0.0
H1051 H 0.33592 0.39711 0.2844 0.0
H1052 H 0.23295 0.42643 0.26226 0.0
H1053 H 0.27048 0.4132 0.26682 0.0
C1054 C 0.69084 0.40764 0.87079 0.0
C1055 C 0.70261 0.3876 0.87285 0.0
C1056 C 0.7004 0.42769 0.87806 0.0
C1057 C 0.74487 0.45289 0.91376 0.0
H1058 H 0.73421 0.50339 0.87426 0.0
C1059 C 0.77486 0.53983 0.94042 0.0
C1060 C 0.75727 0.55499 0.94057 0.0
C1061 C 0.77283 0.52009 0.92791 0.0
C1062 C 0.73743 0.48944 0.8854 0.0
H1063 H 0.73328 0.37275 0.88524 0.0
H1064 H 0.75003 0.40797 0.89814 0.0
H1065 H 0.72064 0.46658 0.86287 0.0
H1066 H 0.72502 0.56282 0.92567 0.0
H1067 H 0.72158 0.52866 0.90366 0.0
H1068 H 0.7611 0.47589 0.93658 0.0
C1069 C 0.73336 0.40807 0.89084 0.0
C1070 C 0.72955 0.46838 0.87897 0.0
C1071 C 0.72372 0.38789 0.88358 0.0
C1072 C 0.73877 0.55133 0.92599 0.0
C1073 C 0.73684 0.53175 0.91333 0.0
C1074 C 0.7528 0.47397 0.92019 0.0
C1075 C 0.72202 0.42826 0.88751 0.0
C1076 C 0.73259 0.45 0.89338 0.0
C1077 C 0.75332 0.51538 0.91512 0.0
C1078 C 0.74862 0.49259 0.90635 0.0
H1079 H 0.67444 0.40796 0.8628 0.0
H1080 H 0.69096 0.44285 0.87589 0.0
H1081 H 0.74744 0.43909 0.92525 0.0
H1082 H 0.78932 0.5422 0.95152 0.0
H1083 H 0.78595 0.50793 0.92929 0.0
C1084 C 0.63924 0.91906 0.15633 0.0
C1085 C 0.61814 0.9286 0.15668 0.0
C1086 C 0.65243 0.91755 0.17605 0.0
C1087 C 0.666 0.94712 0.22674 0.0
H1088 H 0.70036 0.89452 0.24166 0.0
C1089 C 0.74784 0.95742 0.27581 0.0
C1090 C 0.76486 0.9478 0.26374 0.0
C1091 C 0.72593 0.95029 0.27188 0.0
C1092 C 0.69084 0.90935 0.23788 0.0
H1093 H 0.59413 0.94374 0.178 0.0
H1094 H 0.61784 0.94196 0.2126 0.0
H1095 H 0.66839 0.89157 0.21542 0.0
H1096 H 0.77293 0.92162 0.24038 0.0
H1097 H 0.73522 0.90918 0.23359 0.0
H1098 H 0.68948 0.96538 0.24734 0.0
C1099 C 0.62383 0.93527 0.19703 0.0
C1100 C 0.67248 0.9076 0.22293 0.0
C1101 C 0.61033 0.93628 0.1773 0.0
C1102 C 0.76006 0.92929 0.2499 0.0
C1103 C 0.73832 0.92213 0.24607 0.0
C1104 C 0.68457 0.94895 0.24143 0.0
C1105 C 0.64503 0.92594 0.19651 0.0
C1106 C 0.66052 0.92665 0.21646 0.0
C1107 C 0.72081 0.93341 0.25592 0.0
C1108 C 0.69789 0.93027 0.24626 0.0
H1109 H 0.64562 0.91283 0.14072 0.0
H1110 H 0.66883 0.91056 0.17511 0.0
H1111 H 0.65708 0.96207 0.22195 0.0
H1112 H 0.7511 0.97184 0.28647 0.0
H1113 H 0.71289 0.95908 0.2801 0.0
C1114 C 0.21341 0.09692 0.11725 0.0
C1115 C 0.20216 0.11582 0.10915 0.0
C1116 C 0.2096 0.07623 0.10723 0.0
C1117 C 0.18952 0.04523 0.05823 0.0
H1118 H 0.17647 0.00056 0.10301 0.0
C1119 C 0.18533 0.95353 0.03322 0.0
C1120 C 0.20055 0.941 0.04641 0.0
C1121 C 0.17801 0.97414 0.04092 0.0
C1122 C 0.17994 0.01282 0.09028 0.0
H1123 H 0.17938 0.12834 0.08323 0.0
H1124 H 0.17302 0.09174 0.06511 0.0
H1125 H 0.18092 0.03945 0.11433 0.0
H1126 H 0.21723 0.93862 0.07932 0.0
H1127 H 0.20445 0.97431 0.09274 0.0
H1128 H 0.1898 0.01845 0.03438 0.0
C1129 C 0.18465 0.09312 0.0794 0.0
C1130 C 0.18252 0.03505 0.09675 0.0
C1131 C 0.18846 0.11403 0.08956 0.0
C1132 C 0.20578 0.948 0.06861 0.0
C1133 C 0.19838 0.96852 0.07633 0.0
C1134 C 0.18707 0.02289 0.05175 0.0
C1135 C 0.19444 0.07395 0.08888 0.0
C1136 C 0.18816 0.05131 0.08096 0.0
C1137 C 0.18553 0.98241 0.06204 0.0
C1138 C 0.18306 0.00633 0.06788 0.0
H1139 H 0.22409 0.09791 0.13232 0.0
H1140 H 0.21779 0.06178 0.11449 0.0
H1141 H 0.19381 0.05748 0.04577 0.0
H1142 H 0.1807 0.94851 0.01612 0.0
H1143 H 0.16766 0.98423 0.02975 0.0
C1144 C 0.35081 0.57709 0.1329 0.0
C1145 C 0.3731 0.5733 0.13928 0.0
C1146 C 0.33475 0.57852 0.14901 0.0
C1147 C 0.32151 0.56018 0.20538 0.0
H1148 H 0.27357 0.60231 0.19697 0.0
C1149 C 0.24319 0.55039 0.25535 0.0
C1150 C 0.22413 0.54902 0.24104 0.0
C1151 C 0.2627 0.5598 0.24765 0.0
C1152 C 0.28686 0.5905 0.19964 0.0
H1153 H 0.39586 0.56814 0.1679 0.0
H1154 H 0.36747 0.57028 0.19623 0.0
H1155 H 0.30608 0.60541 0.17417 0.0
H1156 H 0.20983 0.5591 0.20863 0.0
H1157 H 0.24355 0.57562 0.19536 0.0
H1158 H 0.30187 0.54458 0.23006 0.0
C1159 C 0.36262 0.57221 0.17858 0.0
C1160 C 0.30548 0.59225 0.18656 0.0
C1161 C 0.37887 0.57099 0.16237 0.0
C1162 C 0.22425 0.55974 0.22003 0.0
C1163 C 0.24367 0.56925 0.21241 0.0
C1164 C 0.30284 0.55838 0.21845 0.0
C1165 C 0.34038 0.57611 0.17204 0.0
C1166 C 0.32266 0.57663 0.18871 0.0
C1167 C 0.26344 0.56827 0.22563 0.0
C1168 C 0.28494 0.57307 0.21519 0.0
H1169 H 0.34563 0.57907 0.11534 0.0
H1170 H 0.31775 0.5811 0.14332 0.0
H1171 H 0.33438 0.54781 0.20737 0.0
H1172 H 0.24372 0.54235 0.27167 0.0
H1173 H 0.27752 0.55922 0.25844 0.0
C1174 C 0.80225 0.37835 0.12134 0.0
C1175 C 0.81805 0.37931 0.13932 0.0
C1176 C 0.79684 0.39748 0.10903 0.0
C1177 C 0.81655 0.45223 0.09274 0.0
H1178 H 0.75463 0.46843 0.08903 0.0
C1179 C 0.78862 0.53686 0.0566 0.0
C1180 C 0.76868 0.53756 0.04373 0.0
C1181 C 0.79456 0.51776 0.06872 0.0
C1182 C 0.77195 0.46403 0.08954 0.0
H1183 H 0.84128 0.40082 0.15785 0.0
H1184 H 0.83219 0.43414 0.13587 0.0
H1185 H 0.76586 0.43405 0.10779 0.0
H1186 H 0.73927 0.51881 0.03349 0.0
H1187 H 0.74993 0.48525 0.05387 0.0
H1188 H 0.82273 0.48171 0.07395 0.0
C1189 C 0.82386 0.41861 0.13154 0.0
C1190 C 0.77836 0.44436 0.10038 0.0
C1191 C 0.82899 0.39958 0.14413 0.0
C1192 C 0.75465 0.51887 0.04345 0.0
C1193 C 0.76076 0.49962 0.05524 0.0
C1194 C 0.81013 0.47172 0.08155 0.0
C1195 C 0.80743 0.41781 0.11419 0.0
C1196 C 0.8007 0.43834 0.10214 0.0
C1197 C 0.78088 0.49874 0.06792 0.0
C1198 C 0.78773 0.47796 0.07989 0.0
H1199 H 0.79345 0.36301 0.1173 0.0
H1200 H 0.78422 0.39644 0.09561 0.0
H1201 H 0.83388 0.44783 0.09377 0.0
H1202 H 0.7997 0.55108 0.05729 0.0
H1203 H 0.80991 0.51795 0.07869 0.0
C1204 C 0.35038 0.64309 0.05227 0.0
C1205 C 0.36008 0.62453 0.04232 0.0
C1206 C 0.33769 0.65784 0.03911 0.0
C1207 C 0.33906 0.68449 0.98717 0.0
H1208 H 0.27997 0.7053 -0.00176 0.0
C1209 C 0.27364 0.76045 0.96606 0.0
C1210 C 0.28523 0.77785 0.97736 0.0
C1211 C 0.28271 0.73915 0.96524 0.0
C1212 C 0.29633 0.69941 0.99456 0.0
H1213 H 0.36395 0.60643 0.01109 0.0
H1214 H 0.34229 0.63285 0.98783 0.0
H1215 H 0.29337 0.67102 0.0161 0.0
H1216 H 0.31688 0.78752 0.99282 0.0
H1217 H 0.33296 0.75049 0.99066 0.0
H1218 H 0.34272 0.71399 0.96728 0.0
C1219 C 0.344 0.63553 0.00588 0.0
C1220 C 0.30396 0.67989 0.00486 0.0
C1221 C 0.35617 0.62039 0.01918 0.0
C1222 C 0.30742 0.77442 0.98428 0.0
C1223 C 0.31663 0.75318 0.98307 0.0
C1224 C 0.3316 0.70432 0.97728 0.0
C1225 C 0.3351 0.65459 0.01572 0.0
C1226 C 0.32554 0.67257 0.00162 0.0
C1227 C 0.30375 0.7351 0.97504 0.0
C1228 C 0.31033 0.71219 0.98131 0.0
H1229 H 0.3535 0.64674 0.07001 0.0
H1230 H 0.33113 0.67258 0.04697 0.0
H1231 H 0.35587 0.67923 0.9847 0.0
H1232 H 0.25658 0.7625 0.96028 0.0
H1233 H 0.27258 0.72548 0.95871 0.0
C1234 C 0.35132 0.3606 0.41675 0.0
C1235 C 0.35087 0.3824 0.42538 0.0
C1236 C 0.33216 0.3476 0.41538 0.0
C1237 C 0.28217 0.33654 0.44324 0.0
H1238 H 0.26627 0.30258 0.38925 0.0
C1239 C 0.22829 0.25907 0.45054 0.0
C1240 C 0.23841 0.24051 0.44099 0.0
C1241 C 0.23417 0.28064 0.44394 0.0
C1242 C 0.27039 0.31195 0.40448 0.0
H1243 H 0.32992 0.40773 0.43929 0.0
H1244 H 0.29636 0.38443 0.43776 0.0
H1245 H 0.29345 0.33262 0.3876 0.0
H1246 H 0.26055 0.22964 0.41553 0.0
H1247 H 0.27068 0.26674 0.40392 0.0
H1248 H 0.26074 0.3148 0.46067 0.0
C1249 C 0.31159 0.3777 0.43169 0.0
C1250 C 0.28589 0.32921 0.40347 0.0
C1251 C 0.33074 0.39097 0.43257 0.0
C1252 C 0.25239 0.24371 0.423 0.0
C1253 C 0.2582 0.26513 0.41638 0.0
C1254 C 0.26694 0.31902 0.44435 0.0
C1255 C 0.31216 0.35592 0.423 0.0
C1256 C 0.29252 0.34109 0.42302 0.0
C1257 C 0.25022 0.2839 0.42769 0.0
C1258 C 0.26156 0.30585 0.42518 0.0
H1259 H 0.36651 0.35358 0.41089 0.0
H1260 H 0.3331 0.33077 0.40887 0.0
H1261 H 0.28709 0.34542 0.45857 0.0
H1262 H 0.21766 0.25702 0.46466 0.0
H1263 H 0.22733 0.29471 0.4527 0.0
C1264 C 0.5871 0.36357 0.82298 0.0
C1265 C 0.60603 0.36645 0.81031 0.0
C1266 C 0.56695 0.37295 0.81585 0.0
C1267 C 0.53593 0.39119 0.76507 0.0
H1268 H 0.49994 0.423 0.80691 0.0
C1269 C 0.45921 0.44318 0.737 0.0
C1270 C 0.44279 0.44677 0.75264 0.0
C1271 C 0.47788 0.43048 0.74293 0.0
C1272 C 0.50946 0.41374 0.79503 0.0
H1273 H 0.61864 0.38173 0.78032 0.0
H1274 H 0.58332 0.39801 0.76781 0.0
H1275 H 0.53538 0.40807 0.81992 0.0
H1276 H 0.43187 0.43812 0.78579 0.0
H1277 H 0.46353 0.41482 0.79558 0.0
H1278 H 0.5099 0.39653 0.74022 0.0
C1279 C 0.58417 0.38847 0.78327 0.0
C1280 C 0.52992 0.40535 0.80252 0.0
C1281 C 0.60443 0.37937 0.79059 0.0
C1282 C 0.44431 0.43567 0.77342 0.0
C1283 C 0.46269 0.42262 0.77916 0.0
C1284 C 0.51528 0.39935 0.75761 0.0
C1285 C 0.56516 0.38516 0.79571 0.0
C1286 C 0.54344 0.3941 0.78761 0.0
C1287 C 0.4803 0.42082 0.76449 0.0
C1288 C 0.50177 0.41083 0.77248 0.0
H1289 H 0.58776 0.35368 0.83821 0.0
H1290 H 0.55258 0.37006 0.82574 0.0
H1291 H 0.54589 0.38232 0.75326 0.0
H1292 H 0.45861 0.45178 0.72097 0.0
H1293 H 0.49104 0.42959 0.73115 0.0
C1294 C 0.65286 0.14584 0.45435 0.0
C1295 C 0.64865 0.12314 0.4578 0.0
C1296 C 0.6692 0.15689 0.46742 0.0
C1297 C 0.69085 0.15938 0.52333 0.0
H1298 H 0.73521 0.19859 0.49952 0.0
C1299 C 0.74982 0.24095 0.54564 0.0
C1300 C 0.73248 0.25586 0.5491 0.0
C1301 C 0.74525 0.21841 0.54155 0.0
C1302 C 0.72334 0.18731 0.50661 0.0
H1303 H 0.65846 0.09404 0.47723 0.0
H1304 H 0.68655 0.11372 0.50069 0.0
H1305 H 0.71667 0.17118 0.47475 0.0
H1306 H 0.69748 0.2587 0.5543 0.0
H1307 H 0.68958 0.21931 0.54809 0.0
H1308 H 0.696 0.17699 0.55464 0.0
C1309 C 0.67752 0.12271 0.48753 0.0
C1310 C 0.71264 0.17179 0.49237 0.0
C1311 C 0.66156 0.11151 0.47405 0.0
C1312 C 0.71111 0.24746 0.55181 0.0
C1313 C 0.70662 0.22489 0.5482 0.0
C1314 C 0.70123 0.17524 0.53749 0.0
C1315 C 0.68122 0.14554 0.4845 0.0
C1316 C 0.6958 0.15826 0.50043 0.0
C1317 C 0.72336 0.21055 0.54136 0.0
C1318 C 0.71701 0.18989 0.52902 0.0
H1319 H 0.64309 0.15518 0.442 0.0
H1320 H 0.67166 0.17458 0.46497 0.0
H1321 H 0.67778 0.14916 0.52983 0.0
H1322 H 0.7664 0.24707 0.54319 0.0
H1323 H 0.75844 0.20763 0.53644 0.0
C1324 C 0.87407 0.60162 0.30098 0.0
C1325 C 0.87031 0.61936 0.28599 0.0
C1326 C 0.89234 0.58771 0.29858 0.0
C1327 C 0.93473 0.56986 0.25967 0.0
H1328 H 0.97494 0.57078 0.31219 0.0
C1329 C 0.02631 0.54912 0.25174 0.0
C1330 C 0.03727 0.53722 0.26913 0.0
C1331 C 0.0051 0.5574 0.2545 0.0
C1332 C 0.96382 0.56995 0.29747 0.0
H1333 H 0.88158 0.63575 0.25612 0.0
H1334 H 0.91287 0.61096 0.25135 0.0
H1335 H 0.93776 0.58571 0.3149 0.0
H1336 H 0.03472 0.52505 0.30328 0.0
H1337 H 0.99744 0.53907 0.30797 0.0
H1338 H 0.96056 0.55411 0.24216 0.0
C1339 C 0.90195 0.60785 0.26502 0.0
C1340 C 0.94249 0.57849 0.29906 0.0
C1341 C 0.88406 0.62201 0.26771 0.0
C1342 C 0.02679 0.53434 0.28963 0.0
C1343 C 0.00538 0.54238 0.2923 0.0
C1344 C 0.95592 0.56105 0.25814 0.0
C1345 C 0.90674 0.5911 0.28089 0.0
C1346 C 0.92793 0.57896 0.28005 0.0
C1347 C 0.99411 0.5537 0.27461 0.0
C1348 C 0.97096 0.56149 0.27686 0.0
H1349 H 0.86387 0.59954 0.31542 0.0
H1350 H 0.89568 0.57486 0.31099 0.0
H1351 H 0.92376 0.56989 0.24481 0.0
H1352 H 0.03402 0.55181 0.23581 0.0
H1353 H 0.99728 0.56661 0.24075 0.0
C1354 C 0.16456 0.37821 0.57378 0.0
C1355 C 0.14204 0.37236 0.57197 0.0
C1356 C 0.18083 0.36163 0.57501 0.0
C1357 C 0.18923 0.30256 0.58971 0.0
H1358 H 0.2328 0.30163 0.54368 0.0
C1359 C 0.22161 0.22243 0.55206 0.0
C1360 C 0.24187 0.22225 0.54135 0.0
C1361 C 0.2146 0.24154 0.5631 0.0
C1362 C 0.22122 0.3018 0.55711 0.0
H1363 H 0.119 0.34451 0.57076 0.0
H1364 H 0.14715 0.31593 0.57317 0.0
H1365 H 0.21037 0.33476 0.54854 0.0
H1366 H 0.27186 0.2411 0.53621 0.0
H1367 H 0.25978 0.2744 0.55589 0.0
H1368 H 0.19948 0.26942 0.59788 0.0
C1369 C 0.1523 0.33324 0.57353 0.0
C1370 C 0.2083 0.32082 0.55981 0.0
C1371 C 0.13617 0.34966 0.57187 0.0
C1372 C 0.25611 0.24071 0.54421 0.0
C1373 C 0.24905 0.25992 0.55524 0.0
C1374 C 0.20227 0.28365 0.58719 0.0
C1375 C 0.17479 0.33897 0.57505 0.0
C1376 C 0.19155 0.32101 0.57548 0.0
C1377 C 0.22772 0.26096 0.56376 0.0
C1378 C 0.21777 0.28264 0.57018 0.0
H1379 H 0.16959 0.39554 0.57396 0.0
H1380 H 0.19808 0.36647 0.5761 0.0
H1381 H 0.17665 0.30241 0.60218 0.0
H1382 H 0.21032 0.20842 0.55033 0.0
H1383 H 0.19806 0.2416 0.56937 0.0
C1384 C 0.60135 0.63873 0.67082 0.0
C1385 C 0.62243 0.6305 0.67695 0.0
C1386 C 0.58242 0.62648 0.67512 0.0
C1387 C 0.54497 0.59346 0.67649 0.0
H1388 H 0.54184 0.56492 0.73477 0.0
C1389 C 0.46904 0.54213 0.70128 0.0
C1390 C 0.46232 0.54401 0.72362 0.0
C1391 C 0.48884 0.55174 0.69488 0.0
C1392 C 0.5424 0.57296 0.71849 0.0
H1393 H 0.6401 0.60247 0.69178 0.0
H1394 H 0.60686 0.58082 0.69903 0.0
H1395 H 0.57618 0.5827 0.72429 0.0
H1396 H 0.47095 0.558 0.7566 0.0
H1397 H 0.50523 0.57524 0.74525 0.0
H1398 H 0.51099 0.58455 0.67103 0.0
C1399 C 0.60509 0.59701 0.69119 0.0
C1400 C 0.56219 0.58284 0.71234 0.0
C1401 C 0.62413 0.60933 0.68689 0.0
C1402 C 0.47566 0.55614 0.73927 0.0
C1403 C 0.49542 0.56586 0.73282 0.0
C1404 C 0.52518 0.58369 0.68268 0.0
C1405 C 0.58402 0.60559 0.68558 0.0
C1406 C 0.56362 0.59343 0.69137 0.0
C1407 C 0.50235 0.56358 0.7106 0.0
C1408 C 0.52359 0.57349 0.70383 0.0
H1409 H 0.59935 0.65495 0.66309 0.0
H1410 H 0.56648 0.63375 0.67087 0.0
H1411 H 0.54559 0.60124 0.6601 0.0
H1412 H 0.45928 0.53278 0.68879 0.0
H1413 H 0.4938 0.54944 0.67769 0.0
C1414 C 0.41389 0.85997 0.70597 0.0
C1415 C 0.39483 0.86226 0.71847 0.0
C1416 C 0.43398 0.86891 0.71387 0.0
C1417 C 0.46052 0.90862 0.75417 0.0
H1418 H 0.51164 0.87162 0.74434 0.0
C1419 C 0.54788 0.93882 0.78017 0.0
C1420 C 0.56175 0.93925 0.76172 0.0
C1421 C 0.52851 0.92603 0.77924 0.0
C1422 C 0.49752 0.88208 0.7473 0.0
H1423 H 0.38157 0.87659 0.74856 0.0
H1424 H 0.41703 0.89228 0.76266 0.0
H1425 H 0.47479 0.85781 0.73361 0.0
H1426 H 0.56759 0.92465 0.72905 0.0
H1427 H 0.53411 0.90198 0.72765 0.0
H1428 H 0.48341 0.93302 0.76756 0.0
C1429 C 0.41631 0.88362 0.74661 0.0
C1430 C 0.47641 0.87427 0.74102 0.0
C1431 C 0.396 0.87476 0.73853 0.0
C1432 C 0.55717 0.92475 0.74347 0.0
C1433 C 0.53797 0.91175 0.74268 0.0
C1434 C 0.48167 0.91638 0.7606 0.0
C1435 C 0.43565 0.88017 0.73466 0.0
C1436 C 0.45771 0.8877 0.74374 0.0
C1437 C 0.5229 0.91314 0.76004 0.0
C1438 C 0.50043 0.90341 0.75669 0.0
H1439 H 0.4134 0.85061 0.6903 0.0
H1440 H 0.44835 0.8666 0.70384 0.0
H1441 H 0.44651 0.91941 0.75644 0.0
H1442 H 0.5509 0.94984 0.79447 0.0
H1443 H 0.51734 0.92713 0.793 0.0
C1444 C 0.54157 0.85041 0.13602 0.0
C1445 C 0.55407 0.85211 0.1167 0.0
C1446 C 0.53898 0.82989 0.14655 0.0
C1447 C 0.56718 0.7786 0.15803 0.0
H1448 H 0.5108 0.7618 0.18178 0.0
C1449 C 0.5234 0.72726 0.23403 0.0
C1450 C 0.53543 0.73835 0.2514 0.0
C1451 C 0.52849 0.73092 0.21154 0.0
C1452 C 0.52661 0.76568 0.1748 0.0
H1453 H 0.5737 0.83366 0.09322 0.0
H1454 H 0.56963 0.79781 0.11218 0.0
H1455 H 0.51221 0.79034 0.1529 0.0
H1456 H 0.56374 0.75935 0.25954 0.0
H1457 H 0.57298 0.76538 0.22059 0.0
H1458 H 0.58176 0.75514 0.18126 0.0
C1459 C 0.56159 0.81234 0.11885 0.0
C1460 C 0.52741 0.78225 0.15846 0.0
C1461 C 0.56386 0.83283 0.10805 0.0
C1462 C 0.5543 0.75062 0.24632 0.0
C1463 C 0.55961 0.75398 0.22397 0.0
C1464 C 0.56641 0.76212 0.17457 0.0
C1465 C 0.5491 0.81072 0.13818 0.0
C1466 C 0.54778 0.78963 0.15081 0.0
C1467 C 0.54581 0.7455 0.20633 0.0
C1468 C 0.54623 0.75639 0.18398 0.0
H1469 H 0.53377 0.86494 0.14301 0.0
H1470 H 0.52956 0.82914 0.16167 0.0
H1471 H 0.5831 0.78398 0.15233 0.0
H1472 H 0.50865 0.71785 0.23763 0.0
H1473 H 0.5177 0.72404 0.19826 0.0
C1474 C 0.12392 0.22534 0.09901 0.0
C1475 C 0.13355 0.20415 0.09798 0.0
C1476 C 0.11645 0.23598 0.07918 0.0
C1477 C 0.12631 0.235 0.0181 0.0
H1478 H 0.07124 0.26725 0.01167 0.0
C1479 C 0.07649 0.24572 0.93545 0.0
C1480 C 0.0624 0.26411 0.93281 0.0
C1481 C 0.09046 0.2439 0.95461 0.0
C1482 C 0.08697 0.2588 0.01332 0.0
H1483 H 0.14131 0.17674 0.07585 0.0
H1484 H 0.12769 0.19489 0.04152 0.0
H1485 H 0.08266 0.25196 0.04829 0.0
H1486 H 0.0541 0.2964 0.94653 0.0
H1487 H 0.07856 0.29317 0.98 0.0
H1488 H 0.13017 0.24102 0.98293 0.0
C1489 C 0.12658 0.20368 0.05741 0.0
C1490 C 0.09342 0.24993 0.0343 0.0
C1491 C 0.1341 0.19316 0.0771 0.0
C1492 C 0.06468 0.28196 0.94814 0.0
C1493 C 0.0785 0.28002 0.96745 0.0
C1494 C 0.11985 0.24381 0.99715 0.0
C1495 C 0.11847 0.22552 0.0581 0.0
C1496 C 0.11279 0.23729 0.03671 0.0
C1497 C 0.09049 0.26038 0.97149 0.0
C1498 C 0.09978 0.25522 0.99437 0.0
H1499 H 0.12355 0.23429 0.11487 0.0
H1500 H 0.11017 0.25279 0.08024 0.0
H1501 H 0.14167 0.22586 0.0196 0.0
H1502 H 0.07522 0.23178 0.92383 0.0
H1503 H 0.09954 0.22856 0.95717 0.0
C1504 C 0.42271 0.64804 0.15138 0.0
C1505 C 0.4272 0.65293 0.12885 0.0
C1506 C 0.41656 0.66471 0.16612 0.0
C1507 C 0.39372 0.70048 0.19157 0.0
H1508 H 0.43634 0.74817 0.20106 0.0
C1509 C 0.43402 0.76499 0.26278 0.0
C1510 C 0.43918 0.74827 0.27867 0.0
C1511 C 0.42184 0.75978 0.24293 0.0
C1512 C 0.42375 0.73547 0.19835 0.0
H1513 H 0.42877 0.67945 0.10424 0.0
H1514 H 0.41863 0.70905 0.13061 0.0
H1515 H 0.43675 0.72608 0.16668 0.0
H1516 H 0.43208 0.71427 0.28829 0.0
H1517 H 0.41088 0.70524 0.25396 0.0
H1518 H 0.38188 0.70874 0.22407 0.0
C1519 C 0.41962 0.69203 0.13651 0.0
C1520 C 0.42406 0.72276 0.1786 0.0
C1521 C 0.42554 0.67514 0.1215 0.0
C1522 C 0.42881 0.7274 0.27615 0.0
C1523 C 0.41651 0.72225 0.25642 0.0
C1524 C 0.39342 0.71317 0.21132 0.0
C1525 C 0.41485 0.68686 0.15891 0.0
C1526 C 0.40996 0.70429 0.17571 0.0
C1527 C 0.41438 0.73789 0.23888 0.0
C1528 C 0.40933 0.72991 0.21552 0.0
H1529 H 0.42365 0.63117 0.15774 0.0
H1530 H 0.41359 0.66026 0.18342 0.0
H1531 H 0.38234 0.68658 0.18951 0.0
H1532 H 0.44137 0.78142 0.26438 0.0
H1533 H 0.42001 0.77231 0.22992 0.0
C1534 C 0.90523 0.28107 0.13459 0.0
C1535 C 0.89008 0.29869 0.13404 0.0
C1536 C 0.91958 0.27822 0.11693 0.0
C1537 C 0.94274 0.3057 0.06741 0.0
H1538 H 0.93627 0.2476 0.0392 0.0
C1539 C 0.96137 0.29062 0.97419 0.0
C1540 C 0.97081 0.27019 0.96834 0.0
C1541 C 0.95444 0.29424 0.99608 0.0
C1542 C 0.93866 0.26379 0.04702 0.0
H1543 H 0.87916 0.32809 0.11572 0.0
H1544 H 0.90425 0.32323 0.08514 0.0
H1545 H 0.92115 0.25401 0.07599 0.0
H1546 H 0.98079 0.23772 0.98103 0.0
H1547 H 0.96915 0.24422 0.01909 0.0
H1548 H 0.95998 0.31561 0.03829 0.0
C1549 C 0.90503 0.31156 0.09902 0.0
C1550 C 0.93003 0.26743 0.06814 0.0
C1551 C 0.89053 0.31422 0.11642 0.0
C1552 C 0.97329 0.25356 0.98485 0.0
C1553 C 0.96659 0.25726 0.00672 0.0
C1554 C 0.95156 0.30202 0.04635 0.0
C1555 C 0.91921 0.29319 0.09875 0.0
C1556 C 0.93157 0.28854 0.0783 0.0
C1557 C 0.95701 0.2776 0.01259 0.0
C1558 C 0.94919 0.28115 0.0357 0.0
H1559 H 0.9052 0.26889 0.14801 0.0
H1560 H 0.93048 0.26397 0.11711 0.0
H1561 H 0.94425 0.3221 0.075 0.0
H1562 H 0.95923 0.30376 0.96186 0.0
H1563 H 0.94677 0.30998 -5e-05 0.0
C1564 C 0.57297 0.15789 0.35583 0.0
C1565 C 0.57355 0.15828 0.37951 0.0
C1566 C 0.57518 0.17751 0.34368 0.0
C1567 C 0.56679 0.23748 0.34654 0.0
H1568 H 0.59657 0.2342 0.29007 0.0
C1569 C 0.56969 0.27632 0.25088 0.0
C1570 C 0.54669 0.2774 0.24778 0.0
C1571 C 0.57915 0.27162 0.2722 0.0
C1572 C 0.58868 0.23597 0.30601 0.0
H1573 H 0.57688 0.17979 0.409 0.0
H1574 H 0.58061 0.2142 0.38754 0.0
H1575 H 0.60187 0.20493 0.31751 0.0
H1576 H 0.51557 0.27671 0.2643 0.0
H1577 H 0.53169 0.26783 0.30116 0.0
H1578 H 0.55317 0.26834 0.33477 0.0
C1579 C 0.57845 0.1986 0.3785 0.0
C1580 C 0.59146 0.21886 0.32163 0.0
C1581 C 0.5763 0.17887 0.39074 0.0
C1582 C 0.53341 0.27621 0.2665 0.0
C1583 C 0.54277 0.27113 0.2877 0.0
C1584 C 0.56416 0.25479 0.33096 0.0
C1585 C 0.57807 0.19807 0.35483 0.0
C1586 C 0.57949 0.21876 0.34139 0.0
C1587 C 0.56562 0.26716 0.29044 0.0
C1588 C 0.57399 0.25354 0.30988 0.0
H1589 H 0.57084 0.14242 0.34658 0.0
H1590 H 0.57425 0.17658 0.32542 0.0
H1591 H 0.55754 0.23799 0.36177 0.0
H1592 H 0.58016 0.27705 0.23651 0.0
H1593 H 0.59686 0.26937 0.27384 0.0
C1594 C 0.40697 0.20448 0.86639 0.0
C1595 C 0.38908 0.1906 0.8713 0.0
C1596 C 0.42409 0.20797 0.88248 0.0
C1597 C 0.44949 0.18789 0.93578 0.0
H1598 H 0.45032 0.25003 0.9538 0.0
C1599 C 0.47056 0.2146 0.02651 0.0
C1600 C 0.48126 0.23505 0.03071 0.0
C1601 C 0.46388 0.20854 0.0046 0.0
C1602 C 0.45083 0.2327 0.94878 0.0
H1603 H 0.37583 0.16802 0.89584 0.0
H1604 H 0.40588 0.17388 0.92379 0.0
H1605 H 0.43226 0.23915 0.91814 0.0
H1606 H 0.49381 0.26502 0.01531 0.0
H1607 H 0.48259 0.25422 0.97696 0.0
H1608 H 0.46768 0.1813 0.9666 0.0
C1609 C 0.40662 0.18216 0.90765 0.0
C1610 C 0.44049 0.22649 0.92832 0.0
C1611 C 0.38934 0.179 0.89178 0.0
C1612 C 0.48525 0.2493 0.0126 0.0
C1613 C 0.47887 0.24309 0.99062 0.0
C1614 C 0.46014 0.19412 0.95611 0.0
C1615 C 0.42372 0.19723 0.90341 0.0
C1616 C 0.43903 0.20397 0.92209 0.0
C1617 C 0.46808 0.22265 0.98638 0.0
C1618 C 0.46013 0.21648 0.96325 0.0
H1619 H 0.40713 0.2136 0.85068 0.0
H1620 H 0.43715 0.21968 0.87894 0.0
H1621 H 0.44865 0.17043 0.93117 0.0
H1622 H 0.46724 0.20332 0.04019 0.0
H1623 H 0.4551 0.19293 0.00203 0.0
C1624 C 0.42767 0.36447 0.34365 0.0
C1625 C 0.43008 0.35921 0.36669 0.0
C1626 C 0.42325 0.34793 0.32762 0.0
C1627 C 0.40282 0.31171 0.29826 0.0
H1628 H 0.44678 0.26538 0.29473 0.0
C1629 C 0.44664 0.2473 0.23268 0.0
C1630 C 0.45092 0.2636 0.21642 0.0
C1631 C 0.4344 0.25264 0.25143 0.0
C1632 C 0.43383 0.27768 0.29567 0.0
H1633 H 0.42978 0.33224 0.39089 0.0
H1634 H 0.42279 0.30293 0.36241 0.0
H1635 H 0.44484 0.28747 0.32902 0.0
H1636 H 0.44252 0.29686 0.20502 0.0
H1637 H 0.42135 0.30615 0.23747 0.0
H1638 H 0.39268 0.30286 0.26442 0.0
C1639 C 0.42403 0.32009 0.35704 0.0
C1640 C 0.43282 0.2904 0.31537 0.0
C1641 C 0.42813 0.33682 0.37327 0.0
C1642 C 0.4399 0.28407 0.21747 0.0
C1643 C 0.4276 0.28936 0.23613 0.0
C1644 C 0.40375 0.29893 0.27861 0.0
C1645 C 0.42132 0.32559 0.33408 0.0
C1646 C 0.41814 0.30833 0.31633 0.0
C1647 C 0.42606 0.27424 0.25407 0.0
C1648 C 0.42012 0.28263 0.27663 0.0
H1649 H 0.42884 0.38151 0.33788 0.0
H1650 H 0.42175 0.35262 0.31002 0.0
H1651 H 0.39105 0.32521 0.29877 0.0
H1652 H 0.45458 0.2312 0.23221 0.0
H1653 H 0.43302 0.24045 0.26472 0.0
C1654 C 0.62601 0.2785 0.90052 0.0
C1655 C 0.63904 0.29783 0.89936 0.0
C1656 C 0.61941 0.27056 0.92138 0.0
C1657 C 0.63335 0.27606 0.98314 0.0
H1658 H 0.57633 0.24764 0.989 0.0
C1659 C 0.58573 0.26817 0.06518 0.0
C1660 C 0.5726 0.24906 0.06791 0.0
C1661 C 0.59844 0.27048 0.04617 0.0
C1662 C 0.5925 0.25517 0.98756 0.0
H1663 H 0.6544 0.32465 0.91896 0.0
H1664 H 0.64204 0.31153 0.95507 0.0
H1665 H 0.58726 0.26018 0.95213 0.0
H1666 H 0.56455 0.21634 0.05422 0.0
H1667 H 0.58666 0.22049 0.02101 0.0
H1668 H 0.6379 0.27201 0.01895 0.0
C1669 C 0.63763 0.30188 0.9401 0.0
C1670 C 0.59878 0.2624 0.96639 0.0
C1671 C 0.6445 0.30959 0.91933 0.0
C1672 C 0.57447 0.23127 0.05265 0.0
C1673 C 0.58693 0.23372 0.03347 0.0
C1674 C 0.6269 0.2691 0.00438 0.0
C1675 C 0.62543 0.28198 0.94151 0.0
C1676 C 0.61918 0.27323 0.9639 0.0
C1677 C 0.59807 0.25381 0.02948 0.0
C1678 C 0.60632 0.25877 0.00683 0.0
H1679 H 0.62178 0.26892 0.88544 0.0
H1680 H 0.61021 0.25508 0.92174 0.0
H1681 H 0.64942 0.2838 0.98187 0.0
H1682 H 0.58469 0.28213 0.0767 0.0
H1683 H 0.60693 0.28612 0.04358 0.0
C1684 C 0.12095 0.57332 0.83392 0.0
C1685 C 0.12717 0.57794 0.85656 0.0
C1686 C 0.1368 0.5734 0.81726 0.0
C1687 C 0.19366 0.5929 0.8057 0.0
H1688 H 0.19687 0.53977 0.76878 0.0
C1689 C 0.27479 0.55829 0.7742 0.0
C1690 C 0.27472 0.54474 0.75482 0.0
C1691 C 0.25527 0.56797 0.78122 0.0
C1692 C 0.19602 0.55502 0.77848 0.0
H1693 H 0.15475 0.58725 0.87917 0.0
H1694 H 0.18205 0.58754 0.85036 0.0
H1695 H 0.16476 0.54576 0.79146 0.0
H1696 H 0.25446 0.53276 0.72631 0.0
H1697 H 0.22045 0.54998 0.73838 0.0
H1698 H 0.22523 0.60183 0.79336 0.0
C1699 C 0.16503 0.58383 0.84536 0.0
C1700 C 0.17756 0.55841 0.79155 0.0
C1701 C 0.14936 0.58344 0.86196 0.0
C1702 C 0.25515 0.54309 0.74133 0.0
C1703 C 0.23554 0.55271 0.74842 0.0
C1704 C 0.21204 0.58957 0.79256 0.0
C1705 C 0.15907 0.57853 0.82286 0.0
C1706 C 0.17653 0.577 0.80592 0.0
C1707 C 0.23516 0.56436 0.76903 0.0
C1708 C 0.21384 0.5702 0.77938 0.0
H1709 H 0.10401 0.56901 0.8292 0.0
H1710 H 0.13169 0.56931 0.80004 0.0
H1711 H 0.19318 0.60761 0.81628 0.0
H1712 H 0.28958 0.55999 0.78495 0.0
H1713 H 0.25572 0.57676 0.79719 0.0
C1714 C 0.81432 0.62018 0.39643 0.0
C1715 C 0.80936 0.61846 0.37313 0.0
C1716 C 0.81172 0.60172 0.41044 0.0
C1717 C 0.80578 0.54025 0.40817 0.0
H1718 H 0.77614 0.54731 0.46446 0.0
C1719 C 0.76181 0.46822 0.45127 0.0
C1720 C 0.76654 0.46543 0.47444 0.0
C1721 C 0.76914 0.4872 0.44026 0.0
C1722 C 0.78466 0.54518 0.44889 0.0
H1723 H 0.7977 0.59597 0.34636 0.0
H1724 H 0.79285 0.56433 0.37065 0.0
H1725 H 0.78605 0.58028 0.44292 0.0
H1726 H 0.78218 0.48054 0.50436 0.0
H1727 H 0.79465 0.51386 0.48506 0.0
H1728 H 0.8036 0.50515 0.41371 0.0
C1729 C 0.79921 0.57966 0.37811 0.0
C1730 C 0.79042 0.564 0.43663 0.0
C1731 C 0.80184 0.59795 0.36419 0.0
C1732 C 0.7784 0.48216 0.48645 0.0
C1733 C 0.78545 0.50126 0.47548 0.0
C1734 C 0.79982 0.52149 0.42028 0.0
C1735 C 0.80415 0.58128 0.40136 0.0
C1736 C 0.80058 0.56169 0.41588 0.0
C1737 C 0.78105 0.50383 0.45228 0.0
C1738 C 0.78883 0.52378 0.44049 0.0
H1739 H 0.8202 0.63572 0.40384 0.0
H1740 H 0.81576 0.60341 0.42831 0.0
H1741 H 0.81407 0.53795 0.3925 0.0
H1742 H 0.75273 0.45562 0.44158 0.0
H1743 H 0.76535 0.48896 0.42236 0.0
C1744 C 0.88917 0.93415 0.82051 0.0
C1745 C 0.8797 0.92994 0.84135 0.0
C1746 C 0.8766 0.9316 0.80035 0.0
C1747 C 0.82742 0.904 0.77548 0.0
H1748 H 0.81414 0.95956 0.74501 0.0
C1749 C 0.7421 0.93124 0.75381 0.0
C1750 C 0.73769 0.94817 0.73813 0.0
C1751 C 0.76304 0.92192 0.75587 0.0
C1752 C 0.81808 0.94361 0.75256 0.0
H1753 H 0.85 0.91911 0.85744 0.0
H1754 H 0.82824 0.91436 0.82232 0.0
H1755 H 0.84637 0.95722 0.77062 0.0
H1756 H 0.7507 0.96699 0.71054 0.0
H1757 H 0.78772 0.95077 0.71425 0.0
H1758 H 0.79842 0.89072 0.75853 0.0
C1759 C 0.84531 0.9197 0.82157 0.0
C1760 C 0.83653 0.94235 0.76736 0.0
C1761 C 0.85765 0.92273 0.84166 0.0
C1762 C 0.7538 0.95394 0.7228 0.0
C1763 C 0.77497 0.94475 0.72502 0.0
C1764 C 0.80916 0.90514 0.76044 0.0
C1765 C 0.85463 0.92418 0.80077 0.0
C1766 C 0.84039 0.92302 0.78005 0.0
C1767 C 0.78011 0.92956 0.74244 0.0
C1768 C 0.80334 0.92547 0.7502 0.0
H1769 H 0.90617 0.93968 0.81982 0.0
H1770 H 0.88398 0.93539 0.78448 0.0
H1771 H 0.83035 0.8888 0.78489 0.0
H1772 H 0.72982 0.92641 0.76568 0.0
H1773 H 0.7663 0.9104 0.76958 0.0
C1774 C 0.22537 0.88759 0.3814 0.0
C1775 C 0.20384 0.88582 0.37179 0.0
C1776 C 0.23399 0.9084 0.38806 0.0
C1777 C 0.22548 0.9683 0.37615 0.0
H1778 H 0.26108 0.97792 0.43103 0.0
C1779 C 0.23568 0.05256 0.42114 0.0
C1780 C 0.25519 0.057 0.434 0.0
C1781 C 0.23321 0.03266 0.40905 0.0
C1782 C 0.25158 0.97545 0.41537 0.0
H1783 H 0.17395 0.90416 0.36318 0.0
H1784 H 0.18869 0.94015 0.37531 0.0
H1785 H 0.24844 0.94041 0.42114 0.0
H1786 H 0.28833 0.04524 0.44222 0.0
H1787 H 0.28403 0.01051 0.42095 0.0
H1788 H 0.22802 0.00344 0.37076 0.0
C1789 C 0.19922 0.92568 0.37703 0.0
C1790 C 0.24424 0.95394 0.40977 0.0
C1791 C 0.19068 0.905 0.37031 0.0
C1792 C 0.27307 0.0423 0.4325 0.0
C1793 C 0.27053 0.02227 0.42055 0.0
C1794 C 0.23276 0.98979 0.38177 0.0
C1795 C 0.22119 0.92777 0.38529 0.0
C1796 C 0.23065 0.95021 0.39039 0.0
C1797 C 0.25019 0.01677 0.40967 0.0
C1798 C 0.24549 0.99369 0.40169 0.0
H1799 H 0.23599 0.87315 0.38257 0.0
H1800 H 0.25097 0.90944 0.3944 0.0
H1801 H 0.21551 0.96591 0.36077 0.0
H1802 H 0.22167 0.06366 0.42185 0.0
H1803 H 0.21733 0.02897 0.40082 0.0
C1804 C 0.1132 0.41993 0.67648 0.0
C1805 C 0.11886 0.43305 0.65795 0.0
C1806 C 0.12639 0.42031 0.69645 0.0
C1807 C 0.168 0.45421 0.72803 0.0
H1808 H 0.19519 0.39861 0.7467 0.0
C1809 C 0.25834 0.42958 0.75406 0.0
C1810 C 0.26398 0.44801 0.76777 0.0
C1811 C 0.23627 0.42337 0.75038 0.0
C1812 C 0.18746 0.41424 0.74202 0.0
H1813 H 0.14226 0.45736 0.6461 0.0
H1814 H 0.16488 0.45831 0.68087 0.0
H1815 H 0.16357 0.39818 0.71968 0.0
H1816 H 0.25141 0.47257 0.79069 0.0
H1817 H 0.2127 0.46167 0.78434 0.0
H1818 H 0.19266 0.47048 0.74887 0.0
C1819 C 0.15037 0.44767 0.68 0.0
C1820 C 0.16931 0.41397 0.72663 0.0
C1821 C 0.13752 0.44697 0.66001 0.0
C1822 C 0.24751 0.45823 0.7801 0.0
C1823 C 0.22532 0.45214 0.77626 0.0
C1824 C 0.18599 0.45449 0.74347 0.0
C1825 C 0.1451 0.43423 0.69836 0.0
C1826 C 0.16017 0.43404 0.71866 0.0
C1827 C 0.2194 0.43564 0.76018 0.0
C1828 C 0.19666 0.43458 0.74976 0.0
H1829 H 0.09893 0.40898 0.67533 0.0
H1830 H 0.12205 0.40973 0.71035 0.0
H1831 H 0.16107 0.4699 0.72232 0.0
H1832 H 0.27078 0.42141 0.74438 0.0
H1833 H 0.23241 0.4106 0.73789 0.0
C1834 C 0.67133 0.61086 0.60063 0.0
C1835 C 0.69186 0.62184 0.60213 0.0
C1836 C 0.66916 0.59027 0.58991 0.0
C1837 C 0.69391 0.54901 0.55333 0.0
H1838 H 0.67362 0.50625 0.59702 0.0
C1839 C 0.68816 0.45604 0.53244 0.0
C1840 C 0.70289 0.44375 0.54645 0.0
C1841 C 0.68164 0.47735 0.53876 0.0
C1842 C 0.67906 0.51803 0.5846 0.0
H1843 H 0.72576 0.62104 0.59206 0.0
H1844 H 0.72191 0.58483 0.57273 0.0
H1845 H 0.67311 0.54607 0.60581 0.0
H1846 H 0.71965 0.4429 0.57943 0.0
H1847 H 0.70757 0.47987 0.59075 0.0
H1848 H 0.70016 0.52086 0.53226 0.0
C1849 C 0.70752 0.59226 0.57992 0.0
C1850 C 0.67872 0.54077 0.58955 0.0
C1851 C 0.70971 0.61299 0.5908 0.0
C1852 C 0.70848 0.452 0.56816 0.0
C1853 C 0.70163 0.47319 0.57462 0.0
C1854 C 0.69386 0.52626 0.5482 0.0
C1855 C 0.6875 0.58028 0.58045 0.0
C1856 C 0.68642 0.55644 0.57409 0.0
C1857 C 0.68923 0.4865 0.55943 0.0
C1858 C 0.68674 0.51057 0.56394 0.0
H1859 H 0.65734 0.61741 0.60932 0.0
H1860 H 0.6535 0.58152 0.59026 0.0
H1861 H 0.69994 0.56077 0.54119 0.0
H1862 H 0.68332 0.45018 0.51567 0.0
H1863 H 0.67175 0.4872 0.52695 0.0
C1864 C 0.8531 0.07679 0.63067 0.0
C1865 C 0.87537 0.07362 0.63754 0.0
C1866 C 0.83666 0.07796 0.64639 0.0
C1867 C 0.82271 0.05982 0.70273 0.0
H1868 H 0.77368 0.10038 0.69264 0.0
C1869 C 0.74375 0.04983 0.75227 0.0
C1870 C 0.72467 0.04808 0.73803 0.0
C1871 C 0.76328 0.05896 0.74429 0.0
C1872 C 0.78725 0.08898 0.69577 0.0
H1873 H 0.89769 0.06937 0.66666 0.0
H1874 H 0.86864 0.07107 0.69435 0.0
H1875 H 0.80653 0.10407 0.67044 0.0
H1876 H 0.71047 0.05699 0.70521 0.0
H1877 H 0.74423 0.07303 0.69144 0.0
H1878 H 0.80306 0.04409 0.72735 0.0
C1879 C 0.8641 0.07271 0.6766 0.0
C1880 C 0.80608 0.09109 0.68303 0.0
C1881 C 0.88074 0.07176 0.66076 0.0
C1882 C 0.72488 0.05796 0.7166 0.0
C1883 C 0.74432 0.0672 0.70869 0.0
C1884 C 0.80383 0.05769 0.71547 0.0
C1885 C 0.84186 0.07589 0.66955 0.0
C1886 C 0.82373 0.07606 0.68581 0.0
C1887 C 0.76406 0.06678 0.72201 0.0
C1888 C 0.78556 0.07179 0.71163 0.0
H1889 H 0.84823 0.07844 0.61299 0.0
H1890 H 0.8197 0.08001 0.6403 0.0
H1891 H 0.83593 0.0479 0.70521 0.0
H1892 H 0.74423 0.04242 0.76889 0.0
H1893 H 0.77807 0.05879 0.75515 0.0
C1894 C 0.3272 0.9028 0.64346 0.0
C1895 C 0.31564 0.88283 0.63909 0.0
C1896 C 0.32288 0.92163 0.63028 0.0
C1897 C 0.29463 0.93993 0.57643 0.0
H1898 H 0.29633 0.99762 0.60606 0.0
C1899 C 0.25666 0.0197 0.53715 0.0
C1900 C 0.27112 0.03803 0.53645 0.0
C1901 C 0.26257 0.00078 0.54957 0.0
C1902 C 0.29591 0.9816 0.5976 0.0
H1903 H 0.29052 0.86687 0.61746 0.0
H1904 H 0.28234 0.89981 0.59509 0.0
H1905 H 0.30596 0.96436 0.62765 0.0
H1906 H 0.30283 0.05118 0.54865 0.0
H1907 H 0.31284 0.01827 0.57088 0.0
H1908 H 0.28371 0.95734 0.54658 0.0
C1909 C 0.29526 0.90089 0.60819 0.0
C1910 C 0.30158 0.96254 0.60988 0.0
C1911 C 0.29987 0.88197 0.6211 0.0
C1912 C 0.29139 0.03727 0.54881 0.0
C1913 C 0.29709 0.01852 0.56158 0.0
C1914 C 0.28859 0.95896 0.56428 0.0
C1915 C 0.3066 0.92103 0.61268 0.0
C1916 C 0.30103 0.94142 0.59946 0.0
C1917 C 0.28283 5e-05 0.56186 0.0
C1918 C 0.28919 0.97994 0.57476 0.0
H1919 H 0.33958 0.9039 0.6571 0.0
H1920 H 0.33232 0.93665 0.63395 0.0
H1921 H 0.29443 0.92409 0.56767 0.0
H1922 H 0.24099 0.01977 0.52771 0.0
H1923 H 0.25127 0.98675 0.54967 0.0
C1924 C 0.85196 0.14168 0.55165 0.0
C1925 C 0.86175 0.1235 0.5411 0.0
C1926 C 0.83904 0.15666 0.53902 0.0
C1927 C 0.83996 0.18454 0.48755 0.0
H1928 H 0.78113 0.2053 0.49977 0.0
C1929 C 0.77445 0.26076 0.46766 0.0
C1930 C 0.7862 0.27819 0.47875 0.0
C1931 C 0.78345 0.23942 0.46688 0.0
C1932 C 0.79741 0.19944 0.49581 0.0
H1933 H 0.86551 0.10631 0.50935 0.0
H1934 H 0.84341 0.13313 0.48702 0.0
H1935 H 0.79467 0.17072 0.51694 0.0
H1936 H 0.81797 0.28779 0.49396 0.0
H1937 H 0.83392 0.25069 0.49181 0.0
H1938 H 0.84342 0.21432 0.46805 0.0
C1939 C 0.84523 0.13533 0.50512 0.0
C1940 C 0.80513 0.17975 0.5057 0.0
C1941 C 0.85765 0.11995 0.51789 0.0
C1942 C 0.8084 0.27469 0.48556 0.0
C1943 C 0.81754 0.2534 0.48436 0.0
C1944 C 0.83243 0.20454 0.47808 0.0
C1945 C 0.8363 0.15406 0.51555 0.0
C1946 C 0.82662 0.1724 0.502 0.0
C1947 C 0.80456 0.23534 0.47648 0.0
C1948 C 0.81125 0.21238 0.48252 0.0
H1949 H 0.85528 0.14491 0.56945 0.0
H1950 H 0.83247 0.17114 0.54734 0.0
H1951 H 0.85671 0.17927 0.48473 0.0
H1952 H 0.75737 0.26284 0.46202 0.0
H1953 H 0.77323 0.22576 0.46047 0.0
C1954 C 0.85276 0.85457 0.91987 0.0
C1955 C 0.8513 0.87715 0.92591 0.0
C1956 C 0.83383 0.84124 0.91808 0.0
C1957 C 0.78169 0.83142 0.94139 0.0
H1958 H 0.76876 0.79634 0.88744 0.0
C1959 C 0.72628 0.75512 0.94743 0.0
C1960 C 0.73649 0.73617 0.93878 0.0
C1961 C 0.73279 0.77642 0.94057 0.0
C1962 C 0.77207 0.80598 0.90266 0.0
H1963 H 0.82886 0.90342 0.93497 0.0
H1964 H 0.79569 0.8796 0.93284 0.0
H1965 H 0.79671 0.82575 0.88699 0.0
H1966 H 0.75932 0.7243 0.91444 0.0
H1967 H 0.77063 0.76088 0.90248 0.0
H1968 H 0.75872 0.81056 0.95781 0.0
C1969 C 0.81153 0.87252 0.92906 0.0
C1970 C 0.788 0.82289 0.90232 0.0
C1971 C 0.83046 0.88607 0.9303 0.0
C1972 C 0.7511 0.73869 0.92122 0.0
C1973 C 0.7576 0.75983 0.9144 0.0
C1974 C 0.76607 0.8142 0.9419 0.0
C1975 C 0.81308 0.85004 0.92274 0.0
C1976 C 0.79345 0.83524 0.92189 0.0
C1977 C 0.74963 0.77901 0.92502 0.0
C1978 C 0.76169 0.80062 0.92278 0.0
H1979 H 0.86853 0.84727 0.91616 0.0
H1980 H 0.83544 0.82388 0.9134 0.0
H1981 H 0.78569 0.84071 0.95671 0.0
H1982 H 0.71514 0.7536 0.96119 0.0
H1983 H 0.72585 0.79079 0.94871 0.0
C1984 C 0.08734 0.84536 0.30909 0.0
C1985 C 0.10709 0.85786 0.30955 0.0
C1986 C 0.06734 0.85484 0.30167 0.0
C1987 C 0.03793 0.90711 0.29658 0.0
H1988 H 1.00075 0.87679 0.25118 0.0
C1989 C 0.95753 0.93267 0.23891 0.0
C1990 C 0.94422 0.94082 0.25597 0.0
C1991 C 0.97619 0.91972 0.24446 0.0
C1992 C 0.01098 0.88539 0.26385 0.0
H1993 H 0.12109 0.89035 0.30293 0.0
H1994 H 0.08582 0.9072 0.29068 0.0
H1995 H 0.03664 0.86089 0.26305 0.0
H1996 H 0.93864 0.93963 0.29186 0.0
H1997 H 0.97112 0.91733 0.30139 0.0
H1998 H 0.01217 0.93134 0.29778 0.0
C1999 C 0.08605 0.88992 0.29583 0.0
C2000 C 0.03143 0.8763 0.27069 0.0
C2001 C 0.10621 0.88029 0.30286 0.0
C2002 C 0.94872 0.93393 0.27832 0.0
C2003 C 0.96739 0.92126 0.28384 0.0
C2004 C 0.01734 0.91594 0.29009 0.0
C2005 C 0.06648 0.87717 0.29489 0.0
C2006 C 0.0451 0.88709 0.28713 0.0
C2007 C 0.98183 0.91485 0.26712 0.0
C2008 C 0.00363 0.90515 0.27373 0.0
H2009 H 0.08736 0.82798 0.31392 0.0
H2010 H 0.05249 0.84471 0.30135 0.0
H2011 H 0.04806 0.9157 0.30934 0.0
H2012 H 0.95458 0.93771 0.22155 0.0
H2013 H 0.98702 0.91486 0.23123 0.0
C2014 C 0.14741 0.64582 0.95382 0.0
C2015 C 0.14395 0.62296 0.95709 0.0
C2016 C 0.16366 0.6572 0.96671 0.0
C2017 C 0.18632 0.6602 0.02204 0.0
H2018 H 0.23072 0.69888 0.99747 0.0
C2019 C 0.20838 0.74814 0.0501 0.0
C2020 C 0.22989 0.75607 0.0472 0.0
C2021 C 0.20337 0.72567 0.04653 0.0
C2022 C 0.21882 0.68776 0.00476 0.0
H2023 H 0.15493 0.59397 0.97609 0.0
H2024 H 0.18284 0.61422 -0.00077 0.0
H2025 H 0.21158 0.67156 0.97303 0.0
H2026 H 0.26355 0.74655 0.04097 0.0
H2027 H 0.25469 0.70728 0.03425 0.0
H2028 H 0.19206 0.67787 0.05324 0.0
C2029 C 0.17331 0.62308 0.98633 0.0
C2030 C 0.20779 0.6723 0.99071 0.0
C2031 C 0.15745 0.61156 0.97302 0.0
C2032 C 0.24687 0.74078 0.04358 0.0
C2033 C 0.24178 0.71835 0.03951 0.0
C2034 C 0.19703 0.67602 0.03601 0.0
C2035 C 0.17631 0.64603 0.98343 0.0
C2036 C 0.19099 0.65892 -0.00092 0.0
C2037 C 0.21975 0.71096 0.03954 0.0
C2038 C 0.21285 0.69044 0.02727 0.0
H2039 H 0.13718 0.65498 0.94172 0.0
H2040 H 0.16561 0.67498 0.96438 0.0
H2041 H 0.17328 0.65009 0.02876 0.0
H2042 H 0.19502 0.75968 0.05272 0.0
H2043 H 0.18623 0.72045 0.04659 0.0
C2044 C 0.37047 0.10538 0.77627 0.0
C2045 C 0.3706 0.11815 0.7961 0.0
C2046 C 0.3882 0.0912 0.77217 0.0
C2047 C 0.43731 0.06397 0.79896 0.0
H2048 H 0.46513 0.07674 0.74271 0.0
C2049 C 0.52862 0.04303 0.78586 0.0
C2050 C 0.53435 0.03511 0.76458 0.0
C2051 C 0.50742 0.05124 0.78917 0.0
C2052 C 0.45745 0.07265 0.75834 0.0
H2053 H 0.38824 0.1253 0.82777 0.0
H2054 H 0.41875 0.10027 0.82096 0.0
H2055 H 0.42872 0.09182 0.74946 0.0
H2056 H 0.52222 0.02986 0.73 0.0
H2057 H 0.48537 0.04378 0.73588 0.0
H2058 H 0.46608 0.045 0.80801 0.0
C2059 C 0.40521 0.10112 0.80851 0.0
C2060 C 0.43653 0.08124 0.76215 0.0
C2061 C 0.3878 0.11549 0.81239 0.0
C2062 C 0.5185 0.03596 0.74661 0.0
C2063 C 0.4973 0.04401 0.74996 0.0
C2064 C 0.45816 0.05524 0.79509 0.0
C2065 C 0.40599 0.08938 0.78806 0.0
C2066 C 0.42644 0.07736 0.78268 0.0
C2067 C 0.49141 0.05159 0.77131 0.0
C2068 C 0.46869 0.05983 0.77491 0.0
H2069 H 0.35744 0.10741 0.76341 0.0
H2070 H 0.38838 0.08225 0.7563 0.0
H2071 H 0.42983 0.06059 0.81488 0.0
H2072 H 0.54041 0.04269 0.80006 0.0
H2073 H 0.5036 0.05737 0.80575 0.0
C2074 C 0.63247 0.8506 0.06821 0.0
C2075 C 0.63868 0.8732 0.0688 0.0
C2076 C 0.64833 0.83392 0.07007 0.0
C2077 C 0.70461 0.82075 0.05819 0.0
H2078 H 0.69381 0.76945 0.09581 0.0
C2079 C 0.75157 0.73998 0.04395 0.0
C2080 C 0.73703 0.72187 0.04037 0.0
C2081 C 0.74452 0.75924 0.05489 0.0
C2082 C 0.69716 0.78366 0.08527 0.0
H2083 H 0.66658 0.89594 0.07168 0.0
H2084 H 0.69457 0.86645 0.07418 0.0
H2085 H 0.67132 0.80277 0.09941 0.0
H2086 H 0.70484 0.70862 0.048 0.0
H2087 H 0.69258 0.74191 0.06684 0.0
H2088 H 0.72937 0.80122 0.04289 0.0
C2089 C 0.67726 0.86187 0.07257 0.0
C2090 C 0.68431 0.80274 0.08738 0.0
C2091 C 0.66127 0.87869 0.0711 0.0
C2092 C 0.71635 0.72239 0.05025 0.0
C2093 C 0.70935 0.74154 0.0612 0.0
C2094 C 0.71735 0.80156 0.05591 0.0
C2095 C 0.67086 0.83932 0.0723 0.0
C2096 C 0.68735 0.82114 0.07326 0.0
C2097 C 0.7229 0.76064 0.06259 0.0
C2098 C 0.71318 0.78245 0.0688 0.0
H2099 H 0.61524 0.84569 0.06669 0.0
H2100 H 0.64293 0.81669 0.06943 0.0
H2101 H 0.70724 0.83467 0.04704 0.0
H2102 H 0.76768 0.74007 0.03666 0.0
H2103 H 0.75554 0.77348 0.05612 0.0
C2104 C 0.10923 0.11973 0.1603 0.0
C2105 C 0.12697 0.12145 0.17616 0.0
C2106 C 0.09074 0.10687 0.16486 0.0
C2107 C 0.06831 0.06554 0.20499 0.0
H2108 H 0.01262 0.09261 0.18604 0.0
C2109 C 0.98417 0.04103 0.24084 0.0
C2110 C 0.96696 0.03668 0.22479 0.0
C2111 C 0.00409 0.0503 0.23427 0.0
C2112 C 0.02805 0.08477 0.19128 0.0
H2113 H 0.1398 0.11044 0.20879 0.0
H2114 H 0.10714 0.08853 0.21723 0.0
H2115 H 0.04712 0.10968 0.17539 0.0
H2116 H 0.95702 0.03906 0.18935 0.0
H2117 H 0.99171 0.05575 0.17801 0.0
H2118 H 0.0489 0.0411 0.22165 0.0
C2119 C 0.10765 0.09664 0.201 0.0
C2120 C 0.04787 0.09444 0.18505 0.0
C2121 C 0.12639 0.1092 0.19621 0.0
C2122 C 0.96996 0.0422 0.20211 0.0
C2123 C 0.98976 0.05178 0.19562 0.0
C2124 C 0.04843 0.05604 0.21149 0.0
C2125 C 0.08932 0.09584 0.18563 0.0
C2126 C 0.06828 0.08494 0.19177 0.0
C2127 C 0.00707 0.05571 0.21161 0.0
C2128 C 0.02814 0.06559 0.20466 0.0
H2129 H 0.10941 0.12887 0.1446 0.0
H2130 H 0.07728 0.10609 0.15232 0.0
H2131 H 0.08366 0.05759 0.21024 0.0
H2132 H 0.98244 0.03685 0.25842 0.0
H2133 H 0.01713 0.05338 0.24694 0.0
C2134 C 0.91386 0.35779 0.20603 0.0
C2135 C 0.89533 0.35992 0.21933 0.0
C2136 C 0.93358 0.36853 0.21213 0.0
C2137 C 0.96612 0.38893 0.26057 0.0
H2138 H 1.00002 0.41786 0.21489 0.0
C2139 C 0.05885 0.42579 0.24114 0.0
C2140 C 0.06245 0.43979 0.25993 0.0
C2141 C 0.03945 0.41325 0.23874 0.0
C2142 C 0.99097 0.40949 0.22779 0.0
H2143 H 0.88263 0.37532 0.24918 0.0
H2144 H 0.91766 0.39425 0.26011 0.0
H2145 H 0.96287 0.40462 0.20537 0.0
H2146 H 0.04987 0.44972 0.29214 0.0
H2147 H 0.01585 0.42808 0.2878 0.0
H2148 H 0.99446 0.3937 0.28296 0.0
C2149 C 0.91669 0.38418 0.24492 0.0
C2150 C 0.96958 0.40213 0.22237 0.0
C2151 C 0.89668 0.3736 0.23858 0.0
C2152 C 0.04756 0.43903 0.27749 0.0
C2153 C 0.02798 0.42668 0.27495 0.0
C2154 C 0.98767 0.39628 0.26602 0.0
C2155 C 0.93536 0.38153 0.2318 0.0
C2156 C 0.95703 0.39151 0.23858 0.0
C2157 C 0.02317 0.41472 0.25493 0.0
C2158 C 1.00044 0.40634 0.24956 0.0
H2159 H 0.91324 0.34735 0.19108 0.0
H2160 H 0.94771 0.366 0.2018 0.0
H2161 H 0.95684 0.38059 0.27332 0.0
H2162 H 0.07021 0.42585 0.22749 0.0
H2163 H 0.03654 0.40356 0.22347 0.0
C2164 C 0.22956 0.1747 0.82373 0.0
C2165 C 0.24603 0.18953 0.83197 0.0
C2166 C 0.2074 0.17812 0.82851 0.0
C2167 C 0.16803 0.22067 0.84698 0.0
H2168 H 0.1337 0.16939 0.8646 0.0
C2169 C 0.07763 0.23017 0.87177 0.0
C2170 C 0.06293 0.21522 0.86064 0.0
C2171 C 0.10043 0.22634 0.87209 0.0
C2172 C 0.14304 0.18388 0.85966 0.0
H2173 H 0.25186 0.22015 0.85094 0.0
H2174 H 0.21332 0.22606 0.85916 0.0
H2175 H 0.17232 0.16473 0.85552 0.0
H2176 H 0.06047 0.18365 0.8428 0.0
H2177 H 0.09996 0.17709 0.84324 0.0
H2178 H 0.13866 0.23976 0.85067 0.0
C2179 C 0.21752 0.21179 0.84901 0.0
C2180 C 0.16514 0.18119 0.85434 0.0
C2181 C 0.23966 0.20834 0.84433 0.0
C2182 C 0.07136 0.19559 0.85137 0.0
C2183 C 0.09405 0.19175 0.85174 0.0
C2184 C 0.1459 0.22336 0.85224 0.0
C2185 C 0.20118 0.19651 0.84152 0.0
C2186 C 0.17782 0.1995 0.84767 0.0
C2187 C 0.10892 0.20745 0.86139 0.0
C2188 C 0.13305 0.20495 0.85836 0.0
H2189 H 0.23383 0.16004 0.81418 0.0
H2190 H 0.19514 0.16625 0.82215 0.0
H2191 H 0.17728 0.2351 0.84173 0.0
H2192 H 0.07167 0.24545 0.87906 0.0
H2193 H 0.11144 0.23856 0.88002 0.0
C2194 C 0.46 0.50816 0.39942 0.0
C2195 C 0.43801 0.50224 0.40344 0.0
C2196 C 0.46552 0.53004 0.39394 0.0
C2197 C 0.44148 0.58057 0.36864 0.0
H2198 H 0.49382 0.60958 0.39468 0.0
C2199 C 0.45926 0.67496 0.36075 0.0
C2200 C 0.4813 0.68218 0.36188 0.0
C2201 C 0.45421 0.65225 0.36213 0.0
C2202 C 0.47939 0.60161 0.38683 0.0
H2203 H 0.4047 0.51499 0.40553 0.0
H2204 H 0.41441 0.55324 0.39601 0.0
H2205 H 0.48447 0.57206 0.40638 0.0
H2206 H 0.51539 0.67169 0.36389 0.0
H2207 H 0.50674 0.63195 0.36512 0.0
H2208 H 0.43641 0.6101 0.34901 0.0
C2209 C 0.42731 0.54082 0.39693 0.0
C2210 C 0.47395 0.58012 0.39371 0.0
C2211 C 0.42181 0.51895 0.40264 0.0
C2212 C 0.49826 0.66639 0.36263 0.0
C2213 C 0.49326 0.64369 0.36375 0.0
C2214 C 0.44701 0.60204 0.36161 0.0
C2215 C 0.44917 0.54652 0.39215 0.0
C2216 C 0.45487 0.56941 0.38482 0.0
C2217 C 0.47118 0.6364 0.36467 0.0
C2218 C 0.46599 0.61291 0.3707 0.0
H2219 H 0.47291 0.49574 0.39989 0.0
H2220 H 0.48249 0.53388 0.39028 0.0
H2221 H 0.42684 0.57259 0.36122 0.0
H2222 H 0.44595 0.68695 0.36075 0.0
H2223 H 0.43704 0.64736 0.36294 0.0
C2224 C 0.76375 0.34815 0.81905 0.0
C2225 C 0.7508 0.32875 0.81672 0.0
C2226 C 0.78683 0.34684 0.81909 0.0
C2227 C 0.83392 0.31141 0.80504 0.0
H2228 H 0.86099 0.33331 0.86116 0.0
C2229 C 0.91836 0.27953 0.83905 0.0
C2230 C 0.93193 0.29354 0.85267 0.0
C2231 C 0.89731 0.28641 0.8316 0.0
C2232 C 0.85398 0.32751 0.84512 0.0
H2233 H 0.75157 0.29313 0.81094 0.0
H2234 H 0.79176 0.29095 0.8103 0.0
H2235 H 0.82254 0.34171 0.85178 0.0
H2236 H 0.93447 0.32614 0.86836 0.0
H2237 H 0.89815 0.33851 0.85474 0.0
H2238 H 0.86527 0.29721 0.79826 0.0
C2239 C 0.78418 0.3071 0.81233 0.0
C2240 C 0.83185 0.33234 0.83979 0.0
C2241 C 0.7612 0.30833 0.81278 0.0
C2242 C 0.92426 0.31484 0.85815 0.0
C2243 C 0.90336 0.32188 0.85039 0.0
C2244 C 0.85618 0.30689 0.81017 0.0
C2245 C 0.79725 0.32619 0.81627 0.0
C2246 C 0.82147 0.32391 0.81996 0.0
C2247 C 0.88942 0.30764 0.83729 0.0
C2248 C 0.8664 0.31441 0.83057 0.0
H2249 H 0.75614 0.36406 0.82232 0.0
H2250 H 0.79657 0.3618 0.8221 0.0
H2251 H 0.8263 0.30482 0.78957 0.0
H2252 H 0.92373 0.26296 0.83465 0.0
H2253 H 0.88703 0.27476 0.82192 0.0
C2254 C 0.58165 0.99366 0.40226 0.0
C2255 C 0.56584 0.01061 0.39952 0.0
C2256 C 0.57585 0.97144 0.39831 0.0
C2257 C 0.53013 0.93166 0.39566 0.0
H2258 H 0.56619 0.89937 0.35408 0.0
C2259 C 0.52355 0.8361 0.37674 0.0
C2260 C 0.52117 0.8309 0.35363 0.0
C2261 C 0.52849 0.85791 0.38382 0.0
C2262 C 0.55604 0.90817 0.36578 0.0
H2263 H 0.53134 0.01738 0.39115 0.0
H2264 H 0.52116 0.97829 0.38454 0.0
H2265 H 0.57553 0.93788 0.36401 0.0
H2266 H 0.52248 0.84471 0.31987 0.0
H2267 H 0.53159 0.88233 0.33227 0.0
H2268 H 0.51068 0.90174 0.39739 0.0
C2269 C 0.53806 0.98239 0.38965 0.0
C2270 C 0.56142 0.93013 0.37152 0.0
C2271 C 0.54393 0.00473 0.39329 0.0
C2272 C 0.52408 0.84799 0.33782 0.0
C2273 C 0.52937 0.86958 0.34487 0.0
C2274 C 0.52495 0.90949 0.39019 0.0
C2275 C 0.55406 0.9656 0.39183 0.0
C2276 C 0.54843 0.94214 0.38635 0.0
C2277 C 0.53163 0.87476 0.3679 0.0
C2278 C 0.53774 0.89768 0.375 0.0
H2279 H 0.59868 0.99756 0.40702 0.0
H2280 H 0.58846 0.95879 0.40024 0.0
H2281 H 0.51994 0.94057 0.40723 0.0
H2282 H 0.52177 0.82342 0.3894 0.0
H2283 H 0.53034 0.86152 0.40169 0.0
C2284 C 0.24381 0.8001 0.67479 0.0
C2285 C 0.25371 0.82031 0.68182 0.0
C2286 C 0.22114 0.79862 0.67047 0.0
C2287 C 0.17283 0.83323 0.6552 0.0
H2288 H 0.14147 0.77803 0.6658 0.0
C2289 C 0.07782 0.81882 0.648 0.0
C2290 C 0.0705 0.79821 0.63909 0.0
C2291 C 0.10035 0.82376 0.65005 0.0
C2292 C 0.15011 0.79344 0.66246 0.0
H2293 H 0.24733 0.85456 0.69102 0.0
H2294 H 0.20724 0.85182 0.68399 0.0
H2295 H 0.17952 0.78226 0.67973 0.0
H2296 H 0.08085 0.76767 0.62311 0.0
H2297 H 0.12029 0.77627 0.6269 0.0
H2298 H 0.14281 0.84451 0.63855 0.0
C2299 C 0.21728 0.83725 0.68135 0.0
C2300 C 0.1719 0.79592 0.6705 0.0
C2301 C 0.24018 0.83876 0.68565 0.0
C2302 C 0.08598 0.78362 0.63015 0.0
C2303 C 0.10854 0.78846 0.63247 0.0
C2304 C 0.15081 0.83084 0.64742 0.0
C2305 C 0.20758 0.81724 0.67326 0.0
C2306 C 0.18368 0.81569 0.66668 0.0
C2307 C 0.11591 0.8081 0.6434 0.0
C2308 C 0.13941 0.81077 0.65069 0.0
H2309 H 0.25371 0.78549 0.67179 0.0
H2310 H 0.2144 0.78302 0.664 0.0
H2311 H 0.18147 0.84858 0.65172 0.0
H2312 H 0.06623 0.8305 0.65481 0.0
H2313 H 0.10561 0.83904 0.65847 0.0
C2314 C 0.04611 0.50612 0.60362 0.0
C2315 C 0.06731 0.49876 0.5983 0.0
C2316 C 0.04191 0.52885 0.60667 0.0
C2317 C 0.06947 0.58014 0.6251 0.0
H2318 H 0.01851 0.6105 0.59844 0.0
C2319 C 0.03653 0.66352 0.65863 0.0
C2320 C 0.03243 0.68063 0.64284 0.0
C2321 C 0.04151 0.64195 0.6516 0.0
C2322 C 0.03287 0.60225 0.60588 0.0
H2323 H 0.10062 0.50976 0.5917 0.0
H2324 H 0.09335 0.54925 0.5975 0.0
H2325 H 0.02533 0.57142 0.58867 0.0
H2326 H 0.03114 0.68813 0.60707 0.0
H2327 H 0.03891 0.65016 0.59482 0.0
H2328 H 0.07665 0.61066 0.64284 0.0
C2329 C 0.07997 0.53741 0.59915 0.0
C2330 C 0.03668 0.57988 0.60042 0.0
C2331 C 0.08408 0.51476 0.59571 0.0
C2332 C 0.03369 0.67548 0.61976 0.0
C2333 C 0.03823 0.6537 0.6127 0.0
C2334 C 0.06542 0.6023 0.63088 0.0
C2335 C 0.05891 0.54469 0.60486 0.0
C2336 C 0.05502 0.56859 0.61002 0.0
C2337 C 0.04221 0.63674 0.62858 0.0
C2338 C 0.04705 0.61358 0.6214 0.0
H2339 H 0.0328 0.49428 0.60569 0.0
H2340 H 0.02555 0.53397 0.61118 0.0
H2341 H 0.08364 0.57183 0.63289 0.0
H2342 H 0.03591 0.66673 0.67656 0.0
H2343 H 0.04443 0.6292 0.66422 0.0
C2344 C 0.77753 0.65252 0.66009 0.0
C2345 C 0.76484 0.67183 0.66258 0.0
C2346 C 0.80064 0.65387 0.66061 0.0
C2347 C 0.84815 0.68785 0.6797 0.0
H2348 H 0.87551 0.66913 0.62487 0.0
C2349 C 0.93288 0.72156 0.65552 0.0
C2350 C 0.9465 0.70862 0.64209 0.0
C2351 C 0.91187 0.71402 0.66074 0.0
C2352 C 0.86838 0.67399 0.64057 0.0
H2353 H 0.76627 0.70742 0.66872 0.0
H2354 H 0.80655 0.70963 0.67035 0.0
H2355 H 0.83668 0.66072 0.63006 0.0
H2356 H 0.94913 0.6771 0.62452 0.0
H2357 H 0.91277 0.66352 0.63431 0.0
H2358 H 0.87968 0.70103 0.69041 0.0
C2359 C 0.79867 0.69354 0.66772 0.0
C2360 C 0.84607 0.66921 0.64346 0.0
C2361 C 0.77565 0.69229 0.66667 0.0
C2362 C 0.93894 0.68758 0.6347 0.0
C2363 C 0.918 0.67986 0.64022 0.0
C2364 C 0.87056 0.69229 0.67702 0.0
C2365 C 0.81137 0.67445 0.66423 0.0
C2366 C 0.83563 0.67659 0.66279 0.0
C2367 C 0.90399 0.69315 0.65297 0.0
C2368 C 0.88087 0.68598 0.65712 0.0
H2369 H 0.76959 0.63658 0.65678 0.0
H2370 H 0.81013 0.63894 0.65788 0.0
H2371 H 0.84048 0.69356 0.69484 0.0
H2372 H 0.93811 0.73794 0.66135 0.0
H2373 H 0.90154 0.72499 0.67022 0.0
C2374 C 0.92826 0.99125 0.59177 0.0
C2375 C 0.94279 0.00879 0.59791 0.0
C2376 C 0.93311 0.96932 0.59807 0.0
C2377 C 0.9789 0.93229 0.61704 0.0
H2378 H 0.9312 0.89472 0.63676 0.0
C2379 C 0.9947 0.84111 0.64336 0.0
C2380 C 0.98007 0.82589 0.63265 0.0
C2381 C 0.9897 0.86391 0.64353 0.0
C2382 C 0.94471 0.90498 0.63127 0.0
H2383 H 0.97418 0.01671 0.61512 0.0
H2384 H 0.98255 0.97854 0.62605 0.0
H2385 H 0.92385 0.93342 0.62681 0.0
H2386 H 0.94857 0.82211 0.61461 0.0
H2387 H 0.93956 0.86157 0.61528 0.0
H2388 H 0.99966 0.90371 0.62109 0.0
C2389 C 0.96744 0.98174 0.61627 0.0
C2390 C 0.94048 0.92715 0.62545 0.0
C2391 C 0.96258 0.00369 0.61003 0.0
C2392 C 0.95986 0.83353 0.62339 0.0
C2393 C 0.95476 0.85617 0.62374 0.0
C2394 C 0.98314 0.9101 0.62286 0.0
C2395 C 0.95264 0.9643 0.61063 0.0
C2396 C 0.95743 0.941 0.6179 0.0
C2397 C 0.96996 0.87177 0.63306 0.0
C2398 C 0.96602 0.89605 0.62971 0.0
H2399 H 0.91289 0.99447 0.58244 0.0
H2400 H 0.92152 0.95626 0.59306 0.0
H2401 H 0.99232 0.94239 0.61111 0.0
H2402 H 0.01061 0.83563 0.65015 0.0
H2403 H 0.00167 0.87546 0.65104 0.0
C2404 C 0.81809 0.22416 0.16077 0.0
C2405 C 0.82879 0.23459 0.17952 0.0
C2406 C 0.81778 0.20089 0.15887 0.0
C2407 C 0.85202 0.15448 0.17301 0.0
H2408 H 0.80076 0.11562 0.17396 0.0
C2409 C 0.86381 0.06082 0.17763 0.0
C2410 C 0.85356 0.05128 0.19615 0.0
C2411 C 0.85718 0.08161 0.1695 0.0
C2412 C 0.81518 0.12631 0.17341 0.0
H2413 H 0.84657 0.2286 0.21148 0.0
H2414 H 0.8463 0.18834 0.20783 0.0
H2415 H 0.79577 0.15621 0.17221 0.0
H2416 H 0.82701 0.05527 0.21933 0.0
H2417 H 0.81568 0.09163 0.20532 0.0
H2418 H 0.87157 0.1251 0.17517 0.0
C2419 C 0.83821 0.19817 0.19467 0.0
C2420 C 0.8123 0.14941 0.1723 0.0
C2421 C 0.83829 0.22125 0.19672 0.0
C2422 C 0.8354 0.06219 0.20517 0.0
C2423 C 0.82876 0.08299 0.19702 0.0
C2424 C 0.85489 0.13152 0.17385 0.0
C2425 C 0.82839 0.18785 0.17556 0.0
C2426 C 0.83077 0.16361 0.17281 0.0
C2427 C 0.84016 0.09329 0.17969 0.0
C2428 C 0.83655 0.11719 0.17472 0.0
H2429 H 0.81053 0.23394 0.14728 0.0
H2430 H 0.81009 0.19314 0.14401 0.0
H2431 H 0.86647 0.16521 0.17339 0.0
H2432 H 0.87763 0.05272 0.17003 0.0
H2433 H 0.86603 0.08902 0.15588 0.0
C2434 C 0.49046 0.90109 0.04553 0.0
C2435 C 0.49759 0.91389 0.06441 0.0
C2436 C 0.46845 0.89409 0.04288 0.0
C2437 C 0.41996 0.88317 0.07715 0.0
H2438 H 0.38811 0.87935 0.01931 0.0
C2439 C 0.3256 0.87619 0.06614 0.0
C2440 C 0.31628 0.86535 0.04699 0.0
C2441 C 0.34847 0.87722 0.06979 0.0
C2442 C 0.39693 0.87985 0.03554 0.0
H2443 H 0.48657 0.93077 0.09433 0.0
H2444 H 0.44817 0.91902 0.08935 0.0
H2445 H 0.42584 0.89372 0.02128 0.0
H2446 H 0.32341 0.84519 0.01787 0.0
H2447 H 0.36356 0.8468 0.02435 0.0
H2448 H 0.39084 0.86977 0.09146 0.0
C2449 C 0.45978 0.91383 0.07697 0.0
C2450 C 0.41853 0.88823 0.03669 0.0
C2451 C 0.48178 0.92081 0.07966 0.0
C2452 C 0.33015 0.85354 0.03284 0.0
C2453 C 0.35313 0.85476 0.03637 0.0
C2454 C 0.39836 0.87482 0.07601 0.0
C2455 C 0.453 0.89976 0.05897 0.0
C2456 C 0.4302 0.89033 0.05755 0.0
C2457 C 0.36253 0.86755 0.05426 0.0
C2458 C 0.38646 0.87336 0.05523 0.0
H2459 H 0.5021 0.8954 0.03342 0.0
H2460 H 0.46383 0.88328 0.0288 0.0
H2461 H 0.42865 0.88401 0.09344 0.0
H2462 H 0.31525 0.88546 0.07729 0.0
H2463 H 0.35509 0.88722 0.08372 0.0
C2464 C 0.17699 0.26941 0.14666 0.0
C2465 C 0.18019 0.25467 0.16483 0.0
C2466 C 0.17069 0.29151 0.15055 0.0
C2467 C 0.14122 0.32393 0.19244 0.0
H2468 H 0.16555 0.37587 0.16382 0.0
C2469 C 0.12992 0.41373 0.22509 0.0
C2470 C 0.13184 0.43128 0.20978 0.0
C2471 C 0.13159 0.39165 0.21766 0.0
C2472 C 0.15816 0.36154 0.17161 0.0
H2473 H 0.18119 0.252 0.2013 0.0
H2474 H 0.17056 0.29036 0.208 0.0
H2475 H 0.17922 0.33905 0.15445 0.0
H2476 H 0.13429 0.43976 0.17455 0.0
H2477 H 0.13594 0.40137 0.16139 0.0
H2478 H 0.12018 0.34629 0.20966 0.0
C2479 C 0.17232 0.2848 0.19078 0.0
C2480 C 0.16615 0.34043 0.16631 0.0
C2481 C 0.17863 0.26289 0.18693 0.0
C2482 C 0.13286 0.42645 0.18668 0.0
C2483 C 0.13416 0.40446 0.17922 0.0
C2484 C 0.13308 0.345 0.19761 0.0
C2485 C 0.16746 0.29911 0.17264 0.0
C2486 C 0.15808 0.32145 0.17699 0.0
C2487 C 0.13491 0.38684 0.19475 0.0
C2488 C 0.14168 0.36414 0.18755 0.0
H2489 H 0.17785 0.2635 0.12945 0.0
H2490 H 0.16715 0.30224 0.13624 0.0
H2491 H 0.13435 0.30952 0.20062 0.0
H2492 H 0.12939 0.41707 0.24301 0.0
H2493 H 0.13207 0.37856 0.23015 0.0
C2494 C 0.50596 0.60391 0.04797 0.0
C2495 C 0.50043 0.60391 0.07074 0.0
C2496 C 0.52745 0.60878 0.04178 0.0
C2497 C 0.58578 0.61528 0.06399 0.0
H2498 H 0.59173 0.64621 0.00724 0.0
C2499 C 0.67099 0.6429 0.03221 0.0
C2500 C 0.67515 0.63401 0.01088 0.0
C2501 C 0.64944 0.64297 0.04008 0.0
C2502 C 0.59033 0.63764 0.02316 0.0
H2503 H 0.51335 0.60856 0.10497 0.0
H2504 H 0.55093 0.61773 0.0942 0.0
H2505 H 0.55509 0.63802 0.02058 0.0
H2506 H 0.66018 0.61926 0.98066 0.0
H2507 H 0.62247 0.62039 0.99385 0.0
H2508 H 0.62123 0.61529 0.06651 0.0
C2509 C 0.53871 0.61352 0.08106 0.0
C2510 C 0.5693 0.6327 0.03076 0.0
C2511 C 0.51715 0.60825 0.08729 0.0
C2512 C 0.6573 0.62664 0.99697 0.0
C2513 C 0.63575 0.62716 0.0046 0.0
C2514 C 0.60685 0.62055 0.05651 0.0
C2515 C 0.54407 0.61427 0.05813 0.0
C2516 C 0.56665 0.62096 0.05103 0.0
C2517 C 0.63168 0.63451 0.02657 0.0
C2518 C 0.60936 0.63141 0.0358 0.0
H2519 H 0.49353 0.60036 0.03479 0.0
H2520 H 0.53093 0.60835 0.02403 0.0
H2521 H 0.58457 0.60609 0.07954 0.0
H2522 H 0.68457 0.64817 0.04345 0.0
H2523 H 0.64678 0.64884 0.05703 0.0
C2524 C 0.84881 0.76846 0.30793 0.0
C2525 C 0.84133 0.75794 0.32736 0.0
C2526 C 0.85568 0.79057 0.30866 0.0
C2527 C 0.85044 0.84324 0.33732 0.0
H2528 H 0.90526 0.85682 0.3084 0.0
C2529 C 0.87192 0.93314 0.32046 0.0
C2530 C 0.87639 0.93697 0.29776 0.0
C2531 C 0.87403 0.91187 0.32954 0.0
C2532 C 0.88997 0.85333 0.31659 0.0
H2533 H 0.83397 0.76288 0.3625 0.0
H2534 H 0.84558 0.80212 0.36356 0.0
H2535 H 0.89417 0.81809 0.31352 0.0
H2536 H 0.88904 0.9224 0.26749 0.0
H2537 H 0.89211 0.88501 0.28303 0.0
H2538 H 0.84541 0.87828 0.33921 0.0
C2539 C 0.84639 0.79287 0.34791 0.0
C2540 C 0.88364 0.83119 0.31954 0.0
C2541 C 0.83961 0.77052 0.34725 0.0
C2542 C 0.88539 0.91981 0.28502 0.0
C2543 C 0.88718 0.89838 0.294 0.0
C2544 C 0.85666 0.86538 0.33422 0.0
C2545 C 0.8551 0.80282 0.32876 0.0
C2546 C 0.86346 0.82599 0.32923 0.0
C2547 C 0.88028 0.89396 0.31596 0.0
C2548 C 0.87616 0.8707 0.32315 0.0
H2549 H 0.85006 0.75941 0.29221 0.0
H2550 H 0.8617 0.79805 0.29347 0.0
H2551 H 0.83477 0.83965 0.34474 0.0
H2552 H 0.86535 0.94628 0.33077 0.0
H2553 H 0.86929 0.90917 0.34673 0.0
C2554 C 0.01352 0.91806 0.92139 0.0
C2555 C 0.99718 0.90847 0.93456 0.0
C2556 C 0.0359 0.91512 0.92701 0.0
C2557 C 0.07968 0.891 0.93321 0.0
H2558 H 0.10446 0.89525 0.99433 0.0
C2559 C 0.16269 0.85151 0.96238 0.0
C2560 C 0.17661 0.86378 0.97738 0.0
C2561 C 0.14172 0.85943 0.956 0.0
C2562 C 0.09781 0.89421 0.97714 0.0
H2563 H 0.99175 0.88911 0.96467 0.0
H2564 H 0.03095 0.8841 0.97453 0.0
H2565 H 0.06573 0.90492 0.98654 0.0
H2566 H 0.17956 0.89424 0.99698 0.0
H2567 H 0.14296 0.90809 0.98581 0.0
H2568 H 0.11162 0.87996 0.92385 0.0
C2569 C 0.0263 0.89388 0.95981 0.0
C2570 C 0.07562 0.89954 0.97274 0.0
C2571 C 0.00384 0.89669 0.95411 0.0
C2572 C 0.16938 0.88451 0.98522 0.0
C2573 C 0.14831 0.89233 0.97904 0.0
C2574 C 0.10179 0.88546 0.93765 0.0
C2575 C 0.04254 0.90266 0.94603 0.0
C2576 C 0.06629 0.89788 0.95074 0.0
C2577 C 0.13412 0.87968 0.96467 0.0
C2578 C 0.11106 0.88688 0.95968 0.0
H2579 H 0.0091 0.92737 0.90628 0.0
H2580 H 0.04805 0.92236 0.91626 0.0
H2581 H 0.0729 0.88935 0.91611 0.0
H2582 H 0.16776 0.83547 0.95604 0.0
H2583 H 0.1311 0.84925 0.945 0.0
C2584 C 0.19299 0.72737 0.35091 0.0
C2585 C 0.19056 0.74061 0.33152 0.0
C2586 C 0.19341 0.70414 0.34899 0.0
C2587 C 0.20197 0.65693 0.31134 0.0
H2588 H 0.15043 0.63052 0.33743 0.0
C2589 C 0.16573 0.57324 0.27957 0.0
C2590 C 0.15321 0.56017 0.29394 0.0
C2591 C 0.17417 0.59387 0.2868 0.0
C2592 C 0.16527 0.63728 0.33048 0.0
H2593 H 0.1883 0.74025 0.29499 0.0
H2594 H 0.18987 0.69971 0.29164 0.0
H2595 H 0.16011 0.66899 0.34598 0.0
H2596 H 0.14091 0.55768 0.32762 0.0
H2597 H 0.15654 0.59306 0.3407 0.0
H2598 H 0.2074 0.62531 0.29596 0.0
C2599 C 0.19114 0.70724 0.30827 0.0
C2600 C 0.17074 0.65943 0.33536 0.0
C2601 C 0.19015 0.73037 0.31019 0.0
C2602 C 0.15017 0.56762 0.31604 0.0
C2603 C 0.15905 0.58801 0.32347 0.0
C2604 C 0.19683 0.63458 0.30685 0.0
C2605 C 0.19204 0.69391 0.32765 0.0
C2606 C 0.18877 0.66959 0.32539 0.0
C2607 C 0.17072 0.60171 0.30879 0.0
C2608 C 0.178 0.6246 0.31582 0.0
H2609 H 0.19315 0.73488 0.36755 0.0
H2610 H 0.19406 0.69413 0.36415 0.0
H2611 H 0.21602 0.66446 0.30351 0.0
H2612 H 0.16833 0.56792 0.26241 0.0
H2613 H 0.18269 0.60395 0.27478 0.0
C2614 C 0.9843 0.59323 0.91642 0.0
C2615 C 1.00134 0.59344 0.93323 0.0
C2616 C 0.96218 0.59576 0.92212 0.0
C2617 C 0.91506 0.59369 0.93911 0.0
H2618 H 0.90546 0.63597 0.98721 0.0
C2619 C 0.8272 0.61482 0.97003 0.0
C2620 C 0.82325 0.63744 0.9746 0.0
C2621 C 0.84863 0.60738 0.96587 0.0
C2622 C 0.90777 0.62418 0.97366 0.0
H2623 H 0.00825 0.59504 0.96935 0.0
H2624 H 0.96993 0.59877 0.97927 0.0
H2625 H 0.94285 0.6267 0.97766 0.0
H2626 H 0.839 0.66988 0.97844 0.0
H2627 H 0.87583 0.65708 0.97103 0.0
H2628 H 0.87977 0.59199 0.93461 0.0
C2629 C 0.97357 0.59742 0.96161 0.0
C2630 C 0.92932 0.61859 0.96836 0.0
C2631 C 0.99562 0.59513 0.95591 0.0
C2632 C 0.84129 0.65232 0.9751 0.0
C2633 C 0.86257 0.64492 0.97098 0.0
C2634 C 0.89341 0.59936 0.9444 0.0
C2635 C 0.95655 0.59838 0.94479 0.0
C2636 C 0.93335 0.60339 0.95091 0.0
C2637 C 0.8666 0.62238 0.96627 0.0
C2638 C 0.88949 0.61492 0.96156 0.0
H2639 H 0.98809 0.59203 0.89877 0.0
H2640 H 0.94961 0.59657 0.90867 0.0
H2641 H 0.91746 0.58173 0.92574 0.0
H2642 H 0.81374 0.6029 0.96936 0.0
H2643 H 0.85112 0.58987 0.96248 0.0
C2644 C 0.1483 0.82281 0.2377 0.0
C2645 C 0.16603 0.81353 0.25038 0.0
C2646 C 0.15127 0.82969 0.21547 0.0
C2647 C 0.19464 0.85577 0.18747 0.0
H2648 H 0.16965 0.83906 0.12867 0.0
C2649 C 0.24156 0.86165 0.10734 0.0
C2650 C 0.2305 0.86601 0.08665 0.0
C2651 C 0.23 0.8611 0.12713 0.0
C2652 C 0.17633 0.84436 0.14503 0.0
H2653 H 0.19974 0.802 0.24946 0.0
H2654 H 0.20477 0.81353 0.21063 0.0
H2655 H 0.15472 0.82258 0.16274 0.0
H2656 H 0.19909 0.87487 0.07045 0.0
H2657 H 0.17862 0.87357 0.1053 0.0
H2658 H 0.21676 0.87685 0.17007 0.0
C2659 C 0.18874 0.81569 0.2178 0.0
C2660 C 0.16789 0.83481 0.16442 0.0
C2661 C 0.1858 0.80889 0.23987 0.0
C2662 C 0.20799 0.8716 0.08628 0.0
C2663 C 0.19626 0.87064 0.10612 0.0
C2664 C 0.20294 0.86537 0.16822 0.0
C2665 C 0.17196 0.82729 0.20595 0.0
C2666 C 0.17767 0.8398 0.18565 0.0
C2667 C 0.20706 0.8646 0.12658 0.0
C2668 C 0.19454 0.85905 0.14676 0.0
H2669 H 0.13307 0.82694 0.24569 0.0
H2670 H 0.13816 0.83865 0.20655 0.0
H2671 H 0.20214 0.86009 0.20379 0.0
H2672 H 0.25891 0.85727 0.10802 0.0
H2673 H 0.23877 0.85624 0.14258 0.0
C2674 C 0.19984 0.16326 0.25199 0.0
C2675 C 0.17996 0.1691 0.2405 0.0
C2676 C 0.19984 0.15566 0.27411 0.0
C2677 C 0.17021 0.15646 0.32578 0.0
H2678 H 0.20452 0.10345 0.33958 0.0
C2679 C 0.18477 0.13188 0.41699 0.0
C2680 C 0.20714 0.12842 0.42293 0.0
C2681 C 0.17729 0.13034 0.39453 0.0
C2682 C 0.19487 0.11825 0.33603 0.0
H2683 H 0.14461 0.17273 0.24378 0.0
H2684 H 0.14477 0.15993 0.28296 0.0
H2685 H 0.19977 0.11588 0.30057 0.0
H2686 H 0.23875 0.1183 0.41073 0.0
H2687 H 0.226 0.11638 0.37132 0.0
H2688 H 0.16632 0.15977 0.36115 0.0
C2689 C 0.16025 0.16097 0.27449 0.0
C2690 C 0.19214 0.12534 0.31372 0.0
C2691 C 0.1602 0.16842 0.25216 0.0
C2692 C 0.22142 0.12107 0.4065 0.0
C2693 C 0.21404 0.11995 0.3839 0.0
C2694 C 0.17312 0.14952 0.34811 0.0
C2695 C 0.18001 0.15392 0.28538 0.0
C2696 C 0.18031 0.14484 0.3085 0.0
C2697 C 0.19217 0.12583 0.37755 0.0
C2698 C 0.18597 0.13065 0.35358 0.0
H2699 H 0.21542 0.16378 0.24365 0.0
H2700 H 0.21538 0.15089 0.28235 0.0
H2701 H 0.16112 0.17161 0.32219 0.0
H2702 H 0.17337 0.13722 0.42953 0.0
H2703 H 0.16017 0.13419 0.39032 0.0
C2704 C 0.41426 0.54901 0.9939 0.0
C2705 C 0.41714 0.57122 0.00107 0.0
C2706 C 0.40738 0.54413 0.97167 0.0
C2707 C 0.40107 0.56802 0.9143 0.0
H2708 H 0.35661 0.52168 0.9059 0.0
C2709 C 0.36395 0.54968 0.82639 0.0
C2710 C 0.36536 0.52723 0.82016 0.0
C2711 C 0.36576 0.55585 0.84912 0.0
C2712 C 0.36901 0.53466 0.90799 0.0
H2713 H 0.41606 0.60565 0.99008 0.0
H2714 H 0.40402 0.59712 0.95143 0.0
H2715 H 0.37128 0.53055 0.94381 0.0
H2716 H 0.36849 0.49349 0.83239 0.0
H2717 H 0.37139 0.50411 0.87215 0.0
H2718 H 0.39899 0.57199 0.87851 0.0
C2719 C 0.4072 0.58345 0.96294 0.0
C2720 C 0.37755 0.53964 0.92967 0.0
C2721 C 0.41418 0.58835 0.98515 0.0
C2722 C 0.36679 0.51087 0.83693 0.0
C2723 C 0.36859 0.51701 0.85967 0.0
C2724 C 0.39249 0.56309 0.89266 0.0
C2725 C 0.40315 0.56132 0.9561 0.0
C2726 C 0.39386 0.55623 0.93306 0.0
C2727 C 0.36924 0.53963 0.86592 0.0
C2728 C 0.37649 0.54623 0.88922 0.0
H2729 H 0.41651 0.53539 0.00566 0.0
H2730 H 0.40496 0.52686 0.9668 0.0
H2731 H 0.41379 0.5807 0.91624 0.0
H2732 H 0.36332 0.56255 0.81363 0.0
H2733 H 0.36585 0.57339 0.85344 0.0
C2734 C 0.80184 0.29935 0.27112 0.0
C2735 C 0.82372 0.30506 0.26682 0.0
C2736 C 0.79453 0.29974 0.2931 0.0
C2737 C 0.77864 0.3213 0.33484 0.0
H2738 H 0.81537 0.31458 0.38931 0.0
C2739 C 0.75619 0.36401 0.41713 0.0
C2740 C 0.76063 0.3531 0.43769 0.0
C2741 C 0.76388 0.35538 0.39706 0.0
C2742 C 0.80474 0.31625 0.37432 0.0
H2743 H 0.85547 0.31462 0.28184 0.0
H2744 H 0.84257 0.31641 0.32025 0.0
H2745 H 0.82878 0.30156 0.35343 0.0
H2746 H 0.77716 0.3248 0.45322 0.0
H2747 H 0.78973 0.30917 0.41813 0.0
H2748 H 0.75439 0.3354 0.35564 0.0
C2749 C 0.83112 0.31088 0.3069 0.0
C2750 C 0.81256 0.30903 0.35366 0.0
C2751 C 0.83857 0.30991 0.2849 0.0
C2752 C 0.77311 0.33342 0.43768 0.0
C2753 C 0.78057 0.3246 0.41754 0.0
C2754 C 0.77074 0.32822 0.35545 0.0
C2755 C 0.80876 0.30664 0.31115 0.0
C2756 C 0.79976 0.31184 0.33357 0.0
C2757 C 0.77599 0.33545 0.39695 0.0
C2758 C 0.78387 0.32628 0.37538 0.0
H2759 H 0.79016 0.29548 0.25733 0.0
H2760 H 0.77741 0.29562 0.29576 0.0
H2761 H 0.76836 0.32417 0.31981 0.0
H2762 H 0.74685 0.37934 0.41647 0.0
H2763 H 0.76049 0.36454 0.38163 0.0
C2764 C 0.11177 0.45649 0.50328 0.0
C2765 C 0.09455 0.44148 0.50757 0.0
C2766 C 0.11626 0.4625 0.48123 0.0
C2767 C 0.09386 0.46479 0.42283 0.0
H2768 H 0.15527 0.45916 0.40778 0.0
C2769 C 0.12295 0.46991 0.33089 0.0
C2770 C 0.14373 0.47956 0.3275 0.0
C2771 C 0.1158 0.46633 0.35274 0.0
C2772 C 0.1381 0.46122 0.4117 0.0
H2773 H 0.06783 0.42193 0.49191 0.0
H2774 H 0.07564 0.43267 0.45332 0.0
H2775 H 0.1445 0.45174 0.44603 0.0
H2776 H 0.17287 0.49397 0.34436 0.0
H2777 H 0.16021 0.48841 0.38226 0.0
H2778 H 0.08749 0.47457 0.38852 0.0
C2779 C 0.08568 0.43965 0.46715 0.0
C2780 C 0.13193 0.45687 0.43366 0.0
C2781 C 0.08128 0.43344 0.48925 0.0
C2782 C 0.15691 0.48618 0.34638 0.0
C2783 C 0.14967 0.48287 0.36816 0.0
C2784 C 0.10007 0.46939 0.40084 0.0
C2785 C 0.10354 0.45384 0.46291 0.0
C2786 C 0.10978 0.45865 0.43949 0.0
C2787 C 0.1292 0.47254 0.37168 0.0
C2788 C 0.12231 0.46772 0.39501 0.0
H2789 H 0.12229 0.46312 0.51691 0.0
H2790 H 0.12994 0.47372 0.47847 0.0
H2791 H 0.07667 0.46638 0.42691 0.0
H2792 H 0.11245 0.46454 0.31669 0.0
H2793 H 0.10005 0.45814 0.35475 0.0
C2794 C 0.2935 0.17034 0.72913 0.0
C2795 C 0.31112 0.18208 0.73983 0.0
C2796 C 0.29109 0.17 0.70569 0.0
C2797 C 0.30642 0.19593 0.65297 0.0
H2798 H 0.30446 0.13521 0.63035 0.0
C2799 C 0.28135 0.16891 0.5619 0.0
C2800 C 0.29293 0.15112 0.55254 0.0
C2801 C 0.28644 0.17617 0.58383 0.0
C2802 C 0.30528 0.15224 0.63642 0.0
H2803 H 0.3388 0.20431 0.73444 0.0
H2804 H 0.33439 0.20374 0.69336 0.0
H2805 H 0.30528 0.14199 0.67083 0.0
H2806 H 0.31999 0.12801 0.55834 0.0
H2807 H 0.32863 0.14051 0.59685 0.0
H2808 H 0.30602 0.20608 0.61831 0.0
C2809 C 0.32265 0.19469 0.7032 0.0
C2810 C 0.30542 0.15612 0.65953 0.0
C2811 C 0.32521 0.19489 0.72668 0.0
C2812 C 0.3106 0.14161 0.56511 0.0
C2813 C 0.31557 0.14875 0.58712 0.0
C2814 C 0.30598 0.19204 0.62971 0.0
C2815 C 0.30609 0.18156 0.69256 0.0
C2816 C 0.30582 0.17796 0.66799 0.0
C2817 C 0.30307 0.16561 0.59688 0.0
C2818 C 0.30537 0.17013 0.62129 0.0
H2819 H 0.28224 0.16045 0.73874 0.0
H2820 H 0.278 0.16 0.69777 0.0
H2821 H 0.30682 0.21291 0.6592 0.0
H2822 H 0.26753 0.17646 0.55281 0.0
H2823 H 0.27643 0.18907 0.59105 0.0
C2824 C 0.40449 0.46089 0.49953 0.0
C2825 C 0.40904 0.4389 0.49302 0.0
C2826 C 0.4013 0.46619 0.52214 0.0
C2827 C 0.40733 0.44406 0.58099 0.0
H2828 H 0.36022 0.48576 0.59158 0.0
C2829 C 0.3456 0.4722 0.65595 0.0
C2830 C 0.36046 0.47297 0.67476 0.0
C2831 C 0.35313 0.46877 0.63427 0.0
C2832 C 0.37331 0.47393 0.58899 0.0
H2833 H 0.41447 0.40537 0.50545 0.0
H2834 H 0.40834 0.41444 0.54467 0.0
H2835 H 0.37073 0.4783 0.5533 0.0
H2836 H 0.39502 0.47006 0.68534 0.0
H2837 H 0.40824 0.46481 0.64742 0.0
H2838 H 0.40911 0.43894 0.61672 0.0
C2839 C 0.40765 0.42776 0.53242 0.0
C2840 C 0.37963 0.46991 0.56695 0.0
C2841 C 0.41108 0.42251 0.50983 0.0
C2842 C 0.3831 0.46994 0.67128 0.0
C2843 C 0.39067 0.46666 0.6495 0.0
C2844 C 0.40088 0.44797 0.60307 0.0
C2845 C 0.40231 0.4496 0.53885 0.0
C2846 C 0.3966 0.45478 0.56258 0.0
C2847 C 0.37577 0.46614 0.63067 0.0
C2848 C 0.38359 0.46277 0.60735 0.0
H2849 H 0.40303 0.47401 0.48709 0.0
H2850 H 0.39776 0.48329 0.52646 0.0
H2851 H 0.42067 0.43253 0.57838 0.0
H2852 H 0.32803 0.47426 0.65788 0.0
H2853 H 0.34106 0.46795 0.62033 0.0
C2854 C 0.59157 0.04299 0.50319 0.0
C2855 C 0.58998 0.06565 0.49767 0.0
C2856 C 0.59801 0.03651 0.52505 0.0
C2857 C 0.60722 0.05806 0.58373 0.0
H2858 H 0.64445 0.00587 0.58978 0.0
C2859 C 0.64385 0.03249 0.66966 0.0
C2860 C 0.63466 0.01202 0.67572 0.0
C2861 C 0.64358 0.03877 0.64698 0.0
C2862 C 0.63426 0.0206 0.58822 0.0
H2863 H 0.5932 0.09929 0.51089 0.0
H2864 H 0.60502 0.08811 0.54862 0.0
H2865 H 0.63106 0.01767 0.55235 0.0
H2866 H 0.62017 0.9811 0.66333 0.0
H2867 H 0.62048 0.99169 0.62364 0.0
H2868 H 0.61072 0.06104 0.61962 0.0
C2869 C 0.6008 0.07522 0.53638 0.0
C2870 C 0.62629 0.0272 0.56688 0.0
C2871 C 0.59397 0.08167 0.51467 0.0
C2872 C 0.62742 0.99694 0.65888 0.0
C2873 C 0.62761 0.00299 0.63624 0.0
C2874 C 0.61554 0.0517 0.60497 0.0
C2875 C 0.6034 0.05257 0.54174 0.0
C2876 C 0.61235 0.04582 0.56439 0.0
C2877 C 0.63458 0.0244 0.63024 0.0
C2878 C 0.62886 0.03276 0.60742 0.0
H2879 H 0.58852 0.03027 0.49044 0.0
H2880 H 0.59918 0.0189 0.5287 0.0
H2881 H 0.59626 0.07223 0.58261 0.0
H2882 H 0.6493 0.04441 0.68249 0.0
H2883 H 0.64909 0.05535 0.64265 0.0
C2884 C 0.74436 0.70862 0.34878 0.0
C2885 C 0.75011 0.69096 0.33451 0.0
C2886 C 0.72227 0.71241 0.35364 0.0
C2887 C 0.66894 0.68321 0.35598 0.0
H2888 H 0.64349 0.7423 0.35503 0.0
C2889 C 0.57539 0.69811 0.35134 0.0
C2890 C 0.56665 0.71751 0.36077 0.0
C2891 C 0.5981 0.69431 0.35223 0.0
C2892 C 0.65042 0.72573 0.35587 0.0
H2893 H 0.73689 0.66386 0.31368 0.0
H2894 H 0.69843 0.67054 0.32216 0.0
H2895 H 0.68239 0.73754 0.34704 0.0
H2896 H 0.57487 0.74737 0.38003 0.0
H2897 H 0.61467 0.74047 0.38205 0.0
H2898 H 0.63708 0.67132 0.36474 0.0
C2899 C 0.71108 0.6813 0.32975 0.0
C2900 C 0.6727 0.723 0.35113 0.0
C2901 C 0.73313 0.67762 0.32471 0.0
C2902 C 0.58106 0.73226 0.37258 0.0
C2903 C 0.60389 0.72844 0.37349 0.0
C2904 C 0.64673 0.68594 0.36088 0.0
C2905 C 0.70543 0.69853 0.34453 0.0
C2906 C 0.68209 0.70166 0.35071 0.0
C2907 C 0.61274 0.70977 0.36267 0.0
C2908 C 0.63704 0.70718 0.36044 0.0
H2909 H 0.75697 0.71926 0.35662 0.0
H2910 H 0.71846 0.72579 0.36512 0.0
H2911 H 0.67582 0.6666 0.35628 0.0
H2912 H 0.56476 0.68632 0.34221 0.0
H2913 H 0.60421 0.67984 0.34356 0.0
C2914 C 0.95745 0.00338 0.89389 0.0
C2915 C 0.93566 0.99749 0.8988 0.0
C2916 C 0.96293 0.02543 0.88899 0.0
C2917 C 0.93897 0.07726 0.86692 0.0
H2918 H 0.99145 0.10491 0.89425 0.0
C2919 C 0.95717 0.17194 0.8624 0.0
C2920 C 0.97923 0.17908 0.86416 0.0
C2921 C 0.95203 0.1492 0.86314 0.0
C2922 C 0.97699 0.09736 0.88602 0.0
H2923 H 0.90262 0.01032 0.90274 0.0
H2924 H 0.91224 0.04886 0.89407 0.0
H2925 H 0.98211 0.06681 0.90392 0.0
H2926 H 0.01327 0.16847 0.8666 0.0
H2927 H 0.00451 0.12874 0.86654 0.0
H2928 H 0.93393 0.10772 0.84882 0.0
C2929 C 0.92502 0.03632 0.89397 0.0
C2930 C 0.97156 0.07553 0.89175 0.0
C2931 C 0.91959 0.01429 0.89917 0.0
C2932 C 0.99613 0.16323 0.86495 0.0
C2933 C 0.99105 0.14052 0.86533 0.0
C2934 C 0.94454 0.09907 0.86097 0.0
C2935 C 0.94671 0.04207 0.88862 0.0
C2936 C 0.95243 0.06528 0.8824 0.0
C2937 C 0.96892 0.13323 0.86556 0.0
C2938 C 0.96358 0.10948 0.87054 0.0
H2939 H 0.97025 0.99088 0.89345 0.0
H2940 H 0.97976 0.02934 0.88485 0.0
H2941 H 0.92427 0.06967 0.8592 0.0
H2942 H 0.9439 0.18397 0.86231 0.0
H2943 H 0.93482 0.14434 0.86344 0.0
C2944 C 0.26661 0.84873 0.31738 0.0
C2945 C 0.25412 0.82908 0.31467 0.0
C2946 C 0.28971 0.84804 0.31686 0.0
C2947 C 0.33739 0.81388 0.3011 0.0
H2948 H 0.36497 0.83567 0.357 0.0
C2949 C 0.42274 0.78293 0.33397 0.0
C2950 C 0.43613 0.79694 0.34779 0.0
C2951 C 0.40161 0.78966 0.32653 0.0
C2952 C 0.35781 0.82992 0.34101 0.0
H2953 H 0.25566 0.79371 0.30767 0.0
H2954 H 0.29581 0.79263 0.30609 0.0
H2955 H 0.32625 0.84345 0.34838 0.0
H2956 H 0.43831 0.82948 0.36365 0.0
H2957 H 0.40191 0.84157 0.35006 0.0
H2958 H 0.36886 0.80027 0.29367 0.0
C2959 C 0.28791 0.8085 0.30881 0.0
C2960 C 0.33552 0.83439 0.33611 0.0
C2961 C 0.26493 0.8091 0.30979 0.0
C2962 C 0.42827 0.81816 0.35329 0.0
C2963 C 0.40729 0.82504 0.34557 0.0
C2964 C 0.35981 0.80969 0.30582 0.0
C2965 C 0.30059 0.82778 0.31315 0.0
C2966 C 0.32494 0.82599 0.31636 0.0
C2967 C 0.39345 0.81073 0.33246 0.0
C2968 C 0.37022 0.81718 0.32613 0.0
H2969 H 0.25867 0.8643 0.3214 0.0
H2970 H 0.29913 0.86316 0.32019 0.0
H2971 H 0.32966 0.8073 0.28568 0.0
H2972 H 0.42825 0.76642 0.32953 0.0
H2973 H 0.39145 0.77796 0.31678 0.0
C2974 C 0.0798 0.49168 0.9011 0.0
C2975 C 0.06375 0.50845 0.89886 0.0
C2976 C 0.07413 0.46937 0.89739 0.0
C2977 C 0.02836 0.42938 0.8965 0.0
H2978 H 0.06352 0.39631 0.85473 0.0
C2979 C 0.01976 0.33379 0.87838 0.0
C2980 C 0.01715 0.32846 0.85531 0.0
C2981 C 0.02531 0.35554 0.88527 0.0
C2982 C 0.05363 0.40533 0.8665 0.0
H2983 H 0.02898 0.51479 0.89152 0.0
H2984 H 0.01904 0.47561 0.88533 0.0
H2985 H 0.07326 0.43488 0.86403 0.0
H2986 H 0.01873 0.34196 0.82145 0.0
H2987 H 0.02883 0.37942 0.83352 0.0
H2988 H 0.00872 0.39965 0.89889 0.0
C2989 C 0.03603 0.47989 0.88988 0.0
C2990 C 0.05924 0.42733 0.87189 0.0
C2991 C 0.04176 0.5023 0.89326 0.0
C2992 C 0.02047 0.34534 0.83937 0.0
C2993 C 0.02636 0.36685 0.84624 0.0
C2994 C 0.02294 0.40718 0.89139 0.0
C2995 C 0.05222 0.46325 0.89168 0.0
C2996 C 0.04654 0.43965 0.88675 0.0
C2997 C 0.02884 0.37218 0.86921 0.0
C2998 C 0.03538 0.39508 0.8761 0.0
H2999 H 0.09689 0.49579 0.90537 0.0
H3000 H 0.08691 0.45685 0.89902 0.0
H3001 H 0.01839 0.43849 0.90811 0.0
H3002 H 0.01764 0.32128 0.89113 0.0
H3003 H 0.02729 0.35925 0.90312 0.0
C3004 C 0.74497 0.29978 0.16913 0.0
C3005 C 0.75555 0.31885 0.17827 0.0
C3006 C 0.72259 0.30013 0.16293 0.0
C3007 C 0.67053 0.32838 0.17168 0.0
H3008 H 0.6536 0.30184 0.11374 0.0
C3009 C 0.57971 0.3215 0.14472 0.0
C3010 C 0.57312 0.29993 0.13804 0.0
C3011 C 0.60192 0.32764 0.14501 0.0
C3012 C 0.65806 0.30929 0.12994 0.0
H3013 H 0.75059 0.35291 0.1892 0.0
H3014 H 0.71112 0.35338 0.17856 0.0
H3015 H 0.6926 0.30464 0.12545 0.0
H3016 H 0.58417 0.26862 0.12427 0.0
H3017 H 0.62308 0.27915 0.12516 0.0
H3018 H 0.63608 0.33226 0.17666 0.0
C3019 C 0.72037 0.33825 0.17608 0.0
C3020 C 0.68035 0.31087 0.13666 0.0
C3021 C 0.74291 0.33793 0.18226 0.0
C3022 C 0.58882 0.28534 0.12956 0.0
C3023 C 0.61112 0.29142 0.13006 0.0
C3024 C 0.64824 0.3267 0.16502 0.0
C3025 C 0.71019 0.31952 0.16579 0.0
C3026 C 0.68675 0.31997 0.15781 0.0
C3027 C 0.618 0.31225 0.13884 0.0
C3028 C 0.64172 0.31674 0.14427 0.0
H3029 H 0.75413 0.28469 0.16609 0.0
H3030 H 0.71502 0.28526 0.15561 0.0
H3031 H 0.675 0.33532 0.18811 0.0
H3032 H 0.56784 0.33323 0.15094 0.0
H3033 H 0.60663 0.34403 0.15122 0.0
C3034 C 0.54577 0.00825 0.10395 0.0
C3035 C 0.56723 0.00054 0.10022 0.0
C3036 C 0.54184 0.03097 0.10735 0.0
C3037 C 0.56905 0.08136 0.1291 0.0
H3038 H 0.52034 0.11296 0.09956 0.0
C3039 C 0.5361 0.1652 0.16147 0.0
C3040 C 0.53284 0.18239 0.14561 0.0
C3041 C 0.54098 0.14356 0.15456 0.0
C3042 C 0.53407 0.10436 0.10783 0.0
H3043 H 0.60132 0.01088 0.09689 0.0
H3044 H 0.59446 0.05039 0.10326 0.0
H3045 H 0.52728 0.074 0.08953 0.0
H3046 H 0.53282 0.18997 0.10989 0.0
H3047 H 0.54052 0.15195 0.09783 0.0
H3048 H 0.5755 0.11145 0.14781 0.0
C3049 C 0.58069 0.03882 0.10342 0.0
C3050 C 0.53795 0.08206 0.10221 0.0
C3051 C 0.58457 0.01618 0.09964 0.0
C3052 C 0.53475 0.17725 0.1226 0.0
C3053 C 0.53924 0.15543 0.11565 0.0
C3054 C 0.56493 0.10348 0.13499 0.0
C3055 C 0.55932 0.04645 0.10748 0.0
C3056 C 0.55547 0.07031 0.11282 0.0
C3057 C 0.54247 0.13839 0.13159 0.0
C3058 C 0.54736 0.11521 0.12449 0.0
H3059 H 0.53201 0.9967 0.10444 0.0
H3060 H 0.52521 0.03634 0.11057 0.0
H3061 H 0.58256 0.0727 0.13768 0.0
H3062 H 0.53491 0.16839 0.17935 0.0
H3063 H 0.54326 0.13074 0.16723 0.0
C3064 C 0.2721 0.20105 0.15326 0.0
C3065 C 0.26271 0.18205 0.16291 0.0
C3066 C 0.29492 0.20428 0.15409 0.0
C3067 C 0.34726 0.17379 0.15943 0.0
H3068 H 0.37169 0.23334 0.16613 0.0
C3069 C 0.43466 0.19786 0.13147 0.0
C3070 C 0.44646 0.21439 0.1438 0.0
C3071 C 0.41306 0.19223 0.13687 0.0
C3072 C 0.36528 0.21652 0.16456 0.0
H3073 H 0.27011 0.1518 0.18156 0.0
H3074 H 0.31013 0.15761 0.18316 0.0
H3075 H 0.33255 0.22721 0.17109 0.0
H3076 H 0.44486 0.23737 0.17191 0.0
H3077 H 0.40777 0.22709 0.18181 0.0
H3078 H 0.38012 0.16312 0.15299 0.0
C3079 C 0.2997 0.16985 0.17473 0.0
C3080 C 0.34273 0.21307 0.16713 0.0
C3081 C 0.27676 0.16662 0.17395 0.0
C3082 C 0.43641 0.22453 0.16212 0.0
C3083 C 0.41496 0.21879 0.16765 0.0
C3084 C 0.3699 0.17724 0.15691 0.0
C3085 C 0.30903 0.18864 0.16462 0.0
C3086 C 0.33337 0.19175 0.16419 0.0
C3087 C 0.40281 0.20293 0.15479 0.0
C3088 C 0.37912 0.19872 0.15911 0.0
H3089 H 0.26186 0.21333 0.14463 0.0
H3090 H 0.30153 0.21878 0.14584 0.0
H3091 H 0.34055 0.15719 0.1569 0.0
H3092 H 0.44184 0.1897 0.11722 0.0
H3093 H 0.40412 0.18011 0.12643 0.0
C3094 C 0.42403 0.4934 0.10072 0.0
C3095 C 0.44053 0.5098 0.09919 0.0
C3096 C 0.42946 0.47166 0.10715 0.0
C3097 C 0.47542 0.43819 0.13394 0.0
H3098 H 0.44158 0.38854 0.10852 0.0
C3099 C 0.50522 0.347 0.12969 0.0
C3100 C 0.48995 0.33002 0.13393 0.0
C3101 C 0.49887 0.36931 0.13022 0.0
C3102 C 0.45096 0.40226 0.11605 0.0
H3103 H 0.47577 0.51602 0.10259 0.0
H3104 H 0.4854 0.47793 0.11267 0.0
H3105 H 0.43144 0.42637 0.0981 0.0
H3106 H 0.45643 0.32283 0.14291 0.0
H3107 H 0.44506 0.36205 0.14343 0.0
H3108 H 0.49566 0.41369 0.15087 0.0
C3109 C 0.46813 0.48196 0.10976 0.0
C3110 C 0.44515 0.42403 0.1101 0.0
C3111 C 0.46265 0.50381 0.10372 0.0
C3112 C 0.46854 0.3357 0.13994 0.0
C3113 C 0.46202 0.35807 0.14 0.0
C3114 C 0.48144 0.41637 0.13957 0.0
C3115 C 0.45159 0.46559 0.11185 0.0
C3116 C 0.4574 0.44235 0.1188 0.0
C3117 C 0.47697 0.37502 0.13448 0.0
C3118 C 0.46935 0.39819 0.13058 0.0
H3119 H 0.40679 0.49752 0.09766 0.0
H3120 H 0.41617 0.45976 0.10891 0.0
H3121 H 0.48497 0.45177 0.14146 0.0
H3122 H 0.52176 0.34291 0.12476 0.0
H3123 H 0.51069 0.38199 0.12576 0.0
C3124 C 0.32845 0.72586 0.6991 0.0
C3125 C 0.32404 0.73853 0.67959 0.0
C3126 C 0.32531 0.70288 0.69883 0.0
C3127 C 0.32514 0.65529 0.66043 0.0
H3128 H 0.30868 0.62427 0.71446 0.0
C3129 C 0.35945 0.56984 0.68509 0.0
C3130 C 0.3475 0.55586 0.69916 0.0
C3131 C 0.35088 0.5904 0.67833 0.0
C3132 C 0.31286 0.63248 0.69897 0.0
H3133 H 0.31205 0.73698 0.64466 0.0
H3134 H 0.30651 0.6966 0.64425 0.0
H3135 H 0.30274 0.66406 0.7115 0.0
H3136 H 0.31639 0.55167 0.71552 0.0
H3137 H 0.30118 0.58721 0.70321 0.0
H3138 H 0.33546 0.62367 0.648 0.0
C3139 C 0.31259 0.70458 0.65969 0.0
C3140 C 0.30971 0.65541 0.69743 0.0
C3141 C 0.31568 0.7277 0.65996 0.0
C3142 C 0.32615 0.56218 0.70497 0.0
C3143 C 0.31747 0.58262 0.69798 0.0
C3144 C 0.32814 0.63227 0.6619 0.0
C3145 C 0.31764 0.6919 0.67907 0.0
C3146 C 0.31668 0.66721 0.67857 0.0
C3147 C 0.33006 0.59735 0.68526 0.0
C3148 C 0.32286 0.62074 0.68158 0.0
H3149 H 0.33481 0.7336 0.71456 0.0
H3150 H 0.32974 0.69362 0.71396 0.0
H3151 H 0.33068 0.66389 0.64566 0.0
H3152 H 0.37594 0.56547 0.68028 0.0
H3153 H 0.3612 0.60135 0.66877 0.0
C3154 C 0.98385 0.41827 0.57965 0.0
C3155 C 0.99981 0.41032 0.56507 0.0
C3156 C 0.96177 0.41153 0.57693 0.0
C3157 C 0.92063 0.38519 0.53717 0.0
H3158 H 0.89172 0.36971 0.59217 0.0
C3159 C 0.83104 0.3533 0.53362 0.0
C3160 C 0.81743 0.3658 0.54744 0.0
C3161 C 0.85406 0.35404 0.53716 0.0
C3162 C 0.89955 0.37394 0.57666 0.0
H3163 H 0.00456 0.39015 0.53522 0.0
H3164 H 0.96612 0.37851 0.53049 0.0
H3165 H 0.92987 0.3829 0.59416 0.0
H3166 H 0.81685 0.38679 0.57715 0.0
H3167 H 0.85669 0.38777 0.58359 0.0
H3168 H 0.89016 0.37663 0.51971 0.0
C3169 C 0.9707 0.38992 0.54408 0.0
C3170 C 0.92138 0.38167 0.5778 0.0
C3171 C 0.9928 0.39664 0.5468 0.0
C3172 C 0.82699 0.37699 0.56625 0.0
C3173 C 0.84987 0.37756 0.56992 0.0
C3174 C 0.89878 0.37746 0.53603 0.0
C3175 C 0.95506 0.39672 0.55953 0.0
C3176 C 0.93207 0.38777 0.55811 0.0
C3177 C 0.86374 0.36705 0.55475 0.0
C3178 C 0.88785 0.37209 0.5558 0.0
H3179 H 0.98853 0.42891 0.59384 0.0
H3180 H 0.95003 0.41756 0.58878 0.0
H3181 H 0.9283 0.38984 0.52169 0.0
H3182 H 0.82412 0.34466 0.5189 0.0
H3183 H 0.8643 0.34544 0.52542 0.0
C3184 C 0.68702 0.77161 0.65169 0.0
C3185 C 0.69116 0.75656 0.66939 0.0
C3186 C 0.68084 0.79357 0.65635 0.0
C3187 C 0.67636 0.83508 0.70308 0.0
H3188 H 0.62676 0.85689 0.66628 0.0
C3189 C 0.63119 0.91337 0.7295 0.0
C3190 C 0.6319 0.92989 0.7129 0.0
C3191 C 0.63468 0.89107 0.72376 0.0
C3192 C 0.64056 0.85094 0.67672 0.0
H3193 H 0.69407 0.75315 0.70574 0.0
H3194 H 0.68336 0.79104 0.71384 0.0
H3195 H 0.64427 0.8218 0.65638 0.0
H3196 H 0.63396 0.93605 0.67713 0.0
H3197 H 0.63928 0.89714 0.667 0.0
H3198 H 0.67247 0.86407 0.72354 0.0
C3199 C 0.6848 0.78619 0.69637 0.0
C3200 C 0.6508 0.831 0.67091 0.0
C3201 C 0.69095 0.76438 0.69173 0.0
C3202 C 0.63326 0.92354 0.6902 0.0
C3203 C 0.63641 0.90127 0.68442 0.0
C3204 C 0.66598 0.85483 0.70901 0.0
C3205 C 0.6788 0.80084 0.67878 0.0
C3206 C 0.66885 0.8228 0.68402 0.0
C3207 C 0.63853 0.88503 0.70131 0.0
C3208 C 0.64796 0.86298 0.69593 0.0
H3209 H 0.68688 0.76602 0.63431 0.0
H3210 H 0.67681 0.80457 0.64238 0.0
H3211 H 0.69041 0.82953 0.71337 0.0
H3212 H 0.63038 0.9179 0.74714 0.0
H3213 H 0.63589 0.87878 0.73706 0.0
C3214 C 0.00848 0.10428 0.54549 0.0
C3215 C 0.0031 0.1025 0.56824 0.0
C3216 C 0.03001 0.10936 0.53953 0.0
C3217 C 0.08858 0.11308 0.56165 0.0
H3218 H 0.09476 0.14912 0.50812 0.0
C3219 C 0.17422 0.14217 0.53263 0.0
C3220 C 0.17816 0.13607 0.5103 0.0
C3221 C 0.15268 0.1417 0.54052 0.0
C3222 C 0.09332 0.13908 0.52312 0.0
H3223 H 0.01638 0.10418 0.60262 0.0
H3224 H 0.05402 0.11362 0.5923 0.0
H3225 H 0.05806 0.14006 0.5208 0.0
H3226 H 0.16283 0.12563 0.47845 0.0
H3227 H 0.12516 0.12578 0.49182 0.0
H3228 H 0.12402 0.11242 0.56395 0.0
C3229 C 0.04162 0.11068 0.57896 0.0
C3230 C 0.07224 0.13366 0.53034 0.0
C3231 C 0.02002 0.10524 0.58493 0.0
C3232 C 0.16012 0.13095 0.49559 0.0
C3233 C 0.13859 0.13088 0.50332 0.0
C3234 C 0.1097 0.11877 0.55458 0.0
C3235 C 0.04684 0.11323 0.55614 0.0
C3236 C 0.06949 0.12017 0.54945 0.0
C3237 C 0.1347 0.13539 0.5261 0.0
C3238 C 0.11232 0.13151 0.535 0.0
H3239 H 0.99591 0.10201 0.53216 0.0
H3240 H 0.03336 0.11038 0.52178 0.0
H3241 H 0.0873 0.10252 0.57628 0.0
H3242 H 0.18793 0.14561 0.54444 0.0
H3243 H 0.15019 0.14541 0.55811 0.0
C3244 C 0.33407 0.27161 0.83948 0.0
C3245 C 0.33426 0.25758 0.82047 0.0
C3246 C 0.33987 0.29413 0.83766 0.0
C3247 C 0.34839 0.33845 0.79513 0.0
H3248 H 0.38609 0.36531 0.84223 0.0
C3249 C 0.38494 0.42298 0.78027 0.0
C3250 C 0.37587 0.43838 0.7951 0.0
C3251 C 0.38553 0.40043 0.78584 0.0
C3252 C 0.37574 0.35785 0.82892 0.0
H3253 H 0.33943 0.2565 0.78446 0.0
H3254 H 0.34993 0.29507 0.78147 0.0
H3255 H 0.37223 0.32724 0.84689 0.0
H3256 H 0.36364 0.44304 0.82863 0.0
H3257 H 0.36489 0.40366 0.8384 0.0
H3258 H 0.35209 0.36881 0.77706 0.0
C3259 C 0.34512 0.28904 0.79774 0.0
C3260 C 0.36753 0.33624 0.83169 0.0
C3261 C 0.33921 0.26676 0.7995 0.0
C3262 C 0.37043 0.4314 0.81679 0.0
C3263 C 0.37123 0.40889 0.82243 0.0
C3264 C 0.35688 0.35976 0.79223 0.0
C3265 C 0.34592 0.30295 0.81683 0.0
C3266 C 0.35378 0.32629 0.81476 0.0
C3267 C 0.37732 0.39312 0.80638 0.0
C3268 C 0.37064 0.36965 0.80904 0.0
H3269 H 0.33038 0.26503 0.85588 0.0
H3270 H 0.33996 0.30451 0.85262 0.0
H3271 H 0.33742 0.3316 0.782 0.0
H3272 H 0.38938 0.42793 0.7635 0.0
H3273 H 0.39058 0.3885 0.77333 0.0
C3274 C 0.51416 0.41835 0.42347 0.0
C3275 C 0.49711 0.40896 0.43584 0.0
C3276 C 0.53631 0.41462 0.42976 0.0
C3277 C 0.58244 0.41161 0.4521 0.0
H3278 H 0.59692 0.35121 0.46984 0.0
C3279 C 0.66967 0.38411 0.48572 0.0
C3280 C 0.6767 0.36272 0.47961 0.0
C3281 C 0.64835 0.39137 0.47955 0.0
C3282 C 0.59322 0.36811 0.46472 0.0
H3283 H 0.49017 0.38911 0.46523 0.0
H3284 H 0.52877 0.38285 0.47633 0.0
H3285 H 0.5586 0.36117 0.46183 0.0
H3286 H 0.6673 0.33277 0.46095 0.0
H3287 H 0.63044 0.34556 0.4499 0.0
H3288 H 0.61726 0.41833 0.45455 0.0
C3289 C 0.52497 0.39276 0.46148 0.0
C3290 C 0.57117 0.37392 0.46047 0.0
C3291 C 0.5028 0.39647 0.45519 0.0
C3292 C 0.66237 0.34925 0.46618 0.0
C3293 C 0.64115 0.35652 0.45997 0.0
C3294 C 0.60456 0.40579 0.4564 0.0
C3295 C 0.54199 0.40142 0.4486 0.0
C3296 C 0.56548 0.3957 0.45402 0.0
C3297 C 0.63365 0.3774 0.46711 0.0
C3298 C 0.61022 0.38391 0.4626 0.0
H3299 H 0.51045 0.42811 0.40848 0.0
H3300 H 0.54897 0.42139 0.41934 0.0
H3301 H 0.57861 0.42858 0.44734 0.0
H3302 H 0.68022 0.39485 0.49616 0.0
H3303 H 0.64308 0.40752 0.48541 0.0
C3304 C 0.69173 0.23083 0.84514 0.0
C3305 C 0.68197 0.2443 0.82821 0.0
C3306 C 0.69343 0.20777 0.84184 0.0
C3307 C 0.68905 0.16371 0.79743 0.0
H3308 H 0.6668 0.12695 0.84512 0.0
C3309 C 0.67027 0.07053 0.78278 0.0
C3310 C 0.65006 0.06298 0.79087 0.0
C3311 C 0.67903 0.09117 0.78959 0.0
C3312 C 0.67306 0.13698 0.83163 0.0
H3313 H 0.66751 0.24431 0.79414 0.0
H3314 H 0.67027 0.20453 0.78856 0.0
H3315 H 0.67412 0.16636 0.85217 0.0
H3316 H 0.62347 0.07112 0.81289 0.0
H3317 H 0.63837 0.10724 0.82421 0.0
H3318 H 0.68665 0.13479 0.77643 0.0
C3319 C 0.67676 0.21157 0.80431 0.0
C3320 C 0.67756 0.15951 0.83578 0.0
C3321 C 0.67495 0.23443 0.80763 0.0
C3322 C 0.63907 0.07636 0.8063 0.0
C3323 C 0.64775 0.09704 0.81299 0.0
C3324 C 0.68445 0.14124 0.79325 0.0
C3325 C 0.68564 0.19787 0.82149 0.0
C3326 C 0.6849 0.1733 0.81849 0.0
C3327 C 0.66773 0.10483 0.80455 0.0
C3328 C 0.67574 0.12775 0.81008 0.0
H3329 H 0.69733 0.23794 0.86117 0.0
H3330 H 0.70051 0.19766 0.85534 0.0
H3331 H 0.69505 0.1738 0.78386 0.0
H3332 H 0.67925 0.06062 0.77099 0.0
H3333 H 0.69459 0.09649 0.78297 0.0
C3334 C 0.49832 0.11457 0.44726 0.0
C3335 C 0.50489 0.10079 0.4295 0.0
C3336 C 0.47598 0.11759 0.45139 0.0
C3337 C 0.42038 0.09389 0.44452 0.0
H3338 H 0.40191 0.15522 0.45067 0.0
C3339 C 0.32838 0.11968 0.45703 0.0
C3340 C 0.32484 0.13893 0.46993 0.0
C3341 C 0.34992 0.11337 0.45176 0.0
C3342 C 0.40673 0.13794 0.44942 0.0
H3343 H 0.49279 0.07881 0.40263 0.0
H3344 H 0.45354 0.08384 0.41024 0.0
H3345 H 0.43989 0.14707 0.44218 0.0
H3346 H 0.34121 0.1657 0.48873 0.0
H3347 H 0.37837 0.15433 0.48053 0.0
H3348 H 0.38728 0.08473 0.45245 0.0
C3349 C 0.46591 0.09239 0.42079 0.0
C3350 C 0.42856 0.1333 0.44436 0.0
C3351 C 0.48838 0.08959 0.41638 0.0
C3352 C 0.34329 0.15101 0.4784 0.0
C3353 C 0.3647 0.14456 0.47348 0.0
C3354 C 0.39847 0.09853 0.44993 0.0
C3355 C 0.45948 0.10674 0.43812 0.0
C3356 C 0.43576 0.11125 0.4421 0.0
C3357 C 0.3684 0.12604 0.45953 0.0
C3358 C 0.3914 0.12066 0.45279 0.0
H3359 H 0.51043 0.12351 0.45776 0.0
H3360 H 0.47159 0.12857 0.46501 0.0
H3361 H 0.42547 0.07671 0.44294 0.0
H3362 H 0.3145 0.11002 0.45023 0.0
H3363 H 0.35199 0.09904 0.44095 0.0
C3364 C 0.64458 0.33075 0.73858 0.0
C3365 C 0.66095 0.31891 0.75087 0.0
C3366 C 0.64825 0.33742 0.71642 0.0
C3367 C 0.69398 0.35824 0.68868 0.0
H3368 H 0.66833 0.34437 0.62941 0.0
C3369 C 0.74244 0.3609 0.60917 0.0
C3370 C 0.73208 0.36656 0.58846 0.0
C3371 C 0.73058 0.36087 0.62879 0.0
C3372 C 0.67528 0.34889 0.6459 0.0
H3373 H 0.6927 0.30278 0.74933 0.0
H3374 H 0.69888 0.31397 0.7106 0.0
H3375 H 0.65132 0.32936 0.66309 0.0
H3376 H 0.70166 0.37823 0.57213 0.0
H3377 H 0.68069 0.37792 0.60665 0.0
H3378 H 0.71836 0.37703 0.67182 0.0
C3379 C 0.68338 0.31824 0.71802 0.0
C3380 C 0.66562 0.34018 0.66507 0.0
C3381 C 0.67977 0.31167 0.74003 0.0
C3382 C 0.71006 0.37389 0.58796 0.0
C3383 C 0.69802 0.37351 0.60761 0.0
C3384 C 0.70351 0.367 0.66966 0.0
C3385 C 0.66827 0.3322 0.70656 0.0
C3386 C 0.67549 0.34412 0.68647 0.0
C3387 C 0.70801 0.36627 0.62805 0.0
C3388 C 0.69483 0.36167 0.64803 0.0
H3389 H 0.63018 0.3369 0.74684 0.0
H3390 H 0.63645 0.34826 0.70781 0.0
H3391 H 0.70164 0.3617 0.70515 0.0
H3392 H 0.7594 0.35521 0.61 0.0
H3393 H 0.73873 0.35506 0.64423 0.0
C3394 C 0.66926 0.66889 0.7539 0.0
C3395 C 0.68789 0.66683 0.74069 0.0
C3396 C 0.67002 0.66163 0.77627 0.0
C3397 C 0.70108 0.6234 0.81438 0.0
H3398 H 0.67512 0.65791 0.86169 0.0
C3399 C 0.72474 0.61673 0.90908 0.0
C3400 C 0.70901 0.62351 0.92437 0.0
C3401 C 0.7192 0.61614 0.88597 0.0
C3402 C 0.68201 0.64774 0.84863 0.0
H3403 H 0.72231 0.65683 0.74103 0.0
H3404 H 0.7237 0.64468 0.78007 0.0
H3405 H 0.67185 0.67087 0.82303 0.0
H3406 H 0.67458 0.63158 0.92829 0.0
H3407 H 0.66468 0.62966 0.88814 0.0
H3408 H 0.71178 0.60058 0.84022 0.0
C3409 C 0.70833 0.65126 0.77297 0.0
C3410 C 0.68022 0.65528 0.82646 0.0
C3411 C 0.70758 0.65846 0.75067 0.0
C3412 C 0.68705 0.62664 0.91669 0.0
C3413 C 0.68146 0.62574 0.89371 0.0
C3414 C 0.70288 0.61583 0.83661 0.0
C3415 C 0.68943 0.65225 0.78585 0.0
C3416 C 0.69006 0.64342 0.80915 0.0
C3417 C 0.69782 0.62207 0.87803 0.0
C3418 C 0.69362 0.6281 0.85403 0.0
H3419 H 0.65381 0.67512 0.74668 0.0
H3420 H 0.65517 0.66261 0.7858 0.0
H3421 H 0.70848 0.61367 0.80129 0.0
H3422 H 0.74179 0.61422 0.91466 0.0
H3423 H 0.73219 0.61313 0.87432 0.0
C3424 C 0.91694 0.0872 0.48284 0.0
C3425 C 0.91933 0.0701 0.49887 0.0
C3426 C 0.90979 0.08239 0.46067 0.0
C3427 C 0.87853 0.0394 0.42782 0.0
H3428 H 0.90119 0.0702 0.37629 0.0
C3429 C 0.86751 0.0093 0.33565 0.0
C3430 C 0.86696 0.02532 0.31854 0.0
C3431 C 0.86916 0.01587 0.35827 0.0
C3432 C 0.89434 0.06176 0.39053 0.0
H3433 H 0.91754 0.03433 0.50367 0.0
H3434 H 0.90566 0.02593 0.46488 0.0
H3435 H 0.91621 0.07892 0.41393 0.0
H3436 H 0.86622 0.06054 0.31124 0.0
H3437 H 0.86845 0.07216 0.35083 0.0
H3438 H 0.85701 0.02187 0.40426 0.0
C3439 C 0.90867 0.04314 0.46964 0.0
C3440 C 0.90306 0.06669 0.41212 0.0
C3441 C 0.91574 0.04795 0.49182 0.0
C3442 C 0.86617 0.04794 0.32427 0.0
C3443 C 0.86782 0.05455 0.34688 0.0
C3444 C 0.86984 0.03443 0.4062 0.0
C3445 C 0.90497 0.06035 0.45398 0.0
C3446 C 0.89544 0.0554 0.43101 0.0
C3447 C 0.8705 0.03859 0.36405 0.0
C3448 C 0.87778 0.04542 0.38728 0.0
H3449 H 0.91939 0.10447 0.48767 0.0
H3450 H 0.90704 0.09606 0.44907 0.0
H3451 H 0.87194 0.03073 0.44207 0.0
H3452 H 0.86873 0.99177 0.33151 0.0
H3453 H 0.87134 0.00315 0.37105 0.0
C3454 C 0.3037 0.80681 0.77299 0.0
C3455 C 0.32572 0.80846 0.76668 0.0
C3456 C 0.29858 0.8075 0.79568 0.0
C3457 C 0.29351 0.80291 0.8466 0.0
H3458 H 0.31541 0.85793 0.87394 0.0
C3459 C 0.2713 0.83291 0.9359 0.0
C3460 C 0.26327 0.8548 0.93681 0.0
C3461 C 0.28084 0.82482 0.91649 0.0
C3462 C 0.30929 0.84246 0.86655 0.0
H3463 H 0.35978 0.81101 0.77894 0.0
H3464 H 0.35075 0.81283 0.81889 0.0
H3465 H 0.32962 0.84552 0.83801 0.0
H3466 H 0.25924 0.88551 0.91797 0.0
H3467 H 0.27623 0.87144 0.88411 0.0
H3468 H 0.27282 0.80013 0.87493 0.0
C3469 C 0.33753 0.8107 0.80622 0.0
C3470 C 0.31758 0.83523 0.84617 0.0
C3471 C 0.34269 0.80951 0.78346 0.0
C3472 C 0.26514 0.86851 0.91783 0.0
C3473 C 0.27501 0.86054 0.89851 0.0
C3474 C 0.28549 0.80994 0.86718 0.0
C3475 C 0.31538 0.81032 0.81244 0.0
C3476 C 0.30939 0.81567 0.83575 0.0
C3477 C 0.2829 0.83861 0.89767 0.0
C3478 C 0.29291 0.83007 0.87703 0.0
H3479 H 0.29034 0.80603 0.7603 0.0
H3480 H 0.28137 0.80735 0.8 0.0
H3481 H 0.28692 0.7878 0.83884 0.0
H3482 H 0.2702 0.82198 0.95016 0.0
H3483 H 0.28686 0.80786 0.91629 0.0
C3484 C 0.57941 0.93835 0.98901 0.0
C3485 C 0.59241 0.94626 0.00758 0.0
C3486 C 0.58387 0.94504 0.96707 0.0
C3487 C 0.63018 0.96349 0.93426 0.0
H3488 H 0.58568 0.97965 0.88856 0.0
C3489 C 0.65517 0.99096 0.84626 0.0
C3490 C 0.64213 0.98363 0.82756 0.0
C3491 C 0.64788 0.98827 0.86812 0.0
C3492 C 0.59829 0.97492 0.90104 0.0
H3493 H 0.61971 0.96824 0.01753 0.0
H3494 H 0.62746 0.97969 0.97933 0.0
H3495 H 0.57474 0.97166 0.92694 0.0
H3496 H 0.61101 0.96805 0.81714 0.0
H3497 H 0.59854 0.96273 0.85532 0.0
H3498 H 0.65366 0.96593 0.90853 0.0
C3499 C 0.61394 0.9682 0.98179 0.0
C3500 C 0.59201 0.97044 0.92304 0.0
C3501 C 0.60938 0.9617 0.0037 0.0
C3502 C 0.6214 0.97396 0.83119 0.0
C3503 C 0.61421 0.97101 0.85312 0.0
C3504 C 0.63642 0.96771 0.91229 0.0
C3505 C 0.60153 0.95961 0.96321 0.0
C3506 C 0.60792 0.96477 0.93989 0.0
C3507 C 0.6275 0.97789 0.87191 0.0
C3508 C 0.6206 0.97358 0.89537 0.0
H3509 H 0.56616 0.92653 0.99134 0.0
H3510 H 0.57407 0.93808 0.95306 0.0
H3511 H 0.64276 0.95872 0.94678 0.0
H3512 H 0.67109 0.99876 0.84405 0.0
H3513 H 0.65834 0.99431 0.88208 0.0
C3514 C 0.82239 0.70493 0.22854 0.0
C3515 C 0.80961 0.69024 0.24113 0.0
C3516 C 0.81837 0.70705 0.20533 0.0
C3517 C 0.81885 0.69072 0.15702 0.0
H3518 H 0.76095 0.68478 0.12742 0.0
C3519 C 0.80384 0.64681 0.07154 0.0
C3520 C 0.78629 0.65402 0.05726 0.0
C3521 C 0.80777 0.65685 0.09261 0.0
C3522 C 0.77728 0.68686 0.13527 0.0
H3523 H 0.78139 0.66777 0.23953 0.0
H3524 H 0.77463 0.67123 0.19917 0.0
H3525 H 0.76396 0.69431 0.16723 0.0
H3526 H 0.75943 0.67763 0.05387 0.0
H3527 H 0.76694 0.69581 0.08976 0.0
H3528 H 0.83216 0.68297 0.12508 0.0
C3529 C 0.78769 0.6812 0.20717 0.0
C3530 C 0.77896 0.69211 0.15816 0.0
C3531 C 0.79167 0.67909 0.23034 0.0
C3532 C 0.77335 0.67197 0.06414 0.0
C3533 C 0.77744 0.68219 0.08496 0.0
C3534 C 0.81717 0.68557 0.13407 0.0
C3535 C 0.80148 0.69459 0.19432 0.0
C3536 C 0.79973 0.69336 0.16942 0.0
C3537 C 0.79429 0.67436 0.0997 0.0
C3538 C 0.79635 0.68293 0.12312 0.0
H3539 H 0.83616 0.71402 0.23636 0.0
H3540 H 0.82901 0.71779 0.19588 0.0
H3541 H 0.83512 0.6914 0.16527 0.0
H3542 H 0.81411 0.63299 0.06677 0.0
H3543 H 0.82072 0.65023 0.10372 0.0
C3544 C 0.92153 0.92842 0.00821 0.0
C3545 C 0.90814 0.93833 0.99115 0.0
C3546 C 0.91907 0.93395 0.03092 0.0
C3547 C 0.89248 0.97536 0.06859 0.0
H3548 H 0.89653 0.92741 0.11213 0.0
C3549 C 0.85195 0.97876 0.15473 0.0
C3550 C 0.86431 0.97158 0.1739 0.0
C3551 C 0.85996 0.976 0.13315 0.0
C3552 C 0.89563 0.94103 0.10023 0.0
H3553 H 0.8819 0.96221 0.98477 0.0
H3554 H 0.8772 0.97136 0.02416 0.0
H3555 H 0.90557 0.92035 0.07307 0.0
H3556 H 0.8949 0.95595 0.18535 0.0
H3557 H 0.9087 0.95064 0.14737 0.0
H3558 H 0.88156 0.99572 0.09569 0.0
C3559 C 0.89 0.95968 0.02009 0.0
C3560 C 0.90088 0.93704 0.07779 0.0
C3561 C 0.89263 0.95433 0.99739 0.0
C3562 C 0.88498 0.96164 0.17094 0.0
C3563 C 0.89284 0.95853 0.14922 0.0
C3564 C 0.88696 0.97925 0.09093 0.0
C3565 C 0.903 0.94939 0.03724 0.0
C3566 C 0.89908 0.95407 0.06155 0.0
C3567 C 0.8804 0.96572 0.13011 0.0
C3568 C 0.88819 0.96206 0.10693 0.0
H3569 H 0.93377 0.91615 0.00405 0.0
H3570 H 0.92971 0.92598 0.04353 0.0
H3571 H 0.89139 0.98906 0.05681 0.0
H3572 H 0.83605 0.98663 0.15637 0.0
H3573 H 0.8499 0.98152 0.11876 0.0
C3574 C 0.09435 0.57893 0.01474 0.0
C3575 C 0.09039 0.56272 -0.00208 0.0
C3576 C 0.10176 0.57281 0.03635 0.0
C3577 C 0.12799 0.52559 0.0677 0.0
H3578 H 0.11143 0.56018 0.11961 0.0
C3579 C 0.12845 0.4977 0.16062 0.0
C3580 C 0.1355 0.5133 0.17705 0.0
C3581 C 0.12886 0.50304 0.13781 0.0
C3582 C 0.11653 0.55064 0.1052 0.0
H3583 H 0.09 0.5273 0.99086 0.0
H3584 H 0.10166 0.51644 0.02906 0.0
H3585 H 0.09707 0.57039 0.08232 0.0
H3586 H 0.14993 0.5459 0.18296 0.0
H3587 H 0.15008 0.55563 0.14281 0.0
H3588 H 0.14625 0.50495 0.09123 0.0
C3589 C 0.09994 0.53398 0.02531 0.0
C3590 C 0.10828 0.55644 0.08378 0.0
C3591 C 0.09295 0.54016 0.00348 0.0
C3592 C 0.14465 0.5336 0.17045 0.0
C3593 C 0.14461 0.53917 0.14759 0.0
C3594 C 0.13587 0.51951 0.08926 0.0
C3595 C 0.10495 0.55028 0.04188 0.0
C3596 C 0.11381 0.54397 0.06472 0.0
C3597 C 0.13583 0.52426 0.13121 0.0
C3598 C 0.13015 0.53198 0.10815 0.0
H3599 H 0.09292 0.5965 0.01093 0.0
H3600 H 0.10577 0.58591 0.04843 0.0
H3601 H 0.13301 0.51585 0.05342 0.0
H3602 H 0.1212 0.48199 0.1655 0.0
H3603 H 0.12188 0.49136 0.12549 0.0
loop_
_geom_bond_atom_site_label_1
_geom_bond_atom_site_label_2
_geom_bond_distance
_geom_bond_site_symmetry_2
_ccdc_geom_bond_type
Sc0 O3 2.025 . S
Sc0 O10 2.105 . S
Sc0 O13 2.105 . S
Sc0 O16 2.105 . S
Sc0 O19 2.105 . S
Sc1 O3 2.025 . S
Sc1 O11 2.105 . S
Sc1 O15 2.105 . S
Sc1 O17 2.105 . S
Sc1 O21 2.105 . S
Sc2 O3 2.025 . S
Sc2 O12 2.105 . S
Sc2 O14 2.105 . S
Sc2 O18 2.105 . S
Sc2 O20 2.105 . S
O3 Sc0 2.025 . S
O3 Sc1 2.025 . S
O3 Sc2 2.025 . S
C4 O10 1.268 . S
C4 O20 1.268 . S
C5 O11 1.268 . S
C5 O19 1.268 . S
C6 O12 1.268 . S
C6 O21 1.268 . S
C7 O13 1.268 . S
C7 O17 1.268 . S
C8 O14 1.268 . S
C8 O16 1.268 . S
C9 O15 1.268 . S
C9 O18 1.268 . S
O10 Sc0 2.105 . S
O10 C4 1.268 . S
O11 Sc1 2.105 . S
O11 C5 1.268 . S
O12 Sc2 2.105 . S
O12 C6 1.268 . S
O13 Sc0 2.105 . S
O13 C7 1.268 . S
O14 Sc2 2.105 . S
O14 C8 1.268 . S
O15 Sc1 2.105 . S
O15 C9 1.268 . S
O16 Sc0 2.105 . S
O16 C8 1.268 . S
O17 Sc1 2.105 . S
O17 C7 1.268 . S
O18 Sc2 2.105 . S
O18 C9 1.268 . S
O19 Sc0 2.105 . S
O19 C5 1.268 . S
O20 Sc2 2.105 . S
O20 C4 1.268 . S
O21 Sc1 2.105 . S
O21 C6 1.268 . S
Sc22 O25 2.025 . S
Sc22 O32 2.105 . S
Sc22 O35 2.105 . S
Sc22 O38 2.105 . S
Sc22 O41 2.105 . S
Sc23 O25 2.025 . S
Sc23 O33 2.105 . S
Sc23 O37 2.105 . S
Sc23 O39 2.105 . S
Sc23 O43 2.105 . S
Sc24 O25 2.025 . S
Sc24 O34 2.105 . S
Sc24 O36 2.105 . S
Sc24 O40 2.105 . S
Sc24 O42 2.105 . S
O25 Sc22 2.025 . S
O25 Sc23 2.025 . S
O25 Sc24 2.025 . S
C26 O32 1.268 . S
C26 O42 1.268 . S
C27 O33 1.268 . S
C27 O41 1.268 . S
C28 O34 1.268 . S
C28 O43 1.268 . S
C29 O35 1.268 . S
C29 O39 1.268 . S
C30 O36 1.268 . S
C30 O38 1.268 . S
C31 O37 1.268 . S
C31 O40 1.268 . S
O32 Sc22 2.105 . S
O32 C26 1.268 . S
O33 Sc23 2.105 . S
O33 C27 1.268 . S
O34 Sc24 2.105 . S
O34 C28 1.268 . S
O35 Sc22 2.105 . S
O35 C29 1.268 . S
O36 Sc24 2.105 . S
O36 C30 1.268 . S
O37 Sc23 2.105 . S
O37 C31 1.268 . S
O38 Sc22 2.105 . S
O38 C30 1.268 . S
O39 Sc23 2.105 . S
O39 C29 1.268 . S
O40 Sc24 2.105 . S
O40 C31 1.268 . S
O41 Sc22 2.105 . S
O41 C27 1.268 . S
O42 Sc24 2.105 . S
O42 C26 1.268 . S
O43 Sc23 2.105 . S
O43 C28 1.268 . S
Sc44 O47 2.025 . S
Sc44 O54 2.105 . S
Sc44 O57 2.105 . S
Sc44 O60 2.105 . S
Sc44 O63 2.105 . S
Sc45 O47 2.025 . S
Sc45 O55 2.105 . S
Sc45 O59 2.105 . S
Sc45 O61 2.105 . S
Sc45 O65 2.105 . S
Sc46 O47 2.025 . S
Sc46 O56 2.105 . S
Sc46 O58 2.105 . S
Sc46 O62 2.105 . S
Sc46 O64 2.105 . S
O47 Sc44 2.025 . S
O47 Sc45 2.025 . S
O47 Sc46 2.025 . S
C48 O54 1.268 . S
C48 O64 1.268 . S
C49 O55 1.268 . S
C49 O63 1.268 . S
C50 O56 1.268 . S
C50 O65 1.268 . S
C51 O57 1.268 . S
C51 O61 1.268 . S
C52 O58 1.268 . S
C52 O60 1.268 . S
C53 O59 1.268 . S
C53 O62 1.268 . S
O54 Sc44 2.105 . S
O54 C48 1.268 . S
O55 Sc45 2.105 . S
O55 C49 1.268 . S
O56 Sc46 2.105 . S
O56 C50 1.268 . S
O57 Sc44 2.105 . S
O57 C51 1.268 . S
O58 Sc46 2.105 . S
O58 C52 1.268 . S
O59 Sc45 2.105 . S
O59 C53 1.268 . S
O60 Sc44 2.105 . S
O60 C52 1.268 . S
O61 Sc45 2.105 . S
O61 C51 1.268 . S
O62 Sc46 2.105 . S
O62 C53 1.268 . S
O63 Sc44 2.105 . S
O63 C49 1.268 . S
O64 Sc46 2.105 . S
O64 C48 1.268 . S
O65 Sc45 2.105 . S
O65 C50 1.268 . S
Sc66 O69 2.025 . S
Sc66 O76 2.105 . S
Sc66 O79 2.105 . S
Sc66 O82 2.105 . S
Sc66 O85 2.105 . S
Sc67 O69 2.025 . S
Sc67 O77 2.105 . S
Sc67 O81 2.105 . S
Sc67 O83 2.105 . S
Sc67 O87 2.105 . S
Sc68 O69 2.025 . S
Sc68 O78 2.105 . S
Sc68 O80 2.105 . S
Sc68 O84 2.105 . S
Sc68 O86 2.105 . S
O69 Sc66 2.025 . S
O69 Sc67 2.025 . S
O69 Sc68 2.025 . S
C70 O76 1.268 . S
C70 O86 1.268 . S
C71 O77 1.268 . S
C71 O85 1.268 . S
C72 O78 1.268 . S
C72 O87 1.268 . S
C73 O79 1.268 . S
C73 O83 1.268 . S
C74 O80 1.268 . S
C74 O82 1.268 . S
C75 O81 1.268 . S
C75 O84 1.268 . S
O76 Sc66 2.105 . S
O76 C70 1.268 . S
O77 Sc67 2.105 . S
O77 C71 1.268 . S
O78 Sc68 2.105 . S
O78 C72 1.268 . S
O79 Sc66 2.105 . S
O79 C73 1.268 . S
O80 Sc68 2.105 . S
O80 C74 1.268 . S
O81 Sc67 2.105 . S
O81 C75 1.268 . S
O82 Sc66 2.105 . S
O82 C74 1.268 . S
O83 Sc67 2.105 . S
O83 C73 1.268 . S
O84 Sc68 2.105 . S
O84 C75 1.268 . S
O85 Sc66 2.105 . S
O85 C71 1.268 . S
O86 Sc68 2.105 . S
O86 C70 1.268 . S
O87 Sc67 2.105 . S
O87 C72 1.268 . S
Sc88 O91 2.025 . S
Sc88 O98 2.105 . S
Sc88 O101 2.105 . S
Sc88 O104 2.105 . S
Sc88 O107 2.105 . S
Sc89 O91 2.025 . S
Sc89 O99 2.105 . S
Sc89 O103 2.105 . S
Sc89 O105 2.105 . S
Sc89 O109 2.105 . S
Sc90 O91 2.025 . S
Sc90 O100 2.105 . S
Sc90 O102 2.105 . S
Sc90 O106 2.105 . S
Sc90 O108 2.105 . S
O91 Sc88 2.025 . S
O91 Sc89 2.025 . S
O91 Sc90 2.025 . S
C92 O98 1.268 . S
C92 O108 1.268 . S
C93 O99 1.268 . S
C93 O107 1.268 . S
C94 O100 1.268 . S
C94 O109 1.268 . S
C95 O101 1.268 . S
C95 O105 1.268 . S
C96 O102 1.268 . S
C96 O104 1.268 . S
C97 O103 1.268 . S
C97 O106 1.268 . S
O98 Sc88 2.105 . S
O98 C92 1.268 . S
O99 Sc89 2.105 . S
O99 C93 1.268 . S
O100 Sc90 2.105 . S
O100 C94 1.268 . S
O101 Sc88 2.105 . S
O101 C95 1.268 . S
O102 Sc90 2.105 . S
O102 C96 1.268 . S
O103 Sc89 2.105 . S
O103 C97 1.268 . S
O104 Sc88 2.105 . S
O104 C96 1.268 . S
O105 Sc89 2.105 . S
O105 C95 1.268 . S
O106 Sc90 2.105 . S
O106 C97 1.268 . S
O107 Sc88 2.105 . S
O107 C93 1.268 . S
O108 Sc90 2.105 . S
O108 C92 1.268 . S
O109 Sc89 2.105 . S
O109 C94 1.268 . S
Sc110 O113 2.025 . S
Sc110 O120 2.105 . S
Sc110 O123 2.105 . S
Sc110 O126 2.105 . S
Sc110 O129 2.105 . S
Sc111 O113 2.025 . S
Sc111 O121 2.105 . S
Sc111 O125 2.105 . S
Sc111 O127 2.105 . S
Sc111 O131 2.105 . S
Sc112 O113 2.025 . S
Sc112 O122 2.105 . S
Sc112 O124 2.105 . S
Sc112 O128 2.105 . S
Sc112 O130 2.105 . S
O113 Sc110 2.025 . S
O113 Sc111 2.025 . S
O113 Sc112 2.025 . S
C114 O120 1.268 . S
C114 O130 1.268 . S
C115 O121 1.268 . S
C115 O129 1.268 . S
C116 O122 1.268 . S
C116 O131 1.268 . S
C117 O123 1.268 . S
C117 O127 1.268 . S
C118 O124 1.268 . S
C118 O126 1.268 . S
C119 O125 1.268 . S
C119 O128 1.268 . S
O120 Sc110 2.105 . S
O120 C114 1.268 . S
O121 Sc111 2.105 . S
O121 C115 1.268 . S
O122 Sc112 2.105 . S
O122 C116 1.268 . S
O123 Sc110 2.105 . S
O123 C117 1.268 . S
O124 Sc112 2.105 . S
O124 C118 1.268 . S
O125 Sc111 2.105 . S
O125 C119 1.268 . S
O126 Sc110 2.105 . S
O126 C118 1.268 . S
O127 Sc111 2.105 . S
O127 C117 1.268 . S
O128 Sc112 2.105 . S
O128 C119 1.268 . S
O129 Sc110 2.105 . S
O129 C115 1.268 . S
O130 Sc112 2.105 . S
O130 C114 1.268 . S
O131 Sc111 2.105 . S
O131 C116 1.268 . S
Sc132 O135 2.025 . S
Sc132 O142 2.105 . S
Sc132 O145 2.105 . S
Sc132 O148 2.105 . S
Sc132 O151 2.105 . S
Sc133 O135 2.025 . S
Sc133 O143 2.105 . S
Sc133 O147 2.105 . S
Sc133 O149 2.105 . S
Sc133 O153 2.105 . S
Sc134 O135 2.025 . S
Sc134 O144 2.105 . S
Sc134 O146 2.105 . S
Sc134 O150 2.105 . S
Sc134 O152 2.105 . S
O135 Sc132 2.025 . S
O135 Sc133 2.025 . S
O135 Sc134 2.025 . S
C136 O142 1.268 . S
C136 O152 1.268 . S
C137 O143 1.268 . S
C137 O151 1.268 . S
C138 O144 1.268 . S
C138 O153 1.268 . S
C139 O145 1.268 . S
C139 O149 1.268 . S
C140 O146 1.268 . S
C140 O148 1.268 . S
C141 O147 1.268 . S
C141 O150 1.268 . S
O142 Sc132 2.105 . S
O142 C136 1.268 . S
O143 Sc133 2.105 . S
O143 C137 1.268 . S
O144 Sc134 2.105 . S
O144 C138 1.268 . S
O145 Sc132 2.105 . S
O145 C139 1.268 . S
O146 Sc134 2.105 . S
O146 C140 1.268 . S
O147 Sc133 2.105 . S
O147 C141 1.268 . S
O148 Sc132 2.105 . S
O148 C140 1.268 . S
O149 Sc133 2.105 . S
O149 C139 1.268 . S
O150 Sc134 2.105 . S
O150 C141 1.268 . S
O151 Sc132 2.105 . S
O151 C137 1.268 . S
O152 Sc134 2.105 . S
O152 C136 1.268 . S
O153 Sc133 2.105 . S
O153 C138 1.268 . S
Sc154 O157 2.025 . S
Sc154 O164 2.105 . S
Sc154 O167 2.105 . S
Sc154 O170 2.105 . S
Sc154 O173 2.105 . S
Sc155 O157 2.025 . S
Sc155 O165 2.105 . S
Sc155 O169 2.105 . S
Sc155 O171 2.105 . S
Sc155 O175 2.105 . S
Sc156 O157 2.025 . S
Sc156 O166 2.105 . S
Sc156 O168 2.105 . S
Sc156 O172 2.105 . S
Sc156 O174 2.105 . S
O157 Sc154 2.025 . S
O157 Sc155 2.025 . S
O157 Sc156 2.025 . S
C158 O164 1.268 . S
C158 O174 1.268 . S
C159 O165 1.268 . S
C159 O173 1.268 . S
C160 O166 1.268 . S
C160 O175 1.268 . S
C161 O167 1.268 . S
C161 O171 1.268 . S
C162 O168 1.268 . S
C162 O170 1.268 . S
C163 O169 1.268 . S
C163 O172 1.268 . S
O164 Sc154 2.105 . S
O164 C158 1.268 . S
O165 Sc155 2.105 . S
O165 C159 1.268 . S
O166 Sc156 2.105 . S
O166 C160 1.268 . S
O167 Sc154 2.105 . S
O167 C161 1.268 . S
O168 Sc156 2.105 . S
O168 C162 1.268 . S
O169 Sc155 2.105 . S
O169 C163 1.268 . S
O170 Sc154 2.105 . S
O170 C162 1.268 . S
O171 Sc155 2.105 . S
O171 C161 1.268 . S
O172 Sc156 2.105 . S
O172 C163 1.268 . S
O173 Sc154 2.105 . S
O173 C159 1.268 . S
O174 Sc156 2.105 . S
O174 C158 1.268 . S
O175 Sc155 2.105 . S
O175 C160 1.268 . S
Sc176 O179 2.025 . S
Sc176 O186 2.105 . S
Sc176 O189 2.105 . S
Sc176 O192 2.105 . S
Sc176 O195 2.105 . S
Sc177 O179 2.025 . S
Sc177 O187 2.105 . S
Sc177 O191 2.105 . S
Sc177 O193 2.105 . S
Sc177 O197 2.105 . S
Sc178 O179 2.025 . S
Sc178 O188 2.105 . S
Sc178 O190 2.105 . S
Sc178 O194 2.105 . S
Sc178 O196 2.105 . S
O179 Sc176 2.025 . S
O179 Sc177 2.025 . S
O179 Sc178 2.025 . S
C180 O186 1.268 . S
C180 O196 1.268 . S
C181 O187 1.268 . S
C181 O195 1.268 . S
C182 O188 1.268 . S
C182 O197 1.268 . S
C183 O189 1.268 . S
C183 O193 1.268 . S
C184 O190 1.268 . S
C184 O192 1.268 . S
C185 O191 1.268 . S
C185 O194 1.268 . S
O186 Sc176 2.105 . S
O186 C180 1.268 . S
O187 Sc177 2.105 . S
O187 C181 1.268 . S
O188 Sc178 2.105 . S
O188 C182 1.268 . S
O189 Sc176 2.105 . S
O189 C183 1.268 . S
O190 Sc178 2.105 . S
O190 C184 1.268 . S
O191 Sc177 2.105 . S
O191 C185 1.268 . S
O192 Sc176 2.105 . S
O192 C184 1.268 . S
O193 Sc177 2.105 . S
O193 C183 1.268 . S
O194 Sc178 2.105 . S
O194 C185 1.268 . S
O195 Sc176 2.105 . S
O195 C181 1.268 . S
O196 Sc178 2.105 . S
O196 C180 1.268 . S
O197 Sc177 2.105 . S
O197 C182 1.268 . S
Sc198 O201 2.025 . S
Sc198 O208 2.105 . S
Sc198 O211 2.105 . S
Sc198 O214 2.105 . S
Sc198 O217 2.105 . S
Sc199 O201 2.025 . S
Sc199 O209 2.105 . S
Sc199 O213 2.105 . S
Sc199 O215 2.105 . S
Sc199 O219 2.105 . S
Sc200 O201 2.025 . S
Sc200 O210 2.105 . S
Sc200 O212 2.105 . S
Sc200 O216 2.105 . S
Sc200 O218 2.105 . S
O201 Sc198 2.025 . S
O201 Sc199 2.025 . S
O201 Sc200 2.025 . S
C202 O208 1.268 . S
C202 O218 1.268 . S
C203 O209 1.268 . S
C203 O217 1.268 . S
C204 O210 1.268 . S
C204 O219 1.268 . S
C205 O211 1.268 . S
C205 O215 1.268 . S
C206 O212 1.268 . S
C206 O214 1.268 . S
C207 O213 1.268 . S
C207 O216 1.268 . S
O208 Sc198 2.105 . S
O208 C202 1.268 . S
O209 Sc199 2.105 . S
O209 C203 1.268 . S
O210 Sc200 2.105 . S
O210 C204 1.268 . S
O211 Sc198 2.105 . S
O211 C205 1.268 . S
O212 Sc200 2.105 . S
O212 C206 1.268 . S
O213 Sc199 2.105 . S
O213 C207 1.268 . S
O214 Sc198 2.105 . S
O214 C206 1.268 . S
O215 Sc199 2.105 . S
O215 C205 1.268 . S
O216 Sc200 2.105 . S
O216 C207 1.268 . S
O217 Sc198 2.105 . S
O217 C203 1.268 . S
O218 Sc200 2.105 . S
O218 C202 1.268 . S
O219 Sc199 2.105 . S
O219 C204 1.268 . S
Sc220 O223 2.025 . S
Sc220 O230 2.105 . S
Sc220 O233 2.105 . S
Sc220 O236 2.105 . S
Sc220 O239 2.105 . S
Sc221 O223 2.025 . S
Sc221 O231 2.105 . S
Sc221 O235 2.105 . S
Sc221 O237 2.105 . S
Sc221 O241 2.105 . S
Sc222 O223 2.025 . S
Sc222 O232 2.105 . S
Sc222 O234 2.105 . S
Sc222 O238 2.105 . S
Sc222 O240 2.105 . S
O223 Sc220 2.025 . S
O223 Sc221 2.025 . S
O223 Sc222 2.025 . S
C224 O230 1.268 . S
C224 O240 1.268 . S
C225 O231 1.268 . S
C225 O239 1.268 . S
C226 O232 1.268 . S
C226 O241 1.268 . S
C227 O233 1.268 . S
C227 O237 1.268 . S
C228 O234 1.268 . S
C228 O236 1.268 . S
C229 O235 1.268 . S
C229 O238 1.268 . S
O230 Sc220 2.105 . S
O230 C224 1.268 . S
O231 Sc221 2.105 . S
O231 C225 1.268 . S
O232 Sc222 2.105 . S
O232 C226 1.268 . S
O233 Sc220 2.105 . S
O233 C227 1.268 . S
O234 Sc222 2.105 . S
O234 C228 1.268 . S
O235 Sc221 2.105 . S
O235 C229 1.268 . S
O236 Sc220 2.105 . S
O236 C228 1.268 . S
O237 Sc221 2.105 . S
O237 C227 1.268 . S
O238 Sc222 2.105 . S
O238 C229 1.268 . S
O239 Sc220 2.105 . S
O239 C225 1.268 . S
O240 Sc222 2.105 . S
O240 C224 1.268 . S
O241 Sc221 2.105 . S
O241 C226 1.268 . S
Sc242 O245 2.025 . S
Sc242 O252 2.105 . S
Sc242 O255 2.105 . S
Sc242 O258 2.105 . S
Sc242 O261 2.105 . S
Sc243 O245 2.025 . S
Sc243 O253 2.105 . S
Sc243 O257 2.105 . S
Sc243 O259 2.105 . S
Sc243 O263 2.105 . S
Sc244 O245 2.025 . S
Sc244 O254 2.105 . S
Sc244 O256 2.105 . S
Sc244 O260 2.105 . S
Sc244 O262 2.105 . S
O245 Sc242 2.025 . S
O245 Sc243 2.025 . S
O245 Sc244 2.025 . S
C246 O252 1.268 . S
C246 O262 1.268 . S
C247 O253 1.268 . S
C247 O261 1.268 . S
C248 O254 1.268 . S
C248 O263 1.268 . S
C249 O255 1.268 . S
C249 O259 1.268 . S
C250 O256 1.268 . S
C250 O258 1.268 . S
C251 O257 1.268 . S
C251 O260 1.268 . S
O252 Sc242 2.105 . S
O252 C246 1.268 . S
O253 Sc243 2.105 . S
O253 C247 1.268 . S
O254 Sc244 2.105 . S
O254 C248 1.268 . S
O255 Sc242 2.105 . S
O255 C249 1.268 . S
O256 Sc244 2.105 . S
O256 C250 1.268 . S
O257 Sc243 2.105 . S
O257 C251 1.268 . S
O258 Sc242 2.105 . S
O258 C250 1.268 . S
O259 Sc243 2.105 . S
O259 C249 1.268 . S
O260 Sc244 2.105 . S
O260 C251 1.268 . S
O261 Sc242 2.105 . S
O261 C247 1.268 . S
O262 Sc244 2.105 . S
O262 C246 1.268 . S
O263 Sc243 2.105 . S
O263 C248 1.268 . S
Sc264 O267 2.025 . S
Sc264 O274 2.105 . S
Sc264 O277 2.105 . S
Sc264 O280 2.105 . S
Sc264 O283 2.105 . S
Sc265 O267 2.025 . S
Sc265 O275 2.105 . S
Sc265 O279 2.105 . S
Sc265 O281 2.105 . S
Sc265 O285 2.105 . S
Sc266 O267 2.025 . S
Sc266 O276 2.105 . S
Sc266 O278 2.105 . S
Sc266 O282 2.105 . S
Sc266 O284 2.105 . S
O267 Sc264 2.025 . S
O267 Sc265 2.025 . S
O267 Sc266 2.025 . S
C268 O274 1.268 . S
C268 O284 1.268 . S
C269 O275 1.268 . S
C269 O283 1.268 . S
C270 O276 1.268 . S
C270 O285 1.268 . S
C271 O277 1.268 . S
C271 O281 1.268 . S
C272 O278 1.268 . S
C272 O280 1.268 . S
C273 O279 1.268 . S
C273 O282 1.268 . S
O274 Sc264 2.105 . S
O274 C268 1.268 . S
O275 Sc265 2.105 . S
O275 C269 1.268 . S
O276 Sc266 2.105 . S
O276 C270 1.268 . S
O277 Sc264 2.105 . S
O277 C271 1.268 . S
O278 Sc266 2.105 . S
O278 C272 1.268 . S
O279 Sc265 2.105 . S
O279 C273 1.268 . S
O280 Sc264 2.105 . S
O280 C272 1.268 . S
O281 Sc265 2.105 . S
O281 C271 1.268 . S
O282 Sc266 2.105 . S
O282 C273 1.268 . S
O283 Sc264 2.105 . S
O283 C269 1.268 . S
O284 Sc266 2.105 . S
O284 C268 1.268 . S
O285 Sc265 2.105 . S
O285 C270 1.268 . S
Sc286 O289 2.025 . S
Sc286 O296 2.105 . S
Sc286 O299 2.105 . S
Sc286 O302 2.105 . S
Sc286 O305 2.105 . S
Sc287 O289 2.025 . S
Sc287 O297 2.105 . S
Sc287 O301 2.105 . S
Sc287 O303 2.105 . S
Sc287 O307 2.105 . S
Sc288 O289 2.025 . S
Sc288 O298 2.105 . S
Sc288 O300 2.105 . S
Sc288 O304 2.105 . S
Sc288 O306 2.105 . S
O289 Sc286 2.025 . S
O289 Sc287 2.025 . S
O289 Sc288 2.025 . S
C290 O296 1.268 . S
C290 O306 1.268 . S
C291 O297 1.268 . S
C291 O305 1.268 . S
C292 O298 1.268 . S
C292 O307 1.268 . S
C293 O299 1.268 . S
C293 O303 1.268 . S
C294 O300 1.268 . S
C294 O302 1.268 . S
C295 O301 1.268 . S
C295 O304 1.268 . S
O296 Sc286 2.105 . S
O296 C290 1.268 . S
O297 Sc287 2.105 . S
O297 C291 1.268 . S
O298 Sc288 2.105 . S
O298 C292 1.268 . S
O299 Sc286 2.105 . S
O299 C293 1.268 . S
O300 Sc288 2.105 . S
O300 C294 1.268 . S
O301 Sc287 2.105 . S
O301 C295 1.268 . S
O302 Sc286 2.105 . S
O302 C294 1.268 . S
O303 Sc287 2.105 . S
O303 C293 1.268 . S
O304 Sc288 2.105 . S
O304 C295 1.268 . S
O305 Sc286 2.105 . S
O305 C291 1.268 . S
O306 Sc288 2.105 . S
O306 C290 1.268 . S
O307 Sc287 2.105 . S
O307 C292 1.268 . S
Sc308 O311 2.025 . S
Sc308 O318 2.105 . S
Sc308 O321 2.105 . S
Sc308 O324 2.105 . S
Sc308 O327 2.105 . S
Sc309 O311 2.025 . S
Sc309 O319 2.105 . S
Sc309 O323 2.105 . S
Sc309 O325 2.105 . S
Sc309 O329 2.105 . S
Sc310 O311 2.025 . S
Sc310 O320 2.105 . S
Sc310 O322 2.105 . S
Sc310 O326 2.105 . S
Sc310 O328 2.105 . S
O311 Sc308 2.025 . S
O311 Sc309 2.025 . S
O311 Sc310 2.025 . S
C312 O318 1.268 . S
C312 O328 1.268 . S
C313 O319 1.268 . S
C313 O327 1.268 . S
C314 O320 1.268 . S
C314 O329 1.268 . S
C315 O321 1.268 . S
C315 O325 1.268 . S
C316 O322 1.268 . S
C316 O324 1.268 . S
C317 O323 1.268 . S
C317 O326 1.268 . S
O318 Sc308 2.105 . S
O318 C312 1.268 . S
O319 Sc309 2.105 . S
O319 C313 1.268 . S
O320 Sc310 2.105 . S
O320 C314 1.268 . S
O321 Sc308 2.105 . S
O321 C315 1.268 . S
O322 Sc310 2.105 . S
O322 C316 1.268 . S
O323 Sc309 2.105 . S
O323 C317 1.268 . S
O324 Sc308 2.105 . S
O324 C316 1.268 . S
O325 Sc309 2.105 . S
O325 C315 1.268 . S
O326 Sc310 2.105 . S
O326 C317 1.268 . S
O327 Sc308 2.105 . S
O327 C313 1.268 . S
O328 Sc310 2.105 . S
O328 C312 1.268 . S
O329 Sc309 2.105 . S
O329 C314 1.268 . S
Sc330 O333 2.025 . S
Sc330 O340 2.105 . S
Sc330 O343 2.105 . S
Sc330 O346 2.105 . S
Sc330 O349 2.105 . S
Sc331 O333 2.025 . S
Sc331 O341 2.105 . S
Sc331 O345 2.105 . S
Sc331 O347 2.105 . S
Sc331 O351 2.105 . S
Sc332 O333 2.025 . S
Sc332 O342 2.105 . S
Sc332 O344 2.105 . S
Sc332 O348 2.105 . S
Sc332 O350 2.105 . S
O333 Sc330 2.025 . S
O333 Sc331 2.025 . S
O333 Sc332 2.025 . S
C334 O340 1.268 . S
C334 O350 1.268 . S
C335 O341 1.268 . S
C335 O349 1.268 . S
C336 O342 1.268 . S
C336 O351 1.268 . S
C337 O343 1.268 . S
C337 O347 1.268 . S
C338 O344 1.268 . S
C338 O346 1.268 . S
C339 O345 1.268 . S
C339 O348 1.268 . S
O340 Sc330 2.105 . S
O340 C334 1.268 . S
O341 Sc331 2.105 . S
O341 C335 1.268 . S
O342 Sc332 2.105 . S
O342 C336 1.268 . S
O343 Sc330 2.105 . S
O343 C337 1.268 . S
O344 Sc332 2.105 . S
O344 C338 1.268 . S
O345 Sc331 2.105 . S
O345 C339 1.268 . S
O346 Sc330 2.105 . S
O346 C338 1.268 . S
O347 Sc331 2.105 . S
O347 C337 1.268 . S
O348 Sc332 2.105 . S
O348 C339 1.268 . S
O349 Sc330 2.105 . S
O349 C335 1.268 . S
O350 Sc332 2.105 . S
O350 C334 1.268 . S
O351 Sc331 2.105 . S
O351 C336 1.268 . S
C352 O364 1.241 . S
C352 O365 1.280 . S
C353 O366 1.277 . S
C353 O367 1.245 . S
C354 O378 1.247 . S
C354 O380 1.289 . S
Mg355 O356 1.926 1_455 S
Mg355 O365 1.984 1_455 S
Mg355 O367 1.988 . S
Mg355 O368 2.061 1_455 S
O356 Mg355 1.926 1_655 S
O356 Mg357 1.986 . S
O356 Mg358 1.917 1_655 S
Mg357 O356 1.986 . S
Mg357 O364 2.042 . S
Mg357 O366 2.041 1_655 S
Mg357 O372 2.038 . S
Mg357 O380 2.238 1_655 S
Mg358 O356 1.917 1_455 S
Mg358 O359 1.917 . S
Mg358 O369 2.106 1_455 S
Mg358 O371 2.079 1_455 S
Mg358 O380 2.106 . S
Mg358 O381 2.079 . S
O359 Mg358 1.917 . S
O359 Mg360 1.926 1_455 S
O359 Mg361 1.986 . S
Mg360 O359 1.926 1_655 S
Mg360 O374 1.984 1_655 S
Mg360 O377 1.988 . S
Mg360 O378 2.061 1_655 S
Mg361 O359 1.986 . S
Mg361 O369 2.238 1_455 S
Mg361 O373 2.042 . S
Mg361 O375 2.041 1_455 S
Mg361 O382 2.038 . S
C362 O368 1.247 . S
C362 O369 1.289 . S
C363 O381 1.245 . S
C363 O382 1.274 . S
O364 C352 1.241 . S
O364 Mg357 2.042 . S
O365 C352 1.280 . S
O365 Mg355 1.984 1_655 S
O366 C353 1.277 . S
O366 Mg357 2.041 1_455 S
O367 C353 1.245 . S
O367 Mg355 1.988 . S
O368 Mg355 2.061 1_655 S
O368 C362 1.247 . S
O369 Mg358 2.106 1_655 S
O369 Mg361 2.238 1_655 S
O369 C362 1.289 . S
C370 O371 1.245 . S
C370 O372 1.274 . S
O371 Mg358 2.079 1_655 S
O371 C370 1.245 . S
O372 Mg357 2.038 . S
O372 C370 1.274 . S
O373 Mg361 2.042 . S
O373 C376 1.241 . S
O374 Mg360 1.984 1_455 S
O374 C376 1.280 . S
O375 Mg361 2.041 1_655 S
O375 C379 1.277 . S
C376 O373 1.241 . S
C376 O374 1.280 . S
O377 Mg360 1.988 . S
O377 C379 1.245 . S
O378 C354 1.247 . S
O378 Mg360 2.061 1_455 S
C379 O375 1.277 . S
C379 O377 1.245 . S
O380 C354 1.289 . S
O380 Mg357 2.238 1_455 S
O380 Mg358 2.106 . S
O381 Mg358 2.079 . S
O381 C363 1.245 . S
O382 Mg361 2.038 . S
O382 C363 1.274 . S
C383 O395 1.241 . S
C383 O396 1.280 . S
C384 O397 1.277 . S
C384 O398 1.245 . S
C385 O409 1.247 . S
C385 O411 1.289 . S
Mg386 O387 1.926 . S
Mg386 O396 1.984 . S
Mg386 O398 1.988 . S
Mg386 O399 2.061 . S
O387 Mg386 1.926 . S
O387 Mg388 1.986 . S
O387 Mg389 1.917 . S
Mg388 O387 1.986 . S
Mg388 O395 2.042 . S
Mg388 O397 2.041 . S
Mg388 O403 2.038 . S
Mg388 O411 2.238 . S
Mg389 O387 1.917 . S
Mg389 O390 1.917 . S
Mg389 O400 2.106 . S
Mg389 O402 2.079 . S
Mg389 O411 2.106 . S
Mg389 O412 2.079 . S
O390 Mg389 1.917 . S
O390 Mg391 1.926 . S
O390 Mg392 1.986 . S
Mg391 O390 1.926 . S
Mg391 O405 1.984 . S
Mg391 O408 1.988 . S
Mg391 O409 2.061 . S
Mg392 O390 1.986 . S
Mg392 O400 2.238 . S
Mg392 O404 2.042 . S
Mg392 O406 2.041 . S
Mg392 O413 2.038 . S
C393 O399 1.247 . S
C393 O400 1.289 . S
C394 O412 1.245 . S
C394 O413 1.274 . S
O395 C383 1.241 . S
O395 Mg388 2.042 . S
O396 C383 1.280 . S
O396 Mg386 1.984 . S
O397 C384 1.277 . S
O397 Mg388 2.041 . S
O398 C384 1.245 . S
O398 Mg386 1.988 . S
O399 Mg386 2.061 . S
O399 C393 1.247 . S
O400 Mg389 2.106 . S
O400 Mg392 2.238 . S
O400 C393 1.289 . S
C401 O402 1.245 . S
C401 O403 1.274 . S
O402 Mg389 2.079 . S
O402 C401 1.245 . S
O403 Mg388 2.038 . S
O403 C401 1.274 . S
O404 Mg392 2.042 . S
O404 C407 1.241 . S
O405 Mg391 1.984 . S
O405 C407 1.280 . S
O406 Mg392 2.041 . S
O406 C410 1.277 . S
C407 O404 1.241 . S
C407 O405 1.280 . S
O408 Mg391 1.988 . S
O408 C410 1.245 . S
O409 C385 1.247 . S
O409 Mg391 2.061 . S
C410 O406 1.277 . S
C410 O408 1.245 . S
O411 C385 1.289 . S
O411 Mg388 2.238 . S
O411 Mg389 2.106 . S
O412 Mg389 2.079 . S
O412 C394 1.245 . S
O413 Mg392 2.038 . S
O413 C394 1.274 . S
C414 O426 1.241 . S
C414 O427 1.280 . S
C415 O428 1.277 . S
C415 O429 1.245 . S
C416 O440 1.247 . S
C416 O442 1.289 . S
Mg417 O418 1.926 1_455 S
Mg417 O427 1.984 1_455 S
Mg417 O429 1.988 . S
Mg417 O430 2.061 . S
O418 Mg417 1.926 1_655 S
O418 Mg419 1.986 . S
O418 Mg420 1.917 1_655 S
Mg419 O418 1.986 . S
Mg419 O426 2.042 . S
Mg419 O428 2.041 1_655 S
Mg419 O434 2.038 . S
Mg419 O442 2.238 1_655 S
Mg420 O418 1.917 1_455 S
Mg420 O421 1.917 . S
Mg420 O431 2.106 1_455 S
Mg420 O433 2.079 1_455 S
Mg420 O442 2.106 . S
Mg420 O443 2.079 . S
O421 Mg420 1.917 . S
O421 Mg422 1.926 1_455 S
O421 Mg423 1.986 . S
Mg422 O421 1.926 1_655 S
Mg422 O436 1.984 1_655 S
Mg422 O439 1.988 . S
Mg422 O440 2.061 1_655 S
Mg423 O421 1.986 . S
Mg423 O431 2.235 1_455 S
Mg423 O435 2.042 . S
Mg423 O437 2.041 1_455 S
Mg423 O444 2.038 . S
C424 O430 1.247 1_655 S
C424 O431 1.290 . S
C425 O443 1.245 . S
C425 O444 1.274 . S
O426 C414 1.241 . S
O426 Mg419 2.042 . S
O427 C414 1.280 . S
O427 Mg417 1.984 1_655 S
O428 C415 1.277 . S
O428 Mg419 2.041 1_455 S
O429 C415 1.245 . S
O429 Mg417 1.988 . S
O430 Mg417 2.061 . S
O430 C424 1.247 1_455 S
O431 Mg420 2.106 1_655 S
O431 Mg423 2.235 1_655 S
O431 C424 1.290 . S
C432 O433 1.245 . S
C432 O434 1.274 . S
O433 Mg420 2.079 1_655 S
O433 C432 1.245 . S
O434 Mg419 2.038 . S
O434 C432 1.274 . S
O435 Mg423 2.042 . S
O435 C438 1.241 . S
O436 Mg422 1.984 1_455 S
O436 C438 1.280 . S
O437 Mg423 2.041 1_655 S
O437 C441 1.277 . S
C438 O435 1.241 . S
C438 O436 1.280 . S
O439 Mg422 1.988 . S
O439 C441 1.245 . S
O440 C416 1.247 . S
O440 Mg422 2.061 1_455 S
C441 O437 1.277 . S
C441 O439 1.245 . S
O442 C416 1.289 . S
O442 Mg419 2.238 1_455 S
O442 Mg420 2.106 . S
O443 Mg420 2.079 . S
O443 C425 1.245 . S
O444 Mg423 2.038 . S
O444 C425 1.274 . S
C445 O457 1.241 . S
C445 O458 1.280 . S
C446 O459 1.277 . S
C446 O460 1.245 . S
C447 O471 1.247 . S
C447 O473 1.289 . S
Mg448 O449 1.926 1_565 S
Mg448 O458 1.984 1_565 S
Mg448 O460 1.988 . S
Mg448 O461 2.061 1_565 S
O449 Mg448 1.926 1_545 S
O449 Mg450 1.986 . S
O449 Mg451 1.923 . S
Mg450 O449 1.986 . S
Mg450 O457 2.042 . S
Mg450 O459 2.041 1_545 S
Mg450 O465 2.038 . S
Mg450 O473 2.238 1_545 S
Mg451 O449 1.923 . S
Mg451 O452 1.912 1_545 S
Mg451 O462 2.109 . S
Mg451 O464 2.104 . S
Mg451 O473 2.104 1_545 S
Mg451 O474 2.053 1_545 S
O452 Mg451 1.912 1_565 S
O452 Mg453 1.926 1_565 S
O452 Mg454 1.986 . S
Mg453 O452 1.926 1_545 S
Mg453 O467 1.984 1_545 S
Mg453 O470 1.988 . S
Mg453 O471 2.061 1_545 S
Mg454 O452 1.986 . S
Mg454 O462 2.238 1_565 S
Mg454 O466 2.042 . S
Mg454 O468 2.041 1_565 S
Mg454 O475 2.038 . S
C455 O461 1.247 . S
C455 O462 1.289 . S
C456 O474 1.245 . S
C456 O475 1.274 . S
O457 C445 1.241 . S
O457 Mg450 2.042 . S
O458 C445 1.280 . S
O458 Mg448 1.984 1_545 S
O459 C446 1.277 . S
O459 Mg450 2.041 1_565 S
O460 C446 1.245 . S
O460 Mg448 1.988 . S
O461 Mg448 2.061 1_545 S
O461 C455 1.247 . S
O462 Mg451 2.109 . S
O462 Mg454 2.238 1_545 S
O462 C455 1.289 . S
C463 O464 1.245 . S
C463 O465 1.274 . S
O464 Mg451 2.104 . S
O464 C463 1.245 . S
O465 Mg450 2.038 . S
O465 C463 1.274 . S
O466 Mg454 2.042 . S
O466 C469 1.241 . S
O467 Mg453 1.984 1_565 S
O467 C469 1.280 . S
O468 Mg454 2.041 1_545 S
O468 C472 1.277 . S
C469 O466 1.241 . S
C469 O467 1.280 . S
O470 Mg453 1.988 . S
O470 C472 1.245 . S
O471 C447 1.247 . S
O471 Mg453 2.061 1_565 S
C472 O468 1.277 . S
C472 O470 1.245 . S
O473 C447 1.289 . S
O473 Mg450 2.238 1_565 S
O473 Mg451 2.104 1_565 S
O474 Mg451 2.053 1_565 S
O474 C456 1.245 . S
O475 Mg454 2.038 . S
O475 C456 1.274 . S
C476 O488 1.241 . S
C476 O489 1.280 . S
C477 O490 1.277 . S
C477 O491 1.245 . S
C478 O502 1.247 . S
C478 O504 1.289 . S
Mg479 O480 1.928 . S
Mg479 O489 1.984 1_554 S
Mg479 O491 1.988 . S
Mg479 O492 2.061 . S
O480 Mg479 1.928 . S
O480 Mg481 1.984 1_554 S
O480 Mg482 1.917 . S
Mg481 O480 1.984 1_556 S
Mg481 O488 2.042 . S
Mg481 O490 2.041 1_556 S
Mg481 O496 2.038 . S
Mg481 O504 2.238 . S
Mg482 O480 1.917 . S
Mg482 O483 1.917 . S
Mg482 O493 2.106 . S
Mg482 O495 2.079 1_554 S
Mg482 O504 2.106 1_554 S
Mg482 O505 2.079 . S
O483 Mg482 1.917 . S
O483 Mg484 1.926 1_554 S
O483 Mg485 1.986 . S
Mg484 O483 1.926 1_556 S
Mg484 O498 1.984 1_556 S
Mg484 O501 1.988 . S
Mg484 O502 2.061 . S
Mg485 O483 1.986 . S
Mg485 O493 2.238 . S
Mg485 O497 2.042 . S
Mg485 O499 2.041 . S
Mg485 O506 2.038 . S
C486 O492 1.247 . S
C486 O493 1.289 . S
C487 O505 1.245 . S
C487 O506 1.274 . S
O488 C476 1.241 . S
O488 Mg481 2.042 . S
O489 C476 1.280 . S
O489 Mg479 1.984 1_556 S
O490 C477 1.277 . S
O490 Mg481 2.041 1_554 S
O491 C477 1.245 . S
O491 Mg479 1.988 . S
O492 Mg479 2.061 . S
O492 C486 1.247 . S
O493 Mg482 2.106 . S
O493 Mg485 2.238 . S
O493 C486 1.289 . S
C494 O495 1.245 . S
C494 O496 1.274 . S
O495 Mg482 2.079 1_556 S
O495 C494 1.245 . S
O496 Mg481 2.038 . S
O496 C494 1.274 . S
O497 Mg485 2.042 . S
O497 C500 1.241 . S
O498 Mg484 1.984 1_554 S
O498 C500 1.280 . S
O499 Mg485 2.041 . S
O499 C503 1.277 1_554 S
C500 O497 1.241 . S
C500 O498 1.280 . S
O501 Mg484 1.988 . S
O501 C503 1.245 . S
O502 C478 1.247 . S
O502 Mg484 2.061 . S
C503 O499 1.277 1_556 S
C503 O501 1.245 . S
O504 C478 1.289 . S
O504 Mg481 2.238 . S
O504 Mg482 2.106 1_556 S
O505 Mg482 2.079 . S
O505 C487 1.245 . S
O506 Mg485 2.038 . S
O506 C487 1.274 . S
C507 O519 1.241 . S
C507 O520 1.280 . S
C508 O521 1.277 . S
C508 O522 1.245 . S
C509 O533 1.247 . S
C509 O535 1.289 . S
Mg510 O511 1.926 . S
Mg510 O520 1.984 . S
Mg510 O522 1.988 . S
Mg510 O523 2.061 . S
O511 Mg510 1.926 . S
O511 Mg512 1.986 . S
O511 Mg513 1.917 . S
Mg512 O511 1.986 . S
Mg512 O519 2.042 . S
Mg512 O521 2.041 . S
Mg512 O527 2.038 . S
Mg512 O535 2.238 . S
Mg513 O511 1.917 . S
Mg513 O514 1.917 . S
Mg513 O524 2.106 . S
Mg513 O526 2.079 . S
Mg513 O535 2.106 . S
Mg513 O536 2.079 . S
O514 Mg513 1.917 . S
O514 Mg515 1.926 . S
O514 Mg516 1.986 . S
Mg515 O514 1.926 . S
Mg515 O529 1.984 . S
Mg515 O532 1.988 . S
Mg515 O533 2.061 . S
Mg516 O514 1.986 . S
Mg516 O524 2.238 . S
Mg516 O528 2.042 . S
Mg516 O530 2.041 . S
Mg516 O537 2.038 . S
C517 O523 1.247 . S
C517 O524 1.289 . S
C518 O536 1.245 . S
C518 O537 1.274 . S
O519 C507 1.241 . S
O519 Mg512 2.042 . S
O520 C507 1.280 . S
O520 Mg510 1.984 . S
O521 C508 1.277 . S
O521 Mg512 2.041 . S
O522 C508 1.245 . S
O522 Mg510 1.988 . S
O523 Mg510 2.061 . S
O523 C517 1.247 . S
O524 Mg513 2.106 . S
O524 Mg516 2.238 . S
O524 C517 1.289 . S
C525 O526 1.245 . S
C525 O527 1.274 . S
O526 Mg513 2.079 . S
O526 C525 1.245 . S
O527 Mg512 2.038 . S
O527 C525 1.274 . S
O528 Mg516 2.042 . S
O528 C531 1.241 . S
O529 Mg515 1.984 . S
O529 C531 1.280 . S
O530 Mg516 2.041 . S
O530 C534 1.277 . S
C531 O528 1.241 . S
C531 O529 1.280 . S
O532 Mg515 1.988 . S
O532 C534 1.245 . S
O533 C509 1.247 . S
O533 Mg515 2.061 . S
C534 O530 1.277 . S
C534 O532 1.245 . S
O535 C509 1.289 . S
O535 Mg512 2.238 . S
O535 Mg513 2.106 . S
O536 Mg513 2.079 . S
O536 C518 1.245 . S
O537 Mg516 2.038 . S
O537 C518 1.274 . S
C538 O550 1.241 . S
C538 O551 1.280 . S
C539 O552 1.277 . S
C539 O553 1.245 . S
C540 O564 1.249 . S
C540 O566 1.289 . S
Mg541 O542 1.926 1_556 S
Mg541 O551 1.984 1_556 S
Mg541 O553 1.988 . S
Mg541 O554 2.059 1_556 S
O542 Mg541 1.926 1_554 S
O542 Mg543 1.986 . S
O542 Mg544 1.917 . S
Mg543 O542 1.986 . S
Mg543 O550 2.042 . S
Mg543 O552 2.041 1_554 S
Mg543 O558 2.038 . S
Mg543 O566 2.238 1_554 S
Mg544 O542 1.917 . S
Mg544 O545 1.917 1_554 S
Mg544 O555 2.106 . S
Mg544 O557 2.079 . S
Mg544 O566 2.106 1_554 S
Mg544 O567 2.079 1_554 S
O545 Mg544 1.917 1_556 S
O545 Mg546 1.926 1_556 S
O545 Mg547 1.986 . S
Mg546 O545 1.926 1_554 S
Mg546 O560 1.984 1_554 S
Mg546 O563 1.988 . S
Mg546 O564 2.061 1_554 S
Mg547 O545 1.986 . S
Mg547 O555 2.238 1_556 S
Mg547 O559 2.042 . S
Mg547 O561 2.041 1_556 S
Mg547 O568 2.038 . S
C548 O554 1.252 . S
C548 O555 1.289 . S
C549 O567 1.245 . S
C549 O568 1.274 . S
O550 C538 1.241 . S
O550 Mg543 2.042 . S
O551 C538 1.280 . S
O551 Mg541 1.984 1_554 S
O552 C539 1.277 . S
O552 Mg543 2.041 1_556 S
O553 C539 1.245 . S
O553 Mg541 1.988 . S
O554 Mg541 2.059 1_554 S
O554 C548 1.252 . S
O555 Mg544 2.106 . S
O555 Mg547 2.238 1_554 S
O555 C548 1.289 . S
C556 O557 1.245 . S
C556 O558 1.274 . S
O557 Mg544 2.079 . S
O557 C556 1.245 . S
O558 Mg543 2.038 . S
O558 C556 1.274 . S
O559 Mg547 2.042 . S
O559 C562 1.241 . S
O560 Mg546 1.984 1_556 S
O560 C562 1.280 . S
O561 Mg547 2.041 1_554 S
O561 C565 1.277 . S
C562 O559 1.241 . S
C562 O560 1.280 . S
O563 Mg546 1.988 . S
O563 C565 1.245 . S
O564 C540 1.249 . S
O564 Mg546 2.061 1_556 S
C565 O561 1.277 . S
C565 O563 1.245 . S
O566 C540 1.289 . S
O566 Mg543 2.238 1_556 S
O566 Mg544 2.106 1_556 S
O567 Mg544 2.079 1_556 S
O567 C549 1.245 . S
O568 Mg547 2.038 . S
O568 C549 1.274 . S
C569 O581 1.241 . S
C569 O582 1.280 . S
C570 O583 1.277 . S
C570 O584 1.245 . S
C571 O595 1.247 . S
C571 O597 1.289 . S
Mg572 O573 1.926 . S
Mg572 O582 1.984 . S
Mg572 O584 1.988 . S
Mg572 O585 2.061 . S
O573 Mg572 1.926 . S
O573 Mg574 1.986 . S
O573 Mg575 1.917 . S
Mg574 O573 1.986 . S
Mg574 O581 2.042 . S
Mg574 O583 2.041 . S
Mg574 O589 2.038 . S
Mg574 O597 2.238 . S
Mg575 O573 1.917 . S
Mg575 O576 1.917 . S
Mg575 O586 2.106 . S
Mg575 O588 2.079 . S
Mg575 O597 2.106 . S
Mg575 O598 2.079 . S
O576 Mg575 1.917 . S
O576 Mg577 1.926 . S
O576 Mg578 1.986 . S
Mg577 O576 1.926 . S
Mg577 O591 1.984 . S
Mg577 O594 1.988 . S
Mg577 O595 2.061 . S
Mg578 O576 1.986 . S
Mg578 O586 2.238 . S
Mg578 O590 2.042 . S
Mg578 O592 2.041 . S
Mg578 O599 2.038 . S
C579 O585 1.247 . S
C579 O586 1.289 . S
C580 O598 1.245 . S
C580 O599 1.274 . S
O581 C569 1.241 . S
O581 Mg574 2.042 . S
O582 C569 1.280 . S
O582 Mg572 1.984 . S
O583 C570 1.277 . S
O583 Mg574 2.041 . S
O584 C570 1.245 . S
O584 Mg572 1.988 . S
O585 Mg572 2.061 . S
O585 C579 1.247 . S
O586 Mg575 2.106 . S
O586 Mg578 2.238 . S
O586 C579 1.289 . S
C587 O588 1.245 . S
C587 O589 1.274 . S
O588 Mg575 2.079 . S
O588 C587 1.245 . S
O589 Mg574 2.038 . S
O589 C587 1.274 . S
O590 Mg578 2.042 . S
O590 C593 1.241 . S
O591 Mg577 1.984 . S
O591 C593 1.280 . S
O592 Mg578 2.041 . S
O592 C596 1.277 . S
C593 O590 1.241 . S
C593 O591 1.280 . S
O594 Mg577 1.988 . S
O594 C596 1.245 . S
O595 C571 1.247 . S
O595 Mg577 2.061 . S
C596 O592 1.277 . S
C596 O594 1.245 . S
O597 C571 1.289 . S
O597 Mg574 2.238 . S
O597 Mg575 2.106 . S
O598 Mg575 2.079 . S
O598 C580 1.245 . S
O599 Mg578 2.038 . S
O599 C580 1.274 . S
C600 O612 1.241 . S
C600 O613 1.280 . S
C601 O614 1.277 . S
C601 O615 1.245 . S
C602 O626 1.247 . S
C602 O628 1.289 . S
Mg603 O604 1.926 . S
Mg603 O613 1.984 . S
Mg603 O615 1.988 . S
Mg603 O616 2.061 . S
O604 Mg603 1.926 . S
O604 Mg605 1.986 . S
O604 Mg606 1.917 . S
Mg605 O604 1.986 . S
Mg605 O612 2.042 . S
Mg605 O614 2.041 . S
Mg605 O620 2.038 . S
Mg605 O628 2.238 . S
Mg606 O604 1.917 . S
Mg606 O607 1.917 . S
Mg606 O617 2.106 . S
Mg606 O619 2.079 . S
Mg606 O628 2.106 . S
Mg606 O629 2.079 . S
O607 Mg606 1.917 . S
O607 Mg608 1.926 . S
O607 Mg609 1.986 . S
Mg608 O607 1.926 . S
Mg608 O622 1.984 . S
Mg608 O625 1.988 . S
Mg608 O626 2.061 . S
Mg609 O607 1.986 . S
Mg609 O617 2.238 . S
Mg609 O621 2.042 . S
Mg609 O623 2.041 . S
Mg609 O630 2.038 . S
C610 O616 1.247 . S
C610 O617 1.289 . S
C611 O629 1.245 . S
C611 O630 1.274 . S
O612 C600 1.241 . S
O612 Mg605 2.042 . S
O613 C600 1.280 . S
O613 Mg603 1.984 . S
O614 C601 1.277 . S
O614 Mg605 2.041 . S
O615 C601 1.245 . S
O615 Mg603 1.988 . S
O616 Mg603 2.061 . S
O616 C610 1.247 . S
O617 Mg606 2.106 . S
O617 Mg609 2.238 . S
O617 C610 1.289 . S
C618 O619 1.245 . S
C618 O620 1.274 . S
O619 Mg606 2.079 . S
O619 C618 1.245 . S
O620 Mg605 2.038 . S
O620 C618 1.274 . S
O621 Mg609 2.042 . S
O621 C624 1.241 . S
O622 Mg608 1.984 . S
O622 C624 1.280 . S
O623 Mg609 2.041 . S
O623 C627 1.277 . S
C624 O621 1.241 . S
C624 O622 1.280 . S
O625 Mg608 1.988 . S
O625 C627 1.245 . S
O626 C602 1.247 . S
O626 Mg608 2.061 . S
C627 O623 1.277 . S
C627 O625 1.245 . S
O628 C602 1.289 . S
O628 Mg605 2.238 . S
O628 Mg606 2.106 . S
O629 Mg606 2.079 . S
O629 C611 1.245 . S
O630 Mg609 2.038 . S
O630 C611 1.274 . S
C631 O643 1.241 . S
C631 O644 1.280 . S
C632 O645 1.277 . S
C632 O646 1.245 . S
C633 O657 1.247 . S
C633 O659 1.289 . S
Mg634 O635 1.926 . S
Mg634 O644 1.984 . S
Mg634 O646 1.988 . S
Mg634 O647 2.061 . S
O635 Mg634 1.926 . S
O635 Mg636 1.986 . S
O635 Mg637 1.917 . S
Mg636 O635 1.986 . S
Mg636 O643 2.042 . S
Mg636 O645 2.041 . S
Mg636 O651 2.038 . S
Mg636 O659 2.238 . S
Mg637 O635 1.917 . S
Mg637 O638 1.917 . S
Mg637 O648 2.106 . S
Mg637 O650 2.079 . S
Mg637 O659 2.106 . S
Mg637 O660 2.079 . S
O638 Mg637 1.917 . S
O638 Mg639 1.926 . S
O638 Mg640 1.986 . S
Mg639 O638 1.926 . S
Mg639 O653 1.984 . S
Mg639 O656 1.988 . S
Mg639 O657 2.061 . S
Mg640 O638 1.986 . S
Mg640 O648 2.238 . S
Mg640 O652 2.042 . S
Mg640 O654 2.041 . S
Mg640 O661 2.038 . S
C641 O647 1.247 . S
C641 O648 1.289 . S
C642 O660 1.245 . S
C642 O661 1.274 . S
O643 C631 1.241 . S
O643 Mg636 2.042 . S
O644 C631 1.280 . S
O644 Mg634 1.984 . S
O645 C632 1.277 . S
O645 Mg636 2.041 . S
O646 C632 1.245 . S
O646 Mg634 1.988 . S
O647 Mg634 2.061 . S
O647 C641 1.247 . S
O648 Mg637 2.106 . S
O648 Mg640 2.238 . S
O648 C641 1.289 . S
C649 O650 1.245 . S
C649 O651 1.274 . S
O650 Mg637 2.079 . S
O650 C649 1.245 . S
O651 Mg636 2.038 . S
O651 C649 1.274 . S
O652 Mg640 2.042 . S
O652 C655 1.241 . S
O653 Mg639 1.984 . S
O653 C655 1.280 . S
O654 Mg640 2.041 . S
O654 C658 1.277 . S
C655 O652 1.241 . S
C655 O653 1.280 . S
O656 Mg639 1.988 . S
O656 C658 1.245 . S
O657 C633 1.247 . S
O657 Mg639 2.061 . S
C658 O654 1.277 . S
C658 O656 1.245 . S
O659 C633 1.289 . S
O659 Mg636 2.238 . S
O659 Mg637 2.106 . S
O660 Mg637 2.079 . S
O660 C642 1.245 . S
O661 Mg640 2.038 . S
O661 C642 1.274 . S
C662 O674 1.241 . S
C662 O675 1.280 . S
C663 O676 1.277 . S
C663 O677 1.245 . S
C664 O688 1.247 . S
C664 O690 1.289 . S
Mg665 O666 1.926 1_565 S
Mg665 O675 1.984 1_565 S
Mg665 O677 1.988 . S
Mg665 O678 2.061 1_565 S
O666 Mg665 1.926 1_545 S
O666 Mg667 1.986 . S
O666 Mg668 1.925 . S
Mg667 O666 1.986 . S
Mg667 O674 2.042 . S
Mg667 O676 2.041 1_545 S
Mg667 O682 2.038 . S
Mg667 O690 2.238 1_545 S
Mg668 O666 1.925 . S
Mg668 O669 1.910 1_545 S
Mg668 O679 2.110 . S
Mg668 O681 2.113 . S
Mg668 O690 2.103 1_545 S
Mg668 O691 2.045 1_545 S
O669 Mg668 1.910 1_565 S
O669 Mg670 1.926 1_565 S
O669 Mg671 1.986 . S
Mg670 O669 1.926 1_545 S
Mg670 O684 1.984 1_545 S
Mg670 O687 1.988 . S
Mg670 O688 2.061 1_545 S
Mg671 O669 1.986 . S
Mg671 O679 2.238 1_565 S
Mg671 O683 2.042 . S
Mg671 O685 2.041 1_565 S
Mg671 O692 2.038 . S
C672 O678 1.247 . S
C672 O679 1.289 . S
C673 O691 1.245 . S
C673 O692 1.274 . S
O674 C662 1.241 . S
O674 Mg667 2.042 . S
O675 C662 1.280 . S
O675 Mg665 1.984 1_545 S
O676 C663 1.277 . S
O676 Mg667 2.041 1_565 S
O677 C663 1.245 . S
O677 Mg665 1.988 . S
O678 Mg665 2.061 1_545 S
O678 C672 1.247 . S
O679 Mg668 2.110 . S
O679 Mg671 2.238 1_545 S
O679 C672 1.289 . S
C680 O681 1.245 . S
C680 O682 1.274 . S
O681 Mg668 2.113 . S
O681 C680 1.245 . S
O682 Mg667 2.038 . S
O682 C680 1.274 . S
O683 Mg671 2.042 . S
O683 C686 1.241 . S
O684 Mg670 1.984 1_565 S
O684 C686 1.280 . S
O685 Mg671 2.041 1_545 S
O685 C689 1.277 . S
C686 O683 1.241 . S
C686 O684 1.280 . S
O687 Mg670 1.988 . S
O687 C689 1.245 . S
O688 C664 1.247 . S
O688 Mg670 2.061 1_565 S
C689 O685 1.277 . S
C689 O687 1.245 . S
O690 C664 1.289 . S
O690 Mg667 2.238 1_565 S
O690 Mg668 2.103 1_565 S
O691 Mg668 2.045 1_565 S
O691 C673 1.245 . S
O692 Mg671 2.038 . S
O692 C673 1.274 . S
C693 O705 1.241 . S
C693 O706 1.280 . S
C694 O707 1.277 . S
C694 O708 1.245 . S
C695 O719 1.247 . S
C695 O721 1.289 . S
Mg696 O697 1.926 . S
Mg696 O706 1.984 . S
Mg696 O708 1.988 . S
Mg696 O709 2.061 . S
O697 Mg696 1.926 . S
O697 Mg698 1.986 . S
O697 Mg699 1.917 . S
Mg698 O697 1.986 . S
Mg698 O705 2.042 . S
Mg698 O707 2.041 . S
Mg698 O713 2.038 . S
Mg698 O721 2.238 . S
Mg699 O697 1.917 . S
Mg699 O700 1.917 . S
Mg699 O710 2.106 . S
Mg699 O712 2.079 . S
Mg699 O721 2.106 . S
Mg699 O722 2.079 . S
O700 Mg699 1.917 . S
O700 Mg701 1.926 . S
O700 Mg702 1.986 . S
Mg701 O700 1.926 . S
Mg701 O715 1.984 . S
Mg701 O718 1.988 . S
Mg701 O719 2.061 . S
Mg702 O700 1.986 . S
Mg702 O710 2.238 . S
Mg702 O714 2.042 . S
Mg702 O716 2.041 . S
Mg702 O723 2.038 . S
C703 O709 1.247 . S
C703 O710 1.289 . S
C704 O722 1.245 . S
C704 O723 1.274 . S
O705 C693 1.241 . S
O705 Mg698 2.042 . S
O706 C693 1.280 . S
O706 Mg696 1.984 . S
O707 C694 1.277 . S
O707 Mg698 2.041 . S
O708 C694 1.245 . S
O708 Mg696 1.988 . S
O709 Mg696 2.061 . S
O709 C703 1.247 . S
O710 Mg699 2.106 . S
O710 Mg702 2.238 . S
O710 C703 1.289 . S
C711 O712 1.245 . S
C711 O713 1.274 . S
O712 Mg699 2.079 . S
O712 C711 1.245 . S
O713 Mg698 2.038 . S
O713 C711 1.274 . S
O714 Mg702 2.042 . S
O714 C717 1.241 . S
O715 Mg701 1.984 . S
O715 C717 1.280 . S
O716 Mg702 2.041 . S
O716 C720 1.277 . S
C717 O714 1.241 . S
C717 O715 1.280 . S
O718 Mg701 1.988 . S
O718 C720 1.245 . S
O719 C695 1.247 . S
O719 Mg701 2.061 . S
C720 O716 1.277 . S
C720 O718 1.245 . S
O721 C695 1.289 . S
O721 Mg698 2.238 . S
O721 Mg699 2.106 . S
O722 Mg699 2.079 . S
O722 C704 1.245 . S
O723 Mg702 2.038 . S
O723 C704 1.274 . S
C724 C725 1.349 . S
C724 C726 1.327 . S
C724 H749 0.950 . S
C725 C724 1.349 . S
C725 C741 1.349 . S
C726 C724 1.327 . S
C726 C745 1.429 . S
C726 H750 0.950 . S
C727 C744 1.574 . S
C727 C746 1.368 . S
C727 H751 0.949 . S
H728 C732 0.949 . S
C729 C730 1.349 . S
C729 C731 1.327 . S
C729 H752 0.950 . S
C730 C729 1.349 . S
C730 C742 1.349 . S
C731 C729 1.327 . S
C731 C747 1.429 . S
C731 H753 0.950 . S
C732 H728 0.949 . S
C732 C740 1.574 . S
C732 C748 1.368 . S
H733 C741 0.950 . S
H734 C739 0.950 . S
H735 C740 0.949 . S
H736 C742 0.950 . S
H737 C743 0.950 . S
H738 C744 0.949 . S
C739 H734 0.950 . S
C739 C741 1.327 . S
C739 C745 1.429 . S
C740 C732 1.574 . S
C740 H735 0.949 . S
C740 C746 1.368 . S
C741 C725 1.349 . S
C741 H733 0.950 . S
C741 C739 1.327 . S
C742 C730 1.349 . S
C742 H736 0.950 . S
C742 C743 1.327 . S
C743 H737 0.950 . S
C743 C742 1.327 . S
C743 C747 1.429 . S
C744 C727 1.574 . S
C744 H738 0.949 . S
C744 C748 1.368 . S
C745 C726 1.429 . S
C745 C739 1.429 . S
C745 C746 1.523 . S
C746 C727 1.368 . S
C746 C740 1.368 . S
C746 C745 1.523 . S
C747 C731 1.429 . S
C747 C743 1.429 . S
C747 C748 1.523 . S
C748 C732 1.368 . S
C748 C744 1.368 . S
C748 C747 1.523 . S
H749 C724 0.950 . S
H750 C726 0.950 . S
H751 C727 0.949 . S
H752 C729 0.950 . S
H753 C731 0.950 . S
C754 C755 1.349 . S
C754 C756 1.327 . S
C754 H779 0.950 . S
C755 C754 1.349 . S
C755 C771 1.349 . S
C756 C754 1.327 . S
C756 C775 1.429 . S
C756 H780 0.950 . S
C757 C774 1.574 . S
C757 C776 1.368 . S
C757 H781 0.949 . S
H758 C762 0.949 . S
C759 C760 1.349 . S
C759 C761 1.327 . S
C759 H782 0.950 . S
C760 C759 1.349 . S
C760 C772 1.349 . S
C761 C759 1.327 . S
C761 C777 1.429 . S
C761 H783 0.950 . S
C762 H758 0.949 . S
C762 C770 1.574 . S
C762 C778 1.368 . S
H763 C771 0.950 . S
H764 C769 0.950 . S
H765 C770 0.949 . S
H766 C772 0.950 . S
H767 C773 0.950 . S
H768 C774 0.949 . S
C769 H764 0.950 . S
C769 C771 1.327 . S
C769 C775 1.429 . S
C770 C762 1.574 . S
C770 H765 0.949 . S
C770 C776 1.368 . S
C771 C755 1.349 . S
C771 H763 0.950 . S
C771 C769 1.327 . S
C772 C760 1.349 . S
C772 H766 0.950 . S
C772 C773 1.327 . S
C773 H767 0.950 . S
C773 C772 1.327 . S
C773 C777 1.429 . S
C774 C757 1.574 . S
C774 H768 0.949 . S
C774 C778 1.368 . S
C775 C756 1.429 . S
C775 C769 1.429 . S
C775 C776 1.523 . S
C776 C757 1.368 . S
C776 C770 1.368 . S
C776 C775 1.523 . S
C777 C761 1.429 . S
C777 C773 1.429 . S
C777 C778 1.523 . S
C778 C762 1.368 . S
C778 C774 1.368 . S
C778 C777 1.523 . S
H779 C754 0.950 . S
H780 C756 0.950 . S
H781 C757 0.949 . S
H782 C759 0.950 . S
H783 C761 0.950 . S
C784 C785 1.349 . S
C784 C786 1.327 . S
C784 H809 0.950 . S
C785 C784 1.349 . S
C785 C801 1.349 . S
C786 C784 1.327 . S
C786 C805 1.429 . S
C786 H810 0.950 . S
C787 C804 1.574 . S
C787 C806 1.368 . S
C787 H811 0.949 . S
H788 C792 0.949 . S
C789 C790 1.349 . S
C789 C791 1.327 . S
C789 H812 0.950 . S
C790 C789 1.349 . S
C790 C802 1.349 . S
C791 C789 1.327 . S
C791 C807 1.429 . S
C791 H813 0.950 . S
C792 H788 0.949 . S
C792 C800 1.574 . S
C792 C808 1.368 . S
H793 C801 0.950 . S
H794 C799 0.950 . S
H795 C800 0.949 . S
H796 C802 0.950 . S
H797 C803 0.950 . S
H798 C804 0.949 . S
C799 H794 0.950 . S
C799 C801 1.327 . S
C799 C805 1.429 . S
C800 C792 1.574 . S
C800 H795 0.949 . S
C800 C806 1.368 . S
C801 C785 1.349 . S
C801 H793 0.950 . S
C801 C799 1.327 . S
C802 C790 1.349 . S
C802 H796 0.950 . S
C802 C803 1.327 . S
C803 H797 0.950 . S
C803 C802 1.327 . S
C803 C807 1.429 . S
C804 C787 1.574 . S
C804 H798 0.949 . S
C804 C808 1.368 . S
C805 C786 1.429 . S
C805 C799 1.429 . S
C805 C806 1.523 . S
C806 C787 1.368 . S
C806 C800 1.368 . S
C806 C805 1.523 . S
C807 C791 1.429 . S
C807 C803 1.429 . S
C807 C808 1.523 . S
C808 C792 1.368 . S
C808 C804 1.368 . S
C808 C807 1.523 . S
H809 C784 0.950 . S
H810 C786 0.950 . S
H811 C787 0.949 . S
H812 C789 0.950 . S
H813 C791 0.950 . S
C814 C815 1.349 . S
C814 C816 1.327 . S
C814 H839 0.950 . S
C815 C814 1.349 . S
C815 C831 1.349 . S
C816 C814 1.327 . S
C816 C835 1.429 . S
C816 H840 0.950 . S
C817 C834 1.574 . S
C817 C836 1.368 . S
C817 H841 0.949 . S
H818 C822 0.949 . S
C819 C820 1.349 . S
C819 C821 1.327 . S
C819 H842 0.950 . S
C820 C819 1.349 . S
C820 C832 1.349 . S
C821 C819 1.327 . S
C821 C837 1.429 . S
C821 H843 0.950 . S
C822 H818 0.949 . S
C822 C830 1.574 . S
C822 C838 1.368 . S
H823 C831 0.950 . S
H824 C829 0.950 . S
H825 C830 0.949 . S
H826 C832 0.950 . S
H827 C833 0.950 . S
H828 C834 0.949 . S
C829 H824 0.950 . S
C829 C831 1.327 . S
C829 C835 1.429 . S
C830 C822 1.574 . S
C830 H825 0.949 . S
C830 C836 1.368 . S
C831 C815 1.349 . S
C831 H823 0.950 . S
C831 C829 1.327 . S
C832 C820 1.349 . S
C832 H826 0.950 . S
C832 C833 1.327 . S
C833 H827 0.950 . S
C833 C832 1.327 . S
C833 C837 1.429 . S
C834 C817 1.574 . S
C834 H828 0.949 . S
C834 C838 1.368 . S
C835 C816 1.429 . S
C835 C829 1.429 . S
C835 C836 1.523 . S
C836 C817 1.368 . S
C836 C830 1.368 . S
C836 C835 1.523 . S
C837 C821 1.429 . S
C837 C833 1.429 . S
C837 C838 1.523 . S
C838 C822 1.368 . S
C838 C834 1.368 . S
C838 C837 1.523 . S
H839 C814 0.950 . S
H840 C816 0.950 . S
H841 C817 0.949 . S
H842 C819 0.950 . S
H843 C821 0.950 . S
C844 C845 1.349 . S
C844 C846 1.327 . S
C844 H869 0.950 . S
C845 C844 1.349 . S
C845 C861 1.349 . S
C846 C844 1.327 . S
C846 C865 1.429 . S
C846 H870 0.950 . S
C847 C864 1.574 . S
C847 C866 1.368 . S
C847 H871 0.949 . S
H848 C852 0.949 . S
C849 C850 1.349 . S
C849 C851 1.327 . S
C849 H872 0.950 . S
C850 C849 1.349 . S
C850 C862 1.349 . S
C851 C849 1.327 . S
C851 C867 1.429 . S
C851 H873 0.950 . S
C852 H848 0.949 . S
C852 C860 1.574 . S
C852 C868 1.368 . S
H853 C861 0.950 . S
H854 C859 0.950 . S
H855 C860 0.949 . S
H856 C862 0.950 . S
H857 C863 0.950 . S
H858 C864 0.949 . S
C859 H854 0.950 . S
C859 C861 1.327 . S
C859 C865 1.429 . S
C860 C852 1.574 . S
C860 H855 0.949 . S
C860 C866 1.368 . S
C861 C845 1.349 . S
C861 H853 0.950 . S
C861 C859 1.327 . S
C862 C850 1.349 . S
C862 H856 0.950 . S
C862 C863 1.327 . S
C863 H857 0.950 . S
C863 C862 1.327 . S
C863 C867 1.429 . S
C864 C847 1.574 . S
C864 H858 0.949 . S
C864 C868 1.368 . S
C865 C846 1.429 . S
C865 C859 1.429 . S
C865 C866 1.523 . S
C866 C847 1.368 . S
C866 C860 1.368 . S
C866 C865 1.523 . S
C867 C851 1.429 . S
C867 C863 1.429 . S
C867 C868 1.523 . S
C868 C852 1.368 . S
C868 C864 1.368 . S
C868 C867 1.523 . S
H869 C844 0.950 . S
H870 C846 0.950 . S
H871 C847 0.949 . S
H872 C849 0.950 . S
H873 C851 0.950 . S
C874 C875 1.349 . S
C874 C876 1.327 . S
C874 H899 0.950 . S
C875 C874 1.349 . S
C875 C891 1.349 . S
C876 C874 1.327 . S
C876 C895 1.429 . S
C876 H900 0.950 . S
C877 C894 1.574 . S
C877 C896 1.368 . S
C877 H901 0.949 . S
H878 C882 0.949 . S
C879 C880 1.349 . S
C879 C881 1.327 . S
C879 H902 0.950 . S
C880 C879 1.349 . S
C880 C892 1.349 . S
C881 C879 1.327 . S
C881 C897 1.429 . S
C881 H903 0.950 . S
C882 H878 0.949 . S
C882 C890 1.574 . S
C882 C898 1.368 . S
H883 C891 0.950 . S
H884 C889 0.950 . S
H885 C890 0.949 . S
H886 C892 0.950 . S
H887 C893 0.950 . S
H888 C894 0.949 . S
C889 H884 0.950 . S
C889 C891 1.327 . S
C889 C895 1.429 . S
C890 C882 1.574 . S
C890 H885 0.949 . S
C890 C896 1.368 . S
C891 C875 1.349 . S
C891 H883 0.950 . S
C891 C889 1.327 . S
C892 C880 1.349 . S
C892 H886 0.950 . S
C892 C893 1.327 . S
C893 H887 0.950 . S
C893 C892 1.327 . S
C893 C897 1.429 . S
C894 C877 1.574 . S
C894 H888 0.949 . S
C894 C898 1.368 . S
C895 C876 1.429 . S
C895 C889 1.429 . S
C895 C896 1.523 . S
C896 C877 1.368 . S
C896 C890 1.368 . S
C896 C895 1.523 . S
C897 C881 1.429 . S
C897 C893 1.429 . S
C897 C898 1.523 . S
C898 C882 1.368 . S
C898 C894 1.368 . S
C898 C897 1.523 . S
H899 C874 0.950 . S
H900 C876 0.950 . S
H901 C877 0.949 . S
H902 C879 0.950 . S
H903 C881 0.950 . S
C904 C905 1.349 . S
C904 C906 1.327 . S
C904 H929 0.950 . S
C905 C904 1.349 . S
C905 C921 1.349 . S
C906 C904 1.327 . S
C906 C925 1.429 . S
C906 H930 0.950 . S
C907 C924 1.574 . S
C907 C926 1.368 . S
C907 H931 0.949 . S
H908 C912 0.949 . S
C909 C910 1.349 . S
C909 C911 1.327 . S
C909 H932 0.950 . S
C910 C909 1.349 . S
C910 C922 1.349 . S
C911 C909 1.327 . S
C911 C927 1.429 . S
C911 H933 0.950 . S
C912 H908 0.949 . S
C912 C920 1.574 . S
C912 C928 1.368 . S
H913 C921 0.950 . S
H914 C919 0.950 . S
H915 C920 0.949 . S
H916 C922 0.950 . S
H917 C923 0.950 . S
H918 C924 0.949 . S
C919 H914 0.950 . S
C919 C921 1.327 . S
C919 C925 1.429 . S
C920 C912 1.574 . S
C920 H915 0.949 . S
C920 C926 1.368 . S
C921 C905 1.349 . S
C921 H913 0.950 . S
C921 C919 1.327 . S
C922 C910 1.349 . S
C922 H916 0.950 . S
C922 C923 1.327 . S
C923 H917 0.950 . S
C923 C922 1.327 . S
C923 C927 1.429 . S
C924 C907 1.574 . S
C924 H918 0.949 . S
C924 C928 1.368 . S
C925 C906 1.429 . S
C925 C919 1.429 . S
C925 C926 1.523 . S
C926 C907 1.368 . S
C926 C920 1.368 . S
C926 C925 1.523 . S
C927 C911 1.429 . S
C927 C923 1.429 . S
C927 C928 1.523 . S
C928 C912 1.368 . S
C928 C924 1.368 . S
C928 C927 1.523 . S
H929 C904 0.950 . S
H930 C906 0.950 . S
H931 C907 0.949 . S
H932 C909 0.950 . S
H933 C911 0.950 . S
C934 C935 1.349 . S
C934 C936 1.327 . S
C934 H959 0.950 . S
C935 C934 1.349 . S
C935 C951 1.349 . S
C936 C934 1.327 . S
C936 C955 1.429 . S
C936 H960 0.950 . S
C937 C954 1.574 . S
C937 C956 1.368 . S
C937 H961 0.949 . S
H938 C942 0.949 . S
C939 C940 1.349 . S
C939 C941 1.327 . S
C939 H962 0.950 . S
C940 C939 1.349 . S
C940 C952 1.349 . S
C941 C939 1.327 . S
C941 C957 1.429 . S
C941 H963 0.950 . S
C942 H938 0.949 . S
C942 C950 1.574 . S
C942 C958 1.368 . S
H943 C951 0.950 . S
H944 C949 0.950 . S
H945 C950 0.949 . S
H946 C952 0.950 . S
H947 C953 0.950 . S
H948 C954 0.949 . S
C949 H944 0.950 . S
C949 C951 1.327 . S
C949 C955 1.429 . S
C950 C942 1.574 . S
C950 H945 0.949 . S
C950 C956 1.368 . S
C951 C935 1.349 . S
C951 H943 0.950 . S
C951 C949 1.327 . S
C952 C940 1.349 . S
C952 H946 0.950 . S
C952 C953 1.327 . S
C953 H947 0.950 . S
C953 C952 1.327 . S
C953 C957 1.429 . S
C954 C937 1.574 . S
C954 H948 0.949 . S
C954 C958 1.368 . S
C955 C936 1.429 . S
C955 C949 1.429 . S
C955 C956 1.523 . S
C956 C937 1.368 . S
C956 C950 1.368 . S
C956 C955 1.523 . S
C957 C941 1.429 . S
C957 C953 1.429 . S
C957 C958 1.523 . S
C958 C942 1.368 . S
C958 C954 1.368 . S
C958 C957 1.523 . S
H959 C934 0.950 . S
H960 C936 0.950 . S
H961 C937 0.949 . S
H962 C939 0.950 . S
H963 C941 0.950 . S
C964 C965 1.349 . S
C964 C966 1.327 . S
C964 H989 0.950 . S
C965 C964 1.349 . S
C965 C981 1.349 . S
C966 C964 1.327 . S
C966 C985 1.429 . S
C966 H990 0.950 . S
C967 C984 1.574 . S
C967 C986 1.368 . S
C967 H991 0.949 . S
H968 C972 0.949 . S
C969 C970 1.349 . S
C969 C971 1.327 . S
C969 H992 0.950 . S
C970 C969 1.349 . S
C970 C982 1.349 . S
C971 C969 1.327 . S
C971 C987 1.429 . S
C971 H993 0.950 . S
C972 H968 0.949 . S
C972 C980 1.574 . S
C972 C988 1.368 . S
H973 C981 0.950 . S
H974 C979 0.950 . S
H975 C980 0.949 . S
H976 C982 0.950 . S
H977 C983 0.950 . S
H978 C984 0.949 . S
C979 H974 0.950 . S
C979 C981 1.327 . S
C979 C985 1.429 . S
C980 C972 1.574 . S
C980 H975 0.949 . S
C980 C986 1.368 . S
C981 C965 1.349 . S
C981 H973 0.950 . S
C981 C979 1.327 . S
C982 C970 1.349 . S
C982 H976 0.950 . S
C982 C983 1.327 . S
C983 H977 0.950 . S
C983 C982 1.327 . S
C983 C987 1.429 . S
C984 C967 1.574 . S
C984 H978 0.949 . S
C984 C988 1.368 . S
C985 C966 1.429 . S
C985 C979 1.429 . S
C985 C986 1.523 . S
C986 C967 1.368 . S
C986 C980 1.368 . S
C986 C985 1.523 . S
C987 C971 1.429 . S
C987 C983 1.429 . S
C987 C988 1.523 . S
C988 C972 1.368 . S
C988 C984 1.368 . S
C988 C987 1.523 . S
H989 C964 0.950 . S
H990 C966 0.950 . S
H991 C967 0.949 . S
H992 C969 0.950 . S
H993 C971 0.950 . S
C994 C995 1.349 . S
C994 C996 1.327 . S
C994 H1019 0.950 . S
C995 C994 1.349 . S
C995 C1011 1.349 . S
C996 C994 1.327 . S
C996 C1015 1.429 . S
C996 H1020 0.950 . S
C997 C1014 1.574 . S
C997 C1016 1.368 . S
C997 H1021 0.949 . S
H998 C1002 0.949 . S
C999 C1000 1.349 . S
C999 C1001 1.327 1_565 S
C999 H1022 0.950 . S
C1000 C999 1.349 . S
C1000 C1012 1.349 . S
C1001 C999 1.327 1_545 S
C1001 C1017 1.429 . S
C1001 H1023 0.950 . S
C1002 H998 0.949 . S
C1002 C1010 1.574 . S
C1002 C1018 1.368 . S
H1003 C1011 0.950 . S
H1004 C1009 0.950 . S
H1005 C1010 0.949 . S
H1006 C1012 0.950 . S
H1007 C1013 0.950 . S
H1008 C1014 0.949 . S
C1009 H1004 0.950 . S
C1009 C1011 1.327 . S
C1009 C1015 1.429 . S
C1010 C1002 1.574 . S
C1010 H1005 0.949 . S
C1010 C1016 1.368 . S
C1011 C995 1.349 . S
C1011 H1003 0.950 . S
C1011 C1009 1.327 . S
C1012 C1000 1.349 . S
C1012 H1006 0.950 . S
C1012 C1013 1.327 . S
C1013 H1007 0.950 . S
C1013 C1012 1.327 . S
C1013 C1017 1.429 1_565 S
C1014 C997 1.574 . S
C1014 H1008 0.949 . S
C1014 C1018 1.368 . S
C1015 C996 1.429 . S
C1015 C1009 1.429 . S
C1015 C1016 1.523 . S
C1016 C997 1.368 . S
C1016 C1010 1.368 . S
C1016 C1015 1.523 . S
C1017 C1001 1.429 . S
C1017 C1013 1.429 1_545 S
C1017 C1018 1.523 . S
C1018 C1002 1.368 . S
C1018 C1014 1.368 . S
C1018 C1017 1.523 . S
H1019 C994 0.950 . S
H1020 C996 0.950 . S
H1021 C997 0.949 . S
H1022 C999 0.950 . S
H1023 C1001 0.950 . S
C1024 C1025 1.349 . S
C1024 C1026 1.327 . S
C1024 H1049 0.950 . S
C1025 C1024 1.349 . S
C1025 C1041 1.349 . S
C1026 C1024 1.327 . S
C1026 C1045 1.429 . S
C1026 H1050 0.950 . S
C1027 C1044 1.574 . S
C1027 C1046 1.368 . S
C1027 H1051 0.949 . S
H1028 C1032 0.949 . S
C1029 C1030 1.349 . S
C1029 C1031 1.327 . S
C1029 H1052 0.950 . S
C1030 C1029 1.349 . S
C1030 C1042 1.349 . S
C1031 C1029 1.327 . S
C1031 C1047 1.429 . S
C1031 H1053 0.950 . S
C1032 H1028 0.949 . S
C1032 C1040 1.574 . S
C1032 C1048 1.368 . S
H1033 C1041 0.950 . S
H1034 C1039 0.950 . S
H1035 C1040 0.949 . S
H1036 C1042 0.950 . S
H1037 C1043 0.950 . S
H1038 C1044 0.949 . S
C1039 H1034 0.950 . S
C1039 C1041 1.327 . S
C1039 C1045 1.429 . S
C1040 C1032 1.574 . S
C1040 H1035 0.949 . S
C1040 C1046 1.368 . S
C1041 C1025 1.349 . S
C1041 H1033 0.950 . S
C1041 C1039 1.327 . S
C1042 C1030 1.349 . S
C1042 H1036 0.950 . S
C1042 C1043 1.327 . S
C1043 H1037 0.950 . S
C1043 C1042 1.327 . S
C1043 C1047 1.429 . S
C1044 C1027 1.574 . S
C1044 H1038 0.949 . S
C1044 C1048 1.368 . S
C1045 C1026 1.429 . S
C1045 C1039 1.429 . S
C1045 C1046 1.523 . S
C1046 C1027 1.368 . S
C1046 C1040 1.368 . S
C1046 C1045 1.523 . S
C1047 C1031 1.429 . S
C1047 C1043 1.429 . S
C1047 C1048 1.523 . S
C1048 C1032 1.368 . S
C1048 C1044 1.368 . S
C1048 C1047 1.523 . S
H1049 C1024 0.950 . S
H1050 C1026 0.950 . S
H1051 C1027 0.949 . S
H1052 C1029 0.950 . S
H1053 C1031 0.950 . S
C1054 C1055 1.349 . S
C1054 C1056 1.327 . S
C1054 H1079 0.950 . S
C1055 C1054 1.349 . S
C1055 C1071 1.349 . S
C1056 C1054 1.327 . S
C1056 C1075 1.429 . S
C1056 H1080 0.950 . S
C1057 C1074 1.574 . S
C1057 C1076 1.368 . S
C1057 H1081 0.949 . S
H1058 C1062 0.949 . S
C1059 C1060 1.349 . S
C1059 C1061 1.327 . S
C1059 H1082 0.950 . S
C1060 C1059 1.349 . S
C1060 C1072 1.349 . S
C1061 C1059 1.327 . S
C1061 C1077 1.429 . S
C1061 H1083 0.950 . S
C1062 H1058 0.949 . S
C1062 C1070 1.574 . S
C1062 C1078 1.368 . S
H1063 C1071 0.950 . S
H1064 C1069 0.950 . S
H1065 C1070 0.949 . S
H1066 C1072 0.950 . S
H1067 C1073 0.950 . S
H1068 C1074 0.949 . S
C1069 H1064 0.950 . S
C1069 C1071 1.327 . S
C1069 C1075 1.429 . S
C1070 C1062 1.574 . S
C1070 H1065 0.949 . S
C1070 C1076 1.368 . S
C1071 C1055 1.349 . S
C1071 H1063 0.950 . S
C1071 C1069 1.327 . S
C1072 C1060 1.349 . S
C1072 H1066 0.950 . S
C1072 C1073 1.327 . S
C1073 H1067 0.950 . S
C1073 C1072 1.327 . S
C1073 C1077 1.429 . S
C1074 C1057 1.574 . S
C1074 H1068 0.949 . S
C1074 C1078 1.368 . S
C1075 C1056 1.429 . S
C1075 C1069 1.429 . S
C1075 C1076 1.523 . S
C1076 C1057 1.368 . S
C1076 C1070 1.368 . S
C1076 C1075 1.523 . S
C1077 C1061 1.429 . S
C1077 C1073 1.429 . S
C1077 C1078 1.523 . S
C1078 C1062 1.368 . S
C1078 C1074 1.368 . S
C1078 C1077 1.523 . S
H1079 C1054 0.950 . S
H1080 C1056 0.950 . S
H1081 C1057 0.949 . S
H1082 C1059 0.950 . S
H1083 C1061 0.950 . S
C1084 C1085 1.349 . S
C1084 C1086 1.327 . S
C1084 H1109 0.950 . S
C1085 C1084 1.349 . S
C1085 C1101 1.349 . S
C1086 C1084 1.327 . S
C1086 C1105 1.429 . S
C1086 H1110 0.950 . S
C1087 C1104 1.574 . S
C1087 C1106 1.368 . S
C1087 H1111 0.949 . S
H1088 C1092 0.949 . S
C1089 C1090 1.349 . S
C1089 C1091 1.327 . S
C1089 H1112 0.950 . S
C1090 C1089 1.349 . S
C1090 C1102 1.349 . S
C1091 C1089 1.327 . S
C1091 C1107 1.429 . S
C1091 H1113 0.950 . S
C1092 H1088 0.949 . S
C1092 C1100 1.574 . S
C1092 C1108 1.368 . S
H1093 C1101 0.950 . S
H1094 C1099 0.950 . S
H1095 C1100 0.949 . S
H1096 C1102 0.950 . S
H1097 C1103 0.950 . S
H1098 C1104 0.949 . S
C1099 H1094 0.950 . S
C1099 C1101 1.327 . S
C1099 C1105 1.429 . S
C1100 C1092 1.574 . S
C1100 H1095 0.949 . S
C1100 C1106 1.368 . S
C1101 C1085 1.349 . S
C1101 H1093 0.950 . S
C1101 C1099 1.327 . S
C1102 C1090 1.349 . S
C1102 H1096 0.950 . S
C1102 C1103 1.327 . S
C1103 H1097 0.950 . S
C1103 C1102 1.327 . S
C1103 C1107 1.429 . S
C1104 C1087 1.574 . S
C1104 H1098 0.949 . S
C1104 C1108 1.368 . S
C1105 C1086 1.429 . S
C1105 C1099 1.429 . S
C1105 C1106 1.523 . S
C1106 C1087 1.368 . S
C1106 C1100 1.368 . S
C1106 C1105 1.523 . S
C1107 C1091 1.429 . S
C1107 C1103 1.429 . S
C1107 C1108 1.523 . S
C1108 C1092 1.368 . S
C1108 C1104 1.368 . S
C1108 C1107 1.523 . S
H1109 C1084 0.950 . S
H1110 C1086 0.950 . S
H1111 C1087 0.949 . S
H1112 C1089 0.950 . S
H1113 C1091 0.950 . S
C1114 C1115 1.349 . S
C1114 C1116 1.327 . S
C1114 H1139 0.950 . S
C1115 C1114 1.349 . S
C1115 C1131 1.349 . S
C1116 C1114 1.327 . S
C1116 C1135 1.429 . S
C1116 H1140 0.950 . S
C1117 C1134 1.574 . S
C1117 C1136 1.368 . S
C1117 H1141 0.949 . S
H1118 C1122 0.949 . S
C1119 C1120 1.349 . S
C1119 C1121 1.327 1_565 S
C1119 H1142 0.950 . S
C1120 C1119 1.349 . S
C1120 C1132 1.349 . S
C1121 C1119 1.327 1_545 S
C1121 C1137 1.429 . S
C1121 H1143 0.950 . S
C1122 H1118 0.949 . S
C1122 C1130 1.574 . S
C1122 C1138 1.368 . S
H1123 C1131 0.950 . S
H1124 C1129 0.950 . S
H1125 C1130 0.949 . S
H1126 C1132 0.950 . S
H1127 C1133 0.950 . S
H1128 C1134 0.949 . S
C1129 H1124 0.950 . S
C1129 C1131 1.327 . S
C1129 C1135 1.429 . S
C1130 C1122 1.574 . S
C1130 H1125 0.949 . S
C1130 C1136 1.368 . S
C1131 C1115 1.349 . S
C1131 H1123 0.950 . S
C1131 C1129 1.327 . S
C1132 C1120 1.349 . S
C1132 H1126 0.950 . S
C1132 C1133 1.327 . S
C1133 H1127 0.950 . S
C1133 C1132 1.327 . S
C1133 C1137 1.429 1_565 S
C1134 C1117 1.574 . S
C1134 H1128 0.949 . S
C1134 C1138 1.368 . S
C1135 C1116 1.429 . S
C1135 C1129 1.429 . S
C1135 C1136 1.523 . S
C1136 C1117 1.368 . S
C1136 C1130 1.368 . S
C1136 C1135 1.523 . S
C1137 C1121 1.429 . S
C1137 C1133 1.429 1_545 S
C1137 C1138 1.523 . S
C1138 C1122 1.368 . S
C1138 C1134 1.368 . S
C1138 C1137 1.523 . S
H1139 C1114 0.950 . S
H1140 C1116 0.950 . S
H1141 C1117 0.949 . S
H1142 C1119 0.950 . S
H1143 C1121 0.950 . S
C1144 C1145 1.349 . S
C1144 C1146 1.327 . S
C1144 H1169 0.950 . S
C1145 C1144 1.349 . S
C1145 C1161 1.349 . S
C1146 C1144 1.327 . S
C1146 C1165 1.429 . S
C1146 H1170 0.950 . S
C1147 C1164 1.574 . S
C1147 C1166 1.368 . S
C1147 H1171 0.949 . S
H1148 C1152 0.949 . S
C1149 C1150 1.349 . S
C1149 C1151 1.327 . S
C1149 H1172 0.950 . S
C1150 C1149 1.349 . S
C1150 C1162 1.349 . S
C1151 C1149 1.327 . S
C1151 C1167 1.429 . S
C1151 H1173 0.950 . S
C1152 H1148 0.949 . S
C1152 C1160 1.574 . S
C1152 C1168 1.368 . S
H1153 C1161 0.950 . S
H1154 C1159 0.950 . S
H1155 C1160 0.949 . S
H1156 C1162 0.950 . S
H1157 C1163 0.950 . S
H1158 C1164 0.949 . S
C1159 H1154 0.950 . S
C1159 C1161 1.327 . S
C1159 C1165 1.429 . S
C1160 C1152 1.574 . S
C1160 H1155 0.949 . S
C1160 C1166 1.368 . S
C1161 C1145 1.349 . S
C1161 H1153 0.950 . S
C1161 C1159 1.327 . S
C1162 C1150 1.349 . S
C1162 H1156 0.950 . S
C1162 C1163 1.327 . S
C1163 H1157 0.950 . S
C1163 C1162 1.327 . S
C1163 C1167 1.429 . S
C1164 C1147 1.574 . S
C1164 H1158 0.949 . S
C1164 C1168 1.368 . S
C1165 C1146 1.429 . S
C1165 C1159 1.429 . S
C1165 C1166 1.523 . S
C1166 C1147 1.368 . S
C1166 C1160 1.368 . S
C1166 C1165 1.523 . S
C1167 C1151 1.429 . S
C1167 C1163 1.429 . S
C1167 C1168 1.523 . S
C1168 C1152 1.368 . S
C1168 C1164 1.368 . S
C1168 C1167 1.523 . S
H1169 C1144 0.950 . S
H1170 C1146 0.950 . S
H1171 C1147 0.949 . S
H1172 C1149 0.950 . S
H1173 C1151 0.950 . S
C1174 C1175 1.349 . S
C1174 C1176 1.327 . S
C1174 H1199 0.950 . S
C1175 C1174 1.349 . S
C1175 C1191 1.349 . S
C1176 C1174 1.327 . S
C1176 C1195 1.429 . S
C1176 H1200 0.950 . S
C1177 C1194 1.574 . S
C1177 C1196 1.368 . S
C1177 H1201 0.949 . S
H1178 C1182 0.949 . S
C1179 C1180 1.349 . S
C1179 C1181 1.327 . S
C1179 H1202 0.950 . S
C1180 C1179 1.349 . S
C1180 C1192 1.349 . S
C1181 C1179 1.327 . S
C1181 C1197 1.429 . S
C1181 H1203 0.950 . S
C1182 H1178 0.949 . S
C1182 C1190 1.574 . S
C1182 C1198 1.368 . S
H1183 C1191 0.950 . S
H1184 C1189 0.950 . S
H1185 C1190 0.949 . S
H1186 C1192 0.950 . S
H1187 C1193 0.950 . S
H1188 C1194 0.949 . S
C1189 H1184 0.950 . S
C1189 C1191 1.327 . S
C1189 C1195 1.429 . S
C1190 C1182 1.574 . S
C1190 H1185 0.949 . S
C1190 C1196 1.368 . S
C1191 C1175 1.349 . S
C1191 H1183 0.950 . S
C1191 C1189 1.327 . S
C1192 C1180 1.349 . S
C1192 H1186 0.950 . S
C1192 C1193 1.327 . S
C1193 H1187 0.950 . S
C1193 C1192 1.327 . S
C1193 C1197 1.429 . S
C1194 C1177 1.574 . S
C1194 H1188 0.949 . S
C1194 C1198 1.368 . S
C1195 C1176 1.429 . S
C1195 C1189 1.429 . S
C1195 C1196 1.523 . S
C1196 C1177 1.368 . S
C1196 C1190 1.368 . S
C1196 C1195 1.523 . S
C1197 C1181 1.429 . S
C1197 C1193 1.429 . S
C1197 C1198 1.523 . S
C1198 C1182 1.368 . S
C1198 C1194 1.368 . S
C1198 C1197 1.523 . S
H1199 C1174 0.950 . S
H1200 C1176 0.950 . S
H1201 C1177 0.949 . S
H1202 C1179 0.950 . S
H1203 C1181 0.950 . S
C1204 C1205 1.349 . S
C1204 C1206 1.327 . S
C1204 H1229 0.950 . S
C1205 C1204 1.349 . S
C1205 C1221 1.349 . S
C1206 C1204 1.327 . S
C1206 C1225 1.429 . S
C1206 H1230 0.950 . S
C1207 C1224 1.574 1_554 S
C1207 C1226 1.368 . S
C1207 H1231 0.949 . S
H1208 C1212 0.949 . S
C1209 C1210 1.349 . S
C1209 C1211 1.327 . S
C1209 H1232 0.950 . S
C1210 C1209 1.349 . S
C1210 C1222 1.349 1_556 S
C1211 C1209 1.327 . S
C1211 C1227 1.426 1_556 S
C1211 H1233 0.950 . S
C1212 H1208 0.949 . S
C1212 C1220 1.574 . S
C1212 C1228 1.368 . S
H1213 C1221 0.950 . S
H1214 C1219 0.950 . S
H1215 C1220 0.949 . S
H1216 C1222 0.950 . S
H1217 C1223 0.950 . S
H1218 C1224 0.949 . S
C1219 H1214 0.950 . S
C1219 C1221 1.327 . S
C1219 C1225 1.429 . S
C1220 C1212 1.574 . S
C1220 H1215 0.949 . S
C1220 C1226 1.368 . S
C1221 C1205 1.349 . S
C1221 H1213 0.950 . S
C1221 C1219 1.327 . S
C1222 C1210 1.349 1_554 S
C1222 H1216 0.950 . S
C1222 C1223 1.327 . S
C1223 H1217 0.950 . S
C1223 C1222 1.327 . S
C1223 C1227 1.430 . S
C1224 C1207 1.574 1_556 S
C1224 H1218 0.949 . S
C1224 C1228 1.368 1_556 S
C1225 C1206 1.429 . S
C1225 C1219 1.429 . S
C1225 C1226 1.523 . S
C1226 C1207 1.368 . S
C1226 C1220 1.368 . S
C1226 C1225 1.523 . S
C1227 C1211 1.426 1_554 S
C1227 C1223 1.430 . S
C1227 C1228 1.524 . S
C1228 C1212 1.368 . S
C1228 C1224 1.368 1_554 S
C1228 C1227 1.524 . S
H1229 C1204 0.950 . S
H1230 C1206 0.950 . S
H1231 C1207 0.949 . S
H1232 C1209 0.950 . S
H1233 C1211 0.950 . S
C1234 C1235 1.349 . S
C1234 C1236 1.327 . S
C1234 H1259 0.950 . S
C1235 C1234 1.349 . S
C1235 C1251 1.349 . S
C1236 C1234 1.327 . S
C1236 C1255 1.429 . S
C1236 H1260 0.950 . S
C1237 C1254 1.574 . S
C1237 C1256 1.368 . S
C1237 H1261 0.949 . S
H1238 C1242 0.949 . S
C1239 C1240 1.349 . S
C1239 C1241 1.327 . S
C1239 H1262 0.950 . S
C1240 C1239 1.349 . S
C1240 C1252 1.349 . S
C1241 C1239 1.327 . S
C1241 C1257 1.429 . S
C1241 H1263 0.950 . S
C1242 H1238 0.949 . S
C1242 C1250 1.574 . S
C1242 C1258 1.368 . S
H1243 C1251 0.950 . S
H1244 C1249 0.950 . S
H1245 C1250 0.949 . S
H1246 C1252 0.950 . S
H1247 C1253 0.950 . S
H1248 C1254 0.949 . S
C1249 H1244 0.950 . S
C1249 C1251 1.327 . S
C1249 C1255 1.429 . S
C1250 C1242 1.574 . S
C1250 H1245 0.949 . S
C1250 C1256 1.368 . S
C1251 C1235 1.349 . S
C1251 H1243 0.950 . S
C1251 C1249 1.327 . S
C1252 C1240 1.349 . S
C1252 H1246 0.950 . S
C1252 C1253 1.327 . S
C1253 H1247 0.950 . S
C1253 C1252 1.327 . S
C1253 C1257 1.429 . S
C1254 C1237 1.574 . S
C1254 H1248 0.949 . S
C1254 C1258 1.368 . S
C1255 C1236 1.429 . S
C1255 C1249 1.429 . S
C1255 C1256 1.523 . S
C1256 C1237 1.368 . S
C1256 C1250 1.368 . S
C1256 C1255 1.523 . S
C1257 C1241 1.429 . S
C1257 C1253 1.429 . S
C1257 C1258 1.523 . S
C1258 C1242 1.368 . S
C1258 C1254 1.368 . S
C1258 C1257 1.523 . S
H1259 C1234 0.950 . S
H1260 C1236 0.950 . S
H1261 C1237 0.949 . S
H1262 C1239 0.950 . S
H1263 C1241 0.950 . S
C1264 C1265 1.349 . S
C1264 C1266 1.327 . S
C1264 H1289 0.950 . S
C1265 C1264 1.349 . S
C1265 C1281 1.349 . S
C1266 C1264 1.327 . S
C1266 C1285 1.429 . S
C1266 H1290 0.950 . S
C1267 C1284 1.574 . S
C1267 C1286 1.368 . S
C1267 H1291 0.949 . S
H1268 C1272 0.949 . S
C1269 C1270 1.349 . S
C1269 C1271 1.327 . S
C1269 H1292 0.950 . S
C1270 C1269 1.349 . S
C1270 C1282 1.349 . S
C1271 C1269 1.327 . S
C1271 C1287 1.429 . S
C1271 H1293 0.950 . S
C1272 H1268 0.949 . S
C1272 C1280 1.574 . S
C1272 C1288 1.368 . S
H1273 C1281 0.950 . S
H1274 C1279 0.950 . S
H1275 C1280 0.949 . S
H1276 C1282 0.950 . S
H1277 C1283 0.950 . S
H1278 C1284 0.949 . S
C1279 H1274 0.950 . S
C1279 C1281 1.327 . S
C1279 C1285 1.429 . S
C1280 C1272 1.574 . S
C1280 H1275 0.949 . S
C1280 C1286 1.368 . S
C1281 C1265 1.349 . S
C1281 H1273 0.950 . S
C1281 C1279 1.327 . S
C1282 C1270 1.349 . S
C1282 H1276 0.950 . S
C1282 C1283 1.327 . S
C1283 H1277 0.950 . S
C1283 C1282 1.327 . S
C1283 C1287 1.429 . S
C1284 C1267 1.574 . S
C1284 H1278 0.949 . S
C1284 C1288 1.368 . S
C1285 C1266 1.429 . S
C1285 C1279 1.429 . S
C1285 C1286 1.523 . S
C1286 C1267 1.368 . S
C1286 C1280 1.368 . S
C1286 C1285 1.523 . S
C1287 C1271 1.429 . S
C1287 C1283 1.429 . S
C1287 C1288 1.523 . S
C1288 C1272 1.368 . S
C1288 C1284 1.368 . S
C1288 C1287 1.523 . S
H1289 C1264 0.950 . S
H1290 C1266 0.950 . S
H1291 C1267 0.949 . S
H1292 C1269 0.950 . S
H1293 C1271 0.950 . S
C1294 C1295 1.349 . S
C1294 C1296 1.327 . S
C1294 H1319 0.950 . S
C1295 C1294 1.349 . S
C1295 C1311 1.349 . S
C1296 C1294 1.327 . S
C1296 C1315 1.429 . S
C1296 H1320 0.950 . S
C1297 C1314 1.574 . S
C1297 C1316 1.368 . S
C1297 H1321 0.949 . S
H1298 C1302 0.949 . S
C1299 C1300 1.349 . S
C1299 C1301 1.327 . S
C1299 H1322 0.950 . S
C1300 C1299 1.349 . S
C1300 C1312 1.349 . S
C1301 C1299 1.327 . S
C1301 C1317 1.429 . S
C1301 H1323 0.950 . S
C1302 H1298 0.949 . S
C1302 C1310 1.574 . S
C1302 C1318 1.368 . S
H1303 C1311 0.950 . S
H1304 C1309 0.950 . S
H1305 C1310 0.949 . S
H1306 C1312 0.950 . S
H1307 C1313 0.950 . S
H1308 C1314 0.949 . S
C1309 H1304 0.950 . S
C1309 C1311 1.327 . S
C1309 C1315 1.429 . S
C1310 C1302 1.574 . S
C1310 H1305 0.949 . S
C1310 C1316 1.368 . S
C1311 C1295 1.349 . S
C1311 H1303 0.950 . S
C1311 C1309 1.327 . S
C1312 C1300 1.349 . S
C1312 H1306 0.950 . S
C1312 C1313 1.327 . S
C1313 H1307 0.950 . S
C1313 C1312 1.327 . S
C1313 C1317 1.429 . S
C1314 C1297 1.574 . S
C1314 H1308 0.949 . S
C1314 C1318 1.368 . S
C1315 C1296 1.429 . S
C1315 C1309 1.429 . S
C1315 C1316 1.523 . S
C1316 C1297 1.368 . S
C1316 C1310 1.368 . S
C1316 C1315 1.523 . S
C1317 C1301 1.429 . S
C1317 C1313 1.429 . S
C1317 C1318 1.523 . S
C1318 C1302 1.368 . S
C1318 C1314 1.368 . S
C1318 C1317 1.523 . S
H1319 C1294 0.950 . S
H1320 C1296 0.950 . S
H1321 C1297 0.949 . S
H1322 C1299 0.950 . S
H1323 C1301 0.950 . S
C1324 C1325 1.349 . S
C1324 C1326 1.327 . S
C1324 H1349 0.950 . S
C1325 C1324 1.349 . S
C1325 C1341 1.349 . S
C1326 C1324 1.327 . S
C1326 C1345 1.429 . S
C1326 H1350 0.950 . S
C1327 C1344 1.574 . S
C1327 C1346 1.368 . S
C1327 H1351 0.949 . S
H1328 C1332 0.949 . S
C1329 C1330 1.349 . S
C1329 C1331 1.327 1_455 S
C1329 H1352 0.950 . S
C1330 C1329 1.349 . S
C1330 C1342 1.349 . S
C1331 C1329 1.327 1_655 S
C1331 C1347 1.429 . S
C1331 H1353 0.950 . S
C1332 H1328 0.949 . S
C1332 C1340 1.574 . S
C1332 C1348 1.368 . S
H1333 C1341 0.950 . S
H1334 C1339 0.950 . S
H1335 C1340 0.949 . S
H1336 C1342 0.950 . S
H1337 C1343 0.950 . S
H1338 C1344 0.949 . S
C1339 H1334 0.950 . S
C1339 C1341 1.327 . S
C1339 C1345 1.429 . S
C1340 C1332 1.574 . S
C1340 H1335 0.949 . S
C1340 C1346 1.368 . S
C1341 C1325 1.349 . S
C1341 H1333 0.950 . S
C1341 C1339 1.327 . S
C1342 C1330 1.349 . S
C1342 H1336 0.950 . S
C1342 C1343 1.327 . S
C1343 H1337 0.950 . S
C1343 C1342 1.327 . S
C1343 C1347 1.429 1_455 S
C1344 C1327 1.574 . S
C1344 H1338 0.949 . S
C1344 C1348 1.368 . S
C1345 C1326 1.429 . S
C1345 C1339 1.429 . S
C1345 C1346 1.523 . S
C1346 C1327 1.368 . S
C1346 C1340 1.368 . S
C1346 C1345 1.523 . S
C1347 C1331 1.429 . S
C1347 C1343 1.429 1_655 S
C1347 C1348 1.523 . S
C1348 C1332 1.368 . S
C1348 C1344 1.368 . S
C1348 C1347 1.523 . S
H1349 C1324 0.950 . S
H1350 C1326 0.950 . S
H1351 C1327 0.949 . S
H1352 C1329 0.950 . S
H1353 C1331 0.950 . S
C1354 C1355 1.349 . S
C1354 C1356 1.327 . S
C1354 H1379 0.950 . S
C1355 C1354 1.349 . S
C1355 C1371 1.349 . S
C1356 C1354 1.327 . S
C1356 C1375 1.429 . S
C1356 H1380 0.950 . S
C1357 C1374 1.574 . S
C1357 C1376 1.368 . S
C1357 H1381 0.949 . S
H1358 C1362 0.949 . S
C1359 C1360 1.349 . S
C1359 C1361 1.327 . S
C1359 H1382 0.950 . S
C1360 C1359 1.349 . S
C1360 C1372 1.349 . S
C1361 C1359 1.327 . S
C1361 C1377 1.429 . S
C1361 H1383 0.950 . S
C1362 H1358 0.949 . S
C1362 C1370 1.574 . S
C1362 C1378 1.368 . S
H1363 C1371 0.950 . S
H1364 C1369 0.950 . S
H1365 C1370 0.949 . S
H1366 C1372 0.950 . S
H1367 C1373 0.950 . S
H1368 C1374 0.949 . S
C1369 H1364 0.950 . S
C1369 C1371 1.327 . S
C1369 C1375 1.429 . S
C1370 C1362 1.574 . S
C1370 H1365 0.949 . S
C1370 C1376 1.368 . S
C1371 C1355 1.349 . S
C1371 H1363 0.950 . S
C1371 C1369 1.327 . S
C1372 C1360 1.349 . S
C1372 H1366 0.950 . S
C1372 C1373 1.327 . S
C1373 H1367 0.950 . S
C1373 C1372 1.327 . S
C1373 C1377 1.429 . S
C1374 C1357 1.574 . S
C1374 H1368 0.949 . S
C1374 C1378 1.368 . S
C1375 C1356 1.429 . S
C1375 C1369 1.429 . S
C1375 C1376 1.523 . S
C1376 C1357 1.368 . S
C1376 C1370 1.368 . S
C1376 C1375 1.523 . S
C1377 C1361 1.429 . S
C1377 C1373 1.429 . S
C1377 C1378 1.523 . S
C1378 C1362 1.368 . S
C1378 C1374 1.368 . S
C1378 C1377 1.523 . S
H1379 C1354 0.950 . S
H1380 C1356 0.950 . S
H1381 C1357 0.949 . S
H1382 C1359 0.950 . S
H1383 C1361 0.950 . S
C1384 C1385 1.349 . S
C1384 C1386 1.327 . S
C1384 H1409 0.950 . S
C1385 C1384 1.349 . S
C1385 C1401 1.349 . S
C1386 C1384 1.327 . S
C1386 C1405 1.429 . S
C1386 H1410 0.950 . S
C1387 C1404 1.574 . S
C1387 C1406 1.368 . S
C1387 H1411 0.949 . S
H1388 C1392 0.949 . S
C1389 C1390 1.349 . S
C1389 C1391 1.327 . S
C1389 H1412 0.950 . S
C1390 C1389 1.349 . S
C1390 C1402 1.349 . S
C1391 C1389 1.327 . S
C1391 C1407 1.429 . S
C1391 H1413 0.950 . S
C1392 H1388 0.949 . S
C1392 C1400 1.574 . S
C1392 C1408 1.368 . S
H1393 C1401 0.950 . S
H1394 C1399 0.950 . S
H1395 C1400 0.949 . S
H1396 C1402 0.950 . S
H1397 C1403 0.950 . S
H1398 C1404 0.949 . S
C1399 H1394 0.950 . S
C1399 C1401 1.327 . S
C1399 C1405 1.429 . S
C1400 C1392 1.574 . S
C1400 H1395 0.949 . S
C1400 C1406 1.368 . S
C1401 C1385 1.349 . S
C1401 H1393 0.950 . S
C1401 C1399 1.327 . S
C1402 C1390 1.349 . S
C1402 H1396 0.950 . S
C1402 C1403 1.327 . S
C1403 H1397 0.950 . S
C1403 C1402 1.327 . S
C1403 C1407 1.429 . S
C1404 C1387 1.574 . S
C1404 H1398 0.949 . S
C1404 C1408 1.368 . S
C1405 C1386 1.429 . S
C1405 C1399 1.429 . S
C1405 C1406 1.523 . S
C1406 C1387 1.368 . S
C1406 C1400 1.368 . S
C1406 C1405 1.523 . S
C1407 C1391 1.429 . S
C1407 C1403 1.429 . S
C1407 C1408 1.523 . S
C1408 C1392 1.368 . S
C1408 C1404 1.368 . S
C1408 C1407 1.523 . S
H1409 C1384 0.950 . S
H1410 C1386 0.950 . S
H1411 C1387 0.949 . S
H1412 C1389 0.950 . S
H1413 C1391 0.950 . S
C1414 C1415 1.349 . S
C1414 C1416 1.327 . S
C1414 H1439 0.950 . S
C1415 C1414 1.349 . S
C1415 C1431 1.349 . S
C1416 C1414 1.327 . S
C1416 C1435 1.429 . S
C1416 H1440 0.950 . S
C1417 C1434 1.574 . S
C1417 C1436 1.368 . S
C1417 H1441 0.949 . S
H1418 C1422 0.949 . S
C1419 C1420 1.349 . S
C1419 C1421 1.327 . S
C1419 H1442 0.950 . S
C1420 C1419 1.349 . S
C1420 C1432 1.349 . S
C1421 C1419 1.327 . S
C1421 C1437 1.429 . S
C1421 H1443 0.950 . S
C1422 H1418 0.949 . S
C1422 C1430 1.574 . S
C1422 C1438 1.368 . S
H1423 C1431 0.950 . S
H1424 C1429 0.950 . S
H1425 C1430 0.949 . S
H1426 C1432 0.950 . S
H1427 C1433 0.950 . S
H1428 C1434 0.949 . S
C1429 H1424 0.950 . S
C1429 C1431 1.327 . S
C1429 C1435 1.429 . S
C1430 C1422 1.574 . S
C1430 H1425 0.949 . S
C1430 C1436 1.368 . S
C1431 C1415 1.349 . S
C1431 H1423 0.950 . S
C1431 C1429 1.327 . S
C1432 C1420 1.349 . S
C1432 H1426 0.950 . S
C1432 C1433 1.327 . S
C1433 H1427 0.950 . S
C1433 C1432 1.327 . S
C1433 C1437 1.429 . S
C1434 C1417 1.574 . S
C1434 H1428 0.949 . S
C1434 C1438 1.368 . S
C1435 C1416 1.429 . S
C1435 C1429 1.429 . S
C1435 C1436 1.523 . S
C1436 C1417 1.368 . S
C1436 C1430 1.368 . S
C1436 C1435 1.523 . S
C1437 C1421 1.429 . S
C1437 C1433 1.429 . S
C1437 C1438 1.523 . S
C1438 C1422 1.368 . S
C1438 C1434 1.368 . S
C1438 C1437 1.523 . S
H1439 C1414 0.950 . S
H1440 C1416 0.950 . S
H1441 C1417 0.949 . S
H1442 C1419 0.950 . S
H1443 C1421 0.950 . S
C1444 C1445 1.349 . S
C1444 C1446 1.327 . S
C1444 H1469 0.950 . S
C1445 C1444 1.349 . S
C1445 C1461 1.349 . S
C1446 C1444 1.327 . S
C1446 C1465 1.429 . S
C1446 H1470 0.950 . S
C1447 C1464 1.574 . S
C1447 C1466 1.368 . S
C1447 H1471 0.949 . S
H1448 C1452 0.949 . S
C1449 C1450 1.349 . S
C1449 C1451 1.327 . S
C1449 H1472 0.950 . S
C1450 C1449 1.349 . S
C1450 C1462 1.349 . S
C1451 C1449 1.327 . S
C1451 C1467 1.429 . S
C1451 H1473 0.950 . S
C1452 H1448 0.949 . S
C1452 C1460 1.574 . S
C1452 C1468 1.368 . S
H1453 C1461 0.950 . S
H1454 C1459 0.950 . S
H1455 C1460 0.949 . S
H1456 C1462 0.950 . S
H1457 C1463 0.950 . S
H1458 C1464 0.949 . S
C1459 H1454 0.950 . S
C1459 C1461 1.327 . S
C1459 C1465 1.429 . S
C1460 C1452 1.574 . S
C1460 H1455 0.949 . S
C1460 C1466 1.368 . S
C1461 C1445 1.349 . S
C1461 H1453 0.950 . S
C1461 C1459 1.327 . S
C1462 C1450 1.349 . S
C1462 H1456 0.950 . S
C1462 C1463 1.327 . S
C1463 H1457 0.950 . S
C1463 C1462 1.327 . S
C1463 C1467 1.429 . S
C1464 C1447 1.574 . S
C1464 H1458 0.949 . S
C1464 C1468 1.368 . S
C1465 C1446 1.429 . S
C1465 C1459 1.429 . S
C1465 C1466 1.523 . S
C1466 C1447 1.368 . S
C1466 C1460 1.368 . S
C1466 C1465 1.523 . S
C1467 C1451 1.429 . S
C1467 C1463 1.429 . S
C1467 C1468 1.523 . S
C1468 C1452 1.368 . S
C1468 C1464 1.368 . S
C1468 C1467 1.523 . S
H1469 C1444 0.950 . S
H1470 C1446 0.950 . S
H1471 C1447 0.949 . S
H1472 C1449 0.950 . S
H1473 C1451 0.950 . S
C1474 C1475 1.349 . S
C1474 C1476 1.327 . S
C1474 H1499 0.950 . S
C1475 C1474 1.349 . S
C1475 C1491 1.349 . S
C1476 C1474 1.327 . S
C1476 C1495 1.429 . S
C1476 H1500 0.950 . S
C1477 C1494 1.574 . S
C1477 C1496 1.368 . S
C1477 H1501 0.949 . S
H1478 C1482 0.949 . S
C1479 C1480 1.349 . S
C1479 C1481 1.327 . S
C1479 H1502 0.950 . S
C1480 C1479 1.349 . S
C1480 C1492 1.349 . S
C1481 C1479 1.327 . S
C1481 C1497 1.429 . S
C1481 H1503 0.950 . S
C1482 H1478 0.949 . S
C1482 C1490 1.574 . S
C1482 C1498 1.368 . S
H1483 C1491 0.950 . S
H1484 C1489 0.950 . S
H1485 C1490 0.949 . S
H1486 C1492 0.950 . S
H1487 C1493 0.950 1_554 S
H1488 C1494 0.949 . S
C1489 H1484 0.950 . S
C1489 C1491 1.327 . S
C1489 C1495 1.429 . S
C1490 C1482 1.574 . S
C1490 H1485 0.949 . S
C1490 C1496 1.368 . S
C1491 C1475 1.349 . S
C1491 H1483 0.950 . S
C1491 C1489 1.327 . S
C1492 C1480 1.349 . S
C1492 H1486 0.950 . S
C1492 C1493 1.327 . S
C1493 H1487 0.950 1_556 S
C1493 C1492 1.327 . S
C1493 C1497 1.429 . S
C1494 C1477 1.574 . S
C1494 H1488 0.949 . S
C1494 C1498 1.368 . S
C1495 C1476 1.429 . S
C1495 C1489 1.429 . S
C1495 C1496 1.523 . S
C1496 C1477 1.368 . S
C1496 C1490 1.368 . S
C1496 C1495 1.523 . S
C1497 C1481 1.429 . S
C1497 C1493 1.429 . S
C1497 C1498 1.523 1_556 S
C1498 C1482 1.368 . S
C1498 C1494 1.368 . S
C1498 C1497 1.523 1_554 S
H1499 C1474 0.950 . S
H1500 C1476 0.950 . S
H1501 C1477 0.949 . S
H1502 C1479 0.950 . S
H1503 C1481 0.950 . S
C1504 C1505 1.349 . S
C1504 C1506 1.327 . S
C1504 H1529 0.950 . S
C1505 C1504 1.349 . S
C1505 C1521 1.349 . S
C1506 C1504 1.327 . S
C1506 C1525 1.429 . S
C1506 H1530 0.950 . S
C1507 C1524 1.574 . S
C1507 C1526 1.368 . S
C1507 H1531 0.949 . S
H1508 C1512 0.949 . S
C1509 C1510 1.349 . S
C1509 C1511 1.327 . S
C1509 H1532 0.950 . S
C1510 C1509 1.349 . S
C1510 C1522 1.349 . S
C1511 C1509 1.327 . S
C1511 C1527 1.429 . S
C1511 H1533 0.950 . S
C1512 H1508 0.949 . S
C1512 C1520 1.574 . S
C1512 C1528 1.368 . S
H1513 C1521 0.950 . S
H1514 C1519 0.950 . S
H1515 C1520 0.949 . S
H1516 C1522 0.950 . S
H1517 C1523 0.950 . S
H1518 C1524 0.949 . S
C1519 H1514 0.950 . S
C1519 C1521 1.327 . S
C1519 C1525 1.429 . S
C1520 C1512 1.574 . S
C1520 H1515 0.949 . S
C1520 C1526 1.368 . S
C1521 C1505 1.349 . S
C1521 H1513 0.950 . S
C1521 C1519 1.327 . S
C1522 C1510 1.349 . S
C1522 H1516 0.950 . S
C1522 C1523 1.327 . S
C1523 H1517 0.950 . S
C1523 C1522 1.327 . S
C1523 C1527 1.429 . S
C1524 C1507 1.574 . S
C1524 H1518 0.949 . S
C1524 C1528 1.368 . S
C1525 C1506 1.429 . S
C1525 C1519 1.429 . S
C1525 C1526 1.523 . S
C1526 C1507 1.368 . S
C1526 C1520 1.368 . S
C1526 C1525 1.523 . S
C1527 C1511 1.429 . S
C1527 C1523 1.429 . S
C1527 C1528 1.523 . S
C1528 C1512 1.368 . S
C1528 C1524 1.368 . S
C1528 C1527 1.523 . S
H1529 C1504 0.950 . S
H1530 C1506 0.950 . S
H1531 C1507 0.949 . S
H1532 C1509 0.950 . S
H1533 C1511 0.950 . S
C1534 C1535 1.349 . S
C1534 C1536 1.327 . S
C1534 H1559 0.950 . S
C1535 C1534 1.349 . S
C1535 C1551 1.349 . S
C1536 C1534 1.327 . S
C1536 C1555 1.429 . S
C1536 H1560 0.950 . S
C1537 C1554 1.574 . S
C1537 C1556 1.368 . S
C1537 H1561 0.949 . S
H1538 C1542 0.949 . S
C1539 C1540 1.349 . S
C1539 C1541 1.304 1_556 S
C1539 H1562 0.950 . S
C1540 C1539 1.349 . S
C1540 C1552 1.349 . S
C1541 C1539 1.304 1_554 S
C1541 C1557 1.443 . S
C1541 H1563 0.959 . S
C1542 H1538 0.949 . S
C1542 C1550 1.574 . S
C1542 C1558 1.368 . S
H1543 C1551 0.950 . S
H1544 C1549 0.950 . S
H1545 C1550 0.949 . S
H1546 C1552 0.950 . S
H1547 C1553 0.950 . S
H1548 C1554 0.949 . S
C1549 H1544 0.950 . S
C1549 C1551 1.327 . S
C1549 C1555 1.429 . S
C1550 C1542 1.574 . S
C1550 H1545 0.949 . S
C1550 C1556 1.368 . S
C1551 C1535 1.349 . S
C1551 H1543 0.950 . S
C1551 C1549 1.327 . S
C1552 C1540 1.349 . S
C1552 H1546 0.950 . S
C1552 C1553 1.327 1_556 S
C1553 H1547 0.950 . S
C1553 C1552 1.327 1_554 S
C1553 C1557 1.429 . S
C1554 C1537 1.574 . S
C1554 H1548 0.949 . S
C1554 C1558 1.368 . S
C1555 C1536 1.429 . S
C1555 C1549 1.429 . S
C1555 C1556 1.523 . S
C1556 C1537 1.368 . S
C1556 C1550 1.368 . S
C1556 C1555 1.523 . S
C1557 C1541 1.443 . S
C1557 C1553 1.429 . S
C1557 C1558 1.523 . S
C1558 C1542 1.368 . S
C1558 C1554 1.368 . S
C1558 C1557 1.523 . S
H1559 C1534 0.950 . S
H1560 C1536 0.950 . S
H1561 C1537 0.949 . S
H1562 C1539 0.950 . S
H1563 C1541 0.959 . S
C1564 C1565 1.349 . S
C1564 C1566 1.327 . S
C1564 H1589 0.950 . S
C1565 C1564 1.349 . S
C1565 C1581 1.349 . S
C1566 C1564 1.327 . S
C1566 C1585 1.429 . S
C1566 H1590 0.950 . S
C1567 C1584 1.574 . S
C1567 C1586 1.368 . S
C1567 H1591 0.949 . S
H1568 C1572 0.949 . S
C1569 C1570 1.349 . S
C1569 C1571 1.327 . S
C1569 H1592 0.950 . S
C1570 C1569 1.349 . S
C1570 C1582 1.349 . S
C1571 C1569 1.327 . S
C1571 C1587 1.429 . S
C1571 H1593 0.950 . S
C1572 H1568 0.949 . S
C1572 C1580 1.574 . S
C1572 C1588 1.368 . S
H1573 C1581 0.950 . S
H1574 C1579 0.950 . S
H1575 C1580 0.949 . S
H1576 C1582 0.950 . S
H1577 C1583 0.950 . S
H1578 C1584 0.949 . S
C1579 H1574 0.950 . S
C1579 C1581 1.327 . S
C1579 C1585 1.429 . S
C1580 C1572 1.574 . S
C1580 H1575 0.949 . S
C1580 C1586 1.368 . S
C1581 C1565 1.349 . S
C1581 H1573 0.950 . S
C1581 C1579 1.327 . S
C1582 C1570 1.349 . S
C1582 H1576 0.950 . S
C1582 C1583 1.327 . S
C1583 H1577 0.950 . S
C1583 C1582 1.327 . S
C1583 C1587 1.429 . S
C1584 C1567 1.574 . S
C1584 H1578 0.949 . S
C1584 C1588 1.368 . S
C1585 C1566 1.429 . S
C1585 C1579 1.429 . S
C1585 C1586 1.523 . S
C1586 C1567 1.368 . S
C1586 C1580 1.368 . S
C1586 C1585 1.523 . S
C1587 C1571 1.429 . S
C1587 C1583 1.429 . S
C1587 C1588 1.523 . S
C1588 C1572 1.368 . S
C1588 C1584 1.368 . S
C1588 C1587 1.523 . S
H1589 C1564 0.950 . S
H1590 C1566 0.950 . S
H1591 C1567 0.949 . S
H1592 C1569 0.950 . S
H1593 C1571 0.950 . S
C1594 C1595 1.349 . S
C1594 C1596 1.327 . S
C1594 H1619 0.950 . S
C1595 C1594 1.349 . S
C1595 C1611 1.349 . S
C1596 C1594 1.327 . S
C1596 C1615 1.429 . S
C1596 H1620 0.950 . S
C1597 C1614 1.574 . S
C1597 C1616 1.368 . S
C1597 H1621 0.949 . S
H1598 C1602 0.949 . S
C1599 C1600 1.349 . S
C1599 C1601 1.327 . S
C1599 H1622 0.950 . S
C1600 C1599 1.349 . S
C1600 C1612 1.349 . S
C1601 C1599 1.327 . S
C1601 C1617 1.429 1_554 S
C1601 H1623 0.950 . S
C1602 H1598 0.949 . S
C1602 C1610 1.574 . S
C1602 C1618 1.368 . S
H1603 C1611 0.950 . S
H1604 C1609 0.950 . S
H1605 C1610 0.949 . S
H1606 C1612 0.950 . S
H1607 C1613 0.950 1_556 S
H1608 C1614 0.949 . S
C1609 H1604 0.950 . S
C1609 C1611 1.327 . S
C1609 C1615 1.429 . S
C1610 C1602 1.574 . S
C1610 H1605 0.949 . S
C1610 C1616 1.368 . S
C1611 C1595 1.349 . S
C1611 H1603 0.950 . S
C1611 C1609 1.327 . S
C1612 C1600 1.349 . S
C1612 H1606 0.950 . S
C1612 C1613 1.327 . S
C1613 H1607 0.950 1_554 S
C1613 C1612 1.327 . S
C1613 C1617 1.429 1_554 S
C1614 C1597 1.574 . S
C1614 H1608 0.949 . S
C1614 C1618 1.368 . S
C1615 C1596 1.429 . S
C1615 C1609 1.429 . S
C1615 C1616 1.523 . S
C1616 C1597 1.368 . S
C1616 C1610 1.368 . S
C1616 C1615 1.523 . S
C1617 C1601 1.429 1_556 S
C1617 C1613 1.429 1_556 S
C1617 C1618 1.523 . S
C1618 C1602 1.368 . S
C1618 C1614 1.368 . S
C1618 C1617 1.523 . S
H1619 C1594 0.950 . S
H1620 C1596 0.950 . S
H1621 C1597 0.949 . S
H1622 C1599 0.950 . S
H1623 C1601 0.950 . S
C1624 C1625 1.349 . S
C1624 C1626 1.327 . S
C1624 H1649 0.950 . S
C1625 C1624 1.349 . S
C1625 C1641 1.349 . S
C1626 C1624 1.327 . S
C1626 C1645 1.429 . S
C1626 H1650 0.950 . S
C1627 C1644 1.574 . S
C1627 C1646 1.368 . S
C1627 H1651 0.949 . S
H1628 C1632 0.949 . S
C1629 C1630 1.349 . S
C1629 C1631 1.327 . S
C1629 H1652 0.950 . S
C1630 C1629 1.349 . S
C1630 C1642 1.349 . S
C1631 C1629 1.327 . S
C1631 C1647 1.429 . S
C1631 H1653 0.950 . S
C1632 H1628 0.949 . S
C1632 C1640 1.574 . S
C1632 C1648 1.368 . S
H1633 C1641 0.950 . S
H1634 C1639 0.950 . S
H1635 C1640 0.949 . S
H1636 C1642 0.950 . S
H1637 C1643 0.950 . S
H1638 C1644 0.949 . S
C1639 H1634 0.950 . S
C1639 C1641 1.327 . S
C1639 C1645 1.429 . S
C1640 C1632 1.574 . S
C1640 H1635 0.949 . S
C1640 C1646 1.368 . S
C1641 C1625 1.349 . S
C1641 H1633 0.950 . S
C1641 C1639 1.327 . S
C1642 C1630 1.349 . S
C1642 H1636 0.950 . S
C1642 C1643 1.327 . S
C1643 H1637 0.950 . S
C1643 C1642 1.327 . S
C1643 C1647 1.429 . S
C1644 C1627 1.574 . S
C1644 H1638 0.949 . S
C1644 C1648 1.368 . S
C1645 C1626 1.429 . S
C1645 C1639 1.429 . S
C1645 C1646 1.523 . S
C1646 C1627 1.368 . S
C1646 C1640 1.368 . S
C1646 C1645 1.523 . S
C1647 C1631 1.429 . S
C1647 C1643 1.429 . S
C1647 C1648 1.523 . S
C1648 C1632 1.368 . S
C1648 C1644 1.368 . S
C1648 C1647 1.523 . S
H1649 C1624 0.950 . S
H1650 C1626 0.950 . S
H1651 C1627 0.949 . S
H1652 C1629 0.950 . S
H1653 C1631 0.950 . S
C1654 C1655 1.349 . S
C1654 C1656 1.327 . S
C1654 H1679 0.950 . S
C1655 C1654 1.349 . S
C1655 C1671 1.349 . S
C1656 C1654 1.327 . S
C1656 C1675 1.429 . S
C1656 H1680 0.950 . S
C1657 C1674 1.574 . S
C1657 C1676 1.368 . S
C1657 H1681 0.949 . S
H1658 C1662 0.949 . S
C1659 C1660 1.349 . S
C1659 C1661 1.327 . S
C1659 H1682 0.950 . S
C1660 C1659 1.349 . S
C1660 C1672 1.349 . S
C1661 C1659 1.327 . S
C1661 C1677 1.408 1_554 S
C1661 H1683 0.950 . S
C1662 H1658 0.949 . S
C1662 C1670 1.574 . S
C1662 C1678 1.368 . S
H1663 C1671 0.950 . S
H1664 C1669 0.950 . S
H1665 C1670 0.949 . S
H1666 C1672 0.950 . S
H1667 C1673 0.950 . S
H1668 C1674 0.949 . S
C1669 H1664 0.950 . S
C1669 C1671 1.327 . S
C1669 C1675 1.429 . S
C1670 C1662 1.574 . S
C1670 H1665 0.949 . S
C1670 C1676 1.368 . S
C1671 C1655 1.349 . S
C1671 H1663 0.950 . S
C1671 C1669 1.327 . S
C1672 C1660 1.349 . S
C1672 H1666 0.950 . S
C1672 C1673 1.327 . S
C1673 H1667 0.950 . S
C1673 C1672 1.327 . S
C1673 C1677 1.411 1_554 S
C1674 C1657 1.574 . S
C1674 H1668 0.949 . S
C1674 C1678 1.368 . S
C1675 C1656 1.429 . S
C1675 C1669 1.429 . S
C1675 C1676 1.523 . S
C1676 C1657 1.368 . S
C1676 C1670 1.368 . S
C1676 C1675 1.523 . S
C1677 C1661 1.408 1_556 S
C1677 C1673 1.411 1_556 S
C1677 C1678 1.559 . S
C1678 C1662 1.368 . S
C1678 C1674 1.368 . S
C1678 C1677 1.559 . S
H1679 C1654 0.950 . S
H1680 C1656 0.950 . S
H1681 C1657 0.949 . S
H1682 C1659 0.950 . S
H1683 C1661 0.950 . S
C1684 C1685 1.349 . S
C1684 C1686 1.327 . S
C1684 H1709 0.950 . S
C1685 C1684 1.349 . S
C1685 C1701 1.349 . S
C1686 C1684 1.327 . S
C1686 C1705 1.429 . S
C1686 H1710 0.950 . S
C1687 C1704 1.574 . S
C1687 C1706 1.368 . S
C1687 H1711 0.949 . S
H1688 C1692 0.949 . S
C1689 C1690 1.349 . S
C1689 C1691 1.327 . S
C1689 H1712 0.950 . S
C1690 C1689 1.349 . S
C1690 C1702 1.349 . S
C1691 C1689 1.327 . S
C1691 C1707 1.429 . S
C1691 H1713 0.950 . S
C1692 H1688 0.949 . S
C1692 C1700 1.574 . S
C1692 C1708 1.368 . S
H1693 C1701 0.950 . S
H1694 C1699 0.950 . S
H1695 C1700 0.949 . S
H1696 C1702 0.950 . S
H1697 C1703 0.950 . S
H1698 C1704 0.949 . S
C1699 H1694 0.950 . S
C1699 C1701 1.327 . S
C1699 C1705 1.429 . S
C1700 C1692 1.574 . S
C1700 H1695 0.949 . S
C1700 C1706 1.368 . S
C1701 C1685 1.349 . S
C1701 H1693 0.950 . S
C1701 C1699 1.327 . S
C1702 C1690 1.349 . S
C1702 H1696 0.950 . S
C1702 C1703 1.327 . S
C1703 H1697 0.950 . S
C1703 C1702 1.327 . S
C1703 C1707 1.429 . S
C1704 C1687 1.574 . S
C1704 H1698 0.949 . S
C1704 C1708 1.368 . S
C1705 C1686 1.429 . S
C1705 C1699 1.429 . S
C1705 C1706 1.523 . S
C1706 C1687 1.368 . S
C1706 C1700 1.368 . S
C1706 C1705 1.523 . S
C1707 C1691 1.429 . S
C1707 C1703 1.429 . S
C1707 C1708 1.523 . S
C1708 C1692 1.368 . S
C1708 C1704 1.368 . S
C1708 C1707 1.523 . S
H1709 C1684 0.950 . S
H1710 C1686 0.950 . S
H1711 C1687 0.949 . S
H1712 C1689 0.950 . S
H1713 C1691 0.950 . S
C1714 C1715 1.349 . S
C1714 C1716 1.327 . S
C1714 H1739 0.950 . S
C1715 C1714 1.349 . S
C1715 C1731 1.349 . S
C1716 C1714 1.327 . S
C1716 C1735 1.429 . S
C1716 H1740 0.950 . S
C1717 C1734 1.574 . S
C1717 C1736 1.368 . S
C1717 H1741 0.949 . S
H1718 C1722 0.949 . S
C1719 C1720 1.349 . S
C1719 C1721 1.327 . S
C1719 H1742 0.950 . S
C1720 C1719 1.349 . S
C1720 C1732 1.349 . S
C1721 C1719 1.327 . S
C1721 C1737 1.429 . S
C1721 H1743 0.950 . S
C1722 H1718 0.949 . S
C1722 C1730 1.574 . S
C1722 C1738 1.368 . S
H1723 C1731 0.950 . S
H1724 C1729 0.950 . S
H1725 C1730 0.949 . S
H1726 C1732 0.950 . S
H1727 C1733 0.950 . S
H1728 C1734 0.949 . S
C1729 H1724 0.950 . S
C1729 C1731 1.327 . S
C1729 C1735 1.429 . S
C1730 C1722 1.574 . S
C1730 H1725 0.949 . S
C1730 C1736 1.368 . S
C1731 C1715 1.349 . S
C1731 H1723 0.950 . S
C1731 C1729 1.327 . S
C1732 C1720 1.349 . S
C1732 H1726 0.950 . S
C1732 C1733 1.327 . S
C1733 H1727 0.950 . S
C1733 C1732 1.327 . S
C1733 C1737 1.429 . S
C1734 C1717 1.574 . S
C1734 H1728 0.949 . S
C1734 C1738 1.368 . S
C1735 C1716 1.429 . S
C1735 C1729 1.429 . S
C1735 C1736 1.523 . S
C1736 C1717 1.368 . S
C1736 C1730 1.368 . S
C1736 C1735 1.523 . S
C1737 C1721 1.429 . S
C1737 C1733 1.429 . S
C1737 C1738 1.523 . S
C1738 C1722 1.368 . S
C1738 C1734 1.368 . S
C1738 C1737 1.523 . S
H1739 C1714 0.950 . S
H1740 C1716 0.950 . S
H1741 C1717 0.949 . S
H1742 C1719 0.950 . S
H1743 C1721 0.950 . S
C1744 C1745 1.349 . S
C1744 C1746 1.327 . S
C1744 H1769 0.950 . S
C1745 C1744 1.349 . S
C1745 C1761 1.349 . S
C1746 C1744 1.327 . S
C1746 C1765 1.429 . S
C1746 H1770 0.950 . S
C1747 C1764 1.574 . S
C1747 C1766 1.368 . S
C1747 H1771 0.949 . S
H1748 C1752 0.949 . S
C1749 C1750 1.349 . S
C1749 C1751 1.327 . S
C1749 H1772 0.950 . S
C1750 C1749 1.349 . S
C1750 C1762 1.349 . S
C1751 C1749 1.327 . S
C1751 C1767 1.429 . S
C1751 H1773 0.950 . S
C1752 H1748 0.949 . S
C1752 C1760 1.574 . S
C1752 C1768 1.368 . S
H1753 C1761 0.950 . S
H1754 C1759 0.950 . S
H1755 C1760 0.949 . S
H1756 C1762 0.950 . S
H1757 C1763 0.950 . S
H1758 C1764 0.949 . S
C1759 H1754 0.950 . S
C1759 C1761 1.327 . S
C1759 C1765 1.429 . S
C1760 C1752 1.574 . S
C1760 H1755 0.949 . S
C1760 C1766 1.368 . S
C1761 C1745 1.349 . S
C1761 H1753 0.950 . S
C1761 C1759 1.327 . S
C1762 C1750 1.349 . S
C1762 H1756 0.950 . S
C1762 C1763 1.327 . S
C1763 H1757 0.950 . S
C1763 C1762 1.327 . S
C1763 C1767 1.429 . S
C1764 C1747 1.574 . S
C1764 H1758 0.949 . S
C1764 C1768 1.368 . S
C1765 C1746 1.429 . S
C1765 C1759 1.429 . S
C1765 C1766 1.523 . S
C1766 C1747 1.368 . S
C1766 C1760 1.368 . S
C1766 C1765 1.523 . S
C1767 C1751 1.429 . S
C1767 C1763 1.429 . S
C1767 C1768 1.523 . S
C1768 C1752 1.368 . S
C1768 C1764 1.368 . S
C1768 C1767 1.523 . S
H1769 C1744 0.950 . S
H1770 C1746 0.950 . S
H1771 C1747 0.949 . S
H1772 C1749 0.950 . S
H1773 C1751 0.950 . S
C1774 C1775 1.349 . S
C1774 C1776 1.327 . S
C1774 H1799 0.950 . S
C1775 C1774 1.349 . S
C1775 C1791 1.349 . S
C1776 C1774 1.327 . S
C1776 C1795 1.429 . S
C1776 H1800 0.950 . S
C1777 C1794 1.574 . S
C1777 C1796 1.368 . S
C1777 H1801 0.949 . S
H1778 C1782 0.949 . S
C1779 C1780 1.349 . S
C1779 C1781 1.327 . S
C1779 H1802 0.950 . S
C1780 C1779 1.349 . S
C1780 C1792 1.349 . S
C1781 C1779 1.327 . S
C1781 C1797 1.429 1_545 S
C1781 H1803 0.950 . S
C1782 H1778 0.949 . S
C1782 C1790 1.574 . S
C1782 C1798 1.368 . S
H1783 C1791 0.950 . S
H1784 C1789 0.950 . S
H1785 C1790 0.949 . S
H1786 C1792 0.950 . S
H1787 C1793 0.950 . S
H1788 C1794 0.949 . S
C1789 H1784 0.950 . S
C1789 C1791 1.327 . S
C1789 C1795 1.429 . S
C1790 C1782 1.574 . S
C1790 H1785 0.949 . S
C1790 C1796 1.368 . S
C1791 C1775 1.349 . S
C1791 H1783 0.950 . S
C1791 C1789 1.327 . S
C1792 C1780 1.349 . S
C1792 H1786 0.950 . S
C1792 C1793 1.327 1_545 S
C1793 H1787 0.950 . S
C1793 C1792 1.327 1_565 S
C1793 C1797 1.429 . S
C1794 C1777 1.574 . S
C1794 H1788 0.949 . S
C1794 C1798 1.368 . S
C1795 C1776 1.429 . S
C1795 C1789 1.429 . S
C1795 C1796 1.523 . S
C1796 C1777 1.368 . S
C1796 C1790 1.368 . S
C1796 C1795 1.523 . S
C1797 C1781 1.429 1_565 S
C1797 C1793 1.429 . S
C1797 C1798 1.523 . S
C1798 C1782 1.368 . S
C1798 C1794 1.368 . S
C1798 C1797 1.523 . S
H1799 C1774 0.950 . S
H1800 C1776 0.950 . S
H1801 C1777 0.949 . S
H1802 C1779 0.950 . S
H1803 C1781 0.950 . S
C1804 C1805 1.349 . S
C1804 C1806 1.327 . S
C1804 H1829 0.950 . S
C1805 C1804 1.349 . S
C1805 C1821 1.349 . S
C1806 C1804 1.327 . S
C1806 C1825 1.429 . S
C1806 H1830 0.950 . S
C1807 C1824 1.574 . S
C1807 C1826 1.368 . S
C1807 H1831 0.949 . S
H1808 C1812 0.949 . S
C1809 C1810 1.349 . S
C1809 C1811 1.327 . S
C1809 H1832 0.950 . S
C1810 C1809 1.349 . S
C1810 C1822 1.349 . S
C1811 C1809 1.327 . S
C1811 C1827 1.429 . S
C1811 H1833 0.950 . S
C1812 H1808 0.949 . S
C1812 C1820 1.574 . S
C1812 C1828 1.368 . S
H1813 C1821 0.950 . S
H1814 C1819 0.950 . S
H1815 C1820 0.949 . S
H1816 C1822 0.950 . S
H1817 C1823 0.950 . S
H1818 C1824 0.949 . S
C1819 H1814 0.950 . S
C1819 C1821 1.327 . S
C1819 C1825 1.429 . S
C1820 C1812 1.574 . S
C1820 H1815 0.949 . S
C1820 C1826 1.368 . S
C1821 C1805 1.349 . S
C1821 H1813 0.950 . S
C1821 C1819 1.327 . S
C1822 C1810 1.349 . S
C1822 H1816 0.950 . S
C1822 C1823 1.327 . S
C1823 H1817 0.950 . S
C1823 C1822 1.327 . S
C1823 C1827 1.429 . S
C1824 C1807 1.574 . S
C1824 H1818 0.949 . S
C1824 C1828 1.368 . S
C1825 C1806 1.429 . S
C1825 C1819 1.429 . S
C1825 C1826 1.523 . S
C1826 C1807 1.368 . S
C1826 C1820 1.368 . S
C1826 C1825 1.523 . S
C1827 C1811 1.429 . S
C1827 C1823 1.429 . S
C1827 C1828 1.523 . S
C1828 C1812 1.368 . S
C1828 C1824 1.368 . S
C1828 C1827 1.523 . S
H1829 C1804 0.950 . S
H1830 C1806 0.950 . S
H1831 C1807 0.949 . S
H1832 C1809 0.950 . S
H1833 C1811 0.950 . S
C1834 C1835 1.349 . S
C1834 C1836 1.327 . S
C1834 H1859 0.950 . S
C1835 C1834 1.349 . S
C1835 C1851 1.349 . S
C1836 C1834 1.327 . S
C1836 C1855 1.429 . S
C1836 H1860 0.950 . S
C1837 C1854 1.574 . S
C1837 C1856 1.368 . S
C1837 H1861 0.949 . S
H1838 C1842 0.949 . S
C1839 C1840 1.349 . S
C1839 C1841 1.327 . S
C1839 H1862 0.950 . S
C1840 C1839 1.349 . S
C1840 C1852 1.349 . S
C1841 C1839 1.327 . S
C1841 C1857 1.429 . S
C1841 H1863 0.950 . S
C1842 H1838 0.949 . S
C1842 C1850 1.574 . S
C1842 C1858 1.368 . S
H1843 C1851 0.950 . S
H1844 C1849 0.950 . S
H1845 C1850 0.949 . S
H1846 C1852 0.950 . S
H1847 C1853 0.950 . S
H1848 C1854 0.949 . S
C1849 H1844 0.950 . S
C1849 C1851 1.327 . S
C1849 C1855 1.429 . S
C1850 C1842 1.574 . S
C1850 H1845 0.949 . S
C1850 C1856 1.368 . S
C1851 C1835 1.349 . S
C1851 H1843 0.950 . S
C1851 C1849 1.327 . S
C1852 C1840 1.349 . S
C1852 H1846 0.950 . S
C1852 C1853 1.327 . S
C1853 H1847 0.950 . S
C1853 C1852 1.327 . S
C1853 C1857 1.429 . S
C1854 C1837 1.574 . S
C1854 H1848 0.949 . S
C1854 C1858 1.368 . S
C1855 C1836 1.429 . S
C1855 C1849 1.429 . S
C1855 C1856 1.523 . S
C1856 C1837 1.368 . S
C1856 C1850 1.368 . S
C1856 C1855 1.523 . S
C1857 C1841 1.429 . S
C1857 C1853 1.429 . S
C1857 C1858 1.523 . S
C1858 C1842 1.368 . S
C1858 C1854 1.368 . S
C1858 C1857 1.523 . S
H1859 C1834 0.950 . S
H1860 C1836 0.950 . S
H1861 C1837 0.949 . S
H1862 C1839 0.950 . S
H1863 C1841 0.950 . S
C1864 C1865 1.349 . S
C1864 C1866 1.327 . S
C1864 H1889 0.950 . S
C1865 C1864 1.349 . S
C1865 C1881 1.349 . S
C1866 C1864 1.327 . S
C1866 C1885 1.429 . S
C1866 H1890 0.950 . S
C1867 C1884 1.574 . S
C1867 C1886 1.368 . S
C1867 H1891 0.949 . S
H1868 C1872 0.949 . S
C1869 C1870 1.349 . S
C1869 C1871 1.327 . S
C1869 H1892 0.950 . S
C1870 C1869 1.349 . S
C1870 C1882 1.349 . S
C1871 C1869 1.327 . S
C1871 C1887 1.429 . S
C1871 H1893 0.950 . S
C1872 H1868 0.949 . S
C1872 C1880 1.574 . S
C1872 C1888 1.368 . S
H1873 C1881 0.950 . S
H1874 C1879 0.950 . S
H1875 C1880 0.949 . S
H1876 C1882 0.950 . S
H1877 C1883 0.950 . S
H1878 C1884 0.949 . S
C1879 H1874 0.950 . S
C1879 C1881 1.327 . S
C1879 C1885 1.429 . S
C1880 C1872 1.574 . S
C1880 H1875 0.949 . S
C1880 C1886 1.368 . S
C1881 C1865 1.349 . S
C1881 H1873 0.950 . S
C1881 C1879 1.327 . S
C1882 C1870 1.349 . S
C1882 H1876 0.950 . S
C1882 C1883 1.327 . S
C1883 H1877 0.950 . S
C1883 C1882 1.327 . S
C1883 C1887 1.429 . S
C1884 C1867 1.574 . S
C1884 H1878 0.949 . S
C1884 C1888 1.368 . S
C1885 C1866 1.429 . S
C1885 C1879 1.429 . S
C1885 C1886 1.523 . S
C1886 C1867 1.368 . S
C1886 C1880 1.368 . S
C1886 C1885 1.523 . S
C1887 C1871 1.429 . S
C1887 C1883 1.429 . S
C1887 C1888 1.523 . S
C1888 C1872 1.368 . S
C1888 C1884 1.368 . S
C1888 C1887 1.523 . S
H1889 C1864 0.950 . S
H1890 C1866 0.950 . S
H1891 C1867 0.949 . S
H1892 C1869 0.950 . S
H1893 C1871 0.950 . S
C1894 C1895 1.349 . S
C1894 C1896 1.327 . S
C1894 H1919 0.950 . S
C1895 C1894 1.349 . S
C1895 C1911 1.349 . S
C1896 C1894 1.327 . S
C1896 C1915 1.429 . S
C1896 H1920 0.950 . S
C1897 C1914 1.574 . S
C1897 C1916 1.368 . S
C1897 H1921 0.949 . S
H1898 C1902 0.949 . S
C1899 C1900 1.349 . S
C1899 C1901 1.327 1_545 S
C1899 H1922 0.950 . S
C1900 C1899 1.349 . S
C1900 C1912 1.349 . S
C1901 C1899 1.327 1_565 S
C1901 C1917 1.429 . S
C1901 H1923 0.950 . S
C1902 H1898 0.949 . S
C1902 C1910 1.574 . S
C1902 C1918 1.368 . S
H1903 C1911 0.950 . S
H1904 C1909 0.950 . S
H1905 C1910 0.949 . S
H1906 C1912 0.950 . S
H1907 C1913 0.950 . S
H1908 C1914 0.949 . S
C1909 H1904 0.950 . S
C1909 C1911 1.327 . S
C1909 C1915 1.429 . S
C1910 C1902 1.574 . S
C1910 H1905 0.949 . S
C1910 C1916 1.368 . S
C1911 C1895 1.349 . S
C1911 H1903 0.950 . S
C1911 C1909 1.327 . S
C1912 C1900 1.349 . S
C1912 H1906 0.950 . S
C1912 C1913 1.327 . S
C1913 H1907 0.950 . S
C1913 C1912 1.327 . S
C1913 C1917 1.429 1_545 S
C1914 C1897 1.574 . S
C1914 H1908 0.949 . S
C1914 C1918 1.368 . S
C1915 C1896 1.429 . S
C1915 C1909 1.429 . S
C1915 C1916 1.523 . S
C1916 C1897 1.368 . S
C1916 C1910 1.368 . S
C1916 C1915 1.523 . S
C1917 C1901 1.429 . S
C1917 C1913 1.429 1_565 S
C1917 C1918 1.523 . S
C1918 C1902 1.368 . S
C1918 C1914 1.368 . S
C1918 C1917 1.523 . S
H1919 C1894 0.950 . S
H1920 C1896 0.950 . S
H1921 C1897 0.949 . S
H1922 C1899 0.950 . S
H1923 C1901 0.950 . S
C1924 C1925 1.349 . S
C1924 C1926 1.327 . S
C1924 H1949 0.950 . S
C1925 C1924 1.349 . S
C1925 C1941 1.349 . S
C1926 C1924 1.327 . S
C1926 C1945 1.429 . S
C1926 H1950 0.950 . S
C1927 C1944 1.574 . S
C1927 C1946 1.368 . S
C1927 H1951 0.949 . S
H1928 C1932 0.949 . S
C1929 C1930 1.349 . S
C1929 C1931 1.327 . S
C1929 H1952 0.950 . S
C1930 C1929 1.349 . S
C1930 C1942 1.349 . S
C1931 C1929 1.327 . S
C1931 C1947 1.429 . S
C1931 H1953 0.950 . S
C1932 H1928 0.949 . S
C1932 C1940 1.574 . S
C1932 C1948 1.368 . S
H1933 C1941 0.950 . S
H1934 C1939 0.950 . S
H1935 C1940 0.949 . S
H1936 C1942 0.950 . S
H1937 C1943 0.950 . S
H1938 C1944 0.949 . S
C1939 H1934 0.950 . S
C1939 C1941 1.327 . S
C1939 C1945 1.429 . S
C1940 C1932 1.574 . S
C1940 H1935 0.949 . S
C1940 C1946 1.368 . S
C1941 C1925 1.349 . S
C1941 H1933 0.950 . S
C1941 C1939 1.327 . S
C1942 C1930 1.349 . S
C1942 H1936 0.950 . S
C1942 C1943 1.327 . S
C1943 H1937 0.950 . S
C1943 C1942 1.327 . S
C1943 C1947 1.429 . S
C1944 C1927 1.574 . S
C1944 H1938 0.949 . S
C1944 C1948 1.368 . S
C1945 C1926 1.429 . S
C1945 C1939 1.429 . S
C1945 C1946 1.523 . S
C1946 C1927 1.368 . S
C1946 C1940 1.368 . S
C1946 C1945 1.523 . S
C1947 C1931 1.429 . S
C1947 C1943 1.429 . S
C1947 C1948 1.523 . S
C1948 C1932 1.368 . S
C1948 C1944 1.368 . S
C1948 C1947 1.523 . S
H1949 C1924 0.950 . S
H1950 C1926 0.950 . S
H1951 C1927 0.949 . S
H1952 C1929 0.950 . S
H1953 C1931 0.950 . S
C1954 C1955 1.349 . S
C1954 C1956 1.327 . S
C1954 H1979 0.950 . S
C1955 C1954 1.349 . S
C1955 C1971 1.349 . S
C1956 C1954 1.327 . S
C1956 C1975 1.429 . S
C1956 H1980 0.950 . S
C1957 C1974 1.574 . S
C1957 C1976 1.368 . S
C1957 H1981 0.949 . S
H1958 C1962 0.949 . S
C1959 C1960 1.349 . S
C1959 C1961 1.327 . S
C1959 H1982 0.950 . S
C1960 C1959 1.349 . S
C1960 C1972 1.349 . S
C1961 C1959 1.327 . S
C1961 C1977 1.429 . S
C1961 H1983 0.950 . S
C1962 H1958 0.949 . S
C1962 C1970 1.574 . S
C1962 C1978 1.368 . S
H1963 C1971 0.950 . S
H1964 C1969 0.950 . S
H1965 C1970 0.949 . S
H1966 C1972 0.950 . S
H1967 C1973 0.950 . S
H1968 C1974 0.949 . S
C1969 H1964 0.950 . S
C1969 C1971 1.327 . S
C1969 C1975 1.429 . S
C1970 C1962 1.574 . S
C1970 H1965 0.949 . S
C1970 C1976 1.368 . S
C1971 C1955 1.349 . S
C1971 H1963 0.950 . S
C1971 C1969 1.327 . S
C1972 C1960 1.349 . S
C1972 H1966 0.950 . S
C1972 C1973 1.327 . S
C1973 H1967 0.950 . S
C1973 C1972 1.327 . S
C1973 C1977 1.429 . S
C1974 C1957 1.574 . S
C1974 H1968 0.949 . S
C1974 C1978 1.368 . S
C1975 C1956 1.429 . S
C1975 C1969 1.429 . S
C1975 C1976 1.523 . S
C1976 C1957 1.368 . S
C1976 C1970 1.368 . S
C1976 C1975 1.523 . S
C1977 C1961 1.429 . S
C1977 C1973 1.429 . S
C1977 C1978 1.523 . S
C1978 C1962 1.368 . S
C1978 C1974 1.368 . S
C1978 C1977 1.523 . S
H1979 C1954 0.950 . S
H1980 C1956 0.950 . S
H1981 C1957 0.949 . S
H1982 C1959 0.950 . S
H1983 C1961 0.950 . S
C1984 C1985 1.349 . S
C1984 C1986 1.327 . S
C1984 H2009 0.950 . S
C1985 C1984 1.349 . S
C1985 C2001 1.349 . S
C1986 C1984 1.327 . S
C1986 C2005 1.429 . S
C1986 H2010 0.950 . S
C1987 C2004 1.574 . S
C1987 C2006 1.368 . S
C1987 H2011 0.949 . S
H1988 C1992 0.949 . S
C1989 C1990 1.349 . S
C1989 C1991 1.327 . S
C1989 H2012 0.950 . S
C1990 C1989 1.349 . S
C1990 C2002 1.349 . S
C1991 C1989 1.327 . S
C1991 C2007 1.429 . S
C1991 H2013 0.963 . S
C1992 H1988 0.949 . S
C1992 C2000 1.574 . S
C1992 C2008 1.368 . S
H1993 C2001 0.950 . S
H1994 C1999 0.950 . S
H1995 C2000 0.949 . S
H1996 C2002 0.950 . S
H1997 C2003 0.950 . S
H1998 C2004 0.949 . S
C1999 H1994 0.950 . S
C1999 C2001 1.327 . S
C1999 C2005 1.429 . S
C2000 C1992 1.574 . S
C2000 H1995 0.949 . S
C2000 C2006 1.368 . S
C2001 C1985 1.349 . S
C2001 H1993 0.950 . S
C2001 C1999 1.327 . S
C2002 C1990 1.349 . S
C2002 H1996 0.950 . S
C2002 C2003 1.327 . S
C2003 H1997 0.950 . S
C2003 C2002 1.327 . S
C2003 C2007 1.429 . S
C2004 C1987 1.574 . S
C2004 H1998 0.949 . S
C2004 C2008 1.368 . S
C2005 C1986 1.429 . S
C2005 C1999 1.429 . S
C2005 C2006 1.523 . S
C2006 C1987 1.368 . S
C2006 C2000 1.368 . S
C2006 C2005 1.523 . S
C2007 C1991 1.429 . S
C2007 C2003 1.429 . S
C2007 C2008 1.523 1_655 S
C2008 C1992 1.368 . S
C2008 C2004 1.368 . S
C2008 C2007 1.523 1_455 S
H2009 C1984 0.950 . S
H2010 C1986 0.950 . S
H2011 C1987 0.949 . S
H2012 C1989 0.950 . S
H2013 C1991 0.963 . S
C2014 C2015 1.349 . S
C2014 C2016 1.327 . S
C2014 H2039 0.950 . S
C2015 C2014 1.349 . S
C2015 C2031 1.349 . S
C2016 C2014 1.327 . S
C2016 C2035 1.429 . S
C2016 H2040 0.950 . S
C2017 C2034 1.574 1_556 S
C2017 C2036 1.368 . S
C2017 H2041 0.941 1_556 S
H2018 C2022 0.949 . S
C2019 C2020 1.349 . S
C2019 C2021 1.327 . S
C2019 H2042 0.950 . S
C2020 C2019 1.349 . S
C2020 C2032 1.349 . S
C2021 C2019 1.327 . S
C2021 C2037 1.429 . S
C2021 H2043 0.950 . S
C2022 H2018 0.949 . S
C2022 C2030 1.574 . S
C2022 C2038 1.368 1_556 S
H2023 C2031 0.950 . S
H2024 C2029 0.950 . S
H2025 C2030 0.949 . S
H2026 C2032 0.950 . S
H2027 C2033 0.950 . S
H2028 C2034 0.949 . S
C2029 H2024 0.950 . S
C2029 C2031 1.327 . S
C2029 C2035 1.429 . S
C2030 C2022 1.574 . S
C2030 H2025 0.949 . S
C2030 C2036 1.368 . S
C2031 C2015 1.349 . S
C2031 H2023 0.950 . S
C2031 C2029 1.327 . S
C2032 C2020 1.349 . S
C2032 H2026 0.950 . S
C2032 C2033 1.327 . S
C2033 H2027 0.950 . S
C2033 C2032 1.327 . S
C2033 C2037 1.429 . S
C2034 C2017 1.574 1_554 S
C2034 H2028 0.949 . S
C2034 C2038 1.368 . S
C2035 C2016 1.429 . S
C2035 C2029 1.429 . S
C2035 C2036 1.523 . S
C2036 C2017 1.368 . S
C2036 C2030 1.368 . S
C2036 C2035 1.523 . S
C2037 C2021 1.429 . S
C2037 C2033 1.429 . S
C2037 C2038 1.523 . S
C2038 C2022 1.368 1_554 S
C2038 C2034 1.368 . S
C2038 C2037 1.523 . S
H2039 C2014 0.950 . S
H2040 C2016 0.950 . S
H2041 C2017 0.941 1_554 S
H2042 C2019 0.950 . S
H2043 C2021 0.950 . S
C2044 C2045 1.349 . S
C2044 C2046 1.327 . S
C2044 H2069 0.950 . S
C2045 C2044 1.349 . S
C2045 C2061 1.349 . S
C2046 C2044 1.327 . S
C2046 C2065 1.429 . S
C2046 H2070 0.950 . S
C2047 C2064 1.574 . S
C2047 C2066 1.368 . S
C2047 H2071 0.949 . S
H2048 C2052 0.949 . S
C2049 C2050 1.349 . S
C2049 C2051 1.327 . S
C2049 H2072 0.950 . S
C2050 C2049 1.349 . S
C2050 C2062 1.349 . S
C2051 C2049 1.327 . S
C2051 C2067 1.429 . S
C2051 H2073 0.950 . S
C2052 H2048 0.949 . S
C2052 C2060 1.574 . S
C2052 C2068 1.368 . S
H2053 C2061 0.950 . S
H2054 C2059 0.950 . S
H2055 C2060 0.949 . S
H2056 C2062 0.950 . S
H2057 C2063 0.950 . S
H2058 C2064 0.949 . S
C2059 H2054 0.950 . S
C2059 C2061 1.327 . S
C2059 C2065 1.429 . S
C2060 C2052 1.574 . S
C2060 H2055 0.949 . S
C2060 C2066 1.368 . S
C2061 C2045 1.349 . S
C2061 H2053 0.950 . S
C2061 C2059 1.327 . S
C2062 C2050 1.349 . S
C2062 H2056 0.950 . S
C2062 C2063 1.327 . S
C2063 H2057 0.950 . S
C2063 C2062 1.327 . S
C2063 C2067 1.429 . S
C2064 C2047 1.574 . S
C2064 H2058 0.949 . S
C2064 C2068 1.368 . S
C2065 C2046 1.429 . S
C2065 C2059 1.429 . S
C2065 C2066 1.523 . S
C2066 C2047 1.368 . S
C2066 C2060 1.368 . S
C2066 C2065 1.523 . S
C2067 C2051 1.429 . S
C2067 C2063 1.429 . S
C2067 C2068 1.523 . S
C2068 C2052 1.368 . S
C2068 C2064 1.368 . S
C2068 C2067 1.523 . S
H2069 C2044 0.950 . S
H2070 C2046 0.950 . S
H2071 C2047 0.949 . S
H2072 C2049 0.950 . S
H2073 C2051 0.950 . S
C2074 C2075 1.349 . S
C2074 C2076 1.327 . S
C2074 H2099 0.950 . S
C2075 C2074 1.349 . S
C2075 C2091 1.349 . S
C2076 C2074 1.327 . S
C2076 C2095 1.429 . S
C2076 H2100 0.950 . S
C2077 C2094 1.574 . S
C2077 C2096 1.368 . S
C2077 H2101 0.949 . S
H2078 C2082 0.949 . S
C2079 C2080 1.349 . S
C2079 C2081 1.327 . S
C2079 H2102 0.950 . S
C2080 C2079 1.349 . S
C2080 C2092 1.349 . S
C2081 C2079 1.327 . S
C2081 C2097 1.429 . S
C2081 H2103 0.950 . S
C2082 H2078 0.949 . S
C2082 C2090 1.574 . S
C2082 C2098 1.368 . S
H2083 C2091 0.950 . S
H2084 C2089 0.950 . S
H2085 C2090 0.949 . S
H2086 C2092 0.950 . S
H2087 C2093 0.950 . S
H2088 C2094 0.949 . S
C2089 H2084 0.950 . S
C2089 C2091 1.327 . S
C2089 C2095 1.429 . S
C2090 C2082 1.574 . S
C2090 H2085 0.949 . S
C2090 C2096 1.368 . S
C2091 C2075 1.349 . S
C2091 H2083 0.950 . S
C2091 C2089 1.327 . S
C2092 C2080 1.349 . S
C2092 H2086 0.950 . S
C2092 C2093 1.327 . S
C2093 H2087 0.950 . S
C2093 C2092 1.327 . S
C2093 C2097 1.429 . S
C2094 C2077 1.574 . S
C2094 H2088 0.949 . S
C2094 C2098 1.368 . S
C2095 C2076 1.429 . S
C2095 C2089 1.429 . S
C2095 C2096 1.523 . S
C2096 C2077 1.368 . S
C2096 C2090 1.368 . S
C2096 C2095 1.523 . S
C2097 C2081 1.429 . S
C2097 C2093 1.429 . S
C2097 C2098 1.523 . S
C2098 C2082 1.368 . S
C2098 C2094 1.368 . S
C2098 C2097 1.523 . S
H2099 C2074 0.950 . S
H2100 C2076 0.950 . S
H2101 C2077 0.949 . S
H2102 C2079 0.950 . S
H2103 C2081 0.950 . S
C2104 C2105 1.349 . S
C2104 C2106 1.327 . S
C2104 H2129 0.950 . S
C2105 C2104 1.349 . S
C2105 C2121 1.349 . S
C2106 C2104 1.327 . S
C2106 C2125 1.429 . S
C2106 H2130 0.950 . S
C2107 C2124 1.574 . S
C2107 C2126 1.368 . S
C2107 H2131 0.949 . S
H2108 C2112 0.949 . S
C2109 C2110 1.349 . S
C2109 C2111 1.327 1_655 S
C2109 H2132 0.950 . S
C2110 C2109 1.349 . S
C2110 C2122 1.349 . S
C2111 C2109 1.327 1_455 S
C2111 C2127 1.429 . S
C2111 H2133 0.950 . S
C2112 H2108 0.949 . S
C2112 C2120 1.574 . S
C2112 C2128 1.368 . S
H2113 C2121 0.950 . S
H2114 C2119 0.950 . S
H2115 C2120 0.949 . S
H2116 C2122 0.950 . S
H2117 C2123 0.950 . S
H2118 C2124 0.949 . S
C2119 H2114 0.950 . S
C2119 C2121 1.327 . S
C2119 C2125 1.429 . S
C2120 C2112 1.574 . S
C2120 H2115 0.949 . S
C2120 C2126 1.368 . S
C2121 C2105 1.349 . S
C2121 H2113 0.950 . S
C2121 C2119 1.327 . S
C2122 C2110 1.349 . S
C2122 H2116 0.950 . S
C2122 C2123 1.327 . S
C2123 H2117 0.950 . S
C2123 C2122 1.327 . S
C2123 C2127 1.429 1_655 S
C2124 C2107 1.574 . S
C2124 H2118 0.949 . S
C2124 C2128 1.368 . S
C2125 C2106 1.429 . S
C2125 C2119 1.429 . S
C2125 C2126 1.523 . S
C2126 C2107 1.368 . S
C2126 C2120 1.368 . S
C2126 C2125 1.523 . S
C2127 C2111 1.429 . S
C2127 C2123 1.429 1_455 S
C2127 C2128 1.523 . S
C2128 C2112 1.368 . S
C2128 C2124 1.368 . S
C2128 C2127 1.523 . S
H2129 C2104 0.950 . S
H2130 C2106 0.950 . S
H2131 C2107 0.949 . S
H2132 C2109 0.950 . S
H2133 C2111 0.950 . S
C2134 C2135 1.349 . S
C2134 C2136 1.327 . S
C2134 H2159 0.950 . S
C2135 C2134 1.349 . S
C2135 C2151 1.349 . S
C2136 C2134 1.327 . S
C2136 C2155 1.429 . S
C2136 H2160 0.950 . S
C2137 C2154 1.574 . S
C2137 C2156 1.368 . S
C2137 H2161 0.949 . S
H2138 C2142 0.949 . S
C2139 C2140 1.349 . S
C2139 C2141 1.327 . S
C2139 H2162 0.950 . S
C2140 C2139 1.349 . S
C2140 C2152 1.349 . S
C2141 C2139 1.327 . S
C2141 C2157 1.429 . S
C2141 H2163 0.950 . S
C2142 H2138 0.949 . S
C2142 C2150 1.574 . S
C2142 C2158 1.368 . S
H2143 C2151 0.950 . S
H2144 C2149 0.950 . S
H2145 C2150 0.949 . S
H2146 C2152 0.950 . S
H2147 C2153 0.938 1_655 S
H2148 C2154 0.949 . S
C2149 H2144 0.950 . S
C2149 C2151 1.327 . S
C2149 C2155 1.429 . S
C2150 C2142 1.574 . S
C2150 H2145 0.949 . S
C2150 C2156 1.368 . S
C2151 C2135 1.349 . S
C2151 H2143 0.950 . S
C2151 C2149 1.327 . S
C2152 C2140 1.349 . S
C2152 H2146 0.950 . S
C2152 C2153 1.327 . S
C2153 H2147 0.938 1_455 S
C2153 C2152 1.327 . S
C2153 C2157 1.429 . S
C2154 C2137 1.574 . S
C2154 H2148 0.949 . S
C2154 C2158 1.368 . S
C2155 C2136 1.429 . S
C2155 C2149 1.429 . S
C2155 C2156 1.523 . S
C2156 C2137 1.368 . S
C2156 C2150 1.368 . S
C2156 C2155 1.523 . S
C2157 C2141 1.429 . S
C2157 C2153 1.429 . S
C2157 C2158 1.523 1_455 S
C2158 C2142 1.368 . S
C2158 C2154 1.368 . S
C2158 C2157 1.523 1_655 S
H2159 C2134 0.950 . S
H2160 C2136 0.950 . S
H2161 C2137 0.949 . S
H2162 C2139 0.950 . S
H2163 C2141 0.950 . S
C2164 C2165 1.349 . S
C2164 C2166 1.327 . S
C2164 H2189 0.950 . S
C2165 C2164 1.349 . S
C2165 C2181 1.349 . S
C2166 C2164 1.327 . S
C2166 C2185 1.429 . S
C2166 H2190 0.950 . S
C2167 C2184 1.574 . S
C2167 C2186 1.368 . S
C2167 H2191 0.949 . S
H2168 C2172 0.949 . S
C2169 C2170 1.349 . S
C2169 C2171 1.327 . S
C2169 H2192 0.950 . S
C2170 C2169 1.349 . S
C2170 C2182 1.349 . S
C2171 C2169 1.327 . S
C2171 C2187 1.429 . S
C2171 H2193 0.950 . S
C2172 H2168 0.949 . S
C2172 C2180 1.574 . S
C2172 C2188 1.368 . S
H2173 C2181 0.950 . S
H2174 C2179 0.950 . S
H2175 C2180 0.949 . S
H2176 C2182 0.950 . S
H2177 C2183 0.950 . S
H2178 C2184 0.949 . S
C2179 H2174 0.950 . S
C2179 C2181 1.327 . S
C2179 C2185 1.429 . S
C2180 C2172 1.574 . S
C2180 H2175 0.949 . S
C2180 C2186 1.368 . S
C2181 C2165 1.349 . S
C2181 H2173 0.950 . S
C2181 C2179 1.327 . S
C2182 C2170 1.349 . S
C2182 H2176 0.950 . S
C2182 C2183 1.327 . S
C2183 H2177 0.950 . S
C2183 C2182 1.327 . S
C2183 C2187 1.429 . S
C2184 C2167 1.574 . S
C2184 H2178 0.949 . S
C2184 C2188 1.368 . S
C2185 C2166 1.429 . S
C2185 C2179 1.429 . S
C2185 C2186 1.523 . S
C2186 C2167 1.368 . S
C2186 C2180 1.368 . S
C2186 C2185 1.523 . S
C2187 C2171 1.429 . S
C2187 C2183 1.429 . S
C2187 C2188 1.523 . S
C2188 C2172 1.368 . S
C2188 C2184 1.368 . S
C2188 C2187 1.523 . S
H2189 C2164 0.950 . S
H2190 C2166 0.950 . S
H2191 C2167 0.949 . S
H2192 C2169 0.950 . S
H2193 C2171 0.950 . S
C2194 C2195 1.349 . S
C2194 C2196 1.327 . S
C2194 H2219 0.950 . S
C2195 C2194 1.349 . S
C2195 C2211 1.349 . S
C2196 C2194 1.327 . S
C2196 C2215 1.429 . S
C2196 H2220 0.950 . S
C2197 C2214 1.574 . S
C2197 C2216 1.368 . S
C2197 H2221 0.949 . S
H2198 C2202 0.949 . S
C2199 C2200 1.349 . S
C2199 C2201 1.327 . S
C2199 H2222 0.950 . S
C2200 C2199 1.349 . S
C2200 C2212 1.349 . S
C2201 C2199 1.327 . S
C2201 C2217 1.429 . S
C2201 H2223 0.950 . S
C2202 H2198 0.949 . S
C2202 C2210 1.574 . S
C2202 C2218 1.368 . S
H2203 C2211 0.950 . S
H2204 C2209 0.950 . S
H2205 C2210 0.949 . S
H2206 C2212 0.950 . S
H2207 C2213 0.950 . S
H2208 C2214 0.949 . S
C2209 H2204 0.950 . S
C2209 C2211 1.327 . S
C2209 C2215 1.429 . S
C2210 C2202 1.574 . S
C2210 H2205 0.949 . S
C2210 C2216 1.368 . S
C2211 C2195 1.349 . S
C2211 H2203 0.950 . S
C2211 C2209 1.327 . S
C2212 C2200 1.349 . S
C2212 H2206 0.950 . S
C2212 C2213 1.327 . S
C2213 H2207 0.950 . S
C2213 C2212 1.327 . S
C2213 C2217 1.429 . S
C2214 C2197 1.574 . S
C2214 H2208 0.949 . S
C2214 C2218 1.368 . S
C2215 C2196 1.429 . S
C2215 C2209 1.429 . S
C2215 C2216 1.523 . S
C2216 C2197 1.368 . S
C2216 C2210 1.368 . S
C2216 C2215 1.523 . S
C2217 C2201 1.429 . S
C2217 C2213 1.429 . S
C2217 C2218 1.523 . S
C2218 C2202 1.368 . S
C2218 C2214 1.368 . S
C2218 C2217 1.523 . S
H2219 C2194 0.950 . S
H2220 C2196 0.950 . S
H2221 C2197 0.949 . S
H2222 C2199 0.950 . S
H2223 C2201 0.950 . S
C2224 C2225 1.349 . S
C2224 C2226 1.327 . S
C2224 H2249 0.950 . S
C2225 C2224 1.349 . S
C2225 C2241 1.349 . S
C2226 C2224 1.327 . S
C2226 C2245 1.429 . S
C2226 H2250 0.950 . S
C2227 C2244 1.574 . S
C2227 C2246 1.368 . S
C2227 H2251 0.949 . S
H2228 C2232 0.949 . S
C2229 C2230 1.349 . S
C2229 C2231 1.327 . S
C2229 H2252 0.950 . S
C2230 C2229 1.349 . S
C2230 C2242 1.349 . S
C2231 C2229 1.327 . S
C2231 C2247 1.429 . S
C2231 H2253 0.950 . S
C2232 H2228 0.949 . S
C2232 C2240 1.574 . S
C2232 C2248 1.368 . S
H2233 C2241 0.950 . S
H2234 C2239 0.950 . S
H2235 C2240 0.949 . S
H2236 C2242 0.950 . S
H2237 C2243 0.950 . S
H2238 C2244 0.949 . S
C2239 H2234 0.950 . S
C2239 C2241 1.327 . S
C2239 C2245 1.429 . S
C2240 C2232 1.574 . S
C2240 H2235 0.949 . S
C2240 C2246 1.368 . S
C2241 C2225 1.349 . S
C2241 H2233 0.950 . S
C2241 C2239 1.327 . S
C2242 C2230 1.349 . S
C2242 H2236 0.950 . S
C2242 C2243 1.327 . S
C2243 H2237 0.950 . S
C2243 C2242 1.327 . S
C2243 C2247 1.429 . S
C2244 C2227 1.574 . S
C2244 H2238 0.949 . S
C2244 C2248 1.368 . S
C2245 C2226 1.429 . S
C2245 C2239 1.429 . S
C2245 C2246 1.523 . S
C2246 C2227 1.368 . S
C2246 C2240 1.368 . S
C2246 C2245 1.523 . S
C2247 C2231 1.429 . S
C2247 C2243 1.429 . S
C2247 C2248 1.523 . S
C2248 C2232 1.368 . S
C2248 C2244 1.368 . S
C2248 C2247 1.523 . S
H2249 C2224 0.950 . S
H2250 C2226 0.950 . S
H2251 C2227 0.949 . S
H2252 C2229 0.950 . S
H2253 C2231 0.950 . S
C2254 C2255 1.349 1_565 S
C2254 C2256 1.327 . S
C2254 H2279 0.933 1_565 S
C2255 C2254 1.349 1_545 S
C2255 C2271 1.349 1_545 S
C2256 C2254 1.327 . S
C2256 C2275 1.429 . S
C2256 H2280 0.950 . S
C2257 C2274 1.574 . S
C2257 C2276 1.368 . S
C2257 H2281 0.949 . S
H2258 C2262 0.949 . S
C2259 C2260 1.349 . S
C2259 C2261 1.327 . S
C2259 H2282 0.950 . S
C2260 C2259 1.349 . S
C2260 C2272 1.349 . S
C2261 C2259 1.327 . S
C2261 C2277 1.429 . S
C2261 H2283 0.950 . S
C2262 H2258 0.949 . S
C2262 C2270 1.574 . S
C2262 C2278 1.368 . S
H2263 C2271 0.950 . S
H2264 C2269 0.950 . S
H2265 C2270 0.949 . S
H2266 C2272 0.950 . S
H2267 C2273 0.950 . S
H2268 C2274 0.949 . S
C2269 H2264 0.950 . S
C2269 C2271 1.327 . S
C2269 C2275 1.429 . S
C2270 C2262 1.574 . S
C2270 H2265 0.949 . S
C2270 C2276 1.368 . S
C2271 C2255 1.349 1_565 S
C2271 H2263 0.950 . S
C2271 C2269 1.327 . S
C2272 C2260 1.349 . S
C2272 H2266 0.950 . S
C2272 C2273 1.327 . S
C2273 H2267 0.950 . S
C2273 C2272 1.327 . S
C2273 C2277 1.429 . S
C2274 C2257 1.574 . S
C2274 H2268 0.949 . S
C2274 C2278 1.368 . S
C2275 C2256 1.429 . S
C2275 C2269 1.429 . S
C2275 C2276 1.523 . S
C2276 C2257 1.368 . S
C2276 C2270 1.368 . S
C2276 C2275 1.523 . S
C2277 C2261 1.429 . S
C2277 C2273 1.429 . S
C2277 C2278 1.523 . S
C2278 C2262 1.368 . S
C2278 C2274 1.368 . S
C2278 C2277 1.523 . S
H2279 C2254 0.933 1_545 S
H2280 C2256 0.950 . S
H2281 C2257 0.949 . S
H2282 C2259 0.950 . S
H2283 C2261 0.950 . S
C2284 C2285 1.349 . S
C2284 C2286 1.327 . S
C2284 H2309 0.950 . S
C2285 C2284 1.349 . S
C2285 C2301 1.349 . S
C2286 C2284 1.327 . S
C2286 C2305 1.429 . S
C2286 H2310 0.950 . S
C2287 C2304 1.574 . S
C2287 C2306 1.368 . S
C2287 H2311 0.949 . S
H2288 C2292 0.949 . S
C2289 C2290 1.349 . S
C2289 C2291 1.327 . S
C2289 H2312 0.950 . S
C2290 C2289 1.349 . S
C2290 C2302 1.349 . S
C2291 C2289 1.327 . S
C2291 C2307 1.429 . S
C2291 H2313 0.950 . S
C2292 H2288 0.949 . S
C2292 C2300 1.574 . S
C2292 C2308 1.368 . S
H2293 C2301 0.950 . S
H2294 C2299 0.950 . S
H2295 C2300 0.949 . S
H2296 C2302 0.950 . S
H2297 C2303 0.950 . S
H2298 C2304 0.949 . S
C2299 H2294 0.950 . S
C2299 C2301 1.327 . S
C2299 C2305 1.429 . S
C2300 C2292 1.574 . S
C2300 H2295 0.949 . S
C2300 C2306 1.368 . S
C2301 C2285 1.349 . S
C2301 H2293 0.950 . S
C2301 C2299 1.327 . S
C2302 C2290 1.349 . S
C2302 H2296 0.950 . S
C2302 C2303 1.327 . S
C2303 H2297 0.950 . S
C2303 C2302 1.327 . S
C2303 C2307 1.429 . S
C2304 C2287 1.574 . S
C2304 H2298 0.949 . S
C2304 C2308 1.368 . S
C2305 C2286 1.429 . S
C2305 C2299 1.429 . S
C2305 C2306 1.523 . S
C2306 C2287 1.368 . S
C2306 C2300 1.368 . S
C2306 C2305 1.523 . S
C2307 C2291 1.429 . S
C2307 C2303 1.429 . S
C2307 C2308 1.523 . S
C2308 C2292 1.368 . S
C2308 C2304 1.368 . S
C2308 C2307 1.523 . S
H2309 C2284 0.950 . S
H2310 C2286 0.950 . S
H2311 C2287 0.949 . S
H2312 C2289 0.950 . S
H2313 C2291 0.950 . S
C2314 C2315 1.349 . S
C2314 C2316 1.327 . S
C2314 H2339 0.950 . S
C2315 C2314 1.349 . S
C2315 C2331 1.349 . S
C2316 C2314 1.327 . S
C2316 C2335 1.429 . S
C2316 H2340 0.950 . S
C2317 C2334 1.574 . S
C2317 C2336 1.368 . S
C2317 H2341 0.949 . S
H2318 C2322 0.949 . S
C2319 C2320 1.349 . S
C2319 C2321 1.327 . S
C2319 H2342 0.950 . S
C2320 C2319 1.349 . S
C2320 C2332 1.349 . S
C2321 C2319 1.327 . S
C2321 C2337 1.429 . S
C2321 H2343 0.950 . S
C2322 H2318 0.949 . S
C2322 C2330 1.574 . S
C2322 C2338 1.368 . S
H2323 C2331 0.950 . S
H2324 C2329 0.950 . S
H2325 C2330 0.949 . S
H2326 C2332 0.962 . S
H2327 C2333 0.950 . S
H2328 C2334 0.949 . S
C2329 H2324 0.950 . S
C2329 C2331 1.327 . S
C2329 C2335 1.429 . S
C2330 C2322 1.574 . S
C2330 H2325 0.949 . S
C2330 C2336 1.368 . S
C2331 C2315 1.349 . S
C2331 H2323 0.950 . S
C2331 C2329 1.327 . S
C2332 C2320 1.349 . S
C2332 H2326 0.962 . S
C2332 C2333 1.327 . S
C2333 H2327 0.950 . S
C2333 C2332 1.327 . S
C2333 C2337 1.429 . S
C2334 C2317 1.574 . S
C2334 H2328 0.949 . S
C2334 C2338 1.368 . S
C2335 C2316 1.429 . S
C2335 C2329 1.429 . S
C2335 C2336 1.523 . S
C2336 C2317 1.368 . S
C2336 C2330 1.368 . S
C2336 C2335 1.523 . S
C2337 C2321 1.429 . S
C2337 C2333 1.429 . S
C2337 C2338 1.523 . S
C2338 C2322 1.368 . S
C2338 C2334 1.368 . S
C2338 C2337 1.523 . S
H2339 C2314 0.950 . S
H2340 C2316 0.950 . S
H2341 C2317 0.949 . S
H2342 C2319 0.950 . S
H2343 C2321 0.950 . S
C2344 C2345 1.349 . S
C2344 C2346 1.327 . S
C2344 H2369 0.950 . S
C2345 C2344 1.349 . S
C2345 C2361 1.349 . S
C2346 C2344 1.327 . S
C2346 C2365 1.429 . S
C2346 H2370 0.950 . S
C2347 C2364 1.574 . S
C2347 C2366 1.368 . S
C2347 H2371 0.949 . S
H2348 C2352 0.949 . S
C2349 C2350 1.349 . S
C2349 C2351 1.327 . S
C2349 H2372 0.950 . S
C2350 C2349 1.349 . S
C2350 C2362 1.349 . S
C2351 C2349 1.327 . S
C2351 C2367 1.429 . S
C2351 H2373 0.950 . S
C2352 H2348 0.949 . S
C2352 C2360 1.574 . S
C2352 C2368 1.368 . S
H2353 C2361 0.950 . S
H2354 C2359 0.950 . S
H2355 C2360 0.949 . S
H2356 C2362 0.950 . S
H2357 C2363 0.950 . S
H2358 C2364 0.949 . S
C2359 H2354 0.950 . S
C2359 C2361 1.327 . S
C2359 C2365 1.429 . S
C2360 C2352 1.574 . S
C2360 H2355 0.949 . S
C2360 C2366 1.368 . S
C2361 C2345 1.349 . S
C2361 H2353 0.950 . S
C2361 C2359 1.327 . S
C2362 C2350 1.349 . S
C2362 H2356 0.950 . S
C2362 C2363 1.327 . S
C2363 H2357 0.950 . S
C2363 C2362 1.327 . S
C2363 C2367 1.429 . S
C2364 C2347 1.574 . S
C2364 H2358 0.949 . S
C2364 C2368 1.368 . S
C2365 C2346 1.429 . S
C2365 C2359 1.429 . S
C2365 C2366 1.523 . S
C2366 C2347 1.368 . S
C2366 C2360 1.368 . S
C2366 C2365 1.523 . S
C2367 C2351 1.429 . S
C2367 C2363 1.429 . S
C2367 C2368 1.523 . S
C2368 C2352 1.368 . S
C2368 C2364 1.368 . S
C2368 C2367 1.523 . S
H2369 C2344 0.950 . S
H2370 C2346 0.950 . S
H2371 C2347 0.949 . S
H2372 C2349 0.950 . S
H2373 C2351 0.950 . S
C2374 C2375 1.349 1_565 S
C2374 C2376 1.327 . S
C2374 H2399 0.950 1_565 S
C2375 C2374 1.349 1_545 S
C2375 C2391 1.349 1_545 S
C2376 C2374 1.327 . S
C2376 C2395 1.429 . S
C2376 H2400 0.950 . S
C2377 C2394 1.574 . S
C2377 C2396 1.368 . S
C2377 H2401 0.949 . S
H2378 C2382 0.949 . S
C2379 C2380 1.349 . S
C2379 C2381 1.327 . S
C2379 H2402 0.950 1_655 S
C2380 C2379 1.349 . S
C2380 C2392 1.349 . S
C2381 C2379 1.327 . S
C2381 C2397 1.429 . S
C2381 H2403 0.950 . S
C2382 H2378 0.949 . S
C2382 C2390 1.574 . S
C2382 C2398 1.368 . S
H2383 C2391 0.950 1_545 S
H2384 C2389 0.950 . S
H2385 C2390 0.949 . S
H2386 C2392 0.950 . S
H2387 C2393 0.950 . S
H2388 C2394 0.949 . S
C2389 H2384 0.950 . S
C2389 C2391 1.327 . S
C2389 C2395 1.429 . S
C2390 C2382 1.574 . S
C2390 H2385 0.949 . S
C2390 C2396 1.368 . S
C2391 C2375 1.349 1_565 S
C2391 H2383 0.950 1_565 S
C2391 C2389 1.327 . S
C2392 C2380 1.349 . S
C2392 H2386 0.950 . S
C2392 C2393 1.327 . S
C2393 H2387 0.950 . S
C2393 C2392 1.327 . S
C2393 C2397 1.429 . S
C2394 C2377 1.574 . S
C2394 H2388 0.949 . S
C2394 C2398 1.368 . S
C2395 C2376 1.429 . S
C2395 C2389 1.429 . S
C2395 C2396 1.523 . S
C2396 C2377 1.368 . S
C2396 C2390 1.368 . S
C2396 C2395 1.523 . S
C2397 C2381 1.429 . S
C2397 C2393 1.429 . S
C2397 C2398 1.523 . S
C2398 C2382 1.368 . S
C2398 C2394 1.368 . S
C2398 C2397 1.523 . S
H2399 C2374 0.950 1_545 S
H2400 C2376 0.950 . S
H2401 C2377 0.949 . S
H2402 C2379 0.950 1_455 S
H2403 C2381 0.950 . S
C2404 C2405 1.349 . S
C2404 C2406 1.327 . S
C2404 H2429 0.950 . S
C2405 C2404 1.349 . S
C2405 C2421 1.349 . S
C2406 C2404 1.327 . S
C2406 C2425 1.429 . S
C2406 H2430 0.950 . S
C2407 C2424 1.574 . S
C2407 C2426 1.368 . S
C2407 H2431 0.949 . S
H2408 C2412 0.949 . S
C2409 C2410 1.349 . S
C2409 C2411 1.327 . S
C2409 H2432 0.950 . S
C2410 C2409 1.349 . S
C2410 C2422 1.349 . S
C2411 C2409 1.327 . S
C2411 C2427 1.429 . S
C2411 H2433 0.950 . S
C2412 H2408 0.949 . S
C2412 C2420 1.574 . S
C2412 C2428 1.368 . S
H2413 C2421 0.950 . S
H2414 C2419 0.950 . S
H2415 C2420 0.949 . S
H2416 C2422 0.950 . S
H2417 C2423 0.950 . S
H2418 C2424 0.949 . S
C2419 H2414 0.950 . S
C2419 C2421 1.327 . S
C2419 C2425 1.429 . S
C2420 C2412 1.574 . S
C2420 H2415 0.949 . S
C2420 C2426 1.368 . S
C2421 C2405 1.349 . S
C2421 H2413 0.950 . S
C2421 C2419 1.327 . S
C2422 C2410 1.349 . S
C2422 H2416 0.950 . S
C2422 C2423 1.327 . S
C2423 H2417 0.950 . S
C2423 C2422 1.327 . S
C2423 C2427 1.429 . S
C2424 C2407 1.574 . S
C2424 H2418 0.949 . S
C2424 C2428 1.368 . S
C2425 C2406 1.429 . S
C2425 C2419 1.429 . S
C2425 C2426 1.523 . S
C2426 C2407 1.368 . S
C2426 C2420 1.368 . S
C2426 C2425 1.523 . S
C2427 C2411 1.429 . S
C2427 C2423 1.429 . S
C2427 C2428 1.523 . S
C2428 C2412 1.368 . S
C2428 C2424 1.368 . S
C2428 C2427 1.523 . S
H2429 C2404 0.950 . S
H2430 C2406 0.950 . S
H2431 C2407 0.949 . S
H2432 C2409 0.950 . S
H2433 C2411 0.950 . S
C2434 C2435 1.349 . S
C2434 C2436 1.327 . S
C2434 H2459 0.950 . S
C2435 C2434 1.349 . S
C2435 C2451 1.349 . S
C2436 C2434 1.327 . S
C2436 C2455 1.429 . S
C2436 H2460 0.950 . S
C2437 C2454 1.574 . S
C2437 C2456 1.368 . S
C2437 H2461 0.949 . S
H2438 C2442 0.949 . S
C2439 C2440 1.349 . S
C2439 C2441 1.327 . S
C2439 H2462 0.950 . S
C2440 C2439 1.349 . S
C2440 C2452 1.349 . S
C2441 C2439 1.327 . S
C2441 C2457 1.429 . S
C2441 H2463 0.950 . S
C2442 H2438 0.949 . S
C2442 C2450 1.574 . S
C2442 C2458 1.368 . S
H2443 C2451 0.950 . S
H2444 C2449 0.950 . S
H2445 C2450 0.949 . S
H2446 C2452 0.950 1_556 S
H2447 C2453 0.950 . S
H2448 C2454 0.949 . S
C2449 H2444 0.950 . S
C2449 C2451 1.327 . S
C2449 C2455 1.429 . S
C2450 C2442 1.574 . S
C2450 H2445 0.949 . S
C2450 C2456 1.368 . S
C2451 C2435 1.349 . S
C2451 H2443 0.950 . S
C2451 C2449 1.327 . S
C2452 C2440 1.349 . S
C2452 H2446 0.950 1_554 S
C2452 C2453 1.327 . S
C2453 H2447 0.950 . S
C2453 C2452 1.327 . S
C2453 C2457 1.429 . S
C2454 C2437 1.574 . S
C2454 H2448 0.949 . S
C2454 C2458 1.368 . S
C2455 C2436 1.429 . S
C2455 C2449 1.429 . S
C2455 C2456 1.523 . S
C2456 C2437 1.368 . S
C2456 C2450 1.368 . S
C2456 C2455 1.523 . S
C2457 C2441 1.429 . S
C2457 C2453 1.429 . S
C2457 C2458 1.523 . S
C2458 C2442 1.368 . S
C2458 C2454 1.368 . S
C2458 C2457 1.523 . S
H2459 C2434 0.950 . S
H2460 C2436 0.950 . S
H2461 C2437 0.949 . S
H2462 C2439 0.950 . S
H2463 C2441 0.950 . S
C2464 C2465 1.349 . S
C2464 C2466 1.327 . S
C2464 H2489 0.950 . S
C2465 C2464 1.349 . S
C2465 C2481 1.349 . S
C2466 C2464 1.327 . S
C2466 C2485 1.429 . S
C2466 H2490 0.950 . S
C2467 C2484 1.574 . S
C2467 C2486 1.368 . S
C2467 H2491 0.949 . S
H2468 C2472 0.949 . S
C2469 C2470 1.349 . S
C2469 C2471 1.327 . S
C2469 H2492 0.950 . S
C2470 C2469 1.349 . S
C2470 C2482 1.349 . S
C2471 C2469 1.327 . S
C2471 C2487 1.429 . S
C2471 H2493 0.950 . S
C2472 H2468 0.949 . S
C2472 C2480 1.574 . S
C2472 C2488 1.368 . S
H2473 C2481 0.950 . S
H2474 C2479 0.950 . S
H2475 C2480 0.949 . S
H2476 C2482 0.950 . S
H2477 C2483 0.950 . S
H2478 C2484 0.949 . S
C2479 H2474 0.950 . S
C2479 C2481 1.327 . S
C2479 C2485 1.429 . S
C2480 C2472 1.574 . S
C2480 H2475 0.949 . S
C2480 C2486 1.368 . S
C2481 C2465 1.349 . S
C2481 H2473 0.950 . S
C2481 C2479 1.327 . S
C2482 C2470 1.349 . S
C2482 H2476 0.950 . S
C2482 C2483 1.327 . S
C2483 H2477 0.950 . S
C2483 C2482 1.327 . S
C2483 C2487 1.429 . S
C2484 C2467 1.574 . S
C2484 H2478 0.949 . S
C2484 C2488 1.368 . S
C2485 C2466 1.429 . S
C2485 C2479 1.429 . S
C2485 C2486 1.523 . S
C2486 C2467 1.368 . S
C2486 C2480 1.368 . S
C2486 C2485 1.523 . S
C2487 C2471 1.429 . S
C2487 C2483 1.429 . S
C2487 C2488 1.523 . S
C2488 C2472 1.368 . S
C2488 C2484 1.368 . S
C2488 C2487 1.523 . S
H2489 C2464 0.950 . S
H2490 C2466 0.950 . S
H2491 C2467 0.949 . S
H2492 C2469 0.950 . S
H2493 C2471 0.950 . S
C2494 C2495 1.349 . S
C2494 C2496 1.327 . S
C2494 H2519 0.950 . S
C2495 C2494 1.349 . S
C2495 C2511 1.349 . S
C2496 C2494 1.327 . S
C2496 C2515 1.429 . S
C2496 H2520 0.950 . S
C2497 C2514 1.574 . S
C2497 C2516 1.368 . S
C2497 H2521 0.949 . S
H2498 C2502 0.949 . S
C2499 C2500 1.349 . S
C2499 C2501 1.327 . S
C2499 H2522 0.950 . S
C2500 C2499 1.349 . S
C2500 C2512 1.349 . S
C2501 C2499 1.327 . S
C2501 C2517 1.429 . S
C2501 H2523 0.950 . S
C2502 H2498 0.949 . S
C2502 C2510 1.574 . S
C2502 C2518 1.368 . S
H2503 C2511 0.950 . S
H2504 C2509 0.950 . S
H2505 C2510 0.949 . S
H2506 C2512 0.950 1_556 S
H2507 C2513 0.950 . S
H2508 C2514 0.949 . S
C2509 H2504 0.950 . S
C2509 C2511 1.327 . S
C2509 C2515 1.429 . S
C2510 C2502 1.574 . S
C2510 H2505 0.949 . S
C2510 C2516 1.368 . S
C2511 C2495 1.349 . S
C2511 H2503 0.950 . S
C2511 C2509 1.327 . S
C2512 C2500 1.349 . S
C2512 H2506 0.950 1_554 S
C2512 C2513 1.327 . S
C2513 H2507 0.950 . S
C2513 C2512 1.327 . S
C2513 C2517 1.429 . S
C2514 C2497 1.574 . S
C2514 H2508 0.949 . S
C2514 C2518 1.368 . S
C2515 C2496 1.429 . S
C2515 C2509 1.429 . S
C2515 C2516 1.523 . S
C2516 C2497 1.368 . S
C2516 C2510 1.368 . S
C2516 C2515 1.523 . S
C2517 C2501 1.429 . S
C2517 C2513 1.429 . S
C2517 C2518 1.523 . S
C2518 C2502 1.368 . S
C2518 C2514 1.368 . S
C2518 C2517 1.523 . S
H2519 C2494 0.950 . S
H2520 C2496 0.950 . S
H2521 C2497 0.949 . S
H2522 C2499 0.950 . S
H2523 C2501 0.950 . S
C2524 C2525 1.349 . S
C2524 C2526 1.327 . S
C2524 H2549 0.950 . S
C2525 C2524 1.349 . S
C2525 C2541 1.349 . S
C2526 C2524 1.327 . S
C2526 C2545 1.429 . S
C2526 H2550 0.950 . S
C2527 C2544 1.574 . S
C2527 C2546 1.368 . S
C2527 H2551 0.949 . S
H2528 C2532 0.949 . S
C2529 C2530 1.349 . S
C2529 C2531 1.327 . S
C2529 H2552 0.950 . S
C2530 C2529 1.349 . S
C2530 C2542 1.349 . S
C2531 C2529 1.327 . S
C2531 C2547 1.429 . S
C2531 H2553 0.950 . S
C2532 H2528 0.949 . S
C2532 C2540 1.574 . S
C2532 C2548 1.368 . S
H2533 C2541 0.950 . S
H2534 C2539 0.950 . S
H2535 C2540 0.949 . S
H2536 C2542 0.950 . S
H2537 C2543 0.950 . S
H2538 C2544 0.949 . S
C2539 H2534 0.950 . S
C2539 C2541 1.327 . S
C2539 C2545 1.429 . S
C2540 C2532 1.574 . S
C2540 H2535 0.949 . S
C2540 C2546 1.368 . S
C2541 C2525 1.349 . S
C2541 H2533 0.950 . S
C2541 C2539 1.327 . S
C2542 C2530 1.349 . S
C2542 H2536 0.950 . S
C2542 C2543 1.327 . S
C2543 H2537 0.950 . S
C2543 C2542 1.327 . S
C2543 C2547 1.429 . S
C2544 C2527 1.574 . S
C2544 H2538 0.949 . S
C2544 C2548 1.368 . S
C2545 C2526 1.429 . S
C2545 C2539 1.429 . S
C2545 C2546 1.523 . S
C2546 C2527 1.368 . S
C2546 C2540 1.368 . S
C2546 C2545 1.523 . S
C2547 C2531 1.429 . S
C2547 C2543 1.429 . S
C2547 C2548 1.523 . S
C2548 C2532 1.368 . S
C2548 C2544 1.368 . S
C2548 C2547 1.523 . S
H2549 C2524 0.950 . S
H2550 C2526 0.950 . S
H2551 C2527 0.949 . S
H2552 C2529 0.950 . S
H2553 C2531 0.950 . S
C2554 C2555 1.349 1_455 S
C2554 C2556 1.327 . S
C2554 H2579 0.950 . S
C2555 C2554 1.349 1_655 S
C2555 C2571 1.349 1_655 S
C2556 C2554 1.327 . S
C2556 C2575 1.429 . S
C2556 H2580 0.950 . S
C2557 C2574 1.574 . S
C2557 C2576 1.368 . S
C2557 H2581 0.949 . S
H2558 C2562 0.949 . S
C2559 C2560 1.349 . S
C2559 C2561 1.327 . S
C2559 H2582 0.950 . S
C2560 C2559 1.349 . S
C2560 C2572 1.349 . S
C2561 C2559 1.327 . S
C2561 C2577 1.429 . S
C2561 H2583 0.950 . S
C2562 H2558 0.949 . S
C2562 C2570 1.574 . S
C2562 C2578 1.368 . S
H2563 C2571 0.950 1_655 S
H2564 C2569 0.950 . S
H2565 C2570 0.949 . S
H2566 C2572 0.950 . S
H2567 C2573 0.950 . S
H2568 C2574 0.949 . S
C2569 H2564 0.950 . S
C2569 C2571 1.327 . S
C2569 C2575 1.429 . S
C2570 C2562 1.574 . S
C2570 H2565 0.949 . S
C2570 C2576 1.368 . S
C2571 C2555 1.349 1_455 S
C2571 H2563 0.950 1_455 S
C2571 C2569 1.327 . S
C2572 C2560 1.349 . S
C2572 H2566 0.950 . S
C2572 C2573 1.327 . S
C2573 H2567 0.950 . S
C2573 C2572 1.327 . S
C2573 C2577 1.429 . S
C2574 C2557 1.574 . S
C2574 H2568 0.949 . S
C2574 C2578 1.368 . S
C2575 C2556 1.429 . S
C2575 C2569 1.429 . S
C2575 C2576 1.523 . S
C2576 C2557 1.368 . S
C2576 C2570 1.368 . S
C2576 C2575 1.523 . S
C2577 C2561 1.429 . S
C2577 C2573 1.429 . S
C2577 C2578 1.523 . S
C2578 C2562 1.368 . S
C2578 C2574 1.368 . S
C2578 C2577 1.523 . S
H2579 C2554 0.950 . S
H2580 C2556 0.950 . S
H2581 C2557 0.949 . S
H2582 C2559 0.950 . S
H2583 C2561 0.950 . S
C2584 C2585 1.349 . S
C2584 C2586 1.327 . S
C2584 H2609 0.950 . S
C2585 C2584 1.349 . S
C2585 C2601 1.349 . S
C2586 C2584 1.327 . S
C2586 C2605 1.429 . S
C2586 H2610 0.950 . S
C2587 C2604 1.574 . S
C2587 C2606 1.368 . S
C2587 H2611 0.949 . S
H2588 C2592 0.949 . S
C2589 C2590 1.349 . S
C2589 C2591 1.327 . S
C2589 H2612 0.950 . S
C2590 C2589 1.349 . S
C2590 C2602 1.349 . S
C2591 C2589 1.327 . S
C2591 C2607 1.429 . S
C2591 H2613 0.950 . S
C2592 H2588 0.949 . S
C2592 C2600 1.574 . S
C2592 C2608 1.368 . S
H2593 C2601 0.950 . S
H2594 C2599 0.950 . S
H2595 C2600 0.949 . S
H2596 C2602 0.950 . S
H2597 C2603 0.950 . S
H2598 C2604 0.949 . S
C2599 H2594 0.950 . S
C2599 C2601 1.327 . S
C2599 C2605 1.429 . S
C2600 C2592 1.574 . S
C2600 H2595 0.949 . S
C2600 C2606 1.368 . S
C2601 C2585 1.349 . S
C2601 H2593 0.950 . S
C2601 C2599 1.327 . S
C2602 C2590 1.349 . S
C2602 H2596 0.950 . S
C2602 C2603 1.327 . S
C2603 H2597 0.950 . S
C2603 C2602 1.327 . S
C2603 C2607 1.429 . S
C2604 C2587 1.574 . S
C2604 H2598 0.949 . S
C2604 C2608 1.368 . S
C2605 C2586 1.429 . S
C2605 C2599 1.429 . S
C2605 C2606 1.523 . S
C2606 C2587 1.368 . S
C2606 C2600 1.368 . S
C2606 C2605 1.523 . S
C2607 C2591 1.429 . S
C2607 C2603 1.429 . S
C2607 C2608 1.523 . S
C2608 C2592 1.368 . S
C2608 C2604 1.368 . S
C2608 C2607 1.523 . S
H2609 C2584 0.950 . S
H2610 C2586 0.950 . S
H2611 C2587 0.949 . S
H2612 C2589 0.950 . S
H2613 C2591 0.950 . S
C2614 C2615 1.349 1_655 S
C2614 C2616 1.327 . S
C2614 H2639 0.950 1_655 S
C2615 C2614 1.349 1_455 S
C2615 C2631 1.349 1_455 S
C2616 C2614 1.327 . S
C2616 C2635 1.429 . S
C2616 H2640 0.950 . S
C2617 C2634 1.574 . S
C2617 C2636 1.368 . S
C2617 H2641 0.949 . S
H2618 C2622 0.949 . S
C2619 C2620 1.349 . S
C2619 C2621 1.327 . S
C2619 H2642 0.950 . S
C2620 C2619 1.349 . S
C2620 C2632 1.349 . S
C2621 C2619 1.327 . S
C2621 C2637 1.429 . S
C2621 H2643 0.950 . S
C2622 H2618 0.949 . S
C2622 C2630 1.574 . S
C2622 C2638 1.368 . S
H2623 C2631 0.950 . S
H2624 C2629 0.950 . S
H2625 C2630 0.949 . S
H2626 C2632 0.950 . S
H2627 C2633 0.950 . S
H2628 C2634 0.949 . S
C2629 H2624 0.950 . S
C2629 C2631 1.327 . S
C2629 C2635 1.429 . S
C2630 C2622 1.574 . S
C2630 H2625 0.949 . S
C2630 C2636 1.368 . S
C2631 C2615 1.349 1_655 S
C2631 H2623 0.950 . S
C2631 C2629 1.327 . S
C2632 C2620 1.349 . S
C2632 H2626 0.950 . S
C2632 C2633 1.327 . S
C2633 H2627 0.950 . S
C2633 C2632 1.327 . S
C2633 C2637 1.429 . S
C2634 C2617 1.574 . S
C2634 H2628 0.949 . S
C2634 C2638 1.368 . S
C2635 C2616 1.429 . S
C2635 C2629 1.429 . S
C2635 C2636 1.523 . S
C2636 C2617 1.368 . S
C2636 C2630 1.368 . S
C2636 C2635 1.523 . S
C2637 C2621 1.429 . S
C2637 C2633 1.429 . S
C2637 C2638 1.523 . S
C2638 C2622 1.368 . S
C2638 C2634 1.368 . S
C2638 C2637 1.523 . S
H2639 C2614 0.950 1_455 S
H2640 C2616 0.950 . S
H2641 C2617 0.949 . S
H2642 C2619 0.950 . S
H2643 C2621 0.950 . S
C2644 C2645 1.349 . S
C2644 C2646 1.327 . S
C2644 H2669 0.950 . S
C2645 C2644 1.349 . S
C2645 C2661 1.349 . S
C2646 C2644 1.327 . S
C2646 C2665 1.429 . S
C2646 H2670 0.950 . S
C2647 C2664 1.574 . S
C2647 C2666 1.368 . S
C2647 H2671 0.949 . S
H2648 C2652 0.949 . S
C2649 C2650 1.349 . S
C2649 C2651 1.327 . S
C2649 H2672 0.950 . S
C2650 C2649 1.349 . S
C2650 C2662 1.349 . S
C2651 C2649 1.327 . S
C2651 C2667 1.429 . S
C2651 H2673 0.950 . S
C2652 H2648 0.949 . S
C2652 C2660 1.574 . S
C2652 C2668 1.368 . S
H2653 C2661 0.950 . S
H2654 C2659 0.950 . S
H2655 C2660 0.949 . S
H2656 C2662 0.950 . S
H2657 C2663 0.950 . S
H2658 C2664 0.949 . S
C2659 H2654 0.950 . S
C2659 C2661 1.327 . S
C2659 C2665 1.429 . S
C2660 C2652 1.574 . S
C2660 H2655 0.949 . S
C2660 C2666 1.368 . S
C2661 C2645 1.349 . S
C2661 H2653 0.950 . S
C2661 C2659 1.327 . S
C2662 C2650 1.349 . S
C2662 H2656 0.950 . S
C2662 C2663 1.327 . S
C2663 H2657 0.950 . S
C2663 C2662 1.327 . S
C2663 C2667 1.429 . S
C2664 C2647 1.574 . S
C2664 H2658 0.949 . S
C2664 C2668 1.368 . S
C2665 C2646 1.429 . S
C2665 C2659 1.429 . S
C2665 C2666 1.523 . S
C2666 C2647 1.368 . S
C2666 C2660 1.368 . S
C2666 C2665 1.523 . S
C2667 C2651 1.429 . S
C2667 C2663 1.429 . S
C2667 C2668 1.523 . S
C2668 C2652 1.368 . S
C2668 C2664 1.368 . S
C2668 C2667 1.523 . S
H2669 C2644 0.950 . S
H2670 C2646 0.950 . S
H2671 C2647 0.949 . S
H2672 C2649 0.950 . S
H2673 C2651 0.950 . S
C2674 C2675 1.349 . S
C2674 C2676 1.327 . S
C2674 H2699 0.950 . S
C2675 C2674 1.349 . S
C2675 C2691 1.349 . S
C2676 C2674 1.327 . S
C2676 C2695 1.429 . S
C2676 H2700 0.950 . S
C2677 C2694 1.574 . S
C2677 C2696 1.368 . S
C2677 H2701 0.949 . S
H2678 C2682 0.949 . S
C2679 C2680 1.349 . S
C2679 C2681 1.327 . S
C2679 H2702 0.950 . S
C2680 C2679 1.349 . S
C2680 C2692 1.349 . S
C2681 C2679 1.327 . S
C2681 C2697 1.429 . S
C2681 H2703 0.950 . S
C2682 H2678 0.949 . S
C2682 C2690 1.574 . S
C2682 C2698 1.368 . S
H2683 C2691 0.950 . S
H2684 C2689 0.950 . S
H2685 C2690 0.949 . S
H2686 C2692 0.950 . S
H2687 C2693 0.950 . S
H2688 C2694 0.949 . S
C2689 H2684 0.950 . S
C2689 C2691 1.327 . S
C2689 C2695 1.429 . S
C2690 C2682 1.574 . S
C2690 H2685 0.949 . S
C2690 C2696 1.368 . S
C2691 C2675 1.349 . S
C2691 H2683 0.950 . S
C2691 C2689 1.327 . S
C2692 C2680 1.349 . S
C2692 H2686 0.950 . S
C2692 C2693 1.327 . S
C2693 H2687 0.950 . S
C2693 C2692 1.327 . S
C2693 C2697 1.429 . S
C2694 C2677 1.574 . S
C2694 H2688 0.949 . S
C2694 C2698 1.368 . S
C2695 C2676 1.429 . S
C2695 C2689 1.429 . S
C2695 C2696 1.523 . S
C2696 C2677 1.368 . S
C2696 C2690 1.368 . S
C2696 C2695 1.523 . S
C2697 C2681 1.429 . S
C2697 C2693 1.429 . S
C2697 C2698 1.523 . S
C2698 C2682 1.368 . S
C2698 C2694 1.368 . S
C2698 C2697 1.523 . S
H2699 C2674 0.950 . S
H2700 C2676 0.950 . S
H2701 C2677 0.949 . S
H2702 C2679 0.950 . S
H2703 C2681 0.950 . S
C2704 C2705 1.349 . S
C2704 C2706 1.327 . S
C2704 H2729 0.950 1_556 S
C2705 C2704 1.349 . S
C2705 C2721 1.349 . S
C2706 C2704 1.327 . S
C2706 C2725 1.429 . S
C2706 H2730 0.950 . S
C2707 C2724 1.574 . S
C2707 C2726 1.368 . S
C2707 H2731 0.949 . S
H2708 C2712 0.949 . S
C2709 C2710 1.349 . S
C2709 C2711 1.327 . S
C2709 H2732 0.950 . S
C2710 C2709 1.349 . S
C2710 C2722 1.349 . S
C2711 C2709 1.327 . S
C2711 C2727 1.429 . S
C2711 H2733 0.950 . S
C2712 H2708 0.949 . S
C2712 C2720 1.574 . S
C2712 C2728 1.368 . S
H2713 C2721 0.950 . S
H2714 C2719 0.950 . S
H2715 C2720 0.949 . S
H2716 C2722 0.950 . S
H2717 C2723 0.950 . S
H2718 C2724 0.949 . S
C2719 H2714 0.950 . S
C2719 C2721 1.327 . S
C2719 C2725 1.429 . S
C2720 C2712 1.574 . S
C2720 H2715 0.949 . S
C2720 C2726 1.368 . S
C2721 C2705 1.349 . S
C2721 H2713 0.950 . S
C2721 C2719 1.327 . S
C2722 C2710 1.349 . S
C2722 H2716 0.950 . S
C2722 C2723 1.327 . S
C2723 H2717 0.950 . S
C2723 C2722 1.327 . S
C2723 C2727 1.429 . S
C2724 C2707 1.574 . S
C2724 H2718 0.949 . S
C2724 C2728 1.368 . S
C2725 C2706 1.429 . S
C2725 C2719 1.429 . S
C2725 C2726 1.523 . S
C2726 C2707 1.368 . S
C2726 C2720 1.368 . S
C2726 C2725 1.523 . S
C2727 C2711 1.429 . S
C2727 C2723 1.429 . S
C2727 C2728 1.523 . S
C2728 C2712 1.368 . S
C2728 C2724 1.368 . S
C2728 C2727 1.523 . S
H2729 C2704 0.950 1_554 S
H2730 C2706 0.950 . S
H2731 C2707 0.949 . S
H2732 C2709 0.950 . S
H2733 C2711 0.950 . S
C2734 C2735 1.349 . S
C2734 C2736 1.327 . S
C2734 H2759 0.950 . S
C2735 C2734 1.349 . S
C2735 C2751 1.349 . S
C2736 C2734 1.327 . S
C2736 C2755 1.429 . S
C2736 H2760 0.950 . S
C2737 C2754 1.574 . S
C2737 C2756 1.368 . S
C2737 H2761 0.949 . S
H2738 C2742 0.949 . S
C2739 C2740 1.349 . S
C2739 C2741 1.327 . S
C2739 H2762 0.950 . S
C2740 C2739 1.349 . S
C2740 C2752 1.349 . S
C2741 C2739 1.327 . S
C2741 C2757 1.429 . S
C2741 H2763 0.950 . S
C2742 H2738 0.949 . S
C2742 C2750 1.574 . S
C2742 C2758 1.368 . S
H2743 C2751 0.950 . S
H2744 C2749 0.950 . S
H2745 C2750 0.949 . S
H2746 C2752 0.950 . S
H2747 C2753 0.950 . S
H2748 C2754 0.949 . S
C2749 H2744 0.950 . S
C2749 C2751 1.327 . S
C2749 C2755 1.429 . S
C2750 C2742 1.574 . S
C2750 H2745 0.949 . S
C2750 C2756 1.368 . S
C2751 C2735 1.349 . S
C2751 H2743 0.950 . S
C2751 C2749 1.327 . S
C2752 C2740 1.349 . S
C2752 H2746 0.950 . S
C2752 C2753 1.327 . S
C2753 H2747 0.950 . S
C2753 C2752 1.327 . S
C2753 C2757 1.429 . S
C2754 C2737 1.574 . S
C2754 H2748 0.949 . S
C2754 C2758 1.368 . S
C2755 C2736 1.429 . S
C2755 C2749 1.429 . S
C2755 C2756 1.523 . S
C2756 C2737 1.368 . S
C2756 C2750 1.368 . S
C2756 C2755 1.523 . S
C2757 C2741 1.429 . S
C2757 C2753 1.429 . S
C2757 C2758 1.523 . S
C2758 C2742 1.368 . S
C2758 C2754 1.368 . S
C2758 C2757 1.523 . S
H2759 C2734 0.950 . S
H2760 C2736 0.950 . S
H2761 C2737 0.949 . S
H2762 C2739 0.950 . S
H2763 C2741 0.950 . S
C2764 C2765 1.349 . S
C2764 C2766 1.327 . S
C2764 H2789 0.950 . S
C2765 C2764 1.349 . S
C2765 C2781 1.349 . S
C2766 C2764 1.327 . S
C2766 C2785 1.429 . S
C2766 H2790 0.950 . S
C2767 C2784 1.574 . S
C2767 C2786 1.368 . S
C2767 H2791 0.949 . S
H2768 C2772 0.949 . S
C2769 C2770 1.349 . S
C2769 C2771 1.327 . S
C2769 H2792 0.950 . S
C2770 C2769 1.349 . S
C2770 C2782 1.349 . S
C2771 C2769 1.327 . S
C2771 C2787 1.429 . S
C2771 H2793 0.950 . S
C2772 H2768 0.949 . S
C2772 C2780 1.574 . S
C2772 C2788 1.368 . S
H2773 C2781 0.950 . S
H2774 C2779 0.950 . S
H2775 C2780 0.949 . S
H2776 C2782 0.950 . S
H2777 C2783 0.950 . S
H2778 C2784 0.949 . S
C2779 H2774 0.950 . S
C2779 C2781 1.327 . S
C2779 C2785 1.429 . S
C2780 C2772 1.574 . S
C2780 H2775 0.949 . S
C2780 C2786 1.368 . S
C2781 C2765 1.349 . S
C2781 H2773 0.950 . S
C2781 C2779 1.327 . S
C2782 C2770 1.349 . S
C2782 H2776 0.950 . S
C2782 C2783 1.327 . S
C2783 H2777 0.950 . S
C2783 C2782 1.327 . S
C2783 C2787 1.429 . S
C2784 C2767 1.574 . S
C2784 H2778 0.949 . S
C2784 C2788 1.368 . S
C2785 C2766 1.429 . S
C2785 C2779 1.429 . S
C2785 C2786 1.523 . S
C2786 C2767 1.368 . S
C2786 C2780 1.368 . S
C2786 C2785 1.523 . S
C2787 C2771 1.429 . S
C2787 C2783 1.429 . S
C2787 C2788 1.523 . S
C2788 C2772 1.368 . S
C2788 C2784 1.368 . S
C2788 C2787 1.523 . S
H2789 C2764 0.950 . S
H2790 C2766 0.950 . S
H2791 C2767 0.949 . S
H2792 C2769 0.950 . S
H2793 C2771 0.950 . S
C2794 C2795 1.349 . S
C2794 C2796 1.327 . S
C2794 H2819 0.950 . S
C2795 C2794 1.349 . S
C2795 C2811 1.349 . S
C2796 C2794 1.327 . S
C2796 C2815 1.429 . S
C2796 H2820 0.950 . S
C2797 C2814 1.574 . S
C2797 C2816 1.368 . S
C2797 H2821 0.949 . S
H2798 C2802 0.949 . S
C2799 C2800 1.349 . S
C2799 C2801 1.327 . S
C2799 H2822 0.950 . S
C2800 C2799 1.349 . S
C2800 C2812 1.349 . S
C2801 C2799 1.327 . S
C2801 C2817 1.429 . S
C2801 H2823 0.950 . S
C2802 H2798 0.949 . S
C2802 C2810 1.574 . S
C2802 C2818 1.368 . S
H2803 C2811 0.950 . S
H2804 C2809 0.950 . S
H2805 C2810 0.949 . S
H2806 C2812 0.950 . S
H2807 C2813 0.950 . S
H2808 C2814 0.949 . S
C2809 H2804 0.950 . S
C2809 C2811 1.327 . S
C2809 C2815 1.429 . S
C2810 C2802 1.574 . S
C2810 H2805 0.949 . S
C2810 C2816 1.368 . S
C2811 C2795 1.349 . S
C2811 H2803 0.950 . S
C2811 C2809 1.327 . S
C2812 C2800 1.349 . S
C2812 H2806 0.950 . S
C2812 C2813 1.327 . S
C2813 H2807 0.950 . S
C2813 C2812 1.327 . S
C2813 C2817 1.429 . S
C2814 C2797 1.574 . S
C2814 H2808 0.949 . S
C2814 C2818 1.368 . S
C2815 C2796 1.429 . S
C2815 C2809 1.429 . S
C2815 C2816 1.523 . S
C2816 C2797 1.368 . S
C2816 C2810 1.368 . S
C2816 C2815 1.523 . S
C2817 C2801 1.429 . S
C2817 C2813 1.429 . S
C2817 C2818 1.523 . S
C2818 C2802 1.368 . S
C2818 C2814 1.368 . S
C2818 C2817 1.523 . S
H2819 C2794 0.950 . S
H2820 C2796 0.950 . S
H2821 C2797 0.949 . S
H2822 C2799 0.950 . S
H2823 C2801 0.950 . S
C2824 C2825 1.349 . S
C2824 C2826 1.327 . S
C2824 H2849 0.950 . S
C2825 C2824 1.349 . S
C2825 C2841 1.349 . S
C2826 C2824 1.327 . S
C2826 C2845 1.429 . S
C2826 H2850 0.950 . S
C2827 C2844 1.574 . S
C2827 C2846 1.368 . S
C2827 H2851 0.949 . S
H2828 C2832 0.949 . S
C2829 C2830 1.349 . S
C2829 C2831 1.327 . S
C2829 H2852 0.950 . S
C2830 C2829 1.349 . S
C2830 C2842 1.349 . S
C2831 C2829 1.327 . S
C2831 C2847 1.429 . S
C2831 H2853 0.950 . S
C2832 H2828 0.949 . S
C2832 C2840 1.574 . S
C2832 C2848 1.368 . S
H2833 C2841 0.950 . S
H2834 C2839 0.950 . S
H2835 C2840 0.949 . S
H2836 C2842 0.950 . S
H2837 C2843 0.950 . S
H2838 C2844 0.949 . S
C2839 H2834 0.950 . S
C2839 C2841 1.327 . S
C2839 C2845 1.429 . S
C2840 C2832 1.574 . S
C2840 H2835 0.949 . S
C2840 C2846 1.368 . S
C2841 C2825 1.349 . S
C2841 H2833 0.950 . S
C2841 C2839 1.327 . S
C2842 C2830 1.349 . S
C2842 H2836 0.950 . S
C2842 C2843 1.327 . S
C2843 H2837 0.950 . S
C2843 C2842 1.327 . S
C2843 C2847 1.429 . S
C2844 C2827 1.574 . S
C2844 H2838 0.949 . S
C2844 C2848 1.368 . S
C2845 C2826 1.429 . S
C2845 C2839 1.429 . S
C2845 C2846 1.523 . S
C2846 C2827 1.368 . S
C2846 C2840 1.368 . S
C2846 C2845 1.523 . S
C2847 C2831 1.429 . S
C2847 C2843 1.429 . S
C2847 C2848 1.523 . S
C2848 C2832 1.368 . S
C2848 C2844 1.368 . S
C2848 C2847 1.523 . S
H2849 C2824 0.950 . S
H2850 C2826 0.950 . S
H2851 C2827 0.949 . S
H2852 C2829 0.950 . S
H2853 C2831 0.950 . S
C2854 C2855 1.349 . S
C2854 C2856 1.327 . S
C2854 H2879 0.950 . S
C2855 C2854 1.349 . S
C2855 C2871 1.349 . S
C2856 C2854 1.327 . S
C2856 C2875 1.429 . S
C2856 H2880 0.950 . S
C2857 C2874 1.574 . S
C2857 C2876 1.368 . S
C2857 H2881 0.949 . S
H2858 C2862 0.949 . S
C2859 C2860 1.349 . S
C2859 C2861 1.327 . S
C2859 H2882 0.950 . S
C2860 C2859 1.349 . S
C2860 C2872 1.349 . S
C2861 C2859 1.327 . S
C2861 C2877 1.429 . S
C2861 H2883 0.950 . S
C2862 H2858 0.949 . S
C2862 C2870 1.574 . S
C2862 C2878 1.368 . S
H2863 C2871 0.950 . S
H2864 C2869 0.950 . S
H2865 C2870 0.949 . S
H2866 C2872 0.950 1_565 S
H2867 C2873 0.950 . S
H2868 C2874 0.949 . S
C2869 H2864 0.950 . S
C2869 C2871 1.327 . S
C2869 C2875 1.429 . S
C2870 C2862 1.574 . S
C2870 H2865 0.949 . S
C2870 C2876 1.368 . S
C2871 C2855 1.349 . S
C2871 H2863 0.950 . S
C2871 C2869 1.327 . S
C2872 C2860 1.349 . S
C2872 H2866 0.950 1_545 S
C2872 C2873 1.327 . S
C2873 H2867 0.950 . S
C2873 C2872 1.327 . S
C2873 C2877 1.429 . S
C2874 C2857 1.574 . S
C2874 H2868 0.949 . S
C2874 C2878 1.368 . S
C2875 C2856 1.429 . S
C2875 C2869 1.429 . S
C2875 C2876 1.523 . S
C2876 C2857 1.368 . S
C2876 C2870 1.368 . S
C2876 C2875 1.523 . S
C2877 C2861 1.429 . S
C2877 C2873 1.429 . S
C2877 C2878 1.523 . S
C2878 C2862 1.368 . S
C2878 C2874 1.368 . S
C2878 C2877 1.523 . S
H2879 C2854 0.950 . S
H2880 C2856 0.950 . S
H2881 C2857 0.949 . S
H2882 C2859 0.950 . S
H2883 C2861 0.950 . S
C2884 C2885 1.349 . S
C2884 C2886 1.327 . S
C2884 H2909 0.950 . S
C2885 C2884 1.349 . S
C2885 C2901 1.349 . S
C2886 C2884 1.327 . S
C2886 C2905 1.429 . S
C2886 H2910 0.950 . S
C2887 C2904 1.574 . S
C2887 C2906 1.368 . S
C2887 H2911 0.949 . S
H2888 C2892 0.949 . S
C2889 C2890 1.349 . S
C2889 C2891 1.327 . S
C2889 H2912 0.950 . S
C2890 C2889 1.349 . S
C2890 C2902 1.349 . S
C2891 C2889 1.327 . S
C2891 C2907 1.429 . S
C2891 H2913 0.950 . S
C2892 H2888 0.949 . S
C2892 C2900 1.574 . S
C2892 C2908 1.368 . S
H2893 C2901 0.950 . S
H2894 C2899 0.950 . S
H2895 C2900 0.949 . S
H2896 C2902 0.950 . S
H2897 C2903 0.950 . S
H2898 C2904 0.949 . S
C2899 H2894 0.950 . S
C2899 C2901 1.327 . S
C2899 C2905 1.429 . S
C2900 C2892 1.574 . S
C2900 H2895 0.949 . S
C2900 C2906 1.368 . S
C2901 C2885 1.349 . S
C2901 H2893 0.950 . S
C2901 C2899 1.327 . S
C2902 C2890 1.349 . S
C2902 H2896 0.950 . S
C2902 C2903 1.327 . S
C2903 H2897 0.950 . S
C2903 C2902 1.327 . S
C2903 C2907 1.429 . S
C2904 C2887 1.574 . S
C2904 H2898 0.949 . S
C2904 C2908 1.368 . S
C2905 C2886 1.429 . S
C2905 C2899 1.429 . S
C2905 C2906 1.523 . S
C2906 C2887 1.368 . S
C2906 C2900 1.368 . S
C2906 C2905 1.523 . S
C2907 C2891 1.429 . S
C2907 C2903 1.429 . S
C2907 C2908 1.523 . S
C2908 C2892 1.368 . S
C2908 C2904 1.368 . S
C2908 C2907 1.523 . S
H2909 C2884 0.950 . S
H2910 C2886 0.950 . S
H2911 C2887 0.949 . S
H2912 C2889 0.950 . S
H2913 C2891 0.950 . S
C2914 C2915 1.349 1_545 S
C2914 C2916 1.327 . S
C2914 H2939 0.963 . S
C2915 C2914 1.349 1_565 S
C2915 C2931 1.349 1_565 S
C2916 C2914 1.327 . S
C2916 C2935 1.429 . S
C2916 H2940 0.950 . S
C2917 C2934 1.574 . S
C2917 C2936 1.368 . S
C2917 H2941 0.949 . S
H2918 C2922 0.949 . S
C2919 C2920 1.349 . S
C2919 C2921 1.327 . S
C2919 H2942 0.950 . S
C2920 C2919 1.349 . S
C2920 C2932 1.349 . S
C2921 C2919 1.327 . S
C2921 C2937 1.429 . S
C2921 H2943 0.950 . S
C2922 H2918 0.949 . S
C2922 C2930 1.574 . S
C2922 C2938 1.368 . S
H2923 C2931 0.950 . S
H2924 C2929 0.950 . S
H2925 C2930 0.949 . S
H2926 C2932 0.950 . S
H2927 C2933 0.950 . S
H2928 C2934 0.949 . S
C2929 H2924 0.950 . S
C2929 C2931 1.327 . S
C2929 C2935 1.429 . S
C2930 C2922 1.574 . S
C2930 H2925 0.949 . S
C2930 C2936 1.368 . S
C2931 C2915 1.349 1_545 S
C2931 H2923 0.950 . S
C2931 C2929 1.327 . S
C2932 C2920 1.349 . S
C2932 H2926 0.950 . S
C2932 C2933 1.327 . S
C2933 H2927 0.950 . S
C2933 C2932 1.327 . S
C2933 C2937 1.429 . S
C2934 C2917 1.574 . S
C2934 H2928 0.949 . S
C2934 C2938 1.368 . S
C2935 C2916 1.429 . S
C2935 C2929 1.429 . S
C2935 C2936 1.523 . S
C2936 C2917 1.368 . S
C2936 C2930 1.368 . S
C2936 C2935 1.523 . S
C2937 C2921 1.429 . S
C2937 C2933 1.429 . S
C2937 C2938 1.523 . S
C2938 C2922 1.368 . S
C2938 C2934 1.368 . S
C2938 C2937 1.523 . S
H2939 C2914 0.963 . S
H2940 C2916 0.950 . S
H2941 C2917 0.949 . S
H2942 C2919 0.950 . S
H2943 C2921 0.950 . S
C2944 C2945 1.349 . S
C2944 C2946 1.327 . S
C2944 H2969 0.950 . S
C2945 C2944 1.349 . S
C2945 C2961 1.349 . S
C2946 C2944 1.327 . S
C2946 C2965 1.429 . S
C2946 H2970 0.950 . S
C2947 C2964 1.574 . S
C2947 C2966 1.368 . S
C2947 H2971 0.949 . S
H2948 C2952 0.949 . S
C2949 C2950 1.349 . S
C2949 C2951 1.327 . S
C2949 H2972 0.950 . S
C2950 C2949 1.349 . S
C2950 C2962 1.349 . S
C2951 C2949 1.327 . S
C2951 C2967 1.429 . S
C2951 H2973 0.950 . S
C2952 H2948 0.949 . S
C2952 C2960 1.574 . S
C2952 C2968 1.368 . S
H2953 C2961 0.950 . S
H2954 C2959 0.950 . S
H2955 C2960 0.949 . S
H2956 C2962 0.950 . S
H2957 C2963 0.950 . S
H2958 C2964 0.949 . S
C2959 H2954 0.950 . S
C2959 C2961 1.327 . S
C2959 C2965 1.429 . S
C2960 C2952 1.574 . S
C2960 H2955 0.949 . S
C2960 C2966 1.368 . S
C2961 C2945 1.349 . S
C2961 H2953 0.950 . S
C2961 C2959 1.327 . S
C2962 C2950 1.349 . S
C2962 H2956 0.950 . S
C2962 C2963 1.327 . S
C2963 H2957 0.950 . S
C2963 C2962 1.327 . S
C2963 C2967 1.429 . S
C2964 C2947 1.574 . S
C2964 H2958 0.949 . S
C2964 C2968 1.368 . S
C2965 C2946 1.429 . S
C2965 C2959 1.429 . S
C2965 C2966 1.523 . S
C2966 C2947 1.368 . S
C2966 C2960 1.368 . S
C2966 C2965 1.523 . S
C2967 C2951 1.429 . S
C2967 C2963 1.429 . S
C2967 C2968 1.523 . S
C2968 C2952 1.368 . S
C2968 C2964 1.368 . S
C2968 C2967 1.523 . S
H2969 C2944 0.950 . S
H2970 C2946 0.950 . S
H2971 C2947 0.949 . S
H2972 C2949 0.950 . S
H2973 C2951 0.950 . S
C2974 C2975 1.349 . S
C2974 C2976 1.327 . S
C2974 H2999 0.950 . S
C2975 C2974 1.349 . S
C2975 C2991 1.349 . S
C2976 C2974 1.327 . S
C2976 C2995 1.429 . S
C2976 H3000 0.950 . S
C2977 C2994 1.574 . S
C2977 C2996 1.368 . S
C2977 H3001 0.949 . S
H2978 C2982 0.949 . S
C2979 C2980 1.349 . S
C2979 C2981 1.327 . S
C2979 H3002 0.934 1_455 S
C2980 C2979 1.349 . S
C2980 C2992 1.349 . S
C2981 C2979 1.327 . S
C2981 C2997 1.429 . S
C2981 H3003 0.950 . S
C2982 H2978 0.949 . S
C2982 C2990 1.574 . S
C2982 C2998 1.368 . S
H2983 C2991 0.950 . S
H2984 C2989 0.950 . S
H2985 C2990 0.949 . S
H2986 C2992 0.950 . S
H2987 C2993 0.950 . S
H2988 C2994 0.949 . S
C2989 H2984 0.950 . S
C2989 C2991 1.327 . S
C2989 C2995 1.429 . S
C2990 C2982 1.574 . S
C2990 H2985 0.949 . S
C2990 C2996 1.368 . S
C2991 C2975 1.349 . S
C2991 H2983 0.950 . S
C2991 C2989 1.327 . S
C2992 C2980 1.349 . S
C2992 H2986 0.950 . S
C2992 C2993 1.327 . S
C2993 H2987 0.950 . S
C2993 C2992 1.327 . S
C2993 C2997 1.429 . S
C2994 C2977 1.574 . S
C2994 H2988 0.949 . S
C2994 C2998 1.368 . S
C2995 C2976 1.429 . S
C2995 C2989 1.429 . S
C2995 C2996 1.523 . S
C2996 C2977 1.368 . S
C2996 C2990 1.368 . S
C2996 C2995 1.523 . S
C2997 C2981 1.429 . S
C2997 C2993 1.429 . S
C2997 C2998 1.523 . S
C2998 C2982 1.368 . S
C2998 C2994 1.368 . S
C2998 C2997 1.523 . S
H2999 C2974 0.950 . S
H3000 C2976 0.950 . S
H3001 C2977 0.949 . S
H3002 C2979 0.934 1_655 S
H3003 C2981 0.950 . S
C3004 C3005 1.349 . S
C3004 C3006 1.327 . S
C3004 H3029 0.950 . S
C3005 C3004 1.349 . S
C3005 C3021 1.349 . S
C3006 C3004 1.327 . S
C3006 C3025 1.429 . S
C3006 H3030 0.950 . S
C3007 C3024 1.574 . S
C3007 C3026 1.368 . S
C3007 H3031 0.949 . S
H3008 C3012 0.949 . S
C3009 C3010 1.349 . S
C3009 C3011 1.327 . S
C3009 H3032 0.950 . S
C3010 C3009 1.349 . S
C3010 C3022 1.349 . S
C3011 C3009 1.327 . S
C3011 C3027 1.429 . S
C3011 H3033 0.950 . S
C3012 H3008 0.949 . S
C3012 C3020 1.574 . S
C3012 C3028 1.368 . S
H3013 C3021 0.950 . S
H3014 C3019 0.950 . S
H3015 C3020 0.949 . S
H3016 C3022 0.950 . S
H3017 C3023 0.950 . S
H3018 C3024 0.949 . S
C3019 H3014 0.950 . S
C3019 C3021 1.327 . S
C3019 C3025 1.429 . S
C3020 C3012 1.574 . S
C3020 H3015 0.949 . S
C3020 C3026 1.368 . S
C3021 C3005 1.349 . S
C3021 H3013 0.950 . S
C3021 C3019 1.327 . S
C3022 C3010 1.349 . S
C3022 H3016 0.950 . S
C3022 C3023 1.327 . S
C3023 H3017 0.950 . S
C3023 C3022 1.327 . S
C3023 C3027 1.429 . S
C3024 C3007 1.574 . S
C3024 H3018 0.949 . S
C3024 C3028 1.368 . S
C3025 C3006 1.429 . S
C3025 C3019 1.429 . S
C3025 C3026 1.523 . S
C3026 C3007 1.368 . S
C3026 C3020 1.368 . S
C3026 C3025 1.523 . S
C3027 C3011 1.429 . S
C3027 C3023 1.429 . S
C3027 C3028 1.523 . S
C3028 C3012 1.368 . S
C3028 C3024 1.368 . S
C3028 C3027 1.523 . S
H3029 C3004 0.950 . S
H3030 C3006 0.950 . S
H3031 C3007 0.949 . S
H3032 C3009 0.950 . S
H3033 C3011 0.950 . S
C3034 C3035 1.349 1_545 S
C3034 C3036 1.327 . S
C3034 H3059 0.950 . S
C3035 C3034 1.349 1_565 S
C3035 C3051 1.349 1_565 S
C3036 C3034 1.327 . S
C3036 C3055 1.429 . S
C3036 H3060 0.950 . S
C3037 C3054 1.574 . S
C3037 C3056 1.368 . S
C3037 H3061 0.949 . S
H3038 C3042 0.949 . S
C3039 C3040 1.349 . S
C3039 C3041 1.327 . S
C3039 H3062 0.950 . S
C3040 C3039 1.349 . S
C3040 C3052 1.349 . S
C3041 C3039 1.327 . S
C3041 C3057 1.429 . S
C3041 H3063 0.950 . S
C3042 H3038 0.949 . S
C3042 C3050 1.574 . S
C3042 C3058 1.368 . S
H3043 C3051 0.950 1_565 S
H3044 C3049 0.950 . S
H3045 C3050 0.949 . S
H3046 C3052 0.950 . S
H3047 C3053 0.950 . S
H3048 C3054 0.949 . S
C3049 H3044 0.950 . S
C3049 C3051 1.327 . S
C3049 C3055 1.429 . S
C3050 C3042 1.574 . S
C3050 H3045 0.949 . S
C3050 C3056 1.368 . S
C3051 C3035 1.349 1_545 S
C3051 H3043 0.950 1_545 S
C3051 C3049 1.327 . S
C3052 C3040 1.349 . S
C3052 H3046 0.950 . S
C3052 C3053 1.327 . S
C3053 H3047 0.950 . S
C3053 C3052 1.327 . S
C3053 C3057 1.429 . S
C3054 C3037 1.574 . S
C3054 H3048 0.949 . S
C3054 C3058 1.368 . S
C3055 C3036 1.429 . S
C3055 C3049 1.429 . S
C3055 C3056 1.523 . S
C3056 C3037 1.368 . S
C3056 C3050 1.368 . S
C3056 C3055 1.523 . S
C3057 C3041 1.429 . S
C3057 C3053 1.429 . S
C3057 C3058 1.523 . S
C3058 C3042 1.368 . S
C3058 C3054 1.368 . S
C3058 C3057 1.523 . S
H3059 C3034 0.950 . S
H3060 C3036 0.950 . S
H3061 C3037 0.949 . S
H3062 C3039 0.950 . S
H3063 C3041 0.950 . S
C3064 C3065 1.349 . S
C3064 C3066 1.327 . S
C3064 H3089 0.950 . S
C3065 C3064 1.349 . S
C3065 C3081 1.349 . S
C3066 C3064 1.327 . S
C3066 C3085 1.429 . S
C3066 H3090 0.950 . S
C3067 C3084 1.574 . S
C3067 C3086 1.368 . S
C3067 H3091 0.949 . S
H3068 C3072 0.949 . S
C3069 C3070 1.349 . S
C3069 C3071 1.327 . S
C3069 H3092 0.950 . S
C3070 C3069 1.349 . S
C3070 C3082 1.349 . S
C3071 C3069 1.327 . S
C3071 C3087 1.429 . S
C3071 H3093 0.950 . S
C3072 H3068 0.949 . S
C3072 C3080 1.574 . S
C3072 C3088 1.368 . S
H3073 C3081 0.950 . S
H3074 C3079 0.950 . S
H3075 C3080 0.949 . S
H3076 C3082 0.950 . S
H3077 C3083 0.950 . S
H3078 C3084 0.949 . S
C3079 H3074 0.950 . S
C3079 C3081 1.327 . S
C3079 C3085 1.429 . S
C3080 C3072 1.574 . S
C3080 H3075 0.949 . S
C3080 C3086 1.368 . S
C3081 C3065 1.349 . S
C3081 H3073 0.950 . S
C3081 C3079 1.327 . S
C3082 C3070 1.349 . S
C3082 H3076 0.950 . S
C3082 C3083 1.327 . S
C3083 H3077 0.950 . S
C3083 C3082 1.327 . S
C3083 C3087 1.429 . S
C3084 C3067 1.574 . S
C3084 H3078 0.949 . S
C3084 C3088 1.368 . S
C3085 C3066 1.429 . S
C3085 C3079 1.429 . S
C3085 C3086 1.523 . S
C3086 C3067 1.368 . S
C3086 C3080 1.368 . S
C3086 C3085 1.523 . S
C3087 C3071 1.429 . S
C3087 C3083 1.429 . S
C3087 C3088 1.523 . S
C3088 C3072 1.368 . S
C3088 C3084 1.368 . S
C3088 C3087 1.523 . S
H3089 C3064 0.950 . S
H3090 C3066 0.950 . S
H3091 C3067 0.949 . S
H3092 C3069 0.950 . S
H3093 C3071 0.950 . S
C3094 C3095 1.349 . S
C3094 C3096 1.327 . S
C3094 H3119 0.950 . S
C3095 C3094 1.349 . S
C3095 C3111 1.349 . S
C3096 C3094 1.327 . S
C3096 C3115 1.429 . S
C3096 H3120 0.950 . S
C3097 C3114 1.574 . S
C3097 C3116 1.368 . S
C3097 H3121 0.949 . S
H3098 C3102 0.949 . S
C3099 C3100 1.349 . S
C3099 C3101 1.327 . S
C3099 H3122 0.950 . S
C3100 C3099 1.349 . S
C3100 C3112 1.349 . S
C3101 C3099 1.327 . S
C3101 C3117 1.429 . S
C3101 H3123 0.950 . S
C3102 H3098 0.949 . S
C3102 C3110 1.574 . S
C3102 C3118 1.368 . S
H3103 C3111 0.950 . S
H3104 C3109 0.950 . S
H3105 C3110 0.949 . S
H3106 C3112 0.950 . S
H3107 C3113 0.950 . S
H3108 C3114 0.949 . S
C3109 H3104 0.950 . S
C3109 C3111 1.327 . S
C3109 C3115 1.429 . S
C3110 C3102 1.574 . S
C3110 H3105 0.949 . S
C3110 C3116 1.368 . S
C3111 C3095 1.349 . S
C3111 H3103 0.950 . S
C3111 C3109 1.327 . S
C3112 C3100 1.349 . S
C3112 H3106 0.950 . S
C3112 C3113 1.327 . S
C3113 H3107 0.950 . S
C3113 C3112 1.327 . S
C3113 C3117 1.429 . S
C3114 C3097 1.574 . S
C3114 H3108 0.949 . S
C3114 C3118 1.368 . S
C3115 C3096 1.429 . S
C3115 C3109 1.429 . S
C3115 C3116 1.523 . S
C3116 C3097 1.368 . S
C3116 C3110 1.368 . S
C3116 C3115 1.523 . S
C3117 C3101 1.429 . S
C3117 C3113 1.429 . S
C3117 C3118 1.523 . S
C3118 C3102 1.368 . S
C3118 C3114 1.368 . S
C3118 C3117 1.523 . S
H3119 C3094 0.950 . S
H3120 C3096 0.950 . S
H3121 C3097 0.949 . S
H3122 C3099 0.950 . S
H3123 C3101 0.950 . S
C3124 C3125 1.349 . S
C3124 C3126 1.327 . S
C3124 H3149 0.950 . S
C3125 C3124 1.349 . S
C3125 C3141 1.349 . S
C3126 C3124 1.327 . S
C3126 C3145 1.429 . S
C3126 H3150 0.950 . S
C3127 C3144 1.574 . S
C3127 C3146 1.368 . S
C3127 H3151 0.949 . S
H3128 C3132 0.949 . S
C3129 C3130 1.349 . S
C3129 C3131 1.327 . S
C3129 H3152 0.950 . S
C3130 C3129 1.349 . S
C3130 C3142 1.349 . S
C3131 C3129 1.327 . S
C3131 C3147 1.429 . S
C3131 H3153 0.950 . S
C3132 H3128 0.949 . S
C3132 C3140 1.574 . S
C3132 C3148 1.368 . S
H3133 C3141 0.950 . S
H3134 C3139 0.950 . S
H3135 C3140 0.949 . S
H3136 C3142 0.950 . S
H3137 C3143 0.950 . S
H3138 C3144 0.949 . S
C3139 H3134 0.950 . S
C3139 C3141 1.327 . S
C3139 C3145 1.429 . S
C3140 C3132 1.574 . S
C3140 H3135 0.949 . S
C3140 C3146 1.368 . S
C3141 C3125 1.349 . S
C3141 H3133 0.950 . S
C3141 C3139 1.327 . S
C3142 C3130 1.349 . S
C3142 H3136 0.950 . S
C3142 C3143 1.327 . S
C3143 H3137 0.950 . S
C3143 C3142 1.327 . S
C3143 C3147 1.429 . S
C3144 C3127 1.574 . S
C3144 H3138 0.949 . S
C3144 C3148 1.368 . S
C3145 C3126 1.429 . S
C3145 C3139 1.429 . S
C3145 C3146 1.523 . S
C3146 C3127 1.368 . S
C3146 C3140 1.368 . S
C3146 C3145 1.523 . S
C3147 C3131 1.429 . S
C3147 C3143 1.429 . S
C3147 C3148 1.523 . S
C3148 C3132 1.368 . S
C3148 C3144 1.368 . S
C3148 C3147 1.523 . S
H3149 C3124 0.950 . S
H3150 C3126 0.950 . S
H3151 C3127 0.949 . S
H3152 C3129 0.950 . S
H3153 C3131 0.950 . S
C3154 C3155 1.349 1_655 S
C3154 C3156 1.327 . S
C3154 H3179 0.950 . S
C3155 C3154 1.349 1_455 S
C3155 C3171 1.349 1_455 S
C3156 C3154 1.327 . S
C3156 C3175 1.429 . S
C3156 H3180 0.950 . S
C3157 C3174 1.574 . S
C3157 C3176 1.368 . S
C3157 H3181 0.949 . S
H3158 C3162 0.949 . S
C3159 C3160 1.349 . S
C3159 C3161 1.327 . S
C3159 H3182 0.950 . S
C3160 C3159 1.349 . S
C3160 C3172 1.349 . S
C3161 C3159 1.327 . S
C3161 C3177 1.429 . S
C3161 H3183 0.950 . S
C3162 H3158 0.949 . S
C3162 C3170 1.574 . S
C3162 C3178 1.368 . S
H3163 C3171 0.950 1_455 S
H3164 C3169 0.950 . S
H3165 C3170 0.949 . S
H3166 C3172 0.950 . S
H3167 C3173 0.950 . S
H3168 C3174 0.949 . S
C3169 H3164 0.950 . S
C3169 C3171 1.327 . S
C3169 C3175 1.429 . S
C3170 C3162 1.574 . S
C3170 H3165 0.949 . S
C3170 C3176 1.368 . S
C3171 C3155 1.349 1_655 S
C3171 H3163 0.950 1_655 S
C3171 C3169 1.327 . S
C3172 C3160 1.349 . S
C3172 H3166 0.950 . S
C3172 C3173 1.327 . S
C3173 H3167 0.950 . S
C3173 C3172 1.327 . S
C3173 C3177 1.429 . S
C3174 C3157 1.574 . S
C3174 H3168 0.949 . S
C3174 C3178 1.368 . S
C3175 C3156 1.429 . S
C3175 C3169 1.429 . S
C3175 C3176 1.523 . S
C3176 C3157 1.368 . S
C3176 C3170 1.368 . S
C3176 C3175 1.523 . S
C3177 C3161 1.429 . S
C3177 C3173 1.429 . S
C3177 C3178 1.523 . S
C3178 C3162 1.368 . S
C3178 C3174 1.368 . S
C3178 C3177 1.523 . S
H3179 C3154 0.950 . S
H3180 C3156 0.950 . S
H3181 C3157 0.949 . S
H3182 C3159 0.950 . S
H3183 C3161 0.950 . S
C3184 C3185 1.349 . S
C3184 C3186 1.327 . S
C3184 H3209 0.950 . S
C3185 C3184 1.349 . S
C3185 C3201 1.349 . S
C3186 C3184 1.327 . S
C3186 C3205 1.429 . S
C3186 H3210 0.950 . S
C3187 C3204 1.574 . S
C3187 C3206 1.368 . S
C3187 H3211 0.949 . S
H3188 C3192 0.949 . S
C3189 C3190 1.349 . S
C3189 C3191 1.327 . S
C3189 H3212 0.950 . S
C3190 C3189 1.349 . S
C3190 C3202 1.349 . S
C3191 C3189 1.327 . S
C3191 C3207 1.429 . S
C3191 H3213 0.950 . S
C3192 H3188 0.949 . S
C3192 C3200 1.574 . S
C3192 C3208 1.368 . S
H3193 C3201 0.950 . S
H3194 C3199 0.950 . S
H3195 C3200 0.949 . S
H3196 C3202 0.950 . S
H3197 C3203 0.950 . S
H3198 C3204 0.949 . S
C3199 H3194 0.950 . S
C3199 C3201 1.327 . S
C3199 C3205 1.429 . S
C3200 C3192 1.574 . S
C3200 H3195 0.949 . S
C3200 C3206 1.368 . S
C3201 C3185 1.349 . S
C3201 H3193 0.950 . S
C3201 C3199 1.327 . S
C3202 C3190 1.349 . S
C3202 H3196 0.950 . S
C3202 C3203 1.327 . S
C3203 H3197 0.950 . S
C3203 C3202 1.327 . S
C3203 C3207 1.429 . S
C3204 C3187 1.574 . S
C3204 H3198 0.949 . S
C3204 C3208 1.368 . S
C3205 C3186 1.429 . S
C3205 C3199 1.429 . S
C3205 C3206 1.523 . S
C3206 C3187 1.368 . S
C3206 C3200 1.368 . S
C3206 C3205 1.523 . S
C3207 C3191 1.429 . S
C3207 C3203 1.429 . S
C3207 C3208 1.523 . S
C3208 C3192 1.368 . S
C3208 C3204 1.368 . S
C3208 C3207 1.523 . S
H3209 C3184 0.950 . S
H3210 C3186 0.950 . S
H3211 C3187 0.949 . S
H3212 C3189 0.950 . S
H3213 C3191 0.950 . S
C3214 C3215 1.341 1_455 S
C3214 C3216 1.327 . S
C3214 H3239 0.950 1_455 S
C3215 C3214 1.341 1_655 S
C3215 C3231 1.323 1_655 S
C3216 C3214 1.327 . S
C3216 C3235 1.429 . S
C3216 H3240 0.950 . S
C3217 C3234 1.574 . S
C3217 C3236 1.368 . S
C3217 H3241 0.949 . S
H3218 C3222 0.949 . S
C3219 C3220 1.349 . S
C3219 C3221 1.327 . S
C3219 H3242 0.950 . S
C3220 C3219 1.349 . S
C3220 C3232 1.349 . S
C3221 C3219 1.327 . S
C3221 C3237 1.429 . S
C3221 H3243 0.950 . S
C3222 H3218 0.949 . S
C3222 C3230 1.574 . S
C3222 C3238 1.368 . S
H3223 C3231 0.950 . S
H3224 C3229 0.950 . S
H3225 C3230 0.949 . S
H3226 C3232 0.950 . S
H3227 C3233 0.950 . S
H3228 C3234 0.949 . S
C3229 H3224 0.950 . S
C3229 C3231 1.327 . S
C3229 C3235 1.429 . S
C3230 C3222 1.574 . S
C3230 H3225 0.949 . S
C3230 C3236 1.368 . S
C3231 C3215 1.323 1_455 S
C3231 H3223 0.950 . S
C3231 C3229 1.327 . S
C3232 C3220 1.349 . S
C3232 H3226 0.950 . S
C3232 C3233 1.327 . S
C3233 H3227 0.950 . S
C3233 C3232 1.327 . S
C3233 C3237 1.429 . S
C3234 C3217 1.574 . S
C3234 H3228 0.949 . S
C3234 C3238 1.368 . S
C3235 C3216 1.429 . S
C3235 C3229 1.429 . S
C3235 C3236 1.523 . S
C3236 C3217 1.368 . S
C3236 C3230 1.368 . S
C3236 C3235 1.523 . S
C3237 C3221 1.429 . S
C3237 C3233 1.429 . S
C3237 C3238 1.523 . S
C3238 C3222 1.368 . S
C3238 C3234 1.368 . S
C3238 C3237 1.523 . S
H3239 C3214 0.950 1_655 S
H3240 C3216 0.950 . S
H3241 C3217 0.949 . S
H3242 C3219 0.950 . S
H3243 C3221 0.950 . S
C3244 C3245 1.349 . S
C3244 C3246 1.327 . S
C3244 H3269 0.950 . S
C3245 C3244 1.349 . S
C3245 C3261 1.349 . S
C3246 C3244 1.327 . S
C3246 C3265 1.429 . S
C3246 H3270 0.950 . S
C3247 C3264 1.574 . S
C3247 C3266 1.368 . S
C3247 H3271 0.949 . S
H3248 C3252 0.949 . S
C3249 C3250 1.349 . S
C3249 C3251 1.327 . S
C3249 H3272 0.950 . S
C3250 C3249 1.349 . S
C3250 C3262 1.349 . S
C3251 C3249 1.327 . S
C3251 C3267 1.429 . S
C3251 H3273 0.950 . S
C3252 H3248 0.949 . S
C3252 C3260 1.574 . S
C3252 C3268 1.368 . S
H3253 C3261 0.950 . S
H3254 C3259 0.950 . S
H3255 C3260 0.949 . S
H3256 C3262 0.950 . S
H3257 C3263 0.950 . S
H3258 C3264 0.949 . S
C3259 H3254 0.950 . S
C3259 C3261 1.327 . S
C3259 C3265 1.429 . S
C3260 C3252 1.574 . S
C3260 H3255 0.949 . S
C3260 C3266 1.368 . S
C3261 C3245 1.349 . S
C3261 H3253 0.950 . S
C3261 C3259 1.327 . S
C3262 C3250 1.349 . S
C3262 H3256 0.950 . S
C3262 C3263 1.327 . S
C3263 H3257 0.950 . S
C3263 C3262 1.327 . S
C3263 C3267 1.429 . S
C3264 C3247 1.574 . S
C3264 H3258 0.949 . S
C3264 C3268 1.368 . S
C3265 C3246 1.429 . S
C3265 C3259 1.429 . S
C3265 C3266 1.523 . S
C3266 C3247 1.368 . S
C3266 C3260 1.368 . S
C3266 C3265 1.523 . S
C3267 C3251 1.429 . S
C3267 C3263 1.429 . S
C3267 C3268 1.523 . S
C3268 C3252 1.368 . S
C3268 C3264 1.368 . S
C3268 C3267 1.523 . S
H3269 C3244 0.950 . S
H3270 C3246 0.950 . S
H3271 C3247 0.949 . S
H3272 C3249 0.950 . S
H3273 C3251 0.950 . S
C3274 C3275 1.349 . S
C3274 C3276 1.327 . S
C3274 H3299 0.950 . S
C3275 C3274 1.349 . S
C3275 C3291 1.349 . S
C3276 C3274 1.327 . S
C3276 C3295 1.429 . S
C3276 H3300 0.950 . S
C3277 C3294 1.574 . S
C3277 C3296 1.368 . S
C3277 H3301 0.949 . S
H3278 C3282 0.949 . S
C3279 C3280 1.349 . S
C3279 C3281 1.327 . S
C3279 H3302 0.950 . S
C3280 C3279 1.349 . S
C3280 C3292 1.349 . S
C3281 C3279 1.327 . S
C3281 C3297 1.429 . S
C3281 H3303 0.950 . S
C3282 H3278 0.949 . S
C3282 C3290 1.574 . S
C3282 C3298 1.368 . S
H3283 C3291 0.950 . S
H3284 C3289 0.950 . S
H3285 C3290 0.949 . S
H3286 C3292 0.950 . S
H3287 C3293 0.950 . S
H3288 C3294 0.949 . S
C3289 H3284 0.950 . S
C3289 C3291 1.327 . S
C3289 C3295 1.429 . S
C3290 C3282 1.574 . S
C3290 H3285 0.949 . S
C3290 C3296 1.368 . S
C3291 C3275 1.349 . S
C3291 H3283 0.950 . S
C3291 C3289 1.327 . S
C3292 C3280 1.349 . S
C3292 H3286 0.950 . S
C3292 C3293 1.327 . S
C3293 H3287 0.950 . S
C3293 C3292 1.327 . S
C3293 C3297 1.429 . S
C3294 C3277 1.574 . S
C3294 H3288 0.949 . S
C3294 C3298 1.368 . S
C3295 C3276 1.429 . S
C3295 C3289 1.429 . S
C3295 C3296 1.523 . S
C3296 C3277 1.368 . S
C3296 C3290 1.368 . S
C3296 C3295 1.523 . S
C3297 C3281 1.429 . S
C3297 C3293 1.429 . S
C3297 C3298 1.523 . S
C3298 C3282 1.368 . S
C3298 C3294 1.368 . S
C3298 C3297 1.523 . S
H3299 C3274 0.950 . S
H3300 C3276 0.950 . S
H3301 C3277 0.949 . S
H3302 C3279 0.950 . S
H3303 C3281 0.950 . S
C3304 C3305 1.349 . S
C3304 C3306 1.327 . S
C3304 H3329 0.950 . S
C3305 C3304 1.349 . S
C3305 C3321 1.349 . S
C3306 C3304 1.327 . S
C3306 C3325 1.429 . S
C3306 H3330 0.950 . S
C3307 C3324 1.574 . S
C3307 C3326 1.368 . S
C3307 H3331 0.949 . S
H3308 C3312 0.949 . S
C3309 C3310 1.349 . S
C3309 C3311 1.327 . S
C3309 H3332 0.950 . S
C3310 C3309 1.349 . S
C3310 C3322 1.349 . S
C3311 C3309 1.327 . S
C3311 C3327 1.429 . S
C3311 H3333 0.950 . S
C3312 H3308 0.949 . S
C3312 C3320 1.574 . S
C3312 C3328 1.368 . S
H3313 C3321 0.950 . S
H3314 C3319 0.950 . S
H3315 C3320 0.949 . S
H3316 C3322 0.950 . S
H3317 C3323 0.950 . S
H3318 C3324 0.949 . S
C3319 H3314 0.950 . S
C3319 C3321 1.327 . S
C3319 C3325 1.429 . S
C3320 C3312 1.574 . S
C3320 H3315 0.949 . S
C3320 C3326 1.368 . S
C3321 C3305 1.349 . S
C3321 H3313 0.950 . S
C3321 C3319 1.327 . S
C3322 C3310 1.349 . S
C3322 H3316 0.950 . S
C3322 C3323 1.327 . S
C3323 H3317 0.950 . S
C3323 C3322 1.327 . S
C3323 C3327 1.429 . S
C3324 C3307 1.574 . S
C3324 H3318 0.949 . S
C3324 C3328 1.368 . S
C3325 C3306 1.429 . S
C3325 C3319 1.429 . S
C3325 C3326 1.523 . S
C3326 C3307 1.368 . S
C3326 C3320 1.368 . S
C3326 C3325 1.523 . S
C3327 C3311 1.429 . S
C3327 C3323 1.429 . S
C3327 C3328 1.523 . S
C3328 C3312 1.368 . S
C3328 C3324 1.368 . S
C3328 C3327 1.523 . S
H3329 C3304 0.950 . S
H3330 C3306 0.950 . S
H3331 C3307 0.949 . S
H3332 C3309 0.950 . S
H3333 C3311 0.950 . S
C3334 C3335 1.349 . S
C3334 C3336 1.327 . S
C3334 H3359 0.950 . S
C3335 C3334 1.349 . S
C3335 C3351 1.349 . S
C3336 C3334 1.327 . S
C3336 C3355 1.429 . S
C3336 H3360 0.950 . S
C3337 C3354 1.574 . S
C3337 C3356 1.368 . S
C3337 H3361 0.949 . S
H3338 C3342 0.949 . S
C3339 C3340 1.349 . S
C3339 C3341 1.327 . S
C3339 H3362 0.950 . S
C3340 C3339 1.349 . S
C3340 C3352 1.349 . S
C3341 C3339 1.327 . S
C3341 C3357 1.429 . S
C3341 H3363 0.950 . S
C3342 H3338 0.949 . S
C3342 C3350 1.574 . S
C3342 C3358 1.368 . S
H3343 C3351 0.950 . S
H3344 C3349 0.950 . S
H3345 C3350 0.949 . S
H3346 C3352 0.950 . S
H3347 C3353 0.950 . S
H3348 C3354 0.949 . S
C3349 H3344 0.950 . S
C3349 C3351 1.327 . S
C3349 C3355 1.429 . S
C3350 C3342 1.574 . S
C3350 H3345 0.949 . S
C3350 C3356 1.368 . S
C3351 C3335 1.349 . S
C3351 H3343 0.950 . S
C3351 C3349 1.327 . S
C3352 C3340 1.349 . S
C3352 H3346 0.950 . S
C3352 C3353 1.327 . S
C3353 H3347 0.950 . S
C3353 C3352 1.327 . S
C3353 C3357 1.429 . S
C3354 C3337 1.574 . S
C3354 H3348 0.949 . S
C3354 C3358 1.368 . S
C3355 C3336 1.429 . S
C3355 C3349 1.429 . S
C3355 C3356 1.523 . S
C3356 C3337 1.368 . S
C3356 C3350 1.368 . S
C3356 C3355 1.523 . S
C3357 C3341 1.429 . S
C3357 C3353 1.429 . S
C3357 C3358 1.523 . S
C3358 C3342 1.368 . S
C3358 C3354 1.368 . S
C3358 C3357 1.523 . S
H3359 C3334 0.950 . S
H3360 C3336 0.950 . S
H3361 C3337 0.949 . S
H3362 C3339 0.950 . S
H3363 C3341 0.950 . S
C3364 C3365 1.349 . S
C3364 C3366 1.327 . S
C3364 H3389 0.950 . S
C3365 C3364 1.349 . S
C3365 C3381 1.349 . S
C3366 C3364 1.327 . S
C3366 C3385 1.429 . S
C3366 H3390 0.950 . S
C3367 C3384 1.574 . S
C3367 C3386 1.368 . S
C3367 H3391 0.949 . S
H3368 C3372 0.949 . S
C3369 C3370 1.349 . S
C3369 C3371 1.327 . S
C3369 H3392 0.950 . S
C3370 C3369 1.349 . S
C3370 C3382 1.349 . S
C3371 C3369 1.327 . S
C3371 C3387 1.429 . S
C3371 H3393 0.950 . S
C3372 H3368 0.949 . S
C3372 C3380 1.574 . S
C3372 C3388 1.368 . S
H3373 C3381 0.950 . S
H3374 C3379 0.950 . S
H3375 C3380 0.949 . S
H3376 C3382 0.950 . S
H3377 C3383 0.950 . S
H3378 C3384 0.949 . S
C3379 H3374 0.950 . S
C3379 C3381 1.327 . S
C3379 C3385 1.429 . S
C3380 C3372 1.574 . S
C3380 H3375 0.949 . S
C3380 C3386 1.368 . S
C3381 C3365 1.349 . S
C3381 H3373 0.950 . S
C3381 C3379 1.327 . S
C3382 C3370 1.349 . S
C3382 H3376 0.950 . S
C3382 C3383 1.327 . S
C3383 H3377 0.950 . S
C3383 C3382 1.327 . S
C3383 C3387 1.429 . S
C3384 C3367 1.574 . S
C3384 H3378 0.949 . S
C3384 C3388 1.368 . S
C3385 C3366 1.429 . S
C3385 C3379 1.429 . S
C3385 C3386 1.523 . S
C3386 C3367 1.368 . S
C3386 C3380 1.368 . S
C3386 C3385 1.523 . S
C3387 C3371 1.429 . S
C3387 C3383 1.429 . S
C3387 C3388 1.523 . S
C3388 C3372 1.368 . S
C3388 C3384 1.368 . S
C3388 C3387 1.523 . S
H3389 C3364 0.950 . S
H3390 C3366 0.950 . S
H3391 C3367 0.949 . S
H3392 C3369 0.950 . S
H3393 C3371 0.950 . S
C3394 C3395 1.349 . S
C3394 C3396 1.327 . S
C3394 H3419 0.950 . S
C3395 C3394 1.349 . S
C3395 C3411 1.349 . S
C3396 C3394 1.327 . S
C3396 C3415 1.429 . S
C3396 H3420 0.950 . S
C3397 C3414 1.574 . S
C3397 C3416 1.368 . S
C3397 H3421 0.949 . S
H3398 C3402 0.949 . S
C3399 C3400 1.349 . S
C3399 C3401 1.327 . S
C3399 H3422 0.950 . S
C3400 C3399 1.349 . S
C3400 C3412 1.349 . S
C3401 C3399 1.327 . S
C3401 C3417 1.429 . S
C3401 H3423 0.950 . S
C3402 H3398 0.949 . S
C3402 C3410 1.574 . S
C3402 C3418 1.368 . S
H3403 C3411 0.950 . S
H3404 C3409 0.950 . S
H3405 C3410 0.949 . S
H3406 C3412 0.950 . S
H3407 C3413 0.950 . S
H3408 C3414 0.949 . S
C3409 H3404 0.950 . S
C3409 C3411 1.327 . S
C3409 C3415 1.429 . S
C3410 C3402 1.574 . S
C3410 H3405 0.949 . S
C3410 C3416 1.368 . S
C3411 C3395 1.349 . S
C3411 H3403 0.950 . S
C3411 C3409 1.327 . S
C3412 C3400 1.349 . S
C3412 H3406 0.950 . S
C3412 C3413 1.327 . S
C3413 H3407 0.950 . S
C3413 C3412 1.327 . S
C3413 C3417 1.429 . S
C3414 C3397 1.574 . S
C3414 H3408 0.949 . S
C3414 C3418 1.368 . S
C3415 C3396 1.429 . S
C3415 C3409 1.429 . S
C3415 C3416 1.523 . S
C3416 C3397 1.368 . S
C3416 C3410 1.368 . S
C3416 C3415 1.523 . S
C3417 C3401 1.429 . S
C3417 C3413 1.429 . S
C3417 C3418 1.523 . S
C3418 C3402 1.368 . S
C3418 C3414 1.368 . S
C3418 C3417 1.523 . S
H3419 C3394 0.950 . S
H3420 C3396 0.950 . S
H3421 C3397 0.949 . S
H3422 C3399 0.950 . S
H3423 C3401 0.950 . S
C3424 C3425 1.349 . S
C3424 C3426 1.327 . S
C3424 H3449 0.950 . S
C3425 C3424 1.349 . S
C3425 C3441 1.349 . S
C3426 C3424 1.327 . S
C3426 C3445 1.429 . S
C3426 H3450 0.950 . S
C3427 C3444 1.574 . S
C3427 C3446 1.368 . S
C3427 H3451 0.949 . S
H3428 C3432 0.949 . S
C3429 C3430 1.349 . S
C3429 C3431 1.327 . S
C3429 H3452 0.950 1_545 S
C3430 C3429 1.349 . S
C3430 C3442 1.349 . S
C3431 C3429 1.327 . S
C3431 C3447 1.429 . S
C3431 H3453 0.950 . S
C3432 H3428 0.949 . S
C3432 C3440 1.574 . S
C3432 C3448 1.368 . S
H3433 C3441 0.950 . S
H3434 C3439 0.950 . S
H3435 C3440 0.949 . S
H3436 C3442 0.950 . S
H3437 C3443 0.950 . S
H3438 C3444 0.949 . S
C3439 H3434 0.950 . S
C3439 C3441 1.327 . S
C3439 C3445 1.429 . S
C3440 C3432 1.574 . S
C3440 H3435 0.949 . S
C3440 C3446 1.368 . S
C3441 C3425 1.349 . S
C3441 H3433 0.950 . S
C3441 C3439 1.327 . S
C3442 C3430 1.349 . S
C3442 H3436 0.950 . S
C3442 C3443 1.327 . S
C3443 H3437 0.950 . S
C3443 C3442 1.327 . S
C3443 C3447 1.429 . S
C3444 C3427 1.574 . S
C3444 H3438 0.949 . S
C3444 C3448 1.368 . S
C3445 C3426 1.429 . S
C3445 C3439 1.429 . S
C3445 C3446 1.523 . S
C3446 C3427 1.368 . S
C3446 C3440 1.368 . S
C3446 C3445 1.523 . S
C3447 C3431 1.429 . S
C3447 C3443 1.429 . S
C3447 C3448 1.523 . S
C3448 C3432 1.368 . S
C3448 C3444 1.368 . S
C3448 C3447 1.523 . S
H3449 C3424 0.950 . S
H3450 C3426 0.950 . S
H3451 C3427 0.949 . S
H3452 C3429 0.950 1_565 S
H3453 C3431 0.950 . S
C3454 C3455 1.349 . S
C3454 C3456 1.327 . S
C3454 H3479 0.950 . S
C3455 C3454 1.349 . S
C3455 C3471 1.349 . S
C3456 C3454 1.327 . S
C3456 C3475 1.429 . S
C3456 H3480 0.950 . S
C3457 C3474 1.574 . S
C3457 C3476 1.368 . S
C3457 H3481 0.949 . S
H3458 C3462 0.949 . S
C3459 C3460 1.349 . S
C3459 C3461 1.327 . S
C3459 H3482 0.950 . S
C3460 C3459 1.349 . S
C3460 C3472 1.349 . S
C3461 C3459 1.327 . S
C3461 C3477 1.429 . S
C3461 H3483 0.950 . S
C3462 H3458 0.949 . S
C3462 C3470 1.574 . S
C3462 C3478 1.368 . S
H3463 C3471 0.950 . S
H3464 C3469 0.950 . S
H3465 C3470 0.949 . S
H3466 C3472 0.950 . S
H3467 C3473 0.950 . S
H3468 C3474 0.949 . S
C3469 H3464 0.950 . S
C3469 C3471 1.327 . S
C3469 C3475 1.429 . S
C3470 C3462 1.574 . S
C3470 H3465 0.949 . S
C3470 C3476 1.368 . S
C3471 C3455 1.349 . S
C3471 H3463 0.950 . S
C3471 C3469 1.327 . S
C3472 C3460 1.349 . S
C3472 H3466 0.950 . S
C3472 C3473 1.327 . S
C3473 H3467 0.950 . S
C3473 C3472 1.327 . S
C3473 C3477 1.429 . S
C3474 C3457 1.574 . S
C3474 H3468 0.949 . S
C3474 C3478 1.368 . S
C3475 C3456 1.429 . S
C3475 C3469 1.429 . S
C3475 C3476 1.523 . S
C3476 C3457 1.368 . S
C3476 C3470 1.368 . S
C3476 C3475 1.523 . S
C3477 C3461 1.429 . S
C3477 C3473 1.429 . S
C3477 C3478 1.523 . S
C3478 C3462 1.368 . S
C3478 C3474 1.368 . S
C3478 C3477 1.523 . S
H3479 C3454 0.950 . S
H3480 C3456 0.950 . S
H3481 C3457 0.949 . S
H3482 C3459 0.950 . S
H3483 C3461 0.950 . S
C3484 C3485 1.335 1_556 S
C3484 C3486 1.327 . S
C3484 H3509 0.950 . S
C3485 C3484 1.335 1_554 S
C3485 C3501 1.347 1_554 S
C3486 C3484 1.327 . S
C3486 C3505 1.429 . S
C3486 H3510 0.950 . S
C3487 C3504 1.574 . S
C3487 C3506 1.368 . S
C3487 H3511 0.949 . S
H3488 C3492 0.949 . S
C3489 C3490 1.349 . S
C3489 C3491 1.327 . S
C3489 H3512 0.950 1_565 S
C3490 C3489 1.349 . S
C3490 C3502 1.349 . S
C3491 C3489 1.327 . S
C3491 C3507 1.429 . S
C3491 H3513 0.950 . S
C3492 H3488 0.949 . S
C3492 C3500 1.574 . S
C3492 C3508 1.368 . S
H3493 C3501 0.950 1_554 S
H3494 C3499 0.950 . S
H3495 C3500 0.949 . S
H3496 C3502 0.950 . S
H3497 C3503 0.950 . S
H3498 C3504 0.949 . S
C3499 H3494 0.950 . S
C3499 C3501 1.327 . S
C3499 C3505 1.429 . S
C3500 C3492 1.574 . S
C3500 H3495 0.949 . S
C3500 C3506 1.368 . S
C3501 C3485 1.347 1_556 S
C3501 H3493 0.950 1_556 S
C3501 C3499 1.327 . S
C3502 C3490 1.349 . S
C3502 H3496 0.950 . S
C3502 C3503 1.327 . S
C3503 H3497 0.950 . S
C3503 C3502 1.327 . S
C3503 C3507 1.429 . S
C3504 C3487 1.574 . S
C3504 H3498 0.949 . S
C3504 C3508 1.368 . S
C3505 C3486 1.429 . S
C3505 C3499 1.429 . S
C3505 C3506 1.523 . S
C3506 C3487 1.368 . S
C3506 C3500 1.368 . S
C3506 C3505 1.523 . S
C3507 C3491 1.429 . S
C3507 C3503 1.429 . S
C3507 C3508 1.523 . S
C3508 C3492 1.368 . S
C3508 C3504 1.368 . S
C3508 C3507 1.523 . S
H3509 C3484 0.950 . S
H3510 C3486 0.950 . S
H3511 C3487 0.949 . S
H3512 C3489 0.950 1_545 S
H3513 C3491 0.950 . S
C3514 C3515 1.349 . S
C3514 C3516 1.327 . S
C3514 H3539 0.950 . S
C3515 C3514 1.349 . S
C3515 C3531 1.349 . S
C3516 C3514 1.327 . S
C3516 C3535 1.429 . S
C3516 H3540 0.950 . S
C3517 C3534 1.574 . S
C3517 C3536 1.368 . S
C3517 H3541 0.949 . S
H3518 C3522 0.949 . S
C3519 C3520 1.349 . S
C3519 C3521 1.327 . S
C3519 H3542 0.950 . S
C3520 C3519 1.349 . S
C3520 C3532 1.349 . S
C3521 C3519 1.327 . S
C3521 C3537 1.429 . S
C3521 H3543 0.950 . S
C3522 H3518 0.949 . S
C3522 C3530 1.574 . S
C3522 C3538 1.368 . S
H3523 C3531 0.950 . S
H3524 C3529 0.950 . S
H3525 C3530 0.949 . S
H3526 C3532 0.950 . S
H3527 C3533 0.950 . S
H3528 C3534 0.949 . S
C3529 H3524 0.950 . S
C3529 C3531 1.327 . S
C3529 C3535 1.429 . S
C3530 C3522 1.574 . S
C3530 H3525 0.949 . S
C3530 C3536 1.368 . S
C3531 C3515 1.349 . S
C3531 H3523 0.950 . S
C3531 C3529 1.327 . S
C3532 C3520 1.349 . S
C3532 H3526 0.950 . S
C3532 C3533 1.327 . S
C3533 H3527 0.950 . S
C3533 C3532 1.327 . S
C3533 C3537 1.429 . S
C3534 C3517 1.574 . S
C3534 H3528 0.949 . S
C3534 C3538 1.368 . S
C3535 C3516 1.429 . S
C3535 C3529 1.429 . S
C3535 C3536 1.523 . S
C3536 C3517 1.368 . S
C3536 C3530 1.368 . S
C3536 C3535 1.523 . S
C3537 C3521 1.429 . S
C3537 C3533 1.429 . S
C3537 C3538 1.523 . S
C3538 C3522 1.368 . S
C3538 C3534 1.368 . S
C3538 C3537 1.523 . S
H3539 C3514 0.950 . S
H3540 C3516 0.950 . S
H3541 C3517 0.949 . S
H3542 C3519 0.950 . S
H3543 C3521 0.950 . S
C3544 C3545 1.349 1_554 S
C3544 C3546 1.327 . S
C3544 H3569 0.950 . S
C3545 C3544 1.349 1_556 S
C3545 C3561 1.349 1_556 S
C3546 C3544 1.327 . S
C3546 C3565 1.429 . S
C3546 H3570 0.950 . S
C3547 C3564 1.574 . S
C3547 C3566 1.368 . S
C3547 H3571 0.949 . S
H3548 C3552 0.949 . S
C3549 C3550 1.349 . S
C3549 C3551 1.327 . S
C3549 H3572 0.950 . S
C3550 C3549 1.349 . S
C3550 C3562 1.349 . S
C3551 C3549 1.327 . S
C3551 C3567 1.429 . S
C3551 H3573 0.950 . S
C3552 H3548 0.949 . S
C3552 C3560 1.574 . S
C3552 C3568 1.368 . S
H3553 C3561 0.950 1_556 S
H3554 C3559 0.950 . S
H3555 C3560 0.949 . S
H3556 C3562 0.950 . S
H3557 C3563 0.950 . S
H3558 C3564 0.949 . S
C3559 H3554 0.950 . S
C3559 C3561 1.327 . S
C3559 C3565 1.429 . S
C3560 C3552 1.574 . S
C3560 H3555 0.949 . S
C3560 C3566 1.368 . S
C3561 C3545 1.349 1_554 S
C3561 H3553 0.950 1_554 S
C3561 C3559 1.327 . S
C3562 C3550 1.349 . S
C3562 H3556 0.950 . S
C3562 C3563 1.327 . S
C3563 H3557 0.950 . S
C3563 C3562 1.327 . S
C3563 C3567 1.429 . S
C3564 C3547 1.574 . S
C3564 H3558 0.949 . S
C3564 C3568 1.368 . S
C3565 C3546 1.429 . S
C3565 C3559 1.429 . S
C3565 C3566 1.523 . S
C3566 C3547 1.368 . S
C3566 C3560 1.368 . S
C3566 C3565 1.523 . S
C3567 C3551 1.429 . S
C3567 C3563 1.429 . S
C3567 C3568 1.523 . S
C3568 C3552 1.368 . S
C3568 C3564 1.368 . S
C3568 C3567 1.523 . S
H3569 C3544 0.950 . S
H3570 C3546 0.950 . S
H3571 C3547 0.949 . S
H3572 C3549 0.950 . S
H3573 C3551 0.950 . S
C3574 C3575 1.349 . S
C3574 C3576 1.327 . S
C3574 H3599 0.950 . S
C3575 C3574 1.349 . S
C3575 C3591 1.349 . S
C3576 C3574 1.327 . S
C3576 C3595 1.429 . S
C3576 H3600 0.950 . S
C3577 C3594 1.574 . S
C3577 C3596 1.368 . S
C3577 H3601 0.949 . S
H3578 C3582 0.949 . S
C3579 C3580 1.349 . S
C3579 C3581 1.327 . S
C3579 H3602 0.950 . S
C3580 C3579 1.349 . S
C3580 C3592 1.349 . S
C3581 C3579 1.327 . S
C3581 C3597 1.429 . S
C3581 H3603 0.950 . S
C3582 H3578 0.949 . S
C3582 C3590 1.574 . S
C3582 C3598 1.368 . S
H3583 C3591 0.961 . S
H3584 C3589 0.950 . S
H3585 C3590 0.949 . S
H3586 C3592 0.950 . S
H3587 C3593 0.950 . S
H3588 C3594 0.949 . S
C3589 H3584 0.950 . S
C3589 C3591 1.327 . S
C3589 C3595 1.429 . S
C3590 C3582 1.574 . S
C3590 H3585 0.949 . S
C3590 C3596 1.368 . S
C3591 C3575 1.349 . S
C3591 H3583 0.961 . S
C3591 C3589 1.327 . S
C3592 C3580 1.349 . S
C3592 H3586 0.950 . S
C3592 C3593 1.327 . S
C3593 H3587 0.950 . S
C3593 C3592 1.327 . S
C3593 C3597 1.429 . S
C3594 C3577 1.574 . S
C3594 H3588 0.949 . S
C3594 C3598 1.368 . S
C3595 C3576 1.429 . S
C3595 C3589 1.429 . S
C3595 C3596 1.523 . S
C3596 C3577 1.368 . S
C3596 C3590 1.368 . S
C3596 C3595 1.523 . S
C3597 C3581 1.429 . S
C3597 C3593 1.429 . S
C3597 C3598 1.523 . S
C3598 C3582 1.368 . S
C3598 C3594 1.368 . S
C3598 C3597 1.523 . S
H3599 C3574 0.950 . S
H3600 C3576 0.950 . S
H3601 C3577 0.949 . S
H3602 C3579 0.950 . S
H3603 C3581 0.950 . S
C730 C376 0.980 . S
C725 C226 1.041 . S
C760 C384 1.054 . S
C755 C269 1.117 . S
C790 C379 1.186 . S
C785 C250 1.263 . S
C815 C205 1.700 . S
C820 C383 1.607 . S
C850 C438 1.262 . S
C845 C115 1.386 . S
C875 C136 1.133 . S
C880 C414 1.079 . S
C910 C441 1.044 . S
C905 C158 1.085 . S
C935 C97 1.736 . S
C940 C415 1.624 . S
C965 C314 1.750 . S
C970 C472 1.650 . S
C995 C336 1.441 . S
C1000 C476 1.383 . S
C1030 C531 0.831 . S
C1025 C180 0.863 . S
C1060 C539 1.652 . S
C1055 C294 1.767 . S
C1090 C469 0.908 . S
C1085 C70 0.959 . S
C1120 C477 1.585 . S
C1115 C6 1.653 . S
C1145 C31 1.705 . S
C1150 C534 1.611 . S
C1175 C53 1.598 . S
C1180 C538 1.511 . S
C1205 C29 1.272 . S
C1210 C503 1.158 . S
C1240 C593 1.018 . S
C1235 C181 1.099 . S
C1265 C293 1.611 . S
C1270 C601 1.514 . S
C1300 C655 1.023 . S
C1295 C312 1.164 . S
C1325 C137 1.477 . S
C1330 C507 1.405 . S
C1360 C596 1.029 . S
C1355 C225 1.080 . S
C1390 C600 1.453 . S
C1385 C270 1.531 . S
C1420 C663 1.352 . S
C1415 C206 1.435 . S
C1445 C72 1.041 . S
C1450 C407 0.980 . S
C1475 C4 1.116 . S
C1480 C353 1.051 . S
C1510 C410 1.186 . S
C1505 C30 1.263 . S
C1535 C51 1.700 . S
C1540 C352 1.609 . S
C1565 C313 1.386 . S
C1570 C717 1.262 . S
C1595 C334 1.133 . S
C1600 C693 1.079 . S
C1630 C720 1.044 . S
C1625 C182 1.085 . S
C1655 C295 1.736 . S
C1660 C694 1.623 . S
C1685 C116 1.751 . S
C1690 C627 1.650 . S
C1720 C631 1.383 . S
C1715 C138 1.441 . S
C1750 C686 0.831 . S
C1745 C159 0.863 . S
C1780 C570 1.652 . S
C1775 C96 1.763 . S
C1810 C624 0.908 . S
C1805 C224 0.960 . S
C1835 C268 1.653 . S
C1840 C632 1.585 . S
C1865 C251 1.705 . S
C1870 C689 1.611 . S
C1900 C569 1.515 . S
C1895 C207 1.598 . S
C1925 C249 1.273 . S
C1930 C658 1.159 . S
C1960 C562 1.018 . S
C1955 C160 1.099 . S
C1985 C95 1.611 . S
C1990 C446 1.514 . S
C2015 C114 1.164 . S
C2020 C500 1.023 . S
C2045 C335 1.477 . S
C2050 C662 1.405 . S
C2075 C71 1.080 . S
C2080 C565 1.026 . S
C2105 C5 1.531 . S
C2110 C445 1.453 . S
C2140 C508 1.352 . S
C2135 C52 1.435 . S
C2170 C363 1.680 . S
C2165 C339 1.696 . S
C2200 C393 1.877 . S
C2195 C184 1.913 . S
C2230 C370 1.609 . S
C2225 C290 1.562 . S
C2260 C385 2.041 . S
C2255 C317 1.991 . S
C2290 C425 1.545 . S
C2285 C204 1.561 . S
C2315 C228 2.140 . S
C2320 C416 2.175 . S
C2345 C272 1.727 . S
C2350 C432 1.790 . S
C2375 C248 2.087 . S
C2380 C424 2.055 . S
C2410 C463 1.251 . S
C2405 C49 1.208 . S
C2440 C486 1.808 . S
C2435 C75 1.837 . S
C2465 C8 1.122 . S
C2470 C518 1.105 . S
C2500 C548 1.848 . S
C2495 C26 1.882 . S
C2525 C140 1.173 . S
C2530 C456 1.157 . S
C2560 C478 1.954 . S
C2555 C162 1.937 . S
C2590 C525 1.152 . S
C2585 C94 1.117 . S
C2615 C117 1.935 . S
C2620 C540 1.952 . S
C2650 C487 1.293 . S
C2645 C93 1.310 . S
C2675 C7 1.396 . S
C2680 C580 1.371 . S
C2705 C27 1.341 1_556 S
C2710 C610 1.323 . S
C2735 C48 1.148 . S
C2740 C649 1.193 . S
C2770 C509 1.779 . S
C2765 C227 1.739 . S
C2800 C587 1.241 . S
C2795 C337 1.197 . S
C2825 C183 1.872 . S
C2830 C602 1.909 . S
C2860 C672 1.098 . S
C2855 C316 1.112 . S
C2890 C394 1.680 . S
C2885 C141 1.700 . S
C2915 C161 1.913 . S
C2920 C362 1.878 . S
C2945 C92 1.558 . S
C2950 C401 1.609 . S
C2975 C119 1.991 . S
C2980 C354 2.040 . S
C3010 C704 1.545 . S
C3005 C50 1.562 . S
C3040 C695 2.175 . S
C3035 C74 2.139 . S
C3065 C9 1.727 . S
C3070 C711 1.790 . S
C3095 C28 2.087 . S
C3100 C703 2.055 . S
C3125 C203 1.208 . S
C3130 C618 1.251 . S
C3160 C641 1.808 . S
C3155 C229 1.837 . S
C3190 C673 1.105 . S
C3185 C271 1.122 . S
C3215 C246 1.919 . S
C3220 C579 1.849 . S
C3250 C611 1.157 . S
C3245 C338 1.173 . S
C3275 C185 1.937 . S
C3280 C633 1.954 . S
C3310 C680 1.152 . S
C3305 C292 1.117 . S
C3335 C315 1.935 . S
C3340 C571 1.950 . S
C3365 C291 1.310 . S
C3370 C642 1.293 . S
C3395 C273 1.396 . S
C3400 C549 1.377 . S
C3430 C455 1.323 . S
C3425 C247 1.340 . S
C3455 C202 1.148 . S
C3460 C494 1.193 . S
C3485 C73 1.756 . S
C3490 C664 1.779 . S
C3515 C139 1.197 . S
C3520 C556 1.236 . S
C3550 C447 1.909 . S
C3545 C163 1.872 . S
C3575 C118 1.112 1_554 S
C3580 C517 1.098 . S
