# Generated by pormake.
# Topology myd, (4,6)-cn, num edge types: 1
# Building blocks:
#     Node 0, Type 0, BuildingBlock: KOZSID_clean_sbu_0, # of connection points: 4
#     Node 1, Type 0, BuildingBlock: KOZSID_clean_sbu_0, # of connection points: 4
#     Node 2, Type 0, BuildingBlock: KOZSID_clean_sbu_0, # of connection points: 4
#     Node 3, Type 0, BuildingBlock: KOZSID_clean_sbu_0, # of connection points: 4
#     Node 4, Type 0, BuildingBlock: KOZSID_clean_sbu_0, # of connection points: 4
#     Node 5, Type 0, BuildingBlock: KOZSID_clean_sbu_0, # of connection points: 4
#     Node 6, Type 0, BuildingBlock: KOZSID_clean_sbu_0, # of connection points: 4
#     Node 7, Type 0, BuildingBlock: KOZSID_clean_sbu_0, # of connection points: 4
#     Node 8, Type 0, BuildingBlock: KOZSID_clean_sbu_0, # of connection points: 4
#     Node 9, Type 0, BuildingBlock: KOZSID_clean_sbu_0, # of connection points: 4
#     Node 10, Type 0, BuildingBlock: KOZSID_clean_sbu_0, # of connection points: 4
#     Node 11, Type 0, BuildingBlock: KOZSID_clean_sbu_0, # of connection points: 4
#     Node 12, Type 1, BuildingBlock: JUFBIX_clean_sbu_0, # of connection points: 6
#     Node 13, Type 1, BuildingBlock: JUFBIX_clean_sbu_0, # of connection points: 6
#     Node 14, Type 1, BuildingBlock: JUFBIX_clean_sbu_0, # of connection points: 6
#     Node 15, Type 1, BuildingBlock: JUFBIX_clean_sbu_0, # of connection points: 6
#     Node 16, Type 1, BuildingBlock: JUFBIX_clean_sbu_0, # of connection points: 6
#     Node 17, Type 1, BuildingBlock: JUFBIX_clean_sbu_0, # of connection points: 6
#     Node 18, Type 1, BuildingBlock: JUFBIX_clean_sbu_0, # of connection points: 6
#     Node 19, Type 1, BuildingBlock: JUFBIX_clean_sbu_0, # of connection points: 6
#     Edge 20, Type (0, 1), BuildingBlock: CIFDUS_clean_linker_0, # of connection points: 2
#     Edge 21, Type (0, 1), BuildingBlock: CIFDUS_clean_linker_0, # of connection points: 2
#     Edge 22, Type (0, 1), BuildingBlock: CIFDUS_clean_linker_0, # of connection points: 2
#     Edge 23, Type (0, 1), BuildingBlock: CIFDUS_clean_linker_0, # of connection points: 2
#     Edge 24, Type (0, 1), BuildingBlock: CIFDUS_clean_linker_0, # of connection points: 2
#     Edge 25, Type (0, 1), BuildingBlock: CIFDUS_clean_linker_0, # of connection points: 2
#     Edge 26, Type (0, 1), BuildingBlock: CIFDUS_clean_linker_0, # of connection points: 2
#     Edge 27, Type (0, 1), BuildingBlock: CIFDUS_clean_linker_0, # of connection points: 2
#     Edge 28, Type (0, 1), BuildingBlock: CIFDUS_clean_linker_0, # of connection points: 2
#     Edge 29, Type (0, 1), BuildingBlock: CIFDUS_clean_linker_0, # of connection points: 2
#     Edge 30, Type (0, 1), BuildingBlock: CIFDUS_clean_linker_0, # of connection points: 2
#     Edge 31, Type (0, 1), BuildingBlock: CIFDUS_clean_linker_0, # of connection points: 2
#     Edge 32, Type (0, 1), BuildingBlock: CIFDUS_clean_linker_0, # of connection points: 2
#     Edge 33, Type (0, 1), BuildingBlock: CIFDUS_clean_linker_0, # of connection points: 2
#     Edge 34, Type (0, 1), BuildingBlock: CIFDUS_clean_linker_0, # of connection points: 2
#     Edge 35, Type (0, 1), BuildingBlock: CIFDUS_clean_linker_0, # of connection points: 2
#     Edge 36, Type (0, 1), BuildingBlock: CIFDUS_clean_linker_0, # of connection points: 2
#     Edge 37, Type (0, 1), BuildingBlock: CIFDUS_clean_linker_0, # of connection points: 2
#     Edge 38, Type (0, 1), BuildingBlock: CIFDUS_clean_linker_0, # of connection points: 2
#     Edge 39, Type (0, 1), BuildingBlock: CIFDUS_clean_linker_0, # of connection points: 2
#     Edge 40, Type (0, 1), BuildingBlock: CIFDUS_clean_linker_0, # of connection points: 2
#     Edge 41, Type (0, 1), BuildingBlock: CIFDUS_clean_linker_0, # of connection points: 2
#     Edge 42, Type (0, 1), BuildingBlock: CIFDUS_clean_linker_0, # of connection points: 2
#     Edge 43, Type (0, 1), BuildingBlock: CIFDUS_clean_linker_0, # of connection points: 2
#     Edge 44, Type (0, 1), BuildingBlock: CIFDUS_clean_linker_0, # of connection points: 2
#     Edge 45, Type (0, 1), BuildingBlock: CIFDUS_clean_linker_0, # of connection points: 2
#     Edge 46, Type (0, 1), BuildingBlock: CIFDUS_clean_linker_0, # of connection points: 2
#     Edge 47, Type (0, 1), BuildingBlock: CIFDUS_clean_linker_0, # of connection points: 2
#     Edge 48, Type (0, 1), BuildingBlock: CIFDUS_clean_linker_0, # of connection points: 2
#     Edge 49, Type (0, 1), BuildingBlock: CIFDUS_clean_linker_0, # of connection points: 2
#     Edge 50, Type (0, 1), BuildingBlock: CIFDUS_clean_linker_0, # of connection points: 2
#     Edge 51, Type (0, 1), BuildingBlock: CIFDUS_clean_linker_0, # of connection points: 2
#     Edge 52, Type (0, 1), BuildingBlock: CIFDUS_clean_linker_0, # of connection points: 2
#     Edge 53, Type (0, 1), BuildingBlock: CIFDUS_clean_linker_0, # of connection points: 2
#     Edge 54, Type (0, 1), BuildingBlock: CIFDUS_clean_linker_0, # of connection points: 2
#     Edge 55, Type (0, 1), BuildingBlock: CIFDUS_clean_linker_0, # of connection points: 2
#     Edge 56, Type (0, 1), BuildingBlock: CIFDUS_clean_linker_0, # of connection points: 2
#     Edge 57, Type (0, 1), BuildingBlock: CIFDUS_clean_linker_0, # of connection points: 2
#     Edge 58, Type (0, 1), BuildingBlock: CIFDUS_clean_linker_0, # of connection points: 2
#     Edge 59, Type (0, 1), BuildingBlock: CIFDUS_clean_linker_0, # of connection points: 2
#     Edge 60, Type (0, 1), BuildingBlock: CIFDUS_clean_linker_0, # of connection points: 2
#     Edge 61, Type (0, 1), BuildingBlock: CIFDUS_clean_linker_0, # of connection points: 2
#     Edge 62, Type (0, 1), BuildingBlock: CIFDUS_clean_linker_0, # of connection points: 2
#     Edge 63, Type (0, 1), BuildingBlock: CIFDUS_clean_linker_0, # of connection points: 2
#     Edge 64, Type (0, 1), BuildingBlock: CIFDUS_clean_linker_0, # of connection points: 2
#     Edge 65, Type (0, 1), BuildingBlock: CIFDUS_clean_linker_0, # of connection points: 2
#     Edge 66, Type (0, 1), BuildingBlock: CIFDUS_clean_linker_0, # of connection points: 2
#     Edge 67, Type (0, 1), BuildingBlock: CIFDUS_clean_linker_0, # of connection points: 2
# Relax obj value: 0.229
# Max RMSD: 0.226
# Mean RMSD: 0.148
data_MOF--net-myd--node1-KOZSID_clean_sbu_0--node2-JUFBIX_clean_sbu_0--edge1-CIFDUS_clean_linker_0
_symmetry_space_group_name_H-M    P1
_symmetry_Int_Tables_number       1
_symmetry_cell_setting            triclinic
loop_
_symmetry_equiv_pos_as_xyz
'x, y, z'
_cell_length_a     43.624272
_cell_length_b     46.734886
_cell_length_c     46.128056
_cell_angle_alpha  92.135207
_cell_angle_beta   87.146333
_cell_angle_gamma 93.055513
loop_
_atom_site_label
_atom_site_type_symbol
_atom_site_fract_x
_atom_site_fract_y
_atom_site_fract_z
_atom_type_partial_charge
C0 C 0.99373 0.26394 0.36157 0.0
C1 C 0.96538 0.26772 0.37567 0.0
C2 C 0.94625 0.24505 0.36666 0.0
C3 C 0.96397 0.22869 0.34766 0.0
N4 N 0.99299 0.23963 0.34453 0.0
Co5 Co 0.0257 0.22492 0.31756 0.0
N6 N 0.99557 0.20398 0.29272 0.0
C7 C 0.96603 0.19723 0.3008 0.0
C8 C 0.95057 0.18224 0.27941 0.0
C9 C 0.97185 0.17892 0.25676 0.0
C10 C 0.99938 0.19189 0.26567 0.0
N11 N 0.05902 0.21083 0.29081 0.0
C12 C 0.05776 0.19833 0.26384 0.0
C13 C 0.08681 0.19045 0.25376 0.0
C14 C 0.10658 0.19799 0.27527 0.0
C15 C 0.08873 0.20995 0.29733 0.0
N16 N 0.05531 0.24601 0.3427 0.0
C17 C 0.08523 0.2411 0.34417 0.0
C18 C 0.10015 0.2607 0.36225 0.0
C19 C 0.07821 0.27913 0.37246 0.0
C20 C 0.05103 0.26968 0.36002 0.0
N21 N 0.02723 0.19019 0.34022 0.0
C22 C 0.02236 0.13831 0.36957 0.0
C23 C 0.02742 0.13866 0.33947 0.0
C24 C 0.02964 0.16444 0.3254 0.0
C25 C 0.02132 0.16482 0.38505 0.0
C26 C 0.02381 0.1906 0.36991 0.0
N27 N 0.02369 0.25874 0.29454 0.0
C28 C 0.04824 0.29811 0.26868 0.0
C29 C 0.01946 0.30782 0.26299 0.0
C30 C 0.99297 0.29241 0.27288 0.0
C31 C 0.99558 0.2678 0.28831 0.0
C32 C 0.04987 0.27354 0.28481 0.0
H33 H 0.97474 0.25625 0.29546 0.0
H34 H 0.07219 0.26664 0.28963 0.0
H35 H 0.03244 0.16313 0.30219 0.0
H36 H 0.02222 0.21075 0.38202 0.0
C37 C 0.95282 0.20839 0.32702 0.0
C38 C 0.02134 0.28305 0.36509 0.0
C39 C 0.02919 0.18946 0.24934 0.0
C40 C 0.09946 0.22343 0.32288 0.0
H41 H 0.95907 0.28528 0.39033 0.0
H42 H 0.92181 0.24213 0.3717 0.0
H43 H 0.92655 0.17504 0.27995 0.0
H44 H 0.96771 0.16766 0.2363 0.0
H45 H 0.093 0.1794 0.23346 0.0
H46 H 0.13109 0.19525 0.27475 0.0
H47 H 0.12451 0.26275 0.36584 0.0
H48 H 0.08198 0.29773 0.38676 0.0
H49 H 0.02945 0.11895 0.32655 0.0
H50 H 1.01778 0.16562 0.40846 0.0
H51 H 0.06916 0.30969 0.26125 0.0
H52 H 0.97036 0.29927 0.26854 0.0
C53 C 1.00076 0.69689 0.12505 0.0
C54 C 0.97169 0.69186 0.11431 0.0
C55 C 0.95134 0.70297 0.13457 0.0
C56 C 0.96905 0.71424 0.15633 0.0
N57 N 0.9995 0.71126 0.15104 0.0
Co58 Co 0.03348 0.72583 0.17615 0.0
N59 N 1.00351 0.74146 0.2059 0.0
C60 C 0.97271 0.73647 0.20728 0.0
C61 C 0.95835 0.74952 0.23096 0.0
C62 C 0.98141 0.76398 0.24528 0.0
C63 C 1.00851 0.75899 0.22926 0.0
N64 N 0.06752 0.74265 0.20005 0.0
C65 C 0.0663 0.7619 0.22267 0.0
C66 C 0.09543 0.77072 0.23131 0.0
C67 C 0.11583 0.75661 0.21329 0.0
C68 C 0.09802 0.74033 0.19462 0.0
N69 N 0.06333 0.70856 0.14712 0.0
C70 C 0.0941 0.70813 0.14905 0.0
C71 C 0.10836 0.69301 0.12666 0.0
C72 C 0.08518 0.6827 0.10971 0.0
C73 C 0.05813 0.69227 0.1228 0.0
N74 N 0.03525 0.76231 0.15526 0.0
C75 C 0.03958 0.81815 0.13325 0.0
C76 C 0.06485 0.80072 0.13144 0.0
C77 C 0.06223 0.77315 0.14253 0.0
C78 C 1.01171 0.80632 0.14499 0.0
C79 C 1.00998 0.77854 0.15545 0.0
N80 N 0.03149 0.68945 0.19811 0.0
C81 C 0.05113 0.6617 0.23603 0.0
C82 C 0.0229 0.6464 0.23988 0.0
C83 C 1.0004 0.65078 0.22013 0.0
C84 C 1.00514 0.67203 0.19955 0.0
C85 C 0.05503 0.68267 0.21495 0.0
H86 H 0.98654 0.67451 0.18586 0.0
H87 H 0.07704 0.69376 0.21361 0.0
H88 H 0.08252 0.76119 0.14128 0.0
H89 H 0.98815 0.77089 0.16449 0.0
C90 C 0.95776 0.72453 0.18334 0.0
C91 C 0.02798 0.68361 0.11234 0.0
C92 C 0.03806 0.77301 0.23563 0.0
C93 C 0.10903 0.72333 0.1713 0.0
H94 H 0.96561 0.68008 0.09463 0.0
H95 H 0.92652 0.70175 0.13412 0.0
H96 H 0.93391 0.75001 0.23616 0.0
H97 H 0.9785 0.77761 0.26461 0.0
H98 H 0.10139 0.78614 0.24845 0.0
H99 H 0.14066 0.75862 0.21327 0.0
H100 H 0.13267 0.68981 0.12313 0.0
H101 H 0.08769 0.66926 0.0902 0.0
H102 H 0.08678 0.80836 0.12184 0.0
H103 H 0.9914 0.81871 0.14715 0.0
H104 H 0.06962 0.65878 0.25029 0.0
H105 H 0.97855 0.63862 0.22126 0.0
C106 C 0.3595 0.98175 0.27565 0.0
C107 C 0.37045 0.95466 0.27775 0.0
C108 C 0.36273 0.93954 0.25277 0.0
C109 C 0.34751 0.95822 0.23695 0.0
N110 N 0.34538 0.98407 0.2504 0.0
Co111 Co 0.32356 0.01685 0.23666 0.0
N112 N 0.29892 0.99168 0.2098 0.0
C113 C 0.30555 0.96474 0.20108 0.0
C114 C 0.2859 0.95291 0.18109 0.0
C115 C 0.26602 0.97383 0.17647 0.0
C116 C 0.27459 0.99743 0.19401 0.0
N117 N 0.30223 0.05004 0.22303 0.0
C118 C 0.27715 0.05086 0.20689 0.0
C119 C 0.26975 0.07902 0.20315 0.0
C120 C 0.29175 0.09629 0.21617 0.0
C121 C 0.31107 0.0779 0.22753 0.0
N122 N 0.34815 0.04169 0.26358 0.0
C123 C 0.35302 0.07028 0.26278 0.0
C124 C 0.36991 0.08139 0.28536 0.0
C125 C 0.37577 0.05829 0.30141 0.0
C126 C 0.36205 0.03445 0.28762 0.0
N127 N 0.35559 0.02231 0.20532 0.0
C128 C 0.40074 0.02715 0.15972 0.0
C129 C 0.36953 0.02789 0.15442 0.0
C130 C 0.34749 0.02587 0.17742 0.0
C131 C 0.40899 0.02429 0.18844 0.0
C132 C 0.38609 0.02154 0.21084 0.0
N133 N 0.29175 1.01099 0.26795 0.0
C134 C 0.26042 0.02906 0.30859 0.0
C135 C 0.25004 1.00108 0.31584 0.0
C136 C 0.26109 0.97835 0.29816 0.0
C137 C 0.28127 0.98376 0.27428 0.0
C138 C 0.28134 0.03351 0.28481 0.0
H139 H 0.28895 0.96566 0.26129 0.0
H140 H 0.28934 0.05517 0.28029 0.0
H141 H 0.32384 0.02717 0.17238 0.0
H142 H 0.39306 0.0187 0.23263 0.0
C143 C 0.32894 0.95063 0.21367 0.0
C144 C 0.36297 1.00515 0.29743 0.0
C145 C 0.26222 0.02598 0.19166 0.0
C146 C 0.33549 0.08602 0.24518 0.0
H147 H 0.38224 0.94657 0.29558 0.0
H148 H 0.36604 0.91708 0.24773 0.0
H149 H 0.28606 0.93164 0.17096 0.0
H150 H 0.24809 0.97222 0.16103 0.0
H151 H 0.2509 0.08639 0.19151 0.0
H152 H 0.29317 0.11949 0.21756 0.0
H153 H 0.37551 0.10375 0.29066 0.0
H154 H 0.38816 0.05887 0.32119 0.0
H155 H 0.36219 0.03073 0.13266 0.0
H156 H 0.43294 0.0239 0.1935 0.0
H157 H 0.25242 0.04753 0.32101 0.0
H158 H 0.25472 0.95626 0.30282 0.0
C159 C 0.67507 0.47376 0.25977 0.0
C160 C 0.66306 0.44643 0.25295 0.0
C161 C 0.6724 0.42895 0.27383 0.0
C162 C 0.68961 0.44657 0.29205 0.0
N163 N 0.6914 0.47392 0.28392 0.0
Co164 Co 0.71559 0.50625 0.30201 0.0
N165 N 0.74232 0.47988 0.3204 0.0
C166 C 0.73561 0.45179 0.3245 0.0
C167 C 0.75755 0.43914 0.33922 0.0
C168 C 0.77916 0.46068 0.3451 0.0
C169 C 0.76924 0.48543 0.33349 0.0
N170 N 0.73922 0.5389 0.32022 0.0
C171 C 0.76688 0.53969 0.33235 0.0
C172 C 0.77568 0.56761 0.3411 0.0
C173 C 0.75202 0.58441 0.33551 0.0
C174 C 0.73034 0.56612 0.3232 0.0
N175 N 0.68887 0.53225 0.28338 0.0
C176 C 0.68439 0.55979 0.29092 0.0
C177 C 0.66553 0.57225 0.2725 0.0
C178 C 0.65798 0.55115 0.25212 0.0
C179 C 0.67274 0.52709 0.25936 0.0
N180 N 0.68729 0.50531 0.33679 0.0
C181 C 0.64761 0.50742 0.3869 0.0
C182 C 0.63595 0.50592 0.35902 0.0
C183 C 0.6561 0.50444 0.33431 0.0
C184 C 0.67946 0.50717 0.38909 0.0
C185 C 0.69879 0.50647 0.36395 0.0
N186 N 0.74394 0.50735 0.26739 0.0
C187 C 0.77433 0.53453 0.23176 0.0
C188 C 0.78456 0.50932 0.21802 0.0
C189 C 0.7737 0.48305 0.22927 0.0
C190 C 0.75374 0.48253 0.25412 0.0
C191 C 0.75381 0.53309 0.25607 0.0
H192 H 0.74643 0.46201 0.26275 0.0
H193 H 0.74608 0.5529 0.2658 0.0
H194 H 0.64647 0.50319 0.31316 0.0
H195 H 0.72317 0.50754 0.36668 0.0
C196 C 0.71027 0.43753 0.31171 0.0
C197 C 0.6709 0.49945 0.24353 0.0
C198 C 0.7836 0.51426 0.33886 0.0
C199 C 0.70398 0.57448 0.31018 0.0
H200 H 0.64961 0.43967 0.23462 0.0
H201 H 0.66891 0.40587 0.27436 0.0
H202 H 0.75794 0.41689 0.34485 0.0
H203 H 0.79933 0.45851 0.35739 0.0
H204 H 0.79676 0.5751 0.35094 0.0
H205 H 0.75122 0.60738 0.33912 0.0
H206 H 0.65972 0.59448 0.27261 0.0
H207 H 0.64383 0.55326 0.23377 0.0
H208 H 0.61144 0.50611 0.35634 0.0
H209 H 0.68951 0.50877 0.41013 0.0
H210 H 0.78228 0.55529 0.22382 0.0
H211 H 0.78144 0.46308 0.21956 0.0
C212 C 0.33388 0.41958 0.99172 0.0
C213 C 0.34543 0.42962 0.9652 0.0
C214 C 0.32604 0.41866 0.94468 0.0
C215 C 0.30388 0.40235 0.95957 0.0
N216 N 0.30769 0.40289 0.98847 0.0
Co217 Co 0.28301 0.37989 0.01784 0.0
N218 N 0.26326 0.35499 0.98708 0.0
C219 C 0.26679 0.35795 0.95807 0.0
C220 C 0.25186 0.33645 0.94234 0.0
C221 C 0.23849 0.31846 0.96261 0.0
C222 C 0.24598 0.33018 0.98958 0.0
N223 N 0.25797 0.35761 0.0475 0.0
C224 C 0.23983 0.33341 0.04427 0.0
C225 C 0.22603 0.32511 0.0706 0.0
C226 C 0.23596 0.34483 0.09116 0.0
C227 C 0.25521 0.36394 0.07629 0.0
N228 N 0.30451 0.40352 0.04857 0.0
C229 C 0.29825 0.40318 0.07755 0.0
C230 C 0.31903 0.41945 0.09336 0.0
C231 C 0.34041 0.43 0.07329 0.0
C232 C 0.33137 0.41951 0.04634 0.0
N233 N 0.24852 0.40697 0.01758 0.0
C234 C 0.18854 0.42782 0.02351 0.0
C235 C 0.20905 0.4317 0.04593 0.0
C236 C 0.23881 0.42172 0.04234 0.0
C237 C 0.20025 0.41722 0.99677 0.0
C238 C 0.2302 0.40755 0.99418 0.0
N239 N 0.31583 0.35246 0.01801 0.0
C240 C 0.34495 0.31983 0.04359 0.0
C241 C 0.3585 0.30944 0.01739 0.0
C242 C 0.35099 0.32164 0.99165 0.0
C243 C 0.32993 0.34313 0.99246 0.0
C244 C 0.32371 0.3412 0.04341 0.0
H245 H 0.32492 0.35171 0.97214 0.0
H246 H 0.31338 0.3481 0.0639 0.0
H247 H 0.25299 0.42543 0.06034 0.0
H248 H 0.23728 0.39963 0.97319 0.0
C249 C 0.28497 0.38086 0.94658 0.0
C250 C 0.34937 0.42452 0.01923 0.0
C251 C 0.23631 0.31708 0.01699 0.0
C252 C 0.27456 0.38505 0.08915 0.0
H253 H 0.36652 0.4422 0.96069 0.0
H254 H 0.32941 0.42022 0.92137 0.0
H255 H 0.25124 0.33388 0.91896 0.0
H256 H 0.22492 0.29886 0.95815 0.0
H257 H 0.21098 0.30639 0.07465 0.0
H258 H 0.23092 0.34446 0.11436 0.0
H259 H 0.31944 0.42213 0.11675 0.0
H260 H 0.36083 0.4432 0.07798 0.0
H261 H 0.20184 0.44148 0.06664 0.0
H262 H 0.18587 0.41475 0.97827 0.0
H263 H 0.35008 0.31098 0.06407 0.0
H264 H 0.36138 0.31467 0.97094 0.0
C265 C 0.22826 0.65255 0.48137 0.0
C266 C 0.22653 0.64492 0.45209 0.0
C267 C 0.24883 0.66109 0.43762 0.0
C268 C 0.2628 0.67773 0.45872 0.0
N269 N 0.25102 0.67302 0.48591 0.0
Co270 Co 0.26368 0.6938 0.52275 0.0
N271 N 0.29477 0.71919 0.50107 0.0
C272 C 0.30114 0.71867 0.47206 0.0
C273 C 0.32438 0.73782 0.46348 0.0
C274 C 0.33352 0.7514 0.4885 0.0
C275 C 0.31509 0.73983 0.51102 0.0
N276 N 0.27636 0.7144 0.55961 0.0
C277 C 0.29822 0.73568 0.56408 0.0
C278 C 0.29949 0.74372 0.59331 0.0
C279 C 0.27809 0.72664 0.60787 0.0
C280 C 0.26489 0.70933 0.58683 0.0
N281 N 0.23248 0.66843 0.54435 0.0
C282 C 0.22662 0.66839 0.57342 0.0
C283 C 0.20367 0.64891 0.582 0.0
C284 C 0.19396 0.63591 0.55689 0.0
C285 C 0.21153 0.64836 0.53434 0.0
N286 N 0.29618 0.66574 0.52741 0.0
C287 C 0.34952 0.63538 0.53596 0.0
C288 C 0.32759 0.63982 0.55864 0.0
C289 C 0.30127 0.65485 0.55392 0.0
C290 C 0.3429 0.64439 0.50848 0.0
C291 C 0.31628 0.65903 0.50467 0.0
N292 N 0.23173 0.72238 0.51815 0.0
C293 C 0.19271 0.75327 0.53907 0.0
C294 C 0.18943 0.76592 0.51239 0.0
C295 C 0.20714 0.75562 0.48849 0.0
C296 C 0.22794 0.73417 0.49183 0.0
C297 C 0.21356 0.73165 0.5414 0.0
H298 H 0.24107 0.7278 0.47281 0.0
H299 H 0.21483 0.72291 0.56232 0.0
H300 H 0.28591 0.65823 0.57228 0.0
H301 H 0.31305 0.66552 0.48324 0.0
C302 C 0.28577 0.69913 0.45353 0.0
C303 C 0.20685 0.64078 0.5038 0.0
C304 C 0.31814 0.74899 0.54146 0.0
C305 C 0.24208 0.6878 0.59198 0.0
H306 H 0.21038 0.62971 0.44206 0.0
H307 H 0.25372 0.66129 0.41439 0.0
H308 H 0.33392 0.74115 0.44168 0.0
H309 H 0.35195 0.76775 0.49001 0.0
H310 H 0.31441 0.76016 0.60316 0.0
H311 H 0.2729 0.72671 0.63107 0.0
H312 H 0.19468 0.64503 0.60387 0.0
H313 H 0.1757 0.61939 0.5553 0.0
H314 H 0.33141 0.63299 0.5803 0.0
H315 H 0.35865 0.64076 0.48996 0.0
H316 H 0.17922 0.76001 0.55822 0.0
H317 H 0.20574 0.76469 0.46736 0.0
C318 C 0.80988 0.88687 0.48371 0.0
C319 C 0.81909 0.89458 0.45578 0.0
C320 C 0.79747 0.88254 0.43789 0.0
C321 C 0.77634 0.86824 0.45588 0.0
N322 N 0.78258 0.87136 0.48426 0.0
Co323 Co 0.76106 0.85094 0.51748 0.0
N324 N 0.73554 0.82588 0.49092 0.0
C325 C 0.7343 0.82813 0.46184 0.0
C326 C 0.71509 0.80761 0.44929 0.0
C327 C 0.70333 0.79141 0.47168 0.0
C328 C 0.71591 0.80311 0.49682 0.0
N329 N 0.74095 0.82996 0.551 0.0
C330 C 0.72096 0.80677 0.5514 0.0
C331 C 0.71253 0.79922 0.57968 0.0
C332 C 0.72815 0.81798 0.59766 0.0
C333 C 0.74503 0.83594 0.5795 0.0
N334 N 0.78674 0.87633 0.54388 0.0
C335 C 0.78388 0.87835 0.57317 0.0
C336 C 0.80673 0.89527 0.58544 0.0
C337 C 0.82592 0.90375 0.56274 0.0
C338 C 0.81353 0.89166 0.53772 0.0
N339 N 0.72689 0.87866 0.51994 0.0
C340 C 0.66847 0.9038 0.52289 0.0
C341 C 0.68361 0.89813 0.54802 0.0
C342 C 0.71252 0.8861 0.54608 0.0
C343 C 0.68444 0.89879 0.49633 0.0
C344 C 0.71349 0.88696 0.49542 0.0
N345 N 0.7935 0.82274 0.51462 0.0
C346 C 0.8301 0.79411 0.53662 0.0
C347 C 0.83621 0.77951 0.51008 0.0
C348 C 0.82131 0.78752 0.48583 0.0
C349 C 0.80054 0.80921 0.48847 0.0
C350 C 0.8085 0.81542 0.53848 0.0
H351 H 0.79023 0.81459 0.46906 0.0
H352 H 0.80394 0.82561 0.55935 0.0
H353 H 0.72228 0.88239 0.56615 0.0
H354 H 0.72425 0.88434 0.47443 0.0
C355 C 0.7537 0.84794 0.44667 0.0
C356 C 0.82896 0.89276 0.50879 0.0
C357 C 0.70873 0.79178 0.52574 0.0
C358 C 0.76468 0.85877 0.58849 0.0
H359 H 0.84008 0.9064 0.44899 0.0
H360 H 0.79832 0.88245 0.41439 0.0
H361 H 0.71082 0.8043 0.42646 0.0
H362 H 0.68757 0.77285 0.46961 0.0
H363 H 0.69653 0.78211 0.58674 0.0
H364 H 0.72723 0.81852 0.62117 0.0
H365 H 0.81064 0.89873 0.60832 0.0
H366 H 0.84742 0.91596 0.56493 0.0
H367 H 0.67283 0.90207 0.56935 0.0
H368 H 0.67462 0.90401 0.47619 0.0
H369 H 0.84142 0.7887 0.55591 0.0
H370 H 0.82594 0.77726 0.46472 0.0
C371 C 0.51125 0.7907 0.87495 0.0
C372 C 0.48326 0.79878 0.8874 0.0
C373 C 0.46213 0.77705 0.88123 0.0
C374 C 0.47829 0.75684 0.86558 0.0
N375 N 0.50863 0.76412 0.86182 0.0
Co376 Co 0.54006 0.74133 0.83913 0.0
N377 N 0.50802 0.71222 0.82516 0.0
C378 C 0.4778 0.71087 0.83337 0.0
C379 C 0.46116 0.68965 0.81884 0.0
C380 C 0.48188 0.67698 0.79992 0.0
C381 C 0.51013 0.69119 0.80405 0.0
N382 N 0.57142 0.71899 0.816 0.0
C383 C 0.5676 0.69712 0.79608 0.0
C384 C 0.59558 0.68829 0.78433 0.0
C385 C 0.61784 0.70566 0.79671 0.0
C386 C 0.60224 0.72396 0.81532 0.0
N387 N 0.57205 0.77065 0.85272 0.0
C388 C 0.60279 0.76987 0.84728 0.0
C389 C 0.6189 0.79412 0.85663 0.0
C390 C 0.59724 0.81164 0.86844 0.0
C391 C 0.56888 0.79691 0.86608 0.0
N392 N 0.54566 0.71746 0.87355 0.0
C393 C 0.55275 0.67395 0.91349 0.0
C394 C 0.5783 0.68836 0.90021 0.0
C395 C 0.57425 0.71004 0.88078 0.0
C396 C 0.52381 0.68364 0.90854 0.0
C397 C 0.52086 0.70539 0.88899 0.0
N398 N 0.53447 0.76414 0.80489 0.0
C399 C 0.5555 0.79028 0.76371 0.0
C400 C 0.52597 0.79434 0.75477 0.0
C401 C 0.50082 0.78322 0.77139 0.0
C402 C 0.50555 0.76845 0.79628 0.0
C403 C 0.55922 0.77506 0.78866 0.0
H404 H 0.48551 0.76067 0.80828 0.0
H405 H 0.58225 0.77224 0.79444 0.0
H406 H 0.5947 0.71982 0.87136 0.0
H407 H 0.49815 0.71141 0.88635 0.0
C408 C 0.46525 0.73211 0.85192 0.0
C409 C 0.53956 0.80916 0.87597 0.0
C410 C 0.53805 0.68503 0.78654 0.0
C411 C 0.61546 0.74787 0.82996 0.0
H412 H 0.47846 0.81856 0.89928 0.0
H413 H 0.43769 0.77648 0.88669 0.0
H414 H 0.4366 0.68486 0.82076 0.0
H415 H 0.47662 0.65982 0.78428 0.0
H416 H 0.59939 0.67156 0.76788 0.0
H417 H 0.64236 0.70574 0.79179 0.0
H418 H 0.64335 0.79913 0.85374 0.0
H419 H 0.60198 0.83323 0.87684 0.0
H420 H 0.60135 0.68212 0.90366 0.0
H421 H 0.5033 0.67407 0.91924 0.0
H422 H 0.5756 0.79864 0.75142 0.0
H423 H 0.47752 0.78644 0.76558 0.0
C424 C 0.56522 0.26741 0.66006 0.0
C425 C 0.59144 0.27451 0.6431 0.0
C426 C 0.61158 0.2533 0.64644 0.0
C427 C 0.59655 0.23439 0.66514 0.0
N428 N 0.56826 0.24244 0.6735 0.0
Co429 Co 0.53934 0.22262 0.70146 0.0
N430 N 0.57269 0.20239 0.71848 0.0
C431 C 0.60067 0.19867 0.70563 0.0
C432 C 0.61885 0.18323 0.72208 0.0
C433 C 0.60102 0.17653 0.74653 0.0
C434 C 0.57276 0.18817 0.74363 0.0
N435 N 0.50998 0.20313 0.72946 0.0
C436 C 0.51517 0.18914 0.75384 0.0
C437 C 0.48774 0.1777 0.76627 0.0
C438 C 0.46483 0.18458 0.74887 0.0
C439 C 0.47939 0.19973 0.72681 0.0
N440 N 0.50622 0.24281 0.68425 0.0
C441 C 0.47604 0.23521 0.68626 0.0
C442 C 0.45847 0.2546 0.67399 0.0
C443 C 0.4789 0.27564 0.66373 0.0
C444 C 0.50805 0.26776 0.66999 0.0
N445 N 0.53353 0.19046 0.67371 0.0
C446 C 0.52891 0.14316 0.63506 0.0
C447 C 0.53148 0.13954 0.66473 0.0
C448 C 0.53365 0.16325 0.68354 0.0
C449 C 0.52777 0.17104 0.62504 0.0
C450 C 0.53032 0.19452 0.64481 0.0
N451 N 0.54549 0.25427 0.72914 0.0
C452 C 0.52488 0.28937 0.76269 0.0
C453 C 0.55463 0.3003 0.76801 0.0
C454 C 0.57972 0.2878 0.7536 0.0
C455 C 0.57463 0.26482 0.73416 0.0
C456 C 0.5208 0.26622 0.74323 0.0
H457 H 0.5943 0.25565 0.72311 0.0
H458 H 0.49773 0.25796 0.73956 0.0
H459 H 0.53574 0.15935 0.70614 0.0
H460 H 0.52999 0.21592 0.63679 0.0
C461 C 0.61021 0.21329 0.68035 0.0
C462 C 0.53715 0.28372 0.66184 0.0
C463 C 0.54573 0.18313 0.76365 0.0
C464 C 0.46494 0.21436 0.70574 0.0
H465 H 0.59564 0.29317 0.62998 0.0
H466 H 0.63503 0.25273 0.63768 0.0
H467 H 0.6425 0.17806 0.71726 0.0
H468 H 0.6079 0.16412 0.76422 0.0
H469 H 0.48464 0.16505 0.78547 0.0
H470 H 0.44043 0.1796 0.75226 0.0
H471 H 0.43364 0.25462 0.67438 0.0
H472 H 0.47267 0.29481 0.65356 0.0
H473 H 0.53152 0.11836 0.67353 0.0
H474 H 0.52542 0.17463 0.60222 0.0
H475 H 0.50495 0.29829 0.77388 0.0
H476 H 0.60303 0.29583 0.75719 0.0
C477 C 0.86461 0.47269 0.77534 0.0
C478 C 0.87509 0.44554 0.77828 0.0
C479 C 0.86531 0.42923 0.75467 0.0
C480 C 0.84936 0.44727 0.73872 0.0
N481 N 0.84876 0.47379 0.75089 0.0
Co482 Co 0.82594 0.50589 0.73737 0.0
N483 N 0.79821 0.47964 0.71484 0.0
C484 C 0.80415 0.45259 0.70607 0.0
C485 C 0.78153 0.43989 0.68955 0.0
C486 C 0.76032 0.46035 0.68757 0.0
C487 C 0.7711 0.48451 0.70318 0.0
N488 N 0.80327 0.53835 0.72432 0.0
C489 C 0.77528 0.53843 0.71277 0.0
C490 C 0.76769 0.56633 0.708 0.0
C491 C 0.79229 0.58398 0.71572 0.0
C492 C 0.81334 0.56612 0.72521 0.0
N493 N 0.85393 0.53184 0.75968 0.0
C494 C 0.85966 0.56001 0.75592 0.0
C495 C 0.87945 0.57222 0.77574 0.0
C496 C 0.88627 0.55028 0.79303 0.0
C497 C 0.87016 0.52597 0.78272 0.0
N498 N 0.85401 0.50896 0.70266 0.0
C499 C 0.89217 0.51167 0.65155 0.0
C500 C 0.86035 0.51407 0.65088 0.0
C501 C 0.84192 0.5128 0.67637 0.0
C502 C 0.90451 0.50752 0.67857 0.0
C503 C 0.88505 0.50636 0.7039 0.0
N504 N 0.79763 0.50245 0.77154 0.0
C505 C 0.76783 0.52348 0.81157 0.0
C506 C 0.75397 0.49654 0.81786 0.0
C507 C 0.76336 0.47261 0.80129 0.0
C508 C 0.78519 0.47598 0.77844 0.0
C509 C 0.78955 0.526 0.78816 0.0
H510 H 0.7915 0.45711 0.76594 0.0
H511 H 0.79933 0.54702 0.78313 0.0
H512 H 0.81764 0.51473 0.67457 0.0
H513 H 0.89504 0.50332 0.72446 0.0
C514 C 0.82875 0.43879 0.71716 0.0
C515 C 0.87047 0.49758 0.79508 0.0
C516 C 0.75689 0.51248 0.70374 0.0
C517 C 0.84036 0.5749 0.73909 0.0
H518 H 0.88795 0.43814 0.79573 0.0
H519 H 0.86776 0.40647 0.75074 0.0
H520 H 0.78024 0.41818 0.68051 0.0
H521 H 0.73967 0.45793 0.67548 0.0
H522 H 0.74675 0.57337 0.69964 0.0
H523 H 0.79409 0.60716 0.7154 0.0
H524 H 0.88634 0.59469 0.77867 0.0
H525 H 0.90074 0.55201 0.81147 0.0
H526 H 0.8495 0.51673 0.6306 0.0
H527 H 0.92899 0.50569 0.68024 0.0
H528 H 0.76104 0.54252 0.82382 0.0
H529 H 0.75335 0.45138 0.8056 0.0
C530 C 0.18542 0.02774 0.83491 0.0
C531 C 0.17809 0.05568 0.84261 0.0
C532 C 0.19124 0.07276 0.82164 0.0
C533 C 0.20614 0.05453 0.80252 0.0
N534 N 0.20334 0.02672 0.80989 0.0
Co535 Co 0.22374 0.99375 0.78896 0.0
N536 N 0.2442 0.01934 0.75869 0.0
C537 C 0.24186 0.04802 0.75743 0.0
C538 C 0.25611 0.05969 0.73322 0.0
C539 C 0.2682 0.03716 0.71786 0.0
C540 C 0.26098 0.01287 0.73383 0.0
N541 N 0.24404 0.9608 0.76793 0.0
C542 C 0.26178 0.95982 0.74278 0.0
C543 C 0.27132 0.93231 0.73636 0.0
C544 C 0.25842 0.91522 0.75749 0.0
C545 C 0.24205 0.93314 0.7758 0.0
N546 N 0.20327 0.9682 0.81923 0.0
C547 C 0.20553 0.93952 0.82048 0.0
C548 C 0.18891 0.92754 0.84335 0.0
C549 C 0.17534 0.9499 0.8578 0.0
C550 C 0.18468 0.97444 0.843 0.0
N551 N 0.18811 0.98696 0.76406 0.0
C552 C 0.14992 0.97543 0.71711 0.0
C553 C 0.15719 0.95356 0.7351 0.0
C554 C 0.17614 0.95976 0.7583 0.0
C555 C 0.15921 1.00361 0.72532 0.0
C556 C 0.17757 1.00885 0.74906 0.0
N557 N 0.25983 1.00037 0.81351 0.0
C558 C 0.29839 0.98206 0.84287 0.0
C559 C 0.31185 1.00954 0.84731 0.0
C560 C 0.29865 0.03239 0.83478 0.0
C561 C 0.27293 0.02737 0.8181 0.0
C562 C 0.27259 0.97802 0.82613 0.0
H563 H 0.26425 0.04567 0.80899 0.0
H564 H 0.26348 0.95657 0.82372 0.0
H565 H 0.1819 0.94202 0.77042 0.0
H566 H 0.18429 0.03067 0.75389 0.0
C567 C 0.22406 0.06308 0.77816 0.0
C568 C 0.17522 1.0031 0.85246 0.0
C569 C 0.2698 0.98408 0.72399 0.0
C570 C 0.2238 0.92451 0.80001 0.0
H571 H 0.16502 0.06319 0.86167 0.0
H572 H 0.19058 0.09583 0.82077 0.0
H573 H 0.25669 0.08181 0.72695 0.0
H574 H 0.28026 0.03856 0.69687 0.0
H575 H 0.28586 0.92517 0.71813 0.0
H576 H 0.26041 0.89235 0.75911 0.0
H577 H 0.18699 0.9052 0.84893 0.0
H578 H 0.16032 0.94827 0.87711 0.0
H579 H 0.14938 0.93152 0.73069 0.0
H580 H 0.15408 0.0216 0.7126 0.0
H581 H 0.30754 0.9637 0.85245 0.0
H582 H 0.30847 0.05407 0.83732 0.0
C583 C 0.74813 0.17333 0.97305 0.0
C584 C 0.74333 0.16593 0.94413 0.0
C585 C 0.76372 0.18253 0.92789 0.0
C586 C 0.77963 0.19926 0.94764 0.0
N587 N 0.77087 0.19423 0.9756 0.0
Co588 Co 0.78672 0.21533 1.01104 0.0
N589 N 0.81394 0.24208 0.98689 0.0
C590 C 0.81712 0.24184 0.95756 0.0
C591 C 0.83842 0.2619 0.94705 0.0
C592 C 0.84954 0.27589 0.97109 0.0
C593 C 0.83408 0.26366 0.99502 0.0
N594 N 0.80254 0.23611 0.04658 0.0
C595 C 0.82308 0.25878 0.04915 0.0
C596 C 0.82666 0.26713 0.07808 0.0
C597 C 0.80839 0.24869 0.09433 0.0
C598 C 0.79448 0.2304 0.07456 0.0
N599 N 0.75922 0.1887 0.03515 0.0
C600 C 0.75673 0.18818 0.06448 0.0
C601 C 0.7362 0.16742 0.07494 0.0
C602 C 0.72439 0.15411 0.05088 0.0
C603 C 0.73827 0.16777 0.02703 0.0
N604 N 0.82128 0.18863 1.01181 0.0
C605 C 0.87484 0.15692 0.0151 0.0
C606 C 0.85431 0.16044 0.03911 0.0
C607 C 0.82809 0.17622 0.03705 0.0
C608 C 0.86747 0.16879 0.98912 0.0
C609 C 0.84063 0.184 0.98785 0.0
N610 N 0.75291 0.24265 1.01033 0.0
C611 C 0.71611 0.27284 0.03602 0.0
C612 C 0.71003 0.28648 1.01053 0.0
C613 C 0.72482 0.27665 0.98469 0.0
C614 C 0.74591 0.25495 0.98507 0.0
C615 C 0.73717 0.2511 0.03541 0.0
H616 H 0.75681 0.24888 0.96471 0.0
H617 H 0.74075 0.24174 0.05563 0.0
H618 H 0.81399 0.17848 0.0564 0.0
H619 H 0.83626 0.19204 0.96726 0.0
C620 C 0.80087 0.22156 0.94054 0.0
C621 C 0.72968 0.16086 0.99727 0.0
C622 C 0.83964 0.27308 0.02497 0.0
C623 C 0.77336 0.20801 0.08163 0.0
H624 H 0.72636 0.15068 0.93544 0.0
H625 H 0.7659 0.1831 0.90444 0.0
H626 H 0.84546 0.26556 0.9246 0.0
H627 H 0.86732 0.29293 0.97094 0.0
H628 H 0.84088 0.28478 0.08671 0.0
H629 H 0.80543 0.24874 0.11777 0.0
H630 H 0.73017 0.16284 0.0974 0.0
H631 H 0.70706 0.13665 0.05088 0.0
H632 H 0.85882 0.15161 0.05977 0.0
H633 H 0.8822 0.16611 0.9697 0.0
H634 H 0.70477 0.27901 0.05656 0.0
H635 H 0.72103 0.28633 0.96429 0.0
Co636 Co 0.07015 0.05435 0.06286 0.0
C637 C 0.07125 0.10348 0.10022 0.0
Co638 Co 0.10117 0.09033 0.04767 0.0
C639 C 0.05029 0.99663 0.07844 0.0
C640 C 1.01374 0.0254 0.08429 0.0
N641 N 0.04369 0.02436 0.0758 0.0
N642 N 0.02564 0.9803 0.08808 0.0
C643 C 1.00257 0.99838 0.09171 0.0
H644 H 0.07269 0.98848 0.07295 0.0
H645 H 1.00085 0.04458 0.08505 0.0
C646 C 0.10072 0.04244 1.00937 0.0
N647 N 0.12911 0.1191 0.03443 0.0
C648 C 0.12943 0.14805 0.03732 0.0
C649 C 0.15603 0.11361 0.0202 0.0
N650 N 0.1556 0.16067 0.02545 0.0
C651 C 0.1721 0.13887 0.01449 0.0
C652 C 0.1285 0.05205 0.08334 0.0
O653 O 0.08208 0.03112 0.02836 0.0
O654 O 0.11113 0.06792 0.01375 0.0
O655 O 0.13396 0.07417 0.06814 0.0
O656 O 0.10189 0.03976 0.08333 0.0
O657 O 0.09096 0.11263 0.08109 0.0
H658 H 0.16387 0.09243 0.01469 0.0
H659 H 0.11126 0.15952 0.04863 0.0
O660 O 0.05897 0.07816 0.09702 0.0
O661 O 0.03789 0.06971 0.04295 0.0
O662 O 0.06764 0.10635 0.02847 0.0
C663 C 0.04102 0.09348 0.03024 0.0
H664 H 0.97936 0.99257 0.09958 0.0
H665 H 0.19434 0.14084 1.00307 0.0
Co666 Co 0.96311 0.46388 0.08034 0.0
C667 C 0.98152 0.52143 0.07259 0.0
Co668 Co 0.95001 0.48152 0.0391 0.0
C669 C 0.98545 0.4268 0.1234 0.0
C670 C 0.97415 0.46841 0.14027 0.0
N671 N 0.97476 0.45186 0.11568 0.0
N672 N 0.99142 0.42717 0.15192 0.0
C673 C 0.98445 0.45344 0.16243 0.0
H674 H 0.98817 0.40852 0.10853 0.0
H675 H 0.96655 0.49009 0.14204 0.0
C676 C 0.93091 0.42424 0.04692 0.0
N677 N 0.9375 0.49514 1.00399 0.0
C678 C 0.93626 0.48256 0.97703 0.0
C679 C 0.92433 0.52037 1.00173 0.0
N680 N 0.92244 0.4989 0.95832 0.0
C681 C 0.91509 0.52271 0.97392 0.0
C682 C 1.00842 0.45823 0.03671 0.0
O683 O 0.94369 0.42735 0.07116 0.0
O684 O 0.93206 0.44496 0.02975 0.0
O685 O 0.98999 0.4708 0.02115 0.0
O686 O 0.99984 0.45244 0.0626 0.0
O687 O 0.96792 0.51833 0.04891 0.0
H688 H 0.92093 0.53585 0.01947 0.0
H689 H 0.94426 0.46141 0.97153 0.0
O690 O 0.98216 0.50024 0.08884 0.0
O691 O 0.92655 0.47552 0.09873 0.0
O692 O 0.91064 0.49197 0.05858 0.0
C693 C 0.90616 0.48739 0.08564 0.0
H694 H 0.98669 0.4614 0.18459 0.0
H695 H 0.90369 0.5406 0.9658 0.0
Co696 Co 0.07217 0.95073 0.47773 0.0
C697 C 0.11249 0.95136 0.42842 0.0
Co698 Co 0.05201 0.9315 0.43852 0.0
C699 C 0.08554 0.96058 0.53855 0.0
C700 C 0.10341 0.99435 0.51134 0.0
N701 N 0.08827 0.96839 0.51059 0.0
N702 N 0.09788 0.98098 0.55657 0.0
C703 C 0.10913 1.00222 0.53959 0.0
H704 H 0.07386 0.94086 0.54565 0.0
H705 H 0.10923 1.00709 0.49255 0.0
C706 C 1.01005 0.93014 0.48519 0.0
N707 N 0.03597 0.91493 0.40563 0.0
C708 C 0.04815 0.89385 0.38889 0.0
C709 C 1.00986 0.92078 0.39305 0.0
N710 N 0.03071 0.88619 0.36638 0.0
C711 C 1.00661 0.90312 0.36874 0.0
C712 C 0.08243 0.89268 0.47132 0.0
O713 O 0.03205 0.94289 0.49881 0.0
O714 O 1.01473 0.92293 0.45873 0.0
O715 O 0.06713 0.89509 0.44876 0.0
O716 O 0.08646 0.9146 0.48814 0.0
O717 O 0.08875 0.93953 0.41757 0.0
H718 H 0.9941 0.93663 0.4012 0.0
H719 H 0.06958 0.88441 0.393 0.0
O720 O 0.11138 0.95865 0.45542 0.0
O721 O 0.0588 0.98651 0.46752 0.0
O722 O 0.03788 0.9684 0.42848 0.0
C723 C 0.04447 0.99015 0.44488 0.0
H724 H 0.12062 0.02201 0.54717 0.0
H725 H 0.98769 0.90229 0.35435 0.0
Co726 Co 0.98065 0.57509 0.44377 0.0
C727 C 0.04128 0.57336 0.46162 0.0
Co728 Co 1.00045 0.53202 0.43872 0.0
C729 C 0.94038 0.62231 0.45929 0.0
C730 C 0.98457 0.63608 0.44107 0.0
N731 N 0.96703 0.61232 0.44766 0.0
N732 N 0.941 0.65133 0.46057 0.0
C733 C 0.96875 0.65997 0.44907 0.0
H734 H 0.92131 0.60864 0.46746 0.0
H735 H 1.00774 0.63605 0.43156 0.0
C736 C 0.9403 0.53508 0.42021 0.0
N737 N 1.01453 0.49423 0.43517 0.0
C738 C 1.0079 0.47227 0.41587 0.0
C739 C 0.03197 0.48256 0.45446 0.0
N740 N 0.02031 0.44739 0.42263 0.0
C741 C 0.03558 0.45411 0.44687 0.0
C742 C 0.96834 0.54395 0.49273 0.0
O743 O 0.94297 0.56117 0.42897 0.0
O744 O 0.96235 0.51869 0.42279 0.0
O745 O 0.98316 0.52457 0.47854 0.0
O746 O 0.96553 0.56773 0.48107 0.0
O747 O 0.03904 0.54675 0.45434 0.0
H748 H 0.04093 0.49384 0.47337 0.0
H749 H 0.99335 0.47426 0.3978 0.0
O750 O 0.0185 0.58857 0.45854 0.0
O751 O 0.99547 0.58231 0.40593 0.0
O752 O 1.01652 0.54068 0.39939 0.0
C753 C 1.01014 0.56482 0.38958 0.0
H754 H 0.97696 0.68205 0.4465 0.0
H755 H 0.04852 0.4395 0.4585 0.0
Co756 Co 0.45008 0.94251 0.58055 0.0
C757 C 0.46338 0.99983 0.56289 0.0
Co758 Co 0.43009 0.95554 0.54017 0.0
C759 C 0.48159 0.91199 0.62277 0.0
C760 C 0.4738 0.95549 0.63612 0.0
N761 N 0.46899 0.93589 0.61436 0.0
N762 N 0.4943 0.91609 0.64879 0.0
C763 C 0.48943 0.94342 0.65723 0.0
H764 H 0.48159 0.89208 0.61001 0.0
H765 H 0.46621 0.97717 0.63672 0.0
C766 C 0.41468 0.89878 0.55715 0.0
N767 N 0.40978 0.96235 0.50619 0.0
C768 C 0.41936 0.97095 0.47926 0.0
C769 C 0.37917 0.95729 0.50451 0.0
N770 N 0.3957 0.97166 0.46121 0.0
C771 C 0.37055 0.96295 0.47728 0.0
C772 C 0.48928 0.93397 0.53227 0.0
O773 O 0.43109 0.90412 0.57902 0.0
O774 O 0.41331 0.91777 0.5384 0.0
O775 O 0.46801 0.94392 0.51783 0.0
O776 O 0.48449 0.9305 0.55922 0.0
O777 O 0.44624 0.99343 0.54197 0.0
H778 H 0.36394 0.9492 0.52187 0.0
H779 H 0.44313 0.97645 0.47303 0.0
O780 O 0.46814 0.98094 0.58112 0.0
O781 O 0.41638 0.95483 0.60294 0.0
O782 O 0.3937 0.96747 0.56452 0.0
C783 C 0.3936 0.96517 0.59206 0.0
H784 H 0.49588 0.95365 0.67763 0.0
H785 H 0.3475 0.9599 0.46966 0.0
Co786 Co 0.54877 0.53258 0.60452 0.0
C787 C 0.5454 0.57912 0.64525 0.0
Co788 Co 0.56645 0.57464 0.58758 0.0
C789 C 0.55046 0.47274 0.62264 0.0
C790 C 0.50524 0.4885 0.62672 0.0
N791 N 0.53465 0.4966 0.61915 0.0
N792 N 0.53193 0.45027 0.6316 0.0
C793 C 0.5035 0.46013 0.6341 0.0
H794 H 0.57494 0.47159 0.61804 0.0
H795 H 0.48604 0.5022 0.62664 0.0
C796 C 0.57099 0.52956 0.54645 0.0
N797 N 0.58002 0.60935 0.57135 0.0
C798 C 0.6029 0.62893 0.57782 0.0
C799 C 0.56817 0.61907 0.54731 0.0
N800 N 0.60528 0.65052 0.55888 0.0
C801 C 0.5834 0.64424 0.53976 0.0
C802 C 0.61125 0.54518 0.61296 0.0
O803 O 0.55997 0.51399 0.56706 0.0
O804 O 0.57482 0.55636 0.55115 0.0
O805 O 0.6071 0.56761 0.59901 0.0
O806 O 0.58877 0.52716 0.61751 0.0
O807 O 0.558 0.59295 0.62415 0.0
H808 H 0.5501 0.60809 0.53532 0.0
H809 H 0.61766 0.62724 0.5958 0.0
O810 O 0.53867 0.55224 0.64156 0.0
O811 O 0.50805 0.53923 0.59156 0.0
O812 O 0.52576 0.58116 0.57699 0.0
C813 C 0.50328 0.56306 0.58046 0.0
H814 H 0.48295 0.4477 0.64101 0.0
H815 H 0.57946 0.6564 0.52089 0.0
Co816 Co 0.59083 0.47525 1.00028 0.0
C817 C 0.62785 0.47889 0.94907 0.0
Co818 Co 0.56829 0.45804 0.96139 0.0
C819 C 0.60911 0.47904 0.06015 0.0
C820 C 0.6291 0.51311 0.03452 0.0
N821 N 0.61019 0.48939 0.03312 0.0
N822 N 0.62678 0.49536 0.07831 0.0
C823 C 0.63933 0.51682 0.06216 0.0
H824 H 0.59588 0.45976 0.06625 0.0
H825 H 0.63495 0.52696 0.01657 0.0
C826 C 0.52972 0.45438 1.01041 0.0
N827 N 0.54862 0.44534 0.92891 0.0
C828 C 0.55984 0.42986 0.90607 0.0
C829 C 0.51971 0.4507 0.92242 0.0
N830 N 0.53904 0.42518 0.88553 0.0
C831 C 0.51372 0.43826 0.89576 0.0
C832 C 0.60021 0.41682 0.98781 0.0
O833 O 0.5524 0.46654 0.0234 0.0
O834 O 0.53279 0.44816 0.98361 0.0
O835 O 0.58374 0.42089 0.96641 0.0
O836 O 0.60497 0.43747 1.00616 0.0
O837 O 0.60352 0.46791 0.93849 0.0
H838 H 0.50397 0.46281 0.93627 0.0
H839 H 0.58294 0.42237 0.90456 0.0
O840 O 0.62818 0.48385 0.97643 0.0
O841 O 0.57749 0.513 0.99378 0.0
O842 O 0.55365 0.49487 0.95625 0.0
C843 C 0.56093 0.51643 0.97241 0.0
H844 H 0.65436 0.53433 0.06989 0.0
H845 H 0.49212 0.43816 0.88517 0.0
Co846 Co 0.49633 0.09659 0.97144 0.0
C847 C 0.55858 0.09317 0.98062 0.0
Co848 Co 0.5162 0.05704 0.95151 0.0
C849 C 0.46235 0.14917 0.97924 0.0
C850 C 0.48611 0.13856 0.01654 0.0
N851 N 0.48069 0.12957 0.98907 0.0
N852 N 0.4562 0.17005 0.99959 0.0
C853 C 0.47113 0.16318 0.02306 0.0
H854 H 0.4539 0.14815 0.95755 0.0
H855 H 0.49993 0.1277 0.03109 0.0
C856 C 0.4542 0.06227 0.9416 0.0
N857 N 0.5323 0.02273 0.93491 0.0
C858 C 0.51772 0.99686 0.92879 0.0
C859 C 0.56231 0.01825 0.92878 0.0
N860 N 0.53755 0.97662 0.91965 0.0
C861 C 0.56557 0.99009 0.91971 0.0
C862 C 0.49101 0.05096 1.00839 0.0
O863 O 0.45752 0.08524 0.95706 0.0
O864 O 0.47702 0.0466 0.93659 0.0
O865 O 0.504 0.03705 0.98723 0.0
O866 O 0.48607 0.07712 1.0056 0.0
O867 O 0.55583 0.06911 0.96678 0.0
H868 H 0.58089 0.03429 0.9311 0.0
H869 H 0.49315 0.99266 0.93178 0.0
O870 O 0.53505 0.10778 0.9852 0.0
O871 O 0.50677 0.116 0.93726 0.0
O872 O 0.52742 0.07815 0.91613 0.0
C873 C 0.52063 0.10446 0.91528 0.0
H874 H 0.4708 0.1747 0.04385 0.0
H875 H 0.58693 0.98025 0.91342 0.0
H876 H 0.04664 0.12228 0.41985 0.0
H877 H 0.98923 0.0905 0.351 0.0
H878 H 0.98977 0.04201 0.36856 0.0
H879 H 1.01021 1.00764 0.40105 0.0
H880 H 0.06599 0.03987 0.47102 0.0
H881 H 0.06201 0.0887 0.45573 0.0
C882 C 0.03372 0.10487 0.40907 0.0
C883 C 0.01852 0.11005 0.38376 0.0
C884 C 0.03402 0.07684 0.41933 0.0
C885 C 1.00185 0.08709 0.37012 0.0
C886 C 1.00205 0.05927 0.38017 0.0
C887 C 0.02119 0.02537 0.41312 0.0
C888 C 0.03863 0.01987 0.43694 0.0
C889 C 0.01874 0.05371 0.40431 0.0
C890 C 0.05249 0.04326 0.45249 0.0
C891 C 0.05031 0.07134 0.44375 0.0
H892 H 1.01241 0.33476 0.34141 0.0
H893 H 0.02641 0.29601 0.42264 0.0
H894 H 0.02659 0.34319 0.4477 0.0
H895 H 0.02407 0.39551 0.44646 0.0
H896 H 1.01018 0.43512 0.36552 0.0
H897 H 1.00816 0.38784 0.34059 0.0
C898 C 1.01529 0.33677 0.36464 0.0
C899 C 0.01954 0.31195 0.38021 0.0
C900 C 1.0154 0.36417 0.37894 0.0
C901 C 0.0232 0.31478 0.41025 0.0
C902 C 0.02334 0.34177 0.42454 0.0
C903 C 0.02081 0.39399 0.42333 0.0
C904 C 1.0176 0.41923 0.40798 0.0
C905 C 0.01976 0.36667 0.40911 0.0
C906 C 1.01261 0.41632 0.37806 0.0
C907 C 1.0116 0.38919 0.36372 0.0
H908 H 0.99655 0.84925 0.10858 0.0
H909 H 0.0893 0.85647 0.13778 0.0
H910 H 0.09376 0.90661 0.12485 0.0
H911 H 0.07061 0.9494 0.10736 0.0
H912 H 0.97699 0.94287 0.08109 0.0
H913 H 0.97339 0.89187 0.09148 0.0
C914 C 1.0177 0.86174 0.11242 0.0
C915 C 0.04254 0.8487 0.12416 0.0
C916 C 0.0199 0.89094 0.10567 0.0
C917 C 0.06991 0.86545 0.1283 0.0
C918 C 0.07243 0.89435 0.12116 0.0
C919 C 0.04955 0.93673 0.10366 0.0
C920 C 0.02409 0.94998 0.09348 0.0
C921 C 0.04751 0.90741 0.11003 0.0
C922 C 0.99679 0.93331 0.0892 0.0
C923 C 0.99477 0.90409 0.09502 0.0
H924 H 0.03315 0.63335 0.13677 0.0
H925 H 1.01239 0.67052 0.05652 0.0
H926 H 0.99758 0.62277 0.036 0.0
H927 H 0.98656 0.57105 0.04292 0.0
H928 H 1.00758 0.53473 0.12397 0.0
H929 H 0.02653 0.58153 0.14213 0.0
C930 C 0.02596 0.63076 0.11459 0.0
C931 C 0.02364 0.65499 0.09804 0.0
C932 C 1.01727 0.60354 0.10328 0.0
C933 C 1.01421 0.65185 0.06944 0.0
C934 C 1.00565 0.62469 0.05786 0.0
C935 C 0.99554 0.57336 0.06444 0.0
C936 C 0.99532 0.5495 0.08215 0.0
C937 C 1.00641 0.60044 0.07487 0.0
C938 C 1.00727 0.55277 0.10991 0.0
C939 C 1.01813 0.57953 0.12038 0.0
H940 H 0.40693 0.99604 0.10848 0.0
H941 H 0.44703 0.06825 0.15662 0.0
H942 H 0.48136 0.08007 0.11472 0.0
H943 H 0.49589 0.073 0.06283 0.0
H944 H 0.4579 0.9999 0.01468 0.0
H945 H 0.42732 0.98484 0.05817 0.0
C946 C 0.42356 0.01408 0.10984 0.0
C947 C 0.4243 0.03143 0.13554 0.0
C948 C 0.44357 0.02052 0.08568 0.0
C949 C 0.44608 0.05458 0.13716 0.0
C950 C 0.46562 0.0614 0.11315 0.0
C951 C 0.48154 0.05331 0.06211 0.0
C952 C 0.47916 0.03753 0.03562 0.0
C953 C 0.46407 0.04493 0.08712 0.0
C954 C 0.46043 1.01216 0.03489 0.0
C955 C 0.44267 1.00378 0.05968 0.0
H956 H 0.62229 0.4778 0.2131 0.0
H957 H 0.71239 0.51965 0.20316 0.0
H958 H 0.70737 0.52106 0.15064 0.0
H959 H 0.67674 0.51169 0.10792 0.0
H960 H 0.58624 0.47032 0.11738 0.0
H961 H 0.59224 0.46664 0.16955 0.0
C962 C 0.64094 0.48674 0.19925 0.0
C963 C 0.66782 0.49832 0.21169 0.0
C964 C 0.63778 0.48754 0.16908 0.0
C965 C 0.6916 0.51052 0.19383 0.0
C966 C 0.68871 0.51133 0.16389 0.0
C967 C 0.65826 0.50197 0.12138 0.0
C968 C 0.63098 0.49152 0.10874 0.0
C969 C 0.66178 0.50017 0.15132 0.0
C970 C 0.60755 0.47838 0.12647 0.0
C971 C 0.61089 0.47644 0.15635 0.0
H972 H 0.41215 0.98725 0.32563 0.0
H973 H 0.31883 0.0124 0.33949 0.0
H974 H 0.32122 1.00574 0.39166 0.0
H975 H 0.34952 0.99258 0.43312 0.0
H976 H 0.44269 0.96651 0.42041 0.0
H977 H 0.44111 0.97439 0.36821 0.0
C978 C 0.39236 0.99099 0.34018 0.0
C979 C 0.36514 0.99986 0.32885 0.0
C980 C 0.39404 0.98728 0.37032 0.0
C981 C 0.33983 1.00527 0.34781 0.0
C982 C 0.34126 1.00156 0.3776 0.0
C983 C 0.36948 0.98837 0.419 0.0
C984 C 0.3961 0.97861 0.43081 0.0
C985 C 0.36819 0.99251 0.38908 0.0
C986 C 0.42197 0.97414 0.41208 0.0
C987 C 0.42096 0.97843 0.38215 0.0
H988 H 0.64304 0.47649 0.43658 0.0
H989 H 0.6069 0.54896 0.39713 0.0
H990 H 0.57806 0.56087 0.44239 0.0
H991 H 0.56659 0.55321 0.49435 0.0
H992 H 0.59998 0.47954 0.53385 0.0
H993 H 0.62595 0.46525 0.48747 0.0
C994 C 0.6285 0.49464 0.43786 0.0
C995 C 0.62725 0.51193 0.41351 0.0
C996 C 0.61152 0.50114 0.46399 0.0
C997 C 0.60815 0.53526 0.41542 0.0
C998 C 0.59176 0.54216 0.44137 0.0
C999 C 0.57908 0.53369 0.49266 0.0
C1000 C 0.58144 0.51749 0.51755 0.0
C1001 C 0.59372 0.52559 0.46593 0.0
C1002 C 0.59758 0.49223 0.51499 0.0
C1003 C 0.61267 0.48424 0.48852 0.0
H1004 H 0.14727 0.4508 0.98781 0.0
H1005 H 0.15349 0.41327 0.07139 0.0
H1006 H 0.09878 0.41778 0.08133 0.0
H1007 H 0.04955 0.43245 0.06733 0.0
H1008 H 0.04095 0.47161 0.98507 0.0
H1009 H 0.09598 0.46567 0.97333 0.0
C1010 C 0.13663 0.44361 1.00818 0.0
C1011 C 0.15489 0.43209 0.029 0.0
C1012 C 0.10465 0.44625 0.01391 0.0
C1013 C 0.14048 0.4229 0.05524 0.0
C1014 C 0.10901 0.42518 0.06087 0.0
C1015 C 0.05941 0.43965 0.04664 0.0
C1016 C 0.04084 0.45248 0.0271 0.0
C1017 C 0.09094 0.43686 0.04047 0.0
C1018 C 0.05447 0.46153 1.00049 0.0
C1019 C 0.08604 0.45828 0.99388 0.0
H1020 H 0.14808 0.65621 0.50918 0.0
H1021 H 0.20311 0.58597 0.48037 0.0
H1022 H 0.1568 0.55779 0.46585 0.0
H1023 H 0.10023 0.55402 0.45994 0.0
H1024 H 0.04637 0.62542 0.48919 0.0
H1025 H 0.09223 0.6519 0.50509 0.0
C1026 C 0.14979 0.63467 0.49981 0.0
C1027 C 0.17879 0.62319 0.49557 0.0
C1028 C 0.12317 0.61874 0.49161 0.0
C1029 C 0.18091 0.59525 0.48356 0.0
C1030 C 0.15446 0.57918 0.47533 0.0
C1031 C 0.09856 0.57523 0.47005 0.0
C1032 C 0.06975 0.58763 0.47316 0.0
C1033 C 0.12537 0.59077 0.47905 0.0
C1034 C 0.06812 0.61527 0.48624 0.0
C1035 C 0.09441 0.63057 0.4954 0.0
H1036 H 0.86984 0.93741 0.52522 0.0
H1037 H 0.8657 0.85398 0.48198 0.0
H1038 H 0.92146 0.85709 0.47294 0.0
H1039 H 0.97117 0.88427 0.47545 0.0
H1040 H 0.97674 0.96591 0.52189 0.0
H1041 H 0.92099 0.96213 0.53301 0.0
C1042 C 0.88121 0.91949 0.51469 0.0
C1043 C 0.86346 0.89523 0.50467 0.0
C1044 C 0.91363 0.92101 0.51041 0.0
C1045 C 0.87867 0.87287 0.48987 0.0
C1046 C 0.91061 0.87457 0.48484 0.0
C1047 C 0.96029 0.90096 0.48861 0.0
C1048 C 0.9782 0.9253 0.49797 0.0
C1049 C 0.92831 0.89858 0.49484 0.0
C1050 C 0.96369 0.94677 0.51483 0.0
C1051 C 0.9317 0.94475 0.52084 0.0
H1052 H 0.36267 0.5883 0.5669 0.0
H1053 H 0.40556 0.65682 0.51661 0.0
H1054 H 0.45616 0.63997 0.52496 0.0
H1055 H 0.48867 0.60687 0.54745 0.0
H1056 H 0.44711 0.53726 0.59694 0.0
H1057 H 0.39587 0.55322 0.58785 0.0
C1058 C 0.38312 0.59948 0.55778 0.0
C1059 C 0.38013 0.62381 0.54103 0.0
C1060 C 0.41249 0.58945 0.56247 0.0
C1061 C 0.40698 0.63788 0.52924 0.0
C1062 C 0.43603 0.62833 0.53411 0.0
C1063 C 0.46845 0.59501 0.55616 0.0
C1064 C 0.47191 0.5709 0.57298 0.0
C1065 C 0.43911 0.60424 0.55077 0.0
C1066 C 0.44527 0.5558 0.58385 0.0
C1067 C 0.41591 0.56504 0.57876 0.0
H1068 H 0.51697 0.62458 0.91241 0.0
H1069 H 0.5964 0.66438 0.95266 0.0
H1070 H 0.60427 0.61985 0.97695 0.0
H1071 H 0.59065 0.56833 0.98389 0.0
H1072 H 0.51217 0.52886 0.94182 0.0
H1073 H 0.50143 0.57465 0.92181 0.0
C1074 C 0.53565 0.62379 0.92698 0.0
C1075 C 0.55606 0.64789 0.93062 0.0
C1076 C 0.54022 0.59806 0.9406 0.0
C1077 C 0.58051 0.64611 0.94915 0.0
C1078 C 0.58497 0.62066 0.96316 0.0
C1079 C 0.57086 0.56994 0.97083 0.0
C1080 C 0.55223 0.54521 0.96436 0.0
C1081 C 0.56527 0.59631 0.95866 0.0
C1082 C 0.52691 0.54754 0.94706 0.0
C1083 C 0.5208 0.57371 0.93552 0.0
H1084 H 0.50905 0.85545 0.85896 0.0
H1085 H 0.56831 0.8299 0.92429 0.0
H1086 H 0.57267 0.87925 0.94386 0.0
H1087 H 0.56213 0.93056 0.9407 0.0
H1088 H 0.49894 0.95585 0.87896 0.0
H1089 H 0.49318 0.90605 0.85993 0.0
C1090 C 0.52265 0.8607 0.87766 0.0
C1091 C 0.53915 0.83908 0.88956 0.0
C1092 C 0.52433 0.88918 0.88942 0.0
C1093 C 0.5561 0.84619 0.9142 0.0
C1094 C 0.55853 0.87443 0.92547 0.0
C1095 C 0.54681 0.925 0.92333 0.0
C1096 C 0.53107 0.94684 0.91113 0.0
C1097 C 0.5432 0.89623 0.91298 0.0
C1098 C 0.51113 0.93939 0.88877 0.0
C1099 C 0.50801 0.91094 0.87781 0.0
H1100 H 0.5643 0.33352 0.68385 0.0
H1101 H 0.51128 0.30005 0.61272 0.0
H1102 H 0.50547 0.34867 0.59659 0.0
H1103 H 0.51232 0.40125 0.60477 0.0
H1104 H 0.56894 0.4351 0.67293 0.0
H1105 H 0.57684 0.3862 0.68811 0.0
C1106 C 0.55177 0.33697 0.66466 0.0
C1107 C 0.53721 0.31328 0.65013 0.0
C1108 C 0.54914 0.36513 0.65506 0.0
C1109 C 0.52174 0.31797 0.62486 0.0
C1110 C 0.51853 0.34578 0.61556 0.0
C1111 C 0.52676 0.39775 0.62264 0.0
C1112 C 0.54002 0.42161 0.63779 0.0
C1113 C 0.53155 0.36959 0.63083 0.0
C1114 C 0.55874 0.41698 0.66089 0.0
C1115 C 0.56307 0.38905 0.66962 0.0
H1116 H 0.48647 0.13049 0.59456 0.0
H1117 H 0.5651 0.09764 0.63281 0.0
H1118 H 0.55324 0.05019 0.61119 0.0
H1119 H 0.51626 0.01674 0.58777 0.0
H1120 H 0.43802 0.04907 0.54851 0.0
H1121 H 0.45413 0.09808 0.56378 0.0
C1122 C 0.50149 0.11314 0.59734 0.0
C1123 C 0.52621 0.11731 0.61568 0.0
C1124 C 0.49432 0.08575 0.5851 0.0
C1125 C 0.54558 0.0947 0.61917 0.0
C1126 C 0.53878 0.06757 0.60692 0.0
C1127 C 0.50306 0.03462 0.58218 0.0
C1128 C 0.47581 0.02943 0.56756 0.0
C1129 C 0.51247 0.0626 0.59093 0.0
C1130 C 0.45908 0.05266 0.55991 0.0
C1131 C 0.4682 0.08064 0.56873 0.0
H1132 H 0.88724 0.5497 0.60953 0.0
H1133 H 0.94109 0.47968 0.63146 0.0
H1134 H 0.96963 0.4825 0.5842 0.0
H1135 H 0.97812 0.50463 0.53529 0.0
H1136 H 0.92189 0.57424 0.51578 0.0
H1137 H 0.89531 0.57121 0.56277 0.0
C1138 C 0.90506 0.53483 0.604 0.0
C1139 C 0.91166 0.5143 0.624 0.0
C1140 C 0.92093 0.53634 0.57684 0.0
C1141 C 0.93551 0.49581 0.61659 0.0
C1142 C 0.95168 0.49728 0.58942 0.0
C1143 C 0.95997 0.51897 0.54135 0.0
C1144 C 0.95231 0.53971 0.52175 0.0
C1145 C 0.9444 0.51734 0.5691 0.0
C1146 C 0.92872 0.55821 0.53021 0.0
C1147 C 0.91331 0.55655 0.55723 0.0
H1148 H 0.11098 1.00781 0.68879 0.0
H1149 H 0.15738 0.92826 0.68062 0.0
H1150 H 0.14094 0.92082 0.63122 0.0
H1151 H 0.11947 0.94005 0.58785 0.0
H1152 H 0.07954 0.02236 0.59423 0.0
H1153 H 0.08779 0.02594 0.64642 0.0
C1154 C 0.11764 0.98884 0.67629 0.0
C1155 C 0.13574 0.96886 0.68865 0.0
C1156 C 0.10953 0.98537 0.64726 0.0
C1157 C 0.14316 0.94397 0.67213 0.0
C1158 C 0.13409 0.9398 0.6436 0.0
C1159 C 0.11209 0.95839 0.60096 0.0
C1160 C 0.09894 0.98091 0.58757 0.0
C1161 C 0.1181 0.96077 0.63064 0.0
C1162 C 0.08978 1.00489 0.60437 0.0
C1163 C 0.09455 1.00692 0.63408 0.0
H1164 H 0.91741 0.47458 0.8231 0.0
H1165 H 0.83257 0.51716 0.83826 0.0
H1166 H 0.84028 0.52012 0.8904 0.0
H1167 H 0.87251 0.51327 0.93137 0.0
H1168 H 0.95721 0.47039 0.91742 0.0
H1169 H 0.94797 0.46416 0.86539 0.0
C1170 C 0.90027 0.48377 0.83796 0.0
C1171 C 0.8742 0.49533 0.8269 0.0
C1172 C 0.90498 0.48551 0.86811 0.0
C1173 C 0.85265 0.50797 0.84631 0.0
C1174 C 0.85711 0.50975 0.87611 0.0
C1175 C 0.88894 0.50251 0.91696 0.0
C1176 C 0.91572 0.49263 0.92824 0.0
C1177 C 0.88343 0.49907 0.8872 0.0
C1178 C 0.93642 0.47815 0.90933 0.0
C1179 C 0.93119 0.47474 0.87955 0.0
H1180 H 0.1871 0.99246 0.90882 0.0
H1181 H 0.11752 0.02336 0.85663 0.0
H1182 H 0.08641 0.03577 0.90054 0.0
H1183 H 0.08124 0.04195 0.9542 0.0
H1184 H 0.14976 1.00934 1.00634 0.0
H1185 H 0.17862 0.99294 0.96242 0.0
C1186 C 0.16487 1.00145 0.90711 0.0
C1187 C 0.15486 1.0074 0.87947 0.0
C1188 C 0.14684 1.00813 0.93255 0.0
C1189 C 0.12593 0.01894 0.87763 0.0
C1190 C 0.10811 0.02601 0.90275 0.0
C1191 C 0.10195 0.03038 0.95586 0.0
C1192 C 0.11304 0.02627 0.98347 0.0
C1193 C 0.11857 0.02122 0.93039 0.0
C1194 C 0.14039 1.01206 0.98536 0.0
C1195 C 0.15709 1.003 0.96021 0.0
H1196 H 0.61929 0.89027 0.48794 0.0
H1197 H 0.64583 0.94366 0.56192 0.0
H1198 H 0.59371 0.95953 0.56873 0.0
H1199 H 0.53989 0.95583 0.55654 0.0
H1200 H 0.5111 0.90291 0.48344 0.0
H1201 H 0.56475 0.89 0.47285 0.0
C1202 C 0.6138 0.9057 0.50529 0.0
C1203 C 0.63674 0.91525 0.52473 0.0
C1204 C 0.58331 0.91495 0.50917 0.0
C1205 C 0.62884 0.93524 0.54707 0.0
C1206 C 0.59896 0.94456 0.55088 0.0
C1207 C 0.5454 0.94185 0.53789 0.0
C1208 C 0.52148 0.93042 0.52074 0.0
C1209 C 0.57594 0.93417 0.53248 0.0
C1210 C 0.52903 0.91233 0.49674 0.0
C1211 C 0.55971 0.90472 0.49096 0.0
H1212 H 0.67224 0.17373 0.01564 0.0
H1213 H 0.72224 0.10842 0.96863 0.0
H1214 H 0.67397 0.08047 0.96028 0.0
H1215 H 0.61683 0.07569 0.96517 0.0
H1216 H 0.56839 0.14067 0.01508 0.0
H1217 H 0.61656 0.16711 0.02403 0.0
C1218 C 0.6725 0.15331 1.00364 0.0
C1219 C 0.70056 0.14341 0.9922 0.0
C1220 C 0.64487 0.13713 0.99967 0.0
C1221 C 0.70075 0.11676 0.97705 0.0
C1222 C 0.67319 0.10071 0.97248 0.0
C1223 C 0.6169 0.09538 0.97836 0.0
C1224 C 0.58883 0.10618 0.98917 0.0
C1225 C 0.64499 0.11078 0.98354 0.0
C1226 C 0.58947 0.13182 1.00623 0.0
C1227 C 0.61707 0.14712 1.01134 0.0
H1228 H 0.39857 0.39905 0.03955 0.0
H1229 H 0.373 0.47696 1.00226 0.0
H1230 H 0.42673 0.49516 1.00062 0.0
H1231 H 0.48159 0.48678 1.00516 0.0
H1232 H 0.50774 0.40922 0.04247 0.0
H1233 H 0.4534 0.3933 0.04965 0.0
C1234 C 0.40486 0.42008 0.03127 0.0
C1235 C 0.38204 0.43624 0.02003 0.0
C1236 C 0.43588 0.43059 0.03082 0.0
C1237 C 0.3903 0.46373 1.01003 0.0
C1238 C 0.42098 0.47424 1.00935 0.0
C1239 C 0.47526 0.46696 0.01601 0.0
C1240 C 0.49858 0.44958 0.02411 0.0
C1241 C 0.44405 0.45764 0.01914 0.0
C1242 C 0.4902 0.42339 0.03701 0.0
C1243 C 0.45912 0.41409 0.0406 0.0
H1244 H 0.93415 0.17151 0.99557 0.0
H1245 H 0.87948 0.10538 0.03983 0.0
H1246 H 0.92547 0.0792 0.04621 0.0
H1247 H 0.98126 0.07592 0.04146 0.0
H1248 H 0.03726 0.14275 0.99965 0.0
H1249 H 0.99087 0.16748 0.98975 0.0
C1250 C 0.93231 0.15122 1.00633 0.0
C1251 C 0.90324 0.14054 0.01731 0.0
C1252 C 0.95915 0.13635 1.01038 0.0
C1253 C 0.90144 0.11433 0.03146 0.0
C1254 C 0.92777 0.09925 0.03504 0.0
C1255 C 0.98348 0.09572 0.02983 0.0
C1256 C 1.01296 0.10728 0.0212 0.0
C1257 C 0.95678 0.11018 0.0249 0.0
C1258 C 1.01503 0.13319 1.00645 0.0
C1259 C 0.98843 0.14743 1.00089 0.0
H1260 H 0.05056 0.20296 0.19503 0.0
H1261 H 1.0146 0.13195 0.24538 0.0
H1262 H 0.02253 0.09895 0.20344 0.0
H1263 H 0.04231 0.08993 0.15275 0.0
H1264 H 0.08115 0.16125 0.10389 0.0
H1265 H 0.06964 0.19416 0.14458 0.0
C1266 C 0.04411 0.18031 0.19657 0.0
C1267 C 0.03145 0.16996 0.22297 0.0
C1268 C 0.04957 0.16137 0.17263 0.0
C1269 C 0.02375 0.14047 0.22501 0.0
C1270 C 0.02853 0.12158 0.20112 0.0
C1271 C 0.04804 0.11269 0.15099 0.0
C1272 C 0.0627 0.12296 0.12524 0.0
C1273 C 0.04176 0.1317 0.17483 0.0
C1274 C 0.07009 0.15258 0.12345 0.0
C1275 C 0.06346 0.17154 0.14673 0.0
H1276 H 0.03859 0.31779 0.20735 0.0
H1277 H 0.99234 0.35562 0.28295 0.0
H1278 H 0.98041 0.39676 0.2551 0.0
H1279 H 0.97972 0.41975 0.20885 0.0
H1280 H 0.02495 0.38242 0.13233 0.0
H1281 H 0.04024 0.34277 0.16079 0.0
C1282 C 0.02642 0.33539 0.21767 0.0
C1283 C 1.01637 0.33402 0.24699 0.0
C1284 C 0.01902 0.3586 0.20132 0.0
C1285 C 1.00023 0.3565 0.26033 0.0
C1286 C 0.99333 0.37985 0.24443 0.0
C1287 C 0.99342 0.4033 0.1984 0.0
C1288 C 1.00122 0.40412 0.1685 0.0
C1289 C 1.00209 0.38082 0.21482 0.0
C1290 C 0.01833 0.38212 0.15525 0.0
C1291 C 0.02724 0.35958 0.17154 0.0
H1292 H 0.05719 0.77592 0.29029 0.0
H1293 H 0.01903 0.8256 0.22544 0.0
H1294 H 1.01375 0.86602 0.26047 0.0
H1295 H 1.01781 0.88596 0.31026 0.0
H1296 H 0.05607 0.8361 0.37504 0.0
H1297 H 0.064 0.79696 0.33933 0.0
C1298 C 0.04832 0.79588 0.28388 0.0
C1299 C 0.03878 0.79829 0.25561 0.0
C1300 C 0.04524 0.81873 0.30409 0.0
C1301 C 0.02673 0.82377 0.24724 0.0
C1302 C 0.0236 0.84667 0.26721 0.0
C1303 C 0.02781 0.86648 0.31643 0.0
C1304 C 0.03618 0.86372 0.3451 0.0
C1305 C 0.03233 0.84419 0.29581 0.0
C1306 C 0.04966 0.83866 0.35295 0.0
C1307 C 0.05407 0.81628 0.33262 0.0
H1308 H 0.05945 0.60931 0.26667 0.0
H1309 H 0.96968 0.6446 0.27287 0.0
H1310 H 0.95743 0.62016 0.31774 0.0
H1311 H 0.9729 0.59209 0.35719 0.0
H1312 H 0.06196 0.55618 0.35348 0.0
H1313 H 0.07369 0.57721 0.30567 0.0
C1314 C 0.03716 0.61148 0.27777 0.0
C1315 C 1.0155 0.62882 0.26606 0.0
C1316 C 0.03014 0.59732 0.30409 0.0
C1317 C 0.98665 0.63112 0.28079 0.0
C1318 C 0.97965 0.6173 0.30671 0.0
C1319 C 0.99484 0.58858 0.34581 0.0
C1320 C 1.01666 0.57285 0.35895 0.0
C1321 C 1.00132 0.60079 0.31875 0.0
C1322 C 0.04475 0.56814 0.34378 0.0
C1323 C 0.05149 0.58037 0.31657 0.0
H1324 H 0.20247 1.00698 0.18582 0.0
H1325 H 0.27643 0.05614 0.14284 0.0
H1326 H 0.2423 0.06842 0.10512 0.0
H1327 H 0.19035 0.06703 0.08548 0.0
H1328 H 0.1175 0.01486 0.12706 0.0
H1329 H 0.15205 1.00175 0.16359 0.0
C1330 C 0.21106 0.02018 0.16804 0.0
C1331 C 0.24167 0.0312 0.16748 0.0
C1332 C 0.19142 0.02668 0.14605 0.0
C1333 C 0.25273 0.04791 0.14405 0.0
C1334 C 0.23324 0.05488 0.12244 0.0
C1335 C 0.18214 0.0526 0.10237 0.0
C1336 C 0.1512 0.04221 0.10347 0.0
C1337 C 0.20236 0.04473 0.12339 0.0
C1338 C 0.14111 0.0233 0.1255 0.0
C1339 C 0.16087 0.0158 0.14659 0.0
H1340 H 0.78198 0.48716 0.16196 0.0
H1341 H 0.84149 0.53461 0.22049 0.0
H1342 H 0.88341 0.5348 0.18332 0.0
H1343 H 0.90449 0.51819 0.13576 0.0
H1344 H 0.84571 0.47237 0.07567 0.0
H1345 H 0.802 0.47532 0.11135 0.0
C1346 C 0.8041 0.49769 0.16636 0.0
C1347 C 0.80877 0.51065 0.19405 0.0
C1348 C 0.8281 0.49818 0.14453 0.0
C1349 C 0.83738 0.52451 0.19941 0.0
C1350 C 0.86135 0.52461 0.17816 0.0
C1351 C 0.88186 0.50955 0.13019 0.0
C1352 C 0.8782 0.49534 0.10305 0.0
C1353 C 0.85713 0.51118 0.15084 0.0
C1354 C 0.84893 0.48392 0.09619 0.0
C1355 C 0.82408 0.48527 0.11678 0.0
H1356 H 0.20626 0.95719 0.32115 0.0
H1357 H 0.24252 0.03214 0.36807 0.0
H1358 H 0.20475 0.02307 0.40808 0.0
H1359 H 0.15953 0.99414 0.42936 0.0
H1360 H 0.12737 0.91783 0.38199 0.0
H1361 H 0.16625 0.92654 0.34357 0.0
C1362 C 0.20673 0.97132 0.34029 0.0
C1363 C 0.22757 0.99541 0.34111 0.0
C1364 C 0.18559 0.96557 0.36359 0.0
C1365 C 0.22657 0.0137 0.36617 0.0
C1366 C 0.20508 1.00836 0.38936 0.0
C1367 C 0.16153 0.97919 0.41091 0.0
C1368 C 0.14026 0.95547 0.40859 0.0
C1369 C 0.18423 0.98438 0.3883 0.0
C1370 C 0.14311 0.93643 0.38433 0.0
C1371 C 0.16536 0.94139 0.36218 0.0
H1372 H 0.84186 0.49669 0.32935 0.0
H1373 H 0.78256 0.53808 0.39361 0.0
H1374 H 0.8257 0.54782 0.42499 0.0
H1375 H 0.88106 0.54709 0.43278 0.0
H1376 H 0.93941 0.50095 0.37137 0.0
H1377 H 0.89595 0.49001 0.34045 0.0
C1378 C 0.83852 0.50766 0.35032 0.0
C1379 C 0.80953 0.51772 0.35873 0.0
C1380 C 0.86318 0.5122 0.36874 0.0
C1381 C 0.80504 0.53111 0.38631 0.0
C1382 C 0.8296 0.53651 0.40431 0.0
C1383 C 0.88405 0.53431 0.41281 0.0
C1384 C 0.91324 0.52497 0.40417 0.0
C1385 C 0.85889 0.52762 0.39552 0.0
C1386 C 0.91698 0.5082 0.37845 0.0
C1387 C 0.89223 0.50212 0.3607 0.0
H1388 H 0.1774 0.29517 0.02354 0.0
H1389 H 0.27127 0.27121 1.01151 0.0
H1390 H 0.25458 0.22042 0.01378 0.0
H1391 H 0.2137 0.18338 0.02003 0.0
H1392 H 0.11915 0.20631 0.03057 0.0
H1393 H 0.13567 0.25713 0.02885 0.0
C1394 C 0.194 0.27866 0.02133 0.0
C1395 C 0.22543 0.28654 0.01736 0.0
C1396 C 0.18417 0.24955 0.02269 0.0
C1397 C 0.24698 0.26533 0.01451 0.0
C1398 C 0.23744 0.23643 0.01589 0.0
C1399 C 0.1965 0.1993 0.02152 0.0
C1400 C 0.1651 0.1908 0.02516 0.0
C1401 C 0.20613 0.22832 0.02004 0.0
C1402 C 0.14344 0.2121 0.02795 0.0
C1403 C 0.15288 0.24119 0.02677 0.0
H1404 H 0.15095 0.77579 0.46862 0.0
H1405 H 0.18165 0.8117 0.55034 0.0
H1406 H 0.15028 0.85286 0.54579 0.0
H1407 H 0.11579 0.88007 0.51767 0.0
H1408 H 0.08479 0.84426 0.43598 0.0
H1409 H 0.11436 0.80201 0.44154 0.0
C1410 C 0.15082 0.79262 0.48544 0.0
C1411 C 0.16885 0.79044 0.50981 0.0
C1412 C 0.13257 0.81644 0.48271 0.0
C1413 C 0.16789 0.81243 0.53151 0.0
C1414 C 0.15002 0.83617 0.52884 0.0
C1415 C 0.11521 0.86292 0.50117 0.0
C1416 C 0.09795 0.86559 0.47639 0.0
C1417 C 0.13244 0.83856 0.50444 0.0
C1418 C 0.09766 0.84297 0.45534 0.0
C1419 C 0.11474 0.81875 0.45843 0.0
H1420 H 0.82668 0.72565 0.487 0.0
H1421 H 0.89568 0.78212 0.52586 0.0
H1422 H 0.93426 0.74645 0.51525 0.0
H1423 H 0.94902 0.70067 0.49163 0.0
H1424 H 0.87991 0.64353 0.45405 0.0
H1425 H 0.84049 0.67775 0.46768 0.0
C1426 C 0.85012 0.72995 0.49338 0.0
C1427 C 0.85846 0.75651 0.50699 0.0
C1428 C 0.87207 0.70929 0.48732 0.0
C1429 C 0.88876 0.76178 0.51547 0.0
C1430 C 0.91081 0.74147 0.50925 0.0
C1431 C 0.92527 0.69571 0.48662 0.0
C1432 C 0.91735 0.66982 0.47156 0.0
C1433 C 0.90285 0.71541 0.49468 0.0
C1434 C 0.88645 0.6633 0.46566 0.0
C1435 C 0.86402 0.68293 0.4733 0.0
H1436 H 0.31222 0.80359 0.52755 0.0
H1437 H 0.37079 0.75024 0.57182 0.0
H1438 H 0.4058 0.79198 0.5824 0.0
H1439 H 0.42042 0.84414 0.57729 0.0
H1440 H 0.36134 0.89539 0.53037 0.0
H1441 H 0.32619 0.85435 0.52264 0.0
C1442 C 0.33267 0.80123 0.53955 0.0
C1443 C 0.33909 0.77414 0.54888 0.0
C1444 C 0.35274 0.82503 0.54498 0.0
C1445 C 0.36552 0.77109 0.56448 0.0
C1446 C 0.3855 0.79491 0.57045 0.0
C1447 C 0.3998 0.84621 0.56552 0.0
C1448 C 0.39381 0.87283 0.55422 0.0
C1449 C 0.37949 0.82207 0.56059 0.0
C1450 C 0.36691 0.87515 0.53897 0.0
C1451 C 0.34659 0.85168 0.53456 0.0
H1452 H 0.52571 0.6274 0.7755 0.0
H1453 H 0.54883 0.70696 0.73343 0.0
H1454 H 0.55213 0.68151 0.68612 0.0
H1455 H 0.55069 0.63663 0.65696 0.0
H1456 H 0.52759 0.55645 0.69818 0.0
H1457 H 0.52174 0.58201 0.74537 0.0
C1458 C 0.53099 0.63908 0.75585 0.0
C1459 C 0.53679 0.66905 0.75784 0.0
C1460 C 0.53301 0.62417 0.72861 0.0
C1461 C 0.54409 0.68395 0.73234 0.0
C1462 C 0.54606 0.66938 0.70533 0.0
C1463 C 0.54422 0.62464 0.67619 0.0
C1464 C 0.53976 0.59452 0.67387 0.0
C1465 C 0.54093 0.63948 0.70322 0.0
C1466 C 0.53119 0.57956 0.69918 0.0
C1467 C 0.5279 0.59421 0.72624 0.0
H1468 H 0.55303 0.84602 0.74208 0.0
H1469 H 0.48731 0.78126 0.71098 0.0
H1470 H 0.47393 0.81258 0.67273 0.0
H1471 H 0.47714 0.86023 0.65164 0.0
H1472 H 0.54125 0.92555 0.68424 0.0
H1473 H 0.55942 0.89208 0.71824 0.0
C1474 C 0.53629 0.83857 0.72651 0.0
C1475 C 0.52103 0.81154 0.72935 0.0
C1476 C 0.52828 0.85687 0.70506 0.0
C1477 C 0.49907 0.80219 0.70932 0.0
C1478 C 0.49145 0.82004 0.68748 0.0
C1479 C 0.49555 0.86686 0.66575 0.0
C1480 C 0.50771 0.89528 0.6657 0.0
C1481 C 0.50533 0.84771 0.68564 0.0
C1482 C 0.5313 0.90382 0.68429 0.0
C1483 C 0.54169 0.88473 0.70366 0.0
H1484 H 0.52572 0.34997 0.77186 0.0
H1485 H 0.59407 0.30326 0.81188 0.0
H1486 H 0.5975 0.33993 0.85089 0.0
H1487 H 0.5768 0.38191 0.876 0.0
H1488 H 0.50809 0.42873 0.83646 0.0
H1489 H 0.50874 0.39498 0.7948 0.0
C1490 C 0.54146 0.34802 0.78908 0.0
C1491 C 0.55933 0.32399 0.7894 0.0
C1492 C 0.54295 0.36887 0.81154 0.0
C1493 C 0.58015 0.32173 0.81133 0.0
C1494 C 0.58197 0.34254 0.83366 0.0
C1495 C 0.56246 0.38521 0.85803 0.0
C1496 C 0.5421 0.40755 0.85953 0.0
C1497 C 0.5629 0.36577 0.83432 0.0
C1498 C 0.52345 0.41127 0.83611 0.0
C1499 C 0.52391 0.3921 0.81225 0.0
H1500 H 0.53685 0.19915 0.82026 0.0
H1501 H 0.55623 0.12595 0.76437 0.0
H1502 H 0.55199 0.09476 0.80625 0.0
H1503 H 0.53935 0.08795 0.85896 0.0
H1504 H 0.51895 0.16222 0.91369 0.0
H1505 H 0.52709 0.19295 0.87255 0.0
C1506 C 0.54071 0.17645 0.81745 0.0
C1507 C 0.54737 0.16492 0.78947 0.0
C1508 C 0.53771 0.15865 0.84152 0.0
C1509 C 0.55169 0.13537 0.78588 0.0
C1510 C 0.54901 0.11752 0.80979 0.0
C1511 C 0.537 0.11087 0.86189 0.0
C1512 C 0.52825 0.1225 0.88955 0.0
C1513 C 0.54156 0.12882 0.83777 0.0
C1514 C 0.52532 0.15237 0.89277 0.0
C1515 C 0.53003 0.17016 0.86918 0.0
H1516 H 0.74727 0.54059 0.65431 0.0
H1517 H 0.70053 0.48905 0.72004 0.0
H1518 H 0.65167 0.49304 0.69674 0.0
H1519 H 0.62202 0.51274 0.65872 0.0
H1520 H 0.66802 0.56793 0.5955 0.0
H1521 H 0.71731 0.56145 0.61699 0.0
C1522 C 0.72626 0.53058 0.66371 0.0
C1523 C 0.7273 0.51503 0.68921 0.0
C1524 C 0.69818 0.53372 0.65067 0.0
C1525 C 0.70015 0.5014 0.70065 0.0
C1526 C 0.67228 0.50371 0.68734 0.0
C1527 C 0.64286 0.52322 0.64951 0.0
C1528 C 0.64135 0.54067 0.62538 0.0
C1529 C 0.67096 0.52003 0.66249 0.0
C1530 C 0.66853 0.55439 0.61401 0.0
C1531 C 0.69672 0.55067 0.6263 0.0
H1532 H 0.32584 1.00828 0.7069 0.0
H1533 H 0.25367 0.94977 0.67698 0.0
H1534 H 0.28368 0.94066 0.63141 0.0
H1535 H 0.33271 0.94712 0.60129 0.0
H1536 H 0.40302 1.00777 0.63128 0.0
H1537 H 0.37122 0.01914 0.67475 0.0
C1538 C 0.31647 0.9939 0.6902 0.0
C1539 C 0.28762 0.97961 0.69546 0.0
C1540 C 0.33345 0.98946 0.66373 0.0
C1541 C 0.27595 0.96085 0.67361 0.0
C1542 C 0.29305 0.95576 0.64747 0.0
C1543 C 0.34046 0.96357 0.61684 0.0
C1544 C 0.37 0.977 0.61277 0.0
C1545 C 0.32206 0.96975 0.64231 0.0
C1546 C 0.38016 0.99758 0.63364 0.0
C1547 C 0.36214 1.00383 0.65873 0.0
H1548 H 0.75102 0.51342 0.87576 0.0
H1549 H 0.69811 0.47187 0.80815 0.0
H1550 H 0.6549 0.46314 0.84272 0.0
H1551 H 0.63249 0.46608 0.89165 0.0
H1552 H 0.68394 0.50634 0.96098 0.0
H1553 H 0.72745 0.5167 0.92632 0.0
C1554 C 0.72989 0.50268 0.86872 0.0
C1555 C 0.72775 0.49317 0.83947 0.0
C1556 C 0.70503 0.49732 0.88898 0.0
C1557 C 0.70037 0.47912 0.83057 0.0
C1558 C 0.67565 0.47414 0.85031 0.0
C1559 C 0.65313 0.4772 0.8994 0.0
C1560 C 0.65486 0.48541 0.92898 0.0
C1561 C 0.67782 0.48291 0.87953 0.0
C1562 C 0.68197 0.4997 0.93837 0.0
C1563 C 0.70682 0.50567 0.91852 0.0
H1564 H 0.32386 0.05225 0.88751 0.0
H1565 H 0.36254 0.97746 0.84548 0.0
H1566 H 0.40927 0.98619 0.8722 0.0
H1567 H 0.44008 0.01629 0.90579 0.0
H1568 H 0.40166 0.09166 0.94708 0.0
H1569 H 0.35401 0.08149 0.92228 0.0
C1570 C 0.34257 0.03793 0.88411 0.0
C1571 C 0.33974 0.01432 0.86443 0.0
C1572 C 0.36947 0.04319 0.89937 0.0
C1573 C 0.36399 0.99566 0.86068 0.0
C1574 C 0.3908 1.00072 0.87583 0.0
C1575 C 0.42122 0.0304 0.90954 0.0
C1576 C 0.42455 0.05477 0.92819 0.0
C1577 C 0.39391 0.02457 0.89503 0.0
C1578 C 0.39981 0.07277 0.93281 0.0
C1579 C 0.37253 0.06702 0.91858 0.0
H1580 H 0.71804 0.73957 0.54694 0.0
H1581 H 0.64811 0.79007 0.51472 0.0
H1582 H 0.60948 0.75099 0.52337 0.0
H1583 H 0.59574 0.7027 0.54008 0.0
H1584 H 0.66481 0.65208 0.57361 0.0
H1585 H 0.7036 0.6913 0.5655 0.0
C1586 C 0.69433 0.74178 0.54172 0.0
C1587 C 0.68585 0.7673 0.52975 0.0
C1588 C 0.67216 0.71949 0.54744 0.0
C1589 C 0.6551 0.77034 0.52344 0.0
C1590 C 0.63305 0.74815 0.5286 0.0
C1591 C 0.6193 0.70024 0.54557 0.0
C1592 C 0.62747 0.67445 0.5572 0.0
C1593 C 0.64133 0.72267 0.54058 0.0
C1594 C 0.65793 0.67179 0.56483 0.0
C1595 C 0.68013 0.69409 0.55992 0.0
H1596 H 0.66722 0.29927 0.97152 0.0
H1597 H 0.70709 0.33065 0.05111 0.0
H1598 H 0.67577 0.37241 0.05211 0.0
H1599 H 0.63846 0.40143 0.0295 0.0
H1600 H 0.59858 0.37031 0.94981 0.0
H1601 H 0.62826 0.32746 0.94987 0.0
C1602 C 0.66913 0.31525 0.98907 0.0
C1603 C 0.68967 0.31154 1.01122 0.0
C1604 C 0.65092 0.33947 0.98955 0.0
C1605 C 0.69134 0.33249 0.03394 0.0
C1606 C 0.67349 0.35659 0.03446 0.0
C1607 C 0.63597 0.38517 0.01227 0.0
C1608 C 0.61613 0.38934 0.98968 0.0
C1609 C 0.65332 0.36045 0.01231 0.0
C1610 C 0.61346 0.36786 0.96756 0.0
C1611 C 0.6306 0.34329 0.96749 0.0
H1612 H 0.3595 0.26218 0.98099 0.0
H1613 H 0.40604 0.30391 0.05264 0.0
H1614 H 0.44122 0.26494 0.05251 0.0
H1615 H 0.45837 0.21913 0.03246 0.0
H1616 H 0.41078 0.17594 0.96216 0.0
H1617 H 0.37703 0.21588 0.96072 0.0
C1618 C 0.37753 0.26283 0.9964 0.0
C1619 C 0.38013 0.28589 0.01685 0.0
C1620 C 0.39757 0.24022 0.99632 0.0
C1621 C 0.40334 0.28626 0.03692 0.0
C1622 C 0.42355 0.26406 0.03675 0.0
C1623 C 0.44047 0.21814 0.01697 0.0
C1624 C 0.43711 0.19423 0.99761 0.0
C1625 C 0.42074 0.24087 0.01668 0.0
C1626 C 0.41418 0.19401 0.9772 0.0
C1627 C 0.39468 0.2168 0.9765 0.0
H1628 H 0.83384 0.32735 1.0089 0.0
H1629 H 0.89283 0.27496 0.05403 0.0
H1630 H 0.92639 0.31723 0.06566 0.0
H1631 H 0.93832 0.36956 0.06336 0.0
H1632 H 0.8813 0.42045 0.014 0.0
H1633 H 0.84787 0.37837 1.00326 0.0
C1634 C 0.85423 0.32527 0.02104 0.0
C1635 C 0.86086 0.29836 0.03085 0.0
C1636 C 0.87376 0.34937 0.02681 0.0
C1637 C 0.88729 0.29568 0.04652 0.0
C1638 C 0.90643 0.31977 0.05311 0.0
C1639 C 0.91863 0.37129 0.05019 0.0
C1640 C 0.91219 0.39801 0.03958 0.0
C1641 C 0.8998 0.3468 0.04348 0.0
C1642 C 0.88681 0.40004 0.02228 0.0
C1643 C 0.86759 0.37603 0.01621 0.0
loop_
_geom_bond_atom_site_label_1
_geom_bond_atom_site_label_2
_geom_bond_distance
_geom_bond_site_symmetry_2
_ccdc_geom_bond_type
C0 C1 1.443 . S
C0 N4 1.376 . S
C0 C38 1.389 1_655 S
C1 C0 1.443 . S
C1 C2 1.340 . S
C1 H41 0.951 . S
C2 C1 1.340 . S
C2 C3 1.439 . S
C2 H42 0.950 . S
C3 C2 1.439 . S
C3 N4 1.374 . S
C3 C37 1.395 . S
N4 C0 1.376 . S
N4 C3 1.374 . S
N4 Co5 2.008 1_655 S
Co5 N4 2.008 1_455 S
Co5 N6 1.995 . S
Co5 N11 2.008 . S
Co5 N16 1.995 . S
Co5 N21 2.282 . S
Co5 N27 2.282 . S
N6 Co5 1.995 . S
N6 C7 1.376 1_455 S
N6 C10 1.383 . S
C7 N6 1.376 1_655 S
C7 C8 1.446 . S
C7 C37 1.391 . S
C8 C7 1.446 . S
C8 C9 1.339 . S
C8 H43 0.949 . S
C9 C8 1.339 . S
C9 C10 1.439 1_655 S
C9 H44 0.950 . S
C10 N6 1.383 . S
C10 C9 1.439 1_455 S
C10 C39 1.392 . S
N11 Co5 2.008 . S
N11 C12 1.376 . S
N11 C15 1.374 . S
C12 N11 1.376 . S
C12 C13 1.443 . S
C12 C39 1.389 . S
C13 C12 1.443 . S
C13 C14 1.340 . S
C13 H45 0.951 . S
C14 C13 1.340 . S
C14 C15 1.439 . S
C14 H46 0.950 . S
C15 N11 1.374 . S
C15 C14 1.439 . S
C15 C40 1.395 . S
N16 Co5 1.995 . S
N16 C17 1.376 . S
N16 C20 1.383 . S
C17 N16 1.376 . S
C17 C18 1.446 . S
C17 C40 1.391 . S
C18 C17 1.446 . S
C18 C19 1.339 . S
C18 H47 0.949 . S
C19 C18 1.339 . S
C19 C20 1.439 . S
C19 H48 0.950 . S
C20 N16 1.383 . S
C20 C19 1.439 . S
C20 C38 1.392 . S
N21 Co5 2.282 . S
N21 C24 1.332 . S
N21 C26 1.332 . S
C22 C23 1.386 . S
C22 C25 1.388 . S
C23 C22 1.386 . S
C23 C24 1.382 . S
C23 H49 0.950 . S
C24 N21 1.332 . S
C24 C23 1.382 . S
C24 H35 0.952 . S
C25 C22 1.388 . S
C25 C26 1.382 . S
C25 H50 0.950 . S
C26 N21 1.332 . S
C26 C25 1.382 . S
C26 H36 0.948 1_455 S
N27 Co5 2.282 . S
N27 C31 1.316 1_455 S
N27 C32 1.332 . S
C28 C29 1.388 . S
C28 C32 1.382 . S
C28 H51 0.950 . S
C29 C28 1.388 . S
C29 C30 1.386 1_455 S
C30 C29 1.386 1_655 S
C30 C31 1.387 . S
C30 H52 0.950 . S
C31 N27 1.316 1_655 S
C31 C30 1.387 . S
C31 H33 0.963 . S
C32 N27 1.332 . S
C32 C28 1.382 . S
C32 H34 0.948 . S
H33 C31 0.963 . S
H34 C32 0.948 . S
H35 C24 0.952 . S
H36 C26 0.948 1_655 S
C37 C3 1.395 . S
C37 C7 1.391 . S
C38 C0 1.389 1_455 S
C38 C20 1.392 . S
C39 C10 1.392 . S
C39 C12 1.389 . S
C40 C15 1.395 . S
C40 C17 1.391 . S
H41 C1 0.951 . S
H42 C2 0.950 . S
H43 C8 0.949 . S
H44 C9 0.950 . S
H45 C13 0.951 . S
H46 C14 0.950 . S
H47 C18 0.949 . S
H48 C19 0.950 . S
H49 C23 0.950 . S
H50 C25 0.950 . S
H51 C28 0.950 . S
H52 C30 0.950 . S
C53 C54 1.443 . S
C53 N57 1.376 . S
C53 C91 1.389 . S
C54 C53 1.443 . S
C54 C55 1.340 . S
C54 H94 0.951 . S
C55 C54 1.340 . S
C55 C56 1.439 . S
C55 H95 0.950 . S
C56 C55 1.439 . S
C56 N57 1.374 . S
C56 C90 1.395 . S
N57 C53 1.376 . S
N57 C56 1.374 . S
N57 Co58 2.008 1_655 S
Co58 N57 2.008 1_455 S
Co58 N59 1.995 1_455 S
Co58 N64 2.008 . S
Co58 N69 1.995 . S
Co58 N74 2.282 . S
Co58 N80 2.282 . S
N59 Co58 1.995 1_655 S
N59 C60 1.376 . S
N59 C63 1.383 . S
C60 N59 1.376 . S
C60 C61 1.446 . S
C60 C90 1.391 . S
C61 C60 1.446 . S
C61 C62 1.339 . S
C61 H96 0.949 . S
C62 C61 1.339 . S
C62 C63 1.439 . S
C62 H97 0.950 . S
C63 N59 1.383 . S
C63 C62 1.439 . S
C63 C92 1.392 1_655 S
N64 Co58 2.008 . S
N64 C65 1.376 . S
N64 C68 1.374 . S
C65 N64 1.376 . S
C65 C66 1.443 . S
C65 C92 1.389 . S
C66 C65 1.443 . S
C66 C67 1.340 . S
C66 H98 0.951 . S
C67 C66 1.340 . S
C67 C68 1.439 . S
C67 H99 0.950 . S
C68 N64 1.374 . S
C68 C67 1.439 . S
C68 C93 1.395 . S
N69 Co58 1.995 . S
N69 C70 1.376 . S
N69 C73 1.383 . S
C70 N69 1.376 . S
C70 C71 1.446 . S
C70 C93 1.391 . S
C71 C70 1.446 . S
C71 C72 1.339 . S
C71 H100 0.949 . S
C72 C71 1.339 . S
C72 C73 1.439 . S
C72 H101 0.950 . S
C73 N69 1.383 . S
C73 C72 1.439 . S
C73 C91 1.392 1_455 S
N74 Co58 2.282 . S
N74 C77 1.332 . S
N74 C79 1.332 1_455 S
C75 C76 1.386 . S
C75 C78 1.390 . S
C76 C75 1.386 . S
C76 C77 1.382 . S
C76 H102 0.950 . S
C77 N74 1.332 . S
C77 C76 1.382 . S
C77 H88 0.952 . S
C78 C75 1.390 . S
C78 C79 1.382 1_455 S
C78 H103 0.948 1_455 S
C79 N74 1.332 1_655 S
C79 C78 1.382 1_655 S
C79 H89 0.948 . S
N80 Co58 2.282 . S
N80 C84 1.332 1_455 S
N80 C85 1.332 . S
C81 C82 1.388 1_455 S
C81 C85 1.382 . S
C81 H104 0.950 . S
C82 C81 1.388 1_655 S
C82 C83 1.386 . S
C83 C82 1.386 . S
C83 C84 1.382 . S
C83 H105 0.950 . S
C84 N80 1.332 1_655 S
C84 C83 1.382 . S
C84 H86 0.952 . S
C85 N80 1.332 . S
C85 C81 1.382 . S
C85 H87 0.948 . S
H86 C84 0.952 . S
H87 C85 0.948 . S
H88 C77 0.952 . S
H89 C79 0.948 . S
C90 C56 1.395 . S
C90 C60 1.391 . S
C91 C53 1.389 . S
C91 C73 1.392 1_655 S
C92 C63 1.392 1_455 S
C92 C65 1.389 . S
C93 C68 1.395 . S
C93 C70 1.391 . S
H94 C54 0.951 . S
H95 C55 0.950 . S
H96 C61 0.949 . S
H97 C62 0.950 . S
H98 C66 0.951 . S
H99 C67 0.950 . S
H100 C71 0.949 . S
H101 C72 0.950 . S
H102 C76 0.950 . S
H103 C78 0.948 1_655 S
H104 C81 0.950 . S
H105 C83 0.950 . S
C106 C107 1.443 . S
C106 N110 1.376 . S
C106 C144 1.389 . S
C107 C106 1.443 . S
C107 C108 1.340 . S
C107 H147 0.951 . S
C108 C107 1.340 . S
C108 C109 1.439 . S
C108 H148 0.950 . S
C109 C108 1.439 . S
C109 N110 1.374 . S
C109 C143 1.395 . S
N110 C106 1.376 . S
N110 C109 1.374 . S
N110 Co111 2.008 1_565 S
Co111 N110 2.008 1_545 S
Co111 N112 1.995 1_545 S
Co111 N117 2.008 . S
Co111 N122 1.995 . S
Co111 N127 2.282 . S
Co111 N133 2.282 . S
N112 Co111 1.995 1_565 S
N112 C113 1.376 . S
N112 C116 1.383 . S
C113 N112 1.376 . S
C113 C114 1.446 . S
C113 C143 1.391 . S
C114 C113 1.446 . S
C114 C115 1.339 . S
C114 H149 0.949 . S
C115 C114 1.339 . S
C115 C116 1.439 . S
C115 H150 0.950 . S
C116 N112 1.383 . S
C116 C115 1.439 . S
C116 C145 1.392 1_565 S
N117 Co111 2.008 . S
N117 C118 1.376 . S
N117 C121 1.374 . S
C118 N117 1.376 . S
C118 C119 1.443 . S
C118 C145 1.389 . S
C119 C118 1.443 . S
C119 C120 1.340 . S
C119 H151 0.951 . S
C120 C119 1.340 . S
C120 C121 1.439 . S
C120 H152 0.950 . S
C121 N117 1.374 . S
C121 C120 1.439 . S
C121 C146 1.395 . S
N122 Co111 1.995 . S
N122 C123 1.376 . S
N122 C126 1.383 . S
C123 N122 1.376 . S
C123 C124 1.446 . S
C123 C146 1.391 . S
C124 C123 1.446 . S
C124 C125 1.339 . S
C124 H153 0.949 . S
C125 C124 1.339 . S
C125 C126 1.439 . S
C125 H154 0.950 . S
C126 N122 1.383 . S
C126 C125 1.439 . S
C126 C144 1.392 1_545 S
N127 Co111 2.282 . S
N127 C130 1.332 . S
N127 C132 1.332 . S
C128 C129 1.386 . S
C128 C131 1.388 . S
C129 C128 1.386 . S
C129 C130 1.382 . S
C129 H155 0.950 . S
C130 N127 1.332 . S
C130 C129 1.382 . S
C130 H141 0.952 . S
C131 C128 1.388 . S
C131 C132 1.382 . S
C131 H156 0.950 1_545 S
C132 N127 1.332 . S
C132 C131 1.382 . S
C132 H142 0.948 1_545 S
N133 Co111 2.282 . S
N133 C137 1.332 1_545 S
N133 C138 1.332 . S
C134 C135 1.388 1_545 S
C134 C138 1.382 . S
C134 H157 0.950 . S
C135 C134 1.388 1_565 S
C135 C136 1.386 . S
C136 C135 1.386 . S
C136 C137 1.382 . S
C136 H158 0.950 . S
C137 N133 1.332 1_565 S
C137 C136 1.382 . S
C137 H139 0.952 . S
C138 N133 1.332 . S
C138 C134 1.382 . S
C138 H140 0.948 . S
H139 C137 0.952 . S
H140 C138 0.948 . S
H141 C130 0.952 . S
H142 C132 0.948 1_565 S
C143 C109 1.395 . S
C143 C113 1.391 . S
C144 C106 1.389 . S
C144 C126 1.392 1_565 S
C145 C116 1.392 1_545 S
C145 C118 1.389 . S
C146 C121 1.395 . S
C146 C123 1.391 . S
H147 C107 0.951 . S
H148 C108 0.950 . S
H149 C114 0.949 . S
H150 C115 0.950 . S
H151 C119 0.951 . S
H152 C120 0.950 . S
H153 C124 0.949 . S
H154 C125 0.950 . S
H155 C129 0.950 . S
H156 C131 0.950 1_565 S
H157 C134 0.950 . S
H158 C136 0.950 . S
C159 C160 1.443 . S
C159 N163 1.376 . S
C159 C197 1.389 . S
C160 C159 1.443 . S
C160 C161 1.340 . S
C160 H200 0.951 . S
C161 C160 1.340 . S
C161 C162 1.439 . S
C161 H201 0.950 . S
C162 C161 1.439 . S
C162 N163 1.374 . S
C162 C196 1.395 . S
N163 C159 1.376 . S
N163 C162 1.374 . S
N163 Co164 2.008 . S
Co164 N163 2.008 . S
Co164 N165 1.995 . S
Co164 N170 2.008 . S
Co164 N175 1.995 . S
Co164 N180 2.282 . S
Co164 N186 2.282 . S
N165 Co164 1.995 . S
N165 C166 1.376 . S
N165 C169 1.383 . S
C166 N165 1.376 . S
C166 C167 1.446 . S
C166 C196 1.391 . S
C167 C166 1.446 . S
C167 C168 1.339 . S
C167 H202 0.949 . S
C168 C167 1.339 . S
C168 C169 1.439 . S
C168 H203 0.950 . S
C169 N165 1.383 . S
C169 C168 1.439 . S
C169 C198 1.392 . S
N170 Co164 2.008 . S
N170 C171 1.376 . S
N170 C174 1.374 . S
C171 N170 1.376 . S
C171 C172 1.443 . S
C171 C198 1.389 . S
C172 C171 1.443 . S
C172 C173 1.340 . S
C172 H204 0.951 . S
C173 C172 1.340 . S
C173 C174 1.439 . S
C173 H205 0.950 . S
C174 N170 1.374 . S
C174 C173 1.439 . S
C174 C199 1.395 . S
N175 Co164 1.995 . S
N175 C176 1.376 . S
N175 C179 1.383 . S
C176 N175 1.376 . S
C176 C177 1.446 . S
C176 C199 1.391 . S
C177 C176 1.446 . S
C177 C178 1.339 . S
C177 H206 0.949 . S
C178 C177 1.339 . S
C178 C179 1.439 . S
C178 H207 0.950 . S
C179 N175 1.383 . S
C179 C178 1.439 . S
C179 C197 1.392 . S
N180 Co164 2.282 . S
N180 C183 1.332 . S
N180 C185 1.332 . S
C181 C182 1.386 . S
C181 C184 1.388 . S
C182 C181 1.386 . S
C182 C183 1.382 . S
C182 H208 0.950 . S
C183 N180 1.332 . S
C183 C182 1.382 . S
C183 H194 0.952 . S
C184 C181 1.388 . S
C184 C185 1.382 . S
C184 H209 0.950 . S
C185 N180 1.332 . S
C185 C184 1.382 . S
C185 H195 0.948 . S
N186 Co164 2.282 . S
N186 C190 1.332 . S
N186 C191 1.332 . S
C187 C188 1.388 . S
C187 C191 1.382 . S
C187 H210 0.950 . S
C188 C187 1.388 . S
C188 C189 1.386 . S
C189 C188 1.386 . S
C189 C190 1.382 . S
C189 H211 0.950 . S
C190 N186 1.332 . S
C190 C189 1.382 . S
C190 H192 0.952 . S
C191 N186 1.332 . S
C191 C187 1.382 . S
C191 H193 0.948 . S
H192 C190 0.952 . S
H193 C191 0.948 . S
H194 C183 0.952 . S
H195 C185 0.948 . S
C196 C162 1.395 . S
C196 C166 1.391 . S
C197 C159 1.389 . S
C197 C179 1.392 . S
C198 C169 1.392 . S
C198 C171 1.389 . S
C199 C174 1.395 . S
C199 C176 1.391 . S
H200 C160 0.951 . S
H201 C161 0.950 . S
H202 C167 0.949 . S
H203 C168 0.950 . S
H204 C172 0.951 . S
H205 C173 0.950 . S
H206 C177 0.949 . S
H207 C178 0.950 . S
H208 C182 0.950 . S
H209 C184 0.950 . S
H210 C187 0.950 . S
H211 C189 0.950 . S
C212 C213 1.443 . S
C212 N216 1.376 . S
C212 C250 1.389 1_556 S
C213 C212 1.443 . S
C213 C214 1.340 . S
C213 H253 0.951 . S
C214 C213 1.340 . S
C214 C215 1.439 . S
C214 H254 0.950 . S
C215 C214 1.439 . S
C215 N216 1.374 . S
C215 C249 1.395 . S
N216 C212 1.376 . S
N216 C215 1.374 . S
N216 Co217 2.008 1_556 S
Co217 N216 2.008 1_554 S
Co217 N218 1.995 1_554 S
Co217 N223 2.008 . S
Co217 N228 1.995 . S
Co217 N233 2.282 . S
Co217 N239 2.282 . S
N218 Co217 1.995 1_556 S
N218 C219 1.376 . S
N218 C222 1.383 1_556 S
C219 N218 1.376 . S
C219 C220 1.446 . S
C219 C249 1.391 . S
C220 C219 1.446 . S
C220 C221 1.339 . S
C220 H255 0.949 . S
C221 C220 1.339 . S
C221 C222 1.439 1_556 S
C221 H256 0.950 . S
C222 N218 1.383 1_554 S
C222 C221 1.439 1_554 S
C222 C251 1.392 . S
N223 Co217 2.008 . S
N223 C224 1.376 . S
N223 C227 1.374 . S
C224 N223 1.376 . S
C224 C225 1.443 . S
C224 C251 1.389 . S
C225 C224 1.443 . S
C225 C226 1.340 . S
C225 H257 0.951 . S
C226 C225 1.340 . S
C226 C227 1.439 . S
C226 H258 0.950 . S
C227 N223 1.374 . S
C227 C226 1.439 . S
C227 C252 1.395 . S
N228 Co217 1.995 . S
N228 C229 1.376 . S
N228 C232 1.383 . S
C229 N228 1.376 . S
C229 C230 1.446 . S
C229 C252 1.391 . S
C230 C229 1.446 . S
C230 C231 1.339 . S
C230 H259 0.949 . S
C231 C230 1.339 . S
C231 C232 1.439 . S
C231 H260 0.950 . S
C232 N228 1.383 . S
C232 C231 1.439 . S
C232 C250 1.392 . S
N233 Co217 2.282 . S
N233 C236 1.332 . S
N233 C238 1.332 . S
C234 C235 1.386 . S
C234 C237 1.388 . S
C235 C234 1.386 . S
C235 C236 1.382 . S
C235 H261 0.950 . S
C236 N233 1.332 . S
C236 C235 1.382 . S
C236 H247 0.952 . S
C237 C234 1.388 . S
C237 C238 1.382 . S
C237 H262 0.950 1_554 S
C238 N233 1.332 . S
C238 C237 1.382 . S
C238 H248 0.948 1_554 S
N239 Co217 2.282 . S
N239 C243 1.332 1_554 S
N239 C244 1.332 . S
C240 C241 1.352 1_554 S
C240 C244 1.382 . S
C240 H263 0.950 . S
C241 C240 1.352 1_556 S
C241 C242 1.415 . S
C242 C241 1.415 . S
C242 C243 1.382 . S
C242 H264 0.950 . S
C243 N239 1.332 1_556 S
C243 C242 1.382 . S
C243 H245 0.952 . S
C244 N239 1.332 . S
C244 C240 1.382 . S
C244 H246 0.948 . S
H245 C243 0.952 . S
H246 C244 0.948 . S
H247 C236 0.952 . S
H248 C238 0.948 1_556 S
C249 C215 1.395 . S
C249 C219 1.391 . S
C250 C212 1.389 1_554 S
C250 C232 1.392 . S
C251 C222 1.392 . S
C251 C224 1.389 . S
C252 C227 1.395 . S
C252 C229 1.391 . S
H253 C213 0.951 . S
H254 C214 0.950 . S
H255 C220 0.949 . S
H256 C221 0.950 . S
H257 C225 0.951 . S
H258 C226 0.950 . S
H259 C230 0.949 . S
H260 C231 0.950 . S
H261 C235 0.950 . S
H262 C237 0.950 1_556 S
H263 C240 0.950 . S
H264 C242 0.950 . S
C265 C266 1.443 . S
C265 N269 1.376 . S
C265 C303 1.389 . S
C266 C265 1.443 . S
C266 C267 1.340 . S
C266 H306 0.951 . S
C267 C266 1.340 . S
C267 C268 1.439 . S
C267 H307 0.950 . S
C268 C267 1.439 . S
C268 N269 1.374 . S
C268 C302 1.395 . S
N269 C265 1.376 . S
N269 C268 1.374 . S
N269 Co270 2.008 . S
Co270 N269 2.008 . S
Co270 N271 1.995 . S
Co270 N276 2.008 . S
Co270 N281 1.995 . S
Co270 N286 2.282 . S
Co270 N292 2.282 . S
N271 Co270 1.995 . S
N271 C272 1.376 . S
N271 C275 1.383 . S
C272 N271 1.376 . S
C272 C273 1.446 . S
C272 C302 1.391 . S
C273 C272 1.446 . S
C273 C274 1.339 . S
C273 H308 0.949 . S
C274 C273 1.339 . S
C274 C275 1.439 . S
C274 H309 0.950 . S
C275 N271 1.383 . S
C275 C274 1.439 . S
C275 C304 1.392 . S
N276 Co270 2.008 . S
N276 C277 1.376 . S
N276 C280 1.374 . S
C277 N276 1.376 . S
C277 C278 1.443 . S
C277 C304 1.389 . S
C278 C277 1.443 . S
C278 C279 1.340 . S
C278 H310 0.951 . S
C279 C278 1.340 . S
C279 C280 1.439 . S
C279 H311 0.950 . S
C280 N276 1.374 . S
C280 C279 1.439 . S
C280 C305 1.395 . S
N281 Co270 1.995 . S
N281 C282 1.376 . S
N281 C285 1.383 . S
C282 N281 1.376 . S
C282 C283 1.446 . S
C282 C305 1.391 . S
C283 C282 1.446 . S
C283 C284 1.339 . S
C283 H312 0.949 . S
C284 C283 1.339 . S
C284 C285 1.439 . S
C284 H313 0.950 . S
C285 N281 1.383 . S
C285 C284 1.439 . S
C285 C303 1.392 . S
N286 Co270 2.282 . S
N286 C289 1.332 . S
N286 C291 1.332 . S
C287 C288 1.386 . S
C287 C290 1.388 . S
C288 C287 1.386 . S
C288 C289 1.382 . S
C288 H314 0.950 . S
C289 N286 1.332 . S
C289 C288 1.382 . S
C289 H300 0.952 . S
C290 C287 1.388 . S
C290 C291 1.382 . S
C290 H315 0.950 . S
C291 N286 1.332 . S
C291 C290 1.382 . S
C291 H301 0.948 . S
N292 Co270 2.282 . S
N292 C296 1.332 . S
N292 C297 1.332 . S
C293 C294 1.388 . S
C293 C297 1.382 . S
C293 H316 0.950 . S
C294 C293 1.388 . S
C294 C295 1.386 . S
C295 C294 1.386 . S
C295 C296 1.382 . S
C295 H317 0.950 . S
C296 N292 1.332 . S
C296 C295 1.382 . S
C296 H298 0.952 . S
C297 N292 1.332 . S
C297 C293 1.382 . S
C297 H299 0.948 . S
H298 C296 0.952 . S
H299 C297 0.948 . S
H300 C289 0.952 . S
H301 C291 0.948 . S
C302 C268 1.395 . S
C302 C272 1.391 . S
C303 C265 1.389 . S
C303 C285 1.392 . S
C304 C275 1.392 . S
C304 C277 1.389 . S
C305 C280 1.395 . S
C305 C282 1.391 . S
H306 C266 0.951 . S
H307 C267 0.950 . S
H308 C273 0.949 . S
H309 C274 0.950 . S
H310 C278 0.951 . S
H311 C279 0.950 . S
H312 C283 0.949 . S
H313 C284 0.950 . S
H314 C288 0.950 . S
H315 C290 0.950 . S
H316 C293 0.950 . S
H317 C295 0.950 . S
C318 C319 1.443 . S
C318 N322 1.376 . S
C318 C356 1.389 . S
C319 C318 1.443 . S
C319 C320 1.340 . S
C319 H359 0.951 . S
C320 C319 1.340 . S
C320 C321 1.439 . S
C320 H360 0.950 . S
C321 C320 1.439 . S
C321 N322 1.374 . S
C321 C355 1.395 . S
N322 C318 1.376 . S
N322 C321 1.374 . S
N322 Co323 2.008 . S
Co323 N322 2.008 . S
Co323 N324 1.995 . S
Co323 N329 2.008 . S
Co323 N334 1.995 . S
Co323 N339 2.282 . S
Co323 N345 2.282 . S
N324 Co323 1.995 . S
N324 C325 1.376 . S
N324 C328 1.383 . S
C325 N324 1.376 . S
C325 C326 1.446 . S
C325 C355 1.391 . S
C326 C325 1.446 . S
C326 C327 1.339 . S
C326 H361 0.949 . S
C327 C326 1.339 . S
C327 C328 1.439 . S
C327 H362 0.950 . S
C328 N324 1.383 . S
C328 C327 1.439 . S
C328 C357 1.392 . S
N329 Co323 2.008 . S
N329 C330 1.376 . S
N329 C333 1.374 . S
C330 N329 1.376 . S
C330 C331 1.443 . S
C330 C357 1.389 . S
C331 C330 1.443 . S
C331 C332 1.340 . S
C331 H363 0.951 . S
C332 C331 1.340 . S
C332 C333 1.439 . S
C332 H364 0.950 . S
C333 N329 1.374 . S
C333 C332 1.439 . S
C333 C358 1.395 . S
N334 Co323 1.995 . S
N334 C335 1.376 . S
N334 C338 1.383 . S
C335 N334 1.376 . S
C335 C336 1.446 . S
C335 C358 1.391 . S
C336 C335 1.446 . S
C336 C337 1.339 . S
C336 H365 0.949 . S
C337 C336 1.339 . S
C337 C338 1.439 . S
C337 H366 0.950 . S
C338 N334 1.383 . S
C338 C337 1.439 . S
C338 C356 1.392 . S
N339 Co323 2.282 . S
N339 C342 1.332 . S
N339 C344 1.332 . S
C340 C341 1.386 . S
C340 C343 1.388 . S
C341 C340 1.386 . S
C341 C342 1.382 . S
C341 H367 0.950 . S
C342 N339 1.332 . S
C342 C341 1.382 . S
C342 H353 0.952 . S
C343 C340 1.388 . S
C343 C344 1.382 . S
C343 H368 0.950 . S
C344 N339 1.332 . S
C344 C343 1.382 . S
C344 H354 0.948 . S
N345 Co323 2.282 . S
N345 C349 1.332 . S
N345 C350 1.332 . S
C346 C347 1.388 . S
C346 C350 1.382 . S
C346 H369 0.950 . S
C347 C346 1.388 . S
C347 C348 1.386 . S
C348 C347 1.386 . S
C348 C349 1.382 . S
C348 H370 0.950 . S
C349 N345 1.332 . S
C349 C348 1.382 . S
C349 H351 0.952 . S
C350 N345 1.332 . S
C350 C346 1.382 . S
C350 H352 0.948 . S
H351 C349 0.952 . S
H352 C350 0.948 . S
H353 C342 0.952 . S
H354 C344 0.948 . S
C355 C321 1.395 . S
C355 C325 1.391 . S
C356 C318 1.389 . S
C356 C338 1.392 . S
C357 C328 1.392 . S
C357 C330 1.389 . S
C358 C333 1.395 . S
C358 C335 1.391 . S
H359 C319 0.951 . S
H360 C320 0.950 . S
H361 C326 0.949 . S
H362 C327 0.950 . S
H363 C331 0.951 . S
H364 C332 0.950 . S
H365 C336 0.949 . S
H366 C337 0.950 . S
H367 C341 0.950 . S
H368 C343 0.950 . S
H369 C346 0.950 . S
H370 C348 0.950 . S
C371 C372 1.443 . S
C371 N375 1.376 . S
C371 C409 1.389 . S
C372 C371 1.443 . S
C372 C373 1.340 . S
C372 H412 0.951 . S
C373 C372 1.340 . S
C373 C374 1.439 . S
C373 H413 0.950 . S
C374 C373 1.439 . S
C374 N375 1.374 . S
C374 C408 1.395 . S
N375 C371 1.376 . S
N375 C374 1.374 . S
N375 Co376 2.008 . S
Co376 N375 2.008 . S
Co376 N377 1.995 . S
Co376 N382 2.008 . S
Co376 N387 1.995 . S
Co376 N392 2.282 . S
Co376 N398 2.282 . S
N377 Co376 1.995 . S
N377 C378 1.376 . S
N377 C381 1.383 . S
C378 N377 1.376 . S
C378 C379 1.446 . S
C378 C408 1.391 . S
C379 C378 1.446 . S
C379 C380 1.339 . S
C379 H414 0.949 . S
C380 C379 1.339 . S
C380 C381 1.439 . S
C380 H415 0.950 . S
C381 N377 1.383 . S
C381 C380 1.439 . S
C381 C410 1.392 . S
N382 Co376 2.008 . S
N382 C383 1.376 . S
N382 C386 1.374 . S
C383 N382 1.376 . S
C383 C384 1.443 . S
C383 C410 1.389 . S
C384 C383 1.443 . S
C384 C385 1.340 . S
C384 H416 0.951 . S
C385 C384 1.340 . S
C385 C386 1.439 . S
C385 H417 0.950 . S
C386 N382 1.374 . S
C386 C385 1.439 . S
C386 C411 1.395 . S
N387 Co376 1.995 . S
N387 C388 1.376 . S
N387 C391 1.383 . S
C388 N387 1.376 . S
C388 C389 1.446 . S
C388 C411 1.391 . S
C389 C388 1.446 . S
C389 C390 1.339 . S
C389 H418 0.949 . S
C390 C389 1.339 . S
C390 C391 1.439 . S
C390 H419 0.950 . S
C391 N387 1.383 . S
C391 C390 1.439 . S
C391 C409 1.392 . S
N392 Co376 2.282 . S
N392 C395 1.332 . S
N392 C397 1.332 . S
C393 C394 1.386 . S
C393 C396 1.388 . S
C394 C393 1.386 . S
C394 C395 1.382 . S
C394 H420 0.950 . S
C395 N392 1.332 . S
C395 C394 1.382 . S
C395 H406 0.952 . S
C396 C393 1.388 . S
C396 C397 1.382 . S
C396 H421 0.950 . S
C397 N392 1.332 . S
C397 C396 1.382 . S
C397 H407 0.948 . S
N398 Co376 2.282 . S
N398 C402 1.332 . S
N398 C403 1.332 . S
C399 C400 1.388 . S
C399 C403 1.382 . S
C399 H422 0.950 . S
C400 C399 1.388 . S
C400 C401 1.386 . S
C401 C400 1.386 . S
C401 C402 1.382 . S
C401 H423 0.950 . S
C402 N398 1.332 . S
C402 C401 1.382 . S
C402 H404 0.952 . S
C403 N398 1.332 . S
C403 C399 1.382 . S
C403 H405 0.948 . S
H404 C402 0.952 . S
H405 C403 0.948 . S
H406 C395 0.952 . S
H407 C397 0.948 . S
C408 C374 1.395 . S
C408 C378 1.391 . S
C409 C371 1.389 . S
C409 C391 1.392 . S
C410 C381 1.392 . S
C410 C383 1.389 . S
C411 C386 1.395 . S
C411 C388 1.391 . S
H412 C372 0.951 . S
H413 C373 0.950 . S
H414 C379 0.949 . S
H415 C380 0.950 . S
H416 C384 0.951 . S
H417 C385 0.950 . S
H418 C389 0.949 . S
H419 C390 0.950 . S
H420 C394 0.950 . S
H421 C396 0.950 . S
H422 C399 0.950 . S
H423 C401 0.950 . S
C424 C425 1.443 . S
C424 N428 1.376 . S
C424 C462 1.389 . S
C425 C424 1.443 . S
C425 C426 1.340 . S
C425 H465 0.951 . S
C426 C425 1.340 . S
C426 C427 1.439 . S
C426 H466 0.950 . S
C427 C426 1.439 . S
C427 N428 1.374 . S
C427 C461 1.395 . S
N428 C424 1.376 . S
N428 C427 1.374 . S
N428 Co429 2.008 . S
Co429 N428 2.008 . S
Co429 N430 1.995 . S
Co429 N435 2.008 . S
Co429 N440 1.995 . S
Co429 N445 2.282 . S
Co429 N451 2.282 . S
N430 Co429 1.995 . S
N430 C431 1.376 . S
N430 C434 1.383 . S
C431 N430 1.376 . S
C431 C432 1.446 . S
C431 C461 1.391 . S
C432 C431 1.446 . S
C432 C433 1.339 . S
C432 H467 0.949 . S
C433 C432 1.339 . S
C433 C434 1.439 . S
C433 H468 0.950 . S
C434 N430 1.383 . S
C434 C433 1.439 . S
C434 C463 1.392 . S
N435 Co429 2.008 . S
N435 C436 1.376 . S
N435 C439 1.374 . S
C436 N435 1.376 . S
C436 C437 1.443 . S
C436 C463 1.389 . S
C437 C436 1.443 . S
C437 C438 1.340 . S
C437 H469 0.951 . S
C438 C437 1.340 . S
C438 C439 1.439 . S
C438 H470 0.950 . S
C439 N435 1.374 . S
C439 C438 1.439 . S
C439 C464 1.395 . S
N440 Co429 1.995 . S
N440 C441 1.376 . S
N440 C444 1.383 . S
C441 N440 1.376 . S
C441 C442 1.446 . S
C441 C464 1.391 . S
C442 C441 1.446 . S
C442 C443 1.339 . S
C442 H471 0.949 . S
C443 C442 1.339 . S
C443 C444 1.439 . S
C443 H472 0.950 . S
C444 N440 1.383 . S
C444 C443 1.439 . S
C444 C462 1.392 . S
N445 Co429 2.282 . S
N445 C448 1.332 . S
N445 C450 1.332 . S
C446 C447 1.386 . S
C446 C449 1.388 . S
C447 C446 1.386 . S
C447 C448 1.382 . S
C447 H473 0.950 . S
C448 N445 1.332 . S
C448 C447 1.382 . S
C448 H459 0.952 . S
C449 C446 1.388 . S
C449 C450 1.382 . S
C449 H474 0.950 . S
C450 N445 1.332 . S
C450 C449 1.382 . S
C450 H460 0.948 . S
N451 Co429 2.282 . S
N451 C455 1.332 . S
N451 C456 1.332 . S
C452 C453 1.388 . S
C452 C456 1.382 . S
C452 H475 0.950 . S
C453 C452 1.388 . S
C453 C454 1.386 . S
C454 C453 1.386 . S
C454 C455 1.382 . S
C454 H476 0.950 . S
C455 N451 1.332 . S
C455 C454 1.382 . S
C455 H457 0.952 . S
C456 N451 1.332 . S
C456 C452 1.382 . S
C456 H458 0.948 . S
H457 C455 0.952 . S
H458 C456 0.948 . S
H459 C448 0.952 . S
H460 C450 0.948 . S
C461 C427 1.395 . S
C461 C431 1.391 . S
C462 C424 1.389 . S
C462 C444 1.392 . S
C463 C434 1.392 . S
C463 C436 1.389 . S
C464 C439 1.395 . S
C464 C441 1.391 . S
H465 C425 0.951 . S
H466 C426 0.950 . S
H467 C432 0.949 . S
H468 C433 0.950 . S
H469 C437 0.951 . S
H470 C438 0.950 . S
H471 C442 0.949 . S
H472 C443 0.950 . S
H473 C447 0.950 . S
H474 C449 0.950 . S
H475 C452 0.950 . S
H476 C454 0.950 . S
C477 C478 1.443 . S
C477 N481 1.376 . S
C477 C515 1.389 . S
C478 C477 1.443 . S
C478 C479 1.340 . S
C478 H518 0.951 . S
C479 C478 1.340 . S
C479 C480 1.439 . S
C479 H519 0.950 . S
C480 C479 1.439 . S
C480 N481 1.374 . S
C480 C514 1.395 . S
N481 C477 1.376 . S
N481 C480 1.374 . S
N481 Co482 2.008 . S
Co482 N481 2.008 . S
Co482 N483 1.995 . S
Co482 N488 2.008 . S
Co482 N493 1.995 . S
Co482 N498 2.282 . S
Co482 N504 2.282 . S
N483 Co482 1.995 . S
N483 C484 1.376 . S
N483 C487 1.383 . S
C484 N483 1.376 . S
C484 C485 1.446 . S
C484 C514 1.391 . S
C485 C484 1.446 . S
C485 C486 1.339 . S
C485 H520 0.949 . S
C486 C485 1.339 . S
C486 C487 1.439 . S
C486 H521 0.950 . S
C487 N483 1.383 . S
C487 C486 1.439 . S
C487 C516 1.392 . S
N488 Co482 2.008 . S
N488 C489 1.376 . S
N488 C492 1.374 . S
C489 N488 1.376 . S
C489 C490 1.443 . S
C489 C516 1.389 . S
C490 C489 1.443 . S
C490 C491 1.340 . S
C490 H522 0.951 . S
C491 C490 1.340 . S
C491 C492 1.439 . S
C491 H523 0.950 . S
C492 N488 1.374 . S
C492 C491 1.439 . S
C492 C517 1.395 . S
N493 Co482 1.995 . S
N493 C494 1.376 . S
N493 C497 1.383 . S
C494 N493 1.376 . S
C494 C495 1.446 . S
C494 C517 1.391 . S
C495 C494 1.446 . S
C495 C496 1.339 . S
C495 H524 0.949 . S
C496 C495 1.339 . S
C496 C497 1.439 . S
C496 H525 0.950 . S
C497 N493 1.383 . S
C497 C496 1.439 . S
C497 C515 1.392 . S
N498 Co482 2.282 . S
N498 C501 1.332 . S
N498 C503 1.332 . S
C499 C500 1.386 . S
C499 C502 1.388 . S
C500 C499 1.386 . S
C500 C501 1.382 . S
C500 H526 0.950 . S
C501 N498 1.332 . S
C501 C500 1.382 . S
C501 H512 0.952 . S
C502 C499 1.388 . S
C502 C503 1.382 . S
C502 H527 0.950 . S
C503 N498 1.332 . S
C503 C502 1.382 . S
C503 H513 0.948 . S
N504 Co482 2.282 . S
N504 C508 1.332 . S
N504 C509 1.332 . S
C505 C506 1.388 . S
C505 C509 1.382 . S
C505 H528 0.950 . S
C506 C505 1.388 . S
C506 C507 1.386 . S
C507 C506 1.386 . S
C507 C508 1.382 . S
C507 H529 0.950 . S
C508 N504 1.332 . S
C508 C507 1.382 . S
C508 H510 0.952 . S
C509 N504 1.332 . S
C509 C505 1.382 . S
C509 H511 0.948 . S
H510 C508 0.952 . S
H511 C509 0.948 . S
H512 C501 0.952 . S
H513 C503 0.948 . S
C514 C480 1.395 . S
C514 C484 1.391 . S
C515 C477 1.389 . S
C515 C497 1.392 . S
C516 C487 1.392 . S
C516 C489 1.389 . S
C517 C492 1.395 . S
C517 C494 1.391 . S
H518 C478 0.951 . S
H519 C479 0.950 . S
H520 C485 0.949 . S
H521 C486 0.950 . S
H522 C490 0.951 . S
H523 C491 0.950 . S
H524 C495 0.949 . S
H525 C496 0.950 . S
H526 C500 0.950 . S
H527 C502 0.950 . S
H528 C505 0.950 . S
H529 C507 0.950 . S
C530 C531 1.443 . S
C530 N534 1.376 . S
C530 C568 1.389 . S
C531 C530 1.443 . S
C531 C532 1.340 . S
C531 H571 0.951 . S
C532 C531 1.340 . S
C532 C533 1.439 . S
C532 H572 0.950 . S
C533 C532 1.439 . S
C533 N534 1.374 . S
C533 C567 1.395 . S
N534 C530 1.376 . S
N534 C533 1.374 . S
N534 Co535 2.008 . S
Co535 N534 2.008 . S
Co535 N536 1.995 . S
Co535 N541 2.008 1_545 S
Co535 N546 1.995 1_545 S
Co535 N551 2.282 . S
Co535 N557 2.282 . S
N536 Co535 1.995 . S
N536 C537 1.376 . S
N536 C540 1.383 . S
C537 N536 1.376 . S
C537 C538 1.446 . S
C537 C567 1.391 . S
C538 C537 1.446 . S
C538 C539 1.339 . S
C538 H573 0.949 . S
C539 C538 1.339 . S
C539 C540 1.439 . S
C539 H574 0.950 . S
C540 N536 1.383 . S
C540 C539 1.439 . S
C540 C569 1.392 1_545 S
N541 Co535 2.008 1_565 S
N541 C542 1.376 . S
N541 C545 1.374 . S
C542 N541 1.376 . S
C542 C543 1.443 . S
C542 C569 1.389 . S
C543 C542 1.443 . S
C543 C544 1.340 . S
C543 H575 0.951 . S
C544 C543 1.340 . S
C544 C545 1.439 . S
C544 H576 0.950 . S
C545 N541 1.374 . S
C545 C544 1.439 . S
C545 C570 1.395 . S
N546 Co535 1.995 1_565 S
N546 C547 1.376 . S
N546 C550 1.383 . S
C547 N546 1.376 . S
C547 C548 1.446 . S
C547 C570 1.391 . S
C548 C547 1.446 . S
C548 C549 1.339 . S
C548 H577 0.949 . S
C549 C548 1.339 . S
C549 C550 1.439 . S
C549 H578 0.950 . S
C550 N546 1.383 . S
C550 C549 1.439 . S
C550 C568 1.392 1_565 S
N551 Co535 2.282 . S
N551 C554 1.332 1_545 S
N551 C556 1.332 . S
C552 C553 1.386 . S
C552 C555 1.388 1_565 S
C553 C552 1.386 . S
C553 C554 1.382 . S
C553 H579 0.950 . S
C554 N551 1.332 1_565 S
C554 C553 1.382 . S
C554 H565 0.952 . S
C555 C552 1.388 1_545 S
C555 C556 1.382 . S
C555 H580 0.950 . S
C556 N551 1.332 . S
C556 C555 1.382 . S
C556 H566 0.948 . S
N557 Co535 2.282 . S
N557 C561 1.332 . S
N557 C562 1.332 1_545 S
C558 C559 1.388 . S
C558 C562 1.382 1_545 S
C558 H581 0.950 1_545 S
C559 C558 1.388 . S
C559 C560 1.386 . S
C560 C559 1.386 . S
C560 C561 1.382 . S
C560 H582 0.950 . S
C561 N557 1.332 . S
C561 C560 1.382 . S
C561 H563 0.952 . S
C562 N557 1.332 1_565 S
C562 C558 1.382 1_565 S
C562 H564 0.948 . S
H563 C561 0.952 . S
H564 C562 0.948 . S
H565 C554 0.952 . S
H566 C556 0.948 . S
C567 C533 1.395 . S
C567 C537 1.391 . S
C568 C530 1.389 . S
C568 C550 1.392 1_545 S
C569 C540 1.392 1_565 S
C569 C542 1.389 . S
C570 C545 1.395 . S
C570 C547 1.391 . S
H571 C531 0.951 . S
H572 C532 0.950 . S
H573 C538 0.949 . S
H574 C539 0.950 . S
H575 C543 0.951 . S
H576 C544 0.950 . S
H577 C548 0.949 . S
H578 C549 0.950 . S
H579 C553 0.950 . S
H580 C555 0.950 . S
H581 C558 0.950 1_565 S
H582 C560 0.950 . S
C583 C584 1.443 . S
C583 N587 1.376 . S
C583 C621 1.357 1_556 S
C584 C583 1.443 . S
C584 C585 1.340 . S
C584 H624 0.951 . S
C585 C584 1.340 . S
C585 C586 1.439 . S
C585 H625 0.950 . S
C586 C585 1.439 . S
C586 N587 1.374 . S
C586 C620 1.395 . S
N587 C583 1.376 . S
N587 C586 1.374 . S
N587 Co588 2.008 1_556 S
Co588 N587 2.008 1_554 S
Co588 N589 1.995 1_554 S
Co588 N594 2.008 . S
Co588 N599 1.995 . S
Co588 N604 2.282 . S
Co588 N610 2.282 . S
N589 Co588 1.995 1_556 S
N589 C590 1.376 . S
N589 C593 1.383 1_556 S
C590 N589 1.376 . S
C590 C591 1.446 . S
C590 C620 1.391 . S
C591 C590 1.446 . S
C591 C592 1.339 . S
C591 H626 0.949 . S
C592 C591 1.339 . S
C592 C593 1.439 1_556 S
C592 H627 0.950 . S
C593 N589 1.383 1_554 S
C593 C592 1.439 1_554 S
C593 C622 1.392 . S
N594 Co588 2.008 . S
N594 C595 1.376 . S
N594 C598 1.374 . S
C595 N594 1.376 . S
C595 C596 1.443 . S
C595 C622 1.389 . S
C596 C595 1.443 . S
C596 C597 1.340 . S
C596 H628 0.951 . S
C597 C596 1.340 . S
C597 C598 1.439 . S
C597 H629 0.950 . S
C598 N594 1.374 . S
C598 C597 1.439 . S
C598 C623 1.395 . S
N599 Co588 1.995 . S
N599 C600 1.376 . S
N599 C603 1.383 . S
C600 N599 1.376 . S
C600 C601 1.446 . S
C600 C623 1.391 . S
C601 C600 1.446 . S
C601 C602 1.339 . S
C601 H630 0.949 . S
C602 C601 1.339 . S
C602 C603 1.439 . S
C602 H631 0.950 . S
C603 N599 1.383 . S
C603 C602 1.439 . S
C603 C621 1.431 . S
N604 Co588 2.282 . S
N604 C607 1.332 . S
N604 C609 1.332 . S
C605 C606 1.386 . S
C605 C608 1.388 . S
C606 C605 1.386 . S
C606 C607 1.382 . S
C606 H632 0.950 . S
C607 N604 1.332 . S
C607 C606 1.382 . S
C607 H618 0.952 . S
C608 C605 1.388 . S
C608 C609 1.382 . S
C608 H633 0.950 1_554 S
C609 N604 1.332 . S
C609 C608 1.382 . S
C609 H619 0.948 1_554 S
N610 Co588 2.282 . S
N610 C614 1.332 1_554 S
N610 C615 1.332 . S
C611 C612 1.415 . S
C611 C615 1.382 . S
C611 H634 0.950 . S
C612 C611 1.415 . S
C612 C613 1.367 1_554 S
C613 C612 1.367 1_556 S
C613 C614 1.382 . S
C613 H635 0.950 . S
C614 N610 1.332 1_556 S
C614 C613 1.382 . S
C614 H616 0.952 . S
C615 N610 1.332 . S
C615 C611 1.382 . S
C615 H617 0.948 . S
H616 C614 0.952 . S
H617 C615 0.948 . S
H618 C607 0.952 . S
H619 C609 0.948 1_556 S
C620 C586 1.395 . S
C620 C590 1.391 . S
C621 C583 1.357 1_554 S
C621 C603 1.431 . S
C622 C593 1.392 . S
C622 C595 1.389 . S
C623 C598 1.395 . S
C623 C600 1.391 . S
H624 C584 0.951 . S
H625 C585 0.950 . S
H626 C591 0.949 . S
H627 C592 0.950 . S
H628 C596 0.951 . S
H629 C597 0.950 . S
H630 C601 0.949 . S
H631 C602 0.950 . S
H632 C606 0.950 . S
H633 C608 0.950 1_556 S
H634 C611 0.950 . S
H635 C613 0.950 . S
Co636 N641 2.074 . S
Co636 O653 2.021 . S
Co636 O656 2.062 . S
Co636 O660 2.117 . S
Co636 O661 2.020 . S
C637 O657 1.259 . S
C637 O660 1.258 . S
Co638 N647 2.057 . S
Co638 O654 2.117 . S
Co638 O655 2.020 . S
Co638 O657 2.021 . S
Co638 O662 2.062 . S
C639 N641 1.296 1_565 S
C639 N642 1.347 . S
C639 H644 0.931 . S
C640 N641 1.373 1_565 S
C640 C643 1.380 . S
C640 H645 0.905 1_565 S
N641 Co636 2.074 . S
N641 C639 1.296 1_545 S
N641 C640 1.373 1_545 S
N642 C639 1.347 . S
N642 C643 1.373 . S
C643 C640 1.380 . S
C643 N642 1.373 . S
C643 H664 0.929 1_455 S
H644 C639 0.931 . S
H645 C640 0.905 1_545 S
C646 O653 1.267 . S
C646 O654 1.263 . S
N647 Co638 2.057 . S
N647 C648 1.316 . S
N647 C649 1.375 . S
C648 N647 1.316 . S
C648 N650 1.347 . S
C648 H659 0.931 . S
C649 N647 1.375 . S
C649 C651 1.350 1_554 S
C649 H658 0.930 1_554 S
N650 C648 1.347 . S
N650 C651 1.373 1_554 S
C651 C649 1.350 1_556 S
C651 N650 1.373 1_556 S
C651 H665 0.931 . S
C652 O655 1.256 . S
C652 O656 1.255 . S
O653 Co636 2.021 . S
O653 C646 1.267 . S
O654 Co638 2.117 . S
O654 C646 1.263 . S
O655 Co638 2.020 . S
O655 C652 1.256 . S
O656 Co636 2.062 . S
O656 C652 1.255 . S
O657 C637 1.259 . S
O657 Co638 2.021 . S
H658 C649 0.930 1_556 S
H659 C648 0.931 . S
O660 Co636 2.117 . S
O660 C637 1.258 . S
O661 Co636 2.020 . S
O661 C663 1.256 . S
O662 Co638 2.062 . S
O662 C663 1.255 . S
C663 O661 1.256 . S
C663 O662 1.255 . S
H664 C643 0.929 1_655 S
H665 C651 0.931 . S
Co666 N671 2.057 . S
Co666 O683 2.021 . S
Co666 O686 2.062 . S
Co666 O690 2.117 . S
Co666 O691 2.020 . S
C667 O687 1.259 . S
C667 O690 1.258 . S
Co668 N677 2.057 1_554 S
Co668 O684 2.117 . S
Co668 O685 2.020 . S
Co668 O687 2.021 . S
Co668 O692 2.062 . S
C669 N671 1.316 . S
C669 N672 1.347 . S
C669 H674 0.931 . S
C670 N671 1.375 . S
C670 C673 1.350 . S
C670 H675 0.930 . S
N671 Co666 2.057 . S
N671 C669 1.316 . S
N671 C670 1.375 . S
N672 C669 1.347 . S
N672 C673 1.373 . S
C673 C670 1.350 . S
C673 N672 1.373 . S
C673 H694 0.931 1_655 S
H674 C669 0.931 . S
H675 C670 0.930 . S
C676 O683 1.259 . S
C676 O684 1.258 . S
N677 Co668 2.057 1_556 S
N677 C678 1.316 . S
N677 C679 1.375 . S
C678 N677 1.316 . S
C678 N680 1.347 . S
C678 H689 0.931 . S
C679 N677 1.375 . S
C679 C681 1.350 . S
C679 H688 0.930 . S
N680 C678 1.347 . S
N680 C681 1.373 . S
C681 C679 1.350 . S
C681 N680 1.373 . S
C681 H695 0.931 . S
C682 O685 1.256 . S
C682 O686 1.255 . S
O683 Co666 2.021 . S
O683 C676 1.259 . S
O684 Co668 2.117 . S
O684 C676 1.258 . S
O685 Co668 2.020 . S
O685 C682 1.256 . S
O686 Co666 2.062 . S
O686 C682 1.255 . S
O687 C667 1.259 . S
O687 Co668 2.021 . S
H688 C679 0.930 . S
H689 C678 0.931 . S
O690 Co666 2.117 . S
O690 C667 1.258 . S
O691 Co666 2.020 . S
O691 C693 1.256 . S
O692 Co668 2.062 . S
O692 C693 1.255 . S
C693 O691 1.256 . S
C693 O692 1.255 . S
H694 C673 0.931 1_455 S
H695 C681 0.931 . S
Co696 N701 2.057 . S
Co696 O713 2.021 . S
Co696 O716 2.062 . S
Co696 O720 2.117 . S
Co696 O721 2.020 . S
C697 O717 1.259 . S
C697 O720 1.258 . S
Co698 N707 2.057 . S
Co698 O714 2.139 . S
Co698 O715 2.020 . S
Co698 O717 2.021 . S
Co698 O722 2.062 . S
C699 N701 1.316 . S
C699 N702 1.347 . S
C699 H704 0.931 . S
C700 N701 1.375 . S
C700 C703 1.350 . S
C700 H705 0.930 . S
N701 Co696 2.057 . S
N701 C699 1.316 . S
N701 C700 1.375 . S
N702 C699 1.347 . S
N702 C703 1.373 . S
C703 C700 1.350 . S
C703 N702 1.373 . S
C703 H724 0.931 . S
H704 C699 0.931 . S
H705 C700 0.930 . S
C706 O713 1.259 1_655 S
C706 O714 1.252 1_655 S
N707 Co698 2.057 . S
N707 C708 1.316 . S
N707 C709 1.375 1_455 S
C708 N707 1.316 . S
C708 N710 1.347 . S
C708 H719 0.931 . S
C709 N707 1.375 1_655 S
C709 C711 1.350 . S
C709 H718 0.930 . S
N710 C708 1.347 . S
N710 C711 1.373 1_455 S
C711 C709 1.350 . S
C711 N710 1.373 1_655 S
C711 H725 0.931 . S
C712 O715 1.256 . S
C712 O716 1.255 . S
O713 Co696 2.021 . S
O713 C706 1.259 1_455 S
O714 Co698 2.139 . S
O714 C706 1.252 1_455 S
O715 Co698 2.020 . S
O715 C712 1.256 . S
O716 Co696 2.062 . S
O716 C712 1.255 . S
O717 C697 1.259 . S
O717 Co698 2.021 . S
H718 C709 0.930 . S
H719 C708 0.931 . S
O720 Co696 2.117 . S
O720 C697 1.258 . S
O721 Co696 2.020 . S
O721 C723 1.256 . S
O722 Co698 2.062 . S
O722 C723 1.255 . S
C723 O721 1.256 . S
C723 O722 1.255 . S
H724 C703 0.931 . S
H725 C711 0.931 . S
Co726 N731 2.057 . S
Co726 O743 2.021 . S
Co726 O746 2.062 . S
Co726 O750 2.117 . S
Co726 O751 2.020 . S
C727 O747 1.259 . S
C727 O750 1.258 1_455 S
Co728 N737 2.057 . S
Co728 O744 2.117 . S
Co728 O745 2.020 . S
Co728 O747 2.021 1_655 S
Co728 O752 2.062 . S
C729 N731 1.316 . S
C729 N732 1.347 . S
C729 H734 0.931 . S
C730 N731 1.375 . S
C730 C733 1.350 . S
C730 H735 0.930 . S
N731 Co726 2.057 . S
N731 C729 1.316 . S
N731 C730 1.375 . S
N732 C729 1.347 . S
N732 C733 1.373 . S
C733 C730 1.350 . S
C733 N732 1.373 . S
C733 H754 0.931 . S
H734 C729 0.931 . S
H735 C730 0.930 . S
C736 O743 1.259 . S
C736 O744 1.258 . S
N737 Co728 2.057 . S
N737 C738 1.316 1_655 S
N737 C739 1.375 . S
C738 N737 1.316 1_455 S
C738 N740 1.348 . S
C738 H749 0.931 . S
C739 N737 1.375 . S
C739 C741 1.350 . S
C739 H748 0.930 . S
N740 C738 1.348 . S
N740 C741 1.346 1_455 S
C741 C739 1.350 . S
C741 N740 1.346 1_655 S
C741 H755 0.931 . S
C742 O745 1.256 . S
C742 O746 1.255 . S
O743 Co726 2.021 . S
O743 C736 1.259 . S
O744 Co728 2.117 . S
O744 C736 1.258 . S
O745 Co728 2.020 . S
O745 C742 1.256 . S
O746 Co726 2.062 . S
O746 C742 1.255 . S
O747 C727 1.259 . S
O747 Co728 2.021 1_455 S
H748 C739 0.930 . S
H749 C738 0.931 . S
O750 Co726 2.117 . S
O750 C727 1.258 1_655 S
O751 Co726 2.020 . S
O751 C753 1.256 . S
O752 Co728 2.062 . S
O752 C753 1.255 . S
C753 O751 1.256 . S
C753 O752 1.255 . S
H754 C733 0.931 . S
H755 C741 0.931 . S
Co756 N761 2.057 . S
Co756 O773 2.021 . S
Co756 O776 2.062 . S
Co756 O780 2.117 . S
Co756 O781 2.020 . S
C757 O777 1.259 . S
C757 O780 1.258 . S
Co758 N767 2.057 . S
Co758 O774 2.117 . S
Co758 O775 2.020 . S
Co758 O777 2.021 . S
Co758 O782 2.062 . S
C759 N761 1.316 . S
C759 N762 1.347 . S
C759 H764 0.931 . S
C760 N761 1.375 . S
C760 C763 1.350 . S
C760 H765 0.930 . S
N761 Co756 2.057 . S
N761 C759 1.316 . S
N761 C760 1.375 . S
N762 C759 1.347 . S
N762 C763 1.373 . S
C763 C760 1.350 . S
C763 N762 1.373 . S
C763 H784 0.931 . S
H764 C759 0.931 . S
H765 C760 0.930 . S
C766 O773 1.259 . S
C766 O774 1.258 . S
N767 Co758 2.057 . S
N767 C768 1.316 . S
N767 C769 1.375 . S
C768 N767 1.316 . S
C768 N770 1.347 . S
C768 H779 0.931 . S
C769 N767 1.375 . S
C769 C771 1.350 . S
C769 H778 0.930 . S
N770 C768 1.347 . S
N770 C771 1.373 . S
C771 C769 1.350 . S
C771 N770 1.373 . S
C771 H785 0.931 . S
C772 O775 1.256 . S
C772 O776 1.255 . S
O773 Co756 2.021 . S
O773 C766 1.259 . S
O774 Co758 2.117 . S
O774 C766 1.258 . S
O775 Co758 2.020 . S
O775 C772 1.256 . S
O776 Co756 2.062 . S
O776 C772 1.255 . S
O777 C757 1.259 . S
O777 Co758 2.021 . S
H778 C769 0.930 . S
H779 C768 0.931 . S
O780 Co756 2.117 . S
O780 C757 1.258 . S
O781 Co756 2.020 . S
O781 C783 1.256 . S
O782 Co758 2.062 . S
O782 C783 1.255 . S
C783 O781 1.256 . S
C783 O782 1.255 . S
H784 C763 0.931 . S
H785 C771 0.931 . S
Co786 N791 2.057 . S
Co786 O803 2.021 . S
Co786 O806 2.062 . S
Co786 O810 2.117 . S
Co786 O811 2.020 . S
C787 O807 1.259 . S
C787 O810 1.258 . S
Co788 N797 2.057 . S
Co788 O804 2.117 . S
Co788 O805 2.020 . S
Co788 O807 2.021 . S
Co788 O812 2.062 . S
C789 N791 1.316 . S
C789 N792 1.347 . S
C789 H794 0.931 . S
C790 N791 1.375 . S
C790 C793 1.350 . S
C790 H795 0.930 . S
N791 Co786 2.057 . S
N791 C789 1.316 . S
N791 C790 1.375 . S
N792 C789 1.347 . S
N792 C793 1.373 . S
C793 C790 1.350 . S
C793 N792 1.373 . S
C793 H814 0.931 . S
H794 C789 0.931 . S
H795 C790 0.930 . S
C796 O803 1.259 . S
C796 O804 1.258 . S
N797 Co788 2.057 . S
N797 C798 1.316 . S
N797 C799 1.375 . S
C798 N797 1.316 . S
C798 N800 1.347 . S
C798 H809 0.931 . S
C799 N797 1.375 . S
C799 C801 1.350 . S
C799 H808 0.930 . S
N800 C798 1.347 . S
N800 C801 1.373 . S
C801 C799 1.350 . S
C801 N800 1.373 . S
C801 H815 0.931 . S
C802 O805 1.256 . S
C802 O806 1.255 . S
O803 Co786 2.021 . S
O803 C796 1.259 . S
O804 Co788 2.117 . S
O804 C796 1.258 . S
O805 Co788 2.020 . S
O805 C802 1.256 . S
O806 Co786 2.062 . S
O806 C802 1.255 . S
O807 C787 1.259 . S
O807 Co788 2.021 . S
H808 C799 0.930 . S
H809 C798 0.931 . S
O810 Co786 2.117 . S
O810 C787 1.258 . S
O811 Co786 2.020 . S
O811 C813 1.256 . S
O812 Co788 2.062 . S
O812 C813 1.255 . S
C813 O811 1.256 . S
C813 O812 1.255 . S
H814 C793 0.931 . S
H815 C801 0.931 . S
Co816 N821 2.057 1_556 S
Co816 O833 2.021 1_556 S
Co816 O836 2.062 . S
Co816 O840 2.117 . S
Co816 O841 2.020 . S
C817 O837 1.259 . S
C817 O840 1.258 . S
Co818 N827 2.057 . S
Co818 O834 2.117 . S
Co818 O835 2.020 . S
Co818 O837 2.021 . S
Co818 O842 2.062 . S
C819 N821 1.316 . S
C819 N822 1.347 . S
C819 H824 0.931 . S
C820 N821 1.375 . S
C820 C823 1.350 . S
C820 H825 0.952 . S
N821 Co816 2.057 1_554 S
N821 C819 1.316 . S
N821 C820 1.375 . S
N822 C819 1.347 . S
N822 C823 1.373 . S
C823 C820 1.350 . S
C823 N822 1.373 . S
C823 H844 0.931 . S
H824 C819 0.931 . S
H825 C820 0.952 . S
C826 O833 1.259 1_556 S
C826 O834 1.258 . S
N827 Co818 2.057 . S
N827 C828 1.316 . S
N827 C829 1.375 . S
C828 N827 1.316 . S
C828 N830 1.347 . S
C828 H839 0.931 . S
C829 N827 1.375 . S
C829 C831 1.350 . S
C829 H838 0.930 . S
N830 C828 1.347 . S
N830 C831 1.373 . S
C831 C829 1.350 . S
C831 N830 1.373 . S
C831 H845 0.931 . S
C832 O835 1.256 . S
C832 O836 1.255 . S
O833 Co816 2.021 1_554 S
O833 C826 1.259 1_554 S
O834 Co818 2.117 . S
O834 C826 1.258 . S
O835 Co818 2.020 . S
O835 C832 1.256 . S
O836 Co816 2.062 . S
O836 C832 1.255 . S
O837 C817 1.259 . S
O837 Co818 2.021 . S
H838 C829 0.930 . S
H839 C828 0.931 . S
O840 Co816 2.117 . S
O840 C817 1.258 . S
O841 Co816 2.020 . S
O841 C843 1.256 . S
O842 Co818 2.062 . S
O842 C843 1.255 . S
C843 O841 1.256 . S
C843 O842 1.255 . S
H844 C823 0.931 . S
H845 C831 0.931 . S
Co846 N851 2.057 . S
Co846 O863 2.021 . S
Co846 O866 2.062 . S
Co846 O870 2.117 . S
Co846 O871 2.020 . S
C847 O867 1.259 . S
C847 O870 1.258 . S
Co848 N857 2.057 1_545 S
Co848 O864 2.117 . S
Co848 O865 2.020 . S
Co848 O867 2.021 . S
Co848 O872 2.062 . S
C849 N851 1.316 . S
C849 N852 1.347 . S
C849 H854 0.931 . S
C850 N851 1.375 . S
C850 C853 1.350 . S
C850 H855 0.930 . S
N851 Co846 2.057 . S
N851 C849 1.316 . S
N851 C850 1.375 . S
N852 C849 1.347 . S
N852 C853 1.373 . S
C853 C850 1.350 . S
C853 N852 1.373 . S
C853 H874 0.931 . S
H854 C849 0.931 . S
H855 C850 0.930 . S
C856 O863 1.259 . S
C856 O864 1.258 . S
N857 Co848 2.057 1_565 S
N857 C858 1.316 . S
N857 C859 1.375 . S
C858 N857 1.316 . S
C858 N860 1.347 . S
C858 H869 0.931 . S
C859 N857 1.375 . S
C859 C861 1.350 . S
C859 H868 0.930 . S
N860 C858 1.347 . S
N860 C861 1.373 . S
C861 C859 1.350 . S
C861 N860 1.373 . S
C861 H875 0.931 . S
C862 O865 1.256 . S
C862 O866 1.255 . S
O863 Co846 2.021 . S
O863 C856 1.259 . S
O864 Co848 2.117 . S
O864 C856 1.258 . S
O865 Co848 2.020 . S
O865 C862 1.256 . S
O866 Co846 2.062 . S
O866 C862 1.255 . S
O867 C847 1.259 . S
O867 Co848 2.021 . S
H868 C859 0.930 . S
H869 C858 0.931 . S
O870 Co846 2.117 . S
O870 C847 1.258 . S
O871 Co846 2.020 . S
O871 C873 1.256 . S
O872 Co848 2.062 . S
O872 C873 1.255 . S
C873 O871 1.256 . S
C873 O872 1.255 . S
H874 C853 0.931 . S
H875 C861 0.931 . S
H876 C882 0.930 . S
H877 C885 0.930 . S
H878 C886 0.930 . S
H879 C887 0.930 1_565 S
H880 C890 0.930 1_655 S
H881 C891 0.930 . S
C882 H876 0.930 . S
C882 C883 1.355 . S
C882 C884 1.415 . S
C883 C882 1.355 . S
C883 C885 1.419 . S
C884 C882 1.415 . S
C884 C889 1.425 . S
C884 C891 1.409 . S
C885 H877 0.930 . S
C885 C883 1.419 . S
C885 C886 1.362 . S
C886 H878 0.930 . S
C886 C885 1.362 . S
C886 C889 1.409 . S
C887 H879 0.930 1_545 S
C887 C888 1.355 1_545 S
C887 C889 1.415 . S
C888 C887 1.355 1_565 S
C888 C890 1.419 1_565 S
C889 C884 1.425 . S
C889 C886 1.409 . S
C889 C887 1.415 . S
C890 H880 0.930 1_455 S
C890 C888 1.419 1_545 S
C890 C891 1.362 . S
C891 H881 0.930 . S
C891 C884 1.409 . S
C891 C890 1.362 . S
H892 C898 0.930 . S
H893 C901 0.930 . S
H894 C902 0.930 . S
H895 C903 0.930 . S
H896 C906 0.930 . S
H897 C907 0.930 . S
C898 H892 0.930 . S
C898 C899 1.355 1_655 S
C898 C900 1.414 1_655 S
C899 C898 1.355 1_455 S
C899 C901 1.419 . S
C900 C898 1.414 1_455 S
C900 C905 1.436 . S
C900 C907 1.400 1_455 S
C901 H893 0.930 . S
C901 C899 1.419 . S
C901 C902 1.362 . S
C902 H894 0.930 . S
C902 C901 1.362 . S
C902 C905 1.409 . S
C903 H895 0.930 . S
C903 C904 1.355 . S
C903 C905 1.415 . S
C904 C903 1.355 . S
C904 C906 1.419 1_455 S
C905 C900 1.436 . S
C905 C902 1.409 . S
C905 C903 1.415 . S
C906 H896 0.930 . S
C906 C904 1.419 1_655 S
C906 C907 1.362 . S
C907 H897 0.930 . S
C907 C900 1.400 1_655 S
C907 C906 1.362 . S
H908 C914 0.930 . S
H909 C917 0.930 . S
H910 C918 0.930 . S
H911 C919 0.930 . S
H912 C922 0.930 1_655 S
H913 C923 0.928 1_655 S
C914 H908 0.930 . S
C914 C915 1.355 . S
C914 C916 1.415 . S
C915 C914 1.355 . S
C915 C917 1.419 . S
C916 C914 1.415 . S
C916 C921 1.425 . S
C916 C923 1.412 . S
C917 H909 0.930 . S
C917 C915 1.419 . S
C917 C918 1.362 . S
C918 H910 0.930 . S
C918 C917 1.362 . S
C918 C921 1.409 . S
C919 H911 0.930 . S
C919 C920 1.355 . S
C919 C921 1.415 . S
C920 C919 1.355 . S
C920 C922 1.419 . S
C921 C916 1.425 . S
C921 C918 1.409 . S
C921 C919 1.415 . S
C922 H912 0.930 1_455 S
C922 C920 1.419 . S
C922 C923 1.362 . S
C923 H913 0.928 1_455 S
C923 C916 1.412 . S
C923 C922 1.362 . S
H924 C930 0.930 . S
H925 C933 0.930 . S
H926 C934 0.930 . S
H927 C935 0.930 . S
H928 C938 0.930 . S
H929 C939 0.930 . S
C930 H924 0.930 . S
C930 C931 1.355 . S
C930 C932 1.415 . S
C931 C930 1.355 . S
C931 C933 1.419 1_655 S
C932 C930 1.415 . S
C932 C937 1.425 . S
C932 C939 1.409 . S
C933 H925 0.930 . S
C933 C931 1.419 1_455 S
C933 C934 1.362 . S
C934 H926 0.930 . S
C934 C933 1.362 . S
C934 C937 1.409 1_455 S
C935 H927 0.930 . S
C935 C936 1.355 . S
C935 C937 1.415 . S
C936 C935 1.355 . S
C936 C938 1.419 . S
C937 C932 1.425 . S
C937 C934 1.409 1_655 S
C937 C935 1.415 . S
C938 H928 0.930 . S
C938 C936 1.419 . S
C938 C939 1.362 . S
C939 H929 0.930 . S
C939 C932 1.409 . S
C939 C938 1.362 . S
H940 C946 0.930 . S
H941 C949 0.930 . S
H942 C950 0.930 . S
H943 C951 0.930 . S
H944 C954 0.930 . S
H945 C955 0.930 . S
C946 H940 0.930 . S
C946 C947 1.355 . S
C946 C948 1.415 . S
C947 C946 1.355 . S
C947 C949 1.419 . S
C948 C946 1.415 . S
C948 C953 1.425 . S
C948 C955 1.409 . S
C949 H941 0.930 . S
C949 C947 1.419 . S
C949 C950 1.362 . S
C950 H942 0.930 . S
C950 C949 1.362 . S
C950 C953 1.409 . S
C951 H943 0.930 . S
C951 C952 1.355 . S
C951 C953 1.415 . S
C952 C951 1.355 . S
C952 C954 1.419 . S
C953 C948 1.425 . S
C953 C950 1.409 . S
C953 C951 1.415 . S
C954 H944 0.930 . S
C954 C952 1.419 . S
C954 C955 1.362 . S
C955 H945 0.930 . S
C955 C948 1.409 . S
C955 C954 1.362 . S
H956 C962 0.930 . S
H957 C965 0.930 . S
H958 C966 0.930 . S
H959 C967 0.930 . S
H960 C970 0.930 . S
H961 C971 0.930 . S
C962 H956 0.930 . S
C962 C963 1.355 . S
C962 C964 1.415 . S
C963 C962 1.355 . S
C963 C965 1.419 . S
C964 C962 1.415 . S
C964 C969 1.425 . S
C964 C971 1.409 . S
C965 H957 0.930 . S
C965 C963 1.419 . S
C965 C966 1.362 . S
C966 H958 0.930 . S
C966 C965 1.362 . S
C966 C969 1.409 . S
C967 H959 0.930 . S
C967 C968 1.355 . S
C967 C969 1.415 . S
C968 C967 1.355 . S
C968 C970 1.419 . S
C969 C964 1.425 . S
C969 C966 1.409 . S
C969 C967 1.415 . S
C970 H960 0.930 . S
C970 C968 1.419 . S
C970 C971 1.362 . S
C971 H961 0.930 . S
C971 C964 1.409 . S
C971 C970 1.362 . S
H972 C978 0.930 . S
H973 C981 0.930 . S
H974 C982 0.930 . S
H975 C983 0.930 . S
H976 C986 0.930 . S
H977 C987 0.930 . S
C978 H972 0.930 . S
C978 C979 1.355 . S
C978 C980 1.415 . S
C979 C978 1.355 . S
C979 C981 1.419 1_565 S
C980 C978 1.415 . S
C980 C985 1.426 . S
C980 C987 1.409 . S
C981 H973 0.930 . S
C981 C979 1.419 1_545 S
C981 C982 1.362 . S
C982 H974 0.930 . S
C982 C981 1.362 . S
C982 C985 1.408 1_545 S
C983 H975 0.930 . S
C983 C984 1.355 1_545 S
C983 C985 1.415 1_545 S
C984 C983 1.355 1_565 S
C984 C986 1.419 . S
C985 C980 1.426 . S
C985 C982 1.408 1_565 S
C985 C983 1.415 1_565 S
C986 H976 0.930 . S
C986 C984 1.419 . S
C986 C987 1.362 . S
C987 H977 0.930 . S
C987 C980 1.409 . S
C987 C986 1.362 . S
H988 C994 0.930 . S
H989 C997 0.930 . S
H990 C998 0.930 . S
H991 C999 0.930 . S
H992 C1002 0.930 . S
H993 C1003 0.930 . S
C994 H988 0.930 . S
C994 C995 1.355 . S
C994 C996 1.415 . S
C995 C994 1.355 . S
C995 C997 1.419 . S
C996 C994 1.415 . S
C996 C1001 1.425 . S
C996 C1003 1.409 . S
C997 H989 0.930 . S
C997 C995 1.419 . S
C997 C998 1.362 . S
C998 H990 0.930 . S
C998 C997 1.362 . S
C998 C1001 1.409 . S
C999 H991 0.930 . S
C999 C1000 1.355 . S
C999 C1001 1.415 . S
C1000 C999 1.355 . S
C1000 C1002 1.419 . S
C1001 C996 1.425 . S
C1001 C998 1.409 . S
C1001 C999 1.415 . S
C1002 H992 0.930 . S
C1002 C1000 1.419 . S
C1002 C1003 1.362 . S
C1003 H993 0.930 . S
C1003 C996 1.409 . S
C1003 C1002 1.362 . S
H1004 C1010 0.930 . S
H1005 C1013 0.930 . S
H1006 C1014 0.930 1_556 S
H1007 C1015 0.930 . S
H1008 C1018 0.930 . S
H1009 C1019 0.930 . S
C1010 H1004 0.930 . S
C1010 C1011 1.355 . S
C1010 C1012 1.415 . S
C1011 C1010 1.355 . S
C1011 C1013 1.419 . S
C1012 C1010 1.415 . S
C1012 C1017 1.425 . S
C1012 C1019 1.409 . S
C1013 H1005 0.930 . S
C1013 C1011 1.419 . S
C1013 C1014 1.362 . S
C1014 H1006 0.930 1_554 S
C1014 C1013 1.362 . S
C1014 C1017 1.409 . S
C1015 H1007 0.930 . S
C1015 C1016 1.355 . S
C1015 C1017 1.415 . S
C1016 C1015 1.355 . S
C1016 C1018 1.419 . S
C1017 C1012 1.425 . S
C1017 C1014 1.409 . S
C1017 C1015 1.415 . S
C1018 H1008 0.930 . S
C1018 C1016 1.419 . S
C1018 C1019 1.362 . S
C1019 H1009 0.930 . S
C1019 C1012 1.409 . S
C1019 C1018 1.362 . S
H1020 C1026 0.930 . S
H1021 C1029 0.930 . S
H1022 C1030 0.930 . S
H1023 C1031 0.930 . S
H1024 C1034 0.930 . S
H1025 C1035 0.930 . S
C1026 H1020 0.930 . S
C1026 C1027 1.355 . S
C1026 C1028 1.415 . S
C1027 C1026 1.355 . S
C1027 C1029 1.419 . S
C1028 C1026 1.415 . S
C1028 C1033 1.425 . S
C1028 C1035 1.409 . S
C1029 H1021 0.930 . S
C1029 C1027 1.419 . S
C1029 C1030 1.362 . S
C1030 H1022 0.930 . S
C1030 C1029 1.362 . S
C1030 C1033 1.409 . S
C1031 H1023 0.930 . S
C1031 C1032 1.355 . S
C1031 C1033 1.415 . S
C1032 C1031 1.355 . S
C1032 C1034 1.419 . S
C1033 C1028 1.425 . S
C1033 C1030 1.409 . S
C1033 C1031 1.415 . S
C1034 H1024 0.930 . S
C1034 C1032 1.419 . S
C1034 C1035 1.362 . S
C1035 H1025 0.930 . S
C1035 C1028 1.409 . S
C1035 C1034 1.362 . S
H1036 C1042 0.930 . S
H1037 C1045 0.930 . S
H1038 C1046 0.930 . S
H1039 C1047 0.930 . S
H1040 C1050 0.930 . S
H1041 C1051 0.930 . S
C1042 H1036 0.930 . S
C1042 C1043 1.355 . S
C1042 C1044 1.415 . S
C1043 C1042 1.355 . S
C1043 C1045 1.419 . S
C1044 C1042 1.415 . S
C1044 C1049 1.425 . S
C1044 C1051 1.409 . S
C1045 H1037 0.930 . S
C1045 C1043 1.419 . S
C1045 C1046 1.362 . S
C1046 H1038 0.930 . S
C1046 C1045 1.362 . S
C1046 C1049 1.409 . S
C1047 H1039 0.930 . S
C1047 C1048 1.355 . S
C1047 C1049 1.415 . S
C1048 C1047 1.355 . S
C1048 C1050 1.419 . S
C1049 C1044 1.425 . S
C1049 C1046 1.409 . S
C1049 C1047 1.415 . S
C1050 H1040 0.930 . S
C1050 C1048 1.419 . S
C1050 C1051 1.362 . S
C1051 H1041 0.930 . S
C1051 C1044 1.409 . S
C1051 C1050 1.362 . S
H1052 C1058 0.930 . S
H1053 C1061 0.930 . S
H1054 C1062 0.930 . S
H1055 C1063 0.930 . S
H1056 C1066 0.930 . S
H1057 C1067 0.930 . S
C1058 H1052 0.930 . S
C1058 C1059 1.355 . S
C1058 C1060 1.415 . S
C1059 C1058 1.355 . S
C1059 C1061 1.419 . S
C1060 C1058 1.415 . S
C1060 C1065 1.425 . S
C1060 C1067 1.409 . S
C1061 H1053 0.930 . S
C1061 C1059 1.419 . S
C1061 C1062 1.362 . S
C1062 H1054 0.930 . S
C1062 C1061 1.362 . S
C1062 C1065 1.409 . S
C1063 H1055 0.930 . S
C1063 C1064 1.355 . S
C1063 C1065 1.415 . S
C1064 C1063 1.355 . S
C1064 C1066 1.419 . S
C1065 C1060 1.425 . S
C1065 C1062 1.409 . S
C1065 C1063 1.415 . S
C1066 H1056 0.930 . S
C1066 C1064 1.419 . S
C1066 C1067 1.362 . S
C1067 H1057 0.930 . S
C1067 C1060 1.409 . S
C1067 C1066 1.362 . S
H1068 C1074 0.930 . S
H1069 C1077 0.930 . S
H1070 C1078 0.930 . S
H1071 C1079 0.930 . S
H1072 C1082 0.930 . S
H1073 C1083 0.930 . S
C1074 H1068 0.930 . S
C1074 C1075 1.355 . S
C1074 C1076 1.415 . S
C1075 C1074 1.355 . S
C1075 C1077 1.419 . S
C1076 C1074 1.415 . S
C1076 C1081 1.425 . S
C1076 C1083 1.409 . S
C1077 H1069 0.930 . S
C1077 C1075 1.419 . S
C1077 C1078 1.362 . S
C1078 H1070 0.930 . S
C1078 C1077 1.362 . S
C1078 C1081 1.409 . S
C1079 H1071 0.930 . S
C1079 C1080 1.355 . S
C1079 C1081 1.415 . S
C1080 C1079 1.355 . S
C1080 C1082 1.419 . S
C1081 C1076 1.425 . S
C1081 C1078 1.409 . S
C1081 C1079 1.415 . S
C1082 H1072 0.930 . S
C1082 C1080 1.419 . S
C1082 C1083 1.362 . S
C1083 H1073 0.930 . S
C1083 C1076 1.409 . S
C1083 C1082 1.362 . S
H1084 C1090 0.930 . S
H1085 C1093 0.930 . S
H1086 C1094 0.930 . S
H1087 C1095 0.930 . S
H1088 C1098 0.930 . S
H1089 C1099 0.930 . S
C1090 H1084 0.930 . S
C1090 C1091 1.355 . S
C1090 C1092 1.415 . S
C1091 C1090 1.355 . S
C1091 C1093 1.419 . S
C1092 C1090 1.415 . S
C1092 C1097 1.425 . S
C1092 C1099 1.409 . S
C1093 H1085 0.930 . S
C1093 C1091 1.419 . S
C1093 C1094 1.362 . S
C1094 H1086 0.930 . S
C1094 C1093 1.362 . S
C1094 C1097 1.409 . S
C1095 H1087 0.930 . S
C1095 C1096 1.355 . S
C1095 C1097 1.415 . S
C1096 C1095 1.355 . S
C1096 C1098 1.419 . S
C1097 C1092 1.425 . S
C1097 C1094 1.409 . S
C1097 C1095 1.415 . S
C1098 H1088 0.930 . S
C1098 C1096 1.419 . S
C1098 C1099 1.362 . S
C1099 H1089 0.930 . S
C1099 C1092 1.409 . S
C1099 C1098 1.362 . S
H1100 C1106 0.930 . S
H1101 C1109 0.930 . S
H1102 C1110 0.930 . S
H1103 C1111 0.930 . S
H1104 C1114 0.930 . S
H1105 C1115 0.930 . S
C1106 H1100 0.930 . S
C1106 C1107 1.355 . S
C1106 C1108 1.415 . S
C1107 C1106 1.355 . S
C1107 C1109 1.419 . S
C1108 C1106 1.415 . S
C1108 C1113 1.425 . S
C1108 C1115 1.409 . S
C1109 H1101 0.930 . S
C1109 C1107 1.419 . S
C1109 C1110 1.362 . S
C1110 H1102 0.930 . S
C1110 C1109 1.362 . S
C1110 C1113 1.409 . S
C1111 H1103 0.930 . S
C1111 C1112 1.355 . S
C1111 C1113 1.415 . S
C1112 C1111 1.355 . S
C1112 C1114 1.419 . S
C1113 C1108 1.425 . S
C1113 C1110 1.409 . S
C1113 C1111 1.415 . S
C1114 H1104 0.930 . S
C1114 C1112 1.419 . S
C1114 C1115 1.362 . S
C1115 H1105 0.930 . S
C1115 C1108 1.409 . S
C1115 C1114 1.362 . S
H1116 C1122 0.930 . S
H1117 C1125 0.930 . S
H1118 C1126 0.930 . S
H1119 C1127 0.930 . S
H1120 C1130 0.930 . S
H1121 C1131 0.930 . S
C1122 H1116 0.930 . S
C1122 C1123 1.355 . S
C1122 C1124 1.415 . S
C1123 C1122 1.355 . S
C1123 C1125 1.419 . S
C1124 C1122 1.415 . S
C1124 C1129 1.425 . S
C1124 C1131 1.409 . S
C1125 H1117 0.930 . S
C1125 C1123 1.419 . S
C1125 C1126 1.362 . S
C1126 H1118 0.930 . S
C1126 C1125 1.362 . S
C1126 C1129 1.409 . S
C1127 H1119 0.930 . S
C1127 C1128 1.355 . S
C1127 C1129 1.415 . S
C1128 C1127 1.355 . S
C1128 C1130 1.419 . S
C1129 C1124 1.425 . S
C1129 C1126 1.409 . S
C1129 C1127 1.415 . S
C1130 H1120 0.930 . S
C1130 C1128 1.419 . S
C1130 C1131 1.362 . S
C1131 H1121 0.930 . S
C1131 C1124 1.409 . S
C1131 C1130 1.362 . S
H1132 C1138 0.930 . S
H1133 C1141 0.930 . S
H1134 C1142 0.930 . S
H1135 C1143 0.930 . S
H1136 C1146 0.930 . S
H1137 C1147 0.930 . S
C1138 H1132 0.930 . S
C1138 C1139 1.355 . S
C1138 C1140 1.415 . S
C1139 C1138 1.355 . S
C1139 C1141 1.419 . S
C1140 C1138 1.415 . S
C1140 C1145 1.425 . S
C1140 C1147 1.409 . S
C1141 H1133 0.930 . S
C1141 C1139 1.419 . S
C1141 C1142 1.362 . S
C1142 H1134 0.930 . S
C1142 C1141 1.362 . S
C1142 C1145 1.409 . S
C1143 H1135 0.930 . S
C1143 C1144 1.355 . S
C1143 C1145 1.415 . S
C1144 C1143 1.355 . S
C1144 C1146 1.419 . S
C1145 C1140 1.425 . S
C1145 C1142 1.409 . S
C1145 C1143 1.415 . S
C1146 H1136 0.930 . S
C1146 C1144 1.419 . S
C1146 C1147 1.362 . S
C1147 H1137 0.930 . S
C1147 C1140 1.409 . S
C1147 C1146 1.362 . S
H1148 C1154 0.930 1_545 S
H1149 C1157 0.930 . S
H1150 C1158 0.930 . S
H1151 C1159 0.930 . S
H1152 C1162 0.923 1_545 S
H1153 C1163 0.930 . S
C1154 H1148 0.930 1_565 S
C1154 C1155 1.355 . S
C1154 C1156 1.415 . S
C1155 C1154 1.355 . S
C1155 C1157 1.419 . S
C1156 C1154 1.415 . S
C1156 C1161 1.425 . S
C1156 C1163 1.409 1_565 S
C1157 H1149 0.930 . S
C1157 C1155 1.419 . S
C1157 C1158 1.362 . S
C1158 H1150 0.930 . S
C1158 C1157 1.362 . S
C1158 C1161 1.409 . S
C1159 H1151 0.930 . S
C1159 C1160 1.355 . S
C1159 C1161 1.415 . S
C1160 C1159 1.355 . S
C1160 C1162 1.428 . S
C1161 C1156 1.425 . S
C1161 C1158 1.409 . S
C1161 C1159 1.415 . S
C1162 H1152 0.923 1_565 S
C1162 C1160 1.428 . S
C1162 C1163 1.361 1_565 S
C1163 H1153 0.930 . S
C1163 C1156 1.409 1_545 S
C1163 C1162 1.361 1_545 S
H1164 C1170 0.930 . S
H1165 C1173 0.930 . S
H1166 C1174 0.930 . S
H1167 C1175 0.930 . S
H1168 C1178 0.930 . S
H1169 C1179 0.930 . S
C1170 H1164 0.930 . S
C1170 C1171 1.355 . S
C1170 C1172 1.415 . S
C1171 C1170 1.355 . S
C1171 C1173 1.419 . S
C1172 C1170 1.415 . S
C1172 C1177 1.425 . S
C1172 C1179 1.409 . S
C1173 H1165 0.930 . S
C1173 C1171 1.419 . S
C1173 C1174 1.362 . S
C1174 H1166 0.930 . S
C1174 C1173 1.362 . S
C1174 C1177 1.409 . S
C1175 H1167 0.930 . S
C1175 C1176 1.355 . S
C1175 C1177 1.415 . S
C1176 C1175 1.355 . S
C1176 C1178 1.419 . S
C1177 C1172 1.425 . S
C1177 C1174 1.409 . S
C1177 C1175 1.415 . S
C1178 H1168 0.930 . S
C1178 C1176 1.419 . S
C1178 C1179 1.362 . S
C1179 H1169 0.930 . S
C1179 C1172 1.409 . S
C1179 C1178 1.362 . S
H1180 C1186 0.930 . S
H1181 C1189 0.930 . S
H1182 C1190 0.930 . S
H1183 C1191 0.930 . S
H1184 C1194 0.930 . S
H1185 C1195 0.930 . S
C1186 H1180 0.930 . S
C1186 C1187 1.355 . S
C1186 C1188 1.415 . S
C1187 C1186 1.355 . S
C1187 C1189 1.419 . S
C1188 C1186 1.415 . S
C1188 C1193 1.425 . S
C1188 C1195 1.409 . S
C1189 H1181 0.930 . S
C1189 C1187 1.419 . S
C1189 C1190 1.362 . S
C1190 H1182 0.930 . S
C1190 C1189 1.362 . S
C1190 C1193 1.409 . S
C1191 H1183 0.930 . S
C1191 C1192 1.355 . S
C1191 C1193 1.415 . S
C1192 C1191 1.355 . S
C1192 C1194 1.419 . S
C1193 C1188 1.425 . S
C1193 C1190 1.409 . S
C1193 C1191 1.415 . S
C1194 H1184 0.930 . S
C1194 C1192 1.419 . S
C1194 C1195 1.362 . S
C1195 H1185 0.930 . S
C1195 C1188 1.409 . S
C1195 C1194 1.362 . S
H1196 C1202 0.930 . S
H1197 C1205 0.930 . S
H1198 C1206 0.930 . S
H1199 C1207 0.930 . S
H1200 C1210 0.930 . S
H1201 C1211 0.930 . S
C1202 H1196 0.930 . S
C1202 C1203 1.355 . S
C1202 C1204 1.415 . S
C1203 C1202 1.355 . S
C1203 C1205 1.419 . S
C1204 C1202 1.415 . S
C1204 C1209 1.425 . S
C1204 C1211 1.409 . S
C1205 H1197 0.930 . S
C1205 C1203 1.419 . S
C1205 C1206 1.362 . S
C1206 H1198 0.930 . S
C1206 C1205 1.362 . S
C1206 C1209 1.409 . S
C1207 H1199 0.930 . S
C1207 C1208 1.355 . S
C1207 C1209 1.415 . S
C1208 C1207 1.355 . S
C1208 C1210 1.419 . S
C1209 C1204 1.425 . S
C1209 C1206 1.409 . S
C1209 C1207 1.415 . S
C1210 H1200 0.930 . S
C1210 C1208 1.419 . S
C1210 C1211 1.362 . S
C1211 H1201 0.930 . S
C1211 C1204 1.409 . S
C1211 C1210 1.362 . S
H1212 C1218 0.930 . S
H1213 C1221 0.930 . S
H1214 C1222 0.930 . S
H1215 C1223 0.930 . S
H1216 C1226 0.930 . S
H1217 C1227 0.930 . S
C1218 H1212 0.930 . S
C1218 C1219 1.355 . S
C1218 C1220 1.415 . S
C1219 C1218 1.355 . S
C1219 C1221 1.419 . S
C1220 C1218 1.415 . S
C1220 C1225 1.425 . S
C1220 C1227 1.409 . S
C1221 H1213 0.930 . S
C1221 C1219 1.419 . S
C1221 C1222 1.362 . S
C1222 H1214 0.930 . S
C1222 C1221 1.362 . S
C1222 C1225 1.409 . S
C1223 H1215 0.930 . S
C1223 C1224 1.355 . S
C1223 C1225 1.415 . S
C1224 C1223 1.355 . S
C1224 C1226 1.419 . S
C1225 C1220 1.425 . S
C1225 C1222 1.409 . S
C1225 C1223 1.415 . S
C1226 H1216 0.930 . S
C1226 C1224 1.419 . S
C1226 C1227 1.362 . S
C1227 H1217 0.930 . S
C1227 C1220 1.409 . S
C1227 C1226 1.362 . S
H1228 C1234 0.930 . S
H1229 C1237 0.930 . S
H1230 C1238 0.930 . S
H1231 C1239 0.930 . S
H1232 C1242 0.930 . S
H1233 C1243 0.930 . S
C1234 H1228 0.930 . S
C1234 C1235 1.355 1_556 S
C1234 C1236 1.415 . S
C1235 C1234 1.355 1_554 S
C1235 C1237 1.419 . S
C1236 C1234 1.415 . S
C1236 C1241 1.425 1_556 S
C1236 C1243 1.409 . S
C1237 H1229 0.930 . S
C1237 C1235 1.419 . S
C1237 C1238 1.362 . S
C1238 H1230 0.930 . S
C1238 C1237 1.362 . S
C1238 C1241 1.409 . S
C1239 H1231 0.930 . S
C1239 C1240 1.355 1_554 S
C1239 C1241 1.415 . S
C1240 C1239 1.355 1_556 S
C1240 C1242 1.419 . S
C1241 C1236 1.425 1_554 S
C1241 C1238 1.409 . S
C1241 C1239 1.415 . S
C1242 H1232 0.930 . S
C1242 C1240 1.419 . S
C1242 C1243 1.362 . S
C1243 H1233 0.930 . S
C1243 C1236 1.409 . S
C1243 C1242 1.362 . S
H1244 C1250 0.930 . S
H1245 C1253 0.930 . S
H1246 C1254 0.930 . S
H1247 C1255 0.930 . S
H1248 C1258 0.930 1_455 S
H1249 C1259 0.930 . S
C1250 H1244 0.930 . S
C1250 C1251 1.355 . S
C1250 C1252 1.415 . S
C1251 C1250 1.355 . S
C1251 C1253 1.419 . S
C1252 C1250 1.415 . S
C1252 C1257 1.425 . S
C1252 C1259 1.409 . S
C1253 H1245 0.930 . S
C1253 C1251 1.419 . S
C1253 C1254 1.362 . S
C1254 H1246 0.930 . S
C1254 C1253 1.362 . S
C1254 C1257 1.409 . S
C1255 H1247 0.930 . S
C1255 C1256 1.355 . S
C1255 C1257 1.415 . S
C1256 C1255 1.355 . S
C1256 C1258 1.419 . S
C1257 C1252 1.425 . S
C1257 C1254 1.409 . S
C1257 C1255 1.415 . S
C1258 H1248 0.930 1_655 S
C1258 C1256 1.419 . S
C1258 C1259 1.362 . S
C1259 H1249 0.930 . S
C1259 C1252 1.409 . S
C1259 C1258 1.362 . S
H1260 C1266 0.930 . S
H1261 C1269 0.930 . S
H1262 C1270 0.929 . S
H1263 C1271 0.930 . S
H1264 C1274 0.930 . S
H1265 C1275 0.930 . S
C1266 H1260 0.930 . S
C1266 C1267 1.355 . S
C1266 C1268 1.415 . S
C1267 C1266 1.355 . S
C1267 C1269 1.419 . S
C1268 C1266 1.415 . S
C1268 C1273 1.425 . S
C1268 C1275 1.409 . S
C1269 H1261 0.930 . S
C1269 C1267 1.419 . S
C1269 C1270 1.362 . S
C1270 H1262 0.929 . S
C1270 C1269 1.362 . S
C1270 C1273 1.409 . S
C1271 H1263 0.930 . S
C1271 C1272 1.355 . S
C1271 C1273 1.415 . S
C1272 C1271 1.355 . S
C1272 C1274 1.419 . S
C1273 C1268 1.425 . S
C1273 C1270 1.409 . S
C1273 C1271 1.415 . S
C1274 H1264 0.930 . S
C1274 C1272 1.419 . S
C1274 C1275 1.362 . S
C1275 H1265 0.930 . S
C1275 C1268 1.409 . S
C1275 C1274 1.362 . S
H1276 C1282 0.930 . S
H1277 C1285 0.930 . S
H1278 C1286 0.930 . S
H1279 C1287 0.930 . S
H1280 C1290 0.930 . S
H1281 C1291 0.930 . S
C1282 H1276 0.930 . S
C1282 C1283 1.355 . S
C1282 C1284 1.415 . S
C1283 C1282 1.355 . S
C1283 C1285 1.419 1_455 S
C1284 C1282 1.415 . S
C1284 C1289 1.425 1_455 S
C1284 C1291 1.409 . S
C1285 H1277 0.930 . S
C1285 C1283 1.419 1_655 S
C1285 C1286 1.362 . S
C1286 H1278 0.930 . S
C1286 C1285 1.362 . S
C1286 C1289 1.409 . S
C1287 H1279 0.930 . S
C1287 C1288 1.355 . S
C1287 C1289 1.415 . S
C1288 C1287 1.355 . S
C1288 C1290 1.419 1_655 S
C1289 C1284 1.425 1_655 S
C1289 C1286 1.409 . S
C1289 C1287 1.415 . S
C1290 H1280 0.930 . S
C1290 C1288 1.419 1_455 S
C1290 C1291 1.362 . S
C1291 H1281 0.930 . S
C1291 C1284 1.409 . S
C1291 C1290 1.362 . S
H1292 C1298 0.930 . S
H1293 C1301 0.930 . S
H1294 C1302 0.930 . S
H1295 C1303 0.930 . S
H1296 C1306 0.930 . S
H1297 C1307 0.930 . S
C1298 H1292 0.930 . S
C1298 C1299 1.355 . S
C1298 C1300 1.415 . S
C1299 C1298 1.355 . S
C1299 C1301 1.419 1_455 S
C1300 C1298 1.415 . S
C1300 C1305 1.425 1_455 S
C1300 C1307 1.409 . S
C1301 H1293 0.930 . S
C1301 C1299 1.419 1_655 S
C1301 C1302 1.362 . S
C1302 H1294 0.930 . S
C1302 C1301 1.362 . S
C1302 C1305 1.409 . S
C1303 H1295 0.930 . S
C1303 C1304 1.355 1_655 S
C1303 C1305 1.415 . S
C1304 C1303 1.355 1_455 S
C1304 C1306 1.419 . S
C1305 C1300 1.425 1_655 S
C1305 C1302 1.409 . S
C1305 C1303 1.415 . S
C1306 H1296 0.930 . S
C1306 C1304 1.419 . S
C1306 C1307 1.362 . S
C1307 H1297 0.930 . S
C1307 C1300 1.409 . S
C1307 C1306 1.362 . S
H1308 C1314 0.930 . S
H1309 C1317 0.930 . S
H1310 C1318 0.930 . S
H1311 C1319 0.930 . S
H1312 C1322 0.930 . S
H1313 C1323 0.930 . S
C1314 H1308 0.930 . S
C1314 C1315 1.355 . S
C1314 C1316 1.415 . S
C1315 C1314 1.355 . S
C1315 C1317 1.419 . S
C1316 C1314 1.415 . S
C1316 C1321 1.425 . S
C1316 C1323 1.409 . S
C1317 H1309 0.930 . S
C1317 C1315 1.419 . S
C1317 C1318 1.362 . S
C1318 H1310 0.930 . S
C1318 C1317 1.362 . S
C1318 C1321 1.409 . S
C1319 H1311 0.930 . S
C1319 C1320 1.355 . S
C1319 C1321 1.415 . S
C1320 C1319 1.355 . S
C1320 C1322 1.419 . S
C1321 C1316 1.425 . S
C1321 C1318 1.409 . S
C1321 C1319 1.415 . S
C1322 H1312 0.930 . S
C1322 C1320 1.419 . S
C1322 C1323 1.362 . S
C1323 H1313 0.930 . S
C1323 C1316 1.409 . S
C1323 C1322 1.362 . S
H1324 C1330 0.930 . S
H1325 C1333 0.930 . S
H1326 C1334 0.930 . S
H1327 C1335 0.930 . S
H1328 C1338 0.930 . S
H1329 C1339 0.930 . S
C1330 H1324 0.930 . S
C1330 C1331 1.355 . S
C1330 C1332 1.415 . S
C1331 C1330 1.355 . S
C1331 C1333 1.419 . S
C1332 C1330 1.415 . S
C1332 C1337 1.425 . S
C1332 C1339 1.409 . S
C1333 H1325 0.930 . S
C1333 C1331 1.419 . S
C1333 C1334 1.362 . S
C1334 H1326 0.930 . S
C1334 C1333 1.362 . S
C1334 C1337 1.409 . S
C1335 H1327 0.930 . S
C1335 C1336 1.355 . S
C1335 C1337 1.415 . S
C1336 C1335 1.355 . S
C1336 C1338 1.419 . S
C1337 C1332 1.425 . S
C1337 C1334 1.409 . S
C1337 C1335 1.415 . S
C1338 H1328 0.930 . S
C1338 C1336 1.419 . S
C1338 C1339 1.362 . S
C1339 H1329 0.930 . S
C1339 C1332 1.409 . S
C1339 C1338 1.362 . S
H1340 C1346 0.930 . S
H1341 C1349 0.930 . S
H1342 C1350 0.930 . S
H1343 C1351 0.930 . S
H1344 C1354 0.930 . S
H1345 C1355 0.930 . S
C1346 H1340 0.930 . S
C1346 C1347 1.355 . S
C1346 C1348 1.415 . S
C1347 C1346 1.355 . S
C1347 C1349 1.419 . S
C1348 C1346 1.415 . S
C1348 C1353 1.425 . S
C1348 C1355 1.409 . S
C1349 H1341 0.930 . S
C1349 C1347 1.419 . S
C1349 C1350 1.362 . S
C1350 H1342 0.930 . S
C1350 C1349 1.362 . S
C1350 C1353 1.409 . S
C1351 H1343 0.930 . S
C1351 C1352 1.355 . S
C1351 C1353 1.415 . S
C1352 C1351 1.355 . S
C1352 C1354 1.419 . S
C1353 C1348 1.425 . S
C1353 C1350 1.409 . S
C1353 C1351 1.415 . S
C1354 H1344 0.930 . S
C1354 C1352 1.419 . S
C1354 C1355 1.362 . S
C1355 H1345 0.930 . S
C1355 C1348 1.409 . S
C1355 C1354 1.362 . S
H1356 C1362 0.930 . S
H1357 C1365 0.924 1_545 S
H1358 C1366 0.930 . S
H1359 C1367 0.930 . S
H1360 C1370 0.930 . S
H1361 C1371 0.930 . S
C1362 H1356 0.930 . S
C1362 C1363 1.355 . S
C1362 C1364 1.415 . S
C1363 C1362 1.355 . S
C1363 C1365 1.419 . S
C1364 C1362 1.415 . S
C1364 C1369 1.425 . S
C1364 C1371 1.409 . S
C1365 H1357 0.924 1_565 S
C1365 C1363 1.419 . S
C1365 C1366 1.362 . S
C1366 H1358 0.930 . S
C1366 C1365 1.362 . S
C1366 C1369 1.409 . S
C1367 H1359 0.930 . S
C1367 C1368 1.355 . S
C1367 C1369 1.415 . S
C1368 C1367 1.355 . S
C1368 C1370 1.419 . S
C1369 C1364 1.425 . S
C1369 C1366 1.409 . S
C1369 C1367 1.415 . S
C1370 H1360 0.930 . S
C1370 C1368 1.419 . S
C1370 C1371 1.362 . S
C1371 H1361 0.930 . S
C1371 C1364 1.409 . S
C1371 C1370 1.362 . S
H1372 C1378 0.930 . S
H1373 C1381 0.930 . S
H1374 C1382 0.930 . S
H1375 C1383 0.930 . S
H1376 C1386 0.930 . S
H1377 C1387 0.930 . S
C1378 H1372 0.930 . S
C1378 C1379 1.355 . S
C1378 C1380 1.415 . S
C1379 C1378 1.355 . S
C1379 C1381 1.419 . S
C1380 C1378 1.415 . S
C1380 C1385 1.425 . S
C1380 C1387 1.409 . S
C1381 H1373 0.930 . S
C1381 C1379 1.419 . S
C1381 C1382 1.362 . S
C1382 H1374 0.930 . S
C1382 C1381 1.362 . S
C1382 C1385 1.409 . S
C1383 H1375 0.930 . S
C1383 C1384 1.355 . S
C1383 C1385 1.415 . S
C1384 C1383 1.355 . S
C1384 C1386 1.419 . S
C1385 C1380 1.425 . S
C1385 C1382 1.409 . S
C1385 C1383 1.415 . S
C1386 H1376 0.930 . S
C1386 C1384 1.419 . S
C1386 C1387 1.362 . S
C1387 H1377 0.930 . S
C1387 C1380 1.409 . S
C1387 C1386 1.362 . S
H1388 C1394 0.930 . S
H1389 C1397 0.930 . S
H1390 C1398 0.930 . S
H1391 C1399 0.930 . S
H1392 C1402 0.930 1_556 S
H1393 C1403 0.930 1_556 S
C1394 H1388 0.930 . S
C1394 C1395 1.355 . S
C1394 C1396 1.415 . S
C1395 C1394 1.355 . S
C1395 C1397 1.419 . S
C1396 C1394 1.415 . S
C1396 C1401 1.425 . S
C1396 C1403 1.409 . S
C1397 H1389 0.930 . S
C1397 C1395 1.419 . S
C1397 C1398 1.362 . S
C1398 H1390 0.930 . S
C1398 C1397 1.362 . S
C1398 C1401 1.409 . S
C1399 H1391 0.930 . S
C1399 C1400 1.355 . S
C1399 C1401 1.415 . S
C1400 C1399 1.355 . S
C1400 C1402 1.419 . S
C1401 C1396 1.425 . S
C1401 C1398 1.409 . S
C1401 C1399 1.415 . S
C1402 H1392 0.930 1_554 S
C1402 C1400 1.419 . S
C1402 C1403 1.362 . S
C1403 H1393 0.930 1_554 S
C1403 C1396 1.409 . S
C1403 C1402 1.362 . S
H1404 C1410 0.930 . S
H1405 C1413 0.930 . S
H1406 C1414 0.930 . S
H1407 C1415 0.930 . S
H1408 C1418 0.930 . S
H1409 C1419 0.930 . S
C1410 H1404 0.930 . S
C1410 C1411 1.355 . S
C1410 C1412 1.415 . S
C1411 C1410 1.355 . S
C1411 C1413 1.419 . S
C1412 C1410 1.415 . S
C1412 C1417 1.425 . S
C1412 C1419 1.409 . S
C1413 H1405 0.930 . S
C1413 C1411 1.419 . S
C1413 C1414 1.362 . S
C1414 H1406 0.930 . S
C1414 C1413 1.362 . S
C1414 C1417 1.409 . S
C1415 H1407 0.930 . S
C1415 C1416 1.355 . S
C1415 C1417 1.415 . S
C1416 C1415 1.355 . S
C1416 C1418 1.419 . S
C1417 C1412 1.425 . S
C1417 C1414 1.409 . S
C1417 C1415 1.415 . S
C1418 H1408 0.930 . S
C1418 C1416 1.419 . S
C1418 C1419 1.362 . S
C1419 H1409 0.930 . S
C1419 C1412 1.409 . S
C1419 C1418 1.362 . S
H1420 C1426 0.930 . S
H1421 C1429 0.930 . S
H1422 C1430 0.930 . S
H1423 C1431 0.930 . S
H1424 C1434 0.930 . S
H1425 C1435 0.930 . S
C1426 H1420 0.930 . S
C1426 C1427 1.355 . S
C1426 C1428 1.415 . S
C1427 C1426 1.355 . S
C1427 C1429 1.419 . S
C1428 C1426 1.415 . S
C1428 C1433 1.425 . S
C1428 C1435 1.409 . S
C1429 H1421 0.930 . S
C1429 C1427 1.419 . S
C1429 C1430 1.362 . S
C1430 H1422 0.930 . S
C1430 C1429 1.362 . S
C1430 C1433 1.409 . S
C1431 H1423 0.930 . S
C1431 C1432 1.355 . S
C1431 C1433 1.415 . S
C1432 C1431 1.355 . S
C1432 C1434 1.419 . S
C1433 C1428 1.425 . S
C1433 C1430 1.409 . S
C1433 C1431 1.415 . S
C1434 H1424 0.930 . S
C1434 C1432 1.419 . S
C1434 C1435 1.362 . S
C1435 H1425 0.930 . S
C1435 C1428 1.409 . S
C1435 C1434 1.362 . S
H1436 C1442 0.930 . S
H1437 C1445 0.930 . S
H1438 C1446 0.930 . S
H1439 C1447 0.930 . S
H1440 C1450 0.930 . S
H1441 C1451 0.930 . S
C1442 H1436 0.930 . S
C1442 C1443 1.355 . S
C1442 C1444 1.415 . S
C1443 C1442 1.355 . S
C1443 C1445 1.419 . S
C1444 C1442 1.415 . S
C1444 C1449 1.425 . S
C1444 C1451 1.409 . S
C1445 H1437 0.930 . S
C1445 C1443 1.419 . S
C1445 C1446 1.362 . S
C1446 H1438 0.930 . S
C1446 C1445 1.362 . S
C1446 C1449 1.409 . S
C1447 H1439 0.930 . S
C1447 C1448 1.355 . S
C1447 C1449 1.415 . S
C1448 C1447 1.355 . S
C1448 C1450 1.419 . S
C1449 C1444 1.425 . S
C1449 C1446 1.409 . S
C1449 C1447 1.415 . S
C1450 H1440 0.930 . S
C1450 C1448 1.419 . S
C1450 C1451 1.362 . S
C1451 H1441 0.930 . S
C1451 C1444 1.409 . S
C1451 C1450 1.362 . S
H1452 C1458 0.930 . S
H1453 C1461 0.930 . S
H1454 C1462 0.930 . S
H1455 C1463 0.930 . S
H1456 C1466 0.930 . S
H1457 C1467 0.930 . S
C1458 H1452 0.930 . S
C1458 C1459 1.355 . S
C1458 C1460 1.415 . S
C1459 C1458 1.355 . S
C1459 C1461 1.419 . S
C1460 C1458 1.415 . S
C1460 C1465 1.425 . S
C1460 C1467 1.409 . S
C1461 H1453 0.930 . S
C1461 C1459 1.419 . S
C1461 C1462 1.362 . S
C1462 H1454 0.930 . S
C1462 C1461 1.362 . S
C1462 C1465 1.409 . S
C1463 H1455 0.930 . S
C1463 C1464 1.355 . S
C1463 C1465 1.415 . S
C1464 C1463 1.355 . S
C1464 C1466 1.419 . S
C1465 C1460 1.425 . S
C1465 C1462 1.409 . S
C1465 C1463 1.415 . S
C1466 H1456 0.930 . S
C1466 C1464 1.419 . S
C1466 C1467 1.362 . S
C1467 H1457 0.930 . S
C1467 C1460 1.409 . S
C1467 C1466 1.362 . S
H1468 C1474 0.930 . S
H1469 C1477 0.930 . S
H1470 C1478 0.930 . S
H1471 C1479 0.930 . S
H1472 C1482 0.930 . S
H1473 C1483 0.930 . S
C1474 H1468 0.930 . S
C1474 C1475 1.355 . S
C1474 C1476 1.415 . S
C1475 C1474 1.355 . S
C1475 C1477 1.419 . S
C1476 C1474 1.415 . S
C1476 C1481 1.425 . S
C1476 C1483 1.409 . S
C1477 H1469 0.930 . S
C1477 C1475 1.419 . S
C1477 C1478 1.362 . S
C1478 H1470 0.930 . S
C1478 C1477 1.362 . S
C1478 C1481 1.409 . S
C1479 H1471 0.930 . S
C1479 C1480 1.355 . S
C1479 C1481 1.415 . S
C1480 C1479 1.355 . S
C1480 C1482 1.419 . S
C1481 C1476 1.425 . S
C1481 C1478 1.409 . S
C1481 C1479 1.415 . S
C1482 H1472 0.930 . S
C1482 C1480 1.419 . S
C1482 C1483 1.362 . S
C1483 H1473 0.930 . S
C1483 C1476 1.409 . S
C1483 C1482 1.362 . S
H1484 C1490 0.930 . S
H1485 C1493 0.930 . S
H1486 C1494 0.930 . S
H1487 C1495 0.930 . S
H1488 C1498 0.930 . S
H1489 C1499 0.930 . S
C1490 H1484 0.930 . S
C1490 C1491 1.355 . S
C1490 C1492 1.415 . S
C1491 C1490 1.355 . S
C1491 C1493 1.419 . S
C1492 C1490 1.415 . S
C1492 C1497 1.425 . S
C1492 C1499 1.409 . S
C1493 H1485 0.930 . S
C1493 C1491 1.419 . S
C1493 C1494 1.362 . S
C1494 H1486 0.930 . S
C1494 C1493 1.362 . S
C1494 C1497 1.409 . S
C1495 H1487 0.930 . S
C1495 C1496 1.355 . S
C1495 C1497 1.415 . S
C1496 C1495 1.355 . S
C1496 C1498 1.419 . S
C1497 C1492 1.425 . S
C1497 C1494 1.409 . S
C1497 C1495 1.415 . S
C1498 H1488 0.930 . S
C1498 C1496 1.419 . S
C1498 C1499 1.362 . S
C1499 H1489 0.930 . S
C1499 C1492 1.409 . S
C1499 C1498 1.362 . S
H1500 C1506 0.930 . S
H1501 C1509 0.930 . S
H1502 C1510 0.930 . S
H1503 C1511 0.930 . S
H1504 C1514 0.930 . S
H1505 C1515 0.930 . S
C1506 H1500 0.930 . S
C1506 C1507 1.355 . S
C1506 C1508 1.415 . S
C1507 C1506 1.355 . S
C1507 C1509 1.419 . S
C1508 C1506 1.415 . S
C1508 C1513 1.425 . S
C1508 C1515 1.409 . S
C1509 H1501 0.930 . S
C1509 C1507 1.419 . S
C1509 C1510 1.362 . S
C1510 H1502 0.930 . S
C1510 C1509 1.362 . S
C1510 C1513 1.409 . S
C1511 H1503 0.930 . S
C1511 C1512 1.355 . S
C1511 C1513 1.415 . S
C1512 C1511 1.355 . S
C1512 C1514 1.419 . S
C1513 C1508 1.425 . S
C1513 C1510 1.409 . S
C1513 C1511 1.415 . S
C1514 H1504 0.930 . S
C1514 C1512 1.419 . S
C1514 C1515 1.362 . S
C1515 H1505 0.930 . S
C1515 C1508 1.409 . S
C1515 C1514 1.362 . S
H1516 C1522 0.930 . S
H1517 C1525 0.930 . S
H1518 C1526 0.930 . S
H1519 C1527 0.930 . S
H1520 C1530 0.930 . S
H1521 C1531 0.930 . S
C1522 H1516 0.930 . S
C1522 C1523 1.355 . S
C1522 C1524 1.415 . S
C1523 C1522 1.355 . S
C1523 C1525 1.419 . S
C1524 C1522 1.415 . S
C1524 C1529 1.425 . S
C1524 C1531 1.409 . S
C1525 H1517 0.930 . S
C1525 C1523 1.419 . S
C1525 C1526 1.362 . S
C1526 H1518 0.930 . S
C1526 C1525 1.362 . S
C1526 C1529 1.409 . S
C1527 H1519 0.930 . S
C1527 C1528 1.355 . S
C1527 C1529 1.415 . S
C1528 C1527 1.355 . S
C1528 C1530 1.419 . S
C1529 C1524 1.425 . S
C1529 C1526 1.409 . S
C1529 C1527 1.415 . S
C1530 H1520 0.930 . S
C1530 C1528 1.419 . S
C1530 C1531 1.362 . S
C1531 H1521 0.930 . S
C1531 C1524 1.409 . S
C1531 C1530 1.362 . S
H1532 C1538 0.930 1_545 S
H1533 C1541 0.930 . S
H1534 C1542 0.930 . S
H1535 C1543 0.930 . S
H1536 C1546 0.930 . S
H1537 C1547 0.930 1_545 S
C1538 H1532 0.930 1_565 S
C1538 C1539 1.355 . S
C1538 C1540 1.415 . S
C1539 C1538 1.355 . S
C1539 C1541 1.419 . S
C1540 C1538 1.415 . S
C1540 C1545 1.425 . S
C1540 C1547 1.409 . S
C1541 H1533 0.930 . S
C1541 C1539 1.419 . S
C1541 C1542 1.362 . S
C1542 H1534 0.930 . S
C1542 C1541 1.362 . S
C1542 C1545 1.409 . S
C1543 H1535 0.930 . S
C1543 C1544 1.355 . S
C1543 C1545 1.415 . S
C1544 C1543 1.355 . S
C1544 C1546 1.419 . S
C1545 C1540 1.425 . S
C1545 C1542 1.409 . S
C1545 C1543 1.415 . S
C1546 H1536 0.930 . S
C1546 C1544 1.419 . S
C1546 C1547 1.362 . S
C1547 H1537 0.930 1_565 S
C1547 C1540 1.409 . S
C1547 C1546 1.362 . S
H1548 C1554 0.930 . S
H1549 C1557 0.930 . S
H1550 C1558 0.930 . S
H1551 C1559 0.930 . S
H1552 C1562 0.930 . S
H1553 C1563 0.930 . S
C1554 H1548 0.930 . S
C1554 C1555 1.355 . S
C1554 C1556 1.415 . S
C1555 C1554 1.355 . S
C1555 C1557 1.419 . S
C1556 C1554 1.415 . S
C1556 C1561 1.425 . S
C1556 C1563 1.409 . S
C1557 H1549 0.930 . S
C1557 C1555 1.419 . S
C1557 C1558 1.362 . S
C1558 H1550 0.930 . S
C1558 C1557 1.362 . S
C1558 C1561 1.409 . S
C1559 H1551 0.930 . S
C1559 C1560 1.355 . S
C1559 C1561 1.415 . S
C1560 C1559 1.355 . S
C1560 C1562 1.419 . S
C1561 C1556 1.425 . S
C1561 C1558 1.409 . S
C1561 C1559 1.415 . S
C1562 H1552 0.930 . S
C1562 C1560 1.419 . S
C1562 C1563 1.362 . S
C1563 H1553 0.930 . S
C1563 C1556 1.409 . S
C1563 C1562 1.362 . S
H1564 C1570 0.930 . S
H1565 C1573 0.930 . S
H1566 C1574 0.930 . S
H1567 C1575 0.930 . S
H1568 C1578 0.930 . S
H1569 C1579 0.930 . S
C1570 H1564 0.930 . S
C1570 C1571 1.355 . S
C1570 C1572 1.415 . S
C1571 C1570 1.355 . S
C1571 C1573 1.419 . S
C1572 C1570 1.415 . S
C1572 C1577 1.425 . S
C1572 C1579 1.409 . S
C1573 H1565 0.930 . S
C1573 C1571 1.419 . S
C1573 C1574 1.362 . S
C1574 H1566 0.930 . S
C1574 C1573 1.362 . S
C1574 C1577 1.409 . S
C1575 H1567 0.930 . S
C1575 C1576 1.355 . S
C1575 C1577 1.415 . S
C1576 C1575 1.355 . S
C1576 C1578 1.419 . S
C1577 C1572 1.425 . S
C1577 C1574 1.409 . S
C1577 C1575 1.415 . S
C1578 H1568 0.930 . S
C1578 C1576 1.419 . S
C1578 C1579 1.362 . S
C1579 H1569 0.930 . S
C1579 C1572 1.409 . S
C1579 C1578 1.362 . S
H1580 C1586 0.930 . S
H1581 C1589 0.930 . S
H1582 C1590 0.930 . S
H1583 C1591 0.930 . S
H1584 C1594 0.930 . S
H1585 C1595 0.930 . S
C1586 H1580 0.930 . S
C1586 C1587 1.355 . S
C1586 C1588 1.415 . S
C1587 C1586 1.355 . S
C1587 C1589 1.419 . S
C1588 C1586 1.415 . S
C1588 C1593 1.425 . S
C1588 C1595 1.409 . S
C1589 H1581 0.930 . S
C1589 C1587 1.419 . S
C1589 C1590 1.362 . S
C1590 H1582 0.930 . S
C1590 C1589 1.362 . S
C1590 C1593 1.409 . S
C1591 H1583 0.930 . S
C1591 C1592 1.355 . S
C1591 C1593 1.415 . S
C1592 C1591 1.355 . S
C1592 C1594 1.419 . S
C1593 C1588 1.425 . S
C1593 C1590 1.409 . S
C1593 C1591 1.415 . S
C1594 H1584 0.930 . S
C1594 C1592 1.419 . S
C1594 C1595 1.362 . S
C1595 H1585 0.930 . S
C1595 C1588 1.409 . S
C1595 C1594 1.362 . S
H1596 C1602 0.930 . S
H1597 C1605 0.930 . S
H1598 C1606 0.930 . S
H1599 C1607 0.930 . S
H1600 C1610 0.930 . S
H1601 C1611 0.930 . S
C1602 H1596 0.930 . S
C1602 C1603 1.355 . S
C1602 C1604 1.415 . S
C1603 C1602 1.355 . S
C1603 C1605 1.419 1_556 S
C1604 C1602 1.415 . S
C1604 C1609 1.425 1_556 S
C1604 C1611 1.409 . S
C1605 H1597 0.930 . S
C1605 C1603 1.419 1_554 S
C1605 C1606 1.362 . S
C1606 H1598 0.930 . S
C1606 C1605 1.362 . S
C1606 C1609 1.409 . S
C1607 H1599 0.930 . S
C1607 C1608 1.355 1_554 S
C1607 C1609 1.415 . S
C1608 C1607 1.355 1_556 S
C1608 C1610 1.419 . S
C1609 C1604 1.425 1_554 S
C1609 C1606 1.409 . S
C1609 C1607 1.415 . S
C1610 H1600 0.930 . S
C1610 C1608 1.419 . S
C1610 C1611 1.362 . S
C1611 H1601 0.930 . S
C1611 C1604 1.409 . S
C1611 C1610 1.362 . S
H1612 C1618 0.930 1_554 S
H1613 C1621 0.930 . S
H1614 C1622 0.930 . S
H1615 C1623 0.930 . S
H1616 C1626 0.930 . S
H1617 C1627 0.930 1_554 S
C1618 H1612 0.930 1_556 S
C1618 C1619 1.355 . S
C1618 C1620 1.415 . S
C1619 C1618 1.355 . S
C1619 C1621 1.419 . S
C1620 C1618 1.415 . S
C1620 C1625 1.425 . S
C1620 C1627 1.409 . S
C1621 H1613 0.930 . S
C1621 C1619 1.419 . S
C1621 C1622 1.362 . S
C1622 H1614 0.930 . S
C1622 C1621 1.362 . S
C1622 C1625 1.409 . S
C1623 H1615 0.930 . S
C1623 C1624 1.355 . S
C1623 C1625 1.415 . S
C1624 C1623 1.355 . S
C1624 C1626 1.419 . S
C1625 C1620 1.425 . S
C1625 C1622 1.409 . S
C1625 C1623 1.415 . S
C1626 H1616 0.930 . S
C1626 C1624 1.419 . S
C1626 C1627 1.362 . S
C1627 H1617 0.930 1_556 S
C1627 C1620 1.409 . S
C1627 C1626 1.362 . S
H1628 C1634 0.930 . S
H1629 C1637 0.930 . S
H1630 C1638 0.930 . S
H1631 C1639 0.930 . S
H1632 C1642 0.930 . S
H1633 C1643 0.930 . S
C1634 H1628 0.930 . S
C1634 C1635 1.355 . S
C1634 C1636 1.415 . S
C1635 C1634 1.355 . S
C1635 C1637 1.419 . S
C1636 C1634 1.415 . S
C1636 C1641 1.425 . S
C1636 C1643 1.409 . S
C1637 H1629 0.930 . S
C1637 C1635 1.419 . S
C1637 C1638 1.362 . S
C1638 H1630 0.930 . S
C1638 C1637 1.362 . S
C1638 C1641 1.409 . S
C1639 H1631 0.930 . S
C1639 C1640 1.355 . S
C1639 C1641 1.415 . S
C1640 C1639 1.355 . S
C1640 C1642 1.419 . S
C1641 C1636 1.425 . S
C1641 C1638 1.409 . S
C1641 C1639 1.415 . S
C1642 H1632 0.930 . S
C1642 C1640 1.419 . S
C1642 C1643 1.362 . S
C1643 H1633 0.930 . S
C1643 C1636 1.409 . S
C1643 C1642 1.362 . S
C883 C22 1.703 . S
C888 C723 1.681 . S
C904 N740 1.749 . S
C899 C38 1.913 . S
C920 N642 1.750 . S
C915 C75 1.691 . S
C931 C91 1.362 . S
C936 C667 1.336 . S
C947 C128 1.813 . S
C952 C862 1.803 1_554 S
C963 C197 1.530 . S
C968 N822 1.523 . S
C984 N770 1.673 . S
C979 C144 1.832 . S
C995 C181 1.720 . S
C1000 C796 1.727 . S
C1016 C682 1.762 1_455 S
C1011 C234 1.754 . S
C1032 C727 1.900 . S
C1027 C303 1.904 . S
C1043 C356 1.813 . S
C1048 C706 1.840 . S
C1059 C287 1.909 . S
C1064 C813 1.912 . S
C1080 C843 1.617 . S
C1075 C393 1.631 . S
C1096 N860 1.749 . S
C1091 C409 1.966 . S
C1107 C462 1.842 . S
C1112 N792 1.861 . S
C1128 C757 1.291 1_545 S
C1123 C446 1.269 . S
C1139 C499 1.761 . S
C1144 C742 1.750 . S
C1155 C552 1.434 . S
C1160 N702 1.456 . S
C1176 N680 1.627 . S
C1171 C515 1.748 . S
C1187 C568 1.965 . S
C1192 C646 1.947 1_556 S
C1208 C772 1.879 . S
C1203 C340 1.877 . S
C1224 C847 1.841 . S
C1219 C621 1.844 1_556 S
C1235 C250 1.726 . S
C1240 C826 1.721 . S
C1251 C605 1.877 . S
C1256 C663 1.837 1_655 S
C1272 C637 1.416 . S
C1267 C39 1.418 . S
C1283 C29 0.818 . S
C1288 N672 0.826 . S
C1304 N710 1.251 . S
C1299 C92 1.327 . S
C1320 C753 1.736 . S
C1315 C82 1.627 . S
C1331 C145 1.676 . S
C1336 C652 1.648 . S
C1347 C188 1.446 . S
C1352 C693 1.399 . S
C1368 C697 1.161 . S
C1363 C135 1.193 . S
C1379 C198 1.629 . S
C1384 C736 1.585 . S
C1395 C251 1.125 . S
C1400 N650 1.140 . S
C1416 C712 1.681 . S
C1411 C294 1.625 . S
C1427 C347 1.136 . S
C1432 N732 1.124 . S
C1443 C304 1.647 . S
C1448 C766 1.639 . S
C1464 C787 1.430 . S
C1459 C410 1.430 . S
C1475 C400 0.779 . S
C1480 N762 0.779 . S
C1491 C453 1.068 . S
C1496 N830 1.014 . S
C1507 C463 1.985 . S
C1512 C873 1.988 . S
C1523 C516 1.637 . S
C1528 C802 1.680 . S
C1544 C783 1.764 . S
C1539 C569 1.810 . S
C1555 C506 1.056 . S
C1560 C817 1.096 . S
C1576 C856 1.430 . S
C1571 C559 1.374 . S
C1592 N800 1.015 . S
C1587 C357 1.050 . S
C1608 C832 1.636 . S
C1603 C612 1.601 1_556 S
C1624 N852 1.125 . S
C1619 C241 1.135 . S
C1635 C622 1.554 . S
C1640 C676 1.518 . S
