# Generated by pormake.
# Topology gar, (4,6)-cn, num edge types: 1
# Building blocks:
#     Node 0, Type 0, BuildingBlock: CEKHIL_clean_sbu_0, # of connection points: 4
#     Node 1, Type 0, BuildingBlock: CEKHIL_clean_sbu_0, # of connection points: 4
#     Node 2, Type 0, BuildingBlock: CEKHIL_clean_sbu_0, # of connection points: 4
#     Node 3, Type 0, BuildingBlock: CEKHIL_clean_sbu_0, # of connection points: 4
#     Node 4, Type 0, BuildingBlock: CEKHIL_clean_sbu_0, # of connection points: 4
#     Node 5, Type 0, BuildingBlock: CEKHIL_clean_sbu_0, # of connection points: 4
#     Node 6, Type 0, BuildingBlock: CEKHIL_clean_sbu_0, # of connection points: 4
#     Node 7, Type 0, BuildingBlock: CEKHIL_clean_sbu_0, # of connection points: 4
#     Node 8, Type 0, BuildingBlock: CEKHIL_clean_sbu_0, # of connection points: 4
#     Node 9, Type 0, BuildingBlock: CEKHIL_clean_sbu_0, # of connection points: 4
#     Node 10, Type 0, BuildingBlock: CEKHIL_clean_sbu_0, # of connection points: 4
#     Node 11, Type 0, BuildingBlock: CEKHIL_clean_sbu_0, # of connection points: 4
#     Node 12, Type 0, BuildingBlock: CEKHIL_clean_sbu_0, # of connection points: 4
#     Node 13, Type 0, BuildingBlock: CEKHIL_clean_sbu_0, # of connection points: 4
#     Node 14, Type 0, BuildingBlock: CEKHIL_clean_sbu_0, # of connection points: 4
#     Node 15, Type 0, BuildingBlock: CEKHIL_clean_sbu_0, # of connection points: 4
#     Node 16, Type 0, BuildingBlock: CEKHIL_clean_sbu_0, # of connection points: 4
#     Node 17, Type 0, BuildingBlock: CEKHIL_clean_sbu_0, # of connection points: 4
#     Node 18, Type 0, BuildingBlock: CEKHIL_clean_sbu_0, # of connection points: 4
#     Node 19, Type 0, BuildingBlock: CEKHIL_clean_sbu_0, # of connection points: 4
#     Node 20, Type 0, BuildingBlock: CEKHIL_clean_sbu_0, # of connection points: 4
#     Node 21, Type 0, BuildingBlock: CEKHIL_clean_sbu_0, # of connection points: 4
#     Node 22, Type 0, BuildingBlock: CEKHIL_clean_sbu_0, # of connection points: 4
#     Node 23, Type 0, BuildingBlock: CEKHIL_clean_sbu_0, # of connection points: 4
#     Node 24, Type 1, BuildingBlock: CUWYAW_clean_sbu_0, # of connection points: 6
#     Node 25, Type 1, BuildingBlock: CUWYAW_clean_sbu_0, # of connection points: 6
#     Node 26, Type 1, BuildingBlock: CUWYAW_clean_sbu_0, # of connection points: 6
#     Node 27, Type 1, BuildingBlock: CUWYAW_clean_sbu_0, # of connection points: 6
#     Node 28, Type 1, BuildingBlock: CUWYAW_clean_sbu_0, # of connection points: 6
#     Node 29, Type 1, BuildingBlock: CUWYAW_clean_sbu_0, # of connection points: 6
#     Node 30, Type 1, BuildingBlock: CUWYAW_clean_sbu_0, # of connection points: 6
#     Node 31, Type 1, BuildingBlock: CUWYAW_clean_sbu_0, # of connection points: 6
#     Node 32, Type 1, BuildingBlock: CUWYAW_clean_sbu_0, # of connection points: 6
#     Node 33, Type 1, BuildingBlock: CUWYAW_clean_sbu_0, # of connection points: 6
#     Node 34, Type 1, BuildingBlock: CUWYAW_clean_sbu_0, # of connection points: 6
#     Node 35, Type 1, BuildingBlock: CUWYAW_clean_sbu_0, # of connection points: 6
#     Node 36, Type 1, BuildingBlock: CUWYAW_clean_sbu_0, # of connection points: 6
#     Node 37, Type 1, BuildingBlock: CUWYAW_clean_sbu_0, # of connection points: 6
#     Node 38, Type 1, BuildingBlock: CUWYAW_clean_sbu_0, # of connection points: 6
#     Node 39, Type 1, BuildingBlock: CUWYAW_clean_sbu_0, # of connection points: 6
#     Edge 40, Type (0, 1), BuildingBlock: AJUNOK_clean_linker_0, # of connection points: 2
#     Edge 41, Type (0, 1), BuildingBlock: AJUNOK_clean_linker_0, # of connection points: 2
#     Edge 42, Type (0, 1), BuildingBlock: AJUNOK_clean_linker_0, # of connection points: 2
#     Edge 43, Type (0, 1), BuildingBlock: AJUNOK_clean_linker_0, # of connection points: 2
#     Edge 44, Type (0, 1), BuildingBlock: AJUNOK_clean_linker_0, # of connection points: 2
#     Edge 45, Type (0, 1), BuildingBlock: AJUNOK_clean_linker_0, # of connection points: 2
#     Edge 46, Type (0, 1), BuildingBlock: AJUNOK_clean_linker_0, # of connection points: 2
#     Edge 47, Type (0, 1), BuildingBlock: AJUNOK_clean_linker_0, # of connection points: 2
#     Edge 48, Type (0, 1), BuildingBlock: AJUNOK_clean_linker_0, # of connection points: 2
#     Edge 49, Type (0, 1), BuildingBlock: AJUNOK_clean_linker_0, # of connection points: 2
#     Edge 50, Type (0, 1), BuildingBlock: AJUNOK_clean_linker_0, # of connection points: 2
#     Edge 51, Type (0, 1), BuildingBlock: AJUNOK_clean_linker_0, # of connection points: 2
#     Edge 52, Type (0, 1), BuildingBlock: AJUNOK_clean_linker_0, # of connection points: 2
#     Edge 53, Type (0, 1), BuildingBlock: AJUNOK_clean_linker_0, # of connection points: 2
#     Edge 54, Type (0, 1), BuildingBlock: AJUNOK_clean_linker_0, # of connection points: 2
#     Edge 55, Type (0, 1), BuildingBlock: AJUNOK_clean_linker_0, # of connection points: 2
#     Edge 56, Type (0, 1), BuildingBlock: AJUNOK_clean_linker_0, # of connection points: 2
#     Edge 57, Type (0, 1), BuildingBlock: AJUNOK_clean_linker_0, # of connection points: 2
#     Edge 58, Type (0, 1), BuildingBlock: AJUNOK_clean_linker_0, # of connection points: 2
#     Edge 59, Type (0, 1), BuildingBlock: AJUNOK_clean_linker_0, # of connection points: 2
#     Edge 60, Type (0, 1), BuildingBlock: AJUNOK_clean_linker_0, # of connection points: 2
#     Edge 61, Type (0, 1), BuildingBlock: AJUNOK_clean_linker_0, # of connection points: 2
#     Edge 62, Type (0, 1), BuildingBlock: AJUNOK_clean_linker_0, # of connection points: 2
#     Edge 63, Type (0, 1), BuildingBlock: AJUNOK_clean_linker_0, # of connection points: 2
#     Edge 64, Type (0, 1), BuildingBlock: AJUNOK_clean_linker_0, # of connection points: 2
#     Edge 65, Type (0, 1), BuildingBlock: AJUNOK_clean_linker_0, # of connection points: 2
#     Edge 66, Type (0, 1), BuildingBlock: AJUNOK_clean_linker_0, # of connection points: 2
#     Edge 67, Type (0, 1), BuildingBlock: AJUNOK_clean_linker_0, # of connection points: 2
#     Edge 68, Type (0, 1), BuildingBlock: AJUNOK_clean_linker_0, # of connection points: 2
#     Edge 69, Type (0, 1), BuildingBlock: AJUNOK_clean_linker_0, # of connection points: 2
#     Edge 70, Type (0, 1), BuildingBlock: AJUNOK_clean_linker_0, # of connection points: 2
#     Edge 71, Type (0, 1), BuildingBlock: AJUNOK_clean_linker_0, # of connection points: 2
#     Edge 72, Type (0, 1), BuildingBlock: AJUNOK_clean_linker_0, # of connection points: 2
#     Edge 73, Type (0, 1), BuildingBlock: AJUNOK_clean_linker_0, # of connection points: 2
#     Edge 74, Type (0, 1), BuildingBlock: AJUNOK_clean_linker_0, # of connection points: 2
#     Edge 75, Type (0, 1), BuildingBlock: AJUNOK_clean_linker_0, # of connection points: 2
#     Edge 76, Type (0, 1), BuildingBlock: AJUNOK_clean_linker_0, # of connection points: 2
#     Edge 77, Type (0, 1), BuildingBlock: AJUNOK_clean_linker_0, # of connection points: 2
#     Edge 78, Type (0, 1), BuildingBlock: AJUNOK_clean_linker_0, # of connection points: 2
#     Edge 79, Type (0, 1), BuildingBlock: AJUNOK_clean_linker_0, # of connection points: 2
#     Edge 80, Type (0, 1), BuildingBlock: AJUNOK_clean_linker_0, # of connection points: 2
#     Edge 81, Type (0, 1), BuildingBlock: AJUNOK_clean_linker_0, # of connection points: 2
#     Edge 82, Type (0, 1), BuildingBlock: AJUNOK_clean_linker_0, # of connection points: 2
#     Edge 83, Type (0, 1), BuildingBlock: AJUNOK_clean_linker_0, # of connection points: 2
#     Edge 84, Type (0, 1), BuildingBlock: AJUNOK_clean_linker_0, # of connection points: 2
#     Edge 85, Type (0, 1), BuildingBlock: AJUNOK_clean_linker_0, # of connection points: 2
#     Edge 86, Type (0, 1), BuildingBlock: AJUNOK_clean_linker_0, # of connection points: 2
#     Edge 87, Type (0, 1), BuildingBlock: AJUNOK_clean_linker_0, # of connection points: 2
#     Edge 88, Type (0, 1), BuildingBlock: AJUNOK_clean_linker_0, # of connection points: 2
#     Edge 89, Type (0, 1), BuildingBlock: AJUNOK_clean_linker_0, # of connection points: 2
#     Edge 90, Type (0, 1), BuildingBlock: AJUNOK_clean_linker_0, # of connection points: 2
#     Edge 91, Type (0, 1), BuildingBlock: AJUNOK_clean_linker_0, # of connection points: 2
#     Edge 92, Type (0, 1), BuildingBlock: AJUNOK_clean_linker_0, # of connection points: 2
#     Edge 93, Type (0, 1), BuildingBlock: AJUNOK_clean_linker_0, # of connection points: 2
#     Edge 94, Type (0, 1), BuildingBlock: AJUNOK_clean_linker_0, # of connection points: 2
#     Edge 95, Type (0, 1), BuildingBlock: AJUNOK_clean_linker_0, # of connection points: 2
#     Edge 96, Type (0, 1), BuildingBlock: AJUNOK_clean_linker_0, # of connection points: 2
#     Edge 97, Type (0, 1), BuildingBlock: AJUNOK_clean_linker_0, # of connection points: 2
#     Edge 98, Type (0, 1), BuildingBlock: AJUNOK_clean_linker_0, # of connection points: 2
#     Edge 99, Type (0, 1), BuildingBlock: AJUNOK_clean_linker_0, # of connection points: 2
#     Edge 100, Type (0, 1), BuildingBlock: AJUNOK_clean_linker_0, # of connection points: 2
#     Edge 101, Type (0, 1), BuildingBlock: AJUNOK_clean_linker_0, # of connection points: 2
#     Edge 102, Type (0, 1), BuildingBlock: AJUNOK_clean_linker_0, # of connection points: 2
#     Edge 103, Type (0, 1), BuildingBlock: AJUNOK_clean_linker_0, # of connection points: 2
#     Edge 104, Type (0, 1), BuildingBlock: AJUNOK_clean_linker_0, # of connection points: 2
#     Edge 105, Type (0, 1), BuildingBlock: AJUNOK_clean_linker_0, # of connection points: 2
#     Edge 106, Type (0, 1), BuildingBlock: AJUNOK_clean_linker_0, # of connection points: 2
#     Edge 107, Type (0, 1), BuildingBlock: AJUNOK_clean_linker_0, # of connection points: 2
#     Edge 108, Type (0, 1), BuildingBlock: AJUNOK_clean_linker_0, # of connection points: 2
#     Edge 109, Type (0, 1), BuildingBlock: AJUNOK_clean_linker_0, # of connection points: 2
#     Edge 110, Type (0, 1), BuildingBlock: AJUNOK_clean_linker_0, # of connection points: 2
#     Edge 111, Type (0, 1), BuildingBlock: AJUNOK_clean_linker_0, # of connection points: 2
#     Edge 112, Type (0, 1), BuildingBlock: AJUNOK_clean_linker_0, # of connection points: 2
#     Edge 113, Type (0, 1), BuildingBlock: AJUNOK_clean_linker_0, # of connection points: 2
#     Edge 114, Type (0, 1), BuildingBlock: AJUNOK_clean_linker_0, # of connection points: 2
#     Edge 115, Type (0, 1), BuildingBlock: AJUNOK_clean_linker_0, # of connection points: 2
#     Edge 116, Type (0, 1), BuildingBlock: AJUNOK_clean_linker_0, # of connection points: 2
#     Edge 117, Type (0, 1), BuildingBlock: AJUNOK_clean_linker_0, # of connection points: 2
#     Edge 118, Type (0, 1), BuildingBlock: AJUNOK_clean_linker_0, # of connection points: 2
#     Edge 119, Type (0, 1), BuildingBlock: AJUNOK_clean_linker_0, # of connection points: 2
#     Edge 120, Type (0, 1), BuildingBlock: AJUNOK_clean_linker_0, # of connection points: 2
#     Edge 121, Type (0, 1), BuildingBlock: AJUNOK_clean_linker_0, # of connection points: 2
#     Edge 122, Type (0, 1), BuildingBlock: AJUNOK_clean_linker_0, # of connection points: 2
#     Edge 123, Type (0, 1), BuildingBlock: AJUNOK_clean_linker_0, # of connection points: 2
#     Edge 124, Type (0, 1), BuildingBlock: AJUNOK_clean_linker_0, # of connection points: 2
#     Edge 125, Type (0, 1), BuildingBlock: AJUNOK_clean_linker_0, # of connection points: 2
#     Edge 126, Type (0, 1), BuildingBlock: AJUNOK_clean_linker_0, # of connection points: 2
#     Edge 127, Type (0, 1), BuildingBlock: AJUNOK_clean_linker_0, # of connection points: 2
#     Edge 128, Type (0, 1), BuildingBlock: AJUNOK_clean_linker_0, # of connection points: 2
#     Edge 129, Type (0, 1), BuildingBlock: AJUNOK_clean_linker_0, # of connection points: 2
#     Edge 130, Type (0, 1), BuildingBlock: AJUNOK_clean_linker_0, # of connection points: 2
#     Edge 131, Type (0, 1), BuildingBlock: AJUNOK_clean_linker_0, # of connection points: 2
#     Edge 132, Type (0, 1), BuildingBlock: AJUNOK_clean_linker_0, # of connection points: 2
#     Edge 133, Type (0, 1), BuildingBlock: AJUNOK_clean_linker_0, # of connection points: 2
#     Edge 134, Type (0, 1), BuildingBlock: AJUNOK_clean_linker_0, # of connection points: 2
#     Edge 135, Type (0, 1), BuildingBlock: AJUNOK_clean_linker_0, # of connection points: 2
# Relax obj value: 0.275
# Max RMSD: 0.346
# Mean RMSD: 0.161
data_MOF--net-gar--node1-CEKHIL_clean_sbu_0--node2-CUWYAW_clean_sbu_0--edge1-AJUNOK_clean_linker_0
_symmetry_space_group_name_H-M    P1
_symmetry_Int_Tables_number       1
_symmetry_cell_setting            triclinic
loop_
_symmetry_equiv_pos_as_xyz
'x, y, z'
_cell_length_a     50.703989
_cell_length_b     39.82488
_cell_length_c     39.16182
_cell_angle_alpha  98.190117
_cell_angle_beta   96.518093
_cell_angle_gamma 98.525611
loop_
_atom_site_label
_atom_site_type_symbol
_atom_site_fract_x
_atom_site_fract_y
_atom_site_fract_z
_atom_type_partial_charge
Co0 Co 0.14441 0.38711 0.4856 0.0
O1 O 0.17757 0.3834 0.46692 0.0
O2 O 0.13639 0.36683 0.43785 0.0
C3 C 0.1547 0.4406 0.51594 0.0
O4 O 0.10564 0.38589 0.49296 0.0
Co5 Co 0.13874 0.39586 0.56383 0.0
O6 O 0.09904 0.38897 0.54887 0.0
C7 C 0.15289 0.33309 0.52907 0.0
C8 C 0.1621 0.36796 0.43838 0.0
C9 C 0.09019 0.38546 0.51657 0.0
O10 O 0.14413 0.34064 0.49953 0.0
O11 O 0.15749 0.35515 0.55703 0.0
O12 O 0.14718 0.43599 0.48238 0.0
O13 O 0.15861 0.41349 0.52868 0.0
Co14 Co 1.03018 0.75119 0.71265 0.0
O15 O 0.99919 0.76923 0.72521 0.0
O16 O 1.02824 0.74981 0.7614 0.0
C17 C 0.04598 0.79232 0.68368 0.0
O18 O 0.0653 0.73342 0.70789 0.0
Co19 Co 1.03475 0.73117 0.63078 0.0
O20 O 0.07263 0.73033 0.65145 0.0
C21 C 0.99936 0.69415 0.66579 0.0
C22 C 1.00739 0.765 0.75665 0.0
C23 C 0.08052 0.73027 0.68372 0.0
O24 O 1.00932 0.70351 0.69781 0.0
O25 O 0.999 0.71751 0.64699 0.0
O26 O 0.05022 0.79757 0.71753 0.0
O27 O 1.02927 0.76508 0.66926 0.0
Co28 Co 0.64105 0.87277 0.9871 0.0
O29 O 0.67287 0.86688 0.96574 0.0
O30 O 0.63096 0.84203 0.94423 0.0
C31 C 0.64881 0.92985 1.00351 0.0
O32 O 0.60306 0.87149 0.99817 0.0
Co33 Co 0.63923 0.90068 0.06419 0.0
O34 O 0.59918 0.89474 0.05226 0.0
C35 C 0.65574 0.8341 0.04465 0.0
C36 C 0.65635 0.84576 0.9413 0.0
C37 C 0.58862 0.88006 1.02169 0.0
O38 O 0.64612 0.83387 1.01279 0.0
O39 O 0.65814 0.86049 0.06825 0.0
O40 O 0.63946 0.91673 0.97119 0.0
O41 O 0.65605 0.90851 1.02302 0.0
Co42 Co 0.53526 0.24672 0.23898 0.0
O43 O 0.50362 0.25575 0.25826 0.0
O44 O 0.53954 0.24173 0.28751 0.0
C45 C 0.54112 0.29256 0.21199 0.0
O46 O 0.57157 0.23732 0.22696 0.0
Co47 Co 0.53379 0.23518 0.15542 0.0
O48 O 0.57331 0.23738 0.16923 0.0
C49 C 0.50624 0.1898 0.19155 0.0
C50 C 0.51618 0.25152 0.28767 0.0
C51 C 0.58417 0.23651 0.20017 0.0
O52 O 0.51951 0.19717 0.22217 0.0
O53 O 0.50178 0.21472 0.17617 0.0
O54 O 0.54898 0.29589 0.24525 0.0
O55 O 0.52724 0.26324 0.19763 0.0
Co56 Co 0.12311 0.83472 0.2191 0.0
O57 O 0.08419 0.83222 0.21174 0.0
O58 O 0.10668 0.82368 0.2601 0.0
C59 C 0.13056 0.88482 0.19586 0.0
O60 O 0.16355 0.83584 0.23825 0.0
Co61 Co 0.15751 0.83261 0.16034 0.0
O62 O 0.18942 0.83566 0.19537 0.0
C63 C 0.12442 0.76829 0.17031 0.0
C64 C 0.08346 0.82525 0.24297 0.0
C65 C 0.18673 0.83544 0.22723 0.0
O66 O 0.11866 0.78394 0.199 0.0
O67 O 0.13815 0.78384 0.15003 0.0
O68 O 0.12764 0.88537 0.22849 0.0
O69 O 0.1289 0.85436 0.17832 0.0
Co70 Co 0.53429 0.7845 0.47608 0.0
O71 O 0.57339 0.7921 0.48416 0.0
O72 O 0.54979 0.77092 0.43323 0.0
C73 C 0.53156 0.83725 0.50497 0.0
O74 O 0.49304 0.77569 0.45711 0.0
Co75 Co 0.50069 0.78414 0.53591 0.0
O76 O 0.47168 0.79316 0.5019 0.0
C77 C 0.52684 0.72415 0.51698 0.0
C78 C 0.57351 0.78116 0.45147 0.0
C79 C 0.47185 0.7847 0.46937 0.0
O80 O 0.53381 0.73679 0.49005 0.0
O81 O 0.51444 0.73982 0.53933 0.0
O82 O 0.53501 0.83299 0.4724 0.0
O83 O 0.53102 0.81006 0.5196 0.0
Co84 Co 0.62232 0.33179 0.71972 0.0
O85 O 0.58317 0.32691 0.71164 0.0
O86 O 0.60621 0.32063 0.76064 0.0
C87 C 0.62815 0.38116 0.69535 0.0
O88 O 0.66267 0.33584 0.74023 0.0
Co89 Co 0.65864 0.33187 0.66271 0.0
O90 O 0.69005 0.33731 0.69909 0.0
C91 C 0.62681 0.2662 0.6719 0.0
C92 C 0.5828 0.32062 0.74321 0.0
C93 C 0.68642 0.33735 0.73068 0.0
O94 O 0.61992 0.28103 0.70029 0.0
O95 O 0.64031 0.2827 0.65207 0.0
O96 O 0.62481 0.38225 0.72792 0.0
O97 O 0.62816 0.35072 0.67878 0.0
Co98 Co 1.03253 0.28414 0.97219 0.0
O99 O 0.07153 0.29085 0.98164 0.0
O100 O 0.04871 0.26739 0.93084 0.0
C101 C 1.03029 0.33882 0.99707 0.0
O102 O 0.99154 0.27547 0.95202 0.0
Co103 Co 0.9982 0.28959 0.03157 0.0
O104 O 0.96901 0.29411 0.99526 0.0
C105 C 1.02687 0.2305 1.02014 0.0
C106 C 0.0722 0.2781 0.94955 0.0
C107 C 0.9698 0.28401 0.96311 0.0
O108 O 1.03068 0.23786 0.98975 0.0
O109 O 1.01615 0.24965 0.04179 0.0
O110 O 1.03463 0.3319 0.965 0.0
O111 O 1.02876 0.31294 1.01372 0.0
Co112 Co 0.45163 0.0792 0.34698 0.0
O113 O 0.45339 0.13195 0.35276 0.0
O114 O 0.41688 0.09692 0.33458 0.0
C115 C 0.47926 0.07528 0.40132 0.0
O116 O 0.43301 1.0268 0.34108 0.0
Co117 Co 0.49188 1.02957 0.34349 0.0
O118 O 0.4624 0.99043 0.34427 0.0
C119 C 0.48335 0.06271 0.28128 0.0
C120 C 0.42749 0.129 0.34305 0.0
C121 C 0.43816 0.99573 0.34166 0.0
O122 O 0.46304 0.07511 0.29468 0.0
O123 O 0.49825 0.04601 0.29856 0.0
O124 O 0.45472 0.08185 0.40029 0.0
O125 O 0.48632 0.07268 0.37058 0.0
Co126 Co 0.28323 0.18202 0.56225 0.0
O127 O 0.3225 0.18995 0.56609 0.0
O128 O 0.29826 0.14143 0.57249 0.0
C129 C 0.27802 0.20638 0.51232 0.0
O130 O 0.2424 0.16189 0.55956 0.0
Co131 Co 0.24878 0.23896 0.56426 0.0
O132 O 0.21655 0.20307 0.55949 0.0
C133 C 0.27914 0.22828 0.62979 0.0
C134 C 0.32207 0.15867 0.57209 0.0
C135 C 0.2191 0.17175 0.55918 0.0
O136 O 0.28569 0.20065 0.61392 0.0
O137 O 0.2663 0.24818 0.61396 0.0
O138 O 0.28095 0.17434 0.51105 0.0
O139 O 0.27848 0.22267 0.54342 0.0
Co140 Co 0.20909 1.03055 0.86994 0.0
O141 O 0.20711 0.9775 0.86456 0.0
O142 O 0.24272 1.01063 0.85948 0.0
C143 C 0.18598 0.03824 0.92301 0.0
O144 O 0.22859 0.08319 0.87366 0.0
Co145 Co 0.17186 0.08246 0.87416 0.0
O146 O 0.20165 0.12239 0.87819 0.0
C147 C 0.17232 0.04383 0.80337 0.0
C148 C 0.23233 0.97907 0.85968 0.0
C149 C 0.22509 0.11541 0.87576 0.0
O150 O 0.19255 1.02952 0.81619 0.0
O151 O 0.16088 0.06349 0.82353 0.0
O152 O 0.21084 0.03292 0.92353 0.0
O153 O 0.17614 0.03942 0.89141 0.0
Co154 Co 0.2646 0.91281 0.04122 0.0
O155 O 0.23208 0.93106 0.04698 0.0
O156 O 0.27348 0.9565 0.07047 0.0
C157 C 0.2575 0.89401 0.98382 0.0
O158 O 0.30266 0.90415 0.04136 0.0
Co159 Co 0.26724 0.83523 1.01448 0.0
O160 O 0.30726 0.85024 1.02064 0.0
C161 C 0.25006 0.85698 0.07841 0.0
C162 C 0.24784 0.95714 0.06676 0.0
C163 C 0.31733 0.88149 0.03326 0.0
O164 O 0.26104 0.88857 0.082 0.0
O165 O 0.24045 0.84087 0.04812 0.0
O166 O 0.26583 0.92666 0.99544 0.0
O167 O 0.25067 0.87537 1.00665 0.0
Co168 Co 0.36487 0.42549 0.11844 0.0
O169 O 0.32559 0.41683 0.11316 0.0
O170 O 0.35001 0.46619 0.13757 0.0
C171 C 0.36638 0.40234 0.0621 0.0
O172 O 0.40627 0.44527 0.12579 0.0
Co173 Co 0.39821 0.3671 0.10697 0.0
O174 O 0.42734 0.404 0.10143 0.0
C175 C 0.37316 0.37734 0.17191 0.0
C176 C 0.32602 0.44856 0.12666 0.0
C177 C 0.42745 0.43522 0.11432 0.0
O178 O 0.36662 0.40611 0.16457 0.0
O179 O 0.3839 0.35763 0.15088 0.0
O180 O 0.36294 0.43399 0.07026 0.0
O181 O 0.36763 0.38535 0.08776 0.0
Co182 Co 0.87533 0.16231 0.14916 0.0
O183 O 0.90713 0.14778 0.13528 0.0
O184 O 0.87556 0.11489 0.15609 0.0
C185 C 0.86362 0.18602 0.10254 0.0
O186 O 0.83927 0.17076 0.16381 0.0
Co187 Co 0.87487 0.24456 0.15885 0.0
O188 O 0.83612 0.22677 0.16073 0.0
C189 C 0.90518 0.21294 0.20341 0.0
C190 C 0.89776 0.11777 0.14206 0.0
C191 C 0.82603 0.19615 0.1641 0.0
O192 O 0.89357 0.18157 0.19746 0.0
O193 O 0.90831 0.22783 0.1773 0.0
O194 O 0.85809 0.15286 0.10086 0.0
O195 O 0.87936 0.20239 0.12982 0.0
Co196 Co 0.19704 0.52644 0.3646 0.0
O197 O 0.19398 0.47372 0.36178 0.0
O198 O 0.23022 0.50525 0.35538 0.0
C199 C 0.17478 0.53708 0.41714 0.0
O200 O 0.21651 0.57842 0.36641 0.0
Co201 Co 0.15948 0.57858 0.36666 0.0
O202 O 0.19016 0.61782 0.37606 0.0
C203 C 0.15934 0.53637 0.29742 0.0
C204 C 0.21918 0.47429 0.3572 0.0
C205 C 0.21324 0.61065 0.37148 0.0
O206 O 0.17996 0.52307 0.31079 0.0
O207 O 0.14796 0.55697 0.31666 0.0
O208 O 0.19962 0.5317 0.41818 0.0
O209 O 0.16451 0.53659 0.38538 0.0
Co210 Co 0.86535 0.92444 0.61887 0.0
O211 O 0.82608 0.91512 0.6138 0.0
O212 O 0.84997 0.96521 0.63672 0.0
C213 C 0.86652 0.89987 0.56288 0.0
O214 O 0.90667 0.94487 0.62559 0.0
Co215 Co 0.89933 0.86691 0.60945 0.0
O216 O 0.928 0.90352 0.60208 0.0
C217 C 0.87522 0.87908 0.67482 0.0
C218 C 0.82611 0.94702 0.62622 0.0
C219 C 0.9279 0.93488 0.61418 0.0
O220 O 0.86758 0.90668 0.66586 0.0
O221 O 0.88652 0.8591 0.65474 0.0
O222 O 0.86302 0.93156 0.57036 0.0
O223 O 0.86824 0.8836 0.5891 0.0
Co224 Co 0.95221 0.06954 0.33569 0.0
O225 O 0.95659 0.12245 0.34318 0.0
O226 O 0.91909 0.09035 0.32246 0.0
C227 C 0.97661 0.06454 0.39098 0.0
O228 O 0.93132 1.01691 0.32889 0.0
Co229 Co 0.98967 1.01747 0.33427 0.0
O230 O 0.95972 0.98098 0.34011 0.0
C231 C 0.98663 0.05257 0.27231 0.0
C232 C 0.93104 0.12174 0.33305 0.0
C233 C 0.93558 0.98613 0.33421 0.0
O234 O 0.96651 0.06655 0.28462 0.0
O235 O 0.9988 0.03326 0.28982 0.0
O236 O 0.9524 0.07216 0.38806 0.0
O237 O 0.98548 0.06122 0.3613 0.0
Co238 Co 0.38005 0.66705 0.64607 0.0
O239 O 0.41287 0.65162 0.63784 0.0
O240 O 0.37759 0.61926 0.65214 0.0
C241 C 0.37385 0.69283 0.5997 0.0
O242 O 0.34242 0.67585 0.65469 0.0
Co243 Co 0.38045 0.74874 0.65802 0.0
O244 O 0.34105 0.73275 0.65691 0.0
C245 C 0.40645 0.71544 0.70569 0.0
C246 C 0.40179 0.6218 0.64344 0.0
C247 C 0.32961 0.70174 0.65645 0.0
O248 O 0.39441 0.68436 0.69626 0.0
O249 O 0.41234 0.73271 0.68198 0.0
O250 O 0.36751 0.65956 0.59634 0.0
O251 O 0.38748 0.70802 0.62898 0.0
Co252 Co 0.45237 0.57207 0.83738 0.0
O253 O 0.45667 0.6251 0.84536 0.0
O254 O 0.41911 0.5933 0.82493 0.0
C255 C 0.47697 0.56674 0.89255 0.0
O256 O 0.43113 0.51959 0.83045 0.0
Co257 Co 0.48942 0.51948 0.83545 0.0
O258 O 0.4592 0.4831 0.84098 0.0
C259 C 0.4871 0.5549 0.77382 0.0
C260 C 0.43103 0.62462 0.83598 0.0
C261 C 0.43512 0.48862 0.83539 0.0
O262 O 0.46695 0.569 0.78616 0.0
O263 O 0.49912 0.5354 0.79124 0.0
O264 O 0.45282 0.57449 0.88981 0.0
O265 O 0.48567 0.56336 0.86276 0.0
Co266 Co 0.69481 1.0265 0.86089 0.0
O267 O 0.69187 0.97374 0.85882 0.0
O268 O 0.72814 1.00515 0.85262 0.0
C269 C 0.67163 0.03791 0.91247 0.0
O270 O 0.71454 0.07845 0.86252 0.0
Co271 Co 0.65724 0.0788 0.86104 0.0
O272 O 0.68803 0.11791 0.87064 0.0
C273 C 0.65824 0.03605 0.79262 0.0
C274 C 0.71715 0.97423 0.85465 0.0
C275 C 0.71125 0.11071 0.86695 0.0
O276 O 0.67844 1.0226 0.80688 0.0
O277 O 0.64665 0.05711 0.81095 0.0
O278 O 0.69647 1.03236 0.91435 0.0
O279 O 0.66185 0.03704 0.88047 0.0
Co280 Co 0.78458 0.67972 0.06198 0.0
O281 O 0.82395 0.68753 0.0654 0.0
O282 O 0.79956 0.63904 0.07161 0.0
C283 C 0.77841 0.70455 1.01251 0.0
O284 O 0.7439 0.65931 0.05991 0.0
Co285 Co 0.7495 0.73614 0.06531 0.0
O286 O 0.71746 0.69986 0.06029 0.0
C287 C 0.78233 0.72666 0.12952 0.0
C288 C 0.8234 0.65613 0.0712 0.0
C289 C 0.72043 0.66866 0.05967 0.0
O290 O 0.78763 0.69823 0.11367 0.0
O291 O 0.76922 0.7465 0.11396 0.0
O292 O 0.78184 0.67261 1.01067 0.0
O293 O 0.77918 0.72045 0.04381 0.0
Co294 Co 0.95288 0.58273 0.85123 0.0
O295 O 0.95544 0.63554 0.85703 0.0
O296 O 0.91856 0.60141 0.83826 0.0
C297 C 0.98004 0.57838 0.90569 0.0
O298 O 0.93354 0.53046 0.84546 0.0
Co299 Co 0.99233 0.53195 0.84833 0.0
O300 O 0.96241 0.49356 0.8499 0.0
C301 C 0.98579 0.56639 0.78674 0.0
C302 C 0.92965 0.6333 0.84697 0.0
C303 C 0.93827 0.49929 0.84698 0.0
O304 O 0.96513 0.57863 0.79937 0.0
O305 O 1.00012 0.54922 0.80423 0.0
O306 O 0.95564 0.58547 0.90454 0.0
O307 O 0.98717 0.57546 0.87503 0.0
Co308 Co 0.7721 0.43549 0.52518 0.0
O309 O 0.74056 0.45727 0.52288 0.0
O310 O 0.78209 0.4832 0.54443 0.0
C311 C 0.76472 0.40443 0.47126 0.0
O312 O 0.80991 0.42455 0.532 0.0
Co313 Co 0.77216 0.35728 0.51873 0.0
O314 O 0.81235 0.36848 0.52636 0.0
C315 C 0.75506 0.39489 0.57949 0.0
C316 C 0.75682 0.48528 0.53797 0.0
C317 C 0.8236 0.39995 0.53227 0.0
O318 O 0.76608 0.4236 0.57199 0.0
O319 O 0.75045 0.36694 0.55757 0.0
O320 O 0.77482 0.43709 0.47608 0.0
O321 O 0.75698 0.39298 0.49818 0.0
Co322 Co 0.70996 0.52848 0.36861 0.0
O323 O 0.70854 0.47535 0.36262 0.0
O324 O 0.74391 0.50928 0.3585 0.0
C325 C 0.68665 0.53601 0.42148 0.0
O326 O 0.72952 0.58116 0.37306 0.0
Co327 Co 0.67261 0.57997 0.3716 0.0
O328 O 0.70236 0.62011 0.37598 0.0
C329 C 0.67359 0.54127 0.30137 0.0
C330 C 0.7339 0.47754 0.3582 0.0
C331 C 0.72597 0.6133 0.37464 0.0
O332 O 0.69405 0.52775 0.31481 0.0
O333 O 0.6616 0.56075 0.32091 0.0
O334 O 0.71135 0.5301 0.42189 0.0
O335 O 0.67669 0.53724 0.3899 0.0
C336 C 0.14112 0.11193 0.16226 0.0
Eu337 Eu 0.09968 0.07629 0.11995 0.0
C338 C 0.16947 0.10702 0.16342 0.0
C339 C 0.17915 0.08528 0.18543 0.0
C340 C 0.19879 0.06619 0.17571 0.0
C341 C 0.20938 0.06974 0.14466 0.0
C342 C 0.2036 0.09621 0.12656 0.0
C343 C 0.18376 0.11502 0.13603 0.0
C344 C 0.0508 0.06701 0.1492 0.0
C345 C 0.10351 0.99894 0.12644 0.0
C346 C 1.02404 0.99584 0.04082 0.0
Eu347 Eu 0.06822 1.03242 0.07568 0.0
C348 C 0.99813 0.99138 0.05451 0.0
C349 C 0.97432 0.99186 0.0328 0.0
C350 C 0.95197 1.0013 0.04725 0.0
C351 C 0.95344 1.01115 0.08355 0.0
C352 C 0.9761 1.00636 0.10525 0.0
C353 C 0.99822 0.99637 0.09082 0.0
C354 C 0.11664 0.0402 0.04458 0.0
C355 C 0.06478 0.11203 0.07138 0.0
O356 O 0.13066 0.12213 0.13439 0.0
O357 O 0.1249 0.08673 0.17051 0.0
O358 O 0.06499 0.09606 0.14642 0.0
O359 O 0.06208 0.04363 0.13333 0.0
O360 O 0.11875 1.02881 0.12744 0.0
O361 O 0.07891 0.99475 0.11059 0.0
O362 O 0.0431 0.9822 0.05593 0.0
O363 O 1.03261 1.02742 0.03716 0.0
O364 O 0.10031 1.01196 0.04467 0.0
O365 O 0.10651 0.06412 0.06197 0.0
O366 O 0.0508 0.08073 0.06525 0.0
O367 O 0.08809 0.1173 0.09075 0.0
H368 H 0.16904 0.07946 0.20733 0.0
H369 H 0.20332 0.04594 0.19008 0.0
H370 H 0.21182 0.09934 0.10263 0.0
H371 H 0.17733 0.13243 0.11914 0.0
H372 H 0.97386 0.98832 1.00477 0.0
H373 H 0.9346 1.00444 0.02991 0.0
H374 H 0.97807 1.01406 0.1332 0.0
H375 H 1.01642 0.99626 0.10816 0.0
C376 C 0.30412 0.83853 0.44055 0.0
Eu377 Eu 0.31639 0.82021 0.37898 0.0
C378 C 0.30969 0.81842 0.46789 0.0
C379 C 0.29989 0.82325 0.49996 0.0
C380 C 0.30583 0.80205 0.52448 0.0
C381 C 0.32085 0.77578 0.51618 0.0
C382 C 0.33031 0.77113 0.48408 0.0
C383 C 0.32501 0.79247 0.46036 0.0
C384 C 0.28581 0.82838 0.31935 0.0
C385 C 0.29293 0.73631 0.35929 0.0
C386 C 0.34873 0.76264 0.26466 0.0
Eu387 Eu 0.33483 0.78507 0.32466 0.0
C388 C 0.3415 0.77231 0.23057 0.0
C389 C 0.32382 0.74845 0.20526 0.0
C390 C 0.3093 0.75969 0.17802 0.0
C391 C 0.31274 0.79483 0.17551 0.0
C392 C 0.3326 0.81804 0.19861 0.0
C393 C 0.34689 0.8069 0.22604 0.0
C394 C 0.36675 0.77968 0.38445 0.0
C395 C 0.35753 0.86893 0.34396 0.0
O396 O 0.32576 0.853 0.42983 0.0
O397 O 0.28634 0.82196 0.41471 0.0
O398 O 0.29452 0.85219 0.34598 0.0
O399 O 0.29395 0.80069 0.3249 0.0
O400 O 0.29786 0.76395 0.38384 0.0
O401 O 0.30389 0.73864 0.33059 0.0
O402 O 0.32843 0.74734 0.27736 0.0
O403 O 0.36423 0.78601 0.28802 0.0
O404 O 0.35747 0.75469 0.35922 0.0
O405 O 0.35767 0.80631 0.37767 0.0
O406 O 0.35245 0.84137 0.31913 0.0
O407 O 0.34653 0.86684 0.37266 0.0
H408 H 0.28805 0.84327 0.50601 0.0
H409 H 0.29894 0.80614 0.5497 0.0
H410 H 0.34255 0.75156 0.47778 0.0
H411 H 0.33315 0.78883 0.43603 0.0
H412 H 0.31935 0.72167 0.20836 0.0
H413 H 0.29397 0.74129 0.16067 0.0
H414 H 0.33603 0.84515 0.19656 0.0
H415 H 0.36057 0.82589 0.245 0.0
C416 C 0.49749 0.06388 0.62281 0.0
Eu417 Eu 0.54588 0.05251 0.61154 0.0
C418 C 0.47309 0.07854 0.6106 0.0
C419 C 0.4513 0.05821 0.58763 0.0
C420 C 0.42707 0.07071 0.57999 0.0
C421 C 0.42372 0.1038 0.59535 0.0
C422 C 0.44579 0.12441 0.61754 0.0
C423 C 0.46998 0.11195 0.62517 0.0
C424 C 0.58629 0.03806 0.66159 0.0
C425 C 0.59111 0.11993 0.61755 0.0
C426 C 0.64869 0.0355 0.56862 0.0
Eu427 Eu 0.59966 0.04631 0.5778 0.0
C428 C 0.67426 1.0251 0.58402 0.0
C429 C 0.6993 0.04433 0.58104 0.0
C430 C 0.7237 0.03317 0.59126 0.0
C431 C 0.72401 1.00233 0.60503 0.0
C432 C 0.69886 0.98342 0.60866 0.0
C433 C 0.67442 0.99459 0.59835 0.0
C434 C 0.559 0.05889 0.52632 0.0
C435 C 0.55499 0.97891 0.57425 0.0
O436 O 0.50215 0.03514 0.60555 0.0
O437 O 0.51975 0.08522 0.63561 0.0
O438 O 0.56146 0.03994 0.66591 0.0
O439 O 0.58737 0.04223 0.63006 0.0
O440 O 0.56504 0.10798 0.61398 0.0
O441 O 0.60873 0.09982 0.60931 0.0
O442 O 0.64305 0.06573 0.58041 0.0
O443 O 0.62704 1.01203 0.55995 0.0
O444 O 0.58369 0.05547 0.52249 0.0
O445 O 0.55768 0.0562 0.55836 0.0
O446 O 0.58101 0.99123 0.57838 0.0
O447 O 0.53678 0.99868 0.58054 0.0
H448 H 0.45271 1.03228 0.57608 0.0
H449 H 0.41086 0.05428 0.56213 0.0
H450 H 0.44409 0.14994 0.62999 0.0
H451 H 0.48604 0.12825 0.64339 0.0
H452 H 0.70001 0.06763 0.56962 0.0
H453 H 0.74231 0.04816 0.58702 0.0
H454 H 0.69803 0.95964 0.61919 0.0
H455 H 0.65562 0.97889 0.60091 0.0
C456 C 0.40247 0.27066 0.83668 0.0
Eu457 Eu 0.35457 0.28403 0.84782 0.0
C458 C 0.42844 0.28219 0.82357 0.0
C459 C 0.43055 0.27689 0.7877 0.0
C460 C 0.45557 0.28396 0.77569 0.0
C461 C 0.47939 0.29653 0.79909 0.0
C462 C 0.47714 0.30266 0.83494 0.0
C463 C 0.45214 0.29517 0.84699 0.0
C464 C 0.3124 0.23426 0.86137 0.0
C465 C 0.31186 0.27816 0.77874 0.0
C466 C 0.25407 0.32937 0.86353 0.0
Eu467 Eu 0.30257 0.3184 0.85239 0.0
C468 C 0.22696 0.31404 0.87104 0.0
C469 C 0.20388 0.32587 0.85713 0.0
C470 C 0.17868 0.31612 0.86789 0.0
C471 C 0.17579 0.29433 0.89307 0.0
C472 C 0.19869 0.2811 0.90565 0.0
C473 C 0.22393 0.29096 0.89497 0.0
C474 C 0.34537 0.36859 0.8406 0.0
C475 C 0.34619 0.32744 0.92089 0.0
O476 O 0.39752 0.28625 0.8665 0.0
O477 O 0.38067 0.26101 0.814 0.0
O478 O 0.33716 0.23039 0.85931 0.0
O479 O 0.3118 0.26564 0.85769 0.0
O480 O 0.33763 0.28178 0.79125 0.0
O481 O 0.29383 0.28611 0.79897 0.0
O482 O 0.26074 0.32192 0.83229 0.0
O483 O 0.2745 0.33241 0.888 0.0
O484 O 0.32065 0.37293 0.84269 0.0
O485 O 0.34543 0.33691 0.84344 0.0
O486 O 0.32061 0.32517 0.9085 0.0
O487 O 0.36394 0.31597 0.90192 0.0
H488 H 0.41293 0.26641 0.76877 0.0
H489 H 0.4563 0.27864 0.74795 0.0
H490 H 0.4947 0.31331 0.85387 0.0
H491 H 0.45142 0.29933 0.87478 0.0
H492 H 0.20554 0.34387 0.83887 0.0
H493 H 0.16166 0.32691 0.85758 0.0
H494 H 0.19726 0.26356 0.92435 0.0
H495 H 0.24123 0.28132 0.90627 0.0
C496 C 0.09849 0.96025 0.55541 0.0
Eu497 Eu 0.08591 1.02026 0.57626 0.0
C498 C 0.10486 0.93328 0.57481 0.0
C499 C 0.11387 0.9041 0.5589 0.0
C500 C 0.11554 0.87629 0.57678 0.0
C501 C 0.10847 0.87808 0.61061 0.0
C502 C 0.10203 0.9087 0.62727 0.0
C503 C 0.0997 0.9357 0.60928 0.0
C504 C 0.11863 0.07845 0.56656 0.0
C505 C 0.10965 0.04344 0.661 0.0
C506 C 0.06473 0.14137 0.62464 0.0
Eu507 Eu 0.06975 0.07743 0.61007 0.0
C508 C 0.0786 0.1673 0.60711 0.0
C509 C 0.08573 0.20169 0.62297 0.0
C510 C 0.1023 0.22463 0.6075 0.0
C511 C 0.11196 0.21313 0.5763 0.0
C512 C 0.10492 0.17871 0.56077 0.0
C513 C 0.08835 0.15607 0.57601 0.0
C514 C 1.03437 1.02158 0.6191 0.0
C515 C 0.04591 0.05325 0.52525 0.0
O516 O 0.07375 0.96592 0.55512 0.0
O517 O 0.11592 0.98864 0.56244 0.0
O518 O 0.10843 0.05286 0.54213 0.0
O519 O 0.11014 0.07269 0.59468 0.0
O520 O 0.10482 1.01829 0.63367 0.0
O521 O 0.09885 0.07129 0.65769 0.0
O522 O 0.08094 0.12718 0.64407 0.0
O523 O 0.04626 0.11857 0.60455 0.0
O524 O 0.04343 0.04842 0.64263 0.0
O525 O 0.04481 1.02518 0.59148 0.0
O526 O 0.04967 0.07779 0.55302 0.0
O527 O 0.05756 1.02598 0.52793 0.0
H528 H 0.11789 0.90198 0.53216 0.0
H529 H 0.12015 0.85258 0.56338 0.0
H530 H 0.09563 0.91039 0.65287 0.0
H531 H 0.09165 0.95723 0.62149 0.0
H532 H 0.07894 0.21056 0.64741 0.0
H533 H 0.10745 0.25134 0.61973 0.0
H534 H 0.11257 0.1692 0.53715 0.0
H535 H 0.08409 0.1294 0.56405 0.0
C536 C 0.27623 0.74432 0.77321 0.0
Eu537 Eu 0.31042 0.7788 0.82498 0.0
C538 C 0.24721 0.74129 0.76203 0.0
C539 C 0.23118 0.70866 0.75291 0.0
C540 C 0.20379 0.70552 0.74082 0.0
C541 C 0.19234 0.7349 0.73661 0.0
C542 C 0.2082 0.76757 0.74688 0.0
C543 C 0.23536 0.77078 0.7597 0.0
C544 C 0.29802 0.79719 0.88952 0.0
C545 C 0.30201 0.86204 0.84636 0.0
C546 C 0.39126 0.86103 0.92709 0.0
Eu547 Eu 0.35757 0.82872 0.87331 0.0
C548 C 0.4199 0.863 0.94152 0.0
C549 C 0.44074 0.88286 0.92881 0.0
C550 C 0.46755 0.88496 0.94343 0.0
C551 C 0.47414 0.86753 0.97126 0.0
C552 C 0.45332 0.84764 0.9839 0.0
C553 C 0.42653 0.84538 0.96915 0.0
C554 C 0.36951 0.81042 0.80828 0.0
C555 C 0.36539 0.74511 0.85118 0.0
O556 O 0.291 0.77401 0.77184 0.0
O557 O 0.28335 0.73133 0.80119 0.0
O558 O 0.28071 0.78187 0.86303 0.0
O559 O 0.32144 0.79476 0.88188 0.0
O560 O 0.29227 0.83055 0.82803 0.0
O561 O 0.32715 0.86769 0.86379 0.0
O562 O 0.37543 0.83178 0.92705 0.0
O563 O 0.38574 0.87468 0.89896 0.0
O564 O 0.38724 0.82425 0.83493 0.0
O565 O 0.34629 0.81335 0.81634 0.0
O566 O 0.37525 0.77642 0.86991 0.0
O567 O 0.34047 0.7399 0.83365 0.0
H568 H 0.23991 0.68564 0.75481 0.0
H569 H 0.1917 0.68015 0.73396 0.0
H570 H 0.19958 0.79065 0.74489 0.0
H571 H 0.24714 0.79633 0.76718 0.0
H572 H 0.43639 0.89697 0.90775 0.0
H573 H 0.48318 0.90064 0.93323 0.0
H574 H 0.45774 0.83328 1.00473 0.0
H575 H 0.41094 0.82968 0.97938 0.0
C576 C 0.624 0.13962 0.14613 0.0
Eu577 Eu 0.59213 0.08508 0.11329 0.0
C578 C 0.65351 0.14884 0.1515 0.0
C579 C 0.66975 0.12513 0.16116 0.0
C580 C 0.69772 0.13344 0.16469 0.0
C581 C 0.71007 0.16569 0.15881 0.0
C582 C 0.69369 0.18899 0.14825 0.0
C583 C 0.66567 0.18073 0.14487 0.0
C584 C 0.60674 1.02225 0.10054 0.0
C585 C 0.60151 0.05884 0.03055 0.0
C586 C 0.51398 0.97466 0.03832 0.0
Eu587 Eu 0.54656 1.03058 0.06738 0.0
C588 C 0.48555 0.95973 0.03852 0.0
C589 C 0.47621 0.95172 0.06943 0.0
C590 C 0.44956 0.93633 0.06901 0.0
C591 C 0.43174 0.92929 0.0379 0.0
C592 C 0.44075 0.9379 1.00722 0.0
C593 C 0.46758 0.95262 1.00743 0.0
C594 C 0.53259 0.0936 0.08161 0.0
C595 C 0.53877 0.05699 0.15119 0.0
O596 O 0.61234 0.13755 0.11403 0.0
O597 O 0.61391 0.11457 0.16174 0.0
O598 O 0.62324 0.05029 0.11385 0.0
O599 O 0.58299 1.02822 0.10255 0.0
O600 O 0.61087 0.07966 0.06092 0.0
O601 O 0.57676 0.03999 0.02648 0.0
O602 O 0.53014 0.97709 0.06753 0.0
O603 O 0.51875 1.00152 1.02255 0.0
O604 O 0.51556 0.06549 0.07065 0.0
O605 O 0.55591 0.08726 0.07764 0.0
O606 O 0.52986 0.0347 0.12156 0.0
O607 O 0.56217 0.07813 0.15366 0.0
H608 H 0.66088 0.09989 0.16548 0.0
H609 H 0.70958 0.11418 0.17112 0.0
H610 H 0.70249 0.21375 0.14272 0.0
H611 H 0.6535 0.19919 0.13692 0.0
H612 H 0.48946 0.95715 0.09397 0.0
H613 H 0.44268 0.93067 0.0931 0.0
H614 H 0.42691 0.93362 0.98325 0.0
H615 H 0.47423 0.95868 0.98335 0.0
C616 C 0.38772 0.36063 0.39811 0.0
Eu617 Eu 0.3418 0.32342 0.36949 0.0
C618 C 0.41517 0.35204 0.40013 0.0
C619 C 0.42127 0.32331 0.41466 0.0
C620 C 0.44399 0.30915 0.4072 0.0
C621 C 0.46078 0.32322 0.38486 0.0
C622 C 0.45625 0.35404 0.37345 0.0
C623 C 0.43372 0.36845 0.38125 0.0
C624 C 0.30589 0.28719 0.40341 0.0
C625 C 0.35713 0.24433 0.34231 0.0
C626 C 0.25846 0.23635 0.29232 0.0
Eu627 Eu 0.30261 0.27697 0.32206 0.0
C628 C 0.23158 0.23513 0.3035 0.0
C629 C 0.21288 0.25243 0.287 0.0
C630 C 0.19456 0.26702 0.30599 0.0
C631 C 0.19536 0.26469 0.34147 0.0
C632 C 0.20988 0.24138 0.35545 0.0
C633 C 0.22778 0.22628 0.33636 0.0
C634 C 0.33855 0.31274 0.28831 0.0
C635 C 0.28688 0.35555 0.35178 0.0
O636 O 0.37657 0.36159 0.36659 0.0
O637 O 0.3709 0.34483 0.41592 0.0
O638 O 0.31483 0.32003 0.41187 0.0
O639 O 0.31625 0.27528 0.37737 0.0
O640 O 0.36576 0.27654 0.35915 0.0
O641 O 0.33208 0.23758 0.32576 0.0
O642 O 0.2766 0.22708 0.31374 0.0
O643 O 0.26787 0.2646 0.28124 0.0
O644 O 0.32991 0.27994 0.28037 0.0
O645 O 0.32788 0.32513 0.3138 0.0
O646 O 0.27774 0.32241 0.33755 0.0
O647 O 0.31285 0.36339 0.36496 0.0
H648 H 0.40745 0.31007 0.42943 0.0
H649 H 0.44721 0.28554 0.41653 0.0
H650 H 0.46861 0.36524 0.3558 0.0
H651 H 0.4295 0.39062 0.36978 0.0
H652 H 0.21479 0.25862 0.26123 0.0
H653 H 0.18243 0.28361 0.29424 0.0
H654 H 0.20993 0.23828 0.38251 0.0
H655 H 0.24112 0.21175 0.34937 0.0
C656 C 0.59475 0.45815 0.06042 0.0
Eu657 Eu 0.58494 0.51994 0.07766 0.0
C658 C 0.5935 0.43229 0.08313 0.0
C659 C 0.60463 0.4023 0.07628 0.0
C660 C 0.60219 0.37801 0.09876 0.0
C661 C 0.58933 0.38445 0.1284 0.0
C662 C 0.57932 0.4151 0.13573 0.0
C663 C 0.58093 0.43851 0.11295 0.0
C664 C 0.61973 0.57643 0.06815 0.0
C665 C 0.61061 0.54356 0.16079 0.0
C666 C 0.56546 0.64096 0.12916 0.0
Eu667 Eu 0.57006 0.57738 0.11133 0.0
C668 C 0.58439 0.66779 0.11906 0.0
C669 C 0.59056 0.7012 0.13773 0.0
C670 C 0.61012 0.72512 0.12775 0.0
C671 C 0.62397 0.71536 0.09962 0.0
C672 C 0.61824 0.68149 0.08206 0.0
C673 C 0.59845 0.65814 0.09141 0.0
C674 C 0.53395 0.52184 0.12027 0.0
C675 C 0.54669 0.55501 0.02648 0.0
O676 O 0.57158 0.46718 0.05137 0.0
O677 O 0.61371 0.48463 0.07137 0.0
O678 O 0.60932 0.55078 0.04387 0.0
O679 O 0.61056 0.57166 0.09615 0.0
O680 O 0.60185 0.51684 0.13557 0.0
O681 O 0.60305 0.57297 0.15548 0.0
O682 O 0.57646 0.62352 0.15089 0.0
O683 O 0.55003 0.62097 0.10297 0.0
O684 O 0.54348 0.54829 0.14394 0.0
O685 O 0.54415 0.52577 0.09272 0.0
O686 O 0.5513 0.57977 0.05419 0.0
O687 O 0.5573 0.52695 0.02923 0.0
H688 H 0.61438 0.39731 0.0533 0.0
H689 H 0.6094 0.35389 0.09253 0.0
H690 H 0.56858 0.41985 0.15789 0.0
H691 H 0.57146 0.46098 0.11806 0.0
H692 H 0.58011 0.70883 0.15945 0.0
H693 H 0.61357 0.75145 0.14109 0.0
H694 H 0.62856 0.67326 0.06038 0.0
H695 H 0.59411 0.63232 0.07689 0.0
C696 C 0.78276 0.24364 0.26438 0.0
Eu697 Eu 0.81368 0.27961 0.31834 0.0
C698 C 0.7537 0.23868 0.25216 0.0
C699 C 0.73476 0.22281 0.27095 0.0
C700 C 0.70729 0.22154 0.26101 0.0
C701 C 0.69825 0.23624 0.23225 0.0
C702 C 0.71722 0.25102 0.21282 0.0
C703 C 0.74466 0.25198 0.22253 0.0
C704 C 0.79946 0.29506 0.38282 0.0
C705 C 0.80461 0.36151 0.343 0.0
C706 C 0.89394 0.3553 0.42349 0.0
Eu707 Eu 0.85955 0.32612 0.36976 0.0
C708 C 0.92261 0.35595 0.43462 0.0
C709 C 0.94201 0.36309 0.41267 0.0
C710 C 0.9692 0.36413 0.42442 0.0
C711 C 0.97739 0.35851 0.45842 0.0
C712 C 0.95765 0.34816 0.47886 0.0
C713 C 0.93052 0.34748 0.46732 0.0
C714 C 0.87295 0.31268 0.30498 0.0
C715 C 0.86708 0.24346 0.34458 0.0
O716 O 0.79619 0.27443 0.26411 0.0
O717 O 0.79001 0.23089 0.29244 0.0
O718 O 0.78257 0.28261 0.35491 0.0
O719 O 0.82295 0.29146 0.37595 0.0
O720 O 0.79535 0.33119 0.32203 0.0
O721 O 0.82906 0.3656 0.36223 0.0
O722 O 0.87862 0.32545 0.4222 0.0
O723 O 0.8873 0.37133 0.39743 0.0
O724 O 0.89015 0.32406 0.33261 0.0
O725 O 0.84966 0.31529 0.31261 0.0
O726 O 0.87664 0.2736 0.36544 0.0
O727 O 0.84314 0.24014 0.32518 0.0
H728 H 0.74108 0.21213 0.29387 0.0
H729 H 0.69318 0.21004 0.27656 0.0
H730 H 0.71089 0.26183 0.19002 0.0
H731 H 0.75886 0.26386 0.20732 0.0
H732 H 0.93626 0.36821 0.38666 0.0
H733 H 0.9838 0.36996 0.40707 0.0
H734 H 0.96322 0.3422 0.50454 0.0
H735 H 0.9157 0.34082 0.4842 0.0
C736 C 0.12657 0.6489 0.64561 0.0
Eu737 Eu 0.09708 0.59017 0.61962 0.0
C738 C 0.15622 0.65863 0.6498 0.0
C739 C 0.17297 0.63895 0.6665 0.0
C740 C 0.20092 0.64661 0.66821 0.0
C741 C 0.21283 0.67422 0.65347 0.0
C742 C 0.19608 0.69373 0.63649 0.0
C743 C 0.16805 0.68588 0.63456 0.0
C744 C 0.11639 0.53046 0.61946 0.0
C745 C 0.10793 0.55502 0.53921 0.0
C746 C 1.02613 0.46654 0.55715 0.0
Eu747 Eu 0.05578 0.52631 0.57983 0.0
C748 C 0.99733 0.45528 0.55912 0.0
C749 C 0.98189 0.47909 0.57286 0.0
C750 C 0.95415 0.46967 0.57216 0.0
C751 C 0.94117 0.43618 0.55755 0.0
C752 C 0.95708 0.41166 0.54684 0.0
C753 C 0.98491 0.42116 0.54724 0.0
C754 C 1.03719 0.58684 0.58053 0.0
C755 C 0.04449 0.56131 0.6594 0.0
O756 O 0.11433 0.64224 0.61342 0.0
O757 O 0.1171 0.62685 0.66494 0.0
O758 O 0.13109 0.56059 0.62787 0.0
O759 O 0.09196 0.53422 0.61902 0.0
O760 O 0.11574 0.58002 0.56706 0.0
O761 O 0.08534 0.53238 0.5382 0.0
O762 O 0.04186 0.47356 0.58711 0.0
O763 O 1.03124 0.48984 0.53716 0.0
O764 O 1.022 0.55701 0.57426 0.0
O765 O 0.06135 0.58241 0.58028 0.0
O766 O 1.03776 0.53541 0.63245 0.0
O767 O 0.0663 0.58495 0.65985 0.0
H768 H 0.16456 0.61734 0.67803 0.0
H769 H 0.21326 0.63115 0.68151 0.0
H770 H 0.2046 0.7146 0.62402 0.0
H771 H 0.15556 0.70085 0.62078 0.0
H772 H 0.99116 0.50519 0.58369 0.0
H773 H 0.94283 0.48883 0.58259 0.0
H774 H 0.94772 0.38541 0.53731 0.0
H775 H 0.99663 0.40206 0.53792 0.0
C776 C 0.90582 0.7703 0.34214 0.0
Eu777 Eu 0.85681 0.78179 0.34974 0.0
C778 C 0.93112 0.78166 0.32744 0.0
C779 C 0.93185 0.77795 0.29125 0.0
C780 C 0.95623 0.78582 0.27786 0.0
C781 C 0.98071 0.79797 0.30014 0.0
C782 C 0.97992 0.80162 0.33634 0.0
C783 C 0.95556 0.79345 0.34974 0.0
C784 C 0.81428 0.73219 0.36285 0.0
C785 C 0.81679 0.77781 0.27792 0.0
C786 C 0.7542 0.82479 0.3577 0.0
Eu787 Eu 0.80389 0.81543 0.35148 0.0
C788 C 0.72892 0.81416 0.3728 0.0
C789 C 0.72011 0.83802 0.3972 0.0
C790 C 0.69517 0.83043 0.40923 0.0
C791 C 0.67798 0.79875 0.39714 0.0
C792 C 0.68696 0.77453 0.37309 0.0
C793 C 0.71202 0.78216 0.361 0.0
C794 C 0.84668 0.86539 0.33962 0.0
C795 C 0.8449 0.82274 0.42212 0.0
O796 O 0.90007 0.78936 0.36954 0.0
O797 O 0.88425 0.75599 0.32039 0.0
O798 O 0.83916 0.72834 0.36168 0.0
O799 O 0.81383 0.76342 0.35847 0.0
O800 O 0.84176 0.77865 0.29247 0.0
O801 O 0.79817 0.78815 0.29599 0.0
O802 O 0.7607 0.80412 0.33205 0.0
O803 O 0.77536 0.84175 0.37877 0.0
O804 O 0.82181 0.86953 0.34078 0.0
O805 O 0.84691 0.83394 0.34341 0.0
O806 O 0.81948 0.81951 0.40832 0.0
O807 O 0.8637 0.81272 0.40416 0.0
H808 H 0.91363 0.7683 0.27312 0.0
H809 H 0.95591 0.7815 0.24989 0.0
H810 H 0.99819 0.81091 0.35445 0.0
H811 H 0.95587 0.79612 0.37771 0.0
H812 H 0.73231 0.86309 0.40647 0.0
H813 H 0.68905 0.84989 0.42751 0.0
H814 H 0.67467 0.74958 0.36365 0.0
H815 H 0.71794 0.76314 0.34206 0.0
C816 C 0.8076 0.3348 0.94741 0.0
Eu817 Eu 0.81611 0.32136 0.88309 0.0
C818 C 0.80445 0.31042 0.97166 0.0
C819 C 0.79737 0.31981 1.0048 0.0
C820 C 0.79825 0.29698 0.02882 0.0
C821 C 0.80546 0.26453 1.01919 0.0
C822 C 0.81052 0.25453 0.98522 0.0
C823 C 0.81072 0.2776 0.96203 0.0
C824 C 0.78347 0.33294 0.82723 0.0
C825 C 0.7916 0.23698 0.85717 0.0
C826 C 0.83227 0.27914 0.75488 0.0
Eu827 Eu 0.83064 0.28895 0.82125 0.0
C828 C 0.82045 0.30076 0.73224 0.0
C829 C 0.81097 0.28825 0.69713 0.0
C830 C 0.79583 0.30738 0.67771 0.0
C831 C 0.78993 0.33901 0.69339 0.0
C832 C 0.79946 0.35137 0.72844 0.0
C833 C 0.81453 0.33238 0.74764 0.0
C834 C 0.86578 0.27863 0.87516 0.0
C835 C 0.85676 0.37267 0.84927 0.0
O836 O 0.83151 0.33943 0.93775 0.0
O837 O 0.78846 0.32975 0.9211 0.0
O838 O 0.79322 0.35602 0.85434 0.0
O839 O 0.79155 0.30489 0.83102 0.0
O840 O 0.79382 0.26507 0.88084 0.0
O841 O 0.80482 0.23906 0.83009 0.0
O842 O 0.81454 0.26091 0.76934 0.0
O843 O 0.85303 0.29463 0.77731 0.0
O844 O 0.85715 0.25634 0.84701 0.0
O845 O 0.85581 0.30591 0.87308 0.0
O846 O 0.85406 0.34504 0.82479 0.0
O847 O 0.84354 0.37041 0.87627 0.0
H848 H 0.79275 0.34524 1.01265 0.0
H849 H 0.795 0.30532 0.05535 0.0
H850 H 0.81721 0.23023 0.97773 0.0
H851 H 0.81788 0.27059 0.93754 0.0
H852 H 0.81472 0.26351 0.68506 0.0
H853 H 0.78881 0.29759 0.65043 0.0
H854 H 0.79478 0.37534 0.74117 0.0
H855 H 0.82046 0.34186 0.77501 0.0
C856 C 0.88534 0.86236 0.90326 0.0
Eu857 Eu 0.84044 0.82476 0.87269 0.0
C858 C 0.91171 0.86079 0.89098 0.0
C859 C 0.93049 0.84403 0.90818 0.0
C860 C 0.95127 0.83288 0.89127 0.0
C861 C 0.95354 0.83838 0.85703 0.0
C862 C 0.93611 0.85757 0.84103 0.0
C863 C 0.91561 0.86894 0.85791 0.0
C864 C 0.80339 0.78721 0.90428 0.0
C865 C 0.85896 0.74815 0.84465 0.0
C866 C 0.76137 0.73812 0.78908 0.0
Eu867 Eu 0.80406 0.77903 0.82303 0.0
C868 C 0.73389 0.73415 0.79861 0.0
C869 C 0.71554 0.75367 0.785 0.0
C870 C 0.69564 0.76342 0.80428 0.0
C871 C 0.69415 0.75375 0.83719 0.0
C872 C 0.70905 0.72908 0.84745 0.0
C873 C 0.72864 0.71893 0.82799 0.0
C874 C 0.84191 0.81573 0.79214 0.0
C875 C 0.78574 0.85613 0.85261 0.0
O876 O 0.86775 0.87386 0.88291 0.0
O877 O 0.87457 0.83482 0.91438 0.0
O878 O 0.81211 0.81998 0.91344 0.0
O879 O 0.81466 0.77596 0.87889 0.0
O880 O 0.86684 0.78093 0.8601 0.0
O881 O 0.83374 0.74 0.82878 0.0
O882 O 0.7793 0.72826 0.81032 0.0
O883 O 0.77043 0.76786 0.78065 0.0
O884 O 0.83348 0.78297 0.78366 0.0
O885 O 0.82993 0.82752 0.81651 0.0
O886 O 0.7775 0.82308 0.83744 0.0
O887 O 0.81125 0.86425 0.86746 0.0
H888 H 0.92793 0.83732 0.93359 0.0
H889 H 0.96473 0.81847 0.90423 0.0
H890 H 0.93704 0.86173 0.81442 0.0
H891 H 0.90156 0.88167 0.84366 0.0
H892 H 0.71867 0.76495 0.76189 0.0
H893 H 0.68386 0.78186 0.79547 0.0
H894 H 0.70768 0.72072 0.87244 0.0
H895 H 0.74182 0.70276 0.83856 0.0
C896 C 0.6426 0.60921 0.65119 0.0
Eu897 Eu 0.59906 0.57168 0.6155 0.0
C898 C 0.66858 0.61671 0.63825 0.0
C899 C 0.6913 0.60764 0.65625 0.0
C900 C 0.7118 0.5977 0.63813 0.0
C901 C 0.70982 0.59712 0.60194 0.0
C902 C 0.68931 0.61158 0.58528 0.0
C903 C 0.66874 0.62125 0.6033 0.0
C904 C 0.55253 0.56473 0.6505 0.0
C905 C 0.60145 0.4942 0.62446 0.0
C906 C 0.5229 0.4948 0.53783 0.0
Eu907 Eu 0.56725 0.52908 0.57469 0.0
C908 C 0.4959 0.4925 0.54894 0.0
C909 C 0.47611 0.50691 0.53068 0.0
C910 C 0.45528 0.51808 0.54738 0.0
C911 C 0.45398 0.51474 0.58237 0.0
C912 C 0.47155 0.49629 0.59903 0.0
C913 C 0.49235 0.48508 0.5824 0.0
C914 C 0.61438 0.53535 0.54042 0.0
C915 C 0.56414 0.60534 0.56679 0.0
O916 O 0.62273 0.6224 0.63734 0.0
O917 O 0.6354 0.57672 0.65251 0.0
O918 O 0.56739 0.5931 0.64708 0.0
O919 O 0.56191 0.54046 0.63281 0.0
O920 O 0.61692 0.52391 0.62571 0.0
O921 O 0.57696 0.49032 0.60848 0.0
O922 O 0.54032 0.48018 0.55492 0.0
O923 O 0.53344 0.52558 0.53374 0.0
O924 O 0.59943 0.50727 0.54441 0.0
O925 O 0.60463 0.55983 0.55726 0.0
O926 O 0.54857 0.57748 0.57118 0.0
O927 O 0.58967 0.60718 0.57739 0.0
H928 H 0.69149 0.60374 0.6831 0.0
H929 H 0.72727 0.58644 0.65162 0.0
H930 H 0.6875 0.61164 0.55745 0.0
H931 H 0.65144 0.62812 0.58867 0.0
H932 H 0.47848 0.51311 0.50503 0.0
H933 H 0.44209 0.53276 0.53431 0.0
H934 H 0.47091 0.49383 0.62612 0.0
H935 H 0.50721 0.47399 0.59722 0.0
C936 C 0.99769 0.56049 0.12743 0.0
Eu937 Eu 0.04626 0.55096 0.11501 0.0
C938 C 0.97226 0.57272 0.11544 0.0
C939 C 0.9489 0.56199 0.12981 0.0
C940 C 0.92499 0.57475 0.12149 0.0
C941 C 0.92349 0.59846 0.09811 0.0
C942 C 0.94701 0.60922 0.08363 0.0
C943 C 0.9711 0.59655 0.09221 0.0
C944 C 0.08701 0.53762 0.16525 0.0
C945 C 0.08939 0.62089 0.12157 0.0
C946 C 0.14949 0.53921 0.07276 0.0
Eu947 Eu 0.10011 0.54883 0.0815 0.0
C948 C 0.17514 0.52923 0.08839 0.0
C949 C 0.20011 0.54759 0.0839 0.0
C950 C 0.22447 0.53623 0.09386 0.0
C951 C 0.22476 0.50604 0.10879 0.0
C952 C 0.19972 0.48816 0.11414 0.0
C953 C 0.17533 0.49955 0.10415 0.0
C954 C 0.05945 0.56143 0.0305 0.0
C955 C 0.05573 0.47947 0.07175 0.0
O956 O 1.00286 0.53155 0.11129 0.0
O957 O 1.01944 0.58351 0.13751 0.0
O958 O 0.062 0.53858 0.1691 0.0
O959 O 0.08843 0.54232 0.13384 0.0
O960 O 0.06369 0.60722 0.11854 0.0
O961 O 0.10785 0.6024 0.11265 0.0
O962 O 0.14341 0.56925 0.08424 0.0
O963 O 0.12812 0.51535 0.06423 0.0
O964 O 0.08452 0.55991 0.02701 0.0
O965 O 0.05774 0.55735 0.06216 0.0
O966 O 0.08142 0.49286 0.07407 0.0
O967 O 1.0376 0.49745 0.08302 0.0
H968 H 0.94928 0.54415 0.14826 0.0
H969 H 0.90781 0.56656 0.13417 0.0
H970 H 0.9468 0.62744 0.06559 0.0
H971 H 0.98886 0.60567 0.08102 0.0
H972 H 0.20076 0.57023 0.07141 0.0
H973 H 0.24302 0.55042 0.08841 0.0
H974 H 0.19893 0.46494 0.12567 0.0
H975 H 0.15656 0.48459 0.10796 0.0
C976 C 1.03197 0.16729 1.01153 0.0
C977 C 1.03676 0.20009 0.03241 0.0
C978 C 1.04025 0.13848 1.02445 0.0
C979 C 0.05429 0.14168 0.05832 0.0
H980 H 1.02135 0.16375 0.98534 0.0
H981 H 1.03614 0.11374 1.00759 0.0
S982 S 0.07226 0.22194 0.12304 0.0
N983 N 0.05644 0.23372 0.08865 0.0
N984 N 0.07252 0.1804 0.11221 0.0
C985 C 0.05938 0.17439 0.07912 0.0
C986 C 0.0505 0.20332 0.06637 0.0
C987 C 0.21855 0.85338 0.28423 0.0
C988 C 0.21134 0.83254 0.25134 0.0
C989 C 0.24277 0.85224 0.30562 0.0
C990 C 0.26054 0.82952 0.29556 0.0
H991 H 0.20574 0.87133 0.29316 0.0
H992 H 0.24743 0.86915 0.33051 0.0
S993 S 0.25024 0.76811 0.21282 0.0
N994 N 0.22386 0.78792 0.21014 0.0
N995 N 0.26846 0.78497 0.25072 0.0
C996 C 0.25321 0.80802 0.26312 0.0
C997 C 0.22894 0.80976 0.241 0.0
C998 C 0.52246 0.89782 0.51184 0.0
C999 C 0.53465 0.87217 0.5255 0.0
C1000 C 0.52781 0.93212 0.52905 0.0
C1001 C 0.54622 0.94205 0.55982 0.0
H1002 H 0.50911 0.89144 0.48736 0.0
H1003 H 0.51856 0.9513 0.51724 0.0
S1004 S 0.58308 0.88476 0.60653 0.0
N1005 N 0.56506 0.8589 0.57244 0.0
N1006 N 0.57604 0.92355 0.60372 0.0
C1007 C 0.55812 0.91658 0.57404 0.0
C1008 C 0.55207 0.88156 0.55716 0.0
C1009 C 0.53325 0.32314 0.74197 0.0
C1010 C 0.55693 0.31439 0.75837 0.0
C1011 C 0.50861 0.31768 0.75544 0.0
C1012 C 0.50628 0.30289 0.78588 0.0
H1013 H 0.53372 0.33465 0.71855 0.0
H1014 H 0.49123 0.32541 0.74191 0.0
S1015 S 0.56191 0.27323 0.83766 0.0
N1016 N 0.57624 0.2893 0.80638 0.0
N1017 N 0.53004 0.27805 0.83102 0.0
C1018 C 0.52981 0.29368 0.80236 0.0
C1019 C 0.555 0.29961 0.7888 0.0
C1020 C 0.08942 0.82874 0.67949 0.0
C1021 C 0.06438 0.81003 0.66319 0.0
C1022 C 0.1067 0.84687 0.66056 0.0
C1023 C 0.09923 0.84705 0.62491 0.0
H1024 H 0.09534 0.83042 0.70722 0.0
H1025 H 0.12466 0.86359 0.67448 0.0
S1026 S 1.03776 0.79788 0.56924 0.0
N1027 N 1.03449 0.78934 0.60869 0.0
N1028 N 0.06703 0.8235 0.57317 0.0
C1029 C 0.07563 0.82553 0.6077 0.0
C1030 C 0.05798 0.80728 0.62694 0.0
C1031 C 0.54902 0.86652 0.97492 0.0
C1032 C 0.55896 0.87484 1.01078 0.0
C1033 C 0.5217 0.864 0.96272 0.0
C1034 C 0.50284 0.8691 0.98572 0.0
H1035 H 0.56251 0.86279 0.95569 0.0
H1036 H 0.5153 0.858 0.93487 0.0
S1037 S 0.51757 0.88861 0.08219 0.0
N1038 N 0.5473 0.88666 0.06934 0.0
N1039 N 0.49561 0.88085 0.04631 0.0
C1040 C 0.51214 0.87609 1.02173 0.0
C1041 C 0.54023 0.87928 0.03426 0.0
C1042 C 0.53908 0.15819 0.16436 0.0
C1043 C 0.51212 0.16058 0.16797 0.0
C1044 C 0.54584 0.13899 0.13475 0.0
C1045 C 0.52585 0.11954 0.10883 0.0
H1046 H 0.55515 0.17243 0.18382 0.0
H1047 H 0.56678 0.13838 0.13289 0.0
S1048 S 0.4521 0.11719 0.10613 0.0
N1049 N 0.46536 0.14319 0.14268 0.0
N1050 N 0.47774 0.1044 0.08848 0.0
C1051 C 0.49872 0.12133 0.11245 0.0
C1052 C 0.49195 0.14209 0.14186 0.0
C1053 C 0.15331 0.32525 0.38373 0.0
C1054 C 0.17206 0.34605 0.4107 0.0
C1055 C 0.1608 0.29881 0.36127 0.0
C1056 C 0.18723 0.2922 0.36521 0.0
H1057 H 0.13238 0.32845 0.38067 0.0
H1058 H 0.14577 0.283 0.34125 0.0
S1059 S 0.24498 0.3425 0.42748 0.0
N1060 N 0.21894 0.36061 0.43714 0.0
N1061 N 0.23302 0.31085 0.39491 0.0
C1062 C 0.20654 0.31396 0.39064 0.0
C1063 C 0.19898 0.34102 0.41331 0.0
C1064 C 1.00951 1.0291 0.21956 0.0
C1065 C 0.99813 0.05658 0.2369 0.0
C1066 C 1.02517 1.03207 0.19132 0.0
C1067 C 1.03143 0.0631 0.17788 0.0
H1068 H 1.00686 1.00453 0.22865 0.0
H1069 H 1.0332 1.00974 0.1806 0.0
S1070 S 1.00643 0.14362 0.21121 0.0
N1071 N 0.99425 0.11637 0.23594 0.0
N1072 N 1.02322 0.12218 0.18421 0.0
C1073 C 1.01963 0.09071 0.19413 0.0
C1074 C 1.00332 0.0875 0.22283 0.0
C1075 C 0.36714 0.74903 0.58361 0.0
C1076 C 0.35944 0.71302 0.57772 0.0
C1077 C 0.35256 0.76979 0.56591 0.0
C1078 C 0.33003 0.75515 0.5415 0.0
H1079 H 0.38476 0.76139 0.60179 0.0
H1080 H 0.35983 0.79725 0.56987 0.0
S1081 S 0.30099 0.6628 0.51668 0.0
N1082 N 0.32711 0.66378 0.54636 0.0
N1083 N 0.30022 0.70324 0.5121 0.0
C1084 C 0.32177 0.71941 0.53555 0.0
C1085 C 0.33645 0.69817 0.5538 0.0
C1086 C 0.65241 0.04796 0.72875 0.0
C1087 C 0.64486 1.02734 0.75413 0.0
C1088 C 0.63471 0.0494 0.69759 0.0
C1089 C 0.60782 1.03128 0.69029 0.0
H1090 H 0.67166 0.06496 0.73404 0.0
H1091 H 0.64159 0.06683 0.68038 0.0
S1092 S 0.57746 0.97317 0.7471 0.0
N1093 N 0.60813 0.98765 0.76791 0.0
N1094 N 0.57543 0.99095 0.71149 0.0
C1095 C 0.60042 1.00996 0.71491 0.0
C1096 C 0.61853 1.00795 0.74596 0.0
C1097 C 0.36973 0.35099 1.01817 0.0
C1098 C 0.36495 0.38518 1.02541 0.0
C1099 C 0.36509 0.33264 0.98394 0.0
C1100 C 0.35522 0.34777 0.95594 0.0
H1101 H 0.37633 0.33792 0.03921 0.0
H1102 H 0.36807 0.30606 0.9796 0.0
S1103 S 0.34172 0.43708 0.95986 0.0
N1104 N 0.35176 0.43396 1.00074 0.0
N1105 N 0.3426 0.39923 0.93691 0.0
C1106 C 0.35147 0.3822 0.96251 0.0
C1107 C 0.35649 0.40101 0.99711 0.0
C1108 C 0.99028 0.07797 0.45864 0.0
C1109 C 0.99369 0.06081 0.42544 0.0
C1110 C 1.00719 0.07606 0.49015 0.0
C1111 C 1.02825 0.05609 0.4909 0.0
H1112 H 0.97466 0.09372 0.46033 0.0
H1113 H 1.0034 0.09015 0.51436 0.0
S1114 S 0.04587 1.00535 0.41176 0.0
N1115 N 1.02057 1.02309 0.39628 0.0
N1116 N 0.05087 1.01848 0.45427 0.0
C1117 C 1.03154 0.03846 0.45795 0.0
C1118 C 1.01483 0.04109 0.42588 0.0
C1119 C 0.41417 0.76736 0.75118 0.0
C1120 C 0.39814 0.73576 0.73596 0.0
C1121 C 0.40408 0.79168 0.77337 0.0
C1122 C 0.3772 0.7861 0.78013 0.0
H1123 H 0.43449 0.77367 0.7452 0.0
H1124 H 0.41749 0.81526 0.78522 0.0
S1125 S 0.32706 0.70719 0.74654 0.0
N1126 N 0.35474 0.69902 0.73123 0.0
N1127 N 0.3348 0.74673 0.76831 0.0
C1128 C 0.36094 0.75487 0.76438 0.0
C1129 C 0.37171 0.72909 0.74376 0.0
C1130 C 0.62586 0.03906 0.93767 0.0
C1131 C 0.65458 0.04375 0.94354 0.0
C1132 C 0.6093 0.04373 0.96506 0.0
C1133 C 0.61996 0.05469 1.00081 0.0
H1134 H 0.61576 1.03108 0.91124 0.0
H1135 H 0.58766 0.0389 0.95787 0.0
S1136 S 0.69371 0.07014 0.03228 0.0
N1137 N 0.69246 0.05915 0.98973 0.0
N1138 N 0.66222 0.06914 0.03985 0.0
C1139 C 0.64867 0.05958 1.00714 0.0
C1140 C 0.66552 0.0539 0.97927 0.0
C1141 C 0.34835 0.37746 0.22519 0.0
C1142 C 0.36725 0.36464 0.20521 0.0
C1143 C 0.34009 0.36197 0.2535 0.0
C1144 C 0.35025 0.33281 0.26264 0.0
H1145 H 0.339 0.39873 0.21808 0.0
H1146 H 0.32473 0.37177 0.26714 0.0
S1147 S 0.40292 0.29211 0.22284 0.0
N1148 N 0.39824 0.32322 0.20027 0.0
N1149 N 0.38192 0.29399 0.25201 0.0
C1150 C 0.37005 0.32098 0.24426 0.0
C1151 C 0.37881 0.33685 0.216 0.0
C1152 C 0.2554 1.01612 0.10127 0.0
C1153 C 0.23745 0.98582 0.08582 0.0
C1154 C 0.24644 0.04334 0.12087 0.0
C1155 C 0.21943 0.04069 0.12612 0.0
H1156 H 0.27651 1.01896 0.09808 0.0
H1157 H 0.26063 0.06649 0.13196 0.0
S1158 S 0.16423 0.9679 0.09066 0.0
N1159 N 0.19125 0.95549 0.07651 0.0
N1160 N 0.17458 1.00657 0.11383 0.0
C1161 C 0.20127 1.01082 0.11078 0.0
C1162 C 0.21024 0.98335 0.09046 0.0
C1163 C 0.68317 0.61828 0.03435 0.0
C1164 C 0.696 0.64347 0.06262 0.0
C1165 C 0.65851 0.59704 0.03623 0.0
C1166 C 0.64578 0.59971 0.06662 0.0
H1167 H 0.69188 0.61553 1.01031 0.0
H1168 H 0.64934 0.57837 1.01357 0.0
S1169 S 0.67167 0.66132 0.14818 0.0
N1170 N 0.69407 0.67001 0.1218 0.0
N1171 N 0.64891 0.62935 0.12605 0.0
C1172 C 0.65887 0.62439 0.09528 0.0
C1173 C 0.68356 0.64645 0.09305 0.0
C1174 C 0.74124 0.41218 0.33992 0.0
C1175 C 0.75148 0.4473 0.35468 0.0
C1176 C 0.75801 0.38554 0.3357 0.0
C1177 C 0.78652 0.39122 0.34651 0.0
H1178 H 0.71989 0.40504 0.33086 0.0
H1179 H 0.7482 0.35979 0.32402 0.0
S1180 S 0.82423 0.47745 0.38915 0.0
N1181 N 0.7931 0.48482 0.38111 0.0
N1182 N 0.82328 0.43623 0.37455 0.0
C1183 C 0.79678 0.426 0.36208 0.0
C1184 C 0.77989 0.45318 0.36568 0.0
C1185 C 0.8696 0.38659 0.55137 0.0
C1186 C 0.85351 0.40922 0.53859 0.0
C1187 C 0.89784 0.39555 0.55796 0.0
C1188 C 0.91112 0.42732 0.55163 0.0
H1189 H 0.86032 0.36197 0.5568 0.0
H1190 H 0.90931 0.37752 0.56833 0.0
S1191 S 0.87843 0.49399 0.51425 0.0
N1192 N 0.85319 0.46413 0.51813 0.0
N1193 N 0.90592 0.48 0.52881 0.0
C1194 C 0.89525 0.4497 0.53792 0.0
C1195 C 0.86659 0.44093 0.53187 0.0
C1196 C 0.41815 0.19287 0.36198 0.0
C1197 C 0.41018 0.15913 0.34221 0.0
C1198 C 0.40132 0.21942 0.36227 0.0
C1199 C 0.37538 0.21509 0.34215 0.0
H1200 H 0.43753 0.19883 0.37819 0.0
H1201 H 0.40879 0.24382 0.37892 0.0
S1202 S 0.34364 0.13187 0.28607 0.0
N1203 N 0.37299 0.12363 0.30254 0.0
N1204 N 0.34288 0.17229 0.30221 0.0
C1205 C 0.36719 0.18141 0.32245 0.0
C1206 C 0.384 0.15425 0.32265 0.0
C1207 C 0.37275 0.16368 0.57659 0.0
C1208 C 0.34753 0.14375 0.5779 0.0
C1209 C 0.39702 0.15061 0.58201 0.0
C1210 C 0.39738 0.11682 0.58885 0.0
H1211 H 0.37385 0.18979 0.57133 0.0
H1212 H 0.41572 0.16713 0.58054 0.0
S1213 S 0.33712 0.05413 0.59645 0.0
N1214 N 0.3247 0.08838 0.58733 0.0
N1215 N 0.37005 0.06407 0.59774 0.0
C1216 C 0.37232 0.0966 0.59033 0.0
C1217 C 0.34757 0.10996 0.58488 0.0
C1218 C 0.74386 0.67772 0.3711 0.0
C1219 C 0.74905 0.6436 0.37293 0.0
C1220 C 0.76427 0.70601 0.36808 0.0
C1221 C 0.79156 0.70244 0.36679 0.0
H1222 H 0.72351 0.68279 0.37166 0.0
H1223 H 0.75848 0.73091 0.36661 0.0
S1224 S 0.817 0.61946 0.37073 0.0
N1225 N 0.78459 0.60914 0.37316 0.0
N1226 N 0.82217 0.66083 0.36789 0.0
C1227 C 0.79703 0.66856 0.36883 0.0
C1228 C 0.77625 0.63985 0.37175 0.0
C1229 C 0.91844 0.43484 0.82971 0.0
C1230 C 0.91561 0.4683 0.84542 0.0
C1231 C 0.89918 0.40488 0.83005 0.0
C1232 C 0.87609 0.40595 0.84716 0.0
H1233 H 0.93597 0.43161 0.81694 0.0
H1234 H 0.90297 0.38032 0.81757 0.0
S1235 S 0.85835 0.48658 0.89257 0.0
N1236 N 0.88678 0.50008 0.87807 0.0
N1237 N 0.85165 0.44443 0.88002 0.0
C1238 C 0.8729 0.43923 0.86293 0.0
C1239 C 0.89219 0.46996 0.86171 0.0
C1240 C 0.11041 0.9088 0.14485 0.0
C1241 C 0.12651 0.91468 0.17764 0.0
C1242 C 0.10349 0.93614 0.12844 0.0
C1243 C 0.11307 0.97071 0.14342 0.0
H1244 H 0.10211 0.88275 0.13229 0.0
H1245 H 0.09035 0.9301 0.10379 0.0
S1246 S 0.1572 1.00036 0.22791 0.0
N1247 N 0.15237 0.95795 0.22409 0.0
N1248 N 0.14044 1.00925 0.19251 0.0
C1249 C 0.13007 0.97703 0.17553 0.0
C1250 C 0.13647 0.94911 0.1928 0.0
C1251 C 0.92588 0.30476 0.94788 0.0
C1252 C 0.94409 0.28232 0.93885 0.0
C1253 C 0.90082 0.30319 0.92742 0.0
C1254 C 0.89228 0.27867 0.89708 0.0
H1255 H 0.93108 0.32404 0.97111 0.0
H1256 H 0.88794 0.32134 0.93561 0.0
S1257 S 0.93187 0.21337 0.86171 0.0
N1258 N 0.9515 0.23471 0.89705 0.0
N1259 N 0.90439 0.23109 0.85904 0.0
C1260 C 0.91018 0.25587 0.88772 0.0
C1261 C 0.93601 0.25791 0.90834 0.0
C1262 C 0.5933 0.21142 0.66492 0.0
C1263 C 0.61877 0.22841 0.66061 0.0
C1264 C 0.58446 0.17648 0.65073 0.0
C1265 C 0.60092 0.157 0.63216 0.0
H1266 H 0.57977 0.22546 0.67839 0.0
H1267 H 0.56454 0.16468 0.6544 0.0
S1268 S 0.67022 0.18912 0.61581 0.0
N1269 N 0.66083 0.22282 0.63781 0.0
N1270 N 0.64449 0.15746 0.61164 0.0
C1271 C 0.62677 0.17357 0.62864 0.0
C1272 C 0.6356 0.20914 0.64271 0.0
C1273 C 0.62413 0.79602 0.45855 0.0
C1274 C 0.59969 0.78272 0.43647 0.0
C1275 C 0.64905 0.80037 0.44571 0.0
C1276 C 0.65104 0.79151 0.41005 0.0
H1277 H 0.62409 0.80378 0.4862 0.0
H1278 H 0.667 0.81096 0.46404 0.0
S1279 S 0.59339 0.75501 0.34084 0.0
N1280 N 0.57934 0.76007 0.37687 0.0
N1281 N 0.62602 0.76833 0.35274 0.0
C1282 C 0.62686 0.77746 0.38766 0.0
C1283 C 0.60133 0.77311 0.4008 0.0
C1284 C 0.16166 0.28917 0.56568 0.0
C1285 C 0.15056 0.29676 0.5336 0.0
C1286 C 0.15038 0.26015 0.57842 0.0
C1287 C 0.12813 0.23763 0.55909 0.0
H1288 H 0.1772 0.3076 0.58273 0.0
H1289 H 0.1578 0.25667 0.60453 0.0
S1290 S 0.09692 0.24049 0.46947 0.0
N1291 N 0.12022 0.27528 0.47951 0.0
N1292 N 0.09892 0.22064 0.50367 0.0
C1293 C 0.1196 0.24201 0.52487 0.0
C1294 C 0.13106 0.27159 0.51187 0.0
C1295 C 0.62251 0.20675 0.2153 0.0
C1296 C 0.61306 0.236 0.20607 0.0
C1297 C 0.65015 0.20691 0.22342 0.0
C1298 C 0.66912 0.23649 0.22294 0.0
H1299 H 0.60846 0.18368 0.21624 0.0
H1300 H 0.65672 0.18362 0.22983 0.0
S1301 S 0.65356 0.32069 0.20376 0.0
N1302 N 0.62396 0.29548 0.19827 0.0
N1303 N 0.67592 0.29659 0.21495 0.0
C1304 C 0.65961 0.26611 0.21431 0.0
C1305 C 0.63153 0.26565 0.20552 0.0
C1306 C 0.65545 0.97762 0.05235 0.0
C1307 C 0.63969 0.95995 1.02147 0.0
C1308 C 0.64401 0.99625 0.07813 0.0
C1309 C 0.61615 0.99713 0.07469 0.0
H1310 H 0.67656 0.97552 0.0574 0.0
H1311 H 0.65717 1.00985 0.10125 0.0
S1312 S 0.56661 0.956 0.99744 0.0
N1313 N 0.59567 0.94733 0.98684 0.0
N1314 N 0.57339 0.97729 0.03761 0.0
C1315 C 0.60031 0.9792 0.04384 0.0
C1316 C 0.61236 0.96246 1.01642 0.0
C1317 C 0.98303 0.7666 0.80869 0.0
C1318 C 0.99715 0.78381 0.78579 0.0
C1319 C 0.97019 0.78488 0.83335 0.0
C1320 C 0.97152 0.82081 0.83607 0.0
H1321 H 0.98071 0.73885 0.80629 0.0
H1322 H 0.95788 0.77055 0.84891 0.0
S1323 S 1.00929 0.8777 0.7847 0.0
N1324 N 1.01375 0.83856 0.76887 0.0
N1325 N 0.99049 0.87302 0.81604 0.0
C1326 C 0.98711 0.83832 0.81465 0.0
C1327 C 0.99972 0.81974 0.78929 0.0
C1328 C 0.17866 0.0366 0.98957 0.0
C1329 C 0.16897 0.04098 0.95499 0.0
C1330 C 0.16248 0.0376 1.01799 0.0
C1331 C 0.13523 0.04361 1.01473 0.0
H1332 H 0.19904 1.03166 0.99482 0.0
H1333 H 0.17152 0.03306 0.04296 0.0
S1334 S 0.09875 0.05612 0.93059 0.0
N1335 N 0.12887 0.05125 0.92051 0.0
N1336 N 0.09969 0.05323 0.97236 0.0
C1337 C 0.12538 0.04811 0.98047 0.0
C1338 C 0.1417 0.04689 0.95152 0.0
C1339 C 0.74107 0.35992 0.62357 0.0
C1340 C 0.75535 0.39064 0.61629 0.0
C1341 C 0.7511 0.34447 0.65101 0.0
C1342 C 0.77517 0.35984 0.67239 0.0
H1343 H 0.72414 0.34549 0.60534 0.0
H1344 H 0.74128 0.31906 0.65367 0.0
S1345 S 0.8147 0.44572 0.67146 0.0
N1346 N 0.79058 0.4401 0.6381 0.0
N1347 N 0.80942 0.41097 0.68985 0.0
C1348 C 0.78683 0.39331 0.66921 0.0
C1349 C 0.77666 0.40902 0.6412 0.0
C1350 C 0.4918 0.07206 0.46874 0.0
C1351 C 0.49865 0.07087 0.43419 0.0
C1352 C 0.51049 0.06817 0.49832 0.0
C1353 C 0.53748 0.063 0.49558 0.0
H1354 H 0.47172 0.07606 0.47313 0.0
H1355 H 0.50365 0.06939 0.52361 0.0
S1356 S 0.5663 0.05759 0.41173 0.0
N1357 N 0.53527 0.06374 0.40046 0.0
N1358 N 0.56918 0.0569 0.45398 0.0
C1359 C 0.5443 0.06178 0.4612 0.0
C1360 C 0.52546 0.06554 0.43143 0.0
C1361 C 0.7767 0.75888 0.18715 0.0
C1362 C 0.79137 0.73772 0.16754 0.0
C1363 C 0.78516 0.77166 0.22255 0.0
C1364 C 0.80894 0.76432 0.24 0.0
H1365 H 0.75834 0.76568 0.17507 0.0
H1366 H 0.77296 0.78772 0.23622 0.0
S1367 S 0.85486 0.71007 0.2006 0.0
N1368 N 0.83085 0.70977 0.16825 0.0
N1369 N 0.84704 0.73404 0.23478 0.0
C1370 C 0.82389 0.74312 0.22074 0.0
C1371 C 0.81501 0.72969 0.18462 0.0
C1372 C 0.15189 0.07148 0.75369 0.0
C1373 C 0.16087 0.04177 0.76421 0.0
C1374 C 0.13609 0.0714 0.72112 0.0
C1375 C 0.12774 0.04157 0.69564 0.0
H1376 H 0.15654 0.09559 0.7716 0.0
H1377 H 0.13008 0.09542 0.71613 0.0
S1378 S 0.14584 0.95602 0.70758 0.0
N1379 N 0.15994 0.98097 0.74451 0.0
N1380 N 0.13117 0.98081 0.68355 0.0
C1381 C 0.13723 1.0116 0.70496 0.0
C1382 C 0.15337 1.01166 0.73873 0.0
C1383 C 0.75492 0.34947 0.4295 0.0
C1384 C 0.77282 0.37964 0.44466 0.0
C1385 C 0.76412 0.32162 0.41099 0.0
C1386 C 0.79176 0.32201 0.40874 0.0
H1387 H 0.73374 0.34729 0.43225 0.0
H1388 H 0.74939 0.29957 0.39825 0.0
S1389 S 0.84656 0.39417 0.44822 0.0
N1390 N 0.81887 0.40884 0.45612 0.0
N1391 N 0.83663 0.35431 0.42779 0.0
C1392 C 0.8097 0.35136 0.4261 0.0
C1393 C 0.80011 0.38083 0.44203 0.0
C1394 C 0.51698 0.08798 0.24295 0.0
C1395 C 0.49222 0.06672 0.24496 0.0
C1396 C 0.53106 0.08503 0.21307 0.0
C1397 C 0.522 0.05995 0.18264 0.0
H1398 H 0.52642 0.10643 0.26566 0.0
H1399 H 0.54988 0.10234 0.21444 0.0
S1400 S 0.45843 0.99679 0.17294 0.0
N1401 N 0.45967 1.01887 0.21235 0.0
N1402 N 0.48532 1.01361 0.1571 0.0
C1403 C 0.49697 0.03884 0.18387 0.0
C1404 C 0.48258 0.04196 0.21446 0.0
C1405 C 0.79011 0.71014 0.95213 0.0
C1406 C 0.78026 0.72399 0.98241 0.0
C1407 C 0.79624 0.73015 0.92615 0.0
C1408 C 0.79287 0.76497 0.9293 0.0
H1409 H 0.79431 0.68407 0.94913 0.0
H1410 H 0.8048 0.7186 0.90415 0.0
S1411 S 0.76353 0.81204 1.00043 0.0
N1412 N 0.76444 0.77376 1.01169 0.0
N1413 N 0.77597 0.81103 0.96318 0.0
C1414 C 0.78139 0.77842 0.95825 0.0
C1415 C 0.77511 0.75808 0.98465 0.0
C1416 C 0.91941 0.08899 0.09569 0.0
C1417 C 0.90947 0.08798 0.12765 0.0
C1418 C 0.93202 0.06285 0.08093 0.0
C1419 C 0.93551 0.03448 0.09755 0.0
H1420 H 0.91775 0.11054 0.08196 0.0
H1421 H 0.94027 0.06588 0.057 0.0
S1422 S 0.9122 1.01887 0.18131 0.0
N1423 N 0.90286 0.05584 0.17509 0.0
N1424 N 0.92717 1.00631 0.14747 0.0
C1425 C 0.92506 1.03258 0.12924 0.0
C1426 C 0.91179 0.05932 0.14418 0.0
C1427 C 0.47132 0.45223 0.09151 0.0
C1428 C 0.45369 0.45944 0.11617 0.0
C1429 C 0.49699 0.47224 0.09323 0.0
C1430 C 0.50675 0.5003 0.12003 0.0
H1431 H 0.46521 0.43073 0.07042 0.0
H1432 H 0.5094 0.46547 0.07337 0.0
S1433 S 0.46912 0.53033 0.19161 0.0
N1434 N 0.44818 0.4971 0.16833 0.0
N1435 N 0.4964 0.53428 0.17212 0.0
C1436 C 0.48943 0.50788 0.14501 0.0
C1437 C 0.463 0.48771 0.14289 0.0
C1438 C 0.38749 0.65323 0.82634 0.0
C1439 C 0.41535 0.65652 0.8396 0.0
C1440 C 0.3721 0.68107 0.8302 0.0
C1441 C 0.38288 0.71496 0.8482 0.0
H1442 H 0.37712 0.62846 0.81253 0.0
H1443 H 0.35115 0.67565 0.8188 0.0
S1444 S 0.4549 0.73945 0.88826 0.0
N1445 N 0.4528 0.69843 0.87167 0.0
N1446 N 0.42463 0.74926 0.87908 0.0
C1447 C 0.41079 0.71875 0.86154 0.0
C1448 C 0.42657 0.69037 0.85731 0.0
C1449 C 0.28535 0.66169 0.64822 0.0
C1450 C 0.29999 0.69534 0.65738 0.0
C1451 C 0.25729 0.65514 0.64718 0.0
C1452 C 0.24264 0.68194 0.65525 0.0
H1453 H 0.29553 0.64018 0.64114 0.0
H1454 H 0.24691 0.62888 0.63934 0.0
S1455 S 0.27123 0.77431 0.6835 0.0
N1456 N 0.29755 0.75568 0.67654 0.0
N1457 N 0.24492 0.74312 0.67459 0.0
C1458 C 0.25698 0.71559 0.66516 0.0
C1459 C 0.28557 0.72233 0.66626 0.0
C1460 C 0.76225 0.94834 0.86078 0.0
C1461 C 0.73353 0.94291 0.85391 0.0
C1462 C 0.77811 0.92093 0.86068 0.0
C1463 C 0.76701 0.88512 0.85286 0.0
H1464 H 0.77294 0.97455 0.86679 0.0
H1465 H 0.79976 0.92825 0.86653 0.0
S1466 S 0.69283 0.8549 0.83154 0.0
N1467 N 0.69498 0.89715 0.83874 0.0
N1468 N 0.72397 0.84687 0.83722 0.0
C1469 C 0.73825 0.87919 0.84546 0.0
C1470 C 0.722 0.90729 0.84634 0.0
C1471 C 0.77576 0.94061 0.60856 0.0
C1472 C 0.80022 0.96178 0.62436 0.0
C1473 C 0.75146 0.95371 0.60325 0.0
C1474 C 0.75013 0.98881 0.61336 0.0
H1475 H 0.77538 0.91356 0.59933 0.0
H1476 H 0.73367 0.93617 0.59006 0.0
S1477 S 0.80768 0.05504 0.65884 0.0
N1478 N 0.82098 1.01965 0.65192 0.0
N1479 N 0.77554 0.0441 0.6425 0.0
C1480 C 0.77426 1.01015 0.63021 0.0
C1481 C 0.7991 0.99675 0.6356 0.0
C1482 C 0.38452 0.46105 0.83577 0.0
C1483 C 0.4119 0.45757 0.83492 0.0
C1484 C 0.36381 0.43255 0.8373 0.0
C1485 C 0.36866 0.39821 0.83798 0.0
H1486 H 0.37893 0.48626 0.83579 0.0
H1487 H 0.34351 0.43774 0.83824 0.0
S1488 S 0.4362 0.37336 0.83487 0.0
N1489 N 0.44192 0.41507 0.83395 0.0
N1490 N 0.40369 0.36313 0.83678 0.0
C1491 C 0.39577 0.39421 0.83669 0.0
C1492 C 0.41691 0.42314 0.83519 0.0
C1493 C 0.23641 0.67397 0.39013 0.0
C1494 C 0.23589 0.64103 0.37027 0.0
C1495 C 0.25514 0.70371 0.38731 0.0
C1496 C 0.27428 0.70307 0.36361 0.0
H1497 H 0.22188 0.67701 0.4081 0.0
H1498 H 0.254 0.72784 0.40333 0.0
S1499 S 0.28216 0.62384 0.30504 0.0
N1500 N 0.25732 0.61019 0.32622 0.0
N1501 N 0.29138 0.66538 0.32001 0.0
C1502 C 0.27415 0.67025 0.34369 0.0
C1503 C 0.25546 0.63971 0.34722 0.0
C1504 C 0.56226 0.68714 0.52631 0.0
C1505 C 0.53508 0.69126 0.52463 0.0
C1506 C 0.57136 0.65916 0.53961 0.0
C1507 C 0.55358 0.63373 0.55113 0.0
H1508 H 0.57685 0.70655 0.51885 0.0
H1509 H 0.59263 0.65773 0.54129 0.0
S1510 S 0.47984 0.63095 0.54886 0.0
N1511 N 0.49022 0.66669 0.53392 0.0
N1512 N 0.50696 0.61351 0.55734 0.0
C1513 C 0.5261 0.63673 0.54792 0.0
C1514 C 0.51697 0.66563 0.53515 0.0
C1515 C 0.7285 0.31369 0.74801 0.0
C1516 C 0.71056 0.33658 0.75637 0.0
C1517 C 0.75165 0.31239 0.77114 0.0
C1518 C 0.75869 0.335 0.80307 0.0
H1519 H 0.72438 0.29619 0.72346 0.0
H1520 H 0.76435 0.29376 0.76369 0.0
S1521 S 0.71883 0.40042 0.83712 0.0
N1522 N 0.70133 0.38207 0.79916 0.0
N1523 N 0.74544 0.38119 0.8417 0.0
C1524 C 0.74108 0.35836 0.81154 0.0
C1525 C 0.71694 0.35878 0.78848 0.0
C1526 C 0.05108 0.40058 1.00328 0.0
C1527 C 1.03415 0.3749 1.01541 0.0
C1528 C 0.05772 0.43418 1.02178 0.0
C1529 C 0.04714 0.44385 0.05271 0.0
H1530 H 0.06012 0.39444 0.97989 0.0
H1531 H 0.07132 0.45282 1.01174 0.0
S1532 S 1.00061 0.38707 0.09464 0.0
N1533 N 1.00635 0.3617 0.05999 0.0
N1534 N 1.01799 0.42548 0.09401 0.0
C1535 C 1.02938 0.41889 0.06454 0.0
C1536 C 1.02314 0.38426 0.04612 0.0
C1537 C 0.05534 0.80254 0.28703 0.0
C1538 C 0.05738 0.81933 0.25784 0.0
C1539 C 1.03073 0.79597 0.30059 0.0
C1540 C 1.00698 0.80605 0.28577 0.0
H1541 H 0.07279 0.79386 0.29922 0.0
H1542 H 1.03025 0.78228 0.32255 0.0
S1543 S 1.00209 0.85406 0.21118 0.0
N1544 N 1.03362 0.84761 0.2158 0.0
N1545 N 0.988 0.83621 0.24166 0.0
C1546 C 1.009 0.82369 0.25714 0.0
C1547 C 1.03395 0.83008 0.24316 0.0
C1548 C 0.57608 0.341 0.20481 0.0
C1549 C 0.55351 0.31596 0.19038 0.0
C1550 C 0.58937 0.36164 0.18389 0.0
C1551 C 0.58073 0.35729 0.14798 0.0
H1552 H 0.58352 0.34475 0.23235 0.0
H1553 H 0.60591 0.38183 0.19594 0.0
S1554 S 0.5221 0.29703 0.09778 0.0
N1555 N 0.52236 0.28946 0.13815 0.0
N1556 N 0.5483 0.32734 0.09886 0.0
C1557 C 0.55857 0.33217 0.13316 0.0
C1558 C 0.54462 0.31179 0.15442 0.0
C1559 C 0.04387 0.35246 0.51147 0.0
C1560 C 0.06115 0.38096 0.50477 0.0
C1561 C 1.01692 0.3448 0.49582 0.0
C1562 C 1.00624 0.36595 0.47367 0.0
H1563 H 0.05151 0.33518 0.52768 0.0
H1564 H 1.0045 0.32193 0.50078 0.0
S1565 S 0.04297 0.44576 0.45098 0.0
N1566 N 0.06584 0.43062 0.47504 0.0
N1567 N 1.01471 0.41865 0.44898 0.0
C1568 C 1.02322 0.39539 0.46814 0.0
C1569 C 0.05079 0.40231 0.48287 0.0
C1570 C 1.03393 0.65832 0.65292 0.0
C1571 C 1.00688 0.66274 0.64784 0.0
C1572 C 0.04452 0.63703 0.62839 0.0
C1573 C 1.02769 0.61588 0.60031 0.0
H1574 H 0.04734 0.67243 0.67531 0.0
H1575 H 0.06578 0.63612 0.63241 0.0
S1576 S 0.95479 0.61598 0.57617 0.0
N1577 N 0.96356 0.64528 0.61162 0.0
N1578 N 0.98233 0.60023 0.56867 0.0
C1579 C 1.00025 0.61888 0.59558 0.0
C1580 C 0.99 0.64296 0.61893 0.0
C1581 C 0.69216 0.81672 0.91797 0.0
C1582 C 0.66581 0.82376 0.91339 0.0
C1583 C 0.70068 0.79293 0.89364 0.0
C1584 C 0.68321 0.77561 0.86375 0.0
H1585 H 0.70617 0.8291 0.94081 0.0
H1586 H 0.72133 0.7886 0.89787 0.0
S1587 S 0.61268 0.78601 0.83881 0.0
N1588 N 0.62245 0.81223 0.87622 0.0
N1589 N 0.63884 0.76762 0.8303 0.0
C1590 C 0.65699 0.78272 0.85853 0.0
C1591 C 0.64819 0.80679 0.88343 0.0
C1592 C 0.51203 0.58995 0.73025 0.0
C1593 C 0.49855 0.55855 0.73818 0.0
C1594 C 0.52873 0.59153 0.70251 0.0
C1595 C 0.5335 0.56199 0.68 0.0
H1596 H 0.5108 0.61376 0.74672 0.0
H1597 H 0.53849 0.61667 0.6991 0.0
S1598 S 0.50444 0.47278 0.68929 0.0
N1599 N 0.49263 0.49666 0.72015 0.0
N1600 N 0.5228 0.49983 0.66955 0.0
C1601 C 0.52007 0.53057 0.68757 0.0
C1602 C 0.50324 0.52889 0.71581 0.0
C1603 C 0.85494 0.24086 0.08491 0.0
C1604 C 0.84726 0.205 0.0814 0.0
C1605 C 0.83925 0.26063 0.06748 0.0
C1606 C 0.81557 0.24517 0.04542 0.0
H1607 H 0.87352 0.25386 0.10079 0.0
H1608 H 0.84671 0.28788 0.0694 0.0
S1609 S 0.78527 0.15292 0.02911 0.0
N1610 N 0.81319 0.15513 0.05617 0.0
N1611 N 0.78412 0.19264 1.02208 0.0
C1612 C 0.80705 0.20961 0.04243 0.0
C1613 C 0.82289 0.18937 0.06059 0.0
C1614 C 0.11663 0.51552 0.2542 0.0
C1615 C 0.14479 0.52765 0.25931 0.0
C1616 C 0.09923 0.5175 0.2235 0.0
C1617 C 0.1083 0.53175 0.19487 0.0
H1618 H 0.10742 0.5061 0.27541 0.0
H1619 H 0.07789 0.50874 0.22289 0.0
S1620 S 0.18026 0.56672 0.19248 0.0
N1621 N 0.18084 0.55441 0.23114 0.0
N1622 N 0.1486 0.55709 0.17362 0.0
C1623 C 0.13663 0.54269 0.19854 0.0
C1624 C 0.15453 0.54103 0.23039 0.0
C1625 C 0.86926 0.84787 0.51932 0.0
C1626 C 0.86385 0.88178 0.52633 0.0
C1627 C 0.86406 0.82895 0.48531 0.0
C1628 C 0.85278 0.8431 0.45737 0.0
H1629 H 0.87709 0.8356 0.54036 0.0
H1630 H 0.868 0.80278 0.48108 0.0
S1631 S 0.83678 0.93123 0.46072 0.0
N1632 N 0.84826 0.92918 0.50142 0.0
N1633 N 0.83794 0.89331 0.43813 0.0
C1634 C 0.84807 0.87714 0.46373 0.0
C1635 C 0.85378 0.89659 0.49804 0.0
C1636 C 0.49126 0.58062 0.96014 0.0
C1637 C 0.49423 0.56304 0.92692 0.0
C1638 C 0.50831 0.57868 0.99155 0.0
C1639 C 0.5291 0.55827 0.99219 0.0
H1640 H 0.47587 0.5967 0.96193 0.0
H1641 H 0.50482 0.59305 1.01577 0.0
S1642 S 0.54553 0.50631 0.91297 0.0
N1643 N 0.52042 0.52445 0.89764 0.0
N1644 N 0.55095 0.51978 0.95543 0.0
C1645 C 0.53195 0.54024 0.95922 0.0
C1646 C 0.51511 0.54289 0.92725 0.0
C1647 C 0.87146 0.23199 0.24016 0.0
C1648 C 0.89826 0.23535 0.23309 0.0
C1649 C 0.86247 0.2585 0.26091 0.0
C1650 C 0.88032 0.28837 0.27697 0.0
H1651 H 0.85705 0.20931 0.22855 0.0
H1652 H 0.84169 0.25499 0.26518 0.0
S1653 S 0.95248 0.30963 0.26661 0.0
N1654 N 0.94222 0.27133 0.24261 0.0
N1655 N 0.926 0.32002 0.28395 0.0
C1656 C 0.90723 0.2918 0.27038 0.0
C1657 C 0.91609 0.26544 0.24824 0.0
C1658 C 0.16978 0.55352 0.48424 0.0
C1659 C 0.15814 0.54184 0.44882 0.0
C1660 C 0.15397 0.55848 0.51263 0.0
C1661 C 0.12521 0.55126 0.50816 0.0
H1662 H 0.1915 0.55938 0.49024 0.0
H1663 H 0.16459 0.5675 0.53866 0.0
S1664 S 0.08391 0.5192 0.42153 0.0
N1665 N 0.11504 0.52329 0.41216 0.0
N1666 N 0.08637 0.53094 0.4641 0.0
C1667 C 0.11348 0.539 0.47304 0.0
C1668 C 0.12945 0.53484 0.44416 0.0
C1669 C 0.84811 0.87729 0.72566 0.0
C1670 C 0.86972 0.86783 0.70884 0.0
C1671 C 0.84007 0.86192 0.7541 0.0
C1672 C 0.85321 0.83633 0.76662 0.0
H1673 H 0.83646 0.89539 0.71574 0.0
H1674 H 0.82257 0.86878 0.76511 0.0
S1675 S 0.91372 0.80667 0.73647 0.0
N1676 N 0.90638 0.83443 0.71077 0.0
N1677 N 0.89061 0.80528 0.76295 0.0
C1678 C 0.87574 0.82827 0.75162 0.0
C1679 C 0.88418 0.84409 0.72314 0.0
C1680 C 0.71961 0.51946 0.54076 0.0
C1681 C 0.74675 0.51726 0.55017 0.0
C1682 C 0.70845 0.54705 0.55581 0.0
C1683 C 0.72396 0.57347 0.58098 0.0
H1684 H 0.70658 0.49896 0.52282 0.0
H1685 H 0.68706 0.54645 0.54942 0.0
S1686 S 0.79674 0.58197 0.61203 0.0
N1687 N 0.7896 0.54558 0.58415 0.0
N1688 N 0.76827 0.59739 0.61256 0.0
C1689 C 0.75147 0.57271 0.58921 0.0
C1690 C 0.76297 0.54466 0.57371 0.0
C1691 C 0.18464 0.11755 0.53658 0.0
C1692 C 0.19426 0.14703 0.56181 0.0
C1693 C 0.15999 0.096 0.53786 0.0
C1694 C 0.14425 0.10244 0.56496 0.0
H1695 H 0.19588 0.11155 0.51522 0.0
H1696 H 0.15338 0.07387 0.51759 0.0
S1697 S 0.16115 0.17567 0.63818 0.0
N1698 N 0.186 0.18148 0.61464 0.0
N1699 N 0.14103 0.14015 0.61825 0.0
C1700 C 0.15409 0.13143 0.59072 0.0
C1701 C 0.17865 0.15387 0.5888 0.0
C1702 C 0.27811 0.95422 0.86127 0.0
C1703 C 0.24927 0.94822 0.85596 0.0
C1704 C 0.29447 0.92723 0.85844 0.0
C1705 C 0.2837 0.89146 0.84891 0.0
H1706 H 0.28849 0.98052 0.86828 0.0
H1707 H 0.31612 0.93481 0.86358 0.0
S1708 S 0.20955 0.85951 0.83231 0.0
N1709 N 0.21116 0.90166 0.84134 0.0
N1710 N 0.24096 0.85245 0.83489 0.0
C1711 C 0.25487 0.885 0.84342 0.0
C1712 C 0.23818 0.91251 0.84715 0.0
C1713 C 0.3651 0.87031 0.03469 0.0
C1714 C 0.34681 0.89371 0.03642 0.0
C1715 C 0.39285 0.88189 0.03606 0.0
C1716 C 0.40297 0.91703 0.03824 0.0
H1717 H 0.35798 0.84294 0.03227 0.0
H1718 H 0.40643 0.86332 0.03512 0.0
S1719 S 0.36445 0.989 0.04392 0.0
N1720 N 0.34164 0.95428 0.04145 0.0
N1721 N 0.39345 0.9751 0.04282 0.0
C1722 C 0.38522 0.94064 0.04036 0.0
C1723 C 0.35721 0.92922 0.03974 0.0
C1724 C 0.88757 0.66009 0.82477 0.0
C1725 C 0.913 0.66406 0.84604 0.0
C1726 C 0.87107 0.68674 0.82421 0.0
C1727 C 0.8782 0.71999 0.84514 0.0
H1728 H 0.88007 0.63568 0.80801 0.0
H1729 H 0.85214 0.68087 0.807 0.0
S1730 S 0.94084 0.7439 0.90951 0.0
N1731 N 0.9431 0.70471 0.89083 0.0
N1732 N 0.91276 0.75338 0.8903 0.0
C1733 C 0.90338 0.72419 0.86709 0.0
C1734 C 0.92034 0.69702 0.86741 0.0
C1735 C 0.87428 0.66166 0.08283 0.0
C1736 C 0.84864 0.64075 0.07719 0.0
C1737 C 0.89821 0.64787 0.089 0.0
C1738 C 0.89774 0.61245 0.08979 0.0
H1739 H 0.87594 0.6891 0.08294 0.0
H1740 H 0.91724 0.66533 0.0939 0.0
S1741 S 0.83604 0.54587 0.07347 0.0
N1742 N 0.82454 0.58226 0.07111 0.0
N1743 N 0.86912 0.55647 0.08186 0.0
C1744 C 0.87223 0.59115 0.08334 0.0
C1745 C 0.84789 0.60521 0.07728 0.0
C1746 C 0.24262 0.17974 0.87175 0.0
C1747 C 0.24797 0.14567 0.87337 0.0
C1748 C 0.26279 0.20802 0.86811 0.0
C1749 C 0.28998 0.2045 0.86601 0.0
H1750 H 0.22232 0.18479 0.87294 0.0
H1751 H 0.25687 0.23286 0.8667 0.0
S1752 S 0.31578 0.12164 0.86909 0.0
N1753 N 0.28354 0.11127 0.87246 0.0
N1754 N 0.32072 0.16299 0.86615 0.0
C1755 C 0.29563 0.17067 0.86784 0.0
C1756 C 0.27508 0.14193 0.87134 0.0
C1757 C 0.39446 0.96467 0.35969 0.0
C1758 C 0.41578 0.96445 0.33926 0.0
C1759 C 0.37574 0.93427 0.36071 0.0
C1760 C 0.37663 0.90188 0.3406 0.0
H1761 H 0.3928 0.9883 0.3762 0.0
H1762 H 0.36047 0.93618 0.37777 0.0
S1763 S 0.42751 0.88712 0.2812 0.0
N1764 N 0.43593 0.92837 0.29778 0.0
N1765 N 0.40077 0.87265 0.29864 0.0
C1766 C 0.39731 0.90169 0.31921 0.0
C1767 C 0.41673 0.93235 0.31886 0.0
C1768 C 0.63115 0.44484 0.69239 0.0
C1769 C 0.62385 0.41023 0.67606 0.0
C1770 C 0.62514 0.47215 0.675 0.0
C1771 C 0.61081 0.4658 0.64106 0.0
H1772 H 0.64135 0.45084 0.7189 0.0
H1773 H 0.63076 0.49831 0.68874 0.0
S1774 S 0.58737 0.38024 0.58647 0.0
N1775 N 0.60223 0.37162 0.62319 0.0
N1776 N 0.59013 0.42253 0.59158 0.0
C1777 C 0.6037 0.43147 0.62439 0.0
C1778 C 0.61043 0.40384 0.64157 0.0
C1779 C 0.43601 0.7584 0.41753 0.0
C1780 C 0.44596 0.78462 0.44617 0.0
C1781 C 0.41024 0.7565 0.39831 0.0
C1782 C 0.39343 0.7811 0.40641 0.0
H1783 H 0.44787 0.73865 0.41048 0.0
H1784 H 0.40357 0.73566 0.37668 0.0
S1785 S 0.41033 0.85575 0.47793 0.0
N1786 N 0.43683 0.83619 0.48106 0.0
N1787 N 0.38922 0.83293 0.44467 0.0
C1788 C 0.40339 0.80773 0.43452 0.0
C1789 C 0.42934 0.8094 0.45437 0.0
C1790 C 0.13029 0.71123 0.13867 0.0
C1791 C 0.11531 0.73053 0.1598 0.0
C1792 C 0.1219 0.6759 0.12685 0.0
C1793 C 0.09786 0.65833 0.13506 0.0
H1794 H 0.14881 0.72351 0.13119 0.0
H1795 H 0.1342 0.6624 0.11063 0.0
S1796 S 0.05135 0.69673 0.19005 0.0
N1797 N 0.07547 0.72922 0.18903 0.0
N1798 N 0.05938 0.66292 0.16639 0.0
C1799 C 0.0827 0.67723 0.15636 0.0
C1800 C 0.09152 0.71322 0.16888 0.0
C1801 C 0.09971 0.27467 0.899 0.0
C1802 C 0.0986 0.27874 0.93517 0.0
C1803 C 0.12455 0.2791 0.88555 0.0
C1804 C 0.14948 0.28737 0.90759 0.0
H1805 H 0.08123 0.26903 0.88089 0.0
H1806 H 0.1242 0.27626 0.85757 0.0
S1807 S 0.15795 0.30025 1.0043 0.0
N1808 N 0.12506 0.29084 0.99271 0.0
N1809 N 0.17114 0.29932 0.96762 0.0
C1810 C 0.1486 0.29073 0.94374 0.0
C1811 C 0.12341 0.2864 0.95742 0.0
C1812 C 0.64429 0.77075 0.03446 0.0
C1813 C 0.65786 0.80091 0.0562 0.0
C1814 C 0.63549 0.7416 0.0485 0.0
C1815 C 0.64058 0.74145 0.08454 0.0
H1816 H 0.6376 0.77069 1.00717 0.0
H1817 H 0.62232 0.72049 0.03138 0.0
S1818 S 0.68471 0.8088 0.14974 0.0
N1819 N 0.68272 0.82558 0.11348 0.0
N1820 N 0.66651 0.76989 0.13974 0.0
C1821 C 0.65813 0.76914 0.10539 0.0
C1822 C 0.66692 0.79909 0.09115 0.0
C1823 C 0.11629 0.71116 0.72191 0.0
C1824 C 0.10898 0.72845 0.6943 0.0
C1825 C 0.14341 0.7124 0.73481 0.0
C1826 C 0.16398 0.73169 0.72107 0.0
H1827 H 0.10093 0.69695 0.73388 0.0
H1828 H 0.14828 0.69916 0.75643 0.0
S1829 S 0.15542 0.78047 0.64778 0.0
N1830 N 0.12446 0.76417 0.65269 0.0
N1831 N 0.17538 0.7672 0.67752 0.0
C1832 C 0.15693 0.74852 0.69304 0.0
C1833 C 0.12942 0.74663 0.67942 0.0
C1834 C 0.11886 0.46684 0.54023 0.0
C1835 C 0.14645 0.46773 0.53953 0.0
C1836 C 0.109 0.48309 0.56889 0.0
C1837 C 0.12653 0.5044 0.59612 0.0
H1838 H 0.10475 0.45227 0.51901 0.0
H1839 H 0.08751 0.48087 0.56831 0.0
S1840 S 0.2012 0.5148 0.6075 0.0
N1841 N 0.19149 0.48855 0.57008 0.0
N1842 N 0.17333 0.52422 0.62185 0.0
C1843 C 0.15447 0.50566 0.59593 0.0
C1844 C 0.16436 0.4867 0.56784 0.0
C1845 C 0.48117 0.25055 0.32651 0.0
C1846 C 0.50659 0.26493 0.31989 0.0
C1847 C 0.46759 0.26879 0.35003 0.0
C1848 C 0.47869 0.30219 0.36737 0.0
H1849 H 0.47093 0.22614 0.31161 0.0
H1850 H 0.44724 0.25791 0.35221 0.0
S1851 S 0.54538 0.35064 0.35949 0.0
N1852 N 0.54309 0.31372 0.33312 0.0
N1853 N 0.51734 0.34818 0.37744 0.0
C1854 C 0.50476 0.31614 0.36221 0.0
C1855 C 0.51878 0.29738 0.33847 0.0
C1856 C 0.65855 0.566 0.46736 0.0
C1857 C 0.66955 0.53671 0.4533 0.0
C1858 C 0.64186 0.56618 0.49532 0.0
C1859 C 0.6339 0.53672 0.51113 0.0
H1860 H 0.66293 0.58948 0.45664 0.0
H1861 H 0.63468 0.58977 0.50414 0.0
S1862 S 0.65571 0.45236 0.48419 0.0
N1863 N 0.67013 0.47704 0.45869 0.0
N1864 N 0.63915 0.47683 0.50862 0.0
C1865 C 0.64458 0.50727 0.49694 0.0
C1866 C 0.662 0.50738 0.46916 0.0
C1867 C 0.26655 0.85116 0.13903 0.0
C1868 C 0.2613 0.83698 0.10357 0.0
C1869 C 0.28256 0.83662 0.16236 0.0
C1870 C 0.29426 0.80788 0.15081 0.0
H1871 H 0.25903 0.87434 0.14853 0.0
H1872 H 0.28633 0.84845 0.18953 0.0
S1873 S 0.28605 0.76033 0.0608 0.0
N1874 N 0.26785 0.79118 0.05831 0.0
N1875 N 0.29898 0.76511 0.10213 0.0
C1876 C 0.28834 0.79262 0.11575 0.0
C1877 C 0.27158 0.80688 0.0921 0.0
C1878 C 0.99227 0.57444 0.97295 0.0
C1879 C 0.99929 0.57381 0.93854 0.0
C1880 C 1.01089 0.57029 1.00247 0.0
C1881 C 1.03797 0.56555 0.99979 0.0
H1882 H 0.97211 0.57813 0.97726 0.0
H1883 H 1.00394 0.57101 0.02765 0.0
S1884 S 0.0672 0.56152 0.91628 0.0
N1885 N 1.03614 0.56751 0.90496 0.0
N1886 N 0.06993 0.56032 0.95842 0.0
C1887 C 0.04496 0.56488 0.96555 0.0
C1888 C 1.02619 0.5688 0.93584 0.0
C1889 C 0.31182 0.23497 0.68486 0.0
C1890 C 0.28649 0.23831 0.66817 0.0
C1891 C 0.31991 0.24801 0.72051 0.0
C1892 C 0.30283 0.2644 0.74099 0.0
H1893 H 0.3258 0.22319 0.67005 0.0
H1894 H 0.33977 0.24525 0.73204 0.0
S1895 S 0.2335 0.27711 0.70989 0.0
N1896 N 0.24386 0.25759 0.67505 0.0
N1897 N 0.25873 0.28162 0.74165 0.0
C1898 C 0.27709 0.26684 0.72465 0.0
C1899 C 0.26903 0.25394 0.6884 0.0
C1900 C 0.64758 0.50907 0.24072 0.0
C1901 C 0.66323 0.53898 0.26198 0.0
C1902 C 0.63156 0.51017 0.20801 0.0
C1903 C 0.62935 0.54138 0.19477 0.0
H1904 H 0.64663 0.48471 0.25013 0.0
H1905 H 0.61989 0.48633 0.19368 0.0
S1906 S 0.66674 0.62703 0.239 0.0
N1907 N 0.67566 0.60063 0.26541 0.0
N1908 N 0.64602 0.60278 0.20621 0.0
C1909 C 0.64539 0.57111 0.21548 0.0
C1910 C 0.66191 0.56988 0.24813 0.0
C1911 C 0.25053 0.8447 0.93686 0.0
C1912 C 0.26648 0.87592 0.95311 0.0
C1913 C 0.26163 0.81926 0.91786 0.0
C1914 C 0.2893 0.82352 0.91474 0.0
H1915 H 0.22956 0.83911 0.94056 0.0
H1916 H 0.24829 0.79569 0.90577 0.0
S1917 S 0.33927 0.90202 0.95095 0.0
N1918 N 0.31059 0.91151 0.96234 0.0
N1919 N 0.33216 0.86206 0.93004 0.0
C1920 C 0.30538 0.85489 0.93076 0.0
C1921 C 0.2937 0.88167 0.94859 0.0
C1922 C 1.01941 0.5934 0.74899 0.0
C1923 C 0.99539 0.57048 0.7508 0.0
C1924 C 1.03431 0.59086 0.71977 0.0
C1925 C 1.02697 0.56449 0.6901 0.0
H1926 H 1.02764 0.61291 0.77136 0.0
H1927 H 0.05247 0.60941 0.72114 0.0
S1928 S 0.96599 0.4969 0.68037 0.0
N1929 N 0.96546 0.5199 0.71883 0.0
N1930 N 0.99265 0.51512 0.66506 0.0
C1931 C 1.00272 0.54168 0.69123 0.0
C1932 C 0.98746 0.54449 0.72097 0.0
C1933 C 0.28318 0.26171 0.48742 0.0
C1934 C 0.28106 0.22552 0.48214 0.0
C1935 C 0.29004 0.28121 0.46141 0.0
C1936 C 0.29505 0.26555 0.42874 0.0
H1937 H 0.28051 0.27538 0.51241 0.0
H1938 H 0.29234 0.30897 0.46749 0.0
S1939 S 0.28916 0.17143 0.39974 0.0
N1940 N 0.28237 0.1747 0.44024 0.0
N1941 N 0.29507 0.21119 0.39154 0.0
C1942 C 0.29152 0.22928 0.42233 0.0
C1943 C 0.28459 0.20937 0.4489 0.0
C1944 C 0.40021 0.55955 0.62005 0.0
C1945 C 0.41529 0.59185 0.63545 0.0
C1946 C 0.4128 0.53351 0.60399 0.0
C1947 C 0.44077 0.539 0.60365 0.0
H1948 H 0.37846 0.55524 0.6182 0.0
H1949 H 0.40057 0.50963 0.59059 0.0
S1950 S 0.4892 0.61792 0.64221 0.0
N1951 N 0.45973 0.62688 0.651 0.0
N1952 N 0.48321 0.57798 0.62125 0.0
C1953 C 0.45611 0.57031 0.62075 0.0
C1954 C 0.44341 0.59674 0.63666 0.0
C1955 C 0.97142 0.95212 0.59052 0.0
C1956 C 0.95401 0.95924 0.61548 0.0
C1957 C 0.99711 0.9721 0.59198 0.0
C1958 C 1.00712 1.00002 0.61888 0.0
H1959 H 0.96513 0.93066 0.56941 0.0
H1960 H 1.00933 0.9654 0.57189 0.0
S1961 S 0.97006 1.02975 0.69126 0.0
N1962 N 0.94895 0.99668 0.668 0.0
N1963 N 0.99715 0.03375 0.67139 0.0
C1964 C 0.98997 1.00752 0.64413 0.0
C1965 C 0.96353 0.98741 0.64224 0.0
C1966 C 0.92535 0.18615 0.35657 0.0
C1967 C 0.91549 0.15361 0.33502 0.0
C1968 C 0.91011 0.21431 0.3598 0.0
C1969 C 0.88371 0.21257 0.34161 0.0
H1970 H 0.94507 0.18991 0.37176 0.0
H1971 H 0.91932 0.2379 0.37697 0.0
S1972 S 0.84848 0.13459 0.27959 0.0
N1973 N 0.87709 0.12301 0.29407 0.0
N1974 N 0.84953 0.1743 0.29946 0.0
C1975 C 0.87397 0.18039 0.31945 0.0
C1976 C 0.88934 0.15177 0.31643 0.0
C1977 C 0.7797 0.19861 0.13831 0.0
C1978 C 0.79687 0.18908 0.16465 0.0
C1979 C 0.75174 0.19109 0.13679 0.0
C1980 C 0.73989 0.17436 0.16199 0.0
H1981 H 0.78796 0.21118 0.11815 0.0
H1982 H 0.73937 0.19781 0.11522 0.0
S1983 S 0.77665 0.14787 0.23866 0.0
N1984 N 0.80063 0.16394 0.21746 0.0
N1985 N 0.74792 0.15123 0.21593 0.0
C1986 C 0.75704 0.16581 0.18925 0.0
C1987 C 0.78558 0.17284 0.19027 0.0
C1988 C 0.26353 0.44764 0.36798 0.0
C1989 C 0.23538 0.44293 0.35591 0.0
C1990 C 0.27916 0.41999 0.36699 0.0
C1991 C 0.26844 0.38483 0.35305 0.0
H1992 H 0.27387 0.47338 0.37883 0.0
H1993 H 0.30035 0.42662 0.37719 0.0
S1994 S 0.19632 0.35757 0.31416 0.0
N1995 N 0.19799 0.39905 0.32795 0.0
N1996 N 0.22675 0.34855 0.32443 0.0
C1997 C 0.24034 0.37986 0.34009 0.0
C1998 C 0.22425 0.40805 0.34194 0.0
C1999 C 0.2755 0.44302 0.11118 0.0
C2000 C 0.30039 0.46387 0.12577 0.0
C2001 C 0.25138 0.45664 0.10671 0.0
C2002 C 0.2507 0.49198 0.11643 0.0
H2003 H 0.27463 0.4158 0.10229 0.0
H2004 H 0.2332 0.43933 0.09445 0.0
S2005 S 0.30962 0.55764 0.15873 0.0
N2006 N 0.32228 0.52176 0.1518 0.0
N2007 N 0.27719 0.5472 0.14379 0.0
C2008 C 0.27527 0.51303 0.13207 0.0
C2009 C 0.29991 0.49908 0.13668 0.0
C2010 C 0.8851 0.95791 0.33398 0.0
C2011 C 0.91262 0.95486 0.33381 0.0
C2012 C 0.8646 0.92922 0.33556 0.0
C2013 C 0.86982 0.89514 0.337 0.0
H2014 H 0.87925 0.9829 0.33341 0.0
H2015 H 0.84417 0.93406 0.33593 0.0
S2016 S 0.93786 0.87145 0.33579 0.0
N2017 N 0.94319 0.91306 0.33425 0.0
N2018 N 0.90532 0.86076 0.33717 0.0
C2019 C 0.89707 0.89157 0.33637 0.0
C2020 C 0.918 0.92069 0.3348 0.0
C2021 C 0.73362 0.17438 0.88496 0.0
C2022 C 0.73407 0.14118 0.86629 0.0
C2023 C 0.75244 0.20419 0.88264 0.0
C2024 C 0.7728 0.20345 0.86067 0.0
H2025 H 0.71822 0.17758 0.90163 0.0
H2026 H 0.75044 0.22844 0.89773 0.0
S2027 S 0.78373 0.12352 0.80583 0.0
N2028 N 0.75781 0.10998 0.82528 0.0
N2029 N 0.79215 0.16531 0.82002 0.0
C2030 C 0.77371 0.17038 0.84196 0.0
C2031 C 0.75482 0.13974 0.84498 0.0
loop_
_geom_bond_atom_site_label_1
_geom_bond_atom_site_label_2
_geom_bond_distance
_geom_bond_site_symmetry_2
_ccdc_geom_bond_type
Co0 O1 2.216 . S
Co0 O2 2.091 . S
Co0 O4 2.004 . S
Co0 O10 2.021 . S
Co0 O12 2.137 . S
Co0 O13 2.244 . S
O1 Co0 2.216 . S
O1 C8 1.247 . S
O2 Co0 2.091 . S
O2 C8 1.261 . S
C3 O12 1.247 . S
C3 O13 1.272 . S
O4 Co0 2.004 . S
O4 C9 1.259 . S
Co5 O6 2.061 . S
Co5 O11 2.052 . S
Co5 O13 2.135 . S
O6 Co5 2.061 . S
O6 C9 1.235 . S
C7 O10 1.238 . S
C7 O11 1.241 . S
C8 O1 1.247 . S
C8 O2 1.261 . S
C9 O4 1.259 . S
C9 O6 1.235 . S
O10 Co0 2.021 . S
O10 C7 1.238 . S
O11 Co5 2.052 . S
O11 C7 1.241 . S
O12 Co0 2.137 . S
O12 C3 1.247 . S
O13 Co0 2.244 . S
O13 C3 1.272 . S
O13 Co5 2.135 . S
Co14 O15 2.216 1_455 S
Co14 O16 2.091 1_455 S
Co14 O18 2.004 . S
Co14 O24 2.021 . S
Co14 O26 2.137 . S
Co14 O27 2.244 . S
O15 Co14 2.216 1_655 S
O15 C22 1.247 . S
O16 Co14 2.091 1_655 S
O16 C22 1.261 . S
C17 O26 1.247 . S
C17 O27 1.272 . S
O18 Co14 2.004 . S
O18 C23 1.259 . S
Co19 O20 2.061 . S
Co19 O25 2.052 . S
Co19 O27 2.135 . S
O20 Co19 2.061 . S
O20 C23 1.235 . S
C21 O24 1.238 . S
C21 O25 1.241 . S
C22 O15 1.247 . S
C22 O16 1.261 . S
C23 O18 1.259 . S
C23 O20 1.235 . S
O24 Co14 2.021 . S
O24 C21 1.238 . S
O25 Co19 2.052 . S
O25 C21 1.241 . S
O26 Co14 2.137 . S
O26 C17 1.247 . S
O27 Co14 2.244 . S
O27 C17 1.272 . S
O27 Co19 2.135 . S
Co28 O29 2.216 1_556 S
Co28 O30 2.091 . S
Co28 O32 2.004 . S
Co28 O38 2.021 1_556 S
Co28 O40 2.138 1_556 S
Co28 O41 2.244 1_556 S
O29 Co28 2.216 1_554 S
O29 C36 1.247 1_554 S
O30 Co28 2.091 . S
O30 C36 1.261 . S
C31 O40 1.249 . S
C31 O41 1.272 . S
O32 Co28 2.004 . S
O32 C37 1.259 . S
Co33 O34 2.061 . S
Co33 O39 2.052 . S
Co33 O41 2.135 . S
O34 Co33 2.061 . S
O34 C37 1.235 1_554 S
C35 O38 1.238 . S
C35 O39 1.241 . S
C36 O29 1.247 1_556 S
C36 O30 1.261 . S
C37 O32 1.259 . S
C37 O34 1.235 1_556 S
O38 Co28 2.021 1_554 S
O38 C35 1.238 . S
O39 Co33 2.052 . S
O39 C35 1.241 . S
O40 Co28 2.138 1_554 S
O40 C31 1.249 . S
O41 Co28 2.244 1_554 S
O41 C31 1.272 . S
O41 Co33 2.135 . S
Co42 O43 2.216 . S
Co42 O44 2.091 . S
Co42 O46 2.004 . S
Co42 O52 2.021 . S
Co42 O54 2.137 . S
Co42 O55 2.244 . S
O43 Co42 2.216 . S
O43 C50 1.247 . S
O44 Co42 2.091 . S
O44 C50 1.261 . S
C45 O54 1.247 . S
C45 O55 1.272 . S
O46 Co42 2.004 . S
O46 C51 1.259 . S
Co47 O48 2.061 . S
Co47 O53 2.052 . S
Co47 O55 2.135 . S
O48 Co47 2.061 . S
O48 C51 1.235 . S
C49 O52 1.238 . S
C49 O53 1.241 . S
C50 O43 1.247 . S
C50 O44 1.261 . S
C51 O46 1.259 . S
C51 O48 1.235 . S
O52 Co42 2.021 . S
O52 C49 1.238 . S
O53 Co47 2.052 . S
O53 C49 1.241 . S
O54 Co42 2.137 . S
O54 C45 1.247 . S
O55 Co42 2.244 . S
O55 C45 1.272 . S
O55 Co47 2.135 . S
Co56 O57 2.216 . S
Co56 O58 2.091 . S
Co56 O60 2.004 . S
Co56 O66 2.021 . S
Co56 O68 2.137 . S
Co56 O69 2.244 . S
O57 Co56 2.216 . S
O57 C64 1.247 . S
O58 Co56 2.091 . S
O58 C64 1.261 . S
C59 O68 1.247 . S
C59 O69 1.272 . S
O60 Co56 2.004 . S
O60 C65 1.259 . S
Co61 O62 2.061 . S
Co61 O67 2.052 . S
Co61 O69 2.135 . S
O62 Co61 2.061 . S
O62 C65 1.235 . S
C63 O66 1.238 . S
C63 O67 1.241 . S
C64 O57 1.247 . S
C64 O58 1.261 . S
C65 O60 1.259 . S
C65 O62 1.235 . S
O66 Co56 2.021 . S
O66 C63 1.238 . S
O67 Co61 2.052 . S
O67 C63 1.241 . S
O68 Co56 2.137 . S
O68 C59 1.247 . S
O69 Co56 2.244 . S
O69 C59 1.272 . S
O69 Co61 2.135 . S
Co70 O71 2.216 . S
Co70 O72 2.091 . S
Co70 O74 2.004 . S
Co70 O80 2.021 . S
Co70 O82 2.137 . S
Co70 O83 2.244 . S
O71 Co70 2.216 . S
O71 C78 1.247 . S
O72 Co70 2.091 . S
O72 C78 1.261 . S
C73 O82 1.247 . S
C73 O83 1.272 . S
O74 Co70 2.004 . S
O74 C79 1.259 . S
Co75 O76 2.061 . S
Co75 O81 2.052 . S
Co75 O83 2.135 . S
O76 Co75 2.061 . S
O76 C79 1.235 . S
C77 O80 1.238 . S
C77 O81 1.241 . S
C78 O71 1.247 . S
C78 O72 1.261 . S
C79 O74 1.259 . S
C79 O76 1.235 . S
O80 Co70 2.021 . S
O80 C77 1.238 . S
O81 Co75 2.052 . S
O81 C77 1.241 . S
O82 Co70 2.137 . S
O82 C73 1.247 . S
O83 Co70 2.244 . S
O83 C73 1.272 . S
O83 Co75 2.135 . S
Co84 O85 2.216 . S
Co84 O86 2.091 . S
Co84 O88 2.004 . S
Co84 O94 2.021 . S
Co84 O96 2.137 . S
Co84 O97 2.244 . S
O85 Co84 2.216 . S
O85 C92 1.247 . S
O86 Co84 2.091 . S
O86 C92 1.261 . S
C87 O96 1.247 . S
C87 O97 1.272 . S
O88 Co84 2.004 . S
O88 C93 1.259 . S
Co89 O90 2.061 . S
Co89 O95 2.052 . S
Co89 O97 2.135 . S
O90 Co89 2.061 . S
O90 C93 1.235 . S
C91 O94 1.238 . S
C91 O95 1.241 . S
C92 O85 1.247 . S
C92 O86 1.261 . S
C93 O88 1.259 . S
C93 O90 1.235 . S
O94 Co84 2.021 . S
O94 C91 1.238 . S
O95 Co89 2.052 . S
O95 C91 1.241 . S
O96 Co84 2.137 . S
O96 C87 1.247 . S
O97 Co84 2.244 . S
O97 C87 1.272 . S
O97 Co89 2.135 . S
Co98 O99 2.216 . S
Co98 O100 2.091 . S
Co98 O102 2.004 1_455 S
Co98 O108 2.021 . S
Co98 O110 2.137 . S
Co98 O111 2.214 1_556 S
O99 Co98 2.216 . S
O99 C106 1.247 . S
O100 Co98 2.091 . S
O100 C106 1.261 . S
C101 O110 1.247 . S
C101 O111 1.251 1_556 S
O102 Co98 2.004 1_655 S
O102 C107 1.259 . S
Co103 O104 2.061 1_554 S
Co103 O109 2.052 . S
Co103 O111 2.153 1_655 S
O104 Co103 2.061 1_556 S
O104 C107 1.235 . S
C105 O108 1.233 1_655 S
C105 O109 1.250 1_556 S
C106 O99 1.247 . S
C106 O100 1.261 . S
C107 O102 1.259 . S
C107 O104 1.235 . S
O108 Co98 2.021 . S
O108 C105 1.233 1_455 S
O109 Co103 2.052 . S
O109 C105 1.250 1_554 S
O110 Co98 2.137 . S
O110 C101 1.247 . S
O111 Co98 2.214 1_554 S
O111 C101 1.251 1_554 S
O111 Co103 2.153 1_455 S
Co112 O113 2.216 . S
Co112 O114 2.091 . S
Co112 O116 2.004 1_545 S
Co112 O122 2.021 . S
Co112 O124 2.137 . S
Co112 O125 2.244 . S
O113 Co112 2.216 . S
O113 C120 1.247 . S
O114 Co112 2.091 . S
O114 C120 1.261 . S
C115 O124 1.247 . S
C115 O125 1.272 . S
O116 Co112 2.004 1_565 S
O116 C121 1.259 . S
Co117 O118 2.061 . S
Co117 O123 2.052 1_565 S
Co117 O125 2.135 1_565 S
O118 Co117 2.061 . S
O118 C121 1.235 . S
C119 O122 1.238 . S
C119 O123 1.241 . S
C120 O113 1.247 . S
C120 O114 1.261 . S
C121 O116 1.259 . S
C121 O118 1.235 . S
O122 Co112 2.021 . S
O122 C119 1.238 . S
O123 Co117 2.052 1_545 S
O123 C119 1.241 . S
O124 Co112 2.137 . S
O124 C115 1.247 . S
O125 Co112 2.244 . S
O125 C115 1.272 . S
O125 Co117 2.135 1_545 S
Co126 O127 2.216 . S
Co126 O128 2.091 . S
Co126 O130 2.004 . S
Co126 O136 2.021 . S
Co126 O138 2.137 . S
Co126 O139 2.244 . S
O127 Co126 2.216 . S
O127 C134 1.247 . S
O128 Co126 2.091 . S
O128 C134 1.261 . S
C129 O138 1.247 . S
C129 O139 1.272 . S
O130 Co126 2.004 . S
O130 C135 1.259 . S
Co131 O132 2.061 . S
Co131 O137 2.052 . S
Co131 O139 2.135 . S
O132 Co131 2.061 . S
O132 C135 1.235 . S
C133 O136 1.238 . S
C133 O137 1.241 . S
C134 O127 1.247 . S
C134 O128 1.261 . S
C135 O130 1.259 . S
C135 O132 1.235 . S
O136 Co126 2.021 . S
O136 C133 1.238 . S
O137 Co131 2.052 . S
O137 C133 1.241 . S
O138 Co126 2.137 . S
O138 C129 1.247 . S
O139 Co126 2.244 . S
O139 C129 1.272 . S
O139 Co131 2.135 . S
Co140 O141 2.216 . S
Co140 O142 2.091 . S
Co140 O144 2.004 1_565 S
Co140 O150 2.021 . S
Co140 O152 2.141 1_565 S
Co140 O153 2.244 1_565 S
O141 Co140 2.216 . S
O141 C148 1.247 . S
O142 Co140 2.091 . S
O142 C148 1.261 . S
C143 O152 1.255 . S
C143 O153 1.272 . S
O144 Co140 2.004 1_545 S
O144 C149 1.259 . S
Co145 O146 2.061 . S
Co145 O151 2.052 . S
Co145 O153 2.135 . S
O146 Co145 2.061 . S
O146 C149 1.235 . S
C147 O150 1.251 . S
C147 O151 1.225 1_565 S
C148 O141 1.247 . S
C148 O142 1.261 . S
C149 O144 1.259 . S
C149 O146 1.235 . S
O150 Co140 2.021 . S
O150 C147 1.251 . S
O151 Co145 2.052 . S
O151 C147 1.225 1_545 S
O152 Co140 2.141 1_545 S
O152 C143 1.255 . S
O153 Co140 2.244 1_545 S
O153 C143 1.272 . S
O153 Co145 2.135 . S
Co154 O155 2.216 . S
Co154 O156 2.091 1_556 S
Co154 O158 2.004 1_556 S
Co154 O164 2.021 1_556 S
Co154 O166 2.137 . S
Co154 O167 2.244 . S
O155 Co154 2.216 . S
O155 C162 1.247 1_556 S
O156 Co154 2.091 1_554 S
O156 C162 1.261 . S
C157 O166 1.247 . S
C157 O167 1.272 . S
O158 Co154 2.004 1_554 S
O158 C163 1.259 . S
Co159 O160 2.061 1_556 S
Co159 O165 2.052 1_556 S
Co159 O167 2.135 . S
O160 Co159 2.061 1_554 S
O160 C163 1.235 . S
C161 O164 1.238 . S
C161 O165 1.241 . S
C162 O155 1.247 1_554 S
C162 O156 1.261 . S
C163 O158 1.259 . S
C163 O160 1.235 . S
O164 Co154 2.021 1_554 S
O164 C161 1.238 . S
O165 Co159 2.052 1_554 S
O165 C161 1.241 . S
O166 Co154 2.137 . S
O166 C157 1.247 . S
O167 Co154 2.244 . S
O167 C157 1.272 . S
O167 Co159 2.135 . S
Co168 O169 2.216 . S
Co168 O170 2.091 . S
Co168 O172 2.004 . S
Co168 O178 2.021 . S
Co168 O180 2.137 . S
Co168 O181 2.244 . S
O169 Co168 2.216 . S
O169 C176 1.247 . S
O170 Co168 2.091 . S
O170 C176 1.261 . S
C171 O180 1.247 . S
C171 O181 1.272 . S
O172 Co168 2.004 . S
O172 C177 1.259 . S
Co173 O174 2.061 . S
Co173 O179 2.052 . S
Co173 O181 2.135 . S
O174 Co173 2.061 . S
O174 C177 1.235 . S
C175 O178 1.238 . S
C175 O179 1.241 . S
C176 O169 1.247 . S
C176 O170 1.261 . S
C177 O172 1.259 . S
C177 O174 1.235 . S
O178 Co168 2.021 . S
O178 C175 1.238 . S
O179 Co173 2.052 . S
O179 C175 1.241 . S
O180 Co168 2.137 . S
O180 C171 1.247 . S
O181 Co168 2.244 . S
O181 C171 1.272 . S
O181 Co173 2.135 . S
Co182 O183 2.216 . S
Co182 O184 2.091 . S
Co182 O186 2.004 . S
Co182 O192 2.021 . S
Co182 O194 2.137 . S
Co182 O195 2.244 . S
O183 Co182 2.216 . S
O183 C190 1.247 . S
O184 Co182 2.091 . S
O184 C190 1.261 . S
C185 O194 1.247 . S
C185 O195 1.272 . S
O186 Co182 2.004 . S
O186 C191 1.259 . S
Co187 O188 2.061 . S
Co187 O193 2.052 . S
Co187 O195 2.135 . S
O188 Co187 2.061 . S
O188 C191 1.235 . S
C189 O192 1.238 . S
C189 O193 1.241 . S
C190 O183 1.247 . S
C190 O184 1.261 . S
C191 O186 1.259 . S
C191 O188 1.235 . S
O192 Co182 2.021 . S
O192 C189 1.238 . S
O193 Co187 2.052 . S
O193 C189 1.241 . S
O194 Co182 2.137 . S
O194 C185 1.247 . S
O195 Co182 2.244 . S
O195 C185 1.272 . S
O195 Co187 2.135 . S
Co196 O197 2.216 . S
Co196 O198 2.091 . S
Co196 O200 2.004 . S
Co196 O206 2.021 . S
Co196 O208 2.137 . S
Co196 O209 2.244 . S
O197 Co196 2.216 . S
O197 C204 1.247 . S
O198 Co196 2.091 . S
O198 C204 1.261 . S
C199 O208 1.247 . S
C199 O209 1.272 . S
O200 Co196 2.004 . S
O200 C205 1.259 . S
Co201 O202 2.061 . S
Co201 O207 2.052 . S
Co201 O209 2.135 . S
O202 Co201 2.061 . S
O202 C205 1.235 . S
C203 O206 1.238 . S
C203 O207 1.241 . S
C204 O197 1.247 . S
C204 O198 1.261 . S
C205 O200 1.259 . S
C205 O202 1.235 . S
O206 Co196 2.021 . S
O206 C203 1.238 . S
O207 Co201 2.052 . S
O207 C203 1.241 . S
O208 Co196 2.137 . S
O208 C199 1.247 . S
O209 Co196 2.244 . S
O209 C199 1.272 . S
O209 Co201 2.135 . S
Co210 O211 2.216 . S
Co210 O212 2.091 . S
Co210 O214 2.004 . S
Co210 O220 2.021 . S
Co210 O222 2.137 . S
Co210 O223 2.244 . S
O211 Co210 2.216 . S
O211 C218 1.247 . S
O212 Co210 2.091 . S
O212 C218 1.261 . S
C213 O222 1.247 . S
C213 O223 1.272 . S
O214 Co210 2.004 . S
O214 C219 1.259 . S
Co215 O216 2.061 . S
Co215 O221 2.052 . S
Co215 O223 2.135 . S
O216 Co215 2.061 . S
O216 C219 1.235 . S
C217 O220 1.238 . S
C217 O221 1.241 . S
C218 O211 1.247 . S
C218 O212 1.261 . S
C219 O214 1.259 . S
C219 O216 1.235 . S
O220 Co210 2.021 . S
O220 C217 1.238 . S
O221 Co215 2.052 . S
O221 C217 1.241 . S
O222 Co210 2.137 . S
O222 C213 1.247 . S
O223 Co210 2.244 . S
O223 C213 1.272 . S
O223 Co215 2.135 . S
Co224 O225 2.216 . S
Co224 O226 2.091 . S
Co224 O228 2.004 1_545 S
Co224 O234 2.021 . S
Co224 O236 2.137 . S
Co224 O237 2.244 . S
O225 Co224 2.216 . S
O225 C232 1.247 . S
O226 Co224 2.091 . S
O226 C232 1.261 . S
C227 O236 1.247 . S
C227 O237 1.272 . S
O228 Co224 2.004 1_565 S
O228 C233 1.259 . S
Co229 O230 2.061 . S
Co229 O235 2.052 1_565 S
Co229 O237 2.135 1_565 S
O230 Co229 2.061 . S
O230 C233 1.235 . S
C231 O234 1.238 . S
C231 O235 1.241 . S
C232 O225 1.247 . S
C232 O226 1.261 . S
C233 O228 1.259 . S
C233 O230 1.235 . S
O234 Co224 2.021 . S
O234 C231 1.238 . S
O235 Co229 2.052 1_545 S
O235 C231 1.241 . S
O236 Co224 2.137 . S
O236 C227 1.247 . S
O237 Co224 2.244 . S
O237 C227 1.272 . S
O237 Co229 2.135 1_545 S
Co238 O239 2.216 . S
Co238 O240 2.091 . S
Co238 O242 2.004 . S
Co238 O248 2.021 . S
Co238 O250 2.137 . S
Co238 O251 2.244 . S
O239 Co238 2.216 . S
O239 C246 1.247 . S
O240 Co238 2.091 . S
O240 C246 1.261 . S
C241 O250 1.247 . S
C241 O251 1.272 . S
O242 Co238 2.004 . S
O242 C247 1.259 . S
Co243 O244 2.061 . S
Co243 O249 2.052 . S
Co243 O251 2.135 . S
O244 Co243 2.061 . S
O244 C247 1.235 . S
C245 O248 1.238 . S
C245 O249 1.241 . S
C246 O239 1.247 . S
C246 O240 1.261 . S
C247 O242 1.259 . S
C247 O244 1.235 . S
O248 Co238 2.021 . S
O248 C245 1.238 . S
O249 Co243 2.052 . S
O249 C245 1.241 . S
O250 Co238 2.137 . S
O250 C241 1.247 . S
O251 Co238 2.244 . S
O251 C241 1.272 . S
O251 Co243 2.135 . S
Co252 O253 2.216 . S
Co252 O254 2.091 . S
Co252 O256 2.004 . S
Co252 O262 2.021 . S
Co252 O264 2.137 . S
Co252 O265 2.244 . S
O253 Co252 2.216 . S
O253 C260 1.247 . S
O254 Co252 2.091 . S
O254 C260 1.261 . S
C255 O264 1.247 . S
C255 O265 1.272 . S
O256 Co252 2.004 . S
O256 C261 1.259 . S
Co257 O258 2.061 . S
Co257 O263 2.052 . S
Co257 O265 2.135 . S
O258 Co257 2.061 . S
O258 C261 1.235 . S
C259 O262 1.238 . S
C259 O263 1.241 . S
C260 O253 1.247 . S
C260 O254 1.261 . S
C261 O256 1.259 . S
C261 O258 1.235 . S
O262 Co252 2.021 . S
O262 C259 1.238 . S
O263 Co257 2.052 . S
O263 C259 1.241 . S
O264 Co252 2.137 . S
O264 C255 1.247 . S
O265 Co252 2.244 . S
O265 C255 1.272 . S
O265 Co257 2.135 . S
Co266 O267 2.216 1_545 S
Co266 O268 2.091 1_545 S
Co266 O270 2.004 . S
Co266 O276 2.017 . S
Co266 O278 2.137 . S
Co266 O279 2.244 . S
O267 Co266 2.216 1_565 S
O267 C274 1.247 . S
O268 Co266 2.091 1_565 S
O268 C274 1.261 . S
C269 O278 1.247 . S
C269 O279 1.272 . S
O270 Co266 2.004 . S
O270 C275 1.259 . S
Co271 O272 2.061 . S
Co271 O277 2.052 . S
Co271 O279 2.135 . S
O272 Co271 2.061 . S
O272 C275 1.235 . S
C273 O276 1.245 . S
C273 O277 1.241 . S
C274 O267 1.247 . S
C274 O268 1.261 . S
C275 O270 1.259 . S
C275 O272 1.235 . S
O276 Co266 2.017 . S
O276 C273 1.245 . S
O277 Co271 2.052 . S
O277 C273 1.241 . S
O278 Co266 2.137 . S
O278 C269 1.247 . S
O279 Co266 2.244 . S
O279 C269 1.272 . S
O279 Co271 2.135 . S
Co280 O281 2.216 . S
Co280 O282 2.091 . S
Co280 O284 2.004 . S
Co280 O290 2.021 . S
Co280 O292 2.137 . S
Co280 O293 2.244 . S
O281 Co280 2.216 . S
O281 C288 1.247 . S
O282 Co280 2.091 . S
O282 C288 1.261 . S
C283 O292 1.247 . S
C283 O293 1.272 . S
O284 Co280 2.004 . S
O284 C289 1.259 . S
Co285 O286 2.061 . S
Co285 O291 2.052 . S
Co285 O293 2.135 . S
O286 Co285 2.061 . S
O286 C289 1.235 . S
C287 O290 1.238 . S
C287 O291 1.241 . S
C288 O281 1.247 . S
C288 O282 1.261 . S
C289 O284 1.259 . S
C289 O286 1.235 . S
O290 Co280 2.021 . S
O290 C287 1.238 . S
O291 Co285 2.052 . S
O291 C287 1.241 . S
O292 Co280 2.137 . S
O292 C283 1.247 . S
O293 Co280 2.244 . S
O293 C283 1.272 . S
O293 Co285 2.135 . S
Co294 O295 2.216 . S
Co294 O296 2.091 . S
Co294 O298 2.004 . S
Co294 O304 2.021 . S
Co294 O306 2.137 . S
Co294 O307 2.244 . S
O295 Co294 2.216 . S
O295 C302 1.247 . S
O296 Co294 2.091 . S
O296 C302 1.261 . S
C297 O306 1.247 . S
C297 O307 1.272 . S
O298 Co294 2.004 . S
O298 C303 1.259 . S
Co299 O300 2.061 . S
Co299 O305 2.052 . S
Co299 O307 2.135 . S
O300 Co299 2.061 . S
O300 C303 1.235 . S
C301 O304 1.238 . S
C301 O305 1.241 . S
C302 O295 1.247 . S
C302 O296 1.261 . S
C303 O298 1.259 . S
C303 O300 1.235 . S
O304 Co294 2.021 . S
O304 C301 1.238 . S
O305 Co299 2.052 . S
O305 C301 1.241 . S
O306 Co294 2.137 . S
O306 C297 1.247 . S
O307 Co294 2.244 . S
O307 C297 1.272 . S
O307 Co299 2.135 . S
Co308 O309 2.216 . S
Co308 O310 2.091 . S
Co308 O312 2.004 . S
Co308 O318 2.021 . S
Co308 O320 2.137 . S
Co308 O321 2.244 . S
O309 Co308 2.216 . S
O309 C316 1.247 . S
O310 Co308 2.091 . S
O310 C316 1.261 . S
C311 O320 1.247 . S
C311 O321 1.272 . S
O312 Co308 2.004 . S
O312 C317 1.259 . S
Co313 O314 2.061 . S
Co313 O319 2.052 . S
Co313 O321 2.135 . S
O314 Co313 2.061 . S
O314 C317 1.235 . S
C315 O318 1.238 . S
C315 O319 1.241 . S
C316 O309 1.247 . S
C316 O310 1.261 . S
C317 O312 1.259 . S
C317 O314 1.235 . S
O318 Co308 2.021 . S
O318 C315 1.238 . S
O319 Co313 2.052 . S
O319 C315 1.241 . S
O320 Co308 2.137 . S
O320 C311 1.247 . S
O321 Co308 2.244 . S
O321 C311 1.272 . S
O321 Co313 2.135 . S
Co322 O323 2.216 . S
Co322 O324 2.091 . S
Co322 O326 2.004 . S
Co322 O332 2.021 . S
Co322 O334 2.137 . S
Co322 O335 2.244 . S
O323 Co322 2.216 . S
O323 C330 1.247 . S
O324 Co322 2.091 . S
O324 C330 1.261 . S
C325 O334 1.247 . S
C325 O335 1.272 . S
O326 Co322 2.004 . S
O326 C331 1.259 . S
Co327 O328 2.061 . S
Co327 O333 2.052 . S
Co327 O335 2.135 . S
O328 Co327 2.061 . S
O328 C331 1.235 . S
C329 O332 1.238 . S
C329 O333 1.241 . S
C330 O323 1.247 . S
C330 O324 1.261 . S
C331 O326 1.259 . S
C331 O328 1.235 . S
O332 Co322 2.021 . S
O332 C329 1.238 . S
O333 Co327 2.052 . S
O333 C329 1.241 . S
O334 Co322 2.137 . S
O334 C325 1.247 . S
O335 Co322 2.244 . S
O335 C325 1.272 . S
O335 Co327 2.135 . S
C336 Eu337 2.835 . S
C336 C338 1.500 1_545 S
C336 O356 1.257 1_545 S
C336 O357 1.260 . S
Eu337 C336 2.835 . S
Eu337 O356 2.473 1_545 S
Eu337 O357 2.480 . S
Eu337 O358 2.430 . S
Eu337 O359 2.670 . S
Eu337 O360 2.394 1_545 S
Eu337 O365 2.355 . S
Eu337 O367 2.374 . S
C338 C336 1.500 1_565 S
C338 C339 1.377 . S
C338 C343 1.377 . S
C339 C338 1.377 . S
C339 C340 1.395 . S
C339 H368 0.936 . S
C340 C339 1.395 . S
C340 C341 1.383 . S
C340 H369 0.931 . S
C341 C340 1.383 . S
C341 C342 1.394 . S
C342 C341 1.394 . S
C342 C343 1.378 . S
C342 H370 0.931 . S
C343 C338 1.377 . S
C343 C342 1.378 . S
C343 H371 0.931 . S
C344 O358 1.259 . S
C344 O359 1.270 . S
C345 O360 1.251 . S
C345 O361 1.251 . S
C346 Eu347 2.835 1_655 S
C346 C348 1.500 . S
C346 O362 1.257 . S
C346 O363 1.260 . S
Eu347 C346 2.835 1_455 S
Eu347 O359 2.355 . S
Eu347 O361 2.374 1_545 S
Eu347 O362 2.473 1_455 S
Eu347 O363 2.480 1_455 S
Eu347 O364 2.430 1_545 S
Eu347 O365 2.670 . S
Eu347 O366 2.394 . S
C348 C346 1.500 . S
C348 C349 1.377 . S
C348 C353 1.377 . S
C349 C348 1.377 . S
C349 C350 1.395 . S
C349 H372 0.931 1_554 S
C350 C349 1.395 . S
C350 C351 1.383 . S
C350 H373 0.931 1_554 S
C351 C350 1.383 . S
C351 C352 1.394 . S
C352 C351 1.394 . S
C352 C353 1.378 . S
C352 H374 0.931 . S
C353 C348 1.377 . S
C353 C352 1.378 . S
C353 H375 0.931 . S
C354 O364 1.259 1_545 S
C354 O365 1.270 . S
C355 O366 1.251 . S
C355 O367 1.251 . S
O356 C336 1.257 1_565 S
O356 Eu337 2.473 1_565 S
O357 C336 1.260 . S
O357 Eu337 2.480 . S
O358 Eu337 2.430 . S
O358 C344 1.259 . S
O359 Eu337 2.670 . S
O359 C344 1.270 . S
O359 Eu347 2.355 . S
O360 Eu337 2.394 1_565 S
O360 C345 1.251 . S
O361 C345 1.251 . S
O361 Eu347 2.374 1_565 S
O362 C346 1.257 . S
O362 Eu347 2.473 1_655 S
O363 C346 1.260 . S
O363 Eu347 2.480 1_655 S
O364 Eu347 2.430 1_565 S
O364 C354 1.259 1_565 S
O365 Eu337 2.355 . S
O365 Eu347 2.670 . S
O365 C354 1.270 . S
O366 Eu347 2.394 . S
O366 C355 1.251 . S
O367 Eu337 2.374 . S
O367 C355 1.251 . S
H368 C339 0.936 . S
H369 C340 0.931 . S
H370 C342 0.931 . S
H371 C343 0.931 . S
H372 C349 0.931 1_556 S
H373 C350 0.931 1_556 S
H374 C352 0.931 . S
H375 C353 0.931 . S
C376 Eu377 2.835 . S
C376 C378 1.500 . S
C376 O396 1.257 . S
C376 O397 1.260 . S
Eu377 C376 2.835 . S
Eu377 O396 2.473 . S
Eu377 O397 2.480 . S
Eu377 O398 2.430 . S
Eu377 O399 2.670 . S
Eu377 O400 2.394 . S
Eu377 O405 2.355 . S
Eu377 O407 2.374 . S
C378 C376 1.500 . S
C378 C379 1.377 . S
C378 C383 1.377 . S
C379 C378 1.377 . S
C379 C380 1.395 . S
C379 H408 0.931 . S
C380 C379 1.395 . S
C380 C381 1.383 . S
C380 H409 0.931 . S
C381 C380 1.383 . S
C381 C382 1.394 . S
C382 C381 1.394 . S
C382 C383 1.378 . S
C382 H410 0.931 . S
C383 C378 1.377 . S
C383 C382 1.378 . S
C383 H411 0.931 . S
C384 O398 1.259 . S
C384 O399 1.270 . S
C385 O400 1.251 . S
C385 O401 1.251 . S
C386 Eu387 2.835 . S
C386 C388 1.500 . S
C386 O402 1.257 . S
C386 O403 1.260 . S
Eu387 C386 2.835 . S
Eu387 O399 2.355 . S
Eu387 O401 2.374 . S
Eu387 O402 2.473 . S
Eu387 O403 2.480 . S
Eu387 O404 2.430 . S
Eu387 O405 2.670 . S
Eu387 O406 2.394 . S
C388 C386 1.500 . S
C388 C389 1.377 . S
C388 C393 1.377 . S
C389 C388 1.377 . S
C389 C390 1.395 . S
C389 H412 0.931 . S
C390 C389 1.395 . S
C390 C391 1.383 . S
C390 H413 0.931 . S
C391 C390 1.383 . S
C391 C392 1.394 . S
C392 C391 1.394 . S
C392 C393 1.378 . S
C392 H414 0.931 . S
C393 C388 1.377 . S
C393 C392 1.378 . S
C393 H415 0.931 . S
C394 O404 1.259 . S
C394 O405 1.270 . S
C395 O406 1.251 . S
C395 O407 1.251 . S
O396 C376 1.257 . S
O396 Eu377 2.473 . S
O397 C376 1.260 . S
O397 Eu377 2.480 . S
O398 Eu377 2.430 . S
O398 C384 1.259 . S
O399 Eu377 2.670 . S
O399 C384 1.270 . S
O399 Eu387 2.355 . S
O400 Eu377 2.394 . S
O400 C385 1.251 . S
O401 C385 1.251 . S
O401 Eu387 2.374 . S
O402 C386 1.257 . S
O402 Eu387 2.473 . S
O403 C386 1.260 . S
O403 Eu387 2.480 . S
O404 Eu387 2.430 . S
O404 C394 1.259 . S
O405 Eu377 2.355 . S
O405 Eu387 2.670 . S
O405 C394 1.270 . S
O406 Eu387 2.394 . S
O406 C395 1.251 . S
O407 Eu377 2.374 . S
O407 C395 1.251 . S
H408 C379 0.931 . S
H409 C380 0.931 . S
H410 C382 0.931 . S
H411 C383 0.931 . S
H412 C389 0.931 . S
H413 C390 0.931 . S
H414 C392 0.931 . S
H415 C393 0.931 . S
C416 Eu417 2.835 . S
C416 C418 1.500 . S
C416 O436 1.257 . S
C416 O437 1.260 . S
Eu417 C416 2.835 . S
Eu417 O436 2.473 . S
Eu417 O437 2.480 . S
Eu417 O438 2.430 . S
Eu417 O439 2.670 . S
Eu417 O440 2.394 . S
Eu417 O445 2.355 . S
Eu417 O447 2.374 1_545 S
C418 C416 1.500 . S
C418 C419 1.377 . S
C418 C423 1.377 . S
C419 C418 1.377 . S
C419 C420 1.395 . S
C419 H448 0.931 . S
C420 C419 1.395 . S
C420 C421 1.383 . S
C420 H449 0.931 . S
C421 C420 1.383 . S
C421 C422 1.394 . S
C422 C421 1.394 . S
C422 C423 1.378 . S
C422 H450 0.931 . S
C423 C418 1.377 . S
C423 C422 1.378 . S
C423 H451 0.931 . S
C424 O438 1.259 . S
C424 O439 1.270 . S
C425 O440 1.251 . S
C425 O441 1.251 . S
C426 Eu427 2.835 1_565 S
C426 C428 1.500 . S
C426 O442 1.257 . S
C426 O443 1.246 1_565 S
Eu427 C426 2.835 1_545 S
Eu427 O439 2.355 . S
Eu427 O441 2.374 . S
Eu427 O442 2.473 1_545 S
Eu427 O443 2.489 . S
Eu427 O444 2.430 . S
Eu427 O445 2.670 . S
Eu427 O446 2.394 1_545 S
C428 C426 1.500 . S
C428 C429 1.377 . S
C428 C433 1.377 . S
C429 C428 1.377 . S
C429 C430 1.395 . S
C429 H452 0.931 . S
C430 C429 1.395 . S
C430 C431 1.383 . S
C430 H453 0.931 . S
C431 C430 1.383 . S
C431 C432 1.394 . S
C432 C431 1.394 . S
C432 C433 1.378 . S
C432 H454 0.931 . S
C433 C428 1.377 . S
C433 C432 1.378 . S
C433 H455 0.931 . S
C434 O444 1.259 . S
C434 O445 1.270 . S
C435 O446 1.251 . S
C435 O447 1.251 . S
O436 C416 1.257 . S
O436 Eu417 2.473 . S
O437 C416 1.260 . S
O437 Eu417 2.480 . S
O438 Eu417 2.430 . S
O438 C424 1.259 . S
O439 Eu417 2.670 . S
O439 C424 1.270 . S
O439 Eu427 2.355 . S
O440 Eu417 2.394 . S
O440 C425 1.251 . S
O441 C425 1.251 . S
O441 Eu427 2.374 . S
O442 C426 1.257 . S
O442 Eu427 2.473 1_565 S
O443 C426 1.246 1_545 S
O443 Eu427 2.489 . S
O444 Eu427 2.430 . S
O444 C434 1.259 . S
O445 Eu417 2.355 . S
O445 Eu427 2.670 . S
O445 C434 1.270 . S
O446 Eu427 2.394 1_565 S
O446 C435 1.251 . S
O447 Eu417 2.374 1_565 S
O447 C435 1.251 . S
H448 C419 0.931 . S
H449 C420 0.931 . S
H450 C422 0.931 . S
H451 C423 0.931 . S
H452 C429 0.931 . S
H453 C430 0.931 . S
H454 C432 0.931 . S
H455 C433 0.931 . S
C456 Eu457 2.835 . S
C456 C458 1.500 . S
C456 O476 1.257 . S
C456 O477 1.260 . S
Eu457 C456 2.835 . S
Eu457 O476 2.473 . S
Eu457 O477 2.480 . S
Eu457 O478 2.430 . S
Eu457 O479 2.670 . S
Eu457 O480 2.394 . S
Eu457 O485 2.355 . S
Eu457 O487 2.374 . S
C458 C456 1.500 . S
C458 C459 1.377 . S
C458 C463 1.377 . S
C459 C458 1.377 . S
C459 C460 1.395 . S
C459 H488 0.931 . S
C460 C459 1.395 . S
C460 C461 1.383 . S
C460 H489 0.931 . S
C461 C460 1.383 . S
C461 C462 1.394 . S
C462 C461 1.394 . S
C462 C463 1.378 . S
C462 H490 0.931 . S
C463 C458 1.377 . S
C463 C462 1.378 . S
C463 H491 0.931 . S
C464 O478 1.259 . S
C464 O479 1.270 . S
C465 O480 1.251 . S
C465 O481 1.251 . S
C466 Eu467 2.835 . S
C466 C468 1.500 . S
C466 O482 1.257 . S
C466 O483 1.260 . S
Eu467 C466 2.835 . S
Eu467 O479 2.355 . S
Eu467 O481 2.374 . S
Eu467 O482 2.473 . S
Eu467 O483 2.480 . S
Eu467 O484 2.430 . S
Eu467 O485 2.670 . S
Eu467 O486 2.394 . S
C468 C466 1.500 . S
C468 C469 1.377 . S
C468 C473 1.377 . S
C469 C468 1.377 . S
C469 C470 1.395 . S
C469 H492 0.931 . S
C470 C469 1.395 . S
C470 C471 1.383 . S
C470 H493 0.931 . S
C471 C470 1.383 . S
C471 C472 1.394 . S
C472 C471 1.394 . S
C472 C473 1.378 . S
C472 H494 0.931 . S
C473 C468 1.377 . S
C473 C472 1.378 . S
C473 H495 0.931 . S
C474 O484 1.259 . S
C474 O485 1.270 . S
C475 O486 1.251 . S
C475 O487 1.251 . S
O476 C456 1.257 . S
O476 Eu457 2.473 . S
O477 C456 1.260 . S
O477 Eu457 2.480 . S
O478 Eu457 2.430 . S
O478 C464 1.259 . S
O479 Eu457 2.670 . S
O479 C464 1.270 . S
O479 Eu467 2.355 . S
O480 Eu457 2.394 . S
O480 C465 1.251 . S
O481 C465 1.251 . S
O481 Eu467 2.374 . S
O482 C466 1.257 . S
O482 Eu467 2.473 . S
O483 C466 1.260 . S
O483 Eu467 2.480 . S
O484 Eu467 2.430 . S
O484 C474 1.259 . S
O485 Eu457 2.355 . S
O485 Eu467 2.670 . S
O485 C474 1.270 . S
O486 Eu467 2.394 . S
O486 C475 1.251 . S
O487 Eu457 2.374 . S
O487 C475 1.251 . S
H488 C459 0.931 . S
H489 C460 0.931 . S
H490 C462 0.931 . S
H491 C463 0.931 . S
H492 C469 0.931 . S
H493 C470 0.931 . S
H494 C472 0.931 . S
H495 C473 0.931 . S
C496 Eu497 2.835 . S
C496 C498 1.500 . S
C496 O516 1.257 . S
C496 O517 1.260 . S
Eu497 C496 2.835 . S
Eu497 O516 2.473 . S
Eu497 O517 2.480 . S
Eu497 O518 2.438 . S
Eu497 O519 2.670 1_565 S
Eu497 O520 2.394 . S
Eu497 O525 2.369 . S
Eu497 O527 2.374 . S
C498 C496 1.500 . S
C498 C499 1.377 . S
C498 C503 1.377 . S
C499 C498 1.377 . S
C499 C500 1.395 . S
C499 H528 0.931 . S
C500 C499 1.395 . S
C500 C501 1.383 . S
C500 H529 0.931 . S
C501 C500 1.383 . S
C501 C502 1.394 . S
C502 C501 1.394 . S
C502 C503 1.378 . S
C502 H530 0.931 . S
C503 C498 1.377 . S
C503 C502 1.378 . S
C503 H531 0.931 . S
C504 O518 1.235 1_545 S
C504 O519 1.270 . S
C505 O520 1.251 1_545 S
C505 O521 1.251 . S
C506 Eu507 2.835 . S
C506 C508 1.500 . S
C506 O522 1.257 . S
C506 O523 1.260 . S
Eu507 C506 2.835 . S
Eu507 O519 2.355 . S
Eu507 O521 2.374 . S
Eu507 O522 2.473 . S
Eu507 O523 2.480 . S
Eu507 O524 2.430 1_455 S
Eu507 O525 2.645 1_545 S
Eu507 O526 2.394 . S
C508 C506 1.500 . S
C508 C509 1.377 . S
C508 C513 1.377 . S
C509 C508 1.377 . S
C509 C510 1.395 . S
C509 H532 0.931 1_455 S
C510 C509 1.395 . S
C510 C511 1.383 . S
C510 H533 0.931 1_455 S
C511 C510 1.383 . S
C511 C512 1.394 . S
C512 C511 1.394 . S
C512 C513 1.378 . S
C512 H534 0.931 . S
C513 C508 1.377 . S
C513 C512 1.378 . S
C513 H535 0.931 . S
C514 O524 1.259 . S
C514 O525 1.260 1_645 S
C515 O526 1.251 . S
C515 O527 1.251 1_545 S
O516 C496 1.257 . S
O516 Eu497 2.473 . S
O517 C496 1.260 . S
O517 Eu497 2.480 . S
O518 Eu497 2.438 . S
O518 C504 1.235 1_565 S
O519 Eu497 2.670 1_545 S
O519 C504 1.270 . S
O519 Eu507 2.355 . S
O520 Eu497 2.394 . S
O520 C505 1.251 1_565 S
O521 C505 1.251 . S
O521 Eu507 2.374 . S
O522 C506 1.257 . S
O522 Eu507 2.473 . S
O523 C506 1.260 . S
O523 Eu507 2.480 . S
O524 Eu507 2.430 1_655 S
O524 C514 1.259 . S
O525 Eu497 2.369 . S
O525 Eu507 2.645 1_565 S
O525 C514 1.260 1_465 S
O526 Eu507 2.394 . S
O526 C515 1.251 . S
O527 Eu497 2.374 . S
O527 C515 1.251 1_565 S
H528 C499 0.931 . S
H529 C500 0.931 . S
H530 C502 0.931 . S
H531 C503 0.931 . S
H532 C509 0.931 1_655 S
H533 C510 0.931 1_655 S
H534 C512 0.931 . S
H535 C513 0.931 . S
C536 Eu537 2.835 . S
C536 C538 1.500 . S
C536 O556 1.257 . S
C536 O557 1.260 . S
Eu537 C536 2.835 . S
Eu537 O556 2.473 . S
Eu537 O557 2.480 . S
Eu537 O558 2.430 . S
Eu537 O559 2.670 . S
Eu537 O560 2.394 . S
Eu537 O565 2.355 . S
Eu537 O567 2.374 . S
C538 C536 1.500 . S
C538 C539 1.377 . S
C538 C543 1.377 . S
C539 C538 1.377 . S
C539 C540 1.395 . S
C539 H568 0.931 . S
C540 C539 1.395 . S
C540 C541 1.383 . S
C540 H569 0.931 . S
C541 C540 1.383 . S
C541 C542 1.394 . S
C542 C541 1.394 . S
C542 C543 1.378 . S
C542 H570 0.931 . S
C543 C538 1.377 . S
C543 C542 1.378 . S
C543 H571 0.931 . S
C544 O558 1.259 . S
C544 O559 1.270 . S
C545 O560 1.251 . S
C545 O561 1.251 . S
C546 Eu547 2.835 . S
C546 C548 1.500 . S
C546 O562 1.257 . S
C546 O563 1.260 . S
Eu547 C546 2.835 . S
Eu547 O559 2.355 . S
Eu547 O561 2.374 . S
Eu547 O562 2.473 . S
Eu547 O563 2.480 . S
Eu547 O564 2.430 . S
Eu547 O565 2.670 . S
Eu547 O566 2.394 . S
C548 C546 1.500 . S
C548 C549 1.377 . S
C548 C553 1.377 . S
C549 C548 1.377 . S
C549 C550 1.395 . S
C549 H572 0.931 . S
C550 C549 1.395 . S
C550 C551 1.383 . S
C550 H573 0.931 . S
C551 C550 1.383 . S
C551 C552 1.394 . S
C552 C551 1.394 . S
C552 C553 1.378 . S
C552 H574 0.931 . S
C553 C548 1.377 . S
C553 C552 1.378 . S
C553 H575 0.931 . S
C554 O564 1.259 . S
C554 O565 1.270 . S
C555 O566 1.251 . S
C555 O567 1.251 . S
O556 C536 1.257 . S
O556 Eu537 2.473 . S
O557 C536 1.260 . S
O557 Eu537 2.480 . S
O558 Eu537 2.430 . S
O558 C544 1.259 . S
O559 Eu537 2.670 . S
O559 C544 1.270 . S
O559 Eu547 2.355 . S
O560 Eu537 2.394 . S
O560 C545 1.251 . S
O561 C545 1.251 . S
O561 Eu547 2.374 . S
O562 C546 1.257 . S
O562 Eu547 2.473 . S
O563 C546 1.260 . S
O563 Eu547 2.480 . S
O564 Eu547 2.430 . S
O564 C554 1.259 . S
O565 Eu537 2.355 . S
O565 Eu547 2.670 . S
O565 C554 1.270 . S
O566 Eu547 2.394 . S
O566 C555 1.251 . S
O567 Eu537 2.374 . S
O567 C555 1.251 . S
H568 C539 0.931 . S
H569 C540 0.931 . S
H570 C542 0.931 . S
H571 C543 0.931 . S
H572 C549 0.931 . S
H573 C550 0.931 . S
H574 C552 0.931 . S
H575 C553 0.931 . S
C576 Eu577 2.835 . S
C576 C578 1.500 . S
C576 O596 1.257 . S
C576 O597 1.260 . S
Eu577 C576 2.835 . S
Eu577 O596 2.473 . S
Eu577 O597 2.480 . S
Eu577 O598 2.430 1_545 S
Eu577 O599 2.670 1_545 S
Eu577 O600 2.394 . S
Eu577 O605 2.355 . S
Eu577 O607 2.374 . S
C578 C576 1.500 . S
C578 C579 1.377 . S
C578 C583 1.377 . S
C579 C578 1.377 . S
C579 C580 1.395 . S
C579 H608 0.931 . S
C580 C579 1.395 . S
C580 C581 1.383 . S
C580 H609 0.931 . S
C581 C580 1.383 . S
C581 C582 1.394 . S
C582 C581 1.394 . S
C582 C583 1.378 . S
C582 H610 0.931 . S
C583 C578 1.377 . S
C583 C582 1.378 . S
C583 H611 0.931 . S
C584 O598 1.259 . S
C584 O599 1.270 . S
C585 O600 1.251 . S
C585 O601 1.251 . S
C586 Eu587 2.835 1_565 S
C586 C588 1.500 . S
C586 O602 1.257 . S
C586 O603 1.260 1_565 S
Eu587 C586 2.835 1_545 S
Eu587 O599 2.355 1_545 S
Eu587 O601 2.374 . S
Eu587 O602 2.473 1_545 S
Eu587 O603 2.480 . S
Eu587 O604 2.430 . S
Eu587 O605 2.670 . S
Eu587 O606 2.394 . S
C588 C586 1.500 . S
C588 C589 1.377 . S
C588 C593 1.377 . S
C589 C588 1.377 . S
C589 C590 1.395 . S
C589 H612 0.931 . S
C590 C589 1.395 . S
C590 C591 1.383 . S
C590 H613 0.931 . S
C591 C590 1.383 . S
C591 C592 1.394 . S
C592 C591 1.394 . S
C592 C593 1.378 . S
C592 H614 0.931 . S
C593 C588 1.377 . S
C593 C592 1.378 . S
C593 H615 0.931 . S
C594 O604 1.259 . S
C594 O605 1.270 . S
C595 O606 1.251 . S
C595 O607 1.251 . S
O596 C576 1.257 . S
O596 Eu577 2.473 . S
O597 C576 1.260 . S
O597 Eu577 2.480 . S
O598 Eu577 2.430 1_565 S
O598 C584 1.259 . S
O599 Eu577 2.670 1_565 S
O599 C584 1.270 . S
O599 Eu587 2.355 1_565 S
O600 Eu577 2.394 . S
O600 C585 1.251 . S
O601 C585 1.251 . S
O601 Eu587 2.374 . S
O602 C586 1.257 . S
O602 Eu587 2.473 1_565 S
O603 C586 1.260 1_545 S
O603 Eu587 2.480 . S
O604 Eu587 2.430 . S
O604 C594 1.259 . S
O605 Eu577 2.355 . S
O605 Eu587 2.670 . S
O605 C594 1.270 . S
O606 Eu587 2.394 . S
O606 C595 1.251 . S
O607 Eu577 2.374 . S
O607 C595 1.251 . S
H608 C579 0.931 . S
H609 C580 0.931 . S
H610 C582 0.931 . S
H611 C583 0.931 . S
H612 C589 0.931 . S
H613 C590 0.931 . S
H614 C592 0.931 . S
H615 C593 0.931 . S
C616 Eu617 2.835 . S
C616 C618 1.500 . S
C616 O636 1.257 . S
C616 O637 1.260 . S
Eu617 C616 2.835 . S
Eu617 O636 2.473 . S
Eu617 O637 2.480 . S
Eu617 O638 2.430 . S
Eu617 O639 2.670 . S
Eu617 O640 2.394 . S
Eu617 O645 2.355 . S
Eu617 O647 2.374 . S
C618 C616 1.500 . S
C618 C619 1.377 . S
C618 C623 1.377 . S
C619 C618 1.377 . S
C619 C620 1.395 . S
C619 H648 0.931 . S
C620 C619 1.395 . S
C620 C621 1.383 . S
C620 H649 0.931 . S
C621 C620 1.383 . S
C621 C622 1.394 . S
C622 C621 1.394 . S
C622 C623 1.378 . S
C622 H650 0.931 . S
C623 C618 1.377 . S
C623 C622 1.378 . S
C623 H651 0.931 . S
C624 O638 1.259 . S
C624 O639 1.270 . S
C625 O640 1.251 . S
C625 O641 1.251 . S
C626 Eu627 2.835 . S
C626 C628 1.500 . S
C626 O642 1.257 . S
C626 O643 1.260 . S
Eu627 C626 2.835 . S
Eu627 O639 2.355 . S
Eu627 O641 2.374 . S
Eu627 O642 2.473 . S
Eu627 O643 2.480 . S
Eu627 O644 2.430 . S
Eu627 O645 2.670 . S
Eu627 O646 2.394 . S
C628 C626 1.500 . S
C628 C629 1.377 . S
C628 C633 1.377 . S
C629 C628 1.377 . S
C629 C630 1.395 . S
C629 H652 0.931 . S
C630 C629 1.395 . S
C630 C631 1.383 . S
C630 H653 0.931 . S
C631 C630 1.383 . S
C631 C632 1.394 . S
C632 C631 1.394 . S
C632 C633 1.378 . S
C632 H654 0.931 . S
C633 C628 1.377 . S
C633 C632 1.378 . S
C633 H655 0.931 . S
C634 O644 1.259 . S
C634 O645 1.270 . S
C635 O646 1.251 . S
C635 O647 1.251 . S
O636 C616 1.257 . S
O636 Eu617 2.473 . S
O637 C616 1.260 . S
O637 Eu617 2.480 . S
O638 Eu617 2.430 . S
O638 C624 1.259 . S
O639 Eu617 2.670 . S
O639 C624 1.270 . S
O639 Eu627 2.355 . S
O640 Eu617 2.394 . S
O640 C625 1.251 . S
O641 C625 1.251 . S
O641 Eu627 2.374 . S
O642 C626 1.257 . S
O642 Eu627 2.473 . S
O643 C626 1.260 . S
O643 Eu627 2.480 . S
O644 Eu627 2.430 . S
O644 C634 1.259 . S
O645 Eu617 2.355 . S
O645 Eu627 2.670 . S
O645 C634 1.270 . S
O646 Eu627 2.394 . S
O646 C635 1.251 . S
O647 Eu617 2.374 . S
O647 C635 1.251 . S
H648 C619 0.931 . S
H649 C620 0.931 . S
H650 C622 0.931 . S
H651 C623 0.931 . S
H652 C629 0.931 . S
H653 C630 0.931 . S
H654 C632 0.931 . S
H655 C633 0.931 . S
C656 Eu657 2.835 . S
C656 C658 1.500 . S
C656 O676 1.257 . S
C656 O677 1.260 . S
Eu657 C656 2.835 . S
Eu657 O676 2.473 . S
Eu657 O677 2.480 . S
Eu657 O678 2.430 . S
Eu657 O679 2.670 . S
Eu657 O680 2.394 . S
Eu657 O685 2.355 . S
Eu657 O687 2.374 . S
C658 C656 1.500 . S
C658 C659 1.377 . S
C658 C663 1.377 . S
C659 C658 1.377 . S
C659 C660 1.395 . S
C659 H688 0.931 . S
C660 C659 1.395 . S
C660 C661 1.383 . S
C660 H689 0.931 . S
C661 C660 1.383 . S
C661 C662 1.394 . S
C662 C661 1.394 . S
C662 C663 1.378 . S
C662 H690 0.931 . S
C663 C658 1.377 . S
C663 C662 1.378 . S
C663 H691 0.931 . S
C664 O678 1.259 . S
C664 O679 1.270 . S
C665 O680 1.251 . S
C665 O681 1.251 . S
C666 Eu667 2.835 . S
C666 C668 1.500 . S
C666 O682 1.257 . S
C666 O683 1.260 . S
Eu667 C666 2.835 . S
Eu667 O679 2.355 . S
Eu667 O681 2.374 . S
Eu667 O682 2.473 . S
Eu667 O683 2.480 . S
Eu667 O684 2.430 . S
Eu667 O685 2.670 . S
Eu667 O686 2.394 . S
C668 C666 1.500 . S
C668 C669 1.377 . S
C668 C673 1.377 . S
C669 C668 1.377 . S
C669 C670 1.395 . S
C669 H692 0.931 . S
C670 C669 1.395 . S
C670 C671 1.383 . S
C670 H693 0.931 . S
C671 C670 1.383 . S
C671 C672 1.394 . S
C672 C671 1.394 . S
C672 C673 1.378 . S
C672 H694 0.931 . S
C673 C668 1.377 . S
C673 C672 1.378 . S
C673 H695 0.931 . S
C674 O684 1.259 . S
C674 O685 1.270 . S
C675 O686 1.251 . S
C675 O687 1.251 . S
O676 C656 1.257 . S
O676 Eu657 2.473 . S
O677 C656 1.260 . S
O677 Eu657 2.480 . S
O678 Eu657 2.430 . S
O678 C664 1.259 . S
O679 Eu657 2.670 . S
O679 C664 1.270 . S
O679 Eu667 2.355 . S
O680 Eu657 2.394 . S
O680 C665 1.251 . S
O681 C665 1.251 . S
O681 Eu667 2.374 . S
O682 C666 1.257 . S
O682 Eu667 2.473 . S
O683 C666 1.260 . S
O683 Eu667 2.480 . S
O684 Eu667 2.430 . S
O684 C674 1.259 . S
O685 Eu657 2.355 . S
O685 Eu667 2.670 . S
O685 C674 1.270 . S
O686 Eu667 2.394 . S
O686 C675 1.251 . S
O687 Eu657 2.374 . S
O687 C675 1.251 . S
H688 C659 0.931 . S
H689 C660 0.931 . S
H690 C662 0.931 . S
H691 C663 0.931 . S
H692 C669 0.931 . S
H693 C670 0.931 . S
H694 C672 0.931 . S
H695 C673 0.931 . S
C696 Eu697 2.835 . S
C696 C698 1.500 . S
C696 O716 1.257 . S
C696 O717 1.260 . S
Eu697 C696 2.835 . S
Eu697 O716 2.473 . S
Eu697 O717 2.480 . S
Eu697 O718 2.430 . S
Eu697 O719 2.670 . S
Eu697 O720 2.394 . S
Eu697 O725 2.355 . S
Eu697 O727 2.374 . S
C698 C696 1.500 . S
C698 C699 1.377 . S
C698 C703 1.377 . S
C699 C698 1.377 . S
C699 C700 1.395 . S
C699 H728 0.931 . S
C700 C699 1.395 . S
C700 C701 1.383 . S
C700 H729 0.931 . S
C701 C700 1.383 . S
C701 C702 1.394 . S
C702 C701 1.394 . S
C702 C703 1.378 . S
C702 H730 0.931 . S
C703 C698 1.377 . S
C703 C702 1.378 . S
C703 H731 0.931 . S
C704 O718 1.259 . S
C704 O719 1.270 . S
C705 O720 1.251 . S
C705 O721 1.251 . S
C706 Eu707 2.835 . S
C706 C708 1.500 . S
C706 O722 1.257 . S
C706 O723 1.260 . S
Eu707 C706 2.835 . S
Eu707 O719 2.355 . S
Eu707 O721 2.374 . S
Eu707 O722 2.473 . S
Eu707 O723 2.480 . S
Eu707 O724 2.430 . S
Eu707 O725 2.670 . S
Eu707 O726 2.394 . S
C708 C706 1.500 . S
C708 C709 1.377 . S
C708 C713 1.377 . S
C709 C708 1.377 . S
C709 C710 1.395 . S
C709 H732 0.931 . S
C710 C709 1.395 . S
C710 C711 1.383 . S
C710 H733 0.931 . S
C711 C710 1.383 . S
C711 C712 1.394 . S
C712 C711 1.394 . S
C712 C713 1.378 . S
C712 H734 0.931 . S
C713 C708 1.377 . S
C713 C712 1.378 . S
C713 H735 0.931 . S
C714 O724 1.259 . S
C714 O725 1.270 . S
C715 O726 1.251 . S
C715 O727 1.251 . S
O716 C696 1.257 . S
O716 Eu697 2.473 . S
O717 C696 1.260 . S
O717 Eu697 2.480 . S
O718 Eu697 2.430 . S
O718 C704 1.259 . S
O719 Eu697 2.670 . S
O719 C704 1.270 . S
O719 Eu707 2.355 . S
O720 Eu697 2.394 . S
O720 C705 1.251 . S
O721 C705 1.251 . S
O721 Eu707 2.374 . S
O722 C706 1.257 . S
O722 Eu707 2.473 . S
O723 C706 1.260 . S
O723 Eu707 2.480 . S
O724 Eu707 2.430 . S
O724 C714 1.259 . S
O725 Eu697 2.355 . S
O725 Eu707 2.670 . S
O725 C714 1.270 . S
O726 Eu707 2.394 . S
O726 C715 1.251 . S
O727 Eu697 2.374 . S
O727 C715 1.251 . S
H728 C699 0.931 . S
H729 C700 0.931 . S
H730 C702 0.931 . S
H731 C703 0.931 . S
H732 C709 0.931 . S
H733 C710 0.931 . S
H734 C712 0.931 . S
H735 C713 0.931 . S
C736 Eu737 2.835 . S
C736 C738 1.500 . S
C736 O756 1.257 . S
C736 O757 1.260 . S
Eu737 C736 2.835 . S
Eu737 O756 2.473 . S
Eu737 O757 2.480 . S
Eu737 O758 2.430 . S
Eu737 O759 2.670 . S
Eu737 O760 2.394 . S
Eu737 O765 2.355 . S
Eu737 O767 2.374 . S
C738 C736 1.500 . S
C738 C739 1.377 . S
C738 C743 1.377 . S
C739 C738 1.377 . S
C739 C740 1.395 . S
C739 H768 0.931 . S
C740 C739 1.395 . S
C740 C741 1.383 . S
C740 H769 0.931 . S
C741 C740 1.383 . S
C741 C742 1.394 . S
C742 C741 1.394 . S
C742 C743 1.378 . S
C742 H770 0.931 . S
C743 C738 1.377 . S
C743 C742 1.378 . S
C743 H771 0.931 . S
C744 O758 1.259 . S
C744 O759 1.270 . S
C745 O760 1.251 . S
C745 O761 1.251 . S
C746 Eu747 2.835 1_655 S
C746 C748 1.500 . S
C746 O762 1.257 . S
C746 O763 1.260 . S
Eu747 C746 2.835 1_455 S
Eu747 O759 2.355 . S
Eu747 O761 2.374 . S
Eu747 O762 2.473 1_455 S
Eu747 O763 2.480 1_455 S
Eu747 O764 2.430 . S
Eu747 O765 2.670 . S
Eu747 O766 2.394 1_455 S
C748 C746 1.500 . S
C748 C749 1.377 . S
C748 C753 1.377 . S
C749 C748 1.377 . S
C749 C750 1.395 . S
C749 H772 0.931 . S
C750 C749 1.395 . S
C750 C751 1.383 . S
C750 H773 0.931 . S
C751 C750 1.383 . S
C751 C752 1.394 . S
C752 C751 1.394 . S
C752 C753 1.378 . S
C752 H774 0.931 . S
C753 C748 1.377 . S
C753 C752 1.378 . S
C753 H775 0.931 . S
C754 O764 1.259 . S
C754 O765 1.270 . S
C755 O766 1.251 1_455 S
C755 O767 1.251 . S
O756 C736 1.257 . S
O756 Eu737 2.473 . S
O757 C736 1.260 . S
O757 Eu737 2.480 . S
O758 Eu737 2.430 . S
O758 C744 1.259 . S
O759 Eu737 2.670 . S
O759 C744 1.270 . S
O759 Eu747 2.355 . S
O760 Eu737 2.394 . S
O760 C745 1.251 . S
O761 C745 1.251 . S
O761 Eu747 2.374 . S
O762 C746 1.257 . S
O762 Eu747 2.473 1_655 S
O763 C746 1.260 . S
O763 Eu747 2.480 1_655 S
O764 Eu747 2.430 . S
O764 C754 1.259 . S
O765 Eu737 2.355 . S
O765 Eu747 2.670 . S
O765 C754 1.270 . S
O766 Eu747 2.394 1_655 S
O766 C755 1.251 1_655 S
O767 Eu737 2.374 . S
O767 C755 1.251 . S
H768 C739 0.931 . S
H769 C740 0.931 . S
H770 C742 0.931 . S
H771 C743 0.931 . S
H772 C749 0.931 . S
H773 C750 0.931 . S
H774 C752 0.931 . S
H775 C753 0.931 . S
C776 Eu777 2.835 . S
C776 C778 1.500 . S
C776 O796 1.257 . S
C776 O797 1.260 . S
Eu777 C776 2.835 . S
Eu777 O796 2.473 . S
Eu777 O797 2.480 . S
Eu777 O798 2.430 . S
Eu777 O799 2.670 . S
Eu777 O800 2.394 . S
Eu777 O805 2.355 . S
Eu777 O807 2.374 . S
C778 C776 1.500 . S
C778 C779 1.377 . S
C778 C783 1.377 . S
C779 C778 1.377 . S
C779 C780 1.395 . S
C779 H808 0.931 . S
C780 C779 1.395 . S
C780 C781 1.383 . S
C780 H809 0.931 . S
C781 C780 1.383 . S
C781 C782 1.394 . S
C782 C781 1.394 . S
C782 C783 1.378 . S
C782 H810 0.931 . S
C783 C778 1.377 . S
C783 C782 1.378 . S
C783 H811 0.931 . S
C784 O798 1.259 . S
C784 O799 1.270 . S
C785 O800 1.251 . S
C785 O801 1.251 . S
C786 Eu787 2.835 . S
C786 C788 1.500 . S
C786 O802 1.257 . S
C786 O803 1.260 . S
Eu787 C786 2.835 . S
Eu787 O799 2.355 . S
Eu787 O801 2.374 . S
Eu787 O802 2.473 . S
Eu787 O803 2.480 . S
Eu787 O804 2.430 . S
Eu787 O805 2.670 . S
Eu787 O806 2.394 . S
C788 C786 1.500 . S
C788 C789 1.377 . S
C788 C793 1.377 . S
C789 C788 1.377 . S
C789 C790 1.395 . S
C789 H812 0.931 . S
C790 C789 1.395 . S
C790 C791 1.383 . S
C790 H813 0.931 . S
C791 C790 1.383 . S
C791 C792 1.394 . S
C792 C791 1.394 . S
C792 C793 1.378 . S
C792 H814 0.931 . S
C793 C788 1.377 . S
C793 C792 1.378 . S
C793 H815 0.931 . S
C794 O804 1.259 . S
C794 O805 1.270 . S
C795 O806 1.251 . S
C795 O807 1.251 . S
O796 C776 1.257 . S
O796 Eu777 2.473 . S
O797 C776 1.260 . S
O797 Eu777 2.480 . S
O798 Eu777 2.430 . S
O798 C784 1.259 . S
O799 Eu777 2.670 . S
O799 C784 1.270 . S
O799 Eu787 2.355 . S
O800 Eu777 2.394 . S
O800 C785 1.251 . S
O801 C785 1.251 . S
O801 Eu787 2.374 . S
O802 C786 1.257 . S
O802 Eu787 2.473 . S
O803 C786 1.260 . S
O803 Eu787 2.480 . S
O804 Eu787 2.430 . S
O804 C794 1.259 . S
O805 Eu777 2.355 . S
O805 Eu787 2.670 . S
O805 C794 1.270 . S
O806 Eu787 2.394 . S
O806 C795 1.251 . S
O807 Eu777 2.374 . S
O807 C795 1.251 . S
H808 C779 0.931 . S
H809 C780 0.931 . S
H810 C782 0.931 . S
H811 C783 0.931 . S
H812 C789 0.931 . S
H813 C790 0.931 . S
H814 C792 0.931 . S
H815 C793 0.931 . S
C816 Eu817 2.835 . S
C816 C818 1.500 . S
C816 O836 1.257 . S
C816 O837 1.260 . S
Eu817 C816 2.835 . S
Eu817 O836 2.473 . S
Eu817 O837 2.480 . S
Eu817 O838 2.430 . S
Eu817 O839 2.670 . S
Eu817 O840 2.394 . S
Eu817 O845 2.355 . S
Eu817 O847 2.374 . S
C818 C816 1.500 . S
C818 C819 1.377 . S
C818 C823 1.377 . S
C819 C818 1.377 . S
C819 C820 1.395 1_556 S
C819 H848 0.931 . S
C820 C819 1.395 1_554 S
C820 C821 1.383 . S
C820 H849 0.931 . S
C821 C820 1.383 . S
C821 C822 1.398 . S
C822 C821 1.398 . S
C822 C823 1.371 1_554 S
C822 H850 0.934 . S
C823 C818 1.377 . S
C823 C822 1.371 1_556 S
C823 H851 0.931 . S
C824 O838 1.259 . S
C824 O839 1.270 . S
C825 O840 1.251 . S
C825 O841 1.251 . S
C826 Eu827 2.835 . S
C826 C828 1.500 . S
C826 O842 1.257 . S
C826 O843 1.260 . S
Eu827 C826 2.835 . S
Eu827 O839 2.355 . S
Eu827 O841 2.374 . S
Eu827 O842 2.473 . S
Eu827 O843 2.480 . S
Eu827 O844 2.430 . S
Eu827 O845 2.670 . S
Eu827 O846 2.394 . S
C828 C826 1.500 . S
C828 C829 1.377 . S
C828 C833 1.377 . S
C829 C828 1.377 . S
C829 C830 1.395 . S
C829 H852 0.931 . S
C830 C829 1.395 . S
C830 C831 1.383 . S
C830 H853 0.931 . S
C831 C830 1.383 . S
C831 C832 1.394 . S
C832 C831 1.394 . S
C832 C833 1.378 . S
C832 H854 0.931 . S
C833 C828 1.377 . S
C833 C832 1.378 . S
C833 H855 0.931 . S
C834 O844 1.259 . S
C834 O845 1.270 . S
C835 O846 1.251 . S
C835 O847 1.251 . S
O836 C816 1.257 . S
O836 Eu817 2.473 . S
O837 C816 1.260 . S
O837 Eu817 2.480 . S
O838 Eu817 2.430 . S
O838 C824 1.259 . S
O839 Eu817 2.670 . S
O839 C824 1.270 . S
O839 Eu827 2.355 . S
O840 Eu817 2.394 . S
O840 C825 1.251 . S
O841 C825 1.251 . S
O841 Eu827 2.374 . S
O842 C826 1.257 . S
O842 Eu827 2.473 . S
O843 C826 1.260 . S
O843 Eu827 2.480 . S
O844 Eu827 2.430 . S
O844 C834 1.259 . S
O845 Eu817 2.355 . S
O845 Eu827 2.670 . S
O845 C834 1.270 . S
O846 Eu827 2.394 . S
O846 C835 1.251 . S
O847 Eu817 2.374 . S
O847 C835 1.251 . S
H848 C819 0.931 . S
H849 C820 0.931 . S
H850 C822 0.934 . S
H851 C823 0.931 . S
H852 C829 0.931 . S
H853 C830 0.931 . S
H854 C832 0.931 . S
H855 C833 0.931 . S
C856 Eu857 2.835 . S
C856 C858 1.500 . S
C856 O876 1.257 . S
C856 O877 1.260 . S
Eu857 C856 2.835 . S
Eu857 O876 2.473 . S
Eu857 O877 2.480 . S
Eu857 O878 2.430 . S
Eu857 O879 2.670 . S
Eu857 O880 2.394 . S
Eu857 O885 2.355 . S
Eu857 O887 2.374 . S
C858 C856 1.500 . S
C858 C859 1.377 . S
C858 C863 1.377 . S
C859 C858 1.377 . S
C859 C860 1.395 . S
C859 H888 0.931 . S
C860 C859 1.395 . S
C860 C861 1.383 . S
C860 H889 0.931 . S
C861 C860 1.383 . S
C861 C862 1.394 . S
C862 C861 1.394 . S
C862 C863 1.378 . S
C862 H890 0.931 . S
C863 C858 1.377 . S
C863 C862 1.378 . S
C863 H891 0.931 . S
C864 O878 1.259 . S
C864 O879 1.270 . S
C865 O880 1.251 . S
C865 O881 1.251 . S
C866 Eu867 2.835 . S
C866 C868 1.500 . S
C866 O882 1.257 . S
C866 O883 1.260 . S
Eu867 C866 2.835 . S
Eu867 O879 2.355 . S
Eu867 O881 2.374 . S
Eu867 O882 2.473 . S
Eu867 O883 2.480 . S
Eu867 O884 2.430 . S
Eu867 O885 2.670 . S
Eu867 O886 2.394 . S
C868 C866 1.500 . S
C868 C869 1.377 . S
C868 C873 1.377 . S
C869 C868 1.377 . S
C869 C870 1.395 . S
C869 H892 0.931 . S
C870 C869 1.395 . S
C870 C871 1.383 . S
C870 H893 0.931 . S
C871 C870 1.383 . S
C871 C872 1.394 . S
C872 C871 1.394 . S
C872 C873 1.378 . S
C872 H894 0.931 . S
C873 C868 1.377 . S
C873 C872 1.378 . S
C873 H895 0.931 . S
C874 O884 1.259 . S
C874 O885 1.270 . S
C875 O886 1.251 . S
C875 O887 1.251 . S
O876 C856 1.257 . S
O876 Eu857 2.473 . S
O877 C856 1.260 . S
O877 Eu857 2.480 . S
O878 Eu857 2.430 . S
O878 C864 1.259 . S
O879 Eu857 2.670 . S
O879 C864 1.270 . S
O879 Eu867 2.355 . S
O880 Eu857 2.394 . S
O880 C865 1.251 . S
O881 C865 1.251 . S
O881 Eu867 2.374 . S
O882 C866 1.257 . S
O882 Eu867 2.473 . S
O883 C866 1.260 . S
O883 Eu867 2.480 . S
O884 Eu867 2.430 . S
O884 C874 1.259 . S
O885 Eu857 2.355 . S
O885 Eu867 2.670 . S
O885 C874 1.270 . S
O886 Eu867 2.394 . S
O886 C875 1.251 . S
O887 Eu857 2.374 . S
O887 C875 1.251 . S
H888 C859 0.931 . S
H889 C860 0.931 . S
H890 C862 0.931 . S
H891 C863 0.931 . S
H892 C869 0.931 . S
H893 C870 0.931 . S
H894 C872 0.931 . S
H895 C873 0.931 . S
C896 Eu897 2.835 . S
C896 C898 1.500 . S
C896 O916 1.257 . S
C896 O917 1.260 . S
Eu897 C896 2.835 . S
Eu897 O916 2.473 . S
Eu897 O917 2.480 . S
Eu897 O918 2.430 . S
Eu897 O919 2.670 . S
Eu897 O920 2.394 . S
Eu897 O925 2.355 . S
Eu897 O927 2.374 . S
C898 C896 1.500 . S
C898 C899 1.377 . S
C898 C903 1.377 . S
C899 C898 1.377 . S
C899 C900 1.395 . S
C899 H928 0.931 . S
C900 C899 1.395 . S
C900 C901 1.383 . S
C900 H929 0.931 . S
C901 C900 1.383 . S
C901 C902 1.394 . S
C902 C901 1.394 . S
C902 C903 1.378 . S
C902 H930 0.931 . S
C903 C898 1.377 . S
C903 C902 1.378 . S
C903 H931 0.931 . S
C904 O918 1.259 . S
C904 O919 1.270 . S
C905 O920 1.251 . S
C905 O921 1.251 . S
C906 Eu907 2.835 . S
C906 C908 1.500 . S
C906 O922 1.257 . S
C906 O923 1.260 . S
Eu907 C906 2.835 . S
Eu907 O919 2.355 . S
Eu907 O921 2.374 . S
Eu907 O922 2.473 . S
Eu907 O923 2.480 . S
Eu907 O924 2.430 . S
Eu907 O925 2.670 . S
Eu907 O926 2.394 . S
C908 C906 1.500 . S
C908 C909 1.377 . S
C908 C913 1.377 . S
C909 C908 1.377 . S
C909 C910 1.395 . S
C909 H932 0.931 . S
C910 C909 1.395 . S
C910 C911 1.383 . S
C910 H933 0.931 . S
C911 C910 1.383 . S
C911 C912 1.394 . S
C912 C911 1.394 . S
C912 C913 1.378 . S
C912 H934 0.931 . S
C913 C908 1.377 . S
C913 C912 1.378 . S
C913 H935 0.931 . S
C914 O924 1.259 . S
C914 O925 1.270 . S
C915 O926 1.251 . S
C915 O927 1.251 . S
O916 C896 1.257 . S
O916 Eu897 2.473 . S
O917 C896 1.260 . S
O917 Eu897 2.480 . S
O918 Eu897 2.430 . S
O918 C904 1.259 . S
O919 Eu897 2.670 . S
O919 C904 1.270 . S
O919 Eu907 2.355 . S
O920 Eu897 2.394 . S
O920 C905 1.251 . S
O921 C905 1.251 . S
O921 Eu907 2.374 . S
O922 C906 1.257 . S
O922 Eu907 2.473 . S
O923 C906 1.260 . S
O923 Eu907 2.480 . S
O924 Eu907 2.430 . S
O924 C914 1.259 . S
O925 Eu897 2.355 . S
O925 Eu907 2.670 . S
O925 C914 1.270 . S
O926 Eu907 2.394 . S
O926 C915 1.251 . S
O927 Eu897 2.374 . S
O927 C915 1.251 . S
H928 C899 0.931 . S
H929 C900 0.931 . S
H930 C902 0.931 . S
H931 C903 0.931 . S
H932 C909 0.931 . S
H933 C910 0.931 . S
H934 C912 0.931 . S
H935 C913 0.931 . S
C936 Eu937 2.835 1_655 S
C936 C938 1.500 . S
C936 O956 1.257 . S
C936 O957 1.260 . S
Eu937 C936 2.835 1_455 S
Eu937 O956 2.473 1_455 S
Eu937 O957 2.480 1_455 S
Eu937 O958 2.430 . S
Eu937 O959 2.670 . S
Eu937 O960 2.394 . S
Eu937 O965 2.355 . S
Eu937 O967 2.374 . S
C938 C936 1.500 . S
C938 C939 1.377 . S
C938 C943 1.377 . S
C939 C938 1.377 . S
C939 C940 1.395 . S
C939 H968 0.931 . S
C940 C939 1.395 . S
C940 C941 1.383 . S
C940 H969 0.931 . S
C941 C940 1.383 . S
C941 C942 1.394 . S
C942 C941 1.394 . S
C942 C943 1.378 . S
C942 H970 0.931 . S
C943 C938 1.377 . S
C943 C942 1.378 . S
C943 H971 0.931 . S
C944 O958 1.259 . S
C944 O959 1.270 . S
C945 O960 1.251 . S
C945 O961 1.251 . S
C946 Eu947 2.835 . S
C946 C948 1.500 . S
C946 O962 1.257 . S
C946 O963 1.260 . S
Eu947 C946 2.835 . S
Eu947 O959 2.355 . S
Eu947 O961 2.374 . S
Eu947 O962 2.473 . S
Eu947 O963 2.480 . S
Eu947 O964 2.430 . S
Eu947 O965 2.670 . S
Eu947 O966 2.394 . S
C948 C946 1.500 . S
C948 C949 1.377 . S
C948 C953 1.377 . S
C949 C948 1.377 . S
C949 C950 1.395 . S
C949 H972 0.931 1_554 S
C950 C949 1.395 . S
C950 C951 1.383 . S
C950 H973 0.931 1_554 S
C951 C950 1.383 . S
C951 C952 1.394 . S
C952 C951 1.394 . S
C952 C953 1.378 . S
C952 H974 0.931 . S
C953 C948 1.377 . S
C953 C952 1.378 . S
C953 H975 0.931 . S
C954 O964 1.259 . S
C954 O965 1.270 . S
C955 O966 1.251 . S
C955 O967 1.251 . S
O956 C936 1.257 . S
O956 Eu937 2.473 1_655 S
O957 C936 1.260 . S
O957 Eu937 2.480 1_655 S
O958 Eu937 2.430 . S
O958 C944 1.259 . S
O959 Eu937 2.670 . S
O959 C944 1.270 . S
O959 Eu947 2.355 . S
O960 Eu937 2.394 . S
O960 C945 1.251 . S
O961 C945 1.251 . S
O961 Eu947 2.374 . S
O962 C946 1.257 . S
O962 Eu947 2.473 . S
O963 C946 1.260 . S
O963 Eu947 2.480 . S
O964 Eu947 2.430 . S
O964 C954 1.259 . S
O965 Eu937 2.355 . S
O965 Eu947 2.670 . S
O965 C954 1.270 . S
O966 Eu947 2.394 . S
O966 C955 1.251 . S
O967 Eu937 2.374 . S
O967 C955 1.251 . S
H968 C939 0.931 . S
H969 C940 0.931 . S
H970 C942 0.931 . S
H971 C943 0.931 . S
H972 C949 0.931 1_556 S
H973 C950 0.931 1_556 S
H974 C952 0.931 . S
H975 C953 0.931 . S
C976 C977 1.369 1_556 S
C976 C978 1.419 1_556 S
C976 H980 0.930 . S
C977 C976 1.369 1_554 S
C977 C986 1.429 . S
C978 C976 1.419 1_554 S
C978 C979 1.363 . S
C978 H981 0.929 . S
C979 C978 1.363 . S
C979 C985 1.428 . S
H980 C976 0.930 . S
H981 C978 0.929 . S
S982 N983 1.613 . S
S982 N984 1.610 . S
N983 S982 1.613 . S
N983 C986 1.370 . S
N984 S982 1.610 . S
N984 C985 1.351 . S
C985 C979 1.428 . S
C985 N984 1.351 . S
C985 C986 1.434 . S
C986 C977 1.429 . S
C986 N983 1.370 . S
C986 C985 1.434 . S
C987 C988 1.369 . S
C987 C989 1.419 . S
C987 H991 0.930 . S
C988 C987 1.369 . S
C988 C997 1.429 . S
C989 C987 1.419 . S
C989 C990 1.363 . S
C989 H992 0.929 . S
C990 C989 1.363 . S
C990 C996 1.428 . S
H991 C987 0.930 . S
H992 C989 0.929 . S
S993 N994 1.613 . S
S993 N995 1.610 . S
N994 S993 1.613 . S
N994 C997 1.350 . S
N995 S993 1.610 . S
N995 C996 1.351 . S
C996 C990 1.428 . S
C996 N995 1.351 . S
C996 C997 1.434 . S
C997 C988 1.429 . S
C997 N994 1.350 . S
C997 C996 1.434 . S
C998 C999 1.369 . S
C998 C1000 1.419 . S
C998 H1002 0.930 . S
C999 C998 1.369 . S
C999 C1008 1.429 . S
C1000 C998 1.419 . S
C1000 C1001 1.363 . S
C1000 H1003 0.929 . S
C1001 C1000 1.363 . S
C1001 C1007 1.428 . S
H1002 C998 0.930 . S
H1003 C1000 0.929 . S
S1004 N1005 1.613 . S
S1004 N1006 1.610 . S
N1005 S1004 1.613 . S
N1005 C1008 1.350 . S
N1006 S1004 1.610 . S
N1006 C1007 1.351 . S
C1007 C1001 1.428 . S
C1007 N1006 1.351 . S
C1007 C1008 1.434 . S
C1008 C999 1.429 . S
C1008 N1005 1.350 . S
C1008 C1007 1.434 . S
C1009 C1010 1.369 . S
C1009 C1011 1.419 . S
C1009 H1013 0.930 . S
C1010 C1009 1.369 . S
C1010 C1019 1.429 . S
C1011 C1009 1.419 . S
C1011 C1012 1.363 . S
C1011 H1014 0.929 . S
C1012 C1011 1.363 . S
C1012 C1018 1.428 . S
H1013 C1009 0.930 . S
H1014 C1011 0.929 . S
S1015 N1016 1.613 . S
S1015 N1017 1.610 . S
N1016 S1015 1.613 . S
N1016 C1019 1.350 . S
N1017 S1015 1.610 . S
N1017 C1018 1.351 . S
C1018 C1012 1.428 . S
C1018 N1017 1.351 . S
C1018 C1019 1.434 . S
C1019 C1010 1.429 . S
C1019 N1016 1.350 . S
C1019 C1018 1.434 . S
C1020 C1021 1.369 . S
C1020 C1022 1.419 . S
C1020 H1024 0.930 . S
C1021 C1020 1.369 . S
C1021 C1030 1.429 . S
C1022 C1020 1.419 . S
C1022 C1023 1.363 . S
C1022 H1025 0.929 . S
C1023 C1022 1.363 . S
C1023 C1029 1.428 . S
H1024 C1020 0.930 . S
H1025 C1022 0.929 . S
S1026 N1027 1.613 . S
S1026 N1028 1.610 1_655 S
N1027 S1026 1.613 . S
N1027 C1030 1.350 1_655 S
N1028 S1026 1.610 1_455 S
N1028 C1029 1.351 . S
C1029 C1023 1.428 . S
C1029 N1028 1.351 . S
C1029 C1030 1.434 . S
C1030 C1021 1.429 . S
C1030 N1027 1.350 1_455 S
C1030 C1029 1.434 . S
C1031 C1032 1.369 . S
C1031 C1033 1.419 . S
C1031 H1035 0.930 . S
C1032 C1031 1.369 . S
C1032 C1041 1.429 . S
C1033 C1031 1.419 . S
C1033 C1034 1.363 . S
C1033 H1036 0.929 . S
C1034 C1033 1.363 . S
C1034 C1040 1.428 . S
H1035 C1031 0.930 . S
H1036 C1033 0.929 . S
S1037 N1038 1.613 . S
S1037 N1039 1.610 1_554 S
N1038 S1037 1.613 . S
N1038 C1041 1.350 1_554 S
N1039 S1037 1.610 1_556 S
N1039 C1040 1.351 . S
C1040 C1034 1.428 . S
C1040 N1039 1.351 . S
C1040 C1041 1.434 . S
C1041 C1032 1.429 . S
C1041 N1038 1.350 1_556 S
C1041 C1040 1.434 . S
C1042 C1043 1.369 . S
C1042 C1044 1.419 . S
C1042 H1046 0.930 . S
C1043 C1042 1.369 . S
C1043 C1052 1.429 . S
C1044 C1042 1.419 . S
C1044 C1045 1.363 . S
C1044 H1047 0.929 . S
C1045 C1044 1.363 . S
C1045 C1051 1.428 . S
H1046 C1042 0.930 . S
H1047 C1044 0.929 . S
S1048 N1049 1.613 . S
S1048 N1050 1.610 . S
N1049 S1048 1.613 . S
N1049 C1052 1.350 . S
N1050 S1048 1.610 . S
N1050 C1051 1.351 . S
C1051 C1045 1.428 . S
C1051 N1050 1.351 . S
C1051 C1052 1.434 . S
C1052 C1043 1.429 . S
C1052 N1049 1.350 . S
C1052 C1051 1.434 . S
C1053 C1054 1.369 . S
C1053 C1055 1.419 . S
C1053 H1057 0.930 . S
C1054 C1053 1.369 . S
C1054 C1063 1.429 . S
C1055 C1053 1.419 . S
C1055 C1056 1.363 . S
C1055 H1058 0.929 . S
C1056 C1055 1.363 . S
C1056 C1062 1.428 . S
H1057 C1053 0.930 . S
H1058 C1055 0.929 . S
S1059 N1060 1.613 . S
S1059 N1061 1.610 . S
N1060 S1059 1.613 . S
N1060 C1063 1.350 . S
N1061 S1059 1.610 . S
N1061 C1062 1.351 . S
C1062 C1056 1.428 . S
C1062 N1061 1.351 . S
C1062 C1063 1.434 . S
C1063 C1054 1.429 . S
C1063 N1060 1.350 . S
C1063 C1062 1.434 . S
C1064 C1065 1.369 . S
C1064 C1066 1.419 1_655 S
C1064 H1068 0.930 . S
C1065 C1064 1.369 . S
C1065 C1074 1.429 . S
C1066 C1064 1.419 1_455 S
C1066 C1067 1.363 . S
C1066 H1069 0.929 . S
C1067 C1066 1.363 . S
C1067 C1073 1.428 1_455 S
H1068 C1064 0.930 . S
H1069 C1066 0.929 . S
S1070 N1071 1.613 . S
S1070 N1072 1.610 . S
N1071 S1070 1.613 . S
N1071 C1074 1.350 . S
N1072 S1070 1.610 . S
N1072 C1073 1.351 . S
C1073 C1067 1.428 1_655 S
C1073 N1072 1.351 . S
C1073 C1074 1.434 . S
C1074 C1065 1.429 . S
C1074 N1071 1.350 . S
C1074 C1073 1.434 . S
C1075 C1076 1.369 . S
C1075 C1077 1.419 . S
C1075 H1079 0.930 . S
C1076 C1075 1.369 . S
C1076 C1085 1.429 . S
C1077 C1075 1.419 . S
C1077 C1078 1.363 . S
C1077 H1080 0.929 . S
C1078 C1077 1.363 . S
C1078 C1084 1.428 . S
H1079 C1075 0.930 . S
H1080 C1077 0.929 . S
S1081 N1082 1.613 . S
S1081 N1083 1.610 . S
N1082 S1081 1.613 . S
N1082 C1085 1.350 . S
N1083 S1081 1.610 . S
N1083 C1084 1.351 . S
C1084 C1078 1.428 . S
C1084 N1083 1.351 . S
C1084 C1085 1.434 . S
C1085 C1076 1.429 . S
C1085 N1082 1.350 . S
C1085 C1084 1.434 . S
C1086 C1087 1.369 . S
C1086 C1088 1.419 . S
C1086 H1090 0.930 . S
C1087 C1086 1.369 . S
C1087 C1096 1.429 1_545 S
C1088 C1086 1.419 . S
C1088 C1089 1.363 . S
C1088 H1091 0.929 . S
C1089 C1088 1.363 . S
C1089 C1095 1.428 1_545 S
H1090 C1086 0.930 . S
H1091 C1088 0.929 . S
S1092 N1093 1.613 . S
S1092 N1094 1.610 . S
N1093 S1092 1.613 . S
N1093 C1096 1.350 . S
N1094 S1092 1.610 . S
N1094 C1095 1.351 . S
C1095 C1089 1.428 1_565 S
C1095 N1094 1.351 . S
C1095 C1096 1.434 . S
C1096 C1087 1.429 1_565 S
C1096 N1093 1.350 . S
C1096 C1095 1.434 . S
C1097 C1098 1.369 . S
C1097 C1099 1.419 . S
C1097 H1101 0.930 . S
C1098 C1097 1.369 . S
C1098 C1107 1.429 . S
C1099 C1097 1.419 . S
C1099 C1100 1.363 . S
C1099 H1102 0.929 . S
C1100 C1099 1.363 . S
C1100 C1106 1.428 . S
H1101 C1097 0.930 . S
H1102 C1099 0.929 . S
S1103 N1104 1.613 . S
S1103 N1105 1.610 . S
N1104 S1103 1.613 . S
N1104 C1107 1.350 . S
N1105 S1103 1.610 . S
N1105 C1106 1.351 . S
C1106 C1100 1.428 . S
C1106 N1105 1.351 . S
C1106 C1107 1.434 . S
C1107 C1098 1.429 . S
C1107 N1104 1.350 . S
C1107 C1106 1.434 . S
C1108 C1109 1.369 . S
C1108 C1110 1.419 . S
C1108 H1112 0.930 . S
C1109 C1108 1.369 . S
C1109 C1118 1.429 . S
C1110 C1108 1.419 . S
C1110 C1111 1.383 . S
C1110 H1113 0.929 . S
C1111 C1110 1.383 . S
C1111 C1117 1.420 1_655 S
H1112 C1108 0.930 . S
H1113 C1110 0.929 . S
S1114 N1115 1.613 . S
S1114 N1116 1.610 . S
N1115 S1114 1.613 . S
N1115 C1118 1.350 1_455 S
N1116 S1114 1.610 . S
N1116 C1117 1.351 . S
C1117 C1111 1.420 1_455 S
C1117 N1116 1.351 . S
C1117 C1118 1.434 1_455 S
C1118 C1109 1.429 . S
C1118 N1115 1.350 1_655 S
C1118 C1117 1.434 1_655 S
C1119 C1120 1.369 . S
C1119 C1121 1.419 . S
C1119 H1123 0.930 . S
C1120 C1119 1.369 . S
C1120 C1129 1.429 . S
C1121 C1119 1.419 . S
C1121 C1122 1.363 . S
C1121 H1124 0.929 . S
C1122 C1121 1.363 . S
C1122 C1128 1.428 . S
H1123 C1119 0.930 . S
H1124 C1121 0.929 . S
S1125 N1126 1.613 . S
S1125 N1127 1.610 . S
N1126 S1125 1.613 . S
N1126 C1129 1.350 . S
N1127 S1125 1.610 . S
N1127 C1128 1.351 . S
C1128 C1122 1.428 . S
C1128 N1127 1.351 . S
C1128 C1129 1.434 . S
C1129 C1120 1.429 . S
C1129 N1126 1.350 . S
C1129 C1128 1.434 . S
C1130 C1131 1.369 . S
C1130 C1132 1.419 . S
C1130 H1134 0.930 . S
C1131 C1130 1.369 . S
C1131 C1140 1.429 . S
C1132 C1130 1.419 . S
C1132 C1133 1.363 . S
C1132 H1135 0.929 . S
C1133 C1132 1.363 . S
C1133 C1139 1.428 . S
H1134 C1130 0.930 . S
H1135 C1132 0.929 . S
S1136 N1137 1.614 1_564 S
S1136 N1138 1.610 1_565 S
N1137 S1136 1.614 1_546 S
N1137 C1140 1.348 . S
N1138 S1136 1.610 1_545 S
N1138 C1139 1.351 1_554 S
C1139 C1133 1.428 . S
C1139 N1138 1.351 1_556 S
C1139 C1140 1.434 . S
C1140 C1131 1.429 . S
C1140 N1137 1.348 . S
C1140 C1139 1.434 . S
C1141 C1142 1.369 . S
C1141 C1143 1.419 . S
C1141 H1145 0.930 . S
C1142 C1141 1.369 . S
C1142 C1151 1.429 . S
C1143 C1141 1.419 . S
C1143 C1144 1.363 . S
C1143 H1146 0.929 . S
C1144 C1143 1.363 . S
C1144 C1150 1.428 . S
H1145 C1141 0.930 . S
H1146 C1143 0.929 . S
S1147 N1148 1.613 . S
S1147 N1149 1.610 . S
N1148 S1147 1.613 . S
N1148 C1151 1.350 . S
N1149 S1147 1.610 . S
N1149 C1150 1.351 . S
C1150 C1144 1.428 . S
C1150 N1149 1.351 . S
C1150 C1151 1.434 . S
C1151 C1142 1.429 . S
C1151 N1148 1.350 . S
C1151 C1150 1.434 . S
C1152 C1153 1.369 . S
C1152 C1154 1.419 . S
C1152 H1156 0.930 . S
C1153 C1152 1.369 . S
C1153 C1162 1.429 . S
C1154 C1152 1.419 . S
C1154 C1155 1.363 . S
C1154 H1157 0.929 . S
C1155 C1154 1.363 . S
C1155 C1161 1.428 . S
H1156 C1152 0.930 . S
H1157 C1154 0.929 . S
S1158 N1159 1.613 . S
S1158 N1160 1.610 . S
N1159 S1158 1.613 . S
N1159 C1162 1.350 . S
N1160 S1158 1.610 . S
N1160 C1161 1.351 . S
C1161 C1155 1.428 . S
C1161 N1160 1.351 . S
C1161 C1162 1.434 . S
C1162 C1153 1.429 . S
C1162 N1159 1.350 . S
C1162 C1161 1.434 . S
C1163 C1164 1.369 . S
C1163 C1165 1.419 . S
C1163 H1167 0.930 . S
C1164 C1163 1.369 . S
C1164 C1173 1.429 . S
C1165 C1163 1.419 . S
C1165 C1166 1.363 . S
C1165 H1168 0.929 . S
C1166 C1165 1.363 . S
C1166 C1172 1.428 . S
H1167 C1163 0.930 . S
H1168 C1165 0.929 . S
S1169 N1170 1.613 . S
S1169 N1171 1.610 . S
N1170 S1169 1.613 . S
N1170 C1173 1.350 . S
N1171 S1169 1.610 . S
N1171 C1172 1.351 . S
C1172 C1166 1.428 . S
C1172 N1171 1.351 . S
C1172 C1173 1.434 . S
C1173 C1164 1.429 . S
C1173 N1170 1.350 . S
C1173 C1172 1.434 . S
C1174 C1175 1.369 . S
C1174 C1176 1.419 . S
C1174 H1178 0.930 . S
C1175 C1174 1.369 . S
C1175 C1184 1.429 . S
C1176 C1174 1.419 . S
C1176 C1177 1.363 . S
C1176 H1179 0.929 . S
C1177 C1176 1.363 . S
C1177 C1183 1.428 . S
H1178 C1174 0.930 . S
H1179 C1176 0.929 . S
S1180 N1181 1.613 . S
S1180 N1182 1.610 . S
N1181 S1180 1.613 . S
N1181 C1184 1.350 . S
N1182 S1180 1.610 . S
N1182 C1183 1.351 . S
C1183 C1177 1.428 . S
C1183 N1182 1.351 . S
C1183 C1184 1.434 . S
C1184 C1175 1.429 . S
C1184 N1181 1.350 . S
C1184 C1183 1.434 . S
C1185 C1186 1.369 . S
C1185 C1187 1.419 . S
C1185 H1189 0.930 . S
C1186 C1185 1.369 . S
C1186 C1195 1.429 . S
C1187 C1185 1.419 . S
C1187 C1188 1.363 . S
C1187 H1190 0.929 . S
C1188 C1187 1.363 . S
C1188 C1194 1.428 . S
H1189 C1185 0.930 . S
H1190 C1187 0.929 . S
S1191 N1192 1.613 . S
S1191 N1193 1.610 . S
N1192 S1191 1.613 . S
N1192 C1195 1.350 . S
N1193 S1191 1.610 . S
N1193 C1194 1.351 . S
C1194 C1188 1.428 . S
C1194 N1193 1.351 . S
C1194 C1195 1.434 . S
C1195 C1186 1.429 . S
C1195 N1192 1.350 . S
C1195 C1194 1.434 . S
C1196 C1197 1.369 . S
C1196 C1198 1.419 . S
C1196 H1200 0.930 . S
C1197 C1196 1.369 . S
C1197 C1206 1.429 . S
C1198 C1196 1.419 . S
C1198 C1199 1.363 . S
C1198 H1201 0.929 . S
C1199 C1198 1.363 . S
C1199 C1205 1.428 . S
H1200 C1196 0.930 . S
H1201 C1198 0.929 . S
S1202 N1203 1.613 . S
S1202 N1204 1.610 . S
N1203 S1202 1.613 . S
N1203 C1206 1.350 . S
N1204 S1202 1.610 . S
N1204 C1205 1.351 . S
C1205 C1199 1.428 . S
C1205 N1204 1.351 . S
C1205 C1206 1.434 . S
C1206 C1197 1.429 . S
C1206 N1203 1.350 . S
C1206 C1205 1.434 . S
C1207 C1208 1.369 . S
C1207 C1209 1.419 . S
C1207 H1211 0.930 . S
C1208 C1207 1.369 . S
C1208 C1217 1.429 . S
C1209 C1207 1.419 . S
C1209 C1210 1.363 . S
C1209 H1212 0.929 . S
C1210 C1209 1.363 . S
C1210 C1216 1.428 . S
H1211 C1207 0.930 . S
H1212 C1209 0.929 . S
S1213 N1214 1.613 . S
S1213 N1215 1.610 . S
N1214 S1213 1.613 . S
N1214 C1217 1.350 . S
N1215 S1213 1.610 . S
N1215 C1216 1.351 . S
C1216 C1210 1.428 . S
C1216 N1215 1.351 . S
C1216 C1217 1.434 . S
C1217 C1208 1.429 . S
C1217 N1214 1.350 . S
C1217 C1216 1.434 . S
C1218 C1219 1.369 . S
C1218 C1220 1.419 . S
C1218 H1222 0.930 . S
C1219 C1218 1.369 . S
C1219 C1228 1.429 . S
C1220 C1218 1.419 . S
C1220 C1221 1.363 . S
C1220 H1223 0.929 . S
C1221 C1220 1.363 . S
C1221 C1227 1.428 . S
H1222 C1218 0.930 . S
H1223 C1220 0.929 . S
S1224 N1225 1.613 . S
S1224 N1226 1.610 . S
N1225 S1224 1.613 . S
N1225 C1228 1.350 . S
N1226 S1224 1.610 . S
N1226 C1227 1.351 . S
C1227 C1221 1.428 . S
C1227 N1226 1.351 . S
C1227 C1228 1.434 . S
C1228 C1219 1.429 . S
C1228 N1225 1.350 . S
C1228 C1227 1.434 . S
C1229 C1230 1.369 . S
C1229 C1231 1.419 . S
C1229 H1233 0.930 . S
C1230 C1229 1.369 . S
C1230 C1239 1.429 . S
C1231 C1229 1.419 . S
C1231 C1232 1.363 . S
C1231 H1234 0.929 . S
C1232 C1231 1.363 . S
C1232 C1238 1.428 . S
H1233 C1229 0.930 . S
H1234 C1231 0.929 . S
S1235 N1236 1.613 . S
S1235 N1237 1.610 . S
N1236 S1235 1.613 . S
N1236 C1239 1.350 . S
N1237 S1235 1.610 . S
N1237 C1238 1.351 . S
C1238 C1232 1.428 . S
C1238 N1237 1.351 . S
C1238 C1239 1.434 . S
C1239 C1230 1.429 . S
C1239 N1236 1.350 . S
C1239 C1238 1.434 . S
C1240 C1241 1.369 . S
C1240 C1242 1.419 . S
C1240 H1244 0.930 . S
C1241 C1240 1.369 . S
C1241 C1250 1.429 . S
C1242 C1240 1.419 . S
C1242 C1243 1.363 . S
C1242 H1245 0.929 . S
C1243 C1242 1.363 . S
C1243 C1249 1.428 . S
H1244 C1240 0.930 . S
H1245 C1242 0.929 . S
S1246 N1247 1.613 . S
S1246 N1248 1.610 . S
N1247 S1246 1.613 . S
N1247 C1250 1.350 . S
N1248 S1246 1.610 . S
N1248 C1249 1.351 . S
C1249 C1243 1.428 . S
C1249 N1248 1.351 . S
C1249 C1250 1.434 . S
C1250 C1241 1.429 . S
C1250 N1247 1.350 . S
C1250 C1249 1.434 . S
C1251 C1252 1.369 . S
C1251 C1253 1.419 . S
C1251 H1255 0.930 . S
C1252 C1251 1.369 . S
C1252 C1261 1.429 . S
C1253 C1251 1.419 . S
C1253 C1254 1.363 . S
C1253 H1256 0.929 . S
C1254 C1253 1.363 . S
C1254 C1260 1.428 . S
H1255 C1251 0.930 . S
H1256 C1253 0.929 . S
S1257 N1258 1.613 . S
S1257 N1259 1.610 . S
N1258 S1257 1.613 . S
N1258 C1261 1.350 . S
N1259 S1257 1.610 . S
N1259 C1260 1.351 . S
C1260 C1254 1.428 . S
C1260 N1259 1.351 . S
C1260 C1261 1.434 . S
C1261 C1252 1.429 . S
C1261 N1258 1.350 . S
C1261 C1260 1.434 . S
C1262 C1263 1.369 . S
C1262 C1264 1.419 . S
C1262 H1266 0.930 . S
C1263 C1262 1.369 . S
C1263 C1272 1.429 . S
C1264 C1262 1.419 . S
C1264 C1265 1.363 . S
C1264 H1267 0.929 . S
C1265 C1264 1.363 . S
C1265 C1271 1.428 . S
H1266 C1262 0.930 . S
H1267 C1264 0.929 . S
S1268 N1269 1.613 . S
S1268 N1270 1.610 . S
N1269 S1268 1.613 . S
N1269 C1272 1.350 . S
N1270 S1268 1.610 . S
N1270 C1271 1.351 . S
C1271 C1265 1.428 . S
C1271 N1270 1.351 . S
C1271 C1272 1.434 . S
C1272 C1263 1.429 . S
C1272 N1269 1.350 . S
C1272 C1271 1.434 . S
C1273 C1274 1.369 . S
C1273 C1275 1.419 . S
C1273 H1277 0.930 . S
C1274 C1273 1.369 . S
C1274 C1283 1.429 . S
C1275 C1273 1.419 . S
C1275 C1276 1.363 . S
C1275 H1278 0.929 . S
C1276 C1275 1.363 . S
C1276 C1282 1.428 . S
H1277 C1273 0.930 . S
H1278 C1275 0.929 . S
S1279 N1280 1.613 . S
S1279 N1281 1.610 . S
N1280 S1279 1.613 . S
N1280 C1283 1.350 . S
N1281 S1279 1.610 . S
N1281 C1282 1.351 . S
C1282 C1276 1.428 . S
C1282 N1281 1.351 . S
C1282 C1283 1.434 . S
C1283 C1274 1.429 . S
C1283 N1280 1.350 . S
C1283 C1282 1.434 . S
C1284 C1285 1.369 . S
C1284 C1286 1.419 . S
C1284 H1288 0.930 . S
C1285 C1284 1.369 . S
C1285 C1294 1.429 . S
C1286 C1284 1.419 . S
C1286 C1287 1.363 . S
C1286 H1289 0.929 . S
C1287 C1286 1.363 . S
C1287 C1293 1.428 . S
H1288 C1284 0.930 . S
H1289 C1286 0.929 . S
S1290 N1291 1.613 . S
S1290 N1292 1.610 . S
N1291 S1290 1.613 . S
N1291 C1294 1.350 . S
N1292 S1290 1.610 . S
N1292 C1293 1.351 . S
C1293 C1287 1.428 . S
C1293 N1292 1.351 . S
C1293 C1294 1.434 . S
C1294 C1285 1.429 . S
C1294 N1291 1.350 . S
C1294 C1293 1.434 . S
C1295 C1296 1.369 . S
C1295 C1297 1.419 . S
C1295 H1299 0.930 . S
C1296 C1295 1.369 . S
C1296 C1305 1.429 . S
C1297 C1295 1.419 . S
C1297 C1298 1.363 . S
C1297 H1300 0.929 . S
C1298 C1297 1.363 . S
C1298 C1304 1.428 . S
H1299 C1295 0.930 . S
H1300 C1297 0.929 . S
S1301 N1302 1.613 . S
S1301 N1303 1.610 . S
N1302 S1301 1.613 . S
N1302 C1305 1.350 . S
N1303 S1301 1.610 . S
N1303 C1304 1.351 . S
C1304 C1298 1.428 . S
C1304 N1303 1.351 . S
C1304 C1305 1.434 . S
C1305 C1296 1.429 . S
C1305 N1302 1.350 . S
C1305 C1304 1.434 . S
C1306 C1307 1.369 . S
C1306 C1308 1.419 . S
C1306 H1310 0.930 . S
C1307 C1306 1.369 . S
C1307 C1316 1.429 . S
C1308 C1306 1.419 . S
C1308 C1309 1.363 . S
C1308 H1311 0.929 . S
C1309 C1308 1.363 . S
C1309 C1315 1.428 . S
H1310 C1306 0.930 . S
H1311 C1308 0.929 . S
S1312 N1313 1.613 . S
S1312 N1314 1.610 . S
N1313 S1312 1.613 . S
N1313 C1316 1.350 . S
N1314 S1312 1.610 . S
N1314 C1315 1.351 . S
C1315 C1309 1.428 . S
C1315 N1314 1.351 . S
C1315 C1316 1.434 . S
C1316 C1307 1.429 . S
C1316 N1313 1.350 . S
C1316 C1315 1.434 . S
C1317 C1318 1.369 . S
C1317 C1319 1.419 . S
C1317 H1321 0.930 . S
C1318 C1317 1.369 . S
C1318 C1327 1.429 . S
C1319 C1317 1.419 . S
C1319 C1320 1.363 . S
C1319 H1322 0.929 . S
C1320 C1319 1.363 . S
C1320 C1326 1.428 . S
H1321 C1317 0.930 . S
H1322 C1319 0.929 . S
S1323 N1324 1.613 . S
S1323 N1325 1.610 . S
N1324 S1323 1.613 . S
N1324 C1327 1.350 . S
N1325 S1323 1.610 . S
N1325 C1326 1.351 . S
C1326 C1320 1.428 . S
C1326 N1325 1.351 . S
C1326 C1327 1.434 . S
C1327 C1318 1.429 . S
C1327 N1324 1.350 . S
C1327 C1326 1.434 . S
C1328 C1329 1.369 . S
C1328 C1330 1.419 . S
C1328 H1332 0.930 . S
C1329 C1328 1.369 . S
C1329 C1338 1.428 1_545 S
C1330 C1328 1.419 . S
C1330 C1331 1.363 . S
C1330 H1333 0.929 1_556 S
C1331 C1330 1.363 . S
C1331 C1337 1.428 1_545 S
H1332 C1328 0.930 . S
H1333 C1330 0.929 1_554 S
S1334 N1335 1.613 . S
S1334 N1336 1.610 . S
N1335 S1334 1.613 . S
N1335 C1338 1.349 . S
N1336 S1334 1.610 . S
N1336 C1337 1.351 . S
C1337 C1331 1.428 1_565 S
C1337 N1336 1.351 . S
C1337 C1338 1.435 . S
C1338 C1329 1.428 1_565 S
C1338 N1335 1.349 . S
C1338 C1337 1.435 . S
C1339 C1340 1.369 . S
C1339 C1341 1.419 . S
C1339 H1343 0.930 . S
C1340 C1339 1.369 . S
C1340 C1349 1.429 . S
C1341 C1339 1.419 . S
C1341 C1342 1.363 . S
C1341 H1344 0.929 . S
C1342 C1341 1.363 . S
C1342 C1348 1.428 . S
H1343 C1339 0.930 . S
H1344 C1341 0.929 . S
S1345 N1346 1.613 . S
S1345 N1347 1.610 . S
N1346 S1345 1.613 . S
N1346 C1349 1.350 . S
N1347 S1345 1.610 . S
N1347 C1348 1.351 . S
C1348 C1342 1.428 . S
C1348 N1347 1.351 . S
C1348 C1349 1.434 . S
C1349 C1340 1.429 . S
C1349 N1346 1.350 . S
C1349 C1348 1.434 . S
C1350 C1351 1.369 . S
C1350 C1352 1.419 . S
C1350 H1354 0.930 . S
C1351 C1350 1.369 . S
C1351 C1360 1.429 . S
C1352 C1350 1.419 . S
C1352 C1353 1.363 . S
C1352 H1355 0.929 . S
C1353 C1352 1.363 . S
C1353 C1359 1.447 . S
H1354 C1350 0.930 . S
H1355 C1352 0.929 . S
S1356 N1357 1.613 . S
S1356 N1358 1.610 . S
N1357 S1356 1.613 . S
N1357 C1360 1.350 1_565 S
N1358 S1356 1.610 . S
N1358 C1359 1.318 1_565 S
C1359 C1353 1.447 . S
C1359 N1358 1.318 1_545 S
C1359 C1360 1.448 . S
C1360 C1351 1.429 . S
C1360 N1357 1.350 1_545 S
C1360 C1359 1.448 . S
C1361 C1362 1.369 . S
C1361 C1363 1.419 . S
C1361 H1365 0.930 . S
C1362 C1361 1.369 . S
C1362 C1371 1.429 . S
C1363 C1361 1.419 . S
C1363 C1364 1.363 . S
C1363 H1366 0.929 . S
C1364 C1363 1.363 . S
C1364 C1370 1.428 . S
H1365 C1361 0.930 . S
H1366 C1363 0.929 . S
S1367 N1368 1.613 . S
S1367 N1369 1.610 . S
N1368 S1367 1.613 . S
N1368 C1371 1.350 . S
N1369 S1367 1.610 . S
N1369 C1370 1.351 . S
C1370 C1364 1.428 . S
C1370 N1369 1.351 . S
C1370 C1371 1.434 . S
C1371 C1362 1.429 . S
C1371 N1368 1.350 . S
C1371 C1370 1.434 . S
C1372 C1373 1.369 1_545 S
C1372 C1374 1.419 . S
C1372 H1376 0.930 . S
C1373 C1372 1.369 1_565 S
C1373 C1382 1.429 . S
C1374 C1372 1.419 . S
C1374 C1375 1.363 . S
C1374 H1377 0.929 . S
C1375 C1374 1.363 . S
C1375 C1381 1.428 1_545 S
H1376 C1372 0.930 . S
H1377 C1374 0.929 . S
S1378 N1379 1.613 . S
S1378 N1380 1.610 . S
N1379 S1378 1.613 . S
N1379 C1382 1.350 . S
N1380 S1378 1.610 . S
N1380 C1381 1.351 . S
C1381 C1375 1.428 1_565 S
C1381 N1380 1.351 . S
C1381 C1382 1.434 . S
C1382 C1373 1.429 . S
C1382 N1379 1.350 . S
C1382 C1381 1.434 . S
C1383 C1384 1.369 . S
C1383 C1385 1.419 . S
C1383 H1387 0.930 . S
C1384 C1383 1.369 . S
C1384 C1393 1.429 . S
C1385 C1383 1.419 . S
C1385 C1386 1.363 . S
C1385 H1388 0.929 . S
C1386 C1385 1.363 . S
C1386 C1392 1.428 . S
H1387 C1383 0.930 . S
H1388 C1385 0.929 . S
S1389 N1390 1.613 . S
S1389 N1391 1.610 . S
N1390 S1389 1.613 . S
N1390 C1393 1.350 . S
N1391 S1389 1.610 . S
N1391 C1392 1.351 . S
C1392 C1386 1.428 . S
C1392 N1391 1.351 . S
C1392 C1393 1.434 . S
C1393 C1384 1.429 . S
C1393 N1390 1.350 . S
C1393 C1392 1.434 . S
C1394 C1395 1.369 . S
C1394 C1396 1.419 . S
C1394 H1398 0.930 . S
C1395 C1394 1.369 . S
C1395 C1404 1.429 1_545 S
C1396 C1394 1.419 . S
C1396 C1397 1.363 . S
C1396 H1399 0.929 . S
C1397 C1396 1.363 . S
C1397 C1403 1.428 1_545 S
H1398 C1394 0.930 . S
H1399 C1396 0.929 . S
S1400 N1401 1.613 . S
S1400 N1402 1.610 . S
N1401 S1400 1.613 . S
N1401 C1404 1.350 . S
N1402 S1400 1.610 . S
N1402 C1403 1.351 . S
C1403 C1397 1.428 1_565 S
C1403 N1402 1.351 . S
C1403 C1404 1.434 . S
C1404 C1395 1.429 1_565 S
C1404 N1401 1.350 . S
C1404 C1403 1.434 . S
C1405 C1406 1.369 . S
C1405 C1407 1.419 . S
C1405 H1409 0.930 . S
C1406 C1405 1.369 . S
C1406 C1415 1.429 . S
C1407 C1405 1.419 . S
C1407 C1408 1.363 . S
C1407 H1410 0.929 . S
C1408 C1407 1.363 . S
C1408 C1414 1.428 . S
H1409 C1405 0.930 . S
H1410 C1407 0.929 . S
S1411 N1412 1.613 . S
S1411 N1413 1.610 . S
N1412 S1411 1.613 . S
N1412 C1415 1.350 . S
N1413 S1411 1.610 . S
N1413 C1414 1.351 . S
C1414 C1408 1.428 . S
C1414 N1413 1.351 . S
C1414 C1415 1.434 . S
C1415 C1406 1.429 . S
C1415 N1412 1.350 . S
C1415 C1414 1.434 . S
C1416 C1417 1.369 . S
C1416 C1418 1.419 . S
C1416 H1420 0.930 . S
C1417 C1416 1.369 . S
C1417 C1426 1.429 . S
C1418 C1416 1.419 . S
C1418 C1419 1.363 . S
C1418 H1421 0.929 . S
C1419 C1418 1.363 . S
C1419 C1425 1.428 . S
H1420 C1416 0.930 . S
H1421 C1418 0.929 . S
S1422 N1423 1.613 . S
S1422 N1424 1.610 . S
N1423 S1422 1.613 . S
N1423 C1426 1.350 . S
N1424 S1422 1.610 . S
N1424 C1425 1.351 . S
C1425 C1419 1.428 . S
C1425 N1424 1.351 . S
C1425 C1426 1.434 . S
C1426 C1417 1.429 . S
C1426 N1423 1.350 . S
C1426 C1425 1.434 . S
C1427 C1428 1.369 . S
C1427 C1429 1.419 . S
C1427 H1431 0.930 . S
C1428 C1427 1.369 . S
C1428 C1437 1.429 . S
C1429 C1427 1.419 . S
C1429 C1430 1.363 . S
C1429 H1432 0.929 . S
C1430 C1429 1.363 . S
C1430 C1436 1.428 . S
H1431 C1427 0.930 . S
H1432 C1429 0.929 . S
S1433 N1434 1.613 . S
S1433 N1435 1.610 . S
N1434 S1433 1.613 . S
N1434 C1437 1.350 . S
N1435 S1433 1.610 . S
N1435 C1436 1.351 . S
C1436 C1430 1.428 . S
C1436 N1435 1.351 . S
C1436 C1437 1.434 . S
C1437 C1428 1.429 . S
C1437 N1434 1.350 . S
C1437 C1436 1.434 . S
C1438 C1439 1.369 . S
C1438 C1440 1.419 . S
C1438 H1442 0.930 . S
C1439 C1438 1.369 . S
C1439 C1448 1.429 . S
C1440 C1438 1.419 . S
C1440 C1441 1.363 . S
C1440 H1443 0.929 . S
C1441 C1440 1.363 . S
C1441 C1447 1.428 . S
H1442 C1438 0.930 . S
H1443 C1440 0.929 . S
S1444 N1445 1.613 . S
S1444 N1446 1.610 . S
N1445 S1444 1.613 . S
N1445 C1448 1.350 . S
N1446 S1444 1.610 . S
N1446 C1447 1.351 . S
C1447 C1441 1.428 . S
C1447 N1446 1.351 . S
C1447 C1448 1.434 . S
C1448 C1439 1.429 . S
C1448 N1445 1.350 . S
C1448 C1447 1.434 . S
C1449 C1450 1.369 . S
C1449 C1451 1.419 . S
C1449 H1453 0.930 . S
C1450 C1449 1.369 . S
C1450 C1459 1.429 . S
C1451 C1449 1.419 . S
C1451 C1452 1.363 . S
C1451 H1454 0.929 . S
C1452 C1451 1.363 . S
C1452 C1458 1.428 . S
H1453 C1449 0.930 . S
H1454 C1451 0.929 . S
S1455 N1456 1.613 . S
S1455 N1457 1.610 . S
N1456 S1455 1.613 . S
N1456 C1459 1.350 . S
N1457 S1455 1.610 . S
N1457 C1458 1.351 . S
C1458 C1452 1.428 . S
C1458 N1457 1.351 . S
C1458 C1459 1.434 . S
C1459 C1450 1.429 . S
C1459 N1456 1.350 . S
C1459 C1458 1.434 . S
C1460 C1461 1.369 . S
C1460 C1462 1.419 . S
C1460 H1464 0.930 . S
C1461 C1460 1.369 . S
C1461 C1470 1.429 . S
C1462 C1460 1.419 . S
C1462 C1463 1.363 . S
C1462 H1465 0.929 . S
C1463 C1462 1.363 . S
C1463 C1469 1.428 . S
H1464 C1460 0.930 . S
H1465 C1462 0.929 . S
S1466 N1467 1.613 . S
S1466 N1468 1.610 . S
N1467 S1466 1.613 . S
N1467 C1470 1.350 . S
N1468 S1466 1.610 . S
N1468 C1469 1.351 . S
C1469 C1463 1.428 . S
C1469 N1468 1.351 . S
C1469 C1470 1.434 . S
C1470 C1461 1.429 . S
C1470 N1467 1.350 . S
C1470 C1469 1.434 . S
C1471 C1472 1.369 . S
C1471 C1473 1.419 . S
C1471 H1475 0.930 . S
C1472 C1471 1.369 . S
C1472 C1481 1.429 . S
C1473 C1471 1.419 . S
C1473 C1474 1.363 . S
C1473 H1476 0.929 . S
C1474 C1473 1.363 . S
C1474 C1480 1.428 . S
H1475 C1471 0.930 . S
H1476 C1473 0.929 . S
S1477 N1478 1.613 . S
S1477 N1479 1.610 . S
N1478 S1477 1.613 . S
N1478 C1481 1.350 . S
N1479 S1477 1.610 . S
N1479 C1480 1.351 . S
C1480 C1474 1.428 . S
C1480 N1479 1.351 . S
C1480 C1481 1.434 . S
C1481 C1472 1.429 . S
C1481 N1478 1.350 . S
C1481 C1480 1.434 . S
C1482 C1483 1.369 . S
C1482 C1484 1.419 . S
C1482 H1486 0.930 . S
C1483 C1482 1.369 . S
C1483 C1492 1.429 . S
C1484 C1482 1.419 . S
C1484 C1485 1.363 . S
C1484 H1487 0.929 . S
C1485 C1484 1.363 . S
C1485 C1491 1.428 . S
H1486 C1482 0.930 . S
H1487 C1484 0.929 . S
S1488 N1489 1.613 . S
S1488 N1490 1.610 . S
N1489 S1488 1.613 . S
N1489 C1492 1.350 . S
N1490 S1488 1.610 . S
N1490 C1491 1.351 . S
C1491 C1485 1.428 . S
C1491 N1490 1.351 . S
C1491 C1492 1.434 . S
C1492 C1483 1.429 . S
C1492 N1489 1.350 . S
C1492 C1491 1.434 . S
C1493 C1494 1.369 . S
C1493 C1495 1.419 . S
C1493 H1497 0.930 . S
C1494 C1493 1.369 . S
C1494 C1503 1.429 . S
C1495 C1493 1.419 . S
C1495 C1496 1.363 . S
C1495 H1498 0.929 . S
C1496 C1495 1.363 . S
C1496 C1502 1.428 . S
H1497 C1493 0.930 . S
H1498 C1495 0.929 . S
S1499 N1500 1.613 . S
S1499 N1501 1.610 . S
N1500 S1499 1.613 . S
N1500 C1503 1.350 . S
N1501 S1499 1.610 . S
N1501 C1502 1.351 . S
C1502 C1496 1.428 . S
C1502 N1501 1.351 . S
C1502 C1503 1.434 . S
C1503 C1494 1.429 . S
C1503 N1500 1.350 . S
C1503 C1502 1.434 . S
C1504 C1505 1.369 . S
C1504 C1506 1.419 . S
C1504 H1508 0.930 . S
C1505 C1504 1.369 . S
C1505 C1514 1.429 . S
C1506 C1504 1.419 . S
C1506 C1507 1.363 . S
C1506 H1509 0.929 . S
C1507 C1506 1.363 . S
C1507 C1513 1.428 . S
H1508 C1504 0.930 . S
H1509 C1506 0.929 . S
S1510 N1511 1.613 . S
S1510 N1512 1.610 . S
N1511 S1510 1.613 . S
N1511 C1514 1.350 . S
N1512 S1510 1.610 . S
N1512 C1513 1.351 . S
C1513 C1507 1.428 . S
C1513 N1512 1.351 . S
C1513 C1514 1.434 . S
C1514 C1505 1.429 . S
C1514 N1511 1.350 . S
C1514 C1513 1.434 . S
C1515 C1516 1.369 . S
C1515 C1517 1.419 . S
C1515 H1519 0.930 . S
C1516 C1515 1.369 . S
C1516 C1525 1.429 . S
C1517 C1515 1.419 . S
C1517 C1518 1.363 . S
C1517 H1520 0.929 . S
C1518 C1517 1.363 . S
C1518 C1524 1.428 . S
H1519 C1515 0.930 . S
H1520 C1517 0.929 . S
S1521 N1522 1.613 . S
S1521 N1523 1.610 . S
N1522 S1521 1.613 . S
N1522 C1525 1.350 . S
N1523 S1521 1.610 . S
N1523 C1524 1.351 . S
C1524 C1518 1.428 . S
C1524 N1523 1.351 . S
C1524 C1525 1.434 . S
C1525 C1516 1.429 . S
C1525 N1522 1.350 . S
C1525 C1524 1.434 . S
C1526 C1527 1.369 1_556 S
C1526 C1528 1.419 1_556 S
C1526 H1530 0.930 . S
C1527 C1526 1.369 1_554 S
C1527 C1536 1.429 . S
C1528 C1526 1.419 1_554 S
C1528 C1529 1.363 . S
C1528 H1531 0.929 1_554 S
C1529 C1528 1.363 . S
C1529 C1535 1.428 . S
H1530 C1526 0.930 . S
H1531 C1528 0.929 1_556 S
S1532 N1533 1.613 . S
S1532 N1534 1.610 . S
N1533 S1532 1.613 . S
N1533 C1536 1.350 . S
N1534 S1532 1.610 . S
N1534 C1535 1.351 . S
C1535 C1529 1.428 . S
C1535 N1534 1.351 . S
C1535 C1536 1.434 . S
C1536 C1527 1.429 . S
C1536 N1533 1.350 . S
C1536 C1535 1.434 . S
C1537 C1538 1.369 . S
C1537 C1539 1.419 . S
C1537 H1541 0.930 1_655 S
C1538 C1537 1.369 . S
C1538 C1547 1.429 . S
C1539 C1537 1.419 . S
C1539 C1540 1.363 . S
C1539 H1542 0.929 . S
C1540 C1539 1.363 . S
C1540 C1546 1.428 . S
H1541 C1537 0.930 1_455 S
H1542 C1539 0.929 . S
S1543 N1544 1.613 . S
S1543 N1545 1.610 . S
N1544 S1543 1.613 . S
N1544 C1547 1.350 . S
N1545 S1543 1.610 . S
N1545 C1546 1.351 . S
C1546 C1540 1.428 . S
C1546 N1545 1.351 . S
C1546 C1547 1.434 . S
C1547 C1538 1.429 . S
C1547 N1544 1.350 . S
C1547 C1546 1.434 . S
C1548 C1549 1.369 . S
C1548 C1550 1.419 . S
C1548 H1552 0.930 . S
C1549 C1548 1.369 . S
C1549 C1558 1.429 . S
C1550 C1548 1.419 . S
C1550 C1551 1.363 . S
C1550 H1553 0.929 . S
C1551 C1550 1.363 . S
C1551 C1557 1.428 . S
H1552 C1548 0.930 . S
H1553 C1550 0.929 . S
S1554 N1555 1.613 . S
S1554 N1556 1.610 . S
N1555 S1554 1.613 . S
N1555 C1558 1.350 . S
N1556 S1554 1.610 . S
N1556 C1557 1.351 . S
C1557 C1551 1.428 . S
C1557 N1556 1.351 . S
C1557 C1558 1.434 . S
C1558 C1549 1.429 . S
C1558 N1555 1.350 . S
C1558 C1557 1.434 . S
C1559 C1560 1.369 1_655 S
C1559 C1561 1.419 . S
C1559 H1563 0.930 1_655 S
C1560 C1559 1.369 1_455 S
C1560 C1569 1.429 1_455 S
C1561 C1559 1.419 . S
C1561 C1562 1.363 . S
C1561 H1564 0.929 . S
C1562 C1561 1.363 . S
C1562 C1568 1.428 . S
H1563 C1559 0.930 1_455 S
H1564 C1561 0.929 . S
S1565 N1566 1.613 . S
S1565 N1567 1.610 . S
N1566 S1565 1.613 . S
N1566 C1569 1.350 . S
N1567 S1565 1.610 . S
N1567 C1568 1.351 . S
C1568 C1562 1.428 . S
C1568 N1567 1.351 . S
C1568 C1569 1.434 . S
C1569 C1560 1.429 1_655 S
C1569 N1566 1.350 . S
C1569 C1568 1.434 . S
C1570 C1571 1.369 1_455 S
C1570 C1572 1.419 . S
C1570 H1574 0.930 . S
C1571 C1570 1.369 1_655 S
C1571 C1580 1.429 . S
C1572 C1570 1.419 . S
C1572 C1573 1.363 . S
C1572 H1575 0.929 . S
C1573 C1572 1.363 . S
C1573 C1579 1.428 . S
H1574 C1570 0.930 . S
H1575 C1572 0.929 . S
S1576 N1577 1.613 . S
S1576 N1578 1.610 1_655 S
N1577 S1576 1.613 . S
N1577 C1580 1.350 . S
N1578 S1576 1.610 1_455 S
N1578 C1579 1.351 . S
C1579 C1573 1.428 . S
C1579 N1578 1.351 . S
C1579 C1580 1.434 1_455 S
C1580 C1571 1.429 . S
C1580 N1577 1.350 . S
C1580 C1579 1.434 1_655 S
C1581 C1582 1.369 . S
C1581 C1583 1.419 . S
C1581 H1585 0.930 . S
C1582 C1581 1.369 . S
C1582 C1591 1.429 . S
C1583 C1581 1.419 . S
C1583 C1584 1.363 . S
C1583 H1586 0.929 . S
C1584 C1583 1.363 . S
C1584 C1590 1.428 . S
H1585 C1581 0.930 . S
H1586 C1583 0.929 . S
S1587 N1588 1.613 . S
S1587 N1589 1.610 . S
N1588 S1587 1.613 . S
N1588 C1591 1.350 . S
N1589 S1587 1.610 . S
N1589 C1590 1.351 . S
C1590 C1584 1.428 . S
C1590 N1589 1.351 . S
C1590 C1591 1.434 . S
C1591 C1582 1.429 . S
C1591 N1588 1.350 . S
C1591 C1590 1.434 . S
C1592 C1593 1.369 . S
C1592 C1594 1.419 . S
C1592 H1596 0.930 . S
C1593 C1592 1.369 . S
C1593 C1602 1.429 . S
C1594 C1592 1.419 . S
C1594 C1595 1.363 . S
C1594 H1597 0.929 . S
C1595 C1594 1.363 . S
C1595 C1601 1.428 . S
H1596 C1592 0.930 . S
H1597 C1594 0.929 . S
S1598 N1599 1.613 . S
S1598 N1600 1.610 . S
N1599 S1598 1.613 . S
N1599 C1602 1.350 . S
N1600 S1598 1.610 . S
N1600 C1601 1.351 . S
C1601 C1595 1.428 . S
C1601 N1600 1.351 . S
C1601 C1602 1.434 . S
C1602 C1593 1.429 . S
C1602 N1599 1.350 . S
C1602 C1601 1.434 . S
C1603 C1604 1.369 . S
C1603 C1605 1.419 . S
C1603 H1607 0.930 . S
C1604 C1603 1.369 . S
C1604 C1613 1.429 . S
C1605 C1603 1.419 . S
C1605 C1606 1.363 . S
C1605 H1608 0.929 . S
C1606 C1605 1.363 . S
C1606 C1612 1.428 . S
H1607 C1603 0.930 . S
H1608 C1605 0.929 . S
S1609 N1610 1.613 . S
S1609 N1611 1.610 . S
N1610 S1609 1.613 . S
N1610 C1613 1.350 . S
N1611 S1609 1.610 . S
N1611 C1612 1.351 . S
C1612 C1606 1.428 . S
C1612 N1611 1.351 . S
C1612 C1613 1.434 . S
C1613 C1604 1.429 . S
C1613 N1610 1.350 . S
C1613 C1612 1.434 . S
C1614 C1615 1.369 . S
C1614 C1616 1.419 . S
C1614 H1618 0.930 . S
C1615 C1614 1.369 . S
C1615 C1624 1.429 . S
C1616 C1614 1.419 . S
C1616 C1617 1.363 . S
C1616 H1619 0.929 . S
C1617 C1616 1.363 . S
C1617 C1623 1.428 . S
H1618 C1614 0.930 . S
H1619 C1616 0.929 . S
S1620 N1621 1.613 . S
S1620 N1622 1.610 . S
N1621 S1620 1.613 . S
N1621 C1624 1.350 . S
N1622 S1620 1.610 . S
N1622 C1623 1.351 . S
C1623 C1617 1.428 . S
C1623 N1622 1.351 . S
C1623 C1624 1.434 . S
C1624 C1615 1.429 . S
C1624 N1621 1.350 . S
C1624 C1623 1.434 . S
C1625 C1626 1.369 . S
C1625 C1627 1.419 . S
C1625 H1629 0.930 . S
C1626 C1625 1.369 . S
C1626 C1635 1.429 . S
C1627 C1625 1.419 . S
C1627 C1628 1.363 . S
C1627 H1630 0.929 . S
C1628 C1627 1.363 . S
C1628 C1634 1.428 . S
H1629 C1625 0.930 . S
H1630 C1627 0.929 . S
S1631 N1632 1.613 . S
S1631 N1633 1.610 . S
N1632 S1631 1.613 . S
N1632 C1635 1.350 . S
N1633 S1631 1.610 . S
N1633 C1634 1.351 . S
C1634 C1628 1.428 . S
C1634 N1633 1.351 . S
C1634 C1635 1.434 . S
C1635 C1626 1.429 . S
C1635 N1632 1.350 . S
C1635 C1634 1.434 . S
C1636 C1637 1.369 . S
C1636 C1638 1.419 . S
C1636 H1640 0.930 . S
C1637 C1636 1.369 . S
C1637 C1646 1.429 . S
C1638 C1636 1.419 . S
C1638 C1639 1.363 . S
C1638 H1641 0.929 . S
C1639 C1638 1.363 . S
C1639 C1645 1.428 . S
H1640 C1636 0.930 . S
H1641 C1638 0.929 . S
S1642 N1643 1.613 . S
S1642 N1644 1.610 . S
N1643 S1642 1.613 . S
N1643 C1646 1.350 . S
N1644 S1642 1.610 . S
N1644 C1645 1.351 . S
C1645 C1639 1.428 . S
C1645 N1644 1.351 . S
C1645 C1646 1.434 . S
C1646 C1637 1.429 . S
C1646 N1643 1.350 . S
C1646 C1645 1.434 . S
C1647 C1648 1.369 . S
C1647 C1649 1.419 . S
C1647 H1651 0.930 . S
C1648 C1647 1.369 . S
C1648 C1657 1.429 . S
C1649 C1647 1.419 . S
C1649 C1650 1.363 . S
C1649 H1652 0.929 . S
C1650 C1649 1.363 . S
C1650 C1656 1.428 . S
H1651 C1647 0.930 . S
H1652 C1649 0.929 . S
S1653 N1654 1.613 . S
S1653 N1655 1.610 . S
N1654 S1653 1.613 . S
N1654 C1657 1.350 . S
N1655 S1653 1.610 . S
N1655 C1656 1.351 . S
C1656 C1650 1.428 . S
C1656 N1655 1.351 . S
C1656 C1657 1.434 . S
C1657 C1648 1.429 . S
C1657 N1654 1.350 . S
C1657 C1656 1.434 . S
C1658 C1659 1.369 . S
C1658 C1660 1.419 . S
C1658 H1662 0.930 . S
C1659 C1658 1.369 . S
C1659 C1668 1.429 . S
C1660 C1658 1.419 . S
C1660 C1661 1.363 . S
C1660 H1663 0.929 . S
C1661 C1660 1.363 . S
C1661 C1667 1.428 . S
H1662 C1658 0.930 . S
H1663 C1660 0.929 . S
S1664 N1665 1.613 . S
S1664 N1666 1.610 . S
N1665 S1664 1.613 . S
N1665 C1668 1.350 . S
N1666 S1664 1.610 . S
N1666 C1667 1.351 . S
C1667 C1661 1.428 . S
C1667 N1666 1.351 . S
C1667 C1668 1.434 . S
C1668 C1659 1.429 . S
C1668 N1665 1.350 . S
C1668 C1667 1.434 . S
C1669 C1670 1.369 . S
C1669 C1671 1.419 . S
C1669 H1673 0.930 . S
C1670 C1669 1.369 . S
C1670 C1679 1.429 . S
C1671 C1669 1.419 . S
C1671 C1672 1.363 . S
C1671 H1674 0.929 . S
C1672 C1671 1.363 . S
C1672 C1678 1.428 . S
H1673 C1669 0.930 . S
H1674 C1671 0.929 . S
S1675 N1676 1.613 . S
S1675 N1677 1.610 . S
N1676 S1675 1.613 . S
N1676 C1679 1.350 . S
N1677 S1675 1.610 . S
N1677 C1678 1.351 . S
C1678 C1672 1.428 . S
C1678 N1677 1.351 . S
C1678 C1679 1.434 . S
C1679 C1670 1.429 . S
C1679 N1676 1.350 . S
C1679 C1678 1.434 . S
C1680 C1681 1.369 . S
C1680 C1682 1.419 . S
C1680 H1684 0.930 . S
C1681 C1680 1.369 . S
C1681 C1690 1.429 . S
C1682 C1680 1.419 . S
C1682 C1683 1.363 . S
C1682 H1685 0.929 . S
C1683 C1682 1.363 . S
C1683 C1689 1.428 . S
H1684 C1680 0.930 . S
H1685 C1682 0.929 . S
S1686 N1687 1.613 . S
S1686 N1688 1.610 . S
N1687 S1686 1.613 . S
N1687 C1690 1.350 . S
N1688 S1686 1.610 . S
N1688 C1689 1.351 . S
C1689 C1683 1.428 . S
C1689 N1688 1.351 . S
C1689 C1690 1.434 . S
C1690 C1681 1.429 . S
C1690 N1687 1.350 . S
C1690 C1689 1.434 . S
C1691 C1692 1.369 . S
C1691 C1693 1.419 . S
C1691 H1695 0.930 . S
C1692 C1691 1.369 . S
C1692 C1701 1.429 . S
C1693 C1691 1.419 . S
C1693 C1694 1.363 . S
C1693 H1696 0.929 . S
C1694 C1693 1.363 . S
C1694 C1700 1.428 . S
H1695 C1691 0.930 . S
H1696 C1693 0.929 . S
S1697 N1698 1.613 . S
S1697 N1699 1.610 . S
N1698 S1697 1.613 . S
N1698 C1701 1.350 . S
N1699 S1697 1.610 . S
N1699 C1700 1.351 . S
C1700 C1694 1.428 . S
C1700 N1699 1.351 . S
C1700 C1701 1.434 . S
C1701 C1692 1.429 . S
C1701 N1698 1.350 . S
C1701 C1700 1.434 . S
C1702 C1703 1.369 . S
C1702 C1704 1.419 . S
C1702 H1706 0.930 . S
C1703 C1702 1.369 . S
C1703 C1712 1.429 . S
C1704 C1702 1.419 . S
C1704 C1705 1.363 . S
C1704 H1707 0.929 . S
C1705 C1704 1.363 . S
C1705 C1711 1.428 . S
H1706 C1702 0.930 . S
H1707 C1704 0.929 . S
S1708 N1709 1.613 . S
S1708 N1710 1.610 . S
N1709 S1708 1.613 . S
N1709 C1712 1.350 . S
N1710 S1708 1.610 . S
N1710 C1711 1.351 . S
C1711 C1705 1.428 . S
C1711 N1710 1.351 . S
C1711 C1712 1.434 . S
C1712 C1703 1.429 . S
C1712 N1709 1.350 . S
C1712 C1711 1.434 . S
C1713 C1714 1.369 . S
C1713 C1715 1.419 . S
C1713 H1717 0.930 . S
C1714 C1713 1.369 . S
C1714 C1723 1.429 1_554 S
C1715 C1713 1.419 . S
C1715 C1716 1.363 . S
C1715 H1718 0.929 . S
C1716 C1715 1.363 . S
C1716 C1722 1.428 . S
H1717 C1713 0.930 . S
H1718 C1715 0.929 . S
S1719 N1720 1.613 . S
S1719 N1721 1.610 . S
N1720 S1719 1.613 . S
N1720 C1723 1.350 . S
N1721 S1719 1.610 . S
N1721 C1722 1.351 1_556 S
C1722 C1716 1.428 . S
C1722 N1721 1.351 1_554 S
C1722 C1723 1.434 1_554 S
C1723 C1714 1.429 1_556 S
C1723 N1720 1.350 . S
C1723 C1722 1.434 1_556 S
C1724 C1725 1.369 . S
C1724 C1726 1.419 . S
C1724 H1728 0.930 . S
C1725 C1724 1.369 . S
C1725 C1734 1.429 . S
C1726 C1724 1.419 . S
C1726 C1727 1.363 . S
C1726 H1729 0.929 . S
C1727 C1726 1.363 . S
C1727 C1733 1.428 . S
H1728 C1724 0.930 . S
H1729 C1726 0.929 . S
S1730 N1731 1.613 . S
S1730 N1732 1.610 . S
N1731 S1730 1.613 . S
N1731 C1734 1.350 . S
N1732 S1730 1.610 . S
N1732 C1733 1.351 . S
C1733 C1727 1.428 . S
C1733 N1732 1.351 . S
C1733 C1734 1.434 . S
C1734 C1725 1.429 . S
C1734 N1731 1.350 . S
C1734 C1733 1.434 . S
C1735 C1736 1.369 . S
C1735 C1737 1.419 . S
C1735 H1739 0.930 . S
C1736 C1735 1.369 . S
C1736 C1745 1.429 . S
C1737 C1735 1.419 . S
C1737 C1738 1.363 . S
C1737 H1740 0.929 . S
C1738 C1737 1.363 . S
C1738 C1744 1.428 . S
H1739 C1735 0.930 . S
H1740 C1737 0.929 . S
S1741 N1742 1.613 . S
S1741 N1743 1.610 . S
N1742 S1741 1.613 . S
N1742 C1745 1.350 . S
N1743 S1741 1.610 . S
N1743 C1744 1.351 . S
C1744 C1738 1.428 . S
C1744 N1743 1.351 . S
C1744 C1745 1.434 . S
C1745 C1736 1.429 . S
C1745 N1742 1.350 . S
C1745 C1744 1.434 . S
C1746 C1747 1.369 . S
C1746 C1748 1.419 . S
C1746 H1750 0.930 . S
C1747 C1746 1.369 . S
C1747 C1756 1.429 . S
C1748 C1746 1.419 . S
C1748 C1749 1.363 . S
C1748 H1751 0.929 . S
C1749 C1748 1.363 . S
C1749 C1755 1.428 . S
H1750 C1746 0.930 . S
H1751 C1748 0.929 . S
S1752 N1753 1.613 . S
S1752 N1754 1.610 . S
N1753 S1752 1.613 . S
N1753 C1756 1.350 . S
N1754 S1752 1.610 . S
N1754 C1755 1.351 . S
C1755 C1749 1.428 . S
C1755 N1754 1.351 . S
C1755 C1756 1.434 . S
C1756 C1747 1.429 . S
C1756 N1753 1.350 . S
C1756 C1755 1.434 . S
C1757 C1758 1.369 . S
C1757 C1759 1.419 . S
C1757 H1761 0.930 . S
C1758 C1757 1.369 . S
C1758 C1767 1.429 . S
C1759 C1757 1.419 . S
C1759 C1760 1.363 . S
C1759 H1762 0.929 . S
C1760 C1759 1.363 . S
C1760 C1766 1.428 . S
H1761 C1757 0.930 . S
H1762 C1759 0.929 . S
S1763 N1764 1.613 . S
S1763 N1765 1.610 . S
N1764 S1763 1.613 . S
N1764 C1767 1.350 . S
N1765 S1763 1.610 . S
N1765 C1766 1.351 . S
C1766 C1760 1.428 . S
C1766 N1765 1.351 . S
C1766 C1767 1.434 . S
C1767 C1758 1.429 . S
C1767 N1764 1.350 . S
C1767 C1766 1.434 . S
C1768 C1769 1.369 . S
C1768 C1770 1.419 . S
C1768 H1772 0.930 . S
C1769 C1768 1.369 . S
C1769 C1778 1.429 . S
C1770 C1768 1.419 . S
C1770 C1771 1.363 . S
C1770 H1773 0.929 . S
C1771 C1770 1.363 . S
C1771 C1777 1.428 . S
H1772 C1768 0.930 . S
H1773 C1770 0.929 . S
S1774 N1775 1.613 . S
S1774 N1776 1.610 . S
N1775 S1774 1.613 . S
N1775 C1778 1.350 . S
N1776 S1774 1.610 . S
N1776 C1777 1.351 . S
C1777 C1771 1.428 . S
C1777 N1776 1.351 . S
C1777 C1778 1.434 . S
C1778 C1769 1.429 . S
C1778 N1775 1.350 . S
C1778 C1777 1.434 . S
C1779 C1780 1.369 . S
C1779 C1781 1.419 . S
C1779 H1783 0.930 . S
C1780 C1779 1.369 . S
C1780 C1789 1.429 . S
C1781 C1779 1.419 . S
C1781 C1782 1.363 . S
C1781 H1784 0.929 . S
C1782 C1781 1.363 . S
C1782 C1788 1.428 . S
H1783 C1779 0.930 . S
H1784 C1781 0.929 . S
S1785 N1786 1.613 . S
S1785 N1787 1.610 . S
N1786 S1785 1.613 . S
N1786 C1789 1.350 . S
N1787 S1785 1.610 . S
N1787 C1788 1.351 . S
C1788 C1782 1.428 . S
C1788 N1787 1.351 . S
C1788 C1789 1.434 . S
C1789 C1780 1.429 . S
C1789 N1786 1.350 . S
C1789 C1788 1.434 . S
C1790 C1791 1.369 . S
C1790 C1792 1.419 . S
C1790 H1794 0.930 . S
C1791 C1790 1.369 . S
C1791 C1800 1.429 . S
C1792 C1790 1.419 . S
C1792 C1793 1.363 . S
C1792 H1795 0.929 . S
C1793 C1792 1.363 . S
C1793 C1799 1.428 . S
H1794 C1790 0.930 . S
H1795 C1792 0.929 . S
S1796 N1797 1.613 1_655 S
S1796 N1798 1.619 . S
N1797 S1796 1.613 1_455 S
N1797 C1800 1.350 . S
N1798 S1796 1.619 . S
N1798 C1799 1.339 1_655 S
C1799 C1793 1.428 . S
C1799 N1798 1.339 1_455 S
C1799 C1800 1.434 . S
C1800 C1791 1.429 . S
C1800 N1797 1.350 . S
C1800 C1799 1.434 . S
C1801 C1802 1.369 . S
C1801 C1803 1.419 . S
C1801 H1805 0.930 . S
C1802 C1801 1.369 . S
C1802 C1811 1.429 . S
C1803 C1801 1.419 . S
C1803 C1804 1.363 . S
C1803 H1806 0.929 . S
C1804 C1803 1.363 . S
C1804 C1810 1.428 . S
H1805 C1801 0.930 . S
H1806 C1803 0.929 . S
S1807 N1808 1.613 . S
S1807 N1809 1.610 . S
N1808 S1807 1.613 . S
N1808 C1811 1.350 . S
N1809 S1807 1.610 . S
N1809 C1810 1.351 . S
C1810 C1804 1.428 . S
C1810 N1809 1.351 . S
C1810 C1811 1.434 . S
C1811 C1802 1.429 . S
C1811 N1808 1.350 . S
C1811 C1810 1.434 . S
C1812 C1813 1.369 . S
C1812 C1814 1.419 . S
C1812 H1816 0.930 1_554 S
C1813 C1812 1.369 . S
C1813 C1822 1.429 . S
C1814 C1812 1.419 . S
C1814 C1815 1.363 . S
C1814 H1817 0.929 1_554 S
C1815 C1814 1.363 . S
C1815 C1821 1.428 . S
H1816 C1812 0.930 1_556 S
H1817 C1814 0.929 1_556 S
S1818 N1819 1.613 . S
S1818 N1820 1.610 . S
N1819 S1818 1.613 . S
N1819 C1822 1.350 . S
N1820 S1818 1.610 . S
N1820 C1821 1.351 . S
C1821 C1815 1.428 . S
C1821 N1820 1.351 . S
C1821 C1822 1.434 . S
C1822 C1813 1.429 . S
C1822 N1819 1.350 . S
C1822 C1821 1.434 . S
C1823 C1824 1.369 . S
C1823 C1825 1.419 . S
C1823 H1827 0.930 . S
C1824 C1823 1.369 . S
C1824 C1833 1.429 . S
C1825 C1823 1.419 . S
C1825 C1826 1.363 . S
C1825 H1828 0.929 . S
C1826 C1825 1.363 . S
C1826 C1832 1.428 . S
H1827 C1823 0.930 . S
H1828 C1825 0.929 . S
S1829 N1830 1.613 . S
S1829 N1831 1.610 . S
N1830 S1829 1.613 . S
N1830 C1833 1.350 . S
N1831 S1829 1.610 . S
N1831 C1832 1.351 . S
C1832 C1826 1.428 . S
C1832 N1831 1.351 . S
C1832 C1833 1.434 . S
C1833 C1824 1.429 . S
C1833 N1830 1.350 . S
C1833 C1832 1.434 . S
C1834 C1835 1.369 . S
C1834 C1836 1.419 . S
C1834 H1838 0.930 . S
C1835 C1834 1.369 . S
C1835 C1844 1.429 . S
C1836 C1834 1.419 . S
C1836 C1837 1.363 . S
C1836 H1839 0.929 . S
C1837 C1836 1.363 . S
C1837 C1843 1.428 . S
H1838 C1834 0.930 . S
H1839 C1836 0.929 . S
S1840 N1841 1.613 . S
S1840 N1842 1.610 . S
N1841 S1840 1.613 . S
N1841 C1844 1.350 . S
N1842 S1840 1.610 . S
N1842 C1843 1.351 . S
C1843 C1837 1.428 . S
C1843 N1842 1.351 . S
C1843 C1844 1.434 . S
C1844 C1835 1.429 . S
C1844 N1841 1.350 . S
C1844 C1843 1.434 . S
C1845 C1846 1.369 . S
C1845 C1847 1.419 . S
C1845 H1849 0.930 . S
C1846 C1845 1.369 . S
C1846 C1855 1.429 . S
C1847 C1845 1.419 . S
C1847 C1848 1.363 . S
C1847 H1850 0.929 . S
C1848 C1847 1.363 . S
C1848 C1854 1.428 . S
H1849 C1845 0.930 . S
H1850 C1847 0.929 . S
S1851 N1852 1.613 . S
S1851 N1853 1.610 . S
N1852 S1851 1.613 . S
N1852 C1855 1.350 . S
N1853 S1851 1.610 . S
N1853 C1854 1.351 . S
C1854 C1848 1.428 . S
C1854 N1853 1.351 . S
C1854 C1855 1.434 . S
C1855 C1846 1.429 . S
C1855 N1852 1.350 . S
C1855 C1854 1.434 . S
C1856 C1857 1.369 . S
C1856 C1858 1.419 . S
C1856 H1860 0.930 . S
C1857 C1856 1.369 . S
C1857 C1866 1.429 . S
C1858 C1856 1.419 . S
C1858 C1859 1.363 . S
C1858 H1861 0.929 . S
C1859 C1858 1.363 . S
C1859 C1865 1.428 . S
H1860 C1856 0.930 . S
H1861 C1858 0.929 . S
S1862 N1863 1.613 . S
S1862 N1864 1.610 . S
N1863 S1862 1.613 . S
N1863 C1866 1.350 . S
N1864 S1862 1.610 . S
N1864 C1865 1.351 . S
C1865 C1859 1.428 . S
C1865 N1864 1.351 . S
C1865 C1866 1.434 . S
C1866 C1857 1.429 . S
C1866 N1863 1.350 . S
C1866 C1865 1.434 . S
C1867 C1868 1.369 . S
C1867 C1869 1.419 . S
C1867 H1871 0.930 . S
C1868 C1867 1.369 . S
C1868 C1877 1.429 . S
C1869 C1867 1.419 . S
C1869 C1870 1.363 . S
C1869 H1872 0.929 . S
C1870 C1869 1.363 . S
C1870 C1876 1.428 . S
H1871 C1867 0.930 . S
H1872 C1869 0.929 . S
S1873 N1874 1.613 . S
S1873 N1875 1.610 . S
N1874 S1873 1.613 . S
N1874 C1877 1.350 . S
N1875 S1873 1.610 . S
N1875 C1876 1.351 . S
C1876 C1870 1.428 . S
C1876 N1875 1.351 . S
C1876 C1877 1.434 . S
C1877 C1868 1.429 . S
C1877 N1874 1.350 . S
C1877 C1876 1.434 . S
C1878 C1879 1.369 . S
C1878 C1880 1.419 . S
C1878 H1882 0.930 . S
C1879 C1878 1.369 . S
C1879 C1888 1.429 . S
C1880 C1878 1.419 . S
C1880 C1881 1.363 . S
C1880 H1883 0.929 . S
C1881 C1880 1.363 . S
C1881 C1887 1.428 1_655 S
H1882 C1878 0.930 . S
H1883 C1880 0.929 . S
S1884 N1885 1.613 . S
S1884 N1886 1.610 . S
N1885 S1884 1.613 . S
N1885 C1888 1.350 1_455 S
N1886 S1884 1.610 . S
N1886 C1887 1.351 . S
C1887 C1881 1.428 1_455 S
C1887 N1886 1.351 . S
C1887 C1888 1.434 1_455 S
C1888 C1879 1.429 . S
C1888 N1885 1.350 1_655 S
C1888 C1887 1.434 1_655 S
C1889 C1890 1.369 . S
C1889 C1891 1.419 . S
C1889 H1893 0.930 . S
C1890 C1889 1.369 . S
C1890 C1899 1.429 . S
C1891 C1889 1.419 . S
C1891 C1892 1.363 . S
C1891 H1894 0.929 . S
C1892 C1891 1.363 . S
C1892 C1898 1.428 . S
H1893 C1889 0.930 . S
H1894 C1891 0.929 . S
S1895 N1896 1.613 . S
S1895 N1897 1.610 . S
N1896 S1895 1.613 . S
N1896 C1899 1.350 . S
N1897 S1895 1.610 . S
N1897 C1898 1.351 . S
C1898 C1892 1.428 . S
C1898 N1897 1.351 . S
C1898 C1899 1.434 . S
C1899 C1890 1.429 . S
C1899 N1896 1.350 . S
C1899 C1898 1.434 . S
C1900 C1901 1.369 . S
C1900 C1902 1.419 . S
C1900 H1904 0.930 . S
C1901 C1900 1.369 . S
C1901 C1910 1.429 . S
C1902 C1900 1.419 . S
C1902 C1903 1.363 . S
C1902 H1905 0.929 . S
C1903 C1902 1.363 . S
C1903 C1909 1.428 . S
H1904 C1900 0.930 . S
H1905 C1902 0.929 . S
S1906 N1907 1.613 . S
S1906 N1908 1.610 . S
N1907 S1906 1.613 . S
N1907 C1910 1.350 . S
N1908 S1906 1.610 . S
N1908 C1909 1.351 . S
C1909 C1903 1.428 . S
C1909 N1908 1.351 . S
C1909 C1910 1.434 . S
C1910 C1901 1.429 . S
C1910 N1907 1.350 . S
C1910 C1909 1.434 . S
C1911 C1912 1.369 . S
C1911 C1913 1.419 . S
C1911 H1915 0.930 . S
C1912 C1911 1.369 . S
C1912 C1921 1.429 . S
C1913 C1911 1.419 . S
C1913 C1914 1.363 . S
C1913 H1916 0.929 . S
C1914 C1913 1.363 . S
C1914 C1920 1.428 . S
H1915 C1911 0.930 . S
H1916 C1913 0.929 . S
S1917 N1918 1.613 . S
S1917 N1919 1.610 . S
N1918 S1917 1.613 . S
N1918 C1921 1.350 . S
N1919 S1917 1.610 . S
N1919 C1920 1.351 . S
C1920 C1914 1.428 . S
C1920 N1919 1.351 . S
C1920 C1921 1.434 . S
C1921 C1912 1.429 . S
C1921 N1918 1.350 . S
C1921 C1920 1.434 . S
C1922 C1923 1.369 . S
C1922 C1924 1.419 . S
C1922 H1926 0.930 . S
C1923 C1922 1.369 . S
C1923 C1932 1.429 . S
C1924 C1922 1.419 . S
C1924 C1925 1.363 . S
C1924 H1927 0.929 . S
C1925 C1924 1.363 . S
C1925 C1931 1.428 . S
H1926 C1922 0.930 . S
H1927 C1924 0.929 . S
S1928 N1929 1.613 . S
S1928 N1930 1.610 . S
N1929 S1928 1.613 . S
N1929 C1932 1.350 . S
N1930 S1928 1.610 . S
N1930 C1931 1.351 . S
C1931 C1925 1.428 . S
C1931 N1930 1.351 . S
C1931 C1932 1.434 . S
C1932 C1923 1.429 . S
C1932 N1929 1.350 . S
C1932 C1931 1.434 . S
C1933 C1934 1.369 . S
C1933 C1935 1.419 . S
C1933 H1937 0.930 . S
C1934 C1933 1.369 . S
C1934 C1943 1.429 . S
C1935 C1933 1.419 . S
C1935 C1936 1.363 . S
C1935 H1938 0.929 . S
C1936 C1935 1.363 . S
C1936 C1942 1.428 . S
H1937 C1933 0.930 . S
H1938 C1935 0.929 . S
S1939 N1940 1.613 . S
S1939 N1941 1.610 . S
N1940 S1939 1.613 . S
N1940 C1943 1.350 . S
N1941 S1939 1.610 . S
N1941 C1942 1.351 . S
C1942 C1936 1.428 . S
C1942 N1941 1.351 . S
C1942 C1943 1.434 . S
C1943 C1934 1.429 . S
C1943 N1940 1.350 . S
C1943 C1942 1.434 . S
C1944 C1945 1.369 . S
C1944 C1946 1.419 . S
C1944 H1948 0.930 . S
C1945 C1944 1.369 . S
C1945 C1954 1.429 . S
C1946 C1944 1.419 . S
C1946 C1947 1.363 . S
C1946 H1949 0.929 . S
C1947 C1946 1.363 . S
C1947 C1953 1.428 . S
H1948 C1944 0.930 . S
H1949 C1946 0.929 . S
S1950 N1951 1.613 . S
S1950 N1952 1.610 . S
N1951 S1950 1.613 . S
N1951 C1954 1.350 . S
N1952 S1950 1.610 . S
N1952 C1953 1.351 . S
C1953 C1947 1.428 . S
C1953 N1952 1.351 . S
C1953 C1954 1.434 . S
C1954 C1945 1.429 . S
C1954 N1951 1.350 . S
C1954 C1953 1.434 . S
C1955 C1956 1.369 . S
C1955 C1957 1.419 . S
C1955 H1959 0.930 . S
C1956 C1955 1.369 . S
C1956 C1965 1.429 . S
C1957 C1955 1.419 . S
C1957 C1958 1.363 . S
C1957 H1960 0.929 . S
C1958 C1957 1.363 . S
C1958 C1964 1.428 . S
H1959 C1955 0.930 . S
H1960 C1957 0.929 . S
S1961 N1962 1.613 1_545 S
S1961 N1963 1.610 . S
N1962 S1961 1.613 1_565 S
N1962 C1965 1.350 . S
N1963 S1961 1.610 . S
N1963 C1964 1.351 1_545 S
C1964 C1958 1.428 . S
C1964 N1963 1.351 1_565 S
C1964 C1965 1.434 . S
C1965 C1956 1.429 . S
C1965 N1962 1.350 . S
C1965 C1964 1.434 . S
C1966 C1967 1.369 . S
C1966 C1968 1.419 . S
C1966 H1970 0.930 . S
C1967 C1966 1.369 . S
C1967 C1976 1.429 . S
C1968 C1966 1.419 . S
C1968 C1969 1.363 . S
C1968 H1971 0.929 . S
C1969 C1968 1.363 . S
C1969 C1975 1.428 . S
H1970 C1966 0.930 . S
H1971 C1968 0.929 . S
S1972 N1973 1.613 . S
S1972 N1974 1.610 . S
N1973 S1972 1.613 . S
N1973 C1976 1.350 . S
N1974 S1972 1.610 . S
N1974 C1975 1.351 . S
C1975 C1969 1.428 . S
C1975 N1974 1.351 . S
C1975 C1976 1.434 . S
C1976 C1967 1.429 . S
C1976 N1973 1.350 . S
C1976 C1975 1.434 . S
C1977 C1978 1.369 . S
C1977 C1979 1.419 . S
C1977 H1981 0.930 . S
C1978 C1977 1.369 . S
C1978 C1987 1.429 . S
C1979 C1977 1.419 . S
C1979 C1980 1.363 . S
C1979 H1982 0.929 . S
C1980 C1979 1.363 . S
C1980 C1986 1.428 . S
H1981 C1977 0.930 . S
H1982 C1979 0.929 . S
S1983 N1984 1.613 . S
S1983 N1985 1.610 . S
N1984 S1983 1.613 . S
N1984 C1987 1.350 . S
N1985 S1983 1.610 . S
N1985 C1986 1.351 . S
C1986 C1980 1.428 . S
C1986 N1985 1.351 . S
C1986 C1987 1.434 . S
C1987 C1978 1.429 . S
C1987 N1984 1.350 . S
C1987 C1986 1.434 . S
C1988 C1989 1.369 . S
C1988 C1990 1.419 . S
C1988 H1992 0.930 . S
C1989 C1988 1.369 . S
C1989 C1998 1.429 . S
C1990 C1988 1.419 . S
C1990 C1991 1.363 . S
C1990 H1993 0.929 . S
C1991 C1990 1.363 . S
C1991 C1997 1.428 . S
H1992 C1988 0.930 . S
H1993 C1990 0.929 . S
S1994 N1995 1.613 . S
S1994 N1996 1.610 . S
N1995 S1994 1.613 . S
N1995 C1998 1.350 . S
N1996 S1994 1.610 . S
N1996 C1997 1.351 . S
C1997 C1991 1.428 . S
C1997 N1996 1.351 . S
C1997 C1998 1.434 . S
C1998 C1989 1.429 . S
C1998 N1995 1.350 . S
C1998 C1997 1.434 . S
C1999 C2000 1.369 . S
C1999 C2001 1.419 . S
C1999 H2003 0.930 . S
C2000 C1999 1.369 . S
C2000 C2009 1.429 . S
C2001 C1999 1.419 . S
C2001 C2002 1.363 . S
C2001 H2004 0.929 . S
C2002 C2001 1.363 . S
C2002 C2008 1.428 . S
H2003 C1999 0.930 . S
H2004 C2001 0.929 . S
S2005 N2006 1.613 . S
S2005 N2007 1.610 . S
N2006 S2005 1.613 . S
N2006 C2009 1.350 . S
N2007 S2005 1.610 . S
N2007 C2008 1.351 . S
C2008 C2002 1.428 . S
C2008 N2007 1.351 . S
C2008 C2009 1.434 . S
C2009 C2000 1.429 . S
C2009 N2006 1.350 . S
C2009 C2008 1.434 . S
C2010 C2011 1.369 . S
C2010 C2012 1.419 . S
C2010 H2014 0.930 . S
C2011 C2010 1.369 . S
C2011 C2020 1.429 . S
C2012 C2010 1.419 . S
C2012 C2013 1.363 . S
C2012 H2015 0.929 . S
C2013 C2012 1.363 . S
C2013 C2019 1.428 . S
H2014 C2010 0.930 . S
H2015 C2012 0.929 . S
S2016 N2017 1.613 . S
S2016 N2018 1.610 . S
N2017 S2016 1.613 . S
N2017 C2020 1.350 . S
N2018 S2016 1.610 . S
N2018 C2019 1.351 . S
C2019 C2013 1.428 . S
C2019 N2018 1.351 . S
C2019 C2020 1.434 . S
C2020 C2011 1.429 . S
C2020 N2017 1.350 . S
C2020 C2019 1.434 . S
C2021 C2022 1.369 . S
C2021 C2023 1.419 . S
C2021 H2025 0.930 . S
C2022 C2021 1.369 . S
C2022 C2031 1.429 . S
C2023 C2021 1.419 . S
C2023 C2024 1.363 . S
C2023 H2026 0.929 . S
C2024 C2023 1.363 . S
C2024 C2030 1.428 . S
H2025 C2021 0.930 . S
H2026 C2023 0.929 . S
S2027 N2028 1.613 . S
S2027 N2029 1.610 . S
N2028 S2027 1.613 . S
N2028 C2031 1.350 . S
N2029 S2027 1.610 . S
N2029 C2030 1.351 . S
C2030 C2024 1.428 . S
C2030 N2029 1.351 . S
C2030 C2031 1.434 . S
C2031 C2022 1.429 . S
C2031 N2028 1.350 . S
C2031 C2030 1.434 . S
C977 C105 2.239 1_454 S
C979 C355 2.182 . S
C988 C65 2.308 . S
C990 C384 2.306 . S
C999 C73 1.341 . S
C1001 C435 1.320 . S
C1012 C461 1.610 . S
C1010 C92 1.663 . S
C1021 C17 0.911 . S
C1023 C501 0.894 . S
C1034 C551 0.525 . S
C1032 C37 0.520 . S
C1045 C594 0.873 . S
C1043 C49 1.039 . S
C1054 C8 1.773 . S
C1056 C631 1.733 . S
C1067 C344 2.527 . S
C1065 C231 2.417 . S
C1076 C241 0.793 . S
C1078 C381 0.788 . S
C1089 C424 2.364 . S
C1087 C273 2.261 . S
C1100 C475 1.396 . S
C1098 C171 1.421 1_556 S
C1109 C227 2.018 . S
C1111 C515 1.968 1_655 S
C1122 C554 0.744 . S
C1120 C245 0.841 . S
C1133 C585 2.098 1_556 S
C1131 C269 2.187 . S
C1144 C634 2.168 . S
C1142 C175 2.131 . S
C1155 C341 1.974 . S
C1153 C162 2.055 . S
C1164 C289 2.322 . S
C1166 C664 2.317 . S
C1177 C705 2.453 . S
C1175 C330 2.474 . S
C1188 C751 0.735 . S
C1186 C317 0.739 . S
C1197 C120 2.598 . S
C1199 C625 2.544 . S
C1208 C134 1.639 . S
C1210 C421 1.589 . S
C1219 C331 2.211 . S
C1221 C784 2.204 . S
C1232 C835 1.953 . S
C1230 C303 1.998 . S
C1243 C345 2.167 . S
C1241 C59 2.223 . S
C1254 C834 2.336 . S
C1252 C107 2.332 . S
C1263 C91 1.380 . S
C1265 C425 1.354 . S
C1274 C78 1.669 . S
C1276 C791 1.633 . S
C1287 C511 0.922 . S
C1285 C7 0.886 . S
C1296 C51 0.597 . S
C1298 C701 0.606 . S
C1309 C584 0.813 . S
C1307 C31 0.690 . S
C1320 C861 1.675 . S
C1318 C22 1.660 . S
C1331 C354 2.536 1_556 S
C1329 C143 2.520 . S
C1342 C831 0.821 . S
C1340 C315 0.778 . S
C1351 C115 2.390 . S
C1353 C434 2.382 . S
C1362 C287 1.453 . S
C1364 C785 1.435 . S
C1373 C147 1.936 . S
C1375 C505 2.000 . S
C1386 C704 0.717 . S
C1384 C311 0.686 . S
C1395 C119 2.118 . S
C1397 C595 2.142 . S
C1406 C283 2.127 1_556 S
C1408 C864 2.148 . S
C1417 C190 1.991 . S
C1419 C351 1.969 . S
C1428 C177 2.360 . S
C1430 C674 2.360 . S
C1439 C260 2.496 . S
C1441 C555 2.479 . S
C1450 C247 0.753 . S
C1452 C741 0.744 . S
C1463 C875 2.553 . S
C1461 C274 2.598 . S
C1472 C218 1.629 . S
C1474 C431 1.606 . S
C1485 C474 2.231 . S
C1483 C261 2.230 . S
C1496 C385 1.978 . S
C1494 C205 2.030 . S
C1505 C77 2.243 . S
C1507 C915 2.174 . S
C1518 C824 2.293 . S
C1516 C93 2.298 . S
C1527 C101 1.352 1_554 S
C1529 C955 1.325 . S
C1538 C64 1.663 1_655 S
C1540 C781 1.599 . S
C1549 C45 0.909 . S
C1551 C661 0.892 . S
C1562 C711 0.580 . S
C1560 C9 0.583 . S
C1573 C754 0.881 . S
C1571 C21 1.052 1_655 S
C1584 C871 1.658 . S
C1582 C36 1.691 . S
C1595 C904 2.527 . S
C1593 C259 2.414 . S
C1604 C185 0.799 . S
C1606 C821 0.793 . S
C1617 C944 2.373 . S
C1615 C203 2.264 . S
C1628 C795 1.386 . S
C1626 C213 1.411 . S
C1639 C675 1.970 1_556 S
C1637 C255 2.013 . S
C1648 C189 0.818 . S
C1650 C714 0.725 . S
C1661 C745 2.094 . S
C1659 C199 2.173 . S
C1670 C217 2.119 . S
C1672 C874 2.155 . S
C1683 C901 2.022 . S
C1681 C316 2.099 . S
C1692 C135 2.322 . S
C1694 C504 2.317 . S
C1705 C545 2.448 . S
C1703 C148 2.475 . S
C1716 C591 0.727 . S
C1714 C163 0.725 . S
C1727 C865 2.536 . S
C1725 C302 2.597 . S
C1736 C288 1.638 . S
C1738 C941 1.587 . S
C1749 C464 2.212 . S
C1747 C149 2.217 . S
C1760 C395 1.953 . S
C1758 C121 2.004 . S
C1769 C87 2.230 . S
C1771 C905 2.171 . S
C1782 C394 2.335 . S
C1780 C79 2.327 . S
C1791 C63 1.393 . S
C1793 C945 1.367 . S
C1802 C106 1.660 . S
C1804 C471 1.629 . S
C1813 C35 0.901 . S
C1815 C671 0.906 . S
C1826 C541 0.606 . S
C1824 C23 0.617 . S
C1835 C3 0.791 . S
C1837 C744 0.871 . S
C1846 C50 1.653 . S
C1848 C621 1.668 . S
C1859 C914 2.536 . S
C1857 C325 2.521 . S
C1868 C161 0.762 . S
C1870 C391 0.790 . S
C1881 C954 2.392 1_656 S
C1879 C297 2.401 . S
C1890 C133 1.447 . S
C1892 C465 1.429 . S
C1901 C329 1.943 . S
C1903 C665 2.011 . S
C1914 C544 0.676 . S
C1912 C157 0.609 . S
C1923 C301 2.109 . S
C1925 C755 2.134 1_655 S
C1936 C624 2.143 . S
C1934 C129 2.119 . S
C1947 C911 1.972 . S
C1945 C246 1.995 . S
C1958 C514 2.351 1_565 S
C1956 C219 2.350 . S
C1967 C232 2.495 . S
C1969 C715 2.474 . S
C1980 C581 0.762 . S
C1978 C191 0.768 . S
C1989 C204 2.602 . S
C1991 C635 2.548 . S
C2000 C176 1.634 . S
C2002 C951 1.608 . S
C2013 C794 2.235 . S
C2011 C233 2.233 . S
C2024 C825 1.974 . S
C2022 C275 2.025 . S
