# Generated by pormake.
# Topology hwx, (6,3)-cn, num edge types: 1
# Building blocks:
#     Node 0, Type 0, BuildingBlock: OJICUG_clean_sbu_0, # of connection points: 6
#     Node 1, Type 0, BuildingBlock: OJICUG_clean_sbu_0, # of connection points: 6
#     Node 2, Type 0, BuildingBlock: OJICUG_clean_sbu_0, # of connection points: 6
#     Node 3, Type 0, BuildingBlock: OJICUG_clean_sbu_0, # of connection points: 6
#     Node 4, Type 1, BuildingBlock: OLANEW_clean_sbu_2, # of connection points: 3
#     Node 5, Type 1, BuildingBlock: OLANEW_clean_sbu_2, # of connection points: 3
#     Node 6, Type 1, BuildingBlock: OLANEW_clean_sbu_2, # of connection points: 3
#     Node 7, Type 1, BuildingBlock: OLANEW_clean_sbu_2, # of connection points: 3
#     Node 8, Type 1, BuildingBlock: OLANEW_clean_sbu_2, # of connection points: 3
#     Node 9, Type 1, BuildingBlock: OLANEW_clean_sbu_2, # of connection points: 3
#     Node 10, Type 1, BuildingBlock: OLANEW_clean_sbu_2, # of connection points: 3
#     Node 11, Type 1, BuildingBlock: OLANEW_clean_sbu_2, # of connection points: 3
#     Edge 12, Type (0, 1), BuildingBlock: CIFDUS_clean_linker_0, # of connection points: 2
#     Edge 13, Type (0, 1), BuildingBlock: CIFDUS_clean_linker_0, # of connection points: 2
#     Edge 14, Type (0, 1), BuildingBlock: CIFDUS_clean_linker_0, # of connection points: 2
#     Edge 15, Type (0, 1), BuildingBlock: CIFDUS_clean_linker_0, # of connection points: 2
#     Edge 16, Type (0, 1), BuildingBlock: CIFDUS_clean_linker_0, # of connection points: 2
#     Edge 17, Type (0, 1), BuildingBlock: CIFDUS_clean_linker_0, # of connection points: 2
#     Edge 18, Type (0, 1), BuildingBlock: CIFDUS_clean_linker_0, # of connection points: 2
#     Edge 19, Type (0, 1), BuildingBlock: CIFDUS_clean_linker_0, # of connection points: 2
#     Edge 20, Type (0, 1), BuildingBlock: CIFDUS_clean_linker_0, # of connection points: 2
#     Edge 21, Type (0, 1), BuildingBlock: CIFDUS_clean_linker_0, # of connection points: 2
#     Edge 22, Type (0, 1), BuildingBlock: CIFDUS_clean_linker_0, # of connection points: 2
#     Edge 23, Type (0, 1), BuildingBlock: CIFDUS_clean_linker_0, # of connection points: 2
#     Edge 24, Type (0, 1), BuildingBlock: CIFDUS_clean_linker_0, # of connection points: 2
#     Edge 25, Type (0, 1), BuildingBlock: CIFDUS_clean_linker_0, # of connection points: 2
#     Edge 26, Type (0, 1), BuildingBlock: CIFDUS_clean_linker_0, # of connection points: 2
#     Edge 27, Type (0, 1), BuildingBlock: CIFDUS_clean_linker_0, # of connection points: 2
#     Edge 28, Type (0, 1), BuildingBlock: CIFDUS_clean_linker_0, # of connection points: 2
#     Edge 29, Type (0, 1), BuildingBlock: CIFDUS_clean_linker_0, # of connection points: 2
#     Edge 30, Type (0, 1), BuildingBlock: CIFDUS_clean_linker_0, # of connection points: 2
#     Edge 31, Type (0, 1), BuildingBlock: CIFDUS_clean_linker_0, # of connection points: 2
#     Edge 32, Type (0, 1), BuildingBlock: CIFDUS_clean_linker_0, # of connection points: 2
#     Edge 33, Type (0, 1), BuildingBlock: CIFDUS_clean_linker_0, # of connection points: 2
#     Edge 34, Type (0, 1), BuildingBlock: CIFDUS_clean_linker_0, # of connection points: 2
#     Edge 35, Type (0, 1), BuildingBlock: CIFDUS_clean_linker_0, # of connection points: 2
# Relax obj value: 0.021
# Max RMSD: 0.061
# Mean RMSD: 0.060
data_MOF--net-hwx--node1-OJICUG_clean_sbu_0--node2-OLANEW_clean_sbu_2--edge1-CIFDUS_clean_linker_0
_symmetry_space_group_name_H-M    P1
_symmetry_Int_Tables_number       1
_symmetry_cell_setting            triclinic
loop_
_symmetry_equiv_pos_as_xyz
'x, y, z'
_cell_length_a     49.384864
_cell_length_b     49.315757
_cell_length_c     19.247023
_cell_angle_alpha  84.992356
_cell_angle_beta   94.81751
_cell_angle_gamma 90.091664
loop_
_atom_site_label
_atom_site_type_symbol
_atom_site_fract_x
_atom_site_fract_y
_atom_site_fract_z
_atom_type_partial_charge
Sc0 Sc 0.23944 0.24157 0.08768 0.0
Sc1 Sc 0.19193 0.19684 0.01134 0.0
Sc2 Sc 0.24125 0.229 0.91125 0.0
O3 O 0.22421 0.22244 0.0035 0.0
C4 C 0.2393 0.28883 0.96425 0.0
C5 C 0.17588 0.24217 0.10898 0.0
C6 C 0.17735 0.22952 0.86333 0.0
C7 C 0.2302 0.18048 0.15127 0.0
C8 C 0.29403 0.22901 0.01741 0.0
C9 C 0.22836 0.16575 0.91346 0.0
O10 O 0.2377 0.28083 0.0285 0.0
O11 O 0.16991 0.22302 0.07062 0.0
O12 O 0.20208 0.23461 0.85361 0.0
O13 O 0.24225 0.20337 0.15217 0.0
O14 O 0.28229 0.22438 0.95843 0.0
O15 O 0.20909 0.16683 0.95286 0.0
O16 O 0.28126 0.23618 0.06744 0.0
O17 O 0.21129 0.17552 0.10493 0.0
O18 O 0.24239 0.18638 0.89531 0.0
O19 O 0.20002 0.25055 0.12023 0.0
O20 O 0.24169 0.27247 0.91743 0.0
O21 O 0.17011 0.21619 0.91828 0.0
Sc22 Sc 0.27787 0.74287 0.43141 0.0
Sc23 Sc 0.32524 0.69504 0.51882 0.0
Sc24 Sc 0.28151 0.73157 0.61421 0.0
O25 O 0.29488 0.72306 0.52148 0.0
C26 C 0.27947 0.79063 0.53345 0.0
C27 C 0.34094 0.74317 0.40677 0.0
C28 C 0.34563 0.72643 0.6516 0.0
C29 C 0.28676 0.68313 0.38371 0.0
C30 C 0.22604 0.72955 0.51573 0.0
C31 C 0.29005 0.66693 0.63665 0.0
O32 O 0.2769 0.78196 0.47308 0.0
O33 O 0.34669 0.7218 0.44742 0.0
O34 O 0.32224 0.73532 0.66141 0.0
O35 O 0.27598 0.70665 0.37722 0.0
O36 O 0.23919 0.72898 0.57569 0.0
O37 O 0.30702 0.66556 0.59077 0.0
O38 O 0.23733 0.73387 0.45883 0.0
O39 O 0.30471 0.67549 0.43276 0.0
O40 O 0.27946 0.68916 0.65005 0.0
O41 O 0.31712 0.75335 0.39663 0.0
O42 O 0.28217 0.77493 0.58945 0.0
O43 O 0.34981 0.71117 0.6036 0.0
Sc44 Sc 0.76089 0.76701 0.94555 0.0
Sc45 Sc 0.80862 0.80232 0.05194 0.0
Sc46 Sc 0.7719 0.74714 0.1254 0.0
O47 O 0.78053 0.77221 0.04085 0.0
C48 C 0.71289 0.7579 0.04496 0.0
C49 C 0.76467 0.83207 0.93961 0.0
C50 C 0.77637 0.8049 0.18865 0.0
C51 C 0.82168 0.77881 0.90751 0.0
C52 C 0.77079 0.70512 0.00976 0.0
C53 C 0.83603 0.75397 0.15509 0.0
O54 O 0.72154 0.76573 0.98616 0.0
O55 O 0.78352 0.83235 0.98871 0.0
O56 O 0.76814 0.78051 0.18786 0.0
O57 O 0.79829 0.7684 0.89661 0.0
O58 O 0.77492 0.71121 0.07236 0.0
O59 O 0.83741 0.77641 0.11772 0.0
O60 O 0.76456 0.7228 0.95867 0.0
O61 O 0.82854 0.79171 0.96096 0.0
O62 O 0.814 0.74107 0.1618 0.0
O63 O 0.75478 0.81017 0.91814 0.0
O64 O 0.72858 0.74986 0.09861 0.0
O65 O 0.7913 0.81592 0.14325 0.0
Sc66 Sc 0.73011 0.27949 0.61825 0.0
Sc67 Sc 0.68658 0.31887 0.49486 0.0
Sc68 Sc 0.72754 0.267 0.44066 0.0
O69 O 0.71471 0.28841 0.51781 0.0
C70 C 0.78292 0.2733 0.53579 0.0
C71 C 0.72895 0.34433 0.60461 0.0
C72 C 0.72393 0.32794 0.36726 0.0
C73 C 0.66769 0.29129 0.63851 0.0
C74 C 0.7219 0.22025 0.56515 0.0
C75 C 0.66366 0.27375 0.39674 0.0
O76 O 0.77132 0.2777 0.5902 0.0
O77 O 0.71003 0.34714 0.55541 0.0
O78 O 0.7342 0.30403 0.37389 0.0
O79 O 0.69064 0.28039 0.65892 0.0
O80 O 0.72241 0.22795 0.50023 0.0
O81 O 0.66034 0.29408 0.43158 0.0
O82 O 0.72464 0.23668 0.61254 0.0
O83 O 0.66349 0.30593 0.58106 0.0
O84 O 0.68672 0.2626 0.39401 0.0
O85 O 0.73764 0.32138 0.63242 0.0
O86 O 0.76983 0.26866 0.47838 0.0
O87 O 0.70618 0.33538 0.40578 0.0
O88 O 0.1969 0.53238 0.81267 0.0
Cd89 Cd 0.17198 0.49462 0.86744 0.0
O90 O 0.22982 0.53138 0.897 0.0
Cd91 Cd 0.26289 0.55035 0.95791 0.0
O92 O 0.28045 0.57159 0.04609 0.0
C93 C 0.26351 0.58509 0.07567 0.0
O94 O 0.23789 0.58545 0.05074 0.0
C95 C 0.2187 0.54231 0.83944 0.0
C96 C 0.20024 0.44604 0.90493 0.0
O97 O 0.18908 0.45154 0.84273 0.0
O98 O 0.19886 0.46399 0.94886 0.0
O99 O 0.98389 0.69043 0.3677 0.0
Cd100 Cd 0.01965 0.66338 0.43709 0.0
O101 O 0.97833 0.71502 0.45497 0.0
Cd102 Cd 0.95594 0.74214 0.51409 0.0
O103 O 0.93017 0.75585 0.59135 0.0
C104 C 0.90486 0.75149 0.58104 0.0
O105 O 0.89583 0.74038 0.52396 0.0
C106 C 0.97118 0.70913 0.39306 0.0
C107 C 0.07177 0.6851 0.43709 0.0
O108 O 0.06208 0.6712 0.3876 0.0
O109 O 0.05656 0.68929 0.48594 0.0
O110 O 0.7818 0.45446 0.08427 0.0
Cd111 Cd 0.79601 0.48934 0.99519 0.0
O112 O 0.81673 0.42865 0.06901 0.0
Cd113 Cd 0.82436 0.45237 0.9718 0.0
O114 O 0.80803 0.45008 0.86381 0.0
C115 C 0.78293 0.45484 0.84678 0.0
O116 O 0.76812 0.46462 0.8925 0.0
C117 C 0.79603 0.433 0.10163 0.0
C118 C 0.79079 0.54417 0.01691 0.0
O119 O 0.77274 0.5325 0.97817 0.0
O120 O 0.81068 0.52972 0.04704 0.0
O121 O 0.02795 0.26398 0.58152 0.0
Cd122 Cd 0.99744 0.28122 0.48047 0.0
O123 O 0.05787 0.29484 0.55038 0.0
Cd124 Cd 0.03856 0.30721 0.44662 0.0
O125 O 0.05559 0.30258 0.34761 0.0
C126 C 0.05093 0.28115 0.31656 0.0
O127 O 0.03302 0.26368 0.34013 0.0
C128 C 0.05066 0.27565 0.59333 0.0
C129 C 0.94228 0.27181 0.49242 0.0
O130 O 0.9542 0.29208 0.51895 0.0
O131 O 0.95657 0.25565 0.46148 0.0
O132 O 0.68994 0.97599 0.73365 0.0
Cd133 Cd 0.66153 0.01309 0.67328 0.0
O134 O 0.70676 0.96953 0.63475 0.0
Cd135 Cd 0.73136 0.94948 0.56469 0.0
O136 O 0.74971 0.9291 0.48381 0.0
C137 C 0.74136 0.90528 0.47384 0.0
O138 O 0.72297 0.89439 0.51312 0.0
C139 C 0.70473 0.96204 0.69905 0.0
C140 C 0.68564 0.06255 0.6324 0.0
O141 O 0.67798 0.05748 0.69421 0.0
O142 O 0.68295 0.04373 0.59044 0.0
O143 O 0.5353 0.22616 0.11075 0.0
Cd144 Cd 0.51 0.21815 -0.00073 0.0
O145 O 0.52305 0.26928 0.10253 0.0
Cd146 Cd 0.51183 0.2683 0.99116 0.0
O147 O 0.53768 0.26809 0.90482 0.0
C148 C 0.56012 0.25543 0.91985 0.0
O149 O 0.5648 0.24256 0.9824 0.0
C150 C 0.53502 0.24895 0.13714 0.0
C151 C 0.45403 0.21285 0.00681 0.0
O152 O 0.46907 0.19177 0.00556 0.0
O153 O 0.46541 0.23622 0.00535 0.0
O154 O 0.23823 0.03473 0.44678 0.0
Cd155 Cd 0.24202 0.00347 0.55275 0.0
O156 O 0.28005 0.05024 0.45801 0.0
Cd157 Cd 0.28943 0.02848 0.56058 0.0
O158 O 0.29261 0.04498 0.66207 0.0
C159 C 0.27118 0.04682 0.69352 0.0
O160 O 0.24885 0.03532 0.66854 0.0
C161 C 0.25682 0.05013 0.42417 0.0
C162 C 0.2499 0.94948 0.52748 0.0
O163 O 0.22634 0.96063 0.51666 0.0
O164 O 0.2699 0.96388 0.54965 0.0
O165 O 0.467 0.77252 0.95643 0.0
Cd166 Cd 0.49735 0.78137 0.05911 0.0
O167 O 0.45345 0.81526 0.93988 0.0
Cd168 Cd 0.47222 0.82446 0.04143 0.0
O169 O 0.45601 0.81529 0.14248 0.0
C170 C 0.43465 0.82831 0.15198 0.0
O171 O 0.42611 0.8481 0.10512 0.0
C172 C 0.45295 0.79123 0.92052 0.0
C173 C 0.55235 0.77856 0.0378 0.0
O174 O 0.54026 0.75821 0.0674 0.0
O175 O 0.53837 0.80011 0.01756 0.0
H176 H 0.12379 0.22454 0.11774 0.0
H177 H 0.17856 0.28845 0.17772 0.0
H178 H 0.14348 0.30785 0.24058 0.0
H179 H 0.09864 0.30482 0.28576 0.0
H180 H 0.04456 0.23972 0.2312 0.0
H181 H 0.07787 0.22295 0.15794 0.0
C182 C 0.12802 0.24284 0.14403 0.0
C183 C 0.15392 0.25482 0.14342 0.0
C184 C 0.10787 0.25372 0.18103 0.0
C185 C 0.15895 0.27858 0.17783 0.0
C186 C 0.13887 0.28976 0.21372 0.0
C187 C 0.09391 0.28721 0.25699 0.0
C188 C 0.06917 0.27348 0.26419 0.0
C189 C 0.11343 0.27724 0.21665 0.0
C190 C 0.06349 0.25061 0.22678 0.0
C191 C 0.08257 0.24095 0.1851 0.0
H192 H 0.24109 0.65672 0.68524 0.0
H193 H 0.31984 0.62036 0.67492 0.0
H194 H 0.30548 0.57904 0.74213 0.0
H195 H 0.26986 0.55295 0.80235 0.0
H196 H 0.19013 0.58843 0.8015 0.0
H197 H 0.20554 0.63056 0.741 0.0
C198 C 0.25516 0.63979 0.69797 0.0
C199 C 0.28152 0.64161 0.67564 0.0
C200 C 0.24657 0.61601 0.73493 0.0
C201 C 0.2994 0.61936 0.69142 0.0
C202 C 0.29123 0.59581 0.73005 0.0
C203 C 0.25607 0.57008 0.78931 0.0
C204 C 0.22904 0.5679 0.8067 0.0
C205 C 0.26482 0.59388 0.75202 0.0
C206 C 0.21106 0.58986 0.78863 0.0
C207 C 0.21983 0.61387 0.75401 0.0
H208 H 0.87477 0.77985 0.23295 0.0
H209 H 0.8526 0.70144 0.16344 0.0
H210 H 0.89307 0.68086 0.22921 0.0
H211 H 0.93422 0.68498 0.30815 0.0
H212 H 0.95467 0.7623 0.38657 0.0
H213 H 0.91532 0.78355 0.31644 0.0
C214 C 0.87902 0.75832 0.23197 0.0
C215 C 0.86103 0.74216 0.19301 0.0
C216 C 0.90182 0.74645 0.27198 0.0
C217 C 0.8663 0.7142 0.19303 0.0
C218 C 0.88938 0.70246 0.2306 0.0
C219 C 0.93005 0.7065 0.30972 0.0
C220 C 0.94722 0.72209 0.35235 0.0
C221 C 0.90718 0.71835 0.27053 0.0
C222 C 0.9415 0.74986 0.35469 0.0
C223 C 0.91914 0.76202 0.31429 0.0
H224 H 0.70606 0.38957 0.64723 0.0
H225 H 0.78284 0.3522 0.61977 0.0
H226 H 0.80708 0.3873 0.6814 0.0
H227 H 0.80604 0.42367 0.75858 0.0
H228 H 0.7293 0.45876 0.79714 0.0
H229 H 0.70552 0.43011 0.71456 0.0
C230 C 0.7281 0.38965 0.65343 0.0
C231 C 0.74276 0.36841 0.62983 0.0
C232 C 0.74188 0.40932 0.69151 0.0
C233 C 0.77127 0.36836 0.63832 0.0
C234 C 0.7851 0.38836 0.67355 0.0
C235 C 0.78417 0.42554 0.74788 0.0
C236 C 0.76944 0.44294 0.78501 0.0
C237 C 0.77057 0.40824 0.70282 0.0
C238 C 0.74112 0.44526 0.76988 0.0
C239 C 0.72747 0.42877 0.72293 0.0
H240 H 0.61318 0.29658 0.36909 0.0
H241 H 0.6605 0.22637 0.33275 0.0
H242 H 0.62277 0.21026 0.25765 0.0
H243 H 0.57839 0.21849 0.19266 0.0
H244 H 0.53217 0.2901 0.22256 0.0
H245 H 0.56713 0.30288 0.31113 0.0
C246 C 0.61518 0.2776 0.34541 0.0
C247 C 0.63984 0.26295 0.35593 0.0
C248 C 0.59354 0.26864 0.30119 0.0
C249 C 0.64194 0.23832 0.3249 0.0
C250 C 0.62032 0.22901 0.28204 0.0
C251 C 0.57562 0.23653 0.21979 0.0
C252 C 0.55275 0.25336 0.20091 0.0
C253 C 0.59628 0.24432 0.26852 0.0
C254 C 0.54963 0.27684 0.23605 0.0
C255 C 0.5697 0.28425 0.28635 0.0
H256 H 0.2752 0.1497 0.86407 0.0
H257 H 0.1938 0.12301 0.89921 0.0
H258 H 0.20107 0.0819 0.84112 0.0
H259 H 0.22887 0.05594 0.77016 0.0
H260 H 0.31039 0.08251 0.73557 0.0
H261 H 0.30489 0.12091 0.8049 0.0
C262 C 0.25912 0.13479 0.85942 0.0
C263 C 0.23386 0.13963 0.88485 0.0
C264 C 0.26344 0.11116 0.82612 0.0
C265 C 0.2134 0.11986 0.87974 0.0
C266 C 0.21751 0.09636 0.84639 0.0
C267 C 0.2456 0.06987 0.7787 0.0
C268 C 0.26982 0.06658 0.74673 0.0
C269 C 0.24222 0.09212 0.81794 0.0
C270 C 0.29143 0.08463 0.75913 0.0
C271 C 0.28826 0.10673 0.79844 0.0
H272 H 0.3398 0.7938 0.33846 0.0
H273 H 0.39149 0.72312 0.3901 0.0
H274 H 0.42637 0.7445 0.32134 0.0
H275 H 0.4407 0.78181 0.23953 0.0
H276 H 0.3885 0.85205 0.18701 0.0
H277 H 0.35551 0.83238 0.26407 0.0
C278 C 0.35871 0.78304 0.3349 0.0
C279 C 0.36282 0.75672 0.36867 0.0
C280 C 0.37864 0.7954 0.29523 0.0
C281 C 0.38768 0.74333 0.36437 0.0
C282 C 0.40765 0.75554 0.325 0.0
C283 C 0.42231 0.79301 0.24574 0.0
C284 C 0.41699 0.81826 0.207 0.0
C285 C 0.40317 0.78138 0.28929 0.0
C286 C 0.39305 0.83251 0.21581 0.0
C287 C 0.3741 0.82123 0.25968 0.0
H288 H 0.74527 0.84295 0.8037 0.0
H289 H 0.76173 0.88056 0.99681 0.0
H290 H 0.74537 0.92434 0.93908 0.0
H291 H 0.72564 0.95184 0.83381 0.0
H292 H 0.71069 0.91444 0.64014 0.0
H293 H 0.72765 0.8709 0.69734 0.0
C294 C 0.74515 0.86072 0.83317 0.0
C295 C 0.75442 0.85846 0.9046 0.0
C296 C 0.73633 0.88596 0.79923 0.0
C297 C 0.75463 0.88176 0.9418 0.0
C298 C 0.7453 0.9068 0.90882 0.0
C299 C 0.7264 0.93419 0.80411 0.0
C300 C 0.71746 0.93649 0.73248 0.0
C301 C 0.73608 0.90915 0.83757 0.0
C302 C 0.71834 0.91345 0.69465 0.0
C303 C 0.72765 0.88842 0.72765 0.0
H304 H 0.81062 0.7623 0.77765 0.0
H305 H 0.8766 0.78964 0.91564 0.0
H306 H 0.90816 0.78444 0.82594 0.0
H307 H 0.91701 0.77105 0.70889 0.0
H308 H 0.85016 0.74409 0.57279 0.0
H309 H 0.81897 0.75038 0.66147 0.0
C310 C 0.83191 0.76709 0.78859 0.0
C311 C 0.8412 0.77615 0.85376 0.0
C312 C 0.84981 0.76418 0.73696 0.0
C313 C 0.86885 0.78257 0.86612 0.0
C314 C 0.88691 0.77959 0.81482 0.0
C315 C 0.89559 0.76669 0.69852 0.0
C316 C 0.88601 0.75699 0.63421 0.0
C317 C 0.87762 0.77028 0.75009 0.0
C318 C 0.85817 0.7515 0.62171 0.0
C319 C 0.84027 0.75505 0.67249 0.0
H320 H 0.77246 0.33005 0.3077 0.0
H321 H 0.69666 0.37335 0.30987 0.0
H322 H 0.71269 0.4101 0.23124 0.0
H323 H 0.74813 0.43034 0.16213 0.0
H324 H 0.8241 0.38753 0.15895 0.0
H325 H 0.80825 0.35058 0.23805 0.0
C326 C 0.75937 0.34739 0.29032 0.0
C327 C 0.73338 0.34884 0.31465 0.0
C328 C 0.76885 0.36881 0.24551 0.0
C329 C 0.7168 0.37167 0.29223 0.0
C330 C 0.72596 0.3928 0.2473 0.0
C331 C 0.76135 0.41308 0.17921 0.0
C332 C 0.7873 0.41184 0.15469 0.0
C333 C 0.752 0.39171 0.22403 0.0
C334 C 0.80403 0.38911 0.17704 0.0
C335 C 0.79494 0.36786 0.2221 0.0
H336 H 0.12288 0.21787 0.85128 0.0
H337 H 0.18426 0.26678 0.75345 0.0
H338 H 0.15018 0.2862 0.66487 0.0
H339 H 0.10359 0.28893 0.6135 0.0
H340 H 0.04169 0.23931 0.70592 0.0
H341 H 0.07536 0.2208 0.79876 0.0
C342 C 0.1288 0.23278 0.81059 0.0
C343 C 0.15621 0.24069 0.80912 0.0
C344 C 0.10902 0.24387 0.75903 0.0
C345 C 0.16344 0.26005 0.75584 0.0
C346 C 0.14393 0.27131 0.70515 0.0
C347 C 0.09728 0.27425 0.6542 0.0
C348 C 0.0701 0.26562 0.65285 0.0
C349 C 0.11674 0.26334 0.70614 0.0
C350 C 0.06247 0.24635 0.70577 0.0
C351 C 0.08174 0.23571 0.75872 0.0
H352 H 0.31683 0.64408 0.33261 0.0
H353 H 0.23692 0.68061 0.3144 0.0
H354 H 0.22257 0.65286 0.21934 0.0
H355 H 0.23308 0.6199 0.13808 0.0
H356 H 0.31335 0.58443 0.15073 0.0
H357 H 0.32723 0.61011 0.25095 0.0
C358 C 0.29621 0.64565 0.30828 0.0
C359 C 0.27796 0.66435 0.33047 0.0
C360 C 0.28823 0.63005 0.25222 0.0
C361 C 0.25139 0.66647 0.29798 0.0
C362 C 0.24315 0.65063 0.24359 0.0
C363 C 0.25361 0.61766 0.16279 0.0
C364 C 0.27214 0.6003 0.13679 0.0
C365 C 0.26149 0.63266 0.21966 0.0
C366 C 0.29869 0.59775 0.16948 0.0
C367 C 0.30662 0.61239 0.22691 0.0
H368 H 0.35277 0.77511 0.70412 0.0
H369 H 0.39122 0.69695 0.69946 0.0
H370 H 0.42908 0.71067 0.77926 0.0
H371 H 0.44979 0.74417 0.85538 0.0
H372 H 0.41183 0.82305 0.85473 0.0
H373 H 0.3755 0.80991 0.77103 0.0
C374 C 0.36946 0.76111 0.72065 0.0
C375 C 0.36908 0.73494 0.6971 0.0
C376 C 0.39129 0.76931 0.76521 0.0
C377 C 0.39108 0.71717 0.71739 0.0
C378 C 0.41267 0.725 0.76296 0.0
C379 C 0.43375 0.75859 0.83626 0.0
C380 C 0.43346 0.78446 0.86189 0.0
C381 C 0.41283 0.75093 0.78786 0.0
C382 C 0.41263 0.803 0.83604 0.0
C383 C 0.3917 0.79546 0.78843 0.0
H384 H 0.79183 0.85638 0.21956 0.0
H385 H 0.74124 0.78894 0.28579 0.0
H386 H 0.72658 0.81382 0.37925 0.0
H387 H 0.72755 0.85443 0.44241 0.0
H388 H 0.77767 0.92239 0.37887 0.0
H389 H 0.79305 0.89754 0.28462 0.0
C390 C 0.7776 0.84714 0.25439 0.0
C391 C 0.76775 0.82075 0.24524 0.0
C392 C 0.76912 0.8616 0.30878 0.0
C393 C 0.74932 0.80914 0.29122 0.0
C394 C 0.74083 0.82336 0.34495 0.0
C395 C 0.74187 0.86387 0.40811 0.0
C396 C 0.75139 0.89024 0.41771 0.0
C397 C 0.75056 0.84955 0.3542 0.0
C398 C 0.77 0.90208 0.37269 0.0
C399 C 0.77878 0.88789 0.3187 0.0
H400 H 0.66598 0.25724 0.75774 0.0
H401 H 0.61729 0.31494 0.61853 0.0
H402 H 0.57935 0.30784 0.69092 0.0
H403 H 0.56027 0.28634 0.79555 0.0
H404 H 0.60897 0.22897 0.93536 0.0
H405 H 0.64641 0.23472 0.86054 0.0
C406 C 0.6471 0.2683 0.74318 0.0
C407 C 0.64467 0.28671 0.68287 0.0
C408 C 0.62525 0.26413 0.78504 0.0
C409 C 0.61989 0.30068 0.66469 0.0
C410 C 0.59809 0.29663 0.70605 0.0
C411 C 0.57898 0.27492 0.80937 0.0
C412 C 0.5818 0.25733 0.87109 0.0
C413 C 0.60058 0.27852 0.76651 0.0
C414 C 0.60624 0.24272 0.88824 0.0
C415 C 0.62772 0.24603 0.84557 0.0
H416 H 0.20716 0.13057 0.17407 0.0
H417 H 0.27383 0.18006 0.24911 0.0
H418 H 0.28924 0.14309 0.33572 0.0
H419 H 0.28306 0.09735 0.3927 0.0
H420 H 0.21533 0.04862 0.32142 0.0
H421 H 0.20138 0.08457 0.22986 0.0
C422 C 0.22508 0.13334 0.20927 0.0
C423 C 0.23919 0.1582 0.20505 0.0
C424 C 0.2338 0.11205 0.25927 0.0
C425 C 0.26239 0.16129 0.2513 0.0
C426 C 0.27133 0.14009 0.30073 0.0
C427 C 0.26549 0.0944 0.35645 0.0
C428 C 0.25033 0.07029 0.3636 0.0
C429 C 0.25714 0.11544 0.30534 0.0
C430 C 0.22736 0.06698 0.31691 0.0
C431 C 0.21931 0.08756 0.26478 0.0
H432 H 0.23887 0.33115 0.04678 0.0
H433 H 0.23228 0.31286 0.83052 0.0
H434 H 0.22174 0.36035 0.79304 0.0
H435 H 0.21062 0.40624 0.82165 0.0
H436 H 0.21707 0.42482 0.03742 0.0
H437 H 0.23168 0.37814 0.07478 0.0
C438 C 0.23539 0.33756 0.9914 0.0
C439 C 0.23612 0.31828 0.94176 0.0
C440 C 0.22918 0.36497 0.96997 0.0
C441 C 0.23181 0.32712 0.87012 0.0
C442 C 0.22567 0.35432 0.84849 0.0
C443 C 0.2155 0.40018 0.87682 0.0
C444 C 0.21247 0.41892 0.92667 0.0
C445 C 0.22373 0.37329 0.89799 0.0
C446 C 0.21915 0.41079 0.9979 0.0
C447 C 0.2274 0.38406 0.01937 0.0
H448 H 0.19383 0.71672 0.4019 0.0
H449 H 0.19175 0.72932 0.62063 0.0
H450 H 0.14342 0.71821 0.61445 0.0
H451 H 0.10216 0.70328 0.54796 0.0
H452 H 0.1051 0.68871 0.33081 0.0
H453 H 0.15269 0.70245 0.33536 0.0
C454 C 0.18281 0.71729 0.44819 0.0
C455 C 0.19646 0.72392 0.51162 0.0
C456 C 0.15517 0.71048 0.44458 0.0
C457 C 0.18182 0.72423 0.57115 0.0
C458 C 0.15416 0.7179 0.56767 0.0
C459 C 0.11315 0.70335 0.50147 0.0
C460 C 0.10009 0.69501 0.43911 0.0
C461 C 0.14068 0.71077 0.5048 0.0
C462 C 0.11468 0.69498 0.37951 0.0
C463 C 0.1419 0.70282 0.38205 0.0
H464 H 0.79814 0.66566 0.09357 0.0
H465 H 0.7481 0.67901 0.8987 0.0
H466 H 0.74915 0.63011 0.88465 0.0
H467 H 0.76362 0.58338 0.92958 0.0
H468 H 0.81516 0.57112 0.12228 0.0
H469 H 0.81391 0.61984 0.13573 0.0
C470 C 0.78743 0.65793 0.0479 0.0
C471 C 0.77287 0.67596 0.99752 0.0
C472 C 0.78823 0.62996 0.04012 0.0
C473 C 0.75951 0.6656 0.93818 0.0
C474 C 0.75998 0.63763 0.93035 0.0
C475 C 0.77443 0.5914 0.97468 0.0
C476 C 0.78926 0.57364 0.02524 0.0
C477 C 0.77409 0.61959 0.98136 0.0
C478 C 0.80355 0.58434 0.08278 0.0
C479 C 0.80288 0.6122 0.09046 0.0
H480 H 0.81639 0.24858 0.45507 0.0
H481 H 0.81682 0.30086 0.62369 0.0
H482 H 0.86618 0.30469 0.62595 0.0
H483 H 0.90912 0.29426 0.57781 0.0
H484 H 0.90898 0.24046 0.4126 0.0
H485 H 0.85967 0.23606 0.41149 0.0
C486 C 0.82731 0.26078 0.49236 0.0
C487 C 0.81294 0.27451 0.53887 0.0
C488 C 0.85574 0.26262 0.49401 0.0
C489 C 0.8274 0.28998 0.58748 0.0
C490 C 0.85562 0.29226 0.58867 0.0
C491 C 0.8983 0.28149 0.54174 0.0
C492 C 0.91267 0.26785 0.49508 0.0
C493 C 0.86998 0.27882 0.54189 0.0
C494 C 0.89841 0.25115 0.44915 0.0
C495 C 0.87019 0.2487 0.4483 0.0
H496 H 0.71731 0.17661 0.48504 0.0
H497 H 0.71571 0.19822 0.6976 0.0
H498 H 0.70601 0.15145 0.7369 0.0
H499 H 0.69598 0.10478 0.71155 0.0
H500 H 0.69728 0.08207 0.50041 0.0
H501 H 0.70935 0.12867 0.46054 0.0
C502 C 0.71496 0.17107 0.53997 0.0
C503 C 0.71714 0.19115 0.58791 0.0
C504 C 0.70932 0.14386 0.5628 0.0
C505 C 0.71413 0.18342 0.65908 0.0
C506 C 0.70855 0.15657 0.68191 0.0
C507 C 0.6991 0.10991 0.65686 0.0
C508 C 0.69558 0.08997 0.60909 0.0
C509 C 0.70583 0.1367 0.63424 0.0
C510 C 0.69985 0.09702 0.53843 0.0
C511 C 0.70665 0.12371 0.51549 0.0
H512 H 0.32755 0.19382 0.96432 0.0
H513 H 0.32752 0.26157 0.0917 0.0
H514 H 0.37715 0.2624 0.1004 0.0
H515 H 0.4205 0.2452 0.06738 0.0
H516 H 0.42106 0.17523 0.948 0.0
H517 H 0.37132 0.17375 0.94083 0.0
C518 C 0.33849 0.20863 0.99423 0.0
C519 C 0.32398 0.22776 0.02681 0.0
C520 C 0.36706 0.20862 0.0003 0.0
C521 C 0.3383 0.24661 0.06631 0.0
C522 C 0.36665 0.24718 0.07107 0.0
C523 C 0.40968 0.22956 0.04015 0.0
C524 C 0.42427 0.21053 0.00763 0.0
C525 C 0.38122 0.22849 0.03762 0.0
C526 C 0.41016 0.19008 0.97344 0.0
C527 C 0.38176 0.1893 0.9691 0.0
H528 H 0.24832 0.82771 0.45134 0.0
H529 H 0.30811 0.81962 0.6286 0.0
H530 H 0.30569 0.86866 0.63929 0.0
H531 H 0.28538 0.9136 0.60035 0.0
H532 H 0.22227 0.92065 0.43071 0.0
H533 H 0.22718 0.8723 0.41449 0.0
C534 C 0.26095 0.83678 0.49191 0.0
C535 C 0.27849 0.82025 0.53883 0.0
C536 C 0.25878 0.86475 0.49909 0.0
C537 C 0.29442 0.83205 0.592 0.0
C538 C 0.29307 0.86004 0.59803 0.0
C539 C 0.2729 0.90453 0.55951 0.0
C540 C 0.25365 0.92057 0.51641 0.0
C541 C 0.27518 0.87656 0.55218 0.0
C542 C 0.23722 0.9086 0.46447 0.0
C543 C 0.24003 0.88101 0.45518 0.0
H544 H 0.6746 0.78954 0.9669 0.0
H545 H 0.68469 0.72675 0.13796 0.0
H546 H 0.63577 0.72683 0.14885 0.0
H547 H 0.59018 0.74509 0.11075 0.0
H548 H 0.58038 0.80987 0.94479 0.0
H549 H 0.62911 0.80861 0.93072 0.0
C550 C 0.66606 0.77579 0.00634 0.0
C551 C 0.68324 0.75809 0.05134 0.0
C552 C 0.63798 0.77631 0.01322 0.0
C553 C 0.67192 0.74065 0.10283 0.0
C554 C 0.64395 0.74063 0.10898 0.0
C555 C 0.59871 0.75881 0.07125 0.0
C556 C 0.58172 0.77743 0.0286 0.0
C557 C 0.62679 0.7584 0.06457 0.0
C558 C 0.59307 0.79537 0.9783 0.0
C559 C 0.62091 0.79464 0.9702 0.0
loop_
_geom_bond_atom_site_label_1
_geom_bond_atom_site_label_2
_geom_bond_distance
_geom_bond_site_symmetry_2
_ccdc_geom_bond_type
Sc0 O3 2.025 . S
Sc0 O10 2.105 . S
Sc0 O13 2.105 . S
Sc0 O16 2.105 . S
Sc0 O19 2.105 . S
Sc1 O3 2.025 . S
Sc1 O11 2.105 . S
Sc1 O15 2.105 1_554 S
Sc1 O17 2.105 . S
Sc1 O21 2.105 1_554 S
Sc2 O3 2.025 1_556 S
Sc2 O12 2.105 . S
Sc2 O14 2.105 . S
Sc2 O18 2.105 . S
Sc2 O20 2.105 . S
O3 Sc0 2.025 . S
O3 Sc1 2.025 . S
O3 Sc2 2.025 1_554 S
C4 O10 1.268 . S
C4 O20 1.268 1_554 S
C5 O11 1.268 . S
C5 O19 1.268 . S
C6 O12 1.268 . S
C6 O21 1.268 . S
C7 O13 1.268 . S
C7 O17 1.268 . S
C8 O14 1.268 1_554 S
C8 O16 1.268 . S
C9 O15 1.268 . S
C9 O18 1.268 . S
O10 Sc0 2.105 . S
O10 C4 1.268 . S
O11 Sc1 2.105 . S
O11 C5 1.268 . S
O12 Sc2 2.105 . S
O12 C6 1.268 . S
O13 Sc0 2.105 . S
O13 C7 1.268 . S
O14 Sc2 2.105 . S
O14 C8 1.268 1_556 S
O15 Sc1 2.105 1_556 S
O15 C9 1.268 . S
O16 Sc0 2.105 . S
O16 C8 1.268 . S
O17 Sc1 2.105 . S
O17 C7 1.268 . S
O18 Sc2 2.105 . S
O18 C9 1.268 . S
O19 Sc0 2.105 . S
O19 C5 1.268 . S
O20 Sc2 2.105 . S
O20 C4 1.268 1_556 S
O21 Sc1 2.105 1_556 S
O21 C6 1.268 . S
Sc22 O25 2.025 . S
Sc22 O32 2.105 . S
Sc22 O35 2.105 . S
Sc22 O38 2.105 . S
Sc22 O41 2.105 . S
Sc23 O25 2.025 . S
Sc23 O33 2.105 . S
Sc23 O37 2.105 . S
Sc23 O39 2.105 . S
Sc23 O43 2.105 . S
Sc24 O25 2.025 . S
Sc24 O34 2.105 . S
Sc24 O36 2.105 . S
Sc24 O40 2.105 . S
Sc24 O42 2.105 . S
O25 Sc22 2.025 . S
O25 Sc23 2.025 . S
O25 Sc24 2.025 . S
C26 O32 1.268 . S
C26 O42 1.268 . S
C27 O33 1.268 . S
C27 O41 1.268 . S
C28 O34 1.268 . S
C28 O43 1.268 . S
C29 O35 1.268 . S
C29 O39 1.268 . S
C30 O36 1.268 . S
C30 O38 1.268 . S
C31 O37 1.268 . S
C31 O40 1.268 . S
O32 Sc22 2.105 . S
O32 C26 1.268 . S
O33 Sc23 2.105 . S
O33 C27 1.268 . S
O34 Sc24 2.105 . S
O34 C28 1.268 . S
O35 Sc22 2.105 . S
O35 C29 1.268 . S
O36 Sc24 2.105 . S
O36 C30 1.268 . S
O37 Sc23 2.105 . S
O37 C31 1.268 . S
O38 Sc22 2.105 . S
O38 C30 1.268 . S
O39 Sc23 2.105 . S
O39 C29 1.268 . S
O40 Sc24 2.105 . S
O40 C31 1.268 . S
O41 Sc22 2.105 . S
O41 C27 1.268 . S
O42 Sc24 2.105 . S
O42 C26 1.268 . S
O43 Sc23 2.105 . S
O43 C28 1.268 . S
Sc44 O47 2.025 1_556 S
Sc44 O54 2.105 . S
Sc44 O57 2.105 . S
Sc44 O60 2.105 . S
Sc44 O63 2.105 . S
Sc45 O47 2.025 . S
Sc45 O55 2.105 1_554 S
Sc45 O59 2.105 . S
Sc45 O61 2.105 1_554 S
Sc45 O65 2.105 . S
Sc46 O47 2.025 . S
Sc46 O56 2.105 . S
Sc46 O58 2.105 . S
Sc46 O62 2.105 . S
Sc46 O64 2.105 . S
O47 Sc44 2.025 1_554 S
O47 Sc45 2.025 . S
O47 Sc46 2.025 . S
C48 O54 1.268 1_554 S
C48 O64 1.268 . S
C49 O55 1.268 . S
C49 O63 1.268 . S
C50 O56 1.268 . S
C50 O65 1.268 . S
C51 O57 1.268 . S
C51 O61 1.268 . S
C52 O58 1.268 . S
C52 O60 1.268 1_554 S
C53 O59 1.268 . S
C53 O62 1.268 . S
O54 Sc44 2.105 . S
O54 C48 1.268 1_556 S
O55 Sc45 2.105 1_556 S
O55 C49 1.268 . S
O56 Sc46 2.105 . S
O56 C50 1.268 . S
O57 Sc44 2.105 . S
O57 C51 1.268 . S
O58 Sc46 2.105 . S
O58 C52 1.268 . S
O59 Sc45 2.105 . S
O59 C53 1.268 . S
O60 Sc44 2.105 . S
O60 C52 1.268 1_556 S
O61 Sc45 2.105 1_556 S
O61 C51 1.268 . S
O62 Sc46 2.105 . S
O62 C53 1.268 . S
O63 Sc44 2.105 . S
O63 C49 1.268 . S
O64 Sc46 2.105 . S
O64 C48 1.268 . S
O65 Sc45 2.105 . S
O65 C50 1.268 . S
Sc66 O69 2.025 . S
Sc66 O76 2.105 . S
Sc66 O79 2.105 . S
Sc66 O82 2.105 . S
Sc66 O85 2.105 . S
Sc67 O69 2.025 . S
Sc67 O77 2.105 . S
Sc67 O81 2.105 . S
Sc67 O83 2.105 . S
Sc67 O87 2.105 . S
Sc68 O69 2.025 . S
Sc68 O78 2.105 . S
Sc68 O80 2.105 . S
Sc68 O84 2.105 . S
Sc68 O86 2.105 . S
O69 Sc66 2.025 . S
O69 Sc67 2.025 . S
O69 Sc68 2.025 . S
C70 O76 1.268 . S
C70 O86 1.268 . S
C71 O77 1.268 . S
C71 O85 1.268 . S
C72 O78 1.268 . S
C72 O87 1.268 . S
C73 O79 1.268 . S
C73 O83 1.268 . S
C74 O80 1.268 . S
C74 O82 1.268 . S
C75 O81 1.268 . S
C75 O84 1.268 . S
O76 Sc66 2.105 . S
O76 C70 1.268 . S
O77 Sc67 2.105 . S
O77 C71 1.268 . S
O78 Sc68 2.105 . S
O78 C72 1.268 . S
O79 Sc66 2.105 . S
O79 C73 1.268 . S
O80 Sc68 2.105 . S
O80 C74 1.268 . S
O81 Sc67 2.105 . S
O81 C75 1.268 . S
O82 Sc66 2.105 . S
O82 C74 1.268 . S
O83 Sc67 2.105 . S
O83 C73 1.268 . S
O84 Sc68 2.105 . S
O84 C75 1.268 . S
O85 Sc66 2.105 . S
O85 C71 1.268 . S
O86 Sc68 2.105 . S
O86 C70 1.268 . S
O87 Sc67 2.105 . S
O87 C72 1.268 . S
O88 Cd89 2.300 1_556 S
O88 C95 1.275 . S
Cd89 O88 2.300 1_554 S
Cd89 O97 2.381 1_554 S
Cd89 O98 2.378 . S
O90 Cd91 2.385 1_556 S
O90 C95 1.255 . S
Cd91 O90 2.385 1_554 S
Cd91 O92 2.317 . S
O92 Cd91 2.317 . S
O92 C93 1.232 . S
C93 O92 1.232 . S
C93 O94 1.218 . S
O94 C93 1.218 . S
C95 O88 1.275 . S
C95 O90 1.255 . S
C96 O97 1.258 1_554 S
C96 O98 1.256 . S
O97 Cd89 2.381 1_556 S
O97 C96 1.258 1_556 S
O98 Cd89 2.378 . S
O98 C96 1.256 . S
O99 Cd100 2.300 1_655 S
O99 C106 1.275 . S
Cd100 O99 2.300 1_455 S
Cd100 O108 2.381 . S
Cd100 O109 2.378 . S
O101 Cd102 2.385 . S
O101 C106 1.255 . S
Cd102 O101 2.385 . S
Cd102 O103 2.317 . S
O103 Cd102 2.317 . S
O103 C104 1.232 . S
C104 O103 1.232 . S
C104 O105 1.218 . S
O105 C104 1.218 . S
C106 O99 1.275 . S
C106 O101 1.255 . S
C107 O108 1.258 . S
C107 O109 1.256 . S
O108 Cd100 2.381 . S
O108 C107 1.258 . S
O109 Cd100 2.378 . S
O109 C107 1.256 . S
O110 Cd111 2.300 . S
O110 C117 1.275 . S
Cd111 O110 2.300 . S
Cd111 O119 2.381 . S
Cd111 O120 2.378 1_554 S
O112 Cd113 2.385 1_554 S
O112 C117 1.255 . S
Cd113 O112 2.385 1_556 S
Cd113 O114 2.317 . S
O114 Cd113 2.317 . S
O114 C115 1.232 . S
C115 O114 1.232 . S
C115 O116 1.218 . S
O116 C115 1.218 . S
C117 O110 1.275 . S
C117 O112 1.255 . S
C118 O119 1.258 . S
C118 O120 1.256 1_554 S
O119 Cd111 2.381 . S
O119 C118 1.258 . S
O120 Cd111 2.378 1_556 S
O120 C118 1.256 1_556 S
O121 Cd122 2.300 1_455 S
O121 C128 1.275 . S
Cd122 O121 2.300 1_655 S
Cd122 O130 2.381 . S
Cd122 O131 2.378 . S
O123 Cd124 2.385 . S
O123 C128 1.255 . S
Cd124 O123 2.385 . S
Cd124 O125 2.317 . S
O125 Cd124 2.317 . S
O125 C126 1.232 . S
C126 O125 1.232 . S
C126 O127 1.218 . S
O127 C126 1.218 . S
C128 O121 1.275 . S
C128 O123 1.255 . S
C129 O130 1.258 . S
C129 O131 1.256 . S
O130 Cd122 2.381 . S
O130 C129 1.258 . S
O131 Cd122 2.378 . S
O131 C129 1.256 . S
O132 Cd133 2.300 1_565 S
O132 C139 1.275 . S
Cd133 O132 2.300 1_545 S
Cd133 O141 2.381 . S
Cd133 O142 2.378 . S
O134 Cd135 2.385 . S
O134 C139 1.255 . S
Cd135 O134 2.385 . S
Cd135 O136 2.317 . S
O136 Cd135 2.317 . S
O136 C137 1.232 . S
C137 O136 1.232 . S
C137 O138 1.218 . S
O138 C137 1.218 . S
C139 O132 1.275 . S
C139 O134 1.255 . S
C140 O141 1.258 . S
C140 O142 1.256 . S
O141 Cd133 2.381 . S
O141 C140 1.258 . S
O142 Cd133 2.378 . S
O142 C140 1.256 . S
O143 Cd144 2.300 . S
O143 C150 1.275 . S
Cd144 O143 2.300 . S
Cd144 O152 2.381 . S
Cd144 O153 2.378 1_554 S
O145 Cd146 2.385 1_554 S
O145 C150 1.255 . S
Cd146 O145 2.385 1_556 S
Cd146 O147 2.317 . S
O147 Cd146 2.317 . S
O147 C148 1.232 . S
C148 O147 1.232 . S
C148 O149 1.218 . S
O149 C148 1.218 . S
C150 O143 1.275 . S
C150 O145 1.255 . S
C151 O152 1.258 . S
C151 O153 1.256 1_554 S
O152 Cd144 2.381 . S
O152 C151 1.258 . S
O153 Cd144 2.378 1_556 S
O153 C151 1.256 1_556 S
O154 Cd155 2.300 1_545 S
O154 C161 1.275 . S
Cd155 O154 2.300 1_565 S
Cd155 O163 2.381 . S
Cd155 O164 2.378 . S
O156 Cd157 2.385 . S
O156 C161 1.255 . S
Cd157 O156 2.385 . S
Cd157 O158 2.317 . S
O158 Cd157 2.317 . S
O158 C159 1.232 . S
C159 O158 1.232 . S
C159 O160 1.218 . S
O160 C159 1.218 . S
C161 O154 1.275 . S
C161 O156 1.255 . S
C162 O163 1.258 . S
C162 O164 1.256 . S
O163 Cd155 2.381 . S
O163 C162 1.258 . S
O164 Cd155 2.378 . S
O164 C162 1.256 . S
O165 Cd166 2.300 . S
O165 C172 1.275 . S
Cd166 O165 2.300 . S
Cd166 O174 2.381 . S
Cd166 O175 2.378 1_556 S
O167 Cd168 2.385 1_556 S
O167 C172 1.255 . S
Cd168 O167 2.385 1_554 S
Cd168 O169 2.317 . S
O169 Cd168 2.317 . S
O169 C170 1.232 . S
C170 O169 1.232 . S
C170 O171 1.218 . S
O171 C170 1.218 . S
C172 O165 1.275 . S
C172 O167 1.255 . S
C173 O174 1.258 1_554 S
C173 O175 1.256 . S
O174 Cd166 2.381 . S
O174 C173 1.258 1_556 S
O175 Cd166 2.378 1_554 S
O175 C173 1.256 . S
H176 C182 0.930 . S
H177 C185 0.930 . S
H178 C186 0.930 . S
H179 C187 0.930 . S
H180 C190 0.930 . S
H181 C191 0.930 . S
C182 H176 0.930 . S
C182 C183 1.355 . S
C182 C184 1.415 . S
C183 C182 1.355 . S
C183 C185 1.419 . S
C184 C182 1.415 . S
C184 C189 1.425 . S
C184 C191 1.409 . S
C185 H177 0.930 . S
C185 C183 1.419 . S
C185 C186 1.362 . S
C186 H178 0.930 . S
C186 C185 1.362 . S
C186 C189 1.409 . S
C187 H179 0.930 . S
C187 C188 1.355 . S
C187 C189 1.415 . S
C188 C187 1.355 . S
C188 C190 1.419 . S
C189 C184 1.425 . S
C189 C186 1.409 . S
C189 C187 1.415 . S
C190 H180 0.930 . S
C190 C188 1.419 . S
C190 C191 1.362 . S
C191 H181 0.930 . S
C191 C184 1.409 . S
C191 C190 1.362 . S
H192 C198 0.930 . S
H193 C201 0.930 . S
H194 C202 0.930 . S
H195 C203 0.930 . S
H196 C206 0.930 . S
H197 C207 0.930 . S
C198 H192 0.930 . S
C198 C199 1.355 . S
C198 C200 1.415 . S
C199 C198 1.355 . S
C199 C201 1.419 . S
C200 C198 1.415 . S
C200 C205 1.425 . S
C200 C207 1.409 . S
C201 H193 0.930 . S
C201 C199 1.419 . S
C201 C202 1.362 . S
C202 H194 0.930 . S
C202 C201 1.362 . S
C202 C205 1.409 . S
C203 H195 0.930 . S
C203 C204 1.355 . S
C203 C205 1.415 . S
C204 C203 1.355 . S
C204 C206 1.419 . S
C205 C200 1.425 . S
C205 C202 1.409 . S
C205 C203 1.415 . S
C206 H196 0.930 . S
C206 C204 1.419 . S
C206 C207 1.362 . S
C207 H197 0.930 . S
C207 C200 1.409 . S
C207 C206 1.362 . S
H208 C214 0.930 . S
H209 C217 0.930 . S
H210 C218 0.930 . S
H211 C219 0.930 . S
H212 C222 0.930 . S
H213 C223 0.930 . S
C214 H208 0.930 . S
C214 C215 1.355 . S
C214 C216 1.415 . S
C215 C214 1.355 . S
C215 C217 1.419 . S
C216 C214 1.415 . S
C216 C221 1.425 . S
C216 C223 1.409 . S
C217 H209 0.930 . S
C217 C215 1.419 . S
C217 C218 1.362 . S
C218 H210 0.930 . S
C218 C217 1.362 . S
C218 C221 1.409 . S
C219 H211 0.930 . S
C219 C220 1.355 . S
C219 C221 1.415 . S
C220 C219 1.355 . S
C220 C222 1.419 . S
C221 C216 1.425 . S
C221 C218 1.409 . S
C221 C219 1.415 . S
C222 H212 0.930 . S
C222 C220 1.419 . S
C222 C223 1.362 . S
C223 H213 0.930 . S
C223 C216 1.409 . S
C223 C222 1.362 . S
H224 C230 0.930 . S
H225 C233 0.930 . S
H226 C234 0.930 . S
H227 C235 0.930 . S
H228 C238 0.930 . S
H229 C239 0.930 . S
C230 H224 0.930 . S
C230 C231 1.355 . S
C230 C232 1.415 . S
C231 C230 1.355 . S
C231 C233 1.419 . S
C232 C230 1.415 . S
C232 C237 1.425 . S
C232 C239 1.409 . S
C233 H225 0.930 . S
C233 C231 1.419 . S
C233 C234 1.362 . S
C234 H226 0.930 . S
C234 C233 1.362 . S
C234 C237 1.409 . S
C235 H227 0.930 . S
C235 C236 1.355 . S
C235 C237 1.415 . S
C236 C235 1.355 . S
C236 C238 1.419 . S
C237 C232 1.425 . S
C237 C234 1.409 . S
C237 C235 1.415 . S
C238 H228 0.930 . S
C238 C236 1.419 . S
C238 C239 1.362 . S
C239 H229 0.930 . S
C239 C232 1.409 . S
C239 C238 1.362 . S
H240 C246 0.930 . S
H241 C249 0.930 . S
H242 C250 0.930 . S
H243 C251 0.930 . S
H244 C254 0.930 . S
H245 C255 0.930 . S
C246 H240 0.930 . S
C246 C247 1.355 . S
C246 C248 1.415 . S
C247 C246 1.355 . S
C247 C249 1.419 . S
C248 C246 1.415 . S
C248 C253 1.425 . S
C248 C255 1.409 . S
C249 H241 0.930 . S
C249 C247 1.419 . S
C249 C250 1.362 . S
C250 H242 0.930 . S
C250 C249 1.362 . S
C250 C253 1.409 . S
C251 H243 0.930 . S
C251 C252 1.355 . S
C251 C253 1.415 . S
C252 C251 1.355 . S
C252 C254 1.419 . S
C253 C248 1.425 . S
C253 C250 1.409 . S
C253 C251 1.415 . S
C254 H244 0.930 . S
C254 C252 1.419 . S
C254 C255 1.362 . S
C255 H245 0.930 . S
C255 C248 1.409 . S
C255 C254 1.362 . S
H256 C262 0.930 . S
H257 C265 0.930 . S
H258 C266 0.930 . S
H259 C267 0.930 . S
H260 C270 0.930 . S
H261 C271 0.930 . S
C262 H256 0.930 . S
C262 C263 1.355 . S
C262 C264 1.415 . S
C263 C262 1.355 . S
C263 C265 1.419 . S
C264 C262 1.415 . S
C264 C269 1.425 . S
C264 C271 1.409 . S
C265 H257 0.930 . S
C265 C263 1.419 . S
C265 C266 1.362 . S
C266 H258 0.930 . S
C266 C265 1.362 . S
C266 C269 1.409 . S
C267 H259 0.930 . S
C267 C268 1.355 . S
C267 C269 1.415 . S
C268 C267 1.355 . S
C268 C270 1.419 . S
C269 C264 1.425 . S
C269 C266 1.409 . S
C269 C267 1.415 . S
C270 H260 0.930 . S
C270 C268 1.419 . S
C270 C271 1.362 . S
C271 H261 0.930 . S
C271 C264 1.409 . S
C271 C270 1.362 . S
H272 C278 0.930 . S
H273 C281 0.930 . S
H274 C282 0.930 . S
H275 C283 0.930 . S
H276 C286 0.930 . S
H277 C287 0.930 . S
C278 H272 0.930 . S
C278 C279 1.355 . S
C278 C280 1.415 . S
C279 C278 1.355 . S
C279 C281 1.419 . S
C280 C278 1.415 . S
C280 C285 1.425 . S
C280 C287 1.409 . S
C281 H273 0.930 . S
C281 C279 1.419 . S
C281 C282 1.362 . S
C282 H274 0.930 . S
C282 C281 1.362 . S
C282 C285 1.409 . S
C283 H275 0.930 . S
C283 C284 1.355 . S
C283 C285 1.415 . S
C284 C283 1.355 . S
C284 C286 1.419 . S
C285 C280 1.425 . S
C285 C282 1.409 . S
C285 C283 1.415 . S
C286 H276 0.930 . S
C286 C284 1.419 . S
C286 C287 1.362 . S
C287 H277 0.930 . S
C287 C280 1.409 . S
C287 C286 1.362 . S
H288 C294 0.930 . S
H289 C297 0.930 . S
H290 C298 0.930 . S
H291 C299 0.930 . S
H292 C302 0.930 . S
H293 C303 0.930 . S
C294 H288 0.930 . S
C294 C295 1.355 . S
C294 C296 1.415 . S
C295 C294 1.355 . S
C295 C297 1.419 . S
C296 C294 1.415 . S
C296 C301 1.425 . S
C296 C303 1.409 . S
C297 H289 0.930 . S
C297 C295 1.419 . S
C297 C298 1.362 . S
C298 H290 0.930 . S
C298 C297 1.362 . S
C298 C301 1.409 . S
C299 H291 0.930 . S
C299 C300 1.355 . S
C299 C301 1.415 . S
C300 C299 1.355 . S
C300 C302 1.419 . S
C301 C296 1.425 . S
C301 C298 1.409 . S
C301 C299 1.415 . S
C302 H292 0.930 . S
C302 C300 1.419 . S
C302 C303 1.362 . S
C303 H293 0.930 . S
C303 C296 1.409 . S
C303 C302 1.362 . S
H304 C310 0.930 . S
H305 C313 0.930 . S
H306 C314 0.930 . S
H307 C315 0.930 . S
H308 C318 0.930 . S
H309 C319 0.930 . S
C310 H304 0.930 . S
C310 C311 1.355 . S
C310 C312 1.415 . S
C311 C310 1.355 . S
C311 C313 1.419 . S
C312 C310 1.415 . S
C312 C317 1.425 . S
C312 C319 1.409 . S
C313 H305 0.930 . S
C313 C311 1.419 . S
C313 C314 1.362 . S
C314 H306 0.930 . S
C314 C313 1.362 . S
C314 C317 1.409 . S
C315 H307 0.930 . S
C315 C316 1.355 . S
C315 C317 1.415 . S
C316 C315 1.355 . S
C316 C318 1.419 . S
C317 C312 1.425 . S
C317 C314 1.409 . S
C317 C315 1.415 . S
C318 H308 0.930 . S
C318 C316 1.419 . S
C318 C319 1.362 . S
C319 H309 0.930 . S
C319 C312 1.409 . S
C319 C318 1.362 . S
H320 C326 0.930 . S
H321 C329 0.930 . S
H322 C330 0.930 . S
H323 C331 0.930 . S
H324 C334 0.930 . S
H325 C335 0.930 . S
C326 H320 0.930 . S
C326 C327 1.355 . S
C326 C328 1.415 . S
C327 C326 1.355 . S
C327 C329 1.419 . S
C328 C326 1.415 . S
C328 C333 1.425 . S
C328 C335 1.409 . S
C329 H321 0.930 . S
C329 C327 1.419 . S
C329 C330 1.362 . S
C330 H322 0.930 . S
C330 C329 1.362 . S
C330 C333 1.409 . S
C331 H323 0.930 . S
C331 C332 1.355 . S
C331 C333 1.415 . S
C332 C331 1.355 . S
C332 C334 1.419 . S
C333 C328 1.425 . S
C333 C330 1.409 . S
C333 C331 1.415 . S
C334 H324 0.930 . S
C334 C332 1.419 . S
C334 C335 1.362 . S
C335 H325 0.930 . S
C335 C328 1.409 . S
C335 C334 1.362 . S
H336 C342 0.930 . S
H337 C345 0.930 . S
H338 C346 0.930 . S
H339 C347 0.930 . S
H340 C350 0.930 . S
H341 C351 0.930 . S
C342 H336 0.930 . S
C342 C343 1.355 . S
C342 C344 1.415 . S
C343 C342 1.355 . S
C343 C345 1.419 . S
C344 C342 1.415 . S
C344 C349 1.425 . S
C344 C351 1.409 . S
C345 H337 0.930 . S
C345 C343 1.419 . S
C345 C346 1.362 . S
C346 H338 0.930 . S
C346 C345 1.362 . S
C346 C349 1.409 . S
C347 H339 0.930 . S
C347 C348 1.355 . S
C347 C349 1.415 . S
C348 C347 1.355 . S
C348 C350 1.419 . S
C349 C344 1.425 . S
C349 C346 1.409 . S
C349 C347 1.415 . S
C350 H340 0.930 . S
C350 C348 1.419 . S
C350 C351 1.362 . S
C351 H341 0.930 . S
C351 C344 1.409 . S
C351 C350 1.362 . S
H352 C358 0.930 . S
H353 C361 0.930 . S
H354 C362 0.930 . S
H355 C363 0.930 . S
H356 C366 0.930 . S
H357 C367 0.930 . S
C358 H352 0.930 . S
C358 C359 1.355 . S
C358 C360 1.415 . S
C359 C358 1.355 . S
C359 C361 1.419 . S
C360 C358 1.415 . S
C360 C365 1.425 . S
C360 C367 1.409 . S
C361 H353 0.930 . S
C361 C359 1.419 . S
C361 C362 1.362 . S
C362 H354 0.930 . S
C362 C361 1.362 . S
C362 C365 1.409 . S
C363 H355 0.930 . S
C363 C364 1.355 . S
C363 C365 1.415 . S
C364 C363 1.355 . S
C364 C366 1.419 . S
C365 C360 1.425 . S
C365 C362 1.409 . S
C365 C363 1.415 . S
C366 H356 0.930 . S
C366 C364 1.419 . S
C366 C367 1.362 . S
C367 H357 0.930 . S
C367 C360 1.409 . S
C367 C366 1.362 . S
H368 C374 0.930 . S
H369 C377 0.930 . S
H370 C378 0.930 . S
H371 C379 0.930 . S
H372 C382 0.930 . S
H373 C383 0.930 . S
C374 H368 0.930 . S
C374 C375 1.355 . S
C374 C376 1.415 . S
C375 C374 1.355 . S
C375 C377 1.419 . S
C376 C374 1.415 . S
C376 C381 1.425 . S
C376 C383 1.409 . S
C377 H369 0.930 . S
C377 C375 1.419 . S
C377 C378 1.362 . S
C378 H370 0.930 . S
C378 C377 1.362 . S
C378 C381 1.409 . S
C379 H371 0.930 . S
C379 C380 1.355 . S
C379 C381 1.415 . S
C380 C379 1.355 . S
C380 C382 1.419 . S
C381 C376 1.425 . S
C381 C378 1.409 . S
C381 C379 1.415 . S
C382 H372 0.930 . S
C382 C380 1.419 . S
C382 C383 1.362 . S
C383 H373 0.930 . S
C383 C376 1.409 . S
C383 C382 1.362 . S
H384 C390 0.930 . S
H385 C393 0.930 . S
H386 C394 0.930 . S
H387 C395 0.930 . S
H388 C398 0.930 . S
H389 C399 0.930 . S
C390 H384 0.930 . S
C390 C391 1.355 . S
C390 C392 1.415 . S
C391 C390 1.355 . S
C391 C393 1.419 . S
C392 C390 1.415 . S
C392 C397 1.425 . S
C392 C399 1.409 . S
C393 H385 0.930 . S
C393 C391 1.419 . S
C393 C394 1.362 . S
C394 H386 0.930 . S
C394 C393 1.362 . S
C394 C397 1.409 . S
C395 H387 0.930 . S
C395 C396 1.355 . S
C395 C397 1.415 . S
C396 C395 1.355 . S
C396 C398 1.419 . S
C397 C392 1.425 . S
C397 C394 1.409 . S
C397 C395 1.415 . S
C398 H388 0.930 . S
C398 C396 1.419 . S
C398 C399 1.362 . S
C399 H389 0.930 . S
C399 C392 1.409 . S
C399 C398 1.362 . S
H400 C406 0.930 . S
H401 C409 0.930 . S
H402 C410 0.930 . S
H403 C411 0.930 . S
H404 C414 0.930 . S
H405 C415 0.930 . S
C406 H400 0.930 . S
C406 C407 1.355 . S
C406 C408 1.415 . S
C407 C406 1.355 . S
C407 C409 1.419 . S
C408 C406 1.415 . S
C408 C413 1.425 . S
C408 C415 1.409 . S
C409 H401 0.930 . S
C409 C407 1.419 . S
C409 C410 1.362 . S
C410 H402 0.930 . S
C410 C409 1.362 . S
C410 C413 1.409 . S
C411 H403 0.930 . S
C411 C412 1.355 . S
C411 C413 1.415 . S
C412 C411 1.355 . S
C412 C414 1.419 . S
C413 C408 1.425 . S
C413 C410 1.409 . S
C413 C411 1.415 . S
C414 H404 0.930 . S
C414 C412 1.419 . S
C414 C415 1.362 . S
C415 H405 0.930 . S
C415 C408 1.409 . S
C415 C414 1.362 . S
H416 C422 0.930 . S
H417 C425 0.930 . S
H418 C426 0.930 . S
H419 C427 0.930 . S
H420 C430 0.930 . S
H421 C431 0.930 . S
C422 H416 0.930 . S
C422 C423 1.355 . S
C422 C424 1.415 . S
C423 C422 1.355 . S
C423 C425 1.419 . S
C424 C422 1.415 . S
C424 C429 1.425 . S
C424 C431 1.409 . S
C425 H417 0.930 . S
C425 C423 1.419 . S
C425 C426 1.362 . S
C426 H418 0.930 . S
C426 C425 1.362 . S
C426 C429 1.409 . S
C427 H419 0.930 . S
C427 C428 1.355 . S
C427 C429 1.415 . S
C428 C427 1.355 . S
C428 C430 1.419 . S
C429 C424 1.425 . S
C429 C426 1.409 . S
C429 C427 1.415 . S
C430 H420 0.930 . S
C430 C428 1.419 . S
C430 C431 1.362 . S
C431 H421 0.930 . S
C431 C424 1.409 . S
C431 C430 1.362 . S
H432 C438 0.930 . S
H433 C441 0.930 . S
H434 C442 0.930 . S
H435 C443 0.930 . S
H436 C446 0.930 . S
H437 C447 0.930 . S
C438 H432 0.930 . S
C438 C439 1.355 1_556 S
C438 C440 1.415 . S
C439 C438 1.355 1_554 S
C439 C441 1.419 . S
C440 C438 1.415 . S
C440 C445 1.425 1_556 S
C440 C447 1.409 . S
C441 H433 0.930 . S
C441 C439 1.419 . S
C441 C442 1.362 . S
C442 H434 0.930 . S
C442 C441 1.362 . S
C442 C445 1.409 . S
C443 H435 0.930 . S
C443 C444 1.353 1_554 S
C443 C445 1.415 . S
C444 C443 1.353 1_556 S
C444 C446 1.421 . S
C445 C440 1.425 1_554 S
C445 C442 1.409 . S
C445 C443 1.415 . S
C446 H436 0.930 . S
C446 C444 1.421 . S
C446 C447 1.362 . S
C447 H437 0.930 . S
C447 C440 1.409 . S
C447 C446 1.362 . S
H448 C454 0.930 . S
H449 C457 0.930 . S
H450 C458 0.930 . S
H451 C459 0.930 . S
H452 C462 0.930 . S
H453 C463 0.930 . S
C454 H448 0.930 . S
C454 C455 1.355 . S
C454 C456 1.415 . S
C455 C454 1.355 . S
C455 C457 1.419 . S
C456 C454 1.415 . S
C456 C461 1.425 . S
C456 C463 1.409 . S
C457 H449 0.930 . S
C457 C455 1.419 . S
C457 C458 1.362 . S
C458 H450 0.930 . S
C458 C457 1.362 . S
C458 C461 1.409 . S
C459 H451 0.930 . S
C459 C460 1.355 . S
C459 C461 1.415 . S
C460 C459 1.355 . S
C460 C462 1.419 . S
C461 C456 1.425 . S
C461 C458 1.409 . S
C461 C459 1.415 . S
C462 H452 0.930 . S
C462 C460 1.419 . S
C462 C463 1.362 . S
C463 H453 0.930 . S
C463 C456 1.409 . S
C463 C462 1.362 . S
H464 C470 0.930 . S
H465 C473 0.930 . S
H466 C474 0.930 . S
H467 C475 0.930 1_556 S
H468 C478 0.930 . S
H469 C479 0.930 . S
C470 H464 0.930 . S
C470 C471 1.355 . S
C470 C472 1.415 . S
C471 C470 1.355 . S
C471 C473 1.419 1_554 S
C472 C470 1.415 . S
C472 C477 1.425 . S
C472 C479 1.409 . S
C473 H465 0.930 . S
C473 C471 1.419 1_556 S
C473 C474 1.362 . S
C474 H466 0.930 . S
C474 C473 1.362 . S
C474 C477 1.409 1_556 S
C475 H467 0.930 1_554 S
C475 C476 1.355 . S
C475 C477 1.415 . S
C476 C475 1.355 . S
C476 C478 1.419 . S
C477 C472 1.425 . S
C477 C474 1.409 1_554 S
C477 C475 1.415 . S
C478 H468 0.930 . S
C478 C476 1.419 . S
C478 C479 1.362 . S
C479 H469 0.930 . S
C479 C472 1.409 . S
C479 C478 1.362 . S
H480 C486 0.930 . S
H481 C489 0.930 . S
H482 C490 0.930 . S
H483 C491 0.930 . S
H484 C494 0.930 . S
H485 C495 0.930 . S
C486 H480 0.930 . S
C486 C487 1.355 . S
C486 C488 1.415 . S
C487 C486 1.355 . S
C487 C489 1.419 . S
C488 C486 1.415 . S
C488 C493 1.425 . S
C488 C495 1.409 . S
C489 H481 0.930 . S
C489 C487 1.419 . S
C489 C490 1.362 . S
C490 H482 0.930 . S
C490 C489 1.362 . S
C490 C493 1.409 . S
C491 H483 0.930 . S
C491 C492 1.355 . S
C491 C493 1.415 . S
C492 C491 1.355 . S
C492 C494 1.419 . S
C493 C488 1.425 . S
C493 C490 1.409 . S
C493 C491 1.415 . S
C494 H484 0.930 . S
C494 C492 1.419 . S
C494 C495 1.362 . S
C495 H485 0.930 . S
C495 C488 1.409 . S
C495 C494 1.362 . S
H496 C502 0.930 . S
H497 C505 0.930 . S
H498 C506 0.930 . S
H499 C507 0.930 . S
H500 C510 0.930 . S
H501 C511 0.930 . S
C502 H496 0.930 . S
C502 C503 1.355 . S
C502 C504 1.415 . S
C503 C502 1.355 . S
C503 C505 1.419 . S
C504 C502 1.415 . S
C504 C509 1.425 . S
C504 C511 1.409 . S
C505 H497 0.930 . S
C505 C503 1.419 . S
C505 C506 1.362 . S
C506 H498 0.930 . S
C506 C505 1.362 . S
C506 C509 1.409 . S
C507 H499 0.930 . S
C507 C508 1.355 . S
C507 C509 1.415 . S
C508 C507 1.355 . S
C508 C510 1.419 . S
C509 C504 1.425 . S
C509 C506 1.409 . S
C509 C507 1.415 . S
C510 H500 0.930 . S
C510 C508 1.419 . S
C510 C511 1.362 . S
C511 H501 0.930 . S
C511 C504 1.409 . S
C511 C510 1.362 . S
H512 C518 0.930 1_556 S
H513 C521 0.930 . S
H514 C522 0.930 . S
H515 C523 0.930 . S
H516 C526 0.930 . S
H517 C527 0.930 . S
C518 H512 0.930 1_554 S
C518 C519 1.355 . S
C518 C520 1.415 . S
C519 C518 1.355 . S
C519 C521 1.419 . S
C520 C518 1.415 . S
C520 C525 1.425 . S
C520 C527 1.409 1_554 S
C521 H513 0.930 . S
C521 C519 1.419 . S
C521 C522 1.362 . S
C522 H514 0.930 . S
C522 C521 1.362 . S
C522 C525 1.409 . S
C523 H515 0.930 . S
C523 C524 1.355 . S
C523 C525 1.415 . S
C524 C523 1.355 . S
C524 C526 1.419 1_554 S
C525 C520 1.425 . S
C525 C522 1.409 . S
C525 C523 1.415 . S
C526 H516 0.930 . S
C526 C524 1.419 1_556 S
C526 C527 1.362 . S
C527 H517 0.930 . S
C527 C520 1.409 1_556 S
C527 C526 1.362 . S
H528 C534 0.930 . S
H529 C537 0.930 . S
H530 C538 0.930 . S
H531 C539 0.930 . S
H532 C542 0.930 . S
H533 C543 0.930 . S
C534 H528 0.930 . S
C534 C535 1.355 . S
C534 C536 1.415 . S
C535 C534 1.355 . S
C535 C537 1.419 . S
C536 C534 1.415 . S
C536 C541 1.425 . S
C536 C543 1.409 . S
C537 H529 0.930 . S
C537 C535 1.419 . S
C537 C538 1.362 . S
C538 H530 0.930 . S
C538 C537 1.362 . S
C538 C541 1.409 . S
C539 H531 0.930 . S
C539 C540 1.355 . S
C539 C541 1.415 . S
C540 C539 1.355 . S
C540 C542 1.419 . S
C541 C536 1.425 . S
C541 C538 1.409 . S
C541 C539 1.415 . S
C542 H532 0.930 . S
C542 C540 1.419 . S
C542 C543 1.362 . S
C543 H533 0.930 . S
C543 C536 1.409 . S
C543 C542 1.362 . S
H544 C550 0.930 . S
H545 C553 0.930 . S
H546 C554 0.930 . S
H547 C555 0.930 . S
H548 C558 0.930 . S
H549 C559 0.930 . S
C550 H544 0.930 . S
C550 C551 1.355 1_556 S
C550 C552 1.415 . S
C551 C550 1.355 1_554 S
C551 C553 1.419 . S
C552 C550 1.415 . S
C552 C557 1.425 1_556 S
C552 C559 1.409 . S
C553 H545 0.930 . S
C553 C551 1.419 . S
C553 C554 1.362 . S
C554 H546 0.930 . S
C554 C553 1.362 . S
C554 C557 1.409 . S
C555 H547 0.930 . S
C555 C556 1.355 1_554 S
C555 C557 1.415 . S
C556 C555 1.355 1_556 S
C556 C558 1.419 . S
C557 C552 1.425 1_554 S
C557 C554 1.409 . S
C557 C555 1.415 . S
C558 H548 0.930 . S
C558 C556 1.419 . S
C558 C559 1.362 . S
C559 H549 0.930 . S
C559 C552 1.409 . S
C559 C558 1.362 . S
C183 C5 1.468 . S
C188 C126 1.342 . S
C199 C31 1.515 . S
C204 C95 1.513 . S
C220 C106 1.410 . S
C215 C53 1.477 . S
C231 C71 1.426 . S
C236 C115 1.261 . S
C252 C150 1.449 . S
C247 C75 1.508 . S
C268 C159 1.307 . S
C263 C9 1.427 . S
C284 C170 1.241 . S
C279 C27 1.421 . S
C300 C139 1.461 . S
C295 C49 1.491 . S
C311 C51 1.463 . S
C316 C104 1.195 . S
C327 C72 1.537 . S
C332 C117 1.537 . S
C343 C6 1.451 . S
C348 C128 1.468 . S
C364 C93 1.111 . S
C359 C29 1.413 . S
C375 C28 1.505 . S
C380 C172 1.509 . S
C396 C137 1.180 . S
C391 C50 1.437 . S
C412 C148 1.134 . S
C407 C73 1.428 . S
C423 C7 1.495 . S
C428 C161 1.500 . S
C444 C96 1.474 1_556 S
C439 C4 1.519 . S
C460 C107 1.519 . S
C455 C30 1.493 . S
C471 C52 1.496 . S
C476 C118 1.517 . S
C487 C70 1.511 . S
C492 C129 1.519 . S
C508 C140 1.495 . S
C503 C74 1.509 . S
C519 C8 1.499 . S
C524 C151 1.506 . S
C535 C26 1.525 . S
C540 C162 1.524 . S
C551 C48 1.498 . S
C556 C173 1.518 1_556 S
