# Generated by pormake.
# Topology hwx, (6,3)-cn, num edge types: 1
# Building blocks:
#     Node 0, Type 0, BuildingBlock: OJICUG_clean_sbu_0, # of connection points: 6
#     Node 1, Type 0, BuildingBlock: OJICUG_clean_sbu_0, # of connection points: 6
#     Node 2, Type 0, BuildingBlock: OJICUG_clean_sbu_0, # of connection points: 6
#     Node 3, Type 0, BuildingBlock: OJICUG_clean_sbu_0, # of connection points: 6
#     Node 4, Type 1, BuildingBlock: OLANEW_clean_sbu_2, # of connection points: 3
#     Node 5, Type 1, BuildingBlock: OLANEW_clean_sbu_2, # of connection points: 3
#     Node 6, Type 1, BuildingBlock: OLANEW_clean_sbu_2, # of connection points: 3
#     Node 7, Type 1, BuildingBlock: OLANEW_clean_sbu_2, # of connection points: 3
#     Node 8, Type 1, BuildingBlock: OLANEW_clean_sbu_2, # of connection points: 3
#     Node 9, Type 1, BuildingBlock: OLANEW_clean_sbu_2, # of connection points: 3
#     Node 10, Type 1, BuildingBlock: OLANEW_clean_sbu_2, # of connection points: 3
#     Node 11, Type 1, BuildingBlock: OLANEW_clean_sbu_2, # of connection points: 3
#     Edge 12, Type (0, 1), BuildingBlock: XUDNAN_clean_linker_2, # of connection points: 2
#     Edge 13, Type (0, 1), BuildingBlock: XUDNAN_clean_linker_2, # of connection points: 2
#     Edge 14, Type (0, 1), BuildingBlock: XUDNAN_clean_linker_2, # of connection points: 2
#     Edge 15, Type (0, 1), BuildingBlock: XUDNAN_clean_linker_2, # of connection points: 2
#     Edge 16, Type (0, 1), BuildingBlock: XUDNAN_clean_linker_2, # of connection points: 2
#     Edge 17, Type (0, 1), BuildingBlock: XUDNAN_clean_linker_2, # of connection points: 2
#     Edge 18, Type (0, 1), BuildingBlock: XUDNAN_clean_linker_2, # of connection points: 2
#     Edge 19, Type (0, 1), BuildingBlock: XUDNAN_clean_linker_2, # of connection points: 2
#     Edge 20, Type (0, 1), BuildingBlock: XUDNAN_clean_linker_2, # of connection points: 2
#     Edge 21, Type (0, 1), BuildingBlock: XUDNAN_clean_linker_2, # of connection points: 2
#     Edge 22, Type (0, 1), BuildingBlock: XUDNAN_clean_linker_2, # of connection points: 2
#     Edge 23, Type (0, 1), BuildingBlock: XUDNAN_clean_linker_2, # of connection points: 2
#     Edge 24, Type (0, 1), BuildingBlock: XUDNAN_clean_linker_2, # of connection points: 2
#     Edge 25, Type (0, 1), BuildingBlock: XUDNAN_clean_linker_2, # of connection points: 2
#     Edge 26, Type (0, 1), BuildingBlock: XUDNAN_clean_linker_2, # of connection points: 2
#     Edge 27, Type (0, 1), BuildingBlock: XUDNAN_clean_linker_2, # of connection points: 2
#     Edge 28, Type (0, 1), BuildingBlock: XUDNAN_clean_linker_2, # of connection points: 2
#     Edge 29, Type (0, 1), BuildingBlock: XUDNAN_clean_linker_2, # of connection points: 2
#     Edge 30, Type (0, 1), BuildingBlock: XUDNAN_clean_linker_2, # of connection points: 2
#     Edge 31, Type (0, 1), BuildingBlock: XUDNAN_clean_linker_2, # of connection points: 2
#     Edge 32, Type (0, 1), BuildingBlock: XUDNAN_clean_linker_2, # of connection points: 2
#     Edge 33, Type (0, 1), BuildingBlock: XUDNAN_clean_linker_2, # of connection points: 2
#     Edge 34, Type (0, 1), BuildingBlock: XUDNAN_clean_linker_2, # of connection points: 2
#     Edge 35, Type (0, 1), BuildingBlock: XUDNAN_clean_linker_2, # of connection points: 2
# Relax obj value: 0.021
# Max RMSD: 0.063
# Mean RMSD: 0.061
data_MOF--net-hwx--node1-OJICUG_clean_sbu_0--node2-OLANEW_clean_sbu_2--edge1-XUDNAN_clean_linker_2
_symmetry_space_group_name_H-M    P1
_symmetry_Int_Tables_number       1
_symmetry_cell_setting            triclinic
loop_
_symmetry_equiv_pos_as_xyz
'x, y, z'
_cell_length_a     56.188443
_cell_length_b     56.157769
_cell_length_c     22.539285
_cell_angle_alpha  85.06619
_cell_angle_beta   95.044257
_cell_angle_gamma 90.175664
loop_
_atom_site_label
_atom_site_type_symbol
_atom_site_fract_x
_atom_site_fract_y
_atom_site_fract_z
_atom_type_partial_charge
Sc0 Sc 0.21738 0.22514 0.08875 0.0
Sc1 Sc 0.18089 0.18389 0.01533 0.0
Sc2 Sc 0.22268 0.2185 0.93637 0.0
O3 O 0.20693 0.20923 0.01327 0.0
C4 C 0.21483 0.26895 -0.0116 0.0
C5 C 0.16111 0.22057 0.09942 0.0
C6 C 0.1679 0.21183 0.88795 0.0
C7 C 0.21359 0.1703 0.13683 0.0
C8 C 0.26735 0.22051 0.03296 0.0
C9 C 0.21801 0.16195 0.93408 0.0
O10 O 0.21379 0.2602 0.04208 0.0
O11 O 0.15802 0.20412 0.06431 0.0
O12 O 0.18913 0.21901 0.88237 0.0
O13 O 0.22207 0.19121 0.14001 0.0
O14 O 0.25839 0.21881 0.97982 0.0
O15 O 0.20049 0.16063 0.96622 0.0
O16 O 0.25476 0.22293 0.07611 0.0
O17 O 0.1978 0.165 0.09607 0.0
O18 O 0.2285 0.18154 0.92021 0.0
O19 O 0.1815 0.22939 0.11289 0.0
O20 O 0.21831 0.25644 0.94533 0.0
O21 O 0.16165 0.19982 0.93443 0.0
Sc22 Sc 0.26631 0.73254 0.41609 0.0
Sc23 Sc 0.31196 0.69561 0.49024 0.0
Sc24 Sc 0.27444 0.7274 0.57399 0.0
O25 O 0.28422 0.71855 0.49354 0.0
C26 C 0.27049 0.77744 0.49506 0.0
C27 C 0.32048 0.73476 0.38347 0.0
C28 C 0.33166 0.72597 0.59705 0.0
C29 C 0.27462 0.67861 0.38759 0.0
C30 C 0.22355 0.72311 0.49933 0.0
C31 C 0.28466 0.67119 0.59821 0.0
O32 O 0.26762 0.76805 0.44558 0.0
O33 O 0.32796 0.71804 0.42213 0.0
O34 O 0.31111 0.73234 0.60981 0.0
O35 O 0.26338 0.6984 0.37799 0.0
O36 O 0.23669 0.72375 0.54813 0.0
O37 O 0.29894 0.67076 0.55758 0.0
O38 O 0.23181 0.72558 0.44844 0.0
O39 O 0.29251 0.67538 0.4259 0.0
O40 O 0.27445 0.69029 0.60978 0.0
O41 O 0.29881 0.74155 0.37588 0.0
O42 O 0.27313 0.76528 0.54558 0.0
O43 O 0.33452 0.71295 0.55489 0.0
Sc44 Sc 0.76132 0.77432 0.91329 0.0
Sc45 Sc 0.81006 0.80569 0.97782 0.0
Sc46 Sc 0.77659 0.766 0.068 0.0
O47 O 0.78271 0.78203 -0.01357 0.0
C48 C 0.72306 0.7762 0.00758 0.0
C49 C 0.77167 0.82899 0.87612 0.0
C50 C 0.78595 0.82107 0.09179 0.0
C51 C 0.8144 0.77287 0.87083 0.0
C52 C 0.76728 0.72282 -0.01239 0.0
C53 C 0.83317 0.76982 0.08572 0.0
O54 O 0.72888 0.77966 0.95433 0.0
O55 O 0.79103 0.82923 0.9095 0.0
O56 O 0.77815 0.80011 0.10532 0.0
O57 O 0.79217 0.76807 0.86662 0.0
O58 O 0.77468 0.73067 0.03718 0.0
O59 O 0.83412 0.78685 0.04524 0.0
O60 O 0.76112 0.73653 0.9409 0.0
O61 O 0.82426 0.78598 0.90955 0.0
O62 O 0.81386 0.75922 0.09678 0.0
O63 O 0.75815 0.81087 0.875 0.0
O64 O 0.73817 0.77038 0.0519 0.0
O65 O 0.79726 0.82644 0.0457 0.0
Sc66 Sc 0.73542 0.25578 0.57912 0.0
Sc67 Sc 0.69523 0.30217 0.5241 0.0
Sc68 Sc 0.72322 0.26853 0.42377 0.0
O69 O 0.71794 0.27552 0.50889 0.0
C70 C 0.77601 0.26216 0.48878 0.0
C71 C 0.73835 0.30828 0.6237 0.0
C72 C 0.72171 0.32572 0.41361 0.0
C73 C 0.68348 0.26104 0.6239 0.0
C74 C 0.72106 0.21592 0.48945 0.0
C75 C 0.6671 0.27984 0.41304 0.0
O76 O 0.76918 0.25873 0.54108 0.0
O77 O 0.72023 0.31633 0.59035 0.0
O78 O 0.72801 0.30589 0.39615 0.0
O79 O 0.70351 0.25053 0.62468 0.0
O80 O 0.71879 0.23037 0.44255 0.0
O81 O 0.66765 0.29122 0.45949 0.0
O82 O 0.72721 0.2226 0.54102 0.0
O83 O 0.6781 0.2801 0.59084 0.0
O84 O 0.68566 0.27096 0.39484 0.0
O85 O 0.74563 0.28683 0.62472 0.0
O86 O 0.76152 0.26549 0.44219 0.0
O87 O 0.70975 0.32709 0.45858 0.0
O88 O 0.246 0.51631 0.88276 0.0
Cd89 Cd 0.24102 0.49029 0.974 0.0
O90 O 0.22802 0.54687 0.91511 0.0
Cd91 Cd 0.22242 0.53112 0.00441 0.0
O92 O 0.22679 0.54384 0.09343 0.0
C93 C 0.22186 0.56583 0.0955 0.0
O94 O 0.21329 0.57821 0.04617 0.0
C95 C 0.23862 0.53786 0.87475 0.0
C96 C 0.22682 0.44322 0.95819 0.0
O97 O 0.21147 0.45969 0.96246 0.0
O98 O 0.24892 0.44909 0.9597 0.0
O99 O 0.97767 0.69275 0.34771 0.0
Cd100 Cd 0.00747 0.66698 0.40823 0.0
O101 O 0.97087 0.71253 0.42439 0.0
Cd102 Cd 0.95033 0.73631 0.47315 0.0
O103 O 0.92758 0.74532 0.54235 0.0
C104 C 0.91385 0.72852 0.55919 0.0
O105 O 0.91427 0.7084 0.5335 0.0
C106 C 0.96612 0.70876 0.36979 0.0
C107 C 0.05221 0.68666 0.43886 0.0
O108 O 0.04786 0.67715 0.38935 0.0
O109 O 0.03518 0.68757 0.47292 0.0
O110 O 0.77166 0.47554 0.1218 0.0
Cd111 Cd 0.78754 0.49863 0.03685 0.0
O112 O 0.77167 0.44312 0.07337 0.0
Cd113 Cd 0.78051 0.45786 -0.01457 0.0
O114 O 0.78028 0.44143 0.9011 0.0
C115 C 0.79626 0.42572 0.89816 0.0
O116 O 0.81304 0.42236 0.94253 0.0
C117 C 0.76842 0.45316 0.12047 0.0
C118 C 0.77532 0.54711 0.02125 0.0
O119 O 0.79336 0.53974 0.05678 0.0
O120 O 0.76277 0.53151 -0.00563 0.0
O121 O 0.02412 0.27689 0.60437 0.0
Cd122 Cd -0.00413 0.30263 0.53937 0.0
O123 O 0.03977 0.26472 0.52605 0.0
Cd124 Cd 0.01646 0.28144 0.4519 0.0
O125 O 0.02659 0.27815 0.36171 0.0
C126 C 0.04864 0.28213 0.35676 0.0
O127 O 0.06167 0.28979 0.40255 0.0
C128 C 0.03977 0.26483 0.58239 0.0
C129 C 0.94962 0.28529 0.51803 0.0
O130 O 0.96564 0.28189 0.48245 0.0
O131 O 0.95569 0.29626 0.56458 0.0
O132 O 0.68533 0.97156 0.62897 0.0
Cd133 Cd 0.6582 0.00161 0.57421 0.0
O134 O 0.70544 0.9686 0.55085 0.0
Cd135 Cd 0.73095 0.95244 0.49781 0.0
O136 O 0.74836 0.93749 0.42595 0.0
C137 C 0.74254 0.91666 0.41211 0.0
O138 O 0.72694 0.90459 0.44274 0.0
C139 C 0.70204 0.96193 0.6048 0.0
C140 C 0.67787 0.04609 0.54122 0.0
O141 O 0.67023 0.04153 0.59292 0.0
O142 O 0.67685 0.02939 0.50571 0.0
O143 O 0.51385 0.24732 0.11452 0.0
Cd144 Cd 0.49049 0.23258 0.02848 0.0
O145 O 0.54445 0.25379 0.06085 0.0
Cd146 Cd 0.52852 0.24517 0.97378 0.0
O147 O 0.54447 0.24118 0.89058 0.0
C148 C 0.55778 0.22299 0.88973 0.0
O149 O 0.55879 0.20672 0.93543 0.0
C150 C 0.53543 0.25367 0.11062 0.0
C151 C 0.44228 0.22668 0.04588 0.0
O152 O 0.45786 0.21109 0.06847 0.0
O153 O 0.44945 0.24518 0.0152 0.0
O154 O 0.24431 0.02587 0.45194 0.0
Cd155 Cd 0.24924 -0.00192 0.54279 0.0
O156 O 0.27937 0.04139 0.4772 0.0
Cd157 Cd 0.28137 0.02772 0.57086 0.0
O158 O 0.27703 0.04431 0.65336 0.0
C159 C 0.26462 0.03543 0.69414 0.0
O160 O 0.25493 0.01429 0.6892 0.0
C161 C 0.26131 0.03995 0.43949 0.0
C162 C 0.2585 0.95074 0.52136 0.0
O163 O 0.23761 0.95711 0.53274 0.0
O164 O 0.27486 0.96666 0.51962 0.0
O165 O 0.47703 0.78655 0.88776 0.0
Cd166 Cd 0.49994 0.80613 0.96767 0.0
O167 O 0.44351 0.79875 0.91908 0.0
Cd168 Cd 0.45809 0.8112 0.00358 0.0
O169 O 0.44356 0.81112 0.08998 0.0
C170 C 0.44157 0.79112 0.12003 0.0
O171 O 0.45087 0.772 0.10121 0.0
C172 C 0.45437 0.78844 0.88122 0.0
C173 C 0.54838 0.7941 -0.01142 0.0
O174 O 0.53273 0.78324 0.01891 0.0
O175 O 0.54109 0.81023 0.94734 0.0
H176 H 0.16116 0.25061 0.18908 0.0
H177 H 0.11359 0.21123 0.07084 0.0
H178 H 0.07893 0.22586 0.1177 0.0
H179 H 0.13065 0.23806 0.3174 0.0
H180 H 0.13602 0.2669 0.34529 0.0
H181 H 0.15669 0.25497 0.29883 0.0
H182 H 0.15161 0.29312 0.22533 0.0
H183 H 0.1308 0.30514 0.27154 0.0
H184 H 0.12214 0.30223 0.19359 0.0
H185 H 0.04959 0.24307 0.18186 0.0
H186 H 0.02846 0.25973 0.26084 0.0
H187 H 0.0956 0.28747 0.33629 0.0
C188 C 0.14347 0.24525 0.17238 0.0
C189 C 0.14015 0.22979 0.12611 0.0
C190 C 0.11663 0.22303 0.10627 0.0
C191 C 0.09681 0.23135 0.1324 0.0
C192 C 0.10078 0.24644 0.1782 0.0
C193 C 0.12355 0.25328 0.19804 0.0
C194 C 0.1232 0.26842 0.2503 0.0
C195 C 0.13747 0.25636 0.30624 0.0
C196 C 0.13248 0.29373 0.2342 0.0
C197 C 0.0967 0.26867 0.25759 0.0
C198 C 0.08399 0.25615 0.21522 0.0
C199 C 0.05934 0.25309 0.21492 0.0
C200 C 0.04748 0.26266 0.25988 0.0
C201 C 0.06035 0.27495 0.3047 0.0
C202 C 0.08519 0.27833 0.30251 0.0
H203 H 0.25689 0.66356 0.69309 0.0
H204 H 0.29985 0.62642 0.57863 0.0
H205 H 0.29028 0.58798 0.63198 0.0
H206 H 0.27402 0.62717 0.82721 0.0
H207 H 0.24494 0.62783 0.85502 0.0
H208 H 0.25436 0.65236 0.80596 0.0
H209 H 0.21657 0.64723 0.73358 0.0
H210 H 0.20714 0.62252 0.78226 0.0
H211 H 0.21053 0.61863 0.7049 0.0
H212 H 0.27713 0.55347 0.69986 0.0
H213 H 0.26295 0.52593 0.78072 0.0
H214 H 0.22843 0.58552 0.84997 0.0
C215 C 0.26424 0.64737 0.67904 0.0
C216 C 0.27916 0.64815 0.63156 0.0
C217 C 0.28845 0.62644 0.61492 0.0
C218 C 0.28302 0.60443 0.64476 0.0
C219 C 0.26823 0.60432 0.69116 0.0
C220 C 0.25904 0.62521 0.70839 0.0
C221 C 0.24431 0.62021 0.76114 0.0
C222 C 0.25506 0.63262 0.81554 0.0
C223 C 0.21808 0.62758 0.74444 0.0
C224 C 0.24694 0.59329 0.77131 0.0
C225 C 0.26063 0.58443 0.7302 0.0
C226 C 0.26624 0.56018 0.73211 0.0
C227 C 0.25806 0.54465 0.77812 0.0
C228 C 0.2445 0.55348 0.82166 0.0
C229 C 0.23856 0.57809 0.8172 0.0
H230 H 0.85162 0.72595 0.13222 0.0
H231 H 0.86303 0.80233 0.13334 0.0
H232 H 0.89732 0.79507 0.20903 0.0
H233 H 0.86785 0.70955 0.28768 0.0
H234 H 0.88357 0.68267 0.2758 0.0
H235 H 0.85938 0.69369 0.22289 0.0
H236 H 0.88729 0.6946 0.13716 0.0
H237 H 0.9115 0.68338 0.18969 0.0
H238 H 0.915 0.71082 0.14365 0.0
H239 H 0.92845 0.77968 0.28993 0.0
H240 H 0.95879 0.7569 0.35857 0.0
H241 H 0.93043 0.69063 0.2969 0.0
C242 C 0.86147 0.74106 0.14832 0.0
C243 C 0.85473 0.7647 0.12717 0.0
C244 C 0.86807 0.78409 0.14874 0.0
C245 C 0.88744 0.78016 0.19203 0.0
C246 C 0.89358 0.75669 0.21241 0.0
C247 C 0.88139 0.73743 0.19033 0.0
C248 C 0.89259 0.71402 0.21752 0.0
C249 C 0.87478 0.69911 0.25308 0.0
C250 C 0.90217 0.69988 0.16912 0.0
C251 C 0.91278 0.72316 0.25862 0.0
C252 C 0.91271 0.74783 0.2559 0.0
C253 C 0.92891 0.76037 0.29188 0.0
C254 C 0.94596 0.74734 0.33088 0.0
C255 C 0.94697 0.72216 0.33238 0.0
C256 C 0.93013 0.70994 0.29592 0.0
H257 H 0.72416 0.35192 0.6557 0.0
H258 H 0.7835 0.30159 0.67875 0.0
H259 H 0.80627 0.3284 0.74348 0.0
H260 H 0.76005 0.40662 0.65565 0.0
H261 H 0.73969 0.42177 0.69736 0.0
H262 H 0.72866 0.39959 0.64871 0.0
H263 H 0.70992 0.37617 0.73711 0.0
H264 H 0.72076 0.39831 0.78584 0.0
H265 H 0.72853 0.3673 0.80465 0.0
H266 H 0.82179 0.35933 0.80993 0.0
H267 H 0.82807 0.3912 0.87832 0.0
H268 H 0.75867 0.42144 0.81304 0.0
C269 C 0.74205 0.34665 0.67381 0.0
C270 C 0.75202 0.32463 0.66206 0.0
C271 C 0.77539 0.31829 0.68729 0.0
C272 C 0.78856 0.33348 0.7238 0.0
C273 C 0.77816 0.35497 0.73472 0.0
C274 C 0.75541 0.36153 0.71071 0.0
C275 C 0.74783 0.38488 0.73261 0.0
C276 C 0.74383 0.40437 0.68047 0.0
C277 C 0.72544 0.38145 0.76711 0.0
C278 C 0.76968 0.39012 0.77371 0.0
C279 C 0.78708 0.3728 0.7736 0.0
C280 C 0.80839 0.37312 0.81005 0.0
C281 C 0.81179 0.39131 0.84876 0.0
C282 C 0.79391 0.40886 0.85099 0.0
C283 C 0.77281 0.40848 0.81192 0.0
H284 H 0.66003 0.27283 0.29461 0.0
H285 H 0.62197 0.28126 0.45093 0.0
H286 H 0.5835 0.27649 0.39051 0.0
H287 H 0.61773 0.30594 0.18915 0.0
H288 H 0.62163 0.28687 0.13036 0.0
H289 H 0.64588 0.29096 0.18627 0.0
H290 H 0.64881 0.24507 0.21178 0.0
H291 H 0.62463 0.24085 0.15588 0.0
H292 H 0.62263 0.22872 0.23196 0.0
H293 H 0.54913 0.26886 0.31227 0.0
H294 H 0.52227 0.26076 0.22302 0.0
H295 H 0.5837 0.25945 0.11918 0.0
C296 C 0.64363 0.2736 0.3163 0.0
C297 C 0.64398 0.27724 0.37752 0.0
C298 C 0.62209 0.2785 0.40398 0.0
C299 C 0.60018 0.27579 0.37007 0.0
C300 C 0.60051 0.27218 0.30969 0.0
C301 C 0.62171 0.27132 0.28307 0.0
C302 C 0.6174 0.26757 0.21745 0.0
C303 C 0.62618 0.28912 0.17853 0.0
C304 C 0.62905 0.24416 0.20349 0.0
C305 C 0.59047 0.26599 0.21135 0.0
C306 C 0.58094 0.26865 0.26485 0.0
C307 C 0.5564 0.26697 0.27003 0.0
C308 C 0.54129 0.26236 0.21918 0.0
C309 C 0.55083 0.25963 0.164 0.0
C310 C 0.57573 0.26169 0.16041 0.0
H311 H 0.24728 0.15694 0.84378 0.0
H312 H 0.20632 0.11619 0.9719 0.0
H313 H 0.21677 0.07899 0.92983 0.0
H314 H 0.22977 0.12413 0.72212 0.0
H315 H 0.25827 0.12545 0.69105 0.0
H316 H 0.24969 0.14874 0.73502 0.0
H317 H 0.28835 0.14147 0.80586 0.0
H318 H 0.29707 0.11813 0.76197 0.0
H319 H 0.29492 0.1119 0.84111 0.0
H320 H 0.22862 0.04656 0.86889 0.0
H321 H 0.2412 0.02126 0.79277 0.0
H322 H 0.27473 0.08278 0.70477 0.0
C323 C 0.24087 0.14016 0.86372 0.0
C324 C 0.22598 0.13957 0.91123 0.0
C325 C 0.21769 0.11721 0.93539 0.0
C326 C 0.22361 0.09591 0.91199 0.0
C327 C 0.23794 0.09716 0.86453 0.0
C328 C 0.24656 0.11867 0.84076 0.0
C329 C 0.2604 0.11516 0.78742 0.0
C330 C 0.24883 0.1292 0.73056 0.0
C331 C 0.28675 0.12207 0.79986 0.0
C332 C 0.25771 0.08843 0.78418 0.0
C333 C 0.24487 0.07836 0.82938 0.0
C334 C 0.23897 0.05417 0.8337 0.0
C335 C 0.24615 0.03995 0.7902 0.0
C336 C 0.25906 0.04996 0.74299 0.0
C337 C 0.26516 0.07447 0.74071 0.0
H338 H 0.36196 0.71768 0.34639 0.0
H339 H 0.31819 0.78154 0.3402 0.0
H340 H 0.34726 0.80408 0.2817 0.0
H341 H 0.42042 0.74706 0.35421 0.0
H342 H 0.43277 0.72745 0.30546 0.0
H343 H 0.40983 0.71678 0.35206 0.0
H344 H 0.38373 0.70483 0.25873 0.0
H345 H 0.40665 0.71525 0.21204 0.0
H346 H 0.37668 0.72692 0.19683 0.0
H347 H 0.38011 0.81937 0.22146 0.0
H348 H 0.41201 0.8253 0.1533 0.0
H349 H 0.43358 0.75108 0.19421 0.0
C350 C 0.35868 0.73647 0.33324 0.0
C351 C 0.33792 0.74792 0.34795 0.0
C352 C 0.33396 0.77241 0.32911 0.0
C353 C 0.35046 0.78541 0.29637 0.0
C354 C 0.37073 0.77362 0.28242 0.0
C355 C 0.37478 0.74964 0.29957 0.0
C356 C 0.39689 0.74078 0.27422 0.0
C357 C 0.41611 0.73253 0.32449 0.0
C358 C 0.3906 0.72077 0.233 0.0
C359 C 0.40434 0.76342 0.23925 0.0
C360 C 0.3893 0.78226 0.24567 0.0
C361 C 0.3921 0.80479 0.21624 0.0
C362 C 0.41032 0.808 0.17772 0.0
C363 C 0.42528 0.78865 0.16829 0.0
C364 C 0.42253 0.76625 0.20065 0.0
H365 H 0.72714 0.84771 0.83886 0.0
H366 H 0.8026 0.85791 0.81799 0.0
H367 H 0.79297 0.8922 0.74357 0.0
H368 H 0.70485 0.86366 0.68642 0.0
H369 H 0.67915 0.87959 0.7053 0.0
H370 H 0.69183 0.85532 0.75549 0.0
H371 H 0.69677 0.88326 0.84134 0.0
H372 H 0.68398 0.90759 0.79157 0.0
H373 H 0.71301 0.91082 0.83085 0.0
H374 H 0.77498 0.92422 0.6678 0.0
H375 H 0.75018 0.95493 0.60559 0.0
H376 H 0.68687 0.92614 0.682 0.0
C377 C 0.74159 0.85719 0.81851 0.0
C378 C 0.7656 0.85014 0.83383 0.0
C379 C 0.78409 0.86312 0.80698 0.0
C380 C 0.77879 0.88252 0.76444 0.0
C381 C 0.75494 0.88898 0.75003 0.0
C382 C 0.73665 0.877 0.77702 0.0
C383 C 0.71265 0.88838 0.75577 0.0
C384 C 0.69615 0.87068 0.72384 0.0
C385 C 0.70092 0.89809 0.80799 0.0
C386 C 0.72028 0.90847 0.71231 0.0
C387 C 0.74471 0.90828 0.70892 0.0
C388 C 0.75584 0.92466 0.67037 0.0
C389 C 0.74165 0.94191 0.63494 0.0
C390 C 0.71671 0.94284 0.63914 0.0
C391 C 0.70596 0.92589 0.67832 0.0
H392 H 0.85384 0.79129 0.81734 0.0
H393 H 0.80751 0.72938 0.82951 0.0
H394 H 0.82898 0.7111 0.75429 0.0
H395 H 0.85606 0.79392 0.65983 0.0
H396 H 0.88692 0.80278 0.66016 0.0
H397 H 0.86948 0.81049 0.71909 0.0
H398 H 0.90058 0.78964 0.79819 0.0
H399 H 0.91822 0.78201 0.73949 0.0
H400 H 0.90865 0.75892 0.79265 0.0
H401 H 0.8536 0.70008 0.67563 0.0
H402 H 0.88047 0.69673 0.59634 0.0
H403 H 0.91085 0.766 0.63057 0.0
C404 C 0.84858 0.77371 0.80483 0.0
C405 C 0.82907 0.76169 0.82936 0.0
C406 C 0.82235 0.73892 0.81112 0.0
C407 C 0.83447 0.72834 0.76855 0.0
C408 C 0.85324 0.74079 0.74422 0.0
C409 C 0.86036 0.76294 0.76148 0.0
C410 C 0.88036 0.77284 0.7255 0.0
C411 C 0.87274 0.79641 0.68898 0.0
C412 C 0.90331 0.77604 0.7664 0.0
C413 C 0.88311 0.75288 0.68515 0.0
C414 C 0.86736 0.73454 0.69727 0.0
C415 C 0.86613 0.71425 0.66581 0.0
C416 C 0.88147 0.71255 0.62073 0.0
C417 C 0.8978 0.73107 0.60709 0.0
C418 C 0.89857 0.75153 0.63987 0.0
H419 H 0.73937 0.3307 0.30365 0.0
H420 H 0.7187 0.3717 0.44583 0.0
H421 H 0.72901 0.40904 0.38762 0.0
H422 H 0.78928 0.36713 0.26354 0.0
H423 H 0.78336 0.36391 0.18473 0.0
H424 H 0.77495 0.34055 0.2386 0.0
H425 H 0.73126 0.34305 0.1906 0.0
H426 H 0.73954 0.36644 0.13666 0.0
H427 H 0.71572 0.37134 0.1829 0.0
H428 H 0.74162 0.4422 0.31235 0.0
H429 H 0.75441 0.46788 0.22594 0.0
H430 H 0.76575 0.40452 0.1342 0.0
C431 C 0.73714 0.34747 0.32292 0.0
C432 C 0.72828 0.34819 0.37948 0.0
C433 C 0.72543 0.37064 0.40255 0.0
C434 C 0.73128 0.39197 0.36988 0.0
C435 C 0.73986 0.39058 0.31412 0.0
C436 C 0.74271 0.36887 0.29086 0.0
C437 C 0.75168 0.37214 0.22942 0.0
C438 C 0.77628 0.36023 0.22909 0.0
C439 C 0.73346 0.36269 0.18212 0.0
C440 C 0.75344 0.39907 0.22162 0.0
C441 C 0.74668 0.40948 0.27091 0.0
C442 C 0.74694 0.43423 0.27351 0.0
C443 C 0.75424 0.44867 0.22429 0.0
C444 C 0.76102 0.43827 0.17318 0.0
C445 C 0.7606 0.41313 0.17235 0.0
H446 H 0.12127 0.22705 0.88605 0.0
H447 H 0.17517 0.20715 0.77272 0.0
H448 H 0.14663 0.21514 0.68368 0.0
H449 H 0.06888 0.20448 0.79875 0.0
H450 H 0.05021 0.22949 0.80967 0.0
H451 H 0.0739 0.21987 0.86568 0.0
H452 H 0.09167 0.26254 0.8592 0.0
H453 H 0.06802 0.2723 0.80338 0.0
H454 H 0.09876 0.27635 0.78774 0.0
H455 H 0.11339 0.2259 0.60761 0.0
H456 H 0.07842 0.24294 0.5459 0.0
H457 H 0.04601 0.25894 0.70621 0.0
C458 C 0.12682 0.22408 0.84245 0.0
C459 C 0.15027 0.2163 0.83593 0.0
C460 C 0.15725 0.21311 0.77835 0.0
C461 C 0.14114 0.21744 0.72768 0.0
C462 C 0.11822 0.22527 0.73532 0.0
C463 C 0.11107 0.22888 0.79099 0.0
C464 C 0.08604 0.23943 0.78567 0.0
C465 C 0.06874 0.22229 0.81679 0.0
C466 C 0.08614 0.26412 0.81046 0.0
C467 C 0.08046 0.24141 0.71829 0.0
C468 C 0.09916 0.23267 0.69051 0.0
C469 C 0.09858 0.23278 0.62872 0.0
C470 C 0.07855 0.24251 0.59406 0.0
C471 C 0.0594 0.25237 0.62107 0.0
C472 C 0.0603 0.2515 0.6842 0.0
H473 H 0.246 0.67918 0.28161 0.0
H474 H 0.28497 0.63146 0.41806 0.0
H475 H 0.27267 0.59703 0.36222 0.0
H476 H 0.19633 0.63847 0.24707 0.0
H477 H 0.19448 0.64752 0.1681 0.0
H478 H 0.20459 0.66838 0.22127 0.0
H479 H 0.2436 0.67512 0.16881 0.0
H480 H 0.2336 0.65437 0.11549 0.0
H481 H 0.262 0.64978 0.15874 0.0
H482 H 0.25808 0.56794 0.2896 0.0
H483 H 0.24376 0.54649 0.20227 0.0
H484 H 0.21478 0.61297 0.11216 0.0
C485 C 0.25168 0.66146 0.3001 0.0
C486 C 0.26645 0.65806 0.35423 0.0
C487 C 0.27377 0.63458 0.3765 0.0
C488 C 0.26674 0.61485 0.34534 0.0
C489 C 0.25241 0.61882 0.29187 0.0
C490 C 0.245 0.64152 0.26926 0.0
C491 C 0.23093 0.64097 0.2089 0.0
C492 C 0.20505 0.64933 0.21152 0.0
C493 C 0.24328 0.65594 0.16012 0.0
C494 C 0.23205 0.6145 0.20069 0.0
C495 C 0.24424 0.60201 0.24944 0.0
C496 C 0.24834 0.57748 0.2513 0.0
C497 C 0.24013 0.56545 0.20149 0.0
C498 C 0.22814 0.57802 0.15038 0.0
C499 C 0.22376 0.6028 0.15064 0.0
H500 H 0.3343 0.75311 0.69382 0.0
H501 H 0.37841 0.71681 0.58033 0.0
H502 H 0.41459 0.72956 0.63874 0.0
H503 H 0.37319 0.80376 0.71289 0.0
H504 H 0.36747 0.80564 0.7898 0.0
H505 H 0.34494 0.79399 0.73832 0.0
H506 H 0.34316 0.75504 0.80841 0.0
H507 H 0.36565 0.76659 0.8601 0.0
H508 H 0.37021 0.73822 0.83091 0.0
H509 H 0.44625 0.74573 0.71086 0.0
H510 H 0.47062 0.76391 0.79191 0.0
H511 H 0.40577 0.78953 0.85736 0.0
C512 C 0.35153 0.74787 0.68105 0.0
C513 C 0.35338 0.73392 0.63234 0.0
C514 C 0.37639 0.72746 0.61741 0.0
C515 C 0.39712 0.73465 0.65028 0.0
C516 C 0.39465 0.74832 0.69801 0.0
C517 C 0.37245 0.75487 0.71338 0.0
C518 C 0.37471 0.76936 0.76718 0.0
C519 C 0.36448 0.79469 0.75106 0.0
C520 C 0.36273 0.75653 0.81975 0.0
C521 C 0.40162 0.76979 0.7798 0.0
C522 C 0.41284 0.75762 0.73938 0.0
C523 C 0.43766 0.75538 0.74271 0.0
C524 C 0.45136 0.76577 0.78885 0.0
C525 C 0.44017 0.77819 0.83101 0.0
C526 C 0.41496 0.78024 0.82588 0.0
H527 H 0.75902 0.81727 0.18767 0.0
H528 H 0.80372 0.867 0.08956 0.0
H529 H 0.79782 0.89704 0.16119 0.0
H530 H 0.71663 0.86052 0.22283 0.0
H531 H 0.71308 0.84584 0.29582 0.0
H532 H 0.72077 0.82863 0.23639 0.0
H533 H 0.7581 0.8119 0.30245 0.0
H534 H 0.7506 0.82915 0.36199 0.0
H535 H 0.77956 0.83235 0.33367 0.0
H536 H 0.78746 0.92134 0.24592 0.0
H537 H 0.77244 0.93817 0.3335 0.0
H538 H 0.73458 0.87209 0.37413 0.0
C539 C 0.76759 0.83447 0.18087 0.0
C540 C 0.7819 0.8397 0.13283 0.0
C541 C 0.79265 0.86253 0.12585 0.0
C542 C 0.78944 0.87969 0.16641 0.0
C543 C 0.77539 0.87377 0.21354 0.0
C544 C 0.76456 0.85172 0.22064 0.0
C545 C 0.7503 0.84965 0.27473 0.0
C546 C 0.72362 0.84595 0.25632 0.0
C547 C 0.76025 0.82958 0.32093 0.0
C548 C 0.7548 0.87399 0.29727 0.0
C549 C 0.76935 0.88767 0.26158 0.0
C550 C 0.77602 0.91078 0.27403 0.0
C551 C 0.76743 0.92017 0.32395 0.0
C552 C 0.7523 0.90647 0.36071 0.0
C553 C 0.74607 0.88306 0.347 0.0
H554 H 0.64173 0.28122 0.65149 0.0
H555 H 0.68431 0.21616 0.68223 0.0
H556 H 0.65433 0.19789 0.74532 0.0
H557 H 0.62455 0.28114 0.79813 0.0
H558 H 0.59485 0.29251 0.77578 0.0
H559 H 0.61868 0.29971 0.72908 0.0
H560 H 0.59395 0.28266 0.63989 0.0
H561 H 0.57008 0.27523 0.68656 0.0
H562 H 0.58307 0.25242 0.64778 0.0
H563 H 0.62107 0.18742 0.80936 0.0
H564 H 0.58809 0.18641 0.87487 0.0
H565 H 0.56713 0.25823 0.80277 0.0
C566 C 0.64467 0.26305 0.671 0.0
C567 C 0.66541 0.25015 0.66184 0.0
C568 C 0.66865 0.22648 0.68876 0.0
C569 C 0.65162 0.21586 0.72435 0.0
C570 C 0.63144 0.22909 0.73256 0.0
C571 C 0.62791 0.25219 0.70688 0.0
C572 C 0.60542 0.26303 0.7258 0.0
C573 C 0.61123 0.28541 0.7592 0.0
C574 C 0.58704 0.26866 0.67178 0.0
C575 C 0.59716 0.2426 0.76726 0.0
C576 C 0.61225 0.22308 0.76985 0.0
C577 C 0.609 0.20251 0.80734 0.0
C578 C 0.5902 0.2021 0.84437 0.0
C579 C 0.57498 0.2222 0.84388 0.0
C580 C 0.57825 0.24246 0.80369 0.0
H581 H 0.19272 0.12945 0.18649 0.0
H582 H 0.25995 0.16752 0.18069 0.0
H583 H 0.28003 0.13538 0.24765 0.0
H584 H 0.20122 0.11061 0.34177 0.0
H585 H 0.18727 0.08188 0.33537 0.0
H586 H 0.17849 0.10662 0.28187 0.0
H587 H 0.18808 0.08142 0.19583 0.0
H588 H 0.19714 0.05667 0.24925 0.0
H589 H 0.21742 0.06845 0.19646 0.0
H590 H 0.29281 0.10057 0.31671 0.0
H591 H 0.29683 0.06723 0.395 0.0
H592 H 0.22124 0.05171 0.36229 0.0
C593 C 0.2117 0.13082 0.19907 0.0
C594 C 0.22481 0.15094 0.17843 0.0
C595 C 0.24953 0.15236 0.19639 0.0
C596 C 0.26117 0.13408 0.2339 0.0
C597 C 0.24782 0.11454 0.25362 0.0
C598 C 0.22359 0.11286 0.2377 0.0
C599 C 0.21321 0.09087 0.26989 0.0
C600 C 0.19391 0.09792 0.30959 0.0
C601 C 0.20338 0.07331 0.22518 0.0
C602 C 0.23534 0.08081 0.30712 0.0
C603 C 0.25514 0.09455 0.29581 0.0
C604 C 0.27748 0.08959 0.32591 0.0
C605 C 0.27956 0.07057 0.37037 0.0
C606 C 0.25936 0.05683 0.38498 0.0
C607 C 0.23708 0.06167 0.3517 0.0
H608 H 0.2464 0.30258 0.94843 0.0
H609 H 0.17487 0.29342 0.00417 0.0
H610 H 0.1688 0.33727 -0.00745 0.0
H611 H 0.2602 0.35201 0.03034 0.0
H612 H 0.27788 0.36735 0.97612 0.0
H613 H 0.27545 0.3353 0.98018 0.0
H614 H 0.2601 0.3376 0.86804 0.0
H615 H 0.26255 0.36971 0.86357 0.0
H616 H 0.23449 0.356 0.84137 0.0
H617 H 0.17125 0.38184 0.9804 0.0
H618 H 0.1829 0.42429 0.97608 0.0
H619 H 0.25396 0.40492 0.93469 0.0
C620 C 0.2293 0.30991 0.95659 0.0
C621 C 0.21086 0.29484 0.97592 0.0
C622 C 0.189 0.30485 -0.01152 0.0
C623 C 0.18541 0.32966 0.98189 0.0
C624 C 0.20402 0.34418 0.96351 0.0
C625 C 0.22561 0.33473 0.95144 0.0
C626 C 0.24346 0.3544 0.93832 0.0
C627 C 0.26554 0.35212 -0.01603 0.0
C628 C 0.25056 0.35442 0.87399 0.0
C629 C 0.22867 0.3763 0.94592 0.0
C630 C 0.20584 0.37 0.95932 0.0
C631 C 0.18904 0.38702 0.96963 0.0
C632 C 0.19583 0.41111 0.96701 0.0
C633 C 0.21934 0.41797 0.95509 0.0
C634 C 0.23584 0.40027 0.94378 0.0
H635 H 0.1911 0.71004 0.40968 0.0
H636 H 0.19692 0.72767 0.59426 0.0
H637 H 0.15344 0.72191 0.59749 0.0
H638 H 0.13404 0.73836 0.3647 0.0
H639 H 0.12381 0.71527 0.31791 0.0
H640 H 0.15527 0.72148 0.32953 0.0
H641 H 0.16359 0.67715 0.3672 0.0
H642 H 0.13219 0.67075 0.3555 0.0
H643 H 0.14796 0.66366 0.42799 0.0
H644 H 0.1092 0.71428 0.58041 0.0
H645 H 0.06807 0.70289 0.54649 0.0
H646 H 0.09146 0.68926 0.37396 0.0
C647 C 0.18325 0.71285 0.45074 0.0
C648 C 0.19747 0.71945 0.50164 0.0
C649 C 0.18646 0.7226 0.55468 0.0
C650 C 0.16174 0.71946 0.55689 0.0
C651 C 0.14829 0.71303 0.50584 0.0
C652 C 0.15868 0.70958 0.45391 0.0
C653 C 0.14039 0.70186 0.40595 0.0
C654 C 0.13825 0.72035 0.3513 0.0
C655 C 0.14639 0.67687 0.38814 0.0
C656 C 0.11805 0.70145 0.43905 0.0
C657 C 0.12294 0.70814 0.49643 0.0
C658 C 0.10516 0.70901 0.53557 0.0
C659 C 0.08183 0.70256 0.51582 0.0
C660 C 0.0765 0.69517 0.45757 0.0
C661 C 0.09491 0.69485 0.41871 0.0
H662 H 0.78989 0.68673 0.0621 0.0
H663 H 0.73969 0.69973 0.90483 0.0
H664 H 0.73528 0.65629 0.89888 0.0
H665 H 0.81932 0.63678 0.01018 0.0
H666 H 0.82364 0.62064 0.08298 0.0
H667 H 0.8222 0.6528 0.07641 0.0
H668 H 0.78779 0.65123 0.14594 0.0
H669 H 0.78905 0.61905 0.15259 0.0
H670 H 0.76133 0.63424 0.12718 0.0
H671 H 0.73581 0.61158 0.91036 0.0
H672 H 0.74355 0.56845 0.93415 0.0
H673 H 0.79463 0.58422 0.08145 0.0
C674 C 0.77788 0.68043 0.0266 0.0
C675 C 0.76506 0.69667 -0.01593 0.0
C676 C 0.74976 0.68768 0.93783 0.0
C677 C 0.74704 0.66302 0.9342 0.0
C678 C 0.75988 0.64753 0.97681 0.0
C679 C 0.77517 0.65583 0.02181 0.0
C680 C 0.78757 0.63531 0.06049 0.0
C681 C 0.8148 0.63646 0.05729 0.0
C682 C 0.78104 0.63494 0.12539 0.0
C683 C 0.77684 0.6142 0.03016 0.0
C684 C 0.76074 0.62167 0.98237 0.0
C685 C 0.74843 0.6055 0.9476 0.0
C686 C 0.7529 0.58102 0.96158 0.0
C687 C 0.76972 0.57294 0.00956 0.0
C688 C 0.78171 0.58983 0.04441 0.0
H689 H 0.81197 0.27145 0.57349 0.0
H690 H 0.79872 0.25472 0.38904 0.0
H691 H 0.84214 0.25638 0.37827 0.0
H692 H 0.8575 0.31396 0.54743 0.0
H693 H 0.87489 0.30586 0.61726 0.0
H694 H 0.84303 0.30165 0.61143 0.0
H695 H 0.84909 0.25686 0.64777 0.0
H696 H 0.881 0.26089 0.65359 0.0
H697 H 0.86764 0.23853 0.60861 0.0
H698 H 0.88703 0.26039 0.38756 0.0
H699 H 0.92954 0.26938 0.41361 0.0
H700 H 0.91296 0.28505 0.59075 0.0
C701 C 0.8182 0.26783 0.53101 0.0
C702 C 0.80198 0.26274 0.48222 0.0
C703 C 0.81083 0.25863 0.42703 0.0
C704 C 0.83545 0.25942 0.42058 0.0
C705 C 0.85093 0.26454 0.46959 0.0
C706 C 0.84262 0.26887 0.52358 0.0
C707 C 0.8628 0.27535 0.56827 0.0
C708 C 0.85935 0.30071 0.58718 0.0
C709 C 0.86527 0.2568 0.62278 0.0
C710 C 0.88379 0.27415 0.53087 0.0
C711 C 0.87662 0.2676 0.47434 0.0
C712 C 0.89284 0.26551 0.43171 0.0
C713 C 0.91696 0.27059 0.44699 0.0
C714 C 0.92457 0.27794 0.50418 0.0
C715 C 0.90772 0.27948 0.54668 0.0
H716 H 0.71122 0.18236 0.57929 0.0
H717 H 0.7189 0.19133 0.38868 0.0
H718 H 0.71028 0.14836 0.38172 0.0
H719 H 0.73752 0.12359 0.60838 0.0
H720 H 0.71671 0.1136 0.66163 0.0
H721 H 0.72434 0.14478 0.65171 0.0
H722 H 0.67953 0.15586 0.62905 0.0
H723 H 0.67174 0.12474 0.63908 0.0
H724 H 0.66204 0.14216 0.57034 0.0
H725 H 0.70085 0.10419 0.39618 0.0
H726 H 0.68889 0.06314 0.42934 0.0
H727 H 0.68622 0.08382 0.60984 0.0
C728 C 0.71131 0.1753 0.53607 0.0
C729 C 0.71594 0.1902 0.48456 0.0
C730 C 0.71544 0.18027 0.42875 0.0
C731 C 0.71064 0.15588 0.42442 0.0
C732 C 0.7062 0.14172 0.47618 0.0
C733 C 0.70631 0.15114 0.53084 0.0
C734 C 0.70005 0.13241 0.57935 0.0
C735 C 0.7209 0.12836 0.62814 0.0
C736 C 0.67697 0.1392 0.606 0.0
C737 C 0.69637 0.11092 0.54349 0.0
C738 C 0.70019 0.11658 0.48418 0.0
C739 C 0.69781 0.09958 0.4425 0.0
C740 C 0.69106 0.07629 0.46181 0.0
C741 C 0.68659 0.07024 0.52217 0.0
C742 C 0.68949 0.08784 0.56341 0.0
H743 H 0.30149 0.23795 0.96136 0.0
H744 H 0.2921 0.20003 0.13363 0.0
H745 H 0.33595 0.19703 0.15528 0.0
H746 H 0.35354 0.20625 0.92816 0.0
H747 H 0.36766 0.23245 0.89538 0.0
H748 H 0.33557 0.23087 0.89258 0.0
H749 H 0.33451 0.27042 0.94369 0.0
H750 H 0.3666 0.27213 0.94664 0.0
H751 H 0.35177 0.27284 0.01421 0.0
H752 H 0.38068 0.19661 0.15609 0.0
H753 H 0.42342 0.20215 0.14028 0.0
H754 H 0.40371 0.24334 0.97143 0.0
C755 C 0.30872 0.22893 0.00347 0.0
C756 C 0.29352 0.21906 0.04573 0.0
C757 C 0.30352 0.20773 0.10079 0.0
C758 C 0.32836 0.20587 0.11335 0.0
C759 C 0.34289 0.2158 0.0708 0.0
C760 C 0.33348 0.2274 0.01734 0.0
C761 C 0.35305 0.23742 0.98044 0.0
C762 C 0.35241 0.22606 0.92061 0.0
C763 C 0.35138 0.26483 0.9707 0.0
C764 C 0.37494 0.22947 0.0213 0.0
C765 C 0.36868 0.21676 0.07284 0.0
C766 C 0.38581 0.20674 0.11623 0.0
C767 C 0.40999 0.20992 0.10682 0.0
C768 C 0.41677 0.22336 0.055 0.0
C769 C 0.39899 0.23329 0.01188 0.0
H770 H 0.24769 0.80804 0.56062 0.0
H771 H 0.29684 0.80588 0.42327 0.0
H772 H 0.29999 0.84994 0.41708 0.0
H773 H 0.21588 0.86023 0.4918 0.0
H774 H 0.21097 0.87214 0.56149 0.0
H775 H 0.21385 0.84035 0.55834 0.0
H776 H 0.24833 0.83903 0.64281 0.0
H777 H 0.24555 0.87082 0.64629 0.0
H778 H 0.27392 0.85805 0.6341 0.0
H779 H 0.29882 0.89395 0.4281 0.0
H780 H 0.29023 0.93555 0.44799 0.0
H781 H 0.23868 0.90975 0.57055 0.0
C782 C 0.25925 0.81693 0.52974 0.0
C783 C 0.27224 0.8037 0.49279 0.0
C784 C 0.28681 0.81581 0.45193 0.0
C785 C 0.28876 0.84077 0.44827 0.0
C786 C 0.27563 0.85338 0.48496 0.0
C787 C 0.26089 0.84195 0.52431 0.0
C788 C 0.24762 0.85989 0.55593 0.0
C789 C 0.22047 0.85804 0.54097 0.0
C790 C 0.25426 0.85676 0.62381 0.0
C791 C 0.2573 0.88314 0.52841 0.0
C792 C 0.27373 0.87893 0.48832 0.0
C793 C 0.28581 0.8975 0.45894 0.0
C794 C 0.28087 0.92104 0.47058 0.0
C795 C 0.26364 0.92581 0.51022 0.0
C796 C 0.25168 0.90659 0.53933 0.0
H797 H 0.68676 0.79749 0.9319 0.0
H798 H 0.70124 0.75843 0.10613 0.0
H799 H 0.65815 0.75869 0.1201 0.0
H800 H 0.63975 0.83522 0.9744 0.0
H801 H 0.62244 0.83487 0.90325 0.0
H802 H 0.65448 0.83194 0.90764 0.0
H803 H 0.65005 0.79236 0.85661 0.0
H804 H 0.61801 0.79505 0.85243 0.0
H805 H 0.63252 0.76845 0.88885 0.0
H806 H 0.61319 0.76115 0.11248 0.0
H807 H 0.57002 0.7687 0.08768 0.0
H808 H 0.58509 0.80749 0.92024 0.0
C809 C 0.68092 0.78909 0.97318 0.0
C810 C 0.69743 0.77786 0.01785 0.0
C811 C 0.68899 0.76723 0.07134 0.0
C812 C 0.66452 0.76719 0.0796 0.0
C813 C 0.64873 0.77809 0.03428 0.0
C814 C 0.65662 0.78912 0.98246 0.0
C815 C 0.63598 0.79974 0.94088 0.0
C816 C 0.63831 0.82706 0.93099 0.0
C817 C 0.63403 0.7882 0.88117 0.0
C818 C 0.61521 0.79273 0.97711 0.0
C819 C 0.62293 0.78012 0.03068 0.0
C820 C 0.60695 0.77118 0.0709 0.0
C821 C 0.58246 0.77546 0.05628 0.0
C822 C 0.57418 0.78875 0.00215 0.0
C823 C 0.59086 0.79741 0.96213 0.0
loop_
_geom_bond_atom_site_label_1
_geom_bond_atom_site_label_2
_geom_bond_distance
_geom_bond_site_symmetry_2
_ccdc_geom_bond_type
Sc0 O3 2.025 . S
Sc0 O10 2.105 . S
Sc0 O13 2.105 . S
Sc0 O16 2.105 . S
Sc0 O19 2.105 . S
Sc1 O3 2.025 . S
Sc1 O11 2.105 . S
Sc1 O15 2.105 1_554 S
Sc1 O17 2.105 . S
Sc1 O21 2.105 1_554 S
Sc2 O3 2.025 1_556 S
Sc2 O12 2.105 . S
Sc2 O14 2.105 . S
Sc2 O18 2.105 . S
Sc2 O20 2.105 . S
O3 Sc0 2.025 . S
O3 Sc1 2.025 . S
O3 Sc2 2.025 1_554 S
C4 O10 1.268 . S
C4 O20 1.268 1_554 S
C5 O11 1.268 . S
C5 O19 1.268 . S
C6 O12 1.268 . S
C6 O21 1.268 . S
C7 O13 1.268 . S
C7 O17 1.268 . S
C8 O14 1.268 1_554 S
C8 O16 1.268 . S
C9 O15 1.268 . S
C9 O18 1.268 . S
O10 Sc0 2.105 . S
O10 C4 1.268 . S
O11 Sc1 2.105 . S
O11 C5 1.268 . S
O12 Sc2 2.105 . S
O12 C6 1.268 . S
O13 Sc0 2.105 . S
O13 C7 1.268 . S
O14 Sc2 2.105 . S
O14 C8 1.268 1_556 S
O15 Sc1 2.105 1_556 S
O15 C9 1.268 . S
O16 Sc0 2.105 . S
O16 C8 1.268 . S
O17 Sc1 2.105 . S
O17 C7 1.268 . S
O18 Sc2 2.105 . S
O18 C9 1.268 . S
O19 Sc0 2.105 . S
O19 C5 1.268 . S
O20 Sc2 2.105 . S
O20 C4 1.268 1_556 S
O21 Sc1 2.105 1_556 S
O21 C6 1.268 . S
Sc22 O25 2.025 . S
Sc22 O32 2.105 . S
Sc22 O35 2.105 . S
Sc22 O38 2.105 . S
Sc22 O41 2.105 . S
Sc23 O25 2.025 . S
Sc23 O33 2.105 . S
Sc23 O37 2.105 . S
Sc23 O39 2.105 . S
Sc23 O43 2.105 . S
Sc24 O25 2.025 . S
Sc24 O34 2.105 . S
Sc24 O36 2.105 . S
Sc24 O40 2.105 . S
Sc24 O42 2.105 . S
O25 Sc22 2.025 . S
O25 Sc23 2.025 . S
O25 Sc24 2.025 . S
C26 O32 1.268 . S
C26 O42 1.268 . S
C27 O33 1.268 . S
C27 O41 1.268 . S
C28 O34 1.268 . S
C28 O43 1.268 . S
C29 O35 1.268 . S
C29 O39 1.268 . S
C30 O36 1.268 . S
C30 O38 1.268 . S
C31 O37 1.268 . S
C31 O40 1.268 . S
O32 Sc22 2.105 . S
O32 C26 1.268 . S
O33 Sc23 2.105 . S
O33 C27 1.268 . S
O34 Sc24 2.105 . S
O34 C28 1.268 . S
O35 Sc22 2.105 . S
O35 C29 1.268 . S
O36 Sc24 2.105 . S
O36 C30 1.268 . S
O37 Sc23 2.105 . S
O37 C31 1.268 . S
O38 Sc22 2.105 . S
O38 C30 1.268 . S
O39 Sc23 2.105 . S
O39 C29 1.268 . S
O40 Sc24 2.105 . S
O40 C31 1.268 . S
O41 Sc22 2.105 . S
O41 C27 1.268 . S
O42 Sc24 2.105 . S
O42 C26 1.268 . S
O43 Sc23 2.105 . S
O43 C28 1.268 . S
Sc44 O47 2.025 1_556 S
Sc44 O54 2.105 . S
Sc44 O57 2.105 . S
Sc44 O60 2.105 . S
Sc44 O63 2.105 . S
Sc45 O47 2.025 . S
Sc45 O55 2.105 1_554 S
Sc45 O59 2.105 . S
Sc45 O61 2.105 1_554 S
Sc45 O65 2.105 . S
Sc46 O47 2.025 . S
Sc46 O56 2.105 . S
Sc46 O58 2.105 . S
Sc46 O62 2.105 . S
Sc46 O64 2.105 . S
O47 Sc44 2.025 1_554 S
O47 Sc45 2.025 . S
O47 Sc46 2.025 . S
C48 O54 1.268 1_554 S
C48 O64 1.268 . S
C49 O55 1.268 . S
C49 O63 1.268 . S
C50 O56 1.268 . S
C50 O65 1.268 . S
C51 O57 1.268 . S
C51 O61 1.268 . S
C52 O58 1.268 . S
C52 O60 1.268 1_554 S
C53 O59 1.268 . S
C53 O62 1.268 . S
O54 Sc44 2.105 . S
O54 C48 1.268 1_556 S
O55 Sc45 2.105 1_556 S
O55 C49 1.268 . S
O56 Sc46 2.105 . S
O56 C50 1.268 . S
O57 Sc44 2.105 . S
O57 C51 1.268 . S
O58 Sc46 2.105 . S
O58 C52 1.268 . S
O59 Sc45 2.105 . S
O59 C53 1.268 . S
O60 Sc44 2.105 . S
O60 C52 1.268 1_556 S
O61 Sc45 2.105 1_556 S
O61 C51 1.268 . S
O62 Sc46 2.105 . S
O62 C53 1.268 . S
O63 Sc44 2.105 . S
O63 C49 1.268 . S
O64 Sc46 2.105 . S
O64 C48 1.268 . S
O65 Sc45 2.105 . S
O65 C50 1.268 . S
Sc66 O69 2.025 . S
Sc66 O76 2.105 . S
Sc66 O79 2.105 . S
Sc66 O82 2.105 . S
Sc66 O85 2.105 . S
Sc67 O69 2.025 . S
Sc67 O77 2.105 . S
Sc67 O81 2.105 . S
Sc67 O83 2.105 . S
Sc67 O87 2.105 . S
Sc68 O69 2.025 . S
Sc68 O78 2.105 . S
Sc68 O80 2.105 . S
Sc68 O84 2.105 . S
Sc68 O86 2.105 . S
O69 Sc66 2.025 . S
O69 Sc67 2.025 . S
O69 Sc68 2.025 . S
C70 O76 1.268 . S
C70 O86 1.268 . S
C71 O77 1.268 . S
C71 O85 1.268 . S
C72 O78 1.268 . S
C72 O87 1.268 . S
C73 O79 1.268 . S
C73 O83 1.268 . S
C74 O80 1.268 . S
C74 O82 1.268 . S
C75 O81 1.268 . S
C75 O84 1.268 . S
O76 Sc66 2.105 . S
O76 C70 1.268 . S
O77 Sc67 2.105 . S
O77 C71 1.268 . S
O78 Sc68 2.105 . S
O78 C72 1.268 . S
O79 Sc66 2.105 . S
O79 C73 1.268 . S
O80 Sc68 2.105 . S
O80 C74 1.268 . S
O81 Sc67 2.105 . S
O81 C75 1.268 . S
O82 Sc66 2.105 . S
O82 C74 1.268 . S
O83 Sc67 2.105 . S
O83 C73 1.268 . S
O84 Sc68 2.105 . S
O84 C75 1.268 . S
O85 Sc66 2.105 . S
O85 C71 1.268 . S
O86 Sc68 2.105 . S
O86 C70 1.268 . S
O87 Sc67 2.105 . S
O87 C72 1.268 . S
O88 Cd89 2.300 1_556 S
O88 C95 1.275 . S
Cd89 O88 2.300 1_554 S
Cd89 O97 2.381 1_554 S
Cd89 O98 2.378 . S
O90 Cd91 2.385 1_556 S
O90 C95 1.255 . S
Cd91 O90 2.385 1_554 S
Cd91 O92 2.317 . S
O92 Cd91 2.317 . S
O92 C93 1.232 . S
C93 O92 1.232 . S
C93 O94 1.218 . S
O94 C93 1.218 . S
C95 O88 1.275 . S
C95 O90 1.255 . S
C96 O97 1.258 1_554 S
C96 O98 1.256 . S
O97 Cd89 2.381 1_556 S
O97 C96 1.258 1_556 S
O98 Cd89 2.378 . S
O98 C96 1.256 . S
O99 Cd100 2.300 1_655 S
O99 C106 1.275 . S
Cd100 O99 2.300 1_455 S
Cd100 O108 2.381 . S
Cd100 O109 2.378 . S
O101 Cd102 2.385 . S
O101 C106 1.255 . S
Cd102 O101 2.385 . S
Cd102 O103 2.317 . S
O103 Cd102 2.317 . S
O103 C104 1.232 . S
C104 O103 1.232 . S
C104 O105 1.218 . S
O105 C104 1.218 . S
C106 O99 1.275 . S
C106 O101 1.255 . S
C107 O108 1.258 . S
C107 O109 1.256 . S
O108 Cd100 2.381 . S
O108 C107 1.258 . S
O109 Cd100 2.378 . S
O109 C107 1.256 . S
O110 Cd111 2.300 . S
O110 C117 1.275 . S
Cd111 O110 2.300 . S
Cd111 O119 2.381 . S
Cd111 O120 2.378 1_554 S
O112 Cd113 2.385 1_554 S
O112 C117 1.255 . S
Cd113 O112 2.385 1_556 S
Cd113 O114 2.317 . S
O114 Cd113 2.317 . S
O114 C115 1.232 . S
C115 O114 1.232 . S
C115 O116 1.218 . S
O116 C115 1.218 . S
C117 O110 1.275 . S
C117 O112 1.255 . S
C118 O119 1.258 . S
C118 O120 1.256 1_554 S
O119 Cd111 2.381 . S
O119 C118 1.258 . S
O120 Cd111 2.378 1_556 S
O120 C118 1.256 1_556 S
O121 Cd122 2.300 1_455 S
O121 C128 1.275 . S
Cd122 O121 2.300 1_655 S
Cd122 O130 2.381 . S
Cd122 O131 2.378 . S
O123 Cd124 2.385 . S
O123 C128 1.255 . S
Cd124 O123 2.385 . S
Cd124 O125 2.317 . S
O125 Cd124 2.317 . S
O125 C126 1.232 . S
C126 O125 1.232 . S
C126 O127 1.218 . S
O127 C126 1.218 . S
C128 O121 1.275 . S
C128 O123 1.255 . S
C129 O130 1.258 . S
C129 O131 1.256 . S
O130 Cd122 2.381 . S
O130 C129 1.258 . S
O131 Cd122 2.378 . S
O131 C129 1.256 . S
O132 Cd133 2.300 1_565 S
O132 C139 1.275 . S
Cd133 O132 2.300 1_545 S
Cd133 O141 2.381 . S
Cd133 O142 2.378 . S
O134 Cd135 2.385 . S
O134 C139 1.255 . S
Cd135 O134 2.385 . S
Cd135 O136 2.317 . S
O136 Cd135 2.317 . S
O136 C137 1.232 . S
C137 O136 1.232 . S
C137 O138 1.218 . S
O138 C137 1.218 . S
C139 O132 1.275 . S
C139 O134 1.255 . S
C140 O141 1.258 . S
C140 O142 1.256 . S
O141 Cd133 2.381 . S
O141 C140 1.258 . S
O142 Cd133 2.378 . S
O142 C140 1.256 . S
O143 Cd144 2.300 . S
O143 C150 1.275 . S
Cd144 O143 2.300 . S
Cd144 O152 2.381 . S
Cd144 O153 2.378 1_554 S
O145 Cd146 2.385 1_554 S
O145 C150 1.255 . S
Cd146 O145 2.385 1_556 S
Cd146 O147 2.317 . S
O147 Cd146 2.317 . S
O147 C148 1.232 . S
C148 O147 1.232 . S
C148 O149 1.218 . S
O149 C148 1.218 . S
C150 O143 1.275 . S
C150 O145 1.255 . S
C151 O152 1.258 . S
C151 O153 1.256 1_554 S
O152 Cd144 2.381 . S
O152 C151 1.258 . S
O153 Cd144 2.378 1_556 S
O153 C151 1.256 1_556 S
O154 Cd155 2.300 1_545 S
O154 C161 1.275 . S
Cd155 O154 2.300 1_565 S
Cd155 O163 2.381 . S
Cd155 O164 2.378 . S
O156 Cd157 2.385 . S
O156 C161 1.255 . S
Cd157 O156 2.385 . S
Cd157 O158 2.317 . S
O158 Cd157 2.317 . S
O158 C159 1.232 . S
C159 O158 1.232 . S
C159 O160 1.218 . S
O160 C159 1.218 . S
C161 O154 1.275 . S
C161 O156 1.255 . S
C162 O163 1.258 . S
C162 O164 1.256 . S
O163 Cd155 2.381 . S
O163 C162 1.258 . S
O164 Cd155 2.378 . S
O164 C162 1.256 . S
O165 Cd166 2.300 . S
O165 C172 1.275 . S
Cd166 O165 2.300 . S
Cd166 O174 2.381 . S
Cd166 O175 2.378 1_556 S
O167 Cd168 2.385 1_556 S
O167 C172 1.255 . S
Cd168 O167 2.385 1_554 S
Cd168 O169 2.317 . S
O169 Cd168 2.317 . S
O169 C170 1.232 . S
C170 O169 1.232 . S
C170 O171 1.218 . S
O171 C170 1.218 . S
C172 O165 1.275 . S
C172 O167 1.255 . S
C173 O174 1.258 1_554 S
C173 O175 1.256 . S
O174 Cd166 2.381 . S
O174 C173 1.258 1_556 S
O175 Cd166 2.378 1_554 S
O175 C173 1.256 . S
H176 C188 0.930 . S
H177 C190 0.930 . S
H178 C191 0.930 . S
H179 C195 0.959 . S
H180 C195 0.959 . S
H181 C195 0.961 . S
H182 C196 0.960 . S
H183 C196 0.961 . S
H184 C196 0.959 . S
H185 C199 0.929 . S
H186 C200 0.931 . S
H187 C202 0.930 . S
C188 H176 0.930 . S
C188 C189 1.399 . S
C188 C193 1.399 . S
C189 C188 1.399 . S
C189 C190 1.376 . S
C190 H177 0.930 . S
C190 C189 1.376 . S
C190 C191 1.388 . S
C191 H178 0.930 . S
C191 C190 1.388 . S
C191 C192 1.390 . S
C192 C191 1.390 . S
C192 C193 1.394 . S
C192 C198 1.465 . S
C193 C188 1.399 . S
C193 C192 1.394 . S
C193 C194 1.516 . S
C194 C193 1.516 . S
C194 C195 1.502 . S
C194 C196 1.561 . S
C194 C197 1.526 . S
C195 H179 0.959 . S
C195 H180 0.959 . S
C195 H181 0.961 . S
C195 C194 1.502 . S
C196 H182 0.960 . S
C196 H183 0.961 . S
C196 H184 0.959 . S
C196 C194 1.561 . S
C197 C194 1.526 . S
C197 C198 1.396 . S
C197 C202 1.390 . S
C198 C192 1.465 . S
C198 C197 1.396 . S
C198 C199 1.399 . S
C199 H185 0.929 . S
C199 C198 1.399 . S
C199 C200 1.385 . S
C200 H186 0.931 . S
C200 C199 1.385 . S
C200 C201 1.389 . S
C201 C200 1.389 . S
C201 C202 1.387 . S
C202 H187 0.930 . S
C202 C197 1.390 . S
C202 C201 1.387 . S
H203 C215 0.930 . S
H204 C217 0.930 . S
H205 C218 0.930 . S
H206 C222 0.959 . S
H207 C222 0.959 . S
H208 C222 0.961 . S
H209 C223 0.960 . S
H210 C223 0.961 . S
H211 C223 0.959 . S
H212 C226 0.929 . S
H213 C227 0.931 . S
H214 C229 0.930 . S
C215 H203 0.930 . S
C215 C216 1.399 . S
C215 C220 1.399 . S
C216 C215 1.399 . S
C216 C217 1.376 . S
C217 H204 0.930 . S
C217 C216 1.376 . S
C217 C218 1.388 . S
C218 H205 0.930 . S
C218 C217 1.388 . S
C218 C219 1.390 . S
C219 C218 1.390 . S
C219 C220 1.394 . S
C219 C225 1.465 . S
C220 C215 1.399 . S
C220 C219 1.394 . S
C220 C221 1.516 . S
C221 C220 1.516 . S
C221 C222 1.502 . S
C221 C223 1.561 . S
C221 C224 1.526 . S
C222 H206 0.959 . S
C222 H207 0.959 . S
C222 H208 0.961 . S
C222 C221 1.502 . S
C223 H209 0.960 . S
C223 H210 0.961 . S
C223 H211 0.959 . S
C223 C221 1.561 . S
C224 C221 1.526 . S
C224 C225 1.396 . S
C224 C229 1.390 . S
C225 C219 1.465 . S
C225 C224 1.396 . S
C225 C226 1.399 . S
C226 H212 0.929 . S
C226 C225 1.399 . S
C226 C227 1.385 . S
C227 H213 0.931 . S
C227 C226 1.385 . S
C227 C228 1.389 . S
C228 C227 1.389 . S
C228 C229 1.387 . S
C229 H214 0.930 . S
C229 C224 1.390 . S
C229 C228 1.387 . S
H230 C242 0.930 . S
H231 C244 0.930 . S
H232 C245 0.930 . S
H233 C249 0.959 . S
H234 C249 0.959 . S
H235 C249 0.961 . S
H236 C250 0.960 . S
H237 C250 0.961 . S
H238 C250 0.959 . S
H239 C253 0.929 . S
H240 C254 0.931 . S
H241 C256 0.930 . S
C242 H230 0.930 . S
C242 C243 1.399 . S
C242 C247 1.399 . S
C243 C242 1.399 . S
C243 C244 1.376 . S
C244 H231 0.930 . S
C244 C243 1.376 . S
C244 C245 1.388 . S
C245 H232 0.930 . S
C245 C244 1.388 . S
C245 C246 1.390 . S
C246 C245 1.390 . S
C246 C247 1.394 . S
C246 C252 1.465 . S
C247 C242 1.399 . S
C247 C246 1.394 . S
C247 C248 1.516 . S
C248 C247 1.516 . S
C248 C249 1.502 . S
C248 C250 1.561 . S
C248 C251 1.526 . S
C249 H233 0.959 . S
C249 H234 0.959 . S
C249 H235 0.961 . S
C249 C248 1.502 . S
C250 H236 0.960 . S
C250 H237 0.961 . S
C250 H238 0.959 . S
C250 C248 1.561 . S
C251 C248 1.526 . S
C251 C252 1.396 . S
C251 C256 1.390 . S
C252 C246 1.465 . S
C252 C251 1.396 . S
C252 C253 1.399 . S
C253 H239 0.929 . S
C253 C252 1.399 . S
C253 C254 1.385 . S
C254 H240 0.931 . S
C254 C253 1.385 . S
C254 C255 1.389 . S
C255 C254 1.389 . S
C255 C256 1.387 . S
C256 H241 0.930 . S
C256 C251 1.390 . S
C256 C255 1.387 . S
H257 C269 0.930 . S
H258 C271 0.930 . S
H259 C272 0.930 . S
H260 C276 0.959 . S
H261 C276 0.959 . S
H262 C276 0.961 . S
H263 C277 0.960 . S
H264 C277 0.961 . S
H265 C277 0.959 . S
H266 C280 0.929 . S
H267 C281 0.931 . S
H268 C283 0.930 . S
C269 H257 0.930 . S
C269 C270 1.399 . S
C269 C274 1.399 . S
C270 C269 1.399 . S
C270 C271 1.376 . S
C271 H258 0.930 . S
C271 C270 1.376 . S
C271 C272 1.388 . S
C272 H259 0.930 . S
C272 C271 1.388 . S
C272 C273 1.390 . S
C273 C272 1.390 . S
C273 C274 1.394 . S
C273 C279 1.465 . S
C274 C269 1.399 . S
C274 C273 1.394 . S
C274 C275 1.516 . S
C275 C274 1.516 . S
C275 C276 1.502 . S
C275 C277 1.561 . S
C275 C278 1.526 . S
C276 H260 0.959 . S
C276 H261 0.959 . S
C276 H262 0.961 . S
C276 C275 1.502 . S
C277 H263 0.960 . S
C277 H264 0.961 . S
C277 H265 0.959 . S
C277 C275 1.561 . S
C278 C275 1.526 . S
C278 C279 1.396 . S
C278 C283 1.390 . S
C279 C273 1.465 . S
C279 C278 1.396 . S
C279 C280 1.399 . S
C280 H266 0.929 . S
C280 C279 1.399 . S
C280 C281 1.385 . S
C281 H267 0.931 . S
C281 C280 1.385 . S
C281 C282 1.389 . S
C282 C281 1.389 . S
C282 C283 1.387 . S
C283 H268 0.930 . S
C283 C278 1.390 . S
C283 C282 1.387 . S
H284 C296 0.930 . S
H285 C298 0.930 . S
H286 C299 0.930 . S
H287 C303 0.959 . S
H288 C303 0.959 . S
H289 C303 0.961 . S
H290 C304 0.960 . S
H291 C304 0.961 . S
H292 C304 0.959 . S
H293 C307 0.929 . S
H294 C308 0.931 . S
H295 C310 0.930 . S
C296 H284 0.930 . S
C296 C297 1.399 . S
C296 C301 1.399 . S
C297 C296 1.399 . S
C297 C298 1.376 . S
C298 H285 0.930 . S
C298 C297 1.376 . S
C298 C299 1.388 . S
C299 H286 0.930 . S
C299 C298 1.388 . S
C299 C300 1.390 . S
C300 C299 1.390 . S
C300 C301 1.394 . S
C300 C306 1.465 . S
C301 C296 1.399 . S
C301 C300 1.394 . S
C301 C302 1.516 . S
C302 C301 1.516 . S
C302 C303 1.502 . S
C302 C304 1.561 . S
C302 C305 1.526 . S
C303 H287 0.959 . S
C303 H288 0.959 . S
C303 H289 0.961 . S
C303 C302 1.502 . S
C304 H290 0.960 . S
C304 H291 0.961 . S
C304 H292 0.959 . S
C304 C302 1.561 . S
C305 C302 1.526 . S
C305 C306 1.396 . S
C305 C310 1.390 . S
C306 C300 1.465 . S
C306 C305 1.396 . S
C306 C307 1.399 . S
C307 H293 0.929 . S
C307 C306 1.399 . S
C307 C308 1.385 . S
C308 H294 0.931 . S
C308 C307 1.385 . S
C308 C309 1.389 . S
C309 C308 1.389 . S
C309 C310 1.387 . S
C310 H295 0.930 . S
C310 C305 1.390 . S
C310 C309 1.387 . S
H311 C323 0.930 . S
H312 C325 0.930 . S
H313 C326 0.930 . S
H314 C330 0.959 . S
H315 C330 0.959 . S
H316 C330 0.961 . S
H317 C331 0.960 . S
H318 C331 0.961 . S
H319 C331 0.959 . S
H320 C334 0.929 . S
H321 C335 0.931 . S
H322 C337 0.930 . S
C323 H311 0.930 . S
C323 C324 1.399 . S
C323 C328 1.399 . S
C324 C323 1.399 . S
C324 C325 1.376 . S
C325 H312 0.930 . S
C325 C324 1.376 . S
C325 C326 1.388 . S
C326 H313 0.930 . S
C326 C325 1.388 . S
C326 C327 1.390 . S
C327 C326 1.390 . S
C327 C328 1.394 . S
C327 C333 1.465 . S
C328 C323 1.399 . S
C328 C327 1.394 . S
C328 C329 1.516 . S
C329 C328 1.516 . S
C329 C330 1.502 . S
C329 C331 1.561 . S
C329 C332 1.526 . S
C330 H314 0.959 . S
C330 H315 0.959 . S
C330 H316 0.961 . S
C330 C329 1.502 . S
C331 H317 0.960 . S
C331 H318 0.961 . S
C331 H319 0.959 . S
C331 C329 1.561 . S
C332 C329 1.526 . S
C332 C333 1.396 . S
C332 C337 1.390 . S
C333 C327 1.465 . S
C333 C332 1.396 . S
C333 C334 1.399 . S
C334 H320 0.929 . S
C334 C333 1.399 . S
C334 C335 1.385 . S
C335 H321 0.931 . S
C335 C334 1.385 . S
C335 C336 1.389 . S
C336 C335 1.389 . S
C336 C337 1.387 . S
C337 H322 0.930 . S
C337 C332 1.390 . S
C337 C336 1.387 . S
H338 C350 0.930 . S
H339 C352 0.930 . S
H340 C353 0.930 . S
H341 C357 0.959 . S
H342 C357 0.959 . S
H343 C357 0.961 . S
H344 C358 0.960 . S
H345 C358 0.961 . S
H346 C358 0.959 . S
H347 C361 0.929 . S
H348 C362 0.931 . S
H349 C364 0.930 . S
C350 H338 0.930 . S
C350 C351 1.399 . S
C350 C355 1.399 . S
C351 C350 1.399 . S
C351 C352 1.376 . S
C352 H339 0.930 . S
C352 C351 1.376 . S
C352 C353 1.388 . S
C353 H340 0.930 . S
C353 C352 1.388 . S
C353 C354 1.390 . S
C354 C353 1.390 . S
C354 C355 1.394 . S
C354 C360 1.465 . S
C355 C350 1.399 . S
C355 C354 1.394 . S
C355 C356 1.516 . S
C356 C355 1.516 . S
C356 C357 1.502 . S
C356 C358 1.561 . S
C356 C359 1.526 . S
C357 H341 0.959 . S
C357 H342 0.959 . S
C357 H343 0.961 . S
C357 C356 1.502 . S
C358 H344 0.960 . S
C358 H345 0.961 . S
C358 H346 0.959 . S
C358 C356 1.561 . S
C359 C356 1.526 . S
C359 C360 1.396 . S
C359 C364 1.390 . S
C360 C354 1.465 . S
C360 C359 1.396 . S
C360 C361 1.399 . S
C361 H347 0.929 . S
C361 C360 1.399 . S
C361 C362 1.385 . S
C362 H348 0.931 . S
C362 C361 1.385 . S
C362 C363 1.389 . S
C363 C362 1.389 . S
C363 C364 1.387 . S
C364 H349 0.930 . S
C364 C359 1.390 . S
C364 C363 1.387 . S
H365 C377 0.930 . S
H366 C379 0.930 . S
H367 C380 0.930 . S
H368 C384 0.959 . S
H369 C384 0.959 . S
H370 C384 0.961 . S
H371 C385 0.960 . S
H372 C385 0.961 . S
H373 C385 0.959 . S
H374 C388 0.929 . S
H375 C389 0.931 . S
H376 C391 0.930 . S
C377 H365 0.930 . S
C377 C378 1.399 . S
C377 C382 1.399 . S
C378 C377 1.399 . S
C378 C379 1.376 . S
C379 H366 0.930 . S
C379 C378 1.376 . S
C379 C380 1.388 . S
C380 H367 0.930 . S
C380 C379 1.388 . S
C380 C381 1.390 . S
C381 C380 1.390 . S
C381 C382 1.394 . S
C381 C387 1.465 . S
C382 C377 1.399 . S
C382 C381 1.394 . S
C382 C383 1.516 . S
C383 C382 1.516 . S
C383 C384 1.502 . S
C383 C385 1.561 . S
C383 C386 1.526 . S
C384 H368 0.959 . S
C384 H369 0.959 . S
C384 H370 0.961 . S
C384 C383 1.502 . S
C385 H371 0.960 . S
C385 H372 0.961 . S
C385 H373 0.959 . S
C385 C383 1.561 . S
C386 C383 1.526 . S
C386 C387 1.396 . S
C386 C391 1.390 . S
C387 C381 1.465 . S
C387 C386 1.396 . S
C387 C388 1.399 . S
C388 H374 0.929 . S
C388 C387 1.399 . S
C388 C389 1.385 . S
C389 H375 0.931 . S
C389 C388 1.385 . S
C389 C390 1.389 . S
C390 C389 1.389 . S
C390 C391 1.387 . S
C391 H376 0.930 . S
C391 C386 1.390 . S
C391 C390 1.387 . S
H392 C404 0.930 . S
H393 C406 0.930 . S
H394 C407 0.930 . S
H395 C411 0.959 . S
H396 C411 0.959 . S
H397 C411 0.961 . S
H398 C412 0.960 . S
H399 C412 0.961 . S
H400 C412 0.959 . S
H401 C415 0.929 . S
H402 C416 0.931 . S
H403 C418 0.930 . S
C404 H392 0.930 . S
C404 C405 1.399 . S
C404 C409 1.399 . S
C405 C404 1.399 . S
C405 C406 1.376 . S
C406 H393 0.930 . S
C406 C405 1.376 . S
C406 C407 1.388 . S
C407 H394 0.930 . S
C407 C406 1.388 . S
C407 C408 1.390 . S
C408 C407 1.390 . S
C408 C409 1.394 . S
C408 C414 1.465 . S
C409 C404 1.399 . S
C409 C408 1.394 . S
C409 C410 1.516 . S
C410 C409 1.516 . S
C410 C411 1.502 . S
C410 C412 1.561 . S
C410 C413 1.526 . S
C411 H395 0.959 . S
C411 H396 0.959 . S
C411 H397 0.961 . S
C411 C410 1.502 . S
C412 H398 0.960 . S
C412 H399 0.961 . S
C412 H400 0.959 . S
C412 C410 1.561 . S
C413 C410 1.526 . S
C413 C414 1.396 . S
C413 C418 1.390 . S
C414 C408 1.465 . S
C414 C413 1.396 . S
C414 C415 1.399 . S
C415 H401 0.929 . S
C415 C414 1.399 . S
C415 C416 1.385 . S
C416 H402 0.931 . S
C416 C415 1.385 . S
C416 C417 1.389 . S
C417 C416 1.389 . S
C417 C418 1.387 . S
C418 H403 0.930 . S
C418 C413 1.390 . S
C418 C417 1.387 . S
H419 C431 0.930 . S
H420 C433 0.930 . S
H421 C434 0.930 . S
H422 C438 0.959 . S
H423 C438 0.959 . S
H424 C438 0.961 . S
H425 C439 0.960 . S
H426 C439 0.961 . S
H427 C439 0.959 . S
H428 C442 0.929 . S
H429 C443 0.931 . S
H430 C445 0.930 . S
C431 H419 0.930 . S
C431 C432 1.399 . S
C431 C436 1.399 . S
C432 C431 1.399 . S
C432 C433 1.376 . S
C433 H420 0.930 . S
C433 C432 1.376 . S
C433 C434 1.388 . S
C434 H421 0.930 . S
C434 C433 1.388 . S
C434 C435 1.390 . S
C435 C434 1.390 . S
C435 C436 1.394 . S
C435 C441 1.465 . S
C436 C431 1.399 . S
C436 C435 1.394 . S
C436 C437 1.516 . S
C437 C436 1.516 . S
C437 C438 1.502 . S
C437 C439 1.561 . S
C437 C440 1.526 . S
C438 H422 0.959 . S
C438 H423 0.959 . S
C438 H424 0.961 . S
C438 C437 1.502 . S
C439 H425 0.960 . S
C439 H426 0.961 . S
C439 H427 0.959 . S
C439 C437 1.561 . S
C440 C437 1.526 . S
C440 C441 1.396 . S
C440 C445 1.390 . S
C441 C435 1.465 . S
C441 C440 1.396 . S
C441 C442 1.399 . S
C442 H428 0.929 . S
C442 C441 1.399 . S
C442 C443 1.385 . S
C443 H429 0.931 . S
C443 C442 1.385 . S
C443 C444 1.389 . S
C444 C443 1.389 . S
C444 C445 1.387 . S
C445 H430 0.930 . S
C445 C440 1.390 . S
C445 C444 1.387 . S
H446 C458 0.930 . S
H447 C460 0.930 . S
H448 C461 0.930 . S
H449 C465 0.959 . S
H450 C465 0.959 . S
H451 C465 0.961 . S
H452 C466 0.960 . S
H453 C466 0.961 . S
H454 C466 0.959 . S
H455 C469 0.929 . S
H456 C470 0.931 . S
H457 C472 0.930 . S
C458 H446 0.930 . S
C458 C459 1.399 . S
C458 C463 1.399 . S
C459 C458 1.399 . S
C459 C460 1.376 . S
C460 H447 0.930 . S
C460 C459 1.376 . S
C460 C461 1.388 . S
C461 H448 0.930 . S
C461 C460 1.388 . S
C461 C462 1.390 . S
C462 C461 1.390 . S
C462 C463 1.394 . S
C462 C468 1.465 . S
C463 C458 1.399 . S
C463 C462 1.394 . S
C463 C464 1.516 . S
C464 C463 1.516 . S
C464 C465 1.502 . S
C464 C466 1.561 . S
C464 C467 1.526 . S
C465 H449 0.959 . S
C465 H450 0.959 . S
C465 H451 0.961 . S
C465 C464 1.502 . S
C466 H452 0.960 . S
C466 H453 0.961 . S
C466 H454 0.959 . S
C466 C464 1.561 . S
C467 C464 1.526 . S
C467 C468 1.396 . S
C467 C472 1.390 . S
C468 C462 1.465 . S
C468 C467 1.396 . S
C468 C469 1.399 . S
C469 H455 0.929 . S
C469 C468 1.399 . S
C469 C470 1.385 . S
C470 H456 0.931 . S
C470 C469 1.385 . S
C470 C471 1.389 . S
C471 C470 1.389 . S
C471 C472 1.387 . S
C472 H457 0.930 . S
C472 C467 1.390 . S
C472 C471 1.387 . S
H473 C485 0.930 . S
H474 C487 0.930 . S
H475 C488 0.930 . S
H476 C492 0.959 . S
H477 C492 0.959 . S
H478 C492 0.961 . S
H479 C493 0.960 . S
H480 C493 0.961 . S
H481 C493 0.959 . S
H482 C496 0.929 . S
H483 C497 0.931 . S
H484 C499 0.930 . S
C485 H473 0.930 . S
C485 C486 1.399 . S
C485 C490 1.399 . S
C486 C485 1.399 . S
C486 C487 1.376 . S
C487 H474 0.930 . S
C487 C486 1.376 . S
C487 C488 1.388 . S
C488 H475 0.930 . S
C488 C487 1.388 . S
C488 C489 1.390 . S
C489 C488 1.390 . S
C489 C490 1.394 . S
C489 C495 1.465 . S
C490 C485 1.399 . S
C490 C489 1.394 . S
C490 C491 1.516 . S
C491 C490 1.516 . S
C491 C492 1.502 . S
C491 C493 1.561 . S
C491 C494 1.526 . S
C492 H476 0.959 . S
C492 H477 0.959 . S
C492 H478 0.961 . S
C492 C491 1.502 . S
C493 H479 0.960 . S
C493 H480 0.961 . S
C493 H481 0.959 . S
C493 C491 1.561 . S
C494 C491 1.526 . S
C494 C495 1.396 . S
C494 C499 1.390 . S
C495 C489 1.465 . S
C495 C494 1.396 . S
C495 C496 1.399 . S
C496 H482 0.929 . S
C496 C495 1.399 . S
C496 C497 1.385 . S
C497 H483 0.931 . S
C497 C496 1.385 . S
C497 C498 1.389 . S
C498 C497 1.389 . S
C498 C499 1.387 . S
C499 H484 0.930 . S
C499 C494 1.390 . S
C499 C498 1.387 . S
H500 C512 0.930 . S
H501 C514 0.930 . S
H502 C515 0.930 . S
H503 C519 0.959 . S
H504 C519 0.959 . S
H505 C519 0.961 . S
H506 C520 0.960 . S
H507 C520 0.961 . S
H508 C520 0.959 . S
H509 C523 0.929 . S
H510 C524 0.931 . S
H511 C526 0.930 . S
C512 H500 0.930 . S
C512 C513 1.399 . S
C512 C517 1.399 . S
C513 C512 1.399 . S
C513 C514 1.376 . S
C514 H501 0.930 . S
C514 C513 1.376 . S
C514 C515 1.388 . S
C515 H502 0.930 . S
C515 C514 1.388 . S
C515 C516 1.390 . S
C516 C515 1.390 . S
C516 C517 1.394 . S
C516 C522 1.465 . S
C517 C512 1.399 . S
C517 C516 1.394 . S
C517 C518 1.516 . S
C518 C517 1.516 . S
C518 C519 1.502 . S
C518 C520 1.561 . S
C518 C521 1.526 . S
C519 H503 0.959 . S
C519 H504 0.959 . S
C519 H505 0.961 . S
C519 C518 1.502 . S
C520 H506 0.960 . S
C520 H507 0.961 . S
C520 H508 0.959 . S
C520 C518 1.561 . S
C521 C518 1.526 . S
C521 C522 1.396 . S
C521 C526 1.390 . S
C522 C516 1.465 . S
C522 C521 1.396 . S
C522 C523 1.399 . S
C523 H509 0.929 . S
C523 C522 1.399 . S
C523 C524 1.385 . S
C524 H510 0.931 . S
C524 C523 1.385 . S
C524 C525 1.389 . S
C525 C524 1.389 . S
C525 C526 1.387 . S
C526 H511 0.930 . S
C526 C521 1.390 . S
C526 C525 1.387 . S
H527 C539 0.930 . S
H528 C541 0.930 . S
H529 C542 0.930 . S
H530 C546 0.959 . S
H531 C546 0.959 . S
H532 C546 0.961 . S
H533 C547 0.960 . S
H534 C547 0.961 . S
H535 C547 0.959 . S
H536 C550 0.929 . S
H537 C551 0.931 . S
H538 C553 0.930 . S
C539 H527 0.930 . S
C539 C540 1.399 . S
C539 C544 1.399 . S
C540 C539 1.399 . S
C540 C541 1.376 . S
C541 H528 0.930 . S
C541 C540 1.376 . S
C541 C542 1.388 . S
C542 H529 0.930 . S
C542 C541 1.388 . S
C542 C543 1.390 . S
C543 C542 1.390 . S
C543 C544 1.394 . S
C543 C549 1.465 . S
C544 C539 1.399 . S
C544 C543 1.394 . S
C544 C545 1.516 . S
C545 C544 1.516 . S
C545 C546 1.502 . S
C545 C547 1.561 . S
C545 C548 1.526 . S
C546 H530 0.959 . S
C546 H531 0.959 . S
C546 H532 0.961 . S
C546 C545 1.502 . S
C547 H533 0.960 . S
C547 H534 0.961 . S
C547 H535 0.959 . S
C547 C545 1.561 . S
C548 C545 1.526 . S
C548 C549 1.396 . S
C548 C553 1.390 . S
C549 C543 1.465 . S
C549 C548 1.396 . S
C549 C550 1.399 . S
C550 H536 0.929 . S
C550 C549 1.399 . S
C550 C551 1.385 . S
C551 H537 0.931 . S
C551 C550 1.385 . S
C551 C552 1.389 . S
C552 C551 1.389 . S
C552 C553 1.387 . S
C553 H538 0.930 . S
C553 C548 1.390 . S
C553 C552 1.387 . S
H554 C566 0.930 . S
H555 C568 0.930 . S
H556 C569 0.930 . S
H557 C573 0.959 . S
H558 C573 0.959 . S
H559 C573 0.961 . S
H560 C574 0.960 . S
H561 C574 0.961 . S
H562 C574 0.959 . S
H563 C577 0.929 . S
H564 C578 0.931 . S
H565 C580 0.930 . S
C566 H554 0.930 . S
C566 C567 1.399 . S
C566 C571 1.399 . S
C567 C566 1.399 . S
C567 C568 1.376 . S
C568 H555 0.930 . S
C568 C567 1.376 . S
C568 C569 1.388 . S
C569 H556 0.930 . S
C569 C568 1.388 . S
C569 C570 1.390 . S
C570 C569 1.390 . S
C570 C571 1.394 . S
C570 C576 1.465 . S
C571 C566 1.399 . S
C571 C570 1.394 . S
C571 C572 1.516 . S
C572 C571 1.516 . S
C572 C573 1.502 . S
C572 C574 1.561 . S
C572 C575 1.526 . S
C573 H557 0.959 . S
C573 H558 0.959 . S
C573 H559 0.961 . S
C573 C572 1.502 . S
C574 H560 0.960 . S
C574 H561 0.961 . S
C574 H562 0.959 . S
C574 C572 1.561 . S
C575 C572 1.526 . S
C575 C576 1.396 . S
C575 C580 1.390 . S
C576 C570 1.465 . S
C576 C575 1.396 . S
C576 C577 1.399 . S
C577 H563 0.929 . S
C577 C576 1.399 . S
C577 C578 1.385 . S
C578 H564 0.931 . S
C578 C577 1.385 . S
C578 C579 1.389 . S
C579 C578 1.389 . S
C579 C580 1.387 . S
C580 H565 0.930 . S
C580 C575 1.390 . S
C580 C579 1.387 . S
H581 C593 0.930 . S
H582 C595 0.930 . S
H583 C596 0.930 . S
H584 C600 0.959 . S
H585 C600 0.959 . S
H586 C600 0.961 . S
H587 C601 0.960 . S
H588 C601 0.961 . S
H589 C601 0.959 . S
H590 C604 0.929 . S
H591 C605 0.931 . S
H592 C607 0.930 . S
C593 H581 0.930 . S
C593 C594 1.399 . S
C593 C598 1.399 . S
C594 C593 1.399 . S
C594 C595 1.376 . S
C595 H582 0.930 . S
C595 C594 1.376 . S
C595 C596 1.388 . S
C596 H583 0.930 . S
C596 C595 1.388 . S
C596 C597 1.390 . S
C597 C596 1.390 . S
C597 C598 1.394 . S
C597 C603 1.465 . S
C598 C593 1.399 . S
C598 C597 1.394 . S
C598 C599 1.516 . S
C599 C598 1.516 . S
C599 C600 1.502 . S
C599 C601 1.561 . S
C599 C602 1.526 . S
C600 H584 0.959 . S
C600 H585 0.959 . S
C600 H586 0.961 . S
C600 C599 1.502 . S
C601 H587 0.960 . S
C601 H588 0.961 . S
C601 H589 0.959 . S
C601 C599 1.561 . S
C602 C599 1.526 . S
C602 C603 1.396 . S
C602 C607 1.390 . S
C603 C597 1.465 . S
C603 C602 1.396 . S
C603 C604 1.399 . S
C604 H590 0.929 . S
C604 C603 1.399 . S
C604 C605 1.385 . S
C605 H591 0.931 . S
C605 C604 1.385 . S
C605 C606 1.389 . S
C606 C605 1.389 . S
C606 C607 1.387 . S
C607 H592 0.930 . S
C607 C602 1.390 . S
C607 C606 1.387 . S
H608 C620 0.930 . S
H609 C622 0.930 . S
H610 C623 0.930 . S
H611 C627 0.959 . S
H612 C627 0.959 . S
H613 C627 0.961 . S
H614 C628 0.960 . S
H615 C628 0.961 . S
H616 C628 0.959 . S
H617 C631 0.929 . S
H618 C632 0.931 . S
H619 C634 0.930 . S
C620 H608 0.930 . S
C620 C621 1.399 1_556 S
C620 C625 1.399 . S
C621 C620 1.399 1_554 S
C621 C622 1.376 . S
C622 H609 0.930 . S
C622 C621 1.376 . S
C622 C623 1.388 . S
C623 H610 0.930 . S
C623 C622 1.388 . S
C623 C624 1.390 . S
C624 C623 1.390 . S
C624 C625 1.394 1_554 S
C624 C630 1.465 . S
C625 C620 1.399 . S
C625 C624 1.394 1_556 S
C625 C626 1.516 . S
C626 C625 1.516 . S
C626 C627 1.502 . S
C626 C628 1.561 . S
C626 C629 1.526 . S
C627 H611 0.959 . S
C627 H612 0.959 . S
C627 H613 0.961 . S
C627 C626 1.502 . S
C628 H614 0.960 . S
C628 H615 0.961 . S
C628 H616 0.959 . S
C628 C626 1.561 . S
C629 C626 1.526 . S
C629 C630 1.396 1_556 S
C629 C634 1.390 . S
C630 C624 1.465 . S
C630 C629 1.396 1_554 S
C630 C631 1.399 . S
C631 H617 0.929 . S
C631 C630 1.399 . S
C631 C632 1.385 . S
C632 H618 0.931 . S
C632 C631 1.385 . S
C632 C633 1.389 . S
C633 C632 1.389 . S
C633 C634 1.387 1_554 S
C634 H619 0.930 . S
C634 C629 1.390 . S
C634 C633 1.387 1_556 S
H635 C647 0.930 . S
H636 C649 0.930 . S
H637 C650 0.930 . S
H638 C654 0.959 . S
H639 C654 0.959 . S
H640 C654 0.961 . S
H641 C655 0.960 . S
H642 C655 0.961 . S
H643 C655 0.959 . S
H644 C658 0.929 . S
H645 C659 0.931 . S
H646 C661 0.930 . S
C647 H635 0.930 . S
C647 C648 1.399 . S
C647 C652 1.399 . S
C648 C647 1.399 . S
C648 C649 1.376 . S
C649 H636 0.930 . S
C649 C648 1.376 . S
C649 C650 1.388 . S
C650 H637 0.930 . S
C650 C649 1.388 . S
C650 C651 1.390 . S
C651 C650 1.390 . S
C651 C652 1.394 . S
C651 C657 1.465 . S
C652 C647 1.399 . S
C652 C651 1.394 . S
C652 C653 1.516 . S
C653 C652 1.516 . S
C653 C654 1.502 . S
C653 C655 1.561 . S
C653 C656 1.526 . S
C654 H638 0.959 . S
C654 H639 0.959 . S
C654 H640 0.961 . S
C654 C653 1.502 . S
C655 H641 0.960 . S
C655 H642 0.961 . S
C655 H643 0.959 . S
C655 C653 1.561 . S
C656 C653 1.526 . S
C656 C657 1.396 . S
C656 C661 1.390 . S
C657 C651 1.465 . S
C657 C656 1.396 . S
C657 C658 1.399 . S
C658 H644 0.929 . S
C658 C657 1.399 . S
C658 C659 1.385 . S
C659 H645 0.931 . S
C659 C658 1.385 . S
C659 C660 1.389 . S
C660 C659 1.389 . S
C660 C661 1.387 . S
C661 H646 0.930 . S
C661 C656 1.390 . S
C661 C660 1.387 . S
H662 C674 0.930 . S
H663 C676 0.930 . S
H664 C677 0.930 . S
H665 C681 0.959 . S
H666 C681 0.959 . S
H667 C681 0.961 . S
H668 C682 0.960 . S
H669 C682 0.961 . S
H670 C682 0.959 . S
H671 C685 0.929 . S
H672 C686 0.931 . S
H673 C688 0.930 . S
C674 H662 0.930 . S
C674 C675 1.399 . S
C674 C679 1.399 . S
C675 C674 1.399 . S
C675 C676 1.376 1_554 S
C676 H663 0.930 . S
C676 C675 1.376 1_556 S
C676 C677 1.388 . S
C677 H664 0.930 . S
C677 C676 1.388 . S
C677 C678 1.390 . S
C678 C677 1.390 . S
C678 C679 1.394 1_556 S
C678 C684 1.465 . S
C679 C674 1.399 . S
C679 C678 1.394 1_554 S
C679 C680 1.516 . S
C680 C679 1.516 . S
C680 C681 1.502 . S
C680 C682 1.561 . S
C680 C683 1.526 . S
C681 H665 0.959 . S
C681 H666 0.959 . S
C681 H667 0.961 . S
C681 C680 1.502 . S
C682 H668 0.960 . S
C682 H669 0.961 . S
C682 H670 0.959 . S
C682 C680 1.561 . S
C683 C680 1.526 . S
C683 C684 1.396 1_554 S
C683 C688 1.390 . S
C684 C678 1.465 . S
C684 C683 1.396 1_556 S
C684 C685 1.399 . S
C685 H671 0.929 . S
C685 C684 1.399 . S
C685 C686 1.385 . S
C686 H672 0.931 . S
C686 C685 1.385 . S
C686 C687 1.389 1_556 S
C687 C686 1.389 1_554 S
C687 C688 1.387 . S
C688 H673 0.930 . S
C688 C683 1.390 . S
C688 C687 1.387 . S
H689 C701 0.930 . S
H690 C703 0.930 . S
H691 C704 0.930 . S
H692 C708 0.959 . S
H693 C708 0.959 . S
H694 C708 0.961 . S
H695 C709 0.960 . S
H696 C709 0.961 . S
H697 C709 0.959 . S
H698 C712 0.929 . S
H699 C713 0.931 . S
H700 C715 0.930 . S
C701 H689 0.930 . S
C701 C702 1.399 . S
C701 C706 1.399 . S
C702 C701 1.399 . S
C702 C703 1.376 . S
C703 H690 0.930 . S
C703 C702 1.376 . S
C703 C704 1.388 . S
C704 H691 0.930 . S
C704 C703 1.388 . S
C704 C705 1.390 . S
C705 C704 1.390 . S
C705 C706 1.394 . S
C705 C711 1.465 . S
C706 C701 1.399 . S
C706 C705 1.394 . S
C706 C707 1.516 . S
C707 C706 1.516 . S
C707 C708 1.502 . S
C707 C709 1.561 . S
C707 C710 1.526 . S
C708 H692 0.959 . S
C708 H693 0.959 . S
C708 H694 0.961 . S
C708 C707 1.502 . S
C709 H695 0.960 . S
C709 H696 0.961 . S
C709 H697 0.959 . S
C709 C707 1.561 . S
C710 C707 1.526 . S
C710 C711 1.396 . S
C710 C715 1.390 . S
C711 C705 1.465 . S
C711 C710 1.396 . S
C711 C712 1.399 . S
C712 H698 0.929 . S
C712 C711 1.399 . S
C712 C713 1.385 . S
C713 H699 0.931 . S
C713 C712 1.385 . S
C713 C714 1.389 . S
C714 C713 1.389 . S
C714 C715 1.387 . S
C715 H700 0.930 . S
C715 C710 1.390 . S
C715 C714 1.387 . S
H716 C728 0.930 . S
H717 C730 0.930 . S
H718 C731 0.930 . S
H719 C735 0.959 . S
H720 C735 0.959 . S
H721 C735 0.961 . S
H722 C736 0.960 . S
H723 C736 0.961 . S
H724 C736 0.959 . S
H725 C739 0.929 . S
H726 C740 0.931 . S
H727 C742 0.930 . S
C728 H716 0.930 . S
C728 C729 1.399 . S
C728 C733 1.399 . S
C729 C728 1.399 . S
C729 C730 1.376 . S
C730 H717 0.930 . S
C730 C729 1.376 . S
C730 C731 1.388 . S
C731 H718 0.930 . S
C731 C730 1.388 . S
C731 C732 1.390 . S
C732 C731 1.390 . S
C732 C733 1.394 . S
C732 C738 1.465 . S
C733 C728 1.399 . S
C733 C732 1.394 . S
C733 C734 1.516 . S
C734 C733 1.516 . S
C734 C735 1.502 . S
C734 C736 1.561 . S
C734 C737 1.526 . S
C735 H719 0.959 . S
C735 H720 0.959 . S
C735 H721 0.961 . S
C735 C734 1.502 . S
C736 H722 0.960 . S
C736 H723 0.961 . S
C736 H724 0.959 . S
C736 C734 1.561 . S
C737 C734 1.526 . S
C737 C738 1.396 . S
C737 C742 1.390 . S
C738 C732 1.465 . S
C738 C737 1.396 . S
C738 C739 1.399 . S
C739 H725 0.929 . S
C739 C738 1.399 . S
C739 C740 1.385 . S
C740 H726 0.931 . S
C740 C739 1.385 . S
C740 C741 1.389 . S
C741 C740 1.389 . S
C741 C742 1.387 . S
C742 H727 0.930 . S
C742 C737 1.390 . S
C742 C741 1.387 . S
H743 C755 0.930 1_556 S
H744 C757 0.930 . S
H745 C758 0.930 . S
H746 C762 0.959 . S
H747 C762 0.959 . S
H748 C762 0.961 . S
H749 C763 0.960 . S
H750 C763 0.961 . S
H751 C763 0.959 . S
H752 C766 0.929 . S
H753 C767 0.931 . S
H754 C769 0.930 1_556 S
C755 H743 0.930 1_554 S
C755 C756 1.399 . S
C755 C760 1.399 . S
C756 C755 1.399 . S
C756 C757 1.376 . S
C757 H744 0.930 . S
C757 C756 1.376 . S
C757 C758 1.388 . S
C758 H745 0.930 . S
C758 C757 1.388 . S
C758 C759 1.390 . S
C759 C758 1.390 . S
C759 C760 1.394 . S
C759 C765 1.465 . S
C760 C755 1.399 . S
C760 C759 1.394 . S
C760 C761 1.516 1_554 S
C761 C760 1.516 1_556 S
C761 C762 1.502 . S
C761 C763 1.561 1_556 S
C761 C764 1.526 1_556 S
C762 H746 0.959 . S
C762 H747 0.959 . S
C762 H748 0.961 . S
C762 C761 1.502 . S
C763 H749 0.960 . S
C763 H750 0.961 . S
C763 H751 0.959 . S
C763 C761 1.561 1_554 S
C764 C761 1.526 1_554 S
C764 C765 1.396 . S
C764 C769 1.390 . S
C765 C759 1.465 . S
C765 C764 1.396 . S
C765 C766 1.399 . S
C766 H752 0.929 . S
C766 C765 1.399 . S
C766 C767 1.385 . S
C767 H753 0.931 . S
C767 C766 1.385 . S
C767 C768 1.389 . S
C768 C767 1.389 . S
C768 C769 1.387 . S
C769 H754 0.930 1_554 S
C769 C764 1.390 . S
C769 C768 1.387 . S
H770 C782 0.930 . S
H771 C784 0.930 . S
H772 C785 0.930 . S
H773 C789 0.959 . S
H774 C789 0.959 . S
H775 C789 0.961 . S
H776 C790 0.960 . S
H777 C790 0.961 . S
H778 C790 0.959 . S
H779 C793 0.929 . S
H780 C794 0.931 . S
H781 C796 0.930 . S
C782 H770 0.930 . S
C782 C783 1.399 . S
C782 C787 1.399 . S
C783 C782 1.399 . S
C783 C784 1.376 . S
C784 H771 0.930 . S
C784 C783 1.376 . S
C784 C785 1.388 . S
C785 H772 0.930 . S
C785 C784 1.388 . S
C785 C786 1.390 . S
C786 C785 1.390 . S
C786 C787 1.394 . S
C786 C792 1.465 . S
C787 C782 1.399 . S
C787 C786 1.394 . S
C787 C788 1.516 . S
C788 C787 1.516 . S
C788 C789 1.502 . S
C788 C790 1.561 . S
C788 C791 1.526 . S
C789 H773 0.959 . S
C789 H774 0.959 . S
C789 H775 0.961 . S
C789 C788 1.502 . S
C790 H776 0.960 . S
C790 H777 0.961 . S
C790 H778 0.959 . S
C790 C788 1.561 . S
C791 C788 1.526 . S
C791 C792 1.396 . S
C791 C796 1.390 . S
C792 C786 1.465 . S
C792 C791 1.396 . S
C792 C793 1.399 . S
C793 H779 0.929 . S
C793 C792 1.399 . S
C793 C794 1.385 . S
C794 H780 0.931 . S
C794 C793 1.385 . S
C794 C795 1.389 . S
C795 C794 1.389 . S
C795 C796 1.387 . S
C796 H781 0.930 . S
C796 C791 1.390 . S
C796 C795 1.387 . S
H797 C809 0.930 . S
H798 C811 0.930 . S
H799 C812 0.930 . S
H800 C816 0.959 . S
H801 C816 0.959 . S
H802 C816 0.961 . S
H803 C817 0.960 . S
H804 C817 0.961 . S
H805 C817 0.959 . S
H806 C820 0.929 . S
H807 C821 0.931 . S
H808 C823 0.930 . S
C809 H797 0.930 . S
C809 C810 1.399 . S
C809 C814 1.399 . S
C810 C809 1.399 . S
C810 C811 1.376 1_554 S
C811 H798 0.930 . S
C811 C810 1.376 1_556 S
C811 C812 1.388 . S
C812 H799 0.930 . S
C812 C811 1.388 . S
C812 C813 1.390 . S
C813 C812 1.390 . S
C813 C814 1.394 1_556 S
C813 C819 1.465 . S
C814 C809 1.399 . S
C814 C813 1.394 1_554 S
C814 C815 1.516 . S
C815 C814 1.516 . S
C815 C816 1.502 . S
C815 C817 1.561 1_554 S
C815 C818 1.526 . S
C816 H800 0.959 . S
C816 H801 0.959 . S
C816 H802 0.961 . S
C816 C815 1.502 . S
C817 H803 0.960 . S
C817 H804 0.961 . S
C817 H805 0.959 . S
C817 C815 1.561 1_556 S
C818 C815 1.526 . S
C818 C819 1.396 1_554 S
C818 C823 1.390 . S
C819 C813 1.465 . S
C819 C818 1.396 1_556 S
C819 C820 1.399 . S
C820 H806 0.929 . S
C820 C819 1.399 . S
C820 C821 1.385 . S
C821 H807 0.931 . S
C821 C820 1.385 . S
C821 C822 1.389 1_556 S
C822 C821 1.389 1_554 S
C822 C823 1.387 . S
C823 H808 0.930 . S
C823 C818 1.390 . S
C823 C822 1.387 . S
C189 C5 1.461 . S
C201 C126 1.310 . S
C216 C31 1.529 . S
C228 C95 1.466 . S
C255 C106 1.404 . S
C243 C53 1.472 . S
C270 C71 1.368 . S
C282 C115 1.246 . S
C309 C150 1.508 . S
C297 C75 1.504 . S
C336 C159 1.340 . S
C324 C9 1.420 . S
C363 C170 1.201 . S
C351 C27 1.387 . S
C390 C139 1.416 . S
C378 C49 1.446 . S
C405 C51 1.459 . S
C417 C104 1.280 . S
C432 C72 1.505 . S
C444 C117 1.512 . S
C459 C6 1.444 . S
C471 C128 1.491 . S
C498 C93 1.174 . S
C486 C29 1.402 . S
C513 C28 1.485 . S
C525 C172 1.530 . S
C552 C137 1.182 . S
C540 C50 1.443 . S
C579 C148 1.192 . S
C567 C73 1.392 . S
C594 C7 1.486 . S
C606 C161 1.459 . S
C633 C96 1.509 . S
C621 C4 1.519 . S
C660 C107 1.469 . S
C648 C30 1.486 . S
C675 C52 1.486 . S
C687 C118 1.518 . S
C702 C70 1.488 . S
C714 C129 1.521 . S
C741 C140 1.506 . S
C729 C74 1.518 . S
C756 C8 1.517 . S
C768 C151 1.514 . S
C783 C26 1.519 . S
C795 C162 1.516 . S
C810 C48 1.489 . S
C822 C173 1.520 . S
