# Generated by pormake.
# Topology ocu, (6,8)-cn, num edge types: 1
# Building blocks:
#     Node 0, Type 0, BuildingBlock: CUWYAW_clean_sbu_0, # of connection points: 6
#     Node 1, Type 0, BuildingBlock: CUWYAW_clean_sbu_0, # of connection points: 6
#     Node 2, Type 0, BuildingBlock: CUWYAW_clean_sbu_0, # of connection points: 6
#     Node 3, Type 0, BuildingBlock: CUWYAW_clean_sbu_0, # of connection points: 6
#     Node 4, Type 0, BuildingBlock: CUWYAW_clean_sbu_0, # of connection points: 6
#     Node 5, Type 0, BuildingBlock: CUWYAW_clean_sbu_0, # of connection points: 6
#     Node 6, Type 0, BuildingBlock: CUWYAW_clean_sbu_0, # of connection points: 6
#     Node 7, Type 0, BuildingBlock: CUWYAW_clean_sbu_0, # of connection points: 6
#     Node 8, Type 1, BuildingBlock: VETTIZ_charged_sbu_0, # of connection points: 8
#     Node 9, Type 1, BuildingBlock: VETTIZ_charged_sbu_0, # of connection points: 8
#     Node 10, Type 1, BuildingBlock: VETTIZ_charged_sbu_0, # of connection points: 8
#     Node 11, Type 1, BuildingBlock: VETTIZ_charged_sbu_0, # of connection points: 8
#     Node 12, Type 1, BuildingBlock: VETTIZ_charged_sbu_0, # of connection points: 8
#     Node 13, Type 1, BuildingBlock: VETTIZ_charged_sbu_0, # of connection points: 8
#     Edge 14, Type (0, 1), BuildingBlock: ZUJKAS_clean_linker_0, # of connection points: 2
#     Edge 15, Type (0, 1), BuildingBlock: ZUJKAS_clean_linker_0, # of connection points: 2
#     Edge 16, Type (0, 1), BuildingBlock: ZUJKAS_clean_linker_0, # of connection points: 2
#     Edge 17, Type (0, 1), BuildingBlock: ZUJKAS_clean_linker_0, # of connection points: 2
#     Edge 18, Type (0, 1), BuildingBlock: ZUJKAS_clean_linker_0, # of connection points: 2
#     Edge 19, Type (0, 1), BuildingBlock: ZUJKAS_clean_linker_0, # of connection points: 2
#     Edge 20, Type (0, 1), BuildingBlock: ZUJKAS_clean_linker_0, # of connection points: 2
#     Edge 21, Type (0, 1), BuildingBlock: ZUJKAS_clean_linker_0, # of connection points: 2
#     Edge 22, Type (0, 1), BuildingBlock: ZUJKAS_clean_linker_0, # of connection points: 2
#     Edge 23, Type (0, 1), BuildingBlock: ZUJKAS_clean_linker_0, # of connection points: 2
#     Edge 24, Type (0, 1), BuildingBlock: ZUJKAS_clean_linker_0, # of connection points: 2
#     Edge 25, Type (0, 1), BuildingBlock: ZUJKAS_clean_linker_0, # of connection points: 2
#     Edge 26, Type (0, 1), BuildingBlock: ZUJKAS_clean_linker_0, # of connection points: 2
#     Edge 27, Type (0, 1), BuildingBlock: ZUJKAS_clean_linker_0, # of connection points: 2
#     Edge 28, Type (0, 1), BuildingBlock: ZUJKAS_clean_linker_0, # of connection points: 2
#     Edge 29, Type (0, 1), BuildingBlock: ZUJKAS_clean_linker_0, # of connection points: 2
#     Edge 30, Type (0, 1), BuildingBlock: ZUJKAS_clean_linker_0, # of connection points: 2
#     Edge 31, Type (0, 1), BuildingBlock: ZUJKAS_clean_linker_0, # of connection points: 2
#     Edge 32, Type (0, 1), BuildingBlock: ZUJKAS_clean_linker_0, # of connection points: 2
#     Edge 33, Type (0, 1), BuildingBlock: ZUJKAS_clean_linker_0, # of connection points: 2
#     Edge 34, Type (0, 1), BuildingBlock: ZUJKAS_clean_linker_0, # of connection points: 2
#     Edge 35, Type (0, 1), BuildingBlock: ZUJKAS_clean_linker_0, # of connection points: 2
#     Edge 36, Type (0, 1), BuildingBlock: ZUJKAS_clean_linker_0, # of connection points: 2
#     Edge 37, Type (0, 1), BuildingBlock: ZUJKAS_clean_linker_0, # of connection points: 2
#     Edge 38, Type (0, 1), BuildingBlock: ZUJKAS_clean_linker_0, # of connection points: 2
#     Edge 39, Type (0, 1), BuildingBlock: ZUJKAS_clean_linker_0, # of connection points: 2
#     Edge 40, Type (0, 1), BuildingBlock: ZUJKAS_clean_linker_0, # of connection points: 2
#     Edge 41, Type (0, 1), BuildingBlock: ZUJKAS_clean_linker_0, # of connection points: 2
#     Edge 42, Type (0, 1), BuildingBlock: ZUJKAS_clean_linker_0, # of connection points: 2
#     Edge 43, Type (0, 1), BuildingBlock: ZUJKAS_clean_linker_0, # of connection points: 2
#     Edge 44, Type (0, 1), BuildingBlock: ZUJKAS_clean_linker_0, # of connection points: 2
#     Edge 45, Type (0, 1), BuildingBlock: ZUJKAS_clean_linker_0, # of connection points: 2
#     Edge 46, Type (0, 1), BuildingBlock: ZUJKAS_clean_linker_0, # of connection points: 2
#     Edge 47, Type (0, 1), BuildingBlock: ZUJKAS_clean_linker_0, # of connection points: 2
#     Edge 48, Type (0, 1), BuildingBlock: ZUJKAS_clean_linker_0, # of connection points: 2
#     Edge 49, Type (0, 1), BuildingBlock: ZUJKAS_clean_linker_0, # of connection points: 2
#     Edge 50, Type (0, 1), BuildingBlock: ZUJKAS_clean_linker_0, # of connection points: 2
#     Edge 51, Type (0, 1), BuildingBlock: ZUJKAS_clean_linker_0, # of connection points: 2
#     Edge 52, Type (0, 1), BuildingBlock: ZUJKAS_clean_linker_0, # of connection points: 2
#     Edge 53, Type (0, 1), BuildingBlock: ZUJKAS_clean_linker_0, # of connection points: 2
#     Edge 54, Type (0, 1), BuildingBlock: ZUJKAS_clean_linker_0, # of connection points: 2
#     Edge 55, Type (0, 1), BuildingBlock: ZUJKAS_clean_linker_0, # of connection points: 2
#     Edge 56, Type (0, 1), BuildingBlock: ZUJKAS_clean_linker_0, # of connection points: 2
#     Edge 57, Type (0, 1), BuildingBlock: ZUJKAS_clean_linker_0, # of connection points: 2
#     Edge 58, Type (0, 1), BuildingBlock: ZUJKAS_clean_linker_0, # of connection points: 2
#     Edge 59, Type (0, 1), BuildingBlock: ZUJKAS_clean_linker_0, # of connection points: 2
#     Edge 60, Type (0, 1), BuildingBlock: ZUJKAS_clean_linker_0, # of connection points: 2
#     Edge 61, Type (0, 1), BuildingBlock: ZUJKAS_clean_linker_0, # of connection points: 2
# Relax obj value: 0.114
# Max RMSD: 0.192
# Mean RMSD: 0.120
data_MOF--net-ocu--node1-CUWYAW_clean_sbu_0--node2-VETTIZ_charged_sbu_0--edge1-ZUJKAS_clean_linker_0
_symmetry_space_group_name_H-M    P1
_symmetry_Int_Tables_number       1
_symmetry_cell_setting            triclinic
loop_
_symmetry_equiv_pos_as_xyz
'x, y, z'
_cell_length_a     51.403706
_cell_length_b     51.030266
_cell_length_c     48.766499
_cell_angle_alpha  85.153878
_cell_angle_beta   99.211793
_cell_angle_gamma 98.435065
loop_
_atom_site_label
_atom_site_type_symbol
_atom_site_fract_x
_atom_site_fract_y
_atom_site_fract_z
_atom_type_partial_charge
C0 C 0.29703 0.33602 0.35449 0.0
Eu1 Eu 0.29222 0.30504 0.31338 0.0
C2 C 0.28442 0.33478 0.37958 0.0
C3 C 0.29599 0.3508 0.40141 0.0
C4 C 0.28289 0.35144 0.42428 0.0
C5 C 0.25787 0.33624 0.42553 0.0
C6 C 0.24702 0.31919 0.40414 0.0
C7 C 0.26025 0.3184 0.3814 0.0
C8 C 0.32103 0.31992 0.26968 0.0
C9 C 0.23997 0.31708 0.26813 0.0
C10 C 0.27214 0.23766 0.23457 0.0
Eu11 Eu 0.27551 0.27059 0.27336 0.0
C12 C 0.29244 0.22346 0.22698 0.0
C13 C 0.28547 0.19794 0.21727 0.0
C14 C 0.3052 0.18368 0.21208 0.0
C15 C 0.33211 0.19482 0.2166 0.0
C16 C 0.33895 0.22037 0.22642 0.0
C17 C 0.3193 0.23456 0.23157 0.0
C18 C 0.24525 0.25724 0.31573 0.0
C19 C 0.32624 0.25734 0.31911 0.0
O20 O 0.31263 0.3183 0.35373 0.0
O21 O 0.28138 0.339 0.331 0.0
O22 O 0.33079 0.31958 0.29578 0.0
O23 O 0.29629 0.31216 0.26763 0.0
O24 O 0.25218 0.3198 0.29404 0.0
O25 O 0.24723 0.29957 0.25356 0.0
O26 O 0.27591 0.26341 0.23005 0.0
O27 O 0.26535 0.23049 0.25898 0.0
O28 O 0.23606 0.25889 0.28939 0.0
O29 O 0.27031 0.26406 0.31892 0.0
O30 O 0.3157 0.25637 0.29259 0.0
O31 O 0.31706 0.27316 0.33412 0.0
H32 H 0.31481 0.36331 0.40044 0.0
H33 H 0.29204 0.36439 0.44065 0.0
H34 H 0.22771 0.3074 0.40423 0.0
H35 H 0.25116 0.3057 0.36476 0.0
H36 H 0.26484 0.18901 0.21395 0.0
H37 H 0.29941 0.1641 0.20425 0.0
H38 H 0.35955 0.22929 0.23043 0.0
H39 H 0.32515 0.25411 0.23946 0.0
C40 C 0.84571 0.30597 0.25368 0.0
Eu41 Eu 0.80412 0.29323 0.27778 0.0
C42 C 0.84812 0.30379 0.22446 0.0
C43 C 0.8255 0.30373 0.20406 0.0
C44 C 0.82736 0.30091 0.17629 0.0
C45 C 0.85183 0.29784 0.16853 0.0
C46 C 0.87419 0.29669 0.18919 0.0
C47 C 0.87233 0.29966 0.21702 0.0
C48 C 0.76221 0.25712 0.25667 0.0
C49 C 0.75313 0.32647 0.25822 0.0
C50 C 0.71812 0.26932 0.34275 0.0
Eu51 Eu 0.75604 0.28746 0.31476 0.0
C52 C 0.72221 0.26243 0.37285 0.0
C53 C 0.74651 0.27209 0.38872 0.0
C54 C 0.75422 0.26093 0.41529 0.0
C55 C 0.73772 0.23987 0.42652 0.0
C56 C 0.71247 0.23151 0.41151 0.0
C57 C 0.70483 0.24263 0.38472 0.0
C58 C 0.798 0.32441 0.33455 0.0
C59 C 0.80726 0.25485 0.33508 0.0
O60 O 0.83094 0.32358 0.25845 0.0
O61 O 0.84085 0.28309 0.26752 0.0
O62 O 0.78414 0.26309 0.24631 0.0
O63 O 0.76438 0.27023 0.27783 0.0
O64 O 0.77856 0.32467 0.25707 0.0
O65 O 0.73956 0.31201 0.27662 0.0
O66 O 0.7286 0.2541 0.32835 0.0
O67 O 0.72335 0.29466 0.33535 0.0
O68 O 0.77569 0.31982 0.34427 0.0
O69 O 0.79587 0.30993 0.31456 0.0
O70 O 0.78224 0.25725 0.33698 0.0
O71 O 0.82025 0.2688 0.31609 0.0
H72 H 0.80643 0.30619 0.20955 0.0
H73 H 0.80988 0.30193 0.16074 0.0
H74 H 0.89339 0.29481 0.18365 0.0
H75 H 0.88982 0.29908 0.23264 0.0
H76 H 0.7605 0.28698 0.37992 0.0
H77 H 0.77375 0.26768 0.42635 0.0
H78 H 0.6995 0.21495 0.41953 0.0
H79 H 0.68623 0.23458 0.37266 0.0
C80 C 0.78005 0.73765 0.34713 0.0
Eu81 Eu 0.77587 0.77389 0.30636 0.0
C82 C 0.7861 0.71036 0.34942 0.0
C83 C 0.78998 0.69688 0.3756 0.0
C84 C 0.79877 0.67206 0.37837 0.0
C85 C 0.80398 0.66049 0.35496 0.0
C86 C 0.79884 0.67358 0.32853 0.0
C87 C 0.78984 0.69832 0.32577 0.0
C88 C 0.73743 0.76588 0.26115 0.0
C89 C 0.81094 0.76023 0.25914 0.0
C90 C 0.78331 0.8503 0.22394 0.0
Eu91 Eu 0.78428 0.81268 0.26339 0.0
C92 C 0.78332 0.87912 0.22378 0.0
C93 C 0.79949 0.89645 0.20769 0.0
C94 C 0.79961 0.92389 0.20748 0.0
C95 C 0.78344 0.93441 0.22332 0.0
C96 C 0.76803 0.91689 0.2402 0.0
C97 C 0.76809 0.88958 0.24051 0.0
C98 C 0.82215 0.82076 0.30918 0.0
C99 C 0.74718 0.82525 0.30956 0.0
O100 O 0.79965 0.75588 0.34198 0.0
O101 O 0.75745 0.74169 0.33206 0.0
O102 O 0.73298 0.76431 0.28666 0.0
O103 O 0.76199 0.77219 0.26045 0.0
O104 O 0.80674 0.75607 0.28547 0.0
O105 O 0.80057 0.78006 0.24413 0.0
O106 O 0.76191 0.83512 0.23008 0.0
O107 O 0.80517 0.84173 0.23633 0.0
O108 O 0.82709 0.82161 0.28394 0.0
O109 O 0.7975 0.81467 0.30928 0.0
O110 O 0.75294 0.83036 0.28379 0.0
O111 O 0.75677 0.80503 0.32459 0.0
H112 H 0.78718 0.70598 0.39402 0.0
H113 H 0.80297 0.66266 0.39906 0.0
H114 H 0.8026 0.66507 0.31016 0.0
H115 H 0.78665 0.70842 0.30533 0.0
H116 H 0.8118 0.88873 0.19505 0.0
H117 H 0.81188 0.93682 0.19444 0.0
H118 H 0.75488 0.92409 0.25223 0.0
H119 H 0.75576 0.87666 0.25344 0.0
C120 C 0.24114 0.85492 0.29916 0.0
Eu121 Eu 0.26338 0.81669 0.2849 0.0
C122 C 0.21765 0.85773 0.3117 0.0
C123 C 0.20036 0.87546 0.2988 0.0
C124 C 0.17859 0.87943 0.31097 0.0
C125 C 0.17395 0.86586 0.33636 0.0
C126 C 0.19079 0.84747 0.34881 0.0
C127 C 0.21243 0.84333 0.33652 0.0
C128 C 0.23958 0.78022 0.24799 0.0
C129 C 0.25185 0.7626 0.3256 0.0
C130 C 0.31509 0.73346 0.26638 0.0
Eu131 Eu 0.29423 0.7716 0.28289 0.0
C132 C 0.33715 0.73066 0.25151 0.0
C133 C 0.3627 0.74467 0.25864 0.0
C134 C 0.38347 0.74084 0.24471 0.0
C135 C 0.37889 0.72326 0.22324 0.0
C136 C 0.35314 0.70985 0.21574 0.0
C137 C 0.3325 0.71347 0.22982 0.0
C138 C 0.3164 0.80612 0.32182 0.0
C139 C 0.3071 0.82655 0.24373 0.0
O140 O 0.26047 0.84453 0.31523 0.0
O141 O 0.23644 0.84639 0.27407 0.0
O142 O 0.23864 0.80549 0.24349 0.0
O143 O 0.25186 0.77568 0.27189 0.0
O144 O 0.2502 0.78839 0.321 0.0
O145 O 0.26547 0.75064 0.31074 0.0
O146 O 0.29505 0.74382 0.25161 0.0
O147 O 0.32133 0.742 0.2915 0.0
O148 O 0.31725 0.78073 0.3253 0.0
O149 O 0.30567 0.81214 0.29749 0.0
O150 O 0.30909 0.80086 0.24836 0.0
O151 O 0.29243 0.83807 0.25772 0.0
H152 H 0.20404 0.88666 0.27959 0.0
H153 H 0.16605 0.89393 0.30114 0.0
H154 H 0.18747 0.83666 0.36832 0.0
H155 H 0.22531 0.82928 0.34672 0.0
H156 H 0.36669 0.75832 0.27512 0.0
H157 H 0.40311 0.7515 0.25078 0.0
H158 H 0.34912 0.69587 0.19956 0.0
H159 H 0.31292 0.70255 0.22399 0.0
C160 C 0.35102 0.81381 0.75156 0.0
Eu161 Eu 0.31021 0.79641 0.77663 0.0
C162 C 0.35593 0.82067 0.72277 0.0
C163 C 0.34314 0.80503 0.70083 0.0
C164 C 0.34916 0.81124 0.67386 0.0
C165 C 0.36775 0.83336 0.66839 0.0
C166 C 0.38003 0.84923 0.69034 0.0
C167 C 0.3742 0.84289 0.71728 0.0
C168 C 0.27354 0.75559 0.75679 0.0
C169 C 0.26044 0.82891 0.75219 0.0
C170 C 0.22194 0.77175 0.82831 0.0
Eu171 Eu 0.26417 0.78823 0.80497 0.0
C172 C 0.21187 0.767 0.85528 0.0
C173 C 0.20791 0.78825 0.87008 0.0
C174 C 0.19434 0.78353 0.89305 0.0
C175 C 0.18454 0.75752 0.90172 0.0
C176 C 0.18955 0.73625 0.88765 0.0
C177 C 0.20298 0.74096 0.86461 0.0
C178 C 0.30192 0.82847 0.82524 0.0
C179 C 0.31341 0.7553 0.82925 0.0
O180 O 0.33779 0.8295 0.76212 0.0
O181 O 0.34377 0.78873 0.75804 0.0
O182 O 0.29896 0.75543 0.7605 0.0
O183 O 0.26836 0.77761 0.76281 0.0
O184 O 0.28655 0.82937 0.75505 0.0
O185 O 0.2463 0.81049 0.76626 0.0
O186 O 0.23753 0.75571 0.82217 0.0
O187 O 0.22876 0.79636 0.81977 0.0
O188 O 0.27659 0.82887 0.8228 0.0
O189 O 0.30614 0.80641 0.81866 0.0
O190 O 0.28724 0.75468 0.82578 0.0
O191 O 0.32785 0.7739 0.81554 0.0
H192 H 0.32875 0.78787 0.70457 0.0
H193 H 0.33932 0.79878 0.6573 0.0
H194 H 0.39475 0.86617 0.68685 0.0
H195 H 0.38427 0.85515 0.73392 0.0
H196 H 0.21441 0.8086 0.86338 0.0
H197 H 0.19099 0.80028 0.90365 0.0
H198 H 0.18194 0.71598 0.89357 0.0
H199 H 0.20542 0.72426 0.85339 0.0
C200 C 0.3159 0.26206 0.72886 0.0
Eu201 Eu 0.29678 0.27959 0.76983 0.0
C202 C 0.33212 0.24403 0.71819 0.0
C203 C 0.36003 0.24972 0.72056 0.0
C204 C 0.37464 0.23509 0.70673 0.0
C205 C 0.36186 0.21438 0.68988 0.0
C206 C 0.33398 0.20831 0.68816 0.0
C207 C 0.3194 0.22292 0.70199 0.0
C208 C 0.3223 0.31506 0.80738 0.0
C209 C 0.30171 0.24042 0.82649 0.0
C210 C 0.24728 0.30505 0.85897 0.0
Eu211 Eu 0.26621 0.28731 0.8182 0.0
C212 C 0.22679 0.31905 0.86796 0.0
C213 C 0.21204 0.30645 0.88842 0.0
C214 C 0.19464 0.31981 0.89974 0.0
C215 C 0.19139 0.34633 0.891 0.0
C216 C 0.20585 0.35881 0.87004 0.0
C217 C 0.22335 0.34539 0.85871 0.0
C218 C 0.24058 0.2519 0.78093 0.0
C219 C 0.26 0.32613 0.76104 0.0
O220 O 0.29292 0.25229 0.73643 0.0
O221 O 0.32794 0.28187 0.74352 0.0
O222 O 0.32396 0.31766 0.78096 0.0
O223 O 0.3087 0.2932 0.81307 0.0
O224 O 0.30261 0.24334 0.7994 0.0
O225 O 0.29253 0.25794 0.8396 0.0
O226 O 0.26579 0.31874 0.84598 0.0
O227 O 0.23997 0.2812 0.85011 0.0
O228 O 0.23828 0.24972 0.80716 0.0
O229 O 0.25432 0.27364 0.77525 0.0
O230 O 0.25792 0.32235 0.78785 0.0
O231 O 0.27156 0.31013 0.74826 0.0
H232 H 0.37062 0.26597 0.73253 0.0
H233 H 0.39603 0.24026 0.70912 0.0
H234 H 0.32316 0.19287 0.67522 0.0
H235 H 0.29793 0.21825 0.69915 0.0
H236 H 0.21452 0.28634 0.8963 0.0
H237 H 0.18439 0.3095 0.91608 0.0
H238 H 0.20374 0.37904 0.86238 0.0
H239 H 0.23447 0.35578 0.84306 0.0
C240 C 0.74443 0.34846 0.78683 0.0
Eu241 Eu 0.77318 0.31124 0.78402 0.0
C242 C 0.72746 0.35469 0.80638 0.0
C243 C 0.70031 0.35558 0.79703 0.0
C244 C 0.68363 0.36068 0.8153 0.0
C245 C 0.69388 0.36524 0.8432 0.0
C246 C 0.72106 0.36439 0.85258 0.0
C247 C 0.73771 0.35904 0.83436 0.0
C248 C 0.76248 0.274 0.74545 0.0
C249 C 0.75822 0.26098 0.82826 0.0
C250 C 0.83007 0.22427 0.79026 0.0
Eu251 Eu 0.8085 0.26615 0.79539 0.0
C252 C 0.85618 0.21924 0.78514 0.0
C253 C 0.86392 0.19397 0.79158 0.0
C254 C 0.8871 0.18805 0.78329 0.0
C255 C 0.90254 0.2073 0.76819 0.0
C256 C 0.89549 0.23302 0.76313 0.0
C257 C 0.87258 0.23902 0.77177 0.0
C258 C 0.82947 0.30623 0.83062 0.0
C259 C 0.82508 0.31714 0.75349 0.0
O260 O 0.77015 0.35093 0.7953 0.0
O261 O 0.7356 0.32715 0.77319 0.0
O262 O 0.76272 0.29933 0.73969 0.0
O263 O 0.76792 0.26939 0.7716 0.0
O264 O 0.75531 0.28583 0.81925 0.0
O265 O 0.77611 0.24847 0.82011 0.0
O266 O 0.81622 0.23657 0.76949 0.0
O267 O 0.8291 0.23314 0.81447 0.0
O268 O 0.84016 0.28489 0.82975 0.0
O269 O 0.80899 0.30496 0.81253 0.0
O270 O 0.82654 0.29179 0.76104 0.0
O271 O 0.80783 0.3302 0.7623 0.0
H272 H 0.69199 0.35228 0.77554 0.0
H273 H 0.66281 0.36158 0.80748 0.0
H274 H 0.7294 0.36771 0.87405 0.0
H275 H 0.75852 0.35829 0.84225 0.0
H276 H 0.85149 0.17853 0.80197 0.0
H277 H 0.89207 0.16803 0.78719 0.0
H278 H 0.90718 0.24817 0.75157 0.0
H279 H 0.86705 0.25874 0.76696 0.0
C280 C 0.76535 0.82334 0.85795 0.0
Eu281 Eu 0.78285 0.80554 0.81716 0.0
C282 C 0.7537 0.84645 0.86356 0.0
C283 C 0.75366 0.86906 0.84503 0.0
C284 C 0.73945 0.88947 0.84905 0.0
C285 C 0.72485 0.88719 0.87136 0.0
C286 C 0.72567 0.86484 0.89024 0.0
C287 C 0.74 0.84465 0.88636 0.0
C288 C 0.81652 0.83057 0.78097 0.0
C289 C 0.74951 0.81626 0.75523 0.0
C290 C 0.80238 0.75157 0.72519 0.0
Eu291 Eu 0.78648 0.76748 0.76799 0.0
C292 C 0.81238 0.73119 0.71163 0.0
C293 C 0.80199 0.72677 0.68378 0.0
C294 C 0.81467 0.71222 0.66821 0.0
C295 C 0.83806 0.70188 0.68021 0.0
C296 C 0.84741 0.7048 0.70868 0.0
C297 C 0.8347 0.71938 0.72427 0.0
C298 C 0.75229 0.74271 0.80398 0.0
C299 C 0.82105 0.75784 0.82969 0.0
O300 O 0.75038 0.808 0.83968 0.0
O301 O 0.79062 0.82706 0.855 0.0
O302 O 0.81207 0.84093 0.80302 0.0
O303 O 0.80364 0.8074 0.78082 0.0
O304 O 0.75285 0.82074 0.7821 0.0
O305 O 0.76091 0.79793 0.74555 0.0
O306 O 0.81847 0.76348 0.7455 0.0
O307 O 0.77717 0.74852 0.72832 0.0
O308 O 0.75688 0.73222 0.78205 0.0
O309 O 0.76544 0.76575 0.80416 0.0
O310 O 0.81707 0.75287 0.80286 0.0
O311 O 0.80964 0.7761 0.83956 0.0
H312 H 0.76393 0.87052 0.82709 0.0
H313 H 0.73904 0.90649 0.8342 0.0
H314 H 0.71488 0.8628 0.90782 0.0
H315 H 0.73972 0.82722 0.90071 0.0
H316 H 0.78486 0.7358 0.67361 0.0
H317 H 0.80673 0.70991 0.64646 0.0
H318 H 0.86546 0.69719 0.71851 0.0
H319 H 0.84317 0.72258 0.74573 0.0
Fe320 Fe 0.03335 0.09826 0.52378 0.0
O321 O 0.02723 0.05891 0.52598 0.0
Fe322 Fe 0.06111 0.04026 0.54344 0.0
Fe323 Fe 0.99901 0.03698 0.54597 0.0
O324 O 0.03061 0.05945 0.52623 0.0
O325 O 0.0329 1.01853 0.56343 0.0
O326 O 0.02962 1.01803 0.56322 0.0
Fe327 Fe 0.02702 0.97936 0.56659 0.0
C328 C 1.00954 0.08649 0.57779 0.0
O329 O 0.99682 0.09278 0.49868 0.0
O330 O 0.97101 0.06169 0.52393 0.0
O331 O 0.04733 0.97586 0.53434 0.0
O332 O 0.05259 1.01563 0.5112 0.0
O333 O 0.08633 0.06715 0.51841 0.0
O334 O 0.05783 0.09525 0.4947 0.0
O335 O 0.98909 1.01173 0.51351 0.0
O336 O 0.99211 0.97371 0.53891 0.0
C337 C 0.08059 0.08614 0.49923 0.0
O338 O 0.06369 0.98517 0.59141 0.0
O339 O 0.08921 1.01576 0.5655 0.0
O340 O 1.01279 0.10146 0.55604 0.0
O341 O 1.00753 0.06137 0.57833 0.0
C342 C 0.97399 0.08067 0.50424 0.0
C343 C 0.98387 0.9865 0.51641 0.0
C344 C 0.98037 0.99245 0.59164 0.0
O345 O 0.97401 1.01034 0.57142 0.0
O346 O 1.00302 0.98316 0.59586 0.0
C347 C 0.0505 0.99044 0.51229 0.0
O348 O 0.07093 0.06502 0.57606 0.0
O349 O 0.06815 0.10358 0.5517 0.0
C350 C 0.08645 0.99709 0.58551 0.0
C351 C 0.07671 0.09014 0.5736 0.0
Fe352 Fe 0.53899 0.99237 0.05832 0.0
O353 O 0.53533 0.03024 0.05576 0.0
Fe354 Fe 0.49959 0.04268 0.03713 0.0
Fe355 Fe 0.56002 0.05816 0.03797 0.0
O356 O 0.53293 0.02941 0.05562 0.0
O357 O 0.52423 0.07033 1.01857 0.0
O358 O 0.52685 0.07127 1.0188 0.0
Fe359 Fe 0.52222 0.10882 1.01764 0.0
C360 C 0.5914 0.02419 0.08257 0.0
O361 O 0.56495 0.99661 0.0294 0.0
O362 O 0.55953 0.0351 1.00548 0.0
O363 O 0.48819 0.09712 0.99045 0.0
O364 O 0.46776 0.06091 1.01479 0.0
O365 O 0.49601 1.01865 1.00448 0.0
O366 O 0.50782 0.98122 0.02701 0.0
O367 O 0.58191 0.08929 1.01592 0.0
O368 O 0.54995 0.11255 0.99053 0.0
C369 C 0.4955 0.99351 1.00612 0.0
O370 O 0.4977 0.10514 0.04785 0.0
O371 O 0.50189 0.06562 0.06989 0.0
O372 O 0.5718 1.00578 0.08683 0.0
O373 O 0.5917 0.04113 0.06112 0.0
C374 C 0.56706 1.01228 1.00781 0.0
C375 C 0.57401 0.10637 0.99589 0.0
C376 C 0.56431 0.10626 0.06981 0.0
O377 O 0.56196 0.08111 0.07109 0.0
O378 O 0.55462 0.11929 0.04806 0.0
C379 C 0.46789 0.07972 0.99492 0.0
O380 O 0.47801 1.01186 0.0599 0.0
O381 O 0.51008 0.988 0.08428 0.0
C382 C 0.49624 0.08905 0.06916 0.0
C383 C 0.48596 0.99406 0.07913 0.0
Fe384 Fe 0.99935 0.57818 0.08875 0.0
O385 O 0.97816 0.54144 0.089 0.0
Fe386 Fe 0.0596 0.54257 0.0777 0.0
Fe387 Fe 0.93768 0.5329 0.08311 0.0
O388 O 1.01865 0.54772 0.0726 0.0
O389 O 1.0195 0.53381 0.07486 0.0
O390 O 0.979 0.52692 0.09366 0.0
Fe391 Fe 0.99956 0.49675 0.07853 0.0
C392 C 0.95017 0.58334 0.1196 0.0
O393 O 0.9772 0.58859 0.05155 0.0
O394 O 0.93767 0.56399 0.05243 0.0
O395 O 0.02486 0.482 0.05543 0.0
O396 O 0.05627 0.51634 0.04686 0.0
O397 O 0.06169 0.57383 0.04726 0.0
O398 O 0.02903 0.57794 0.06625 0.0
O399 O 0.93408 0.5065 0.05135 0.0
O400 O 0.97442 0.50271 0.04147 0.0
C401 C 0.04414 0.58798 0.04904 0.0
O402 O 0.02497 0.48694 0.11527 0.0
O403 O 0.063 0.51148 0.10784 0.0
O404 O 0.97234 0.59274 0.11075 0.0
O405 O 0.93788 0.56001 0.11384 0.0
C406 C 0.95281 0.58276 0.0416 0.0
C407 C 0.94908 0.49771 0.03661 0.0
C408 C 0.95052 0.48538 0.10875 0.0
O409 O 0.93286 0.49968 0.11079 0.0
O410 O 0.97248 0.49924 0.10505 0.0
C411 C 0.04458 0.49264 0.0431 0.0
O412 O 0.06379 0.56816 0.10986 0.0
O413 O 0.02471 0.57103 0.12521 0.0
C414 C 0.05036 0.4923 0.12085 0.0
C415 C 0.0503 0.57498 0.12759 0.0
Fe416 Fe 0.52394 0.55727 0.97534 0.0
O417 O 0.53236 0.55505 1.01626 0.0
Fe418 Fe 0.50181 0.5345 0.0387 0.0
Fe419 Fe 0.56411 0.5394 0.03669 0.0
O420 O 0.52905 0.55417 1.01618 0.0
O421 O 0.53366 0.51877 0.05911 0.0
O422 O 0.53702 0.51987 0.05933 0.0
Fe423 Fe 0.54295 0.51706 0.10012 0.0
C424 C 0.55478 0.5097 0.98497 0.0
O425 O 0.55786 0.58521 0.97882 0.0
O426 O 0.5883 0.56328 1.00854 0.0
O427 O 0.51889 0.54442 0.1058 0.0
O428 O 0.50904 0.56543 0.06429 0.0
O429 O 0.47272 0.55605 1.01329 0.0
O430 O 0.49667 0.58121 0.98152 0.0
O431 O 0.57258 0.57053 0.06253 0.0
O432 O 0.57471 0.54731 0.10339 0.0
C433 C 0.47604 0.57578 0.9944 0.0
O434 O 0.50895 0.48948 0.09725 0.0
O435 O 0.47786 0.51033 0.06713 0.0
O436 O 0.54866 0.53021 0.96999 0.0
O437 O 0.55668 0.50842 1.0113 0.0
C438 C 0.58219 0.58188 0.98908 0.0
C439 C 0.57953 0.5689 0.08881 0.0
C440 C 0.59046 0.4986 0.08109 0.0
O441 O 0.59347 0.51833 0.06219 0.0
O442 O 0.56981 0.4927 0.09381 0.0
C443 C 0.51218 0.56462 0.09069 0.0
O444 O 0.49291 0.50354 1.01228 0.0
O445 O 0.49234 0.527 0.97151 0.0
C446 C 0.48446 0.49246 0.08731 0.0
C447 C 0.48629 0.50557 0.98589 0.0
Fe448 Fe 0.04932 0.4936 0.5489 0.0
O449 O 0.03761 0.52509 0.56265 0.0
Fe450 Fe 0.06837 0.51702 0.4852 0.0
Fe451 Fe 0.04087 0.53077 0.60276 0.0
O452 O 0.06892 0.52078 0.52481 0.0
O453 O 0.07046 0.52376 0.5249 0.0
O454 O 0.0391 0.52779 0.56275 0.0
Fe455 Fe 0.05675 0.55492 0.53698 0.0
C456 C 1.01094 0.47552 0.59349 0.0
O457 O 0.0827 0.49673 0.57796 0.0
O458 O 0.06635 0.50262 0.61605 0.0
O459 O 0.07747 0.57946 0.5077 0.0
O460 O 0.09708 0.55018 0.4868 0.0
O461 O 0.09177 0.48806 0.5012 0.0
O462 O 0.06607 0.46442 0.53229 0.0
O463 O 0.07322 0.55976 0.60539 0.0
O464 O 0.09054 0.56324 0.56581 0.0
C465 C 0.08559 0.46736 0.51765 0.0
O466 O 0.02326 0.54814 0.50826 0.0
O467 O 0.04125 0.54309 0.47079 0.0
O468 O 0.02653 0.46918 0.57698 0.0
O469 O 1.01073 0.49943 0.60058 0.0
C470 C 0.08405 0.49506 0.60416 0.0
C471 C 0.09199 0.56782 0.59134 0.0
C472 C 1.02249 0.58118 0.57129 0.0
O473 O 1.0185 0.56101 0.58897 0.0
O474 O 0.03864 0.58359 0.55286 0.0
C475 C 0.09467 0.57406 0.4926 0.0
O476 O 0.03712 0.4865 0.48274 0.0
O477 O 1.01592 0.48881 0.5187 0.0
C478 C 1.02155 0.54678 0.48214 0.0
C479 C 1.01602 0.48249 0.49394 0.0
Fe480 Fe 0.57127 0.99181 0.5045 0.0
O481 O 0.56086 0.02652 0.52311 0.0
Fe482 Fe 0.56054 0.03807 0.4466 0.0
Fe483 Fe 0.56457 0.03411 0.56658 0.0
O484 O 0.57603 0.02793 0.48563 0.0
O485 O 0.53886 0.05271 0.47088 0.0
O486 O 0.56266 0.03945 0.52597 0.0
Fe487 Fe 0.55794 0.07424 0.5039 0.0
C488 C 0.53361 0.9875 0.55036 0.0
O489 O 0.60684 0.99701 0.53231 0.0
O490 O 0.5939 1.00837 0.57196 0.0
O491 O 0.59515 0.07669 0.49266 0.0
O492 O 0.59275 0.06685 0.44857 0.0
O493 O 0.58413 1.01053 0.43489 0.0
O494 O 0.59045 0.98107 0.47249 0.0
O495 O 0.59461 0.06574 0.56671 0.0
O496 O 0.57798 0.09722 0.53678 0.0
C497 C 0.59381 0.98958 0.44726 0.0
O498 O 0.55048 0.10579 0.47639 0.0
O499 O 0.53528 0.07128 0.44985 0.0
O500 O 0.55186 0.99499 0.53607 0.0
O501 O 0.53356 1.00297 0.56896 0.0
C502 C 0.60919 0.99729 0.55916 0.0
C503 C 0.59406 0.09011 0.55828 0.0
C504 C 0.52003 0.07206 0.54515 0.0
O505 O 0.53566 0.05956 0.56309 0.0
O506 O 0.52257 0.07511 0.51921 0.0
C507 C 0.60549 0.07651 0.47073 0.0
O508 O 0.52827 1.00927 0.44253 0.0
O509 O 0.53469 0.9825 0.48098 0.0
C510 C 0.53724 0.09741 0.45337 0.0
C511 C 0.52085 0.98932 0.4582 0.0
H512 H 0.25874 0.24843 0.37318 0.0
H513 H 0.23371 0.21913 0.40548 0.0
H514 H 0.17297 0.1958 0.3369 0.0
H515 H 0.19712 0.22588 0.30519 0.0
H516 H 0.1486 0.20016 0.37587 0.0
H517 H 0.22855 0.14258 0.42514 0.0
H518 H 0.23735 0.17729 0.43035 0.0
H519 H 0.23248 0.16584 0.39568 0.0
C520 C 0.24004 0.23705 0.36501 0.0
C521 C 0.23019 0.23969 0.33633 0.0
C522 C 0.22573 0.21987 0.38356 0.0
C523 C 0.20134 0.20423 0.37403 0.0
C524 C 0.19156 0.20721 0.34536 0.0
H525 H 0.119 0.06882 0.47214 0.0
H526 H 0.14849 0.0962 0.44214 0.0
C527 C 0.20556 0.2246 0.327 0.0
C528 C 0.18532 0.18561 0.39346 0.0
H529 H 0.18903 0.13615 0.44616 0.0
C530 C 0.15768 0.18615 0.39107 0.0
C531 C 0.19638 0.16656 0.41334 0.0
C532 C 0.22524 0.16277 0.41612 0.0
C533 C 0.14126 0.16901 0.40764 0.0
C534 C 0.15251 0.15098 0.42853 0.0
C535 C 0.18006 0.14998 0.43067 0.0
C536 C 0.13601 0.13375 0.44846 0.0
C537 C 0.11168 0.17003 0.40175 0.0
C538 C 0.11966 0.14524 0.46326 0.0
C539 C 0.10265 0.12962 0.47999 0.0
C540 C 0.1016 0.10174 0.48345 0.0
C541 C 0.1191 0.09013 0.47011 0.0
C542 C 0.13599 0.10591 0.4528 0.0
H543 H 0.10541 0.17709 0.37983 0.0
H544 H 0.10017 0.15026 0.40566 0.0
H545 H 0.10647 0.18423 0.41534 0.0
H546 H 0.11973 0.16654 0.46165 0.0
H547 H 0.08998 0.13955 0.49021 0.0
H548 H 0.79043 0.22487 0.38069 0.0
H549 H 0.81434 0.19338 0.41247 0.0
H550 H 0.87973 0.20879 0.36542 0.0
H551 H 0.85644 0.24043 0.33415 0.0
H552 H 0.83286 0.14723 0.40513 0.0
H553 H 0.91861 0.22056 0.44244 0.0
H554 H 0.88842 0.23032 0.42264 0.0
H555 H 0.91345 0.22034 0.40524 0.0
C556 C 0.80998 0.22169 0.37718 0.0
C557 C 0.8215 0.23557 0.35484 0.0
C558 C 0.82364 0.20357 0.3954 0.0
C559 C 0.84922 0.19895 0.39188 0.0
C560 C 0.86043 0.2124 0.36927 0.0
H561 H 0.96998 0.10138 0.45084 0.0
H562 H 0.93694 0.1279 0.42592 0.0
C563 C 0.84692 0.23052 0.35119 0.0
C564 C 0.86429 0.18002 0.4114 0.0
H565 H 0.92524 0.17477 0.45026 0.0
C566 C 0.85292 0.15337 0.41533 0.0
C567 C 0.89043 0.18786 0.42515 0.0
C568 C 0.90332 0.21639 0.42392 0.0
C569 C 0.86743 0.13428 0.4312 0.0
C570 C 0.89402 0.14193 0.44362 0.0
C571 C 0.90496 0.16873 0.44059 0.0
C572 C 0.91173 0.12242 0.45796 0.0
C573 C 0.85472 0.10581 0.43368 0.0
C574 C 0.90835 0.10959 0.48418 0.0
C575 C 0.92748 0.09413 0.49871 0.0
C576 C 0.95039 0.09137 0.48732 0.0
C577 C 0.95274 0.10309 0.46043 0.0
C578 C 0.93382 0.11839 0.44608 0.0
H579 H 0.8349 0.10246 0.42057 0.0
H580 H 0.86777 0.09251 0.42752 0.0
H581 H 0.85226 0.10019 0.45569 0.0
H582 H 0.89162 0.11252 0.49397 0.0
H583 H 0.92514 0.08574 0.51947 0.0
H584 H 0.87259 0.84587 0.30704 0.0
H585 H 0.90043 0.87477 0.34088 0.0
H586 H 0.84025 0.85949 0.39464 0.0
H587 H 0.81199 0.83095 0.36046 0.0
H588 H 0.85873 0.91228 0.38921 0.0
H589 H 0.9442 0.85518 0.41395 0.0
H590 H 0.93607 0.86386 0.37747 0.0
H591 H 0.91266 0.84163 0.39509 0.0
C592 C 0.8654 0.84838 0.32623 0.0
C593 C 0.8401 0.83598 0.3311 0.0
C594 C 0.88141 0.86488 0.34564 0.0
C595 C 0.87268 0.86915 0.37057 0.0
C596 C 0.84752 0.85651 0.37563 0.0
H597 H 0.96682 0.93326 0.51815 0.0
H598 H 0.94009 0.90697 0.4819 0.0
C599 C 0.83143 0.84006 0.35615 0.0
C600 C 0.88939 0.88735 0.39095 0.0
H601 H 0.95038 0.89807 0.43128 0.0
C602 C 0.87877 0.90914 0.39844 0.0
C603 C 0.91551 0.88327 0.40318 0.0
C604 C 0.92773 0.85959 0.39725 0.0
C605 C 0.89346 0.92686 0.41772 0.0
C606 C 0.91975 0.92302 0.42957 0.0
C607 C 0.93036 0.90126 0.42202 0.0
C608 C 0.9359 0.93998 0.45143 0.0
C609 C 0.88038 0.94904 0.42588 0.0
C610 C 0.94275 0.96755 0.44653 0.0
C611 C 0.95813 0.98292 0.46752 0.0
C612 C 0.9671 0.97098 0.49376 0.0
C613 C 0.9603 0.94334 0.49834 0.0
C614 C 0.94499 0.92813 0.47753 0.0
H615 H 0.85842 0.94561 0.41998 0.0
H616 H 0.88508 0.95133 0.44865 0.0
H617 H 0.88798 0.96794 0.41506 0.0
H618 H 0.93647 0.97714 0.4264 0.0
H619 H 0.96314 1.00406 0.46311 0.0
H620 H 0.12188 0.87023 0.31564 0.0
H621 H 0.08924 0.88617 0.33965 0.0
H622 H 0.14769 0.89446 0.41364 0.0
H623 H 0.17981 0.87789 0.39016 0.0
H624 H 0.09982 0.87404 0.42605 0.0
H625 H 0.09146 0.96341 0.35301 0.0
H626 H 0.08204 0.93191 0.33782 0.0
H627 H 0.1161 0.94179 0.35243 0.0
C628 C 0.12753 0.87525 0.33712 0.0
C629 C 0.15328 0.8729 0.35111 0.0
C630 C 0.10899 0.88446 0.35072 0.0
C631 C 0.11622 0.89194 0.37824 0.0
C632 C 0.14167 0.88876 0.3924 0.0
H633 H 0.0856 1.00656 0.47611 0.0
H634 H 0.09522 0.98092 0.4396 0.0
C635 C 0.15999 0.87923 0.37902 0.0
C636 C 0.09812 0.90417 0.39245 0.0
H637 H 0.07023 0.96087 0.39237 0.0
C638 C 0.09297 0.89285 0.41857 0.0
C639 C 0.08936 0.92874 0.38254 0.0
C640 C 0.09512 0.94236 0.35503 0.0
C641 C 0.08103 0.90628 0.43601 0.0
C642 C 0.07292 0.93124 0.42645 0.0
C643 C 0.07643 0.94172 0.39954 0.0
C644 C 0.0641 0.94823 0.44533 0.0
C645 C 0.07916 0.89445 0.46522 0.0
C646 C 0.04275 0.93887 0.45981 0.0
C647 C 0.03783 0.9531 0.48119 0.0
C648 C 0.05357 0.97732 0.48763 0.0
C649 C 0.07334 0.98784 0.47152 0.0
C650 C 0.07874 0.97325 0.45066 0.0
H651 H 0.09173 0.87832 0.47109 0.0
H652 H 0.08537 0.90983 0.48064 0.0
H653 H 0.05827 0.88586 0.46665 0.0
H654 H 0.03063 0.92006 0.45538 0.0
H655 H 1.02209 0.94495 0.49307 0.0
H656 H 0.28063 0.86629 0.71366 0.0
H657 H 0.25711 0.89936 0.68358 0.0
H658 H 0.18545 0.8701 0.71794 0.0
H659 H 0.20846 0.83706 0.74762 0.0
H660 H 0.20366 0.88874 0.64315 0.0
H661 H 0.20184 0.95368 0.72841 0.0
H662 H 0.22607 0.93099 0.7303 0.0
H663 H 0.19263 0.91869 0.73578 0.0
C664 C 0.25985 0.86684 0.71476 0.0
C665 C 0.24655 0.84889 0.7332 0.0
C666 C 0.2464 0.88576 0.69749 0.0
C667 C 0.2195 0.88741 0.69858 0.0
C668 C 0.20621 0.86942 0.7168 0.0
H669 H 0.08933 0.97161 0.63703 0.0
H670 H 0.12443 0.94806 0.66219 0.0
C671 C 0.21948 0.85041 0.73377 0.0
C672 C 0.20501 0.90787 0.68104 0.0
H673 H 0.17388 0.9618 0.68585 0.0
C674 C 0.19747 0.90499 0.65234 0.0
C675 C 0.19684 0.92905 0.69299 0.0
C676 C 0.20486 0.93356 0.72353 0.0
C677 C 0.18087 0.92181 0.63563 0.0
C678 C 0.172 0.94261 0.64777 0.0
C679 C 0.18054 0.94603 0.67632 0.0
C680 C 0.15161 0.95905 0.63229 0.0
C681 C 0.17178 0.91616 0.60548 0.0
C682 C 0.15512 0.97411 0.60716 0.0
C683 C 0.13467 0.9878 0.59238 0.0
C684 C 0.11031 0.98676 0.60245 0.0
C685 C 0.10758 0.97277 0.62828 0.0
C686 C 0.1278 0.95921 0.64287 0.0
H687 H 0.17558 0.89621 0.60095 0.0
H688 H 0.1502 0.91742 0.59959 0.0
H689 H 0.18277 0.93113 0.59218 0.0
H690 H 0.1735 0.97501 0.59875 0.0
H691 H 0.13757 0.99829 0.57262 0.0
H692 H 0.23448 0.25877 0.72402 0.0
H693 H 0.20729 0.2291 0.69022 0.0
H694 H 0.18604 0.17369 0.75744 0.0
H695 H 0.21253 0.20356 0.79119 0.0
H696 H 0.20959 0.1786 0.67891 0.0
H697 H 0.11364 0.1828 0.71549 0.0
H698 H 0.14336 0.20503 0.72681 0.0
H699 H 0.13845 0.17177 0.74241 0.0
C700 C 0.22397 0.24026 0.73153 0.0
C701 C 0.22539 0.23359 0.76024 0.0
C702 C 0.20844 0.22331 0.71222 0.0
C703 C 0.19407 0.19938 0.72125 0.0
C704 C 0.19624 0.19235 0.74992 0.0
H705 H 0.09203 0.07236 0.62798 0.0
H706 H 0.12124 0.09734 0.66474 0.0
C707 C 0.21156 0.20937 0.76921 0.0
C708 C 0.177 0.18172 0.7007 0.0
H709 H 0.11331 0.1515 0.68205 0.0
C710 C 0.18855 0.17273 0.67962 0.0
C711 C 0.14946 0.17399 0.70154 0.0
C712 C 0.13541 0.18409 0.7226 0.0
C713 C 0.1734 0.15622 0.65952 0.0
C714 C 0.14597 0.14854 0.66042 0.0
C715 C 0.13443 0.15721 0.68162 0.0
C716 C 0.12859 0.13307 0.63837 0.0
C717 C 0.1868 0.14706 0.6374 0.0
C718 C 0.12286 0.14499 0.61154 0.0
C719 C 0.10612 0.13094 0.59068 0.0
C720 C 0.09477 0.10453 0.59609 0.0
C721 C 0.10057 0.09257 0.62304 0.0
C722 C 0.11719 0.10682 0.64407 0.0
H723 H 0.20882 0.15007 0.64282 0.0
H724 H 0.17999 0.12573 0.6341 0.0
H725 H 0.18138 0.15853 0.61744 0.0
H726 H 0.1312 0.16531 0.60679 0.0
H727 H 0.10215 0.14086 0.57022 0.0
H728 H 0.94564 0.18308 0.79186 0.0
H729 H 0.97781 0.16682 0.76741 0.0
H730 H 0.93652 0.19564 0.68899 0.0
H731 H 0.90574 0.21307 0.71338 0.0
H732 H 0.97076 0.13031 0.7345 0.0
H733 H 1.00916 0.2188 0.67416 0.0
H734 H 0.9905 0.22118 0.70198 0.0
H735 H 0.97369 0.21603 0.66696 0.0
C736 C 0.94405 0.18646 0.76946 0.0
C737 C 0.92358 0.1996 0.75445 0.0
C738 C 0.96233 0.17719 0.75551 0.0
C739 C 0.96009 0.18057 0.72633 0.0
C740 C 0.93955 0.19378 0.71151 0.0
H741 H 0.97188 0.07266 0.61132 0.0
H742 H 0.9661 0.09535 0.65161 0.0
C743 C 0.92176 0.20355 0.72544 0.0
C744 C 0.97691 0.1678 0.7108 0.0
H745 H 1.00417 0.17667 0.65095 0.0
C746 C 0.97874 0.14064 0.71666 0.0
C747 C 0.98837 0.18125 0.68813 0.0
C748 C 0.99058 0.211 0.68276 0.0
C749 C 0.98932 0.12617 0.69892 0.0
C750 C 0.99695 0.13889 0.67392 0.0
C751 C 0.99757 0.16653 0.66958 0.0
C752 C 1.00183 0.12381 0.65089 0.0
C753 C 0.99176 0.09735 0.70709 0.0
C754 C 0.0232 0.13278 0.63621 0.0
C755 C 0.02569 0.12059 0.61234 0.0
C756 C 1.00726 0.09885 0.60321 0.0
C757 C 0.98642 0.08929 0.61825 0.0
C758 C 0.98339 0.10203 0.64152 0.0
H759 H 0.99678 0.0942 0.73004 0.0
H760 H 0.97235 0.0851 0.70079 0.0
H761 H 1.00724 0.09025 0.69722 0.0
H762 H 0.03766 0.14955 0.64287 0.0
H763 H 0.04204 0.1281 0.60106 0.0
H764 H 0.82269 0.8166 0.72823 0.0
H765 H 0.84718 0.84348 0.69369 0.0
H766 H 0.86995 0.90605 0.75037 0.0
H767 H 0.84549 0.87957 0.78444 0.0
H768 H 0.85539 0.92746 0.69947 0.0
H769 H 0.92579 0.8572 0.69056 0.0
H770 H 0.8914 0.84365 0.68252 0.0
H771 H 0.90477 0.85274 0.71733 0.0
C772 C 0.8332 0.83592 0.73346 0.0
C773 C 0.83225 0.84558 0.75949 0.0
C774 C 0.84734 0.85142 0.71361 0.0
C775 C 0.86104 0.87703 0.71918 0.0
C776 C 0.85981 0.88657 0.74514 0.0
H777 H 0.99126 0.9672 0.6431 0.0
H778 H 0.96115 0.94056 0.67148 0.0
C779 C 0.84579 0.87119 0.76483 0.0
C780 C 0.87646 0.89419 0.69839 0.0
H781 H 0.92809 0.89623 0.66097 0.0
C782 C 0.87118 0.92046 0.69098 0.0
C783 C 0.89747 0.88564 0.68721 0.0
C784 C 0.90545 0.85838 0.69494 0.0
C785 C 0.88608 0.9381 0.67327 0.0
C786 C 0.90698 0.92949 0.66196 0.0
C787 C 0.91211 0.90315 0.6692 0.0
C788 C 0.92499 0.94771 0.64434 0.0
C789 C 0.87989 0.96621 0.66771 0.0
C790 C 0.91525 0.96157 0.61927 0.0
C791 C 0.93278 0.97732 0.60269 0.0
C792 C 0.96064 0.97955 0.61054 0.0
C793 C 0.97009 0.96617 0.63597 0.0
C794 C 0.95273 0.95062 0.65239 0.0
H795 H 0.86814 0.97164 0.6831 0.0
H796 H 0.89842 0.98052 0.6682 0.0
H797 H 0.86801 0.96824 0.64673 0.0
H798 H 0.89408 0.95958 0.61197 0.0
H799 H 0.92453 0.98681 0.58319 0.0
H800 H 0.33784 0.14255 0.22977 0.0
H801 H 0.37189 0.11849 0.21746 0.0
H802 H 0.40705 0.19034 0.17678 0.0
H803 H 0.37338 0.21434 0.189 0.0
H804 H 0.37898 0.11174 0.1651 0.0
H805 H 0.47227 0.16291 0.22012 0.0
H806 H 0.4401 0.16584 0.22912 0.0
H807 H 0.4526 0.18651 0.20096 0.0
C808 C 0.353 0.15317 0.21838 0.0
C809 C 0.35307 0.18029 0.21038 0.0
C810 C 0.37251 0.1395 0.21161 0.0
C811 C 0.39235 0.15282 0.19685 0.0
C812 C 0.3925 0.17992 0.18905 0.0
H813 H 0.48443 0.13798 0.07747 0.0
H814 H 0.46232 0.14966 0.11459 0.0
C815 C 0.37314 0.19356 0.19587 0.0
C816 C 0.41101 0.13809 0.18643 0.0
H817 H 0.47596 0.14298 0.17722 0.0
C818 C 0.40029 0.11795 0.16838 0.0
C819 C 0.43879 0.14619 0.1909 0.0
C820 C 0.4516 0.16636 0.2116 0.0
C821 C 0.41636 0.10735 0.15274 0.0
C822 C 0.44378 0.11709 0.15553 0.0
C823 C 0.45484 0.13579 0.17506 0.0
C824 C 0.46032 0.11058 0.13578 0.0
C825 C 0.40366 0.08726 0.13188 0.0
C826 C 0.46699 0.08494 0.136 0.0
C827 C 0.47954 0.07815 0.1148 0.0
C828 C 0.48549 0.09695 0.09305 0.0
C829 C 0.47988 0.12299 0.09373 0.0
C830 C 0.46741 0.12974 0.11499 0.0
H831 H 0.38165 0.0837 0.13046 0.0
H832 H 0.40879 0.09406 0.11092 0.0
H833 H 0.41144 0.06811 0.13799 0.0
H834 H 0.46173 0.07 0.15206 0.0
H835 H 0.48375 0.05794 0.115 0.0
H836 H 0.87593 0.26669 0.13941 0.0
H837 H 0.89201 0.27998 0.09488 0.0
H838 H 0.85337 0.3505 0.08864 0.0
H839 H 0.83581 0.33617 0.13102 0.0
H840 H 0.86187 0.34332 0.03926 0.0
H841 H 0.95797 0.32708 0.10442 0.0
H842 H 0.93386 0.29995 0.09197 0.0
H843 H 0.92909 0.31738 0.12117 0.0
C844 C 0.87017 0.28449 0.12775 0.0
C845 C 0.85528 0.30084 0.1389 0.0
C846 C 0.87957 0.29223 0.10245 0.0
C847 C 0.87536 0.31707 0.08899 0.0
C848 C 0.85742 0.33137 0.09845 0.0
H849 H 0.9011 0.4567 0.10171 0.0
H850 H 0.88751 0.41458 0.08028 0.0
C851 C 0.84738 0.32325 0.12302 0.0
C852 C 0.8936 0.33185 0.07039 0.0
H853 H 0.95268 0.37049 0.0881 0.0
C854 C 0.88222 0.34884 0.04902 0.0
C855 C 0.92093 0.33835 0.08112 0.0
C856 C 0.93634 0.31967 0.10073 0.0
C857 C 0.89411 0.37518 0.04519 0.0
C858 C 0.9187 0.38362 0.06164 0.0
C859 C 0.93314 0.36442 0.07662 0.0
C860 C 0.92631 0.4114 0.06972 0.0
C861 C 0.8787 0.3942 0.02613 0.0
C862 C 0.9529 0.42334 0.07204 0.0
C863 C 0.96097 0.44695 0.08547 0.0
C864 C 0.94249 0.45941 0.09631 0.0
C865 C 0.91583 0.44767 0.09354 0.0
C866 C 0.90789 0.42386 0.08061 0.0
H867 H 0.87065 0.38525 1.006 0.0
H868 H 0.86145 0.39793 0.03562 0.0
H869 H 0.89111 0.41338 0.02212 0.0
H870 H 0.96762 0.41391 0.06434 0.0
H871 H 0.9817 0.45528 0.08744 0.0
H872 H 0.78021 0.96532 0.17477 0.0
H873 H 0.75789 1.00427 0.16508 0.0
H874 H 0.75313 1.00657 0.25233 0.0
H875 H 0.77634 0.96756 0.26244 0.0
H876 H 0.7059 0.99231 0.2218 0.0
H877 H 0.7526 0.08198 0.16912 0.0
H878 H 0.76171 0.05349 0.15583 0.0
H879 H 0.77188 0.05982 0.1921 0.0
C880 C 0.77591 0.97487 0.19222 0.0
C881 C 0.77926 0.96276 0.21928 0.0
C882 C 0.7632 0.99746 0.18662 0.0
C883 C 0.75357 1.00826 0.20794 0.0
C884 C 0.76035 0.99852 0.23556 0.0
H885 H 0.59184 0.03493 0.13598 0.0
H886 H 0.63073 0.04194 0.17232 0.0
C887 C 0.77328 0.97599 0.24122 0.0
C888 C 0.73015 0.02253 0.20009 0.0
H889 H 0.706 0.06556 0.14833 0.0
C890 C 0.70585 1.00905 0.20652 0.0
C891 C 0.73012 0.04448 0.18045 0.0
C892 C 0.75559 0.0609 0.17425 0.0
C893 C 0.68167 1.01405 0.19069 0.0
C894 C 0.68189 0.03392 0.16857 0.0
C895 C 0.70591 0.04997 0.16489 0.0
C896 C 0.65886 0.03463 0.14612 0.0
C897 C 0.65668 0.99588 0.19577 0.0
C898 C 0.66198 0.02975 0.11896 0.0
C899 C 0.63998 0.0265 0.09813 0.0
C900 C 0.61451 0.02742 0.10437 0.0
C901 C 0.61136 0.03326 0.13115 0.0
C902 C 0.6335 0.03735 0.1518 0.0
H903 H 0.66089 0.97896 0.21094 0.0
H904 H 0.64328 1.00722 0.20427 0.0
H905 H 0.64597 0.98771 0.17605 0.0
H906 H 0.68136 0.02758 0.11407 0.0
H907 H 0.64274 0.02255 0.07738 0.0
H908 H 0.23536 0.72709 0.2599 0.0
H909 H 0.19997 0.69316 0.24101 0.0
H910 H 0.1639 0.75273 0.1858 0.0
H911 H 0.19946 0.78699 0.20468 0.0
H912 H 0.14366 0.69345 0.24176 0.0
H913 H 0.16941 0.69236 0.13519 0.0
H914 H 0.19297 0.7061 0.16364 0.0
H915 H 0.16673 0.72419 0.14699 0.0
C916 C 0.22009 0.73295 0.24348 0.0
C917 C 0.22012 0.75968 0.23374 0.0
C918 C 0.19983 0.71356 0.23284 0.0
C919 C 0.17934 0.72047 0.21211 0.0
C920 C 0.17967 0.74702 0.2017 0.0
H921 H 0.03419 0.61635 0.14994 0.0
H922 H 0.06368 0.65232 0.1741 0.0
C923 C 0.19999 0.76652 0.21242 0.0
C924 C 0.15747 0.69975 0.20196 0.0
H925 H 0.13176 0.66352 0.14586 0.0
C926 C 0.14085 0.68701 0.22073 0.0
C927 C 0.15404 0.69141 0.17458 0.0
C928 C 0.17178 0.70402 0.15388 0.0
C929 C 0.12108 0.6658 0.21286 0.0
C930 C 0.11799 0.65722 0.18565 0.0
C931 C 0.13425 0.67028 0.16675 0.0
C932 C 0.09922 0.63367 0.17658 0.0
C933 C 0.1042 0.65208 0.23381 0.0
C934 C 0.10936 0.61095 0.17111 0.0
C935 C 0.09268 0.59046 0.15751 0.0
C936 C 0.06554 0.59239 0.14897 0.0
C937 C 0.05496 0.61418 0.15653 0.0
C938 C 0.07178 0.63481 0.17016 0.0
H939 H 0.11067 0.65966 0.25487 0.0
H940 H 0.08316 0.65515 0.22689 0.0
H941 H 0.10501 0.63037 0.23517 0.0
H942 H 0.13049 0.60972 0.17602 0.0
H943 H 0.10136 0.57386 0.15205 0.0
H944 H 0.2944 0.87216 0.85028 0.0
H945 H 0.32809 0.9023 0.87806 0.0
H946 H 0.38914 0.85777 0.86353 0.0
H947 H 0.35559 0.82767 0.83565 0.0
H948 H 0.36181 0.88846 0.92662 0.0
H949 H 0.42012 0.93501 0.84455 0.0
H950 H 0.38709 0.91707 0.83667 0.0
H951 H 0.41525 0.89935 0.84641 0.0
C952 C 0.31504 0.86895 0.85281 0.0
C953 C 0.32236 0.84755 0.84081 0.0
C954 C 0.33426 0.88617 0.8687 0.0
C955 C 0.36121 0.88251 0.87265 0.0
C956 C 0.36858 0.8613 0.86039 0.0
H957 H 0.48609 0.93935 1.00404 0.0
H958 H 0.45399 0.91326 0.97095 0.0
C959 C 0.34935 0.84402 0.84459 0.0
C960 C 0.38136 0.90001 0.89075 0.0
H961 H 0.43903 0.94319 0.89142 0.0
C962 C 0.37863 0.90051 0.91889 0.0
C963 C 0.40319 0.91593 0.88061 0.0
C964 C 0.40657 0.91709 0.85036 0.0
C965 C 0.39738 0.916 0.93726 0.0
C966 C 0.41966 0.93126 0.92734 0.0
C967 C 0.4221 0.93128 0.89906 0.0
C968 C 0.44055 0.94724 0.94616 0.0
C969 C 0.39309 0.91611 0.96714 0.0
C970 C 0.44436 0.97507 0.94269 0.0
C971 C 0.46278 0.99015 0.96161 0.0
C972 C 0.47795 0.97768 0.9843 0.0
C973 C 0.47477 0.94973 0.98697 0.0
C974 C 0.45629 0.93472 0.96812 0.0
H975 H 0.37224 0.90843 0.96989 0.0
H976 H 0.40633 0.90323 0.98041 0.0
H977 H 0.39806 0.93645 0.97464 0.0
H978 H 0.43252 0.98515 0.9258 0.0
H979 H 0.46466 1.01159 0.95881 0.0
H980 H 0.19856 0.3991 0.90321 0.0
H981 H 0.17066 0.42207 0.92671 0.0
H982 H 0.1162 0.34993 0.9332 0.0
H983 H 0.14364 0.32688 0.9093 0.0
H984 H 0.11678 0.42992 0.91292 0.0
H985 H 0.13301 0.37133 1.01392 0.0
H986 H 0.15345 0.37098 0.98714 0.0
H987 H 0.12091 0.35199 0.98426 0.0
C988 C 0.1805 0.38808 0.90928 0.0
C989 C 0.17366 0.3609 0.90435 0.0
C990 C 0.16459 0.40128 0.92295 0.0
C991 C 0.14148 0.38771 0.93231 0.0
C992 C 0.13423 0.36079 0.92689 0.0
H993 H 0.03008 0.43975 0.03107 0.0
H994 H 0.05127 0.41376 1.00288 0.0
C995 C 0.15006 0.34758 0.91316 0.0
C996 C 0.12496 0.40178 0.94753 0.0
H997 H 0.1024 0.40225 1.00993 0.0
C998 C 0.11367 0.42383 0.93413 0.0
C999 C 0.12057 0.39384 0.97518 0.0
C1000 C 0.13276 0.37089 0.99114 0.0
C1001 C 0.09819 0.43801 0.94747 0.0
C1002 C 0.0943 0.43048 0.97537 0.0
C1003 C 0.10522 0.40813 0.9886 0.0
C1004 C 0.08037 0.44638 0.99164 0.0
C1005 C 0.0858 0.46074 0.93126 0.0
C1006 C 0.08955 0.47339 0.99501 0.0
C1007 C 0.07743 0.48828 1.01096 0.0
C1008 C 0.05582 0.47665 0.02443 0.0
C1009 C 0.04651 0.44955 0.02099 0.0
C1010 C 0.05871 0.43459 1.0049 0.0
H1011 H 0.08294 0.45835 0.90849 0.0
H1012 H 0.06626 0.46248 0.93739 0.0
H1013 H 0.09923 0.47954 0.93539 0.0
H1014 H 0.10657 0.48296 0.98574 0.0
H1015 H 0.08548 0.50896 1.0131 0.0
H1016 H 0.71875 0.27856 0.85156 0.0
H1017 H 0.68839 0.25264 0.88098 0.0
H1018 H 0.72627 0.18341 0.87696 0.0
H1019 H 0.75646 0.2089 0.84767 0.0
H1020 H 0.6708 0.17328 0.86601 0.0
H1021 H 0.70399 0.22575 0.96339 0.0
H1022 H 0.69524 0.24668 0.93276 0.0
H1023 H 0.7235 0.2292 0.93529 0.0
C1024 C 0.72078 0.25788 0.8571 0.0
C1025 C 0.74023 0.24596 0.84718 0.0
C1026 C 0.70344 0.24308 0.87406 0.0
C1027 C 0.70515 0.21605 0.8815 0.0
C1028 C 0.72454 0.2042 0.87165 0.0
H1029 H 0.62884 0.10973 1.00556 0.0
H1030 H 0.66085 0.13565 0.97798 0.0
C1031 C 0.74189 0.21892 0.85487 0.0
C1032 C 0.68629 0.19971 0.89868 0.0
H1033 H 0.66606 0.19302 0.96282 0.0
C1034 C 0.66979 0.17764 0.88717 0.0
C1035 C 0.68513 0.20509 0.92647 0.0
C1036 C 0.70304 0.22781 0.9404 0.0
C1037 C 0.65198 0.16115 0.90242 0.0
C1038 C 0.65039 0.16686 0.92997 0.0
C1039 C 0.66717 0.18866 0.94168 0.0
C1040 C 0.631 0.15073 0.94664 0.0
C1041 C 0.63515 0.13751 0.88903 0.0
C1042 C 0.60355 0.15055 0.93832 0.0
C1043 C 0.58523 0.13587 0.95405 0.0
C1044 C 0.59382 0.12085 0.97859 0.0
C1045 C 0.62139 0.12086 0.98676 0.0
C1046 C 0.63976 0.1358 0.97107 0.0
H1047 H 0.64296 0.1323 0.87053 0.0
H1048 H 0.63414 0.11994 0.9041 0.0
H1049 H 0.61461 0.1422 0.88218 0.0
H1050 H 0.59625 0.16209 0.91975 0.0
H1051 H 0.56424 0.13645 0.94696 0.0
H1052 H 0.84138 0.71266 0.82064 0.0
H1053 H 0.86468 0.683 0.85507 0.0
H1054 H 0.86204 0.73496 0.9195 0.0
H1055 H 0.83821 0.7643 0.88545 0.0
H1056 H 0.91113 0.68771 0.88979 0.0
H1057 H 0.82958 0.66595 0.95331 0.0
H1058 H 0.82552 0.68335 0.91948 0.0
H1059 H 0.84127 0.70076 0.94969 0.0
C1060 C 0.84584 0.71792 0.8421 0.0
C1061 C 0.83759 0.74094 0.85011 0.0
C1062 C 0.85921 0.70084 0.86186 0.0
C1063 C 0.86469 0.70622 0.89021 0.0
C1064 C 0.85744 0.72975 0.89803 0.0
H1065 H 0.97558 0.62977 1.01785 0.0
H1066 H 0.95504 0.65898 0.98099 0.0
C1067 C 0.84394 0.74673 0.87836 0.0
C1068 C 0.87776 0.68723 0.91153 0.0
H1069 H 0.87067 0.65121 0.97308 0.0
C1070 C 0.9022 0.67968 0.90795 0.0
C1071 C 0.86607 0.67619 0.93512 0.0
C1072 C 0.83905 0.68173 0.93954 0.0
C1073 C 0.91538 0.66198 0.92735 0.0
C1074 C 0.90421 0.65181 0.95154 0.0
C1075 C 0.87955 0.65904 0.95483 0.0
C1076 C 0.91739 0.63343 0.97353 0.0
C1077 C 0.94086 0.65392 0.92125 0.0
C1078 C 0.90317 0.60934 0.98246 0.0
C1079 C 0.91478 0.59269 1.00397 0.0
C1080 C 0.94106 0.59956 1.01726 0.0
C1081 C 0.95542 0.62353 1.00805 0.0
C1082 C 0.94369 0.6403 0.9867 0.0
H1083 H 0.94213 0.65633 0.89862 0.0
H1084 H 0.95803 0.6668 0.93212 0.0
H1085 H 0.94264 0.63296 0.92852 0.0
H1086 H 0.88288 0.60343 0.97285 0.0
H1087 H 0.90299 0.5745 1.01036 0.0
H1088 H 0.2199 0.35692 0.29079 0.0
H1089 H 0.18682 0.38528 0.2685 0.0
H1090 H 0.17797 0.34461 0.19301 0.0
H1091 H 0.21128 0.31661 0.21501 0.0
H1092 H 0.17942 0.3955 0.17924 0.0
H1093 H 0.10748 0.37296 0.25368 0.0
H1094 H 0.14013 0.38564 0.27011 0.0
H1095 H 0.13474 0.35418 0.25451 0.0
C1096 C 0.21079 0.35376 0.26951 0.0
C1097 C 0.21852 0.33402 0.25502 0.0
C1098 C 0.19152 0.37004 0.25669 0.0
C1099 C 0.179 0.36721 0.22886 0.0
C1100 C 0.18684 0.34755 0.21441 0.0
H1101 H 0.03663 0.44055 0.14342 0.0
H1102 H 0.06656 0.41041 0.16957 0.0
C1103 C 0.20605 0.3313 0.22719 0.0
C1104 C 0.15868 0.38511 0.21441 0.0
H1105 H 0.10051 0.40906 0.22018 0.0
C1106 C 0.16221 0.39829 0.18836 0.0
C1107 C 0.13557 0.38892 0.22551 0.0
C1108 C 0.12903 0.37449 0.25234 0.0
C1109 C 0.14416 0.41513 0.17376 0.0
C1110 C 0.12162 0.41976 0.18534 0.0
C1111 C 0.11769 0.40612 0.21108 0.0
C1112 C 0.10239 0.43879 0.17112 0.0
C1113 C 0.14926 0.42738 0.14554 0.0
C1114 C 0.11173 0.46543 0.16383 0.0
C1115 C 0.09459 0.48275 0.149 0.0
C1116 C 0.06712 0.47443 0.14086 0.0
C1117 C 0.05743 0.44808 0.14928 0.0
C1118 C 0.07473 0.43064 0.16422 0.0
H1119 H 0.16187 0.41592 0.13596 0.0
H1120 H 0.13036 0.42854 0.13113 0.0
H1121 H 0.15993 0.44779 0.14786 0.0
H1122 H 0.13258 0.47292 0.16931 0.0
H1123 H 0.1032 0.50274 0.14331 0.0
H1124 H 0.14379 0.78414 0.90863 0.0
H1125 H 0.11122 0.77148 0.94061 0.0
H1126 H 0.15296 0.70603 0.97536 0.0
H1127 H 0.18585 0.71899 0.94414 0.0
H1128 H 0.07871 0.72556 0.93894 0.0
H1129 H 0.13444 0.73149 0.04477 0.0
H1130 H 0.14746 0.74876 1.01489 0.0
H1131 H 0.15192 0.71457 0.02432 0.0
C1132 C 0.1465 0.76759 0.92375 0.0
C1133 C 0.16732 0.75247 0.92382 0.0
C1134 C 0.12782 0.76034 0.94193 0.0
C1135 C 0.12983 0.73805 0.96067 0.0
C1136 C 0.15133 0.72372 0.96161 0.0
H1137 H 0.05389 0.60089 0.99685 0.0
H1138 H 0.06467 0.64536 0.97601 0.0
C1139 C 0.16993 0.7309 0.94347 0.0
C1140 C 0.10773 0.72707 0.97623 0.0
H1141 H 0.09776 0.69415 0.03818 0.0
C1142 C 0.08256 0.7195 0.96091 0.0
C1143 C 0.11229 0.7198 1.00505 0.0
C1144 C 0.13795 0.7294 0.0232 0.0
C1145 C 0.06322 0.70188 0.9728 0.0
C1146 C 0.06947 0.69136 1.00042 0.0
C1147 C 0.09311 0.70183 1.01679 0.0
C1148 C 0.05579 0.66548 1.0101 0.0
C1149 C 0.03711 0.69301 0.95503 0.0
C1150 C 0.04649 0.66192 0.03592 0.0
C1151 C 0.03995 0.63625 0.04776 0.0
C1152 C 0.04344 0.61412 0.03415 0.0
C1153 C 0.05101 0.61774 1.00761 0.0
C1154 C 0.05697 0.64317 0.99562 0.0
H1155 H 0.03087 0.7094 0.9401 0.0
H1156 H 0.03952 0.67643 0.94273 0.0
H1157 H 1.02116 0.6861 0.96791 0.0
H1158 H 0.04579 0.67889 0.04757 0.0
H1159 H 0.03438 0.63379 0.06843 0.0
H1160 H 0.32846 0.20434 0.80837 0.0
H1161 H 0.34949 0.16886 0.83611 0.0
H1162 H 0.3209 0.18931 0.90885 0.0
H1163 H 0.29981 0.22501 0.88137 0.0
H1164 H 0.38867 0.18342 0.88716 0.0
H1165 H 0.30555 0.10439 0.90673 0.0
H1166 H 0.3032 0.12755 0.87653 0.0
H1167 H 0.3015 0.13841 0.91012 0.0
C1168 C 0.32629 0.20112 0.83018 0.0
C1169 C 0.31266 0.21768 0.84273 0.0
C1170 C 0.33822 0.18076 0.84593 0.0
C1171 C 0.33641 0.17637 0.87435 0.0
C1172 C 0.3221 0.1922 0.8868 0.0
H1173 H 0.42169 0.08896 1.01026 0.0
H1174 H 0.38591 0.10872 0.97962 0.0
C1175 C 0.31029 0.21272 0.87111 0.0
C1176 C 0.35238 0.1576 0.89162 0.0
H1177 H 0.34874 0.09805 0.92941 0.0
C1178 C 0.38 0.16467 0.89627 0.0
C1179 C 0.3408 0.13346 0.90372 0.0
C1180 C 0.31113 0.12526 0.89904 0.0
C1181 C 0.39652 0.14829 0.91296 0.0
C1182 C 0.38511 0.12373 0.92457 0.0
C1183 C 0.35738 0.11672 0.92016 0.0
C1184 C 0.40207 0.10571 0.94182 0.0
C1185 C 0.42602 0.1578 0.91856 0.0
C1186 C 0.42192 0.09606 0.93043 0.0
C1187 C 0.44244 0.08528 0.94785 0.0
C1188 C 0.4429 0.08329 0.97677 0.0
C1189 C 0.42148 0.09013 0.98794 0.0
C1190 C 0.40114 0.10144 0.9705 0.0
H1191 H 0.43047 0.1796 0.91427 0.0
H1192 H 0.43435 0.15279 0.94051 0.0
H1193 H 0.43635 0.14799 0.90482 0.0
H1194 H 0.42267 0.09878 0.90829 0.0
H1195 H 0.45885 0.08007 0.93891 0.0
H1196 H 0.80372 0.34362 0.84932 0.0
H1197 H 0.82244 0.37696 0.88321 0.0
H1198 H 0.89983 0.35227 0.88741 0.0
H1199 H 0.88072 0.318 0.85518 0.0
H1200 H 0.89517 0.35915 0.93603 0.0
H1201 H 0.86152 0.44815 0.87644 0.0
H1202 H 0.83392 0.42364 0.88224 0.0
H1203 H 0.85757 0.41662 0.86115 0.0
C1204 C 0.82476 0.34557 0.8573 0.0
C1205 C 0.84071 0.32822 0.84936 0.0
C1206 C 0.83562 0.36486 0.87662 0.0
C1207 C 0.86294 0.36793 0.88783 0.0
C1208 C 0.87879 0.35067 0.87942 0.0
H1209 H 0.97368 0.46978 1.00461 0.0
H1210 H 0.9532 0.43922 0.96879 0.0
C1211 C 0.86783 0.33104 0.86076 0.0
C1212 C 0.87503 0.388 0.90911 0.0
H1213 H 0.87964 0.45327 0.92406 0.0
C1214 C 0.89179 0.37975 0.93312 0.0
C1215 C 0.87105 0.41516 0.90582 0.0
C1216 C 0.85528 0.42649 0.87989 0.0
C1217 C 0.90431 0.39738 0.95359 0.0
C1218 C 0.8999 0.42436 0.95052 0.0
C1219 C 0.88297 0.43265 0.92674 0.0
C1220 C 0.91264 0.44425 0.97155 0.0
C1221 C 0.9222 0.38658 0.97827 0.0
C1222 C 0.89697 0.4583 0.98466 0.0
C1223 C 0.90869 0.47592 1.00531 0.0
C1224 C 0.93653 0.48048 1.01311 0.0
C1225 C 0.95222 0.46702 0.99927 0.0
C1226 C 0.94047 0.44927 0.9788 0.0
H1227 H 0.94251 0.38772 0.97281 0.0
H1228 H 0.92359 0.39787 0.99699 0.0
H1229 H 0.91519 0.3654 0.98361 0.0
H1230 H 0.8755 0.45502 0.97952 0.0
H1231 H 0.89583 0.48572 1.01541 0.0
H1232 H 0.6733 0.87849 0.87955 0.0
H1233 H 0.64668 0.9106 0.89115 0.0
H1234 H 0.71125 0.97359 0.88242 0.0
H1235 H 0.73828 0.94118 0.87104 0.0
H1236 H 0.69382 0.97076 0.93297 0.0
H1237 H 0.60737 0.96895 0.84964 0.0
H1238 H 0.61317 0.93589 0.86195 0.0
H1239 H 0.63792 0.95729 0.84526 0.0
C1240 C 0.68168 0.89925 0.87969 0.0
C1241 C 0.7079 0.90738 0.87471 0.0
C1242 C 0.66632 0.91764 0.88592 0.0
C1243 C 0.67682 0.94454 0.88719 0.0
C1244 C 0.70269 0.95294 0.88118 0.0
H1245 H 0.57932 0.04162 0.96051 0.0
H1246 H 0.60676 0.03042 0.92753 0.0
C1247 C 0.71807 0.93448 0.87472 0.0
C1248 C 0.66207 0.96264 0.89889 0.0
H1249 H 0.59944 0.97871 0.89573 0.0
C1250 C 0.67345 0.97323 0.92439 0.0
C1251 C 0.63557 0.96606 0.8876 0.0
C1252 C 0.62292 0.95666 0.85944 0.0
C1253 C 0.65824 0.98495 0.94009 0.0
C1254 C 0.63104 0.98591 0.93006 0.0
C1255 C 0.62026 0.97755 0.90348 0.0
C1256 C 0.61304 0.9923 0.94845 0.0
C1257 C 0.67092 0.99486 0.96806 0.0
C1258 C 0.60705 0.9742 0.97052 0.0
C1259 C 0.59137 0.98036 0.98924 0.0
C1260 C 0.58141 1.00484 0.98626 0.0
C1261 C 0.58672 0.02261 0.96346 0.0
C1262 C 0.60238 1.01632 0.94461 0.0
H1263 H 0.69295 0.99872 0.96977 0.0
H1264 H 0.6634 1.01336 0.97181 0.0
H1265 H 0.66576 0.97961 0.98465 0.0
H1266 H 0.61493 0.95543 0.97354 0.0
H1267 H 0.58759 0.96614 1.0064 0.0
H1268 H 0.83993 0.71975 0.28385 0.0
H1269 H 0.86416 0.69105 0.26205 0.0
H1270 H 0.83897 0.72871 0.18173 0.0
H1271 H 0.81594 0.75807 0.20356 0.0
H1272 H 0.8551 0.65401 0.22913 0.0
H1273 H 0.9128 0.73276 0.1709 0.0
H1274 H 0.89315 0.74029 0.1959 0.0
H1275 H 0.87792 0.73384 0.16068 0.0
C1276 C 0.83976 0.72223 0.26155 0.0
C1277 C 0.826 0.74194 0.24584 0.0
C1278 C 0.85372 0.70553 0.24888 0.0
C1279 C 0.85458 0.70759 0.21983 0.0
C1280 C 0.84012 0.72682 0.20413 0.0
H1281 H 0.89897 0.57576 0.13332 0.0
H1282 H 0.87679 0.60459 0.15673 0.0
C1283 C 0.82649 0.7437 0.2168 0.0
C1284 C 0.86979 0.68943 0.20609 0.0
H1285 H 0.91168 0.68871 0.15741 0.0
C1286 C 0.86752 0.66188 0.21355 0.0
C1287 C 0.88689 0.69884 0.18593 0.0
C1288 C 0.8931 0.72807 0.17811 0.0
C1289 C 0.88084 0.64403 0.2015 0.0
C1290 C 0.8967 0.65322 0.18017 0.0
C1291 C 0.89945 0.68087 0.17317 0.0
C1292 C 0.91073 0.6349 0.16525 0.0
C1293 C 0.87834 0.61549 0.21278 0.0
C1294 C 0.93743 0.64185 0.1604 0.0
C1295 C 0.95024 0.62531 0.14621 0.0
C1296 C 0.93707 0.60083 0.13619 0.0
C1297 C 0.91037 0.59395 0.14093 0.0
C1298 C 0.8975 0.61063 0.15478 0.0
H1299 H 0.87418 0.61362 0.23458 0.0
H1300 H 0.86142 0.60386 0.20007 0.0
H1301 H 0.89672 0.60663 0.21228 0.0
H1302 H 0.94863 0.66024 0.16773 0.0
H1303 H 0.97061 0.63184 0.14306 0.0
H1304 H 0.34925 0.81432 0.22084 0.0
H1305 H 0.37788 0.84372 0.19224 0.0
H1306 H 0.33015 0.90626 0.19355 0.0
H1307 H 0.30211 0.87739 0.22278 0.0
H1308 H 0.37016 0.86867 0.14201 0.0
H1309 H 0.40182 0.94548 0.21871 0.0
H1310 H 0.38366 0.91364 0.22728 0.0
H1311 H 0.3664 0.93977 0.20911 0.0
C1312 C 0.3448 0.83432 0.21501 0.0
C1313 C 0.32344 0.84348 0.22443 0.0
C1314 C 0.36125 0.85119 0.19863 0.0
C1315 C 0.35675 0.87761 0.19118 0.0
C1316 C 0.33477 0.88637 0.19967 0.0
H1317 H 0.43497 1.00329 0.08358 0.0
H1318 H 0.40264 0.97583 0.10987 0.0
C1319 C 0.31853 0.86967 0.21626 0.0
C1320 C 0.37486 0.89587 0.17446 0.0
H1321 H 0.41382 0.95652 0.17361 0.0
C1322 C 0.3797 0.88782 0.14904 0.0
C1323 C 0.38755 0.921 0.18345 0.0
C1324 C 0.38484 0.93039 0.21125 0.0
C1325 C 0.39651 0.90412 0.13248 0.0
C1326 C 0.40893 0.92923 0.14138 0.0
C1327 C 0.40403 0.93743 0.16661 0.0
C1328 C 0.42846 0.94636 0.12564 0.0
C1329 C 0.40096 0.89445 0.10544 0.0
C1330 C 0.45383 0.9392 0.12605 0.0
C1331 C 0.47238 0.95491 0.11136 0.0
C1332 C 0.46608 0.97825 0.09559 0.0
C1333 C 0.4406 0.9855 0.09535 0.0
C1334 C 0.42207 0.96982 0.1104 0.0
H1335 H 0.38661 0.87674 0.09913 0.0
H1336 H 0.39921 0.91041 0.08856 0.0
H1337 H 0.42139 0.88907 0.10781 0.0
H1338 H 0.45932 0.92134 0.13779 0.0
H1339 H 0.49163 0.94844 0.11212 0.0
H1340 H 0.75976 0.23174 0.21009 0.0
H1341 H 0.72231 0.20448 0.18506 0.0
H1342 H 0.67419 0.21441 0.2473 0.0
H1343 H 0.71203 0.24291 0.27232 0.0
H1344 H 0.69529 0.15839 0.1989 0.0
H1345 H 0.62659 0.23473 0.17675 0.0
H1346 H 0.66127 0.24279 0.19068 0.0
H1347 H 0.63804 0.22716 0.21293 0.0
C1348 C 0.74125 0.22821 0.2186 0.0
C1349 C 0.73888 0.23955 0.24323 0.0
C1350 C 0.71978 0.21248 0.20422 0.0
C1351 C 0.69521 0.20746 0.21399 0.0
C1352 C 0.69277 0.21834 0.23897 0.0
H1353 H 0.57972 0.08655 0.12313 0.0
H1354 H 0.60857 0.10968 0.16099 0.0
C1355 C 0.71444 0.23442 0.25342 0.0
C1356 C 0.67266 0.19092 0.19742 0.0
H1357 H 0.61152 0.19324 0.15814 0.0
C1358 C 0.67684 0.16591 0.19021 0.0
C1359 C 0.64867 0.20079 0.18578 0.0
C1360 C 0.64332 0.22791 0.19167 0.0
C1361 C 0.65838 0.15104 0.17097 0.0
C1362 C 0.63442 0.16098 0.15918 0.0
C1363 C 0.62979 0.18555 0.16716 0.0
C1364 C 0.6149 0.14719 0.13707 0.0
C1365 C 0.66556 0.12556 0.16238 0.0
C1366 C 0.60757 0.16077 0.11132 0.0
C1367 C 0.59054 0.14773 0.08979 0.0
C1368 C 0.58058 0.12068 0.0934 0.0
C1369 C 0.58728 0.1073 0.11947 0.0
C1370 C 0.60398 0.12048 0.14114 0.0
H1371 H 0.68727 0.12457 0.16744 0.0
H1372 H 0.6552 0.10844 0.17375 0.0
H1373 H 0.65947 0.12339 0.13971 0.0
H1374 H 0.61557 0.18139 0.10757 0.0
H1375 H 0.58584 0.15869 0.07004 0.0
H1376 H 0.72178 0.69442 0.8 0.0
H1377 H 0.69592 0.6688 0.83342 0.0
H1378 H 0.71933 0.73109 0.8903 0.0
H1379 H 0.74602 0.75675 0.85677 0.0
H1380 H 0.72026 0.68176 0.91874 0.0
H1381 H 0.62407 0.67954 0.84913 0.0
H1382 H 0.64842 0.66653 0.83359 0.0
H1383 H 0.6535 0.70095 0.84142 0.0
C1384 C 0.72138 0.70293 0.81951 0.0
C1385 C 0.73581 0.72811 0.82517 0.0
C1386 C 0.70632 0.68815 0.83875 0.0
C1387 C 0.70482 0.69789 0.86456 0.0
C1388 C 0.71967 0.7229 0.87061 0.0
H1389 H 0.5784 0.63089 0.96233 0.0
H1390 H 0.60892 0.6583 0.9349 0.0
C1391 C 0.73484 0.73781 0.85121 0.0
C1392 C 0.68787 0.68186 0.88482 0.0
H1393 H 0.62487 0.64981 0.88939 0.0
C1394 C 0.69936 0.67492 0.91226 0.0
C1395 C 0.66035 0.67283 0.87703 0.0
C1396 C 0.64576 0.68055 0.8488 0.0
C1397 C 0.68453 0.65915 0.93152 0.0
C1398 C 0.65721 0.64938 0.92337 0.0
C1399 C 0.64571 0.65673 0.89605 0.0
C1400 C 0.63968 0.63274 0.94279 0.0
C1401 C 0.69826 0.6537 0.96071 0.0
C1402 C 0.64633 0.60885 0.95744 0.0
C1403 C 0.62864 0.5929 0.97374 0.0
C1404 C 0.60352 0.60011 0.9757 0.0
C1405 C 0.59735 0.6243 0.96155 0.0
C1406 C 0.61494 0.64017 0.94555 0.0
H1407 H 0.7162 0.66841 0.96604 0.0
H1408 H 0.68467 0.65404 0.97619 0.0
H1409 H 0.70475 0.63375 0.96244 0.0
H1410 H 0.66483 0.60194 0.95553 0.0
H1411 H 0.63418 0.57436 0.98378 0.0
H1412 H 0.29072 0.71063 0.85734 0.0
H1413 H 0.3134 0.67875 0.88984 0.0
H1414 H 0.38923 0.72367 0.87902 0.0
H1415 H 0.36688 0.75543 0.84663 0.0
H1416 H 0.35337 0.64706 0.88082 0.0
H1417 H 0.39174 0.71581 0.96455 0.0
H1418 H 0.3651 0.72233 0.93697 0.0
H1419 H 0.39908 0.7287 0.9308 0.0
C1420 C 0.31223 0.7138 0.86194 0.0
C1421 C 0.32688 0.73579 0.84932 0.0
C1422 C 0.32519 0.69548 0.88053 0.0
C1423 C 0.35309 0.69888 0.88728 0.0
C1424 C 0.36771 0.72073 0.87461 0.0
H1425 H 0.48366 0.62762 0.97626 0.0
H1426 H 0.451 0.65522 0.95305 0.0
C1427 C 0.35483 0.73888 0.8559 0.0
C1428 C 0.36714 0.67956 0.90713 0.0
H1429 H 0.41084 0.67564 0.96772 0.0
C1430 C 0.36565 0.65318 0.90003 0.0
C1431 C 0.38315 0.6874 0.9323 0.0
C1432 C 0.38475 0.71503 0.94183 0.0
C1433 C 0.3808 0.63497 0.91652 0.0
C1434 C 0.39753 0.64308 0.94129 0.0
C1435 C 0.39813 0.66921 0.94887 0.0
C1436 C 0.41676 0.62603 0.95788 0.0
C1437 C 0.37983 0.60766 0.90642 0.0
C1438 C 0.40868 0.6004 0.96952 0.0
C1439 C 0.42764 0.58427 0.98306 0.0
C1440 C 0.45504 0.59349 0.9852 0.0
C1441 C 0.46279 0.61964 0.97485 0.0
C1442 C 0.44403 0.63558 0.9615 0.0
H1443 H 0.37048 0.60641 0.88431 0.0
H1444 H 0.40014 0.60197 0.90857 0.0
H1445 H 0.36793 0.59299 0.91918 0.0
H1446 H 0.38776 0.59265 0.96773 0.0
H1447 H 0.42091 0.56428 0.99069 0.0
H1448 H 0.32524 0.3099 0.86428 0.0
H1449 H 0.35288 0.33887 0.89852 0.0
H1450 H 0.38251 0.38973 0.83195 0.0
H1451 H 0.35524 0.36073 0.79778 0.0
H1452 H 0.42269 0.37739 0.87381 0.0
H1453 H 0.34207 0.41197 0.91902 0.0
H1454 H 0.34088 0.37658 0.91957 0.0
H1455 H 0.33586 0.39548 0.88683 0.0
C1456 C 0.33752 0.32737 0.85698 0.0
C1457 C 0.33803 0.33303 0.8283 0.0
C1458 C 0.35323 0.34401 0.87657 0.0
C1459 C 0.36963 0.36674 0.86789 0.0
C1460 C 0.37003 0.37239 0.83924 0.0
H1461 H 0.47667 0.50046 0.92983 0.0
H1462 H 0.44933 0.46491 0.90411 0.0
C1463 C 0.35437 0.3558 0.81969 0.0
C1464 C 0.38707 0.3843 0.88843 0.0
H1465 H 0.38621 0.42664 0.93906 0.0
C1466 C 0.41467 0.38805 0.88813 0.0
C1467 C 0.37674 0.39813 0.90737 0.0
C1468 C 0.34726 0.39559 0.90819 0.0
C1469 C 0.43208 0.40543 0.90583 0.0
C1470 C 0.42169 0.41989 0.92413 0.0
C1471 C 0.39421 0.41554 0.9251 0.0
C1472 C 0.43874 0.44117 0.94055 0.0
C1473 C 0.46154 0.40819 0.90471 0.0
C1474 C 0.44167 0.44006 0.96981 0.0
C1475 C 0.45746 0.46061 0.98482 0.0
C1476 C 0.47028 0.48286 0.97078 0.0
C1477 C 0.46716 0.48377 0.94148 0.0
C1478 C 0.45161 0.46329 0.92664 0.0
H1479 H 0.46701 0.39042 0.89649 0.0
H1480 H 0.46712 0.42562 0.89062 0.0
H1481 H 0.47334 0.41126 0.92562 0.0
H1482 H 0.4318 0.42327 0.98103 0.0
H1483 H 0.45929 0.45925 1.00731 0.0
H1484 H 0.70388 0.40579 0.87767 0.0
H1485 H 0.67401 0.41939 0.90625 0.0
H1486 H 0.61466 0.35376 0.88008 0.0
H1487 H 0.64444 0.3404 0.85079 0.0
H1488 H 0.59326 0.39785 0.87535 0.0
H1489 H 0.6527 0.3915 0.97949 0.0
H1490 H 0.6724 0.41102 0.95606 0.0
H1491 H 0.66089 0.3765 0.9503 0.0
C1492 C 0.68467 0.39396 0.87845 0.0
C1493 C 0.67647 0.37202 0.86214 0.0
C1494 C 0.66766 0.40163 0.89492 0.0
C1495 C 0.64232 0.38722 0.89582 0.0
C1496 C 0.63421 0.36501 0.87987 0.0
H1497 H 0.55993 0.45951 1.00763 0.0
H1498 H 0.57505 0.42378 0.98649 0.0
C1499 C 0.65116 0.35748 0.86312 0.0
C1500 C 0.62365 0.3971 0.91137 0.0
H1501 H 0.62171 0.42438 0.97226 0.0
C1502 C 0.59917 0.40308 0.89677 0.0
C1503 C 0.6309 0.40321 0.93956 0.0
C1504 C 0.65553 0.3949 0.95729 0.0
C1505 C 0.58292 0.41713 0.90887 0.0
C1506 C 0.59184 0.4261 0.93586 0.0
C1507 C 0.61511 0.41803 0.95131 0.0
C1508 C 0.57915 0.44613 0.94732 0.0
C1509 C 0.55669 0.42273 0.89231 0.0
C1510 C 0.57626 0.47048 0.93224 0.0
C1511 C 0.56743 0.49082 0.94413 0.0
C1512 C 0.56187 0.4874 0.97158 0.0
C1513 C 0.56424 0.46281 0.98648 0.0
C1514 C 0.57278 0.44235 0.97442 0.0
H1515 H 0.54813 0.40651 0.87835 0.0
H1516 H 0.54202 0.42506 0.90606 0.0
H1517 H 0.55993 0.44129 0.87899 0.0
H1518 H 0.58185 0.47421 0.91164 0.0
H1519 H 0.56596 0.50955 0.93216 0.0
H1520 H 0.77043 0.35484 0.21223 0.0
H1521 H 0.7472 0.38576 0.17918 0.0
H1522 H 0.6807 0.37219 0.22465 0.0
H1523 H 0.70366 0.34131 0.25772 0.0
H1524 H 0.69675 0.37689 0.14453 0.0
H1525 H 0.69776 0.45392 0.21846 0.0
H1526 H 0.71903 0.42819 0.22562 0.0
H1527 H 0.68467 0.42107 0.23033 0.0
C1528 C 0.75091 0.35847 0.21535 0.0
C1529 C 0.7391 0.34552 0.23792 0.0
C1530 C 0.73759 0.37618 0.19631 0.0
C1531 C 0.71226 0.38173 0.1995 0.0
C1532 C 0.70038 0.36871 0.22189 0.0
H1533 H 0.5851 0.44506 0.08976 0.0
H1534 H 0.61736 0.41794 0.11566 0.0
C1535 C 0.71356 0.35087 0.24078 0.0
C1536 C 0.698 0.40065 0.17925 0.0
H1537 H 0.66969 0.45793 0.17484 0.0
C1538 C 0.69105 0.39471 0.15115 0.0
C1539 C 0.69076 0.4242 0.18759 0.0
C1540 C 0.69862 0.43245 0.21708 0.0
C1541 C 0.67625 0.411 0.1316 0.0
C1542 C 0.668 0.43392 0.14023 0.0
C1543 C 0.67585 0.4404 0.16808 0.0
C1544 C 0.64963 0.45026 0.12133 0.0
C1545 C 0.66946 0.40344 0.10182 0.0
C1546 C 0.65688 0.47763 0.11531 0.0
C1547 C 0.63839 0.49326 0.09997 0.0
C1548 C 0.61211 0.4819 0.09083 0.0
C1549 C 0.60526 0.45439 0.09614 0.0
C1550 C 0.62374 0.4388 0.11103 0.0
H1551 H 0.68328 0.39036 0.09675 0.0
H1552 H 0.64902 0.39246 0.09852 0.0
H1553 H 0.67007 0.42132 0.08716 0.0
H1554 H 0.67665 0.48706 0.12315 0.0
H1555 H 0.64415 0.51445 0.09681 0.0
H1556 H 0.689 0.73682 0.26528 0.0
H1557 H 0.66198 0.70727 0.23161 0.0
H1558 H 0.71721 0.73176 0.17345 0.0
H1559 H 0.74492 0.76067 0.2076 0.0
H1560 H 0.63566 0.71311 0.18034 0.0
H1561 H 0.71676 0.65302 0.17736 0.0
H1562 H 0.71937 0.67781 0.20225 0.0
H1563 H 0.72499 0.68744 0.16708 0.0
C1564 C 0.69533 0.73608 0.24525 0.0
C1565 C 0.71928 0.75088 0.23923 0.0
C1566 C 0.67982 0.71914 0.22596 0.0
C1567 C 0.6878 0.71668 0.20015 0.0
C1568 C 0.71098 0.73261 0.1935 0.0
H1569 H 0.60601 0.61446 0.06604 0.0
H1570 H 0.63185 0.65213 0.09087 0.0
C1571 C 0.72668 0.74936 0.21293 0.0
C1572 C 0.67217 0.69691 0.18079 0.0
H1573 H 0.67654 0.64171 0.14728 0.0
C1574 C 0.64469 0.69762 0.17303 0.0
C1575 C 0.6838 0.67643 0.17132 0.0
C1576 C 0.71277 0.67339 0.18011 0.0
C1577 C 0.62865 0.67843 0.15636 0.0
C1578 C 0.64031 0.65809 0.14702 0.0
C1579 C 0.66775 0.65756 0.15425 0.0
C1580 C 0.62397 0.63597 0.13161 0.0
C1581 C 0.59918 0.67961 0.14913 0.0
C1582 C 0.61102 0.61449 0.14631 0.0
C1583 C 0.59651 0.59293 0.13231 0.0
C1584 C 0.59449 0.59238 0.10321 0.0
C1585 C 0.60713 0.61421 0.08843 0.0
C1586 C 0.62192 0.63573 0.10257 0.0
H1587 H 0.59352 0.69814 0.15548 0.0
H1588 H 0.59287 0.67821 0.12637 0.0
H1589 H 0.58816 0.66239 0.15975 0.0
H1590 H 0.61238 0.6143 0.16873 0.0
H1591 H 0.58686 0.57664 0.14438 0.0
H1592 H 0.4276 0.71215 0.24867 0.0
H1593 H 0.46081 0.69424 0.22751 0.0
H1594 H 0.41288 0.70181 0.14688 0.0
H1595 H 0.37979 0.72002 0.16783 0.0
H1596 H 0.44417 0.6467 0.20055 0.0
H1597 H 0.4895 0.72495 0.13001 0.0
H1598 H 0.47376 0.73235 0.15854 0.0
H1599 H 0.45389 0.72226 0.12642 0.0
C1600 C 0.4246 0.71084 0.22631 0.0
C1601 C 0.40106 0.71726 0.20988 0.0
C1602 C 0.44355 0.70059 0.21428 0.0
C1603 C 0.43938 0.69694 0.18563 0.0
C1604 C 0.4167 0.70492 0.16894 0.0
H1605 H 0.4799 0.60161 0.06895 0.0
H1606 H 0.46677 0.63621 0.0936 0.0
C1607 C 0.39768 0.71502 0.18097 0.0
C1608 C 0.45602 0.68074 0.17398 0.0
H1609 H 0.49273 0.67988 0.12171 0.0
C1610 C 0.45527 0.65403 0.18368 0.0
C1611 C 0.47014 0.6904 0.15181 0.0
C1612 C 0.47212 0.71913 0.1412 0.0
C1613 C 0.4671 0.63628 0.17087 0.0
C1614 C 0.48075 0.64575 0.14822 0.0
C1615 C 0.48231 0.67272 0.13912 0.0
C1616 C 0.49164 0.62742 0.13252 0.0
C1617 C 0.46349 0.60728 0.1807 0.0
C1618 C 0.51065 0.61166 0.14599 0.0
C1619 C 0.51776 0.59157 0.13216 0.0
C1620 C 0.50641 0.5873 0.10444 0.0
C1621 C 0.48881 0.60432 0.09038 0.0
C1622 C 0.48138 0.62415 0.10439 0.0
H1623 H 0.44732 0.60245 0.1937 0.0
H1624 H 0.45881 0.59444 0.1628 0.0
H1625 H 0.48218 0.60233 0.19352 0.0
H1626 H 0.51932 0.61435 0.16749 0.0
H1627 H 0.53186 0.57912 0.14328 0.0
H1628 H 0.37423 0.33831 0.27208 0.0
H1629 H 0.39735 0.36654 0.23778 0.0
H1630 H 0.32317 0.36788 0.18262 0.0
H1631 H 0.2999 0.33935 0.21698 0.0
H1632 H 0.40176 0.35829 0.18214 0.0
H1633 H 0.35241 0.44765 0.1845 0.0
H1634 H 0.35108 0.42089 0.21117 0.0
H1635 H 0.33072 0.41714 0.17784 0.0
C1636 C 0.36273 0.34452 0.25265 0.0
C1637 C 0.33502 0.33639 0.24758 0.0
C1638 C 0.37607 0.3608 0.2329 0.0
C1639 C 0.36223 0.37004 0.20742 0.0
C1640 C 0.33453 0.3617 0.20214 0.0
H1641 H 0.42815 0.48312 0.07459 0.0
H1642 H 0.39687 0.45332 0.10076 0.0
C1643 C 0.32118 0.3451 0.22182 0.0
C1644 C 0.37706 0.38774 0.18654 0.0
H1645 H 0.38381 0.45031 0.15364 0.0
C1646 C 0.39766 0.37836 0.17593 0.0
C1647 C 0.37187 0.41402 0.17774 0.0
C1648 C 0.35047 0.42575 0.18846 0.0
C1649 C 0.41301 0.39417 0.15734 0.0
C1650 C 0.40867 0.42089 0.14944 0.0
C1651 C 0.38754 0.43007 0.15942 0.0
C1652 C 0.42715 0.43982 0.13284 0.0
C1653 C 0.4336 0.38166 0.14602 0.0
C1654 C 0.4547 0.44312 0.14196 0.0
C1655 C 0.47247 0.45983 0.127 0.0
C1656 C 0.46375 0.47464 0.10217 0.0
C1657 C 0.43598 0.47208 0.09327 0.0
C1658 C 0.41798 0.45496 0.1084 0.0
H1659 H 0.42793 0.35985 0.14517 0.0
H1660 H 0.43642 0.39016 0.12481 0.0
H1661 H 0.45287 0.38511 0.16003 0.0
H1662 H 0.4627 0.43281 0.16107 0.0
H1663 H 0.4934 0.46121 0.13541 0.0
H1664 H 0.84935 0.72071 0.62879 0.0
H1665 H 0.87837 0.70408 0.60111 0.0
H1666 H 0.89295 0.64153 0.66447 0.0
H1667 H 0.86348 0.65771 0.6921 0.0
H1668 H 0.93276 0.69978 0.61891 0.0
H1669 H 0.87467 0.60271 0.59137 0.0
H1670 H 0.86 0.62896 0.60323 0.0
H1671 H 0.87897 0.60815 0.62783 0.0
C1672 C 0.85823 0.70303 0.63656 0.0
C1673 C 0.85397 0.69039 0.66257 0.0
C1674 C 0.87495 0.69371 0.6208 0.0
C1675 C 0.88753 0.67144 0.6306 0.0
C1676 C 0.88305 0.6585 0.65633 0.0
H1677 H 0.02583 0.61077 0.61505 0.0
H1678 H 0.99306 0.63816 0.62353 0.0
C1679 C 0.8664 0.66788 0.67219 0.0
C1680 C 0.90671 0.66272 0.61486 0.0
H1681 H 0.92072 0.60881 0.586 0.0
C1682 C 0.92996 0.68004 0.61129 0.0
C1683 C 0.90281 0.63714 0.60458 0.0
C1684 C 0.87765 0.61822 0.60667 0.0
C1685 C 0.95017 0.67184 0.59917 0.0
C1686 C 0.94701 0.64567 0.59057 0.0
C1687 C 0.92309 0.62889 0.59264 0.0
C1688 C 0.96935 0.63408 0.58285 0.0
C1689 C 0.97505 0.69096 0.59636 0.0
C1690 C 0.9672 0.62323 0.5569 0.0
C1691 C 0.98619 0.60785 0.55192 0.0
C1692 C 1.00716 0.60286 0.57303 0.0
C1693 C 1.01 0.6148 0.59838 0.0
C1694 C 0.99132 0.63043 0.6032 0.0
H1695 H 0.97131 0.7119 0.59591 0.0
H1696 H 0.99045 0.68749 0.61451 0.0
H1697 H 0.98306 0.688 0.57717 0.0
H1698 H 0.95018 0.62559 0.54109 0.0
H1699 H 0.98342 0.59828 0.53245 0.0
H1700 H 0.37983 0.79894 0.63357 0.0
H1701 H 0.40077 0.81072 0.59155 0.0
H1702 H 0.3949 0.89325 0.59874 0.0
H1703 H 0.37343 0.88159 0.64002 0.0
H1704 H 0.38842 0.87798 0.5421 0.0
H1705 H 0.47849 0.8454 0.60848 0.0
H1706 H 0.44886 0.82196 0.60158 0.0
H1707 H 0.4494 0.84858 0.62357 0.0
C1708 C 0.38228 0.81948 0.62563 0.0
C1709 C 0.37553 0.83946 0.64034 0.0
C1710 C 0.39433 0.82617 0.60172 0.0
C1711 C 0.39978 0.85288 0.59234 0.0
C1712 C 0.39091 0.8725 0.60565 0.0
H1713 H 0.48246 0.98398 0.55787 0.0
H1714 H 0.44885 0.94509 0.5543 0.0
C1715 C 0.37892 0.86587 0.62941 0.0
C1716 C 0.4183 0.86154 0.57202 0.0
H1717 H 0.4851 0.87797 0.57312 0.0
C1718 C 0.40955 0.87721 0.5482 0.0
C1719 C 0.44584 0.86006 0.5796 0.0
C1720 C 0.45641 0.84317 0.60468 0.0
C1721 C 0.4278 0.89406 0.53402 0.0
C1722 C 0.45523 0.89559 0.54441 0.0
C1723 C 0.46399 0.87705 0.56547 0.0
C1724 C 0.4738 0.92004 0.53983 0.0
C1725 C 0.41749 0.91174 0.50956 0.0
C1726 C 0.49913 0.919 0.53295 0.0
C1727 C 0.51849 0.94144 0.53499 0.0
C1728 C 0.51283 0.96485 0.54459 0.0
C1729 C 0.48727 0.96609 0.55049 0.0
C1730 C 0.46792 0.94397 0.548 0.0
H1731 H 0.39975 0.90113 0.49696 0.0
H1732 H 0.41125 0.92935 0.51727 0.0
H1733 H 0.43288 0.91861 0.496 0.0
H1734 H 0.50422 0.9006 0.52707 0.0
H1735 H 0.53817 0.94013 0.53039 0.0
H1736 H 0.25828 0.34046 0.70528 0.0
H1737 H 0.23319 0.37356 0.678 0.0
H1738 H 0.20577 0.39238 0.75216 0.0
H1739 H 0.23112 0.36001 0.7796 0.0
H1740 H 0.17988 0.37258 0.67084 0.0
H1741 H 0.22765 0.4656 0.71867 0.0
H1742 H 0.24259 0.43534 0.72444 0.0
H1743 H 0.21709 0.44044 0.74404 0.0
C1744 C 0.24726 0.35195 0.71586 0.0
C1745 C 0.24674 0.34754 0.74464 0.0
C1746 C 0.23293 0.37085 0.70024 0.0
C1747 C 0.21793 0.38574 0.71311 0.0
C1748 C 0.21774 0.38166 0.74188 0.0
H1749 H 0.09284 0.48332 0.66071 0.0
H1750 H 0.12681 0.45789 0.68671 0.0
C1751 C 0.23212 0.36292 0.75751 0.0
C1752 C 0.20066 0.40388 0.69625 0.0
H1753 H 0.18463 0.46695 0.69122 0.0
C1754 C 0.18115 0.3933 0.67505 0.0
C1755 C 0.20228 0.43089 0.70186 0.0
C1756 C 0.22371 0.44381 0.72331 0.0
C1757 C 0.16268 0.40875 0.65988 0.0
C1758 C 0.16393 0.43557 0.66594 0.0
C1759 C 0.18365 0.44631 0.68683 0.0
C1760 C 0.14481 0.45267 0.6507 0.0
C1761 C 0.1415 0.39604 0.63803 0.0
C1762 C 0.14425 0.45871 0.62208 0.0
C1763 C 0.12497 0.47314 0.60723 0.0
C1764 C 0.10586 0.48194 0.62073 0.0
C1765 C 0.10716 0.47676 0.64967 0.0
C1766 C 0.12654 0.46227 0.66454 0.0
H1767 H 0.13956 0.37402 0.6403 0.0
H1768 H 0.12188 0.40226 0.6391 0.0
H1769 H 0.1468 0.40248 0.61708 0.0
H1770 H 0.15847 0.45185 0.61113 0.0
H1771 H 0.12476 0.47688 0.58499 0.0
H1772 H 0.74321 0.28345 0.69068 0.0
H1773 H 0.71595 0.25274 0.6584 0.0
H1774 H 0.72247 0.1887 0.72163 0.0
H1775 H 0.74928 0.21973 0.75445 0.0
H1776 H 0.72313 0.20931 0.63556 0.0
H1777 H 0.64319 0.18166 0.70071 0.0
H1778 H 0.66967 0.20851 0.70853 0.0
H1779 H 0.6751 0.17468 0.71817 0.0
C1780 C 0.73894 0.2628 0.69779 0.0
C1781 C 0.74827 0.25417 0.72535 0.0
C1782 C 0.7233 0.24518 0.67919 0.0
C1783 C 0.71644 0.21834 0.68753 0.0
C1784 C 0.7267 0.20939 0.71474 0.0
H1785 H 0.62566 0.08133 0.60794 0.0
H1786 H 0.65489 0.11314 0.63707 0.0
C1787 C 0.74231 0.22711 0.73348 0.0
C1788 C 0.69839 0.20011 0.66775 0.0
H1789 H 0.64006 0.15731 0.66067 0.0
C1790 C 0.7049 0.19808 0.64107 0.0
C1791 C 0.67434 0.18547 0.67456 0.0
C1792 C 0.66497 0.18784 0.70192 0.0
C1793 C 0.68857 0.18149 0.62155 0.0
C1794 C 0.66482 0.16658 0.62861 0.0
C1795 C 0.65821 0.16871 0.65515 0.0
C1796 C 0.64729 0.14749 0.60953 0.0
C1797 C 0.69717 0.17944 0.59374 0.0
C1798 C 0.63297 0.15601 0.584 0.0
C1799 C 0.61581 0.13765 0.56703 0.0
C1800 C 0.6127 0.11033 0.57517 0.0
C1801 C 0.62737 0.10206 0.60065 0.0
C1802 C 0.6442 0.12032 0.61755 0.0
H1803 H 0.7181 0.18857 0.59321 0.0
H1804 H 0.69512 0.15834 0.58871 0.0
H1805 H 0.68417 0.18979 0.57727 0.0
H1806 H 0.63471 0.17691 0.57742 0.0
H1807 H 0.6049 0.14487 0.54769 0.0
H1808 H 0.85092 0.32808 0.32797 0.0
H1809 H 0.88865 0.35647 0.35338 0.0
H1810 H 0.83403 0.39107 0.39336 0.0
H1811 H 0.79676 0.36302 0.36843 0.0
H1812 H 0.87491 0.42863 0.37333 0.0
H1813 H 0.91405 0.34439 0.43917 0.0
H1814 H 0.909 0.34161 0.40208 0.0
H1815 H 0.88089 0.34148 0.41968 0.0
C1816 C 0.84708 0.34206 0.34187 0.0
C1817 C 0.82094 0.34336 0.34624 0.0
C1818 C 0.86859 0.35808 0.35655 0.0
C1819 C 0.86417 0.37568 0.37556 0.0
C1820 C 0.83797 0.37763 0.37893 0.0
H1821 H 0.97198 0.4528 0.51242 0.0
H1822 H 0.93409 0.42764 0.48393 0.0
C1823 C 0.81667 0.36157 0.36461 0.0
C1824 C 0.88649 0.39177 0.39268 0.0
H1825 H 0.93727 0.38722 0.44682 0.0
C1826 C 0.88864 0.41958 0.38929 0.0
C1827 C 0.90404 0.37996 0.41391 0.0
C1828 C 0.90192 0.35023 0.41923 0.0
C1829 C 0.90803 0.43586 0.40629 0.0
C1830 C 0.9259 0.42407 0.42722 0.0
C1831 C 0.92357 0.39626 0.43082 0.0
C1832 C 0.94792 0.44026 0.44463 0.0
C1833 C 0.90907 0.46558 0.40188 0.0
C1834 C 0.96813 0.45579 0.43204 0.0
C1835 C 0.98966 0.46998 0.44817 0.0
C1836 C 0.99163 0.46903 0.47738 0.0
C1837 C 0.97103 0.45402 0.49001 0.0
C1838 C 0.94947 0.43955 0.47376 0.0
H1839 H 0.88995 0.47132 0.39072 0.0
H1840 H 0.91392 0.47523 0.42199 0.0
H1841 H 0.92483 0.47337 0.38905 0.0
H1842 H 0.96757 0.45647 0.4097 0.0
H1843 H 1.00503 0.48149 0.43768 0.0
H1844 H 0.73382 0.82163 0.36289 0.0
H1845 H 0.70841 0.84957 0.38386 0.0
H1846 H 0.6985 0.8979 0.30716 0.0
H1847 H 0.7234 0.86957 0.28592 0.0
H1848 H 0.71484 0.89904 0.39707 0.0
H1849 H 0.62342 0.88951 0.31972 0.0
H1850 H 0.64939 0.86927 0.31986 0.0
H1851 H 0.65243 0.9027 0.30438 0.0
C1852 C 0.72612 0.83805 0.35022 0.0
C1853 C 0.73092 0.84281 0.32231 0.0
C1854 C 0.71144 0.8543 0.36244 0.0
C1855 C 0.70056 0.8761 0.34739 0.0
C1856 C 0.7056 0.88106 0.31954 0.0
H1857 H 0.60655 0.99751 0.39284 0.0
H1858 H 0.63206 0.97145 0.36922 0.0
C1859 C 0.72029 0.86477 0.30729 0.0
C1860 C 0.68481 0.89366 0.3611 0.0
H1861 H 0.62635 0.92134 0.35326 0.0
C1862 C 0.69543 0.90367 0.38733 0.0
C1863 C 0.65928 0.90042 0.34902 0.0
C1864 C 0.6453 0.88973 0.32185 0.0
C1865 C 0.68198 0.91998 0.40119 0.0
C1866 C 0.65635 0.92654 0.38925 0.0
C1867 C 0.6458 0.91675 0.3629 0.0
C1868 C 0.64022 0.94293 0.40389 0.0
C1869 C 0.69601 0.93069 0.42835 0.0
C1870 C 0.63528 0.93607 0.43146 0.0
C1871 C 0.62061 0.95109 0.44511 0.0
C1872 C 0.6098 0.97377 0.43193 0.0
C1873 C 0.61439 0.98048 0.40415 0.0
C1874 C 0.62911 0.96535 0.39044 0.0
H1875 H 0.71794 0.93161 0.43003 0.0
H1876 H 0.69134 0.95086 0.43074 0.0
H1877 H 0.68953 0.91728 0.44583 0.0
H1878 H 0.64253 0.91869 0.44258 0.0
H1879 H 0.61766 0.94467 0.46625 0.0
H1880 H 0.25114 0.70952 0.34032 0.0
H1881 H 0.22461 0.68184 0.37182 0.0
H1882 H 0.19093 0.7501 0.38909 0.0
H1883 H 0.21728 0.77805 0.35718 0.0
H1884 H 0.22355 0.6844 0.428 0.0
H1885 H 0.12446 0.69727 0.36773 0.0
H1886 H 0.15492 0.70692 0.35331 0.0
H1887 H 0.14548 0.72747 0.37718 0.0
C1888 C 0.23813 0.71879 0.35077 0.0
C1889 C 0.23639 0.74614 0.34599 0.0
C1890 C 0.22292 0.70284 0.36887 0.0
C1891 C 0.20536 0.71366 0.38264 0.0
C1892 C 0.20387 0.74106 0.37835 0.0
H1893 H 0.09263 0.62824 0.49057 0.0
H1894 H 0.11976 0.66385 0.46647 0.0
C1895 C 0.21916 0.75711 0.36021 0.0
C1896 C 0.18895 0.69607 0.4015 0.0
H1897 H 0.12493 0.67093 0.4099 0.0
C1898 C 0.20198 0.68159 0.42407 0.0
C1899 C 0.16074 0.69238 0.39663 0.0
C1900 C 0.14547 0.70662 0.3723 0.0
C1901 C 0.18774 0.66346 0.44156 0.0
C1902 C 0.15956 0.65913 0.43617 0.0
C1903 C 0.14648 0.67417 0.41413 0.0
C1904 C 0.14352 0.63779 0.45187 0.0
C1905 C 0.20311 0.64913 0.46575 0.0
C1906 C 0.14761 0.61121 0.45168 0.0
C1907 C 0.13221 0.59088 0.4654 0.0
C1908 C 0.11202 0.5964 0.47967 0.0
C1909 C 0.10802 0.62312 0.48002 0.0
C1910 C 0.12348 0.64354 0.46612 0.0
H1911 H 0.22298 0.66046 0.47239 0.0
H1912 H 0.19213 0.64565 0.48386 0.0
H1913 H 0.20626 0.62961 0.45936 0.0
H1914 H 0.16247 0.60604 0.44041 0.0
H1915 H 0.13601 0.57069 0.46443 0.0
H1916 H 0.34545 0.21661 0.297 0.0
H1917 H 0.3798 0.18937 0.31868 0.0
H1918 H 0.39264 0.23401 0.3919 0.0
H1919 H 0.35762 0.26031 0.37085 0.0
H1920 H 0.43006 0.19494 0.33513 0.0
H1921 H 0.38838 0.16445 0.43203 0.0
H1922 H 0.37037 0.18198 0.40324 0.0
H1923 H 0.39519 0.19986 0.42789 0.0
C1924 C 0.3554 0.22056 0.31784 0.0
C1925 C 0.34813 0.24078 0.33206 0.0
C1926 C 0.37532 0.20483 0.33037 0.0
C1927 C 0.38896 0.2086 0.35767 0.0
C1928 C 0.38218 0.22939 0.37146 0.0
H1929 H 0.52351 0.14488 0.46707 0.0
H1930 H 0.48852 0.1703 0.4437 0.0
C1931 C 0.36208 0.24486 0.35911 0.0
C1932 C 0.41039 0.19139 0.37133 0.0
H1933 H 0.43306 0.15666 0.43223 0.0
C1934 C 0.43036 0.18646 0.3563 0.0
C1935 C 0.41151 0.17971 0.39909 0.0
C1936 C 0.39006 0.18151 0.41637 0.0
C1937 C 0.45116 0.17135 0.3681 0.0
C1938 C 0.45256 0.1603 0.39601 0.0
C1939 C 0.43257 0.16504 0.41099 0.0
C1940 C 0.47462 0.14423 0.41015 0.0
C1941 C 0.472 0.16797 0.35067 0.0
C1942 C 0.47907 0.12045 0.39976 0.0
C1943 C 0.49921 0.10549 0.41343 0.0
C1944 C 0.51595 0.11372 0.438 0.0
C1945 C 0.51147 0.13758 0.44825 0.0
C1946 C 0.49117 0.15231 0.4348 0.0
H1947 H 0.47209 0.18264 0.33248 0.0
H1948 H 0.49212 0.17005 0.36325 0.0
H1949 H 0.4678 0.1478 0.34273 0.0
H1950 H 0.46661 0.1131 0.3812 0.0
H1951 H 0.50159 0.08732 0.40472 0.0
H1952 H 0.73816 0.8138 0.69832 0.0
H1953 H 0.716 0.8444 0.6643 0.0
H1954 H 0.70419 0.89009 0.73057 0.0
H1955 H 0.72607 0.85931 0.7649 0.0
H1956 H 0.65965 0.88305 0.69128 0.0
H1957 H 0.74711 0.91799 0.6381 0.0
H1958 H 0.73793 0.88265 0.63914 0.0
H1959 H 0.74964 0.89885 0.67103 0.0
C1960 C 0.73079 0.83025 0.70582 0.0
C1961 C 0.73408 0.83393 0.73458 0.0
C1962 C 0.71829 0.84798 0.68618 0.0
C1963 C 0.70887 0.87007 0.69463 0.0
C1964 C 0.71143 0.8734 0.72335 0.0
H1965 H 0.62775 1.0014 0.61471 0.0
H1966 H 0.65258 0.9711 0.64632 0.0
C1967 C 0.72394 0.85566 0.74305 0.0
C1968 C 0.696 0.8894 0.67363 0.0
H1969 H 0.7061 0.932 0.61683 0.0
C1970 C 0.66991 0.89381 0.67511 0.0
C1971 C 0.70917 0.9035 0.65228 0.0
C1972 C 0.73759 0.90076 0.65011 0.0
C1973 C 0.65663 0.91145 0.65584 0.0
C1974 C 0.66985 0.9257 0.63462 0.0
C1975 C 0.69586 0.92117 0.63297 0.0
C1976 C 0.65709 0.94575 0.61452 0.0
C1977 C 0.62824 0.91426 0.65811 0.0
C1978 C 0.65253 0.94273 0.58562 0.0
C1979 C 0.63841 0.96037 0.5672 0.0
C1980 C 0.62859 0.98152 0.57727 0.0
C1981 C 0.63465 0.98528 0.60605 0.0
C1982 C 0.64874 0.96776 0.62432 0.0
H1983 H 0.61866 0.89694 0.66995 0.0
H1984 H 0.62799 0.93226 0.66928 0.0
H1985 H 0.6162 0.9164 0.6372 0.0
H1986 H 0.65897 0.9261 0.5774 0.0
H1987 H 0.6341 0.95666 0.54529 0.0
H1988 H 0.71367 0.22138 0.47158 0.0
H1989 H 0.72349 0.18273 0.50167 0.0
H1990 H 0.79549 0.18215 0.46675 0.0
H1991 H 0.78545 0.22097 0.43634 0.0
H1992 H 0.76089 0.14223 0.45088 0.0
H1993 H 0.76083 0.13831 0.56233 0.0
H1994 H 0.74019 0.16306 0.54842 0.0
H1995 H 0.77484 0.16798 0.54382 0.0
C1996 C 0.73222 0.21377 0.47129 0.0
C1997 C 0.74835 0.2236 0.45115 0.0
C1998 C 0.73819 0.19184 0.48892 0.0
C1999 C 0.76022 0.1792 0.48639 0.0
C2000 C 0.77847 0.19153 0.46917 0.0
H2001 H 0.64276 0.04805 0.45895 0.0
H2002 H 0.69131 0.05897 0.47049 0.0
C2003 C 0.77256 0.21364 0.45163 0.0
C2004 C 0.75788 0.15014 0.49292 0.0
H2005 H 0.71963 0.11076 0.53473 0.0
C2006 C 0.75286 0.13462 0.46969 0.0
C2007 C 0.74909 0.13908 0.51787 0.0
C2008 C 0.7569 0.15302 0.54456 0.0
C2009 C 0.73273 0.11284 0.46811 0.0
C2010 C 0.7187 0.10614 0.49097 0.0
C2011 C 0.72944 0.11688 0.51666 0.0
C2012 C 0.68969 0.09711 0.48614 0.0
C2013 C 0.72388 0.10031 0.44062 0.0
C2014 C 0.67264 0.11465 0.49147 0.0
C2015 C 0.64521 0.10825 0.48542 0.0
C2016 C 0.63423 0.08453 0.47317 0.0
C2017 C 0.65103 0.06692 0.46754 0.0
C2018 C 0.67867 0.07303 0.47434 0.0
H2019 H 0.7373 0.10782 0.42513 0.0
H2020 H 0.72353 0.07849 0.44373 0.0
H2021 H 0.7035 0.10449 0.43184 0.0
H2022 H 0.68058 0.13355 0.50017 0.0
H2023 H 0.63252 0.1218 0.49043 0.0
H2024 H 0.79355 0.61502 0.38765 0.0
H2025 H 0.82422 0.58251 0.40367 0.0
H2026 H 0.87746 0.62087 0.34804 0.0
H2027 H 0.84699 0.65326 0.33186 0.0
H2028 H 0.8772 0.56291 0.35849 0.0
H2029 H 0.89063 0.62022 0.4533 0.0
H2030 H 0.85745 0.60467 0.44173 0.0
H2031 H 0.87267 0.63121 0.42053 0.0
C2032 C 0.81142 0.61599 0.37825 0.0
C2033 C 0.81816 0.63692 0.35893 0.0
C2034 C 0.82882 0.59738 0.38731 0.0
C2035 C 0.85323 0.59969 0.37735 0.0
C2036 C 0.85867 0.61881 0.35592 0.0
H2037 H 1.0118 0.56389 0.4272 0.0
H2038 H 0.96865 0.57118 0.40031 0.0
C2039 C 0.84122 0.63731 0.34671 0.0
C2040 C 0.87508 0.58612 0.39275 0.0
H2041 H 0.91863 0.58824 0.45325 0.0
C2042 C 0.8861 0.56807 0.37937 0.0
C2043 C 0.88676 0.59326 0.41982 0.0
C2044 C 0.87649 0.61354 0.43471 0.0
C2045 C 0.90874 0.55698 0.39246 0.0
C2046 C 0.92073 0.56464 0.41928 0.0
C2047 C 0.90926 0.58224 0.43278 0.0
C2048 C 0.94604 0.55616 0.43353 0.0
C2049 C 0.9196 0.53741 0.37735 0.0
C2050 C 0.94764 0.54535 0.46107 0.0
C2051 C 0.97222 0.54193 0.47661 0.0
C2052 C 0.99567 0.54899 0.46481 0.0
C2053 C 0.99399 0.55841 0.43678 0.0
C2054 C 0.96935 0.56228 0.42132 0.0
H2055 H 0.90349 0.52612 0.36325 0.0
H2056 H 0.93402 0.54839 0.36438 0.0
H2057 H 0.92998 0.52316 0.39205 0.0
H2058 H 0.92991 0.5405 0.47088 0.0
H2059 H 0.9729 0.53409 0.49803 0.0
H2060 H 0.32349 0.86002 0.31336 0.0
H2061 H 0.35439 0.89183 0.34187 0.0
H2062 H 0.37605 0.82801 0.40096 0.0
H2063 H 0.34543 0.79606 0.37242 0.0
H2064 H 0.36089 0.90358 0.4004 0.0
H2065 H 0.4461 0.86126 0.37211 0.0
H2066 H 0.41271 0.85437 0.35374 0.0
H2067 H 0.42185 0.83783 0.38715 0.0
C2068 C 0.33462 0.85284 0.3326 0.0
C2069 C 0.33243 0.82557 0.34053 0.0
C2070 C 0.35216 0.87101 0.34888 0.0
C2071 C 0.36772 0.86216 0.37325 0.0
C2072 C 0.36445 0.83513 0.38199 0.0
H2073 H 0.50585 0.93832 0.47659 0.0
H2074 H 0.46625 0.90848 0.4593 0.0
C2075 C 0.34696 0.81694 0.36571 0.0
C2076 C 0.38884 0.88085 0.38827 0.0
H2077 H 0.45629 0.89527 0.40339 0.0
C2078 C 0.38176 0.9018 0.40115 0.0
C2079 C 0.41601 0.87844 0.38905 0.0
C2080 C 0.42476 0.85692 0.37461 0.0
C2081 C 0.40129 0.92034 0.41509 0.0
C2082 C 0.42842 0.91798 0.41565 0.0
C2083 C 0.43543 0.89692 0.40295 0.0
C2084 C 0.45014 0.93737 0.42869 0.0
C2085 C 0.39284 0.94208 0.42936 0.0
C2086 C 0.45404 0.96363 0.41741 0.0
C2087 C 0.47666 0.98089 0.42745 0.0
C2088 C 0.49573 0.9721 0.44891 0.0
C2089 C 0.49131 0.94595 0.46055 0.0
C2090 C 0.46877 0.92877 0.45054 0.0
H2091 H 0.37172 0.93752 0.43269 0.0
H2092 H 0.40555 0.94529 0.44979 0.0
H2093 H 0.39509 0.96088 0.41623 0.0
H2094 H 0.44012 0.97047 0.40015 0.0
H2095 H 0.4795 1.00089 0.41802 0.0
H2096 H 0.22528 0.29888 0.45317 0.0
H2097 H 0.19431 0.30733 0.48384 0.0
H2098 H 0.22328 0.39097 0.47736 0.0
H2099 H 0.2537 0.38293 0.44665 0.0
H2100 H 0.21347 0.37033 0.53238 0.0
H2101 H 0.12839 0.34317 0.4486 0.0
H2102 H 0.15078 0.31936 0.46123 0.0
H2103 H 0.1622 0.34888 0.44148 0.0
C2104 C 0.22518 0.31904 0.45851 0.0
C2105 C 0.24189 0.34025 0.4473 0.0
C2106 C 0.20757 0.32378 0.47609 0.0
C2107 C 0.20641 0.34979 0.48264 0.0
C2108 C 0.22401 0.37072 0.4727 0.0
H2109 H 0.13694 0.4718 0.50915 0.0
H2110 H 0.16402 0.43641 0.50976 0.0
C2111 C 0.24151 0.36605 0.45518 0.0
C2112 C 0.18534 0.35629 0.49729 0.0
H2113 H 0.12111 0.36908 0.48311 0.0
C2114 C 0.19303 0.36931 0.52212 0.0
C2115 C 0.15862 0.35467 0.48403 0.0
C2116 C 0.14932 0.34086 0.45732 0.0
C2117 C 0.17534 0.383 0.53252 0.0
C2118 C 0.14959 0.38391 0.51746 0.0
C2119 C 0.14097 0.36842 0.49447 0.0
C2120 C 0.13383 0.40498 0.52117 0.0
C2121 C 0.18488 0.39793 0.55844 0.0
C2122 C 0.10775 0.399 0.52721 0.0
C2123 C 0.09211 0.41934 0.52692 0.0
C2124 C 0.10219 0.44578 0.51985 0.0
C2125 C 0.12848 0.45162 0.51435 0.0
C2126 C 0.14413 0.43144 0.51506 0.0
H2127 H 0.20039 0.38821 0.57249 0.0
H2128 H 0.19384 0.41834 0.55251 0.0
H2129 H 0.16821 0.39936 0.56995 0.0
H2130 H 0.09938 0.37861 0.53158 0.0
H2131 H 0.0719 0.4143 0.53126 0.0
H2132 H 0.4058 0.23399 0.66447 0.0
H2133 H 0.43036 0.2106 0.63757 0.0
H2134 H 0.37784 0.13825 0.65064 0.0
H2135 H 0.3533 0.16139 0.67782 0.0
H2136 H 0.45825 0.16921 0.65157 0.0
H2137 H 0.37594 0.14027 0.56716 0.0
H2138 H 0.3738 0.16421 0.59165 0.0
H2139 H 0.36821 0.12923 0.60121 0.0
C2140 C 0.39948 0.21305 0.66191 0.0
C2141 C 0.37729 0.1998 0.67353 0.0
C2142 C 0.41354 0.19966 0.64624 0.0
C2143 C 0.40583 0.17262 0.64141 0.0
C2144 C 0.38391 0.15923 0.65322 0.0
H2145 H 0.50465 0.06352 0.59673 0.0
H2146 H 0.47681 0.08815 0.61796 0.0
C2147 C 0.36984 0.17259 0.66892 0.0
C2148 C 0.42127 0.15835 0.62493 0.0
H2149 H 0.41533 0.12012 0.56896 0.0
C2150 C 0.44878 0.15861 0.63345 0.0
C2151 C 0.40929 0.14471 0.60089 0.0
C2152 C 0.38025 0.14475 0.58946 0.0
C2153 C 0.46429 0.14518 0.61931 0.0
C2154 C 0.45212 0.13063 0.596 0.0
C2155 C 0.42477 0.13098 0.58692 0.0
C2156 C 0.46742 0.11431 0.58163 0.0
C2157 C 0.49377 0.14688 0.62943 0.0
C2158 C 0.47073 0.11979 0.55346 0.0
C2159 C 0.48681 0.10548 0.54096 0.0
C2160 C 0.49983 0.08521 0.55632 0.0
C2161 C 0.49533 0.07908 0.58411 0.0
C2162 C 0.47941 0.09332 0.59648 0.0
H2163 H 0.50119 0.1643 0.6421 0.0
H2164 H 0.49782 0.12874 0.6427 0.0
H2165 H 0.50514 0.14824 0.61171 0.0
H2166 H 0.46158 0.13572 0.54136 0.0
H2167 H 0.48975 0.11093 0.51962 0.0
H2168 H 0.86296 0.29656 0.7313 0.0
H2169 H 0.89404 0.31913 0.70124 0.0
H2170 H 0.86065 0.3917 0.70188 0.0
H2171 H 0.82924 0.3692 0.73208 0.0
H2172 H 0.8701 0.37968 0.64762 0.0
H2173 H 0.95896 0.37342 0.72822 0.0
H2174 H 0.9381 0.34248 0.72145 0.0
H2175 H 0.92554 0.36807 0.73655 0.0
C2176 C 0.86212 0.31734 0.72518 0.0
C2177 C 0.84359 0.33104 0.73448 0.0
C2178 C 0.88003 0.33025 0.70793 0.0
C2179 C 0.87999 0.35724 0.69949 0.0
C2180 C 0.86115 0.37088 0.70815 0.0
H2181 H 0.99536 0.4773 0.64367 0.0
H2182 H 0.96412 0.44604 0.66646 0.0
C2183 C 0.84323 0.35798 0.72552 0.0
C2184 C 0.89998 0.37131 0.68222 0.0
H2185 H 0.96663 0.39168 0.68376 0.0
C2186 C 0.89122 0.38214 0.65543 0.0
C2187 C 0.92758 0.37462 0.69239 0.0
C2188 C 0.93822 0.36426 0.72129 0.0
C2189 C 0.90926 0.3964 0.63875 0.0
C2190 C 0.93684 0.39987 0.64904 0.0
C2191 C 0.94557 0.38871 0.67567 0.0
C2192 C 0.9565 0.41802 0.63435 0.0
C2193 C 0.89867 0.40858 0.61068 0.0
C2194 C 0.96318 0.41261 0.60864 0.0
C2195 C 0.98148 0.43068 0.59532 0.0
C2196 C 0.99309 0.45456 0.60741 0.0
C2197 C 0.98662 0.45938 0.6334 0.0
C2198 C 0.96875 0.44141 0.64664 0.0
H2199 H 0.8766 0.4067 0.60706 0.0
H2200 H 0.90684 0.42993 0.60875 0.0
H2201 H 0.90515 0.39855 0.59412 0.0
H2202 H 0.95423 0.3945 0.59887 0.0
H2203 H 0.98598 0.42633 0.57538 0.0
H2204 H 0.28175 0.70689 0.74428 0.0
H2205 H 0.25218 0.67583 0.71399 0.0
H2206 H 0.1939 0.73024 0.69919 0.0
H2207 H 0.22315 0.76101 0.73041 0.0
H2208 H 0.1704 0.68167 0.70709 0.0
H2209 H 0.23881 0.67959 0.63092 0.0
H2210 H 0.25366 0.6701 0.66545 0.0
H2211 H 0.24521 0.70323 0.6575 0.0
C2212 C 0.2626 0.7122 0.73459 0.0
C2213 C 0.25482 0.73643 0.73957 0.0
C2214 C 0.24582 0.69455 0.71701 0.0
C2215 C 0.22107 0.70095 0.70356 0.0
C2216 C 0.21299 0.72493 0.70905 0.0
H2217 H 0.12194 0.61109 0.56911 0.0
H2218 H 0.15403 0.6441 0.5952 0.0
C2219 C 0.22968 0.74248 0.72695 0.0
C2220 C 0.20329 0.68221 0.68461 0.0
H2221 H 0.20156 0.64505 0.62894 0.0
C2222 C 0.1772 0.67387 0.68987 0.0
C2223 C 0.21185 0.67233 0.6617 0.0
C2224 C 0.23882 0.68201 0.65336 0.0
C2225 C 0.15979 0.6554 0.67355 0.0
C2226 C 0.16893 0.64419 0.65183 0.0
C2227 C 0.19469 0.6532 0.64589 0.0
C2228 C 0.15201 0.62295 0.63539 0.0
C2229 C 0.13161 0.64838 0.6796 0.0
C2230 C 0.14128 0.59948 0.64902 0.0
C2231 C 0.12287 0.58086 0.63427 0.0
C2232 C 0.11523 0.58495 0.60541 0.0
C2233 C 0.12754 0.60738 0.59133 0.0
C2234 C 0.14575 0.6263 0.60625 0.0
H2235 H 0.12547 0.6644 0.69021 0.0
H2236 H 0.11735 0.64471 0.66023 0.0
H2237 H 0.13027 0.63012 0.69365 0.0
H2238 H 0.14648 0.59594 0.67131 0.0
H2239 H 0.11395 0.56358 0.64563 0.0
loop_
_geom_bond_atom_site_label_1
_geom_bond_atom_site_label_2
_geom_bond_distance
_geom_bond_site_symmetry_2
_ccdc_geom_bond_type
C0 Eu1 2.835 . S
C0 C2 1.500 . S
C0 O20 1.257 . S
C0 O21 1.260 . S
Eu1 C0 2.835 . S
Eu1 O20 2.473 . S
Eu1 O21 2.480 . S
Eu1 O22 2.430 . S
Eu1 O23 2.670 . S
Eu1 O24 2.394 . S
Eu1 O29 2.355 . S
Eu1 O31 2.374 . S
C2 C0 1.500 . S
C2 C3 1.377 . S
C2 C7 1.377 . S
C3 C2 1.377 . S
C3 C4 1.395 . S
C3 H32 0.931 . S
C4 C3 1.395 . S
C4 C5 1.383 . S
C4 H33 0.931 . S
C5 C4 1.383 . S
C5 C6 1.394 . S
C6 C5 1.394 . S
C6 C7 1.378 . S
C6 H34 0.931 . S
C7 C2 1.377 . S
C7 C6 1.378 . S
C7 H35 0.931 . S
C8 O22 1.259 . S
C8 O23 1.270 . S
C9 O24 1.251 . S
C9 O25 1.251 . S
C10 Eu11 2.835 . S
C10 C12 1.500 . S
C10 O26 1.257 . S
C10 O27 1.260 . S
Eu11 C10 2.835 . S
Eu11 O23 2.355 . S
Eu11 O25 2.374 . S
Eu11 O26 2.473 . S
Eu11 O27 2.480 . S
Eu11 O28 2.430 . S
Eu11 O29 2.670 . S
Eu11 O30 2.394 . S
C12 C10 1.500 . S
C12 C13 1.377 . S
C12 C17 1.377 . S
C13 C12 1.377 . S
C13 C14 1.395 . S
C13 H36 0.931 . S
C14 C13 1.395 . S
C14 C15 1.383 . S
C14 H37 0.931 . S
C15 C14 1.383 . S
C15 C16 1.394 . S
C16 C15 1.394 . S
C16 C17 1.378 . S
C16 H38 0.931 . S
C17 C12 1.377 . S
C17 C16 1.378 . S
C17 H39 0.931 . S
C18 O28 1.259 . S
C18 O29 1.270 . S
C19 O30 1.251 . S
C19 O31 1.251 . S
O20 C0 1.257 . S
O20 Eu1 2.473 . S
O21 C0 1.260 . S
O21 Eu1 2.480 . S
O22 Eu1 2.430 . S
O22 C8 1.259 . S
O23 Eu1 2.670 . S
O23 C8 1.270 . S
O23 Eu11 2.355 . S
O24 Eu1 2.394 . S
O24 C9 1.251 . S
O25 C9 1.251 . S
O25 Eu11 2.374 . S
O26 C10 1.257 . S
O26 Eu11 2.473 . S
O27 C10 1.260 . S
O27 Eu11 2.480 . S
O28 Eu11 2.430 . S
O28 C18 1.259 . S
O29 Eu1 2.355 . S
O29 Eu11 2.670 . S
O29 C18 1.270 . S
O30 Eu11 2.394 . S
O30 C19 1.251 . S
O31 Eu1 2.374 . S
O31 C19 1.251 . S
H32 C3 0.931 . S
H33 C4 0.931 . S
H34 C6 0.931 . S
H35 C7 0.931 . S
H36 C13 0.931 . S
H37 C14 0.931 . S
H38 C16 0.931 . S
H39 C17 0.931 . S
C40 Eu41 2.835 . S
C40 C42 1.500 . S
C40 O60 1.257 . S
C40 O61 1.260 . S
Eu41 C40 2.835 . S
Eu41 O60 2.473 . S
Eu41 O61 2.480 . S
Eu41 O62 2.430 . S
Eu41 O63 2.670 . S
Eu41 O64 2.394 . S
Eu41 O69 2.355 . S
Eu41 O71 2.374 . S
C42 C40 1.500 . S
C42 C43 1.377 . S
C42 C47 1.377 . S
C43 C42 1.377 . S
C43 C44 1.395 . S
C43 H72 0.931 . S
C44 C43 1.395 . S
C44 C45 1.383 . S
C44 H73 0.931 . S
C45 C44 1.383 . S
C45 C46 1.394 . S
C46 C45 1.394 . S
C46 C47 1.378 . S
C46 H74 0.931 . S
C47 C42 1.377 . S
C47 C46 1.378 . S
C47 H75 0.931 . S
C48 O62 1.259 . S
C48 O63 1.270 . S
C49 O64 1.251 . S
C49 O65 1.251 . S
C50 Eu51 2.835 . S
C50 C52 1.500 . S
C50 O66 1.257 . S
C50 O67 1.260 . S
Eu51 C50 2.835 . S
Eu51 O63 2.355 . S
Eu51 O65 2.374 . S
Eu51 O66 2.473 . S
Eu51 O67 2.480 . S
Eu51 O68 2.430 . S
Eu51 O69 2.670 . S
Eu51 O70 2.394 . S
C52 C50 1.500 . S
C52 C53 1.377 . S
C52 C57 1.377 . S
C53 C52 1.377 . S
C53 C54 1.395 . S
C53 H76 0.931 . S
C54 C53 1.395 . S
C54 C55 1.383 . S
C54 H77 0.931 . S
C55 C54 1.383 . S
C55 C56 1.394 . S
C56 C55 1.394 . S
C56 C57 1.378 . S
C56 H78 0.931 . S
C57 C52 1.377 . S
C57 C56 1.378 . S
C57 H79 0.931 . S
C58 O68 1.259 . S
C58 O69 1.270 . S
C59 O70 1.251 . S
C59 O71 1.251 . S
O60 C40 1.257 . S
O60 Eu41 2.473 . S
O61 C40 1.260 . S
O61 Eu41 2.480 . S
O62 Eu41 2.430 . S
O62 C48 1.259 . S
O63 Eu41 2.670 . S
O63 C48 1.270 . S
O63 Eu51 2.355 . S
O64 Eu41 2.394 . S
O64 C49 1.251 . S
O65 C49 1.251 . S
O65 Eu51 2.374 . S
O66 C50 1.257 . S
O66 Eu51 2.473 . S
O67 C50 1.260 . S
O67 Eu51 2.480 . S
O68 Eu51 2.430 . S
O68 C58 1.259 . S
O69 Eu41 2.355 . S
O69 Eu51 2.670 . S
O69 C58 1.270 . S
O70 Eu51 2.394 . S
O70 C59 1.251 . S
O71 Eu41 2.374 . S
O71 C59 1.251 . S
H72 C43 0.931 . S
H73 C44 0.931 . S
H74 C46 0.931 . S
H75 C47 0.931 . S
H76 C53 0.931 . S
H77 C54 0.931 . S
H78 C56 0.931 . S
H79 C57 0.931 . S
C80 Eu81 2.835 . S
C80 C82 1.500 . S
C80 O100 1.257 . S
C80 O101 1.260 . S
Eu81 C80 2.835 . S
Eu81 O100 2.473 . S
Eu81 O101 2.480 . S
Eu81 O102 2.430 . S
Eu81 O103 2.670 . S
Eu81 O104 2.394 . S
Eu81 O109 2.355 . S
Eu81 O111 2.374 . S
C82 C80 1.500 . S
C82 C83 1.377 . S
C82 C87 1.377 . S
C83 C82 1.377 . S
C83 C84 1.395 . S
C83 H112 0.931 . S
C84 C83 1.395 . S
C84 C85 1.383 . S
C84 H113 0.931 . S
C85 C84 1.383 . S
C85 C86 1.394 . S
C86 C85 1.394 . S
C86 C87 1.378 . S
C86 H114 0.931 . S
C87 C82 1.377 . S
C87 C86 1.378 . S
C87 H115 0.931 . S
C88 O102 1.259 . S
C88 O103 1.270 . S
C89 O104 1.251 . S
C89 O105 1.251 . S
C90 Eu91 2.835 . S
C90 C92 1.500 . S
C90 O106 1.257 . S
C90 O107 1.260 . S
Eu91 C90 2.835 . S
Eu91 O103 2.355 . S
Eu91 O105 2.374 . S
Eu91 O106 2.473 . S
Eu91 O107 2.480 . S
Eu91 O108 2.430 . S
Eu91 O109 2.670 . S
Eu91 O110 2.394 . S
C92 C90 1.500 . S
C92 C93 1.377 . S
C92 C97 1.377 . S
C93 C92 1.377 . S
C93 C94 1.395 . S
C93 H116 0.931 . S
C94 C93 1.395 . S
C94 C95 1.383 . S
C94 H117 0.931 . S
C95 C94 1.383 . S
C95 C96 1.394 . S
C96 C95 1.394 . S
C96 C97 1.378 . S
C96 H118 0.931 . S
C97 C92 1.377 . S
C97 C96 1.378 . S
C97 H119 0.931 . S
C98 O108 1.259 . S
C98 O109 1.270 . S
C99 O110 1.251 . S
C99 O111 1.251 . S
O100 C80 1.257 . S
O100 Eu81 2.473 . S
O101 C80 1.260 . S
O101 Eu81 2.480 . S
O102 Eu81 2.430 . S
O102 C88 1.259 . S
O103 Eu81 2.670 . S
O103 C88 1.270 . S
O103 Eu91 2.355 . S
O104 Eu81 2.394 . S
O104 C89 1.251 . S
O105 C89 1.251 . S
O105 Eu91 2.374 . S
O106 C90 1.257 . S
O106 Eu91 2.473 . S
O107 C90 1.260 . S
O107 Eu91 2.480 . S
O108 Eu91 2.430 . S
O108 C98 1.259 . S
O109 Eu81 2.355 . S
O109 Eu91 2.670 . S
O109 C98 1.270 . S
O110 Eu91 2.394 . S
O110 C99 1.251 . S
O111 Eu81 2.374 . S
O111 C99 1.251 . S
H112 C83 0.931 . S
H113 C84 0.931 . S
H114 C86 0.931 . S
H115 C87 0.931 . S
H116 C93 0.931 . S
H117 C94 0.931 . S
H118 C96 0.931 . S
H119 C97 0.931 . S
C120 Eu121 2.835 . S
C120 C122 1.500 . S
C120 O140 1.257 . S
C120 O141 1.260 . S
Eu121 C120 2.835 . S
Eu121 O140 2.473 . S
Eu121 O141 2.480 . S
Eu121 O142 2.430 . S
Eu121 O143 2.670 . S
Eu121 O144 2.394 . S
Eu121 O149 2.355 . S
Eu121 O151 2.374 . S
C122 C120 1.500 . S
C122 C123 1.377 . S
C122 C127 1.377 . S
C123 C122 1.377 . S
C123 C124 1.395 . S
C123 H152 0.931 . S
C124 C123 1.395 . S
C124 C125 1.383 . S
C124 H153 0.931 . S
C125 C124 1.383 . S
C125 C126 1.394 . S
C126 C125 1.394 . S
C126 C127 1.378 . S
C126 H154 0.931 . S
C127 C122 1.377 . S
C127 C126 1.378 . S
C127 H155 0.931 . S
C128 O142 1.259 . S
C128 O143 1.270 . S
C129 O144 1.251 . S
C129 O145 1.251 . S
C130 Eu131 2.835 . S
C130 C132 1.500 . S
C130 O146 1.257 . S
C130 O147 1.260 . S
Eu131 C130 2.835 . S
Eu131 O143 2.355 . S
Eu131 O145 2.374 . S
Eu131 O146 2.473 . S
Eu131 O147 2.480 . S
Eu131 O148 2.430 . S
Eu131 O149 2.670 . S
Eu131 O150 2.394 . S
C132 C130 1.500 . S
C132 C133 1.377 . S
C132 C137 1.377 . S
C133 C132 1.377 . S
C133 C134 1.395 . S
C133 H156 0.931 . S
C134 C133 1.395 . S
C134 C135 1.383 . S
C134 H157 0.931 . S
C135 C134 1.383 . S
C135 C136 1.394 . S
C136 C135 1.394 . S
C136 C137 1.378 . S
C136 H158 0.931 . S
C137 C132 1.377 . S
C137 C136 1.378 . S
C137 H159 0.931 . S
C138 O148 1.259 . S
C138 O149 1.270 . S
C139 O150 1.251 . S
C139 O151 1.251 . S
O140 C120 1.257 . S
O140 Eu121 2.473 . S
O141 C120 1.260 . S
O141 Eu121 2.480 . S
O142 Eu121 2.430 . S
O142 C128 1.259 . S
O143 Eu121 2.670 . S
O143 C128 1.270 . S
O143 Eu131 2.355 . S
O144 Eu121 2.394 . S
O144 C129 1.251 . S
O145 C129 1.251 . S
O145 Eu131 2.374 . S
O146 C130 1.257 . S
O146 Eu131 2.473 . S
O147 C130 1.260 . S
O147 Eu131 2.480 . S
O148 Eu131 2.430 . S
O148 C138 1.259 . S
O149 Eu121 2.355 . S
O149 Eu131 2.670 . S
O149 C138 1.270 . S
O150 Eu131 2.394 . S
O150 C139 1.251 . S
O151 Eu121 2.374 . S
O151 C139 1.251 . S
H152 C123 0.931 . S
H153 C124 0.931 . S
H154 C126 0.931 . S
H155 C127 0.931 . S
H156 C133 0.931 . S
H157 C134 0.931 . S
H158 C136 0.931 . S
H159 C137 0.931 . S
C160 Eu161 2.835 . S
C160 C162 1.500 . S
C160 O180 1.257 . S
C160 O181 1.260 . S
Eu161 C160 2.835 . S
Eu161 O180 2.473 . S
Eu161 O181 2.480 . S
Eu161 O182 2.430 . S
Eu161 O183 2.670 . S
Eu161 O184 2.394 . S
Eu161 O189 2.355 . S
Eu161 O191 2.374 . S
C162 C160 1.500 . S
C162 C163 1.377 . S
C162 C167 1.377 . S
C163 C162 1.377 . S
C163 C164 1.395 . S
C163 H192 0.931 . S
C164 C163 1.395 . S
C164 C165 1.383 . S
C164 H193 0.931 . S
C165 C164 1.383 . S
C165 C166 1.394 . S
C166 C165 1.394 . S
C166 C167 1.378 . S
C166 H194 0.931 . S
C167 C162 1.377 . S
C167 C166 1.378 . S
C167 H195 0.931 . S
C168 O182 1.259 . S
C168 O183 1.270 . S
C169 O184 1.251 . S
C169 O185 1.251 . S
C170 Eu171 2.835 . S
C170 C172 1.500 . S
C170 O186 1.257 . S
C170 O187 1.260 . S
Eu171 C170 2.835 . S
Eu171 O183 2.355 . S
Eu171 O185 2.374 . S
Eu171 O186 2.473 . S
Eu171 O187 2.480 . S
Eu171 O188 2.430 . S
Eu171 O189 2.670 . S
Eu171 O190 2.394 . S
C172 C170 1.500 . S
C172 C173 1.377 . S
C172 C177 1.377 . S
C173 C172 1.377 . S
C173 C174 1.395 . S
C173 H196 0.931 . S
C174 C173 1.395 . S
C174 C175 1.383 . S
C174 H197 0.931 . S
C175 C174 1.383 . S
C175 C176 1.394 . S
C176 C175 1.394 . S
C176 C177 1.378 . S
C176 H198 0.931 . S
C177 C172 1.377 . S
C177 C176 1.378 . S
C177 H199 0.931 . S
C178 O188 1.259 . S
C178 O189 1.270 . S
C179 O190 1.251 . S
C179 O191 1.251 . S
O180 C160 1.257 . S
O180 Eu161 2.473 . S
O181 C160 1.260 . S
O181 Eu161 2.480 . S
O182 Eu161 2.430 . S
O182 C168 1.259 . S
O183 Eu161 2.670 . S
O183 C168 1.270 . S
O183 Eu171 2.355 . S
O184 Eu161 2.394 . S
O184 C169 1.251 . S
O185 C169 1.251 . S
O185 Eu171 2.374 . S
O186 C170 1.257 . S
O186 Eu171 2.473 . S
O187 C170 1.260 . S
O187 Eu171 2.480 . S
O188 Eu171 2.430 . S
O188 C178 1.259 . S
O189 Eu161 2.355 . S
O189 Eu171 2.670 . S
O189 C178 1.270 . S
O190 Eu171 2.394 . S
O190 C179 1.251 . S
O191 Eu161 2.374 . S
O191 C179 1.251 . S
H192 C163 0.931 . S
H193 C164 0.931 . S
H194 C166 0.931 . S
H195 C167 0.931 . S
H196 C173 0.931 . S
H197 C174 0.931 . S
H198 C176 0.931 . S
H199 C177 0.931 . S
C200 Eu201 2.835 . S
C200 C202 1.500 . S
C200 O220 1.257 . S
C200 O221 1.260 . S
Eu201 C200 2.835 . S
Eu201 O220 2.473 . S
Eu201 O221 2.480 . S
Eu201 O222 2.430 . S
Eu201 O223 2.670 . S
Eu201 O224 2.394 . S
Eu201 O229 2.355 . S
Eu201 O231 2.374 . S
C202 C200 1.500 . S
C202 C203 1.377 . S
C202 C207 1.377 . S
C203 C202 1.377 . S
C203 C204 1.395 . S
C203 H232 0.931 . S
C204 C203 1.395 . S
C204 C205 1.383 . S
C204 H233 0.931 . S
C205 C204 1.383 . S
C205 C206 1.394 . S
C206 C205 1.394 . S
C206 C207 1.378 . S
C206 H234 0.931 . S
C207 C202 1.377 . S
C207 C206 1.378 . S
C207 H235 0.931 . S
C208 O222 1.259 . S
C208 O223 1.270 . S
C209 O224 1.251 . S
C209 O225 1.251 . S
C210 Eu211 2.835 . S
C210 C212 1.500 . S
C210 O226 1.257 . S
C210 O227 1.260 . S
Eu211 C210 2.835 . S
Eu211 O223 2.355 . S
Eu211 O225 2.374 . S
Eu211 O226 2.473 . S
Eu211 O227 2.480 . S
Eu211 O228 2.430 . S
Eu211 O229 2.670 . S
Eu211 O230 2.394 . S
C212 C210 1.500 . S
C212 C213 1.377 . S
C212 C217 1.377 . S
C213 C212 1.377 . S
C213 C214 1.395 . S
C213 H236 0.931 . S
C214 C213 1.395 . S
C214 C215 1.383 . S
C214 H237 0.931 . S
C215 C214 1.383 . S
C215 C216 1.394 . S
C216 C215 1.394 . S
C216 C217 1.378 . S
C216 H238 0.931 . S
C217 C212 1.377 . S
C217 C216 1.378 . S
C217 H239 0.931 . S
C218 O228 1.259 . S
C218 O229 1.270 . S
C219 O230 1.251 . S
C219 O231 1.251 . S
O220 C200 1.257 . S
O220 Eu201 2.473 . S
O221 C200 1.260 . S
O221 Eu201 2.480 . S
O222 Eu201 2.430 . S
O222 C208 1.259 . S
O223 Eu201 2.670 . S
O223 C208 1.270 . S
O223 Eu211 2.355 . S
O224 Eu201 2.394 . S
O224 C209 1.251 . S
O225 C209 1.251 . S
O225 Eu211 2.374 . S
O226 C210 1.257 . S
O226 Eu211 2.473 . S
O227 C210 1.260 . S
O227 Eu211 2.480 . S
O228 Eu211 2.430 . S
O228 C218 1.259 . S
O229 Eu201 2.355 . S
O229 Eu211 2.670 . S
O229 C218 1.270 . S
O230 Eu211 2.394 . S
O230 C219 1.251 . S
O231 Eu201 2.374 . S
O231 C219 1.251 . S
H232 C203 0.931 . S
H233 C204 0.931 . S
H234 C206 0.931 . S
H235 C207 0.931 . S
H236 C213 0.931 . S
H237 C214 0.931 . S
H238 C216 0.931 . S
H239 C217 0.931 . S
C240 Eu241 2.835 . S
C240 C242 1.500 . S
C240 O260 1.257 . S
C240 O261 1.260 . S
Eu241 C240 2.835 . S
Eu241 O260 2.473 . S
Eu241 O261 2.480 . S
Eu241 O262 2.430 . S
Eu241 O263 2.670 . S
Eu241 O264 2.394 . S
Eu241 O269 2.355 . S
Eu241 O271 2.374 . S
C242 C240 1.500 . S
C242 C243 1.377 . S
C242 C247 1.377 . S
C243 C242 1.377 . S
C243 C244 1.395 . S
C243 H272 0.931 . S
C244 C243 1.395 . S
C244 C245 1.383 . S
C244 H273 0.931 . S
C245 C244 1.383 . S
C245 C246 1.394 . S
C246 C245 1.394 . S
C246 C247 1.378 . S
C246 H274 0.931 . S
C247 C242 1.377 . S
C247 C246 1.378 . S
C247 H275 0.931 . S
C248 O262 1.259 . S
C248 O263 1.270 . S
C249 O264 1.251 . S
C249 O265 1.251 . S
C250 Eu251 2.835 . S
C250 C252 1.500 . S
C250 O266 1.257 . S
C250 O267 1.260 . S
Eu251 C250 2.835 . S
Eu251 O263 2.355 . S
Eu251 O265 2.374 . S
Eu251 O266 2.473 . S
Eu251 O267 2.480 . S
Eu251 O268 2.430 . S
Eu251 O269 2.670 . S
Eu251 O270 2.394 . S
C252 C250 1.500 . S
C252 C253 1.377 . S
C252 C257 1.377 . S
C253 C252 1.377 . S
C253 C254 1.395 . S
C253 H276 0.931 . S
C254 C253 1.395 . S
C254 C255 1.383 . S
C254 H277 0.931 . S
C255 C254 1.383 . S
C255 C256 1.394 . S
C256 C255 1.394 . S
C256 C257 1.378 . S
C256 H278 0.931 . S
C257 C252 1.377 . S
C257 C256 1.378 . S
C257 H279 0.931 . S
C258 O268 1.259 . S
C258 O269 1.270 . S
C259 O270 1.251 . S
C259 O271 1.251 . S
O260 C240 1.257 . S
O260 Eu241 2.473 . S
O261 C240 1.260 . S
O261 Eu241 2.480 . S
O262 Eu241 2.430 . S
O262 C248 1.259 . S
O263 Eu241 2.670 . S
O263 C248 1.270 . S
O263 Eu251 2.355 . S
O264 Eu241 2.394 . S
O264 C249 1.251 . S
O265 C249 1.251 . S
O265 Eu251 2.374 . S
O266 C250 1.257 . S
O266 Eu251 2.473 . S
O267 C250 1.260 . S
O267 Eu251 2.480 . S
O268 Eu251 2.430 . S
O268 C258 1.259 . S
O269 Eu241 2.355 . S
O269 Eu251 2.670 . S
O269 C258 1.270 . S
O270 Eu251 2.394 . S
O270 C259 1.251 . S
O271 Eu241 2.374 . S
O271 C259 1.251 . S
H272 C243 0.931 . S
H273 C244 0.931 . S
H274 C246 0.931 . S
H275 C247 0.931 . S
H276 C253 0.931 . S
H277 C254 0.931 . S
H278 C256 0.931 . S
H279 C257 0.931 . S
C280 Eu281 2.835 . S
C280 C282 1.500 . S
C280 O300 1.257 . S
C280 O301 1.260 . S
Eu281 C280 2.835 . S
Eu281 O300 2.473 . S
Eu281 O301 2.480 . S
Eu281 O302 2.430 . S
Eu281 O303 2.670 . S
Eu281 O304 2.394 . S
Eu281 O309 2.355 . S
Eu281 O311 2.374 . S
C282 C280 1.500 . S
C282 C283 1.377 . S
C282 C287 1.377 . S
C283 C282 1.377 . S
C283 C284 1.395 . S
C283 H312 0.931 . S
C284 C283 1.395 . S
C284 C285 1.383 . S
C284 H313 0.931 . S
C285 C284 1.383 . S
C285 C286 1.394 . S
C286 C285 1.394 . S
C286 C287 1.378 . S
C286 H314 0.931 . S
C287 C282 1.377 . S
C287 C286 1.378 . S
C287 H315 0.931 . S
C288 O302 1.259 . S
C288 O303 1.270 . S
C289 O304 1.251 . S
C289 O305 1.251 . S
C290 Eu291 2.835 . S
C290 C292 1.500 . S
C290 O306 1.257 . S
C290 O307 1.260 . S
Eu291 C290 2.835 . S
Eu291 O303 2.355 . S
Eu291 O305 2.374 . S
Eu291 O306 2.473 . S
Eu291 O307 2.480 . S
Eu291 O308 2.430 . S
Eu291 O309 2.670 . S
Eu291 O310 2.394 . S
C292 C290 1.500 . S
C292 C293 1.377 . S
C292 C297 1.377 . S
C293 C292 1.377 . S
C293 C294 1.395 . S
C293 H316 0.931 . S
C294 C293 1.395 . S
C294 C295 1.383 . S
C294 H317 0.931 . S
C295 C294 1.383 . S
C295 C296 1.394 . S
C296 C295 1.394 . S
C296 C297 1.378 . S
C296 H318 0.931 . S
C297 C292 1.377 . S
C297 C296 1.378 . S
C297 H319 0.931 . S
C298 O308 1.259 . S
C298 O309 1.270 . S
C299 O310 1.251 . S
C299 O311 1.251 . S
O300 C280 1.257 . S
O300 Eu281 2.473 . S
O301 C280 1.260 . S
O301 Eu281 2.480 . S
O302 Eu281 2.430 . S
O302 C288 1.259 . S
O303 Eu281 2.670 . S
O303 C288 1.270 . S
O303 Eu291 2.355 . S
O304 Eu281 2.394 . S
O304 C289 1.251 . S
O305 C289 1.251 . S
O305 Eu291 2.374 . S
O306 C290 1.257 . S
O306 Eu291 2.473 . S
O307 C290 1.260 . S
O307 Eu291 2.480 . S
O308 Eu291 2.430 . S
O308 C298 1.259 . S
O309 Eu281 2.355 . S
O309 Eu291 2.670 . S
O309 C298 1.270 . S
O310 Eu291 2.394 . S
O310 C299 1.251 . S
O311 Eu281 2.374 . S
O311 C299 1.251 . S
H312 C283 0.931 . S
H313 C284 0.931 . S
H314 C286 0.931 . S
H315 C287 0.931 . S
H316 C293 0.931 . S
H317 C294 0.931 . S
H318 C296 0.931 . S
H319 C297 0.931 . S
Fe320 O321 1.886 1_455 S
Fe320 O324 1.715 . S
Fe320 O329 2.077 1_455 S
Fe320 O334 1.935 . S
Fe320 O340 2.077 1_455 S
Fe320 O349 1.935 . S
O321 Fe320 1.886 1_655 S
O321 Fe323 1.715 . S
Fe322 O324 1.886 . S
Fe322 O325 1.715 1_545 S
Fe322 O332 1.935 . S
Fe322 O333 2.077 . S
Fe322 O339 1.935 . S
Fe322 O348 2.077 . S
Fe323 O321 1.715 . S
Fe323 O326 1.886 1_545 S
Fe323 O330 1.935 . S
Fe323 O335 2.077 1_545 S
Fe323 O341 1.935 . S
Fe323 O345 2.077 1_545 S
O324 Fe320 1.715 . S
O324 Fe322 1.886 . S
O325 Fe322 1.715 1_565 S
O325 Fe327 1.886 . S
O326 Fe323 1.886 1_565 S
O326 Fe327 1.715 1_655 S
Fe327 O325 1.886 . S
Fe327 O326 1.715 1_455 S
Fe327 O331 2.077 . S
Fe327 O336 1.935 1_455 S
Fe327 O338 2.077 . S
Fe327 O346 1.935 1_455 S
C328 O340 1.381 . S
C328 O341 1.421 . S
O329 Fe320 2.077 1_655 S
O329 C342 1.381 . S
O330 Fe323 1.935 . S
O330 C342 1.421 . S
O331 Fe327 2.077 . S
O331 C347 1.381 . S
O332 Fe322 1.935 . S
O332 C347 1.421 1_545 S
O333 Fe322 2.077 . S
O333 C337 1.381 . S
O334 Fe320 1.935 . S
O334 C337 1.421 . S
O335 Fe323 2.077 1_565 S
O335 C343 1.381 . S
O336 Fe327 1.935 1_655 S
O336 C343 1.421 . S
C337 O333 1.381 . S
C337 O334 1.421 . S
O338 Fe327 2.077 . S
O338 C350 1.381 . S
O339 Fe322 1.935 . S
O339 C350 1.421 1_545 S
O340 Fe320 2.077 1_655 S
O340 C328 1.381 . S
O341 Fe323 1.935 . S
O341 C328 1.421 . S
C342 O329 1.381 . S
C342 O330 1.421 . S
C343 O335 1.381 . S
C343 O336 1.421 . S
C344 O345 1.381 . S
C344 O346 1.421 . S
O345 Fe323 2.077 1_565 S
O345 C344 1.381 . S
O346 Fe327 1.935 1_655 S
O346 C344 1.421 . S
C347 O331 1.381 . S
C347 O332 1.421 1_565 S
O348 Fe322 2.077 . S
O348 C351 1.381 . S
O349 Fe320 1.935 . S
O349 C351 1.421 . S
C350 O338 1.381 . S
C350 O339 1.421 1_565 S
C351 O348 1.381 . S
C351 O349 1.421 . S
Fe352 O353 1.885 1_565 S
Fe352 O356 1.716 1_564 S
Fe352 O361 2.073 1_554 S
Fe352 O366 1.931 1_554 S
Fe352 O372 2.081 . S
Fe352 O381 1.940 . S
O353 Fe352 1.885 1_545 S
O353 Fe355 1.715 . S
Fe354 O356 1.886 . S
Fe354 O357 1.715 . S
Fe354 O364 1.935 . S
Fe354 O365 2.077 1_545 S
Fe354 O371 1.935 1_556 S
Fe354 O380 2.077 1_546 S
Fe355 O353 1.715 . S
Fe355 O358 1.886 . S
Fe355 O362 1.935 1_554 S
Fe355 O367 2.077 1_554 S
Fe355 O373 1.935 . S
Fe355 O377 2.077 . S
O356 Fe352 1.716 1_546 S
O356 Fe354 1.886 . S
O357 Fe354 1.715 . S
O357 Fe359 1.886 . S
O358 Fe355 1.886 . S
O358 Fe359 1.715 1_554 S
Fe359 O357 1.886 . S
Fe359 O358 1.715 1_556 S
Fe359 O363 2.074 . S
Fe359 O368 1.931 . S
Fe359 O370 2.081 1_556 S
Fe359 O378 1.939 1_556 S
C360 O372 1.381 . S
C360 O373 1.421 1_565 S
O361 Fe352 2.073 1_556 S
O361 C374 1.381 . S
O362 Fe355 1.935 1_556 S
O362 C374 1.421 1_545 S
O363 Fe359 2.074 . S
O363 C379 1.381 . S
O364 Fe354 1.935 . S
O364 C379 1.421 . S
O365 Fe354 2.077 1_565 S
O365 C369 1.381 . S
O366 Fe352 1.931 1_556 S
O366 C369 1.421 . S
O367 Fe355 2.077 1_556 S
O367 C375 1.381 . S
O368 Fe359 1.931 . S
O368 C375 1.421 . S
C369 O365 1.381 . S
C369 O366 1.421 . S
O370 Fe359 2.081 1_554 S
O370 C382 1.381 . S
O371 Fe354 1.935 1_554 S
O371 C382 1.421 . S
O372 Fe352 2.081 . S
O372 C360 1.381 . S
O373 Fe355 1.935 . S
O373 C360 1.421 1_545 S
C374 O361 1.381 . S
C374 O362 1.421 1_565 S
C375 O367 1.381 . S
C375 O368 1.421 . S
C376 O377 1.381 . S
C376 O378 1.421 . S
O377 Fe355 2.077 . S
O377 C376 1.381 . S
O378 Fe359 1.939 1_554 S
O378 C376 1.421 . S
C379 O363 1.381 . S
C379 O364 1.421 . S
O380 Fe354 2.077 1_564 S
O380 C383 1.381 . S
O381 Fe352 1.940 . S
O381 C383 1.421 . S
C382 O370 1.381 . S
C382 O371 1.421 . S
C383 O380 1.381 . S
C383 O381 1.421 . S
Fe384 O385 1.886 1_455 S
Fe384 O388 1.715 . S
Fe384 O393 2.077 1_455 S
Fe384 O398 1.935 . S
Fe384 O404 2.077 1_455 S
Fe384 O413 1.935 . S
O385 Fe384 1.886 1_655 S
O385 Fe387 1.715 . S
Fe386 O388 1.886 . S
Fe386 O389 1.715 . S
Fe386 O396 1.935 . S
Fe386 O397 2.077 . S
Fe386 O403 1.935 . S
Fe386 O412 2.077 . S
Fe387 O385 1.715 . S
Fe387 O390 1.886 . S
Fe387 O394 1.945 . S
Fe387 O399 2.077 . S
Fe387 O405 1.935 . S
Fe387 O409 2.077 . S
O388 Fe384 1.715 . S
O388 Fe386 1.886 . S
O389 Fe386 1.715 . S
O389 Fe391 1.881 1_455 S
O390 Fe387 1.886 . S
O390 Fe391 1.720 . S
Fe391 O389 1.881 1_655 S
Fe391 O390 1.720 . S
Fe391 O395 2.072 1_655 S
Fe391 O400 1.938 . S
Fe391 O402 2.073 1_655 S
Fe391 O410 1.939 . S
C392 O404 1.381 . S
C392 O405 1.421 . S
O393 Fe384 2.077 1_655 S
O393 C406 1.381 1_554 S
O394 Fe387 1.945 . S
O394 C406 1.417 1_554 S
O395 Fe391 2.072 1_455 S
O395 C411 1.381 . S
O396 Fe386 1.935 . S
O396 C411 1.421 . S
O397 Fe386 2.077 . S
O397 C401 1.381 . S
O398 Fe384 1.935 . S
O398 C401 1.421 . S
O399 Fe387 2.077 . S
O399 C407 1.381 1_554 S
O400 Fe391 1.938 . S
O400 C407 1.421 1_554 S
C401 O397 1.381 . S
C401 O398 1.421 . S
O402 Fe391 2.073 1_455 S
O402 C414 1.381 . S
O403 Fe386 1.935 . S
O403 C414 1.421 . S
O404 Fe384 2.077 1_655 S
O404 C392 1.381 . S
O405 Fe387 1.935 . S
O405 C392 1.421 . S
C406 O393 1.381 1_556 S
C406 O394 1.417 1_556 S
C407 O399 1.381 1_556 S
C407 O400 1.421 1_556 S
C408 O409 1.381 . S
C408 O410 1.421 . S
O409 Fe387 2.077 . S
O409 C408 1.381 . S
O410 Fe391 1.939 . S
O410 C408 1.421 . S
C411 O395 1.381 . S
C411 O396 1.421 . S
O412 Fe386 2.077 . S
O412 C415 1.381 . S
O413 Fe384 1.935 . S
O413 C415 1.421 . S
C414 O402 1.381 . S
C414 O403 1.421 . S
C415 O412 1.381 . S
C415 O413 1.421 . S
Fe416 O417 1.886 . S
Fe416 O420 1.715 . S
Fe416 O425 2.077 . S
Fe416 O430 1.935 . S
Fe416 O436 2.077 . S
Fe416 O445 1.935 . S
O417 Fe416 1.886 . S
O417 Fe419 1.715 1_556 S
Fe418 O420 1.886 1_554 S
Fe418 O421 1.715 . S
Fe418 O428 1.935 . S
Fe418 O429 2.077 1_554 S
Fe418 O435 1.935 . S
Fe418 O444 2.077 1_554 S
Fe419 O417 1.715 1_554 S
Fe419 O422 1.886 . S
Fe419 O426 1.935 . S
Fe419 O431 2.077 . S
Fe419 O437 1.935 . S
Fe419 O441 2.077 . S
O420 Fe416 1.715 . S
O420 Fe418 1.886 1_556 S
O421 Fe418 1.715 . S
O421 Fe423 1.886 . S
O422 Fe419 1.886 . S
O422 Fe423 1.715 . S
Fe423 O421 1.886 . S
Fe423 O422 1.715 . S
Fe423 O427 2.077 . S
Fe423 O432 1.935 . S
Fe423 O434 2.077 . S
Fe423 O442 1.935 . S
C424 O436 1.381 . S
C424 O437 1.421 1_556 S
O425 Fe416 2.077 . S
O425 C438 1.381 . S
O426 Fe419 1.935 . S
O426 C438 1.421 1_554 S
O427 Fe423 2.077 . S
O427 C443 1.381 . S
O428 Fe418 1.935 . S
O428 C443 1.421 . S
O429 Fe418 2.077 1_556 S
O429 C433 1.381 . S
O430 Fe416 1.935 . S
O430 C433 1.421 . S
O431 Fe419 2.077 . S
O431 C439 1.381 . S
O432 Fe423 1.935 . S
O432 C439 1.421 . S
C433 O429 1.381 . S
C433 O430 1.421 . S
O434 Fe423 2.077 . S
O434 C446 1.381 . S
O435 Fe418 1.935 . S
O435 C446 1.421 . S
O436 Fe416 2.077 . S
O436 C424 1.381 . S
O437 Fe419 1.935 . S
O437 C424 1.421 1_554 S
C438 O425 1.381 . S
C438 O426 1.421 1_556 S
C439 O431 1.381 . S
C439 O432 1.421 . S
C440 O441 1.381 . S
C440 O442 1.421 . S
O441 Fe419 2.077 . S
O441 C440 1.381 . S
O442 Fe423 1.935 . S
O442 C440 1.421 . S
C443 O427 1.381 . S
C443 O428 1.421 . S
O444 Fe418 2.077 1_556 S
O444 C447 1.381 . S
O445 Fe416 1.935 . S
O445 C447 1.421 . S
C446 O434 1.381 . S
C446 O435 1.421 . S
C447 O444 1.381 . S
C447 O445 1.421 . S
Fe448 O449 1.886 . S
Fe448 O452 1.715 . S
Fe448 O457 2.077 . S
Fe448 O462 1.935 . S
Fe448 O468 2.098 . S
Fe448 O477 1.935 1_455 S
O449 Fe448 1.886 . S
O449 Fe451 1.715 . S
Fe450 O452 1.886 . S
Fe450 O453 1.715 . S
Fe450 O460 1.935 . S
Fe450 O461 2.077 . S
Fe450 O467 1.935 1_455 S
Fe450 O476 2.077 1_455 S
Fe451 O449 1.715 . S
Fe451 O454 1.886 . S
Fe451 O458 1.935 . S
Fe451 O463 2.077 . S
Fe451 O469 1.935 . S
Fe451 O473 2.077 . S
O452 Fe448 1.715 . S
O452 Fe450 1.886 . S
O453 Fe450 1.715 . S
O453 Fe455 1.886 . S
O454 Fe451 1.886 . S
O454 Fe455 1.715 . S
Fe455 O453 1.886 . S
Fe455 O454 1.715 . S
Fe455 O459 2.077 . S
Fe455 O464 1.935 . S
Fe455 O466 2.077 . S
Fe455 O474 1.935 . S
C456 O468 1.369 1_655 S
C456 O469 1.421 1_655 S
O457 Fe448 2.077 . S
O457 C470 1.381 . S
O458 Fe451 1.935 . S
O458 C470 1.421 . S
O459 Fe455 2.077 . S
O459 C475 1.381 . S
O460 Fe450 1.935 . S
O460 C475 1.421 . S
O461 Fe450 2.077 . S
O461 C465 1.381 . S
O462 Fe448 1.935 . S
O462 C465 1.421 . S
O463 Fe451 2.077 . S
O463 C471 1.381 . S
O464 Fe455 1.935 . S
O464 C471 1.421 . S
C465 O461 1.381 . S
C465 O462 1.421 . S
O466 Fe455 2.077 . S
O466 C478 1.381 1_455 S
O467 Fe450 1.935 1_655 S
O467 C478 1.421 . S
O468 Fe448 2.098 . S
O468 C456 1.369 1_455 S
O469 Fe451 1.935 . S
O469 C456 1.421 1_455 S
C470 O457 1.381 . S
C470 O458 1.421 . S
C471 O463 1.381 . S
C471 O464 1.421 . S
C472 O473 1.381 . S
C472 O474 1.421 . S
O473 Fe451 2.077 . S
O473 C472 1.381 . S
O474 Fe455 1.935 . S
O474 C472 1.421 . S
C475 O459 1.381 . S
C475 O460 1.421 . S
O476 Fe450 2.077 1_655 S
O476 C479 1.381 . S
O477 Fe448 1.935 1_655 S
O477 C479 1.421 . S
C478 O466 1.381 1_655 S
C478 O467 1.421 . S
C479 O476 1.381 . S
C479 O477 1.421 . S
Fe480 O481 1.886 . S
Fe480 O484 1.715 . S
Fe480 O489 2.077 . S
Fe480 O494 1.935 . S
Fe480 O500 2.077 . S
Fe480 O509 1.935 . S
O481 Fe480 1.886 . S
O481 Fe483 1.715 1_565 S
Fe482 O484 1.886 1_545 S
Fe482 O485 1.715 . S
Fe482 O492 1.935 . S
Fe482 O493 2.077 1_545 S
Fe482 O499 1.935 . S
Fe482 O508 2.077 1_545 S
Fe483 O481 1.715 1_545 S
Fe483 O486 1.886 . S
Fe483 O490 1.935 1_545 S
Fe483 O495 2.077 . S
Fe483 O501 1.935 1_545 S
Fe483 O505 2.077 . S
O484 Fe480 1.715 . S
O484 Fe482 1.886 1_565 S
O485 Fe482 1.715 . S
O485 Fe487 1.886 . S
O486 Fe483 1.886 . S
O486 Fe487 1.715 . S
Fe487 O485 1.886 . S
Fe487 O486 1.715 . S
Fe487 O491 2.077 . S
Fe487 O496 1.935 . S
Fe487 O498 2.077 . S
Fe487 O506 1.935 . S
C488 O500 1.381 . S
C488 O501 1.421 . S
O489 Fe480 2.077 . S
O489 C502 1.381 . S
O490 Fe483 1.935 1_565 S
O490 C502 1.421 . S
O491 Fe487 2.077 . S
O491 C507 1.381 . S
O492 Fe482 1.935 . S
O492 C507 1.421 . S
O493 Fe482 2.077 1_565 S
O493 C497 1.381 . S
O494 Fe480 1.935 . S
O494 C497 1.421 . S
O495 Fe483 2.077 . S
O495 C503 1.381 . S
O496 Fe487 1.935 . S
O496 C503 1.421 . S
C497 O493 1.381 . S
C497 O494 1.421 . S
O498 Fe487 2.077 . S
O498 C510 1.381 . S
O499 Fe482 1.935 . S
O499 C510 1.421 . S
O500 Fe480 2.077 . S
O500 C488 1.381 . S
O501 Fe483 1.935 1_565 S
O501 C488 1.421 . S
C502 O489 1.381 . S
C502 O490 1.421 . S
C503 O495 1.381 . S
C503 O496 1.421 . S
C504 O505 1.381 . S
C504 O506 1.421 . S
O505 Fe483 2.077 . S
O505 C504 1.381 . S
O506 Fe487 1.935 . S
O506 C504 1.421 . S
C507 O491 1.381 . S
C507 O492 1.421 . S
O508 Fe482 2.077 1_565 S
O508 C511 1.381 . S
O509 Fe480 1.935 . S
O509 C511 1.421 . S
C510 O498 1.381 . S
C510 O499 1.421 . S
C511 O508 1.381 . S
C511 O509 1.421 . S
H512 C520 0.929 . S
H513 C522 0.930 . S
H514 C524 0.930 . S
H515 C527 0.929 . S
H516 C530 0.930 . S
H517 C532 0.960 . S
H518 C532 0.960 . S
H519 C532 0.960 . S
C520 H512 0.929 . S
C520 C521 1.377 . S
C520 C522 1.384 . S
C521 C520 1.377 . S
C521 C527 1.390 . S
C522 H513 0.930 . S
C522 C520 1.384 . S
C522 C523 1.372 . S
C523 C522 1.372 . S
C523 C524 1.400 . S
C523 C528 1.490 . S
C524 H514 0.930 . S
C524 C523 1.400 . S
C524 C527 1.386 . S
H525 C541 0.930 . S
H526 C542 0.931 . S
C527 H515 0.929 . S
C527 C521 1.390 . S
C527 C524 1.386 . S
C528 C523 1.490 . S
C528 C530 1.395 . S
C528 C531 1.403 . S
H529 C535 0.930 . S
C530 H516 0.930 . S
C530 C528 1.395 . S
C530 C533 1.403 . S
C531 C528 1.403 . S
C531 C532 1.524 . S
C531 C535 1.400 . S
C532 H517 0.960 . S
C532 H518 0.960 . S
C532 H519 0.960 . S
C532 C531 1.524 . S
C533 C530 1.403 . S
C533 C534 1.392 . S
C533 C537 1.495 . S
C534 C533 1.392 . S
C534 C535 1.385 . S
C534 C536 1.478 . S
C535 H529 0.930 . S
C535 C531 1.400 . S
C535 C534 1.385 . S
C536 C534 1.478 . S
C536 C538 1.381 . S
C536 C542 1.383 . S
C537 C533 1.495 . S
C537 H543 0.959 . S
C537 H544 0.961 . S
C537 H545 0.960 . S
C538 C536 1.381 . S
C538 C539 1.394 . S
C538 H546 0.930 . S
C539 C538 1.394 . S
C539 C540 1.383 . S
C539 H547 0.929 . S
C540 C539 1.383 . S
C540 C541 1.377 . S
C541 H525 0.930 . S
C541 C540 1.377 . S
C541 C542 1.379 . S
C542 H526 0.931 . S
C542 C536 1.383 . S
C542 C541 1.379 . S
H543 C537 0.959 . S
H544 C537 0.961 . S
H545 C537 0.960 . S
H546 C538 0.930 . S
H547 C539 0.929 . S
H548 C556 0.929 . S
H549 C558 0.930 . S
H550 C560 0.930 . S
H551 C563 0.929 . S
H552 C566 0.930 . S
H553 C568 0.960 . S
H554 C568 0.960 . S
H555 C568 0.960 . S
C556 H548 0.929 . S
C556 C557 1.377 . S
C556 C558 1.384 . S
C557 C556 1.377 . S
C557 C563 1.390 . S
C558 H549 0.930 . S
C558 C556 1.384 . S
C558 C559 1.372 . S
C559 C558 1.372 . S
C559 C560 1.400 . S
C559 C564 1.490 . S
C560 H550 0.930 . S
C560 C559 1.400 . S
C560 C563 1.386 . S
H561 C577 0.930 . S
H562 C578 0.931 . S
C563 H551 0.929 . S
C563 C557 1.390 . S
C563 C560 1.386 . S
C564 C559 1.490 . S
C564 C566 1.395 . S
C564 C567 1.403 . S
H565 C571 0.930 . S
C566 H552 0.930 . S
C566 C564 1.395 . S
C566 C569 1.403 . S
C567 C564 1.403 . S
C567 C568 1.524 . S
C567 C571 1.400 . S
C568 H553 0.960 . S
C568 H554 0.960 . S
C568 H555 0.960 . S
C568 C567 1.524 . S
C569 C566 1.403 . S
C569 C570 1.392 . S
C569 C573 1.495 . S
C570 C569 1.392 . S
C570 C571 1.385 . S
C570 C572 1.478 . S
C571 H565 0.930 . S
C571 C567 1.400 . S
C571 C570 1.385 . S
C572 C570 1.478 . S
C572 C574 1.381 . S
C572 C578 1.383 . S
C573 C569 1.495 . S
C573 H579 0.959 . S
C573 H580 0.961 . S
C573 H581 0.960 . S
C574 C572 1.381 . S
C574 C575 1.394 . S
C574 H582 0.930 . S
C575 C574 1.394 . S
C575 C576 1.383 . S
C575 H583 0.929 . S
C576 C575 1.383 . S
C576 C577 1.377 . S
C577 H561 0.930 . S
C577 C576 1.377 . S
C577 C578 1.379 . S
C578 H562 0.931 . S
C578 C572 1.383 . S
C578 C577 1.379 . S
H579 C573 0.959 . S
H580 C573 0.961 . S
H581 C573 0.960 . S
H582 C574 0.930 . S
H583 C575 0.929 . S
H584 C592 0.929 . S
H585 C594 0.930 . S
H586 C596 0.930 . S
H587 C599 0.929 . S
H588 C602 0.930 . S
H589 C604 0.960 . S
H590 C604 0.960 . S
H591 C604 0.960 . S
C592 H584 0.929 . S
C592 C593 1.377 . S
C592 C594 1.384 . S
C593 C592 1.377 . S
C593 C599 1.390 . S
C594 H585 0.930 . S
C594 C592 1.384 . S
C594 C595 1.372 . S
C595 C594 1.372 . S
C595 C596 1.400 . S
C595 C600 1.490 . S
C596 H586 0.930 . S
C596 C595 1.400 . S
C596 C599 1.386 . S
H597 C613 0.930 . S
H598 C614 0.931 . S
C599 H587 0.929 . S
C599 C593 1.390 . S
C599 C596 1.386 . S
C600 C595 1.490 . S
C600 C602 1.395 . S
C600 C603 1.403 . S
H601 C607 0.930 . S
C602 H588 0.930 . S
C602 C600 1.395 . S
C602 C605 1.403 . S
C603 C600 1.403 . S
C603 C604 1.524 . S
C603 C607 1.400 . S
C604 H589 0.960 . S
C604 H590 0.960 . S
C604 H591 0.960 . S
C604 C603 1.524 . S
C605 C602 1.403 . S
C605 C606 1.392 . S
C605 C609 1.495 . S
C606 C605 1.392 . S
C606 C607 1.385 . S
C606 C608 1.478 . S
C607 H601 0.930 . S
C607 C603 1.400 . S
C607 C606 1.385 . S
C608 C606 1.478 . S
C608 C610 1.381 . S
C608 C614 1.383 . S
C609 C605 1.495 . S
C609 H615 0.959 . S
C609 H616 0.961 . S
C609 H617 0.960 . S
C610 C608 1.381 . S
C610 C611 1.394 . S
C610 H618 0.930 . S
C611 C610 1.394 . S
C611 C612 1.383 . S
C611 H619 0.929 . S
C612 C611 1.383 . S
C612 C613 1.377 . S
C613 H597 0.930 . S
C613 C612 1.377 . S
C613 C614 1.379 . S
C614 H598 0.931 . S
C614 C608 1.383 . S
C614 C613 1.379 . S
H615 C609 0.959 . S
H616 C609 0.961 . S
H617 C609 0.960 . S
H618 C610 0.930 . S
H619 C611 0.929 . S
H620 C628 0.929 . S
H621 C630 0.930 . S
H622 C632 0.930 . S
H623 C635 0.929 . S
H624 C638 0.930 . S
H625 C640 0.960 . S
H626 C640 0.960 . S
H627 C640 0.960 . S
C628 H620 0.929 . S
C628 C629 1.377 . S
C628 C630 1.384 . S
C629 C628 1.377 . S
C629 C635 1.390 . S
C630 H621 0.930 . S
C630 C628 1.384 . S
C630 C631 1.372 . S
C631 C630 1.372 . S
C631 C632 1.400 . S
C631 C636 1.490 . S
C632 H622 0.930 . S
C632 C631 1.400 . S
C632 C635 1.386 . S
H633 C649 0.930 . S
H634 C650 0.931 . S
C635 H623 0.929 . S
C635 C629 1.390 . S
C635 C632 1.386 . S
C636 C631 1.490 . S
C636 C638 1.395 . S
C636 C639 1.403 . S
H637 C643 0.930 . S
C638 H624 0.930 . S
C638 C636 1.395 . S
C638 C641 1.403 . S
C639 C636 1.403 . S
C639 C640 1.524 . S
C639 C643 1.400 . S
C640 H625 0.960 . S
C640 H626 0.960 . S
C640 H627 0.960 . S
C640 C639 1.524 . S
C641 C638 1.403 . S
C641 C642 1.392 . S
C641 C645 1.495 . S
C642 C641 1.392 . S
C642 C643 1.385 . S
C642 C644 1.478 . S
C643 H637 0.930 . S
C643 C639 1.400 . S
C643 C642 1.385 . S
C644 C642 1.478 . S
C644 C646 1.381 . S
C644 C650 1.383 . S
C645 C641 1.495 . S
C645 H651 0.959 . S
C645 H652 0.961 . S
C645 H653 0.960 . S
C646 C644 1.381 . S
C646 C647 1.394 . S
C646 H654 0.930 . S
C647 C646 1.394 . S
C647 C648 1.383 . S
C647 H655 0.929 . S
C648 C647 1.383 . S
C648 C649 1.377 . S
C649 H633 0.930 . S
C649 C648 1.377 . S
C649 C650 1.379 . S
C650 H634 0.931 . S
C650 C644 1.383 . S
C650 C649 1.379 . S
H651 C645 0.959 . S
H652 C645 0.961 . S
H653 C645 0.960 . S
H654 C646 0.930 . S
H655 C647 0.929 . S
H656 C664 0.929 . S
H657 C666 0.930 . S
H658 C668 0.930 . S
H659 C671 0.929 . S
H660 C674 0.930 . S
H661 C676 0.960 . S
H662 C676 0.960 . S
H663 C676 0.960 . S
C664 H656 0.929 . S
C664 C665 1.377 . S
C664 C666 1.384 . S
C665 C664 1.377 . S
C665 C671 1.390 . S
C666 H657 0.930 . S
C666 C664 1.384 . S
C666 C667 1.372 . S
C667 C666 1.372 . S
C667 C668 1.400 . S
C667 C672 1.490 . S
C668 H658 0.930 . S
C668 C667 1.400 . S
C668 C671 1.386 . S
H669 C685 0.930 . S
H670 C686 0.931 . S
C671 H659 0.929 . S
C671 C665 1.390 . S
C671 C668 1.386 . S
C672 C667 1.490 . S
C672 C674 1.395 . S
C672 C675 1.403 . S
H673 C679 0.930 . S
C674 H660 0.930 . S
C674 C672 1.395 . S
C674 C677 1.403 . S
C675 C672 1.403 . S
C675 C676 1.524 . S
C675 C679 1.400 . S
C676 H661 0.960 . S
C676 H662 0.960 . S
C676 H663 0.960 . S
C676 C675 1.524 . S
C677 C674 1.403 . S
C677 C678 1.392 . S
C677 C681 1.495 . S
C678 C677 1.392 . S
C678 C679 1.385 . S
C678 C680 1.478 . S
C679 H673 0.930 . S
C679 C675 1.400 . S
C679 C678 1.385 . S
C680 C678 1.478 . S
C680 C682 1.381 . S
C680 C686 1.383 . S
C681 C677 1.495 . S
C681 H687 0.959 . S
C681 H688 0.961 . S
C681 H689 0.960 . S
C682 C680 1.381 . S
C682 C683 1.394 . S
C682 H690 0.930 . S
C683 C682 1.394 . S
C683 C684 1.383 . S
C683 H691 0.929 . S
C684 C683 1.383 . S
C684 C685 1.377 . S
C685 H669 0.930 . S
C685 C684 1.377 . S
C685 C686 1.379 . S
C686 H670 0.931 . S
C686 C680 1.383 . S
C686 C685 1.379 . S
H687 C681 0.959 . S
H688 C681 0.961 . S
H689 C681 0.960 . S
H690 C682 0.930 . S
H691 C683 0.929 . S
H692 C700 0.929 . S
H693 C702 0.930 . S
H694 C704 0.930 . S
H695 C707 0.929 . S
H696 C710 0.930 . S
H697 C712 0.960 . S
H698 C712 0.960 . S
H699 C712 0.960 . S
C700 H692 0.929 . S
C700 C701 1.377 . S
C700 C702 1.384 . S
C701 C700 1.377 . S
C701 C707 1.390 . S
C702 H693 0.930 . S
C702 C700 1.384 . S
C702 C703 1.372 . S
C703 C702 1.372 . S
C703 C704 1.400 . S
C703 C708 1.490 . S
C704 H694 0.930 . S
C704 C703 1.400 . S
C704 C707 1.386 . S
H705 C721 0.930 . S
H706 C722 0.931 . S
C707 H695 0.929 . S
C707 C701 1.390 . S
C707 C704 1.386 . S
C708 C703 1.490 . S
C708 C710 1.395 . S
C708 C711 1.403 . S
H709 C715 0.930 . S
C710 H696 0.930 . S
C710 C708 1.395 . S
C710 C713 1.403 . S
C711 C708 1.403 . S
C711 C712 1.524 . S
C711 C715 1.400 . S
C712 H697 0.960 . S
C712 H698 0.960 . S
C712 H699 0.960 . S
C712 C711 1.524 . S
C713 C710 1.403 . S
C713 C714 1.392 . S
C713 C717 1.495 . S
C714 C713 1.392 . S
C714 C715 1.385 . S
C714 C716 1.478 . S
C715 H709 0.930 . S
C715 C711 1.400 . S
C715 C714 1.385 . S
C716 C714 1.478 . S
C716 C718 1.381 . S
C716 C722 1.383 . S
C717 C713 1.495 . S
C717 H723 0.959 . S
C717 H724 0.961 . S
C717 H725 0.960 . S
C718 C716 1.381 . S
C718 C719 1.394 . S
C718 H726 0.930 . S
C719 C718 1.394 . S
C719 C720 1.383 . S
C719 H727 0.929 . S
C720 C719 1.383 . S
C720 C721 1.377 . S
C721 H705 0.930 . S
C721 C720 1.377 . S
C721 C722 1.379 . S
C722 H706 0.931 . S
C722 C716 1.383 . S
C722 C721 1.379 . S
H723 C717 0.959 . S
H724 C717 0.961 . S
H725 C717 0.960 . S
H726 C718 0.930 . S
H727 C719 0.929 . S
H728 C736 0.929 . S
H729 C738 0.930 . S
H730 C740 0.930 . S
H731 C743 0.929 . S
H732 C746 0.930 . S
H733 C748 0.960 . S
H734 C748 0.960 . S
H735 C748 0.960 . S
C736 H728 0.929 . S
C736 C737 1.377 . S
C736 C738 1.384 . S
C737 C736 1.377 . S
C737 C743 1.390 . S
C738 H729 0.930 . S
C738 C736 1.384 . S
C738 C739 1.372 . S
C739 C738 1.372 . S
C739 C740 1.400 . S
C739 C744 1.490 . S
C740 H730 0.930 . S
C740 C739 1.400 . S
C740 C743 1.386 . S
H741 C757 0.930 . S
H742 C758 0.931 . S
C743 H731 0.929 . S
C743 C737 1.390 . S
C743 C740 1.386 . S
C744 C739 1.490 . S
C744 C746 1.395 . S
C744 C747 1.403 . S
H745 C751 0.930 . S
C746 H732 0.930 . S
C746 C744 1.395 . S
C746 C749 1.403 . S
C747 C744 1.403 . S
C747 C748 1.524 . S
C747 C751 1.400 . S
C748 H733 0.960 . S
C748 H734 0.960 . S
C748 H735 0.960 . S
C748 C747 1.524 . S
C749 C746 1.403 . S
C749 C750 1.392 . S
C749 C753 1.495 . S
C750 C749 1.392 . S
C750 C751 1.385 . S
C750 C752 1.478 . S
C751 H745 0.930 . S
C751 C747 1.400 . S
C751 C750 1.385 . S
C752 C750 1.478 . S
C752 C754 1.381 . S
C752 C758 1.383 . S
C753 C749 1.495 . S
C753 H759 0.959 . S
C753 H760 0.961 . S
C753 H761 0.960 . S
C754 C752 1.381 . S
C754 C755 1.394 . S
C754 H762 0.930 . S
C755 C754 1.394 . S
C755 C756 1.383 . S
C755 H763 0.929 1_655 S
C756 C755 1.383 . S
C756 C757 1.377 . S
C757 H741 0.930 . S
C757 C756 1.377 . S
C757 C758 1.379 . S
C758 H742 0.931 . S
C758 C752 1.383 . S
C758 C757 1.379 . S
H759 C753 0.959 . S
H760 C753 0.961 . S
H761 C753 0.960 . S
H762 C754 0.930 . S
H763 C755 0.929 1_455 S
H764 C772 0.929 . S
H765 C774 0.930 . S
H766 C776 0.930 . S
H767 C779 0.929 . S
H768 C782 0.930 . S
H769 C784 0.960 . S
H770 C784 0.960 . S
H771 C784 0.960 . S
C772 H764 0.929 . S
C772 C773 1.377 . S
C772 C774 1.384 . S
C773 C772 1.377 . S
C773 C779 1.390 . S
C774 H765 0.930 . S
C774 C772 1.384 . S
C774 C775 1.372 . S
C775 C774 1.372 . S
C775 C776 1.400 . S
C775 C780 1.490 . S
C776 H766 0.930 . S
C776 C775 1.400 . S
C776 C779 1.386 . S
H777 C793 0.930 . S
H778 C794 0.931 . S
C779 H767 0.929 . S
C779 C773 1.390 . S
C779 C776 1.386 . S
C780 C775 1.490 . S
C780 C782 1.395 . S
C780 C783 1.403 . S
H781 C787 0.930 . S
C782 H768 0.930 . S
C782 C780 1.395 . S
C782 C785 1.403 . S
C783 C780 1.403 . S
C783 C784 1.524 . S
C783 C787 1.400 . S
C784 H769 0.960 . S
C784 H770 0.960 . S
C784 H771 0.960 . S
C784 C783 1.524 . S
C785 C782 1.403 . S
C785 C786 1.392 . S
C785 C789 1.495 . S
C786 C785 1.392 . S
C786 C787 1.385 . S
C786 C788 1.478 . S
C787 H781 0.930 . S
C787 C783 1.400 . S
C787 C786 1.385 . S
C788 C786 1.478 . S
C788 C790 1.381 . S
C788 C794 1.383 . S
C789 C785 1.495 . S
C789 H795 0.959 . S
C789 H796 0.961 . S
C789 H797 0.960 . S
C790 C788 1.381 . S
C790 C791 1.394 . S
C790 H798 0.930 . S
C791 C790 1.394 . S
C791 C792 1.383 . S
C791 H799 0.929 . S
C792 C791 1.383 . S
C792 C793 1.377 . S
C793 H777 0.930 . S
C793 C792 1.377 . S
C793 C794 1.379 . S
C794 H778 0.931 . S
C794 C788 1.383 . S
C794 C793 1.379 . S
H795 C789 0.959 . S
H796 C789 0.961 . S
H797 C789 0.960 . S
H798 C790 0.930 . S
H799 C791 0.929 . S
H800 C808 0.929 . S
H801 C810 0.930 . S
H802 C812 0.930 . S
H803 C815 0.929 . S
H804 C818 0.930 . S
H805 C820 0.960 . S
H806 C820 0.960 . S
H807 C820 0.960 . S
C808 H800 0.929 . S
C808 C809 1.377 . S
C808 C810 1.384 . S
C809 C808 1.377 . S
C809 C815 1.390 . S
C810 H801 0.930 . S
C810 C808 1.384 . S
C810 C811 1.372 . S
C811 C810 1.372 . S
C811 C812 1.400 . S
C811 C816 1.490 . S
C812 H802 0.930 . S
C812 C811 1.400 . S
C812 C815 1.386 . S
H813 C829 0.930 . S
H814 C830 0.931 . S
C815 H803 0.929 . S
C815 C809 1.390 . S
C815 C812 1.386 . S
C816 C811 1.490 . S
C816 C818 1.395 . S
C816 C819 1.403 . S
H817 C823 0.930 . S
C818 H804 0.930 . S
C818 C816 1.395 . S
C818 C821 1.403 . S
C819 C816 1.403 . S
C819 C820 1.524 . S
C819 C823 1.400 . S
C820 H805 0.960 . S
C820 H806 0.960 . S
C820 H807 0.960 . S
C820 C819 1.524 . S
C821 C818 1.403 . S
C821 C822 1.392 . S
C821 C825 1.495 . S
C822 C821 1.392 . S
C822 C823 1.385 . S
C822 C824 1.478 . S
C823 H817 0.930 . S
C823 C819 1.400 . S
C823 C822 1.385 . S
C824 C822 1.478 . S
C824 C826 1.381 . S
C824 C830 1.383 . S
C825 C821 1.495 . S
C825 H831 0.959 . S
C825 H832 0.961 . S
C825 H833 0.960 . S
C826 C824 1.381 . S
C826 C827 1.394 . S
C826 H834 0.930 . S
C827 C826 1.394 . S
C827 C828 1.383 . S
C827 H835 0.929 . S
C828 C827 1.383 . S
C828 C829 1.377 . S
C829 H813 0.930 . S
C829 C828 1.377 . S
C829 C830 1.379 . S
C830 H814 0.931 . S
C830 C824 1.383 . S
C830 C829 1.379 . S
H831 C825 0.959 . S
H832 C825 0.961 . S
H833 C825 0.960 . S
H834 C826 0.930 . S
H835 C827 0.929 . S
H836 C844 0.929 . S
H837 C846 0.930 . S
H838 C848 0.930 . S
H839 C851 0.929 . S
H840 C854 0.930 . S
H841 C856 0.960 . S
H842 C856 0.960 . S
H843 C856 0.960 . S
C844 H836 0.929 . S
C844 C845 1.377 . S
C844 C846 1.384 . S
C845 C844 1.377 . S
C845 C851 1.390 . S
C846 H837 0.930 . S
C846 C844 1.384 . S
C846 C847 1.372 . S
C847 C846 1.372 . S
C847 C848 1.400 . S
C847 C852 1.490 . S
C848 H838 0.930 . S
C848 C847 1.400 . S
C848 C851 1.386 . S
H849 C865 0.930 . S
H850 C866 0.931 . S
C851 H839 0.929 . S
C851 C845 1.390 . S
C851 C848 1.386 . S
C852 C847 1.490 . S
C852 C854 1.395 . S
C852 C855 1.403 . S
H853 C859 0.930 . S
C854 H840 0.930 . S
C854 C852 1.395 . S
C854 C857 1.403 . S
C855 C852 1.403 . S
C855 C856 1.524 . S
C855 C859 1.400 . S
C856 H841 0.960 . S
C856 H842 0.960 . S
C856 H843 0.960 . S
C856 C855 1.524 . S
C857 C854 1.403 . S
C857 C858 1.392 . S
C857 C861 1.495 . S
C858 C857 1.392 . S
C858 C859 1.385 . S
C858 C860 1.478 . S
C859 H853 0.930 . S
C859 C855 1.400 . S
C859 C858 1.385 . S
C860 C858 1.478 . S
C860 C862 1.381 . S
C860 C866 1.383 . S
C861 C857 1.495 . S
C861 H867 0.959 . S
C861 H868 0.961 . S
C861 H869 0.960 . S
C862 C860 1.381 . S
C862 C863 1.394 . S
C862 H870 0.930 . S
C863 C862 1.394 . S
C863 C864 1.383 . S
C863 H871 0.929 . S
C864 C863 1.383 . S
C864 C865 1.377 . S
C865 H849 0.930 . S
C865 C864 1.377 . S
C865 C866 1.379 . S
C866 H850 0.931 . S
C866 C860 1.383 . S
C866 C865 1.379 . S
H867 C861 0.959 . S
H868 C861 0.961 . S
H869 C861 0.960 . S
H870 C862 0.930 . S
H871 C863 0.929 . S
H872 C880 0.929 . S
H873 C882 0.930 . S
H874 C884 0.930 . S
H875 C887 0.929 . S
H876 C890 0.930 . S
H877 C892 0.960 . S
H878 C892 0.960 . S
H879 C892 0.960 . S
C880 H872 0.929 . S
C880 C881 1.377 . S
C880 C882 1.384 . S
C881 C880 1.377 . S
C881 C887 1.390 . S
C882 H873 0.930 . S
C882 C880 1.384 . S
C882 C883 1.372 . S
C883 C882 1.372 . S
C883 C884 1.400 . S
C883 C888 1.490 . S
C884 H874 0.930 . S
C884 C883 1.400 . S
C884 C887 1.386 . S
H885 C901 0.930 . S
H886 C902 0.931 . S
C887 H875 0.929 . S
C887 C881 1.390 . S
C887 C884 1.386 . S
C888 C883 1.490 . S
C888 C890 1.395 . S
C888 C891 1.403 . S
H889 C895 0.930 . S
C890 H876 0.930 . S
C890 C888 1.395 . S
C890 C893 1.403 . S
C891 C888 1.403 . S
C891 C892 1.524 . S
C891 C895 1.400 . S
C892 H877 0.960 . S
C892 H878 0.960 . S
C892 H879 0.960 . S
C892 C891 1.524 . S
C893 C890 1.403 . S
C893 C894 1.392 . S
C893 C897 1.495 . S
C894 C893 1.392 . S
C894 C895 1.385 . S
C894 C896 1.478 . S
C895 H889 0.930 . S
C895 C891 1.400 . S
C895 C894 1.385 . S
C896 C894 1.478 . S
C896 C898 1.381 . S
C896 C902 1.383 . S
C897 C893 1.495 . S
C897 H903 0.959 . S
C897 H904 0.961 . S
C897 H905 0.960 . S
C898 C896 1.381 . S
C898 C899 1.394 . S
C898 H906 0.930 . S
C899 C898 1.394 . S
C899 C900 1.383 . S
C899 H907 0.929 . S
C900 C899 1.383 . S
C900 C901 1.377 . S
C901 H885 0.930 . S
C901 C900 1.377 . S
C901 C902 1.379 . S
C902 H886 0.931 . S
C902 C896 1.383 . S
C902 C901 1.379 . S
H903 C897 0.959 . S
H904 C897 0.961 . S
H905 C897 0.960 . S
H906 C898 0.930 . S
H907 C899 0.929 . S
H908 C916 0.929 . S
H909 C918 0.930 . S
H910 C920 0.930 . S
H911 C923 0.929 . S
H912 C926 0.930 . S
H913 C928 0.960 . S
H914 C928 0.960 . S
H915 C928 0.960 . S
C916 H908 0.929 . S
C916 C917 1.377 . S
C916 C918 1.384 . S
C917 C916 1.377 . S
C917 C923 1.390 . S
C918 H909 0.930 . S
C918 C916 1.384 . S
C918 C919 1.372 . S
C919 C918 1.372 . S
C919 C920 1.400 . S
C919 C924 1.490 . S
C920 H910 0.930 . S
C920 C919 1.400 . S
C920 C923 1.386 . S
H921 C937 0.930 . S
H922 C938 0.931 . S
C923 H911 0.929 . S
C923 C917 1.390 . S
C923 C920 1.386 . S
C924 C919 1.490 . S
C924 C926 1.395 . S
C924 C927 1.403 . S
H925 C931 0.930 . S
C926 H912 0.930 . S
C926 C924 1.395 . S
C926 C929 1.403 . S
C927 C924 1.403 . S
C927 C928 1.524 . S
C927 C931 1.400 . S
C928 H913 0.960 . S
C928 H914 0.960 . S
C928 H915 0.960 . S
C928 C927 1.524 . S
C929 C926 1.403 . S
C929 C930 1.392 . S
C929 C933 1.495 . S
C930 C929 1.392 . S
C930 C931 1.385 . S
C930 C932 1.478 . S
C931 H925 0.930 . S
C931 C927 1.400 . S
C931 C930 1.385 . S
C932 C930 1.478 . S
C932 C934 1.381 . S
C932 C938 1.383 . S
C933 C929 1.495 . S
C933 H939 0.959 . S
C933 H940 0.961 . S
C933 H941 0.960 . S
C934 C932 1.381 . S
C934 C935 1.394 . S
C934 H942 0.930 . S
C935 C934 1.394 . S
C935 C936 1.383 . S
C935 H943 0.929 . S
C936 C935 1.383 . S
C936 C937 1.377 . S
C937 H921 0.930 . S
C937 C936 1.377 . S
C937 C938 1.379 . S
C938 H922 0.931 . S
C938 C932 1.383 . S
C938 C937 1.379 . S
H939 C933 0.959 . S
H940 C933 0.961 . S
H941 C933 0.960 . S
H942 C934 0.930 . S
H943 C935 0.929 . S
H944 C952 0.929 . S
H945 C954 0.930 . S
H946 C956 0.930 . S
H947 C959 0.929 . S
H948 C962 0.930 . S
H949 C964 0.960 . S
H950 C964 0.960 . S
H951 C964 0.960 . S
C952 H944 0.929 . S
C952 C953 1.377 . S
C952 C954 1.384 . S
C953 C952 1.377 . S
C953 C959 1.390 . S
C954 H945 0.930 . S
C954 C952 1.384 . S
C954 C955 1.372 . S
C955 C954 1.372 . S
C955 C956 1.400 . S
C955 C960 1.490 . S
C956 H946 0.930 . S
C956 C955 1.400 . S
C956 C959 1.386 . S
H957 C973 0.930 . S
H958 C974 0.931 . S
C959 H947 0.929 . S
C959 C953 1.390 . S
C959 C956 1.386 . S
C960 C955 1.490 . S
C960 C962 1.395 . S
C960 C963 1.403 . S
H961 C967 0.930 . S
C962 H948 0.930 . S
C962 C960 1.395 . S
C962 C965 1.403 . S
C963 C960 1.403 . S
C963 C964 1.524 . S
C963 C967 1.400 . S
C964 H949 0.960 . S
C964 H950 0.960 . S
C964 H951 0.960 . S
C964 C963 1.524 . S
C965 C962 1.403 . S
C965 C966 1.392 . S
C965 C969 1.495 . S
C966 C965 1.392 . S
C966 C967 1.385 . S
C966 C968 1.478 . S
C967 H961 0.930 . S
C967 C963 1.400 . S
C967 C966 1.385 . S
C968 C966 1.478 . S
C968 C970 1.381 . S
C968 C974 1.383 . S
C969 C965 1.495 . S
C969 H975 0.959 . S
C969 H976 0.961 . S
C969 H977 0.960 . S
C970 C968 1.381 . S
C970 C971 1.394 . S
C970 H978 0.930 . S
C971 C970 1.394 . S
C971 C972 1.383 . S
C971 H979 0.929 . S
C972 C971 1.383 . S
C972 C973 1.377 . S
C973 H957 0.930 . S
C973 C972 1.377 . S
C973 C974 1.379 . S
C974 H958 0.931 . S
C974 C968 1.383 . S
C974 C973 1.379 . S
H975 C969 0.959 . S
H976 C969 0.961 . S
H977 C969 0.960 . S
H978 C970 0.930 . S
H979 C971 0.929 . S
H980 C988 0.929 . S
H981 C990 0.930 . S
H982 C992 0.930 . S
H983 C995 0.929 . S
H984 C998 0.930 . S
H985 C1000 0.960 . S
H986 C1000 0.960 . S
H987 C1000 0.960 . S
C988 H980 0.929 . S
C988 C989 1.377 . S
C988 C990 1.384 . S
C989 C988 1.377 . S
C989 C995 1.390 . S
C990 H981 0.930 . S
C990 C988 1.384 . S
C990 C991 1.372 . S
C991 C990 1.372 . S
C991 C992 1.400 . S
C991 C996 1.490 . S
C992 H982 0.930 . S
C992 C991 1.400 . S
C992 C995 1.386 . S
H993 C1009 0.930 . S
H994 C1010 0.931 . S
C995 H983 0.929 . S
C995 C989 1.390 . S
C995 C992 1.386 . S
C996 C991 1.490 . S
C996 C998 1.395 . S
C996 C999 1.403 . S
H997 C1003 0.930 . S
C998 H984 0.930 . S
C998 C996 1.395 . S
C998 C1001 1.403 . S
C999 C996 1.403 . S
C999 C1000 1.524 . S
C999 C1003 1.400 . S
C1000 H985 0.960 . S
C1000 H986 0.960 . S
C1000 H987 0.960 . S
C1000 C999 1.524 . S
C1001 C998 1.403 . S
C1001 C1002 1.392 . S
C1001 C1005 1.495 . S
C1002 C1001 1.392 . S
C1002 C1003 1.385 . S
C1002 C1004 1.478 . S
C1003 H997 0.930 . S
C1003 C999 1.400 . S
C1003 C1002 1.385 . S
C1004 C1002 1.478 . S
C1004 C1006 1.381 . S
C1004 C1010 1.383 . S
C1005 C1001 1.495 . S
C1005 H1011 0.959 . S
C1005 H1012 0.961 . S
C1005 H1013 0.960 . S
C1006 C1004 1.381 . S
C1006 C1007 1.394 . S
C1006 H1014 0.930 . S
C1007 C1006 1.394 . S
C1007 C1008 1.383 . S
C1007 H1015 0.929 1_556 S
C1008 C1007 1.383 . S
C1008 C1009 1.377 . S
C1009 H993 0.930 . S
C1009 C1008 1.377 . S
C1009 C1010 1.379 . S
C1010 H994 0.931 . S
C1010 C1004 1.383 . S
C1010 C1009 1.379 . S
H1011 C1005 0.959 . S
H1012 C1005 0.961 . S
H1013 C1005 0.960 . S
H1014 C1006 0.930 . S
H1015 C1007 0.929 1_554 S
H1016 C1024 0.929 . S
H1017 C1026 0.930 . S
H1018 C1028 0.930 . S
H1019 C1031 0.929 . S
H1020 C1034 0.930 . S
H1021 C1036 0.960 . S
H1022 C1036 0.960 . S
H1023 C1036 0.960 . S
C1024 H1016 0.929 . S
C1024 C1025 1.377 . S
C1024 C1026 1.384 . S
C1025 C1024 1.377 . S
C1025 C1031 1.390 . S
C1026 H1017 0.930 . S
C1026 C1024 1.384 . S
C1026 C1027 1.372 . S
C1027 C1026 1.372 . S
C1027 C1028 1.400 . S
C1027 C1032 1.490 . S
C1028 H1018 0.930 . S
C1028 C1027 1.400 . S
C1028 C1031 1.386 . S
H1029 C1045 0.930 . S
H1030 C1046 0.931 . S
C1031 H1019 0.929 . S
C1031 C1025 1.390 . S
C1031 C1028 1.386 . S
C1032 C1027 1.490 . S
C1032 C1034 1.395 . S
C1032 C1035 1.403 . S
H1033 C1039 0.930 . S
C1034 H1020 0.930 . S
C1034 C1032 1.395 . S
C1034 C1037 1.403 . S
C1035 C1032 1.403 . S
C1035 C1036 1.524 . S
C1035 C1039 1.400 . S
C1036 H1021 0.960 . S
C1036 H1022 0.960 . S
C1036 H1023 0.960 . S
C1036 C1035 1.524 . S
C1037 C1034 1.403 . S
C1037 C1038 1.392 . S
C1037 C1041 1.495 . S
C1038 C1037 1.392 . S
C1038 C1039 1.385 . S
C1038 C1040 1.478 . S
C1039 H1033 0.930 . S
C1039 C1035 1.400 . S
C1039 C1038 1.385 . S
C1040 C1038 1.478 . S
C1040 C1042 1.381 . S
C1040 C1046 1.383 . S
C1041 C1037 1.495 . S
C1041 H1047 0.959 . S
C1041 H1048 0.961 . S
C1041 H1049 0.960 . S
C1042 C1040 1.381 . S
C1042 C1043 1.394 . S
C1042 H1050 0.930 . S
C1043 C1042 1.394 . S
C1043 C1044 1.383 . S
C1043 H1051 0.929 . S
C1044 C1043 1.383 . S
C1044 C1045 1.377 . S
C1045 H1029 0.930 . S
C1045 C1044 1.377 . S
C1045 C1046 1.379 . S
C1046 H1030 0.931 . S
C1046 C1040 1.383 . S
C1046 C1045 1.379 . S
H1047 C1041 0.959 . S
H1048 C1041 0.961 . S
H1049 C1041 0.960 . S
H1050 C1042 0.930 . S
H1051 C1043 0.929 . S
H1052 C1060 0.929 . S
H1053 C1062 0.930 . S
H1054 C1064 0.930 . S
H1055 C1067 0.929 . S
H1056 C1070 0.930 . S
H1057 C1072 0.960 . S
H1058 C1072 0.960 . S
H1059 C1072 0.960 . S
C1060 H1052 0.929 . S
C1060 C1061 1.377 . S
C1060 C1062 1.384 . S
C1061 C1060 1.377 . S
C1061 C1067 1.390 . S
C1062 H1053 0.930 . S
C1062 C1060 1.384 . S
C1062 C1063 1.372 . S
C1063 C1062 1.372 . S
C1063 C1064 1.400 . S
C1063 C1068 1.490 . S
C1064 H1054 0.930 . S
C1064 C1063 1.400 . S
C1064 C1067 1.386 . S
H1065 C1081 0.930 . S
H1066 C1082 0.931 . S
C1067 H1055 0.929 . S
C1067 C1061 1.390 . S
C1067 C1064 1.386 . S
C1068 C1063 1.490 . S
C1068 C1070 1.395 . S
C1068 C1071 1.403 . S
H1069 C1075 0.930 . S
C1070 H1056 0.930 . S
C1070 C1068 1.395 . S
C1070 C1073 1.403 . S
C1071 C1068 1.403 . S
C1071 C1072 1.524 . S
C1071 C1075 1.400 . S
C1072 H1057 0.960 . S
C1072 H1058 0.960 . S
C1072 H1059 0.960 . S
C1072 C1071 1.524 . S
C1073 C1070 1.403 . S
C1073 C1074 1.392 . S
C1073 C1077 1.495 . S
C1074 C1073 1.392 . S
C1074 C1075 1.385 . S
C1074 C1076 1.478 . S
C1075 H1069 0.930 . S
C1075 C1071 1.400 . S
C1075 C1074 1.385 . S
C1076 C1074 1.478 . S
C1076 C1078 1.381 . S
C1076 C1082 1.383 . S
C1077 C1073 1.495 . S
C1077 H1083 0.959 . S
C1077 H1084 0.961 . S
C1077 H1085 0.960 . S
C1078 C1076 1.381 . S
C1078 C1079 1.394 . S
C1078 H1086 0.930 . S
C1079 C1078 1.394 . S
C1079 C1080 1.383 . S
C1079 H1087 0.929 . S
C1080 C1079 1.383 . S
C1080 C1081 1.377 . S
C1081 H1065 0.930 . S
C1081 C1080 1.377 . S
C1081 C1082 1.379 . S
C1082 H1066 0.931 . S
C1082 C1076 1.383 . S
C1082 C1081 1.379 . S
H1083 C1077 0.959 . S
H1084 C1077 0.961 . S
H1085 C1077 0.960 . S
H1086 C1078 0.930 . S
H1087 C1079 0.929 . S
H1088 C1096 0.929 . S
H1089 C1098 0.930 . S
H1090 C1100 0.930 . S
H1091 C1103 0.929 . S
H1092 C1106 0.930 . S
H1093 C1108 0.960 . S
H1094 C1108 0.960 . S
H1095 C1108 0.960 . S
C1096 H1088 0.929 . S
C1096 C1097 1.377 . S
C1096 C1098 1.384 . S
C1097 C1096 1.377 . S
C1097 C1103 1.390 . S
C1098 H1089 0.930 . S
C1098 C1096 1.384 . S
C1098 C1099 1.372 . S
C1099 C1098 1.372 . S
C1099 C1100 1.400 . S
C1099 C1104 1.490 . S
C1100 H1090 0.930 . S
C1100 C1099 1.400 . S
C1100 C1103 1.386 . S
H1101 C1117 0.930 . S
H1102 C1118 0.931 . S
C1103 H1091 0.929 . S
C1103 C1097 1.390 . S
C1103 C1100 1.386 . S
C1104 C1099 1.490 . S
C1104 C1106 1.395 . S
C1104 C1107 1.403 . S
H1105 C1111 0.930 . S
C1106 H1092 0.930 . S
C1106 C1104 1.395 . S
C1106 C1109 1.403 . S
C1107 C1104 1.403 . S
C1107 C1108 1.524 . S
C1107 C1111 1.400 . S
C1108 H1093 0.960 . S
C1108 H1094 0.960 . S
C1108 H1095 0.960 . S
C1108 C1107 1.524 . S
C1109 C1106 1.403 . S
C1109 C1110 1.392 . S
C1109 C1113 1.495 . S
C1110 C1109 1.392 . S
C1110 C1111 1.385 . S
C1110 C1112 1.478 . S
C1111 H1105 0.930 . S
C1111 C1107 1.400 . S
C1111 C1110 1.385 . S
C1112 C1110 1.478 . S
C1112 C1114 1.381 . S
C1112 C1118 1.383 . S
C1113 C1109 1.495 . S
C1113 H1119 0.959 . S
C1113 H1120 0.961 . S
C1113 H1121 0.960 . S
C1114 C1112 1.381 . S
C1114 C1115 1.394 . S
C1114 H1122 0.930 . S
C1115 C1114 1.394 . S
C1115 C1116 1.383 . S
C1115 H1123 0.929 . S
C1116 C1115 1.383 . S
C1116 C1117 1.377 . S
C1117 H1101 0.930 . S
C1117 C1116 1.377 . S
C1117 C1118 1.379 . S
C1118 H1102 0.931 . S
C1118 C1112 1.383 . S
C1118 C1117 1.379 . S
H1119 C1113 0.959 . S
H1120 C1113 0.961 . S
H1121 C1113 0.960 . S
H1122 C1114 0.930 . S
H1123 C1115 0.929 . S
H1124 C1132 0.929 . S
H1125 C1134 0.930 . S
H1126 C1136 0.930 . S
H1127 C1139 0.929 . S
H1128 C1142 0.930 . S
H1129 C1144 0.960 . S
H1130 C1144 0.960 . S
H1131 C1144 0.960 . S
C1132 H1124 0.929 . S
C1132 C1133 1.377 . S
C1132 C1134 1.384 . S
C1133 C1132 1.377 . S
C1133 C1139 1.390 . S
C1134 H1125 0.930 . S
C1134 C1132 1.384 . S
C1134 C1135 1.372 . S
C1135 C1134 1.372 . S
C1135 C1136 1.400 . S
C1135 C1140 1.490 . S
C1136 H1126 0.930 . S
C1136 C1135 1.400 . S
C1136 C1139 1.386 . S
H1137 C1153 0.930 . S
H1138 C1154 0.931 . S
C1139 H1127 0.929 . S
C1139 C1133 1.390 . S
C1139 C1136 1.386 . S
C1140 C1135 1.490 . S
C1140 C1142 1.395 . S
C1140 C1143 1.403 . S
H1141 C1147 0.930 . S
C1142 H1128 0.930 . S
C1142 C1140 1.395 . S
C1142 C1145 1.403 . S
C1143 C1140 1.403 . S
C1143 C1144 1.524 . S
C1143 C1147 1.400 . S
C1144 H1129 0.960 . S
C1144 H1130 0.960 . S
C1144 H1131 0.960 . S
C1144 C1143 1.524 . S
C1145 C1142 1.403 . S
C1145 C1146 1.392 . S
C1145 C1149 1.495 . S
C1146 C1145 1.392 . S
C1146 C1147 1.385 . S
C1146 C1148 1.478 . S
C1147 H1141 0.930 . S
C1147 C1143 1.400 . S
C1147 C1146 1.385 . S
C1148 C1146 1.478 . S
C1148 C1150 1.381 . S
C1148 C1154 1.383 . S
C1149 C1145 1.495 . S
C1149 H1155 0.959 . S
C1149 H1156 0.961 . S
C1149 H1157 0.960 . S
C1150 C1148 1.381 . S
C1150 C1151 1.394 . S
C1150 H1158 0.930 . S
C1151 C1150 1.394 . S
C1151 C1152 1.383 . S
C1151 H1159 0.916 1_556 S
C1152 C1151 1.383 . S
C1152 C1153 1.377 . S
C1153 H1137 0.930 . S
C1153 C1152 1.377 . S
C1153 C1154 1.379 . S
C1154 H1138 0.931 . S
C1154 C1148 1.383 . S
C1154 C1153 1.379 . S
H1155 C1149 0.959 . S
H1156 C1149 0.961 . S
H1157 C1149 0.960 . S
H1158 C1150 0.930 . S
H1159 C1151 0.916 1_554 S
H1160 C1168 0.929 . S
H1161 C1170 0.930 . S
H1162 C1172 0.930 . S
H1163 C1175 0.929 . S
H1164 C1178 0.930 . S
H1165 C1180 0.960 . S
H1166 C1180 0.960 . S
H1167 C1180 0.960 . S
C1168 H1160 0.929 . S
C1168 C1169 1.377 . S
C1168 C1170 1.384 . S
C1169 C1168 1.377 . S
C1169 C1175 1.390 . S
C1170 H1161 0.930 . S
C1170 C1168 1.384 . S
C1170 C1171 1.372 . S
C1171 C1170 1.372 . S
C1171 C1172 1.400 . S
C1171 C1176 1.490 . S
C1172 H1162 0.930 . S
C1172 C1171 1.400 . S
C1172 C1175 1.386 . S
H1173 C1189 0.930 . S
H1174 C1190 0.931 . S
C1175 H1163 0.929 . S
C1175 C1169 1.390 . S
C1175 C1172 1.386 . S
C1176 C1171 1.490 . S
C1176 C1178 1.395 . S
C1176 C1179 1.403 . S
H1177 C1183 0.930 . S
C1178 H1164 0.930 . S
C1178 C1176 1.395 . S
C1178 C1181 1.403 . S
C1179 C1176 1.403 . S
C1179 C1180 1.524 . S
C1179 C1183 1.400 . S
C1180 H1165 0.960 . S
C1180 H1166 0.960 . S
C1180 H1167 0.960 . S
C1180 C1179 1.524 . S
C1181 C1178 1.403 . S
C1181 C1182 1.392 . S
C1181 C1185 1.495 . S
C1182 C1181 1.392 . S
C1182 C1183 1.385 . S
C1182 C1184 1.478 . S
C1183 H1177 0.930 . S
C1183 C1179 1.400 . S
C1183 C1182 1.385 . S
C1184 C1182 1.478 . S
C1184 C1186 1.381 . S
C1184 C1190 1.383 . S
C1185 C1181 1.495 . S
C1185 H1191 0.959 . S
C1185 H1192 0.961 . S
C1185 H1193 0.960 . S
C1186 C1184 1.381 . S
C1186 C1187 1.394 . S
C1186 H1194 0.930 . S
C1187 C1186 1.394 . S
C1187 C1188 1.383 . S
C1187 H1195 0.929 . S
C1188 C1187 1.383 . S
C1188 C1189 1.377 . S
C1189 H1173 0.930 . S
C1189 C1188 1.377 . S
C1189 C1190 1.379 . S
C1190 H1174 0.931 . S
C1190 C1184 1.383 . S
C1190 C1189 1.379 . S
H1191 C1185 0.959 . S
H1192 C1185 0.961 . S
H1193 C1185 0.960 . S
H1194 C1186 0.930 . S
H1195 C1187 0.929 . S
H1196 C1204 0.929 . S
H1197 C1206 0.930 . S
H1198 C1208 0.930 . S
H1199 C1211 0.929 . S
H1200 C1214 0.930 . S
H1201 C1216 0.960 . S
H1202 C1216 0.960 . S
H1203 C1216 0.960 . S
C1204 H1196 0.929 . S
C1204 C1205 1.377 . S
C1204 C1206 1.384 . S
C1205 C1204 1.377 . S
C1205 C1211 1.390 . S
C1206 H1197 0.930 . S
C1206 C1204 1.384 . S
C1206 C1207 1.372 . S
C1207 C1206 1.372 . S
C1207 C1208 1.400 . S
C1207 C1212 1.490 . S
C1208 H1198 0.930 . S
C1208 C1207 1.400 . S
C1208 C1211 1.386 . S
H1209 C1225 0.930 . S
H1210 C1226 0.931 . S
C1211 H1199 0.929 . S
C1211 C1205 1.390 . S
C1211 C1208 1.386 . S
C1212 C1207 1.490 . S
C1212 C1214 1.395 . S
C1212 C1215 1.403 . S
H1213 C1219 0.930 . S
C1214 H1200 0.930 . S
C1214 C1212 1.395 . S
C1214 C1217 1.403 . S
C1215 C1212 1.403 . S
C1215 C1216 1.524 . S
C1215 C1219 1.400 . S
C1216 H1201 0.960 . S
C1216 H1202 0.960 . S
C1216 H1203 0.960 . S
C1216 C1215 1.524 . S
C1217 C1214 1.403 . S
C1217 C1218 1.392 . S
C1217 C1221 1.495 . S
C1218 C1217 1.392 . S
C1218 C1219 1.385 . S
C1218 C1220 1.478 . S
C1219 H1213 0.930 . S
C1219 C1215 1.400 . S
C1219 C1218 1.385 . S
C1220 C1218 1.478 . S
C1220 C1222 1.381 . S
C1220 C1226 1.383 . S
C1221 C1217 1.495 . S
C1221 H1227 0.959 . S
C1221 H1228 0.961 . S
C1221 H1229 0.960 . S
C1222 C1220 1.381 . S
C1222 C1223 1.394 . S
C1222 H1230 0.930 . S
C1223 C1222 1.394 . S
C1223 C1224 1.383 . S
C1223 H1231 0.929 . S
C1224 C1223 1.383 . S
C1224 C1225 1.377 . S
C1225 H1209 0.930 . S
C1225 C1224 1.377 . S
C1225 C1226 1.379 . S
C1226 H1210 0.931 . S
C1226 C1220 1.383 . S
C1226 C1225 1.379 . S
H1227 C1221 0.959 . S
H1228 C1221 0.961 . S
H1229 C1221 0.960 . S
H1230 C1222 0.930 . S
H1231 C1223 0.929 . S
H1232 C1240 0.929 . S
H1233 C1242 0.930 . S
H1234 C1244 0.930 . S
H1235 C1247 0.929 . S
H1236 C1250 0.930 . S
H1237 C1252 0.960 . S
H1238 C1252 0.960 . S
H1239 C1252 0.960 . S
C1240 H1232 0.929 . S
C1240 C1241 1.377 . S
C1240 C1242 1.384 . S
C1241 C1240 1.377 . S
C1241 C1247 1.390 . S
C1242 H1233 0.930 . S
C1242 C1240 1.384 . S
C1242 C1243 1.372 . S
C1243 C1242 1.372 . S
C1243 C1244 1.400 . S
C1243 C1248 1.490 . S
C1244 H1234 0.930 . S
C1244 C1243 1.400 . S
C1244 C1247 1.386 . S
H1245 C1261 0.959 . S
H1246 C1262 0.931 . S
C1247 H1235 0.929 . S
C1247 C1241 1.390 . S
C1247 C1244 1.386 . S
C1248 C1243 1.490 . S
C1248 C1250 1.395 . S
C1248 C1251 1.403 . S
H1249 C1255 0.930 . S
C1250 H1236 0.930 . S
C1250 C1248 1.395 . S
C1250 C1253 1.403 . S
C1251 C1248 1.403 . S
C1251 C1252 1.524 . S
C1251 C1255 1.400 . S
C1252 H1237 0.960 . S
C1252 H1238 0.960 . S
C1252 H1239 0.960 . S
C1252 C1251 1.524 . S
C1253 C1250 1.403 . S
C1253 C1254 1.392 . S
C1253 C1257 1.495 . S
C1254 C1253 1.392 . S
C1254 C1255 1.385 . S
C1254 C1256 1.478 . S
C1255 H1249 0.930 . S
C1255 C1251 1.400 . S
C1255 C1254 1.385 . S
C1256 C1254 1.478 . S
C1256 C1258 1.381 . S
C1256 C1262 1.383 . S
C1257 C1253 1.495 . S
C1257 H1263 0.959 . S
C1257 H1264 0.961 . S
C1257 H1265 0.960 . S
C1258 C1256 1.381 . S
C1258 C1259 1.394 . S
C1258 H1266 0.930 . S
C1259 C1258 1.394 . S
C1259 C1260 1.383 . S
C1259 H1267 0.929 . S
C1260 C1259 1.383 . S
C1260 C1261 1.377 . S
C1261 H1245 0.959 . S
C1261 C1260 1.377 . S
C1261 C1262 1.379 . S
C1262 H1246 0.931 . S
C1262 C1256 1.383 . S
C1262 C1261 1.379 . S
H1263 C1257 0.959 . S
H1264 C1257 0.961 . S
H1265 C1257 0.960 . S
H1266 C1258 0.930 . S
H1267 C1259 0.929 . S
H1268 C1276 0.929 . S
H1269 C1278 0.930 . S
H1270 C1280 0.930 . S
H1271 C1283 0.929 . S
H1272 C1286 0.930 . S
H1273 C1288 0.960 . S
H1274 C1288 0.960 . S
H1275 C1288 0.960 . S
C1276 H1268 0.929 . S
C1276 C1277 1.377 . S
C1276 C1278 1.384 . S
C1277 C1276 1.377 . S
C1277 C1283 1.390 . S
C1278 H1269 0.930 . S
C1278 C1276 1.384 . S
C1278 C1279 1.372 . S
C1279 C1278 1.372 . S
C1279 C1280 1.400 . S
C1279 C1284 1.490 . S
C1280 H1270 0.930 . S
C1280 C1279 1.400 . S
C1280 C1283 1.386 . S
H1281 C1297 0.930 . S
H1282 C1298 0.931 . S
C1283 H1271 0.929 . S
C1283 C1277 1.390 . S
C1283 C1280 1.386 . S
C1284 C1279 1.490 . S
C1284 C1286 1.395 . S
C1284 C1287 1.403 . S
H1285 C1291 0.930 . S
C1286 H1272 0.930 . S
C1286 C1284 1.395 . S
C1286 C1289 1.403 . S
C1287 C1284 1.403 . S
C1287 C1288 1.524 . S
C1287 C1291 1.400 . S
C1288 H1273 0.960 . S
C1288 H1274 0.960 . S
C1288 H1275 0.960 . S
C1288 C1287 1.524 . S
C1289 C1286 1.403 . S
C1289 C1290 1.392 . S
C1289 C1293 1.495 . S
C1290 C1289 1.392 . S
C1290 C1291 1.385 . S
C1290 C1292 1.478 . S
C1291 H1285 0.930 . S
C1291 C1287 1.400 . S
C1291 C1290 1.385 . S
C1292 C1290 1.478 . S
C1292 C1294 1.381 . S
C1292 C1298 1.383 . S
C1293 C1289 1.495 . S
C1293 H1299 0.959 . S
C1293 H1300 0.961 . S
C1293 H1301 0.960 . S
C1294 C1292 1.381 . S
C1294 C1295 1.394 . S
C1294 H1302 0.930 . S
C1295 C1294 1.394 . S
C1295 C1296 1.383 . S
C1295 H1303 0.929 . S
C1296 C1295 1.383 . S
C1296 C1297 1.377 . S
C1297 H1281 0.930 . S
C1297 C1296 1.377 . S
C1297 C1298 1.379 . S
C1298 H1282 0.931 . S
C1298 C1292 1.383 . S
C1298 C1297 1.379 . S
H1299 C1293 0.959 . S
H1300 C1293 0.961 . S
H1301 C1293 0.960 . S
H1302 C1294 0.930 . S
H1303 C1295 0.929 . S
H1304 C1312 0.929 . S
H1305 C1314 0.930 . S
H1306 C1316 0.930 . S
H1307 C1319 0.929 . S
H1308 C1322 0.930 . S
H1309 C1324 0.960 . S
H1310 C1324 0.960 . S
H1311 C1324 0.960 . S
C1312 H1304 0.929 . S
C1312 C1313 1.377 . S
C1312 C1314 1.384 . S
C1313 C1312 1.377 . S
C1313 C1319 1.390 . S
C1314 H1305 0.930 . S
C1314 C1312 1.384 . S
C1314 C1315 1.372 . S
C1315 C1314 1.372 . S
C1315 C1316 1.400 . S
C1315 C1320 1.490 . S
C1316 H1306 0.930 . S
C1316 C1315 1.400 . S
C1316 C1319 1.386 . S
H1317 C1333 0.930 . S
H1318 C1334 0.931 . S
C1319 H1307 0.929 . S
C1319 C1313 1.390 . S
C1319 C1316 1.386 . S
C1320 C1315 1.490 . S
C1320 C1322 1.395 . S
C1320 C1323 1.403 . S
H1321 C1327 0.930 . S
C1322 H1308 0.930 . S
C1322 C1320 1.395 . S
C1322 C1325 1.403 . S
C1323 C1320 1.403 . S
C1323 C1324 1.524 . S
C1323 C1327 1.400 . S
C1324 H1309 0.960 . S
C1324 H1310 0.960 . S
C1324 H1311 0.960 . S
C1324 C1323 1.524 . S
C1325 C1322 1.403 . S
C1325 C1326 1.392 . S
C1325 C1329 1.495 . S
C1326 C1325 1.392 . S
C1326 C1327 1.385 . S
C1326 C1328 1.478 . S
C1327 H1321 0.930 . S
C1327 C1323 1.400 . S
C1327 C1326 1.385 . S
C1328 C1326 1.478 . S
C1328 C1330 1.381 . S
C1328 C1334 1.383 . S
C1329 C1325 1.495 . S
C1329 H1335 0.959 . S
C1329 H1336 0.961 . S
C1329 H1337 0.960 . S
C1330 C1328 1.381 . S
C1330 C1331 1.394 . S
C1330 H1338 0.930 . S
C1331 C1330 1.394 . S
C1331 C1332 1.383 . S
C1331 H1339 0.929 . S
C1332 C1331 1.383 . S
C1332 C1333 1.377 . S
C1333 H1317 0.930 . S
C1333 C1332 1.377 . S
C1333 C1334 1.379 . S
C1334 H1318 0.931 . S
C1334 C1328 1.383 . S
C1334 C1333 1.379 . S
H1335 C1329 0.959 . S
H1336 C1329 0.961 . S
H1337 C1329 0.960 . S
H1338 C1330 0.930 . S
H1339 C1331 0.929 . S
H1340 C1348 0.929 . S
H1341 C1350 0.930 . S
H1342 C1352 0.930 . S
H1343 C1355 0.929 . S
H1344 C1358 0.930 . S
H1345 C1360 0.960 . S
H1346 C1360 0.960 . S
H1347 C1360 0.960 . S
C1348 H1340 0.929 . S
C1348 C1349 1.377 . S
C1348 C1350 1.384 . S
C1349 C1348 1.377 . S
C1349 C1355 1.390 . S
C1350 H1341 0.930 . S
C1350 C1348 1.384 . S
C1350 C1351 1.372 . S
C1351 C1350 1.372 . S
C1351 C1352 1.400 . S
C1351 C1356 1.490 . S
C1352 H1342 0.930 . S
C1352 C1351 1.400 . S
C1352 C1355 1.386 . S
H1353 C1369 0.930 . S
H1354 C1370 0.931 . S
C1355 H1343 0.929 . S
C1355 C1349 1.390 . S
C1355 C1352 1.386 . S
C1356 C1351 1.490 . S
C1356 C1358 1.395 . S
C1356 C1359 1.403 . S
H1357 C1363 0.930 . S
C1358 H1344 0.930 . S
C1358 C1356 1.395 . S
C1358 C1361 1.403 . S
C1359 C1356 1.403 . S
C1359 C1360 1.524 . S
C1359 C1363 1.400 . S
C1360 H1345 0.960 . S
C1360 H1346 0.960 . S
C1360 H1347 0.960 . S
C1360 C1359 1.524 . S
C1361 C1358 1.403 . S
C1361 C1362 1.392 . S
C1361 C1365 1.495 . S
C1362 C1361 1.392 . S
C1362 C1363 1.385 . S
C1362 C1364 1.478 . S
C1363 H1357 0.930 . S
C1363 C1359 1.400 . S
C1363 C1362 1.385 . S
C1364 C1362 1.478 . S
C1364 C1366 1.381 . S
C1364 C1370 1.383 . S
C1365 C1361 1.495 . S
C1365 H1371 0.959 . S
C1365 H1372 0.961 . S
C1365 H1373 0.960 . S
C1366 C1364 1.381 . S
C1366 C1367 1.394 . S
C1366 H1374 0.930 . S
C1367 C1366 1.394 . S
C1367 C1368 1.383 . S
C1367 H1375 0.929 . S
C1368 C1367 1.383 . S
C1368 C1369 1.377 . S
C1369 H1353 0.930 . S
C1369 C1368 1.377 . S
C1369 C1370 1.379 . S
C1370 H1354 0.931 . S
C1370 C1364 1.383 . S
C1370 C1369 1.379 . S
H1371 C1365 0.959 . S
H1372 C1365 0.961 . S
H1373 C1365 0.960 . S
H1374 C1366 0.930 . S
H1375 C1367 0.929 . S
H1376 C1384 0.929 . S
H1377 C1386 0.930 . S
H1378 C1388 0.930 . S
H1379 C1391 0.929 . S
H1380 C1394 0.930 . S
H1381 C1396 0.960 . S
H1382 C1396 0.960 . S
H1383 C1396 0.960 . S
C1384 H1376 0.929 . S
C1384 C1385 1.377 . S
C1384 C1386 1.384 . S
C1385 C1384 1.377 . S
C1385 C1391 1.390 . S
C1386 H1377 0.930 . S
C1386 C1384 1.384 . S
C1386 C1387 1.372 . S
C1387 C1386 1.372 . S
C1387 C1388 1.400 . S
C1387 C1392 1.490 . S
C1388 H1378 0.930 . S
C1388 C1387 1.400 . S
C1388 C1391 1.386 . S
H1389 C1405 0.930 . S
H1390 C1406 0.931 . S
C1391 H1379 0.929 . S
C1391 C1385 1.390 . S
C1391 C1388 1.386 . S
C1392 C1387 1.490 . S
C1392 C1394 1.395 . S
C1392 C1395 1.403 . S
H1393 C1399 0.930 . S
C1394 H1380 0.930 . S
C1394 C1392 1.395 . S
C1394 C1397 1.403 . S
C1395 C1392 1.403 . S
C1395 C1396 1.524 . S
C1395 C1399 1.400 . S
C1396 H1381 0.960 . S
C1396 H1382 0.960 . S
C1396 H1383 0.960 . S
C1396 C1395 1.524 . S
C1397 C1394 1.403 . S
C1397 C1398 1.392 . S
C1397 C1401 1.495 . S
C1398 C1397 1.392 . S
C1398 C1399 1.385 . S
C1398 C1400 1.478 . S
C1399 H1393 0.930 . S
C1399 C1395 1.400 . S
C1399 C1398 1.385 . S
C1400 C1398 1.478 . S
C1400 C1402 1.381 . S
C1400 C1406 1.383 . S
C1401 C1397 1.495 . S
C1401 H1407 0.959 . S
C1401 H1408 0.961 . S
C1401 H1409 0.960 . S
C1402 C1400 1.381 . S
C1402 C1403 1.394 . S
C1402 H1410 0.930 . S
C1403 C1402 1.394 . S
C1403 C1404 1.383 . S
C1403 H1411 0.929 . S
C1404 C1403 1.383 . S
C1404 C1405 1.377 . S
C1405 H1389 0.930 . S
C1405 C1404 1.377 . S
C1405 C1406 1.379 . S
C1406 H1390 0.931 . S
C1406 C1400 1.383 . S
C1406 C1405 1.379 . S
H1407 C1401 0.959 . S
H1408 C1401 0.961 . S
H1409 C1401 0.960 . S
H1410 C1402 0.930 . S
H1411 C1403 0.929 . S
H1412 C1420 0.929 . S
H1413 C1422 0.930 . S
H1414 C1424 0.930 . S
H1415 C1427 0.929 . S
H1416 C1430 0.930 . S
H1417 C1432 0.960 . S
H1418 C1432 0.960 . S
H1419 C1432 0.960 . S
C1420 H1412 0.929 . S
C1420 C1421 1.377 . S
C1420 C1422 1.384 . S
C1421 C1420 1.377 . S
C1421 C1427 1.390 . S
C1422 H1413 0.930 . S
C1422 C1420 1.384 . S
C1422 C1423 1.372 . S
C1423 C1422 1.372 . S
C1423 C1424 1.400 . S
C1423 C1428 1.490 . S
C1424 H1414 0.930 . S
C1424 C1423 1.400 . S
C1424 C1427 1.386 . S
H1425 C1441 0.930 . S
H1426 C1442 0.931 . S
C1427 H1415 0.929 . S
C1427 C1421 1.390 . S
C1427 C1424 1.386 . S
C1428 C1423 1.490 . S
C1428 C1430 1.395 . S
C1428 C1431 1.403 . S
H1429 C1435 0.930 . S
C1430 H1416 0.930 . S
C1430 C1428 1.395 . S
C1430 C1433 1.403 . S
C1431 C1428 1.403 . S
C1431 C1432 1.524 . S
C1431 C1435 1.400 . S
C1432 H1417 0.960 . S
C1432 H1418 0.960 . S
C1432 H1419 0.960 . S
C1432 C1431 1.524 . S
C1433 C1430 1.403 . S
C1433 C1434 1.392 . S
C1433 C1437 1.495 . S
C1434 C1433 1.392 . S
C1434 C1435 1.385 . S
C1434 C1436 1.478 . S
C1435 H1429 0.930 . S
C1435 C1431 1.400 . S
C1435 C1434 1.385 . S
C1436 C1434 1.478 . S
C1436 C1438 1.381 . S
C1436 C1442 1.383 . S
C1437 C1433 1.495 . S
C1437 H1443 0.959 . S
C1437 H1444 0.961 . S
C1437 H1445 0.960 . S
C1438 C1436 1.381 . S
C1438 C1439 1.394 . S
C1438 H1446 0.930 . S
C1439 C1438 1.394 . S
C1439 C1440 1.383 . S
C1439 H1447 0.929 . S
C1440 C1439 1.383 . S
C1440 C1441 1.377 . S
C1441 H1425 0.930 . S
C1441 C1440 1.377 . S
C1441 C1442 1.379 . S
C1442 H1426 0.931 . S
C1442 C1436 1.383 . S
C1442 C1441 1.379 . S
H1443 C1437 0.959 . S
H1444 C1437 0.961 . S
H1445 C1437 0.960 . S
H1446 C1438 0.930 . S
H1447 C1439 0.929 . S
H1448 C1456 0.929 . S
H1449 C1458 0.930 . S
H1450 C1460 0.930 . S
H1451 C1463 0.929 . S
H1452 C1466 0.930 . S
H1453 C1468 0.960 . S
H1454 C1468 0.960 . S
H1455 C1468 0.960 . S
C1456 H1448 0.929 . S
C1456 C1457 1.377 . S
C1456 C1458 1.384 . S
C1457 C1456 1.377 . S
C1457 C1463 1.390 . S
C1458 H1449 0.930 . S
C1458 C1456 1.384 . S
C1458 C1459 1.372 . S
C1459 C1458 1.372 . S
C1459 C1460 1.400 . S
C1459 C1464 1.490 . S
C1460 H1450 0.930 . S
C1460 C1459 1.400 . S
C1460 C1463 1.386 . S
H1461 C1477 0.930 . S
H1462 C1478 0.931 . S
C1463 H1451 0.929 . S
C1463 C1457 1.390 . S
C1463 C1460 1.386 . S
C1464 C1459 1.490 . S
C1464 C1466 1.395 . S
C1464 C1467 1.403 . S
H1465 C1471 0.930 . S
C1466 H1452 0.930 . S
C1466 C1464 1.395 . S
C1466 C1469 1.403 . S
C1467 C1464 1.403 . S
C1467 C1468 1.524 . S
C1467 C1471 1.400 . S
C1468 H1453 0.960 . S
C1468 H1454 0.960 . S
C1468 H1455 0.960 . S
C1468 C1467 1.524 . S
C1469 C1466 1.403 . S
C1469 C1470 1.392 . S
C1469 C1473 1.495 . S
C1470 C1469 1.392 . S
C1470 C1471 1.385 . S
C1470 C1472 1.478 . S
C1471 H1465 0.930 . S
C1471 C1467 1.400 . S
C1471 C1470 1.385 . S
C1472 C1470 1.478 . S
C1472 C1474 1.381 . S
C1472 C1478 1.383 . S
C1473 C1469 1.495 . S
C1473 H1479 0.959 . S
C1473 H1480 0.961 . S
C1473 H1481 0.960 . S
C1474 C1472 1.381 . S
C1474 C1475 1.394 . S
C1474 H1482 0.930 . S
C1475 C1474 1.394 . S
C1475 C1476 1.383 . S
C1475 H1483 0.929 . S
C1476 C1475 1.383 . S
C1476 C1477 1.377 . S
C1477 H1461 0.930 . S
C1477 C1476 1.377 . S
C1477 C1478 1.379 . S
C1478 H1462 0.931 . S
C1478 C1472 1.383 . S
C1478 C1477 1.379 . S
H1479 C1473 0.959 . S
H1480 C1473 0.961 . S
H1481 C1473 0.960 . S
H1482 C1474 0.930 . S
H1483 C1475 0.929 . S
H1484 C1492 0.929 . S
H1485 C1494 0.930 . S
H1486 C1496 0.930 . S
H1487 C1499 0.929 . S
H1488 C1502 0.930 . S
H1489 C1504 0.960 . S
H1490 C1504 0.960 . S
H1491 C1504 0.960 . S
C1492 H1484 0.929 . S
C1492 C1493 1.377 . S
C1492 C1494 1.384 . S
C1493 C1492 1.377 . S
C1493 C1499 1.390 . S
C1494 H1485 0.930 . S
C1494 C1492 1.384 . S
C1494 C1495 1.372 . S
C1495 C1494 1.372 . S
C1495 C1496 1.400 . S
C1495 C1500 1.490 . S
C1496 H1486 0.930 . S
C1496 C1495 1.400 . S
C1496 C1499 1.386 . S
H1497 C1513 0.930 . S
H1498 C1514 0.931 . S
C1499 H1487 0.929 . S
C1499 C1493 1.390 . S
C1499 C1496 1.386 . S
C1500 C1495 1.490 . S
C1500 C1502 1.395 . S
C1500 C1503 1.403 . S
H1501 C1507 0.930 . S
C1502 H1488 0.930 . S
C1502 C1500 1.395 . S
C1502 C1505 1.403 . S
C1503 C1500 1.403 . S
C1503 C1504 1.524 . S
C1503 C1507 1.400 . S
C1504 H1489 0.960 . S
C1504 H1490 0.960 . S
C1504 H1491 0.960 . S
C1504 C1503 1.524 . S
C1505 C1502 1.403 . S
C1505 C1506 1.392 . S
C1505 C1509 1.495 . S
C1506 C1505 1.392 . S
C1506 C1507 1.385 . S
C1506 C1508 1.478 . S
C1507 H1501 0.930 . S
C1507 C1503 1.400 . S
C1507 C1506 1.385 . S
C1508 C1506 1.478 . S
C1508 C1510 1.381 . S
C1508 C1514 1.383 . S
C1509 C1505 1.495 . S
C1509 H1515 0.959 . S
C1509 H1516 0.961 . S
C1509 H1517 0.960 . S
C1510 C1508 1.381 . S
C1510 C1511 1.394 . S
C1510 H1518 0.930 . S
C1511 C1510 1.394 . S
C1511 C1512 1.383 . S
C1511 H1519 0.929 . S
C1512 C1511 1.383 . S
C1512 C1513 1.377 . S
C1513 H1497 0.930 . S
C1513 C1512 1.377 . S
C1513 C1514 1.379 . S
C1514 H1498 0.931 . S
C1514 C1508 1.383 . S
C1514 C1513 1.379 . S
H1515 C1509 0.959 . S
H1516 C1509 0.961 . S
H1517 C1509 0.960 . S
H1518 C1510 0.930 . S
H1519 C1511 0.929 . S
H1520 C1528 0.929 . S
H1521 C1530 0.930 . S
H1522 C1532 0.930 . S
H1523 C1535 0.929 . S
H1524 C1538 0.930 . S
H1525 C1540 0.960 . S
H1526 C1540 0.960 . S
H1527 C1540 0.960 . S
C1528 H1520 0.929 . S
C1528 C1529 1.377 . S
C1528 C1530 1.384 . S
C1529 C1528 1.377 . S
C1529 C1535 1.390 . S
C1530 H1521 0.930 . S
C1530 C1528 1.384 . S
C1530 C1531 1.372 . S
C1531 C1530 1.372 . S
C1531 C1532 1.400 . S
C1531 C1536 1.490 . S
C1532 H1522 0.930 . S
C1532 C1531 1.400 . S
C1532 C1535 1.386 . S
H1533 C1549 0.930 . S
H1534 C1550 0.931 . S
C1535 H1523 0.929 . S
C1535 C1529 1.390 . S
C1535 C1532 1.386 . S
C1536 C1531 1.490 . S
C1536 C1538 1.395 . S
C1536 C1539 1.403 . S
H1537 C1543 0.930 . S
C1538 H1524 0.930 . S
C1538 C1536 1.395 . S
C1538 C1541 1.403 . S
C1539 C1536 1.403 . S
C1539 C1540 1.524 . S
C1539 C1543 1.400 . S
C1540 H1525 0.960 . S
C1540 H1526 0.960 . S
C1540 H1527 0.960 . S
C1540 C1539 1.524 . S
C1541 C1538 1.403 . S
C1541 C1542 1.392 . S
C1541 C1545 1.495 . S
C1542 C1541 1.392 . S
C1542 C1543 1.385 . S
C1542 C1544 1.478 . S
C1543 H1537 0.930 . S
C1543 C1539 1.400 . S
C1543 C1542 1.385 . S
C1544 C1542 1.478 . S
C1544 C1546 1.381 . S
C1544 C1550 1.383 . S
C1545 C1541 1.495 . S
C1545 H1551 0.959 . S
C1545 H1552 0.961 . S
C1545 H1553 0.960 . S
C1546 C1544 1.381 . S
C1546 C1547 1.394 . S
C1546 H1554 0.930 . S
C1547 C1546 1.394 . S
C1547 C1548 1.383 . S
C1547 H1555 0.929 . S
C1548 C1547 1.383 . S
C1548 C1549 1.377 . S
C1549 H1533 0.930 . S
C1549 C1548 1.377 . S
C1549 C1550 1.379 . S
C1550 H1534 0.931 . S
C1550 C1544 1.383 . S
C1550 C1549 1.379 . S
H1551 C1545 0.959 . S
H1552 C1545 0.961 . S
H1553 C1545 0.960 . S
H1554 C1546 0.930 . S
H1555 C1547 0.929 . S
H1556 C1564 0.929 . S
H1557 C1566 0.930 . S
H1558 C1568 0.930 . S
H1559 C1571 0.929 . S
H1560 C1574 0.930 . S
H1561 C1576 0.960 . S
H1562 C1576 0.960 . S
H1563 C1576 0.960 . S
C1564 H1556 0.929 . S
C1564 C1565 1.377 . S
C1564 C1566 1.384 . S
C1565 C1564 1.377 . S
C1565 C1571 1.390 . S
C1566 H1557 0.930 . S
C1566 C1564 1.384 . S
C1566 C1567 1.372 . S
C1567 C1566 1.372 . S
C1567 C1568 1.400 . S
C1567 C1572 1.490 . S
C1568 H1558 0.930 . S
C1568 C1567 1.400 . S
C1568 C1571 1.386 . S
H1569 C1585 0.930 . S
H1570 C1586 0.931 . S
C1571 H1559 0.929 . S
C1571 C1565 1.390 . S
C1571 C1568 1.386 . S
C1572 C1567 1.490 . S
C1572 C1574 1.395 . S
C1572 C1575 1.403 . S
H1573 C1579 0.930 . S
C1574 H1560 0.930 . S
C1574 C1572 1.395 . S
C1574 C1577 1.403 . S
C1575 C1572 1.403 . S
C1575 C1576 1.524 . S
C1575 C1579 1.400 . S
C1576 H1561 0.960 . S
C1576 H1562 0.960 . S
C1576 H1563 0.960 . S
C1576 C1575 1.524 . S
C1577 C1574 1.403 . S
C1577 C1578 1.392 . S
C1577 C1581 1.495 . S
C1578 C1577 1.392 . S
C1578 C1579 1.385 . S
C1578 C1580 1.478 . S
C1579 H1573 0.930 . S
C1579 C1575 1.400 . S
C1579 C1578 1.385 . S
C1580 C1578 1.478 . S
C1580 C1582 1.381 . S
C1580 C1586 1.383 . S
C1581 C1577 1.495 . S
C1581 H1587 0.959 . S
C1581 H1588 0.961 . S
C1581 H1589 0.960 . S
C1582 C1580 1.381 . S
C1582 C1583 1.394 . S
C1582 H1590 0.930 . S
C1583 C1582 1.394 . S
C1583 C1584 1.383 . S
C1583 H1591 0.929 . S
C1584 C1583 1.383 . S
C1584 C1585 1.377 . S
C1585 H1569 0.930 . S
C1585 C1584 1.377 . S
C1585 C1586 1.379 . S
C1586 H1570 0.931 . S
C1586 C1580 1.383 . S
C1586 C1585 1.379 . S
H1587 C1581 0.959 . S
H1588 C1581 0.961 . S
H1589 C1581 0.960 . S
H1590 C1582 0.930 . S
H1591 C1583 0.929 . S
H1592 C1600 0.929 . S
H1593 C1602 0.930 . S
H1594 C1604 0.930 . S
H1595 C1607 0.929 . S
H1596 C1610 0.930 . S
H1597 C1612 0.960 . S
H1598 C1612 0.960 . S
H1599 C1612 0.960 . S
C1600 H1592 0.929 . S
C1600 C1601 1.377 . S
C1600 C1602 1.384 . S
C1601 C1600 1.377 . S
C1601 C1607 1.390 . S
C1602 H1593 0.930 . S
C1602 C1600 1.384 . S
C1602 C1603 1.372 . S
C1603 C1602 1.372 . S
C1603 C1604 1.400 . S
C1603 C1608 1.490 . S
C1604 H1594 0.930 . S
C1604 C1603 1.400 . S
C1604 C1607 1.386 . S
H1605 C1621 0.930 . S
H1606 C1622 0.931 . S
C1607 H1595 0.929 . S
C1607 C1601 1.390 . S
C1607 C1604 1.386 . S
C1608 C1603 1.490 . S
C1608 C1610 1.395 . S
C1608 C1611 1.403 . S
H1609 C1615 0.930 . S
C1610 H1596 0.930 . S
C1610 C1608 1.395 . S
C1610 C1613 1.403 . S
C1611 C1608 1.403 . S
C1611 C1612 1.524 . S
C1611 C1615 1.400 . S
C1612 H1597 0.960 . S
C1612 H1598 0.960 . S
C1612 H1599 0.960 . S
C1612 C1611 1.524 . S
C1613 C1610 1.403 . S
C1613 C1614 1.392 . S
C1613 C1617 1.495 . S
C1614 C1613 1.392 . S
C1614 C1615 1.385 . S
C1614 C1616 1.478 . S
C1615 H1609 0.930 . S
C1615 C1611 1.400 . S
C1615 C1614 1.385 . S
C1616 C1614 1.478 . S
C1616 C1618 1.381 . S
C1616 C1622 1.383 . S
C1617 C1613 1.495 . S
C1617 H1623 0.959 . S
C1617 H1624 0.961 . S
C1617 H1625 0.960 . S
C1618 C1616 1.381 . S
C1618 C1619 1.394 . S
C1618 H1626 0.930 . S
C1619 C1618 1.394 . S
C1619 C1620 1.383 . S
C1619 H1627 0.929 . S
C1620 C1619 1.383 . S
C1620 C1621 1.377 . S
C1621 H1605 0.930 . S
C1621 C1620 1.377 . S
C1621 C1622 1.379 . S
C1622 H1606 0.931 . S
C1622 C1616 1.383 . S
C1622 C1621 1.379 . S
H1623 C1617 0.959 . S
H1624 C1617 0.961 . S
H1625 C1617 0.960 . S
H1626 C1618 0.930 . S
H1627 C1619 0.929 . S
H1628 C1636 0.929 . S
H1629 C1638 0.930 . S
H1630 C1640 0.930 . S
H1631 C1643 0.929 . S
H1632 C1646 0.930 . S
H1633 C1648 0.960 . S
H1634 C1648 0.960 . S
H1635 C1648 0.960 . S
C1636 H1628 0.929 . S
C1636 C1637 1.377 . S
C1636 C1638 1.384 . S
C1637 C1636 1.377 . S
C1637 C1643 1.390 . S
C1638 H1629 0.930 . S
C1638 C1636 1.384 . S
C1638 C1639 1.372 . S
C1639 C1638 1.372 . S
C1639 C1640 1.400 . S
C1639 C1644 1.490 . S
C1640 H1630 0.930 . S
C1640 C1639 1.400 . S
C1640 C1643 1.386 . S
H1641 C1657 0.930 . S
H1642 C1658 0.931 . S
C1643 H1631 0.929 . S
C1643 C1637 1.390 . S
C1643 C1640 1.386 . S
C1644 C1639 1.490 . S
C1644 C1646 1.395 . S
C1644 C1647 1.403 . S
H1645 C1651 0.930 . S
C1646 H1632 0.930 . S
C1646 C1644 1.395 . S
C1646 C1649 1.403 . S
C1647 C1644 1.403 . S
C1647 C1648 1.524 . S
C1647 C1651 1.400 . S
C1648 H1633 0.960 . S
C1648 H1634 0.960 . S
C1648 H1635 0.960 . S
C1648 C1647 1.524 . S
C1649 C1646 1.403 . S
C1649 C1650 1.392 . S
C1649 C1653 1.495 . S
C1650 C1649 1.392 . S
C1650 C1651 1.385 . S
C1650 C1652 1.478 . S
C1651 H1645 0.930 . S
C1651 C1647 1.400 . S
C1651 C1650 1.385 . S
C1652 C1650 1.478 . S
C1652 C1654 1.381 . S
C1652 C1658 1.383 . S
C1653 C1649 1.495 . S
C1653 H1659 0.959 . S
C1653 H1660 0.961 . S
C1653 H1661 0.960 . S
C1654 C1652 1.381 . S
C1654 C1655 1.394 . S
C1654 H1662 0.930 . S
C1655 C1654 1.394 . S
C1655 C1656 1.383 . S
C1655 H1663 0.929 . S
C1656 C1655 1.383 . S
C1656 C1657 1.377 . S
C1657 H1641 0.930 . S
C1657 C1656 1.377 . S
C1657 C1658 1.379 . S
C1658 H1642 0.931 . S
C1658 C1652 1.383 . S
C1658 C1657 1.379 . S
H1659 C1653 0.959 . S
H1660 C1653 0.961 . S
H1661 C1653 0.960 . S
H1662 C1654 0.930 . S
H1663 C1655 0.929 . S
H1664 C1672 0.929 . S
H1665 C1674 0.930 . S
H1666 C1676 0.930 . S
H1667 C1679 0.929 . S
H1668 C1682 0.930 . S
H1669 C1684 0.960 . S
H1670 C1684 0.960 . S
H1671 C1684 0.960 . S
C1672 H1664 0.929 . S
C1672 C1673 1.377 . S
C1672 C1674 1.384 . S
C1673 C1672 1.377 . S
C1673 C1679 1.390 . S
C1674 H1665 0.930 . S
C1674 C1672 1.384 . S
C1674 C1675 1.372 . S
C1675 C1674 1.372 . S
C1675 C1676 1.400 . S
C1675 C1680 1.490 . S
C1676 H1666 0.930 . S
C1676 C1675 1.400 . S
C1676 C1679 1.386 . S
H1677 C1693 0.930 1_455 S
H1678 C1694 0.931 . S
C1679 H1667 0.929 . S
C1679 C1673 1.390 . S
C1679 C1676 1.386 . S
C1680 C1675 1.490 . S
C1680 C1682 1.395 . S
C1680 C1683 1.403 . S
H1681 C1687 0.930 . S
C1682 H1668 0.930 . S
C1682 C1680 1.395 . S
C1682 C1685 1.403 . S
C1683 C1680 1.403 . S
C1683 C1684 1.524 . S
C1683 C1687 1.400 . S
C1684 H1669 0.960 . S
C1684 H1670 0.960 . S
C1684 H1671 0.960 . S
C1684 C1683 1.524 . S
C1685 C1682 1.403 . S
C1685 C1686 1.392 . S
C1685 C1689 1.495 . S
C1686 C1685 1.392 . S
C1686 C1687 1.385 . S
C1686 C1688 1.478 . S
C1687 H1681 0.930 . S
C1687 C1683 1.400 . S
C1687 C1686 1.385 . S
C1688 C1686 1.478 . S
C1688 C1690 1.381 . S
C1688 C1694 1.383 . S
C1689 C1685 1.495 . S
C1689 H1695 0.959 . S
C1689 H1696 0.961 . S
C1689 H1697 0.960 . S
C1690 C1688 1.381 . S
C1690 C1691 1.394 . S
C1690 H1698 0.930 . S
C1691 C1690 1.394 . S
C1691 C1692 1.383 . S
C1691 H1699 0.929 . S
C1692 C1691 1.383 . S
C1692 C1693 1.377 . S
C1693 H1677 0.930 1_655 S
C1693 C1692 1.377 . S
C1693 C1694 1.379 . S
C1694 H1678 0.931 . S
C1694 C1688 1.383 . S
C1694 C1693 1.379 . S
H1695 C1689 0.959 . S
H1696 C1689 0.961 . S
H1697 C1689 0.960 . S
H1698 C1690 0.930 . S
H1699 C1691 0.929 . S
H1700 C1708 0.929 . S
H1701 C1710 0.930 . S
H1702 C1712 0.930 . S
H1703 C1715 0.929 . S
H1704 C1718 0.930 . S
H1705 C1720 0.960 . S
H1706 C1720 0.960 . S
H1707 C1720 0.960 . S
C1708 H1700 0.929 . S
C1708 C1709 1.377 . S
C1708 C1710 1.384 . S
C1709 C1708 1.377 . S
C1709 C1715 1.390 . S
C1710 H1701 0.930 . S
C1710 C1708 1.384 . S
C1710 C1711 1.372 . S
C1711 C1710 1.372 . S
C1711 C1712 1.400 . S
C1711 C1716 1.490 . S
C1712 H1702 0.930 . S
C1712 C1711 1.400 . S
C1712 C1715 1.386 . S
H1713 C1729 0.930 . S
H1714 C1730 0.931 . S
C1715 H1703 0.929 . S
C1715 C1709 1.390 . S
C1715 C1712 1.386 . S
C1716 C1711 1.490 . S
C1716 C1718 1.395 . S
C1716 C1719 1.403 . S
H1717 C1723 0.930 . S
C1718 H1704 0.930 . S
C1718 C1716 1.395 . S
C1718 C1721 1.403 . S
C1719 C1716 1.403 . S
C1719 C1720 1.524 . S
C1719 C1723 1.400 . S
C1720 H1705 0.960 . S
C1720 H1706 0.960 . S
C1720 H1707 0.960 . S
C1720 C1719 1.524 . S
C1721 C1718 1.403 . S
C1721 C1722 1.392 . S
C1721 C1725 1.495 . S
C1722 C1721 1.392 . S
C1722 C1723 1.385 . S
C1722 C1724 1.478 . S
C1723 H1717 0.930 . S
C1723 C1719 1.400 . S
C1723 C1722 1.385 . S
C1724 C1722 1.478 . S
C1724 C1726 1.381 . S
C1724 C1730 1.383 . S
C1725 C1721 1.495 . S
C1725 H1731 0.959 . S
C1725 H1732 0.961 . S
C1725 H1733 0.960 . S
C1726 C1724 1.381 . S
C1726 C1727 1.394 . S
C1726 H1734 0.930 . S
C1727 C1726 1.394 . S
C1727 C1728 1.383 . S
C1727 H1735 0.929 . S
C1728 C1727 1.383 . S
C1728 C1729 1.377 . S
C1729 H1713 0.930 . S
C1729 C1728 1.377 . S
C1729 C1730 1.379 . S
C1730 H1714 0.931 . S
C1730 C1724 1.383 . S
C1730 C1729 1.379 . S
H1731 C1725 0.959 . S
H1732 C1725 0.961 . S
H1733 C1725 0.960 . S
H1734 C1726 0.930 . S
H1735 C1727 0.929 . S
H1736 C1744 0.929 . S
H1737 C1746 0.930 . S
H1738 C1748 0.930 . S
H1739 C1751 0.929 . S
H1740 C1754 0.930 . S
H1741 C1756 0.960 . S
H1742 C1756 0.960 . S
H1743 C1756 0.960 . S
C1744 H1736 0.929 . S
C1744 C1745 1.377 . S
C1744 C1746 1.384 . S
C1745 C1744 1.377 . S
C1745 C1751 1.390 . S
C1746 H1737 0.930 . S
C1746 C1744 1.384 . S
C1746 C1747 1.372 . S
C1747 C1746 1.372 . S
C1747 C1748 1.400 . S
C1747 C1752 1.490 . S
C1748 H1738 0.930 . S
C1748 C1747 1.400 . S
C1748 C1751 1.386 . S
H1749 C1765 0.930 . S
H1750 C1766 0.931 . S
C1751 H1739 0.929 . S
C1751 C1745 1.390 . S
C1751 C1748 1.386 . S
C1752 C1747 1.490 . S
C1752 C1754 1.395 . S
C1752 C1755 1.403 . S
H1753 C1759 0.930 . S
C1754 H1740 0.930 . S
C1754 C1752 1.395 . S
C1754 C1757 1.403 . S
C1755 C1752 1.403 . S
C1755 C1756 1.524 . S
C1755 C1759 1.400 . S
C1756 H1741 0.960 . S
C1756 H1742 0.960 . S
C1756 H1743 0.960 . S
C1756 C1755 1.524 . S
C1757 C1754 1.403 . S
C1757 C1758 1.392 . S
C1757 C1761 1.495 . S
C1758 C1757 1.392 . S
C1758 C1759 1.385 . S
C1758 C1760 1.478 . S
C1759 H1753 0.930 . S
C1759 C1755 1.400 . S
C1759 C1758 1.385 . S
C1760 C1758 1.478 . S
C1760 C1762 1.381 . S
C1760 C1766 1.383 . S
C1761 C1757 1.495 . S
C1761 H1767 0.959 . S
C1761 H1768 0.961 . S
C1761 H1769 0.960 . S
C1762 C1760 1.381 . S
C1762 C1763 1.394 . S
C1762 H1770 0.930 . S
C1763 C1762 1.394 . S
C1763 C1764 1.383 . S
C1763 H1771 0.929 . S
C1764 C1763 1.383 . S
C1764 C1765 1.377 . S
C1765 H1749 0.930 . S
C1765 C1764 1.377 . S
C1765 C1766 1.379 . S
C1766 H1750 0.931 . S
C1766 C1760 1.383 . S
C1766 C1765 1.379 . S
H1767 C1761 0.959 . S
H1768 C1761 0.961 . S
H1769 C1761 0.960 . S
H1770 C1762 0.930 . S
H1771 C1763 0.929 . S
H1772 C1780 0.929 . S
H1773 C1782 0.930 . S
H1774 C1784 0.930 . S
H1775 C1787 0.929 . S
H1776 C1790 0.930 . S
H1777 C1792 0.960 . S
H1778 C1792 0.960 . S
H1779 C1792 0.960 . S
C1780 H1772 0.929 . S
C1780 C1781 1.377 . S
C1780 C1782 1.384 . S
C1781 C1780 1.377 . S
C1781 C1787 1.390 . S
C1782 H1773 0.930 . S
C1782 C1780 1.384 . S
C1782 C1783 1.372 . S
C1783 C1782 1.372 . S
C1783 C1784 1.400 . S
C1783 C1788 1.490 . S
C1784 H1774 0.930 . S
C1784 C1783 1.400 . S
C1784 C1787 1.386 . S
H1785 C1801 0.930 . S
H1786 C1802 0.931 . S
C1787 H1775 0.929 . S
C1787 C1781 1.390 . S
C1787 C1784 1.386 . S
C1788 C1783 1.490 . S
C1788 C1790 1.395 . S
C1788 C1791 1.403 . S
H1789 C1795 0.930 . S
C1790 H1776 0.930 . S
C1790 C1788 1.395 . S
C1790 C1793 1.403 . S
C1791 C1788 1.403 . S
C1791 C1792 1.524 . S
C1791 C1795 1.400 . S
C1792 H1777 0.960 . S
C1792 H1778 0.960 . S
C1792 H1779 0.960 . S
C1792 C1791 1.524 . S
C1793 C1790 1.403 . S
C1793 C1794 1.392 . S
C1793 C1797 1.495 . S
C1794 C1793 1.392 . S
C1794 C1795 1.385 . S
C1794 C1796 1.478 . S
C1795 H1789 0.930 . S
C1795 C1791 1.400 . S
C1795 C1794 1.385 . S
C1796 C1794 1.478 . S
C1796 C1798 1.381 . S
C1796 C1802 1.383 . S
C1797 C1793 1.495 . S
C1797 H1803 0.959 . S
C1797 H1804 0.961 . S
C1797 H1805 0.960 . S
C1798 C1796 1.381 . S
C1798 C1799 1.394 . S
C1798 H1806 0.930 . S
C1799 C1798 1.394 . S
C1799 C1800 1.383 . S
C1799 H1807 0.929 . S
C1800 C1799 1.383 . S
C1800 C1801 1.377 . S
C1801 H1785 0.930 . S
C1801 C1800 1.377 . S
C1801 C1802 1.379 . S
C1802 H1786 0.931 . S
C1802 C1796 1.383 . S
C1802 C1801 1.379 . S
H1803 C1797 0.959 . S
H1804 C1797 0.961 . S
H1805 C1797 0.960 . S
H1806 C1798 0.930 . S
H1807 C1799 0.929 . S
H1808 C1816 0.929 . S
H1809 C1818 0.930 . S
H1810 C1820 0.930 . S
H1811 C1823 0.929 . S
H1812 C1826 0.930 . S
H1813 C1828 0.960 . S
H1814 C1828 0.960 . S
H1815 C1828 0.960 . S
C1816 H1808 0.929 . S
C1816 C1817 1.377 . S
C1816 C1818 1.384 . S
C1817 C1816 1.377 . S
C1817 C1823 1.390 . S
C1818 H1809 0.930 . S
C1818 C1816 1.384 . S
C1818 C1819 1.372 . S
C1819 C1818 1.372 . S
C1819 C1820 1.400 . S
C1819 C1824 1.490 . S
C1820 H1810 0.930 . S
C1820 C1819 1.400 . S
C1820 C1823 1.386 . S
H1821 C1837 0.930 . S
H1822 C1838 0.931 . S
C1823 H1811 0.929 . S
C1823 C1817 1.390 . S
C1823 C1820 1.386 . S
C1824 C1819 1.490 . S
C1824 C1826 1.395 . S
C1824 C1827 1.403 . S
H1825 C1831 0.930 . S
C1826 H1812 0.930 . S
C1826 C1824 1.395 . S
C1826 C1829 1.403 . S
C1827 C1824 1.403 . S
C1827 C1828 1.524 . S
C1827 C1831 1.400 . S
C1828 H1813 0.960 . S
C1828 H1814 0.960 . S
C1828 H1815 0.960 . S
C1828 C1827 1.524 . S
C1829 C1826 1.403 . S
C1829 C1830 1.392 . S
C1829 C1833 1.495 . S
C1830 C1829 1.392 . S
C1830 C1831 1.385 . S
C1830 C1832 1.478 . S
C1831 H1825 0.930 . S
C1831 C1827 1.400 . S
C1831 C1830 1.385 . S
C1832 C1830 1.478 . S
C1832 C1834 1.381 . S
C1832 C1838 1.383 . S
C1833 C1829 1.495 . S
C1833 H1839 0.959 . S
C1833 H1840 0.961 . S
C1833 H1841 0.960 . S
C1834 C1832 1.381 . S
C1834 C1835 1.394 . S
C1834 H1842 0.930 . S
C1835 C1834 1.394 . S
C1835 C1836 1.383 . S
C1835 H1843 0.929 . S
C1836 C1835 1.383 . S
C1836 C1837 1.377 . S
C1837 H1821 0.930 . S
C1837 C1836 1.377 . S
C1837 C1838 1.379 . S
C1838 H1822 0.931 . S
C1838 C1832 1.383 . S
C1838 C1837 1.379 . S
H1839 C1833 0.959 . S
H1840 C1833 0.961 . S
H1841 C1833 0.960 . S
H1842 C1834 0.930 . S
H1843 C1835 0.929 . S
H1844 C1852 0.929 . S
H1845 C1854 0.930 . S
H1846 C1856 0.930 . S
H1847 C1859 0.929 . S
H1848 C1862 0.930 . S
H1849 C1864 0.960 . S
H1850 C1864 0.960 . S
H1851 C1864 0.960 . S
C1852 H1844 0.929 . S
C1852 C1853 1.377 . S
C1852 C1854 1.384 . S
C1853 C1852 1.377 . S
C1853 C1859 1.390 . S
C1854 H1845 0.930 . S
C1854 C1852 1.384 . S
C1854 C1855 1.372 . S
C1855 C1854 1.372 . S
C1855 C1856 1.400 . S
C1855 C1860 1.490 . S
C1856 H1846 0.930 . S
C1856 C1855 1.400 . S
C1856 C1859 1.386 . S
H1857 C1873 0.930 . S
H1858 C1874 0.931 . S
C1859 H1847 0.929 . S
C1859 C1853 1.390 . S
C1859 C1856 1.386 . S
C1860 C1855 1.490 . S
C1860 C1862 1.395 . S
C1860 C1863 1.403 . S
H1861 C1867 0.930 . S
C1862 H1848 0.930 . S
C1862 C1860 1.395 . S
C1862 C1865 1.403 . S
C1863 C1860 1.403 . S
C1863 C1864 1.524 . S
C1863 C1867 1.400 . S
C1864 H1849 0.960 . S
C1864 H1850 0.960 . S
C1864 H1851 0.960 . S
C1864 C1863 1.524 . S
C1865 C1862 1.403 . S
C1865 C1866 1.392 . S
C1865 C1869 1.495 . S
C1866 C1865 1.392 . S
C1866 C1867 1.385 . S
C1866 C1868 1.478 . S
C1867 H1861 0.930 . S
C1867 C1863 1.400 . S
C1867 C1866 1.385 . S
C1868 C1866 1.478 . S
C1868 C1870 1.381 . S
C1868 C1874 1.383 . S
C1869 C1865 1.495 . S
C1869 H1875 0.959 . S
C1869 H1876 0.961 . S
C1869 H1877 0.960 . S
C1870 C1868 1.381 . S
C1870 C1871 1.394 . S
C1870 H1878 0.930 . S
C1871 C1870 1.394 . S
C1871 C1872 1.383 . S
C1871 H1879 0.929 . S
C1872 C1871 1.383 . S
C1872 C1873 1.377 . S
C1873 H1857 0.930 . S
C1873 C1872 1.377 . S
C1873 C1874 1.379 . S
C1874 H1858 0.931 . S
C1874 C1868 1.383 . S
C1874 C1873 1.379 . S
H1875 C1869 0.959 . S
H1876 C1869 0.961 . S
H1877 C1869 0.960 . S
H1878 C1870 0.930 . S
H1879 C1871 0.929 . S
H1880 C1888 0.929 . S
H1881 C1890 0.930 . S
H1882 C1892 0.930 . S
H1883 C1895 0.929 . S
H1884 C1898 0.930 . S
H1885 C1900 0.960 . S
H1886 C1900 0.960 . S
H1887 C1900 0.960 . S
C1888 H1880 0.929 . S
C1888 C1889 1.377 . S
C1888 C1890 1.384 . S
C1889 C1888 1.377 . S
C1889 C1895 1.390 . S
C1890 H1881 0.930 . S
C1890 C1888 1.384 . S
C1890 C1891 1.372 . S
C1891 C1890 1.372 . S
C1891 C1892 1.400 . S
C1891 C1896 1.490 . S
C1892 H1882 0.930 . S
C1892 C1891 1.400 . S
C1892 C1895 1.386 . S
H1893 C1909 0.930 . S
H1894 C1910 0.931 . S
C1895 H1883 0.929 . S
C1895 C1889 1.390 . S
C1895 C1892 1.386 . S
C1896 C1891 1.490 . S
C1896 C1898 1.395 . S
C1896 C1899 1.403 . S
H1897 C1903 0.930 . S
C1898 H1884 0.930 . S
C1898 C1896 1.395 . S
C1898 C1901 1.403 . S
C1899 C1896 1.403 . S
C1899 C1900 1.524 . S
C1899 C1903 1.400 . S
C1900 H1885 0.960 . S
C1900 H1886 0.960 . S
C1900 H1887 0.960 . S
C1900 C1899 1.524 . S
C1901 C1898 1.403 . S
C1901 C1902 1.392 . S
C1901 C1905 1.495 . S
C1902 C1901 1.392 . S
C1902 C1903 1.385 . S
C1902 C1904 1.478 . S
C1903 H1897 0.930 . S
C1903 C1899 1.400 . S
C1903 C1902 1.385 . S
C1904 C1902 1.478 . S
C1904 C1906 1.381 . S
C1904 C1910 1.383 . S
C1905 C1901 1.495 . S
C1905 H1911 0.959 . S
C1905 H1912 0.961 . S
C1905 H1913 0.960 . S
C1906 C1904 1.381 . S
C1906 C1907 1.394 . S
C1906 H1914 0.930 . S
C1907 C1906 1.394 . S
C1907 C1908 1.383 . S
C1907 H1915 0.929 . S
C1908 C1907 1.383 . S
C1908 C1909 1.377 . S
C1909 H1893 0.930 . S
C1909 C1908 1.377 . S
C1909 C1910 1.379 . S
C1910 H1894 0.931 . S
C1910 C1904 1.383 . S
C1910 C1909 1.379 . S
H1911 C1905 0.959 . S
H1912 C1905 0.961 . S
H1913 C1905 0.960 . S
H1914 C1906 0.930 . S
H1915 C1907 0.929 . S
H1916 C1924 0.929 . S
H1917 C1926 0.930 . S
H1918 C1928 0.930 . S
H1919 C1931 0.929 . S
H1920 C1934 0.930 . S
H1921 C1936 0.960 . S
H1922 C1936 0.960 . S
H1923 C1936 0.960 . S
C1924 H1916 0.929 . S
C1924 C1925 1.377 . S
C1924 C1926 1.384 . S
C1925 C1924 1.377 . S
C1925 C1931 1.390 . S
C1926 H1917 0.930 . S
C1926 C1924 1.384 . S
C1926 C1927 1.372 . S
C1927 C1926 1.372 . S
C1927 C1928 1.400 . S
C1927 C1932 1.490 . S
C1928 H1918 0.930 . S
C1928 C1927 1.400 . S
C1928 C1931 1.386 . S
H1929 C1945 0.930 . S
H1930 C1946 0.931 . S
C1931 H1919 0.929 . S
C1931 C1925 1.390 . S
C1931 C1928 1.386 . S
C1932 C1927 1.490 . S
C1932 C1934 1.395 . S
C1932 C1935 1.403 . S
H1933 C1939 0.930 . S
C1934 H1920 0.930 . S
C1934 C1932 1.395 . S
C1934 C1937 1.403 . S
C1935 C1932 1.403 . S
C1935 C1936 1.524 . S
C1935 C1939 1.400 . S
C1936 H1921 0.960 . S
C1936 H1922 0.960 . S
C1936 H1923 0.960 . S
C1936 C1935 1.524 . S
C1937 C1934 1.403 . S
C1937 C1938 1.392 . S
C1937 C1941 1.495 . S
C1938 C1937 1.392 . S
C1938 C1939 1.385 . S
C1938 C1940 1.478 . S
C1939 H1933 0.930 . S
C1939 C1935 1.400 . S
C1939 C1938 1.385 . S
C1940 C1938 1.478 . S
C1940 C1942 1.381 . S
C1940 C1946 1.383 . S
C1941 C1937 1.495 . S
C1941 H1947 0.959 . S
C1941 H1948 0.961 . S
C1941 H1949 0.960 . S
C1942 C1940 1.381 . S
C1942 C1943 1.394 . S
C1942 H1950 0.930 . S
C1943 C1942 1.394 . S
C1943 C1944 1.383 . S
C1943 H1951 0.929 . S
C1944 C1943 1.383 . S
C1944 C1945 1.377 . S
C1945 H1929 0.930 . S
C1945 C1944 1.377 . S
C1945 C1946 1.379 . S
C1946 H1930 0.931 . S
C1946 C1940 1.383 . S
C1946 C1945 1.379 . S
H1947 C1941 0.959 . S
H1948 C1941 0.961 . S
H1949 C1941 0.960 . S
H1950 C1942 0.930 . S
H1951 C1943 0.929 . S
H1952 C1960 0.929 . S
H1953 C1962 0.930 . S
H1954 C1964 0.930 . S
H1955 C1967 0.929 . S
H1956 C1970 0.930 . S
H1957 C1972 0.960 . S
H1958 C1972 0.960 . S
H1959 C1972 0.960 . S
C1960 H1952 0.929 . S
C1960 C1961 1.377 . S
C1960 C1962 1.384 . S
C1961 C1960 1.377 . S
C1961 C1967 1.390 . S
C1962 H1953 0.930 . S
C1962 C1960 1.384 . S
C1962 C1963 1.372 . S
C1963 C1962 1.372 . S
C1963 C1964 1.400 . S
C1963 C1968 1.490 . S
C1964 H1954 0.930 . S
C1964 C1963 1.400 . S
C1964 C1967 1.386 . S
H1965 C1981 0.930 . S
H1966 C1982 0.931 . S
C1967 H1955 0.929 . S
C1967 C1961 1.390 . S
C1967 C1964 1.386 . S
C1968 C1963 1.490 . S
C1968 C1970 1.395 . S
C1968 C1971 1.403 . S
H1969 C1975 0.930 . S
C1970 H1956 0.930 . S
C1970 C1968 1.395 . S
C1970 C1973 1.403 . S
C1971 C1968 1.403 . S
C1971 C1972 1.524 . S
C1971 C1975 1.400 . S
C1972 H1957 0.960 . S
C1972 H1958 0.960 . S
C1972 H1959 0.960 . S
C1972 C1971 1.524 . S
C1973 C1970 1.403 . S
C1973 C1974 1.392 . S
C1973 C1977 1.495 . S
C1974 C1973 1.392 . S
C1974 C1975 1.385 . S
C1974 C1976 1.478 . S
C1975 H1969 0.930 . S
C1975 C1971 1.400 . S
C1975 C1974 1.385 . S
C1976 C1974 1.478 . S
C1976 C1978 1.381 . S
C1976 C1982 1.383 . S
C1977 C1973 1.495 . S
C1977 H1983 0.959 . S
C1977 H1984 0.961 . S
C1977 H1985 0.960 . S
C1978 C1976 1.381 . S
C1978 C1979 1.394 . S
C1978 H1986 0.930 . S
C1979 C1978 1.394 . S
C1979 C1980 1.383 . S
C1979 H1987 0.929 . S
C1980 C1979 1.383 . S
C1980 C1981 1.377 . S
C1981 H1965 0.930 . S
C1981 C1980 1.377 . S
C1981 C1982 1.379 . S
C1982 H1966 0.931 . S
C1982 C1976 1.383 . S
C1982 C1981 1.379 . S
H1983 C1977 0.959 . S
H1984 C1977 0.961 . S
H1985 C1977 0.960 . S
H1986 C1978 0.930 . S
H1987 C1979 0.929 . S
H1988 C1996 0.929 . S
H1989 C1998 0.930 . S
H1990 C2000 0.930 . S
H1991 C2003 0.929 . S
H1992 C2006 0.930 . S
H1993 C2008 0.960 . S
H1994 C2008 0.960 . S
H1995 C2008 0.960 . S
C1996 H1988 0.929 . S
C1996 C1997 1.377 . S
C1996 C1998 1.384 . S
C1997 C1996 1.377 . S
C1997 C2003 1.390 . S
C1998 H1989 0.930 . S
C1998 C1996 1.384 . S
C1998 C1999 1.372 . S
C1999 C1998 1.372 . S
C1999 C2000 1.400 . S
C1999 C2004 1.490 . S
C2000 H1990 0.930 . S
C2000 C1999 1.400 . S
C2000 C2003 1.386 . S
H2001 C2017 0.930 . S
H2002 C2018 0.931 . S
C2003 H1991 0.929 . S
C2003 C1997 1.390 . S
C2003 C2000 1.386 . S
C2004 C1999 1.490 . S
C2004 C2006 1.395 . S
C2004 C2007 1.403 . S
H2005 C2011 0.930 . S
C2006 H1992 0.930 . S
C2006 C2004 1.395 . S
C2006 C2009 1.403 . S
C2007 C2004 1.403 . S
C2007 C2008 1.524 . S
C2007 C2011 1.400 . S
C2008 H1993 0.960 . S
C2008 H1994 0.960 . S
C2008 H1995 0.960 . S
C2008 C2007 1.524 . S
C2009 C2006 1.403 . S
C2009 C2010 1.392 . S
C2009 C2013 1.495 . S
C2010 C2009 1.392 . S
C2010 C2011 1.385 . S
C2010 C2012 1.478 . S
C2011 H2005 0.930 . S
C2011 C2007 1.400 . S
C2011 C2010 1.385 . S
C2012 C2010 1.478 . S
C2012 C2014 1.381 . S
C2012 C2018 1.383 . S
C2013 C2009 1.495 . S
C2013 H2019 0.959 . S
C2013 H2020 0.961 . S
C2013 H2021 0.960 . S
C2014 C2012 1.381 . S
C2014 C2015 1.394 . S
C2014 H2022 0.930 . S
C2015 C2014 1.394 . S
C2015 C2016 1.383 . S
C2015 H2023 0.929 . S
C2016 C2015 1.383 . S
C2016 C2017 1.377 . S
C2017 H2001 0.930 . S
C2017 C2016 1.377 . S
C2017 C2018 1.379 . S
C2018 H2002 0.931 . S
C2018 C2012 1.383 . S
C2018 C2017 1.379 . S
H2019 C2013 0.959 . S
H2020 C2013 0.961 . S
H2021 C2013 0.960 . S
H2022 C2014 0.930 . S
H2023 C2015 0.929 . S
H2024 C2032 0.929 . S
H2025 C2034 0.930 . S
H2026 C2036 0.930 . S
H2027 C2039 0.929 . S
H2028 C2042 0.930 . S
H2029 C2044 0.960 . S
H2030 C2044 0.960 . S
H2031 C2044 0.960 . S
C2032 H2024 0.929 . S
C2032 C2033 1.377 . S
C2032 C2034 1.384 . S
C2033 C2032 1.377 . S
C2033 C2039 1.390 . S
C2034 H2025 0.930 . S
C2034 C2032 1.384 . S
C2034 C2035 1.372 . S
C2035 C2034 1.372 . S
C2035 C2036 1.400 . S
C2035 C2040 1.490 . S
C2036 H2026 0.930 . S
C2036 C2035 1.400 . S
C2036 C2039 1.386 . S
H2037 C2053 0.930 1_455 S
H2038 C2054 0.931 . S
C2039 H2027 0.929 . S
C2039 C2033 1.390 . S
C2039 C2036 1.386 . S
C2040 C2035 1.490 . S
C2040 C2042 1.395 . S
C2040 C2043 1.403 . S
H2041 C2047 0.930 . S
C2042 H2028 0.930 . S
C2042 C2040 1.395 . S
C2042 C2045 1.403 . S
C2043 C2040 1.403 . S
C2043 C2044 1.524 . S
C2043 C2047 1.400 . S
C2044 H2029 0.960 . S
C2044 H2030 0.960 . S
C2044 H2031 0.960 . S
C2044 C2043 1.524 . S
C2045 C2042 1.403 . S
C2045 C2046 1.392 . S
C2045 C2049 1.495 . S
C2046 C2045 1.392 . S
C2046 C2047 1.385 . S
C2046 C2048 1.478 . S
C2047 H2041 0.930 . S
C2047 C2043 1.400 . S
C2047 C2046 1.385 . S
C2048 C2046 1.478 . S
C2048 C2050 1.381 . S
C2048 C2054 1.383 . S
C2049 C2045 1.495 . S
C2049 H2055 0.959 . S
C2049 H2056 0.961 . S
C2049 H2057 0.960 . S
C2050 C2048 1.381 . S
C2050 C2051 1.394 . S
C2050 H2058 0.930 . S
C2051 C2050 1.394 . S
C2051 C2052 1.383 . S
C2051 H2059 0.929 . S
C2052 C2051 1.383 . S
C2052 C2053 1.377 . S
C2053 H2037 0.930 1_655 S
C2053 C2052 1.377 . S
C2053 C2054 1.379 . S
C2054 H2038 0.931 . S
C2054 C2048 1.383 . S
C2054 C2053 1.379 . S
H2055 C2049 0.959 . S
H2056 C2049 0.961 . S
H2057 C2049 0.960 . S
H2058 C2050 0.930 . S
H2059 C2051 0.929 . S
H2060 C2068 0.929 . S
H2061 C2070 0.930 . S
H2062 C2072 0.930 . S
H2063 C2075 0.929 . S
H2064 C2078 0.930 . S
H2065 C2080 0.960 . S
H2066 C2080 0.960 . S
H2067 C2080 0.960 . S
C2068 H2060 0.929 . S
C2068 C2069 1.377 . S
C2068 C2070 1.384 . S
C2069 C2068 1.377 . S
C2069 C2075 1.390 . S
C2070 H2061 0.930 . S
C2070 C2068 1.384 . S
C2070 C2071 1.372 . S
C2071 C2070 1.372 . S
C2071 C2072 1.400 . S
C2071 C2076 1.490 . S
C2072 H2062 0.930 . S
C2072 C2071 1.400 . S
C2072 C2075 1.386 . S
H2073 C2089 0.930 . S
H2074 C2090 0.931 . S
C2075 H2063 0.929 . S
C2075 C2069 1.390 . S
C2075 C2072 1.386 . S
C2076 C2071 1.490 . S
C2076 C2078 1.395 . S
C2076 C2079 1.403 . S
H2077 C2083 0.930 . S
C2078 H2064 0.930 . S
C2078 C2076 1.395 . S
C2078 C2081 1.403 . S
C2079 C2076 1.403 . S
C2079 C2080 1.524 . S
C2079 C2083 1.400 . S
C2080 H2065 0.960 . S
C2080 H2066 0.960 . S
C2080 H2067 0.960 . S
C2080 C2079 1.524 . S
C2081 C2078 1.403 . S
C2081 C2082 1.392 . S
C2081 C2085 1.495 . S
C2082 C2081 1.392 . S
C2082 C2083 1.385 . S
C2082 C2084 1.478 . S
C2083 H2077 0.930 . S
C2083 C2079 1.400 . S
C2083 C2082 1.385 . S
C2084 C2082 1.478 . S
C2084 C2086 1.381 . S
C2084 C2090 1.383 . S
C2085 C2081 1.495 . S
C2085 H2091 0.959 . S
C2085 H2092 0.961 . S
C2085 H2093 0.960 . S
C2086 C2084 1.381 . S
C2086 C2087 1.394 . S
C2086 H2094 0.930 . S
C2087 C2086 1.394 . S
C2087 C2088 1.383 . S
C2087 H2095 0.929 . S
C2088 C2087 1.383 . S
C2088 C2089 1.377 . S
C2089 H2073 0.930 . S
C2089 C2088 1.377 . S
C2089 C2090 1.379 . S
C2090 H2074 0.931 . S
C2090 C2084 1.383 . S
C2090 C2089 1.379 . S
H2091 C2085 0.959 . S
H2092 C2085 0.961 . S
H2093 C2085 0.960 . S
H2094 C2086 0.930 . S
H2095 C2087 0.929 . S
H2096 C2104 0.929 . S
H2097 C2106 0.930 . S
H2098 C2108 0.930 . S
H2099 C2111 0.929 . S
H2100 C2114 0.930 . S
H2101 C2116 0.960 . S
H2102 C2116 0.960 . S
H2103 C2116 0.960 . S
C2104 H2096 0.929 . S
C2104 C2105 1.377 . S
C2104 C2106 1.384 . S
C2105 C2104 1.377 . S
C2105 C2111 1.390 . S
C2106 H2097 0.930 . S
C2106 C2104 1.384 . S
C2106 C2107 1.372 . S
C2107 C2106 1.372 . S
C2107 C2108 1.400 . S
C2107 C2112 1.490 . S
C2108 H2098 0.930 . S
C2108 C2107 1.400 . S
C2108 C2111 1.386 . S
H2109 C2125 0.930 . S
H2110 C2126 0.931 . S
C2111 H2099 0.929 . S
C2111 C2105 1.390 . S
C2111 C2108 1.386 . S
C2112 C2107 1.490 . S
C2112 C2114 1.395 . S
C2112 C2115 1.403 . S
H2113 C2119 0.930 . S
C2114 H2100 0.930 . S
C2114 C2112 1.395 . S
C2114 C2117 1.403 . S
C2115 C2112 1.403 . S
C2115 C2116 1.524 . S
C2115 C2119 1.400 . S
C2116 H2101 0.960 . S
C2116 H2102 0.960 . S
C2116 H2103 0.960 . S
C2116 C2115 1.524 . S
C2117 C2114 1.403 . S
C2117 C2118 1.392 . S
C2117 C2121 1.495 . S
C2118 C2117 1.392 . S
C2118 C2119 1.385 . S
C2118 C2120 1.478 . S
C2119 H2113 0.930 . S
C2119 C2115 1.400 . S
C2119 C2118 1.385 . S
C2120 C2118 1.478 . S
C2120 C2122 1.381 . S
C2120 C2126 1.383 . S
C2121 C2117 1.495 . S
C2121 H2127 0.959 . S
C2121 H2128 0.961 . S
C2121 H2129 0.960 . S
C2122 C2120 1.381 . S
C2122 C2123 1.394 . S
C2122 H2130 0.930 . S
C2123 C2122 1.394 . S
C2123 C2124 1.383 . S
C2123 H2131 0.929 . S
C2124 C2123 1.383 . S
C2124 C2125 1.377 . S
C2125 H2109 0.930 . S
C2125 C2124 1.377 . S
C2125 C2126 1.379 . S
C2126 H2110 0.931 . S
C2126 C2120 1.383 . S
C2126 C2125 1.379 . S
H2127 C2121 0.959 . S
H2128 C2121 0.961 . S
H2129 C2121 0.960 . S
H2130 C2122 0.930 . S
H2131 C2123 0.929 . S
H2132 C2140 0.929 . S
H2133 C2142 0.930 . S
H2134 C2144 0.930 . S
H2135 C2147 0.929 . S
H2136 C2150 0.930 . S
H2137 C2152 0.960 . S
H2138 C2152 0.960 . S
H2139 C2152 0.960 . S
C2140 H2132 0.929 . S
C2140 C2141 1.377 . S
C2140 C2142 1.384 . S
C2141 C2140 1.377 . S
C2141 C2147 1.390 . S
C2142 H2133 0.930 . S
C2142 C2140 1.384 . S
C2142 C2143 1.372 . S
C2143 C2142 1.372 . S
C2143 C2144 1.400 . S
C2143 C2148 1.490 . S
C2144 H2134 0.930 . S
C2144 C2143 1.400 . S
C2144 C2147 1.386 . S
H2145 C2161 0.930 . S
H2146 C2162 0.931 . S
C2147 H2135 0.929 . S
C2147 C2141 1.390 . S
C2147 C2144 1.386 . S
C2148 C2143 1.490 . S
C2148 C2150 1.395 . S
C2148 C2151 1.403 . S
H2149 C2155 0.930 . S
C2150 H2136 0.930 . S
C2150 C2148 1.395 . S
C2150 C2153 1.403 . S
C2151 C2148 1.403 . S
C2151 C2152 1.524 . S
C2151 C2155 1.400 . S
C2152 H2137 0.960 . S
C2152 H2138 0.960 . S
C2152 H2139 0.960 . S
C2152 C2151 1.524 . S
C2153 C2150 1.403 . S
C2153 C2154 1.392 . S
C2153 C2157 1.495 . S
C2154 C2153 1.392 . S
C2154 C2155 1.385 . S
C2154 C2156 1.478 . S
C2155 H2149 0.930 . S
C2155 C2151 1.400 . S
C2155 C2154 1.385 . S
C2156 C2154 1.478 . S
C2156 C2158 1.381 . S
C2156 C2162 1.383 . S
C2157 C2153 1.495 . S
C2157 H2163 0.959 . S
C2157 H2164 0.961 . S
C2157 H2165 0.960 . S
C2158 C2156 1.381 . S
C2158 C2159 1.394 . S
C2158 H2166 0.930 . S
C2159 C2158 1.394 . S
C2159 C2160 1.383 . S
C2159 H2167 0.929 . S
C2160 C2159 1.383 . S
C2160 C2161 1.377 . S
C2161 H2145 0.930 . S
C2161 C2160 1.377 . S
C2161 C2162 1.379 . S
C2162 H2146 0.931 . S
C2162 C2156 1.383 . S
C2162 C2161 1.379 . S
H2163 C2157 0.959 . S
H2164 C2157 0.961 . S
H2165 C2157 0.960 . S
H2166 C2158 0.930 . S
H2167 C2159 0.929 . S
H2168 C2176 0.929 . S
H2169 C2178 0.930 . S
H2170 C2180 0.930 . S
H2171 C2183 0.929 . S
H2172 C2186 0.930 . S
H2173 C2188 0.960 . S
H2174 C2188 0.960 . S
H2175 C2188 0.960 . S
C2176 H2168 0.929 . S
C2176 C2177 1.377 . S
C2176 C2178 1.384 . S
C2177 C2176 1.377 . S
C2177 C2183 1.390 . S
C2178 H2169 0.930 . S
C2178 C2176 1.384 . S
C2178 C2179 1.372 . S
C2179 C2178 1.372 . S
C2179 C2180 1.400 . S
C2179 C2184 1.490 . S
C2180 H2170 0.930 . S
C2180 C2179 1.400 . S
C2180 C2183 1.386 . S
H2181 C2197 0.930 . S
H2182 C2198 0.931 . S
C2183 H2171 0.929 . S
C2183 C2177 1.390 . S
C2183 C2180 1.386 . S
C2184 C2179 1.490 . S
C2184 C2186 1.395 . S
C2184 C2187 1.403 . S
H2185 C2191 0.930 . S
C2186 H2172 0.930 . S
C2186 C2184 1.395 . S
C2186 C2189 1.403 . S
C2187 C2184 1.403 . S
C2187 C2188 1.524 . S
C2187 C2191 1.400 . S
C2188 H2173 0.960 . S
C2188 H2174 0.960 . S
C2188 H2175 0.960 . S
C2188 C2187 1.524 . S
C2189 C2186 1.403 . S
C2189 C2190 1.392 . S
C2189 C2193 1.495 . S
C2190 C2189 1.392 . S
C2190 C2191 1.385 . S
C2190 C2192 1.478 . S
C2191 H2185 0.930 . S
C2191 C2187 1.400 . S
C2191 C2190 1.385 . S
C2192 C2190 1.478 . S
C2192 C2194 1.381 . S
C2192 C2198 1.383 . S
C2193 C2189 1.495 . S
C2193 H2199 0.959 . S
C2193 H2200 0.961 . S
C2193 H2201 0.960 . S
C2194 C2192 1.381 . S
C2194 C2195 1.394 . S
C2194 H2202 0.930 . S
C2195 C2194 1.394 . S
C2195 C2196 1.383 . S
C2195 H2203 0.929 . S
C2196 C2195 1.383 . S
C2196 C2197 1.377 . S
C2197 H2181 0.930 . S
C2197 C2196 1.377 . S
C2197 C2198 1.379 . S
C2198 H2182 0.931 . S
C2198 C2192 1.383 . S
C2198 C2197 1.379 . S
H2199 C2193 0.959 . S
H2200 C2193 0.961 . S
H2201 C2193 0.960 . S
H2202 C2194 0.930 . S
H2203 C2195 0.929 . S
H2204 C2212 0.929 . S
H2205 C2214 0.930 . S
H2206 C2216 0.930 . S
H2207 C2219 0.929 . S
H2208 C2222 0.930 . S
H2209 C2224 0.960 . S
H2210 C2224 0.960 . S
H2211 C2224 0.960 . S
C2212 H2204 0.929 . S
C2212 C2213 1.377 . S
C2212 C2214 1.384 . S
C2213 C2212 1.377 . S
C2213 C2219 1.390 . S
C2214 H2205 0.930 . S
C2214 C2212 1.384 . S
C2214 C2215 1.372 . S
C2215 C2214 1.372 . S
C2215 C2216 1.400 . S
C2215 C2220 1.490 . S
C2216 H2206 0.930 . S
C2216 C2215 1.400 . S
C2216 C2219 1.386 . S
H2217 C2233 0.930 . S
H2218 C2234 0.931 . S
C2219 H2207 0.929 . S
C2219 C2213 1.390 . S
C2219 C2216 1.386 . S
C2220 C2215 1.490 . S
C2220 C2222 1.395 . S
C2220 C2223 1.403 . S
H2221 C2227 0.930 . S
C2222 H2208 0.930 . S
C2222 C2220 1.395 . S
C2222 C2225 1.403 . S
C2223 C2220 1.403 . S
C2223 C2224 1.524 . S
C2223 C2227 1.400 . S
C2224 H2209 0.960 . S
C2224 H2210 0.960 . S
C2224 H2211 0.960 . S
C2224 C2223 1.524 . S
C2225 C2222 1.403 . S
C2225 C2226 1.392 . S
C2225 C2229 1.495 . S
C2226 C2225 1.392 . S
C2226 C2227 1.385 . S
C2226 C2228 1.478 . S
C2227 H2221 0.930 . S
C2227 C2223 1.400 . S
C2227 C2226 1.385 . S
C2228 C2226 1.478 . S
C2228 C2230 1.381 . S
C2228 C2234 1.383 . S
C2229 C2225 1.495 . S
C2229 H2235 0.959 . S
C2229 H2236 0.961 . S
C2229 H2237 0.960 . S
C2230 C2228 1.381 . S
C2230 C2231 1.394 . S
C2230 H2238 0.930 . S
C2231 C2230 1.394 . S
C2231 C2232 1.383 . S
C2231 H2239 0.929 . S
C2232 C2231 1.383 . S
C2232 C2233 1.377 . S
C2233 H2217 0.930 . S
C2233 C2232 1.377 . S
C2233 C2234 1.379 . S
C2234 H2218 0.931 . S
C2234 C2228 1.383 . S
C2234 C2233 1.379 . S
H2235 C2229 0.959 . S
H2236 C2229 0.961 . S
H2237 C2229 0.960 . S
H2238 C2230 0.930 . S
H2239 C2231 0.929 . S
C540 C337 2.566 . S
C521 C18 2.590 . S
C576 C342 2.233 . S
C557 C59 2.284 . S
C612 C343 1.281 . S
C593 C98 1.277 . S
C629 C125 0.821 . S
C648 C347 0.765 . S
C665 C169 2.213 . S
C684 C350 2.146 . S
C720 C351 1.244 . S
C701 C218 1.289 . S
C737 C255 0.955 . S
C756 C328 0.970 . S
C773 C288 2.592 . S
C792 C344 2.568 . S
C828 C382 0.718 . S
C809 C15 0.768 . S
C845 C45 0.709 . S
C864 C408 0.876 . S
C900 C360 0.355 . S
C881 C95 0.120 . S
C936 C415 0.983 . S
C917 C128 0.968 . S
C953 C178 0.980 . S
C972 C369 0.940 . S
C1008 C411 1.442 1_556 S
C989 C215 1.478 . S
C1025 C249 2.224 . S
C1044 C375 2.221 . S
C1061 C299 2.002 . S
C1080 C406 2.020 . S
C1097 C9 2.463 . S
C1116 C414 2.389 . S
C1133 C175 0.316 . S
C1152 C401 0.542 1_556 S
C1188 C379 1.458 . S
C1169 C209 1.502 . S
C1224 C407 1.551 . S
C1205 C258 1.622 . S
C1241 C285 1.132 . S
C1260 C374 1.081 . S
C1277 C89 3.041 . S
C1296 C392 3.026 . S
C1332 C383 2.637 . S
C1313 C139 2.649 . S
C1349 C48 1.590 . S
C1368 C376 1.552 . S
C1385 C298 2.555 . S
C1404 C438 2.474 . S
C1421 C179 2.182 . S
C1440 C433 2.162 . S
C1476 C447 1.224 . S
C1457 C208 1.258 . S
C1512 C424 0.899 . S
C1493 C245 0.919 . S
C1529 C49 2.259 . S
C1548 C440 2.269 . S
C1584 C439 1.255 . S
C1565 C88 1.244 . S
C1601 C135 0.795 . S
C1620 C443 0.749 . S
C1637 C8 2.555 . S
C1656 C446 2.498 . S
C1673 C295 1.139 . S
C1692 C472 1.144 1_655 S
C1728 C488 0.381 . S
C1709 C165 0.281 . S
C1745 C219 1.509 . S
C1764 C470 1.480 . S
C1781 C248 1.638 . S
C1800 C503 1.587 . S
C1836 C479 1.569 . S
C1817 C58 1.599 . S
C1853 C99 3.083 . S
C1872 C497 3.079 . S
C1908 C475 2.631 . S
C1889 C129 2.646 . S
C1944 C510 2.477 . S
C1925 C19 2.505 . S
C1980 C502 2.010 . S
C1961 C289 2.049 . S
C1997 C55 0.696 . S
C2016 C507 0.697 . S
C2033 C85 0.119 . S
C2052 C478 0.290 . S
C2088 C511 1.015 . S
C2069 C138 0.986 . S
C2105 C5 0.768 . S
C2124 C465 0.811 . S
C2141 C205 1.506 . S
C2160 C504 1.428 . S
C2196 C456 2.250 . S
C2177 C259 2.223 . S
C2232 C471 0.929 . S
C2213 C168 0.982 . S
