# Generated by pormake.
# Topology pth, (4,4)-cn, num edge types: 1
# Building blocks:
#     Node 0, Type 0, BuildingBlock: UXUYUI_clean_sbu_0, # of connection points: 4
#     Node 1, Type 0, BuildingBlock: UXUYUI_clean_sbu_0, # of connection points: 4
#     Node 2, Type 0, BuildingBlock: UXUYUI_clean_sbu_0, # of connection points: 4
#     Node 3, Type 1, BuildingBlock: MUDLON_clean_sbu_0, # of connection points: 4
#     Node 4, Type 1, BuildingBlock: MUDLON_clean_sbu_0, # of connection points: 4
#     Node 5, Type 1, BuildingBlock: MUDLON_clean_sbu_0, # of connection points: 4
#     Edge 6, Type (0, 1), BuildingBlock: MIFKUJ_clean_linker_0, # of connection points: 2
#     Edge 7, Type (0, 1), BuildingBlock: MIFKUJ_clean_linker_0, # of connection points: 2
#     Edge 8, Type (0, 1), BuildingBlock: MIFKUJ_clean_linker_0, # of connection points: 2
#     Edge 9, Type (0, 1), BuildingBlock: MIFKUJ_clean_linker_0, # of connection points: 2
#     Edge 10, Type (0, 1), BuildingBlock: MIFKUJ_clean_linker_0, # of connection points: 2
#     Edge 11, Type (0, 1), BuildingBlock: MIFKUJ_clean_linker_0, # of connection points: 2
#     Edge 12, Type (0, 1), BuildingBlock: MIFKUJ_clean_linker_0, # of connection points: 2
#     Edge 13, Type (0, 1), BuildingBlock: MIFKUJ_clean_linker_0, # of connection points: 2
#     Edge 14, Type (0, 1), BuildingBlock: MIFKUJ_clean_linker_0, # of connection points: 2
#     Edge 15, Type (0, 1), BuildingBlock: MIFKUJ_clean_linker_0, # of connection points: 2
#     Edge 16, Type (0, 1), BuildingBlock: MIFKUJ_clean_linker_0, # of connection points: 2
#     Edge 17, Type (0, 1), BuildingBlock: MIFKUJ_clean_linker_0, # of connection points: 2
# Relax obj value: 0.110
# Max RMSD: 0.229
# Mean RMSD: 0.139
data_MOF--net-pth--node1-UXUYUI_clean_sbu_0--node2-MUDLON_clean_sbu_0--edge1-MIFKUJ_clean_linker_0
_symmetry_space_group_name_H-M    P1
_symmetry_Int_Tables_number       1
_symmetry_cell_setting            triclinic
loop_
_symmetry_equiv_pos_as_xyz
'x, y, z'
_cell_length_a     34.43477
_cell_length_b     34.443003
_cell_length_c     91.61729
_cell_angle_alpha  90.029457
_cell_angle_beta   89.993935
_cell_angle_gamma 120.05002
loop_
_atom_site_label
_atom_site_type_symbol
_atom_site_fract_x
_atom_site_fract_y
_atom_site_fract_z
_atom_type_partial_charge
Li0 Li 0.0494 0.04063 0.07477 0.0
Li1 Li 1.00013 0.04367 0.09339 0.0
Li2 Li 0.02122 0.98303 0.09432 0.0
Li3 Li 0.96939 0.98316 0.07578 0.0
C4 C 0.10001 0.08727 0.09914 0.0
N5 N 0.18103 0.16396 0.10463 0.0
C6 C 0.1084 0.12856 0.09363 0.0
C7 C 0.13294 0.08488 0.10736 0.0
C8 C 0.14952 0.16697 0.09654 0.0
C9 C 0.17365 0.12406 0.11004 0.0
C10 C 0.98614 0.08121 0.06979 0.0
C11 C 0.93326 0.10766 0.07105 0.0
N12 N 0.9654 0.1484 0.06603 0.0
C13 C 0.01858 0.12328 0.06457 0.0
C14 C 0.94305 0.07324 0.07297 0.0
C15 C 0.00745 0.15682 0.06277 0.0
C16 C 0.08531 0.07978 0.04778 0.0
N17 N 0.09776 0.07408 0.06133 0.0
C18 C 0.17523 0.11502 0.05444 0.0
C19 C 0.14173 0.09056 0.06475 0.0
C20 C 0.16338 0.1222 0.04042 0.0
C21 C 0.11761 0.10394 0.03716 0.0
H22 H 0.0501 0.06585 0.04527 0.0
H23 H 0.15096 0.0847 0.07545 0.0
C24 C 0.96192 0.06029 0.11804 0.0
N25 N 0.98772 0.08077 0.10613 0.0
C26 C 0.95274 0.08485 0.12824 0.0
C27 C 0.9966 0.15131 0.11374 0.0
C28 C 0.00503 0.12549 0.10385 0.0
C29 C 0.97042 0.13115 0.12622 0.0
H30 H 0.94903 0.02487 0.11978 0.0
H31 H 0.02569 0.14145 0.09444 0.0
C32 C 0.05382 0.96355 0.06907 0.0
N33 N 0.119 0.94319 0.06116 0.0
C34 C 0.04686 0.93539 0.05718 0.0
C35 C 0.0939 0.98137 0.07695 0.0
C36 C 0.08023 0.92548 0.05335 0.0
C37 C 0.12645 0.97069 0.07277 0.0
C38 C 0.91839 0.94481 0.09889 0.0
C39 C 0.90867 0.90085 0.10146 0.0
C40 C 0.88341 0.95414 0.09777 0.0
C41 C 0.86394 0.86674 0.10262 0.0
C42 C 0.83912 0.91911 0.09899 0.0
N43 N 0.83038 0.87649 0.10135 0.0
C44 C 0.04935 0.96302 0.12081 0.0
C45 C 0.02483 0.90542 0.10306 0.0
C46 C 0.05649 0.9368 0.13092 0.0
N47 N 0.03367 0.94696 0.10722 0.0
C48 C 0.03118 0.87793 0.11285 0.0
C49 C 0.04687 0.89338 0.12704 0.0
H50 H 0.05544 0.99592 0.12391 0.0
H51 H 0.01199 0.89327 0.09223 0.0
C52 C 0.90101 0.96149 0.05448 0.0
N53 N 0.91915 0.94418 0.06381 0.0
C54 C 0.86683 0.93346 0.04485 0.0
C55 C 0.87021 0.87021 0.05472 0.0
C56 C 0.90453 0.89949 0.06407 0.0
C57 C 0.85122 0.8871 0.04476 0.0
H58 H 0.91397 0.99724 0.05418 0.0
H59 H 0.92019 0.88668 0.07135 0.0
O60 O 0.06027 0.04913 0.0962 0.0
O61 O 0.99639 0.04793 0.07166 0.0
O62 O 0.02151 0.97368 0.07287 0.0
O63 O 0.96194 0.97854 0.09749 0.0
H64 H 0.08382 0.13072 0.08691 0.0
H65 H 0.12725 0.05307 0.11154 0.0
H66 H 0.15651 0.19913 0.09229 0.0
H67 H 0.19944 0.12272 0.11639 0.0
H68 H 0.9001 0.10198 0.07353 0.0
H69 H 0.05213 0.13018 0.06207 0.0
H70 H 0.91748 0.04085 0.07692 0.0
H71 H 0.0323 0.18958 0.05882 0.0
H72 H 0.21001 0.12778 0.05738 0.0
H73 H 0.1068 0.10893 0.02657 0.0
H74 H 0.93301 0.06791 0.13779 0.0
H75 H 0.01052 0.18676 0.11161 0.0
H76 H 0.01598 0.92136 0.05097 0.0
H77 H 0.09987 0.00323 0.08617 0.0
H78 H 0.07532 0.90372 0.04417 0.0
H79 H 0.15763 0.98427 0.07877 0.0
H80 H 0.93533 0.89307 0.1024 0.0
H81 H 0.89039 0.98806 0.096 0.0
H82 H 0.8559 0.8325 0.10451 0.0
H83 H 0.8117 0.92581 0.09808 0.0
H84 H 0.06796 0.94981 0.1418 0.0
H85 H 0.02363 0.84481 0.10936 0.0
H86 H 0.85397 0.94826 0.03722 0.0
H87 H 0.85904 0.83474 0.05521 0.0
Li88 Li 0.9932 0.95914 0.41016 0.0
Li89 Li 0.04367 0.00919 0.42918 0.0
Li90 Li 0.9639 0.99055 0.42761 0.0
Li91 Li 0.0176 0.04022 0.40939 0.0
C92 C 0.97796 0.90695 0.43337 0.0
N93 N 0.95728 0.81877 0.43618 0.0
C94 C 0.01209 0.89675 0.43537 0.0
C95 C 0.93326 0.87237 0.43302 0.0
C96 C 1.00097 0.85194 0.43671 0.0
C97 C 0.9235 0.82798 0.4344 0.0
C98 C 0.09871 0.04273 0.4047 0.0
C99 C 0.16355 0.11558 0.40887 0.0
N100 N 0.18607 0.1071 0.3983 0.0
C101 C 0.12246 0.03471 0.39389 0.0
C102 C 0.11936 0.08346 0.41227 0.0
C103 C 0.16662 0.06769 0.39081 0.0
C104 C 0.946 0.89176 0.3886 0.0
N105 N 0.98131 0.90889 0.398 0.0
C106 C 0.0041 0.8581 0.38897 0.0
C107 C 0.01033 0.89297 0.39828 0.0
C108 C 0.96808 0.83987 0.37903 0.0
C109 C 0.9387 0.85712 0.37902 0.0
H110 H 0.92412 0.90573 0.38822 0.0
H111 H 0.03881 0.90786 0.40559 0.0
C112 C 0.0903 0.03516 0.45593 0.0
N113 N 0.09138 0.02002 0.44233 0.0
C114 C 0.12323 0.04217 0.46618 0.0
C115 C 0.15772 0.01738 0.44832 0.0
C116 C 0.12427 0.01122 0.43835 0.0
C117 C 0.15746 0.03289 0.46252 0.0
H118 H 0.06345 0.04129 0.45887 0.0
H119 H 0.12405 0.99858 0.42752 0.0
C120 C 0.91364 0.97592 0.40311 0.0
N121 N 0.82542 0.95185 0.3977 0.0
C122 C 0.90353 0.00597 0.3962 0.0
C123 C 0.87889 0.93344 0.4071 0.0
C124 C 0.85871 0.99322 0.3936 0.0
C125 C 0.83451 0.92195 0.40432 0.0
C126 C 0.00712 0.08158 0.43514 0.0
C127 C 0.97897 0.09007 0.4264 0.0
C128 C 0.02308 0.10465 0.44832 0.0
C129 C 0.96699 0.12131 0.43101 0.0
C130 C 0.01036 0.13567 0.45257 0.0
N131 N 0.98279 0.14327 0.4439 0.0
C132 C 0.90685 0.95457 0.452 0.0
C133 C 0.88587 0.99578 0.43642 0.0
C134 C 0.87184 0.94597 0.4616 0.0
N135 N 0.91325 0.97907 0.43968 0.0
C136 C 0.85043 0.98796 0.44569 0.0
C137 C 0.84307 0.96286 0.45853 0.0
H138 H 0.9292 0.94191 0.45444 0.0
H139 H 0.89159 0.01558 0.42669 0.0
C140 C 0.02196 0.07741 0.38199 0.0
N141 N 0.03415 0.08915 0.39612 0.0
C142 C 0.03016 0.1101 0.37152 0.0
C143 C 0.06451 0.1668 0.39023 0.0
C144 C 0.05589 0.13292 0.40034 0.0
C145 C 0.05103 0.15556 0.3756 0.0
H146 H 0.00521 0.0424 0.3789 0.0
H147 H 0.06584 0.14153 0.41161 0.0
O148 O 0.98823 0.95059 0.43186 0.0
O149 O 0.05545 0.01071 0.40779 0.0
O150 O 0.95732 0.98794 0.40584 0.0
O151 O 0.01914 0.05097 0.43084 0.0
H152 H 0.04683 0.9231 0.43571 0.0
H153 H 0.90638 0.8797 0.43177 0.0
H154 H 0.02708 0.84354 0.43814 0.0
H155 H 0.88906 0.80087 0.43409 0.0
H156 H 0.17995 0.14725 0.41463 0.0
H157 H 0.10689 0.00331 0.38795 0.0
H158 H 0.10157 0.09026 0.42069 0.0
H159 H 0.18542 0.06195 0.38247 0.0
H160 H 0.02746 0.84578 0.38953 0.0
H161 H 0.91109 0.84503 0.37136 0.0
H162 H 0.12181 0.05481 0.47687 0.0
H163 H 0.18282 0.00901 0.44501 0.0
H164 H 0.92995 0.03886 0.39291 0.0
H165 H 0.88614 0.90966 0.41231 0.0
H166 H 0.85041 0.01622 0.38833 0.0
H167 H 0.8073 0.88927 0.40743 0.0
H168 H 0.96645 0.07267 0.41617 0.0
H169 H 0.04514 0.09879 0.4552 0.0
H170 H 0.94512 0.12807 0.42435 0.0
H171 H 0.02244 0.15372 0.46275 0.0
H172 H 0.86727 0.92612 0.47128 0.0
H173 H 0.82964 1.00229 0.44298 0.0
H174 H 0.02009 0.09974 0.36035 0.0
H175 H 0.08045 0.20125 0.39394 0.0
Li176 Li 0.0377 0.98994 0.7414 0.0
Li177 Li 0.03917 0.04239 0.76038 0.0
Li178 Li 0.97796 0.95995 0.76018 0.0
Li179 Li 0.97834 0.01292 0.74181 0.0
C180 C 0.0756 0.976 0.76623 0.0
N181 N 0.13978 0.95292 0.77271 0.0
C182 C 0.11926 0.00923 0.76979 0.0
C183 C 0.06436 0.93099 0.7662 0.0
C184 C 0.1513 0.99689 0.77296 0.0
C185 C 0.09735 0.92001 0.76944 0.0
C186 C 0.07093 0.09398 0.73468 0.0
C187 C 0.08478 0.16975 0.73306 0.0
N188 N 0.12498 0.18252 0.7266 0.0
C189 C 0.11223 0.10776 0.72794 0.0
C190 C 0.05693 0.1251 0.73719 0.0
C191 C 0.13913 0.15272 0.72396 0.0
C192 C 0.05493 0.95156 0.7166 0.0
N193 N 0.07435 0.97751 0.72857 0.0
C194 C 0.14632 0.98962 0.72121 0.0
C195 C 0.11922 0.99672 0.73096 0.0
C196 C 0.12729 0.96307 0.70869 0.0
C197 C 0.08079 0.94379 0.70651 0.0
H198 H 0.01943 0.93765 0.71468 0.0
H199 H 0.13426 0.01841 0.74026 0.0
C200 C 0.06156 0.09153 0.78673 0.0
N201 N 0.07683 0.09165 0.77303 0.0
C202 C 0.08811 0.12545 0.79667 0.0
C203 C 0.14544 0.15946 0.77817 0.0
C204 C 0.11808 0.12455 0.76868 0.0
C205 C 0.13087 0.1602 0.79248 0.0
H206 H 0.0289 0.06462 0.79001 0.0
H207 H 0.1302 0.12352 0.75792 0.0
C208 C 0.94376 0.90866 0.73512 0.0
N209 N 0.88721 0.81934 0.72846 0.0
C210 C 0.90113 0.89457 0.72939 0.0
C211 C 0.95785 0.87748 0.73731 0.0
C212 C 0.87297 0.84921 0.72613 0.0
C213 C 0.92871 0.83243 0.73392 0.0
C214 C 0.94438 0.0291 0.76736 0.0
C215 C 0.89988 0.99808 0.77085 0.0
C216 C 0.95935 0.07498 0.76813 0.0
C217 C 0.87074 0.01353 0.77474 0.0
C218 C 0.92919 0.0891 0.77208 0.0
N219 N 0.88586 0.05834 0.77525 0.0
C220 C 0.95838 0.90576 0.78536 0.0
C221 C 0.89694 0.88136 0.76913 0.0
C222 C 0.93199 0.87136 0.79516 0.0
N223 N 0.94058 0.91012 0.77263 0.0
C224 C 0.86955 0.84608 0.7785 0.0
C225 C 0.88693 0.84093 0.79176 0.0
H226 H 0.99299 0.92942 0.78799 0.0
H227 H 0.88302 0.88628 0.75922 0.0
C228 C 0.95963 0.05282 0.7177 0.0
N229 N 0.94106 0.02607 0.72957 0.0
C230 C 0.93316 0.06159 0.70821 0.0
C231 C 0.86864 0.01458 0.72315 0.0
C232 C 0.89637 0.00668 0.73234 0.0
C233 C 0.88692 0.04231 0.71084 0.0
H234 H 0.99496 0.06689 0.71545 0.0
H235 H 0.88197 0.98414 0.74148 0.0
O236 O 0.04382 0.98746 0.76311 0.0
O237 O 0.04437 0.05018 0.73873 0.0
O238 O 0.97161 0.95285 0.73849 0.0
O239 O 0.97338 0.01458 0.76356 0.0
H240 H 0.12841 0.0442 0.76997 0.0
H241 H 0.03049 0.90481 0.76379 0.0
H242 H 0.18532 0.02227 0.77563 0.0
H243 H 0.08918 0.88532 0.7694 0.0
H244 H 0.07439 0.19421 0.73497 0.0
H245 H 0.12347 0.08403 0.72586 0.0
H246 H 0.02478 0.11482 0.74219 0.0
H247 H 0.17126 0.16392 0.71879 0.0
H248 H 0.18186 0.00498 0.72347 0.0
H249 H 0.06461 0.92392 0.6969 0.0
H250 H 0.07552 0.12377 0.80761 0.0
H251 H 0.17771 0.18558 0.77426 0.0
H252 H 0.88982 0.91835 0.72756 0.0
H253 H 0.99098 0.888 0.74153 0.0
H254 H 0.83979 0.83776 0.72176 0.0
H255 H 0.93912 0.80789 0.7356 0.0
H256 H 0.88789 0.96245 0.77044 0.0
H257 H 0.99395 0.09943 0.76581 0.0
H258 H 0.8361 0.9899 0.77736 0.0
H259 H 0.94027 0.12451 0.77267 0.0
H260 H 0.94668 0.8685 0.80526 0.0
H261 H 0.83477 0.82383 0.77559 0.0
H262 H 0.94879 0.08328 0.6989 0.0
H263 H 0.83303 0.99814 0.72544 0.0
Mg264 Mg 0.00845 0.50611 0.25319 0.0
C265 C 0.02167 0.44742 0.27205 0.0
O266 O 0.97897 0.42769 0.26856 0.0
C267 C 0.01835 0.56424 0.22869 0.0
O268 O 0.98042 0.52662 0.22662 0.0
C269 C 0.94268 0.416 0.23557 0.0
O270 O 0.91031 0.40556 0.24505 0.0
O271 O 0.98003 0.45205 0.2371 0.0
O272 O 0.04769 0.4866 0.26703 0.0
O273 O 0.96547 0.51566 0.26862 0.0
C274 C 0.95129 0.54282 0.26619 0.0
O275 O 0.95602 0.55998 0.25308 0.0
O276 O 0.04194 0.56713 0.23981 0.0
Mg277 Mg 0.51171 0.00418 0.58569 0.0
C278 C 0.45679 0.04474 0.57416 0.0
O279 O 0.44055 0.03545 0.58748 0.0
C280 C 0.5709 0.05392 0.61151 0.0
O281 O 0.53174 0.04356 0.6171 0.0
C282 C 0.41803 0.9435 0.60003 0.0
O283 O 0.40335 0.93007 0.58671 0.0
O284 O 0.45971 0.96992 0.60215 0.0
O285 O 0.48937 0.03883 0.57086 0.0
O286 O 0.52969 0.96327 0.57223 0.0
C287 C 0.52038 0.95781 0.55867 0.0
O288 O 0.49368 0.9712 0.55328 0.0
O289 O 0.57303 0.04567 0.59809 0.0
Mg290 Mg 0.50247 0.50728 0.91709 0.0
C291 C 0.44644 0.49693 0.89004 0.0
O292 O 0.48615 0.52461 0.88458 0.0
C293 C 0.55539 0.56474 0.94033 0.0
O294 O 0.56855 0.5355 0.93785 0.0
C295 C 0.45234 0.41085 0.92798 0.0
O296 O 0.43165 0.40463 0.91542 0.0
O297 O 0.48585 0.44925 0.93083 0.0
O298 O 0.44309 0.48811 0.90362 0.0
O299 O 0.56204 0.53261 0.90333 0.0
C300 C 0.56793 0.51591 0.89173 0.0
O301 O 0.53656 0.47599 0.88741 0.0
O302 O 0.523 0.56184 0.93276 0.0
H303 H 0.89363 0.10844 0.1418 0.0
H304 H 0.88271 0.15259 0.16058 0.0
H305 H 0.01863 0.26018 0.15425 0.0
H306 H 0.03037 0.21566 0.13593 0.0
H307 H 1.00106 0.24581 0.18232 0.0
H308 H 0.92693 0.26462 0.14076 0.0
H309 H 0.87294 0.23987 0.12039 0.0
H310 H 0.76354 0.17348 0.15056 0.0
H311 H 0.81696 0.19735 0.17111 0.0
H312 H 1.00274 0.43063 0.21393 0.0
H313 H 0.99978 0.37784 0.19571 0.0
H314 H 0.87017 0.27737 0.21174 0.0
H315 H 0.87273 0.33045 0.23021 0.0
H316 H 0.87828 0.28154 0.18037 0.0
H317 H 0.95562 0.26968 0.22225 0.0
H318 H 0.01185 0.30027 0.24198 0.0
H319 H 0.11779 0.35786 0.21028 0.0
H320 H 0.06218 0.32831 0.19035 0.0
C321 C 0.92131 0.14139 0.14446 0.0
C322 C 0.96288 0.15847 0.1373 0.0
C323 C 0.91485 0.16679 0.15511 0.0
C324 C 0.94971 0.20994 0.15876 0.0
C325 C 0.99118 0.22703 0.15162 0.0
C326 C 0.9977 0.20166 0.14102 0.0
C327 C 0.94361 0.23712 0.17021 0.0
C328 C 0.97438 0.25383 0.1818 0.0
C329 C 0.90812 0.24675 0.16979 0.0
C330 C 0.87596 0.23231 0.15746 0.0
C331 C 0.89138 0.2444 0.14304 0.0
C332 C 0.86088 0.2306 0.13146 0.0
C333 C 0.81484 0.20499 0.13417 0.0
C334 C 0.79921 0.19323 0.14847 0.0
C335 C 0.82958 0.20691 0.16009 0.0
C336 C 0.97333 0.39746 0.21359 0.0
C337 C 0.93814 0.38466 0.22368 0.0
C338 C 0.97176 0.36728 0.20314 0.0
C339 C 0.93509 0.3235 0.20251 0.0
C340 C 0.89887 0.311 0.21209 0.0
C341 C 0.90043 0.34133 0.22264 0.0
C342 C 0.9362 0.2907 0.19224 0.0
C343 C 0.90455 0.27294 0.18093 0.0
C344 C 0.97109 0.28034 0.19283 0.0
C345 C 0.00468 0.29704 0.2048 0.0
C346 C 0.9909 0.28906 0.21948 0.0
C347 C 0.02266 0.30622 0.2307 0.0
C348 C 0.06834 0.3311 0.22738 0.0
C349 C 0.08238 0.33862 0.21283 0.0
C350 C 0.05076 0.32164 0.20157 0.0
H351 H 0.09289 0.34455 0.23606 0.0
H352 H 0.79128 0.19436 0.12519 0.0
H353 H 0.75756 0.94359 0.45183 0.0
H354 H 0.69841 0.93453 0.46862 0.0
H355 H 0.78559 0.95547 0.50521 0.0
H356 H 0.84503 0.96484 0.48848 0.0
H357 H 0.70089 0.88786 0.51061 0.0
H358 H 0.77008 0.03959 0.49291 0.0
H359 H 0.79682 0.09857 0.47408 0.0
H360 H 0.66273 0.04283 0.45747 0.0
H361 H 0.63529 0.9831 0.47609 0.0
H362 H 0.5933 0.9489 0.56505 0.0
H363 H 0.64277 0.94074 0.54781 0.0
H364 H 0.55553 0.92986 0.51231 0.0
H365 H 0.50653 0.93932 0.52947 0.0
H366 H 0.63773 0.98883 0.50573 0.0
H367 H 0.56747 0.83906 0.52444 0.0
H368 H 0.54109 0.78034 0.54335 0.0
H369 H 0.67645 0.83192 0.55819 0.0
H370 H 0.70361 0.89134 0.53949 0.0
C371 C 0.76427 0.94648 0.46344 0.0
C372 C 0.80624 0.95526 0.46878 0.0
C373 C 0.73034 0.94114 0.47304 0.0
C374 C 0.73769 0.94481 0.48819 0.0
C375 C 0.77908 0.95239 0.49357 0.0
C376 C 0.81303 0.95766 0.48398 0.0
C377 C 0.70276 0.94214 0.49839 0.0
C378 C 0.68733 0.91019 0.50964 0.0
C379 C 0.68432 0.97058 0.49694 0.0
C380 C 0.70072 0.00661 0.48579 0.0
C381 C 0.74636 0.03971 0.48517 0.0
C382 C 0.76163 0.07331 0.47455 0.0
C383 C 0.73152 0.07437 0.46456 0.0
C384 C 0.68603 0.04191 0.4652 0.0
C385 C 0.6706 0.0082 0.47579 0.0
C386 C 0.58409 0.94386 0.55361 0.0
C387 C 0.54598 0.94495 0.54865 0.0
C388 C 0.61244 0.93906 0.54374 0.0
C389 C 0.60292 0.93447 0.52871 0.0
C390 C 0.56376 0.93351 0.52383 0.0
C391 C 0.53563 0.93872 0.53367 0.0
C392 C 0.63552 0.93438 0.51801 0.0
C393 C 0.65079 0.96607 0.50666 0.0
C394 C 0.65374 0.90567 0.5194 0.0
C395 C 0.63752 0.86989 0.53064 0.0
C396 C 0.59158 0.83809 0.53181 0.0
C397 C 0.57649 0.80464 0.54248 0.0
C398 C 0.60706 0.80246 0.55199 0.0
C399 C 0.6528 0.83367 0.55083 0.0
C400 C 0.66807 0.86721 0.54018 0.0
H401 H 0.59531 0.77655 0.56024 0.0
H402 H 0.74341 0.10041 0.45634 0.0
H403 H 0.83009 0.75213 0.78587 0.0
H404 H 0.78035 0.69327 0.80286 0.0
H405 H 0.82703 0.78975 0.83799 0.0
H406 H 0.87794 0.84825 0.82112 0.0
H407 H 0.81796 0.7157 0.84792 0.0
H408 H 0.72342 0.75226 0.81969 0.0
H409 H 0.69083 0.76376 0.79726 0.0
H410 H 0.63939 0.62601 0.78523 0.0
H411 H 0.6722 0.61385 0.8075 0.0
H412 H 0.63505 0.6019 0.89681 0.0
H413 H 0.69265 0.65274 0.8799 0.0
H414 H 0.64628 0.54712 0.84779 0.0
H415 H 0.58748 0.49604 0.86461 0.0
H416 H 0.65629 0.62224 0.83597 0.0
H417 H 0.74869 0.58679 0.86632 0.0
H418 H 0.77871 0.57831 0.88981 0.0
H419 H 0.83138 0.7181 0.89904 0.0
H420 H 0.80135 0.72734 0.87567 0.0
C421 C 0.82973 0.76069 0.79723 0.0
C422 C 0.85775 0.80483 0.80215 0.0
C423 C 0.80117 0.72707 0.80694 0.0
C424 C 0.79916 0.73707 0.82171 0.0
C425 C 0.82784 0.78102 0.82668 0.0
C426 C 0.85694 0.81449 0.81702 0.0
C427 C 0.76676 0.70207 0.83193 0.0
C428 C 0.78255 0.69557 0.84534 0.0
C429 C 0.72055 0.6751 0.82855 0.0
C430 C 0.70068 0.68229 0.81518 0.0
C431 C 0.70543 0.72451 0.8122 0.0
C432 C 0.68688 0.73114 0.79953 0.0
C433 C 0.66317 0.69567 0.78981 0.0
C434 C 0.65784 0.65347 0.79276 0.0
C435 C 0.67638 0.64669 0.80541 0.0
C436 C 0.63736 0.58913 0.88624 0.0
C437 C 0.60647 0.54476 0.88209 0.0
C438 C 0.67058 0.61832 0.87657 0.0
C439 C 0.67422 0.60377 0.86258 0.0
C440 C 0.64421 0.55915 0.85853 0.0
C441 C 0.61073 0.52989 0.86819 0.0
C442 C 0.70749 0.63593 0.85193 0.0
C443 C 0.6918 0.64202 0.83847 0.0
C444 C 0.75361 0.66298 0.85537 0.0
C445 C 0.77255 0.65768 0.86928 0.0
C446 C 0.76654 0.61568 0.87339 0.0
C447 C 0.78359 0.61075 0.88667 0.0
C448 C 0.80689 0.64763 0.89592 0.0
C449 C 0.81336 0.68957 0.89186 0.0
C450 C 0.79643 0.69469 0.87858 0.0
H451 H 0.81996 0.64372 0.90621 0.0
H452 H 0.64883 0.70086 0.78 0.0
H453 H 0.98803 0.80464 0.13208 0.0
H454 H 0.99256 0.75636 0.1507 0.0
H455 H 0.11869 0.86618 0.16565 0.0
H456 H 0.11467 0.91481 0.14684 0.0
H457 H 0.11843 0.78428 0.16411 0.0
H458 H 0.03036 0.84114 0.18511 0.0
H459 H 0.97036 0.86029 0.18609 0.0
H460 H 0.87085 0.72117 0.18146 0.0
H461 H 0.93031 0.70123 0.18023 0.0
H462 H 0.09273 0.64976 0.22923 0.0
H463 H 0.10712 0.71323 0.21328 0.0
H464 H 0.98365 0.62879 0.19027 0.0
H465 H 0.96932 0.56601 0.20582 0.0
H466 H 0.99157 0.70919 0.1989 0.0
H467 H 0.08038 0.65426 0.17497 0.0
H468 H 0.14033 0.63505 0.17367 0.0
H469 H 0.23863 0.77108 0.18413 0.0
H470 H 0.1791 0.79094 0.18569 0.0
C471 C 0.01707 0.81845 0.13918 0.0
C472 C 0.05096 0.86363 0.13797 0.0
C473 C 0.01945 0.79088 0.1499 0.0
C474 C 0.05574 0.80779 0.15967 0.0
C475 C 0.09032 0.8525 0.15826 0.0
C476 C 0.08781 0.88029 0.14758 0.0
C477 C 0.05646 0.7787 0.17153 0.0
C478 C 0.09117 0.76851 0.17191 0.0
C479 C 0.02081 0.75797 0.18166 0.0
C480 C 0.98485 0.76974 0.18247 0.0
C481 C 0.9957 0.81466 0.18419 0.0
C482 C 0.96178 0.82565 0.18481 0.0
C483 C 0.91682 0.79198 0.18381 0.0
C484 C 0.90569 0.74722 0.18222 0.0
C485 C 0.9395 0.73605 0.18158 0.0
C486 C 0.06892 0.64478 0.22069 0.0
C487 C 0.02984 0.60279 0.21885 0.0
C488 C 0.07717 0.681 0.2116 0.0
C489 C 0.0463 0.67573 0.20062 0.0
C490 C 0.00776 0.63374 0.19871 0.0
C491 C 0.99974 0.59775 0.20763 0.0
C492 C 0.05271 0.71358 0.19118 0.0
C493 C 0.01928 0.72554 0.19127 0.0
C494 C 0.08954 0.73588 0.18154 0.0
C495 C 0.12525 0.72393 0.18065 0.0
C496 C 0.11472 0.67996 0.17714 0.0
C497 C 0.14863 0.66898 0.17633 0.0
C498 C 0.19324 0.70178 0.17887 0.0
C499 C 0.20405 0.74568 0.1822 0.0
C500 C 0.17024 0.75682 0.18305 0.0
H501 H 0.21945 0.69323 0.17822 0.0
H502 H 0.89061 0.80056 0.1843 0.0
H503 H 0.14619 0.01623 0.492 0.0
H504 H 0.2025 0.0262 0.51005 0.0
H505 H 0.30292 0.07018 0.47629 0.0
H506 H 0.24708 0.06174 0.45812 0.0
H507 H 0.30425 0.00694 0.4952 0.0
H508 H 0.30462 0.14599 0.49853 0.0
H509 H 0.27062 0.19385 0.50118 0.0
H510 H 0.21942 0.13673 0.54335 0.0
H511 H 0.25256 0.08802 0.54086 0.0
H512 H 0.48135 0.06744 0.54555 0.0
H513 H 0.43643 0.0736 0.52597 0.0
H514 H 0.33148 0.04746 0.55685 0.0
H515 H 0.37676 0.04289 0.57651 0.0
H516 H 0.33721 0.10682 0.53807 0.0
H517 H 0.32992 0.96385 0.53435 0.0
H518 H 0.36145 0.91368 0.53216 0.0
H519 H 0.42214 0.97468 0.49125 0.0
H520 H 0.39148 0.02569 0.49331 0.0
C521 C 0.18035 0.02874 0.48837 0.0
C522 C 0.19195 0.03849 0.47354 0.0
C523 C 0.2125 0.03418 0.49873 0.0
C524 C 0.25703 0.04932 0.49455 0.0
C525 C 0.26874 0.05844 0.47976 0.0
C526 C 0.23664 0.05336 0.46938 0.0
C527 C 0.29107 0.05515 0.50565 0.0
C528 C 0.31208 0.02936 0.50445 0.0
C529 C 0.30051 0.08363 0.51788 0.0
C530 C 0.28077 0.11308 0.51945 0.0
C531 C 0.28581 0.14338 0.50832 0.0
C532 C 0.26674 0.17071 0.5098 0.0
C533 C 0.24279 0.16826 0.52241 0.0
C534 C 0.23795 0.13856 0.53358 0.0
C535 C 0.25691 0.11112 0.53215 0.0
C536 C 0.449 0.0637 0.54821 0.0
C537 C 0.43255 0.05432 0.5626 0.0
C538 C 0.42317 0.0669 0.53698 0.0
C539 C 0.38001 0.05994 0.53984 0.0
C540 C 0.36451 0.05275 0.55431 0.0
C541 C 0.39051 0.05008 0.56557 0.0
C542 C 0.35013 0.05818 0.52776 0.0
C543 C 0.32977 0.08468 0.52877 0.0
C544 C 0.34091 0.02996 0.51542 0.0
C545 C 0.35882 0.9989 0.51406 0.0
C546 C 0.35022 0.96674 0.52493 0.0
C547 C 0.36791 0.93815 0.52371 0.0
C548 C 0.3939 0.94109 0.51159 0.0
C549 C 0.40208 0.97251 0.50064 0.0
C550 C 0.38454 1.00125 0.50182 0.0
H551 H 0.40761 0.91896 0.51068 0.0
H552 H 0.22805 0.18945 0.52353 0.0
H553 H 0.10628 0.1987 0.81438 0.0
H554 H 0.15474 0.25623 0.8318 0.0
H555 H 0.27114 0.26368 0.81135 0.0
H556 H 0.22292 0.20379 0.79468 0.0
H557 H 0.28321 0.26719 0.8387 0.0
H558 H 0.23552 0.34462 0.80622 0.0
H559 H 0.18126 0.3584 0.79295 0.0
H560 H 0.12581 0.36998 0.8336 0.0
H561 H 0.1794 0.3557 0.84712 0.0
H562 H 0.44966 0.48642 0.86064 0.0
H563 H 0.39022 0.43097 0.84503 0.0
H564 H 0.29767 0.38826 0.88112 0.0
H565 H 0.35747 0.44298 0.89705 0.0
H566 H 0.27056 0.40262 0.84754 0.0
H567 H 0.32132 0.32279 0.8795 0.0
H568 H 0.38137 0.31504 0.89137 0.0
H569 H 0.43621 0.31348 0.84941 0.0
H570 H 0.37691 0.32212 0.83731 0.0
C571 C 0.14213 0.21202 0.81368 0.0
C572 C 0.16042 0.19637 0.80298 0.0
C573 C 0.16996 0.24558 0.82355 0.0
C574 C 0.21684 0.2651 0.82279 0.0
C575 C 0.23515 0.24944 0.81218 0.0
C576 C 0.20738 0.21543 0.80247 0.0
C577 C 0.24698 0.30126 0.83314 0.0
C578 C 0.28036 0.29679 0.8405 0.0
C579 C 0.24331 0.33994 0.83577 0.0
C580 C 0.21113 0.3486 0.82767 0.0
C581 C 0.21153 0.34977 0.81232 0.0
C582 C 0.18094 0.35773 0.80476 0.0
C583 C 0.15002 0.36493 0.81243 0.0
C584 C 0.14972 0.36432 0.82768 0.0
C585 C 0.18021 0.35633 0.8353 0.0
C586 C 0.41649 0.46596 0.86524 0.0
C587 C 0.40839 0.46905 0.88013 0.0
C588 C 0.38258 0.43423 0.85628 0.0
C589 C 0.33973 0.40554 0.86195 0.0
C590 C 0.33059 0.41026 0.87656 0.0
C591 C 0.36478 0.44147 0.88564 0.0
C592 C 0.30616 0.36809 0.85289 0.0
C593 C 0.27261 0.37255 0.84576 0.0
C594 C 0.30992 0.32969 0.85029 0.0
C595 C 0.34502 0.32361 0.85752 0.0
C596 C 0.34645 0.32124 0.87281 0.0
C597 C 0.38029 0.3166 0.87958 0.0
C598 C 0.41267 0.31389 0.87115 0.0
C599 C 0.41116 0.31566 0.85593 0.0
C600 C 0.37743 0.32041 0.84911 0.0
H601 H 0.43885 0.31031 0.8764 0.0
H602 H 0.12637 0.37109 0.80655 0.0
H603 H 0.81765 0.05687 0.71761 0.0
H604 H 0.76799 0.06655 0.7008 0.0
H605 H 0.84026 0.05499 0.66418 0.0
H606 H 0.89 0.04518 0.68092 0.0
H607 H 0.82092 0.12071 0.65957 0.0
H608 H 0.74006 0.96675 0.67471 0.0
H609 H 0.70726 0.90436 0.69236 0.0
H610 H 0.62431 0.95359 0.70982 0.0
H611 H 0.65711 0.01668 0.6924 0.0
H612 H 0.65246 0.06248 0.60465 0.0
H613 H 0.71028 0.06935 0.62165 0.0
H614 H 0.63487 0.07902 0.65766 0.0
H615 H 0.5766 0.0715 0.64078 0.0
H616 H 0.65674 0.01672 0.66286 0.0
H617 H 0.7359 0.16941 0.64652 0.0
H618 H 0.76869 0.23063 0.62845 0.0
H619 H 0.85443 0.18258 0.61266 0.0
H620 H 0.82172 0.12069 0.63051 0.0
C621 C 0.82288 0.05619 0.70598 0.0
C622 C 0.8577 0.04998 0.70063 0.0
C623 C 0.79452 0.06185 0.69638 0.0
C624 C 0.80002 0.06099 0.6812 0.0
C625 C 0.83539 0.05588 0.67583 0.0
C626 C 0.86387 0.05035 0.68543 0.0
C627 C 0.76818 0.06416 0.67095 0.0
C628 C 0.78504 0.0977 0.66018 0.0
C629 C 0.72128 0.03467 0.6719 0.0
C630 C 0.70139 0.99669 0.68235 0.0
C631 C 0.71508 0.96447 0.68239 0.0
C632 C 0.69645 0.92895 0.69234 0.0
C633 C 0.66381 0.92509 0.70223 0.0
C634 C 0.64965 0.95668 0.70217 0.0
C635 C 0.66823 0.9923 0.69225 0.0
C636 C 0.64858 0.06701 0.61615 0.0
C637 C 0.60968 0.06616 0.62134 0.0
C638 C 0.68178 0.07102 0.62587 0.0
C639 C 0.67701 0.07471 0.64097 0.0
C640 C 0.63924 0.07601 0.64608 0.0
C641 C 0.606 0.07189 0.63639 0.0
C642 C 0.70935 0.0735 0.6515 0.0
C643 C 0.69256 0.04005 0.66229 0.0
C644 C 0.75626 0.10293 0.6505 0.0
C645 C 0.77605 0.14016 0.63977 0.0
C646 C 0.76149 0.17168 0.63911 0.0
C647 C 0.78012 0.20654 0.62893 0.0
C648 C 0.81354 0.21043 0.61939 0.0
C649 C 0.8285 0.1795 0.62005 0.0
C650 C 0.80996 0.14455 0.63021 0.0
H651 H 0.82792 0.23745 0.61151 0.0
H652 H 0.64942 0.89756 0.70993 0.0
H653 H 0.7776 0.89015 0.03441 0.0
H654 H 0.72382 0.84217 0.01585 0.0
H655 H 0.79279 0.76701 0.01225 0.0
H656 H 0.84777 0.81599 0.03016 0.0
H657 H 0.77402 0.78397 0.98616 0.0
H658 H 0.69119 0.72817 0.03134 0.0
H659 H 0.65789 0.73444 0.05443 0.0
H660 H 0.57829 0.77756 0.03091 0.0
H661 H 0.61158 0.77206 0.00769 0.0
H662 H 0.62406 0.57559 0.95761 0.0
H663 H 0.66901 0.63654 0.97432 0.0
H664 H 0.58913 0.69767 0.96464 0.0
H665 H 0.54324 0.63595 0.94763 0.0
H666 H 0.60992 0.6977 0.99518 0.0
H667 H 0.6866 0.74276 0.94953 0.0
H668 H 0.71866 0.73269 0.92675 0.0
H669 H 0.8097 0.70753 0.95147 0.0
H670 H 0.77772 0.71675 0.97442 0.0
C671 C 0.78155 0.86363 0.0296 0.0
C672 C 0.81707 0.85694 0.03389 0.0
C673 C 0.75044 0.8359 0.01907 0.0
C674 C 0.7539 0.80061 0.01272 0.0
C675 C 0.78929 0.79393 0.01698 0.0
C676 C 0.82048 0.82172 0.0274 0.0
C677 C 0.72132 0.77072 1.00149 0.0
C678 C 0.73818 0.76499 0.9882 0.0
C679 C 0.67431 0.74702 1.00386 0.0
C680 C 0.65426 0.75023 0.01781 0.0
C681 C 0.66685 0.73933 0.03111 0.0
C682 C 0.64793 0.74268 0.04421 0.0
C683 C 0.6161 0.75653 0.04414 0.0
C684 C 0.60302 0.76693 0.03095 0.0
C685 C 0.62188 0.76368 0.01782 0.0
C686 C 0.61568 0.60177 0.95899 0.0
C687 C 0.58017 0.60101 0.95115 0.0
C688 C 0.64159 0.63672 0.96857 0.0
C689 C 0.63288 0.67198 0.97056 0.0
C690 C 0.59652 0.67082 0.96318 0.0
C691 C 0.57042 0.63564 0.95347 0.0
C692 C 0.66295 0.71005 0.98016 0.0
C693 C 0.64569 0.71736 0.99309 0.0
C694 C 0.70969 0.73512 0.97751 0.0
C695 C 0.72956 0.73023 0.96371 0.0
C696 C 0.71327 0.73482 0.95012 0.0
C697 C 0.73146 0.72928 0.93717 0.0
C698 C 0.76615 0.71941 0.93766 0.0
C699 C 0.78283 0.71518 0.9511 0.0
C700 C 0.76472 0.72063 0.96409 0.0
H701 H 0.78015 0.71509 0.92762 0.0
H702 H 0.60149 0.7591 0.0543 0.0
H703 H 0.88943 0.76819 0.36893 0.0
H704 H 0.8804 0.71316 0.35043 0.0
H705 H 0.02421 0.7751 0.3468 0.0
H706 H 0.03355 0.83162 0.36465 0.0
H707 H 0.99008 0.75858 0.32094 0.0
H708 H 0.95766 0.67293 0.36499 0.0
H709 H 0.91915 0.64072 0.38831 0.0
H710 H 0.79301 0.56921 0.36589 0.0
H711 H 0.8307 0.60148 0.34245 0.0
H712 H 0.95927 0.53214 0.29551 0.0
H713 H 0.95455 0.57698 0.31538 0.0
H714 H 0.9115 0.64327 0.28492 0.0
H715 H 0.91717 0.59937 0.26493 0.0
H716 H 0.895 0.59428 0.32813 0.0
H717 H 0.96402 0.75392 0.29264 0.0
H718 H 0.00918 0.78557 0.27032 0.0
H719 H 0.07443 0.70885 0.27773 0.0
H720 H 0.03014 0.67727 0.30019 0.0
C721 C 0.9192 0.77037 0.36413 0.0
C722 C 0.96227 0.80454 0.36835 0.0
C723 C 0.91395 0.73845 0.35366 0.0
C724 C 0.95161 0.73956 0.34729 0.0
C725 C 0.99458 0.77339 0.35155 0.0
C726 C 0.99987 0.80548 0.36192 0.0
C727 C 0.94648 0.70648 0.33586 0.0
C728 C 0.96916 0.72269 0.32255 0.0
C729 C 0.91967 0.6595 0.33792 0.0
C730 C 0.89695 0.63997 0.35199 0.0
C731 C 0.92166 0.6506 0.36505 0.0
C732 C 0.89999 0.63229 0.37829 0.0
C733 C 0.85365 0.60303 0.37859 0.0
C734 C 0.82889 0.59193 0.36564 0.0
C735 C 0.8504 0.61019 0.35238 0.0
C736 C 0.9479 0.55559 0.29306 0.0
C737 C 0.93925 0.56262 0.27857 0.0
C738 C 0.94519 0.58123 0.30446 0.0
C739 C 0.93366 0.61425 0.30161 0.0
C740 C 0.92143 0.61869 0.28734 0.0
C741 C 0.9245 0.59338 0.27593 0.0
C742 C 0.93826 0.64654 0.31324 0.0
C743 C 0.91558 0.63021 0.32654 0.0
C744 C 0.96597 0.69345 0.31134 0.0
C745 C 0.99341 0.7129 0.298 0.0
C746 C 0.98814 0.74397 0.28953 0.0
C747 C 0.01357 0.76187 0.27685 0.0
C748 C 0.04454 0.7491 0.27258 0.0
C749 C 0.05032 0.71859 0.28102 0.0
C750 C 0.02505 0.70066 0.29372 0.0
H751 H 0.06412 0.76293 0.26275 0.0
H752 H 0.83693 0.58889 0.38884 0.0
H753 H 0.1067 0.88763 0.69258 0.0
H754 H 0.15262 0.8785 0.67411 0.0
H755 H 0.25925 0.014 0.6819 0.0
H756 H 0.21268 0.02425 0.69978 0.0
H757 H 0.25107 0.99989 0.65405 0.0
H758 H 0.26161 0.91936 0.69499 0.0
H759 H 0.23376 0.86356 0.71485 0.0
H760 H 0.16834 0.75723 0.68355 0.0
H761 H 0.19532 0.81249 0.6635 0.0
H762 H 0.43618 0.9867 0.62627 0.0
H763 H 0.38263 0.98227 0.64456 0.0
H764 H 0.27387 0.87871 0.61968 0.0
H765 H 0.32731 0.88367 0.60095 0.0
H766 H 0.27996 0.87244 0.65503 0.0
H767 H 0.27177 0.95809 0.61401 0.0
H768 H 0.30706 0.01649 0.59509 0.0
H769 H 0.37508 0.11628 0.62822 0.0
H770 H 0.34074 0.05823 0.64733 0.0
C771 C 0.13975 0.91569 0.69029 0.0
C772 C 0.15587 0.95669 0.69776 0.0
C773 C 0.16625 0.91021 0.67982 0.0
C774 C 0.20975 0.94535 0.6767 0.0
C775 C 0.22589 0.98629 0.68412 0.0
C776 C 0.19932 0.99192 0.6945 0.0
C777 C 0.23824 0.93992 0.66554 0.0
C778 C 0.25744 0.97208 0.65438 0.0
C779 C 0.24636 0.90339 0.66574 0.0
C780 C 0.23005 0.87009 0.67776 0.0
C781 C 0.24096 0.8841 0.69235 0.0
C782 C 0.2254 0.85257 0.70364 0.0
C783 C 0.19918 0.80689 0.70047 0.0
C784 C 0.18858 0.79264 0.68599 0.0
C785 C 0.20402 0.82404 0.67466 0.0
C786 C 0.40099 0.96237 0.62473 0.0
C787 C 0.38603 0.93564 0.61207 0.0
C788 C 0.37045 0.95996 0.63523 0.0
C789 C 0.32441 0.9303 0.63343 0.0
C790 C 0.30937 0.90175 0.62124 0.0
C791 C 0.33992 0.9047 0.61056 0.0
C792 C 0.29223 0.9322 0.64372 0.0
C793 C 0.27278 0.89971 0.6547 0.0
C794 C 0.28427 0.96865 0.64351 0.0
C795 C 0.30407 0.00376 0.63208 0.0
C796 C 0.29456 0.99242 0.61725 0.0
C797 C 0.31434 0.02546 0.60649 0.0
C798 C 0.34342 0.07005 0.61044 0.0
C799 C 0.3526 0.08171 0.62517 0.0
C800 C 0.33296 0.04876 0.63597 0.0
H801 H 0.35875 0.09557 0.6021 0.0
H802 H 0.18718 0.78253 0.70922 0.0
H803 H 0.24401 0.19937 0.04462 0.0
H804 H 0.29944 0.24533 0.02618 0.0
H805 H 0.21684 0.15294 0.99262 0.0
H806 H 0.16196 0.106 0.01105 0.0
H807 H 0.30394 0.18035 0.98788 0.0
H808 H 0.21658 0.25024 0.99843 0.0
H809 H 0.18254 0.28346 0.01408 0.0
H810 H 0.31339 0.38507 0.02825 0.0
H811 H 0.3482 0.35204 0.01282 0.0
H812 H 0.38242 0.32473 0.92556 0.0
H813 H 0.34064 0.27301 0.94538 0.0
H814 H 0.43222 0.36811 0.97678 0.0
H815 H 0.47426 0.42007 0.95703 0.0
H816 H 0.3447 0.3399 0.98341 0.0
H817 H 0.43188 0.27179 0.97098 0.0
H818 H 0.46417 0.23834 0.95468 0.0
H819 H 0.33188 0.13329 0.94321 0.0
H820 H 0.29874 0.16648 0.95929 0.0
C821 C 0.23792 0.18841 0.03335 0.0
C822 C 0.1983 0.14909 0.02932 0.0
C823 C 0.26949 0.21496 0.0228 0.0
C824 C 0.26205 0.20295 0.00797 0.0
C825 C 0.22326 0.16301 1.00397 0.0
C826 C 0.19169 0.13643 0.01451 0.0
C827 C 0.29383 0.23274 0.99658 0.0
C828 C 0.31256 0.21514 0.98682 0.0
C829 C 0.30579 0.27839 0.99533 0.0
C830 C 0.28497 0.29836 1.0046 0.0
C831 C 0.23808 0.27944 1.00497 0.0
C832 C 0.21865 0.29827 0.01379 0.0
C833 C 0.24578 0.33627 0.02219 0.0
C834 C 0.29242 0.35558 0.02176 0.0
C835 C 0.31202 0.33684 0.01298 0.0
C836 C 0.39424 0.33434 0.93665 0.0
C837 C 0.43162 0.37667 0.93969 0.0
C838 C 0.37033 0.30465 0.94799 0.0
C839 C 0.38327 0.31668 0.96258 0.0
C840 C 0.42159 0.35816 0.9656 0.0
C841 C 0.44573 0.38773 0.95427 0.0
C842 C 0.35483 0.28755 0.97469 0.0
C843 C 0.33651 0.30525 0.98455 0.0
C844 C 0.34303 0.24197 0.97593 0.0
C845 C 0.36282 0.22188 0.96625 0.0
C846 C 0.40965 0.24178 0.96489 0.0
C847 C 0.42812 0.22281 0.9557 0.0
C848 C 0.4001 0.18377 0.94788 0.0
C849 C 0.35355 0.16356 0.94926 0.0
C850 C 0.3349 0.18241 0.95842 0.0
H851 H 0.41446 0.16914 0.94078 0.0
H852 H 0.23068 0.35081 0.029 0.0
H853 H 0.1221 0.24203 0.37288 0.0
H854 H 0.13114 0.2989 0.355 0.0
H855 H 0.00383 0.20515 0.33571 0.0
H856 H 0.99393 0.14875 0.35365 0.0
H857 H 0.06947 0.24874 0.31506 0.0
H858 H 0.01321 0.28685 0.35816 0.0
H859 H 0.0159 0.30827 0.38399 0.0
H860 H 0.14342 0.42691 0.37683 0.0
H861 H 0.14173 0.40583 0.35098 0.0
H862 H 0.9776 0.35857 0.27795 0.0
H863 H 0.99859 0.31758 0.29465 0.0
H864 H 0.12191 0.43912 0.30473 0.0
H865 H 0.1007 0.4811 0.28781 0.0
H866 H 0.07742 0.39139 0.32954 0.0
H867 H 0.12865 0.35938 0.28564 0.0
H868 H 0.12685 0.33825 0.25984 0.0
H869 H 0.01107 0.20957 0.26824 0.0
H870 H 0.01207 0.22999 0.2941 0.0
C871 C 0.09581 0.23361 0.36492 0.0
C872 C 0.05733 0.19055 0.36472 0.0
C873 C 0.10116 0.26614 0.35466 0.0
C874 C 0.06817 0.25629 0.344 0.0
C875 C 0.02993 0.21341 0.34375 0.0
C876 C 0.02444 0.18106 0.354 0.0
C877 C 0.07273 0.29032 0.3331 0.0
C878 C 0.07113 0.2799 0.31822 0.0
C879 C 0.07668 0.33181 0.33719 0.0
C880 C 0.07763 0.34448 0.3527 0.0
C881 C 0.04201 0.31729 0.36213 0.0
C882 C 0.04331 0.32941 0.37677 0.0
C883 C 0.07988 0.36885 0.38206 0.0
C884 C 0.11516 0.39632 0.37272 0.0
C885 C 0.11405 0.38432 0.35808 0.0
C886 C 0.00941 0.3768 0.28361 0.0
C887 C 0.03744 0.42323 0.28156 0.0
C888 C 0.02151 0.35312 0.29311 0.0
C889 C 0.06206 0.37507 0.30084 0.0
C890 C 0.09055 0.42146 0.2988 0.0
C891 C 0.07851 0.44534 0.28911 0.0
C892 C 0.0726 0.34904 0.3115 0.0
C893 C 0.07693 0.36082 0.32633 0.0
C894 C 0.07139 0.30882 0.30738 0.0
C895 C 0.07037 0.29632 0.29181 0.0
C896 C 0.10263 0.32668 0.28197 0.0
C897 C 0.10179 0.31479 0.26733 0.0
C898 C 0.06882 0.27261 0.26239 0.0
C899 C 0.03663 0.24221 0.27209 0.0
C900 C 0.03741 0.25387 0.28675 0.0
H901 H 0.06825 0.26345 0.25106 0.0
H902 H 0.08082 0.37818 0.39339 0.0
loop_
_geom_bond_atom_site_label_1
_geom_bond_atom_site_label_2
_geom_bond_distance
_geom_bond_site_symmetry_2
_ccdc_geom_bond_type
Li0 N17 1.990 . S
Li0 O60 1.956 . S
Li0 O61 1.970 1_455 S
Li0 O62 1.961 1_545 S
Li1 N25 1.990 . S
Li1 O60 1.970 1_655 S
Li1 O61 1.956 . S
Li1 O63 1.961 1_545 S
Li2 N47 1.990 . S
Li2 O60 1.961 1_565 S
Li2 O62 1.956 . S
Li2 O63 1.970 1_455 S
Li3 N53 1.990 . S
Li3 O61 1.961 1_565 S
Li3 O62 1.970 1_655 S
Li3 O63 1.956 . S
C4 C6 1.348 . S
C4 C7 1.356 . S
C4 O60 1.325 . S
N5 C8 1.314 . S
N5 C9 1.279 . S
C6 C4 1.348 . S
C6 C8 1.353 . S
C6 H64 0.929 . S
C7 C4 1.356 . S
C7 C9 1.358 . S
C7 H65 0.930 . S
C8 N5 1.314 . S
C8 C6 1.353 . S
C8 H66 0.930 . S
C9 N5 1.279 . S
C9 C7 1.358 . S
C9 H67 0.930 . S
C10 C13 1.348 1_655 S
C10 C14 1.356 . S
C10 O61 1.325 . S
C11 N12 1.279 . S
C11 C14 1.358 . S
C11 H68 0.930 . S
N12 C11 1.279 . S
N12 C15 1.314 . S
C13 C10 1.348 1_455 S
C13 C15 1.353 1_455 S
C13 H69 0.929 . S
C14 C10 1.356 . S
C14 C11 1.358 . S
C14 H70 0.930 . S
C15 N12 1.314 . S
C15 C13 1.353 1_655 S
C15 H71 0.930 1_655 S
C16 N17 1.314 . S
C16 C21 1.353 . S
C16 H22 0.930 . S
N17 Li0 1.990 . S
N17 C16 1.314 . S
N17 C19 1.279 . S
C18 C19 1.358 . S
C18 C20 1.356 . S
C18 H72 0.930 . S
C19 N17 1.279 . S
C19 C18 1.358 . S
C19 H23 0.930 . S
C20 C18 1.356 . S
C20 C21 1.348 . S
C21 C16 1.353 . S
C21 C20 1.348 . S
C21 H73 0.929 . S
H22 C16 0.930 . S
H23 C19 0.930 . S
C24 N25 1.314 . S
C24 C26 1.353 . S
C24 H30 0.930 . S
N25 Li1 1.990 . S
N25 C24 1.314 . S
N25 C28 1.279 . S
C26 C24 1.353 . S
C26 C29 1.348 . S
C26 H74 0.929 . S
C27 C28 1.358 . S
C27 C29 1.356 . S
C27 H75 0.930 . S
C28 N25 1.279 . S
C28 C27 1.358 . S
C28 H31 0.930 . S
C29 C26 1.348 . S
C29 C27 1.356 . S
H30 C24 0.930 . S
H31 C28 0.930 . S
C32 C34 1.348 1_455 S
C32 C35 1.356 . S
C32 O62 1.325 . S
N33 C36 1.314 . S
N33 C37 1.279 . S
C34 C32 1.348 1_655 S
C34 C36 1.353 1_655 S
C34 H76 0.929 . S
C35 C32 1.356 . S
C35 C37 1.358 . S
C35 H77 0.930 . S
C36 N33 1.314 . S
C36 C34 1.353 1_455 S
C36 H78 0.930 1_455 S
C37 N33 1.279 . S
C37 C35 1.358 . S
C37 H79 0.930 . S
C38 C39 1.348 . S
C38 C40 1.356 . S
C38 O63 1.325 . S
C39 C38 1.348 . S
C39 C41 1.353 . S
C39 H80 0.929 . S
C40 C38 1.356 . S
C40 C42 1.358 . S
C40 H81 0.930 . S
C41 C39 1.353 . S
C41 N43 1.314 . S
C41 H82 0.930 . S
C42 C40 1.358 . S
C42 N43 1.279 . S
C42 H83 0.930 . S
N43 C41 1.314 . S
N43 C42 1.279 . S
C44 C46 1.353 . S
C44 N47 1.314 . S
C44 H50 0.930 . S
C45 N47 1.279 . S
C45 C48 1.358 . S
C45 H51 0.930 . S
C46 C44 1.353 . S
C46 C49 1.348 . S
C46 H84 0.929 . S
N47 Li2 1.990 . S
N47 C44 1.314 . S
N47 C45 1.279 . S
C48 C45 1.358 . S
C48 C49 1.356 . S
C48 H85 0.930 . S
C49 C46 1.348 . S
C49 C48 1.356 . S
H50 C44 0.930 . S
H51 C45 0.930 . S
C52 N53 1.314 . S
C52 C54 1.353 . S
C52 H58 0.930 . S
N53 Li3 1.990 . S
N53 C52 1.314 . S
N53 C56 1.279 . S
C54 C52 1.353 . S
C54 C57 1.348 . S
C54 H86 0.929 . S
C55 C56 1.358 . S
C55 C57 1.356 . S
C55 H87 0.930 . S
C56 N53 1.279 . S
C56 C55 1.358 . S
C56 H59 0.930 . S
C57 C54 1.348 . S
C57 C55 1.356 . S
H58 C52 0.930 . S
H59 C56 0.930 . S
O60 Li0 1.956 . S
O60 Li1 1.970 1_455 S
O60 Li2 1.961 1_545 S
O60 C4 1.325 . S
O61 Li0 1.970 1_655 S
O61 Li1 1.956 . S
O61 Li3 1.961 1_545 S
O61 C10 1.325 . S
O62 Li0 1.961 1_565 S
O62 Li2 1.956 . S
O62 Li3 1.970 1_455 S
O62 C32 1.325 . S
O63 Li1 1.961 1_565 S
O63 Li2 1.970 1_655 S
O63 Li3 1.956 . S
O63 C38 1.325 . S
H64 C6 0.929 . S
H65 C7 0.930 . S
H66 C8 0.930 . S
H67 C9 0.930 . S
H68 C11 0.930 . S
H69 C13 0.929 . S
H70 C14 0.930 . S
H71 C15 0.930 1_455 S
H72 C18 0.930 . S
H73 C21 0.929 . S
H74 C26 0.929 . S
H75 C27 0.930 . S
H76 C34 0.929 . S
H77 C35 0.930 . S
H78 C36 0.930 1_655 S
H79 C37 0.930 . S
H80 C39 0.929 . S
H81 C40 0.930 . S
H82 C41 0.930 . S
H83 C42 0.930 . S
H84 C46 0.929 . S
H85 C48 0.930 . S
H86 C54 0.929 . S
H87 C55 0.930 . S
Li88 N105 1.990 . S
Li88 O148 1.956 . S
Li88 O149 1.970 1_665 S
Li88 O150 1.961 . S
Li89 N113 1.990 . S
Li89 O148 1.970 1_445 S
Li89 O149 1.956 . S
Li89 O151 1.961 . S
Li90 N135 1.990 . S
Li90 O148 1.961 . S
Li90 O150 1.956 . S
Li90 O151 1.970 1_665 S
Li91 N141 1.990 . S
Li91 O149 1.961 . S
Li91 O150 1.970 1_445 S
Li91 O151 1.956 . S
C92 C94 1.348 1_655 S
C92 C95 1.356 . S
C92 O148 1.325 . S
N93 C96 1.314 . S
N93 C97 1.279 . S
C94 C92 1.348 1_455 S
C94 C96 1.353 1_455 S
C94 H152 0.929 . S
C95 C92 1.356 . S
C95 C97 1.358 . S
C95 H153 0.930 . S
C96 N93 1.314 . S
C96 C94 1.353 1_655 S
C96 H154 0.930 1_655 S
C97 N93 1.279 . S
C97 C95 1.358 . S
C97 H155 0.930 . S
C98 C101 1.348 1_545 S
C98 C102 1.356 . S
C98 O149 1.325 . S
C99 N100 1.279 . S
C99 C102 1.358 . S
C99 H156 0.930 . S
N100 C99 1.279 . S
N100 C103 1.314 . S
C101 C98 1.348 1_565 S
C101 C103 1.353 1_565 S
C101 H157 0.929 . S
C102 C98 1.356 . S
C102 C99 1.358 . S
C102 H158 0.930 . S
C103 N100 1.314 . S
C103 C101 1.353 1_545 S
C103 H159 0.930 1_545 S
C104 N105 1.314 . S
C104 C109 1.353 . S
C104 H110 0.930 . S
N105 Li88 1.990 . S
N105 C104 1.314 . S
N105 C107 1.279 . S
C106 C107 1.358 . S
C106 C108 1.356 . S
C106 H160 0.930 . S
C107 N105 1.279 . S
C107 C106 1.358 . S
C107 H111 0.930 . S
C108 C106 1.356 . S
C108 C109 1.348 . S
C109 C104 1.353 . S
C109 C108 1.348 . S
C109 H161 0.929 . S
H110 C104 0.930 . S
H111 C107 0.930 . S
C112 N113 1.314 . S
C112 C114 1.353 . S
C112 H118 0.930 . S
N113 Li89 1.990 . S
N113 C112 1.314 . S
N113 C116 1.279 . S
C114 C112 1.353 . S
C114 C117 1.348 . S
C114 H162 0.929 . S
C115 C116 1.358 . S
C115 C117 1.356 . S
C115 H163 0.930 . S
C116 N113 1.279 . S
C116 C115 1.358 . S
C116 H119 0.930 . S
C117 C114 1.348 . S
C117 C115 1.356 . S
H118 C112 0.930 . S
H119 C116 0.930 . S
C120 C122 1.348 1_565 S
C120 C123 1.356 . S
C120 O150 1.325 . S
N121 C124 1.314 . S
N121 C125 1.279 . S
C122 C120 1.348 1_545 S
C122 C124 1.353 1_545 S
C122 H164 0.929 . S
C123 C120 1.356 . S
C123 C125 1.358 . S
C123 H165 0.930 . S
C124 N121 1.314 . S
C124 C122 1.353 1_565 S
C124 H166 0.930 1_565 S
C125 N121 1.279 . S
C125 C123 1.358 . S
C125 H167 0.930 . S
C126 C127 1.348 1_455 S
C126 C128 1.356 . S
C126 O151 1.325 . S
C127 C126 1.348 1_655 S
C127 C129 1.353 1_655 S
C127 H168 0.929 . S
C128 C126 1.356 . S
C128 C130 1.358 . S
C128 H169 0.930 . S
C129 C127 1.353 1_455 S
C129 N131 1.314 . S
C129 H170 0.930 1_455 S
C130 C128 1.358 . S
C130 N131 1.279 . S
C130 H171 0.930 . S
N131 C129 1.314 . S
N131 C130 1.279 . S
C132 C134 1.353 . S
C132 N135 1.314 . S
C132 H138 0.930 . S
C133 N135 1.279 . S
C133 C136 1.358 . S
C133 H139 0.930 . S
C134 C132 1.353 . S
C134 C137 1.348 . S
C134 H172 0.929 . S
N135 Li90 1.990 . S
N135 C132 1.314 . S
N135 C133 1.279 . S
C136 C133 1.358 . S
C136 C137 1.356 . S
C136 H173 0.930 . S
C137 C134 1.348 . S
C137 C136 1.356 . S
H138 C132 0.930 . S
H139 C133 0.930 . S
C140 N141 1.314 . S
C140 C142 1.353 . S
C140 H146 0.930 . S
N141 Li91 1.990 . S
N141 C140 1.314 . S
N141 C144 1.279 . S
C142 C140 1.353 . S
C142 C145 1.348 . S
C142 H174 0.929 . S
C143 C144 1.358 . S
C143 C145 1.356 . S
C143 H175 0.930 . S
C144 N141 1.279 . S
C144 C143 1.358 . S
C144 H147 0.930 . S
C145 C142 1.348 . S
C145 C143 1.356 . S
H146 C140 0.930 . S
H147 C144 0.930 . S
O148 Li88 1.956 . S
O148 Li89 1.970 1_665 S
O148 Li90 1.961 . S
O148 C92 1.325 . S
O149 Li88 1.970 1_445 S
O149 Li89 1.956 . S
O149 Li91 1.961 . S
O149 C98 1.325 . S
O150 Li88 1.961 . S
O150 Li90 1.956 . S
O150 Li91 1.970 1_665 S
O150 C120 1.325 . S
O151 Li89 1.961 . S
O151 Li90 1.970 1_445 S
O151 Li91 1.956 . S
O151 C126 1.325 . S
H152 C94 0.929 . S
H153 C95 0.930 . S
H154 C96 0.930 1_455 S
H155 C97 0.930 . S
H156 C99 0.930 . S
H157 C101 0.929 . S
H158 C102 0.930 . S
H159 C103 0.930 1_565 S
H160 C106 0.930 . S
H161 C109 0.929 . S
H162 C114 0.929 . S
H163 C115 0.930 . S
H164 C122 0.929 . S
H165 C123 0.930 . S
H166 C124 0.930 1_545 S
H167 C125 0.930 . S
H168 C127 0.929 . S
H169 C128 0.930 . S
H170 C129 0.930 1_655 S
H171 C130 0.930 . S
H172 C134 0.929 . S
H173 C136 0.930 . S
H174 C142 0.929 . S
H175 C143 0.930 . S
Li176 N193 1.990 . S
Li176 O236 1.956 . S
Li176 O237 1.970 1_565 S
Li176 O238 1.961 1_455 S
Li177 N201 1.990 . S
Li177 O236 1.970 1_545 S
Li177 O237 1.956 . S
Li177 O239 1.961 1_455 S
Li178 N223 1.990 . S
Li178 O236 1.961 1_655 S
Li178 O238 1.956 . S
Li178 O239 1.970 1_565 S
Li179 N229 1.990 . S
Li179 O237 1.961 1_655 S
Li179 O238 1.970 1_545 S
Li179 O239 1.956 . S
C180 C182 1.348 1_565 S
C180 C183 1.356 . S
C180 O236 1.325 . S
N181 C184 1.314 . S
N181 C185 1.279 . S
C182 C180 1.348 1_545 S
C182 C184 1.353 1_545 S
C182 H240 0.929 . S
C183 C180 1.356 . S
C183 C185 1.358 . S
C183 H241 0.930 . S
C184 N181 1.314 . S
C184 C182 1.353 1_565 S
C184 H242 0.930 1_565 S
C185 N181 1.279 . S
C185 C183 1.358 . S
C185 H243 0.930 . S
C186 C189 1.348 . S
C186 C190 1.356 . S
C186 O237 1.325 . S
C187 N188 1.279 . S
C187 C190 1.358 . S
C187 H244 0.930 . S
N188 C187 1.279 . S
N188 C191 1.314 . S
C189 C186 1.348 . S
C189 C191 1.353 . S
C189 H245 0.929 . S
C190 C186 1.356 . S
C190 C187 1.358 . S
C190 H246 0.930 . S
C191 N188 1.314 . S
C191 C189 1.353 . S
C191 H247 0.930 . S
C192 N193 1.314 . S
C192 C197 1.353 . S
C192 H198 0.930 . S
N193 Li176 1.990 . S
N193 C192 1.314 . S
N193 C195 1.279 . S
C194 C195 1.358 . S
C194 C196 1.356 . S
C194 H248 0.930 . S
C195 N193 1.279 . S
C195 C194 1.358 . S
C195 H199 0.930 . S
C196 C194 1.356 . S
C196 C197 1.348 . S
C197 C192 1.353 . S
C197 C196 1.348 . S
C197 H249 0.929 . S
H198 C192 0.930 . S
H199 C195 0.930 . S
C200 N201 1.314 . S
C200 C202 1.353 . S
C200 H206 0.930 . S
N201 Li177 1.990 . S
N201 C200 1.314 . S
N201 C204 1.279 . S
C202 C200 1.353 . S
C202 C205 1.348 . S
C202 H250 0.929 . S
C203 C204 1.358 . S
C203 C205 1.356 . S
C203 H251 0.930 . S
C204 N201 1.279 . S
C204 C203 1.358 . S
C204 H207 0.930 . S
C205 C202 1.348 . S
C205 C203 1.356 . S
H206 C200 0.930 . S
H207 C204 0.930 . S
C208 C210 1.348 . S
C208 C211 1.356 . S
C208 O238 1.325 . S
N209 C212 1.314 . S
N209 C213 1.279 . S
C210 C208 1.348 . S
C210 C212 1.353 . S
C210 H252 0.929 . S
C211 C208 1.356 . S
C211 C213 1.358 . S
C211 H253 0.930 . S
C212 N209 1.314 . S
C212 C210 1.353 . S
C212 H254 0.930 . S
C213 N209 1.279 . S
C213 C211 1.358 . S
C213 H255 0.930 . S
C214 C215 1.348 1_545 S
C214 C216 1.356 . S
C214 O239 1.325 . S
C215 C214 1.348 1_565 S
C215 C217 1.353 1_565 S
C215 H256 0.929 . S
C216 C214 1.356 . S
C216 C218 1.358 . S
C216 H257 0.930 . S
C217 C215 1.353 1_545 S
C217 N219 1.314 . S
C217 H258 0.930 1_545 S
C218 C216 1.358 . S
C218 N219 1.279 . S
C218 H259 0.930 . S
N219 C217 1.314 . S
N219 C218 1.279 . S
C220 C222 1.353 . S
C220 N223 1.314 . S
C220 H226 0.930 . S
C221 N223 1.279 . S
C221 C224 1.358 . S
C221 H227 0.930 . S
C222 C220 1.353 . S
C222 C225 1.348 . S
C222 H260 0.929 . S
N223 Li178 1.990 . S
N223 C220 1.314 . S
N223 C221 1.279 . S
C224 C221 1.358 . S
C224 C225 1.356 . S
C224 H261 0.930 . S
C225 C222 1.348 . S
C225 C224 1.356 . S
H226 C220 0.930 . S
H227 C221 0.930 . S
C228 N229 1.314 . S
C228 C230 1.353 . S
C228 H234 0.930 . S
N229 Li179 1.990 . S
N229 C228 1.314 . S
N229 C232 1.279 . S
C230 C228 1.353 . S
C230 C233 1.348 . S
C230 H262 0.929 . S
C231 C232 1.358 . S
C231 C233 1.356 . S
C231 H263 0.930 . S
C232 N229 1.279 . S
C232 C231 1.358 . S
C232 H235 0.930 . S
C233 C230 1.348 . S
C233 C231 1.356 . S
H234 C228 0.930 . S
H235 C232 0.930 . S
O236 Li176 1.956 . S
O236 Li177 1.970 1_565 S
O236 Li178 1.961 1_455 S
O236 C180 1.325 . S
O237 Li176 1.970 1_545 S
O237 Li177 1.956 . S
O237 Li179 1.961 1_455 S
O237 C186 1.325 . S
O238 Li176 1.961 1_655 S
O238 Li178 1.956 . S
O238 Li179 1.970 1_565 S
O238 C208 1.325 . S
O239 Li177 1.961 1_655 S
O239 Li178 1.970 1_545 S
O239 Li179 1.956 . S
O239 C214 1.325 . S
H240 C182 0.929 . S
H241 C183 0.930 . S
H242 C184 0.930 1_545 S
H243 C185 0.930 . S
H244 C187 0.930 . S
H245 C189 0.929 . S
H246 C190 0.930 . S
H247 C191 0.930 . S
H248 C194 0.930 . S
H249 C197 0.929 . S
H250 C202 0.929 . S
H251 C203 0.930 . S
H252 C210 0.929 . S
H253 C211 0.930 . S
H254 C212 0.930 . S
H255 C213 0.930 . S
H256 C215 0.929 . S
H257 C216 0.930 . S
H258 C217 0.930 1_565 S
H259 C218 0.930 . S
H260 C222 0.929 . S
H261 C224 0.930 . S
H262 C230 0.929 . S
H263 C231 0.930 . S
Mg264 O271 2.141 . S
Mg264 O272 2.048 . S
Mg264 O273 2.048 . S
Mg264 O276 2.141 . S
C265 O266 1.313 . S
C265 O272 1.195 1_655 S
O266 C265 1.313 . S
C267 O268 1.245 . S
C267 O276 1.289 1_655 S
O268 C267 1.245 . S
C269 O270 1.245 . S
C269 O271 1.289 1_655 S
O270 C269 1.245 . S
O271 Mg264 2.141 . S
O271 C269 1.289 1_455 S
O272 Mg264 2.048 . S
O272 C265 1.195 1_455 S
O273 Mg264 2.048 . S
O273 C274 1.195 1_455 S
C274 O273 1.195 1_655 S
C274 O275 1.313 . S
O275 C274 1.313 . S
O276 Mg264 2.141 . S
O276 C267 1.289 1_455 S
Mg277 O284 2.141 . S
Mg277 O285 2.048 . S
Mg277 O286 2.048 . S
Mg277 O289 2.141 . S
C278 O279 1.313 . S
C278 O285 1.195 1_565 S
O279 C278 1.313 . S
C280 O281 1.245 . S
C280 O289 1.289 1_565 S
O281 C280 1.245 . S
C282 O283 1.245 . S
C282 O284 1.289 1_565 S
O283 C282 1.245 . S
O284 Mg277 2.141 . S
O284 C282 1.289 1_545 S
O285 Mg277 2.048 . S
O285 C278 1.195 1_545 S
O286 Mg277 2.048 . S
O286 C287 1.195 1_545 S
C287 O286 1.195 1_565 S
C287 O288 1.313 . S
O288 C287 1.313 . S
O289 Mg277 2.141 . S
O289 C280 1.289 1_545 S
Mg290 O297 2.141 . S
Mg290 O298 2.048 . S
Mg290 O299 2.048 . S
Mg290 O302 2.141 . S
C291 O292 1.313 . S
C291 O298 1.195 . S
O292 C291 1.313 . S
C293 O294 1.245 . S
C293 O302 1.289 . S
O294 C293 1.245 . S
C295 O296 1.245 . S
C295 O297 1.289 . S
O296 C295 1.245 . S
O297 Mg290 2.141 . S
O297 C295 1.289 . S
O298 Mg290 2.048 . S
O298 C291 1.195 . S
O299 Mg290 2.048 . S
O299 C300 1.195 . S
C300 O299 1.195 . S
C300 O301 1.313 . S
O301 C300 1.313 . S
O302 Mg290 2.141 . S
O302 C293 1.289 . S
H303 C321 0.951 . S
H304 C323 0.951 . S
H305 C325 0.950 . S
H306 C326 0.950 1_455 S
H307 C328 0.950 1_455 S
H308 C331 0.950 . S
H309 C332 0.950 . S
H310 C334 0.950 . S
H311 C335 0.950 . S
H312 C336 0.951 . S
H313 C338 0.951 . S
H314 C340 0.950 . S
H315 C341 0.950 . S
H316 C343 0.950 . S
H317 C346 0.950 1_655 S
H318 C347 0.950 . S
H319 C349 0.950 . S
H320 C350 0.950 . S
C321 H303 0.951 . S
C321 C322 1.366 . S
C321 C323 1.388 . S
C322 C321 1.366 . S
C322 C326 1.385 . S
C323 H304 0.951 . S
C323 C321 1.388 . S
C323 C324 1.366 . S
C324 C323 1.366 . S
C324 C325 1.414 1_655 S
C324 C327 1.499 . S
C325 H305 0.950 . S
C325 C324 1.414 1_455 S
C325 C326 1.374 1_455 S
C326 H306 0.950 1_655 S
C326 C322 1.385 . S
C326 C325 1.374 1_655 S
C327 C324 1.499 . S
C327 C328 1.373 . S
C327 C329 1.389 . S
C328 H307 0.950 1_655 S
C328 C327 1.373 . S
C328 C344 1.377 . S
C329 C327 1.389 . S
C329 C330 1.524 . S
C329 C343 1.377 . S
C330 C329 1.524 . S
C330 C331 1.397 . S
C330 C335 1.363 . S
C331 H308 0.950 . S
C331 C330 1.397 . S
C331 C332 1.334 . S
C332 H309 0.950 . S
C332 C331 1.334 . S
C332 C333 1.287 . S
C333 C332 1.287 . S
C333 C334 1.524 . S
C333 H352 0.913 . S
C334 H310 0.950 . S
C334 C333 1.524 . S
C334 C335 1.415 . S
C335 H311 0.950 . S
C335 C330 1.363 . S
C335 C334 1.415 . S
C336 H312 0.951 . S
C336 C337 1.366 1_455 S
C336 C338 1.388 . S
C337 C336 1.366 1_655 S
C337 C341 1.385 . S
C338 H313 0.951 . S
C338 C336 1.388 . S
C338 C339 1.366 1_455 S
C339 C338 1.366 1_655 S
C339 C340 1.414 . S
C339 C342 1.499 . S
C340 H314 0.950 . S
C340 C339 1.414 . S
C340 C341 1.374 . S
C341 H315 0.950 . S
C341 C337 1.385 . S
C341 C340 1.374 . S
C342 C339 1.499 . S
C342 C343 1.373 . S
C342 C344 1.387 . S
C343 H316 0.950 . S
C343 C329 1.377 . S
C343 C342 1.373 . S
C344 C328 1.377 . S
C344 C342 1.387 . S
C344 C345 1.526 1_655 S
C345 C344 1.526 1_455 S
C345 C346 1.397 . S
C345 C350 1.363 . S
C346 H317 0.950 1_455 S
C346 C345 1.397 . S
C346 C347 1.334 . S
C347 H318 0.950 . S
C347 C346 1.334 . S
C347 C348 1.287 . S
C348 C347 1.287 . S
C348 C349 1.524 . S
C348 H351 0.999 . S
C349 H319 0.950 . S
C349 C348 1.524 . S
C349 C350 1.415 . S
C350 H320 0.950 . S
C350 C345 1.363 . S
C350 C349 1.415 . S
H351 C348 0.999 . S
H352 C333 0.913 . S
H353 C371 0.951 . S
H354 C373 0.951 . S
H355 C375 0.950 . S
H356 C376 0.950 . S
H357 C378 0.950 . S
H358 C381 0.950 . S
H359 C382 0.950 . S
H360 C384 0.950 . S
H361 C385 0.950 1_565 S
H362 C386 0.951 . S
H363 C388 0.951 . S
H364 C390 0.950 . S
H365 C391 0.950 . S
H366 C393 0.950 1_545 S
H367 C396 0.950 . S
H368 C397 0.950 . S
H369 C399 0.950 . S
H370 C400 0.950 . S
C371 H353 0.951 . S
C371 C372 1.366 . S
C371 C373 1.388 . S
C372 C371 1.366 . S
C372 C376 1.385 . S
C373 H354 0.951 . S
C373 C371 1.388 . S
C373 C374 1.366 . S
C374 C373 1.366 . S
C374 C375 1.414 . S
C374 C377 1.499 . S
C375 H355 0.950 . S
C375 C374 1.414 . S
C375 C376 1.374 . S
C376 H356 0.950 . S
C376 C372 1.385 . S
C376 C375 1.374 . S
C377 C374 1.499 . S
C377 C378 1.373 . S
C377 C379 1.389 . S
C378 H357 0.950 . S
C378 C377 1.373 . S
C378 C394 1.377 . S
C379 C377 1.389 . S
C379 C380 1.524 1_565 S
C379 C393 1.377 . S
C380 C379 1.524 1_545 S
C380 C381 1.397 . S
C380 C385 1.363 . S
C381 H358 0.950 . S
C381 C380 1.397 . S
C381 C382 1.334 . S
C382 H359 0.950 . S
C382 C381 1.334 . S
C382 C383 1.287 . S
C383 C382 1.287 . S
C383 C384 1.524 . S
C383 H402 0.913 . S
C384 H360 0.950 . S
C384 C383 1.524 . S
C384 C385 1.415 . S
C385 H361 0.950 1_545 S
C385 C380 1.363 . S
C385 C384 1.415 . S
C386 H362 0.951 . S
C386 C387 1.366 1_545 S
C386 C388 1.388 . S
C387 C386 1.366 1_565 S
C387 C391 1.385 . S
C388 H363 0.951 . S
C388 C386 1.388 . S
C388 C389 1.366 1_545 S
C389 C388 1.366 1_565 S
C389 C390 1.414 . S
C389 C392 1.499 . S
C390 H364 0.950 . S
C390 C389 1.414 . S
C390 C391 1.374 . S
C391 H365 0.950 . S
C391 C387 1.385 . S
C391 C390 1.374 . S
C392 C389 1.499 . S
C392 C393 1.373 . S
C392 C394 1.389 . S
C393 H366 0.950 1_565 S
C393 C379 1.377 . S
C393 C392 1.373 . S
C394 C378 1.377 . S
C394 C392 1.389 . S
C394 C395 1.524 . S
C395 C394 1.524 . S
C395 C396 1.397 . S
C395 C400 1.363 . S
C396 H367 0.950 . S
C396 C395 1.397 . S
C396 C397 1.334 . S
C397 H368 0.950 . S
C397 C396 1.334 . S
C397 C398 1.287 . S
C398 C397 1.287 . S
C398 C399 1.524 . S
C398 H401 0.999 . S
C399 H369 0.950 . S
C399 C398 1.524 . S
C399 C400 1.415 . S
C400 H370 0.950 . S
C400 C395 1.363 . S
C400 C399 1.415 . S
H401 C398 0.999 . S
H402 C383 0.913 . S
H403 C421 0.951 . S
H404 C423 0.951 . S
H405 C425 0.950 . S
H406 C426 0.950 . S
H407 C428 0.950 . S
H408 C431 0.950 . S
H409 C432 0.950 . S
H410 C434 0.950 . S
H411 C435 0.950 . S
H412 C436 0.951 . S
H413 C438 0.951 . S
H414 C440 0.950 . S
H415 C441 0.950 . S
H416 C443 0.950 . S
H417 C446 0.950 . S
H418 C447 0.950 . S
H419 C449 0.950 . S
H420 C450 0.950 . S
C421 H403 0.951 . S
C421 C422 1.366 . S
C421 C423 1.388 . S
C422 C421 1.366 . S
C422 C426 1.385 . S
C423 H404 0.951 . S
C423 C421 1.388 . S
C423 C424 1.366 . S
C424 C423 1.366 . S
C424 C425 1.414 . S
C424 C427 1.499 . S
C425 H405 0.950 . S
C425 C424 1.414 . S
C425 C426 1.374 . S
C426 H406 0.950 . S
C426 C422 1.385 . S
C426 C425 1.374 . S
C427 C424 1.499 . S
C427 C428 1.373 . S
C427 C429 1.389 . S
C428 H407 0.950 . S
C428 C427 1.373 . S
C428 C444 1.377 . S
C429 C427 1.389 . S
C429 C430 1.524 . S
C429 C443 1.377 . S
C430 C429 1.524 . S
C430 C431 1.397 . S
C430 C435 1.363 . S
C431 H408 0.950 . S
C431 C430 1.397 . S
C431 C432 1.334 . S
C432 H409 0.950 . S
C432 C431 1.334 . S
C432 C433 1.287 . S
C433 C432 1.287 . S
C433 C434 1.524 . S
C433 H452 0.913 . S
C434 H410 0.950 . S
C434 C433 1.524 . S
C434 C435 1.415 . S
C435 H411 0.950 . S
C435 C430 1.363 . S
C435 C434 1.415 . S
C436 H412 0.951 . S
C436 C437 1.366 . S
C436 C438 1.388 . S
C437 C436 1.366 . S
C437 C441 1.385 . S
C438 H413 0.951 . S
C438 C436 1.388 . S
C438 C439 1.366 . S
C439 C438 1.366 . S
C439 C440 1.414 . S
C439 C442 1.499 . S
C440 H414 0.950 . S
C440 C439 1.414 . S
C440 C441 1.374 . S
C441 H415 0.950 . S
C441 C437 1.385 . S
C441 C440 1.374 . S
C442 C439 1.499 . S
C442 C443 1.373 . S
C442 C444 1.389 . S
C443 H416 0.950 . S
C443 C429 1.377 . S
C443 C442 1.373 . S
C444 C428 1.377 . S
C444 C442 1.389 . S
C444 C445 1.524 . S
C445 C444 1.524 . S
C445 C446 1.397 . S
C445 C450 1.363 . S
C446 H417 0.950 . S
C446 C445 1.397 . S
C446 C447 1.334 . S
C447 H418 0.950 . S
C447 C446 1.334 . S
C447 C448 1.287 . S
C448 C447 1.287 . S
C448 C449 1.524 . S
C448 H451 0.999 . S
C449 H419 0.950 . S
C449 C448 1.524 . S
C449 C450 1.415 . S
C450 H420 0.950 . S
C450 C445 1.363 . S
C450 C449 1.415 . S
H451 C448 0.999 . S
H452 C433 0.913 . S
H453 C471 0.951 1_655 S
H454 C473 0.951 1_655 S
H455 C475 0.950 . S
H456 C476 0.950 . S
H457 C478 0.950 . S
H458 C481 0.950 1_455 S
H459 C482 0.950 . S
H460 C484 0.950 . S
H461 C485 0.950 . S
H462 C486 0.951 . S
H463 C488 0.951 . S
H464 C490 0.950 . S
H465 C491 0.950 . S
H466 C493 0.950 . S
H467 C496 0.950 . S
H468 C497 0.950 . S
H469 C499 0.950 . S
H470 C500 0.950 . S
C471 H453 0.951 1_455 S
C471 C472 1.366 . S
C471 C473 1.388 . S
C472 C471 1.366 . S
C472 C476 1.385 . S
C473 H454 0.951 1_455 S
C473 C471 1.388 . S
C473 C474 1.366 . S
C474 C473 1.366 . S
C474 C475 1.414 . S
C474 C477 1.499 . S
C475 H455 0.950 . S
C475 C474 1.414 . S
C475 C476 1.374 . S
C476 H456 0.950 . S
C476 C472 1.385 . S
C476 C475 1.374 . S
C477 C474 1.499 . S
C477 C478 1.373 . S
C477 C479 1.389 1_455 S
C478 H457 0.950 . S
C478 C477 1.373 . S
C478 C494 1.377 . S
C479 C477 1.389 1_655 S
C479 C480 1.524 . S
C479 C493 1.377 . S
C480 C479 1.524 . S
C480 C481 1.397 . S
C480 C485 1.363 . S
C481 H458 0.950 1_655 S
C481 C480 1.397 . S
C481 C482 1.334 . S
C482 H459 0.950 . S
C482 C481 1.334 . S
C482 C483 1.287 . S
C483 C482 1.287 . S
C483 C484 1.524 . S
C483 H502 0.913 . S
C484 H460 0.950 . S
C484 C483 1.524 . S
C484 C485 1.415 . S
C485 H461 0.950 . S
C485 C480 1.363 . S
C485 C484 1.415 . S
C486 H462 0.951 . S
C486 C487 1.366 . S
C486 C488 1.388 . S
C487 C486 1.366 . S
C487 C491 1.385 1_455 S
C488 H463 0.951 . S
C488 C486 1.388 . S
C488 C489 1.366 . S
C489 C488 1.366 . S
C489 C490 1.414 1_455 S
C489 C492 1.499 . S
C490 H464 0.950 . S
C490 C489 1.414 1_655 S
C490 C491 1.374 . S
C491 H465 0.950 . S
C491 C487 1.385 1_655 S
C491 C490 1.374 . S
C492 C489 1.499 . S
C492 C493 1.373 1_455 S
C492 C494 1.389 . S
C493 H466 0.950 . S
C493 C479 1.377 . S
C493 C492 1.373 1_655 S
C494 C478 1.377 . S
C494 C492 1.389 . S
C494 C495 1.524 . S
C495 C494 1.524 . S
C495 C496 1.397 . S
C495 C500 1.363 . S
C496 H467 0.950 . S
C496 C495 1.397 . S
C496 C497 1.334 . S
C497 H468 0.950 . S
C497 C496 1.334 . S
C497 C498 1.287 . S
C498 C497 1.287 . S
C498 C499 1.524 . S
C498 H501 0.999 . S
C499 H469 0.950 . S
C499 C498 1.524 . S
C499 C500 1.415 . S
C500 H470 0.950 . S
C500 C495 1.363 . S
C500 C499 1.415 . S
H501 C498 0.999 . S
H502 C483 0.913 . S
H503 C521 0.951 . S
H504 C523 0.951 . S
H505 C525 0.950 . S
H506 C526 0.950 . S
H507 C528 0.950 1_565 S
H508 C531 0.950 . S
H509 C532 0.950 . S
H510 C534 0.950 . S
H511 C535 0.950 . S
H512 C536 0.951 . S
H513 C538 0.951 . S
H514 C540 0.957 1_565 S
H515 C541 0.950 . S
H516 C543 0.950 . S
H517 C546 0.950 . S
H518 C547 0.950 . S
H519 C549 0.950 . S
H520 C550 0.950 . S
C521 H503 0.951 . S
C521 C522 1.366 . S
C521 C523 1.388 . S
C522 C521 1.366 . S
C522 C526 1.385 . S
C523 H504 0.951 . S
C523 C521 1.388 . S
C523 C524 1.366 . S
C524 C523 1.366 . S
C524 C525 1.414 . S
C524 C527 1.499 . S
C525 H505 0.950 . S
C525 C524 1.414 . S
C525 C526 1.374 . S
C526 H506 0.950 . S
C526 C522 1.385 . S
C526 C525 1.374 . S
C527 C524 1.499 . S
C527 C528 1.373 . S
C527 C529 1.389 . S
C528 H507 0.950 1_545 S
C528 C527 1.373 . S
C528 C544 1.377 1_545 S
C529 C527 1.389 . S
C529 C530 1.524 . S
C529 C543 1.377 . S
C530 C529 1.524 . S
C530 C531 1.397 . S
C530 C535 1.363 . S
C531 H508 0.950 . S
C531 C530 1.397 . S
C531 C532 1.334 . S
C532 H509 0.950 . S
C532 C531 1.334 . S
C532 C533 1.287 . S
C533 C532 1.287 . S
C533 C534 1.524 . S
C533 H552 0.913 . S
C534 H510 0.950 . S
C534 C533 1.524 . S
C534 C535 1.415 . S
C535 H511 0.950 . S
C535 C530 1.363 . S
C535 C534 1.415 . S
C536 H512 0.951 . S
C536 C537 1.366 . S
C536 C538 1.388 . S
C537 C536 1.366 . S
C537 C541 1.385 1_545 S
C538 H513 0.951 . S
C538 C536 1.388 . S
C538 C539 1.366 . S
C539 C538 1.366 . S
C539 C540 1.415 . S
C539 C542 1.499 . S
C540 H514 0.957 1_545 S
C540 C539 1.415 . S
C540 C541 1.367 1_545 S
C541 H515 0.950 . S
C541 C537 1.385 1_565 S
C541 C540 1.367 1_565 S
C542 C539 1.499 . S
C542 C543 1.373 . S
C542 C544 1.389 1_545 S
C543 H516 0.950 . S
C543 C529 1.377 . S
C543 C542 1.373 . S
C544 C528 1.377 1_565 S
C544 C542 1.389 1_565 S
C544 C545 1.524 . S
C545 C544 1.524 . S
C545 C546 1.397 . S
C545 C550 1.363 . S
C546 H517 0.950 . S
C546 C545 1.397 . S
C546 C547 1.334 . S
C547 H518 0.950 . S
C547 C546 1.334 . S
C547 C548 1.287 . S
C548 C547 1.287 . S
C548 C549 1.524 . S
C548 H551 0.999 . S
C549 H519 0.950 . S
C549 C548 1.524 . S
C549 C550 1.415 . S
C550 H520 0.950 . S
C550 C545 1.363 . S
C550 C549 1.415 . S
H551 C548 0.999 . S
H552 C533 0.913 . S
H553 C571 0.951 . S
H554 C573 0.951 . S
H555 C575 0.950 . S
H556 C576 0.950 . S
H557 C578 0.950 . S
H558 C581 0.950 . S
H559 C582 0.950 . S
H560 C584 0.950 . S
H561 C585 0.950 . S
H562 C586 0.951 . S
H563 C588 0.951 . S
H564 C590 0.950 . S
H565 C591 0.950 . S
H566 C593 0.950 . S
H567 C596 0.950 . S
H568 C597 0.950 . S
H569 C599 0.950 . S
H570 C600 0.950 . S
C571 H553 0.951 . S
C571 C572 1.366 . S
C571 C573 1.388 . S
C572 C571 1.366 . S
C572 C576 1.385 . S
C573 H554 0.951 . S
C573 C571 1.388 . S
C573 C574 1.366 . S
C574 C573 1.366 . S
C574 C575 1.414 . S
C574 C577 1.499 . S
C575 H555 0.950 . S
C575 C574 1.414 . S
C575 C576 1.374 . S
C576 H556 0.950 . S
C576 C572 1.385 . S
C576 C575 1.374 . S
C577 C574 1.499 . S
C577 C578 1.373 . S
C577 C579 1.389 . S
C578 H557 0.950 . S
C578 C577 1.373 . S
C578 C594 1.377 . S
C579 C577 1.389 . S
C579 C580 1.524 . S
C579 C593 1.377 . S
C580 C579 1.524 . S
C580 C581 1.397 . S
C580 C585 1.363 . S
C581 H558 0.950 . S
C581 C580 1.397 . S
C581 C582 1.334 . S
C582 H559 0.950 . S
C582 C581 1.334 . S
C582 C583 1.287 . S
C583 C582 1.287 . S
C583 C584 1.524 . S
C583 H602 0.913 . S
C584 H560 0.950 . S
C584 C583 1.524 . S
C584 C585 1.415 . S
C585 H561 0.950 . S
C585 C580 1.363 . S
C585 C584 1.415 . S
C586 H562 0.951 . S
C586 C587 1.366 . S
C586 C588 1.388 . S
C587 C586 1.366 . S
C587 C591 1.385 . S
C588 H563 0.951 . S
C588 C586 1.388 . S
C588 C589 1.366 . S
C589 C588 1.366 . S
C589 C590 1.414 . S
C589 C592 1.499 . S
C590 H564 0.950 . S
C590 C589 1.414 . S
C590 C591 1.374 . S
C591 H565 0.950 . S
C591 C587 1.385 . S
C591 C590 1.374 . S
C592 C589 1.499 . S
C592 C593 1.373 . S
C592 C594 1.389 . S
C593 H566 0.950 . S
C593 C579 1.377 . S
C593 C592 1.373 . S
C594 C578 1.377 . S
C594 C592 1.389 . S
C594 C595 1.524 . S
C595 C594 1.524 . S
C595 C596 1.397 . S
C595 C600 1.363 . S
C596 H567 0.950 . S
C596 C595 1.397 . S
C596 C597 1.334 . S
C597 H568 0.950 . S
C597 C596 1.334 . S
C597 C598 1.287 . S
C598 C597 1.287 . S
C598 C599 1.524 . S
C598 H601 0.999 . S
C599 H569 0.950 . S
C599 C598 1.524 . S
C599 C600 1.415 . S
C600 H570 0.950 . S
C600 C595 1.363 . S
C600 C599 1.415 . S
H601 C598 0.999 . S
H602 C583 0.913 . S
H603 C621 0.951 . S
H604 C623 0.951 . S
H605 C625 0.950 . S
H606 C626 0.950 . S
H607 C628 0.950 . S
H608 C631 0.950 . S
H609 C632 0.950 . S
H610 C634 0.950 . S
H611 C635 0.950 . S
H612 C636 0.951 . S
H613 C638 0.951 . S
H614 C640 0.950 . S
H615 C641 0.950 1_565 S
H616 C643 0.950 . S
H617 C646 0.950 . S
H618 C647 0.950 . S
H619 C649 0.950 . S
H620 C650 0.950 . S
C621 H603 0.951 . S
C621 C622 1.366 . S
C621 C623 1.388 . S
C622 C621 1.366 . S
C622 C626 1.385 . S
C623 H604 0.951 . S
C623 C621 1.388 . S
C623 C624 1.366 . S
C624 C623 1.366 . S
C624 C625 1.414 . S
C624 C627 1.499 . S
C625 H605 0.950 . S
C625 C624 1.414 . S
C625 C626 1.374 . S
C626 H606 0.950 . S
C626 C622 1.385 . S
C626 C625 1.374 . S
C627 C624 1.499 . S
C627 C628 1.373 . S
C627 C629 1.389 1_545 S
C628 H607 0.950 . S
C628 C627 1.373 . S
C628 C644 1.377 . S
C629 C627 1.389 1_565 S
C629 C630 1.524 . S
C629 C643 1.377 . S
C630 C629 1.524 . S
C630 C631 1.397 . S
C630 C635 1.363 . S
C631 H608 0.950 . S
C631 C630 1.397 . S
C631 C632 1.334 . S
C632 H609 0.950 . S
C632 C631 1.334 . S
C632 C633 1.287 . S
C633 C632 1.287 . S
C633 C634 1.524 . S
C633 H652 0.913 . S
C634 H610 0.950 . S
C634 C633 1.524 . S
C634 C635 1.415 . S
C635 H611 0.950 . S
C635 C630 1.363 . S
C635 C634 1.415 . S
C636 H612 0.951 . S
C636 C637 1.366 . S
C636 C638 1.388 . S
C637 C636 1.366 . S
C637 C641 1.385 . S
C638 H613 0.951 . S
C638 C636 1.388 . S
C638 C639 1.366 . S
C639 C638 1.366 . S
C639 C640 1.414 . S
C639 C642 1.499 . S
C640 H614 0.950 . S
C640 C639 1.414 . S
C640 C641 1.374 . S
C641 H615 0.950 1_545 S
C641 C637 1.385 . S
C641 C640 1.374 . S
C642 C639 1.499 . S
C642 C643 1.373 1_545 S
C642 C644 1.389 . S
C643 H616 0.950 . S
C643 C629 1.377 . S
C643 C642 1.373 1_565 S
C644 C628 1.377 . S
C644 C642 1.389 . S
C644 C645 1.524 . S
C645 C644 1.524 . S
C645 C646 1.397 . S
C645 C650 1.363 . S
C646 H617 0.950 . S
C646 C645 1.397 . S
C646 C647 1.334 . S
C647 H618 0.950 . S
C647 C646 1.334 . S
C647 C648 1.287 . S
C648 C647 1.287 . S
C648 C649 1.524 . S
C648 H651 0.999 . S
C649 H619 0.950 . S
C649 C648 1.524 . S
C649 C650 1.415 . S
C650 H620 0.950 . S
C650 C645 1.363 . S
C650 C649 1.415 . S
H651 C648 0.999 . S
H652 C633 0.913 . S
H653 C671 0.951 . S
H654 C673 0.951 . S
H655 C675 0.950 . S
H656 C676 0.950 . S
H657 C678 0.950 . S
H658 C681 0.950 . S
H659 C682 0.950 . S
H660 C684 0.950 . S
H661 C685 0.950 1_556 S
H662 C686 0.951 . S
H663 C688 0.951 . S
H664 C690 0.950 . S
H665 C691 0.950 . S
H666 C693 0.950 . S
H667 C696 0.950 . S
H668 C697 0.950 . S
H669 C699 0.950 . S
H670 C700 0.950 . S
C671 H653 0.951 . S
C671 C672 1.366 . S
C671 C673 1.388 . S
C672 C671 1.366 . S
C672 C676 1.385 . S
C673 H654 0.951 . S
C673 C671 1.388 . S
C673 C674 1.366 . S
C674 C673 1.366 . S
C674 C675 1.414 . S
C674 C677 1.499 1_554 S
C675 H655 0.950 . S
C675 C674 1.414 . S
C675 C676 1.374 . S
C676 H656 0.950 . S
C676 C672 1.385 . S
C676 C675 1.374 . S
C677 C674 1.499 1_556 S
C677 C678 1.373 . S
C677 C679 1.389 . S
C678 H657 0.950 . S
C678 C677 1.373 . S
C678 C694 1.377 . S
C679 C677 1.389 . S
C679 C680 1.524 1_556 S
C679 C693 1.377 . S
C680 C679 1.524 1_554 S
C680 C681 1.397 . S
C680 C685 1.363 . S
C681 H658 0.950 . S
C681 C680 1.397 . S
C681 C682 1.334 . S
C682 H659 0.950 . S
C682 C681 1.334 . S
C682 C683 1.287 . S
C683 C682 1.287 . S
C683 C684 1.524 . S
C683 H702 0.913 . S
C684 H660 0.950 . S
C684 C683 1.524 . S
C684 C685 1.415 . S
C685 H661 0.950 1_554 S
C685 C680 1.363 . S
C685 C684 1.415 . S
C686 H662 0.951 . S
C686 C687 1.366 . S
C686 C688 1.388 . S
C687 C686 1.366 . S
C687 C691 1.385 . S
C688 H663 0.951 . S
C688 C686 1.388 . S
C688 C689 1.366 . S
C689 C688 1.366 . S
C689 C690 1.414 . S
C689 C692 1.499 . S
C690 H664 0.950 . S
C690 C689 1.414 . S
C690 C691 1.374 . S
C691 H665 0.950 . S
C691 C687 1.385 . S
C691 C690 1.374 . S
C692 C689 1.499 . S
C692 C693 1.373 . S
C692 C694 1.389 . S
C693 H666 0.950 . S
C693 C679 1.377 . S
C693 C692 1.373 . S
C694 C678 1.377 . S
C694 C692 1.389 . S
C694 C695 1.524 . S
C695 C694 1.524 . S
C695 C696 1.397 . S
C695 C700 1.363 . S
C696 H667 0.950 . S
C696 C695 1.397 . S
C696 C697 1.334 . S
C697 H668 0.950 . S
C697 C696 1.334 . S
C697 C698 1.287 . S
C698 C697 1.287 . S
C698 C699 1.524 . S
C698 H701 0.999 . S
C699 H669 0.950 . S
C699 C698 1.524 . S
C699 C700 1.415 . S
C700 H670 0.950 . S
C700 C695 1.363 . S
C700 C699 1.415 . S
H701 C698 0.999 . S
H702 C683 0.913 . S
H703 C721 0.951 . S
H704 C723 0.951 . S
H705 C725 0.950 . S
H706 C726 0.950 1_455 S
H707 C728 0.950 1_455 S
H708 C731 0.950 . S
H709 C732 0.950 . S
H710 C734 0.950 . S
H711 C735 0.950 . S
H712 C736 0.951 . S
H713 C738 0.951 . S
H714 C740 0.950 . S
H715 C741 0.950 . S
H716 C743 0.950 . S
H717 C746 0.950 . S
H718 C747 0.957 . S
H719 C749 0.950 . S
H720 C750 0.950 . S
C721 H703 0.951 . S
C721 C722 1.366 . S
C721 C723 1.388 . S
C722 C721 1.366 . S
C722 C726 1.385 . S
C723 H704 0.951 . S
C723 C721 1.388 . S
C723 C724 1.366 . S
C724 C723 1.366 . S
C724 C725 1.414 1_655 S
C724 C727 1.499 . S
C725 H705 0.950 . S
C725 C724 1.414 1_455 S
C725 C726 1.374 1_455 S
C726 H706 0.950 1_655 S
C726 C722 1.385 . S
C726 C725 1.374 1_655 S
C727 C724 1.499 . S
C727 C728 1.373 . S
C727 C729 1.389 . S
C728 H707 0.950 1_655 S
C728 C727 1.373 . S
C728 C744 1.377 . S
C729 C727 1.389 . S
C729 C730 1.524 . S
C729 C743 1.377 . S
C730 C729 1.524 . S
C730 C731 1.397 . S
C730 C735 1.363 . S
C731 H708 0.950 . S
C731 C730 1.397 . S
C731 C732 1.334 . S
C732 H709 0.950 . S
C732 C731 1.334 . S
C732 C733 1.287 . S
C733 C732 1.287 . S
C733 C734 1.524 . S
C733 H752 0.913 . S
C734 H710 0.950 . S
C734 C733 1.524 . S
C734 C735 1.415 . S
C735 H711 0.950 . S
C735 C730 1.363 . S
C735 C734 1.415 . S
C736 H712 0.951 . S
C736 C737 1.366 1_455 S
C736 C738 1.388 . S
C737 C736 1.366 1_655 S
C737 C741 1.385 . S
C738 H713 0.951 . S
C738 C736 1.388 . S
C738 C739 1.366 1_455 S
C739 C738 1.366 1_655 S
C739 C740 1.414 . S
C739 C742 1.499 . S
C740 H714 0.950 . S
C740 C739 1.414 . S
C740 C741 1.374 . S
C741 H715 0.950 . S
C741 C737 1.385 . S
C741 C740 1.374 . S
C742 C739 1.499 . S
C742 C743 1.373 . S
C742 C744 1.389 . S
C743 H716 0.950 . S
C743 C729 1.377 . S
C743 C742 1.373 . S
C744 C728 1.377 . S
C744 C742 1.389 . S
C744 C745 1.524 1_655 S
C745 C744 1.524 1_455 S
C745 C746 1.397 1_455 S
C745 C750 1.363 . S
C746 H717 0.950 . S
C746 C745 1.397 1_655 S
C746 C747 1.334 1_655 S
C747 H718 0.957 . S
C747 C746 1.334 1_455 S
C747 C748 1.287 . S
C748 C747 1.287 . S
C748 C749 1.524 . S
C748 H751 0.999 . S
C749 H719 0.950 . S
C749 C748 1.524 . S
C749 C750 1.415 . S
C750 H720 0.950 . S
C750 C745 1.363 . S
C750 C749 1.415 . S
H751 C748 0.999 . S
H752 C733 0.913 . S
H753 C771 0.951 . S
H754 C773 0.951 . S
H755 C775 0.959 . S
H756 C776 0.950 1_545 S
H757 C778 0.950 . S
H758 C781 0.950 . S
H759 C782 0.950 . S
H760 C784 0.950 . S
H761 C785 0.950 . S
H762 C786 0.951 . S
H763 C788 0.951 . S
H764 C790 0.950 . S
H765 C791 0.950 . S
H766 C793 0.950 . S
H767 C796 0.950 1_565 S
H768 C797 0.950 . S
H769 C799 0.950 . S
H770 C800 0.950 . S
C771 H753 0.951 . S
C771 C772 1.366 . S
C771 C773 1.388 . S
C772 C771 1.366 . S
C772 C776 1.385 . S
C773 H754 0.951 . S
C773 C771 1.388 . S
C773 C774 1.366 . S
C774 C773 1.366 . S
C774 C775 1.403 1_565 S
C774 C777 1.499 . S
C775 H755 0.959 . S
C775 C774 1.403 1_545 S
C775 C776 1.377 1_545 S
C776 H756 0.950 1_565 S
C776 C772 1.385 . S
C776 C775 1.377 1_565 S
C777 C774 1.499 . S
C777 C778 1.373 1_565 S
C777 C779 1.389 . S
C778 H757 0.950 . S
C778 C777 1.373 1_545 S
C778 C794 1.377 . S
C779 C777 1.389 . S
C779 C780 1.524 . S
C779 C793 1.377 . S
C780 C779 1.524 . S
C780 C781 1.397 . S
C780 C785 1.363 . S
C781 H758 0.950 . S
C781 C780 1.397 . S
C781 C782 1.334 . S
C782 H759 0.950 . S
C782 C781 1.334 . S
C782 C783 1.287 . S
C783 C782 1.287 . S
C783 C784 1.524 . S
C783 H802 0.913 . S
C784 H760 0.950 . S
C784 C783 1.524 . S
C784 C785 1.415 . S
C785 H761 0.950 . S
C785 C780 1.363 . S
C785 C784 1.415 . S
C786 H762 0.951 . S
C786 C787 1.366 1_545 S
C786 C788 1.388 . S
C787 C786 1.366 1_565 S
C787 C791 1.385 . S
C788 H763 0.951 . S
C788 C786 1.388 . S
C788 C789 1.366 1_545 S
C789 C788 1.366 1_565 S
C789 C790 1.414 . S
C789 C792 1.499 . S
C790 H764 0.950 . S
C790 C789 1.414 . S
C790 C791 1.374 . S
C791 H765 0.950 . S
C791 C787 1.385 . S
C791 C790 1.374 . S
C792 C789 1.499 . S
C792 C793 1.373 . S
C792 C794 1.389 1_565 S
C793 H766 0.950 . S
C793 C779 1.377 . S
C793 C792 1.373 . S
C794 C778 1.377 . S
C794 C792 1.389 1_545 S
C794 C795 1.524 . S
C795 C794 1.524 . S
C795 C796 1.397 . S
C795 C800 1.363 . S
C796 H767 0.950 1_545 S
C796 C795 1.397 . S
C796 C797 1.334 . S
C797 H768 0.950 . S
C797 C796 1.334 . S
C797 C798 1.287 . S
C798 C797 1.287 . S
C798 C799 1.524 . S
C798 H801 0.999 . S
C799 H769 0.950 . S
C799 C798 1.524 . S
C799 C800 1.415 . S
C800 H770 0.950 . S
C800 C795 1.363 . S
C800 C799 1.415 . S
H801 C798 0.999 . S
H802 C783 0.913 . S
H803 C821 0.951 . S
H804 C823 0.951 . S
H805 C825 0.950 1_556 S
H806 C826 0.950 . S
H807 C828 0.950 . S
H808 C831 0.950 1_556 S
H809 C832 0.950 . S
H810 C834 0.950 . S
H811 C835 0.950 . S
H812 C836 0.951 . S
H813 C838 0.951 . S
H814 C840 0.950 . S
H815 C841 0.950 . S
H816 C843 0.950 . S
H817 C846 0.950 . S
H818 C847 0.950 . S
H819 C849 0.950 . S
H820 C850 0.950 . S
C821 H803 0.951 . S
C821 C822 1.366 . S
C821 C823 1.388 . S
C822 C821 1.366 . S
C822 C826 1.385 . S
C823 H804 0.951 . S
C823 C821 1.388 . S
C823 C824 1.366 . S
C824 C823 1.366 . S
C824 C825 1.414 . S
C824 C827 1.499 1_554 S
C825 H805 0.950 1_554 S
C825 C824 1.414 . S
C825 C826 1.374 . S
C826 H806 0.950 . S
C826 C822 1.385 . S
C826 C825 1.374 . S
C827 C824 1.499 1_556 S
C827 C828 1.373 . S
C827 C829 1.389 . S
C828 H807 0.950 . S
C828 C827 1.373 . S
C828 C844 1.377 . S
C829 C827 1.389 . S
C829 C830 1.524 1_556 S
C829 C843 1.377 . S
C830 C829 1.524 1_554 S
C830 C831 1.397 . S
C830 C835 1.363 . S
C831 H808 0.950 1_554 S
C831 C830 1.397 . S
C831 C832 1.334 . S
C832 H809 0.950 . S
C832 C831 1.334 . S
C832 C833 1.287 . S
C833 C832 1.287 . S
C833 C834 1.524 . S
C833 H852 0.913 . S
C834 H810 0.950 . S
C834 C833 1.524 . S
C834 C835 1.415 . S
C835 H811 0.950 . S
C835 C830 1.363 . S
C835 C834 1.415 . S
C836 H812 0.951 . S
C836 C837 1.366 . S
C836 C838 1.388 . S
C837 C836 1.366 . S
C837 C841 1.385 . S
C838 H813 0.951 . S
C838 C836 1.388 . S
C838 C839 1.366 . S
C839 C838 1.366 . S
C839 C840 1.414 . S
C839 C842 1.499 . S
C840 H814 0.950 . S
C840 C839 1.414 . S
C840 C841 1.374 . S
C841 H815 0.950 . S
C841 C837 1.385 . S
C841 C840 1.374 . S
C842 C839 1.499 . S
C842 C843 1.373 . S
C842 C844 1.389 . S
C843 H816 0.950 . S
C843 C829 1.377 . S
C843 C842 1.373 . S
C844 C828 1.377 . S
C844 C842 1.389 . S
C844 C845 1.524 . S
C845 C844 1.524 . S
C845 C846 1.397 . S
C845 C850 1.363 . S
C846 H817 0.950 . S
C846 C845 1.397 . S
C846 C847 1.334 . S
C847 H818 0.950 . S
C847 C846 1.334 . S
C847 C848 1.287 . S
C848 C847 1.287 . S
C848 C849 1.524 . S
C848 H851 0.999 . S
C849 H819 0.950 . S
C849 C848 1.524 . S
C849 C850 1.415 . S
C850 H820 0.950 . S
C850 C845 1.363 . S
C850 C849 1.415 . S
H851 C848 0.999 . S
H852 C833 0.913 . S
H853 C871 0.951 . S
H854 C873 0.951 . S
H855 C875 0.950 1_655 S
H856 C876 0.950 1_655 S
H857 C878 0.950 . S
H858 C881 0.950 1_655 S
H859 C882 0.945 1_655 S
H860 C884 0.950 . S
H861 C885 0.950 . S
H862 C886 0.951 . S
H863 C888 0.951 . S
H864 C890 0.950 . S
H865 C891 0.950 . S
H866 C893 0.950 . S
H867 C896 0.950 . S
H868 C897 0.950 . S
H869 C899 0.950 . S
H870 C900 0.950 . S
C871 H853 0.951 . S
C871 C872 1.366 . S
C871 C873 1.388 . S
C872 C871 1.366 . S
C872 C876 1.385 . S
C873 H854 0.951 . S
C873 C871 1.388 . S
C873 C874 1.366 . S
C874 C873 1.366 . S
C874 C875 1.414 . S
C874 C877 1.499 . S
C875 H855 0.950 1_455 S
C875 C874 1.414 . S
C875 C876 1.374 . S
C876 H856 0.950 1_455 S
C876 C872 1.385 . S
C876 C875 1.374 . S
C877 C874 1.499 . S
C877 C878 1.373 . S
C877 C879 1.389 . S
C878 H857 0.950 . S
C878 C877 1.373 . S
C878 C894 1.377 . S
C879 C877 1.389 . S
C879 C880 1.524 . S
C879 C893 1.377 . S
C880 C879 1.524 . S
C880 C881 1.397 . S
C880 C885 1.363 . S
C881 H858 0.950 1_455 S
C881 C880 1.397 . S
C881 C882 1.337 . S
C882 H859 0.945 1_455 S
C882 C881 1.337 . S
C882 C883 1.290 . S
C883 C882 1.290 . S
C883 C884 1.524 . S
C883 H902 0.913 . S
C884 H860 0.950 . S
C884 C883 1.524 . S
C884 C885 1.415 . S
C885 H861 0.950 . S
C885 C880 1.363 . S
C885 C884 1.415 . S
C886 H862 0.951 . S
C886 C887 1.366 1_655 S
C886 C888 1.388 . S
C887 C886 1.366 1_455 S
C887 C891 1.385 . S
C888 H863 0.951 . S
C888 C886 1.388 . S
C888 C889 1.366 1_655 S
C889 C888 1.366 1_455 S
C889 C890 1.414 . S
C889 C892 1.499 . S
C890 H864 0.950 . S
C890 C889 1.414 . S
C890 C891 1.374 . S
C891 H865 0.950 . S
C891 C887 1.385 . S
C891 C890 1.374 . S
C892 C889 1.499 . S
C892 C893 1.373 . S
C892 C894 1.389 . S
C893 H866 0.950 . S
C893 C879 1.377 . S
C893 C892 1.373 . S
C894 C878 1.377 . S
C894 C892 1.389 . S
C894 C895 1.524 . S
C895 C894 1.524 . S
C895 C896 1.397 . S
C895 C900 1.363 1_455 S
C896 H867 0.950 . S
C896 C895 1.397 . S
C896 C897 1.334 . S
C897 H868 0.950 . S
C897 C896 1.334 . S
C897 C898 1.287 . S
C898 C897 1.287 . S
C898 C899 1.524 1_455 S
C898 H901 0.999 . S
C899 H869 0.950 . S
C899 C898 1.524 1_655 S
C899 C900 1.415 . S
C900 H870 0.950 . S
C900 C895 1.363 1_655 S
C900 C899 1.415 . S
H901 C898 0.999 . S
H902 C883 0.913 . S
C337 C269 1.321 . S
C322 C29 1.322 . S
C372 C137 1.407 . S
C387 C287 1.412 . S
C422 C225 1.412 . S
C437 C300 1.417 . S
C472 C49 1.326 . S
C487 C267 1.342 1_455 S
C537 C278 1.424 1_545 S
C522 C117 1.404 . S
C572 C205 1.412 . S
C587 C291 1.427 . S
C637 C280 1.334 1_545 S
C622 C233 1.322 . S
C672 C57 1.324 . S
C687 C293 1.341 . S
C737 C274 1.408 . S
C722 C108 1.408 . S
C787 C282 1.315 . S
C772 C196 1.316 . S
C837 C295 1.320 . S
C822 C20 1.322 . S
C872 C145 1.406 . S
C887 C265 1.420 1_455 S
