# Generated by pormake.
# Topology pts, (4,4)-cn, num edge types: 1
# Building blocks:
#     Node 0, Type 0, BuildingBlock: KOZSID_clean_sbu_0, # of connection points: 4
#     Node 1, Type 0, BuildingBlock: KOZSID_clean_sbu_0, # of connection points: 4
#     Node 2, Type 1, BuildingBlock: AZAVOO_clean_sbu_0, # of connection points: 4
#     Node 3, Type 1, BuildingBlock: AZAVOO_clean_sbu_0, # of connection points: 4
#     Edge 4, Type (0, 1), BuildingBlock: ZUJKAS_clean_linker_0, # of connection points: 2
#     Edge 5, Type (0, 1), BuildingBlock: ZUJKAS_clean_linker_0, # of connection points: 2
#     Edge 6, Type (0, 1), BuildingBlock: ZUJKAS_clean_linker_0, # of connection points: 2
#     Edge 7, Type (0, 1), BuildingBlock: ZUJKAS_clean_linker_0, # of connection points: 2
#     Edge 8, Type (0, 1), BuildingBlock: ZUJKAS_clean_linker_0, # of connection points: 2
#     Edge 9, Type (0, 1), BuildingBlock: ZUJKAS_clean_linker_0, # of connection points: 2
#     Edge 10, Type (0, 1), BuildingBlock: ZUJKAS_clean_linker_0, # of connection points: 2
#     Edge 11, Type (0, 1), BuildingBlock: ZUJKAS_clean_linker_0, # of connection points: 2
# Relax obj value: 0.000
# Max RMSD: 0.031
# Mean RMSD: 0.016
data_MOF--net-pts--node1-KOZSID_clean_sbu_0--node2-AZAVOO_clean_sbu_0--edge1-ZUJKAS_clean_linker_0
_symmetry_space_group_name_H-M    P1
_symmetry_Int_Tables_number       1
_symmetry_cell_setting            triclinic
loop_
_symmetry_equiv_pos_as_xyz
'x, y, z'
_cell_length_a     33.894728
_cell_length_b     34.517781
_cell_length_c     50.521437
_cell_angle_alpha  86.856571
_cell_angle_beta   99.07839
_cell_angle_gamma 90.322774
loop_
_atom_site_label
_atom_site_type_symbol
_atom_site_fract_x
_atom_site_fract_y
_atom_site_fract_z
_atom_type_partial_charge
C0 C 0.60896 0.09263 0.04716 0.0
C1 C 0.62361 0.12818 0.05579 0.0
C2 C 0.60043 0.15599 0.04066 0.0
C3 C 0.573 0.13592 0.02378 0.0
N4 N 0.57687 0.0969 0.02745 0.0
Co5 Co 0.54442 0.05671 0.00647 0.0
N6 N 0.51246 0.09764 0.98269 0.0
C7 C 0.51677 0.13657 0.98369 0.0
C8 C 0.48957 0.15724 0.9654 0.0
C9 C 0.46608 0.12994 0.95216 0.0
C10 C 0.48036 0.09407 0.96323 0.0
N11 N 0.51209 0.01649 0.98545 0.0
C12 C 0.48029 0.02069 0.96555 0.0
C13 C 0.46559 0.98504 0.95706 0.0
C14 C 0.48868 0.95732 0.97228 0.0
C15 C 0.51595 0.97749 0.98917 0.0
N16 N 0.57627 0.01576 0.03029 0.0
C17 C 0.57192 0.97685 0.02927 0.0
C18 C 0.59903 0.95606 0.04749 0.0
C19 C 0.62252 0.98325 0.06078 0.0
C20 C 0.6082 0.01924 0.04988 0.0
N21 N 0.50444 0.05696 0.03138 0.0
C22 C 0.44365 0.0579 0.06369 0.0
C23 C 0.45902 0.02289 0.05698 0.0
C24 C 0.48916 0.02308 0.04097 0.0
C25 C 0.46 0.09235 0.05449 0.0
C26 C 0.49012 0.09122 0.03863 0.0
N27 N 0.58442 0.05658 0.98157 0.0
C28 C 0.62905 0.02195 0.9581 0.0
C29 C 0.64524 0.05675 0.94929 0.0
C30 C 0.62978 0.09141 0.95637 0.0
C31 C 0.59953 0.09067 0.97222 0.0
C32 C 0.59895 0.02252 0.97411 0.0
H33 H 0.58914 0.11812 0.97682 0.0
H34 H 0.5883 0.99505 0.98049 0.0
H35 H 0.49923 0.99547 0.03632 0.0
H36 H 0.50104 0.11853 0.03228 0.0
C37 C 0.54498 0.15282 0.00316 0.0
C38 C 0.62728 0.05572 0.05776 0.0
C39 C 0.46168 0.05755 0.95511 0.0
C40 C 0.54383 0.96065 0.00979 0.0
H41 H 0.64893 0.13343 0.0711 0.0
H42 H 0.60385 0.18713 0.04138 0.0
H43 H 0.48649 0.18844 0.96255 0.0
H44 H 0.44082 0.13573 0.93647 0.0
H45 H 0.44016 0.97956 0.9419 0.0
H46 H 0.48522 0.92618 0.97168 0.0
H47 H 0.60216 0.92484 0.05021 0.0
H48 H 0.64799 0.97715 0.07624 0.0
H49 H 0.44728 0.99537 0.06354 0.0
H50 H 0.44977 0.12024 0.05962 0.0
H51 H 0.64012 0.99429 0.95318 0.0
H52 H 0.64075 0.11915 0.94957 0.0
C53 C 0.08243 0.4787 0.55396 0.0
C54 C 0.11794 0.46376 0.56826 0.0
C55 C 0.14813 0.48316 0.5584 0.0
C56 C 0.12945 0.50857 0.53865 0.0
N57 N 0.08909 0.50674 0.53532 0.0
Co58 Co 0.05032 0.53755 0.50812 0.0
N59 N 0.09476 0.56748 0.49458 0.0
C60 C 0.13431 0.56425 0.50403 0.0
C61 C 0.15748 0.58973 0.49154 0.0
C62 C 0.13119 0.61076 0.47311 0.0
C63 C 0.09334 0.59664 0.47534 0.0
N64 N 0.0116 0.56736 0.48034 0.0
C65 C 0.01819 0.59556 0.46182 0.0
C66 C 0.98292 0.60768 0.4457 0.0
C67 C 0.95289 0.58673 0.45455 0.0
C68 C 0.97147 0.56295 0.47534 0.0
N69 N 0.00578 0.50871 0.52232 0.0
C70 C 0.9661 0.51349 0.51388 0.0
C71 C 0.94268 0.49059 0.52803 0.0
C72 C 0.9689 0.46996 0.54673 0.0
C73 C 0.00698 0.48139 0.54275 0.0
N74 N 0.04708 0.57789 0.53421 0.0
C75 C 0.0433 0.63693 0.57019 0.0
C76 C 0.00917 0.62555 0.5531 0.0
C77 C 0.01168 0.59615 0.53549 0.0
C78 C 0.07918 0.61775 0.56921 0.0
C79 C 0.0804 0.58868 0.55123 0.0
N80 N 0.05369 0.4972 0.48193 0.0
C81 C 0.02192 0.4508 0.45121 0.0
C82 C 0.05881 0.43967 0.44495 0.0
C83 C 0.09301 0.45812 0.45741 0.0
C84 C 0.08982 0.48634 0.47572 0.0
C85 C 0.02005 0.47943 0.4695 0.0
H86 H 0.11713 0.49886 0.48457 0.0
H87 H 0.99103 0.48646 0.47335 0.0
H88 H 0.98466 0.58894 0.52292 0.0
H89 H 0.10875 0.57548 0.55141 0.0
C90 C 0.14885 0.53611 0.52405 0.0
C91 C 0.04323 0.46514 0.55876 0.0
C92 C 0.05699 0.61226 0.45903 0.0
C93 C 0.95184 0.5383 0.49176 0.0
H94 H 0.12164 0.44127 0.58424 0.0
H95 H 0.1799 0.47951 0.56506 0.0
H96 H 0.18967 0.59264 0.49536 0.0
H97 H 0.139 0.63397 0.45962 0.0
H98 H 0.97923 0.62972 0.42941 0.0
H99 H 0.92122 0.58907 0.44705 0.0
H100 H 0.9104 0.48884 0.52494 0.0
H101 H 0.96091 0.44874 0.56154 0.0
H102 H 0.98069 0.63975 0.55285 0.0
H103 H 0.10635 0.62495 0.58236 0.0
H104 H 0.99451 0.43704 0.44246 0.0
H105 H 0.1223 0.45105 0.45301 0.0
Mg106 Mg 0.08549 0.02487 0.27036 0.0
O107 O 0.02262 0.02373 0.24459 0.0
O108 O 0.97948 0.01298 0.2734 0.0
Mg109 Mg 0.01282 0.00745 0.31627 0.0
C110 C 0.98696 0.01899 0.24953 0.0
C111 C 0.15171 0.05466 0.24121 0.0
O112 O 0.16755 0.05138 0.26671 0.0
O113 O 0.07319 0.0857 0.28329 0.0
O114 O 0.03078 0.07142 0.31215 0.0
O115 O 0.09175 0.96033 0.26963 0.0
O116 O 0.06612 0.9899 0.30059 0.0
C117 C 0.0513 0.09589 0.30016 0.0
C118 C 0.07522 0.95793 0.29107 0.0
O119 O 0.11462 0.04777 0.23483 0.0
Mg120 Mg 0.00461 0.03502 0.74221 0.0
O121 O 0.06708 0.03294 0.76863 0.0
O122 O 0.1109 0.02611 0.7404 0.0
Mg123 Mg 0.07848 0.02383 0.69741 0.0
C124 C 0.10297 0.02962 0.76405 0.0
C125 C 0.93864 0.03835 0.77414 0.0
O126 O 0.92737 0.01665 0.75372 0.0
O127 O 0.01629 0.09756 0.72777 0.0
O128 O 0.05924 0.08709 0.69952 0.0
O129 O 0.99987 0.97014 0.745 0.0
O130 O 0.02543 0.00338 0.71333 0.0
C131 C 0.03822 0.10999 0.71071 0.0
C132 C 0.01693 0.97022 0.72382 0.0
O133 O 0.97325 0.0535 0.77645 0.0
H134 H 0.37871 0.10636 0.05637 0.0
H135 H 0.32563 0.10891 0.08388 0.0
H136 H 0.38057 0.01374 0.13519 0.0
H137 H 0.43392 0.01106 0.10783 0.0
H138 H 0.29784 0.00603 0.12102 0.0
H139 H 0.33772 0.15153 0.15883 0.0
H140 H 0.32927 0.14978 0.12291 0.0
H141 H 0.37079 0.12382 0.14236 0.0
C142 C 0.37973 0.08619 0.07365 0.0
C143 C 0.41079 0.05872 0.08003 0.0
C144 C 0.34933 0.08768 0.08934 0.0
C145 C 0.34949 0.06193 0.11183 0.0
C146 C 0.37995 0.03396 0.11795 0.0
H147 H 0.23138 0.07064 0.24926 0.0
H148 H 0.27647 0.07418 0.21608 0.0
C149 C 0.41034 0.03238 0.10224 0.0
C150 C 0.31796 0.06408 0.12902 0.0
H151 H 0.2791 0.12278 0.1708 0.0
C152 C 0.2936 0.03158 0.13184 0.0
C153 C 0.31276 0.09737 0.14328 0.0
C154 C 0.3392 0.13253 0.14196 0.0
C155 C 0.26429 0.03136 0.14866 0.0
C156 C 0.25881 0.0648 0.1627 0.0
C157 C 0.28304 0.09737 0.15976 0.0
C158 C 0.23031 0.06543 0.18218 0.0
C159 C 0.2404 0.99487 0.15196 0.0
C160 C 0.18909 0.06043 0.17405 0.0
C161 C 0.16307 0.05832 0.19306 0.0
C162 C 0.17788 0.06133 0.2205 0.0
C163 C 0.21894 0.068 0.22833 0.0
C164 C 0.24482 0.07008 0.20937 0.0
H165 H 0.25404 0.96935 0.14437 0.0
H166 H 0.2377 0.98846 0.17338 0.0
H167 H 0.20985 0.99896 0.14048 0.0
H168 H 0.17715 0.05754 0.15307 0.0
H169 H 0.1316 0.05333 0.18634 0.0
H170 H 0.02707 0.38978 0.54923 0.0
H171 H 0.02199 0.33589 0.58223 0.0
H172 H 0.04694 0.41444 0.64634 0.0
H173 H 0.05269 0.46831 0.61315 0.0
H174 H 0.0909 0.34826 0.65676 0.0
H175 H 0.93245 0.31092 0.62483 0.0
H176 H 0.95983 0.31195 0.59719 0.0
H177 H 0.95396 0.35584 0.61389 0.0
C178 C 0.03125 0.39535 0.57038 0.0
C179 C 0.04013 0.43282 0.57887 0.0
C180 C 0.02802 0.36478 0.58918 0.0
C181 C 0.0332 0.37132 0.61672 0.0
C182 C 0.04243 0.40886 0.62519 0.0
H183 H 0.98794 0.16785 0.72103 0.0
H184 H 0.98625 0.23577 0.70362 0.0
C185 C 0.04576 0.43947 0.60635 0.0
C186 C 0.03111 0.33838 0.63656 0.0
H187 H 0.9737 0.26055 0.6503 0.0
C188 C 0.06501 0.32946 0.65568 0.0
C189 C 0.99701 0.31434 0.63561 0.0
C190 C 0.95861 0.32399 0.61696 0.0
C191 C 0.06671 0.29565 0.67258 0.0
C192 C 0.03396 0.2698 0.66989 0.0
C193 C 0.99902 0.28013 0.65212 0.0
C194 C 0.03698 0.23014 0.6829 0.0
C195 C 0.10397 0.28751 0.69271 0.0
C196 C 0.06599 0.20457 0.67703 0.0
C197 C 0.06699 0.16601 0.68683 0.0
C198 C 0.03876 0.15192 0.7026 0.0
C199 C 0.01019 0.17778 0.70903 0.0
C200 C 0.00914 0.21656 0.69907 0.0
H201 H 0.11923 0.31487 0.69896 0.0
H202 H 0.09711 0.27083 0.71084 0.0
H203 H 0.1251 0.27029 0.68337 0.0
H204 H 0.08715 0.2141 0.66407 0.0
H205 H 0.08947 0.14703 0.68147 0.0
H206 H 0.64084 0.03928 0.11169 0.0
H207 H 0.70569 0.03409 0.14132 0.0
H208 H 0.76575 0.06468 0.07392 0.0
H209 H 0.70075 0.07008 0.04436 0.0
H210 H 0.76882 0.98318 0.13513 0.0
H211 H 0.81633 0.1377 0.13194 0.0
H212 H 0.76514 0.12316 0.1218 0.0
H213 H 0.80138 0.11709 0.09999 0.0
C214 C 0.66798 0.04527 0.10341 0.0
C215 C 0.66621 0.0551 0.07595 0.0
C216 C 0.70487 0.04225 0.12022 0.0
C217 C 0.74048 0.04933 0.10985 0.0
C218 C 0.73862 0.05971 0.08241 0.0
H219 H 0.98758 0.03779 0.19584 0.0
H220 H 0.92982 0.04336 0.15978 0.0
C221 C 0.70167 0.06268 0.06557 0.0
C222 C 0.77948 0.04404 0.12764 0.0
H223 H 0.86205 0.0925 0.15641 0.0
C224 C 0.78927 0.00705 0.13972 0.0
C225 C 0.80628 0.07515 0.13334 0.0
C226 C 0.79681 0.11563 0.12129 0.0
C227 C 0.82489 0.0004 0.15769 0.0
C228 C 0.85106 0.03176 0.16413 0.0
C229 C 0.84191 0.06852 0.15142 0.0
C230 C 0.88637 0.02755 0.18555 0.0
C231 C 0.83415 0.95983 0.16965 0.0
C232 C 0.88099 0.0172 0.21195 0.0
C233 C 0.91371 0.014 0.2325 0.0
C234 C 0.95269 0.02131 0.22718 0.0
C235 C 0.95805 0.03176 0.20064 0.0
C236 C 0.9251 0.03504 0.18003 0.0
H237 H 0.81816 0.93769 0.15686 0.0
H238 H 0.86671 0.95371 0.17242 0.0
H239 H 0.82427 0.95678 0.18958 0.0
H240 H 0.85131 0.01207 0.21677 0.0
H241 H 0.90826 0.00606 0.25264 0.0
H242 H 0.98407 0.65314 0.59931 0.0
H243 H 0.98092 0.70745 0.62813 0.0
H244 H 0.09594 0.74711 0.61186 0.0
H245 H 0.09904 0.6936 0.58253 0.0
H246 H 0.08378 0.74414 0.66877 0.0
H247 H 0.96508 0.82339 0.59787 0.0
H248 H 0.95566 0.77313 0.606 0.0
H249 H 0.99525 0.78586 0.58742 0.0
C250 C 0.00857 0.67357 0.60167 0.0
C251 C 0.04175 0.66905 0.58849 0.0
C252 C 0.00679 0.70443 0.61825 0.0
C253 C 0.03811 0.73129 0.62195 0.0
C254 C 0.07156 0.72653 0.6093 0.0
H255 H 0.04495 0.96268 0.67664 0.0
H256 H 0.05216 0.90318 0.6539 0.0
C257 C 0.07331 0.69582 0.59263 0.0
C258 C 0.03565 0.76503 0.63843 0.0
H259 H 0.98663 0.85089 0.63935 0.0
C260 C 0.06247 0.76745 0.66247 0.0
C261 C 0.00804 0.79543 0.62991 0.0
C262 C 0.97948 0.79471 0.60381 0.0
C263 C 0.06229 0.79963 0.67832 0.0
C264 C 0.03453 0.82993 0.66984 0.0
C265 C 0.00775 0.82745 0.6458 0.0
C266 C 0.03349 0.86522 0.68506 0.0
C267 C 0.09231 0.80153 0.70365 0.0
C268 C 0.02099 0.86347 0.71029 0.0
C269 C 0.01685 0.89753 0.72342 0.0
C270 C 0.02514 0.93383 0.71149 0.0
C271 C 0.03864 0.93524 0.68653 0.0
C272 C 0.04263 0.90128 0.67342 0.0
H273 H 0.11619 0.77928 0.70485 0.0
H274 H 0.10631 0.83067 0.70487 0.0
H275 H 0.07682 0.79654 0.72131 0.0
H276 H 0.01331 0.8359 0.71943 0.0
H277 H 0.00621 0.8955 0.74257 0.0
H278 H 0.38781 0.07007 0.96753 0.0
H279 H 0.32306 0.06494 0.938 0.0
H280 H 0.38442 0.04001 0.87224 0.0
H281 H 0.44895 0.0448 0.90183 0.0
H282 H 0.29224 0.10543 0.88876 0.0
H283 H 0.30767 0.94793 0.87629 0.0
H284 H 0.33885 0.97312 0.90217 0.0
H285 H 0.34938 0.97605 0.86833 0.0
C286 C 0.38719 0.06378 0.94669 0.0
C287 C 0.42291 0.0576 0.93678 0.0
C288 C 0.3504 0.06081 0.92991 0.0
C289 C 0.34896 0.05139 0.90308 0.0
C290 C 0.38486 0.04651 0.89301 0.0
H291 H 0.18219 0.02001 0.76167 0.0
H292 H 0.2387 0.02505 0.79753 0.0
C293 C 0.42158 0.04949 0.90977 0.0
C294 C 0.31005 0.04634 0.88557 0.0
H295 H 0.25572 0.98116 0.84643 0.0
C296 C 0.28394 0.07818 0.87972 0.0
C297 C 0.29924 0.01064 0.874 0.0
C298 C 0.32504 0.97485 0.88069 0.0
C299 C 0.24816 0.07577 0.86153 0.0
C300 C 0.23806 0.04041 0.84925 0.0
C301 C 0.26358 0.00826 0.85582 0.0
C302 C 0.20285 0.0369 0.82799 0.0
C303 C 0.22233 0.11149 0.8547 0.0
C304 C 0.16372 0.04135 0.83328 0.0
C305 C 0.13102 0.03849 0.81269 0.0
C306 C 0.13697 0.03103 0.78648 0.0
C307 C 0.17629 0.02592 0.78152 0.0
C308 C 0.20877 0.02874 0.80203 0.0
H309 H 0.238 0.13814 0.86201 0.0
H310 H 0.21279 0.11549 0.83266 0.0
H311 H 0.19507 0.10801 0.86421 0.0
H312 H 0.15847 0.047 0.85332 0.0
H313 H 0.10119 0.04246 0.81726 0.0
H314 H 0.11636 0.38332 0.44871 0.0
H315 H 0.11998 0.33066 0.41894 0.0
H316 H 0.01043 0.37057 0.36991 0.0
H317 H 0.00767 0.42466 0.39879 0.0
H318 H 0.06772 0.27346 0.41077 0.0
H319 H 0.07807 0.35046 0.31305 0.0
H320 H 0.08609 0.37448 0.34431 0.0
H321 H 0.03615 0.36615 0.32745 0.0
C322 C 0.09354 0.3816 0.43122 0.0
C323 C 0.06174 0.40839 0.42617 0.0
C324 C 0.09554 0.35126 0.41429 0.0
C325 C 0.06581 0.34694 0.39195 0.0
C326 C 0.03423 0.37379 0.38665 0.0
H327 H 0.99472 0.13175 0.32279 0.0
H328 H 0.99929 0.19482 0.34252 0.0
C329 C 0.03234 0.40436 0.40348 0.0
C330 C 0.066 0.31236 0.37576 0.0
H331 H 0.06073 0.28292 0.31177 0.0
C332 C 0.0666 0.27562 0.38916 0.0
C333 C 0.06499 0.31511 0.34759 0.0
C334 C 0.06671 0.35368 0.33228 0.0
C335 C 0.06506 0.24161 0.37514 0.0
C336 C 0.06187 0.24436 0.34684 0.0
C337 C 0.0626 0.28098 0.33343 0.0
C338 C 0.0567 0.20923 0.33111 0.0
C339 C 0.06686 0.20296 0.3908 0.0
C340 C 0.08646 0.19745 0.31682 0.0
C341 C 0.08378 0.16136 0.30522 0.0
C342 C 0.05135 0.13663 0.30792 0.0
C343 C 0.02041 0.14983 0.32073 0.0
C344 C 0.02297 0.18584 0.33206 0.0
H345 H 0.0801 0.20565 0.41219 0.0
H346 H 0.03612 0.19144 0.39022 0.0
H347 H 0.08467 0.18157 0.38199 0.0
H348 H 0.11261 0.2153 0.31574 0.0
H349 H 0.10805 0.15202 0.29544 0.0
H350 H 0.65223 0.01224 0.90703 0.0
H351 H 0.70571 0.01371 0.87954 0.0
H352 H 0.76533 0.10372 0.92647 0.0
H353 H 0.71227 0.1021 0.95431 0.0
H354 H 0.73016 0.08291 0.84962 0.0
H355 H 0.85296 0.01866 0.92531 0.0
H356 H 0.80091 0.01228 0.92839 0.0
H357 H 0.8249 0.05784 0.93543 0.0
C358 C 0.67696 0.03202 0.91171 0.0
C359 C 0.67801 0.05703 0.93286 0.0
C360 C 0.70735 0.03297 0.89591 0.0
C361 C 0.73959 0.05858 0.90115 0.0
C362 C 0.74092 0.08345 0.9223 0.0
H363 H 0.94926 0.08359 0.81808 0.0
H364 H 0.90195 0.09269 0.84951 0.0
C365 C 0.7104 0.08271 0.93801 0.0
C366 C 0.77103 0.06008 0.8838 0.0
H367 H 0.86877 0.03759 0.88268 0.0
C368 C 0.76052 0.07316 0.85685 0.0
C369 C 0.81069 0.04783 0.89342 0.0
C370 C 0.82325 0.0331 0.92217 0.0
C371 C 0.78847 0.07376 0.8391 0.0
C372 C 0.82776 0.05999 0.8484 0.0
C373 C 0.83865 0.04807 0.87559 0.0
C374 C 0.85678 0.05489 0.82971 0.0
C375 C 0.77562 0.08914 0.81051 0.0
C376 C 0.84738 0.03013 0.80856 0.0
C377 C 0.87407 0.02501 0.79068 0.0
C378 C 0.91108 0.04423 0.79365 0.0
C379 C 0.92092 0.06853 0.81517 0.0
C380 C 0.89397 0.07372 0.83313 0.0
H381 H 0.75005 0.10959 0.80891 0.0
H382 H 0.80055 0.10422 0.80242 0.0
H383 H 0.76585 0.06458 0.79779 0.0
H384 H 0.81933 0.01453 0.80592 0.0
H385 H 0.86558 0.00577 0.77452 0.0
H386 H 0.08286 0.61469 0.4106 0.0
H387 H 0.08587 0.67174 0.37951 0.0
H388 H 0.03775 0.74301 0.4344 0.0
H389 H 0.03519 0.68613 0.46548 0.0
H390 H 0.0225 0.72233 0.35503 0.0
H391 H 0.14035 0.79995 0.42063 0.0
H392 H 0.13027 0.74896 0.42608 0.0
H393 H 0.09875 0.78485 0.4367 0.0
C394 C 0.07319 0.64269 0.41591 0.0
C395 C 0.05915 0.6465 0.44032 0.0
C396 C 0.07478 0.67508 0.39823 0.0
C397 C 0.06254 0.71161 0.40487 0.0
C398 C 0.048 0.7152 0.42916 0.0
H399 H 0.04482 0.94517 0.33765 0.0
H400 H 0.03989 0.88366 0.36293 0.0
C401 C 0.04641 0.68286 0.4468 0.0
C402 C 0.06461 0.74608 0.38639 0.0
H403 H 0.10597 0.83614 0.38263 0.0
C404 C 0.04097 0.74713 0.3609 0.0
C405 C 0.08888 0.77824 0.39415 0.0
C406 C 0.11631 0.77795 0.42078 0.0
C407 C 0.03987 0.78021 0.34329 0.0
C408 C 0.06345 0.81269 0.35134 0.0
C409 C 0.08771 0.81124 0.3766 0.0
C410 C 0.06283 0.84906 0.33431 0.0
C411 C 0.01258 0.78067 0.31663 0.0
C412 C 0.0769 0.84993 0.3096 0.0
C413 C 0.07955 0.88519 0.29492 0.0
C414 C 0.06835 0.92011 0.30483 0.0
C415 C 0.05335 0.91887 0.32926 0.0
C416 C 0.05068 0.88372 0.34385 0.0
H417 H 0.99021 0.75694 0.31593 0.0
H418 H 0.99658 0.80885 0.31236 0.0
H419 H 0.03067 0.77685 0.30046 0.0
H420 H 0.08707 0.82356 0.30211 0.0
H421 H 0.09147 0.8852 0.27625 0.0
loop_
_geom_bond_atom_site_label_1
_geom_bond_atom_site_label_2
_geom_bond_distance
_geom_bond_site_symmetry_2
_ccdc_geom_bond_type
C0 C1 1.443 . S
C0 N4 1.376 . S
C0 C38 1.389 . S
C1 C0 1.443 . S
C1 C2 1.340 . S
C1 H41 0.951 . S
C2 C1 1.340 . S
C2 C3 1.439 . S
C2 H42 0.950 . S
C3 C2 1.439 . S
C3 N4 1.374 . S
C3 C37 1.394 . S
N4 C0 1.376 . S
N4 C3 1.374 . S
N4 Co5 2.008 . S
Co5 N4 2.008 . S
Co5 N6 1.995 1_554 S
Co5 N11 2.008 1_544 S
Co5 N16 1.995 1_545 S
Co5 N21 2.282 . S
Co5 N27 2.282 1_554 S
N6 Co5 1.995 1_556 S
N6 C7 1.376 . S
N6 C10 1.383 . S
C7 N6 1.376 . S
C7 C8 1.446 . S
C7 C37 1.392 1_556 S
C8 C7 1.446 . S
C8 C9 1.339 . S
C8 H43 0.949 . S
C9 C8 1.339 . S
C9 C10 1.439 . S
C9 H44 0.950 . S
C10 N6 1.383 . S
C10 C9 1.439 . S
C10 C39 1.392 . S
N11 Co5 2.008 1_566 S
N11 C12 1.376 1_565 S
N11 C15 1.374 . S
C12 N11 1.376 1_545 S
C12 C13 1.443 1_545 S
C12 C39 1.389 . S
C13 C12 1.443 1_565 S
C13 C14 1.340 . S
C13 H45 0.951 . S
C14 C13 1.340 . S
C14 C15 1.439 . S
C14 H46 0.950 . S
C15 N11 1.374 . S
C15 C14 1.439 . S
C15 C40 1.395 1_556 S
N16 Co5 1.995 1_565 S
N16 C17 1.376 . S
N16 C20 1.384 . S
C17 N16 1.376 . S
C17 C18 1.446 . S
C17 C40 1.391 . S
C18 C17 1.446 . S
C18 C19 1.339 . S
C18 H47 0.949 . S
C19 C18 1.339 . S
C19 C20 1.443 . S
C19 H48 0.950 . S
C20 N16 1.384 . S
C20 C19 1.443 . S
C20 C38 1.388 1_565 S
N21 Co5 2.282 . S
N21 C24 1.332 . S
N21 C26 1.332 . S
C22 C23 1.386 . S
C22 C25 1.388 . S
C23 C22 1.386 . S
C23 C24 1.382 . S
C23 H49 0.950 1_545 S
C24 N21 1.332 . S
C24 C23 1.382 . S
C24 H35 0.952 1_545 S
C25 C22 1.388 . S
C25 C26 1.382 . S
C25 H50 0.950 . S
C26 N21 1.332 . S
C26 C25 1.382 . S
C26 H36 0.948 . S
N27 Co5 2.282 1_556 S
N27 C31 1.332 . S
N27 C32 1.332 . S
C28 C29 1.388 . S
C28 C32 1.382 . S
C28 H51 0.950 1_545 S
C29 C28 1.388 . S
C29 C30 1.386 . S
C30 C29 1.386 . S
C30 C31 1.382 . S
C30 H52 0.950 . S
C31 N27 1.332 . S
C31 C30 1.382 . S
C31 H33 0.952 . S
C32 N27 1.332 . S
C32 C28 1.382 . S
C32 H34 0.948 1_545 S
H33 C31 0.952 . S
H34 C32 0.948 1_565 S
H35 C24 0.952 1_565 S
H36 C26 0.948 . S
C37 C3 1.394 . S
C37 C7 1.392 1_554 S
C38 C0 1.389 . S
C38 C20 1.388 1_545 S
C39 C10 1.392 . S
C39 C12 1.389 . S
C40 C15 1.395 1_554 S
C40 C17 1.391 . S
H41 C1 0.951 . S
H42 C2 0.950 . S
H43 C8 0.949 . S
H44 C9 0.950 . S
H45 C13 0.951 . S
H46 C14 0.950 . S
H47 C18 0.949 . S
H48 C19 0.950 . S
H49 C23 0.950 1_565 S
H50 C25 0.950 . S
H51 C28 0.950 1_565 S
H52 C30 0.950 . S
C53 C54 1.443 . S
C53 N57 1.376 . S
C53 C91 1.389 . S
C54 C53 1.443 . S
C54 C55 1.340 . S
C54 H94 0.951 . S
C55 C54 1.340 . S
C55 C56 1.439 . S
C55 H95 0.950 . S
C56 C55 1.439 . S
C56 N57 1.374 . S
C56 C90 1.395 . S
N57 C53 1.376 . S
N57 C56 1.374 . S
N57 Co58 2.008 . S
Co58 N57 2.008 . S
Co58 N59 1.995 . S
Co58 N64 2.008 . S
Co58 N69 1.995 . S
Co58 N74 2.282 . S
Co58 N80 2.282 . S
N59 Co58 1.995 . S
N59 C60 1.376 . S
N59 C63 1.383 . S
C60 N59 1.376 . S
C60 C61 1.446 . S
C60 C90 1.391 . S
C61 C60 1.446 . S
C61 C62 1.339 . S
C61 H96 0.949 . S
C62 C61 1.339 . S
C62 C63 1.439 . S
C62 H97 0.950 . S
C63 N59 1.383 . S
C63 C62 1.439 . S
C63 C92 1.392 . S
N64 Co58 2.008 . S
N64 C65 1.376 . S
N64 C68 1.374 1_455 S
C65 N64 1.376 . S
C65 C66 1.443 1_455 S
C65 C92 1.389 . S
C66 C65 1.443 1_655 S
C66 C67 1.340 . S
C66 H98 0.951 . S
C67 C66 1.340 . S
C67 C68 1.439 . S
C67 H99 0.950 . S
C68 N64 1.374 1_655 S
C68 C67 1.439 . S
C68 C93 1.395 . S
N69 Co58 1.995 . S
N69 C70 1.376 1_455 S
N69 C73 1.383 . S
C70 N69 1.376 1_655 S
C70 C71 1.446 . S
C70 C93 1.391 . S
C71 C70 1.446 . S
C71 C72 1.339 . S
C71 H100 0.949 . S
C72 C71 1.339 . S
C72 C73 1.439 1_655 S
C72 H101 0.950 . S
C73 N69 1.383 . S
C73 C72 1.439 1_455 S
C73 C91 1.392 . S
N74 Co58 2.282 . S
N74 C77 1.332 . S
N74 C79 1.332 . S
C75 C76 1.386 . S
C75 C78 1.388 . S
C76 C75 1.386 . S
C76 C77 1.382 . S
C76 H102 0.950 1_455 S
C77 N74 1.332 . S
C77 C76 1.382 . S
C77 H88 0.952 1_455 S
C78 C75 1.388 . S
C78 C79 1.382 . S
C78 H103 0.950 . S
C79 N74 1.332 . S
C79 C78 1.382 . S
C79 H89 0.948 . S
N80 Co58 2.282 . S
N80 C84 1.332 . S
N80 C85 1.332 . S
C81 C82 1.388 . S
C81 C85 1.382 . S
C81 H104 0.950 1_455 S
C82 C81 1.388 . S
C82 C83 1.386 . S
C83 C82 1.386 . S
C83 C84 1.382 . S
C83 H105 0.950 . S
C84 N80 1.332 . S
C84 C83 1.382 . S
C84 H86 0.952 . S
C85 N80 1.332 . S
C85 C81 1.382 . S
C85 H87 0.948 1_455 S
H86 C84 0.952 . S
H87 C85 0.948 1_655 S
H88 C77 0.952 1_655 S
H89 C79 0.948 . S
C90 C56 1.395 . S
C90 C60 1.391 . S
C91 C53 1.389 . S
C91 C73 1.392 . S
C92 C63 1.392 . S
C92 C65 1.389 . S
C93 C68 1.395 . S
C93 C70 1.391 . S
H94 C54 0.951 . S
H95 C55 0.950 . S
H96 C61 0.949 . S
H97 C62 0.950 . S
H98 C66 0.951 . S
H99 C67 0.950 . S
H100 C71 0.949 . S
H101 C72 0.950 . S
H102 C76 0.950 1_655 S
H103 C78 0.950 . S
H104 C81 0.950 1_655 S
H105 C83 0.950 . S
Mg106 O107 2.028 . S
Mg106 O113 1.986 . S
Mg106 O115 2.114 1_545 S
Mg106 O116 2.251 . S
Mg106 O119 2.010 . S
O107 Mg106 2.028 . S
O107 C110 1.250 1_455 S
O108 Mg109 2.028 . S
O108 C110 1.248 . S
Mg109 O108 2.028 . S
Mg109 O114 2.032 1_655 S
Mg109 O116 2.079 1_655 S
C110 O107 1.250 1_655 S
C110 O108 1.248 . S
C111 O112 1.264 . S
C111 O119 1.249 . S
O112 C111 1.264 . S
O113 Mg106 1.986 . S
O113 C117 1.246 . S
O114 Mg109 2.032 1_455 S
O114 C117 1.259 . S
O115 Mg106 2.114 1_565 S
O115 C118 1.252 . S
O116 Mg106 2.251 . S
O116 Mg109 2.079 1_455 S
O116 C118 1.273 1_545 S
C117 O113 1.246 . S
C117 O114 1.259 . S
C118 O115 1.252 . S
C118 O116 1.273 1_565 S
O119 Mg106 2.010 . S
O119 C111 1.249 . S
Mg120 O121 2.028 . S
Mg120 O127 1.986 . S
Mg120 O129 2.114 1_545 S
Mg120 O130 2.251 . S
Mg120 O133 2.010 1_455 S
O121 Mg120 2.028 . S
O121 C124 1.250 . S
O122 Mg123 2.028 . S
O122 C124 1.248 . S
Mg123 O122 2.028 . S
Mg123 O128 2.032 . S
Mg123 O130 2.079 . S
C124 O121 1.250 . S
C124 O122 1.248 . S
C125 O126 1.264 . S
C125 O133 1.249 . S
O126 C125 1.264 . S
O127 Mg120 1.986 . S
O127 C131 1.246 . S
O128 Mg123 2.032 . S
O128 C131 1.259 . S
O129 Mg120 2.114 1_565 S
O129 C132 1.252 . S
O130 Mg120 2.251 . S
O130 Mg123 2.079 . S
O130 C132 1.273 1_545 S
C131 O127 1.246 . S
C131 O128 1.259 . S
C132 O129 1.252 . S
C132 O130 1.273 1_565 S
O133 Mg120 2.010 1_655 S
O133 C125 1.249 . S
H134 C142 0.929 . S
H135 C144 0.930 . S
H136 C146 0.930 . S
H137 C149 0.929 . S
H138 C152 0.930 1_565 S
H139 C154 0.960 . S
H140 C154 0.960 . S
H141 C154 0.960 . S
C142 H134 0.929 . S
C142 C143 1.377 . S
C142 C144 1.384 . S
C143 C142 1.377 . S
C143 C149 1.390 . S
C144 H135 0.930 . S
C144 C142 1.384 . S
C144 C145 1.372 . S
C145 C144 1.372 . S
C145 C146 1.400 . S
C145 C150 1.490 . S
C146 H136 0.930 . S
C146 C145 1.400 . S
C146 C149 1.386 . S
H147 C163 0.930 . S
H148 C164 0.931 . S
C149 H137 0.929 . S
C149 C143 1.390 . S
C149 C146 1.386 . S
C150 C145 1.490 . S
C150 C152 1.395 . S
C150 C153 1.403 . S
H151 C157 0.930 . S
C152 H138 0.930 1_545 S
C152 C150 1.395 . S
C152 C155 1.403 . S
C153 C150 1.403 . S
C153 C154 1.524 . S
C153 C157 1.400 . S
C154 H139 0.960 . S
C154 H140 0.960 . S
C154 H141 0.960 . S
C154 C153 1.524 . S
C155 C152 1.403 . S
C155 C156 1.392 . S
C155 C159 1.495 1_545 S
C156 C155 1.392 . S
C156 C157 1.385 . S
C156 C158 1.478 . S
C157 H151 0.930 . S
C157 C153 1.400 . S
C157 C156 1.385 . S
C158 C156 1.478 . S
C158 C160 1.381 . S
C158 C164 1.383 . S
C159 C155 1.495 1_565 S
C159 H165 0.959 . S
C159 H166 0.961 . S
C159 H167 0.960 . S
C160 C158 1.381 . S
C160 C161 1.394 . S
C160 H168 0.930 . S
C161 C160 1.394 . S
C161 C162 1.383 . S
C161 H169 0.929 . S
C162 C161 1.383 . S
C162 C163 1.377 . S
C163 H147 0.930 . S
C163 C162 1.377 . S
C163 C164 1.379 . S
C164 H148 0.931 . S
C164 C158 1.383 . S
C164 C163 1.379 . S
H165 C159 0.959 . S
H166 C159 0.961 . S
H167 C159 0.960 . S
H168 C160 0.930 . S
H169 C161 0.929 . S
H170 C178 0.929 . S
H171 C180 0.930 . S
H172 C182 0.930 1_655 S
H173 C185 0.929 1_655 S
H174 C188 0.930 . S
H175 C190 0.960 . S
H176 C190 0.960 . S
H177 C190 0.960 . S
C178 H170 0.929 . S
C178 C179 1.377 . S
C178 C180 1.384 . S
C179 C178 1.377 . S
C179 C185 1.390 . S
C180 H171 0.930 . S
C180 C178 1.384 . S
C180 C181 1.372 . S
C181 C180 1.372 . S
C181 C182 1.400 . S
C181 C186 1.490 . S
C182 H172 0.930 1_455 S
C182 C181 1.400 . S
C182 C185 1.386 . S
H183 C199 0.930 1_655 S
H184 C200 0.931 1_655 S
C185 H173 0.929 1_455 S
C185 C179 1.390 . S
C185 C182 1.386 . S
C186 C181 1.490 . S
C186 C188 1.395 . S
C186 C189 1.403 . S
H187 C193 0.930 1_655 S
C188 H174 0.930 . S
C188 C186 1.395 . S
C188 C191 1.403 . S
C189 C186 1.403 . S
C189 C190 1.524 1_455 S
C189 C193 1.400 . S
C190 H175 0.960 . S
C190 H176 0.960 . S
C190 H177 0.960 . S
C190 C189 1.524 1_655 S
C191 C188 1.403 . S
C191 C192 1.392 . S
C191 C195 1.495 . S
C192 C191 1.392 . S
C192 C193 1.385 . S
C192 C194 1.478 . S
C193 H187 0.930 1_455 S
C193 C189 1.400 . S
C193 C192 1.385 . S
C194 C192 1.478 . S
C194 C196 1.381 . S
C194 C200 1.383 . S
C195 C191 1.495 . S
C195 H201 0.959 . S
C195 H202 0.961 . S
C195 H203 0.960 . S
C196 C194 1.381 . S
C196 C197 1.394 . S
C196 H204 0.930 . S
C197 C196 1.394 . S
C197 C198 1.383 . S
C197 H205 0.929 . S
C198 C197 1.383 . S
C198 C199 1.377 . S
C199 H183 0.930 1_455 S
C199 C198 1.377 . S
C199 C200 1.379 . S
C200 H184 0.931 1_455 S
C200 C194 1.383 . S
C200 C199 1.379 . S
H201 C195 0.959 . S
H202 C195 0.961 . S
H203 C195 0.960 . S
H204 C196 0.930 . S
H205 C197 0.929 . S
H206 C214 0.929 . S
H207 C216 0.930 . S
H208 C218 0.930 . S
H209 C221 0.929 . S
H210 C224 0.930 . S
H211 C226 0.960 . S
H212 C226 0.960 . S
H213 C226 0.960 . S
C214 H206 0.929 . S
C214 C215 1.377 . S
C214 C216 1.384 . S
C215 C214 1.377 . S
C215 C221 1.390 . S
C216 H207 0.930 . S
C216 C214 1.384 . S
C216 C217 1.372 . S
C217 C216 1.372 . S
C217 C218 1.400 . S
C217 C222 1.490 . S
C218 H208 0.930 . S
C218 C217 1.400 . S
C218 C221 1.386 . S
H219 C235 0.921 1_565 S
H220 C236 0.931 1_565 S
C221 H209 0.929 . S
C221 C215 1.390 . S
C221 C218 1.386 . S
C222 C217 1.490 . S
C222 C224 1.395 . S
C222 C225 1.403 . S
H223 C229 0.930 . S
C224 H210 0.930 . S
C224 C222 1.395 . S
C224 C227 1.403 . S
C225 C222 1.403 . S
C225 C226 1.524 . S
C225 C229 1.400 . S
C226 H211 0.960 . S
C226 H212 0.960 . S
C226 H213 0.960 . S
C226 C225 1.524 . S
C227 C224 1.403 . S
C227 C228 1.392 . S
C227 C231 1.497 1_545 S
C228 C227 1.392 . S
C228 C229 1.385 . S
C228 C230 1.478 . S
C229 H223 0.930 . S
C229 C225 1.400 . S
C229 C228 1.385 . S
C230 C228 1.478 . S
C230 C232 1.381 . S
C230 C236 1.383 . S
C231 C227 1.497 1_565 S
C231 H237 0.958 . S
C231 H238 0.959 . S
C231 H239 0.962 1_565 S
C232 C230 1.381 . S
C232 C233 1.394 . S
C232 H240 0.930 . S
C233 C232 1.394 . S
C233 C234 1.383 . S
C233 H241 0.929 . S
C234 C233 1.383 . S
C234 C235 1.377 . S
C235 H219 0.921 1_545 S
C235 C234 1.377 . S
C235 C236 1.379 . S
C236 H220 0.931 1_545 S
C236 C230 1.383 . S
C236 C235 1.379 . S
H237 C231 0.958 . S
H238 C231 0.959 . S
H239 C231 0.962 1_545 S
H240 C232 0.930 . S
H241 C233 0.929 . S
H242 C250 0.929 1_655 S
H243 C252 0.930 1_655 S
H244 C254 0.930 . S
H245 C257 0.929 . S
H246 C260 0.930 . S
H247 C262 0.960 . S
H248 C262 0.960 . S
H249 C262 0.960 . S
C250 H242 0.929 1_455 S
C250 C251 1.377 . S
C250 C252 1.384 . S
C251 C250 1.377 . S
C251 C257 1.390 . S
C252 H243 0.930 1_455 S
C252 C250 1.384 . S
C252 C253 1.372 . S
C253 C252 1.372 . S
C253 C254 1.400 . S
C253 C258 1.490 . S
C254 H244 0.930 . S
C254 C253 1.400 . S
C254 C257 1.386 . S
H255 C271 0.930 . S
H256 C272 0.931 . S
C257 H245 0.929 . S
C257 C251 1.390 . S
C257 C254 1.386 . S
C258 C253 1.490 . S
C258 C260 1.395 . S
C258 C261 1.403 . S
H259 C265 0.930 . S
C260 H246 0.930 . S
C260 C258 1.395 . S
C260 C263 1.403 . S
C261 C258 1.403 . S
C261 C262 1.524 . S
C261 C265 1.400 . S
C262 H247 0.960 . S
C262 H248 0.960 . S
C262 H249 0.960 . S
C262 C261 1.524 . S
C263 C260 1.403 . S
C263 C264 1.392 . S
C263 C267 1.495 . S
C264 C263 1.392 . S
C264 C265 1.385 . S
C264 C266 1.478 . S
C265 H259 0.930 . S
C265 C261 1.400 . S
C265 C264 1.385 . S
C266 C264 1.478 . S
C266 C268 1.381 . S
C266 C272 1.383 . S
C267 C263 1.495 . S
C267 H273 0.959 . S
C267 H274 0.961 . S
C267 H275 0.960 . S
C268 C266 1.381 . S
C268 C269 1.397 . S
C268 H276 0.930 1_455 S
C269 C268 1.397 . S
C269 C270 1.406 . S
C269 H277 0.904 1_455 S
C270 C269 1.406 . S
C270 C271 1.377 . S
C271 H255 0.930 . S
C271 C270 1.377 . S
C271 C272 1.379 . S
C272 H256 0.931 . S
C272 C266 1.383 . S
C272 C271 1.379 . S
H273 C267 0.959 . S
H274 C267 0.961 . S
H275 C267 0.960 . S
H276 C268 0.930 1_655 S
H277 C269 0.904 1_655 S
H278 C286 0.929 1_565 S
H279 C288 0.930 1_565 S
H280 C290 0.930 . S
H281 C293 0.929 . S
H282 C296 0.930 . S
H283 C298 0.960 . S
H284 C298 0.960 . S
H285 C298 0.960 . S
C286 H278 0.929 1_545 S
C286 C287 1.377 . S
C286 C288 1.384 . S
C287 C286 1.377 . S
C287 C293 1.390 . S
C288 H279 0.930 1_545 S
C288 C286 1.384 . S
C288 C289 1.372 . S
C289 C288 1.372 . S
C289 C290 1.400 . S
C289 C294 1.490 . S
C290 H280 0.930 . S
C290 C289 1.400 . S
C290 C293 1.386 . S
H291 C307 0.930 . S
H292 C308 0.931 . S
C293 H281 0.929 . S
C293 C287 1.390 . S
C293 C290 1.386 . S
C294 C289 1.490 . S
C294 C296 1.395 . S
C294 C297 1.403 . S
H295 C301 0.930 . S
C296 H282 0.930 . S
C296 C294 1.395 . S
C296 C299 1.403 . S
C297 C294 1.403 . S
C297 C298 1.524 . S
C297 C301 1.400 . S
C298 H283 0.960 . S
C298 H284 0.960 . S
C298 H285 0.960 . S
C298 C297 1.524 . S
C299 C296 1.403 . S
C299 C300 1.392 . S
C299 C303 1.495 . S
C300 C299 1.392 . S
C300 C301 1.385 . S
C300 C302 1.478 . S
C301 H295 0.930 . S
C301 C297 1.400 . S
C301 C300 1.385 . S
C302 C300 1.478 . S
C302 C304 1.381 . S
C302 C308 1.383 . S
C303 C299 1.495 . S
C303 H309 0.959 . S
C303 H310 0.961 . S
C303 H311 0.960 . S
C304 C302 1.381 . S
C304 C305 1.394 . S
C304 H312 0.930 . S
C305 C304 1.394 . S
C305 C306 1.383 . S
C305 H313 0.929 . S
C306 C305 1.383 . S
C306 C307 1.377 . S
C307 H291 0.930 . S
C307 C306 1.377 . S
C307 C308 1.379 . S
C308 H292 0.931 . S
C308 C302 1.383 . S
C308 C307 1.379 . S
H309 C303 0.959 . S
H310 C303 0.961 . S
H311 C303 0.960 . S
H312 C304 0.930 . S
H313 C305 0.929 . S
H314 C322 0.929 . S
H315 C324 0.930 . S
H316 C326 0.928 . S
H317 C329 0.929 1_655 S
H318 C332 0.930 . S
H319 C334 0.960 . S
H320 C334 0.960 . S
H321 C334 0.960 . S
C322 H314 0.929 . S
C322 C323 1.377 . S
C322 C324 1.384 . S
C323 C322 1.377 . S
C323 C329 1.390 . S
C324 H315 0.930 . S
C324 C322 1.384 . S
C324 C325 1.372 . S
C325 C324 1.372 . S
C325 C326 1.400 . S
C325 C330 1.490 . S
C326 H316 0.928 . S
C326 C325 1.400 . S
C326 C329 1.386 . S
H327 C343 0.930 . S
H328 C344 0.938 . S
C329 H317 0.929 1_455 S
C329 C323 1.390 . S
C329 C326 1.386 . S
C330 C325 1.490 . S
C330 C332 1.395 . S
C330 C333 1.403 . S
H331 C337 0.930 . S
C332 H318 0.930 . S
C332 C330 1.395 . S
C332 C335 1.403 . S
C333 C330 1.403 . S
C333 C334 1.524 . S
C333 C337 1.400 . S
C334 H319 0.960 . S
C334 H320 0.960 . S
C334 H321 0.960 . S
C334 C333 1.524 . S
C335 C332 1.403 . S
C335 C336 1.392 . S
C335 C339 1.495 . S
C336 C335 1.392 . S
C336 C337 1.385 . S
C336 C338 1.478 . S
C337 H331 0.930 . S
C337 C333 1.400 . S
C337 C336 1.385 . S
C338 C336 1.478 . S
C338 C340 1.381 . S
C338 C344 1.383 . S
C339 C335 1.495 . S
C339 H345 0.959 . S
C339 H346 0.961 . S
C339 H347 0.960 . S
C340 C338 1.381 . S
C340 C341 1.394 . S
C340 H348 0.930 . S
C341 C340 1.394 . S
C341 C342 1.383 . S
C341 H349 0.929 . S
C342 C341 1.383 . S
C342 C343 1.377 . S
C343 H327 0.930 . S
C343 C342 1.377 . S
C343 C344 1.379 . S
C344 H328 0.938 . S
C344 C338 1.383 . S
C344 C343 1.379 . S
H345 C339 0.959 . S
H346 C339 0.961 . S
H347 C339 0.960 . S
H348 C340 0.930 . S
H349 C341 0.929 . S
H350 C358 0.929 1_565 S
H351 C360 0.930 1_565 S
H352 C362 0.930 . S
H353 C365 0.929 . S
H354 C368 0.930 . S
H355 C370 0.960 . S
H356 C370 0.960 . S
H357 C370 0.960 . S
C358 H350 0.929 1_545 S
C358 C359 1.377 . S
C358 C360 1.384 . S
C359 C358 1.377 . S
C359 C365 1.390 . S
C360 H351 0.930 1_545 S
C360 C358 1.384 . S
C360 C361 1.372 . S
C361 C360 1.372 . S
C361 C362 1.400 . S
C361 C366 1.490 . S
C362 H352 0.930 . S
C362 C361 1.400 . S
C362 C365 1.386 . S
H363 C379 0.930 . S
H364 C380 0.931 . S
C365 H353 0.929 . S
C365 C359 1.390 . S
C365 C362 1.386 . S
C366 C361 1.490 . S
C366 C368 1.395 . S
C366 C369 1.403 . S
H367 C373 0.930 . S
C368 H354 0.930 . S
C368 C366 1.395 . S
C368 C371 1.403 . S
C369 C366 1.403 . S
C369 C370 1.524 . S
C369 C373 1.400 . S
C370 H355 0.960 . S
C370 H356 0.960 . S
C370 H357 0.960 . S
C370 C369 1.524 . S
C371 C368 1.403 . S
C371 C372 1.392 . S
C371 C375 1.495 . S
C372 C371 1.392 . S
C372 C373 1.385 . S
C372 C374 1.478 . S
C373 H367 0.930 . S
C373 C369 1.400 . S
C373 C372 1.385 . S
C374 C372 1.478 . S
C374 C376 1.381 . S
C374 C380 1.383 . S
C375 C371 1.495 . S
C375 H381 0.959 . S
C375 H382 0.961 . S
C375 H383 0.960 . S
C376 C374 1.381 . S
C376 C377 1.394 . S
C376 H384 0.930 1_545 S
C377 C376 1.394 . S
C377 C378 1.383 . S
C377 H385 0.929 1_545 S
C378 C377 1.383 . S
C378 C379 1.377 . S
C379 H363 0.930 . S
C379 C378 1.377 . S
C379 C380 1.379 . S
C380 H364 0.931 . S
C380 C374 1.383 . S
C380 C379 1.379 . S
H381 C375 0.959 . S
H382 C375 0.961 . S
H383 C375 0.960 . S
H384 C376 0.930 1_565 S
H385 C377 0.929 1_565 S
H386 C394 0.929 . S
H387 C396 0.930 . S
H388 C398 0.930 . S
H389 C401 0.929 . S
H390 C404 0.930 . S
H391 C406 0.960 . S
H392 C406 0.960 . S
H393 C406 0.960 . S
C394 H386 0.929 . S
C394 C395 1.377 . S
C394 C396 1.384 . S
C395 C394 1.377 . S
C395 C401 1.390 . S
C396 H387 0.930 . S
C396 C394 1.384 . S
C396 C397 1.372 . S
C397 C396 1.372 . S
C397 C398 1.400 . S
C397 C402 1.490 . S
C398 H388 0.930 . S
C398 C397 1.400 . S
C398 C401 1.386 . S
H399 C415 0.930 . S
H400 C416 0.931 . S
C401 H389 0.929 . S
C401 C395 1.390 . S
C401 C398 1.386 . S
C402 C397 1.490 . S
C402 C404 1.395 . S
C402 C405 1.403 . S
H403 C409 0.930 . S
C404 H390 0.930 . S
C404 C402 1.395 . S
C404 C407 1.403 . S
C405 C402 1.403 . S
C405 C406 1.524 . S
C405 C409 1.400 . S
C406 H391 0.960 . S
C406 H392 0.960 . S
C406 H393 0.960 . S
C406 C405 1.524 . S
C407 C404 1.403 . S
C407 C408 1.392 . S
C407 C411 1.495 1_455 S
C408 C407 1.392 . S
C408 C409 1.385 . S
C408 C410 1.478 . S
C409 H403 0.930 . S
C409 C405 1.400 . S
C409 C408 1.385 . S
C410 C408 1.478 . S
C410 C412 1.381 . S
C410 C416 1.383 . S
C411 C407 1.495 1_655 S
C411 H417 0.959 . S
C411 H418 0.961 . S
C411 H419 0.960 . S
C412 C410 1.381 . S
C412 C413 1.394 . S
C412 H420 0.930 . S
C413 C412 1.394 . S
C413 C414 1.383 . S
C413 H421 0.929 . S
C414 C413 1.383 . S
C414 C415 1.377 . S
C415 H399 0.930 . S
C415 C414 1.377 . S
C415 C416 1.379 . S
C416 H400 0.931 . S
C416 C410 1.383 . S
C416 C415 1.379 . S
H417 C411 0.959 . S
H418 C411 0.961 . S
H419 C411 0.960 . S
H420 C412 0.930 . S
H421 C413 0.929 . S
C162 C111 1.292 . S
C143 C22 1.501 . S
C198 C131 1.461 . S
C179 C91 1.495 . S
C234 C110 1.438 . S
C215 C38 1.500 . S
C270 C132 1.503 . S
C251 C75 1.506 . S
C306 C124 1.481 . S
C287 C39 1.502 . S
C342 C117 1.454 . S
C323 C82 1.494 . S
C378 C125 1.204 . S
C359 C29 1.503 . S
C395 C92 1.505 . S
C414 C118 1.503 . S
