# Generated by pormake.
# Topology ocu, (6,8)-cn, num edge types: 1
# Building blocks:
#     Node 0, Type 0, BuildingBlock: JUFBIX_clean_sbu_0, # of connection points: 6
#     Node 1, Type 0, BuildingBlock: JUFBIX_clean_sbu_0, # of connection points: 6
#     Node 2, Type 0, BuildingBlock: JUFBIX_clean_sbu_0, # of connection points: 6
#     Node 3, Type 0, BuildingBlock: JUFBIX_clean_sbu_0, # of connection points: 6
#     Node 4, Type 0, BuildingBlock: JUFBIX_clean_sbu_0, # of connection points: 6
#     Node 5, Type 0, BuildingBlock: JUFBIX_clean_sbu_0, # of connection points: 6
#     Node 6, Type 0, BuildingBlock: JUFBIX_clean_sbu_0, # of connection points: 6
#     Node 7, Type 0, BuildingBlock: JUFBIX_clean_sbu_0, # of connection points: 6
#     Node 8, Type 1, BuildingBlock: GIZVER_clean_sbu_0, # of connection points: 8
#     Node 9, Type 1, BuildingBlock: GIZVER_clean_sbu_0, # of connection points: 8
#     Node 10, Type 1, BuildingBlock: GIZVER_clean_sbu_0, # of connection points: 8
#     Node 11, Type 1, BuildingBlock: GIZVER_clean_sbu_0, # of connection points: 8
#     Node 12, Type 1, BuildingBlock: GIZVER_clean_sbu_0, # of connection points: 8
#     Node 13, Type 1, BuildingBlock: GIZVER_clean_sbu_0, # of connection points: 8
#     Edge 14, Type (0, 1), BuildingBlock: KIFKEQ_clean_linker_1, # of connection points: 2
#     Edge 15, Type (0, 1), BuildingBlock: KIFKEQ_clean_linker_1, # of connection points: 2
#     Edge 16, Type (0, 1), BuildingBlock: KIFKEQ_clean_linker_1, # of connection points: 2
#     Edge 17, Type (0, 1), BuildingBlock: KIFKEQ_clean_linker_1, # of connection points: 2
#     Edge 18, Type (0, 1), BuildingBlock: KIFKEQ_clean_linker_1, # of connection points: 2
#     Edge 19, Type (0, 1), BuildingBlock: KIFKEQ_clean_linker_1, # of connection points: 2
#     Edge 20, Type (0, 1), BuildingBlock: KIFKEQ_clean_linker_1, # of connection points: 2
#     Edge 21, Type (0, 1), BuildingBlock: KIFKEQ_clean_linker_1, # of connection points: 2
#     Edge 22, Type (0, 1), BuildingBlock: KIFKEQ_clean_linker_1, # of connection points: 2
#     Edge 23, Type (0, 1), BuildingBlock: KIFKEQ_clean_linker_1, # of connection points: 2
#     Edge 24, Type (0, 1), BuildingBlock: KIFKEQ_clean_linker_1, # of connection points: 2
#     Edge 25, Type (0, 1), BuildingBlock: KIFKEQ_clean_linker_1, # of connection points: 2
#     Edge 26, Type (0, 1), BuildingBlock: KIFKEQ_clean_linker_1, # of connection points: 2
#     Edge 27, Type (0, 1), BuildingBlock: KIFKEQ_clean_linker_1, # of connection points: 2
#     Edge 28, Type (0, 1), BuildingBlock: KIFKEQ_clean_linker_1, # of connection points: 2
#     Edge 29, Type (0, 1), BuildingBlock: KIFKEQ_clean_linker_1, # of connection points: 2
#     Edge 30, Type (0, 1), BuildingBlock: KIFKEQ_clean_linker_1, # of connection points: 2
#     Edge 31, Type (0, 1), BuildingBlock: KIFKEQ_clean_linker_1, # of connection points: 2
#     Edge 32, Type (0, 1), BuildingBlock: KIFKEQ_clean_linker_1, # of connection points: 2
#     Edge 33, Type (0, 1), BuildingBlock: KIFKEQ_clean_linker_1, # of connection points: 2
#     Edge 34, Type (0, 1), BuildingBlock: KIFKEQ_clean_linker_1, # of connection points: 2
#     Edge 35, Type (0, 1), BuildingBlock: KIFKEQ_clean_linker_1, # of connection points: 2
#     Edge 36, Type (0, 1), BuildingBlock: KIFKEQ_clean_linker_1, # of connection points: 2
#     Edge 37, Type (0, 1), BuildingBlock: KIFKEQ_clean_linker_1, # of connection points: 2
#     Edge 38, Type (0, 1), BuildingBlock: KIFKEQ_clean_linker_1, # of connection points: 2
#     Edge 39, Type (0, 1), BuildingBlock: KIFKEQ_clean_linker_1, # of connection points: 2
#     Edge 40, Type (0, 1), BuildingBlock: KIFKEQ_clean_linker_1, # of connection points: 2
#     Edge 41, Type (0, 1), BuildingBlock: KIFKEQ_clean_linker_1, # of connection points: 2
#     Edge 42, Type (0, 1), BuildingBlock: KIFKEQ_clean_linker_1, # of connection points: 2
#     Edge 43, Type (0, 1), BuildingBlock: KIFKEQ_clean_linker_1, # of connection points: 2
#     Edge 44, Type (0, 1), BuildingBlock: KIFKEQ_clean_linker_1, # of connection points: 2
#     Edge 45, Type (0, 1), BuildingBlock: KIFKEQ_clean_linker_1, # of connection points: 2
#     Edge 46, Type (0, 1), BuildingBlock: KIFKEQ_clean_linker_1, # of connection points: 2
#     Edge 47, Type (0, 1), BuildingBlock: KIFKEQ_clean_linker_1, # of connection points: 2
#     Edge 48, Type (0, 1), BuildingBlock: KIFKEQ_clean_linker_1, # of connection points: 2
#     Edge 49, Type (0, 1), BuildingBlock: KIFKEQ_clean_linker_1, # of connection points: 2
#     Edge 50, Type (0, 1), BuildingBlock: KIFKEQ_clean_linker_1, # of connection points: 2
#     Edge 51, Type (0, 1), BuildingBlock: KIFKEQ_clean_linker_1, # of connection points: 2
#     Edge 52, Type (0, 1), BuildingBlock: KIFKEQ_clean_linker_1, # of connection points: 2
#     Edge 53, Type (0, 1), BuildingBlock: KIFKEQ_clean_linker_1, # of connection points: 2
#     Edge 54, Type (0, 1), BuildingBlock: KIFKEQ_clean_linker_1, # of connection points: 2
#     Edge 55, Type (0, 1), BuildingBlock: KIFKEQ_clean_linker_1, # of connection points: 2
#     Edge 56, Type (0, 1), BuildingBlock: KIFKEQ_clean_linker_1, # of connection points: 2
#     Edge 57, Type (0, 1), BuildingBlock: KIFKEQ_clean_linker_1, # of connection points: 2
#     Edge 58, Type (0, 1), BuildingBlock: KIFKEQ_clean_linker_1, # of connection points: 2
#     Edge 59, Type (0, 1), BuildingBlock: KIFKEQ_clean_linker_1, # of connection points: 2
#     Edge 60, Type (0, 1), BuildingBlock: KIFKEQ_clean_linker_1, # of connection points: 2
#     Edge 61, Type (0, 1), BuildingBlock: KIFKEQ_clean_linker_1, # of connection points: 2
# Relax obj value: 0.258
# Max RMSD: 0.325
# Mean RMSD: 0.220
data_MOF--net-ocu--node1-JUFBIX_clean_sbu_0--node2-GIZVER_clean_sbu_0--edge1-KIFKEQ_clean_linker_1
_symmetry_space_group_name_H-M    P1
_symmetry_Int_Tables_number       1
_symmetry_cell_setting            triclinic
loop_
_symmetry_equiv_pos_as_xyz
'x, y, z'
_cell_length_a     40.687713
_cell_length_b     42.850411
_cell_length_c     31.212475
_cell_angle_alpha  91.943696
_cell_angle_beta   93.652404
_cell_angle_gamma 100.2392
loop_
_atom_site_label
_atom_site_type_symbol
_atom_site_fract_x
_atom_site_fract_y
_atom_site_fract_z
_atom_type_partial_charge
Co0 Co 0.25575 0.26048 0.25543 0.0
C1 C 0.25012 0.31334 0.30871 0.0
Co2 Co 0.30001 0.29823 0.25871 0.0
C3 C 0.21408 0.19852 0.25683 0.0
C4 C 0.18604 0.23545 0.24442 0.0
N5 N 0.21746 0.23004 0.25178 0.0
N6 N 0.18164 0.18398 0.25311 0.0
C7 C 0.16403 0.20731 0.24525 0.0
H8 H 0.23505 0.1867 0.26392 0.0
H9 H 0.17947 0.25857 0.24002 0.0
C10 C 0.30542 0.24532 0.20534 0.0
N11 N 0.33812 0.32878 0.26238 0.0
C12 C 0.34092 0.36011 0.25625 0.0
C13 C 0.36972 0.32404 0.27061 0.0
N14 N 0.37313 0.37517 0.26006 0.0
C15 C 0.39126 0.35245 0.2692 0.0
C16 C 0.30408 0.25133 0.31867 0.0
O17 O 0.27582 0.23536 0.21591 0.0
O18 O 0.32026 0.2728 0.21946 0.0
O19 O 0.31857 0.27763 0.30551 0.0
O20 O 0.27488 0.23948 0.3022 0.0
O21 O 0.27956 0.32358 0.29775 0.0
H22 H 0.37672 0.30121 0.27589 0.0
H23 H 0.31974 0.37144 0.24822 0.0
O24 O 0.23567 0.28563 0.29514 0.0
O25 O 0.23698 0.28164 0.20875 0.0
O26 O 0.28148 0.31883 0.21171 0.0
C27 C 0.25221 0.30757 0.19526 0.0
H28 H 0.13703 0.20469 0.24259 0.0
H29 H 0.41831 0.35568 0.27222 0.0
Co30 Co 0.79002 0.27943 0.25401 0.0
C31 C 0.81181 0.326 0.31994 0.0
Co32 Co 0.75864 0.27776 0.3088 0.0
C33 C 0.83602 0.31072 0.19926 0.0
C34 C 0.83059 0.26052 0.18786 0.0
N35 N 0.8184 0.28293 0.21023 0.0
N36 N 0.85938 0.30676 0.17219 0.0
C37 C 0.85606 0.27526 0.16425 0.0
H38 H 0.8333 0.33359 0.21301 0.0
H39 H 0.82307 0.23521 0.19081 0.0
C40 C 0.73667 0.23088 0.24323 0.0
N41 N 0.73043 0.27538 0.35275 0.0
C42 C 0.71557 0.24863 0.36989 0.0
C43 C 0.71536 0.29845 0.36878 0.0
N44 N 0.69121 0.25377 0.39502 0.0
C45 C 0.69078 0.28507 0.39441 0.0
C46 C 0.73986 0.31515 0.24319 0.0
O47 O 0.7616 0.2447 0.22435 0.0
O48 O 0.73143 0.24131 0.28032 0.0
O49 O 0.73213 0.3041 0.27919 0.0
O50 O 0.76527 0.30788 0.22642 0.0
O51 O 0.78532 0.31386 0.33682 0.0
H52 H 0.72018 0.32292 0.35978 0.0
H53 H 0.72024 0.22529 0.36069 0.0
O54 O 0.81863 0.31415 0.28457 0.0
O55 O 0.81457 0.25127 0.28112 0.0
O56 O 0.78576 0.25113 0.33817 0.0
C57 C 0.80925 0.24202 0.31868 0.0
H58 H 0.8724 0.2638 0.1455 0.0
H59 H 0.67265 0.29692 0.40908 0.0
Co60 Co 0.77663 0.7637 0.28337 0.0
C61 C 0.83056 0.81377 0.30299 0.0
Co62 Co 0.78721 0.797 0.23197 0.0
C63 C 0.79282 0.7334 0.35838 0.0
C64 C 0.73969 0.72846 0.34815 0.0
N65 N 0.7686 0.73897 0.32994 0.0
N66 N 0.78057 0.72087 0.39422 0.0
C67 C 0.74703 0.71691 0.38778 0.0
H68 H 0.81925 0.73919 0.35331 0.0
H69 H 0.71509 0.73052 0.33452 0.0
C70 C 0.73318 0.74653 0.21296 0.0
N71 N 0.79629 0.82223 0.18603 0.0
C72 C 0.7741 0.82872 0.15533 0.0
C73 C 0.82636 0.83743 0.17498 0.0
N74 N 0.78901 0.8473 0.12569 0.0
C75 C 0.82183 0.85342 0.13814 0.0
C76 C 0.8204 0.74489 0.22796 0.0
O77 O 0.74059 0.73845 0.25062 0.0
O78 O 0.74988 0.77159 0.19891 0.0
O79 O 0.81563 0.77029 0.21071 0.0
O80 O 0.80598 0.73697 0.26202 0.0
O81 O 0.8241 0.82198 0.26518 0.0
H82 H 0.84999 0.83727 0.19284 0.0
H83 H 0.74727 0.82112 0.1556 0.0
O84 O 0.8129 0.78919 0.31635 0.0
O85 O 0.74752 0.79021 0.30413 0.0
O86 O 0.7586 0.82412 0.25374 0.0
C87 C 0.74355 0.81599 0.28728 0.0
H88 H 0.7293 0.70739 0.41054 0.0
H89 H 0.84087 0.86893 0.12235 0.0
Co90 Co 0.25912 0.80131 0.25714 0.0
C91 C 0.30682 0.81882 0.32592 0.0
Co92 Co 0.29474 0.76933 0.26417 0.0
C93 C 0.19571 0.81997 0.2506 0.0
C94 C 0.23539 0.85991 0.24866 0.0
N95 N 0.22918 0.82814 0.25086 0.0
N96 N 0.18053 0.84546 0.2505 0.0
C97 C 0.20555 0.87064 0.24849 0.0
H98 H 0.18292 0.79583 0.25346 0.0
H99 H 0.26009 0.87446 0.25008 0.0
C100 C 0.24578 0.75164 0.19601 0.0
N101 N 0.32445 0.74227 0.26923 0.0
C102 C 0.33486 0.72777 0.23536 0.0
C103 C 0.33889 0.7308 0.30405 0.0
N104 N 0.35457 0.70721 0.2472 0.0
C105 C 0.3579 0.70915 0.29039 0.0
C106 C 0.23692 0.7484 0.30883 0.0
O107 O 0.23721 0.7774 0.20795 0.0
O108 O 0.27129 0.74381 0.21537 0.0
O109 O 0.26574 0.74284 0.30106 0.0
O110 O 0.22869 0.77357 0.29386 0.0
O111 O 0.31742 0.79434 0.31255 0.0
H112 H 0.3353 0.73726 0.337 0.0
H113 H 0.32798 0.73207 0.20228 0.0
O114 O 0.28062 0.82579 0.30704 0.0
O115 O 0.28954 0.82851 0.22089 0.0
O116 O 0.32464 0.79579 0.22685 0.0
C117 C 0.31775 0.82159 0.21245 0.0
H118 H 0.20301 0.89533 0.25157 0.0
H119 H 0.37217 0.69541 0.31033 0.0
Co120 Co 0.30637 0.77697 0.71812 0.0
C121 C 0.32599 0.82392 0.78365 0.0
Co122 Co 0.27447 0.77309 0.77268 0.0
C123 C 0.34955 0.80785 0.65853 0.0
C124 C 0.34974 0.75796 0.65687 0.0
N125 N 0.3346 0.78052 0.67414 0.0
N126 N 0.3741 0.80355 0.63322 0.0
C127 C 0.37447 0.7722 0.63201 0.0
H128 H 0.34475 0.8309 0.6689 0.0
H129 H 0.34488 0.73319 0.66448 0.0
C130 C 0.25513 0.72627 0.70719 0.0
N131 N 0.24663 0.76886 0.81735 0.0
C132 C 0.2149 0.75289 0.81524 0.0
C133 C 0.25472 0.77594 0.85956 0.0
N134 N 0.20316 0.74843 0.85436 0.0
C135 C 0.22804 0.76336 0.88242 0.0
C136 C 0.25338 0.80958 0.7076 0.0
O137 O 0.27988 0.74103 0.68907 0.0
O138 O 0.2488 0.7361 0.74398 0.0
O139 O 0.24674 0.79836 0.74391 0.0
O140 O 0.2792 0.80364 0.69013 0.0
O141 O 0.30027 0.8098 0.80055 0.0
H142 H 0.27919 0.7874 0.8731 0.0
H143 H 0.2017 0.74215 0.78576 0.0
O144 O 0.33336 0.81334 0.74766 0.0
O145 O 0.33293 0.75033 0.74622 0.0
O146 O 0.30227 0.74756 0.80154 0.0
C147 C 0.32688 0.74003 0.78308 0.0
H148 H 0.39257 0.76079 0.61653 0.0
H149 H 0.22795 0.76333 0.91707 0.0
Co150 Co 0.27878 0.25829 0.78829 0.0
C151 C 0.33514 0.30708 0.80195 0.0
Co152 Co 0.28869 0.28962 0.73455 0.0
C153 C 0.29554 0.22909 0.8648 0.0
C154 C 0.24245 0.22442 0.85437 0.0
N155 N 0.27146 0.23512 0.83648 0.0
N156 N 0.28303 0.21567 0.90004 0.0
C157 C 0.24952 0.21206 0.89348 0.0
H158 H 0.32198 0.23453 0.85966 0.0
H159 H 0.21788 0.22632 0.84048 0.0
C160 C 0.2323 0.24105 0.72107 0.0
N161 N 0.29556 0.31251 0.68611 0.0
C162 C 0.27081 0.31866 0.65891 0.0
C163 C 0.32378 0.32078 0.66551 0.0
N164 N 0.28204 0.32949 0.62161 0.0
C165 C 0.31552 0.33157 0.62575 0.0
C166 C 0.31892 0.23562 0.73081 0.0
O167 O 0.24016 0.23338 0.75876 0.0
O168 O 0.25007 0.26467 0.70546 0.0
O169 O 0.3149 0.26093 0.71277 0.0
O170 O 0.3056 0.22938 0.76612 0.0
O171 O 0.32741 0.31453 0.76402 0.0
H172 H 0.34842 0.31766 0.67767 0.0
H173 H 0.24475 0.31453 0.66604 0.0
O174 O 0.31739 0.28339 0.8176 0.0
O175 O 0.25249 0.2871 0.8101 0.0
O176 O 0.26193 0.3184 0.75645 0.0
C177 C 0.24848 0.31226 0.79164 0.0
H178 H 0.2316 0.20182 0.9156 0.0
H179 H 0.33256 0.33927 0.60137 0.0
Co180 Co 0.77034 0.28694 0.74827 0.0
C181 C 0.81766 0.30476 0.81736 0.0
Co182 Co 0.80622 0.25516 0.75548 0.0
C183 C 0.72052 0.31808 0.77562 0.0
C184 C 0.72906 0.32934 0.71062 0.0
N185 N 0.73917 0.31263 0.74332 0.0
N186 N 0.69879 0.337 0.76469 0.0
C187 C 0.7042 0.34484 0.72402 0.0
H188 H 0.72345 0.30902 0.80733 0.0
H189 H 0.73917 0.33029 0.67938 0.0
C190 C 0.75972 0.23753 0.6859 0.0
N191 N 0.83723 0.22948 0.76231 0.0
C192 C 0.87066 0.23872 0.76416 0.0
C193 C 0.83207 0.19778 0.76554 0.0
N194 N 0.88687 0.21398 0.76682 0.0
C195 C 0.86254 0.18817 0.76825 0.0
C196 C 0.74793 0.23339 0.7991 0.0
O197 O 0.74923 0.26223 0.69874 0.0
O198 O 0.78547 0.23026 0.70558 0.0
O199 O 0.77659 0.22718 0.79176 0.0
O200 O 0.7406 0.2587 0.78389 0.0
O201 O 0.8271 0.2796 0.80464 0.0
H202 H 0.80776 0.18251 0.76372 0.0
H203 H 0.88284 0.26305 0.76116 0.0
O204 O 0.79182 0.31225 0.79824 0.0
O205 O 0.79944 0.31483 0.71298 0.0
O206 O 0.83613 0.28357 0.7189 0.0
C207 C 0.82816 0.30913 0.70484 0.0
H208 H 0.69121 0.36048 0.70561 0.0
H209 H 0.86619 0.16375 0.76691 0.0
Co210 Co 0.76518 0.75698 0.75638 0.0
C211 C 0.75824 0.80874 0.81064 0.0
Co212 Co 0.80908 0.7951 0.76108 0.0
C213 C 0.72581 0.69455 0.75612 0.0
C214 C 0.69578 0.72982 0.74281 0.0
N215 N 0.72763 0.7259 0.75112 0.0
N216 N 0.69396 0.67865 0.75174 0.0
C217 C 0.67502 0.70085 0.74321 0.0
H218 H 0.74745 0.68381 0.7639 0.0
H219 H 0.68805 0.75243 0.73825 0.0
C220 C 0.81617 0.74325 0.70699 0.0
N221 N 0.84703 0.82592 0.76646 0.0
C222 C 0.8502 0.8576 0.76317 0.0
C223 C 0.87847 0.82064 0.77423 0.0
N224 N 0.88253 0.87237 0.76845 0.0
C225 C 0.90027 0.84902 0.77542 0.0
C226 C 0.81241 0.74731 0.8202 0.0
O227 O 0.78656 0.73271 0.71707 0.0
O228 O 0.8303 0.77084 0.72145 0.0
O229 O 0.82745 0.77364 0.80766 0.0
O230 O 0.78346 0.73588 0.80296 0.0
O231 O 0.78784 0.81932 0.8005 0.0
H232 H 0.8852 0.79749 0.77765 0.0
H233 H 0.82918 0.86939 0.75627 0.0
O234 O 0.74393 0.78123 0.79596 0.0
O235 O 0.74683 0.77809 0.71002 0.0
O236 O 0.79039 0.81645 0.71441 0.0
C237 C 0.76134 0.8046 0.69747 0.0
H238 H 0.64794 0.69687 0.74007 0.0
H239 H 0.92728 0.85184 0.77885 0.0
Co240 Co 0.05919 0.95744 0.514 0.0
Co241 Co 0.07927 0.99518 0.57896 0.0
Co242 Co 0.03272 1.02671 0.51244 0.0
O243 O 0.06894 1.00223 0.52299 0.0
H244 H 0.0891 1.01176 0.51014 0.0
O245 O 0.99627 0.0512 0.50217 0.0
Co246 Co 1.0068 0.09595 0.51144 0.0
Co247 Co 0.98663 0.05926 0.44665 0.0
H248 H 0.97604 0.04173 0.51491 0.0
O249 O 0.12161 0.98941 0.59558 0.0
O250 O 0.07701 0.95134 0.5741 0.0
O251 O 0.04963 1.00752 0.61912 0.0
O252 O 1.01155 1.01626 0.56821 0.0
O253 O 0.06216 0.06407 0.54117 0.0
O254 O 1.01397 0.13697 0.52437 0.0
O255 O 0.96885 0.09938 0.53394 0.0
O256 O 0.05008 0.097 0.49274 0.0
O257 O 0.05404 0.03718 0.45665 0.0
O258 O 1.01654 0.04789 0.40637 0.0
O259 O 0.98733 0.10284 0.45222 0.0
O260 O 0.94431 0.06322 0.42941 0.0
C261 C 0.08187 0.92603 0.48506 0.0
C262 C 0.99524 0.96303 0.50104 0.0
C263 C 1.02065 1.01263 0.60746 0.0
C264 C 0.10826 0.95956 0.58924 0.0
C265 C 0.98613 0.12786 0.54231 0.0
C266 C 0.06893 0.0908 0.52427 0.0
C267 C 0.04523 0.04197 0.41767 0.0
C268 C 0.95644 0.09333 0.43597 0.0
O269 O 0.05346 0.91638 0.50146 0.0
O270 O 0.09816 0.95483 0.49369 0.0
O271 O 1.00301 0.98951 0.48378 0.0
O272 O 1.01482 0.95512 0.53062 0.0
Co273 Co 0.57321 0.96866 0.97392 0.0
Co274 Co 0.57337 0.98121 0.05612 0.0
Co275 Co 0.53315 0.02839 1.0084 0.0
O276 O 0.57257 1.00648 1.00923 0.0
H277 H 0.59346 1.02134 0.00957 0.0
O278 O 0.49339 0.05033 1.00733 0.0
Co279 Co 0.4904 0.08533 0.0472 0.0
Co280 Co 0.49409 0.07982 0.96526 0.0
H281 H 0.47259 0.03526 1.00392 0.0
O282 O 0.61429 0.97699 0.07938 0.0
O283 O 0.58175 0.94618 0.02675 0.0
O284 O 0.53366 0.96897 0.08565 0.0
O285 O 0.50237 0.99529 0.04446 0.0
O286 O 0.5539 0.05325 0.0617 0.0
O287 O 0.48482 0.11638 0.08364 0.0
O288 O 0.4448 0.0776 0.05341 0.0
O289 O 0.53701 0.09846 0.04728 0.0
O290 O 0.56399 0.06147 0.97237 0.0
O291 O 0.53525 0.09522 0.941 0.0
O292 O 0.48334 0.11197 0.99836 0.0
O293 O 0.45401 0.0855 0.94016 0.0
C294 C 0.60851 0.94725 0.94366 0.0
C295 C 0.5069 0.97265 0.95518 0.0
C296 C 0.50515 0.97492 0.07381 0.0
C297 C 0.60953 0.95329 0.0512 0.0
C298 C 0.45339 0.10333 0.07849 0.0
C299 C 0.55733 0.08336 0.06645 0.0
C300 C 0.56263 0.0856 0.94858 0.0
C301 C 0.45684 0.10677 0.97154 0.0
O302 O 0.57693 0.93454 0.94152 0.0
O303 O 0.61825 0.97458 0.96499 0.0
O304 O 0.51282 1.00294 0.95549 0.0
O305 O 0.52624 0.95749 0.97645 0.0
Co306 Co 0.0733 0.46677 0.97591 0.0
Co307 Co 0.08773 0.49174 0.05189 0.0
Co308 Co 1.03223 0.52734 1.00667 0.0
O309 O 0.07369 0.5084 1.00147 0.0
H310 H 0.09182 0.5238 0.99202 0.0
O311 O 0.99088 0.54634 0.01261 0.0
Co312 Co 0.99261 0.58906 0.03537 0.0
Co313 Co 0.97557 0.56068 0.96144 0.0
H314 H 0.97311 0.53153 0.0239 0.0
O315 O 0.13167 0.48898 0.06459 0.0
O316 O 0.09131 0.45109 0.03169 0.0
O317 O 0.05711 0.48666 0.09628 0.0
O318 O 1.01593 0.50049 0.05504 0.0
O319 O 0.05906 0.56123 0.0471 0.0
O320 O 0.99077 0.62694 0.05909 0.0
O321 O 0.951 0.58297 0.0555 0.0
O322 O 0.03779 0.60112 0.01982 0.0
O323 O 0.04807 0.55408 0.95777 0.0
O324 O 1.0046 0.5623 0.91535 0.0
O325 O 0.97372 0.60243 0.97879 0.0
O326 O 0.93165 0.56433 0.95019 0.0
C327 C 0.10606 0.44555 0.94235 0.0
C328 C 1.00324 0.46388 0.97152 0.0
C329 C 1.02639 0.48754 0.08818 0.0
C330 C 0.12127 0.45961 0.05123 0.0
C331 C 0.9613 0.61266 0.06843 0.0
C332 C 0.06157 0.59083 0.04034 0.0
C333 C 0.03582 0.56395 0.92313 0.0
C334 C 0.94313 0.59398 0.96122 0.0
O335 O 0.07642 0.43012 0.94904 0.0
O336 O 0.1155 0.47464 0.95813 0.0
O337 O 1.00539 0.49361 0.96612 0.0
O338 O 1.02772 0.45304 0.98948 0.0
Co339 Co 0.56851 0.46026 0.02052 0.0
Co340 Co 0.57861 0.50227 0.08334 0.0
Co341 Co 0.53545 0.52566 1.00632 0.0
O342 O 0.57324 0.50518 0.02505 0.0
H343 H 0.594 0.51582 0.01468 0.0
O344 O 0.4973 0.54552 0.98734 0.0
Co345 Co 0.49922 0.58942 0.9968 0.0
Co346 Co 0.49209 0.55186 0.93016 0.0
H347 H 0.47662 0.53329 0.99583 0.0
O348 O 0.61918 0.49744 0.10973 0.0
O349 O 0.57693 0.45852 0.08413 0.0
O350 O 0.54429 0.51553 0.11522 0.0
O351 O 0.5087 0.51236 0.05716 0.0
O352 O 0.55796 0.56455 0.03971 0.0
O353 O 0.49615 0.62932 1.00916 0.0
O354 O 0.45624 0.58515 1.00452 0.0
O355 O 0.5465 0.59885 0.99243 0.0
O356 O 0.56226 0.53906 0.95547 0.0
O357 O 0.52727 0.54153 0.8979 0.0
O358 O 0.49088 0.59518 0.934 0.0
O359 O 0.45134 0.55569 0.90331 0.0
C360 C 0.59911 0.43083 1.005 0.0
C361 C 0.50459 0.46036 0.99046 0.0
C362 C 0.51494 0.51431 0.09799 0.0
C363 C 0.60627 0.46743 0.10476 0.0
C364 C 0.46598 0.61502 0.01573 0.0
C365 C 0.56393 0.59208 0.02494 0.0
C366 C 0.55612 0.54 0.91481 0.0
C367 C 0.46244 0.58582 0.91144 0.0
O368 O 0.56855 0.41942 0.0136 0.0
O369 O 0.61138 0.46086 0.01272 0.0
O370 O 0.51283 0.48685 0.97343 0.0
O371 O 0.52114 0.45388 0.02405 0.0
Co372 Co 0.0977 0.48798 0.50709 0.0
Co373 Co 0.07065 0.49614 0.4328 0.0
Co374 Co 0.0339 0.52849 0.50806 0.0
O375 O 0.05328 0.49148 0.48633 0.0
H376 H 0.03767 0.47169 0.48686 0.0
O377 O 1.01461 0.56556 0.5298 0.0
Co378 Co 0.97066 0.56945 0.5079 0.0
Co379 Co 0.9962 0.56105 0.58255 0.0
H380 H 1.03039 0.58527 0.5297 0.0
O381 O 0.07418 0.46057 0.39847 0.0
O382 O 0.11292 0.48703 0.44737 0.0
O383 O 0.07823 0.53823 0.41276 0.0
O384 O 0.0626 0.56242 0.47063 0.0
O385 O 0.9979 0.51819 0.46099 0.0
O386 O 0.93202 0.57556 0.48692 0.0
O387 O 0.97722 0.61255 0.50875 0.0
O388 O 0.95788 0.52496 0.50283 0.0
O389 O 1.00512 0.49458 0.54551 0.0
O390 O 0.98787 0.5189 0.60219 0.0
O391 O 0.95438 0.57091 0.56706 0.0
O392 O 0.99286 0.59665 0.61687 0.0
C393 C 0.12313 0.45255 0.52031 0.0
C394 C 0.10018 0.54584 0.54542 0.0
C395 C 0.07721 0.56355 0.4346 0.0
C396 C 0.10387 0.46413 0.41794 0.0
C397 C 0.94616 0.6051 0.49294 0.0
C398 C 0.96775 0.51091 0.47089 0.0
C399 C 0.98967 0.49354 0.58092 0.0
C400 C 0.96341 0.59356 0.59685 0.0
O401 O 0.13688 0.48218 0.52672 0.0
O402 O 0.09177 0.44491 0.50571 0.0
O403 O 0.06994 0.53871 0.55506 0.0
O404 O 0.1099 0.53255 0.51271 0.0
Co405 Co 0.60179 0.98676 0.52241 0.0
Co406 Co 0.57639 0.99066 0.4485 0.0
Co407 Co 0.53274 0.02772 0.50826 0.0
O408 O 0.55681 0.99045 0.4993 0.0
H409 H 0.54162 0.97047 0.50036 0.0
O410 O 0.50861 0.06505 0.51727 0.0
Co411 Co 0.46387 0.06904 0.49309 0.0
Co412 Co 0.48718 0.06309 0.56652 0.0
H413 H 0.52388 0.0851 0.51763 0.0
O414 O 0.57445 0.95337 0.41819 0.0
O415 O 0.61726 0.97974 0.46317 0.0
O416 O 0.57968 0.02998 0.42128 0.0
O417 O 0.53235 0.03942 0.44626 0.0
O418 O 0.4902 0.99616 0.49515 0.0
O419 O 0.42518 0.07556 0.46932 0.0
O420 O 0.47103 0.11241 0.48724 0.0
O421 O 0.44937 1.02467 0.49333 0.0
O422 O 0.53308 1.01576 0.57021 0.0
O423 O 0.4845 1.02366 0.59311 0.0
O424 O 0.44681 0.07485 0.5519 0.0
O425 O 0.4892 0.09876 0.59963 0.0
C426 C 0.62561 0.95111 0.54582 0.0
C427 C 0.60637 0.05746 0.52292 0.0
C428 C 0.55724 0.04699 0.42334 0.0
C429 C 0.60517 0.95668 0.43459 0.0
C430 C 0.44021 0.10496 0.47005 0.0
C431 C 0.45925 0.99816 0.49182 0.0
C432 C 0.50812 1.00794 0.59297 0.0
C433 C 0.4585 0.09596 0.58328 0.0
O434 O 0.64086 0.98038 0.54527 0.0
O435 O 0.59451 0.94362 0.52972 0.0
O436 O 0.57535 0.05927 0.52131 0.0
O437 O 0.61643 0.03106 0.52046 0.0
H438 H 0.21235 0.14279 0.29899 0.0
H439 H 0.11963 0.15134 0.22873 0.0
H440 H 0.18485 0.09408 0.32852 0.0
H441 H 0.09152 0.10466 0.26092 0.0
H442 H 0.0371 0.03166 0.33047 0.0
H443 H 0.07676 0.05307 0.27888 0.0
H444 H 0.15024 0.08754 0.38406 0.0
H445 H 0.11162 0.06415 0.4346 0.0
C446 C 0.18626 0.13412 0.2892 0.0
C447 C 0.16786 0.15183 0.26284 0.0
C448 C 0.17033 0.10624 0.30658 0.0
C449 C 0.13558 0.09586 0.29861 0.0
C450 C 0.11822 0.11166 0.2683 0.0
C451 C 0.13426 0.13907 0.25033 0.0
C452 C 0.06221 0.04287 0.34219 0.0
C453 C 0.07109 0.04696 0.38645 0.0
C454 C 0.08489 0.05538 0.31272 0.0
C455 C 0.1164 0.0732 0.32715 0.0
C456 C 0.12638 0.07406 0.3713 0.0
C457 C 0.10404 0.06078 0.40059 0.0
H458 H 0.8465 0.20545 0.27751 0.0
H459 H 0.82068 0.23104 0.40451 0.0
H460 H 0.8825 0.17109 0.30846 0.0
H461 H 0.85766 0.19671 0.43568 0.0
H462 H 0.9621 0.1567 0.46086 0.0
H463 H 0.92585 0.19368 0.43572 0.0
H464 H 0.86748 0.11893 0.35245 0.0
H465 H 0.90272 0.08212 0.37775 0.0
C466 C 0.84858 0.20383 0.31212 0.0
C467 C 0.83055 0.22088 0.33854 0.0
C468 C 0.86923 0.18413 0.32979 0.0
C469 C 0.87291 0.18132 0.37442 0.0
C470 C 0.85538 0.19866 0.40115 0.0
C471 C 0.83407 0.21804 0.38332 0.0
C472 C 0.94147 0.14822 0.4373 0.0
C473 C 0.93538 0.11646 0.4213 0.0
C474 C 0.92064 0.16929 0.42318 0.0
C475 C 0.89391 0.15909 0.39215 0.0
C476 C 0.88794 0.12743 0.37628 0.0
C477 C 0.90819 0.10636 0.39089 0.0
H478 H 0.87135 0.86953 0.28701 0.0
H479 H 0.84815 0.80264 0.38609 0.0
H480 H 0.91052 0.90403 0.33813 0.0
H481 H 0.88682 0.83737 0.4373 0.0
H482 H 0.98524 0.89777 0.50305 0.0
H483 H 0.94636 0.85996 0.45506 0.0
H484 H 0.90511 0.93745 0.40123 0.0
H485 H 0.94413 0.97502 0.44816 0.0
C486 C 0.87474 0.8621 0.31958 0.0
C487 C 0.85652 0.83345 0.33253 0.0
C488 C 0.89697 0.88195 0.34897 0.0
C489 C 0.9014 0.87359 0.39192 0.0
C490 C 0.88406 0.84441 0.40445 0.0
C491 C 0.86183 0.82457 0.37507 0.0
C492 C 0.96753 0.90662 0.4814 0.0
C493 C 0.9681 0.93938 0.47888 0.0
C494 C 0.94531 0.88499 0.45388 0.0
C495 C 0.92324 0.89583 0.42364 0.0
C496 C 0.9225 0.92843 0.42321 0.0
C497 C 0.94465 0.94992 0.45043 0.0
H498 H 0.14368 0.89175 0.24047 0.0
H499 H 0.14517 0.80256 0.30077 0.0
H500 H 0.10903 0.90677 0.29581 0.0
H501 H 0.11065 0.81757 0.35518 0.0
H502 H 0.05041 0.86738 0.45284 0.0
H503 H 0.06009 0.84201 0.38444 0.0
H504 H 0.14533 0.91604 0.37081 0.0
H505 H 0.13618 0.94119 0.43871 0.0
C506 C 0.13544 0.8748 0.26425 0.0
C507 C 0.1489 0.84695 0.26777 0.0
C508 C 0.11558 0.88334 0.29576 0.0
C509 C 0.1087 0.86379 0.33044 0.0
C510 C 0.11625 0.83321 0.32901 0.0
C511 C 0.13621 0.8247 0.29761 0.0
C512 C 0.07164 0.87785 0.43563 0.0
C513 C 0.09243 0.90644 0.45091 0.0
C514 C 0.07674 0.86359 0.39633 0.0
C515 C 0.10241 0.87799 0.37184 0.0
C516 C 0.12446 0.9053 0.38848 0.0
C517 C 0.11963 0.91932 0.42775 0.0
H518 H 0.26534 0.84669 0.63833 0.0
H519 H 0.1909 0.81703 0.72846 0.0
H520 H 0.22931 0.8806 0.60531 0.0
H521 H 0.155 0.85083 0.69541 0.0
H522 H 0.08705 0.89597 0.60153 0.0
H523 H 0.12135 0.85758 0.62649 0.0
H524 H 0.20993 0.93018 0.62906 0.0
H525 H 0.17598 0.9683 0.60449 0.0
C526 C 0.24124 0.84724 0.65094 0.0
C527 C 0.23115 0.8293 0.68624 0.0
C528 C 0.22064 0.86673 0.63209 0.0
C529 C 0.18927 0.86842 0.64774 0.0
C530 C 0.17883 0.84983 0.6823 0.0
C531 C 0.19958 0.83066 0.70146 0.0
C532 C 0.11387 0.90361 0.60714 0.0
C533 C 0.12869 0.93528 0.60137 0.0
C534 C 0.13348 0.88169 0.62159 0.0
C535 C 0.16838 0.89085 0.62984 0.0
C536 C 0.18321 0.92224 0.62268 0.0
C537 C 0.16364 0.94417 0.60886 0.0
H538 H 0.20337 0.25692 0.64568 0.0
H539 H 0.19851 0.18169 0.73504 0.0
H540 H 0.16064 0.22373 0.59771 0.0
H541 H 0.15667 0.14807 0.68651 0.0
H542 H 0.06479 0.10122 0.60922 0.0
H543 H 0.10062 0.14053 0.6574 0.0
H544 H 0.15447 0.17789 0.54974 0.0
H545 H 0.11718 0.13901 0.5011 0.0
C546 C 0.19307 0.2333 0.65513 0.0
C547 C 0.20432 0.22186 0.69411 0.0
C548 C 0.16874 0.21421 0.62747 0.0
C549 C 0.15527 0.18317 0.63806 0.0
C550 C 0.16606 0.17204 0.67757 0.0
C551 C 0.19016 0.19124 0.7054 0.0
C552 C 0.08414 0.11805 0.59586 0.0
C553 C 0.08872 0.11693 0.55166 0.0
C554 C 0.10479 0.14046 0.62348 0.0
C555 C 0.13091 0.16196 0.60767 0.0
C556 C 0.13449 0.16176 0.563 0.0
C557 C 0.11333 0.13951 0.53512 0.0
H558 H 0.92593 0.17067 0.7854 0.0
H559 H 0.92262 0.25564 0.71567 0.0
H560 H 0.96346 0.15453 0.73451 0.0
H561 H 0.95983 0.23951 0.66548 0.0
H562 H 0.93481 0.11304 0.59361 0.0
H563 H 0.92737 0.14037 0.66056 0.0
H564 H 1.01041 0.21471 0.63866 0.0
H565 H 1.01833 0.18713 0.57111 0.0
C566 C 0.93447 0.18662 0.76061 0.0
C567 C 0.9197 0.21328 0.7529 0.0
C568 C 0.956 0.17747 0.73166 0.0
C569 C 0.96297 0.19518 0.69525 0.0
C570 C 0.9542 0.22523 0.69298 0.0
C571 C 0.93266 0.23438 0.72191 0.0
C572 C 0.9513 0.13536 0.60263 0.0
C573 C 0.97716 0.14788 0.57715 0.0
C574 C 0.94752 0.15063 0.64143 0.0
C575 C 0.96932 0.17885 0.65536 0.0
C576 C 0.99398 0.19249 0.62891 0.0
C577 C 0.99805 0.17697 0.59009 0.0
H578 H 0.8522 0.91471 0.72435 0.0
H579 H 0.94406 0.90483 0.79561 0.0
H580 H 0.88024 0.96389 0.69664 0.0
H581 H 0.97278 0.95191 0.76505 0.0
H582 H 1.02911 1.02302 0.69475 0.0
H583 H 0.98897 1.003 0.74649 0.0
H584 H 0.91483 0.97002 0.64145 0.0
H585 H 0.95393 0.99205 0.59084 0.0
C586 C 0.87821 0.92318 0.73476 0.0
C587 C 0.89629 0.90491 0.76063 0.0
C588 C 0.89447 0.95134 0.71843 0.0
C589 C 0.92923 0.96136 0.72685 0.0
C590 C 0.94612 0.94515 0.75716 0.0
C591 C 0.92973 0.9175 0.77418 0.0
C592 C 1.00381 1.01239 0.6831 0.0
C593 C 0.99486 1.00825 0.63885 0.0
C594 C 0.98082 1.00072 0.71266 0.0
C595 C 0.94891 0.98366 0.69834 0.0
C596 C 0.93898 0.98289 0.65419 0.0
C597 C 0.96164 0.99535 0.62482 0.0
H598 H 0.28529 0.18192 0.18128 0.0
H599 H 0.36753 0.26015 0.17435 0.0
H600 H 0.31852 0.14587 0.14969 0.0
H601 H 0.40027 0.22448 0.14197 0.0
H602 H 0.46607 0.1509 0.14023 0.0
H603 H 0.42865 0.18387 0.16681 0.0
H604 H 0.3464 0.12888 0.08737 0.0
H605 H 0.38435 0.09493 0.06104 0.0
C606 C 0.31022 0.19159 0.17234 0.0
C607 C 0.32374 0.22403 0.18078 0.0
C608 C 0.3293 0.17085 0.15409 0.0
C609 C 0.36243 0.18197 0.14384 0.0
C610 C 0.37522 0.21472 0.1504 0.0
C611 C 0.35627 0.23536 0.16871 0.0
C612 C 0.43996 0.14545 0.12852 0.0
C613 C 0.42842 0.12016 0.09823 0.0
C614 C 0.41844 0.16474 0.14353 0.0
C615 C 0.38446 0.15968 0.12871 0.0
C616 C 0.37237 0.13355 0.09966 0.0
C617 C 0.39411 0.11397 0.08464 0.0
H618 H 0.87994 0.32211 0.09417 0.0
H619 H 0.89904 0.34626 0.22973 0.0
H620 H 0.9213 0.36887 0.07853 0.0
H621 H 0.94042 0.39266 0.21452 0.0
H622 H 0.0371 0.45067 0.15616 0.0
H623 H 0.9976 0.40538 0.17877 0.0
H624 H 0.92004 0.42957 0.09207 0.0
H625 H 0.95884 0.47493 0.06984 0.0
C626 C 0.89351 0.33717 0.12043 0.0
C627 C 0.88651 0.33106 0.16293 0.0
C628 C 0.91678 0.36389 0.11167 0.0
C629 C 0.93357 0.38436 0.14546 0.0
C630 C 0.92773 0.37722 0.18805 0.0
C631 C 0.90417 0.35087 0.19669 0.0
C632 C 1.0114 0.44689 0.14282 0.0
C633 C 1.0013 0.4662 0.11076 0.0
C634 C 0.98893 0.42087 0.15554 0.0
C635 C 0.95625 0.41371 0.13612 0.0
C636 C 0.94544 0.43429 0.10663 0.0
C637 C 0.96763 0.46048 0.09437 0.0
H638 H 0.74355 0.81968 0.06344 0.0
H639 H 0.7946 0.90985 0.11921 0.0
H640 H 0.70295 0.84585 0.02434 0.0
H641 H 0.75314 0.93603 0.08419 0.0
H642 H 0.67276 0.98076 0.03952 0.0
H643 H 0.72112 0.95518 0.03455 0.0
H644 H 0.65724 0.86377 0.04551 0.0
H645 H 0.60867 0.88965 0.04535 0.0
C646 C 0.74636 0.84529 0.06627 0.0
C647 C 0.77168 0.86296 0.09427 0.0
C648 C 0.72294 0.8603 0.04454 0.0
C649 C 0.72373 0.89302 0.05209 0.0
C650 C 0.75135 0.91091 0.07691 0.0
C651 C 0.77529 0.89599 0.09735 0.0
C652 C 0.66927 0.95511 0.0401 0.0
C653 C 0.63748 0.93702 0.04403 0.0
C654 C 0.69695 0.94039 0.03749 0.0
C655 C 0.69366 0.90739 0.04134 0.0
C656 C 0.66117 0.88917 0.04221 0.0
C657 C 0.63322 0.90392 0.04283 0.0
H658 H 0.18738 0.76052 0.15421 0.0
H659 H 0.2524 0.69152 0.16801 0.0
H660 H 0.14582 0.72156 0.11299 0.0
H661 H 0.21099 0.65249 0.12522 0.0
H662 H 0.11079 0.58124 0.10025 0.0
H663 H 0.15791 0.6201 0.1321 0.0
H664 H 0.12933 0.69087 0.04901 0.0
H665 H 0.08157 0.65233 0.01846 0.0
C666 C 0.1932 0.73721 0.14759 0.0
C667 C 0.22333 0.72925 0.16465 0.0
C668 C 0.16927 0.71474 0.12365 0.0
C669 C 0.17471 0.68358 0.11573 0.0
C670 C 0.20553 0.67601 0.1312 0.0
C671 C 0.22951 0.69853 0.15539 0.0
C672 C 0.11468 0.60505 0.08859 0.0
C673 C 0.09204 0.6137 0.05717 0.0
C674 C 0.14194 0.62737 0.10669 0.0
C675 C 0.14752 0.65892 0.09357 0.0
C676 C 0.12557 0.66711 0.06081 0.0
C677 C 0.09816 0.6449 0.04306 0.0
H678 H 0.37938 0.86355 0.75422 0.0
H679 H 0.32323 0.84482 0.8665 0.0
H680 H 0.42001 0.90377 0.79631 0.0
H681 H 0.36393 0.88477 0.90829 0.0
H682 H 0.47309 0.91444 0.97203 0.0
H683 H 0.42573 0.88256 0.9298 0.0
H684 H 0.42554 0.95782 0.84128 0.0
H685 H 0.47299 0.99016 0.88408 0.0
C686 C 0.37546 0.86831 0.78764 0.0
C687 C 0.34833 0.8508 0.80718 0.0
C688 C 0.39857 0.89144 0.81159 0.0
C689 C 0.3951 0.89711 0.85551 0.0
C690 C 0.36723 0.8806 0.87453 0.0
C691 C 0.34394 0.8578 0.85054 0.0
C692 C 0.46281 0.9243 0.94375 0.0
C693 C 0.47679 0.95464 0.93109 0.0
C694 C 0.43557 0.90616 0.91979 0.0
C695 C 0.42208 0.91781 0.88237 0.0
C696 C 0.43565 0.94836 0.86999 0.0
C697 C 0.4626 0.96683 0.89449 0.0
H698 H 0.24041 0.32043 0.87688 0.0
H699 H 0.21343 0.35415 0.75301 0.0
H700 H 0.20828 0.35603 0.9116 0.0
H701 H 0.18022 0.38909 0.78793 0.0
H702 H 0.08868 0.40236 0.87543 0.0
H703 H 0.12504 0.37308 0.83686 0.0
H704 H 0.21063 0.42157 0.91652 0.0
H705 H 0.17431 0.45183 0.95434 0.0
C706 C 0.22756 0.33543 0.85706 0.0
C707 C 0.22934 0.33441 0.81216 0.0
C708 C 0.20939 0.35593 0.877 0.0
C709 C 0.1919 0.37533 0.85245 0.0
C710 C 0.19358 0.37438 0.80755 0.0
C711 C 0.21255 0.35445 0.78763 0.0
C712 C 0.11533 0.40706 0.88437 0.0
C713 C 0.12872 0.42944 0.91777 0.0
C714 C 0.1361 0.39042 0.86216 0.0
C715 C 0.17059 0.39515 0.87366 0.0
C716 C 0.1841 0.41759 0.90699 0.0
C717 C 0.1634 0.43494 0.92846 0.0
H718 H 0.682 0.23665 0.81059 0.0
H719 H 0.75544 0.17841 0.8417 0.0
H720 H 0.64035 0.20071 0.84581 0.0
H721 H 0.7139 0.14267 0.8792 0.0
H722 H 0.62152 0.0686 0.91798 0.0
H723 H 0.66639 0.10279 0.88296 0.0
H724 H 0.61839 0.18323 0.90662 0.0
H725 H 0.57383 0.14929 0.939 0.0
C726 C 0.68956 0.21634 0.82551 0.0
C727 C 0.72264 0.21104 0.82312 0.0
C728 C 0.6654 0.19547 0.84641 0.0
C729 C 0.67303 0.16826 0.86674 0.0
C730 C 0.70624 0.16286 0.86416 0.0
C731 C 0.73044 0.18371 0.84273 0.0
C732 C 0.62072 0.09362 0.91583 0.0
C733 C 0.59335 0.10572 0.93121 0.0
C734 C 0.64666 0.11352 0.89557 0.0
C735 C 0.64645 0.14635 0.89035 0.0
C736 C 0.61969 0.15828 0.90774 0.0
C737 C 0.59386 0.13854 0.92713 0.0
H738 H 0.7861 0.69323 0.85984 0.0
H739 H 0.87901 0.75784 0.84773 0.0
H740 H 0.81616 0.65854 0.90103 0.0
H741 H 0.90938 0.72252 0.8872 0.0
H742 H 0.95666 0.65909 0.97743 0.0
H743 H 0.92394 0.69814 0.95087 0.0
H744 H 0.85085 0.62223 0.88779 0.0
H745 H 0.88254 0.58373 0.91537 0.0
C746 C 0.81294 0.7002 0.86627 0.0
C747 C 0.83005 0.72835 0.85025 0.0
C748 C 0.83035 0.68008 0.8896 0.0
C749 C 0.86551 0.68722 0.89709 0.0
C750 C 0.88239 0.71614 0.88264 0.0
C751 C 0.8649 0.73645 0.85973 0.0
C752 C 0.93339 0.65081 0.95831 0.0
C753 C 0.92245 0.61816 0.94851 0.0
C754 C 0.91466 0.67323 0.94277 0.0
C755 C 0.88454 0.6636 0.9169 0.0
C756 C 0.87341 0.63085 0.90815 0.0
C757 C 0.8919 0.60858 0.92383 0.0
H758 H 0.27859 0.36113 0.15446 0.0
H759 H 0.18553 0.2971 0.16792 0.0
H760 H 0.24863 0.39543 0.11237 0.0
H761 H 0.15528 0.33202 0.12742 0.0
H762 H 0.10807 0.39439 0.03548 0.0
H763 H 0.14086 0.35561 0.06282 0.0
H764 H 0.21399 0.43205 0.12459 0.0
H765 H 0.18221 0.47027 0.09631 0.0
C766 C 0.25174 0.3542 0.14815 0.0
C767 C 0.23456 0.32632 0.16482 0.0
C768 C 0.23439 0.37409 0.12427 0.0
C769 C 0.19923 0.367 0.11678 0.0
C770 C 0.18227 0.33835 0.13194 0.0
C771 C 0.19969 0.31827 0.15545 0.0
C772 C 0.1314 0.40285 0.05441 0.0
C773 C 0.14225 0.43557 0.06377 0.0
C774 C 0.15015 0.38058 0.07043 0.0
C775 C 0.18026 0.39043 0.09627 0.0
C776 C 0.19141 0.42324 0.10435 0.0
C777 C 0.17286 0.44536 0.08827 0.0
H778 H 0.19637 0.71371 0.92541 0.0
H779 H 0.14652 0.72824 0.80314 0.0
H780 H 0.15461 0.66682 0.93389 0.0
H781 H 0.10567 0.68008 0.8106 0.0
H782 H 1.02066 0.61022 0.87128 0.0
H783 H 0.05994 0.6564 0.85207 0.0
H784 H 0.14248 0.61349 0.90043 0.0
H785 H 0.10317 0.56763 0.92082 0.0
C786 C 0.17629 0.70725 0.90058 0.0
C787 C 0.17512 0.72455 0.86327 0.0
C788 C 0.15271 0.67992 0.90503 0.0
C789 C 0.12757 0.66919 0.87221 0.0
C790 C 0.12501 0.68756 0.83619 0.0
C791 C 0.14848 0.71507 0.83188 0.0
C792 C 0.04722 0.61011 0.8765 0.0
C793 C 0.05885 0.58557 0.89833 0.0
C794 C 0.06973 0.63671 0.86568 0.0
C795 C 0.10417 0.63897 0.87611 0.0
C796 C 0.11594 0.61283 0.89343 0.0
C797 C 0.09347 0.58639 0.90454 0.0
H798 H 0.34363 0.24499 0.93352 0.0
H799 H 0.26639 0.16335 0.94584 0.0
H800 H 0.38409 0.21899 0.97163 0.0
H801 H 0.30659 0.13764 0.98649 0.0
H802 H 0.39236 0.08772 0.94165 0.0
H803 H 0.34638 0.11591 0.94733 0.0
H804 H 0.41112 0.19112 0.02413 0.0
H805 H 0.45795 0.16288 0.01706 0.0
C806 C 0.33511 0.22187 0.94592 0.0
C807 C 0.30247 0.20541 0.93499 0.0
C808 C 0.3582 0.20709 0.96841 0.0
C809 C 0.34883 0.17567 0.98051 0.0
C810 C 0.31472 0.16148 0.97615 0.0
C811 C 0.29165 0.17621 0.95314 0.0
C812 C 0.39682 0.11022 0.95988 0.0
C813 C 0.42886 0.12354 0.97794 0.0
C814 C 0.3702 0.12612 0.96405 0.0
C815 C 0.37498 0.15584 0.98629 0.0
C816 C 0.40673 0.16841 1.00642 0.0
C817 C 0.43352 0.15238 1.00221 0.0
H818 H 0.81119 0.36505 0.84513 0.0
H819 H 0.87508 0.29523 0.86076 0.0
H820 H 0.85261 0.40382 0.8884 0.0
H821 H 0.91666 0.33387 0.9022 0.0
H822 H 0.9824 0.40286 0.99473 0.0
H823 H 0.93377 0.36482 0.96538 0.0
H824 H 0.90579 0.43561 0.88182 0.0
H825 H 0.95369 0.47398 0.91263 0.0
C826 C 0.83379 0.3578 0.8583 0.0
C827 C 0.8397 0.32696 0.84932 0.0
C828 C 0.85779 0.38016 0.88273 0.0
C829 C 0.88837 0.37229 0.8987 0.0
C830 C 0.89343 0.34096 0.89119 0.0
C831 C 0.86947 0.31868 0.86707 0.0
C832 C 0.96574 0.41037 0.97029 0.0
C833 C 0.97225 0.4414 0.95568 0.0
C834 C 0.93783 0.38847 0.95324 0.0
C835 C 0.91582 0.39678 0.92061 0.0
C836 C 0.92177 0.42823 0.90714 0.0
C837 C 0.94948 0.45027 0.92462 0.0
H838 H 0.77378 0.87325 0.82798 0.0
H839 H 0.69957 0.791 0.84929 0.0
H840 H 0.73949 0.9075 0.86088 0.0
H841 H 0.66603 0.82485 0.88393 0.0
H842 H 0.59346 0.89206 0.89481 0.0
H843 H 0.63077 0.8599 0.86614 0.0
H844 H 0.71603 0.92724 0.92139 0.0
H845 H 0.67808 0.96069 0.94825 0.0
C846 C 0.75044 0.86237 0.84047 0.0
C847 C 0.73942 0.82927 0.83565 0.0
C848 C 0.73071 0.88209 0.85955 0.0
C849 C 0.69946 0.86929 0.87474 0.0
C850 C 0.68933 0.83597 0.87162 0.0
C851 C 0.7088 0.81636 0.85207 0.0
C852 C 0.62016 0.90029 0.90081 0.0
C853 C 0.63258 0.92903 0.92437 0.0
C854 C 0.64176 0.88145 0.88468 0.0
C855 C 0.67675 0.89033 0.89187 0.0
C856 C 0.68933 0.91945 0.91483 0.0
C857 C 0.66753 0.93864 0.93057 0.0
H858 H 0.85742 0.75883 0.15924 0.0
H859 H 0.83057 0.68483 0.24795 0.0
H860 H 0.88992 0.72577 0.12166 0.0
H861 H 0.86388 0.65156 0.2102 0.0
H862 H 0.89943 0.59116 0.09905 0.0
H863 H 0.86531 0.62206 0.1394 0.0
H864 H 0.94153 0.70569 0.13403 0.0
H865 H 0.97506 0.67532 0.0937 0.0
C866 C 0.85861 0.73553 0.171 0.0
C867 C 0.84144 0.72462 0.20687 0.0
C868 C 0.87744 0.71656 0.14944 0.0
C869 C 0.87972 0.68601 0.16295 0.0
C870 C 0.86246 0.67489 0.19874 0.0
C871 C 0.84362 0.69405 0.2206 0.0
C872 C 0.90881 0.61615 0.10648 0.0
C873 C 0.93997 0.63071 0.0929 0.0
C874 C 0.88938 0.6338 0.12987 0.0
C875 C 0.90058 0.66643 0.13984 0.0
C876 C 0.93183 0.68077 0.12644 0.0
C877 C 0.95119 0.66322 0.10338 0.0
H878 H 0.31197 0.87936 0.17652 0.0
H879 H 0.38212 0.81572 0.19433 0.0
H880 H 0.35441 0.91671 0.14244 0.0
H881 H 0.42418 0.85258 0.16021 0.0
H882 H 0.50605 0.93668 0.14234 0.0
H883 H 0.46116 0.90139 0.17244 0.0
H884 H 0.3896 0.9309 0.08179 0.0
H885 H 0.43547 0.96707 0.05109 0.0
C886 C 0.3363 0.87306 0.17295 0.0
C887 C 0.34314 0.84409 0.18866 0.0
C888 C 0.36084 0.89464 0.15309 0.0
C889 C 0.39349 0.88841 0.14845 0.0
C890 C 0.39994 0.85911 0.16353 0.0
C891 C 0.37544 0.83754 0.18304 0.0
C892 C 0.48086 0.93604 0.12841 0.0
C893 C 0.47512 0.95528 0.09369 0.0
C894 C 0.45474 0.91521 0.14579 0.0
C895 C 0.4211 0.91227 0.12964 0.0
C896 C 0.4149 0.93213 0.09561 0.0
C897 C 0.44139 0.95311 0.07784 0.0
H898 H 0.74328 0.19817 0.16829 0.0
H899 H 0.67597 0.20336 0.26903 0.0
H900 H 0.70077 0.15806 0.12876 0.0
H901 H 0.63366 0.16364 0.22925 0.0
H902 H 0.55765 0.13969 0.10856 0.0
H903 H 0.60266 0.17103 0.15506 0.0
H904 H 0.66404 0.09993 0.13627 0.0
H905 H 0.61838 0.06788 0.08983 0.0
C906 C 0.71964 0.19048 0.18223 0.0
C907 C 0.7128 0.2042 0.22149 0.0
C908 C 0.69548 0.16741 0.15976 0.0
C909 C 0.66402 0.15802 0.17597 0.0
C910 C 0.65772 0.1707 0.21604 0.0
C911 C 0.68195 0.19341 0.23874 0.0
C912 C 0.58065 0.13059 0.11445 0.0
C913 C 0.58459 0.10139 0.09555 0.0
C914 C 0.60628 0.14843 0.14129 0.0
C915 C 0.63663 0.13774 0.1493 0.0
C916 C 0.64076 0.10856 0.1305 0.0
C917 C 0.61471 0.09027 0.10417 0.0
H918 H 0.63455 0.64216 0.7249 0.0
H919 H 0.72595 0.6416 0.8031 0.0
H920 H 0.60783 0.59543 0.75878 0.0
H921 H 0.69991 0.59334 0.83509 0.0
H922 H 0.62037 0.56852 0.93707 0.0
H923 H 0.6614 0.59034 0.88819 0.0
H924 H 0.59717 0.54329 0.78055 0.0
H925 H 0.55517 0.52292 0.82982 0.0
C926 C 0.64924 0.63152 0.7485 0.0
C927 C 0.68186 0.64645 0.76257 0.0
C928 C 0.63409 0.60423 0.76752 0.0
C929 C 0.65144 0.591 0.80071 0.0
C930 C 0.68554 0.60348 0.81056 0.0
C931 C 0.70058 0.63109 0.79188 0.0
C932 C 0.61546 0.56206 0.90309 0.0
C933 C 0.58425 0.54496 0.88699 0.0
C934 C 0.63917 0.57438 0.87489 0.0
C935 C 0.63222 0.56936 0.83013 0.0
C936 C 0.60283 0.54851 0.81469 0.0
C937 C 0.57881 0.53677 0.84286 0.0
H938 H 0.33472 0.7274 0.86835 0.0
H939 H 0.36593 0.70423 0.74324 0.0
H940 H 0.36861 0.6911 0.90073 0.0
H941 H 0.3989 0.66754 0.77549 0.0
H942 H 0.41236 0.57571 0.84745 0.0
H943 H 0.3804 0.61398 0.81757 0.0
H944 H 0.43566 0.68721 0.90577 0.0
H945 H 0.46866 0.6492 0.93493 0.0
C946 C 0.34877 0.71458 0.84782 0.0
C947 C 0.34766 0.71867 0.80326 0.0
C948 C 0.36822 0.69396 0.86636 0.0
C949 C 0.38625 0.67654 0.84053 0.0
C950 C 0.38512 0.68062 0.79605 0.0
C951 C 0.36633 0.7017 0.77768 0.0
C952 C 0.4178 0.59994 0.86056 0.0
C953 C 0.44306 0.60932 0.89373 0.0
C954 C 0.39952 0.62184 0.84333 0.0
C955 C 0.40555 0.65347 0.85946 0.0
C956 C 0.43042 0.66288 0.893 0.0
C957 C 0.44931 0.64111 0.90959 0.0
H958 H 0.37766 0.3603 0.78038 0.0
H959 H 0.35461 0.29889 0.88557 0.0
H960 H 0.41914 0.3956 0.82773 0.0
H961 H 0.39541 0.3346 0.93311 0.0
H962 H 0.49377 0.39537 0.99596 0.0
H963 H 0.4546 0.35635 0.9498 0.0
H964 H 0.41704 0.43257 0.88697 0.0
H965 H 0.45629 0.47117 0.93205 0.0
C966 C 0.38157 0.35423 0.8135 0.0
C967 C 0.36264 0.32693 0.82922 0.0
C968 C 0.40515 0.37458 0.84077 0.0
C969 C 0.41024 0.36817 0.88442 0.0
C970 C 0.39225 0.34019 0.89968 0.0
C971 C 0.36873 0.31979 0.87239 0.0
C972 C 0.47681 0.40366 0.97263 0.0
C973 C 0.47829 0.43631 0.96739 0.0
C974 C 0.45445 0.38136 0.94612 0.0
C975 C 0.43314 0.39136 0.9141 0.0
C976 C 0.43375 0.42402 0.91037 0.0
C977 C 0.45607 0.44617 0.93655 0.0
H978 H 0.68897 0.39708 0.7771 0.0
H979 H 0.66199 0.30171 0.8192 0.0
H980 H 0.66509 0.41736 0.84019 0.0
H981 H 0.63956 0.32164 0.88293 0.0
H982 H 0.57633 0.37083 0.97187 0.0
H983 H 0.59699 0.34684 0.91002 0.0
H984 H 0.68334 0.42241 0.91676 0.0
H985 H 0.66205 0.44719 0.97795 0.0
C986 C 0.67706 0.38051 0.7993 0.0
C987 C 0.67737 0.34803 0.7939 0.0
C988 C 0.66411 0.39202 0.83575 0.0
C989 C 0.65139 0.37109 0.86701 0.0
C990 C 0.64931 0.33834 0.85956 0.0
C991 C 0.66204 0.32693 0.82316 0.0
C992 C 0.60021 0.38192 0.96098 0.0
C993 C 0.61724 0.41126 0.97912 0.0
C994 C 0.61193 0.36822 0.92533 0.0
C995 C 0.64114 0.3834 0.90775 0.0
C996 C 0.66005 0.4109 0.92877 0.0
C997 C 0.64818 0.42475 0.96426 0.0
H998 H 0.75627 0.35244 0.17558 0.0
H999 H 0.67738 0.32531 0.2606 0.0
H1000 H 0.72328 0.38778 0.14002 0.0
H1001 H 0.64429 0.36049 0.22464 0.0
H1002 H 0.58321 0.40447 0.11826 0.0
H1003 H 0.61488 0.36635 0.15025 0.0
H1004 H 0.7039 0.43869 0.16299 0.0
H1005 H 0.67246 0.4767 0.13166 0.0
C1006 C 0.73184 0.35389 0.18657 0.0
C1007 C 0.71953 0.33615 0.22107 0.0
C1008 C 0.71299 0.3742 0.16626 0.0
C1009 C 0.68119 0.3769 0.17953 0.0
C1010 C 0.66859 0.35871 0.21347 0.0
C1011 C 0.68765 0.33874 0.23424 0.0
C1012 C 0.60955 0.41218 0.12782 0.0
C1013 C 0.62524 0.44369 0.12266 0.0
C1014 C 0.62762 0.39041 0.14628 0.0
C1015 C 0.66187 0.39955 0.15914 0.0
C1016 C 0.67763 0.43086 0.15312 0.0
C1017 C 0.65951 0.45269 0.13539 0.0
H1018 H 0.70806 0.68442 0.22273 0.0
H1019 H 0.69967 0.76153 0.13953 0.0
H1020 H 0.66725 0.64897 0.1758 0.0
H1021 H 0.65693 0.72628 0.09329 0.0
H1022 H 0.60591 0.64395 0.99753 0.0
H1023 H 0.64638 0.68285 0.04235 0.0
H1024 H 0.61088 0.6366 0.15605 0.0
H1025 H 0.57258 0.59715 0.11138 0.0
C1026 C 0.69696 0.69395 0.19472 0.0
C1027 C 0.70689 0.72582 0.18502 0.0
C1028 C 0.6733 0.67362 0.1678 0.0
C1029 C 0.65824 0.68472 0.13084 0.0
C1030 C 0.66814 0.71675 0.12116 0.0
C1031 C 0.69242 0.73703 0.14783 0.0
C1032 C 0.60697 0.64233 0.03213 0.0
C1033 C 0.58665 0.61731 0.05099 0.0
C1034 C 0.62995 0.66466 0.05789 0.0
C1035 C 0.63245 0.66265 0.10297 0.0
C1036 C 0.6107 0.63839 0.12153 0.0
C1037 C 0.58849 0.61582 0.0959 0.0
H1038 H 0.41839 0.69827 0.24794 0.0
H1039 H 0.32123 0.67357 0.1796 0.0
H1040 H 0.44365 0.67564 0.18756 0.0
H1041 H 0.34608 0.652 0.11895 0.0
H1042 H 0.40277 0.59138 0.03636 0.0
H1043 H 0.37473 0.61038 0.09563 0.0
H1044 H 0.45267 0.69351 0.1137 0.0
H1045 H 0.48144 0.67407 0.05505 0.0
C1046 C 0.4025 0.68722 0.22043 0.0
C1047 C 0.36816 0.68767 0.21779 0.0
C1048 C 0.41684 0.67487 0.18572 0.0
C1049 C 0.39681 0.66282 0.14832 0.0
C1050 C 0.36208 0.6612 0.14729 0.0
C1051 C 0.34789 0.67347 0.18184 0.0
C1052 C 0.41358 0.61408 0.05229 0.0
C1053 C 0.44456 0.63101 0.0416 0.0
C1054 C 0.39757 0.62486 0.08636 0.0
C1055 C 0.41213 0.65289 0.10992 0.0
C1056 C 0.44157 0.67125 0.09682 0.0
C1057 C 0.45768 0.66042 0.06279 0.0
H1058 H 0.43321 0.41035 0.28702 0.0
H1059 H 0.34287 0.41275 0.20759 0.0
H1060 H 0.46138 0.45653 0.25326 0.0
H1061 H 0.37038 0.46054 0.17567 0.0
H1062 H 0.45063 0.4859 0.07521 0.0
H1063 H 0.40936 0.46349 0.1233 0.0
H1064 H 0.47332 0.50879 0.23221 0.0
H1065 H 0.5156 0.52988 0.18369 0.0
C1066 C 0.41908 0.42127 0.26312 0.0
C1067 C 0.38628 0.40705 0.24878 0.0
C1068 C 0.43507 0.44825 0.24416 0.0
C1069 C 0.41843 0.46191 0.21076 0.0
C1070 C 0.38424 0.45007 0.20039 0.0
C1071 C 0.36834 0.42275 0.21903 0.0
C1072 C 0.45554 0.49181 0.10932 0.0
C1073 C 0.48677 0.5087 0.12586 0.0
C1074 C 0.43164 0.47915 0.13709 0.0
C1075 C 0.43834 0.48356 0.18191 0.0
C1076 C 0.46782 0.50404 0.19796 0.0
C1077 C 0.49201 0.5162 0.1702 0.0
H1078 H 0.8797 0.75854 0.67992 0.0
H1079 H 0.79669 0.68032 0.68053 0.0
H1080 H 0.91356 0.72322 0.6489 0.0
H1081 H 0.83088 0.64471 0.65043 0.0
H1082 H 0.89667 0.59125 0.57017 0.0
H1083 H 0.86006 0.6281 0.59075 0.0
H1084 H 0.94145 0.68213 0.67261 0.0
H1085 H 0.97785 0.64613 0.65137 0.0
C1086 C 0.8685 0.73385 0.67309 0.0
C1087 C 0.83537 0.72241 0.683 0.0
C1088 C 0.88809 0.71342 0.65559 0.0
C1089 C 0.87533 0.68078 0.6476 0.0
C1090 C 0.84169 0.66961 0.65579 0.0
C1091 C 0.82203 0.69011 0.67324 0.0
C1092 C 0.90672 0.61104 0.59251 0.0
C1093 C 0.94035 0.61554 0.60906 0.0
C1094 C 0.88565 0.63216 0.60451 0.0
C1095 C 0.89762 0.6584 0.63336 0.0
C1096 C 0.93126 0.66274 0.64973 0.0
C1097 C 0.9522 0.64174 0.63781 0.0
H1098 H 0.36388 0.85783 0.59979 0.0
H1099 H 0.4412 0.8062 0.64113 0.0
H1100 H 0.40581 0.90594 0.5968 0.0
H1101 H 0.48355 0.85468 0.63814 0.0
H1102 H 0.53427 0.95538 0.571 0.0
H1103 H 0.5062 0.90083 0.57999 0.0
H1104 H 0.44139 0.93532 0.66743 0.0
H1105 H 0.46859 0.98966 0.65768 0.0
C1106 C 0.39001 0.85674 0.60718 0.0
C1107 C 0.39941 0.82865 0.62101 0.0
C1108 C 0.41388 0.88415 0.6059 0.0
C1109 C 0.44755 0.88393 0.61855 0.0
C1110 C 0.45758 0.85527 0.62875 0.0
C1111 C 0.43351 0.82764 0.63004 0.0
C1112 C 0.51485 0.95124 0.59327 0.0
C1113 C 0.50258 0.97673 0.61222 0.0
C1114 C 0.49887 0.92004 0.5984 0.0
C1115 C 0.47104 0.91434 0.62313 0.0
C1116 C 0.46234 0.93945 0.64729 0.0
C1117 C 0.47803 0.97048 0.64191 0.0
H1118 H 0.29938 0.37602 0.56658 0.0
H1119 H 0.21848 0.30201 0.59618 0.0
H1120 H 0.25981 0.40081 0.5235 0.0
H1121 H 0.17876 0.32754 0.55509 0.0
H1122 H 0.11335 0.39073 0.48714 0.0
H1123 H 0.15429 0.3547 0.49185 0.0
H1124 H 0.22289 0.42651 0.56925 0.0
H1125 H 0.1829 0.46158 0.56504 0.0
C1126 C 0.2734 0.36445 0.56262 0.0
C1127 C 0.26164 0.33807 0.5863 0.0
C1128 C 0.25074 0.37858 0.53803 0.0
C1129 C 0.21615 0.36667 0.53745 0.0
C1130 C 0.2052 0.33746 0.55544 0.0
C1131 C 0.22788 0.32319 0.57963 0.0
C1132 C 0.1371 0.39844 0.50545 0.0
C1133 C 0.14491 0.42885 0.52589 0.0
C1134 C 0.16062 0.37814 0.50754 0.0
C1135 C 0.19212 0.38825 0.52975 0.0
C1136 C 0.19941 0.41847 0.55043 0.0
C1137 C 0.17615 0.43841 0.54863 0.0
H1138 H 0.78049 0.19152 0.63663 0.0
H1139 H 0.69389 0.23351 0.6588 0.0
H1140 H 0.74625 0.15165 0.58725 0.0
H1141 H 0.6591 0.19262 0.61188 0.0
H1142 H 0.60037 0.12036 0.51661 0.0
H1143 H 0.63982 0.16698 0.5464 0.0
H1144 H 0.70807 0.10602 0.58991 0.0
H1145 H 0.66991 0.06034 0.55812 0.0
C1146 C 0.75412 0.1923 0.63079 0.0
C1147 C 0.73994 0.21562 0.65185 0.0
C1148 C 0.73427 0.16919 0.60272 0.0
C1149 C 0.69946 0.1682 0.59579 0.0
C1150 C 0.68569 0.19249 0.61561 0.0
C1151 C 0.7057 0.21599 0.64291 0.0
C1152 C 0.62413 0.11712 0.53185 0.0
C1153 C 0.63177 0.0865 0.53515 0.0
C1154 C 0.64673 0.14386 0.54937 0.0
C1155 C 0.67727 0.14062 0.57141 0.0
C1156 C 0.68531 0.11001 0.57283 0.0
C1157 C 0.66312 0.0835 0.55465 0.0
H1158 H 0.87778 0.34544 0.30785 0.0
H1159 H 0.7973 0.3679 0.38016 0.0
H1160 H 0.91618 0.38953 0.3449 0.0
H1161 H 0.83509 0.41309 0.41561 0.0
H1162 H 0.91689 0.47125 0.50383 0.0
H1163 H 0.87993 0.42598 0.4674 0.0
H1164 H 0.93071 0.4449 0.35078 0.0
H1165 H 0.96887 0.4891 0.3883 0.0
C1166 C 0.86826 0.36011 0.33134 0.0
C1167 C 0.83467 0.35326 0.34135 0.0
C1168 C 0.89019 0.3855 0.35242 0.0
C1169 C 0.8788 0.4049 0.38337 0.0
C1170 C 0.84496 0.39825 0.39271 0.0
C1171 C 0.8232 0.37251 0.37221 0.0
C1172 C 0.92006 0.46565 0.4704 0.0
C1173 C 0.94551 0.48364 0.44869 0.0
C1174 C 0.89878 0.43984 0.4494 0.0
C1175 C 0.90209 0.43188 0.40597 0.0
C1176 C 0.92772 0.44999 0.38438 0.0
C1177 C 0.94946 0.47542 0.4057 0.0
H1178 H 0.69733 0.79932 0.34581 0.0
H1179 H 0.74379 0.8796 0.27751 0.0
H1180 H 0.66551 0.8333 0.38381 0.0
H1181 H 0.71202 0.91381 0.3162 0.0
H1182 H 0.67379 0.96807 0.43133 0.0
H1183 H 0.70788 0.93445 0.39552 0.0
H1184 H 0.61928 0.86399 0.36256 0.0
H1185 H 0.58537 0.89747 0.3975 0.0
C1186 C 0.70069 0.82423 0.33877 0.0
C1187 C 0.72298 0.83668 0.30836 0.0
C1188 C 0.68243 0.8437 0.3606 0.0
C1189 C 0.68634 0.87627 0.35317 0.0
C1190 C 0.70872 0.88885 0.32291 0.0
C1191 C 0.72663 0.86921 0.30045 0.0
C1192 C 0.66172 0.94527 0.41678 0.0
C1193 C 0.62686 0.9355 0.41715 0.0
C1194 C 0.68116 0.92617 0.39596 0.0
C1195 C 0.66622 0.89663 0.37601 0.0
C1196 C 0.63157 0.88653 0.37771 0.0
C1197 C 0.61213 0.90578 0.39769 0.0
H1198 H 0.24426 0.68837 0.3311 0.0
H1199 H 0.17419 0.75255 0.33908 0.0
H1200 H 0.2052 0.64741 0.36314 0.0
H1201 H 0.13491 0.71116 0.3723 0.0
H1202 H 0.08929 0.62738 0.46846 0.0
H1203 H 0.12628 0.67376 0.44131 0.0
H1204 H 0.14931 0.61457 0.33722 0.0
H1205 H 0.1127 0.56947 0.36276 0.0
C1206 C 0.22066 0.69407 0.34007 0.0
C1207 C 0.21285 0.72426 0.33203 0.0
C1208 C 0.19798 0.67027 0.35851 0.0
C1209 C 0.16644 0.67547 0.37056 0.0
C1210 C 0.15887 0.706 0.36392 0.0
C1211 C 0.18149 0.72984 0.34461 0.0
C1212 C 0.10184 0.62434 0.43945 0.0
C1213 C 0.09736 0.59399 0.41824 0.0
C1214 C 0.12323 0.65107 0.4238 0.0
C1215 C 0.14144 0.64823 0.38699 0.0
C1216 C 0.13642 0.61808 0.36582 0.0
C1217 C 0.1149 0.59188 0.38074 0.0
H1218 H 0.28095 0.19567 0.3574 0.0
H1219 H 0.37056 0.2651 0.34652 0.0
H1220 H 0.31356 0.1629 0.39844 0.0
H1221 H 0.40348 0.23175 0.38568 0.0
H1222 H 0.45375 0.17093 0.47949 0.0
H1223 H 0.42011 0.20817 0.449 0.0
H1224 H 0.35094 0.12925 0.38605 0.0
H1225 H 0.38339 0.09273 0.41737 0.0
C1226 C 0.30757 0.20409 0.364 0.0
C1227 C 0.32298 0.23306 0.34841 0.0
C1228 C 0.3265 0.18508 0.38721 0.0
C1229 C 0.36156 0.19416 0.395 0.0
C1230 C 0.37667 0.22382 0.38086 0.0
C1231 C 0.35767 0.243 0.3581 0.0
C1232 C 0.43132 0.16169 0.45918 0.0
C1233 C 0.42133 0.12875 0.45118 0.0
C1234 C 0.41197 0.18302 0.44154 0.0
C1235 C 0.38229 0.17194 0.41521 0.0
C1236 C 0.37285 0.13898 0.40701 0.0
C1237 C 0.39185 0.11786 0.42482 0.0
H1238 H 0.69493 0.79103 0.66955 0.0
H1239 H 0.78466 0.86041 0.65919 0.0
H1240 H 0.66213 0.82453 0.63057 0.0
H1241 H 0.75218 0.89334 0.61823 0.0
H1242 H 0.68251 0.96356 0.59837 0.0
H1243 H 0.71492 0.92709 0.63 0.0
H1244 H 0.64554 0.84804 0.56761 0.0
H1245 H 0.61194 0.88521 0.53697 0.0
C1246 C 0.70786 0.81315 0.6581 0.0
C1247 C 0.74255 0.82303 0.66788 0.0
C1248 C 0.68894 0.83242 0.63544 0.0
C1249 C 0.70412 0.8621 0.62145 0.0
C1250 C 0.73918 0.87115 0.62935 0.0
C1251 C 0.75803 0.85205 0.65251 0.0
C1252 C 0.67402 0.9384 0.59116 0.0
C1253 C 0.64449 0.92743 0.56493 0.0
C1254 C 0.69298 0.91731 0.60912 0.0
C1255 C 0.68346 0.88433 0.60116 0.0
C1256 C 0.65374 0.8732 0.57493 0.0
C1257 C 0.63441 0.89449 0.5572 0.0
H1258 H 0.70095 0.20164 0.43472 0.0
H1259 H 0.62433 0.24996 0.38191 0.0
H1260 H 0.65959 0.15297 0.43707 0.0
H1261 H 0.58265 0.20095 0.38394 0.0
H1262 H 0.5292 0.09863 0.44478 0.0
H1263 H 0.55732 0.15385 0.44129 0.0
H1264 H 0.62966 0.12343 0.3617 0.0
H1265 H 0.60231 0.06847 0.36573 0.0
C1266 C 0.67499 0.20197 0.42495 0.0
C1267 C 0.6657 0.22917 0.40789 0.0
C1268 C 0.65149 0.17425 0.42588 0.0
C1269 C 0.61838 0.17333 0.40952 0.0
C1270 C 0.60819 0.20128 0.39637 0.0
C1271 C 0.63186 0.22921 0.39556 0.0
C1272 C 0.55047 0.10381 0.42548 0.0
C1273 C 0.56448 0.07918 0.40708 0.0
C1274 C 0.56647 0.13538 0.42352 0.0
C1275 C 0.59616 0.14236 0.40258 0.0
C1276 C 0.60722 0.11825 0.37904 0.0
C1277 C 0.59143 0.08687 0.38113 0.0
H1278 H 0.76574 0.66982 0.44242 0.0
H1279 H 0.84045 0.75291 0.42703 0.0
H1280 H 0.80741 0.6462 0.48353 0.0
H1281 H 0.88239 0.72889 0.46653 0.0
H1282 H 0.8929 0.59885 0.43646 0.0
H1283 H 0.85017 0.63133 0.4324 0.0
H1284 H 0.90702 0.69748 0.52895 0.0
H1285 H 0.95064 0.66414 0.53337 0.0
C1286 C 0.79064 0.68357 0.44945 0.0
C1287 C 0.80043 0.71243 0.43009 0.0
C1288 C 0.81448 0.67013 0.47289 0.0
C1289 C 0.84824 0.68538 0.47667 0.0
C1290 C 0.85664 0.71653 0.4636 0.0
C1291 C 0.83275 0.73003 0.44046 0.0
C1292 C 0.89652 0.62038 0.45677 0.0
C1293 C 0.9249 0.62892 0.48541 0.0
C1294 C 0.87174 0.63868 0.45501 0.0
C1295 C 0.8747 0.66613 0.48172 0.0
C1296 C 0.90397 0.67595 0.50877 0.0
C1297 C 0.92905 0.65729 0.51071 0.0
H1298 H 0.37289 0.82332 0.35222 0.0
H1299 H 0.28587 0.86426 0.37591 0.0
H1300 H 0.40752 0.86406 0.39959 0.0
H1301 H 0.31996 0.90396 0.42562 0.0
H1302 H 0.39584 0.99544 0.45609 0.0
H1303 H 0.358 0.94993 0.42322 0.0
H1304 H 0.42632 0.88883 0.46597 0.0
H1305 H 0.4654 0.93526 0.49704 0.0
C1306 C 0.36097 0.84058 0.36849 0.0
C1307 C 0.32665 0.84071 0.3599 0.0
C1308 C 0.38087 0.86398 0.39604 0.0
C1309 C 0.3669 0.88789 0.41643 0.0
C1310 C 0.33205 0.8867 0.40974 0.0
C1311 C 0.31231 0.86369 0.38147 0.0
C1312 C 0.40271 0.97228 0.45917 0.0
C1313 C 0.43396 0.96919 0.47889 0.0
C1314 C 0.38071 0.94589 0.44037 0.0
C1315 C 0.38888 0.91532 0.4413 0.0
C1316 C 0.41933 0.91196 0.46344 0.0
C1317 C 0.4417 0.93858 0.48168 0.0
H1318 H 0.26978 0.3767 0.33308 0.0
H1319 H 0.18735 0.29839 0.33805 0.0
H1320 H 0.23593 0.41267 0.36321 0.0
H1321 H 0.15388 0.33408 0.36901 0.0
H1322 H 0.08914 0.41081 0.36487 0.0
H1323 H 0.12549 0.37465 0.34404 0.0
H1324 H 0.20747 0.43002 0.42356 0.0
H1325 H 0.1709 0.46707 0.44366 0.0
C1326 C 0.24467 0.36698 0.34134 0.0
C1327 C 0.23134 0.33454 0.33276 0.0
C1328 C 0.22521 0.38768 0.35879 0.0
C1329 C 0.19182 0.37656 0.36813 0.0
C1330 C 0.17914 0.34382 0.36139 0.0
C1331 C 0.19852 0.32319 0.34391 0.0
C1332 C 0.11491 0.41548 0.37799 0.0
C1333 C 0.12694 0.4421 0.40594 0.0
C1334 C 0.13582 0.39439 0.36633 0.0
C1335 C 0.1696 0.39906 0.38217 0.0
C1336 C 0.18175 0.4257 0.41026 0.0
C1337 C 0.16071 0.44693 0.42198 0.0
H1338 H 0.33657 0.23579 0.64797 0.0
H1339 H 0.34376 0.18524 0.76462 0.0
H1340 H 0.36777 0.20031 0.61191 0.0
H1341 H 0.37539 0.14975 0.72834 0.0
H1342 H 0.46782 0.12452 0.66345 0.0
H1343 H 0.4324 0.15607 0.69873 0.0
H1344 H 0.36295 0.14252 0.58642 0.0
H1345 H 0.39853 0.11037 0.55082 0.0
C1346 C 0.3448 0.21708 0.666 0.0
C1347 C 0.3378 0.21352 0.70938 0.0
C1348 C 0.36246 0.19656 0.64511 0.0
C1349 C 0.37404 0.17217 0.66716 0.0
C1350 C 0.36695 0.16844 0.71051 0.0
C1351 C 0.3488 0.18872 0.73129 0.0
C1352 C 0.44499 0.12814 0.64611 0.0
C1353 C 0.43611 0.11493 0.60413 0.0
C1354 C 0.42452 0.14605 0.6666 0.0
C1355 C 0.39477 0.15172 0.64555 0.0
C1356 C 0.38579 0.13863 0.60348 0.0
C1357 C 0.40609 0.12015 0.58312 0.0
H1358 H 0.82202 0.36996 0.68487 0.0
H1359 H 0.89023 0.30431 0.6733 0.0
H1360 H 0.86157 0.41084 0.65332 0.0
H1361 H 0.92995 0.34557 0.64058 0.0
H1362 H 0.97625 0.43002 0.54583 0.0
H1363 H 0.93872 0.38383 0.57255 0.0
H1364 H 0.91827 0.44237 0.67892 0.0
H1365 H 0.95546 0.48728 0.65381 0.0
C1366 C 0.8453 0.36394 0.67522 0.0
C1367 C 0.85245 0.33336 0.68208 0.0
C1368 C 0.86827 0.38768 0.65706 0.0
C1369 C 0.89942 0.382 0.64415 0.0
C1370 C 0.90631 0.35111 0.64965 0.0
C1371 C 0.88344 0.32734 0.66867 0.0
C1372 C 0.9642 0.43294 0.57528 0.0
C1373 C 0.96952 0.46307 0.59722 0.0
C1374 C 0.94248 0.40632 0.59066 0.0
C1375 C 0.92477 0.40907 0.62796 0.0
C1376 C 0.93071 0.43897 0.64991 0.0
C1377 C 0.95256 0.46504 0.63524 0.0
H1378 H 0.27078 0.68689 0.64446 0.0
H1379 H 0.18993 0.70388 0.7201 0.0
H1380 H 0.2339 0.64199 0.6068 0.0
H1381 H 0.15243 0.66036 0.6809 0.0
H1382 H 0.09981 0.5634 0.62977 0.0
H1383 H 0.13847 0.60555 0.67049 0.0
H1384 H 0.18914 0.62994 0.55512 0.0
H1385 H 0.1517 0.58651 0.51539 0.0
C1386 C 0.24502 0.68109 0.65276 0.0
C1387 C 0.23316 0.69873 0.68513 0.0
C1388 C 0.22378 0.65553 0.631 0.0
C1389 C 0.19005 0.64757 0.64055 0.0
C1390 C 0.17835 0.66533 0.67316 0.0
C1391 C 0.19978 0.69043 0.69551 0.0
C1392 C 0.11934 0.5778 0.61334 0.0
C1393 C 0.12301 0.57172 0.56966 0.0
C1394 C 0.14138 0.60208 0.63652 0.0
C1395 C 0.16703 0.62124 0.61618 0.0
C1396 C 0.17026 0.61526 0.57217 0.0
C1397 C 0.14869 0.59052 0.54927 0.0
loop_
_geom_bond_atom_site_label_1
_geom_bond_atom_site_label_2
_geom_bond_distance
_geom_bond_site_symmetry_2
_ccdc_geom_bond_type
Co0 N5 2.057 . S
Co0 O17 2.021 . S
Co0 O20 2.062 . S
Co0 O24 2.117 . S
Co0 O25 2.020 . S
C1 O21 1.259 . S
C1 O24 1.258 . S
Co2 N11 2.057 . S
Co2 O18 2.117 . S
Co2 O19 2.020 . S
Co2 O21 2.021 . S
Co2 O26 2.062 . S
C3 N5 1.316 . S
C3 N6 1.347 . S
C3 H8 0.931 . S
C4 N5 1.375 . S
C4 C7 1.350 . S
C4 H9 0.930 . S
N5 Co0 2.057 . S
N5 C3 1.316 . S
N5 C4 1.375 . S
N6 C3 1.347 . S
N6 C7 1.373 . S
C7 C4 1.350 . S
C7 N6 1.373 . S
C7 H28 0.931 . S
H8 C3 0.931 . S
H9 C4 0.930 . S
C10 O17 1.259 . S
C10 O18 1.258 . S
N11 Co2 2.057 . S
N11 C12 1.316 . S
N11 C13 1.375 . S
C12 N11 1.316 . S
C12 N14 1.347 . S
C12 H23 0.931 . S
C13 N11 1.375 . S
C13 C15 1.350 . S
C13 H22 0.930 . S
N14 C12 1.347 . S
N14 C15 1.373 . S
C15 C13 1.350 . S
C15 N14 1.373 . S
C15 H29 0.931 . S
C16 O19 1.256 . S
C16 O20 1.255 . S
O17 Co0 2.021 . S
O17 C10 1.259 . S
O18 Co2 2.117 . S
O18 C10 1.258 . S
O19 Co2 2.020 . S
O19 C16 1.256 . S
O20 Co0 2.062 . S
O20 C16 1.255 . S
O21 C1 1.259 . S
O21 Co2 2.021 . S
H22 C13 0.930 . S
H23 C12 0.931 . S
O24 Co0 2.117 . S
O24 C1 1.258 . S
O25 Co0 2.020 . S
O25 C27 1.256 . S
O26 Co2 2.062 . S
O26 C27 1.255 . S
C27 O25 1.256 . S
C27 O26 1.255 . S
H28 C7 0.931 . S
H29 C15 0.931 . S
Co30 N35 2.057 . S
Co30 O47 2.021 . S
Co30 O50 2.062 . S
Co30 O54 2.117 . S
Co30 O55 2.020 . S
C31 O51 1.259 . S
C31 O54 1.258 . S
Co32 N41 2.057 . S
Co32 O48 2.117 . S
Co32 O49 2.020 . S
Co32 O51 2.021 . S
Co32 O56 2.062 . S
C33 N35 1.316 . S
C33 N36 1.347 . S
C33 H38 0.931 . S
C34 N35 1.375 . S
C34 C37 1.350 . S
C34 H39 0.930 . S
N35 Co30 2.057 . S
N35 C33 1.316 . S
N35 C34 1.375 . S
N36 C33 1.347 . S
N36 C37 1.373 . S
C37 C34 1.350 . S
C37 N36 1.373 . S
C37 H58 0.931 . S
H38 C33 0.931 . S
H39 C34 0.930 . S
C40 O47 1.259 . S
C40 O48 1.258 . S
N41 Co32 2.057 . S
N41 C42 1.316 . S
N41 C43 1.375 . S
C42 N41 1.316 . S
C42 N44 1.347 . S
C42 H53 0.931 . S
C43 N41 1.375 . S
C43 C45 1.350 . S
C43 H52 0.930 . S
N44 C42 1.347 . S
N44 C45 1.373 . S
C45 C43 1.350 . S
C45 N44 1.373 . S
C45 H59 0.931 . S
C46 O49 1.256 . S
C46 O50 1.255 . S
O47 Co30 2.021 . S
O47 C40 1.259 . S
O48 Co32 2.117 . S
O48 C40 1.258 . S
O49 Co32 2.020 . S
O49 C46 1.256 . S
O50 Co30 2.062 . S
O50 C46 1.255 . S
O51 C31 1.259 . S
O51 Co32 2.021 . S
H52 C43 0.930 . S
H53 C42 0.931 . S
O54 Co30 2.117 . S
O54 C31 1.258 . S
O55 Co30 2.020 . S
O55 C57 1.256 . S
O56 Co32 2.062 . S
O56 C57 1.255 . S
C57 O55 1.256 . S
C57 O56 1.255 . S
H58 C37 0.931 . S
H59 C45 0.931 . S
Co60 N65 2.057 . S
Co60 O77 2.021 . S
Co60 O80 2.062 . S
Co60 O84 2.117 . S
Co60 O85 2.020 . S
C61 O81 1.259 . S
C61 O84 1.258 . S
Co62 N71 2.057 . S
Co62 O78 2.117 . S
Co62 O79 2.020 . S
Co62 O81 2.021 . S
Co62 O86 2.062 . S
C63 N65 1.316 . S
C63 N66 1.347 . S
C63 H68 0.931 . S
C64 N65 1.375 . S
C64 C67 1.350 . S
C64 H69 0.930 . S
N65 Co60 2.057 . S
N65 C63 1.316 . S
N65 C64 1.375 . S
N66 C63 1.347 . S
N66 C67 1.373 . S
C67 C64 1.350 . S
C67 N66 1.373 . S
C67 H88 0.931 . S
H68 C63 0.931 . S
H69 C64 0.930 . S
C70 O77 1.259 . S
C70 O78 1.258 . S
N71 Co62 2.057 . S
N71 C72 1.316 . S
N71 C73 1.375 . S
C72 N71 1.316 . S
C72 N74 1.347 . S
C72 H83 0.931 . S
C73 N71 1.375 . S
C73 C75 1.350 . S
C73 H82 0.930 . S
N74 C72 1.347 . S
N74 C75 1.373 . S
C75 C73 1.350 . S
C75 N74 1.373 . S
C75 H89 0.931 . S
C76 O79 1.256 . S
C76 O80 1.255 . S
O77 Co60 2.021 . S
O77 C70 1.259 . S
O78 Co62 2.117 . S
O78 C70 1.258 . S
O79 Co62 2.020 . S
O79 C76 1.256 . S
O80 Co60 2.062 . S
O80 C76 1.255 . S
O81 C61 1.259 . S
O81 Co62 2.021 . S
H82 C73 0.930 . S
H83 C72 0.931 . S
O84 Co60 2.117 . S
O84 C61 1.258 . S
O85 Co60 2.020 . S
O85 C87 1.256 . S
O86 Co62 2.062 . S
O86 C87 1.255 . S
C87 O85 1.256 . S
C87 O86 1.255 . S
H88 C67 0.931 . S
H89 C75 0.931 . S
Co90 N95 2.057 . S
Co90 O107 2.021 . S
Co90 O110 2.062 . S
Co90 O114 2.117 . S
Co90 O115 2.020 . S
C91 O111 1.259 . S
C91 O114 1.258 . S
Co92 N101 2.057 . S
Co92 O108 2.117 . S
Co92 O109 2.020 . S
Co92 O111 2.021 . S
Co92 O116 2.062 . S
C93 N95 1.316 . S
C93 N96 1.347 . S
C93 H98 0.931 . S
C94 N95 1.375 . S
C94 C97 1.350 . S
C94 H99 0.930 . S
N95 Co90 2.057 . S
N95 C93 1.316 . S
N95 C94 1.375 . S
N96 C93 1.347 . S
N96 C97 1.373 . S
C97 C94 1.350 . S
C97 N96 1.373 . S
C97 H118 0.931 . S
H98 C93 0.931 . S
H99 C94 0.930 . S
C100 O107 1.259 . S
C100 O108 1.258 . S
N101 Co92 2.057 . S
N101 C102 1.316 . S
N101 C103 1.375 . S
C102 N101 1.316 . S
C102 N104 1.347 . S
C102 H113 0.931 . S
C103 N101 1.375 . S
C103 C105 1.350 . S
C103 H112 0.930 . S
N104 C102 1.347 . S
N104 C105 1.373 . S
C105 C103 1.350 . S
C105 N104 1.373 . S
C105 H119 0.931 . S
C106 O109 1.256 . S
C106 O110 1.255 . S
O107 Co90 2.021 . S
O107 C100 1.259 . S
O108 Co92 2.117 . S
O108 C100 1.258 . S
O109 Co92 2.020 . S
O109 C106 1.256 . S
O110 Co90 2.062 . S
O110 C106 1.255 . S
O111 C91 1.259 . S
O111 Co92 2.021 . S
H112 C103 0.930 . S
H113 C102 0.931 . S
O114 Co90 2.117 . S
O114 C91 1.258 . S
O115 Co90 2.020 . S
O115 C117 1.256 . S
O116 Co92 2.062 . S
O116 C117 1.255 . S
C117 O115 1.256 . S
C117 O116 1.255 . S
H118 C97 0.931 . S
H119 C105 0.931 . S
Co120 N125 2.057 . S
Co120 O137 2.021 . S
Co120 O140 2.062 . S
Co120 O144 2.117 . S
Co120 O145 2.020 . S
C121 O141 1.259 . S
C121 O144 1.258 . S
Co122 N131 2.057 . S
Co122 O138 2.117 . S
Co122 O139 2.020 . S
Co122 O141 2.021 . S
Co122 O146 2.062 . S
C123 N125 1.316 . S
C123 N126 1.347 . S
C123 H128 0.931 . S
C124 N125 1.375 . S
C124 C127 1.350 . S
C124 H129 0.930 . S
N125 Co120 2.057 . S
N125 C123 1.316 . S
N125 C124 1.375 . S
N126 C123 1.347 . S
N126 C127 1.373 . S
C127 C124 1.350 . S
C127 N126 1.373 . S
C127 H148 0.931 . S
H128 C123 0.931 . S
H129 C124 0.930 . S
C130 O137 1.259 . S
C130 O138 1.258 . S
N131 Co122 2.057 . S
N131 C132 1.316 . S
N131 C133 1.375 . S
C132 N131 1.316 . S
C132 N134 1.347 . S
C132 H143 0.931 . S
C133 N131 1.375 . S
C133 C135 1.350 . S
C133 H142 0.930 . S
N134 C132 1.347 . S
N134 C135 1.373 . S
C135 C133 1.350 . S
C135 N134 1.373 . S
C135 H149 0.931 . S
C136 O139 1.256 . S
C136 O140 1.255 . S
O137 Co120 2.021 . S
O137 C130 1.259 . S
O138 Co122 2.117 . S
O138 C130 1.258 . S
O139 Co122 2.020 . S
O139 C136 1.256 . S
O140 Co120 2.062 . S
O140 C136 1.255 . S
O141 C121 1.259 . S
O141 Co122 2.021 . S
H142 C133 0.930 . S
H143 C132 0.931 . S
O144 Co120 2.117 . S
O144 C121 1.258 . S
O145 Co120 2.020 . S
O145 C147 1.256 . S
O146 Co122 2.062 . S
O146 C147 1.255 . S
C147 O145 1.256 . S
C147 O146 1.255 . S
H148 C127 0.931 . S
H149 C135 0.931 . S
Co150 N155 2.057 . S
Co150 O167 2.021 . S
Co150 O170 2.062 . S
Co150 O174 2.117 . S
Co150 O175 2.020 . S
C151 O171 1.259 . S
C151 O174 1.258 . S
Co152 N161 2.057 . S
Co152 O168 2.117 . S
Co152 O169 2.020 . S
Co152 O171 2.021 . S
Co152 O176 2.062 . S
C153 N155 1.316 . S
C153 N156 1.347 . S
C153 H158 0.931 . S
C154 N155 1.375 . S
C154 C157 1.350 . S
C154 H159 0.930 . S
N155 Co150 2.057 . S
N155 C153 1.316 . S
N155 C154 1.375 . S
N156 C153 1.347 . S
N156 C157 1.373 . S
C157 C154 1.350 . S
C157 N156 1.373 . S
C157 H178 0.931 . S
H158 C153 0.931 . S
H159 C154 0.930 . S
C160 O167 1.259 . S
C160 O168 1.258 . S
N161 Co152 2.057 . S
N161 C162 1.316 . S
N161 C163 1.375 . S
C162 N161 1.316 . S
C162 N164 1.347 . S
C162 H173 0.931 . S
C163 N161 1.375 . S
C163 C165 1.350 . S
C163 H172 0.930 . S
N164 C162 1.347 . S
N164 C165 1.373 . S
C165 C163 1.350 . S
C165 N164 1.373 . S
C165 H179 0.931 . S
C166 O169 1.256 . S
C166 O170 1.255 . S
O167 Co150 2.021 . S
O167 C160 1.259 . S
O168 Co152 2.117 . S
O168 C160 1.258 . S
O169 Co152 2.020 . S
O169 C166 1.256 . S
O170 Co150 2.062 . S
O170 C166 1.255 . S
O171 C151 1.259 . S
O171 Co152 2.021 . S
H172 C163 0.930 . S
H173 C162 0.931 . S
O174 Co150 2.117 . S
O174 C151 1.258 . S
O175 Co150 2.020 . S
O175 C177 1.256 . S
O176 Co152 2.062 . S
O176 C177 1.255 . S
C177 O175 1.256 . S
C177 O176 1.255 . S
H178 C157 0.931 . S
H179 C165 0.931 . S
Co180 N185 2.057 . S
Co180 O197 2.021 . S
Co180 O200 2.062 . S
Co180 O204 2.117 . S
Co180 O205 2.020 . S
C181 O201 1.259 . S
C181 O204 1.258 . S
Co182 N191 2.057 . S
Co182 O198 2.117 . S
Co182 O199 2.020 . S
Co182 O201 2.021 . S
Co182 O206 2.062 . S
C183 N185 1.316 . S
C183 N186 1.347 . S
C183 H188 0.931 . S
C184 N185 1.375 . S
C184 C187 1.350 . S
C184 H189 0.930 . S
N185 Co180 2.057 . S
N185 C183 1.316 . S
N185 C184 1.375 . S
N186 C183 1.347 . S
N186 C187 1.373 . S
C187 C184 1.350 . S
C187 N186 1.373 . S
C187 H208 0.931 . S
H188 C183 0.931 . S
H189 C184 0.930 . S
C190 O197 1.259 . S
C190 O198 1.258 . S
N191 Co182 2.057 . S
N191 C192 1.316 . S
N191 C193 1.375 . S
C192 N191 1.316 . S
C192 N194 1.347 . S
C192 H203 0.931 . S
C193 N191 1.375 . S
C193 C195 1.350 . S
C193 H202 0.930 . S
N194 C192 1.347 . S
N194 C195 1.373 . S
C195 C193 1.350 . S
C195 N194 1.373 . S
C195 H209 0.931 . S
C196 O199 1.256 . S
C196 O200 1.255 . S
O197 Co180 2.021 . S
O197 C190 1.259 . S
O198 Co182 2.117 . S
O198 C190 1.258 . S
O199 Co182 2.020 . S
O199 C196 1.256 . S
O200 Co180 2.062 . S
O200 C196 1.255 . S
O201 C181 1.259 . S
O201 Co182 2.021 . S
H202 C193 0.930 . S
H203 C192 0.931 . S
O204 Co180 2.117 . S
O204 C181 1.258 . S
O205 Co180 2.020 . S
O205 C207 1.256 . S
O206 Co182 2.062 . S
O206 C207 1.255 . S
C207 O205 1.256 . S
C207 O206 1.255 . S
H208 C187 0.931 . S
H209 C195 0.931 . S
Co210 N215 2.057 . S
Co210 O227 2.021 . S
Co210 O230 2.062 . S
Co210 O234 2.117 . S
Co210 O235 2.020 . S
C211 O231 1.259 . S
C211 O234 1.258 . S
Co212 N221 2.057 . S
Co212 O228 2.117 . S
Co212 O229 2.020 . S
Co212 O231 2.021 . S
Co212 O236 2.062 . S
C213 N215 1.316 . S
C213 N216 1.347 . S
C213 H218 0.931 . S
C214 N215 1.375 . S
C214 C217 1.350 . S
C214 H219 0.930 . S
N215 Co210 2.057 . S
N215 C213 1.316 . S
N215 C214 1.375 . S
N216 C213 1.347 . S
N216 C217 1.373 . S
C217 C214 1.350 . S
C217 N216 1.373 . S
C217 H238 0.931 . S
H218 C213 0.931 . S
H219 C214 0.930 . S
C220 O227 1.259 . S
C220 O228 1.258 . S
N221 Co212 2.057 . S
N221 C222 1.316 . S
N221 C223 1.375 . S
C222 N221 1.316 . S
C222 N224 1.347 . S
C222 H233 0.931 . S
C223 N221 1.375 . S
C223 C225 1.350 . S
C223 H232 0.930 . S
N224 C222 1.347 . S
N224 C225 1.373 . S
C225 C223 1.350 . S
C225 N224 1.373 . S
C225 H239 0.931 . S
C226 O229 1.256 . S
C226 O230 1.255 . S
O227 Co210 2.021 . S
O227 C220 1.259 . S
O228 Co212 2.117 . S
O228 C220 1.258 . S
O229 Co212 2.020 . S
O229 C226 1.256 . S
O230 Co210 2.062 . S
O230 C226 1.255 . S
O231 C211 1.259 . S
O231 Co212 2.021 . S
H232 C223 0.930 . S
H233 C222 0.931 . S
O234 Co210 2.117 . S
O234 C211 1.258 . S
O235 Co210 2.020 . S
O235 C237 1.256 . S
O236 Co212 2.062 . S
O236 C237 1.255 . S
C237 O235 1.256 . S
C237 O236 1.255 . S
H238 C217 0.931 . S
H239 C225 0.931 . S
Co240 O243 2.042 . S
Co240 O250 2.264 . S
Co240 O269 2.286 . S
Co240 O270 2.069 . S
Co240 O272 2.015 1_455 S
Co241 O243 2.122 . S
Co241 O249 2.073 . S
Co241 O250 2.327 . S
Co241 O251 1.976 1_455 S
Co242 O243 2.076 1_545 S
Co242 O245 2.097 1_455 S
Co242 O252 2.106 1_445 S
Co242 O253 2.151 . S
Co242 O257 2.116 . S
Co242 O271 2.136 1_445 S
O243 Co240 2.042 . S
O243 Co241 2.122 . S
O243 Co242 2.076 1_565 S
O243 H244 0.980 . S
H244 O243 0.980 . S
O245 Co242 2.097 1_655 S
O245 Co246 2.042 . S
O245 Co247 2.122 . S
O245 H248 0.980 . S
Co246 O245 2.042 . S
Co246 O254 2.286 . S
Co246 O255 2.069 . S
Co246 O256 2.015 1_655 S
Co246 O259 2.264 . S
Co247 O245 2.122 . S
Co247 O258 1.976 1_655 S
Co247 O259 2.327 . S
Co247 O260 2.073 . S
H248 O245 0.980 . S
O249 Co241 2.073 . S
O249 C264 1.245 . S
O250 Co240 2.264 . S
O250 Co241 2.327 . S
O250 C264 1.257 . S
O251 Co241 1.976 1_655 S
O251 C263 1.251 . S
O252 Co242 2.106 1_665 S
O252 C263 1.274 . S
O253 Co242 2.151 . S
O253 C266 1.246 . S
O254 Co246 2.286 . S
O254 C265 1.259 . S
O255 Co246 2.069 . S
O255 C265 1.289 . S
O256 Co246 2.015 1_455 S
O256 C266 1.257 . S
O257 Co242 2.116 . S
O257 C267 1.274 . S
O258 Co247 1.976 1_455 S
O258 C267 1.251 . S
O259 Co246 2.264 . S
O259 Co247 2.327 . S
O259 C268 1.257 . S
O260 Co247 2.073 . S
O260 C268 1.245 . S
C261 O269 1.259 . S
C261 O270 1.289 . S
C262 O271 1.246 . S
C262 O272 1.257 . S
C263 O251 1.251 . S
C263 O252 1.274 . S
C264 O249 1.245 . S
C264 O250 1.257 . S
C265 O254 1.259 . S
C265 O255 1.289 . S
C266 O253 1.246 . S
C266 O256 1.257 . S
C267 O257 1.274 . S
C267 O258 1.251 . S
C268 O259 1.257 . S
C268 O260 1.245 . S
O269 Co240 2.286 . S
O269 C261 1.259 . S
O270 Co240 2.069 . S
O270 C261 1.289 . S
O271 Co242 2.136 1_665 S
O271 C262 1.246 . S
O272 Co240 2.015 1_655 S
O272 C262 1.257 . S
Co273 O276 2.042 1_556 S
Co273 O283 2.264 1_556 S
Co273 O302 2.286 . S
Co273 O303 2.069 . S
Co273 O305 2.015 . S
Co274 O276 2.122 . S
Co274 O282 2.073 . S
Co274 O283 2.327 . S
Co274 O284 1.976 . S
Co275 O276 2.076 1_545 S
Co275 O278 2.098 1_554 S
Co275 O285 2.107 1_545 S
Co275 O286 2.151 . S
Co275 O290 2.116 1_554 S
Co275 O304 2.136 1_544 S
O276 Co273 2.042 1_554 S
O276 Co274 2.122 . S
O276 Co275 2.076 1_565 S
O276 H277 0.980 . S
H277 O276 0.980 . S
O278 Co275 2.098 1_556 S
O278 Co279 2.042 1_556 S
O278 Co280 2.122 . S
O278 H281 0.980 . S
Co279 O278 2.042 1_554 S
Co279 O287 2.286 . S
Co279 O288 2.069 . S
Co279 O289 2.015 . S
Co279 O292 2.264 1_554 S
Co280 O278 2.122 . S
Co280 O291 1.976 . S
Co280 O292 2.327 . S
Co280 O293 2.073 . S
H281 O278 0.980 . S
O282 Co274 2.073 . S
O282 C297 1.245 . S
O283 Co273 2.264 1_554 S
O283 Co274 2.327 . S
O283 C297 1.257 . S
O284 Co274 1.976 . S
O284 C296 1.251 . S
O285 Co275 2.107 1_565 S
O285 C296 1.274 . S
O286 Co275 2.151 . S
O286 C299 1.246 . S
O287 Co279 2.286 . S
O287 C298 1.259 . S
O288 Co279 2.069 . S
O288 C298 1.289 . S
O289 Co279 2.015 . S
O289 C299 1.257 . S
O290 Co275 2.116 1_556 S
O290 C300 1.274 . S
O291 Co280 1.976 . S
O291 C300 1.251 . S
O292 Co279 2.264 1_556 S
O292 Co280 2.327 . S
O292 C301 1.257 . S
O293 Co280 2.073 . S
O293 C301 1.245 . S
C294 O302 1.259 . S
C294 O303 1.289 . S
C295 O304 1.246 . S
C295 O305 1.257 . S
C296 O284 1.251 . S
C296 O285 1.274 . S
C297 O282 1.245 . S
C297 O283 1.257 . S
C298 O287 1.259 . S
C298 O288 1.289 . S
C299 O286 1.246 . S
C299 O289 1.257 . S
C300 O290 1.274 . S
C300 O291 1.251 . S
C301 O292 1.257 . S
C301 O293 1.245 . S
O302 Co273 2.286 . S
O302 C294 1.259 . S
O303 Co273 2.069 . S
O303 C294 1.289 . S
O304 Co275 2.136 1_566 S
O304 C295 1.246 . S
O305 Co273 2.015 . S
O305 C295 1.257 . S
Co306 O309 2.042 1_556 S
Co306 O316 2.264 1_556 S
Co306 O335 2.286 . S
Co306 O336 2.069 . S
Co306 O338 2.015 1_455 S
Co307 O309 2.122 . S
Co307 O315 2.073 . S
Co307 O316 2.327 . S
Co307 O317 1.976 1_455 S
Co308 O309 2.087 . S
Co308 O311 2.087 1_454 S
Co308 O318 2.111 1_455 S
Co308 O319 2.144 . S
Co308 O323 2.111 1_554 S
Co308 O337 2.143 1_454 S
O309 Co306 2.042 1_554 S
O309 Co307 2.122 . S
O309 Co308 2.087 . S
O309 H310 0.980 . S
H310 O309 0.980 . S
O311 Co308 2.087 1_656 S
O311 Co312 2.042 1_556 S
O311 Co313 2.122 . S
O311 H314 0.980 . S
Co312 O311 2.042 1_554 S
Co312 O320 2.286 . S
Co312 O321 2.069 . S
Co312 O322 2.015 1_655 S
Co312 O325 2.264 1_554 S
Co313 O311 2.122 . S
Co313 O324 1.976 1_655 S
Co313 O325 2.327 . S
Co313 O326 2.073 . S
H314 O311 0.980 . S
O315 Co307 2.073 . S
O315 C330 1.245 . S
O316 Co306 2.264 1_554 S
O316 Co307 2.327 . S
O316 C330 1.257 . S
O317 Co307 1.976 1_655 S
O317 C329 1.251 . S
O318 Co308 2.111 1_655 S
O318 C329 1.274 . S
O319 Co308 2.144 . S
O319 C332 1.246 . S
O320 Co312 2.286 . S
O320 C331 1.259 . S
O321 Co312 2.069 . S
O321 C331 1.289 . S
O322 Co312 2.015 1_455 S
O322 C332 1.257 . S
O323 Co308 2.111 1_556 S
O323 C333 1.274 . S
O324 Co313 1.976 1_455 S
O324 C333 1.251 . S
O325 Co312 2.264 1_556 S
O325 Co313 2.327 . S
O325 C334 1.257 . S
O326 Co313 2.073 . S
O326 C334 1.245 . S
C327 O335 1.259 . S
C327 O336 1.289 . S
C328 O337 1.246 . S
C328 O338 1.257 . S
C329 O317 1.251 . S
C329 O318 1.274 . S
C330 O315 1.245 . S
C330 O316 1.257 . S
C331 O320 1.259 . S
C331 O321 1.289 . S
C332 O319 1.246 . S
C332 O322 1.257 . S
C333 O323 1.274 . S
C333 O324 1.251 . S
C334 O325 1.257 . S
C334 O326 1.245 . S
O335 Co306 2.286 . S
O335 C327 1.259 . S
O336 Co306 2.069 . S
O336 C327 1.289 . S
O337 Co308 2.143 1_656 S
O337 C328 1.246 . S
O338 Co306 2.015 1_655 S
O338 C328 1.257 . S
Co339 O342 2.042 1_556 S
Co339 O349 2.264 1_556 S
Co339 O368 2.286 . S
Co339 O369 2.069 . S
Co339 O371 2.015 . S
Co340 O342 2.122 . S
Co340 O348 2.073 . S
Co340 O349 2.327 . S
Co340 O350 1.976 . S
Co341 O342 2.087 . S
Co341 O344 2.087 1_554 S
Co341 O351 2.111 . S
Co341 O352 2.143 . S
Co341 O356 2.111 1_554 S
Co341 O370 2.143 1_554 S
O342 Co339 2.042 1_554 S
O342 Co340 2.122 . S
O342 Co341 2.087 . S
O342 H343 0.980 . S
H343 O342 0.980 . S
O344 Co341 2.087 1_556 S
O344 Co345 2.042 1_556 S
O344 Co346 2.122 . S
O344 H347 0.980 . S
Co345 O344 2.042 1_554 S
Co345 O353 2.286 . S
Co345 O354 2.069 . S
Co345 O355 2.015 . S
Co345 O358 2.264 1_554 S
Co346 O344 2.122 . S
Co346 O357 1.976 . S
Co346 O358 2.327 . S
Co346 O359 2.073 . S
H347 O344 0.980 . S
O348 Co340 2.073 . S
O348 C363 1.245 . S
O349 Co339 2.264 1_554 S
O349 Co340 2.327 . S
O349 C363 1.257 . S
O350 Co340 1.976 . S
O350 C362 1.251 . S
O351 Co341 2.111 . S
O351 C362 1.274 . S
O352 Co341 2.143 . S
O352 C365 1.246 . S
O353 Co345 2.286 . S
O353 C364 1.259 . S
O354 Co345 2.069 . S
O354 C364 1.289 . S
O355 Co345 2.015 . S
O355 C365 1.257 . S
O356 Co341 2.111 1_556 S
O356 C366 1.274 . S
O357 Co346 1.976 . S
O357 C366 1.251 . S
O358 Co345 2.264 1_556 S
O358 Co346 2.327 . S
O358 C367 1.257 . S
O359 Co346 2.073 . S
O359 C367 1.245 . S
C360 O368 1.259 . S
C360 O369 1.289 . S
C361 O370 1.246 . S
C361 O371 1.257 . S
C362 O350 1.251 . S
C362 O351 1.274 . S
C363 O348 1.245 . S
C363 O349 1.257 . S
C364 O353 1.259 . S
C364 O354 1.289 . S
C365 O352 1.246 . S
C365 O355 1.257 . S
C366 O356 1.274 . S
C366 O357 1.251 . S
C367 O358 1.257 . S
C367 O359 1.245 . S
O368 Co339 2.286 . S
O368 C360 1.259 . S
O369 Co339 2.069 . S
O369 C360 1.289 . S
O370 Co341 2.143 1_556 S
O370 C361 1.246 . S
O371 Co339 2.015 . S
O371 C361 1.257 . S
Co372 O375 2.042 . S
Co372 O382 2.264 . S
Co372 O401 2.286 . S
Co372 O402 2.069 . S
Co372 O404 2.015 . S
Co373 O375 2.122 . S
Co373 O381 2.073 . S
Co373 O382 2.327 . S
Co373 O383 1.976 . S
Co374 O375 2.087 . S
Co374 O377 2.087 1_455 S
Co374 O384 2.111 . S
Co374 O385 2.143 1_455 S
Co374 O389 2.111 1_455 S
Co374 O403 2.144 . S
O375 Co372 2.042 . S
O375 Co373 2.122 . S
O375 Co374 2.087 . S
O375 H376 0.980 . S
H376 O375 0.980 . S
O377 Co374 2.087 1_655 S
O377 Co378 2.042 . S
O377 Co379 2.122 . S
O377 H380 0.980 . S
Co378 O377 2.042 . S
Co378 O386 2.286 . S
Co378 O387 2.069 . S
Co378 O388 2.015 . S
Co378 O391 2.264 . S
Co379 O377 2.122 . S
Co379 O390 1.976 . S
Co379 O391 2.327 . S
Co379 O392 2.073 . S
H380 O377 0.980 . S
O381 Co373 2.073 . S
O381 C396 1.245 . S
O382 Co372 2.264 . S
O382 Co373 2.327 . S
O382 C396 1.257 . S
O383 Co373 1.976 . S
O383 C395 1.251 . S
O384 Co374 2.111 . S
O384 C395 1.274 . S
O385 Co374 2.143 1_655 S
O385 C398 1.246 . S
O386 Co378 2.286 . S
O386 C397 1.259 . S
O387 Co378 2.069 . S
O387 C397 1.289 . S
O388 Co378 2.015 . S
O388 C398 1.257 . S
O389 Co374 2.111 1_655 S
O389 C399 1.274 . S
O390 Co379 1.976 . S
O390 C399 1.251 . S
O391 Co378 2.264 . S
O391 Co379 2.327 . S
O391 C400 1.257 . S
O392 Co379 2.073 . S
O392 C400 1.245 . S
C393 O401 1.259 . S
C393 O402 1.289 . S
C394 O403 1.246 . S
C394 O404 1.257 . S
C395 O383 1.251 . S
C395 O384 1.274 . S
C396 O381 1.245 . S
C396 O382 1.257 . S
C397 O386 1.259 . S
C397 O387 1.289 . S
C398 O385 1.246 . S
C398 O388 1.257 . S
C399 O389 1.274 . S
C399 O390 1.251 . S
C400 O391 1.257 . S
C400 O392 1.245 . S
O401 Co372 2.286 . S
O401 C393 1.259 . S
O402 Co372 2.069 . S
O402 C393 1.289 . S
O403 Co374 2.144 . S
O403 C394 1.246 . S
O404 Co372 2.015 . S
O404 C394 1.257 . S
Co405 O408 2.042 . S
Co405 O415 2.264 . S
Co405 O434 2.286 . S
Co405 O435 2.069 . S
Co405 O437 2.015 1_565 S
Co406 O408 2.122 . S
Co406 O414 2.073 . S
Co406 O415 2.327 . S
Co406 O416 1.976 1_565 S
Co407 O408 2.076 1_545 S
Co407 O410 2.097 . S
Co407 O417 2.120 . S
Co407 O418 2.138 1_545 S
Co407 O422 2.103 1_545 S
Co407 O436 2.149 . S
O408 Co405 2.042 . S
O408 Co406 2.122 . S
O408 Co407 2.076 1_565 S
O408 H409 0.980 . S
H409 O408 0.980 . S
O410 Co407 2.097 . S
O410 Co411 2.042 . S
O410 Co412 2.122 . S
O410 H413 0.980 . S
Co411 O410 2.042 . S
Co411 O419 2.286 . S
Co411 O420 2.069 . S
Co411 O421 2.015 1_545 S
Co411 O424 2.264 . S
Co412 O410 2.122 . S
Co412 O423 1.976 1_545 S
Co412 O424 2.327 . S
Co412 O425 2.073 . S
H413 O410 0.980 . S
O414 Co406 2.073 . S
O414 C429 1.245 . S
O415 Co405 2.264 . S
O415 Co406 2.327 . S
O415 C429 1.257 . S
O416 Co406 1.976 1_545 S
O416 C428 1.251 . S
O417 Co407 2.120 . S
O417 C428 1.274 . S
O418 Co407 2.138 1_565 S
O418 C431 1.246 . S
O419 Co411 2.286 . S
O419 C430 1.259 . S
O420 Co411 2.069 . S
O420 C430 1.289 . S
O421 Co411 2.015 1_565 S
O421 C431 1.257 . S
O422 Co407 2.103 1_565 S
O422 C432 1.274 . S
O423 Co412 1.976 1_565 S
O423 C432 1.251 . S
O424 Co411 2.264 . S
O424 Co412 2.327 . S
O424 C433 1.257 . S
O425 Co412 2.073 . S
O425 C433 1.245 . S
C426 O434 1.259 . S
C426 O435 1.289 . S
C427 O436 1.246 . S
C427 O437 1.257 . S
C428 O416 1.251 . S
C428 O417 1.274 . S
C429 O414 1.245 . S
C429 O415 1.257 . S
C430 O419 1.259 . S
C430 O420 1.289 . S
C431 O418 1.246 . S
C431 O421 1.257 . S
C432 O422 1.274 . S
C432 O423 1.251 . S
C433 O424 1.257 . S
C433 O425 1.245 . S
O434 Co405 2.286 . S
O434 C426 1.259 . S
O435 Co405 2.069 . S
O435 C426 1.289 . S
O436 Co407 2.149 . S
O436 C427 1.246 . S
O437 Co405 2.015 1_545 S
O437 C427 1.257 . S
H438 C446 0.950 . S
H439 C451 0.950 . S
H440 C448 0.950 . S
H441 C450 0.950 . S
H442 C452 0.950 . S
H443 C454 0.950 . S
H444 C456 0.950 . S
H445 C457 0.950 . S
C446 H438 0.950 . S
C446 C447 1.386 . S
C446 C448 1.391 . S
C447 C446 1.386 . S
C447 C451 1.393 . S
C448 H440 0.950 . S
C448 C446 1.391 . S
C448 C449 1.400 . S
C449 C448 1.400 . S
C449 C450 1.398 . S
C449 C455 1.491 . S
C450 H441 0.950 . S
C450 C449 1.398 . S
C450 C451 1.391 . S
C451 H439 0.950 . S
C451 C447 1.393 . S
C451 C450 1.391 . S
C452 H442 0.950 . S
C452 C453 1.386 . S
C452 C454 1.391 . S
C453 C452 1.386 . S
C453 C457 1.393 . S
C454 H443 0.950 . S
C454 C452 1.391 . S
C454 C455 1.400 . S
C455 C449 1.491 . S
C455 C454 1.400 . S
C455 C456 1.398 . S
C456 H444 0.950 . S
C456 C455 1.398 . S
C456 C457 1.391 . S
C457 H445 0.950 . S
C457 C453 1.393 . S
C457 C456 1.391 . S
H458 C466 0.950 . S
H459 C471 0.950 . S
H460 C468 0.950 . S
H461 C470 0.950 . S
H462 C472 0.950 . S
H463 C474 0.950 . S
H464 C476 0.950 . S
H465 C477 0.950 . S
C466 H458 0.950 . S
C466 C467 1.386 . S
C466 C468 1.391 . S
C467 C466 1.386 . S
C467 C471 1.393 . S
C468 H460 0.950 . S
C468 C466 1.391 . S
C468 C469 1.400 . S
C469 C468 1.400 . S
C469 C470 1.398 . S
C469 C475 1.491 . S
C470 H461 0.950 . S
C470 C469 1.398 . S
C470 C471 1.391 . S
C471 H459 0.950 . S
C471 C467 1.393 . S
C471 C470 1.391 . S
C472 H462 0.950 . S
C472 C473 1.386 . S
C472 C474 1.391 . S
C473 C472 1.386 . S
C473 C477 1.393 . S
C474 H463 0.950 . S
C474 C472 1.391 . S
C474 C475 1.400 . S
C475 C469 1.491 . S
C475 C474 1.400 . S
C475 C476 1.398 . S
C476 H464 0.950 . S
C476 C475 1.398 . S
C476 C477 1.391 . S
C477 H465 0.950 . S
C477 C473 1.393 . S
C477 C476 1.391 . S
H478 C486 0.950 . S
H479 C491 0.950 . S
H480 C488 0.950 . S
H481 C490 0.950 . S
H482 C492 0.950 . S
H483 C494 0.950 . S
H484 C496 0.950 . S
H485 C497 0.950 . S
C486 H478 0.950 . S
C486 C487 1.386 . S
C486 C488 1.391 . S
C487 C486 1.386 . S
C487 C491 1.393 . S
C488 H480 0.950 . S
C488 C486 1.391 . S
C488 C489 1.400 . S
C489 C488 1.400 . S
C489 C490 1.398 . S
C489 C495 1.491 . S
C490 H481 0.950 . S
C490 C489 1.398 . S
C490 C491 1.391 . S
C491 H479 0.950 . S
C491 C487 1.393 . S
C491 C490 1.391 . S
C492 H482 0.950 . S
C492 C493 1.386 . S
C492 C494 1.391 . S
C493 C492 1.386 . S
C493 C497 1.393 . S
C494 H483 0.950 . S
C494 C492 1.391 . S
C494 C495 1.400 . S
C495 C489 1.491 . S
C495 C494 1.400 . S
C495 C496 1.398 . S
C496 H484 0.950 . S
C496 C495 1.398 . S
C496 C497 1.391 . S
C497 H485 0.950 . S
C497 C493 1.393 . S
C497 C496 1.391 . S
H498 C506 0.950 . S
H499 C511 0.950 . S
H500 C508 0.950 . S
H501 C510 0.950 . S
H502 C512 0.950 . S
H503 C514 0.950 . S
H504 C516 0.950 . S
H505 C517 0.950 . S
C506 H498 0.950 . S
C506 C507 1.386 . S
C506 C508 1.391 . S
C507 C506 1.386 . S
C507 C511 1.393 . S
C508 H500 0.950 . S
C508 C506 1.391 . S
C508 C509 1.400 . S
C509 C508 1.400 . S
C509 C510 1.398 . S
C509 C515 1.491 . S
C510 H501 0.950 . S
C510 C509 1.398 . S
C510 C511 1.391 . S
C511 H499 0.950 . S
C511 C507 1.393 . S
C511 C510 1.391 . S
C512 H502 0.950 . S
C512 C513 1.386 . S
C512 C514 1.391 . S
C513 C512 1.386 . S
C513 C517 1.393 . S
C514 H503 0.950 . S
C514 C512 1.391 . S
C514 C515 1.400 . S
C515 C509 1.491 . S
C515 C514 1.400 . S
C515 C516 1.398 . S
C516 H504 0.950 . S
C516 C515 1.398 . S
C516 C517 1.391 . S
C517 H505 0.950 . S
C517 C513 1.393 . S
C517 C516 1.391 . S
H518 C526 0.950 . S
H519 C531 0.950 . S
H520 C528 0.950 . S
H521 C530 0.950 . S
H522 C532 0.950 . S
H523 C534 0.950 . S
H524 C536 0.950 . S
H525 C537 0.950 . S
C526 H518 0.950 . S
C526 C527 1.386 . S
C526 C528 1.391 . S
C527 C526 1.386 . S
C527 C531 1.393 . S
C528 H520 0.950 . S
C528 C526 1.391 . S
C528 C529 1.400 . S
C529 C528 1.400 . S
C529 C530 1.398 . S
C529 C535 1.491 . S
C530 H521 0.950 . S
C530 C529 1.398 . S
C530 C531 1.391 . S
C531 H519 0.950 . S
C531 C527 1.393 . S
C531 C530 1.391 . S
C532 H522 0.950 . S
C532 C533 1.386 . S
C532 C534 1.391 . S
C533 C532 1.386 . S
C533 C537 1.393 . S
C534 H523 0.950 . S
C534 C532 1.391 . S
C534 C535 1.400 . S
C535 C529 1.491 . S
C535 C534 1.400 . S
C535 C536 1.398 . S
C536 H524 0.950 . S
C536 C535 1.398 . S
C536 C537 1.391 . S
C537 H525 0.950 . S
C537 C533 1.393 . S
C537 C536 1.391 . S
H538 C546 0.950 . S
H539 C551 0.950 . S
H540 C548 0.950 . S
H541 C550 0.950 . S
H542 C552 0.950 . S
H543 C554 0.950 . S
H544 C556 0.950 . S
H545 C557 0.950 . S
C546 H538 0.950 . S
C546 C547 1.386 . S
C546 C548 1.391 . S
C547 C546 1.386 . S
C547 C551 1.393 . S
C548 H540 0.950 . S
C548 C546 1.391 . S
C548 C549 1.400 . S
C549 C548 1.400 . S
C549 C550 1.398 . S
C549 C555 1.491 . S
C550 H541 0.950 . S
C550 C549 1.398 . S
C550 C551 1.391 . S
C551 H539 0.950 . S
C551 C547 1.393 . S
C551 C550 1.391 . S
C552 H542 0.950 . S
C552 C553 1.386 . S
C552 C554 1.391 . S
C553 C552 1.386 . S
C553 C557 1.393 . S
C554 H543 0.950 . S
C554 C552 1.391 . S
C554 C555 1.400 . S
C555 C549 1.491 . S
C555 C554 1.400 . S
C555 C556 1.398 . S
C556 H544 0.950 . S
C556 C555 1.398 . S
C556 C557 1.391 . S
C557 H545 0.950 . S
C557 C553 1.393 . S
C557 C556 1.391 . S
H558 C566 0.950 . S
H559 C571 0.950 . S
H560 C568 0.950 . S
H561 C570 0.950 . S
H562 C572 0.950 . S
H563 C574 0.950 . S
H564 C576 0.950 . S
H565 C577 0.950 . S
C566 H558 0.950 . S
C566 C567 1.386 . S
C566 C568 1.391 . S
C567 C566 1.386 . S
C567 C571 1.393 . S
C568 H560 0.950 . S
C568 C566 1.391 . S
C568 C569 1.400 . S
C569 C568 1.400 . S
C569 C570 1.398 . S
C569 C575 1.491 . S
C570 H561 0.950 . S
C570 C569 1.398 . S
C570 C571 1.391 . S
C571 H559 0.950 . S
C571 C567 1.393 . S
C571 C570 1.391 . S
C572 H562 0.950 . S
C572 C573 1.386 . S
C572 C574 1.391 . S
C573 C572 1.386 . S
C573 C577 1.393 . S
C574 H563 0.950 . S
C574 C572 1.391 . S
C574 C575 1.400 . S
C575 C569 1.491 . S
C575 C574 1.400 . S
C575 C576 1.398 . S
C576 H564 0.950 . S
C576 C575 1.398 . S
C576 C577 1.391 . S
C577 H565 0.950 . S
C577 C573 1.393 . S
C577 C576 1.391 . S
H578 C586 0.950 . S
H579 C591 0.950 . S
H580 C588 0.950 . S
H581 C590 0.950 . S
H582 C592 0.950 . S
H583 C594 0.950 . S
H584 C596 0.950 . S
H585 C597 0.950 . S
C586 H578 0.950 . S
C586 C587 1.386 . S
C586 C588 1.391 . S
C587 C586 1.386 . S
C587 C591 1.393 . S
C588 H580 0.950 . S
C588 C586 1.391 . S
C588 C589 1.400 . S
C589 C588 1.400 . S
C589 C590 1.398 . S
C589 C595 1.491 . S
C590 H581 0.950 . S
C590 C589 1.398 . S
C590 C591 1.391 . S
C591 H579 0.950 . S
C591 C587 1.393 . S
C591 C590 1.391 . S
C592 H582 0.950 . S
C592 C593 1.386 . S
C592 C594 1.391 . S
C593 C592 1.386 . S
C593 C597 1.393 . S
C594 H583 0.950 . S
C594 C592 1.391 . S
C594 C595 1.400 . S
C595 C589 1.491 . S
C595 C594 1.400 . S
C595 C596 1.398 . S
C596 H584 0.950 . S
C596 C595 1.398 . S
C596 C597 1.391 . S
C597 H585 0.950 . S
C597 C593 1.393 . S
C597 C596 1.391 . S
H598 C606 0.950 . S
H599 C611 0.950 . S
H600 C608 0.950 . S
H601 C610 0.950 . S
H602 C612 0.950 . S
H603 C614 0.950 . S
H604 C616 0.950 . S
H605 C617 0.950 . S
C606 H598 0.950 . S
C606 C607 1.386 . S
C606 C608 1.391 . S
C607 C606 1.386 . S
C607 C611 1.393 . S
C608 H600 0.950 . S
C608 C606 1.391 . S
C608 C609 1.400 . S
C609 C608 1.400 . S
C609 C610 1.398 . S
C609 C615 1.491 . S
C610 H601 0.950 . S
C610 C609 1.398 . S
C610 C611 1.391 . S
C611 H599 0.950 . S
C611 C607 1.393 . S
C611 C610 1.391 . S
C612 H602 0.950 . S
C612 C613 1.386 . S
C612 C614 1.391 . S
C613 C612 1.386 . S
C613 C617 1.393 . S
C614 H603 0.950 . S
C614 C612 1.391 . S
C614 C615 1.400 . S
C615 C609 1.491 . S
C615 C614 1.400 . S
C615 C616 1.398 . S
C616 H604 0.950 . S
C616 C615 1.398 . S
C616 C617 1.391 . S
C617 H605 0.950 . S
C617 C613 1.393 . S
C617 C616 1.391 . S
H618 C626 0.950 . S
H619 C631 0.950 . S
H620 C628 0.950 . S
H621 C630 0.950 . S
H622 C632 0.950 . S
H623 C634 0.950 . S
H624 C636 0.950 . S
H625 C637 0.950 1_556 S
C626 H618 0.950 . S
C626 C627 1.386 . S
C626 C628 1.391 . S
C627 C626 1.386 . S
C627 C631 1.393 . S
C628 H620 0.950 . S
C628 C626 1.391 . S
C628 C629 1.400 . S
C629 C628 1.400 . S
C629 C630 1.398 . S
C629 C635 1.491 . S
C630 H621 0.950 . S
C630 C629 1.398 . S
C630 C631 1.391 . S
C631 H619 0.950 . S
C631 C627 1.393 . S
C631 C630 1.391 . S
C632 H622 0.950 . S
C632 C633 1.386 . S
C632 C634 1.391 . S
C633 C632 1.386 . S
C633 C637 1.393 . S
C634 H623 0.950 . S
C634 C632 1.391 . S
C634 C635 1.400 . S
C635 C629 1.491 . S
C635 C634 1.400 . S
C635 C636 1.398 . S
C636 H624 0.950 . S
C636 C635 1.398 . S
C636 C637 1.391 . S
C637 H625 0.950 1_554 S
C637 C633 1.393 . S
C637 C636 1.391 . S
H638 C646 0.950 . S
H639 C651 0.950 . S
H640 C648 0.950 . S
H641 C650 0.950 . S
H642 C652 0.950 . S
H643 C654 0.950 . S
H644 C656 0.950 . S
H645 C657 0.950 . S
C646 H638 0.950 . S
C646 C647 1.386 . S
C646 C648 1.391 . S
C647 C646 1.386 . S
C647 C651 1.393 . S
C648 H640 0.950 . S
C648 C646 1.391 . S
C648 C649 1.400 . S
C649 C648 1.400 . S
C649 C650 1.398 . S
C649 C655 1.491 . S
C650 H641 0.950 . S
C650 C649 1.398 . S
C650 C651 1.391 . S
C651 H639 0.950 . S
C651 C647 1.393 . S
C651 C650 1.391 . S
C652 H642 0.950 . S
C652 C653 1.386 . S
C652 C654 1.391 . S
C653 C652 1.386 . S
C653 C657 1.393 . S
C654 H643 0.950 . S
C654 C652 1.391 . S
C654 C655 1.400 . S
C655 C649 1.491 . S
C655 C654 1.400 . S
C655 C656 1.398 . S
C656 H644 0.950 . S
C656 C655 1.398 . S
C656 C657 1.391 . S
C657 H645 0.950 . S
C657 C653 1.393 . S
C657 C656 1.391 . S
H658 C666 0.950 . S
H659 C671 0.950 . S
H660 C668 0.950 . S
H661 C670 0.950 . S
H662 C672 0.950 . S
H663 C674 0.950 . S
H664 C676 0.950 . S
H665 C677 0.950 . S
C666 H658 0.950 . S
C666 C667 1.386 . S
C666 C668 1.391 . S
C667 C666 1.386 . S
C667 C671 1.393 . S
C668 H660 0.950 . S
C668 C666 1.391 . S
C668 C669 1.400 . S
C669 C668 1.400 . S
C669 C670 1.398 . S
C669 C675 1.491 . S
C670 H661 0.950 . S
C670 C669 1.398 . S
C670 C671 1.391 . S
C671 H659 0.950 . S
C671 C667 1.393 . S
C671 C670 1.391 . S
C672 H662 0.950 . S
C672 C673 1.386 . S
C672 C674 1.391 . S
C673 C672 1.386 . S
C673 C677 1.393 . S
C674 H663 0.950 . S
C674 C672 1.391 . S
C674 C675 1.400 . S
C675 C669 1.491 . S
C675 C674 1.400 . S
C675 C676 1.398 . S
C676 H664 0.950 . S
C676 C675 1.398 . S
C676 C677 1.391 . S
C677 H665 0.950 . S
C677 C673 1.393 . S
C677 C676 1.391 . S
H678 C686 0.950 . S
H679 C691 0.950 . S
H680 C688 0.950 . S
H681 C690 0.950 . S
H682 C692 0.950 . S
H683 C694 0.950 . S
H684 C696 0.950 . S
H685 C697 0.950 . S
C686 H678 0.950 . S
C686 C687 1.386 . S
C686 C688 1.391 . S
C687 C686 1.386 . S
C687 C691 1.393 . S
C688 H680 0.950 . S
C688 C686 1.391 . S
C688 C689 1.400 . S
C689 C688 1.400 . S
C689 C690 1.398 . S
C689 C695 1.491 . S
C690 H681 0.950 . S
C690 C689 1.398 . S
C690 C691 1.391 . S
C691 H679 0.950 . S
C691 C687 1.393 . S
C691 C690 1.391 . S
C692 H682 0.950 . S
C692 C693 1.386 . S
C692 C694 1.391 . S
C693 C692 1.386 . S
C693 C697 1.393 . S
C694 H683 0.950 . S
C694 C692 1.391 . S
C694 C695 1.400 . S
C695 C689 1.491 . S
C695 C694 1.400 . S
C695 C696 1.398 . S
C696 H684 0.950 . S
C696 C695 1.398 . S
C696 C697 1.391 . S
C697 H685 0.950 . S
C697 C693 1.393 . S
C697 C696 1.391 . S
H698 C706 0.950 . S
H699 C711 0.950 . S
H700 C708 0.950 . S
H701 C710 0.950 . S
H702 C712 0.950 . S
H703 C714 0.950 . S
H704 C716 0.950 . S
H705 C717 0.950 . S
C706 H698 0.950 . S
C706 C707 1.386 . S
C706 C708 1.391 . S
C707 C706 1.386 . S
C707 C711 1.393 . S
C708 H700 0.950 . S
C708 C706 1.391 . S
C708 C709 1.400 . S
C709 C708 1.400 . S
C709 C710 1.398 . S
C709 C715 1.491 . S
C710 H701 0.950 . S
C710 C709 1.398 . S
C710 C711 1.391 . S
C711 H699 0.950 . S
C711 C707 1.393 . S
C711 C710 1.391 . S
C712 H702 0.950 . S
C712 C713 1.386 . S
C712 C714 1.391 . S
C713 C712 1.386 . S
C713 C717 1.393 . S
C714 H703 0.950 . S
C714 C712 1.391 . S
C714 C715 1.400 . S
C715 C709 1.491 . S
C715 C714 1.400 . S
C715 C716 1.398 . S
C716 H704 0.950 . S
C716 C715 1.398 . S
C716 C717 1.391 . S
C717 H705 0.950 . S
C717 C713 1.393 . S
C717 C716 1.391 . S
H718 C726 0.950 . S
H719 C731 0.950 . S
H720 C728 0.950 . S
H721 C730 0.950 . S
H722 C732 0.950 . S
H723 C734 0.950 . S
H724 C736 0.950 . S
H725 C737 0.950 . S
C726 H718 0.950 . S
C726 C727 1.386 . S
C726 C728 1.391 . S
C727 C726 1.386 . S
C727 C731 1.393 . S
C728 H720 0.950 . S
C728 C726 1.391 . S
C728 C729 1.400 . S
C729 C728 1.400 . S
C729 C730 1.398 . S
C729 C735 1.491 . S
C730 H721 0.950 . S
C730 C729 1.398 . S
C730 C731 1.391 . S
C731 H719 0.950 . S
C731 C727 1.393 . S
C731 C730 1.391 . S
C732 H722 0.950 . S
C732 C733 1.386 . S
C732 C734 1.391 . S
C733 C732 1.386 . S
C733 C737 1.393 . S
C734 H723 0.950 . S
C734 C732 1.391 . S
C734 C735 1.400 . S
C735 C729 1.491 . S
C735 C734 1.400 . S
C735 C736 1.398 . S
C736 H724 0.950 . S
C736 C735 1.398 . S
C736 C737 1.391 . S
C737 H725 0.950 . S
C737 C733 1.393 . S
C737 C736 1.391 . S
H738 C746 0.950 . S
H739 C751 0.950 . S
H740 C748 0.950 . S
H741 C750 0.950 . S
H742 C752 0.950 . S
H743 C754 0.950 . S
H744 C756 0.950 . S
H745 C757 0.950 . S
C746 H738 0.950 . S
C746 C747 1.386 . S
C746 C748 1.391 . S
C747 C746 1.386 . S
C747 C751 1.393 . S
C748 H740 0.950 . S
C748 C746 1.391 . S
C748 C749 1.400 . S
C749 C748 1.400 . S
C749 C750 1.398 . S
C749 C755 1.491 . S
C750 H741 0.950 . S
C750 C749 1.398 . S
C750 C751 1.391 . S
C751 H739 0.950 . S
C751 C747 1.393 . S
C751 C750 1.391 . S
C752 H742 0.950 . S
C752 C753 1.386 . S
C752 C754 1.391 . S
C753 C752 1.386 . S
C753 C757 1.393 . S
C754 H743 0.950 . S
C754 C752 1.391 . S
C754 C755 1.400 . S
C755 C749 1.491 . S
C755 C754 1.400 . S
C755 C756 1.398 . S
C756 H744 0.950 . S
C756 C755 1.398 . S
C756 C757 1.391 . S
C757 H745 0.950 . S
C757 C753 1.393 . S
C757 C756 1.391 . S
H758 C766 0.950 . S
H759 C771 0.950 . S
H760 C768 0.950 . S
H761 C770 0.950 . S
H762 C772 0.950 . S
H763 C774 0.950 . S
H764 C776 0.950 . S
H765 C777 0.950 . S
C766 H758 0.950 . S
C766 C767 1.386 . S
C766 C768 1.391 . S
C767 C766 1.386 . S
C767 C771 1.393 . S
C768 H760 0.950 . S
C768 C766 1.391 . S
C768 C769 1.400 . S
C769 C768 1.400 . S
C769 C770 1.398 . S
C769 C775 1.491 . S
C770 H761 0.950 . S
C770 C769 1.398 . S
C770 C771 1.391 . S
C771 H759 0.950 . S
C771 C767 1.393 . S
C771 C770 1.391 . S
C772 H762 0.950 . S
C772 C773 1.386 . S
C772 C774 1.391 . S
C773 C772 1.386 . S
C773 C777 1.393 . S
C774 H763 0.950 . S
C774 C772 1.391 . S
C774 C775 1.400 . S
C775 C769 1.491 . S
C775 C774 1.400 . S
C775 C776 1.398 . S
C776 H764 0.950 . S
C776 C775 1.398 . S
C776 C777 1.391 . S
C777 H765 0.950 . S
C777 C773 1.393 . S
C777 C776 1.391 . S
H778 C786 0.950 . S
H779 C791 0.950 . S
H780 C788 0.950 . S
H781 C790 0.950 . S
H782 C792 0.950 . S
H783 C794 0.950 . S
H784 C796 0.950 . S
H785 C797 0.950 1_554 S
C786 H778 0.950 . S
C786 C787 1.386 . S
C786 C788 1.391 . S
C787 C786 1.386 . S
C787 C791 1.393 . S
C788 H780 0.950 . S
C788 C786 1.391 . S
C788 C789 1.400 . S
C789 C788 1.400 . S
C789 C790 1.398 . S
C789 C795 1.491 . S
C790 H781 0.950 . S
C790 C789 1.398 . S
C790 C791 1.391 . S
C791 H779 0.950 . S
C791 C787 1.393 . S
C791 C790 1.391 . S
C792 H782 0.950 . S
C792 C793 1.386 . S
C792 C794 1.391 . S
C793 C792 1.386 . S
C793 C797 1.393 . S
C794 H783 0.950 . S
C794 C792 1.391 . S
C794 C795 1.400 . S
C795 C789 1.491 . S
C795 C794 1.400 . S
C795 C796 1.398 . S
C796 H784 0.950 . S
C796 C795 1.398 . S
C796 C797 1.391 . S
C797 H785 0.950 1_556 S
C797 C793 1.393 . S
C797 C796 1.391 . S
H798 C806 0.950 . S
H799 C811 0.950 . S
H800 C808 0.950 . S
H801 C810 0.950 . S
H802 C812 0.950 . S
H803 C814 0.950 . S
H804 C816 0.950 . S
H805 C817 0.950 . S
C806 H798 0.950 . S
C806 C807 1.386 . S
C806 C808 1.391 . S
C807 C806 1.386 . S
C807 C811 1.393 . S
C808 H800 0.950 . S
C808 C806 1.391 . S
C808 C809 1.400 . S
C809 C808 1.400 . S
C809 C810 1.398 . S
C809 C815 1.491 . S
C810 H801 0.950 . S
C810 C809 1.398 . S
C810 C811 1.391 . S
C811 H799 0.950 . S
C811 C807 1.393 . S
C811 C810 1.391 . S
C812 H802 0.950 . S
C812 C813 1.386 . S
C812 C814 1.391 . S
C813 C812 1.386 . S
C813 C817 1.393 . S
C814 H803 0.950 . S
C814 C812 1.391 . S
C814 C815 1.400 . S
C815 C809 1.491 . S
C815 C814 1.400 . S
C815 C816 1.398 . S
C816 H804 0.950 . S
C816 C815 1.398 . S
C816 C817 1.391 . S
C817 H805 0.950 . S
C817 C813 1.393 . S
C817 C816 1.391 . S
H818 C826 0.950 . S
H819 C831 0.950 . S
H820 C828 0.950 . S
H821 C830 0.950 . S
H822 C832 0.950 . S
H823 C834 0.950 . S
H824 C836 0.950 . S
H825 C837 0.950 . S
C826 H818 0.950 . S
C826 C827 1.386 . S
C826 C828 1.391 . S
C827 C826 1.386 . S
C827 C831 1.393 . S
C828 H820 0.950 . S
C828 C826 1.391 . S
C828 C829 1.400 . S
C829 C828 1.400 . S
C829 C830 1.398 . S
C829 C835 1.491 . S
C830 H821 0.950 . S
C830 C829 1.398 . S
C830 C831 1.391 . S
C831 H819 0.950 . S
C831 C827 1.393 . S
C831 C830 1.391 . S
C832 H822 0.950 . S
C832 C833 1.386 . S
C832 C834 1.391 . S
C833 C832 1.386 . S
C833 C837 1.393 . S
C834 H823 0.950 . S
C834 C832 1.391 . S
C834 C835 1.400 . S
C835 C829 1.491 . S
C835 C834 1.400 . S
C835 C836 1.398 . S
C836 H824 0.950 . S
C836 C835 1.398 . S
C836 C837 1.391 . S
C837 H825 0.950 . S
C837 C833 1.393 . S
C837 C836 1.391 . S
H838 C846 0.950 . S
H839 C851 0.950 . S
H840 C848 0.950 . S
H841 C850 0.950 . S
H842 C852 0.950 . S
H843 C854 0.950 . S
H844 C856 0.950 . S
H845 C857 0.950 . S
C846 H838 0.950 . S
C846 C847 1.386 . S
C846 C848 1.391 . S
C847 C846 1.386 . S
C847 C851 1.393 . S
C848 H840 0.950 . S
C848 C846 1.391 . S
C848 C849 1.400 . S
C849 C848 1.400 . S
C849 C850 1.398 . S
C849 C855 1.491 . S
C850 H841 0.950 . S
C850 C849 1.398 . S
C850 C851 1.391 . S
C851 H839 0.950 . S
C851 C847 1.393 . S
C851 C850 1.391 . S
C852 H842 0.950 . S
C852 C853 1.386 . S
C852 C854 1.391 . S
C853 C852 1.386 . S
C853 C857 1.393 . S
C854 H843 0.950 . S
C854 C852 1.391 . S
C854 C855 1.400 . S
C855 C849 1.491 . S
C855 C854 1.400 . S
C855 C856 1.398 . S
C856 H844 0.950 . S
C856 C855 1.398 . S
C856 C857 1.391 . S
C857 H845 0.950 . S
C857 C853 1.393 . S
C857 C856 1.391 . S
H858 C866 0.950 . S
H859 C871 0.950 . S
H860 C868 0.950 . S
H861 C870 0.950 . S
H862 C872 0.950 . S
H863 C874 0.950 . S
H864 C876 0.950 . S
H865 C877 0.950 . S
C866 H858 0.950 . S
C866 C867 1.386 . S
C866 C868 1.391 . S
C867 C866 1.386 . S
C867 C871 1.393 . S
C868 H860 0.950 . S
C868 C866 1.391 . S
C868 C869 1.400 . S
C869 C868 1.400 . S
C869 C870 1.398 . S
C869 C875 1.491 . S
C870 H861 0.950 . S
C870 C869 1.398 . S
C870 C871 1.391 . S
C871 H859 0.950 . S
C871 C867 1.393 . S
C871 C870 1.391 . S
C872 H862 0.950 . S
C872 C873 1.386 . S
C872 C874 1.391 . S
C873 C872 1.386 . S
C873 C877 1.393 . S
C874 H863 0.950 . S
C874 C872 1.391 . S
C874 C875 1.400 . S
C875 C869 1.491 . S
C875 C874 1.400 . S
C875 C876 1.398 . S
C876 H864 0.950 . S
C876 C875 1.398 . S
C876 C877 1.391 . S
C877 H865 0.950 . S
C877 C873 1.393 . S
C877 C876 1.391 . S
H878 C886 0.950 . S
H879 C891 0.950 . S
H880 C888 0.950 . S
H881 C890 0.950 . S
H882 C892 0.950 . S
H883 C894 0.950 . S
H884 C896 0.950 . S
H885 C897 0.950 . S
C886 H878 0.950 . S
C886 C887 1.386 . S
C886 C888 1.391 . S
C887 C886 1.386 . S
C887 C891 1.393 . S
C888 H880 0.950 . S
C888 C886 1.391 . S
C888 C889 1.400 . S
C889 C888 1.400 . S
C889 C890 1.398 . S
C889 C895 1.491 . S
C890 H881 0.950 . S
C890 C889 1.398 . S
C890 C891 1.391 . S
C891 H879 0.950 . S
C891 C887 1.393 . S
C891 C890 1.391 . S
C892 H882 0.950 . S
C892 C893 1.386 . S
C892 C894 1.391 . S
C893 C892 1.386 . S
C893 C897 1.393 . S
C894 H883 0.950 . S
C894 C892 1.391 . S
C894 C895 1.400 . S
C895 C889 1.491 . S
C895 C894 1.400 . S
C895 C896 1.398 . S
C896 H884 0.950 . S
C896 C895 1.398 . S
C896 C897 1.391 . S
C897 H885 0.950 . S
C897 C893 1.393 . S
C897 C896 1.391 . S
H898 C906 0.950 . S
H899 C911 0.950 . S
H900 C908 0.950 . S
H901 C910 0.950 . S
H902 C912 0.950 . S
H903 C914 0.950 . S
H904 C916 0.950 . S
H905 C917 0.950 . S
C906 H898 0.950 . S
C906 C907 1.386 . S
C906 C908 1.391 . S
C907 C906 1.386 . S
C907 C911 1.393 . S
C908 H900 0.950 . S
C908 C906 1.391 . S
C908 C909 1.400 . S
C909 C908 1.400 . S
C909 C910 1.398 . S
C909 C915 1.491 . S
C910 H901 0.950 . S
C910 C909 1.398 . S
C910 C911 1.391 . S
C911 H899 0.950 . S
C911 C907 1.393 . S
C911 C910 1.391 . S
C912 H902 0.950 . S
C912 C913 1.386 . S
C912 C914 1.391 . S
C913 C912 1.386 . S
C913 C917 1.393 . S
C914 H903 0.950 . S
C914 C912 1.391 . S
C914 C915 1.400 . S
C915 C909 1.491 . S
C915 C914 1.400 . S
C915 C916 1.398 . S
C916 H904 0.950 . S
C916 C915 1.398 . S
C916 C917 1.391 . S
C917 H905 0.950 . S
C917 C913 1.393 . S
C917 C916 1.391 . S
H918 C926 0.950 . S
H919 C931 0.950 . S
H920 C928 0.950 . S
H921 C930 0.950 . S
H922 C932 0.950 . S
H923 C934 0.950 . S
H924 C936 0.950 . S
H925 C937 0.950 . S
C926 H918 0.950 . S
C926 C927 1.386 . S
C926 C928 1.391 . S
C927 C926 1.386 . S
C927 C931 1.393 . S
C928 H920 0.950 . S
C928 C926 1.391 . S
C928 C929 1.400 . S
C929 C928 1.400 . S
C929 C930 1.398 . S
C929 C935 1.491 . S
C930 H921 0.950 . S
C930 C929 1.398 . S
C930 C931 1.391 . S
C931 H919 0.950 . S
C931 C927 1.393 . S
C931 C930 1.391 . S
C932 H922 0.950 . S
C932 C933 1.386 . S
C932 C934 1.391 . S
C933 C932 1.386 . S
C933 C937 1.393 . S
C934 H923 0.950 . S
C934 C932 1.391 . S
C934 C935 1.400 . S
C935 C929 1.491 . S
C935 C934 1.400 . S
C935 C936 1.398 . S
C936 H924 0.950 . S
C936 C935 1.398 . S
C936 C937 1.391 . S
C937 H925 0.950 . S
C937 C933 1.393 . S
C937 C936 1.391 . S
H938 C946 0.950 . S
H939 C951 0.950 . S
H940 C948 0.950 . S
H941 C950 0.950 . S
H942 C952 0.950 . S
H943 C954 0.950 . S
H944 C956 0.950 . S
H945 C957 0.950 . S
C946 H938 0.950 . S
C946 C947 1.386 . S
C946 C948 1.391 . S
C947 C946 1.386 . S
C947 C951 1.393 . S
C948 H940 0.950 . S
C948 C946 1.391 . S
C948 C949 1.400 . S
C949 C948 1.400 . S
C949 C950 1.398 . S
C949 C955 1.491 . S
C950 H941 0.950 . S
C950 C949 1.398 . S
C950 C951 1.391 . S
C951 H939 0.950 . S
C951 C947 1.393 . S
C951 C950 1.391 . S
C952 H942 0.950 . S
C952 C953 1.386 . S
C952 C954 1.391 . S
C953 C952 1.386 . S
C953 C957 1.393 . S
C954 H943 0.950 . S
C954 C952 1.391 . S
C954 C955 1.400 . S
C955 C949 1.491 . S
C955 C954 1.400 . S
C955 C956 1.398 . S
C956 H944 0.950 . S
C956 C955 1.398 . S
C956 C957 1.391 . S
C957 H945 0.950 . S
C957 C953 1.393 . S
C957 C956 1.391 . S
H958 C966 0.950 . S
H959 C971 0.950 . S
H960 C968 0.950 . S
H961 C970 0.950 . S
H962 C972 0.950 . S
H963 C974 0.950 . S
H964 C976 0.950 . S
H965 C977 0.950 . S
C966 H958 0.950 . S
C966 C967 1.386 . S
C966 C968 1.391 . S
C967 C966 1.386 . S
C967 C971 1.393 . S
C968 H960 0.950 . S
C968 C966 1.391 . S
C968 C969 1.400 . S
C969 C968 1.400 . S
C969 C970 1.398 . S
C969 C975 1.491 . S
C970 H961 0.950 . S
C970 C969 1.398 . S
C970 C971 1.391 . S
C971 H959 0.950 . S
C971 C967 1.393 . S
C971 C970 1.391 . S
C972 H962 0.950 . S
C972 C973 1.386 . S
C972 C974 1.391 . S
C973 C972 1.386 . S
C973 C977 1.393 . S
C974 H963 0.950 . S
C974 C972 1.391 . S
C974 C975 1.400 . S
C975 C969 1.491 . S
C975 C974 1.400 . S
C975 C976 1.398 . S
C976 H964 0.950 . S
C976 C975 1.398 . S
C976 C977 1.391 . S
C977 H965 0.950 . S
C977 C973 1.393 . S
C977 C976 1.391 . S
H978 C986 0.950 . S
H979 C991 0.950 . S
H980 C988 0.950 . S
H981 C990 0.950 . S
H982 C992 0.950 . S
H983 C994 0.950 . S
H984 C996 0.950 . S
H985 C997 0.950 . S
C986 H978 0.950 . S
C986 C987 1.386 . S
C986 C988 1.391 . S
C987 C986 1.386 . S
C987 C991 1.393 . S
C988 H980 0.950 . S
C988 C986 1.391 . S
C988 C989 1.400 . S
C989 C988 1.400 . S
C989 C990 1.398 . S
C989 C995 1.491 . S
C990 H981 0.950 . S
C990 C989 1.398 . S
C990 C991 1.391 . S
C991 H979 0.950 . S
C991 C987 1.393 . S
C991 C990 1.391 . S
C992 H982 0.950 . S
C992 C993 1.386 . S
C992 C994 1.391 . S
C993 C992 1.386 . S
C993 C997 1.393 . S
C994 H983 0.950 . S
C994 C992 1.391 . S
C994 C995 1.400 . S
C995 C989 1.491 . S
C995 C994 1.400 . S
C995 C996 1.398 . S
C996 H984 0.950 . S
C996 C995 1.398 . S
C996 C997 1.391 . S
C997 H985 0.950 . S
C997 C993 1.393 . S
C997 C996 1.391 . S
H998 C1006 0.950 . S
H999 C1011 0.950 . S
H1000 C1008 0.950 . S
H1001 C1010 0.950 . S
H1002 C1012 0.950 . S
H1003 C1014 0.950 . S
H1004 C1016 0.950 . S
H1005 C1017 0.950 . S
C1006 H998 0.950 . S
C1006 C1007 1.386 . S
C1006 C1008 1.391 . S
C1007 C1006 1.386 . S
C1007 C1011 1.393 . S
C1008 H1000 0.950 . S
C1008 C1006 1.391 . S
C1008 C1009 1.400 . S
C1009 C1008 1.400 . S
C1009 C1010 1.398 . S
C1009 C1015 1.491 . S
C1010 H1001 0.950 . S
C1010 C1009 1.398 . S
C1010 C1011 1.391 . S
C1011 H999 0.950 . S
C1011 C1007 1.393 . S
C1011 C1010 1.391 . S
C1012 H1002 0.950 . S
C1012 C1013 1.386 . S
C1012 C1014 1.391 . S
C1013 C1012 1.386 . S
C1013 C1017 1.393 . S
C1014 H1003 0.950 . S
C1014 C1012 1.391 . S
C1014 C1015 1.400 . S
C1015 C1009 1.491 . S
C1015 C1014 1.400 . S
C1015 C1016 1.398 . S
C1016 H1004 0.950 . S
C1016 C1015 1.398 . S
C1016 C1017 1.391 . S
C1017 H1005 0.950 . S
C1017 C1013 1.393 . S
C1017 C1016 1.391 . S
H1018 C1026 0.950 . S
H1019 C1031 0.950 . S
H1020 C1028 0.950 . S
H1021 C1030 0.950 . S
H1022 C1032 0.950 . S
H1023 C1034 0.950 . S
H1024 C1036 0.950 . S
H1025 C1037 0.950 . S
C1026 H1018 0.950 . S
C1026 C1027 1.386 . S
C1026 C1028 1.391 . S
C1027 C1026 1.386 . S
C1027 C1031 1.393 . S
C1028 H1020 0.950 . S
C1028 C1026 1.391 . S
C1028 C1029 1.400 . S
C1029 C1028 1.400 . S
C1029 C1030 1.398 . S
C1029 C1035 1.491 . S
C1030 H1021 0.950 . S
C1030 C1029 1.398 . S
C1030 C1031 1.391 . S
C1031 H1019 0.950 . S
C1031 C1027 1.393 . S
C1031 C1030 1.391 . S
C1032 H1022 0.950 . S
C1032 C1033 1.386 . S
C1032 C1034 1.391 . S
C1033 C1032 1.386 . S
C1033 C1037 1.393 . S
C1034 H1023 0.950 . S
C1034 C1032 1.391 . S
C1034 C1035 1.400 . S
C1035 C1029 1.491 . S
C1035 C1034 1.400 . S
C1035 C1036 1.398 . S
C1036 H1024 0.950 . S
C1036 C1035 1.398 . S
C1036 C1037 1.391 . S
C1037 H1025 0.950 . S
C1037 C1033 1.393 . S
C1037 C1036 1.391 . S
H1038 C1046 0.950 . S
H1039 C1051 0.950 . S
H1040 C1048 0.950 . S
H1041 C1050 0.950 . S
H1042 C1052 0.950 . S
H1043 C1054 0.950 . S
H1044 C1056 0.950 . S
H1045 C1057 0.950 . S
C1046 H1038 0.950 . S
C1046 C1047 1.386 . S
C1046 C1048 1.391 . S
C1047 C1046 1.386 . S
C1047 C1051 1.393 . S
C1048 H1040 0.950 . S
C1048 C1046 1.391 . S
C1048 C1049 1.400 . S
C1049 C1048 1.400 . S
C1049 C1050 1.398 . S
C1049 C1055 1.491 . S
C1050 H1041 0.950 . S
C1050 C1049 1.398 . S
C1050 C1051 1.391 . S
C1051 H1039 0.950 . S
C1051 C1047 1.393 . S
C1051 C1050 1.391 . S
C1052 H1042 0.950 . S
C1052 C1053 1.386 . S
C1052 C1054 1.391 . S
C1053 C1052 1.386 . S
C1053 C1057 1.393 . S
C1054 H1043 0.950 . S
C1054 C1052 1.391 . S
C1054 C1055 1.400 . S
C1055 C1049 1.491 . S
C1055 C1054 1.400 . S
C1055 C1056 1.398 . S
C1056 H1044 0.950 . S
C1056 C1055 1.398 . S
C1056 C1057 1.391 . S
C1057 H1045 0.950 . S
C1057 C1053 1.393 . S
C1057 C1056 1.391 . S
H1058 C1066 0.950 . S
H1059 C1071 0.950 . S
H1060 C1068 0.950 . S
H1061 C1070 0.950 . S
H1062 C1072 0.950 . S
H1063 C1074 0.950 . S
H1064 C1076 0.950 . S
H1065 C1077 0.950 . S
C1066 H1058 0.950 . S
C1066 C1067 1.386 . S
C1066 C1068 1.391 . S
C1067 C1066 1.386 . S
C1067 C1071 1.393 . S
C1068 H1060 0.950 . S
C1068 C1066 1.391 . S
C1068 C1069 1.400 . S
C1069 C1068 1.400 . S
C1069 C1070 1.398 . S
C1069 C1075 1.491 . S
C1070 H1061 0.950 . S
C1070 C1069 1.398 . S
C1070 C1071 1.391 . S
C1071 H1059 0.950 . S
C1071 C1067 1.393 . S
C1071 C1070 1.391 . S
C1072 H1062 0.950 . S
C1072 C1073 1.386 . S
C1072 C1074 1.391 . S
C1073 C1072 1.386 . S
C1073 C1077 1.393 . S
C1074 H1063 0.950 . S
C1074 C1072 1.391 . S
C1074 C1075 1.400 . S
C1075 C1069 1.491 . S
C1075 C1074 1.400 . S
C1075 C1076 1.398 . S
C1076 H1064 0.950 . S
C1076 C1075 1.398 . S
C1076 C1077 1.391 . S
C1077 H1065 0.950 . S
C1077 C1073 1.393 . S
C1077 C1076 1.391 . S
H1078 C1086 0.950 . S
H1079 C1091 0.950 . S
H1080 C1088 0.950 . S
H1081 C1090 0.950 . S
H1082 C1092 0.950 . S
H1083 C1094 0.950 . S
H1084 C1096 0.950 . S
H1085 C1097 0.950 . S
C1086 H1078 0.950 . S
C1086 C1087 1.386 . S
C1086 C1088 1.391 . S
C1087 C1086 1.386 . S
C1087 C1091 1.393 . S
C1088 H1080 0.950 . S
C1088 C1086 1.391 . S
C1088 C1089 1.400 . S
C1089 C1088 1.400 . S
C1089 C1090 1.398 . S
C1089 C1095 1.491 . S
C1090 H1081 0.950 . S
C1090 C1089 1.398 . S
C1090 C1091 1.391 . S
C1091 H1079 0.950 . S
C1091 C1087 1.393 . S
C1091 C1090 1.391 . S
C1092 H1082 0.950 . S
C1092 C1093 1.386 . S
C1092 C1094 1.391 . S
C1093 C1092 1.386 . S
C1093 C1097 1.393 . S
C1094 H1083 0.950 . S
C1094 C1092 1.391 . S
C1094 C1095 1.400 . S
C1095 C1089 1.491 . S
C1095 C1094 1.400 . S
C1095 C1096 1.398 . S
C1096 H1084 0.950 . S
C1096 C1095 1.398 . S
C1096 C1097 1.391 . S
C1097 H1085 0.950 . S
C1097 C1093 1.393 . S
C1097 C1096 1.391 . S
H1098 C1106 0.950 . S
H1099 C1111 0.950 . S
H1100 C1108 0.950 . S
H1101 C1110 0.950 . S
H1102 C1112 0.950 . S
H1103 C1114 0.950 . S
H1104 C1116 0.950 . S
H1105 C1117 0.950 . S
C1106 H1098 0.950 . S
C1106 C1107 1.386 . S
C1106 C1108 1.391 . S
C1107 C1106 1.386 . S
C1107 C1111 1.393 . S
C1108 H1100 0.950 . S
C1108 C1106 1.391 . S
C1108 C1109 1.400 . S
C1109 C1108 1.400 . S
C1109 C1110 1.398 . S
C1109 C1115 1.491 . S
C1110 H1101 0.950 . S
C1110 C1109 1.398 . S
C1110 C1111 1.391 . S
C1111 H1099 0.950 . S
C1111 C1107 1.393 . S
C1111 C1110 1.391 . S
C1112 H1102 0.950 . S
C1112 C1113 1.386 . S
C1112 C1114 1.391 . S
C1113 C1112 1.386 . S
C1113 C1117 1.393 . S
C1114 H1103 0.950 . S
C1114 C1112 1.391 . S
C1114 C1115 1.400 . S
C1115 C1109 1.491 . S
C1115 C1114 1.400 . S
C1115 C1116 1.398 . S
C1116 H1104 0.950 . S
C1116 C1115 1.398 . S
C1116 C1117 1.391 . S
C1117 H1105 0.950 . S
C1117 C1113 1.393 . S
C1117 C1116 1.391 . S
H1118 C1126 0.950 . S
H1119 C1131 0.950 . S
H1120 C1128 0.950 . S
H1121 C1130 0.950 . S
H1122 C1132 0.950 . S
H1123 C1134 0.950 . S
H1124 C1136 0.950 . S
H1125 C1137 0.950 . S
C1126 H1118 0.950 . S
C1126 C1127 1.386 . S
C1126 C1128 1.391 . S
C1127 C1126 1.386 . S
C1127 C1131 1.393 . S
C1128 H1120 0.950 . S
C1128 C1126 1.391 . S
C1128 C1129 1.400 . S
C1129 C1128 1.400 . S
C1129 C1130 1.398 . S
C1129 C1135 1.491 . S
C1130 H1121 0.950 . S
C1130 C1129 1.398 . S
C1130 C1131 1.391 . S
C1131 H1119 0.950 . S
C1131 C1127 1.393 . S
C1131 C1130 1.391 . S
C1132 H1122 0.950 . S
C1132 C1133 1.386 . S
C1132 C1134 1.391 . S
C1133 C1132 1.386 . S
C1133 C1137 1.393 . S
C1134 H1123 0.950 . S
C1134 C1132 1.391 . S
C1134 C1135 1.400 . S
C1135 C1129 1.491 . S
C1135 C1134 1.400 . S
C1135 C1136 1.398 . S
C1136 H1124 0.950 . S
C1136 C1135 1.398 . S
C1136 C1137 1.391 . S
C1137 H1125 0.950 . S
C1137 C1133 1.393 . S
C1137 C1136 1.391 . S
H1138 C1146 0.950 . S
H1139 C1151 0.950 . S
H1140 C1148 0.950 . S
H1141 C1150 0.950 . S
H1142 C1152 0.950 . S
H1143 C1154 0.950 . S
H1144 C1156 0.950 . S
H1145 C1157 0.950 . S
C1146 H1138 0.950 . S
C1146 C1147 1.386 . S
C1146 C1148 1.391 . S
C1147 C1146 1.386 . S
C1147 C1151 1.393 . S
C1148 H1140 0.950 . S
C1148 C1146 1.391 . S
C1148 C1149 1.400 . S
C1149 C1148 1.400 . S
C1149 C1150 1.398 . S
C1149 C1155 1.491 . S
C1150 H1141 0.950 . S
C1150 C1149 1.398 . S
C1150 C1151 1.391 . S
C1151 H1139 0.950 . S
C1151 C1147 1.393 . S
C1151 C1150 1.391 . S
C1152 H1142 0.950 . S
C1152 C1153 1.386 . S
C1152 C1154 1.391 . S
C1153 C1152 1.386 . S
C1153 C1157 1.393 . S
C1154 H1143 0.950 . S
C1154 C1152 1.391 . S
C1154 C1155 1.400 . S
C1155 C1149 1.491 . S
C1155 C1154 1.400 . S
C1155 C1156 1.398 . S
C1156 H1144 0.950 . S
C1156 C1155 1.398 . S
C1156 C1157 1.391 . S
C1157 H1145 0.950 . S
C1157 C1153 1.393 . S
C1157 C1156 1.391 . S
H1158 C1166 0.950 . S
H1159 C1171 0.950 . S
H1160 C1168 0.950 . S
H1161 C1170 0.950 . S
H1162 C1172 0.950 . S
H1163 C1174 0.950 . S
H1164 C1176 0.950 . S
H1165 C1177 0.950 . S
C1166 H1158 0.950 . S
C1166 C1167 1.386 . S
C1166 C1168 1.391 . S
C1167 C1166 1.386 . S
C1167 C1171 1.393 . S
C1168 H1160 0.950 . S
C1168 C1166 1.391 . S
C1168 C1169 1.400 . S
C1169 C1168 1.400 . S
C1169 C1170 1.398 . S
C1169 C1175 1.491 . S
C1170 H1161 0.950 . S
C1170 C1169 1.398 . S
C1170 C1171 1.391 . S
C1171 H1159 0.950 . S
C1171 C1167 1.393 . S
C1171 C1170 1.391 . S
C1172 H1162 0.950 . S
C1172 C1173 1.386 . S
C1172 C1174 1.391 . S
C1173 C1172 1.386 . S
C1173 C1177 1.393 . S
C1174 H1163 0.950 . S
C1174 C1172 1.391 . S
C1174 C1175 1.400 . S
C1175 C1169 1.491 . S
C1175 C1174 1.400 . S
C1175 C1176 1.398 . S
C1176 H1164 0.950 . S
C1176 C1175 1.398 . S
C1176 C1177 1.391 . S
C1177 H1165 0.950 . S
C1177 C1173 1.393 . S
C1177 C1176 1.391 . S
H1178 C1186 0.950 . S
H1179 C1191 0.950 . S
H1180 C1188 0.950 . S
H1181 C1190 0.950 . S
H1182 C1192 0.950 . S
H1183 C1194 0.950 . S
H1184 C1196 0.950 . S
H1185 C1197 0.950 . S
C1186 H1178 0.950 . S
C1186 C1187 1.386 . S
C1186 C1188 1.391 . S
C1187 C1186 1.386 . S
C1187 C1191 1.393 . S
C1188 H1180 0.950 . S
C1188 C1186 1.391 . S
C1188 C1189 1.400 . S
C1189 C1188 1.400 . S
C1189 C1190 1.398 . S
C1189 C1195 1.491 . S
C1190 H1181 0.950 . S
C1190 C1189 1.398 . S
C1190 C1191 1.391 . S
C1191 H1179 0.950 . S
C1191 C1187 1.393 . S
C1191 C1190 1.391 . S
C1192 H1182 0.950 . S
C1192 C1193 1.386 . S
C1192 C1194 1.391 . S
C1193 C1192 1.386 . S
C1193 C1197 1.393 . S
C1194 H1183 0.950 . S
C1194 C1192 1.391 . S
C1194 C1195 1.400 . S
C1195 C1189 1.491 . S
C1195 C1194 1.400 . S
C1195 C1196 1.398 . S
C1196 H1184 0.950 . S
C1196 C1195 1.398 . S
C1196 C1197 1.391 . S
C1197 H1185 0.950 . S
C1197 C1193 1.393 . S
C1197 C1196 1.391 . S
H1198 C1206 0.950 . S
H1199 C1211 0.950 . S
H1200 C1208 0.950 . S
H1201 C1210 0.950 . S
H1202 C1212 0.950 . S
H1203 C1214 0.950 . S
H1204 C1216 0.950 . S
H1205 C1217 0.950 . S
C1206 H1198 0.950 . S
C1206 C1207 1.386 . S
C1206 C1208 1.391 . S
C1207 C1206 1.386 . S
C1207 C1211 1.393 . S
C1208 H1200 0.950 . S
C1208 C1206 1.391 . S
C1208 C1209 1.400 . S
C1209 C1208 1.400 . S
C1209 C1210 1.398 . S
C1209 C1215 1.491 . S
C1210 H1201 0.950 . S
C1210 C1209 1.398 . S
C1210 C1211 1.391 . S
C1211 H1199 0.950 . S
C1211 C1207 1.393 . S
C1211 C1210 1.391 . S
C1212 H1202 0.950 . S
C1212 C1213 1.386 . S
C1212 C1214 1.391 . S
C1213 C1212 1.386 . S
C1213 C1217 1.393 . S
C1214 H1203 0.950 . S
C1214 C1212 1.391 . S
C1214 C1215 1.400 . S
C1215 C1209 1.491 . S
C1215 C1214 1.400 . S
C1215 C1216 1.398 . S
C1216 H1204 0.950 . S
C1216 C1215 1.398 . S
C1216 C1217 1.391 . S
C1217 H1205 0.950 . S
C1217 C1213 1.393 . S
C1217 C1216 1.391 . S
H1218 C1226 0.950 . S
H1219 C1231 0.950 . S
H1220 C1228 0.950 . S
H1221 C1230 0.950 . S
H1222 C1232 0.950 . S
H1223 C1234 0.950 . S
H1224 C1236 0.950 . S
H1225 C1237 0.950 . S
C1226 H1218 0.950 . S
C1226 C1227 1.386 . S
C1226 C1228 1.391 . S
C1227 C1226 1.386 . S
C1227 C1231 1.393 . S
C1228 H1220 0.950 . S
C1228 C1226 1.391 . S
C1228 C1229 1.400 . S
C1229 C1228 1.400 . S
C1229 C1230 1.398 . S
C1229 C1235 1.491 . S
C1230 H1221 0.950 . S
C1230 C1229 1.398 . S
C1230 C1231 1.391 . S
C1231 H1219 0.950 . S
C1231 C1227 1.393 . S
C1231 C1230 1.391 . S
C1232 H1222 0.950 . S
C1232 C1233 1.386 . S
C1232 C1234 1.391 . S
C1233 C1232 1.386 . S
C1233 C1237 1.393 . S
C1234 H1223 0.950 . S
C1234 C1232 1.391 . S
C1234 C1235 1.400 . S
C1235 C1229 1.491 . S
C1235 C1234 1.400 . S
C1235 C1236 1.398 . S
C1236 H1224 0.950 . S
C1236 C1235 1.398 . S
C1236 C1237 1.391 . S
C1237 H1225 0.950 . S
C1237 C1233 1.393 . S
C1237 C1236 1.391 . S
H1238 C1246 0.950 . S
H1239 C1251 0.950 . S
H1240 C1248 0.950 . S
H1241 C1250 0.950 . S
H1242 C1252 0.950 . S
H1243 C1254 0.950 . S
H1244 C1256 0.950 . S
H1245 C1257 0.950 . S
C1246 H1238 0.950 . S
C1246 C1247 1.386 . S
C1246 C1248 1.391 . S
C1247 C1246 1.386 . S
C1247 C1251 1.393 . S
C1248 H1240 0.950 . S
C1248 C1246 1.391 . S
C1248 C1249 1.400 . S
C1249 C1248 1.400 . S
C1249 C1250 1.398 . S
C1249 C1255 1.491 . S
C1250 H1241 0.950 . S
C1250 C1249 1.398 . S
C1250 C1251 1.391 . S
C1251 H1239 0.950 . S
C1251 C1247 1.393 . S
C1251 C1250 1.391 . S
C1252 H1242 0.950 . S
C1252 C1253 1.386 . S
C1252 C1254 1.391 . S
C1253 C1252 1.386 . S
C1253 C1257 1.393 . S
C1254 H1243 0.950 . S
C1254 C1252 1.391 . S
C1254 C1255 1.400 . S
C1255 C1249 1.491 . S
C1255 C1254 1.400 . S
C1255 C1256 1.398 . S
C1256 H1244 0.950 . S
C1256 C1255 1.398 . S
C1256 C1257 1.391 . S
C1257 H1245 0.950 . S
C1257 C1253 1.393 . S
C1257 C1256 1.391 . S
H1258 C1266 0.950 . S
H1259 C1271 0.950 . S
H1260 C1268 0.950 . S
H1261 C1270 0.950 . S
H1262 C1272 0.950 . S
H1263 C1274 0.950 . S
H1264 C1276 0.950 . S
H1265 C1277 0.950 . S
C1266 H1258 0.950 . S
C1266 C1267 1.386 . S
C1266 C1268 1.391 . S
C1267 C1266 1.386 . S
C1267 C1271 1.393 . S
C1268 H1260 0.950 . S
C1268 C1266 1.391 . S
C1268 C1269 1.400 . S
C1269 C1268 1.400 . S
C1269 C1270 1.398 . S
C1269 C1275 1.491 . S
C1270 H1261 0.950 . S
C1270 C1269 1.398 . S
C1270 C1271 1.391 . S
C1271 H1259 0.950 . S
C1271 C1267 1.393 . S
C1271 C1270 1.391 . S
C1272 H1262 0.950 . S
C1272 C1273 1.386 . S
C1272 C1274 1.391 . S
C1273 C1272 1.386 . S
C1273 C1277 1.393 . S
C1274 H1263 0.950 . S
C1274 C1272 1.391 . S
C1274 C1275 1.400 . S
C1275 C1269 1.491 . S
C1275 C1274 1.400 . S
C1275 C1276 1.398 . S
C1276 H1264 0.950 . S
C1276 C1275 1.398 . S
C1276 C1277 1.391 . S
C1277 H1265 0.950 . S
C1277 C1273 1.393 . S
C1277 C1276 1.391 . S
H1278 C1286 0.950 . S
H1279 C1291 0.950 . S
H1280 C1288 0.950 . S
H1281 C1290 0.950 . S
H1282 C1292 0.950 . S
H1283 C1294 0.950 . S
H1284 C1296 0.950 . S
H1285 C1297 0.950 . S
C1286 H1278 0.950 . S
C1286 C1287 1.386 . S
C1286 C1288 1.391 . S
C1287 C1286 1.386 . S
C1287 C1291 1.393 . S
C1288 H1280 0.950 . S
C1288 C1286 1.391 . S
C1288 C1289 1.400 . S
C1289 C1288 1.400 . S
C1289 C1290 1.398 . S
C1289 C1295 1.491 . S
C1290 H1281 0.950 . S
C1290 C1289 1.398 . S
C1290 C1291 1.391 . S
C1291 H1279 0.950 . S
C1291 C1287 1.393 . S
C1291 C1290 1.391 . S
C1292 H1282 0.950 . S
C1292 C1293 1.386 . S
C1292 C1294 1.391 . S
C1293 C1292 1.386 . S
C1293 C1297 1.393 . S
C1294 H1283 0.950 . S
C1294 C1292 1.391 . S
C1294 C1295 1.400 . S
C1295 C1289 1.491 . S
C1295 C1294 1.400 . S
C1295 C1296 1.398 . S
C1296 H1284 0.950 . S
C1296 C1295 1.398 . S
C1296 C1297 1.391 . S
C1297 H1285 0.950 . S
C1297 C1293 1.393 . S
C1297 C1296 1.391 . S
H1298 C1306 0.950 . S
H1299 C1311 0.950 . S
H1300 C1308 0.950 . S
H1301 C1310 0.950 . S
H1302 C1312 0.950 . S
H1303 C1314 0.950 . S
H1304 C1316 0.950 . S
H1305 C1317 0.950 . S
C1306 H1298 0.950 . S
C1306 C1307 1.386 . S
C1306 C1308 1.391 . S
C1307 C1306 1.386 . S
C1307 C1311 1.393 . S
C1308 H1300 0.950 . S
C1308 C1306 1.391 . S
C1308 C1309 1.400 . S
C1309 C1308 1.400 . S
C1309 C1310 1.398 . S
C1309 C1315 1.491 . S
C1310 H1301 0.950 . S
C1310 C1309 1.398 . S
C1310 C1311 1.391 . S
C1311 H1299 0.950 . S
C1311 C1307 1.393 . S
C1311 C1310 1.391 . S
C1312 H1302 0.950 . S
C1312 C1313 1.386 . S
C1312 C1314 1.391 . S
C1313 C1312 1.386 . S
C1313 C1317 1.393 . S
C1314 H1303 0.950 . S
C1314 C1312 1.391 . S
C1314 C1315 1.400 . S
C1315 C1309 1.491 . S
C1315 C1314 1.400 . S
C1315 C1316 1.398 . S
C1316 H1304 0.950 . S
C1316 C1315 1.398 . S
C1316 C1317 1.391 . S
C1317 H1305 0.950 . S
C1317 C1313 1.393 . S
C1317 C1316 1.391 . S
H1318 C1326 0.950 . S
H1319 C1331 0.950 . S
H1320 C1328 0.950 . S
H1321 C1330 0.950 . S
H1322 C1332 0.950 . S
H1323 C1334 0.950 . S
H1324 C1336 0.950 . S
H1325 C1337 0.950 . S
C1326 H1318 0.950 . S
C1326 C1327 1.386 . S
C1326 C1328 1.391 . S
C1327 C1326 1.386 . S
C1327 C1331 1.393 . S
C1328 H1320 0.950 . S
C1328 C1326 1.391 . S
C1328 C1329 1.400 . S
C1329 C1328 1.400 . S
C1329 C1330 1.398 . S
C1329 C1335 1.491 . S
C1330 H1321 0.950 . S
C1330 C1329 1.398 . S
C1330 C1331 1.391 . S
C1331 H1319 0.950 . S
C1331 C1327 1.393 . S
C1331 C1330 1.391 . S
C1332 H1322 0.950 . S
C1332 C1333 1.386 . S
C1332 C1334 1.391 . S
C1333 C1332 1.386 . S
C1333 C1337 1.393 . S
C1334 H1323 0.950 . S
C1334 C1332 1.391 . S
C1334 C1335 1.400 . S
C1335 C1329 1.491 . S
C1335 C1334 1.400 . S
C1335 C1336 1.398 . S
C1336 H1324 0.950 . S
C1336 C1335 1.398 . S
C1336 C1337 1.391 . S
C1337 H1325 0.950 . S
C1337 C1333 1.393 . S
C1337 C1336 1.391 . S
H1338 C1346 0.950 . S
H1339 C1351 0.950 . S
H1340 C1348 0.950 . S
H1341 C1350 0.950 . S
H1342 C1352 0.950 . S
H1343 C1354 0.950 . S
H1344 C1356 0.950 . S
H1345 C1357 0.950 . S
C1346 H1338 0.950 . S
C1346 C1347 1.386 . S
C1346 C1348 1.391 . S
C1347 C1346 1.386 . S
C1347 C1351 1.393 . S
C1348 H1340 0.950 . S
C1348 C1346 1.391 . S
C1348 C1349 1.400 . S
C1349 C1348 1.400 . S
C1349 C1350 1.398 . S
C1349 C1355 1.491 . S
C1350 H1341 0.950 . S
C1350 C1349 1.398 . S
C1350 C1351 1.391 . S
C1351 H1339 0.950 . S
C1351 C1347 1.393 . S
C1351 C1350 1.391 . S
C1352 H1342 0.950 . S
C1352 C1353 1.386 . S
C1352 C1354 1.391 . S
C1353 C1352 1.386 . S
C1353 C1357 1.393 . S
C1354 H1343 0.950 . S
C1354 C1352 1.391 . S
C1354 C1355 1.400 . S
C1355 C1349 1.491 . S
C1355 C1354 1.400 . S
C1355 C1356 1.398 . S
C1356 H1344 0.950 . S
C1356 C1355 1.398 . S
C1356 C1357 1.391 . S
C1357 H1345 0.950 . S
C1357 C1353 1.393 . S
C1357 C1356 1.391 . S
H1358 C1366 0.950 . S
H1359 C1371 0.950 . S
H1360 C1368 0.950 . S
H1361 C1370 0.950 . S
H1362 C1372 0.950 . S
H1363 C1374 0.950 . S
H1364 C1376 0.950 . S
H1365 C1377 0.950 . S
C1366 H1358 0.950 . S
C1366 C1367 1.386 . S
C1366 C1368 1.391 . S
C1367 C1366 1.386 . S
C1367 C1371 1.393 . S
C1368 H1360 0.950 . S
C1368 C1366 1.391 . S
C1368 C1369 1.400 . S
C1369 C1368 1.400 . S
C1369 C1370 1.398 . S
C1369 C1375 1.491 . S
C1370 H1361 0.950 . S
C1370 C1369 1.398 . S
C1370 C1371 1.391 . S
C1371 H1359 0.950 . S
C1371 C1367 1.393 . S
C1371 C1370 1.391 . S
C1372 H1362 0.950 . S
C1372 C1373 1.386 . S
C1372 C1374 1.391 . S
C1373 C1372 1.386 . S
C1373 C1377 1.393 . S
C1374 H1363 0.950 . S
C1374 C1372 1.391 . S
C1374 C1375 1.400 . S
C1375 C1369 1.491 . S
C1375 C1374 1.400 . S
C1375 C1376 1.398 . S
C1376 H1364 0.950 . S
C1376 C1375 1.398 . S
C1376 C1377 1.391 . S
C1377 H1365 0.950 . S
C1377 C1373 1.393 . S
C1377 C1376 1.391 . S
H1378 C1386 0.950 . S
H1379 C1391 0.950 . S
H1380 C1388 0.950 . S
H1381 C1390 0.950 . S
H1382 C1392 0.950 . S
H1383 C1394 0.950 . S
H1384 C1396 0.950 . S
H1385 C1397 0.950 . S
C1386 H1378 0.950 . S
C1386 C1387 1.386 . S
C1386 C1388 1.391 . S
C1387 C1386 1.386 . S
C1387 C1391 1.393 . S
C1388 H1380 0.950 . S
C1388 C1386 1.391 . S
C1388 C1389 1.400 . S
C1389 C1388 1.400 . S
C1389 C1390 1.398 . S
C1389 C1395 1.491 . S
C1390 H1381 0.950 . S
C1390 C1389 1.398 . S
C1390 C1391 1.391 . S
C1391 H1379 0.950 . S
C1391 C1387 1.393 . S
C1391 C1390 1.391 . S
C1392 H1382 0.950 . S
C1392 C1393 1.386 . S
C1392 C1394 1.391 . S
C1393 C1392 1.386 . S
C1393 C1397 1.393 . S
C1394 H1383 0.950 . S
C1394 C1392 1.391 . S
C1394 C1395 1.400 . S
C1395 C1389 1.491 . S
C1395 C1394 1.400 . S
C1395 C1396 1.398 . S
C1396 H1384 0.950 . S
C1396 C1395 1.398 . S
C1396 C1397 1.391 . S
C1397 H1385 0.950 . S
C1397 C1393 1.393 . S
C1397 C1396 1.391 . S
C453 C267 0.769 . S
C447 N6 0.734 . S
C473 C268 2.138 . S
C467 C57 2.257 . S
C493 C262 1.325 . S
C487 C61 1.373 . S
C507 N96 0.573 . S
C513 C261 0.441 . S
C527 C136 2.254 . S
C533 C264 2.126 . S
C553 C266 1.327 . S
C547 C160 1.372 . S
C567 N194 0.491 . S
C573 C265 0.392 . S
C587 N224 0.768 . S
C593 C263 0.725 . S
C613 C298 2.004 . S
C607 C10 1.988 . S
C627 N36 0.897 . S
C633 C329 0.896 . S
C653 C297 0.639 . S
C647 N74 0.619 . S
C673 C332 1.223 . S
C667 C100 1.271 . S
C687 C121 1.488 . S
C693 C295 1.447 . S
C713 C327 1.921 . S
C707 C177 1.907 . S
C727 C196 2.066 . S
C733 C300 2.032 . S
C747 C226 1.951 . S
C753 C334 1.920 . S
C767 C27 1.962 . S
C773 C330 1.903 . S
C787 N134 0.889 . S
C793 C333 0.936 . S
C813 C301 0.592 . S
C807 N156 0.608 . S
C833 C328 1.248 . S
C827 C181 1.279 . S
C847 C211 1.976 . S
C853 C294 2.010 . S
C867 C76 1.912 . S
C873 C331 1.925 . S
C893 C296 2.025 . S
C887 C117 2.067 . S
C907 C40 1.480 . S
C913 C299 1.462 . S
C927 N216 0.790 . S
C933 C366 0.744 . S
C947 C147 1.850 . S
C953 C367 1.736 . S
C973 C361 1.238 . S
C967 C151 1.285 . S
C993 C360 0.611 . S
C987 N186 0.653 . S
C1007 C46 1.847 . S
C1013 C363 1.733 . S
C1033 C365 1.259 . S
C1027 C70 1.285 . S
C1047 N104 0.594 . S
C1053 C364 0.587 . S
C1067 N14 0.748 . S
C1073 C362 0.762 . S
C1087 C220 2.091 . S
C1093 C400 2.032 . S
C1113 C432 0.902 . S
C1107 N126 0.820 . S
C1127 N164 0.510 . S
C1133 C393 0.474 . S
C1147 C190 1.511 . S
C1153 C427 1.514 . S
C1173 C398 1.288 . S
C1167 C31 1.290 . S
C1187 C87 2.100 . S
C1193 C429 2.036 . S
C1213 C395 2.174 . S
C1207 C106 2.272 . S
C1233 C430 1.920 . S
C1227 C16 1.859 . S
C1253 C426 1.920 . S
C1247 C237 1.855 . S
C1267 N44 0.884 . S
C1273 C428 0.879 . S
C1287 N66 0.560 . S
C1293 C397 0.495 . S
C1313 C431 1.516 . S
C1307 C91 1.511 . S
C1327 C1 2.089 . S
C1333 C396 2.027 . S
C1347 C166 2.104 . S
C1353 C433 2.040 . S
C1373 C399 2.192 . S
C1367 C207 2.264 . S
C1393 C394 1.291 . S
C1387 C130 1.292 . S
