# Generated by pormake.
# Topology gar, (4,6)-cn, num edge types: 1
# Building blocks:
#     Node 0, Type 0, BuildingBlock: UXUYUI_clean_sbu_0, # of connection points: 4
#     Node 1, Type 0, BuildingBlock: UXUYUI_clean_sbu_0, # of connection points: 4
#     Node 2, Type 0, BuildingBlock: UXUYUI_clean_sbu_0, # of connection points: 4
#     Node 3, Type 0, BuildingBlock: UXUYUI_clean_sbu_0, # of connection points: 4
#     Node 4, Type 0, BuildingBlock: UXUYUI_clean_sbu_0, # of connection points: 4
#     Node 5, Type 0, BuildingBlock: UXUYUI_clean_sbu_0, # of connection points: 4
#     Node 6, Type 0, BuildingBlock: UXUYUI_clean_sbu_0, # of connection points: 4
#     Node 7, Type 0, BuildingBlock: UXUYUI_clean_sbu_0, # of connection points: 4
#     Node 8, Type 0, BuildingBlock: UXUYUI_clean_sbu_0, # of connection points: 4
#     Node 9, Type 0, BuildingBlock: UXUYUI_clean_sbu_0, # of connection points: 4
#     Node 10, Type 0, BuildingBlock: UXUYUI_clean_sbu_0, # of connection points: 4
#     Node 11, Type 0, BuildingBlock: UXUYUI_clean_sbu_0, # of connection points: 4
#     Node 12, Type 0, BuildingBlock: UXUYUI_clean_sbu_0, # of connection points: 4
#     Node 13, Type 0, BuildingBlock: UXUYUI_clean_sbu_0, # of connection points: 4
#     Node 14, Type 0, BuildingBlock: UXUYUI_clean_sbu_0, # of connection points: 4
#     Node 15, Type 0, BuildingBlock: UXUYUI_clean_sbu_0, # of connection points: 4
#     Node 16, Type 0, BuildingBlock: UXUYUI_clean_sbu_0, # of connection points: 4
#     Node 17, Type 0, BuildingBlock: UXUYUI_clean_sbu_0, # of connection points: 4
#     Node 18, Type 0, BuildingBlock: UXUYUI_clean_sbu_0, # of connection points: 4
#     Node 19, Type 0, BuildingBlock: UXUYUI_clean_sbu_0, # of connection points: 4
#     Node 20, Type 0, BuildingBlock: UXUYUI_clean_sbu_0, # of connection points: 4
#     Node 21, Type 0, BuildingBlock: UXUYUI_clean_sbu_0, # of connection points: 4
#     Node 22, Type 0, BuildingBlock: UXUYUI_clean_sbu_0, # of connection points: 4
#     Node 23, Type 0, BuildingBlock: UXUYUI_clean_sbu_0, # of connection points: 4
#     Node 24, Type 1, BuildingBlock: BETDAH_clean_sbu_0, # of connection points: 6
#     Node 25, Type 1, BuildingBlock: BETDAH_clean_sbu_0, # of connection points: 6
#     Node 26, Type 1, BuildingBlock: BETDAH_clean_sbu_0, # of connection points: 6
#     Node 27, Type 1, BuildingBlock: BETDAH_clean_sbu_0, # of connection points: 6
#     Node 28, Type 1, BuildingBlock: BETDAH_clean_sbu_0, # of connection points: 6
#     Node 29, Type 1, BuildingBlock: BETDAH_clean_sbu_0, # of connection points: 6
#     Node 30, Type 1, BuildingBlock: BETDAH_clean_sbu_0, # of connection points: 6
#     Node 31, Type 1, BuildingBlock: BETDAH_clean_sbu_0, # of connection points: 6
#     Node 32, Type 1, BuildingBlock: BETDAH_clean_sbu_0, # of connection points: 6
#     Node 33, Type 1, BuildingBlock: BETDAH_clean_sbu_0, # of connection points: 6
#     Node 34, Type 1, BuildingBlock: BETDAH_clean_sbu_0, # of connection points: 6
#     Node 35, Type 1, BuildingBlock: BETDAH_clean_sbu_0, # of connection points: 6
#     Node 36, Type 1, BuildingBlock: BETDAH_clean_sbu_0, # of connection points: 6
#     Node 37, Type 1, BuildingBlock: BETDAH_clean_sbu_0, # of connection points: 6
#     Node 38, Type 1, BuildingBlock: BETDAH_clean_sbu_0, # of connection points: 6
#     Node 39, Type 1, BuildingBlock: BETDAH_clean_sbu_0, # of connection points: 6
#     Edge 40, Type (0, 1), BuildingBlock: KIFKEQ_clean_linker_1, # of connection points: 2
#     Edge 41, Type (0, 1), BuildingBlock: KIFKEQ_clean_linker_1, # of connection points: 2
#     Edge 42, Type (0, 1), BuildingBlock: KIFKEQ_clean_linker_1, # of connection points: 2
#     Edge 43, Type (0, 1), BuildingBlock: KIFKEQ_clean_linker_1, # of connection points: 2
#     Edge 44, Type (0, 1), BuildingBlock: KIFKEQ_clean_linker_1, # of connection points: 2
#     Edge 45, Type (0, 1), BuildingBlock: KIFKEQ_clean_linker_1, # of connection points: 2
#     Edge 46, Type (0, 1), BuildingBlock: KIFKEQ_clean_linker_1, # of connection points: 2
#     Edge 47, Type (0, 1), BuildingBlock: KIFKEQ_clean_linker_1, # of connection points: 2
#     Edge 48, Type (0, 1), BuildingBlock: KIFKEQ_clean_linker_1, # of connection points: 2
#     Edge 49, Type (0, 1), BuildingBlock: KIFKEQ_clean_linker_1, # of connection points: 2
#     Edge 50, Type (0, 1), BuildingBlock: KIFKEQ_clean_linker_1, # of connection points: 2
#     Edge 51, Type (0, 1), BuildingBlock: KIFKEQ_clean_linker_1, # of connection points: 2
#     Edge 52, Type (0, 1), BuildingBlock: KIFKEQ_clean_linker_1, # of connection points: 2
#     Edge 53, Type (0, 1), BuildingBlock: KIFKEQ_clean_linker_1, # of connection points: 2
#     Edge 54, Type (0, 1), BuildingBlock: KIFKEQ_clean_linker_1, # of connection points: 2
#     Edge 55, Type (0, 1), BuildingBlock: KIFKEQ_clean_linker_1, # of connection points: 2
#     Edge 56, Type (0, 1), BuildingBlock: KIFKEQ_clean_linker_1, # of connection points: 2
#     Edge 57, Type (0, 1), BuildingBlock: KIFKEQ_clean_linker_1, # of connection points: 2
#     Edge 58, Type (0, 1), BuildingBlock: KIFKEQ_clean_linker_1, # of connection points: 2
#     Edge 59, Type (0, 1), BuildingBlock: KIFKEQ_clean_linker_1, # of connection points: 2
#     Edge 60, Type (0, 1), BuildingBlock: KIFKEQ_clean_linker_1, # of connection points: 2
#     Edge 61, Type (0, 1), BuildingBlock: KIFKEQ_clean_linker_1, # of connection points: 2
#     Edge 62, Type (0, 1), BuildingBlock: KIFKEQ_clean_linker_1, # of connection points: 2
#     Edge 63, Type (0, 1), BuildingBlock: KIFKEQ_clean_linker_1, # of connection points: 2
#     Edge 64, Type (0, 1), BuildingBlock: KIFKEQ_clean_linker_1, # of connection points: 2
#     Edge 65, Type (0, 1), BuildingBlock: KIFKEQ_clean_linker_1, # of connection points: 2
#     Edge 66, Type (0, 1), BuildingBlock: KIFKEQ_clean_linker_1, # of connection points: 2
#     Edge 67, Type (0, 1), BuildingBlock: KIFKEQ_clean_linker_1, # of connection points: 2
#     Edge 68, Type (0, 1), BuildingBlock: KIFKEQ_clean_linker_1, # of connection points: 2
#     Edge 69, Type (0, 1), BuildingBlock: KIFKEQ_clean_linker_1, # of connection points: 2
#     Edge 70, Type (0, 1), BuildingBlock: KIFKEQ_clean_linker_1, # of connection points: 2
#     Edge 71, Type (0, 1), BuildingBlock: KIFKEQ_clean_linker_1, # of connection points: 2
#     Edge 72, Type (0, 1), BuildingBlock: KIFKEQ_clean_linker_1, # of connection points: 2
#     Edge 73, Type (0, 1), BuildingBlock: KIFKEQ_clean_linker_1, # of connection points: 2
#     Edge 74, Type (0, 1), BuildingBlock: KIFKEQ_clean_linker_1, # of connection points: 2
#     Edge 75, Type (0, 1), BuildingBlock: KIFKEQ_clean_linker_1, # of connection points: 2
#     Edge 76, Type (0, 1), BuildingBlock: KIFKEQ_clean_linker_1, # of connection points: 2
#     Edge 77, Type (0, 1), BuildingBlock: KIFKEQ_clean_linker_1, # of connection points: 2
#     Edge 78, Type (0, 1), BuildingBlock: KIFKEQ_clean_linker_1, # of connection points: 2
#     Edge 79, Type (0, 1), BuildingBlock: KIFKEQ_clean_linker_1, # of connection points: 2
#     Edge 80, Type (0, 1), BuildingBlock: KIFKEQ_clean_linker_1, # of connection points: 2
#     Edge 81, Type (0, 1), BuildingBlock: KIFKEQ_clean_linker_1, # of connection points: 2
#     Edge 82, Type (0, 1), BuildingBlock: KIFKEQ_clean_linker_1, # of connection points: 2
#     Edge 83, Type (0, 1), BuildingBlock: KIFKEQ_clean_linker_1, # of connection points: 2
#     Edge 84, Type (0, 1), BuildingBlock: KIFKEQ_clean_linker_1, # of connection points: 2
#     Edge 85, Type (0, 1), BuildingBlock: KIFKEQ_clean_linker_1, # of connection points: 2
#     Edge 86, Type (0, 1), BuildingBlock: KIFKEQ_clean_linker_1, # of connection points: 2
#     Edge 87, Type (0, 1), BuildingBlock: KIFKEQ_clean_linker_1, # of connection points: 2
#     Edge 88, Type (0, 1), BuildingBlock: KIFKEQ_clean_linker_1, # of connection points: 2
#     Edge 89, Type (0, 1), BuildingBlock: KIFKEQ_clean_linker_1, # of connection points: 2
#     Edge 90, Type (0, 1), BuildingBlock: KIFKEQ_clean_linker_1, # of connection points: 2
#     Edge 91, Type (0, 1), BuildingBlock: KIFKEQ_clean_linker_1, # of connection points: 2
#     Edge 92, Type (0, 1), BuildingBlock: KIFKEQ_clean_linker_1, # of connection points: 2
#     Edge 93, Type (0, 1), BuildingBlock: KIFKEQ_clean_linker_1, # of connection points: 2
#     Edge 94, Type (0, 1), BuildingBlock: KIFKEQ_clean_linker_1, # of connection points: 2
#     Edge 95, Type (0, 1), BuildingBlock: KIFKEQ_clean_linker_1, # of connection points: 2
#     Edge 96, Type (0, 1), BuildingBlock: KIFKEQ_clean_linker_1, # of connection points: 2
#     Edge 97, Type (0, 1), BuildingBlock: KIFKEQ_clean_linker_1, # of connection points: 2
#     Edge 98, Type (0, 1), BuildingBlock: KIFKEQ_clean_linker_1, # of connection points: 2
#     Edge 99, Type (0, 1), BuildingBlock: KIFKEQ_clean_linker_1, # of connection points: 2
#     Edge 100, Type (0, 1), BuildingBlock: KIFKEQ_clean_linker_1, # of connection points: 2
#     Edge 101, Type (0, 1), BuildingBlock: KIFKEQ_clean_linker_1, # of connection points: 2
#     Edge 102, Type (0, 1), BuildingBlock: KIFKEQ_clean_linker_1, # of connection points: 2
#     Edge 103, Type (0, 1), BuildingBlock: KIFKEQ_clean_linker_1, # of connection points: 2
#     Edge 104, Type (0, 1), BuildingBlock: KIFKEQ_clean_linker_1, # of connection points: 2
#     Edge 105, Type (0, 1), BuildingBlock: KIFKEQ_clean_linker_1, # of connection points: 2
#     Edge 106, Type (0, 1), BuildingBlock: KIFKEQ_clean_linker_1, # of connection points: 2
#     Edge 107, Type (0, 1), BuildingBlock: KIFKEQ_clean_linker_1, # of connection points: 2
#     Edge 108, Type (0, 1), BuildingBlock: KIFKEQ_clean_linker_1, # of connection points: 2
#     Edge 109, Type (0, 1), BuildingBlock: KIFKEQ_clean_linker_1, # of connection points: 2
#     Edge 110, Type (0, 1), BuildingBlock: KIFKEQ_clean_linker_1, # of connection points: 2
#     Edge 111, Type (0, 1), BuildingBlock: KIFKEQ_clean_linker_1, # of connection points: 2
#     Edge 112, Type (0, 1), BuildingBlock: KIFKEQ_clean_linker_1, # of connection points: 2
#     Edge 113, Type (0, 1), BuildingBlock: KIFKEQ_clean_linker_1, # of connection points: 2
#     Edge 114, Type (0, 1), BuildingBlock: KIFKEQ_clean_linker_1, # of connection points: 2
#     Edge 115, Type (0, 1), BuildingBlock: KIFKEQ_clean_linker_1, # of connection points: 2
#     Edge 116, Type (0, 1), BuildingBlock: KIFKEQ_clean_linker_1, # of connection points: 2
#     Edge 117, Type (0, 1), BuildingBlock: KIFKEQ_clean_linker_1, # of connection points: 2
#     Edge 118, Type (0, 1), BuildingBlock: KIFKEQ_clean_linker_1, # of connection points: 2
#     Edge 119, Type (0, 1), BuildingBlock: KIFKEQ_clean_linker_1, # of connection points: 2
#     Edge 120, Type (0, 1), BuildingBlock: KIFKEQ_clean_linker_1, # of connection points: 2
#     Edge 121, Type (0, 1), BuildingBlock: KIFKEQ_clean_linker_1, # of connection points: 2
#     Edge 122, Type (0, 1), BuildingBlock: KIFKEQ_clean_linker_1, # of connection points: 2
#     Edge 123, Type (0, 1), BuildingBlock: KIFKEQ_clean_linker_1, # of connection points: 2
#     Edge 124, Type (0, 1), BuildingBlock: KIFKEQ_clean_linker_1, # of connection points: 2
#     Edge 125, Type (0, 1), BuildingBlock: KIFKEQ_clean_linker_1, # of connection points: 2
#     Edge 126, Type (0, 1), BuildingBlock: KIFKEQ_clean_linker_1, # of connection points: 2
#     Edge 127, Type (0, 1), BuildingBlock: KIFKEQ_clean_linker_1, # of connection points: 2
#     Edge 128, Type (0, 1), BuildingBlock: KIFKEQ_clean_linker_1, # of connection points: 2
#     Edge 129, Type (0, 1), BuildingBlock: KIFKEQ_clean_linker_1, # of connection points: 2
#     Edge 130, Type (0, 1), BuildingBlock: KIFKEQ_clean_linker_1, # of connection points: 2
#     Edge 131, Type (0, 1), BuildingBlock: KIFKEQ_clean_linker_1, # of connection points: 2
#     Edge 132, Type (0, 1), BuildingBlock: KIFKEQ_clean_linker_1, # of connection points: 2
#     Edge 133, Type (0, 1), BuildingBlock: KIFKEQ_clean_linker_1, # of connection points: 2
#     Edge 134, Type (0, 1), BuildingBlock: KIFKEQ_clean_linker_1, # of connection points: 2
#     Edge 135, Type (0, 1), BuildingBlock: KIFKEQ_clean_linker_1, # of connection points: 2
# Relax obj value: 0.198
# Max RMSD: 0.286
# Mean RMSD: 0.198
data_MOF--net-gar--node1-UXUYUI_clean_sbu_0--node2-BETDAH_clean_sbu_0--edge1-KIFKEQ_clean_linker_1
_symmetry_space_group_name_H-M    P1
_symmetry_Int_Tables_number       1
_symmetry_cell_setting            triclinic
loop_
_symmetry_equiv_pos_as_xyz
'x, y, z'
_cell_length_a     75.435939
_cell_length_b     70.468973
_cell_length_c     70.775281
_cell_angle_alpha  98.728676
_cell_angle_beta   95.152913
_cell_angle_gamma 102.71973
loop_
_atom_site_label
_atom_site_type_symbol
_atom_site_fract_x
_atom_site_fract_y
_atom_site_fract_z
_atom_type_partial_charge
Li0 Li 0.07653 0.31826 0.36595 0.0
Li1 Li 0.09364 0.34121 0.39479 0.0
Li2 Li 0.10901 0.32251 0.37129 0.0
Li3 Li 0.08925 0.30562 0.393 0.0
C4 C 0.09478 0.35557 0.35495 0.0
N5 N 0.09239 0.38132 0.32959 0.0
C6 C 0.08875 0.37271 0.36059 0.0
C7 C 0.09964 0.35153 0.33643 0.0
C8 C 0.08761 0.38553 0.34755 0.0
C9 C 0.09834 0.36475 0.32382 0.0
C10 C 0.05732 0.32051 0.40398 0.0
C11 C 0.0473 0.31923 0.43522 0.0
N12 N 0.03009 0.31928 0.42763 0.0
C13 C 0.03957 0.32059 0.39647 0.0
C14 C 0.06129 0.31992 0.4235 0.0
C15 C 0.02598 0.31997 0.40867 0.0
C16 C 0.04337 0.29511 0.34793 0.0
N17 N 0.0557 0.31238 0.3479 0.0
C18 C 0.0355 0.32174 0.32535 0.0
C19 C 0.05226 0.32545 0.33667 0.0
C20 C 0.02218 0.30456 0.32587 0.0
C21 C 0.02634 0.29078 0.3368 0.0
H22 H 0.04645 0.2852 0.35733 0.0
H23 H 0.06203 0.33916 0.33707 0.0
C24 C 0.11048 0.37671 0.42068 0.0
N25 N 0.09465 0.36487 0.41078 0.0
C26 C 0.1102 0.39469 0.43191 0.0
C27 C 0.07747 0.38776 0.42203 0.0
C28 C 0.07836 0.36997 0.41126 0.0
C29 C 0.09353 0.4003 0.43239 0.0
H30 H 0.12326 0.37229 0.41969 0.0
H31 H 0.06613 0.36041 0.40283 0.0
C32 C 0.08388 0.28284 0.34994 0.0
N33 N 0.07078 0.2531 0.31842 0.0
C34 C 0.07746 0.26337 0.35254 0.0
C35 C 0.0838 0.28721 0.33133 0.0
C36 C 0.07091 0.24853 0.33642 0.0
C37 C 0.077 0.27196 0.31557 0.0
C38 C 0.12592 0.32846 0.41461 0.0
C39 C 0.14285 0.32493 0.41068 0.0
C40 C 0.12314 0.33458 0.4336 0.0
C41 C 0.15681 0.32764 0.42589 0.0
C42 C 0.13747 0.33717 0.44841 0.0
N43 N 0.15386 0.33368 0.44428 0.0
C44 C 0.1391 0.33835 0.35335 0.0
C45 C 0.13249 0.30395 0.35438 0.0
C46 C 0.15318 0.33654 0.3423 0.0
N47 N 0.12912 0.3221 0.35888 0.0
C48 C 0.14644 0.30148 0.34353 0.0
C49 C 0.15685 0.31789 0.33735 0.0
H50 H 0.13591 0.35255 0.35725 0.0
H51 H 0.12415 0.2914 0.35905 0.0
C52 C 0.06662 0.27413 0.403 0.0
N53 N 0.08425 0.28485 0.40627 0.0
C54 C 0.06139 0.25782 0.41178 0.0
C55 C 0.0927 0.26383 0.42693 0.0
C56 C 0.09731 0.28011 0.41787 0.0
C57 C 0.07452 0.25251 0.4239 0.0
H58 H 0.05668 0.27826 0.39344 0.0
H59 H 0.11128 0.2888 0.41989 0.0
O60 O 0.09594 0.34288 0.36754 0.0
O61 O 0.07067 0.3209 0.39213 0.0
O62 O 0.09042 0.29748 0.36559 0.0
O63 O 0.11238 0.32651 0.39981 0.0
H64 H 0.08491 0.37606 0.37482 0.0
H65 H 0.10423 0.33827 0.33181 0.0
H66 H 0.08292 0.39882 0.35172 0.0
H67 H 0.10202 0.36181 0.30943 0.0
H68 H 0.05011 0.31865 0.45035 0.0
H69 H 0.03634 0.32122 0.3814 0.0
H70 H 0.075 0.31986 0.42949 0.0
H71 H 0.01218 0.32004 0.40307 0.0
H72 H 0.03264 0.33263 0.31698 0.0
H73 H 0.01621 0.27751 0.33765 0.0
H74 H 0.12279 0.40421 0.43979 0.0
H75 H 0.06438 0.39169 0.42231 0.0
H76 H 0.07767 0.25972 0.36685 0.0
H77 H 0.08877 0.30222 0.32912 0.0
H78 H 0.06594 0.23337 0.33821 0.0
H79 H 0.0767 0.27512 0.30108 0.0
H80 H 0.14522 0.32026 0.39604 0.0
H81 H 0.11013 0.33747 0.43682 0.0
H82 H 0.17 0.32501 0.42306 0.0
H83 H 0.13558 0.34201 0.46318 0.0
H84 H 0.16113 0.34945 0.33776 0.0
H85 H 0.14888 0.28687 0.33974 0.0
H86 H 0.0472 0.24962 0.40928 0.0
H87 H 0.10326 0.26001 0.43599 0.0
Li88 Li 1.00426 0.77326 0.63825 0.0
Li89 Li 0.0168 0.76034 0.66588 0.0
Li90 Li 0.99834 0.73767 0.63762 0.0
Li91 Li 0.98426 0.7571 0.66078 0.0
C92 C 0.03557 0.75473 0.62827 0.0
N93 N 0.06317 0.75061 0.60601 0.0
C94 C 0.05388 0.76094 0.63652 0.0
C95 C 0.03125 0.74635 0.60873 0.0
C96 C 0.06764 0.75876 0.62501 0.0
C97 C 0.04542 0.74441 0.59772 0.0
C98 C 1.00778 0.79665 0.68166 0.0
C99 C 0.00823 0.80838 0.71556 0.0
N100 N 0.01681 0.82684 0.71324 0.0
C101 C 0.01651 0.81576 0.67959 0.0
C102 C 1.0035 0.79294 0.69975 0.0
C103 C 0.02099 0.83081 0.69573 0.0
C104 C 0.99952 0.80826 0.62858 0.0
N105 N 0.00883 0.79401 0.62473 0.0
C106 C 0.02619 0.81201 0.604 0.0
C107 C 0.02191 0.7955 0.61271 0.0
C108 C 0.01711 0.82725 0.608 0.0
C109 C 1.00357 0.82522 0.62045 0.0
H110 H 0.98934 0.80665 0.63843 0.0
H111 H 0.0292 0.78406 0.61 0.0
C112 C 0.04304 0.74956 0.68988 0.0
N113 N 0.03739 0.76491 0.68387 0.0
C114 C 0.05954 0.75304 0.70177 0.0
C115 C 0.06397 0.78798 0.70087 0.0
C116 C 0.04744 0.78382 0.68904 0.0
C117 C 0.07028 0.77242 0.707 0.0
H118 H 0.03522 0.73457 0.68472 0.0
H119 H 0.0432 0.79554 0.6831 0.0
C120 C 0.9664 0.74493 0.61786 0.0
N121 N 0.93789 0.72764 0.58887 0.0
C122 C 0.94978 0.73435 0.62226 0.0
C123 C 0.96854 0.74681 0.59878 0.0
C124 C 0.93553 0.7257 0.60737 0.0
C125 C 0.95396 0.73791 0.58431 0.0
C126 C 0.99725 0.72438 0.6781 0.0
C127 C 0.99472 0.70406 0.67195 0.0
C128 C 1.00009 0.73212 0.6978 0.0
C129 C 0.99534 0.69182 0.68564 0.0
C130 C 1.00063 0.7194 0.71105 0.0
N131 N 0.99828 0.69968 0.70475 0.0
C132 C 0.01262 0.70668 0.62637 0.0
C133 C 0.98292 0.70237 0.6096 0.0
C134 C 0.0143 0.68876 0.61643 0.0
N135 N 0.99724 0.71319 0.62264 0.0
C136 C 0.98397 0.68424 0.59933 0.0
C137 C 0.99987 0.67734 0.60268 0.0
H138 H 0.02362 0.71553 0.6371 0.0
H139 H 0.97069 0.70764 0.60717 0.0
C140 C 0.95934 0.77535 0.67665 0.0
N141 N 0.96468 0.7581 0.6741 0.0
C142 C 0.94618 0.77784 0.68869 0.0
C143 C 0.94435 0.74464 0.69501 0.0
C144 C 0.95738 0.74273 0.68266 0.0
C145 C 0.93871 0.76243 0.69822 0.0
H146 H 0.96562 0.78727 0.66964 0.0
H147 H 0.96197 0.72919 0.68023 0.0
O148 O 0.02196 0.75682 0.63935 0.0
O149 O 1.00361 0.78171 0.66602 0.0
O150 O 0.9803 0.75398 0.63224 0.0
O151 O 0.99705 0.73655 0.66481 0.0
H152 H 0.05744 0.76745 0.65161 0.0
H153 H 0.01712 0.74157 0.60214 0.0
H154 H 0.08189 0.76355 0.63118 0.0
H155 H 0.04231 0.73802 0.58256 0.0
H156 H 1.00505 0.80571 0.72966 0.0
H157 H 0.02009 0.81886 0.66573 0.0
H158 H 0.99656 0.77833 0.70158 0.0
H159 H 0.02785 0.84563 0.69436 0.0
H160 H 0.03644 0.81273 0.59419 0.0
H161 H 0.99642 0.83673 0.62419 0.0
H162 H 0.06439 0.74065 0.70581 0.0
H163 H 0.07218 0.80304 0.7044 0.0
H164 H 0.94792 0.73288 0.637 0.0
H165 H 0.98133 0.75507 0.59523 0.0
H166 H 0.92257 0.71747 0.61053 0.0
H167 H 0.9554 0.73921 0.56946 0.0
H168 H 0.99223 0.69776 0.65677 0.0
H169 H 1.00216 0.7478 0.7028 0.0
H170 H 0.99347 0.67607 0.68108 0.0
H171 H 1.00297 0.72521 0.72634 0.0
H172 H 0.0269 0.68411 0.61923 0.0
H173 H 0.97249 0.6757 0.58896 0.0
H174 H 0.94188 0.79162 0.69043 0.0
H175 H 0.93901 0.73246 0.70218 0.0
Li176 Li 0.57519 0.8181 0.86553 0.0
Li177 Li 0.59348 0.84105 0.89382 0.0
Li178 Li 0.60773 0.82147 0.86978 0.0
Li179 Li 0.58859 0.80554 0.8925 0.0
C180 C 0.59262 0.85433 0.85346 0.0
N181 N 0.58809 0.87895 0.82751 0.0
C182 C 0.58685 0.8716 0.85927 0.0
C183 C 0.59621 0.84963 0.83451 0.0
C184 C 0.58461 0.88384 0.84592 0.0
C185 C 0.5938 0.86225 0.82159 0.0
C186 C 0.5571 0.82033 0.90412 0.0
C187 C 0.54781 0.81948 0.93572 0.0
N188 N 0.5303 0.81857 0.92833 0.0
C189 C 0.53904 0.8194 0.89682 0.0
C190 C 0.56159 0.82044 0.92372 0.0
C191 C 0.52568 0.81854 0.90929 0.0
C192 C 0.54288 0.79399 0.84764 0.0
N193 N 0.55401 0.81205 0.84792 0.0
C194 C 0.53256 0.81976 0.82534 0.0
C195 C 0.54927 0.82491 0.83708 0.0
C196 C 0.52066 0.80136 0.82509 0.0
C197 C 0.52599 0.78826 0.83621 0.0
H198 H 0.54692 0.78429 0.85679 0.0
H199 H 0.55803 0.83938 0.83796 0.0
C200 C 0.61139 0.87684 0.91885 0.0
N201 N 0.5952 0.86481 0.90998 0.0
C202 C 0.61146 0.89432 0.93115 0.0
C203 C 0.57831 0.88647 0.92457 0.0
C204 C 0.5789 0.86939 0.91233 0.0
C205 C 0.5947 0.89896 0.93412 0.0
H206 H 0.62413 0.8728 0.91641 0.0
H207 H 0.56635 0.85983 0.90458 0.0
C208 C 0.58356 0.7821 0.84934 0.0
N209 N 0.57357 0.75185 0.81791 0.0
C210 C 0.57887 0.76247 0.85204 0.0
C211 C 0.58323 0.78639 0.83071 0.0
C212 C 0.57389 0.74737 0.83595 0.0
C213 C 0.57807 0.77087 0.81498 0.0
C214 C 0.62559 0.82821 0.9132 0.0
C215 C 0.64263 0.8249 0.90947 0.0
C216 C 0.62261 0.83433 0.93212 0.0
C217 C 0.65649 0.82776 0.92481 0.0
C218 C 0.63684 0.83707 0.94707 0.0
N219 N 0.65334 0.83375 0.94313 0.0
C220 C 0.63667 0.83764 0.85118 0.0
C221 C 0.63052 0.80291 0.85014 0.0
C222 C 0.64998 0.83668 0.83894 0.0
N223 N 0.62722 0.82084 0.85622 0.0
C224 C 0.64371 0.80126 0.83794 0.0
C225 C 0.65346 0.81827 0.83208 0.0
H226 H 0.63353 0.85163 0.85629 0.0
H227 H 0.62273 0.7899 0.85458 0.0
C228 C 0.56607 0.77428 0.90337 0.0
N229 N 0.58372 0.78497 0.90616 0.0
C230 C 0.56109 0.75807 0.91239 0.0
C231 C 0.59265 0.76415 0.92679 0.0
C232 C 0.597 0.78034 0.91756 0.0
C233 C 0.57451 0.75282 0.92414 0.0
H234 H 0.55595 0.77824 0.89389 0.0
H235 H 0.61095 0.78902 0.91925 0.0
O236 O 0.59497 0.84229 0.86637 0.0
O237 O 0.5703 0.8213 0.89206 0.0
O238 O 0.58852 0.79697 0.86498 0.0
O239 O 0.6121 0.82593 0.89827 0.0
H240 H 0.58409 0.87548 0.8739 0.0
H241 H 0.60075 0.83635 0.82982 0.0
H242 H 0.58012 0.89724 0.8502 0.0
H243 H 0.59646 0.85878 0.80685 0.0
H244 H 0.55104 0.81947 0.95092 0.0
H245 H 0.53541 0.8195 0.88169 0.0
H246 H 0.57553 0.82117 0.92956 0.0
H247 H 0.51165 0.81787 0.90385 0.0
H248 H 0.5286 0.83039 0.81727 0.0
H249 H 0.51701 0.77402 0.83642 0.0
H250 H 0.62428 0.90395 0.93837 0.0
H251 H 0.56523 0.88995 0.92654 0.0
H252 H 0.57917 0.75895 0.86641 0.0
H253 H 0.58679 0.80152 0.82843 0.0
H254 H 0.57027 0.7321 0.8378 0.0
H255 H 0.57766 0.77394 0.80046 0.0
H256 H 0.64513 0.82023 0.89486 0.0
H257 H 0.60951 0.83707 0.93519 0.0
H258 H 0.66977 0.82528 0.92214 0.0
H259 H 0.63478 0.84186 0.96179 0.0
H260 H 0.65724 0.8501 0.83467 0.0
H261 H 0.64634 0.78688 0.83332 0.0
H262 H 0.54703 0.74947 0.90985 0.0
H263 H 0.60331 0.76052 0.93588 0.0
Li264 Li 0.50472 0.27345 0.13879 0.0
Li265 Li 0.51743 0.26024 0.16589 0.0
Li266 Li 0.49823 0.23792 0.13751 0.0
Li267 Li 0.48481 0.25746 0.16129 0.0
C268 C 0.5349 0.2559 0.12688 0.0
N269 N 0.56094 0.25406 0.10212 0.0
C270 C 0.55347 0.26065 0.13415 0.0
C271 C 0.52952 0.25023 0.10706 0.0
C272 C 0.56645 0.25967 0.12139 0.0
C273 C 0.54292 0.24935 0.09477 0.0
C274 C 0.50863 0.29698 0.18176 0.0
C275 C 0.50973 0.30946 0.21559 0.0
N276 N 0.51731 0.32796 0.21258 0.0
C277 C 0.51632 0.31612 0.17895 0.0
C278 C 0.50518 0.29361 0.20017 0.0
C279 C 0.52065 0.33159 0.19473 0.0
C280 C 0.49618 0.30165 0.11837 0.0
N281 N 0.50996 0.29423 0.12556 0.0
C282 C 0.53246 0.31868 0.11553 0.0
C283 C 0.52782 0.30241 0.12452 0.0
C284 C 0.51855 0.32674 0.10791 0.0
C285 C 0.5002 0.31809 0.10943 0.0
H286 H 0.48214 0.29495 0.11985 0.0
H287 H 0.53846 0.29644 0.1309 0.0
C288 C 0.54373 0.24979 0.19035 0.0
N289 N 0.53835 0.26491 0.18353 0.0
C290 C 0.56009 0.2535 0.20254 0.0
C291 C 0.56522 0.2881 0.19985 0.0
C292 C 0.5487 0.28375 0.18789 0.0
C293 C 0.57103 0.27282 0.20716 0.0
H294 H 0.53568 0.23481 0.18582 0.0
H295 H 0.54451 0.29526 0.18146 0.0
C296 C 0.46645 0.24591 0.11843 0.0
N297 N 0.43774 0.22911 0.08954 0.0
C298 C 0.44974 0.23562 0.12289 0.0
C299 C 0.46858 0.24777 0.09935 0.0
C300 C 0.43539 0.2272 0.10806 0.0
C301 C 0.45389 0.23913 0.08493 0.0
C302 C 0.49762 0.22426 0.17793 0.0
C303 C 0.49498 0.20396 0.17158 0.0
C304 C 0.50052 0.23182 0.19767 0.0
C305 C 0.49547 0.19154 0.18513 0.0
C306 C 0.50097 0.21893 0.21077 0.0
N307 N 0.49846 0.19922 0.20428 0.0
C308 C 0.51212 0.20701 0.12447 0.0
C309 C 0.4817 0.20275 0.10962 0.0
C310 C 0.51334 0.18912 0.11403 0.0
N311 N 0.49659 0.21352 0.12195 0.0
C312 C 0.4823 0.18468 0.09884 0.0
C313 C 0.49832 0.17775 0.10097 0.0
H314 H 0.5236 0.21581 0.13465 0.0
H315 H 0.46936 0.208 0.10815 0.0
C316 C 0.46005 0.27599 0.17738 0.0
N317 N 0.4655 0.25879 0.17505 0.0
C318 C 0.44693 0.2786 0.18945 0.0
C319 C 0.44546 0.24568 0.19638 0.0
C320 C 0.45839 0.24362 0.18394 0.0
C321 C 0.43963 0.26339 0.1993 0.0
H322 H 0.46617 0.28775 0.17009 0.0
H323 H 0.463 0.23009 0.18166 0.0
O324 O 0.52209 0.25657 0.13926 0.0
O325 O 0.5045 0.2817 0.16646 0.0
O326 O 0.48047 0.25472 0.13278 0.0
O327 O 0.49741 0.23658 0.1648 0.0
H328 H 0.55782 0.26505 0.14949 0.0
H329 H 0.51516 0.24646 0.10127 0.0
H330 H 0.58088 0.26334 0.1268 0.0
H331 H 0.53899 0.2449 0.07938 0.0
H332 H 0.50718 0.30706 0.22994 0.0
H333 H 0.51901 0.31896 0.16475 0.0
H334 H 0.499 0.27895 0.20253 0.0
H335 H 0.52668 0.34647 0.1928 0.0
H336 H 0.54675 0.32477 0.11445 0.0
H337 H 0.48911 0.32409 0.10402 0.0
H338 H 0.56459 0.24132 0.20751 0.0
H339 H 0.57362 0.30308 0.2029 0.0
H340 H 0.4479 0.23417 0.13764 0.0
H341 H 0.48142 0.25583 0.09575 0.0
H342 H 0.42237 0.21916 0.11126 0.0
H343 H 0.45531 0.24042 0.07008 0.0
H344 H 0.4925 0.19783 0.15636 0.0
H345 H 0.50266 0.24748 0.20282 0.0
H346 H 0.49348 0.1758 0.18041 0.0
H347 H 0.50335 0.2246 0.22609 0.0
H348 H 0.52605 0.18447 0.11589 0.0
H349 H 0.47037 0.17621 0.08903 0.0
H350 H 0.44251 0.2923 0.19092 0.0
H351 H 0.44031 0.23365 0.20381 0.0
Li352 Li 0.07559 0.82367 0.10307 0.0
Li353 Li 0.09502 0.80757 0.12712 0.0
Li354 Li 0.0732 0.78774 0.09799 0.0
Li355 Li 0.05947 0.80194 0.12573 0.0
C356 C 0.10559 0.80395 0.08468 0.0
N357 N 0.12514 0.79199 0.05584 0.0
C358 C 0.12301 0.80088 0.08934 0.0
C359 C 0.09814 0.80109 0.06539 0.0
C360 C 0.13269 0.79484 0.07454 0.0
C361 C 0.10821 0.79493 0.051 0.0
C362 C 0.08107 0.84286 0.14684 0.0
C363 C 0.07893 0.85603 0.17977 0.0
N364 N 0.08444 0.87466 0.17603 0.0
C365 C 0.0867 0.8621 0.14329 0.0
C366 C 0.07716 0.83972 0.16518 0.0
C367 C 0.08834 0.878 0.15825 0.0
C368 C 0.05652 0.85067 0.08981 0.0
N369 N 0.07324 0.84626 0.09085 0.0
C370 C 0.0847 0.87279 0.07418 0.0
C371 C 0.08722 0.85689 0.0831 0.0
C372 C 0.06759 0.87779 0.073 0.0
C373 C 0.05338 0.86632 0.08091 0.0
H374 H 0.04554 0.84198 0.09593 0.0
H375 H 0.10034 0.85302 0.08382 0.0
C376 C 0.12139 0.78897 0.14334 0.0
N377 N 0.11829 0.80729 0.14318 0.0
C378 C 0.13702 0.78638 0.15409 0.0
C379 C 0.14678 0.82163 0.16412 0.0
C380 C 0.13077 0.82355 0.15325 0.0
C381 C 0.15011 0.80278 0.16489 0.0
H382 H 0.11166 0.77616 0.13502 0.0
H383 H 0.12833 0.83808 0.15295 0.0
C384 C 0.03898 0.79547 0.08357 0.0
N385 N 0.01025 0.78171 0.05412 0.0
C386 C 0.02209 0.78469 0.08717 0.0
C387 C 0.0412 0.79944 0.06506 0.0
C388 C 1.00774 0.77785 0.07207 0.0
C389 C 0.02653 0.79226 0.05033 0.0
C390 C 0.07167 0.76788 0.13462 0.0
C391 C 0.06249 0.74893 0.12509 0.0
C392 C 0.07686 0.77133 0.15451 0.0
C393 C 0.0587 0.73366 0.13567 0.0
C394 C 0.0728 0.75567 0.16458 0.0
N395 N 0.0639 0.73731 0.15504 0.0
C396 C 0.08529 0.75558 0.08078 0.0
C397 C 0.05412 0.75328 0.06985 0.0
C398 C 0.08398 0.73642 0.07124 0.0
N399 N 0.07046 0.76359 0.08011 0.0
C400 C 0.0522 0.73402 0.06009 0.0
C401 C 0.0672 0.72539 0.06109 0.0
H402 H 0.09787 0.76365 0.08968 0.0
H403 H 0.04225 0.75937 0.07009 0.0
C404 C 0.02987 0.81361 0.1426 0.0
N405 N 0.03812 0.79828 0.13964 0.0
C406 C 0.01355 0.81158 0.15096 0.0
C407 C 0.01437 0.77799 0.15323 0.0
C408 C 0.03055 0.7806 0.14459 0.0
C409 C 1.0055 0.79359 0.15657 0.0
H410 H 0.03579 0.82737 0.13807 0.0
H411 H 0.03683 0.76833 0.14163 0.0
O412 O 0.09601 0.80992 0.09901 0.0
O413 O 0.07906 0.82719 0.13228 0.0
O414 O 0.05323 0.80206 0.09811 0.0
O415 O 0.07561 0.78299 0.12453 0.0
H416 H 0.12899 0.80316 0.10424 0.0
H417 H 0.08469 0.80346 0.06158 0.0
H418 H 0.1462 0.79242 0.07792 0.0
H419 H 0.10257 0.79252 0.03599 0.0
H420 H 0.07591 0.85387 0.19405 0.0
H421 H 0.08976 0.86471 0.12912 0.0
H422 H 0.0727 0.82486 0.16806 0.0
H423 H 0.09267 0.89299 0.15573 0.0
H424 H 0.09602 0.88095 0.06807 0.0
H425 H 0.04001 0.86963 0.08059 0.0
H426 H 0.1389 0.77154 0.15371 0.0
H427 H 0.15626 0.83481 0.17216 0.0
H428 H 0.02014 0.78152 0.10143 0.0
H429 H 0.05412 0.8079 0.06208 0.0
H430 H 0.99462 0.76942 0.07462 0.0
H431 H 0.02809 0.7951 0.0359 0.0
H432 H 0.05822 0.74603 0.10973 0.0
H433 H 0.08392 0.78597 0.16205 0.0
H434 H 0.05161 0.71891 0.1285 0.0
H435 H 0.07673 0.7581 0.18 0.0
H436 H 0.09569 0.72993 0.07253 0.0
H437 H 0.03894 0.7256 0.05275 0.0
H438 H 1.00718 0.82397 0.15263 0.0
H439 H 0.009 0.76387 0.15734 0.0
Li440 Li 0.51701 0.78944 0.43126 0.0
Li441 Li 0.49483 0.7699 0.40195 0.0
Li442 Li 0.51399 0.75313 0.4264 0.0
Li443 Li 0.53049 0.77401 0.40368 0.0
C444 C 0.48342 0.77095 0.44432 0.0
N445 N 0.46222 0.77819 0.47315 0.0
C446 C 0.46822 0.77876 0.44065 0.0
C447 C 0.48774 0.76657 0.46253 0.0
C448 C 0.45769 0.78235 0.45545 0.0
C449 C 0.47688 0.77043 0.47696 0.0
C450 C 0.51833 0.80974 0.39547 0.0
C451 C 0.52766 0.82489 0.36851 0.0
N452 N 0.52481 0.84226 0.37747 0.0
C453 C 0.51517 0.82761 0.40426 0.0
C454 C 0.52437 0.80825 0.37733 0.0
C455 C 0.51866 0.84393 0.395 0.0
C456 C 0.53683 0.82781 0.44803 0.0
N457 N 0.52154 0.81389 0.44938 0.0
C458 C 0.5116 0.83714 0.47173 0.0
C459 C 0.50929 0.81811 0.46138 0.0
C460 C 0.52654 0.85217 0.46957 0.0
C461 C 0.5396 0.84715 0.45798 0.0
H462 H 0.54634 0.82417 0.4383 0.0
H463 H 0.49731 0.8071 0.46251 0.0
C464 C 0.4548 0.75765 0.38591 0.0
N465 N 0.47129 0.77045 0.38587 0.0
C466 C 0.4386 0.75967 0.3754 0.0
C467 C 0.45633 0.78805 0.36508 0.0
C468 C 0.47208 0.78544 0.3756 0.0
C469 C 0.43907 0.77507 0.36463 0.0
H470 H 0.45409 0.74591 0.39425 0.0
H471 H 0.48497 0.79573 0.37567 0.0
C472 C 0.55045 0.78315 0.44611 0.0
N473 N 0.57857 0.79959 0.47581 0.0
C474 C 0.56858 0.78801 0.44223 0.0
C475 C 0.54663 0.78647 0.46513 0.0
C476 C 0.5826 0.79631 0.45743 0.0
C477 C 0.56103 0.79491 0.47993 0.0
C478 C 0.51261 0.73489 0.38294 0.0
C479 C 0.52041 0.71981 0.38795 0.0
C480 C 0.50769 0.73543 0.36358 0.0
C481 C 0.52326 0.70549 0.37338 0.0
C482 C 0.51078 0.72083 0.34943 0.0
N483 N 0.51844 0.70629 0.35458 0.0
C484 C 0.50199 0.71467 0.43871 0.0
C485 C 0.53296 0.73142 0.44855 0.0
C486 C 0.50463 0.69871 0.44751 0.0
N487 N 0.51611 0.73065 0.43928 0.0
C488 C 0.53616 0.71592 0.45762 0.0
C489 C 0.52197 0.69907 0.45711 0.0
H490 H 0.48872 0.71415 0.43117 0.0
H491 H 0.54414 0.74401 0.44876 0.0
C492 C 0.56307 0.79663 0.39222 0.0
N493 N 0.55229 0.77798 0.39015 0.0
C494 C 0.57966 0.80009 0.38431 0.0
C495 C 0.57403 0.76514 0.37235 0.0
C496 C 0.55758 0.76235 0.38048 0.0
C497 C 0.58548 0.78421 0.37425 0.0
H498 H 0.55902 0.80883 0.4005 0.0
H499 H 0.54927 0.74759 0.37931 0.0
O500 O 0.49406 0.76772 0.43014 0.0
O501 O 0.51538 0.79369 0.40445 0.0
O502 O 0.53661 0.77457 0.43141 0.0
O503 O 0.50959 0.74892 0.39698 0.0
H504 H 0.46476 0.78223 0.42661 0.0
H505 H 0.49947 0.76048 0.46552 0.0
H506 H 0.44595 0.78852 0.45288 0.0
H507 H 0.48013 0.76731 0.49119 0.0
H508 H 0.53247 0.824 0.35453 0.0
H509 H 0.50995 0.82886 0.41802 0.0
H510 H 0.5265 0.79438 0.37017 0.0
H511 H 0.51641 0.85791 0.4017 0.0
H512 H 0.50142 0.84016 0.48087 0.0
H513 H 0.55128 0.85823 0.45573 0.0
H514 H 0.42586 0.74907 0.37561 0.0
H515 H 0.45777 0.8005 0.35762 0.0
H516 H 0.57185 0.78512 0.42767 0.0
H517 H 0.53268 0.78263 0.4684 0.0
H518 H 0.5967 0.80006 0.45462 0.0
H519 H 0.55827 0.79768 0.49471 0.0
H520 H 0.52433 0.71925 0.40289 0.0
H521 H 0.5016 0.74702 0.35955 0.0
H522 H 0.52934 0.69375 0.37701 0.0
H523 H 0.50709 0.72104 0.33435 0.0
H524 H 0.49325 0.68601 0.44639 0.0
H525 H 0.54969 0.71725 0.46502 0.0
H526 H 0.58806 0.81503 0.38655 0.0
H527 H 0.5777 0.75239 0.36459 0.0
Li528 Li 0.57719 0.32442 0.60422 0.0
Li529 Li 0.5968 0.30828 0.62834 0.0
Li530 Li 0.57502 0.28854 0.59921 0.0
Li531 Li 0.56101 0.30267 0.62681 0.0
C532 C 0.60688 0.30552 0.58521 0.0
N533 N 0.62543 0.29464 0.55503 0.0
C534 C 0.62486 0.30362 0.58884 0.0
C535 C 0.59839 0.30214 0.56624 0.0
C536 C 0.634 0.29806 0.57339 0.0
C537 C 0.60798 0.29655 0.55117 0.0
C538 C 0.58164 0.3435 0.64781 0.0
C539 C 0.57816 0.35643 0.6804 0.0
N540 N 0.58295 0.3751 0.67658 0.0
C541 C 0.58652 0.36277 0.64416 0.0
C542 C 0.57743 0.34022 0.66603 0.0
C543 C 0.58712 0.37857 0.65892 0.0
C544 C 0.5578 0.35122 0.59145 0.0
N545 N 0.5746 0.34705 0.59213 0.0
C546 C 0.58538 0.3738 0.57545 0.0
C547 C 0.5883 0.35791 0.58419 0.0
C548 C 0.56815 0.3786 0.57464 0.0
C549 C 0.55425 0.36682 0.58274 0.0
H550 H 0.54701 0.34227 0.59761 0.0
H551 H 0.60153 0.3543 0.5847 0.0
C552 C 0.62748 0.29206 0.63858 0.0
N553 N 0.62008 0.30769 0.64426 0.0
C554 C 0.64347 0.28963 0.64888 0.0
C555 C 0.64411 0.31919 0.6712 0.0
C556 C 0.62815 0.32117 0.66034 0.0
C557 C 0.65215 0.30321 0.66561 0.0
H558 H 0.62084 0.28124 0.626 0.0
H559 H 0.62215 0.33344 0.66491 0.0
C560 C 0.54055 0.29514 0.58476 0.0
N561 N 0.51167 0.27963 0.55571 0.0
C562 C 0.5243 0.28325 0.58861 0.0
C563 C 0.54203 0.29935 0.56621 0.0
C564 C 0.50986 0.27553 0.57371 0.0
C565 C 0.52731 0.29126 0.55169 0.0
C566 C 0.57406 0.26819 0.6351 0.0
C567 C 0.56306 0.25001 0.6256 0.0
C568 C 0.58162 0.2703 0.65426 0.0
C569 C 0.55982 0.23414 0.6355 0.0
C570 C 0.57802 0.25408 0.66367 0.0
N571 N 0.5673 0.23649 0.65417 0.0
C572 C 0.58812 0.25712 0.58242 0.0
C573 C 0.5569 0.25358 0.57088 0.0
C574 C 0.58766 0.23824 0.57273 0.0
N575 N 0.57287 0.26439 0.5815 0.0
C576 C 0.55577 0.23448 0.56112 0.0
C577 C 0.5712 0.22642 0.56234 0.0
H578 H 0.60048 0.26568 0.59141 0.0
H579 H 0.54474 0.25917 0.57074 0.0
C580 C 0.5296 0.31292 0.64147 0.0
N581 N 0.53951 0.2989 0.64065 0.0
C582 C 0.5131 0.31024 0.64958 0.0
C583 C 0.51703 0.27861 0.6557 0.0
C584 C 0.53347 0.28195 0.64759 0.0
C585 C 0.50646 0.29282 0.65684 0.0
H586 H 0.53441 0.32614 0.63557 0.0
H587 H 0.54114 0.2707 0.6465 0.0
O588 O 0.59773 0.31078 0.60021 0.0
O589 O 0.58075 0.3279 0.63348 0.0
O590 O 0.55487 0.3027 0.59912 0.0
O591 O 0.57734 0.28394 0.62578 0.0
H592 H 0.63172 0.3065 0.60343 0.0
H593 H 0.58451 0.30361 0.56321 0.0
H594 H 0.64792 0.2965 0.57599 0.0
H595 H 0.60154 0.29372 0.53641 0.0
H596 H 0.57491 0.35416 0.69459 0.0
H597 H 0.58984 0.3655 0.6301 0.0
H598 H 0.57357 0.32533 0.66899 0.0
H599 H 0.59088 0.39359 0.65632 0.0
H600 H 0.59667 0.38242 0.56967 0.0
H601 H 0.54062 0.36942 0.58221 0.0
H602 H 0.64871 0.27687 0.64398 0.0
H603 H 0.65017 0.33022 0.68383 0.0
H604 H 0.52291 0.27987 0.60289 0.0
H605 H 0.55441 0.30873 0.56306 0.0
H606 H 0.49723 0.26625 0.57645 0.0
H607 H 0.52831 0.29427 0.53723 0.0
H608 H 0.55692 0.24821 0.61084 0.0
H609 H 0.59008 0.28435 0.6618 0.0
H610 H 0.55131 0.21997 0.62836 0.0
H611 H 0.58374 0.25549 0.67853 0.0
H612 H 0.59995 0.23272 0.5739 0.0
H613 H 0.54271 0.22577 0.55355 0.0
H614 H 0.50573 0.32182 0.65024 0.0
H615 H 0.51249 0.26473 0.66061 0.0
Li616 Li 0.01693 0.28894 0.93218 0.0
Li617 Li 0.99543 0.26935 0.9024 0.0
Li618 Li 0.01432 0.25264 0.92689 0.0
Li619 Li 0.03087 0.27388 0.90461 0.0
C620 C 0.98308 0.26999 0.94429 0.0
N621 N 0.96116 0.27728 0.9724 0.0
C622 C 0.96753 0.27701 0.93992 0.0
C623 C 0.98739 0.26641 0.96283 0.0
C624 C 0.95665 0.28068 0.95438 0.0
C625 C 0.97614 0.27025 0.97688 0.0
C626 C 0.01803 0.30897 0.89572 0.0
C627 C 0.02457 0.32231 0.86704 0.0
N628 N 0.02353 0.3404 0.87619 0.0
C629 C 0.01682 0.32761 0.90477 0.0
C630 C 0.0217 0.30619 0.87663 0.0
C631 C 0.0197 0.34333 0.89467 0.0
C632 C 0.03716 0.32659 0.95124 0.0
N633 N 0.02099 0.31315 0.95059 0.0
C634 C 0.0097 0.33672 0.97118 0.0
C635 C 1.00755 0.3178 0.96068 0.0
C636 C 0.02578 0.35118 0.97121 0.0
C637 C 0.03988 0.34579 0.96155 0.0
H638 H 0.04754 0.32273 0.94283 0.0
H639 H 0.99476 0.30728 0.95997 0.0
C640 C 0.95847 0.25342 0.87856 0.0
N641 N 0.97221 0.26974 0.88595 0.0
C642 C 0.94249 0.25499 0.86735 0.0
C643 C 0.95475 0.29006 0.87162 0.0
C644 C 0.97033 0.28785 0.88277 0.0
C645 C 0.94041 0.27353 0.86346 0.0
H646 H 0.95985 0.23908 0.8813 0.0
H647 H 0.9809 0.30084 0.88906 0.0
C648 C 0.05057 0.28191 0.9471 0.0
N649 N 0.07878 0.29747 0.97685 0.0
C650 C 0.06867 0.28699 0.94316 0.0
C651 C 0.0468 0.28463 0.96616 0.0
C652 C 0.08275 0.29479 0.95841 0.0
C653 C 0.06125 0.29264 0.981 0.0
C654 C 0.01341 0.23513 0.88296 0.0
C655 C 0.02048 0.21932 0.88722 0.0
C656 C 0.00899 0.23679 0.8638 0.0
C657 C 0.02318 0.20543 0.87215 0.0
C658 C 0.01187 0.22256 0.84911 0.0
N659 N 0.01885 0.20732 0.85356 0.0
C660 C 1.00255 0.21807 0.9456 0.0
C661 C 0.03406 0.2276 0.94242 0.0
C662 C 1.00551 0.20231 0.95455 0.0
N663 N 0.01674 0.23027 0.93957 0.0
C664 C 0.03761 0.21206 0.95121 0.0
C665 C 0.02325 0.19896 0.95734 0.0
H666 H 0.9889 0.22048 0.94338 0.0
H667 H 0.0452 0.23751 0.93768 0.0
C668 C 0.06205 0.29676 0.89081 0.0
N669 N 0.05276 0.27797 0.89134 0.0
C670 C 0.07849 0.30029 0.88267 0.0
C671 C 0.07607 0.26517 0.87635 0.0
C672 C 0.0596 0.2623 0.88448 0.0
C673 C 0.0858 0.28438 0.87529 0.0
H674 H 0.05693 0.30912 0.89712 0.0
H675 H 0.05251 0.24754 0.88562 0.0
O676 O 0.99412 0.26685 0.93048 0.0
O677 O 0.01564 0.29351 0.9055 0.0
O678 O 0.03665 0.27429 0.9323 0.0
O679 O 0.01037 0.24863 0.89751 0.0
H680 H 0.96407 0.27986 0.92561 0.0
H681 H 0.99937 0.26092 0.96636 0.0
H682 H 0.94467 0.2863 0.95129 0.0
H683 H 0.97935 0.26771 0.99135 0.0
H684 H 0.02763 0.32046 0.85233 0.0
H685 H 0.01351 0.32991 0.91935 0.0
H686 H 0.02254 0.29179 0.86941 0.0
H687 H 0.01885 0.35786 0.90152 0.0
H688 H 0.99858 0.34021 0.97865 0.0
H689 H 0.05243 0.35657 0.96102 0.0
H690 H 0.93203 0.24168 0.8615 0.0
H691 H 0.95393 0.3048 0.86971 0.0
H692 H 0.07185 0.28481 0.92851 0.0
H693 H 0.03285 0.28081 0.96943 0.0
H694 H 0.09683 0.29871 0.95557 0.0
H695 H 0.05855 0.29499 0.99582 0.0
H696 H 0.02386 0.21779 0.90198 0.0
H697 H 1.00339 0.24891 0.86033 0.0
H698 H 0.02869 0.19314 0.87522 0.0
H699 H 0.00852 0.22361 0.83419 0.0
H700 H 0.99393 0.19262 0.95887 0.0
H701 H 0.05157 0.21045 0.9533 0.0
H702 H 0.08565 0.31539 0.8826 0.0
H703 H 0.08106 0.2524 0.87086 0.0
Li704 Li 0.43637 0.02974 0.3025 0.0
Li705 Li 0.41323 1.00862 0.27805 0.0
Li706 Li 0.4392 0.02977 0.26883 0.0
Li707 Li 0.4151 0.04324 0.28256 0.0
C708 C 0.44896 0.99483 0.28404 0.0
N709 N 0.46953 0.96691 0.28375 0.0
C710 C 0.44071 0.97538 0.28549 0.0
C711 C 0.46769 1.00015 0.28265 0.0
C712 C 0.45135 0.96148 0.2853 0.0
C713 C 0.47785 0.98579 0.28246 0.0
C714 C 0.39616 0.01836 0.31198 0.0
C715 C 0.36491 0.01275 0.31891 0.0
N716 N 0.36936 1.00351 0.33357 0.0
C717 C 0.40045 1.00887 0.32714 0.0
C718 C 0.37828 0.0204 0.30785 0.0
C719 C 0.3867 1.00144 0.33787 0.0
C720 C 0.45468 0.04957 0.33783 0.0
N721 N 0.44905 0.03166 0.32616 0.0
C722 C 0.46333 0.01609 0.34857 0.0
C723 C 0.45279 0.01501 0.33124 0.0
C724 C 0.46954 0.0344 0.36074 0.0
C725 C 0.46498 0.05128 0.35555 0.0
H726 H 0.45129 0.06244 0.33323 0.0
H727 H 0.44756 1.00092 0.32189 0.0
C728 C 0.40234 0.97438 0.25213 0.0
N729 N 0.39899 0.98353 0.26935 0.0
C730 C 0.39244 0.95533 0.24428 0.0
C731 C 0.37645 0.95548 0.27253 0.0
C732 C 0.3865 0.97449 0.2797 0.0
C733 C 0.37939 0.94597 0.25464 0.0
H734 H 0.41264 0.98194 0.24447 0.0
H735 H 0.38434 0.98184 0.29344 0.0
C736 C 0.45687 0.06674 0.28648 0.0
N737 N 0.48676 0.09445 0.28016 0.0
C738 C 0.45434 0.08332 0.27898 0.0
C739 C 0.47454 0.06427 0.29092 0.0
C740 C 0.46965 0.09717 0.27587 0.0
C741 C 0.4895 0.07844 0.28755 0.0
C742 C 0.39991 0.01725 0.2437 0.0
C743 C 0.40401 0.01271 0.22493 0.0
C744 C 0.38169 0.01289 0.24737 0.0
C745 C 0.38981 1.00355 0.21013 0.0
C746 C 0.36787 1.00365 0.23218 0.0
N747 N 0.37219 0.9992 0.21404 0.0
C748 C 0.45064 0.00924 0.24083 0.0
C749 C 0.46126 0.04341 0.24003 0.0
C750 C 0.45631 1.00405 0.22326 0.0
N751 N 0.45308 0.02853 0.24879 0.0
C752 C 0.46723 0.03884 0.22216 0.0
C753 C 0.4642 0.01891 0.21351 0.0
H754 H 0.44322 0.9978 0.24754 0.0
H755 H 0.46224 0.05862 0.24628 0.0
C756 C 0.39451 0.07033 0.29503 0.0
N757 N 0.40229 0.06186 0.28047 0.0
C758 C 0.38499 0.08457 0.29174 0.0
C759 C 0.39171 0.08046 0.25866 0.0
C760 C 0.40112 0.06653 0.26261 0.0
C761 C 0.38375 0.08978 0.27339 0.0
H762 H 0.39582 0.06611 0.30906 0.0
H763 H 0.40765 0.0595 0.25148 0.0
O764 O 0.43852 1.00833 0.28304 0.0
O765 O 0.4095 0.02607 0.30158 0.0
O766 O 0.44208 0.05323 0.28988 0.0
O767 O 0.41374 0.02564 0.25844 0.0
H768 H 0.42627 0.97104 0.28678 0.0
H769 H 0.47423 0.01512 0.28139 0.0
H770 H 0.44512 0.94636 0.28634 0.0
H771 H 0.49234 0.98962 0.28119 0.0
H772 H 0.351 0.01418 0.31587 0.0
H773 H 0.41421 1.00719 0.33053 0.0
H774 H 0.37477 0.02782 0.29624 0.0
H775 H 0.38981 0.99403 0.34962 0.0
H776 H 0.46657 1.00284 0.35248 0.0
H777 H 0.4697 0.06558 0.36485 0.0
H778 H 0.39485 0.94809 0.23044 0.0
H779 H 0.36636 0.94826 0.28075 0.0
H780 H 0.44072 0.08546 0.27563 0.0
H781 H 0.47665 0.05155 0.29688 0.0
H782 H 0.46793 0.11008 0.27005 0.0
H783 H 0.50328 0.07672 0.29083 0.0
H784 H 0.41802 0.01616 0.22181 0.0
H785 H 0.37831 0.0163 0.26184 0.0
H786 H 0.39281 0.99988 0.19554 0.0
H787 H 0.35373 0.99996 0.23483 0.0
H788 H 0.454 0.98854 0.21707 0.0
H789 H 0.4733 0.0506 0.2148 0.0
H790 H 0.37897 0.09162 0.30338 0.0
H791 H 0.39067 0.08391 0.24425 0.0
Li792 Li 0.28951 0.20962 0.51977 0.0
Li793 Li 0.30205 0.18247 0.50387 0.0
Li794 Li 0.28833 0.2049 0.48371 0.0
Li795 Li 0.26685 0.17895 0.5004 0.0
C796 C 0.32522 0.22648 0.51041 0.0
N797 N 0.35563 0.25712 0.52384 0.0
C798 C 0.34081 0.22289 0.52011 0.0
C799 C 0.32518 0.24558 0.50733 0.0
C800 C 0.35603 0.23859 0.52683 0.0
C801 C 0.34067 0.2609 0.51432 0.0
C802 C 0.2859 0.17068 0.53741 0.0
C803 C 0.28112 0.13875 0.54698 0.0
N804 N 0.28855 0.14762 0.56528 0.0
C805 C 0.29342 0.1795 0.55631 0.0
C806 C 0.27967 0.15017 0.53266 0.0
C807 C 0.29468 0.16758 0.57019 0.0
C808 C 0.27641 0.22934 0.55161 0.0
N809 N 0.29208 0.22725 0.54426 0.0
C810 C 0.3099 0.24326 0.57456 0.0
C811 C 0.30869 0.23428 0.55527 0.0
C812 C 0.29388 0.24522 0.58254 0.0
C813 C 0.27703 0.23859 0.57066 0.0
H814 H 0.26328 0.22284 0.54307 0.0
H815 H 0.32093 0.23179 0.54959 0.0
C816 C 0.33097 0.1655 0.4909 0.0
N817 N 0.32195 0.16906 0.50636 0.0
C818 C 0.34613 0.15709 0.49243 0.0
C819 C 0.34251 0.15599 0.52577 0.0
C820 C 0.32765 0.16472 0.52367 0.0
C821 C 0.35211 0.15199 0.51004 0.0
H822 H 0.32657 0.16952 0.47739 0.0
H823 H 0.32088 0.16825 0.53603 0.0
C824 C 0.25868 0.22178 0.50387 0.0
N825 N 0.2398 0.25052 0.51327 0.0
C826 C 0.24003 0.2164 0.50563 0.0
C827 C 0.26776 0.24172 0.50681 0.0
C828 C 0.23071 0.23117 0.51034 0.0
C829 C 0.25798 0.25605 0.51164 0.0
C830 C 0.28128 0.16016 0.46468 0.0
C831 C 0.27616 0.1633 0.44616 0.0
C832 C 0.28453 0.14193 0.46735 0.0
C833 C 0.27442 0.14806 0.4305 0.0
C834 C 0.28266 0.12707 0.4513 0.0
N835 N 0.27769 0.13042 0.43337 0.0
C836 C 0.30533 0.21703 0.45106 0.0
C837 C 0.2766 0.22476 0.4535 0.0
C838 C 0.30687 0.22494 0.43402 0.0
N839 N 0.29032 0.21697 0.46043 0.0
C840 C 0.27756 0.23277 0.43649 0.0
C841 C 0.29282 0.23291 0.4263 0.0
H842 H 0.31613 0.21082 0.45676 0.0
H843 H 0.26473 0.22454 0.46105 0.0
C844 C 0.23646 0.16013 0.51803 0.0
N845 N 0.24215 0.16166 0.50046 0.0
C846 C 0.21897 0.14883 0.51963 0.0
C847 C 0.21305 0.14089 0.48502 0.0
C848 C 0.23076 0.15228 0.48407 0.0
C849 C 0.20681 0.13893 0.50302 0.0
H850 H 0.24547 0.16792 0.53094 0.0
H851 H 0.23535 0.15369 0.47018 0.0
O852 O 0.31026 0.21125 0.50358 0.0
O853 O 0.28472 0.18208 0.5236 0.0
O854 O 0.26801 0.20751 0.49951 0.0
O855 O 0.2836 0.17509 0.48006 0.0
H856 H 0.34112 0.20816 0.52252 0.0
H857 H 0.31336 0.24854 0.49956 0.0
H858 H 0.36815 0.23606 0.53442 0.0
H859 H 0.34081 0.27579 0.51211 0.0
H860 H 0.27637 0.12284 0.54353 0.0
H861 H 0.29838 0.19533 0.56023 0.0
H862 H 0.27384 0.14316 0.51807 0.0
H863 H 0.30054 0.1742 0.58485 0.0
H864 H 0.32315 0.24805 0.58331 0.0
H865 H 0.26433 0.23944 0.57639 0.0
H866 H 0.35321 0.15494 0.47994 0.0
H867 H 0.34626 0.15228 0.53963 0.0
H868 H 0.23286 0.20097 0.50338 0.0
H869 H 0.28222 0.24605 0.5056 0.0
H870 H 0.21625 0.22724 0.51172 0.0
H871 H 0.26483 0.27157 0.51412 0.0
H872 H 0.2736 0.17735 0.4439 0.0
H873 H 0.28858 0.13937 0.48163 0.0
H874 H 0.2705 0.15028 0.41606 0.0
H875 H 0.28519 0.11289 0.4531 0.0
H876 H 0.31909 0.22492 0.42709 0.0
H877 H 0.26618 0.23839 0.43121 0.0
H878 H 0.21493 0.14823 0.53386 0.0
H879 H 0.20442 0.13349 0.47173 0.0
Li880 Li 0.17773 0.03681 0.77335 0.0
Li881 Li 0.15057 0.0141 0.79065 0.0
Li882 Li 0.1743 0.99502 0.76997 0.0
Li883 Li 0.14968 0.01148 0.75194 0.0
C884 C 0.1917 0.02293 0.80988 0.0
N885 N 0.21703 0.03132 0.84242 0.0
C886 C 0.18705 0.03042 0.82769 0.0
C887 C 0.20923 0.01983 0.80853 0.0
C888 C 0.20006 0.03455 0.844 0.0
C889 C 0.22185 0.02412 0.82518 0.0
C890 C 0.13748 0.04505 0.77039 0.0
C891 C 0.10615 0.04569 0.76093 0.0
N892 N 0.1111 0.06579 0.76406 0.0
C893 C 0.14227 0.06567 0.77355 0.0
C894 C 0.11929 0.03493 0.76411 0.0
C895 C 0.12872 0.0759 0.77027 0.0
C896 C 0.18859 0.07542 0.75858 0.0
N897 N 0.19343 0.06597 0.77312 0.0
C898 C 0.21718 0.09598 0.78639 0.0
C899 C 0.20763 0.07618 0.78691 0.0
C900 C 0.21245 0.10624 0.77161 0.0
C901 C 0.19771 0.09521 0.75761 0.0
H902 H 0.17738 0.06764 0.74757 0.0
H903 H 0.2116 0.06911 0.79861 0.0
C904 C 0.13319 0.99998 0.82614 0.0
N905 N 0.13647 0.01534 0.81611 0.0
C906 C 0.1245 1.00105 0.84334 0.0
C907 C 0.12221 0.03367 0.84035 0.0
C908 C 0.13088 0.03199 0.82318 0.0
C909 C 0.11872 0.01816 0.85129 0.0
H910 H 0.13742 0.98663 0.82093 0.0
H911 H 0.13329 0.04437 0.81561 0.0
C912 C 0.18411 0.01288 0.73377 0.0
N913 N 0.19864 0.00942 0.69935 0.0
C914 C 0.17453 0.99898 0.71791 0.0
C915 C 0.20108 0.02496 0.73222 0.0
C916 C 0.18207 0.99755 0.70057 0.0
C917 C 0.20824 0.02293 0.7147 0.0
C918 C 0.13121 0.974 0.76098 0.0
C919 C 0.13394 0.95724 0.74942 0.0
C920 C 0.11352 0.97496 0.76471 0.0
C921 C 0.11888 0.94163 0.74177 0.0
C922 C 0.09879 0.9591 0.75669 0.0
N923 N 0.10176 0.94289 0.74551 0.0
C924 C 0.19782 0.96693 0.78482 0.0
C925 C 0.18786 0.95758 0.75178 0.0
C926 C 0.2069 0.95097 0.78438 0.0
N927 N 0.18838 0.97042 0.76866 0.0
C928 C 0.19657 0.94129 0.75079 0.0
C929 C 0.20659 0.93741 0.76721 0.0
H930 H 0.19837 0.9765 0.79844 0.0
H931 H 0.18058 0.9598 0.73872 0.0
C932 C 0.13734 0.02982 0.71953 0.0
N933 N 0.13446 0.01195 0.72557 0.0
C934 C 0.12855 0.0322 0.70174 0.0
C935 C 0.11368 0.99778 0.69582 0.0
C936 C 0.12268 0.99604 0.71388 0.0
C937 C 0.11644 0.0161 0.68921 0.0
H938 H 0.14673 0.04247 0.72852 0.0
H939 H 0.12027 0.98179 0.71838 0.0
O940 O 0.17897 0.01815 0.79391 0.0
O941 O 0.15057 0.03479 0.77325 0.0
O942 O 0.17696 0.01467 0.75081 0.0
O943 O 0.14585 0.98922 0.76893 0.0
H944 H 0.17352 0.03292 0.82891 0.0
H945 H 0.21297 0.01402 0.79479 0.0
H946 H 0.19664 0.04028 0.85792 0.0
H947 H 0.23545 0.02169 0.8244 0.0
H948 H 0.09204 0.03807 0.75594 0.0
H949 H 0.15627 0.07369 0.77856 0.0
H950 H 0.11542 0.01895 0.76148 0.0
H951 H 0.13222 0.09189 0.77266 0.0
H952 H 0.22808 0.10325 0.7979 0.0
H953 H 0.19323 0.10166 0.74565 0.0
H954 H 0.12243 0.98821 0.85023 0.0
H955 H 0.11852 0.04745 0.84492 0.0
H956 H 0.16142 0.98943 0.71898 0.0
H957 H 0.20866 0.03572 0.74446 0.0
H958 H 0.17476 0.98696 0.68811 0.0
H959 H 0.22141 0.03212 0.71329 0.0
H960 H 0.14757 0.95625 0.74648 0.0
H961 H 0.11121 0.98776 0.77381 0.0
H962 H 0.12079 0.92852 0.73287 0.0
H963 H 0.08502 0.95964 0.75943 0.0
H964 H 0.21391 0.94919 0.79777 0.0
H965 H 0.19562 0.93193 0.73695 0.0
H966 H 0.13168 0.04666 0.6977 0.0
H967 H 0.10446 0.98475 0.68721 0.0
Li968 Li 0.29433 0.93747 0.01013 0.0
Li969 Li 0.30944 0.91461 0.02413 0.0
Li970 Li 0.32688 0.94329 0.01396 0.0
Li971 Li 0.30999 0.91481 0.99035 0.0
C972 C 0.31776 0.95675 0.04955 0.0
N973 N 0.33367 0.98644 0.08041 0.0
C974 C 0.32273 0.95206 0.06747 0.0
C975 C 0.32057 0.97653 0.04739 0.0
C976 C 0.33079 0.96729 0.08289 0.0
C977 C 0.32877 0.99133 0.06314 0.0
C978 C 0.27538 0.89228 0.00693 0.0
C979 C 0.26483 0.85723 1.00577 0.0
N980 N 0.24928 0.86026 0.01279 0.0
C981 C 0.25929 0.89508 0.01406 0.0
C982 C 0.27817 0.87323 1.00263 0.0
C983 C 0.24626 0.87868 0.01695 0.0
C984 C 0.26611 0.95389 0.99677 0.0
N985 N 0.27523 0.94934 0.01219 0.0
C986 C 0.25668 0.96244 0.0336 0.0
C987 C 0.27091 0.95338 0.03033 0.0
C988 C 0.24677 0.96711 0.01797 0.0
C989 C 0.25162 0.96287 0.99935 0.0
H990 H 0.27005 0.95042 0.98256 0.0
H991 H 0.27848 0.94944 0.04223 0.0
C992 C 0.32839 0.90156 0.05014 0.0
N993 N 0.31068 0.89994 0.04323 0.0
C994 C 0.33254 0.89198 0.06489 0.0
C995 C 0.30001 0.88021 0.0662 0.0
C996 C 0.29646 0.88991 0.05105 0.0
C997 C 0.31827 0.88108 0.0729 0.0
H998 H 0.33933 0.91079 0.04453 0.0
H999 H 0.28253 0.88974 0.04586 0.0
C1000 C 0.31702 0.95692 0.97946 0.0
N1001 N 0.3308 0.98505 0.95797 0.0
C1002 C 0.32727 0.95232 0.96466 0.0
C1003 C 0.31359 0.97573 0.98323 0.0
C1004 C 0.33413 0.96675 0.95396 0.0
C1005 C 0.32077 0.98979 0.97225 0.0
C1006 C 0.3427 0.90535 0.00689 0.0
C1007 C 0.36105 0.91419 1.00606 0.0
C1008 C 0.33719 0.8849 1.00575 0.0
C1009 C 0.37363 0.90238 1.00416 0.0
C1010 C 0.35019 0.87359 1.00385 0.0
N1011 N 0.368 0.88249 1.00312 0.0
C1012 C 0.3583 0.96037 0.03854 0.0
C1013 C 0.35589 0.97578 0.0112 0.0
C1014 C 0.37536 0.9729 0.04535 0.0
N1015 N 0.349 0.96201 0.02173 0.0
C1016 C 0.37306 0.98821 0.01714 0.0
C1017 C 0.38321 0.98658 0.03421 0.0
H1018 H 0.35266 0.9489 0.04636 0.0
H1019 H 0.34863 0.97665 0.99776 0.0
C1020 C 0.29291 0.88699 0.95859 0.0
N1021 N 0.30944 0.89835 0.9671 0.0
C1022 C 0.2917 0.87385 0.94151 0.0
C1023 C 0.32459 0.88459 0.94227 0.0
C1024 C 0.32517 0.89733 0.9595 0.0
C1025 C 0.30765 0.87272 0.93304 0.0
H1026 H 0.28069 0.88811 0.96512 0.0
H1027 H 0.33813 0.90657 0.9667 0.0
O1028 O 0.31028 0.94198 0.03419 0.0
O1029 O 0.28805 0.90809 1.00359 0.0
O1030 O 0.31026 0.94304 0.99012 0.0
O1031 O 0.33046 0.91686 0.00984 0.0
H1032 H 0.32044 0.93684 0.06946 0.0
H1033 H 0.31677 0.98037 0.03359 0.0
H1034 H 0.33479 0.96387 0.09681 0.0
H1035 H 0.33128 1.00671 0.06164 0.0
H1036 H 0.26681 0.84239 1.00255 0.0
H1037 H 0.25687 0.90973 0.01728 0.0
H1038 H 0.29046 0.87084 0.99689 0.0
H1039 H 0.23373 0.8806 0.02246 0.0
H1040 H 0.25351 0.9658 0.04818 0.0
H1041 H 0.24414 0.96616 0.98695 0.0
H1042 H 0.34677 0.89351 0.07035 0.0
H1043 H 0.2888 0.87223 0.07259 0.0
H1044 H 0.33002 0.93785 0.96156 0.0
H1045 H 0.30569 0.97948 0.99468 0.0
H1046 H 0.34215 0.96343 0.94251 0.0
H1047 H 0.31839 1.00448 0.9751 0.0
H1048 H 0.36555 0.93003 0.00704 0.0
H1049 H 0.32309 0.87789 0.00662 0.0
H1050 H 0.3879 0.90902 1.00359 0.0
H1051 H 0.34616 0.85776 1.00307 0.0
H1052 H 0.3827 0.97116 0.0586 0.0
H1053 H 0.37872 0.99799 0.00764 0.0
H1054 H 0.27842 0.86471 0.93504 0.0
H1055 H 0.33717 0.88437 0.93607 0.0
Li1056 Li 0.29119 0.39575 0.02901 0.0
Li1057 Li 0.30501 0.37329 0.04802 0.0
Li1058 Li 0.32623 0.39913 0.03066 0.0
Li1059 Li 0.30315 0.36836 0.01182 0.0
C1060 C 0.30799 0.4174 0.06633 0.0
N1061 N 0.30249 0.44596 0.09497 0.0
C1062 C 0.29868 0.41189 0.08158 0.0
C1063 C 0.31456 0.43738 0.06563 0.0
C1064 C 0.29601 0.42656 0.09592 0.0
C1065 C 0.31161 0.45161 0.08025 0.0
C1066 C 0.26769 0.35194 0.02286 0.0
C1067 C 0.25344 0.31733 0.01221 0.0
N1068 N 0.23668 0.32158 0.01151 0.0
C1069 C 0.25033 0.35597 0.02202 0.0
C1070 C 0.2693 0.33248 0.01798 0.0
C1071 C 0.23481 0.34041 0.01628 0.0
C1072 C 0.26226 0.40709 0.00814 0.0
N1073 N 0.27104 0.40887 0.02624 0.0
C1074 C 0.24986 0.4266 0.03933 0.0
C1075 C 0.26499 0.41827 0.04174 0.0
C1076 C 0.24064 0.42519 0.02079 0.0
C1077 C 0.24711 0.41524 1.00507 0.0
H1078 H 0.26688 0.39904 0.99603 0.0
H1079 H 0.2717 0.41917 0.05605 0.0
C1080 C 0.31858 0.36072 0.08251 0.0
N1081 N 0.30317 0.36084 0.07099 0.0
C1082 C 0.31737 0.35271 0.0995 0.0
C1083 C 0.28446 0.34508 0.09262 0.0
C1084 C 0.28631 0.35307 0.07569 0.0
C1085 C 0.30012 0.34482 0.10501 0.0
H1086 H 0.33187 0.36696 0.07857 0.0
H1087 H 0.27419 0.35343 0.06646 0.0
C1088 C 0.30695 0.4069 0.99402 0.0
N1089 N 0.30556 0.42865 0.96485 0.0
C1090 C 0.30879 0.39876 0.97524 0.0
C1091 C 0.30468 0.42618 0.99806 0.0
C1092 C 0.308 0.40998 0.96067 0.0
C1093 C 0.30392 0.43691 0.98308 0.0
C1094 C 0.33449 0.35639 0.0273 0.0
C1095 C 0.35119 0.3613 0.02001 0.0
C1096 C 0.32743 0.33702 0.02981 0.0
C1097 C 0.36046 0.34654 0.01502 0.0
C1098 C 0.33713 0.32269 0.02464 0.0
N1099 N 0.35328 0.3277 0.01739 0.0
C1100 C 0.36415 0.42093 0.04579 0.0
C1101 C 0.35505 0.42241 0.01337 0.0
C1102 C 0.38192 0.43218 0.04485 0.0
N1103 N 0.35102 0.41626 0.03017 0.0
C1104 C 0.37256 0.43372 0.01184 0.0
C1105 C 0.38647 0.43887 0.02768 0.0
H1106 H 0.36091 0.4158 0.05901 0.0
H1107 H 0.34476 0.41833 1.00091 0.0
C1108 C 0.28347 0.34989 0.97519 0.0
N1109 N 0.29892 0.35068 0.98712 0.0
C1110 C 0.2814 0.34104 0.95574 0.0
C1111 C 0.31065 0.33297 0.9614 0.0
C1112 C 0.31221 0.34206 0.98062 0.0
C1113 C 0.29536 0.33286 0.94847 0.0
H1114 H 0.27321 0.35715 0.9805 0.0
H1115 H 0.32458 0.34315 0.98991 0.0
O1116 O 0.31097 0.40329 0.05235 0.0
O1117 O 0.283 0.36704 0.02846 0.0
O1118 O 0.30727 0.396 0.00837 0.0
O1119 O 0.32499 0.37048 0.03166 0.0
H1120 H 0.29349 0.39647 0.08229 0.0
H1121 H 0.32185 0.44181 0.05391 0.0
H1122 H 0.2888 0.42253 0.1078 0.0
H1123 H 0.31661 0.46716 0.07993 0.0
H1124 H 0.25446 0.3022 0.00829 0.0
H1125 H 0.24883 0.37093 0.0259 0.0
H1126 H 0.28264 0.32913 0.01851 0.0
H1127 H 0.22129 0.34331 0.01563 0.0
H1128 H 0.24555 0.43421 0.05193 0.0
H1129 H 0.24031 0.41339 0.99054 0.0
H1130 H 0.32994 0.35262 0.10812 0.0
H1131 H 0.27081 0.3396 0.0961 0.0
H1132 H 0.31094 0.38402 0.97193 0.0
H1133 H 0.30335 0.43269 0.01258 0.0
H1134 H 0.30934 0.40385 0.94605 0.0
H1135 H 0.30201 0.45179 0.98594 0.0
H1136 H 0.35676 0.37626 0.01796 0.0
H1137 H 0.31453 0.33309 0.03552 0.0
H1138 H 0.37333 0.35004 0.00919 0.0
H1139 H 0.33179 0.30758 0.02635 0.0
H1140 H 0.39193 0.43578 0.0576 0.0
H1141 H 0.3752 0.43802 0.99812 0.0
H1142 H 0.26927 0.34117 0.94638 0.0
H1143 H 0.32193 0.32718 0.95649 0.0
Li1144 Li 0.78172 0.16295 0.0435 0.0
Li1145 Li 0.79719 0.141 0.02223 0.0
Li1146 Li 0.78069 0.16352 0.00962 0.0
Li1147 Li 0.7644 0.13382 0.01968 0.0
C1148 C 0.8159 0.18644 0.02759 0.0
N1149 N 0.84283 0.21923 0.02508 0.0
C1150 C 0.83318 0.18433 0.02337 0.0
C1151 C 0.81235 0.20522 0.03073 0.0
C1152 C 0.84662 0.20109 0.02219 0.0
C1153 C 0.82611 0.22162 0.02926 0.0
C1154 C 0.77633 0.12048 0.05348 0.0
C1155 C 0.76939 0.0864 0.05746 0.0
N1156 N 0.7649 0.09192 0.07534 0.0
C1157 C 0.77169 0.12584 0.07188 0.0
C1158 C 0.77537 0.10066 0.04624 0.0
C1159 C 0.76598 0.11117 0.08273 0.0
C1160 C 0.76678 0.18077 0.07408 0.0
N1161 N 0.78263 0.17902 0.06706 0.0
C1162 C 0.8004 0.20253 0.0934 0.0
C1163 C 0.79924 0.18955 0.0762 0.0
C1164 C 0.78428 0.20463 0.10107 0.0
C1165 C 0.76728 0.19366 0.09121 0.0
H1166 H 0.75378 0.17216 0.06635 0.0
H1167 H 0.81155 0.18791 0.07005 0.0
C1168 C 0.82285 0.12926 1.00179 0.0
N1169 N 0.81631 0.12929 0.01903 0.0
C1170 C 0.8367 0.11975 0.99779 0.0
C1171 C 0.83661 0.11049 0.02943 0.0
C1172 C 0.82269 0.12015 0.03278 0.0
C1173 C 0.84375 0.1103 0.01176 0.0
H1174 H 0.81721 0.13658 0.99116 0.0
H1175 H 0.81694 0.12037 0.04625 0.0
C1176 C 0.74759 0.17157 0.02452 0.0
N1177 N 0.72254 0.1946 0.02175 0.0
C1178 C 0.72918 0.16273 0.0178 0.0
C1179 C 0.75326 0.19209 0.02996 0.0
C1180 C 0.71673 0.17464 0.01645 0.0
C1181 C 0.74038 0.20348 0.02844 0.0
C1182 C 0.77676 0.12227 0.98285 0.0
C1183 C 0.77222 0.12708 0.96487 0.0
C1184 C 0.77665 0.1027 0.98432 0.0
C1185 C 0.7673 0.11212 0.94866 0.0
C1186 C 0.77165 0.08815 0.96775 0.0
N1187 N 0.76708 0.09312 0.95043 0.0
C1188 C 0.79376 0.18901 0.98376 0.0
C1189 C 0.76167 0.17694 0.98298 0.0
C1190 C 0.79089 0.19906 0.96869 0.0
N1191 N 0.77915 0.17862 0.99073 0.0
C1192 C 0.75816 0.18696 0.96834 0.0
C1193 C 0.77286 0.19818 0.96113 0.0
H1194 H 0.80754 0.18908 0.98946 0.0
H1195 H 0.75047 0.16716 0.98762 0.0
C1196 C 0.73464 0.10409 0.02627 0.0
N1197 N 0.74314 0.11349 0.013 0.0
C1198 C 0.71823 0.08995 0.02062 0.0
C1199 C 0.72005 0.095 0.98772 0.0
C1200 C 0.73601 0.10947 0.99412 0.0
C1201 C 0.71054 0.0857 1.00118 0.0
H1202 H 0.73994 0.10833 0.04135 0.0
H1203 H 0.74208 0.11822 0.98413 0.0
O1204 O 0.80275 0.17019 0.02912 0.0
O1205 O 0.7822 0.1347 0.04285 0.0
O1206 O 0.76001 0.16011 0.02524 0.0
O1207 O 0.78016 0.13652 0.99904 0.0
H1208 H 0.83623 0.16992 0.0212 0.0
H1209 H 0.7991 0.20711 0.03414 0.0
H1210 H 0.86008 0.19969 0.019 0.0
H1211 H 0.82352 0.23624 0.03148 0.0
H1212 H 0.76836 0.07096 0.05198 0.0
H1213 H 0.77259 0.14116 0.07775 0.0
H1214 H 0.77899 0.09634 0.03205 0.0
H1215 H 0.76241 0.1151 0.09703 0.0
H1216 H 0.81373 0.21092 0.10056 0.0
H1217 H 0.75459 0.19477 0.09684 0.0
H1218 H 0.84172 0.11966 0.98392 0.0
H1219 H 0.84188 0.10351 0.0406 0.0
H1220 H 0.7246 0.14686 0.01345 0.0
H1221 H 0.76743 0.19912 0.03522 0.0
H1222 H 0.70246 0.16802 0.01115 0.0
H1223 H 0.74457 0.21939 0.03255 0.0
H1224 H 0.77213 0.14214 0.9635 0.0
H1225 H 0.78001 0.09874 0.99814 0.0
H1226 H 0.76354 0.11559 0.9347 0.0
H1227 H 0.77128 0.0729 0.96868 0.0
H1228 H 0.80247 0.20716 0.96289 0.0
H1229 H 0.74411 0.18526 0.96213 0.0
H1230 H 0.71094 0.08372 0.0316 0.0
H1231 H 0.71439 0.09238 0.97268 0.0
Li1232 Li 0.17766 0.57036 0.25652 0.0
Li1233 Li 0.15115 0.54758 0.26395 0.0
Li1234 Li 0.17564 0.53523 0.2511 0.0
Li1235 Li 0.15465 0.54879 0.23127 0.0
C1236 C 0.1903 0.55885 0.29069 0.0
N1237 N 0.21818 0.57301 0.32095 0.0
C1238 C 0.18628 0.56509 0.30917 0.0
C1239 C 0.20847 0.55958 0.2876 0.0
C1240 C 0.20057 0.57224 0.32428 0.0
C1241 C 0.22238 0.56686 0.30309 0.0
C1242 C 0.14286 0.58445 0.2488 0.0
C1243 C 0.11601 0.59429 0.23667 0.0
N1244 N 0.1233 0.613 0.24638 0.0
C1245 C 0.15005 0.60374 0.25873 0.0
C1246 C 0.12567 0.57962 0.23774 0.0
C1247 C 0.13997 0.61798 0.25728 0.0
C1248 C 0.19829 0.60233 0.2459 0.0
N1249 N 0.19372 0.59482 0.26181 0.0
C1250 C 0.21732 0.61924 0.28201 0.0
C1251 C 0.20207 0.60358 0.27977 0.0
C1252 C 0.22354 0.62592 0.26557 0.0
C1253 C 0.21338 0.618 0.24743 0.0
H1254 H 0.19084 0.59535 0.23191 0.0
H1255 H 0.19748 0.59794 0.29225 0.0
C1256 C 0.13587 0.53298 0.29492 0.0
N1257 N 0.13501 0.54521 0.28197 0.0
C1258 C 0.12725 0.53539 0.31144 0.0
C1259 C 0.11669 0.56224 0.30015 0.0
C1260 C 0.12493 0.55889 0.28378 0.0
C1261 C 0.11838 0.55098 0.31468 0.0
H1262 H 0.14419 0.5223 0.29303 0.0
H1263 H 0.12443 0.56831 0.27331 0.0
C1264 C 0.19488 0.55576 0.2215 0.0
N1265 N 0.2218 0.56224 0.19762 0.0
C1266 C 0.19038 0.55048 0.20152 0.0
C1267 C 0.21311 0.56411 0.22937 0.0
C1268 C 0.20418 0.5539 0.18968 0.0
C1269 C 0.22651 0.56735 0.21704 0.0
C1270 C 0.13467 0.51097 0.24652 0.0
C1271 C 0.13742 0.49321 0.25124 0.0
C1272 C 0.11705 0.51429 0.24499 0.0
C1273 C 0.12241 0.47899 0.25441 0.0
C1274 C 0.10242 0.49977 0.24839 0.0
N1275 N 0.10537 0.48255 0.25295 0.0
C1276 C 0.18914 0.51057 0.26989 0.0
C1277 C 0.19839 0.51039 0.23859 0.0
C1278 C 0.19945 0.49732 0.27368 0.0
N1279 N 0.18901 0.51688 0.25273 0.0
C1280 C 0.20871 0.49678 0.24166 0.0
C1281 C 0.20931 0.49042 0.25946 0.0
H1282 H 0.18127 0.51597 0.28064 0.0
H1283 H 0.19787 0.5158 0.2251 0.0
C1284 C 0.14667 0.56384 0.19914 0.0
N1285 N 0.14269 0.54775 0.20773 0.0
C1286 C 0.13679 0.56394 0.18167 0.0
C1287 C 0.11902 0.53095 0.18268 0.0
C1288 C 0.12938 0.53141 0.19996 0.0
C1289 C 0.12273 0.54738 0.17353 0.0
H1290 H 0.15733 0.5766 0.20605 0.0
H1291 H 0.12672 0.51891 0.2073 0.0
O1292 O 0.17648 0.55248 0.27569 0.0
O1293 O 0.15217 0.57016 0.25084 0.0
O1294 O 0.18133 0.55366 0.23315 0.0
O1295 O 0.14909 0.52466 0.24261 0.0
H1296 H 0.17227 0.56466 0.31174 0.0
H1297 H 0.21179 0.55475 0.27339 0.0
H1298 H 0.19768 0.57727 0.33864 0.0
H1299 H 0.23652 0.56766 0.30092 0.0
H1300 H 0.10266 0.59076 0.22823 0.0
H1301 H 0.16313 0.60762 0.26773 0.0
H1302 H 0.11971 0.56464 0.23035 0.0
H1303 H 0.14535 0.63295 0.26494 0.0
H1304 H 0.22466 0.62537 0.29627 0.0
H1305 H 0.21743 0.62341 0.23455 0.0
H1306 H 0.12853 0.52599 0.32199 0.0
H1307 H 0.11047 0.57474 0.30186 0.0
H1308 H 0.17636 0.54392 0.19518 0.0
H1309 H 0.21682 0.56845 0.24479 0.0
H1310 H 0.20086 0.55001 0.17419 0.0
H1311 H 0.24063 0.57403 0.22292 0.0
H1312 H 0.15095 0.49033 0.2522 0.0
H1313 H 0.11474 0.52797 0.24124 0.0
H1314 H 0.12429 0.46511 0.25796 0.0
H1315 H 0.08871 0.50214 0.24733 0.0
H1316 H 0.19963 0.49238 0.28746 0.0
H1317 H 0.21629 0.4915 0.2305 0.0
H1318 H 0.1398 0.57681 0.17481 0.0
H1319 H 0.10831 0.51793 0.17648 0.0
Li1320 Li 0.79194 0.89611 0.52907 0.0
Li1321 Li 0.80562 0.87356 0.5482 0.0
Li1322 Li 0.82694 0.89939 0.53074 0.0
Li1323 Li 0.80386 0.86867 0.51199 0.0
C1324 C 0.80881 0.91771 0.56646 0.0
N1325 N 0.80328 0.94627 0.59507 0.0
C1326 C 0.7992 0.91221 0.58152 0.0
C1327 C 0.81567 0.93768 0.56594 0.0
C1328 C 0.79653 0.92689 0.59586 0.0
C1329 C 0.8127 0.95192 0.58055 0.0
C1330 C 0.7682 0.85237 0.52344 0.0
C1331 C 0.75358 0.81782 0.51301 0.0
N1332 N 0.73691 0.82226 0.51265 0.0
C1333 C 0.75092 0.85659 0.52299 0.0
C1334 C 0.76957 0.83283 0.5185 0.0
C1335 C 0.73527 0.84117 0.51752 0.0
C1336 C 0.7622 0.90634 0.50837 0.0
N1337 N 0.77186 0.90938 0.52623 0.0
C1338 C 0.75165 0.92854 0.53917 0.0
C1339 C 0.76677 0.9202 0.54152 0.0
C1340 C 0.74136 0.92563 0.52092 0.0
C1341 C 0.74693 0.91436 0.50538 0.0
H1342 H 0.76616 0.89734 0.49645 0.0
H1343 H 0.77424 0.92225 0.55566 0.0
C1344 C 0.81913 0.86021 0.58237 0.0
N1345 N 0.80374 0.8611 0.57127 0.0
C1346 C 0.81794 0.85231 0.59944 0.0
C1347 C 0.78507 0.84621 0.59344 0.0
C1348 C 0.78688 0.8541 0.57643 0.0
C1349 C 0.80073 0.84529 0.60544 0.0
H1350 H 0.83242 0.8658 0.57806 0.0
H1351 H 0.77477 0.85502 0.56754 0.0
C1352 C 0.80743 0.9072 0.49414 0.0
N1353 N 0.80527 0.92896 0.46508 0.0
C1354 C 0.80832 0.89887 0.47513 0.0
C1355 C 0.80559 0.92661 0.49843 0.0
C1356 C 0.8072 0.91011 0.46063 0.0
C1357 C 0.80445 0.93736 0.48351 0.0
C1358 C 0.83487 0.85639 0.52733 0.0
C1359 C 0.85212 0.86128 0.52116 0.0
C1360 C 0.827 0.83681 0.52856 0.0
C1361 C 0.8611 0.84631 0.51593 0.0
C1362 C 0.83642 0.82227 0.52319 0.0
N1363 N 0.85312 0.82728 0.51701 0.0
C1364 C 0.8635 0.92379 0.5468 0.0
C1365 C 0.85714 0.92003 0.513 0.0
C1366 C 0.88134 0.93509 0.54638 0.0
N1367 N 0.85171 0.91647 0.53026 0.0
C1368 C 0.87483 0.93133 0.51194 0.0
C1369 C 0.88742 0.93916 0.52877 0.0
H1370 H 0.85916 0.92068 0.5604 0.0
H1371 H 0.84777 0.91398 0.49992 0.0
C1372 C 0.78342 0.84665 0.47639 0.0
N1373 N 0.8 0.85093 0.48745 0.0
C1374 C 0.78127 0.83713 0.45715 0.0
C1375 C 0.81314 0.83617 0.46112 0.0
C1376 C 0.81467 0.84571 0.48017 0.0
C1377 C 0.7964 0.83212 0.44912 0.0
H1378 H 0.77205 0.85151 0.48219 0.0
H1379 H 0.82792 0.85003 0.48865 0.0
O1380 O 0.81169 0.90358 0.55243 0.0
O1381 O 0.78365 0.86737 0.52854 0.0
O1382 O 0.80806 0.89626 0.50843 0.0
O1383 O 0.82566 0.87072 0.53187 0.0
H1384 H 0.79376 0.8968 0.58208 0.0
H1385 H 0.82318 0.9421 0.55436 0.0
H1386 H 0.78908 0.92287 0.60758 0.0
H1387 H 0.8179 0.96746 0.58034 0.0
H1388 H 0.75443 0.80264 0.509 0.0
H1389 H 0.7496 0.87161 0.52693 0.0
H1390 H 0.78282 0.82932 0.51864 0.0
H1391 H 0.72181 0.84422 0.51713 0.0
H1392 H 0.74817 0.93729 0.5516 0.0
H1393 H 0.73935 0.91135 0.49109 0.0
H1394 H 0.83048 0.85166 0.60777 0.0
H1395 H 0.77146 0.84136 0.59732 0.0
H1396 H 0.80991 0.88393 0.47157 0.0
H1397 H 0.80488 0.93323 0.5131 0.0
H1398 H 0.80786 0.90385 0.44585 0.0
H1399 H 0.80289 0.95237 0.48657 0.0
H1400 H 0.85834 0.87641 0.52015 0.0
H1401 H 0.81374 0.83289 0.53351 0.0
H1402 H 0.87438 0.84981 0.51095 0.0
H1403 H 0.83046 0.807 0.52392 0.0
H1404 H 0.89035 0.94025 0.55982 0.0
H1405 H 0.87844 0.93406 0.49797 0.0
H1406 H 0.76805 0.83426 0.44854 0.0
H1407 H 0.82534 0.83316 0.45557 0.0
Li1408 Li 0.94286 0.06556 0.27938 0.0
Li1409 Li 0.91433 0.04033 0.25821 0.0
Li1410 Li 0.94106 0.06315 0.24018 0.0
Li1411 Li 0.91749 0.08185 0.2606 0.0
C1412 C 0.95424 0.0314 0.25877 0.0
N1413 N 0.98033 0.00981 0.26261 0.0
C1414 C 0.94931 0.01234 0.26296 0.0
C1415 C 0.97236 0.03943 0.2563 0.0
C1416 C 0.96273 1.00168 0.2649 0.0
C1417 C 0.98538 0.02828 0.25835 0.0
C1418 C 0.90704 0.06234 0.29685 0.0
C1419 C 0.88405 0.07072 0.3159 0.0
N1420 N 0.89031 0.0617 0.32993 0.0
C1421 C 0.9132 0.05307 0.31137 0.0
C1422 C 0.89237 0.07124 0.29908 0.0
C1423 C 0.90459 0.05296 0.32803 0.0
C1424 C 0.9602 0.08072 0.32174 0.0
N1425 N 0.95869 0.06621 0.306 0.0
C1426 C 0.97529 0.04906 0.32632 0.0
C1427 C 0.96626 0.05062 0.30835 0.0
C1428 C 0.97681 0.06354 0.34293 0.0
C1429 C 0.96908 0.07968 0.3401 0.0
H1430 H 0.95414 0.09307 0.3203 0.0
H1431 H 0.96496 0.03878 0.29643 0.0
C1432 C 0.89022 0.99826 0.24187 0.0
N1433 N 0.89851 0.01113 0.25839 0.0
C1434 C 0.88083 0.97835 0.24216 0.0
C1435 C 0.88835 0.98444 0.27638 0.0
C1436 C 0.89758 1.00422 0.27547 0.0
C1437 C 0.87961 0.97071 0.25959 0.0
H1438 H 0.89105 1.00324 0.22817 0.0
H1439 H 0.90426 0.01398 0.28866 0.0
C1440 C 0.96047 0.1037 0.26709 0.0
N1441 N 0.98973 0.13622 0.27725 0.0
C1442 C 0.95781 0.12268 0.26688 0.0
C1443 C 0.97798 0.10124 0.27255 0.0
C1444 C 0.97279 0.13894 0.27203 0.0
C1445 C 0.99261 0.11788 0.27762 0.0
C1446 C 0.90021 0.05737 0.22161 0.0
C1447 C 0.90607 0.06515 0.20562 0.0
C1448 C 0.88169 0.04875 0.22167 0.0
C1449 C 0.89322 0.06409 0.18978 0.0
C1450 C 0.86925 0.04804 0.20557 0.0
N1451 N 0.87523 0.05564 0.19009 0.0
C1452 C 0.95897 0.04461 0.20639 0.0
C1453 C 0.96009 0.07796 0.20566 0.0
C1454 C 0.96765 0.04293 0.18923 0.0
N1455 N 0.95511 0.06194 0.21459 0.0
C1456 C 0.96869 0.07685 0.18838 0.0
C1457 C 0.97273 0.0591 0.17944 0.0
H1458 H 0.95518 0.0317 0.21304 0.0
H1459 H 0.9573 0.09186 0.21179 0.0
C1460 C 0.90483 0.12003 0.27843 0.0
N1461 N 0.90335 0.10645 0.26184 0.0
C1462 C 0.89597 0.13621 0.27946 0.0
C1463 C 0.88377 0.1251 0.24645 0.0
C1464 C 0.89286 0.10914 0.246 0.0
C1465 C 0.88495 0.1394 0.26336 0.0
H1466 H 0.91299 0.11847 0.29123 0.0
H1467 H 0.89144 0.09888 0.23262 0.0
O1468 O 0.94148 0.04234 0.25752 0.0
O1469 O 0.91553 0.0631 0.28065 0.0
O1470 O 0.9459 0.08767 0.26234 0.0
O1471 O 0.9126 0.0581 0.23712 0.0
H1472 H 0.93533 1.00598 0.26496 0.0
H1473 H 0.97634 0.05413 0.25294 0.0
H1474 H 0.95916 0.98697 0.26831 0.0
H1475 H 0.99949 0.03432 0.2566 0.0
H1476 H 0.87265 0.07751 0.31783 0.0
H1477 H 0.92447 0.04601 0.3098 0.0
H1478 H 0.88746 0.07845 0.28791 0.0
H1479 H 0.90925 0.04591 0.33944 0.0
H1480 H 0.98051 0.03605 0.3272 0.0
H1481 H 0.96983 0.09155 0.35201 0.0
H1482 H 0.87489 0.96893 0.22853 0.0
H1483 H 0.88803 0.9801 0.29038 0.0
H1484 H 0.9443 0.12481 0.26278 0.0
H1485 H 0.98021 0.08666 0.27302 0.0
H1486 H 0.97094 0.15371 0.27191 0.0
H1487 H 1.00624 0.11622 0.2819 0.0
H1488 H 0.92037 0.07192 0.20544 0.0
H1489 H 0.877 0.04268 0.23401 0.0
H1490 H 0.89755 0.06999 0.17725 0.0
H1491 H 0.85485 0.04143 0.20538 0.0
H1492 H 0.96996 0.02868 0.1835 0.0
H1493 H 0.97228 0.09011 0.18221 0.0
H1494 H 0.8977 0.14605 0.29314 0.0
H1495 H 0.87601 0.1262 0.23323 0.0
Li1496 Li 0.28299 0.66379 0.54454 0.0
Li1497 Li 0.29841 0.64231 0.52257 0.0
Li1498 Li 0.28331 0.66609 0.51172 0.0
Li1499 Li 0.26553 0.63609 0.51922 0.0
C1500 C 0.31702 0.68685 0.52673 0.0
N1501 N 0.34169 0.71827 0.5176 0.0
C1502 C 0.33296 0.68396 0.51932 0.0
C1503 C 0.3137 0.70574 0.52973 0.0
C1504 C 0.34526 0.70003 0.51478 0.0
C1505 C 0.32629 0.72142 0.52489 0.0
C1506 C 0.27684 0.62076 0.5525 0.0
C1507 C 0.26746 0.58631 0.55471 0.0
N1508 N 0.26529 0.59147 0.57353 0.0
C1509 C 0.27455 0.62574 0.57184 0.0
C1510 C 0.27345 0.60092 0.54385 0.0
C1511 C 0.26874 0.61071 0.58226 0.0
C1512 C 0.26715 0.67862 0.57553 0.0
N1513 N 0.28325 0.6783 0.56847 0.0
C1514 C 0.30005 0.7021 0.59503 0.0
C1515 C 0.29953 0.68961 0.57771 0.0
C1516 C 0.28362 0.70297 0.60255 0.0
C1517 C 0.26699 0.69112 0.59268 0.0
H1518 H 0.25446 0.66942 0.56761 0.0
H1519 H 0.31201 0.68909 0.57145 0.0
C1520 C 0.32353 0.62962 0.50205 0.0
N1521 N 0.31723 0.63009 0.51943 0.0
C1522 C 0.33735 0.62011 0.49812 0.0
C1523 C 0.33793 0.6119 0.5302 0.0
C1524 C 0.32391 0.62144 0.53343 0.0
C1525 C 0.34481 0.61126 0.51236 0.0
H1526 H 0.31774 0.63667 0.49127 0.0
H1527 H 0.31838 0.62205 0.54703 0.0
C1528 C 0.24803 0.67183 0.52312 0.0
N1529 N 0.21894 0.68933 0.51851 0.0
C1530 C 0.23266 0.66228 0.50981 0.0
C1531 C 0.24861 0.69025 0.5341 0.0
C1532 C 0.21807 0.67137 0.50772 0.0
C1533 C 0.2338 0.69889 0.53151 0.0
C1534 C 0.27783 0.62515 0.48278 0.0
C1535 C 0.27021 0.6294 0.4656 0.0
C1536 C 0.28048 0.6062 0.48331 0.0
C1537 C 0.26543 0.61462 0.44922 0.0
C1538 C 0.27546 0.59182 0.46662 0.0
N1539 N 0.2681 0.59629 0.45008 0.0
C1540 C 0.29342 0.67783 0.47898 0.0
C1541 C 0.27542 0.69738 0.4949 0.0
C1542 C 0.29102 0.68569 0.46241 0.0
N1543 N 0.28466 0.68288 0.49418 0.0
C1544 C 0.27281 0.70582 0.47873 0.0
C1545 C 0.27979 0.69906 0.46195 0.0
H1546 H 0.30096 0.66645 0.47917 0.0
H1547 H 0.26932 0.70165 0.50755 0.0
C1548 C 0.23512 0.61156 0.52886 0.0
N1549 N 0.24413 0.61574 0.51369 0.0
C1550 C 0.21931 0.59648 0.52606 0.0
C1551 C 0.22241 0.59026 0.4921 0.0
C1552 C 0.23787 0.60571 0.49551 0.0
C1553 C 0.2127 0.58579 0.50741 0.0
H1554 H 0.24 0.62028 0.54305 0.0
H1555 H 0.24426 0.60995 0.48343 0.0
O1556 O 0.30509 0.67138 0.53172 0.0
O1557 O 0.28259 0.63535 0.54223 0.0
O1558 O 0.262 0.66271 0.52617 0.0
O1559 O 0.28189 0.63922 0.49914 0.0
H1560 H 0.33594 0.66954 0.51734 0.0
H1561 H 0.30148 0.70822 0.53564 0.0
H1562 H 0.35769 0.69801 0.50909 0.0
H1563 H 0.32385 0.73612 0.52698 0.0
H1564 H 0.26456 0.57087 0.54818 0.0
H1565 H 0.27735 0.64104 0.57879 0.0
H1566 H 0.27517 0.59688 0.52887 0.0
H1567 H 0.26698 0.61435 0.59727 0.0
H1568 H 0.31308 0.71119 0.60235 0.0
H1569 H 0.25413 0.69139 0.59828 0.0
H1570 H 0.34206 0.6196 0.48408 0.0
H1571 H 0.34349 0.60538 0.54159 0.0
H1572 H 0.23193 0.64795 0.50131 0.0
H1573 H 0.26047 0.69791 0.54435 0.0
H1574 H 0.20604 0.66412 0.49756 0.0
H1575 H 0.23411 0.71319 0.53985 0.0
H1576 H 0.26746 0.64373 0.46502 0.0
H1577 H 0.28603 0.60254 0.49655 0.0
H1578 H 0.25939 0.61767 0.4359 0.0
H1579 H 0.27731 0.57706 0.46685 0.0
H1580 H 0.29666 0.68018 0.44973 0.0
H1581 H 0.26458 0.71665 0.47899 0.0
H1582 H 0.21181 0.59404 0.53817 0.0
H1583 H 0.21757 0.58259 0.47746 0.0
Li1584 Li 0.41417 0.54047 0.7584 0.0
Li1585 Li 0.44299 0.56538 0.77957 0.0
Li1586 Li 0.41773 0.582 0.76096 0.0
Li1587 Li 0.44099 0.56302 0.74041 0.0
C1588 C 0.40645 0.56147 0.79669 0.0
N1589 N 0.38848 0.55978 0.82893 0.0
C1590 C 0.41348 0.55411 0.81224 0.0
C1591 C 0.39007 0.56755 0.79734 0.0
C1592 C 0.40425 0.55346 0.82846 0.0
C1593 C 0.38124 0.5667 0.81382 0.0
C1594 C 0.45388 0.53101 0.75875 0.0
C1595 C 0.48489 0.52753 0.7582 0.0
N1596 N 0.47963 0.50894 0.76211 0.0
C1597 C 0.44871 0.51182 0.76256 0.0
C1598 C 0.47205 0.53892 0.75639 0.0
C1599 C 0.46196 0.50091 0.76428 0.0
C1600 C 0.39564 0.49652 0.74281 0.0
N1601 N 0.39809 0.51135 0.75844 0.0
C1602 C 0.38181 0.4868 0.77587 0.0
C1603 C 0.39123 0.50647 0.77482 0.0
C1604 C 0.37907 0.471 0.76002 0.0
C1605 C 0.38635 0.47662 0.74329 0.0
H1606 H 0.40124 0.4999 0.72983 0.0
H1607 H 0.39319 0.51782 0.78744 0.0
C1608 C 0.46321 0.58144 0.82095 0.0
N1609 N 0.45895 0.56576 0.80594 0.0
C1610 C 0.47211 0.58016 0.83924 0.0
C1611 C 0.47263 0.54681 0.8268 0.0
C1612 C 0.46375 0.54869 0.80889 0.0
C1613 C 0.47686 0.5625 0.84274 0.0
H1614 H 0.45927 0.59497 0.81905 0.0
H1615 H 0.46023 0.53601 0.79752 0.0
C1616 C 0.4005 0.55764 0.72169 0.0
N1617 N 0.37615 0.55571 0.68958 0.0
C1618 C 0.40675 0.56527 0.70576 0.0
C1619 C 0.38192 0.54907 0.72138 0.0
C1620 C 0.39422 0.5641 0.68962 0.0
C1621 C 0.3698 0.54827 0.70499 0.0
C1622 C 0.46074 0.60352 0.76703 0.0
C1623 C 0.45807 0.62248 0.76669 0.0
C1624 C 0.47828 0.60107 0.77232 0.0
C1625 C 0.47309 0.63873 0.77155 0.0
C1626 C 0.49295 0.61771 0.7771 0.0
N1627 N 0.49006 0.63603 0.77661 0.0
C1628 C 0.39734 0.61415 0.7786 0.0
C1629 C 0.40214 0.61631 0.74674 0.0
C1630 C 0.38835 0.63019 0.77958 0.0
N1631 N 0.40403 0.60693 0.76223 0.0
C1632 C 0.39355 0.63268 0.74728 0.0
C1633 C 0.38613 0.64015 0.76382 0.0
H1634 H 0.39901 0.60764 0.79131 0.0
H1635 H 0.40737 0.61122 0.73364 0.0
C1636 C 0.45027 0.54482 0.70094 0.0
N1637 N 0.45486 0.56164 0.71474 0.0
C1638 C 0.45861 0.54322 0.68355 0.0
C1639 C 0.47708 0.57593 0.69432 0.0
C1640 C 0.46818 0.57708 0.71139 0.0
C1641 C 0.47238 0.55885 0.67971 0.0
H1642 H 0.43992 0.53237 0.70324 0.0
H1643 H 0.47205 0.59056 0.72197 0.0
O1644 O 0.41573 0.56317 0.78108 0.0
O1645 O 0.44126 0.54213 0.75765 0.0
O1646 O 0.4126 0.55836 0.73745 0.0
O1647 O 0.44613 0.58751 0.76258 0.0
H1648 H 0.42585 0.54883 0.81179 0.0
H1649 H 0.38426 0.57288 0.78523 0.0
H1650 H 0.40961 0.54792 0.84065 0.0
H1651 H 0.36864 0.57154 0.81459 0.0
H1652 H 0.49905 0.53348 0.75653 0.0
H1653 H 0.43469 0.50555 0.7645 0.0
H1654 H 0.47619 0.55371 0.75328 0.0
H1655 H 0.45822 0.4861 0.76741 0.0
H1656 H 0.37665 0.48422 0.78924 0.0
H1657 H 0.38532 0.4657 0.7305 0.0
H1658 H 0.4747 0.59284 0.85071 0.0
H1659 H 0.47606 0.5329 0.82803 0.0
H1660 H 0.42113 0.57197 0.70586 0.0
H1661 H 0.37694 0.54311 0.73366 0.0
H1662 H 0.39885 0.56987 0.67714 0.0
H1663 H 0.35535 0.54169 0.70451 0.0
H1664 H 0.44454 0.6246 0.76272 0.0
H1665 H 0.48052 0.58652 0.77288 0.0
H1666 H 0.47123 0.65349 0.77133 0.0
H1667 H 0.50661 0.61606 0.78125 0.0
H1668 H 0.38346 0.63499 0.79299 0.0
H1669 H 0.3925 0.63921 0.73446 0.0
H1670 H 0.45439 0.52958 0.6732 0.0
H1671 H 0.48746 0.58858 0.69245 0.0
Li1672 Li 0.65132 0.04696 0.76397 0.0
Li1673 Li 0.67812 0.06975 0.75771 0.0
Li1674 Li 0.65548 0.04917 0.73142 0.0
Li1675 Li 0.67599 0.03486 0.75052 0.0
C1676 C 0.64213 0.08286 0.74853 0.0
N1677 N 0.62029 0.10922 0.74531 0.0
C1678 C 0.64989 0.1032 0.75234 0.0
C1679 C 0.62328 0.07593 0.74302 0.0
C1680 C 0.63862 0.11628 0.75069 0.0
C1681 C 0.61247 0.08949 0.74142 0.0
C1682 C 0.69069 0.05658 0.79018 0.0
C1683 C 0.72309 0.06492 0.80115 0.0
N1684 N 0.7195 0.06946 0.81958 0.0
C1685 C 0.6873 0.06117 0.80922 0.0
C1686 C 0.70869 0.05831 0.78609 0.0
C1687 C 0.70206 0.0677 0.82388 0.0
C1688 C 0.62796 0.03111 0.79085 0.0
N1689 N 0.63577 0.04655 0.78257 0.0
C1690 C 0.62641 0.0695 0.80522 0.0
C1691 C 0.63542 0.06541 0.78964 0.0
C1692 C 0.61829 0.05411 0.81425 0.0
C1693 C 0.61904 0.03463 0.80704 0.0
H1694 H 0.62942 0.0164 0.78555 0.0
H1695 H 0.64318 0.07755 0.78405 0.0
C1696 C 0.70373 0.10347 0.75605 0.0
N1697 N 0.69278 0.09409 0.76757 0.0
C1698 C 0.71547 0.12158 0.76349 0.0
C1699 C 0.70372 0.12042 0.79424 0.0
C1700 C 0.69206 0.10227 0.7861 0.0
C1701 C 0.71566 0.12988 0.78282 0.0
H1702 H 0.70327 0.09689 0.74115 0.0
H1703 H 0.68247 0.09467 0.79448 0.0
C1704 C 0.63475 0.01035 0.74471 0.0
N1705 N 0.60517 0.98108 0.74907 0.0
C1706 C 0.63741 0.99236 0.74892 0.0
C1707 C 0.61706 0.01338 0.74247 0.0
C1708 C 0.62227 0.97774 0.75106 0.0
C1709 C 0.60228 0.99846 0.74489 0.0
C1710 C 0.69542 0.05584 0.72123 0.0
C1711 C 0.68994 0.05126 0.70135 0.0
C1712 C 0.71405 0.06255 0.72821 0.0
C1713 C 0.70318 0.05364 0.68877 0.0
C1714 C 0.72688 0.0647 0.71516 0.0
N1715 N 0.72122 0.06028 0.69587 0.0
C1716 C 0.64314 0.06519 0.70108 0.0
C1717 C 0.63342 0.03029 0.69828 0.0
C1718 C 0.63277 0.06453 0.68367 0.0
N1719 N 0.64309 0.04822 0.70791 0.0
C1720 C 0.62292 0.02891 0.68082 0.0
C1721 C 0.62253 0.04619 0.67344 0.0
H1722 H 0.65112 0.07917 0.70924 0.0
H1723 H 0.63377 0.01714 0.70428 0.0
C1724 C 0.68749 1.00844 0.76834 0.0
N1725 N 0.68912 0.01621 0.75203 0.0
C1726 C 0.6973 0.99478 0.77224 0.0
C1727 C 0.7101 0.99724 0.7422 0.0
C1728 C 0.70004 0.01103 0.73894 0.0
C1729 C 0.70872 0.98904 0.75906 0.0
H1730 H 0.67861 0.01304 0.77838 0.0
H1731 H 0.70096 0.01759 0.7261 0.0
O1732 O 0.65282 0.06995 0.75148 0.0
O1733 O 0.67639 0.05081 0.77563 0.0
O1734 O 0.64937 0.02461 0.74209 0.0
O1735 O 0.68251 0.05471 0.73369 0.0
H1736 H 0.66441 0.10888 0.75681 0.0
H1737 H 0.61703 0.06028 0.74019 0.0
H1738 H 0.64443 0.13206 0.75378 0.0
H1739 H 0.59784 0.08433 0.73721 0.0
H1740 H 0.73711 0.06645 0.7982 0.0
H1741 H 0.67341 0.05992 0.81257 0.0
H1742 H 0.7115 0.05465 0.77146 0.0
H1743 H 0.69966 0.07143 0.83868 0.0
H1744 H 0.62699 0.08482 0.81098 0.0
H1745 H 0.61339 0.02255 0.8142 0.0
H1746 H 0.72442 0.12905 0.75434 0.0
H1747 H 0.70349 0.12689 0.80908 0.0
H1748 H 0.65099 0.98964 0.7503 0.0
H1749 H 0.61477 0.02709 0.73894 0.0
H1750 H 0.62411 0.96371 0.75426 0.0
H1751 H 0.58852 1.00066 0.74336 0.0
H1752 H 0.6756 0.0461 0.69566 0.0
H1753 H 0.71857 0.06643 0.74352 0.0
H1754 H 0.6991 0.05029 0.67335 0.0
H1755 H 0.74133 0.07002 0.72036 0.0
H1756 H 0.63285 0.0781 0.67821 0.0
H1757 H 0.61499 0.01457 0.67333 0.0
H1758 H 0.69614 0.98897 0.78551 0.0
H1759 H 0.71869 0.99294 0.73166 0.0
Li1760 Li 0.78921 0.70854 0.0199 0.0
Li1761 Li 0.80158 0.6813 1.00383 0.0
Li1762 Li 0.78784 0.70393 0.98409 0.0
Li1763 Li 0.76633 0.67788 1.00061 0.0
C1764 C 0.82468 0.7257 0.0101 0.0
N1765 N 0.85458 0.75712 0.02295 0.0
C1766 C 0.84059 0.72273 0.01972 0.0
C1767 C 0.82409 0.74459 0.00674 0.0
C1768 C 0.85554 0.73881 0.02615 0.0
C1769 C 0.83931 0.76032 0.01346 0.0
C1770 C 0.78632 0.66979 0.03753 0.0
C1771 C 0.78168 0.63814 0.04766 0.0
N1772 N 0.78983 0.64725 0.06567 0.0
C1773 C 0.79462 0.67887 0.05613 0.0
C1774 C 0.77977 0.6493 0.03322 0.0
C1775 C 0.79629 0.6672 0.07015 0.0
C1776 C 0.77589 0.72698 0.05184 0.0
N1777 N 0.79167 0.72631 0.04415 0.0
C1778 C 0.80941 0.74496 0.07358 0.0
C1779 C 0.80828 0.73525 0.05457 0.0
C1780 C 0.7933 0.74541 0.08204 0.0
C1781 C 0.77638 0.73661 0.07071 0.0
H1782 H 0.76287 0.71913 0.04366 0.0
H1783 H 0.8207 0.73402 0.04861 0.0
C1784 C 0.82769 0.65934 0.99055 0.0
N1785 N 0.82147 0.66776 0.00644 0.0
C1786 C 0.84272 0.65073 0.99239 0.0
C1787 C 0.8451 0.66001 0.0269 0.0
C1788 C 0.82993 0.66824 0.02439 0.0
C1789 C 0.8518 0.65102 0.01078 0.0
H1790 H 0.82113 0.65949 0.97637 0.0
H1791 H 0.82529 0.6756 0.03685 0.0
C1792 C 0.75834 0.72088 1.0042 0.0
N1793 N 0.73949 0.7498 0.01293 0.0
C1794 C 0.73959 0.71562 1.00551 0.0
C1795 C 0.76753 0.7408 0.0073 0.0
C1796 C 0.73028 0.73048 0.0099 0.0
C1797 C 0.75776 0.75522 0.01176 0.0
C1798 C 0.78049 0.65921 0.96463 0.0
C1799 C 0.77657 0.66288 0.94604 0.0
C1800 C 0.78244 0.6405 0.96727 0.0
C1801 C 0.77487 0.64775 0.9303 0.0
C1802 C 0.78068 0.62576 0.95114 0.0
N1803 N 0.77698 0.62967 0.93315 0.0
C1804 C 0.80432 0.71459 0.95114 0.0
C1805 C 0.77756 0.72617 0.9552 0.0
C1806 C 0.80628 0.72256 0.93423 0.0
N1807 N 0.79004 0.71632 0.96119 0.0
C1808 C 0.77909 0.73456 0.93845 0.0
C1809 C 0.79354 0.73272 0.92747 0.0
H1810 H 0.81409 0.70668 0.9561 0.0
H1811 H 0.76631 0.72748 0.96339 0.0
C1812 C 0.73541 0.66009 0.01823 0.0
N1813 N 0.74155 0.66066 1.00074 0.0
C1814 C 0.71783 0.64895 0.0198 0.0
C1815 C 0.71282 0.63903 0.98532 0.0
C1816 C 0.73056 0.65037 0.9844 0.0
C1817 C 0.70605 0.63811 1.00323 0.0
H1818 H 0.74414 0.66851 0.03109 0.0
H1819 H 0.7355 0.65099 0.97056 0.0
O1820 O 0.80991 0.7101 1.00371 0.0
O1821 O 0.78435 0.68096 0.02369 0.0
O1822 O 0.7676 0.70652 0.99993 0.0
O1823 O 0.78293 0.67406 0.98011 0.0
H1824 H 0.84138 0.7082 0.0223 0.0
H1825 H 0.81205 0.74709 0.99897 0.0
H1826 H 0.8679 0.73673 0.0337 0.0
H1827 H 0.839 0.77505 0.01106 0.0
H1828 H 0.77667 0.62225 0.04456 0.0
H1829 H 0.79978 0.69471 0.05969 0.0
H1830 H 0.77327 0.64212 0.01887 0.0
H1831 H 0.80271 0.67401 0.0846 0.0
H1832 H 0.82277 0.75155 0.08173 0.0
H1833 H 0.7636 0.73616 0.07668 0.0
H1834 H 0.84707 0.64384 0.97945 0.0
H1835 H 0.85176 0.66117 0.04136 0.0
H1836 H 0.73232 0.70023 1.00312 0.0
H1837 H 0.78206 0.74505 0.00644 0.0
H1838 H 0.71575 0.72664 0.0109 0.0
H1839 H 0.7647 0.77071 0.0143 0.0
H1840 H 0.77491 0.67726 0.94379 0.0
H1841 H 0.78551 0.6375 0.98161 0.0
H1842 H 0.77191 0.65039 0.91581 0.0
H1843 H 0.78231 0.61124 0.95292 0.0
H1844 H 0.8175 0.7203 0.92635 0.0
H1845 H 0.76905 0.7425 0.93428 0.0
H1846 H 0.71343 0.64921 0.03396 0.0
H1847 H 0.70458 0.63088 0.97206 0.0
Li1848 Li 0.91368 0.51001 0.77935 0.0
Li1849 Li 0.93875 0.53221 0.80155 0.0
Li1850 Li 0.91647 0.54505 0.78184 0.0
Li1851 Li 0.93907 0.52976 0.76767 0.0
C1852 C 0.89874 0.52389 0.81349 0.0
N1853 N 0.87147 0.51153 0.83552 0.0
C1854 C 0.90311 0.51824 0.83109 0.0
C1855 C 0.88058 0.52368 0.80729 0.0
C1856 C 0.88911 0.51195 0.84198 0.0
C1857 C 0.86696 0.51724 0.81857 0.0
C1858 C 0.94996 0.49613 0.78131 0.0
C1859 C 0.97964 0.48939 0.77836 0.0
N1860 N 0.97213 0.46979 0.77732 0.0
C1861 C 0.94253 0.47594 0.78019 0.0
C1862 C 0.96866 0.50298 0.78046 0.0
C1863 C 0.95397 0.46285 0.77822 0.0
C1864 C 0.89299 0.47578 0.75594 0.0
N1865 N 0.89761 0.48548 0.77444 0.0
C1866 C 0.87549 0.46174 0.7855 0.0
C1867 C 0.89007 0.47813 0.78925 0.0
C1868 C 0.86891 0.45289 0.76632 0.0
C1869 C 0.87828 0.45942 0.75142 0.0
H1870 H 0.90021 0.4812 0.74461 0.0
H1871 H 0.8951 0.48516 0.80391 0.0
C1872 C 0.95934 0.55258 0.83576 0.0
N1873 N 0.95244 0.53459 0.82457 0.0
C1874 C 0.96955 0.55399 0.85345 0.0
C1875 C 0.96519 0.51833 0.84739 0.0
C1876 C 0.95501 0.51762 0.82993 0.0
C1877 C 0.97249 0.53668 0.85933 0.0
H1878 H 0.95678 0.56569 0.83094 0.0
H1879 H 0.94899 0.50356 0.82071 0.0
C1880 C 0.89927 0.51875 0.74366 0.0
N1881 N 0.87118 0.50308 0.71378 0.0
C1882 C 0.90315 0.51523 0.72467 0.0
C1883 C 0.88107 0.51471 0.74739 0.0
C1884 C 0.88878 0.50722 0.70978 0.0
C1885 C 0.86707 0.50666 0.7321 0.0
C1886 C 0.95851 0.56805 0.78455 0.0
C1887 C 0.95617 0.58437 0.77648 0.0
C1888 C 0.97613 0.56605 0.79021 0.0
C1889 C 0.97162 0.59843 0.77401 0.0
C1890 C 0.99123 0.58039 0.78743 0.0
N1891 N 0.98868 0.59615 0.77946 0.0
C1892 C 0.89748 0.57334 0.79505 0.0
C1893 C 0.90016 0.56699 0.76157 0.0
C1894 C 0.88694 0.58679 0.79207 0.0
N1895 N 0.90365 0.56382 0.77979 0.0
C1896 C 0.8895 0.57995 0.75789 0.0
C1897 C 0.88276 0.58989 0.77324 0.0
H1898 H 0.90062 0.57034 0.80935 0.0
H1899 H 0.90566 0.5594 0.74989 0.0
C1900 C 0.94703 0.50832 0.73794 0.0
N1901 N 0.95213 0.5273 0.74738 0.0
C1902 C 0.95384 0.50294 0.72103 0.0
C1903 C 0.97122 0.53684 0.72391 0.0
C1904 C 0.96385 0.54165 0.74081 0.0
C1905 C 0.96595 0.51733 0.71399 0.0
H1906 H 0.93716 0.49751 0.74331 0.0
H1907 H 0.96719 0.55673 0.74831 0.0
O1908 O 0.91223 0.52962 0.80247 0.0
O1909 O 0.93883 0.50902 0.78308 0.0
O1910 O 0.91331 0.52552 0.7585 0.0
O1911 O 0.94355 0.5544 0.78735 0.0
H1912 H 0.91713 0.51845 0.83615 0.0
H1913 H 0.87702 0.52843 0.79394 0.0
H1914 H 0.89227 0.50735 0.85554 0.0
H1915 H 0.85281 0.51682 0.81387 0.0
H1916 H 0.99412 0.49443 0.77755 0.0
H1917 H 0.92809 0.47043 0.78092 0.0
H1918 H 0.97458 0.51856 0.78121 0.0
H1919 H 0.94841 0.44719 0.7774 0.0
H1920 H 0.86922 0.45628 0.79742 0.0
H1921 H 0.87389 0.45249 0.7365 0.0
H1922 H 0.97487 0.56834 0.86252 0.0
H1923 H 0.96739 0.50473 0.85149 0.0
H1924 H 0.9171 0.51859 0.72141 0.0
H1925 H 0.87781 0.51725 0.76196 0.0
H1926 H 0.89162 0.50427 0.69505 0.0
H1927 H 0.85293 0.50315 0.73483 0.0
H1928 H 0.94257 0.58615 0.7722 0.0
H1929 H 0.9781 0.55357 0.79666 0.0
H1930 H 0.97004 0.61115 0.76778 0.0
H1931 H 1.00497 0.57903 0.79163 0.0
H1932 H 0.8819 0.5944 0.80416 0.0
H1933 H 0.88674 0.58236 0.74326 0.0
H1934 H 0.94967 0.48778 0.71346 0.0
H1935 H 0.98059 0.54813 0.71848 0.0
Li1936 Li 0.80921 0.41332 0.52181 0.0
Li1937 Li 0.79188 0.43514 0.5089 0.0
Li1938 Li 0.80919 0.41518 0.48823 0.0
Li1939 Li 0.82389 0.44346 0.51288 0.0
C1940 C 0.77486 0.39023 0.50451 0.0
N1941 N 0.74837 0.35841 0.51011 0.0
C1942 C 0.75991 0.39332 0.51383 0.0
C1943 C 0.7763 0.37099 0.49789 0.0
C1944 C 0.74666 0.37703 0.51653 0.0
C1945 C 0.76279 0.35508 0.50094 0.0
C1946 C 0.81627 0.4544 0.54851 0.0
C1947 C 0.82718 0.48892 0.56256 0.0
N1948 N 0.83417 0.4838 0.57893 0.0
C1949 C 0.82327 0.44951 0.56562 0.0
C1950 C 0.81787 0.47427 0.54712 0.0
C1951 C 0.83234 0.46457 0.58079 0.0
C1952 C 0.82979 0.40223 0.54805 0.0
N1953 N 0.81204 0.39774 0.54007 0.0
C1954 C 0.80345 0.37562 0.56172 0.0
C1955 C 0.7988 0.38477 0.54651 0.0
C1956 C 0.82179 0.38012 0.57011 0.0
C1957 C 0.83503 0.39349 0.56305 0.0
H1958 H 0.83978 0.41341 0.54337 0.0
H1959 H 0.78467 0.382 0.54037 0.0
C1960 C 0.76333 0.45116 0.49587 0.0
N1961 N 0.77219 0.44605 0.51114 0.0
C1962 C 0.74923 0.4607 0.49868 0.0
C1963 C 0.75391 0.45931 0.53276 0.0
C1964 C 0.76795 0.44999 0.52933 0.0
C1965 C 0.74443 0.46467 0.51731 0.0
H1966 H 0.76734 0.44797 0.48166 0.0
H1967 H 0.7755 0.44588 0.54114 0.0
C1968 C 0.84196 0.40596 0.50551 0.0
N1969 N 0.86618 0.38171 0.50442 0.0
C1970 C 0.86071 0.41398 0.50602 0.0
C1971 C 0.83548 0.38558 0.50415 0.0
C1972 C 0.87274 0.40148 0.50548 0.0
C1973 C 0.84797 0.37358 0.50373 0.0
C1974 C 0.81505 0.45538 0.47751 0.0
C1975 C 0.82947 0.45138 0.46776 0.0
C1976 C 0.80829 0.47189 0.47502 0.0
C1977 C 0.83682 0.46394 0.45547 0.0
C1978 C 0.81611 0.48418 0.46274 0.0
N1979 N 0.83006 0.47995 0.45326 0.0
C1980 C 0.79279 0.39043 0.45429 0.0
C1981 C 0.82528 0.39714 0.45792 0.0
C1982 C 0.79171 0.37749 0.43708 0.0
N1983 N 0.80938 0.39982 0.4643 0.0
C1984 C 0.82484 0.38435 0.44074 0.0
C1985 C 0.80787 0.37426 0.43021 0.0
H1986 H 0.78042 0.39283 0.45985 0.0
H1987 H 0.83829 0.40475 0.46623 0.0
C1988 C 0.85709 0.45952 0.53284 0.0
N1989 N 0.8445 0.46384 0.52031 0.0
C1990 C 0.87453 0.47167 0.53707 0.0
C1991 C 0.865 0.49355 0.517 0.0
C1992 C 0.84763 0.48102 0.51334 0.0
C1993 C 0.87881 0.48819 0.52809 0.0
H1994 H 0.85388 0.44593 0.53847 0.0
H1995 H 0.83705 0.48452 0.50421 0.0
O1996 O 0.78766 0.40596 0.50126 0.0
O1997 O 0.80767 0.43981 0.53334 0.0
O1998 O 0.83021 0.41823 0.50736 0.0
O1999 O 0.80738 0.44318 0.48934 0.0
H2000 H 0.75851 0.40811 0.51889 0.0
H2001 H 0.7877 0.36839 0.49047 0.0
H2002 H 0.73501 0.37919 0.52372 0.0
H2003 H 0.76374 0.3401 0.49597 0.0
H2004 H 0.82885 0.50435 0.56154 0.0
H2005 H 0.82156 0.43428 0.56731 0.0
H2006 H 0.81232 0.47831 0.53407 0.0
H2007 H 0.83789 0.46095 0.59406 0.0
H2008 H 0.79288 0.36555 0.56713 0.0
H2009 H 0.84917 0.39795 0.56968 0.0
H2010 H 0.74204 0.46472 0.48651 0.0
H2011 H 0.75058 0.46245 0.54732 0.0
H2012 H 0.86595 0.42971 0.50689 0.0
H2013 H 0.82102 0.37917 0.50384 0.0
H2014 H 0.8873 0.40751 0.50599 0.0
H2015 H 0.8432 0.3578 0.50295 0.0
H2016 H 0.83503 0.43885 0.46978 0.0
H2017 H 0.79724 0.47526 0.48265 0.0
H2018 H 0.84795 0.461 0.44775 0.0
H2019 H 0.81108 0.49707 0.46075 0.0
H2020 H 0.77837 0.37017 0.42918 0.0
H2021 H 0.83757 0.38211 0.43591 0.0
H2022 H 0.88494 0.46707 0.54562 0.0
H2023 H 0.86798 0.5064 0.5101 0.0
Li2024 Li 0.65046 0.51425 0.29138 0.0
Li2025 Li 0.67762 0.53692 0.27408 0.0
Li2026 Li 0.64952 0.5116 0.25259 0.0
Li2027 Li 0.67418 0.49517 0.27064 0.0
C2028 C 0.63754 0.54538 0.27129 0.0
N2029 N 0.61142 0.56647 0.26514 0.0
C2030 C 0.64277 0.56587 0.27274 0.0
C2031 C 0.61906 0.53557 0.26673 0.0
C2032 C 0.62934 0.57629 0.26962 0.0
C2033 C 0.60606 0.5465 0.26362 0.0
C2034 C 0.69186 0.52271 0.31036 0.0
C2035 C 0.72186 0.52263 0.32513 0.0
N2036 N 0.71768 0.53055 0.34245 0.0
C2037 C 0.68786 0.53091 0.32824 0.0
C2038 C 0.70897 0.51857 0.30871 0.0
C2039 C 0.7011 0.53475 0.34431 0.0
C2040 C 0.62679 0.49902 0.32265 0.0
N2041 N 0.63635 0.51562 0.31683 0.0
C2042 C 0.62849 0.53514 0.34532 0.0
C2043 C 0.63696 0.53352 0.32802 0.0
C2044 C 0.61865 0.5183 0.35185 0.0
C2045 C 0.61793 0.50003 0.33975 0.0
H2046 H 0.62602 0.48469 0.31412 0.0
H2047 H 0.64426 0.54687 0.32371 0.0
C2048 C 0.695 0.57226 0.25652 0.0
N2049 N 0.69329 0.56612 0.2739 0.0
C2050 C 0.70435 0.59186 0.25519 0.0
C2051 C 0.70973 0.59959 0.2896 0.0
C2052 C 0.7006 0.57968 0.29032 0.0
C2053 C 0.7119 0.60619 0.27184 0.0
H2054 H 0.6889 0.56199 0.24341 0.0
H2055 H 0.69919 0.57526 0.3042 0.0
C2056 C 0.63131 0.47399 0.26147 0.0
N2057 N 0.60232 0.44253 0.24555 0.0
C2058 C 0.6344 0.45749 0.24977 0.0
C2059 C 0.6135 0.4745 0.26511 0.0
C2060 C 0.61956 0.44171 0.24189 0.0
C2061 C 0.59901 0.45847 0.25686 0.0
C2062 C 0.68431 0.51289 0.23462 0.0
C2063 C 0.67487 0.4991 0.21862 0.0
C2064 C 0.70147 0.52478 0.2334 0.0
C2065 C 0.68268 0.49767 0.20145 0.0
C2066 C 0.70886 0.52283 0.21601 0.0
N2067 N 0.69937 0.50946 0.20051 0.0
C2068 C 0.63482 0.53013 0.22126 0.0
C2069 C 0.62441 0.49559 0.21344 0.0
C2070 C 0.62582 0.53235 0.2035 0.0
N2071 N 0.63412 0.51197 0.22623 0.0
C2072 C 0.61538 0.49716 0.19533 0.0
C2073 C 0.61589 0.5158 0.18985 0.0
H2074 H 0.6427 0.54319 0.231 0.0
H2075 H 0.6238 0.48109 0.21703 0.0
C2076 C 0.69526 0.46514 0.28577 0.0
N2077 N 0.68828 0.47057 0.26931 0.0
C2078 C 0.70438 0.44921 0.28529 0.0
C2079 C 0.69892 0.44337 0.25101 0.0
C2080 C 0.69022 0.45968 0.25207 0.0
C2081 C 0.70646 0.43763 0.26775 0.0
H2082 H 0.69383 0.47316 0.29962 0.0
H2083 H 0.68492 0.46347 0.23878 0.0
O2084 O 0.65049 0.53492 0.274 0.0
O2085 O 0.67888 0.51825 0.29462 0.0
O2086 O 0.64572 0.48938 0.26962 0.0
O2087 O 0.67681 0.51481 0.25144 0.0
H2088 H 0.65704 0.57364 0.27624 0.0
H2089 H 0.61486 0.51968 0.26538 0.0
H2090 H 0.63317 0.59218 0.27073 0.0
H2091 H 0.59171 0.53912 0.25996 0.0
H2092 H 0.73517 0.51945 0.32413 0.0
H2093 H 0.67467 0.53419 0.3297 0.0
H2094 H 0.71221 0.51216 0.29493 0.0
H2095 H 0.69818 0.54102 0.35828 0.0
H2096 H 0.62954 0.54975 0.3534 0.0
H2097 H 0.61084 0.48633 0.3436 0.0
H2098 H 0.70533 0.59587 0.24108 0.0
H2099 H 0.71525 0.60972 0.30297 0.0
H2100 H 0.64813 0.45686 0.2469 0.0
H2101 H 0.61092 0.48707 0.27431 0.0
H2102 H 0.62174 0.4288 0.23287 0.0
H2103 H 0.58515 0.45866 0.25953 0.0
H2104 H 0.66168 0.48962 0.21946 0.0
H2105 H 0.709 0.53537 0.24577 0.0
H2106 H 0.67549 0.48716 0.18888 0.0
H2107 H 0.72213 0.53194 0.21483 0.0
H2108 H 0.62714 0.54711 0.20036 0.0
H2109 H 0.60793 0.48375 0.18577 0.0
H2110 H 0.70956 0.44577 0.29882 0.0
H2111 H 0.69999 0.43547 0.23695 0.0
Ho2112 Ho 0.02744 0.02927 1.00378 0.0
Ho2113 Ho 0.06393 0.04833 0.02733 0.0
C2114 C 0.04242 0.07671 0.00904 0.0
C2115 C 0.9928 0.01798 0.99228 0.0
C2116 C 0.97763 0.02746 0.99502 0.0
C2117 C 0.97803 0.04113 0.01178 0.0
C2118 C 0.96426 0.0514 0.01335 0.0
C2119 C 0.9501 0.04829 0.99809 0.0
C2120 C 0.9499 0.03476 0.98128 0.0
C2121 C 0.9636 0.02442 0.97978 0.0
C2122 C 0.05338 0.02773 0.9781 0.0
C2123 C 0.04904 1.00083 0.02194 0.0
C2124 C 0.09855 0.05998 0.03887 0.0
C2125 C 0.11373 0.05045 0.03702 0.0
C2126 C 0.11175 0.03309 0.02354 0.0
C2127 C 0.12584 0.02319 0.02303 0.0
C2128 C 0.14195 0.03055 0.03606 0.0
C2129 C 0.14367 0.04774 0.04973 0.0
C2130 C 0.12962 0.05762 0.05019 0.0
C2131 C 0.03829 0.04983 0.05327 0.0
O2132 O 0.02793 0.06165 1.00591 0.0
O2133 O 0.05863 0.07491 0.01605 0.0
O2134 O 1.00468 0.02669 0.98216 0.0
O2135 O 1.00049 0.01287 0.00744 0.0
O2136 O 0.03593 0.02058 0.97416 0.0
O2137 O 0.05629 0.03492 0.99622 0.0
O2138 O 0.06345 0.01598 0.02532 0.0
O2139 O 0.03281 1.00258 0.01485 0.0
O2140 O 0.08662 0.05196 0.0493 0.0
O2141 O 0.09095 0.06399 0.02306 0.0
O2142 O 0.05575 0.05697 0.05688 0.0
O2143 O 0.03498 0.04257 0.03511 0.0
H2144 H 0.9891 0.04407 0.02347 0.0
H2145 H 0.9648 0.06196 0.02636 0.0
H2146 H 0.93905 0.032 0.96938 0.0
H2147 H 0.96337 0.01423 0.96659 0.0
H2148 H 0.09932 0.02716 0.01353 0.0
H2149 H 0.12426 0.01003 0.01229 0.0
H2150 H 0.15585 0.05347 0.06012 0.0
H2151 H 0.13106 0.07072 0.06098 0.0
Ho2152 Ho 0.30203 0.78867 0.24641 0.0
Ho2153 Ho 0.28483 0.79074 0.28581 0.0
C2154 C 0.2983 0.82986 0.26986 0.0
C2155 C 0.30921 0.78968 0.21213 0.0
C2156 C 0.32299 0.80439 0.20545 0.0
C2157 C 0.32095 0.82381 0.2061 0.0
C2158 C 0.33286 0.837 0.19771 0.0
C2159 C 0.34698 0.83097 0.18855 0.0
C2160 C 0.35062 0.81261 0.19053 0.0
C2161 C 0.33848 0.79924 0.19865 0.0
C2162 C 0.32938 0.79403 0.27693 0.0
C2163 C 0.28997 0.74984 0.2628 0.0
C2164 C 0.27633 0.79006 0.31963 0.0
C2165 C 0.26214 0.7754 0.32564 0.0
C2166 C 0.25989 0.75517 0.31842 0.0
C2167 C 0.24991 0.74118 0.32771 0.0
C2168 C 0.24248 0.74755 0.34426 0.0
C2169 C 0.24126 0.7673 0.34857 0.0
C2170 C 0.25155 0.78137 0.33955 0.0
C2171 C 0.25773 0.7846 0.2549 0.0
O2172 O 0.29919 0.81937 0.25306 0.0
O2173 O 0.29662 0.82247 0.28579 0.0
O2174 O 0.31563 0.77838 0.2227 0.0
O2175 O 0.29545 0.79594 0.21868 0.0
O2176 O 0.33174 0.79358 0.25902 0.0
O2177 O 0.31246 0.79326 0.27745 0.0
O2178 O 0.28873 0.76019 0.27959 0.0
O2179 O 0.29083 0.7571 0.24677 0.0
O2180 O 0.27039 0.80128 0.30867 0.0
O2181 O 0.29029 0.78358 0.31384 0.0
O2182 O 0.25498 0.78494 0.27266 0.0
O2183 O 0.27471 0.78603 0.2549 0.0
H2184 H 0.30955 0.82854 0.21201 0.0
H2185 H 0.32964 0.85106 0.19656 0.0
H2186 H 0.36169 0.80782 0.18396 0.0
H2187 H 0.34069 0.78457 0.19872 0.0
H2188 H 0.26731 0.75022 0.30697 0.0
H2189 H 0.25082 0.72594 0.32408 0.0
H2190 H 0.23535 0.77232 0.36125 0.0
H2191 H 0.25259 0.79691 0.34469 0.0
Ho2192 Ho 0.56804 0.03985 0.51549 0.0
Ho2193 Ho 0.52619 0.03825 0.51651 0.0
C2194 C 0.53783 0.99761 0.51097 0.0
C2195 C 0.60123 0.03521 0.52044 0.0
C2196 C 0.61192 0.01982 0.51713 0.0
C2197 C 0.61584 0.00947 0.53186 0.0
C2198 C 0.62787 0.99694 0.52982 0.0
C2199 C 0.63641 0.99442 0.51302 0.0
C2200 C 0.63202 1.00429 0.49802 0.0
C2201 C 0.61999 0.01686 0.50006 0.0
C2202 C 0.54839 0.0388 0.48192 0.0
C2203 C 0.55606 0.08043 0.52013 0.0
C2204 C 0.49291 0.04276 0.51324 0.0
C2205 C 0.48214 0.05812 0.51538 0.0
C2206 C 0.47541 0.06457 0.49894 0.0
C2207 C 0.46284 0.07648 0.5001 0.0
C2208 C 0.45669 0.08232 0.51773 0.0
C2209 C 0.46405 0.07676 0.53441 0.0
C2210 C 0.47656 0.06465 0.53324 0.0
C2211 C 0.54617 0.03874 0.54963 0.0
O2212 O 0.55499 1.0079 0.51649 0.0
O2213 O 0.52426 1.00608 0.50697 0.0
O2214 O 0.59438 0.04103 0.50529 0.0
O2215 O 0.59019 0.03405 0.53375 0.0
O2216 O 0.56548 0.04807 0.48611 0.0
O2217 O 0.54312 0.0295 0.49491 0.0
O2218 O 0.53897 0.06996 0.51469 0.0
O2219 O 0.56971 0.07209 0.5243 0.0
O2220 O 0.50112 0.03912 0.5289 0.0
O2221 O 0.50267 0.04201 0.49885 0.0
O2222 O 0.52947 0.02835 0.54504 0.0
O2223 O 0.55112 0.04874 0.53705 0.0
H2224 H 0.61009 0.01156 0.54529 0.0
H2225 H 0.63105 0.98986 0.54182 0.0
H2226 H 0.63808 1.00253 0.48475 0.0
H2227 H 0.61742 0.02467 0.48844 0.0
H2228 H 0.47929 0.05975 0.48496 0.0
H2229 H 0.45749 0.08069 0.48704 0.0
H2230 H 0.45945 0.08096 0.54816 0.0
H2231 H 0.48129 0.05981 0.54618 0.0
Ho2232 Ho 0.27561 0.29338 0.76561 0.0
Ho2233 Ho 0.31602 0.28414 0.76568 0.0
C2234 C 0.30155 0.29758 0.8061 0.0
C2235 C 0.24114 0.28925 0.76967 0.0
C2236 C 0.22864 0.29311 0.78422 0.0
C2237 C 0.2251 0.28111 0.7983 0.0
C2238 C 0.21129 0.28287 0.81001 0.0
C2239 C 0.20057 0.29663 0.80794 0.0
C2240 C 0.20463 0.30916 0.79438 0.0
C2241 C 0.21843 0.30738 0.78265 0.0
C2242 C 0.30301 0.32774 0.76627 0.0
C2243 C 0.28994 0.27984 0.72519 0.0
C2244 C 0.3505 0.28934 0.76151 0.0
C2245 C 0.36297 0.28477 0.74716 0.0
C2246 C 0.36563 0.29526 0.7318 0.0
C2247 C 0.37945 0.29315 0.72019 0.0
C2248 C 0.39106 0.28059 0.72367 0.0
C2249 C 0.38785 0.26945 0.73847 0.0
C2250 C 0.37402 0.27153 0.75007 0.0
C2251 C 0.28937 0.24928 0.76495 0.0
O2252 O 0.2852 0.29685 0.79708 0.0
O2253 O 0.3158 0.2946 0.79734 0.0
O2254 O 0.25079 0.3043 0.76337 0.0
O2255 O 0.25027 0.27579 0.77181 0.0
O2256 O 0.28549 0.32669 0.76491 0.0
O2257 O 0.30418 0.31006 0.76706 0.0
O2258 O 0.30623 0.28035 0.7342 0.0
O2259 O 0.27577 0.28305 0.73395 0.0
O2260 O 0.34167 0.27496 0.76936 0.0
O2261 O 0.34057 0.30179 0.75799 0.0
O2262 O 0.30693 0.25096 0.76517 0.0
O2263 O 0.28728 0.2669 0.76495 0.0
H2264 H 0.23253 0.2698 0.79985 0.0
H2265 H 0.20851 0.27281 0.8201 0.0
H2266 H 0.19691 0.32017 0.79256 0.0
H2267 H 0.2207 0.31678 0.7719 0.0
H2268 H 0.35752 0.30573 0.72915 0.0
H2269 H 0.38158 0.30211 0.70907 0.0
H2270 H 0.39632 0.2594 0.74139 0.0
H2271 H 0.3724 0.26329 0.76179 0.0
Ho2272 Ho 0.04385 0.06081 0.52493 0.0
Ho2273 Ho 0.05047 0.01892 0.50673 0.0
C2274 C 0.03352 0.04435 0.47751 0.0
C2275 C 0.04706 0.09821 0.53314 0.0
C2276 C 0.04706 0.11287 0.52055 0.0
C2277 C 0.05613 0.11199 0.50411 0.0
C2278 C 0.05565 0.12566 0.49193 0.0
C2279 C 0.04551 0.14002 0.49562 0.0
C2280 C 0.03557 0.1401 0.51152 0.0
C2281 C 0.0365 0.12674 0.52399 0.0
C2282 C 0.01362 0.03116 0.52613 0.0
C2283 C 0.06012 0.03526 0.55419 0.0
C2284 C 0.04763 0.98167 0.49785 0.0
C2285 C 0.04489 0.9663 0.50977 0.0
C2286 C 0.03197 0.96568 0.52291 0.0
C2287 C 0.0304 0.95182 0.53508 0.0
C2288 C 0.04205 0.93884 0.5346 0.0
C2289 C 0.05539 0.93986 0.52203 0.0
C2290 C 0.05673 0.95349 0.50956 0.0
C2291 C 0.08085 0.04876 0.50651 0.0
O2292 O 0.03584 0.0591 0.49249 0.0
O2293 O 0.03762 0.0272 0.47953 0.0
O2294 O 0.03142 0.08533 0.53168 0.0
O2295 O 0.06121 0.09022 0.5338 0.0
O2296 O 0.01558 0.04968 0.5332 0.0
O2297 O 0.0285 0.02971 0.51965 0.0
O2298 O 0.05636 0.02001 0.53949 0.0
O2299 O 0.0577 0.05298 0.55176 0.0
O2300 O 0.06337 0.99453 0.50252 0.0
O2301 O 0.03387 0.9898 0.49441 0.0
O2302 O 0.07959 0.03023 0.50018 0.0
O2303 O 0.06554 0.0498 0.51199 0.0
H2304 H 0.06355 0.10076 0.50065 0.0
H2305 H 0.06358 0.12519 0.47992 0.0
H2306 H 0.02717 0.15057 0.51444 0.0
H2307 H 0.02884 0.12711 0.53622 0.0
H2308 H 0.02321 0.97595 0.52393 0.0
H2309 H 0.02011 0.9512 0.54487 0.0
H2310 H 0.06443 0.92984 0.52155 0.0
H2311 H 0.06712 0.95419 0.49989 0.0
Ho2312 Ho 0.3136 0.80457 0.76642 0.0
Ho2313 Ho 0.2799 0.77378 0.7669 0.0
C2314 C 0.31715 0.75751 0.76796 0.0
C2315 C 0.34569 0.82745 0.77586 0.0
C2316 C 0.3639 0.82319 0.77775 0.0
C2317 C 0.37118 0.81931 0.79534 0.0
C2318 C 0.38743 0.81313 0.79669 0.0
C2319 C 0.39678 0.81101 0.78056 0.0
C2320 C 0.38992 0.81549 0.76315 0.0
C2321 C 0.37355 0.82152 0.76172 0.0
C2322 C 0.29658 0.78635 0.73161 0.0
C2323 C 0.27624 0.82051 0.76461 0.0
C2324 C 0.24784 0.75071 0.75915 0.0
C2325 C 0.23008 0.75514 0.75475 0.0
C2326 C 0.22734 0.76614 0.74022 0.0
C2327 C 0.2108 0.77135 0.73692 0.0
C2328 C 0.19683 0.76578 0.74817 0.0
C2329 C 0.19965 0.75516 0.76295 0.0
C2330 C 0.2162 0.74981 0.76618 0.0
C2331 C 0.29697 0.79256 0.80162 0.0
O2332 O 0.3256 0.77669 0.76921 0.0
O2333 O 0.29893 0.75249 0.76615 0.0
O2334 O 0.33697 0.82393 0.75835 0.0
O2335 O 0.33511 0.82136 0.78851 0.0
O2336 O 0.30458 0.80506 0.73538 0.0
O2337 O 0.29903 0.77841 0.74604 0.0
O2338 O 0.26787 0.80115 0.76181 0.0
O2339 O 0.29444 0.82573 0.76825 0.0
O2340 O 0.25577 0.75767 0.7768 0.0
O2341 O 0.2591 0.75337 0.74623 0.0
O2342 O 0.28983 0.77367 0.79783 0.0
O2343 O 0.2942 0.80016 0.78707 0.0
H2344 H 0.36417 0.82068 0.80801 0.0
H2345 H 0.39278 0.81015 0.81038 0.0
H2346 H 0.39709 0.81404 0.7506 0.0
H2347 H 0.3683 0.82449 0.748 0.0
H2348 H 0.23799 0.77087 0.73147 0.0
H2349 H 0.20891 0.77975 0.72559 0.0
H2350 H 0.18893 0.75064 0.77169 0.0
H2351 H 0.21824 0.74163 0.77766 0.0
Ho2352 Ho 0.55035 0.03721 0.03612 0.0
Ho2353 Ho 0.54305 0.04133 0.99195 0.0
C2354 C 0.51093 0.01943 0.01135 0.0
C2355 C 0.55344 0.03732 0.07208 0.0
C2356 C 0.54044 0.02441 0.0816 0.0
C2357 C 0.52344 0.0286 0.08455 0.0
C2358 C 0.51044 0.01549 0.09187 0.0
C2359 C 0.51411 0.99787 0.09643 0.0
C2360 C 0.53072 0.99321 0.0926 0.0
C2361 C 0.54384 1.00644 0.08539 0.0
C2362 C 0.5527 1.00714 0.00938 0.0
C2363 C 0.58134 0.06442 0.01718 0.0
C2364 C 0.54934 0.03972 0.95737 0.0
C2365 C 0.56309 0.05475 0.95103 0.0
C2366 C 0.57855 0.04963 0.94421 0.0
C2367 C 0.59202 0.06384 0.93871 0.0
C2368 C 0.59005 0.08336 0.93963 0.0
C2369 C 0.57556 0.08891 0.94831 0.0
C2370 C 0.56215 0.0747 0.954 0.0
C2371 C 0.53323 0.07005 0.01533 0.0
O2372 O 0.52022 0.02781 0.02843 0.0
O2373 O 0.51794 0.01925 0.99491 0.0
O2374 O 0.56286 0.02815 0.0607 0.0
O2375 O 0.5472 0.0509 0.06457 0.0
O2376 O 0.54585 1.00463 0.02524 0.0
O2377 O 0.55813 0.02517 0.00896 0.0
O2378 O 0.56968 0.06261 1.00162 0.0
O2379 O 0.57709 0.05634 0.03237 0.0
O2380 O 0.53487 0.04525 0.96307 0.0
O2381 O 0.55622 0.0294 0.96875 0.0
O2382 O 0.53138 0.06851 0.9967 0.0
O2383 O 0.54023 0.05654 0.01967 0.0
H2384 H 0.52017 0.04209 0.08137 0.0
H2385 H 0.49796 0.01983 0.09504 0.0
H2386 H 0.53388 0.97972 0.09595 0.0
H2387 H 0.55666 1.0026 0.08279 0.0
H2388 H 0.57996 0.03451 0.94265 0.0
H2389 H 0.60299 0.05903 0.93195 0.0
H2390 H 0.57379 0.10386 0.94914 0.0
H2391 H 0.55082 0.0793 0.96018 0.0
Ho2392 Ho 0.30432 0.31236 0.27274 0.0
Ho2393 Ho 0.28682 0.26498 0.25829 0.0
C2394 C 0.2605 0.29333 0.26971 0.0
C2395 C 0.31255 0.34985 0.27457 0.0
C2396 C 0.30086 0.36372 0.27744 0.0
C2397 C 0.28314 0.35928 0.2673 0.0
C2398 C 0.27211 0.37258 0.27007 0.0
C2399 C 0.27858 0.39038 0.28316 0.0
C2400 C 0.29589 0.39428 0.29405 0.0
C2401 C 0.307 0.38103 0.29115 0.0
C2402 C 0.30183 0.29216 0.303 0.0
C2403 C 0.33043 0.28382 0.26047 0.0
C2404 C 0.27818 0.22762 0.25678 0.0
C2405 C 0.29002 0.21382 0.25468 0.0
C2406 C 0.30654 0.2174 0.26695 0.0
C2407 C 0.31823 0.20485 0.26414 0.0
C2408 C 0.31376 0.18875 0.24881 0.0
C2409 C 0.29761 0.18566 0.23609 0.0
C2410 C 0.28575 0.19808 0.23909 0.0
C2411 C 0.28895 0.2851 0.22801 0.0
O2412 O 0.27396 0.30931 0.27079 0.0
O2413 O 0.26248 0.27502 0.26646 0.0
O2414 O 0.31591 0.34157 0.28939 0.0
O2415 O 0.30856 0.33736 0.25829 0.0
O2416 O 0.30807 0.31107 0.30469 0.0
O2417 O 0.29764 0.28556 0.28515 0.0
O2418 O 0.31693 0.26789 0.25929 0.0
O2419 O 0.32889 0.30229 0.2645 0.0
O2420 O 0.27566 0.23579 0.24168 0.0
O2421 O 0.28131 0.24018 0.27304 0.0
O2422 O 0.28197 0.26633 0.22647 0.0
O2423 O 0.29373 0.29173 0.24581 0.0
H2424 H 0.2779 0.34573 0.25695 0.0
H2425 H 0.25889 0.3693 0.26134 0.0
H2426 H 0.30101 0.40781 0.30445 0.0
H2427 H 0.32044 0.38436 0.29944 0.0
H2428 H 0.31044 0.22982 0.27878 0.0
H2429 H 0.33046 0.20742 0.27437 0.0
H2430 H 0.29402 0.17351 0.224 0.0
H2431 H 0.27332 0.1955 0.22916 0.0
Ho2432 Ho 0.54244 0.56065 0.02534 0.0
Ho2433 Ho 0.54939 0.51862 0.00728 0.0
C2434 C 0.53305 0.54417 0.97787 0.0
C2435 C 0.5454 0.598 0.03398 0.0
C2436 C 0.54774 0.61326 0.0219 0.0
C2437 C 0.55962 0.6131 0.00777 0.0
C2438 C 0.56092 0.62679 0.99544 0.0
C2439 C 0.55017 0.64072 0.99691 0.0
C2440 C 0.53783 0.64051 0.01062 0.0
C2441 C 0.53666 0.62686 0.02309 0.0
C2442 C 0.51221 0.53067 0.02563 0.0
C2443 C 0.55911 0.53507 0.05472 0.0
C2444 C 0.54595 0.48124 0.99843 0.0
C2445 C 0.54553 0.46636 0.01075 0.0
C2446 C 0.53866 0.46875 0.02853 0.0
C2447 C 0.53883 0.45478 0.04045 0.0
C2448 C 0.54626 0.43848 0.03493 0.0
C2449 C 0.55396 0.43673 0.01757 0.0
C2450 C 0.55351 0.45055 1.00552 0.0
C2451 C 0.5795 0.54874 0.00692 0.0
O2452 O 0.53603 0.55926 0.99266 0.0
O2453 O 0.53624 0.52671 0.9802 0.0
O2454 O 0.52963 0.58513 0.02984 0.0
O2455 O 0.55925 0.58986 0.03694 0.0
O2456 O 0.51358 0.5492 0.03219 0.0
O2457 O 0.52751 0.5296 0.02006 0.0
O2458 O 0.55656 0.52016 0.03984 0.0
O2459 O 0.55544 0.55239 0.05252 0.0
O2460 O 0.5617 0.49403 1.00034 0.0
O2461 O 0.53191 0.48937 0.99777 0.0
O2462 O 0.57854 0.53019 1.0009 0.0
O2463 O 0.56413 0.54962 0.01236 0.0
H2464 H 0.56779 0.60233 1.00621 0.0
H2465 H 0.57033 0.62651 0.98474 0.0
H2466 H 0.52943 0.65117 0.01198 0.0
H2467 H 0.52705 0.62681 0.03358 0.0
H2468 H 0.53311 0.48135 0.03317 0.0
H2469 H 0.53271 0.45649 0.05369 0.0
H2470 H 0.56019 0.42458 0.01321 0.0
H2471 H 0.55944 0.44893 0.99216 0.0
Ho2472 Ho 0.81347 0.30459 0.26743 0.0
Ho2473 Ho 0.77664 0.27189 0.26221 0.0
C2474 C 0.81526 0.25667 0.26694 0.0
C2475 C 0.84574 0.32648 0.2782 0.0
C2476 C 0.86351 0.32121 0.27939 0.0
C2477 C 0.86922 0.3125 0.29472 0.0
C2478 C 0.8854 0.30614 0.29494 0.0
C2479 C 0.89611 0.30837 0.27984 0.0
C2480 C 0.89036 0.31693 0.26447 0.0
C2481 C 0.87425 0.32343 0.26431 0.0
C2482 C 0.79843 0.2875 0.2314 0.0
C2483 C 0.77543 0.32009 0.2649 0.0
C2484 C 0.74688 0.24864 0.24495 0.0
C2485 C 0.72796 0.25047 0.24541 0.0
C2486 C 0.71815 0.25276 0.22846 0.0
C2487 C 0.70171 0.2585 0.22916 0.0
C2488 C 0.69474 0.26166 0.24675 0.0
C2489 C 0.704 0.25848 0.26358 0.0
C2490 C 0.72066 0.2531 0.26298 0.0
C2491 C 0.78537 0.29001 0.29933 0.0
O2492 O 0.82422 0.27591 0.2697 0.0
O2493 O 0.79691 0.25164 0.26337 0.0
O2494 O 0.83732 0.3242 0.26073 0.0
O2495 O 0.83476 0.32013 0.29041 0.0
O2496 O 0.80681 0.30606 0.23589 0.0
O2497 O 0.79933 0.27941 0.24589 0.0
O2498 O 0.76665 0.30088 0.25954 0.0
O2499 O 0.79352 0.32497 0.27033 0.0
O2500 O 0.75534 0.24551 0.26086 0.0
O2501 O 0.75693 0.26207 0.23685 0.0
O2502 O 0.77079 0.27586 0.29336 0.0
O2503 O 0.79381 0.29296 0.28524 0.0
H2504 H 0.86122 0.31054 0.30655 0.0
H2505 H 0.88978 0.3 0.30719 0.0
H2506 H 0.8984 0.31876 0.25265 0.0
H2507 H 0.8701 0.32999 0.25227 0.0
H2508 H 0.72364 0.25099 0.21484 0.0
H2509 H 0.6945 0.26066 0.216 0.0
H2510 H 0.69864 0.2608 0.27723 0.0
H2511 H 0.72808 0.25173 0.27634 0.0
Ho2512 Ho 0.0521 0.54171 0.53515 0.0
Ho2513 Ho 0.03983 0.53885 0.49311 0.0
C2514 C 0.01084 0.51765 0.51472 0.0
C2515 C 0.04986 0.54283 0.5707 0.0
C2516 C 0.03763 0.52716 0.57807 0.0
C2517 C 0.01933 0.52783 0.57968 0.0
C2518 C 1.00789 0.51301 0.58682 0.0
C2519 C 0.0148 0.49769 0.59282 0.0
C2520 C 0.0321 0.4955 0.58865 0.0
C2521 C 0.04357 0.51032 0.58159 0.0
C2522 C 0.06 0.5116 0.51285 0.0
C2523 C 0.08186 0.55962 0.51252 0.0
C2524 C 0.04118 0.54061 0.45776 0.0
C2525 C 0.05578 0.55453 0.45103 0.0
C2526 C 0.07101 0.54824 0.44484 0.0
C2527 C 0.08527 0.56152 0.43929 0.0
C2528 C 0.08436 0.58125 0.43946 0.0
C2529 C 0.06995 0.58798 0.4472 0.0
C2530 C 0.05572 0.57471 0.45288 0.0
C2531 C 0.03152 0.5681 0.51665 0.0
O2532 O 0.02202 0.5276 0.5302 0.0
O2533 O 0.01589 0.51637 0.49737 0.0
O2534 O 0.06354 0.53768 0.56285 0.0
O2535 O 0.04172 0.5534 0.56072 0.0
O2536 O 0.07006 0.52086 0.5287 0.0
O2537 O 0.04538 0.5172 0.51047 0.0
O2538 O 0.07023 0.54977 0.4974 0.0
O2539 O 0.07677 0.5625 0.52979 0.0
O2540 O 0.03002 0.54863 0.46759 0.0
O2541 O 0.04634 0.52661 0.46544 0.0
O2542 O 0.02063 0.55753 0.50182 0.0
O2543 O 0.04662 0.56328 0.51791 0.0
H2544 H 0.01408 0.54021 0.57628 0.0
H2545 H 0.99453 0.51495 0.59 0.0
H2546 H 0.0376 0.48376 0.5933 0.0
H2547 H 0.05736 0.50895 0.57975 0.0
H2548 H 0.07175 0.53294 0.4439 0.0
H2549 H 0.09612 0.55585 0.43314 0.0
H2550 H 0.06892 0.60309 0.44727 0.0
H2551 H 0.04447 0.58023 0.45822 0.0
Ho2552 Ho 0.77558 0.79329 0.2652 0.0
Ho2553 Ho 0.8155 0.7837 0.26619 0.0
C2554 C 0.80076 0.79758 0.30621 0.0
C2555 C 0.74096 0.78937 0.26858 0.0
C2556 C 0.72844 0.79231 0.28338 0.0
C2557 C 0.72248 0.77762 0.29438 0.0
C2558 C 0.70887 0.77917 0.30639 0.0
C2559 C 0.70072 0.79541 0.30771 0.0
C2560 C 0.70713 0.81043 0.29719 0.0
C2561 C 0.72074 0.80886 0.28515 0.0
C2562 C 0.80246 0.82769 0.26492 0.0
C2563 C 0.79035 0.77953 0.22517 0.0
C2564 C 0.85017 0.788 0.26303 0.0
C2565 C 0.86283 0.78561 0.24828 0.0
C2566 C 0.8714 0.80209 0.24066 0.0
C2567 C 0.88535 0.80096 0.22908 0.0
C2568 C 0.89108 0.78332 0.2247 0.0
C2569 C 0.882 0.76652 0.23148 0.0
C2570 C 0.8681 0.76769 0.24329 0.0
C2571 C 0.78885 0.74906 0.26599 0.0
O2572 O 0.7849 0.79792 0.29681 0.0
O2573 O 0.81477 0.79327 0.29784 0.0
O2574 O 0.75121 0.80502 0.26383 0.0
O2575 O 0.74955 0.77523 0.26929 0.0
O2576 O 0.7849 0.8262 0.26398 0.0
O2577 O 0.80427 0.81015 0.26583 0.0
O2578 O 0.80632 0.77955 0.2346 0.0
O2579 O 0.7762 0.78343 0.23356 0.0
O2580 O 0.83993 0.77212 0.26739 0.0
O2581 O 0.84153 0.80216 0.26261 0.0
O2582 O 0.8064 0.75071 0.26642 0.0
O2583 O 0.78673 0.76663 0.26564 0.0
H2584 H 0.72789 0.76453 0.29326 0.0
H2585 H 0.70421 0.76716 0.31401 0.0
H2586 H 0.70144 0.82331 0.29802 0.0
H2587 H 0.72488 0.8204 0.27681 0.0
H2588 H 0.86782 0.81616 0.24424 0.0
H2589 H 0.89206 0.8141 0.22395 0.0
H2590 H 0.88625 0.75277 0.22844 0.0
H2591 H 0.86196 0.75474 0.24904 0.0
Ho2592 Ho 0.80452 0.2821 0.74059 0.0
Ho2593 Ho 0.78867 0.28589 0.78124 0.0
C2594 C 0.80246 0.32427 0.76424 0.0
C2595 C 0.81031 0.28404 0.70606 0.0
C2596 C 0.82138 0.30111 0.69957 0.0
C2597 C 0.81336 0.31641 0.6954 0.0
C2598 C 0.82378 0.33289 0.6898 0.0
C2599 C 0.84241 0.3343 0.68803 0.0
C2600 C 0.85076 0.31971 0.6935 0.0
C2601 C 0.84029 0.30315 0.69916 0.0
C2602 C 0.83209 0.28751 0.77096 0.0
C2603 C 0.79074 0.24371 0.75727 0.0
C2604 C 0.78313 0.28485 0.81603 0.0
C2605 C 0.77057 0.26963 0.82354 0.0
C2606 C 0.77544 0.25194 0.82595 0.0
C2607 C 0.76427 0.23824 0.83449 0.0
C2608 C 0.74811 0.24207 0.84092 0.0
C2609 C 0.74219 0.25859 0.83648 0.0
C2610 C 0.75346 0.27241 0.82799 0.0
C2611 C 0.76092 0.28101 0.75136 0.0
O2612 O 0.80333 0.31351 0.74753 0.0
O2613 O 0.80046 0.31726 0.78033 0.0
O2614 O 0.81929 0.27481 0.71683 0.0
O2615 O 0.79517 0.28675 0.71249 0.0
O2616 O 0.83443 0.28609 0.75295 0.0
O2617 O 0.81527 0.28704 0.77129 0.0
O2618 O 0.78975 0.25449 0.77395 0.0
O2619 O 0.793 0.25059 0.74118 0.0
O2620 O 0.77549 0.29544 0.80559 0.0
O2621 O 0.79697 0.27939 0.80883 0.0
O2622 O 0.7588 0.28199 0.7694 0.0
O2623 O 0.77771 0.28133 0.75055 0.0
H2624 H 0.79889 0.3155 0.69599 0.0
H2625 H 0.81682 0.34369 0.68533 0.0
H2626 H 0.86509 0.3205 0.69217 0.0
H2627 H 0.84694 0.2918 0.70278 0.0
H2628 H 0.78832 0.24906 0.82216 0.0
H2629 H 0.76933 0.22573 0.83783 0.0
H2630 H 0.72969 0.26171 0.84118 0.0
H2631 H 0.74915 0.28567 0.82574 0.0
Ho2632 Ho 0.80502 0.81082 0.77573 0.0
Ho2633 Ho 0.78684 0.76725 0.75942 0.0
C2634 C 0.7606 0.79474 0.76944 0.0
C2635 C 0.8128 0.84845 0.78589 0.0
C2636 C 0.80145 0.86241 0.78385 0.0
C2637 C 0.7884 0.85918 0.76755 0.0
C2638 C 0.77707 0.87207 0.76602 0.0
C2639 C 0.77852 0.88816 0.78086 0.0
C2640 C 0.79106 0.89094 0.79749 0.0
C2641 C 0.80252 0.87809 0.79896 0.0
C2642 C 0.80549 0.78587 0.80121 0.0
C2643 C 0.8303 0.78458 0.75964 0.0
C2644 C 0.77918 0.72983 0.75797 0.0
C2645 C 0.79101 0.71617 0.75426 0.0
C2646 C 0.80875 0.72041 0.76434 0.0
C2647 C 0.81974 0.70714 0.76126 0.0
C2648 C 0.81329 0.68955 0.74788 0.0
C2649 C 0.79602 0.68591 0.73694 0.0
C2650 C 0.7849 0.69914 0.74018 0.0
C2651 C 0.78955 0.78698 0.72914 0.0
O2652 O 0.77498 0.8099 0.77194 0.0
O2653 O 0.76152 0.7762 0.76554 0.0
O2654 O 0.80748 0.83637 0.79766 0.0
O2655 O 0.81703 0.83966 0.76983 0.0
O2656 O 0.81913 0.80026 0.79996 0.0
O2657 O 0.7923 0.7854 0.78862 0.0
O2658 O 0.81685 0.76907 0.75977 0.0
O2659 O 0.82875 0.8029 0.76353 0.0
O2660 O 0.77454 0.73787 0.74339 0.0
O2661 O 0.78393 0.74245 0.77417 0.0
O2662 O 0.782 0.76837 0.7278 0.0
O2663 O 0.79475 0.79425 0.74679 0.0
H2664 H 0.78697 0.84672 0.75601 0.0
H2665 H 0.76724 0.86958 0.75322 0.0
H2666 H 0.79234 0.90334 0.80906 0.0
H2667 H 0.81221 0.88037 0.81183 0.0
H2668 H 0.81401 0.73372 0.775 0.0
H2669 H 0.8329 0.71023 0.77007 0.0
H2670 H 0.7909 0.67255 0.72632 0.0
H2671 H 0.77145 0.69594 0.73193 0.0
Ho2672 Ho 0.52748 0.52894 0.50462 0.0
Ho2673 Ho 0.56342 0.54844 0.52662 0.0
C2674 C 0.54147 0.57638 0.50829 0.0
C2675 C 0.49268 0.51707 0.49394 0.0
C2676 C 0.47752 0.52671 0.4954 0.0
C2677 C 0.47898 0.54361 0.50933 0.0
C2678 C 0.46493 0.55356 0.50947 0.0
C2679 C 0.44938 0.54683 0.49555 0.0
C2680 C 0.44825 0.53016 0.4814 0.0
C2681 C 0.46221 0.52014 0.48138 0.0
C2682 C 0.55188 0.52664 0.47751 0.0
C2683 C 0.54929 0.50105 0.52297 0.0
C2684 C 0.5982 0.56037 0.53727 0.0
C2685 C 0.61339 0.55076 0.53564 0.0
C2686 C 0.61264 0.5352 0.52043 0.0
C2687 C 0.62651 0.525 0.52014 0.0
C2688 C 0.64111 0.53008 0.53519 0.0
C2689 C 0.64155 0.54542 0.55055 0.0
C2690 C 0.6278 0.55572 0.55072 0.0
C2691 C 0.53907 0.55041 0.55382 0.0
O2692 O 0.52739 0.5609 0.50483 0.0
O2693 O 0.55766 0.57512 0.51589 0.0
O2694 O 0.50436 0.52426 0.48288 0.0
O2695 O 0.50061 0.51393 0.51 0.0
O2696 O 0.53455 0.5187 0.47505 0.0
O2697 O 0.55608 0.5346 0.49546 0.0
O2698 O 0.56357 0.51631 0.52591 0.0
O2699 O 0.53302 0.50255 0.51592 0.0
O2700 O 0.58656 0.55297 0.54828 0.0
O2701 O 0.59024 0.56375 0.52134 0.0
O2702 O 0.55644 0.55817 0.55634 0.0
O2703 O 0.53486 0.54257 0.53585 0.0
H2704 H 0.491 0.54914 0.51998 0.0
H2705 H 0.4661 0.5663 0.52062 0.0
H2706 H 0.43663 0.52491 0.47024 0.0
H2707 H 0.46119 0.50744 0.47023 0.0
H2708 H 0.60129 0.53084 0.50891 0.0
H2709 H 0.62591 0.51334 0.50804 0.0
H2710 H 0.65243 0.54935 0.56254 0.0
H2711 H 0.62822 0.56732 0.56283 0.0
Ho2712 Ho 0.06841 0.5404 0.01546 0.0
Ho2713 Ho 0.02614 0.53744 0.01617 0.0
C2714 C 0.039 0.49733 0.01009 0.0
C2715 C 0.10173 0.53622 0.02015 0.0
C2716 C 0.11244 0.52089 0.01653 0.0
C2717 C 0.11442 0.50837 0.02987 0.0
C2718 C 0.1264 0.49578 0.02769 0.0
C2719 C 0.13681 0.49538 0.01213 0.0
C2720 C 0.13429 0.50738 0.9984 0.0
C2721 C 0.12233 0.52001 1.00061 0.0
C2722 C 0.04875 0.54011 0.98232 0.0
C2723 C 0.05566 0.58029 0.02142 0.0
C2724 C 0.9928 0.54178 0.0119 0.0
C2725 C 0.982 0.55715 0.01481 0.0
C2726 C 0.97825 0.56745 0.99997 0.0
C2727 C 0.96608 0.57988 1.00172 0.0
C2728 C 0.95721 0.5823 0.0183 0.0
C2729 C 0.96146 0.57252 0.03342 0.0
C2730 C 0.97364 0.56009 0.03168 0.0
C2731 C 0.04609 0.53807 0.04942 0.0
O2732 O 0.05605 0.5081 0.01502 0.0
O2733 O 0.02482 0.50526 0.00716 0.0
O2734 O 0.09476 0.54215 1.00512 0.0
O2735 O 0.09077 0.53483 0.03352 0.0
O2736 O 0.06546 0.55046 0.98703 0.0
O2737 O 0.04367 0.52982 0.99466 0.0
O2738 O 0.0387 0.56963 0.01539 0.0
O2739 O 0.06942 0.57219 0.02571 0.0
O2740 O 1.00031 0.537 0.02733 0.0
O2741 O 1.00324 0.54206 0.99804 0.0
O2742 O 0.02923 0.52807 0.04506 0.0
O2743 O 0.05088 0.54801 0.03677 0.0
H2744 H 0.10716 0.50874 0.04241 0.0
H2745 H 0.12807 0.48698 0.03871 0.0
H2746 H 0.14179 0.50727 0.98604 0.0
H2747 H 0.12124 0.5295 0.99008 0.0
H2748 H 0.98424 0.56541 0.98669 0.0
H2749 H 0.96304 0.58695 0.98966 0.0
H2750 H 0.95515 0.57421 0.04654 0.0
H2751 H 0.97608 0.55233 0.04338 0.0
H2752 H 1.00763 0.18348 0.98719 0.0
H2753 H 0.04694 0.1754 0.94777 0.0
H2754 H 0.01298 0.15529 1.00109 0.0
H2755 H 0.05224 0.14725 0.96161 0.0
H2756 H 0.06897 0.10644 1.00038 0.0
H2757 H 0.06506 0.13659 0.98917 0.0
H2758 H 1.00717 0.12012 0.99383 0.0
H2759 H 0.01117 0.09017 1.00517 0.0
C2760 C 0.01732 0.17565 0.98136 0.0
C2761 C 0.02677 0.18184 0.96624 0.0
C2762 C 0.02042 0.15943 0.98937 0.0
C2763 C 0.03304 0.14882 0.98251 0.0
C2764 C 0.04264 0.15515 0.96755 0.0
C2765 C 0.03956 0.17138 0.95956 0.0
C2766 C 0.05545 0.10941 0.99925 0.0
C2767 C 0.04038 0.09586 1.0037 0.0
C2768 C 0.05316 0.12663 0.99262 0.0
C2769 C 0.03576 0.13091 0.99046 0.0
C2770 C 0.02081 0.11755 0.99544 0.0
C2771 C 0.02307 0.10025 1.00185 0.0
H2772 H 0.1859 0.82605 0.17219 0.0
H2773 H 0.1523 0.77299 0.18549 0.0
H2774 H 0.21228 0.82113 0.19213 0.0
H2775 H 0.17853 0.7677 0.20458 0.0
H2776 H 0.22134 0.77499 0.25588 0.0
H2777 H 0.19666 0.77974 0.23421 0.0
H2778 H 0.23544 0.80206 0.19687 0.0
H2779 H 0.2606 0.79768 0.21934 0.0
C2780 C 0.18405 0.81332 0.1793 0.0
C2781 C 0.1667 0.79996 0.17704 0.0
C2782 C 0.19934 0.81035 0.19061 0.0
C2783 C 0.19781 0.79401 0.20023 0.0
C2784 C 0.18048 0.78065 0.19778 0.0
C2785 C 0.1653 0.78357 0.18651 0.0
C2786 C 0.22473 0.78065 0.24291 0.0
C2787 C 0.2431 0.78558 0.23934 0.0
C2788 C 0.2104 0.78334 0.23031 0.0
C2789 C 0.21371 0.79112 0.21342 0.0
C2790 C 0.23216 0.79606 0.20968 0.0
C2791 C 0.24666 0.79327 0.22243 0.0
H2792 H 0.49831 0.87054 0.47284 0.0
H2793 H 0.5572 0.88137 0.48518 0.0
H2794 H 0.49988 0.9049 0.48539 0.0
H2795 H 0.55892 0.91617 0.49637 0.0
H2796 H 0.55676 0.9752 0.52856 0.0
H2797 H 0.55315 0.93961 0.52074 0.0
H2798 H 0.50837 0.9359 0.47654 0.0
H2799 H 0.51145 0.97136 0.48516 0.0
C2800 C 0.51161 0.8802 0.4784 0.0
C2801 C 0.52764 0.87309 0.47807 0.0
C2802 C 0.51253 0.90005 0.4853 0.0
C2803 C 0.52952 0.91342 0.49179 0.0
C2804 C 0.54555 0.90629 0.49173 0.0
C2805 C 0.54461 0.88634 0.48504 0.0
C2806 C 0.546 0.96667 0.51735 0.0
C2807 C 0.5344 0.97595 0.50743 0.0
C2808 C 0.54402 0.9463 0.51274 0.0
C2809 C 0.5306 0.93483 0.49786 0.0
C2810 C 0.51868 0.94415 0.48829 0.0
C2811 C 0.52045 0.9645 0.49316 0.0
H2812 H 0.47498 0.30519 0.64716 0.0
H2813 H 0.49748 0.27276 0.68656 0.0
H2814 H 0.44721 0.3013 0.66255 0.0
H2815 H 0.4692 0.26738 0.70077 0.0
H2816 H 0.4259 0.28039 0.73804 0.0
H2817 H 0.45281 0.28235 0.72145 0.0
H2818 H 0.41991 0.28166 0.66794 0.0
H2819 H 0.39303 0.28041 0.68491 0.0
C2820 C 0.47408 0.29718 0.65906 0.0
C2821 C 0.48881 0.28953 0.66563 0.0
C2822 C 0.45788 0.2946 0.66773 0.0
C2823 C 0.45574 0.28409 0.68314 0.0
C2824 C 0.47028 0.27596 0.6893 0.0
C2825 C 0.48654 0.27877 0.68083 0.0
C2826 C 0.42432 0.28039 0.72268 0.0
C2827 C 0.40722 0.28023 0.71287 0.0
C2828 C 0.43985 0.28147 0.71305 0.0
C2829 C 0.43881 0.28218 0.69318 0.0
C2830 C 0.42154 0.28156 0.68327 0.0
C2831 C 0.40602 0.28073 0.693 0.0
H2832 H 0.99352 0.84825 0.59533 0.0
H2833 H 0.05069 0.84636 0.60016 0.0
H2834 H 1.00045 0.87678 0.57983 0.0
H2835 H 0.05727 0.87365 0.58266 0.0
H2836 H 0.06573 0.93349 0.56352 0.0
H2837 H 0.06016 0.90756 0.58322 0.0
H2838 H 1.00686 0.88277 0.54973 0.0
H2839 H 0.01212 0.90934 0.53123 0.0
C2840 C 1.00759 0.85394 0.59315 0.0
C2841 C 0.02152 0.84495 0.59893 0.0
C2842 C 0.01152 0.8701 0.5839 0.0
C2843 C 0.02935 0.87729 0.57968 0.0
C2844 C 0.0434 0.86858 0.58579 0.0
C2845 C 0.03955 0.85268 0.59551 0.0
C2846 C 0.05284 0.92246 0.56064 0.0
C2847 C 0.03922 0.92325 0.54618 0.0
C2848 C 0.04967 0.9076 0.57174 0.0
C2849 C 0.03297 0.89321 0.56818 0.0
C2850 C 0.01962 0.89394 0.55329 0.0
C2851 C 0.02264 0.90898 0.54256 0.0
H2852 H 0.51043 0.80434 0.78803 0.0
H2853 H 0.48914 0.78906 0.83978 0.0
H2854 H 0.47934 0.80173 0.77301 0.0
H2855 H 0.45828 0.78716 0.82524 0.0
H2856 H 0.40318 0.77898 0.79441 0.0
H2857 H 0.43291 0.77142 0.80138 0.0
H2858 H 0.45886 0.8227 0.7785 0.0
H2859 H 0.42912 0.82967 0.77098 0.0
C2860 C 0.49902 0.80014 0.79602 0.0
C2861 C 0.50201 0.7969 0.81497 0.0
C2862 C 0.48131 0.79872 0.78751 0.0
C2863 C 0.46641 0.79436 0.79799 0.0
C2864 C 0.46941 0.79017 0.81664 0.0
C2865 C 0.48707 0.79133 0.82502 0.0
C2866 C 0.41529 0.78832 0.79058 0.0
C2867 C 0.41409 0.80493 0.78232 0.0
C2868 C 0.43224 0.78406 0.79458 0.0
C2869 C 0.44821 0.79653 0.7906 0.0
C2870 C 0.44679 0.81259 0.78143 0.0
C2871 C 0.42982 0.81668 0.77722 0.0
H2872 H 0.48607 0.16452 0.06279 0.0
H2873 H 0.51415 0.14934 0.11227 0.0
H2874 H 0.49192 0.13615 0.04235 0.0
H2875 H 0.5211 0.12176 0.09162 0.0
H2876 H 0.52166 0.06605 0.05024 0.0
H2877 H 0.51001 0.09007 0.07131 0.0
H2878 H 0.51887 0.13 0.0304 0.0
H2879 H 0.52983 0.10575 0.00932 0.0
C2880 C 0.49326 0.15496 0.06934 0.0
C2881 C 0.49985 0.15925 0.08907 0.0
C2882 C 0.49684 0.13888 0.0576 0.0
C2883 C 0.50726 0.12696 0.06533 0.0
C2884 C 0.51298 0.13062 0.08524 0.0
C2885 C 0.50922 0.14657 0.09702 0.0
C2886 C 0.52127 0.08009 0.046 0.0
C2887 C 0.52684 0.08435 0.02845 0.0
C2888 C 0.51452 0.09375 0.05793 0.0
C2889 C 0.51344 0.11188 0.05246 0.0
C2890 C 0.51911 0.116 0.03484 0.0
C2891 C 0.52557 0.10225 0.02286 0.0
H2892 H 0.18371 0.2997 0.34563 0.0
H2893 H 0.16268 0.3301 0.30329 0.0
H2894 H 0.20695 0.29299 0.32559 0.0
H2895 H 0.18605 0.32326 0.28302 0.0
H2896 H 0.2479 0.32689 0.27131 0.0
H2897 H 0.22102 0.33291 0.28571 0.0
H2898 H 0.20622 0.27197 0.2933 0.0
H2899 H 0.23302 0.26591 0.27924 0.0
C2900 C 0.18411 0.30487 0.33198 0.0
C2901 C 0.17151 0.31528 0.32582 0.0
C2902 C 0.19726 0.30095 0.3205 0.0
C2903 C 0.19794 0.30734 0.3027 0.0
C2904 C 0.18565 0.31821 0.29672 0.0
C2905 C 0.17244 0.32217 0.30827 0.0
C2906 C 0.2387 0.31472 0.27572 0.0
C2907 C 0.24268 0.29607 0.27449 0.0
C2908 C 0.22332 0.31814 0.28382 0.0
C2909 C 0.21189 0.30295 0.29081 0.0
C2910 C 0.21508 0.28394 0.28821 0.0
C2911 C 0.23036 0.28049 0.28006 0.0
H2912 H 0.97291 0.08115 0.14907 0.0
H2913 H 0.99405 0.03306 0.16521 0.0
H2914 H 0.987 0.07815 0.11927 0.0
H2915 H 1.00772 0.02984 0.13534 0.0
H2916 H 0.04603 0.03917 0.08805 0.0
H2917 H 0.03085 0.04132 0.11699 0.0
H2918 H 0.9884 0.06174 0.08699 0.0
H2919 H 1.00387 0.0594 0.0577 0.0
C2920 C 0.98053 0.06988 0.14654 0.0
C2921 C 0.98189 0.05738 0.16037 0.0
C2922 C 0.9886 0.06799 0.12897 0.0
C2923 C 0.99879 0.05363 0.12408 0.0
C2924 C 1.0003 0.04128 0.13798 0.0
C2925 C 0.9921 0.04303 0.15543 0.0
C2926 C 0.03321 0.04371 0.0873 0.0
C2927 C 0.02618 0.04848 0.06982 0.0
C2928 C 0.02434 0.04501 0.10424 0.0
C2929 C 0.00796 0.05168 0.10509 0.0
C2930 C 1.00087 0.05655 0.08754 0.0
C2931 C 0.00967 0.05488 0.07034 0.0
H2932 H 0.24532 0.70051 0.44868 0.0
H2933 H 0.3005 0.70825 0.43363 0.0
H2934 H 0.23516 0.70911 0.41814 0.0
H2935 H 0.29006 0.71572 0.40266 0.0
H2936 H 0.2715 0.76051 0.37051 0.0
H2937 H 0.28013 0.74585 0.39757 0.0
H2938 H 0.23137 0.69828 0.38143 0.0
H2939 H 0.22253 0.71346 0.35388 0.0
C2940 C 0.25524 0.70404 0.43882 0.0
C2941 C 0.27377 0.70419 0.44357 0.0
C2942 C 0.24932 0.70847 0.42124 0.0
C2943 C 0.26186 0.71295 0.40822 0.0
C2944 C 0.28021 0.71234 0.41264 0.0
C2945 C 0.28617 0.70812 0.43028 0.0
C2946 C 0.26251 0.74703 0.3729 0.0
C2947 C 0.24613 0.73826 0.36069 0.0
C2948 C 0.2676 0.73849 0.38812 0.0
C2949 C 0.25647 0.7209 0.39132 0.0
C2950 C 0.24007 0.71191 0.37906 0.0
C2951 C 0.23498 0.72052 0.36354 0.0
H2952 H 0.62065 0.02028 0.64043 0.0
H2953 H 0.59955 0.06941 0.66536 0.0
H2954 H 0.60188 0.01804 0.60983 0.0
H2955 H 0.58105 0.06733 0.63462 0.0
H2956 H 0.57096 0.07042 0.56964 0.0
H2957 H 0.58976 0.07217 0.60014 0.0
H2958 H 0.56625 0.01023 0.59919 0.0
H2959 H 0.54706 1.00863 0.56884 0.0
C2960 C 0.61192 0.03049 0.63934 0.0
C2961 C 0.61146 0.04502 0.65508 0.0
C2962 C 0.60128 0.02921 0.62194 0.0
C2963 C 0.5902 0.04254 0.62013 0.0
C2964 C 0.58973 0.05708 0.63582 0.0
C2965 C 0.60028 0.05829 0.65326 0.0
C2966 C 0.56989 0.05724 0.57603 0.0
C2967 C 0.55763 0.03945 0.56734 0.0
C2968 C 0.5805 0.05826 0.59337 0.0
C2969 C 0.57921 0.04135 0.60181 0.0
C2970 C 0.56731 0.0234 0.59279 0.0
C2971 C 0.55636 0.02251 0.57566 0.0
H2972 H 0.28353 0.34933 0.91848 0.0
H2973 H 0.3067 0.30095 0.93063 0.0
H2974 H 0.28565 0.34009 0.88437 0.0
H2975 H 0.3097 0.29231 0.89659 0.0
H2976 H 0.29583 0.27154 0.83063 0.0
H2977 H 0.29346 0.27905 0.86511 0.0
H2978 H 0.30849 0.34153 0.86313 0.0
H2979 H 0.31027 0.33376 0.82857 0.0
C2980 C 0.28889 0.33658 0.91388 0.0
C2981 C 0.29498 0.32594 0.92739 0.0
C2982 C 0.29042 0.33148 0.89431 0.0
C2983 C 0.29815 0.31564 0.88769 0.0
C2984 C 0.30366 0.30457 0.9011 0.0
C2985 C 0.30208 0.30964 0.92068 0.0
C2986 C 0.29901 0.28684 0.83778 0.0
C2987 C 0.30356 0.30212 0.82722 0.0
C2988 C 0.29761 0.29118 0.85749 0.0
C2989 C 0.30064 0.31092 0.86695 0.0
C2990 C 0.30573 0.32617 0.8563 0.0
C2991 C 0.30705 0.32179 0.8366 0.0
H2992 H 1.00501 0.04492 0.35177 0.0
H2993 H 0.96961 0.07721 0.3801 0.0
H2994 H 0.01857 0.04065 0.38289 0.0
H2995 H 0.98299 0.07276 0.41122 0.0
H2996 H 0.01801 0.07447 0.46813 0.0
H2997 H 1.00546 0.0795 0.43687 0.0
H2998 H 0.01831 0.02589 0.40978 0.0
H2999 H 0.0312 0.02117 0.44119 0.0
C3000 C 0.99986 0.05103 0.36453 0.0
C3001 C 0.98586 0.06143 0.36277 0.0
C3002 C 1.00776 0.0485 0.38272 0.0
C3003 C 1.00212 0.05617 0.40028 0.0
C3004 C 0.98825 0.06673 0.39851 0.0
C3005 C 0.9804 0.06933 0.38032 0.0
C3006 C 0.01826 0.0637 0.45555 0.0
C3007 C 0.02578 0.04733 0.45765 0.0
C3008 C 0.01079 0.06652 0.43733 0.0
C3009 C 0.01048 0.05316 0.42009 0.0
C3010 C 0.01821 0.03684 0.42224 0.0
C3011 C 0.0256 0.03398 0.44053 0.0
H3012 H 0.30447 0.7042 0.63591 0.0
H3013 H 0.26361 0.73036 0.61043 0.0
H3014 H 0.30518 0.72513 0.66688 0.0
H3015 H 0.26434 0.75148 0.64164 0.0
H3016 H 0.29499 0.79988 0.69747 0.0
H3017 H 0.28985 0.77971 0.66511 0.0
H3018 H 0.28062 0.72671 0.69012 0.0
H3019 H 0.28572 0.74661 0.72219 0.0
C3020 C 0.29572 0.71452 0.637 0.0
C3021 C 0.28398 0.71577 0.62099 0.0
C3022 C 0.29602 0.72635 0.65465 0.0
C3023 C 0.2847 0.73969 0.65649 0.0
C3024 C 0.27315 0.74122 0.64042 0.0
C3025 C 0.27267 0.72915 0.62274 0.0
C3026 C 0.29152 0.78392 0.69594 0.0
C3027 C 0.29091 0.77475 0.7122 0.0
C3028 C 0.28854 0.77245 0.67753 0.0
C3029 C 0.28508 0.75179 0.67535 0.0
C3030 C 0.28349 0.74266 0.69157 0.0
C3031 C 0.28633 0.75405 0.70986 0.0
H3032 H 0.59567 0.07833 0.82187 0.0
H3033 H 0.62785 0.04337 0.84817 0.0
H3034 H 0.5938 0.09631 0.85336 0.0
H3035 H 0.62451 0.05991 0.87993 0.0
H3036 H 0.62643 0.09276 0.93441 0.0
H3037 H 0.63475 0.08986 0.90178 0.0
H3038 H 0.58036 0.094 0.88048 0.0
H3039 H 0.57284 0.09836 0.91268 0.0
C3040 C 0.60177 0.07406 0.83455 0.0
C3041 C 0.61194 0.0596 0.83275 0.0
C3042 C 0.60084 0.08444 0.85257 0.0
C3043 C 0.60949 0.08002 0.86919 0.0
C3044 C 0.61839 0.06434 0.86739 0.0
C3045 C 0.61975 0.05433 0.84927 0.0
C3046 C 0.61683 0.09449 0.92283 0.0
C3047 C 0.59874 0.09473 0.92579 0.0
C3048 C 0.62136 0.09229 0.9041 0.0
C3049 C 0.60778 0.09031 0.88847 0.0
C3050 C 0.5911 0.095 0.89205 0.0
C3051 C 0.5868 0.09772 0.91074 0.0
H3052 H 0.32361 0.35581 0.13936 0.0
H3053 H 0.27276 0.31499 0.11313 0.0
H3054 H 0.32136 0.34194 0.16859 0.0
H3055 H 0.26954 0.30259 0.14291 0.0
H3056 H 0.27501 0.26904 0.19125 0.0
H3057 H 0.27815 0.28307 0.16237 0.0
H3058 H 0.30927 0.33853 0.19659 0.0
H3059 H 0.3075 0.32343 0.22534 0.0
C3060 C 0.31189 0.34389 0.1397 0.0
C3061 C 0.29846 0.33659 0.12347 0.0
C3062 C 0.3104 0.33612 0.15681 0.0
C3063 C 0.29526 0.32095 0.15852 0.0
C3064 C 0.28168 0.3139 0.14237 0.0
C3065 C 0.28336 0.32139 0.12517 0.0
C3066 C 0.28252 0.28429 0.19271 0.0
C3067 C 0.29059 0.29525 0.21093 0.0
C3068 C 0.28416 0.29251 0.17597 0.0
C3069 C 0.29371 0.31225 0.17675 0.0
C3070 C 0.30185 0.32328 0.19507 0.0
C3071 C 0.3005 0.31479 0.21185 0.0
H3072 H 0.22038 0.95723 0.04093 0.0
H3073 H 0.23843 0.99742 1.00223 0.0
H3074 H 0.19505 0.97275 0.04673 0.0
H3075 H 0.21265 0.01233 0.00738 0.0
H3076 H 0.17782 0.04846 0.03747 0.0
H3077 H 0.20337 0.03286 0.03435 0.0
H3078 H 0.16629 0.97535 0.028 0.0
H3079 H 0.14066 0.99105 0.03185 0.0
C3080 C 0.21891 0.96938 0.03369 0.0
C3081 C 0.23131 0.97619 0.02115 0.0
C3082 C 0.20435 0.97808 0.03685 0.0
C3083 C 0.20199 0.99368 0.02749 0.0
C3084 C 0.21435 1.00044 0.01491 0.0
C3085 C 0.22893 0.99178 0.01179 0.0
C3086 C 0.17517 0.03251 0.03572 0.0
C3087 C 0.15733 0.02092 0.03487 0.0
C3088 C 0.18973 0.0236 0.03373 0.0
C3089 C 0.18669 1.00297 0.03077 0.0
C3090 C 0.16892 0.99133 0.03035 0.0
C3091 C 0.1543 1.00026 0.03235 0.0
H3092 H 0.6741 0.63067 0.97766 0.0
H3093 H 0.69425 0.61786 0.0322 0.0
H3094 H 0.64375 0.61079 0.97985 0.0
H3095 H 0.66379 0.59888 0.03484 0.0
H3096 H 0.61273 0.54708 0.02346 0.0
H3097 H 0.64255 0.56891 0.02306 0.0
H3098 H 0.61625 0.60716 0.99423 0.0
H3099 H 0.58641 0.58436 0.99383 0.0
C3100 C 0.67217 0.62367 0.99016 0.0
C3101 C 0.687 0.62604 1.00469 0.0
C3102 C 0.65452 0.61241 0.99157 0.0
C3103 C 0.65095 0.60301 0.00755 0.0
C3104 C 0.66576 0.60553 0.02214 0.0
C3105 C 0.68338 0.61676 0.02072 0.0
C3106 C 0.61327 0.56041 0.01743 0.0
C3107 C 0.597 0.56439 0.00944 0.0
C3108 C 0.63049 0.57306 0.01721 0.0
C3109 C 0.63218 0.59015 0.00875 0.0
C3110 C 0.61577 0.59424 1.00089 0.0
C3111 C 0.59848 0.58148 1.00114 0.0
H3112 H 0.7404 0.43618 0.28671 0.0
H3113 H 0.69556 0.39843 0.24712 0.0
H3114 H 0.75603 0.40918 0.28585 0.0
H3115 H 0.711 0.37112 0.2463 0.0
H3116 H 0.73757 0.31838 0.25599 0.0
H3117 H 0.72151 0.34518 0.25652 0.0
H3118 H 0.77303 0.38795 0.2741 0.0
H3119 H 0.78881 0.36123 0.27387 0.0
C3120 C 0.73368 0.4221 0.27779 0.0
C3121 C 0.71637 0.42015 0.26701 0.0
C3122 C 0.74288 0.40625 0.27713 0.0
C3123 C 0.7353 0.38706 0.26595 0.0
C3124 C 0.71782 0.3851 0.25531 0.0
C3125 C 0.70879 0.40112 0.25566 0.0
C3126 C 0.7456 0.33347 0.26001 0.0
C3127 C 0.76488 0.33697 0.26493 0.0
C3128 C 0.73623 0.34922 0.26024 0.0
C3129 C 0.74545 0.36962 0.26546 0.0
C3130 C 0.76476 0.37297 0.27028 0.0
C3131 C 0.77409 0.35728 0.27002 0.0
H3132 H 0.89364 0.49255 0.49537 0.0
H3133 H 0.9069 0.50072 0.55724 0.0
H3134 H 0.92611 0.499 0.49178 0.0
H3135 H 0.93938 0.5065 0.55361 0.0
H3136 H 0.99452 0.53716 0.54036 0.0
H3137 H 0.9623 0.53156 0.54316 0.0
H3138 H 0.95111 0.48132 0.49667 0.0
H3139 H 0.98396 0.4875 0.49329 0.0
C3140 C 0.90357 0.49632 0.50821 0.0
C3141 C 0.89799 0.49651 0.52662 0.0
C3142 C 0.92203 0.49952 0.5061 0.0
C3143 C 0.93502 0.50296 0.52239 0.0
C3144 C 0.92949 0.50393 0.54086 0.0
C3145 C 0.91104 0.50078 0.54297 0.0
C3146 C 0.98528 0.52464 0.53095 0.0
C3147 C 0.99158 0.5124 0.51687 0.0
C3148 C 0.96686 0.52153 0.53254 0.0
C3149 C 0.95442 0.50595 0.52028 0.0
C3150 C 0.96062 0.49353 0.50618 0.0
C3151 C 0.97924 0.49689 0.50435 0.0
H3152 H 0.39589 0.11988 0.25467 0.0
H3153 H 0.35047 0.09356 0.28282 0.0
H3154 H 0.37908 0.14331 0.24498 0.0
H3155 H 0.334 0.11771 0.27403 0.0
H3156 H 0.3015 0.14885 0.2407 0.0
H3157 H 0.31927 0.12462 0.24464 0.0
H3158 H 0.36867 0.17141 0.25989 0.0
H3159 H 0.35108 0.19562 0.25458 0.0
C3160 C 0.38233 0.11925 0.25885 0.0
C3161 C 0.3743 0.10495 0.26932 0.0
C3162 C 0.37281 0.13267 0.25342 0.0
C3163 C 0.35524 0.13207 0.25858 0.0
C3164 C 0.34742 0.11813 0.26954 0.0
C3165 C 0.3569 0.10457 0.27484 0.0
C3166 C 0.31624 0.15392 0.24417 0.0
C3167 C 0.32492 0.17411 0.24756 0.0
C3168 C 0.32633 0.14008 0.24675 0.0
C3169 C 0.34518 0.14628 0.25299 0.0
C3170 C 0.3541 0.16631 0.25509 0.0
C3171 C 0.34404 0.18014 0.25223 0.0
H3172 H 0.36362 0.12744 0.48209 0.0
H3173 H 0.37706 0.15457 0.54224 0.0
H3174 H 0.38921 0.11232 0.48465 0.0
H3175 H 0.40156 0.13752 0.54532 0.0
H3176 H 0.45519 0.11692 0.5409 0.0
H3177 H 0.43056 0.13443 0.53958 0.0
H3178 H 0.39873 0.0871 0.49506 0.0
H3179 H 0.42373 0.07064 0.49566 0.0
C3180 C 0.37196 0.13025 0.49594 0.0
C3181 C 0.368 0.14241 0.5119 0.0
C3182 C 0.38655 0.12109 0.49754 0.0
C3183 C 0.39749 0.12323 0.51531 0.0
C3184 C 0.39366 0.13548 0.53132 0.0
C3185 C 0.37926 0.14505 0.5296 0.0
C3186 C 0.44289 0.11042 0.53083 0.0
C3187 C 0.44149 0.09263 0.51812 0.0
C3188 C 0.42867 0.12036 0.53011 0.0
C3189 C 0.41257 0.1125 0.51692 0.0
C3190 C 0.41104 0.09419 0.50489 0.0
C3191 C 0.42535 0.08457 0.50533 0.0
H3192 H 0.70418 0.64252 0.28595 0.0
H3193 H 0.743 0.61888 0.25462 0.0
H3194 H 0.72071 0.67628 0.28397 0.0
H3195 H 0.75955 0.65225 0.25257 0.0
H3196 H 0.79744 0.71355 0.2649 0.0
H3197 H 0.77933 0.68117 0.26631 0.0
H3198 H 0.73113 0.70438 0.2691 0.0
H3199 H 0.74988 0.73765 0.26812 0.0
C3200 C 0.71632 0.64443 0.27869 0.0
C3201 C 0.72212 0.62749 0.27061 0.0
C3202 C 0.72587 0.66405 0.27739 0.0
C3203 C 0.74202 0.66788 0.26828 0.0
C3204 C 0.74761 0.65074 0.26012 0.0
C3205 C 0.7379 0.63121 0.26113 0.0
C3206 C 0.78295 0.71207 0.26575 0.0
C3207 C 0.77555 0.72894 0.26632 0.0
C3208 C 0.77228 0.69298 0.2664 0.0
C3209 C 0.75325 0.68918 0.26762 0.0
C3210 C 0.74563 0.70608 0.26827 0.0
C3211 C 0.75648 0.72547 0.26758 0.0
H3212 H 0.83743 0.45106 0.78241 0.0
H3213 H 0.86356 0.41846 0.74103 0.0
H3214 H 0.8128 0.42154 0.78067 0.0
H3215 H 0.8386 0.38942 0.73873 0.0
H3216 H 0.79262 0.34083 0.73432 0.0
H3217 H 0.80119 0.37577 0.73234 0.0
H3218 H 0.82311 0.38938 0.79264 0.0
H3219 H 0.81473 0.35436 0.7947 0.0
C3220 C 0.83761 0.43774 0.77259 0.0
C3221 C 0.85247 0.43673 0.76216 0.0
C3222 C 0.82347 0.42111 0.77144 0.0
C3223 C 0.82395 0.40358 0.75951 0.0
C3224 C 0.8379 0.40307 0.74773 0.0
C3225 C 0.85218 0.41959 0.74911 0.0
C3226 C 0.79885 0.35138 0.74727 0.0
C3227 C 0.80372 0.34513 0.7645 0.0
C3228 C 0.80341 0.37125 0.74616 0.0
C3229 C 0.81276 0.38491 0.76229 0.0
C3230 C 0.81564 0.37893 0.78012 0.0
C3231 C 0.81109 0.35897 0.78124 0.0
H3232 H 0.09127 0.91407 0.07601 0.0
H3233 H 0.03726 0.88099 0.04986 0.0
H3234 H 0.08646 0.94259 0.06285 0.0
H3235 H 0.03257 0.90931 0.03592 0.0
H3236 H 0.02245 0.96986 0.02864 0.0
H3237 H 0.02664 0.94008 0.04017 0.0
H3238 H 0.08485 0.95812 0.03728 0.0
H3239 H 0.08066 0.98832 0.027 0.0
C3240 C 0.07844 0.91274 0.06714 0.0
C3241 C 0.0647 0.8951 0.06407 0.0
C3242 C 0.07565 0.9292 0.05942 0.0
C3243 C 0.0591 0.92856 0.04806 0.0
C3244 C 0.0454 0.91077 0.04481 0.0
C3245 C 0.04812 0.89436 0.05278 0.0
C3246 C 0.03613 0.96738 0.03039 0.0
C3247 C 0.05123 0.98161 0.02701 0.0
C3248 C 0.03857 0.95015 0.03695 0.0
C3249 C 0.05618 0.94647 0.04002 0.0
C3250 C 0.07113 0.96045 0.03581 0.0
C3251 C 0.06872 0.97781 0.02964 0.0
H3252 H 0.93872 0.30025 0.8389 0.0
H3253 H 0.90391 0.25218 0.85905 0.0
H3254 H 0.91257 0.30481 0.81929 0.0
H3255 H 0.87762 0.25604 0.83833 0.0
H3256 H 0.82983 0.27706 0.80776 0.0
H3257 H 0.85512 0.27403 0.83074 0.0
H3258 H 0.89328 0.29204 0.79119 0.0
H3259 H 0.86841 0.29569 0.76907 0.0
C3260 C 0.92549 0.29059 0.83929 0.0
C3261 C 0.92379 0.27584 0.85089 0.0
C3262 C 0.91031 0.29304 0.82763 0.0
C3263 C 0.89263 0.28071 0.82677 0.0
C3264 C 0.89081 0.26602 0.8385 0.0
C3265 C 0.90608 0.2636 0.85028 0.0
C3266 C 0.84366 0.28085 0.80425 0.0
C3267 C 0.84694 0.28703 0.78658 0.0
C3268 C 0.85826 0.27881 0.81734 0.0
C3269 C 0.87662 0.28293 0.81319 0.0
C3270 C 0.87966 0.28915 0.79549 0.0
C3271 C 0.86521 0.29116 0.78257 0.0
H3272 H 0.5862 0.2002 0.57894 0.0
H3273 H 0.55268 0.20483 0.52779 0.0
H3274 H 0.5835 0.16553 0.5666 0.0
H3275 H 0.55001 0.16988 0.51532 0.0
H3276 H 0.53133 0.1024 0.51344 0.0
H3277 H 0.53571 0.13794 0.52202 0.0
H3278 H 0.59273 0.14346 0.5422 0.0
H3279 H 0.58823 0.10771 0.53416 0.0
C3280 C 0.57854 0.19391 0.56486 0.0
C3281 C 0.56983 0.20537 0.55425 0.0
C3282 C 0.577 0.17399 0.55777 0.0
C3283 C 0.5667 0.16497 0.53988 0.0
C3284 C 0.55796 0.17638 0.52922 0.0
C3285 C 0.55948 0.19638 0.53635 0.0
C3286 C 0.54486 0.11117 0.51957 0.0
C3287 C 0.55939 0.10219 0.52333 0.0
C3288 C 0.54739 0.1316 0.52436 0.0
C3289 C 0.56452 0.14353 0.53295 0.0
C3290 C 0.57926 0.13462 0.53593 0.0
C3291 C 0.57672 0.11415 0.5312 0.0
H3292 H 0.60991 0.76035 0.37235 0.0
H3293 H 0.6019 0.81534 0.35744 0.0
H3294 H 0.63797 0.76441 0.35742 0.0
H3295 H 0.63054 0.81992 0.34334 0.0
H3296 H 0.66984 0.80865 0.29874 0.0
H3297 H 0.64319 0.80737 0.31587 0.0
H3298 H 0.6689 0.78226 0.3598 0.0
H3299 H 0.69558 0.78349 0.34259 0.0
C3300 C 0.61409 0.77335 0.36591 0.0
C3301 C 0.60335 0.78737 0.36597 0.0
C3302 C 0.63044 0.77584 0.35757 0.0
C3303 C 0.63666 0.79249 0.34905 0.0
C3304 C 0.62614 0.80675 0.34947 0.0
C3305 C 0.60975 0.80423 0.3578 0.0
C3306 C 0.67 0.80315 0.31222 0.0
C3307 C 0.68495 0.79606 0.31913 0.0
C3308 C 0.65462 0.80241 0.3221 0.0
C3309 C 0.65367 0.79456 0.33924 0.0
C3310 C 0.66886 0.78801 0.34645 0.0
C3311 C 0.68424 0.78873 0.33656 0.0
H3312 H 0.08545 0.25 0.46089 0.0
H3313 H 0.05145 0.21662 0.40883 0.0
H3314 H 0.07674 0.22206 0.47709 0.0
H3315 H 0.04174 0.18898 0.42549 0.0
H3316 H 0.04722 0.13696 0.45666 0.0
H3317 H 0.05351 0.164 0.43867 0.0
H3318 H 0.05073 0.20528 0.48954 0.0
H3319 H 0.04616 0.17875 0.5079 0.0
C3320 C 0.07612 0.23667 0.45292 0.0
C3321 C 0.06917 0.23545 0.43361 0.0
C3322 C 0.07088 0.22078 0.46228 0.0
C3323 C 0.05837 0.20344 0.45261 0.0
C3324 C 0.05145 0.20215 0.43326 0.0
C3325 C 0.05686 0.21802 0.42381 0.0
C3326 C 0.04807 0.15183 0.46403 0.0
C3327 C 0.04644 0.15571 0.48381 0.0
C3328 C 0.0514 0.16726 0.45364 0.0
C3329 C 0.05288 0.18676 0.46281 0.0
C3330 C 0.0501 0.19044 0.48223 0.0
C3331 C 0.04713 0.17513 0.49267 0.0
H3332 H 0.60267 0.28856 0.19462 0.0
H3333 H 0.58048 0.26478 0.24252 0.0
H3334 H 0.63345 0.29008 0.20904 0.0
H3335 H 0.6115 0.26733 0.25781 0.0
H3336 H 0.66322 0.24183 0.25685 0.0
H3337 H 0.63325 0.24893 0.25146 0.0
H3338 H 0.65824 0.30343 0.23308 0.0
H3339 H 0.68807 0.29545 0.23743 0.0
C3340 C 0.60454 0.2843 0.20861 0.0
C3341 C 0.58943 0.27651 0.21754 0.0
C3342 C 0.62216 0.28531 0.21699 0.0
C3343 C 0.62495 0.27882 0.23462 0.0
C3344 C 0.60977 0.27214 0.24409 0.0
C3345 C 0.59208 0.27076 0.23546 0.0
C3346 C 0.66222 0.25549 0.25206 0.0
C3347 C 0.67762 0.268 0.24726 0.0
C3348 C 0.64512 0.25969 0.24911 0.0
C3349 C 0.64332 0.27666 0.24161 0.0
C3350 C 0.65913 0.29002 0.23842 0.0
C3351 C 0.67615 0.28557 0.24099 0.0
H3352 H 0.58639 0.90103 0.97034 0.0
H3353 H 0.59948 0.93581 0.92614 0.0
H3354 H 0.57743 0.92853 0.98925 0.0
H3355 H 0.58979 0.96317 0.94448 0.0
H3356 H 0.58178 0.013 0.98945 0.0
H3357 H 0.59508 0.98785 0.97269 0.0
H3358 H 0.55146 0.94229 0.98556 0.0
H3359 H 0.53873 0.9676 1.00321 0.0
C3360 C 0.58777 0.91484 0.96502 0.0
C3361 C 0.59375 0.91668 0.94711 0.0
C3362 C 0.58237 0.93041 0.97559 0.0
C3363 C 0.58257 0.94782 0.96814 0.0
C3364 C 0.58959 0.94998 0.95064 0.0
C3365 C 0.59518 0.93444 0.94017 0.0
C3366 C 0.57497 0.99758 0.9885 0.0
C3367 C 0.55929 0.99204 0.99754 0.0
C3368 C 0.58259 0.98321 0.97894 0.0
C3369 C 0.57445 0.96313 0.97803 0.0
C3370 C 0.55833 0.95768 0.98651 0.0
C3371 C 0.55091 0.97206 0.99638 0.0
H3372 H 0.9084 0.73457 0.7017 0.0
H3373 H 0.93716 0.79536 0.72334 0.0
H3374 H 0.8837 0.73905 0.72011 0.0
H3375 H 0.91148 0.80046 0.74017 0.0
H3376 H 0.8652 0.80126 0.77647 0.0
H3377 H 0.89316 0.7945 0.76472 0.0
H3378 H 0.86011 0.75462 0.71511 0.0
H3379 H 0.83256 0.76028 0.72773 0.0
C3380 C 0.90954 0.74885 0.71054 0.0
C3381 C 0.92458 0.76471 0.71085 0.0
C3382 C 0.89522 0.75152 0.72084 0.0
C3383 C 0.89541 0.77024 0.73117 0.0
C3384 C 0.91091 0.78584 0.73235 0.0
C3385 C 0.92547 0.78302 0.72242 0.0
C3386 C 0.86415 0.79089 0.76321 0.0
C3387 C 0.84704 0.78096 0.75304 0.0
C3388 C 0.88003 0.78709 0.75643 0.0
C3389 C 0.87883 0.77379 0.73914 0.0
C3390 C 0.86153 0.76434 0.72885 0.0
C3391 C 0.84577 0.76768 0.73592 0.0
H3392 H 0.11265 0.9921 0.87857 0.0
H3393 H 0.10282 0.04826 0.86941 0.0
H3394 H 0.09859 0.99486 0.90787 0.0
H3395 H 0.08959 0.05138 0.89909 0.0
H3396 H 0.05588 0.05142 0.95032 0.0
H3397 H 0.07054 0.04915 0.92108 0.0
H3398 H 0.09322 1.00231 0.93834 0.0
H3399 H 0.078 1.00463 0.96744 0.0
C3400 C 0.10768 1.00522 0.88246 0.0
C3401 C 0.10949 0.01988 0.87047 0.0
C3402 C 0.0995 1.00693 0.89997 0.0
C3403 C 0.09256 0.0235 0.90701 0.0
C3404 C 0.09428 0.03811 0.89499 0.0
C3405 C 0.10233 0.03634 0.87744 0.0
C3406 C 0.06444 0.04099 0.94822 0.0
C3407 C 0.06616 0.02888 0.96219 0.0
C3408 C 0.07299 0.03951 0.931 0.0
C3409 C 0.08366 0.02551 0.92632 0.0
C3410 C 0.08535 0.01337 0.94049 0.0
C3411 C 0.07678 0.01493 0.95778 0.0
H3412 H 0.80449 0.37899 0.60207 0.0
H3413 H 0.85175 0.36589 0.5774 0.0
H3414 H 0.81662 0.37272 0.63297 0.0
H3415 H 0.86455 0.36105 0.60857 0.0
H3416 H 0.86022 0.32417 0.65817 0.0
H3417 H 0.85842 0.33764 0.62906 0.0
H3418 H 0.84127 0.38729 0.65929 0.0
H3419 H 0.84273 0.37335 0.68876 0.0
C3420 C 0.81736 0.37456 0.60326 0.0
C3421 C 0.82726 0.37292 0.58751 0.0
C3422 C 0.82457 0.37154 0.62102 0.0
C3423 C 0.84184 0.36709 0.62326 0.0
C3424 C 0.85133 0.3647 0.60728 0.0
C3425 C 0.844 0.36738 0.58948 0.0
C3426 C 0.85715 0.33856 0.65902 0.0
C3427 C 0.85098 0.34742 0.67548 0.0
C3428 C 0.85596 0.34624 0.64218 0.0
C3429 C 0.84897 0.36305 0.64182 0.0
C3430 C 0.84608 0.37387 0.65916 0.0
C3431 C 0.84719 0.36611 0.67604 0.0
H3432 H 0.46216 0.0457 0.39678 0.0
H3433 H 0.50264 0.02603 0.36441 0.0
H3434 H 0.48153 0.04711 0.42698 0.0
H3435 H 0.52211 0.02769 0.3945 0.0
H3436 H 0.55798 0.05803 0.45273 0.0
H3437 H 0.5385 0.05745 0.423 0.0
H3438 H 0.49346 0.01882 0.44212 0.0
H3439 H 0.51303 0.01878 0.4715 0.0
C3440 C 0.47528 0.04187 0.39627 0.0
C3441 C 0.48116 0.03584 0.37863 0.0
C3442 C 0.48621 0.04257 0.41335 0.0
C3443 C 0.50316 0.03758 0.41277 0.0
C3444 C 0.50909 0.03174 0.39509 0.0
C3445 C 0.49804 0.03073 0.37804 0.0
C3446 C 0.54393 0.04943 0.45052 0.0
C3447 C 0.53684 0.03863 0.46432 0.0
C3448 C 0.53288 0.04911 0.43364 0.0
C3449 C 0.51463 0.03821 0.43061 0.0
C3450 C 0.50749 0.0275 0.44445 0.0
C3451 C 0.51863 0.02753 0.46116 0.0
H3452 H 0.77093 0.76669 0.09951 0.0
H3453 H 0.81713 0.74169 0.11208 0.0
H3454 H 0.7694 0.7753 0.13389 0.0
H3455 H 0.81636 0.75137 0.14634 0.0
H3456 H 0.79755 0.74753 0.20428 0.0
H3457 H 0.7985 0.74072 0.16969 0.0
H3458 H 0.78225 0.795 0.16411 0.0
H3459 H 0.78029 0.80103 0.19882 0.0
C3460 C 0.7809 0.76323 0.10961 0.0
C3461 C 0.794 0.75326 0.10296 0.0
C3462 C 0.78014 0.76837 0.12937 0.0
C3463 C 0.79254 0.76374 0.143 0.0
C3464 C 0.80625 0.75471 0.13633 0.0
C3465 C 0.80691 0.74945 0.1166 0.0
C3466 C 0.7939 0.75779 0.19554 0.0
C3467 C 0.78868 0.77466 0.20404 0.0
C3468 C 0.7947 0.75409 0.17575 0.0
C3469 C 0.79078 0.76747 0.16402 0.0
C3470 C 0.7852 0.78425 0.17259 0.0
C3471 C 0.78402 0.78772 0.19243 0.0
H3472 H 0.1057 0.98895 0.65451 0.0
H3473 H 0.10551 0.04885 0.67845 0.0
H3474 H 0.09233 0.99325 0.62339 0.0
H3475 H 0.09167 0.05312 0.64762 0.0
H3476 H 0.07735 0.06341 0.5863 0.0
H3477 H 0.0902 0.05887 0.61759 0.0
H3478 H 0.07176 0.99555 0.59973 0.0
H3479 H 0.05988 1.00035 0.56813 0.0
C3480 C 0.10267 1.00307 0.65337 0.0
C3481 C 0.10714 0.01851 0.66959 0.0
C3482 C 0.09478 1.00562 0.63515 0.0
C3483 C 0.09066 0.02372 0.63206 0.0
C3484 C 0.0948 0.03901 0.64848 0.0
C3485 C 0.10286 0.03651 0.66661 0.0
C3486 C 0.07601 0.04847 0.58899 0.0
C3487 C 0.06748 0.03233 0.57421 0.0
C3488 C 0.08339 0.04574 0.60732 0.0
C3489 C 0.0824 0.02669 0.61208 0.0
C3490 C 0.0735 0.01056 0.59725 0.0
C3491 C 0.06641 0.01331 0.57881 0.0
H3492 H 0.82795 0.38001 0.40049 0.0
H3493 H 0.78562 0.3375 0.41913 0.0
H3494 H 0.82378 0.35872 0.36907 0.0
H3495 H 0.78176 0.31595 0.38803 0.0
H3496 H 0.76176 0.29659 0.32441 0.0
H3497 H 0.7687 0.31631 0.35661 0.0
H3498 H 0.82653 0.32829 0.35073 0.0
H3499 H 0.81928 0.30888 0.31813 0.0
C3500 C 0.818 0.36593 0.39795 0.0
C3501 C 0.80688 0.3605 0.41204 0.0
C3502 C 0.81564 0.35371 0.37999 0.0
C3503 C 0.80222 0.33579 0.37594 0.0
C3504 C 0.79185 0.32992 0.39049 0.0
C3505 C 0.79408 0.34221 0.40832 0.0
C3506 C 0.77594 0.30342 0.33007 0.0
C3507 C 0.79001 0.30151 0.31885 0.0
C3508 C 0.77996 0.3146 0.34855 0.0
C3509 C 0.7982 0.32377 0.35632 0.0
C3510 C 0.81233 0.32166 0.34507 0.0
C3511 C 0.80823 0.31065 0.32641 0.0
H3512 H 0.44226 0.99312 0.18392 0.0
H3513 H 0.49653 0.03123 0.20021 0.0
H3514 H 0.45158 0.97871 0.15388 0.0
H3515 H 0.50569 0.01736 0.16997 0.0
H3516 H 0.52601 0.98412 0.12784 0.0
H3517 H 0.51065 0.98408 0.15631 0.0
H3518 H 0.46152 0.98982 0.12364 0.0
H3519 H 0.47659 0.98872 0.09461 0.0
C3520 C 0.45613 0.9985 0.18089 0.0
C3521 C 0.46885 0.01303 0.19427 0.0
C3522 C 0.46141 0.99024 0.16384 0.0
C3523 C 0.47945 0.99646 0.16006 0.0
C3524 C 0.49185 0.01181 0.17298 0.0
C3525 C 0.48658 0.02004 0.19003 0.0
C3526 C 0.51158 0.98405 0.12629 0.0
C3527 C 0.50271 0.98742 0.10924 0.0
C3528 C 0.50289 0.98434 0.14274 0.0
C3529 C 0.48537 0.98802 0.1422 0.0
C3530 C 0.47525 0.98742 0.12441 0.0
C3531 C 0.48388 0.98682 0.10783 0.0
H3532 H 0.76597 0.73743 0.90117 0.0
H3533 H 0.82488 0.747 0.91145 0.0
H3534 H 0.76869 0.75057 0.87155 0.0
H3535 H 0.82744 0.75824 0.881 0.0
H3536 H 0.83019 0.79428 0.83354 0.0
H3537 H 0.82698 0.78267 0.86383 0.0
H3538 H 0.77352 0.74574 0.83987 0.0
H3539 H 0.7764 0.75866 0.80987 0.0
C3540 C 0.77955 0.7423 0.89723 0.0
C3541 C 0.79518 0.74098 0.90903 0.0
C3542 C 0.78109 0.74955 0.87985 0.0
C3543 C 0.79829 0.75548 0.87344 0.0
C3544 C 0.81391 0.7542 0.88529 0.0
C3545 C 0.81239 0.74729 0.9028 0.0
C3546 C 0.81775 0.78363 0.8347 0.0
C3547 C 0.80362 0.77729 0.81915 0.0
C3548 C 0.81593 0.77677 0.85216 0.0
C3549 C 0.80002 0.76299 0.85463 0.0
C3550 C 0.78591 0.75652 0.8389 0.0
C3551 C 0.78763 0.76371 0.82148 0.0
H3552 H 0.8473 0.07468 0.0198 0.0
H3553 H 0.87419 0.12449 0.99554 0.0
H3554 H 0.87338 0.05995 0.01579 0.0
H3555 H 0.90022 0.10971 0.99147 0.0
H3556 H 0.93512 0.06619 0.97127 0.0
H3557 H 0.90868 0.08079 0.97335 0.0
H3558 H 0.9055 0.06855 0.03114 0.0
H3559 H 0.93145 0.05338 0.02882 0.0
C3560 C 0.85881 0.08246 0.01364 0.0
C3561 C 0.85887 0.10076 0.00814 0.0
C3562 C 0.87368 0.07406 0.01135 0.0
C3563 C 0.88883 0.08385 1.00353 0.0
C3564 C 0.88863 0.10184 0.99743 0.0
C3565 C 0.87376 0.11026 0.99975 0.0
C3566 C 0.9287 0.0666 0.98437 0.0
C3567 C 0.93518 0.05858 0.99985 0.0
C3568 C 0.91371 0.07505 0.9856 0.0
C3569 C 0.90501 0.07555 1.00232 0.0
C3570 C 0.9118 0.068 0.01796 0.0
C3571 C 0.92677 0.05958 0.01674 0.0
H3572 H 0.42047 0.43688 0.045 0.0
H3573 H 0.39585 0.46903 0.00696 0.0
H3574 H 0.45077 0.45735 0.04299 0.0
H3575 H 0.426 0.4888 1.0044 0.0
H3576 H 0.47839 0.53734 0.02373 0.0
H3577 H 0.44905 0.51476 0.02341 0.0
H3578 H 0.47558 0.46634 0.02292 0.0
H3579 H 0.50544 0.48946 0.02323 0.0
C3580 C 0.42141 0.44826 0.03619 0.0
C3581 C 0.40539 0.45115 0.02623 0.0
C3582 C 0.43893 0.45988 0.03482 0.0
C3583 C 0.44109 0.47493 0.02356 0.0
C3584 C 0.42509 0.47762 0.01343 0.0
C3585 C 0.40765 0.46601 0.01474 0.0
C3586 C 0.47809 0.52184 0.02338 0.0
C3587 C 0.49446 0.51533 0.0235 0.0
C3588 C 0.46108 0.50876 0.02308 0.0
C3589 C 0.45963 0.48851 0.0231 0.0
C3590 C 0.47602 0.48181 0.02303 0.0
C3591 C 0.49319 0.49503 0.02304 0.0
H3592 H 0.39192 0.67346 0.7451 0.0
H3593 H 0.35748 0.64818 0.78459 0.0
H3594 H 0.37655 0.70081 0.7464 0.0
H3595 H 0.34212 0.67543 0.78586 0.0
H3596 H 0.30498 0.71808 0.77217 0.0
H3597 H 0.32104 0.69143 0.77146 0.0
H3598 H 0.37045 0.73125 0.76244 0.0
H3599 H 0.35428 0.7581 0.76342 0.0
C3600 C 0.38103 0.67345 0.75407 0.0
C3601 C 0.37634 0.65782 0.76468 0.0
C3602 C 0.37213 0.68957 0.75496 0.0
C3603 C 0.35762 0.69106 0.76622 0.0
C3604 C 0.35289 0.67539 0.77675 0.0
C3605 C 0.36201 0.65948 0.77614 0.0
C3606 C 0.31932 0.72142 0.77012 0.0
C3607 C 0.32796 0.7409 0.76793 0.0
C3608 C 0.32875 0.70583 0.76978 0.0
C3609 C 0.34748 0.70842 0.76687 0.0
C3610 C 0.35614 0.72793 0.76456 0.0
C3611 C 0.34674 0.74367 0.76524 0.0
H3612 H 0.19602 0.55922 0.5286 0.0
H3613 H 0.18703 0.58476 0.47771 0.0
H3614 H 0.16288 0.54842 0.52828 0.0
H3615 H 0.15452 0.57402 0.47735 0.0
H3616 H 0.09596 0.55171 0.47929 0.0
H3617 H 0.12688 0.54945 0.47567 0.0
H3618 H 0.14297 0.57143 0.53666 0.0
H3619 H 0.11138 0.5725 0.54064 0.0
C3620 C 0.187 0.56191 0.51703 0.0
C3621 C 0.19402 0.57324 0.50352 0.0
C3622 C 0.16815 0.55582 0.51688 0.0
C3623 C 0.15631 0.56093 0.50314 0.0
C3624 C 0.16336 0.56987 0.48814 0.0
C3625 C 0.1821 0.57598 0.48831 0.0
C3626 C 0.10603 0.55622 0.49199 0.0
C3627 C 0.10127 0.56247 0.51026 0.0
C3628 C 0.12371 0.5547 0.48988 0.0
C3629 C 0.13717 0.55998 0.50589 0.0
C3630 C 0.13264 0.56674 0.52415 0.0
C3631 C 0.11473 0.56788 0.52636 0.0
H3632 H 0.69643 0.95517 0.77269 0.0
H3633 H 0.74431 0.99037 0.75449 0.0
H3634 H 0.71368 0.93098 0.77938 0.0
H3635 H 0.76146 0.96599 0.76096 0.0
H3636 H 0.7756 0.90584 0.74994 0.0
H3637 H 0.75859 0.93077 0.7455 0.0
H3638 H 0.74108 0.92875 0.80183 0.0
H3639 H 0.75791 0.90334 0.80613 0.0
C3640 C 0.71068 0.95778 0.77029 0.0
C3641 C 0.71909 0.9745 0.76301 0.0
C3642 C 0.7205 0.94401 0.77414 0.0
C3643 C 0.73877 0.94675 0.77061 0.0
C3644 C 0.74726 0.96356 0.76355 0.0
C3645 C 0.73748 0.97738 0.75977 0.0
C3646 C 0.76796 0.91061 0.76127 0.0
C3647 C 0.76789 0.90277 0.77832 0.0
C3648 C 0.75845 0.92497 0.75883 0.0
C3649 C 0.74875 0.93164 0.77341 0.0
C3650 C 0.7485 0.92369 0.79043 0.0
C3651 C 0.75812 0.90934 0.79291 0.0
H3652 H 0.71601 0.92982 0.54591 0.0
H3653 H 0.7292 0.94086 0.48981 0.0
H3654 H 0.6904 0.94525 0.54251 0.0
H3655 H 0.70286 0.95534 0.48595 0.0
H3656 H 0.66857 1.00202 0.49695 0.0
H3657 H 0.69278 0.98423 0.49739 0.0
H3658 H 0.66065 0.94178 0.52656 0.0
H3659 H 0.63646 0.95963 0.52617 0.0
C3660 C 0.71348 0.93549 0.53281 0.0
C3661 C 0.72495 0.9342 0.51825 0.0
C3662 C 0.69852 0.9441 0.53071 0.0
C3663 C 0.69442 0.95161 0.51393 0.0
C3664 C 0.70565 0.94999 0.49919 0.0
C3665 C 0.72069 0.94143 0.50132 0.0
C3666 C 0.66649 0.98871 0.50318 0.0
C3667 C 0.65053 0.98244 0.5117 0.0
C3668 C 0.68045 0.97845 0.50344 0.0
C3669 C 0.67888 0.96161 0.51221 0.0
C3670 C 0.66262 0.95494 0.52009 0.0
C3671 C 0.64868 0.9652 0.51985 0.0
H3672 H 0.36309 0.43866 0.73002 0.0
H3673 H 0.37136 0.45223 0.79213 0.0
H3674 H 0.34782 0.40503 0.73129 0.0
H3675 H 0.35497 0.41884 0.79339 0.0
H3676 H 0.33029 0.35281 0.79411 0.0
H3677 H 0.34869 0.38584 0.79287 0.0
H3678 H 0.32495 0.37986 0.7338 0.0
H3679 H 0.30708 0.34698 0.73528 0.0
C3680 C 0.3618 0.4348 0.74412 0.0
C3681 C 0.36895 0.44926 0.76092 0.0
C3682 C 0.35251 0.41501 0.74487 0.0
C3683 C 0.34951 0.40817 0.76248 0.0
C3684 C 0.35673 0.4226 0.77931 0.0
C3685 C 0.36615 0.44239 0.77856 0.0
C3686 C 0.32945 0.35828 0.78064 0.0
C3687 C 0.31742 0.34645 0.76459 0.0
C3688 C 0.33989 0.37773 0.77995 0.0
C3689 C 0.33883 0.38657 0.76318 0.0
C3690 C 0.32693 0.37436 0.74708 0.0
C3691 C 0.31647 0.35506 0.74785 0.0
H3692 H 0.23502 0.65962 0.29193 0.0
H3693 H 0.25064 0.62548 0.24282 0.0
H3694 H 0.26148 0.68626 0.29202 0.0
H3695 H 0.27719 0.65255 0.24268 0.0
H3696 H 0.27941 0.71993 0.23204 0.0
H3697 H 0.2726 0.68497 0.23381 0.0
H3698 H 0.29592 0.69884 0.29376 0.0
H3699 H 0.30243 0.73388 0.29209 0.0
C3700 C 0.24447 0.65761 0.28156 0.0
C3701 C 0.24074 0.64079 0.26717 0.0
C3702 C 0.25975 0.67273 0.28172 0.0
C3703 C 0.27141 0.67125 0.26742 0.0
C3704 C 0.26841 0.65384 0.25387 0.0
C3705 C 0.25314 0.63862 0.25379 0.0
C3706 C 0.28365 0.71543 0.24537 0.0
C3707 C 0.29045 0.72931 0.26221 0.0
C3708 C 0.28007 0.69543 0.24632 0.0
C3709 C 0.28333 0.68945 0.26411 0.0
C3710 C 0.29306 0.70328 0.28002 0.0
C3711 C 0.29643 0.72324 0.27914 0.0
H3712 H 0.55327 0.68476 0.4596 0.0
H3713 H 0.49847 0.67441 0.47555 0.0
H3714 H 0.55833 0.6565 0.47332 0.0
H3715 H 0.50356 0.64622 0.48936 0.0
H3716 H 0.51005 0.58399 0.49209 0.0
H3717 H 0.50595 0.61374 0.48085 0.0
H3718 H 0.56285 0.64202 0.50079 0.0
H3719 H 0.56711 0.61175 0.51148 0.0
C3720 C 0.54232 0.67666 0.46623 0.0
C3721 C 0.52534 0.68198 0.46621 0.0
C3722 C 0.54527 0.66034 0.47418 0.0
C3723 C 0.53134 0.64875 0.48239 0.0
C3724 C 0.51453 0.65436 0.48278 0.0
C3725 C 0.51157 0.67064 0.4748 0.0
C3726 C 0.52173 0.59655 0.4942 0.0
C3727 C 0.53893 0.59534 0.50273 0.0
C3728 C 0.51932 0.6138 0.48784 0.0
C3729 C 0.53401 0.63054 0.48987 0.0
C3730 C 0.55121 0.62944 0.49868 0.0
C3731 C 0.55364 0.61208 0.505 0.0
H3732 H 0.68138 0.28894 0.65284 0.0
H3733 H 0.66164 0.311 0.70516 0.0
H3734 H 0.70784 0.28322 0.67189 0.0
H3735 H 0.68818 0.30583 0.72406 0.0
H3736 H 0.72488 0.27444 0.75467 0.0
H3737 H 0.6999 0.27992 0.73388 0.0
H3738 H 0.73704 0.29736 0.69329 0.0
H3739 H 0.76244 0.29171 0.71452 0.0
C3740 C 0.6826 0.29261 0.66839 0.0
C3741 C 0.66904 0.30041 0.67728 0.0
C3742 C 0.698 0.2895 0.67938 0.0
C3743 C 0.70036 0.29384 0.69971 0.0
C3744 C 0.68693 0.30191 0.70852 0.0
C3745 C 0.67165 0.30515 0.69758 0.0
C3746 C 0.72786 0.27926 0.74123 0.0
C3747 C 0.74588 0.28241 0.73638 0.0
C3748 C 0.7134 0.28265 0.72929 0.0
C3749 C 0.71619 0.28943 0.71183 0.0
C3750 C 0.73415 0.29207 0.70654 0.0
C3751 C 0.7488 0.28871 0.71868 0.0
H3752 H 0.05499 0.3778 0.99344 0.0
H3753 H 0.99945 0.37182 0.96779 0.0
H3754 H 0.05749 0.41274 1.0053 0.0
H3755 H 1.00207 0.40675 0.97896 0.0
H3756 H 1.00791 0.46883 0.01099 0.0
H3757 H 1.00434 0.433 1.00448 0.0
H3758 H 0.0606 0.44175 0.99271 0.0
H3759 H 0.06432 0.47712 1.00014 0.0
C3760 C 0.04332 0.38397 0.99036 0.0
C3761 C 0.02705 0.37208 0.97968 0.0
C3762 C 0.04475 0.40401 0.99706 0.0
C3763 C 0.03003 0.41268 0.99294 0.0
C3764 C 0.01359 0.4006 0.9827 0.0
C3765 C 0.0121 0.38054 0.97622 0.0
C3766 C 0.01948 0.46298 0.00712 0.0
C3767 C 0.03639 0.47571 1.00617 0.0
C3768 C 0.01745 0.44248 1.00332 0.0
C3769 C 0.03222 0.4344 0.99815 0.0
C3770 C 0.04906 0.44731 0.99714 0.0
C3771 C 0.05116 0.46767 1.00126 0.0
H3772 H 0.99375 0.82194 0.18009 0.0
H3773 H 0.97762 0.75994 0.15468 0.0
H3774 H 0.96596 0.81873 0.19489 0.0
H3775 H 0.95049 0.75627 0.17122 0.0
H3776 H 0.89441 0.75944 0.19119 0.0
H3777 H 0.92143 0.76136 0.17407 0.0
H3778 H 0.95222 0.80812 0.21969 0.0
H3779 H 0.92503 0.80692 0.23574 0.0
C3780 C 0.98434 0.80754 0.1776 0.0
C3781 C 0.98821 0.79126 0.166 0.0
C3782 C 0.96839 0.80557 0.18654 0.0
C3783 C 0.95585 0.78713 0.18471 0.0
C3784 C 0.95961 0.77079 0.17302 0.0
C3785 C 0.97546 0.77285 0.16372 0.0
C3786 C 0.90702 0.77012 0.19741 0.0
C3787 C 0.90758 0.78324 0.21464 0.0
C3788 C 0.9226 0.77119 0.18768 0.0
C3789 C 0.93919 0.78517 0.19518 0.0
C3790 C 0.93971 0.79765 0.2129 0.0
C3791 C 0.92412 0.79687 0.2223 0.0
H3792 H 0.54723 0.35922 0.11846 0.0
H3793 H 0.50037 0.33293 0.07531 0.0
H3794 H 0.5557 0.3866 0.10113 0.0
H3795 H 0.50822 0.36077 0.05873 0.0
H3796 H 0.5375 0.39901 0.02144 0.0
H3797 H 0.53231 0.37248 0.03989 0.0
H3798 H 0.54473 0.41519 0.09284 0.0
H3799 H 0.55102 0.44196 0.07431 0.0
C3800 C 0.53873 0.35932 0.10533 0.0
C3801 C 0.52319 0.3439 0.09816 0.0
C3802 C 0.54346 0.37508 0.09557 0.0
C3803 C 0.53269 0.37566 0.07856 0.0
C3804 C 0.51695 0.36048 0.07165 0.0
C3805 C 0.5123 0.34469 0.0813 0.0
C3806 C 0.5396 0.40278 0.03702 0.0
C3807 C 0.54465 0.42256 0.04644 0.0
C3808 C 0.53634 0.38759 0.04757 0.0
C3809 C 0.53783 0.39184 0.06773 0.0
C3810 C 0.5435 0.41156 0.07727 0.0
C3811 C 0.54692 0.42683 0.06668 0.0
H3812 H 0.99949 0.27243 0.30215 0.0
H3813 H 1.00255 0.33201 0.33071 0.0
H3814 H 0.96818 0.27029 0.28721 0.0
H3815 H 0.97172 0.32989 0.31598 0.0
H3816 H 0.92775 0.33107 0.27257 0.0
H3817 H 0.9585 0.32713 0.28073 0.0
H3818 H 0.93638 0.27237 0.29983 0.0
H3819 H 0.90527 0.27587 0.29093 0.0
C3820 C 0.99343 0.28497 0.30518 0.0
C3821 C 1.00339 0.30254 0.31711 0.0
C3822 C 0.97568 0.28375 0.2967 0.0
C3823 C 0.96793 0.3001 0.30017 0.0
C3824 C 0.97771 0.31733 0.31266 0.0
C3825 C 0.99529 0.31854 0.32106 0.0
C3826 C 0.92937 0.3178 0.2778 0.0
C3827 C 0.91421 0.30385 0.28132 0.0
C3828 C 0.94694 0.31565 0.2826 0.0
C3829 C 0.94961 0.29963 0.29112 0.0
C3830 C 0.93452 0.28482 0.29325 0.0
C3831 C 0.91683 0.28693 0.28836 0.0
H3832 H 0.99 0.66414 0.56421 0.0
H3833 H 0.01458 0.6489 0.61566 0.0
H3834 H 0.9963 0.63532 0.54494 0.0
H3835 H 0.02115 0.62014 0.59623 0.0
H3836 H 0.05229 0.59207 0.54857 0.0
H3837 H 0.04256 0.61646 0.57124 0.0
H3838 H 0.98796 0.5986 0.53995 0.0
H3839 H 0.99766 0.57449 0.51735 0.0
C3840 C 0.9964 0.6544 0.57144 0.0
C3841 C 1.00189 0.65878 0.59139 0.0
C3842 C 1.00003 0.63794 0.56042 0.0
C3843 C 0.00926 0.62564 0.56917 0.0
C3844 C 0.01422 0.6296 0.58919 0.0
C3845 C 0.01048 0.64601 0.60024 0.0
C3846 C 0.03821 0.59334 0.5467 0.0
C3847 C 0.02579 0.58181 0.53111 0.0
C3848 C 0.03261 0.6071 0.5597 0.0
C3849 C 0.01457 0.60944 0.55714 0.0
C3850 C 1.002 0.59724 0.54201 0.0
C3851 C 1.00757 0.58352 0.5291 0.0
H3852 H 0.65211 0.79013 0.80055 0.0
H3853 H 0.68713 0.84305 0.83557 0.0
H3854 H 0.67762 0.78494 0.7832 0.0
H3855 H 0.71213 0.83865 0.8174 0.0
H3856 H 0.75756 0.80875 0.80544 0.0
H3857 H 0.73042 0.81521 0.81851 0.0
H3858 H 0.69945 0.79625 0.76163 0.0
H3859 H 0.72686 0.78869 0.74879 0.0
C3860 C 0.66518 0.8008 0.80429 0.0
C3861 C 0.6678 0.81679 0.81959 0.0
C3862 C 0.67966 0.79798 0.7942 0.0
C3863 C 0.69687 0.81123 0.79921 0.0
C3864 C 0.69907 0.82798 0.81356 0.0
C3865 C 0.68471 0.83064 0.82379 0.0
C3866 C 0.74494 0.80615 0.79578 0.0
C3867 C 0.74407 0.79873 0.77619 0.0
C3868 C 0.72947 0.80994 0.80317 0.0
C3869 C 0.71298 0.80675 0.79096 0.0
C3870 C 0.71205 0.79891 0.77129 0.0
C3871 C 0.7276 0.79471 0.76394 0.0
H3872 H 0.45685 0.55139 0.641 0.0
H3873 H 0.50933 0.56253 0.67501 0.0
H3874 H 0.4714 0.54926 0.61145 0.0
H3875 H 0.52396 0.5593 0.64587 0.0
H3876 H 0.55205 0.56226 0.59197 0.0
H3877 H 0.53693 0.56433 0.62038 0.0
H3878 H 0.48457 0.54073 0.5852 0.0
H3879 H 0.50029 0.53915 0.55619 0.0
C3880 C 0.47157 0.55324 0.64228 0.0
C3881 C 0.48166 0.5573 0.66092 0.0
C3882 C 0.48014 0.5519 0.625 0.0
C3883 C 0.49938 0.55409 0.62516 0.0
C3884 C 0.50934 0.55785 0.64402 0.0
C3885 C 0.50081 0.55965 0.66125 0.0
C3886 C 0.53724 0.55745 0.59001 0.0
C3887 C 0.52776 0.55054 0.57113 0.0
C3888 C 0.52828 0.55851 0.60684 0.0
C3889 C 0.50896 0.55267 0.60624 0.0
C3890 C 0.49932 0.54563 0.58718 0.0
C3891 C 0.50845 0.54456 0.57014 0.0
H3892 H 0.78617 0.1931 0.92696 0.0
H3893 H 0.74979 0.22208 0.95779 0.0
H3894 H 0.77406 0.20162 0.89705 0.0
H3895 H 0.73697 0.22975 0.92787 0.0
H3896 H 0.74106 0.26083 0.8745 0.0
H3897 H 0.74543 0.25 0.90479 0.0
H3898 H 0.74552 0.19178 0.87483 0.0
H3899 H 0.74145 0.20289 0.84404 0.0
C3900 C 0.77584 0.20163 0.92731 0.0
C3901 C 0.76882 0.20702 0.94443 0.0
C3902 C 0.76857 0.20603 0.91021 0.0
C3903 C 0.75416 0.21575 0.91014 0.0
C3904 C 0.74793 0.22208 0.92753 0.0
C3905 C 0.7553 0.21783 0.94459 0.0
C3906 C 0.74094 0.24539 0.87421 0.0
C3907 C 0.74137 0.23279 0.85694 0.0
C3908 C 0.74365 0.23923 0.89168 0.0
C3909 C 0.74646 0.22029 0.89207 0.0
C3910 C 0.74399 0.2067 0.87479 0.0
C3911 C 0.74136 0.21292 0.85723 0.0
H3912 H 0.08596 0.54049 0.16677 0.0
H3913 H 0.13541 0.5533 0.13993 0.0
H3914 H 0.06757 0.53798 0.13597 0.0
H3915 H 0.1171 0.55002 0.10885 0.0
H3916 H 0.07844 0.56398 0.06254 0.0
H3917 H 0.09745 0.56663 0.09282 0.0
H3918 H 0.05955 0.51582 0.10555 0.0
H3919 H 0.04009 0.51375 0.07549 0.0
C3920 C 0.09278 0.54269 0.15416 0.0
C3921 C 0.11191 0.54705 0.15539 0.0
C3922 C 0.08235 0.5411 0.1366 0.0
C3923 C 0.09096 0.54358 0.12008 0.0
C3924 C 0.11017 0.54823 0.12145 0.0
C3925 C 0.12061 0.55009 0.1391 0.0
C3926 C 0.07424 0.55337 0.07183 0.0
C3927 C 0.05783 0.53877 0.067 0.0
C3928 C 0.08515 0.5548 0.08905 0.0
C3929 C 0.07987 0.54149 0.10149 0.0
C3930 C 0.06369 0.5265 0.09633 0.0
C3931 C 0.05265 0.52523 0.07918 0.0
H3932 H 0.77703 0.84204 0.41887 0.0
H3933 H 0.81372 0.80508 0.43144 0.0
H3934 H 0.77804 0.83248 0.38468 0.0
H3935 H 0.81596 0.79677 0.39728 0.0
H3936 H 0.80537 0.77368 0.33211 0.0
H3937 H 0.80277 0.78013 0.3666 0.0
H3938 H 0.79749 0.83923 0.36188 0.0
H3939 H 0.79887 0.83205 0.32736 0.0
C3940 C 0.7852 0.83172 0.41439 0.0
C3941 C 0.79542 0.8245 0.42807 0.0
C3942 C 0.7861 0.82652 0.39469 0.0
C3943 C 0.79746 0.8142 0.38807 0.0
C3944 C 0.80705 0.80629 0.4017 0.0
C3945 C 0.80595 0.81127 0.42139 0.0
C3946 C 0.80394 0.7881 0.33866 0.0
C3947 C 0.80248 0.80246 0.32731 0.0
C3948 C 0.80241 0.79185 0.3584 0.0
C3949 C 0.79968 0.81017 0.36716 0.0
C3950 C 0.79901 0.82475 0.35569 0.0
C3951 C 0.80012 0.82082 0.33596 0.0
H3952 H 0.474 0.52857 0.8594 0.0
H3953 H 0.49993 0.59082 0.87222 0.0
H3954 H 0.4875 0.52447 0.89046 0.0
H3955 H 0.51371 0.58669 0.90338 0.0
H3956 H 0.52588 0.57799 0.9662 0.0
H3957 H 0.51303 0.58246 0.93479 0.0
H3958 H 0.51078 0.5215 0.91181 0.0
H3959 H 0.5231 0.517 0.94344 0.0
C3960 C 0.48279 0.5415 0.86861 0.0
C3961 C 0.48564 0.56011 0.8626 0.0
C3962 C 0.49071 0.53909 0.8868 0.0
C3963 C 0.50205 0.55513 0.90016 0.0
C3964 C 0.50495 0.57378 0.89414 0.0
C3965 C 0.49694 0.5762 0.87593 0.0
C3966 C 0.52264 0.56545 0.9545 0.0
C3967 C 0.52563 0.54705 0.95786 0.0
C3968 C 0.51528 0.56807 0.93614 0.0
C3969 C 0.51049 0.55242 0.92005 0.0
C3970 C 0.51373 0.53405 0.92344 0.0
C3971 C 0.52107 0.53144 0.94182 0.0
H3972 H 0.80692 0.20685 0.13369 0.0
H3973 H 0.76387 0.23151 0.11037 0.0
H3974 H 0.80852 0.22779 0.16482 0.0
H3975 H 0.7654 0.25245 0.14182 0.0
H3976 H 0.79578 0.30131 0.19737 0.0
H3977 H 0.79073 0.28146 0.16478 0.0
H3978 H 0.78499 0.22826 0.18929 0.0
H3979 H 0.78976 0.24778 0.22148 0.0
C3980 C 0.7979 0.21687 0.13522 0.0
C3981 C 0.7853 0.21763 0.1197 0.0
C3982 C 0.79872 0.2287 0.15302 0.0
C3983 C 0.78701 0.24157 0.15559 0.0
C3984 C 0.77457 0.24263 0.14005 0.0
C3985 C 0.77363 0.23061 0.12221 0.0
C3986 C 0.79316 0.28537 0.19567 0.0
C3987 C 0.79333 0.27607 0.21182 0.0
C3988 C 0.79023 0.27407 0.17714 0.0
C3989 C 0.78772 0.25345 0.17472 0.0
C3990 C 0.78712 0.24417 0.19088 0.0
C3991 C 0.78979 0.25536 0.20926 0.0
H3992 H 0.1346 0.54809 0.35017 0.0
H3993 H 0.09104 0.5696 0.32301 0.0
H3994 H 0.12944 0.56349 0.38112 0.0
H3995 H 0.08888 0.58876 0.35301 0.0
H3996 H 0.06887 0.59499 0.41065 0.0
H3997 H 0.07828 0.59096 0.37968 0.0
H3998 H 0.13218 0.58831 0.40484 0.0
H3999 H 0.12129 0.58975 0.43621 0.0
C4000 C 0.12397 0.55618 0.3507 0.0
C4001 C 0.11342 0.55775 0.33387 0.0
C4002 C 0.12149 0.56584 0.36858 0.0
C4003 C 0.10906 0.57815 0.37002 0.0
C4004 C 0.09843 0.5794 0.35308 0.0
C4005 C 0.09997 0.56863 0.33549 0.0
C4006 C 0.08303 0.59443 0.40976 0.0
C4007 C 0.09406 0.59166 0.42559 0.0
C4008 C 0.08856 0.59191 0.39162 0.0
C4009 C 0.10572 0.5877 0.38921 0.0
C4010 C 0.11831 0.58981 0.40582 0.0
C4011 C 0.11237 0.59136 0.42397 0.0
H4012 H 0.82461 0.85618 0.63951 0.0
H4013 H 0.7731 0.81612 0.61413 0.0
H4014 H 0.82221 0.84289 0.66921 0.0
H4015 H 0.77006 0.80398 0.64419 0.0
H4016 H 0.77764 0.76998 0.6921 0.0
H4017 H 0.7806 0.78407 0.66316 0.0
H4018 H 0.80811 0.84077 0.69757 0.0
H4019 H 0.80562 0.8261 0.72692 0.0
C4020 C 0.81274 0.84454 0.64013 0.0
C4021 C 0.79912 0.8373 0.62405 0.0
C4022 C 0.81121 0.83712 0.65745 0.0
C4023 C 0.79594 0.82225 0.6594 0.0
C4024 C 0.78223 0.81516 0.64339 0.0
C4025 C 0.78384 0.82243 0.62605 0.0
C4026 C 0.78432 0.7855 0.69361 0.0
C4027 C 0.79134 0.79689 0.71194 0.0
C4028 C 0.78589 0.7937 0.67686 0.0
C4029 C 0.79445 0.81374 0.67772 0.0
C4030 C 0.80155 0.82524 0.69614 0.0
C4031 C 0.80002 0.81691 0.71305 0.0
H4032 H 0.71495 0.45104 0.53465 0.0
H4033 H 0.74038 0.49938 0.50777 0.0
H4034 H 0.68977 0.46685 0.54082 0.0
H4035 H 0.71513 0.51518 0.51373 0.0
H4036 H 0.67754 0.54681 0.54475 0.0
H4037 H 0.70275 0.53062 0.54209 0.0
H4038 H 0.66422 0.4746 0.52066 0.0
H4039 H 0.63883 0.49062 0.52415 0.0
C4040 C 0.71506 0.46507 0.53011 0.0
C4041 C 0.72935 0.47409 0.52071 0.0
C4042 C 0.70071 0.47402 0.53354 0.0
C4043 C 0.70062 0.49217 0.52775 0.0
C4044 C 0.71504 0.50125 0.51847 0.0
C4045 C 0.72931 0.4922 0.51489 0.0
C4046 C 0.67441 0.53098 0.53983 0.0
C4047 C 0.65624 0.51997 0.53455 0.0
C4048 C 0.68884 0.5218 0.53811 0.0
C4049 C 0.68534 0.50149 0.53099 0.0
C4050 C 0.6672 0.49031 0.52625 0.0
C4051 C 0.65273 0.49949 0.52804 0.0
H4052 H 0.17409 0.13429 0.47952 0.0
H4053 H 0.19621 0.11569 0.53009 0.0
H4054 H 0.14375 0.11425 0.48194 0.0
H4055 H 0.16589 0.0962 0.53281 0.0
H4056 H 0.11469 0.0442 0.51736 0.0
H4057 H 0.14437 0.06643 0.51729 0.0
H4058 H 0.11731 0.1102 0.50006 0.0
H4059 H 0.08744 0.08743 0.49995 0.0
C4060 C 0.17258 0.12596 0.49117 0.0
C4061 C 0.18789 0.12675 0.50455 0.0
C4062 C 0.15501 0.11461 0.49271 0.0
C4063 C 0.15211 0.10346 0.50759 0.0
C4064 C 0.16741 0.10434 0.52101 0.0
C4065 C 0.18491 0.11577 0.51955 0.0
C4066 C 0.11503 0.05873 0.5139 0.0
C4067 C 0.09855 0.06417 0.50907 0.0
C4068 C 0.13215 0.07158 0.51389 0.0
C4069 C 0.13352 0.09033 0.5087 0.0
C4070 C 0.11698 0.09592 0.50408 0.0
C4071 C 0.09975 0.08304 0.50436 0.0
H4072 H 0.23746 0.93337 0.79073 0.0
H4073 H 0.19898 0.90019 0.74206 0.0
H4074 H 0.2528 0.90627 0.78998 0.0
H4075 H 0.21454 0.87304 0.74119 0.0
H4076 H 0.2387 0.81839 0.75254 0.0
H4077 H 0.22237 0.84508 0.75277 0.0
H4078 H 0.2725 0.88781 0.77688 0.0
H4079 H 0.28862 0.86133 0.77652 0.0
C4080 C 0.23201 0.92037 0.77979 0.0
C4081 C 0.21649 0.9198 0.76651 0.0
C4082 C 0.24116 0.9045 0.77922 0.0
C4083 C 0.23541 0.88668 0.76547 0.0
C4084 C 0.21979 0.88599 0.75225 0.0
C4085 C 0.21076 0.90201 0.75266 0.0
C4086 C 0.24636 0.83345 0.75791 0.0
C4087 C 0.26537 0.83707 0.7645 0.0
C4088 C 0.23686 0.84909 0.75798 0.0
C4089 C 0.24565 0.86938 0.76495 0.0
C4090 C 0.26464 0.87284 0.77158 0.0
C4091 C 0.27413 0.85731 0.77125 0.0
H4092 H 0.40016 0.02321 0.02809 0.0
H4093 H 0.41101 0.97135 0.04823 0.0
H4094 H 0.43109 0.03165 0.02023 0.0
H4095 H 0.44258 0.98124 0.04278 0.0
H4096 H 0.48681 0.98366 1.0053 0.0
H4097 H 0.45566 0.97822 0.01405 0.0
H4098 H 0.46201 0.04165 0.02792 0.0
H4099 H 0.49213 0.04665 0.01759 0.0
C4100 C 0.40936 0.01404 0.03154 0.0
C4101 C 0.4029 0.99613 0.03784 0.0
C4102 C 0.42717 0.01895 0.02717 0.0
C4103 C 0.439 1.00652 0.03003 0.0
C4104 C 0.43341 0.99047 0.03943 0.0
C4105 C 0.4154 0.98513 0.04309 0.0
C4106 C 0.48101 0.99622 0.00943 0.0
C4107 C 0.49137 0.01547 0.01078 0.0
C4108 C 0.4635 0.99324 0.01493 0.0
C4109 C 0.45663 0.00956 0.02228 0.0
C4110 C 0.46679 0.02878 0.02231 0.0
C4111 C 0.48399 0.03167 0.01636 0.0
H4112 H 0.85314 0.58294 0.74651 0.0
H4113 H 0.88804 0.62791 0.79092 0.0
H4114 H 0.83671 0.607 0.73741 0.0
H4115 H 0.87125 0.65195 0.78222 0.0
H4116 H 0.85029 0.6938 0.74879 0.0
H4117 H 0.86723 0.66893 0.75425 0.0
H4118 H 0.81615 0.62581 0.75194 0.0
H4119 H 0.79928 0.65051 0.7467 0.0
C4120 C 0.85712 0.59798 0.75438 0.0
C4121 C 0.87174 0.60377 0.76934 0.0
C4122 C 0.84776 0.61166 0.74923 0.0
C4123 C 0.85292 0.63127 0.75901 0.0
C4124 C 0.8673 0.63695 0.77427 0.0
C4125 C 0.87666 0.62322 0.77944 0.0
C4126 C 0.84273 0.67892 0.74919 0.0
C4127 C 0.82351 0.67404 0.74737 0.0
C4128 C 0.85239 0.66479 0.75239 0.0
C4129 C 0.84291 0.64564 0.7537 0.0
C4130 C 0.82372 0.64048 0.75081 0.0
C4131 C 0.81408 0.65458 0.74769 0.0
H4132 H 0.86261 0.63275 0.04026 0.0
H4133 H 0.8785 0.64923 0.98673 0.0
H4134 H 0.88896 0.61849 0.04395 0.0
H4135 H 0.90397 0.6336 0.98966 0.0
H4136 H 0.95719 0.61732 1.00557 0.0
H4137 H 0.9329 0.63506 1.00518 0.0
H4138 H 0.90012 0.59125 0.03247 0.0
H4139 H 0.92453 0.57382 0.03317 0.0
C4140 C 0.87167 0.63341 0.02924 0.0
C4141 C 0.86815 0.64219 0.01311 0.0
C4142 C 0.88674 0.6249 0.03123 0.0
C4143 C 0.89872 0.62466 0.01707 0.0
C4144 C 0.89531 0.63362 1.00106 0.0
C4145 C 0.88037 0.64233 0.99917 0.0
C4146 C 0.9448 0.61148 0.01151 0.0
C4147 C 0.94287 0.59402 0.0193 0.0
C4148 C 0.93077 0.62165 0.01123 0.0
C4149 C 0.91429 0.6146 0.01861 0.0
C4150 C 0.9126 0.59741 0.02686 0.0
C4151 C 0.92667 0.58732 0.02725 0.0
H4152 H 0.24851 0.12683 0.78639 0.0
H4153 H 0.20045 0.13609 0.7549 0.0
H4154 H 0.26474 0.16035 0.78544 0.0
H4155 H 0.2171 0.16971 0.75328 0.0
H4156 H 0.25003 0.23736 0.76435 0.0
H4157 H 0.2313 0.20421 0.76603 0.0
H4158 H 0.28019 0.18202 0.76839 0.0
H4159 H 0.29839 0.21443 0.76717 0.0
C4160 C 0.24117 0.13584 0.77923 0.0
C4161 C 0.22275 0.12784 0.77076 0.0
C4162 C 0.25078 0.15545 0.7784 0.0
C4163 C 0.24273 0.16854 0.76903 0.0
C4164 C 0.2242 0.1607 0.76074 0.0
C4165 C 0.21455 0.14095 0.76151 0.0
C4166 C 0.25682 0.22548 0.76536 0.0
C4167 C 0.27613 0.22927 0.76578 0.0
C4168 C 0.24595 0.20613 0.76622 0.0
C4169 C 0.25386 0.18968 0.76767 0.0
C4170 C 0.27309 0.19373 0.76785 0.0
C4171 C 0.28375 0.21275 0.76695 0.0
H4172 H 0.34672 0.93752 0.23322 0.0
H4173 H 0.38615 0.91172 0.26158 0.0
H4174 H 0.3219 0.9111 0.23857 0.0
H4175 H 0.36151 0.8847 0.26625 0.0
H4176 H 0.32027 0.8579 0.2977 0.0
H4177 H 0.33977 0.88727 0.28968 0.0
H4178 H 0.30659 0.87709 0.23431 0.0
H4179 H 0.2865 0.84877 0.24298 0.0
C4180 C 0.35005 0.92539 0.23943 0.0
C4181 C 0.36801 0.92646 0.24726 0.0
C4182 C 0.3359 0.91054 0.24283 0.0
C4183 C 0.33987 0.89664 0.25374 0.0
C4184 C 0.35816 0.89592 0.25861 0.0
C4185 C 0.37226 0.9109 0.25541 0.0
C4186 C 0.31651 0.86279 0.28443 0.0
C4187 C 0.30248 0.85099 0.27058 0.0
C4188 C 0.3279 0.87918 0.27958 0.0
C4189 C 0.32519 0.88352 0.26093 0.0
C4190 C 0.30917 0.87376 0.2486 0.0
C4191 C 0.2976 0.8577 0.25364 0.0
H4192 H 0.58288 0.39332 0.54383 0.0
H4193 H 0.54556 0.40337 0.5851 0.0
H4194 H 0.57796 0.42183 0.53026 0.0
H4195 H 0.54034 0.43144 0.57115 0.0
H4196 H 0.52279 0.47096 0.53101 0.0
H4197 H 0.52674 0.44085 0.54227 0.0
H4198 H 0.58481 0.45801 0.53899 0.0
H4199 H 0.58086 0.48814 0.52779 0.0
C4200 C 0.5737 0.40157 0.55015 0.0
C4201 C 0.56473 0.39583 0.56575 0.0
C4202 C 0.57082 0.41795 0.54226 0.0
C4203 C 0.55875 0.42903 0.54958 0.0
C4204 C 0.54954 0.42314 0.56492 0.0
C4205 C 0.55254 0.4069 0.57293 0.0
C4206 C 0.53638 0.46822 0.5325 0.0
C4207 C 0.55151 0.48202 0.5285 0.0
C4208 C 0.53867 0.45101 0.53912 0.0
C4209 C 0.55612 0.44695 0.54165 0.0
C4210 C 0.57116 0.46051 0.53711 0.0
C4211 C 0.56891 0.47787 0.53077 0.0
H4212 H 0.40227 0.76627 0.3712 0.0
H4213 H 0.43676 0.78988 0.33072 0.0
H4214 H 0.37538 0.77059 0.35166 0.0
H4215 H 0.41053 0.79539 0.31225 0.0
H4216 H 0.3612 0.7852 0.26955 0.0
H4217 H 0.38571 0.77987 0.2906 0.0
H4218 H 0.35672 0.7911 0.33943 0.0
H4219 H 0.33107 0.79558 0.3175 0.0
C4220 C 0.40426 0.77239 0.35821 0.0
C4221 C 0.42208 0.77767 0.35281 0.0
C4222 C 0.38872 0.77514 0.34705 0.0
C4223 C 0.39035 0.78323 0.33001 0.0
C4224 C 0.40822 0.78869 0.32487 0.0
C4225 C 0.4236 0.78583 0.33585 0.0
C4226 C 0.35984 0.78666 0.28477 0.0
C4227 C 0.34399 0.79113 0.29163 0.0
C4228 C 0.37424 0.78373 0.29707 0.0
C4229 C 0.37385 0.78549 0.31711 0.0
C4230 C 0.35778 0.7896 0.32416 0.0
C4231 C 0.34302 0.79232 0.31158 0.0
H4232 H 0.06377 0.69664 0.0824 0.0
H4233 H 0.06536 0.70685 0.02396 0.0
H4234 H 0.0615 0.66146 0.07148 0.0
H4235 H 0.06331 0.6715 0.01288 0.0
H4236 H 0.03751 0.60271 1.00278 0.0
H4237 H 0.04035 0.63833 0.01127 0.0
H4238 H 0.0831 0.64187 0.05749 0.0
H4239 H 0.08036 0.60634 0.04891 0.0
C4240 C 0.06364 0.69122 0.0672 0.0
C4241 C 0.06483 0.7042 0.05396 0.0
C4242 C 0.06244 0.67121 0.06098 0.0
C4243 C 0.06248 0.66388 0.04139 0.0
C4244 C 0.06322 0.67684 0.02805 0.0
C4245 C 0.06441 0.69694 0.03432 0.0
C4246 C 0.04763 0.6112 0.01462 0.0
C4247 C 0.05868 0.60189 0.02525 0.0
C4248 C 0.0493 0.63153 0.0194 0.0
C4249 C 0.06182 0.64275 0.03512 0.0
C4250 C 0.07322 0.63348 0.04542 0.0
C4251 C 0.07176 0.61323 0.04043 0.0
H4252 H 0.09788 0.31096 0.85181 0.0
H4253 H 0.11388 0.26554 0.87922 0.0
H4254 H 0.12617 0.31584 0.83707 0.0
H4255 H 0.14182 0.26985 0.86392 0.0
H4256 H 0.19787 0.29219 0.84572 0.0
H4257 H 0.17109 0.29072 0.86289 0.0
H4258 H 0.14001 0.30016 0.8123 0.0
H4259 H 0.16673 0.30173 0.79525 0.0
C4260 C 0.10746 0.30205 0.85478 0.0
C4261 C 0.10344 0.28775 0.86665 0.0
C4262 C 0.12365 0.3047 0.84613 0.0
C4263 C 0.13637 0.29316 0.84911 0.0
C4264 C 0.13252 0.27916 0.86133 0.0
C4265 C 0.11631 0.27648 0.86994 0.0
C4266 C 0.18532 0.29395 0.83824 0.0
C4267 C 0.18456 0.29705 0.81902 0.0
C4268 C 0.1699 0.29307 0.8481 0.0
C4269 C 0.15322 0.29522 0.83904 0.0
C4270 C 0.15261 0.29874 0.81995 0.0
C4271 C 0.16802 0.29965 0.81012 0.0
H4272 H 0.54538 0.74234 0.94365 0.0
H4273 H 0.59271 0.72373 0.92468 0.0
H4274 H 0.53836 0.71397 0.95996 0.0
H4275 H 0.58548 0.69511 0.94043 0.0
H4276 H 0.58231 0.66383 0.99167 0.0
H4277 H 0.58713 0.6901 0.97282 0.0
H4278 H 0.52865 0.6785 0.95599 0.0
H4279 H 0.52385 0.6524 0.97555 0.0
C4280 C 0.55411 0.73201 0.9428 0.0
C4281 C 0.56972 0.73527 0.93321 0.0
C4282 C 0.55005 0.71574 0.95201 0.0
C4283 C 0.56148 0.70244 0.95162 0.0
C4284 C 0.57668 0.70537 0.94137 0.0
C4285 C 0.58083 0.72171 0.93236 0.0
C4286 C 0.57052 0.66679 0.98379 0.0
C4287 C 0.55274 0.65614 0.98492 0.0
C4288 C 0.57326 0.68176 0.97293 0.0
C4289 C 0.55828 0.68622 0.96277 0.0
C4290 C 0.54043 0.67548 0.96382 0.0
C4291 C 0.53768 0.66057 0.97492 0.0
H4292 H 0.08229 0.76049 0.73964 0.0
H4293 H 0.10049 0.79165 0.69417 0.0
H4294 H 0.11425 0.76237 0.75166 0.0
H4295 H 0.13223 0.79369 0.70622 0.0
H4296 H 0.17724 0.75901 0.71304 0.0
H4297 H 0.14689 0.76439 0.70521 0.0
H4298 H 0.14561 0.78695 0.76524 0.0
H4299 H 0.17628 0.78162 0.77315 0.0
C4300 C 0.09317 0.76809 0.73256 0.0
C4301 C 0.08915 0.77597 0.71611 0.0
C4302 C 0.11133 0.76929 0.73946 0.0
C4303 C 0.12548 0.77814 0.72976 0.0
C4304 C 0.12144 0.7868 0.71385 0.0
C4305 C 0.10337 0.78574 0.70707 0.0
C4306 C 0.17061 0.76546 0.7245 0.0
C4307 C 0.17896 0.77001 0.74364 0.0
C4308 C 0.15332 0.76854 0.72003 0.0
C4309 C 0.14417 0.77622 0.73466 0.0
C4310 C 0.15253 0.78097 0.75382 0.0
C4311 C 0.16992 0.7779 0.7583 0.0
H4312 H 0.10403 0.41313 0.47071 0.0
H4313 H 0.07985 0.42891 0.41948 0.0
H4314 H 0.0968 0.44143 0.49041 0.0
H4315 H 0.0722 0.45681 0.43902 0.0
H4316 H 0.07413 0.51409 0.47955 0.0
H4317 H 0.08496 0.48848 0.45988 0.0
H4318 H 0.06786 0.44846 0.49908 0.0
H4319 H 0.05735 0.47441 0.51886 0.0
C4320 C 0.09755 0.42296 0.46371 0.0
C4321 C 0.09239 0.41903 0.44375 0.0
C4322 C 0.0932 0.43891 0.47492 0.0
C4323 C 0.08373 0.45107 0.46621 0.0
C4324 C 0.07957 0.44772 0.44608 0.0
C4325 C 0.08387 0.43179 0.43493 0.0
C4326 C 0.07239 0.49966 0.48362 0.0
C4327 C 0.06464 0.49578 0.50025 0.0
C4328 C 0.07869 0.48511 0.47253 0.0
C4329 C 0.07732 0.46658 0.47805 0.0
C4330 C 0.06936 0.46275 0.49471 0.0
C4331 C 0.06315 0.47737 0.50584 0.0
H4332 H 0.43739 0.29673 0.2235 0.0
H4333 H 0.40988 0.23522 0.20369 0.0
H4334 H 0.41165 0.30156 0.24042 0.0
H4335 H 0.38528 0.23951 0.22225 0.0
H4336 H 0.3334 0.25902 0.22923 0.0
H4337 H 0.36111 0.25407 0.21675 0.0
H4338 H 0.3936 0.29589 0.26541 0.0
H4339 H 0.36533 0.30188 0.27712 0.0
C4340 C 0.42598 0.28419 0.22299 0.0
C4341 C 0.42547 0.26571 0.21191 0.0
C4342 C 0.4114 0.28687 0.23299 0.0
C4343 C 0.39628 0.27099 0.23237 0.0
C4344 C 0.3965 0.25218 0.22254 0.0
C4345 C 0.41078 0.24964 0.21215 0.0
C4346 C 0.3465 0.26696 0.23734 0.0
C4347 C 0.34746 0.28051 0.25422 0.0
C4348 C 0.36239 0.26404 0.23031 0.0
C4349 C 0.37959 0.27422 0.24035 0.0
C4350 C 0.38053 0.28787 0.25735 0.0
C4351 C 0.36448 0.29121 0.26412 0.0
H4352 H 0.62852 0.54639 0.38635 0.0
H4353 H 0.58724 0.49364 0.36159 0.0
H4354 H 0.61396 0.54874 0.41588 0.0
H4355 H 0.57296 0.49568 0.39111 0.0
H4356 H 0.53964 0.51018 0.43985 0.0
H4357 H 0.55505 0.50868 0.41135 0.0
H4358 H 0.60605 0.54014 0.4458 0.0
H4359 H 0.59011 0.54201 0.47482 0.0
C4360 C 0.6163 0.5352 0.38695 0.0
C4361 C 0.60941 0.51977 0.37081 0.0
C4362 C 0.6079 0.53646 0.40433 0.0
C4363 C 0.59188 0.52252 0.4067 0.0
C4364 C 0.58499 0.50712 0.39051 0.0
C4365 C 0.59348 0.50576 0.37324 0.0
C4366 C 0.55421 0.5168 0.44168 0.0
C4367 C 0.5633 0.52612 0.4603 0.0
C4368 C 0.56328 0.51579 0.42492 0.0
C4369 C 0.58226 0.52401 0.42544 0.0
C4370 C 0.5915 0.53356 0.44412 0.0
C4371 C 0.58229 0.53458 0.4611 0.0
H4372 H 0.30824 0.88711 0.10865 0.0
H4373 H 0.33986 0.8555 0.07326 0.0
H4374 H 0.32159 0.877 0.13716 0.0
H4375 H 0.35386 0.84614 0.10166 0.0
H4376 H 0.34967 0.81233 0.15301 0.0
H4377 H 0.34462 0.8251 0.12403 0.0
H4378 H 0.35154 0.88358 0.15733 0.0
H4379 H 0.35658 0.8706 0.18694 0.0
C4380 C 0.31781 0.87771 0.10704 0.0
C4381 C 0.32307 0.87188 0.08903 0.0
C4382 C 0.32578 0.87239 0.12329 0.0
C4383 C 0.33912 0.86128 0.12157 0.0
C4384 C 0.34373 0.85482 0.10335 0.0
C4385 C 0.33567 0.86 0.08716 0.0
C4386 C 0.35122 0.82813 0.1543 0.0
C4387 C 0.35308 0.8404 0.17234 0.0
C4388 C 0.34811 0.83543 0.13755 0.0
C4389 C 0.34712 0.85515 0.13858 0.0
C4390 C 0.35171 0.86813 0.15634 0.0
C4391 C 0.35483 0.86079 0.1732 0.0
H4392 H 0.96371 0.51367 0.8861 0.0
H4393 H 1.00509 0.56183 0.87403 0.0
H4394 H 0.98154 0.51504 0.91686 0.0
H4395 H 0.02327 0.56287 0.90448 0.0
H4396 H 0.044 0.5718 0.96737 0.0
H4397 H 0.02401 0.57149 0.93812 0.0
H4398 H 0.00871 0.50749 0.92898 0.0
H4399 H 0.02757 0.50815 0.95898 0.0
C4400 C 0.9767 0.52445 0.89005 0.0
C4401 C 0.98312 0.53768 0.87789 0.0
C4402 C 0.98692 0.52521 0.90757 0.0
C4403 C 1.00377 0.53908 0.91304 0.0
C4404 C 0.01014 0.5523 0.90081 0.0
C4405 C 0.99982 0.55168 0.88339 0.0
C4406 C 0.03627 0.55779 0.95897 0.0
C4407 C 0.03722 0.54 0.96492 0.0
C4408 C 0.02493 0.55755 0.94231 0.0
C4409 C 0.01493 0.53945 0.93123 0.0
C4410 C 0.01599 0.52166 0.9374 0.0
C4411 C 0.02686 0.52198 0.95437 0.0
H4412 H 0.27776 0.27325 0.59996 0.0
H4413 H 0.31073 0.2327 0.61235 0.0
H4414 H 0.27595 0.28225 0.63443 0.0
H4415 H 0.30905 0.24171 0.64675 0.0
H4416 H 0.28408 0.24381 0.70293 0.0
H4417 H 0.2854 0.23642 0.66822 0.0
H4418 H 0.29435 0.29865 0.66565 0.0
H4419 H 0.2926 0.30582 0.70038 0.0
C4420 C 0.28475 0.26642 0.6101 0.0
C4421 C 0.29437 0.25228 0.6035 0.0
C4422 C 0.28378 0.2716 0.62982 0.0
C4423 C 0.29216 0.26252 0.64333 0.0
C4424 C 0.30219 0.24876 0.63671 0.0
C4425 C 0.30334 0.24376 0.61704 0.0
C4426 C 0.28593 0.25578 0.69478 0.0
C4427 C 0.28787 0.27528 0.70406 0.0
C4428 C 0.28694 0.25163 0.675 0.0
C4429 C 0.29014 0.26696 0.66418 0.0
C4430 C 0.29168 0.28649 0.67351 0.0
C4431 C 0.2906 0.29061 0.69332 0.0
H4432 H 0.59993 0.54595 0.18033 0.0
H4433 H 0.61023 0.49095 0.15388 0.0
H4434 H 0.58621 0.55026 0.14962 0.0
H4435 H 0.59679 0.49508 0.12296 0.0
H4436 H 0.57031 0.5027 0.06513 0.0
H4437 H 0.58252 0.49766 0.09618 0.0
H4438 H 0.57766 0.5559 0.12157 0.0
H4439 H 0.56513 0.56044 0.0903 0.0
C4440 C 0.59947 0.53471 0.16793 0.0
C4441 C 0.60658 0.51809 0.1702 0.0
C4442 C 0.59139 0.53718 0.14979 0.0
C4443 C 0.59003 0.52327 0.13259 0.0
C4444 C 0.59704 0.50649 0.13506 0.0
C4445 C 0.60494 0.50396 0.15327 0.0
C4446 C 0.57178 0.51448 0.07734 0.0
C4447 C 0.56659 0.53207 0.07469 0.0
C4448 C 0.57905 0.51164 0.09565 0.0
C4449 C 0.58167 0.52626 0.11255 0.0
C4450 C 0.57622 0.54385 0.10972 0.0
C4451 C 0.56891 0.54664 0.09137 0.0
H4452 H 0.33139 0.85032 0.92124 0.0
H4453 H 0.28132 0.86621 0.90231 0.0
H4454 H 0.33011 0.83065 0.88937 0.0
H4455 H 0.27962 0.84584 0.87101 0.0
H4456 H 0.29512 0.83048 0.81173 0.0
H4457 H 0.2983 0.84926 0.84407 0.0
H4458 H 0.31026 0.79978 0.86781 0.0
H4459 H 0.30694 0.78075 0.83509 0.0
C4460 C 0.3201 0.84954 0.91034 0.0
C4461 C 0.30649 0.85985 0.91425 0.0
C4462 C 0.31928 0.83813 0.89223 0.0
C4463 C 0.30484 0.83689 0.87782 0.0
C4464 C 0.29103 0.8468 0.88186 0.0
C4465 C 0.29189 0.85825 0.89986 0.0
C4466 C 0.29865 0.82367 0.82382 0.0
C4467 C 0.30073 0.80418 0.82107 0.0
C4468 C 0.30032 0.83436 0.84231 0.0
C4469 C 0.3043 0.82582 0.85834 0.0
C4470 C 0.30716 0.80661 0.8556 0.0
C4471 C 0.30522 0.79576 0.83701 0.0
H4472 H 0.94821 0.50952 0.67799 0.0
H4473 H 0.99932 0.51092 0.71137 0.0
H4474 H 0.95998 0.49802 0.6485 0.0
H4475 H 0.01071 0.49757 0.68244 0.0
H4476 H 0.03389 0.50835 0.62732 0.0
H4477 H 0.02168 0.50982 0.65727 0.0
H4478 H 0.96917 0.47424 0.62818 0.0
H4479 H 0.9814 0.47475 0.59726 0.0
C4480 C 0.96199 0.50723 0.67881 0.0
C4481 C 0.97324 0.51149 0.69644 0.0
C4482 C 0.96859 0.5002 0.66211 0.0
C4483 C 0.98634 0.49686 0.66305 0.0
C4484 C 0.99717 0.50043 0.68107 0.0
C4485 C 0.99078 0.50808 0.69761 0.0
C4486 C 0.01996 0.50005 0.62739 0.0
C4487 C 0.00857 0.49121 0.61016 0.0
C4488 C 0.01289 0.50087 0.64469 0.0
C4489 C 0.99438 0.49218 0.64523 0.0
C4490 C 0.9834 0.48146 0.62814 0.0
C4491 C 0.99039 0.48135 0.61054 0.0
H4492 H 0.27943 0.2639 0.41599 0.0
H4493 H 0.30882 0.22083 0.39421 0.0
H4494 H 0.28022 0.27642 0.38596 0.0
H4495 H 0.31074 0.23434 0.36457 0.0
H4496 H 0.29856 0.25241 0.30582 0.0
H4497 H 0.29563 0.23762 0.33495 0.0
H4498 H 0.29883 0.29525 0.36829 0.0
H4499 H 0.3006 0.30943 0.33928 0.0
C4500 C 0.28607 0.257 0.40485 0.0
C4501 C 0.29395 0.24115 0.4078 0.0
C4502 C 0.28679 0.26447 0.38755 0.0
C4503 C 0.29562 0.25655 0.37255 0.0
C4504 C 0.30358 0.24075 0.37551 0.0
C4505 C 0.30273 0.23317 0.39279 0.0
C4506 C 0.29802 0.26171 0.31924 0.0
C4507 C 0.2993 0.282 0.31999 0.0
C4508 C 0.29673 0.25334 0.33614 0.0
C4509 C 0.2968 0.2651 0.35424 0.0
C4510 C 0.29822 0.28544 0.35479 0.0
C4511 C 0.29941 0.29367 0.33802 0.0
H4512 H 0.37416 0.62424 0.49397 0.0
H4513 H 0.34946 0.57672 0.5224 0.0
H4514 H 0.39917 0.6084 0.48785 0.0
H4515 H 0.37503 0.56156 0.51738 0.0
H4516 H 0.41303 0.52909 0.48961 0.0
H4517 H 0.38751 0.54474 0.4916 0.0
H4518 H 0.42536 0.60214 0.50619 0.0
H4519 H 0.451 0.5865 0.503 0.0
C4520 C 0.37406 0.61039 0.49886 0.0
C4521 C 0.3599 0.60167 0.50866 0.0
C4522 C 0.38848 0.60148 0.49557 0.0
C4523 C 0.38902 0.58381 0.50217 0.0
C4524 C 0.37483 0.57507 0.51191 0.0
C4525 C 0.36033 0.58387 0.51504 0.0
C4526 C 0.41592 0.54507 0.49285 0.0
C4527 C 0.434 0.55658 0.49619 0.0
C4528 C 0.40131 0.554 0.49424 0.0
C4529 C 0.40449 0.57459 0.49925 0.0
C4530 C 0.42254 0.5862 0.50219 0.0
C4531 C 0.4372 0.57726 0.50062 0.0
H4532 H 0.90887 0.96969 0.55625 0.0
H4533 H 0.91002 0.93718 0.49969 0.0
H4534 H 0.93937 0.9893 0.55565 0.0
H4535 H 0.94032 0.95794 0.49855 0.0
H4536 H 1.00233 0.99105 0.50827 0.0
H4537 H 0.97271 0.96796 0.50894 0.0
H4538 H 0.95496 0.01498 0.54288 0.0
H4539 H 0.98432 0.03709 0.54309 0.0
C4540 C 0.91554 0.96657 0.54362 0.0
C4541 C 0.90655 0.95155 0.52806 0.0
C4542 C 0.93316 0.97821 0.54312 0.0
C4543 C 0.94262 0.97565 0.52692 0.0
C4544 C 0.93377 0.96049 0.51138 0.0
C4545 C 0.91611 0.94868 0.51195 0.0
C4546 C 0.99224 0.99621 0.51624 0.0
C4547 C 0.99609 0.0159 0.52604 0.0
C4548 C 0.97504 0.98305 0.51641 0.0
C4549 C 0.96117 0.98927 0.52625 0.0
C4550 C 0.96515 0.00911 0.53564 0.0
C4551 C 0.98218 0.02201 0.53562 0.0
H4552 H 0.855 0.14445 0.23875 0.0
H4553 H 0.89128 0.17589 0.28976 0.0
H4554 H 0.83971 0.1715 0.23965 0.0
H4555 H 0.87558 0.20281 0.29086 0.0
H4556 H 0.85198 0.25804 0.28139 0.0
H4557 H 0.86821 0.2313 0.2809 0.0
H4558 H 0.81938 0.18959 0.2514 0.0
H4559 H 0.80331 0.21619 0.25208 0.0
C4560 C 0.86 0.15699 0.25027 0.0
C4561 C 0.87495 0.15702 0.26412 0.0
C4562 C 0.85082 0.17286 0.25092 0.0
C4563 C 0.85587 0.19015 0.2654 0.0
C4564 C 0.87087 0.19031 0.27921 0.0
C4565 C 0.87999 0.17435 0.27865 0.0
C4566 C 0.84457 0.24319 0.27477 0.0
C4567 C 0.82593 0.2399 0.26684 0.0
C4568 C 0.85402 0.2275 0.27455 0.0
C4569 C 0.8456 0.20747 0.26603 0.0
C4570 C 0.82698 0.20435 0.25799 0.0
C4571 C 0.81749 0.21993 0.25851 0.0
H4572 H 0.69092 0.0527 0.01268 0.0
H4573 H 0.68583 0.09818 0.97918 0.0
H4574 H 0.65795 0.04572 0.01425 0.0
H4575 H 0.65376 0.09188 0.98127 0.0
H4576 H 0.59496 0.07681 0.98585 0.0
H4577 H 0.62421 0.0744 0.97642 0.0
H4578 H 0.6417 0.06487 0.03349 0.0
H4579 H 0.6113 0.06494 0.04232 0.0
C4580 C 0.68269 0.06071 1.00516 0.0
C4581 C 0.69095 0.07624 0.9962 0.0
C4582 C 0.66393 0.05691 1.00624 0.0
C4583 C 0.65344 0.06878 0.99853 0.0
C4584 C 0.66137 0.08244 0.98741 0.0
C4585 C 0.67993 0.08603 0.98613 0.0
C4586 C 0.60503 0.07439 0.99656 0.0
C4587 C 0.60067 0.0707 0.01476 0.0
C4588 C 0.62186 0.07293 0.99106 0.0
C4589 C 0.63516 0.06901 1.00405 0.0
C4590 C 0.63144 0.06712 0.02289 0.0
C4591 C 0.61424 0.0678 0.02818 0.0
H4592 H 0.23845 0.49698 0.28643 0.0
H4593 H 0.2034 0.45252 0.2418 0.0
H4594 H 0.25484 0.47264 0.29521 0.0
H4595 H 0.21982 0.42807 0.25039 0.0
H4596 H 0.24164 0.38597 0.28303 0.0
H4597 H 0.22443 0.41088 0.27842 0.0
H4598 H 0.27518 0.45398 0.27912 0.0
H4599 H 0.29229 0.42928 0.2835 0.0
C4600 C 0.23446 0.48197 0.27847 0.0
C4601 C 0.21999 0.47638 0.26341 0.0
C4602 C 0.24371 0.46814 0.28347 0.0
C4603 C 0.23841 0.44858 0.27353 0.0
C4604 C 0.22392 0.44305 0.25839 0.0
C4605 C 0.21476 0.45696 0.2533 0.0
C4606 C 0.24906 0.40085 0.28243 0.0
C4607 C 0.26825 0.40577 0.28362 0.0
C4608 C 0.23926 0.415 0.27976 0.0
C4609 C 0.24858 0.43417 0.27833 0.0
C4610 C 0.26776 0.43931 0.28043 0.0
C4611 C 0.27753 0.4252 0.28302 0.0
H4612 H 0.23124 0.44413 0.99146 0.0
H4613 H 0.21309 0.42621 0.04361 0.0
H4614 H 0.20526 0.45912 0.98731 0.0
H4615 H 0.18766 0.44198 0.03997 0.0
H4616 H 0.13499 0.45842 0.02126 0.0
H4617 H 0.15902 0.4403 0.02182 0.0
H4618 H 0.19487 0.48715 1.00096 0.0
H4619 H 0.17091 0.50523 1.00042 0.0
C4620 C 0.22169 0.44328 1.00202 0.0
C4621 C 0.22443 0.434 0.01795 0.0
C4622 C 0.20686 0.45211 0.99975 0.0
C4623 C 0.19431 0.45191 0.01334 0.0
C4624 C 0.19687 0.4423 0.02907 0.0
C4625 C 0.21167 0.43347 0.03133 0.0
C4626 C 0.148 0.46489 0.01681 0.0
C4627 C 0.15095 0.48342 0.01093 0.0
C4628 C 0.16183 0.45447 0.01714 0.0
C4629 C 0.17904 0.46227 0.0116 0.0
C4630 C 0.18178 0.4805 1.00512 0.0
C4631 C 0.16796 0.49091 1.0048 0.0
H4632 H 0.85096 0.94465 0.23375 0.0
H4633 H 0.88445 0.94604 0.28684 0.0
H4634 H 0.83498 0.91092 0.23442 0.0
H4635 H 0.86786 0.91224 0.28781 0.0
H4636 H 0.84092 0.84311 0.27797 0.0
H4637 H 0.85982 0.87638 0.27689 0.0
H4638 H 0.81304 0.89041 0.24758 0.0
H4639 H 0.79469 0.85784 0.24861 0.0
C4640 C 0.85515 0.93797 0.24566 0.0
C4641 C 0.86941 0.949 0.26021 0.0
C4642 C 0.8456 0.91825 0.24619 0.0
C4643 C 0.84961 0.90808 0.26129 0.0
C4644 C 0.86404 0.91894 0.27576 0.0
C4645 C 0.87358 0.93879 0.27528 0.0
C4646 C 0.83475 0.85315 0.27099 0.0
C4647 C 0.816 0.84713 0.26315 0.0
C4648 C 0.84562 0.87258 0.27054 0.0
C4649 C 0.83838 0.88682 0.26199 0.0
C4650 C 0.81973 0.88042 0.25402 0.0
C4651 C 0.80896 0.86136 0.2547 0.0
H4652 H 0.70924 0.16588 0.7835 0.0
H4653 H 0.75098 0.13499 0.79653 0.0
H4654 H 0.73248 0.19284 0.77622 0.0
H4655 H 0.77426 0.16167 0.7888 0.0
H4656 H 0.80738 0.22551 0.78142 0.0
H4657 H 0.79012 0.1976 0.79375 0.0
H4658 H 0.74757 0.18742 0.74563 0.0
H4659 H 0.76463 0.21584 0.73374 0.0
C4660 C 0.72355 0.16553 0.78596 0.0
C4661 C 0.72856 0.14856 0.79024 0.0
C4662 C 0.73672 0.18057 0.78131 0.0
C4663 C 0.7548 0.17853 0.78101 0.0
C4664 C 0.76026 0.16318 0.78856 0.0
C4665 C 0.74707 0.14818 0.79331 0.0
C4666 C 0.79483 0.21651 0.77295 0.0
C4667 C 0.78692 0.22275 0.75703 0.0
C4668 C 0.78488 0.20082 0.78014 0.0
C4669 C 0.76726 0.19127 0.77109 0.0
C4670 C 0.76091 0.1953 0.75318 0.0
C4671 C 0.77082 0.21111 0.74608 0.0
loop_
_geom_bond_atom_site_label_1
_geom_bond_atom_site_label_2
_geom_bond_distance
_geom_bond_site_symmetry_2
_ccdc_geom_bond_type
Li0 N17 1.990 . S
Li0 O60 1.956 . S
Li0 O61 1.970 . S
Li0 O62 1.961 . S
Li1 N25 1.990 . S
Li1 O60 1.970 . S
Li1 O61 1.956 . S
Li1 O63 1.961 . S
Li2 N47 1.990 . S
Li2 O60 1.961 . S
Li2 O62 1.956 . S
Li2 O63 1.970 . S
Li3 N53 1.990 . S
Li3 O61 1.961 . S
Li3 O62 1.970 . S
Li3 O63 1.956 . S
C4 C6 1.348 . S
C4 C7 1.356 . S
C4 O60 1.325 . S
N5 C8 1.314 . S
N5 C9 1.279 . S
C6 C4 1.348 . S
C6 C8 1.353 . S
C6 H64 0.929 . S
C7 C4 1.356 . S
C7 C9 1.358 . S
C7 H65 0.930 . S
C8 N5 1.314 . S
C8 C6 1.353 . S
C8 H66 0.930 . S
C9 N5 1.279 . S
C9 C7 1.358 . S
C9 H67 0.930 . S
C10 C13 1.348 . S
C10 C14 1.356 . S
C10 O61 1.325 . S
C11 N12 1.279 . S
C11 C14 1.358 . S
C11 H68 0.930 . S
N12 C11 1.279 . S
N12 C15 1.314 . S
C13 C10 1.348 . S
C13 C15 1.353 . S
C13 H69 0.929 . S
C14 C10 1.356 . S
C14 C11 1.358 . S
C14 H70 0.930 . S
C15 N12 1.314 . S
C15 C13 1.353 . S
C15 H71 0.930 . S
C16 N17 1.314 . S
C16 C21 1.353 . S
C16 H22 0.930 . S
N17 Li0 1.990 . S
N17 C16 1.314 . S
N17 C19 1.279 . S
C18 C19 1.358 . S
C18 C20 1.356 . S
C18 H72 0.930 . S
C19 N17 1.279 . S
C19 C18 1.358 . S
C19 H23 0.930 . S
C20 C18 1.356 . S
C20 C21 1.348 . S
C21 C16 1.353 . S
C21 C20 1.348 . S
C21 H73 0.928 1_455 S
H22 C16 0.930 . S
H23 C19 0.930 . S
C24 N25 1.314 . S
C24 C26 1.353 . S
C24 H30 0.930 . S
N25 Li1 1.990 . S
N25 C24 1.314 . S
N25 C28 1.279 . S
C26 C24 1.353 . S
C26 C29 1.348 . S
C26 H74 0.929 . S
C27 C28 1.358 . S
C27 C29 1.356 . S
C27 H75 0.930 . S
C28 N25 1.279 . S
C28 C27 1.358 . S
C28 H31 0.930 . S
C29 C26 1.348 . S
C29 C27 1.356 . S
H30 C24 0.930 . S
H31 C28 0.930 . S
C32 C34 1.348 . S
C32 C35 1.356 . S
C32 O62 1.325 . S
N33 C36 1.314 . S
N33 C37 1.279 . S
C34 C32 1.348 . S
C34 C36 1.353 . S
C34 H76 0.929 . S
C35 C32 1.356 . S
C35 C37 1.358 . S
C35 H77 0.930 . S
C36 N33 1.314 . S
C36 C34 1.353 . S
C36 H78 0.930 . S
C37 N33 1.279 . S
C37 C35 1.358 . S
C37 H79 0.930 . S
C38 C39 1.348 . S
C38 C40 1.356 . S
C38 O63 1.325 . S
C39 C38 1.348 . S
C39 C41 1.353 . S
C39 H80 0.929 . S
C40 C38 1.356 . S
C40 C42 1.358 . S
C40 H81 0.930 . S
C41 C39 1.353 . S
C41 N43 1.314 . S
C41 H82 0.930 . S
C42 C40 1.358 . S
C42 N43 1.279 . S
C42 H83 0.930 . S
N43 C41 1.314 . S
N43 C42 1.279 . S
C44 C46 1.353 . S
C44 N47 1.314 . S
C44 H50 0.930 . S
C45 N47 1.279 . S
C45 C48 1.358 . S
C45 H51 0.930 . S
C46 C44 1.353 . S
C46 C49 1.348 . S
C46 H84 0.929 . S
N47 Li2 1.990 . S
N47 C44 1.314 . S
N47 C45 1.279 . S
C48 C45 1.358 . S
C48 C49 1.356 . S
C48 H85 0.930 . S
C49 C46 1.348 . S
C49 C48 1.356 . S
H50 C44 0.930 . S
H51 C45 0.930 . S
C52 N53 1.314 . S
C52 C54 1.353 . S
C52 H58 0.930 . S
N53 Li3 1.990 . S
N53 C52 1.314 . S
N53 C56 1.279 . S
C54 C52 1.353 . S
C54 C57 1.348 . S
C54 H86 0.929 . S
C55 C56 1.358 . S
C55 C57 1.356 . S
C55 H87 0.930 . S
C56 N53 1.279 . S
C56 C55 1.358 . S
C56 H59 0.930 . S
C57 C54 1.348 . S
C57 C55 1.356 . S
H58 C52 0.930 . S
H59 C56 0.930 . S
O60 Li0 1.956 . S
O60 Li1 1.970 . S
O60 Li2 1.961 . S
O60 C4 1.325 . S
O61 Li0 1.970 . S
O61 Li1 1.956 . S
O61 Li3 1.961 . S
O61 C10 1.325 . S
O62 Li0 1.961 . S
O62 Li2 1.956 . S
O62 Li3 1.970 . S
O62 C32 1.325 . S
O63 Li1 1.961 . S
O63 Li2 1.970 . S
O63 Li3 1.956 . S
O63 C38 1.325 . S
H64 C6 0.929 . S
H65 C7 0.930 . S
H66 C8 0.930 . S
H67 C9 0.930 . S
H68 C11 0.930 . S
H69 C13 0.929 . S
H70 C14 0.930 . S
H71 C15 0.930 . S
H72 C18 0.930 . S
H73 C21 0.928 1_655 S
H74 C26 0.929 . S
H75 C27 0.930 . S
H76 C34 0.929 . S
H77 C35 0.930 . S
H78 C36 0.930 . S
H79 C37 0.930 . S
H80 C39 0.929 . S
H81 C40 0.930 . S
H82 C41 0.930 . S
H83 C42 0.930 . S
H84 C46 0.929 . S
H85 C48 0.930 . S
H86 C54 0.929 . S
H87 C55 0.930 . S
Li88 N105 1.990 . S
Li88 O148 1.956 . S
Li88 O149 1.970 . S
Li88 O150 1.961 1_455 S
Li89 N113 1.990 . S
Li89 O148 1.970 . S
Li89 O149 1.956 . S
Li89 O151 1.931 1_455 S
Li90 N135 1.990 . S
Li90 O148 1.961 1_655 S
Li90 O150 1.956 . S
Li90 O151 1.972 . S
Li91 N141 1.990 . S
Li91 O149 1.961 1_655 S
Li91 O150 1.970 . S
Li91 O151 1.999 . S
C92 C94 1.348 . S
C92 C95 1.356 . S
C92 O148 1.325 . S
N93 C96 1.314 . S
N93 C97 1.279 . S
C94 C92 1.348 . S
C94 C96 1.353 . S
C94 H152 0.929 . S
C95 C92 1.356 . S
C95 C97 1.358 . S
C95 H153 0.930 . S
C96 N93 1.314 . S
C96 C94 1.353 . S
C96 H154 0.930 . S
C97 N93 1.279 . S
C97 C95 1.358 . S
C97 H155 0.930 . S
C98 C101 1.348 . S
C98 C102 1.356 . S
C98 O149 1.325 . S
C99 N100 1.279 . S
C99 C102 1.358 . S
C99 H156 0.930 . S
N100 C99 1.279 . S
N100 C103 1.314 . S
C101 C98 1.348 . S
C101 C103 1.353 . S
C101 H157 0.929 . S
C102 C98 1.356 . S
C102 C99 1.358 . S
C102 H158 0.936 . S
C103 N100 1.314 . S
C103 C101 1.353 . S
C103 H159 0.930 . S
C104 N105 1.314 1_655 S
C104 C109 1.353 . S
C104 H110 0.930 . S
N105 Li88 1.990 . S
N105 C104 1.314 1_455 S
N105 C107 1.279 . S
C106 C107 1.358 . S
C106 C108 1.356 . S
C106 H160 0.930 . S
C107 N105 1.279 . S
C107 C106 1.358 . S
C107 H111 0.930 . S
C108 C106 1.356 . S
C108 C109 1.348 1_455 S
C109 C104 1.353 . S
C109 C108 1.348 1_655 S
C109 H161 0.929 . S
H110 C104 0.930 . S
H111 C107 0.930 . S
C112 N113 1.314 . S
C112 C114 1.353 . S
C112 H118 0.930 . S
N113 Li89 1.990 . S
N113 C112 1.314 . S
N113 C116 1.279 . S
C114 C112 1.353 . S
C114 C117 1.348 . S
C114 H162 0.929 . S
C115 C116 1.358 . S
C115 C117 1.356 . S
C115 H163 0.930 . S
C116 N113 1.279 . S
C116 C115 1.358 . S
C116 H119 0.930 . S
C117 C114 1.348 . S
C117 C115 1.356 . S
H118 C112 0.930 . S
H119 C116 0.930 . S
C120 C122 1.348 . S
C120 C123 1.356 . S
C120 O150 1.325 . S
N121 C124 1.314 . S
N121 C125 1.279 . S
C122 C120 1.348 . S
C122 C124 1.353 . S
C122 H164 0.929 . S
C123 C120 1.356 . S
C123 C125 1.358 . S
C123 H165 0.930 . S
C124 N121 1.314 . S
C124 C122 1.353 . S
C124 H166 0.930 . S
C125 N121 1.279 . S
C125 C123 1.358 . S
C125 H167 0.930 . S
C126 C127 1.348 . S
C126 C128 1.356 1_655 S
C126 O151 1.323 . S
C127 C126 1.348 . S
C127 C129 1.353 . S
C127 H168 0.929 . S
C128 C126 1.356 1_455 S
C128 C130 1.357 . S
C128 H169 0.930 . S
C129 C127 1.353 . S
C129 N131 1.314 . S
C129 H170 0.930 . S
C130 C128 1.357 . S
C130 N131 1.274 1_455 S
C130 H171 0.943 . S
N131 C129 1.314 . S
N131 C130 1.274 1_655 S
C132 C134 1.353 . S
C132 N135 1.314 1_455 S
C132 H138 0.930 . S
C133 N135 1.279 . S
C133 C136 1.358 . S
C133 H139 0.930 . S
C134 C132 1.353 . S
C134 C137 1.348 1_455 S
C134 H172 0.929 . S
N135 Li90 1.990 . S
N135 C132 1.314 1_655 S
N135 C133 1.279 . S
C136 C133 1.358 . S
C136 C137 1.356 . S
C136 H173 0.930 . S
C137 C134 1.348 1_655 S
C137 C136 1.356 . S
H138 C132 0.930 . S
H139 C133 0.930 . S
C140 N141 1.314 . S
C140 C142 1.353 . S
C140 H146 0.930 . S
N141 Li91 1.990 . S
N141 C140 1.314 . S
N141 C144 1.279 . S
C142 C140 1.353 . S
C142 C145 1.348 . S
C142 H174 0.929 . S
C143 C144 1.358 . S
C143 C145 1.356 . S
C143 H175 0.930 . S
C144 N141 1.279 . S
C144 C143 1.358 . S
C144 H147 0.930 . S
C145 C142 1.348 . S
C145 C143 1.356 . S
H146 C140 0.930 . S
H147 C144 0.930 . S
O148 Li88 1.956 . S
O148 Li89 1.970 . S
O148 Li90 1.961 1_455 S
O148 C92 1.325 . S
O149 Li88 1.970 . S
O149 Li89 1.956 . S
O149 Li91 1.961 1_455 S
O149 C98 1.325 . S
O150 Li88 1.961 1_655 S
O150 Li90 1.956 . S
O150 Li91 1.970 . S
O150 C120 1.325 . S
O151 Li89 1.931 1_655 S
O151 Li90 1.972 . S
O151 Li91 1.999 . S
O151 C126 1.323 . S
H152 C94 0.929 . S
H153 C95 0.930 . S
H154 C96 0.930 . S
H155 C97 0.930 . S
H156 C99 0.930 . S
H157 C101 0.929 . S
H158 C102 0.936 . S
H159 C103 0.930 . S
H160 C106 0.930 . S
H161 C109 0.929 . S
H162 C114 0.929 . S
H163 C115 0.930 . S
H164 C122 0.929 . S
H165 C123 0.930 . S
H166 C124 0.930 . S
H167 C125 0.930 . S
H168 C127 0.929 . S
H169 C128 0.930 . S
H170 C129 0.930 . S
H171 C130 0.943 . S
H172 C134 0.929 . S
H173 C136 0.930 . S
H174 C142 0.929 . S
H175 C143 0.930 . S
Li176 N193 1.990 . S
Li176 O236 1.956 . S
Li176 O237 1.970 . S
Li176 O238 1.961 . S
Li177 N201 1.990 . S
Li177 O236 1.970 . S
Li177 O237 1.956 . S
Li177 O239 1.961 . S
Li178 N223 1.990 . S
Li178 O236 1.961 . S
Li178 O238 1.956 . S
Li178 O239 1.970 . S
Li179 N229 1.990 . S
Li179 O237 1.961 . S
Li179 O238 1.970 . S
Li179 O239 1.956 . S
C180 C182 1.348 . S
C180 C183 1.356 . S
C180 O236 1.325 . S
N181 C184 1.314 . S
N181 C185 1.279 . S
C182 C180 1.348 . S
C182 C184 1.353 . S
C182 H240 0.929 . S
C183 C180 1.356 . S
C183 C185 1.358 . S
C183 H241 0.930 . S
C184 N181 1.314 . S
C184 C182 1.353 . S
C184 H242 0.930 . S
C185 N181 1.279 . S
C185 C183 1.358 . S
C185 H243 0.930 . S
C186 C189 1.348 . S
C186 C190 1.356 . S
C186 O237 1.325 . S
C187 N188 1.279 . S
C187 C190 1.358 . S
C187 H244 0.930 . S
N188 C187 1.279 . S
N188 C191 1.314 . S
C189 C186 1.348 . S
C189 C191 1.353 . S
C189 H245 0.929 . S
C190 C186 1.356 . S
C190 C187 1.358 . S
C190 H246 0.930 . S
C191 N188 1.314 . S
C191 C189 1.353 . S
C191 H247 0.930 . S
C192 N193 1.314 . S
C192 C197 1.353 . S
C192 H198 0.930 . S
N193 Li176 1.990 . S
N193 C192 1.314 . S
N193 C195 1.279 . S
C194 C195 1.358 . S
C194 C196 1.356 . S
C194 H248 0.930 . S
C195 N193 1.279 . S
C195 C194 1.358 . S
C195 H199 0.930 . S
C196 C194 1.356 . S
C196 C197 1.348 . S
C197 C192 1.353 . S
C197 C196 1.348 . S
C197 H249 0.929 . S
H198 C192 0.930 . S
H199 C195 0.930 . S
C200 N201 1.314 . S
C200 C202 1.353 . S
C200 H206 0.930 . S
N201 Li177 1.990 . S
N201 C200 1.314 . S
N201 C204 1.279 . S
C202 C200 1.353 . S
C202 C205 1.348 . S
C202 H250 0.929 . S
C203 C204 1.358 . S
C203 C205 1.356 . S
C203 H251 0.930 . S
C204 N201 1.279 . S
C204 C203 1.358 . S
C204 H207 0.930 . S
C205 C202 1.348 . S
C205 C203 1.356 . S
H206 C200 0.930 . S
H207 C204 0.930 . S
C208 C210 1.348 . S
C208 C211 1.356 . S
C208 O238 1.325 . S
N209 C212 1.314 . S
N209 C213 1.279 . S
C210 C208 1.348 . S
C210 C212 1.353 . S
C210 H252 0.929 . S
C211 C208 1.356 . S
C211 C213 1.358 . S
C211 H253 0.930 . S
C212 N209 1.314 . S
C212 C210 1.353 . S
C212 H254 0.930 . S
C213 N209 1.279 . S
C213 C211 1.358 . S
C213 H255 0.930 . S
C214 C215 1.348 . S
C214 C216 1.356 . S
C214 O239 1.325 . S
C215 C214 1.348 . S
C215 C217 1.353 . S
C215 H256 0.929 . S
C216 C214 1.356 . S
C216 C218 1.358 . S
C216 H257 0.930 . S
C217 C215 1.353 . S
C217 N219 1.314 . S
C217 H258 0.930 . S
C218 C216 1.358 . S
C218 N219 1.279 . S
C218 H259 0.930 . S
N219 C217 1.314 . S
N219 C218 1.279 . S
C220 C222 1.353 . S
C220 N223 1.314 . S
C220 H226 0.930 . S
C221 N223 1.279 . S
C221 C224 1.358 . S
C221 H227 0.930 . S
C222 C220 1.353 . S
C222 C225 1.348 . S
C222 H260 0.929 . S
N223 Li178 1.990 . S
N223 C220 1.314 . S
N223 C221 1.279 . S
C224 C221 1.358 . S
C224 C225 1.356 . S
C224 H261 0.930 . S
C225 C222 1.348 . S
C225 C224 1.356 . S
H226 C220 0.930 . S
H227 C221 0.930 . S
C228 N229 1.314 . S
C228 C230 1.353 . S
C228 H234 0.930 . S
N229 Li179 1.990 . S
N229 C228 1.314 . S
N229 C232 1.279 . S
C230 C228 1.353 . S
C230 C233 1.348 . S
C230 H262 0.929 . S
C231 C232 1.358 . S
C231 C233 1.356 . S
C231 H263 0.930 . S
C232 N229 1.279 . S
C232 C231 1.358 . S
C232 H235 0.930 . S
C233 C230 1.348 . S
C233 C231 1.356 . S
H234 C228 0.930 . S
H235 C232 0.930 . S
O236 Li176 1.956 . S
O236 Li177 1.970 . S
O236 Li178 1.961 . S
O236 C180 1.325 . S
O237 Li176 1.970 . S
O237 Li177 1.956 . S
O237 Li179 1.961 . S
O237 C186 1.325 . S
O238 Li176 1.961 . S
O238 Li178 1.956 . S
O238 Li179 1.970 . S
O238 C208 1.325 . S
O239 Li177 1.961 . S
O239 Li178 1.970 . S
O239 Li179 1.956 . S
O239 C214 1.325 . S
H240 C182 0.929 . S
H241 C183 0.930 . S
H242 C184 0.930 . S
H243 C185 0.930 . S
H244 C187 0.930 . S
H245 C189 0.929 . S
H246 C190 0.930 . S
H247 C191 0.930 . S
H248 C194 0.930 . S
H249 C197 0.929 . S
H250 C202 0.929 . S
H251 C203 0.930 . S
H252 C210 0.929 . S
H253 C211 0.930 . S
H254 C212 0.930 . S
H255 C213 0.930 . S
H256 C215 0.929 . S
H257 C216 0.930 . S
H258 C217 0.930 . S
H259 C218 0.930 . S
H260 C222 0.929 . S
H261 C224 0.930 . S
H262 C230 0.929 . S
H263 C231 0.930 . S
Li264 N281 1.990 . S
Li264 O324 1.956 . S
Li264 O325 1.970 . S
Li264 O326 1.961 . S
Li265 N289 1.990 . S
Li265 O324 1.970 . S
Li265 O325 1.956 . S
Li265 O327 1.961 . S
Li266 N311 1.990 . S
Li266 O324 1.961 . S
Li266 O326 1.956 . S
Li266 O327 1.970 . S
Li267 N317 1.990 . S
Li267 O325 1.961 . S
Li267 O326 1.970 . S
Li267 O327 1.956 . S
C268 C270 1.348 . S
C268 C271 1.356 . S
C268 O324 1.325 . S
N269 C272 1.314 . S
N269 C273 1.279 . S
C270 C268 1.348 . S
C270 C272 1.353 . S
C270 H328 0.929 . S
C271 C268 1.356 . S
C271 C273 1.358 . S
C271 H329 0.930 . S
C272 N269 1.314 . S
C272 C270 1.353 . S
C272 H330 0.930 . S
C273 N269 1.279 . S
C273 C271 1.358 . S
C273 H331 0.930 . S
C274 C277 1.348 . S
C274 C278 1.356 . S
C274 O325 1.325 . S
C275 N276 1.279 . S
C275 C278 1.358 . S
C275 H332 0.930 . S
N276 C275 1.279 . S
N276 C279 1.314 . S
C277 C274 1.348 . S
C277 C279 1.353 . S
C277 H333 0.929 . S
C278 C274 1.356 . S
C278 C275 1.358 . S
C278 H334 0.930 . S
C279 N276 1.314 . S
C279 C277 1.353 . S
C279 H335 0.930 . S
C280 N281 1.314 . S
C280 C285 1.353 . S
C280 H286 0.930 . S
N281 Li264 1.990 . S
N281 C280 1.314 . S
N281 C283 1.279 . S
C282 C283 1.358 . S
C282 C284 1.356 . S
C282 H336 0.930 . S
C283 N281 1.279 . S
C283 C282 1.358 . S
C283 H287 0.930 . S
C284 C282 1.356 . S
C284 C285 1.348 . S
C285 C280 1.353 . S
C285 C284 1.348 . S
C285 H337 0.929 . S
H286 C280 0.930 . S
H287 C283 0.930 . S
C288 N289 1.314 . S
C288 C290 1.353 . S
C288 H294 0.930 . S
N289 Li265 1.990 . S
N289 C288 1.314 . S
N289 C292 1.279 . S
C290 C288 1.353 . S
C290 C293 1.348 . S
C290 H338 0.929 . S
C291 C292 1.358 . S
C291 C293 1.356 . S
C291 H339 0.930 . S
C292 N289 1.279 . S
C292 C291 1.358 . S
C292 H295 0.930 . S
C293 C290 1.348 . S
C293 C291 1.356 . S
H294 C288 0.930 . S
H295 C292 0.930 . S
C296 C298 1.348 . S
C296 C299 1.356 . S
C296 O326 1.325 . S
N297 C300 1.314 . S
N297 C301 1.279 . S
C298 C296 1.348 . S
C298 C300 1.353 . S
C298 H340 0.929 . S
C299 C296 1.356 . S
C299 C301 1.358 . S
C299 H341 0.930 . S
C300 N297 1.314 . S
C300 C298 1.353 . S
C300 H342 0.930 . S
C301 N297 1.279 . S
C301 C299 1.358 . S
C301 H343 0.930 . S
C302 C303 1.348 . S
C302 C304 1.356 . S
C302 O327 1.325 . S
C303 C302 1.348 . S
C303 C305 1.353 . S
C303 H344 0.929 . S
C304 C302 1.356 . S
C304 C306 1.358 . S
C304 H345 0.930 . S
C305 C303 1.353 . S
C305 N307 1.314 . S
C305 H346 0.930 . S
C306 C304 1.358 . S
C306 N307 1.279 . S
C306 H347 0.930 . S
N307 C305 1.314 . S
N307 C306 1.279 . S
C308 C310 1.353 . S
C308 N311 1.314 . S
C308 H314 0.930 . S
C309 N311 1.279 . S
C309 C312 1.358 . S
C309 H315 0.930 . S
C310 C308 1.353 . S
C310 C313 1.348 . S
C310 H348 0.929 . S
N311 Li266 1.990 . S
N311 C308 1.314 . S
N311 C309 1.279 . S
C312 C309 1.358 . S
C312 C313 1.356 . S
C312 H349 0.930 . S
C313 C310 1.348 . S
C313 C312 1.356 . S
H314 C308 0.930 . S
H315 C309 0.930 . S
C316 N317 1.314 . S
C316 C318 1.353 . S
C316 H322 0.930 . S
N317 Li267 1.990 . S
N317 C316 1.314 . S
N317 C320 1.279 . S
C318 C316 1.353 . S
C318 C321 1.348 . S
C318 H350 0.929 . S
C319 C320 1.358 . S
C319 C321 1.356 . S
C319 H351 0.930 . S
C320 N317 1.279 . S
C320 C319 1.358 . S
C320 H323 0.930 . S
C321 C318 1.348 . S
C321 C319 1.356 . S
H322 C316 0.930 . S
H323 C320 0.930 . S
O324 Li264 1.956 . S
O324 Li265 1.970 . S
O324 Li266 1.961 . S
O324 C268 1.325 . S
O325 Li264 1.970 . S
O325 Li265 1.956 . S
O325 Li267 1.961 . S
O325 C274 1.325 . S
O326 Li264 1.961 . S
O326 Li266 1.956 . S
O326 Li267 1.970 . S
O326 C296 1.325 . S
O327 Li265 1.961 . S
O327 Li266 1.970 . S
O327 Li267 1.956 . S
O327 C302 1.325 . S
H328 C270 0.929 . S
H329 C271 0.930 . S
H330 C272 0.930 . S
H331 C273 0.930 . S
H332 C275 0.930 . S
H333 C277 0.929 . S
H334 C278 0.930 . S
H335 C279 0.930 . S
H336 C282 0.930 . S
H337 C285 0.929 . S
H338 C290 0.929 . S
H339 C291 0.930 . S
H340 C298 0.929 . S
H341 C299 0.930 . S
H342 C300 0.930 . S
H343 C301 0.930 . S
H344 C303 0.929 . S
H345 C304 0.930 . S
H346 C305 0.930 . S
H347 C306 0.930 . S
H348 C310 0.929 . S
H349 C312 0.930 . S
H350 C318 0.929 . S
H351 C319 0.930 . S
Li352 N369 1.990 . S
Li352 O412 1.956 . S
Li352 O413 1.970 . S
Li352 O414 1.961 . S
Li353 N377 1.990 . S
Li353 O412 1.970 . S
Li353 O413 1.956 . S
Li353 O415 1.961 . S
Li354 N399 1.990 . S
Li354 O412 1.961 . S
Li354 O414 1.956 . S
Li354 O415 1.970 . S
Li355 N405 1.990 . S
Li355 O413 1.961 . S
Li355 O414 1.970 . S
Li355 O415 1.956 . S
C356 C358 1.348 . S
C356 C359 1.356 . S
C356 O412 1.325 . S
N357 C360 1.314 . S
N357 C361 1.279 . S
C358 C356 1.348 . S
C358 C360 1.353 . S
C358 H416 0.929 . S
C359 C356 1.356 . S
C359 C361 1.358 . S
C359 H417 0.930 . S
C360 N357 1.314 . S
C360 C358 1.353 . S
C360 H418 0.930 . S
C361 N357 1.279 . S
C361 C359 1.358 . S
C361 H419 0.930 . S
C362 C365 1.348 . S
C362 C366 1.356 . S
C362 O413 1.325 . S
C363 N364 1.279 . S
C363 C366 1.358 . S
C363 H420 0.930 . S
N364 C363 1.279 . S
N364 C367 1.314 . S
C365 C362 1.348 . S
C365 C367 1.353 . S
C365 H421 0.929 . S
C366 C362 1.356 . S
C366 C363 1.358 . S
C366 H422 0.930 . S
C367 N364 1.314 . S
C367 C365 1.353 . S
C367 H423 0.930 . S
C368 N369 1.314 . S
C368 C373 1.353 . S
C368 H374 0.930 . S
N369 Li352 1.990 . S
N369 C368 1.314 . S
N369 C371 1.279 . S
C370 C371 1.358 . S
C370 C372 1.356 . S
C370 H424 0.930 . S
C371 N369 1.279 . S
C371 C370 1.358 . S
C371 H375 0.930 . S
C372 C370 1.356 . S
C372 C373 1.348 . S
C373 C368 1.353 . S
C373 C372 1.348 . S
C373 H425 0.929 . S
H374 C368 0.930 . S
H375 C371 0.930 . S
C376 N377 1.314 . S
C376 C378 1.353 . S
C376 H382 0.930 . S
N377 Li353 1.990 . S
N377 C376 1.314 . S
N377 C380 1.279 . S
C378 C376 1.353 . S
C378 C381 1.348 . S
C378 H426 0.929 . S
C379 C380 1.358 . S
C379 C381 1.356 . S
C379 H427 0.930 . S
C380 N377 1.279 . S
C380 C379 1.358 . S
C380 H383 0.930 . S
C381 C378 1.348 . S
C381 C379 1.356 . S
H382 C376 0.930 . S
H383 C380 0.930 . S
C384 C386 1.348 . S
C384 C387 1.356 . S
C384 O414 1.325 . S
N385 C388 1.314 . S
N385 C389 1.279 1_655 S
C386 C384 1.348 . S
C386 C388 1.353 1_455 S
C386 H428 0.929 . S
C387 C384 1.356 . S
C387 C389 1.358 . S
C387 H429 0.930 . S
C388 N385 1.314 . S
C388 C386 1.353 1_655 S
C388 H430 0.930 . S
C389 N385 1.279 1_455 S
C389 C387 1.358 . S
C389 H431 0.930 . S
C390 C391 1.348 . S
C390 C392 1.356 . S
C390 O415 1.325 . S
C391 C390 1.348 . S
C391 C393 1.353 . S
C391 H432 0.929 . S
C392 C390 1.356 . S
C392 C394 1.358 . S
C392 H433 0.930 . S
C393 C391 1.353 . S
C393 N395 1.314 . S
C393 H434 0.930 . S
C394 C392 1.358 . S
C394 N395 1.279 . S
C394 H435 0.930 . S
N395 C393 1.314 . S
N395 C394 1.279 . S
C396 C398 1.353 . S
C396 N399 1.314 . S
C396 H402 0.930 . S
C397 N399 1.279 . S
C397 C400 1.358 . S
C397 H403 0.930 . S
C398 C396 1.353 . S
C398 C401 1.348 . S
C398 H436 0.929 . S
N399 Li354 1.990 . S
N399 C396 1.314 . S
N399 C397 1.279 . S
C400 C397 1.358 . S
C400 C401 1.356 . S
C400 H437 0.930 . S
C401 C398 1.348 . S
C401 C400 1.356 . S
H402 C396 0.930 . S
H403 C397 0.930 . S
C404 N405 1.314 . S
C404 C406 1.353 . S
C404 H410 0.930 . S
N405 Li355 1.990 . S
N405 C404 1.314 . S
N405 C408 1.279 . S
C406 C404 1.353 . S
C406 C409 1.348 1_455 S
C406 H438 0.929 1_455 S
C407 C408 1.358 . S
C407 C409 1.356 1_455 S
C407 H439 0.926 1_455 S
C408 N405 1.279 . S
C408 C407 1.358 . S
C408 H411 0.930 . S
C409 C406 1.348 1_655 S
C409 C407 1.356 1_655 S
H410 C404 0.930 . S
H411 C408 0.930 . S
O412 Li352 1.956 . S
O412 Li353 1.970 . S
O412 Li354 1.961 . S
O412 C356 1.325 . S
O413 Li352 1.970 . S
O413 Li353 1.956 . S
O413 Li355 1.961 . S
O413 C362 1.325 . S
O414 Li352 1.961 . S
O414 Li354 1.956 . S
O414 Li355 1.970 . S
O414 C384 1.325 . S
O415 Li353 1.961 . S
O415 Li354 1.970 . S
O415 Li355 1.956 . S
O415 C390 1.325 . S
H416 C358 0.929 . S
H417 C359 0.930 . S
H418 C360 0.930 . S
H419 C361 0.930 . S
H420 C363 0.930 . S
H421 C365 0.929 . S
H422 C366 0.930 . S
H423 C367 0.930 . S
H424 C370 0.930 . S
H425 C373 0.929 . S
H426 C378 0.929 . S
H427 C379 0.930 . S
H428 C386 0.929 . S
H429 C387 0.930 . S
H430 C388 0.930 . S
H431 C389 0.930 . S
H432 C391 0.929 . S
H433 C392 0.930 . S
H434 C393 0.930 . S
H435 C394 0.930 . S
H436 C398 0.929 . S
H437 C400 0.930 . S
H438 C406 0.929 1_655 S
H439 C407 0.926 1_655 S
Li440 N457 1.990 . S
Li440 O500 1.956 . S
Li440 O501 1.970 . S
Li440 O502 1.961 . S
Li441 N465 1.990 . S
Li441 O500 1.970 . S
Li441 O501 1.956 . S
Li441 O503 1.961 . S
Li442 N487 1.990 . S
Li442 O500 1.961 . S
Li442 O502 1.956 . S
Li442 O503 1.970 . S
Li443 N493 1.990 . S
Li443 O501 1.961 . S
Li443 O502 1.970 . S
Li443 O503 1.956 . S
C444 C446 1.348 . S
C444 C447 1.356 . S
C444 O500 1.325 . S
N445 C448 1.314 . S
N445 C449 1.279 . S
C446 C444 1.348 . S
C446 C448 1.353 . S
C446 H504 0.929 . S
C447 C444 1.356 . S
C447 C449 1.358 . S
C447 H505 0.930 . S
C448 N445 1.314 . S
C448 C446 1.353 . S
C448 H506 0.930 . S
C449 N445 1.279 . S
C449 C447 1.358 . S
C449 H507 0.930 . S
C450 C453 1.348 . S
C450 C454 1.356 . S
C450 O501 1.325 . S
C451 N452 1.279 . S
C451 C454 1.358 . S
C451 H508 0.930 . S
N452 C451 1.279 . S
N452 C455 1.314 . S
C453 C450 1.348 . S
C453 C455 1.353 . S
C453 H509 0.929 . S
C454 C450 1.356 . S
C454 C451 1.358 . S
C454 H510 0.930 . S
C455 N452 1.314 . S
C455 C453 1.353 . S
C455 H511 0.930 . S
C456 N457 1.314 . S
C456 C461 1.353 . S
C456 H462 0.930 . S
N457 Li440 1.990 . S
N457 C456 1.314 . S
N457 C459 1.279 . S
C458 C459 1.358 . S
C458 C460 1.356 . S
C458 H512 0.930 . S
C459 N457 1.279 . S
C459 C458 1.358 . S
C459 H463 0.930 . S
C460 C458 1.356 . S
C460 C461 1.348 . S
C461 C456 1.353 . S
C461 C460 1.348 . S
C461 H513 0.929 . S
H462 C456 0.930 . S
H463 C459 0.930 . S
C464 N465 1.314 . S
C464 C466 1.353 . S
C464 H470 0.930 . S
N465 Li441 1.990 . S
N465 C464 1.314 . S
N465 C468 1.279 . S
C466 C464 1.353 . S
C466 C469 1.348 . S
C466 H514 0.929 . S
C467 C468 1.358 . S
C467 C469 1.356 . S
C467 H515 0.930 . S
C468 N465 1.279 . S
C468 C467 1.358 . S
C468 H471 0.930 . S
C469 C466 1.348 . S
C469 C467 1.356 . S
H470 C464 0.930 . S
H471 C468 0.930 . S
C472 C474 1.348 . S
C472 C475 1.356 . S
C472 O502 1.325 . S
N473 C476 1.314 . S
N473 C477 1.279 . S
C474 C472 1.348 . S
C474 C476 1.353 . S
C474 H516 0.929 . S
C475 C472 1.356 . S
C475 C477 1.358 . S
C475 H517 0.930 . S
C476 N473 1.314 . S
C476 C474 1.353 . S
C476 H518 0.930 . S
C477 N473 1.279 . S
C477 C475 1.358 . S
C477 H519 0.930 . S
C478 C479 1.348 . S
C478 C480 1.356 . S
C478 O503 1.325 . S
C479 C478 1.348 . S
C479 C481 1.353 . S
C479 H520 0.929 . S
C480 C478 1.356 . S
C480 C482 1.358 . S
C480 H521 0.930 . S
C481 C479 1.353 . S
C481 N483 1.314 . S
C481 H522 0.930 . S
C482 C480 1.358 . S
C482 N483 1.279 . S
C482 H523 0.930 . S
N483 C481 1.314 . S
N483 C482 1.279 . S
C484 C486 1.353 . S
C484 N487 1.314 . S
C484 H490 0.930 . S
C485 N487 1.279 . S
C485 C488 1.358 . S
C485 H491 0.930 . S
C486 C484 1.353 . S
C486 C489 1.348 . S
C486 H524 0.929 . S
N487 Li442 1.990 . S
N487 C484 1.314 . S
N487 C485 1.279 . S
C488 C485 1.358 . S
C488 C489 1.356 . S
C488 H525 0.930 . S
C489 C486 1.348 . S
C489 C488 1.356 . S
H490 C484 0.930 . S
H491 C485 0.930 . S
C492 N493 1.314 . S
C492 C494 1.353 . S
C492 H498 0.930 . S
N493 Li443 1.990 . S
N493 C492 1.314 . S
N493 C496 1.279 . S
C494 C492 1.353 . S
C494 C497 1.348 . S
C494 H526 0.929 . S
C495 C496 1.358 . S
C495 C497 1.356 . S
C495 H527 0.930 . S
C496 N493 1.279 . S
C496 C495 1.358 . S
C496 H499 0.930 . S
C497 C494 1.348 . S
C497 C495 1.356 . S
H498 C492 0.930 . S
H499 C496 0.930 . S
O500 Li440 1.956 . S
O500 Li441 1.970 . S
O500 Li442 1.961 . S
O500 C444 1.325 . S
O501 Li440 1.970 . S
O501 Li441 1.956 . S
O501 Li443 1.961 . S
O501 C450 1.325 . S
O502 Li440 1.961 . S
O502 Li442 1.956 . S
O502 Li443 1.970 . S
O502 C472 1.325 . S
O503 Li441 1.961 . S
O503 Li442 1.970 . S
O503 Li443 1.956 . S
O503 C478 1.325 . S
H504 C446 0.929 . S
H505 C447 0.930 . S
H506 C448 0.930 . S
H507 C449 0.930 . S
H508 C451 0.930 . S
H509 C453 0.929 . S
H510 C454 0.930 . S
H511 C455 0.930 . S
H512 C458 0.930 . S
H513 C461 0.929 . S
H514 C466 0.929 . S
H515 C467 0.930 . S
H516 C474 0.929 . S
H517 C475 0.930 . S
H518 C476 0.930 . S
H519 C477 0.930 . S
H520 C479 0.929 . S
H521 C480 0.930 . S
H522 C481 0.930 . S
H523 C482 0.930 . S
H524 C486 0.929 . S
H525 C488 0.930 . S
H526 C494 0.929 . S
H527 C495 0.930 . S
Li528 N545 1.990 . S
Li528 O588 1.956 . S
Li528 O589 1.970 . S
Li528 O590 1.961 . S
Li529 N553 1.990 . S
Li529 O588 1.970 . S
Li529 O589 1.956 . S
Li529 O591 1.961 . S
Li530 N575 1.990 . S
Li530 O588 1.961 . S
Li530 O590 1.956 . S
Li530 O591 1.970 . S
Li531 N581 1.990 . S
Li531 O589 1.961 . S
Li531 O590 1.970 . S
Li531 O591 1.956 . S
C532 C534 1.348 . S
C532 C535 1.356 . S
C532 O588 1.325 . S
N533 C536 1.314 . S
N533 C537 1.279 . S
C534 C532 1.348 . S
C534 C536 1.353 . S
C534 H592 0.929 . S
C535 C532 1.356 . S
C535 C537 1.358 . S
C535 H593 0.930 . S
C536 N533 1.314 . S
C536 C534 1.353 . S
C536 H594 0.930 . S
C537 N533 1.279 . S
C537 C535 1.358 . S
C537 H595 0.930 . S
C538 C541 1.348 . S
C538 C542 1.356 . S
C538 O589 1.325 . S
C539 N540 1.279 . S
C539 C542 1.358 . S
C539 H596 0.930 . S
N540 C539 1.279 . S
N540 C543 1.314 . S
C541 C538 1.348 . S
C541 C543 1.353 . S
C541 H597 0.929 . S
C542 C538 1.356 . S
C542 C539 1.358 . S
C542 H598 0.930 . S
C543 N540 1.314 . S
C543 C541 1.353 . S
C543 H599 0.930 . S
C544 N545 1.314 . S
C544 C549 1.353 . S
C544 H550 0.930 . S
N545 Li528 1.990 . S
N545 C544 1.314 . S
N545 C547 1.279 . S
C546 C547 1.358 . S
C546 C548 1.356 . S
C546 H600 0.930 . S
C547 N545 1.279 . S
C547 C546 1.358 . S
C547 H551 0.930 . S
C548 C546 1.356 . S
C548 C549 1.348 . S
C549 C544 1.353 . S
C549 C548 1.348 . S
C549 H601 0.929 . S
H550 C544 0.930 . S
H551 C547 0.930 . S
C552 N553 1.314 . S
C552 C554 1.353 . S
C552 H558 0.930 . S
N553 Li529 1.990 . S
N553 C552 1.314 . S
N553 C556 1.279 . S
C554 C552 1.353 . S
C554 C557 1.348 . S
C554 H602 0.929 . S
C555 C556 1.358 . S
C555 C557 1.356 . S
C555 H603 0.930 . S
C556 N553 1.279 . S
C556 C555 1.358 . S
C556 H559 0.930 . S
C557 C554 1.348 . S
C557 C555 1.356 . S
H558 C552 0.930 . S
H559 C556 0.930 . S
C560 C562 1.348 . S
C560 C563 1.356 . S
C560 O590 1.325 . S
N561 C564 1.314 . S
N561 C565 1.279 . S
C562 C560 1.348 . S
C562 C564 1.353 . S
C562 H604 0.929 . S
C563 C560 1.356 . S
C563 C565 1.358 . S
C563 H605 0.930 . S
C564 N561 1.314 . S
C564 C562 1.353 . S
C564 H606 0.930 . S
C565 N561 1.279 . S
C565 C563 1.358 . S
C565 H607 0.930 . S
C566 C567 1.348 . S
C566 C568 1.356 . S
C566 O591 1.325 . S
C567 C566 1.348 . S
C567 C569 1.353 . S
C567 H608 0.929 . S
C568 C566 1.356 . S
C568 C570 1.358 . S
C568 H609 0.930 . S
C569 C567 1.353 . S
C569 N571 1.314 . S
C569 H610 0.930 . S
C570 C568 1.358 . S
C570 N571 1.279 . S
C570 H611 0.930 . S
N571 C569 1.314 . S
N571 C570 1.279 . S
C572 C574 1.353 . S
C572 N575 1.314 . S
C572 H578 0.930 . S
C573 N575 1.279 . S
C573 C576 1.358 . S
C573 H579 0.930 . S
C574 C572 1.353 . S
C574 C577 1.348 . S
C574 H612 0.929 . S
N575 Li530 1.990 . S
N575 C572 1.314 . S
N575 C573 1.279 . S
C576 C573 1.358 . S
C576 C577 1.356 . S
C576 H613 0.930 . S
C577 C574 1.348 . S
C577 C576 1.356 . S
H578 C572 0.930 . S
H579 C573 0.930 . S
C580 N581 1.314 . S
C580 C582 1.353 . S
C580 H586 0.930 . S
N581 Li531 1.990 . S
N581 C580 1.314 . S
N581 C584 1.279 . S
C582 C580 1.353 . S
C582 C585 1.348 . S
C582 H614 0.929 . S
C583 C584 1.358 . S
C583 C585 1.356 . S
C583 H615 0.930 . S
C584 N581 1.279 . S
C584 C583 1.358 . S
C584 H587 0.930 . S
C585 C582 1.348 . S
C585 C583 1.356 . S
H586 C580 0.930 . S
H587 C584 0.930 . S
O588 Li528 1.956 . S
O588 Li529 1.970 . S
O588 Li530 1.961 . S
O588 C532 1.325 . S
O589 Li528 1.970 . S
O589 Li529 1.956 . S
O589 Li531 1.961 . S
O589 C538 1.325 . S
O590 Li528 1.961 . S
O590 Li530 1.956 . S
O590 Li531 1.970 . S
O590 C560 1.325 . S
O591 Li529 1.961 . S
O591 Li530 1.970 . S
O591 Li531 1.956 . S
O591 C566 1.325 . S
H592 C534 0.929 . S
H593 C535 0.930 . S
H594 C536 0.930 . S
H595 C537 0.930 . S
H596 C539 0.930 . S
H597 C541 0.929 . S
H598 C542 0.930 . S
H599 C543 0.930 . S
H600 C546 0.930 . S
H601 C549 0.929 . S
H602 C554 0.929 . S
H603 C555 0.930 . S
H604 C562 0.929 . S
H605 C563 0.930 . S
H606 C564 0.930 . S
H607 C565 0.930 . S
H608 C567 0.929 . S
H609 C568 0.930 . S
H610 C569 0.930 . S
H611 C570 0.930 . S
H612 C574 0.929 . S
H613 C576 0.930 . S
H614 C582 0.929 . S
H615 C583 0.930 . S
Li616 N633 1.990 . S
Li616 O676 1.956 1_455 S
Li616 O677 1.970 . S
Li616 O678 1.961 . S
Li617 N641 1.990 . S
Li617 O676 1.970 . S
Li617 O677 1.956 1_655 S
Li617 O679 1.961 1_655 S
Li618 N663 1.990 . S
Li618 O676 1.961 1_455 S
Li618 O678 1.956 . S
Li618 O679 1.970 . S
Li619 N669 1.990 . S
Li619 O677 1.961 . S
Li619 O678 1.970 . S
Li619 O679 1.956 . S
C620 C622 1.348 . S
C620 C623 1.356 . S
C620 O676 1.325 . S
N621 C624 1.314 . S
N621 C625 1.279 . S
C622 C620 1.348 . S
C622 C624 1.353 . S
C622 H680 0.929 . S
C623 C620 1.356 . S
C623 C625 1.358 . S
C623 H681 0.930 . S
C624 N621 1.314 . S
C624 C622 1.353 . S
C624 H682 0.930 . S
C625 N621 1.279 . S
C625 C623 1.358 . S
C625 H683 0.930 . S
C626 C629 1.348 . S
C626 C630 1.356 . S
C626 O677 1.325 . S
C627 N628 1.279 . S
C627 C630 1.358 . S
C627 H684 0.930 . S
N628 C627 1.279 . S
N628 C631 1.314 . S
C629 C626 1.348 . S
C629 C631 1.353 . S
C629 H685 0.929 . S
C630 C626 1.356 . S
C630 C627 1.358 . S
C630 H686 0.930 . S
C631 N628 1.314 . S
C631 C629 1.353 . S
C631 H687 0.930 . S
C632 N633 1.314 . S
C632 C637 1.353 . S
C632 H638 0.930 . S
N633 Li616 1.990 . S
N633 C632 1.314 . S
N633 C635 1.279 . S
C634 C635 1.358 . S
C634 C636 1.356 . S
C634 H688 0.930 . S
C635 N633 1.279 . S
C635 C634 1.358 . S
C635 H639 0.930 1_455 S
C636 C634 1.356 . S
C636 C637 1.348 . S
C637 C632 1.353 . S
C637 C636 1.348 . S
C637 H689 0.929 . S
H638 C632 0.930 . S
H639 C635 0.930 1_655 S
C640 N641 1.314 . S
C640 C642 1.353 . S
C640 H646 0.930 . S
N641 Li617 1.990 . S
N641 C640 1.314 . S
N641 C644 1.279 . S
C642 C640 1.353 . S
C642 C645 1.348 . S
C642 H690 0.929 . S
C643 C644 1.358 . S
C643 C645 1.356 . S
C643 H691 0.930 . S
C644 N641 1.279 . S
C644 C643 1.358 . S
C644 H647 0.930 . S
C645 C642 1.348 . S
C645 C643 1.356 . S
H646 C640 0.930 . S
H647 C644 0.930 . S
C648 C650 1.348 . S
C648 C651 1.356 . S
C648 O678 1.325 . S
N649 C652 1.314 . S
N649 C653 1.279 . S
C650 C648 1.348 . S
C650 C652 1.353 . S
C650 H692 0.929 . S
C651 C648 1.356 . S
C651 C653 1.358 . S
C651 H693 0.930 . S
C652 N649 1.314 . S
C652 C650 1.353 . S
C652 H694 0.930 . S
C653 N649 1.279 . S
C653 C651 1.358 . S
C653 H695 0.930 . S
C654 C655 1.348 . S
C654 C656 1.356 . S
C654 O679 1.325 . S
C655 C654 1.348 . S
C655 C657 1.353 . S
C655 H696 0.929 . S
C656 C654 1.356 . S
C656 C658 1.358 . S
C656 H697 0.930 . S
C657 C655 1.353 . S
C657 N659 1.314 . S
C657 H698 0.930 . S
C658 C656 1.358 . S
C658 N659 1.279 . S
C658 H699 0.930 1_455 S
N659 C657 1.314 . S
N659 C658 1.279 . S
C660 C662 1.353 . S
C660 N663 1.314 1_655 S
C660 H666 0.930 . S
C661 N663 1.279 . S
C661 C664 1.358 . S
C661 H667 0.930 . S
C662 C660 1.353 . S
C662 C665 1.348 1_655 S
C662 H700 0.929 . S
N663 Li618 1.990 . S
N663 C660 1.314 1_455 S
N663 C661 1.279 . S
C664 C661 1.358 . S
C664 C665 1.356 . S
C664 H701 0.930 . S
C665 C662 1.348 1_455 S
C665 C664 1.356 . S
H666 C660 0.930 . S
H667 C661 0.930 . S
C668 N669 1.314 . S
C668 C670 1.353 . S
C668 H674 0.930 . S
N669 Li619 1.990 . S
N669 C668 1.314 . S
N669 C672 1.279 . S
C670 C668 1.353 . S
C670 C673 1.348 . S
C670 H702 0.929 . S
C671 C672 1.358 . S
C671 C673 1.356 . S
C671 H703 0.930 . S
C672 N669 1.279 . S
C672 C671 1.358 . S
C672 H675 0.930 . S
C673 C670 1.348 . S
C673 C671 1.356 . S
H674 C668 0.930 . S
H675 C672 0.930 . S
O676 Li616 1.956 1_655 S
O676 Li617 1.970 . S
O676 Li618 1.961 1_655 S
O676 C620 1.325 . S
O677 Li616 1.970 . S
O677 Li617 1.956 1_455 S
O677 Li619 1.961 . S
O677 C626 1.325 . S
O678 Li616 1.961 . S
O678 Li618 1.956 . S
O678 Li619 1.970 . S
O678 C648 1.325 . S
O679 Li617 1.961 1_455 S
O679 Li618 1.970 . S
O679 Li619 1.956 . S
O679 C654 1.325 . S
H680 C622 0.929 . S
H681 C623 0.930 . S
H682 C624 0.930 . S
H683 C625 0.930 . S
H684 C627 0.930 . S
H685 C629 0.929 . S
H686 C630 0.930 . S
H687 C631 0.930 . S
H688 C634 0.930 . S
H689 C637 0.929 . S
H690 C642 0.929 . S
H691 C643 0.930 . S
H692 C650 0.929 . S
H693 C651 0.930 . S
H694 C652 0.930 . S
H695 C653 0.930 . S
H696 C655 0.929 . S
H697 C656 0.930 . S
H698 C657 0.930 . S
H699 C658 0.930 1_655 S
H700 C662 0.929 . S
H701 C664 0.930 . S
H702 C670 0.929 . S
H703 C671 0.930 . S
Li704 N721 1.990 . S
Li704 O764 1.956 1_545 S
Li704 O765 1.970 . S
Li704 O766 1.961 . S
Li705 N729 1.990 . S
Li705 O764 1.970 . S
Li705 O765 1.956 1_565 S
Li705 O767 1.958 . S
Li706 N751 1.990 . S
Li706 O764 1.961 1_545 S
Li706 O766 1.956 . S
Li706 O767 1.970 1_545 S
Li707 N757 1.990 . S
Li707 O765 1.961 . S
Li707 O766 1.970 . S
Li707 O767 1.958 1_545 S
C708 C710 1.348 . S
C708 C711 1.356 . S
C708 O764 1.325 . S
N709 C712 1.314 . S
N709 C713 1.279 . S
C710 C708 1.348 . S
C710 C712 1.353 . S
C710 H768 0.929 . S
C711 C708 1.356 . S
C711 C713 1.358 . S
C711 H769 0.930 . S
C712 N709 1.314 . S
C712 C710 1.353 . S
C712 H770 0.930 . S
C713 N709 1.279 . S
C713 C711 1.358 . S
C713 H771 0.930 . S
C714 C717 1.373 . S
C714 C718 1.356 . S
C714 O765 1.325 . S
C715 N716 1.279 . S
C715 C718 1.358 . S
C715 H772 0.930 . S
N716 C715 1.279 . S
N716 C719 1.320 . S
C717 C714 1.373 . S
C717 C719 1.354 . S
C717 H773 0.894 1_545 S
C718 C714 1.356 . S
C718 C715 1.358 . S
C718 H774 0.930 . S
C719 N716 1.320 . S
C719 C717 1.354 . S
C719 H775 0.923 1_545 S
C720 N721 1.314 . S
C720 C725 1.353 . S
C720 H726 0.930 . S
N721 Li704 1.990 . S
N721 C720 1.314 . S
N721 C723 1.278 1_545 S
C722 C723 1.359 1_545 S
C722 C724 1.356 . S
C722 H776 0.930 1_545 S
C723 N721 1.278 1_565 S
C723 C722 1.359 1_565 S
C723 H727 0.932 . S
C724 C722 1.356 . S
C724 C725 1.348 . S
C725 C720 1.353 . S
C725 C724 1.348 . S
C725 H777 0.929 . S
H726 C720 0.930 . S
H727 C723 0.932 . S
C728 N729 1.314 . S
C728 C730 1.353 . S
C728 H734 0.930 . S
N729 Li705 1.990 . S
N729 C728 1.314 . S
N729 C732 1.279 . S
C730 C728 1.353 . S
C730 C733 1.348 . S
C730 H778 0.929 . S
C731 C732 1.358 . S
C731 C733 1.356 . S
C731 H779 0.930 . S
C732 N729 1.279 . S
C732 C731 1.358 . S
C732 H735 0.930 . S
C733 C730 1.348 . S
C733 C731 1.356 . S
H734 C728 0.930 . S
H735 C732 0.930 . S
C736 C738 1.348 . S
C736 C739 1.356 . S
C736 O766 1.325 . S
N737 C740 1.314 . S
N737 C741 1.279 . S
C738 C736 1.348 . S
C738 C740 1.353 . S
C738 H780 0.929 . S
C739 C736 1.356 . S
C739 C741 1.358 . S
C739 H781 0.930 . S
C740 N737 1.314 . S
C740 C738 1.353 . S
C740 H782 0.930 . S
C741 N737 1.279 . S
C741 C739 1.358 . S
C741 H783 0.930 . S
C742 C743 1.348 1_565 S
C742 C744 1.356 . S
C742 O767 1.325 . S
C743 C742 1.348 1_545 S
C743 C745 1.353 1_545 S
C743 H784 0.929 . S
C744 C742 1.356 . S
C744 C746 1.358 . S
C744 H785 0.930 . S
C745 C743 1.353 1_565 S
C745 N747 1.314 . S
C745 H786 0.930 1_565 S
C746 C744 1.358 . S
C746 N747 1.279 . S
C746 H787 0.930 . S
N747 C745 1.314 . S
N747 C746 1.279 . S
C748 C750 1.353 . S
C748 N751 1.314 1_565 S
C748 H754 0.930 . S
C749 N751 1.279 . S
C749 C752 1.358 . S
C749 H755 0.930 . S
C750 C748 1.353 . S
C750 C753 1.348 1_565 S
C750 H788 0.929 . S
N751 Li706 1.990 . S
N751 C748 1.314 1_545 S
N751 C749 1.279 . S
C752 C749 1.358 . S
C752 C753 1.356 . S
C752 H789 0.930 . S
C753 C750 1.348 1_545 S
C753 C752 1.356 . S
H754 C748 0.930 . S
H755 C749 0.930 . S
C756 N757 1.314 . S
C756 C758 1.353 . S
C756 H762 0.930 . S
N757 Li707 1.990 . S
N757 C756 1.314 . S
N757 C760 1.279 . S
C758 C756 1.353 . S
C758 C761 1.348 . S
C758 H790 0.929 . S
C759 C760 1.358 . S
C759 C761 1.356 . S
C759 H791 0.930 . S
C760 N757 1.279 . S
C760 C759 1.358 . S
C760 H763 0.930 . S
C761 C758 1.348 . S
C761 C759 1.356 . S
H762 C756 0.930 . S
H763 C760 0.930 . S
O764 Li704 1.956 1_565 S
O764 Li705 1.970 . S
O764 Li706 1.961 1_565 S
O764 C708 1.325 . S
O765 Li704 1.970 . S
O765 Li705 1.956 1_545 S
O765 Li707 1.961 . S
O765 C714 1.325 . S
O766 Li704 1.961 . S
O766 Li706 1.956 . S
O766 Li707 1.970 . S
O766 C736 1.325 . S
O767 Li705 1.958 . S
O767 Li706 1.970 1_565 S
O767 Li707 1.958 1_565 S
O767 C742 1.325 . S
H768 C710 0.929 . S
H769 C711 0.930 . S
H770 C712 0.930 . S
H771 C713 0.930 . S
H772 C715 0.930 . S
H773 C717 0.894 1_565 S
H774 C718 0.930 . S
H775 C719 0.923 1_565 S
H776 C722 0.930 1_565 S
H777 C725 0.929 . S
H778 C730 0.929 . S
H779 C731 0.930 . S
H780 C738 0.929 . S
H781 C739 0.930 . S
H782 C740 0.930 . S
H783 C741 0.930 . S
H784 C743 0.929 . S
H785 C744 0.930 . S
H786 C745 0.930 1_545 S
H787 C746 0.930 . S
H788 C750 0.929 . S
H789 C752 0.930 . S
H790 C758 0.929 . S
H791 C759 0.930 . S
Li792 N809 1.990 . S
Li792 O852 1.956 . S
Li792 O853 1.970 . S
Li792 O854 1.961 . S
Li793 N817 1.990 . S
Li793 O852 1.970 . S
Li793 O853 1.956 . S
Li793 O855 1.961 . S
Li794 N839 1.990 . S
Li794 O852 1.961 . S
Li794 O854 1.956 . S
Li794 O855 1.970 . S
Li795 N845 1.990 . S
Li795 O853 1.961 . S
Li795 O854 1.970 . S
Li795 O855 1.956 . S
C796 C798 1.348 . S
C796 C799 1.356 . S
C796 O852 1.325 . S
N797 C800 1.314 . S
N797 C801 1.279 . S
C798 C796 1.348 . S
C798 C800 1.353 . S
C798 H856 0.929 . S
C799 C796 1.356 . S
C799 C801 1.358 . S
C799 H857 0.930 . S
C800 N797 1.314 . S
C800 C798 1.353 . S
C800 H858 0.930 . S
C801 N797 1.279 . S
C801 C799 1.358 . S
C801 H859 0.930 . S
C802 C805 1.348 . S
C802 C806 1.356 . S
C802 O853 1.325 . S
C803 N804 1.279 . S
C803 C806 1.358 . S
C803 H860 0.930 . S
N804 C803 1.279 . S
N804 C807 1.314 . S
C805 C802 1.348 . S
C805 C807 1.353 . S
C805 H861 0.929 . S
C806 C802 1.356 . S
C806 C803 1.358 . S
C806 H862 0.930 . S
C807 N804 1.314 . S
C807 C805 1.353 . S
C807 H863 0.930 . S
C808 N809 1.314 . S
C808 C813 1.353 . S
C808 H814 0.930 . S
N809 Li792 1.990 . S
N809 C808 1.314 . S
N809 C811 1.279 . S
C810 C811 1.358 . S
C810 C812 1.356 . S
C810 H864 0.930 . S
C811 N809 1.279 . S
C811 C810 1.358 . S
C811 H815 0.930 . S
C812 C810 1.356 . S
C812 C813 1.348 . S
C813 C808 1.353 . S
C813 C812 1.348 . S
C813 H865 0.929 . S
H814 C808 0.930 . S
H815 C811 0.930 . S
C816 N817 1.314 . S
C816 C818 1.353 . S
C816 H822 0.930 . S
N817 Li793 1.990 . S
N817 C816 1.314 . S
N817 C820 1.279 . S
C818 C816 1.353 . S
C818 C821 1.348 . S
C818 H866 0.929 . S
C819 C820 1.358 . S
C819 C821 1.356 . S
C819 H867 0.930 . S
C820 N817 1.279 . S
C820 C819 1.358 . S
C820 H823 0.930 . S
C821 C818 1.348 . S
C821 C819 1.356 . S
H822 C816 0.930 . S
H823 C820 0.930 . S
C824 C826 1.348 . S
C824 C827 1.356 . S
C824 O854 1.325 . S
N825 C828 1.314 . S
N825 C829 1.279 . S
C826 C824 1.348 . S
C826 C828 1.353 . S
C826 H868 0.929 . S
C827 C824 1.356 . S
C827 C829 1.358 . S
C827 H869 0.930 . S
C828 N825 1.314 . S
C828 C826 1.353 . S
C828 H870 0.930 . S
C829 N825 1.279 . S
C829 C827 1.358 . S
C829 H871 0.930 . S
C830 C831 1.348 . S
C830 C832 1.356 . S
C830 O855 1.325 . S
C831 C830 1.348 . S
C831 C833 1.353 . S
C831 H872 0.929 . S
C832 C830 1.356 . S
C832 C834 1.358 . S
C832 H873 0.930 . S
C833 C831 1.353 . S
C833 N835 1.314 . S
C833 H874 0.930 . S
C834 C832 1.358 . S
C834 N835 1.279 . S
C834 H875 0.930 . S
N835 C833 1.314 . S
N835 C834 1.279 . S
C836 C838 1.353 . S
C836 N839 1.314 . S
C836 H842 0.930 . S
C837 N839 1.279 . S
C837 C840 1.358 . S
C837 H843 0.930 . S
C838 C836 1.353 . S
C838 C841 1.348 . S
C838 H876 0.929 . S
N839 Li794 1.990 . S
N839 C836 1.314 . S
N839 C837 1.279 . S
C840 C837 1.358 . S
C840 C841 1.356 . S
C840 H877 0.930 . S
C841 C838 1.348 . S
C841 C840 1.356 . S
H842 C836 0.930 . S
H843 C837 0.930 . S
C844 N845 1.314 . S
C844 C846 1.353 . S
C844 H850 0.930 . S
N845 Li795 1.990 . S
N845 C844 1.314 . S
N845 C848 1.279 . S
C846 C844 1.353 . S
C846 C849 1.348 . S
C846 H878 0.929 . S
C847 C848 1.358 . S
C847 C849 1.356 . S
C847 H879 0.930 . S
C848 N845 1.279 . S
C848 C847 1.358 . S
C848 H851 0.930 . S
C849 C846 1.348 . S
C849 C847 1.356 . S
H850 C844 0.930 . S
H851 C848 0.930 . S
O852 Li792 1.956 . S
O852 Li793 1.970 . S
O852 Li794 1.961 . S
O852 C796 1.325 . S
O853 Li792 1.970 . S
O853 Li793 1.956 . S
O853 Li795 1.961 . S
O853 C802 1.325 . S
O854 Li792 1.961 . S
O854 Li794 1.956 . S
O854 Li795 1.970 . S
O854 C824 1.325 . S
O855 Li793 1.961 . S
O855 Li794 1.970 . S
O855 Li795 1.956 . S
O855 C830 1.325 . S
H856 C798 0.929 . S
H857 C799 0.930 . S
H858 C800 0.930 . S
H859 C801 0.930 . S
H860 C803 0.930 . S
H861 C805 0.929 . S
H862 C806 0.930 . S
H863 C807 0.930 . S
H864 C810 0.930 . S
H865 C813 0.929 . S
H866 C818 0.929 . S
H867 C819 0.930 . S
H868 C826 0.929 . S
H869 C827 0.930 . S
H870 C828 0.930 . S
H871 C829 0.930 . S
H872 C831 0.929 . S
H873 C832 0.930 . S
H874 C833 0.930 . S
H875 C834 0.930 . S
H876 C838 0.929 . S
H877 C840 0.930 . S
H878 C846 0.929 . S
H879 C847 0.930 . S
Li880 N897 1.990 . S
Li880 O940 1.956 . S
Li880 O941 1.970 . S
Li880 O942 1.995 . S
Li881 N905 1.990 1_545 S
Li881 O940 1.970 . S
Li881 O941 1.960 . S
Li881 O943 1.957 1_545 S
Li882 N927 1.990 . S
Li882 O940 1.961 1_565 S
Li882 O942 1.913 1_565 S
Li882 O943 1.970 . S
Li883 N933 1.990 . S
Li883 O941 1.961 1_565 S
Li883 O942 1.974 1_565 S
Li883 O943 1.956 . S
C884 C886 1.348 . S
C884 C887 1.356 . S
C884 O940 1.325 . S
N885 C888 1.314 . S
N885 C889 1.279 . S
C886 C884 1.348 . S
C886 C888 1.353 . S
C886 H944 0.929 . S
C887 C884 1.356 . S
C887 C889 1.358 . S
C887 H945 0.930 . S
C888 N885 1.314 . S
C888 C886 1.353 . S
C888 H946 0.930 . S
C889 N885 1.279 . S
C889 C887 1.358 . S
C889 H947 0.930 . S
C890 C893 1.348 . S
C890 C894 1.356 . S
C890 O941 1.325 . S
C891 N892 1.279 . S
C891 C894 1.358 . S
C891 H948 0.930 . S
N892 C891 1.279 . S
N892 C895 1.314 . S
C893 C890 1.348 . S
C893 C895 1.353 . S
C893 H949 0.929 . S
C894 C890 1.356 . S
C894 C891 1.358 . S
C894 H950 0.930 . S
C895 N892 1.314 . S
C895 C893 1.353 . S
C895 H951 0.930 . S
C896 N897 1.314 . S
C896 C901 1.353 . S
C896 H902 0.930 . S
N897 Li880 1.990 . S
N897 C896 1.314 . S
N897 C899 1.279 . S
C898 C899 1.358 . S
C898 C900 1.356 . S
C898 H952 0.930 . S
C899 N897 1.279 . S
C899 C898 1.358 . S
C899 H903 0.930 . S
C900 C898 1.356 . S
C900 C901 1.348 . S
C901 C896 1.353 . S
C901 C900 1.348 . S
C901 H953 0.929 . S
H902 C896 0.930 . S
H903 C899 0.930 . S
C904 N905 1.320 . S
C904 C906 1.353 . S
C904 H910 0.930 . S
N905 Li881 1.990 1_565 S
N905 C904 1.320 . S
N905 C908 1.274 1_565 S
C906 C904 1.353 . S
C906 C909 1.348 . S
C906 H954 0.929 . S
C907 C908 1.358 . S
C907 C909 1.356 1_545 S
C907 H955 0.930 . S
C908 N905 1.274 1_545 S
C908 C907 1.358 . S
C908 H911 0.930 . S
C909 C906 1.348 . S
C909 C907 1.356 1_565 S
H910 C904 0.930 . S
H911 C908 0.930 . S
C912 C914 1.339 1_545 S
C912 C915 1.361 . S
C912 O942 1.325 . S
N913 C916 1.313 1_545 S
N913 C917 1.281 . S
C914 C912 1.339 1_565 S
C914 C916 1.353 . S
C914 H956 0.929 . S
C915 C912 1.361 . S
C915 C917 1.358 . S
C915 H957 0.930 . S
C916 N913 1.313 1_565 S
C916 C914 1.353 . S
C916 H958 0.930 . S
C917 N913 1.281 . S
C917 C915 1.358 . S
C917 H959 0.930 . S
C918 C919 1.348 . S
C918 C920 1.356 . S
C918 O943 1.325 . S
C919 C918 1.348 . S
C919 C921 1.353 . S
C919 H960 0.929 . S
C920 C918 1.356 . S
C920 C922 1.358 . S
C920 H961 0.930 . S
C921 C919 1.353 . S
C921 N923 1.314 . S
C921 H962 0.930 . S
C922 C920 1.358 . S
C922 N923 1.279 . S
C922 H963 0.930 . S
N923 C921 1.314 . S
N923 C922 1.279 . S
C924 C926 1.353 . S
C924 N927 1.314 . S
C924 H930 0.930 . S
C925 N927 1.279 . S
C925 C928 1.358 . S
C925 H931 0.930 . S
C926 C924 1.353 . S
C926 C929 1.348 . S
C926 H964 0.929 . S
N927 Li882 1.990 . S
N927 C924 1.314 . S
N927 C925 1.279 . S
C928 C925 1.358 . S
C928 C929 1.356 . S
C928 H965 0.930 . S
C929 C926 1.348 . S
C929 C928 1.356 . S
H930 C924 0.930 . S
H931 C925 0.930 . S
C932 N933 1.314 1_545 S
C932 C934 1.353 . S
C932 H938 0.930 . S
N933 Li883 1.990 . S
N933 C932 1.314 1_565 S
N933 C936 1.279 . S
C934 C932 1.353 . S
C934 C937 1.348 1_545 S
C934 H966 0.929 . S
C935 C936 1.358 . S
C935 C937 1.356 . S
C935 H967 0.930 . S
C936 N933 1.279 . S
C936 C935 1.358 . S
C936 H939 0.930 . S
C937 C934 1.348 1_565 S
C937 C935 1.356 . S
H938 C932 0.930 . S
H939 C936 0.930 . S
O940 Li880 1.956 . S
O940 Li881 1.970 . S
O940 Li882 1.961 1_545 S
O940 C884 1.325 . S
O941 Li880 1.970 . S
O941 Li881 1.960 . S
O941 Li883 1.961 1_545 S
O941 C890 1.325 . S
O942 Li880 1.995 . S
O942 Li882 1.913 1_545 S
O942 Li883 1.974 1_545 S
O942 C912 1.325 . S
O943 Li881 1.957 1_565 S
O943 Li882 1.970 . S
O943 Li883 1.956 . S
O943 C918 1.325 . S
H944 C886 0.929 . S
H945 C887 0.930 . S
H946 C888 0.930 . S
H947 C889 0.930 . S
H948 C891 0.930 . S
H949 C893 0.929 . S
H950 C894 0.930 . S
H951 C895 0.930 . S
H952 C898 0.930 . S
H953 C901 0.929 . S
H954 C906 0.929 . S
H955 C907 0.930 . S
H956 C914 0.929 . S
H957 C915 0.930 . S
H958 C916 0.930 . S
H959 C917 0.930 . S
H960 C919 0.929 . S
H961 C920 0.930 . S
H962 C921 0.930 . S
H963 C922 0.930 . S
H964 C926 0.929 . S
H965 C928 0.930 . S
H966 C934 0.929 . S
H967 C935 0.930 . S
Li968 N985 1.990 . S
Li968 O1028 1.956 . S
Li968 O1029 1.970 . S
Li968 O1030 1.961 1_554 S
Li969 N993 1.990 . S
Li969 O1028 1.970 . S
Li969 O1029 1.956 . S
Li969 O1031 1.961 . S
Li970 N1015 1.990 . S
Li970 O1028 1.961 . S
Li970 O1030 1.956 1_554 S
Li970 O1031 1.970 . S
Li971 N1021 1.990 . S
Li971 O1029 1.961 1_556 S
Li971 O1030 1.970 . S
Li971 O1031 1.956 1_556 S
C972 C974 1.348 . S
C972 C975 1.356 . S
C972 O1028 1.325 . S
N973 C976 1.314 . S
N973 C977 1.279 . S
C974 C972 1.348 . S
C974 C976 1.353 . S
C974 H1032 0.929 . S
C975 C972 1.356 . S
C975 C977 1.358 . S
C975 H1033 0.930 . S
C976 N973 1.314 . S
C976 C974 1.353 . S
C976 H1034 0.930 . S
C977 N973 1.279 . S
C977 C975 1.358 . S
C977 H1035 0.930 . S
C978 C981 1.348 . S
C978 C982 1.355 1_554 S
C978 O1029 1.325 . S
C979 N980 1.279 1_556 S
C979 C982 1.358 . S
C979 H1036 0.930 . S
N980 C979 1.279 1_554 S
N980 C983 1.314 . S
C981 C978 1.348 . S
C981 C983 1.353 . S
C981 H1037 0.929 . S
C982 C978 1.355 1_556 S
C982 C979 1.358 . S
C982 H1038 0.932 . S
C983 N980 1.314 . S
C983 C981 1.353 . S
C983 H1039 0.930 . S
C984 N985 1.314 1_556 S
C984 C989 1.353 . S
C984 H990 0.930 . S
N985 Li968 1.990 . S
N985 C984 1.314 1_554 S
N985 C987 1.279 . S
C986 C987 1.358 . S
C986 C988 1.356 . S
C986 H1040 0.930 . S
C987 N985 1.279 . S
C987 C986 1.358 . S
C987 H991 0.930 . S
C988 C986 1.356 . S
C988 C989 1.348 1_554 S
C989 C984 1.353 . S
C989 C988 1.348 1_556 S
C989 H1041 0.929 . S
H990 C984 0.930 . S
H991 C987 0.930 . S
C992 N993 1.314 . S
C992 C994 1.353 . S
C992 H998 0.930 . S
N993 Li969 1.990 . S
N993 C992 1.314 . S
N993 C996 1.279 . S
C994 C992 1.353 . S
C994 C997 1.348 . S
C994 H1042 0.929 . S
C995 C996 1.358 . S
C995 C997 1.356 . S
C995 H1043 0.930 . S
C996 N993 1.279 . S
C996 C995 1.358 . S
C996 H999 0.930 . S
C997 C994 1.348 . S
C997 C995 1.356 . S
H998 C992 0.930 . S
H999 C996 0.930 . S
C1000 C1002 1.348 . S
C1000 C1003 1.356 . S
C1000 O1030 1.325 . S
N1001 C1004 1.314 . S
N1001 C1005 1.279 . S
C1002 C1000 1.348 . S
C1002 C1004 1.353 . S
C1002 H1044 0.929 . S
C1003 C1000 1.356 . S
C1003 C1005 1.358 . S
C1003 H1045 0.930 . S
C1004 N1001 1.314 . S
C1004 C1002 1.353 . S
C1004 H1046 0.930 . S
C1005 N1001 1.279 . S
C1005 C1003 1.358 . S
C1005 H1047 0.930 . S
C1006 C1007 1.348 . S
C1006 C1008 1.356 . S
C1006 O1031 1.325 . S
C1007 C1006 1.348 . S
C1007 C1009 1.353 . S
C1007 H1048 0.929 . S
C1008 C1006 1.356 . S
C1008 C1010 1.358 . S
C1008 H1049 0.930 . S
C1009 C1007 1.353 . S
C1009 N1011 1.314 . S
C1009 H1050 0.930 . S
C1010 C1008 1.358 . S
C1010 N1011 1.279 . S
C1010 H1051 0.930 . S
N1011 C1009 1.314 . S
N1011 C1010 1.279 . S
C1012 C1014 1.353 . S
C1012 N1015 1.314 . S
C1012 H1018 0.930 . S
C1013 N1015 1.279 . S
C1013 C1016 1.358 . S
C1013 H1019 0.930 1_554 S
C1014 C1012 1.353 . S
C1014 C1017 1.348 . S
C1014 H1052 0.929 . S
N1015 Li970 1.990 . S
N1015 C1012 1.314 . S
N1015 C1013 1.279 . S
C1016 C1013 1.358 . S
C1016 C1017 1.356 . S
C1016 H1053 0.930 1_554 S
C1017 C1014 1.348 . S
C1017 C1016 1.356 . S
H1018 C1012 0.930 . S
H1019 C1013 0.930 1_556 S
C1020 N1021 1.314 . S
C1020 C1022 1.353 . S
C1020 H1026 0.930 . S
N1021 Li971 1.990 . S
N1021 C1020 1.314 . S
N1021 C1024 1.279 . S
C1022 C1020 1.353 . S
C1022 C1025 1.348 . S
C1022 H1054 0.929 . S
C1023 C1024 1.358 . S
C1023 C1025 1.356 . S
C1023 H1055 0.930 . S
C1024 N1021 1.279 . S
C1024 C1023 1.358 . S
C1024 H1027 0.930 . S
C1025 C1022 1.348 . S
C1025 C1023 1.356 . S
H1026 C1020 0.930 . S
H1027 C1024 0.930 . S
O1028 Li968 1.956 . S
O1028 Li969 1.970 . S
O1028 Li970 1.961 . S
O1028 C972 1.325 . S
O1029 Li968 1.970 . S
O1029 Li969 1.956 . S
O1029 Li971 1.961 1_554 S
O1029 C978 1.325 . S
O1030 Li968 1.961 1_556 S
O1030 Li970 1.956 1_556 S
O1030 Li971 1.970 . S
O1030 C1000 1.325 . S
O1031 Li969 1.961 . S
O1031 Li970 1.970 . S
O1031 Li971 1.956 1_554 S
O1031 C1006 1.325 . S
H1032 C974 0.929 . S
H1033 C975 0.930 . S
H1034 C976 0.930 . S
H1035 C977 0.930 . S
H1036 C979 0.930 . S
H1037 C981 0.929 . S
H1038 C982 0.932 . S
H1039 C983 0.930 . S
H1040 C986 0.930 . S
H1041 C989 0.929 . S
H1042 C994 0.929 . S
H1043 C995 0.930 . S
H1044 C1002 0.929 . S
H1045 C1003 0.930 . S
H1046 C1004 0.930 . S
H1047 C1005 0.930 . S
H1048 C1007 0.929 . S
H1049 C1008 0.930 . S
H1050 C1009 0.930 . S
H1051 C1010 0.930 . S
H1052 C1014 0.929 . S
H1053 C1016 0.930 1_556 S
H1054 C1022 0.929 . S
H1055 C1023 0.930 . S
Li1056 N1073 1.990 . S
Li1056 O1116 1.956 . S
Li1056 O1117 1.970 . S
Li1056 O1118 1.961 1_554 S
Li1057 N1081 1.990 . S
Li1057 O1116 1.970 . S
Li1057 O1117 1.956 . S
Li1057 O1119 1.961 . S
Li1058 N1103 1.990 . S
Li1058 O1116 1.961 . S
Li1058 O1118 1.956 1_554 S
Li1058 O1119 1.970 . S
Li1059 N1109 1.990 . S
Li1059 O1117 1.961 1_556 S
Li1059 O1118 1.970 . S
Li1059 O1119 1.956 1_556 S
C1060 C1062 1.348 . S
C1060 C1063 1.356 . S
C1060 O1116 1.325 . S
N1061 C1064 1.314 . S
N1061 C1065 1.279 . S
C1062 C1060 1.348 . S
C1062 C1064 1.353 . S
C1062 H1120 0.929 . S
C1063 C1060 1.356 . S
C1063 C1065 1.358 . S
C1063 H1121 0.930 . S
C1064 N1061 1.314 . S
C1064 C1062 1.353 . S
C1064 H1122 0.930 . S
C1065 N1061 1.279 . S
C1065 C1063 1.358 . S
C1065 H1123 0.930 . S
C1066 C1069 1.348 . S
C1066 C1070 1.356 . S
C1066 O1117 1.325 . S
C1067 N1068 1.279 . S
C1067 C1070 1.358 . S
C1067 H1124 0.930 1_554 S
N1068 C1067 1.279 . S
N1068 C1071 1.314 . S
C1069 C1066 1.348 . S
C1069 C1071 1.353 . S
C1069 H1125 0.929 . S
C1070 C1066 1.356 . S
C1070 C1067 1.358 . S
C1070 H1126 0.933 . S
C1071 N1068 1.314 . S
C1071 C1069 1.353 . S
C1071 H1127 0.930 . S
C1072 N1073 1.335 . S
C1072 C1077 1.350 1_554 S
C1072 H1078 0.908 1_554 S
N1073 Li1056 1.990 . S
N1073 C1072 1.335 . S
N1073 C1075 1.279 . S
C1074 C1075 1.358 . S
C1074 C1076 1.356 . S
C1074 H1128 0.930 . S
C1075 N1073 1.279 . S
C1075 C1074 1.358 . S
C1075 H1079 0.930 . S
C1076 C1074 1.356 . S
C1076 C1077 1.319 1_554 S
C1077 C1072 1.350 1_556 S
C1077 C1076 1.319 1_556 S
C1077 H1129 0.961 . S
H1078 C1072 0.908 1_556 S
H1079 C1075 0.930 . S
C1080 N1081 1.314 . S
C1080 C1082 1.353 . S
C1080 H1086 0.930 . S
N1081 Li1057 1.990 . S
N1081 C1080 1.314 . S
N1081 C1084 1.279 . S
C1082 C1080 1.353 . S
C1082 C1085 1.348 . S
C1082 H1130 0.929 . S
C1083 C1084 1.358 . S
C1083 C1085 1.356 . S
C1083 H1131 0.930 . S
C1084 N1081 1.279 . S
C1084 C1083 1.358 . S
C1084 H1087 0.930 . S
C1085 C1082 1.348 . S
C1085 C1083 1.356 . S
H1086 C1080 0.930 . S
H1087 C1084 0.930 . S
C1088 C1090 1.348 . S
C1088 C1091 1.356 . S
C1088 O1118 1.325 . S
N1089 C1092 1.314 . S
N1089 C1093 1.279 . S
C1090 C1088 1.348 . S
C1090 C1092 1.353 . S
C1090 H1132 0.929 . S
C1091 C1088 1.356 . S
C1091 C1093 1.358 . S
C1091 H1133 0.930 . S
C1092 N1089 1.314 . S
C1092 C1090 1.353 . S
C1092 H1134 0.930 . S
C1093 N1089 1.279 . S
C1093 C1091 1.358 . S
C1093 H1135 0.930 . S
C1094 C1095 1.348 . S
C1094 C1096 1.356 . S
C1094 O1119 1.325 . S
C1095 C1094 1.348 . S
C1095 C1097 1.353 . S
C1095 H1136 0.929 . S
C1096 C1094 1.356 . S
C1096 C1098 1.358 . S
C1096 H1137 0.930 . S
C1097 C1095 1.353 . S
C1097 N1099 1.314 . S
C1097 H1138 0.930 . S
C1098 C1096 1.358 . S
C1098 N1099 1.279 . S
C1098 H1139 0.930 . S
N1099 C1097 1.314 . S
N1099 C1098 1.279 . S
C1100 C1102 1.353 . S
C1100 N1103 1.314 . S
C1100 H1106 0.930 . S
C1101 N1103 1.279 . S
C1101 C1104 1.358 . S
C1101 H1107 0.930 1_554 S
C1102 C1100 1.353 . S
C1102 C1105 1.348 . S
C1102 H1140 0.929 . S
N1103 Li1058 1.990 . S
N1103 C1100 1.314 . S
N1103 C1101 1.279 . S
C1104 C1101 1.358 . S
C1104 C1105 1.356 . S
C1104 H1141 0.930 1_554 S
C1105 C1102 1.348 . S
C1105 C1104 1.356 . S
H1106 C1100 0.930 . S
H1107 C1101 0.930 1_556 S
C1108 N1109 1.314 . S
C1108 C1110 1.353 . S
C1108 H1114 0.930 . S
N1109 Li1059 1.990 . S
N1109 C1108 1.314 . S
N1109 C1112 1.279 . S
C1110 C1108 1.353 . S
C1110 C1113 1.348 . S
C1110 H1142 0.929 . S
C1111 C1112 1.358 . S
C1111 C1113 1.356 . S
C1111 H1143 0.930 . S
C1112 N1109 1.279 . S
C1112 C1111 1.358 . S
C1112 H1115 0.930 . S
C1113 C1110 1.348 . S
C1113 C1111 1.356 . S
H1114 C1108 0.930 . S
H1115 C1112 0.930 . S
O1116 Li1056 1.956 . S
O1116 Li1057 1.970 . S
O1116 Li1058 1.961 . S
O1116 C1060 1.325 . S
O1117 Li1056 1.970 . S
O1117 Li1057 1.956 . S
O1117 Li1059 1.961 1_554 S
O1117 C1066 1.325 . S
O1118 Li1056 1.961 1_556 S
O1118 Li1058 1.956 1_556 S
O1118 Li1059 1.970 . S
O1118 C1088 1.325 . S
O1119 Li1057 1.961 . S
O1119 Li1058 1.970 . S
O1119 Li1059 1.956 1_554 S
O1119 C1094 1.325 . S
H1120 C1062 0.929 . S
H1121 C1063 0.930 . S
H1122 C1064 0.930 . S
H1123 C1065 0.930 . S
H1124 C1067 0.930 1_556 S
H1125 C1069 0.929 . S
H1126 C1070 0.933 . S
H1127 C1071 0.930 . S
H1128 C1074 0.930 . S
H1129 C1077 0.961 . S
H1130 C1082 0.929 . S
H1131 C1083 0.930 . S
H1132 C1090 0.929 . S
H1133 C1091 0.930 . S
H1134 C1092 0.930 . S
H1135 C1093 0.930 . S
H1136 C1095 0.929 . S
H1137 C1096 0.930 . S
H1138 C1097 0.930 . S
H1139 C1098 0.930 . S
H1140 C1102 0.929 . S
H1141 C1104 0.930 1_556 S
H1142 C1110 0.929 . S
H1143 C1111 0.930 . S
Li1144 N1161 1.990 . S
Li1144 O1204 1.956 . S
Li1144 O1205 1.970 . S
Li1144 O1206 1.961 . S
Li1145 N1169 1.990 . S
Li1145 O1204 1.970 . S
Li1145 O1205 1.956 . S
Li1145 O1207 1.961 1_554 S
Li1146 N1191 1.990 . S
Li1146 O1204 1.961 1_556 S
Li1146 O1206 1.956 1_556 S
Li1146 O1207 1.970 . S
Li1147 N1197 1.990 . S
Li1147 O1205 1.961 . S
Li1147 O1206 1.970 . S
Li1147 O1207 1.956 1_554 S
C1148 C1150 1.348 . S
C1148 C1151 1.356 . S
C1148 O1204 1.325 . S
N1149 C1152 1.314 . S
N1149 C1153 1.279 . S
C1150 C1148 1.348 . S
C1150 C1152 1.353 . S
C1150 H1208 0.929 . S
C1151 C1148 1.356 . S
C1151 C1153 1.358 . S
C1151 H1209 0.930 . S
C1152 N1149 1.314 . S
C1152 C1150 1.353 . S
C1152 H1210 0.930 . S
C1153 N1149 1.279 . S
C1153 C1151 1.358 . S
C1153 H1211 0.930 . S
C1154 C1157 1.348 . S
C1154 C1158 1.356 . S
C1154 O1205 1.325 . S
C1155 N1156 1.279 . S
C1155 C1158 1.358 . S
C1155 H1212 0.930 . S
N1156 C1155 1.279 . S
N1156 C1159 1.314 . S
C1157 C1154 1.348 . S
C1157 C1159 1.353 . S
C1157 H1213 0.929 . S
C1158 C1154 1.356 . S
C1158 C1155 1.358 . S
C1158 H1214 0.930 . S
C1159 N1156 1.314 . S
C1159 C1157 1.353 . S
C1159 H1215 0.930 . S
C1160 N1161 1.314 . S
C1160 C1165 1.353 . S
C1160 H1166 0.930 . S
N1161 Li1144 1.990 . S
N1161 C1160 1.314 . S
N1161 C1163 1.279 . S
C1162 C1163 1.358 . S
C1162 C1164 1.356 . S
C1162 H1216 0.930 . S
C1163 N1161 1.279 . S
C1163 C1162 1.358 . S
C1163 H1167 0.930 . S
C1164 C1162 1.356 . S
C1164 C1165 1.348 . S
C1165 C1160 1.353 . S
C1165 C1164 1.348 . S
C1165 H1217 0.929 . S
H1166 C1160 0.930 . S
H1167 C1163 0.930 . S
C1168 N1169 1.314 1_556 S
C1168 C1170 1.353 . S
C1168 H1174 0.930 . S
N1169 Li1145 1.990 . S
N1169 C1168 1.314 1_554 S
N1169 C1172 1.279 . S
C1170 C1168 1.353 . S
C1170 C1173 1.348 1_556 S
C1170 H1218 0.929 . S
C1171 C1172 1.358 . S
C1171 C1173 1.356 . S
C1171 H1219 0.930 . S
C1172 N1169 1.279 . S
C1172 C1171 1.358 . S
C1172 H1175 0.930 . S
C1173 C1170 1.348 1_554 S
C1173 C1171 1.356 . S
H1174 C1168 0.930 . S
H1175 C1172 0.930 . S
C1176 C1178 1.348 . S
C1176 C1179 1.356 . S
C1176 O1206 1.325 . S
N1177 C1180 1.314 . S
N1177 C1181 1.279 . S
C1178 C1176 1.348 . S
C1178 C1180 1.353 . S
C1178 H1220 0.929 1_554 S
C1179 C1176 1.356 . S
C1179 C1181 1.358 . S
C1179 H1221 0.930 . S
C1180 N1177 1.314 . S
C1180 C1178 1.353 . S
C1180 H1222 0.930 1_554 S
C1181 N1177 1.279 . S
C1181 C1179 1.358 . S
C1181 H1223 0.930 . S
C1182 C1183 1.348 . S
C1182 C1184 1.356 . S
C1182 O1207 1.325 . S
C1183 C1182 1.348 . S
C1183 C1185 1.353 . S
C1183 H1224 0.929 . S
C1184 C1182 1.356 . S
C1184 C1186 1.358 . S
C1184 H1225 0.930 . S
C1185 C1183 1.353 . S
C1185 N1187 1.314 . S
C1185 H1226 0.930 . S
C1186 C1184 1.358 . S
C1186 N1187 1.279 . S
C1186 H1227 0.930 . S
N1187 C1185 1.314 . S
N1187 C1186 1.279 . S
C1188 C1190 1.353 . S
C1188 N1191 1.314 . S
C1188 H1194 0.930 . S
C1189 N1191 1.279 . S
C1189 C1192 1.358 . S
C1189 H1195 0.930 . S
C1190 C1188 1.353 . S
C1190 C1193 1.348 . S
C1190 H1228 0.929 . S
N1191 Li1146 1.990 . S
N1191 C1188 1.314 . S
N1191 C1189 1.279 . S
C1192 C1189 1.358 . S
C1192 C1193 1.356 . S
C1192 H1229 0.930 . S
C1193 C1190 1.348 . S
C1193 C1192 1.356 . S
H1194 C1188 0.930 . S
H1195 C1189 0.930 . S
C1196 N1197 1.314 . S
C1196 C1198 1.353 . S
C1196 H1202 0.930 . S
N1197 Li1147 1.990 . S
N1197 C1196 1.314 . S
N1197 C1200 1.279 1_554 S
C1198 C1196 1.353 . S
C1198 C1201 1.348 1_554 S
C1198 H1230 0.929 . S
C1199 C1200 1.358 . S
C1199 C1201 1.356 . S
C1199 H1231 0.930 . S
C1200 N1197 1.279 1_556 S
C1200 C1199 1.358 . S
C1200 H1203 0.930 . S
C1201 C1198 1.348 1_556 S
C1201 C1199 1.356 . S
H1202 C1196 0.930 . S
H1203 C1200 0.930 . S
O1204 Li1144 1.956 . S
O1204 Li1145 1.970 . S
O1204 Li1146 1.961 1_554 S
O1204 C1148 1.325 . S
O1205 Li1144 1.970 . S
O1205 Li1145 1.956 . S
O1205 Li1147 1.961 . S
O1205 C1154 1.325 . S
O1206 Li1144 1.961 . S
O1206 Li1146 1.956 1_554 S
O1206 Li1147 1.970 . S
O1206 C1176 1.325 . S
O1207 Li1145 1.961 1_556 S
O1207 Li1146 1.970 . S
O1207 Li1147 1.956 1_556 S
O1207 C1182 1.325 . S
H1208 C1150 0.929 . S
H1209 C1151 0.930 . S
H1210 C1152 0.930 . S
H1211 C1153 0.930 . S
H1212 C1155 0.930 . S
H1213 C1157 0.929 . S
H1214 C1158 0.930 . S
H1215 C1159 0.930 . S
H1216 C1162 0.930 . S
H1217 C1165 0.929 . S
H1218 C1170 0.929 . S
H1219 C1171 0.930 . S
H1220 C1178 0.929 1_556 S
H1221 C1179 0.930 . S
H1222 C1180 0.930 1_556 S
H1223 C1181 0.930 . S
H1224 C1183 0.929 . S
H1225 C1184 0.930 . S
H1226 C1185 0.930 . S
H1227 C1186 0.930 . S
H1228 C1190 0.929 . S
H1229 C1192 0.930 . S
H1230 C1198 0.929 . S
H1231 C1199 0.930 . S
Li1232 N1249 1.990 . S
Li1232 O1292 1.956 . S
Li1232 O1293 1.970 . S
Li1232 O1294 1.961 . S
Li1233 N1257 1.990 . S
Li1233 O1292 1.970 . S
Li1233 O1293 1.956 . S
Li1233 O1295 1.961 . S
Li1234 N1279 1.990 . S
Li1234 O1292 1.961 . S
Li1234 O1294 1.956 . S
Li1234 O1295 1.970 . S
Li1235 N1285 1.990 . S
Li1235 O1293 1.961 . S
Li1235 O1294 1.970 . S
Li1235 O1295 1.956 . S
C1236 C1238 1.348 . S
C1236 C1239 1.356 . S
C1236 O1292 1.325 . S
N1237 C1240 1.314 . S
N1237 C1241 1.279 . S
C1238 C1236 1.348 . S
C1238 C1240 1.353 . S
C1238 H1296 0.929 . S
C1239 C1236 1.356 . S
C1239 C1241 1.358 . S
C1239 H1297 0.930 . S
C1240 N1237 1.314 . S
C1240 C1238 1.353 . S
C1240 H1298 0.930 . S
C1241 N1237 1.279 . S
C1241 C1239 1.358 . S
C1241 H1299 0.930 . S
C1242 C1245 1.348 . S
C1242 C1246 1.356 . S
C1242 O1293 1.325 . S
C1243 N1244 1.279 . S
C1243 C1246 1.358 . S
C1243 H1300 0.930 . S
N1244 C1243 1.279 . S
N1244 C1247 1.314 . S
C1245 C1242 1.348 . S
C1245 C1247 1.353 . S
C1245 H1301 0.929 . S
C1246 C1242 1.356 . S
C1246 C1243 1.358 . S
C1246 H1302 0.930 . S
C1247 N1244 1.314 . S
C1247 C1245 1.353 . S
C1247 H1303 0.930 . S
C1248 N1249 1.314 . S
C1248 C1253 1.353 . S
C1248 H1254 0.930 . S
N1249 Li1232 1.990 . S
N1249 C1248 1.314 . S
N1249 C1251 1.279 . S
C1250 C1251 1.358 . S
C1250 C1252 1.356 . S
C1250 H1304 0.930 . S
C1251 N1249 1.279 . S
C1251 C1250 1.358 . S
C1251 H1255 0.930 . S
C1252 C1250 1.356 . S
C1252 C1253 1.348 . S
C1253 C1248 1.353 . S
C1253 C1252 1.348 . S
C1253 H1305 0.929 . S
H1254 C1248 0.930 . S
H1255 C1251 0.930 . S
C1256 N1257 1.314 . S
C1256 C1258 1.353 . S
C1256 H1262 0.930 . S
N1257 Li1233 1.990 . S
N1257 C1256 1.314 . S
N1257 C1260 1.279 . S
C1258 C1256 1.353 . S
C1258 C1261 1.348 . S
C1258 H1306 0.929 . S
C1259 C1260 1.358 . S
C1259 C1261 1.356 . S
C1259 H1307 0.930 . S
C1260 N1257 1.279 . S
C1260 C1259 1.358 . S
C1260 H1263 0.930 . S
C1261 C1258 1.348 . S
C1261 C1259 1.356 . S
H1262 C1256 0.930 . S
H1263 C1260 0.930 . S
C1264 C1266 1.348 . S
C1264 C1267 1.356 . S
C1264 O1294 1.325 . S
N1265 C1268 1.314 . S
N1265 C1269 1.279 . S
C1266 C1264 1.348 . S
C1266 C1268 1.353 . S
C1266 H1308 0.929 . S
C1267 C1264 1.356 . S
C1267 C1269 1.358 . S
C1267 H1309 0.930 . S
C1268 N1265 1.314 . S
C1268 C1266 1.353 . S
C1268 H1310 0.930 . S
C1269 N1265 1.279 . S
C1269 C1267 1.358 . S
C1269 H1311 0.930 . S
C1270 C1271 1.348 . S
C1270 C1272 1.356 . S
C1270 O1295 1.325 . S
C1271 C1270 1.348 . S
C1271 C1273 1.353 . S
C1271 H1312 0.929 . S
C1272 C1270 1.356 . S
C1272 C1274 1.358 . S
C1272 H1313 0.930 . S
C1273 C1271 1.353 . S
C1273 N1275 1.314 . S
C1273 H1314 0.930 . S
C1274 C1272 1.358 . S
C1274 N1275 1.279 . S
C1274 H1315 0.930 . S
N1275 C1273 1.314 . S
N1275 C1274 1.279 . S
C1276 C1278 1.353 . S
C1276 N1279 1.314 . S
C1276 H1282 0.930 . S
C1277 N1279 1.279 . S
C1277 C1280 1.358 . S
C1277 H1283 0.930 . S
C1278 C1276 1.353 . S
C1278 C1281 1.348 . S
C1278 H1316 0.929 . S
N1279 Li1234 1.990 . S
N1279 C1276 1.314 . S
N1279 C1277 1.279 . S
C1280 C1277 1.358 . S
C1280 C1281 1.356 . S
C1280 H1317 0.930 . S
C1281 C1278 1.348 . S
C1281 C1280 1.356 . S
H1282 C1276 0.930 . S
H1283 C1277 0.930 . S
C1284 N1285 1.314 . S
C1284 C1286 1.353 . S
C1284 H1290 0.930 . S
N1285 Li1235 1.990 . S
N1285 C1284 1.314 . S
N1285 C1288 1.279 . S
C1286 C1284 1.353 . S
C1286 C1289 1.348 . S
C1286 H1318 0.929 . S
C1287 C1288 1.358 . S
C1287 C1289 1.356 . S
C1287 H1319 0.930 . S
C1288 N1285 1.279 . S
C1288 C1287 1.358 . S
C1288 H1291 0.930 . S
C1289 C1286 1.348 . S
C1289 C1287 1.356 . S
H1290 C1284 0.930 . S
H1291 C1288 0.930 . S
O1292 Li1232 1.956 . S
O1292 Li1233 1.970 . S
O1292 Li1234 1.961 . S
O1292 C1236 1.325 . S
O1293 Li1232 1.970 . S
O1293 Li1233 1.956 . S
O1293 Li1235 1.961 . S
O1293 C1242 1.325 . S
O1294 Li1232 1.961 . S
O1294 Li1234 1.956 . S
O1294 Li1235 1.970 . S
O1294 C1264 1.325 . S
O1295 Li1233 1.961 . S
O1295 Li1234 1.970 . S
O1295 Li1235 1.956 . S
O1295 C1270 1.325 . S
H1296 C1238 0.929 . S
H1297 C1239 0.930 . S
H1298 C1240 0.930 . S
H1299 C1241 0.930 . S
H1300 C1243 0.930 . S
H1301 C1245 0.929 . S
H1302 C1246 0.930 . S
H1303 C1247 0.930 . S
H1304 C1250 0.930 . S
H1305 C1253 0.929 . S
H1306 C1258 0.929 . S
H1307 C1259 0.930 . S
H1308 C1266 0.929 . S
H1309 C1267 0.930 . S
H1310 C1268 0.930 . S
H1311 C1269 0.930 . S
H1312 C1271 0.929 . S
H1313 C1272 0.930 . S
H1314 C1273 0.930 . S
H1315 C1274 0.930 . S
H1316 C1278 0.929 . S
H1317 C1280 0.930 . S
H1318 C1286 0.929 . S
H1319 C1287 0.930 . S
Li1320 N1337 1.990 . S
Li1320 O1380 1.956 . S
Li1320 O1381 1.970 . S
Li1320 O1382 1.961 . S
Li1321 N1345 1.990 . S
Li1321 O1380 1.970 . S
Li1321 O1381 1.956 . S
Li1321 O1383 1.961 . S
Li1322 N1367 1.990 . S
Li1322 O1380 1.961 . S
Li1322 O1382 1.956 . S
Li1322 O1383 1.970 . S
Li1323 N1373 1.990 . S
Li1323 O1381 1.961 . S
Li1323 O1382 1.970 . S
Li1323 O1383 1.956 . S
C1324 C1326 1.348 . S
C1324 C1327 1.356 . S
C1324 O1380 1.325 . S
N1325 C1328 1.314 . S
N1325 C1329 1.279 . S
C1326 C1324 1.348 . S
C1326 C1328 1.353 . S
C1326 H1384 0.929 . S
C1327 C1324 1.356 . S
C1327 C1329 1.358 . S
C1327 H1385 0.930 . S
C1328 N1325 1.314 . S
C1328 C1326 1.353 . S
C1328 H1386 0.930 . S
C1329 N1325 1.279 . S
C1329 C1327 1.358 . S
C1329 H1387 0.930 . S
C1330 C1333 1.348 . S
C1330 C1334 1.356 . S
C1330 O1381 1.325 . S
C1331 N1332 1.279 . S
C1331 C1334 1.358 . S
C1331 H1388 0.930 . S
N1332 C1331 1.279 . S
N1332 C1335 1.314 . S
C1333 C1330 1.348 . S
C1333 C1335 1.353 . S
C1333 H1389 0.929 . S
C1334 C1330 1.356 . S
C1334 C1331 1.358 . S
C1334 H1390 0.930 . S
C1335 N1332 1.314 . S
C1335 C1333 1.353 . S
C1335 H1391 0.930 . S
C1336 N1337 1.314 . S
C1336 C1341 1.353 . S
C1336 H1342 0.930 . S
N1337 Li1320 1.990 . S
N1337 C1336 1.314 . S
N1337 C1339 1.279 . S
C1338 C1339 1.358 . S
C1338 C1340 1.356 . S
C1338 H1392 0.930 . S
C1339 N1337 1.279 . S
C1339 C1338 1.358 . S
C1339 H1343 0.930 . S
C1340 C1338 1.356 . S
C1340 C1341 1.348 . S
C1341 C1336 1.353 . S
C1341 C1340 1.348 . S
C1341 H1393 0.929 . S
H1342 C1336 0.930 . S
H1343 C1339 0.930 . S
C1344 N1345 1.314 . S
C1344 C1346 1.353 . S
C1344 H1350 0.930 . S
N1345 Li1321 1.990 . S
N1345 C1344 1.314 . S
N1345 C1348 1.279 . S
C1346 C1344 1.353 . S
C1346 C1349 1.348 . S
C1346 H1394 0.929 . S
C1347 C1348 1.358 . S
C1347 C1349 1.356 . S
C1347 H1395 0.930 . S
C1348 N1345 1.279 . S
C1348 C1347 1.358 . S
C1348 H1351 0.930 . S
C1349 C1346 1.348 . S
C1349 C1347 1.356 . S
H1350 C1344 0.930 . S
H1351 C1348 0.930 . S
C1352 C1354 1.348 . S
C1352 C1355 1.356 . S
C1352 O1382 1.325 . S
N1353 C1356 1.314 . S
N1353 C1357 1.279 . S
C1354 C1352 1.348 . S
C1354 C1356 1.353 . S
C1354 H1396 0.929 . S
C1355 C1352 1.356 . S
C1355 C1357 1.358 . S
C1355 H1397 0.930 . S
C1356 N1353 1.314 . S
C1356 C1354 1.353 . S
C1356 H1398 0.930 . S
C1357 N1353 1.279 . S
C1357 C1355 1.358 . S
C1357 H1399 0.930 . S
C1358 C1359 1.348 . S
C1358 C1360 1.356 . S
C1358 O1383 1.325 . S
C1359 C1358 1.348 . S
C1359 C1361 1.353 . S
C1359 H1400 0.929 . S
C1360 C1358 1.356 . S
C1360 C1362 1.358 . S
C1360 H1401 0.930 . S
C1361 C1359 1.353 . S
C1361 N1363 1.314 . S
C1361 H1402 0.930 . S
C1362 C1360 1.358 . S
C1362 N1363 1.279 . S
C1362 H1403 0.930 . S
N1363 C1361 1.314 . S
N1363 C1362 1.279 . S
C1364 C1366 1.353 . S
C1364 N1367 1.314 . S
C1364 H1370 0.930 . S
C1365 N1367 1.279 . S
C1365 C1368 1.358 . S
C1365 H1371 0.930 . S
C1366 C1364 1.353 . S
C1366 C1369 1.348 . S
C1366 H1404 0.929 . S
N1367 Li1322 1.990 . S
N1367 C1364 1.314 . S
N1367 C1365 1.279 . S
C1368 C1365 1.358 . S
C1368 C1369 1.356 . S
C1368 H1405 0.930 . S
C1369 C1366 1.348 . S
C1369 C1368 1.356 . S
H1370 C1364 0.930 . S
H1371 C1365 0.930 . S
C1372 N1373 1.314 . S
C1372 C1374 1.353 . S
C1372 H1378 0.930 . S
N1373 Li1323 1.990 . S
N1373 C1372 1.314 . S
N1373 C1376 1.279 . S
C1374 C1372 1.353 . S
C1374 C1377 1.348 . S
C1374 H1406 0.929 . S
C1375 C1376 1.358 . S
C1375 C1377 1.356 . S
C1375 H1407 0.930 . S
C1376 N1373 1.279 . S
C1376 C1375 1.358 . S
C1376 H1379 0.930 . S
C1377 C1374 1.348 . S
C1377 C1375 1.356 . S
H1378 C1372 0.930 . S
H1379 C1376 0.930 . S
O1380 Li1320 1.956 . S
O1380 Li1321 1.970 . S
O1380 Li1322 1.961 . S
O1380 C1324 1.325 . S
O1381 Li1320 1.970 . S
O1381 Li1321 1.956 . S
O1381 Li1323 1.961 . S
O1381 C1330 1.325 . S
O1382 Li1320 1.961 . S
O1382 Li1322 1.956 . S
O1382 Li1323 1.970 . S
O1382 C1352 1.325 . S
O1383 Li1321 1.961 . S
O1383 Li1322 1.970 . S
O1383 Li1323 1.956 . S
O1383 C1358 1.325 . S
H1384 C1326 0.929 . S
H1385 C1327 0.930 . S
H1386 C1328 0.930 . S
H1387 C1329 0.930 . S
H1388 C1331 0.930 . S
H1389 C1333 0.929 . S
H1390 C1334 0.930 . S
H1391 C1335 0.930 . S
H1392 C1338 0.930 . S
H1393 C1341 0.929 . S
H1394 C1346 0.929 . S
H1395 C1347 0.930 . S
H1396 C1354 0.929 . S
H1397 C1355 0.930 . S
H1398 C1356 0.930 . S
H1399 C1357 0.930 . S
H1400 C1359 0.929 . S
H1401 C1360 0.930 . S
H1402 C1361 0.930 . S
H1403 C1362 0.930 . S
H1404 C1366 0.929 . S
H1405 C1368 0.930 . S
H1406 C1374 0.929 . S
H1407 C1375 0.930 . S
Li1408 N1425 1.990 . S
Li1408 O1468 1.956 . S
Li1408 O1469 1.970 . S
Li1408 O1470 1.961 . S
Li1409 N1433 1.990 . S
Li1409 O1468 1.970 . S
Li1409 O1469 1.956 . S
Li1409 O1471 1.961 . S
Li1410 N1455 1.990 . S
Li1410 O1468 1.961 . S
Li1410 O1470 1.956 . S
Li1410 O1471 1.970 . S
Li1411 N1461 1.990 . S
Li1411 O1469 1.961 . S
Li1411 O1470 1.970 . S
Li1411 O1471 1.956 . S
C1412 C1414 1.348 . S
C1412 C1415 1.356 . S
C1412 O1468 1.325 . S
N1413 C1416 1.313 . S
N1413 C1417 1.234 1_565 S
C1414 C1412 1.348 . S
C1414 C1416 1.353 1_545 S
C1414 H1472 0.929 . S
C1415 C1412 1.356 . S
C1415 C1417 1.358 . S
C1415 H1473 0.930 . S
C1416 N1413 1.313 . S
C1416 C1414 1.353 1_565 S
C1416 H1474 0.930 . S
C1417 N1413 1.234 1_545 S
C1417 C1415 1.358 . S
C1417 H1475 0.930 . S
C1418 C1421 1.348 . S
C1418 C1422 1.356 . S
C1418 O1469 1.325 . S
C1419 N1420 1.279 . S
C1419 C1422 1.358 . S
C1419 H1476 0.930 . S
N1420 C1419 1.279 . S
N1420 C1423 1.314 . S
C1421 C1418 1.348 . S
C1421 C1423 1.353 . S
C1421 H1477 0.929 . S
C1422 C1418 1.356 . S
C1422 C1419 1.358 . S
C1422 H1478 0.930 . S
C1423 N1420 1.314 . S
C1423 C1421 1.353 . S
C1423 H1479 0.930 . S
C1424 N1425 1.314 . S
C1424 C1429 1.353 . S
C1424 H1430 0.930 . S
N1425 Li1408 1.990 . S
N1425 C1424 1.314 . S
N1425 C1427 1.279 . S
C1426 C1427 1.358 . S
C1426 C1428 1.356 . S
C1426 H1480 0.930 . S
C1427 N1425 1.279 . S
C1427 C1426 1.358 . S
C1427 H1431 0.930 . S
C1428 C1426 1.356 . S
C1428 C1429 1.348 . S
C1429 C1424 1.353 . S
C1429 C1428 1.348 . S
C1429 H1481 0.929 . S
H1430 C1424 0.930 . S
H1431 C1427 0.930 . S
C1432 N1433 1.339 . S
C1432 C1434 1.315 1_545 S
C1432 H1438 0.947 . S
N1433 Li1409 1.990 . S
N1433 C1432 1.339 . S
N1433 C1436 1.279 . S
C1434 C1432 1.315 1_565 S
C1434 C1437 1.348 . S
C1434 H1482 0.929 . S
C1435 C1436 1.358 1_565 S
C1435 C1437 1.356 . S
C1435 H1483 0.930 . S
C1436 N1433 1.279 . S
C1436 C1435 1.358 1_545 S
C1436 H1439 0.930 . S
C1437 C1434 1.348 . S
C1437 C1435 1.356 . S
H1438 C1432 0.947 . S
H1439 C1436 0.930 . S
C1440 C1442 1.348 . S
C1440 C1443 1.356 . S
C1440 O1470 1.325 . S
N1441 C1444 1.314 . S
N1441 C1445 1.279 . S
C1442 C1440 1.348 . S
C1442 C1444 1.353 . S
C1442 H1484 0.929 . S
C1443 C1440 1.356 . S
C1443 C1445 1.358 . S
C1443 H1485 0.930 . S
C1444 N1441 1.314 . S
C1444 C1442 1.353 . S
C1444 H1486 0.930 . S
C1445 N1441 1.279 . S
C1445 C1443 1.358 . S
C1445 H1487 0.867 1_655 S
C1446 C1447 1.348 . S
C1446 C1448 1.356 . S
C1446 O1471 1.325 . S
C1447 C1446 1.348 . S
C1447 C1449 1.353 . S
C1447 H1488 0.929 . S
C1448 C1446 1.356 . S
C1448 C1450 1.358 . S
C1448 H1489 0.930 . S
C1449 C1447 1.353 . S
C1449 N1451 1.314 . S
C1449 H1490 0.930 . S
C1450 C1448 1.358 . S
C1450 N1451 1.279 . S
C1450 H1491 0.930 . S
N1451 C1449 1.314 . S
N1451 C1450 1.279 . S
C1452 C1454 1.353 . S
C1452 N1455 1.314 . S
C1452 H1458 0.930 . S
C1453 N1455 1.279 . S
C1453 C1456 1.358 . S
C1453 H1459 0.930 . S
C1454 C1452 1.353 . S
C1454 C1457 1.348 . S
C1454 H1492 0.929 . S
N1455 Li1410 1.990 . S
N1455 C1452 1.314 . S
N1455 C1453 1.279 . S
C1456 C1453 1.358 . S
C1456 C1457 1.356 . S
C1456 H1493 0.930 . S
C1457 C1454 1.348 . S
C1457 C1456 1.356 . S
H1458 C1452 0.930 . S
H1459 C1453 0.930 . S
C1460 N1461 1.314 . S
C1460 C1462 1.353 . S
C1460 H1466 0.930 . S
N1461 Li1411 1.990 . S
N1461 C1460 1.314 . S
N1461 C1464 1.279 . S
C1462 C1460 1.353 . S
C1462 C1465 1.348 . S
C1462 H1494 0.929 . S
C1463 C1464 1.358 . S
C1463 C1465 1.356 . S
C1463 H1495 0.930 . S
C1464 N1461 1.279 . S
C1464 C1463 1.358 . S
C1464 H1467 0.930 . S
C1465 C1462 1.348 . S
C1465 C1463 1.356 . S
H1466 C1460 0.930 . S
H1467 C1464 0.930 . S
O1468 Li1408 1.956 . S
O1468 Li1409 1.970 . S
O1468 Li1410 1.961 . S
O1468 C1412 1.325 . S
O1469 Li1408 1.970 . S
O1469 Li1409 1.956 . S
O1469 Li1411 1.961 . S
O1469 C1418 1.325 . S
O1470 Li1408 1.961 . S
O1470 Li1410 1.956 . S
O1470 Li1411 1.970 . S
O1470 C1440 1.325 . S
O1471 Li1409 1.961 . S
O1471 Li1410 1.970 . S
O1471 Li1411 1.956 . S
O1471 C1446 1.325 . S
H1472 C1414 0.929 . S
H1473 C1415 0.930 . S
H1474 C1416 0.930 . S
H1475 C1417 0.930 . S
H1476 C1419 0.930 . S
H1477 C1421 0.929 . S
H1478 C1422 0.930 . S
H1479 C1423 0.930 . S
H1480 C1426 0.930 . S
H1481 C1429 0.929 . S
H1482 C1434 0.929 . S
H1483 C1435 0.930 . S
H1484 C1442 0.929 . S
H1485 C1443 0.930 . S
H1486 C1444 0.930 . S
H1487 C1445 0.867 1_455 S
H1488 C1447 0.929 . S
H1489 C1448 0.930 . S
H1490 C1449 0.930 . S
H1491 C1450 0.930 . S
H1492 C1454 0.929 . S
H1493 C1456 0.930 . S
H1494 C1462 0.929 . S
H1495 C1463 0.930 . S
Li1496 N1513 1.990 . S
Li1496 O1556 1.956 . S
Li1496 O1557 1.970 . S
Li1496 O1558 1.961 . S
Li1497 N1521 1.990 . S
Li1497 O1556 1.970 . S
Li1497 O1557 1.956 . S
Li1497 O1559 1.961 . S
Li1498 N1543 1.990 . S
Li1498 O1556 1.961 . S
Li1498 O1558 1.956 . S
Li1498 O1559 1.970 . S
Li1499 N1549 1.990 . S
Li1499 O1557 1.961 . S
Li1499 O1558 1.970 . S
Li1499 O1559 1.956 . S
C1500 C1502 1.348 . S
C1500 C1503 1.356 . S
C1500 O1556 1.325 . S
N1501 C1504 1.314 . S
N1501 C1505 1.279 . S
C1502 C1500 1.348 . S
C1502 C1504 1.353 . S
C1502 H1560 0.929 . S
C1503 C1500 1.356 . S
C1503 C1505 1.358 . S
C1503 H1561 0.930 . S
C1504 N1501 1.314 . S
C1504 C1502 1.353 . S
C1504 H1562 0.930 . S
C1505 N1501 1.279 . S
C1505 C1503 1.358 . S
C1505 H1563 0.930 . S
C1506 C1509 1.348 . S
C1506 C1510 1.356 . S
C1506 O1557 1.325 . S
C1507 N1508 1.279 . S
C1507 C1510 1.358 . S
C1507 H1564 0.930 . S
N1508 C1507 1.279 . S
N1508 C1511 1.314 . S
C1509 C1506 1.348 . S
C1509 C1511 1.353 . S
C1509 H1565 0.929 . S
C1510 C1506 1.356 . S
C1510 C1507 1.358 . S
C1510 H1566 0.930 . S
C1511 N1508 1.314 . S
C1511 C1509 1.353 . S
C1511 H1567 0.930 . S
C1512 N1513 1.314 . S
C1512 C1517 1.353 . S
C1512 H1518 0.930 . S
N1513 Li1496 1.990 . S
N1513 C1512 1.314 . S
N1513 C1515 1.279 . S
C1514 C1515 1.358 . S
C1514 C1516 1.356 . S
C1514 H1568 0.930 . S
C1515 N1513 1.279 . S
C1515 C1514 1.358 . S
C1515 H1519 0.930 . S
C1516 C1514 1.356 . S
C1516 C1517 1.348 . S
C1517 C1512 1.353 . S
C1517 C1516 1.348 . S
C1517 H1569 0.929 . S
H1518 C1512 0.930 . S
H1519 C1515 0.930 . S
C1520 N1521 1.314 . S
C1520 C1522 1.353 . S
C1520 H1526 0.930 . S
N1521 Li1497 1.990 . S
N1521 C1520 1.314 . S
N1521 C1524 1.279 . S
C1522 C1520 1.353 . S
C1522 C1525 1.348 . S
C1522 H1570 0.929 . S
C1523 C1524 1.358 . S
C1523 C1525 1.356 . S
C1523 H1571 0.930 . S
C1524 N1521 1.279 . S
C1524 C1523 1.358 . S
C1524 H1527 0.930 . S
C1525 C1522 1.348 . S
C1525 C1523 1.356 . S
H1526 C1520 0.930 . S
H1527 C1524 0.930 . S
C1528 C1530 1.348 . S
C1528 C1531 1.356 . S
C1528 O1558 1.325 . S
N1529 C1532 1.314 . S
N1529 C1533 1.279 . S
C1530 C1528 1.348 . S
C1530 C1532 1.353 . S
C1530 H1572 0.929 . S
C1531 C1528 1.356 . S
C1531 C1533 1.358 . S
C1531 H1573 0.930 . S
C1532 N1529 1.314 . S
C1532 C1530 1.353 . S
C1532 H1574 0.930 . S
C1533 N1529 1.279 . S
C1533 C1531 1.358 . S
C1533 H1575 0.930 . S
C1534 C1535 1.348 . S
C1534 C1536 1.356 . S
C1534 O1559 1.325 . S
C1535 C1534 1.348 . S
C1535 C1537 1.353 . S
C1535 H1576 0.929 . S
C1536 C1534 1.356 . S
C1536 C1538 1.358 . S
C1536 H1577 0.930 . S
C1537 C1535 1.353 . S
C1537 N1539 1.314 . S
C1537 H1578 0.930 . S
C1538 C1536 1.358 . S
C1538 N1539 1.279 . S
C1538 H1579 0.930 . S
N1539 C1537 1.314 . S
N1539 C1538 1.279 . S
C1540 C1542 1.353 . S
C1540 N1543 1.314 . S
C1540 H1546 0.930 . S
C1541 N1543 1.279 . S
C1541 C1544 1.358 . S
C1541 H1547 0.930 . S
C1542 C1540 1.353 . S
C1542 C1545 1.348 . S
C1542 H1580 0.929 . S
N1543 Li1498 1.990 . S
N1543 C1540 1.314 . S
N1543 C1541 1.279 . S
C1544 C1541 1.358 . S
C1544 C1545 1.356 . S
C1544 H1581 0.930 . S
C1545 C1542 1.348 . S
C1545 C1544 1.356 . S
H1546 C1540 0.930 . S
H1547 C1541 0.930 . S
C1548 N1549 1.314 . S
C1548 C1550 1.353 . S
C1548 H1554 0.930 . S
N1549 Li1499 1.990 . S
N1549 C1548 1.314 . S
N1549 C1552 1.279 . S
C1550 C1548 1.353 . S
C1550 C1553 1.348 . S
C1550 H1582 0.929 . S
C1551 C1552 1.358 . S
C1551 C1553 1.356 . S
C1551 H1583 0.930 . S
C1552 N1549 1.279 . S
C1552 C1551 1.358 . S
C1552 H1555 0.930 . S
C1553 C1550 1.348 . S
C1553 C1551 1.356 . S
H1554 C1548 0.930 . S
H1555 C1552 0.930 . S
O1556 Li1496 1.956 . S
O1556 Li1497 1.970 . S
O1556 Li1498 1.961 . S
O1556 C1500 1.325 . S
O1557 Li1496 1.970 . S
O1557 Li1497 1.956 . S
O1557 Li1499 1.961 . S
O1557 C1506 1.325 . S
O1558 Li1496 1.961 . S
O1558 Li1498 1.956 . S
O1558 Li1499 1.970 . S
O1558 C1528 1.325 . S
O1559 Li1497 1.961 . S
O1559 Li1498 1.970 . S
O1559 Li1499 1.956 . S
O1559 C1534 1.325 . S
H1560 C1502 0.929 . S
H1561 C1503 0.930 . S
H1562 C1504 0.930 . S
H1563 C1505 0.930 . S
H1564 C1507 0.930 . S
H1565 C1509 0.929 . S
H1566 C1510 0.930 . S
H1567 C1511 0.930 . S
H1568 C1514 0.930 . S
H1569 C1517 0.929 . S
H1570 C1522 0.929 . S
H1571 C1523 0.930 . S
H1572 C1530 0.929 . S
H1573 C1531 0.930 . S
H1574 C1532 0.930 . S
H1575 C1533 0.930 . S
H1576 C1535 0.929 . S
H1577 C1536 0.930 . S
H1578 C1537 0.930 . S
H1579 C1538 0.930 . S
H1580 C1542 0.929 . S
H1581 C1544 0.930 . S
H1582 C1550 0.929 . S
H1583 C1551 0.930 . S
Li1584 N1601 1.990 . S
Li1584 O1644 1.956 . S
Li1584 O1645 1.970 . S
Li1584 O1646 1.961 . S
Li1585 N1609 1.990 . S
Li1585 O1644 1.970 . S
Li1585 O1645 1.956 . S
Li1585 O1647 1.961 . S
Li1586 N1631 1.990 . S
Li1586 O1644 1.961 . S
Li1586 O1646 1.956 . S
Li1586 O1647 1.970 . S
Li1587 N1637 1.990 . S
Li1587 O1645 1.961 . S
Li1587 O1646 1.970 . S
Li1587 O1647 1.956 . S
C1588 C1590 1.348 . S
C1588 C1591 1.356 . S
C1588 O1644 1.325 . S
N1589 C1592 1.314 . S
N1589 C1593 1.279 . S
C1590 C1588 1.348 . S
C1590 C1592 1.353 . S
C1590 H1648 0.929 . S
C1591 C1588 1.356 . S
C1591 C1593 1.358 . S
C1591 H1649 0.930 . S
C1592 N1589 1.314 . S
C1592 C1590 1.353 . S
C1592 H1650 0.930 . S
C1593 N1589 1.279 . S
C1593 C1591 1.358 . S
C1593 H1651 0.930 . S
C1594 C1597 1.348 . S
C1594 C1598 1.356 . S
C1594 O1645 1.325 . S
C1595 N1596 1.279 . S
C1595 C1598 1.358 . S
C1595 H1652 0.930 . S
N1596 C1595 1.279 . S
N1596 C1599 1.314 . S
C1597 C1594 1.348 . S
C1597 C1599 1.353 . S
C1597 H1653 0.929 . S
C1598 C1594 1.356 . S
C1598 C1595 1.358 . S
C1598 H1654 0.930 . S
C1599 N1596 1.314 . S
C1599 C1597 1.353 . S
C1599 H1655 0.930 . S
C1600 N1601 1.314 . S
C1600 C1605 1.353 . S
C1600 H1606 0.930 . S
N1601 Li1584 1.990 . S
N1601 C1600 1.314 . S
N1601 C1603 1.279 . S
C1602 C1603 1.358 . S
C1602 C1604 1.356 . S
C1602 H1656 0.930 . S
C1603 N1601 1.279 . S
C1603 C1602 1.358 . S
C1603 H1607 0.930 . S
C1604 C1602 1.356 . S
C1604 C1605 1.348 . S
C1605 C1600 1.353 . S
C1605 C1604 1.348 . S
C1605 H1657 0.929 . S
H1606 C1600 0.930 . S
H1607 C1603 0.930 . S
C1608 N1609 1.314 . S
C1608 C1610 1.353 . S
C1608 H1614 0.930 . S
N1609 Li1585 1.990 . S
N1609 C1608 1.314 . S
N1609 C1612 1.279 . S
C1610 C1608 1.353 . S
C1610 C1613 1.348 . S
C1610 H1658 0.929 . S
C1611 C1612 1.358 . S
C1611 C1613 1.356 . S
C1611 H1659 0.930 . S
C1612 N1609 1.279 . S
C1612 C1611 1.358 . S
C1612 H1615 0.930 . S
C1613 C1610 1.348 . S
C1613 C1611 1.356 . S
H1614 C1608 0.930 . S
H1615 C1612 0.930 . S
C1616 C1618 1.348 . S
C1616 C1619 1.356 . S
C1616 O1646 1.325 . S
N1617 C1620 1.314 . S
N1617 C1621 1.279 . S
C1618 C1616 1.348 . S
C1618 C1620 1.353 . S
C1618 H1660 0.929 . S
C1619 C1616 1.356 . S
C1619 C1621 1.358 . S
C1619 H1661 0.930 . S
C1620 N1617 1.314 . S
C1620 C1618 1.353 . S
C1620 H1662 0.930 . S
C1621 N1617 1.279 . S
C1621 C1619 1.358 . S
C1621 H1663 0.930 . S
C1622 C1623 1.348 . S
C1622 C1624 1.356 . S
C1622 O1647 1.325 . S
C1623 C1622 1.348 . S
C1623 C1625 1.353 . S
C1623 H1664 0.929 . S
C1624 C1622 1.356 . S
C1624 C1626 1.358 . S
C1624 H1665 0.930 . S
C1625 C1623 1.353 . S
C1625 N1627 1.314 . S
C1625 H1666 0.930 . S
C1626 C1624 1.358 . S
C1626 N1627 1.279 . S
C1626 H1667 0.930 . S
N1627 C1625 1.314 . S
N1627 C1626 1.279 . S
C1628 C1630 1.353 . S
C1628 N1631 1.314 . S
C1628 H1634 0.930 . S
C1629 N1631 1.279 . S
C1629 C1632 1.358 . S
C1629 H1635 0.930 . S
C1630 C1628 1.353 . S
C1630 C1633 1.348 . S
C1630 H1668 0.929 . S
N1631 Li1586 1.990 . S
N1631 C1628 1.314 . S
N1631 C1629 1.279 . S
C1632 C1629 1.358 . S
C1632 C1633 1.356 . S
C1632 H1669 0.930 . S
C1633 C1630 1.348 . S
C1633 C1632 1.356 . S
H1634 C1628 0.930 . S
H1635 C1629 0.930 . S
C1636 N1637 1.314 . S
C1636 C1638 1.353 . S
C1636 H1642 0.930 . S
N1637 Li1587 1.990 . S
N1637 C1636 1.314 . S
N1637 C1640 1.279 . S
C1638 C1636 1.353 . S
C1638 C1641 1.348 . S
C1638 H1670 0.929 . S
C1639 C1640 1.358 . S
C1639 C1641 1.356 . S
C1639 H1671 0.930 . S
C1640 N1637 1.279 . S
C1640 C1639 1.358 . S
C1640 H1643 0.930 . S
C1641 C1638 1.348 . S
C1641 C1639 1.356 . S
H1642 C1636 0.930 . S
H1643 C1640 0.930 . S
O1644 Li1584 1.956 . S
O1644 Li1585 1.970 . S
O1644 Li1586 1.961 . S
O1644 C1588 1.325 . S
O1645 Li1584 1.970 . S
O1645 Li1585 1.956 . S
O1645 Li1587 1.961 . S
O1645 C1594 1.325 . S
O1646 Li1584 1.961 . S
O1646 Li1586 1.956 . S
O1646 Li1587 1.970 . S
O1646 C1616 1.325 . S
O1647 Li1585 1.961 . S
O1647 Li1586 1.970 . S
O1647 Li1587 1.956 . S
O1647 C1622 1.325 . S
H1648 C1590 0.929 . S
H1649 C1591 0.930 . S
H1650 C1592 0.930 . S
H1651 C1593 0.930 . S
H1652 C1595 0.930 . S
H1653 C1597 0.929 . S
H1654 C1598 0.930 . S
H1655 C1599 0.930 . S
H1656 C1602 0.930 . S
H1657 C1605 0.929 . S
H1658 C1610 0.929 . S
H1659 C1611 0.930 . S
H1660 C1618 0.929 . S
H1661 C1619 0.930 . S
H1662 C1620 0.930 . S
H1663 C1621 0.930 . S
H1664 C1623 0.929 . S
H1665 C1624 0.930 . S
H1666 C1625 0.930 . S
H1667 C1626 0.930 . S
H1668 C1630 0.929 . S
H1669 C1632 0.930 . S
H1670 C1638 0.929 . S
H1671 C1639 0.930 . S
Li1672 N1689 1.990 . S
Li1672 O1732 1.956 . S
Li1672 O1733 1.970 . S
Li1672 O1734 1.961 . S
Li1673 N1697 1.990 . S
Li1673 O1732 1.970 . S
Li1673 O1733 1.956 . S
Li1673 O1735 1.961 . S
Li1674 N1719 1.990 . S
Li1674 O1732 1.961 . S
Li1674 O1734 1.956 . S
Li1674 O1735 1.970 . S
Li1675 N1725 1.990 . S
Li1675 O1733 1.961 . S
Li1675 O1734 1.970 . S
Li1675 O1735 1.956 . S
C1676 C1678 1.348 . S
C1676 C1679 1.356 . S
C1676 O1732 1.325 . S
N1677 C1680 1.314 . S
N1677 C1681 1.279 . S
C1678 C1676 1.348 . S
C1678 C1680 1.353 . S
C1678 H1736 0.929 . S
C1679 C1676 1.356 . S
C1679 C1681 1.358 . S
C1679 H1737 0.930 . S
C1680 N1677 1.314 . S
C1680 C1678 1.353 . S
C1680 H1738 0.930 . S
C1681 N1677 1.279 . S
C1681 C1679 1.358 . S
C1681 H1739 0.930 . S
C1682 C1685 1.348 . S
C1682 C1686 1.356 . S
C1682 O1733 1.325 . S
C1683 N1684 1.279 . S
C1683 C1686 1.358 . S
C1683 H1740 0.930 . S
N1684 C1683 1.279 . S
N1684 C1687 1.314 . S
C1685 C1682 1.348 . S
C1685 C1687 1.353 . S
C1685 H1741 0.929 . S
C1686 C1682 1.356 . S
C1686 C1683 1.358 . S
C1686 H1742 0.930 . S
C1687 N1684 1.314 . S
C1687 C1685 1.353 . S
C1687 H1743 0.930 . S
C1688 N1689 1.314 . S
C1688 C1693 1.353 . S
C1688 H1694 0.930 . S
N1689 Li1672 1.990 . S
N1689 C1688 1.314 . S
N1689 C1691 1.279 . S
C1690 C1691 1.358 . S
C1690 C1692 1.356 . S
C1690 H1744 0.930 . S
C1691 N1689 1.279 . S
C1691 C1690 1.358 . S
C1691 H1695 0.930 . S
C1692 C1690 1.356 . S
C1692 C1693 1.348 . S
C1693 C1688 1.353 . S
C1693 C1692 1.348 . S
C1693 H1745 0.929 . S
H1694 C1688 0.930 . S
H1695 C1691 0.930 . S
C1696 N1697 1.314 . S
C1696 C1698 1.353 . S
C1696 H1702 0.930 . S
N1697 Li1673 1.990 . S
N1697 C1696 1.314 . S
N1697 C1700 1.279 . S
C1698 C1696 1.353 . S
C1698 C1701 1.348 . S
C1698 H1746 0.929 . S
C1699 C1700 1.358 . S
C1699 C1701 1.356 . S
C1699 H1747 0.930 . S
C1700 N1697 1.279 . S
C1700 C1699 1.358 . S
C1700 H1703 0.930 . S
C1701 C1698 1.348 . S
C1701 C1699 1.356 . S
H1702 C1696 0.930 . S
H1703 C1700 0.930 . S
C1704 C1706 1.348 1_545 S
C1704 C1707 1.356 . S
C1704 O1734 1.325 . S
N1705 C1708 1.314 . S
N1705 C1709 1.279 . S
C1706 C1704 1.348 1_565 S
C1706 C1708 1.353 . S
C1706 H1748 0.929 . S
C1707 C1704 1.356 . S
C1707 C1709 1.358 1_545 S
C1707 H1749 0.930 . S
C1708 N1705 1.314 . S
C1708 C1706 1.353 . S
C1708 H1750 0.930 . S
C1709 N1705 1.279 . S
C1709 C1707 1.358 1_565 S
C1709 H1751 0.930 . S
C1710 C1711 1.348 . S
C1710 C1712 1.356 . S
C1710 O1735 1.325 . S
C1711 C1710 1.348 . S
C1711 C1713 1.353 . S
C1711 H1752 0.929 . S
C1712 C1710 1.356 . S
C1712 C1714 1.358 . S
C1712 H1753 0.930 . S
C1713 C1711 1.353 . S
C1713 N1715 1.314 . S
C1713 H1754 0.930 . S
C1714 C1712 1.358 . S
C1714 N1715 1.279 . S
C1714 H1755 0.930 . S
N1715 C1713 1.314 . S
N1715 C1714 1.279 . S
C1716 C1718 1.353 . S
C1716 N1719 1.314 . S
C1716 H1722 0.930 . S
C1717 N1719 1.279 . S
C1717 C1720 1.358 . S
C1717 H1723 0.930 . S
C1718 C1716 1.353 . S
C1718 C1721 1.348 . S
C1718 H1756 0.929 . S
N1719 Li1674 1.990 . S
N1719 C1716 1.314 . S
N1719 C1717 1.279 . S
C1720 C1717 1.358 . S
C1720 C1721 1.356 . S
C1720 H1757 0.930 . S
C1721 C1718 1.348 . S
C1721 C1720 1.356 . S
H1722 C1716 0.930 . S
H1723 C1717 0.930 . S
C1724 N1725 1.314 . S
C1724 C1726 1.353 1_545 S
C1724 H1730 0.930 . S
N1725 Li1675 1.990 . S
N1725 C1724 1.314 . S
N1725 C1728 1.279 . S
C1726 C1724 1.353 1_565 S
C1726 C1729 1.348 . S
C1726 H1758 0.929 . S
C1727 C1728 1.358 1_565 S
C1727 C1729 1.356 . S
C1727 H1759 0.930 . S
C1728 N1725 1.279 . S
C1728 C1727 1.358 1_545 S
C1728 H1731 0.930 . S
C1729 C1726 1.348 . S
C1729 C1727 1.356 . S
H1730 C1724 0.930 . S
H1731 C1728 0.930 . S
O1732 Li1672 1.956 . S
O1732 Li1673 1.970 . S
O1732 Li1674 1.961 . S
O1732 C1676 1.325 . S
O1733 Li1672 1.970 . S
O1733 Li1673 1.956 . S
O1733 Li1675 1.961 . S
O1733 C1682 1.325 . S
O1734 Li1672 1.961 . S
O1734 Li1674 1.956 . S
O1734 Li1675 1.970 . S
O1734 C1704 1.325 . S
O1735 Li1673 1.961 . S
O1735 Li1674 1.970 . S
O1735 Li1675 1.956 . S
O1735 C1710 1.325 . S
H1736 C1678 0.929 . S
H1737 C1679 0.930 . S
H1738 C1680 0.930 . S
H1739 C1681 0.930 . S
H1740 C1683 0.930 . S
H1741 C1685 0.929 . S
H1742 C1686 0.930 . S
H1743 C1687 0.930 . S
H1744 C1690 0.930 . S
H1745 C1693 0.929 . S
H1746 C1698 0.929 . S
H1747 C1699 0.930 . S
H1748 C1706 0.929 . S
H1749 C1707 0.930 . S
H1750 C1708 0.930 . S
H1751 C1709 0.930 . S
H1752 C1711 0.929 . S
H1753 C1712 0.930 . S
H1754 C1713 0.930 . S
H1755 C1714 0.930 . S
H1756 C1718 0.929 . S
H1757 C1720 0.930 . S
H1758 C1726 0.929 . S
H1759 C1727 0.930 . S
Li1760 N1777 1.990 . S
Li1760 O1820 1.956 . S
Li1760 O1821 1.970 . S
Li1760 O1822 1.961 . S
Li1761 N1785 1.990 . S
Li1761 O1820 1.970 . S
Li1761 O1821 1.956 . S
Li1761 O1823 1.961 1_554 S
Li1762 N1807 1.990 . S
Li1762 O1820 1.961 1_556 S
Li1762 O1822 1.956 1_556 S
Li1762 O1823 1.970 . S
Li1763 N1813 1.990 1_554 S
Li1763 O1821 1.961 . S
Li1763 O1822 1.970 . S
Li1763 O1823 1.956 1_554 S
C1764 C1766 1.348 . S
C1764 C1767 1.356 . S
C1764 O1820 1.325 . S
N1765 C1768 1.314 . S
N1765 C1769 1.279 . S
C1766 C1764 1.348 . S
C1766 C1768 1.353 . S
C1766 H1824 0.929 . S
C1767 C1764 1.356 . S
C1767 C1769 1.358 . S
C1767 H1825 0.930 . S
C1768 N1765 1.314 . S
C1768 C1766 1.353 . S
C1768 H1826 0.930 . S
C1769 N1765 1.279 . S
C1769 C1767 1.358 . S
C1769 H1827 0.930 . S
C1770 C1773 1.348 . S
C1770 C1774 1.356 . S
C1770 O1821 1.325 . S
C1771 N1772 1.279 . S
C1771 C1774 1.358 . S
C1771 H1828 0.930 . S
N1772 C1771 1.279 . S
N1772 C1775 1.314 . S
C1773 C1770 1.348 . S
C1773 C1775 1.353 . S
C1773 H1829 0.929 . S
C1774 C1770 1.356 . S
C1774 C1771 1.358 . S
C1774 H1830 0.930 . S
C1775 N1772 1.314 . S
C1775 C1773 1.353 . S
C1775 H1831 0.930 . S
C1776 N1777 1.314 . S
C1776 C1781 1.353 . S
C1776 H1782 0.930 . S
N1777 Li1760 1.990 . S
N1777 C1776 1.314 . S
N1777 C1779 1.279 . S
C1778 C1779 1.358 . S
C1778 C1780 1.356 . S
C1778 H1832 0.930 . S
C1779 N1777 1.279 . S
C1779 C1778 1.358 . S
C1779 H1783 0.930 . S
C1780 C1778 1.356 . S
C1780 C1781 1.348 . S
C1781 C1776 1.353 . S
C1781 C1780 1.348 . S
C1781 H1833 0.929 . S
H1782 C1776 0.930 . S
H1783 C1779 0.930 . S
C1784 N1785 1.314 1_556 S
C1784 C1786 1.353 . S
C1784 H1790 0.930 . S
N1785 Li1761 1.990 . S
N1785 C1784 1.314 1_554 S
N1785 C1788 1.279 . S
C1786 C1784 1.353 . S
C1786 C1789 1.348 1_556 S
C1786 H1834 0.929 . S
C1787 C1788 1.358 . S
C1787 C1789 1.356 . S
C1787 H1835 0.930 . S
C1788 N1785 1.279 . S
C1788 C1787 1.358 . S
C1788 H1791 0.930 . S
C1789 C1786 1.348 1_554 S
C1789 C1787 1.356 . S
H1790 C1784 0.930 . S
H1791 C1788 0.930 . S
C1792 C1794 1.348 1_554 S
C1792 C1795 1.356 . S
C1792 O1822 1.325 . S
N1793 C1796 1.311 1_554 S
N1793 C1797 1.279 . S
C1794 C1792 1.348 1_556 S
C1794 C1796 1.353 . S
C1794 H1836 0.929 . S
C1795 C1792 1.356 . S
C1795 C1797 1.358 . S
C1795 H1837 0.930 . S
C1796 N1793 1.311 1_556 S
C1796 C1794 1.353 . S
C1796 H1838 0.934 . S
C1797 N1793 1.279 . S
C1797 C1795 1.358 . S
C1797 H1839 0.930 . S
C1798 C1799 1.348 . S
C1798 C1800 1.356 . S
C1798 O1823 1.325 . S
C1799 C1798 1.348 . S
C1799 C1801 1.353 . S
C1799 H1840 0.929 . S
C1800 C1798 1.356 . S
C1800 C1802 1.358 . S
C1800 H1841 0.930 . S
C1801 C1799 1.353 . S
C1801 N1803 1.314 . S
C1801 H1842 0.930 . S
C1802 C1800 1.358 . S
C1802 N1803 1.279 . S
C1802 H1843 0.930 . S
N1803 C1801 1.314 . S
N1803 C1802 1.279 . S
C1804 C1806 1.353 . S
C1804 N1807 1.314 . S
C1804 H1810 0.930 . S
C1805 N1807 1.279 . S
C1805 C1808 1.358 . S
C1805 H1811 0.930 . S
C1806 C1804 1.353 . S
C1806 C1809 1.348 . S
C1806 H1844 0.929 . S
N1807 Li1762 1.990 . S
N1807 C1804 1.314 . S
N1807 C1805 1.279 . S
C1808 C1805 1.358 . S
C1808 C1809 1.356 . S
C1808 H1845 0.930 . S
C1809 C1806 1.348 . S
C1809 C1808 1.356 . S
H1810 C1804 0.930 . S
H1811 C1805 0.930 . S
C1812 N1813 1.314 1_554 S
C1812 C1814 1.353 . S
C1812 H1818 0.930 . S
N1813 Li1763 1.990 1_556 S
N1813 C1812 1.314 1_556 S
N1813 C1816 1.279 . S
C1814 C1812 1.353 . S
C1814 C1817 1.348 1_554 S
C1814 H1846 0.929 . S
C1815 C1816 1.358 . S
C1815 C1817 1.356 . S
C1815 H1847 0.930 . S
C1816 N1813 1.279 . S
C1816 C1815 1.358 . S
C1816 H1819 0.930 . S
C1817 C1814 1.348 1_556 S
C1817 C1815 1.356 . S
H1818 C1812 0.930 . S
H1819 C1816 0.930 . S
O1820 Li1760 1.956 . S
O1820 Li1761 1.970 . S
O1820 Li1762 1.961 1_554 S
O1820 C1764 1.325 . S
O1821 Li1760 1.970 . S
O1821 Li1761 1.956 . S
O1821 Li1763 1.961 . S
O1821 C1770 1.325 . S
O1822 Li1760 1.961 . S
O1822 Li1762 1.956 1_554 S
O1822 Li1763 1.970 . S
O1822 C1792 1.325 . S
O1823 Li1761 1.961 1_556 S
O1823 Li1762 1.970 . S
O1823 Li1763 1.956 1_556 S
O1823 C1798 1.325 . S
H1824 C1766 0.929 . S
H1825 C1767 0.930 . S
H1826 C1768 0.930 . S
H1827 C1769 0.930 . S
H1828 C1771 0.930 . S
H1829 C1773 0.929 . S
H1830 C1774 0.930 . S
H1831 C1775 0.930 . S
H1832 C1778 0.930 . S
H1833 C1781 0.929 . S
H1834 C1786 0.929 . S
H1835 C1787 0.930 . S
H1836 C1794 0.929 . S
H1837 C1795 0.930 . S
H1838 C1796 0.934 . S
H1839 C1797 0.930 . S
H1840 C1799 0.929 . S
H1841 C1800 0.930 . S
H1842 C1801 0.930 . S
H1843 C1802 0.930 . S
H1844 C1806 0.929 . S
H1845 C1808 0.930 . S
H1846 C1814 0.929 . S
H1847 C1815 0.930 . S
Li1848 N1865 1.990 . S
Li1848 O1908 1.956 . S
Li1848 O1909 1.970 . S
Li1848 O1910 1.961 . S
Li1849 N1873 1.990 . S
Li1849 O1908 1.970 . S
Li1849 O1909 1.956 . S
Li1849 O1911 1.961 . S
Li1850 N1895 1.990 . S
Li1850 O1908 1.961 . S
Li1850 O1910 1.956 . S
Li1850 O1911 1.970 . S
Li1851 N1901 1.990 . S
Li1851 O1909 1.961 . S
Li1851 O1910 1.970 . S
Li1851 O1911 1.956 . S
C1852 C1854 1.348 . S
C1852 C1855 1.356 . S
C1852 O1908 1.325 . S
N1853 C1856 1.314 . S
N1853 C1857 1.279 . S
C1854 C1852 1.348 . S
C1854 C1856 1.353 . S
C1854 H1912 0.929 . S
C1855 C1852 1.356 . S
C1855 C1857 1.358 . S
C1855 H1913 0.930 . S
C1856 N1853 1.314 . S
C1856 C1854 1.353 . S
C1856 H1914 0.930 . S
C1857 N1853 1.279 . S
C1857 C1855 1.358 . S
C1857 H1915 0.930 . S
C1858 C1861 1.348 . S
C1858 C1862 1.356 . S
C1858 O1909 1.325 . S
C1859 N1860 1.279 . S
C1859 C1862 1.358 . S
C1859 H1916 0.930 . S
N1860 C1859 1.279 . S
N1860 C1863 1.314 . S
C1861 C1858 1.348 . S
C1861 C1863 1.353 . S
C1861 H1917 0.929 . S
C1862 C1858 1.356 . S
C1862 C1859 1.358 . S
C1862 H1918 0.930 . S
C1863 N1860 1.314 . S
C1863 C1861 1.353 . S
C1863 H1919 0.930 . S
C1864 N1865 1.314 . S
C1864 C1869 1.353 . S
C1864 H1870 0.930 . S
N1865 Li1848 1.990 . S
N1865 C1864 1.314 . S
N1865 C1867 1.279 . S
C1866 C1867 1.358 . S
C1866 C1868 1.356 . S
C1866 H1920 0.930 . S
C1867 N1865 1.279 . S
C1867 C1866 1.358 . S
C1867 H1871 0.930 . S
C1868 C1866 1.356 . S
C1868 C1869 1.348 . S
C1869 C1864 1.353 . S
C1869 C1868 1.348 . S
C1869 H1921 0.929 . S
H1870 C1864 0.930 . S
H1871 C1867 0.930 . S
C1872 N1873 1.314 . S
C1872 C1874 1.353 . S
C1872 H1878 0.930 . S
N1873 Li1849 1.990 . S
N1873 C1872 1.314 . S
N1873 C1876 1.279 . S
C1874 C1872 1.353 . S
C1874 C1877 1.348 . S
C1874 H1922 0.929 . S
C1875 C1876 1.358 . S
C1875 C1877 1.356 . S
C1875 H1923 0.930 . S
C1876 N1873 1.279 . S
C1876 C1875 1.358 . S
C1876 H1879 0.930 . S
C1877 C1874 1.348 . S
C1877 C1875 1.356 . S
H1878 C1872 0.930 . S
H1879 C1876 0.930 . S
C1880 C1882 1.348 . S
C1880 C1883 1.356 . S
C1880 O1910 1.325 . S
N1881 C1884 1.314 . S
N1881 C1885 1.279 . S
C1882 C1880 1.348 . S
C1882 C1884 1.353 . S
C1882 H1924 0.929 . S
C1883 C1880 1.356 . S
C1883 C1885 1.358 . S
C1883 H1925 0.930 . S
C1884 N1881 1.314 . S
C1884 C1882 1.353 . S
C1884 H1926 0.930 . S
C1885 N1881 1.279 . S
C1885 C1883 1.358 . S
C1885 H1927 0.930 . S
C1886 C1887 1.348 . S
C1886 C1888 1.356 . S
C1886 O1911 1.325 . S
C1887 C1886 1.348 . S
C1887 C1889 1.353 . S
C1887 H1928 0.929 . S
C1888 C1886 1.356 . S
C1888 C1890 1.358 . S
C1888 H1929 0.930 . S
C1889 C1887 1.353 . S
C1889 N1891 1.314 . S
C1889 H1930 0.930 . S
C1890 C1888 1.358 . S
C1890 N1891 1.279 . S
C1890 H1931 0.930 . S
N1891 C1889 1.314 . S
N1891 C1890 1.279 . S
C1892 C1894 1.353 . S
C1892 N1895 1.314 . S
C1892 H1898 0.930 . S
C1893 N1895 1.279 . S
C1893 C1896 1.358 . S
C1893 H1899 0.930 . S
C1894 C1892 1.353 . S
C1894 C1897 1.348 . S
C1894 H1932 0.929 . S
N1895 Li1850 1.990 . S
N1895 C1892 1.314 . S
N1895 C1893 1.279 . S
C1896 C1893 1.358 . S
C1896 C1897 1.356 . S
C1896 H1933 0.930 . S
C1897 C1894 1.348 . S
C1897 C1896 1.356 . S
H1898 C1892 0.930 . S
H1899 C1893 0.930 . S
C1900 N1901 1.314 . S
C1900 C1902 1.353 . S
C1900 H1906 0.930 . S
N1901 Li1851 1.990 . S
N1901 C1900 1.314 . S
N1901 C1904 1.279 . S
C1902 C1900 1.353 . S
C1902 C1905 1.348 . S
C1902 H1934 0.929 . S
C1903 C1904 1.358 . S
C1903 C1905 1.356 . S
C1903 H1935 0.930 . S
C1904 N1901 1.279 . S
C1904 C1903 1.358 . S
C1904 H1907 0.930 . S
C1905 C1902 1.348 . S
C1905 C1903 1.356 . S
H1906 C1900 0.930 . S
H1907 C1904 0.930 . S
O1908 Li1848 1.956 . S
O1908 Li1849 1.970 . S
O1908 Li1850 1.961 . S
O1908 C1852 1.325 . S
O1909 Li1848 1.970 . S
O1909 Li1849 1.956 . S
O1909 Li1851 1.961 . S
O1909 C1858 1.325 . S
O1910 Li1848 1.961 . S
O1910 Li1850 1.956 . S
O1910 Li1851 1.970 . S
O1910 C1880 1.325 . S
O1911 Li1849 1.961 . S
O1911 Li1850 1.970 . S
O1911 Li1851 1.956 . S
O1911 C1886 1.325 . S
H1912 C1854 0.929 . S
H1913 C1855 0.930 . S
H1914 C1856 0.930 . S
H1915 C1857 0.930 . S
H1916 C1859 0.930 . S
H1917 C1861 0.929 . S
H1918 C1862 0.930 . S
H1919 C1863 0.930 . S
H1920 C1866 0.930 . S
H1921 C1869 0.929 . S
H1922 C1874 0.929 . S
H1923 C1875 0.930 . S
H1924 C1882 0.929 . S
H1925 C1883 0.930 . S
H1926 C1884 0.930 . S
H1927 C1885 0.930 . S
H1928 C1887 0.929 . S
H1929 C1888 0.930 . S
H1930 C1889 0.930 . S
H1931 C1890 0.930 . S
H1932 C1894 0.929 . S
H1933 C1896 0.930 . S
H1934 C1902 0.929 . S
H1935 C1903 0.930 . S
Li1936 N1953 1.990 . S
Li1936 O1996 1.956 . S
Li1936 O1997 1.970 . S
Li1936 O1998 1.961 . S
Li1937 N1961 1.990 . S
Li1937 O1996 1.970 . S
Li1937 O1997 1.956 . S
Li1937 O1999 1.961 . S
Li1938 N1983 1.990 . S
Li1938 O1996 1.961 . S
Li1938 O1998 1.956 . S
Li1938 O1999 1.970 . S
Li1939 N1989 1.990 . S
Li1939 O1997 1.961 . S
Li1939 O1998 1.970 . S
Li1939 O1999 1.956 . S
C1940 C1942 1.348 . S
C1940 C1943 1.356 . S
C1940 O1996 1.325 . S
N1941 C1944 1.314 . S
N1941 C1945 1.279 . S
C1942 C1940 1.348 . S
C1942 C1944 1.353 . S
C1942 H2000 0.929 . S
C1943 C1940 1.356 . S
C1943 C1945 1.358 . S
C1943 H2001 0.930 . S
C1944 N1941 1.314 . S
C1944 C1942 1.353 . S
C1944 H2002 0.930 . S
C1945 N1941 1.279 . S
C1945 C1943 1.358 . S
C1945 H2003 0.930 . S
C1946 C1949 1.348 . S
C1946 C1950 1.356 . S
C1946 O1997 1.325 . S
C1947 N1948 1.279 . S
C1947 C1950 1.358 . S
C1947 H2004 0.930 . S
N1948 C1947 1.279 . S
N1948 C1951 1.314 . S
C1949 C1946 1.348 . S
C1949 C1951 1.353 . S
C1949 H2005 0.929 . S
C1950 C1946 1.356 . S
C1950 C1947 1.358 . S
C1950 H2006 0.930 . S
C1951 N1948 1.314 . S
C1951 C1949 1.353 . S
C1951 H2007 0.930 . S
C1952 N1953 1.314 . S
C1952 C1957 1.353 . S
C1952 H1958 0.930 . S
N1953 Li1936 1.990 . S
N1953 C1952 1.314 . S
N1953 C1955 1.279 . S
C1954 C1955 1.358 . S
C1954 C1956 1.356 . S
C1954 H2008 0.930 . S
C1955 N1953 1.279 . S
C1955 C1954 1.358 . S
C1955 H1959 0.930 . S
C1956 C1954 1.356 . S
C1956 C1957 1.348 . S
C1957 C1952 1.353 . S
C1957 C1956 1.348 . S
C1957 H2009 0.929 . S
H1958 C1952 0.930 . S
H1959 C1955 0.930 . S
C1960 N1961 1.314 . S
C1960 C1962 1.353 . S
C1960 H1966 0.930 . S
N1961 Li1937 1.990 . S
N1961 C1960 1.314 . S
N1961 C1964 1.279 . S
C1962 C1960 1.353 . S
C1962 C1965 1.348 . S
C1962 H2010 0.929 . S
C1963 C1964 1.358 . S
C1963 C1965 1.356 . S
C1963 H2011 0.930 . S
C1964 N1961 1.279 . S
C1964 C1963 1.358 . S
C1964 H1967 0.930 . S
C1965 C1962 1.348 . S
C1965 C1963 1.356 . S
H1966 C1960 0.930 . S
H1967 C1964 0.930 . S
C1968 C1970 1.348 . S
C1968 C1971 1.356 . S
C1968 O1998 1.325 . S
N1969 C1972 1.314 . S
N1969 C1973 1.279 . S
C1970 C1968 1.348 . S
C1970 C1972 1.353 . S
C1970 H2012 0.929 . S
C1971 C1968 1.356 . S
C1971 C1973 1.358 . S
C1971 H2013 0.930 . S
C1972 N1969 1.314 . S
C1972 C1970 1.353 . S
C1972 H2014 0.930 . S
C1973 N1969 1.279 . S
C1973 C1971 1.358 . S
C1973 H2015 0.930 . S
C1974 C1975 1.348 . S
C1974 C1976 1.356 . S
C1974 O1999 1.325 . S
C1975 C1974 1.348 . S
C1975 C1977 1.353 . S
C1975 H2016 0.929 . S
C1976 C1974 1.356 . S
C1976 C1978 1.358 . S
C1976 H2017 0.930 . S
C1977 C1975 1.353 . S
C1977 N1979 1.314 . S
C1977 H2018 0.930 . S
C1978 C1976 1.358 . S
C1978 N1979 1.279 . S
C1978 H2019 0.930 . S
N1979 C1977 1.314 . S
N1979 C1978 1.279 . S
C1980 C1982 1.353 . S
C1980 N1983 1.314 . S
C1980 H1986 0.930 . S
C1981 N1983 1.279 . S
C1981 C1984 1.358 . S
C1981 H1987 0.930 . S
C1982 C1980 1.353 . S
C1982 C1985 1.348 . S
C1982 H2020 0.929 . S
N1983 Li1938 1.990 . S
N1983 C1980 1.314 . S
N1983 C1981 1.279 . S
C1984 C1981 1.358 . S
C1984 C1985 1.356 . S
C1984 H2021 0.930 . S
C1985 C1982 1.348 . S
C1985 C1984 1.356 . S
H1986 C1980 0.930 . S
H1987 C1981 0.930 . S
C1988 N1989 1.314 . S
C1988 C1990 1.353 . S
C1988 H1994 0.930 . S
N1989 Li1939 1.990 . S
N1989 C1988 1.314 . S
N1989 C1992 1.279 . S
C1990 C1988 1.353 . S
C1990 C1993 1.348 . S
C1990 H2022 0.929 . S
C1991 C1992 1.358 . S
C1991 C1993 1.356 . S
C1991 H2023 0.930 . S
C1992 N1989 1.279 . S
C1992 C1991 1.358 . S
C1992 H1995 0.930 . S
C1993 C1990 1.348 . S
C1993 C1991 1.356 . S
H1994 C1988 0.930 . S
H1995 C1992 0.930 . S
O1996 Li1936 1.956 . S
O1996 Li1937 1.970 . S
O1996 Li1938 1.961 . S
O1996 C1940 1.325 . S
O1997 Li1936 1.970 . S
O1997 Li1937 1.956 . S
O1997 Li1939 1.961 . S
O1997 C1946 1.325 . S
O1998 Li1936 1.961 . S
O1998 Li1938 1.956 . S
O1998 Li1939 1.970 . S
O1998 C1968 1.325 . S
O1999 Li1937 1.961 . S
O1999 Li1938 1.970 . S
O1999 Li1939 1.956 . S
O1999 C1974 1.325 . S
H2000 C1942 0.929 . S
H2001 C1943 0.930 . S
H2002 C1944 0.930 . S
H2003 C1945 0.930 . S
H2004 C1947 0.930 . S
H2005 C1949 0.929 . S
H2006 C1950 0.930 . S
H2007 C1951 0.930 . S
H2008 C1954 0.930 . S
H2009 C1957 0.929 . S
H2010 C1962 0.929 . S
H2011 C1963 0.930 . S
H2012 C1970 0.929 . S
H2013 C1971 0.930 . S
H2014 C1972 0.930 . S
H2015 C1973 0.930 . S
H2016 C1975 0.929 . S
H2017 C1976 0.930 . S
H2018 C1977 0.930 . S
H2019 C1978 0.930 . S
H2020 C1982 0.929 . S
H2021 C1984 0.930 . S
H2022 C1990 0.929 . S
H2023 C1991 0.930 . S
Li2024 N2041 1.990 . S
Li2024 O2084 1.956 . S
Li2024 O2085 1.970 . S
Li2024 O2086 1.961 . S
Li2025 N2049 1.990 . S
Li2025 O2084 1.970 . S
Li2025 O2085 1.956 . S
Li2025 O2087 1.961 . S
Li2026 N2071 1.990 . S
Li2026 O2084 1.961 . S
Li2026 O2086 1.956 . S
Li2026 O2087 1.970 . S
Li2027 N2077 1.990 . S
Li2027 O2085 1.961 . S
Li2027 O2086 1.970 . S
Li2027 O2087 1.956 . S
C2028 C2030 1.348 . S
C2028 C2031 1.356 . S
C2028 O2084 1.325 . S
N2029 C2032 1.314 . S
N2029 C2033 1.279 . S
C2030 C2028 1.348 . S
C2030 C2032 1.353 . S
C2030 H2088 0.929 . S
C2031 C2028 1.356 . S
C2031 C2033 1.358 . S
C2031 H2089 0.930 . S
C2032 N2029 1.314 . S
C2032 C2030 1.353 . S
C2032 H2090 0.930 . S
C2033 N2029 1.279 . S
C2033 C2031 1.358 . S
C2033 H2091 0.930 . S
C2034 C2037 1.348 . S
C2034 C2038 1.356 . S
C2034 O2085 1.325 . S
C2035 N2036 1.279 . S
C2035 C2038 1.358 . S
C2035 H2092 0.930 . S
N2036 C2035 1.279 . S
N2036 C2039 1.314 . S
C2037 C2034 1.348 . S
C2037 C2039 1.353 . S
C2037 H2093 0.929 . S
C2038 C2034 1.356 . S
C2038 C2035 1.358 . S
C2038 H2094 0.930 . S
C2039 N2036 1.314 . S
C2039 C2037 1.353 . S
C2039 H2095 0.930 . S
C2040 N2041 1.314 . S
C2040 C2045 1.353 . S
C2040 H2046 0.930 . S
N2041 Li2024 1.990 . S
N2041 C2040 1.314 . S
N2041 C2043 1.279 . S
C2042 C2043 1.358 . S
C2042 C2044 1.356 . S
C2042 H2096 0.930 . S
C2043 N2041 1.279 . S
C2043 C2042 1.358 . S
C2043 H2047 0.930 . S
C2044 C2042 1.356 . S
C2044 C2045 1.348 . S
C2045 C2040 1.353 . S
C2045 C2044 1.348 . S
C2045 H2097 0.929 . S
H2046 C2040 0.930 . S
H2047 C2043 0.930 . S
C2048 N2049 1.314 . S
C2048 C2050 1.353 . S
C2048 H2054 0.930 . S
N2049 Li2025 1.990 . S
N2049 C2048 1.314 . S
N2049 C2052 1.279 . S
C2050 C2048 1.353 . S
C2050 C2053 1.348 . S
C2050 H2098 0.929 . S
C2051 C2052 1.358 . S
C2051 C2053 1.356 . S
C2051 H2099 0.930 . S
C2052 N2049 1.279 . S
C2052 C2051 1.358 . S
C2052 H2055 0.930 . S
C2053 C2050 1.348 . S
C2053 C2051 1.356 . S
H2054 C2048 0.930 . S
H2055 C2052 0.930 . S
C2056 C2058 1.348 . S
C2056 C2059 1.356 . S
C2056 O2086 1.325 . S
N2057 C2060 1.314 . S
N2057 C2061 1.279 . S
C2058 C2056 1.348 . S
C2058 C2060 1.353 . S
C2058 H2100 0.929 . S
C2059 C2056 1.356 . S
C2059 C2061 1.358 . S
C2059 H2101 0.930 . S
C2060 N2057 1.314 . S
C2060 C2058 1.353 . S
C2060 H2102 0.930 . S
C2061 N2057 1.279 . S
C2061 C2059 1.358 . S
C2061 H2103 0.930 . S
C2062 C2063 1.348 . S
C2062 C2064 1.356 . S
C2062 O2087 1.325 . S
C2063 C2062 1.348 . S
C2063 C2065 1.353 . S
C2063 H2104 0.929 . S
C2064 C2062 1.356 . S
C2064 C2066 1.358 . S
C2064 H2105 0.930 . S
C2065 C2063 1.353 . S
C2065 N2067 1.314 . S
C2065 H2106 0.930 . S
C2066 C2064 1.358 . S
C2066 N2067 1.279 . S
C2066 H2107 0.930 . S
N2067 C2065 1.314 . S
N2067 C2066 1.279 . S
C2068 C2070 1.353 . S
C2068 N2071 1.314 . S
C2068 H2074 0.930 . S
C2069 N2071 1.279 . S
C2069 C2072 1.358 . S
C2069 H2075 0.930 . S
C2070 C2068 1.353 . S
C2070 C2073 1.348 . S
C2070 H2108 0.929 . S
N2071 Li2026 1.990 . S
N2071 C2068 1.314 . S
N2071 C2069 1.279 . S
C2072 C2069 1.358 . S
C2072 C2073 1.356 . S
C2072 H2109 0.930 . S
C2073 C2070 1.348 . S
C2073 C2072 1.356 . S
H2074 C2068 0.930 . S
H2075 C2069 0.930 . S
C2076 N2077 1.314 . S
C2076 C2078 1.353 . S
C2076 H2082 0.930 . S
N2077 Li2027 1.990 . S
N2077 C2076 1.314 . S
N2077 C2080 1.279 . S
C2078 C2076 1.353 . S
C2078 C2081 1.348 . S
C2078 H2110 0.929 . S
C2079 C2080 1.358 . S
C2079 C2081 1.356 . S
C2079 H2111 0.930 . S
C2080 N2077 1.279 . S
C2080 C2079 1.358 . S
C2080 H2083 0.930 . S
C2081 C2078 1.348 . S
C2081 C2079 1.356 . S
H2082 C2076 0.930 . S
H2083 C2080 0.930 . S
O2084 Li2024 1.956 . S
O2084 Li2025 1.970 . S
O2084 Li2026 1.961 . S
O2084 C2028 1.325 . S
O2085 Li2024 1.970 . S
O2085 Li2025 1.956 . S
O2085 Li2027 1.961 . S
O2085 C2034 1.325 . S
O2086 Li2024 1.961 . S
O2086 Li2026 1.956 . S
O2086 Li2027 1.970 . S
O2086 C2056 1.325 . S
O2087 Li2025 1.961 . S
O2087 Li2026 1.970 . S
O2087 Li2027 1.956 . S
O2087 C2062 1.325 . S
H2088 C2030 0.929 . S
H2089 C2031 0.930 . S
H2090 C2032 0.930 . S
H2091 C2033 0.930 . S
H2092 C2035 0.930 . S
H2093 C2037 0.929 . S
H2094 C2038 0.930 . S
H2095 C2039 0.930 . S
H2096 C2042 0.930 . S
H2097 C2045 0.929 . S
H2098 C2050 0.929 . S
H2099 C2051 0.930 . S
H2100 C2058 0.929 . S
H2101 C2059 0.930 . S
H2102 C2060 0.930 . S
H2103 C2061 0.930 . S
H2104 C2063 0.929 . S
H2105 C2064 0.930 . S
H2106 C2065 0.930 . S
H2107 C2066 0.930 . S
H2108 C2070 0.929 . S
H2109 C2072 0.930 . S
H2110 C2078 0.929 . S
H2111 C2079 0.930 . S
Ho2112 C2115 2.811 1_455 S
Ho2112 O2132 2.322 . S
Ho2112 O2134 2.378 1_455 S
Ho2112 O2135 2.524 1_456 S
Ho2112 O2136 2.381 . S
Ho2112 O2137 2.669 . S
Ho2112 O2139 2.346 1_546 S
Ho2112 O2143 2.305 1_556 S
Ho2113 C2124 2.811 . S
Ho2113 O2133 2.346 . S
Ho2113 O2137 2.305 1_554 S
Ho2113 O2138 2.322 . S
Ho2113 O2140 2.378 . S
Ho2113 O2141 2.524 . S
Ho2113 O2142 2.381 . S
Ho2113 O2143 2.669 . S
C2114 O2132 1.259 1_554 S
C2114 O2133 1.268 . S
C2115 Ho2112 2.811 1_655 S
C2115 C2116 1.488 . S
C2115 O2134 1.215 . S
C2115 O2135 1.289 1_556 S
C2116 C2115 1.488 . S
C2116 C2117 1.325 1_556 S
C2116 C2121 1.413 . S
C2117 C2116 1.325 1_554 S
C2117 C2118 1.433 1_554 S
C2117 H2144 0.963 . S
C2118 C2117 1.433 1_556 S
C2118 C2119 1.381 . S
C2118 H2145 0.931 1_556 S
C2119 C2118 1.381 . S
C2119 C2120 1.321 . S
C2120 C2119 1.321 . S
C2120 C2121 1.403 . S
C2120 H2146 0.934 . S
C2121 C2116 1.413 . S
C2121 C2120 1.403 . S
C2121 H2147 0.930 . S
C2122 O2136 1.275 . S
C2122 O2137 1.256 . S
C2123 O2138 1.259 1_565 S
C2123 O2139 1.268 . S
C2124 Ho2113 2.811 . S
C2124 C2125 1.488 . S
C2124 O2140 1.215 . S
C2124 O2141 1.289 . S
C2125 C2124 1.488 . S
C2125 C2126 1.348 . S
C2125 C2130 1.413 . S
C2126 C2125 1.348 . S
C2126 C2127 1.442 1_545 S
C2126 H2148 0.930 1_545 S
C2127 C2126 1.442 1_565 S
C2127 C2128 1.380 1_565 S
C2127 H2149 0.931 . S
C2128 C2127 1.380 1_545 S
C2128 C2129 1.333 . S
C2129 C2128 1.333 . S
C2129 C2130 1.403 . S
C2129 H2150 0.934 . S
C2130 C2125 1.413 . S
C2130 C2129 1.403 . S
C2130 H2151 0.930 . S
C2131 O2142 1.275 . S
C2131 O2143 1.256 . S
O2132 Ho2112 2.322 . S
O2132 C2114 1.259 1_556 S
O2133 Ho2113 2.346 . S
O2133 C2114 1.268 . S
O2134 Ho2112 2.378 1_655 S
O2134 C2115 1.215 . S
O2135 Ho2112 2.524 1_654 S
O2135 C2115 1.289 1_554 S
O2136 Ho2112 2.381 . S
O2136 C2122 1.275 . S
O2137 Ho2112 2.669 . S
O2137 Ho2113 2.305 1_556 S
O2137 C2122 1.256 . S
O2138 Ho2113 2.322 . S
O2138 C2123 1.259 1_545 S
O2139 Ho2112 2.346 1_564 S
O2139 C2123 1.268 . S
O2140 Ho2113 2.378 . S
O2140 C2124 1.215 . S
O2141 Ho2113 2.524 . S
O2141 C2124 1.289 . S
O2142 Ho2113 2.381 . S
O2142 C2131 1.275 . S
O2143 Ho2112 2.305 1_554 S
O2143 Ho2113 2.669 . S
O2143 C2131 1.256 . S
H2144 C2117 0.963 . S
H2145 C2118 0.931 1_554 S
H2146 C2120 0.934 . S
H2147 C2121 0.930 . S
H2148 C2126 0.930 1_565 S
H2149 C2127 0.931 . S
H2150 C2129 0.934 . S
H2151 C2130 0.930 . S
Ho2152 C2155 2.811 . S
Ho2152 O2172 2.322 . S
Ho2152 O2174 2.378 . S
Ho2152 O2175 2.524 . S
Ho2152 O2176 2.381 . S
Ho2152 O2177 2.669 . S
Ho2152 O2179 2.346 . S
Ho2152 O2183 2.305 . S
Ho2153 C2164 2.811 . S
Ho2153 O2173 2.346 . S
Ho2153 O2177 2.305 . S
Ho2153 O2178 2.322 . S
Ho2153 O2180 2.378 . S
Ho2153 O2181 2.524 . S
Ho2153 O2182 2.381 . S
Ho2153 O2183 2.669 . S
C2154 O2172 1.259 . S
C2154 O2173 1.268 . S
C2155 Ho2152 2.811 . S
C2155 C2156 1.488 . S
C2155 O2174 1.215 . S
C2155 O2175 1.289 . S
C2156 C2155 1.488 . S
C2156 C2157 1.348 . S
C2156 C2161 1.413 . S
C2157 C2156 1.348 . S
C2157 C2158 1.442 . S
C2157 H2184 0.930 . S
C2158 C2157 1.442 . S
C2158 C2159 1.381 . S
C2158 H2185 0.931 . S
C2159 C2158 1.381 . S
C2159 C2160 1.321 . S
C2160 C2159 1.321 . S
C2160 C2161 1.403 . S
C2160 H2186 0.934 . S
C2161 C2156 1.413 . S
C2161 C2160 1.403 . S
C2161 H2187 0.930 . S
C2162 O2176 1.275 . S
C2162 O2177 1.256 . S
C2163 O2178 1.259 . S
C2163 O2179 1.268 . S
C2164 Ho2153 2.811 . S
C2164 C2165 1.488 . S
C2164 O2180 1.215 . S
C2164 O2181 1.289 . S
C2165 C2164 1.488 . S
C2165 C2166 1.348 . S
C2165 C2170 1.413 . S
C2166 C2165 1.348 . S
C2166 C2167 1.442 . S
C2166 H2188 0.930 . S
C2167 C2166 1.442 . S
C2167 C2168 1.381 . S
C2167 H2189 0.931 . S
C2168 C2167 1.381 . S
C2168 C2169 1.321 . S
C2169 C2168 1.321 . S
C2169 C2170 1.403 . S
C2169 H2190 0.934 . S
C2170 C2165 1.413 . S
C2170 C2169 1.403 . S
C2170 H2191 0.930 . S
C2171 O2182 1.275 . S
C2171 O2183 1.256 . S
O2172 Ho2152 2.322 . S
O2172 C2154 1.259 . S
O2173 Ho2153 2.346 . S
O2173 C2154 1.268 . S
O2174 Ho2152 2.378 . S
O2174 C2155 1.215 . S
O2175 Ho2152 2.524 . S
O2175 C2155 1.289 . S
O2176 Ho2152 2.381 . S
O2176 C2162 1.275 . S
O2177 Ho2152 2.669 . S
O2177 Ho2153 2.305 . S
O2177 C2162 1.256 . S
O2178 Ho2153 2.322 . S
O2178 C2163 1.259 . S
O2179 Ho2152 2.346 . S
O2179 C2163 1.268 . S
O2180 Ho2153 2.378 . S
O2180 C2164 1.215 . S
O2181 Ho2153 2.524 . S
O2181 C2164 1.289 . S
O2182 Ho2153 2.381 . S
O2182 C2171 1.275 . S
O2183 Ho2152 2.305 . S
O2183 Ho2153 2.669 . S
O2183 C2171 1.256 . S
H2184 C2157 0.930 . S
H2185 C2158 0.931 . S
H2186 C2160 0.934 . S
H2187 C2161 0.930 . S
H2188 C2166 0.930 . S
H2189 C2167 0.931 . S
H2190 C2169 0.934 . S
H2191 C2170 0.930 . S
Ho2192 C2195 2.811 . S
Ho2192 O2212 2.322 . S
Ho2192 O2214 2.378 . S
Ho2192 O2215 2.524 . S
Ho2192 O2216 2.381 . S
Ho2192 O2217 2.669 . S
Ho2192 O2219 2.346 . S
Ho2192 O2223 2.305 . S
Ho2193 C2204 2.811 . S
Ho2193 O2213 2.346 1_545 S
Ho2193 O2217 2.305 . S
Ho2193 O2218 2.322 . S
Ho2193 O2220 2.378 . S
Ho2193 O2221 2.524 . S
Ho2193 O2222 2.381 . S
Ho2193 O2223 2.669 . S
C2194 O2212 1.259 1_565 S
C2194 O2213 1.268 . S
C2195 Ho2192 2.811 . S
C2195 C2196 1.488 1_545 S
C2195 O2214 1.215 . S
C2195 O2215 1.289 . S
C2196 C2195 1.488 1_565 S
C2196 C2197 1.348 . S
C2196 C2201 1.413 . S
C2197 C2196 1.348 . S
C2197 C2198 1.442 . S
C2197 H2224 0.930 . S
C2198 C2197 1.442 . S
C2198 C2199 1.381 . S
C2198 H2225 0.931 . S
C2199 C2198 1.381 . S
C2199 C2200 1.321 . S
C2200 C2199 1.321 . S
C2200 C2201 1.403 . S
C2200 H2226 0.934 . S
C2201 C2196 1.413 . S
C2201 C2200 1.403 . S
C2201 H2227 0.898 1_565 S
C2202 O2216 1.275 . S
C2202 O2217 1.256 . S
C2203 O2218 1.259 . S
C2203 O2219 1.268 . S
C2204 Ho2193 2.811 . S
C2204 C2205 1.488 . S
C2204 O2220 1.215 . S
C2204 O2221 1.289 . S
C2205 C2204 1.488 . S
C2205 C2206 1.348 . S
C2205 C2210 1.413 . S
C2206 C2205 1.348 . S
C2206 C2207 1.442 . S
C2206 H2228 0.930 . S
C2207 C2206 1.442 . S
C2207 C2208 1.381 . S
C2207 H2229 0.931 . S
C2208 C2207 1.381 . S
C2208 C2209 1.321 . S
C2209 C2208 1.321 . S
C2209 C2210 1.403 . S
C2209 H2230 0.934 . S
C2210 C2205 1.413 . S
C2210 C2209 1.403 . S
C2210 H2231 0.930 . S
C2211 O2222 1.275 . S
C2211 O2223 1.256 . S
O2212 Ho2192 2.322 . S
O2212 C2194 1.259 1_545 S
O2213 Ho2193 2.346 1_565 S
O2213 C2194 1.268 . S
O2214 Ho2192 2.378 . S
O2214 C2195 1.215 . S
O2215 Ho2192 2.524 . S
O2215 C2195 1.289 . S
O2216 Ho2192 2.381 . S
O2216 C2202 1.275 . S
O2217 Ho2192 2.669 . S
O2217 Ho2193 2.305 . S
O2217 C2202 1.256 . S
O2218 Ho2193 2.322 . S
O2218 C2203 1.259 . S
O2219 Ho2192 2.346 . S
O2219 C2203 1.268 . S
O2220 Ho2193 2.378 . S
O2220 C2204 1.215 . S
O2221 Ho2193 2.524 . S
O2221 C2204 1.289 . S
O2222 Ho2193 2.381 . S
O2222 C2211 1.275 . S
O2223 Ho2192 2.305 . S
O2223 Ho2193 2.669 . S
O2223 C2211 1.256 . S
H2224 C2197 0.930 . S
H2225 C2198 0.931 . S
H2226 C2200 0.934 . S
H2227 C2201 0.898 1_545 S
H2228 C2206 0.930 . S
H2229 C2207 0.931 . S
H2230 C2209 0.934 . S
H2231 C2210 0.930 . S
Ho2232 C2235 2.811 . S
Ho2232 O2252 2.322 . S
Ho2232 O2254 2.378 . S
Ho2232 O2255 2.524 . S
Ho2232 O2256 2.381 . S
Ho2232 O2257 2.669 . S
Ho2232 O2259 2.346 . S
Ho2232 O2263 2.305 . S
Ho2233 C2244 2.811 . S
Ho2233 O2253 2.346 . S
Ho2233 O2257 2.305 . S
Ho2233 O2258 2.322 . S
Ho2233 O2260 2.378 . S
Ho2233 O2261 2.524 . S
Ho2233 O2262 2.381 . S
Ho2233 O2263 2.669 . S
C2234 O2252 1.259 . S
C2234 O2253 1.268 . S
C2235 Ho2232 2.811 . S
C2235 C2236 1.488 . S
C2235 O2254 1.215 . S
C2235 O2255 1.289 . S
C2236 C2235 1.488 . S
C2236 C2237 1.348 . S
C2236 C2241 1.413 . S
C2237 C2236 1.348 . S
C2237 C2238 1.442 . S
C2237 H2264 0.930 . S
C2238 C2237 1.442 . S
C2238 C2239 1.381 . S
C2238 H2265 0.931 . S
C2239 C2238 1.381 . S
C2239 C2240 1.321 . S
C2240 C2239 1.321 . S
C2240 C2241 1.403 . S
C2240 H2266 0.934 . S
C2241 C2236 1.413 . S
C2241 C2240 1.403 . S
C2241 H2267 0.930 . S
C2242 O2256 1.275 . S
C2242 O2257 1.256 . S
C2243 O2258 1.259 . S
C2243 O2259 1.268 . S
C2244 Ho2233 2.811 . S
C2244 C2245 1.488 . S
C2244 O2260 1.215 . S
C2244 O2261 1.289 . S
C2245 C2244 1.488 . S
C2245 C2246 1.348 . S
C2245 C2250 1.413 . S
C2246 C2245 1.348 . S
C2246 C2247 1.442 . S
C2246 H2268 0.930 . S
C2247 C2246 1.442 . S
C2247 C2248 1.381 . S
C2247 H2269 0.931 . S
C2248 C2247 1.381 . S
C2248 C2249 1.321 . S
C2249 C2248 1.321 . S
C2249 C2250 1.403 . S
C2249 H2270 0.934 . S
C2250 C2245 1.413 . S
C2250 C2249 1.403 . S
C2250 H2271 0.930 . S
C2251 O2262 1.275 . S
C2251 O2263 1.256 . S
O2252 Ho2232 2.322 . S
O2252 C2234 1.259 . S
O2253 Ho2233 2.346 . S
O2253 C2234 1.268 . S
O2254 Ho2232 2.378 . S
O2254 C2235 1.215 . S
O2255 Ho2232 2.524 . S
O2255 C2235 1.289 . S
O2256 Ho2232 2.381 . S
O2256 C2242 1.275 . S
O2257 Ho2232 2.669 . S
O2257 Ho2233 2.305 . S
O2257 C2242 1.256 . S
O2258 Ho2233 2.322 . S
O2258 C2243 1.259 . S
O2259 Ho2232 2.346 . S
O2259 C2243 1.268 . S
O2260 Ho2233 2.378 . S
O2260 C2244 1.215 . S
O2261 Ho2233 2.524 . S
O2261 C2244 1.289 . S
O2262 Ho2233 2.381 . S
O2262 C2251 1.275 . S
O2263 Ho2232 2.305 . S
O2263 Ho2233 2.669 . S
O2263 C2251 1.256 . S
H2264 C2237 0.930 . S
H2265 C2238 0.931 . S
H2266 C2240 0.934 . S
H2267 C2241 0.930 . S
H2268 C2246 0.930 . S
H2269 C2247 0.931 . S
H2270 C2249 0.934 . S
H2271 C2250 0.930 . S
Ho2272 C2275 2.811 . S
Ho2272 O2292 2.322 . S
Ho2272 O2294 2.378 . S
Ho2272 O2295 2.524 . S
Ho2272 O2296 2.381 . S
Ho2272 O2297 2.669 . S
Ho2272 O2299 2.346 . S
Ho2272 O2303 2.305 . S
Ho2273 C2284 2.811 1_545 S
Ho2273 O2293 2.346 . S
Ho2273 O2297 2.305 . S
Ho2273 O2298 2.322 . S
Ho2273 O2300 2.378 1_545 S
Ho2273 O2301 2.524 1_545 S
Ho2273 O2302 2.381 . S
Ho2273 O2303 2.669 . S
C2274 O2292 1.259 . S
C2274 O2293 1.268 . S
C2275 Ho2272 2.811 . S
C2275 C2276 1.488 . S
C2275 O2294 1.215 . S
C2275 O2295 1.289 . S
C2276 C2275 1.488 . S
C2276 C2277 1.348 . S
C2276 C2281 1.413 . S
C2277 C2276 1.348 . S
C2277 C2278 1.442 . S
C2277 H2304 0.930 . S
C2278 C2277 1.442 . S
C2278 C2279 1.381 . S
C2278 H2305 0.931 . S
C2279 C2278 1.381 . S
C2279 C2280 1.321 . S
C2280 C2279 1.321 . S
C2280 C2281 1.403 . S
C2280 H2306 0.934 . S
C2281 C2276 1.413 . S
C2281 C2280 1.403 . S
C2281 H2307 0.930 . S
C2282 O2296 1.275 . S
C2282 O2297 1.256 . S
C2283 O2298 1.259 . S
C2283 O2299 1.268 . S
C2284 Ho2273 2.811 1_565 S
C2284 C2285 1.488 . S
C2284 O2300 1.215 . S
C2284 O2301 1.289 . S
C2285 C2284 1.488 . S
C2285 C2286 1.348 . S
C2285 C2290 1.413 . S
C2286 C2285 1.348 . S
C2286 C2287 1.442 . S
C2286 H2308 0.930 . S
C2287 C2286 1.442 . S
C2287 C2288 1.381 . S
C2287 H2309 0.931 . S
C2288 C2287 1.381 . S
C2288 C2289 1.321 . S
C2289 C2288 1.321 . S
C2289 C2290 1.403 . S
C2289 H2310 0.934 . S
C2290 C2285 1.413 . S
C2290 C2289 1.403 . S
C2290 H2311 0.930 . S
C2291 O2302 1.275 . S
C2291 O2303 1.256 . S
O2292 Ho2272 2.322 . S
O2292 C2274 1.259 . S
O2293 Ho2273 2.346 . S
O2293 C2274 1.268 . S
O2294 Ho2272 2.378 . S
O2294 C2275 1.215 . S
O2295 Ho2272 2.524 . S
O2295 C2275 1.289 . S
O2296 Ho2272 2.381 . S
O2296 C2282 1.275 . S
O2297 Ho2272 2.669 . S
O2297 Ho2273 2.305 . S
O2297 C2282 1.256 . S
O2298 Ho2273 2.322 . S
O2298 C2283 1.259 . S
O2299 Ho2272 2.346 . S
O2299 C2283 1.268 . S
O2300 Ho2273 2.378 1_565 S
O2300 C2284 1.215 . S
O2301 Ho2273 2.524 1_565 S
O2301 C2284 1.289 . S
O2302 Ho2273 2.381 . S
O2302 C2291 1.275 . S
O2303 Ho2272 2.305 . S
O2303 Ho2273 2.669 . S
O2303 C2291 1.256 . S
H2304 C2277 0.930 . S
H2305 C2278 0.931 . S
H2306 C2280 0.934 . S
H2307 C2281 0.930 . S
H2308 C2286 0.930 . S
H2309 C2287 0.931 . S
H2310 C2289 0.934 . S
H2311 C2290 0.930 . S
Ho2312 C2315 2.811 . S
Ho2312 O2332 2.322 . S
Ho2312 O2334 2.378 . S
Ho2312 O2335 2.524 . S
Ho2312 O2336 2.381 . S
Ho2312 O2337 2.669 . S
Ho2312 O2339 2.346 . S
Ho2312 O2343 2.305 . S
Ho2313 C2324 2.811 . S
Ho2313 O2333 2.346 . S
Ho2313 O2337 2.305 . S
Ho2313 O2338 2.322 . S
Ho2313 O2340 2.378 . S
Ho2313 O2341 2.524 . S
Ho2313 O2342 2.381 . S
Ho2313 O2343 2.669 . S
C2314 O2332 1.259 . S
C2314 O2333 1.268 . S
C2315 Ho2312 2.811 . S
C2315 C2316 1.488 . S
C2315 O2334 1.215 . S
C2315 O2335 1.289 . S
C2316 C2315 1.488 . S
C2316 C2317 1.348 . S
C2316 C2321 1.413 . S
C2317 C2316 1.348 . S
C2317 C2318 1.442 . S
C2317 H2344 0.930 . S
C2318 C2317 1.442 . S
C2318 C2319 1.381 . S
C2318 H2345 0.931 . S
C2319 C2318 1.381 . S
C2319 C2320 1.321 . S
C2320 C2319 1.321 . S
C2320 C2321 1.403 . S
C2320 H2346 0.934 . S
C2321 C2316 1.413 . S
C2321 C2320 1.403 . S
C2321 H2347 0.930 . S
C2322 O2336 1.275 . S
C2322 O2337 1.256 . S
C2323 O2338 1.259 . S
C2323 O2339 1.268 . S
C2324 Ho2313 2.811 . S
C2324 C2325 1.488 . S
C2324 O2340 1.215 . S
C2324 O2341 1.289 . S
C2325 C2324 1.488 . S
C2325 C2326 1.348 . S
C2325 C2330 1.413 . S
C2326 C2325 1.348 . S
C2326 C2327 1.442 . S
C2326 H2348 0.930 . S
C2327 C2326 1.442 . S
C2327 C2328 1.381 . S
C2327 H2349 0.931 . S
C2328 C2327 1.381 . S
C2328 C2329 1.321 . S
C2329 C2328 1.321 . S
C2329 C2330 1.403 . S
C2329 H2350 0.934 . S
C2330 C2325 1.413 . S
C2330 C2329 1.403 . S
C2330 H2351 0.930 . S
C2331 O2342 1.275 . S
C2331 O2343 1.256 . S
O2332 Ho2312 2.322 . S
O2332 C2314 1.259 . S
O2333 Ho2313 2.346 . S
O2333 C2314 1.268 . S
O2334 Ho2312 2.378 . S
O2334 C2315 1.215 . S
O2335 Ho2312 2.524 . S
O2335 C2315 1.289 . S
O2336 Ho2312 2.381 . S
O2336 C2322 1.275 . S
O2337 Ho2312 2.669 . S
O2337 Ho2313 2.305 . S
O2337 C2322 1.256 . S
O2338 Ho2313 2.322 . S
O2338 C2323 1.259 . S
O2339 Ho2312 2.346 . S
O2339 C2323 1.268 . S
O2340 Ho2313 2.378 . S
O2340 C2324 1.215 . S
O2341 Ho2313 2.524 . S
O2341 C2324 1.289 . S
O2342 Ho2313 2.381 . S
O2342 C2331 1.275 . S
O2343 Ho2312 2.305 . S
O2343 Ho2313 2.669 . S
O2343 C2331 1.256 . S
H2344 C2317 0.930 . S
H2345 C2318 0.931 . S
H2346 C2320 0.934 . S
H2347 C2321 0.930 . S
H2348 C2326 0.930 . S
H2349 C2327 0.931 . S
H2350 C2329 0.934 . S
H2351 C2330 0.930 . S
Ho2352 C2355 2.811 . S
Ho2352 O2372 2.322 . S
Ho2352 O2374 2.378 . S
Ho2352 O2375 2.524 . S
Ho2352 O2376 2.381 1_545 S
Ho2352 O2377 2.669 1_554 S
Ho2352 O2379 2.346 . S
Ho2352 O2383 2.305 . S
Ho2353 C2364 2.811 . S
Ho2353 O2373 2.346 . S
Ho2353 O2377 2.305 . S
Ho2353 O2378 2.322 . S
Ho2353 O2380 2.378 . S
Ho2353 O2381 2.524 . S
Ho2353 O2382 2.381 1_556 S
Ho2353 O2383 2.669 1_556 S
C2354 O2372 1.259 . S
C2354 O2373 1.268 1_554 S
C2355 Ho2352 2.811 . S
C2355 C2356 1.488 . S
C2355 O2374 1.215 . S
C2355 O2375 1.289 . S
C2356 C2355 1.488 . S
C2356 C2357 1.348 . S
C2356 C2361 1.413 1_545 S
C2357 C2356 1.348 . S
C2357 C2358 1.442 . S
C2357 H2384 0.930 . S
C2358 C2357 1.442 . S
C2358 C2359 1.381 1_545 S
C2358 H2385 0.931 . S
C2359 C2358 1.381 1_565 S
C2359 C2360 1.321 . S
C2360 C2359 1.321 . S
C2360 C2361 1.403 . S
C2360 H2386 0.934 . S
C2361 C2356 1.413 1_565 S
C2361 C2360 1.403 . S
C2361 H2387 0.930 . S
C2362 O2376 1.288 . S
C2362 O2377 1.252 1_564 S
C2363 O2378 1.259 1_554 S
C2363 O2379 1.268 . S
C2364 Ho2353 2.811 . S
C2364 C2365 1.488 . S
C2364 O2380 1.215 . S
C2364 O2381 1.289 . S
C2365 C2364 1.488 . S
C2365 C2366 1.348 . S
C2365 C2370 1.413 . S
C2366 C2365 1.348 . S
C2366 C2367 1.442 . S
C2366 H2388 0.930 . S
C2367 C2366 1.442 . S
C2367 C2368 1.381 . S
C2367 H2389 0.931 . S
C2368 C2367 1.381 . S
C2368 C2369 1.321 . S
C2369 C2368 1.321 . S
C2369 C2370 1.403 . S
C2369 H2390 0.934 . S
C2370 C2365 1.413 . S
C2370 C2369 1.403 . S
C2370 H2391 0.930 . S
C2371 O2382 1.275 . S
C2371 O2383 1.256 . S
O2372 Ho2352 2.322 . S
O2372 C2354 1.259 . S
O2373 Ho2353 2.346 . S
O2373 C2354 1.268 1_556 S
O2374 Ho2352 2.378 . S
O2374 C2355 1.215 . S
O2375 Ho2352 2.524 . S
O2375 C2355 1.289 . S
O2376 Ho2352 2.381 1_565 S
O2376 C2362 1.288 . S
O2377 Ho2352 2.669 1_556 S
O2377 Ho2353 2.305 . S
O2377 C2362 1.252 1_546 S
O2378 Ho2353 2.322 . S
O2378 C2363 1.259 1_556 S
O2379 Ho2352 2.346 . S
O2379 C2363 1.268 . S
O2380 Ho2353 2.378 . S
O2380 C2364 1.215 . S
O2381 Ho2353 2.524 . S
O2381 C2364 1.289 . S
O2382 Ho2353 2.381 1_554 S
O2382 C2371 1.275 . S
O2383 Ho2352 2.305 . S
O2383 Ho2353 2.669 1_554 S
O2383 C2371 1.256 . S
H2384 C2357 0.930 . S
H2385 C2358 0.931 . S
H2386 C2360 0.934 . S
H2387 C2361 0.930 . S
H2388 C2366 0.930 . S
H2389 C2367 0.931 . S
H2390 C2369 0.934 . S
H2391 C2370 0.930 . S
Ho2392 C2395 2.811 . S
Ho2392 O2412 2.322 . S
Ho2392 O2414 2.378 . S
Ho2392 O2415 2.524 . S
Ho2392 O2416 2.381 . S
Ho2392 O2417 2.669 . S
Ho2392 O2419 2.346 . S
Ho2392 O2423 2.305 . S
Ho2393 C2404 2.811 . S
Ho2393 O2413 2.346 . S
Ho2393 O2417 2.305 . S
Ho2393 O2418 2.322 . S
Ho2393 O2420 2.378 . S
Ho2393 O2421 2.524 . S
Ho2393 O2422 2.381 . S
Ho2393 O2423 2.669 . S
C2394 O2412 1.259 . S
C2394 O2413 1.268 . S
C2395 Ho2392 2.811 . S
C2395 C2396 1.488 . S
C2395 O2414 1.215 . S
C2395 O2415 1.289 . S
C2396 C2395 1.488 . S
C2396 C2397 1.348 . S
C2396 C2401 1.413 . S
C2397 C2396 1.348 . S
C2397 C2398 1.442 . S
C2397 H2424 0.930 . S
C2398 C2397 1.442 . S
C2398 C2399 1.381 . S
C2398 H2425 0.931 . S
C2399 C2398 1.381 . S
C2399 C2400 1.321 . S
C2400 C2399 1.321 . S
C2400 C2401 1.403 . S
C2400 H2426 0.934 . S
C2401 C2396 1.413 . S
C2401 C2400 1.403 . S
C2401 H2427 0.930 . S
C2402 O2416 1.275 . S
C2402 O2417 1.256 . S
C2403 O2418 1.259 . S
C2403 O2419 1.268 . S
C2404 Ho2393 2.811 . S
C2404 C2405 1.488 . S
C2404 O2420 1.215 . S
C2404 O2421 1.289 . S
C2405 C2404 1.488 . S
C2405 C2406 1.348 . S
C2405 C2410 1.413 . S
C2406 C2405 1.348 . S
C2406 C2407 1.442 . S
C2406 H2428 0.930 . S
C2407 C2406 1.442 . S
C2407 C2408 1.381 . S
C2407 H2429 0.931 . S
C2408 C2407 1.381 . S
C2408 C2409 1.321 . S
C2409 C2408 1.321 . S
C2409 C2410 1.403 . S
C2409 H2430 0.934 . S
C2410 C2405 1.413 . S
C2410 C2409 1.403 . S
C2410 H2431 0.930 . S
C2411 O2422 1.275 . S
C2411 O2423 1.256 . S
O2412 Ho2392 2.322 . S
O2412 C2394 1.259 . S
O2413 Ho2393 2.346 . S
O2413 C2394 1.268 . S
O2414 Ho2392 2.378 . S
O2414 C2395 1.215 . S
O2415 Ho2392 2.524 . S
O2415 C2395 1.289 . S
O2416 Ho2392 2.381 . S
O2416 C2402 1.275 . S
O2417 Ho2392 2.669 . S
O2417 Ho2393 2.305 . S
O2417 C2402 1.256 . S
O2418 Ho2393 2.322 . S
O2418 C2403 1.259 . S
O2419 Ho2392 2.346 . S
O2419 C2403 1.268 . S
O2420 Ho2393 2.378 . S
O2420 C2404 1.215 . S
O2421 Ho2393 2.524 . S
O2421 C2404 1.289 . S
O2422 Ho2393 2.381 . S
O2422 C2411 1.275 . S
O2423 Ho2392 2.305 . S
O2423 Ho2393 2.669 . S
O2423 C2411 1.256 . S
H2424 C2397 0.930 . S
H2425 C2398 0.931 . S
H2426 C2400 0.934 . S
H2427 C2401 0.930 . S
H2428 C2406 0.930 . S
H2429 C2407 0.931 . S
H2430 C2409 0.934 . S
H2431 C2410 0.930 . S
Ho2432 C2435 2.797 1_554 S
Ho2432 O2452 2.322 1_554 S
Ho2432 O2454 2.378 . S
Ho2432 O2455 2.524 1_554 S
Ho2432 O2456 2.381 . S
Ho2432 O2457 2.669 . S
Ho2432 O2459 2.346 . S
Ho2432 O2463 2.305 . S
Ho2433 C2444 2.811 . S
Ho2433 O2453 2.346 1_554 S
Ho2433 O2457 2.305 . S
Ho2433 O2458 2.322 . S
Ho2433 O2460 2.378 . S
Ho2433 O2461 2.524 . S
Ho2433 O2462 2.381 . S
Ho2433 O2463 2.669 . S
C2434 O2452 1.259 . S
C2434 O2453 1.268 . S
C2435 Ho2432 2.797 1_556 S
C2435 C2436 1.503 . S
C2435 O2454 1.199 1_556 S
C2435 O2455 1.293 . S
C2436 C2435 1.503 . S
C2436 C2437 1.348 . S
C2436 C2441 1.413 . S
C2437 C2436 1.348 . S
C2437 C2438 1.442 . S
C2437 H2464 0.930 . S
C2438 C2437 1.442 . S
C2438 C2439 1.381 . S
C2438 H2465 0.931 . S
C2439 C2438 1.381 . S
C2439 C2440 1.321 . S
C2440 C2439 1.321 . S
C2440 C2441 1.403 . S
C2440 H2466 0.934 . S
C2441 C2436 1.413 . S
C2441 C2440 1.403 . S
C2441 H2467 0.930 . S
C2442 O2456 1.275 . S
C2442 O2457 1.256 . S
C2443 O2458 1.259 . S
C2443 O2459 1.268 . S
C2444 Ho2433 2.811 . S
C2444 C2445 1.488 . S
C2444 O2460 1.215 . S
C2444 O2461 1.289 . S
C2445 C2444 1.488 . S
C2445 C2446 1.348 . S
C2445 C2450 1.413 . S
C2446 C2445 1.348 . S
C2446 C2447 1.442 . S
C2446 H2468 0.930 . S
C2447 C2446 1.442 . S
C2447 C2448 1.381 . S
C2447 H2469 0.931 . S
C2448 C2447 1.381 . S
C2448 C2449 1.321 . S
C2449 C2448 1.321 . S
C2449 C2450 1.403 . S
C2449 H2470 0.934 . S
C2450 C2445 1.413 . S
C2450 C2449 1.403 . S
C2450 H2471 0.930 . S
C2451 O2462 1.275 . S
C2451 O2463 1.256 . S
O2452 Ho2432 2.322 1_556 S
O2452 C2434 1.259 . S
O2453 Ho2433 2.346 1_556 S
O2453 C2434 1.268 . S
O2454 Ho2432 2.378 . S
O2454 C2435 1.199 1_554 S
O2455 Ho2432 2.524 1_556 S
O2455 C2435 1.293 . S
O2456 Ho2432 2.381 . S
O2456 C2442 1.275 . S
O2457 Ho2432 2.669 . S
O2457 Ho2433 2.305 . S
O2457 C2442 1.256 . S
O2458 Ho2433 2.322 . S
O2458 C2443 1.259 . S
O2459 Ho2432 2.346 . S
O2459 C2443 1.268 . S
O2460 Ho2433 2.378 . S
O2460 C2444 1.215 . S
O2461 Ho2433 2.524 . S
O2461 C2444 1.289 . S
O2462 Ho2433 2.381 . S
O2462 C2451 1.275 . S
O2463 Ho2432 2.305 . S
O2463 Ho2433 2.669 . S
O2463 C2451 1.256 . S
H2464 C2437 0.930 . S
H2465 C2438 0.931 . S
H2466 C2440 0.934 . S
H2467 C2441 0.930 . S
H2468 C2446 0.930 . S
H2469 C2447 0.931 . S
H2470 C2449 0.934 . S
H2471 C2450 0.930 . S
Ho2472 C2475 2.811 . S
Ho2472 O2492 2.322 . S
Ho2472 O2494 2.378 . S
Ho2472 O2495 2.524 . S
Ho2472 O2496 2.381 . S
Ho2472 O2497 2.669 . S
Ho2472 O2499 2.346 . S
Ho2472 O2503 2.305 . S
Ho2473 C2484 2.811 . S
Ho2473 O2493 2.346 . S
Ho2473 O2497 2.305 . S
Ho2473 O2498 2.322 . S
Ho2473 O2500 2.378 . S
Ho2473 O2501 2.524 . S
Ho2473 O2502 2.381 . S
Ho2473 O2503 2.669 . S
C2474 O2492 1.259 . S
C2474 O2493 1.268 . S
C2475 Ho2472 2.811 . S
C2475 C2476 1.488 . S
C2475 O2494 1.215 . S
C2475 O2495 1.289 . S
C2476 C2475 1.488 . S
C2476 C2477 1.348 . S
C2476 C2481 1.413 . S
C2477 C2476 1.348 . S
C2477 C2478 1.442 . S
C2477 H2504 0.930 . S
C2478 C2477 1.442 . S
C2478 C2479 1.381 . S
C2478 H2505 0.931 . S
C2479 C2478 1.381 . S
C2479 C2480 1.321 . S
C2480 C2479 1.321 . S
C2480 C2481 1.403 . S
C2480 H2506 0.934 . S
C2481 C2476 1.413 . S
C2481 C2480 1.403 . S
C2481 H2507 0.930 . S
C2482 O2496 1.275 . S
C2482 O2497 1.256 . S
C2483 O2498 1.259 . S
C2483 O2499 1.268 . S
C2484 Ho2473 2.811 . S
C2484 C2485 1.488 . S
C2484 O2500 1.215 . S
C2484 O2501 1.289 . S
C2485 C2484 1.488 . S
C2485 C2486 1.348 . S
C2485 C2490 1.413 . S
C2486 C2485 1.348 . S
C2486 C2487 1.442 . S
C2486 H2508 0.930 . S
C2487 C2486 1.442 . S
C2487 C2488 1.381 . S
C2487 H2509 0.931 . S
C2488 C2487 1.381 . S
C2488 C2489 1.321 . S
C2489 C2488 1.321 . S
C2489 C2490 1.403 . S
C2489 H2510 0.934 . S
C2490 C2485 1.413 . S
C2490 C2489 1.403 . S
C2490 H2511 0.930 . S
C2491 O2502 1.275 . S
C2491 O2503 1.256 . S
O2492 Ho2472 2.322 . S
O2492 C2474 1.259 . S
O2493 Ho2473 2.346 . S
O2493 C2474 1.268 . S
O2494 Ho2472 2.378 . S
O2494 C2475 1.215 . S
O2495 Ho2472 2.524 . S
O2495 C2475 1.289 . S
O2496 Ho2472 2.381 . S
O2496 C2482 1.275 . S
O2497 Ho2472 2.669 . S
O2497 Ho2473 2.305 . S
O2497 C2482 1.256 . S
O2498 Ho2473 2.322 . S
O2498 C2483 1.259 . S
O2499 Ho2472 2.346 . S
O2499 C2483 1.268 . S
O2500 Ho2473 2.378 . S
O2500 C2484 1.215 . S
O2501 Ho2473 2.524 . S
O2501 C2484 1.289 . S
O2502 Ho2473 2.381 . S
O2502 C2491 1.275 . S
O2503 Ho2472 2.305 . S
O2503 Ho2473 2.669 . S
O2503 C2491 1.256 . S
H2504 C2477 0.930 . S
H2505 C2478 0.931 . S
H2506 C2480 0.934 . S
H2507 C2481 0.930 . S
H2508 C2486 0.930 . S
H2509 C2487 0.931 . S
H2510 C2489 0.934 . S
H2511 C2490 0.930 . S
Ho2512 C2515 2.811 . S
Ho2512 O2532 2.322 . S
Ho2512 O2534 2.378 . S
Ho2512 O2535 2.524 . S
Ho2512 O2536 2.381 . S
Ho2512 O2537 2.669 . S
Ho2512 O2539 2.346 . S
Ho2512 O2543 2.305 . S
Ho2513 C2524 2.811 . S
Ho2513 O2533 2.346 . S
Ho2513 O2537 2.305 . S
Ho2513 O2538 2.322 . S
Ho2513 O2540 2.378 . S
Ho2513 O2541 2.524 . S
Ho2513 O2542 2.381 . S
Ho2513 O2543 2.669 . S
C2514 O2532 1.259 . S
C2514 O2533 1.268 . S
C2515 Ho2512 2.811 . S
C2515 C2516 1.488 . S
C2515 O2534 1.215 . S
C2515 O2535 1.289 . S
C2516 C2515 1.488 . S
C2516 C2517 1.337 1_455 S
C2516 C2521 1.413 . S
C2517 C2516 1.337 1_655 S
C2517 C2518 1.449 . S
C2517 H2544 0.934 . S
C2518 C2517 1.449 . S
C2518 C2519 1.381 . S
C2518 H2545 0.931 . S
C2519 C2518 1.381 . S
C2519 C2520 1.321 1_655 S
C2520 C2519 1.321 1_455 S
C2520 C2521 1.403 . S
C2520 H2546 0.934 . S
C2521 C2516 1.413 . S
C2521 C2520 1.403 . S
C2521 H2547 0.930 . S
C2522 O2536 1.275 . S
C2522 O2537 1.256 . S
C2523 O2538 1.259 . S
C2523 O2539 1.268 . S
C2524 Ho2513 2.811 . S
C2524 C2525 1.488 . S
C2524 O2540 1.215 . S
C2524 O2541 1.289 . S
C2525 C2524 1.488 . S
C2525 C2526 1.348 . S
C2525 C2530 1.413 . S
C2526 C2525 1.348 . S
C2526 C2527 1.442 . S
C2526 H2548 0.930 . S
C2527 C2526 1.442 . S
C2527 C2528 1.381 . S
C2527 H2549 0.931 . S
C2528 C2527 1.381 . S
C2528 C2529 1.321 . S
C2529 C2528 1.321 . S
C2529 C2530 1.403 . S
C2529 H2550 0.934 . S
C2530 C2525 1.413 . S
C2530 C2529 1.403 . S
C2530 H2551 0.930 . S
C2531 O2542 1.275 . S
C2531 O2543 1.256 . S
O2532 Ho2512 2.322 . S
O2532 C2514 1.259 . S
O2533 Ho2513 2.346 . S
O2533 C2514 1.268 . S
O2534 Ho2512 2.378 . S
O2534 C2515 1.215 . S
O2535 Ho2512 2.524 . S
O2535 C2515 1.289 . S
O2536 Ho2512 2.381 . S
O2536 C2522 1.275 . S
O2537 Ho2512 2.669 . S
O2537 Ho2513 2.305 . S
O2537 C2522 1.256 . S
O2538 Ho2513 2.322 . S
O2538 C2523 1.259 . S
O2539 Ho2512 2.346 . S
O2539 C2523 1.268 . S
O2540 Ho2513 2.378 . S
O2540 C2524 1.215 . S
O2541 Ho2513 2.524 . S
O2541 C2524 1.289 . S
O2542 Ho2513 2.381 . S
O2542 C2531 1.275 . S
O2543 Ho2512 2.305 . S
O2543 Ho2513 2.669 . S
O2543 C2531 1.256 . S
H2544 C2517 0.934 . S
H2545 C2518 0.931 . S
H2546 C2520 0.934 . S
H2547 C2521 0.930 . S
H2548 C2526 0.930 . S
H2549 C2527 0.931 . S
H2550 C2529 0.934 . S
H2551 C2530 0.930 . S
Ho2552 C2555 2.811 . S
Ho2552 O2572 2.322 . S
Ho2552 O2574 2.378 . S
Ho2552 O2575 2.524 . S
Ho2552 O2576 2.381 . S
Ho2552 O2577 2.669 . S
Ho2552 O2579 2.346 . S
Ho2552 O2583 2.305 . S
Ho2553 C2564 2.811 . S
Ho2553 O2573 2.346 . S
Ho2553 O2577 2.305 . S
Ho2553 O2578 2.322 . S
Ho2553 O2580 2.378 . S
Ho2553 O2581 2.524 . S
Ho2553 O2582 2.381 . S
Ho2553 O2583 2.669 . S
C2554 O2572 1.259 . S
C2554 O2573 1.268 . S
C2555 Ho2552 2.811 . S
C2555 C2556 1.488 . S
C2555 O2574 1.215 . S
C2555 O2575 1.289 . S
C2556 C2555 1.488 . S
C2556 C2557 1.348 . S
C2556 C2561 1.413 . S
C2557 C2556 1.348 . S
C2557 C2558 1.442 . S
C2557 H2584 0.930 . S
C2558 C2557 1.442 . S
C2558 C2559 1.381 . S
C2558 H2585 0.931 . S
C2559 C2558 1.381 . S
C2559 C2560 1.321 . S
C2560 C2559 1.321 . S
C2560 C2561 1.403 . S
C2560 H2586 0.934 . S
C2561 C2556 1.413 . S
C2561 C2560 1.403 . S
C2561 H2587 0.930 . S
C2562 O2576 1.275 . S
C2562 O2577 1.256 . S
C2563 O2578 1.259 . S
C2563 O2579 1.268 . S
C2564 Ho2553 2.811 . S
C2564 C2565 1.488 . S
C2564 O2580 1.215 . S
C2564 O2581 1.289 . S
C2565 C2564 1.488 . S
C2565 C2566 1.348 . S
C2565 C2570 1.413 . S
C2566 C2565 1.348 . S
C2566 C2567 1.442 . S
C2566 H2588 0.930 . S
C2567 C2566 1.442 . S
C2567 C2568 1.381 . S
C2567 H2589 0.931 . S
C2568 C2567 1.381 . S
C2568 C2569 1.321 . S
C2569 C2568 1.321 . S
C2569 C2570 1.403 . S
C2569 H2590 0.934 . S
C2570 C2565 1.413 . S
C2570 C2569 1.403 . S
C2570 H2591 0.930 . S
C2571 O2582 1.275 . S
C2571 O2583 1.256 . S
O2572 Ho2552 2.322 . S
O2572 C2554 1.259 . S
O2573 Ho2553 2.346 . S
O2573 C2554 1.268 . S
O2574 Ho2552 2.378 . S
O2574 C2555 1.215 . S
O2575 Ho2552 2.524 . S
O2575 C2555 1.289 . S
O2576 Ho2552 2.381 . S
O2576 C2562 1.275 . S
O2577 Ho2552 2.669 . S
O2577 Ho2553 2.305 . S
O2577 C2562 1.256 . S
O2578 Ho2553 2.322 . S
O2578 C2563 1.259 . S
O2579 Ho2552 2.346 . S
O2579 C2563 1.268 . S
O2580 Ho2553 2.378 . S
O2580 C2564 1.215 . S
O2581 Ho2553 2.524 . S
O2581 C2564 1.289 . S
O2582 Ho2553 2.381 . S
O2582 C2571 1.275 . S
O2583 Ho2552 2.305 . S
O2583 Ho2553 2.669 . S
O2583 C2571 1.256 . S
H2584 C2557 0.930 . S
H2585 C2558 0.931 . S
H2586 C2560 0.934 . S
H2587 C2561 0.930 . S
H2588 C2566 0.930 . S
H2589 C2567 0.931 . S
H2590 C2569 0.934 . S
H2591 C2570 0.930 . S
Ho2592 C2595 2.811 . S
Ho2592 O2612 2.322 . S
Ho2592 O2614 2.378 . S
Ho2592 O2615 2.524 . S
Ho2592 O2616 2.381 . S
Ho2592 O2617 2.669 . S
Ho2592 O2619 2.346 . S
Ho2592 O2623 2.305 . S
Ho2593 C2604 2.811 . S
Ho2593 O2613 2.346 . S
Ho2593 O2617 2.305 . S
Ho2593 O2618 2.322 . S
Ho2593 O2620 2.378 . S
Ho2593 O2621 2.524 . S
Ho2593 O2622 2.381 . S
Ho2593 O2623 2.669 . S
C2594 O2612 1.259 . S
C2594 O2613 1.268 . S
C2595 Ho2592 2.811 . S
C2595 C2596 1.488 . S
C2595 O2614 1.215 . S
C2595 O2615 1.289 . S
C2596 C2595 1.488 . S
C2596 C2597 1.348 . S
C2596 C2601 1.413 . S
C2597 C2596 1.348 . S
C2597 C2598 1.442 . S
C2597 H2624 0.930 . S
C2598 C2597 1.442 . S
C2598 C2599 1.381 . S
C2598 H2625 0.931 . S
C2599 C2598 1.381 . S
C2599 C2600 1.321 . S
C2600 C2599 1.321 . S
C2600 C2601 1.403 . S
C2600 H2626 0.934 . S
C2601 C2596 1.413 . S
C2601 C2600 1.403 . S
C2601 H2627 0.930 . S
C2602 O2616 1.275 . S
C2602 O2617 1.256 . S
C2603 O2618 1.259 . S
C2603 O2619 1.268 . S
C2604 Ho2593 2.811 . S
C2604 C2605 1.488 . S
C2604 O2620 1.215 . S
C2604 O2621 1.289 . S
C2605 C2604 1.488 . S
C2605 C2606 1.348 . S
C2605 C2610 1.413 . S
C2606 C2605 1.348 . S
C2606 C2607 1.442 . S
C2606 H2628 0.930 . S
C2607 C2606 1.442 . S
C2607 C2608 1.381 . S
C2607 H2629 0.931 . S
C2608 C2607 1.381 . S
C2608 C2609 1.321 . S
C2609 C2608 1.321 . S
C2609 C2610 1.403 . S
C2609 H2630 0.934 . S
C2610 C2605 1.413 . S
C2610 C2609 1.403 . S
C2610 H2631 0.930 . S
C2611 O2622 1.275 . S
C2611 O2623 1.256 . S
O2612 Ho2592 2.322 . S
O2612 C2594 1.259 . S
O2613 Ho2593 2.346 . S
O2613 C2594 1.268 . S
O2614 Ho2592 2.378 . S
O2614 C2595 1.215 . S
O2615 Ho2592 2.524 . S
O2615 C2595 1.289 . S
O2616 Ho2592 2.381 . S
O2616 C2602 1.275 . S
O2617 Ho2592 2.669 . S
O2617 Ho2593 2.305 . S
O2617 C2602 1.256 . S
O2618 Ho2593 2.322 . S
O2618 C2603 1.259 . S
O2619 Ho2592 2.346 . S
O2619 C2603 1.268 . S
O2620 Ho2593 2.378 . S
O2620 C2604 1.215 . S
O2621 Ho2593 2.524 . S
O2621 C2604 1.289 . S
O2622 Ho2593 2.381 . S
O2622 C2611 1.275 . S
O2623 Ho2592 2.305 . S
O2623 Ho2593 2.669 . S
O2623 C2611 1.256 . S
H2624 C2597 0.930 . S
H2625 C2598 0.931 . S
H2626 C2600 0.934 . S
H2627 C2601 0.930 . S
H2628 C2606 0.930 . S
H2629 C2607 0.931 . S
H2630 C2609 0.934 . S
H2631 C2610 0.930 . S
Ho2632 C2635 2.811 . S
Ho2632 O2652 2.322 . S
Ho2632 O2654 2.378 . S
Ho2632 O2655 2.524 . S
Ho2632 O2656 2.381 . S
Ho2632 O2657 2.669 . S
Ho2632 O2659 2.346 . S
Ho2632 O2663 2.305 . S
Ho2633 C2644 2.811 . S
Ho2633 O2653 2.346 . S
Ho2633 O2657 2.305 . S
Ho2633 O2658 2.322 . S
Ho2633 O2660 2.378 . S
Ho2633 O2661 2.524 . S
Ho2633 O2662 2.381 . S
Ho2633 O2663 2.669 . S
C2634 O2652 1.259 . S
C2634 O2653 1.268 . S
C2635 Ho2632 2.811 . S
C2635 C2636 1.488 . S
C2635 O2654 1.215 . S
C2635 O2655 1.289 . S
C2636 C2635 1.488 . S
C2636 C2637 1.348 . S
C2636 C2641 1.413 . S
C2637 C2636 1.348 . S
C2637 C2638 1.442 . S
C2637 H2664 0.930 . S
C2638 C2637 1.442 . S
C2638 C2639 1.381 . S
C2638 H2665 0.931 . S
C2639 C2638 1.381 . S
C2639 C2640 1.321 . S
C2640 C2639 1.321 . S
C2640 C2641 1.403 . S
C2640 H2666 0.934 . S
C2641 C2636 1.413 . S
C2641 C2640 1.403 . S
C2641 H2667 0.930 . S
C2642 O2656 1.275 . S
C2642 O2657 1.256 . S
C2643 O2658 1.259 . S
C2643 O2659 1.268 . S
C2644 Ho2633 2.811 . S
C2644 C2645 1.488 . S
C2644 O2660 1.215 . S
C2644 O2661 1.289 . S
C2645 C2644 1.488 . S
C2645 C2646 1.348 . S
C2645 C2650 1.413 . S
C2646 C2645 1.348 . S
C2646 C2647 1.442 . S
C2646 H2668 0.930 . S
C2647 C2646 1.442 . S
C2647 C2648 1.381 . S
C2647 H2669 0.931 . S
C2648 C2647 1.381 . S
C2648 C2649 1.321 . S
C2649 C2648 1.321 . S
C2649 C2650 1.403 . S
C2649 H2670 0.934 . S
C2650 C2645 1.413 . S
C2650 C2649 1.403 . S
C2650 H2671 0.930 . S
C2651 O2662 1.275 . S
C2651 O2663 1.256 . S
O2652 Ho2632 2.322 . S
O2652 C2634 1.259 . S
O2653 Ho2633 2.346 . S
O2653 C2634 1.268 . S
O2654 Ho2632 2.378 . S
O2654 C2635 1.215 . S
O2655 Ho2632 2.524 . S
O2655 C2635 1.289 . S
O2656 Ho2632 2.381 . S
O2656 C2642 1.275 . S
O2657 Ho2632 2.669 . S
O2657 Ho2633 2.305 . S
O2657 C2642 1.256 . S
O2658 Ho2633 2.322 . S
O2658 C2643 1.259 . S
O2659 Ho2632 2.346 . S
O2659 C2643 1.268 . S
O2660 Ho2633 2.378 . S
O2660 C2644 1.215 . S
O2661 Ho2633 2.524 . S
O2661 C2644 1.289 . S
O2662 Ho2633 2.381 . S
O2662 C2651 1.275 . S
O2663 Ho2632 2.305 . S
O2663 Ho2633 2.669 . S
O2663 C2651 1.256 . S
H2664 C2637 0.930 . S
H2665 C2638 0.931 . S
H2666 C2640 0.934 . S
H2667 C2641 0.930 . S
H2668 C2646 0.930 . S
H2669 C2647 0.931 . S
H2670 C2649 0.934 . S
H2671 C2650 0.930 . S
Ho2672 C2675 2.811 . S
Ho2672 O2692 2.322 . S
Ho2672 O2694 2.378 . S
Ho2672 O2695 2.524 . S
Ho2672 O2696 2.381 . S
Ho2672 O2697 2.669 . S
Ho2672 O2699 2.346 . S
Ho2672 O2703 2.305 . S
Ho2673 C2684 2.811 . S
Ho2673 O2693 2.346 . S
Ho2673 O2697 2.305 . S
Ho2673 O2698 2.322 . S
Ho2673 O2700 2.378 . S
Ho2673 O2701 2.524 . S
Ho2673 O2702 2.381 . S
Ho2673 O2703 2.669 . S
C2674 O2692 1.259 . S
C2674 O2693 1.268 . S
C2675 Ho2672 2.811 . S
C2675 C2676 1.488 . S
C2675 O2694 1.215 . S
C2675 O2695 1.289 . S
C2676 C2675 1.488 . S
C2676 C2677 1.348 . S
C2676 C2681 1.413 . S
C2677 C2676 1.348 . S
C2677 C2678 1.442 . S
C2677 H2704 0.930 . S
C2678 C2677 1.442 . S
C2678 C2679 1.381 . S
C2678 H2705 0.931 . S
C2679 C2678 1.381 . S
C2679 C2680 1.321 . S
C2680 C2679 1.321 . S
C2680 C2681 1.403 . S
C2680 H2706 0.934 . S
C2681 C2676 1.413 . S
C2681 C2680 1.403 . S
C2681 H2707 0.930 . S
C2682 O2696 1.275 . S
C2682 O2697 1.256 . S
C2683 O2698 1.259 . S
C2683 O2699 1.268 . S
C2684 Ho2673 2.811 . S
C2684 C2685 1.488 . S
C2684 O2700 1.215 . S
C2684 O2701 1.289 . S
C2685 C2684 1.488 . S
C2685 C2686 1.348 . S
C2685 C2690 1.413 . S
C2686 C2685 1.348 . S
C2686 C2687 1.442 . S
C2686 H2708 0.930 . S
C2687 C2686 1.442 . S
C2687 C2688 1.381 . S
C2687 H2709 0.931 . S
C2688 C2687 1.381 . S
C2688 C2689 1.321 . S
C2689 C2688 1.321 . S
C2689 C2690 1.403 . S
C2689 H2710 0.934 . S
C2690 C2685 1.413 . S
C2690 C2689 1.403 . S
C2690 H2711 0.930 . S
C2691 O2702 1.275 . S
C2691 O2703 1.256 . S
O2692 Ho2672 2.322 . S
O2692 C2674 1.259 . S
O2693 Ho2673 2.346 . S
O2693 C2674 1.268 . S
O2694 Ho2672 2.378 . S
O2694 C2675 1.215 . S
O2695 Ho2672 2.524 . S
O2695 C2675 1.289 . S
O2696 Ho2672 2.381 . S
O2696 C2682 1.275 . S
O2697 Ho2672 2.669 . S
O2697 Ho2673 2.305 . S
O2697 C2682 1.256 . S
O2698 Ho2673 2.322 . S
O2698 C2683 1.259 . S
O2699 Ho2672 2.346 . S
O2699 C2683 1.268 . S
O2700 Ho2673 2.378 . S
O2700 C2684 1.215 . S
O2701 Ho2673 2.524 . S
O2701 C2684 1.289 . S
O2702 Ho2673 2.381 . S
O2702 C2691 1.275 . S
O2703 Ho2672 2.305 . S
O2703 Ho2673 2.669 . S
O2703 C2691 1.256 . S
H2704 C2677 0.930 . S
H2705 C2678 0.931 . S
H2706 C2680 0.934 . S
H2707 C2681 0.930 . S
H2708 C2686 0.930 . S
H2709 C2687 0.931 . S
H2710 C2689 0.934 . S
H2711 C2690 0.930 . S
Ho2712 C2715 2.811 1_554 S
Ho2712 O2732 2.322 1_554 S
Ho2712 O2734 2.378 1_554 S
Ho2712 O2735 2.524 . S
Ho2712 O2736 2.381 1_554 S
Ho2712 O2737 2.669 1_554 S
Ho2712 O2739 2.346 . S
Ho2712 O2743 2.305 . S
Ho2713 C2724 2.811 1_455 S
Ho2713 O2733 2.346 . S
Ho2713 O2737 2.305 1_554 S
Ho2713 O2738 2.322 . S
Ho2713 O2740 2.378 1_455 S
Ho2713 O2741 2.524 1_455 S
Ho2713 O2742 2.381 . S
Ho2713 O2743 2.669 . S
C2714 O2732 1.259 1_554 S
C2714 O2733 1.268 . S
C2715 Ho2712 2.811 1_556 S
C2715 C2716 1.488 . S
C2715 O2734 1.215 . S
C2715 O2735 1.289 1_556 S
C2716 C2715 1.488 . S
C2716 C2717 1.348 1_556 S
C2716 C2721 1.413 . S
C2717 C2716 1.348 1_554 S
C2717 C2718 1.442 . S
C2717 H2744 0.930 . S
C2718 C2717 1.442 . S
C2718 C2719 1.381 1_554 S
C2718 H2745 0.931 . S
C2719 C2718 1.381 1_556 S
C2719 C2720 1.321 . S
C2720 C2719 1.321 . S
C2720 C2721 1.403 . S
C2720 H2746 0.934 . S
C2721 C2716 1.413 . S
C2721 C2720 1.403 . S
C2721 H2747 0.930 . S
C2722 O2736 1.275 . S
C2722 O2737 1.256 . S
C2723 O2738 1.259 . S
C2723 O2739 1.268 . S
C2724 Ho2713 2.811 1_655 S
C2724 C2725 1.488 . S
C2724 O2740 1.215 . S
C2724 O2741 1.289 . S
C2725 C2724 1.488 . S
C2725 C2726 1.348 . S
C2725 C2730 1.413 . S
C2726 C2725 1.348 . S
C2726 C2727 1.442 . S
C2726 H2748 0.930 . S
C2727 C2726 1.442 . S
C2727 C2728 1.381 . S
C2727 H2749 0.931 . S
C2728 C2727 1.381 . S
C2728 C2729 1.321 . S
C2729 C2728 1.321 . S
C2729 C2730 1.403 . S
C2729 H2750 0.934 . S
C2730 C2725 1.413 . S
C2730 C2729 1.403 . S
C2730 H2751 0.930 . S
C2731 O2742 1.275 . S
C2731 O2743 1.256 . S
O2732 Ho2712 2.322 1_556 S
O2732 C2714 1.259 1_556 S
O2733 Ho2713 2.346 . S
O2733 C2714 1.268 . S
O2734 Ho2712 2.378 1_556 S
O2734 C2715 1.215 . S
O2735 Ho2712 2.524 . S
O2735 C2715 1.289 1_554 S
O2736 Ho2712 2.381 1_556 S
O2736 C2722 1.275 . S
O2737 Ho2712 2.669 1_556 S
O2737 Ho2713 2.305 1_556 S
O2737 C2722 1.256 . S
O2738 Ho2713 2.322 . S
O2738 C2723 1.259 . S
O2739 Ho2712 2.346 . S
O2739 C2723 1.268 . S
O2740 Ho2713 2.378 1_655 S
O2740 C2724 1.215 . S
O2741 Ho2713 2.524 1_655 S
O2741 C2724 1.289 . S
O2742 Ho2713 2.381 . S
O2742 C2731 1.275 . S
O2743 Ho2712 2.305 . S
O2743 Ho2713 2.669 . S
O2743 C2731 1.256 . S
H2744 C2717 0.930 . S
H2745 C2718 0.931 . S
H2746 C2720 0.934 . S
H2747 C2721 0.930 . S
H2748 C2726 0.930 . S
H2749 C2727 0.931 . S
H2750 C2729 0.934 . S
H2751 C2730 0.930 . S
H2752 C2760 0.950 1_655 S
H2753 C2765 0.950 . S
H2754 C2762 0.950 1_554 S
H2755 C2764 0.950 . S
H2756 C2766 0.950 . S
H2757 C2768 0.950 . S
H2758 C2770 0.950 . S
H2759 C2771 0.950 . S
C2760 H2752 0.950 1_455 S
C2760 C2761 1.386 . S
C2760 C2762 1.391 . S
C2761 C2760 1.386 . S
C2761 C2765 1.393 . S
C2762 H2754 0.950 1_556 S
C2762 C2760 1.391 . S
C2762 C2763 1.400 . S
C2763 C2762 1.400 . S
C2763 C2764 1.398 . S
C2763 C2769 1.491 . S
C2764 H2755 0.950 . S
C2764 C2763 1.398 . S
C2764 C2765 1.391 . S
C2765 H2753 0.950 . S
C2765 C2761 1.393 . S
C2765 C2764 1.391 . S
C2766 H2756 0.950 . S
C2766 C2767 1.395 . S
C2766 C2768 1.391 . S
C2767 C2766 1.395 . S
C2767 C2771 1.387 1_556 S
C2768 H2757 0.950 . S
C2768 C2766 1.391 . S
C2768 C2769 1.400 . S
C2769 C2763 1.491 . S
C2769 C2768 1.400 . S
C2769 C2770 1.398 1_556 S
C2770 H2758 0.950 . S
C2770 C2769 1.398 1_554 S
C2770 C2771 1.391 . S
C2771 H2759 0.950 . S
C2771 C2767 1.387 1_554 S
C2771 C2770 1.391 . S
H2772 C2780 0.950 . S
H2773 C2785 0.950 . S
H2774 C2782 0.950 . S
H2775 C2784 0.950 . S
H2776 C2786 0.950 . S
H2777 C2788 0.950 . S
H2778 C2790 0.950 . S
H2779 C2791 0.950 . S
C2780 H2772 0.950 . S
C2780 C2781 1.386 . S
C2780 C2782 1.391 . S
C2781 C2780 1.386 . S
C2781 C2785 1.393 . S
C2782 H2774 0.950 . S
C2782 C2780 1.391 . S
C2782 C2783 1.400 . S
C2783 C2782 1.400 . S
C2783 C2784 1.398 . S
C2783 C2789 1.491 . S
C2784 H2775 0.950 . S
C2784 C2783 1.398 . S
C2784 C2785 1.391 . S
C2785 H2773 0.950 . S
C2785 C2781 1.393 . S
C2785 C2784 1.391 . S
C2786 H2776 0.950 . S
C2786 C2787 1.386 . S
C2786 C2788 1.391 . S
C2787 C2786 1.386 . S
C2787 C2791 1.393 . S
C2788 H2777 0.950 . S
C2788 C2786 1.391 . S
C2788 C2789 1.400 . S
C2789 C2783 1.491 . S
C2789 C2788 1.400 . S
C2789 C2790 1.398 . S
C2790 H2778 0.950 . S
C2790 C2789 1.398 . S
C2790 C2791 1.391 . S
C2791 H2779 0.950 . S
C2791 C2787 1.393 . S
C2791 C2790 1.391 . S
H2792 C2800 0.950 . S
H2793 C2805 0.950 . S
H2794 C2802 0.950 . S
H2795 C2804 0.950 . S
H2796 C2806 0.950 . S
H2797 C2808 0.950 . S
H2798 C2810 0.950 . S
H2799 C2811 0.950 . S
C2800 H2792 0.950 . S
C2800 C2801 1.386 . S
C2800 C2802 1.391 . S
C2801 C2800 1.386 . S
C2801 C2805 1.393 . S
C2802 H2794 0.950 . S
C2802 C2800 1.391 . S
C2802 C2803 1.400 . S
C2803 C2802 1.400 . S
C2803 C2804 1.398 . S
C2803 C2809 1.491 . S
C2804 H2795 0.950 . S
C2804 C2803 1.398 . S
C2804 C2805 1.391 . S
C2805 H2793 0.950 . S
C2805 C2801 1.393 . S
C2805 C2804 1.391 . S
C2806 H2796 0.950 . S
C2806 C2807 1.386 . S
C2806 C2808 1.391 . S
C2807 C2806 1.386 . S
C2807 C2811 1.393 . S
C2808 H2797 0.950 . S
C2808 C2806 1.391 . S
C2808 C2809 1.400 . S
C2809 C2803 1.491 . S
C2809 C2808 1.400 . S
C2809 C2810 1.398 . S
C2810 H2798 0.950 . S
C2810 C2809 1.398 . S
C2810 C2811 1.391 . S
C2811 H2799 0.950 . S
C2811 C2807 1.393 . S
C2811 C2810 1.391 . S
H2812 C2820 0.950 . S
H2813 C2825 0.950 . S
H2814 C2822 0.950 . S
H2815 C2824 0.950 . S
H2816 C2826 0.950 . S
H2817 C2828 0.950 . S
H2818 C2830 0.950 . S
H2819 C2831 0.950 . S
C2820 H2812 0.950 . S
C2820 C2821 1.386 . S
C2820 C2822 1.391 . S
C2821 C2820 1.386 . S
C2821 C2825 1.393 . S
C2822 H2814 0.950 . S
C2822 C2820 1.391 . S
C2822 C2823 1.400 . S
C2823 C2822 1.400 . S
C2823 C2824 1.398 . S
C2823 C2829 1.491 . S
C2824 H2815 0.950 . S
C2824 C2823 1.398 . S
C2824 C2825 1.391 . S
C2825 H2813 0.950 . S
C2825 C2821 1.393 . S
C2825 C2824 1.391 . S
C2826 H2816 0.950 . S
C2826 C2827 1.386 . S
C2826 C2828 1.391 . S
C2827 C2826 1.386 . S
C2827 C2831 1.393 . S
C2828 H2817 0.950 . S
C2828 C2826 1.391 . S
C2828 C2829 1.400 . S
C2829 C2823 1.491 . S
C2829 C2828 1.400 . S
C2829 C2830 1.398 . S
C2830 H2818 0.950 . S
C2830 C2829 1.398 . S
C2830 C2831 1.391 . S
C2831 H2819 0.950 . S
C2831 C2827 1.393 . S
C2831 C2830 1.391 . S
H2832 C2840 0.950 . S
H2833 C2845 0.950 . S
H2834 C2842 0.958 . S
H2835 C2844 0.950 . S
H2836 C2846 0.950 . S
H2837 C2848 0.950 . S
H2838 C2850 0.950 . S
H2839 C2851 0.950 . S
C2840 H2832 0.950 . S
C2840 C2841 1.386 1_655 S
C2840 C2842 1.391 1_655 S
C2841 C2840 1.386 1_455 S
C2841 C2845 1.393 . S
C2842 H2834 0.958 . S
C2842 C2840 1.391 1_455 S
C2842 C2843 1.400 . S
C2843 C2842 1.400 . S
C2843 C2844 1.398 . S
C2843 C2849 1.491 . S
C2844 H2835 0.950 . S
C2844 C2843 1.398 . S
C2844 C2845 1.391 . S
C2845 H2833 0.950 . S
C2845 C2841 1.393 . S
C2845 C2844 1.391 . S
C2846 H2836 0.950 . S
C2846 C2847 1.386 . S
C2846 C2848 1.391 . S
C2847 C2846 1.386 . S
C2847 C2851 1.393 . S
C2848 H2837 0.950 . S
C2848 C2846 1.391 . S
C2848 C2849 1.400 . S
C2849 C2843 1.491 . S
C2849 C2848 1.400 . S
C2849 C2850 1.398 . S
C2850 H2838 0.950 . S
C2850 C2849 1.398 . S
C2850 C2851 1.391 . S
C2851 H2839 0.950 . S
C2851 C2847 1.393 . S
C2851 C2850 1.391 . S
H2852 C2860 0.950 . S
H2853 C2865 0.950 . S
H2854 C2862 0.950 . S
H2855 C2864 0.950 . S
H2856 C2866 0.950 . S
H2857 C2868 0.950 . S
H2858 C2870 0.950 . S
H2859 C2871 0.950 . S
C2860 H2852 0.950 . S
C2860 C2861 1.386 . S
C2860 C2862 1.391 . S
C2861 C2860 1.386 . S
C2861 C2865 1.393 . S
C2862 H2854 0.950 . S
C2862 C2860 1.391 . S
C2862 C2863 1.400 . S
C2863 C2862 1.400 . S
C2863 C2864 1.398 . S
C2863 C2869 1.491 . S
C2864 H2855 0.950 . S
C2864 C2863 1.398 . S
C2864 C2865 1.391 . S
C2865 H2853 0.950 . S
C2865 C2861 1.393 . S
C2865 C2864 1.391 . S
C2866 H2856 0.950 . S
C2866 C2867 1.386 . S
C2866 C2868 1.391 . S
C2867 C2866 1.386 . S
C2867 C2871 1.393 . S
C2868 H2857 0.950 . S
C2868 C2866 1.391 . S
C2868 C2869 1.400 . S
C2869 C2863 1.491 . S
C2869 C2868 1.400 . S
C2869 C2870 1.398 . S
C2870 H2858 0.950 . S
C2870 C2869 1.398 . S
C2870 C2871 1.391 . S
C2871 H2859 0.950 . S
C2871 C2867 1.393 . S
C2871 C2870 1.391 . S
H2872 C2880 0.950 . S
H2873 C2885 0.950 . S
H2874 C2882 0.950 . S
H2875 C2884 0.950 . S
H2876 C2886 0.950 . S
H2877 C2888 0.950 . S
H2878 C2890 0.950 . S
H2879 C2891 0.950 . S
C2880 H2872 0.950 . S
C2880 C2881 1.386 . S
C2880 C2882 1.391 . S
C2881 C2880 1.386 . S
C2881 C2885 1.393 . S
C2882 H2874 0.950 . S
C2882 C2880 1.391 . S
C2882 C2883 1.400 . S
C2883 C2882 1.400 . S
C2883 C2884 1.398 . S
C2883 C2889 1.491 . S
C2884 H2875 0.950 . S
C2884 C2883 1.398 . S
C2884 C2885 1.391 . S
C2885 H2873 0.950 . S
C2885 C2881 1.393 . S
C2885 C2884 1.391 . S
C2886 H2876 0.950 . S
C2886 C2887 1.386 . S
C2886 C2888 1.391 . S
C2887 C2886 1.386 . S
C2887 C2891 1.393 . S
C2888 H2877 0.950 . S
C2888 C2886 1.391 . S
C2888 C2889 1.400 . S
C2889 C2883 1.491 . S
C2889 C2888 1.400 . S
C2889 C2890 1.398 . S
C2890 H2878 0.950 . S
C2890 C2889 1.398 . S
C2890 C2891 1.391 . S
C2891 H2879 0.950 . S
C2891 C2887 1.393 . S
C2891 C2890 1.391 . S
H2892 C2900 0.950 . S
H2893 C2905 0.950 . S
H2894 C2902 0.950 . S
H2895 C2904 0.950 . S
H2896 C2906 0.950 . S
H2897 C2908 0.950 . S
H2898 C2910 0.950 . S
H2899 C2911 0.950 . S
C2900 H2892 0.950 . S
C2900 C2901 1.386 . S
C2900 C2902 1.391 . S
C2901 C2900 1.386 . S
C2901 C2905 1.393 . S
C2902 H2894 0.950 . S
C2902 C2900 1.391 . S
C2902 C2903 1.400 . S
C2903 C2902 1.400 . S
C2903 C2904 1.398 . S
C2903 C2909 1.491 . S
C2904 H2895 0.950 . S
C2904 C2903 1.398 . S
C2904 C2905 1.391 . S
C2905 H2893 0.950 . S
C2905 C2901 1.393 . S
C2905 C2904 1.391 . S
C2906 H2896 0.950 . S
C2906 C2907 1.386 . S
C2906 C2908 1.391 . S
C2907 C2906 1.386 . S
C2907 C2911 1.393 . S
C2908 H2897 0.950 . S
C2908 C2906 1.391 . S
C2908 C2909 1.400 . S
C2909 C2903 1.491 . S
C2909 C2908 1.400 . S
C2909 C2910 1.398 . S
C2910 H2898 0.950 . S
C2910 C2909 1.398 . S
C2910 C2911 1.391 . S
C2911 H2899 0.950 . S
C2911 C2907 1.393 . S
C2911 C2910 1.391 . S
H2912 C2920 0.950 . S
H2913 C2925 0.950 . S
H2914 C2922 0.950 . S
H2915 C2924 0.950 . S
H2916 C2926 0.950 . S
H2917 C2928 0.950 . S
H2918 C2930 0.950 1_655 S
H2919 C2931 0.950 . S
C2920 H2912 0.950 . S
C2920 C2921 1.386 . S
C2920 C2922 1.391 . S
C2921 C2920 1.386 . S
C2921 C2925 1.393 1_655 S
C2922 H2914 0.950 . S
C2922 C2920 1.391 . S
C2922 C2923 1.400 1_655 S
C2923 C2922 1.400 1_455 S
C2923 C2924 1.398 . S
C2923 C2929 1.491 . S
C2924 H2915 0.950 . S
C2924 C2923 1.398 . S
C2924 C2925 1.391 . S
C2925 H2913 0.950 . S
C2925 C2921 1.393 1_455 S
C2925 C2924 1.391 . S
C2926 H2916 0.950 . S
C2926 C2927 1.386 . S
C2926 C2928 1.391 . S
C2927 C2926 1.386 . S
C2927 C2931 1.393 . S
C2928 H2917 0.950 . S
C2928 C2926 1.391 . S
C2928 C2929 1.400 . S
C2929 C2923 1.491 . S
C2929 C2928 1.400 . S
C2929 C2930 1.398 . S
C2930 H2918 0.950 1_455 S
C2930 C2929 1.398 . S
C2930 C2931 1.391 . S
C2931 H2919 0.950 . S
C2931 C2927 1.393 . S
C2931 C2930 1.391 . S
H2932 C2940 0.950 . S
H2933 C2945 0.950 . S
H2934 C2942 0.950 . S
H2935 C2944 0.950 . S
H2936 C2946 0.950 . S
H2937 C2948 0.950 . S
H2938 C2950 0.950 . S
H2939 C2951 0.950 . S
C2940 H2932 0.950 . S
C2940 C2941 1.386 . S
C2940 C2942 1.391 . S
C2941 C2940 1.386 . S
C2941 C2945 1.393 . S
C2942 H2934 0.950 . S
C2942 C2940 1.391 . S
C2942 C2943 1.400 . S
C2943 C2942 1.400 . S
C2943 C2944 1.398 . S
C2943 C2949 1.491 . S
C2944 H2935 0.950 . S
C2944 C2943 1.398 . S
C2944 C2945 1.391 . S
C2945 H2933 0.950 . S
C2945 C2941 1.393 . S
C2945 C2944 1.391 . S
C2946 H2936 0.950 . S
C2946 C2947 1.386 . S
C2946 C2948 1.391 . S
C2947 C2946 1.386 . S
C2947 C2951 1.393 . S
C2948 H2937 0.950 . S
C2948 C2946 1.391 . S
C2948 C2949 1.400 . S
C2949 C2943 1.491 . S
C2949 C2948 1.400 . S
C2949 C2950 1.398 . S
C2950 H2938 0.950 . S
C2950 C2949 1.398 . S
C2950 C2951 1.391 . S
C2951 H2939 0.950 . S
C2951 C2947 1.393 . S
C2951 C2950 1.391 . S
H2952 C2960 0.950 . S
H2953 C2965 0.950 . S
H2954 C2962 0.950 . S
H2955 C2964 0.950 . S
H2956 C2966 0.950 . S
H2957 C2968 0.950 . S
H2958 C2970 0.950 . S
H2959 C2971 0.950 . S
C2960 H2952 0.950 . S
C2960 C2961 1.386 . S
C2960 C2962 1.391 . S
C2961 C2960 1.386 . S
C2961 C2965 1.393 . S
C2962 H2954 0.950 . S
C2962 C2960 1.391 . S
C2962 C2963 1.400 . S
C2963 C2962 1.400 . S
C2963 C2964 1.398 . S
C2963 C2969 1.491 . S
C2964 H2955 0.950 . S
C2964 C2963 1.398 . S
C2964 C2965 1.391 . S
C2965 H2953 0.950 . S
C2965 C2961 1.393 . S
C2965 C2964 1.391 . S
C2966 H2956 0.950 . S
C2966 C2967 1.386 . S
C2966 C2968 1.391 . S
C2967 C2966 1.386 . S
C2967 C2971 1.393 . S
C2968 H2957 0.950 . S
C2968 C2966 1.391 . S
C2968 C2969 1.400 . S
C2969 C2963 1.491 . S
C2969 C2968 1.400 . S
C2969 C2970 1.398 . S
C2970 H2958 0.950 . S
C2970 C2969 1.398 . S
C2970 C2971 1.391 . S
C2971 H2959 0.950 . S
C2971 C2967 1.393 . S
C2971 C2970 1.391 . S
H2972 C2980 0.950 . S
H2973 C2985 0.950 . S
H2974 C2982 0.950 . S
H2975 C2984 0.950 . S
H2976 C2986 0.950 . S
H2977 C2988 0.950 . S
H2978 C2990 0.950 . S
H2979 C2991 0.950 . S
C2980 H2972 0.950 . S
C2980 C2981 1.386 . S
C2980 C2982 1.391 . S
C2981 C2980 1.386 . S
C2981 C2985 1.393 . S
C2982 H2974 0.950 . S
C2982 C2980 1.391 . S
C2982 C2983 1.400 . S
C2983 C2982 1.400 . S
C2983 C2984 1.398 . S
C2983 C2989 1.491 . S
C2984 H2975 0.950 . S
C2984 C2983 1.398 . S
C2984 C2985 1.391 . S
C2985 H2973 0.950 . S
C2985 C2981 1.393 . S
C2985 C2984 1.391 . S
C2986 H2976 0.950 . S
C2986 C2987 1.386 . S
C2986 C2988 1.391 . S
C2987 C2986 1.386 . S
C2987 C2991 1.393 . S
C2988 H2977 0.950 . S
C2988 C2986 1.391 . S
C2988 C2989 1.400 . S
C2989 C2983 1.491 . S
C2989 C2988 1.400 . S
C2989 C2990 1.398 . S
C2990 H2978 0.950 . S
C2990 C2989 1.398 . S
C2990 C2991 1.391 . S
C2991 H2979 0.950 . S
C2991 C2987 1.393 . S
C2991 C2990 1.391 . S
H2992 C3000 0.950 . S
H2993 C3005 0.950 . S
H2994 C3002 0.950 . S
H2995 C3004 0.950 . S
H2996 C3006 0.950 . S
H2997 C3008 0.950 1_655 S
H2998 C3010 0.950 . S
H2999 C3011 0.950 . S
C3000 H2992 0.950 . S
C3000 C3001 1.386 1_455 S
C3000 C3002 1.391 . S
C3001 C3000 1.386 1_655 S
C3001 C3005 1.393 . S
C3002 H2994 0.950 . S
C3002 C3000 1.391 . S
C3002 C3003 1.400 . S
C3003 C3002 1.400 . S
C3003 C3004 1.398 1_455 S
C3003 C3009 1.491 . S
C3004 H2995 0.950 . S
C3004 C3003 1.398 1_655 S
C3004 C3005 1.391 . S
C3005 H2993 0.950 . S
C3005 C3001 1.393 . S
C3005 C3004 1.391 . S
C3006 H2996 0.950 . S
C3006 C3007 1.386 . S
C3006 C3008 1.391 . S
C3007 C3006 1.386 . S
C3007 C3011 1.393 . S
C3008 H2997 0.950 1_455 S
C3008 C3006 1.391 . S
C3008 C3009 1.400 . S
C3009 C3003 1.491 . S
C3009 C3008 1.400 . S
C3009 C3010 1.398 . S
C3010 H2998 0.950 . S
C3010 C3009 1.398 . S
C3010 C3011 1.391 . S
C3011 H2999 0.950 . S
C3011 C3007 1.393 . S
C3011 C3010 1.391 . S
H3012 C3020 0.950 . S
H3013 C3025 0.950 . S
H3014 C3022 0.950 . S
H3015 C3024 0.950 . S
H3016 C3026 0.950 . S
H3017 C3028 0.950 . S
H3018 C3030 0.950 . S
H3019 C3031 0.950 . S
C3020 H3012 0.950 . S
C3020 C3021 1.386 . S
C3020 C3022 1.391 . S
C3021 C3020 1.386 . S
C3021 C3025 1.393 . S
C3022 H3014 0.950 . S
C3022 C3020 1.391 . S
C3022 C3023 1.400 . S
C3023 C3022 1.400 . S
C3023 C3024 1.398 . S
C3023 C3029 1.491 . S
C3024 H3015 0.950 . S
C3024 C3023 1.398 . S
C3024 C3025 1.391 . S
C3025 H3013 0.950 . S
C3025 C3021 1.393 . S
C3025 C3024 1.391 . S
C3026 H3016 0.950 . S
C3026 C3027 1.386 . S
C3026 C3028 1.391 . S
C3027 C3026 1.386 . S
C3027 C3031 1.393 . S
C3028 H3017 0.950 . S
C3028 C3026 1.391 . S
C3028 C3029 1.400 . S
C3029 C3023 1.491 . S
C3029 C3028 1.400 . S
C3029 C3030 1.398 . S
C3030 H3018 0.950 . S
C3030 C3029 1.398 . S
C3030 C3031 1.391 . S
C3031 H3019 0.950 . S
C3031 C3027 1.393 . S
C3031 C3030 1.391 . S
H3032 C3040 0.950 . S
H3033 C3045 0.950 . S
H3034 C3042 0.950 . S
H3035 C3044 0.950 . S
H3036 C3046 0.950 . S
H3037 C3048 0.950 . S
H3038 C3050 0.950 . S
H3039 C3051 0.950 . S
C3040 H3032 0.950 . S
C3040 C3041 1.386 . S
C3040 C3042 1.391 . S
C3041 C3040 1.386 . S
C3041 C3045 1.393 . S
C3042 H3034 0.950 . S
C3042 C3040 1.391 . S
C3042 C3043 1.400 . S
C3043 C3042 1.400 . S
C3043 C3044 1.398 . S
C3043 C3049 1.491 . S
C3044 H3035 0.950 . S
C3044 C3043 1.398 . S
C3044 C3045 1.391 . S
C3045 H3033 0.950 . S
C3045 C3041 1.393 . S
C3045 C3044 1.391 . S
C3046 H3036 0.950 . S
C3046 C3047 1.386 . S
C3046 C3048 1.391 . S
C3047 C3046 1.386 . S
C3047 C3051 1.393 . S
C3048 H3037 0.950 . S
C3048 C3046 1.391 . S
C3048 C3049 1.400 . S
C3049 C3043 1.491 . S
C3049 C3048 1.400 . S
C3049 C3050 1.398 . S
C3050 H3038 0.950 . S
C3050 C3049 1.398 . S
C3050 C3051 1.391 . S
C3051 H3039 0.950 . S
C3051 C3047 1.393 . S
C3051 C3050 1.391 . S
H3052 C3060 0.950 . S
H3053 C3065 0.950 . S
H3054 C3062 0.950 . S
H3055 C3064 0.950 . S
H3056 C3066 0.950 . S
H3057 C3068 0.950 . S
H3058 C3070 0.950 . S
H3059 C3071 0.950 . S
C3060 H3052 0.950 . S
C3060 C3061 1.386 . S
C3060 C3062 1.391 . S
C3061 C3060 1.386 . S
C3061 C3065 1.393 . S
C3062 H3054 0.950 . S
C3062 C3060 1.391 . S
C3062 C3063 1.400 . S
C3063 C3062 1.400 . S
C3063 C3064 1.398 . S
C3063 C3069 1.491 . S
C3064 H3055 0.950 . S
C3064 C3063 1.398 . S
C3064 C3065 1.391 . S
C3065 H3053 0.950 . S
C3065 C3061 1.393 . S
C3065 C3064 1.391 . S
C3066 H3056 0.950 . S
C3066 C3067 1.386 . S
C3066 C3068 1.391 . S
C3067 C3066 1.386 . S
C3067 C3071 1.393 . S
C3068 H3057 0.950 . S
C3068 C3066 1.391 . S
C3068 C3069 1.400 . S
C3069 C3063 1.491 . S
C3069 C3068 1.400 . S
C3069 C3070 1.398 . S
C3070 H3058 0.950 . S
C3070 C3069 1.398 . S
C3070 C3071 1.391 . S
C3071 H3059 0.950 . S
C3071 C3067 1.393 . S
C3071 C3070 1.391 . S
H3072 C3080 0.950 . S
H3073 C3085 0.950 . S
H3074 C3082 0.950 . S
H3075 C3084 0.950 1_545 S
H3076 C3086 0.950 . S
H3077 C3088 0.950 . S
H3078 C3090 0.950 . S
H3079 C3091 0.950 . S
C3080 H3072 0.950 . S
C3080 C3081 1.386 . S
C3080 C3082 1.391 . S
C3081 C3080 1.386 . S
C3081 C3085 1.393 . S
C3082 H3074 0.950 . S
C3082 C3080 1.391 . S
C3082 C3083 1.400 . S
C3083 C3082 1.400 . S
C3083 C3084 1.398 . S
C3083 C3089 1.491 . S
C3084 H3075 0.950 1_565 S
C3084 C3083 1.398 . S
C3084 C3085 1.391 . S
C3085 H3073 0.950 . S
C3085 C3081 1.393 . S
C3085 C3084 1.391 . S
C3086 H3076 0.950 . S
C3086 C3087 1.386 1_545 S
C3086 C3088 1.391 . S
C3087 C3086 1.386 1_565 S
C3087 C3091 1.393 . S
C3088 H3077 0.950 . S
C3088 C3086 1.391 . S
C3088 C3089 1.400 1_545 S
C3089 C3083 1.491 . S
C3089 C3088 1.400 1_565 S
C3089 C3090 1.398 . S
C3090 H3078 0.950 . S
C3090 C3089 1.398 . S
C3090 C3091 1.391 . S
C3091 H3079 0.950 . S
C3091 C3087 1.393 . S
C3091 C3090 1.391 . S
H3092 C3100 0.950 . S
H3093 C3105 0.950 . S
H3094 C3102 0.950 . S
H3095 C3104 0.950 . S
H3096 C3106 0.950 . S
H3097 C3108 0.950 . S
H3098 C3110 0.950 . S
H3099 C3111 0.950 . S
C3100 H3092 0.950 . S
C3100 C3101 1.386 . S
C3100 C3102 1.391 . S
C3101 C3100 1.386 . S
C3101 C3105 1.393 1_556 S
C3102 H3094 0.950 . S
C3102 C3100 1.391 . S
C3102 C3103 1.400 . S
C3103 C3102 1.400 . S
C3103 C3104 1.398 1_556 S
C3103 C3109 1.493 . S
C3104 H3095 0.950 . S
C3104 C3103 1.398 1_554 S
C3104 C3105 1.391 . S
C3105 H3093 0.950 . S
C3105 C3101 1.393 1_554 S
C3105 C3104 1.391 . S
C3106 H3096 0.950 . S
C3106 C3107 1.386 . S
C3106 C3108 1.391 . S
C3107 C3106 1.386 . S
C3107 C3111 1.393 1_554 S
C3108 H3097 0.950 . S
C3108 C3106 1.391 . S
C3108 C3109 1.394 1_554 S
C3109 C3103 1.493 . S
C3109 C3108 1.394 1_556 S
C3109 C3110 1.403 . S
C3110 H3098 0.950 . S
C3110 C3109 1.403 . S
C3110 C3111 1.391 . S
C3111 H3099 0.950 . S
C3111 C3107 1.393 1_556 S
C3111 C3110 1.391 . S
H3112 C3120 0.950 . S
H3113 C3125 0.950 . S
H3114 C3122 0.950 . S
H3115 C3124 0.950 . S
H3116 C3126 0.950 . S
H3117 C3128 0.950 . S
H3118 C3130 0.950 . S
H3119 C3131 0.950 . S
C3120 H3112 0.950 . S
C3120 C3121 1.386 . S
C3120 C3122 1.391 . S
C3121 C3120 1.386 . S
C3121 C3125 1.393 . S
C3122 H3114 0.950 . S
C3122 C3120 1.391 . S
C3122 C3123 1.400 . S
C3123 C3122 1.400 . S
C3123 C3124 1.398 . S
C3123 C3129 1.491 . S
C3124 H3115 0.950 . S
C3124 C3123 1.398 . S
C3124 C3125 1.391 . S
C3125 H3113 0.950 . S
C3125 C3121 1.393 . S
C3125 C3124 1.391 . S
C3126 H3116 0.950 . S
C3126 C3127 1.386 . S
C3126 C3128 1.391 . S
C3127 C3126 1.386 . S
C3127 C3131 1.393 . S
C3128 H3117 0.950 . S
C3128 C3126 1.391 . S
C3128 C3129 1.400 . S
C3129 C3123 1.491 . S
C3129 C3128 1.400 . S
C3129 C3130 1.398 . S
C3130 H3118 0.950 . S
C3130 C3129 1.398 . S
C3130 C3131 1.391 . S
C3131 H3119 0.950 . S
C3131 C3127 1.393 . S
C3131 C3130 1.391 . S
H3132 C3140 0.950 . S
H3133 C3145 0.950 . S
H3134 C3142 0.950 . S
H3135 C3144 0.950 . S
H3136 C3146 0.950 . S
H3137 C3148 0.950 . S
H3138 C3150 0.950 . S
H3139 C3151 0.950 . S
C3140 H3132 0.950 . S
C3140 C3141 1.386 . S
C3140 C3142 1.391 . S
C3141 C3140 1.386 . S
C3141 C3145 1.393 . S
C3142 H3134 0.950 . S
C3142 C3140 1.391 . S
C3142 C3143 1.400 . S
C3143 C3142 1.400 . S
C3143 C3144 1.398 . S
C3143 C3149 1.491 . S
C3144 H3135 0.950 . S
C3144 C3143 1.398 . S
C3144 C3145 1.391 . S
C3145 H3133 0.950 . S
C3145 C3141 1.393 . S
C3145 C3144 1.391 . S
C3146 H3136 0.950 . S
C3146 C3147 1.386 . S
C3146 C3148 1.391 . S
C3147 C3146 1.386 . S
C3147 C3151 1.393 . S
C3148 H3137 0.950 . S
C3148 C3146 1.391 . S
C3148 C3149 1.400 . S
C3149 C3143 1.491 . S
C3149 C3148 1.400 . S
C3149 C3150 1.398 . S
C3150 H3138 0.950 . S
C3150 C3149 1.398 . S
C3150 C3151 1.391 . S
C3151 H3139 0.950 . S
C3151 C3147 1.393 . S
C3151 C3150 1.391 . S
H3152 C3160 0.950 . S
H3153 C3165 0.950 . S
H3154 C3162 0.950 . S
H3155 C3164 0.950 . S
H3156 C3166 0.950 . S
H3157 C3168 0.950 . S
H3158 C3170 0.950 . S
H3159 C3171 0.950 . S
C3160 H3152 0.950 . S
C3160 C3161 1.386 . S
C3160 C3162 1.391 . S
C3161 C3160 1.386 . S
C3161 C3165 1.393 . S
C3162 H3154 0.950 . S
C3162 C3160 1.391 . S
C3162 C3163 1.400 . S
C3163 C3162 1.400 . S
C3163 C3164 1.398 . S
C3163 C3169 1.491 . S
C3164 H3155 0.950 . S
C3164 C3163 1.398 . S
C3164 C3165 1.391 . S
C3165 H3153 0.950 . S
C3165 C3161 1.393 . S
C3165 C3164 1.391 . S
C3166 H3156 0.950 . S
C3166 C3167 1.386 . S
C3166 C3168 1.391 . S
C3167 C3166 1.386 . S
C3167 C3171 1.393 . S
C3168 H3157 0.950 . S
C3168 C3166 1.391 . S
C3168 C3169 1.400 . S
C3169 C3163 1.491 . S
C3169 C3168 1.400 . S
C3169 C3170 1.398 . S
C3170 H3158 0.950 . S
C3170 C3169 1.398 . S
C3170 C3171 1.391 . S
C3171 H3159 0.950 . S
C3171 C3167 1.393 . S
C3171 C3170 1.391 . S
H3172 C3180 0.950 . S
H3173 C3185 0.950 . S
H3174 C3182 0.950 . S
H3175 C3184 0.950 . S
H3176 C3186 0.950 . S
H3177 C3188 0.950 . S
H3178 C3190 0.950 . S
H3179 C3191 0.950 . S
C3180 H3172 0.950 . S
C3180 C3181 1.386 . S
C3180 C3182 1.391 . S
C3181 C3180 1.386 . S
C3181 C3185 1.393 . S
C3182 H3174 0.950 . S
C3182 C3180 1.391 . S
C3182 C3183 1.400 . S
C3183 C3182 1.400 . S
C3183 C3184 1.398 . S
C3183 C3189 1.491 . S
C3184 H3175 0.950 . S
C3184 C3183 1.398 . S
C3184 C3185 1.391 . S
C3185 H3173 0.950 . S
C3185 C3181 1.393 . S
C3185 C3184 1.391 . S
C3186 H3176 0.950 . S
C3186 C3187 1.386 . S
C3186 C3188 1.391 . S
C3187 C3186 1.386 . S
C3187 C3191 1.393 . S
C3188 H3177 0.950 . S
C3188 C3186 1.391 . S
C3188 C3189 1.400 . S
C3189 C3183 1.491 . S
C3189 C3188 1.400 . S
C3189 C3190 1.398 . S
C3190 H3178 0.950 . S
C3190 C3189 1.398 . S
C3190 C3191 1.391 . S
C3191 H3179 0.950 . S
C3191 C3187 1.393 . S
C3191 C3190 1.391 . S
H3192 C3200 0.950 . S
H3193 C3205 0.950 . S
H3194 C3202 0.950 . S
H3195 C3204 0.950 . S
H3196 C3206 0.950 . S
H3197 C3208 0.950 . S
H3198 C3210 0.950 . S
H3199 C3211 0.950 . S
C3200 H3192 0.950 . S
C3200 C3201 1.386 . S
C3200 C3202 1.391 . S
C3201 C3200 1.386 . S
C3201 C3205 1.393 . S
C3202 H3194 0.950 . S
C3202 C3200 1.391 . S
C3202 C3203 1.400 . S
C3203 C3202 1.400 . S
C3203 C3204 1.398 . S
C3203 C3209 1.491 . S
C3204 H3195 0.950 . S
C3204 C3203 1.398 . S
C3204 C3205 1.391 . S
C3205 H3193 0.950 . S
C3205 C3201 1.393 . S
C3205 C3204 1.391 . S
C3206 H3196 0.950 . S
C3206 C3207 1.386 . S
C3206 C3208 1.391 . S
C3207 C3206 1.386 . S
C3207 C3211 1.393 . S
C3208 H3197 0.950 . S
C3208 C3206 1.391 . S
C3208 C3209 1.400 . S
C3209 C3203 1.491 . S
C3209 C3208 1.400 . S
C3209 C3210 1.398 . S
C3210 H3198 0.950 . S
C3210 C3209 1.398 . S
C3210 C3211 1.391 . S
C3211 H3199 0.950 . S
C3211 C3207 1.393 . S
C3211 C3210 1.391 . S
H3212 C3220 0.950 . S
H3213 C3225 0.950 . S
H3214 C3222 0.950 . S
H3215 C3224 0.950 . S
H3216 C3226 0.950 . S
H3217 C3228 0.950 . S
H3218 C3230 0.950 . S
H3219 C3231 0.950 . S
C3220 H3212 0.950 . S
C3220 C3221 1.386 . S
C3220 C3222 1.391 . S
C3221 C3220 1.386 . S
C3221 C3225 1.393 . S
C3222 H3214 0.950 . S
C3222 C3220 1.391 . S
C3222 C3223 1.400 . S
C3223 C3222 1.400 . S
C3223 C3224 1.398 . S
C3223 C3229 1.491 . S
C3224 H3215 0.950 . S
C3224 C3223 1.398 . S
C3224 C3225 1.391 . S
C3225 H3213 0.950 . S
C3225 C3221 1.393 . S
C3225 C3224 1.391 . S
C3226 H3216 0.950 . S
C3226 C3227 1.386 . S
C3226 C3228 1.391 . S
C3227 C3226 1.386 . S
C3227 C3231 1.393 . S
C3228 H3217 0.950 . S
C3228 C3226 1.391 . S
C3228 C3229 1.400 . S
C3229 C3223 1.491 . S
C3229 C3228 1.400 . S
C3229 C3230 1.398 . S
C3230 H3218 0.950 . S
C3230 C3229 1.398 . S
C3230 C3231 1.391 . S
C3231 H3219 0.950 . S
C3231 C3227 1.393 . S
C3231 C3230 1.391 . S
H3232 C3240 0.950 . S
H3233 C3245 0.950 . S
H3234 C3242 0.950 . S
H3235 C3244 0.950 . S
H3236 C3246 0.950 . S
H3237 C3248 0.950 . S
H3238 C3250 0.950 . S
H3239 C3251 0.950 . S
C3240 H3232 0.950 . S
C3240 C3241 1.386 . S
C3240 C3242 1.391 . S
C3241 C3240 1.386 . S
C3241 C3245 1.393 . S
C3242 H3234 0.950 . S
C3242 C3240 1.391 . S
C3242 C3243 1.400 . S
C3243 C3242 1.400 . S
C3243 C3244 1.398 . S
C3243 C3249 1.491 . S
C3244 H3235 0.950 . S
C3244 C3243 1.398 . S
C3244 C3245 1.391 . S
C3245 H3233 0.950 . S
C3245 C3241 1.393 . S
C3245 C3244 1.391 . S
C3246 H3236 0.950 . S
C3246 C3247 1.386 . S
C3246 C3248 1.391 . S
C3247 C3246 1.386 . S
C3247 C3251 1.393 . S
C3248 H3237 0.950 . S
C3248 C3246 1.391 . S
C3248 C3249 1.400 . S
C3249 C3243 1.491 . S
C3249 C3248 1.400 . S
C3249 C3250 1.398 . S
C3250 H3238 0.950 . S
C3250 C3249 1.398 . S
C3250 C3251 1.391 . S
C3251 H3239 0.950 . S
C3251 C3247 1.393 . S
C3251 C3250 1.391 . S
H3252 C3260 0.950 . S
H3253 C3265 0.950 . S
H3254 C3262 0.950 . S
H3255 C3264 0.950 . S
H3256 C3266 0.950 . S
H3257 C3268 0.950 . S
H3258 C3270 0.950 . S
H3259 C3271 0.950 . S
C3260 H3252 0.950 . S
C3260 C3261 1.386 . S
C3260 C3262 1.391 . S
C3261 C3260 1.386 . S
C3261 C3265 1.393 . S
C3262 H3254 0.950 . S
C3262 C3260 1.391 . S
C3262 C3263 1.400 . S
C3263 C3262 1.400 . S
C3263 C3264 1.398 . S
C3263 C3269 1.491 . S
C3264 H3255 0.950 . S
C3264 C3263 1.398 . S
C3264 C3265 1.391 . S
C3265 H3253 0.950 . S
C3265 C3261 1.393 . S
C3265 C3264 1.391 . S
C3266 H3256 0.950 . S
C3266 C3267 1.386 . S
C3266 C3268 1.391 . S
C3267 C3266 1.386 . S
C3267 C3271 1.393 . S
C3268 H3257 0.950 . S
C3268 C3266 1.391 . S
C3268 C3269 1.400 . S
C3269 C3263 1.491 . S
C3269 C3268 1.400 . S
C3269 C3270 1.398 . S
C3270 H3258 0.950 . S
C3270 C3269 1.398 . S
C3270 C3271 1.391 . S
C3271 H3259 0.950 . S
C3271 C3267 1.393 . S
C3271 C3270 1.391 . S
H3272 C3280 0.950 . S
H3273 C3285 0.950 . S
H3274 C3282 0.950 . S
H3275 C3284 0.950 . S
H3276 C3286 0.950 . S
H3277 C3288 0.950 . S
H3278 C3290 0.950 . S
H3279 C3291 0.950 . S
C3280 H3272 0.950 . S
C3280 C3281 1.386 . S
C3280 C3282 1.391 . S
C3281 C3280 1.386 . S
C3281 C3285 1.393 . S
C3282 H3274 0.950 . S
C3282 C3280 1.391 . S
C3282 C3283 1.400 . S
C3283 C3282 1.400 . S
C3283 C3284 1.398 . S
C3283 C3289 1.491 . S
C3284 H3275 0.950 . S
C3284 C3283 1.398 . S
C3284 C3285 1.391 . S
C3285 H3273 0.950 . S
C3285 C3281 1.393 . S
C3285 C3284 1.391 . S
C3286 H3276 0.950 . S
C3286 C3287 1.386 . S
C3286 C3288 1.391 . S
C3287 C3286 1.386 . S
C3287 C3291 1.393 . S
C3288 H3277 0.950 . S
C3288 C3286 1.391 . S
C3288 C3289 1.400 . S
C3289 C3283 1.491 . S
C3289 C3288 1.400 . S
C3289 C3290 1.398 . S
C3290 H3278 0.950 . S
C3290 C3289 1.398 . S
C3290 C3291 1.391 . S
C3291 H3279 0.950 . S
C3291 C3287 1.393 . S
C3291 C3290 1.391 . S
H3292 C3300 0.950 . S
H3293 C3305 0.950 . S
H3294 C3302 0.950 . S
H3295 C3304 0.950 . S
H3296 C3306 0.950 . S
H3297 C3308 0.950 . S
H3298 C3310 0.950 . S
H3299 C3311 0.950 . S
C3300 H3292 0.950 . S
C3300 C3301 1.386 . S
C3300 C3302 1.391 . S
C3301 C3300 1.386 . S
C3301 C3305 1.393 . S
C3302 H3294 0.950 . S
C3302 C3300 1.391 . S
C3302 C3303 1.400 . S
C3303 C3302 1.400 . S
C3303 C3304 1.398 . S
C3303 C3309 1.491 . S
C3304 H3295 0.950 . S
C3304 C3303 1.398 . S
C3304 C3305 1.391 . S
C3305 H3293 0.950 . S
C3305 C3301 1.393 . S
C3305 C3304 1.391 . S
C3306 H3296 0.950 . S
C3306 C3307 1.386 . S
C3306 C3308 1.391 . S
C3307 C3306 1.386 . S
C3307 C3311 1.393 . S
C3308 H3297 0.950 . S
C3308 C3306 1.391 . S
C3308 C3309 1.400 . S
C3309 C3303 1.491 . S
C3309 C3308 1.400 . S
C3309 C3310 1.398 . S
C3310 H3298 0.950 . S
C3310 C3309 1.398 . S
C3310 C3311 1.391 . S
C3311 H3299 0.950 . S
C3311 C3307 1.393 . S
C3311 C3310 1.391 . S
H3312 C3320 0.950 . S
H3313 C3325 0.950 . S
H3314 C3322 0.950 . S
H3315 C3324 0.950 . S
H3316 C3326 0.950 . S
H3317 C3328 0.950 . S
H3318 C3330 0.950 . S
H3319 C3331 0.950 . S
C3320 H3312 0.950 . S
C3320 C3321 1.386 . S
C3320 C3322 1.391 . S
C3321 C3320 1.386 . S
C3321 C3325 1.393 . S
C3322 H3314 0.950 . S
C3322 C3320 1.391 . S
C3322 C3323 1.400 . S
C3323 C3322 1.400 . S
C3323 C3324 1.398 . S
C3323 C3329 1.491 . S
C3324 H3315 0.950 . S
C3324 C3323 1.398 . S
C3324 C3325 1.391 . S
C3325 H3313 0.950 . S
C3325 C3321 1.393 . S
C3325 C3324 1.391 . S
C3326 H3316 0.950 . S
C3326 C3327 1.386 . S
C3326 C3328 1.391 . S
C3327 C3326 1.386 . S
C3327 C3331 1.393 . S
C3328 H3317 0.950 . S
C3328 C3326 1.391 . S
C3328 C3329 1.400 . S
C3329 C3323 1.491 . S
C3329 C3328 1.400 . S
C3329 C3330 1.398 . S
C3330 H3318 0.950 . S
C3330 C3329 1.398 . S
C3330 C3331 1.391 . S
C3331 H3319 0.950 . S
C3331 C3327 1.393 . S
C3331 C3330 1.391 . S
H3332 C3340 0.950 . S
H3333 C3345 0.950 . S
H3334 C3342 0.950 . S
H3335 C3344 0.950 . S
H3336 C3346 0.950 . S
H3337 C3348 0.950 . S
H3338 C3350 0.950 . S
H3339 C3351 0.950 . S
C3340 H3332 0.950 . S
C3340 C3341 1.386 . S
C3340 C3342 1.391 . S
C3341 C3340 1.386 . S
C3341 C3345 1.393 . S
C3342 H3334 0.950 . S
C3342 C3340 1.391 . S
C3342 C3343 1.400 . S
C3343 C3342 1.400 . S
C3343 C3344 1.398 . S
C3343 C3349 1.491 . S
C3344 H3335 0.950 . S
C3344 C3343 1.398 . S
C3344 C3345 1.391 . S
C3345 H3333 0.950 . S
C3345 C3341 1.393 . S
C3345 C3344 1.391 . S
C3346 H3336 0.950 . S
C3346 C3347 1.386 . S
C3346 C3348 1.391 . S
C3347 C3346 1.386 . S
C3347 C3351 1.393 . S
C3348 H3337 0.950 . S
C3348 C3346 1.391 . S
C3348 C3349 1.400 . S
C3349 C3343 1.491 . S
C3349 C3348 1.400 . S
C3349 C3350 1.398 . S
C3350 H3338 0.950 . S
C3350 C3349 1.398 . S
C3350 C3351 1.391 . S
C3351 H3339 0.950 . S
C3351 C3347 1.393 . S
C3351 C3350 1.391 . S
H3352 C3360 0.950 . S
H3353 C3365 0.950 . S
H3354 C3362 0.950 . S
H3355 C3364 0.950 . S
H3356 C3366 0.950 1_545 S
H3357 C3368 0.950 . S
H3358 C3370 0.950 . S
H3359 C3371 0.950 . S
C3360 H3352 0.950 . S
C3360 C3361 1.386 . S
C3360 C3362 1.391 . S
C3361 C3360 1.386 . S
C3361 C3365 1.393 . S
C3362 H3354 0.950 . S
C3362 C3360 1.391 . S
C3362 C3363 1.400 . S
C3363 C3362 1.400 . S
C3363 C3364 1.398 . S
C3363 C3369 1.491 . S
C3364 H3355 0.950 . S
C3364 C3363 1.398 . S
C3364 C3365 1.391 . S
C3365 H3353 0.950 . S
C3365 C3361 1.393 . S
C3365 C3364 1.391 . S
C3366 H3356 0.950 1_565 S
C3366 C3367 1.386 . S
C3366 C3368 1.391 . S
C3367 C3366 1.386 . S
C3367 C3371 1.393 . S
C3368 H3357 0.950 . S
C3368 C3366 1.391 . S
C3368 C3369 1.400 . S
C3369 C3363 1.491 . S
C3369 C3368 1.400 . S
C3369 C3370 1.398 . S
C3370 H3358 0.950 . S
C3370 C3369 1.398 . S
C3370 C3371 1.391 . S
C3371 H3359 0.950 . S
C3371 C3367 1.393 . S
C3371 C3370 1.391 . S
H3372 C3380 0.950 . S
H3373 C3385 0.950 . S
H3374 C3382 0.950 . S
H3375 C3384 0.950 . S
H3376 C3386 0.950 . S
H3377 C3388 0.950 . S
H3378 C3390 0.950 . S
H3379 C3391 0.950 . S
C3380 H3372 0.950 . S
C3380 C3381 1.386 . S
C3380 C3382 1.391 . S
C3381 C3380 1.386 . S
C3381 C3385 1.393 . S
C3382 H3374 0.950 . S
C3382 C3380 1.391 . S
C3382 C3383 1.400 . S
C3383 C3382 1.400 . S
C3383 C3384 1.398 . S
C3383 C3389 1.491 . S
C3384 H3375 0.950 . S
C3384 C3383 1.398 . S
C3384 C3385 1.391 . S
C3385 H3373 0.950 . S
C3385 C3381 1.393 . S
C3385 C3384 1.391 . S
C3386 H3376 0.950 . S
C3386 C3387 1.386 . S
C3386 C3388 1.391 . S
C3387 C3386 1.386 . S
C3387 C3391 1.393 . S
C3388 H3377 0.950 . S
C3388 C3386 1.391 . S
C3388 C3389 1.400 . S
C3389 C3383 1.491 . S
C3389 C3388 1.400 . S
C3389 C3390 1.398 . S
C3390 H3378 0.950 . S
C3390 C3389 1.398 . S
C3390 C3391 1.391 . S
C3391 H3379 0.950 . S
C3391 C3387 1.393 . S
C3391 C3390 1.391 . S
H3392 C3400 0.950 . S
H3393 C3405 0.950 . S
H3394 C3402 0.950 . S
H3395 C3404 0.950 . S
H3396 C3406 0.950 . S
H3397 C3408 0.950 . S
H3398 C3410 0.950 . S
H3399 C3411 0.950 . S
C3400 H3392 0.950 . S
C3400 C3401 1.386 1_565 S
C3400 C3402 1.391 . S
C3401 C3400 1.386 1_545 S
C3401 C3405 1.393 . S
C3402 H3394 0.950 . S
C3402 C3400 1.391 . S
C3402 C3403 1.400 1_565 S
C3403 C3402 1.400 1_545 S
C3403 C3404 1.398 . S
C3403 C3409 1.491 . S
C3404 H3395 0.950 . S
C3404 C3403 1.398 . S
C3404 C3405 1.391 . S
C3405 H3393 0.950 . S
C3405 C3401 1.393 . S
C3405 C3404 1.391 . S
C3406 H3396 0.950 . S
C3406 C3407 1.386 . S
C3406 C3408 1.391 . S
C3407 C3406 1.386 . S
C3407 C3411 1.393 1_545 S
C3408 H3397 0.950 . S
C3408 C3406 1.391 . S
C3408 C3409 1.400 . S
C3409 C3403 1.491 . S
C3409 C3408 1.400 . S
C3409 C3410 1.398 1_545 S
C3410 H3398 0.950 . S
C3410 C3409 1.398 1_565 S
C3410 C3411 1.391 . S
C3411 H3399 0.950 . S
C3411 C3407 1.393 1_565 S
C3411 C3410 1.391 . S
H3412 C3420 0.950 . S
H3413 C3425 0.950 . S
H3414 C3422 0.950 . S
H3415 C3424 0.950 . S
H3416 C3426 0.950 . S
H3417 C3428 0.950 . S
H3418 C3430 0.950 . S
H3419 C3431 0.950 . S
C3420 H3412 0.950 . S
C3420 C3421 1.386 . S
C3420 C3422 1.391 . S
C3421 C3420 1.386 . S
C3421 C3425 1.393 . S
C3422 H3414 0.950 . S
C3422 C3420 1.391 . S
C3422 C3423 1.400 . S
C3423 C3422 1.400 . S
C3423 C3424 1.398 . S
C3423 C3429 1.491 . S
C3424 H3415 0.950 . S
C3424 C3423 1.398 . S
C3424 C3425 1.391 . S
C3425 H3413 0.950 . S
C3425 C3421 1.393 . S
C3425 C3424 1.391 . S
C3426 H3416 0.950 . S
C3426 C3427 1.386 . S
C3426 C3428 1.391 . S
C3427 C3426 1.386 . S
C3427 C3431 1.393 . S
C3428 H3417 0.950 . S
C3428 C3426 1.391 . S
C3428 C3429 1.400 . S
C3429 C3423 1.491 . S
C3429 C3428 1.400 . S
C3429 C3430 1.398 . S
C3430 H3418 0.950 . S
C3430 C3429 1.398 . S
C3430 C3431 1.391 . S
C3431 H3419 0.950 . S
C3431 C3427 1.393 . S
C3431 C3430 1.391 . S
H3432 C3440 0.950 . S
H3433 C3445 0.950 . S
H3434 C3442 0.950 . S
H3435 C3444 0.950 . S
H3436 C3446 0.950 . S
H3437 C3448 0.950 . S
H3438 C3450 0.950 . S
H3439 C3451 0.950 . S
C3440 H3432 0.950 . S
C3440 C3441 1.386 . S
C3440 C3442 1.391 . S
C3441 C3440 1.386 . S
C3441 C3445 1.393 . S
C3442 H3434 0.950 . S
C3442 C3440 1.391 . S
C3442 C3443 1.400 . S
C3443 C3442 1.400 . S
C3443 C3444 1.398 . S
C3443 C3449 1.491 . S
C3444 H3435 0.950 . S
C3444 C3443 1.398 . S
C3444 C3445 1.391 . S
C3445 H3433 0.950 . S
C3445 C3441 1.393 . S
C3445 C3444 1.391 . S
C3446 H3436 0.950 . S
C3446 C3447 1.386 . S
C3446 C3448 1.391 . S
C3447 C3446 1.386 . S
C3447 C3451 1.393 . S
C3448 H3437 0.950 . S
C3448 C3446 1.391 . S
C3448 C3449 1.400 . S
C3449 C3443 1.491 . S
C3449 C3448 1.400 . S
C3449 C3450 1.398 . S
C3450 H3438 0.950 . S
C3450 C3449 1.398 . S
C3450 C3451 1.391 . S
C3451 H3439 0.950 . S
C3451 C3447 1.393 . S
C3451 C3450 1.391 . S
H3452 C3460 0.950 . S
H3453 C3465 0.950 . S
H3454 C3462 0.950 . S
H3455 C3464 0.950 . S
H3456 C3466 0.950 . S
H3457 C3468 0.950 . S
H3458 C3470 0.950 . S
H3459 C3471 0.950 . S
C3460 H3452 0.950 . S
C3460 C3461 1.386 . S
C3460 C3462 1.391 . S
C3461 C3460 1.386 . S
C3461 C3465 1.393 . S
C3462 H3454 0.950 . S
C3462 C3460 1.391 . S
C3462 C3463 1.400 . S
C3463 C3462 1.400 . S
C3463 C3464 1.398 . S
C3463 C3469 1.491 . S
C3464 H3455 0.950 . S
C3464 C3463 1.398 . S
C3464 C3465 1.391 . S
C3465 H3453 0.950 . S
C3465 C3461 1.393 . S
C3465 C3464 1.391 . S
C3466 H3456 0.950 . S
C3466 C3467 1.386 . S
C3466 C3468 1.391 . S
C3467 C3466 1.386 . S
C3467 C3471 1.393 . S
C3468 H3457 0.950 . S
C3468 C3466 1.391 . S
C3468 C3469 1.400 . S
C3469 C3463 1.491 . S
C3469 C3468 1.400 . S
C3469 C3470 1.398 . S
C3470 H3458 0.950 . S
C3470 C3469 1.398 . S
C3470 C3471 1.391 . S
C3471 H3459 0.950 . S
C3471 C3467 1.393 . S
C3471 C3470 1.391 . S
H3472 C3480 0.950 . S
H3473 C3485 0.950 . S
H3474 C3482 0.950 . S
H3475 C3484 0.950 . S
H3476 C3486 0.950 . S
H3477 C3488 0.950 . S
H3478 C3490 0.950 . S
H3479 C3491 0.946 1_565 S
C3480 H3472 0.950 . S
C3480 C3481 1.386 . S
C3480 C3482 1.391 . S
C3481 C3480 1.386 . S
C3481 C3485 1.393 1_565 S
C3482 H3474 0.950 . S
C3482 C3480 1.391 . S
C3482 C3483 1.400 1_565 S
C3483 C3482 1.400 1_545 S
C3483 C3484 1.398 . S
C3483 C3489 1.491 . S
C3484 H3475 0.950 . S
C3484 C3483 1.398 . S
C3484 C3485 1.391 . S
C3485 H3473 0.950 . S
C3485 C3481 1.393 1_545 S
C3485 C3484 1.391 . S
C3486 H3476 0.950 . S
C3486 C3487 1.386 . S
C3486 C3488 1.391 . S
C3487 C3486 1.386 . S
C3487 C3491 1.401 . S
C3488 H3477 0.950 . S
C3488 C3486 1.391 . S
C3488 C3489 1.400 . S
C3489 C3483 1.491 . S
C3489 C3488 1.400 . S
C3489 C3490 1.398 1_545 S
C3490 H3478 0.950 . S
C3490 C3489 1.398 1_565 S
C3490 C3491 1.386 1_565 S
C3491 H3479 0.946 1_545 S
C3491 C3487 1.401 . S
C3491 C3490 1.386 1_545 S
H3492 C3500 0.950 . S
H3493 C3505 0.950 . S
H3494 C3502 0.950 . S
H3495 C3504 0.950 . S
H3496 C3506 0.950 . S
H3497 C3508 0.950 . S
H3498 C3510 0.950 . S
H3499 C3511 0.950 . S
C3500 H3492 0.950 . S
C3500 C3501 1.386 . S
C3500 C3502 1.391 . S
C3501 C3500 1.386 . S
C3501 C3505 1.393 . S
C3502 H3494 0.950 . S
C3502 C3500 1.391 . S
C3502 C3503 1.400 . S
C3503 C3502 1.400 . S
C3503 C3504 1.398 . S
C3503 C3509 1.491 . S
C3504 H3495 0.950 . S
C3504 C3503 1.398 . S
C3504 C3505 1.391 . S
C3505 H3493 0.950 . S
C3505 C3501 1.393 . S
C3505 C3504 1.391 . S
C3506 H3496 0.950 . S
C3506 C3507 1.386 . S
C3506 C3508 1.391 . S
C3507 C3506 1.386 . S
C3507 C3511 1.393 . S
C3508 H3497 0.950 . S
C3508 C3506 1.391 . S
C3508 C3509 1.400 . S
C3509 C3503 1.491 . S
C3509 C3508 1.400 . S
C3509 C3510 1.398 . S
C3510 H3498 0.950 . S
C3510 C3509 1.398 . S
C3510 C3511 1.391 . S
C3511 H3499 0.950 . S
C3511 C3507 1.393 . S
C3511 C3510 1.391 . S
H3512 C3520 0.950 . S
H3513 C3525 0.950 . S
H3514 C3522 0.950 . S
H3515 C3524 0.950 . S
H3516 C3526 0.950 . S
H3517 C3528 0.950 . S
H3518 C3530 0.950 . S
H3519 C3531 0.950 . S
C3520 H3512 0.950 . S
C3520 C3521 1.386 1_565 S
C3520 C3522 1.391 . S
C3521 C3520 1.386 1_545 S
C3521 C3525 1.393 . S
C3522 H3514 0.950 . S
C3522 C3520 1.391 . S
C3522 C3523 1.395 1_565 S
C3523 C3522 1.395 1_545 S
C3523 C3524 1.406 . S
C3523 C3529 1.488 1_545 S
C3524 H3515 0.950 . S
C3524 C3523 1.406 . S
C3524 C3525 1.391 . S
C3525 H3513 0.950 . S
C3525 C3521 1.393 . S
C3525 C3524 1.391 . S
C3526 H3516 0.950 . S
C3526 C3527 1.386 1_545 S
C3526 C3528 1.391 . S
C3527 C3526 1.386 1_565 S
C3527 C3531 1.393 . S
C3528 H3517 0.950 . S
C3528 C3526 1.391 . S
C3528 C3529 1.400 1_545 S
C3529 C3523 1.488 1_565 S
C3529 C3528 1.400 1_565 S
C3529 C3530 1.398 . S
C3530 H3518 0.950 . S
C3530 C3529 1.398 . S
C3530 C3531 1.391 . S
C3531 H3519 0.950 . S
C3531 C3527 1.393 . S
C3531 C3530 1.391 . S
H3532 C3540 0.950 . S
H3533 C3545 0.950 . S
H3534 C3542 0.950 . S
H3535 C3544 0.950 . S
H3536 C3546 0.950 . S
H3537 C3548 0.950 . S
H3538 C3550 0.950 . S
H3539 C3551 0.950 . S
C3540 H3532 0.950 . S
C3540 C3541 1.386 . S
C3540 C3542 1.391 . S
C3541 C3540 1.386 . S
C3541 C3545 1.393 . S
C3542 H3534 0.950 . S
C3542 C3540 1.391 . S
C3542 C3543 1.400 . S
C3543 C3542 1.400 . S
C3543 C3544 1.398 . S
C3543 C3549 1.491 . S
C3544 H3535 0.950 . S
C3544 C3543 1.398 . S
C3544 C3545 1.391 . S
C3545 H3533 0.950 . S
C3545 C3541 1.393 . S
C3545 C3544 1.391 . S
C3546 H3536 0.950 . S
C3546 C3547 1.386 . S
C3546 C3548 1.391 . S
C3547 C3546 1.386 . S
C3547 C3551 1.393 . S
C3548 H3537 0.950 . S
C3548 C3546 1.391 . S
C3548 C3549 1.400 . S
C3549 C3543 1.491 . S
C3549 C3548 1.400 . S
C3549 C3550 1.398 . S
C3550 H3538 0.950 . S
C3550 C3549 1.398 . S
C3550 C3551 1.391 . S
C3551 H3539 0.950 . S
C3551 C3547 1.393 . S
C3551 C3550 1.391 . S
H3552 C3560 0.950 . S
H3553 C3565 0.950 . S
H3554 C3562 0.950 . S
H3555 C3564 0.950 . S
H3556 C3566 0.950 . S
H3557 C3568 0.950 . S
H3558 C3570 0.950 1_554 S
H3559 C3571 0.950 . S
C3560 H3552 0.950 . S
C3560 C3561 1.386 . S
C3560 C3562 1.391 . S
C3561 C3560 1.386 . S
C3561 C3565 1.393 1_554 S
C3562 H3554 0.950 . S
C3562 C3560 1.391 . S
C3562 C3563 1.400 1_554 S
C3563 C3562 1.400 1_556 S
C3563 C3564 1.398 . S
C3563 C3569 1.491 . S
C3564 H3555 0.950 . S
C3564 C3563 1.398 . S
C3564 C3565 1.391 . S
C3565 H3553 0.950 . S
C3565 C3561 1.393 1_556 S
C3565 C3564 1.391 . S
C3566 H3556 0.950 . S
C3566 C3567 1.386 . S
C3566 C3568 1.391 . S
C3567 C3566 1.386 . S
C3567 C3571 1.393 . S
C3568 H3557 0.950 . S
C3568 C3566 1.391 . S
C3568 C3569 1.400 . S
C3569 C3563 1.491 . S
C3569 C3568 1.400 . S
C3569 C3570 1.398 . S
C3570 H3558 0.950 1_556 S
C3570 C3569 1.398 . S
C3570 C3571 1.391 . S
C3571 H3559 0.950 . S
C3571 C3567 1.393 . S
C3571 C3570 1.391 . S
H3572 C3580 0.950 . S
H3573 C3585 0.950 . S
H3574 C3582 0.950 . S
H3575 C3584 0.950 . S
H3576 C3586 0.950 . S
H3577 C3588 0.950 . S
H3578 C3590 0.950 . S
H3579 C3591 0.950 . S
C3580 H3572 0.950 . S
C3580 C3581 1.386 . S
C3580 C3582 1.391 . S
C3581 C3580 1.386 . S
C3581 C3585 1.393 . S
C3582 H3574 0.950 . S
C3582 C3580 1.391 . S
C3582 C3583 1.400 . S
C3583 C3582 1.400 . S
C3583 C3584 1.398 . S
C3583 C3589 1.491 . S
C3584 H3575 0.950 . S
C3584 C3583 1.398 . S
C3584 C3585 1.391 . S
C3585 H3573 0.950 . S
C3585 C3581 1.393 . S
C3585 C3584 1.391 . S
C3586 H3576 0.950 . S
C3586 C3587 1.386 . S
C3586 C3588 1.391 . S
C3587 C3586 1.386 . S
C3587 C3591 1.393 . S
C3588 H3577 0.950 . S
C3588 C3586 1.391 . S
C3588 C3589 1.400 . S
C3589 C3583 1.491 . S
C3589 C3588 1.400 . S
C3589 C3590 1.398 . S
C3590 H3578 0.950 . S
C3590 C3589 1.398 . S
C3590 C3591 1.391 . S
C3591 H3579 0.950 . S
C3591 C3587 1.393 . S
C3591 C3590 1.391 . S
H3592 C3600 0.950 . S
H3593 C3605 0.950 . S
H3594 C3602 0.950 . S
H3595 C3604 0.950 . S
H3596 C3606 0.950 . S
H3597 C3608 0.950 . S
H3598 C3610 0.950 . S
H3599 C3611 0.950 . S
C3600 H3592 0.950 . S
C3600 C3601 1.386 . S
C3600 C3602 1.391 . S
C3601 C3600 1.386 . S
C3601 C3605 1.393 . S
C3602 H3594 0.950 . S
C3602 C3600 1.391 . S
C3602 C3603 1.400 . S
C3603 C3602 1.400 . S
C3603 C3604 1.398 . S
C3603 C3609 1.491 . S
C3604 H3595 0.950 . S
C3604 C3603 1.398 . S
C3604 C3605 1.391 . S
C3605 H3593 0.950 . S
C3605 C3601 1.393 . S
C3605 C3604 1.391 . S
C3606 H3596 0.950 . S
C3606 C3607 1.386 . S
C3606 C3608 1.391 . S
C3607 C3606 1.386 . S
C3607 C3611 1.393 . S
C3608 H3597 0.950 . S
C3608 C3606 1.391 . S
C3608 C3609 1.400 . S
C3609 C3603 1.491 . S
C3609 C3608 1.400 . S
C3609 C3610 1.398 . S
C3610 H3598 0.950 . S
C3610 C3609 1.398 . S
C3610 C3611 1.391 . S
C3611 H3599 0.950 . S
C3611 C3607 1.393 . S
C3611 C3610 1.391 . S
H3612 C3620 0.950 . S
H3613 C3625 0.950 . S
H3614 C3622 0.950 . S
H3615 C3624 0.950 . S
H3616 C3626 0.950 . S
H3617 C3628 0.950 . S
H3618 C3630 0.950 . S
H3619 C3631 0.950 . S
C3620 H3612 0.950 . S
C3620 C3621 1.386 . S
C3620 C3622 1.391 . S
C3621 C3620 1.386 . S
C3621 C3625 1.393 . S
C3622 H3614 0.950 . S
C3622 C3620 1.391 . S
C3622 C3623 1.400 . S
C3623 C3622 1.400 . S
C3623 C3624 1.398 . S
C3623 C3629 1.491 . S
C3624 H3615 0.950 . S
C3624 C3623 1.398 . S
C3624 C3625 1.391 . S
C3625 H3613 0.950 . S
C3625 C3621 1.393 . S
C3625 C3624 1.391 . S
C3626 H3616 0.950 . S
C3626 C3627 1.386 . S
C3626 C3628 1.391 . S
C3627 C3626 1.386 . S
C3627 C3631 1.393 . S
C3628 H3617 0.950 . S
C3628 C3626 1.391 . S
C3628 C3629 1.400 . S
C3629 C3623 1.491 . S
C3629 C3628 1.400 . S
C3629 C3630 1.398 . S
C3630 H3618 0.950 . S
C3630 C3629 1.398 . S
C3630 C3631 1.391 . S
C3631 H3619 0.950 . S
C3631 C3627 1.393 . S
C3631 C3630 1.391 . S
H3632 C3640 0.950 . S
H3633 C3645 0.950 . S
H3634 C3642 0.950 . S
H3635 C3644 0.950 . S
H3636 C3646 0.950 . S
H3637 C3648 0.950 . S
H3638 C3650 0.950 . S
H3639 C3651 0.950 . S
C3640 H3632 0.950 . S
C3640 C3641 1.386 . S
C3640 C3642 1.391 . S
C3641 C3640 1.386 . S
C3641 C3645 1.393 . S
C3642 H3634 0.950 . S
C3642 C3640 1.391 . S
C3642 C3643 1.400 . S
C3643 C3642 1.400 . S
C3643 C3644 1.398 . S
C3643 C3649 1.491 . S
C3644 H3635 0.950 . S
C3644 C3643 1.398 . S
C3644 C3645 1.391 . S
C3645 H3633 0.950 . S
C3645 C3641 1.393 . S
C3645 C3644 1.391 . S
C3646 H3636 0.950 . S
C3646 C3647 1.386 . S
C3646 C3648 1.391 . S
C3647 C3646 1.386 . S
C3647 C3651 1.393 . S
C3648 H3637 0.950 . S
C3648 C3646 1.391 . S
C3648 C3649 1.400 . S
C3649 C3643 1.491 . S
C3649 C3648 1.400 . S
C3649 C3650 1.398 . S
C3650 H3638 0.950 . S
C3650 C3649 1.398 . S
C3650 C3651 1.391 . S
C3651 H3639 0.950 . S
C3651 C3647 1.393 . S
C3651 C3650 1.391 . S
H3652 C3660 0.950 . S
H3653 C3665 0.950 . S
H3654 C3662 0.950 . S
H3655 C3664 0.950 . S
H3656 C3666 0.950 . S
H3657 C3668 0.950 . S
H3658 C3670 0.950 . S
H3659 C3671 0.950 . S
C3660 H3652 0.950 . S
C3660 C3661 1.386 . S
C3660 C3662 1.391 . S
C3661 C3660 1.386 . S
C3661 C3665 1.393 . S
C3662 H3654 0.950 . S
C3662 C3660 1.391 . S
C3662 C3663 1.400 . S
C3663 C3662 1.400 . S
C3663 C3664 1.398 . S
C3663 C3669 1.491 . S
C3664 H3655 0.950 . S
C3664 C3663 1.398 . S
C3664 C3665 1.391 . S
C3665 H3653 0.950 . S
C3665 C3661 1.393 . S
C3665 C3664 1.391 . S
C3666 H3656 0.950 . S
C3666 C3667 1.386 . S
C3666 C3668 1.391 . S
C3667 C3666 1.386 . S
C3667 C3671 1.393 . S
C3668 H3657 0.950 . S
C3668 C3666 1.391 . S
C3668 C3669 1.400 . S
C3669 C3663 1.491 . S
C3669 C3668 1.400 . S
C3669 C3670 1.398 . S
C3670 H3658 0.950 . S
C3670 C3669 1.398 . S
C3670 C3671 1.391 . S
C3671 H3659 0.950 . S
C3671 C3667 1.393 . S
C3671 C3670 1.391 . S
H3672 C3680 0.950 . S
H3673 C3685 0.950 . S
H3674 C3682 0.950 . S
H3675 C3684 0.950 . S
H3676 C3686 0.950 . S
H3677 C3688 0.950 . S
H3678 C3690 0.950 . S
H3679 C3691 0.950 . S
C3680 H3672 0.950 . S
C3680 C3681 1.386 . S
C3680 C3682 1.391 . S
C3681 C3680 1.386 . S
C3681 C3685 1.393 . S
C3682 H3674 0.950 . S
C3682 C3680 1.391 . S
C3682 C3683 1.400 . S
C3683 C3682 1.400 . S
C3683 C3684 1.398 . S
C3683 C3689 1.491 . S
C3684 H3675 0.950 . S
C3684 C3683 1.398 . S
C3684 C3685 1.391 . S
C3685 H3673 0.950 . S
C3685 C3681 1.393 . S
C3685 C3684 1.391 . S
C3686 H3676 0.950 . S
C3686 C3687 1.386 . S
C3686 C3688 1.391 . S
C3687 C3686 1.386 . S
C3687 C3691 1.393 . S
C3688 H3677 0.950 . S
C3688 C3686 1.391 . S
C3688 C3689 1.400 . S
C3689 C3683 1.491 . S
C3689 C3688 1.400 . S
C3689 C3690 1.398 . S
C3690 H3678 0.950 . S
C3690 C3689 1.398 . S
C3690 C3691 1.391 . S
C3691 H3679 0.950 . S
C3691 C3687 1.393 . S
C3691 C3690 1.391 . S
H3692 C3700 0.950 . S
H3693 C3705 0.950 . S
H3694 C3702 0.950 . S
H3695 C3704 0.950 . S
H3696 C3706 0.950 . S
H3697 C3708 0.950 . S
H3698 C3710 0.950 . S
H3699 C3711 0.950 . S
C3700 H3692 0.950 . S
C3700 C3701 1.386 . S
C3700 C3702 1.391 . S
C3701 C3700 1.386 . S
C3701 C3705 1.393 . S
C3702 H3694 0.950 . S
C3702 C3700 1.391 . S
C3702 C3703 1.400 . S
C3703 C3702 1.400 . S
C3703 C3704 1.398 . S
C3703 C3709 1.491 . S
C3704 H3695 0.950 . S
C3704 C3703 1.398 . S
C3704 C3705 1.391 . S
C3705 H3693 0.950 . S
C3705 C3701 1.393 . S
C3705 C3704 1.391 . S
C3706 H3696 0.950 . S
C3706 C3707 1.386 . S
C3706 C3708 1.391 . S
C3707 C3706 1.386 . S
C3707 C3711 1.393 . S
C3708 H3697 0.950 . S
C3708 C3706 1.391 . S
C3708 C3709 1.400 . S
C3709 C3703 1.491 . S
C3709 C3708 1.400 . S
C3709 C3710 1.398 . S
C3710 H3698 0.950 . S
C3710 C3709 1.398 . S
C3710 C3711 1.391 . S
C3711 H3699 0.950 . S
C3711 C3707 1.393 . S
C3711 C3710 1.391 . S
H3712 C3720 0.950 . S
H3713 C3725 0.950 . S
H3714 C3722 0.950 . S
H3715 C3724 0.950 . S
H3716 C3726 0.950 . S
H3717 C3728 0.950 . S
H3718 C3730 0.950 . S
H3719 C3731 0.950 . S
C3720 H3712 0.950 . S
C3720 C3721 1.386 . S
C3720 C3722 1.391 . S
C3721 C3720 1.386 . S
C3721 C3725 1.393 . S
C3722 H3714 0.950 . S
C3722 C3720 1.391 . S
C3722 C3723 1.400 . S
C3723 C3722 1.400 . S
C3723 C3724 1.398 . S
C3723 C3729 1.491 . S
C3724 H3715 0.950 . S
C3724 C3723 1.398 . S
C3724 C3725 1.391 . S
C3725 H3713 0.950 . S
C3725 C3721 1.393 . S
C3725 C3724 1.391 . S
C3726 H3716 0.950 . S
C3726 C3727 1.386 . S
C3726 C3728 1.391 . S
C3727 C3726 1.386 . S
C3727 C3731 1.393 . S
C3728 H3717 0.950 . S
C3728 C3726 1.391 . S
C3728 C3729 1.400 . S
C3729 C3723 1.491 . S
C3729 C3728 1.400 . S
C3729 C3730 1.398 . S
C3730 H3718 0.950 . S
C3730 C3729 1.398 . S
C3730 C3731 1.391 . S
C3731 H3719 0.950 . S
C3731 C3727 1.393 . S
C3731 C3730 1.391 . S
H3732 C3740 0.950 . S
H3733 C3745 0.950 . S
H3734 C3742 0.950 . S
H3735 C3744 0.950 . S
H3736 C3746 0.950 . S
H3737 C3748 0.950 . S
H3738 C3750 0.950 . S
H3739 C3751 0.950 . S
C3740 H3732 0.950 . S
C3740 C3741 1.386 . S
C3740 C3742 1.391 . S
C3741 C3740 1.386 . S
C3741 C3745 1.393 . S
C3742 H3734 0.950 . S
C3742 C3740 1.391 . S
C3742 C3743 1.400 . S
C3743 C3742 1.400 . S
C3743 C3744 1.398 . S
C3743 C3749 1.491 . S
C3744 H3735 0.950 . S
C3744 C3743 1.398 . S
C3744 C3745 1.391 . S
C3745 H3733 0.950 . S
C3745 C3741 1.393 . S
C3745 C3744 1.391 . S
C3746 H3736 0.950 . S
C3746 C3747 1.386 . S
C3746 C3748 1.391 . S
C3747 C3746 1.386 . S
C3747 C3751 1.393 . S
C3748 H3737 0.950 . S
C3748 C3746 1.391 . S
C3748 C3749 1.400 . S
C3749 C3743 1.491 . S
C3749 C3748 1.400 . S
C3749 C3750 1.398 . S
C3750 H3738 0.950 . S
C3750 C3749 1.398 . S
C3750 C3751 1.391 . S
C3751 H3739 0.950 . S
C3751 C3747 1.393 . S
C3751 C3750 1.391 . S
H3752 C3760 0.950 . S
H3753 C3765 0.950 . S
H3754 C3762 0.950 . S
H3755 C3764 0.950 . S
H3756 C3766 0.949 1_554 S
H3757 C3768 0.950 . S
H3758 C3770 0.950 . S
H3759 C3771 0.958 1_554 S
C3760 H3752 0.950 . S
C3760 C3761 1.386 . S
C3760 C3762 1.391 . S
C3761 C3760 1.386 . S
C3761 C3765 1.393 . S
C3762 H3754 0.950 . S
C3762 C3760 1.391 . S
C3762 C3763 1.400 . S
C3763 C3762 1.400 . S
C3763 C3764 1.398 . S
C3763 C3769 1.491 . S
C3764 H3755 0.950 . S
C3764 C3763 1.398 . S
C3764 C3765 1.391 . S
C3765 H3753 0.950 . S
C3765 C3761 1.393 . S
C3765 C3764 1.391 . S
C3766 H3756 0.949 1_556 S
C3766 C3767 1.387 1_556 S
C3766 C3768 1.391 . S
C3767 C3766 1.387 1_554 S
C3767 C3771 1.389 1_554 S
C3768 H3757 0.950 . S
C3768 C3766 1.391 . S
C3768 C3769 1.400 . S
C3769 C3763 1.491 . S
C3769 C3768 1.400 . S
C3769 C3770 1.398 . S
C3770 H3758 0.950 . S
C3770 C3769 1.398 . S
C3770 C3771 1.391 . S
C3771 H3759 0.958 1_556 S
C3771 C3767 1.389 1_556 S
C3771 C3770 1.391 . S
H3772 C3780 0.950 . S
H3773 C3785 0.950 . S
H3774 C3782 0.950 . S
H3775 C3784 0.950 . S
H3776 C3786 0.950 . S
H3777 C3788 0.950 . S
H3778 C3790 0.950 . S
H3779 C3791 0.950 . S
C3780 H3772 0.950 . S
C3780 C3781 1.386 . S
C3780 C3782 1.391 . S
C3781 C3780 1.386 . S
C3781 C3785 1.393 . S
C3782 H3774 0.950 . S
C3782 C3780 1.391 . S
C3782 C3783 1.400 . S
C3783 C3782 1.400 . S
C3783 C3784 1.398 . S
C3783 C3789 1.491 . S
C3784 H3775 0.950 . S
C3784 C3783 1.398 . S
C3784 C3785 1.391 . S
C3785 H3773 0.950 . S
C3785 C3781 1.393 . S
C3785 C3784 1.391 . S
C3786 H3776 0.950 . S
C3786 C3787 1.386 . S
C3786 C3788 1.391 . S
C3787 C3786 1.386 . S
C3787 C3791 1.393 . S
C3788 H3777 0.950 . S
C3788 C3786 1.391 . S
C3788 C3789 1.400 . S
C3789 C3783 1.491 . S
C3789 C3788 1.400 . S
C3789 C3790 1.398 . S
C3790 H3778 0.950 . S
C3790 C3789 1.398 . S
C3790 C3791 1.391 . S
C3791 H3779 0.950 . S
C3791 C3787 1.393 . S
C3791 C3790 1.391 . S
H3792 C3800 0.950 . S
H3793 C3805 0.950 . S
H3794 C3802 0.950 . S
H3795 C3804 0.950 . S
H3796 C3806 0.950 . S
H3797 C3808 0.950 . S
H3798 C3810 0.950 . S
H3799 C3811 0.950 . S
C3800 H3792 0.950 . S
C3800 C3801 1.386 . S
C3800 C3802 1.391 . S
C3801 C3800 1.386 . S
C3801 C3805 1.393 . S
C3802 H3794 0.950 . S
C3802 C3800 1.391 . S
C3802 C3803 1.400 . S
C3803 C3802 1.400 . S
C3803 C3804 1.398 . S
C3803 C3809 1.491 . S
C3804 H3795 0.950 . S
C3804 C3803 1.398 . S
C3804 C3805 1.391 . S
C3805 H3793 0.950 . S
C3805 C3801 1.393 . S
C3805 C3804 1.391 . S
C3806 H3796 0.950 . S
C3806 C3807 1.386 . S
C3806 C3808 1.391 . S
C3807 C3806 1.386 . S
C3807 C3811 1.393 . S
C3808 H3797 0.950 . S
C3808 C3806 1.391 . S
C3808 C3809 1.400 . S
C3809 C3803 1.491 . S
C3809 C3808 1.400 . S
C3809 C3810 1.398 . S
C3810 H3798 0.950 . S
C3810 C3809 1.398 . S
C3810 C3811 1.391 . S
C3811 H3799 0.950 . S
C3811 C3807 1.393 . S
C3811 C3810 1.391 . S
H3812 C3820 0.950 . S
H3813 C3825 0.950 1_455 S
H3814 C3822 0.950 . S
H3815 C3824 0.950 . S
H3816 C3826 0.950 . S
H3817 C3828 0.950 . S
H3818 C3830 0.950 . S
H3819 C3831 0.950 . S
C3820 H3812 0.950 . S
C3820 C3821 1.414 . S
C3820 C3822 1.391 . S
C3821 C3820 1.414 . S
C3821 C3825 1.424 . S
C3822 H3814 0.950 . S
C3822 C3820 1.391 . S
C3822 C3823 1.400 . S
C3823 C3822 1.400 . S
C3823 C3824 1.398 . S
C3823 C3829 1.491 . S
C3824 H3815 0.950 . S
C3824 C3823 1.398 . S
C3824 C3825 1.391 . S
C3825 H3813 0.950 1_655 S
C3825 C3821 1.424 . S
C3825 C3824 1.391 . S
C3826 H3816 0.950 . S
C3826 C3827 1.386 . S
C3826 C3828 1.391 . S
C3827 C3826 1.386 . S
C3827 C3831 1.393 . S
C3828 H3817 0.950 . S
C3828 C3826 1.391 . S
C3828 C3829 1.400 . S
C3829 C3823 1.491 . S
C3829 C3828 1.400 . S
C3829 C3830 1.398 . S
C3830 H3818 0.950 . S
C3830 C3829 1.398 . S
C3830 C3831 1.391 . S
C3831 H3819 0.950 . S
C3831 C3827 1.393 . S
C3831 C3830 1.391 . S
H3832 C3840 0.950 . S
H3833 C3845 0.950 . S
H3834 C3842 0.950 . S
H3835 C3844 0.950 . S
H3836 C3846 0.950 . S
H3837 C3848 0.950 . S
H3838 C3850 0.950 1_655 S
H3839 C3851 0.950 . S
C3840 H3832 0.950 . S
C3840 C3841 1.386 . S
C3840 C3842 1.391 . S
C3841 C3840 1.386 . S
C3841 C3845 1.393 1_655 S
C3842 H3834 0.950 . S
C3842 C3840 1.391 . S
C3842 C3843 1.400 1_655 S
C3843 C3842 1.400 1_455 S
C3843 C3844 1.398 . S
C3843 C3849 1.491 . S
C3844 H3835 0.950 . S
C3844 C3843 1.398 . S
C3844 C3845 1.391 . S
C3845 H3833 0.950 . S
C3845 C3841 1.393 1_455 S
C3845 C3844 1.391 . S
C3846 H3836 0.950 . S
C3846 C3847 1.386 . S
C3846 C3848 1.391 . S
C3847 C3846 1.386 . S
C3847 C3851 1.393 . S
C3848 H3837 0.950 . S
C3848 C3846 1.391 . S
C3848 C3849 1.400 . S
C3849 C3843 1.491 . S
C3849 C3848 1.400 . S
C3849 C3850 1.398 . S
C3850 H3838 0.950 1_455 S
C3850 C3849 1.398 . S
C3850 C3851 1.391 . S
C3851 H3839 0.950 . S
C3851 C3847 1.393 . S
C3851 C3850 1.391 . S
H3852 C3860 0.950 . S
H3853 C3865 0.950 . S
H3854 C3862 0.950 . S
H3855 C3864 0.950 . S
H3856 C3866 0.950 . S
H3857 C3868 0.950 . S
H3858 C3870 0.950 . S
H3859 C3871 0.950 . S
C3860 H3852 0.950 . S
C3860 C3861 1.386 . S
C3860 C3862 1.391 . S
C3861 C3860 1.386 . S
C3861 C3865 1.393 . S
C3862 H3854 0.950 . S
C3862 C3860 1.391 . S
C3862 C3863 1.400 . S
C3863 C3862 1.400 . S
C3863 C3864 1.398 . S
C3863 C3869 1.491 . S
C3864 H3855 0.950 . S
C3864 C3863 1.398 . S
C3864 C3865 1.391 . S
C3865 H3853 0.950 . S
C3865 C3861 1.393 . S
C3865 C3864 1.391 . S
C3866 H3856 0.950 . S
C3866 C3867 1.386 . S
C3866 C3868 1.391 . S
C3867 C3866 1.386 . S
C3867 C3871 1.393 . S
C3868 H3857 0.950 . S
C3868 C3866 1.391 . S
C3868 C3869 1.400 . S
C3869 C3863 1.491 . S
C3869 C3868 1.400 . S
C3869 C3870 1.398 . S
C3870 H3858 0.950 . S
C3870 C3869 1.398 . S
C3870 C3871 1.391 . S
C3871 H3859 0.950 . S
C3871 C3867 1.393 . S
C3871 C3870 1.391 . S
H3872 C3880 0.950 . S
H3873 C3885 0.950 . S
H3874 C3882 0.950 . S
H3875 C3884 0.950 . S
H3876 C3886 0.950 . S
H3877 C3888 0.950 . S
H3878 C3890 0.950 . S
H3879 C3891 0.950 . S
C3880 H3872 0.950 . S
C3880 C3881 1.386 . S
C3880 C3882 1.391 . S
C3881 C3880 1.386 . S
C3881 C3885 1.393 . S
C3882 H3874 0.950 . S
C3882 C3880 1.391 . S
C3882 C3883 1.400 . S
C3883 C3882 1.400 . S
C3883 C3884 1.398 . S
C3883 C3889 1.491 . S
C3884 H3875 0.950 . S
C3884 C3883 1.398 . S
C3884 C3885 1.391 . S
C3885 H3873 0.950 . S
C3885 C3881 1.393 . S
C3885 C3884 1.391 . S
C3886 H3876 0.950 . S
C3886 C3887 1.386 . S
C3886 C3888 1.391 . S
C3887 C3886 1.386 . S
C3887 C3891 1.393 . S
C3888 H3877 0.950 . S
C3888 C3886 1.391 . S
C3888 C3889 1.400 . S
C3889 C3883 1.491 . S
C3889 C3888 1.400 . S
C3889 C3890 1.398 . S
C3890 H3878 0.950 . S
C3890 C3889 1.398 . S
C3890 C3891 1.391 . S
C3891 H3879 0.950 . S
C3891 C3887 1.393 . S
C3891 C3890 1.391 . S
H3892 C3900 0.950 . S
H3893 C3905 0.950 . S
H3894 C3902 0.950 . S
H3895 C3904 0.950 . S
H3896 C3906 0.950 . S
H3897 C3908 0.950 . S
H3898 C3910 0.950 . S
H3899 C3911 0.950 . S
C3900 H3892 0.950 . S
C3900 C3901 1.386 . S
C3900 C3902 1.391 . S
C3901 C3900 1.386 . S
C3901 C3905 1.393 . S
C3902 H3894 0.950 . S
C3902 C3900 1.391 . S
C3902 C3903 1.400 . S
C3903 C3902 1.400 . S
C3903 C3904 1.398 . S
C3903 C3909 1.491 . S
C3904 H3895 0.950 . S
C3904 C3903 1.398 . S
C3904 C3905 1.391 . S
C3905 H3893 0.950 . S
C3905 C3901 1.393 . S
C3905 C3904 1.391 . S
C3906 H3896 0.950 . S
C3906 C3907 1.386 . S
C3906 C3908 1.391 . S
C3907 C3906 1.386 . S
C3907 C3911 1.393 . S
C3908 H3897 0.950 . S
C3908 C3906 1.391 . S
C3908 C3909 1.400 . S
C3909 C3903 1.491 . S
C3909 C3908 1.400 . S
C3909 C3910 1.398 . S
C3910 H3898 0.950 . S
C3910 C3909 1.398 . S
C3910 C3911 1.391 . S
C3911 H3899 0.950 . S
C3911 C3907 1.393 . S
C3911 C3910 1.391 . S
H3912 C3920 0.950 . S
H3913 C3925 0.950 . S
H3914 C3922 0.950 . S
H3915 C3924 0.950 . S
H3916 C3926 0.950 . S
H3917 C3928 0.950 . S
H3918 C3930 0.950 . S
H3919 C3931 0.950 . S
C3920 H3912 0.950 . S
C3920 C3921 1.386 . S
C3920 C3922 1.391 . S
C3921 C3920 1.386 . S
C3921 C3925 1.393 . S
C3922 H3914 0.950 . S
C3922 C3920 1.391 . S
C3922 C3923 1.400 . S
C3923 C3922 1.400 . S
C3923 C3924 1.398 . S
C3923 C3929 1.491 . S
C3924 H3915 0.950 . S
C3924 C3923 1.398 . S
C3924 C3925 1.391 . S
C3925 H3913 0.950 . S
C3925 C3921 1.393 . S
C3925 C3924 1.391 . S
C3926 H3916 0.950 . S
C3926 C3927 1.386 . S
C3926 C3928 1.391 . S
C3927 C3926 1.386 . S
C3927 C3931 1.393 . S
C3928 H3917 0.950 . S
C3928 C3926 1.391 . S
C3928 C3929 1.400 . S
C3929 C3923 1.491 . S
C3929 C3928 1.400 . S
C3929 C3930 1.398 . S
C3930 H3918 0.950 . S
C3930 C3929 1.398 . S
C3930 C3931 1.391 . S
C3931 H3919 0.950 . S
C3931 C3927 1.393 . S
C3931 C3930 1.391 . S
H3932 C3940 0.950 . S
H3933 C3945 0.950 . S
H3934 C3942 0.950 . S
H3935 C3944 0.950 . S
H3936 C3946 0.950 . S
H3937 C3948 0.950 . S
H3938 C3950 0.950 . S
H3939 C3951 0.950 . S
C3940 H3932 0.950 . S
C3940 C3941 1.386 . S
C3940 C3942 1.391 . S
C3941 C3940 1.386 . S
C3941 C3945 1.393 . S
C3942 H3934 0.950 . S
C3942 C3940 1.391 . S
C3942 C3943 1.400 . S
C3943 C3942 1.400 . S
C3943 C3944 1.398 . S
C3943 C3949 1.491 . S
C3944 H3935 0.950 . S
C3944 C3943 1.398 . S
C3944 C3945 1.391 . S
C3945 H3933 0.950 . S
C3945 C3941 1.393 . S
C3945 C3944 1.391 . S
C3946 H3936 0.950 . S
C3946 C3947 1.386 . S
C3946 C3948 1.391 . S
C3947 C3946 1.386 . S
C3947 C3951 1.393 . S
C3948 H3937 0.950 . S
C3948 C3946 1.391 . S
C3948 C3949 1.400 . S
C3949 C3943 1.491 . S
C3949 C3948 1.400 . S
C3949 C3950 1.398 . S
C3950 H3938 0.950 . S
C3950 C3949 1.398 . S
C3950 C3951 1.391 . S
C3951 H3939 0.950 . S
C3951 C3947 1.393 . S
C3951 C3950 1.391 . S
H3952 C3960 0.950 . S
H3953 C3965 0.950 . S
H3954 C3962 0.950 . S
H3955 C3964 0.950 . S
H3956 C3966 0.950 . S
H3957 C3968 0.950 . S
H3958 C3970 0.950 . S
H3959 C3971 0.950 . S
C3960 H3952 0.950 . S
C3960 C3961 1.386 . S
C3960 C3962 1.391 . S
C3961 C3960 1.386 . S
C3961 C3965 1.393 . S
C3962 H3954 0.950 . S
C3962 C3960 1.391 . S
C3962 C3963 1.400 . S
C3963 C3962 1.400 . S
C3963 C3964 1.398 . S
C3963 C3969 1.491 . S
C3964 H3955 0.950 . S
C3964 C3963 1.398 . S
C3964 C3965 1.391 . S
C3965 H3953 0.950 . S
C3965 C3961 1.393 . S
C3965 C3964 1.391 . S
C3966 H3956 0.950 . S
C3966 C3967 1.386 . S
C3966 C3968 1.391 . S
C3967 C3966 1.386 . S
C3967 C3971 1.393 . S
C3968 H3957 0.950 . S
C3968 C3966 1.391 . S
C3968 C3969 1.400 . S
C3969 C3963 1.491 . S
C3969 C3968 1.400 . S
C3969 C3970 1.398 . S
C3970 H3958 0.950 . S
C3970 C3969 1.398 . S
C3970 C3971 1.391 . S
C3971 H3959 0.950 . S
C3971 C3967 1.393 . S
C3971 C3970 1.391 . S
H3972 C3980 0.950 . S
H3973 C3985 0.950 . S
H3974 C3982 0.950 . S
H3975 C3984 0.950 . S
H3976 C3986 0.950 . S
H3977 C3988 0.950 . S
H3978 C3990 0.950 . S
H3979 C3991 0.950 . S
C3980 H3972 0.950 . S
C3980 C3981 1.386 . S
C3980 C3982 1.391 . S
C3981 C3980 1.386 . S
C3981 C3985 1.393 . S
C3982 H3974 0.950 . S
C3982 C3980 1.391 . S
C3982 C3983 1.400 . S
C3983 C3982 1.400 . S
C3983 C3984 1.398 . S
C3983 C3989 1.491 . S
C3984 H3975 0.950 . S
C3984 C3983 1.398 . S
C3984 C3985 1.391 . S
C3985 H3973 0.950 . S
C3985 C3981 1.393 . S
C3985 C3984 1.391 . S
C3986 H3976 0.950 . S
C3986 C3987 1.386 . S
C3986 C3988 1.391 . S
C3987 C3986 1.386 . S
C3987 C3991 1.393 . S
C3988 H3977 0.950 . S
C3988 C3986 1.391 . S
C3988 C3989 1.400 . S
C3989 C3983 1.491 . S
C3989 C3988 1.400 . S
C3989 C3990 1.398 . S
C3990 H3978 0.950 . S
C3990 C3989 1.398 . S
C3990 C3991 1.391 . S
C3991 H3979 0.950 . S
C3991 C3987 1.393 . S
C3991 C3990 1.391 . S
H3992 C4000 0.950 . S
H3993 C4005 0.950 . S
H3994 C4002 0.950 . S
H3995 C4004 0.950 . S
H3996 C4006 0.950 . S
H3997 C4008 0.950 . S
H3998 C4010 0.950 . S
H3999 C4011 0.950 . S
C4000 H3992 0.950 . S
C4000 C4001 1.386 . S
C4000 C4002 1.391 . S
C4001 C4000 1.386 . S
C4001 C4005 1.393 . S
C4002 H3994 0.950 . S
C4002 C4000 1.391 . S
C4002 C4003 1.400 . S
C4003 C4002 1.400 . S
C4003 C4004 1.398 . S
C4003 C4009 1.491 . S
C4004 H3995 0.950 . S
C4004 C4003 1.398 . S
C4004 C4005 1.391 . S
C4005 H3993 0.950 . S
C4005 C4001 1.393 . S
C4005 C4004 1.391 . S
C4006 H3996 0.950 . S
C4006 C4007 1.386 . S
C4006 C4008 1.391 . S
C4007 C4006 1.386 . S
C4007 C4011 1.393 . S
C4008 H3997 0.950 . S
C4008 C4006 1.391 . S
C4008 C4009 1.400 . S
C4009 C4003 1.491 . S
C4009 C4008 1.400 . S
C4009 C4010 1.398 . S
C4010 H3998 0.950 . S
C4010 C4009 1.398 . S
C4010 C4011 1.391 . S
C4011 H3999 0.950 . S
C4011 C4007 1.393 . S
C4011 C4010 1.391 . S
H4012 C4020 0.950 . S
H4013 C4025 0.950 . S
H4014 C4022 0.950 . S
H4015 C4024 0.950 . S
H4016 C4026 0.950 . S
H4017 C4028 0.950 . S
H4018 C4030 0.950 . S
H4019 C4031 0.950 . S
C4020 H4012 0.950 . S
C4020 C4021 1.386 . S
C4020 C4022 1.391 . S
C4021 C4020 1.386 . S
C4021 C4025 1.393 . S
C4022 H4014 0.950 . S
C4022 C4020 1.391 . S
C4022 C4023 1.400 . S
C4023 C4022 1.400 . S
C4023 C4024 1.398 . S
C4023 C4029 1.491 . S
C4024 H4015 0.950 . S
C4024 C4023 1.398 . S
C4024 C4025 1.391 . S
C4025 H4013 0.950 . S
C4025 C4021 1.393 . S
C4025 C4024 1.391 . S
C4026 H4016 0.950 . S
C4026 C4027 1.386 . S
C4026 C4028 1.391 . S
C4027 C4026 1.386 . S
C4027 C4031 1.393 . S
C4028 H4017 0.950 . S
C4028 C4026 1.391 . S
C4028 C4029 1.400 . S
C4029 C4023 1.491 . S
C4029 C4028 1.400 . S
C4029 C4030 1.398 . S
C4030 H4018 0.950 . S
C4030 C4029 1.398 . S
C4030 C4031 1.391 . S
C4031 H4019 0.950 . S
C4031 C4027 1.393 . S
C4031 C4030 1.391 . S
H4032 C4040 0.950 . S
H4033 C4045 0.950 . S
H4034 C4042 0.950 . S
H4035 C4044 0.950 . S
H4036 C4046 0.950 . S
H4037 C4048 0.950 . S
H4038 C4050 0.950 . S
H4039 C4051 0.950 . S
C4040 H4032 0.950 . S
C4040 C4041 1.386 . S
C4040 C4042 1.391 . S
C4041 C4040 1.386 . S
C4041 C4045 1.393 . S
C4042 H4034 0.950 . S
C4042 C4040 1.391 . S
C4042 C4043 1.400 . S
C4043 C4042 1.400 . S
C4043 C4044 1.398 . S
C4043 C4049 1.491 . S
C4044 H4035 0.950 . S
C4044 C4043 1.398 . S
C4044 C4045 1.391 . S
C4045 H4033 0.950 . S
C4045 C4041 1.393 . S
C4045 C4044 1.391 . S
C4046 H4036 0.950 . S
C4046 C4047 1.386 . S
C4046 C4048 1.391 . S
C4047 C4046 1.386 . S
C4047 C4051 1.393 . S
C4048 H4037 0.950 . S
C4048 C4046 1.391 . S
C4048 C4049 1.400 . S
C4049 C4043 1.491 . S
C4049 C4048 1.400 . S
C4049 C4050 1.398 . S
C4050 H4038 0.950 . S
C4050 C4049 1.398 . S
C4050 C4051 1.391 . S
C4051 H4039 0.950 . S
C4051 C4047 1.393 . S
C4051 C4050 1.391 . S
H4052 C4060 0.950 . S
H4053 C4065 0.950 . S
H4054 C4062 0.950 . S
H4055 C4064 0.950 . S
H4056 C4066 0.950 . S
H4057 C4068 0.950 . S
H4058 C4070 0.950 . S
H4059 C4071 0.950 . S
C4060 H4052 0.950 . S
C4060 C4061 1.386 . S
C4060 C4062 1.391 . S
C4061 C4060 1.386 . S
C4061 C4065 1.393 . S
C4062 H4054 0.950 . S
C4062 C4060 1.391 . S
C4062 C4063 1.400 . S
C4063 C4062 1.400 . S
C4063 C4064 1.398 . S
C4063 C4069 1.491 . S
C4064 H4055 0.950 . S
C4064 C4063 1.398 . S
C4064 C4065 1.391 . S
C4065 H4053 0.950 . S
C4065 C4061 1.393 . S
C4065 C4064 1.391 . S
C4066 H4056 0.950 . S
C4066 C4067 1.386 . S
C4066 C4068 1.391 . S
C4067 C4066 1.386 . S
C4067 C4071 1.393 . S
C4068 H4057 0.950 . S
C4068 C4066 1.391 . S
C4068 C4069 1.400 . S
C4069 C4063 1.491 . S
C4069 C4068 1.400 . S
C4069 C4070 1.398 . S
C4070 H4058 0.950 . S
C4070 C4069 1.398 . S
C4070 C4071 1.391 . S
C4071 H4059 0.950 . S
C4071 C4067 1.393 . S
C4071 C4070 1.391 . S
H4072 C4080 0.950 . S
H4073 C4085 0.950 . S
H4074 C4082 0.950 . S
H4075 C4084 0.950 . S
H4076 C4086 0.950 . S
H4077 C4088 0.950 . S
H4078 C4090 0.950 . S
H4079 C4091 0.950 . S
C4080 H4072 0.950 . S
C4080 C4081 1.386 . S
C4080 C4082 1.391 . S
C4081 C4080 1.386 . S
C4081 C4085 1.393 . S
C4082 H4074 0.950 . S
C4082 C4080 1.391 . S
C4082 C4083 1.400 . S
C4083 C4082 1.400 . S
C4083 C4084 1.398 . S
C4083 C4089 1.491 . S
C4084 H4075 0.950 . S
C4084 C4083 1.398 . S
C4084 C4085 1.391 . S
C4085 H4073 0.950 . S
C4085 C4081 1.393 . S
C4085 C4084 1.391 . S
C4086 H4076 0.950 . S
C4086 C4087 1.386 . S
C4086 C4088 1.391 . S
C4087 C4086 1.386 . S
C4087 C4091 1.393 . S
C4088 H4077 0.950 . S
C4088 C4086 1.391 . S
C4088 C4089 1.400 . S
C4089 C4083 1.491 . S
C4089 C4088 1.400 . S
C4089 C4090 1.398 . S
C4090 H4078 0.950 . S
C4090 C4089 1.398 . S
C4090 C4091 1.391 . S
C4091 H4079 0.950 . S
C4091 C4087 1.393 . S
C4091 C4090 1.391 . S
H4092 C4100 0.950 . S
H4093 C4105 0.950 . S
H4094 C4102 0.950 . S
H4095 C4104 0.950 . S
H4096 C4106 0.950 . S
H4097 C4108 0.950 . S
H4098 C4110 0.950 . S
H4099 C4111 0.950 . S
C4100 H4092 0.950 . S
C4100 C4101 1.386 1_545 S
C4100 C4102 1.391 . S
C4101 C4100 1.386 1_565 S
C4101 C4105 1.393 . S
C4102 H4094 0.950 . S
C4102 C4100 1.391 . S
C4102 C4103 1.400 1_545 S
C4103 C4102 1.400 1_565 S
C4103 C4104 1.398 . S
C4103 C4109 1.491 1_565 S
C4104 H4095 0.950 . S
C4104 C4103 1.398 . S
C4104 C4105 1.391 . S
C4105 H4093 0.950 . S
C4105 C4101 1.393 . S
C4105 C4104 1.391 . S
C4106 H4096 0.950 . S
C4106 C4107 1.386 1_565 S
C4106 C4108 1.391 . S
C4107 C4106 1.386 1_545 S
C4107 C4111 1.393 . S
C4108 H4097 0.950 . S
C4108 C4106 1.391 . S
C4108 C4109 1.400 1_565 S
C4109 C4103 1.491 1_545 S
C4109 C4108 1.400 1_545 S
C4109 C4110 1.398 . S
C4110 H4098 0.950 . S
C4110 C4109 1.398 . S
C4110 C4111 1.391 . S
C4111 H4099 0.950 . S
C4111 C4107 1.393 . S
C4111 C4110 1.391 . S
H4112 C4120 0.950 . S
H4113 C4125 0.950 . S
H4114 C4122 0.950 . S
H4115 C4124 0.950 . S
H4116 C4126 0.950 . S
H4117 C4128 0.950 . S
H4118 C4130 0.950 . S
H4119 C4131 0.950 . S
C4120 H4112 0.950 . S
C4120 C4121 1.386 . S
C4120 C4122 1.391 . S
C4121 C4120 1.386 . S
C4121 C4125 1.393 . S
C4122 H4114 0.950 . S
C4122 C4120 1.391 . S
C4122 C4123 1.400 . S
C4123 C4122 1.400 . S
C4123 C4124 1.398 . S
C4123 C4129 1.491 . S
C4124 H4115 0.950 . S
C4124 C4123 1.398 . S
C4124 C4125 1.391 . S
C4125 H4113 0.950 . S
C4125 C4121 1.393 . S
C4125 C4124 1.391 . S
C4126 H4116 0.950 . S
C4126 C4127 1.386 . S
C4126 C4128 1.391 . S
C4127 C4126 1.386 . S
C4127 C4131 1.393 . S
C4128 H4117 0.950 . S
C4128 C4126 1.391 . S
C4128 C4129 1.400 . S
C4129 C4123 1.491 . S
C4129 C4128 1.400 . S
C4129 C4130 1.398 . S
C4130 H4118 0.950 . S
C4130 C4129 1.398 . S
C4130 C4131 1.391 . S
C4131 H4119 0.950 . S
C4131 C4127 1.393 . S
C4131 C4130 1.391 . S
H4132 C4140 0.950 . S
H4133 C4145 0.950 . S
H4134 C4142 0.950 . S
H4135 C4144 0.992 . S
H4136 C4146 0.950 . S
H4137 C4148 0.907 1_556 S
H4138 C4150 0.950 . S
H4139 C4151 0.950 . S
C4140 H4132 0.950 . S
C4140 C4141 1.386 . S
C4140 C4142 1.391 . S
C4141 C4140 1.386 . S
C4141 C4145 1.393 1_554 S
C4142 H4134 0.950 . S
C4142 C4140 1.391 . S
C4142 C4143 1.400 . S
C4143 C4142 1.400 . S
C4143 C4144 1.341 1_554 S
C4143 C4149 1.491 . S
C4144 H4135 0.992 . S
C4144 C4143 1.341 1_556 S
C4144 C4145 1.409 . S
C4145 H4133 0.950 . S
C4145 C4141 1.393 1_556 S
C4145 C4144 1.409 . S
C4146 H4136 0.950 . S
C4146 C4147 1.386 . S
C4146 C4148 1.391 . S
C4147 C4146 1.386 . S
C4147 C4151 1.393 . S
C4148 H4137 0.907 1_554 S
C4148 C4146 1.391 . S
C4148 C4149 1.400 . S
C4149 C4143 1.491 . S
C4149 C4148 1.400 . S
C4149 C4150 1.398 . S
C4150 H4138 0.950 . S
C4150 C4149 1.398 . S
C4150 C4151 1.391 . S
C4151 H4139 0.950 . S
C4151 C4147 1.393 . S
C4151 C4150 1.391 . S
H4152 C4160 0.950 . S
H4153 C4165 0.950 . S
H4154 C4162 0.950 . S
H4155 C4164 0.950 . S
H4156 C4166 0.950 . S
H4157 C4168 0.950 . S
H4158 C4170 0.950 . S
H4159 C4171 0.950 . S
C4160 H4152 0.950 . S
C4160 C4161 1.386 . S
C4160 C4162 1.391 . S
C4161 C4160 1.386 . S
C4161 C4165 1.393 . S
C4162 H4154 0.950 . S
C4162 C4160 1.391 . S
C4162 C4163 1.400 . S
C4163 C4162 1.400 . S
C4163 C4164 1.398 . S
C4163 C4169 1.491 . S
C4164 H4155 0.950 . S
C4164 C4163 1.398 . S
C4164 C4165 1.391 . S
C4165 H4153 0.950 . S
C4165 C4161 1.393 . S
C4165 C4164 1.391 . S
C4166 H4156 0.950 . S
C4166 C4167 1.386 . S
C4166 C4168 1.391 . S
C4167 C4166 1.386 . S
C4167 C4171 1.393 . S
C4168 H4157 0.950 . S
C4168 C4166 1.391 . S
C4168 C4169 1.400 . S
C4169 C4163 1.491 . S
C4169 C4168 1.400 . S
C4169 C4170 1.398 . S
C4170 H4158 0.950 . S
C4170 C4169 1.398 . S
C4170 C4171 1.391 . S
C4171 H4159 0.950 . S
C4171 C4167 1.393 . S
C4171 C4170 1.391 . S
H4172 C4180 0.950 . S
H4173 C4185 0.950 . S
H4174 C4182 0.950 . S
H4175 C4184 0.950 . S
H4176 C4186 0.950 . S
H4177 C4188 0.950 . S
H4178 C4190 0.950 . S
H4179 C4191 0.950 . S
C4180 H4172 0.950 . S
C4180 C4181 1.386 . S
C4180 C4182 1.391 . S
C4181 C4180 1.386 . S
C4181 C4185 1.393 . S
C4182 H4174 0.950 . S
C4182 C4180 1.391 . S
C4182 C4183 1.400 . S
C4183 C4182 1.400 . S
C4183 C4184 1.398 . S
C4183 C4189 1.491 . S
C4184 H4175 0.950 . S
C4184 C4183 1.398 . S
C4184 C4185 1.391 . S
C4185 H4173 0.950 . S
C4185 C4181 1.393 . S
C4185 C4184 1.391 . S
C4186 H4176 0.950 . S
C4186 C4187 1.386 . S
C4186 C4188 1.391 . S
C4187 C4186 1.386 . S
C4187 C4191 1.393 . S
C4188 H4177 0.950 . S
C4188 C4186 1.391 . S
C4188 C4189 1.400 . S
C4189 C4183 1.491 . S
C4189 C4188 1.400 . S
C4189 C4190 1.398 . S
C4190 H4178 0.950 . S
C4190 C4189 1.398 . S
C4190 C4191 1.391 . S
C4191 H4179 0.950 . S
C4191 C4187 1.393 . S
C4191 C4190 1.391 . S
H4192 C4200 0.950 . S
H4193 C4205 0.950 . S
H4194 C4202 0.950 . S
H4195 C4204 0.950 . S
H4196 C4206 0.950 . S
H4197 C4208 0.950 . S
H4198 C4210 0.950 . S
H4199 C4211 0.950 . S
C4200 H4192 0.950 . S
C4200 C4201 1.386 . S
C4200 C4202 1.391 . S
C4201 C4200 1.386 . S
C4201 C4205 1.393 . S
C4202 H4194 0.950 . S
C4202 C4200 1.391 . S
C4202 C4203 1.400 . S
C4203 C4202 1.400 . S
C4203 C4204 1.398 . S
C4203 C4209 1.491 . S
C4204 H4195 0.950 . S
C4204 C4203 1.398 . S
C4204 C4205 1.391 . S
C4205 H4193 0.950 . S
C4205 C4201 1.393 . S
C4205 C4204 1.391 . S
C4206 H4196 0.950 . S
C4206 C4207 1.386 . S
C4206 C4208 1.391 . S
C4207 C4206 1.386 . S
C4207 C4211 1.393 . S
C4208 H4197 0.950 . S
C4208 C4206 1.391 . S
C4208 C4209 1.400 . S
C4209 C4203 1.491 . S
C4209 C4208 1.400 . S
C4209 C4210 1.398 . S
C4210 H4198 0.950 . S
C4210 C4209 1.398 . S
C4210 C4211 1.391 . S
C4211 H4199 0.950 . S
C4211 C4207 1.393 . S
C4211 C4210 1.391 . S
H4212 C4220 0.950 . S
H4213 C4225 0.950 . S
H4214 C4222 0.950 . S
H4215 C4224 0.950 . S
H4216 C4226 0.950 . S
H4217 C4228 0.950 . S
H4218 C4230 0.950 . S
H4219 C4231 0.950 . S
C4220 H4212 0.950 . S
C4220 C4221 1.386 . S
C4220 C4222 1.391 . S
C4221 C4220 1.386 . S
C4221 C4225 1.393 . S
C4222 H4214 0.950 . S
C4222 C4220 1.391 . S
C4222 C4223 1.400 . S
C4223 C4222 1.400 . S
C4223 C4224 1.398 . S
C4223 C4229 1.491 . S
C4224 H4215 0.950 . S
C4224 C4223 1.398 . S
C4224 C4225 1.391 . S
C4225 H4213 0.950 . S
C4225 C4221 1.393 . S
C4225 C4224 1.391 . S
C4226 H4216 0.950 . S
C4226 C4227 1.386 . S
C4226 C4228 1.391 . S
C4227 C4226 1.386 . S
C4227 C4231 1.393 . S
C4228 H4217 0.950 . S
C4228 C4226 1.391 . S
C4228 C4229 1.400 . S
C4229 C4223 1.491 . S
C4229 C4228 1.400 . S
C4229 C4230 1.398 . S
C4230 H4218 0.950 . S
C4230 C4229 1.398 . S
C4230 C4231 1.391 . S
C4231 H4219 0.950 . S
C4231 C4227 1.393 . S
C4231 C4230 1.391 . S
H4232 C4240 0.950 . S
H4233 C4245 0.950 . S
H4234 C4242 0.950 . S
H4235 C4244 0.998 . S
H4236 C4246 0.950 1_556 S
H4237 C4248 0.950 1_556 S
H4238 C4250 0.950 . S
H4239 C4251 0.950 . S
C4240 H4232 0.950 . S
C4240 C4241 1.386 . S
C4240 C4242 1.391 . S
C4241 C4240 1.386 . S
C4241 C4245 1.393 . S
C4242 H4234 0.950 . S
C4242 C4240 1.391 . S
C4242 C4243 1.400 . S
C4243 C4242 1.400 . S
C4243 C4244 1.398 . S
C4243 C4249 1.491 . S
C4244 H4235 0.998 . S
C4244 C4243 1.398 . S
C4244 C4245 1.391 . S
C4245 H4233 0.950 . S
C4245 C4241 1.393 . S
C4245 C4244 1.391 . S
C4246 H4236 0.950 1_554 S
C4246 C4247 1.386 . S
C4246 C4248 1.391 . S
C4247 C4246 1.386 . S
C4247 C4251 1.393 . S
C4248 H4237 0.950 1_554 S
C4248 C4246 1.391 . S
C4248 C4249 1.400 . S
C4249 C4243 1.491 . S
C4249 C4248 1.400 . S
C4249 C4250 1.398 . S
C4250 H4238 0.950 . S
C4250 C4249 1.398 . S
C4250 C4251 1.391 . S
C4251 H4239 0.950 . S
C4251 C4247 1.393 . S
C4251 C4250 1.391 . S
H4252 C4260 0.950 . S
H4253 C4265 0.950 . S
H4254 C4262 0.950 . S
H4255 C4264 0.950 . S
H4256 C4266 0.950 . S
H4257 C4268 0.950 . S
H4258 C4270 0.950 . S
H4259 C4271 0.950 . S
C4260 H4252 0.950 . S
C4260 C4261 1.386 . S
C4260 C4262 1.391 . S
C4261 C4260 1.386 . S
C4261 C4265 1.393 . S
C4262 H4254 0.950 . S
C4262 C4260 1.391 . S
C4262 C4263 1.400 . S
C4263 C4262 1.400 . S
C4263 C4264 1.398 . S
C4263 C4269 1.491 . S
C4264 H4255 0.950 . S
C4264 C4263 1.398 . S
C4264 C4265 1.391 . S
C4265 H4253 0.950 . S
C4265 C4261 1.393 . S
C4265 C4264 1.391 . S
C4266 H4256 0.950 . S
C4266 C4267 1.386 . S
C4266 C4268 1.391 . S
C4267 C4266 1.386 . S
C4267 C4271 1.393 . S
C4268 H4257 0.950 . S
C4268 C4266 1.391 . S
C4268 C4269 1.400 . S
C4269 C4263 1.491 . S
C4269 C4268 1.400 . S
C4269 C4270 1.398 . S
C4270 H4258 0.950 . S
C4270 C4269 1.398 . S
C4270 C4271 1.391 . S
C4271 H4259 0.950 . S
C4271 C4267 1.393 . S
C4271 C4270 1.391 . S
H4272 C4280 0.950 . S
H4273 C4285 0.950 . S
H4274 C4282 0.950 . S
H4275 C4284 0.950 . S
H4276 C4286 0.950 . S
H4277 C4288 0.950 . S
H4278 C4290 0.950 . S
H4279 C4291 0.950 . S
C4280 H4272 0.950 . S
C4280 C4281 1.386 . S
C4280 C4282 1.391 . S
C4281 C4280 1.386 . S
C4281 C4285 1.393 . S
C4282 H4274 0.950 . S
C4282 C4280 1.391 . S
C4282 C4283 1.400 . S
C4283 C4282 1.400 . S
C4283 C4284 1.398 . S
C4283 C4289 1.491 . S
C4284 H4275 0.950 . S
C4284 C4283 1.398 . S
C4284 C4285 1.391 . S
C4285 H4273 0.950 . S
C4285 C4281 1.393 . S
C4285 C4284 1.391 . S
C4286 H4276 0.950 . S
C4286 C4287 1.386 . S
C4286 C4288 1.391 . S
C4287 C4286 1.386 . S
C4287 C4291 1.393 . S
C4288 H4277 0.950 . S
C4288 C4286 1.391 . S
C4288 C4289 1.400 . S
C4289 C4283 1.491 . S
C4289 C4288 1.400 . S
C4289 C4290 1.398 . S
C4290 H4278 0.950 . S
C4290 C4289 1.398 . S
C4290 C4291 1.391 . S
C4291 H4279 0.950 . S
C4291 C4287 1.393 . S
C4291 C4290 1.391 . S
H4292 C4300 0.950 . S
H4293 C4305 0.950 . S
H4294 C4302 0.950 . S
H4295 C4304 0.950 . S
H4296 C4306 0.950 . S
H4297 C4308 0.950 . S
H4298 C4310 0.950 . S
H4299 C4311 0.950 . S
C4300 H4292 0.950 . S
C4300 C4301 1.386 . S
C4300 C4302 1.391 . S
C4301 C4300 1.386 . S
C4301 C4305 1.393 . S
C4302 H4294 0.950 . S
C4302 C4300 1.391 . S
C4302 C4303 1.400 . S
C4303 C4302 1.400 . S
C4303 C4304 1.398 . S
C4303 C4309 1.491 . S
C4304 H4295 0.950 . S
C4304 C4303 1.398 . S
C4304 C4305 1.391 . S
C4305 H4293 0.950 . S
C4305 C4301 1.393 . S
C4305 C4304 1.391 . S
C4306 H4296 0.950 . S
C4306 C4307 1.386 . S
C4306 C4308 1.391 . S
C4307 C4306 1.386 . S
C4307 C4311 1.393 . S
C4308 H4297 0.950 . S
C4308 C4306 1.391 . S
C4308 C4309 1.400 . S
C4309 C4303 1.491 . S
C4309 C4308 1.400 . S
C4309 C4310 1.398 . S
C4310 H4298 0.950 . S
C4310 C4309 1.398 . S
C4310 C4311 1.391 . S
C4311 H4299 0.950 . S
C4311 C4307 1.393 . S
C4311 C4310 1.391 . S
H4312 C4320 0.950 . S
H4313 C4325 0.950 . S
H4314 C4322 0.950 . S
H4315 C4324 0.950 . S
H4316 C4326 0.950 . S
H4317 C4328 0.950 . S
H4318 C4330 0.950 . S
H4319 C4331 0.950 . S
C4320 H4312 0.950 . S
C4320 C4321 1.386 . S
C4320 C4322 1.391 . S
C4321 C4320 1.386 . S
C4321 C4325 1.393 . S
C4322 H4314 0.950 . S
C4322 C4320 1.391 . S
C4322 C4323 1.400 . S
C4323 C4322 1.400 . S
C4323 C4324 1.398 . S
C4323 C4329 1.491 . S
C4324 H4315 0.950 . S
C4324 C4323 1.398 . S
C4324 C4325 1.391 . S
C4325 H4313 0.950 . S
C4325 C4321 1.393 . S
C4325 C4324 1.391 . S
C4326 H4316 0.950 . S
C4326 C4327 1.386 . S
C4326 C4328 1.391 . S
C4327 C4326 1.386 . S
C4327 C4331 1.393 . S
C4328 H4317 0.950 . S
C4328 C4326 1.391 . S
C4328 C4329 1.400 . S
C4329 C4323 1.491 . S
C4329 C4328 1.400 . S
C4329 C4330 1.398 . S
C4330 H4318 0.950 . S
C4330 C4329 1.398 . S
C4330 C4331 1.391 . S
C4331 H4319 0.950 . S
C4331 C4327 1.393 . S
C4331 C4330 1.391 . S
H4332 C4340 0.950 . S
H4333 C4345 0.950 . S
H4334 C4342 0.950 . S
H4335 C4344 0.950 . S
H4336 C4346 0.950 . S
H4337 C4348 0.950 . S
H4338 C4350 0.950 . S
H4339 C4351 0.950 . S
C4340 H4332 0.950 . S
C4340 C4341 1.386 . S
C4340 C4342 1.391 . S
C4341 C4340 1.386 . S
C4341 C4345 1.393 . S
C4342 H4334 0.950 . S
C4342 C4340 1.391 . S
C4342 C4343 1.400 . S
C4343 C4342 1.400 . S
C4343 C4344 1.398 . S
C4343 C4349 1.491 . S
C4344 H4335 0.950 . S
C4344 C4343 1.398 . S
C4344 C4345 1.391 . S
C4345 H4333 0.950 . S
C4345 C4341 1.393 . S
C4345 C4344 1.391 . S
C4346 H4336 0.950 . S
C4346 C4347 1.386 . S
C4346 C4348 1.391 . S
C4347 C4346 1.386 . S
C4347 C4351 1.393 . S
C4348 H4337 0.950 . S
C4348 C4346 1.391 . S
C4348 C4349 1.400 . S
C4349 C4343 1.491 . S
C4349 C4348 1.400 . S
C4349 C4350 1.398 . S
C4350 H4338 0.950 . S
C4350 C4349 1.398 . S
C4350 C4351 1.391 . S
C4351 H4339 0.950 . S
C4351 C4347 1.393 . S
C4351 C4350 1.391 . S
H4352 C4360 0.950 . S
H4353 C4365 0.950 . S
H4354 C4362 0.950 . S
H4355 C4364 0.950 . S
H4356 C4366 0.950 . S
H4357 C4368 0.950 . S
H4358 C4370 0.950 . S
H4359 C4371 0.950 . S
C4360 H4352 0.950 . S
C4360 C4361 1.386 . S
C4360 C4362 1.391 . S
C4361 C4360 1.386 . S
C4361 C4365 1.393 . S
C4362 H4354 0.950 . S
C4362 C4360 1.391 . S
C4362 C4363 1.400 . S
C4363 C4362 1.400 . S
C4363 C4364 1.398 . S
C4363 C4369 1.491 . S
C4364 H4355 0.950 . S
C4364 C4363 1.398 . S
C4364 C4365 1.391 . S
C4365 H4353 0.950 . S
C4365 C4361 1.393 . S
C4365 C4364 1.391 . S
C4366 H4356 0.950 . S
C4366 C4367 1.386 . S
C4366 C4368 1.391 . S
C4367 C4366 1.386 . S
C4367 C4371 1.393 . S
C4368 H4357 0.950 . S
C4368 C4366 1.391 . S
C4368 C4369 1.400 . S
C4369 C4363 1.491 . S
C4369 C4368 1.400 . S
C4369 C4370 1.398 . S
C4370 H4358 0.950 . S
C4370 C4369 1.398 . S
C4370 C4371 1.391 . S
C4371 H4359 0.950 . S
C4371 C4367 1.393 . S
C4371 C4370 1.391 . S
H4372 C4380 0.950 . S
H4373 C4385 0.950 . S
H4374 C4382 0.950 . S
H4375 C4384 0.950 . S
H4376 C4386 0.950 . S
H4377 C4388 0.950 . S
H4378 C4390 0.950 . S
H4379 C4391 0.950 . S
C4380 H4372 0.950 . S
C4380 C4381 1.386 . S
C4380 C4382 1.391 . S
C4381 C4380 1.386 . S
C4381 C4385 1.393 . S
C4382 H4374 0.950 . S
C4382 C4380 1.391 . S
C4382 C4383 1.400 . S
C4383 C4382 1.400 . S
C4383 C4384 1.398 . S
C4383 C4389 1.491 . S
C4384 H4375 0.950 . S
C4384 C4383 1.398 . S
C4384 C4385 1.391 . S
C4385 H4373 0.950 . S
C4385 C4381 1.393 . S
C4385 C4384 1.391 . S
C4386 H4376 0.950 . S
C4386 C4387 1.386 . S
C4386 C4388 1.391 . S
C4387 C4386 1.386 . S
C4387 C4391 1.393 . S
C4388 H4377 0.950 . S
C4388 C4386 1.391 . S
C4388 C4389 1.400 . S
C4389 C4383 1.491 . S
C4389 C4388 1.400 . S
C4389 C4390 1.398 . S
C4390 H4378 0.950 . S
C4390 C4389 1.398 . S
C4390 C4391 1.391 . S
C4391 H4379 0.950 . S
C4391 C4387 1.393 . S
C4391 C4390 1.391 . S
H4392 C4400 0.950 . S
H4393 C4405 0.950 . S
H4394 C4402 0.950 . S
H4395 C4404 0.950 . S
H4396 C4406 0.950 . S
H4397 C4408 0.950 . S
H4398 C4410 0.955 . S
H4399 C4411 0.950 . S
C4400 H4392 0.950 . S
C4400 C4401 1.386 . S
C4400 C4402 1.391 . S
C4401 C4400 1.386 . S
C4401 C4405 1.393 . S
C4402 H4394 0.950 . S
C4402 C4400 1.391 . S
C4402 C4403 1.400 . S
C4403 C4402 1.400 . S
C4403 C4404 1.398 . S
C4403 C4409 1.491 1_655 S
C4404 H4395 0.950 . S
C4404 C4403 1.398 . S
C4404 C4405 1.391 . S
C4405 H4393 0.950 . S
C4405 C4401 1.393 . S
C4405 C4404 1.391 . S
C4406 H4396 0.950 . S
C4406 C4407 1.386 . S
C4406 C4408 1.391 . S
C4407 C4406 1.386 . S
C4407 C4411 1.393 . S
C4408 H4397 0.950 . S
C4408 C4406 1.391 . S
C4408 C4409 1.400 . S
C4409 C4403 1.491 1_455 S
C4409 C4408 1.400 . S
C4409 C4410 1.398 . S
C4410 H4398 0.955 . S
C4410 C4409 1.398 . S
C4410 C4411 1.391 . S
C4411 H4399 0.950 . S
C4411 C4407 1.393 . S
C4411 C4410 1.391 . S
H4412 C4420 0.950 . S
H4413 C4425 0.950 . S
H4414 C4422 0.950 . S
H4415 C4424 0.950 . S
H4416 C4426 0.950 . S
H4417 C4428 0.950 . S
H4418 C4430 0.950 . S
H4419 C4431 0.950 . S
C4420 H4412 0.950 . S
C4420 C4421 1.386 . S
C4420 C4422 1.391 . S
C4421 C4420 1.386 . S
C4421 C4425 1.393 . S
C4422 H4414 0.950 . S
C4422 C4420 1.391 . S
C4422 C4423 1.400 . S
C4423 C4422 1.400 . S
C4423 C4424 1.398 . S
C4423 C4429 1.491 . S
C4424 H4415 0.950 . S
C4424 C4423 1.398 . S
C4424 C4425 1.391 . S
C4425 H4413 0.950 . S
C4425 C4421 1.393 . S
C4425 C4424 1.391 . S
C4426 H4416 0.950 . S
C4426 C4427 1.386 . S
C4426 C4428 1.391 . S
C4427 C4426 1.386 . S
C4427 C4431 1.393 . S
C4428 H4417 0.950 . S
C4428 C4426 1.391 . S
C4428 C4429 1.400 . S
C4429 C4423 1.491 . S
C4429 C4428 1.400 . S
C4429 C4430 1.398 . S
C4430 H4418 0.950 . S
C4430 C4429 1.398 . S
C4430 C4431 1.391 . S
C4431 H4419 0.950 . S
C4431 C4427 1.393 . S
C4431 C4430 1.391 . S
H4432 C4440 0.950 . S
H4433 C4445 0.950 . S
H4434 C4442 0.950 . S
H4435 C4444 0.950 . S
H4436 C4446 0.950 . S
H4437 C4448 0.950 . S
H4438 C4450 0.950 . S
H4439 C4451 0.950 . S
C4440 H4432 0.950 . S
C4440 C4441 1.386 . S
C4440 C4442 1.391 . S
C4441 C4440 1.386 . S
C4441 C4445 1.393 . S
C4442 H4434 0.950 . S
C4442 C4440 1.391 . S
C4442 C4443 1.400 . S
C4443 C4442 1.400 . S
C4443 C4444 1.398 . S
C4443 C4449 1.491 . S
C4444 H4435 0.950 . S
C4444 C4443 1.398 . S
C4444 C4445 1.391 . S
C4445 H4433 0.950 . S
C4445 C4441 1.393 . S
C4445 C4444 1.391 . S
C4446 H4436 0.950 . S
C4446 C4447 1.386 . S
C4446 C4448 1.391 . S
C4447 C4446 1.386 . S
C4447 C4451 1.393 . S
C4448 H4437 0.950 . S
C4448 C4446 1.391 . S
C4448 C4449 1.400 . S
C4449 C4443 1.491 . S
C4449 C4448 1.400 . S
C4449 C4450 1.398 . S
C4450 H4438 0.950 . S
C4450 C4449 1.398 . S
C4450 C4451 1.391 . S
C4451 H4439 0.950 . S
C4451 C4447 1.393 . S
C4451 C4450 1.391 . S
H4452 C4460 0.950 . S
H4453 C4465 0.950 . S
H4454 C4462 0.950 . S
H4455 C4464 0.950 . S
H4456 C4466 0.950 . S
H4457 C4468 0.950 . S
H4458 C4470 0.950 . S
H4459 C4471 0.950 . S
C4460 H4452 0.950 . S
C4460 C4461 1.386 . S
C4460 C4462 1.391 . S
C4461 C4460 1.386 . S
C4461 C4465 1.393 . S
C4462 H4454 0.950 . S
C4462 C4460 1.391 . S
C4462 C4463 1.400 . S
C4463 C4462 1.400 . S
C4463 C4464 1.398 . S
C4463 C4469 1.491 . S
C4464 H4455 0.950 . S
C4464 C4463 1.398 . S
C4464 C4465 1.391 . S
C4465 H4453 0.950 . S
C4465 C4461 1.393 . S
C4465 C4464 1.391 . S
C4466 H4456 0.950 . S
C4466 C4467 1.386 . S
C4466 C4468 1.391 . S
C4467 C4466 1.386 . S
C4467 C4471 1.393 . S
C4468 H4457 0.950 . S
C4468 C4466 1.391 . S
C4468 C4469 1.400 . S
C4469 C4463 1.491 . S
C4469 C4468 1.400 . S
C4469 C4470 1.398 . S
C4470 H4458 0.950 . S
C4470 C4469 1.398 . S
C4470 C4471 1.391 . S
C4471 H4459 0.950 . S
C4471 C4467 1.393 . S
C4471 C4470 1.391 . S
H4472 C4480 0.950 . S
H4473 C4485 0.950 . S
H4474 C4482 0.950 . S
H4475 C4484 0.950 . S
H4476 C4486 0.950 1_455 S
H4477 C4488 0.948 1_455 S
H4478 C4490 0.950 . S
H4479 C4491 0.950 . S
C4480 H4472 0.950 . S
C4480 C4481 1.386 . S
C4480 C4482 1.391 . S
C4481 C4480 1.386 . S
C4481 C4485 1.393 . S
C4482 H4474 0.950 . S
C4482 C4480 1.391 . S
C4482 C4483 1.400 . S
C4483 C4482 1.400 . S
C4483 C4484 1.398 . S
C4483 C4489 1.491 . S
C4484 H4475 0.950 . S
C4484 C4483 1.398 . S
C4484 C4485 1.391 . S
C4485 H4473 0.950 . S
C4485 C4481 1.393 . S
C4485 C4484 1.391 . S
C4486 H4476 0.950 1_655 S
C4486 C4487 1.386 . S
C4486 C4488 1.391 . S
C4487 C4486 1.386 . S
C4487 C4491 1.393 . S
C4488 H4477 0.948 1_655 S
C4488 C4486 1.391 . S
C4488 C4489 1.400 . S
C4489 C4483 1.491 . S
C4489 C4488 1.400 . S
C4489 C4490 1.398 . S
C4490 H4478 0.950 . S
C4490 C4489 1.398 . S
C4490 C4491 1.391 . S
C4491 H4479 0.950 . S
C4491 C4487 1.393 . S
C4491 C4490 1.391 . S
H4492 C4500 0.950 . S
H4493 C4505 0.950 . S
H4494 C4502 0.950 . S
H4495 C4504 0.950 . S
H4496 C4506 0.950 . S
H4497 C4508 0.950 . S
H4498 C4510 0.950 . S
H4499 C4511 0.950 . S
C4500 H4492 0.950 . S
C4500 C4501 1.386 . S
C4500 C4502 1.391 . S
C4501 C4500 1.386 . S
C4501 C4505 1.393 . S
C4502 H4494 0.950 . S
C4502 C4500 1.391 . S
C4502 C4503 1.400 . S
C4503 C4502 1.400 . S
C4503 C4504 1.398 . S
C4503 C4509 1.491 . S
C4504 H4495 0.950 . S
C4504 C4503 1.398 . S
C4504 C4505 1.391 . S
C4505 H4493 0.950 . S
C4505 C4501 1.393 . S
C4505 C4504 1.391 . S
C4506 H4496 0.950 . S
C4506 C4507 1.386 . S
C4506 C4508 1.391 . S
C4507 C4506 1.386 . S
C4507 C4511 1.393 . S
C4508 H4497 0.950 . S
C4508 C4506 1.391 . S
C4508 C4509 1.400 . S
C4509 C4503 1.491 . S
C4509 C4508 1.400 . S
C4509 C4510 1.398 . S
C4510 H4498 0.950 . S
C4510 C4509 1.398 . S
C4510 C4511 1.391 . S
C4511 H4499 0.950 . S
C4511 C4507 1.393 . S
C4511 C4510 1.391 . S
H4512 C4520 0.950 . S
H4513 C4525 0.950 . S
H4514 C4522 0.950 . S
H4515 C4524 0.950 . S
H4516 C4526 0.950 . S
H4517 C4528 0.950 . S
H4518 C4530 0.950 . S
H4519 C4531 0.950 . S
C4520 H4512 0.950 . S
C4520 C4521 1.386 . S
C4520 C4522 1.391 . S
C4521 C4520 1.386 . S
C4521 C4525 1.393 . S
C4522 H4514 0.950 . S
C4522 C4520 1.391 . S
C4522 C4523 1.400 . S
C4523 C4522 1.400 . S
C4523 C4524 1.398 . S
C4523 C4529 1.491 . S
C4524 H4515 0.950 . S
C4524 C4523 1.398 . S
C4524 C4525 1.391 . S
C4525 H4513 0.950 . S
C4525 C4521 1.393 . S
C4525 C4524 1.391 . S
C4526 H4516 0.950 . S
C4526 C4527 1.386 . S
C4526 C4528 1.391 . S
C4527 C4526 1.386 . S
C4527 C4531 1.393 . S
C4528 H4517 0.950 . S
C4528 C4526 1.391 . S
C4528 C4529 1.400 . S
C4529 C4523 1.491 . S
C4529 C4528 1.400 . S
C4529 C4530 1.398 . S
C4530 H4518 0.950 . S
C4530 C4529 1.398 . S
C4530 C4531 1.391 . S
C4531 H4519 0.950 . S
C4531 C4527 1.393 . S
C4531 C4530 1.391 . S
H4532 C4540 0.950 . S
H4533 C4545 0.950 . S
H4534 C4542 0.950 . S
H4535 C4544 0.950 . S
H4536 C4546 0.950 . S
H4537 C4548 0.950 . S
H4538 C4550 0.930 1_545 S
H4539 C4551 0.950 . S
C4540 H4532 0.950 . S
C4540 C4541 1.386 . S
C4540 C4542 1.391 . S
C4541 C4540 1.386 . S
C4541 C4545 1.393 . S
C4542 H4534 0.950 . S
C4542 C4540 1.391 . S
C4542 C4543 1.400 . S
C4543 C4542 1.400 . S
C4543 C4544 1.398 . S
C4543 C4549 1.491 . S
C4544 H4535 0.950 . S
C4544 C4543 1.398 . S
C4544 C4545 1.391 . S
C4545 H4533 0.950 . S
C4545 C4541 1.393 . S
C4545 C4544 1.391 . S
C4546 H4536 0.950 . S
C4546 C4547 1.386 1_565 S
C4546 C4548 1.391 . S
C4547 C4546 1.386 1_545 S
C4547 C4551 1.393 . S
C4548 H4537 0.950 . S
C4548 C4546 1.391 . S
C4548 C4549 1.400 . S
C4549 C4543 1.491 . S
C4549 C4548 1.400 . S
C4549 C4550 1.438 . S
C4550 H4538 0.930 1_565 S
C4550 C4549 1.438 . S
C4550 C4551 1.373 1_565 S
C4551 H4539 0.950 . S
C4551 C4547 1.393 . S
C4551 C4550 1.373 1_545 S
H4552 C4560 0.950 . S
H4553 C4565 0.950 . S
H4554 C4562 0.950 . S
H4555 C4564 0.950 . S
H4556 C4566 0.950 . S
H4557 C4568 0.950 . S
H4558 C4570 0.950 . S
H4559 C4571 0.950 . S
C4560 H4552 0.950 . S
C4560 C4561 1.386 . S
C4560 C4562 1.391 . S
C4561 C4560 1.386 . S
C4561 C4565 1.393 . S
C4562 H4554 0.950 . S
C4562 C4560 1.391 . S
C4562 C4563 1.400 . S
C4563 C4562 1.400 . S
C4563 C4564 1.398 . S
C4563 C4569 1.491 . S
C4564 H4555 0.950 . S
C4564 C4563 1.398 . S
C4564 C4565 1.391 . S
C4565 H4553 0.950 . S
C4565 C4561 1.393 . S
C4565 C4564 1.391 . S
C4566 H4556 0.950 . S
C4566 C4567 1.386 . S
C4566 C4568 1.391 . S
C4567 C4566 1.386 . S
C4567 C4571 1.393 . S
C4568 H4557 0.950 . S
C4568 C4566 1.391 . S
C4568 C4569 1.400 . S
C4569 C4563 1.491 . S
C4569 C4568 1.400 . S
C4569 C4570 1.398 . S
C4570 H4558 0.950 . S
C4570 C4569 1.398 . S
C4570 C4571 1.391 . S
C4571 H4559 0.950 . S
C4571 C4567 1.393 . S
C4571 C4570 1.391 . S
H4572 C4580 0.950 . S
H4573 C4585 0.950 . S
H4574 C4582 0.950 . S
H4575 C4584 0.950 . S
H4576 C4586 0.950 . S
H4577 C4588 0.950 . S
H4578 C4590 0.950 . S
H4579 C4591 0.950 . S
C4580 H4572 0.950 . S
C4580 C4581 1.386 1_554 S
C4580 C4582 1.391 . S
C4581 C4580 1.386 1_556 S
C4581 C4585 1.393 . S
C4582 H4574 0.950 . S
C4582 C4580 1.391 . S
C4582 C4583 1.400 . S
C4583 C4582 1.400 . S
C4583 C4584 1.398 1_554 S
C4583 C4589 1.491 . S
C4584 H4575 0.950 . S
C4584 C4583 1.398 1_556 S
C4584 C4585 1.391 . S
C4585 H4573 0.950 . S
C4585 C4581 1.393 . S
C4585 C4584 1.391 . S
C4586 H4576 0.950 . S
C4586 C4587 1.386 1_556 S
C4586 C4588 1.391 . S
C4587 C4586 1.386 1_554 S
C4587 C4591 1.393 . S
C4588 H4577 0.950 . S
C4588 C4586 1.391 . S
C4588 C4589 1.400 1_556 S
C4589 C4583 1.491 . S
C4589 C4588 1.400 1_554 S
C4589 C4590 1.398 . S
C4590 H4578 0.950 . S
C4590 C4589 1.398 . S
C4590 C4591 1.391 . S
C4591 H4579 0.950 . S
C4591 C4587 1.393 . S
C4591 C4590 1.391 . S
H4592 C4600 0.950 . S
H4593 C4605 0.950 . S
H4594 C4602 0.950 . S
H4595 C4604 0.950 . S
H4596 C4606 0.950 . S
H4597 C4608 0.950 . S
H4598 C4610 0.950 . S
H4599 C4611 0.950 . S
C4600 H4592 0.950 . S
C4600 C4601 1.386 . S
C4600 C4602 1.391 . S
C4601 C4600 1.386 . S
C4601 C4605 1.393 . S
C4602 H4594 0.950 . S
C4602 C4600 1.391 . S
C4602 C4603 1.400 . S
C4603 C4602 1.400 . S
C4603 C4604 1.398 . S
C4603 C4609 1.491 . S
C4604 H4595 0.950 . S
C4604 C4603 1.398 . S
C4604 C4605 1.391 . S
C4605 H4593 0.950 . S
C4605 C4601 1.393 . S
C4605 C4604 1.391 . S
C4606 H4596 0.950 . S
C4606 C4607 1.386 . S
C4606 C4608 1.391 . S
C4607 C4606 1.386 . S
C4607 C4611 1.393 . S
C4608 H4597 0.950 . S
C4608 C4606 1.391 . S
C4608 C4609 1.400 . S
C4609 C4603 1.491 . S
C4609 C4608 1.400 . S
C4609 C4610 1.398 . S
C4610 H4598 0.950 . S
C4610 C4609 1.398 . S
C4610 C4611 1.391 . S
C4611 H4599 0.950 . S
C4611 C4607 1.393 . S
C4611 C4610 1.391 . S
H4612 C4620 0.960 . S
H4613 C4625 0.950 . S
H4614 C4622 0.950 . S
H4615 C4624 0.950 . S
H4616 C4626 0.950 1_554 S
H4617 C4628 0.950 . S
H4618 C4630 0.950 . S
H4619 C4631 0.950 . S
C4620 H4612 0.960 . S
C4620 C4621 1.370 1_556 S
C4620 C4622 1.397 . S
C4621 C4620 1.370 1_554 S
C4621 C4625 1.393 . S
C4622 H4614 0.950 . S
C4622 C4620 1.397 . S
C4622 C4623 1.400 1_556 S
C4623 C4622 1.400 1_554 S
C4623 C4624 1.398 . S
C4623 C4629 1.491 1_554 S
C4624 H4615 0.950 . S
C4624 C4623 1.398 . S
C4624 C4625 1.391 . S
C4625 H4613 0.950 . S
C4625 C4621 1.393 . S
C4625 C4624 1.391 . S
C4626 H4616 0.950 1_556 S
C4626 C4627 1.386 . S
C4626 C4628 1.391 1_556 S
C4627 C4626 1.386 . S
C4627 C4631 1.393 . S
C4628 H4617 0.950 . S
C4628 C4626 1.391 1_554 S
C4628 C4629 1.400 1_554 S
C4629 C4623 1.491 1_556 S
C4629 C4628 1.400 1_556 S
C4629 C4630 1.398 . S
C4630 H4618 0.950 . S
C4630 C4629 1.398 . S
C4630 C4631 1.391 . S
C4631 H4619 0.950 . S
C4631 C4627 1.393 . S
C4631 C4630 1.391 . S
H4632 C4640 0.950 . S
H4633 C4645 0.950 . S
H4634 C4642 0.950 . S
H4635 C4644 0.950 . S
H4636 C4646 0.950 . S
H4637 C4648 0.950 . S
H4638 C4650 0.950 . S
H4639 C4651 0.950 . S
C4640 H4632 0.950 . S
C4640 C4641 1.386 . S
C4640 C4642 1.391 . S
C4641 C4640 1.386 . S
C4641 C4645 1.393 . S
C4642 H4634 0.950 . S
C4642 C4640 1.391 . S
C4642 C4643 1.400 . S
C4643 C4642 1.400 . S
C4643 C4644 1.398 . S
C4643 C4649 1.491 . S
C4644 H4635 0.950 . S
C4644 C4643 1.398 . S
C4644 C4645 1.391 . S
C4645 H4633 0.950 . S
C4645 C4641 1.393 . S
C4645 C4644 1.391 . S
C4646 H4636 0.950 . S
C4646 C4647 1.386 . S
C4646 C4648 1.391 . S
C4647 C4646 1.386 . S
C4647 C4651 1.393 . S
C4648 H4637 0.950 . S
C4648 C4646 1.391 . S
C4648 C4649 1.400 . S
C4649 C4643 1.491 . S
C4649 C4648 1.400 . S
C4649 C4650 1.398 . S
C4650 H4638 0.950 . S
C4650 C4649 1.398 . S
C4650 C4651 1.391 . S
C4651 H4639 0.950 . S
C4651 C4647 1.393 . S
C4651 C4650 1.391 . S
H4652 C4660 0.950 . S
H4653 C4665 0.950 . S
H4654 C4662 0.950 . S
H4655 C4664 0.950 . S
H4656 C4666 0.950 . S
H4657 C4668 0.950 . S
H4658 C4670 0.950 . S
H4659 C4671 0.950 . S
C4660 H4652 0.950 . S
C4660 C4661 1.386 . S
C4660 C4662 1.391 . S
C4661 C4660 1.386 . S
C4661 C4665 1.393 . S
C4662 H4654 0.950 . S
C4662 C4660 1.391 . S
C4662 C4663 1.400 . S
C4663 C4662 1.400 . S
C4663 C4664 1.398 . S
C4663 C4669 1.491 . S
C4664 H4655 0.950 . S
C4664 C4663 1.398 . S
C4664 C4665 1.391 . S
C4665 H4653 0.950 . S
C4665 C4661 1.393 . S
C4665 C4664 1.391 . S
C4666 H4656 0.950 . S
C4666 C4667 1.386 . S
C4666 C4668 1.391 . S
C4667 C4666 1.386 . S
C4667 C4671 1.393 . S
C4668 H4657 0.950 . S
C4668 C4666 1.391 . S
C4668 C4669 1.400 . S
C4669 C4663 1.491 . S
C4669 C4668 1.400 . S
C4669 C4670 1.398 . S
C4670 H4658 0.950 . S
C4670 C4669 1.398 . S
C4670 C4671 1.391 . S
C4671 H4659 0.950 . S
C4671 C4667 1.393 . S
C4671 C4670 1.391 . S
C2761 C665 2.207 . S
C2767 C2114 2.225 1_556 S
C2781 C381 2.043 . S
C2787 C2171 2.047 . S
C2801 C460 1.113 . S
C2807 C2194 1.121 . S
C2827 C2248 1.381 . S
C2821 C585 1.398 . S
C2841 C108 1.259 . S
C2847 C2288 1.234 . S
C2867 C2319 0.259 . S
C2861 C196 0.361 . S
C2887 C2371 1.268 . S
C2881 C313 1.244 . S
C2901 C49 1.686 . S
C2907 C2394 1.658 . S
C2927 C2131 2.407 . S
C2921 C1457 2.423 . S
C2941 C1545 0.311 . S
C2947 C2168 0.434 . S
C2967 C2211 1.342 . S
C2961 C1721 1.354 . S
C2987 C2234 1.379 . S
C2981 C1113 1.328 . S
C3001 C1428 1.863 . S
C3007 C2274 1.894 . S
C3027 C2322 1.454 . S
C3021 C1516 1.469 . S
C3047 C2368 0.397 . S
C3041 C1692 0.263 . S
C3067 C2411 1.997 . S
C3061 C1085 2.019 . S
C3087 C2128 1.450 1_565 S
C3081 C988 1.483 . S
C3101 C1817 1.957 . S
C3107 C2451 1.952 . S
C3127 C2483 2.518 . S
C3121 C2081 2.573 . S
C3147 C2514 0.555 1_655 S
C3141 C1993 0.600 . S
C3161 C761 1.348 . S
C3167 C2408 1.317 . S
C3181 C821 1.509 . S
C3187 C2208 1.489 . S
C3201 C2053 2.296 . S
C3207 C2571 2.270 . S
C3227 C2594 0.333 . S
C3221 C1868 0.330 . S
C3247 C2123 2.216 . S
C3241 C372 2.213 . S
C3267 C2602 2.043 . S
C3261 C645 2.037 . S
C3281 C577 1.086 . S
C3287 C2203 1.120 . S
C3301 C497 1.404 . S
C3307 C2559 1.392 . S
C3327 C2279 1.214 . S
C3321 C57 1.253 . S
C3341 C293 0.358 . S
C3347 C2488 0.251 . S
C3367 C2362 1.279 1_556 S
C3361 C205 1.263 . S
C3387 C2643 1.655 . S
C3381 C145 1.702 . S
C3407 C2122 2.396 . S
C3401 C909 2.412 1_545 S
C3427 C2599 0.431 . S
C3421 C1956 0.296 . S
C3441 C724 1.343 . S
C3447 C2202 1.334 . S
C3461 C1780 1.316 . S
C3467 C2563 1.374 . S
C3481 C937 1.856 . S
C3487 C2283 1.879 . S
C3507 C2491 1.442 . S
C3501 C1985 1.468 . S
C3521 C753 0.218 . S
C3527 C2359 0.384 . S
C3541 C1809 2.025 . S
C3547 C2642 2.006 . S
C3561 C1173 1.484 . S
C3567 C2119 1.455 . S
C3581 C1105 1.946 . S
C3587 C2442 1.942 . S
C3601 C1633 2.570 . S
C3607 C2314 2.516 . S
C3621 C1553 0.546 . S
C3627 C2523 0.551 . S
C3647 C2639 1.343 . S
C3641 C1729 1.367 . S
C3661 C1340 1.510 . S
C3667 C2199 1.487 . S
C3687 C2242 2.258 . S
C3681 C1604 2.285 . S
C3707 C2163 0.330 . S
C3701 C1252 0.318 . S
C3721 C489 2.213 . S
C3727 C2674 2.220 . S
C3747 C2611 2.045 . S
C3741 C557 2.044 . S
C3761 C636 1.085 . S
C3767 C2714 1.130 . S
C3781 C409 1.401 . S
C3787 C2568 1.391 . S
C3801 C284 1.256 . S
C3807 C2448 1.220 . S
C3827 C2479 0.261 . S
C3821 C20 0.275 1_655 S
C3847 C2531 1.276 . S
C3841 C137 1.245 . S
C3867 C2634 1.662 . S
C3861 C225 1.696 . S
C3887 C2691 2.405 . S
C3881 C1641 2.422 . S
C3901 C1193 0.251 . S
C3907 C2608 0.375 . S
C3927 C2731 1.337 . S
C3921 C1289 1.348 . S
C3947 C2554 1.380 . S
C3941 C1377 1.323 . S
C3967 C2434 1.889 . S
C3961 C1613 1.858 . S
C3981 C1164 1.470 . S
C3987 C2482 1.453 . S
C4007 C2528 0.308 . S
C4001 C1261 0.205 . S
C4021 C1349 2.018 . S
C4027 C2651 1.996 . S
C4047 C2688 1.454 . S
C4041 C1965 1.479 . S
C4061 C849 1.958 . S
C4067 C2291 1.952 . S
C4087 C2323 2.518 . S
C4081 C929 2.580 . S
C4107 C2354 0.553 . S
C4101 C1017 0.587 . S
C4127 C2648 1.347 . S
C4121 C1897 1.369 . S
C4141 C1789 1.510 . S
C4147 C2728 1.490 . S
C4167 C2251 2.266 . S
C4161 C900 2.283 . S
C4187 C2154 0.404 . S
C4181 C733 0.309 . S
C4201 C548 2.208 . S
C4207 C2683 2.219 . S
C4227 C2162 2.040 . S
C4221 C469 2.028 . S
C4241 C401 1.097 . S
C4247 C2723 1.114 . S
C4261 C673 1.396 . S
C4267 C2239 1.378 . S
C4281 C233 1.263 . S
C4287 C2439 1.234 . S
C4307 C2328 0.238 . S
C4301 C117 0.307 . S
C4321 C29 1.266 . S
C4327 C2522 1.284 . S
C4341 C321 1.683 . S
C4347 C2403 1.670 . S
C4367 C2682 2.403 . S
C4361 C2044 2.415 . S
C4381 C997 0.310 . S
C4387 C2159 0.461 . S
C4407 C2722 1.340 . S
C4401 C1877 1.350 . S
C4421 C812 1.320 . S
C4427 C2243 1.373 . S
C4441 C2073 1.846 . S
C4447 C2443 1.893 . S
C4467 C2331 1.448 . S
C4461 C1025 1.468 . S
C4481 C1905 0.203 . S
C4487 C2519 0.372 . S
C4507 C2402 1.998 . S
C4501 C841 2.020 . S
C4527 C2679 1.473 . S
C4521 C1525 1.488 . S
C4547 C2282 1.943 1_655 S
C4541 C1369 1.951 . S
C4561 C1465 2.570 . S
C4567 C2474 2.506 . S
C4587 C2363 0.554 . S
C4581 C1201 0.545 . S
C4601 C1281 1.350 . S
C4607 C2399 1.316 . S
C4621 C1076 1.502 . S
C4627 C2719 1.474 . S
C4647 C2562 2.261 . S
C4641 C1437 2.287 . S
C4667 C2603 0.373 . S
C4661 C1701 0.315 . S
