# Generated by pormake.
# Topology nia, (6,6)-cn, num edge types: 1
# Building blocks:
#     Node 0, Type 0, BuildingBlock: JUFBIX_clean_sbu_0, # of connection points: 6
#     Node 1, Type 0, BuildingBlock: JUFBIX_clean_sbu_0, # of connection points: 6
#     Node 2, Type 1, BuildingBlock: MIDCAF_clean_sbu_0, # of connection points: 6
#     Node 3, Type 1, BuildingBlock: MIDCAF_clean_sbu_0, # of connection points: 6
#     Edge 4, Type (0, 1), BuildingBlock: XUDNAN_clean_linker_2, # of connection points: 2
#     Edge 5, Type (0, 1), BuildingBlock: XUDNAN_clean_linker_2, # of connection points: 2
#     Edge 6, Type (0, 1), BuildingBlock: XUDNAN_clean_linker_2, # of connection points: 2
#     Edge 7, Type (0, 1), BuildingBlock: XUDNAN_clean_linker_2, # of connection points: 2
#     Edge 8, Type (0, 1), BuildingBlock: XUDNAN_clean_linker_2, # of connection points: 2
#     Edge 9, Type (0, 1), BuildingBlock: XUDNAN_clean_linker_2, # of connection points: 2
#     Edge 10, Type (0, 1), BuildingBlock: XUDNAN_clean_linker_2, # of connection points: 2
#     Edge 11, Type (0, 1), BuildingBlock: XUDNAN_clean_linker_2, # of connection points: 2
#     Edge 12, Type (0, 1), BuildingBlock: XUDNAN_clean_linker_2, # of connection points: 2
#     Edge 13, Type (0, 1), BuildingBlock: XUDNAN_clean_linker_2, # of connection points: 2
#     Edge 14, Type (0, 1), BuildingBlock: XUDNAN_clean_linker_2, # of connection points: 2
#     Edge 15, Type (0, 1), BuildingBlock: XUDNAN_clean_linker_2, # of connection points: 2
# Relax obj value: 0.149
# Max RMSD: 0.239
# Mean RMSD: 0.155
data_MOF--net-nia--node1-JUFBIX_clean_sbu_0--node2-MIDCAF_clean_sbu_0--edge1-XUDNAN_clean_linker_2
_symmetry_space_group_name_H-M    P1
_symmetry_Int_Tables_number       1
_symmetry_cell_setting            triclinic
loop_
_symmetry_equiv_pos_as_xyz
'x, y, z'
_cell_length_a     23.494564
_cell_length_b     23.494255
_cell_length_c     35.063423
_cell_angle_alpha  84.651645
_cell_angle_beta   84.816705
_cell_angle_gamma 119.8427
loop_
_atom_site_label
_atom_site_type_symbol
_atom_site_fract_x
_atom_site_fract_y
_atom_site_fract_z
_atom_type_partial_charge
Co0 Co 0.98221 0.94991 1.01087 0.0
C1 C 0.8965 0.95299 0.06853 0.0
Co2 Co 0.02128 0.04859 0.02866 0.0
C3 C 0.94886 0.85221 0.95997 0.0
C4 C 0.93078 0.80952 0.01967 0.0
N5 N 0.9518 0.86739 0.99622 0.0
N6 N 0.92751 0.7873 0.9599 0.0
C7 C 0.91608 0.76024 0.9974 0.0
H8 H 0.9636 0.88835 0.93407 0.0
H9 H 0.92699 0.80369 0.05093 0.0
C10 C 0.10715 0.04495 0.97081 0.0
N11 N 0.05218 0.13105 0.04347 0.0
C12 C 0.05494 0.1457 0.07985 0.0
C13 C 0.07539 0.18956 0.02019 0.0
N14 N 0.07836 0.21091 0.08016 0.0
C15 C 0.09124 0.23872 0.0427 0.0
C16 C 0.05438 0.96839 0.07211 0.0
O17 O 0.06014 0.98512 0.97379 0.0
O18 O 0.10155 0.0822 0.99312 0.0
O19 O 0.05947 0.02507 0.06843 0.0
O20 O 0.0243 0.92888 0.04892 0.0
O21 O 0.94055 0.01429 0.06398 0.0
H22 H 0.08033 0.19601 0.98888 0.0
H23 H 0.039 0.10908 0.10565 0.0
O24 O 0.90474 0.915 0.04814 0.0
O25 O 0.94 0.97158 0.97292 0.0
O26 O 0.98309 0.07154 0.9887 0.0
C27 C 0.94892 0.0298 0.96761 0.0
H28 H 0.89776 0.70837 1.00795 0.0
H29 H 0.11159 0.29104 0.03232 0.0
Co30 Co 0.04837 0.02523 0.52965 0.0
C31 C 0.02859 0.10279 0.47297 0.0
Co32 Co 0.95087 0.97331 0.51015 0.0
C33 C 0.14624 0.06596 0.58105 0.0
C34 C 0.18777 0.1196 0.52326 0.0
N35 N 0.13059 0.07124 0.54526 0.0
N36 N 0.21062 0.10959 0.58224 0.0
C37 C 0.23696 0.14352 0.54599 0.0
H38 H 0.1109 0.03164 0.60593 0.0
H39 H 0.19336 0.13657 0.49267 0.0
C40 C 0.97018 0.89566 0.56695 0.0
N41 N 0.86935 0.92752 0.49414 0.0
C42 C 0.85623 0.92919 0.45748 0.0
C43 C 0.811 0.88161 0.51607 0.0
N44 N 0.7922 0.88553 0.45563 0.0
C45 C 0.76348 0.85549 0.49241 0.0
C46 C 0.04853 0.96243 0.4666 0.0
O47 O 0.02629 0.94805 0.56524 0.0
O48 O 0.93069 0.8959 0.54454 0.0
O49 O 0.98814 0.94715 0.47019 0.0
O50 O 0.08455 -0.00397 0.49037 0.0
O51 O 0.97158 0.05119 0.47572 0.0
H52 H 0.8038 0.86725 0.54713 0.0
H53 H 0.89341 0.96028 0.43247 0.0
O54 O 0.06925 0.10165 0.49414 0.0
O55 O 0.01193 0.05429 0.56857 0.0
O56 O 0.91375 -0.00064 0.55062 0.0
C57 C 0.95054 0.03558 0.5732 0.0
H58 H 0.28837 0.18205 0.53651 0.0
H59 H 0.71178 0.81747 0.50153 0.0
Zn60 Zn 0.32156 0.70696 0.19485 0.0
Zn61 Zn 0.30742 0.68223 0.34322 0.0
Zn62 Zn 0.31128 0.69136 0.26969 0.0
C63 C 0.43862 0.7356 0.31422 0.0
C64 C 0.23077 0.55329 0.33084 0.0
O65 O 0.26395 0.75005 0.25157 0.0
O66 O 0.27183 0.75223 0.18801 0.0
C67 C 0.44987 0.76439 0.20724 0.0
O68 O 0.41504 0.7348 0.28235 0.0
O69 O 0.4004 0.71227 0.34632 0.0
O70 O 0.2465 0.58636 0.35836 0.0
O71 O 0.25049 0.5833 0.29537 0.0
O72 O 0.41877 0.75908 0.17905 0.0
O73 O 0.41793 0.74092 0.24223 0.0
O74 O 0.25531 0.58985 0.25504 0.0
O75 O 0.2726 0.61174 0.19089 0.0
C76 C 0.24681 0.57018 0.22183 0.0
O77 O 0.26452 0.74719 0.2915 0.0
O78 O 0.27605 0.74361 0.35344 0.0
C79 C 0.25226 0.76655 0.21831 0.0
C80 C 0.25779 0.76361 0.32501 0.0
Zn81 Zn 0.68188 0.29372 0.84382 0.0
Zn82 Zn 0.70877 0.32003 0.69608 0.0
Zn83 Zn 0.69459 0.30697 0.77093 0.0
C84 C 0.76611 0.44769 0.71111 0.0
C85 C 0.57294 0.24666 0.72224 0.0
O86 O 0.73874 0.24719 0.7922 0.0
O87 O 0.70096 0.22153 0.85506 0.0
C88 C 0.76989 0.4269 0.81828 0.0
O89 O 0.75277 0.41593 0.74586 0.0
O90 O 0.74893 0.41629 0.68303 0.0
O91 O 0.61399 0.26631 0.69137 0.0
O92 O 0.5932 0.25848 0.75514 0.0
O93 O 0.75224 0.38415 0.84818 0.0
O94 O 0.74978 0.40842 0.78618 0.0
O95 O 0.58669 0.25751 0.79552 0.0
O96 O 0.58935 0.27256 0.85678 0.0
C97 C 0.55668 0.25293 0.82939 0.0
O98 O 0.74546 0.25398 0.75142 0.0
O99 O 0.76648 0.2822 0.68754 0.0
C100 C 0.73247 0.21586 0.826 0.0
C101 C 0.77137 0.25246 0.71779 0.0
H102 H 0.03688 0.84539 0.09241 0.0
H103 H 0.13302 0.04381 0.12254 0.0
H104 H 0.18085 0.00782 0.17306 0.0
H105 H 0.00099 0.75403 0.19167 0.0
H106 H 0.01757 0.69318 0.17412 0.0
H107 H 0.98453 0.73273 0.14419 0.0
H108 H 0.08307 0.77135 0.08872 0.0
H109 H 0.11564 0.73124 0.11821 0.0
H110 H 0.16696 0.81837 0.09856 0.0
H111 H 0.22888 0.95221 0.21503 0.0
H112 H 0.27644 0.88509 0.24017 0.0
H113 H 0.14547 0.72436 0.18296 0.0
C114 C 0.06725 0.88122 0.10993 0.0
C115 C 0.08139 0.94743 0.10346 0.0
C116 C 0.12153 -0.00728 0.12701 0.0
C117 C 0.14854 0.97261 0.15594 0.0
C118 C 0.13405 0.90686 0.16129 0.0
C119 C 0.09404 0.86194 0.1389 0.0
C120 C 0.09012 0.79587 0.14769 0.0
C121 C 0.01907 0.74071 0.16549 0.0
C122 C 0.1155 0.77825 0.11114 0.0
C123 C 0.13661 0.81128 0.17727 0.0
C124 C 0.16065 0.875 0.18553 0.0
C125 C 0.20927 0.90179 0.2094 0.0
C126 C 0.23574 0.86339 0.22378 0.0
C127 C 0.21349 0.79948 0.21391 0.0
C128 C 0.16195 0.77261 0.19157 0.0
H129 H 0.30336 0.22494 0.60114 0.0
H130 H 0.19763 0.01145 0.63579 0.0
H131 H 0.26911 0.02447 0.68606 0.0
H132 H 0.45852 0.25443 0.60584 0.0
H133 H 0.48912 0.33144 0.62483 0.0
H134 H 0.42224 0.30543 0.59708 0.0
H135 H 0.34898 0.31312 0.65395 0.0
H136 H 0.41596 0.33912 0.682 0.0
H137 H 0.33547 0.26784 0.7015 0.0
H138 H 0.36692 0.05998 0.72178 0.0
H139 H 0.47791 0.11542 0.74221 0.0
H140 H 0.514 0.30604 0.68851 0.0
C141 C 0.2944 0.18122 0.62004 0.0
C142 C 0.2454 0.11729 0.61478 0.0
C143 C 0.23469 0.06087 0.6398 0.0
C144 C 0.27498 0.06788 0.66836 0.0
C145 C 0.3244 0.13177 0.67209 0.0
C146 C 0.33327 0.18755 0.64904 0.0
C147 C 0.39318 0.25018 0.65632 0.0
C148 C 0.44372 0.28749 0.6188 0.0
C149 C 0.37211 0.29521 0.67454 0.0
C150 C 0.41935 0.2207 0.68516 0.0
C151 C 0.37859 0.15239 0.69443 0.0
C152 C 0.39769 0.11362 0.71616 0.0
C153 C 0.46044 0.14538 0.72796 0.0
C154 C 0.50234 0.21505 0.71865 0.0
C155 C 0.48105 0.25301 0.69758 0.0
H156 H 0.05872 0.31249 0.08942 0.0
H157 H 0.12325 0.18679 0.14487 0.0
H158 H 0.15523 0.25554 0.19733 0.0
H159 H 0.18661 0.45938 0.10143 0.0
H160 H 0.13938 0.49946 0.11046 0.0
H161 H 0.10968 0.43262 0.08273 0.0
H162 H -0.00174 0.36876 0.13043 0.0
H163 H 0.02803 0.43569 0.15853 0.0
H164 H -0.00104 0.35206 0.18157 0.0
H165 H 0.19883 0.35083 0.2366 0.0
H166 H 0.25034 0.46231 0.25688 0.0
H167 H 0.15376 0.52194 0.17609 0.0
C168 C 0.07817 0.29867 0.11313 0.0
C169 C 0.08875 0.24475 0.11323 0.0
C170 C 0.11423 0.22773 0.14462 0.0
C171 C 0.13236 0.26641 0.1745 0.0
C172 C 0.12316 0.32085 0.1729 0.0
C173 C 0.09567 0.33618 0.14317 0.0
C174 C 0.09716 0.40072 0.14537 0.0
C175 C 0.13553 0.45097 0.1078 0.0
C176 C 0.02639 0.38855 0.15453 0.0
C177 C 0.13402 0.42194 0.17928 0.0
C178 C 0.14728 0.37473 0.19563 0.0
C179 C 0.18722 0.38732 0.22468 0.0
C180 C 0.21611 0.4505 0.23615 0.0
C181 C 0.20511 0.49982 0.21821 0.0
C182 C 0.16183 0.48436 0.19059 0.0
H183 H -0.00596 0.16091 0.58783 0.0
H184 H 0.84218 0.95515 0.62799 0.0
H185 H 0.79234 0.98934 0.67989 0.0
H186 H 0.00643 0.22241 0.68286 0.0
H187 H 0.01387 0.29916 0.66163 0.0
H188 H 0.04551 0.25788 0.63319 0.0
H189 H 0.97353 0.25573 0.5808 0.0
H190 H 0.94261 0.29767 0.60879 0.0
H191 H 0.88523 0.21947 0.59492 0.0
H192 H 0.75449 0.04682 0.72408 0.0
H193 H 0.71906 0.12219 0.7479 0.0
H194 H 0.88909 0.29005 0.67423 0.0
C195 C 0.95128 0.12319 0.60827 0.0
C196 C 0.92228 0.05554 0.60469 0.0
C197 C 0.86505 0.00726 0.63076 0.0
C198 C 0.83698 0.02619 0.66046 0.0
C199 C 0.86634 0.09362 0.66317 0.0
C200 C 0.92157 0.14146 0.63727 0.0
C201 C 0.93713 0.2108 0.64217 0.0
C202 C 0.00475 0.24985 0.65578 0.0
C203 C 0.9344 0.24805 0.60445 0.0
C204 C 0.8807 0.19456 0.67387 0.0
C205 C 0.84189 0.12687 0.68673 0.0
C206 C 0.78486 0.09992 0.71451 0.0
C207 C 0.76528 0.14296 0.72806 0.0
C208 C 0.8018 0.21154 0.71296 0.0
C209 C 0.86114 0.23776 0.68655 0.0
H210 H 0.79958 0.98466 0.07232 0.0
H211 H 0.85987 0.85686 0.1301 0.0
H212 H 0.7572 0.80482 0.17865 0.0
H213 H 0.71096 0.00359 0.15875 0.0
H214 H 0.64543 -0.0019 0.13338 0.0
H215 H 0.72823 0.03263 0.10727 0.0
H216 H 0.68239 0.94735 0.05998 0.0
H217 H 0.59964 0.91284 0.08578 0.0
H218 H 0.63361 0.85986 0.07922 0.0
H219 H 0.64468 0.76173 0.21803 0.0
H220 H 0.52585 0.72162 0.24003 0.0
H221 H 0.53613 0.87245 0.15382 0.0
C222 C 0.79156 0.94683 0.09583 0.0
C223 C 0.83745 0.92521 0.09826 0.0
C224 C 0.82502 0.87413 0.12833 0.0
C225 C 0.76724 0.84473 0.15604 0.0
C226 C 0.7222 0.86651 0.15278 0.0
C227 C 0.73333 0.91585 0.12313 0.0
C228 C 0.67352 0.92425 0.12312 0.0
C229 C 0.69058 -0.00622 0.13112 0.0
C230 C 0.64566 0.91021 0.08476 0.0
C231 C 0.62655 0.87106 0.15682 0.0
C232 C 0.65607 0.83943 0.17422 0.0
C233 C 0.62129 0.78663 0.20493 0.0
C234 C 0.55407 0.76447 0.21744 0.0
C235 C 0.52253 0.79469 0.19896 0.0
C236 C 0.55956 0.84916 0.16872 0.0
H237 H 0.85344 0.77714 0.57699 0.0
H238 H 0.03983 0.87815 0.62155 0.0
H239 H 0.00321 0.77711 0.66925 0.0
H240 H 0.74821 0.68356 0.66926 0.0
H241 H 0.69691 0.61132 0.64803 0.0
H242 H 0.73644 0.69298 0.61946 0.0
H243 H 0.79218 0.65661 0.56758 0.0
H244 H 0.75226 0.57481 0.59573 0.0
H245 H 0.84135 0.62148 0.5821 0.0
H246 H 0.94687 0.66059 0.71 0.0
H247 H 0.87993 0.53962 0.73583 0.0
H248 H 0.732 0.51911 0.66424 0.0
C249 C 0.88659 0.77841 0.59688 0.0
C250 C 0.94952 0.8356 0.5955 0.0
C251 C -0.00864 0.83483 0.62202 0.0
C252 C 0.97083 0.7778 0.64937 0.0
C253 C 0.90824 0.72219 0.64993 0.0
C254 C 0.86697 0.72229 0.62421 0.0
C255 C 0.8037 0.65562 0.62901 0.0
C256 C 0.74272 0.66124 0.64224 0.0
C257 C 0.79704 0.62537 0.59138 0.0
C258 C 0.81623 0.61723 0.66084 0.0
C259 C 0.87625 0.65633 0.67309 0.0
C260 C 0.8994 0.62986 0.70095 0.0
C261 C 0.861 0.56139 0.71571 0.0
C262 C 0.80051 0.52075 0.70245 0.0
C263 C 0.77764 0.54951 0.67529 0.0
H264 H 0.16895 0.96954 0.45724 0.0
H265 H -0.01106 0.9033 0.40629 0.0
H266 H 0.03131 0.8591 0.35708 0.0
H267 H 0.28454 0.01223 0.36549 0.0
H268 H 0.33159 0.98151 0.38864 0.0
H269 H 0.29151 0.01665 0.41605 0.0
H270 H 0.22946 0.90845 0.46652 0.0
H271 H 0.26951 0.87329 0.43944 0.0
H272 H 0.1801 0.82999 0.45033 0.0
H273 H 0.08803 0.81095 0.31793 0.0
H274 H 0.15089 0.75789 0.29572 0.0
H275 H 0.29278 0.85607 0.37231 0.0
C276 C 0.13904 0.94704 0.43524 0.0
C277 C 0.07582 0.94012 0.43553 0.0
C278 C 0.03766 0.90925 0.40662 0.0
C279 C 0.06147 0.88436 0.37837 0.0
C280 C 0.12364 0.89102 0.37928 0.0
C281 C 0.16187 0.92168 0.40701 0.0
C282 C 0.22378 0.91674 0.40426 0.0
C283 C 0.28657 0.98591 0.39292 0.0
C284 C 0.22576 0.8799 0.44238 0.0
C285 C 0.21316 0.87624 0.37172 0.0
C286 C 0.15594 0.863 0.357 0.0
C287 C 0.13363 0.82213 0.32869 0.0
C288 C 0.16979 0.79259 0.316 0.0
C289 C 0.22709 0.80396 0.33185 0.0
C290 C 0.2496 0.84745 0.35932 0.0
H291 H 0.22413 0.16447 0.96248 0.0
H292 H 0.12646 0.98255 0.91321 0.0
H293 H 0.22782 0.02278 0.86574 0.0
H294 H 0.32275 0.27673 0.87093 0.0
H295 H 0.39393 0.32521 0.89374 0.0
H296 H 0.3114 0.28535 0.92117 0.0
H297 H 0.34448 0.22531 0.97265 0.0
H298 H 0.42702 0.26527 0.94556 0.0
H299 H 0.37884 0.17591 0.95748 0.0
H300 H 0.34308 0.07767 0.8279 0.0
H301 H 0.46446 0.14127 0.8052 0.0
H302 H 0.48611 0.28828 0.87728 0.0
C303 C 0.2237 0.13353 0.94133 0.0
C304 C 0.16729 0.07046 0.94152 0.0
C305 C 0.16909 0.03108 0.91368 0.0
C306 C 0.22632 0.05365 0.88642 0.0
C307 C 0.28131 0.11581 0.88723 0.0
C308 C 0.2805 0.15518 0.914 0.0
C309 C 0.34773 0.21766 0.91069 0.0
C310 C 0.34369 0.27992 0.89839 0.0
C311 C 0.37618 0.22119 0.94885 0.0
C312 C 0.38695 0.20637 0.87866 0.0
C313 C 0.34755 0.14786 0.86505 0.0
C314 C 0.374 0.12455 0.8375 0.0
C315 C 0.44269 0.16142 0.82414 0.0
C316 C 0.48381 0.22084 0.83809 0.0
C317 C 0.45532 0.24381 0.86536 0.0
H318 H 0.13888 0.22481 0.46848 0.0
H319 H 0.96387 0.11778 0.41445 0.0
H320 H 0.00041 0.2198 0.36751 0.0
H321 H 0.13825 0.37523 0.46262 0.0
H322 H 0.22757 0.42674 0.45363 0.0
H323 H 0.18872 0.3442 0.48073 0.0
H324 H 0.25739 0.31561 0.43234 0.0
H325 H 0.29605 0.39801 0.40486 0.0
H326 H 0.25331 0.32643 0.38127 0.0
H327 H 0.05745 0.33747 0.32687 0.0
H328 H 0.12343 0.45889 0.30153 0.0
H329 H 0.25743 0.48416 0.38414 0.0
C330 C 0.10826 0.22246 0.44666 0.0
C331 C 0.04867 0.1633 0.44505 0.0
C332 C 0.00978 0.1627 0.41625 0.0
C333 C 0.03032 0.22028 0.38934 0.0
C334 C 0.08972 0.27788 0.39172 0.0
C335 C 0.12769 0.27915 0.41994 0.0
C336 C 0.18754 0.34745 0.41808 0.0
C337 C 0.18533 0.37501 0.456 0.0
C338 C 0.2524 0.3468 0.40856 0.0
C339 C 0.17716 0.38498 0.38473 0.0
C340 C 0.12115 0.34434 0.36932 0.0
C341 C 0.10151 0.36954 0.3387 0.0
C342 C 0.1393 0.43826 0.3243 0.0
C343 C 0.19533 0.48033 0.34089 0.0
C344 C 0.21472 0.45288 0.37093 0.0
H345 H 0.82229 0.00279 0.96746 0.0
H346 H 0.01823 0.10583 0.89838 0.0
H347 H 0.97736 0.14992 0.84735 0.0
H348 H 0.72384 0.96639 0.88505 0.0
H349 H 0.66399 0.98238 0.91001 0.0
H350 H 0.70527 0.94907 0.93729 0.0
H351 H 0.74571 0.04666 0.97659 0.0
H352 H 0.70442 0.07994 0.94968 0.0
H353 H 0.79202 0.13092 0.95111 0.0
H354 H 0.91854 0.19313 0.80788 0.0
H355 H 0.85062 0.24001 0.78677 0.0
H356 H 0.69373 0.11067 0.88239 0.0
C357 C 0.85572 0.03302 0.94098 0.0
C358 C 0.92278 0.05026 0.9361 0.0
C359 C 0.96633 0.09167 0.90199 0.0
C360 C 0.94346 0.11652 0.87291 0.0
C361 C 0.87698 0.09949 0.87862 0.0
C362 C 0.83378 0.0588 0.91192 0.0
C363 C 0.76736 0.05491 0.91341 0.0
C364 C 0.71183 0.98396 0.91131 0.0
C365 C 0.75152 0.07962 0.94983 0.0
C366 C 0.78085 0.102 0.8767 0.0
C367 C 0.84364 0.12583 0.85641 0.0
C368 C 0.86881 0.17386 0.82312 0.0
C369 C 0.82973 0.19988 0.81111 0.0
C370 C 0.76667 0.17828 0.83264 0.0
C371 C 0.74145 0.12739 0.8651 0.0
H372 H 0.69856 0.76643 0.44176 0.0
H373 H 0.81374 0.9755 0.39344 0.0
H374 H 0.74805 0.9542 0.33949 0.0
H375 H 0.66832 0.70209 0.34532 0.0
H376 H 0.58579 0.63633 0.36668 0.0
H377 H 0.65169 0.66591 0.3956 0.0
H378 H 0.58112 0.68956 0.44587 0.0
H379 H 0.51531 0.6596 0.41741 0.0
H380 H 0.54943 0.74201 0.42971 0.0
H381 H 0.65476 0.91331 0.29947 0.0
H382 H 0.54285 0.85812 0.27994 0.0
H383 H 0.49195 0.67586 0.35346 0.0
C384 C 0.71088 0.8073 0.41922 0.0
C385 C 0.76073 0.87246 0.42163 0.0
C386 C 0.77593 0.92506 0.39176 0.0
C387 C 0.73905 0.9133 0.36101 0.0
C388 C 0.68841 0.84844 0.36014 0.0
C389 C 0.67515 0.79618 0.38831 0.0
C390 C 0.6134 0.73274 0.38402 0.0
C391 C 0.63087 0.68124 0.37219 0.0
C392 C 0.56182 0.70443 0.42144 0.0
C393 C 0.59068 0.75845 0.35115 0.0
C394 C 0.63543 0.82478 0.33674 0.0
C395 C 0.62035 0.86096 0.3097 0.0
C396 C 0.55691 0.82936 0.29862 0.0
C397 C 0.50979 0.76282 0.315 0.0
C398 C 0.52806 0.72646 0.34005 0.0
H399 H 0.95169 0.68841 0.95079 0.0
H400 H 0.88035 0.80799 0.89545 0.0
H401 H 0.85024 0.73858 0.84328 0.0
H402 H 0.01422 0.65138 0.85858 0.0
H403 H 0.98818 0.56851 0.88159 0.0
H404 H 0.01562 0.63541 0.90968 0.0
H405 H 0.90458 0.56837 0.95754 0.0
H406 H 0.87713 0.50155 0.9298 0.0
H407 H 0.82717 0.53874 0.93901 0.0
H408 H 0.80852 0.64288 0.80499 0.0
H409 H 0.76015 0.53164 0.78501 0.0
H410 H 0.8641 0.47875 0.86382 0.0
C411 C 0.93112 0.70077 0.92716 0.0
C412 C 0.91809 0.75315 0.92702 0.0
C413 C 0.89122 0.76828 0.89574 0.0
C414 C 0.87413 0.72921 0.86603 0.0
C415 C 0.88578 0.67635 0.86767 0.0
C416 C 0.91469 0.66291 0.89723 0.0
C417 C 0.91602 0.59971 0.89493 0.0
C418 C 0.98778 0.61468 0.88563 0.0
C419 C 0.87898 0.54915 0.93252 0.0
C420 C 0.87926 0.57708 0.8611 0.0
C421 C 0.86337 0.62243 0.84505 0.0
C422 C 0.82247 0.60801 0.8165 0.0
C423 C 0.7955 0.54493 0.80512 0.0
C424 C 0.80969 0.49748 0.82234 0.0
C425 C 0.85373 0.51482 0.84963 0.0
loop_
_geom_bond_atom_site_label_1
_geom_bond_atom_site_label_2
_geom_bond_distance
_geom_bond_site_symmetry_2
_ccdc_geom_bond_type
Co0 N5 2.057 . S
Co0 O17 2.021 1_665 S
Co0 O20 2.062 1_656 S
Co0 O24 2.117 1_556 S
Co0 O25 2.020 1_565 S
C1 O21 1.259 1_565 S
C1 O24 1.258 . S
Co2 N11 2.057 . S
Co2 O18 2.117 1_554 S
Co2 O19 2.020 . S
Co2 O21 2.021 1_455 S
Co2 O26 2.063 1_554 S
C3 N5 1.316 . S
C3 N6 1.347 . S
C3 H8 0.931 1_655 S
C4 N5 1.375 . S
C4 C7 1.350 . S
C4 H9 0.930 . S
N5 Co0 2.057 . S
N5 C3 1.316 . S
N5 C4 1.375 . S
N6 C3 1.347 . S
N6 C7 1.373 . S
C7 C4 1.350 . S
C7 N6 1.373 . S
C7 H28 0.931 . S
H8 C3 0.931 1_455 S
H9 C4 0.930 . S
C10 O17 1.259 . S
C10 O18 1.258 . S
N11 Co2 2.057 . S
N11 C12 1.316 . S
N11 C13 1.375 . S
C12 N11 1.316 . S
C12 N14 1.347 . S
C12 H23 0.931 . S
C13 N11 1.375 . S
C13 C15 1.350 . S
C13 H22 0.930 . S
N14 C12 1.347 . S
N14 C15 1.373 . S
C15 C13 1.350 . S
C15 N14 1.373 . S
C15 H29 0.931 . S
C16 O19 1.256 1_565 S
C16 O20 1.255 . S
O17 Co0 2.021 1_445 S
O17 C10 1.259 . S
O18 Co2 2.117 1_556 S
O18 C10 1.258 . S
O19 Co2 2.020 . S
O19 C16 1.256 1_545 S
O20 Co0 2.062 1_454 S
O20 C16 1.255 . S
O21 C1 1.259 1_545 S
O21 Co2 2.021 1_655 S
H22 C13 0.930 . S
H23 C12 0.931 . S
O24 Co0 2.117 1_554 S
O24 C1 1.258 . S
O25 Co0 2.020 1_545 S
O25 C27 1.256 . S
O26 Co2 2.063 1_556 S
O26 C27 1.254 1_455 S
C27 O25 1.256 . S
C27 O26 1.254 1_655 S
H28 C7 0.931 . S
H29 C15 0.931 . S
Co30 N35 2.057 . S
Co30 O47 2.021 1_545 S
Co30 O50 2.062 1_545 S
Co30 O54 2.117 . S
Co30 O55 2.020 . S
C31 O51 1.259 . S
C31 O54 1.258 . S
Co32 N41 2.057 . S
Co32 O48 2.117 . S
Co32 O49 2.020 1_655 S
Co32 O51 2.021 1_665 S
Co32 O56 2.062 1_565 S
C33 N35 1.316 . S
C33 N36 1.347 . S
C33 H38 0.931 . S
C34 N35 1.375 . S
C34 C37 1.350 . S
C34 H39 0.930 . S
N35 Co30 2.057 . S
N35 C33 1.316 . S
N35 C34 1.375 . S
N36 C33 1.347 . S
N36 C37 1.373 . S
C37 C34 1.350 . S
C37 N36 1.373 . S
C37 H58 0.931 . S
H38 C33 0.931 . S
H39 C34 0.930 . S
C40 O47 1.259 1_655 S
C40 O48 1.258 . S
N41 Co32 2.057 . S
N41 C42 1.316 . S
N41 C43 1.375 . S
C42 N41 1.316 . S
C42 N44 1.347 . S
C42 H53 0.931 . S
C43 N41 1.375 . S
C43 C45 1.350 . S
C43 H52 0.930 . S
N44 C42 1.347 . S
N44 C45 1.373 . S
C45 C43 1.350 . S
C45 N44 1.373 . S
C45 H59 0.931 . S
C46 O49 1.256 . S
C46 O50 1.255 . S
O47 Co30 2.021 1_565 S
O47 C40 1.259 1_455 S
O48 Co32 2.117 . S
O48 C40 1.258 . S
O49 Co32 2.020 1_455 S
O49 C46 1.256 . S
O50 Co30 2.062 1_565 S
O50 C46 1.255 . S
O51 C31 1.259 . S
O51 Co32 2.021 1_445 S
H52 C43 0.930 . S
H53 C42 0.931 . S
O54 Co30 2.117 . S
O54 C31 1.258 . S
O55 Co30 2.020 . S
O55 C57 1.256 1_455 S
O56 Co32 2.062 1_545 S
O56 C57 1.255 . S
C57 O55 1.256 1_655 S
C57 O56 1.255 . S
H58 C37 0.931 . S
H59 C45 0.931 . S
Zn60 O66 1.920 . S
Zn60 O72 1.898 . S
Zn60 O75 1.905 . S
Zn61 O69 1.905 . S
Zn61 O70 1.898 . S
Zn61 O78 1.920 . S
Zn62 O65 2.080 . S
Zn62 O68 2.114 . S
Zn62 O71 2.120 . S
Zn62 O73 2.120 . S
Zn62 O74 2.114 . S
Zn62 O77 2.080 . S
C63 O68 1.166 . S
C63 O69 1.182 . S
C64 O70 1.167 . S
C64 O71 1.299 . S
O65 Zn62 2.080 . S
O65 C79 1.305 . S
O66 Zn60 1.920 . S
O66 C79 1.234 . S
C67 O72 1.167 . S
C67 O73 1.299 . S
O68 Zn62 2.114 . S
O68 C63 1.166 . S
O69 Zn61 1.905 . S
O69 C63 1.182 . S
O70 Zn61 1.898 . S
O70 C64 1.167 . S
O71 Zn62 2.120 . S
O71 C64 1.299 . S
O72 Zn60 1.898 . S
O72 C67 1.167 . S
O73 Zn62 2.120 . S
O73 C67 1.299 . S
O74 Zn62 2.114 . S
O74 C76 1.166 . S
O75 Zn60 1.905 . S
O75 C76 1.182 . S
C76 O74 1.166 . S
C76 O75 1.182 . S
O77 Zn62 2.080 . S
O77 C80 1.305 . S
O78 Zn61 1.920 . S
O78 C80 1.234 . S
C79 O65 1.305 . S
C79 O66 1.234 . S
C80 O77 1.305 . S
C80 O78 1.234 . S
Zn81 O87 1.920 . S
Zn81 O93 1.898 . S
Zn81 O96 1.905 . S
Zn82 O90 1.905 . S
Zn82 O91 1.898 . S
Zn82 O99 1.920 . S
Zn83 O86 2.080 . S
Zn83 O89 2.114 . S
Zn83 O92 2.120 . S
Zn83 O94 2.120 . S
Zn83 O95 2.114 . S
Zn83 O98 2.080 . S
C84 O89 1.166 . S
C84 O90 1.182 . S
C85 O91 1.167 . S
C85 O92 1.299 . S
O86 Zn83 2.080 . S
O86 C100 1.305 . S
O87 Zn81 1.920 . S
O87 C100 1.234 . S
C88 O93 1.167 . S
C88 O94 1.299 . S
O89 Zn83 2.114 . S
O89 C84 1.166 . S
O90 Zn82 1.905 . S
O90 C84 1.182 . S
O91 Zn82 1.898 . S
O91 C85 1.167 . S
O92 Zn83 2.120 . S
O92 C85 1.299 . S
O93 Zn81 1.898 . S
O93 C88 1.167 . S
O94 Zn83 2.120 . S
O94 C88 1.299 . S
O95 Zn83 2.114 . S
O95 C97 1.166 . S
O96 Zn81 1.905 . S
O96 C97 1.182 . S
C97 O95 1.166 . S
C97 O96 1.182 . S
O98 Zn83 2.080 . S
O98 C101 1.305 . S
O99 Zn82 1.920 . S
O99 C101 1.234 . S
C100 O86 1.305 . S
C100 O87 1.234 . S
C101 O98 1.305 . S
C101 O99 1.234 . S
H102 C114 0.930 . S
H103 C116 0.930 1_545 S
H104 C117 0.930 . S
H105 C121 0.959 . S
H106 C121 0.959 . S
H107 C121 0.961 . S
H108 C122 0.960 . S
H109 C122 0.961 . S
H110 C122 0.959 . S
H111 C125 0.929 . S
H112 C126 0.931 . S
H113 C128 0.930 . S
C114 H102 0.930 . S
C114 C115 1.399 . S
C114 C119 1.399 . S
C115 C114 1.399 . S
C115 C116 1.376 . S
C116 H103 0.930 1_565 S
C116 C115 1.376 . S
C116 C117 1.388 . S
C117 H104 0.930 . S
C117 C116 1.388 . S
C117 C118 1.390 . S
C118 C117 1.390 . S
C118 C119 1.394 . S
C118 C124 1.465 . S
C119 C114 1.399 . S
C119 C118 1.394 . S
C119 C120 1.516 . S
C120 C119 1.516 . S
C120 C121 1.502 . S
C120 C122 1.561 . S
C120 C123 1.526 . S
C121 H105 0.959 . S
C121 H106 0.959 . S
C121 H107 0.961 . S
C121 C120 1.502 . S
C122 H108 0.960 . S
C122 H109 0.961 . S
C122 H110 0.959 . S
C122 C120 1.561 . S
C123 C120 1.526 . S
C123 C124 1.396 . S
C123 C128 1.390 . S
C124 C118 1.465 . S
C124 C123 1.396 . S
C124 C125 1.399 . S
C125 H111 0.929 . S
C125 C124 1.399 . S
C125 C126 1.385 . S
C126 H112 0.931 . S
C126 C125 1.385 . S
C126 C127 1.389 . S
C127 C126 1.389 . S
C127 C128 1.387 . S
C128 H113 0.930 . S
C128 C123 1.390 . S
C128 C127 1.387 . S
H129 C141 0.930 . S
H130 C143 0.930 . S
H131 C144 0.930 . S
H132 C148 0.959 . S
H133 C148 0.959 . S
H134 C148 0.961 . S
H135 C149 0.960 . S
H136 C149 0.961 . S
H137 C149 0.959 . S
H138 C152 0.929 . S
H139 C153 0.931 . S
H140 C155 0.930 . S
C141 H129 0.930 . S
C141 C142 1.399 . S
C141 C146 1.399 . S
C142 C141 1.399 . S
C142 C143 1.376 . S
C143 H130 0.930 . S
C143 C142 1.376 . S
C143 C144 1.388 . S
C144 H131 0.930 . S
C144 C143 1.388 . S
C144 C145 1.390 . S
C145 C144 1.390 . S
C145 C146 1.394 . S
C145 C151 1.465 . S
C146 C141 1.399 . S
C146 C145 1.394 . S
C146 C147 1.516 . S
C147 C146 1.516 . S
C147 C148 1.502 . S
C147 C149 1.561 . S
C147 C150 1.526 . S
C148 H132 0.959 . S
C148 H133 0.959 . S
C148 H134 0.961 . S
C148 C147 1.502 . S
C149 H135 0.960 . S
C149 H136 0.961 . S
C149 H137 0.959 . S
C149 C147 1.561 . S
C150 C147 1.526 . S
C150 C151 1.396 . S
C150 C155 1.390 . S
C151 C145 1.465 . S
C151 C150 1.396 . S
C151 C152 1.399 . S
C152 H138 0.929 . S
C152 C151 1.399 . S
C152 C153 1.385 . S
C153 H139 0.931 . S
C153 C152 1.385 . S
C153 C154 1.389 . S
C154 C153 1.389 . S
C154 C155 1.387 . S
C155 H140 0.930 . S
C155 C150 1.390 . S
C155 C154 1.387 . S
H156 C168 0.930 . S
H157 C170 0.930 . S
H158 C171 0.930 . S
H159 C175 0.959 . S
H160 C175 0.959 . S
H161 C175 0.961 . S
H162 C176 0.960 . S
H163 C176 0.961 . S
H164 C176 0.959 . S
H165 C179 0.929 . S
H166 C180 0.931 . S
H167 C182 0.930 . S
C168 H156 0.930 . S
C168 C169 1.399 . S
C168 C173 1.399 . S
C169 C168 1.399 . S
C169 C170 1.376 . S
C170 H157 0.930 . S
C170 C169 1.376 . S
C170 C171 1.388 . S
C171 H158 0.930 . S
C171 C170 1.388 . S
C171 C172 1.390 . S
C172 C171 1.390 . S
C172 C173 1.394 . S
C172 C178 1.465 . S
C173 C168 1.399 . S
C173 C172 1.394 . S
C173 C174 1.516 . S
C174 C173 1.516 . S
C174 C175 1.502 . S
C174 C176 1.561 . S
C174 C177 1.526 . S
C175 H159 0.959 . S
C175 H160 0.959 . S
C175 H161 0.961 . S
C175 C174 1.502 . S
C176 H162 0.960 . S
C176 H163 0.961 . S
C176 H164 0.959 . S
C176 C174 1.561 . S
C177 C174 1.526 . S
C177 C178 1.396 . S
C177 C182 1.390 . S
C178 C172 1.465 . S
C178 C177 1.396 . S
C178 C179 1.399 . S
C179 H165 0.929 . S
C179 C178 1.399 . S
C179 C180 1.385 . S
C180 H166 0.931 . S
C180 C179 1.385 . S
C180 C181 1.389 . S
C181 C180 1.389 . S
C181 C182 1.387 . S
C182 H167 0.930 . S
C182 C177 1.390 . S
C182 C181 1.387 . S
H183 C195 0.930 . S
H184 C197 0.930 1_565 S
H185 C198 0.930 . S
H186 C202 0.959 . S
H187 C202 0.959 . S
H188 C202 0.961 . S
H189 C203 0.960 . S
H190 C203 0.961 . S
H191 C203 0.959 . S
H192 C206 0.929 . S
H193 C207 0.931 . S
H194 C209 0.930 . S
C195 H183 0.930 . S
C195 C196 1.399 . S
C195 C200 1.399 . S
C196 C195 1.399 . S
C196 C197 1.376 . S
C197 H184 0.930 1_545 S
C197 C196 1.376 . S
C197 C198 1.388 . S
C198 H185 0.930 . S
C198 C197 1.388 . S
C198 C199 1.390 . S
C199 C198 1.390 . S
C199 C200 1.394 . S
C199 C205 1.465 . S
C200 C195 1.399 . S
C200 C199 1.394 . S
C200 C201 1.516 . S
C201 C200 1.516 . S
C201 C202 1.502 1_655 S
C201 C203 1.561 . S
C201 C204 1.526 . S
C202 H186 0.959 . S
C202 H187 0.959 . S
C202 H188 0.961 . S
C202 C201 1.502 1_455 S
C203 H189 0.960 . S
C203 H190 0.961 . S
C203 H191 0.959 . S
C203 C201 1.561 . S
C204 C201 1.526 . S
C204 C205 1.396 . S
C204 C209 1.390 . S
C205 C199 1.465 . S
C205 C204 1.396 . S
C205 C206 1.399 . S
C206 H192 0.929 . S
C206 C205 1.399 . S
C206 C207 1.385 . S
C207 H193 0.931 . S
C207 C206 1.385 . S
C207 C208 1.389 . S
C208 C207 1.389 . S
C208 C209 1.387 . S
C209 H194 0.930 . S
C209 C204 1.390 . S
C209 C208 1.387 . S
H210 C222 0.930 . S
H211 C224 0.930 . S
H212 C225 0.930 . S
H213 C229 0.959 1_545 S
H214 C229 0.959 . S
H215 C229 0.961 1_545 S
H216 C230 0.960 . S
H217 C230 0.961 . S
H218 C230 0.959 . S
H219 C233 0.929 . S
H220 C234 0.931 . S
H221 C236 0.930 . S
C222 H210 0.930 . S
C222 C223 1.399 . S
C222 C227 1.399 . S
C223 C222 1.399 . S
C223 C224 1.376 . S
C224 H211 0.930 . S
C224 C223 1.376 . S
C224 C225 1.388 . S
C225 H212 0.930 . S
C225 C224 1.388 . S
C225 C226 1.390 . S
C226 C225 1.390 . S
C226 C227 1.394 . S
C226 C232 1.465 . S
C227 C222 1.399 . S
C227 C226 1.394 . S
C227 C228 1.516 . S
C228 C227 1.516 . S
C228 C229 1.502 . S
C228 C230 1.561 . S
C228 C231 1.526 . S
C229 H213 0.959 1_565 S
C229 H214 0.959 . S
C229 H215 0.961 1_565 S
C229 C228 1.502 . S
C230 H216 0.960 . S
C230 H217 0.961 . S
C230 H218 0.959 . S
C230 C228 1.561 . S
C231 C228 1.526 . S
C231 C232 1.396 . S
C231 C236 1.390 . S
C232 C226 1.465 . S
C232 C231 1.396 . S
C232 C233 1.399 . S
C233 H219 0.929 . S
C233 C232 1.399 . S
C233 C234 1.385 . S
C234 H220 0.931 . S
C234 C233 1.385 . S
C234 C235 1.389 . S
C235 C234 1.389 . S
C235 C236 1.387 . S
C236 H221 0.930 . S
C236 C231 1.390 . S
C236 C235 1.387 . S
H237 C249 0.930 . S
H238 C251 0.930 1_455 S
H239 C252 0.930 . S
H240 C256 0.959 . S
H241 C256 0.959 . S
H242 C256 0.961 . S
H243 C257 0.960 . S
H244 C257 0.961 . S
H245 C257 0.959 . S
H246 C260 0.929 . S
H247 C261 0.931 . S
H248 C263 0.930 . S
C249 H237 0.930 . S
C249 C250 1.399 . S
C249 C254 1.399 . S
C250 C249 1.399 . S
C250 C251 1.376 . S
C251 H238 0.930 1_655 S
C251 C250 1.376 . S
C251 C252 1.388 . S
C252 H239 0.930 . S
C252 C251 1.388 . S
C252 C253 1.390 . S
C253 C252 1.390 . S
C253 C254 1.394 . S
C253 C259 1.465 . S
C254 C249 1.399 . S
C254 C253 1.394 . S
C254 C255 1.516 . S
C255 C254 1.516 . S
C255 C256 1.502 . S
C255 C257 1.561 . S
C255 C258 1.526 . S
C256 H240 0.959 . S
C256 H241 0.959 . S
C256 H242 0.961 . S
C256 C255 1.502 . S
C257 H243 0.960 . S
C257 H244 0.961 . S
C257 H245 0.959 . S
C257 C255 1.561 . S
C258 C255 1.526 . S
C258 C259 1.396 . S
C258 C263 1.390 . S
C259 C253 1.465 . S
C259 C258 1.396 . S
C259 C260 1.399 . S
C260 H246 0.929 . S
C260 C259 1.399 . S
C260 C261 1.385 . S
C261 H247 0.931 . S
C261 C260 1.385 . S
C261 C262 1.389 . S
C262 C261 1.389 . S
C262 C263 1.387 . S
C263 H248 0.930 . S
C263 C258 1.390 . S
C263 C262 1.387 . S
H264 C276 0.930 . S
H265 C278 0.930 . S
H266 C279 0.930 . S
H267 C283 0.959 . S
H268 C283 0.959 . S
H269 C283 0.961 . S
H270 C284 0.960 . S
H271 C284 0.961 . S
H272 C284 0.959 . S
H273 C287 0.929 . S
H274 C288 0.931 . S
H275 C290 0.930 . S
C276 H264 0.930 . S
C276 C277 1.399 . S
C276 C281 1.399 . S
C277 C276 1.399 . S
C277 C278 1.376 . S
C278 H265 0.930 . S
C278 C277 1.376 . S
C278 C279 1.388 . S
C279 H266 0.930 . S
C279 C278 1.388 . S
C279 C280 1.390 . S
C280 C279 1.390 . S
C280 C281 1.394 . S
C280 C286 1.465 . S
C281 C276 1.399 . S
C281 C280 1.394 . S
C281 C282 1.516 . S
C282 C281 1.516 . S
C282 C283 1.502 . S
C282 C284 1.561 . S
C282 C285 1.526 . S
C283 H267 0.959 . S
C283 H268 0.959 . S
C283 H269 0.961 . S
C283 C282 1.502 . S
C284 H270 0.960 . S
C284 H271 0.961 . S
C284 H272 0.959 . S
C284 C282 1.561 . S
C285 C282 1.526 . S
C285 C286 1.396 . S
C285 C290 1.390 . S
C286 C280 1.465 . S
C286 C285 1.396 . S
C286 C287 1.399 . S
C287 H273 0.929 . S
C287 C286 1.399 . S
C287 C288 1.385 . S
C288 H274 0.931 . S
C288 C287 1.385 . S
C288 C289 1.389 . S
C289 C288 1.389 . S
C289 C290 1.387 . S
C290 H275 0.930 . S
C290 C285 1.390 . S
C290 C289 1.387 . S
H291 C303 0.930 . S
H292 C305 0.930 . S
H293 C306 0.930 . S
H294 C310 0.959 . S
H295 C310 0.959 . S
H296 C310 0.961 . S
H297 C311 0.960 . S
H298 C311 0.961 . S
H299 C311 0.959 . S
H300 C314 0.929 . S
H301 C315 0.931 . S
H302 C317 0.930 . S
C303 H291 0.930 . S
C303 C304 1.399 . S
C303 C308 1.399 . S
C304 C303 1.399 . S
C304 C305 1.376 . S
C305 H292 0.930 . S
C305 C304 1.376 . S
C305 C306 1.388 . S
C306 H293 0.930 . S
C306 C305 1.388 . S
C306 C307 1.390 . S
C307 C306 1.390 . S
C307 C308 1.394 . S
C307 C313 1.465 . S
C308 C303 1.399 . S
C308 C307 1.394 . S
C308 C309 1.516 . S
C309 C308 1.516 . S
C309 C310 1.502 . S
C309 C311 1.561 . S
C309 C312 1.526 . S
C310 H294 0.959 . S
C310 H295 0.959 . S
C310 H296 0.961 . S
C310 C309 1.502 . S
C311 H297 0.960 . S
C311 H298 0.961 . S
C311 H299 0.959 . S
C311 C309 1.561 . S
C312 C309 1.526 . S
C312 C313 1.396 . S
C312 C317 1.390 . S
C313 C307 1.465 . S
C313 C312 1.396 . S
C313 C314 1.399 . S
C314 H300 0.929 . S
C314 C313 1.399 . S
C314 C315 1.385 . S
C315 H301 0.931 . S
C315 C314 1.385 . S
C315 C316 1.389 . S
C316 C315 1.389 . S
C316 C317 1.387 . S
C317 H302 0.930 . S
C317 C312 1.390 . S
C317 C316 1.387 . S
H318 C330 0.930 . S
H319 C332 0.933 . S
H320 C333 0.930 . S
H321 C337 0.959 . S
H322 C337 0.959 . S
H323 C337 0.961 . S
H324 C338 0.960 . S
H325 C338 0.961 . S
H326 C338 0.959 . S
H327 C341 0.929 . S
H328 C342 0.931 . S
H329 C344 0.930 . S
C330 H318 0.930 . S
C330 C331 1.399 . S
C330 C335 1.399 . S
C331 C330 1.399 . S
C331 C332 1.376 . S
C332 H319 0.933 . S
C332 C331 1.376 . S
C332 C333 1.388 . S
C333 H320 0.930 . S
C333 C332 1.388 . S
C333 C334 1.390 . S
C334 C333 1.390 . S
C334 C335 1.394 . S
C334 C340 1.465 . S
C335 C330 1.399 . S
C335 C334 1.394 . S
C335 C336 1.516 . S
C336 C335 1.516 . S
C336 C337 1.502 . S
C336 C338 1.561 . S
C336 C339 1.526 . S
C337 H321 0.959 . S
C337 H322 0.959 . S
C337 H323 0.961 . S
C337 C336 1.502 . S
C338 H324 0.960 . S
C338 H325 0.961 . S
C338 H326 0.959 . S
C338 C336 1.561 . S
C339 C336 1.526 . S
C339 C340 1.396 . S
C339 C344 1.390 . S
C340 C334 1.465 . S
C340 C339 1.396 . S
C340 C341 1.399 . S
C341 H327 0.929 . S
C341 C340 1.399 . S
C341 C342 1.385 . S
C342 H328 0.931 . S
C342 C341 1.385 . S
C342 C343 1.389 . S
C343 C342 1.389 . S
C343 C344 1.387 . S
C344 H329 0.930 . S
C344 C339 1.390 . S
C344 C343 1.387 . S
H345 C357 0.930 . S
H346 C359 0.930 . S
H347 C360 0.930 . S
H348 C364 0.959 . S
H349 C364 0.959 . S
H350 C364 0.961 . S
H351 C365 0.960 1_565 S
H352 C365 0.961 . S
H353 C365 0.959 . S
H354 C368 0.929 . S
H355 C369 0.931 . S
H356 C371 0.930 . S
C357 H345 0.930 . S
C357 C358 1.399 . S
C357 C362 1.399 . S
C358 C357 1.399 . S
C358 C359 1.376 . S
C359 H346 0.930 . S
C359 C358 1.376 . S
C359 C360 1.388 . S
C360 H347 0.930 . S
C360 C359 1.388 . S
C360 C361 1.390 . S
C361 C360 1.390 . S
C361 C362 1.394 . S
C361 C367 1.465 . S
C362 C357 1.399 . S
C362 C361 1.394 . S
C362 C363 1.516 . S
C363 C362 1.516 . S
C363 C364 1.502 . S
C363 C365 1.561 . S
C363 C366 1.526 . S
C364 H348 0.959 . S
C364 H349 0.959 . S
C364 H350 0.961 . S
C364 C363 1.502 . S
C365 H351 0.960 1_545 S
C365 H352 0.961 . S
C365 H353 0.959 . S
C365 C363 1.561 . S
C366 C363 1.526 . S
C366 C367 1.396 . S
C366 C371 1.390 . S
C367 C361 1.465 . S
C367 C366 1.396 . S
C367 C368 1.399 . S
C368 H354 0.929 . S
C368 C367 1.399 . S
C368 C369 1.385 . S
C369 H355 0.931 . S
C369 C368 1.385 . S
C369 C370 1.389 . S
C370 C369 1.389 . S
C370 C371 1.387 . S
C371 H356 0.930 . S
C371 C366 1.390 . S
C371 C370 1.387 . S
H372 C384 0.930 . S
H373 C386 0.930 . S
H374 C387 0.930 . S
H375 C391 0.959 . S
H376 C391 0.959 . S
H377 C391 0.961 . S
H378 C392 0.960 . S
H379 C392 0.961 . S
H380 C392 0.959 . S
H381 C395 0.929 . S
H382 C396 0.931 . S
H383 C398 0.930 . S
C384 H372 0.930 . S
C384 C385 1.399 . S
C384 C389 1.399 . S
C385 C384 1.399 . S
C385 C386 1.376 . S
C386 H373 0.930 . S
C386 C385 1.376 . S
C386 C387 1.388 . S
C387 H374 0.930 . S
C387 C386 1.388 . S
C387 C388 1.390 . S
C388 C387 1.390 . S
C388 C389 1.394 . S
C388 C394 1.465 . S
C389 C384 1.399 . S
C389 C388 1.394 . S
C389 C390 1.516 . S
C390 C389 1.516 . S
C390 C391 1.502 . S
C390 C392 1.561 . S
C390 C393 1.526 . S
C391 H375 0.959 . S
C391 H376 0.959 . S
C391 H377 0.961 . S
C391 C390 1.502 . S
C392 H378 0.960 . S
C392 H379 0.961 . S
C392 H380 0.959 . S
C392 C390 1.561 . S
C393 C390 1.526 . S
C393 C394 1.396 . S
C393 C398 1.390 . S
C394 C388 1.465 . S
C394 C393 1.396 . S
C394 C395 1.399 . S
C395 H381 0.929 . S
C395 C394 1.399 . S
C395 C396 1.385 . S
C396 H382 0.931 . S
C396 C395 1.385 . S
C396 C397 1.389 . S
C397 C396 1.389 . S
C397 C398 1.387 . S
C398 H383 0.930 . S
C398 C393 1.390 . S
C398 C397 1.387 . S
H399 C411 0.930 . S
H400 C413 0.930 . S
H401 C414 0.930 . S
H402 C418 0.959 . S
H403 C418 0.959 . S
H404 C418 0.961 . S
H405 C419 0.960 . S
H406 C419 0.961 . S
H407 C419 0.959 . S
H408 C422 0.929 . S
H409 C423 0.931 . S
H410 C425 0.930 . S
C411 H399 0.930 . S
C411 C412 1.399 . S
C411 C416 1.399 . S
C412 C411 1.399 . S
C412 C413 1.376 . S
C413 H400 0.930 . S
C413 C412 1.376 . S
C413 C414 1.388 . S
C414 H401 0.930 . S
C414 C413 1.388 . S
C414 C415 1.390 . S
C415 C414 1.390 . S
C415 C416 1.394 . S
C415 C421 1.465 . S
C416 C411 1.399 . S
C416 C415 1.394 . S
C416 C417 1.516 . S
C417 C416 1.516 . S
C417 C418 1.502 . S
C417 C419 1.561 . S
C417 C420 1.526 . S
C418 H402 0.959 . S
C418 H403 0.959 . S
C418 H404 0.961 . S
C418 C417 1.502 . S
C419 H405 0.960 . S
C419 H406 0.961 . S
C419 H407 0.959 . S
C419 C417 1.561 . S
C420 C417 1.526 . S
C420 C421 1.396 . S
C420 C425 1.390 . S
C421 C415 1.465 . S
C421 C420 1.396 . S
C421 C422 1.399 . S
C422 H408 0.929 . S
C422 C421 1.399 . S
C422 C423 1.385 . S
C423 H409 0.931 . S
C423 C422 1.385 . S
C423 C424 1.389 . S
C424 C423 1.389 . S
C424 C425 1.387 . S
C425 H410 0.930 . S
C425 C420 1.390 . S
C425 C424 1.387 . S
C115 C16 1.495 . S
C127 C79 1.352 . S
C142 N36 1.221 . S
C154 C85 1.166 . S
C169 N14 1.152 . S
C181 C76 1.172 . S
C196 C57 1.652 . S
C208 C101 1.427 . S
C223 C1 1.807 . S
C235 C67 1.646 . S
C262 C84 1.577 . S
C250 C40 1.671 . S
C277 C46 1.495 . S
C289 C80 1.376 . S
C316 C97 1.512 . S
C304 C10 1.677 . S
C343 C64 1.653 . S
C331 C31 1.784 . S
C370 C100 1.390 . S
C358 C27 1.636 . S
C397 C63 1.095 . S
C385 N44 1.246 . S
C424 C88 1.156 . S
C412 N6 1.171 . S
