# Generated by pormake.
# Topology wbl, (4,4)-cn, num edge types: 1
# Building blocks:
#     Node 0, Type 0, BuildingBlock: MUDLON_clean_sbu_0, # of connection points: 4
#     Node 1, Type 0, BuildingBlock: MUDLON_clean_sbu_0, # of connection points: 4
#     Node 2, Type 0, BuildingBlock: MUDLON_clean_sbu_0, # of connection points: 4
#     Node 3, Type 0, BuildingBlock: MUDLON_clean_sbu_0, # of connection points: 4
#     Node 4, Type 0, BuildingBlock: MUDLON_clean_sbu_0, # of connection points: 4
#     Node 5, Type 0, BuildingBlock: MUDLON_clean_sbu_0, # of connection points: 4
#     Node 6, Type 0, BuildingBlock: MUDLON_clean_sbu_0, # of connection points: 4
#     Node 7, Type 0, BuildingBlock: MUDLON_clean_sbu_0, # of connection points: 4
#     Node 8, Type 1, BuildingBlock: KUFVIS_clean_sbu_0, # of connection points: 4
#     Node 9, Type 1, BuildingBlock: KUFVIS_clean_sbu_0, # of connection points: 4
#     Node 10, Type 1, BuildingBlock: KUFVIS_clean_sbu_0, # of connection points: 4
#     Node 11, Type 1, BuildingBlock: KUFVIS_clean_sbu_0, # of connection points: 4
#     Node 12, Type 1, BuildingBlock: KUFVIS_clean_sbu_0, # of connection points: 4
#     Node 13, Type 1, BuildingBlock: KUFVIS_clean_sbu_0, # of connection points: 4
#     Node 14, Type 1, BuildingBlock: KUFVIS_clean_sbu_0, # of connection points: 4
#     Node 15, Type 1, BuildingBlock: KUFVIS_clean_sbu_0, # of connection points: 4
#     Edge 16, Type (0, 1), BuildingBlock: TEMPAE_clean_linker_10, # of connection points: 2
#     Edge 17, Type (0, 1), BuildingBlock: TEMPAE_clean_linker_10, # of connection points: 2
#     Edge 18, Type (0, 1), BuildingBlock: TEMPAE_clean_linker_10, # of connection points: 2
#     Edge 19, Type (0, 1), BuildingBlock: TEMPAE_clean_linker_10, # of connection points: 2
#     Edge 20, Type (0, 1), BuildingBlock: TEMPAE_clean_linker_10, # of connection points: 2
#     Edge 21, Type (0, 1), BuildingBlock: TEMPAE_clean_linker_10, # of connection points: 2
#     Edge 22, Type (0, 1), BuildingBlock: TEMPAE_clean_linker_10, # of connection points: 2
#     Edge 23, Type (0, 1), BuildingBlock: TEMPAE_clean_linker_10, # of connection points: 2
#     Edge 24, Type (0, 1), BuildingBlock: TEMPAE_clean_linker_10, # of connection points: 2
#     Edge 25, Type (0, 1), BuildingBlock: TEMPAE_clean_linker_10, # of connection points: 2
#     Edge 26, Type (0, 1), BuildingBlock: TEMPAE_clean_linker_10, # of connection points: 2
#     Edge 27, Type (0, 1), BuildingBlock: TEMPAE_clean_linker_10, # of connection points: 2
#     Edge 28, Type (0, 1), BuildingBlock: TEMPAE_clean_linker_10, # of connection points: 2
#     Edge 29, Type (0, 1), BuildingBlock: TEMPAE_clean_linker_10, # of connection points: 2
#     Edge 30, Type (0, 1), BuildingBlock: TEMPAE_clean_linker_10, # of connection points: 2
#     Edge 31, Type (0, 1), BuildingBlock: TEMPAE_clean_linker_10, # of connection points: 2
#     Edge 32, Type (0, 1), BuildingBlock: TEMPAE_clean_linker_10, # of connection points: 2
#     Edge 33, Type (0, 1), BuildingBlock: TEMPAE_clean_linker_10, # of connection points: 2
#     Edge 34, Type (0, 1), BuildingBlock: TEMPAE_clean_linker_10, # of connection points: 2
#     Edge 35, Type (0, 1), BuildingBlock: TEMPAE_clean_linker_10, # of connection points: 2
#     Edge 36, Type (0, 1), BuildingBlock: TEMPAE_clean_linker_10, # of connection points: 2
#     Edge 37, Type (0, 1), BuildingBlock: TEMPAE_clean_linker_10, # of connection points: 2
#     Edge 38, Type (0, 1), BuildingBlock: TEMPAE_clean_linker_10, # of connection points: 2
#     Edge 39, Type (0, 1), BuildingBlock: TEMPAE_clean_linker_10, # of connection points: 2
#     Edge 40, Type (0, 1), BuildingBlock: TEMPAE_clean_linker_10, # of connection points: 2
#     Edge 41, Type (0, 1), BuildingBlock: TEMPAE_clean_linker_10, # of connection points: 2
#     Edge 42, Type (0, 1), BuildingBlock: TEMPAE_clean_linker_10, # of connection points: 2
#     Edge 43, Type (0, 1), BuildingBlock: TEMPAE_clean_linker_10, # of connection points: 2
#     Edge 44, Type (0, 1), BuildingBlock: TEMPAE_clean_linker_10, # of connection points: 2
#     Edge 45, Type (0, 1), BuildingBlock: TEMPAE_clean_linker_10, # of connection points: 2
#     Edge 46, Type (0, 1), BuildingBlock: TEMPAE_clean_linker_10, # of connection points: 2
#     Edge 47, Type (0, 1), BuildingBlock: TEMPAE_clean_linker_10, # of connection points: 2
# Relax obj value: 0.226
# Max RMSD: 0.215
# Mean RMSD: 0.171
data_MOF--net-wbl--node1-MUDLON_clean_sbu_0--node2-KUFVIS_clean_sbu_0--edge1-TEMPAE_clean_linker_10
_symmetry_space_group_name_H-M    P1
_symmetry_Int_Tables_number       1
_symmetry_cell_setting            triclinic
loop_
_symmetry_equiv_pos_as_xyz
'x, y, z'
_cell_length_a     35.230391
_cell_length_b     35.232379
_cell_length_c     75.715621
_cell_angle_alpha  89.999937
_cell_angle_beta   90.590755
_cell_angle_gamma 90.025994
loop_
_atom_site_label
_atom_site_type_symbol
_atom_site_fract_x
_atom_site_fract_y
_atom_site_fract_z
_atom_type_partial_charge
Mg0 Mg 0.03017 0.08432 0.34362 0.0
C1 C 0.01101 0.00654 0.35989 0.0
O2 O 0.97556 0.01807 0.35932 0.0
C3 C 0.95978 0.0744 0.31902 0.0
O4 O 0.97385 0.04115 0.31477 0.0
C5 C 0.08006 0.08223 0.31191 0.0
O6 O 0.04801 0.07067 0.30472 0.0
O7 O 0.08023 0.09333 0.32789 0.0
O8 O 0.03651 0.02682 0.35286 0.0
O9 O 0.02803 0.11665 0.36808 0.0
C10 C 0.99546 0.1158 0.37517 0.0
O11 O 0.96749 0.09926 0.36653 0.0
O12 O 0.97771 0.09586 0.32967 0.0
Mg13 Mg 0.11094 0.53416 0.59484 0.0
C14 C 0.1798 0.51313 0.61713 0.0
O15 O 0.16114 0.48115 0.61912 0.0
C16 C 0.08294 0.45574 0.58937 0.0
O17 O 0.08095 0.45965 0.60659 0.0
C18 C 0.12332 0.5872 0.56467 0.0
O19 O 0.14379 0.55818 0.55947 0.0
O20 O 0.10455 0.58448 0.57886 0.0
O21 O 0.16738 0.53745 0.60614 0.0
O22 O 0.07432 0.5351 0.61766 0.0
C23 C 0.08348 0.55389 0.63139 0.0
O24 O 0.11271 0.57699 0.63073 0.0
O25 O 0.0971 0.48262 0.58036 0.0
Mg26 Mg 0.65881 0.62622 0.83972 0.0
C27 C 0.63106 0.69477 0.85878 0.0
O28 O 0.60182 0.68808 0.84833 0.0
C29 C 0.71113 0.59436 0.81112 0.0
O30 O 0.67922 0.58719 0.80264 0.0
C31 C 0.59831 0.63782 0.81007 0.0
O32 O 0.62524 0.65466 0.80111 0.0
O33 O 0.60575 0.62381 0.82516 0.0
O34 O 0.66165 0.67659 0.85616 0.0
O35 O 0.65455 0.58407 0.8602 0.0
C36 C 0.68511 0.57253 0.86743 0.0
O37 O 0.7177 0.58355 0.86089 0.0
O38 O 0.71035 0.61239 0.82565 0.0
Mg39 Mg 0.53538 0.14137 0.08325 0.0
C40 C 0.59085 0.16695 0.11031 0.0
O41 O 0.57713 0.19929 0.10445 0.0
C42 C 0.555 0.06588 0.06724 0.0
O43 O 0.57742 0.06533 0.08121 0.0
C44 C 0.56218 0.20218 0.05847 0.0
O45 O 0.57699 0.17231 0.05076 0.0
O46 O 0.54066 0.19739 0.07165 0.0
O47 O 0.58118 0.13646 0.1025 0.0
O48 O 0.48758 0.1342 0.10092 0.0
C49 C 0.492 0.10375 0.10974 0.0
O50 O 0.51975 0.08087 0.10537 0.0
O51 O 0.53525 0.09534 0.06409 0.0
Mg52 Mg 0.14301 0.52839 0.94013 0.0
C53 C 0.14327 0.59228 0.91103 0.0
O54 O 0.15206 0.61702 0.9234 0.0
C55 C 0.06112 0.53591 0.95148 0.0
O56 O 0.0562 0.53885 0.93431 0.0
C57 C 0.22316 0.55685 0.94374 0.0
O58 O 0.22063 0.55378 0.92647 0.0
O59 O 0.19493 0.54718 0.95305 0.0
O60 O 0.13626 0.55809 0.91521 0.0
O61 O 0.14731 0.47138 0.92947 0.0
C62 C 0.1173 0.45145 0.92838 0.0
O63 O 0.08856 0.46029 0.93848 0.0
O64 O 0.09465 0.53265 0.95765 0.0
Mg65 Mg 0.62374 0.6479 0.19285 0.0
C66 C 0.57628 0.6718 0.16303 0.0
O67 O 0.59344 0.70319 0.16804 0.0
C68 C 0.6233 0.56513 0.20177 0.0
O69 O 0.61863 0.56401 0.18453 0.0
C70 C 0.57362 0.70658 0.20819 0.0
O71 O 0.54922 0.68174 0.20185 0.0
O72 O 0.60894 0.69941 0.20723 0.0
O73 O 0.58181 0.64168 0.17193 0.0
O74 O 0.67359 0.65286 0.17627 0.0
C75 C 0.6965 0.62526 0.17456 0.0
O76 O 0.6961 0.59796 0.18637 0.0
O77 O 0.6258 0.59728 0.20933 0.0
Mg78 Mg 0.51296 0.12232 0.43706 0.0
C79 C 0.53829 0.18998 0.41662 0.0
O80 O 0.56774 0.18486 0.42714 0.0
C81 C 0.43021 0.10798 0.44433 0.0
O82 O 0.42845 0.1183 0.42766 0.0
C83 C 0.56903 0.12992 0.46886 0.0
O84 O 0.53849 0.13159 0.47864 0.0
O85 O 0.56555 0.12577 0.45225 0.0
O86 O 0.50816 0.17124 0.41962 0.0
O87 O 0.52077 0.0796 0.41685 0.0
C88 C 0.49747 0.05303 0.41341 0.0
O89 O 0.46957 0.0463 0.42433 0.0
O90 O 0.46222 0.10886 0.45228 0.0
Mg91 Mg 0.04739 0.01433 0.68777 0.0
C92 C 0.09188 0.98772 0.65688 0.0
O93 O 0.08332 0.95536 0.66449 0.0
C94 C 0.05638 0.09718 0.69705 0.0
O95 O 0.05956 0.09945 0.6798 0.0
C96 C 0.10021 0.95948 0.70432 0.0
O97 O 0.12326 0.98498 0.69769 0.0
O98 O 0.06459 0.96434 0.70264 0.0
O99 O 0.08228 0.01855 0.66433 0.0
O100 O 0.99136 0.01112 0.67564 0.0
C101 C 0.97014 0.04028 0.67602 0.0
O102 O 0.97822 0.06741 0.68733 0.0
O103 O 0.052 0.06477 0.7041 0.0
Mn104 Mn 0.4984 0.74591 0.01212 0.0
Mn105 Mn 0.53816 0.65909 0.01198 0.0
C106 C 0.50241 0.71123 0.03802 0.0
C107 C 0.5063 0.81128 0.01428 0.0
C108 C 0.45778 0.67376 0.99916 0.0
O109 O 0.52535 0.74495 0.98849 0.0
O110 O 0.55201 0.68704 0.9902 0.0
C111 C 0.61415 0.69173 0.01811 0.0
N112 N 0.58772 0.66487 0.02195 0.0
C113 C 0.62497 0.64208 0.04653 0.0
C114 C 0.65307 0.66883 0.04257 0.0
C115 C 0.64721 0.69437 0.02855 0.0
C116 C 0.59194 0.64187 0.0361 0.0
H117 H 0.60953 0.71153 0.00741 0.0
C118 C 0.54557 0.71836 0.98217 0.0
O119 O 0.47616 0.79693 0.0068 0.0
O120 O 0.53161 0.78782 0.02027 0.0
N121 N 0.52801 0.62759 0.03193 0.0
C122 C 0.49533 0.60908 0.03607 0.0
C123 C 0.49519 0.58387 0.05044 0.0
C124 C 0.52867 0.57772 0.06026 0.0
C125 C 0.56192 0.59717 0.05576 0.0
C126 C 0.56052 0.62136 0.04111 0.0
H127 H 0.46966 0.6134 0.02842 0.0
O128 O 0.47866 0.73917 0.03659 0.0
O129 O 0.52368 0.7052 0.0244 0.0
O130 O 0.4578 0.70949 0.0023 0.0
O131 O 0.48636 0.65214 0.0022 0.0
C132 C 0.59616 0.5942 0.06544 0.0
C133 C 0.62738 0.61733 0.06108 0.0
H134 H 0.6788 0.67068 0.05048 0.0
H135 H 0.66832 0.71575 0.02568 0.0
H136 H 0.46937 0.5691 0.05389 0.0
H137 H 0.52841 0.5583 0.07135 0.0
H138 H 0.59836 0.5752 0.07662 0.0
H139 H 0.65265 0.61681 0.06931 0.0
Mn140 Mn 0.39872 1.00008 0.26262 0.0
Mn141 Mn 0.48552 0.0385 0.25955 0.0
C142 C 0.43601 0.00557 0.28775 0.0
C143 C 0.33425 0.01258 0.26491 0.0
C144 C 0.46727 0.95712 0.24896 0.0
O145 O 0.39897 0.02248 0.23786 0.0
O146 O 0.45371 0.05515 0.23913 0.0
C147 C 0.45843 0.11615 0.26683 0.0
N148 N 0.48365 0.08766 0.27009 0.0
C149 C 0.51199 0.12234 0.29418 0.0
C150 C 0.48707 0.15254 0.29078 0.0
C151 C 0.45969 0.14911 0.27725 0.0
C152 C 0.50873 0.08983 0.28365 0.0
H153 H 0.43718 0.11344 0.25652 0.0
C154 C 0.42258 0.04589 0.2314 0.0
O155 O 0.34599 0.98027 0.25868 0.0
O156 O 0.35975 0.03695 0.26977 0.0
N157 N 0.52011 0.02582 0.27826 0.0
C158 C 0.53832 0.99234 0.28138 0.0
C159 C 0.56565 0.99019 0.29497 0.0
C160 C 0.57422 0.02254 0.30509 0.0
C161 C 0.55515 0.0567 0.30163 0.0
C162 C 0.52867 0.05729 0.28773 0.0
H163 H 0.53217 0.96749 0.27351 0.0
O164 O 0.40633 0.98384 0.2877 0.0
O165 O 0.4415 0.02488 0.2734 0.0
O166 O 0.43287 0.9568 0.25427 0.0
O167 O 0.48864 0.98667 0.24921 0.0
C168 C 0.5609 0.09002 0.31159 0.0
C169 C 0.53872 0.12255 0.30812 0.0
H170 H 0.48816 0.17811 0.29872 0.0
H171 H 0.43983 0.17196 0.27476 0.0
H172 H 0.58017 0.9637 0.2976 0.0
H173 H 0.59532 0.02074 0.31556 0.0
H174 H 0.58162 0.09062 0.32223 0.0
H175 H 0.54182 0.14731 0.31645 0.0
Mn176 Mn 0.15673 0.91775 0.49453 0.0
Mn177 Mn 0.06244 0.90514 0.49991 0.0
C178 C 0.11687 0.9094 0.47031 0.0
C179 C 0.20924 0.95763 0.49086 0.0
C180 C 0.12029 0.8431 0.50634 0.0
O181 O 0.14875 0.93539 0.51985 0.0
O182 O 0.08529 0.92804 0.52155 0.0
C183 C 0.03957 0.98589 0.50122 0.0
N184 N 0.03598 0.95071 0.49397 0.0
C185 C 0.98508 0.97152 0.4749 0.0
C186 C 0.98768 0.00775 0.4824 0.0
C187 C 0.01554 0.01516 0.49536 0.0
C188 C 0.01017 0.94363 0.48105 0.0
H189 H 0.06061 0.9915 0.51136 0.0
C190 C 0.11751 0.93768 0.5282 0.0
O191 O 0.21301 0.92322 0.49677 0.0
O192 O 0.17495 0.96916 0.48752 0.0
N193 N 0.03655 0.88323 0.48005 0.0
C194 C 0.03941 0.84742 0.4734 0.0
C195 C 0.0149 0.83597 0.45966 0.0
C196 C 0.98736 0.86125 0.4531 0.0
C197 C 0.98496 0.89795 0.46016 0.0
C198 C 0.01031 0.90781 0.47375 0.0
H199 H 0.06042 0.82784 0.47844 0.0
O200 O 0.15296 0.90273 0.46907 0.0
O201 O 0.1053 0.92129 0.48556 0.0
O202 O 0.14971 0.86233 0.50236 0.0
O203 O 0.0867 0.85657 0.50592 0.0
C204 C 0.95847 0.92516 0.45424 0.0
C205 C 0.95877 0.96205 0.46147 0.0
H206 H 0.96869 0.03013 0.47811 0.0
H207 H 0.01854 0.04335 0.50079 0.0
H208 H 0.01709 0.80767 0.45421 0.0
H209 H 0.96836 0.85223 0.44257 0.0
H210 H 0.93789 0.91808 0.44405 0.0
H211 H 0.93876 0.98297 0.45656 0.0
Mn212 Mn 0.25603 0.66323 0.75312 0.0
Mn213 Mn 0.26083 0.56895 0.76031 0.0
C214 C 0.26533 0.62194 0.72974 0.0
C215 C 0.2205 0.71781 0.74782 0.0
C216 C 0.3261 0.62264 0.76806 0.0
O217 O 0.23442 0.65781 0.77784 0.0
O218 O 0.23585 0.59408 0.78068 0.0
C219 C 0.17821 0.55603 0.75693 0.0
N220 N 0.21433 0.54651 0.75254 0.0
C221 C 0.19216 0.49823 0.73252 0.0
C222 C 0.15475 0.50689 0.73713 0.0
C223 C 0.14769 0.53645 0.74908 0.0
C224 C 0.22133 0.51951 0.74034 0.0
H225 H 0.1728 0.57879 0.76612 0.0
C226 C 0.22781 0.62732 0.78633 0.0
O227 O 0.2541 0.71954 0.75499 0.0
O228 O 0.20734 0.68438 0.74399 0.0
N229 N 0.28394 0.54027 0.74187 0.0
C230 C 0.32097 0.5396 0.73686 0.0
C231 C 0.33264 0.51336 0.72406 0.0
C232 C 0.30623 0.48783 0.71671 0.0
C233 C 0.26825 0.48917 0.72203 0.0
C234 C 0.25832 0.51585 0.73486 0.0
H235 H 0.34143 0.55896 0.74257 0.0
O236 O 0.27441 0.6575 0.7283 0.0
O237 O 0.25054 0.61194 0.74467 0.0
O238 O 0.30937 0.65275 0.7628 0.0
O239 O 0.31036 0.58993 0.76805 0.0
C240 C 0.23975 0.46537 0.71498 0.0
C241 C 0.20162 0.47031 0.72 0.0
H242 H 0.13122 0.49186 0.73118 0.0
H243 H 0.1188 0.54411 0.75223 0.0
H244 H 0.36194 0.5127 0.71993 0.0
H245 H 0.31536 0.46761 0.70685 0.0
H246 H 0.24675 0.44365 0.70545 0.0
H247 H 0.17978 0.45282 0.714 0.0
Mn248 Mn 0.90338 0.17743 0.53546 0.0
Mn249 Mn 0.90239 0.08342 0.52786 0.0
C250 C 0.89569 0.13557 0.55874 0.0
C251 C 0.93931 0.23192 0.54066 0.0
C252 C 0.83551 0.13543 0.51963 0.0
O253 O 0.92402 0.17305 0.51055 0.0
O254 O 0.92935 0.10951 0.50828 0.0
C255 C 0.98475 0.06913 0.53221 0.0
N256 N 0.94827 0.06115 0.53665 0.0
C257 C 0.96871 0.01347 0.5574 0.0
C258 C 0.00648 0.02055 0.55276 0.0
C259 C 0.01455 0.04873 0.54023 0.0
C260 C 0.94025 0.03479 0.54902 0.0
H261 H 0.99101 0.09091 0.52264 0.0
C262 C 0.93451 0.14324 0.50239 0.0
O263 O 0.90505 0.23406 0.53418 0.0
O264 O 0.95245 0.19831 0.54399 0.0
N265 N 0.87757 0.05464 0.54581 0.0
C266 C 0.84003 0.05373 0.54997 0.0
C267 C 0.82739 0.0284 0.56296 0.0
C268 C 0.85335 0.00397 0.57137 0.0
C269 C 0.89178 0.00527 0.56679 0.0
C270 C 0.90275 0.03115 0.55378 0.0
H271 H 0.81989 0.07227 0.54348 0.0
O272 O 0.88613 0.17092 0.56041 0.0
O273 O 0.91036 0.12628 0.54369 0.0
O274 O 0.84982 0.16579 0.52611 0.0
O275 O 0.8535 0.10392 0.51895 0.0
C276 C 0.91971 0.98217 0.57474 0.0
C277 C 0.95817 0.98658 0.57021 0.0
H278 H 0.02952 0.00496 0.55894 0.0
H279 H 0.04367 0.05465 0.53672 0.0
H280 H 0.79769 0.02765 0.56646 0.0
H281 H 0.84351 0.98452 0.58142 0.0
H282 H 0.91196 0.9612 0.58451 0.0
H283 H 0.97938 0.96937 0.57679 0.0
Mn284 Mn 0.00118 0.4084 0.78105 0.0
Mn285 Mn 0.09654 0.40705 0.77802 0.0
C286 C 0.03822 0.3976 0.80595 0.0
C287 C 0.94566 0.44357 0.78397 0.0
C288 C 0.0464 0.34146 0.7664 0.0
O289 O 0.01041 0.43224 0.75708 0.0
O290 O 0.07436 0.43359 0.75713 0.0
C291 C 0.10863 0.4895 0.78299 0.0
N292 N 0.11652 0.45305 0.78768 0.0
C293 C 0.16167 0.47359 0.80972 0.0
C294 C 0.15506 0.51135 0.80469 0.0
C295 C 0.12777 0.51937 0.79157 0.0
C296 C 0.1412 0.44511 0.80093 0.0
H297 H 0.08788 0.49562 0.77278 0.0
C298 C 0.04197 0.44064 0.75 0.0
O299 O 0.94515 0.40993 0.77693 0.0
O300 O 0.97818 0.45644 0.78945 0.0
N301 N 0.12229 0.38234 0.79717 0.0
C302 C 0.12338 0.34466 0.8012 0.0
C303 C 0.14736 0.33196 0.8149 0.0
C304 C 0.17048 0.358 0.82405 0.0
C305 C 0.16909 0.39659 0.81956 0.0
C306 C 0.14446 0.4076 0.80588 0.0
H307 H 0.10607 0.32446 0.79403 0.0
O308 O 0.00266 0.38799 0.8057 0.0
O309 O 0.05062 0.4142 0.79183 0.0
O310 O 0.01477 0.35603 0.77099 0.0
O311 O 0.07828 0.35841 0.76825 0.0
C312 C 0.19127 0.42456 0.82805 0.0
C313 C 0.18745 0.46304 0.82319 0.0
H314 H 0.17034 0.53445 0.81096 0.0
H315 H 0.1218 0.5485 0.78796 0.0
H316 H 0.14825 0.30214 0.81829 0.0
H317 H 0.18916 0.34803 0.83451 0.0
H318 H 0.21126 0.41681 0.83839 0.0
H319 H 0.20445 0.48423 0.82993 0.0
Mn320 Mn 0.75348 0.49727 0.01943 0.0
Mn321 Mn 0.66684 0.5372 0.01881 0.0
C322 C 0.71993 0.50228 0.99318 0.0
C323 C 0.81901 0.5051 0.01728 0.0
C324 C 0.67995 0.45558 0.02958 0.0
O325 O 0.75203 0.52313 0.04344 0.0
O326 O 0.69306 0.54725 0.04171 0.0
C327 C 0.70154 0.61313 0.0163 0.0
N328 N 0.67456 0.58795 0.01082 0.0
C329 C 0.65544 0.62895 0.98693 0.0
C330 C 0.68228 0.65579 0.99262 0.0
C331 C 0.70598 0.64748 0.00715 0.0
C332 C 0.65327 0.59466 0.99621 0.0
H333 H 0.72003 0.60663 0.02735 0.0
C334 C 0.72428 0.54125 0.05001 0.0
O335 O 0.80481 0.47488 0.02458 0.0
O336 O 0.79531 0.53076 0.01196 0.0
N337 N 0.63686 0.5308 0.99784 0.0
C338 C 0.61799 0.49932 0.99207 0.0
C339 C 0.59427 0.50182 0.9771 0.0
C340 C 0.59008 0.53666 0.96828 0.0
C341 C 0.60998 0.5686 0.9744 0.0
C342 C 0.63246 0.56461 0.98962 0.0
H343 H 0.62105 0.47253 0.99883 0.0
O344 O 0.74759 0.47831 0.99473 0.0
O345 O 0.71347 0.52335 0.00691 0.0
O346 O 0.71622 0.4563 0.02814 0.0
O347 O 0.65847 0.48416 0.02631 0.0
C348 C 0.60917 0.60397 0.96574 0.0
C349 C 0.6324 0.63395 0.97181 0.0
H350 H 0.68554 0.68247 0.98569 0.0
H351 H 0.72734 0.66768 0.01139 0.0
H352 H 0.57924 0.47697 0.97238 0.0
H353 H 0.57179 0.53846 0.95673 0.0
H354 H 0.59187 0.60793 0.95402 0.0
H355 H 0.6332 0.66032 0.96447 0.0
Mn356 Mn 0.66427 0.2442 0.26132 0.0
Mn357 Mn 0.62916 0.15532 0.26295 0.0
C358 C 0.65981 0.20823 0.23584 0.0
C359 C 0.65428 0.30935 0.2583 0.0
C360 C 0.7096 0.1745 0.2737 0.0
O361 O 0.63917 0.24297 0.28548 0.0
O362 O 0.61632 0.18331 0.28483 0.0
C363 C 0.55068 0.18276 0.25895 0.0
N364 N 0.57841 0.15804 0.2542 0.0
C365 C 0.53993 0.13304 0.23053 0.0
C366 C 0.51073 0.1579 0.23533 0.0
C367 C 0.51642 0.18334 0.24937 0.0
C368 C 0.57403 0.13488 0.2401 0.0
H369 H 0.55515 0.2026 0.26964 0.0
C370 C 0.62141 0.21532 0.29247 0.0
O371 O 0.68499 0.29622 0.26573 0.0
O372 O 0.62912 0.28472 0.2532 0.0
N373 N 0.63887 0.12388 0.24293 0.0
C374 C 0.672 0.10708 0.23809 0.0
C375 C 0.67211 0.08212 0.22363 0.0
C376 C 0.63814 0.07443 0.21443 0.0
C377 C 0.6044 0.092 0.2197 0.0
C378 C 0.60592 0.11609 0.23438 0.0
H379 H 0.69812 0.11269 0.24521 0.0
O380 O 0.68234 0.23728 0.23662 0.0
O381 O 0.6398 0.20177 0.24985 0.0
O382 O 0.70738 0.21011 0.27053 0.0
O383 O 0.68202 0.15129 0.2715 0.0
C384 C 0.56946 0.08716 0.21077 0.0
C385 C 0.53741 0.10814 0.21601 0.0
H386 H 0.48434 0.1588 0.22799 0.0
H387 H 0.49441 0.20338 0.2528 0.0
H388 H 0.6983 0.06878 0.2196 0.0
H389 H 0.63836 0.05522 0.20327 0.0
H390 H 0.56718 0.06824 0.19954 0.0
H391 H 0.51129 0.10549 0.20854 0.0
C392 C 0.15047 0.07465 0.31228 0.0
C393 C 0.11626 0.07571 0.30267 0.0
C394 C 0.1844 0.06373 0.30423 0.0
C395 C 0.18428 0.05432 0.28605 0.0
C396 C 0.15013 0.05662 0.27611 0.0
C397 C 0.1164 0.06699 0.28458 0.0
C398 C 0.22024 0.06139 0.31532 0.0
C399 C 0.14915 0.04766 0.25661 0.0
C400 C 0.28228 0.05973 0.26645 0.0
C401 C 0.29383 0.02171 0.2672 0.0
C402 C 0.24561 0.07042 0.27136 0.0
C403 C 0.22024 0.04247 0.27758 0.0
C404 C 0.23109 0.0037 0.27747 0.0
C405 C 0.2678 0.99369 0.27206 0.0
C406 C 0.23486 0.1119 0.27086 0.0
C407 C 0.20492 0.97314 0.2842 0.0
H408 H 0.15056 0.08105 0.32628 0.0
H409 H 0.09004 0.06781 0.27708 0.0
H410 H 0.23191 0.03217 0.31483 0.0
H411 H 0.24212 0.08073 0.30994 0.0
H412 H 0.21536 0.06904 0.32935 0.0
H413 H 0.12065 0.05247 0.25062 0.0
H414 H 0.17013 0.06547 0.24957 0.0
H415 H 0.15725 0.01761 0.25447 0.0
H416 H 0.30238 0.08137 0.26249 0.0
H417 H 0.27687 0.96432 0.27272 0.0
H418 H 0.23342 0.12308 0.28454 0.0
H419 H 0.20639 0.11565 0.26471 0.0
H420 H 0.2557 0.12919 0.26343 0.0
H421 H 0.2014 0.97653 0.29867 0.0
H422 H 0.21604 0.9442 0.28159 0.0
H423 H 0.17639 0.97579 0.27801 0.0
C424 C 0.13938 0.6252 0.53783 0.0
C425 C 0.12451 0.62355 0.55493 0.0
C426 C 0.14138 0.65977 0.52865 0.0
C427 C 0.12872 0.69345 0.53689 0.0
C428 C 0.11416 0.69199 0.55424 0.0
C429 C 0.11195 0.65702 0.56298 0.0
C430 C 0.15646 0.66018 0.51006 0.0
C431 C 0.10071 0.72738 0.56354 0.0
C432 C 0.15815 0.7911 0.52068 0.0
C433 C 0.12466 0.80336 0.51231 0.0
C434 C 0.16046 0.75477 0.52829 0.0
C435 C 0.12876 0.73008 0.52718 0.0
C436 C 0.0957 0.74161 0.5179 0.0
C437 C 0.09391 0.77821 0.51076 0.0
C438 C 0.19602 0.74356 0.53827 0.0
C439 C 0.06155 0.71588 0.51614 0.0
H440 H 0.14913 0.5994 0.53154 0.0
H441 H 0.10079 0.65602 0.57627 0.0
H442 H 0.13405 0.67029 0.50079 0.0
H443 H 0.18061 0.68026 0.50911 0.0
H444 H 0.16607 0.63168 0.5057 0.0
H445 H 0.092 0.72167 0.57735 0.0
H446 H 0.12358 0.74906 0.56374 0.0
H447 H 0.07619 0.73975 0.55626 0.0
H448 H 0.18192 0.81049 0.522 0.0
H449 H 0.068 0.78735 0.50422 0.0
H450 H 0.20623 0.71546 0.53374 0.0
H451 H 0.18962 0.74095 0.55254 0.0
H452 H 0.21921 0.76464 0.53667 0.0
H453 H 0.0702 0.68754 0.51123 0.0
H454 H 0.03962 0.72766 0.50702 0.0
H455 H 0.04855 0.7117 0.52928 0.0
C456 C 0.52897 0.62969 0.815 0.0
C457 C 0.55881 0.63657 0.80329 0.0
C458 C 0.49123 0.62846 0.80905 0.0
C459 C 0.48309 0.63361 0.79088 0.0
C460 C 0.51303 0.64057 0.77895 0.0
C461 C 0.55061 0.6423 0.78534 0.0
C462 C 0.46005 0.6216 0.82223 0.0
C463 C 0.50539 0.64569 0.75944 0.0
C464 C 0.38913 0.59298 0.77486 0.0
C465 C 0.36625 0.62554 0.77393 0.0
C466 C 0.42748 0.59539 0.77989 0.0
C467 C 0.44319 0.63109 0.78443 0.0
C468 C 0.42028 0.66405 0.7836 0.0
C469 C 0.38216 0.66093 0.77822 0.0
C470 C 0.45114 0.55966 0.78044 0.0
C471 C 0.43588 0.70252 0.78866 0.0
H472 H 0.53506 0.62565 0.82894 0.0
H473 H 0.57358 0.64755 0.77624 0.0
H474 H 0.43903 0.64502 0.8216 0.0
H475 H 0.44475 0.59496 0.81893 0.0
H476 H 0.47108 0.61941 0.83599 0.0
H477 H 0.53179 0.65093 0.75192 0.0
H478 H 0.49128 0.61998 0.75403 0.0
H479 H 0.48576 0.66988 0.75726 0.0
H480 H 0.37721 0.56554 0.77148 0.0
H481 H 0.36469 0.68621 0.77761 0.0
H482 H 0.46085 0.55405 0.79417 0.0
H483 H 0.47686 0.56328 0.77227 0.0
H484 H 0.4352 0.53446 0.77558 0.0
H485 H 0.4455 0.70214 0.80266 0.0
H486 H 0.41454 0.72548 0.78697 0.0
H487 H 0.46096 0.70938 0.78052 0.0
C488 C 0.55263 0.99552 0.06532 0.0
C489 C 0.54858 0.03078 0.05698 0.0
C490 C 0.54413 0.96173 0.05637 0.0
C491 C 0.53242 0.96312 0.03843 0.0
C492 C 0.52917 0.99863 0.02977 0.0
C493 C 0.53668 0.03218 0.03926 0.0
C494 C 0.54715 0.92453 0.06623 0.0
C495 C 0.51799 0.00113 0.01051 0.0
C496 C 0.54753 0.86827 0.01624 0.0
C497 C 0.51118 0.85233 0.01709 0.0
C498 C 0.5542 0.90569 0.02175 0.0
C499 C 0.52404 0.92708 0.02891 0.0
C500 C 0.48685 0.91168 0.02898 0.0
C501 C 0.48075 0.87455 0.02278 0.0
C502 C 0.594 0.92145 0.02089 0.0
C503 C 0.45411 0.93317 0.0369 0.0
H504 H 0.56134 0.99437 0.07909 0.0
H505 H 0.53363 0.05948 0.03279 0.0
H506 H 0.51972 0.90909 0.06545 0.0
H507 H 0.56892 0.90624 0.06005 0.0
H508 H 0.5549 0.92855 0.08036 0.0
H509 H 0.51791 0.03083 0.00559 0.0
H510 H 0.53795 0.98421 0.00245 0.0
H511 H 0.48929 0.98888 0.00844 0.0
H512 H 0.57101 0.85104 0.01171 0.0
H513 H 0.45271 0.862 0.02357 0.0
H514 H 0.60663 0.92232 0.03437 0.0
H515 H 0.59364 0.95093 0.01574 0.0
H516 H 0.61261 0.9039 0.0124 0.0
H517 H 0.45832 0.93515 0.05142 0.0
H518 H 0.42642 0.91908 0.03423 0.0
H519 H 0.45291 0.96255 0.03169 0.0
C520 C 0.26113 0.57517 0.97059 0.0
C521 C 0.2578 0.57291 0.95214 0.0
C522 C 0.2934 0.59126 0.97866 0.0
C523 C 0.32297 0.60554 0.96802 0.0
C524 C 0.31986 0.6032 0.9494 0.0
C525 C 0.28735 0.58685 0.94169 0.0
C526 C 0.29578 0.59313 0.99857 0.0
C527 C 0.35078 0.61818 0.93762 0.0
C528 C 0.39098 0.67858 0.98743 0.0
C529 C 0.42293 0.65628 0.99149 0.0
C530 C 0.35817 0.66239 0.97991 0.0
C531 C 0.35721 0.62296 0.97635 0.0
C532 C 0.38916 0.60022 0.98053 0.0
C533 C 0.42158 0.61712 0.98804 0.0
C534 C 0.32461 0.68755 0.97564 0.0
C535 C 0.3892 0.55805 0.97694 0.0
H536 H 0.23845 0.56445 0.97877 0.0
H537 H 0.285 0.58533 0.92742 0.0
H538 H 0.32148 0.57793 0.00335 0.0
H539 H 0.29847 0.6231 0.0029 0.0
H540 H 0.27051 0.58047 0.00495 0.0
H541 H 0.34406 0.61411 0.92337 0.0
H542 H 0.35517 0.64891 0.94011 0.0
H543 H 0.37798 0.60365 0.94069 0.0
H544 H 0.3916 0.70882 0.99004 0.0
H545 H 0.44597 0.59951 0.99114 0.0
H546 H 0.29906 0.67716 0.98259 0.0
H547 H 0.31823 0.68644 0.96127 0.0
H548 H 0.32967 0.71759 0.97946 0.0
H549 H 0.36529 0.54429 0.9839 0.0
H550 H 0.4161 0.54425 0.98123 0.0
H551 H 0.38496 0.5528 0.96261 0.0
C552 C 0.58009 0.76479 0.22708 0.0
C553 C 0.55988 0.74388 0.21436 0.0
C554 C 0.56638 0.79998 0.23307 0.0
C555 C 0.53236 0.81496 0.22573 0.0
C556 C 0.51248 0.7943 0.21255 0.0
C557 C 0.52619 0.7588 0.20722 0.0
C558 C 0.58785 0.82077 0.24746 0.0
C559 C 0.47668 0.80968 0.20404 0.0
C560 C 0.47277 0.88662 0.25064 0.0
C561 C 0.48397 0.92094 0.24292 0.0
C562 C 0.48922 0.85208 0.24557 0.0
C563 C 0.51679 0.85175 0.23209 0.0
C564 C 0.52808 0.88634 0.22417 0.0
C565 C 0.51192 0.92062 0.22988 0.0
C566 C 0.47707 0.81594 0.25463 0.0
C567 C 0.5566 0.88707 0.20943 0.0
H568 H 0.60611 0.75324 0.23263 0.0
H569 H 0.51077 0.74294 0.19718 0.0
H570 H 0.59625 0.84937 0.24279 0.0
H571 H 0.56924 0.82485 0.25904 0.0
H572 H 0.61377 0.80527 0.2518 0.0
H573 H 0.46583 0.79105 0.19328 0.0
H574 H 0.45421 0.81267 0.21409 0.0
H575 H 0.48204 0.83834 0.19852 0.0
H576 H 0.4516 0.88684 0.26094 0.0
H577 H 0.5206 0.94715 0.22388 0.0
H578 H 0.50228 0.80071 0.25993 0.0
H579 H 0.46292 0.79682 0.24496 0.0
H580 H 0.45718 0.82136 0.26564 0.0
H581 H 0.58365 0.87395 0.21389 0.0
H582 H 0.56255 0.91635 0.20476 0.0
H583 H 0.54583 0.87006 0.1981 0.0
C584 C 0.39499 0.08537 0.47109 0.0
C585 C 0.39685 0.08988 0.45271 0.0
C586 C 0.36449 0.06597 0.4789 0.0
C587 C 0.3357 0.04988 0.46804 0.0
C588 C 0.33732 0.05469 0.44949 0.0
C589 C 0.36757 0.07496 0.44209 0.0
C590 C 0.3633 0.06228 0.49875 0.0
C591 C 0.30766 0.03745 0.43737 0.0
C592 C 0.27815 0.96531 0.484 0.0
C593 C 0.24255 0.9818 0.48691 0.0
C594 C 0.30901 0.9873 0.4783 0.0
C595 C 0.30441 0.02693 0.47586 0.0
C596 C 0.26901 0.04399 0.47964 0.0
C597 C 0.23838 0.02116 0.48489 0.0
C598 C 0.346 0.96782 0.47409 0.0
C599 C 0.26316 0.08622 0.47764 0.0
H600 H 0.41745 0.09693 0.47938 0.0
H601 H 0.36892 0.07798 0.42786 0.0
H602 H 0.33557 0.0724 0.50372 0.0
H603 H 0.36606 0.032 0.50256 0.0
H604 H 0.38635 0.07861 0.50539 0.0
H605 H 0.31299 0.04382 0.42324 0.0
H606 H 0.30716 0.00618 0.43912 0.0
H607 H 0.2791 0.04824 0.44078 0.0
H608 H 0.2815 0.93488 0.48544 0.0
H609 H 0.21099 0.03411 0.48725 0.0
H610 H 0.36979 0.98147 0.48139 0.0
H611 H 0.35192 0.97076 0.45979 0.0
H612 H 0.34554 0.93713 0.47746 0.0
H613 H 0.28615 0.10197 0.48458 0.0
H614 H 0.23539 0.0956 0.48291 0.0
H615 H 0.26439 0.09408 0.46347 0.0
C616 C 0.09523 0.90307 0.72435 0.0
C617 C 0.1158 0.92417 0.712 0.0
C618 C 0.11018 0.86938 0.73155 0.0
C619 C 0.14597 0.85608 0.72585 0.0
C620 C 0.16659 0.87716 0.71324 0.0
C621 C 0.15148 0.91118 0.70666 0.0
C622 C 0.08784 0.84814 0.74529 0.0
C623 C 0.2044 0.8635 0.70648 0.0
C624 C 0.2067 0.78674 0.75209 0.0
C625 C 0.19896 0.7525 0.74335 0.0
C626 C 0.18808 0.82039 0.74714 0.0
C627 C 0.16197 0.8199 0.73279 0.0
C628 C 0.1535 0.7852 0.72417 0.0
C629 C 0.17175 0.7518 0.72972 0.0
C630 C 0.19713 0.85664 0.75695 0.0
C631 C 0.12654 0.78362 0.70855 0.0
H632 H 0.0677 0.91319 0.72855 0.0
H633 H 0.16729 0.92722 0.69698 0.0
H634 H 0.08065 0.81934 0.74038 0.0
H635 H 0.10531 0.84453 0.75745 0.0
H636 H 0.06113 0.86298 0.74877 0.0
H637 H 0.21633 0.88276 0.69632 0.0
H638 H 0.22511 0.86123 0.71756 0.0
H639 H 0.20124 0.83476 0.70065 0.0
H640 H 0.22749 0.78726 0.76274 0.0
H641 H 0.16585 0.72538 0.72288 0.0
H642 H 0.17055 0.87107 0.76091 0.0
H643 H 0.21264 0.87634 0.74816 0.0
H644 H 0.21482 0.8515 0.76894 0.0
H645 H 0.09885 0.79643 0.712 0.0
H646 H 0.12157 0.75413 0.70387 0.0
H647 H 0.13832 0.80045 0.69749 0.0
C648 C 0.77412 0.56591 0.81833 0.0
C649 C 0.74678 0.57592 0.80557 0.0
C650 C 0.80626 0.54475 0.8138 0.0
C651 C 0.81188 0.53434 0.79595 0.0
C652 C 0.78512 0.54563 0.78288 0.0
C653 C 0.75249 0.56576 0.7879 0.0
C654 C 0.83359 0.53253 0.82822 0.0
C655 C 0.7908 0.53614 0.76365 0.0
C656 C 0.91326 0.50626 0.78566 0.0
C657 C 0.9109 0.46655 0.78572 0.0
C658 C 0.88084 0.52873 0.78807 0.0
C659 C 0.84548 0.51101 0.79119 0.0
C660 C 0.84287 0.47085 0.79101 0.0
C661 C 0.87558 0.44908 0.78799 0.0
C662 C 0.88461 0.57142 0.78763 0.0
C663 C 0.8059 0.45086 0.79475 0.0
H664 H 0.76965 0.5733 0.83204 0.0
H665 H 0.73144 0.57356 0.778 0.0
H666 H 0.83572 0.50111 0.82846 0.0
H667 H 0.86237 0.54378 0.82555 0.0
H668 H 0.82475 0.54245 0.84148 0.0
H669 H 0.76881 0.54929 0.75499 0.0
H670 H 0.81918 0.54595 0.75935 0.0
H671 H 0.78986 0.50493 0.76177 0.0
H672 H 0.94054 0.51981 0.78369 0.0
H673 H 0.8738 0.41836 0.78809 0.0
H674 H 0.8797 0.58319 0.801 0.0
H675 H 0.86282 0.58383 0.77865 0.0
H676 H 0.91312 0.58065 0.78319 0.0
H677 H 0.79654 0.45787 0.80832 0.0
H678 H 0.80837 0.41953 0.79359 0.0
H679 H 0.78341 0.4608 0.78551 0.0
C680 C 0.59233 0.24733 0.03733 0.0
C681 C 0.5753 0.24072 0.05369 0.0
C682 C 0.60814 0.28285 0.0333 0.0
C683 C 0.60763 0.31217 0.04609 0.0
C684 C 0.58999 0.30581 0.06255 0.0
C685 C 0.57367 0.27029 0.06607 0.0
C686 C 0.62591 0.28882 0.01545 0.0
C687 C 0.5894 0.33614 0.07664 0.0
C688 C 0.68247 0.38944 0.04194 0.0
C689 C 0.66137 0.41932 0.03453 0.0
C690 C 0.6652 0.35463 0.04606 0.0
C691 C 0.62606 0.3493 0.04235 0.0
C692 C 0.60458 0.37934 0.03493 0.0
C693 C 0.62237 0.41407 0.03131 0.0
C694 C 0.68887 0.32349 0.05431 0.0
C695 C 0.56294 0.3746 0.03052 0.0
H696 H 0.59358 0.22459 0.02771 0.0
H697 H 0.56089 0.26526 0.07883 0.0
H698 H 0.61322 0.31404 0.00889 0.0
H699 H 0.65673 0.29444 0.01709 0.0
H700 H 0.62216 0.26386 0.00664 0.0
H701 H 0.57415 0.32684 0.08866 0.0
H702 H 0.61891 0.34387 0.08045 0.0
H703 H 0.57558 0.36219 0.07146 0.0
H704 H 0.71252 0.39327 0.04459 0.0
H705 H 0.6057 0.43688 0.02559 0.0
H706 H 0.68944 0.29848 0.04542 0.0
H707 H 0.67599 0.31417 0.06691 0.0
H708 H 0.71855 0.33264 0.057 0.0
H709 H 0.55905 0.35084 0.02105 0.0
H710 H 0.55033 0.40066 0.02465 0.0
H711 H 0.54697 0.36724 0.04259 0.0
C712 C 0.90812 0.07272 0.29606 0.0
C713 C 0.92264 0.08702 0.31202 0.0
C714 C 0.87342 0.08601 0.28915 0.0
C715 C 0.85259 0.11351 0.29866 0.0
C716 C 0.8668 0.12733 0.31497 0.0
C717 C 0.90182 0.11419 0.32135 0.0
C718 C 0.85934 0.07113 0.27157 0.0
C719 C 0.84504 0.15605 0.32569 0.0
C720 C 0.78038 0.17708 0.27586 0.0
C721 C 0.74621 0.15886 0.27997 0.0
C722 C 0.81534 0.16194 0.2814 0.0
C723 C 0.81601 0.12825 0.29159 0.0
C724 C 0.78161 0.10976 0.2958 0.0
C725 C 0.74713 0.1251 0.28978 0.0
C726 C 0.85153 0.1821 0.27644 0.0
C727 C 0.78118 0.07425 0.30697 0.0
H728 H 0.92428 0.05183 0.28879 0.0
H729 H 0.91276 0.12502 0.33381 0.0
H730 H 0.831 0.05787 0.27308 0.0
H731 H 0.85601 0.09497 0.2621 0.0
H732 H 0.87893 0.04985 0.26583 0.0
H733 H 0.85943 0.16283 0.33843 0.0
H734 H 0.8416 0.18271 0.31805 0.0
H735 H 0.81617 0.14515 0.3285 0.0
H736 H 0.77982 0.20292 0.26809 0.0
H737 H 0.72076 0.11098 0.29305 0.0
H738 H 0.87101 0.16211 0.26975 0.0
H739 H 0.86632 0.19241 0.28852 0.0
H740 H 0.84622 0.20671 0.26758 0.0
H741 H 0.79886 0.05191 0.30084 0.0
H742 H 0.75204 0.06292 0.30875 0.0
H743 H 0.79367 0.08038 0.32018 0.0
C744 C 0.06613 0.41773 0.5623 0.0
C745 C 0.06512 0.4224 0.58069 0.0
C746 C 0.04702 0.38738 0.55404 0.0
C747 C 0.02622 0.36137 0.56442 0.0
C748 C 0.02554 0.36571 0.583 0.0
C749 C 0.0451 0.39601 0.59089 0.0
C750 C 0.04875 0.38332 0.53421 0.0
C751 C 0.00365 0.33863 0.59455 0.0
C752 C 0.94548 0.30202 0.54547 0.0
C753 C 0.96226 0.26601 0.54478 0.0
C754 C 0.96644 0.33378 0.55115 0.0
C755 C 0.00512 0.32938 0.55606 0.0
C756 C 0.02263 0.29342 0.55452 0.0
C757 C 0.00094 0.26214 0.549 0.0
C758 C 0.94672 0.37164 0.55272 0.0
C759 C 0.06388 0.28761 0.55943 0.0
H760 H 0.08154 0.43798 0.55432 0.0
H761 H 0.04406 0.39936 0.60511 0.0
H762 H 0.05988 0.35489 0.5307 0.0
H763 H 0.01979 0.38555 0.52843 0.0
H764 H 0.06702 0.40529 0.52808 0.0
H765 H 0.00585 0.34609 0.60878 0.0
H766 H 0.97323 0.33867 0.59061 0.0
H767 H 0.01436 0.30929 0.59278 0.0
H768 H 0.91562 0.30516 0.5422 0.0
H769 H 0.01419 0.23443 0.54833 0.0
H770 H 0.96326 0.39405 0.54596 0.0
H771 H 0.9449 0.37973 0.56685 0.0
H772 H 0.91755 0.37107 0.547 0.0
H773 H 0.08184 0.30918 0.55288 0.0
H774 H 0.07419 0.25892 0.55574 0.0
H775 H 0.06774 0.29124 0.5739 0.0
C776 C 0.61262 0.13264 0.49531 0.0
C777 C 0.60751 0.13297 0.47691 0.0
C778 C 0.64915 0.13453 0.50293 0.0
C779 C 0.68128 0.13706 0.49188 0.0
C780 C 0.67622 0.13815 0.47332 0.0
C781 C 0.63948 0.13598 0.46608 0.0
C782 C 0.65344 0.1331 0.52277 0.0
C783 C 0.70969 0.14105 0.46109 0.0
C784 C 0.77623 0.17062 0.51063 0.0
C785 C 0.7958 0.13619 0.51279 0.0
C786 C 0.73878 0.17137 0.50404 0.0
C787 C 0.72033 0.13687 0.49962 0.0
C788 C 0.7397 0.10205 0.50199 0.0
C789 C 0.77715 0.10213 0.50847 0.0
C790 C 0.71912 0.20909 0.50156 0.0
C791 C 0.72098 0.06462 0.49753 0.0
H792 H 0.58811 0.13036 0.50378 0.0
H793 H 0.63586 0.13654 0.45184 0.0
H794 H 0.66973 0.10742 0.52666 0.0
H795 H 0.66974 0.15808 0.52755 0.0
H796 H 0.62561 0.1325 0.52954 0.0
H797 H 0.70084 0.14331 0.447 0.0
H798 H 0.72719 0.16621 0.46455 0.0
H799 H 0.72805 0.11566 0.46264 0.0
H800 H 0.79031 0.1971 0.51391 0.0
H801 H 0.79177 0.0753 0.51018 0.0
H802 H 0.69212 0.20949 0.50896 0.0
H803 H 0.71184 0.21327 0.4874 0.0
H804 H 0.73698 0.23329 0.50606 0.0
H805 H 0.69402 0.0617 0.50485 0.0
H806 H 0.73942 0.03995 0.50077 0.0
H807 H 0.71382 0.06366 0.48324 0.0
C808 C 0.05008 0.12975 0.72631 0.0
C809 C 0.05486 0.13207 0.70795 0.0
C810 C 0.04753 0.16264 0.7367 0.0
C811 C 0.0498 0.1987 0.72855 0.0
C812 C 0.05458 0.20125 0.71004 0.0
C813 C 0.05708 0.16792 0.69997 0.0
C814 C 0.04255 0.15882 0.7564 0.0
C815 C 0.05717 0.23922 0.70087 0.0
C816 C 0.01276 0.28672 0.75179 0.0
C817 C 0.04657 0.30348 0.75791 0.0
C818 C 0.01326 0.25216 0.74252 0.0
C819 C 0.04835 0.23389 0.73938 0.0
C820 C 0.08239 0.25003 0.746 0.0
C821 C 0.0811 0.28458 0.75514 0.0
C822 C 0.97636 0.23575 0.73566 0.0
C823 C 0.12036 0.23128 0.74304 0.0
H824 H 0.04824 0.10218 0.73259 0.0
H825 H 0.06063 0.17002 0.6858 0.0
H826 H 0.06677 0.17238 0.76345 0.0
H827 H 0.01642 0.17379 0.76054 0.0
H828 H 0.04066 0.12871 0.76067 0.0
H829 H 0.06013 0.23632 0.68634 0.0
H830 H 0.03143 0.2563 0.70359 0.0
H831 H 0.08191 0.25533 0.70609 0.0
H832 H 0.98595 0.30105 0.75383 0.0
H833 H 0.1074 0.29703 0.75993 0.0
H834 H 0.9731 0.20602 0.74024 0.0
H835 H 0.97657 0.23515 0.72101 0.0
H836 H 0.95134 0.25237 0.73999 0.0
H837 H 0.1198 0.20157 0.74789 0.0
H838 H 0.14398 0.24653 0.7498 0.0
H839 H 0.12635 0.23024 0.72869 0.0
C840 C 0.03285 0.53098 0.98171 0.0
C841 C 0.02798 0.5322 0.96328 0.0
C842 C 0.00169 0.52593 0.99293 0.0
C843 C 0.96487 0.52169 0.98553 0.0
C844 C 0.95982 0.52285 0.96695 0.0
C845 C 0.99137 0.52826 0.95608 0.0
C846 C 0.00811 0.52529 0.01267 0.0
C847 C 0.92102 0.51835 0.95852 0.0
C848 C 0.882 0.47705 0.00968 0.0
C849 C 0.85965 0.50906 0.01304 0.0
C850 C 0.91761 0.48077 0.0016 0.0
C851 C 0.93114 0.51737 0.99706 0.0
C852 C 0.90998 0.54985 0.00182 0.0
C853 C 0.87439 0.54527 0.00964 0.0
C854 C 0.93932 0.44545 0.99673 0.0
C855 C 0.9236 0.5894 0.99751 0.0
H856 H 0.06105 0.53398 0.98739 0.0
H857 H 0.98732 0.52892 0.94187 0.0
H858 H 0.99183 0.54854 0.01893 0.0
H859 H 0.99753 0.49821 0.01824 0.0
H860 H 0.03856 0.52854 0.01632 0.0
H861 H 0.92208 0.51878 0.94387 0.0
H862 H 0.90803 0.49119 0.96276 0.0
H863 H 0.90209 0.54158 0.96293 0.0
H864 H 0.87058 0.44901 0.01219 0.0
H865 H 0.85727 0.57013 0.01236 0.0
H866 H 0.96969 0.44831 0.0005 0.0
H867 H 0.93794 0.44141 0.9822 0.0
H868 H 0.92761 0.41969 0.00315 0.0
H869 H 0.95378 0.59299 0.00148 0.0
H870 H 0.90647 0.61158 0.00415 0.0
H871 H 0.92167 0.59404 0.98303 0.0
C872 C 0.62596 0.52929 0.23044 0.0
C873 C 0.62788 0.52944 0.21194 0.0
C874 C 0.63026 0.49537 0.24007 0.0
C875 C 0.63716 0.46098 0.23097 0.0
C876 C 0.63961 0.46113 0.21231 0.0
C877 C 0.63468 0.49525 0.20304 0.0
C878 C 0.62695 0.49624 0.25992 0.0
C879 C 0.64735 0.42515 0.2021 0.0
C880 C 0.68075 0.37432 0.25315 0.0
C881 C 0.64928 0.35009 0.25414 0.0
C882 C 0.67701 0.4113 0.24637 0.0
C883 C 0.64085 0.42443 0.24073 0.0
C884 C 0.60864 0.40088 0.24283 0.0
C885 C 0.6133 0.3639 0.24937 0.0
C886 C 0.7121 0.4354 0.24423 0.0
C887 C 0.56949 0.41399 0.23728 0.0
H888 H 0.62066 0.55561 0.23741 0.0
H889 H 0.63652 0.49514 0.18876 0.0
H890 H 0.60308 0.47785 0.26409 0.0
H891 H 0.65315 0.48473 0.26615 0.0
H892 H 0.62208 0.52537 0.26504 0.0
H893 H 0.64981 0.43034 0.18769 0.0
H894 H 0.67406 0.41187 0.20693 0.0
H895 H 0.62413 0.40443 0.20425 0.0
H896 H 0.70865 0.36373 0.25677 0.0
H897 H 0.58881 0.34537 0.25025 0.0
H898 H 0.70742 0.46427 0.24962 0.0
H899 H 0.71834 0.43857 0.22997 0.0
H900 H 0.73731 0.42275 0.2509 0.0
H901 H 0.56357 0.44259 0.24272 0.0
H902 H 0.54696 0.39416 0.24169 0.0
H903 H 0.56794 0.41619 0.22267 0.0
C904 C 0.99623 0.95728 0.3827 0.0
C905 C 0.02303 0.97689 0.37263 0.0
C906 C 0.0074 0.93682 0.3978 0.0
C907 C 0.04605 0.93686 0.40313 0.0
C908 C 0.07356 0.95332 0.39198 0.0
C909 C 0.06174 0.97263 0.37674 0.0
C910 C 0.97706 0.91824 0.40865 0.0
C911 C 0.11515 0.95417 0.39707 0.0
C912 C 0.07516 0.94775 0.45094 0.0
C913 C 0.09361 0.91333 0.4542 0.0
C914 C 0.05688 0.95458 0.43476 0.0
C915 C 0.05745 0.92632 0.42145 0.0
C916 C 0.07407 0.89056 0.42511 0.0
C917 C 0.09284 0.88476 0.44136 0.0
C918 C 0.03879 0.99285 0.4316 0.0
C919 C 0.07314 0.85903 0.41165 0.0
H920 H 0.96629 0.95971 0.37944 0.0
H921 H 0.08283 0.98705 0.36886 0.0
H922 H 0.98872 0.89651 0.41778 0.0
H923 H 0.96235 0.94044 0.41637 0.0
H924 H 0.95547 0.90466 0.39991 0.0
H925 H 0.13319 0.96502 0.38623 0.0
H926 H 0.11923 0.97282 0.40876 0.0
H927 H 0.12518 0.92542 0.40077 0.0
H928 H 0.07639 0.97001 0.46083 0.0
H929 H 0.10718 0.85809 0.44399 0.0
H930 H 0.00865 0.98921 0.42759 0.0
H931 H 0.0535 0.00774 0.42071 0.0
H932 H 0.03995 0.01108 0.44355 0.0
H933 H 0.04422 0.85631 0.40582 0.0
H934 H 0.08158 0.83135 0.41752 0.0
H935 H 0.09283 0.86572 0.40075 0.0
C936 C 0.21155 0.56431 0.63453 0.0
C937 C 0.20712 0.52548 0.63095 0.0
C938 C 0.22881 0.57669 0.65026 0.0
C939 C 0.24298 0.54962 0.66248 0.0
C940 C 0.24258 0.51063 0.6579 0.0
C941 C 0.22406 0.49895 0.64231 0.0
C942 C 0.22842 0.61858 0.65453 0.0
C943 C 0.25852 0.48051 0.66994 0.0
C944 C 0.29237 0.59544 0.70194 0.0
C945 C 0.2622 0.59827 0.71377 0.0
C946 C 0.28758 0.57682 0.68562 0.0
C947 C 0.25151 0.56199 0.68092 0.0
C948 C 0.22157 0.56343 0.69323 0.0
C949 C 0.22716 0.582 0.7094 0.0
C950 C 0.32062 0.57404 0.6732 0.0
C951 C 0.18296 0.54711 0.68898 0.0
H952 H 0.19874 0.58511 0.62577 0.0
H953 H 0.22126 0.46889 0.63949 0.0
H954 H 0.20775 0.62397 0.66521 0.0
H955 H 0.2567 0.628 0.65937 0.0
H956 H 0.22027 0.63615 0.64291 0.0
H957 H 0.27395 0.45884 0.66214 0.0
H958 H 0.27808 0.4922 0.68012 0.0
H959 H 0.2346 0.46584 0.67646 0.0
H960 H 0.31945 0.60824 0.70536 0.0
H961 H 0.20359 0.58508 0.71838 0.0
H962 H 0.31555 0.59264 0.66159 0.0
H963 H 0.32338 0.54453 0.66825 0.0
H964 H 0.34778 0.5826 0.67965 0.0
H965 H 0.16901 0.56433 0.67849 0.0
H966 H 0.16443 0.54663 0.70073 0.0
H967 H 0.18568 0.51769 0.68396 0.0
C968 C 0.6508 0.7081 0.89006 0.0
C969 C 0.62467 0.71317 0.87612 0.0
C970 C 0.64065 0.71587 0.90758 0.0
C971 C 0.60363 0.72921 0.9112 0.0
C972 C 0.5786 0.73803 0.89704 0.0
C973 C 0.58946 0.72998 0.87966 0.0
C974 C 0.66832 0.7064 0.92229 0.0
C975 C 0.53881 0.7521 0.90031 0.0
C976 C 0.55915 0.6907 0.95284 0.0
C977 C 0.56036 0.72218 0.96411 0.0
C978 C 0.57289 0.69287 0.9356 0.0
C979 C 0.58887 0.72733 0.92953 0.0
C980 C 0.5902 0.75934 0.94085 0.0
C981 C 0.57543 0.75652 0.95801 0.0
C982 C 0.57044 0.6581 0.92393 0.0
C983 C 0.60757 0.79628 0.93491 0.0
H984 H 0.6782 0.69538 0.88748 0.0
H985 H 0.56923 0.73439 0.86897 0.0
H986 H 0.6681 0.7287 0.93264 0.0
H987 H 0.65981 0.6793 0.92859 0.0
H988 H 0.69774 0.70316 0.91736 0.0
H989 H 0.52518 0.76327 0.88807 0.0
H990 H 0.52127 0.7283 0.90531 0.0
H991 H 0.5388 0.7747 0.91049 0.0
H992 H 0.54693 0.66432 0.95749 0.0
H993 H 0.57636 0.78085 0.96678 0.0
H994 H 0.59937 0.64675 0.9217 0.0
H995 H 0.55803 0.66541 0.91084 0.0
H996 H 0.55292 0.63528 0.92985 0.0
H997 H 0.63769 0.79166 0.93134 0.0
H998 H 0.60632 0.81853 0.94528 0.0
H999 H 0.59268 0.80682 0.9229 0.0
C1000 C 0.43652 0.11346 0.13001 0.0
C1001 C 0.47182 0.09694 0.12645 0.0
C1002 C 0.41876 0.10749 0.14638 0.0
C1003 C 0.43753 0.08569 0.15956 0.0
C1004 C 0.47315 0.069 0.15592 0.0
C1005 C 0.48951 0.07443 0.13939 0.0
C1006 C 0.38051 0.12526 0.14961 0.0
C1007 C 0.49476 0.04628 0.16968 0.0
C1008 C 0.4306 0.0963 0.20875 0.0
C1009 C 0.41596 0.06079 0.21339 0.0
C1010 C 0.43384 0.10702 0.191 0.0
C1011 C 0.42192 0.08149 0.17764 0.0
C1012 C 0.40258 0.04776 0.18233 0.0
C1013 C 0.39989 0.03768 0.20023 0.0
C1014 C 0.45376 0.14371 0.18657 0.0
C1015 C 0.38817 0.02052 0.16843 0.0
H1016 H 0.42279 0.13089 0.12003 0.0
H1017 H 0.51704 0.06196 0.13684 0.0
H1018 H 0.36232 0.10645 0.15768 0.0
H1019 H 0.38444 0.15226 0.15693 0.0
H1020 H 0.36546 0.13177 0.137 0.0
H1021 H 0.52228 0.03547 0.16471 0.0
H1022 H 0.50056 0.06418 0.18145 0.0
H1023 H 0.47749 0.02174 0.17403 0.0
H1024 H 0.44162 0.11467 0.21902 0.0
H1025 H 0.38796 0.01038 0.20378 0.0
H1026 H 0.43819 0.15911 0.17599 0.0
H1027 H 0.48259 0.1374 0.18157 0.0
H1028 H 0.4566 0.16266 0.19822 0.0
H1029 H 0.37482 0.03612 0.15725 0.0
H1030 H 0.36723 1.0002 0.17391 0.0
H1031 H 0.41237 0.00407 0.16313 0.0
C1032 C 0.15648 0.5718 0.88024 0.0
C1033 C 0.14913 0.60138 0.89213 0.0
C1034 C 0.16711 0.57921 0.86282 0.0
C1035 C 0.16886 0.61717 0.85677 0.0
C1036 C 0.15945 0.64717 0.86841 0.0
C1037 C 0.15035 0.63897 0.88608 0.0
C1038 C 0.17709 0.54617 0.85108 0.0
C1039 C 0.15969 0.6879 0.86226 0.0
C1040 C 0.23625 0.63333 0.81869 0.0
C1041 C 0.21183 0.63002 0.80412 0.0
C1042 C 0.22234 0.63077 0.83595 0.0
C1043 C 0.18295 0.62516 0.83863 0.0
C1044 C 0.15801 0.62316 0.82384 0.0
C1045 C 0.17286 0.62524 0.8067 0.0
C1046 C 0.25013 0.63149 0.85127 0.0
C1047 C 0.11593 0.61709 0.82605 0.0
H1048 H 0.15561 0.54259 0.88474 0.0
H1049 H 0.14445 0.66194 0.89517 0.0
H1050 H 0.15308 0.54069 0.84188 0.0
H1051 H 0.20259 0.55235 0.84309 0.0
H1052 H 0.18248 0.51983 0.85877 0.0
H1053 H 0.14835 0.70757 0.87238 0.0
H1054 H 0.18911 0.69664 0.85911 0.0
H1055 H 0.14249 0.69082 0.84997 0.0
H1056 H 0.2665 0.63638 0.81655 0.0
H1057 H 0.15418 0.62214 0.79531 0.0
H1058 H 0.25029 0.60339 0.8579 0.0
H1059 H 0.24138 0.65283 0.86119 0.0
H1060 H 0.27948 0.63813 0.84702 0.0
H1061 H 0.11056 0.58696 0.82945 0.0
H1062 H 0.09981 0.62378 0.81375 0.0
H1063 H 0.10489 0.63485 0.83695 0.0
C1064 C 0.54248 0.70491 0.13854 0.0
C1065 C 0.55588 0.67097 0.14593 0.0
C1066 C 0.5292 0.70623 0.12105 0.0
C1067 C 0.52995 0.67288 0.11061 0.0
C1068 C 0.5409 0.63798 0.11843 0.0
C1069 C 0.55367 0.63742 0.13605 0.0
C1070 C 0.51664 0.74387 0.11344 0.0
C1071 C 0.54216 0.60161 0.10802 0.0
C1072 C 0.48034 0.68241 0.0661 0.0
C1073 C 0.51024 0.69487 0.05554 0.0
C1074 C 0.48665 0.67266 0.08388 0.0
C1075 C 0.52362 0.67607 0.09122 0.0
C1076 C 0.55413 0.68726 0.08034 0.0
C1077 C 0.5469 0.6972 0.06271 0.0
C1078 C 0.45352 0.66066 0.09504 0.0
C1079 C 0.59409 0.69058 0.0876 0.0
H1080 H 0.54368 0.73084 0.14625 0.0
H1081 H 0.5641 0.61108 0.1417 0.0
H1082 H 0.53793 0.75396 0.10381 0.0
H1083 H 0.48921 0.7407 0.10626 0.0
H1084 H 0.51338 0.76594 0.12379 0.0
H1085 H 0.52125 0.60145 0.09699 0.0
H1086 H 0.571 0.5984 0.10253 0.0
H1087 H 0.53679 0.57669 0.11663 0.0
H1088 H 0.45185 0.68133 0.06056 0.0
H1089 H 0.56969 0.7083 0.0547 0.0
H1090 H 0.44768 0.68291 0.10502 0.0
H1091 H 0.46044 0.63415 0.1023 0.0
H1092 H 0.42737 0.65597 0.08701 0.0
H1093 H 0.59539 0.71322 0.09777 0.0
H1094 H 0.61497 0.69742 0.07718 0.0
H1095 H 0.60259 0.66359 0.09409 0.0
C1096 C 0.46251 0.02227 0.38842 0.0
C1097 C 0.49642 0.03722 0.39532 0.0
C1098 C 0.45841 0.01494 0.37029 0.0
C1099 C 0.4892 0.02203 0.35885 0.0
C1100 C 0.52443 0.03422 0.36599 0.0
C1101 C 0.52749 0.04206 0.38411 0.0
C1102 C 0.4203 0.00191 0.36325 0.0
C1103 C 0.55831 0.04153 0.35451 0.0
C1104 C 0.47265 0.98042 0.3133 0.0
C1105 C 0.45709 0.01155 0.30432 0.0
C1106 C 0.48634 0.98414 0.33068 0.0
C1107 C 0.48304 0.0195 0.3394 0.0
C1108 C 0.46914 0.05148 0.33001 0.0
C1109 C 0.45594 0.047 0.31259 0.0
C1110 C 0.50253 0.94986 0.34 0.0
C1111 C 0.46606 0.08991 0.33869 0.0
H1112 H 0.43832 0.01853 0.39698 0.0
H1113 H 0.55389 0.05344 0.38936 0.0
H1114 H 0.40802 0.02419 0.35454 0.0
H1115 H 0.42363 0.9759 0.35516 0.0
H1116 H 0.39986 0.99588 0.37397 0.0
H1117 H 0.58528 0.03773 0.36203 0.0
H1118 H 0.55854 0.02256 0.34285 0.0
H1119 H 0.55721 0.07134 0.34989 0.0
H1120 H 0.47309 0.95293 0.30686 0.0
H1121 H 0.443 0.07078 0.30572 0.0
H1122 H 0.48244 0.94005 0.35023 0.0
H1123 H 0.52958 0.95732 0.3468 0.0
H1124 H 0.50781 0.92603 0.33074 0.0
H1125 H 0.44492 0.08866 0.34944 0.0
H1126 H 0.45735 0.1124 0.32919 0.0
H1127 H 0.49371 0.09805 0.34472 0.0
C1128 C 0.1255 0.95553 0.63233 0.0
C1129 C 0.10621 0.98748 0.63862 0.0
C1130 C 0.13296 0.95122 0.61429 0.0
C1131 C 0.12019 0.97925 0.60223 0.0
C1132 C 0.10288 0.01276 0.60863 0.0
C1133 C 0.09639 0.01664 0.62682 0.0
C1134 C 0.1517 0.91517 0.60804 0.0
C1135 C 0.0885 0.04307 0.59617 0.0
C1136 C 0.14957 0.96952 0.55414 0.0
C1137 C 0.11816 0.95029 0.54689 0.0
C1138 C 0.15043 0.98009 0.57206 0.0
C1139 C 0.11944 0.97065 0.58299 0.0
C1140 C 0.0877 0.95138 0.57571 0.0
C1141 C 0.08729 0.94182 0.55777 0.0
C1142 C 0.18467 0.00073 0.57939 0.0
C1143 C 0.05437 0.94014 0.58698 0.0
H1144 H 0.13337 0.93308 0.64145 0.0
H1145 H 0.08127 0.04132 0.63162 0.0
H1146 H 0.13024 0.89685 0.60142 0.0
H1147 H 0.17397 0.9216 0.59823 0.0
H1148 H 0.16472 0.89892 0.61912 0.0
H1149 H 0.07978 0.0692 0.60327 0.0
H1150 H 0.11059 0.05056 0.58643 0.0
H1151 H 0.06361 0.0321 0.58865 0.0
H1152 H 0.17349 0.97629 0.54581 0.0
H1153 H 0.06294 0.92679 0.55238 0.0
H1154 H 0.1989 0.98296 0.58958 0.0
H1155 H 0.17576 0.02741 0.58593 0.0
H1156 H 0.20556 0.0077 0.56898 0.0
H1157 H 0.06405 0.92158 0.59797 0.0
H1158 H 0.03217 0.92472 0.57932 0.0
H1159 H 0.04151 0.96578 0.59297 0.0
C1160 C 0.71787 0.54012 0.89255 0.0
C1161 C 0.68416 0.55344 0.88478 0.0
C1162 C 0.7188 0.52806 0.91018 0.0
C1163 C 0.68522 0.52958 0.92029 0.0
C1164 C 0.6506 0.54053 0.91216 0.0
C1165 C 0.65045 0.55231 0.89447 0.0
C1166 C 0.75622 0.51585 0.91827 0.0
C1167 C 0.61418 0.54232 0.92237 0.0
C1168 C 0.69253 0.48023 0.96467 0.0
C1169 C 0.70423 0.51022 0.97555 0.0
C1170 C 0.68384 0.48643 0.94677 0.0
C1171 C 0.6876 0.52338 0.93967 0.0
C1172 C 0.69804 0.55399 0.95084 0.0
C1173 C 0.70688 0.54687 0.96861 0.0
C1174 C 0.67289 0.45311 0.93528 0.0
C1175 C 0.70186 0.59392 0.9438 0.0
H1176 H 0.74394 0.54053 0.88507 0.0
H1177 H 0.62423 0.56251 0.88855 0.0
H1178 H 0.76574 0.53728 0.9281 0.0
H1179 H 0.75293 0.48849 0.92534 0.0
H1180 H 0.77874 0.51262 0.90822 0.0
H1181 H 0.58888 0.54388 0.91352 0.0
H1182 H 0.6113 0.5173 0.93114 0.0
H1183 H 0.61463 0.56807 0.93075 0.0
H1184 H 0.69131 0.45175 0.97006 0.0
H1185 H 0.71743 0.56969 0.97692 0.0
H1186 H 0.69656 0.44639 0.92625 0.0
H1187 H 0.64775 0.46012 0.92697 0.0
H1188 H 0.66646 0.42739 0.9432 0.0
H1189 H 0.72507 0.59509 0.93402 0.0
H1190 H 0.70814 0.6148 0.95443 0.0
H1191 H 0.67529 0.60252 0.9369 0.0
C1192 C 0.61056 0.13226 0.13778 0.0
C1193 C 0.60982 0.16583 0.12782 0.0
C1194 C 0.62169 0.13266 0.15565 0.0
C1195 C 0.63222 0.16744 0.1637 0.0
C1196 C 0.6339 0.20089 0.15336 0.0
C1197 C 0.62267 0.19966 0.13556 0.0
C1198 C 0.61961 0.0963 0.16606 0.0
C1199 C 0.64543 0.23854 0.16133 0.0
C1200 C 0.61502 0.19099 0.21169 0.0
C1201 C 0.65195 0.19048 0.21862 0.0
C1202 C 0.60776 0.18043 0.19412 0.0
C1203 C 0.63843 0.17019 0.18313 0.0
C1204 C 0.67559 0.16797 0.19036 0.0
C1205 C 0.68199 0.17863 0.20801 0.0
C1206 C 0.5676 0.18244 0.18703 0.0
C1207 C 0.70886 0.15648 0.17917 0.0
H1208 H 0.60047 0.106 0.13192 0.0
H1209 H 0.62245 0.22565 0.12789 0.0
H1210 H 0.59185 0.09507 0.17279 0.0
H1211 H 0.62173 0.07103 0.15735 0.0
H1212 H 0.64239 0.09485 0.17624 0.0
H1213 H 0.6479 0.26125 0.15122 0.0
H1214 H 0.62405 0.24745 0.17116 0.0
H1215 H 0.67305 0.23583 0.16838 0.0
H1216 H 0.59202 0.20135 0.21978 0.0
H1217 H 0.71063 0.17879 0.21339 0.0
H1218 H 0.55991 0.1554 0.18039 0.0
H1219 H 0.56537 0.20537 0.17703 0.0
H1220 H 0.54668 0.1881 0.19759 0.0
H1221 H 0.70204 0.13038 0.17158 0.0
H1222 H 0.73484 0.15134 0.18726 0.0
H1223 H 0.71498 0.17928 0.1695 0.0
C1224 C 0.95568 0.1188 0.4021 0.0
C1225 C 0.98961 0.12833 0.39363 0.0
C1226 C 0.95048 0.1264 0.42005 0.0
C1227 C 0.97964 0.14471 0.42981 0.0
C1228 C 0.01334 0.15604 0.42121 0.0
C1229 C 0.0181 0.1474 0.40321 0.0
C1230 C 0.91437 0.11318 0.42874 0.0
C1231 C 0.04492 0.17579 0.4312 0.0
C1232 C 0.94377 0.17889 0.47406 0.0
C1233 C 0.9519 0.14734 0.48476 0.0
C1234 C 0.95536 0.17996 0.45635 0.0
C1235 C 0.97552 0.14881 0.44926 0.0
C1236 C 0.98663 0.11854 0.46046 0.0
C1237 C 0.97456 0.11816 0.47804 0.0
C1238 C 0.94375 0.21318 0.44494 0.0
C1239 C 0.00857 0.08488 0.45365 0.0
H1240 H 0.93348 0.10401 0.39485 0.0
H1241 H 0.04435 0.15494 0.39675 0.0
H1242 H 0.92122 0.09131 0.43884 0.0
H1243 H 0.9005 0.13718 0.43561 0.0
H1244 H 0.89378 0.10085 0.41912 0.0
H1245 H 0.06724 0.18664 0.42225 0.0
H1246 H 0.03349 0.19983 0.43897 0.0
H1247 H 0.05821 0.15567 0.44068 0.0
H1248 H 0.92661 0.20181 0.47921 0.0
H1249 H 0.98189 0.09434 0.48642 0.0
H1250 H 0.92005 0.20451 0.43605 0.0
H1251 H 0.96762 0.22235 0.4365 0.0
H1252 H 0.93419 0.23773 0.45296 0.0
H1253 H 0.98828 0.06385 0.44806 0.0
H1254 H 0.025 0.07093 0.46443 0.0
H1255 H 0.02857 0.09295 0.44309 0.0
C1256 C 0.07879 0.56222 0.66413 0.0
C1257 C 0.06675 0.54375 0.64864 0.0
C1258 C 0.06887 0.5482 0.68082 0.0
C1259 C 0.04653 0.51489 0.68201 0.0
C1260 C 0.03182 0.49795 0.66644 0.0
C1261 C 0.04203 0.51263 0.64993 0.0
C1262 C 0.08346 0.56819 0.69719 0.0
C1263 C 0.00767 0.46258 0.66715 0.0
C1264 C 0.07058 0.45041 0.72051 0.0
C1265 C 0.04154 0.45859 0.73239 0.0
C1266 C 0.07196 0.46809 0.70398 0.0
C1267 C 0.04353 0.49467 0.69917 0.0
C1268 C 0.0134 0.50224 0.7109 0.0
C1269 C 0.01268 0.48394 0.72741 0.0
C1270 C 0.10465 0.4592 0.6919 0.0
C1271 C 0.98249 0.5302 0.70621 0.0
H1272 H 0.09734 0.58668 0.66326 0.0
H1273 H 0.03227 0.49833 0.63805 0.0
H1274 H 0.05923 0.58078 0.70435 0.0
H1275 H 0.09748 0.5478 0.70631 0.0
H1276 H 0.10383 0.59123 0.69403 0.0
H1277 H 0.99404 0.45613 0.6542 0.0
H1278 H 0.02567 0.43806 0.67104 0.0
H1279 H 0.98524 0.46554 0.67724 0.0
H1280 H 0.0926 0.43036 0.72424 0.0
H1281 H 0.99009 0.49017 0.73658 0.0
H1282 H 0.12303 0.48462 0.69073 0.0
H1283 H 0.09409 0.45202 0.67846 0.0
H1284 H 0.12218 0.43519 0.69684 0.0
H1285 H 0.99438 0.55936 0.70629 0.0
H1286 H 0.95861 0.52913 0.71566 0.0
H1287 H 0.97128 0.52469 0.6927 0.0
C1288 C 0.51825 0.20129 0.38515 0.0
C1289 C 0.54414 0.20773 0.39906 0.0
C1290 C 0.52809 0.20914 0.36757 0.0
C1291 C 0.56459 0.22384 0.36386 0.0
C1292 C 0.58934 0.2337 0.37797 0.0
C1293 C 0.57876 0.22564 0.3954 0.0
C1294 C 0.50069 0.19857 0.35291 0.0
C1295 C 0.62857 0.24924 0.37463 0.0
C1296 C 0.61024 0.18745 0.32204 0.0
C1297 C 0.60758 0.21887 0.31075 0.0
C1298 C 0.59659 0.18899 0.33932 0.0
C1299 C 0.57927 0.22269 0.34547 0.0
C1300 C 0.57662 0.25469 0.33417 0.0
C1301 C 0.59125 0.25255 0.31694 0.0
C1302 C 0.60039 0.15426 0.35093 0.0
C1303 C 0.55785 0.29085 0.34019 0.0
H1304 H 0.49133 0.18764 0.38781 0.0
H1305 H 0.59881 0.23109 0.40606 0.0
H1306 H 0.49973 0.22102 0.34265 0.0
H1307 H 0.51041 0.17205 0.34648 0.0
H1308 H 0.47153 0.1938 0.35791 0.0
H1309 H 0.64197 0.26076 0.38685 0.0
H1310 H 0.64688 0.22617 0.36951 0.0
H1311 H 0.62762 0.27195 0.36451 0.0
H1312 H 0.62317 0.16147 0.31732 0.0
H1313 H 0.58909 0.27681 0.30819 0.0
H1314 H 0.57181 0.14308 0.35408 0.0
H1315 H 0.61457 0.16176 0.36361 0.0
H1316 H 0.61693 0.13129 0.34456 0.0
H1317 H 0.52786 0.28505 0.34361 0.0
H1318 H 0.55848 0.31333 0.3299 0.0
H1319 H 0.57213 0.30171 0.3523 0.0
C1320 C 0.93938 0.08674 0.65568 0.0
C1321 C 0.94591 0.04882 0.66043 0.0
C1322 C 0.92539 0.09617 0.63885 0.0
C1323 C 0.91656 0.0669 0.62664 0.0
C1324 C 0.91937 0.02852 0.63205 0.0
C1325 C 0.93463 0.0199 0.64879 0.0
C1326 C 0.92318 0.13753 0.63366 0.0
C1327 C 0.90896 0.99625 0.6199 0.0
C1328 C 0.86799 0.10653 0.58571 0.0
C1329 C 0.899 0.11155 0.57455 0.0
C1330 C 0.87252 0.08854 0.60217 0.0
C1331 C 0.9092 0.07705 0.60781 0.0
C1332 C 0.9402 0.0805 0.59614 0.0
C1333 C 0.9347 0.09789 0.57966 0.0
C1334 C 0.83844 0.0833 0.61381 0.0
C1335 C 0.97968 0.06792 0.60144 0.0
H1336 H 0.94798 0.10933 0.66458 0.0
H1337 H 0.93927 0.99049 0.65244 0.0
H1338 H 0.94424 0.14347 0.6232 0.0
H1339 H 0.8947 0.14429 0.62815 0.0
H1340 H 0.92899 0.15681 0.64498 0.0
H1341 H 0.88724 0.0047 0.60995 0.0
H1342 H 0.93485 0.98674 0.61297 0.0
H1343 H 0.89803 0.97166 0.6275 0.0
H1344 H 0.84039 0.11727 0.58169 0.0
H1345 H 0.95876 0.10246 0.5711 0.0
H1346 H 0.8398 0.10377 0.62493 0.0
H1347 H 0.83835 0.05431 0.61955 0.0
H1348 H 0.81139 0.08785 0.60644 0.0
H1349 H 0.98977 0.08478 0.61295 0.0
H1350 H 1.00029 0.0713 0.59055 0.0
H1351 H 0.97933 0.03767 0.60548 0.0
C1352 C 0.07285 0.42438 0.9059 0.0
C1353 C 0.11023 0.4294 0.91202 0.0
C1354 C 0.0653 0.41339 0.88842 0.0
C1355 C 0.09588 0.40605 0.8769 0.0
C1356 C 0.13357 0.40718 0.88357 0.0
C1357 C 0.14035 0.41937 0.90099 0.0
C1358 C 0.02462 0.41296 0.88189 0.0
C1359 C 0.16714 0.39844 0.87212 0.0
C1360 C 0.06156 0.36518 0.83322 0.0
C1361 C 0.05921 0.39796 0.82283 0.0
C1362 C 0.07682 0.36666 0.85043 0.0
C1363 C 0.08804 0.40208 0.85762 0.0
C1364 C 0.08701 0.43497 0.84684 0.0
C1365 C 0.07263 0.43246 0.82955 0.0
C1366 C 0.07963 0.33066 0.86114 0.0
C1367 C 0.09902 0.47326 0.85388 0.0
H1368 H 0.04933 0.43197 0.91431 0.0
H1369 H 0.16934 0.42285 0.90566 0.0
H1370 H 0.02039 0.43594 0.87203 0.0
H1371 H 0.01807 0.38569 0.87521 0.0
H1372 H 0.00406 0.41713 0.89274 0.0
H1373 H 0.19069 0.38594 0.88006 0.0
H1374 H 0.15963 0.37861 0.86128 0.0
H1375 H 0.17769 0.42531 0.86633 0.0
H1376 H 0.05104 0.33852 0.82794 0.0
H1377 H 0.07015 0.45788 0.82154 0.0
H1378 H 0.05788 0.33088 0.87163 0.0
H1379 H 0.10786 0.3288 0.86773 0.0
H1380 H 0.07526 0.30497 0.85286 0.0
H1381 H 0.08052 0.48153 0.86502 0.0
H1382 H 0.09748 0.49575 0.84361 0.0
H1383 H 0.12853 0.47177 0.85904 0.0
C1384 C 0.70815 0.64395 0.14311 0.0
C1385 C 0.71394 0.61827 0.15707 0.0
C1386 C 0.71594 0.63363 0.12559 0.0
C1387 C 0.72979 0.59675 0.12195 0.0
C1388 C 0.73871 0.57194 0.13611 0.0
C1389 C 0.7309 0.5831 0.1535 0.0
C1390 C 0.70648 0.66113 0.1109 0.0
C1391 C 0.75308 0.53222 0.13282 0.0
C1392 C 0.69475 0.55254 0.07915 0.0
C1393 C 0.7269 0.55467 0.06846 0.0
C1394 C 0.69556 0.56583 0.09657 0.0
C1395 C 0.72934 0.58215 0.10348 0.0
C1396 C 0.76207 0.5842 0.09279 0.0
C1397 C 0.76059 0.56999 0.07541 0.0
C1398 C 0.65999 0.56281 0.10749 0.0
C1399 C 0.79831 0.60201 0.0996 0.0
H1400 H 0.69532 0.67133 0.1457 0.0
H1401 H 0.73571 0.56309 0.16417 0.0
H1402 H 0.72928 0.66148 0.1009 0.0
H1403 H 0.67992 0.65199 0.10412 0.0
H1404 H 0.70228 0.69044 0.11592 0.0
H1405 H 0.76351 0.51842 0.14513 0.0
H1406 H 0.72969 0.51471 0.12721 0.0
H1407 H 0.77634 0.53244 0.12306 0.0
H1408 H 0.66878 0.5403 0.07384 0.0
H1409 H 0.78543 0.57173 0.06711 0.0
H1410 H 0.64825 0.59158 0.1098 0.0
H1411 H 0.6665 0.55009 0.12058 0.0
H1412 H 0.63773 0.54534 0.1009 0.0
H1413 H 0.79302 0.63207 0.1032 0.0
H1414 H 0.82137 0.60105 0.08971 0.0
H1415 H 0.80812 0.58727 0.11176 0.0
loop_
_geom_bond_atom_site_label_1
_geom_bond_atom_site_label_2
_geom_bond_distance
_geom_bond_site_symmetry_2
_ccdc_geom_bond_type
Mg0 O7 2.141 . S
Mg0 O8 2.048 1_545 S
Mg0 O9 2.048 1_455 S
Mg0 O12 2.141 1_455 S
C1 O2 1.313 . S
C1 O8 1.195 . S
O2 C1 1.313 . S
C3 O4 1.245 . S
C3 O12 1.289 . S
O4 C3 1.245 . S
C5 O6 1.245 . S
C5 O7 1.289 1_565 S
O6 C5 1.245 . S
O7 Mg0 2.141 . S
O7 C5 1.289 1_545 S
O8 Mg0 2.048 1_565 S
O8 C1 1.195 . S
O9 Mg0 2.048 1_655 S
O9 C10 1.195 . S
C10 O9 1.195 . S
C10 O11 1.313 1_545 S
O11 C10 1.313 1_565 S
O12 Mg0 2.141 1_655 S
O12 C3 1.289 . S
Mg13 O20 2.141 . S
Mg13 O21 2.048 . S
Mg13 O22 2.048 . S
Mg13 O25 2.141 . S
C14 O15 1.313 . S
C14 O21 1.195 . S
O15 C14 1.313 . S
C16 O17 1.245 . S
C16 O25 1.289 . S
O17 C16 1.245 . S
C18 O19 1.245 . S
C18 O20 1.289 . S
O19 C18 1.245 . S
O20 Mg13 2.141 . S
O20 C18 1.289 . S
O21 Mg13 2.048 . S
O21 C14 1.195 . S
O22 Mg13 2.048 . S
O22 C23 1.195 . S
C23 O22 1.195 . S
C23 O24 1.313 . S
O24 C23 1.313 . S
O25 Mg13 2.141 . S
O25 C16 1.289 . S
Mg26 O33 2.141 . S
Mg26 O34 2.048 . S
Mg26 O35 2.048 . S
Mg26 O38 2.141 . S
C27 O28 1.313 . S
C27 O34 1.195 . S
O28 C27 1.313 . S
C29 O30 1.245 . S
C29 O38 1.289 . S
O30 C29 1.245 . S
C31 O32 1.245 . S
C31 O33 1.289 . S
O32 C31 1.245 . S
O33 Mg26 2.141 . S
O33 C31 1.289 . S
O34 Mg26 2.048 . S
O34 C27 1.195 . S
O35 Mg26 2.048 . S
O35 C36 1.195 . S
C36 O35 1.195 . S
C36 O37 1.313 . S
O37 C36 1.313 . S
O38 Mg26 2.141 . S
O38 C29 1.289 . S
Mg39 O46 2.141 . S
Mg39 O47 2.048 . S
Mg39 O48 2.048 . S
Mg39 O51 2.141 . S
C40 O41 1.313 . S
C40 O47 1.195 . S
O41 C40 1.313 . S
C42 O43 1.245 . S
C42 O51 1.289 . S
O43 C42 1.245 . S
C44 O45 1.245 . S
C44 O46 1.289 . S
O45 C44 1.245 . S
O46 Mg39 2.141 . S
O46 C44 1.289 . S
O47 Mg39 2.048 . S
O47 C40 1.195 . S
O48 Mg39 2.048 . S
O48 C49 1.195 . S
C49 O48 1.195 . S
C49 O50 1.313 . S
O50 C49 1.313 . S
O51 Mg39 2.141 . S
O51 C42 1.289 . S
Mg52 O59 2.141 . S
Mg52 O60 2.048 . S
Mg52 O61 2.048 . S
Mg52 O64 2.141 . S
C53 O54 1.313 . S
C53 O60 1.195 . S
O54 C53 1.313 . S
C55 O56 1.245 . S
C55 O64 1.289 . S
O56 C55 1.245 . S
C57 O58 1.245 . S
C57 O59 1.289 . S
O58 C57 1.245 . S
O59 Mg52 2.141 . S
O59 C57 1.289 . S
O60 Mg52 2.048 . S
O60 C53 1.195 . S
O61 Mg52 2.048 . S
O61 C62 1.195 . S
C62 O61 1.195 . S
C62 O63 1.313 . S
O63 C62 1.313 . S
O64 Mg52 2.141 . S
O64 C55 1.289 . S
Mg65 O72 2.141 . S
Mg65 O73 2.048 . S
Mg65 O74 2.048 . S
Mg65 O77 2.141 . S
C66 O67 1.313 . S
C66 O73 1.195 . S
O67 C66 1.313 . S
C68 O69 1.245 . S
C68 O77 1.289 . S
O69 C68 1.245 . S
C70 O71 1.245 . S
C70 O72 1.289 . S
O71 C70 1.245 . S
O72 Mg65 2.141 . S
O72 C70 1.289 . S
O73 Mg65 2.048 . S
O73 C66 1.195 . S
O74 Mg65 2.048 . S
O74 C75 1.195 . S
C75 O74 1.195 . S
C75 O76 1.313 . S
O76 C75 1.313 . S
O77 Mg65 2.141 . S
O77 C68 1.289 . S
Mg78 O85 2.141 . S
Mg78 O86 2.048 . S
Mg78 O87 2.048 . S
Mg78 O90 2.141 . S
C79 O80 1.313 . S
C79 O86 1.195 . S
O80 C79 1.313 . S
C81 O82 1.245 . S
C81 O90 1.289 . S
O82 C81 1.245 . S
C83 O84 1.245 . S
C83 O85 1.289 . S
O84 C83 1.245 . S
O85 Mg78 2.141 . S
O85 C83 1.289 . S
O86 Mg78 2.048 . S
O86 C79 1.195 . S
O87 Mg78 2.048 . S
O87 C88 1.195 . S
C88 O87 1.195 . S
C88 O89 1.313 . S
O89 C88 1.313 . S
O90 Mg78 2.141 . S
O90 C81 1.289 . S
Mg91 O98 2.141 1_655 S
Mg91 O99 2.048 1_655 S
Mg91 O100 2.048 1_565 S
Mg91 O103 2.141 1_565 S
C92 O93 1.313 . S
C92 O99 1.195 . S
O93 C92 1.313 . S
C94 O95 1.245 1_655 S
C94 O103 1.289 . S
O95 C94 1.245 1_455 S
C96 O97 1.245 . S
C96 O98 1.289 . S
O97 C96 1.245 . S
O98 Mg91 2.141 1_455 S
O98 C96 1.289 . S
O99 Mg91 2.048 1_455 S
O99 C92 1.195 . S
O100 Mg91 2.048 1_545 S
O100 C101 1.195 . S
C101 O100 1.195 . S
C101 O102 1.313 1_655 S
O102 C101 1.313 1_455 S
O103 Mg91 2.141 1_545 S
O103 C94 1.289 . S
Mn104 O109 2.095 1_554 S
Mn104 O119 2.162 . S
Mn104 O120 2.297 . S
Mn104 O128 2.385 . S
Mn104 O129 2.209 . S
Mn104 O130 2.094 . S
Mn105 O110 2.121 1_554 S
Mn105 N112 2.257 . S
Mn105 N121 2.282 . S
Mn105 O129 2.215 . S
Mn105 O131 2.117 1_554 S
C106 O128 1.234 . S
C106 O129 1.283 . S
C107 O119 1.281 . S
C107 O120 1.236 . S
C108 O130 1.240 1_556 S
C108 O131 1.264 . S
O109 Mn104 2.095 1_556 S
O109 C118 1.250 . S
O110 Mn105 2.121 1_556 S
O110 C118 1.258 . S
C111 N112 1.326 . S
C111 C115 1.460 . S
C111 H117 0.929 1_554 S
N112 Mn105 2.257 . S
N112 C111 1.326 . S
N112 C116 1.362 . S
C113 C114 1.258 . S
C113 C116 1.431 . S
C113 C133 1.449 . S
C114 C113 1.258 . S
C114 C115 1.477 . S
C114 H134 0.931 . S
C115 C111 1.460 . S
C115 C114 1.477 . S
C115 H135 0.930 . S
C116 N112 1.362 . S
C116 C113 1.431 . S
C116 C126 1.476 . S
H117 C111 0.929 1_556 S
C118 O109 1.250 . S
C118 O110 1.258 . S
O119 Mn104 2.162 . S
O119 C107 1.281 . S
O120 Mn104 2.297 . S
O120 C107 1.236 . S
N121 Mn105 2.282 . S
N121 C122 1.328 . S
N121 C126 1.318 . S
C122 N121 1.328 . S
C122 C123 1.457 . S
C122 H127 0.929 . S
C123 C122 1.457 . S
C123 C124 1.291 . S
C123 H136 0.931 . S
C124 C123 1.291 . S
C124 C125 1.373 . S
C124 H137 0.929 . S
C125 C124 1.373 . S
C125 C126 1.396 . S
C125 C132 1.403 . S
C126 C116 1.476 . S
C126 N121 1.318 . S
C126 C125 1.396 . S
H127 C122 0.929 . S
O128 Mn104 2.385 . S
O128 C106 1.234 . S
O129 Mn104 2.209 . S
O129 Mn105 2.215 . S
O129 C106 1.283 . S
O130 Mn104 2.094 . S
O130 C108 1.240 1_554 S
O131 Mn105 2.117 1_556 S
O131 C108 1.264 . S
C132 C125 1.403 . S
C132 C133 1.399 . S
C132 H138 0.929 . S
C133 C113 1.449 . S
C133 C132 1.399 . S
C133 H139 0.930 . S
H134 C114 0.931 . S
H135 C115 0.930 . S
H136 C123 0.931 . S
H137 C124 0.929 . S
H138 C132 0.929 . S
H139 C133 0.930 . S
Mn140 O145 2.095 . S
Mn140 O155 2.162 . S
Mn140 O156 2.297 . S
Mn140 O164 2.385 . S
Mn140 O165 2.209 . S
Mn140 O166 2.094 . S
Mn141 O146 2.121 . S
Mn141 N148 2.257 1_565 S
Mn141 N157 2.282 . S
Mn141 O165 2.215 . S
Mn141 O167 2.117 . S
C142 O164 1.234 . S
C142 O165 1.283 . S
C143 O155 1.281 . S
C143 O156 1.236 . S
C144 O166 1.240 . S
C144 O167 1.264 . S
O145 Mn140 2.095 . S
O145 C154 1.250 . S
O146 Mn141 2.121 . S
O146 C154 1.258 . S
C147 N148 1.326 . S
C147 C151 1.460 . S
C147 H153 0.929 . S
N148 Mn141 2.257 1_545 S
N148 C147 1.326 . S
N148 C152 1.362 . S
C149 C150 1.258 . S
C149 C152 1.431 . S
C149 C169 1.449 . S
C150 C149 1.258 . S
C150 C151 1.477 . S
C150 H170 0.931 . S
C151 C147 1.460 . S
C151 C150 1.477 . S
C151 H171 0.930 . S
C152 N148 1.362 . S
C152 C149 1.431 . S
C152 C162 1.476 1_545 S
H153 C147 0.929 . S
C154 O145 1.250 . S
C154 O146 1.258 . S
O155 Mn140 2.162 . S
O155 C143 1.281 . S
O156 Mn140 2.297 . S
O156 C143 1.236 . S
N157 Mn141 2.282 . S
N157 C158 1.328 . S
N157 C162 1.318 . S
C158 N157 1.328 . S
C158 C159 1.457 . S
C158 H163 0.929 . S
C159 C158 1.457 . S
C159 C160 1.291 . S
C159 H172 0.931 . S
C160 C159 1.291 . S
C160 C161 1.373 . S
C160 H173 0.929 . S
C161 C160 1.373 . S
C161 C162 1.396 . S
C161 C168 1.403 1_565 S
C162 C152 1.476 1_565 S
C162 N157 1.318 . S
C162 C161 1.396 . S
H163 C158 0.929 . S
O164 Mn140 2.385 . S
O164 C142 1.234 . S
O165 Mn140 2.209 . S
O165 Mn141 2.215 . S
O165 C142 1.283 . S
O166 Mn140 2.094 . S
O166 C144 1.240 . S
O167 Mn141 2.117 . S
O167 C144 1.264 . S
C168 C161 1.403 1_545 S
C168 C169 1.399 . S
C168 H174 0.929 . S
C169 C149 1.449 . S
C169 C168 1.399 . S
C169 H175 0.930 . S
H170 C150 0.931 . S
H171 C151 0.930 . S
H172 C159 0.931 . S
H173 C160 0.929 . S
H174 C168 0.929 . S
H175 C169 0.930 . S
Mn176 O181 2.095 . S
Mn176 O191 2.162 . S
Mn176 O192 2.297 . S
Mn176 O200 2.385 . S
Mn176 O201 2.209 . S
Mn176 O202 2.094 . S
Mn177 O182 2.121 . S
Mn177 N184 2.257 . S
Mn177 N193 2.282 . S
Mn177 O201 2.215 . S
Mn177 O203 2.117 . S
C178 O200 1.234 . S
C178 O201 1.283 . S
C179 O191 1.281 . S
C179 O192 1.236 . S
C180 O202 1.240 . S
C180 O203 1.264 . S
O181 Mn176 2.095 . S
O181 C190 1.250 . S
O182 Mn177 2.121 . S
O182 C190 1.258 . S
C183 N184 1.326 . S
C183 C187 1.460 . S
C183 H189 0.929 . S
N184 Mn177 2.257 . S
N184 C183 1.326 . S
N184 C188 1.362 . S
C185 C186 1.258 . S
C185 C188 1.431 . S
C185 C205 1.449 . S
C186 C185 1.258 . S
C186 C187 1.477 . S
C186 H206 0.931 1_455 S
C187 C183 1.460 . S
C187 C186 1.477 . S
C187 H207 0.930 . S
C188 N184 1.362 . S
C188 C185 1.431 . S
C188 C198 1.476 . S
H189 C183 0.929 . S
C190 O181 1.250 . S
C190 O182 1.258 . S
O191 Mn176 2.162 . S
O191 C179 1.281 . S
O192 Mn176 2.297 . S
O192 C179 1.236 . S
N193 Mn177 2.282 . S
N193 C194 1.328 . S
N193 C198 1.318 . S
C194 N193 1.328 . S
C194 C195 1.457 . S
C194 H199 0.929 . S
C195 C194 1.457 . S
C195 C196 1.291 . S
C195 H208 0.931 . S
C196 C195 1.291 . S
C196 C197 1.373 . S
C196 H209 0.929 . S
C197 C196 1.373 . S
C197 C198 1.396 . S
C197 C204 1.403 . S
C198 C188 1.476 . S
C198 N193 1.318 . S
C198 C197 1.396 . S
H199 C194 0.929 . S
O200 Mn176 2.385 . S
O200 C178 1.234 . S
O201 Mn176 2.209 . S
O201 Mn177 2.215 . S
O201 C178 1.283 . S
O202 Mn176 2.094 . S
O202 C180 1.240 . S
O203 Mn177 2.117 . S
O203 C180 1.264 . S
C204 C197 1.403 . S
C204 C205 1.399 . S
C204 H210 0.929 . S
C205 C185 1.449 . S
C205 C204 1.399 . S
C205 H211 0.930 1_455 S
H206 C186 0.931 1_655 S
H207 C187 0.930 . S
H208 C195 0.931 . S
H209 C196 0.929 . S
H210 C204 0.929 . S
H211 C205 0.930 1_655 S
Mn212 O217 2.095 . S
Mn212 O227 2.162 . S
Mn212 O228 2.297 . S
Mn212 O236 2.385 . S
Mn212 O237 2.209 . S
Mn212 O238 2.094 . S
Mn213 O218 2.121 . S
Mn213 N220 2.257 . S
Mn213 N229 2.282 . S
Mn213 O237 2.215 . S
Mn213 O239 2.117 . S
C214 O236 1.234 . S
C214 O237 1.283 . S
C215 O227 1.281 . S
C215 O228 1.236 . S
C216 O238 1.240 . S
C216 O239 1.264 . S
O217 Mn212 2.095 . S
O217 C226 1.250 . S
O218 Mn213 2.121 . S
O218 C226 1.258 . S
C219 N220 1.326 . S
C219 C223 1.460 . S
C219 H225 0.929 . S
N220 Mn213 2.257 . S
N220 C219 1.326 . S
N220 C224 1.362 . S
C221 C222 1.258 . S
C221 C224 1.431 . S
C221 C241 1.449 . S
C222 C221 1.258 . S
C222 C223 1.477 . S
C222 H242 0.931 . S
C223 C219 1.460 . S
C223 C222 1.477 . S
C223 H243 0.930 . S
C224 N220 1.362 . S
C224 C221 1.431 . S
C224 C234 1.476 . S
H225 C219 0.929 . S
C226 O217 1.250 . S
C226 O218 1.258 . S
O227 Mn212 2.162 . S
O227 C215 1.281 . S
O228 Mn212 2.297 . S
O228 C215 1.236 . S
N229 Mn213 2.282 . S
N229 C230 1.328 . S
N229 C234 1.318 . S
C230 N229 1.328 . S
C230 C231 1.457 . S
C230 H235 0.929 . S
C231 C230 1.457 . S
C231 C232 1.291 . S
C231 H244 0.931 . S
C232 C231 1.291 . S
C232 C233 1.373 . S
C232 H245 0.929 . S
C233 C232 1.373 . S
C233 C234 1.396 . S
C233 C240 1.403 . S
C234 C224 1.476 . S
C234 N229 1.318 . S
C234 C233 1.396 . S
H235 C230 0.929 . S
O236 Mn212 2.385 . S
O236 C214 1.234 . S
O237 Mn212 2.209 . S
O237 Mn213 2.215 . S
O237 C214 1.283 . S
O238 Mn212 2.094 . S
O238 C216 1.240 . S
O239 Mn213 2.117 . S
O239 C216 1.264 . S
C240 C233 1.403 . S
C240 C241 1.399 . S
C240 H246 0.929 . S
C241 C221 1.449 . S
C241 C240 1.399 . S
C241 H247 0.930 . S
H242 C222 0.931 . S
H243 C223 0.930 . S
H244 C231 0.931 . S
H245 C232 0.929 . S
H246 C240 0.929 . S
H247 C241 0.930 . S
Mn248 O253 2.095 . S
Mn248 O263 2.162 . S
Mn248 O264 2.297 . S
Mn248 O272 2.385 . S
Mn248 O273 2.209 . S
Mn248 O274 2.094 . S
Mn249 O254 2.121 . S
Mn249 N256 2.257 . S
Mn249 N265 2.282 . S
Mn249 O273 2.215 . S
Mn249 O275 2.117 . S
C250 O272 1.234 . S
C250 O273 1.283 . S
C251 O263 1.281 . S
C251 O264 1.236 . S
C252 O274 1.240 . S
C252 O275 1.264 . S
O253 Mn248 2.095 . S
O253 C262 1.250 . S
O254 Mn249 2.121 . S
O254 C262 1.258 . S
C255 N256 1.326 . S
C255 C259 1.460 . S
C255 H261 0.929 . S
N256 Mn249 2.257 . S
N256 C255 1.326 . S
N256 C260 1.362 . S
C257 C258 1.258 . S
C257 C260 1.431 . S
C257 C277 1.449 . S
C258 C257 1.258 . S
C258 C259 1.477 . S
C258 H278 0.931 1_545 S
C259 C255 1.460 . S
C259 C258 1.477 . S
C259 H279 0.930 . S
C260 N256 1.362 . S
C260 C257 1.431 . S
C260 C270 1.476 . S
H261 C255 0.929 . S
C262 O253 1.250 . S
C262 O254 1.258 . S
O263 Mn248 2.162 . S
O263 C251 1.281 . S
O264 Mn248 2.297 . S
O264 C251 1.236 . S
N265 Mn249 2.282 . S
N265 C266 1.328 . S
N265 C270 1.318 . S
C266 N265 1.328 . S
C266 C267 1.457 . S
C266 H271 0.929 . S
C267 C266 1.457 . S
C267 C268 1.291 . S
C267 H280 0.931 . S
C268 C267 1.291 . S
C268 C269 1.373 . S
C268 H281 0.929 . S
C269 C268 1.373 . S
C269 C270 1.396 . S
C269 C276 1.403 . S
C270 C260 1.476 . S
C270 N265 1.318 . S
C270 C269 1.396 . S
H271 C266 0.929 . S
O272 Mn248 2.385 . S
O272 C250 1.234 . S
O273 Mn248 2.209 . S
O273 Mn249 2.215 . S
O273 C250 1.283 . S
O274 Mn248 2.094 . S
O274 C252 1.240 . S
O275 Mn249 2.117 . S
O275 C252 1.264 . S
C276 C269 1.403 . S
C276 C277 1.399 . S
C276 H282 0.929 . S
C277 C257 1.449 . S
C277 C276 1.399 . S
C277 H283 0.930 1_545 S
H278 C258 0.931 1_565 S
H279 C259 0.930 . S
H280 C267 0.931 . S
H281 C268 0.929 . S
H282 C276 0.929 . S
H283 C277 0.930 1_565 S
Mn284 O289 2.095 . S
Mn284 O299 2.162 . S
Mn284 O300 2.297 . S
Mn284 O308 2.385 . S
Mn284 O309 2.209 . S
Mn284 O310 2.094 . S
Mn285 O290 2.121 . S
Mn285 N292 2.257 . S
Mn285 N301 2.282 . S
Mn285 O309 2.215 1_455 S
Mn285 O311 2.117 1_455 S
C286 O308 1.234 . S
C286 O309 1.283 . S
C287 O299 1.281 . S
C287 O300 1.236 . S
C288 O310 1.240 . S
C288 O311 1.264 . S
O289 Mn284 2.095 . S
O289 C298 1.250 . S
O290 Mn285 2.121 . S
O290 C298 1.258 1_455 S
C291 N292 1.326 . S
C291 C295 1.460 . S
C291 H297 0.929 . S
N292 Mn285 2.257 . S
N292 C291 1.326 . S
N292 C296 1.362 . S
C293 C294 1.258 . S
C293 C296 1.431 . S
C293 C313 1.449 . S
C294 C293 1.258 . S
C294 C295 1.477 . S
C294 H314 0.931 . S
C295 C291 1.460 . S
C295 C294 1.477 . S
C295 H315 0.930 . S
C296 N292 1.362 . S
C296 C293 1.431 . S
C296 C306 1.476 . S
H297 C291 0.929 . S
C298 O289 1.250 . S
C298 O290 1.258 1_655 S
O299 Mn284 2.162 . S
O299 C287 1.281 . S
O300 Mn284 2.297 . S
O300 C287 1.236 . S
N301 Mn285 2.282 . S
N301 C302 1.328 . S
N301 C306 1.318 . S
C302 N301 1.328 . S
C302 C303 1.457 . S
C302 H307 0.929 . S
C303 C302 1.457 . S
C303 C304 1.291 . S
C303 H316 0.931 . S
C304 C303 1.291 . S
C304 C305 1.373 . S
C304 H317 0.929 . S
C305 C304 1.373 . S
C305 C306 1.396 . S
C305 C312 1.403 . S
C306 C296 1.476 . S
C306 N301 1.318 . S
C306 C305 1.396 . S
H307 C302 0.929 . S
O308 Mn284 2.385 . S
O308 C286 1.234 . S
O309 Mn284 2.209 . S
O309 Mn285 2.215 1_655 S
O309 C286 1.283 . S
O310 Mn284 2.094 . S
O310 C288 1.240 . S
O311 Mn285 2.117 1_655 S
O311 C288 1.264 . S
C312 C305 1.403 . S
C312 C313 1.399 . S
C312 H318 0.929 . S
C313 C293 1.449 . S
C313 C312 1.399 . S
C313 H319 0.930 . S
H314 C294 0.931 . S
H315 C295 0.930 . S
H316 C303 0.931 . S
H317 C304 0.929 . S
H318 C312 0.929 . S
H319 C313 0.930 . S
Mn320 O325 2.095 . S
Mn320 O335 2.162 . S
Mn320 O336 2.297 . S
Mn320 O344 2.385 1_554 S
Mn320 O345 2.209 . S
Mn320 O346 2.094 . S
Mn321 O326 2.121 . S
Mn321 N328 2.257 . S
Mn321 N337 2.282 . S
Mn321 O345 2.215 . S
Mn321 O347 2.117 . S
C322 O344 1.234 . S
C322 O345 1.283 1_556 S
C323 O335 1.281 . S
C323 O336 1.236 . S
C324 O346 1.240 . S
C324 O347 1.264 . S
O325 Mn320 2.095 . S
O325 C334 1.250 . S
O326 Mn321 2.121 . S
O326 C334 1.258 . S
C327 N328 1.326 . S
C327 C331 1.460 . S
C327 H333 0.929 . S
N328 Mn321 2.257 . S
N328 C327 1.326 . S
N328 C332 1.362 . S
C329 C330 1.241 1_556 S
C329 C332 1.418 1_556 S
C329 C349 1.481 . S
C330 C329 1.241 1_554 S
C330 C331 1.477 . S
C330 H350 0.931 . S
C331 C327 1.460 . S
C331 C330 1.477 . S
C331 H351 0.930 . S
C332 N328 1.362 . S
C332 C329 1.418 1_554 S
C332 C342 1.476 1_554 S
H333 C327 0.929 . S
C334 O325 1.250 . S
C334 O326 1.258 . S
O335 Mn320 2.162 . S
O335 C323 1.281 . S
O336 Mn320 2.297 . S
O336 C323 1.236 . S
N337 Mn321 2.282 . S
N337 C338 1.328 1_554 S
N337 C342 1.318 1_554 S
C338 N337 1.328 1_556 S
C338 C339 1.457 . S
C338 H343 0.929 1_556 S
C339 C338 1.457 . S
C339 C340 1.291 . S
C339 H352 0.931 . S
C340 C339 1.291 . S
C340 C341 1.373 . S
C340 H353 0.929 . S
C341 C340 1.373 . S
C341 C342 1.396 . S
C341 C348 1.403 . S
C342 C332 1.476 1_556 S
C342 N337 1.318 1_556 S
C342 C341 1.396 . S
H343 C338 0.929 1_554 S
O344 Mn320 2.385 1_556 S
O344 C322 1.234 . S
O345 Mn320 2.209 . S
O345 Mn321 2.215 . S
O345 C322 1.283 1_554 S
O346 Mn320 2.094 . S
O346 C324 1.240 . S
O347 Mn321 2.117 . S
O347 C324 1.264 . S
C348 C341 1.403 . S
C348 C349 1.399 . S
C348 H354 0.929 . S
C349 C329 1.481 . S
C349 C348 1.399 . S
C349 H355 0.930 . S
H350 C330 0.931 . S
H351 C331 0.930 . S
H352 C339 0.931 . S
H353 C340 0.929 . S
H354 C348 0.929 . S
H355 C349 0.930 . S
Mn356 O361 2.095 . S
Mn356 O371 2.162 . S
Mn356 O372 2.297 . S
Mn356 O380 2.385 . S
Mn356 O381 2.209 . S
Mn356 O382 2.094 . S
Mn357 O362 2.121 . S
Mn357 N364 2.257 . S
Mn357 N373 2.282 . S
Mn357 O381 2.215 . S
Mn357 O383 2.117 . S
C358 O380 1.234 . S
C358 O381 1.283 . S
C359 O371 1.281 . S
C359 O372 1.236 . S
C360 O382 1.240 . S
C360 O383 1.264 . S
O361 Mn356 2.095 . S
O361 C370 1.250 . S
O362 Mn357 2.121 . S
O362 C370 1.258 . S
C363 N364 1.326 . S
C363 C367 1.460 . S
C363 H369 0.929 . S
N364 Mn357 2.257 . S
N364 C363 1.326 . S
N364 C368 1.362 . S
C365 C366 1.258 . S
C365 C368 1.431 . S
C365 C385 1.449 . S
C366 C365 1.258 . S
C366 C367 1.477 . S
C366 H386 0.931 . S
C367 C363 1.460 . S
C367 C366 1.477 . S
C367 H387 0.930 . S
C368 N364 1.362 . S
C368 C365 1.431 . S
C368 C378 1.476 . S
H369 C363 0.929 . S
C370 O361 1.250 . S
C370 O362 1.258 . S
O371 Mn356 2.162 . S
O371 C359 1.281 . S
O372 Mn356 2.297 . S
O372 C359 1.236 . S
N373 Mn357 2.282 . S
N373 C374 1.328 . S
N373 C378 1.318 . S
C374 N373 1.328 . S
C374 C375 1.457 . S
C374 H379 0.929 . S
C375 C374 1.457 . S
C375 C376 1.291 . S
C375 H388 0.931 . S
C376 C375 1.291 . S
C376 C377 1.373 . S
C376 H389 0.929 . S
C377 C376 1.373 . S
C377 C378 1.396 . S
C377 C384 1.403 . S
C378 C368 1.476 . S
C378 N373 1.318 . S
C378 C377 1.396 . S
H379 C374 0.929 . S
O380 Mn356 2.385 . S
O380 C358 1.234 . S
O381 Mn356 2.209 . S
O381 Mn357 2.215 . S
O381 C358 1.283 . S
O382 Mn356 2.094 . S
O382 C360 1.240 . S
O383 Mn357 2.117 . S
O383 C360 1.264 . S
C384 C377 1.403 . S
C384 C385 1.399 . S
C384 H390 0.929 . S
C385 C365 1.449 . S
C385 C384 1.399 . S
C385 H391 0.930 . S
H386 C366 0.931 . S
H387 C367 0.930 . S
H388 C375 0.931 . S
H389 C376 0.929 . S
H390 C384 0.929 . S
H391 C385 0.930 . S
C392 C393 1.391 . S
C392 C394 1.394 . S
C392 H408 0.931 . S
C393 C392 1.391 . S
C393 C397 1.376 . S
C394 C392 1.394 . S
C394 C395 1.369 . S
C394 C398 1.531 . S
C395 C394 1.369 . S
C395 C396 1.410 . S
C395 C403 1.503 . S
C396 C395 1.410 . S
C396 C397 1.392 . S
C396 C399 1.511 . S
C397 C393 1.376 . S
C397 C396 1.392 . S
C397 H409 0.929 . S
C398 C394 1.531 . S
C398 H410 0.960 . S
C398 H411 0.951 1_565 S
C398 H412 0.960 . S
C399 C396 1.511 . S
C399 H413 0.961 . S
C399 H414 0.961 . S
C399 H415 0.961 . S
C400 C401 1.370 . S
C400 C402 1.363 . S
C400 H416 0.931 1_565 S
C401 C400 1.370 . S
C401 C405 1.408 . S
C402 C400 1.363 . S
C402 C403 1.370 . S
C402 C406 1.524 1_565 S
C403 C395 1.503 . S
C403 C402 1.370 . S
C403 C404 1.403 . S
C404 C403 1.403 . S
C404 C405 1.404 . S
C404 C407 1.539 . S
C405 C401 1.408 . S
C405 C404 1.404 . S
C405 H417 0.930 . S
C406 C402 1.524 1_545 S
C406 H418 0.956 . S
C406 H419 0.961 . S
C406 H420 0.961 . S
C407 C404 1.539 . S
C407 H421 0.958 . S
C407 H422 0.961 . S
C407 H423 0.960 . S
H408 C392 0.931 . S
H409 C397 0.929 . S
H410 C398 0.960 . S
H411 C398 0.951 1_545 S
H412 C398 0.960 . S
H413 C399 0.961 . S
H414 C399 0.961 . S
H415 C399 0.961 . S
H416 C400 0.931 1_545 S
H417 C405 0.930 . S
H418 C406 0.956 . S
H419 C406 0.961 . S
H420 C406 0.961 . S
H421 C407 0.958 . S
H422 C407 0.961 . S
H423 C407 0.960 . S
C424 C425 1.391 . S
C424 C426 1.394 . S
C424 H440 0.931 . S
C425 C424 1.391 . S
C425 C429 1.376 . S
C426 C424 1.394 . S
C426 C427 1.369 . S
C426 C430 1.531 . S
C427 C426 1.369 . S
C427 C428 1.410 . S
C427 C435 1.503 . S
C428 C427 1.410 . S
C428 C429 1.392 . S
C428 C431 1.511 . S
C429 C425 1.376 . S
C429 C428 1.392 . S
C429 H441 0.929 . S
C430 C426 1.531 . S
C430 H442 0.960 . S
C430 H443 0.962 . S
C430 H444 0.960 . S
C431 C428 1.511 . S
C431 H445 0.961 . S
C431 H446 0.961 . S
C431 H447 0.961 . S
C432 C433 1.370 . S
C432 C434 1.363 . S
C432 H448 0.931 . S
C433 C432 1.370 . S
C433 C437 1.408 . S
C434 C432 1.363 . S
C434 C435 1.370 . S
C434 C438 1.524 . S
C435 C427 1.503 . S
C435 C434 1.370 . S
C435 C436 1.403 . S
C436 C435 1.403 . S
C436 C437 1.404 . S
C436 C439 1.539 . S
C437 C433 1.408 . S
C437 C436 1.404 . S
C437 H449 0.930 . S
C438 C434 1.524 . S
C438 H450 0.956 . S
C438 H451 0.961 . S
C438 H452 0.961 . S
C439 C436 1.539 . S
C439 H453 0.958 . S
C439 H454 0.961 . S
C439 H455 0.960 . S
H440 C424 0.931 . S
H441 C429 0.929 . S
H442 C430 0.960 . S
H443 C430 0.962 . S
H444 C430 0.960 . S
H445 C431 0.961 . S
H446 C431 0.961 . S
H447 C431 0.961 . S
H448 C432 0.931 . S
H449 C437 0.930 . S
H450 C438 0.956 . S
H451 C438 0.961 . S
H452 C438 0.961 . S
H453 C439 0.958 . S
H454 C439 0.961 . S
H455 C439 0.960 . S
C456 C457 1.391 . S
C456 C458 1.394 . S
C456 H472 0.931 . S
C457 C456 1.391 . S
C457 C461 1.376 . S
C458 C456 1.394 . S
C458 C459 1.369 . S
C458 C462 1.531 . S
C459 C458 1.369 . S
C459 C460 1.410 . S
C459 C467 1.503 . S
C460 C459 1.410 . S
C460 C461 1.392 . S
C460 C463 1.511 . S
C461 C457 1.376 . S
C461 C460 1.392 . S
C461 H473 0.929 . S
C462 C458 1.531 . S
C462 H474 0.960 . S
C462 H475 0.962 . S
C462 H476 0.960 . S
C463 C460 1.511 . S
C463 H477 0.961 . S
C463 H478 0.961 . S
C463 H479 0.961 . S
C464 C465 1.370 . S
C464 C466 1.363 . S
C464 H480 0.931 . S
C465 C464 1.370 . S
C465 C469 1.408 . S
C466 C464 1.363 . S
C466 C467 1.370 . S
C466 C470 1.524 . S
C467 C459 1.503 . S
C467 C466 1.370 . S
C467 C468 1.403 . S
C468 C467 1.403 . S
C468 C469 1.404 . S
C468 C471 1.539 . S
C469 C465 1.408 . S
C469 C468 1.404 . S
C469 H481 0.930 . S
C470 C466 1.524 . S
C470 H482 0.956 . S
C470 H483 0.961 . S
C470 H484 0.961 . S
C471 C468 1.539 . S
C471 H485 0.958 . S
C471 H486 0.961 . S
C471 H487 0.960 . S
H472 C456 0.931 . S
H473 C461 0.929 . S
H474 C462 0.960 . S
H475 C462 0.962 . S
H476 C462 0.960 . S
H477 C463 0.961 . S
H478 C463 0.961 . S
H479 C463 0.961 . S
H480 C464 0.931 . S
H481 C469 0.930 . S
H482 C470 0.956 . S
H483 C470 0.961 . S
H484 C470 0.961 . S
H485 C471 0.958 . S
H486 C471 0.961 . S
H487 C471 0.960 . S
C488 C489 1.391 . S
C488 C490 1.394 . S
C488 H504 0.931 . S
C489 C488 1.391 . S
C489 C493 1.376 . S
C490 C488 1.394 . S
C490 C491 1.369 . S
C490 C494 1.531 1_545 S
C491 C490 1.369 . S
C491 C492 1.410 . S
C491 C499 1.503 1_545 S
C492 C491 1.410 . S
C492 C493 1.392 . S
C492 C495 1.511 . S
C493 C489 1.376 . S
C493 C492 1.392 . S
C493 H505 0.929 . S
C494 C490 1.531 1_565 S
C494 H506 0.960 . S
C494 H507 0.962 . S
C494 H508 0.960 . S
C495 C492 1.511 . S
C495 H509 0.961 . S
C495 H510 0.961 . S
C495 H511 0.961 . S
C496 C497 1.370 . S
C496 C498 1.363 . S
C496 H512 0.931 . S
C497 C496 1.370 . S
C497 C501 1.408 . S
C498 C496 1.363 . S
C498 C499 1.370 . S
C498 C502 1.524 1_565 S
C499 C491 1.503 1_565 S
C499 C498 1.370 . S
C499 C500 1.403 . S
C500 C499 1.403 . S
C500 C501 1.404 . S
C500 C503 1.539 . S
C501 C497 1.408 . S
C501 C500 1.404 . S
C501 H513 0.930 . S
C502 C498 1.524 1_545 S
C502 H514 0.956 . S
C502 H515 0.961 . S
C502 H516 0.961 . S
C503 C500 1.539 . S
C503 H517 0.958 . S
C503 H518 0.961 . S
C503 H519 0.960 . S
H504 C488 0.931 . S
H505 C493 0.929 . S
H506 C494 0.960 . S
H507 C494 0.962 . S
H508 C494 0.960 . S
H509 C495 0.961 . S
H510 C495 0.961 . S
H511 C495 0.961 . S
H512 C496 0.931 . S
H513 C501 0.930 . S
H514 C502 0.956 . S
H515 C502 0.961 . S
H516 C502 0.961 . S
H517 C503 0.958 . S
H518 C503 0.961 . S
H519 C503 0.960 . S
C520 C521 1.391 . S
C520 C522 1.394 . S
C520 H536 0.931 . S
C521 C520 1.391 . S
C521 C525 1.376 . S
C522 C520 1.394 . S
C522 C523 1.369 . S
C522 C526 1.531 . S
C523 C522 1.369 . S
C523 C524 1.410 . S
C523 C531 1.503 . S
C524 C523 1.410 . S
C524 C525 1.392 . S
C524 C527 1.511 . S
C525 C521 1.376 . S
C525 C524 1.392 . S
C525 H537 0.929 . S
C526 C522 1.531 . S
C526 H538 0.960 . S
C526 H539 0.962 . S
C526 H540 0.960 . S
C527 C524 1.511 . S
C527 H541 0.961 . S
C527 H542 0.961 . S
C527 H543 0.961 . S
C528 C529 1.370 . S
C528 C530 1.363 . S
C528 H544 0.931 1_556 S
C529 C528 1.370 . S
C529 C533 1.408 . S
C530 C528 1.363 . S
C530 C531 1.370 . S
C530 C534 1.522 . S
C531 C523 1.503 . S
C531 C530 1.370 . S
C531 C532 1.403 . S
C532 C531 1.403 . S
C532 C533 1.404 . S
C532 C535 1.539 . S
C533 C529 1.408 . S
C533 C532 1.404 . S
C533 H545 0.930 . S
C534 C530 1.522 . S
C534 H546 0.958 1_556 S
C534 H547 0.957 . S
C534 H548 0.965 1_556 S
C535 C532 1.539 . S
C535 H549 0.958 . S
C535 H550 0.961 . S
C535 H551 0.960 . S
H536 C520 0.931 . S
H537 C525 0.929 . S
H538 C526 0.960 . S
H539 C526 0.962 . S
H540 C526 0.960 . S
H541 C527 0.961 . S
H542 C527 0.961 . S
H543 C527 0.961 . S
H544 C528 0.931 1_554 S
H545 C533 0.930 . S
H546 C534 0.958 1_554 S
H547 C534 0.957 . S
H548 C534 0.965 1_554 S
H549 C535 0.958 . S
H550 C535 0.961 . S
H551 C535 0.960 . S
C552 C553 1.391 . S
C552 C554 1.394 . S
C552 H568 0.931 . S
C553 C552 1.391 . S
C553 C557 1.376 . S
C554 C552 1.394 . S
C554 C555 1.369 . S
C554 C558 1.531 . S
C555 C554 1.369 . S
C555 C556 1.410 . S
C555 C563 1.503 . S
C556 C555 1.410 . S
C556 C557 1.392 . S
C556 C559 1.511 . S
C557 C553 1.376 . S
C557 C556 1.392 . S
C557 H569 0.929 . S
C558 C554 1.531 . S
C558 H570 0.960 . S
C558 H571 0.962 . S
C558 H572 0.960 . S
C559 C556 1.511 . S
C559 H573 0.961 . S
C559 H574 0.961 . S
C559 H575 0.961 . S
C560 C561 1.370 . S
C560 C562 1.363 . S
C560 H576 0.931 . S
C561 C560 1.370 . S
C561 C565 1.408 . S
C562 C560 1.363 . S
C562 C563 1.370 . S
C562 C566 1.524 . S
C563 C555 1.503 . S
C563 C562 1.370 . S
C563 C564 1.403 . S
C564 C563 1.403 . S
C564 C565 1.404 . S
C564 C567 1.539 . S
C565 C561 1.408 . S
C565 C564 1.404 . S
C565 H577 0.930 . S
C566 C562 1.524 . S
C566 H578 0.956 . S
C566 H579 0.961 . S
C566 H580 0.961 . S
C567 C564 1.539 . S
C567 H581 0.958 . S
C567 H582 0.961 . S
C567 H583 0.960 . S
H568 C552 0.931 . S
H569 C557 0.929 . S
H570 C558 0.960 . S
H571 C558 0.962 . S
H572 C558 0.960 . S
H573 C559 0.961 . S
H574 C559 0.961 . S
H575 C559 0.961 . S
H576 C560 0.931 . S
H577 C565 0.930 . S
H578 C566 0.956 . S
H579 C566 0.961 . S
H580 C566 0.961 . S
H581 C567 0.958 . S
H582 C567 0.961 . S
H583 C567 0.960 . S
C584 C585 1.391 . S
C584 C586 1.394 . S
C584 H600 0.931 . S
C585 C584 1.391 . S
C585 C589 1.376 . S
C586 C584 1.394 . S
C586 C587 1.369 . S
C586 C590 1.531 1_545 S
C587 C586 1.369 . S
C587 C588 1.410 . S
C587 C595 1.503 1_545 S
C588 C587 1.410 . S
C588 C589 1.392 . S
C588 C591 1.511 . S
C589 C585 1.376 . S
C589 C588 1.392 . S
C589 H601 0.929 . S
C590 C586 1.531 1_565 S
C590 H602 0.960 . S
C590 H603 0.962 . S
C590 H604 0.960 . S
C591 C588 1.511 . S
C591 H605 0.961 . S
C591 H606 0.961 . S
C591 H607 0.961 . S
C592 C593 1.370 . S
C592 C594 1.363 . S
C592 H608 0.931 . S
C593 C592 1.370 . S
C593 C597 1.408 . S
C594 C592 1.363 . S
C594 C595 1.370 . S
C594 C598 1.524 . S
C595 C587 1.503 1_565 S
C595 C594 1.370 . S
C595 C596 1.403 . S
C596 C595 1.403 . S
C596 C597 1.404 . S
C596 C599 1.539 1_565 S
C597 C593 1.408 . S
C597 C596 1.404 . S
C597 H609 0.930 . S
C598 C594 1.524 . S
C598 H610 0.956 . S
C598 H611 0.961 . S
C598 H612 0.961 . S
C599 C596 1.539 1_545 S
C599 H613 0.958 . S
C599 H614 0.961 . S
C599 H615 0.960 . S
H600 C584 0.931 . S
H601 C589 0.929 . S
H602 C590 0.960 . S
H603 C590 0.962 . S
H604 C590 0.960 . S
H605 C591 0.961 . S
H606 C591 0.961 . S
H607 C591 0.961 . S
H608 C592 0.931 . S
H609 C597 0.930 . S
H610 C598 0.956 . S
H611 C598 0.961 . S
H612 C598 0.961 . S
H613 C599 0.958 . S
H614 C599 0.961 . S
H615 C599 0.960 . S
C616 C617 1.391 . S
C616 C618 1.394 . S
C616 H632 0.931 . S
C617 C616 1.391 . S
C617 C621 1.376 . S
C618 C616 1.394 . S
C618 C619 1.369 . S
C618 C622 1.531 . S
C619 C618 1.369 . S
C619 C620 1.410 . S
C619 C627 1.503 . S
C620 C619 1.410 . S
C620 C621 1.392 . S
C620 C623 1.511 . S
C621 C617 1.376 . S
C621 C620 1.392 . S
C621 H633 0.929 . S
C622 C618 1.531 . S
C622 H634 0.960 . S
C622 H635 0.962 . S
C622 H636 0.960 . S
C623 C620 1.511 . S
C623 H637 0.961 . S
C623 H638 0.961 . S
C623 H639 0.961 . S
C624 C625 1.370 . S
C624 C626 1.363 . S
C624 H640 0.931 . S
C625 C624 1.370 . S
C625 C629 1.408 . S
C626 C624 1.363 . S
C626 C627 1.370 . S
C626 C630 1.524 . S
C627 C619 1.503 . S
C627 C626 1.370 . S
C627 C628 1.403 . S
C628 C627 1.403 . S
C628 C629 1.404 . S
C628 C631 1.539 . S
C629 C625 1.408 . S
C629 C628 1.404 . S
C629 H641 0.930 . S
C630 C626 1.524 . S
C630 H642 0.956 . S
C630 H643 0.961 . S
C630 H644 0.961 . S
C631 C628 1.539 . S
C631 H645 0.958 . S
C631 H646 0.961 . S
C631 H647 0.960 . S
H632 C616 0.931 . S
H633 C621 0.929 . S
H634 C622 0.960 . S
H635 C622 0.962 . S
H636 C622 0.960 . S
H637 C623 0.961 . S
H638 C623 0.961 . S
H639 C623 0.961 . S
H640 C624 0.931 . S
H641 C629 0.930 . S
H642 C630 0.956 . S
H643 C630 0.961 . S
H644 C630 0.961 . S
H645 C631 0.958 . S
H646 C631 0.961 . S
H647 C631 0.960 . S
C648 C649 1.391 . S
C648 C650 1.394 . S
C648 H664 0.931 . S
C649 C648 1.391 . S
C649 C653 1.376 . S
C650 C648 1.394 . S
C650 C651 1.369 . S
C650 C654 1.531 . S
C651 C650 1.369 . S
C651 C652 1.410 . S
C651 C659 1.503 . S
C652 C651 1.410 . S
C652 C653 1.392 . S
C652 C655 1.511 . S
C653 C649 1.376 . S
C653 C652 1.392 . S
C653 H665 0.929 . S
C654 C650 1.531 . S
C654 H666 0.960 . S
C654 H667 0.962 . S
C654 H668 0.960 . S
C655 C652 1.511 . S
C655 H669 0.961 . S
C655 H670 0.961 . S
C655 H671 0.961 . S
C656 C657 1.370 . S
C656 C658 1.363 . S
C656 H672 0.931 . S
C657 C656 1.370 . S
C657 C661 1.408 . S
C658 C656 1.363 . S
C658 C659 1.370 . S
C658 C662 1.524 . S
C659 C651 1.503 . S
C659 C658 1.370 . S
C659 C660 1.403 . S
C660 C659 1.403 . S
C660 C661 1.404 . S
C660 C663 1.539 . S
C661 C657 1.408 . S
C661 C660 1.404 . S
C661 H673 0.930 . S
C662 C658 1.524 . S
C662 H674 0.956 . S
C662 H675 0.961 . S
C662 H676 0.961 . S
C663 C660 1.539 . S
C663 H677 0.958 . S
C663 H678 0.961 . S
C663 H679 0.960 . S
H664 C648 0.931 . S
H665 C653 0.929 . S
H666 C654 0.960 . S
H667 C654 0.962 . S
H668 C654 0.960 . S
H669 C655 0.961 . S
H670 C655 0.961 . S
H671 C655 0.961 . S
H672 C656 0.931 . S
H673 C661 0.930 . S
H674 C662 0.956 . S
H675 C662 0.961 . S
H676 C662 0.961 . S
H677 C663 0.958 . S
H678 C663 0.961 . S
H679 C663 0.960 . S
C680 C681 1.391 . S
C680 C682 1.394 . S
C680 H696 0.931 . S
C681 C680 1.391 . S
C681 C685 1.376 . S
C682 C680 1.394 . S
C682 C683 1.369 . S
C682 C686 1.531 . S
C683 C682 1.369 . S
C683 C684 1.410 . S
C683 C691 1.503 . S
C684 C683 1.410 . S
C684 C685 1.392 . S
C684 C687 1.511 . S
C685 C681 1.376 . S
C685 C684 1.392 . S
C685 H697 0.929 . S
C686 C682 1.531 . S
C686 H698 0.960 . S
C686 H699 0.962 . S
C686 H700 0.960 . S
C687 C684 1.511 . S
C687 H701 0.961 . S
C687 H702 0.961 . S
C687 H703 0.961 . S
C688 C689 1.370 . S
C688 C690 1.363 . S
C688 H704 0.931 . S
C689 C688 1.370 . S
C689 C693 1.408 . S
C690 C688 1.363 . S
C690 C691 1.370 . S
C690 C694 1.524 . S
C691 C683 1.503 . S
C691 C690 1.370 . S
C691 C692 1.403 . S
C692 C691 1.403 . S
C692 C693 1.404 . S
C692 C695 1.539 . S
C693 C689 1.408 . S
C693 C692 1.404 . S
C693 H705 0.930 . S
C694 C690 1.524 . S
C694 H706 0.956 . S
C694 H707 0.961 . S
C694 H708 0.961 . S
C695 C692 1.539 . S
C695 H709 0.958 . S
C695 H710 0.961 . S
C695 H711 0.960 . S
H696 C680 0.931 . S
H697 C685 0.929 . S
H698 C686 0.960 . S
H699 C686 0.962 . S
H700 C686 0.960 . S
H701 C687 0.961 . S
H702 C687 0.961 . S
H703 C687 0.961 . S
H704 C688 0.931 . S
H705 C693 0.930 . S
H706 C694 0.956 . S
H707 C694 0.961 . S
H708 C694 0.961 . S
H709 C695 0.958 . S
H710 C695 0.961 . S
H711 C695 0.960 . S
C712 C713 1.391 . S
C712 C714 1.394 . S
C712 H728 0.931 . S
C713 C712 1.391 . S
C713 C717 1.376 . S
C714 C712 1.394 . S
C714 C715 1.369 . S
C714 C718 1.531 . S
C715 C714 1.369 . S
C715 C716 1.410 . S
C715 C723 1.503 . S
C716 C715 1.410 . S
C716 C717 1.392 . S
C716 C719 1.511 . S
C717 C713 1.376 . S
C717 C716 1.392 . S
C717 H729 0.929 . S
C718 C714 1.531 . S
C718 H730 0.960 . S
C718 H731 0.962 . S
C718 H732 0.960 . S
C719 C716 1.511 . S
C719 H733 0.961 . S
C719 H734 0.961 . S
C719 H735 0.961 . S
C720 C721 1.370 . S
C720 C722 1.363 . S
C720 H736 0.931 . S
C721 C720 1.370 . S
C721 C725 1.408 . S
C722 C720 1.363 . S
C722 C723 1.370 . S
C722 C726 1.524 . S
C723 C715 1.503 . S
C723 C722 1.370 . S
C723 C724 1.403 . S
C724 C723 1.403 . S
C724 C725 1.404 . S
C724 C727 1.539 . S
C725 C721 1.408 . S
C725 C724 1.404 . S
C725 H737 0.930 . S
C726 C722 1.524 . S
C726 H738 0.956 . S
C726 H739 0.961 . S
C726 H740 0.961 . S
C727 C724 1.539 . S
C727 H741 0.958 . S
C727 H742 0.961 . S
C727 H743 0.960 . S
H728 C712 0.931 . S
H729 C717 0.929 . S
H730 C718 0.960 . S
H731 C718 0.962 . S
H732 C718 0.960 . S
H733 C719 0.961 . S
H734 C719 0.961 . S
H735 C719 0.961 . S
H736 C720 0.931 . S
H737 C725 0.930 . S
H738 C726 0.956 . S
H739 C726 0.961 . S
H740 C726 0.961 . S
H741 C727 0.958 . S
H742 C727 0.961 . S
H743 C727 0.960 . S
C744 C745 1.391 . S
C744 C746 1.394 . S
C744 H760 0.931 . S
C745 C744 1.391 . S
C745 C749 1.376 . S
C746 C744 1.394 . S
C746 C747 1.369 . S
C746 C750 1.520 1_455 S
C747 C746 1.369 . S
C747 C748 1.410 . S
C747 C755 1.503 1_455 S
C748 C747 1.410 . S
C748 C749 1.392 . S
C748 C751 1.511 . S
C749 C745 1.376 . S
C749 C748 1.392 . S
C749 H761 0.929 . S
C750 C746 1.520 1_655 S
C750 H762 0.965 . S
C750 H763 0.975 . S
C750 H764 0.954 1_655 S
C751 C748 1.511 . S
C751 H765 0.961 . S
C751 H766 0.961 . S
C751 H767 0.961 . S
C752 C753 1.370 . S
C752 C754 1.363 . S
C752 H768 0.931 . S
C753 C752 1.370 . S
C753 C757 1.408 . S
C754 C752 1.363 . S
C754 C755 1.370 . S
C754 C758 1.524 . S
C755 C747 1.503 1_655 S
C755 C754 1.370 . S
C755 C756 1.403 . S
C756 C755 1.403 . S
C756 C757 1.404 . S
C756 C759 1.539 1_655 S
C757 C753 1.408 . S
C757 C756 1.404 . S
C757 H769 0.930 . S
C758 C754 1.524 . S
C758 H770 0.956 . S
C758 H771 0.961 . S
C758 H772 0.961 . S
C759 C756 1.539 1_455 S
C759 H773 0.958 . S
C759 H774 0.961 . S
C759 H775 0.960 . S
H760 C744 0.931 . S
H761 C749 0.929 . S
H762 C750 0.965 . S
H763 C750 0.975 . S
H764 C750 0.954 1_455 S
H765 C751 0.961 . S
H766 C751 0.961 . S
H767 C751 0.961 . S
H768 C752 0.931 . S
H769 C757 0.930 . S
H770 C758 0.956 . S
H771 C758 0.961 . S
H772 C758 0.961 . S
H773 C759 0.958 . S
H774 C759 0.961 . S
H775 C759 0.960 . S
C776 C777 1.391 . S
C776 C778 1.394 . S
C776 H792 0.931 . S
C777 C776 1.391 . S
C777 C781 1.376 . S
C778 C776 1.394 . S
C778 C779 1.369 . S
C778 C782 1.531 . S
C779 C778 1.369 . S
C779 C780 1.410 . S
C779 C787 1.503 . S
C780 C779 1.410 . S
C780 C781 1.392 . S
C780 C783 1.511 . S
C781 C777 1.376 . S
C781 C780 1.392 . S
C781 H793 0.929 . S
C782 C778 1.531 . S
C782 H794 0.960 . S
C782 H795 0.962 . S
C782 H796 0.960 . S
C783 C780 1.511 . S
C783 H797 0.961 . S
C783 H798 0.961 . S
C783 H799 0.961 . S
C784 C785 1.370 . S
C784 C786 1.363 . S
C784 H800 0.931 . S
C785 C784 1.370 . S
C785 C789 1.408 . S
C786 C784 1.363 . S
C786 C787 1.370 . S
C786 C790 1.524 . S
C787 C779 1.503 . S
C787 C786 1.370 . S
C787 C788 1.403 . S
C788 C787 1.403 . S
C788 C789 1.404 . S
C788 C791 1.539 . S
C789 C785 1.408 . S
C789 C788 1.404 . S
C789 H801 0.930 . S
C790 C786 1.524 . S
C790 H802 0.956 . S
C790 H803 0.961 . S
C790 H804 0.961 . S
C791 C788 1.539 . S
C791 H805 0.958 . S
C791 H806 0.961 . S
C791 H807 0.960 . S
H792 C776 0.931 . S
H793 C781 0.929 . S
H794 C782 0.960 . S
H795 C782 0.962 . S
H796 C782 0.960 . S
H797 C783 0.961 . S
H798 C783 0.961 . S
H799 C783 0.961 . S
H800 C784 0.931 . S
H801 C789 0.930 . S
H802 C790 0.956 . S
H803 C790 0.961 . S
H804 C790 0.961 . S
H805 C791 0.958 . S
H806 C791 0.961 . S
H807 C791 0.960 . S
C808 C809 1.391 . S
C808 C810 1.394 . S
C808 H824 0.931 . S
C809 C808 1.391 . S
C809 C813 1.376 1_655 S
C810 C808 1.394 . S
C810 C811 1.369 . S
C810 C814 1.531 . S
C811 C810 1.369 . S
C811 C812 1.412 1_655 S
C811 C819 1.503 . S
C812 C811 1.412 1_455 S
C812 C813 1.392 . S
C812 C815 1.509 . S
C813 C809 1.376 1_455 S
C813 C812 1.392 . S
C813 H825 0.929 . S
C814 C810 1.531 . S
C814 H826 0.960 . S
C814 H827 0.962 . S
C814 H828 0.960 . S
C815 C812 1.509 . S
C815 H829 0.961 . S
C815 H830 0.961 . S
C815 H831 0.961 . S
C816 C817 1.370 . S
C816 C818 1.363 . S
C816 H832 0.931 . S
C817 C816 1.370 . S
C817 C821 1.408 . S
C818 C816 1.363 . S
C818 C819 1.370 . S
C818 C822 1.524 . S
C819 C811 1.503 . S
C819 C818 1.370 . S
C819 C820 1.403 . S
C820 C819 1.403 . S
C820 C821 1.404 . S
C820 C823 1.539 . S
C821 C817 1.408 . S
C821 C820 1.404 . S
C821 H833 0.930 . S
C822 C818 1.524 . S
C822 H834 0.956 . S
C822 H835 0.961 . S
C822 H836 0.961 . S
C823 C820 1.539 . S
C823 H837 0.958 . S
C823 H838 0.961 1_655 S
C823 H839 0.960 1_655 S
H824 C808 0.931 . S
H825 C813 0.929 . S
H826 C814 0.960 . S
H827 C814 0.962 . S
H828 C814 0.960 . S
H829 C815 0.961 . S
H830 C815 0.961 . S
H831 C815 0.961 . S
H832 C816 0.931 . S
H833 C821 0.930 . S
H834 C822 0.956 . S
H835 C822 0.961 . S
H836 C822 0.961 . S
H837 C823 0.958 . S
H838 C823 0.961 1_455 S
H839 C823 0.960 1_455 S
C840 C841 1.391 . S
C840 C842 1.394 . S
C840 H856 0.931 . S
C841 C840 1.391 . S
C841 C845 1.376 . S
C842 C840 1.394 . S
C842 C843 1.369 . S
C842 C846 1.531 1_556 S
C843 C842 1.369 . S
C843 C844 1.410 . S
C843 C851 1.503 1_455 S
C844 C843 1.410 . S
C844 C845 1.392 . S
C844 C847 1.511 1_455 S
C845 C841 1.376 . S
C845 C844 1.392 . S
C845 H857 0.929 . S
C846 C842 1.531 1_554 S
C846 H858 0.960 . S
C846 H859 0.962 . S
C846 H860 0.960 . S
C847 C844 1.511 1_655 S
C847 H861 0.961 . S
C847 H862 0.961 . S
C847 H863 0.961 . S
C848 C849 1.370 1_556 S
C848 C850 1.363 . S
C848 H864 0.931 . S
C849 C848 1.370 1_554 S
C849 C853 1.408 . S
C850 C848 1.363 . S
C850 C851 1.370 . S
C850 C854 1.524 . S
C851 C843 1.503 1_655 S
C851 C850 1.370 . S
C851 C852 1.403 1_556 S
C852 C851 1.403 1_554 S
C852 C853 1.404 . S
C852 C855 1.539 . S
C853 C849 1.408 . S
C853 C852 1.404 . S
C853 H865 0.930 . S
C854 C850 1.524 . S
C854 H866 0.956 1_655 S
C854 H867 0.961 . S
C854 H868 0.961 . S
C855 C852 1.539 . S
C855 H869 0.958 1_655 S
C855 H870 0.961 . S
C855 H871 0.960 1_654 S
H856 C840 0.931 . S
H857 C845 0.929 . S
H858 C846 0.960 . S
H859 C846 0.962 . S
H860 C846 0.960 . S
H861 C847 0.961 . S
H862 C847 0.961 . S
H863 C847 0.961 . S
H864 C848 0.931 . S
H865 C853 0.930 . S
H866 C854 0.956 1_455 S
H867 C854 0.961 . S
H868 C854 0.961 . S
H869 C855 0.958 1_455 S
H870 C855 0.961 . S
H871 C855 0.960 1_456 S
C872 C873 1.391 . S
C872 C874 1.394 . S
C872 H888 0.931 . S
C873 C872 1.391 . S
C873 C877 1.376 . S
C874 C872 1.394 . S
C874 C875 1.369 . S
C874 C878 1.531 . S
C875 C874 1.369 . S
C875 C876 1.410 . S
C875 C883 1.503 . S
C876 C875 1.410 . S
C876 C877 1.392 . S
C876 C879 1.511 . S
C877 C873 1.376 . S
C877 C876 1.392 . S
C877 H889 0.929 . S
C878 C874 1.531 . S
C878 H890 0.960 . S
C878 H891 0.962 . S
C878 H892 0.960 . S
C879 C876 1.511 . S
C879 H893 0.961 . S
C879 H894 0.961 . S
C879 H895 0.961 . S
C880 C881 1.370 . S
C880 C882 1.363 . S
C880 H896 0.931 . S
C881 C880 1.370 . S
C881 C885 1.408 . S
C882 C880 1.363 . S
C882 C883 1.370 . S
C882 C886 1.524 . S
C883 C875 1.503 . S
C883 C882 1.370 . S
C883 C884 1.403 . S
C884 C883 1.403 . S
C884 C885 1.404 . S
C884 C887 1.539 . S
C885 C881 1.408 . S
C885 C884 1.404 . S
C885 H897 0.930 . S
C886 C882 1.524 . S
C886 H898 0.956 . S
C886 H899 0.961 . S
C886 H900 0.961 . S
C887 C884 1.539 . S
C887 H901 0.958 . S
C887 H902 0.961 . S
C887 H903 0.960 . S
H888 C872 0.931 . S
H889 C877 0.929 . S
H890 C878 0.960 . S
H891 C878 0.962 . S
H892 C878 0.960 . S
H893 C879 0.961 . S
H894 C879 0.961 . S
H895 C879 0.961 . S
H896 C880 0.931 . S
H897 C885 0.930 . S
H898 C886 0.956 . S
H899 C886 0.961 . S
H900 C886 0.961 . S
H901 C887 0.958 . S
H902 C887 0.961 . S
H903 C887 0.960 . S
C904 C905 1.391 . S
C904 C906 1.394 . S
C904 H920 0.931 . S
C905 C904 1.391 . S
C905 C909 1.376 . S
C906 C904 1.394 . S
C906 C907 1.369 . S
C906 C910 1.531 . S
C907 C906 1.369 . S
C907 C908 1.410 . S
C907 C915 1.503 . S
C908 C907 1.410 . S
C908 C909 1.392 . S
C908 C911 1.511 . S
C909 C905 1.376 . S
C909 C908 1.392 . S
C909 H921 0.929 . S
C910 C906 1.531 . S
C910 H922 0.960 . S
C910 H923 0.962 . S
C910 H924 0.960 . S
C911 C908 1.511 . S
C911 H925 0.961 . S
C911 H926 0.961 . S
C911 H927 0.961 . S
C912 C913 1.370 . S
C912 C914 1.363 . S
C912 H928 0.931 . S
C913 C912 1.370 . S
C913 C917 1.408 . S
C914 C912 1.363 . S
C914 C915 1.370 . S
C914 C918 1.524 . S
C915 C907 1.503 . S
C915 C914 1.370 . S
C915 C916 1.403 . S
C916 C915 1.403 . S
C916 C917 1.404 . S
C916 C919 1.539 . S
C917 C913 1.408 . S
C917 C916 1.404 . S
C917 H929 0.930 . S
C918 C914 1.524 . S
C918 H930 0.956 . S
C918 H931 0.961 . S
C918 H932 0.961 . S
C919 C916 1.539 . S
C919 H933 0.958 . S
C919 H934 0.961 . S
C919 H935 0.960 . S
H920 C904 0.931 . S
H921 C909 0.929 . S
H922 C910 0.960 . S
H923 C910 0.962 . S
H924 C910 0.960 . S
H925 C911 0.961 . S
H926 C911 0.961 . S
H927 C911 0.961 . S
H928 C912 0.931 . S
H929 C917 0.930 . S
H930 C918 0.956 . S
H931 C918 0.961 . S
H932 C918 0.961 . S
H933 C919 0.958 . S
H934 C919 0.961 . S
H935 C919 0.960 . S
C936 C937 1.391 . S
C936 C938 1.394 . S
C936 H952 0.931 . S
C937 C936 1.391 . S
C937 C941 1.376 . S
C938 C936 1.394 . S
C938 C939 1.369 . S
C938 C942 1.531 . S
C939 C938 1.369 . S
C939 C940 1.410 . S
C939 C947 1.503 . S
C940 C939 1.410 . S
C940 C941 1.392 . S
C940 C943 1.511 . S
C941 C937 1.376 . S
C941 C940 1.392 . S
C941 H953 0.929 . S
C942 C938 1.531 . S
C942 H954 0.960 . S
C942 H955 0.962 . S
C942 H956 0.960 . S
C943 C940 1.511 . S
C943 H957 0.961 . S
C943 H958 0.961 . S
C943 H959 0.961 . S
C944 C945 1.370 . S
C944 C946 1.363 . S
C944 H960 0.931 . S
C945 C944 1.370 . S
C945 C949 1.408 . S
C946 C944 1.363 . S
C946 C947 1.370 . S
C946 C950 1.524 . S
C947 C939 1.503 . S
C947 C946 1.370 . S
C947 C948 1.403 . S
C948 C947 1.403 . S
C948 C949 1.404 . S
C948 C951 1.539 . S
C949 C945 1.408 . S
C949 C948 1.404 . S
C949 H961 0.930 . S
C950 C946 1.524 . S
C950 H962 0.956 . S
C950 H963 0.961 . S
C950 H964 0.961 . S
C951 C948 1.539 . S
C951 H965 0.958 . S
C951 H966 0.961 . S
C951 H967 0.960 . S
H952 C936 0.931 . S
H953 C941 0.929 . S
H954 C942 0.960 . S
H955 C942 0.962 . S
H956 C942 0.960 . S
H957 C943 0.961 . S
H958 C943 0.961 . S
H959 C943 0.961 . S
H960 C944 0.931 . S
H961 C949 0.930 . S
H962 C950 0.956 . S
H963 C950 0.961 . S
H964 C950 0.961 . S
H965 C951 0.958 . S
H966 C951 0.961 . S
H967 C951 0.960 . S
C968 C969 1.391 . S
C968 C970 1.394 . S
C968 H984 0.931 . S
C969 C968 1.391 . S
C969 C973 1.376 . S
C970 C968 1.394 . S
C970 C971 1.369 . S
C970 C974 1.531 . S
C971 C970 1.369 . S
C971 C972 1.410 . S
C971 C979 1.503 . S
C972 C971 1.410 . S
C972 C973 1.392 . S
C972 C975 1.511 . S
C973 C969 1.376 . S
C973 C972 1.392 . S
C973 H985 0.929 . S
C974 C970 1.531 . S
C974 H986 0.960 . S
C974 H987 0.962 . S
C974 H988 0.960 . S
C975 C972 1.511 . S
C975 H989 0.961 . S
C975 H990 0.961 . S
C975 H991 0.961 . S
C976 C977 1.370 . S
C976 C978 1.363 . S
C976 H992 0.931 . S
C977 C976 1.370 . S
C977 C981 1.408 . S
C978 C976 1.363 . S
C978 C979 1.370 . S
C978 C982 1.524 . S
C979 C971 1.503 . S
C979 C978 1.370 . S
C979 C980 1.403 . S
C980 C979 1.403 . S
C980 C981 1.404 . S
C980 C983 1.539 . S
C981 C977 1.408 . S
C981 C980 1.404 . S
C981 H993 0.930 . S
C982 C978 1.524 . S
C982 H994 0.956 . S
C982 H995 0.961 . S
C982 H996 0.961 . S
C983 C980 1.539 . S
C983 H997 0.958 . S
C983 H998 0.961 . S
C983 H999 0.960 . S
H984 C968 0.931 . S
H985 C973 0.929 . S
H986 C974 0.960 . S
H987 C974 0.962 . S
H988 C974 0.960 . S
H989 C975 0.961 . S
H990 C975 0.961 . S
H991 C975 0.961 . S
H992 C976 0.931 . S
H993 C981 0.930 . S
H994 C982 0.956 . S
H995 C982 0.961 . S
H996 C982 0.961 . S
H997 C983 0.958 . S
H998 C983 0.961 . S
H999 C983 0.960 . S
C1000 C1001 1.391 . S
C1000 C1002 1.394 . S
C1000 H1016 0.931 . S
C1001 C1000 1.391 . S
C1001 C1005 1.376 . S
C1002 C1000 1.394 . S
C1002 C1003 1.369 . S
C1002 C1006 1.531 . S
C1003 C1002 1.369 . S
C1003 C1004 1.410 . S
C1003 C1011 1.503 . S
C1004 C1003 1.410 . S
C1004 C1005 1.392 . S
C1004 C1007 1.511 . S
C1005 C1001 1.376 . S
C1005 C1004 1.392 . S
C1005 H1017 0.929 . S
C1006 C1002 1.531 . S
C1006 H1018 0.960 . S
C1006 H1019 0.962 . S
C1006 H1020 0.960 . S
C1007 C1004 1.511 . S
C1007 H1021 0.961 . S
C1007 H1022 0.961 . S
C1007 H1023 0.961 1_545 S
C1008 C1009 1.364 1_545 S
C1008 C1010 1.363 . S
C1008 H1024 0.931 . S
C1009 C1008 1.364 1_565 S
C1009 C1013 1.411 . S
C1010 C1008 1.363 . S
C1010 C1011 1.370 . S
C1010 C1014 1.524 . S
C1011 C1003 1.503 . S
C1011 C1010 1.370 . S
C1011 C1012 1.403 . S
C1012 C1011 1.403 . S
C1012 C1013 1.404 1_545 S
C1012 C1015 1.539 1_545 S
C1013 C1009 1.411 . S
C1013 C1012 1.404 1_565 S
C1013 H1025 0.930 . S
C1014 C1010 1.524 . S
C1014 H1026 0.956 . S
C1014 H1027 0.961 . S
C1014 H1028 0.961 . S
C1015 C1012 1.539 1_565 S
C1015 H1029 0.958 1_565 S
C1015 H1030 0.961 . S
C1015 H1031 0.960 . S
H1016 C1000 0.931 . S
H1017 C1005 0.929 . S
H1018 C1006 0.960 . S
H1019 C1006 0.962 . S
H1020 C1006 0.960 . S
H1021 C1007 0.961 . S
H1022 C1007 0.961 . S
H1023 C1007 0.961 1_565 S
H1024 C1008 0.931 . S
H1025 C1013 0.930 . S
H1026 C1014 0.956 . S
H1027 C1014 0.961 . S
H1028 C1014 0.961 . S
H1029 C1015 0.958 1_545 S
H1030 C1015 0.961 . S
H1031 C1015 0.960 . S
C1032 C1033 1.391 . S
C1032 C1034 1.394 . S
C1032 H1048 0.931 . S
C1033 C1032 1.391 . S
C1033 C1037 1.376 . S
C1034 C1032 1.394 . S
C1034 C1035 1.369 . S
C1034 C1038 1.531 . S
C1035 C1034 1.369 . S
C1035 C1036 1.410 . S
C1035 C1043 1.503 . S
C1036 C1035 1.410 . S
C1036 C1037 1.392 . S
C1036 C1039 1.511 . S
C1037 C1033 1.376 . S
C1037 C1036 1.392 . S
C1037 H1049 0.929 . S
C1038 C1034 1.531 . S
C1038 H1050 0.960 . S
C1038 H1051 0.962 . S
C1038 H1052 0.960 . S
C1039 C1036 1.511 . S
C1039 H1053 0.961 . S
C1039 H1054 0.961 . S
C1039 H1055 0.961 . S
C1040 C1041 1.370 . S
C1040 C1042 1.363 . S
C1040 H1056 0.931 . S
C1041 C1040 1.370 . S
C1041 C1045 1.408 . S
C1042 C1040 1.363 . S
C1042 C1043 1.370 . S
C1042 C1046 1.524 . S
C1043 C1035 1.503 . S
C1043 C1042 1.370 . S
C1043 C1044 1.403 . S
C1044 C1043 1.403 . S
C1044 C1045 1.404 . S
C1044 C1047 1.539 . S
C1045 C1041 1.408 . S
C1045 C1044 1.404 . S
C1045 H1057 0.930 . S
C1046 C1042 1.524 . S
C1046 H1058 0.956 . S
C1046 H1059 0.961 . S
C1046 H1060 0.961 . S
C1047 C1044 1.539 . S
C1047 H1061 0.958 . S
C1047 H1062 0.961 . S
C1047 H1063 0.960 . S
H1048 C1032 0.931 . S
H1049 C1037 0.929 . S
H1050 C1038 0.960 . S
H1051 C1038 0.962 . S
H1052 C1038 0.960 . S
H1053 C1039 0.961 . S
H1054 C1039 0.961 . S
H1055 C1039 0.961 . S
H1056 C1040 0.931 . S
H1057 C1045 0.930 . S
H1058 C1046 0.956 . S
H1059 C1046 0.961 . S
H1060 C1046 0.961 . S
H1061 C1047 0.958 . S
H1062 C1047 0.961 . S
H1063 C1047 0.960 . S
C1064 C1065 1.391 . S
C1064 C1066 1.394 . S
C1064 H1080 0.931 . S
C1065 C1064 1.391 . S
C1065 C1069 1.376 . S
C1066 C1064 1.394 . S
C1066 C1067 1.369 . S
C1066 C1070 1.531 . S
C1067 C1066 1.369 . S
C1067 C1068 1.410 . S
C1067 C1075 1.503 . S
C1068 C1067 1.410 . S
C1068 C1069 1.392 . S
C1068 C1071 1.511 . S
C1069 C1065 1.376 . S
C1069 C1068 1.392 . S
C1069 H1081 0.929 . S
C1070 C1066 1.531 . S
C1070 H1082 0.960 . S
C1070 H1083 0.962 . S
C1070 H1084 0.960 . S
C1071 C1068 1.511 . S
C1071 H1085 0.961 . S
C1071 H1086 0.961 . S
C1071 H1087 0.961 . S
C1072 C1073 1.370 . S
C1072 C1074 1.363 . S
C1072 H1088 0.931 . S
C1073 C1072 1.370 . S
C1073 C1077 1.408 . S
C1074 C1072 1.363 . S
C1074 C1075 1.370 . S
C1074 C1078 1.524 . S
C1075 C1067 1.503 . S
C1075 C1074 1.370 . S
C1075 C1076 1.403 . S
C1076 C1075 1.403 . S
C1076 C1077 1.404 . S
C1076 C1079 1.539 . S
C1077 C1073 1.408 . S
C1077 C1076 1.404 . S
C1077 H1089 0.930 . S
C1078 C1074 1.524 . S
C1078 H1090 0.956 . S
C1078 H1091 0.961 . S
C1078 H1092 0.961 . S
C1079 C1076 1.539 . S
C1079 H1093 0.958 . S
C1079 H1094 0.961 . S
C1079 H1095 0.960 . S
H1080 C1064 0.931 . S
H1081 C1069 0.929 . S
H1082 C1070 0.960 . S
H1083 C1070 0.962 . S
H1084 C1070 0.960 . S
H1085 C1071 0.961 . S
H1086 C1071 0.961 . S
H1087 C1071 0.961 . S
H1088 C1072 0.931 . S
H1089 C1077 0.930 . S
H1090 C1078 0.956 . S
H1091 C1078 0.961 . S
H1092 C1078 0.961 . S
H1093 C1079 0.958 . S
H1094 C1079 0.961 . S
H1095 C1079 0.960 . S
C1096 C1097 1.391 . S
C1096 C1098 1.394 . S
C1096 H1112 0.931 . S
C1097 C1096 1.391 . S
C1097 C1101 1.376 . S
C1098 C1096 1.394 . S
C1098 C1099 1.369 . S
C1098 C1102 1.531 . S
C1099 C1098 1.369 . S
C1099 C1100 1.410 . S
C1099 C1107 1.503 . S
C1100 C1099 1.410 . S
C1100 C1101 1.392 . S
C1100 C1103 1.511 . S
C1101 C1097 1.376 . S
C1101 C1100 1.392 . S
C1101 H1113 0.929 . S
C1102 C1098 1.531 . S
C1102 H1114 0.960 . S
C1102 H1115 0.962 . S
C1102 H1116 0.960 . S
C1103 C1100 1.511 . S
C1103 H1117 0.961 . S
C1103 H1118 0.961 . S
C1103 H1119 0.961 . S
C1104 C1105 1.370 . S
C1104 C1106 1.363 . S
C1104 H1120 0.931 . S
C1105 C1104 1.370 . S
C1105 C1109 1.408 1_565 S
C1106 C1104 1.363 . S
C1106 C1107 1.370 1_565 S
C1106 C1110 1.524 . S
C1107 C1099 1.503 . S
C1107 C1106 1.370 1_545 S
C1107 C1108 1.403 . S
C1108 C1107 1.403 . S
C1108 C1109 1.404 . S
C1108 C1111 1.539 . S
C1109 C1105 1.408 1_545 S
C1109 C1108 1.404 . S
C1109 H1121 0.930 . S
C1110 C1106 1.524 . S
C1110 H1122 0.956 . S
C1110 H1123 0.961 . S
C1110 H1124 0.961 . S
C1111 C1108 1.539 . S
C1111 H1125 0.958 . S
C1111 H1126 0.961 . S
C1111 H1127 0.960 . S
H1112 C1096 0.931 . S
H1113 C1101 0.929 . S
H1114 C1102 0.960 . S
H1115 C1102 0.962 . S
H1116 C1102 0.960 . S
H1117 C1103 0.961 . S
H1118 C1103 0.961 . S
H1119 C1103 0.961 . S
H1120 C1104 0.931 . S
H1121 C1109 0.930 . S
H1122 C1110 0.956 . S
H1123 C1110 0.961 . S
H1124 C1110 0.961 . S
H1125 C1111 0.958 . S
H1126 C1111 0.961 . S
H1127 C1111 0.960 . S
C1128 C1129 1.391 . S
C1128 C1130 1.394 . S
C1128 H1144 0.931 . S
C1129 C1128 1.391 . S
C1129 C1133 1.376 . S
C1130 C1128 1.394 . S
C1130 C1131 1.369 . S
C1130 C1134 1.531 . S
C1131 C1130 1.369 . S
C1131 C1132 1.410 . S
C1131 C1139 1.503 . S
C1132 C1131 1.410 . S
C1132 C1133 1.392 . S
C1132 C1135 1.511 . S
C1133 C1129 1.376 . S
C1133 C1132 1.392 . S
C1133 H1145 0.929 . S
C1134 C1130 1.531 . S
C1134 H1146 0.960 . S
C1134 H1147 0.962 . S
C1134 H1148 0.960 . S
C1135 C1132 1.511 . S
C1135 H1149 0.961 . S
C1135 H1150 0.961 . S
C1135 H1151 0.961 . S
C1136 C1137 1.370 . S
C1136 C1138 1.363 . S
C1136 H1152 0.931 . S
C1137 C1136 1.370 . S
C1137 C1141 1.408 . S
C1138 C1136 1.363 . S
C1138 C1139 1.370 . S
C1138 C1142 1.524 . S
C1139 C1131 1.503 . S
C1139 C1138 1.370 . S
C1139 C1140 1.403 . S
C1140 C1139 1.403 . S
C1140 C1141 1.404 . S
C1140 C1143 1.539 . S
C1141 C1137 1.408 . S
C1141 C1140 1.404 . S
C1141 H1153 0.930 . S
C1142 C1138 1.524 . S
C1142 H1154 0.956 . S
C1142 H1155 0.961 . S
C1142 H1156 0.961 . S
C1143 C1140 1.539 . S
C1143 H1157 0.958 . S
C1143 H1158 0.961 . S
C1143 H1159 0.960 . S
H1144 C1128 0.931 . S
H1145 C1133 0.929 . S
H1146 C1134 0.960 . S
H1147 C1134 0.962 . S
H1148 C1134 0.960 . S
H1149 C1135 0.961 . S
H1150 C1135 0.961 . S
H1151 C1135 0.961 . S
H1152 C1136 0.931 . S
H1153 C1141 0.930 . S
H1154 C1142 0.956 . S
H1155 C1142 0.961 . S
H1156 C1142 0.961 . S
H1157 C1143 0.958 . S
H1158 C1143 0.961 . S
H1159 C1143 0.960 . S
C1160 C1161 1.391 . S
C1160 C1162 1.394 . S
C1160 H1176 0.931 . S
C1161 C1160 1.391 . S
C1161 C1165 1.376 . S
C1162 C1160 1.394 . S
C1162 C1163 1.369 . S
C1162 C1166 1.531 . S
C1163 C1162 1.369 . S
C1163 C1164 1.410 . S
C1163 C1171 1.503 . S
C1164 C1163 1.410 . S
C1164 C1165 1.392 . S
C1164 C1167 1.511 . S
C1165 C1161 1.376 . S
C1165 C1164 1.392 . S
C1165 H1177 0.929 . S
C1166 C1162 1.531 . S
C1166 H1178 0.960 . S
C1166 H1179 0.962 . S
C1166 H1180 0.960 . S
C1167 C1164 1.511 . S
C1167 H1181 0.961 . S
C1167 H1182 0.961 . S
C1167 H1183 0.961 . S
C1168 C1169 1.370 . S
C1168 C1170 1.363 . S
C1168 H1184 0.931 . S
C1169 C1168 1.370 . S
C1169 C1173 1.408 . S
C1170 C1168 1.363 . S
C1170 C1171 1.370 . S
C1170 C1174 1.524 . S
C1171 C1163 1.503 . S
C1171 C1170 1.370 . S
C1171 C1172 1.403 . S
C1172 C1171 1.403 . S
C1172 C1173 1.404 . S
C1172 C1175 1.539 . S
C1173 C1169 1.408 . S
C1173 C1172 1.404 . S
C1173 H1185 0.930 . S
C1174 C1170 1.524 . S
C1174 H1186 0.956 . S
C1174 H1187 0.961 . S
C1174 H1188 0.961 . S
C1175 C1172 1.539 . S
C1175 H1189 0.958 . S
C1175 H1190 0.961 . S
C1175 H1191 0.960 . S
H1176 C1160 0.931 . S
H1177 C1165 0.929 . S
H1178 C1166 0.960 . S
H1179 C1166 0.962 . S
H1180 C1166 0.960 . S
H1181 C1167 0.961 . S
H1182 C1167 0.961 . S
H1183 C1167 0.961 . S
H1184 C1168 0.931 . S
H1185 C1173 0.930 . S
H1186 C1174 0.956 . S
H1187 C1174 0.961 . S
H1188 C1174 0.961 . S
H1189 C1175 0.958 . S
H1190 C1175 0.961 . S
H1191 C1175 0.960 . S
C1192 C1193 1.391 . S
C1192 C1194 1.394 . S
C1192 H1208 0.931 . S
C1193 C1192 1.391 . S
C1193 C1197 1.376 . S
C1194 C1192 1.394 . S
C1194 C1195 1.369 . S
C1194 C1198 1.531 . S
C1195 C1194 1.369 . S
C1195 C1196 1.410 . S
C1195 C1203 1.503 . S
C1196 C1195 1.410 . S
C1196 C1197 1.392 . S
C1196 C1199 1.511 . S
C1197 C1193 1.376 . S
C1197 C1196 1.392 . S
C1197 H1209 0.929 . S
C1198 C1194 1.531 . S
C1198 H1210 0.960 . S
C1198 H1211 0.962 . S
C1198 H1212 0.960 . S
C1199 C1196 1.511 . S
C1199 H1213 0.961 . S
C1199 H1214 0.961 . S
C1199 H1215 0.961 . S
C1200 C1201 1.370 . S
C1200 C1202 1.363 . S
C1200 H1216 0.931 . S
C1201 C1200 1.370 . S
C1201 C1205 1.408 . S
C1202 C1200 1.363 . S
C1202 C1203 1.370 . S
C1202 C1206 1.524 . S
C1203 C1195 1.503 . S
C1203 C1202 1.370 . S
C1203 C1204 1.403 . S
C1204 C1203 1.403 . S
C1204 C1205 1.404 . S
C1204 C1207 1.539 . S
C1205 C1201 1.408 . S
C1205 C1204 1.404 . S
C1205 H1217 0.930 . S
C1206 C1202 1.524 . S
C1206 H1218 0.956 . S
C1206 H1219 0.961 . S
C1206 H1220 0.961 . S
C1207 C1204 1.539 . S
C1207 H1221 0.958 . S
C1207 H1222 0.961 . S
C1207 H1223 0.960 . S
H1208 C1192 0.931 . S
H1209 C1197 0.929 . S
H1210 C1198 0.960 . S
H1211 C1198 0.962 . S
H1212 C1198 0.960 . S
H1213 C1199 0.961 . S
H1214 C1199 0.961 . S
H1215 C1199 0.961 . S
H1216 C1200 0.931 . S
H1217 C1205 0.930 . S
H1218 C1206 0.956 . S
H1219 C1206 0.961 . S
H1220 C1206 0.961 . S
H1221 C1207 0.958 . S
H1222 C1207 0.961 . S
H1223 C1207 0.960 . S
C1224 C1225 1.391 . S
C1224 C1226 1.394 . S
C1224 H1240 0.931 . S
C1225 C1224 1.391 . S
C1225 C1229 1.376 . S
C1226 C1224 1.394 . S
C1226 C1227 1.369 . S
C1226 C1230 1.531 . S
C1227 C1226 1.369 . S
C1227 C1228 1.410 . S
C1227 C1235 1.503 . S
C1228 C1227 1.410 . S
C1228 C1229 1.392 . S
C1228 C1231 1.511 . S
C1229 C1225 1.376 . S
C1229 C1228 1.392 . S
C1229 H1241 0.929 . S
C1230 C1226 1.531 . S
C1230 H1242 0.960 . S
C1230 H1243 0.962 . S
C1230 H1244 0.960 . S
C1231 C1228 1.511 . S
C1231 H1245 0.961 . S
C1231 H1246 0.961 . S
C1231 H1247 0.961 1_655 S
C1232 C1233 1.370 . S
C1232 C1234 1.363 . S
C1232 H1248 0.931 . S
C1233 C1232 1.370 . S
C1233 C1237 1.408 . S
C1234 C1232 1.363 . S
C1234 C1235 1.370 . S
C1234 C1238 1.524 . S
C1235 C1227 1.503 . S
C1235 C1234 1.370 . S
C1235 C1236 1.403 . S
C1236 C1235 1.403 . S
C1236 C1237 1.404 . S
C1236 C1239 1.539 . S
C1237 C1233 1.408 . S
C1237 C1236 1.404 . S
C1237 H1249 0.930 . S
C1238 C1234 1.524 . S
C1238 H1250 0.956 . S
C1238 H1251 0.961 . S
C1238 H1252 0.961 . S
C1239 C1236 1.539 . S
C1239 H1253 0.958 . S
C1239 H1254 0.961 . S
C1239 H1255 0.960 . S
H1240 C1224 0.931 . S
H1241 C1229 0.929 . S
H1242 C1230 0.960 . S
H1243 C1230 0.962 . S
H1244 C1230 0.960 . S
H1245 C1231 0.961 . S
H1246 C1231 0.961 . S
H1247 C1231 0.961 1_455 S
H1248 C1232 0.931 . S
H1249 C1237 0.930 . S
H1250 C1238 0.956 . S
H1251 C1238 0.961 . S
H1252 C1238 0.961 . S
H1253 C1239 0.958 . S
H1254 C1239 0.961 . S
H1255 C1239 0.960 . S
C1256 C1257 1.391 . S
C1256 C1258 1.394 . S
C1256 H1272 0.931 . S
C1257 C1256 1.391 . S
C1257 C1261 1.376 . S
C1258 C1256 1.394 . S
C1258 C1259 1.369 . S
C1258 C1262 1.531 . S
C1259 C1258 1.369 . S
C1259 C1260 1.410 . S
C1259 C1267 1.503 . S
C1260 C1259 1.410 . S
C1260 C1261 1.392 . S
C1260 C1263 1.511 1_455 S
C1261 C1257 1.376 . S
C1261 C1260 1.392 . S
C1261 H1273 0.929 . S
C1262 C1258 1.531 . S
C1262 H1274 0.960 . S
C1262 H1275 0.962 . S
C1262 H1276 0.960 . S
C1263 C1260 1.511 1_655 S
C1263 H1277 0.961 . S
C1263 H1278 0.961 . S
C1263 H1279 0.961 . S
C1264 C1265 1.370 1_455 S
C1264 C1266 1.363 . S
C1264 H1280 0.931 . S
C1265 C1264 1.370 1_655 S
C1265 C1269 1.408 . S
C1266 C1264 1.363 . S
C1266 C1267 1.370 . S
C1266 C1270 1.524 . S
C1267 C1259 1.503 . S
C1267 C1266 1.370 . S
C1267 C1268 1.403 . S
C1268 C1267 1.403 . S
C1268 C1269 1.404 1_455 S
C1268 C1271 1.539 . S
C1269 C1265 1.408 . S
C1269 C1268 1.404 1_655 S
C1269 H1281 0.930 . S
C1270 C1266 1.524 . S
C1270 H1282 0.956 . S
C1270 H1283 0.961 . S
C1270 H1284 0.961 . S
C1271 C1268 1.539 . S
C1271 H1285 0.958 . S
C1271 H1286 0.961 1_455 S
C1271 H1287 0.960 . S
H1272 C1256 0.931 . S
H1273 C1261 0.929 . S
H1274 C1262 0.960 . S
H1275 C1262 0.962 . S
H1276 C1262 0.960 . S
H1277 C1263 0.961 . S
H1278 C1263 0.961 . S
H1279 C1263 0.961 . S
H1280 C1264 0.931 . S
H1281 C1269 0.930 . S
H1282 C1270 0.956 . S
H1283 C1270 0.961 . S
H1284 C1270 0.961 . S
H1285 C1271 0.958 . S
H1286 C1271 0.961 1_655 S
H1287 C1271 0.960 . S
C1288 C1289 1.391 . S
C1288 C1290 1.394 . S
C1288 H1304 0.931 . S
C1289 C1288 1.391 . S
C1289 C1293 1.376 . S
C1290 C1288 1.394 . S
C1290 C1291 1.369 . S
C1290 C1294 1.531 . S
C1291 C1290 1.369 . S
C1291 C1292 1.410 . S
C1291 C1299 1.503 . S
C1292 C1291 1.410 . S
C1292 C1293 1.392 . S
C1292 C1295 1.511 . S
C1293 C1289 1.376 . S
C1293 C1292 1.392 . S
C1293 H1305 0.929 . S
C1294 C1290 1.531 . S
C1294 H1306 0.960 . S
C1294 H1307 0.962 . S
C1294 H1308 0.960 . S
C1295 C1292 1.511 . S
C1295 H1309 0.961 . S
C1295 H1310 0.961 . S
C1295 H1311 0.961 . S
C1296 C1297 1.370 . S
C1296 C1298 1.363 . S
C1296 H1312 0.931 . S
C1297 C1296 1.370 . S
C1297 C1301 1.408 . S
C1298 C1296 1.363 . S
C1298 C1299 1.370 . S
C1298 C1302 1.524 . S
C1299 C1291 1.503 . S
C1299 C1298 1.370 . S
C1299 C1300 1.403 . S
C1300 C1299 1.403 . S
C1300 C1301 1.404 . S
C1300 C1303 1.539 . S
C1301 C1297 1.408 . S
C1301 C1300 1.404 . S
C1301 H1313 0.930 . S
C1302 C1298 1.524 . S
C1302 H1314 0.956 . S
C1302 H1315 0.961 . S
C1302 H1316 0.961 . S
C1303 C1300 1.539 . S
C1303 H1317 0.958 . S
C1303 H1318 0.961 . S
C1303 H1319 0.960 . S
H1304 C1288 0.931 . S
H1305 C1293 0.929 . S
H1306 C1294 0.960 . S
H1307 C1294 0.962 . S
H1308 C1294 0.960 . S
H1309 C1295 0.961 . S
H1310 C1295 0.961 . S
H1311 C1295 0.961 . S
H1312 C1296 0.931 . S
H1313 C1301 0.930 . S
H1314 C1302 0.956 . S
H1315 C1302 0.961 . S
H1316 C1302 0.961 . S
H1317 C1303 0.958 . S
H1318 C1303 0.961 . S
H1319 C1303 0.960 . S
C1320 C1321 1.391 . S
C1320 C1322 1.394 . S
C1320 H1336 0.931 . S
C1321 C1320 1.391 . S
C1321 C1325 1.376 . S
C1322 C1320 1.394 . S
C1322 C1323 1.369 . S
C1322 C1326 1.531 . S
C1323 C1322 1.369 . S
C1323 C1324 1.410 . S
C1323 C1331 1.503 . S
C1324 C1323 1.410 . S
C1324 C1325 1.392 . S
C1324 C1327 1.511 . S
C1325 C1321 1.376 . S
C1325 C1324 1.392 . S
C1325 H1337 0.929 . S
C1326 C1322 1.531 . S
C1326 H1338 0.960 . S
C1326 H1339 0.962 . S
C1326 H1340 0.960 . S
C1327 C1324 1.511 . S
C1327 H1341 0.961 . S
C1327 H1342 0.961 . S
C1327 H1343 0.961 . S
C1328 C1329 1.370 . S
C1328 C1330 1.363 . S
C1328 H1344 0.931 . S
C1329 C1328 1.370 . S
C1329 C1333 1.408 . S
C1330 C1328 1.363 . S
C1330 C1331 1.370 . S
C1330 C1334 1.524 . S
C1331 C1323 1.503 . S
C1331 C1330 1.370 . S
C1331 C1332 1.403 . S
C1332 C1331 1.403 . S
C1332 C1333 1.404 . S
C1332 C1335 1.539 . S
C1333 C1329 1.408 . S
C1333 C1332 1.404 . S
C1333 H1345 0.930 . S
C1334 C1330 1.524 . S
C1334 H1346 0.956 . S
C1334 H1347 0.961 . S
C1334 H1348 0.961 . S
C1335 C1332 1.539 . S
C1335 H1349 0.958 . S
C1335 H1350 0.961 . S
C1335 H1351 0.960 . S
H1336 C1320 0.931 . S
H1337 C1325 0.929 . S
H1338 C1326 0.960 . S
H1339 C1326 0.962 . S
H1340 C1326 0.960 . S
H1341 C1327 0.961 . S
H1342 C1327 0.961 . S
H1343 C1327 0.961 . S
H1344 C1328 0.931 . S
H1345 C1333 0.930 . S
H1346 C1334 0.956 . S
H1347 C1334 0.961 . S
H1348 C1334 0.961 . S
H1349 C1335 0.958 . S
H1350 C1335 0.961 . S
H1351 C1335 0.960 . S
C1352 C1353 1.391 . S
C1352 C1354 1.394 . S
C1352 H1368 0.931 . S
C1353 C1352 1.391 . S
C1353 C1357 1.376 . S
C1354 C1352 1.394 . S
C1354 C1355 1.369 . S
C1354 C1358 1.531 . S
C1355 C1354 1.369 . S
C1355 C1356 1.410 . S
C1355 C1363 1.503 . S
C1356 C1355 1.410 . S
C1356 C1357 1.392 . S
C1356 C1359 1.511 . S
C1357 C1353 1.376 . S
C1357 C1356 1.392 . S
C1357 H1369 0.929 . S
C1358 C1354 1.531 . S
C1358 H1370 0.960 1_455 S
C1358 H1371 0.962 . S
C1358 H1372 0.960 . S
C1359 C1356 1.511 . S
C1359 H1373 0.961 . S
C1359 H1374 0.961 . S
C1359 H1375 0.961 . S
C1360 C1361 1.370 1_455 S
C1360 C1362 1.363 . S
C1360 H1376 0.931 . S
C1361 C1360 1.370 1_655 S
C1361 C1365 1.408 . S
C1362 C1360 1.363 . S
C1362 C1363 1.370 . S
C1362 C1366 1.524 . S
C1363 C1355 1.503 . S
C1363 C1362 1.370 . S
C1363 C1364 1.403 1_455 S
C1364 C1363 1.403 1_655 S
C1364 C1365 1.404 . S
C1364 C1367 1.539 . S
C1365 C1361 1.408 . S
C1365 C1364 1.404 . S
C1365 H1377 0.930 . S
C1366 C1362 1.524 . S
C1366 H1378 0.956 . S
C1366 H1379 0.961 . S
C1366 H1380 0.961 . S
C1367 C1364 1.539 . S
C1367 H1381 0.958 . S
C1367 H1382 0.961 . S
C1367 H1383 0.960 . S
H1368 C1352 0.931 . S
H1369 C1357 0.929 . S
H1370 C1358 0.960 1_655 S
H1371 C1358 0.962 . S
H1372 C1358 0.960 . S
H1373 C1359 0.961 . S
H1374 C1359 0.961 . S
H1375 C1359 0.961 . S
H1376 C1360 0.931 . S
H1377 C1365 0.930 . S
H1378 C1366 0.956 . S
H1379 C1366 0.961 . S
H1380 C1366 0.961 . S
H1381 C1367 0.958 . S
H1382 C1367 0.961 . S
H1383 C1367 0.960 . S
C1384 C1385 1.391 . S
C1384 C1386 1.394 . S
C1384 H1400 0.931 . S
C1385 C1384 1.391 . S
C1385 C1389 1.376 . S
C1386 C1384 1.394 . S
C1386 C1387 1.369 . S
C1386 C1390 1.531 . S
C1387 C1386 1.369 . S
C1387 C1388 1.410 . S
C1387 C1395 1.503 . S
C1388 C1387 1.410 . S
C1388 C1389 1.392 . S
C1388 C1391 1.511 . S
C1389 C1385 1.376 . S
C1389 C1388 1.392 . S
C1389 H1401 0.929 . S
C1390 C1386 1.531 . S
C1390 H1402 0.960 . S
C1390 H1403 0.962 . S
C1390 H1404 0.960 . S
C1391 C1388 1.511 . S
C1391 H1405 0.961 . S
C1391 H1406 0.961 . S
C1391 H1407 0.961 . S
C1392 C1393 1.370 . S
C1392 C1394 1.363 . S
C1392 H1408 0.931 . S
C1393 C1392 1.370 . S
C1393 C1397 1.408 . S
C1394 C1392 1.363 . S
C1394 C1395 1.370 . S
C1394 C1398 1.524 . S
C1395 C1387 1.503 . S
C1395 C1394 1.370 . S
C1395 C1396 1.403 . S
C1396 C1395 1.403 . S
C1396 C1397 1.404 . S
C1396 C1399 1.539 . S
C1397 C1393 1.408 . S
C1397 C1396 1.404 . S
C1397 H1409 0.930 . S
C1398 C1394 1.524 . S
C1398 H1410 0.956 . S
C1398 H1411 0.961 . S
C1398 H1412 0.961 . S
C1399 C1396 1.539 . S
C1399 H1413 0.958 . S
C1399 H1414 0.961 . S
C1399 H1415 0.960 . S
H1400 C1384 0.931 . S
H1401 C1389 0.929 . S
H1402 C1390 0.960 . S
H1403 C1390 0.962 . S
H1404 C1390 0.960 . S
H1405 C1391 0.961 . S
H1406 C1391 0.961 . S
H1407 C1391 0.961 . S
H1408 C1392 0.931 . S
H1409 C1397 0.930 . S
H1410 C1398 0.956 . S
H1411 C1398 0.961 . S
H1412 C1398 0.961 . S
H1413 C1399 0.958 . S
H1414 C1399 0.961 . S
H1415 C1399 0.960 . S
C401 C143 1.266 . S
C393 C5 1.260 . S
C433 C180 1.251 . S
C425 C18 1.277 . S
C465 C216 1.262 . S
C457 C31 1.263 . S
C489 C42 1.209 . S
C497 C107 1.270 . S
C521 C57 1.451 . S
C529 C108 1.457 . S
C553 C70 1.440 . S
C561 C144 1.452 . S
C593 C179 1.473 . S
C585 C81 1.485 . S
C625 C215 1.480 . S
C617 C96 1.424 . S
C649 C29 1.487 . S
C657 C287 1.477 . S
C689 C324 1.445 . S
C681 C44 1.478 . S
C713 C3 1.478 . S
C721 C360 1.460 . S
C753 C251 1.477 . S
C745 C16 1.486 . S
C777 C83 1.272 . S
C785 C252 1.253 . S
C809 C94 1.234 . S
C817 C288 1.258 . S
C849 C323 1.267 . S
C841 C55 1.200 . S
C873 C68 1.236 . S
C881 C359 1.279 . S
C913 C178 1.339 . S
C905 C1 1.345 . S
C945 C214 1.323 . S
C937 C14 1.304 . S
C969 C27 1.279 . S
C977 C118 1.191 . S
C1001 C49 1.322 . S
C1009 C154 1.215 . S
C1033 C53 1.567 . S
C1041 C226 1.512 . S
C1073 C106 1.683 . S
C1065 C66 1.641 . S
C1105 C142 1.701 . S
C1097 C88 1.699 . S
C1137 C190 1.506 . S
C1129 C92 1.620 . S
C1169 C322 1.704 . S
C1161 C36 1.690 . S
C1201 C358 1.694 . S
C1193 C40 1.572 . S
C1225 C10 1.631 . S
C1233 C262 1.518 . S
C1265 C298 1.542 . S
C1257 C23 1.639 . S
C1297 C370 1.188 . S
C1289 C79 1.279 . S
C1321 C101 1.297 . S
C1329 C250 1.312 . S
C1361 C286 1.330 . S
C1353 C62 1.318 . S
C1393 C334 1.223 . S
C1385 C75 1.328 . S
