# Generated by pormake.
# Topology gar, (4,6)-cn, num edge types: 1
# Building blocks:
#     Node 0, Type 0, BuildingBlock: KUFVIS_clean_sbu_0, # of connection points: 4
#     Node 1, Type 0, BuildingBlock: KUFVIS_clean_sbu_0, # of connection points: 4
#     Node 2, Type 0, BuildingBlock: KUFVIS_clean_sbu_0, # of connection points: 4
#     Node 3, Type 0, BuildingBlock: KUFVIS_clean_sbu_0, # of connection points: 4
#     Node 4, Type 0, BuildingBlock: KUFVIS_clean_sbu_0, # of connection points: 4
#     Node 5, Type 0, BuildingBlock: KUFVIS_clean_sbu_0, # of connection points: 4
#     Node 6, Type 0, BuildingBlock: KUFVIS_clean_sbu_0, # of connection points: 4
#     Node 7, Type 0, BuildingBlock: KUFVIS_clean_sbu_0, # of connection points: 4
#     Node 8, Type 0, BuildingBlock: KUFVIS_clean_sbu_0, # of connection points: 4
#     Node 9, Type 0, BuildingBlock: KUFVIS_clean_sbu_0, # of connection points: 4
#     Node 10, Type 0, BuildingBlock: KUFVIS_clean_sbu_0, # of connection points: 4
#     Node 11, Type 0, BuildingBlock: KUFVIS_clean_sbu_0, # of connection points: 4
#     Node 12, Type 0, BuildingBlock: KUFVIS_clean_sbu_0, # of connection points: 4
#     Node 13, Type 0, BuildingBlock: KUFVIS_clean_sbu_0, # of connection points: 4
#     Node 14, Type 0, BuildingBlock: KUFVIS_clean_sbu_0, # of connection points: 4
#     Node 15, Type 0, BuildingBlock: KUFVIS_clean_sbu_0, # of connection points: 4
#     Node 16, Type 0, BuildingBlock: KUFVIS_clean_sbu_0, # of connection points: 4
#     Node 17, Type 0, BuildingBlock: KUFVIS_clean_sbu_0, # of connection points: 4
#     Node 18, Type 0, BuildingBlock: KUFVIS_clean_sbu_0, # of connection points: 4
#     Node 19, Type 0, BuildingBlock: KUFVIS_clean_sbu_0, # of connection points: 4
#     Node 20, Type 0, BuildingBlock: KUFVIS_clean_sbu_0, # of connection points: 4
#     Node 21, Type 0, BuildingBlock: KUFVIS_clean_sbu_0, # of connection points: 4
#     Node 22, Type 0, BuildingBlock: KUFVIS_clean_sbu_0, # of connection points: 4
#     Node 23, Type 0, BuildingBlock: KUFVIS_clean_sbu_0, # of connection points: 4
#     Node 24, Type 1, BuildingBlock: HISSIN_clean_sbu_0, # of connection points: 6
#     Node 25, Type 1, BuildingBlock: HISSIN_clean_sbu_0, # of connection points: 6
#     Node 26, Type 1, BuildingBlock: HISSIN_clean_sbu_0, # of connection points: 6
#     Node 27, Type 1, BuildingBlock: HISSIN_clean_sbu_0, # of connection points: 6
#     Node 28, Type 1, BuildingBlock: HISSIN_clean_sbu_0, # of connection points: 6
#     Node 29, Type 1, BuildingBlock: HISSIN_clean_sbu_0, # of connection points: 6
#     Node 30, Type 1, BuildingBlock: HISSIN_clean_sbu_0, # of connection points: 6
#     Node 31, Type 1, BuildingBlock: HISSIN_clean_sbu_0, # of connection points: 6
#     Node 32, Type 1, BuildingBlock: HISSIN_clean_sbu_0, # of connection points: 6
#     Node 33, Type 1, BuildingBlock: HISSIN_clean_sbu_0, # of connection points: 6
#     Node 34, Type 1, BuildingBlock: HISSIN_clean_sbu_0, # of connection points: 6
#     Node 35, Type 1, BuildingBlock: HISSIN_clean_sbu_0, # of connection points: 6
#     Node 36, Type 1, BuildingBlock: HISSIN_clean_sbu_0, # of connection points: 6
#     Node 37, Type 1, BuildingBlock: HISSIN_clean_sbu_0, # of connection points: 6
#     Node 38, Type 1, BuildingBlock: HISSIN_clean_sbu_0, # of connection points: 6
#     Node 39, Type 1, BuildingBlock: HISSIN_clean_sbu_0, # of connection points: 6
#     Edge 40, Type (0, 1), BuildingBlock: EZIPEK_clean_linker_0, # of connection points: 2
#     Edge 41, Type (0, 1), BuildingBlock: EZIPEK_clean_linker_0, # of connection points: 2
#     Edge 42, Type (0, 1), BuildingBlock: EZIPEK_clean_linker_0, # of connection points: 2
#     Edge 43, Type (0, 1), BuildingBlock: EZIPEK_clean_linker_0, # of connection points: 2
#     Edge 44, Type (0, 1), BuildingBlock: EZIPEK_clean_linker_0, # of connection points: 2
#     Edge 45, Type (0, 1), BuildingBlock: EZIPEK_clean_linker_0, # of connection points: 2
#     Edge 46, Type (0, 1), BuildingBlock: EZIPEK_clean_linker_0, # of connection points: 2
#     Edge 47, Type (0, 1), BuildingBlock: EZIPEK_clean_linker_0, # of connection points: 2
#     Edge 48, Type (0, 1), BuildingBlock: EZIPEK_clean_linker_0, # of connection points: 2
#     Edge 49, Type (0, 1), BuildingBlock: EZIPEK_clean_linker_0, # of connection points: 2
#     Edge 50, Type (0, 1), BuildingBlock: EZIPEK_clean_linker_0, # of connection points: 2
#     Edge 51, Type (0, 1), BuildingBlock: EZIPEK_clean_linker_0, # of connection points: 2
#     Edge 52, Type (0, 1), BuildingBlock: EZIPEK_clean_linker_0, # of connection points: 2
#     Edge 53, Type (0, 1), BuildingBlock: EZIPEK_clean_linker_0, # of connection points: 2
#     Edge 54, Type (0, 1), BuildingBlock: EZIPEK_clean_linker_0, # of connection points: 2
#     Edge 55, Type (0, 1), BuildingBlock: EZIPEK_clean_linker_0, # of connection points: 2
#     Edge 56, Type (0, 1), BuildingBlock: EZIPEK_clean_linker_0, # of connection points: 2
#     Edge 57, Type (0, 1), BuildingBlock: EZIPEK_clean_linker_0, # of connection points: 2
#     Edge 58, Type (0, 1), BuildingBlock: EZIPEK_clean_linker_0, # of connection points: 2
#     Edge 59, Type (0, 1), BuildingBlock: EZIPEK_clean_linker_0, # of connection points: 2
#     Edge 60, Type (0, 1), BuildingBlock: EZIPEK_clean_linker_0, # of connection points: 2
#     Edge 61, Type (0, 1), BuildingBlock: EZIPEK_clean_linker_0, # of connection points: 2
#     Edge 62, Type (0, 1), BuildingBlock: EZIPEK_clean_linker_0, # of connection points: 2
#     Edge 63, Type (0, 1), BuildingBlock: EZIPEK_clean_linker_0, # of connection points: 2
#     Edge 64, Type (0, 1), BuildingBlock: EZIPEK_clean_linker_0, # of connection points: 2
#     Edge 65, Type (0, 1), BuildingBlock: EZIPEK_clean_linker_0, # of connection points: 2
#     Edge 66, Type (0, 1), BuildingBlock: EZIPEK_clean_linker_0, # of connection points: 2
#     Edge 67, Type (0, 1), BuildingBlock: EZIPEK_clean_linker_0, # of connection points: 2
#     Edge 68, Type (0, 1), BuildingBlock: EZIPEK_clean_linker_0, # of connection points: 2
#     Edge 69, Type (0, 1), BuildingBlock: EZIPEK_clean_linker_0, # of connection points: 2
#     Edge 70, Type (0, 1), BuildingBlock: EZIPEK_clean_linker_0, # of connection points: 2
#     Edge 71, Type (0, 1), BuildingBlock: EZIPEK_clean_linker_0, # of connection points: 2
#     Edge 72, Type (0, 1), BuildingBlock: EZIPEK_clean_linker_0, # of connection points: 2
#     Edge 73, Type (0, 1), BuildingBlock: EZIPEK_clean_linker_0, # of connection points: 2
#     Edge 74, Type (0, 1), BuildingBlock: EZIPEK_clean_linker_0, # of connection points: 2
#     Edge 75, Type (0, 1), BuildingBlock: EZIPEK_clean_linker_0, # of connection points: 2
#     Edge 76, Type (0, 1), BuildingBlock: EZIPEK_clean_linker_0, # of connection points: 2
#     Edge 77, Type (0, 1), BuildingBlock: EZIPEK_clean_linker_0, # of connection points: 2
#     Edge 78, Type (0, 1), BuildingBlock: EZIPEK_clean_linker_0, # of connection points: 2
#     Edge 79, Type (0, 1), BuildingBlock: EZIPEK_clean_linker_0, # of connection points: 2
#     Edge 80, Type (0, 1), BuildingBlock: EZIPEK_clean_linker_0, # of connection points: 2
#     Edge 81, Type (0, 1), BuildingBlock: EZIPEK_clean_linker_0, # of connection points: 2
#     Edge 82, Type (0, 1), BuildingBlock: EZIPEK_clean_linker_0, # of connection points: 2
#     Edge 83, Type (0, 1), BuildingBlock: EZIPEK_clean_linker_0, # of connection points: 2
#     Edge 84, Type (0, 1), BuildingBlock: EZIPEK_clean_linker_0, # of connection points: 2
#     Edge 85, Type (0, 1), BuildingBlock: EZIPEK_clean_linker_0, # of connection points: 2
#     Edge 86, Type (0, 1), BuildingBlock: EZIPEK_clean_linker_0, # of connection points: 2
#     Edge 87, Type (0, 1), BuildingBlock: EZIPEK_clean_linker_0, # of connection points: 2
#     Edge 88, Type (0, 1), BuildingBlock: EZIPEK_clean_linker_0, # of connection points: 2
#     Edge 89, Type (0, 1), BuildingBlock: EZIPEK_clean_linker_0, # of connection points: 2
#     Edge 90, Type (0, 1), BuildingBlock: EZIPEK_clean_linker_0, # of connection points: 2
#     Edge 91, Type (0, 1), BuildingBlock: EZIPEK_clean_linker_0, # of connection points: 2
#     Edge 92, Type (0, 1), BuildingBlock: EZIPEK_clean_linker_0, # of connection points: 2
#     Edge 93, Type (0, 1), BuildingBlock: EZIPEK_clean_linker_0, # of connection points: 2
#     Edge 94, Type (0, 1), BuildingBlock: EZIPEK_clean_linker_0, # of connection points: 2
#     Edge 95, Type (0, 1), BuildingBlock: EZIPEK_clean_linker_0, # of connection points: 2
#     Edge 96, Type (0, 1), BuildingBlock: EZIPEK_clean_linker_0, # of connection points: 2
#     Edge 97, Type (0, 1), BuildingBlock: EZIPEK_clean_linker_0, # of connection points: 2
#     Edge 98, Type (0, 1), BuildingBlock: EZIPEK_clean_linker_0, # of connection points: 2
#     Edge 99, Type (0, 1), BuildingBlock: EZIPEK_clean_linker_0, # of connection points: 2
#     Edge 100, Type (0, 1), BuildingBlock: EZIPEK_clean_linker_0, # of connection points: 2
#     Edge 101, Type (0, 1), BuildingBlock: EZIPEK_clean_linker_0, # of connection points: 2
#     Edge 102, Type (0, 1), BuildingBlock: EZIPEK_clean_linker_0, # of connection points: 2
#     Edge 103, Type (0, 1), BuildingBlock: EZIPEK_clean_linker_0, # of connection points: 2
#     Edge 104, Type (0, 1), BuildingBlock: EZIPEK_clean_linker_0, # of connection points: 2
#     Edge 105, Type (0, 1), BuildingBlock: EZIPEK_clean_linker_0, # of connection points: 2
#     Edge 106, Type (0, 1), BuildingBlock: EZIPEK_clean_linker_0, # of connection points: 2
#     Edge 107, Type (0, 1), BuildingBlock: EZIPEK_clean_linker_0, # of connection points: 2
#     Edge 108, Type (0, 1), BuildingBlock: EZIPEK_clean_linker_0, # of connection points: 2
#     Edge 109, Type (0, 1), BuildingBlock: EZIPEK_clean_linker_0, # of connection points: 2
#     Edge 110, Type (0, 1), BuildingBlock: EZIPEK_clean_linker_0, # of connection points: 2
#     Edge 111, Type (0, 1), BuildingBlock: EZIPEK_clean_linker_0, # of connection points: 2
#     Edge 112, Type (0, 1), BuildingBlock: EZIPEK_clean_linker_0, # of connection points: 2
#     Edge 113, Type (0, 1), BuildingBlock: EZIPEK_clean_linker_0, # of connection points: 2
#     Edge 114, Type (0, 1), BuildingBlock: EZIPEK_clean_linker_0, # of connection points: 2
#     Edge 115, Type (0, 1), BuildingBlock: EZIPEK_clean_linker_0, # of connection points: 2
#     Edge 116, Type (0, 1), BuildingBlock: EZIPEK_clean_linker_0, # of connection points: 2
#     Edge 117, Type (0, 1), BuildingBlock: EZIPEK_clean_linker_0, # of connection points: 2
#     Edge 118, Type (0, 1), BuildingBlock: EZIPEK_clean_linker_0, # of connection points: 2
#     Edge 119, Type (0, 1), BuildingBlock: EZIPEK_clean_linker_0, # of connection points: 2
#     Edge 120, Type (0, 1), BuildingBlock: EZIPEK_clean_linker_0, # of connection points: 2
#     Edge 121, Type (0, 1), BuildingBlock: EZIPEK_clean_linker_0, # of connection points: 2
#     Edge 122, Type (0, 1), BuildingBlock: EZIPEK_clean_linker_0, # of connection points: 2
#     Edge 123, Type (0, 1), BuildingBlock: EZIPEK_clean_linker_0, # of connection points: 2
#     Edge 124, Type (0, 1), BuildingBlock: EZIPEK_clean_linker_0, # of connection points: 2
#     Edge 125, Type (0, 1), BuildingBlock: EZIPEK_clean_linker_0, # of connection points: 2
#     Edge 126, Type (0, 1), BuildingBlock: EZIPEK_clean_linker_0, # of connection points: 2
#     Edge 127, Type (0, 1), BuildingBlock: EZIPEK_clean_linker_0, # of connection points: 2
#     Edge 128, Type (0, 1), BuildingBlock: EZIPEK_clean_linker_0, # of connection points: 2
#     Edge 129, Type (0, 1), BuildingBlock: EZIPEK_clean_linker_0, # of connection points: 2
#     Edge 130, Type (0, 1), BuildingBlock: EZIPEK_clean_linker_0, # of connection points: 2
#     Edge 131, Type (0, 1), BuildingBlock: EZIPEK_clean_linker_0, # of connection points: 2
#     Edge 132, Type (0, 1), BuildingBlock: EZIPEK_clean_linker_0, # of connection points: 2
#     Edge 133, Type (0, 1), BuildingBlock: EZIPEK_clean_linker_0, # of connection points: 2
#     Edge 134, Type (0, 1), BuildingBlock: EZIPEK_clean_linker_0, # of connection points: 2
#     Edge 135, Type (0, 1), BuildingBlock: EZIPEK_clean_linker_0, # of connection points: 2
# Relax obj value: 0.239
# Max RMSD: 0.331
# Mean RMSD: 0.155
data_MOF--net-gar--node1-KUFVIS_clean_sbu_0--node2-HISSIN_clean_sbu_0--edge1-EZIPEK_clean_linker_0
_symmetry_space_group_name_H-M    P1
_symmetry_Int_Tables_number       1
_symmetry_cell_setting            triclinic
loop_
_symmetry_equiv_pos_as_xyz
'x, y, z'
_cell_length_a     44.999429
_cell_length_b     44.826015
_cell_length_c     44.346054
_cell_angle_alpha  100.71429
_cell_angle_beta   92.939225
_cell_angle_gamma 101.24808
loop_
_atom_site_label
_atom_site_type_symbol
_atom_site_fract_x
_atom_site_fract_y
_atom_site_fract_z
_atom_type_partial_charge
Mn0 Mn 0.15049 0.34669 0.42043 0.0
Mn1 Mn 0.15914 0.38906 0.36441 0.0
C2 C 0.10878 0.35487 0.39294 0.0
C3 C 0.14243 0.30214 0.44154 0.0
C4 C 0.16491 0.41801 0.43234 0.0
O5 O 0.19394 0.34466 0.4096 0.0
O6 O 0.19678 0.37522 0.37451 0.0
C7 C 0.16764 0.33871 0.31384 0.0
N8 N 0.15289 0.36169 0.32495 0.0
C9 C 0.12424 0.35471 0.27593 0.0
C10 C 0.13925 0.33109 0.26395 0.0
C11 C 0.16087 0.32289 0.28307 0.0
C12 C 0.13138 0.3691 0.307 0.0
H13 H 0.18449 0.33248 0.32824 0.0
C14 C 0.20804 0.35768 0.38956 0.0
O15 O 0.15463 0.32917 0.45794 0.0
O16 O 0.13751 0.30021 0.41198 0.0
N17 N 0.12468 0.40391 0.35086 0.0
C18 C 0.11288 0.42788 0.3656 0.0
C19 C 0.09153 0.43944 0.34942 0.0
C20 C 0.0831 0.42685 0.31805 0.0
C21 C 0.09561 0.40237 0.30327 0.0
C22 C 0.11682 0.3918 0.32057 0.0
H23 H 0.11989 0.43838 0.38945 0.0
O24 O 0.10665 0.34895 0.4204 0.0
O25 O 0.13515 0.3562 0.38226 0.0
O26 O 0.16231 0.3924 0.44131 0.0
O27 O 0.16436 0.41926 0.40384 0.0
C28 C 0.08839 0.38856 0.27185 0.0
C29 C 0.10254 0.3646 0.25823 0.0
H30 H 0.13434 0.3191 0.24011 0.0
H31 H 0.17253 0.30465 0.27404 0.0
H32 H 0.08204 0.45843 0.36096 0.0
H33 H 0.06732 0.43645 0.30541 0.0
H34 H 0.07193 0.39616 0.25796 0.0
H35 H 0.09663 0.35398 0.23412 0.0
Mn36 Mn 0.03569 0.7678 0.65261 0.0
Mn37 Mn 0.05121 0.8313 0.71069 0.0
C38 C 0.08217 0.7823 0.68222 0.0
C39 C 0.02241 0.71471 0.62863 0.0
C40 C 0.04775 0.83502 0.64318 0.0
O41 O 0.99302 0.77243 0.66464 0.0
O42 O 1.00686 0.8145 0.70386 0.0
C43 C 0.03042 0.80387 0.76383 0.0
N44 N 0.05313 0.81938 0.74991 0.0
C45 C 0.08847 0.82693 0.79464 0.0
C46 C 0.06542 0.81108 0.80941 0.0
C47 C 0.03632 0.79934 0.79386 0.0
C48 C 0.08128 0.83061 0.76462 0.0
H49 H 1.00789 0.79518 0.75226 0.0
C50 C 0.9871 0.79197 0.68754 0.0
O51 O 0.02094 0.7369 0.61415 0.0
O52 O 0.02896 0.72342 0.65825 0.0
N53 N 0.09395 0.84822 0.71983 0.0
C54 C 0.11369 0.86319 0.70252 0.0
C55 C 0.14398 0.87565 0.71454 0.0
C56 C 0.15361 0.87291 0.74435 0.0
C57 C 0.13278 0.85785 0.76192 0.0
C58 C 0.10291 0.84576 0.74867 0.0
H59 H 0.10646 0.86556 0.67966 0.0
O60 O 0.08036 0.76726 0.65392 0.0
O61 O 0.05762 0.79044 0.69116 0.0
O62 O 0.04164 0.80594 0.63317 0.0
O63 O 0.05097 0.8473 0.67179 0.0
C64 C 0.14048 0.85451 0.79212 0.0
C65 C 0.11836 0.83902 0.80846 0.0
H66 H 0.06989 0.80757 0.8326 0.0
H67 H 1.01842 0.78701 0.80507 0.0
H68 H 0.15988 0.88736 0.70087 0.0
H69 H 0.177 0.88255 0.75354 0.0
H70 H 0.16334 0.86382 0.80303 0.0
H71 H 0.1246 0.83646 0.83161 0.0
Mn72 Mn 0.63573 0.85436 0.91484 0.0
Mn73 Mn 0.62999 0.8997 0.86283 0.0
C74 C 0.59206 0.8737 0.90838 0.0
C75 C 0.62853 0.80785 0.93309 0.0
C76 C 0.65947 0.92479 0.92743 0.0
O77 O 0.66982 0.84535 0.88714 0.0
O78 O 0.66556 0.87989 0.85761 0.0
C79 C 0.61079 0.84462 0.81191 0.0
N80 N 0.60849 0.87362 0.82609 0.0
C81 C 0.57208 0.87669 0.78589 0.0
C82 C 0.57563 0.84778 0.76966 0.0
C83 C 0.59445 0.83127 0.78314 0.0
C84 C 0.58793 0.88799 0.81501 0.0
H85 H 0.62547 0.83216 0.82229 0.0
C86 C 0.67846 0.85922 0.86528 0.0
O87 O 0.6487 0.83208 0.94652 0.0
O88 O 0.61495 0.80939 0.90701 0.0
N89 N 0.59796 0.92221 0.86245 0.0
C90 C 0.59624 0.9493 0.8816 0.0
C91 C 0.5772 0.96801 0.87253 0.0
C92 C 0.56131 0.95967 0.84313 0.0
C93 C 0.56457 0.93261 0.82313 0.0
C94 C 0.58298 0.91426 0.83392 0.0
H95 H 0.60963 0.95689 0.90354 0.0
O96 O 0.59892 0.86514 0.93372 0.0
O97 O 0.61031 0.86993 0.88684 0.0
O98 O 0.65928 0.89829 0.93406 0.0
O99 O 0.65011 0.92795 0.90078 0.0
C100 C 0.55051 0.92323 0.79272 0.0
C101 C 0.55357 0.89481 0.77442 0.0
H102 H 0.56358 0.83778 0.74717 0.0
H103 H 0.59669 0.80857 0.77121 0.0
H104 H 0.5754 0.98926 0.88788 0.0
H105 H 0.54706 0.97445 0.836 0.0
H106 H 0.53628 0.93702 0.78368 0.0
H107 H 0.54154 0.88709 0.75165 0.0
Mn108 Mn 0.53978 0.27299 0.15936 0.0
Mn109 Mn 0.4804 0.24981 0.10598 0.0
C110 C 0.52455 0.22051 0.13704 0.0
C111 C 0.59063 0.28586 0.17657 0.0
C112 C 0.47485 0.27392 0.17408 0.0
O113 O 0.5391 0.3122 0.1422 0.0
O114 O 0.50136 0.29292 0.10361 0.0
C115 C 0.511 0.24868 0.04823 0.0
N116 N 0.49369 0.23336 0.0672 0.0
C117 C 0.49217 0.18407 0.03389 0.0
C118 C 0.51033 0.19926 1.01427 0.0
C119 C 0.51961 0.23173 0.02138 0.0
C120 C 0.48415 0.20218 0.06024 0.0
H121 H 0.51855 0.27359 0.0537 0.0
C122 C 0.52356 0.31431 0.11791 0.0
O123 O 0.57026 0.29474 0.19366 0.0
O124 O 0.58194 0.27251 0.14811 0.0
N125 N 0.46039 0.20794 0.10578 0.0
C126 C 0.44196 0.19689 0.12641 0.0
C127 C 0.42937 0.16499 0.12168 0.0
C128 C 0.43575 0.14482 0.09575 0.0
C129 C 0.45462 0.15674 0.07473 0.0
C130 C 0.46625 0.18877 0.08047 0.0
H131 H 0.43671 0.21228 0.14623 0.0
O132 O 0.53665 0.22923 0.16529 0.0
O133 O 0.51798 0.2429 0.12493 0.0
O134 O 0.50273 0.27696 0.18226 0.0
O135 O 0.46382 0.26543 0.14588 0.0
C136 C 0.46222 0.13814 0.04823 0.0
C137 C 0.48155 0.15168 0.02821 0.0
H138 H 0.51712 0.18624 0.9936 0.0
H139 H 0.53356 0.24366 1.00631 0.0
H140 H 0.41474 0.15598 0.13796 0.0
H141 H 0.42591 0.12029 0.09218 0.0
H142 H 0.45282 0.11348 0.04262 0.0
H143 H 0.48739 0.13705 1.00803 0.0
Mn144 Mn 0.13384 0.79065 0.15889 0.0
Mn145 Mn 0.12172 0.78904 0.08256 0.0
C146 C 0.13481 0.74558 0.12439 0.0
C147 C 0.16627 0.80643 0.20339 0.0
C148 C 0.07119 0.78443 0.12564 0.0
O149 O 0.13638 0.83561 0.15672 0.0
O150 O 0.13594 0.83218 0.10565 0.0
C151 C 0.18666 0.80977 0.07362 0.0
N152 N 0.15989 0.78878 0.06551 0.0
C153 C 0.18285 0.75692 0.02764 0.0
C154 C 0.21052 0.77849 0.03523 0.0
C155 C 0.21247 0.80495 0.05846 0.0
C156 C 0.15803 0.76278 0.04389 0.0
H157 H 0.18836 0.82982 0.09174 0.0
C158 C 0.13912 0.84787 0.13323 0.0
O159 O 0.13705 0.80252 0.20437 0.0
O160 O 0.17677 0.80048 0.17665 0.0
N161 N 0.10798 0.74938 0.05572 0.0
C162 C 0.07865 0.73388 0.04751 0.0
C163 C 0.07217 0.70784 0.02326 0.0
C164 C 0.09586 0.69851 1.00701 0.0
C165 C 0.12551 0.71614 1.01426 0.0
C166 C 0.1304 0.74221 0.03829 0.0
H167 H 0.06023 0.74208 0.05857 0.0
O168 O 0.13321 0.74539 0.15349 0.0
O169 O 0.1377 0.77253 0.11666 0.0
O170 O 0.08794 0.7829 0.14919 0.0
O171 O 0.08122 0.78822 0.09969 0.0
C172 C 0.15015 0.70964 0.99768 0.0
C173 C 0.17891 0.72985 1.00461 0.0
H174 H 0.23043 0.77491 0.02346 0.0
H175 H 0.23382 0.82158 0.06471 0.0
H176 H 0.04894 0.69522 0.0169 0.0
H177 H 0.09092 0.67855 0.98822 0.0
H178 H 0.14712 0.68939 0.97927 0.0
H179 H 0.19769 0.72467 0.99169 0.0
Mn180 Mn 0.52508 0.80362 0.41962 0.0
Mn181 Mn 0.50132 0.84735 0.37338 0.0
C182 C 0.47567 0.79279 0.39842 0.0
C183 C 0.55192 0.76604 0.42596 0.0
C184 C 0.51285 0.86712 0.44321 0.0
O185 O 0.56379 0.83001 0.40914 0.0
O186 O 0.54575 0.85178 0.37177 0.0
C187 C 0.4965 0.79538 0.32001 0.0
N188 N 0.49586 0.82562 0.33135 0.0
C189 C 0.49211 0.83598 0.28012 0.0
C190 C 0.49064 0.80449 0.26797 0.0
C191 C 0.49322 0.78416 0.28804 0.0
C192 C 0.49483 0.84568 0.31223 0.0
H193 H 0.5003 0.78009 0.33526 0.0
C194 C 0.56745 0.84531 0.38756 0.0
O195 O 0.54882 0.78741 0.44894 0.0
O196 O 0.53824 0.7654 0.39922 0.0
N197 N 0.50272 0.88406 0.35682 0.0
C198 C 0.5065 0.91407 0.37212 0.0
C199 C 0.50644 0.9377 0.3553 0.0
C200 C 0.50267 0.93028 0.32295 0.0
C201 C 0.49875 0.89923 0.30772 0.0
C202 C 0.49847 0.87661 0.32572 0.0
H203 H 0.5095 0.91999 0.39698 0.0
O204 O 0.48229 0.77975 0.42108 0.0
O205 O 0.49829 0.80901 0.38802 0.0
O206 O 0.51622 0.84101 0.44851 0.0
O207 O 0.50818 0.87219 0.41611 0.0
C208 C 0.49557 0.88989 0.27538 0.0
C209 C 0.49214 0.8583 0.26159 0.0
H210 H 0.48855 0.79588 0.2433 0.0
H211 H 0.49326 0.76004 0.2789 0.0
H212 H 0.50941 0.9616 0.36724 0.0
H213 H 0.5029 0.94859 0.31004 0.0
H214 H 0.49642 0.90684 0.26085 0.0
H215 H 0.4902 0.85151 0.23669 0.0
Mn216 Mn 0.63596 0.27819 0.64285 0.0
Mn217 Mn 0.60304 0.26927 0.57021 0.0
C218 C 0.62698 0.22983 0.6097 0.0
C219 C 0.67608 0.29286 0.68063 0.0
C220 C 0.5675 0.2714 0.62611 0.0
O221 O 0.64068 0.32263 0.63792 0.0
O222 O 0.61713 0.31342 0.59015 0.0
C223 C 0.6609 0.29318 0.54554 0.0
N224 N 0.63584 0.27023 0.54439 0.0
C225 C 0.65362 0.23711 0.50315 0.0
C226 C 0.67954 0.26046 0.50383 0.0
C227 C 0.68322 0.2886 0.52517 0.0
C228 C 0.63241 0.24284 0.52438 0.0
H229 H 0.66391 0.31472 0.56201 0.0
C230 C 0.63055 0.33163 0.61473 0.0
O231 O 0.64842 0.2928 0.68709 0.0
O232 O 0.68088 0.28379 0.65196 0.0
N233 N 0.58747 0.22838 0.54657 0.0
C234 C 0.55836 0.21174 0.54423 0.0
C235 C 0.54943 0.18414 0.52204 0.0
C236 C 0.57027 0.17439 0.50185 0.0
C237 C 0.59919 0.19335 0.50285 0.0
C238 C 0.60648 0.22092 0.52508 0.0
H239 H 0.54207 0.21948 0.55929 0.0
O240 O 0.63086 0.23227 0.63932 0.0
O241 O 0.62904 0.25579 0.60002 0.0
O242 O 0.59087 0.27644 0.64508 0.0
O243 O 0.5685 0.26682 0.59676 0.0
C244 C 0.62042 0.18679 0.48163 0.0
C245 C 0.64779 0.20854 0.48199 0.0
H246 H 0.69669 0.2571 0.48798 0.0
H247 H 0.70319 0.30673 0.5259 0.0
H248 H 0.52659 0.17038 0.52058 0.0
H249 H 0.56341 0.15297 0.48492 0.0
H250 H 0.61562 0.16544 0.46448 0.0
H251 H 0.66381 0.20342 0.46535 0.0
Mn252 Mn 0.02113 0.31734 0.94509 0.0
Mn253 Mn 0.02634 0.33398 0.87501 0.0
C254 C 0.97777 0.30448 0.91222 0.0
C255 C 0.03172 0.28938 0.98129 0.0
C256 C 0.03137 0.38108 0.93446 0.0
O257 O 0.06676 0.32807 0.93931 0.0
O258 O 0.06432 0.32226 0.88757 0.0
C259 C 0.03013 0.27477 0.83444 0.0
N260 N 1.01636 0.29936 0.84134 0.0
C261 C 0.98656 0.285 0.7923 0.0
C262 C 1.00028 0.25938 0.78468 0.0
C263 C 0.02196 0.2541 0.80596 0.0
C264 C 0.99508 0.30432 0.82131 0.0
H265 H 0.04739 0.2712 0.85047 0.0
C266 C 0.07888 0.3251 0.91379 0.0
O267 O 0.02969 0.31809 0.98891 0.0
O268 O 0.02606 0.27603 0.95223 0.0
N269 N 0.99054 0.34568 0.85983 0.0
C270 C 0.9768 0.36902 0.87224 0.0
C271 C 0.95399 0.37692 0.85436 0.0
C272 C 0.94541 0.36065 0.82396 0.0
C273 C 0.95899 0.33588 0.81206 0.0
C274 C 0.98157 0.32907 0.83101 0.0
H275 H 0.98289 0.38123 0.89571 0.0
O276 O 0.97623 0.30424 0.94137 0.0
O277 O 1.00491 0.30899 0.90267 0.0
O278 O 1.01761 0.36201 0.94936 0.0
O279 O 0.03839 0.37258 0.90719 0.0
C280 C 0.95081 0.31745 0.78229 0.0
C281 C 0.96458 0.292 0.77242 0.0
H282 H 0.99427 0.24357 0.76261 0.0
H283 H 0.03268 0.23441 0.80022 0.0
H284 H 0.94321 0.39564 0.86393 0.0
H285 H 0.92803 0.36706 0.81018 0.0
H286 H 0.93351 0.32223 0.76706 0.0
H287 H 0.95765 0.2776 0.74974 0.0
Mn288 Mn 0.4348 0.03354 0.32361 0.0
Mn289 Mn 0.39104 0.06193 0.37648 0.0
C290 C 0.40195 0.99989 0.34572 0.0
C291 C 0.4429 1.01829 0.27258 0.0
C292 C 0.45851 0.06371 0.39027 0.0
O293 O 0.43749 0.07766 0.3179 0.0
O294 O 0.40447 0.09287 0.35047 0.0
C295 C 0.33869 0.06485 0.33463 0.0
N296 N 0.34997 0.05405 0.35864 0.0
C297 C 0.30021 0.02589 0.36517 0.0
C298 C 0.28807 0.03679 0.34059 0.0
C299 C 0.30742 0.05632 0.32524 0.0
C300 C 0.33156 0.03522 0.37355 0.0
H301 H 0.35345 0.07977 0.32264 0.0
C302 C 0.42255 0.09755 0.3296 0.0
O303 O 0.46539 0.02766 0.29393 0.0
O304 O 0.41554 1.01754 0.28074 0.0
N305 N 0.3757 0.034 0.40264 0.0
C306 C 0.39094 0.0252 0.4257 0.0
C307 C 0.37491 1.00531 0.44308 0.0
C308 C 0.34331 0.99487 0.43677 0.0
C309 C 0.32798 1.00469 0.41333 0.0
C310 C 0.34515 0.02473 0.39693 0.0
H311 H 0.41522 0.03272 0.43039 0.0
O312 O 0.42454 0.99102 0.33217 0.0
O313 O 0.39895 0.02809 0.34529 0.0
O314 O 0.46231 0.04859 0.36391 0.0
O315 O 0.43286 0.07016 0.39686 0.0
C316 C 0.29635 0.99524 0.40549 0.0
C317 C 0.28248 1.00581 0.38141 0.0
H318 H 0.26397 0.03017 0.3332 0.0
H319 H 0.29825 0.06475 0.30618 0.0
H320 H 0.38694 0.99786 0.46114 0.0
H321 H 0.33104 0.97932 0.45005 0.0
H322 H 0.28251 0.97968 0.41771 0.0
H323 H 0.25819 0.99817 0.37542 0.0
Mn324 Mn 0.29857 0.22626 0.52508 0.0
Mn325 Mn 0.29309 0.15994 0.47217 0.0
C326 C 0.25018 0.19119 0.50989 0.0
C327 C 0.30648 0.25046 0.58061 0.0
C328 C 0.30839 0.22447 0.45408 0.0
O329 O 0.34217 0.21809 0.52595 0.0
O330 O 0.33343 0.16976 0.49652 0.0
C331 C 0.29505 0.11362 0.51154 0.0
N332 N 0.28017 0.1239 0.48928 0.0
C333 C 0.23936 0.07892 0.48174 0.0
C334 C 0.25429 0.06785 0.50452 0.0
C335 C 0.28221 0.08532 0.51954 0.0
C336 C 0.25339 0.10715 0.47452 0.0
H337 H 0.31654 0.12692 0.52317 0.0
C338 C 0.35022 0.19233 0.51596 0.0
O339 O 0.31174 0.26638 0.55902 0.0
O340 O 0.2967 0.22116 0.57009 0.0
N341 N 0.25405 0.14806 0.44887 0.0
C342 C 0.24019 0.16431 0.43142 0.0
C343 C 0.2115 0.15071 0.41563 0.0
C344 C 0.19677 0.121 0.41891 0.0
C345 C 0.21062 0.10546 0.43847 0.0
C346 C 0.23953 0.11994 0.45312 0.0
H347 H 0.2506 0.1878 0.43021 0.0
O348 O 0.25184 0.22027 0.52197 0.0
O349 O 0.27663 0.1847 0.50557 0.0
O350 O 0.30344 0.24002 0.48064 0.0
O351 O 0.30679 0.1952 0.45059 0.0
C352 C 0.19633 0.07676 0.44495 0.0
C353 C 0.21073 0.06346 0.46651 0.0
H354 H 0.24431 0.04618 0.51097 0.0
H355 H 0.29378 0.07702 0.53728 0.0
H356 H 0.20046 0.16338 0.40153 0.0
H357 H 0.17436 0.11085 0.40719 0.0
H358 H 0.17395 0.06507 0.43402 0.0
H359 H 0.19926 0.04167 0.47173 0.0
Mn360 Mn 0.20656 0.04782 0.77636 0.0
Mn361 Mn 0.2623 0.06343 0.83511 0.0
C362 C 0.23719 0.10407 0.79375 0.0
C363 C 0.18072 0.0415 0.71942 0.0
C364 C 0.19365 0.05116 0.85036 0.0
O365 O 0.2233 1.00127 0.77496 0.0
O366 O 0.25835 1.01593 0.81568 0.0
C367 C 0.31498 0.05418 0.7995 0.0
N368 N 0.30116 0.07298 0.81938 0.0
C369 C 0.34301 0.11633 0.82205 0.0
C370 C 0.35775 0.09731 0.80188 0.0
C371 C 0.34365 0.06612 0.79054 0.0
C372 C 0.31456 0.10307 0.83043 0.0
H373 H 0.30425 0.03028 0.79034 0.0
C374 C 0.24487 0.99389 0.79278 0.0
O375 O 0.16737 0.03347 0.74277 0.0
O376 O 0.20979 0.04944 0.72786 0.0
N377 N 0.27071 0.10628 0.85547 0.0
C378 C 0.25293 0.12211 0.87353 0.0
C379 C 0.2635 0.15383 0.88599 0.0
C380 C 0.29213 0.16906 0.87968 0.0
C381 C 0.31003 0.15237 0.86105 0.0
C382 C 0.29846 0.12068 0.84951 0.0
H383 H 0.2307 0.11082 0.8782 0.0
O384 O 0.2093 0.0963 0.78162 0.0
O385 O 0.24567 0.07802 0.79772 0.0
O386 O 0.18433 0.0472 0.82095 0.0
O387 O 0.22268 0.05554 0.85715 0.0
C388 C 0.33866 0.16611 0.85305 0.0
C389 C 0.35515 0.14809 0.83359 0.0
H390 H 0.37974 0.10651 0.79468 0.0
H391 H 0.35478 0.05135 0.77477 0.0
H392 H 0.24944 0.1666 0.90017 0.0
H393 H 0.30002 0.19363 0.88902 0.0
H394 H 0.34808 0.19058 0.8615 0.0
H395 H 0.37702 0.15899 0.82737 0.0
Mn396 Mn 0.33234 0.98024 0.02328 0.0
Mn397 Mn 0.33789 0.0259 0.97266 0.0
C398 C 0.38325 1.00077 1.01061 0.0
C399 C 0.33016 0.97057 0.07321 0.0
C400 C 0.32213 0.95472 0.95216 0.0
O401 O 0.28885 0.9934 0.02374 0.0
O402 O 0.29477 0.02279 0.98877 0.0
C403 C 0.33831 0.08257 0.01959 0.0
N404 N 0.3505 0.06774 0.99512 0.0
C405 C 0.39024 0.11271 0.99699 0.0
C406 C 0.37693 0.12911 0.02084 0.0
C407 C 0.35118 0.11376 0.03261 0.0
C408 C 0.37662 0.08156 0.98527 0.0
H409 H 0.31924 0.07053 0.02943 0.0
C410 C 0.27793 1.01136 1.00848 0.0
O411 O 0.31888 0.9493 0.04922 0.0
O412 O 0.34091 0.99821 0.06849 0.0
N413 N 0.37591 0.03315 0.9548 0.0
C414 C 0.38725 1.01357 0.93322 0.0
C415 C 0.41469 0.02445 0.92129 0.0
C416 C 0.42979 0.05557 0.93099 0.0
C417 C 0.41726 0.07555 0.9525 0.0
C418 C 0.39005 0.06327 0.96392 0.0
H419 H 0.37557 0.98975 0.92519 0.0
O420 O 0.37663 0.97593 0.02185 0.0
O421 O 0.35917 1.01332 1.00732 0.0
O422 O 0.32253 0.95072 0.97999 0.0
O423 O 0.32679 0.98241 0.94697 0.0
C424 C 0.43051 0.10726 0.96279 0.0
C425 C 0.41683 0.12588 0.98483 0.0
H426 H 0.38684 0.15315 0.03094 0.0
H427 H 0.34141 0.12587 0.05179 0.0
H428 H 0.42406 1.00892 0.90449 0.0
H429 H 0.45086 0.06394 0.92159 0.0
H430 H 0.45129 0.11753 0.95403 0.0
H431 H 0.42723 0.15021 0.99266 0.0
Mn432 Mn 0.37139 0.39546 0.05958 0.0
Mn433 Mn 0.37423 0.45682 0.02277 0.0
C434 C 0.41941 0.43028 0.05652 0.0
C435 C 0.36288 0.37393 0.10718 0.0
C436 C 0.36582 0.38989 0.98672 0.0
O437 O 0.32651 0.40004 0.0559 0.0
O438 O 0.33295 0.44222 0.03421 0.0
C439 C 0.36305 0.50113 0.07732 0.0
N440 N 0.38016 0.49394 0.05363 0.0
C441 C 0.41374 0.54411 0.0674 0.0
C442 C 0.39636 0.55215 0.09183 0.0
C443 C 0.37098 0.53047 0.09691 0.0
C444 C 0.40493 0.51435 0.04894 0.0
H445 H 0.34357 0.48457 0.08123 0.0
C446 C 0.3164 0.42135 0.04555 0.0
O447 O 0.35944 0.35691 0.07963 0.0
O448 O 0.37189 0.40327 0.10716 0.0
N449 N 0.41221 0.47473 1.00974 0.0
C450 C 0.42573 0.46374 0.98445 0.0
C451 C 0.45083 0.48289 0.9755 0.0
C452 C 0.46153 0.5133 0.99237 0.0
C453 C 0.44669 0.52442 0.01771 0.0
C454 C 0.42153 0.5044 0.02529 0.0
H455 H 0.41741 0.44055 0.97117 0.0
O456 O 0.41824 0.40299 0.06305 0.0
O457 O 0.39268 0.43657 0.0525 0.0
O458 O 0.36721 0.37717 1.01072 0.0
O459 O 0.36862 0.41931 0.98932 0.0
C460 C 0.45584 0.55463 0.03568 0.0
C461 C 0.43955 0.56437 0.06073 0.0
H462 H 0.40234 0.57482 0.10688 0.0
H463 H 0.35751 0.5364 0.11579 0.0
H464 H 0.46211 0.47388 0.95597 0.0
H465 H 0.48128 0.52797 0.98604 0.0
H466 H 0.47542 0.57053 0.0305 0.0
H467 H 0.44694 0.58754 0.07456 0.0
Mn468 Mn 0.84984 0.14404 0.07858 0.0
Mn469 Mn 0.83101 0.0796 0.02332 0.0
C470 C 0.79565 0.11872 0.06539 0.0
C471 C 0.85877 0.17824 0.12906 0.0
C472 C 0.83976 0.14359 1.00961 0.0
O473 O 0.89348 0.1302 0.07436 0.0
O474 O 0.87803 0.0927 0.03237 0.0
C475 C 0.85248 0.03828 0.06083 0.0
N476 N 0.82974 0.04535 0.04377 0.0
C477 C 0.79401 1.00096 0.05256 0.0
C478 C 0.81707 0.9933 0.07023 0.0
C479 C 0.84644 1.01205 0.07437 0.0
C480 C 0.80137 0.02745 0.0397 0.0
H481 H 0.87508 0.05246 0.0641 0.0
C482 C 0.89998 0.10983 0.05188 0.0
O483 O 0.86733 0.18702 0.10419 0.0
O484 O 0.84913 0.14833 0.12559 0.0
N485 N 0.78872 0.06253 1.01114 0.0
C486 C 0.76941 0.07191 0.99188 0.0
C487 C 0.73914 0.05548 0.9853 0.0
C488 C 0.72931 0.0291 0.99785 0.0
C489 C 0.74993 1.01896 0.01627 0.0
C490 C 0.77976 0.03641 0.02224 0.0
H491 H 0.77686 0.09207 0.98199 0.0
O492 O 0.80507 0.14766 0.07781 0.0
O493 O 0.81874 0.10432 0.06125 0.0
O494 O 0.85321 0.15603 0.03616 0.0
O495 O 0.82973 0.11429 1.00148 0.0
C496 C 0.742 0.99225 0.02898 0.0
C497 C 0.764 0.9833 0.0472 0.0
H498 H 0.81251 0.97306 0.08069 0.0
H499 H 0.86439 1.0063 0.08795 0.0
H500 H 0.72341 0.06319 0.97071 0.0
H501 H 0.70594 1.01675 0.99329 0.0
H502 H 0.71903 0.97843 0.02487 0.0
H503 H 0.75765 0.96273 0.05688 0.0
Mn504 Mn 0.22635 0.58664 0.23246 0.0
Mn505 Mn 0.29939 0.61089 0.26516 0.0
C506 C 0.24885 0.63885 0.24103 0.0
C507 C 0.19043 0.56595 0.19056 0.0
C508 C 0.24541 0.59836 0.30232 0.0
O509 O 0.24067 0.54616 0.22989 0.0
O510 O 0.2887 0.56522 0.2507 0.0
C511 C 0.32554 0.59589 0.20567 0.0
N512 N 0.32374 0.6167 0.23173 0.0
C513 C 0.35832 0.65704 0.21467 0.0
C514 C 0.36093 0.63584 0.1879 0.0
C515 C 0.34433 0.60514 0.18331 0.0
C516 C 0.33887 0.64652 0.23589 0.0
H517 H 0.31246 0.57258 0.20188 0.0
C518 C 0.26683 0.54266 0.23876 0.0
O519 O 0.18422 0.56345 0.21829 0.0
O520 O 0.21796 0.57928 0.18678 0.0
N521 N 0.31511 0.65413 0.28123 0.0
C522 C 0.31607 0.66908 0.3111 0.0
C523 C 0.33299 0.69952 0.32059 0.0
C524 C 0.35014 0.71375 0.2997 0.0
C525 C 0.35198 0.6966 0.27029 0.0
C526 C 0.33472 0.6662 0.26236 0.0
H527 H 0.30558 0.65722 0.32804 0.0
O528 O 0.21971 0.62947 0.23501 0.0
O529 O 0.26465 0.61717 0.2396 0.0
O530 O 0.22539 0.59039 0.27918 0.0
O531 O 0.27412 0.60648 0.30038 0.0
C532 C 0.37134 0.70788 0.24913 0.0
C533 C 0.37429 0.68818 0.22118 0.0
H534 H 0.37554 0.64288 0.1707 0.0
H535 H 0.34596 0.58867 0.16257 0.0
H536 H 0.33325 0.71176 0.3441 0.0
H537 H 0.36286 0.73727 0.30704 0.0
H538 H 0.38451 0.73146 0.25437 0.0
H539 H 0.38941 0.69702 0.20517 0.0
Mn540 Mn 0.8706 0.89286 0.55846 0.0
Mn541 Mn 0.87475 0.9538 0.52075 0.0
C542 C 0.91901 0.92696 0.55551 0.0
C543 C 0.86009 0.87261 0.60657 0.0
C544 C 0.86453 0.88631 0.48561 0.0
O545 O 0.82624 0.89803 0.55361 0.0
O546 O 0.83352 0.94179 0.53422 0.0
C547 C 0.86791 1.00111 0.57474 0.0
N548 N 0.8836 0.99183 0.55051 0.0
C549 C 0.91944 0.04074 0.56124 0.0
C550 C 0.9036 0.05087 0.58629 0.0
C551 C 0.87782 0.03088 0.59317 0.0
C552 C 0.90881 1.0106 0.54411 0.0
H553 H 0.84802 0.98587 0.57992 0.0
C554 C 0.81663 0.92029 0.54463 0.0
O555 O 0.85707 0.85506 0.57929 0.0
O556 O 0.87012 0.90171 0.60618 0.0
N557 N 0.91272 0.96888 0.50557 0.0
C558 C 0.92432 0.95625 0.47952 0.0
C559 C 0.94898 0.97394 0.46823 0.0
C560 C 0.96146 1.00449 0.4837 0.0
C561 C 0.94884 1.01722 0.51008 0.0
C562 C 0.92383 0.99871 0.51986 0.0
H563 H 0.91451 0.93303 0.46709 0.0
O564 O 0.91746 0.89993 0.56278 0.0
O565 O 0.89249 0.93334 0.5507 0.0
O566 O 0.86699 0.8738 0.50965 0.0
O567 O 0.86653 0.91558 0.4882 0.0
C568 C 0.95973 0.04777 0.52672 0.0
C569 C 0.94529 0.05938 0.55255 0.0
H570 H 0.91104 0.07391 0.60038 0.0
H571 H 0.86551 0.03847 0.61251 0.0
H572 H 0.95836 0.96405 0.44763 0.0
H573 H 0.98066 1.01796 0.47505 0.0
H574 H 0.97919 0.06253 0.51985 0.0
H575 H 0.95402 0.08281 0.56531 0.0
Mn576 Mn 0.96651 0.07382 0.2718 0.0
Mn577 Mn 0.91104 0.06907 0.3226 0.0
C578 C 0.93588 1.01988 0.2778 0.0
C579 C 0.99329 0.07566 0.21862 0.0
C580 C 0.97953 0.07888 0.34714 0.0
O581 O 0.95144 0.12163 0.27883 0.0
O582 O 0.91634 0.11358 0.31186 0.0
C583 C 0.85944 0.07238 0.27971 0.0
N584 N 0.87195 0.05734 0.29949 0.0
C585 C 0.82739 1.01605 0.29083 0.0
C586 C 0.81395 0.03137 0.27076 0.0
C587 C 0.8301 0.05959 0.26509 0.0
C588 C 0.85672 0.02992 0.30479 0.0
H589 H 0.87172 0.0939 0.27488 0.0
C590 C 0.92996 0.1323 0.2952 0.0
O591 O 1.00618 0.08503 0.24646 0.0
O592 O 0.96422 0.06714 0.22113 0.0
N593 N 0.90046 0.02986 0.33522 0.0
C594 C 0.91657 1.01755 0.35493 0.0
C595 C 0.90358 0.98917 0.36269 0.0
C596 C 0.87411 0.97368 0.35026 0.0
C597 C 0.85774 0.98692 0.33047 0.0
C598 C 0.8717 1.01551 0.32385 0.0
H599 H 0.93926 0.02906 0.36468 0.0
O600 O 0.96225 0.02482 0.26687 0.0
O601 O 0.92783 0.04717 0.28495 0.0
O602 O 0.98869 0.07895 0.31944 0.0
O603 O 0.95119 0.07904 0.35058 0.0
C604 C 0.82816 0.97273 0.3169 0.0
C605 C 0.81304 0.98724 0.29703 0.0
H606 H 0.79137 0.02151 0.25932 0.0
H607 H 0.82 0.07141 0.24938 0.0
H608 H 0.91636 0.97914 0.37805 0.0
H609 H 0.86431 0.9516 0.35601 0.0
H610 H 0.81692 0.95054 0.32141 0.0
H611 H 0.79041 0.97594 0.28648 0.0
Mn612 Mn 0.34566 0.64231 0.57438 0.0
Mn613 Mn 0.3295 0.5747 0.52255 0.0
C614 C 0.29228 0.61562 0.56127 0.0
C615 C 0.35375 0.67766 0.62409 0.0
C616 C 0.34113 0.6367 0.50359 0.0
O617 O 0.39021 0.63004 0.57099 0.0
O618 O 0.37591 0.58712 0.53407 0.0
C619 C 0.34607 0.53586 0.56528 0.0
N620 N 0.32511 0.54218 0.54547 0.0
C621 C 0.28723 0.49921 0.55372 0.0
C622 C 0.30847 0.49219 0.57413 0.0
C623 C 0.33801 0.51063 0.57996 0.0
C624 C 0.2966 0.52466 0.53979 0.0
H625 H 0.36874 0.54996 0.56986 0.0
C626 C 0.39733 0.60722 0.55169 0.0
O627 O 0.36163 0.68605 0.59881 0.0
O628 O 0.34542 0.64771 0.62138 0.0
N629 N 0.28752 0.55863 0.50828 0.0
C630 C 0.26978 0.56832 0.48779 0.0
C631 C 0.23939 0.55264 0.47988 0.0
C632 C 0.2278 0.52682 0.49264 0.0
C633 C 0.24674 0.51658 0.51276 0.0
C634 C 0.27677 0.53324 0.51995 0.0
H635 H 0.27853 0.58826 0.47808 0.0
O636 O 0.3008 0.64485 0.57298 0.0
O637 O 0.31591 0.60185 0.55815 0.0
O638 O 0.34741 0.65186 0.53121 0.0
O639 O 0.33261 0.60718 0.49729 0.0
C640 C 0.23688 0.49072 0.52627 0.0
C641 C 0.25709 0.48209 0.5468 0.0
H642 H 0.30232 0.47277 0.58552 0.0
H643 H 0.35451 0.50542 0.59574 0.0
H644 H 0.22489 0.56056 0.4642 0.0
H645 H 0.20429 0.51516 0.48706 0.0
H646 H 0.21372 0.47748 0.52122 0.0
H647 H 0.24919 0.4623 0.55723 0.0
Mn648 Mn 0.46248 0.5703 0.7707 0.0
Mn649 Mn 0.40543 0.56484 0.81949 0.0
C650 C 0.43175 0.51604 0.77622 0.0
C651 C 0.49012 0.57221 0.71788 0.0
C652 C 0.47381 0.57546 0.84665 0.0
O653 O 0.44683 0.61759 0.77655 0.0
O654 O 0.41216 0.60993 0.81007 0.0
C655 C 0.35572 0.57067 0.77559 0.0
N656 N 0.36671 0.55499 0.79573 0.0
C657 C 0.31963 0.51707 0.78841 0.0
C658 C 0.3077 0.53317 0.7681 0.0
C659 C 0.3259 0.55998 0.76153 0.0
C660 C 0.34949 0.5289 0.80186 0.0
H661 H 0.36953 0.59111 0.7701 0.0
C662 C 0.4256 0.62839 0.7931 0.0
O663 O 0.50245 0.58261 0.74587 0.0
O664 O 0.46116 0.5625 0.72002 0.0
N665 N 0.3928 0.52514 0.8306 0.0
C666 C 0.40894 0.50951 0.84661 0.0
C667 C 0.39429 0.48189 0.85477 0.0
C668 C 0.36343 0.46971 0.84505 0.0
C669 C 0.34763 0.48518 0.82706 0.0
C670 C 0.36321 0.51326 0.82061 0.0
H671 H 0.43317 0.51704 0.85139 0.0
O672 O 0.45866 0.52136 0.76643 0.0
O673 O 0.42325 0.54316 0.78258 0.0
O674 O 0.4838 0.57684 0.81936 0.0
O675 O 0.44489 0.5732 0.84847 0.0
C676 C 0.31731 0.47334 0.81448 0.0
C677 C 0.30334 0.48924 0.79512 0.0
H678 H 0.28478 0.5249 0.75704 0.0
H679 H 0.31699 0.57234 0.74558 0.0
H680 H 0.40706 0.46942 0.86752 0.0
H681 H 0.35241 0.44792 0.85062 0.0
H682 H 0.30475 0.45167 0.81902 0.0
H683 H 0.28023 0.47957 0.78506 0.0
Mn684 Mn 0.72859 0.07568 0.73411 0.0
Mn685 Mn 0.80184 0.09777 0.7668 0.0
C686 C 0.75322 0.12756 0.74228 0.0
C687 C 0.69164 0.05637 0.69287 0.0
C688 C 0.74713 0.08653 0.80375 0.0
O689 O 0.74179 0.03419 0.73063 0.0
O690 O 0.79034 0.05251 0.75042 0.0
C691 C 0.8285 0.0843 0.70735 0.0
N692 N 0.82684 0.10436 0.73397 0.0
C693 C 0.86209 0.1452 0.71837 0.0
C694 C 0.86469 0.12467 0.69111 0.0
C695 C 0.84765 0.09411 0.68549 0.0
C696 C 0.84231 0.13412 0.73908 0.0
H697 H 0.81492 0.06123 0.70269 0.0
C698 C 0.7683 0.03032 0.73799 0.0
O699 O 0.68589 0.05414 0.72073 0.0
O700 O 0.71932 0.06872 0.68844 0.0
N701 N 0.81824 0.14058 0.78428 0.0
C702 C 0.81978 0.15432 0.81459 0.0
C703 C 0.83664 0.18462 0.82499 0.0
C704 C 0.85373 0.19967 0.80459 0.0
C705 C 0.85561 0.18338 0.77479 0.0
C706 C 0.83807 0.15319 0.76591 0.0
H707 H 0.80977 0.14155 0.83116 0.0
O708 O 0.7239 0.11936 0.73717 0.0
O709 O 0.76783 0.10503 0.74097 0.0
O710 O 0.72734 0.07943 0.78057 0.0
O711 O 0.77597 0.09306 0.80178 0.0
C712 C 0.87528 0.19524 0.75413 0.0
C713 C 0.87831 0.17623 0.7258 0.0
H714 H 0.87954 0.13217 0.67428 0.0
H715 H 0.84916 0.07819 0.66432 0.0
H716 H 0.83705 0.19606 0.8488 0.0
H717 H 0.86642 0.22305 0.81272 0.0
H718 H 0.88867 0.21867 0.76 0.0
H719 H 0.89366 0.1855 0.71019 0.0
Mn720 Mn 0.79831 0.728 0.0232 0.0
Mn721 Mn 0.79227 0.66429 0.96586 0.0
C722 C 0.74985 0.69311 1.00683 0.0
C723 C 0.80728 0.75047 0.07885 0.0
C724 C 0.80787 0.73069 0.95334 0.0
O725 O 0.84161 0.71972 0.02282 0.0
O726 O 0.83272 0.67302 0.98994 0.0
C727 C 0.79436 0.61439 1.00089 0.0
N728 N 0.77911 0.62686 0.98072 0.0
C729 C 0.73671 0.58334 0.97304 0.0
C730 C 0.75169 0.57043 0.99427 0.0
C731 C 0.78071 0.58597 1.00814 0.0
C732 C 0.75144 0.61177 0.96676 0.0
H733 H 0.81679 0.62599 1.01132 0.0
C734 C 0.84971 0.6948 1.01011 0.0
O735 O 0.81202 0.7671 0.05781 0.0
O736 O 0.79713 0.72125 0.06773 0.0
N737 N 0.75343 0.65373 0.94237 0.0
C738 C 0.7417 0.66955 0.92286 0.0
C739 C 0.71296 0.65688 0.90678 0.0
C740 C 0.6966 0.62807 0.91086 0.0
C741 C 0.70913 0.61218 0.93102 0.0
C742 C 0.73794 0.62589 0.94631 0.0
H743 H 0.7541 0.6917 0.91959 0.0
O744 O 0.75156 0.72175 0.02059 0.0
O745 O 0.77624 0.68707 1.00125 0.0
O746 O 0.80341 0.74457 0.9807 0.0
O747 O 0.80547 0.70122 0.94675 0.0
C748 C 0.69392 0.58356 0.93694 0.0
C749 C 0.70767 0.56918 0.958 0.0
H750 H 0.74119 0.54855 0.99998 0.0
H751 H 0.79256 0.57604 0.02435 0.0
H752 H 0.70339 0.66934 0.89136 0.0
H753 H 0.67433 0.61849 0.89861 0.0
H754 H 0.6715 0.57255 0.92566 0.0
H755 H 0.69565 0.54729 0.96254 0.0
Mn756 Mn 0.94253 0.5292 0.8155 0.0
Mn757 Mn 0.90344 0.55322 0.87488 0.0
C758 C 0.9152 0.49357 0.84047 0.0
C759 C 0.94545 0.51138 0.76341 0.0
C760 C 0.97226 0.5607 0.88032 0.0
O761 O 0.93822 0.57173 0.80927 0.0
O762 O 0.91048 0.58499 0.84836 0.0
C763 C 0.84553 0.55229 0.83934 0.0
N764 N 0.86097 0.54207 0.86126 0.0
C765 C 0.81544 0.5077 0.87001 0.0
C766 C 0.79909 0.5179 0.84758 0.0
C767 C 0.8142 0.54031 0.83221 0.0
C768 C 0.84661 0.52056 0.87625 0.0
H769 H 0.85702 0.56929 0.8272 0.0
C770 C 0.92359 0.59035 0.82426 0.0
O771 O 0.96968 0.52448 0.78187 0.0
O772 O 0.9194 0.50949 0.77486 0.0
N773 N 0.89428 0.52389 0.9012 0.0
C774 C 0.91319 0.51686 0.92261 0.0
C775 C 0.90153 0.49487 0.94009 0.0
C776 C 0.87055 0.4805 0.93555 0.0
C777 C 0.85137 0.48872 0.91399 0.0
C778 C 0.8642 0.51108 0.89751 0.0
H779 H 0.93707 0.52769 0.92614 0.0
O780 O 0.93805 0.48709 0.82574 0.0
O781 O 0.91023 0.52122 0.84132 0.0
O782 O 0.97405 0.54879 0.85223 0.0
O783 O 0.94703 0.56414 0.89114 0.0
C784 C 0.82005 0.47551 0.90812 0.0
C785 C 0.8021 0.48496 0.88612 0.0
H786 H 0.77496 0.50858 0.84188 0.0
H787 H 0.80176 0.54822 0.81478 0.0
H788 H 0.91646 0.48882 0.95684 0.0
H789 H 0.86171 0.4633 0.94884 0.0
H790 H 0.80954 0.458 0.92035 0.0
H791 H 0.77808 0.47451 0.88168 0.0
Mn792 Mn 0.82952 0.47897 0.52361 0.0
Mn793 Mn 0.83584 0.52868 0.47618 0.0
C794 C 0.88037 0.50078 0.51228 0.0
C795 C 0.8289 0.46416 0.57143 0.0
C796 C 0.81915 0.45753 0.45237 0.0
O797 O 0.7861 0.4921 0.52502 0.0
O798 O 0.79298 0.52613 0.49373 0.0
C799 C 0.83406 0.58823 0.51777 0.0
N800 N 0.84963 0.57026 0.4992 0.0
C801 C 0.89441 0.61133 0.50843 0.0
C802 C 0.87923 0.6296 0.52885 0.0
C803 C 0.84877 0.61813 0.53323 0.0
C804 C 0.87851 0.58166 0.4937 0.0
H805 H 0.81042 0.58012 0.52014 0.0
C806 C 0.77604 0.51229 0.51216 0.0
O807 O 0.81591 0.44538 0.54643 0.0
O808 O 0.83911 0.49285 0.56942 0.0
N809 N 0.87455 0.5348 0.45926 0.0
C810 C 0.8856 0.51507 0.43755 0.0
C811 C 0.91523 0.52383 0.42919 0.0
C812 C 0.93334 0.55275 0.44323 0.0
C813 C 0.92145 0.57287 0.4652 0.0
C814 C 0.89164 0.56297 0.47245 0.0
H815 H 0.87224 0.49253 0.42706 0.0
O816 O 0.87346 0.47468 0.52121 0.0
O817 O 0.85643 0.51383 0.50996 0.0
O818 O 0.81974 0.45191 0.47951 0.0
O819 O 0.82348 0.4858 0.4488 0.0
C820 C 0.93811 0.60229 0.48031 0.0
C821 C 0.92459 0.62152 0.50189 0.0
H822 H 0.89052 0.6527 0.54077 0.0
H823 H 0.83657 0.63241 0.54826 0.0
H824 H 0.92424 0.50812 0.41223 0.0
H825 H 0.95631 0.55929 0.43696 0.0
H826 H 0.9613 0.61041 0.47539 0.0
H827 H 0.93753 0.64421 0.51316 0.0
Mn828 Mn 0.70736 0.552 0.27562 0.0
Mn829 Mn 0.76435 0.57011 0.33281 0.0
C830 C 0.73799 0.60873 0.29117 0.0
C831 C 0.68111 0.54515 0.21851 0.0
C832 C 0.69603 0.5569 0.35048 0.0
O833 O 0.72494 0.50556 0.27513 0.0
O834 O 0.76125 0.52279 0.31408 0.0
C835 C 0.81494 0.56299 0.29354 0.0
N836 N 0.80267 0.58037 0.31622 0.0
C837 C 0.84491 0.62358 0.32011 0.0
C838 C 0.85883 0.60537 0.29826 0.0
C839 C 0.84359 0.57506 0.28465 0.0
C840 C 0.81661 0.61002 0.32861 0.0
H841 H 0.80269 0.54031 0.28183 0.0
C842 C 0.74785 0.49949 0.29244 0.0
O843 O 0.66787 0.53763 0.24213 0.0
O844 O 0.71021 0.55271 0.22678 0.0
N845 N 0.77214 0.61317 0.3525 0.0
C846 C 0.75317 0.62957 0.36799 0.0
C847 C 0.76372 0.66116 0.381 0.0
C848 C 0.7933 0.67597 0.37694 0.0
C849 C 0.8119 0.6591 0.35955 0.0
C850 C 0.80045 0.6274 0.34786 0.0
H851 H 0.72983 0.61893 0.3696 0.0
O852 O 0.70989 0.60061 0.27976 0.0
O853 O 0.74656 0.58296 0.29546 0.0
O854 O 0.68593 0.55241 0.32114 0.0
O855 O 0.72527 0.56144 0.35568 0.0
C856 C 0.84084 0.67284 0.35229 0.0
C857 C 0.85734 0.65509 0.33259 0.0
H858 H 0.88066 0.61483 0.2909 0.0
H859 H 0.85364 0.56125 0.26691 0.0
H860 H 0.7488 0.67428 0.39342 0.0
H861 H 0.80109 0.70054 0.38635 0.0
H862 H 0.85024 0.69728 0.36101 0.0
H863 H 0.87918 0.66615 0.32644 0.0
Eu864 Eu 0.10518 0.09676 0.04123 0.0
Eu865 Eu 0.07471 0.03018 0.02299 0.0
C866 C 0.11482 0.05946 0.96777 0.0
C867 C 0.12132 0.18323 0.06913 0.0
C868 C 0.13459 0.20999 0.05893 0.0
C869 C 0.07574 0.20344 0.07817 0.0
C870 C 0.11727 0.2317 0.05516 0.0
C871 C 0.09288 0.18116 0.0812 0.0
C872 C 0.08685 0.22687 0.06214 0.0
C873 C 0.13134 0.15495 0.05646 0.0
O874 O 0.12585 0.02493 0.02958 0.0
O875 O 0.14883 0.07543 0.0429 0.0
C876 C 0.15162 0.04618 0.03452 0.0
O877 O 0.08128 0.09242 0.08783 0.0
O878 O 0.07352 0.98214 0.99998 0.0
O879 O 0.03906 0.99158 0.02951 0.0
O880 O 0.06292 0.04095 0.07599 0.0
C881 C 0.06454 0.06766 0.09617 0.0
O882 O 0.05338 0.10112 0.03771 0.0
O883 O 0.03131 0.05124 0.01609 0.0
O884 O 0.09404 0.03608 0.97427 0.0
O885 O 0.13321 0.13531 0.07458 0.0
O886 O 0.11787 0.1416 0.02907 0.0
O887 O 0.12043 0.08543 0.9897 0.0
C888 C 0.0669 0.95595 0.0404 0.0
C889 C 0.08701 0.97523 0.06471 0.0
C890 C 0.07611 0.91109 0.05943 0.0
C891 C 0.10158 0.96281 0.08607 0.0
C892 C 0.06124 0.92372 0.03787 0.0
C893 C 0.09649 0.93076 0.08337 0.0
C894 C 0.0541 0.97102 0.01777 0.0
C895 C 0.02784 0.07976 0.02835 0.0
H896 H 0.15655 0.21186 0.04963 0.0
H897 H 0.05247 0.19988 0.08422 0.0
H898 H 0.12642 0.25013 0.04338 0.0
H899 H 0.08233 0.16048 0.08911 0.0
H900 H 0.09222 1.00007 0.0668 0.0
H901 H 0.07232 0.88612 0.05714 0.0
H902 H 0.11747 0.97814 0.10422 0.0
H903 H 0.04601 0.90852 0.01913 0.0
Eu904 Eu 0.33429 0.83755 0.28792 0.0
Eu905 Eu 0.29956 0.81698 0.34749 0.0
C906 C 0.26272 0.83864 0.29623 0.0
C907 C 0.35486 0.87667 0.21997 0.0
C908 C 0.33761 0.89954 0.22776 0.0
C909 C 0.36194 0.892 0.17069 0.0
C910 C 0.33261 0.91857 0.20705 0.0
C911 C 0.36706 0.87316 0.1914 0.0
C912 C 0.34451 0.91468 0.17822 0.0
C913 C 0.35975 0.85578 0.2409 0.0
O914 O 0.28201 0.7827 0.3035 0.0
O915 O 0.32612 0.78519 0.28057 0.0
C916 C 0.2995 0.76939 0.28502 0.0
O917 O 0.37096 0.83554 0.32363 0.0
O918 O 0.26528 0.78516 0.3662 0.0
O919 O 0.29957 0.81895 0.39706 0.0
O920 O 0.34155 0.79736 0.34287 0.0
C921 C 0.36815 0.81377 0.33992 0.0
O922 O 0.32393 0.88023 0.31669 0.0
O923 O 0.32509 0.86635 0.36371 0.0
O924 O 0.26677 0.84071 0.32621 0.0
O925 O 0.36897 0.86877 0.26956 0.0
O926 O 0.3388 0.83062 0.23844 0.0
O927 O 0.28397 0.83366 0.27765 0.0
C928 C 0.2885 0.76836 0.40718 0.0
C929 C 0.3168 0.76075 0.40131 0.0
C930 C 0.27949 0.72857 0.43824 0.0
C931 C 0.32639 0.73744 0.4137 0.0
C932 C 0.26971 0.75183 0.42546 0.0
C933 C 0.30806 0.72146 0.43262 0.0
C934 C 0.27902 0.7934 0.39396 0.0
C935 C 0.32817 0.88766 0.34685 0.0
H936 H 0.3279 0.90251 0.24972 0.0
H937 H 0.3714 0.88876 0.14863 0.0
H938 H 0.31923 0.93604 0.2133 0.0
H939 H 0.38038 0.85565 0.185 0.0
H940 H 0.33179 0.77308 0.38747 0.0
H941 H 0.26502 0.7164 0.45279 0.0
H942 H 0.3485 0.73235 0.40912 0.0
H943 H 0.24772 0.75714 0.43014 0.0
Eu944 Eu 0.60018 0.03278 0.51819 0.0
Eu945 Eu 0.54366 0.05111 0.5583 0.0
C946 C 0.6002 0.03417 0.59178 0.0
C947 C 0.66721 0.99537 0.50082 0.0
C948 C 0.65932 0.9755 0.52156 0.0
C949 C 0.71675 0.9813 0.49932 0.0
C950 C 0.68011 0.95889 0.53134 0.0
C951 C 0.696 0.99795 0.48962 0.0
C952 C 0.7091 0.96191 0.52049 0.0
C953 C 0.6462 1.01458 0.49212 0.0
O954 O 0.58558 0.08875 0.57021 0.0
O955 O 0.60389 0.08494 0.52318 0.0
C956 C 0.59996 0.1019 0.54967 0.0
O957 O 0.5622 0.03191 0.48219 0.0
O958 O 0.52693 0.08412 0.59279 0.0
O959 O 0.49527 0.04482 0.56564 0.0
O960 O 0.54068 0.06683 0.51327 0.0
C961 C 0.54335 0.05102 0.486 0.0
O962 O 0.57368 0.98963 0.53119 0.0
O963 O 0.52748 1.00263 0.53121 0.0
O964 O 0.57028 0.03008 0.59037 0.0
O965 O 0.61789 1.00041 0.48421 0.0
O966 O 0.64842 0.04151 0.51035 0.0
O967 O 0.61571 0.0404 0.56859 0.0
C968 C 0.47887 0.09309 0.57548 0.0
C969 C 0.45234 0.08137 0.55515 0.0
C970 C 0.46911 0.14533 0.57832 0.0
C971 C 0.43463 0.10132 0.54632 0.0
C972 C 0.48676 0.12534 0.5873 0.0
C973 C 0.44287 0.13346 0.55774 0.0
C974 C 0.49842 0.07191 0.58381 0.0
C975 C 0.54386 0.98138 0.52831 0.0
H976 H 0.6372 0.97314 0.53047 0.0
H977 H 0.73901 0.9839 0.49068 0.0
H978 H 0.67378 0.94403 0.54763 0.0
H979 H 0.70258 1.01319 0.47372 0.0
H980 H 0.4452 0.0567 0.54598 0.0
H981 H 0.47575 0.17003 0.58763 0.0
H982 H 0.41433 0.09164 0.53065 0.0
H983 H 0.50671 0.1352 0.6034 0.0
Eu984 Eu 0.30304 0.31929 0.78653 0.0
Eu985 Eu 0.36527 0.30159 0.78479 0.0
C986 C 0.30451 0.24361 0.79165 0.0
C987 C 0.22904 0.33263 0.81653 0.0
C988 C 0.23686 0.32267 0.84356 0.0
C989 C 0.18046 0.33862 0.83501 0.0
C990 C 0.21656 0.32081 0.86629 0.0
C991 C 0.20081 0.34067 0.81241 0.0
C992 C 0.18817 0.32858 0.86197 0.0
C993 C 0.25043 0.33505 0.79285 0.0
O994 O 0.34963 0.2915 0.73295 0.0
O995 O 0.30443 0.30707 0.73392 0.0
C996 C 0.32498 0.29539 0.71811 0.0
O997 O 0.3344 0.36837 0.78265 0.0
O998 O 0.39189 0.26565 0.77602 0.0
O999 O 0.41495 0.31369 0.7894 0.0
O1000 O 0.38013 0.35459 0.77975 0.0
C1001 C 0.36441 0.37719 0.78049 0.0
O1002 O 0.31741 0.32555 0.83814 0.0
O1003 O 0.3669 0.3215 0.83676 0.0
O1004 O 0.33476 0.25347 0.79219 0.0
O1005 O 0.27643 0.35404 0.80195 0.0
O1006 O 0.25366 0.30891 0.7762 0.0
O1007 O 0.28817 0.26531 0.7893 0.0
C1008 C 0.43456 0.28249 0.7504 0.0
C1009 C 0.46626 0.29188 0.75394 0.0
C1010 C 0.43589 0.26966 0.69474 0.0
C1011 C 0.48272 0.2898 0.72814 0.0
C1012 C 0.41939 0.27178 0.7206 0.0
C1013 C 0.46766 0.27839 0.6985 0.0
C1014 C 0.41745 0.28558 0.77767 0.0
C1015 C 0.34444 0.32863 0.8527 0.0
H1016 H 0.2586 0.31632 0.84705 0.0
H1017 H 0.15858 0.34472 0.83144 0.0
H1018 H 0.22279 0.31306 0.88701 0.0
H1019 H 0.19451 0.34846 0.79173 0.0
H1020 H 0.47826 0.30056 0.77666 0.0
H1021 H 0.42406 0.26043 0.67203 0.0
H1022 H 0.50734 0.29631 0.73131 0.0
H1023 H 0.39486 0.26464 0.7173 0.0
Eu1024 Eu 0.07291 0.08765 0.54766 0.0
Eu1025 Eu 0.09572 0.03051 0.51423 0.0
C1026 C 0.13942 0.09672 0.51614 0.0
C1027 C 0.07327 0.1683 0.5507 0.0
C1028 C 0.08558 0.16059 0.52256 0.0
C1029 C 0.08382 0.2224 0.54523 0.0
C1030 C 0.0965 0.18302 0.50578 0.0
C1031 C 0.07251 0.19954 0.56213 0.0
C1032 C 0.09596 0.21406 0.51693 0.0
C1033 C 0.06279 0.14296 0.56733 0.0
O1034 O 0.11912 0.03693 0.56533 0.0
O1035 O 0.09481 0.07228 0.59132 0.0
C1036 C 0.11435 0.05321 0.5926 0.0
O1037 O 0.032 0.04938 0.55192 0.0
O1038 O 0.12813 0.99992 0.50614 0.0
O1039 O 0.08235 0.98481 0.48396 0.0
O1040 O 0.05568 1.0092 0.53806 0.0
C1041 C 0.03159 1.01933 0.54727 0.0
O1042 O 0.05038 0.08295 0.49669 0.0
O1043 O 0.07039 0.04425 0.47103 0.0
O1044 O 0.13479 0.06691 0.50429 0.0
O1045 O 0.0419 0.12008 0.55193 0.0
O1046 O 0.08458 0.13264 0.57973 0.0
O1047 O 0.11969 0.10782 0.53336 0.0
C1048 C 0.10039 0.95041 0.51114 0.0
C1049 C 0.11877 0.95157 0.53822 0.0
C1050 C 0.06353 0.90835 0.52466 0.0
C1051 C 0.10928 0.932 0.55856 0.0
C1052 C 0.07303 0.92795 0.50423 0.0
C1053 C 0.08129 0.91077 0.5523 0.0
C1054 C 0.10647 0.9761 0.49388 0.0
C1055 C 0.05283 0.06518 0.46955 0.0
H1056 H 0.08647 0.13688 0.51319 0.0
H1057 H 0.08312 0.24642 0.55413 0.0
H1058 H 0.10512 0.17615 0.48379 0.0
H1059 H 0.06337 0.20618 0.58391 0.0
H1060 H 0.13987 0.9686 0.54453 0.0
H1061 H 0.04203 0.89182 0.51928 0.0
H1062 H 0.12346 0.9339 0.57961 0.0
H1063 H 0.05823 0.92655 0.48374 0.0
Eu1064 Eu 0.36592 0.83103 0.7883 0.0
Eu1065 Eu 0.30633 0.79204 0.79473 0.0
C1066 C 0.33544 0.85018 0.85099 0.0
C1067 C 0.44027 0.88895 0.80916 0.0
C1068 C 0.43265 0.89589 0.83974 0.0
C1069 C 0.49246 0.89455 0.82779 0.0
C1070 C 0.4549 0.9003 0.86435 0.0
C1071 C 0.47073 0.89131 0.80346 0.0
C1072 C 0.4846 0.89769 0.85816 0.0
C1073 C 0.41858 0.86679 0.78614 0.0
O1074 O 0.28802 0.83937 0.78932 0.0
O1075 O 0.33284 0.86764 0.78081 0.0
C1076 C 0.30308 0.86744 0.78501 0.0
O1077 O 0.35972 0.79784 0.74178 0.0
O1078 O 0.27544 0.7696 0.82442 0.0
O1079 O 0.26473 0.76043 0.77474 0.0
O1080 O 0.31083 0.7744 0.74353 0.0
C1081 C 0.33615 0.77586 0.72977 0.0
O1082 O 0.38256 0.78204 0.78969 0.0
O1083 O 0.33908 0.75558 0.80259 0.0
O1084 O 0.3105 0.83198 0.83634 0.0
O1085 O 0.41481 0.83886 0.79146 0.0
O1086 O 0.39301 0.87385 0.778 0.0
O1087 O 0.36153 0.84713 0.83993 0.0
C1088 C 0.22421 0.7613 0.8036 0.0
C1089 C 0.20076 0.73608 0.79046 0.0
C1090 C 0.19297 0.79688 0.79255 0.0
C1091 C 0.17466 0.74125 0.77593 0.0
C1092 C 0.21927 0.79168 0.80687 0.0
C1093 C 0.17181 0.77167 0.77503 0.0
C1094 C 0.25507 0.7565 0.80124 0.0
C1095 C 0.36797 0.7547 0.79581 0.0
H1096 H 0.40913 0.89369 0.84458 0.0
H1097 H 0.51433 0.88962 0.82268 0.0
H1098 H 0.44823 0.902 0.88763 0.0
H1099 H 0.47695 0.88508 0.78017 0.0
H1100 H 0.20438 0.71255 0.7876 0.0
H1101 H 0.19084 0.82045 0.79222 0.0
H1102 H 0.15818 0.72159 0.76283 0.0
H1103 H 0.23733 0.81141 0.81677 0.0
Eu1104 Eu 0.58813 0.04779 0.06705 0.0
Eu1105 Eu 0.58903 0.07786 1.00754 0.0
C1106 C 0.56907 0.11356 0.0726 0.0
C1107 C 0.55449 1.01027 0.1302 0.0
C1108 C 0.56047 1.01441 0.16217 0.0
C1109 C 0.50018 0.99784 0.13563 0.0
C1110 C 0.53652 1.01093 0.18082 0.0
C1111 C 0.52416 1.00169 0.11696 0.0
C1112 C 0.5063 1.00317 0.16771 0.0
C1113 C 0.57989 1.01721 0.11137 0.0
O1114 O 0.64069 0.08606 0.02549 0.0
O1115 O 0.64016 0.06886 0.07079 0.0
C1116 C 0.65601 0.08137 0.0501 0.0
O1117 O 0.61492 0.02113 0.03423 0.0
O1118 O 0.60525 0.11949 0.98935 0.0
O1119 O 0.58171 0.07717 0.95836 0.0
O1120 O 0.59457 0.02902 0.98923 0.0
C1121 C 0.6113 1.01468 1.00412 0.0
O1122 O 0.53656 0.03708 0.04718 0.0
O1123 O 0.53709 0.05797 1.00379 0.0
O1124 O 0.5674 0.1092 0.04232 0.0
O1125 O 0.57527 1.00398 0.08219 0.0
O1126 O 0.59366 0.04637 0.11587 0.0
O1127 O 0.58166 0.0958 0.08739 0.0
C1128 C 0.6245 0.10598 0.94126 0.0
C1129 C 0.65402 0.10681 0.95397 0.0
C1130 C 0.64256 0.09983 0.89029 0.0
C1131 C 0.67732 0.10306 0.93493 0.0
C1132 C 0.61902 0.10282 0.90931 0.0
C1133 C 0.6717 0.09941 0.90296 0.0
C1134 C 0.59891 0.1047 0.96072 0.0
C1135 C 0.52148 0.04293 0.02293 0.0
H1136 H 0.58365 0.02114 0.17277 0.0
H1137 H 0.47693 0.99172 0.12524 0.0
H1138 H 0.54152 1.01498 0.20558 0.0
H1139 H 0.51895 0.99861 0.09232 0.0
H1140 H 0.65889 0.10918 0.97852 0.0
H1141 H 0.63789 0.09706 0.8656 0.0
H1142 H 0.69967 0.10281 0.94508 0.0
H1143 H 0.59641 0.10188 0.89903 0.0
Eu1144 Eu 0.35318 0.33816 0.30219 0.0
Eu1145 Eu 0.32101 0.27094 0.26444 0.0
C1146 C 0.33971 0.32694 0.22665 0.0
C1147 C 0.35305 0.41907 0.31167 0.0
C1148 C 0.33361 0.40681 0.28461 0.0
C1149 C 0.34156 0.46963 0.31073 0.0
C1150 C 0.31836 0.42536 0.27066 0.0
C1151 C 0.35703 0.45071 0.32484 0.0
C1152 C 0.3221 0.4568 0.28359 0.0
C1153 C 0.36723 0.39733 0.32554 0.0
O1154 O 0.37015 0.27635 0.25523 0.0
O1155 O 0.39444 0.3169 0.29351 0.0
C1156 C 0.39502 0.29511 0.26919 0.0
O1157 O 0.34297 0.31138 0.34167 0.0
O1158 O 0.31169 0.23688 0.22092 0.0
O1159 O 0.29394 0.22422 0.26184 0.0
O1160 O 0.33504 0.26217 0.31288 0.0
C1161 C 0.33705 0.281 0.34031 0.0
O1162 O 0.30359 0.33558 0.2887 0.0
O1163 O 0.28492 0.287 0.29221 0.0
O1164 O 0.31695 0.30422 0.23008 0.0
O1165 O 0.34821 0.37779 0.33729 0.0
O1166 O 0.38466 0.38317 0.308 0.0
O1167 O 0.35921 0.3392 0.251 0.0
C1168 C 0.32053 0.19037 0.23389 0.0
C1169 C 0.3514 0.19804 0.22844 0.0
C1170 C 0.33173 0.14938 0.25869 0.0
C1171 C 0.37246 0.18311 0.2401 0.0
C1172 C 0.31059 0.16462 0.24737 0.0
C1173 C 0.36298 0.15992 0.25682 0.0
C1174 C 0.30185 0.21409 0.23465 0.0
C1175 C 0.28219 0.31576 0.29757 0.0
H1176 H 0.33007 0.38258 0.27408 0.0
H1177 H 0.34451 0.49403 0.32098 0.0
H1178 H 0.30343 0.41512 0.24981 0.0
H1179 H 0.37171 0.46058 0.34589 0.0
H1180 H 0.3599 0.21763 0.21795 0.0
H1181 H 0.32403 0.13135 0.27144 0.0
H1182 H 0.39639 0.19113 0.23794 0.0
H1183 H 0.28702 0.1584 0.25202 0.0
Eu1184 Eu 0.57353 0.59024 0.04414 0.0
Eu1185 Eu 0.59531 0.53112 1.01319 0.0
C1186 C 0.6399 0.59742 1.0132 0.0
C1187 C 0.57147 0.67038 0.04367 0.0
C1188 C 0.58236 0.6625 1.0147 0.0
C1189 C 0.57985 0.72418 0.03727 0.0
C1190 C 0.59188 0.68488 0.99725 0.0
C1191 C 0.57034 0.70153 0.05493 0.0
C1192 C 0.59078 0.71591 1.0083 0.0
C1193 C 0.56301 0.64569 0.06174 0.0
O1194 O 0.61793 0.53764 0.0644 0.0
O1195 O 0.59685 0.57669 0.08867 0.0
C1196 C 0.61477 0.55612 0.09097 0.0
O1197 O 0.53198 0.55224 0.04836 0.0
O1198 O 0.62579 0.4983 1.00674 0.0
O1199 O 0.58089 0.48575 0.98251 0.0
O1200 O 0.55655 0.5122 0.03984 0.0
C1201 C 0.53195 0.52248 0.04676 0.0
O1202 O 0.55298 0.58575 0.9926 0.0
O1203 O 0.56815 0.5424 0.9695 0.0
O1204 O 0.63636 0.56703 1.00509 0.0
O1205 O 0.54189 0.62201 0.04822 0.0
O1206 O 0.58591 0.6366 0.07369 0.0
O1207 O 0.61881 0.6097 0.02697 0.0
C1208 C 0.59476 0.44943 1.00969 0.0
C1209 C 0.56928 0.42556 0.99793 0.0
C1210 C 0.59603 0.42949 0.05727 0.0
C1211 C 0.55707 0.40423 0.01581 0.0
C1212 C 0.60817 0.45088 0.03951 0.0
C1213 C 0.57016 0.4063 0.04574 0.0
C1214 C 0.60359 0.47553 0.99336 0.0
C1215 C 0.55323 0.5652 0.96674 0.0
H1216 H 0.58375 0.63892 1.00544 0.0
H1217 H 0.57874 0.74809 0.04616 0.0
H1218 H 0.60009 0.67795 0.975 0.0
H1219 H 0.56229 0.70832 0.07726 0.0
H1220 H 0.55814 0.42409 0.97531 0.0
H1221 H 0.60663 0.43122 0.0802 0.0
H1222 H 0.53726 0.38627 1.00641 0.0
H1223 H 0.62748 0.46914 0.04963 0.0
Eu1224 Eu 0.86969 0.3354 0.29202 0.0
Eu1225 Eu 0.81032 0.29611 0.29393 0.0
C1226 C 0.83554 0.35382 0.35194 0.0
C1227 C 0.9519 0.36657 0.2853 0.0
C1228 C 0.95685 0.33658 0.28509 0.0
C1229 C 1.00366 0.38834 0.30657 0.0
C1230 C 0.98422 0.33277 0.29837 0.0
C1231 C 0.97601 0.3922 0.29402 0.0
C1232 C 1.00713 0.35887 0.31076 0.0
C1233 C 0.92116 0.37175 0.28794 0.0
O1234 O 0.79075 0.34238 0.28701 0.0
O1235 O 0.83636 0.37153 0.28402 0.0
C1236 C 0.80613 0.37111 0.28498 0.0
O1237 O 0.8681 0.29554 0.25083 0.0
O1238 O 0.77838 0.27246 0.32208 0.0
O1239 O 0.77086 0.26268 0.27202 0.0
O1240 O 0.81727 0.28238 0.24277 0.0
C1241 C 0.8439 0.27844 0.23384 0.0
O1242 O 0.8884 0.28804 0.29636 0.0
O1243 O 0.843 0.2592 0.30152 0.0
O1244 O 0.81147 0.33571 0.33545 0.0
O1245 O 0.90107 0.35993 0.26422 0.0
O1246 O 0.91095 0.36653 0.3139 0.0
O1247 O 0.8624 0.35087 0.34293 0.0
C1248 C 0.72794 0.25785 0.29742 0.0
C1249 C 0.70912 0.23293 0.27721 0.0
C1250 C 0.69224 0.29047 0.2902 0.0
C1251 C 0.68459 0.23804 0.26025 0.0
C1252 C 0.71838 0.28605 0.30566 0.0
C1253 C 0.67704 0.26743 0.2653 0.0
C1254 C 0.76013 0.25758 0.29777 0.0
C1255 C 0.87296 0.25952 0.29878 0.0
H1256 H 0.93837 0.31655 0.27831 0.0
H1257 H 0.02082 0.40874 0.31641 0.0
H1258 H 0.9865 0.30984 0.3013 0.0
H1259 H 0.97235 0.41551 0.29471 0.0
H1260 H 0.71629 0.21106 0.27061 0.0
H1261 H 0.68619 0.31302 0.29502 0.0
H1262 H 0.67316 0.21968 0.24142 0.0
H1263 H 0.73286 0.30563 0.32116 0.0
Eu1264 Eu 0.08558 0.54425 0.56461 0.0
Eu1265 Eu 0.08558 0.57076 0.50328 0.0
C1266 C 0.06753 0.60934 0.56703 0.0
C1267 C 0.04963 0.50631 0.62633 0.0
C1268 C 0.0225 0.51527 0.61902 0.0
C1269 C 0.0248 0.47954 0.66377 0.0
C1270 C 0.99659 0.50644 0.63393 0.0
C1271 C 0.05068 0.48849 0.64883 0.0
C1272 C 0.99669 0.48746 0.65611 0.0
C1273 C 0.07654 0.51496 0.60998 0.0
O1274 O 0.13738 0.57997 0.52118 0.0
O1275 O 0.13759 0.56486 0.56759 0.0
C1276 C 0.15306 0.57647 0.54616 0.0
O1277 O 0.11167 0.51609 0.53212 0.0
O1278 O 0.10005 0.61175 0.48372 0.0
O1279 O 0.07825 0.56796 0.45378 0.0
O1280 O 0.08977 0.52129 0.48671 0.0
C1281 C 0.10717 0.50801 0.50206 0.0
O1282 O 0.03373 0.5347 0.54608 0.0
O1283 O 0.03364 0.55271 0.50108 0.0
O1284 O 0.06278 0.60147 0.5369 0.0
O1285 O 0.07423 0.50103 0.58112 0.0
O1286 O 0.0883 0.54464 0.614 0.0
O1287 O 0.08257 0.59394 0.58248 0.0
C1288 C 0.11981 0.59788 0.43624 0.0
C1289 C 0.14939 0.59955 0.44929 0.0
C1290 C 0.13858 0.59424 0.38575 0.0
C1291 C 0.17326 0.59802 0.43069 0.0
C1292 C 0.11454 0.5952 0.40436 0.0
C1293 C 0.16797 0.59554 0.39888 0.0
C1294 C 0.09418 0.59596 0.45541 0.0
C1295 C 1.01833 0.53995 0.52177 0.0
H1296 H 0.02136 0.52942 0.6019 0.0
H1297 H 0.02763 0.46725 0.68213 0.0
H1298 H 0.97717 0.51562 0.62814 0.0
H1299 H 0.07163 0.48174 0.65513 0.0
H1300 H 0.15401 0.60148 0.4738 0.0
H1301 H 0.13433 0.59246 0.36115 0.0
H1302 H 0.1959 0.59924 0.44109 0.0
H1303 H 0.09184 0.59355 0.39388 0.0
Eu1304 Eu 0.80779 0.82298 0.28357 0.0
Eu1305 Eu 0.86977 0.80443 0.28277 0.0
C1306 C 0.80743 0.74745 0.28912 0.0
C1307 C 0.73402 0.84773 0.3072 0.0
C1308 C 0.72067 0.82378 0.32165 0.0
C1309 C 0.70001 0.87959 0.32986 0.0
C1310 C 0.69631 0.82735 0.33918 0.0
C1311 C 0.72425 0.87597 0.31218 0.0
C1312 C 0.6854 0.85492 0.34255 0.0
C1313 C 0.75751 0.8437 0.28615 0.0
O1314 O 0.85503 0.79528 0.2307 0.0
O1315 O 0.80831 0.80746 0.23142 0.0
C1316 C 0.82951 0.79704 0.21582 0.0
O1317 O 0.83994 0.87155 0.28065 0.0
O1318 O 0.89613 0.76874 0.26966 0.0
O1319 O 0.91929 0.81492 0.29183 0.0
O1320 O 0.88563 0.85779 0.279 0.0
C1321 C 0.86996 0.8804 0.27946 0.0
O1322 O 0.81983 0.82728 0.33531 0.0
O1323 O 0.86926 0.82234 0.33503 0.0
O1324 O 0.83781 0.75671 0.28961 0.0
O1325 O 0.78426 0.86101 0.2954 0.0
O1326 O 0.75872 0.81548 0.27299 0.0
O1327 O 0.79147 0.76951 0.28696 0.0
C1328 C 0.94128 0.78948 0.25039 0.0
C1329 C 0.93295 0.80293 0.22587 0.0
C1330 C 0.98444 0.77673 0.22411 0.0
C1331 C 0.95002 0.80297 0.20046 0.0
C1332 C 0.9671 0.77637 0.24939 0.0
C1333 C 0.97601 0.79006 0.19954 0.0
C1334 C 0.92217 0.78821 0.27618 0.0
C1335 C 0.84636 0.82926 0.3505 0.0
H1336 H 0.72824 0.80199 0.31846 0.0
H1337 H 0.6915 0.90083 0.33208 0.0
H1338 H 0.68491 0.80806 0.3487 0.0
H1339 H 0.73463 0.89477 0.30142 0.0
H1340 H 0.91315 0.8133 0.22635 0.0
H1341 H 1.00439 0.76653 0.22361 0.0
H1342 H 0.94313 0.81319 0.18164 0.0
H1343 H 0.97373 0.76575 0.26801 0.0
Eu1344 Eu 0.84453 0.32604 0.7768 0.0
Eu1345 Eu 0.80402 0.30901 0.83397 0.0
C1346 C 0.77255 0.32689 0.77635 0.0
C1347 C 0.86879 0.36721 0.71297 0.0
C1348 C 0.83898 0.37024 0.70522 0.0
C1349 C 0.88793 0.40544 0.68248 0.0
C1350 C 0.83362 0.39001 0.68555 0.0
C1351 C 0.89328 0.38553 0.7021 0.0
C1352 C 0.858 0.40723 0.67352 0.0
C1353 C 0.87431 0.34546 0.73279 0.0
O1354 O 0.78958 0.27244 0.79117 0.0
O1355 O 0.83529 0.27346 0.77133 0.0
C1356 C 0.80823 0.25808 0.77546 0.0
O1357 O 0.87758 0.32415 0.81573 0.0
O1358 O 0.7678 0.27788 0.851 0.0
O1359 O 0.79796 0.31459 0.88314 0.0
O1360 O 0.84538 0.28799 0.83494 0.0
C1361 C 0.87275 0.30325 0.83291 0.0
O1362 O 0.83314 0.36971 0.80293 0.0
O1363 O 0.8317 0.35755 0.85042 0.0
O1364 O 0.77378 0.33102 0.80666 0.0
O1365 O 0.8816 0.35774 0.7619 0.0
O1366 O 0.8545 0.31919 0.72867 0.0
O1367 O 0.79544 0.3209 0.76071 0.0
C1368 C 0.78681 0.26533 0.89651 0.0
C1369 C 0.81626 0.25913 0.89567 0.0
C1370 C 0.77445 0.22733 0.92899 0.0
C1371 C 0.82477 0.23736 0.91127 0.0
C1372 C 0.7658 0.24893 0.91295 0.0
C1373 C 0.80405 0.22149 0.9283 0.0
C1374 C 0.77827 0.28842 0.87971 0.0
C1375 C 0.83716 0.3782 0.83303 0.0
H1376 H 0.81977 0.35672 0.71378 0.0
H1377 H 0.90699 0.41846 0.67324 0.0
H1378 H 0.81041 0.39095 0.67872 0.0
H1379 H 0.91645 0.38394 0.70824 0.0
H1380 H 0.83296 0.27147 0.88337 0.0
H1381 H 0.7583 0.21567 0.94251 0.0
H1382 H 0.84783 0.23362 0.91088 0.0
H1383 H 0.74294 0.25318 0.91382 0.0
Eu1384 Eu 0.85175 0.84039 0.80051 0.0
Eu1385 Eu 0.81436 0.77218 0.76555 0.0
C1386 C 0.83158 0.82665 0.72433 0.0
C1387 C 0.87225 0.92301 0.80728 0.0
C1388 C 0.87166 0.91829 0.77494 0.0
C1389 C 0.84286 0.9629 0.80635 0.0
C1390 C 0.85475 0.93381 0.75844 0.0
C1391 C 0.85912 0.94666 0.82293 0.0
C1392 C 0.83904 0.95521 0.77394 0.0
C1393 C 0.87757 0.89787 0.82274 0.0
O1394 O 0.86153 0.77599 0.75031 0.0
O1395 O 0.8889 0.81397 0.78875 0.0
C1396 C 0.88743 0.79336 0.76318 0.0
O1397 O 0.84035 0.81461 0.84052 0.0
O1398 O 0.80274 0.73371 0.72562 0.0
O1399 O 0.78515 0.7279 0.76872 0.0
O1400 O 0.83191 0.76488 0.81312 0.0
C1401 C 0.83431 0.78442 0.83993 0.0
O1402 O 0.80309 0.84533 0.79481 0.0
O1403 O 0.77885 0.79467 0.78962 0.0
O1404 O 0.81275 0.80041 0.7266 0.0
O1405 O 0.85346 0.88377 0.83334 0.0
O1406 O 0.89214 0.87813 0.80797 0.0
O1407 O 0.8482 0.8441 0.74914 0.0
C1408 C 0.80898 0.68899 0.74454 0.0
C1409 C 0.83779 0.69061 0.73317 0.0
C1410 C 0.82043 0.65142 0.77424 0.0
C1411 C 0.85812 0.67399 0.74337 0.0
C1412 C 0.79999 0.66811 0.76405 0.0
C1413 C 0.85011 0.6554 0.76503 0.0
C1414 C 0.79208 0.71388 0.74246 0.0
C1415 C 0.7796 0.82441 0.79855 0.0
H1416 H 0.88189 0.90054 0.76209 0.0
H1417 H 0.8312 0.97965 0.81879 0.0
H1418 H 0.8527 0.92792 0.73352 0.0
H1419 H 0.85903 0.95059 0.84778 0.0
H1420 H 0.84562 0.70644 0.71816 0.0
H1421 H 0.81378 0.63696 0.79081 0.0
H1422 H 0.8807 0.67684 0.73556 0.0
H1423 H 0.77805 0.66654 0.77333 0.0
Eu1424 Eu 0.60359 0.59664 0.54379 0.0
Eu1425 Eu 0.57215 0.53271 0.51967 0.0
C1426 C 0.61437 0.56288 0.46803 0.0
C1427 C 0.63928 0.67781 0.5343 0.0
C1428 C 0.64575 0.66543 0.50441 0.0
C1429 C 0.62892 0.72293 0.51659 0.0
C1430 C 0.64034 0.68017 0.48012 0.0
C1431 C 0.63406 0.70806 0.54074 0.0
C1432 C 0.62928 0.70765 0.48604 0.0
C1433 C 0.62423 0.65646 0.5528 0.0
O1434 O 0.62383 0.52822 0.5235 0.0
O1435 O 0.6461 0.57478 0.55154 0.0
C1436 C 0.64961 0.5473 0.5365 0.0
O1437 O 0.58539 0.58957 0.59202 0.0
O1438 O 0.57008 0.48537 0.49423 0.0
O1439 O 0.53736 0.49359 0.52637 0.0
O1440 O 0.5576 0.54198 0.57227 0.0
C1441 C 0.56373 0.56612 0.59646 0.0
O1442 O 0.55093 0.59784 0.54574 0.0
O1443 O 0.53016 0.55468 0.51074 0.0
O1444 O 0.59076 0.54065 0.47136 0.0
O1445 O 0.59714 0.64221 0.54034 0.0
O1446 O 0.63922 0.63794 0.56365 0.0
O1447 O 0.62162 0.58619 0.4929 0.0
C1448 C 0.56421 0.45561 0.53199 0.0
C1449 C 0.58439 0.47235 0.55749 0.0
C1450 C 0.57228 0.40764 0.54507 0.0
C1451 C 0.59848 0.45697 0.57657 0.0
C1452 C 0.55809 0.42316 0.52582 0.0
C1453 C 0.59261 0.4246 0.57034 0.0
C1454 C 0.55131 0.47326 0.51203 0.0
C1455 C 0.52591 0.57994 0.52963 0.0
H1456 H 0.65035 0.64232 0.49908 0.0
H1457 H 0.62071 0.74435 0.5215 0.0
H1458 H 0.64103 0.66827 0.45664 0.0
H1459 H 0.62907 0.71806 0.56362 0.0
H1460 H 0.58961 0.49748 0.56243 0.0
H1461 H 0.56769 0.3825 0.54016 0.0
H1462 H 0.61415 0.47024 0.59594 0.0
H1463 H 0.54274 0.40999 0.50616 0.0
Eu1464 Eu 0.12189 0.55943 1.014 0.0
Eu1465 Eu 0.0579 0.56887 0.04563 0.0
C1466 C 0.10999 0.54916 0.08297 0.0
C1467 C 0.18864 0.52088 1.00325 0.0
C1468 C 0.17315 0.49354 1.01159 0.0
C1469 C 0.2366 0.50541 1.01338 0.0
C1470 C 0.18925 0.47233 0.02066 0.0
C1471 C 0.22051 0.52658 1.00426 0.0
C1472 C 0.22114 0.47812 0.02167 0.0
C1473 C 0.17185 0.5441 0.99498 0.0
O1474 O 0.09771 0.60701 0.06587 0.0
O1475 O 0.12365 0.6111 0.0237 0.0
C1476 C 0.11475 0.624 0.04978 0.0
O1477 O 0.09043 0.56536 0.97482 0.0
O1478 O 0.03707 0.59821 0.07973 0.0
O1479 O 1.00904 0.55764 0.05021 0.0
O1480 O 0.05671 0.5888 1.00264 0.0
C1481 C 0.06811 0.5807 0.97634 0.0
O1482 O 0.09339 0.51323 0.01657 0.0
O1483 O 0.04609 0.52401 1.0116 0.0
O1484 O 0.08035 0.54278 0.07597 0.0
O1485 O 0.14513 0.53315 0.97973 0.0
O1486 O 0.17167 0.56803 0.0168 0.0
O1487 O 0.12904 0.56123 0.06489 0.0
C1488 C 0.98853 0.60322 0.06146 0.0
C1489 C 0.97575 0.59971 0.03104 0.0
C1490 C 0.96215 0.64528 0.07741 0.0
C1491 C 0.95572 0.61828 0.02408 0.0
C1492 C 0.98193 0.62651 0.08444 0.0
C1493 C 0.94842 0.64088 0.04731 0.0
C1494 C 1.00949 0.58362 0.06942 0.0
C1495 C 0.06446 0.50472 1.00706 0.0
H1496 H 0.14859 0.48867 1.01135 0.0
H1497 H 0.2612 0.51034 1.01406 0.0
H1498 H 0.17688 0.45151 0.02705 0.0
H1499 H 0.23298 0.54755 0.99821 0.0
H1500 H 0.98095 0.58244 1.01267 0.0
H1501 H 0.95682 0.66263 0.09561 0.0
H1502 H 0.94544 0.61462 1.0007 0.0
H1503 H 0.99191 0.62999 0.10792 0.0
C1504 C 0.02981 0.24185 1.00381 0.0
C1505 C 0.04222 0.27359 1.00493 0.0
C1506 C 0.07311 0.27521 0.05238 0.0
C1507 C 0.06619 0.2425 0.04689 0.0
N1508 N 0.04157 0.19403 1.01263 0.0
N1509 N 0.08189 0.31877 0.02725 0.0
C1510 C 0.04518 0.22546 0.02159 0.0
C1511 C 0.06527 0.29015 0.02868 0.0
N1512 N 1.00334 0.22732 0.98622 0.0
N1513 N 0.08855 0.29177 0.07951 0.0
H1514 H 0.08025 0.32923 1.00832 0.0
H1515 H 0.10039 0.33026 0.04303 0.0
H1516 H 0.09469 0.281 0.09715 0.0
H1517 H 0.09228 0.31591 0.08547 0.0
H1518 H 0.99248 0.20465 0.98677 0.0
H1519 H 0.9905 0.23898 0.97408 0.0
H1520 H 0.0296 0.18195 0.9918 0.0
H1521 H 0.0528 0.18046 0.02388 0.0
C1522 C 0.20617 0.84814 0.23588 0.0
C1523 C 0.18695 0.81831 0.23171 0.0
C1524 C 0.20924 0.81064 0.2804 0.0
C1525 C 0.23242 0.8373 0.28107 0.0
N1526 N 0.25233 0.88308 0.26162 0.0
N1527 N 0.17006 0.7704 0.24905 0.0
C1528 C 0.23032 0.85687 0.25972 0.0
C1529 C 0.18797 0.79958 0.25404 0.0
N1530 N 0.20106 0.86809 0.21726 0.0
N1531 N 0.20786 0.7956 0.30457 0.0
H1532 H 0.1541 0.76144 0.23004 0.0
H1533 H 0.17252 0.75412 0.26245 0.0
H1534 H 0.22274 0.80315 0.32446 0.0
H1535 H 0.18997 0.77762 0.30648 0.0
H1536 H 0.21258 0.89113 0.22073 0.0
H1537 H 0.18342 0.86234 0.19966 0.0
H1538 H 0.25468 0.89635 0.24462 0.0
H1539 H 0.26909 0.89091 0.2801 0.0
C1540 C 0.5437 0.90027 0.49087 0.0
C1541 C 0.51707 0.89358 0.46984 0.0
C1542 C 0.50079 0.93922 0.49848 0.0
C1543 C 0.52958 0.94803 0.51582 0.0
N1544 N 0.56858 0.92896 0.54039 0.0
N1545 N 0.46933 0.90595 0.45424 0.0
C1546 C 0.54786 0.92586 0.51583 0.0
C1547 C 0.49514 0.9127 0.474 0.0
N1548 N 0.56649 0.88424 0.48567 0.0
N1549 N 0.47818 0.95451 0.5071 0.0
H1550 H 0.46311 0.88563 0.43756 0.0
H1551 H 0.45468 0.92115 0.45329 0.0
H1552 H 0.48022 0.97051 0.52779 0.0
H1553 H 0.45606 0.9483 0.49657 0.0
H1554 H 0.58765 0.89089 0.4984 0.0
H1555 H 0.5659 0.86635 0.46685 0.0
H1556 H 0.58101 0.91217 0.54313 0.0
H1557 H 0.57014 0.94654 0.55986 0.0
C1558 C 0.51922 0.29113 0.63503 0.0
C1559 C 0.53787 0.26973 0.63966 0.0
C1560 C 0.50066 0.2468 0.67159 0.0
C1561 C 0.4861 0.27189 0.67242 0.0
N1562 N 0.48059 0.3185 0.65539 0.0
N1563 N 0.54893 0.23233 0.67032 0.0
C1564 C 0.49471 0.29398 0.6538 0.0
C1565 C 0.52929 0.24868 0.65985 0.0
N1566 N 0.5256 0.30965 0.61396 0.0
N1567 N 0.48776 0.22177 0.68342 0.0
H1568 H 0.57148 0.23433 0.66559 0.0
H1569 H 0.54389 0.21929 0.68726 0.0
H1570 H 0.46673 0.22008 0.69259 0.0
H1571 H 0.49631 0.20152 0.6809 0.0
H1572 H 0.51102 0.32322 0.60751 0.0
H1573 H 0.54471 0.31042 0.60161 0.0
H1574 H 0.48818 0.33758 0.64544 0.0
H1575 H 0.46191 0.32038 0.6681 0.0
C1576 C 0.03874 0.87744 0.61536 0.0
C1577 C 0.05588 0.85504 0.62028 0.0
C1578 C 0.0862 0.8663 0.57766 0.0
C1579 C 0.07119 0.89071 0.57469 0.0
N1580 N 0.03557 0.92234 0.59285 0.0
N1581 N 0.09991 0.83258 0.61018 0.0
C1582 C 0.04803 0.89706 0.59411 0.0
C1583 C 0.08067 0.85066 0.60249 0.0
N1584 N 1.01307 0.87922 0.63018 0.0
N1585 N 0.10522 0.85746 0.5562 0.0
H1586 H 0.09708 0.82108 0.6285 0.0
H1587 H 0.1203 0.83141 0.6004 0.0
H1588 H 0.10978 0.86827 0.53755 0.0
H1589 H 0.11418 0.83758 0.55518 0.0
H1590 H 0.99775 0.89266 0.62518 0.0
H1591 H 1.00579 0.86532 0.64592 0.0
H1592 H 0.02096 0.93016 0.60851 0.0
H1593 H 0.04152 0.93695 0.57738 0.0
C1594 C 0.55211 0.90594 0.91536 0.0
C1595 C 0.56105 0.87821 0.90166 0.0
C1596 C 0.51083 0.85907 0.87383 0.0
C1597 C 0.50556 0.88959 0.88058 0.0
N1598 N 0.51888 0.94178 0.90997 0.0
N1599 N 0.54806 0.8267 0.86972 0.0
C1600 C 0.52518 0.91286 0.90263 0.0
C1601 C 0.53999 0.85406 0.88174 0.0
N1602 N 0.56968 0.92577 0.93971 0.0
N1603 N 0.48794 0.83524 0.85922 0.0
H1604 H 0.56857 0.82124 0.87632 0.0
H1605 H 0.53502 0.80997 0.85203 0.0
H1606 H 0.46626 0.83868 0.8534 0.0
H1607 H 0.48945 0.81197 0.85573 0.0
H1608 H 0.56327 0.94526 0.95211 0.0
H1609 H 0.58987 0.92142 0.94877 0.0
H1610 H 0.53384 0.96077 0.92354 0.0
H1611 H 0.49886 0.94691 0.90135 0.0
C1612 C 0.55432 0.19551 0.09531 0.0
C1613 C 0.53298 0.19227 0.11801 0.0
C1614 C 0.53607 0.13688 0.1122 0.0
C1615 C 0.55785 0.14067 0.09017 0.0
N1616 N 0.59387 0.1755 0.06802 0.0
N1617 N 0.50528 0.16045 0.14967 0.0
C1618 C 0.56838 0.17042 0.08353 0.0
C1619 C 0.52442 0.16303 0.12685 0.0
N1620 N 0.56194 0.2226 0.08491 0.0
N1621 N 0.52608 0.10817 0.1188 0.0
H1622 H 0.49448 0.17815 0.15907 0.0
H1623 H 0.50071 0.14142 0.16025 0.0
H1624 H 0.53457 0.08875 0.10965 0.0
H1625 H 0.50801 0.1027 0.13187 0.0
H1626 H 0.57284 0.22416 0.06493 0.0
H1627 H 0.55602 0.24325 0.0944 0.0
H1628 H 0.60532 0.19742 0.06581 0.0
H1629 H 0.60596 0.15833 0.06041 0.0
C1630 C 0.25417 0.36893 0.36225 0.0
C1631 C 0.23527 0.34746 0.37637 0.0
C1632 C 0.24331 0.30492 0.33619 0.0
C1633 C 0.2615 0.32657 0.32122 0.0
N1634 N 0.27215 0.37956 0.31428 0.0
N1635 N 0.22298 0.29485 0.38377 0.0
C1636 C 0.26408 0.35882 0.33287 0.0
C1637 C 0.23351 0.31537 0.36564 0.0
N1638 N 0.26158 0.39936 0.37679 0.0
N1639 N 0.23238 0.27506 0.3209 0.0
H1640 H 0.21796 0.30215 0.4063 0.0
H1641 H 0.22346 0.27133 0.37817 0.0
H1642 H 0.23434 0.26787 0.29748 0.0
H1643 H 0.21726 0.25895 0.32986 0.0
H1644 H 0.27729 0.41604 0.36914 0.0
H1645 H 0.25415 0.40684 0.39831 0.0
H1646 H 0.27256 0.40317 0.32085 0.0
H1647 H 0.27343 0.37247 0.29071 0.0
C1648 C 0.03266 0.05322 0.17951 0.0
C1649 C 1.01121 0.07331 0.18676 0.0
C1650 C 0.02656 0.09159 0.13651 0.0
C1651 C 0.04649 0.06994 0.12807 0.0
N1652 N 0.06425 0.02737 0.14346 0.0
N1653 N 0.98619 0.10897 0.16679 0.0
C1654 C 0.04797 0.05006 0.15025 0.0
C1655 C 1.00795 0.09154 0.16351 0.0
N1656 N 0.03912 0.03692 0.20122 0.0
N1657 N 0.02528 0.11307 0.11861 0.0
H1658 H 0.97348 0.1105 0.18584 0.0
H1659 H 0.97904 0.11988 0.14982 0.0
H1660 H 0.036 0.113 0.09837 0.0
H1661 H 1.01518 0.13206 0.12464 0.0
H1662 H 0.05683 0.02502 0.20056 0.0
H1663 H 0.02789 0.03702 0.22123 0.0
H1664 H 0.06346 1.00918 0.15515 0.0
H1665 H 0.07734 0.02569 0.12475 0.0
C1666 C 0.35506 0.68735 0.48603 0.0
C1667 C 0.34025 0.65559 0.47888 0.0
C1668 C 0.30919 0.6661 0.4364 0.0
C1669 C 0.31986 0.69848 0.4477 0.0
N1670 N 0.35227 0.74032 0.48427 0.0
N1671 N 0.31575 0.61377 0.43738 0.0
C1672 C 0.34298 0.70922 0.47249 0.0
C1673 C 0.32078 0.64444 0.45113 0.0
N1674 N 0.38175 0.69618 0.50455 0.0
N1675 N 0.28772 0.65616 0.41181 0.0
H1676 H 0.32799 0.59852 0.44462 0.0
H1677 H 0.30305 0.60425 0.41633 0.0
H1678 H 0.28048 0.67132 0.39927 0.0
H1679 H 0.27604 0.63325 0.40474 0.0
H1680 H 0.3952 0.71849 0.50856 0.0
H1681 H 0.39231 0.68005 0.51263 0.0
H1682 H 0.36645 0.74923 0.50457 0.0
H1683 H 0.34384 0.75725 0.47529 0.0
C1684 C 0.64679 0.06997 0.66731 0.0
C1685 C 0.66646 0.04886 0.66814 0.0
C1686 C 0.63813 1.01451 0.62183 0.0
C1687 C 0.61842 0.03563 0.62101 0.0
N1688 N 0.59996 0.08018 0.64601 0.0
N1689 N 0.67837 0.99891 0.65005 0.0
C1690 C 0.62134 0.06219 0.64489 0.0
C1691 C 0.66134 1.0204 0.64655 0.0
N1692 N 0.65337 0.09825 0.68701 0.0
N1693 N 0.63493 0.98918 0.59846 0.0
H1694 H 0.69593 1.00291 0.66756 0.0
H1695 H 0.67403 0.97645 0.63698 0.0
H1696 H 0.61683 0.98314 0.58134 0.0
H1697 H 0.65052 0.97476 0.59535 0.0
H1698 H 0.64242 0.11632 0.68511 0.0
H1699 H 0.67148 0.10473 0.70409 0.0
H1700 H 0.59896 0.09787 0.66456 0.0
H1701 H 0.58145 0.07591 0.62962 0.0
C1702 C 0.3378 0.37915 0.93267 0.0
C1703 C 0.35865 0.37073 0.9534 0.0
C1704 C 0.3671 0.33091 0.90886 0.0
C1705 C 0.34975 0.34276 0.8876 0.0
N1706 N 0.32596 0.38522 0.8806 0.0
N1707 N 0.39706 0.34082 0.9585 0.0
C1708 C 0.33709 0.36876 0.89996 0.0
C1709 C 0.37429 0.34708 0.94073 0.0
N1710 N 0.31768 0.39661 0.94413 0.0
N1711 N 0.3759 0.30352 0.8991 0.0
H1712 H 0.4033 0.35218 0.98132 0.0
H1713 H 0.41149 0.32641 0.94975 0.0
H1714 H 0.37036 0.29061 0.87673 0.0
H1715 H 0.3859 0.2921 0.91399 0.0
H1716 H 0.30005 0.40076 0.93037 0.0
H1717 H 0.3163 0.40378 0.96765 0.0
H1718 H 0.31921 0.40604 0.88852 0.0
H1719 H 0.32717 0.38052 0.85683 0.0
C1720 C 1.01638 0.05165 0.37923 0.0
C1721 C 1.0014 0.07713 0.37733 0.0
C1722 C 0.02423 0.09705 0.43357 0.0
C1723 C 0.0353 0.06929 0.43713 0.0
N1724 N 0.03263 1.01663 0.41004 0.0
N1725 N 0.98928 0.12247 0.40815 0.0
C1726 C 0.02883 0.04584 0.40885 0.0
C1727 C 1.00462 0.09887 0.40631 0.0
N1728 N 0.01935 0.03251 0.35237 0.0
N1729 N 0.03421 0.12341 0.45531 0.0
H1730 H 0.97743 0.12666 0.38907 0.0
H1731 H 0.98683 0.13659 0.42898 0.0
H1732 H 0.05042 0.12477 0.47315 0.0
H1733 H 0.03 0.14499 0.45313 0.0
H1734 H 0.03227 1.01546 0.35116 0.0
H1735 H 1.01193 0.03622 0.33102 0.0
H1736 H 0.02555 0.99784 0.39171 0.0
H1737 H 0.03902 1.01019 0.43036 0.0
C1738 C 0.36844 0.73257 0.65836 0.0
C1739 C 0.35019 0.70182 0.65266 0.0
C1740 C 0.32531 0.71864 0.69987 0.0
C1741 C 0.33953 0.75057 0.70213 0.0
N1742 N 0.37006 0.78738 0.67678 0.0
N1743 N 0.30403 0.67 0.6651 0.0
C1744 C 0.35979 0.75733 0.6794 0.0
C1745 C 0.32658 0.69608 0.67257 0.0
N1746 N 0.39491 0.73824 0.64472 0.0
N1747 N 0.31187 0.7089 0.72424 0.0
H1748 H 0.30176 0.65399 0.64448 0.0
H1749 H 0.2852 0.6665 0.67777 0.0
H1750 H 0.31245 0.72327 0.74566 0.0
H1751 H 0.30373 0.68549 0.72435 0.0
H1752 H 0.4102 0.75958 0.65003 0.0
H1753 H 0.40345 0.72068 0.63135 0.0
H1754 H 0.38281 0.79335 0.65901 0.0
H1755 H 0.36262 0.80592 0.68982 0.0
C1756 C 0.73627 0.11808 0.85386 0.0
C1757 C 0.73484 0.08868 0.83448 0.0
C1758 C 0.69487 0.06508 0.86348 0.0
C1759 C 0.69607 0.09467 0.88235 0.0
N1760 N 0.72355 0.14737 0.90119 0.0
N1761 N 0.71962 0.03323 0.82651 0.0
C1762 C 0.71899 0.12036 0.87973 0.0
C1763 C 0.71633 0.06181 0.84126 0.0
N1764 N 0.75173 0.14432 0.84594 0.0
N1765 N 0.67268 0.04038 0.86617 0.0
H1766 H 0.73599 0.03067 0.81094 0.0
H1767 H 0.70862 1.01248 0.83195 0.0
H1768 H 0.65746 0.0416 0.88312 0.0
H1769 H 0.66838 1.01913 0.85077 0.0
H1770 H 0.75112 0.16669 0.85727 0.0
H1771 H 0.76257 0.14363 0.8259 0.0
H1772 H 0.74254 0.1652 0.90257 0.0
H1773 H 0.7099 0.15108 0.91921 0.0
C1774 C 0.33331 0.33477 0.13845 0.0
C1775 C 0.35699 0.3609 0.13719 0.0
C1776 C 0.36561 0.36762 0.19439 0.0
C1777 C 0.34494 0.33878 0.19545 0.0
N1778 N 0.31699 0.29084 0.16274 0.0
N1779 N 0.40205 0.39491 0.16513 0.0
C1780 C 0.33101 0.32125 0.16583 0.0
C1781 C 0.37495 0.37503 0.16548 0.0
N1782 N 0.31201 0.32304 0.11394 0.0
N1783 N 0.37571 0.38942 0.22056 0.0
H1784 H 0.41092 0.39954 0.14484 0.0
H1785 H 0.41746 0.40344 0.18465 0.0
H1786 H 0.36858 0.38767 0.24204 0.0
H1787 H 0.3882 0.41152 0.22017 0.0
H1788 H 0.29275 0.30605 0.11474 0.0
H1789 H 0.31161 0.33268 0.09433 0.0
H1790 H 0.30883 0.27663 0.14138 0.0
H1791 H 0.3174 0.27854 0.18037 0.0
C1792 C 0.22125 1.00082 0.02745 0.0
C1793 C 0.24494 1.02003 1.01438 0.0
C1794 C 0.20569 0.05407 1.0114 0.0
C1795 C 0.18415 0.03735 0.02841 0.0
N1796 N 0.17686 0.99674 0.05746 0.0
N1797 N 0.25755 0.07032 0.99936 0.0
C1798 C 0.19366 1.01132 0.03767 0.0
C1799 C 0.23637 0.04799 1.00794 0.0
N1800 N 0.22361 0.97112 0.02843 0.0
N1801 N 0.19661 0.07528 0.99653 0.0
H1802 H 0.27935 0.06814 0.9947 0.0
H1803 H 0.25412 0.09265 0.99929 0.0
H1804 H 0.17533 0.08083 0.99789 0.0
H1805 H 0.20896 0.08483 0.98011 0.0
H1806 H 0.20625 0.95513 0.03485 0.0
H1807 H 0.24079 0.96105 0.01881 0.0
H1808 H 0.18426 0.98049 0.06839 0.0
H1809 H 0.15741 1.00354 0.06565 0.0
C1810 C 0.72268 0.64585 0.02714 0.0
C1811 C 0.72182 0.66782 1.00758 0.0
C1812 C 0.66887 0.64037 0.98852 0.0
C1813 C 0.66918 0.61948 1.00908 0.0
N1814 N 0.69531 0.60505 0.05092 0.0
N1815 N 0.69188 0.68872 0.97349 0.0
C1816 C 0.69595 0.62287 0.02898 0.0
C1817 C 0.69413 0.66596 0.98961 0.0
N1818 N 0.74909 0.64704 0.0444 0.0
N1819 N 0.64486 0.63466 0.96672 0.0
H1820 H 0.71004 0.70694 0.97279 0.0
H1821 H 0.67161 0.69069 0.9624 0.0
H1822 H 0.6274 0.61511 0.96435 0.0
H1823 H 0.64379 0.64699 0.94914 0.0
H1824 H 0.75283 0.6296 0.05575 0.0
H1825 H 0.76824 0.66474 0.04623 0.0
H1826 H 0.71223 0.60849 0.06884 0.0
H1827 H 0.67659 0.58781 0.05248 0.0
C1828 C 0.74457 0.43343 0.28029 0.0
C1829 C 0.76192 0.46561 0.28885 0.0
C1830 C 0.80735 0.43546 0.2887 0.0
C1831 C 0.79013 0.40343 0.28488 0.0
N1832 N 0.73728 0.37727 0.28092 0.0
N1833 N 0.81361 0.4906 0.31098 0.0
C1834 C 0.75741 0.40445 0.28183 0.0
C1835 C 0.7941 0.46422 0.29587 0.0
N1836 N 0.71469 0.4298 0.27042 0.0
N1837 N 0.83757 0.4397 0.28446 0.0
H1838 H 0.80728 0.51136 0.31899 0.0
H1839 H 0.83572 0.49079 0.31941 0.0
H1840 H 0.84862 0.42161 0.27789 0.0
H1841 H 0.85071 0.46124 0.28315 0.0
H1842 H 0.70102 0.40846 0.25995 0.0
H1843 H 0.70436 0.44868 0.27042 0.0
H1844 H 0.71415 0.37593 0.28309 0.0
H1845 H 0.74397 0.35632 0.28047 0.0
C1846 C 0.93126 0.54245 0.53067 0.0
C1847 C 0.91509 0.51439 0.51076 0.0
C1848 C 0.96651 0.50262 0.49896 0.0
C1849 C 0.98257 0.53133 0.51764 0.0
N1850 N 0.97862 0.58104 0.54679 0.0
N1851 N 0.91893 0.47008 0.47232 0.0
C1852 C 0.96433 0.55188 0.53204 0.0
C1853 C 0.93339 0.49528 0.49399 0.0
N1854 N 0.91526 0.55952 0.54983 0.0
N1855 N 0.983 0.48158 0.48653 0.0
H1856 H 0.89531 0.4641 0.46782 0.0
H1857 H 0.93014 0.45691 0.45671 0.0
H1858 H 1.00674 0.48628 0.48888 0.0
H1859 H 0.97339 0.45877 0.47586 0.0
H1860 H 0.92543 0.578 0.56749 0.0
H1861 H 0.89163 0.55389 0.54939 0.0
H1862 H 0.96715 0.59862 0.55469 0.0
H1863 H 1.00219 0.5884 0.54881 0.0
C1864 C 0.42621 0.12263 0.28296 0.0
C1865 C 0.42088 0.12446 0.31443 0.0
C1866 C 0.38675 0.15994 0.30934 0.0
C1867 C 0.38567 0.1506 0.27669 0.0
N1868 N 0.40857 0.12743 0.23239 0.0
N1869 N 0.40903 0.15666 0.35967 0.0
C1870 C 0.4069 0.13362 0.26352 0.0
C1871 C 0.40523 0.14714 0.32837 0.0
N1872 N 0.44993 0.11129 0.271 0.0
N1873 N 0.36991 0.18068 0.32185 0.0
H1874 H 0.42441 0.14878 0.37314 0.0
H1875 H 0.39926 0.17375 0.37203 0.0
H1876 H 0.35831 0.19246 0.30861 0.0
H1877 H 0.36726 0.1864 0.34523 0.0
H1878 H 0.46706 0.10567 0.2843 0.0
H1879 H 0.46706 0.10567 0.2843 0.0
H1880 H 0.42444 0.11551 0.22229 0.0
H1881 H 0.39394 0.13364 0.21679 0.0
C1882 C 0.40022 0.17577 0.50834 0.0
C1883 C 0.37937 0.18612 0.52887 0.0
C1884 C 0.40283 0.16524 0.5696 0.0
C1885 C 0.42314 0.15431 0.54887 0.0
N1886 N 0.44631 0.15542 0.50129 0.0
N1887 N 0.36705 0.19866 0.5816 0.0
C1888 C 0.42347 0.16163 0.51908 0.0
C1889 C 0.38285 0.18364 0.56037 0.0
N1890 N 0.39728 0.17896 0.47834 0.0
N1891 N 0.40135 0.15655 0.59755 0.0
H1892 H 0.35217 0.21226 0.57616 0.0
H1893 H 0.37111 0.20045 0.60527 0.0
H1894 H 0.41575 0.14345 0.60542 0.0
H1895 H 0.38436 0.16022 0.61204 0.0
H1896 H 0.40891 0.1685 0.46106 0.0
H1897 H 0.38223 0.19146 0.4705 0.0
H1898 H 0.44961 0.16249 0.48044 0.0
H1899 H 0.46363 0.14527 0.50867 0.0
C1900 C 0.78478 0.65154 0.27671 0.0
C1901 C 0.75798 0.64427 0.29297 0.0
C1902 C 0.7654 0.70408 0.30898 0.0
C1903 C 0.79075 0.71149 0.29089 0.0
N1904 N 0.82038 0.68805 0.25333 0.0
N1905 N 0.72106 0.66775 0.32064 0.0
C1906 C 0.79932 0.68382 0.27405 0.0
C1907 C 0.74801 0.67191 0.30764 0.0
N1908 N 0.79641 0.62715 0.26271 0.0
N1909 N 0.75857 0.72797 0.32946 0.0
H1910 H 0.70899 0.64595 0.32258 0.0
H1911 H 0.70979 0.68567 0.32779 0.0
H1912 H 0.77056 0.7508 0.3321 0.0
H1913 H 0.74345 0.72478 0.34615 0.0
H1914 H 0.81756 0.62954 0.25395 0.0
H1915 H 0.7857 0.60416 0.26183 0.0
H1916 H 0.82576 0.67009 0.23751 0.0
H1917 H 0.83051 0.70991 0.24976 0.0
C1918 C 0.86222 0.46065 0.82878 0.0
C1919 C 0.89139 0.46772 0.84582 0.0
C1920 C 0.87785 0.41997 0.86597 0.0
C1921 C 0.85057 0.41143 0.84617 0.0
N1922 N 0.81125 0.4285 0.81997 0.0
N1923 N 0.92608 0.45381 0.88213 0.0
C1924 C 0.84095 0.43363 0.83145 0.0
C1925 C 0.89879 0.44762 0.86497 0.0
N1926 N 0.85567 0.47783 0.80781 0.0
N1927 N 0.88402 0.40193 0.88607 0.0
H1928 H 0.94308 0.47354 0.88297 0.0
H1929 H 0.94308 0.47354 0.88297 0.0
H1930 H 0.86762 0.38404 0.89077 0.0
H1931 H 0.90427 0.40709 0.90037 0.0
H1932 H 0.83628 0.47132 0.7923 0.0
H1933 H 0.87041 0.49732 0.80383 0.0
H1934 H 0.80169 0.44505 0.81157 0.0
H1935 H 0.79546 0.40876 0.82219 0.0
C1936 C 0.15781 0.89521 0.11455 0.0
C1937 C 0.14168 0.88164 0.13655 0.0
C1938 C 0.10347 0.91271 0.13286 0.0
C1939 C 0.11447 0.91801 0.10445 0.0
N1940 N 0.15443 0.91869 0.06995 0.0
N1941 N 0.10935 0.88872 0.17736 0.0
C1942 C 0.14287 0.91136 0.09617 0.0
C1943 C 0.118 0.89459 0.14964 0.0
N1944 N 0.18666 0.89101 0.11074 0.0
N1945 N 0.07887 0.92408 0.14287 0.0
H1946 H 0.12163 0.87733 0.19041 0.0
H1947 H 0.09178 0.89673 0.18843 0.0
H1948 H 0.06808 0.9375 0.13085 0.0
H1949 H 0.06915 0.92065 0.16304 0.0
H1950 H 0.20073 0.90143 0.09604 0.0
H1951 H 0.19711 0.87914 0.12495 0.0
H1952 H 0.17358 0.91167 0.06131 0.0
H1953 H 0.144 0.9307 0.05596 0.0
C1954 C 0.92948 0.3218 0.90211 0.0
C1955 C 0.94973 0.30198 0.8925 0.0
C1956 C 0.91802 0.28077 0.84397 0.0
C1957 C 0.89772 0.30022 0.85403 0.0
N1958 N 0.87841 0.33011 0.89674 0.0
N1959 N 0.9582 0.25599 0.8591 0.0
C1960 C 0.90155 0.31772 0.88444 0.0
C1961 C 0.94235 0.27919 0.86493 0.0
N1962 N 0.93757 0.34591 0.92687 0.0
N1963 N 0.91448 0.26455 0.81432 0.0
H1964 H 0.97591 0.25412 0.8743 0.0
H1965 H 0.9522 0.23725 0.84061 0.0
H1966 H 0.89746 0.26629 0.79825 0.0
H1967 H 0.92928 0.2508 0.80518 0.0
H1968 H 0.92485 0.36296 0.93234 0.0
H1969 H 0.95848 0.35113 0.93991 0.0
H1970 H 0.87905 0.34017 0.92 0.0
H1971 H 0.85743 0.32754 0.88451 0.0
C1972 C 0.59058 0.1797 0.58814 0.0
C1973 C 0.61978 0.19865 0.58922 0.0
C1974 C 0.63628 0.15462 0.55721 0.0
C1975 C 0.60648 0.13639 0.55622 0.0
N1976 N 0.55343 0.1367 0.56382 0.0
N1977 N 0.66931 0.20612 0.57004 0.0
C1978 C 0.5834 0.15049 0.56928 0.0
C1979 C 0.64232 0.18678 0.57205 0.0
N1980 N 0.56778 0.18941 0.60341 0.0
N1981 N 0.65903 0.14096 0.54581 0.0
H1982 H 0.67451 0.22939 0.58122 0.0
H1983 H 0.68543 0.19986 0.55546 0.0
H1984 H 0.65516 0.11781 0.53448 0.0
H1985 H 0.68188 0.15204 0.54887 0.0
H1986 H 0.5699 0.21157 0.6164 0.0
H1987 H 0.5699 0.21157 0.6164 0.0
H1988 H 0.545 0.11629 0.54782 0.0
H1989 H 0.545 0.11629 0.54782 0.0
C1990 C 0.60095 0.83439 0.34598 0.0
C1991 C 0.5977 0.85021 0.37606 0.0
C1992 C 0.65282 0.8692 0.38501 0.0
C1993 C 0.65541 0.85547 0.35406 0.0
N1994 N 0.63156 0.83172 0.30289 0.0
N1995 N 0.61936 0.8867 0.42263 0.0
C1996 C 0.6293 0.84036 0.3338 0.0
C1997 C 0.62334 0.86885 0.39522 0.0
N1998 N 0.57762 0.81195 0.32983 0.0
N1999 N 0.67842 0.88184 0.40466 0.0
H2000 H 0.59789 0.88739 0.43015 0.0
H2001 H 0.63691 0.90277 0.43649 0.0
H2002 H 0.7003 0.88301 0.39757 0.0
H2003 H 0.678 0.88929 0.42828 0.0
H2004 H 0.57989 0.79769 0.30903 0.0
H2005 H 0.55708 0.80495 0.33882 0.0
H2006 H 0.61263 0.82371 0.28681 0.0
H2007 H 0.65211 0.83531 0.29291 0.0
C2008 C 0.1511 0.26664 0.47709 0.0
C2009 C 0.13065 0.27626 0.45732 0.0
C2010 C 0.08745 0.24373 0.4756 0.0
C2011 C 0.10767 0.23707 0.49782 0.0
N2012 N 0.15849 0.24333 0.52147 0.0
N2013 N 0.07886 0.27677 0.44012 0.0
C2014 C 0.13948 0.24883 0.49901 0.0
C2015 C 0.09869 0.26533 0.45696 0.0
N2016 N 0.18163 0.27388 0.47416 0.0
N2017 N 0.05754 0.22879 0.47176 0.0
H2018 H 0.08568 0.29175 0.42531 0.0
H2019 H 0.05557 0.27301 0.44232 0.0
H2020 H 0.04812 0.21372 0.48569 0.0
H2021 H 0.04254 0.22951 0.45335 0.0
H2022 H 0.19776 0.26525 0.48568 0.0
H2023 H 0.19062 0.28638 0.4579 0.0
H2024 H 0.18153 0.25359 0.52561 0.0
H2025 H 0.15077 0.23005 0.53758 0.0
C2026 C 0.61414 0.25197 0.20261 0.0
C2027 C 0.6178 0.28024 0.19225 0.0
C2028 C 0.66398 0.29965 0.22694 0.0
C2029 C 0.65566 0.27416 0.24214 0.0
N2030 N 0.61673 0.2306 0.24821 0.0
N2031 N 0.64503 0.33284 0.19649 0.0
C2032 C 0.62869 0.25176 0.23125 0.0
C2033 C 0.64229 0.30488 0.20517 0.0
N2034 N 0.59742 0.22524 0.18493 0.0
N2035 N 0.69279 0.31734 0.23131 0.0
H2036 H 0.63018 0.33647 0.17929 0.0
H2037 H 0.66103 0.35247 0.20752 0.0
H2038 H 0.71046 0.31225 0.2442 0.0
H2039 H 0.69996 0.33468 0.21897 0.0
H2040 H 0.5953 0.2038 0.1915 0.0
H2041 H 0.58995 0.22405 0.16203 0.0
H2042 H 0.59595 0.21508 0.24136 0.0
H2043 H 0.62587 0.23102 0.27044 0.0
C2044 C 0.65109 0.94695 0.98173 0.0
C2045 C 0.66161 0.9522 0.95328 0.0
C2046 C 0.64796 1.00333 0.96395 0.0
C2047 C 0.62947 0.99358 0.98701 0.0
N2048 N 0.61248 0.95411 0.01654 0.0
N2049 N 0.67912 0.98917 0.92226 0.0
C2050 C 0.63118 0.96508 0.99597 0.0
C2051 C 0.66307 0.98187 0.94612 0.0
N2052 N 0.66061 0.9252 0.99541 0.0
N2053 N 0.65232 0.03335 0.96016 0.0
H2054 H 0.69274 0.97477 0.91145 0.0
H2055 H 0.67905 1.0089 0.91317 0.0
H2056 H 0.64312 0.0501 0.97379 0.0
H2057 H 0.66716 0.04249 0.94543 0.0
H2058 H 0.65507 0.92187 0.01725 0.0
H2059 H 0.67754 0.91393 0.98681 0.0
H2060 H 0.61109 0.93204 0.02143 0.0
H2061 H 0.596 0.96545 0.02608 0.0
C2062 C 0.94178 0.812 0.7034 0.0
C2063 C 0.95698 0.78704 0.70013 0.0
C2064 C 0.92637 0.76544 0.73863 0.0
C2065 C 0.91419 0.79267 0.7447 0.0
N2066 N 0.91506 0.84466 0.73647 0.0
N2067 N 0.96592 0.74082 0.7164 0.0
C2068 C 0.9232 0.81673 0.72805 0.0
C2069 C 0.94955 0.76366 0.71791 0.0
N2070 N 0.94553 0.83142 0.68287 0.0
N2071 N 0.91609 0.74151 0.75306 0.0
H2072 H 0.98222 0.73799 0.70084 0.0
H2073 H 0.96464 0.72564 0.73165 0.0
H2074 H 0.90062 0.74284 0.76976 0.0
H2075 H 0.92195 0.71993 0.74767 0.0
H2076 H 0.93301 0.84854 0.68205 0.0
H2077 H 0.95894 0.82803 0.6645 0.0
H2078 H 0.92294 0.86387 0.72682 0.0
H2079 H 0.90338 0.84991 0.75564 0.0
C2080 C 0.17073 0.03172 0.90129 0.0
C2081 C 0.17101 0.05168 0.87891 0.0
C2082 C 0.13524 0.07752 0.9149 0.0
C2083 C 0.13349 0.05633 0.93622 0.0
N2084 N 0.14987 1.0106 0.94525 0.0
N2085 N 0.14938 0.09295 0.86587 0.0
C2086 C 0.15133 0.03278 0.92775 0.0
C2087 C 0.1519 0.0742 0.88641 0.0
N2088 N 0.18985 1.01139 0.89769 0.0
N2089 N 0.12102 0.10181 0.92209 0.0
H2090 H 0.16172 0.09256 0.84659 0.0
H2091 H 0.13378 0.10735 0.86659 0.0
H2092 H 0.10757 0.104 0.94052 0.0
H2093 H 0.12378 0.12065 0.91115 0.0
H2094 H 0.19518 0.99934 0.91444 0.0
H2095 H 0.20192 1.00782 0.87835 0.0
H2096 H 0.15822 0.99045 0.93924 0.0
H2097 H 0.1385 1.01137 0.96516 0.0
C2098 C 0.85193 0.42542 0.5935 0.0
C2099 C 0.83775 0.45145 0.59855 0.0
C2100 C 0.84208 0.45196 0.65417 0.0
C2101 C 0.85189 0.42335 0.64814 0.0
N2102 N 0.86064 0.37981 0.61112 0.0
N2103 N 0.81667 0.488 0.63365 0.0
C2104 C 0.85522 0.40922 0.61754 0.0
C2105 C 0.83229 0.46454 0.62896 0.0
N2106 N 0.86387 0.417 0.56623 0.0
N2107 N 0.84264 0.4673 0.68392 0.0
H2108 H 0.80887 0.49744 0.61573 0.0
H2109 H 0.80933 0.49639 0.65486 0.0
H2110 H 0.84953 0.45853 0.70273 0.0
H2111 H 0.83878 0.48973 0.68981 0.0
H2112 H 0.87721 0.40029 0.56277 0.0
H2113 H 0.86373 0.42904 0.54833 0.0
H2114 H 0.8597 0.36717 0.58872 0.0
H2115 H 0.8632 0.36682 0.62795 0.0
C2116 C 0.51408 0.06791 0.4093 0.0
C2117 C 0.48361 0.06951 0.41573 0.0
C2118 C 0.49265 0.0562 0.46544 0.0
C2119 C 0.52322 0.05503 0.46006 0.0
N2120 N 0.56527 0.06766 0.42978 0.0
N2121 N 0.45372 0.08437 0.45774 0.0
C2122 C 0.53472 0.06303 0.4327 0.0
C2123 C 0.47582 0.06975 0.44623 0.0
N2124 N 0.52357 0.07224 0.3814 0.0
N2125 N 0.47913 0.04364 0.48835 0.0
H2126 H 0.44421 0.099 0.44622 0.0
H2127 H 0.4486 0.08579 0.48057 0.0
H2128 H 0.48989 0.03139 0.50179 0.0
H2129 H 0.45602 0.04213 0.49107 0.0
H2130 H 0.54374 0.06704 0.37353 0.0
H2131 H 0.51106 0.08127 0.36617 0.0
H2132 H 0.57537 0.07642 0.41176 0.0
H2133 H 0.581 0.06516 0.44672 0.0
C2134 C 0.84114 0.78331 0.12759 0.0
C2135 C 0.81288 0.76369 0.11387 0.0
C2136 C 0.79708 0.76354 0.167 0.0
C2137 C 0.8239 0.78573 0.18054 0.0
N2138 N 0.86907 0.82073 0.17185 0.0
N2139 N 0.76149 0.74075 0.12167 0.0
C2140 C 0.84526 0.79664 0.16024 0.0
C2141 C 0.79024 0.75542 0.13399 0.0
N2142 N 0.86482 0.78815 0.1098 0.0
N2143 N 0.7786 0.74877 0.18558 0.0
H2144 H 0.75514 0.73528 0.09803 0.0
H2145 H 0.74318 0.73706 0.13493 0.0
H2146 H 0.78307 0.75293 0.20946 0.0
H2147 H 0.76068 0.73001 0.17711 0.0
H2148 H 0.88689 0.79914 0.11885 0.0
H2149 H 0.86316 0.77852 0.08635 0.0
H2150 H 0.88367 0.83196 0.15808 0.0
H2151 H 0.87246 0.83155 0.19506 0.0
C2152 C 0.13405 0.0523 0.68391 0.0
C2153 C 0.16352 0.0439 0.68655 0.0
C2154 C 0.16224 0.04464 0.62847 0.0
C2155 C 0.13142 0.04979 0.62522 0.0
N2156 N 0.08678 0.0506 0.65281 0.0
N2157 N 0.20164 0.02616 0.65602 0.0
C2158 C 0.11729 0.05144 0.65392 0.0
C2159 C 0.17625 0.03856 0.65721 0.0
N2160 N 0.12205 0.06301 0.71041 0.0
N2161 N 0.1795 0.04702 0.60431 0.0
H2162 H 0.21205 0.02081 0.67528 0.0
H2163 H 0.21033 1.01804 0.63547 0.0
H2164 H 0.17136 0.05194 0.58386 0.0
H2165 H 0.20277 0.04751 0.60577 0.0
H2166 H 0.10287 0.07282 0.71067 0.0
H2167 H 0.13315 0.06558 0.7322 0.0
H2168 H 0.07411 0.04812 0.67154 0.0
H2169 H 0.07349 0.04857 0.63231 0.0
C2170 C 0.82822 0.43536 0.39562 0.0
C2171 C 0.81763 0.43011 0.4244 0.0
C2172 C 0.81546 0.37334 0.4041 0.0
C2173 C 0.83148 0.38001 0.37836 0.0
N2174 N 0.85655 0.41961 0.35256 0.0
N2175 N 0.79416 0.39142 0.45199 0.0
C2176 C 0.83909 0.41168 0.37527 0.0
C2177 C 0.80933 0.39822 0.42742 0.0
N2178 N 0.82505 0.46176 0.38577 0.0
N2179 N 0.80561 0.34296 0.40601 0.0
H2180 H 0.78278 0.40687 0.4648 0.0
H2181 H 0.79182 0.37031 0.4591 0.0
H2182 H 0.81136 0.32466 0.39084 0.0
H2183 H 0.79105 0.33549 0.4218 0.0
H2184 H 0.83022 0.46571 0.36405 0.0
H2185 H 0.81246 0.47705 0.39673 0.0
H2186 H 0.86553 0.4426 0.35141 0.0
H2187 H 0.86449 0.40355 0.33665 0.0
C2188 C 0.44769 0.02845 0.21959 0.0
C2189 C 0.4489 1.00828 0.24035 0.0
C2190 C 0.47624 0.97733 0.20486 0.0
C2191 C 0.48143 1.00174 0.18829 0.0
N2192 N 0.47168 0.05055 0.17891 0.0
N2193 N 0.4593 0.96075 0.25146 0.0
C2194 C 0.46639 0.02694 0.1948 0.0
C2195 C 0.46127 0.98151 0.2323 0.0
N2196 N 0.42885 0.04902 0.22366 0.0
N2197 N 0.48599 0.95056 0.19435 0.0
H2198 H 0.44694 0.96258 0.27077 0.0
H2199 H 0.47011 0.94211 0.24862 0.0
H2200 H 0.49675 0.94715 0.17406 0.0
H2201 H 0.48143 0.93094 0.20409 0.0
H2202 H 0.42442 0.06176 0.2072 0.0
H2203 H 0.4151 0.05071 0.24187 0.0
H2204 H 0.46428 0.07126 0.18526 0.0
H2205 H 0.48509 0.05034 0.16043 0.0
C2206 C 0.84316 0.74468 0.91108 0.0
C2207 C 0.81649 0.74826 0.92678 0.0
C2208 C 0.80109 0.77422 0.88479 0.0
C2209 C 0.82849 0.77215 0.87015 0.0
N2210 N 0.87741 0.75857 0.8724 0.0
N2211 N 0.77177 0.77024 0.92932 0.0
C2212 C 0.84991 0.75816 0.88422 0.0
C2213 C 0.79621 0.76446 0.91393 0.0
N2214 N 0.86218 0.72783 0.92166 0.0
N2215 N 0.77854 0.78372 0.86971 0.0
H2216 H 0.7663 0.76201 0.94925 0.0
H2217 H 0.7581 0.78502 0.9237 0.0
H2218 H 0.7808 0.7899 0.84833 0.0
H2219 H 0.75674 0.78285 0.87674 0.0
H2220 H 0.8794 0.72034 0.90946 0.0
H2221 H 0.85984 0.71994 0.94223 0.0
H2222 H 0.89569 0.75226 0.88309 0.0
H2223 H 0.88277 0.76749 0.85277 0.0
C2224 C 0.94863 0.08705 0.06539 0.0
C2225 C 0.93398 0.10442 0.04726 0.0
C2226 C 0.9813 0.10712 0.01725 0.0
C2227 C 0.99478 0.08767 0.03392 0.0
N2228 N 0.98555 0.05427 0.07058 0.0
N2229 N 0.93689 0.12778 1.00269 0.0
C2230 C 0.97662 0.07638 0.05697 0.0
C2231 C 0.95065 0.11338 0.02227 0.0
N2232 N 0.93607 0.08097 0.09152 0.0
N2233 N 0.99788 0.1198 0.99614 0.0
H2234 H 0.91602 0.13405 1.00633 0.0
H2235 H 0.94504 0.13194 0.982 0.0
H2236 H 0.01912 0.11509 0.99126 0.0
H2237 H 0.99147 0.13606 0.98463 0.0
H2238 H 0.94667 0.07163 0.10787 0.0
H2239 H 0.91627 0.08808 0.0983 0.0
H2240 H 0.97234 0.04229 0.08486 0.0
H2241 H 1.00504 0.04585 0.06533 0.0
C2242 C 0.47019 0.44596 0.03381 0.0
C2243 C 0.44952 0.45304 0.05596 0.0
C2244 C 0.48553 0.5038 0.07603 0.0
C2245 C 0.50352 0.49867 0.05073 0.0
N2246 N 0.50904 0.46565 1.00248 0.0
N2247 N 0.43865 0.4884 0.09985 0.0
C2248 C 0.49513 0.46966 0.02922 0.0
C2249 C 0.45766 0.4819 0.07759 0.0
N2250 N 0.46562 0.4167 0.01628 0.0
N2251 N 0.49579 0.5289 0.09938 0.0
H2252 H 0.41953 0.47237 0.10308 0.0
H2253 H 0.44077 0.51009 0.11408 0.0
H2254 H 0.51621 0.5446 0.09946 0.0
H2255 H 0.48565 0.53289 0.11989 0.0
H2256 H 0.48191 0.4088 1.00284 0.0
H2257 H 0.4466 0.39943 0.01693 0.0
H2258 H 0.50239 0.44634 0.98467 0.0
H2259 H 0.52428 0.4834 0.99589 0.0
C2260 C 0.40103 0.67914 0.82022 0.0
C2261 C 0.41346 0.66264 0.79355 0.0
C2262 C 0.39918 0.70841 0.76931 0.0
C2263 C 0.38407 0.72284 0.79505 0.0
N2264 N 0.36869 0.71416 0.84423 0.0
N2265 N 0.41824 0.66402 0.74014 0.0
C2266 C 0.38448 0.70549 0.81983 0.0
C2267 C 0.41087 0.67848 0.76771 0.0
N2268 N 0.40691 0.67122 0.84784 0.0
N2269 N 0.4025 0.72339 0.74523 0.0
H2270 H 0.42654 0.64365 0.73779 0.0
H2271 H 0.41372 0.6705 0.7193 0.0
H2272 H 0.39336 0.74288 0.74425 0.0
H2273 H 0.41598 0.71797 0.72746 0.0
H2274 H 0.40234 0.68349 0.86881 0.0
H2275 H 0.42013 0.65503 0.85036 0.0
H2276 H 0.36362 0.70095 0.86101 0.0
H2277 H 0.35857 0.73339 0.8463 0.0
C2278 C 0.24094 0.57759 0.56791 0.0
C2279 C 0.25706 0.60168 0.55412 0.0
C2280 C 0.20554 0.61155 0.53873 0.0
C2281 C 0.18917 0.58525 0.54942 0.0
N2282 N 0.19442 0.53902 0.56805 0.0
N2283 N 0.25211 0.63684 0.52015 0.0
C2284 C 0.20787 0.5672 0.56236 0.0
C2285 C 0.23842 0.61708 0.53772 0.0
N2286 N 0.25701 0.56496 0.5873 0.0
N2287 N 0.19012 0.63296 0.53132 0.0
H2288 H 0.27549 0.64103 0.51814 0.0
H2289 H 0.23996 0.64612 0.50488 0.0
H2290 H 0.16705 0.63162 0.5339 0.0
H2291 H 0.20089 0.65401 0.52633 0.0
H2292 H 0.24674 0.54989 0.6008 0.0
H2293 H 0.28063 0.57141 0.59151 0.0
H2294 H 0.20669 0.52362 0.57495 0.0
H2295 H 0.17135 0.52943 0.56251 0.0
C2296 C 0.80088 0.99474 0.71832 0.0
C2297 C 0.77508 0.9989 0.73387 0.0
C2298 C 0.78524 0.96162 0.76465 0.0
C2299 C 0.81587 0.96683 0.75675 0.0
N2300 N 0.8529 0.98945 0.72503 0.0
N2301 N 0.73848 0.98105 0.76747 0.0
C2302 C 0.82365 0.98301 0.73265 0.0
C2303 C 0.76554 0.98011 0.75526 0.0
N2304 N 0.80366 1.00286 0.69036 0.0
N2305 N 0.77506 0.93886 0.78055 0.0
H2306 H 0.72309 0.99302 0.75934 0.0
H2307 H 0.73179 0.97076 0.78592 0.0
H2308 H 0.78866 0.92405 0.78642 0.0
H2309 H 0.75243 0.93258 0.78502 0.0
H2310 H 0.82124 0.99858 0.67683 0.0
H2311 H 0.78639 1.01107 0.67989 0.0
H2312 H 0.8596 1.0035 0.70928 0.0
H2313 H 0.87094 0.9834 0.73648 0.0
C2314 C 0.7631 0.90613 0.51974 0.0
C2315 C 0.78404 0.92225 0.54523 0.0
C2316 C 0.75152 0.95976 0.55896 0.0
C2317 C 0.73209 0.94559 0.53169 0.0
N2318 N 0.71434 0.90124 0.49066 0.0
N2319 N 0.79344 0.95676 0.59447 0.0
C2320 C 0.73618 0.91724 0.51364 0.0
C2321 C 0.77651 0.94656 0.56669 0.0
N2322 N 0.76975 0.88104 0.50081 0.0
N2323 N 0.74694 0.98667 0.57655 0.0
H2324 H 0.81144 0.94675 0.6004 0.0
H2325 H 0.78812 0.97282 0.61243 0.0
H2326 H 0.72839 0.99647 0.57206 0.0
H2327 H 0.76219 1.00011 0.5947 0.0
H2328 H 0.75748 0.86995 0.47989 0.0
H2329 H 0.78844 0.87167 0.50593 0.0
H2330 H 0.71459 0.87942 0.47775 0.0
H2331 H 0.69453 0.909 0.48589 0.0
C2332 C 0.38368 0.46595 0.76217 0.0
C2333 C 0.41341 0.4807 0.77796 0.0
C2334 C 0.41017 0.4287 0.79635 0.0
C2335 C 0.38117 0.41325 0.77941 0.0
N2336 N 0.34341 0.41929 0.74201 0.0
N2337 N 0.45615 0.47029 0.80606 0.0
C2338 C 0.36887 0.43287 0.76152 0.0
C2339 C 0.42683 0.45997 0.79335 0.0
N2340 N 0.36931 0.48363 0.74689 0.0
N2341 N 0.42137 0.41445 0.81773 0.0
H2342 H 0.46804 0.49299 0.80751 0.0
H2343 H 0.46925 0.45585 0.81354 0.0
H2344 H 0.41011 0.39323 0.82196 0.0
H2345 H 0.43985 0.42515 0.83377 0.0
H2346 H 0.34667 0.47718 0.73789 0.0
H2347 H 0.37966 0.50607 0.74503 0.0
H2348 H 0.33424 0.42979 0.72579 0.0
H2349 H 0.33278 0.3961 0.74005 0.0
C2350 C 0.25365 0.689 0.27807 0.0
C2351 C 0.26183 0.67244 0.25055 0.0
C2352 C 0.29249 0.72135 0.24174 0.0
C2353 C 0.28918 0.73559 0.27252 0.0
N2354 N 0.27455 0.72788 0.32262 0.0
N2355 N 0.28801 0.673 0.20448 0.0
C2356 C 0.27191 0.71798 0.29139 0.0
C2357 C 0.28112 0.68864 0.23182 0.0
N2358 N 0.22845 0.67779 0.29164 0.0
N2359 N 0.30489 0.73893 0.22168 0.0
H2360 H 0.27874 0.64953 0.19594 0.0
H2361 H 0.30434 0.68273 0.19132 0.0
H2362 H 0.31221 0.76293 0.22766 0.0
H2363 H 0.30542 0.73017 0.19831 0.0
H2364 H 0.22034 0.69167 0.30961 0.0
H2365 H 0.21476 0.65578 0.28429 0.0
H2366 H 0.26284 0.71522 0.33731 0.0
H2367 H 0.29179 0.74621 0.33394 0.0
C2368 C 0.55964 0.71702 0.44014 0.0
C2369 C 0.57209 0.74472 0.43052 0.0
C2370 C 0.62365 0.74024 0.4468 0.0
C2371 C 0.61069 0.7162 0.46174 0.0
N2372 N 0.56679 0.67994 0.47179 0.0
N2373 N 0.61527 0.78111 0.42017 0.0
C2374 C 0.57883 0.70352 0.4575 0.0
C2375 C 0.60404 0.75553 0.43197 0.0
N2376 N 0.52939 0.70411 0.43298 0.0
N2377 N 0.65458 0.74845 0.44729 0.0
H2378 H 0.60134 0.79124 0.40744 0.0
H2379 H 0.638 0.79249 0.42307 0.0
H2380 H 0.6691 0.73731 0.45808 0.0
H2381 H 0.66585 0.76457 0.43542 0.0
H2382 H 0.51904 0.68254 0.43705 0.0
H2383 H 0.51508 0.71395 0.42033 0.0
H2384 H 0.54359 0.67231 0.47294 0.0
H2385 H 0.58007 0.66866 0.48388 0.0
C2386 C 0.71982 0.33264 0.71012 0.0
C2387 C 0.70067 0.30274 0.7058 0.0
C2388 C 0.72151 0.29551 0.75536 0.0
C2389 C 0.74357 0.32334 0.75763 0.0
N2390 N 0.76414 0.36898 0.73819 0.0
N2391 N 0.68504 0.25408 0.72199 0.0
C2392 C 0.74262 0.34224 0.73538 0.0
C2393 C 0.70182 0.28382 0.72792 0.0
N2394 N 0.71571 0.35201 0.69052 0.0
N2395 N 0.71941 0.28014 0.77931 0.0
H2396 H 0.67056 0.24458 0.70193 0.0
H2397 H 0.68744 0.23784 0.73546 0.0
H2398 H 0.73313 0.28804 0.79995 0.0
H2399 H 0.70201 0.26131 0.78012 0.0
H2400 H 0.72673 0.37522 0.69417 0.0
H2401 H 0.69978 0.34536 0.67131 0.0
H2402 H 0.76735 0.382 0.72105 0.0
H2403 H 0.77968 0.37759 0.75764 0.0
C2404 C 0.03766 0.43909 0.93827 0.0
C2405 C 0.04225 0.41353 0.95136 0.0
C2406 C 0.05686 0.44785 1.00201 0.0
C2407 C 0.05343 0.47333 0.98875 0.0
N2408 N 0.04515 0.49458 0.94372 0.0
N2409 N 0.06591 0.39592 0.99323 0.0
C2410 C 0.04478 0.46932 0.95684 0.0
C2411 C 0.05458 0.41856 0.98259 0.0
N2412 N 0.02613 0.43488 0.90834 0.0
N2413 N 0.06178 0.45155 0.0333 0.0
H2414 H 0.06679 0.37483 0.97922 0.0
H2415 H 0.07782 0.39941 1.01478 0.0
H2416 H 0.06333 0.47284 0.04825 0.0
H2417 H 0.06129 0.43304 0.04455 0.0
H2418 H 1.01651 0.45129 0.89972 0.0
H2419 H 0.02609 0.41517 0.89185 0.0
H2420 H 0.04486 0.4934 0.9201 0.0
H2421 H 0.04785 0.51701 0.95636 0.0
C2422 C 1.0177 0.75953 0.13243 0.0
C2423 C 0.03949 0.78667 0.13144 0.0
C2424 C 1.01423 0.81766 0.16909 0.0
C2425 C 0.99448 0.78998 0.17275 0.0
N2426 N 0.97082 0.73661 0.15187 0.0
N2427 N 0.05093 0.84203 0.13812 0.0
C2428 C 0.99397 0.7615 0.15224 0.0
C2429 C 0.03494 0.81596 0.14606 0.0
N2430 N 0.02032 0.73197 0.11489 0.0
N2431 N 1.01481 0.84507 0.18892 0.0
H2432 H 0.06621 0.84091 0.12121 0.0
H2433 H 0.04647 0.86399 0.14564 0.0
H2434 H 1.00011 0.84732 0.20624 0.0
H2435 H 0.03118 0.86516 0.18952 0.0
H2436 H 1.00767 0.71044 0.11676 0.0
H2437 H 0.03578 0.73109 0.09829 0.0
H2438 H 0.96781 0.71568 0.13616 0.0
H2439 H 0.95306 0.73776 0.166 0.0
C2440 C 0.51997 0.36313 0.09805 0.0
C2441 C 0.53597 0.33935 0.10118 0.0
C2442 C 0.5725 0.35804 0.06585 0.0
C2443 C 0.55789 0.38312 0.06456 0.0
N2444 N 0.51967 0.41182 0.08125 0.0
N2445 N 0.57892 0.31531 0.08998 0.0
C2446 C 0.53209 0.38628 0.08114 0.0
C2447 C 0.56275 0.33731 0.08577 0.0
N2448 N 0.49303 0.36328 0.1109 0.0
N2449 N 0.59485 0.35318 0.04682 0.0
H2450 H 0.57141 0.29777 0.10186 0.0
H2451 H 0.60072 0.31535 0.08316 0.0
H2452 H 0.60285 0.36795 0.03207 0.0
H2453 H 0.60386 0.33326 0.04362 0.0
H2454 H 0.47841 0.37773 0.10683 0.0
H2455 H 0.48438 0.34754 0.12449 0.0
H2456 H 0.50271 0.4173 0.09505 0.0
H2457 H 0.52769 0.42884 0.06877 0.0
C2458 C 0.0754 0.33336 0.34398 0.0
C2459 C 0.08138 0.35413 0.37301 0.0
C2460 C 0.03459 0.3719 0.36356 0.0
C2461 C 0.03218 0.35607 0.33232 0.0
N2462 N 0.05169 0.3233 0.29188 0.0
N2463 N 0.0681 0.39536 0.40973 0.0
C2464 C 0.05285 0.337 0.32227 0.0
C2465 C 0.06123 0.37383 0.38281 0.0
N2466 N 0.09066 0.3097 0.33749 0.0
N2467 N 1.0109 0.38389 0.37522 0.0
H2468 H 0.08779 0.39804 0.4243 0.0
H2469 H 0.05581 0.41262 0.41605 0.0
H2470 H 0.99019 0.38147 0.36238 0.0
H2471 H 1.0105 0.39308 0.39854 0.0
H2472 H 0.08531 0.2923 0.31775 0.0
H2473 H 0.10648 0.30545 0.35332 0.0
H2474 H 0.06778 0.31112 0.28289 0.0
H2475 H 0.03631 0.32651 0.27499 0.0
C2476 C 0.03204 0.68031 0.58014 0.0
C2477 C 0.02482 0.68313 0.61116 0.0
C2478 C 0.03849 0.63239 0.61067 0.0
C2479 C 0.05362 0.63495 0.5834 0.0
N2480 N 0.06926 0.66678 0.54608 0.0
N2481 N 1.01699 0.65836 0.65478 0.0
C2482 C 0.05165 0.66046 0.56922 0.0
C2483 C 0.02697 0.65816 0.62623 0.0
N2484 N 0.01925 0.69536 0.56053 0.0
N2485 N 0.03303 0.60485 0.6205 0.0
H2486 H 1.00371 0.67367 0.66439 0.0
H2487 H 0.02196 0.64334 0.66874 0.0
H2488 H 0.03864 0.58475 0.60855 0.0
H2489 H 0.01976 0.6009 0.63849 0.0
H2490 H 0.023 0.69243 0.53723 0.0
H2491 H 1.00134 0.70638 0.56629 0.0
H2492 H 0.06958 0.68652 0.5367 0.0
H2493 H 0.08619 0.65476 0.53916 0.0
C2494 C 0.73339 0.85294 0.8643 0.0
C2495 C 0.70511 0.85206 0.84795 0.0
C2496 C 0.72549 0.83136 0.79947 0.0
C2497 C 0.7542 0.8345 0.81539 0.0
N2498 N 0.78734 0.8549 0.86236 0.0
N2499 N 0.68078 0.85266 0.79753 0.0
C2500 C 0.75871 0.84728 0.84763 0.0
C2501 C 0.70283 0.84472 0.81485 0.0
N2502 N 0.73657 0.86005 0.8958 0.0
N2503 N 0.71991 0.81647 0.76929 0.0
H2504 H 0.66693 0.86736 0.80644 0.0
H2505 H 0.67976 0.84941 0.77359 0.0
H2506 H 0.73646 0.80815 0.75651 0.0
H2507 H 0.69815 0.81027 0.75775 0.0
H2508 H 0.75488 0.85632 0.90892 0.0
H2509 H 0.72049 0.86865 0.90903 0.0
H2510 H 0.79264 0.86758 0.88483 0.0
H2511 H 0.80635 0.85079 0.85137 0.0
C2512 C 0.51082 0.54187 0.66591 0.0
C2513 C 0.50846 0.57054 0.68623 0.0
C2514 C 0.53943 0.59607 0.64655 0.0
C2515 C 0.54494 0.56751 0.62806 0.0
N2516 N 0.53772 0.51271 0.62748 0.0
N2517 N 0.527 0.62566 0.69524 0.0
C2518 C 0.53078 0.54044 0.63989 0.0
C2519 C 0.52499 0.59756 0.67623 0.0
N2520 N 0.49373 0.51508 0.67135 0.0
N2521 N 0.54589 0.62241 0.6348 0.0
H2522 H 0.51596 0.62821 0.71539 0.0
H2523 H 0.54149 0.64587 0.69227 0.0
H2524 H 0.55391 0.62276 0.61327 0.0
H2525 H 0.53966 0.64303 0.64454 0.0
H2526 H 0.49066 0.49382 0.65609 0.0
H2527 H 0.48055 0.51471 0.69001 0.0
H2528 H 0.53157 0.49272 0.63643 0.0
H2529 H 0.55266 0.51046 0.61045 0.0
C2530 C 0.82441 0.19341 1.00065 0.0
C2531 C 0.83295 0.16462 0.98853 0.0
C2532 C 0.82041 0.17229 0.9361 0.0
C2533 C 0.81463 0.20189 0.94855 0.0
N2534 N 0.82019 0.2442 0.99219 0.0
N2535 N 0.8468 0.13177 0.94406 0.0
C2536 C 0.81961 0.21357 0.98063 0.0
C2537 C 0.83311 0.15545 0.95599 0.0
N2538 N 0.8186 0.20106 0.03076 0.0
N2539 N 0.81338 0.16002 0.9054 0.0
H2540 H 0.85845 0.12052 0.95782 0.0
H2541 H 0.84977 0.12588 0.92072 0.0
H2542 H 0.80447 0.17192 0.89022 0.0
H2543 H 0.81404 0.13718 0.89561 0.0
H2544 H 0.80897 0.21997 0.03912 0.0
H2545 H 0.81952 0.1871 0.04677 0.0
H2546 H 0.82726 0.25466 0.01513 0.0
H2547 H 0.81674 0.25991 0.97838 0.0
C2548 C 0.1428 0.57468 0.16511 0.0
C2549 C 0.16606 0.55727 0.16491 0.0
C2550 C 0.14605 0.52782 0.11324 0.0
C2551 C 0.12348 0.54598 0.11307 0.0
N2552 N 0.09519 0.58067 0.1413 0.0
N2553 N 0.18647 0.51335 0.14231 0.0
C2554 C 0.11997 0.56719 0.13997 0.0
C2555 C 0.16659 0.53251 0.14003 0.0
N2556 N 0.14376 0.59983 0.18827 0.0
N2557 N 0.14822 0.50675 0.08728 0.0
H2558 H 0.20177 0.51638 0.16167 0.0
H2559 H 0.18649 0.49326 0.12621 0.0
H2560 H 0.13202 0.50126 0.06831 0.0
H2561 H 0.1662 0.49534 0.08412 0.0
H2562 H 0.1299 0.61584 0.18774 0.0
H2563 H 0.16005 0.60637 0.20713 0.0
H2564 H 0.08971 0.5938 0.16138 0.0
H2565 H 0.07833 0.57643 0.12318 0.0
C2566 C 0.83715 0.87633 0.43142 0.0
C2567 C 0.85766 0.86742 0.45212 0.0
C2568 C 0.86745 0.8293 0.40675 0.0
C2569 C 0.85067 0.84198 0.38572 0.0
N2570 N 0.82717 0.88498 0.37997 0.0
N2571 N 0.89631 0.83766 0.45679 0.0
C2572 C 0.83757 0.86746 0.39867 0.0
C2573 C 0.87381 0.84436 0.43903 0.0
N2574 N 0.81643 0.89298 0.4429 0.0
N2575 N 0.8765 0.80217 0.39634 0.0
H2576 H 0.90194 0.84816 0.47992 0.0
H2577 H 0.91107 0.82373 0.44783 0.0
H2578 H 0.87146 0.78999 0.37365 0.0
H2579 H 0.88614 0.7902 0.41093 0.0
H2580 H 0.79912 0.89749 0.42897 0.0
H2581 H 0.81425 0.89903 0.4664 0.0
H2582 H 0.82008 0.90547 0.38855 0.0
H2583 H 0.82943 0.88159 0.35638 0.0
C2584 C 0.48551 0.55483 0.89978 0.0
C2585 C 0.49542 0.57427 0.87773 0.0
C2586 C 0.54325 0.59173 0.91687 0.0
C2587 C 0.53491 0.56757 0.93452 0.0
N2588 N 0.49924 0.5194 0.93094 0.0
N2589 N 0.53903 0.61117 0.86859 0.0
C2590 C 0.50674 0.54701 0.92189 0.0
C2591 C 0.52609 0.5923 0.88722 0.0
N2592 N 0.45536 0.54624 0.90314 0.0
N2593 N 0.5674 0.61515 0.92875 0.0
H2594 H 0.5272 0.61429 0.84898 0.0
H2595 H 0.5619 0.62225 0.87174 0.0
H2596 H 0.57944 0.61572 0.94958 0.0
H2597 H 0.57343 0.63507 0.91964 0.0
H2598 H 0.44745 0.53334 0.91951 0.0
H2599 H 0.43906 0.55633 0.89392 0.0
H2600 H 0.48041 0.50257 0.92024 0.0
H2601 H 0.51347 0.51249 0.94643 0.0
C2602 C 0.82997 0.1991 0.17525 0.0
C2603 C 0.856 0.20231 0.15796 0.0
C2604 C 0.87125 0.25692 0.18724 0.0
C2605 C 0.84727 0.25246 0.20689 0.0
N2606 N 0.81007 0.21408 0.22425 0.0
N2607 N 0.90554 0.2332 0.15459 0.0
C2608 C 0.82844 0.22206 0.20222 0.0
C2609 C 0.87782 0.23094 0.16613 0.0
N2610 N 0.8056 0.17513 0.1654 0.0
N2611 N 0.88718 0.28623 0.18759 0.0
H2612 H 0.91189 0.21449 0.14061 0.0
H2613 H 0.92336 0.25235 0.16189 0.0
H2614 H 0.88213 0.30595 0.20109 0.0
H2615 H 0.90294 0.2912 0.17186 0.0
H2616 H 0.78511 0.17374 0.17554 0.0
H2617 H 0.8043 0.15869 0.14521 0.0
H2618 H 0.79816 0.19144 0.22323 0.0
H2619 H 0.80973 0.2288 0.24528 0.0
C2620 C 0.23019 0.62605 0.35205 0.0
C2621 C 0.23377 0.59807 0.33301 0.0
C2622 C 0.19843 0.56786 0.3616 0.0
C2623 C 0.19346 0.59596 0.37922 0.0
N2624 N 0.2099 0.65121 0.3974 0.0
N2625 N 0.2304 0.54324 0.32671 0.0
C2626 C 0.21138 0.62488 0.37668 0.0
C2627 C 0.22076 0.56917 0.34014 0.0
N2628 N 0.24345 0.65377 0.34555 0.0
N2629 N 0.18109 0.54013 0.36463 0.0
H2630 H 0.2478 0.5444 0.31202 0.0
H2631 H 0.22374 0.52168 0.33268 0.0
H2632 H 0.16513 0.53842 0.38081 0.0
H2633 H 0.18133 0.51909 0.35009 0.0
H2634 H 0.23913 0.67491 0.35636 0.0
H2635 H 0.25759 0.65528 0.32795 0.0
H2636 H 0.22471 0.67251 0.39903 0.0
H2637 H 0.1952 0.65148 0.41481 0.0
C2638 C 0.86338 0.83485 0.64447 0.0
C2639 C 0.85173 0.86015 0.63643 0.0
C2640 C 0.82561 0.86285 0.68554 0.0
C2641 C 0.83619 0.83669 0.69274 0.0
N2642 N 0.8612 0.79469 0.67525 0.0
N2643 N 0.81693 0.89444 0.64776 0.0
C2644 C 0.85377 0.82181 0.67092 0.0
C2645 C 0.83164 0.87315 0.65674 0.0
N2646 N 0.88515 0.82415 0.6277 0.0
N2647 N 0.80941 0.87792 0.70633 0.0
H2648 H 0.81987 0.9018 0.62696 0.0
H2649 H 0.79985 0.90291 0.65937 0.0
H2650 H 0.80332 0.87022 0.7264 0.0
H2651 H 0.80339 0.89887 0.70477 0.0
H2652 H 0.89713 0.80818 0.63375 0.0
H2653 H 0.8934 0.83336 0.6091 0.0
H2654 H 0.87095 0.78058 0.65901 0.0
H2655 H 0.85521 0.7848 0.69412 0.0
C2656 C 0.71504 0.49949 0.50945 0.0
C2657 C 0.74361 0.52067 0.51945 0.0
C2658 C 0.71157 0.55986 0.53908 0.0
C2659 C 0.68259 0.5379 0.53217 0.0
N2660 N 0.66189 0.48247 0.51831 0.0
N2661 N 0.76581 0.56795 0.55508 0.0
C2662 C 0.68594 0.50655 0.51934 0.0
C2663 C 0.74075 0.54988 0.53748 0.0
N2664 N 0.71533 0.47209 0.49012 0.0
N2665 N 0.71225 0.59095 0.54588 0.0
H2666 H 0.78617 0.56031 0.55695 0.0
H2667 H 0.76503 0.58815 0.57079 0.0
H2668 H 0.6931 0.6005 0.54498 0.0
H2669 H 0.73247 0.60751 0.54833 0.0
H2670 H 0.69561 0.45704 0.47891 0.0
H2671 H 0.73548 0.46587 0.48321 0.0
H2672 H 0.66324 0.45932 0.51124 0.0
H2673 H 0.64219 0.48502 0.52884 0.0
C2674 C 0.22213 0.14431 0.52993 0.0
C2675 C 0.22171 0.16639 0.51048 0.0
C2676 C 0.16779 0.14107 0.49286 0.0
C2677 C 0.16844 0.119 0.51206 0.0
N2678 N 0.19791 0.09623 0.54457 0.0
N2679 N 0.19184 0.18919 0.47809 0.0
C2680 C 0.19614 0.11974 0.52933 0.0
C2681 C 0.19382 0.16571 0.49333 0.0
N2682 N 0.24673 0.148 0.55072 0.0
N2683 N 0.14287 0.13713 0.47249 0.0
H2684 H 0.21045 0.20673 0.47682 0.0
H2685 H 0.17147 0.19241 0.4683 0.0
H2686 H 0.12378 0.11936 0.47138 0.0
H2687 H 0.14209 0.14957 0.45495 0.0
H2688 H 0.24728 0.13537 0.56811 0.0
H2689 H 0.26598 0.16556 0.55252 0.0
H2690 H 0.21803 0.09297 0.55484 0.0
H2691 H 0.17955 0.07806 0.54453 0.0
C2692 C 0.25563 0.94017 0.8121 0.0
C2693 C 0.25675 0.95924 0.78847 0.0
C2694 C 0.28836 0.91866 0.76249 0.0
C2695 C 0.28681 0.89935 0.78596 0.0
N2696 N 0.26315 0.89383 0.83244 0.0
N2697 N 0.28073 0.96535 0.74248 0.0
C2698 C 0.26869 0.9111 0.81028 0.0
C2699 C 0.27481 0.94751 0.76411 0.0
N2700 N 0.24255 0.95066 0.83798 0.0
N2701 N 0.30187 0.90838 0.73686 0.0
H2702 H 0.27122 0.98476 0.74218 0.0
H2703 H 0.29638 0.96247 0.72629 0.0
H2704 H 0.31163 0.88889 0.73477 0.0
H2705 H 0.30141 0.91729 0.71685 0.0
H2706 H 0.24425 0.94256 0.85838 0.0
H2707 H 0.23146 0.9692 0.83966 0.0
H2708 H 0.24735 0.89678 0.84846 0.0
H2709 H 0.27316 0.87495 0.8336 0.0
C2710 C 0.43367 0.03954 0.03504 0.0
C2711 C 0.41791 1.01559 1.01012 0.0
C2712 C 0.46976 1.01045 0.99267 0.0
C2713 C 0.48555 0.03367 0.01808 0.0
N2714 N 0.4813 0.07267 0.06155 0.0
N2715 N 0.42297 0.97411 0.96899 0.0
C2716 C 0.46693 0.04859 0.03876 0.0
C2717 C 0.4367 1.00017 0.98997 0.0
N2718 N 0.41666 0.05276 0.05626 0.0
N2719 N 0.48643 0.99808 0.97058 0.0
H2720 H 0.39942 0.96626 0.96568 0.0
H2721 H 0.4348 0.95914 0.95622 0.0
H2722 H 0.51015 1.00351 0.97241 0.0
H2723 H 0.47685 0.98421 0.94951 0.0
H2724 H 0.42552 0.06697 0.07729 0.0
H2725 H 0.39296 0.0483 0.05346 0.0
H2726 H 0.47059 0.08534 0.07803 0.0
H2727 H 0.50459 0.08144 0.06275 0.0
C2728 C 0.90316 0.63949 0.82742 0.0
C2729 C 0.91578 0.61594 0.80986 0.0
C2730 C 0.88869 0.62136 0.76275 0.0
C2731 C 0.87383 0.64286 0.78032 0.0
N2732 N 0.87451 0.68022 0.82742 0.0
N2733 N 0.93445 0.60088 0.76038 0.0
C2734 C 0.88341 0.65443 0.81218 0.0
C2735 C 0.91304 0.61197 0.7773 0.0
N2736 N 0.9104 0.6476 0.85855 0.0
N2737 N 0.87901 0.60893 0.73252 0.0
H2738 H 0.95471 0.59778 0.77063 0.0
H2739 H 0.93429 0.59958 0.73665 0.0
H2740 H 0.86062 0.61447 0.72109 0.0
H2741 H 0.88753 0.59097 0.71979 0.0
H2742 H 0.89914 0.6614 0.87351 0.0
H2743 H 0.92799 0.64014 0.86932 0.0
H2744 H 0.88249 0.69125 0.84995 0.0
H2745 H 0.86099 0.69234 0.81667 0.0
C2746 C 0.87312 0.66774 0.04613 0.0
C2747 C 0.8772 0.6869 0.02396 0.0
C2748 C 0.93031 0.68113 0.02215 0.0
C2749 C 0.92454 0.65817 0.04056 0.0
N2750 N 0.88903 0.62657 0.06684 0.0
N2751 N 0.9094 0.71296 0.99117 0.0
C2752 C 0.89566 0.6509 0.05199 0.0
C2753 C 0.90585 0.69411 1.01218 0.0
N2754 N 0.8476 0.66574 0.06172 0.0
N2755 N 0.95927 0.69088 1.01482 0.0
H2756 H 0.89264 0.72465 0.98564 0.0
H2757 H 0.92833 0.71631 0.97871 0.0
H2758 H 0.97758 0.68192 0.02193 0.0
H2759 H 0.96568 0.70937 1.00376 0.0
H2760 H 0.84478 0.6548 0.08045 0.0
H2761 H 0.83035 0.6774 0.05768 0.0
H2762 H 0.86724 0.6179 0.07237 0.0
H2763 H 0.90458 0.61309 0.07118 0.0
C2764 C 0.24682 0.16715 0.81103 0.0
C2765 C 0.25708 0.13978 0.79607 0.0
C2766 C 0.29755 0.17998 0.77684 0.0
C2767 C 0.2885 0.20743 0.7936 0.0
N2768 N 0.25626 0.22332 0.83235 0.0
N2769 N 0.29594 0.1235 0.76595 0.0
C2770 C 0.26347 0.19957 0.81198 0.0
C2771 C 0.28369 0.14754 0.77968 0.0
N2772 N 0.22031 0.16241 0.82474 0.0
N2773 N 0.31846 0.18454 0.75603 0.0
H2774 H 0.28597 0.10041 0.76566 0.0
H2775 H 0.31706 0.12633 0.7571 0.0
H2776 H 0.32818 0.2065 0.75241 0.0
H2777 H 0.32409 0.16671 0.74025 0.0
H2778 H 0.20865 0.17994 0.83217 0.0
H2779 H 0.20899 0.14045 0.82709 0.0
H2780 H 0.24139 0.22 0.84923 0.0
H2781 H 0.26764 0.24633 0.83461 0.0
C2782 C 0.38756 0.95836 0.37591 0.0
C2783 C 0.3786 0.97647 0.35532 0.0
C2784 C 0.32831 0.94217 0.34574 0.0
C2785 C 0.33969 0.92093 0.36052 0.0
N2786 N 0.37663 0.91285 0.39806 0.0
N2787 N 0.34083 0.98325 0.31751 0.0
C2788 C 0.36793 0.93051 0.37865 0.0
C2789 C 0.34875 0.96832 0.33995 0.0
N2790 N 0.41527 0.96652 0.3925 0.0
N2791 N 0.29807 0.93624 0.33613 0.0
H2792 H 0.35534 1.00168 0.31117 0.0
H2793 H 0.32049 0.97579 0.3034 0.0
H2794 H 0.28311 0.91678 0.34032 0.0
H2795 H 0.28764 0.95192 0.32717 0.0
H2796 H 0.43123 0.98677 0.39226 0.0
H2797 H 0.43123 0.98677 0.39226 0.0
H2798 H 0.39787 0.91869 0.41073 0.0
H2799 H 0.36187 0.89389 0.40319 0.0
C2800 C 0.64859 0.38064 0.59816 0.0
C2801 C 0.6299 0.36445 0.61686 0.0
C2802 C 0.59323 0.39765 0.61462 0.0
C2803 C 0.60818 0.4083 0.59008 0.0
N2804 N 0.65171 0.41365 0.56042 0.0
N2805 N 0.58782 0.36005 0.64807 0.0
C2806 C 0.63682 0.40152 0.58291 0.0
C2807 C 0.60367 0.37446 0.62746 0.0
N2808 N 0.67711 0.37512 0.59468 0.0
N2809 N 0.56888 0.40932 0.62493 0.0
H2810 H 0.59601 0.34393 0.65862 0.0
H2811 H 0.56663 0.36351 0.65444 0.0
H2812 H 0.5607 0.42616 0.61553 0.0
H2813 H 0.55803 0.40408 0.64402 0.0
H2814 H 0.693 0.38726 0.58273 0.0
H2815 H 0.68554 0.35983 0.6063 0.0
H2816 H 0.67116 0.40724 0.55193 0.0
H2817 H 0.64382 0.42953 0.54931 0.0
C2818 C 0.42676 0.8113 0.40374 0.0
C2819 C 0.44426 0.79219 0.38678 0.0
C2820 C 0.41288 0.78862 0.33937 0.0
C2821 C 0.39498 0.80746 0.35597 0.0
N2822 N 0.38065 0.83183 0.4048 0.0
N2823 N 0.44571 0.75245 0.3428 0.0
C2824 C 0.40047 0.81711 0.38854 0.0
C2825 C 0.43474 0.77765 0.35588 0.0
N2826 N 0.4357 0.82444 0.43398 0.0
N2827 N 0.40959 0.78174 0.30791 0.0
H2828 H 0.46106 0.74343 0.35514 0.0
H2829 H 0.43748 0.73913 0.32105 0.0
H2830 H 0.39354 0.78917 0.2949 0.0
H2831 H 0.4243 0.7705 0.29489 0.0
H2832 H 0.42578 0.84109 0.44692 0.0
H2833 H 0.45395 0.81934 0.44604 0.0
H2834 H 0.3815 0.8365 0.42874 0.0
H2835 H 0.36199 0.83772 0.39426 0.0
C2836 C 0.15533 0.70646 0.0874 0.0
C2837 C 0.13043 0.71598 0.10215 0.0
C2838 C 0.09592 0.66993 0.07312 0.0
C2839 C 0.12083 0.65792 0.06153 0.0
N2840 N 0.17506 0.66379 0.05901 0.0
N2841 N 0.07744 0.70246 0.11264 0.0
C2842 C 0.15086 0.67609 0.06858 0.0
C2843 C 0.10116 0.69654 0.09634 0.0
N2844 N 0.18313 0.72623 0.09172 0.0
N2845 N 0.06672 0.65544 0.06232 0.0
H2846 H 0.07885 0.72097 0.13112 0.0
H2847 H 0.07885 0.72097 0.13112 0.0
H2848 H 0.06171 0.63697 0.04351 0.0
H2849 H 0.04785 0.66362 0.07051 0.0
H2850 H 0.20138 0.72206 0.07925 0.0
H2851 H 0.18729 0.74803 0.10629 0.0
H2852 H 0.19761 0.67447 0.06631 0.0
H2853 H 0.17262 0.64196 0.04492 0.0
C2854 C 0.11951 0.29649 0.90072 0.0
C2855 C 0.11149 0.32484 0.91336 0.0
C2856 C 0.16101 0.35354 0.90401 0.0
C2857 C 0.16577 0.326 0.88515 0.0
N2858 N 0.15135 0.27058 0.86683 0.0
N2859 N 0.12469 0.38031 0.9302 0.0
C2860 C 0.14595 0.29705 0.88453 0.0
C2861 C 0.13266 0.35336 0.91674 0.0
N2862 N 0.10121 0.26924 0.90367 0.0
N2863 N 0.18343 0.37977 0.90904 0.0
H2864 H 0.10441 0.38053 0.94052 0.0
H2865 H 0.13749 0.40234 0.93032 0.0
H2866 H 0.20439 0.38015 0.89988 0.0
H2867 H 0.18237 0.40019 0.92416 0.0
H2868 H 0.10661 0.24757 0.89696 0.0
H2869 H 0.08174 0.26878 0.91558 0.0
H2870 H 0.13598 0.24935 0.86251 0.0
H2871 H 0.17088 0.27012 0.85522 0.0
C2872 C 0.58719 0.77368 0.95542 0.0
C2873 C 0.61834 0.782 0.94969 0.0
C2874 C 0.63167 0.7493 0.98502 0.0
C2875 C 0.60036 0.73924 0.9887 0.0
N2876 N 0.54793 0.73651 0.97194 0.0
N2877 N 0.66922 0.77277 0.95429 0.0
C2878 C 0.57802 0.74979 0.9722 0.0
C2879 C 0.6403 0.76835 0.96317 0.0
N2880 N 0.56648 0.78981 0.94672 0.0
N2881 N 0.65323 0.74136 1.00306 0.0
H2882 H 0.67605 0.78589 0.93779 0.0
H2883 H 0.68547 0.76101 0.9609 0.0
H2884 H 0.64777 0.72733 0.01914 0.0
H2885 H 0.67641 0.75066 1.00388 0.0
H2886 H 0.5445 0.78709 0.95365 0.0
H2887 H 0.57173 0.80804 0.93514 0.0
H2888 H 0.53093 0.74063 0.95737 0.0
H2889 H 0.54018 0.71925 0.98423 0.0
C2890 C 0.09649 0.765 0.73053 0.0
C2891 C 0.10571 0.77933 0.7054 0.0
C2892 C 0.15895 0.78658 0.72497 0.0
C2893 C 0.14922 0.7765 0.75212 0.0
N2894 N 0.109 0.75991 0.78282 0.0
N2895 N 0.14563 0.80545 0.67945 0.0
C2896 C 0.11803 0.76692 0.75552 0.0
C2897 C 0.13696 0.79054 0.70277 0.0
N2898 N 0.06756 0.7482 0.72995 0.0
N2899 N 0.189 0.79074 0.71958 0.0
H2900 H 0.13023 0.80797 0.66226 0.0
H2901 H 0.16772 0.8175 0.67852 0.0
H2902 H 0.20594 0.7875 0.73483 0.0
H2903 H 0.19691 0.79465 0.6987 0.0
H2904 H 0.06072 0.73467 0.74607 0.0
H2905 H 0.05103 0.74484 0.71174 0.0
H2906 H 0.08635 0.75515 0.7876 0.0
H2907 H 0.12429 0.76173 0.80191 0.0
C2908 C 0.14953 0.44198 0.48374 0.0
C2909 C 0.16073 0.44609 0.45517 0.0
C2910 C 0.14365 0.49571 0.4619 0.0
C2911 C 0.12541 0.48667 0.48542 0.0
N2912 N 0.1094 0.44871 0.51676 0.0
N2913 N 0.17653 0.48189 0.42204 0.0
C2914 C 0.1281 0.45923 0.49598 0.0
C2915 C 0.16016 0.47455 0.44569 0.0
N2916 N 0.16052 0.42285 0.50004 0.0
N2917 N 0.147 0.52519 0.45656 0.0
H2918 H 0.19355 0.47032 0.4143 0.0
H2919 H 0.17359 0.4994 0.41045 0.0
H2920 H 0.13674 0.54189 0.46884 0.0
H2921 H 0.16216 0.53422 0.442 0.0
H2922 H 0.15451 0.42074 0.52206 0.0
H2923 H 0.17902 0.41305 0.49352 0.0
H2924 H 0.1089 0.4273 0.52296 0.0
H2925 H 0.09221 0.45964 0.52518 0.0
C2926 C 0.44502 0.30845 0.20568 0.0
C2927 C 0.45493 0.27992 0.19953 0.0
C2928 C 0.43379 0.2665 0.2468 0.0
C2929 C 0.42261 0.29424 0.25194 0.0
N2930 N 0.4258 0.3458 0.24238 0.0
N2931 N 0.45901 0.23135 0.21369 0.0
C2932 C 0.43073 0.3165 0.23318 0.0
C2933 C 0.44976 0.25899 0.22026 0.0
N2934 N 0.4487 0.32756 0.18485 0.0
N2935 N 0.42978 0.24802 0.26817 0.0
H2936 H 0.47064 0.22512 0.19454 0.0
H2937 H 0.45408 0.21376 0.22611 0.0
H2938 H 0.41857 0.25371 0.28782 0.0
H2939 H 0.43925 0.22862 0.26801 0.0
H2940 H 0.43889 0.34688 0.18592 0.0
H2941 H 0.45973 0.32279 0.16496 0.0
H2942 H 0.43312 0.36403 0.23123 0.0
H2943 H 0.41745 0.35293 0.26339 0.0
C2944 C 0.68597 0.57159 0.41283 0.0
C2945 C 0.67431 0.55795 0.38057 0.0
C2946 C 0.62229 0.55 0.40531 0.0
C2947 C 0.63458 0.56122 0.4373 0.0
N2948 N 0.68233 0.57542 0.46838 0.0
N2949 N 0.62803 0.52772 0.35125 0.0
C2950 C 0.66745 0.57004 0.43968 0.0
C2951 C 0.6415 0.54562 0.37863 0.0
N2952 N 0.71536 0.58765 0.41921 0.0
N2953 N 0.59144 0.54429 0.39965 0.0
H2954 H 0.64008 0.52261 0.33224 0.0
H2955 H 0.60576 0.51497 0.34845 0.0
H2956 H 0.57715 0.54708 0.41729 0.0
H2957 H 0.58033 0.53996 0.37761 0.0
H2958 H 0.72313 0.60298 0.44007 0.0
H2959 H 0.73188 0.58773 0.40395 0.0
H2960 H 0.70568 0.577 0.47224 0.0
H2961 H 0.67108 0.5748 0.48817 0.0
C2962 C 0.36158 0.96763 0.12116 0.0
C2963 C 0.3327 0.9623 0.1041 0.0
C2964 C 0.31033 0.92836 0.13822 0.0
C2965 C 0.33905 0.93408 0.15545 0.0
N2966 N 0.38943 0.96568 0.16884 0.0
N2967 N 0.27833 0.94493 0.1016 0.0
C2968 C 0.36379 0.95601 0.14876 0.0
C2969 C 0.30664 0.94502 0.11439 0.0
N2970 N 0.38732 0.98165 0.11001 0.0
N2971 N 0.28702 0.9059 0.14347 0.0
H2972 H 0.27491 0.95749 0.08458 0.0
H2973 H 0.25829 0.93516 0.10999 0.0
H2974 H 0.28869 0.89329 0.16078 0.0
H2975 H 0.26676 0.8982 0.12926 0.0
H2976 H 0.40919 0.98271 0.11967 0.0
H2977 H 0.3873 0.98997 0.08961 0.0
H2978 H 0.40708 0.98383 0.16676 0.0
H2979 H 0.39169 0.95762 0.18928 0.0
C2980 C 0.02404 0.55267 0.89924 0.0
C2981 C 1.00088 0.57045 0.90179 0.0
C2982 C 0.02936 0.6037 0.94898 0.0
C2983 C 0.05108 0.5843 0.94732 0.0
N2984 N 0.07754 0.55439 0.91104 0.0
N2985 N 0.98883 0.62008 0.92219 0.0
C2986 C 0.05134 0.56342 0.91916 0.0
C2987 C 1.00568 0.5982 0.92466 0.0
N2988 N 0.01961 0.52467 0.87929 0.0
N2989 N 0.03171 0.62778 0.97344 0.0
H2990 H 0.97311 0.618 0.90341 0.0
H2991 H 0.9928 0.64182 0.93672 0.0
H2992 H 0.05134 0.63573 0.98856 0.0
H2993 H 1.01431 0.63965 0.97869 0.0
H2994 H 0.03594 0.51106 0.87677 0.0
H2995 H 0.9986 0.5131 0.8678 0.0
H2996 H 0.07915 0.54053 0.88979 0.0
H2997 H 0.09853 0.56478 0.92332 0.0
C2998 C 0.28689 0.25743 0.63465 0.0
C2999 C 0.31095 0.26422 0.61558 0.0
C3000 C 0.34298 0.29478 0.66324 0.0
C3001 C 0.31994 0.28524 0.68258 0.0
N3002 N 0.27182 0.25148 0.68547 0.0
N3003 N 0.3641 0.28546 0.61359 0.0
C3004 C 0.29236 0.26505 0.66785 0.0
C3005 C 0.33955 0.28196 0.63045 0.0
N3006 N 0.25818 0.24447 0.62105 0.0
N3007 N 0.3679 0.31714 0.67592 0.0
H3008 H 0.36272 0.27655 0.58999 0.0
H3009 H 0.38627 0.29472 0.62343 0.0
H3010 H 0.37096 0.32762 0.69923 0.0
H3011 H 0.384 0.3275 0.66291 0.0
H3012 H 0.23903 0.24202 0.63335 0.0
H3013 H 0.25299 0.23915 0.59722 0.0
H3014 H 0.25305 0.23395 0.67623 0.0
H3015 H 0.27513 0.25525 0.70942 0.0
C3016 C 0.67576 0.54024 0.15596 0.0
C3017 C 0.66387 0.54749 0.18553 0.0
C3018 C 0.61848 0.55714 0.15306 0.0
C3019 C 0.63185 0.55323 0.12391 0.0
N3020 N 0.67856 0.54574 0.1021 0.0
N3021 N 0.62434 0.56994 0.20962 0.0
C3022 C 0.66187 0.54594 0.12691 0.0
C3023 C 0.63531 0.55774 0.18301 0.0
N3024 N 0.70014 0.52626 0.1549 0.0
N3025 N 0.58851 0.55876 0.15244 0.0
H3026 H 0.63549 0.57206 0.23131 0.0
H3027 H 0.60612 0.58117 0.21003 0.0
H3028 H 0.5752 0.55729 0.13209 0.0
H3029 H 0.57602 0.55791 0.17152 0.0
H3030 H 0.708 0.51663 0.1344 0.0
H3031 H 0.71047 0.5213 0.17442 0.0
H3032 H 0.70153 0.54481 0.10319 0.0
H3033 H 0.67048 0.54975 0.08118 0.0
C3034 C 0.31557 0.89485 0.92955 0.0
C3035 C 0.32023 0.92636 0.92503 0.0
C3036 C 0.33713 0.90773 0.87348 0.0
C3037 C 0.33292 0.87652 0.87789 0.0
N3038 N 0.31377 0.83979 0.90892 0.0
N3039 N 0.31937 0.95581 0.88463 0.0
C3040 C 0.3209 0.87003 0.90567 0.0
C3041 C 0.32656 0.93089 0.89474 0.0
N3042 N 0.30458 0.88807 0.95615 0.0
N3043 N 0.3509 0.91562 0.84855 0.0
H3044 H 0.30642 0.97004 0.89674 0.0
H3045 H 0.32125 0.959 0.86206 0.0
H3046 H 0.35853 0.89975 0.83216 0.0
H3047 H 0.35737 0.93855 0.84589 0.0
H3048 H 0.30615 0.86791 0.96401 0.0
H3049 H 0.29245 0.90211 0.96974 0.0
H3050 H 0.30171 0.83227 0.92644 0.0
H3051 H 0.31896 0.82164 0.89308 0.0
C3052 C 0.962 0.47016 0.72604 0.0
C3053 C 0.94798 0.49621 0.73145 0.0
C3054 C 0.94641 0.49684 0.67657 0.0
C3055 C 0.96968 0.47962 0.67445 0.0
N3056 N 0.97867 0.43241 0.68735 0.0
N3057 N 0.92079 0.53031 0.7104 0.0
C3058 C 0.97087 0.46043 0.69618 0.0
C3059 C 0.93772 0.50799 0.70617 0.0
N3060 N 0.96766 0.45558 0.74949 0.0
N3061 N 0.92981 0.49829 0.65054 0.0
H3062 H 0.91311 0.53818 0.73163 0.0
H3063 H 0.91557 0.54172 0.693 0.0
H3064 H 0.93292 0.48554 0.62912 0.0
H3065 H 0.91069 0.50823 0.65089 0.0
H3066 H 0.98073 0.43864 0.74761 0.0
H3067 H 0.95985 0.46114 0.77115 0.0
H3068 H 0.97761 0.41596 0.70125 0.0
H3069 H 0.98339 0.42489 0.66469 0.0
C3070 C 0.30362 0.22466 0.394 0.0
C3071 C 0.31618 0.23974 0.4251 0.0
C3072 C 0.34669 0.28042 0.39969 0.0
C3073 C 0.33026 0.26746 0.37003 0.0
N3074 N 0.28479 0.2322 0.34441 0.0
N3075 N 0.35023 0.28504 0.4556 0.0
C3076 C 0.30631 0.24122 0.36899 0.0
C3077 C 0.3375 0.26876 0.42727 0.0
N3078 N 0.2903 0.19382 0.38673 0.0
N3079 N 0.3725 0.30274 0.4015 0.0
H3080 H 0.34766 0.27631 0.47569 0.0
H3081 H 0.36232 0.30791 0.45931 0.0
H3082 H 0.38077 0.31066 0.38227 0.0
H3083 H 0.38746 0.31096 0.42133 0.0
H3084 H 0.28345 0.18219 0.36406 0.0
H3085 H 0.29003 0.17838 0.40138 0.0
H3086 H 0.26517 0.21524 0.34399 0.0
H3087 H 0.28435 0.24424 0.32652 0.0
C3088 C 0.44864 0.61274 0.52348 0.0
C3089 C 0.43167 0.603 0.54794 0.0
C3090 C 0.47464 0.57564 0.55799 0.0
C3091 C 0.49281 0.58738 0.5352 0.0
N3092 N 0.49678 0.62167 0.49934 0.0
N3093 N 0.43331 0.57897 0.5918 0.0
C3094 C 0.47954 0.60728 0.519 0.0
C3095 C 0.44629 0.58564 0.56605 0.0
N3096 N 0.43485 0.62683 0.50363 0.0
N3097 N 0.48376 0.55349 0.57135 0.0
H3098 H 0.41331 0.58581 0.5983 0.0
H3099 H 0.44377 0.56955 0.60818 0.0
H3100 H 0.50292 0.54482 0.56532 0.0
H3101 H 0.47082 0.54143 0.58576 0.0
H3102 H 0.44357 0.63142 0.48329 0.0
H3103 H 0.41345 0.63203 0.50654 0.0
H3104 H 0.49075 0.6391 0.48927 0.0
H3105 H 0.51837 0.61767 0.49489 0.0
C3106 C 0.9573 0.97814 0.57728 0.0
C3107 C 0.94914 0.9496 0.55526 0.0
C3108 C 0.99454 0.96672 0.52857 0.0
C3109 C 1.00325 0.99525 0.55081 0.0
N3110 N 0.99617 0.02382 0.60062 0.0
N3111 N 0.96493 0.9138 0.5149 0.0
C3112 C 0.98544 0.99977 0.57634 0.0
C3113 C 0.96965 0.94285 0.53289 0.0
N3114 N 0.93809 0.98466 0.59932 0.0
N3115 N 1.00812 0.9633 0.5016 0.0
H3116 H 0.94601 0.89644 0.51567 0.0
H3117 H 0.98103 0.90614 0.50102 0.0
H3118 H 0.02308 0.9813 0.49506 0.0
H3119 H 1.00136 0.94424 0.48354 0.0
H3120 H 0.94032 1.00635 0.6136 0.0
H3121 H 0.91866 0.96879 0.60214 0.0
H3122 H 0.98605 0.02695 0.62124 0.0
H3123 H 1.01703 0.03905 0.6015 0.0
C3124 C 0.90329 0.18189 0.32189 0.0
C3125 C 0.91791 0.16677 0.29602 0.0
C3126 C 0.90659 0.21476 0.27347 0.0
C3127 C 0.88902 0.22754 0.29793 0.0
N3128 N 0.8685 0.21507 0.34396 0.0
N3129 N 0.92758 0.17179 0.24423 0.0
C3130 C 0.8868 0.20826 0.32123 0.0
C3131 C 0.91789 0.18453 0.27132 0.0
N3132 N 0.90699 0.17273 0.34926 0.0
N3133 N 0.91288 0.23177 0.25124 0.0
H3134 H 0.93574 0.15134 0.24152 0.0
H3135 H 0.92504 0.1798 0.22386 0.0
H3136 H 0.90456 0.25182 0.25078 0.0
H3137 H 0.92808 0.22746 0.23486 0.0
H3138 H 0.90054 0.18394 0.36985 0.0
H3139 H 0.92044 0.15692 0.35243 0.0
H3140 H 0.86177 0.20051 0.35925 0.0
H3141 H 0.85806 0.23408 0.34585 0.0
C3142 C 0.74375 0.08072 0.0711 0.0
C3143 C 0.76015 0.10557 0.05847 0.0
C3144 C 0.70882 0.11675 0.04437 0.0
C3145 C 0.69215 0.08983 0.05376 0.0
N3146 N 0.69684 0.04224 0.06994 0.0
N3147 N 0.75534 0.142 0.02592 0.0
C3148 C 0.71059 0.07083 0.06552 0.0
C3149 C 0.74164 0.12194 0.04313 0.0
N3150 N 0.75965 0.06675 0.08931 0.0
N3151 N 0.69373 0.13889 0.03823 0.0
H3152 H 0.77844 0.14501 0.02297 0.0
H3153 H 0.74328 0.1523 1.01153 0.0
H3154 H 0.67069 0.13763 0.04091 0.0
H3155 H 0.70481 0.16029 0.03423 0.0
H3156 H 0.74924 0.05095 0.10202 0.0
H3157 H 0.78329 0.07274 0.09339 0.0
H3158 H 0.70889 0.02617 0.07568 0.0
H3159 H 0.67367 0.03313 0.06447 0.0
C3160 C 0.25849 0.4954 0.26144 0.0
C3161 C 0.27225 0.51131 0.23945 0.0
C3162 C 0.31592 0.48673 0.24213 0.0
C3163 C 0.30485 0.47553 0.26825 0.0
N3164 N 0.26541 0.46803 0.30269 0.0
N3165 N 0.30548 0.51138 0.19934 0.0
C3166 C 0.27579 0.47907 0.2776 0.0
C3167 C 0.29844 0.50351 0.22677 0.0
N3168 N 0.2287 0.49521 0.26603 0.0
N3169 N 0.34359 0.4824 0.23295 0.0
H3170 H 0.29091 0.52142 0.18719 0.0
H3171 H 0.32329 0.50518 0.18725 0.0
H3172 H 0.35694 0.47011 0.24368 0.0
H3173 H 0.35419 0.49235 0.21583 0.0
H3174 H 0.21632 0.48173 0.27971 0.0
H3175 H 0.21541 0.50611 0.2535 0.0
H3176 H 0.2459 0.47263 0.31259 0.0
H3177 H 0.27749 0.45593 0.31507 0.0
C3178 C 0.26546 0.41308 0.01772 0.0
C3179 C 0.2839 0.4237 0.04589 0.0
C3180 C 0.25243 0.46185 0.0622 0.0
C3181 C 0.23877 0.45591 0.03147 0.0
N3182 N 0.23007 0.4243 0.98026 0.0
N3183 N 0.29209 0.45342 0.09742 0.0
C3184 C 0.24409 0.43053 1.00947 0.0
C3185 C 0.27595 0.44621 0.06918 0.0
N3186 N 0.26901 0.38651 0.99888 0.0
N3187 N 0.24312 0.48272 0.08435 0.0
H3188 H 0.30828 0.44098 0.10289 0.0
H3189 H 0.29002 0.47158 0.11502 0.0
H3190 H 0.22605 0.4944 0.07964 0.0
H3191 H 0.25071 0.48714 0.1076 0.0
H3192 H 0.25508 0.37582 0.97879 0.0
H3193 H 0.28468 0.37381 1.00508 0.0
H3194 H 0.23543 0.40844 0.96216 0.0
H3195 H 0.21382 0.43616 0.97372 0.0
C3196 C 0.88886 0.96925 0.26197 0.0
C3197 C 0.91754 0.98464 0.27955 0.0
C3198 C 0.91412 0.93276 0.29809 0.0
C3199 C 0.88642 0.91662 0.2792 0.0
N3200 N 0.8506 0.9217 0.23936 0.0
N3201 N 0.95895 0.97553 0.3105 0.0
C3202 C 0.87472 0.93587 0.26045 0.0
C3203 C 0.93038 0.96443 0.2961 0.0
N3204 N 0.87483 0.98663 0.24598 0.0
N3205 N 0.92436 0.91862 0.32008 0.0
H3206 H 0.97039 0.99829 0.31173 0.0
H3207 H 0.97192 0.96176 0.31938 0.0
H3208 H 0.91338 0.89686 0.32324 0.0
H3209 H 0.94164 0.92972 0.33732 0.0
H3210 H 0.8527 0.97951 0.23555 0.0
H3211 H 0.88471 1.0095 0.24514 0.0
H3212 H 0.84222 0.93203 0.22255 0.0
H3213 H 0.8405 0.89828 0.2368 0.0
C3214 C 0.76193 0.17975 0.77651 0.0
C3215 C 0.768 0.16085 0.74935 0.0
C3216 C 0.80035 0.2069 0.73624 0.0
C3217 C 0.79834 0.22376 0.76632 0.0
N3218 N 0.78521 0.2211 0.81808 0.0
N3219 N 0.79221 0.15628 0.70188 0.0
C3220 C 0.78146 0.20864 0.78728 0.0
C3221 C 0.78718 0.17434 0.72874 0.0
N3222 N 0.73731 0.17091 0.79197 0.0
N3223 N 0.81334 0.22197 0.71459 0.0
H3224 H 0.78158 0.13293 0.69503 0.0
H3225 H 0.80824 0.16387 0.68737 0.0
H3226 H 0.82271 0.24567 0.71913 0.0
H3227 H 0.81288 0.21151 0.69152 0.0
H3228 H 0.73076 0.18623 0.80989 0.0
H3229 H 0.72253 0.14934 0.78617 0.0
H3230 H 0.77451 0.20973 0.83433 0.0
H3231 H 0.80224 0.24038 0.82753 0.0
loop_
_geom_bond_atom_site_label_1
_geom_bond_atom_site_label_2
_geom_bond_distance
_geom_bond_site_symmetry_2
_ccdc_geom_bond_type
Mn0 O5 2.095 . S
Mn0 O15 2.162 . S
Mn0 O16 2.297 . S
Mn0 O24 2.385 . S
Mn0 O25 2.209 . S
Mn0 O26 2.094 . S
Mn1 O6 2.121 . S
Mn1 N8 2.257 . S
Mn1 N17 2.282 . S
Mn1 O25 2.215 . S
Mn1 O27 2.117 . S
C2 O24 1.234 . S
C2 O25 1.283 . S
C3 O15 1.281 . S
C3 O16 1.236 . S
C4 O26 1.240 . S
C4 O27 1.264 . S
O5 Mn0 2.095 . S
O5 C14 1.250 . S
O6 Mn1 2.121 . S
O6 C14 1.258 . S
C7 N8 1.326 . S
C7 C11 1.460 . S
C7 H13 0.929 . S
N8 Mn1 2.257 . S
N8 C7 1.326 . S
N8 C12 1.362 . S
C9 C10 1.258 . S
C9 C12 1.431 . S
C9 C29 1.449 . S
C10 C9 1.258 . S
C10 C11 1.477 . S
C10 H30 0.931 . S
C11 C7 1.460 . S
C11 C10 1.477 . S
C11 H31 0.930 . S
C12 N8 1.362 . S
C12 C9 1.431 . S
C12 C22 1.476 . S
H13 C7 0.929 . S
C14 O5 1.250 . S
C14 O6 1.258 . S
O15 Mn0 2.162 . S
O15 C3 1.281 . S
O16 Mn0 2.297 . S
O16 C3 1.236 . S
N17 Mn1 2.282 . S
N17 C18 1.328 . S
N17 C22 1.318 . S
C18 N17 1.328 . S
C18 C19 1.457 . S
C18 H23 0.929 . S
C19 C18 1.457 . S
C19 C20 1.291 . S
C19 H32 0.931 . S
C20 C19 1.291 . S
C20 C21 1.373 . S
C20 H33 0.929 . S
C21 C20 1.373 . S
C21 C22 1.396 . S
C21 C28 1.403 . S
C22 C12 1.476 . S
C22 N17 1.318 . S
C22 C21 1.396 . S
H23 C18 0.929 . S
O24 Mn0 2.385 . S
O24 C2 1.234 . S
O25 Mn0 2.209 . S
O25 Mn1 2.215 . S
O25 C2 1.283 . S
O26 Mn0 2.094 . S
O26 C4 1.240 . S
O27 Mn1 2.117 . S
O27 C4 1.264 . S
C28 C21 1.403 . S
C28 C29 1.399 . S
C28 H34 0.929 . S
C29 C9 1.449 . S
C29 C28 1.399 . S
C29 H35 0.930 . S
H30 C10 0.931 . S
H31 C11 0.930 . S
H32 C19 0.931 . S
H33 C20 0.929 . S
H34 C28 0.929 . S
H35 C29 0.930 . S
Mn36 O41 2.081 1_455 S
Mn36 O51 2.162 1_455 S
Mn36 O52 2.299 1_455 S
Mn36 O60 2.400 . S
Mn36 O61 2.215 . S
Mn36 O62 2.093 . S
Mn37 O42 2.121 1_455 S
Mn37 N44 2.257 . S
Mn37 N53 2.282 . S
Mn37 O61 2.215 . S
Mn37 O63 2.117 . S
C38 O60 1.234 . S
C38 O61 1.283 . S
C39 O51 1.281 . S
C39 O52 1.236 . S
C40 O62 1.240 . S
C40 O63 1.264 . S
O41 Mn36 2.081 1_655 S
O41 C50 1.250 . S
O42 Mn37 2.121 1_655 S
O42 C50 1.258 . S
C43 N44 1.326 . S
C43 C47 1.460 . S
C43 H49 0.929 1_455 S
N44 Mn37 2.257 . S
N44 C43 1.326 . S
N44 C48 1.362 . S
C45 C46 1.258 . S
C45 C48 1.431 . S
C45 C65 1.449 . S
C46 C45 1.258 . S
C46 C47 1.477 . S
C46 H66 0.931 . S
C47 C43 1.460 . S
C47 C46 1.477 . S
C47 H67 0.930 . S
C48 N44 1.362 . S
C48 C45 1.431 . S
C48 C58 1.476 . S
H49 C43 0.929 1_655 S
C50 O41 1.250 . S
C50 O42 1.258 . S
O51 Mn36 2.162 1_655 S
O51 C39 1.281 . S
O52 Mn36 2.299 1_655 S
O52 C39 1.236 . S
N53 Mn37 2.282 . S
N53 C54 1.328 . S
N53 C58 1.318 . S
C54 N53 1.328 . S
C54 C55 1.457 . S
C54 H59 0.929 . S
C55 C54 1.457 . S
C55 C56 1.291 . S
C55 H68 0.931 . S
C56 C55 1.291 . S
C56 C57 1.373 . S
C56 H69 0.929 . S
C57 C56 1.373 . S
C57 C58 1.396 . S
C57 C64 1.403 . S
C58 C48 1.476 . S
C58 N53 1.318 . S
C58 C57 1.396 . S
H59 C54 0.929 . S
O60 Mn36 2.400 . S
O60 C38 1.234 . S
O61 Mn36 2.215 . S
O61 Mn37 2.215 . S
O61 C38 1.283 . S
O62 Mn36 2.093 . S
O62 C40 1.240 . S
O63 Mn37 2.117 . S
O63 C40 1.264 . S
C64 C57 1.403 . S
C64 C65 1.399 . S
C64 H70 0.929 . S
C65 C45 1.449 . S
C65 C64 1.399 . S
C65 H71 0.930 . S
H66 C46 0.931 . S
H67 C47 0.930 . S
H68 C55 0.931 . S
H69 C56 0.929 . S
H70 C64 0.929 . S
H71 C65 0.930 . S
Mn72 O77 2.095 . S
Mn72 O87 2.162 . S
Mn72 O88 2.297 . S
Mn72 O96 2.385 . S
Mn72 O97 2.209 . S
Mn72 O98 2.094 . S
Mn73 O78 2.121 . S
Mn73 N80 2.257 . S
Mn73 N89 2.282 . S
Mn73 O97 2.215 . S
Mn73 O99 2.117 . S
C74 O96 1.234 . S
C74 O97 1.283 . S
C75 O87 1.281 . S
C75 O88 1.236 . S
C76 O98 1.240 . S
C76 O99 1.264 . S
O77 Mn72 2.095 . S
O77 C86 1.250 . S
O78 Mn73 2.121 . S
O78 C86 1.258 . S
C79 N80 1.326 . S
C79 C83 1.460 . S
C79 H85 0.929 . S
N80 Mn73 2.257 . S
N80 C79 1.326 . S
N80 C84 1.362 . S
C81 C82 1.258 . S
C81 C84 1.431 . S
C81 C101 1.449 . S
C82 C81 1.258 . S
C82 C83 1.477 . S
C82 H102 0.931 . S
C83 C79 1.460 . S
C83 C82 1.477 . S
C83 H103 0.930 . S
C84 N80 1.362 . S
C84 C81 1.431 . S
C84 C94 1.476 . S
H85 C79 0.929 . S
C86 O77 1.250 . S
C86 O78 1.258 . S
O87 Mn72 2.162 . S
O87 C75 1.281 . S
O88 Mn72 2.297 . S
O88 C75 1.236 . S
N89 Mn73 2.282 . S
N89 C90 1.328 . S
N89 C94 1.318 . S
C90 N89 1.328 . S
C90 C91 1.457 . S
C90 H95 0.929 . S
C91 C90 1.457 . S
C91 C92 1.291 . S
C91 H104 0.931 . S
C92 C91 1.291 . S
C92 C93 1.373 . S
C92 H105 0.929 . S
C93 C92 1.373 . S
C93 C94 1.396 . S
C93 C100 1.403 . S
C94 C84 1.476 . S
C94 N89 1.318 . S
C94 C93 1.396 . S
H95 C90 0.929 . S
O96 Mn72 2.385 . S
O96 C74 1.234 . S
O97 Mn72 2.209 . S
O97 Mn73 2.215 . S
O97 C74 1.283 . S
O98 Mn72 2.094 . S
O98 C76 1.240 . S
O99 Mn73 2.117 . S
O99 C76 1.264 . S
C100 C93 1.403 . S
C100 C101 1.399 . S
C100 H106 0.929 . S
C101 C81 1.449 . S
C101 C100 1.399 . S
C101 H107 0.930 . S
H102 C82 0.931 . S
H103 C83 0.930 . S
H104 C91 0.931 . S
H105 C92 0.929 . S
H106 C100 0.929 . S
H107 C101 0.930 . S
Mn108 O113 2.095 . S
Mn108 O123 2.162 . S
Mn108 O124 2.297 . S
Mn108 O132 2.385 . S
Mn108 O133 2.209 . S
Mn108 O134 2.094 . S
Mn109 O114 2.121 . S
Mn109 N116 2.257 . S
Mn109 N125 2.282 . S
Mn109 O133 2.215 . S
Mn109 O135 2.117 . S
C110 O132 1.234 . S
C110 O133 1.283 . S
C111 O123 1.281 . S
C111 O124 1.236 . S
C112 O134 1.240 . S
C112 O135 1.264 . S
O113 Mn108 2.095 . S
O113 C122 1.250 . S
O114 Mn109 2.121 . S
O114 C122 1.258 . S
C115 N116 1.326 . S
C115 C119 1.460 1_554 S
C115 H121 0.929 . S
N116 Mn109 2.257 . S
N116 C115 1.326 . S
N116 C120 1.362 . S
C117 C118 1.258 . S
C117 C120 1.431 1_556 S
C117 C137 1.449 . S
C118 C117 1.258 . S
C118 C119 1.477 . S
C118 H138 0.931 . S
C119 C115 1.460 1_556 S
C119 C118 1.477 . S
C119 H139 0.930 . S
C120 N116 1.362 . S
C120 C117 1.431 1_554 S
C120 C130 1.476 . S
H121 C115 0.929 . S
C122 O113 1.250 . S
C122 O114 1.258 . S
O123 Mn108 2.162 . S
O123 C111 1.281 . S
O124 Mn108 2.297 . S
O124 C111 1.236 . S
N125 Mn109 2.282 . S
N125 C126 1.328 . S
N125 C130 1.318 . S
C126 N125 1.328 . S
C126 C127 1.457 . S
C126 H131 0.929 . S
C127 C126 1.457 . S
C127 C128 1.291 . S
C127 H140 0.931 . S
C128 C127 1.291 . S
C128 C129 1.373 . S
C128 H141 0.929 . S
C129 C128 1.373 . S
C129 C130 1.396 . S
C129 C136 1.403 . S
C130 C120 1.476 . S
C130 N125 1.318 . S
C130 C129 1.396 . S
H131 C126 0.929 . S
O132 Mn108 2.385 . S
O132 C110 1.234 . S
O133 Mn108 2.209 . S
O133 Mn109 2.215 . S
O133 C110 1.283 . S
O134 Mn108 2.094 . S
O134 C112 1.240 . S
O135 Mn109 2.117 . S
O135 C112 1.264 . S
C136 C129 1.403 . S
C136 C137 1.399 1_554 S
C136 H142 0.929 1_554 S
C137 C117 1.449 . S
C137 C136 1.399 1_556 S
C137 H143 0.930 . S
H138 C118 0.931 . S
H139 C119 0.930 . S
H140 C127 0.931 . S
H141 C128 0.929 . S
H142 C136 0.929 1_556 S
H143 C137 0.930 . S
Mn144 O149 2.095 . S
Mn144 O159 2.162 . S
Mn144 O160 2.297 . S
Mn144 O168 2.385 . S
Mn144 O169 2.209 . S
Mn144 O170 2.094 . S
Mn145 O150 2.121 . S
Mn145 N152 2.257 . S
Mn145 N161 2.282 . S
Mn145 O169 2.215 . S
Mn145 O171 2.117 . S
C146 O168 1.234 . S
C146 O169 1.283 . S
C147 O159 1.281 . S
C147 O160 1.236 . S
C148 O170 1.240 . S
C148 O171 1.264 . S
O149 Mn144 2.095 . S
O149 C158 1.250 . S
O150 Mn145 2.121 . S
O150 C158 1.258 . S
C151 N152 1.326 . S
C151 C155 1.460 1_554 S
C151 H157 0.929 . S
N152 Mn145 2.257 . S
N152 C151 1.326 . S
N152 C156 1.362 . S
C153 C154 1.258 . S
C153 C156 1.431 1_556 S
C153 C173 1.449 . S
C154 C153 1.258 . S
C154 C155 1.477 . S
C154 H174 0.931 . S
C155 C151 1.460 1_556 S
C155 C154 1.477 . S
C155 H175 0.930 . S
C156 N152 1.362 . S
C156 C153 1.431 1_554 S
C156 C166 1.476 . S
H157 C151 0.929 . S
C158 O149 1.250 . S
C158 O150 1.258 . S
O159 Mn144 2.162 . S
O159 C147 1.281 . S
O160 Mn144 2.297 . S
O160 C147 1.236 . S
N161 Mn145 2.282 . S
N161 C162 1.328 . S
N161 C166 1.318 . S
C162 N161 1.328 . S
C162 C163 1.457 . S
C162 H167 0.929 . S
C163 C162 1.457 . S
C163 C164 1.291 . S
C163 H176 0.933 . S
C164 C163 1.291 . S
C164 C165 1.373 . S
C164 H177 0.929 1_455 S
C165 C164 1.373 . S
C165 C166 1.396 . S
C165 C172 1.403 1_554 S
C166 C156 1.476 . S
C166 N161 1.318 . S
C166 C165 1.396 . S
H167 C162 0.929 . S
O168 Mn144 2.385 . S
O168 C146 1.234 . S
O169 Mn144 2.209 . S
O169 Mn145 2.215 . S
O169 C146 1.283 . S
O170 Mn144 2.094 . S
O170 C148 1.240 . S
O171 Mn145 2.117 . S
O171 C148 1.264 . S
C172 C165 1.403 1_556 S
C172 C173 1.399 . S
C172 H178 0.929 . S
C173 C153 1.449 . S
C173 C172 1.399 . S
C173 H179 0.930 . S
H174 C154 0.931 . S
H175 C155 0.930 . S
H176 C163 0.933 . S
H177 C164 0.929 1_655 S
H178 C172 0.929 . S
H179 C173 0.930 . S
Mn180 O185 2.095 . S
Mn180 O195 2.162 . S
Mn180 O196 2.297 . S
Mn180 O204 2.385 . S
Mn180 O205 2.209 . S
Mn180 O206 2.094 . S
Mn181 O186 2.121 . S
Mn181 N188 2.257 . S
Mn181 N197 2.282 . S
Mn181 O205 2.215 . S
Mn181 O207 2.117 . S
C182 O204 1.234 . S
C182 O205 1.283 . S
C183 O195 1.281 . S
C183 O196 1.236 . S
C184 O206 1.240 . S
C184 O207 1.264 . S
O185 Mn180 2.095 . S
O185 C194 1.250 . S
O186 Mn181 2.121 . S
O186 C194 1.258 . S
C187 N188 1.326 . S
C187 C191 1.460 . S
C187 H193 0.929 . S
N188 Mn181 2.257 . S
N188 C187 1.326 . S
N188 C192 1.362 . S
C189 C190 1.258 . S
C189 C192 1.431 . S
C189 C209 1.449 . S
C190 C189 1.258 . S
C190 C191 1.477 . S
C190 H210 0.931 . S
C191 C187 1.460 . S
C191 C190 1.477 . S
C191 H211 0.930 . S
C192 N188 1.362 . S
C192 C189 1.431 . S
C192 C202 1.476 . S
H193 C187 0.929 . S
C194 O185 1.250 . S
C194 O186 1.258 . S
O195 Mn180 2.162 . S
O195 C183 1.281 . S
O196 Mn180 2.297 . S
O196 C183 1.236 . S
N197 Mn181 2.282 . S
N197 C198 1.328 . S
N197 C202 1.318 . S
C198 N197 1.328 . S
C198 C199 1.457 . S
C198 H203 0.929 . S
C199 C198 1.457 . S
C199 C200 1.291 . S
C199 H212 0.931 . S
C200 C199 1.291 . S
C200 C201 1.373 . S
C200 H213 0.929 . S
C201 C200 1.373 . S
C201 C202 1.396 . S
C201 C208 1.403 . S
C202 C192 1.476 . S
C202 N197 1.318 . S
C202 C201 1.396 . S
H203 C198 0.929 . S
O204 Mn180 2.385 . S
O204 C182 1.234 . S
O205 Mn180 2.209 . S
O205 Mn181 2.215 . S
O205 C182 1.283 . S
O206 Mn180 2.094 . S
O206 C184 1.240 . S
O207 Mn181 2.117 . S
O207 C184 1.264 . S
C208 C201 1.403 . S
C208 C209 1.399 . S
C208 H214 0.929 . S
C209 C189 1.449 . S
C209 C208 1.399 . S
C209 H215 0.930 . S
H210 C190 0.931 . S
H211 C191 0.930 . S
H212 C199 0.931 . S
H213 C200 0.929 . S
H214 C208 0.929 . S
H215 C209 0.930 . S
Mn216 O221 2.095 . S
Mn216 O231 2.162 . S
Mn216 O232 2.297 . S
Mn216 O240 2.385 . S
Mn216 O241 2.209 . S
Mn216 O242 2.094 . S
Mn217 O222 2.121 . S
Mn217 N224 2.257 . S
Mn217 N233 2.282 . S
Mn217 O241 2.215 . S
Mn217 O243 2.117 . S
C218 O240 1.234 . S
C218 O241 1.283 . S
C219 O231 1.281 . S
C219 O232 1.236 . S
C220 O242 1.240 . S
C220 O243 1.264 . S
O221 Mn216 2.095 . S
O221 C230 1.250 . S
O222 Mn217 2.121 . S
O222 C230 1.258 . S
C223 N224 1.326 . S
C223 C227 1.460 . S
C223 H229 0.929 . S
N224 Mn217 2.257 . S
N224 C223 1.326 . S
N224 C228 1.362 . S
C225 C226 1.258 . S
C225 C228 1.431 . S
C225 C245 1.449 . S
C226 C225 1.258 . S
C226 C227 1.477 . S
C226 H246 0.931 . S
C227 C223 1.460 . S
C227 C226 1.477 . S
C227 H247 0.930 . S
C228 N224 1.362 . S
C228 C225 1.431 . S
C228 C238 1.476 . S
H229 C223 0.929 . S
C230 O221 1.250 . S
C230 O222 1.258 . S
O231 Mn216 2.162 . S
O231 C219 1.281 . S
O232 Mn216 2.297 . S
O232 C219 1.236 . S
N233 Mn217 2.282 . S
N233 C234 1.328 . S
N233 C238 1.318 . S
C234 N233 1.328 . S
C234 C235 1.457 . S
C234 H239 0.929 . S
C235 C234 1.457 . S
C235 C236 1.291 . S
C235 H248 0.931 . S
C236 C235 1.291 . S
C236 C237 1.373 . S
C236 H249 0.929 . S
C237 C236 1.373 . S
C237 C238 1.396 . S
C237 C244 1.403 . S
C238 C228 1.476 . S
C238 N233 1.318 . S
C238 C237 1.396 . S
H239 C234 0.929 . S
O240 Mn216 2.385 . S
O240 C218 1.234 . S
O241 Mn216 2.209 . S
O241 Mn217 2.215 . S
O241 C218 1.283 . S
O242 Mn216 2.094 . S
O242 C220 1.240 . S
O243 Mn217 2.117 . S
O243 C220 1.264 . S
C244 C237 1.403 . S
C244 C245 1.399 . S
C244 H250 0.929 . S
C245 C225 1.449 . S
C245 C244 1.399 . S
C245 H251 0.930 . S
H246 C226 0.931 . S
H247 C227 0.930 . S
H248 C235 0.931 . S
H249 C236 0.929 . S
H250 C244 0.929 . S
H251 C245 0.930 . S
Mn252 O257 2.095 . S
Mn252 O267 2.162 . S
Mn252 O268 2.297 . S
Mn252 O276 2.385 1_455 S
Mn252 O277 2.200 1_455 S
Mn252 O278 2.094 . S
Mn253 O258 2.121 . S
Mn253 N260 2.257 . S
Mn253 N269 2.282 1_455 S
Mn253 O277 2.209 1_455 S
Mn253 O279 2.117 . S
C254 O276 1.234 . S
C254 O277 1.301 . S
C255 O267 1.281 . S
C255 O268 1.236 . S
C256 O278 1.240 . S
C256 O279 1.264 . S
O257 Mn252 2.095 . S
O257 C266 1.250 . S
O258 Mn253 2.121 . S
O258 C266 1.258 . S
C259 N260 1.326 . S
C259 C263 1.460 . S
C259 H265 0.929 . S
N260 Mn253 2.257 . S
N260 C259 1.326 . S
N260 C264 1.362 1_455 S
C261 C262 1.258 . S
C261 C264 1.431 . S
C261 C281 1.449 . S
C262 C261 1.258 . S
C262 C263 1.477 1_655 S
C262 H282 0.931 . S
C263 C259 1.460 . S
C263 C262 1.477 1_455 S
C263 H283 0.930 . S
C264 N260 1.362 1_655 S
C264 C261 1.431 . S
C264 C274 1.476 . S
H265 C259 0.929 . S
C266 O257 1.250 . S
C266 O258 1.258 . S
O267 Mn252 2.162 . S
O267 C255 1.281 . S
O268 Mn252 2.297 . S
O268 C255 1.236 . S
N269 Mn253 2.282 1_655 S
N269 C270 1.328 . S
N269 C274 1.318 . S
C270 N269 1.328 . S
C270 C271 1.457 . S
C270 H275 0.929 . S
C271 C270 1.457 . S
C271 C272 1.291 . S
C271 H284 0.931 . S
C272 C271 1.291 . S
C272 C273 1.373 . S
C272 H285 0.929 . S
C273 C272 1.373 . S
C273 C274 1.396 . S
C273 C280 1.403 . S
C274 C264 1.476 . S
C274 N269 1.318 . S
C274 C273 1.396 . S
H275 C270 0.929 . S
O276 Mn252 2.385 1_655 S
O276 C254 1.234 . S
O277 Mn252 2.200 1_655 S
O277 Mn253 2.209 1_655 S
O277 C254 1.301 . S
O278 Mn252 2.094 . S
O278 C256 1.240 . S
O279 Mn253 2.117 . S
O279 C256 1.264 . S
C280 C273 1.403 . S
C280 C281 1.399 . S
C280 H286 0.929 . S
C281 C261 1.449 . S
C281 C280 1.399 . S
C281 H287 0.930 . S
H282 C262 0.931 . S
H283 C263 0.930 . S
H284 C271 0.931 . S
H285 C272 0.929 . S
H286 C280 0.929 . S
H287 C281 0.930 . S
Mn288 O293 2.095 . S
Mn288 O303 2.162 . S
Mn288 O304 2.297 1_545 S
Mn288 O312 2.385 1_545 S
Mn288 O313 2.209 1_545 S
Mn288 O314 2.094 . S
Mn289 O294 2.121 1_565 S
Mn289 N296 2.257 . S
Mn289 N305 2.282 . S
Mn289 O313 2.215 . S
Mn289 O315 2.117 1_565 S
C290 O312 1.234 . S
C290 O313 1.283 . S
C291 O303 1.282 1_565 S
C291 O304 1.236 . S
C292 O314 1.240 . S
C292 O315 1.264 . S
O293 Mn288 2.095 . S
O293 C302 1.250 . S
O294 Mn289 2.121 1_545 S
O294 C302 1.258 . S
C295 N296 1.326 . S
C295 C299 1.460 . S
C295 H301 0.902 1_565 S
N296 Mn289 2.257 . S
N296 C295 1.326 . S
N296 C300 1.362 . S
C297 C298 1.258 . S
C297 C300 1.431 . S
C297 C317 1.449 . S
C298 C297 1.258 . S
C298 C299 1.477 . S
C298 H318 0.931 . S
C299 C295 1.460 . S
C299 C298 1.477 . S
C299 H319 0.930 . S
C300 N296 1.362 . S
C300 C297 1.431 . S
C300 C310 1.476 . S
H301 C295 0.902 1_545 S
C302 O293 1.250 . S
C302 O294 1.258 . S
O303 Mn288 2.162 . S
O303 C291 1.282 1_545 S
O304 Mn288 2.297 1_565 S
O304 C291 1.236 . S
N305 Mn289 2.282 . S
N305 C306 1.328 . S
N305 C310 1.318 . S
C306 N305 1.328 . S
C306 C307 1.457 . S
C306 H311 0.929 . S
C307 C306 1.457 . S
C307 C308 1.291 . S
C307 H320 0.931 . S
C308 C307 1.291 . S
C308 C309 1.373 . S
C308 H321 0.929 . S
C309 C308 1.373 . S
C309 C310 1.396 . S
C309 C316 1.403 . S
C310 C300 1.476 . S
C310 N305 1.318 . S
C310 C309 1.396 . S
H311 C306 0.929 . S
O312 Mn288 2.385 1_565 S
O312 C290 1.234 . S
O313 Mn288 2.209 1_565 S
O313 Mn289 2.215 . S
O313 C290 1.283 . S
O314 Mn288 2.094 . S
O314 C292 1.240 . S
O315 Mn289 2.117 1_545 S
O315 C292 1.264 . S
C316 C309 1.403 . S
C316 C317 1.399 . S
C316 H322 0.929 . S
C317 C297 1.449 . S
C317 C316 1.399 . S
C317 H323 0.930 . S
H318 C298 0.931 . S
H319 C299 0.930 . S
H320 C307 0.931 . S
H321 C308 0.929 . S
H322 C316 0.929 . S
H323 C317 0.930 . S
Mn324 O329 2.095 . S
Mn324 O339 2.162 . S
Mn324 O340 2.297 . S
Mn324 O348 2.385 . S
Mn324 O349 2.209 . S
Mn324 O350 2.094 . S
Mn325 O330 2.121 . S
Mn325 N332 2.257 . S
Mn325 N341 2.282 . S
Mn325 O349 2.215 . S
Mn325 O351 2.117 . S
C326 O348 1.234 . S
C326 O349 1.283 . S
C327 O339 1.281 . S
C327 O340 1.236 . S
C328 O350 1.240 . S
C328 O351 1.264 . S
O329 Mn324 2.095 . S
O329 C338 1.250 . S
O330 Mn325 2.121 . S
O330 C338 1.258 . S
C331 N332 1.326 . S
C331 C335 1.460 . S
C331 H337 0.929 . S
N332 Mn325 2.257 . S
N332 C331 1.326 . S
N332 C336 1.362 . S
C333 C334 1.258 . S
C333 C336 1.431 . S
C333 C353 1.449 . S
C334 C333 1.258 . S
C334 C335 1.477 . S
C334 H354 0.931 . S
C335 C331 1.460 . S
C335 C334 1.477 . S
C335 H355 0.930 . S
C336 N332 1.362 . S
C336 C333 1.431 . S
C336 C346 1.476 . S
H337 C331 0.929 . S
C338 O329 1.250 . S
C338 O330 1.258 . S
O339 Mn324 2.162 . S
O339 C327 1.281 . S
O340 Mn324 2.297 . S
O340 C327 1.236 . S
N341 Mn325 2.282 . S
N341 C342 1.328 . S
N341 C346 1.318 . S
C342 N341 1.328 . S
C342 C343 1.457 . S
C342 H347 0.929 . S
C343 C342 1.457 . S
C343 C344 1.291 . S
C343 H356 0.931 . S
C344 C343 1.291 . S
C344 C345 1.373 . S
C344 H357 0.929 . S
C345 C344 1.373 . S
C345 C346 1.396 . S
C345 C352 1.403 . S
C346 C336 1.476 . S
C346 N341 1.318 . S
C346 C345 1.396 . S
H347 C342 0.929 . S
O348 Mn324 2.385 . S
O348 C326 1.234 . S
O349 Mn324 2.209 . S
O349 Mn325 2.215 . S
O349 C326 1.283 . S
O350 Mn324 2.094 . S
O350 C328 1.240 . S
O351 Mn325 2.117 . S
O351 C328 1.264 . S
C352 C345 1.403 . S
C352 C353 1.399 . S
C352 H358 0.929 . S
C353 C333 1.449 . S
C353 C352 1.399 . S
C353 H359 0.930 . S
H354 C334 0.931 . S
H355 C335 0.930 . S
H356 C343 0.931 . S
H357 C344 0.929 . S
H358 C352 0.929 . S
H359 C353 0.930 . S
Mn360 O365 2.095 1_545 S
Mn360 O375 2.162 . S
Mn360 O376 2.297 . S
Mn360 O384 2.385 . S
Mn360 O385 2.209 . S
Mn360 O386 2.094 . S
Mn361 O366 2.121 1_545 S
Mn361 N368 2.257 . S
Mn361 N377 2.282 . S
Mn361 O385 2.215 . S
Mn361 O387 2.117 . S
C362 O384 1.234 . S
C362 O385 1.283 . S
C363 O375 1.281 . S
C363 O376 1.236 . S
C364 O386 1.240 . S
C364 O387 1.264 . S
O365 Mn360 2.095 1_565 S
O365 C374 1.250 . S
O366 Mn361 2.121 1_565 S
O366 C374 1.258 . S
C367 N368 1.326 . S
C367 C371 1.460 . S
C367 H373 0.929 . S
N368 Mn361 2.257 . S
N368 C367 1.326 . S
N368 C372 1.362 . S
C369 C370 1.258 . S
C369 C372 1.431 . S
C369 C389 1.449 . S
C370 C369 1.258 . S
C370 C371 1.477 . S
C370 H390 0.931 . S
C371 C367 1.460 . S
C371 C370 1.477 . S
C371 H391 0.930 . S
C372 N368 1.362 . S
C372 C369 1.431 . S
C372 C382 1.476 . S
H373 C367 0.929 . S
C374 O365 1.250 . S
C374 O366 1.258 . S
O375 Mn360 2.162 . S
O375 C363 1.281 . S
O376 Mn360 2.297 . S
O376 C363 1.236 . S
N377 Mn361 2.282 . S
N377 C378 1.328 . S
N377 C382 1.318 . S
C378 N377 1.328 . S
C378 C379 1.457 . S
C378 H383 0.929 . S
C379 C378 1.457 . S
C379 C380 1.291 . S
C379 H392 0.931 . S
C380 C379 1.291 . S
C380 C381 1.373 . S
C380 H393 0.929 . S
C381 C380 1.373 . S
C381 C382 1.396 . S
C381 C388 1.403 . S
C382 C372 1.476 . S
C382 N377 1.318 . S
C382 C381 1.396 . S
H383 C378 0.929 . S
O384 Mn360 2.385 . S
O384 C362 1.234 . S
O385 Mn360 2.209 . S
O385 Mn361 2.215 . S
O385 C362 1.283 . S
O386 Mn360 2.094 . S
O386 C364 1.240 . S
O387 Mn361 2.117 . S
O387 C364 1.264 . S
C388 C381 1.403 . S
C388 C389 1.399 . S
C388 H394 0.929 . S
C389 C369 1.449 . S
C389 C388 1.399 . S
C389 H395 0.930 . S
H390 C370 0.931 . S
H391 C371 0.930 . S
H392 C379 0.931 . S
H393 C380 0.929 . S
H394 C388 0.929 . S
H395 C389 0.930 . S
Mn396 O401 2.095 1_554 S
Mn396 O411 2.162 . S
Mn396 O412 2.297 . S
Mn396 O420 2.385 . S
Mn396 O421 2.209 . S
Mn396 O422 2.094 1_554 S
Mn397 O402 2.121 1_565 S
Mn397 N404 2.257 1_565 S
Mn397 N413 2.282 1_565 S
Mn397 O421 2.215 1_556 S
Mn397 O423 2.117 . S
C398 O420 1.234 . S
C398 O421 1.283 . S
C399 O411 1.281 . S
C399 O412 1.236 . S
C400 O422 1.240 . S
C400 O423 1.264 . S
O401 Mn396 2.095 1_556 S
O401 C410 1.245 . S
O402 Mn397 2.121 1_545 S
O402 C410 1.278 1_545 S
C403 N404 1.326 . S
C403 C407 1.460 1_556 S
C403 H409 0.929 1_556 S
N404 Mn397 2.257 1_545 S
N404 C403 1.326 . S
N404 C408 1.362 . S
C405 C406 1.258 . S
C405 C408 1.431 . S
C405 C425 1.449 . S
C406 C405 1.258 . S
C406 C407 1.477 1_556 S
C406 H426 0.931 . S
C407 C403 1.460 1_554 S
C407 C406 1.477 1_554 S
C407 H427 0.930 . S
C408 N404 1.362 . S
C408 C405 1.431 . S
C408 C418 1.476 . S
H409 C403 0.929 1_554 S
C410 O401 1.245 . S
C410 O402 1.278 1_565 S
O411 Mn396 2.162 . S
O411 C399 1.281 . S
O412 Mn396 2.297 . S
O412 C399 1.236 . S
N413 Mn397 2.282 1_545 S
N413 C414 1.328 1_545 S
N413 C418 1.318 . S
C414 N413 1.328 1_565 S
C414 C415 1.457 . S
C414 H419 0.929 . S
C415 C414 1.457 . S
C415 C416 1.291 1_565 S
C415 H428 0.931 . S
C416 C415 1.291 1_545 S
C416 C417 1.373 . S
C416 H429 0.929 . S
C417 C416 1.373 . S
C417 C418 1.396 . S
C417 C424 1.403 . S
C418 C408 1.476 . S
C418 N413 1.318 . S
C418 C417 1.396 . S
H419 C414 0.929 . S
O420 Mn396 2.385 . S
O420 C398 1.234 . S
O421 Mn396 2.209 . S
O421 Mn397 2.215 1_554 S
O421 C398 1.283 . S
O422 Mn396 2.094 1_556 S
O422 C400 1.240 . S
O423 Mn397 2.117 . S
O423 C400 1.264 . S
C424 C417 1.403 . S
C424 C425 1.399 . S
C424 H430 0.929 . S
C425 C405 1.449 . S
C425 C424 1.399 . S
C425 H431 0.930 . S
H426 C406 0.931 . S
H427 C407 0.930 . S
H428 C415 0.931 . S
H429 C416 0.929 . S
H430 C424 0.929 . S
H431 C425 0.930 . S
Mn432 O437 2.095 . S
Mn432 O447 2.162 . S
Mn432 O448 2.297 . S
Mn432 O456 2.385 . S
Mn432 O457 2.209 . S
Mn432 O458 2.094 1_554 S
Mn433 O438 2.121 1_556 S
Mn433 N440 2.257 1_556 S
Mn433 N449 2.282 . S
Mn433 O457 2.215 1_556 S
Mn433 O459 2.117 . S
C434 O456 1.234 . S
C434 O457 1.283 . S
C435 O447 1.281 . S
C435 O448 1.236 . S
C436 O458 1.240 . S
C436 O459 1.264 . S
O437 Mn432 2.095 . S
O437 C446 1.250 . S
O438 Mn433 2.121 1_554 S
O438 C446 1.258 . S
C439 N440 1.326 . S
C439 C443 1.460 . S
C439 H445 0.929 . S
N440 Mn433 2.257 1_554 S
N440 C439 1.326 . S
N440 C444 1.362 1_554 S
C441 C442 1.258 . S
C441 C444 1.431 1_554 S
C441 C461 1.449 1_554 S
C442 C441 1.258 . S
C442 C443 1.477 . S
C442 H462 0.931 . S
C443 C439 1.460 . S
C443 C442 1.477 . S
C443 H463 0.930 . S
C444 N440 1.362 1_556 S
C444 C441 1.431 1_556 S
C444 C454 1.476 . S
H445 C439 0.929 . S
C446 O437 1.250 . S
C446 O438 1.258 . S
O447 Mn432 2.162 . S
O447 C435 1.281 . S
O448 Mn432 2.297 . S
O448 C435 1.236 . S
N449 Mn433 2.282 . S
N449 C450 1.328 . S
N449 C454 1.318 . S
C450 N449 1.328 . S
C450 C451 1.457 . S
C450 H455 0.929 . S
C451 C450 1.457 . S
C451 C452 1.291 . S
C451 H464 0.931 . S
C452 C451 1.291 . S
C452 C453 1.373 . S
C452 H465 0.929 . S
C453 C452 1.373 . S
C453 C454 1.396 . S
C453 C460 1.403 . S
C454 C444 1.476 . S
C454 N449 1.318 . S
C454 C453 1.396 . S
H455 C450 0.929 . S
O456 Mn432 2.385 . S
O456 C434 1.234 . S
O457 Mn432 2.209 . S
O457 Mn433 2.215 1_554 S
O457 C434 1.283 . S
O458 Mn432 2.094 1_556 S
O458 C436 1.240 . S
O459 Mn433 2.117 . S
O459 C436 1.264 . S
C460 C453 1.403 . S
C460 C461 1.399 . S
C460 H466 0.929 . S
C461 C441 1.449 1_556 S
C461 C460 1.399 . S
C461 H467 0.930 . S
H462 C442 0.931 . S
H463 C443 0.930 . S
H464 C451 0.931 . S
H465 C452 0.929 . S
H466 C460 0.929 . S
H467 C461 0.930 . S
Mn468 O473 2.095 . S
Mn468 O483 2.162 . S
Mn468 O484 2.297 . S
Mn468 O492 2.385 . S
Mn468 O493 2.209 . S
Mn468 O494 2.094 . S
Mn469 O474 2.121 1_556 S
Mn469 N476 2.257 . S
Mn469 N485 2.282 . S
Mn469 O493 2.215 1_556 S
Mn469 O495 2.117 . S
C470 O492 1.234 . S
C470 O493 1.283 . S
C471 O483 1.281 . S
C471 O484 1.236 . S
C472 O494 1.240 1_556 S
C472 O495 1.264 . S
O473 Mn468 2.095 . S
O473 C482 1.250 . S
O474 Mn469 2.121 1_554 S
O474 C482 1.258 . S
C475 N476 1.326 . S
C475 C479 1.460 1_545 S
C475 H481 0.929 1_556 S
N476 Mn469 2.257 . S
N476 C475 1.326 . S
N476 C480 1.362 . S
C477 C478 1.258 . S
C477 C480 1.431 1_565 S
C477 C497 1.449 . S
C478 C477 1.258 . S
C478 C479 1.477 . S
C478 H498 0.931 . S
C479 C475 1.460 1_565 S
C479 C478 1.477 . S
C479 H499 0.930 . S
C480 N476 1.362 . S
C480 C477 1.431 1_545 S
C480 C490 1.476 . S
H481 C475 0.929 1_554 S
C482 O473 1.250 . S
C482 O474 1.258 . S
O483 Mn468 2.162 . S
O483 C471 1.281 . S
O484 Mn468 2.297 . S
O484 C471 1.236 . S
N485 Mn469 2.282 . S
N485 C486 1.328 . S
N485 C490 1.318 . S
C486 N485 1.328 . S
C486 C487 1.457 . S
C486 H491 0.929 . S
C487 C486 1.457 . S
C487 C488 1.291 . S
C487 H500 0.931 . S
C488 C487 1.291 . S
C488 C489 1.373 . S
C488 H501 0.929 . S
C489 C488 1.373 . S
C489 C490 1.396 . S
C489 C496 1.403 1_545 S
C490 C480 1.476 . S
C490 N485 1.318 . S
C490 C489 1.396 . S
H491 C486 0.929 . S
O492 Mn468 2.385 . S
O492 C470 1.234 . S
O493 Mn468 2.209 . S
O493 Mn469 2.215 1_554 S
O493 C470 1.283 . S
O494 Mn468 2.094 . S
O494 C472 1.240 1_554 S
O495 Mn469 2.117 . S
O495 C472 1.264 . S
C496 C489 1.403 1_565 S
C496 C497 1.399 . S
C496 H502 0.929 . S
C497 C477 1.449 . S
C497 C496 1.399 . S
C497 H503 0.930 . S
H498 C478 0.931 . S
H499 C479 0.930 . S
H500 C487 0.931 . S
H501 C488 0.929 . S
H502 C496 0.929 . S
H503 C497 0.930 . S
Mn504 O509 2.095 . S
Mn504 O519 2.162 . S
Mn504 O520 2.297 . S
Mn504 O528 2.385 . S
Mn504 O529 2.209 . S
Mn504 O530 2.094 . S
Mn505 O510 2.121 . S
Mn505 N512 2.257 . S
Mn505 N521 2.282 . S
Mn505 O529 2.215 . S
Mn505 O531 2.117 . S
C506 O528 1.234 . S
C506 O529 1.283 . S
C507 O519 1.281 . S
C507 O520 1.236 . S
C508 O530 1.240 . S
C508 O531 1.264 . S
O509 Mn504 2.095 . S
O509 C518 1.250 . S
O510 Mn505 2.121 . S
O510 C518 1.258 . S
C511 N512 1.326 . S
C511 C515 1.460 . S
C511 H517 0.929 . S
N512 Mn505 2.257 . S
N512 C511 1.326 . S
N512 C516 1.362 . S
C513 C514 1.258 . S
C513 C516 1.431 . S
C513 C533 1.449 . S
C514 C513 1.258 . S
C514 C515 1.477 . S
C514 H534 0.931 . S
C515 C511 1.460 . S
C515 C514 1.477 . S
C515 H535 0.930 . S
C516 N512 1.362 . S
C516 C513 1.431 . S
C516 C526 1.476 . S
H517 C511 0.929 . S
C518 O509 1.250 . S
C518 O510 1.258 . S
O519 Mn504 2.162 . S
O519 C507 1.281 . S
O520 Mn504 2.297 . S
O520 C507 1.236 . S
N521 Mn505 2.282 . S
N521 C522 1.328 . S
N521 C526 1.318 . S
C522 N521 1.328 . S
C522 C523 1.457 . S
C522 H527 0.929 . S
C523 C522 1.457 . S
C523 C524 1.291 . S
C523 H536 0.931 . S
C524 C523 1.291 . S
C524 C525 1.373 . S
C524 H537 0.929 . S
C525 C524 1.373 . S
C525 C526 1.396 . S
C525 C532 1.403 . S
C526 C516 1.476 . S
C526 N521 1.318 . S
C526 C525 1.396 . S
H527 C522 0.929 . S
O528 Mn504 2.385 . S
O528 C506 1.234 . S
O529 Mn504 2.209 . S
O529 Mn505 2.215 . S
O529 C506 1.283 . S
O530 Mn504 2.094 . S
O530 C508 1.240 . S
O531 Mn505 2.117 . S
O531 C508 1.264 . S
C532 C525 1.403 . S
C532 C533 1.399 . S
C532 H538 0.929 . S
C533 C513 1.449 . S
C533 C532 1.399 . S
C533 H539 0.930 . S
H534 C514 0.931 . S
H535 C515 0.930 . S
H536 C523 0.931 . S
H537 C524 0.929 . S
H538 C532 0.929 . S
H539 C533 0.930 . S
Mn540 O545 2.095 . S
Mn540 O555 2.162 . S
Mn540 O556 2.297 . S
Mn540 O564 2.385 . S
Mn540 O565 2.209 . S
Mn540 O566 2.094 . S
Mn541 O546 2.121 . S
Mn541 N548 2.257 . S
Mn541 N557 2.282 . S
Mn541 O565 2.215 . S
Mn541 O567 2.117 . S
C542 O564 1.234 . S
C542 O565 1.283 . S
C543 O555 1.281 . S
C543 O556 1.236 . S
C544 O566 1.240 . S
C544 O567 1.264 . S
O545 Mn540 2.095 . S
O545 C554 1.250 . S
O546 Mn541 2.121 . S
O546 C554 1.258 . S
C547 N548 1.326 . S
C547 C551 1.460 1_565 S
C547 H553 0.929 . S
N548 Mn541 2.257 . S
N548 C547 1.326 . S
N548 C552 1.362 . S
C549 C550 1.258 . S
C549 C552 1.431 1_545 S
C549 C569 1.449 . S
C550 C549 1.258 . S
C550 C551 1.477 . S
C550 H570 0.931 . S
C551 C547 1.460 1_545 S
C551 C550 1.477 . S
C551 H571 0.930 . S
C552 N548 1.362 . S
C552 C549 1.431 1_565 S
C552 C562 1.476 . S
H553 C547 0.929 . S
C554 O545 1.250 . S
C554 O546 1.258 . S
O555 Mn540 2.162 . S
O555 C543 1.281 . S
O556 Mn540 2.297 . S
O556 C543 1.236 . S
N557 Mn541 2.282 . S
N557 C558 1.328 . S
N557 C562 1.318 . S
C558 N557 1.328 . S
C558 C559 1.457 . S
C558 H563 0.929 . S
C559 C558 1.457 . S
C559 C560 1.291 . S
C559 H572 0.931 . S
C560 C559 1.291 . S
C560 C561 1.373 . S
C560 H573 0.929 . S
C561 C560 1.373 . S
C561 C562 1.396 . S
C561 C568 1.403 . S
C562 C552 1.476 . S
C562 N557 1.318 . S
C562 C561 1.396 . S
H563 C558 0.929 . S
O564 Mn540 2.385 . S
O564 C542 1.234 . S
O565 Mn540 2.209 . S
O565 Mn541 2.215 . S
O565 C542 1.283 . S
O566 Mn540 2.094 . S
O566 C544 1.240 . S
O567 Mn541 2.117 . S
O567 C544 1.264 . S
C568 C561 1.403 . S
C568 C569 1.399 1_565 S
C568 H574 0.929 1_565 S
C569 C549 1.449 . S
C569 C568 1.399 1_545 S
C569 H575 0.930 . S
H570 C550 0.931 . S
H571 C551 0.930 . S
H572 C559 0.931 . S
H573 C560 0.929 . S
H574 C568 0.929 1_545 S
H575 C569 0.930 . S
Mn576 O581 2.095 . S
Mn576 O591 2.162 . S
Mn576 O592 2.297 . S
Mn576 O600 2.385 . S
Mn576 O601 2.209 . S
Mn576 O602 2.094 . S
Mn577 O582 2.121 . S
Mn577 N584 2.257 . S
Mn577 N593 2.282 . S
Mn577 O601 2.215 . S
Mn577 O603 2.117 . S
C578 O600 1.234 . S
C578 O601 1.283 . S
C579 O591 1.281 . S
C579 O592 1.236 . S
C580 O602 1.240 . S
C580 O603 1.264 . S
O581 Mn576 2.095 . S
O581 C590 1.250 . S
O582 Mn577 2.121 . S
O582 C590 1.258 . S
C583 N584 1.326 . S
C583 C587 1.460 . S
C583 H589 0.929 . S
N584 Mn577 2.257 . S
N584 C583 1.326 . S
N584 C588 1.362 . S
C585 C586 1.258 1_565 S
C585 C588 1.431 1_565 S
C585 C605 1.449 . S
C586 C585 1.258 1_545 S
C586 C587 1.477 . S
C586 H606 0.931 1_545 S
C587 C583 1.460 . S
C587 C586 1.477 . S
C587 H607 0.930 . S
C588 N584 1.362 . S
C588 C585 1.431 1_545 S
C588 C598 1.476 1_545 S
H589 C583 0.929 . S
C590 O581 1.250 . S
C590 O582 1.258 . S
O591 Mn576 2.162 . S
O591 C579 1.281 . S
O592 Mn576 2.297 . S
O592 C579 1.236 . S
N593 Mn577 2.282 . S
N593 C594 1.354 . S
N593 C598 1.318 1_545 S
C594 N593 1.354 . S
C594 C595 1.420 1_545 S
C594 H599 0.940 . S
C595 C594 1.420 1_565 S
C595 C596 1.291 . S
C595 H608 0.931 . S
C596 C595 1.291 . S
C596 C597 1.373 . S
C596 H609 0.929 . S
C597 C596 1.373 . S
C597 C598 1.396 . S
C597 C604 1.403 . S
C598 C588 1.476 1_565 S
C598 N593 1.318 1_565 S
C598 C597 1.396 . S
H599 C594 0.940 . S
O600 Mn576 2.385 . S
O600 C578 1.234 . S
O601 Mn576 2.209 . S
O601 Mn577 2.215 . S
O601 C578 1.283 . S
O602 Mn576 2.094 . S
O602 C580 1.240 . S
O603 Mn577 2.117 . S
O603 C580 1.264 . S
C604 C597 1.403 . S
C604 C605 1.399 . S
C604 H610 0.929 . S
C605 C585 1.449 . S
C605 C604 1.399 . S
C605 H611 0.930 . S
H606 C586 0.931 1_565 S
H607 C587 0.930 . S
H608 C595 0.931 . S
H609 C596 0.929 . S
H610 C604 0.929 . S
H611 C605 0.930 . S
Mn612 O617 2.095 . S
Mn612 O627 2.162 . S
Mn612 O628 2.297 . S
Mn612 O636 2.385 . S
Mn612 O637 2.209 . S
Mn612 O638 2.094 . S
Mn613 O618 2.121 . S
Mn613 N620 2.257 . S
Mn613 N629 2.282 . S
Mn613 O637 2.215 . S
Mn613 O639 2.117 . S
C614 O636 1.234 . S
C614 O637 1.283 . S
C615 O627 1.281 . S
C615 O628 1.236 . S
C616 O638 1.240 . S
C616 O639 1.264 . S
O617 Mn612 2.095 . S
O617 C626 1.250 . S
O618 Mn613 2.121 . S
O618 C626 1.258 . S
C619 N620 1.326 . S
C619 C623 1.460 . S
C619 H625 0.929 . S
N620 Mn613 2.257 . S
N620 C619 1.326 . S
N620 C624 1.362 . S
C621 C622 1.258 . S
C621 C624 1.431 . S
C621 C641 1.449 . S
C622 C621 1.258 . S
C622 C623 1.477 . S
C622 H642 0.931 . S
C623 C619 1.460 . S
C623 C622 1.477 . S
C623 H643 0.930 . S
C624 N620 1.362 . S
C624 C621 1.431 . S
C624 C634 1.476 . S
H625 C619 0.929 . S
C626 O617 1.250 . S
C626 O618 1.258 . S
O627 Mn612 2.162 . S
O627 C615 1.281 . S
O628 Mn612 2.297 . S
O628 C615 1.236 . S
N629 Mn613 2.282 . S
N629 C630 1.328 . S
N629 C634 1.318 . S
C630 N629 1.328 . S
C630 C631 1.457 . S
C630 H635 0.929 . S
C631 C630 1.457 . S
C631 C632 1.291 . S
C631 H644 0.931 . S
C632 C631 1.291 . S
C632 C633 1.373 . S
C632 H645 0.929 . S
C633 C632 1.373 . S
C633 C634 1.396 . S
C633 C640 1.403 . S
C634 C624 1.476 . S
C634 N629 1.318 . S
C634 C633 1.396 . S
H635 C630 0.929 . S
O636 Mn612 2.385 . S
O636 C614 1.234 . S
O637 Mn612 2.209 . S
O637 Mn613 2.215 . S
O637 C614 1.283 . S
O638 Mn612 2.094 . S
O638 C616 1.240 . S
O639 Mn613 2.117 . S
O639 C616 1.264 . S
C640 C633 1.403 . S
C640 C641 1.399 . S
C640 H646 0.929 . S
C641 C621 1.449 . S
C641 C640 1.399 . S
C641 H647 0.930 . S
H642 C622 0.931 . S
H643 C623 0.930 . S
H644 C631 0.931 . S
H645 C632 0.929 . S
H646 C640 0.929 . S
H647 C641 0.930 . S
Mn648 O653 2.095 . S
Mn648 O663 2.162 . S
Mn648 O664 2.297 . S
Mn648 O672 2.385 . S
Mn648 O673 2.209 . S
Mn648 O674 2.094 . S
Mn649 O654 2.121 . S
Mn649 N656 2.257 . S
Mn649 N665 2.282 . S
Mn649 O673 2.215 . S
Mn649 O675 2.117 . S
C650 O672 1.234 . S
C650 O673 1.283 . S
C651 O663 1.281 . S
C651 O664 1.236 . S
C652 O674 1.240 . S
C652 O675 1.264 . S
O653 Mn648 2.095 . S
O653 C662 1.250 . S
O654 Mn649 2.121 . S
O654 C662 1.258 . S
C655 N656 1.326 . S
C655 C659 1.460 . S
C655 H661 0.929 . S
N656 Mn649 2.257 . S
N656 C655 1.326 . S
N656 C660 1.362 . S
C657 C658 1.258 . S
C657 C660 1.431 . S
C657 C677 1.449 . S
C658 C657 1.258 . S
C658 C659 1.477 . S
C658 H678 0.931 . S
C659 C655 1.460 . S
C659 C658 1.477 . S
C659 H679 0.930 . S
C660 N656 1.362 . S
C660 C657 1.431 . S
C660 C670 1.476 . S
H661 C655 0.929 . S
C662 O653 1.250 . S
C662 O654 1.258 . S
O663 Mn648 2.162 . S
O663 C651 1.281 . S
O664 Mn648 2.297 . S
O664 C651 1.236 . S
N665 Mn649 2.282 . S
N665 C666 1.328 . S
N665 C670 1.318 . S
C666 N665 1.328 . S
C666 C667 1.457 . S
C666 H671 0.929 . S
C667 C666 1.457 . S
C667 C668 1.291 . S
C667 H680 0.931 . S
C668 C667 1.291 . S
C668 C669 1.373 . S
C668 H681 0.929 . S
C669 C668 1.373 . S
C669 C670 1.396 . S
C669 C676 1.403 . S
C670 C660 1.476 . S
C670 N665 1.318 . S
C670 C669 1.396 . S
H671 C666 0.929 . S
O672 Mn648 2.385 . S
O672 C650 1.234 . S
O673 Mn648 2.209 . S
O673 Mn649 2.215 . S
O673 C650 1.283 . S
O674 Mn648 2.094 . S
O674 C652 1.240 . S
O675 Mn649 2.117 . S
O675 C652 1.264 . S
C676 C669 1.403 . S
C676 C677 1.399 . S
C676 H682 0.929 . S
C677 C657 1.449 . S
C677 C676 1.399 . S
C677 H683 0.930 . S
H678 C658 0.931 . S
H679 C659 0.930 . S
H680 C667 0.931 . S
H681 C668 0.929 . S
H682 C676 0.929 . S
H683 C677 0.930 . S
Mn684 O689 2.095 . S
Mn684 O699 2.162 . S
Mn684 O700 2.297 . S
Mn684 O708 2.385 . S
Mn684 O709 2.209 . S
Mn684 O710 2.094 . S
Mn685 O690 2.121 . S
Mn685 N692 2.257 . S
Mn685 N701 2.282 . S
Mn685 O709 2.215 . S
Mn685 O711 2.117 . S
C686 O708 1.234 . S
C686 O709 1.283 . S
C687 O699 1.281 . S
C687 O700 1.236 . S
C688 O710 1.240 . S
C688 O711 1.264 . S
O689 Mn684 2.095 . S
O689 C698 1.250 . S
O690 Mn685 2.121 . S
O690 C698 1.258 . S
C691 N692 1.326 . S
C691 C695 1.460 . S
C691 H697 0.929 . S
N692 Mn685 2.257 . S
N692 C691 1.326 . S
N692 C696 1.362 . S
C693 C694 1.258 . S
C693 C696 1.431 . S
C693 C713 1.449 . S
C694 C693 1.258 . S
C694 C695 1.477 . S
C694 H714 0.931 . S
C695 C691 1.460 . S
C695 C694 1.477 . S
C695 H715 0.930 . S
C696 N692 1.362 . S
C696 C693 1.431 . S
C696 C706 1.476 . S
H697 C691 0.929 . S
C698 O689 1.250 . S
C698 O690 1.258 . S
O699 Mn684 2.162 . S
O699 C687 1.281 . S
O700 Mn684 2.297 . S
O700 C687 1.236 . S
N701 Mn685 2.282 . S
N701 C702 1.328 . S
N701 C706 1.318 . S
C702 N701 1.328 . S
C702 C703 1.457 . S
C702 H707 0.929 . S
C703 C702 1.457 . S
C703 C704 1.291 . S
C703 H716 0.931 . S
C704 C703 1.291 . S
C704 C705 1.373 . S
C704 H717 0.929 . S
C705 C704 1.373 . S
C705 C706 1.396 . S
C705 C712 1.403 . S
C706 C696 1.476 . S
C706 N701 1.318 . S
C706 C705 1.396 . S
H707 C702 0.929 . S
O708 Mn684 2.385 . S
O708 C686 1.234 . S
O709 Mn684 2.209 . S
O709 Mn685 2.215 . S
O709 C686 1.283 . S
O710 Mn684 2.094 . S
O710 C688 1.240 . S
O711 Mn685 2.117 . S
O711 C688 1.264 . S
C712 C705 1.403 . S
C712 C713 1.399 . S
C712 H718 0.929 . S
C713 C693 1.449 . S
C713 C712 1.399 . S
C713 H719 0.930 . S
H714 C694 0.931 . S
H715 C695 0.930 . S
H716 C703 0.931 . S
H717 C704 0.929 . S
H718 C712 0.929 . S
H719 C713 0.930 . S
Mn720 O725 2.095 . S
Mn720 O735 2.162 . S
Mn720 O736 2.297 . S
Mn720 O744 2.385 . S
Mn720 O745 2.209 . S
Mn720 O746 2.094 1_554 S
Mn721 O726 2.121 . S
Mn721 N728 2.257 . S
Mn721 N737 2.282 . S
Mn721 O745 2.215 1_556 S
Mn721 O747 2.117 . S
C722 O744 1.234 . S
C722 O745 1.283 . S
C723 O735 1.281 . S
C723 O736 1.236 . S
C724 O746 1.240 . S
C724 O747 1.264 . S
O725 Mn720 2.095 . S
O725 C734 1.250 . S
O726 Mn721 2.121 . S
O726 C734 1.258 1_556 S
C727 N728 1.326 . S
C727 C731 1.460 . S
C727 H733 0.929 . S
N728 Mn721 2.257 . S
N728 C727 1.326 . S
N728 C732 1.362 . S
C729 C730 1.258 . S
C729 C732 1.431 . S
C729 C749 1.449 . S
C730 C729 1.258 . S
C730 C731 1.477 . S
C730 H750 0.931 . S
C731 C727 1.460 . S
C731 C730 1.477 . S
C731 H751 0.930 . S
C732 N728 1.362 . S
C732 C729 1.431 . S
C732 C742 1.476 . S
H733 C727 0.929 . S
C734 O725 1.250 . S
C734 O726 1.258 1_554 S
O735 Mn720 2.162 . S
O735 C723 1.281 . S
O736 Mn720 2.297 . S
O736 C723 1.236 . S
N737 Mn721 2.282 . S
N737 C738 1.328 . S
N737 C742 1.318 . S
C738 N737 1.328 . S
C738 C739 1.457 . S
C738 H743 0.929 . S
C739 C738 1.457 . S
C739 C740 1.291 . S
C739 H752 0.931 . S
C740 C739 1.291 . S
C740 C741 1.373 . S
C740 H753 0.929 . S
C741 C740 1.373 . S
C741 C742 1.396 . S
C741 C748 1.403 . S
C742 C732 1.476 . S
C742 N737 1.318 . S
C742 C741 1.396 . S
H743 C738 0.929 . S
O744 Mn720 2.385 . S
O744 C722 1.234 . S
O745 Mn720 2.209 . S
O745 Mn721 2.215 1_554 S
O745 C722 1.283 . S
O746 Mn720 2.094 1_556 S
O746 C724 1.240 . S
O747 Mn721 2.117 . S
O747 C724 1.264 . S
C748 C741 1.403 . S
C748 C749 1.399 . S
C748 H754 0.929 . S
C749 C729 1.449 . S
C749 C748 1.399 . S
C749 H755 0.930 . S
H750 C730 0.931 . S
H751 C731 0.930 . S
H752 C739 0.931 . S
H753 C740 0.929 . S
H754 C748 0.929 . S
H755 C749 0.930 . S
Mn756 O761 2.095 . S
Mn756 O771 2.162 . S
Mn756 O772 2.297 . S
Mn756 O780 2.385 . S
Mn756 O781 2.209 . S
Mn756 O782 2.094 . S
Mn757 O762 2.121 . S
Mn757 N764 2.257 . S
Mn757 N773 2.282 . S
Mn757 O781 2.215 . S
Mn757 O783 2.117 . S
C758 O780 1.234 . S
C758 O781 1.283 . S
C759 O771 1.281 . S
C759 O772 1.236 . S
C760 O782 1.240 . S
C760 O783 1.264 . S
O761 Mn756 2.095 . S
O761 C770 1.250 . S
O762 Mn757 2.121 . S
O762 C770 1.258 . S
C763 N764 1.326 . S
C763 C767 1.460 . S
C763 H769 0.929 . S
N764 Mn757 2.257 . S
N764 C763 1.326 . S
N764 C768 1.362 . S
C765 C766 1.258 . S
C765 C768 1.431 . S
C765 C785 1.449 . S
C766 C765 1.258 . S
C766 C767 1.477 . S
C766 H786 0.931 . S
C767 C763 1.460 . S
C767 C766 1.477 . S
C767 H787 0.930 . S
C768 N764 1.362 . S
C768 C765 1.431 . S
C768 C778 1.476 . S
H769 C763 0.929 . S
C770 O761 1.250 . S
C770 O762 1.258 . S
O771 Mn756 2.162 . S
O771 C759 1.281 . S
O772 Mn756 2.297 . S
O772 C759 1.236 . S
N773 Mn757 2.282 . S
N773 C774 1.328 . S
N773 C778 1.318 . S
C774 N773 1.328 . S
C774 C775 1.457 . S
C774 H779 0.929 . S
C775 C774 1.457 . S
C775 C776 1.291 . S
C775 H788 0.931 . S
C776 C775 1.291 . S
C776 C777 1.373 . S
C776 H789 0.929 . S
C777 C776 1.373 . S
C777 C778 1.396 . S
C777 C784 1.403 . S
C778 C768 1.476 . S
C778 N773 1.318 . S
C778 C777 1.396 . S
H779 C774 0.929 . S
O780 Mn756 2.385 . S
O780 C758 1.234 . S
O781 Mn756 2.209 . S
O781 Mn757 2.215 . S
O781 C758 1.283 . S
O782 Mn756 2.094 . S
O782 C760 1.240 . S
O783 Mn757 2.117 . S
O783 C760 1.264 . S
C784 C777 1.403 . S
C784 C785 1.399 . S
C784 H790 0.929 . S
C785 C765 1.449 . S
C785 C784 1.399 . S
C785 H791 0.930 . S
H786 C766 0.931 . S
H787 C767 0.930 . S
H788 C775 0.931 . S
H789 C776 0.929 . S
H790 C784 0.929 . S
H791 C785 0.930 . S
Mn792 O797 2.095 . S
Mn792 O807 2.162 . S
Mn792 O808 2.297 . S
Mn792 O816 2.385 . S
Mn792 O817 2.209 . S
Mn792 O818 2.094 . S
Mn793 O798 2.121 . S
Mn793 N800 2.257 . S
Mn793 N809 2.282 . S
Mn793 O817 2.215 . S
Mn793 O819 2.117 . S
C794 O816 1.234 . S
C794 O817 1.283 . S
C795 O807 1.281 . S
C795 O808 1.236 . S
C796 O818 1.240 . S
C796 O819 1.264 . S
O797 Mn792 2.095 . S
O797 C806 1.250 . S
O798 Mn793 2.121 . S
O798 C806 1.258 . S
C799 N800 1.326 . S
C799 C803 1.460 . S
C799 H805 0.929 . S
N800 Mn793 2.257 . S
N800 C799 1.326 . S
N800 C804 1.362 . S
C801 C802 1.258 . S
C801 C804 1.431 . S
C801 C821 1.449 . S
C802 C801 1.258 . S
C802 C803 1.477 . S
C802 H822 0.931 . S
C803 C799 1.460 . S
C803 C802 1.477 . S
C803 H823 0.930 . S
C804 N800 1.362 . S
C804 C801 1.431 . S
C804 C814 1.476 . S
H805 C799 0.929 . S
C806 O797 1.250 . S
C806 O798 1.258 . S
O807 Mn792 2.162 . S
O807 C795 1.281 . S
O808 Mn792 2.297 . S
O808 C795 1.236 . S
N809 Mn793 2.282 . S
N809 C810 1.328 . S
N809 C814 1.318 . S
C810 N809 1.328 . S
C810 C811 1.457 . S
C810 H815 0.929 . S
C811 C810 1.457 . S
C811 C812 1.291 . S
C811 H824 0.931 . S
C812 C811 1.291 . S
C812 C813 1.373 . S
C812 H825 0.929 . S
C813 C812 1.373 . S
C813 C814 1.396 . S
C813 C820 1.403 . S
C814 C804 1.476 . S
C814 N809 1.318 . S
C814 C813 1.396 . S
H815 C810 0.929 . S
O816 Mn792 2.385 . S
O816 C794 1.234 . S
O817 Mn792 2.209 . S
O817 Mn793 2.215 . S
O817 C794 1.283 . S
O818 Mn792 2.094 . S
O818 C796 1.240 . S
O819 Mn793 2.117 . S
O819 C796 1.264 . S
C820 C813 1.403 . S
C820 C821 1.399 . S
C820 H826 0.929 . S
C821 C801 1.449 . S
C821 C820 1.399 . S
C821 H827 0.930 . S
H822 C802 0.931 . S
H823 C803 0.930 . S
H824 C811 0.931 . S
H825 C812 0.929 . S
H826 C820 0.929 . S
H827 C821 0.930 . S
Mn828 O833 2.095 . S
Mn828 O843 2.162 . S
Mn828 O844 2.297 . S
Mn828 O852 2.385 . S
Mn828 O853 2.209 . S
Mn828 O854 2.094 . S
Mn829 O834 2.121 . S
Mn829 N836 2.257 . S
Mn829 N845 2.282 . S
Mn829 O853 2.215 . S
Mn829 O855 2.117 . S
C830 O852 1.234 . S
C830 O853 1.283 . S
C831 O843 1.281 . S
C831 O844 1.236 . S
C832 O854 1.240 . S
C832 O855 1.264 . S
O833 Mn828 2.095 . S
O833 C842 1.250 . S
O834 Mn829 2.121 . S
O834 C842 1.258 . S
C835 N836 1.326 . S
C835 C839 1.460 . S
C835 H841 0.929 . S
N836 Mn829 2.257 . S
N836 C835 1.326 . S
N836 C840 1.362 . S
C837 C838 1.258 . S
C837 C840 1.431 . S
C837 C857 1.449 . S
C838 C837 1.258 . S
C838 C839 1.477 . S
C838 H858 0.931 . S
C839 C835 1.460 . S
C839 C838 1.477 . S
C839 H859 0.930 . S
C840 N836 1.362 . S
C840 C837 1.431 . S
C840 C850 1.476 . S
H841 C835 0.929 . S
C842 O833 1.250 . S
C842 O834 1.258 . S
O843 Mn828 2.162 . S
O843 C831 1.281 . S
O844 Mn828 2.297 . S
O844 C831 1.236 . S
N845 Mn829 2.282 . S
N845 C846 1.328 . S
N845 C850 1.318 . S
C846 N845 1.328 . S
C846 C847 1.457 . S
C846 H851 0.929 . S
C847 C846 1.457 . S
C847 C848 1.291 . S
C847 H860 0.931 . S
C848 C847 1.291 . S
C848 C849 1.373 . S
C848 H861 0.929 . S
C849 C848 1.373 . S
C849 C850 1.396 . S
C849 C856 1.403 . S
C850 C840 1.476 . S
C850 N845 1.318 . S
C850 C849 1.396 . S
H851 C846 0.929 . S
O852 Mn828 2.385 . S
O852 C830 1.234 . S
O853 Mn828 2.209 . S
O853 Mn829 2.215 . S
O853 C830 1.283 . S
O854 Mn828 2.094 . S
O854 C832 1.240 . S
O855 Mn829 2.117 . S
O855 C832 1.264 . S
C856 C849 1.403 . S
C856 C857 1.399 . S
C856 H862 0.929 . S
C857 C837 1.449 . S
C857 C856 1.399 . S
C857 H863 0.930 . S
H858 C838 0.931 . S
H859 C839 0.930 . S
H860 C847 0.931 . S
H861 C848 0.929 . S
H862 C856 0.929 . S
H863 C857 0.930 . S
Eu864 C873 2.828 . S
Eu864 O875 2.392 . S
Eu864 O877 2.418 . S
Eu864 O882 2.373 . S
Eu864 O885 2.488 . S
Eu864 O886 2.471 1_554 S
Eu864 O887 2.349 1_554 S
Eu865 O874 2.373 1_565 S
Eu865 O878 2.488 1_554 S
Eu865 O879 2.471 . S
Eu865 O880 2.349 1_565 S
Eu865 O883 2.393 1_565 S
Eu865 O884 2.418 1_554 S
Eu865 C894 2.828 . S
C866 O884 1.244 1_545 S
C866 O887 1.265 . S
C867 C868 1.379 1_554 S
C867 C871 1.373 . S
C867 C873 1.505 . S
C868 C867 1.379 1_556 S
C868 C870 1.369 . S
C868 H896 0.930 . S
C869 C871 1.383 . S
C869 C872 1.382 1_554 S
C869 H897 0.930 . S
C870 C868 1.369 . S
C870 C872 1.392 . S
C870 H898 0.930 . S
C871 C867 1.373 . S
C871 C869 1.383 . S
C871 H899 0.931 . S
C872 C869 1.382 1_556 S
C872 C870 1.392 . S
C873 Eu864 2.828 . S
C873 C867 1.505 . S
C873 O885 1.249 . S
C873 O886 1.244 1_554 S
O874 Eu865 2.373 1_545 S
O874 C876 1.258 . S
O875 Eu864 2.392 . S
O875 C876 1.242 . S
C876 O874 1.258 . S
C876 O875 1.242 . S
O877 Eu864 2.418 . S
O877 C881 1.244 . S
O878 Eu865 2.488 1_556 S
O878 C894 1.249 1_556 S
O879 Eu865 2.471 . S
O879 C894 1.244 . S
O880 Eu865 2.349 1_545 S
O880 C881 1.265 . S
C881 O877 1.244 . S
C881 O880 1.265 . S
O882 Eu864 2.373 . S
O882 C895 1.258 . S
O883 Eu865 2.393 1_545 S
O883 C895 1.242 . S
O884 Eu865 2.418 1_556 S
O884 C866 1.244 1_565 S
O885 Eu864 2.488 . S
O885 C873 1.249 . S
O886 Eu864 2.471 1_556 S
O886 C873 1.244 1_556 S
O887 Eu864 2.349 1_556 S
O887 C866 1.265 . S
C888 C889 1.379 . S
C888 C892 1.373 . S
C888 C894 1.505 . S
C889 C888 1.379 . S
C889 C891 1.369 . S
C889 H900 0.930 . S
C890 C892 1.383 . S
C890 C893 1.382 . S
C890 H901 0.930 . S
C891 C889 1.369 . S
C891 C893 1.392 . S
C891 H902 0.930 . S
C892 C888 1.373 . S
C892 C890 1.383 . S
C892 H903 0.931 1_554 S
C893 C890 1.382 . S
C893 C891 1.392 . S
C894 Eu865 2.828 . S
C894 O878 1.249 1_554 S
C894 O879 1.244 . S
C894 C888 1.505 . S
C895 O882 1.258 . S
C895 O883 1.242 . S
H896 C868 0.930 . S
H897 C869 0.930 . S
H898 C870 0.930 . S
H899 C871 0.931 . S
H900 C889 0.930 . S
H901 C890 0.930 . S
H902 C891 0.930 . S
H903 C892 0.931 1_556 S
Eu904 C913 2.828 . S
Eu904 O915 2.392 . S
Eu904 O917 2.418 . S
Eu904 O922 2.373 . S
Eu904 O925 2.488 . S
Eu904 O926 2.471 . S
Eu904 O927 2.349 . S
Eu905 O914 2.373 . S
Eu905 O918 2.488 . S
Eu905 O919 2.471 . S
Eu905 O920 2.349 . S
Eu905 O923 2.392 . S
Eu905 O924 2.418 . S
Eu905 C934 2.828 . S
C906 O924 1.244 . S
C906 O927 1.265 . S
C907 C908 1.379 . S
C907 C911 1.373 . S
C907 C913 1.505 . S
C908 C907 1.379 . S
C908 C910 1.369 . S
C908 H936 0.930 . S
C909 C911 1.383 . S
C909 C912 1.382 . S
C909 H937 0.930 . S
C910 C908 1.369 . S
C910 C912 1.392 . S
C910 H938 0.930 . S
C911 C907 1.373 . S
C911 C909 1.383 . S
C911 H939 0.931 . S
C912 C909 1.382 . S
C912 C910 1.392 . S
C913 Eu904 2.828 . S
C913 C907 1.505 . S
C913 O925 1.249 . S
C913 O926 1.244 . S
O914 Eu905 2.373 . S
O914 C916 1.258 . S
O915 Eu904 2.392 . S
O915 C916 1.242 . S
C916 O914 1.258 . S
C916 O915 1.242 . S
O917 Eu904 2.418 . S
O917 C921 1.244 . S
O918 Eu905 2.488 . S
O918 C934 1.249 . S
O919 Eu905 2.471 . S
O919 C934 1.244 . S
O920 Eu905 2.349 . S
O920 C921 1.265 . S
C921 O917 1.244 . S
C921 O920 1.265 . S
O922 Eu904 2.373 . S
O922 C935 1.258 . S
O923 Eu905 2.392 . S
O923 C935 1.242 . S
O924 Eu905 2.418 . S
O924 C906 1.244 . S
O925 Eu904 2.488 . S
O925 C913 1.249 . S
O926 Eu904 2.471 . S
O926 C913 1.244 . S
O927 Eu904 2.349 . S
O927 C906 1.265 . S
C928 C929 1.379 . S
C928 C932 1.373 . S
C928 C934 1.505 . S
C929 C928 1.379 . S
C929 C931 1.369 . S
C929 H940 0.930 . S
C930 C932 1.383 . S
C930 C933 1.382 . S
C930 H941 0.930 . S
C931 C929 1.369 . S
C931 C933 1.392 . S
C931 H942 0.930 . S
C932 C928 1.373 . S
C932 C930 1.383 . S
C932 H943 0.931 . S
C933 C930 1.382 . S
C933 C931 1.392 . S
C934 Eu905 2.828 . S
C934 O918 1.249 . S
C934 O919 1.244 . S
C934 C928 1.505 . S
C935 O922 1.258 . S
C935 O923 1.242 . S
H936 C908 0.930 . S
H937 C909 0.930 . S
H938 C910 0.930 . S
H939 C911 0.931 . S
H940 C929 0.930 . S
H941 C930 0.930 . S
H942 C931 0.930 . S
H943 C932 0.931 . S
Eu944 C953 2.828 . S
Eu944 O955 2.392 . S
Eu944 O957 2.418 . S
Eu944 O962 2.373 . S
Eu944 O965 2.488 . S
Eu944 O966 2.471 . S
Eu944 O967 2.349 . S
Eu945 O954 2.373 . S
Eu945 O958 2.488 . S
Eu945 O959 2.471 . S
Eu945 O960 2.349 . S
Eu945 O963 2.392 1_545 S
Eu945 O964 2.418 . S
Eu945 C974 2.828 . S
C946 O964 1.244 . S
C946 O967 1.265 . S
C947 C948 1.395 . S
C947 C951 1.374 . S
C947 C953 1.489 1_565 S
C948 C947 1.395 . S
C948 C950 1.369 . S
C948 H976 0.930 . S
C949 C951 1.383 . S
C949 C952 1.382 . S
C949 H977 0.930 . S
C950 C948 1.369 . S
C950 C952 1.392 . S
C950 H978 0.930 . S
C951 C947 1.374 . S
C951 C949 1.383 . S
C951 H979 0.931 1_565 S
C952 C949 1.382 . S
C952 C950 1.392 . S
C953 Eu944 2.828 . S
C953 C947 1.489 1_545 S
C953 O965 1.249 . S
C953 O966 1.244 . S
O954 Eu945 2.373 . S
O954 C956 1.258 . S
O955 Eu944 2.392 . S
O955 C956 1.242 . S
C956 O954 1.258 . S
C956 O955 1.242 . S
O957 Eu944 2.418 . S
O957 C961 1.244 . S
O958 Eu945 2.488 . S
O958 C974 1.249 . S
O959 Eu945 2.471 . S
O959 C974 1.244 . S
O960 Eu945 2.349 . S
O960 C961 1.265 . S
C961 O957 1.244 . S
C961 O960 1.265 . S
O962 Eu944 2.373 . S
O962 C975 1.258 1_545 S
O963 Eu945 2.392 1_565 S
O963 C975 1.242 . S
O964 Eu945 2.418 . S
O964 C946 1.244 . S
O965 Eu944 2.488 . S
O965 C953 1.249 . S
O966 Eu944 2.471 . S
O966 C953 1.244 . S
O967 Eu944 2.349 . S
O967 C946 1.265 . S
C968 C969 1.379 . S
C968 C972 1.373 . S
C968 C974 1.505 . S
C969 C968 1.379 . S
C969 C971 1.369 . S
C969 H980 0.930 . S
C970 C972 1.383 . S
C970 C973 1.382 . S
C970 H981 0.930 . S
C971 C969 1.369 . S
C971 C973 1.392 . S
C971 H982 0.930 . S
C972 C968 1.373 . S
C972 C970 1.383 . S
C972 H983 0.931 . S
C973 C970 1.382 . S
C973 C971 1.392 . S
C974 Eu945 2.828 . S
C974 O958 1.249 . S
C974 O959 1.244 . S
C974 C968 1.505 . S
C975 O962 1.258 1_565 S
C975 O963 1.242 . S
H976 C948 0.930 . S
H977 C949 0.930 . S
H978 C950 0.930 . S
H979 C951 0.931 1_545 S
H980 C969 0.930 . S
H981 C970 0.930 . S
H982 C971 0.930 . S
H983 C972 0.931 . S
Eu984 C993 2.828 . S
Eu984 O995 2.392 . S
Eu984 O997 2.418 . S
Eu984 O1002 2.373 . S
Eu984 O1005 2.488 . S
Eu984 O1006 2.471 . S
Eu984 O1007 2.349 . S
Eu985 O994 2.373 . S
Eu985 O998 2.488 . S
Eu985 O999 2.471 . S
Eu985 O1000 2.349 . S
Eu985 O1003 2.392 . S
Eu985 O1004 2.418 . S
Eu985 C1014 2.828 . S
C986 O1004 1.244 . S
C986 O1007 1.265 . S
C987 C988 1.379 . S
C987 C991 1.373 . S
C987 C993 1.505 . S
C988 C987 1.379 . S
C988 C990 1.369 . S
C988 H1016 0.930 . S
C989 C991 1.383 . S
C989 C992 1.382 . S
C989 H1017 0.930 . S
C990 C988 1.369 . S
C990 C992 1.392 . S
C990 H1018 0.930 . S
C991 C987 1.373 . S
C991 C989 1.383 . S
C991 H1019 0.931 . S
C992 C989 1.382 . S
C992 C990 1.392 . S
C993 Eu984 2.828 . S
C993 C987 1.505 . S
C993 O1005 1.249 . S
C993 O1006 1.244 . S
O994 Eu985 2.373 . S
O994 C996 1.258 . S
O995 Eu984 2.392 . S
O995 C996 1.242 . S
C996 O994 1.258 . S
C996 O995 1.242 . S
O997 Eu984 2.418 . S
O997 C1001 1.244 . S
O998 Eu985 2.488 . S
O998 C1014 1.249 . S
O999 Eu985 2.471 . S
O999 C1014 1.244 . S
O1000 Eu985 2.349 . S
O1000 C1001 1.265 . S
C1001 O997 1.244 . S
C1001 O1000 1.265 . S
O1002 Eu984 2.373 . S
O1002 C1015 1.258 . S
O1003 Eu985 2.392 . S
O1003 C1015 1.242 . S
O1004 Eu985 2.418 . S
O1004 C986 1.244 . S
O1005 Eu984 2.488 . S
O1005 C993 1.249 . S
O1006 Eu984 2.471 . S
O1006 C993 1.244 . S
O1007 Eu984 2.349 . S
O1007 C986 1.265 . S
C1008 C1009 1.379 . S
C1008 C1012 1.373 . S
C1008 C1014 1.505 . S
C1009 C1008 1.379 . S
C1009 C1011 1.369 . S
C1009 H1020 0.930 . S
C1010 C1012 1.383 . S
C1010 C1013 1.382 . S
C1010 H1021 0.930 . S
C1011 C1009 1.369 . S
C1011 C1013 1.392 . S
C1011 H1022 0.930 . S
C1012 C1008 1.373 . S
C1012 C1010 1.383 . S
C1012 H1023 0.931 . S
C1013 C1010 1.382 . S
C1013 C1011 1.392 . S
C1014 Eu985 2.828 . S
C1014 O998 1.249 . S
C1014 O999 1.244 . S
C1014 C1008 1.505 . S
C1015 O1002 1.258 . S
C1015 O1003 1.242 . S
H1016 C988 0.930 . S
H1017 C989 0.930 . S
H1018 C990 0.930 . S
H1019 C991 0.931 . S
H1020 C1009 0.930 . S
H1021 C1010 0.930 . S
H1022 C1011 0.930 . S
H1023 C1012 0.931 . S
Eu1024 C1033 2.828 . S
Eu1024 O1035 2.392 . S
Eu1024 O1037 2.418 . S
Eu1024 O1042 2.373 . S
Eu1024 O1045 2.488 . S
Eu1024 O1046 2.471 . S
Eu1024 O1047 2.349 . S
Eu1025 O1034 2.376 . S
Eu1025 O1038 2.457 1_545 S
Eu1025 O1039 2.441 1_545 S
Eu1025 O1040 2.365 . S
Eu1025 O1043 2.417 . S
Eu1025 O1044 2.431 . S
Eu1025 C1054 2.794 1_545 S
C1026 O1044 1.244 . S
C1026 O1047 1.265 . S
C1027 C1028 1.379 . S
C1027 C1031 1.373 . S
C1027 C1033 1.505 . S
C1028 C1027 1.379 . S
C1028 C1030 1.369 . S
C1028 H1056 0.930 . S
C1029 C1031 1.383 . S
C1029 C1032 1.382 . S
C1029 H1057 0.930 . S
C1030 C1028 1.369 . S
C1030 C1032 1.392 . S
C1030 H1058 0.930 . S
C1031 C1027 1.373 . S
C1031 C1029 1.383 . S
C1031 H1059 0.931 . S
C1032 C1029 1.382 . S
C1032 C1030 1.392 . S
C1033 Eu1024 2.828 . S
C1033 C1027 1.505 . S
C1033 O1045 1.249 . S
C1033 O1046 1.244 . S
O1034 Eu1025 2.376 . S
O1034 C1036 1.258 . S
O1035 Eu1024 2.392 . S
O1035 C1036 1.242 . S
C1036 O1034 1.258 . S
C1036 O1035 1.242 . S
O1037 Eu1024 2.418 . S
O1037 C1041 1.244 . S
O1038 Eu1025 2.457 1_565 S
O1038 C1054 1.249 . S
O1039 Eu1025 2.441 1_565 S
O1039 C1054 1.244 . S
O1040 Eu1025 2.365 . S
O1040 C1041 1.265 . S
C1041 O1037 1.244 . S
C1041 O1040 1.265 . S
O1042 Eu1024 2.373 . S
O1042 C1055 1.258 . S
O1043 Eu1025 2.417 . S
O1043 C1055 1.242 . S
O1044 Eu1025 2.431 . S
O1044 C1026 1.244 . S
O1045 Eu1024 2.488 . S
O1045 C1033 1.249 . S
O1046 Eu1024 2.471 . S
O1046 C1033 1.244 . S
O1047 Eu1024 2.349 . S
O1047 C1026 1.265 . S
C1048 C1049 1.379 . S
C1048 C1052 1.373 . S
C1048 C1054 1.505 . S
C1049 C1048 1.379 . S
C1049 C1051 1.369 . S
C1049 H1060 0.930 . S
C1050 C1052 1.383 . S
C1050 C1053 1.382 . S
C1050 H1061 0.930 . S
C1051 C1049 1.369 . S
C1051 C1053 1.392 . S
C1051 H1062 0.930 . S
C1052 C1048 1.373 . S
C1052 C1050 1.383 . S
C1052 H1063 0.931 . S
C1053 C1050 1.382 . S
C1053 C1051 1.392 . S
C1054 Eu1025 2.794 1_565 S
C1054 O1038 1.249 . S
C1054 O1039 1.244 . S
C1054 C1048 1.505 . S
C1055 O1042 1.258 . S
C1055 O1043 1.242 . S
H1056 C1028 0.930 . S
H1057 C1029 0.930 . S
H1058 C1030 0.930 . S
H1059 C1031 0.931 . S
H1060 C1049 0.930 . S
H1061 C1050 0.930 . S
H1062 C1051 0.930 . S
H1063 C1052 0.931 . S
Eu1064 C1073 2.828 . S
Eu1064 O1075 2.392 . S
Eu1064 O1077 2.418 . S
Eu1064 O1082 2.373 . S
Eu1064 O1085 2.488 . S
Eu1064 O1086 2.471 . S
Eu1064 O1087 2.349 . S
Eu1065 O1074 2.373 . S
Eu1065 O1078 2.488 . S
Eu1065 O1079 2.471 . S
Eu1065 O1080 2.349 . S
Eu1065 O1083 2.392 . S
Eu1065 O1084 2.418 . S
Eu1065 C1094 2.828 . S
C1066 O1084 1.244 . S
C1066 O1087 1.265 . S
C1067 C1068 1.379 . S
C1067 C1071 1.373 . S
C1067 C1073 1.505 . S
C1068 C1067 1.379 . S
C1068 C1070 1.369 . S
C1068 H1096 0.930 . S
C1069 C1071 1.383 . S
C1069 C1072 1.382 . S
C1069 H1097 0.930 . S
C1070 C1068 1.369 . S
C1070 C1072 1.392 . S
C1070 H1098 0.930 . S
C1071 C1067 1.373 . S
C1071 C1069 1.383 . S
C1071 H1099 0.931 . S
C1072 C1069 1.382 . S
C1072 C1070 1.392 . S
C1073 Eu1064 2.828 . S
C1073 C1067 1.505 . S
C1073 O1085 1.249 . S
C1073 O1086 1.244 . S
O1074 Eu1065 2.373 . S
O1074 C1076 1.258 . S
O1075 Eu1064 2.392 . S
O1075 C1076 1.242 . S
C1076 O1074 1.258 . S
C1076 O1075 1.242 . S
O1077 Eu1064 2.418 . S
O1077 C1081 1.244 . S
O1078 Eu1065 2.488 . S
O1078 C1094 1.249 . S
O1079 Eu1065 2.471 . S
O1079 C1094 1.244 . S
O1080 Eu1065 2.349 . S
O1080 C1081 1.265 . S
C1081 O1077 1.244 . S
C1081 O1080 1.265 . S
O1082 Eu1064 2.373 . S
O1082 C1095 1.258 . S
O1083 Eu1065 2.392 . S
O1083 C1095 1.242 . S
O1084 Eu1065 2.418 . S
O1084 C1066 1.244 . S
O1085 Eu1064 2.488 . S
O1085 C1073 1.249 . S
O1086 Eu1064 2.471 . S
O1086 C1073 1.244 . S
O1087 Eu1064 2.349 . S
O1087 C1066 1.265 . S
C1088 C1089 1.379 . S
C1088 C1092 1.373 . S
C1088 C1094 1.505 . S
C1089 C1088 1.379 . S
C1089 C1091 1.369 . S
C1089 H1100 0.930 . S
C1090 C1092 1.383 . S
C1090 C1093 1.382 . S
C1090 H1101 0.930 . S
C1091 C1089 1.369 . S
C1091 C1093 1.392 . S
C1091 H1102 0.930 . S
C1092 C1088 1.373 . S
C1092 C1090 1.383 . S
C1092 H1103 0.931 . S
C1093 C1090 1.382 . S
C1093 C1091 1.392 . S
C1094 Eu1065 2.828 . S
C1094 O1078 1.249 . S
C1094 O1079 1.244 . S
C1094 C1088 1.505 . S
C1095 O1082 1.258 . S
C1095 O1083 1.242 . S
H1096 C1068 0.930 . S
H1097 C1069 0.930 . S
H1098 C1070 0.930 . S
H1099 C1071 0.931 . S
H1100 C1089 0.930 . S
H1101 C1090 0.930 . S
H1102 C1091 0.930 . S
H1103 C1092 0.931 . S
Eu1104 C1113 2.828 . S
Eu1104 O1115 2.392 . S
Eu1104 O1117 2.418 1_545 S
Eu1104 O1122 2.373 . S
Eu1104 O1125 2.488 . S
Eu1104 O1126 2.471 . S
Eu1104 O1127 2.349 . S
Eu1105 O1114 2.373 1_556 S
Eu1105 O1118 2.488 . S
Eu1105 O1119 2.471 . S
Eu1105 O1120 2.367 . S
Eu1105 O1123 2.393 1_556 S
Eu1105 O1124 2.418 1_556 S
Eu1105 C1134 2.828 . S
C1106 O1124 1.244 . S
C1106 O1127 1.265 . S
C1107 C1108 1.379 . S
C1107 C1111 1.373 1_545 S
C1107 C1113 1.505 . S
C1108 C1107 1.379 . S
C1108 C1110 1.369 . S
C1108 H1136 0.930 . S
C1109 C1111 1.383 . S
C1109 C1112 1.382 . S
C1109 H1137 0.930 . S
C1110 C1108 1.369 . S
C1110 C1112 1.392 1_545 S
C1110 H1138 0.930 . S
C1111 C1107 1.373 1_565 S
C1111 C1109 1.383 . S
C1111 H1139 0.931 . S
C1112 C1109 1.382 . S
C1112 C1110 1.392 1_565 S
C1113 Eu1104 2.828 . S
C1113 C1107 1.505 . S
C1113 O1125 1.249 . S
C1113 O1126 1.244 . S
O1114 Eu1105 2.373 1_554 S
O1114 C1116 1.258 . S
O1115 Eu1104 2.392 . S
O1115 C1116 1.242 . S
C1116 O1114 1.258 . S
C1116 O1115 1.242 . S
O1117 Eu1104 2.418 1_565 S
O1117 C1121 1.244 . S
O1118 Eu1105 2.488 . S
O1118 C1134 1.249 . S
O1119 Eu1105 2.471 . S
O1119 C1134 1.244 . S
O1120 Eu1105 2.367 . S
O1120 C1121 1.251 1_546 S
C1121 O1117 1.244 . S
C1121 O1120 1.251 1_564 S
O1122 Eu1104 2.373 . S
O1122 C1135 1.258 . S
O1123 Eu1105 2.393 1_554 S
O1123 C1135 1.241 . S
O1124 Eu1105 2.418 1_554 S
O1124 C1106 1.244 . S
O1125 Eu1104 2.488 . S
O1125 C1113 1.249 . S
O1126 Eu1104 2.471 . S
O1126 C1113 1.244 . S
O1127 Eu1104 2.349 . S
O1127 C1106 1.265 . S
C1128 C1129 1.379 . S
C1128 C1132 1.373 . S
C1128 C1134 1.505 . S
C1129 C1128 1.379 . S
C1129 C1131 1.369 . S
C1129 H1140 0.930 . S
C1130 C1132 1.383 . S
C1130 C1133 1.382 . S
C1130 H1141 0.930 . S
C1131 C1129 1.369 . S
C1131 C1133 1.392 . S
C1131 H1142 0.930 . S
C1132 C1128 1.373 . S
C1132 C1130 1.383 . S
C1132 H1143 0.931 . S
C1133 C1130 1.382 . S
C1133 C1131 1.392 . S
C1134 Eu1105 2.828 . S
C1134 O1118 1.249 . S
C1134 O1119 1.244 . S
C1134 C1128 1.505 . S
C1135 O1122 1.258 . S
C1135 O1123 1.241 . S
H1136 C1108 0.930 . S
H1137 C1109 0.930 . S
H1138 C1110 0.930 . S
H1139 C1111 0.931 . S
H1140 C1129 0.930 . S
H1141 C1130 0.930 . S
H1142 C1131 0.930 . S
H1143 C1132 0.931 . S
Eu1144 C1153 2.828 . S
Eu1144 O1155 2.392 . S
Eu1144 O1157 2.418 . S
Eu1144 O1162 2.373 . S
Eu1144 O1165 2.488 . S
Eu1144 O1166 2.471 . S
Eu1144 O1167 2.349 . S
Eu1145 O1154 2.373 . S
Eu1145 O1158 2.488 . S
Eu1145 O1159 2.471 . S
Eu1145 O1160 2.349 . S
Eu1145 O1163 2.392 . S
Eu1145 O1164 2.418 . S
Eu1145 C1174 2.828 . S
C1146 O1164 1.244 . S
C1146 O1167 1.265 . S
C1147 C1148 1.379 . S
C1147 C1151 1.373 . S
C1147 C1153 1.505 . S
C1148 C1147 1.379 . S
C1148 C1150 1.369 . S
C1148 H1176 0.930 . S
C1149 C1151 1.383 . S
C1149 C1152 1.382 . S
C1149 H1177 0.930 . S
C1150 C1148 1.369 . S
C1150 C1152 1.392 . S
C1150 H1178 0.930 . S
C1151 C1147 1.373 . S
C1151 C1149 1.383 . S
C1151 H1179 0.931 . S
C1152 C1149 1.382 . S
C1152 C1150 1.392 . S
C1153 Eu1144 2.828 . S
C1153 C1147 1.505 . S
C1153 O1165 1.249 . S
C1153 O1166 1.244 . S
O1154 Eu1145 2.373 . S
O1154 C1156 1.258 . S
O1155 Eu1144 2.392 . S
O1155 C1156 1.242 . S
C1156 O1154 1.258 . S
C1156 O1155 1.242 . S
O1157 Eu1144 2.418 . S
O1157 C1161 1.244 . S
O1158 Eu1145 2.488 . S
O1158 C1174 1.249 . S
O1159 Eu1145 2.471 . S
O1159 C1174 1.244 . S
O1160 Eu1145 2.349 . S
O1160 C1161 1.265 . S
C1161 O1157 1.244 . S
C1161 O1160 1.265 . S
O1162 Eu1144 2.373 . S
O1162 C1175 1.258 . S
O1163 Eu1145 2.392 . S
O1163 C1175 1.242 . S
O1164 Eu1145 2.418 . S
O1164 C1146 1.244 . S
O1165 Eu1144 2.488 . S
O1165 C1153 1.249 . S
O1166 Eu1144 2.471 . S
O1166 C1153 1.244 . S
O1167 Eu1144 2.349 . S
O1167 C1146 1.265 . S
C1168 C1169 1.379 . S
C1168 C1172 1.373 . S
C1168 C1174 1.505 . S
C1169 C1168 1.379 . S
C1169 C1171 1.369 . S
C1169 H1180 0.930 . S
C1170 C1172 1.383 . S
C1170 C1173 1.382 . S
C1170 H1181 0.930 . S
C1171 C1169 1.369 . S
C1171 C1173 1.392 . S
C1171 H1182 0.930 . S
C1172 C1168 1.373 . S
C1172 C1170 1.383 . S
C1172 H1183 0.931 . S
C1173 C1170 1.382 . S
C1173 C1171 1.392 . S
C1174 Eu1145 2.828 . S
C1174 O1158 1.249 . S
C1174 O1159 1.244 . S
C1174 C1168 1.505 . S
C1175 O1162 1.258 . S
C1175 O1163 1.242 . S
H1176 C1148 0.930 . S
H1177 C1149 0.930 . S
H1178 C1150 0.930 . S
H1179 C1151 0.931 . S
H1180 C1169 0.930 . S
H1181 C1170 0.930 . S
H1182 C1171 0.930 . S
H1183 C1172 0.931 . S
Eu1184 C1193 2.828 . S
Eu1184 O1195 2.392 . S
Eu1184 O1197 2.418 . S
Eu1184 O1202 2.373 1_554 S
Eu1184 O1205 2.488 . S
Eu1184 O1206 2.471 . S
Eu1184 O1207 2.349 . S
Eu1185 O1194 2.373 . S
Eu1185 O1198 2.488 . S
Eu1185 O1199 2.471 . S
Eu1185 O1200 2.349 . S
Eu1185 O1203 2.392 1_554 S
Eu1185 O1204 2.418 . S
Eu1185 C1214 2.828 . S
C1186 O1204 1.244 . S
C1186 O1207 1.265 . S
C1187 C1188 1.379 1_554 S
C1187 C1191 1.373 . S
C1187 C1193 1.505 . S
C1188 C1187 1.379 1_556 S
C1188 C1190 1.369 . S
C1188 H1216 0.930 . S
C1189 C1191 1.383 1_556 S
C1189 C1192 1.382 . S
C1189 H1217 0.930 . S
C1190 C1188 1.369 . S
C1190 C1192 1.392 . S
C1190 H1218 0.930 . S
C1191 C1187 1.373 . S
C1191 C1189 1.383 1_554 S
C1191 H1219 0.931 . S
C1192 C1189 1.382 . S
C1192 C1190 1.392 . S
C1193 Eu1184 2.828 . S
C1193 C1187 1.505 . S
C1193 O1205 1.249 . S
C1193 O1206 1.244 . S
O1194 Eu1185 2.373 . S
O1194 C1196 1.258 . S
O1195 Eu1184 2.392 . S
O1195 C1196 1.242 . S
C1196 O1194 1.258 . S
C1196 O1195 1.242 . S
O1197 Eu1184 2.418 . S
O1197 C1201 1.244 . S
O1198 Eu1185 2.488 . S
O1198 C1214 1.249 . S
O1199 Eu1185 2.471 . S
O1199 C1214 1.244 . S
O1200 Eu1185 2.349 . S
O1200 C1201 1.265 . S
C1201 O1197 1.244 . S
C1201 O1200 1.265 . S
O1202 Eu1184 2.373 1_556 S
O1202 C1215 1.258 . S
O1203 Eu1185 2.392 1_556 S
O1203 C1215 1.242 . S
O1204 Eu1185 2.418 . S
O1204 C1186 1.244 . S
O1205 Eu1184 2.488 . S
O1205 C1193 1.249 . S
O1206 Eu1184 2.471 . S
O1206 C1193 1.244 . S
O1207 Eu1184 2.349 . S
O1207 C1186 1.265 . S
C1208 C1209 1.379 . S
C1208 C1212 1.373 . S
C1208 C1214 1.505 . S
C1209 C1208 1.379 . S
C1209 C1211 1.369 . S
C1209 H1220 0.930 . S
C1210 C1212 1.383 . S
C1210 C1213 1.382 . S
C1210 H1221 0.930 . S
C1211 C1209 1.369 . S
C1211 C1213 1.392 . S
C1211 H1222 0.930 . S
C1212 C1208 1.373 . S
C1212 C1210 1.383 . S
C1212 H1223 0.931 . S
C1213 C1210 1.382 . S
C1213 C1211 1.392 . S
C1214 Eu1185 2.828 . S
C1214 O1198 1.249 . S
C1214 O1199 1.244 . S
C1214 C1208 1.505 . S
C1215 O1202 1.258 . S
C1215 O1203 1.242 . S
H1216 C1188 0.930 . S
H1217 C1189 0.930 . S
H1218 C1190 0.930 . S
H1219 C1191 0.931 . S
H1220 C1209 0.930 . S
H1221 C1210 0.930 . S
H1222 C1211 0.930 . S
H1223 C1212 0.931 . S
Eu1224 C1233 2.828 . S
Eu1224 O1235 2.392 . S
Eu1224 O1237 2.418 . S
Eu1224 O1242 2.373 . S
Eu1224 O1245 2.488 . S
Eu1224 O1246 2.471 . S
Eu1224 O1247 2.349 . S
Eu1225 O1234 2.373 . S
Eu1225 O1238 2.488 . S
Eu1225 O1239 2.471 . S
Eu1225 O1240 2.349 . S
Eu1225 O1243 2.392 . S
Eu1225 O1244 2.418 . S
Eu1225 C1254 2.828 . S
C1226 O1244 1.244 . S
C1226 O1247 1.265 . S
C1227 C1228 1.379 . S
C1227 C1231 1.373 . S
C1227 C1233 1.505 . S
C1228 C1227 1.379 . S
C1228 C1230 1.369 . S
C1228 H1256 0.930 . S
C1229 C1231 1.383 1_455 S
C1229 C1232 1.382 . S
C1229 H1257 0.930 . S
C1230 C1228 1.369 . S
C1230 C1232 1.392 1_655 S
C1230 H1258 0.930 . S
C1231 C1227 1.373 . S
C1231 C1229 1.383 1_655 S
C1231 H1259 0.931 . S
C1232 C1229 1.382 . S
C1232 C1230 1.392 1_455 S
C1233 Eu1224 2.828 . S
C1233 C1227 1.505 . S
C1233 O1245 1.249 . S
C1233 O1246 1.244 . S
O1234 Eu1225 2.373 . S
O1234 C1236 1.258 . S
O1235 Eu1224 2.392 . S
O1235 C1236 1.242 . S
C1236 O1234 1.258 . S
C1236 O1235 1.242 . S
O1237 Eu1224 2.418 . S
O1237 C1241 1.244 . S
O1238 Eu1225 2.488 . S
O1238 C1254 1.249 . S
O1239 Eu1225 2.471 . S
O1239 C1254 1.244 . S
O1240 Eu1225 2.349 . S
O1240 C1241 1.265 . S
C1241 O1237 1.244 . S
C1241 O1240 1.265 . S
O1242 Eu1224 2.373 . S
O1242 C1255 1.258 . S
O1243 Eu1225 2.392 . S
O1243 C1255 1.242 . S
O1244 Eu1225 2.418 . S
O1244 C1226 1.244 . S
O1245 Eu1224 2.488 . S
O1245 C1233 1.249 . S
O1246 Eu1224 2.471 . S
O1246 C1233 1.244 . S
O1247 Eu1224 2.349 . S
O1247 C1226 1.265 . S
C1248 C1249 1.379 . S
C1248 C1252 1.373 . S
C1248 C1254 1.505 . S
C1249 C1248 1.379 . S
C1249 C1251 1.369 . S
C1249 H1260 0.930 . S
C1250 C1252 1.383 . S
C1250 C1253 1.382 . S
C1250 H1261 0.930 . S
C1251 C1249 1.369 . S
C1251 C1253 1.392 . S
C1251 H1262 0.930 . S
C1252 C1248 1.373 . S
C1252 C1250 1.383 . S
C1252 H1263 0.931 . S
C1253 C1250 1.382 . S
C1253 C1251 1.392 . S
C1254 Eu1225 2.828 . S
C1254 O1238 1.249 . S
C1254 O1239 1.244 . S
C1254 C1248 1.505 . S
C1255 O1242 1.258 . S
C1255 O1243 1.242 . S
H1256 C1228 0.930 . S
H1257 C1229 0.930 . S
H1258 C1230 0.930 . S
H1259 C1231 0.931 . S
H1260 C1249 0.930 . S
H1261 C1250 0.930 . S
H1262 C1251 0.930 . S
H1263 C1252 0.931 . S
Eu1264 C1273 2.828 . S
Eu1264 O1275 2.392 . S
Eu1264 O1277 2.418 . S
Eu1264 O1282 2.373 . S
Eu1264 O1285 2.488 . S
Eu1264 O1286 2.471 . S
Eu1264 O1287 2.349 . S
Eu1265 O1274 2.373 . S
Eu1265 O1278 2.488 . S
Eu1265 O1279 2.471 . S
Eu1265 O1280 2.349 . S
Eu1265 O1283 2.392 . S
Eu1265 O1284 2.418 . S
Eu1265 C1294 2.828 . S
C1266 O1284 1.244 . S
C1266 O1287 1.265 . S
C1267 C1268 1.379 . S
C1267 C1271 1.373 . S
C1267 C1273 1.505 . S
C1268 C1267 1.379 . S
C1268 C1270 1.369 1_455 S
C1268 H1296 0.930 . S
C1269 C1271 1.383 . S
C1269 C1272 1.382 1_455 S
C1269 H1297 0.930 . S
C1270 C1268 1.369 1_655 S
C1270 C1272 1.392 . S
C1270 H1298 0.930 . S
C1271 C1267 1.373 . S
C1271 C1269 1.383 . S
C1271 H1299 0.931 . S
C1272 C1269 1.382 1_655 S
C1272 C1270 1.392 . S
C1273 Eu1264 2.828 . S
C1273 C1267 1.505 . S
C1273 O1285 1.249 . S
C1273 O1286 1.244 . S
O1274 Eu1265 2.373 . S
O1274 C1276 1.258 . S
O1275 Eu1264 2.392 . S
O1275 C1276 1.242 . S
C1276 O1274 1.258 . S
C1276 O1275 1.242 . S
O1277 Eu1264 2.418 . S
O1277 C1281 1.244 . S
O1278 Eu1265 2.488 . S
O1278 C1294 1.249 . S
O1279 Eu1265 2.471 . S
O1279 C1294 1.244 . S
O1280 Eu1265 2.349 . S
O1280 C1281 1.265 . S
C1281 O1277 1.244 . S
C1281 O1280 1.265 . S
O1282 Eu1264 2.373 . S
O1282 C1295 1.258 . S
O1283 Eu1265 2.392 . S
O1283 C1295 1.242 . S
O1284 Eu1265 2.418 . S
O1284 C1266 1.244 . S
O1285 Eu1264 2.488 . S
O1285 C1273 1.249 . S
O1286 Eu1264 2.471 . S
O1286 C1273 1.244 . S
O1287 Eu1264 2.349 . S
O1287 C1266 1.265 . S
C1288 C1289 1.379 . S
C1288 C1292 1.373 . S
C1288 C1294 1.505 . S
C1289 C1288 1.379 . S
C1289 C1291 1.369 . S
C1289 H1300 0.930 . S
C1290 C1292 1.383 . S
C1290 C1293 1.382 . S
C1290 H1301 0.930 . S
C1291 C1289 1.369 . S
C1291 C1293 1.392 . S
C1291 H1302 0.930 . S
C1292 C1288 1.373 . S
C1292 C1290 1.383 . S
C1292 H1303 0.931 . S
C1293 C1290 1.382 . S
C1293 C1291 1.392 . S
C1294 Eu1265 2.828 . S
C1294 O1278 1.249 . S
C1294 O1279 1.244 . S
C1294 C1288 1.505 . S
C1295 O1282 1.258 . S
C1295 O1283 1.242 . S
H1296 C1268 0.930 . S
H1297 C1269 0.930 . S
H1298 C1270 0.930 . S
H1299 C1271 0.931 . S
H1300 C1289 0.930 . S
H1301 C1290 0.930 . S
H1302 C1291 0.930 . S
H1303 C1292 0.931 . S
Eu1304 C1313 2.828 . S
Eu1304 O1315 2.392 . S
Eu1304 O1317 2.418 . S
Eu1304 O1322 2.373 . S
Eu1304 O1325 2.488 . S
Eu1304 O1326 2.471 . S
Eu1304 O1327 2.349 . S
Eu1305 O1314 2.373 . S
Eu1305 O1318 2.488 . S
Eu1305 O1319 2.471 . S
Eu1305 O1320 2.349 . S
Eu1305 O1323 2.392 . S
Eu1305 O1324 2.418 . S
Eu1305 C1334 2.828 . S
C1306 O1324 1.244 . S
C1306 O1327 1.265 . S
C1307 C1308 1.379 . S
C1307 C1311 1.373 . S
C1307 C1313 1.505 . S
C1308 C1307 1.379 . S
C1308 C1310 1.369 . S
C1308 H1336 0.930 . S
C1309 C1311 1.383 . S
C1309 C1312 1.382 . S
C1309 H1337 0.930 . S
C1310 C1308 1.369 . S
C1310 C1312 1.392 . S
C1310 H1338 0.930 . S
C1311 C1307 1.373 . S
C1311 C1309 1.383 . S
C1311 H1339 0.931 . S
C1312 C1309 1.382 . S
C1312 C1310 1.392 . S
C1313 Eu1304 2.828 . S
C1313 C1307 1.505 . S
C1313 O1325 1.249 . S
C1313 O1326 1.244 . S
O1314 Eu1305 2.373 . S
O1314 C1316 1.258 . S
O1315 Eu1304 2.392 . S
O1315 C1316 1.242 . S
C1316 O1314 1.258 . S
C1316 O1315 1.242 . S
O1317 Eu1304 2.418 . S
O1317 C1321 1.244 . S
O1318 Eu1305 2.488 . S
O1318 C1334 1.249 . S
O1319 Eu1305 2.471 . S
O1319 C1334 1.244 . S
O1320 Eu1305 2.349 . S
O1320 C1321 1.265 . S
C1321 O1317 1.244 . S
C1321 O1320 1.265 . S
O1322 Eu1304 2.373 . S
O1322 C1335 1.258 . S
O1323 Eu1305 2.392 . S
O1323 C1335 1.242 . S
O1324 Eu1305 2.418 . S
O1324 C1306 1.244 . S
O1325 Eu1304 2.488 . S
O1325 C1313 1.249 . S
O1326 Eu1304 2.471 . S
O1326 C1313 1.244 . S
O1327 Eu1304 2.349 . S
O1327 C1306 1.265 . S
C1328 C1329 1.379 . S
C1328 C1332 1.373 . S
C1328 C1334 1.505 . S
C1329 C1328 1.379 . S
C1329 C1331 1.369 . S
C1329 H1340 0.930 . S
C1330 C1332 1.383 . S
C1330 C1333 1.382 . S
C1330 H1341 0.930 . S
C1331 C1329 1.369 . S
C1331 C1333 1.392 . S
C1331 H1342 0.930 . S
C1332 C1328 1.373 . S
C1332 C1330 1.383 . S
C1332 H1343 0.931 . S
C1333 C1330 1.382 . S
C1333 C1331 1.392 . S
C1334 Eu1305 2.828 . S
C1334 O1318 1.249 . S
C1334 O1319 1.244 . S
C1334 C1328 1.505 . S
C1335 O1322 1.258 . S
C1335 O1323 1.242 . S
H1336 C1308 0.930 . S
H1337 C1309 0.930 . S
H1338 C1310 0.930 . S
H1339 C1311 0.931 . S
H1340 C1329 0.930 . S
H1341 C1330 0.930 . S
H1342 C1331 0.930 . S
H1343 C1332 0.931 . S
Eu1344 C1353 2.828 . S
Eu1344 O1355 2.392 . S
Eu1344 O1357 2.418 . S
Eu1344 O1362 2.373 . S
Eu1344 O1365 2.488 . S
Eu1344 O1366 2.471 . S
Eu1344 O1367 2.349 . S
Eu1345 O1354 2.373 . S
Eu1345 O1358 2.488 . S
Eu1345 O1359 2.471 . S
Eu1345 O1360 2.349 . S
Eu1345 O1363 2.392 . S
Eu1345 O1364 2.418 . S
Eu1345 C1374 2.828 . S
C1346 O1364 1.244 . S
C1346 O1367 1.265 . S
C1347 C1348 1.379 . S
C1347 C1351 1.373 . S
C1347 C1353 1.505 . S
C1348 C1347 1.379 . S
C1348 C1350 1.369 . S
C1348 H1376 0.930 . S
C1349 C1351 1.383 . S
C1349 C1352 1.382 . S
C1349 H1377 0.930 . S
C1350 C1348 1.369 . S
C1350 C1352 1.392 . S
C1350 H1378 0.930 . S
C1351 C1347 1.373 . S
C1351 C1349 1.383 . S
C1351 H1379 0.931 . S
C1352 C1349 1.382 . S
C1352 C1350 1.392 . S
C1353 Eu1344 2.828 . S
C1353 C1347 1.505 . S
C1353 O1365 1.249 . S
C1353 O1366 1.244 . S
O1354 Eu1345 2.373 . S
O1354 C1356 1.258 . S
O1355 Eu1344 2.392 . S
O1355 C1356 1.242 . S
C1356 O1354 1.258 . S
C1356 O1355 1.242 . S
O1357 Eu1344 2.418 . S
O1357 C1361 1.244 . S
O1358 Eu1345 2.488 . S
O1358 C1374 1.249 . S
O1359 Eu1345 2.471 . S
O1359 C1374 1.244 . S
O1360 Eu1345 2.349 . S
O1360 C1361 1.265 . S
C1361 O1357 1.244 . S
C1361 O1360 1.265 . S
O1362 Eu1344 2.373 . S
O1362 C1375 1.258 . S
O1363 Eu1345 2.392 . S
O1363 C1375 1.242 . S
O1364 Eu1345 2.418 . S
O1364 C1346 1.244 . S
O1365 Eu1344 2.488 . S
O1365 C1353 1.249 . S
O1366 Eu1344 2.471 . S
O1366 C1353 1.244 . S
O1367 Eu1344 2.349 . S
O1367 C1346 1.265 . S
C1368 C1369 1.379 . S
C1368 C1372 1.373 . S
C1368 C1374 1.505 . S
C1369 C1368 1.379 . S
C1369 C1371 1.369 . S
C1369 H1380 0.930 . S
C1370 C1372 1.383 . S
C1370 C1373 1.382 . S
C1370 H1381 0.930 . S
C1371 C1369 1.369 . S
C1371 C1373 1.392 . S
C1371 H1382 0.930 . S
C1372 C1368 1.373 . S
C1372 C1370 1.383 . S
C1372 H1383 0.931 . S
C1373 C1370 1.382 . S
C1373 C1371 1.392 . S
C1374 Eu1345 2.828 . S
C1374 O1358 1.249 . S
C1374 O1359 1.244 . S
C1374 C1368 1.505 . S
C1375 O1362 1.258 . S
C1375 O1363 1.242 . S
H1376 C1348 0.930 . S
H1377 C1349 0.930 . S
H1378 C1350 0.930 . S
H1379 C1351 0.931 . S
H1380 C1369 0.930 . S
H1381 C1370 0.930 . S
H1382 C1371 0.930 . S
H1383 C1372 0.931 . S
Eu1384 C1393 2.828 . S
Eu1384 O1395 2.392 . S
Eu1384 O1397 2.418 . S
Eu1384 O1402 2.373 . S
Eu1384 O1405 2.488 . S
Eu1384 O1406 2.471 . S
Eu1384 O1407 2.349 . S
Eu1385 O1394 2.373 . S
Eu1385 O1398 2.488 . S
Eu1385 O1399 2.471 . S
Eu1385 O1400 2.349 . S
Eu1385 O1403 2.392 . S
Eu1385 O1404 2.418 . S
Eu1385 C1414 2.828 . S
C1386 O1404 1.244 . S
C1386 O1407 1.265 . S
C1387 C1388 1.379 . S
C1387 C1391 1.373 . S
C1387 C1393 1.505 . S
C1388 C1387 1.379 . S
C1388 C1390 1.369 . S
C1388 H1416 0.930 . S
C1389 C1391 1.383 . S
C1389 C1392 1.382 . S
C1389 H1417 0.930 . S
C1390 C1388 1.369 . S
C1390 C1392 1.392 . S
C1390 H1418 0.930 . S
C1391 C1387 1.373 . S
C1391 C1389 1.383 . S
C1391 H1419 0.931 . S
C1392 C1389 1.382 . S
C1392 C1390 1.392 . S
C1393 Eu1384 2.828 . S
C1393 C1387 1.505 . S
C1393 O1405 1.249 . S
C1393 O1406 1.244 . S
O1394 Eu1385 2.373 . S
O1394 C1396 1.258 . S
O1395 Eu1384 2.392 . S
O1395 C1396 1.242 . S
C1396 O1394 1.258 . S
C1396 O1395 1.242 . S
O1397 Eu1384 2.418 . S
O1397 C1401 1.244 . S
O1398 Eu1385 2.488 . S
O1398 C1414 1.249 . S
O1399 Eu1385 2.471 . S
O1399 C1414 1.244 . S
O1400 Eu1385 2.349 . S
O1400 C1401 1.265 . S
C1401 O1397 1.244 . S
C1401 O1400 1.265 . S
O1402 Eu1384 2.373 . S
O1402 C1415 1.258 . S
O1403 Eu1385 2.392 . S
O1403 C1415 1.242 . S
O1404 Eu1385 2.418 . S
O1404 C1386 1.244 . S
O1405 Eu1384 2.488 . S
O1405 C1393 1.249 . S
O1406 Eu1384 2.471 . S
O1406 C1393 1.244 . S
O1407 Eu1384 2.349 . S
O1407 C1386 1.265 . S
C1408 C1409 1.379 . S
C1408 C1412 1.373 . S
C1408 C1414 1.505 . S
C1409 C1408 1.379 . S
C1409 C1411 1.369 . S
C1409 H1420 0.930 . S
C1410 C1412 1.383 . S
C1410 C1413 1.382 . S
C1410 H1421 0.930 . S
C1411 C1409 1.369 . S
C1411 C1413 1.392 . S
C1411 H1422 0.930 . S
C1412 C1408 1.373 . S
C1412 C1410 1.383 . S
C1412 H1423 0.931 . S
C1413 C1410 1.382 . S
C1413 C1411 1.392 . S
C1414 Eu1385 2.828 . S
C1414 O1398 1.249 . S
C1414 O1399 1.244 . S
C1414 C1408 1.505 . S
C1415 O1402 1.258 . S
C1415 O1403 1.242 . S
H1416 C1388 0.930 . S
H1417 C1389 0.930 . S
H1418 C1390 0.930 . S
H1419 C1391 0.931 . S
H1420 C1409 0.930 . S
H1421 C1410 0.930 . S
H1422 C1411 0.930 . S
H1423 C1412 0.931 . S
Eu1424 C1433 2.828 . S
Eu1424 O1435 2.392 . S
Eu1424 O1437 2.418 . S
Eu1424 O1442 2.373 . S
Eu1424 O1445 2.488 . S
Eu1424 O1446 2.471 . S
Eu1424 O1447 2.349 . S
Eu1425 O1434 2.373 . S
Eu1425 O1438 2.488 . S
Eu1425 O1439 2.471 . S
Eu1425 O1440 2.349 . S
Eu1425 O1443 2.392 . S
Eu1425 O1444 2.418 . S
Eu1425 C1454 2.828 . S
C1426 O1444 1.244 . S
C1426 O1447 1.265 . S
C1427 C1428 1.379 . S
C1427 C1431 1.373 . S
C1427 C1433 1.505 . S
C1428 C1427 1.379 . S
C1428 C1430 1.369 . S
C1428 H1456 0.930 . S
C1429 C1431 1.383 . S
C1429 C1432 1.382 . S
C1429 H1457 0.930 . S
C1430 C1428 1.369 . S
C1430 C1432 1.392 . S
C1430 H1458 0.930 . S
C1431 C1427 1.373 . S
C1431 C1429 1.383 . S
C1431 H1459 0.931 . S
C1432 C1429 1.382 . S
C1432 C1430 1.392 . S
C1433 Eu1424 2.828 . S
C1433 C1427 1.505 . S
C1433 O1445 1.249 . S
C1433 O1446 1.244 . S
O1434 Eu1425 2.373 . S
O1434 C1436 1.258 . S
O1435 Eu1424 2.392 . S
O1435 C1436 1.242 . S
C1436 O1434 1.258 . S
C1436 O1435 1.242 . S
O1437 Eu1424 2.418 . S
O1437 C1441 1.244 . S
O1438 Eu1425 2.488 . S
O1438 C1454 1.249 . S
O1439 Eu1425 2.471 . S
O1439 C1454 1.244 . S
O1440 Eu1425 2.349 . S
O1440 C1441 1.265 . S
C1441 O1437 1.244 . S
C1441 O1440 1.265 . S
O1442 Eu1424 2.373 . S
O1442 C1455 1.258 . S
O1443 Eu1425 2.392 . S
O1443 C1455 1.242 . S
O1444 Eu1425 2.418 . S
O1444 C1426 1.244 . S
O1445 Eu1424 2.488 . S
O1445 C1433 1.249 . S
O1446 Eu1424 2.471 . S
O1446 C1433 1.244 . S
O1447 Eu1424 2.349 . S
O1447 C1426 1.265 . S
C1448 C1449 1.379 . S
C1448 C1452 1.373 . S
C1448 C1454 1.505 . S
C1449 C1448 1.379 . S
C1449 C1451 1.369 . S
C1449 H1460 0.930 . S
C1450 C1452 1.383 . S
C1450 C1453 1.382 . S
C1450 H1461 0.930 . S
C1451 C1449 1.369 . S
C1451 C1453 1.392 . S
C1451 H1462 0.930 . S
C1452 C1448 1.373 . S
C1452 C1450 1.383 . S
C1452 H1463 0.931 . S
C1453 C1450 1.382 . S
C1453 C1451 1.392 . S
C1454 Eu1425 2.828 . S
C1454 O1438 1.249 . S
C1454 O1439 1.244 . S
C1454 C1448 1.505 . S
C1455 O1442 1.258 . S
C1455 O1443 1.242 . S
H1456 C1428 0.930 . S
H1457 C1429 0.930 . S
H1458 C1430 0.930 . S
H1459 C1431 0.931 . S
H1460 C1449 0.930 . S
H1461 C1450 0.930 . S
H1462 C1451 0.930 . S
H1463 C1452 0.931 . S
Eu1464 C1473 2.828 1_554 S
Eu1464 O1475 2.392 . S
Eu1464 O1477 2.418 1_554 S
Eu1464 O1482 2.373 1_554 S
Eu1464 O1485 2.488 1_554 S
Eu1464 O1486 2.471 . S
Eu1464 O1487 2.349 . S
Eu1465 O1474 2.373 . S
Eu1465 O1478 2.501 . S
Eu1465 O1479 2.471 1_455 S
Eu1465 O1480 2.349 1_554 S
Eu1465 O1483 2.392 . S
Eu1465 O1484 2.418 . S
Eu1465 C1494 2.828 1_455 S
C1466 O1484 1.244 . S
C1466 O1487 1.265 . S
C1467 C1468 1.379 1_556 S
C1467 C1471 1.373 . S
C1467 C1473 1.505 . S
C1468 C1467 1.379 1_554 S
C1468 C1470 1.369 . S
C1468 H1496 0.930 . S
C1469 C1471 1.383 . S
C1469 C1472 1.382 . S
C1469 H1497 0.930 . S
C1470 C1468 1.369 . S
C1470 C1472 1.392 1_554 S
C1470 H1498 0.930 . S
C1471 C1467 1.373 . S
C1471 C1469 1.383 . S
C1471 H1499 0.931 . S
C1472 C1469 1.382 . S
C1472 C1470 1.392 1_556 S
C1473 Eu1464 2.828 1_556 S
C1473 C1467 1.505 . S
C1473 O1485 1.249 . S
C1473 O1486 1.244 1_556 S
O1474 Eu1465 2.373 . S
O1474 C1476 1.258 . S
O1475 Eu1464 2.392 . S
O1475 C1476 1.242 . S
C1476 O1474 1.258 . S
C1476 O1475 1.242 . S
O1477 Eu1464 2.418 1_556 S
O1477 C1481 1.244 . S
O1478 Eu1465 2.501 . S
O1478 C1494 1.243 1_455 S
O1479 Eu1465 2.471 1_655 S
O1479 C1494 1.244 . S
O1480 Eu1465 2.349 1_556 S
O1480 C1481 1.265 . S
C1481 O1477 1.244 . S
C1481 O1480 1.265 . S
O1482 Eu1464 2.373 1_556 S
O1482 C1495 1.258 1_556 S
O1483 Eu1465 2.392 . S
O1483 C1495 1.242 . S
O1484 Eu1465 2.418 . S
O1484 C1466 1.244 . S
O1485 Eu1464 2.488 1_556 S
O1485 C1473 1.249 . S
O1486 Eu1464 2.471 . S
O1486 C1473 1.244 1_554 S
O1487 Eu1464 2.349 . S
O1487 C1466 1.265 . S
C1488 C1489 1.379 . S
C1488 C1492 1.373 . S
C1488 C1494 1.505 . S
C1489 C1488 1.379 . S
C1489 C1491 1.369 . S
C1489 H1500 0.930 . S
C1490 C1492 1.383 . S
C1490 C1493 1.382 . S
C1490 H1501 0.930 . S
C1491 C1489 1.369 . S
C1491 C1493 1.392 . S
C1491 H1502 0.930 . S
C1492 C1488 1.373 . S
C1492 C1490 1.383 . S
C1492 H1503 0.931 . S
C1493 C1490 1.382 . S
C1493 C1491 1.392 . S
C1494 Eu1465 2.828 1_655 S
C1494 O1478 1.243 1_655 S
C1494 O1479 1.244 . S
C1494 C1488 1.505 . S
C1495 O1482 1.258 1_554 S
C1495 O1483 1.242 . S
H1496 C1468 0.930 . S
H1497 C1469 0.930 . S
H1498 C1470 0.930 . S
H1499 C1471 0.931 . S
H1500 C1489 0.930 . S
H1501 C1490 0.930 . S
H1502 C1491 0.930 . S
H1503 C1492 0.931 . S
C1504 C1505 1.363 . S
C1504 C1510 1.379 . S
C1504 N1512 1.356 1_455 S
C1505 C1504 1.363 . S
C1505 C1511 1.363 . S
C1506 C1507 1.363 . S
C1506 C1511 1.379 . S
C1506 N1513 1.356 1_556 S
C1507 C1506 1.363 . S
C1507 C1510 1.363 . S
N1508 C1510 1.356 . S
N1508 H1520 0.984 . S
N1508 H1521 0.985 . S
N1509 C1511 1.356 . S
N1509 H1514 0.984 . S
N1509 H1515 0.985 . S
C1510 C1504 1.379 . S
C1510 C1507 1.363 . S
C1510 N1508 1.356 . S
C1511 C1505 1.363 . S
C1511 C1506 1.379 . S
C1511 N1509 1.356 . S
N1512 C1504 1.356 1_655 S
N1512 H1518 0.984 . S
N1512 H1519 0.984 . S
N1513 C1506 1.356 1_554 S
N1513 H1516 0.984 . S
N1513 H1517 0.985 . S
H1514 N1509 0.984 . S
H1515 N1509 0.985 . S
H1516 N1513 0.984 . S
H1517 N1513 0.985 . S
H1518 N1512 0.984 . S
H1519 N1512 0.984 . S
H1520 N1508 0.984 . S
H1521 N1508 0.985 . S
C1522 C1523 1.363 . S
C1522 C1528 1.379 . S
C1522 N1530 1.356 . S
C1523 C1522 1.363 . S
C1523 C1529 1.363 . S
C1524 C1525 1.363 . S
C1524 C1529 1.379 . S
C1524 N1531 1.356 . S
C1525 C1524 1.363 . S
C1525 C1528 1.363 . S
N1526 C1528 1.356 . S
N1526 H1538 0.984 . S
N1526 H1539 0.985 . S
N1527 C1529 1.356 . S
N1527 H1532 0.984 . S
N1527 H1533 0.985 . S
C1528 C1522 1.379 . S
C1528 C1525 1.363 . S
C1528 N1526 1.356 . S
C1529 C1523 1.363 . S
C1529 C1524 1.379 . S
C1529 N1527 1.356 . S
N1530 C1522 1.356 . S
N1530 H1536 0.984 . S
N1530 H1537 0.984 . S
N1531 C1524 1.356 . S
N1531 H1534 0.984 . S
N1531 H1535 0.985 . S
H1532 N1527 0.984 . S
H1533 N1527 0.985 . S
H1534 N1531 0.984 . S
H1535 N1531 0.985 . S
H1536 N1530 0.984 . S
H1537 N1530 0.984 . S
H1538 N1526 0.984 . S
H1539 N1526 0.985 . S
C1540 C1541 1.363 . S
C1540 C1546 1.379 . S
C1540 N1548 1.356 . S
C1541 C1540 1.363 . S
C1541 C1547 1.363 . S
C1542 C1543 1.363 . S
C1542 C1547 1.379 . S
C1542 N1549 1.356 . S
C1543 C1542 1.363 . S
C1543 C1546 1.363 . S
N1544 C1546 1.356 . S
N1544 H1556 0.997 . S
N1544 H1557 0.985 1_565 S
N1545 C1547 1.356 . S
N1545 H1550 0.984 . S
N1545 H1551 0.985 . S
C1546 C1540 1.379 . S
C1546 C1543 1.363 . S
C1546 N1544 1.356 . S
C1547 C1541 1.363 . S
C1547 C1542 1.379 . S
C1547 N1545 1.356 . S
N1548 C1540 1.356 . S
N1548 H1554 0.984 . S
N1548 H1555 0.984 . S
N1549 C1542 1.356 . S
N1549 H1552 0.984 . S
N1549 H1553 0.985 . S
H1550 N1545 0.984 . S
H1551 N1545 0.985 . S
H1552 N1549 0.984 . S
H1553 N1549 0.985 . S
H1554 N1548 0.984 . S
H1555 N1548 0.984 . S
H1556 N1544 0.997 . S
H1557 N1544 0.985 1_545 S
C1558 C1559 1.363 . S
C1558 C1564 1.379 . S
C1558 N1566 1.356 . S
C1559 C1558 1.363 . S
C1559 C1565 1.363 . S
C1560 C1561 1.363 . S
C1560 C1565 1.379 . S
C1560 N1567 1.356 . S
C1561 C1560 1.363 . S
C1561 C1564 1.363 . S
N1562 C1564 1.356 . S
N1562 H1574 0.984 . S
N1562 H1575 0.985 . S
N1563 C1565 1.356 . S
N1563 H1568 0.984 . S
N1563 H1569 0.985 . S
C1564 C1558 1.379 . S
C1564 C1561 1.363 . S
C1564 N1562 1.356 . S
C1565 C1559 1.363 . S
C1565 C1560 1.379 . S
C1565 N1563 1.356 . S
N1566 C1558 1.356 . S
N1566 H1572 0.984 . S
N1566 H1573 0.984 . S
N1567 C1560 1.356 . S
N1567 H1570 0.984 . S
N1567 H1571 0.985 . S
H1568 N1563 0.984 . S
H1569 N1563 0.985 . S
H1570 N1567 0.984 . S
H1571 N1567 0.985 . S
H1572 N1566 0.984 . S
H1573 N1566 0.984 . S
H1574 N1562 0.984 . S
H1575 N1562 0.985 . S
C1576 C1577 1.363 . S
C1576 C1582 1.379 . S
C1576 N1584 1.356 1_455 S
C1577 C1576 1.363 . S
C1577 C1583 1.363 . S
C1578 C1579 1.363 . S
C1578 C1583 1.379 . S
C1578 N1585 1.356 . S
C1579 C1578 1.363 . S
C1579 C1582 1.363 . S
N1580 C1582 1.356 . S
N1580 H1592 0.984 . S
N1580 H1593 0.985 . S
N1581 C1583 1.356 . S
N1581 H1586 0.984 . S
N1581 H1587 0.985 . S
C1582 C1576 1.379 . S
C1582 C1579 1.363 . S
C1582 N1580 1.356 . S
C1583 C1577 1.363 . S
C1583 C1578 1.379 . S
C1583 N1581 1.356 . S
N1584 C1576 1.356 1_655 S
N1584 H1590 0.984 . S
N1584 H1591 0.984 . S
N1585 C1578 1.356 . S
N1585 H1588 0.984 . S
N1585 H1589 0.985 . S
H1586 N1581 0.984 . S
H1587 N1581 0.985 . S
H1588 N1585 0.984 . S
H1589 N1585 0.985 . S
H1590 N1584 0.984 . S
H1591 N1584 0.984 . S
H1592 N1580 0.984 . S
H1593 N1580 0.985 . S
C1594 C1595 1.363 . S
C1594 C1600 1.379 . S
C1594 N1602 1.356 . S
C1595 C1594 1.363 . S
C1595 C1601 1.363 . S
C1596 C1597 1.363 . S
C1596 C1601 1.379 . S
C1596 N1603 1.356 . S
C1597 C1596 1.363 . S
C1597 C1600 1.363 . S
N1598 C1600 1.356 . S
N1598 H1610 0.984 . S
N1598 H1611 0.985 . S
N1599 C1601 1.356 . S
N1599 H1604 0.984 . S
N1599 H1605 0.985 . S
C1600 C1594 1.379 . S
C1600 C1597 1.363 . S
C1600 N1598 1.356 . S
C1601 C1595 1.363 . S
C1601 C1596 1.379 . S
C1601 N1599 1.356 . S
N1602 C1594 1.356 . S
N1602 H1608 0.984 . S
N1602 H1609 0.984 . S
N1603 C1596 1.356 . S
N1603 H1606 0.984 . S
N1603 H1607 0.985 . S
H1604 N1599 0.984 . S
H1605 N1599 0.985 . S
H1606 N1603 0.984 . S
H1607 N1603 0.985 . S
H1608 N1602 0.984 . S
H1609 N1602 0.984 . S
H1610 N1598 0.984 . S
H1611 N1598 0.985 . S
C1612 C1613 1.363 . S
C1612 C1618 1.379 . S
C1612 N1620 1.356 . S
C1613 C1612 1.363 . S
C1613 C1619 1.363 . S
C1614 C1615 1.363 . S
C1614 C1619 1.379 . S
C1614 N1621 1.356 . S
C1615 C1614 1.363 . S
C1615 C1618 1.363 . S
N1616 C1618 1.356 . S
N1616 H1628 0.984 . S
N1616 H1629 0.985 . S
N1617 C1619 1.356 . S
N1617 H1622 0.984 . S
N1617 H1623 0.985 . S
C1618 C1612 1.379 . S
C1618 C1615 1.363 . S
C1618 N1616 1.356 . S
C1619 C1613 1.363 . S
C1619 C1614 1.379 . S
C1619 N1617 1.356 . S
N1620 C1612 1.356 . S
N1620 H1626 0.984 . S
N1620 H1627 0.984 . S
N1621 C1614 1.356 . S
N1621 H1624 0.984 . S
N1621 H1625 0.985 . S
H1622 N1617 0.984 . S
H1623 N1617 0.985 . S
H1624 N1621 0.984 . S
H1625 N1621 0.985 . S
H1626 N1620 0.984 . S
H1627 N1620 0.984 . S
H1628 N1616 0.984 . S
H1629 N1616 0.985 . S
C1630 C1631 1.363 . S
C1630 C1636 1.379 . S
C1630 N1638 1.356 . S
C1631 C1630 1.363 . S
C1631 C1637 1.363 . S
C1632 C1633 1.363 . S
C1632 C1637 1.379 . S
C1632 N1639 1.356 . S
C1633 C1632 1.363 . S
C1633 C1636 1.363 . S
N1634 C1636 1.356 . S
N1634 H1646 0.984 . S
N1634 H1647 0.985 . S
N1635 C1637 1.356 . S
N1635 H1640 0.984 . S
N1635 H1641 0.985 . S
C1636 C1630 1.379 . S
C1636 C1633 1.363 . S
C1636 N1634 1.356 . S
C1637 C1631 1.363 . S
C1637 C1632 1.379 . S
C1637 N1635 1.356 . S
N1638 C1630 1.356 . S
N1638 H1644 0.984 . S
N1638 H1645 0.984 . S
N1639 C1632 1.356 . S
N1639 H1642 0.984 . S
N1639 H1643 0.985 . S
H1640 N1635 0.984 . S
H1641 N1635 0.985 . S
H1642 N1639 0.984 . S
H1643 N1639 0.985 . S
H1644 N1638 0.984 . S
H1645 N1638 0.984 . S
H1646 N1634 0.984 . S
H1647 N1634 0.985 . S
C1648 C1649 1.363 . S
C1648 C1654 1.379 . S
C1648 N1656 1.356 . S
C1649 C1648 1.363 . S
C1649 C1655 1.367 . S
C1650 C1651 1.363 . S
C1650 C1655 1.389 . S
C1650 N1657 1.356 . S
C1651 C1650 1.363 . S
C1651 C1654 1.363 . S
N1652 C1654 1.356 . S
N1652 H1664 0.984 . S
N1652 H1665 0.985 . S
N1653 C1655 1.342 1_655 S
N1653 H1658 0.984 . S
N1653 H1659 0.985 . S
C1654 C1648 1.379 . S
C1654 C1651 1.363 . S
C1654 N1652 1.356 . S
C1655 C1649 1.367 . S
C1655 C1650 1.389 . S
C1655 N1653 1.342 1_455 S
N1656 C1648 1.356 . S
N1656 H1662 0.984 . S
N1656 H1663 0.984 . S
N1657 C1650 1.356 . S
N1657 H1660 0.984 . S
N1657 H1661 0.985 . S
H1658 N1653 0.984 . S
H1659 N1653 0.985 . S
H1660 N1657 0.984 . S
H1661 N1657 0.985 . S
H1662 N1656 0.984 . S
H1663 N1656 0.984 . S
H1664 N1652 0.984 . S
H1665 N1652 0.985 . S
C1666 C1667 1.363 . S
C1666 C1672 1.379 . S
C1666 N1674 1.356 . S
C1667 C1666 1.363 . S
C1667 C1673 1.363 . S
C1668 C1669 1.363 . S
C1668 C1673 1.379 . S
C1668 N1675 1.356 . S
C1669 C1668 1.363 . S
C1669 C1672 1.363 . S
N1670 C1672 1.356 . S
N1670 H1682 0.984 . S
N1670 H1683 0.985 . S
N1671 C1673 1.356 . S
N1671 H1676 0.984 . S
N1671 H1677 0.985 . S
C1672 C1666 1.379 . S
C1672 C1669 1.363 . S
C1672 N1670 1.356 . S
C1673 C1667 1.363 . S
C1673 C1668 1.379 . S
C1673 N1671 1.356 . S
N1674 C1666 1.356 . S
N1674 H1680 0.984 . S
N1674 H1681 0.984 . S
N1675 C1668 1.356 . S
N1675 H1678 0.984 . S
N1675 H1679 0.985 . S
H1676 N1671 0.984 . S
H1677 N1671 0.985 . S
H1678 N1675 0.984 . S
H1679 N1675 0.985 . S
H1680 N1674 0.984 . S
H1681 N1674 0.984 . S
H1682 N1670 0.984 . S
H1683 N1670 0.985 . S
C1684 C1685 1.363 . S
C1684 C1690 1.379 . S
C1684 N1692 1.356 . S
C1685 C1684 1.363 . S
C1685 C1691 1.363 . S
C1686 C1687 1.363 . S
C1686 C1691 1.379 . S
C1686 N1693 1.356 . S
C1687 C1686 1.363 . S
C1687 C1690 1.363 . S
N1688 C1690 1.356 . S
N1688 H1700 0.984 . S
N1688 H1701 0.985 . S
N1689 C1691 1.356 . S
N1689 H1694 0.984 . S
N1689 H1695 0.985 . S
C1690 C1684 1.379 . S
C1690 C1687 1.363 . S
C1690 N1688 1.356 . S
C1691 C1685 1.363 . S
C1691 C1686 1.379 . S
C1691 N1689 1.356 . S
N1692 C1684 1.356 . S
N1692 H1698 0.984 . S
N1692 H1699 0.984 . S
N1693 C1686 1.356 . S
N1693 H1696 0.984 . S
N1693 H1697 0.985 1_545 S
H1694 N1689 0.984 . S
H1695 N1689 0.985 . S
H1696 N1693 0.984 . S
H1697 N1693 0.985 1_565 S
H1698 N1692 0.984 . S
H1699 N1692 0.984 . S
H1700 N1688 0.984 . S
H1701 N1688 0.985 . S
C1702 C1703 1.363 . S
C1702 C1708 1.379 . S
C1702 N1710 1.356 . S
C1703 C1702 1.363 . S
C1703 C1709 1.363 . S
C1704 C1705 1.363 . S
C1704 C1709 1.379 . S
C1704 N1711 1.356 . S
C1705 C1704 1.363 . S
C1705 C1708 1.363 . S
N1706 C1708 1.356 . S
N1706 H1718 0.984 . S
N1706 H1719 0.985 . S
N1707 C1709 1.356 . S
N1707 H1712 0.984 . S
N1707 H1713 0.985 . S
C1708 C1702 1.379 . S
C1708 C1705 1.363 . S
C1708 N1706 1.356 . S
C1709 C1703 1.363 . S
C1709 C1704 1.379 . S
C1709 N1707 1.356 . S
N1710 C1702 1.356 . S
N1710 H1716 0.984 . S
N1710 H1717 0.984 . S
N1711 C1704 1.356 . S
N1711 H1714 0.984 . S
N1711 H1715 0.985 . S
H1712 N1707 0.984 . S
H1713 N1707 0.985 . S
H1714 N1711 0.984 . S
H1715 N1711 0.985 . S
H1716 N1710 0.984 . S
H1717 N1710 0.984 . S
H1718 N1706 0.984 . S
H1719 N1706 0.985 . S
C1720 C1721 1.363 1_655 S
C1720 C1726 1.379 1_655 S
C1720 N1728 1.356 . S
C1721 C1720 1.363 1_455 S
C1721 C1727 1.363 . S
C1722 C1723 1.363 . S
C1722 C1727 1.379 . S
C1722 N1729 1.356 . S
C1723 C1722 1.363 . S
C1723 C1726 1.363 . S
N1724 C1726 1.356 . S
N1724 H1736 0.984 1_445 S
N1724 H1737 0.985 . S
N1725 C1727 1.356 . S
N1725 H1730 0.984 . S
N1725 H1731 0.985 . S
C1726 C1720 1.379 1_455 S
C1726 C1723 1.363 . S
C1726 N1724 1.356 . S
C1727 C1721 1.363 . S
C1727 C1722 1.379 . S
C1727 N1725 1.356 . S
N1728 C1720 1.356 . S
N1728 H1734 0.984 . S
N1728 H1735 0.984 . S
N1729 C1722 1.356 . S
N1729 H1732 0.984 . S
N1729 H1733 0.985 . S
H1730 N1725 0.984 . S
H1731 N1725 0.985 . S
H1732 N1729 0.984 . S
H1733 N1729 0.985 . S
H1734 N1728 0.984 . S
H1735 N1728 0.984 . S
H1736 N1724 0.984 1_665 S
H1737 N1724 0.985 . S
C1738 C1739 1.363 . S
C1738 C1744 1.379 . S
C1738 N1746 1.356 . S
C1739 C1738 1.363 . S
C1739 C1745 1.363 . S
C1740 C1741 1.363 . S
C1740 C1745 1.379 . S
C1740 N1747 1.356 . S
C1741 C1740 1.363 . S
C1741 C1744 1.363 . S
N1742 C1744 1.356 . S
N1742 H1754 0.984 . S
N1742 H1755 0.985 . S
N1743 C1745 1.356 . S
N1743 H1748 0.984 . S
N1743 H1749 0.985 . S
C1744 C1738 1.379 . S
C1744 C1741 1.363 . S
C1744 N1742 1.356 . S
C1745 C1739 1.363 . S
C1745 C1740 1.379 . S
C1745 N1743 1.356 . S
N1746 C1738 1.356 . S
N1746 H1752 0.984 . S
N1746 H1753 0.984 . S
N1747 C1740 1.356 . S
N1747 H1750 0.984 . S
N1747 H1751 0.985 . S
H1748 N1743 0.984 . S
H1749 N1743 0.985 . S
H1750 N1747 0.984 . S
H1751 N1747 0.985 . S
H1752 N1746 0.984 . S
H1753 N1746 0.984 . S
H1754 N1742 0.984 . S
H1755 N1742 0.985 . S
C1756 C1757 1.363 . S
C1756 C1762 1.379 . S
C1756 N1764 1.356 . S
C1757 C1756 1.363 . S
C1757 C1763 1.363 . S
C1758 C1759 1.363 . S
C1758 C1763 1.379 . S
C1758 N1765 1.356 . S
C1759 C1758 1.363 . S
C1759 C1762 1.363 . S
N1760 C1762 1.356 . S
N1760 H1772 0.984 . S
N1760 H1773 0.985 . S
N1761 C1763 1.356 . S
N1761 H1766 0.984 . S
N1761 H1767 0.985 . S
C1762 C1756 1.379 . S
C1762 C1759 1.363 . S
C1762 N1760 1.356 . S
C1763 C1757 1.363 . S
C1763 C1758 1.379 . S
C1763 N1761 1.356 . S
N1764 C1756 1.356 . S
N1764 H1770 0.984 . S
N1764 H1771 0.984 . S
N1765 C1758 1.356 . S
N1765 H1768 0.984 . S
N1765 H1769 0.985 . S
H1766 N1761 0.984 . S
H1767 N1761 0.985 . S
H1768 N1765 0.984 . S
H1769 N1765 0.985 . S
H1770 N1764 0.984 . S
H1771 N1764 0.984 . S
H1772 N1760 0.984 . S
H1773 N1760 0.985 . S
C1774 C1775 1.363 . S
C1774 C1780 1.379 . S
C1774 N1782 1.356 . S
C1775 C1774 1.363 . S
C1775 C1781 1.363 . S
C1776 C1777 1.363 . S
C1776 C1781 1.379 . S
C1776 N1783 1.356 . S
C1777 C1776 1.363 . S
C1777 C1780 1.363 . S
N1778 C1780 1.356 . S
N1778 H1790 0.984 . S
N1778 H1791 0.985 . S
N1779 C1781 1.356 . S
N1779 H1784 0.984 . S
N1779 H1785 0.985 . S
C1780 C1774 1.379 . S
C1780 C1777 1.363 . S
C1780 N1778 1.356 . S
C1781 C1775 1.363 . S
C1781 C1776 1.379 . S
C1781 N1779 1.356 . S
N1782 C1774 1.356 . S
N1782 H1788 0.984 . S
N1782 H1789 0.984 . S
N1783 C1776 1.356 . S
N1783 H1786 0.984 . S
N1783 H1787 0.985 . S
H1784 N1779 0.984 . S
H1785 N1779 0.985 . S
H1786 N1783 0.984 . S
H1787 N1783 0.985 . S
H1788 N1782 0.984 . S
H1789 N1782 0.984 . S
H1790 N1778 0.984 . S
H1791 N1778 0.985 . S
C1792 C1793 1.363 . S
C1792 C1798 1.379 . S
C1792 N1800 1.356 . S
C1793 C1792 1.363 . S
C1793 C1799 1.363 1_565 S
C1794 C1795 1.363 . S
C1794 C1799 1.379 . S
C1794 N1801 1.356 . S
C1795 C1794 1.363 . S
C1795 C1798 1.363 1_545 S
N1796 C1798 1.356 . S
N1796 H1808 0.984 . S
N1796 H1809 0.985 . S
N1797 C1799 1.356 1_556 S
N1797 H1802 0.984 . S
N1797 H1803 0.985 . S
C1798 C1792 1.379 . S
C1798 C1795 1.363 1_565 S
C1798 N1796 1.356 . S
C1799 C1793 1.363 1_545 S
C1799 C1794 1.379 . S
C1799 N1797 1.356 1_554 S
N1800 C1792 1.356 . S
N1800 H1806 0.984 . S
N1800 H1807 0.984 . S
N1801 C1794 1.356 . S
N1801 H1804 0.984 . S
N1801 H1805 0.985 1_554 S
H1802 N1797 0.984 . S
H1803 N1797 0.985 . S
H1804 N1801 0.984 . S
H1805 N1801 0.985 1_556 S
H1806 N1800 0.984 . S
H1807 N1800 0.984 . S
H1808 N1796 0.984 . S
H1809 N1796 0.985 . S
C1810 C1811 1.363 . S
C1810 C1816 1.379 . S
C1810 N1818 1.356 . S
C1811 C1810 1.363 . S
C1811 C1817 1.363 1_554 S
C1812 C1813 1.363 1_556 S
C1812 C1817 1.379 . S
C1812 N1819 1.356 . S
C1813 C1812 1.363 1_554 S
C1813 C1816 1.363 . S
N1814 C1816 1.356 . S
N1814 H1826 0.984 . S
N1814 H1827 0.985 . S
N1815 C1817 1.356 . S
N1815 H1820 0.984 . S
N1815 H1821 0.985 . S
C1816 C1810 1.379 . S
C1816 C1813 1.363 . S
C1816 N1814 1.356 . S
C1817 C1811 1.363 1_556 S
C1817 C1812 1.379 . S
C1817 N1815 1.356 . S
N1818 C1810 1.356 . S
N1818 H1824 0.984 . S
N1818 H1825 0.984 . S
N1819 C1812 1.356 . S
N1819 H1822 0.984 . S
N1819 H1823 0.985 . S
H1820 N1815 0.984 . S
H1821 N1815 0.985 . S
H1822 N1819 0.984 . S
H1823 N1819 0.985 . S
H1824 N1818 0.984 . S
H1825 N1818 0.984 . S
H1826 N1814 0.984 . S
H1827 N1814 0.985 . S
C1828 C1829 1.363 . S
C1828 C1834 1.379 . S
C1828 N1836 1.356 . S
C1829 C1828 1.363 . S
C1829 C1835 1.363 . S
C1830 C1831 1.363 . S
C1830 C1835 1.379 . S
C1830 N1837 1.356 . S
C1831 C1830 1.363 . S
C1831 C1834 1.363 . S
N1832 C1834 1.356 . S
N1832 H1844 0.984 . S
N1832 H1845 0.985 . S
N1833 C1835 1.356 . S
N1833 H1838 0.984 . S
N1833 H1839 0.985 . S
C1834 C1828 1.379 . S
C1834 C1831 1.363 . S
C1834 N1832 1.356 . S
C1835 C1829 1.363 . S
C1835 C1830 1.379 . S
C1835 N1833 1.356 . S
N1836 C1828 1.356 . S
N1836 H1842 0.984 . S
N1836 H1843 0.984 . S
N1837 C1830 1.356 . S
N1837 H1840 0.984 . S
N1837 H1841 0.985 . S
H1838 N1833 0.984 . S
H1839 N1833 0.985 . S
H1840 N1837 0.984 . S
H1841 N1837 0.985 . S
H1842 N1836 0.984 . S
H1843 N1836 0.984 . S
H1844 N1832 0.984 . S
H1845 N1832 0.985 . S
C1846 C1847 1.363 . S
C1846 C1852 1.379 . S
C1846 N1854 1.356 . S
C1847 C1846 1.363 . S
C1847 C1853 1.363 . S
C1848 C1849 1.363 . S
C1848 C1853 1.379 . S
C1848 N1855 1.356 . S
C1849 C1848 1.363 . S
C1849 C1852 1.363 . S
N1850 C1852 1.356 . S
N1850 H1862 0.984 . S
N1850 H1863 0.985 . S
N1851 C1853 1.356 . S
N1851 H1856 0.984 . S
N1851 H1857 0.985 . S
C1852 C1846 1.379 . S
C1852 C1849 1.363 . S
C1852 N1850 1.356 . S
C1853 C1847 1.363 . S
C1853 C1848 1.379 . S
C1853 N1851 1.356 . S
N1854 C1846 1.356 . S
N1854 H1860 0.984 . S
N1854 H1861 0.984 . S
N1855 C1848 1.356 . S
N1855 H1858 0.984 . S
N1855 H1859 0.985 . S
H1856 N1851 0.984 . S
H1857 N1851 0.985 . S
H1858 N1855 0.984 . S
H1859 N1855 0.985 . S
H1860 N1854 0.984 . S
H1861 N1854 0.984 . S
H1862 N1850 0.984 . S
H1863 N1850 0.985 . S
C1864 C1865 1.363 . S
C1864 C1870 1.379 . S
C1864 N1872 1.356 . S
C1865 C1864 1.363 . S
C1865 C1871 1.363 . S
C1866 C1867 1.363 . S
C1866 C1871 1.379 . S
C1866 N1873 1.356 . S
C1867 C1866 1.363 . S
C1867 C1870 1.363 . S
N1868 C1870 1.356 . S
N1868 H1880 0.984 . S
N1868 H1881 0.985 . S
N1869 C1871 1.356 . S
N1869 H1874 0.984 . S
N1869 H1875 0.985 . S
C1870 C1864 1.379 . S
C1870 C1867 1.363 . S
C1870 N1868 1.356 . S
C1871 C1865 1.363 . S
C1871 C1866 1.379 . S
C1871 N1869 1.356 . S
N1872 C1864 1.356 . S
N1872 H1878 0.984 . S
N1872 H1879 0.984 . S
N1873 C1866 1.356 . S
N1873 H1876 0.984 . S
N1873 H1877 0.985 . S
H1874 N1869 0.984 . S
H1875 N1869 0.985 . S
H1876 N1873 0.984 . S
H1877 N1873 0.985 . S
H1878 N1872 0.984 . S
H1879 N1872 0.984 . S
H1880 N1868 0.984 . S
H1881 N1868 0.985 . S
C1882 C1883 1.363 . S
C1882 C1888 1.379 . S
C1882 N1890 1.356 . S
C1883 C1882 1.363 . S
C1883 C1889 1.363 . S
C1884 C1885 1.363 . S
C1884 C1889 1.379 . S
C1884 N1891 1.356 . S
C1885 C1884 1.363 . S
C1885 C1888 1.363 . S
N1886 C1888 1.356 . S
N1886 H1898 0.984 . S
N1886 H1899 0.985 . S
N1887 C1889 1.356 . S
N1887 H1892 0.984 . S
N1887 H1893 0.985 . S
C1888 C1882 1.379 . S
C1888 C1885 1.363 . S
C1888 N1886 1.356 . S
C1889 C1883 1.363 . S
C1889 C1884 1.379 . S
C1889 N1887 1.356 . S
N1890 C1882 1.356 . S
N1890 H1896 0.984 . S
N1890 H1897 0.984 . S
N1891 C1884 1.356 . S
N1891 H1894 0.984 . S
N1891 H1895 0.985 . S
H1892 N1887 0.984 . S
H1893 N1887 0.985 . S
H1894 N1891 0.984 . S
H1895 N1891 0.985 . S
H1896 N1890 0.984 . S
H1897 N1890 0.984 . S
H1898 N1886 0.984 . S
H1899 N1886 0.985 . S
C1900 C1901 1.363 . S
C1900 C1906 1.379 . S
C1900 N1908 1.356 . S
C1901 C1900 1.363 . S
C1901 C1907 1.363 . S
C1902 C1903 1.363 . S
C1902 C1907 1.379 . S
C1902 N1909 1.356 . S
C1903 C1902 1.363 . S
C1903 C1906 1.363 . S
N1904 C1906 1.356 . S
N1904 H1916 0.984 . S
N1904 H1917 0.985 . S
N1905 C1907 1.356 . S
N1905 H1910 0.984 . S
N1905 H1911 0.985 . S
C1906 C1900 1.379 . S
C1906 C1903 1.363 . S
C1906 N1904 1.356 . S
C1907 C1901 1.363 . S
C1907 C1902 1.379 . S
C1907 N1905 1.356 . S
N1908 C1900 1.356 . S
N1908 H1914 0.984 . S
N1908 H1915 0.984 . S
N1909 C1902 1.356 . S
N1909 H1912 0.984 . S
N1909 H1913 0.985 . S
H1910 N1905 0.984 . S
H1911 N1905 0.985 . S
H1912 N1909 0.984 . S
H1913 N1909 0.985 . S
H1914 N1908 0.984 . S
H1915 N1908 0.984 . S
H1916 N1904 0.984 . S
H1917 N1904 0.985 . S
C1918 C1919 1.363 . S
C1918 C1924 1.379 . S
C1918 N1926 1.356 . S
C1919 C1918 1.363 . S
C1919 C1925 1.363 . S
C1920 C1921 1.363 . S
C1920 C1925 1.379 . S
C1920 N1927 1.356 . S
C1921 C1920 1.363 . S
C1921 C1924 1.363 . S
N1922 C1924 1.356 . S
N1922 H1934 0.984 . S
N1922 H1935 0.985 . S
N1923 C1925 1.356 . S
N1923 H1928 0.984 . S
N1923 H1929 0.985 . S
C1924 C1918 1.379 . S
C1924 C1921 1.363 . S
C1924 N1922 1.356 . S
C1925 C1919 1.363 . S
C1925 C1920 1.379 . S
C1925 N1923 1.356 . S
N1926 C1918 1.356 . S
N1926 H1932 0.984 . S
N1926 H1933 0.984 . S
N1927 C1920 1.356 . S
N1927 H1930 0.984 . S
N1927 H1931 0.985 . S
H1928 N1923 0.984 . S
H1929 N1923 0.985 . S
H1930 N1927 0.984 . S
H1931 N1927 0.985 . S
H1932 N1926 0.984 . S
H1933 N1926 0.984 . S
H1934 N1922 0.984 . S
H1935 N1922 0.985 . S
C1936 C1937 1.363 . S
C1936 C1942 1.379 . S
C1936 N1944 1.356 . S
C1937 C1936 1.363 . S
C1937 C1943 1.363 . S
C1938 C1939 1.363 . S
C1938 C1943 1.379 . S
C1938 N1945 1.356 . S
C1939 C1938 1.363 . S
C1939 C1942 1.363 . S
N1940 C1942 1.356 . S
N1940 H1952 0.984 . S
N1940 H1953 0.985 . S
N1941 C1943 1.356 . S
N1941 H1946 0.984 . S
N1941 H1947 0.985 . S
C1942 C1936 1.379 . S
C1942 C1939 1.363 . S
C1942 N1940 1.356 . S
C1943 C1937 1.363 . S
C1943 C1938 1.379 . S
C1943 N1941 1.356 . S
N1944 C1936 1.356 . S
N1944 H1950 0.984 . S
N1944 H1951 0.984 . S
N1945 C1938 1.356 . S
N1945 H1948 0.984 . S
N1945 H1949 0.985 . S
H1946 N1941 0.984 . S
H1947 N1941 0.985 . S
H1948 N1945 0.984 . S
H1949 N1945 0.985 . S
H1950 N1944 0.984 . S
H1951 N1944 0.984 . S
H1952 N1940 0.984 . S
H1953 N1940 0.985 . S
C1954 C1955 1.363 . S
C1954 C1960 1.379 . S
C1954 N1962 1.356 . S
C1955 C1954 1.363 . S
C1955 C1961 1.363 . S
C1956 C1957 1.363 . S
C1956 C1961 1.379 . S
C1956 N1963 1.356 . S
C1957 C1956 1.363 . S
C1957 C1960 1.363 . S
N1958 C1960 1.356 . S
N1958 H1970 0.984 . S
N1958 H1971 0.985 . S
N1959 C1961 1.356 . S
N1959 H1964 0.984 . S
N1959 H1965 0.985 . S
C1960 C1954 1.379 . S
C1960 C1957 1.363 . S
C1960 N1958 1.356 . S
C1961 C1955 1.363 . S
C1961 C1956 1.379 . S
C1961 N1959 1.356 . S
N1962 C1954 1.356 . S
N1962 H1968 0.984 . S
N1962 H1969 0.984 . S
N1963 C1956 1.356 . S
N1963 H1966 0.984 . S
N1963 H1967 0.985 . S
H1964 N1959 0.984 . S
H1965 N1959 0.985 . S
H1966 N1963 0.984 . S
H1967 N1963 0.985 . S
H1968 N1962 0.984 . S
H1969 N1962 0.984 . S
H1970 N1958 0.984 . S
H1971 N1958 0.985 . S
C1972 C1973 1.363 . S
C1972 C1978 1.379 . S
C1972 N1980 1.356 . S
C1973 C1972 1.363 . S
C1973 C1979 1.363 . S
C1974 C1975 1.363 . S
C1974 C1979 1.379 . S
C1974 N1981 1.356 . S
C1975 C1974 1.363 . S
C1975 C1978 1.363 . S
N1976 C1978 1.356 . S
N1976 H1988 0.984 . S
N1976 H1989 0.985 . S
N1977 C1979 1.356 . S
N1977 H1982 0.984 . S
N1977 H1983 0.985 . S
C1978 C1972 1.379 . S
C1978 C1975 1.363 . S
C1978 N1976 1.356 . S
C1979 C1973 1.363 . S
C1979 C1974 1.379 . S
C1979 N1977 1.356 . S
N1980 C1972 1.356 . S
N1980 H1986 0.984 . S
N1980 H1987 0.984 . S
N1981 C1974 1.356 . S
N1981 H1984 0.984 . S
N1981 H1985 0.985 . S
H1982 N1977 0.984 . S
H1983 N1977 0.985 . S
H1984 N1981 0.984 . S
H1985 N1981 0.985 . S
H1986 N1980 0.984 . S
H1987 N1980 0.984 . S
H1988 N1976 0.984 . S
H1989 N1976 0.985 . S
C1990 C1991 1.363 . S
C1990 C1996 1.379 . S
C1990 N1998 1.356 . S
C1991 C1990 1.363 . S
C1991 C1997 1.363 . S
C1992 C1993 1.363 . S
C1992 C1997 1.379 . S
C1992 N1999 1.356 . S
C1993 C1992 1.363 . S
C1993 C1996 1.363 . S
N1994 C1996 1.356 . S
N1994 H2006 0.984 . S
N1994 H2007 0.985 . S
N1995 C1997 1.356 . S
N1995 H2000 0.984 . S
N1995 H2001 0.985 . S
C1996 C1990 1.379 . S
C1996 C1993 1.363 . S
C1996 N1994 1.356 . S
C1997 C1991 1.363 . S
C1997 C1992 1.379 . S
C1997 N1995 1.356 . S
N1998 C1990 1.356 . S
N1998 H2004 0.984 . S
N1998 H2005 0.984 . S
N1999 C1992 1.356 . S
N1999 H2002 0.984 . S
N1999 H2003 0.985 . S
H2000 N1995 0.984 . S
H2001 N1995 0.985 . S
H2002 N1999 0.984 . S
H2003 N1999 0.985 . S
H2004 N1998 0.984 . S
H2005 N1998 0.984 . S
H2006 N1994 0.984 . S
H2007 N1994 0.985 . S
C2008 C2009 1.363 . S
C2008 C2014 1.379 . S
C2008 N2016 1.356 . S
C2009 C2008 1.363 . S
C2009 C2015 1.363 . S
C2010 C2011 1.363 . S
C2010 C2015 1.379 . S
C2010 N2017 1.356 . S
C2011 C2010 1.363 . S
C2011 C2014 1.363 . S
N2012 C2014 1.356 . S
N2012 H2024 0.984 . S
N2012 H2025 0.985 . S
N2013 C2015 1.356 . S
N2013 H2018 0.984 . S
N2013 H2019 0.985 . S
C2014 C2008 1.379 . S
C2014 C2011 1.363 . S
C2014 N2012 1.356 . S
C2015 C2009 1.363 . S
C2015 C2010 1.379 . S
C2015 N2013 1.356 . S
N2016 C2008 1.356 . S
N2016 H2022 0.984 . S
N2016 H2023 0.984 . S
N2017 C2010 1.356 . S
N2017 H2020 0.984 . S
N2017 H2021 0.985 . S
H2018 N2013 0.984 . S
H2019 N2013 0.985 . S
H2020 N2017 0.984 . S
H2021 N2017 0.985 . S
H2022 N2016 0.984 . S
H2023 N2016 0.984 . S
H2024 N2012 0.984 . S
H2025 N2012 0.985 . S
C2026 C2027 1.363 . S
C2026 C2032 1.379 . S
C2026 N2034 1.356 . S
C2027 C2026 1.363 . S
C2027 C2033 1.363 . S
C2028 C2029 1.363 . S
C2028 C2033 1.379 . S
C2028 N2035 1.356 . S
C2029 C2028 1.363 . S
C2029 C2032 1.363 . S
N2030 C2032 1.356 . S
N2030 H2042 0.984 . S
N2030 H2043 0.985 . S
N2031 C2033 1.356 . S
N2031 H2036 0.984 . S
N2031 H2037 0.985 . S
C2032 C2026 1.379 . S
C2032 C2029 1.363 . S
C2032 N2030 1.356 . S
C2033 C2027 1.363 . S
C2033 C2028 1.379 . S
C2033 N2031 1.356 . S
N2034 C2026 1.356 . S
N2034 H2040 0.984 . S
N2034 H2041 0.984 . S
N2035 C2028 1.356 . S
N2035 H2038 0.984 . S
N2035 H2039 0.985 . S
H2036 N2031 0.984 . S
H2037 N2031 0.985 . S
H2038 N2035 0.984 . S
H2039 N2035 0.985 . S
H2040 N2034 0.984 . S
H2041 N2034 0.984 . S
H2042 N2030 0.984 . S
H2043 N2030 0.985 . S
C2044 C2045 1.363 . S
C2044 C2050 1.379 . S
C2044 N2052 1.356 . S
C2045 C2044 1.363 . S
C2045 C2051 1.363 . S
C2046 C2047 1.363 . S
C2046 C2051 1.379 . S
C2046 N2053 1.356 1_565 S
C2047 C2046 1.363 . S
C2047 C2050 1.363 . S
N2048 C2050 1.356 . S
N2048 H2060 0.984 . S
N2048 H2061 0.985 1_556 S
N2049 C2051 1.356 . S
N2049 H2054 0.984 . S
N2049 H2055 0.985 . S
C2050 C2044 1.379 . S
C2050 C2047 1.363 . S
C2050 N2048 1.356 . S
C2051 C2045 1.363 . S
C2051 C2046 1.379 . S
C2051 N2049 1.356 . S
N2052 C2044 1.356 . S
N2052 H2058 0.984 . S
N2052 H2059 0.984 . S
N2053 C2046 1.356 1_545 S
N2053 H2056 0.984 . S
N2053 H2057 0.985 . S
H2054 N2049 0.984 . S
H2055 N2049 0.985 . S
H2056 N2053 0.984 . S
H2057 N2053 0.985 . S
H2058 N2052 0.984 . S
H2059 N2052 0.984 . S
H2060 N2048 0.984 . S
H2061 N2048 0.985 1_554 S
C2062 C2063 1.363 . S
C2062 C2068 1.379 . S
C2062 N2070 1.356 . S
C2063 C2062 1.363 . S
C2063 C2069 1.363 . S
C2064 C2065 1.363 . S
C2064 C2069 1.379 . S
C2064 N2071 1.356 . S
C2065 C2064 1.363 . S
C2065 C2068 1.363 . S
N2066 C2068 1.356 . S
N2066 H2078 0.984 . S
N2066 H2079 0.985 . S
N2067 C2069 1.356 . S
N2067 H2072 0.984 . S
N2067 H2073 0.985 . S
C2068 C2062 1.379 . S
C2068 C2065 1.363 . S
C2068 N2066 1.356 . S
C2069 C2063 1.363 . S
C2069 C2064 1.379 . S
C2069 N2067 1.356 . S
N2070 C2062 1.356 . S
N2070 H2076 0.984 . S
N2070 H2077 0.984 . S
N2071 C2064 1.356 . S
N2071 H2074 0.984 . S
N2071 H2075 0.985 . S
H2072 N2067 0.984 . S
H2073 N2067 0.985 . S
H2074 N2071 0.984 . S
H2075 N2071 0.985 . S
H2076 N2070 0.984 . S
H2077 N2070 0.984 . S
H2078 N2066 0.984 . S
H2079 N2066 0.985 . S
C2080 C2081 1.363 1_565 S
C2080 C2086 1.379 . S
C2080 N2088 1.356 . S
C2081 C2080 1.363 1_545 S
C2081 C2087 1.363 . S
C2082 C2083 1.363 . S
C2082 C2087 1.379 . S
C2082 N2089 1.356 . S
C2083 C2082 1.363 . S
C2083 C2086 1.363 1_545 S
N2084 C2086 1.356 . S
N2084 H2096 0.984 . S
N2084 H2097 0.985 . S
N2085 C2087 1.356 . S
N2085 H2090 0.984 . S
N2085 H2091 0.985 . S
C2086 C2080 1.379 . S
C2086 C2083 1.363 1_565 S
C2086 N2084 1.356 . S
C2087 C2081 1.363 . S
C2087 C2082 1.379 . S
C2087 N2085 1.356 . S
N2088 C2080 1.356 . S
N2088 H2094 0.984 . S
N2088 H2095 0.984 . S
N2089 C2082 1.356 . S
N2089 H2092 0.984 . S
N2089 H2093 0.985 . S
H2090 N2085 0.984 . S
H2091 N2085 0.985 . S
H2092 N2089 0.984 . S
H2093 N2089 0.985 . S
H2094 N2088 0.984 . S
H2095 N2088 0.984 . S
H2096 N2084 0.984 . S
H2097 N2084 0.985 . S
C2098 C2099 1.363 . S
C2098 C2104 1.379 . S
C2098 N2106 1.356 . S
C2099 C2098 1.363 . S
C2099 C2105 1.363 . S
C2100 C2101 1.363 . S
C2100 C2105 1.379 . S
C2100 N2107 1.356 . S
C2101 C2100 1.363 . S
C2101 C2104 1.363 . S
N2102 C2104 1.356 . S
N2102 H2114 0.984 . S
N2102 H2115 0.985 . S
N2103 C2105 1.356 . S
N2103 H2108 0.984 . S
N2103 H2109 0.985 . S
C2104 C2098 1.379 . S
C2104 C2101 1.363 . S
C2104 N2102 1.356 . S
C2105 C2099 1.363 . S
C2105 C2100 1.379 . S
C2105 N2103 1.356 . S
N2106 C2098 1.356 . S
N2106 H2112 0.984 . S
N2106 H2113 0.984 . S
N2107 C2100 1.356 . S
N2107 H2110 0.984 . S
N2107 H2111 0.985 . S
H2108 N2103 0.984 . S
H2109 N2103 0.985 . S
H2110 N2107 0.984 . S
H2111 N2107 0.985 . S
H2112 N2106 0.984 . S
H2113 N2106 0.984 . S
H2114 N2102 0.984 . S
H2115 N2102 0.985 . S
C2116 C2117 1.363 . S
C2116 C2122 1.379 . S
C2116 N2124 1.356 . S
C2117 C2116 1.363 . S
C2117 C2123 1.363 . S
C2118 C2119 1.363 . S
C2118 C2123 1.379 . S
C2118 N2125 1.356 . S
C2119 C2118 1.363 . S
C2119 C2122 1.363 . S
N2120 C2122 1.356 . S
N2120 H2132 0.984 . S
N2120 H2133 0.985 . S
N2121 C2123 1.356 1_565 S
N2121 H2126 0.984 . S
N2121 H2127 0.985 . S
C2122 C2116 1.379 . S
C2122 C2119 1.363 . S
C2122 N2120 1.356 . S
C2123 C2117 1.363 . S
C2123 C2118 1.379 . S
C2123 N2121 1.356 1_545 S
N2124 C2116 1.356 . S
N2124 H2130 0.984 . S
N2124 H2131 0.984 . S
N2125 C2118 1.356 . S
N2125 H2128 0.984 . S
N2125 H2129 0.985 1_545 S
H2126 N2121 0.984 . S
H2127 N2121 0.985 . S
H2128 N2125 0.984 . S
H2129 N2125 0.985 1_565 S
H2130 N2124 0.984 . S
H2131 N2124 0.984 . S
H2132 N2120 0.984 . S
H2133 N2120 0.985 . S
C2134 C2135 1.363 . S
C2134 C2140 1.379 . S
C2134 N2142 1.356 . S
C2135 C2134 1.363 . S
C2135 C2141 1.363 . S
C2136 C2137 1.363 . S
C2136 C2141 1.379 . S
C2136 N2143 1.356 . S
C2137 C2136 1.363 . S
C2137 C2140 1.363 . S
N2138 C2140 1.356 . S
N2138 H2150 0.984 . S
N2138 H2151 0.985 . S
N2139 C2141 1.356 . S
N2139 H2144 0.984 . S
N2139 H2145 0.985 . S
C2140 C2134 1.379 . S
C2140 C2137 1.363 . S
C2140 N2138 1.356 . S
C2141 C2135 1.363 . S
C2141 C2136 1.379 . S
C2141 N2139 1.356 . S
N2142 C2134 1.356 . S
N2142 H2148 0.984 . S
N2142 H2149 0.984 . S
N2143 C2136 1.356 . S
N2143 H2146 0.984 . S
N2143 H2147 0.985 . S
H2144 N2139 0.984 . S
H2145 N2139 0.985 . S
H2146 N2143 0.984 . S
H2147 N2143 0.985 . S
H2148 N2142 0.984 . S
H2149 N2142 0.984 . S
H2150 N2138 0.984 . S
H2151 N2138 0.985 . S
C2152 C2153 1.363 . S
C2152 C2158 1.379 . S
C2152 N2160 1.356 . S
C2153 C2152 1.363 . S
C2153 C2159 1.363 1_545 S
C2154 C2155 1.363 . S
C2154 C2159 1.379 1_545 S
C2154 N2161 1.356 1_545 S
C2155 C2154 1.363 . S
C2155 C2158 1.363 . S
N2156 C2158 1.356 . S
N2156 H2168 0.984 . S
N2156 H2169 0.985 . S
N2157 C2159 1.356 . S
N2157 H2162 0.984 . S
N2157 H2163 0.985 . S
C2158 C2152 1.379 . S
C2158 C2155 1.363 . S
C2158 N2156 1.356 . S
C2159 C2153 1.363 1_565 S
C2159 C2154 1.379 1_565 S
C2159 N2157 1.356 . S
N2160 C2152 1.356 . S
N2160 H2166 0.984 . S
N2160 H2167 0.984 . S
N2161 C2154 1.356 1_565 S
N2161 H2164 0.984 1_565 S
N2161 H2165 0.985 . S
H2162 N2157 0.984 . S
H2163 N2157 0.985 . S
H2164 N2161 0.984 1_545 S
H2165 N2161 0.985 . S
H2166 N2160 0.984 . S
H2167 N2160 0.984 . S
H2168 N2156 0.984 . S
H2169 N2156 0.985 . S
C2170 C2171 1.363 . S
C2170 C2176 1.379 . S
C2170 N2178 1.356 . S
C2171 C2170 1.363 . S
C2171 C2177 1.363 . S
C2172 C2173 1.363 . S
C2172 C2177 1.379 . S
C2172 N2179 1.356 . S
C2173 C2172 1.363 . S
C2173 C2176 1.363 . S
N2174 C2176 1.356 . S
N2174 H2186 0.984 . S
N2174 H2187 0.985 . S
N2175 C2177 1.356 . S
N2175 H2180 0.984 . S
N2175 H2181 0.985 . S
C2176 C2170 1.379 . S
C2176 C2173 1.363 . S
C2176 N2174 1.356 . S
C2177 C2171 1.363 . S
C2177 C2172 1.379 . S
C2177 N2175 1.356 . S
N2178 C2170 1.356 . S
N2178 H2184 0.984 . S
N2178 H2185 0.984 . S
N2179 C2172 1.356 . S
N2179 H2182 0.984 . S
N2179 H2183 0.985 . S
H2180 N2175 0.984 . S
H2181 N2175 0.985 . S
H2182 N2179 0.984 . S
H2183 N2179 0.985 . S
H2184 N2178 0.984 . S
H2185 N2178 0.984 . S
H2186 N2174 0.984 . S
H2187 N2174 0.985 . S
C2188 C2189 1.363 1_545 S
C2188 C2194 1.379 . S
C2188 N2196 1.356 . S
C2189 C2188 1.363 1_565 S
C2189 C2195 1.363 . S
C2190 C2191 1.363 . S
C2190 C2195 1.379 . S
C2190 N2197 1.356 . S
C2191 C2190 1.363 . S
C2191 C2194 1.363 1_565 S
N2192 C2194 1.356 . S
N2192 H2204 0.984 . S
N2192 H2205 0.985 . S
N2193 C2195 1.356 . S
N2193 H2198 0.984 . S
N2193 H2199 0.985 . S
C2194 C2188 1.379 . S
C2194 C2191 1.363 1_545 S
C2194 N2192 1.356 . S
C2195 C2189 1.363 . S
C2195 C2190 1.379 . S
C2195 N2193 1.356 . S
N2196 C2188 1.356 . S
N2196 H2202 0.984 . S
N2196 H2203 0.984 . S
N2197 C2190 1.356 . S
N2197 H2200 0.984 . S
N2197 H2201 0.985 . S
H2198 N2193 0.984 . S
H2199 N2193 0.985 . S
H2200 N2197 0.984 . S
H2201 N2197 0.985 . S
H2202 N2196 0.984 . S
H2203 N2196 0.984 . S
H2204 N2192 0.984 . S
H2205 N2192 0.985 . S
C2206 C2207 1.363 . S
C2206 C2212 1.379 . S
C2206 N2214 1.356 . S
C2207 C2206 1.363 . S
C2207 C2213 1.363 . S
C2208 C2209 1.363 . S
C2208 C2213 1.379 . S
C2208 N2215 1.356 . S
C2209 C2208 1.363 . S
C2209 C2212 1.363 . S
N2210 C2212 1.356 . S
N2210 H2222 0.984 . S
N2210 H2223 0.985 . S
N2211 C2213 1.356 . S
N2211 H2216 0.984 . S
N2211 H2217 0.985 . S
C2212 C2206 1.379 . S
C2212 C2209 1.363 . S
C2212 N2210 1.356 . S
C2213 C2207 1.363 . S
C2213 C2208 1.379 . S
C2213 N2211 1.356 . S
N2214 C2206 1.356 . S
N2214 H2220 0.984 . S
N2214 H2221 0.984 . S
N2215 C2208 1.356 . S
N2215 H2218 0.984 . S
N2215 H2219 0.985 . S
H2216 N2211 0.984 . S
H2217 N2211 0.985 . S
H2218 N2215 0.984 . S
H2219 N2215 0.985 . S
H2220 N2214 0.984 . S
H2221 N2214 0.984 . S
H2222 N2210 0.984 . S
H2223 N2210 0.985 . S
C2224 C2225 1.363 . S
C2224 C2230 1.379 . S
C2224 N2232 1.356 . S
C2225 C2224 1.363 . S
C2225 C2231 1.363 1_554 S
C2226 C2227 1.363 1_556 S
C2226 C2231 1.379 . S
C2226 N2233 1.356 . S
C2227 C2226 1.363 1_554 S
C2227 C2230 1.363 . S
N2228 C2230 1.356 . S
N2228 H2240 0.984 . S
N2228 H2241 0.985 1_655 S
N2229 C2231 1.356 . S
N2229 H2234 0.984 . S
N2229 H2235 0.985 . S
C2230 C2224 1.379 . S
C2230 C2227 1.363 . S
C2230 N2228 1.356 . S
C2231 C2225 1.363 1_556 S
C2231 C2226 1.379 . S
C2231 N2229 1.356 . S
N2232 C2224 1.356 . S
N2232 H2238 0.984 . S
N2232 H2239 0.984 . S
N2233 C2226 1.356 . S
N2233 H2236 0.984 . S
N2233 H2237 0.985 . S
H2234 N2229 0.984 . S
H2235 N2229 0.985 . S
H2236 N2233 0.984 . S
H2237 N2233 0.985 . S
H2238 N2232 0.984 . S
H2239 N2232 0.984 . S
H2240 N2228 0.984 . S
H2241 N2228 0.985 1_455 S
C2242 C2243 1.363 . S
C2242 C2248 1.379 . S
C2242 N2250 1.356 . S
C2243 C2242 1.363 . S
C2243 C2249 1.363 . S
C2244 C2245 1.363 . S
C2244 C2249 1.379 . S
C2244 N2251 1.356 . S
C2245 C2244 1.363 . S
C2245 C2248 1.363 . S
N2246 C2248 1.356 . S
N2246 H2258 0.984 1_554 S
N2246 H2259 0.985 . S
N2247 C2249 1.356 . S
N2247 H2252 0.984 . S
N2247 H2253 0.985 . S
C2248 C2242 1.379 . S
C2248 C2245 1.363 . S
C2248 N2246 1.356 . S
C2249 C2243 1.363 . S
C2249 C2244 1.379 . S
C2249 N2247 1.356 . S
N2250 C2242 1.356 . S
N2250 H2256 0.984 1_554 S
N2250 H2257 0.984 . S
N2251 C2244 1.356 . S
N2251 H2254 0.984 . S
N2251 H2255 0.985 . S
H2252 N2247 0.984 . S
H2253 N2247 0.985 . S
H2254 N2251 0.984 . S
H2255 N2251 0.985 . S
H2256 N2250 0.984 1_556 S
H2257 N2250 0.984 . S
H2258 N2246 0.984 1_556 S
H2259 N2246 0.985 . S
C2260 C2261 1.363 . S
C2260 C2266 1.379 . S
C2260 N2268 1.356 . S
C2261 C2260 1.363 . S
C2261 C2267 1.363 . S
C2262 C2263 1.363 . S
C2262 C2267 1.379 . S
C2262 N2269 1.356 . S
C2263 C2262 1.363 . S
C2263 C2266 1.363 . S
N2264 C2266 1.356 . S
N2264 H2276 0.984 . S
N2264 H2277 0.985 . S
N2265 C2267 1.356 . S
N2265 H2270 0.984 . S
N2265 H2271 0.985 . S
C2266 C2260 1.379 . S
C2266 C2263 1.363 . S
C2266 N2264 1.356 . S
C2267 C2261 1.363 . S
C2267 C2262 1.379 . S
C2267 N2265 1.356 . S
N2268 C2260 1.356 . S
N2268 H2274 0.984 . S
N2268 H2275 0.984 . S
N2269 C2262 1.356 . S
N2269 H2272 0.984 . S
N2269 H2273 0.985 . S
H2270 N2265 0.984 . S
H2271 N2265 0.985 . S
H2272 N2269 0.984 . S
H2273 N2269 0.985 . S
H2274 N2268 0.984 . S
H2275 N2268 0.984 . S
H2276 N2264 0.984 . S
H2277 N2264 0.985 . S
C2278 C2279 1.363 . S
C2278 C2284 1.379 . S
C2278 N2286 1.356 . S
C2279 C2278 1.363 . S
C2279 C2285 1.363 . S
C2280 C2281 1.363 . S
C2280 C2285 1.379 . S
C2280 N2287 1.356 . S
C2281 C2280 1.363 . S
C2281 C2284 1.363 . S
N2282 C2284 1.356 . S
N2282 H2294 0.984 . S
N2282 H2295 0.985 . S
N2283 C2285 1.356 . S
N2283 H2288 0.984 . S
N2283 H2289 0.985 . S
C2284 C2278 1.379 . S
C2284 C2281 1.363 . S
C2284 N2282 1.356 . S
C2285 C2279 1.363 . S
C2285 C2280 1.379 . S
C2285 N2283 1.356 . S
N2286 C2278 1.356 . S
N2286 H2292 0.984 . S
N2286 H2293 0.984 . S
N2287 C2280 1.356 . S
N2287 H2290 0.984 . S
N2287 H2291 0.985 . S
H2288 N2283 0.984 . S
H2289 N2283 0.985 . S
H2290 N2287 0.984 . S
H2291 N2287 0.985 . S
H2292 N2286 0.984 . S
H2293 N2286 0.984 . S
H2294 N2282 0.984 . S
H2295 N2282 0.985 . S
C2296 C2297 1.363 . S
C2296 C2302 1.379 . S
C2296 N2304 1.356 . S
C2297 C2296 1.363 . S
C2297 C2303 1.363 1_545 S
C2298 C2299 1.363 . S
C2298 C2303 1.379 . S
C2298 N2305 1.356 . S
C2299 C2298 1.363 . S
C2299 C2302 1.363 1_565 S
N2300 C2302 1.356 . S
N2300 H2312 0.984 . S
N2300 H2313 0.985 . S
N2301 C2303 1.356 . S
N2301 H2306 0.984 . S
N2301 H2307 0.985 . S
C2302 C2296 1.379 . S
C2302 C2299 1.363 1_545 S
C2302 N2300 1.356 . S
C2303 C2297 1.363 1_565 S
C2303 C2298 1.379 . S
C2303 N2301 1.356 . S
N2304 C2296 1.356 . S
N2304 H2310 0.984 . S
N2304 H2311 0.984 . S
N2305 C2298 1.356 . S
N2305 H2308 0.984 . S
N2305 H2309 0.985 . S
H2306 N2301 0.984 . S
H2307 N2301 0.985 . S
H2308 N2305 0.984 . S
H2309 N2305 0.985 . S
H2310 N2304 0.984 . S
H2311 N2304 0.984 . S
H2312 N2300 0.984 . S
H2313 N2300 0.985 . S
C2314 C2315 1.363 . S
C2314 C2320 1.379 . S
C2314 N2322 1.356 . S
C2315 C2314 1.363 . S
C2315 C2321 1.363 . S
C2316 C2317 1.363 . S
C2316 C2321 1.379 . S
C2316 N2323 1.356 . S
C2317 C2316 1.363 . S
C2317 C2320 1.363 . S
N2318 C2320 1.356 . S
N2318 H2330 0.984 . S
N2318 H2331 0.985 . S
N2319 C2321 1.356 . S
N2319 H2324 0.984 . S
N2319 H2325 0.985 . S
C2320 C2314 1.379 . S
C2320 C2317 1.363 . S
C2320 N2318 1.356 . S
C2321 C2315 1.363 . S
C2321 C2316 1.379 . S
C2321 N2319 1.356 . S
N2322 C2314 1.356 . S
N2322 H2328 0.984 . S
N2322 H2329 0.984 . S
N2323 C2316 1.356 . S
N2323 H2326 0.984 . S
N2323 H2327 0.985 . S
H2324 N2319 0.984 . S
H2325 N2319 0.985 . S
H2326 N2323 0.984 . S
H2327 N2323 0.985 . S
H2328 N2322 0.984 . S
H2329 N2322 0.984 . S
H2330 N2318 0.984 . S
H2331 N2318 0.985 . S
C2332 C2333 1.363 . S
C2332 C2338 1.379 . S
C2332 N2340 1.356 . S
C2333 C2332 1.363 . S
C2333 C2339 1.363 . S
C2334 C2335 1.363 . S
C2334 C2339 1.379 . S
C2334 N2341 1.356 . S
C2335 C2334 1.363 . S
C2335 C2338 1.363 . S
N2336 C2338 1.356 . S
N2336 H2348 0.984 . S
N2336 H2349 0.985 . S
N2337 C2339 1.356 . S
N2337 H2342 0.984 . S
N2337 H2343 0.985 . S
C2338 C2332 1.379 . S
C2338 C2335 1.363 . S
C2338 N2336 1.356 . S
C2339 C2333 1.363 . S
C2339 C2334 1.379 . S
C2339 N2337 1.356 . S
N2340 C2332 1.356 . S
N2340 H2346 0.984 . S
N2340 H2347 0.984 . S
N2341 C2334 1.356 . S
N2341 H2344 0.984 . S
N2341 H2345 0.985 . S
H2342 N2337 0.984 . S
H2343 N2337 0.985 . S
H2344 N2341 0.984 . S
H2345 N2341 0.985 . S
H2346 N2340 0.984 . S
H2347 N2340 0.984 . S
H2348 N2336 0.984 . S
H2349 N2336 0.985 . S
C2350 C2351 1.363 . S
C2350 C2356 1.379 . S
C2350 N2358 1.356 . S
C2351 C2350 1.363 . S
C2351 C2357 1.363 . S
C2352 C2353 1.363 . S
C2352 C2357 1.379 . S
C2352 N2359 1.356 . S
C2353 C2352 1.363 . S
C2353 C2356 1.363 . S
N2354 C2356 1.356 . S
N2354 H2366 0.984 . S
N2354 H2367 0.985 . S
N2355 C2357 1.356 . S
N2355 H2360 0.984 . S
N2355 H2361 0.985 . S
C2356 C2350 1.379 . S
C2356 C2353 1.363 . S
C2356 N2354 1.356 . S
C2357 C2351 1.363 . S
C2357 C2352 1.379 . S
C2357 N2355 1.356 . S
N2358 C2350 1.356 . S
N2358 H2364 0.984 . S
N2358 H2365 0.984 . S
N2359 C2352 1.356 . S
N2359 H2362 0.984 . S
N2359 H2363 0.985 . S
H2360 N2355 0.984 . S
H2361 N2355 0.985 . S
H2362 N2359 0.984 . S
H2363 N2359 0.985 . S
H2364 N2358 0.984 . S
H2365 N2358 0.984 . S
H2366 N2354 0.984 . S
H2367 N2354 0.985 . S
C2368 C2369 1.363 . S
C2368 C2374 1.379 . S
C2368 N2376 1.356 . S
C2369 C2368 1.363 . S
C2369 C2375 1.363 . S
C2370 C2371 1.363 . S
C2370 C2375 1.379 . S
C2370 N2377 1.356 . S
C2371 C2370 1.363 . S
C2371 C2374 1.363 . S
N2372 C2374 1.356 . S
N2372 H2384 0.984 . S
N2372 H2385 0.985 . S
N2373 C2375 1.356 . S
N2373 H2378 0.984 . S
N2373 H2379 0.985 . S
C2374 C2368 1.379 . S
C2374 C2371 1.363 . S
C2374 N2372 1.356 . S
C2375 C2369 1.363 . S
C2375 C2370 1.379 . S
C2375 N2373 1.356 . S
N2376 C2368 1.356 . S
N2376 H2382 0.984 . S
N2376 H2383 0.984 . S
N2377 C2370 1.356 . S
N2377 H2380 0.984 . S
N2377 H2381 0.985 . S
H2378 N2373 0.984 . S
H2379 N2373 0.985 . S
H2380 N2377 0.984 . S
H2381 N2377 0.985 . S
H2382 N2376 0.984 . S
H2383 N2376 0.984 . S
H2384 N2372 0.984 . S
H2385 N2372 0.985 . S
C2386 C2387 1.363 . S
C2386 C2392 1.379 . S
C2386 N2394 1.356 . S
C2387 C2386 1.363 . S
C2387 C2393 1.363 . S
C2388 C2389 1.363 . S
C2388 C2393 1.379 . S
C2388 N2395 1.356 . S
C2389 C2388 1.363 . S
C2389 C2392 1.363 . S
N2390 C2392 1.356 . S
N2390 H2402 0.984 . S
N2390 H2403 0.985 . S
N2391 C2393 1.356 . S
N2391 H2396 0.984 . S
N2391 H2397 0.985 . S
C2392 C2386 1.379 . S
C2392 C2389 1.363 . S
C2392 N2390 1.356 . S
C2393 C2387 1.363 . S
C2393 C2388 1.379 . S
C2393 N2391 1.356 . S
N2394 C2386 1.356 . S
N2394 H2400 0.984 . S
N2394 H2401 0.984 . S
N2395 C2388 1.356 . S
N2395 H2398 0.984 . S
N2395 H2399 0.985 . S
H2396 N2391 0.984 . S
H2397 N2391 0.985 . S
H2398 N2395 0.984 . S
H2399 N2395 0.985 . S
H2400 N2394 0.984 . S
H2401 N2394 0.984 . S
H2402 N2390 0.984 . S
H2403 N2390 0.985 . S
C2404 C2405 1.363 . S
C2404 C2410 1.379 . S
C2404 N2412 1.356 . S
C2405 C2404 1.363 . S
C2405 C2411 1.363 . S
C2406 C2407 1.363 1_554 S
C2406 C2411 1.379 1_554 S
C2406 N2413 1.356 . S
C2407 C2406 1.363 1_556 S
C2407 C2410 1.363 . S
N2408 C2410 1.356 . S
N2408 H2420 0.984 . S
N2408 H2421 0.985 . S
N2409 C2411 1.356 . S
N2409 H2414 0.984 . S
N2409 H2415 0.985 1_556 S
C2410 C2404 1.379 . S
C2410 C2407 1.363 . S
C2410 N2408 1.356 . S
C2411 C2405 1.363 . S
C2411 C2406 1.379 1_556 S
C2411 N2409 1.356 . S
N2412 C2404 1.356 . S
N2412 H2418 0.984 . S
N2412 H2419 0.984 . S
N2413 C2406 1.356 . S
N2413 H2416 0.984 . S
N2413 H2417 0.985 . S
H2414 N2409 0.984 . S
H2415 N2409 0.985 1_554 S
H2416 N2413 0.984 . S
H2417 N2413 0.985 . S
H2418 N2412 0.984 . S
H2419 N2412 0.984 . S
H2420 N2408 0.984 . S
H2421 N2408 0.985 . S
C2422 C2423 1.363 . S
C2422 C2428 1.379 1_455 S
C2422 N2430 1.356 . S
C2423 C2422 1.363 . S
C2423 C2429 1.363 . S
C2424 C2425 1.363 1_455 S
C2424 C2429 1.379 . S
C2424 N2431 1.356 1_455 S
C2425 C2424 1.363 1_655 S
C2425 C2428 1.363 . S
N2426 C2428 1.356 . S
N2426 H2438 0.984 . S
N2426 H2439 0.985 . S
N2427 C2429 1.356 . S
N2427 H2432 0.984 . S
N2427 H2433 0.985 . S
C2428 C2422 1.379 1_655 S
C2428 C2425 1.363 . S
C2428 N2426 1.356 . S
C2429 C2423 1.363 . S
C2429 C2424 1.379 . S
C2429 N2427 1.356 . S
N2430 C2422 1.356 . S
N2430 H2436 0.984 . S
N2430 H2437 0.984 . S
N2431 C2424 1.356 1_655 S
N2431 H2434 0.984 . S
N2431 H2435 0.985 1_655 S
H2432 N2427 0.984 . S
H2433 N2427 0.985 . S
H2434 N2431 0.984 . S
H2435 N2431 0.985 1_455 S
H2436 N2430 0.984 . S
H2437 N2430 0.984 . S
H2438 N2426 0.984 . S
H2439 N2426 0.985 . S
C2440 C2441 1.363 . S
C2440 C2446 1.379 . S
C2440 N2448 1.356 . S
C2441 C2440 1.363 . S
C2441 C2447 1.363 . S
C2442 C2443 1.363 . S
C2442 C2447 1.379 . S
C2442 N2449 1.356 . S
C2443 C2442 1.363 . S
C2443 C2446 1.363 . S
N2444 C2446 1.356 . S
N2444 H2456 0.984 . S
N2444 H2457 0.985 . S
N2445 C2447 1.356 . S
N2445 H2450 0.984 . S
N2445 H2451 0.985 . S
C2446 C2440 1.379 . S
C2446 C2443 1.363 . S
C2446 N2444 1.356 . S
C2447 C2441 1.363 . S
C2447 C2442 1.379 . S
C2447 N2445 1.356 . S
N2448 C2440 1.356 . S
N2448 H2454 0.984 . S
N2448 H2455 0.984 . S
N2449 C2442 1.356 . S
N2449 H2452 0.984 . S
N2449 H2453 0.985 . S
H2450 N2445 0.984 . S
H2451 N2445 0.985 . S
H2452 N2449 0.984 . S
H2453 N2449 0.985 . S
H2454 N2448 0.984 . S
H2455 N2448 0.984 . S
H2456 N2444 0.984 . S
H2457 N2444 0.985 . S
C2458 C2459 1.363 . S
C2458 C2464 1.379 . S
C2458 N2466 1.356 . S
C2459 C2458 1.363 . S
C2459 C2465 1.363 . S
C2460 C2461 1.363 . S
C2460 C2465 1.379 . S
C2460 N2467 1.356 . S
C2461 C2460 1.363 . S
C2461 C2464 1.363 . S
N2462 C2464 1.356 . S
N2462 H2474 0.984 . S
N2462 H2475 0.985 . S
N2463 C2465 1.356 . S
N2463 H2468 0.984 . S
N2463 H2469 0.985 . S
C2464 C2458 1.379 . S
C2464 C2461 1.363 . S
C2464 N2462 1.356 . S
C2465 C2459 1.363 . S
C2465 C2460 1.379 . S
C2465 N2463 1.356 . S
N2466 C2458 1.356 . S
N2466 H2472 0.984 . S
N2466 H2473 0.984 . S
N2467 C2460 1.356 . S
N2467 H2470 0.984 1_455 S
N2467 H2471 0.985 . S
H2468 N2463 0.984 . S
H2469 N2463 0.985 . S
H2470 N2467 0.984 1_655 S
H2471 N2467 0.985 . S
H2472 N2466 0.984 . S
H2473 N2466 0.984 . S
H2474 N2462 0.984 . S
H2475 N2462 0.985 . S
C2476 C2477 1.363 . S
C2476 C2482 1.379 . S
C2476 N2484 1.356 . S
C2477 C2476 1.363 . S
C2477 C2483 1.363 . S
C2478 C2479 1.363 . S
C2478 C2483 1.379 . S
C2478 N2485 1.356 . S
C2479 C2478 1.363 . S
C2479 C2482 1.363 . S
N2480 C2482 1.356 . S
N2480 H2492 0.984 . S
N2480 H2493 0.985 . S
N2481 C2483 1.356 1_655 S
N2481 H2486 0.984 . S
N2481 H2487 0.985 . S
C2482 C2476 1.379 . S
C2482 C2479 1.363 . S
C2482 N2480 1.356 . S
C2483 C2477 1.363 . S
C2483 C2478 1.379 . S
C2483 N2481 1.356 1_455 S
N2484 C2476 1.356 . S
N2484 H2490 0.984 . S
N2484 H2491 0.984 1_455 S
N2485 C2478 1.356 . S
N2485 H2488 0.984 . S
N2485 H2489 0.985 . S
H2486 N2481 0.984 . S
H2487 N2481 0.985 . S
H2488 N2485 0.984 . S
H2489 N2485 0.985 . S
H2490 N2484 0.984 . S
H2491 N2484 0.984 1_655 S
H2492 N2480 0.984 . S
H2493 N2480 0.985 . S
C2494 C2495 1.363 . S
C2494 C2500 1.379 . S
C2494 N2502 1.356 . S
C2495 C2494 1.363 . S
C2495 C2501 1.363 . S
C2496 C2497 1.363 . S
C2496 C2501 1.379 . S
C2496 N2503 1.356 . S
C2497 C2496 1.363 . S
C2497 C2500 1.363 . S
N2498 C2500 1.356 . S
N2498 H2510 0.984 . S
N2498 H2511 0.985 . S
N2499 C2501 1.356 . S
N2499 H2504 0.984 . S
N2499 H2505 0.985 . S
C2500 C2494 1.379 . S
C2500 C2497 1.363 . S
C2500 N2498 1.356 . S
C2501 C2495 1.363 . S
C2501 C2496 1.379 . S
C2501 N2499 1.356 . S
N2502 C2494 1.356 . S
N2502 H2508 0.984 . S
N2502 H2509 0.984 . S
N2503 C2496 1.356 . S
N2503 H2506 0.984 . S
N2503 H2507 0.985 . S
H2504 N2499 0.984 . S
H2505 N2499 0.985 . S
H2506 N2503 0.984 . S
H2507 N2503 0.985 . S
H2508 N2502 0.984 . S
H2509 N2502 0.984 . S
H2510 N2498 0.984 . S
H2511 N2498 0.985 . S
C2512 C2513 1.363 . S
C2512 C2518 1.379 . S
C2512 N2520 1.356 . S
C2513 C2512 1.363 . S
C2513 C2519 1.363 . S
C2514 C2515 1.363 . S
C2514 C2519 1.379 . S
C2514 N2521 1.356 . S
C2515 C2514 1.363 . S
C2515 C2518 1.363 . S
N2516 C2518 1.356 . S
N2516 H2528 0.984 . S
N2516 H2529 0.985 . S
N2517 C2519 1.356 . S
N2517 H2522 0.984 . S
N2517 H2523 0.985 . S
C2518 C2512 1.379 . S
C2518 C2515 1.363 . S
C2518 N2516 1.356 . S
C2519 C2513 1.363 . S
C2519 C2514 1.379 . S
C2519 N2517 1.356 . S
N2520 C2512 1.356 . S
N2520 H2526 0.984 . S
N2520 H2527 0.984 . S
N2521 C2514 1.356 . S
N2521 H2524 0.984 . S
N2521 H2525 0.985 . S
H2522 N2517 0.984 . S
H2523 N2517 0.985 . S
H2524 N2521 0.984 . S
H2525 N2521 0.985 . S
H2526 N2520 0.984 . S
H2527 N2520 0.984 . S
H2528 N2516 0.984 . S
H2529 N2516 0.985 . S
C2530 C2531 1.363 . S
C2530 C2536 1.379 . S
C2530 N2538 1.356 1_556 S
C2531 C2530 1.363 . S
C2531 C2537 1.363 . S
C2532 C2533 1.363 . S
C2532 C2537 1.379 . S
C2532 N2539 1.356 . S
C2533 C2532 1.363 . S
C2533 C2536 1.363 . S
N2534 C2536 1.356 . S
N2534 H2546 0.984 . S
N2534 H2547 0.985 . S
N2535 C2537 1.356 . S
N2535 H2540 0.984 . S
N2535 H2541 0.985 . S
C2536 C2530 1.379 . S
C2536 C2533 1.363 . S
C2536 N2534 1.356 . S
C2537 C2531 1.363 . S
C2537 C2532 1.379 . S
C2537 N2535 1.356 . S
N2538 C2530 1.356 1_554 S
N2538 H2544 0.984 . S
N2538 H2545 0.984 . S
N2539 C2532 1.356 . S
N2539 H2542 0.984 . S
N2539 H2543 0.985 . S
H2540 N2535 0.984 . S
H2541 N2535 0.985 . S
H2542 N2539 0.984 . S
H2543 N2539 0.985 . S
H2544 N2538 0.984 . S
H2545 N2538 0.984 . S
H2546 N2534 0.984 . S
H2547 N2534 0.985 . S
C2548 C2549 1.363 . S
C2548 C2554 1.379 . S
C2548 N2556 1.356 . S
C2549 C2548 1.363 . S
C2549 C2555 1.363 . S
C2550 C2551 1.363 . S
C2550 C2555 1.379 . S
C2550 N2557 1.356 . S
C2551 C2550 1.363 . S
C2551 C2554 1.363 . S
N2552 C2554 1.356 . S
N2552 H2564 0.984 . S
N2552 H2565 0.985 . S
N2553 C2555 1.356 . S
N2553 H2558 0.984 . S
N2553 H2559 0.985 . S
C2554 C2548 1.379 . S
C2554 C2551 1.363 . S
C2554 N2552 1.356 . S
C2555 C2549 1.363 . S
C2555 C2550 1.379 . S
C2555 N2553 1.356 . S
N2556 C2548 1.356 . S
N2556 H2562 0.984 . S
N2556 H2563 0.984 . S
N2557 C2550 1.356 . S
N2557 H2560 0.984 . S
N2557 H2561 0.985 . S
H2558 N2553 0.984 . S
H2559 N2553 0.985 . S
H2560 N2557 0.984 . S
H2561 N2557 0.985 . S
H2562 N2556 0.984 . S
H2563 N2556 0.984 . S
H2564 N2552 0.984 . S
H2565 N2552 0.985 . S
C2566 C2567 1.363 . S
C2566 C2572 1.379 . S
C2566 N2574 1.356 . S
C2567 C2566 1.363 . S
C2567 C2573 1.363 . S
C2568 C2569 1.363 . S
C2568 C2573 1.379 . S
C2568 N2575 1.356 . S
C2569 C2568 1.363 . S
C2569 C2572 1.363 . S
N2570 C2572 1.356 . S
N2570 H2582 0.984 . S
N2570 H2583 0.985 . S
N2571 C2573 1.356 . S
N2571 H2576 0.984 . S
N2571 H2577 0.985 . S
C2572 C2566 1.379 . S
C2572 C2569 1.363 . S
C2572 N2570 1.356 . S
C2573 C2567 1.363 . S
C2573 C2568 1.379 . S
C2573 N2571 1.356 . S
N2574 C2566 1.356 . S
N2574 H2580 0.984 . S
N2574 H2581 0.984 . S
N2575 C2568 1.356 . S
N2575 H2578 0.984 . S
N2575 H2579 0.985 . S
H2576 N2571 0.984 . S
H2577 N2571 0.985 . S
H2578 N2575 0.984 . S
H2579 N2575 0.985 . S
H2580 N2574 0.984 . S
H2581 N2574 0.984 . S
H2582 N2570 0.984 . S
H2583 N2570 0.985 . S
C2584 C2585 1.363 . S
C2584 C2590 1.379 . S
C2584 N2592 1.356 . S
C2585 C2584 1.363 . S
C2585 C2591 1.363 . S
C2586 C2587 1.363 . S
C2586 C2591 1.379 . S
C2586 N2593 1.356 . S
C2587 C2586 1.363 . S
C2587 C2590 1.363 . S
N2588 C2590 1.356 . S
N2588 H2600 0.984 . S
N2588 H2601 0.985 . S
N2589 C2591 1.356 . S
N2589 H2594 0.984 . S
N2589 H2595 0.985 . S
C2590 C2584 1.379 . S
C2590 C2587 1.363 . S
C2590 N2588 1.356 . S
C2591 C2585 1.363 . S
C2591 C2586 1.379 . S
C2591 N2589 1.356 . S
N2592 C2584 1.356 . S
N2592 H2598 0.984 . S
N2592 H2599 0.984 . S
N2593 C2586 1.356 . S
N2593 H2596 0.984 . S
N2593 H2597 0.985 . S
H2594 N2589 0.984 . S
H2595 N2589 0.985 . S
H2596 N2593 0.984 . S
H2597 N2593 0.985 . S
H2598 N2592 0.984 . S
H2599 N2592 0.984 . S
H2600 N2588 0.984 . S
H2601 N2588 0.985 . S
C2602 C2603 1.363 . S
C2602 C2608 1.379 . S
C2602 N2610 1.356 . S
C2603 C2602 1.363 . S
C2603 C2609 1.363 . S
C2604 C2605 1.363 . S
C2604 C2609 1.379 . S
C2604 N2611 1.356 . S
C2605 C2604 1.363 . S
C2605 C2608 1.363 . S
N2606 C2608 1.356 . S
N2606 H2618 0.984 . S
N2606 H2619 0.985 . S
N2607 C2609 1.356 . S
N2607 H2612 0.984 . S
N2607 H2613 0.985 . S
C2608 C2602 1.379 . S
C2608 C2605 1.363 . S
C2608 N2606 1.356 . S
C2609 C2603 1.363 . S
C2609 C2604 1.379 . S
C2609 N2607 1.356 . S
N2610 C2602 1.356 . S
N2610 H2616 0.984 . S
N2610 H2617 0.984 . S
N2611 C2604 1.356 . S
N2611 H2614 0.984 . S
N2611 H2615 0.985 . S
H2612 N2607 0.984 . S
H2613 N2607 0.985 . S
H2614 N2611 0.984 . S
H2615 N2611 0.985 . S
H2616 N2610 0.984 . S
H2617 N2610 0.984 . S
H2618 N2606 0.984 . S
H2619 N2606 0.985 . S
C2620 C2621 1.363 . S
C2620 C2626 1.379 . S
C2620 N2628 1.356 . S
C2621 C2620 1.363 . S
C2621 C2627 1.363 . S
C2622 C2623 1.363 . S
C2622 C2627 1.379 . S
C2622 N2629 1.356 . S
C2623 C2622 1.363 . S
C2623 C2626 1.363 . S
N2624 C2626 1.356 . S
N2624 H2636 0.984 . S
N2624 H2637 0.985 . S
N2625 C2627 1.356 . S
N2625 H2630 0.984 . S
N2625 H2631 0.985 . S
C2626 C2620 1.379 . S
C2626 C2623 1.363 . S
C2626 N2624 1.356 . S
C2627 C2621 1.363 . S
C2627 C2622 1.379 . S
C2627 N2625 1.356 . S
N2628 C2620 1.356 . S
N2628 H2634 0.984 . S
N2628 H2635 0.984 . S
N2629 C2622 1.356 . S
N2629 H2632 0.984 . S
N2629 H2633 0.985 . S
H2630 N2625 0.984 . S
H2631 N2625 0.985 . S
H2632 N2629 0.984 . S
H2633 N2629 0.985 . S
H2634 N2628 0.984 . S
H2635 N2628 0.984 . S
H2636 N2624 0.984 . S
H2637 N2624 0.985 . S
C2638 C2639 1.363 . S
C2638 C2644 1.379 . S
C2638 N2646 1.356 . S
C2639 C2638 1.363 . S
C2639 C2645 1.363 . S
C2640 C2641 1.363 . S
C2640 C2645 1.379 . S
C2640 N2647 1.356 . S
C2641 C2640 1.363 . S
C2641 C2644 1.363 . S
N2642 C2644 1.356 . S
N2642 H2654 0.984 . S
N2642 H2655 0.985 . S
N2643 C2645 1.356 . S
N2643 H2648 0.984 . S
N2643 H2649 0.985 . S
C2644 C2638 1.379 . S
C2644 C2641 1.363 . S
C2644 N2642 1.356 . S
C2645 C2639 1.363 . S
C2645 C2640 1.379 . S
C2645 N2643 1.356 . S
N2646 C2638 1.356 . S
N2646 H2652 0.984 . S
N2646 H2653 0.984 . S
N2647 C2640 1.356 . S
N2647 H2650 0.984 . S
N2647 H2651 0.985 . S
H2648 N2643 0.984 . S
H2649 N2643 0.985 . S
H2650 N2647 0.984 . S
H2651 N2647 0.985 . S
H2652 N2646 0.984 . S
H2653 N2646 0.984 . S
H2654 N2642 0.984 . S
H2655 N2642 0.985 . S
C2656 C2657 1.363 . S
C2656 C2662 1.379 . S
C2656 N2664 1.356 . S
C2657 C2656 1.363 . S
C2657 C2663 1.363 . S
C2658 C2659 1.363 . S
C2658 C2663 1.379 . S
C2658 N2665 1.356 . S
C2659 C2658 1.363 . S
C2659 C2662 1.363 . S
N2660 C2662 1.356 . S
N2660 H2672 0.984 . S
N2660 H2673 0.985 . S
N2661 C2663 1.356 . S
N2661 H2666 0.984 . S
N2661 H2667 0.985 . S
C2662 C2656 1.379 . S
C2662 C2659 1.363 . S
C2662 N2660 1.356 . S
C2663 C2657 1.363 . S
C2663 C2658 1.379 . S
C2663 N2661 1.356 . S
N2664 C2656 1.356 . S
N2664 H2670 0.984 . S
N2664 H2671 0.984 . S
N2665 C2658 1.356 . S
N2665 H2668 0.984 . S
N2665 H2669 0.985 . S
H2666 N2661 0.984 . S
H2667 N2661 0.985 . S
H2668 N2665 0.984 . S
H2669 N2665 0.985 . S
H2670 N2664 0.984 . S
H2671 N2664 0.984 . S
H2672 N2660 0.984 . S
H2673 N2660 0.985 . S
C2674 C2675 1.363 . S
C2674 C2680 1.379 . S
C2674 N2682 1.356 . S
C2675 C2674 1.363 . S
C2675 C2681 1.363 . S
C2676 C2677 1.363 . S
C2676 C2681 1.379 . S
C2676 N2683 1.356 . S
C2677 C2676 1.363 . S
C2677 C2680 1.363 . S
N2678 C2680 1.356 . S
N2678 H2690 0.984 . S
N2678 H2691 0.985 . S
N2679 C2681 1.356 . S
N2679 H2684 0.984 . S
N2679 H2685 0.985 . S
C2680 C2674 1.379 . S
C2680 C2677 1.363 . S
C2680 N2678 1.356 . S
C2681 C2675 1.363 . S
C2681 C2676 1.379 . S
C2681 N2679 1.356 . S
N2682 C2674 1.356 . S
N2682 H2688 0.984 . S
N2682 H2689 0.984 . S
N2683 C2676 1.356 . S
N2683 H2686 0.984 . S
N2683 H2687 0.985 . S
H2684 N2679 0.984 . S
H2685 N2679 0.985 . S
H2686 N2683 0.984 . S
H2687 N2683 0.985 . S
H2688 N2682 0.984 . S
H2689 N2682 0.984 . S
H2690 N2678 0.984 . S
H2691 N2678 0.985 . S
C2692 C2693 1.363 . S
C2692 C2698 1.379 . S
C2692 N2700 1.356 . S
C2693 C2692 1.363 . S
C2693 C2699 1.363 . S
C2694 C2695 1.363 . S
C2694 C2699 1.379 . S
C2694 N2701 1.356 . S
C2695 C2694 1.363 . S
C2695 C2698 1.363 . S
N2696 C2698 1.356 . S
N2696 H2708 0.984 . S
N2696 H2709 0.985 . S
N2697 C2699 1.356 . S
N2697 H2702 0.984 . S
N2697 H2703 0.985 . S
C2698 C2692 1.379 . S
C2698 C2695 1.363 . S
C2698 N2696 1.356 . S
C2699 C2693 1.363 . S
C2699 C2694 1.379 . S
C2699 N2697 1.356 . S
N2700 C2692 1.356 . S
N2700 H2706 0.984 . S
N2700 H2707 0.984 . S
N2701 C2694 1.356 . S
N2701 H2704 0.984 . S
N2701 H2705 0.985 . S
H2702 N2697 0.984 . S
H2703 N2697 0.985 . S
H2704 N2701 0.984 . S
H2705 N2701 0.985 . S
H2706 N2700 0.984 . S
H2707 N2700 0.984 . S
H2708 N2696 0.984 . S
H2709 N2696 0.985 . S
C2710 C2711 1.363 1_545 S
C2710 C2716 1.379 . S
C2710 N2718 1.356 . S
C2711 C2710 1.363 1_565 S
C2711 C2717 1.363 1_554 S
C2712 C2713 1.363 1_566 S
C2712 C2717 1.379 . S
C2712 N2719 1.356 . S
C2713 C2712 1.363 1_544 S
C2713 C2716 1.363 . S
N2714 C2716 1.356 . S
N2714 H2726 0.984 . S
N2714 H2727 0.985 . S
N2715 C2717 1.356 . S
N2715 H2720 0.984 . S
N2715 H2721 0.985 . S
C2716 C2710 1.379 . S
C2716 C2713 1.363 . S
C2716 N2714 1.356 . S
C2717 C2711 1.363 1_556 S
C2717 C2712 1.379 . S
C2717 N2715 1.356 . S
N2718 C2710 1.356 . S
N2718 H2724 0.984 . S
N2718 H2725 0.984 . S
N2719 C2712 1.356 . S
N2719 H2722 0.984 . S
N2719 H2723 0.985 . S
H2720 N2715 0.984 . S
H2721 N2715 0.985 . S
H2722 N2719 0.984 . S
H2723 N2719 0.985 . S
H2724 N2718 0.984 . S
H2725 N2718 0.984 . S
H2726 N2714 0.984 . S
H2727 N2714 0.985 . S
C2728 C2729 1.363 . S
C2728 C2734 1.379 . S
C2728 N2736 1.356 . S
C2729 C2728 1.363 . S
C2729 C2735 1.363 . S
C2730 C2731 1.363 . S
C2730 C2735 1.379 . S
C2730 N2737 1.356 . S
C2731 C2730 1.363 . S
C2731 C2734 1.363 . S
N2732 C2734 1.356 . S
N2732 H2744 0.984 . S
N2732 H2745 0.985 . S
N2733 C2735 1.356 . S
N2733 H2738 0.984 . S
N2733 H2739 0.985 . S
C2734 C2728 1.379 . S
C2734 C2731 1.363 . S
C2734 N2732 1.356 . S
C2735 C2729 1.363 . S
C2735 C2730 1.379 . S
C2735 N2733 1.356 . S
N2736 C2728 1.356 . S
N2736 H2742 0.984 . S
N2736 H2743 0.984 . S
N2737 C2730 1.356 . S
N2737 H2740 0.984 . S
N2737 H2741 0.985 . S
H2738 N2733 0.984 . S
H2739 N2733 0.985 . S
H2740 N2737 0.984 . S
H2741 N2737 0.985 . S
H2742 N2736 0.984 . S
H2743 N2736 0.984 . S
H2744 N2732 0.984 . S
H2745 N2732 0.985 . S
C2746 C2747 1.363 . S
C2746 C2752 1.379 . S
C2746 N2754 1.356 . S
C2747 C2746 1.363 . S
C2747 C2753 1.363 . S
C2748 C2749 1.363 . S
C2748 C2753 1.379 . S
C2748 N2755 1.356 . S
C2749 C2748 1.363 . S
C2749 C2752 1.363 . S
N2750 C2752 1.356 . S
N2750 H2762 0.984 . S
N2750 H2763 0.985 . S
N2751 C2753 1.356 . S
N2751 H2756 0.984 . S
N2751 H2757 0.985 . S
C2752 C2746 1.379 . S
C2752 C2749 1.363 . S
C2752 N2750 1.356 . S
C2753 C2747 1.363 . S
C2753 C2748 1.379 . S
C2753 N2751 1.356 . S
N2754 C2746 1.356 . S
N2754 H2760 0.984 . S
N2754 H2761 0.984 1_554 S
N2755 C2748 1.356 . S
N2755 H2758 0.984 . S
N2755 H2759 0.985 . S
H2756 N2751 0.984 . S
H2757 N2751 0.985 . S
H2758 N2755 0.984 . S
H2759 N2755 0.985 . S
H2760 N2754 0.984 . S
H2761 N2754 0.984 1_556 S
H2762 N2750 0.984 . S
H2763 N2750 0.985 . S
C2764 C2765 1.363 . S
C2764 C2770 1.379 . S
C2764 N2772 1.356 . S
C2765 C2764 1.363 . S
C2765 C2771 1.363 . S
C2766 C2767 1.363 . S
C2766 C2771 1.379 . S
C2766 N2773 1.356 . S
C2767 C2766 1.363 . S
C2767 C2770 1.363 . S
N2768 C2770 1.356 . S
N2768 H2780 0.984 . S
N2768 H2781 0.985 . S
N2769 C2771 1.356 . S
N2769 H2774 0.984 . S
N2769 H2775 0.985 . S
C2770 C2764 1.379 . S
C2770 C2767 1.363 . S
C2770 N2768 1.356 . S
C2771 C2765 1.363 . S
C2771 C2766 1.379 . S
C2771 N2769 1.356 . S
N2772 C2764 1.356 . S
N2772 H2778 0.984 . S
N2772 H2779 0.984 . S
N2773 C2766 1.356 . S
N2773 H2776 0.984 . S
N2773 H2777 0.985 . S
H2774 N2769 0.984 . S
H2775 N2769 0.985 . S
H2776 N2773 0.984 . S
H2777 N2773 0.985 . S
H2778 N2772 0.984 . S
H2779 N2772 0.984 . S
H2780 N2768 0.984 . S
H2781 N2768 0.985 . S
C2782 C2783 1.363 . S
C2782 C2788 1.379 . S
C2782 N2790 1.356 . S
C2783 C2782 1.363 . S
C2783 C2789 1.363 . S
C2784 C2785 1.363 . S
C2784 C2789 1.379 . S
C2784 N2791 1.356 . S
C2785 C2784 1.363 . S
C2785 C2788 1.363 . S
N2786 C2788 1.356 . S
N2786 H2798 0.984 . S
N2786 H2799 0.985 . S
N2787 C2789 1.356 . S
N2787 H2792 0.984 . S
N2787 H2793 0.985 . S
C2788 C2782 1.379 . S
C2788 C2785 1.363 . S
C2788 N2786 1.356 . S
C2789 C2783 1.363 . S
C2789 C2784 1.379 . S
C2789 N2787 1.356 . S
N2790 C2782 1.356 . S
N2790 H2796 0.984 . S
N2790 H2797 0.984 . S
N2791 C2784 1.356 . S
N2791 H2794 0.984 . S
N2791 H2795 0.985 . S
H2792 N2787 0.984 . S
H2793 N2787 0.985 . S
H2794 N2791 0.984 . S
H2795 N2791 0.985 . S
H2796 N2790 0.984 . S
H2797 N2790 0.984 . S
H2798 N2786 0.984 . S
H2799 N2786 0.985 . S
C2800 C2801 1.363 . S
C2800 C2806 1.379 . S
C2800 N2808 1.356 . S
C2801 C2800 1.363 . S
C2801 C2807 1.363 . S
C2802 C2803 1.363 . S
C2802 C2807 1.379 . S
C2802 N2809 1.356 . S
C2803 C2802 1.363 . S
C2803 C2806 1.363 . S
N2804 C2806 1.356 . S
N2804 H2816 0.984 . S
N2804 H2817 0.985 . S
N2805 C2807 1.356 . S
N2805 H2810 0.984 . S
N2805 H2811 0.985 . S
C2806 C2800 1.379 . S
C2806 C2803 1.363 . S
C2806 N2804 1.356 . S
C2807 C2801 1.363 . S
C2807 C2802 1.379 . S
C2807 N2805 1.356 . S
N2808 C2800 1.356 . S
N2808 H2814 0.984 . S
N2808 H2815 0.984 . S
N2809 C2802 1.356 . S
N2809 H2812 0.984 . S
N2809 H2813 0.985 . S
H2810 N2805 0.984 . S
H2811 N2805 0.985 . S
H2812 N2809 0.984 . S
H2813 N2809 0.985 . S
H2814 N2808 0.984 . S
H2815 N2808 0.984 . S
H2816 N2804 0.984 . S
H2817 N2804 0.985 . S
C2818 C2819 1.363 . S
C2818 C2824 1.379 . S
C2818 N2826 1.356 . S
C2819 C2818 1.363 . S
C2819 C2825 1.363 . S
C2820 C2821 1.363 . S
C2820 C2825 1.379 . S
C2820 N2827 1.356 . S
C2821 C2820 1.363 . S
C2821 C2824 1.363 . S
N2822 C2824 1.356 . S
N2822 H2834 0.984 . S
N2822 H2835 0.985 . S
N2823 C2825 1.356 . S
N2823 H2828 0.984 . S
N2823 H2829 0.985 . S
C2824 C2818 1.379 . S
C2824 C2821 1.363 . S
C2824 N2822 1.356 . S
C2825 C2819 1.363 . S
C2825 C2820 1.379 . S
C2825 N2823 1.356 . S
N2826 C2818 1.356 . S
N2826 H2832 0.984 . S
N2826 H2833 0.984 . S
N2827 C2820 1.356 . S
N2827 H2830 0.984 . S
N2827 H2831 0.985 . S
H2828 N2823 0.984 . S
H2829 N2823 0.985 . S
H2830 N2827 0.984 . S
H2831 N2827 0.985 . S
H2832 N2826 0.984 . S
H2833 N2826 0.984 . S
H2834 N2822 0.984 . S
H2835 N2822 0.985 . S
C2836 C2837 1.363 . S
C2836 C2842 1.379 . S
C2836 N2844 1.356 . S
C2837 C2836 1.363 . S
C2837 C2843 1.363 . S
C2838 C2839 1.363 . S
C2838 C2843 1.379 . S
C2838 N2845 1.356 . S
C2839 C2838 1.363 . S
C2839 C2842 1.363 . S
N2840 C2842 1.356 . S
N2840 H2852 0.984 . S
N2840 H2853 0.985 . S
N2841 C2843 1.356 . S
N2841 H2846 0.984 . S
N2841 H2847 0.985 . S
C2842 C2836 1.379 . S
C2842 C2839 1.363 . S
C2842 N2840 1.356 . S
C2843 C2837 1.363 . S
C2843 C2838 1.379 . S
C2843 N2841 1.356 . S
N2844 C2836 1.356 . S
N2844 H2850 0.984 . S
N2844 H2851 0.984 . S
N2845 C2838 1.356 . S
N2845 H2848 0.984 . S
N2845 H2849 0.985 . S
H2846 N2841 0.984 . S
H2847 N2841 0.985 . S
H2848 N2845 0.984 . S
H2849 N2845 0.985 . S
H2850 N2844 0.984 . S
H2851 N2844 0.984 . S
H2852 N2840 0.984 . S
H2853 N2840 0.985 . S
C2854 C2855 1.363 . S
C2854 C2860 1.379 . S
C2854 N2862 1.356 . S
C2855 C2854 1.363 . S
C2855 C2861 1.363 . S
C2856 C2857 1.363 . S
C2856 C2861 1.379 . S
C2856 N2863 1.356 . S
C2857 C2856 1.363 . S
C2857 C2860 1.363 . S
N2858 C2860 1.356 . S
N2858 H2870 0.984 . S
N2858 H2871 0.985 . S
N2859 C2861 1.356 . S
N2859 H2864 0.984 . S
N2859 H2865 0.985 . S
C2860 C2854 1.379 . S
C2860 C2857 1.363 . S
C2860 N2858 1.356 . S
C2861 C2855 1.363 . S
C2861 C2856 1.379 . S
C2861 N2859 1.356 . S
N2862 C2854 1.356 . S
N2862 H2868 0.984 . S
N2862 H2869 0.984 . S
N2863 C2856 1.356 . S
N2863 H2866 0.984 . S
N2863 H2867 0.985 . S
H2864 N2859 0.984 . S
H2865 N2859 0.985 . S
H2866 N2863 0.984 . S
H2867 N2863 0.985 . S
H2868 N2862 0.984 . S
H2869 N2862 0.984 . S
H2870 N2858 0.984 . S
H2871 N2858 0.985 . S
C2872 C2873 1.363 . S
C2872 C2878 1.379 . S
C2872 N2880 1.356 . S
C2873 C2872 1.363 . S
C2873 C2879 1.363 . S
C2874 C2875 1.363 . S
C2874 C2879 1.379 . S
C2874 N2881 1.356 . S
C2875 C2874 1.363 . S
C2875 C2878 1.363 . S
N2876 C2878 1.356 . S
N2876 H2888 0.984 . S
N2876 H2889 0.985 . S
N2877 C2879 1.356 . S
N2877 H2882 0.984 . S
N2877 H2883 0.985 . S
C2878 C2872 1.379 . S
C2878 C2875 1.363 . S
C2878 N2876 1.356 . S
C2879 C2873 1.363 . S
C2879 C2874 1.379 . S
C2879 N2877 1.356 . S
N2880 C2872 1.356 . S
N2880 H2886 0.984 . S
N2880 H2887 0.984 . S
N2881 C2874 1.356 . S
N2881 H2884 0.984 . S
N2881 H2885 0.985 . S
H2882 N2877 0.984 . S
H2883 N2877 0.985 . S
H2884 N2881 0.984 . S
H2885 N2881 0.985 . S
H2886 N2880 0.984 . S
H2887 N2880 0.984 . S
H2888 N2876 0.984 . S
H2889 N2876 0.985 . S
C2890 C2891 1.363 . S
C2890 C2896 1.379 . S
C2890 N2898 1.356 . S
C2891 C2890 1.363 . S
C2891 C2897 1.363 . S
C2892 C2893 1.363 . S
C2892 C2897 1.379 . S
C2892 N2899 1.356 . S
C2893 C2892 1.363 . S
C2893 C2896 1.363 . S
N2894 C2896 1.356 . S
N2894 H2906 0.984 . S
N2894 H2907 0.985 . S
N2895 C2897 1.356 . S
N2895 H2900 0.984 . S
N2895 H2901 0.985 . S
C2896 C2890 1.379 . S
C2896 C2893 1.363 . S
C2896 N2894 1.356 . S
C2897 C2891 1.363 . S
C2897 C2892 1.379 . S
C2897 N2895 1.356 . S
N2898 C2890 1.356 . S
N2898 H2904 0.984 . S
N2898 H2905 0.984 . S
N2899 C2892 1.356 . S
N2899 H2902 0.984 . S
N2899 H2903 0.985 . S
H2900 N2895 0.984 . S
H2901 N2895 0.985 . S
H2902 N2899 0.984 . S
H2903 N2899 0.985 . S
H2904 N2898 0.984 . S
H2905 N2898 0.984 . S
H2906 N2894 0.984 . S
H2907 N2894 0.985 . S
C2908 C2909 1.363 . S
C2908 C2914 1.379 . S
C2908 N2916 1.356 . S
C2909 C2908 1.363 . S
C2909 C2915 1.363 . S
C2910 C2911 1.363 . S
C2910 C2915 1.379 . S
C2910 N2917 1.356 . S
C2911 C2910 1.363 . S
C2911 C2914 1.363 . S
N2912 C2914 1.356 . S
N2912 H2924 0.984 . S
N2912 H2925 0.985 . S
N2913 C2915 1.356 . S
N2913 H2918 0.984 . S
N2913 H2919 0.985 . S
C2914 C2908 1.379 . S
C2914 C2911 1.363 . S
C2914 N2912 1.356 . S
C2915 C2909 1.363 . S
C2915 C2910 1.379 . S
C2915 N2913 1.356 . S
N2916 C2908 1.356 . S
N2916 H2922 0.984 . S
N2916 H2923 0.984 . S
N2917 C2910 1.356 . S
N2917 H2920 0.984 . S
N2917 H2921 0.985 . S
H2918 N2913 0.984 . S
H2919 N2913 0.985 . S
H2920 N2917 0.984 . S
H2921 N2917 0.985 . S
H2922 N2916 0.984 . S
H2923 N2916 0.984 . S
H2924 N2912 0.984 . S
H2925 N2912 0.985 . S
C2926 C2927 1.363 . S
C2926 C2932 1.379 . S
C2926 N2934 1.356 . S
C2927 C2926 1.363 . S
C2927 C2933 1.363 . S
C2928 C2929 1.363 . S
C2928 C2933 1.379 . S
C2928 N2935 1.356 . S
C2929 C2928 1.363 . S
C2929 C2932 1.363 . S
N2930 C2932 1.356 . S
N2930 H2942 0.984 . S
N2930 H2943 0.985 . S
N2931 C2933 1.356 . S
N2931 H2936 0.984 . S
N2931 H2937 0.985 . S
C2932 C2926 1.379 . S
C2932 C2929 1.363 . S
C2932 N2930 1.356 . S
C2933 C2927 1.363 . S
C2933 C2928 1.379 . S
C2933 N2931 1.356 . S
N2934 C2926 1.356 . S
N2934 H2940 0.984 . S
N2934 H2941 0.984 . S
N2935 C2928 1.356 . S
N2935 H2938 0.984 . S
N2935 H2939 0.985 . S
H2936 N2931 0.984 . S
H2937 N2931 0.985 . S
H2938 N2935 0.984 . S
H2939 N2935 0.985 . S
H2940 N2934 0.984 . S
H2941 N2934 0.984 . S
H2942 N2930 0.984 . S
H2943 N2930 0.985 . S
C2944 C2945 1.363 . S
C2944 C2950 1.379 . S
C2944 N2952 1.356 . S
C2945 C2944 1.363 . S
C2945 C2951 1.363 . S
C2946 C2947 1.363 . S
C2946 C2951 1.379 . S
C2946 N2953 1.356 . S
C2947 C2946 1.363 . S
C2947 C2950 1.363 . S
N2948 C2950 1.356 . S
N2948 H2960 0.984 . S
N2948 H2961 0.985 . S
N2949 C2951 1.356 . S
N2949 H2954 0.984 . S
N2949 H2955 0.985 . S
C2950 C2944 1.379 . S
C2950 C2947 1.363 . S
C2950 N2948 1.356 . S
C2951 C2945 1.363 . S
C2951 C2946 1.379 . S
C2951 N2949 1.356 . S
N2952 C2944 1.356 . S
N2952 H2958 0.984 . S
N2952 H2959 0.984 . S
N2953 C2946 1.356 . S
N2953 H2956 0.984 . S
N2953 H2957 0.985 . S
H2954 N2949 0.984 . S
H2955 N2949 0.985 . S
H2956 N2953 0.984 . S
H2957 N2953 0.985 . S
H2958 N2952 0.984 . S
H2959 N2952 0.984 . S
H2960 N2948 0.984 . S
H2961 N2948 0.985 . S
C2962 C2963 1.363 . S
C2962 C2968 1.379 . S
C2962 N2970 1.356 . S
C2963 C2962 1.363 . S
C2963 C2969 1.363 . S
C2964 C2965 1.363 . S
C2964 C2969 1.379 . S
C2964 N2971 1.356 . S
C2965 C2964 1.363 . S
C2965 C2968 1.363 . S
N2966 C2968 1.356 . S
N2966 H2978 0.984 . S
N2966 H2979 0.985 . S
N2967 C2969 1.356 . S
N2967 H2972 0.984 . S
N2967 H2973 0.985 . S
C2968 C2962 1.379 . S
C2968 C2965 1.363 . S
C2968 N2966 1.356 . S
C2969 C2963 1.363 . S
C2969 C2964 1.379 . S
C2969 N2967 1.356 . S
N2970 C2962 1.356 . S
N2970 H2976 0.984 . S
N2970 H2977 0.984 . S
N2971 C2964 1.356 . S
N2971 H2974 0.984 . S
N2971 H2975 0.985 . S
H2972 N2967 0.984 . S
H2973 N2967 0.985 . S
H2974 N2971 0.984 . S
H2975 N2971 0.985 . S
H2976 N2970 0.984 . S
H2977 N2970 0.984 . S
H2978 N2966 0.984 . S
H2979 N2966 0.985 . S
C2980 C2981 1.363 1_455 S
C2980 C2986 1.379 . S
C2980 N2988 1.356 . S
C2981 C2980 1.363 1_655 S
C2981 C2987 1.363 . S
C2982 C2983 1.363 . S
C2982 C2987 1.379 1_455 S
C2982 N2989 1.356 . S
C2983 C2982 1.363 . S
C2983 C2986 1.363 . S
N2984 C2986 1.356 . S
N2984 H2996 0.984 . S
N2984 H2997 0.985 . S
N2985 C2987 1.356 . S
N2985 H2990 0.984 . S
N2985 H2991 0.985 . S
C2986 C2980 1.379 . S
C2986 C2983 1.363 . S
C2986 N2984 1.356 . S
C2987 C2981 1.363 . S
C2987 C2982 1.379 1_655 S
C2987 N2985 1.356 . S
N2988 C2980 1.356 . S
N2988 H2994 0.984 . S
N2988 H2995 0.984 1_455 S
N2989 C2982 1.356 . S
N2989 H2992 0.984 . S
N2989 H2993 0.985 . S
H2990 N2985 0.984 . S
H2991 N2985 0.985 . S
H2992 N2989 0.984 . S
H2993 N2989 0.985 . S
H2994 N2988 0.984 . S
H2995 N2988 0.984 1_655 S
H2996 N2984 0.984 . S
H2997 N2984 0.985 . S
C2998 C2999 1.363 . S
C2998 C3004 1.379 . S
C2998 N3006 1.356 . S
C2999 C2998 1.363 . S
C2999 C3005 1.363 . S
C3000 C3001 1.363 . S
C3000 C3005 1.379 . S
C3000 N3007 1.356 . S
C3001 C3000 1.363 . S
C3001 C3004 1.363 . S
N3002 C3004 1.356 . S
N3002 H3014 0.984 . S
N3002 H3015 0.985 . S
N3003 C3005 1.356 . S
N3003 H3008 0.984 . S
N3003 H3009 0.985 . S
C3004 C2998 1.379 . S
C3004 C3001 1.363 . S
C3004 N3002 1.356 . S
C3005 C2999 1.363 . S
C3005 C3000 1.379 . S
C3005 N3003 1.356 . S
N3006 C2998 1.356 . S
N3006 H3012 0.984 . S
N3006 H3013 0.984 . S
N3007 C3000 1.356 . S
N3007 H3010 0.984 . S
N3007 H3011 0.985 . S
H3008 N3003 0.984 . S
H3009 N3003 0.985 . S
H3010 N3007 0.984 . S
H3011 N3007 0.985 . S
H3012 N3006 0.984 . S
H3013 N3006 0.984 . S
H3014 N3002 0.984 . S
H3015 N3002 0.985 . S
C3016 C3017 1.363 . S
C3016 C3022 1.379 . S
C3016 N3024 1.356 . S
C3017 C3016 1.363 . S
C3017 C3023 1.363 . S
C3018 C3019 1.363 . S
C3018 C3023 1.379 . S
C3018 N3025 1.356 . S
C3019 C3018 1.363 . S
C3019 C3022 1.363 . S
N3020 C3022 1.356 . S
N3020 H3032 0.984 . S
N3020 H3033 0.985 . S
N3021 C3023 1.356 . S
N3021 H3026 0.984 . S
N3021 H3027 0.985 . S
C3022 C3016 1.379 . S
C3022 C3019 1.363 . S
C3022 N3020 1.356 . S
C3023 C3017 1.363 . S
C3023 C3018 1.379 . S
C3023 N3021 1.356 . S
N3024 C3016 1.356 . S
N3024 H3030 0.984 . S
N3024 H3031 0.984 . S
N3025 C3018 1.356 . S
N3025 H3028 0.984 . S
N3025 H3029 0.985 . S
H3026 N3021 0.984 . S
H3027 N3021 0.985 . S
H3028 N3025 0.984 . S
H3029 N3025 0.985 . S
H3030 N3024 0.984 . S
H3031 N3024 0.984 . S
H3032 N3020 0.984 . S
H3033 N3020 0.985 . S
C3034 C3035 1.363 . S
C3034 C3040 1.379 . S
C3034 N3042 1.356 . S
C3035 C3034 1.363 . S
C3035 C3041 1.363 . S
C3036 C3037 1.363 . S
C3036 C3041 1.379 . S
C3036 N3043 1.356 . S
C3037 C3036 1.363 . S
C3037 C3040 1.363 . S
N3038 C3040 1.356 . S
N3038 H3050 0.984 . S
N3038 H3051 0.985 . S
N3039 C3041 1.356 . S
N3039 H3044 0.984 . S
N3039 H3045 0.985 . S
C3040 C3034 1.379 . S
C3040 C3037 1.363 . S
C3040 N3038 1.356 . S
C3041 C3035 1.363 . S
C3041 C3036 1.379 . S
C3041 N3039 1.356 . S
N3042 C3034 1.356 . S
N3042 H3048 0.984 . S
N3042 H3049 0.984 . S
N3043 C3036 1.356 . S
N3043 H3046 0.984 . S
N3043 H3047 0.985 . S
H3044 N3039 0.984 . S
H3045 N3039 0.985 . S
H3046 N3043 0.984 . S
H3047 N3043 0.985 . S
H3048 N3042 0.984 . S
H3049 N3042 0.984 . S
H3050 N3038 0.984 . S
H3051 N3038 0.985 . S
C3052 C3053 1.363 . S
C3052 C3058 1.379 . S
C3052 N3060 1.356 . S
C3053 C3052 1.363 . S
C3053 C3059 1.363 . S
C3054 C3055 1.363 . S
C3054 C3059 1.379 . S
C3054 N3061 1.356 . S
C3055 C3054 1.363 . S
C3055 C3058 1.363 . S
N3056 C3058 1.380 . S
N3056 H3068 0.963 1_655 S
N3056 H3069 0.984 . S
N3057 C3059 1.356 . S
N3057 H3062 0.984 . S
N3057 H3063 0.985 . S
C3058 C3052 1.379 . S
C3058 C3055 1.363 . S
C3058 N3056 1.380 . S
C3059 C3053 1.363 . S
C3059 C3054 1.379 . S
C3059 N3057 1.356 . S
N3060 C3052 1.356 . S
N3060 H3066 0.982 . S
N3060 H3067 0.984 . S
N3061 C3054 1.356 . S
N3061 H3064 0.984 . S
N3061 H3065 0.985 . S
H3062 N3057 0.984 . S
H3063 N3057 0.985 . S
H3064 N3061 0.984 . S
H3065 N3061 0.985 . S
H3066 N3060 0.982 . S
H3067 N3060 0.984 . S
H3068 N3056 0.963 1_455 S
H3069 N3056 0.984 . S
C3070 C3071 1.363 . S
C3070 C3076 1.379 . S
C3070 N3078 1.356 . S
C3071 C3070 1.363 . S
C3071 C3077 1.363 . S
C3072 C3073 1.363 . S
C3072 C3077 1.379 . S
C3072 N3079 1.356 . S
C3073 C3072 1.363 . S
C3073 C3076 1.363 . S
N3074 C3076 1.356 . S
N3074 H3086 0.984 . S
N3074 H3087 0.985 . S
N3075 C3077 1.356 . S
N3075 H3080 0.984 . S
N3075 H3081 0.985 . S
C3076 C3070 1.379 . S
C3076 C3073 1.363 . S
C3076 N3074 1.356 . S
C3077 C3071 1.363 . S
C3077 C3072 1.379 . S
C3077 N3075 1.356 . S
N3078 C3070 1.356 . S
N3078 H3084 0.984 . S
N3078 H3085 0.984 . S
N3079 C3072 1.356 . S
N3079 H3082 0.984 . S
N3079 H3083 0.985 . S
H3080 N3075 0.984 . S
H3081 N3075 0.985 . S
H3082 N3079 0.984 . S
H3083 N3079 0.985 . S
H3084 N3078 0.984 . S
H3085 N3078 0.984 . S
H3086 N3074 0.984 . S
H3087 N3074 0.985 . S
C3088 C3089 1.363 . S
C3088 C3094 1.379 . S
C3088 N3096 1.356 . S
C3089 C3088 1.363 . S
C3089 C3095 1.363 . S
C3090 C3091 1.363 . S
C3090 C3095 1.379 . S
C3090 N3097 1.356 . S
C3091 C3090 1.363 . S
C3091 C3094 1.363 . S
N3092 C3094 1.356 . S
N3092 H3104 0.984 . S
N3092 H3105 0.985 . S
N3093 C3095 1.356 . S
N3093 H3098 0.984 . S
N3093 H3099 0.985 . S
C3094 C3088 1.379 . S
C3094 C3091 1.363 . S
C3094 N3092 1.356 . S
C3095 C3089 1.363 . S
C3095 C3090 1.379 . S
C3095 N3093 1.356 . S
N3096 C3088 1.356 . S
N3096 H3102 0.984 . S
N3096 H3103 0.984 . S
N3097 C3090 1.356 . S
N3097 H3100 0.984 . S
N3097 H3101 0.985 . S
H3098 N3093 0.984 . S
H3099 N3093 0.985 . S
H3100 N3097 0.984 . S
H3101 N3097 0.985 . S
H3102 N3096 0.984 . S
H3103 N3096 0.984 . S
H3104 N3092 0.984 . S
H3105 N3092 0.985 . S
C3106 C3107 1.363 . S
C3106 C3112 1.379 . S
C3106 N3114 1.356 . S
C3107 C3106 1.363 . S
C3107 C3113 1.363 . S
C3108 C3109 1.363 . S
C3108 C3113 1.379 . S
C3108 N3115 1.337 1_655 S
C3109 C3108 1.363 . S
C3109 C3112 1.363 . S
N3110 C3112 1.356 1_545 S
N3110 H3122 0.984 . S
N3110 H3123 0.985 . S
N3111 C3113 1.356 . S
N3111 H3116 0.984 . S
N3111 H3117 0.985 . S
C3112 C3106 1.379 . S
C3112 C3109 1.363 . S
C3112 N3110 1.356 1_565 S
C3113 C3107 1.363 . S
C3113 C3108 1.379 . S
C3113 N3111 1.356 . S
N3114 C3106 1.356 . S
N3114 H3120 0.984 . S
N3114 H3121 0.984 . S
N3115 C3108 1.337 1_455 S
N3115 H3118 0.992 . S
N3115 H3119 0.996 . S
H3116 N3111 0.984 . S
H3117 N3111 0.985 . S
H3118 N3115 0.992 . S
H3119 N3115 0.996 . S
H3120 N3114 0.984 . S
H3121 N3114 0.984 . S
H3122 N3110 0.984 . S
H3123 N3110 0.985 . S
C3124 C3125 1.363 . S
C3124 C3130 1.379 . S
C3124 N3132 1.356 . S
C3125 C3124 1.363 . S
C3125 C3131 1.363 . S
C3126 C3127 1.363 . S
C3126 C3131 1.379 . S
C3126 N3133 1.356 . S
C3127 C3126 1.363 . S
C3127 C3130 1.363 . S
N3128 C3130 1.356 . S
N3128 H3140 0.984 . S
N3128 H3141 0.985 . S
N3129 C3131 1.356 . S
N3129 H3134 0.984 . S
N3129 H3135 0.985 . S
C3130 C3124 1.379 . S
C3130 C3127 1.363 . S
C3130 N3128 1.356 . S
C3131 C3125 1.363 . S
C3131 C3126 1.379 . S
C3131 N3129 1.356 . S
N3132 C3124 1.356 . S
N3132 H3138 0.984 . S
N3132 H3139 0.984 . S
N3133 C3126 1.356 . S
N3133 H3136 0.984 . S
N3133 H3137 0.985 . S
H3134 N3129 0.984 . S
H3135 N3129 0.985 . S
H3136 N3133 0.984 . S
H3137 N3133 0.985 . S
H3138 N3132 0.984 . S
H3139 N3132 0.984 . S
H3140 N3128 0.984 . S
H3141 N3128 0.985 . S
C3142 C3143 1.363 . S
C3142 C3148 1.379 . S
C3142 N3150 1.356 . S
C3143 C3142 1.363 . S
C3143 C3149 1.363 . S
C3144 C3145 1.363 . S
C3144 C3149 1.379 . S
C3144 N3151 1.359 . S
C3145 C3144 1.363 . S
C3145 C3148 1.363 . S
N3146 C3148 1.356 . S
N3146 H3158 0.984 . S
N3146 H3159 0.985 . S
N3147 C3149 1.356 . S
N3147 H3152 0.984 . S
N3147 H3153 0.985 1_554 S
C3148 C3142 1.379 . S
C3148 C3145 1.363 . S
C3148 N3146 1.356 . S
C3149 C3143 1.363 . S
C3149 C3144 1.379 . S
C3149 N3147 1.356 . S
N3150 C3142 1.356 . S
N3150 H3156 0.984 . S
N3150 H3157 0.984 . S
N3151 C3144 1.359 . S
N3151 H3154 0.986 . S
N3151 H3155 0.980 1_554 S
H3152 N3147 0.984 . S
H3153 N3147 0.985 1_556 S
H3154 N3151 0.986 . S
H3155 N3151 0.980 1_556 S
H3156 N3150 0.984 . S
H3157 N3150 0.984 . S
H3158 N3146 0.984 . S
H3159 N3146 0.985 . S
C3160 C3161 1.363 . S
C3160 C3166 1.379 . S
C3160 N3168 1.356 . S
C3161 C3160 1.363 . S
C3161 C3167 1.363 . S
C3162 C3163 1.363 . S
C3162 C3167 1.379 . S
C3162 N3169 1.356 . S
C3163 C3162 1.363 . S
C3163 C3166 1.363 . S
N3164 C3166 1.356 . S
N3164 H3176 0.984 . S
N3164 H3177 0.985 . S
N3165 C3167 1.356 . S
N3165 H3170 0.984 . S
N3165 H3171 0.985 . S
C3166 C3160 1.379 . S
C3166 C3163 1.363 . S
C3166 N3164 1.356 . S
C3167 C3161 1.363 . S
C3167 C3162 1.379 . S
C3167 N3165 1.356 . S
N3168 C3160 1.356 . S
N3168 H3174 0.984 . S
N3168 H3175 0.984 . S
N3169 C3162 1.356 . S
N3169 H3172 0.984 . S
N3169 H3173 0.985 . S
H3170 N3165 0.984 . S
H3171 N3165 0.985 . S
H3172 N3169 0.984 . S
H3173 N3169 0.985 . S
H3174 N3168 0.984 . S
H3175 N3168 0.984 . S
H3176 N3164 0.984 . S
H3177 N3164 0.985 . S
C3178 C3179 1.363 1_556 S
C3178 C3184 1.379 . S
C3178 N3186 1.356 . S
C3179 C3178 1.363 1_554 S
C3179 C3185 1.363 . S
C3180 C3181 1.363 1_554 S
C3180 C3185 1.379 . S
C3180 N3187 1.356 . S
C3181 C3180 1.363 1_556 S
C3181 C3184 1.363 . S
N3182 C3184 1.356 . S
N3182 H3194 0.984 . S
N3182 H3195 0.985 . S
N3183 C3185 1.356 . S
N3183 H3188 0.984 . S
N3183 H3189 0.985 . S
C3184 C3178 1.379 . S
C3184 C3181 1.363 . S
C3184 N3182 1.356 . S
C3185 C3179 1.363 . S
C3185 C3180 1.379 . S
C3185 N3183 1.356 . S
N3186 C3178 1.356 . S
N3186 H3192 0.984 . S
N3186 H3193 0.984 1_556 S
N3187 C3180 1.356 . S
N3187 H3190 0.984 1_554 S
N3187 H3191 0.985 . S
H3188 N3183 0.984 . S
H3189 N3183 0.985 . S
H3190 N3187 0.984 1_556 S
H3191 N3187 0.985 . S
H3192 N3186 0.984 . S
H3193 N3186 0.984 1_554 S
H3194 N3182 0.984 . S
H3195 N3182 0.985 . S
C3196 C3197 1.363 . S
C3196 C3202 1.379 . S
C3196 N3204 1.356 . S
C3197 C3196 1.363 . S
C3197 C3203 1.363 . S
C3198 C3199 1.363 . S
C3198 C3203 1.379 . S
C3198 N3205 1.356 . S
C3199 C3198 1.363 . S
C3199 C3202 1.363 . S
N3200 C3202 1.356 . S
N3200 H3212 0.984 . S
N3200 H3213 0.985 . S
N3201 C3203 1.356 . S
N3201 H3206 0.984 . S
N3201 H3207 0.985 . S
C3202 C3196 1.379 . S
C3202 C3199 1.363 . S
C3202 N3200 1.356 . S
C3203 C3197 1.363 . S
C3203 C3198 1.379 . S
C3203 N3201 1.356 . S
N3204 C3196 1.356 . S
N3204 H3210 0.984 . S
N3204 H3211 0.984 . S
N3205 C3198 1.356 . S
N3205 H3208 0.984 . S
N3205 H3209 0.985 . S
H3206 N3201 0.984 . S
H3207 N3201 0.985 . S
H3208 N3205 0.984 . S
H3209 N3205 0.985 . S
H3210 N3204 0.984 . S
H3211 N3204 0.984 . S
H3212 N3200 0.984 . S
H3213 N3200 0.985 . S
C3214 C3215 1.363 . S
C3214 C3220 1.379 . S
C3214 N3222 1.356 . S
C3215 C3214 1.363 . S
C3215 C3221 1.363 . S
C3216 C3217 1.363 . S
C3216 C3221 1.379 . S
C3216 N3223 1.356 . S
C3217 C3216 1.363 . S
C3217 C3220 1.363 . S
N3218 C3220 1.356 . S
N3218 H3230 0.984 . S
N3218 H3231 0.985 . S
N3219 C3221 1.356 . S
N3219 H3224 0.984 . S
N3219 H3225 0.985 . S
C3220 C3214 1.379 . S
C3220 C3217 1.363 . S
C3220 N3218 1.356 . S
C3221 C3215 1.363 . S
C3221 C3216 1.379 . S
C3221 N3219 1.356 . S
N3222 C3214 1.356 . S
N3222 H3228 0.984 . S
N3222 H3229 0.984 . S
N3223 C3216 1.356 . S
N3223 H3226 0.984 . S
N3223 H3227 0.985 . S
H3224 N3219 0.984 . S
H3225 N3219 0.985 . S
H3226 N3223 0.984 . S
H3227 N3223 0.985 . S
H3228 N3222 0.984 . S
H3229 N3222 0.984 . S
H3230 N3218 0.984 . S
H3231 N3218 0.985 . S
C1505 C255 1.139 . S
C1507 C872 1.167 . S
C1523 C147 1.466 . S
C1525 C906 1.495 . S
C1541 C184 0.775 . S
C1543 C975 0.772 . S
C1561 C1013 0.970 . S
C1559 C220 0.973 . S
C1577 C40 1.707 . S
C1579 C1053 1.664 . S
C1597 C1072 0.598 . S
C1595 C74 0.588 . S
C1615 C1106 1.552 . S
C1613 C110 1.496 . S
C1631 C14 1.833 . S
C1633 C1175 1.815 . S
C1651 C881 2.485 . S
C1649 C579 2.527 1_455 S
C1667 C616 1.317 . S
C1669 C933 1.299 . S
C1687 C946 1.431 . S
C1685 C687 1.418 . S
C1705 C1015 1.620 . S
C1703 C436 1.578 . S
C1721 C580 2.059 1_455 S
C1723 C1055 2.105 . S
C1741 C1081 1.875 . S
C1739 C615 1.900 . S
C1759 C1133 0.579 . S
C1757 C688 0.561 . S
C1777 C1146 2.370 . S
C1775 C435 2.374 . S
C1795 C876 2.498 . S
C1793 C410 2.530 1_554 S
C1811 C722 2.081 . S
C1813 C1186 2.090 . S
C1831 C1236 2.796 . S
C1829 C842 2.755 . S
C1849 C1295 1.798 1_655 S
C1847 C794 1.720 . S
C1865 C302 1.985 . S
C1867 C1173 1.845 . S
C1883 C338 1.618 . S
C1885 C973 1.525 . S
C1901 C830 2.552 . S
C1903 C1306 2.535 . S
C1921 C1375 1.000 . S
C1919 C758 1.022 . S
C1939 C893 1.177 . S
C1937 C158 1.066 . S
C1957 C1361 1.533 . S
C1955 C254 1.539 . S
C1973 C218 0.754 . S
C1975 C956 0.753 . S
C1991 C194 0.940 . S
C1993 C1312 0.930 . S
C2011 C1032 1.697 . S
C2009 C3 1.782 . S
C2027 C111 0.543 . S
C2029 C1253 0.548 . S
C2047 C1121 1.522 1_556 S
C2045 C76 1.439 . S
C2065 C1396 1.875 . S
C2063 C50 1.724 . S
C2083 C866 2.476 . S
C2081 C364 2.520 . S
C2101 C1352 1.439 . S
C2099 C795 1.488 . S
C2117 C292 1.419 . S
C2119 C961 1.409 . S
C2135 C723 1.573 . S
C2137 C1316 1.584 . S
C2153 C363 2.089 . S
C2155 C1036 2.103 . S
C2173 C1226 1.880 . S
C2171 C796 1.921 . S
C2189 C291 0.518 . S
C2191 C1112 0.560 . S
C2207 C724 2.387 . S
C2209 C1401 2.373 . S
C2225 C482 2.400 . S
C2227 C895 2.465 1_655 S
C2243 C434 2.024 . S
C2245 C1201 2.043 . S
C2261 C662 2.712 . S
C2263 C1095 2.762 . S
C2279 C614 1.711 . S
C2281 C1276 1.781 . S
C2299 C1392 1.779 . S
C2297 C698 1.583 . S
C2315 C554 1.425 . S
C2317 C952 1.573 . S
C2335 C1001 2.478 . S
C2333 C650 2.485 . S
C2353 C916 1.028 . S
C2351 C506 1.085 . S
C2369 C183 1.139 . S
C2371 C1432 1.167 . S
C2389 C1346 1.498 . S
C2387 C219 1.469 . S
C2405 C256 0.775 . S
C2407 C1495 0.772 1_556 S
C2423 C148 0.968 . S
C2425 C1333 0.964 . S
C2441 C122 1.892 . S
C2443 C1213 1.724 . S
C2461 C1232 0.571 . S
C2459 C2 0.557 . S
C2479 C1266 1.495 . S
C2477 C39 1.436 1_455 S
C2497 C1415 1.853 . S
C2495 C86 1.868 . S
C2515 C1441 2.498 . S
C2513 C651 2.539 . S
C2531 C472 1.325 . S
C2533 C1373 1.308 . S
C2551 C1466 1.416 . S
C2549 C507 1.406 . S
C2569 C1335 1.618 . S
C2567 C544 1.577 . S
C2587 C1215 2.117 . S
C2585 C652 2.070 . S
C2603 C471 1.884 . S
C2605 C1241 1.865 . S
C2623 C1293 0.571 . S
C2621 C508 0.557 . S
C2639 C543 2.381 . S
C2641 C1386 2.377 . S
C2659 C1436 2.518 . S
C2657 C806 2.561 . S
C2675 C326 2.039 . S
C2677 C1026 2.047 . S
C2695 C1076 2.772 . S
C2693 C374 2.734 . S
C2713 C1135 1.805 . S
C2711 C398 1.731 . S
C2731 C1413 1.794 . S
C2729 C770 1.931 . S
C2747 C734 1.606 . S
C2749 C1493 1.512 . S
C2767 C986 2.522 . S
C2765 C362 2.537 . S
C2785 C935 1.015 . S
C2783 C290 1.037 . S
C2801 C230 1.064 . S
C2803 C1453 1.175 . S
C2821 C921 1.544 . S
C2819 C182 1.550 . S
C2837 C146 0.744 . S
C2839 C1476 0.745 . S
C2855 C266 0.934 . S
C2857 C992 0.925 . S
C2873 C75 1.786 . S
C2875 C1192 1.703 . S
C2893 C1093 0.585 . S
C2891 C38 0.572 . S
C2909 C4 1.383 . S
C2911 C1281 1.475 . S
C2927 C112 1.904 . S
C2929 C1156 1.847 . S
C2947 C1426 2.481 . S
C2945 C832 2.524 . S
C2963 C399 1.517 . S
C2965 C912 1.467 . S
C2983 C1481 1.397 . S
C2981 C760 1.407 . S
C2999 C327 1.566 . S
C3001 C996 1.578 . S
C3017 C831 2.118 . S
C3019 C1196 2.133 . S
C3037 C1066 1.887 . S
C3035 C400 1.926 . S
C3053 C759 0.526 . S
C3055 C1272 0.573 . S
C3073 C1161 2.370 . S
C3071 C328 2.383 . S
C3091 C1455 2.477 . S
C3089 C626 2.410 . S
C3109 C1041 2.053 1_665 S
C3107 C542 2.035 . S
C3125 C590 2.682 . S
C3127 C1255 2.730 . S
C3145 C1116 1.804 . S
C3143 C470 1.731 . S
C3161 C518 1.545 . S
C3163 C1152 1.738 . S
C3179 C446 1.409 . S
C3181 C1472 1.556 . S
C3199 C1321 2.490 . S
C3197 C578 2.496 1_565 S
C3217 C1356 1.005 . S
C3215 C686 1.058 . S
