# Generated by pormake.
# Topology ocu, (6,8)-cn, num edge types: 1
# Building blocks:
#     Node 0, Type 0, BuildingBlock: KUMBUR_clean_sbu_1, # of connection points: 6
#     Node 1, Type 0, BuildingBlock: KUMBUR_clean_sbu_1, # of connection points: 6
#     Node 2, Type 0, BuildingBlock: KUMBUR_clean_sbu_1, # of connection points: 6
#     Node 3, Type 0, BuildingBlock: KUMBUR_clean_sbu_1, # of connection points: 6
#     Node 4, Type 0, BuildingBlock: KUMBUR_clean_sbu_1, # of connection points: 6
#     Node 5, Type 0, BuildingBlock: KUMBUR_clean_sbu_1, # of connection points: 6
#     Node 6, Type 0, BuildingBlock: KUMBUR_clean_sbu_1, # of connection points: 6
#     Node 7, Type 0, BuildingBlock: KUMBUR_clean_sbu_1, # of connection points: 6
#     Node 8, Type 1, BuildingBlock: AJUNOK_clean_sbu_0, # of connection points: 8
#     Node 9, Type 1, BuildingBlock: AJUNOK_clean_sbu_0, # of connection points: 8
#     Node 10, Type 1, BuildingBlock: AJUNOK_clean_sbu_0, # of connection points: 8
#     Node 11, Type 1, BuildingBlock: AJUNOK_clean_sbu_0, # of connection points: 8
#     Node 12, Type 1, BuildingBlock: AJUNOK_clean_sbu_0, # of connection points: 8
#     Node 13, Type 1, BuildingBlock: AJUNOK_clean_sbu_0, # of connection points: 8
#     Edge 14, Type (0, 1), BuildingBlock: XIVTED_clean_linker_0, # of connection points: 2
#     Edge 15, Type (0, 1), BuildingBlock: XIVTED_clean_linker_0, # of connection points: 2
#     Edge 16, Type (0, 1), BuildingBlock: XIVTED_clean_linker_0, # of connection points: 2
#     Edge 17, Type (0, 1), BuildingBlock: XIVTED_clean_linker_0, # of connection points: 2
#     Edge 18, Type (0, 1), BuildingBlock: XIVTED_clean_linker_0, # of connection points: 2
#     Edge 19, Type (0, 1), BuildingBlock: XIVTED_clean_linker_0, # of connection points: 2
#     Edge 20, Type (0, 1), BuildingBlock: XIVTED_clean_linker_0, # of connection points: 2
#     Edge 21, Type (0, 1), BuildingBlock: XIVTED_clean_linker_0, # of connection points: 2
#     Edge 22, Type (0, 1), BuildingBlock: XIVTED_clean_linker_0, # of connection points: 2
#     Edge 23, Type (0, 1), BuildingBlock: XIVTED_clean_linker_0, # of connection points: 2
#     Edge 24, Type (0, 1), BuildingBlock: XIVTED_clean_linker_0, # of connection points: 2
#     Edge 25, Type (0, 1), BuildingBlock: XIVTED_clean_linker_0, # of connection points: 2
#     Edge 26, Type (0, 1), BuildingBlock: XIVTED_clean_linker_0, # of connection points: 2
#     Edge 27, Type (0, 1), BuildingBlock: XIVTED_clean_linker_0, # of connection points: 2
#     Edge 28, Type (0, 1), BuildingBlock: XIVTED_clean_linker_0, # of connection points: 2
#     Edge 29, Type (0, 1), BuildingBlock: XIVTED_clean_linker_0, # of connection points: 2
#     Edge 30, Type (0, 1), BuildingBlock: XIVTED_clean_linker_0, # of connection points: 2
#     Edge 31, Type (0, 1), BuildingBlock: XIVTED_clean_linker_0, # of connection points: 2
#     Edge 32, Type (0, 1), BuildingBlock: XIVTED_clean_linker_0, # of connection points: 2
#     Edge 33, Type (0, 1), BuildingBlock: XIVTED_clean_linker_0, # of connection points: 2
#     Edge 34, Type (0, 1), BuildingBlock: XIVTED_clean_linker_0, # of connection points: 2
#     Edge 35, Type (0, 1), BuildingBlock: XIVTED_clean_linker_0, # of connection points: 2
#     Edge 36, Type (0, 1), BuildingBlock: XIVTED_clean_linker_0, # of connection points: 2
#     Edge 37, Type (0, 1), BuildingBlock: XIVTED_clean_linker_0, # of connection points: 2
#     Edge 38, Type (0, 1), BuildingBlock: XIVTED_clean_linker_0, # of connection points: 2
#     Edge 39, Type (0, 1), BuildingBlock: XIVTED_clean_linker_0, # of connection points: 2
#     Edge 40, Type (0, 1), BuildingBlock: XIVTED_clean_linker_0, # of connection points: 2
#     Edge 41, Type (0, 1), BuildingBlock: XIVTED_clean_linker_0, # of connection points: 2
#     Edge 42, Type (0, 1), BuildingBlock: XIVTED_clean_linker_0, # of connection points: 2
#     Edge 43, Type (0, 1), BuildingBlock: XIVTED_clean_linker_0, # of connection points: 2
#     Edge 44, Type (0, 1), BuildingBlock: XIVTED_clean_linker_0, # of connection points: 2
#     Edge 45, Type (0, 1), BuildingBlock: XIVTED_clean_linker_0, # of connection points: 2
#     Edge 46, Type (0, 1), BuildingBlock: XIVTED_clean_linker_0, # of connection points: 2
#     Edge 47, Type (0, 1), BuildingBlock: XIVTED_clean_linker_0, # of connection points: 2
#     Edge 48, Type (0, 1), BuildingBlock: XIVTED_clean_linker_0, # of connection points: 2
#     Edge 49, Type (0, 1), BuildingBlock: XIVTED_clean_linker_0, # of connection points: 2
#     Edge 50, Type (0, 1), BuildingBlock: XIVTED_clean_linker_0, # of connection points: 2
#     Edge 51, Type (0, 1), BuildingBlock: XIVTED_clean_linker_0, # of connection points: 2
#     Edge 52, Type (0, 1), BuildingBlock: XIVTED_clean_linker_0, # of connection points: 2
#     Edge 53, Type (0, 1), BuildingBlock: XIVTED_clean_linker_0, # of connection points: 2
#     Edge 54, Type (0, 1), BuildingBlock: XIVTED_clean_linker_0, # of connection points: 2
#     Edge 55, Type (0, 1), BuildingBlock: XIVTED_clean_linker_0, # of connection points: 2
#     Edge 56, Type (0, 1), BuildingBlock: XIVTED_clean_linker_0, # of connection points: 2
#     Edge 57, Type (0, 1), BuildingBlock: XIVTED_clean_linker_0, # of connection points: 2
#     Edge 58, Type (0, 1), BuildingBlock: XIVTED_clean_linker_0, # of connection points: 2
#     Edge 59, Type (0, 1), BuildingBlock: XIVTED_clean_linker_0, # of connection points: 2
#     Edge 60, Type (0, 1), BuildingBlock: XIVTED_clean_linker_0, # of connection points: 2
#     Edge 61, Type (0, 1), BuildingBlock: XIVTED_clean_linker_0, # of connection points: 2
# Relax obj value: 0.131
# Max RMSD: 0.182
# Mean RMSD: 0.157
data_MOF--net-ocu--node1-KUMBUR_clean_sbu_1--node2-AJUNOK_clean_sbu_0--edge1-XIVTED_clean_linker_0
_symmetry_space_group_name_H-M    P1
_symmetry_Int_Tables_number       1
_symmetry_cell_setting            triclinic
loop_
_symmetry_equiv_pos_as_xyz
'x, y, z'
_cell_length_a     44.253288
_cell_length_b     44.921055
_cell_length_c     39.490418
_cell_angle_alpha  104.94872
_cell_angle_beta   87.506396
_cell_angle_gamma 112.06872
loop_
_atom_site_label
_atom_site_type_symbol
_atom_site_fract_x
_atom_site_fract_y
_atom_site_fract_z
_atom_type_partial_charge
Tb0 Tb 0.22633 0.23045 0.20362 0.0
C1 C 0.32413 0.32425 0.33906 0.0
N2 N 0.32883 0.31048 0.3052 0.0
C3 C 0.37441 0.36106 0.30463 0.0
C4 C 0.34417 0.35726 0.35668 0.0
C5 C 0.35455 0.32804 0.28853 0.0
C6 C 0.36904 0.37586 0.33874 0.0
C7 C 0.29565 0.3177 0.39238 0.0
C8 C 0.3 0.30473 0.35681 0.0
C9 C 0.31537 0.35062 0.40974 0.0
C10 C 0.33943 0.37036 0.39192 0.0
Tb11 Tb 0.29613 0.25509 0.28459 0.0
N12 N 0.28105 0.27295 0.33932 0.0
C13 C 0.27191 0.29698 0.40961 0.0
C14 C 0.25846 0.25242 0.35617 0.0
C15 C 0.25337 0.26417 0.39148 0.0
H16 H 0.36111 0.31649 0.26351 0.0
H17 H 0.23546 0.24781 0.40483 0.0
H18 H 0.16117 0.16969 0.22623 0.0
H19 H 0.28483 0.23603 0.08247 0.0
H20 H 0.24511 0.22677 0.3427 0.0
H21 H 0.26799 0.30592 0.43701 0.0
H22 H 0.27612 0.25774 0.14477 0.0
H23 H 0.39448 0.37476 0.29105 0.0
H24 H 0.31236 0.36098 0.43707 0.0
H25 H 0.35462 0.39558 0.40582 0.0
H26 H 0.12789 0.1113 0.19977 0.0
H27 H 0.38487 0.40124 0.35136 0.0
H28 H 0.25246 0.17752 0.05143 0.0
N29 N 0.19403 0.17468 0.18475 0.0
C30 C 0.19872 0.16024 0.15105 0.0
C31 C 0.14808 0.12457 0.18602 0.0
C32 C 0.17819 0.1273 0.13379 0.0
C33 C 0.16802 0.15768 0.20158 0.0
C34 C 0.15328 0.10922 0.15208 0.0
N35 N 0.24176 0.21128 0.14959 0.0
C36 C 0.26314 0.23187 0.13181 0.0
C37 C 0.22616 0.16612 0.09695 0.0
C38 C 0.22267 0.17933 0.1327 0.0
C39 C 0.24921 0.1867 0.07898 0.0
C40 C 0.26764 0.21974 0.09644 0.0
H41 H 0.13715 0.08388 0.13976 0.0
H42 H 0.16656 0.08876 0.08476 0.0
H43 H 0.20825 0.12275 0.05251 0.0
O44 O 0.21968 0.2655 0.17928 0.0
O45 O 0.26435 0.20864 0.1907 0.0
O46 O 0.30225 0.22029 0.23685 0.0
O47 O 0.18147 0.21846 0.17898 0.0
O48 O 0.26716 0.2782 0.22048 0.0
O49 O 0.31265 0.27194 0.23775 0.0
O50 O 0.30415 0.22496 0.31514 0.0
O51 O 0.26138 0.28168 0.295 0.0
O52 O 0.21574 0.25845 0.25435 0.0
O53 O 0.34389 0.26335 0.29787 0.0
O54 O 0.25468 0.20751 0.26842 0.0
O55 O 0.20935 0.21382 0.25052 0.0
C56 C 0.28935 0.20538 0.20443 0.0
C57 C 0.16342 0.25592 0.16166 0.0
C58 C 0.14106 0.28344 0.12918 0.0
C59 C 0.1095 0.26471 0.13703 0.0
C60 C 0.1314 0.23811 0.16971 0.0
C61 C 0.10477 0.24241 0.15732 0.0
C62 C 0.16821 0.27913 0.14162 0.0
C63 C 0.29806 0.2827 0.21813 0.0
C64 C 0.19 0.24507 0.16797 0.0
C65 C 0.18222 0.11389 0.0984 0.0
C66 C 0.20597 0.13327 0.08001 0.0
C67 C 0.23242 0.27946 0.28383 0.0
C68 C 0.3615 0.235 0.33224 0.0
C69 C 0.38105 0.20471 0.36377 0.0
C70 C 0.41322 0.22662 0.36225 0.0
C71 C 0.39415 0.25652 0.33139 0.0
C72 C 0.35492 0.2087 0.3485 0.0
C73 C 0.41968 0.25225 0.34614 0.0
C74 C 0.22374 0.20307 0.2704 0.0
C75 C 0.33567 0.24069 0.31507 0.0
H76 H 0.0884 0.26776 0.12781 0.0
H77 H 0.12662 0.21978 0.18455 0.0
H78 H 0.08029 0.22814 0.16322 0.0
H79 H 0.19255 0.29278 0.13471 0.0
H80 H 0.43357 0.22348 0.37312 0.0
H81 H 0.40021 0.27682 0.31909 0.0
H82 H 0.33007 0.19145 0.34893 0.0
H83 H 0.44464 0.26882 0.34493 0.0
Tb84 Tb 0.7341 0.2725 0.25232 0.0
C85 C 0.82594 0.20259 0.16803 0.0
N86 N 0.79593 0.18966 0.18042 0.0
C87 C 0.77695 0.14804 0.12587 0.0
C88 C 0.83249 0.18873 0.13363 0.0
C89 C 0.77172 0.16236 0.16033 0.0
C90 C 0.80744 0.16132 0.11241 0.0
C91 C 0.88141 0.24419 0.17781 0.0
C92 C 0.85006 0.23033 0.18981 0.0
C93 C 0.88813 0.2301 0.14363 0.0
C94 C 0.86373 0.20263 0.12159 0.0
Tb95 Tb 0.79143 0.2155 0.23675 0.0
N96 N 0.84241 0.2441 0.22237 0.0
C97 C 0.905 0.2718 0.20051 0.0
C98 C 0.86522 0.27085 0.24472 0.0
C99 C 0.8969 0.2851 0.23412 0.0
H100 H 0.74864 0.15108 0.1711 0.0
H101 H 0.91506 0.30626 0.25189 0.0
H102 H 0.77449 0.33707 0.31851 0.0
H103 H 0.60881 0.18491 0.2333 0.0
H104 H 0.85927 0.28088 0.27086 0.0
H105 H 0.9295 0.28301 0.19237 0.0
H106 H 0.66497 0.21139 0.21554 0.0
H107 H 0.75765 0.12653 0.10989 0.0
H108 H 0.9121 0.24039 0.13391 0.0
H109 H 0.86931 0.19226 0.09525 0.0
H110 H 0.76522 0.36067 0.37983 0.0
H111 H 0.81148 0.15002 0.08575 0.0
H112 H 0.59399 0.20551 0.29358 0.0
N113 N 0.72816 0.29727 0.30897 0.0
C114 C 0.69792 0.28449 0.32091 0.0
C115 C 0.74624 0.33891 0.36375 0.0
C116 C 0.69097 0.29784 0.35532 0.0
C117 C 0.75182 0.32493 0.32931 0.0
C118 C 0.71577 0.3251 0.37697 0.0
N119 N 0.68185 0.24526 0.26569 0.0
C120 C 0.65877 0.22006 0.24199 0.0
C121 C 0.64209 0.24393 0.30957 0.0
C122 C 0.67372 0.25805 0.29832 0.0
C123 C 0.61861 0.21708 0.28594 0.0
C124 C 0.62693 0.20526 0.25192 0.0
H125 H 0.71142 0.33612 0.40361 0.0
H126 H 0.65365 0.29363 0.3932 0.0
H127 H 0.61098 0.24642 0.35328 0.0
O128 O 0.71145 0.28123 0.21116 0.0
O129 O 0.71721 0.23115 0.27696 0.0
O130 O 0.75423 0.20493 0.27434 0.0
O131 O 0.73238 0.31921 0.26017 0.0
O132 O 0.72772 0.2365 0.20202 0.0
O133 O 0.74063 0.1976 0.21925 0.0
O134 O 0.82365 0.20677 0.2671 0.0
O135 O 0.79556 0.2466 0.2005 0.0
O136 O 0.78404 0.28958 0.23571 0.0
O137 O 0.78493 0.16566 0.23123 0.0
O138 O 0.80066 0.25246 0.28679 0.0
O139 O 0.78404 0.29089 0.27375 0.0
C140 C 0.72823 0.2108 0.28604 0.0
C141 C 0.70771 0.33595 0.21953 0.0
C142 C 0.68412 0.3532 0.17737 0.0
C143 C 0.69038 0.38403 0.2019 0.0
C144 C 0.71431 0.3672 0.24345 0.0
C145 C 0.70544 0.39095 0.23471 0.0
C146 C 0.69228 0.32882 0.18641 0.0
C147 C 0.72914 0.20702 0.19567 0.0
C148 C 0.71694 0.31142 0.23008 0.0
C149 C 0.65947 0.28379 0.3668 0.0
C150 C 0.63512 0.25693 0.34401 0.0
C151 C 0.79479 0.27639 0.20647 0.0
C152 C 0.81842 0.15064 0.26546 0.0
C153 C 0.83862 0.13379 0.3107 0.0
C154 C 0.8302 0.10173 0.28796 0.0
C155 C 0.80975 0.1184 0.24333 0.0
C156 C 0.83332 0.15851 0.29908 0.0
C157 C 0.81596 0.09418 0.25448 0.0
C158 C 0.79635 0.28063 0.29601 0.0
C159 C 0.80847 0.17467 0.25491 0.0
H160 H 0.68398 0.40301 0.1954 0.0
H161 H 0.7262 0.37334 0.26913 0.0
H162 H 0.71047 0.41487 0.25332 0.0
H163 H 0.68748 0.30501 0.16754 0.0
H164 H 0.83451 0.08239 0.29622 0.0
H165 H 0.79788 0.11182 0.21755 0.0
H166 H 0.83923 0.18311 0.31671 0.0
H167 H 0.80931 0.06934 0.23732 0.0
Tb168 Tb 0.7512 0.7123 0.27939 0.0
C169 C 0.83376 0.79929 0.16814 0.0
N170 N 0.82043 0.80933 0.19869 0.0
C171 C 0.86602 0.86173 0.21244 0.0
C172 C 0.8644 0.81975 0.1593 0.0
C173 C 0.83484 0.84109 0.21928 0.0
C174 C 0.88122 0.85067 0.18277 0.0
C175 C 0.82476 0.7623 0.10921 0.0
C176 C 0.81462 0.77044 0.14349 0.0
C177 C 0.85612 0.78143 0.10116 0.0
C178 C 0.87608 0.80985 0.1263 0.0
Tb179 Tb 0.77044 0.77153 0.20661 0.0
N180 N 0.78416 0.75293 0.15178 0.0
C181 C 0.80223 0.73666 0.08351 0.0
C182 C 0.7615 0.72948 0.12655 0.0
C183 C 0.77021 0.72072 0.09207 0.0
H184 H 0.82287 0.85022 0.24171 0.0
H185 H 0.75215 0.70214 0.07206 0.0
H186 H 0.69165 0.6395 0.23852 0.0
H187 H 0.76663 0.7913 0.41198 0.0
H188 H 0.73643 0.71882 0.13281 0.0
H189 H 0.80886 0.73009 0.05667 0.0
H190 H 0.7805 0.7772 0.35038 0.0
H191 H 0.8781 0.88631 0.22979 0.0
H192 H 0.86462 0.77529 0.07511 0.0
H193 H 0.89967 0.82509 0.11918 0.0
H194 H 0.63695 0.60409 0.25229 0.0
H195 H 0.90496 0.86699 0.17714 0.0
H196 H 0.71448 0.75586 0.43081 0.0
N197 N 0.7003 0.67614 0.28751 0.0
C198 C 0.68968 0.68434 0.32022 0.0
C199 C 0.65144 0.62665 0.27153 0.0
C200 C 0.65903 0.66414 0.32949 0.0
C201 C 0.68232 0.64687 0.26377 0.0
C202 C 0.63961 0.63548 0.3044 0.0
N203 N 0.7389 0.73238 0.33529 0.0
C204 C 0.75895 0.76051 0.35881 0.0
C205 C 0.7 0.72084 0.37953 0.0
C206 C 0.70984 0.71272 0.34497 0.0
C207 C 0.72106 0.74901 0.40398 0.0
C208 C 0.75058 0.76901 0.39351 0.0
H209 H 0.61583 0.61957 0.31045 0.0
H210 H 0.62552 0.65756 0.37112 0.0
H211 H 0.6615 0.70678 0.41495 0.0
O212 O 0.78358 0.7101 0.31723 0.0
O213 O 0.73536 0.75497 0.29437 0.0
O214 O 0.74822 0.78955 0.2552 0.0
O215 O 0.75083 0.66599 0.27905 0.0
O216 O 0.7976 0.74776 0.26856 0.0
O217 O 0.7991 0.79547 0.25673 0.0
O218 O 0.72464 0.77572 0.19821 0.0
O219 O 0.79309 0.73319 0.1964 0.0
O220 O 0.77162 0.69341 0.22939 0.0
O221 O 0.76603 0.79521 0.16944 0.0
O222 O 0.74119 0.72006 0.19955 0.0
O223 O 0.71086 0.70168 0.2424 0.0
C224 C 0.73469 0.7805 0.28369 0.0
C225 C 0.78245 0.65411 0.31849 0.0
C226 C 0.81848 0.63947 0.3514 0.0
C227 C 0.79791 0.60585 0.33936 0.0
C228 C 0.76247 0.62007 0.3074 0.0
C229 C 0.77023 0.59629 0.3176 0.0
C230 C 0.81085 0.66392 0.34078 0.0
C231 C 0.80753 0.78016 0.27694 0.0
C232 C 0.77282 0.6777 0.30506 0.0
C233 C 0.64897 0.67275 0.36362 0.0
C234 C 0.66949 0.70078 0.38861 0.0
C235 C 0.79065 0.70543 0.20492 0.0
C236 C 0.72985 0.82194 0.17365 0.0
C237 C 0.70299 0.84909 0.1451 0.0
C238 C 0.73021 0.87912 0.15699 0.0
C239 C 0.75494 0.85312 0.18734 0.0
C240 C 0.70347 0.82 0.15265 0.0
C241 C 0.75545 0.8812 0.17833 0.0
C242 C 0.71282 0.70791 0.21164 0.0
C243 C 0.73597 0.79172 0.17419 0.0
H244 H 0.80347 0.58674 0.34672 0.0
H245 H 0.7406 0.61153 0.2905 0.0
H246 H 0.75467 0.57022 0.30852 0.0
H247 H 0.82679 0.68991 0.34947 0.0
H248 H 0.73183 0.90154 0.15021 0.0
H249 H 0.77548 0.85536 0.20314 0.0
H250 H 0.68394 0.79617 0.14197 0.0
H251 H 0.77577 0.9047 0.18762 0.0
Tb252 Tb 0.22943 0.76994 0.24199 0.0
C253 C 0.30231 0.6871 0.30195 0.0
N254 N 0.31667 0.71752 0.29542 0.0
C255 C 0.3566 0.73406 0.34322 0.0
C256 C 0.3131 0.67981 0.33088 0.0
C257 C 0.34423 0.7406 0.31507 0.0
C258 C 0.34051 0.70384 0.35168 0.0
C259 C 0.26173 0.63072 0.28466 0.0
C260 C 0.27741 0.66269 0.2788 0.0
C261 C 0.2709 0.62415 0.31469 0.0
C262 C 0.29669 0.64856 0.33763 0.0
Tb263 Tb 0.29276 0.72566 0.24931 0.0
N264 N 0.26859 0.67029 0.25053 0.0
C265 C 0.23746 0.6063 0.26009 0.0
C266 C 0.24735 0.64526 0.22477 0.0
C267 C 0.23082 0.61341 0.22959 0.0
H268 H 0.35641 0.76453 0.30949 0.0
H269 H 0.2134 0.59419 0.20941 0.0
H270 H 0.1803 0.72065 0.17193 0.0
H271 H 0.32415 0.89432 0.26587 0.0
H272 H 0.24351 0.64878 0.19975 0.0
H273 H 0.22472 0.58158 0.26371 0.0
H274 H 0.29684 0.83933 0.27684 0.0
H275 H 0.3782 0.7526 0.35875 0.0
H276 H 0.25878 0.6 0.31992 0.0
H277 H 0.30418 0.6428 0.36012 0.0
H278 H 0.16053 0.72801 0.11833 0.0
H279 H 0.34981 0.69908 0.37384 0.0
H280 H 0.30572 0.9068 0.2148 0.0
N281 N 0.21563 0.77008 0.18735 0.0
C282 C 0.22863 0.80048 0.18053 0.0
C283 C 0.17995 0.74845 0.13537 0.0
C284 C 0.21779 0.80591 0.15044 0.0
C285 C 0.19161 0.74416 0.16542 0.0
C286 C 0.19297 0.77948 0.12792 0.0
N287 N 0.26245 0.82041 0.23317 0.0
C288 C 0.28811 0.8442 0.25484 0.0
C289 C 0.26798 0.85763 0.19661 0.0
C290 C 0.25306 0.82628 0.20385 0.0
C291 C 0.29357 0.88243 0.21949 0.0
C292 C 0.30398 0.8755 0.2484 0.0
H293 H 0.18368 0.78278 0.10478 0.0
H294 H 0.22357 0.84227 0.12121 0.0
H295 H 0.2678 0.88725 0.16116 0.0
O296 O 0.20744 0.80434 0.25995 0.0
O297 O 0.2628 0.76439 0.20087 0.0
O298 O 0.30385 0.77357 0.23835 0.0
O299 O 0.17813 0.7525 0.23753 0.0
O300 O 0.25737 0.79046 0.29315 0.0
O301 O 0.30245 0.77579 0.28208 0.0
O302 O 0.30925 0.71206 0.20016 0.0
O303 O 0.25137 0.71155 0.28165 0.0
O304 O 0.21651 0.73998 0.28074 0.0
O305 O 0.34254 0.73458 0.24649 0.0
O306 O 0.25809 0.7051 0.20311 0.0
O307 O 0.21345 0.71662 0.22483 0.0
C308 C 0.29408 0.77392 0.20777 0.0
C309 C 0.16032 0.78032 0.28719 0.0
C310 C 0.16288 0.80292 0.3497 0.0
C311 C 0.12853 0.79184 0.34857 0.0
C312 C 0.12623 0.76947 0.28564 0.0
C313 C 0.11025 0.77428 0.31666 0.0
C314 C 0.17803 0.79377 0.31961 0.0
C315 C 0.28417 0.78824 0.3039 0.0
C316 C 0.17827 0.78109 0.25557 0.0
C317 C 0.23179 0.83752 0.144 0.0
C318 C 0.25695 0.86319 0.16684 0.0
C319 C 0.22554 0.71877 0.29158 0.0
C320 C 0.35422 0.69693 0.20042 0.0
C321 C 0.36431 0.66097 0.14916 0.0
C322 C 0.39212 0.66242 0.16639 0.0
C323 C 0.38178 0.69856 0.21838 0.0
C324 C 0.34469 0.67667 0.1666 0.0
C325 C 0.40036 0.68062 0.20142 0.0
C326 C 0.2267 0.69939 0.20191 0.0
C327 C 0.33887 0.72056 0.21312 0.0
H328 H 0.1161 0.79923 0.37154 0.0
H329 H 0.11228 0.75844 0.26061 0.0
H330 H 0.08394 0.76663 0.31564 0.0
H331 H 0.20448 0.80237 0.32091 0.0
H332 H 0.40784 0.65044 0.15243 0.0
H333 H 0.38971 0.71461 0.24464 0.0
H334 H 0.32405 0.67606 0.1521 0.0
H335 H 0.42199 0.68223 0.21475 0.0
Tb336 Tb 0.23374 0.77307 0.75589 0.0
C337 C 0.32733 0.69836 0.66981 0.0
N338 N 0.29751 0.68464 0.682 0.0
C339 C 0.28252 0.63913 0.62991 0.0
C340 C 0.33517 0.68422 0.6361 0.0
C341 C 0.27597 0.65422 0.66352 0.0
C342 C 0.3119 0.65469 0.61571 0.0
C343 C 0.38248 0.74001 0.68117 0.0
C344 C 0.3506 0.72578 0.69194 0.0
C345 C 0.38992 0.72719 0.6469 0.0
C346 C 0.36626 0.69943 0.62436 0.0
Tb347 Tb 0.28814 0.71371 0.73558 0.0
N348 N 0.34172 0.73884 0.72398 0.0
C349 C 0.40552 0.7672 0.7049 0.0
C350 C 0.36459 0.76402 0.74797 0.0
C351 C 0.39663 0.77894 0.73863 0.0
H352 H 0.25313 0.64193 0.67432 0.0
H353 H 0.41442 0.79944 0.75744 0.0
H354 H 0.27536 0.83793 0.82175 0.0
H355 H 0.11118 0.6795 0.7425 0.0
H356 H 0.35813 0.77273 0.77417 0.0
H357 H 0.43021 0.77902 0.69759 0.0
H358 H 0.16699 0.70445 0.72426 0.0
H359 H 0.26483 0.61565 0.61495 0.0
H360 H 0.41398 0.73828 0.63773 0.0
H361 H 0.37255 0.68933 0.59827 0.0
H362 H 0.26597 0.8629 0.88242 0.0
H363 H 0.31689 0.64305 0.58962 0.0
H364 H 0.09565 0.70429 0.80076 0.0
N365 N 0.22872 0.79847 0.81248 0.0
C366 C 0.19876 0.78544 0.82489 0.0
C367 C 0.24696 0.84094 0.86666 0.0
C368 C 0.19177 0.79978 0.85895 0.0
C369 C 0.25252 0.82624 0.83247 0.0
C370 C 0.21647 0.82763 0.88001 0.0
N371 N 0.18292 0.74373 0.77105 0.0
C372 C 0.16059 0.71583 0.74945 0.0
C373 C 0.14346 0.74367 0.81514 0.0
C374 C 0.17495 0.75754 0.80332 0.0
C375 C 0.1202 0.71553 0.79275 0.0
C376 C 0.12888 0.70145 0.75985 0.0
H377 H 0.21209 0.83931 0.90638 0.0
H378 H 0.15448 0.79686 0.89677 0.0
H379 H 0.11218 0.74803 0.85837 0.0
O380 O 0.20106 0.78023 0.72462 0.0
O381 O 0.23044 0.73994 0.78906 0.0
O382 O 0.237 0.69651 0.74876 0.0
O383 O 0.23829 0.82229 0.76097 0.0
O384 O 0.22138 0.73553 0.70662 0.0
O385 O 0.2462 0.69656 0.698 0.0
O386 O 0.31103 0.70772 0.7788 0.0
O387 O 0.30789 0.75651 0.71342 0.0
O388 O 0.27023 0.78211 0.71721 0.0
O389 O 0.28509 0.66632 0.73447 0.0
O390 O 0.29187 0.75152 0.78464 0.0
O391 O 0.28491 0.79616 0.77336 0.0
C392 C 0.22685 0.70857 0.77888 0.0
C393 C 0.20471 0.83557 0.72492 0.0
C394 C 0.18119 0.84846 0.67881 0.0
C395 C 0.19443 0.88233 0.69686 0.0
C396 C 0.21761 0.86949 0.74276 0.0
C397 C 0.21232 0.89271 0.72879 0.0
C398 C 0.18599 0.82498 0.69306 0.0
C399 C 0.22649 0.70924 0.68819 0.0
C400 C 0.21541 0.81243 0.73633 0.0
C401 C 0.16038 0.78606 0.87075 0.0
C402 C 0.13626 0.75824 0.84886 0.0
C403 C 0.29654 0.77707 0.70516 0.0
C404 C 0.30983 0.65197 0.77712 0.0
C405 C 0.33806 0.63849 0.81865 0.0
C406 C 0.32565 0.605 0.79931 0.0
C407 C 0.29759 0.61827 0.75802 0.0
C408 C 0.33027 0.6621 0.80756 0.0
C409 C 0.30552 0.59499 0.76909 0.0
C410 C 0.3014 0.78366 0.78836 0.0
C411 C 0.30265 0.67615 0.76342 0.0
H412 H 0.19096 0.90078 0.6861 0.0
H413 H 0.23257 0.87822 0.76699 0.0
H414 H 0.2226 0.91887 0.74243 0.0
H415 H 0.17669 0.79899 0.6785 0.0
H416 H 0.33157 0.58659 0.8077 0.0
H417 H 0.28207 0.60983 0.73424 0.0
H418 H 0.34008 0.688 0.82242 0.0
H419 H 0.29609 0.56916 0.7542 0.0
Tb420 Tb 0.25523 0.21436 0.78067 0.0
C421 C 0.33154 0.29448 0.66849 0.0
N422 N 0.32149 0.30407 0.70133 0.0
C423 C 0.37214 0.35182 0.71593 0.0
C424 C 0.36251 0.31331 0.65854 0.0
C425 C 0.34078 0.33344 0.72422 0.0
C426 C 0.38318 0.34159 0.6831 0.0
C427 C 0.31837 0.25902 0.60853 0.0
C428 C 0.30977 0.2672 0.64356 0.0
C429 C 0.34936 0.2775 0.59904 0.0
C430 C 0.3714 0.30433 0.62396 0.0
Tb431 Tb 0.26793 0.27245 0.70755 0.0
N432 N 0.27971 0.24953 0.65321 0.0
C433 C 0.29521 0.23302 0.58378 0.0
C434 C 0.25653 0.22532 0.62886 0.0
C435 C 0.26411 0.21624 0.59396 0.0
H436 H 0.33207 0.344 0.74849 0.0
H437 H 0.2458 0.19678 0.57481 0.0
H438 H 0.19097 0.14332 0.74012 0.0
H439 H 0.27797 0.289 0.91429 0.0
H440 H 0.2321 0.21358 0.63628 0.0
H441 H 0.30088 0.22617 0.5566 0.0
H442 H 0.2917 0.27185 0.85291 0.0
H443 H 0.38733 0.3746 0.73445 0.0
H444 H 0.35638 0.27152 0.57226 0.0
H445 H 0.39499 0.31862 0.61594 0.0
H446 H 0.1358 0.11244 0.75427 0.0
H447 H 0.40714 0.35651 0.67643 0.0
H448 H 0.22265 0.26027 0.93241 0.0
N449 N 0.20181 0.18272 0.78771 0.0
C450 C 0.19197 0.19189 0.82068 0.0
C451 C 0.15107 0.13507 0.77292 0.0
C452 C 0.16089 0.1732 0.83054 0.0
C453 C 0.18237 0.15359 0.76461 0.0
C454 C 0.14011 0.14509 0.80588 0.0
N455 N 0.24414 0.23586 0.83605 0.0
C456 C 0.26727 0.26017 0.86031 0.0
C457 C 0.20517 0.22726 0.88056 0.0
C458 C 0.21388 0.2188 0.84563 0.0
C459 C 0.22839 0.25317 0.90529 0.0
C460 C 0.25964 0.26952 0.89518 0.0
H461 H 0.11612 0.1302 0.8125 0.0
H462 H 0.12826 0.16812 0.87304 0.0
H463 H 0.16694 0.2152 0.91672 0.0
O464 O 0.29202 0.21203 0.81324 0.0
O465 O 0.23639 0.25558 0.79621 0.0
O466 O 0.24324 0.28771 0.7551 0.0
O467 O 0.2496 0.16868 0.78734 0.0
O468 O 0.29918 0.25233 0.7693 0.0
O469 O 0.29291 0.29715 0.75901 0.0
O470 O 0.22897 0.27311 0.67785 0.0
O471 O 0.28599 0.23062 0.6916 0.0
O472 O 0.28117 0.2011 0.7342 0.0
O473 O 0.2753 0.31403 0.68957 0.0
O474 O 0.22318 0.23527 0.71863 0.0
O475 O 0.2297 0.19079 0.72964 0.0
C476 C 0.23251 0.27954 0.78486 0.0
C477 C 0.28462 0.15619 0.82125 0.0
C478 C 0.32015 0.14106 0.85359 0.0
C479 C 0.29818 0.1078 0.84372 0.0
C480 C 0.26314 0.12251 0.81197 0.0
C481 C 0.26995 0.09863 0.82303 0.0
C482 C 0.31351 0.16551 0.84221 0.0
C483 C 0.30444 0.28392 0.77866 0.0
C484 C 0.27595 0.17996 0.80755 0.0
C485 C 0.15196 0.18224 0.86509 0.0
C486 C 0.17403 0.20906 0.89 0.0
C487 C 0.29089 0.20769 0.70379 0.0
C488 C 0.23174 0.32739 0.67537 0.0
C489 C 0.19995 0.34866 0.64567 0.0
C490 C 0.21482 0.38013 0.66927 0.0
C491 C 0.24567 0.3591 0.69899 0.0
C492 C 0.20834 0.3221 0.64887 0.0
C493 C 0.23733 0.38521 0.69578 0.0
C494 C 0.21746 0.20362 0.71029 0.0
C495 C 0.2465 0.30254 0.67396 0.0
H496 H 0.30322 0.08868 0.85167 0.0
H497 H 0.24088 0.11428 0.79582 0.0
H498 H 0.25331 0.07285 0.81537 0.0
H499 H 0.33066 0.19112 0.84919 0.0
H500 H 0.20908 0.40099 0.66701 0.0
H501 H 0.26402 0.36416 0.71923 0.0
H502 H 0.19817 0.29814 0.62979 0.0
H503 H 0.24879 0.40966 0.71358 0.0
Tb504 Tb 0.73124 0.2622 0.74131 0.0
C505 C 0.79056 0.1849 0.81143 0.0
N506 N 0.80475 0.21529 0.80472 0.0
C507 C 0.84049 0.2355 0.85645 0.0
C508 C 0.80095 0.17874 0.84127 0.0
C509 C 0.82929 0.24054 0.82663 0.0
C510 C 0.82638 0.20444 0.86372 0.0
C511 C 0.7515 0.12763 0.79367 0.0
C512 C 0.76648 0.15938 0.78738 0.0
C513 C 0.76144 0.12166 0.82375 0.0
C514 C 0.78634 0.14697 0.84719 0.0
Tb515 Tb 0.79253 0.21598 0.74993 0.0
N516 N 0.75934 0.16512 0.75693 0.0
C517 C 0.72807 0.10235 0.76872 0.0
C518 C 0.73889 0.13962 0.73127 0.0
C519 C 0.72186 0.10836 0.73729 0.0
H520 H 0.84145 0.26399 0.82016 0.0
H521 H 0.70523 0.08844 0.71695 0.0
H522 H 0.67924 0.21402 0.67288 0.0
H523 H 0.80971 0.39394 0.77462 0.0
H524 H 0.73723 0.14241 0.70541 0.0
H525 H 0.71582 0.07772 0.77272 0.0
H526 H 0.78242 0.33984 0.78667 0.0
H527 H 0.86042 0.25534 0.8734 0.0
H528 H 0.75057 0.09728 0.8287 0.0
H529 H 0.79421 0.14167 0.8698 0.0
H530 H 0.65923 0.22062 0.61881 0.0
H531 H 0.83544 0.2005 0.88658 0.0
H532 H 0.796 0.40351 0.71941 0.0
N533 N 0.71239 0.26436 0.68935 0.0
C534 C 0.72432 0.29485 0.68265 0.0
C535 C 0.67777 0.2416 0.63636 0.0
C536 C 0.7138 0.29967 0.65196 0.0
C537 C 0.68948 0.2378 0.66671 0.0
C538 C 0.69001 0.27263 0.62891 0.0
N539 N 0.75587 0.31621 0.73676 0.0
C540 C 0.77719 0.34231 0.76152 0.0
C541 C 0.76105 0.35303 0.69974 0.0
C542 C 0.74708 0.32146 0.70677 0.0
C543 C 0.78447 0.37905 0.72404 0.0
C544 C 0.79237 0.3737 0.75515 0.0
H545 H 0.68097 0.27544 0.60532 0.0
H546 H 0.71953 0.33536 0.62181 0.0
H547 H 0.76143 0.38176 0.66314 0.0
O548 O 0.70848 0.2713 0.78707 0.0
O549 O 0.77283 0.27513 0.70969 0.0
O550 O 0.80888 0.24897 0.71471 0.0
O551 O 0.68312 0.26003 0.73685 0.0
O552 O 0.76506 0.28413 0.78821 0.0
O553 O 0.80916 0.26948 0.76924 0.0
O554 O 0.81179 0.17959 0.73086 0.0
O555 O 0.75885 0.2219 0.79121 0.0
O556 O 0.71844 0.21463 0.75378 0.0
O557 O 0.84356 0.23029 0.75442 0.0
O558 O 0.76586 0.19765 0.6979 0.0
O559 O 0.72261 0.21137 0.71548 0.0
C560 C 0.79934 0.26889 0.70227 0.0
C561 C 0.66712 0.29143 0.78626 0.0
C562 C 0.6593 0.32453 0.84126 0.0
C563 C 0.62831 0.32008 0.8286 0.0
C564 C 0.6364 0.287 0.77294 0.0
C565 C 0.61733 0.30215 0.79396 0.0
C566 C 0.67944 0.31243 0.81942 0.0
C567 C 0.79588 0.28769 0.79114 0.0
C568 C 0.68191 0.26783 0.77069 0.0
C569 C 0.72725 0.33122 0.64528 0.0
C570 C 0.75108 0.35768 0.66886 0.0
C571 C 0.72776 0.21381 0.78437 0.0
C572 C 0.86142 0.20003 0.70644 0.0
C573 C 0.86355 0.18133 0.64367 0.0
C574 C 0.8974 0.18955 0.6482 0.0
C575 C 0.89502 0.20833 0.71098 0.0
C576 C 0.84603 0.18796 0.67271 0.0
C577 C 0.91309 0.20347 0.68173 0.0
C578 C 0.73828 0.19981 0.69006 0.0
C579 C 0.84176 0.20096 0.73673 0.0
H580 H 0.61248 0.32974 0.84572 0.0
H581 H 0.62644 0.27037 0.74736 0.0
H582 H 0.59331 0.2983 0.78419 0.0
H583 H 0.70304 0.31594 0.83025 0.0
H584 H 0.91135 0.18345 0.62612 0.0
H585 H 0.907 0.21764 0.73705 0.0
H586 H 0.81986 0.18094 0.6691 0.0
H587 H 0.93896 0.20911 0.68514 0.0
Tb588 Tb 0.72636 0.72998 0.7016 0.0
C589 C 0.82368 0.82311 0.83948 0.0
N590 N 0.82877 0.80937 0.80575 0.0
C591 C 0.87495 0.85977 0.80604 0.0
C592 C 0.84352 0.85615 0.85726 0.0
C593 C 0.8552 0.82676 0.78978 0.0
C594 C 0.86882 0.87472 0.83974 0.0
C595 C 0.79507 0.81627 0.89268 0.0
C596 C 0.79962 0.80342 0.85711 0.0
C597 C 0.81429 0.84933 0.91003 0.0
C598 C 0.83833 0.86925 0.89235 0.0
Tb599 Tb 0.79587 0.75403 0.78456 0.0
N600 N 0.78092 0.77159 0.83953 0.0
C601 C 0.77142 0.79535 0.90982 0.0
C602 C 0.75848 0.75086 0.85634 0.0
C603 C 0.75319 0.76248 0.89162 0.0
H604 H 0.8624 0.81504 0.76527 0.0
H605 H 0.73532 0.74599 0.90488 0.0
H606 H 0.66051 0.67005 0.72538 0.0
H607 H 0.78474 0.73292 0.58016 0.0
H608 H 0.7453 0.7252 0.8428 0.0
H609 H 0.76729 0.80423 0.93717 0.0
H610 H 0.77653 0.75577 0.64236 0.0
H611 H 0.89552 0.87334 0.79293 0.0
H612 H 0.81099 0.85966 0.93728 0.0
H613 H 0.85328 0.89453 0.9063 0.0
H614 H 0.62722 0.61157 0.69987 0.0
H615 H 0.88455 0.9001 0.8525 0.0
H616 H 0.75182 0.67429 0.55011 0.0
N617 N 0.69361 0.67423 0.68394 0.0
C618 C 0.69831 0.65921 0.65044 0.0
C619 C 0.64746 0.62448 0.68594 0.0
C620 C 0.67761 0.62618 0.63367 0.0
C621 C 0.66744 0.6577 0.70094 0.0
C622 C 0.65265 0.60857 0.65226 0.0
N623 N 0.74171 0.70984 0.64798 0.0
C624 C 0.76319 0.72987 0.62976 0.0
C625 C 0.72566 0.66395 0.59604 0.0
C626 C 0.72238 0.67778 0.63169 0.0
C627 C 0.74874 0.68396 0.5776 0.0
C628 C 0.76747 0.71708 0.59449 0.0
H629 H 0.63644 0.58317 0.64032 0.0
H630 H 0.66565 0.58699 0.58515 0.0
H631 H 0.70734 0.62007 0.55221 0.0
O632 O 0.72051 0.76473 0.67647 0.0
O633 O 0.76511 0.70905 0.6893 0.0
O634 O 0.80193 0.71967 0.7363 0.0
O635 O 0.68168 0.71836 0.67638 0.0
O636 O 0.76716 0.77729 0.72051 0.0
O637 O 0.8131 0.77261 0.73871 0.0
O638 O 0.80276 0.72278 0.81474 0.0
O639 O 0.75918 0.77826 0.79617 0.0
O640 O 0.71756 0.76077 0.75142 0.0
O641 O 0.84301 0.76086 0.79768 0.0
O642 O 0.75444 0.70709 0.7654 0.0
O643 O 0.70905 0.71343 0.74827 0.0
C644 C 0.78981 0.7056 0.70347 0.0
C645 C 0.6646 0.75805 0.6628 0.0
C646 C 0.64037 0.78598 0.63267 0.0
C647 C 0.61005 0.77012 0.64543 0.0
C648 C 0.63388 0.74324 0.67573 0.0
C649 C 0.60692 0.74912 0.66691 0.0
C650 C 0.66784 0.77994 0.64142 0.0
C651 C 0.79805 0.7819 0.71791 0.0
C652 C 0.69053 0.74513 0.66554 0.0
C653 C 0.68147 0.61218 0.59841 0.0
C654 C 0.70523 0.63105 0.57962 0.0
C655 C 0.73213 0.7787 0.78297 0.0
C656 C 0.86019 0.73408 0.83385 0.0
C657 C 0.88188 0.70239 0.86107 0.0
C658 C 0.91258 0.72869 0.86602 0.0
C659 C 0.89138 0.75983 0.83938 0.0
C660 C 0.85532 0.70516 0.84515 0.0
C661 C 0.91725 0.75708 0.85524 0.0
C662 C 0.7238 0.7034 0.76853 0.0
C663 C 0.83434 0.73812 0.81479 0.0
H664 H 0.58863 0.77413 0.63876 0.0
H665 H 0.63022 0.72596 0.69168 0.0
H666 H 0.58333 0.73697 0.67643 0.0
H667 H 0.69101 0.79094 0.63044 0.0
H668 H 0.93329 0.72705 0.878 0.0
H669 H 0.89602 0.78232 0.83118 0.0
H670 H 0.83169 0.68481 0.84062 0.0
H671 H 0.94111 0.77698 0.859 0.0
Cd672 Cd 0.99007 0.96584 0.54007 0.0
Cd673 Cd 0.03785 0.02705 0.45802 0.0
C674 C 0.05337 0.9553 0.55205 0.0
N675 N 0.02714 0.94175 0.5287 0.0
C676 C 0.03844 0.89282 0.50626 0.0
C677 C 0.06457 0.90567 0.53154 0.0
C678 C 0.07281 0.93778 0.55361 0.0
C679 C 0.01977 0.91163 0.50525 0.0
H680 H 0.05782 0.97843 0.57155 0.0
H681 H 0.99813 0.90133 0.4877 0.0
C682 C 0.97508 0.95854 0.44583 0.0
C683 C 0.98585 0.04477 0.43161 0.0
C684 C 0.96482 0.06014 0.42874 0.0
C685 C 0.96627 0.08832 0.45506 0.0
C686 C 0.98991 0.10145 0.48311 0.0
C687 C 0.00987 0.08432 0.4856 0.0
N688 N 1.00669 0.05622 0.46033 0.0
H689 H 0.98586 0.02398 0.41056 0.0
H690 H 0.02797 0.09342 0.50716 0.0
C691 C 0.04554 0.95716 0.43283 0.0
N692 N 0.05675 0.98793 0.45549 0.0
C693 C 0.10012 0.9791 0.47801 0.0
C694 C 0.09 0.94783 0.4538 0.0
C695 C 0.06119 0.93585 0.43265 0.0
C696 C 0.08305 -0.00096 0.47803 0.0
H697 H 0.02601 0.94966 0.4133 0.0
H698 H 0.09201 0.02438 0.49392 0.0
C699 C 0.04493 0.03329 0.54771 0.0
C700 C 0.94627 0.92883 0.58098 0.0
N701 N 0.96309 -0.00129 0.53962 0.0
C702 C 0.97163 0.02962 0.56179 0.0
C703 C 0.95447 0.04913 0.55927 0.0
C704 C 0.92815 0.03578 0.53443 0.0
C705 C 0.91975 0.00399 0.51207 0.0
C706 C 0.93706 0.98523 0.51603 0.0
C707 C 0.08406 0.05868 0.41572 0.0
O708 O 0.98176 0.96273 0.47804 0.0
O709 O 0.99181 0.98036 0.43035 0.0
O710 O 0.03163 0.02178 0.51704 0.0
O711 O 0.03329 0.01685 0.57005 0.0
O712 O 0.94158 0.92021 0.54774 0.0
O713 O 0.97182 0.95376 0.59449 0.0
O714 O 0.08988 0.06808 0.44896 0.0
O715 O 0.05743 0.03484 0.40315 0.0
H716 H 0.99082 0.0388 0.58213 0.0
H717 H 0.9293 0.95962 0.50083 0.0
H718 H 0.03156 0.86799 0.48898 0.0
H719 H 0.09235 0.94812 0.57395 0.0
H720 H 0.94791 0.0504 0.40587 0.0
H721 H 0.9922 0.1239 0.50315 0.0
H722 H 0.12277 0.98955 0.494 0.0
H723 H 0.05291 0.91175 0.41369 0.0
H724 H 0.9603 0.07331 0.57772 0.0
H725 H 0.8987 -0.00689 0.49352 0.0
Cd726 Cd 0.4697 0.97703 0.03634 0.0
Cd727 Cd 0.54811 0.00498 0.94878 0.0
C728 C 0.53135 0.96189 0.06155 0.0
N729 N 0.50754 0.94957 0.03527 0.0
C730 C 0.52518 0.90425 0.01041 0.0
C731 C 0.55039 0.9171 0.03688 0.0
C732 C 0.55327 0.94646 0.06248 0.0
C733 C 0.50401 0.92102 0.0101 0.0
H734 H 0.53294 0.98326 0.08265 0.0
H735 H 0.48422 0.91069 0.99028 0.0
C736 C 0.4788 0.95155 0.94656 0.0
C737 C 0.48629 0.01906 0.9245 0.0
C738 C 0.46556 0.03551 0.92265 0.0
C739 C 0.46969 0.0656 0.94745 0.0
C740 C 0.49323 0.07722 0.97536 0.0
C741 C 0.5134 0.05968 0.97642 0.0
N742 N 0.50991 0.03131 0.95091 0.0
H743 H 0.48438 -0.00269 0.90374 0.0
H744 H 0.5329 0.06976 -0.00335 0.0
C745 C 0.56324 0.93899 0.90922 0.0
N746 N 0.57565 0.96545 0.93773 0.0
C747 C 0.62121 0.94922 0.94296 0.0
C748 C 0.60961 0.92261 0.91238 0.0
C749 C 0.57937 0.91718 0.89661 0.0
C750 C 0.60384 0.97037 0.95516 0.0
H751 H 0.54128 0.93532 0.89506 0.0
H752 H 0.61378 -0.0084 0.97761 0.0
C753 C 0.54154 0.03253 0.04518 0.0
C754 C 0.43141 0.93163 0.07304 0.0
N755 N 0.44304 0.01762 0.05007 0.0
C756 C 0.45371 0.04236 0.08047 0.0
C757 C 0.43728 0.06408 0.09306 0.0
C758 C 0.40929 0.0606 0.07451 0.0
C759 C 0.3992 0.03561 0.04268 0.0
C760 C 0.41647 0.01435 0.03089 0.0
C761 C 0.5884 0.0512 0.91269 0.0
O762 O 0.48608 0.97144 0.97678 0.0
O763 O 0.49952 0.95637 0.92338 0.0
O764 O 0.5403 0.02067 0.01215 0.0
O765 O 0.51642 0.02258 0.06232 0.0
O766 O 0.4228 0.92867 0.04148 0.0
O767 O 0.45679 0.9565 0.08733 0.0
O768 O 0.59518 0.05439 0.94477 0.0
O769 O 0.56406 0.02561 0.89733 0.0
H770 H 0.47433 0.04454 0.09596 0.0
H771 H 0.40785 -0.00553 0.00705 0.0
H772 H 0.52173 0.88145 0.99037 0.0
H773 H 0.57156 0.95678 0.08412 0.0
H774 H 0.44767 0.02583 0.90069 0.0
H775 H 0.49743 0.10063 -0.00532 0.0
H776 H 0.64424 0.95475 0.95642 0.0
H777 H 0.56828 0.89656 0.8739 0.0
H778 H 0.44573 0.08275 0.11784 0.0
H779 H 0.37755 0.03183 0.02768 0.0
Cd780 Cd 0.97314 0.48011 0.03836 0.0
Cd781 Cd 0.04849 0.50642 0.95093 0.0
C782 C 0.03841 0.46925 0.06036 0.0
N783 N 0.01188 0.45419 0.03725 0.0
C784 C 0.02703 0.40668 0.01655 0.0
C785 C 0.0544 0.42177 0.04082 0.0
C786 C 0.06067 0.45439 0.0612 0.0
C787 C 1.00626 0.4236 0.01495 0.0
H788 H 0.04227 0.49253 0.07931 0.0
H789 H 0.98481 0.4116 -0.00299 0.0
C790 C 0.97946 0.45116 0.9465 0.0
C791 C 0.98434 0.52002 0.92894 0.0
C792 C 0.9631 0.53649 0.9292 0.0
C793 C 0.96862 0.5668 0.95407 0.0
C794 C 0.99477 0.57932 0.97922 0.0
C795 C 0.01514 0.56169 0.97843 0.0
N796 N 0.00981 0.53259 0.9534 0.0
H797 H 0.98112 0.49794 0.90811 0.0
H798 H 0.03619 0.57219 -0.00322 0.0
C799 C 0.06194 0.43934 0.91047 0.0
N800 N 0.07499 0.46561 0.93906 0.0
C801 C 0.11929 0.4473 0.94358 0.0
C802 C 0.10683 0.42062 0.91311 0.0
C803 C 0.07688 0.41647 0.89769 0.0
C804 C 0.10296 0.46944 0.95612 0.0
H805 H 0.04032 0.43649 0.89632 0.0
H806 H 0.11352 0.4905 0.97858 0.0
C807 C 0.04221 0.53684 0.04448 0.0
C808 C 0.93373 0.43371 0.07277 0.0
N809 N 0.94587 0.52001 0.05022 0.0
C810 C 0.95842 0.54708 0.0783 0.0
C811 C 0.94269 0.56951 0.08984 0.0
C812 C 0.91296 0.56393 0.07325 0.0
C813 C 0.9005 0.53611 0.04408 0.0
C814 C 0.91752 0.51458 0.03277 0.0
C815 C 0.0884 0.55191 0.91504 0.0
O816 O 0.98541 0.46997 0.97737 0.0
O817 O 1.00067 0.45856 0.92427 0.0
O818 O 0.03756 0.51949 0.0129 0.0
O819 O 0.01983 0.52837 0.06529 0.0
O820 O 0.92822 0.4289 0.03999 0.0
O821 O 0.95621 0.46065 0.08894 0.0
O822 O 0.09473 0.55657 0.94761 0.0
O823 O 0.06459 0.52573 0.89982 0.0
H824 H 0.98011 0.55087 0.093 0.0
H825 H 0.90739 0.49287 0.01086 0.0
H826 H 0.02069 0.38163 6e-05 0.0
H827 H 0.08203 0.4684 0.07902 0.0
H828 H 0.94391 0.52683 0.90856 0.0
H829 H 1.00035 0.60324 -0.00191 0.0
H830 H 0.14216 0.4521 0.95687 0.0
H831 H 0.06493 0.39597 0.87521 0.0
H832 H 0.95297 0.59024 0.11273 0.0
H833 H 0.87755 0.53076 0.03052 0.0
Cd834 Cd 0.48655 0.46042 0.03324 0.0
Cd835 Cd 0.53575 0.52302 0.95206 0.0
C836 C 0.54737 0.44987 0.05023 0.0
N837 N 0.52187 0.43555 0.02603 0.0
C838 C 0.53527 0.38801 0.00395 0.0
C839 C 0.56211 0.40251 0.02846 0.0
C840 C 0.56813 0.43378 0.05177 0.0
C841 C 0.51528 0.40541 0.00299 0.0
H842 H 0.55081 0.47313 0.06924 0.0
H843 H 0.49381 0.39444 0.98517 0.0
C844 C 0.48045 0.4542 0.94077 0.0
C845 C 0.47362 0.53461 0.93899 0.0
C846 C 0.45385 0.55205 0.93879 0.0
C847 C 0.46201 0.5836 0.96201 0.0
C848 C 0.48845 0.59617 0.98675 0.0
C849 C 0.50708 0.57721 0.98676 0.0
N850 N 0.49973 0.54764 0.96238 0.0
H851 H 0.46937 0.51188 0.91886 0.0
H852 H 0.52864 0.58697 0.00434 0.0
C853 C 0.55663 0.46284 0.92442 0.0
N854 N 0.56071 0.48916 0.9525 0.0
C855 C 0.59572 0.47552 0.98348 0.0
C856 C 0.59187 0.44823 0.95514 0.0
C857 C 0.57195 0.44133 0.92535 0.0
C858 C 0.58032 0.49632 0.98122 0.0
H859 H 0.54213 0.45898 0.90121 0.0
H860 H 0.58486 0.51857 0.00196 0.0
C861 C 0.5392 0.53421 0.04765 0.0
C862 C 0.44413 0.42369 0.07433 0.0
N863 N 0.45759 0.49101 0.0369 0.0
C864 C 0.46106 0.5171 0.06499 0.0
C865 C 0.4453 0.53813 0.06377 0.0
C866 C 0.42564 0.53114 0.03363 0.0
C867 C 0.42099 0.50286 0.00614 0.0
C868 C 0.4369 0.4825 0.00884 0.0
C869 C 0.58025 0.56 0.91209 0.0
O870 O 0.49179 0.46421 0.97239 0.0
O871 O 0.49366 0.47231 0.92025 0.0
O872 O 0.53434 0.52523 0.01454 0.0
O873 O 0.52561 0.51309 0.06507 0.0
O874 O 0.43641 0.41715 0.04173 0.0
O875 O 0.47175 0.44605 0.08645 0.0
O876 O 0.58615 0.56703 0.94506 0.0
O877 O 0.55352 0.53691 0.89861 0.0
H878 H 0.47621 0.52173 0.08796 0.0
H879 H 0.43299 0.45996 0.98881 0.0
H880 H 0.52965 0.36353 0.98627 0.0
H881 H 0.58789 0.44506 0.07194 0.0
H882 H 0.434 0.5422 0.91886 0.0
H883 H 0.49529 0.62073 0.00463 0.0
H884 H 0.61145 0.48131 0.00649 0.0
H885 H 0.56948 0.42062 0.9028 0.0
H886 H 0.44828 0.55934 0.08588 0.0
H887 H 0.40552 0.49677 0.98284 0.0
Cd888 Cd 0.97458 0.48109 0.54192 0.0
Cd889 Cd 0.04803 0.5064 0.45264 0.0
C890 C 0.03556 0.46529 0.56819 0.0
N891 N 0.01252 0.45436 0.54133 0.0
C892 C 0.02955 0.40915 0.5147 0.0
C893 C 0.0534 0.42009 0.5421 0.0
C894 C 0.05666 0.4488 0.56876 0.0
C895 C 1.00941 0.42689 0.51479 0.0
H896 H 0.03721 0.48641 0.58973 0.0
H897 H 0.99068 0.41817 0.49419 0.0
C898 C 0.97789 0.45392 0.448 0.0
C899 C 0.99034 0.52433 0.42529 0.0
C900 C 0.97024 0.54127 0.42245 0.0
C901 C 0.9709 0.56868 0.44963 0.0
C902 C 0.9909 0.57752 0.4801 0.0
C903 C 0.01079 0.55976 0.48186 0.0
N904 N 0.01032 0.53371 0.45454 0.0
H905 H 0.99088 0.50445 0.40331 0.0
H906 H 0.02757 0.56782 0.50439 0.0
C907 C 0.06543 0.44244 0.40874 0.0
N908 N 0.07667 0.46752 0.43866 0.0
C909 C 0.12148 0.45032 0.44452 0.0
C910 C 0.11072 0.42452 0.41312 0.0
C911 C 0.0819 0.42091 0.39562 0.0
C912 C 0.10417 0.47154 0.45674 0.0
H913 H 0.04409 0.43975 0.39406 0.0
H914 H 0.11325 0.49168 0.48029 0.0
C915 C 0.04332 0.5334 0.546 0.0
C916 C 0.93366 0.43461 0.57563 0.0
N917 N 0.94667 0.52039 0.55335 0.0
C918 C 0.95675 0.5458 0.58322 0.0
C919 C 0.9395 0.56688 0.59473 0.0
C920 C 0.91128 0.56201 0.57563 0.0
C921 C 0.90169 0.53623 0.54437 0.0
C922 C 0.91979 0.51565 0.53366 0.0
C923 C 0.08492 0.55318 0.41651 0.0
O924 O 0.98556 0.46999 0.47975 0.0
O925 O 0.99908 0.46006 0.42545 0.0
O926 O 0.03623 0.51445 0.51516 0.0
O927 O 0.02226 0.52805 0.56882 0.0
O928 O 0.9268 0.43249 0.54385 0.0
O929 O 0.95853 0.45922 0.59149 0.0
O930 O 0.09318 0.55703 0.44838 0.0
O931 O 0.06128 0.52686 0.40143 0.0
H932 H 0.97761 0.54907 0.59909 0.0
H933 H 0.91162 0.49517 0.51027 0.0
H934 H 0.0263 0.38698 0.49375 0.0
H935 H 0.07455 0.45765 0.59059 0.0
H936 H 0.95523 0.53384 0.39848 0.0
H937 H 0.99242 0.59888 0.50142 0.0
H938 H 0.14315 0.45434 0.45958 0.0
H939 H 0.07249 0.40239 0.37099 0.0
H940 H 0.9476 0.58624 0.61908 0.0
H941 H 0.87993 0.53145 0.52894 0.0
Cd942 Cd 0.47173 0.97915 0.534 0.0
Cd943 Cd 0.54679 0.00244 0.44769 0.0
C944 C 0.53106 0.9639 0.56381 0.0
N945 N 0.51009 0.95277 0.53502 0.0
C946 C 0.53123 0.91011 0.5105 0.0
C947 C 0.55314 0.92118 0.54009 0.0
C948 C 0.5528 0.9487 0.56676 0.0
C949 C 0.50974 0.92613 0.50865 0.0
H950 H 0.53035 0.98409 0.58532 0.0
H951 H 0.49234 0.9167 0.4864 0.0
C952 C 0.47751 0.95055 0.44337 0.0
C953 C 0.48459 0.01739 0.42544 0.0
C954 C 0.46355 0.03358 0.4243 0.0
C955 C 0.46927 0.06492 0.44738 0.0
C956 C 0.49457 0.07775 0.47371 0.0
C957 C 0.51457 0.05993 0.47472 0.0
N958 N 0.50951 0.03037 0.45045 0.0
H959 H 0.48155 -0.00495 0.40515 0.0
H960 H 0.53511 0.07062 0.4938 0.0
C961 C 0.56226 0.93583 0.40823 0.0
N962 N 0.57408 0.96241 0.43691 0.0
C963 C 0.61953 0.94651 0.44361 0.0
C964 C 0.60805 0.91943 0.4136 0.0
C965 C 0.57864 0.91396 0.39638 0.0
C966 C 0.60205 0.96764 0.45497 0.0
H967 H 0.54072 0.93221 0.39331 0.0
H968 H 0.61167 0.98902 0.47732 0.0
C969 C 0.54296 0.03406 0.54394 0.0
C970 C 0.432 0.93504 0.57017 0.0
N971 N 0.44587 0.02015 0.54799 0.0
C972 C 0.45505 0.04217 0.58021 0.0
C973 C 0.43948 0.06442 0.59354 0.0
C974 C 0.41351 0.06427 0.57407 0.0
C975 C 0.40506 0.04204 0.54028 0.0
C976 C 0.42147 0.02002 0.5278 0.0
C977 C 0.58623 0.0479 0.41189 0.0
O978 O 0.4858 0.96995 0.47381 0.0
O979 O 0.49842 0.95445 0.42036 0.0
O980 O 0.54089 0.02088 0.51109 0.0
O981 O 0.51801 0.02501 0.56151 0.0
O982 O 0.42282 0.93299 0.53918 0.0
O983 O 0.45879 0.95789 0.58385 0.0
O984 O 0.5921 0.05256 0.44447 0.0
O985 O 0.56349 0.02114 0.39588 0.0
H986 H 0.47393 0.04183 0.59639 0.0
H987 H 0.41392 0.00217 0.50246 0.0
H988 H 0.53038 0.88911 0.48907 0.0
H989 H 0.56816 0.95774 0.59069 0.0
H990 H 0.44408 0.02249 0.40384 0.0
H991 H 0.50006 0.10203 0.49184 0.0
H992 H 0.6423 0.95188 0.45752 0.0
H993 H 0.56916 0.8938 0.37284 0.0
H994 H 0.44743 0.08127 0.61942 0.0
H995 H 0.38513 0.0407 0.52422 0.0
H996 H 0.16293 0.19724 0.29151 0.0
H997 H 0.14579 0.06343 0.39806 0.0
H998 H 0.23667 0.15646 0.29404 0.0
H999 H 0.06833 0.09468 0.38027 0.0
H1000 H 0.17937 0.09553 0.35853 0.0
H1001 H 0.12778 0.15866 0.32324 0.0
C1002 C 0.17163 0.17994 0.29854 0.0
C1003 C 0.20264 0.17985 0.2899 0.0
C1004 C 0.15504 0.09536 0.36331 0.0
C1005 C 0.1627 0.13588 0.32683 0.0
C1006 C 0.13612 0.07731 0.38593 0.0
C1007 C 0.10484 0.0773 0.39262 0.0
C1008 C 0.14253 0.11378 0.34811 0.0
C1009 C 0.09268 0.09469 0.37589 0.0
C1010 C 0.15155 0.1579 0.31669 0.0
C1011 C 0.2129 0.15733 0.30022 0.0
N1012 N 0.1117 0.11257 0.35467 0.0
N1013 N 0.19298 0.13626 0.31828 0.0
H1014 H 0.89648 0.18153 0.34371 0.0
H1015 H 0.90094 0.05727 0.44383 0.0
H1016 H 0.81105 0.10003 0.35888 0.0
H1017 H 0.97925 0.15322 0.45788 0.0
H1018 H 0.86456 0.07831 0.4224 0.0
H1019 H 0.92413 0.17941 0.39512 0.0
C1020 C 0.88323 0.16396 0.35859 0.0
C1021 C 0.85194 0.14015 0.34662 0.0
C1022 C 0.88939 0.09524 0.43105 0.0
C1023 C 0.88317 0.13727 0.40458 0.0
C1024 C 0.91012 0.08315 0.44318 0.0
C1025 C 0.94304 0.10355 0.4518 0.0
C1026 C 0.9019 0.12777 0.42693 0.0
C1027 C 0.95392 0.13688 0.4511 0.0
C1028 C 0.89897 0.16269 0.38784 0.0
C1029 C 0.83559 0.11813 0.36684 0.0
N1030 N 0.9335 0.14786 0.43786 0.0
N1031 N 0.85166 0.11669 0.39436 0.0
H1032 H 0.86245 0.82912 0.26534 0.0
H1033 H 0.94061 0.89809 0.46079 0.0
H1034 H 0.82571 0.77026 0.33853 0.0
H1035 H 0.94623 0.95479 0.38579 0.0
H1036 H 0.9018 0.84828 0.41897 0.0
H1037 H 0.90348 0.87033 0.30901 0.0
C1038 C 0.86185 0.82587 0.29131 0.0
C1039 C 0.83728 0.79931 0.30023 0.0
C1040 C 0.9117 0.87179 0.41205 0.0
C1041 C 0.8848 0.84554 0.35059 0.0
C1042 C 0.93347 0.90008 0.43583 0.0
C1043 C 0.94743 0.93009 0.426 0.0
C1044 C 0.90469 0.87416 0.37869 0.0
C1045 C 0.93703 0.93188 0.39394 0.0
C1046 C 0.88566 0.84902 0.31625 0.0
C1047 C 0.84134 0.793 0.33244 0.0
N1048 N 0.91669 0.90424 0.37138 0.0
N1049 N 0.86391 0.81683 0.35744 0.0
H1050 H 0.1653 0.81471 0.4215 0.0
H1051 H 0.10401 0.9221 0.3881 0.0
H1052 H 0.20425 0.86094 0.33761 0.0
H1053 H 0.13211 0.94307 0.49755 0.0
H1054 H 0.14816 0.90311 0.37234 0.0
H1055 H 0.17016 0.86884 0.45886 0.0
C1056 C 0.17645 0.83651 0.41161 0.0
C1057 C 0.1823 0.83328 0.3761 0.0
C1058 C 0.14511 0.91241 0.39993 0.0
C1059 C 0.18602 0.89381 0.41721 0.0
C1060 C 0.11911 0.92199 0.40892 0.0
C1061 C 0.1137 0.93247 0.44438 0.0
C1062 C 0.16546 0.91292 0.42658 0.0
C1063 C 0.13497 0.93355 0.47016 0.0
C1064 C 0.17941 0.86748 0.43287 0.0
C1065 C 0.19782 0.86227 0.3646 0.0
N1066 N 0.15981 0.92322 0.46081 0.0
N1067 N 0.1978 0.89151 0.38474 0.0
H1068 H 0.20673 0.8631 0.61913 0.0
H1069 H 0.03562 0.84425 0.54322 0.0
H1070 H 0.11591 0.81338 0.66166 0.0
H1071 H 0.12956 0.92159 0.5414 0.0
H1072 H 0.06292 0.81581 0.56893 0.0
H1073 H 0.17629 0.86415 0.56973 0.0
C1074 C 0.18032 0.85139 0.6173 0.0
C1075 C 0.16362 0.83877 0.64453 0.0
C1076 C 0.07746 0.8383 0.56141 0.0
C1077 C 0.12876 0.84086 0.58914 0.0
C1078 C 0.06205 0.85435 0.54658 0.0
C1079 C 0.08061 0.8847 0.53901 0.0
C1080 C 0.11151 0.8526 0.56784 0.0
C1081 C 0.11451 0.89762 0.54518 0.0
C1082 C 0.16295 0.85213 0.58932 0.0
C1083 C 0.12943 0.82368 0.64114 0.0
N1084 N 0.12881 0.88153 0.55929 0.0
N1085 N 0.11289 0.82595 0.61428 0.0
H1086 H 0.21275 0.14165 0.67621 0.0
H1087 H 0.05218 0.09794 0.56283 0.0
H1088 H 0.17087 0.21451 0.67708 0.0
H1089 H 0.10433 0.03297 0.55638 0.0
H1090 H 0.09937 0.14454 0.59645 0.0
H1091 H 0.17592 0.10399 0.62665 0.0
C1092 C 0.19566 0.14967 0.6659 0.0
C1093 C 0.19469 0.18108 0.68067 0.0
C1094 C 0.10094 0.12036 0.58655 0.0
C1095 C 0.15257 0.13821 0.62348 0.0
C1096 C 0.07426 0.09402 0.56708 0.0
C1097 C 0.07501 0.06215 0.55679 0.0
C1098 C 0.12784 0.11409 0.59585 0.0
C1099 C 0.1033 0.05752 0.56371 0.0
C1100 C 0.17485 0.1283 0.63729 0.0
C1101 C 0.17232 0.1904 0.66619 0.0
N1102 N 0.12857 0.08321 0.58317 0.0
N1103 N 0.15183 0.16885 0.63836 0.0
H1104 H 0.87261 0.18847 0.57686 0.0
H1105 H 0.86704 0.01263 0.55404 0.0
H1106 H 0.81466 0.12077 0.63605 0.0
H1107 H 0.9384 0.09497 0.52224 0.0
H1108 H 0.82847 0.04069 0.56111 0.0
H1109 H 0.86946 0.14108 0.5283 0.0
C1110 C 0.85781 0.16362 0.57887 0.0
C1111 C 0.84584 0.15818 0.61095 0.0
C1112 C 0.85205 0.05191 0.55103 0.0
C1113 C 0.84409 0.10478 0.55741 0.0
C1114 C 0.87399 0.03623 0.54745 0.0
C1115 C 0.9052 0.05164 0.53671 0.0
C1116 C 0.86175 0.08302 0.54369 0.0
C1117 C 0.91409 0.08227 0.52938 0.0
C1118 C 0.85614 0.13654 0.55134 0.0
C1119 C 0.8258 0.12576 0.6121 0.0
N1120 N 0.89236 0.09713 0.53305 0.0
N1121 N 0.82684 0.09985 0.58617 0.0
H1122 H 0.77938 0.81819 0.68269 0.0
H1123 H 0.95996 0.92317 0.64467 0.0
H1124 H 0.86269 0.79714 0.70574 0.0
H1125 H 0.88065 0.89391 0.56791 0.0
H1126 H 0.92213 0.88983 0.68007 0.0
H1127 H 0.81441 0.85719 0.65051 0.0
C1128 C 0.80501 0.822 0.68141 0.0
C1129 C 0.81831 0.80496 0.69776 0.0
C1130 C 0.91307 0.89097 0.65558 0.0
C1131 C 0.85825 0.85011 0.6623 0.0
C1132 C 0.9345 0.90992 0.63548 0.0
C1133 C 0.92334 0.91054 0.60314 0.0
C1134 C 0.88026 0.87319 0.6435 0.0
C1135 C 0.89015 0.8933 0.59243 0.0
C1136 C 0.82486 0.84425 0.66316 0.0
C1137 C 0.85159 0.8106 0.69482 0.0
N1138 N 0.86958 0.87519 0.61266 0.0
N1139 N 0.87053 0.83306 0.67788 0.0
H1140 H 0.32474 0.21394 0.14581 0.0
H1141 H 0.36181 0.04689 0.12088 0.0
H1142 H 0.28986 0.14702 0.21221 0.0
H1143 H 0.41183 0.12057 0.06517 0.0
H1144 H 0.33147 0.08117 0.15032 0.0
H1145 H 0.35324 0.17878 0.11231 0.0
C1146 C 0.32273 0.19162 0.15304 0.0
C1147 C 0.30475 0.18332 0.18181 0.0
C1148 C 0.34895 0.08994 0.1316 0.0
C1149 C 0.33718 0.14275 0.14345 0.0
C1150 C 0.3662 0.07024 0.11466 0.0
C1151 C 0.38928 0.08073 0.09039 0.0
C1152 C 0.35467 0.1207 0.12445 0.0
C1153 C 0.39413 0.11142 0.08355 0.0
C1154 C 0.33915 0.17162 0.13402 0.0
C1155 C 0.30338 0.15434 0.19025 0.0
N1156 N 0.37705 0.13029 0.10046 0.0
N1157 N 0.31913 0.13517 0.17119 0.0
H1158 H 0.81895 0.34409 0.2255 0.0
H1159 H 0.90557 0.36604 0.0476 0.0
H1160 H 0.81803 0.26012 0.14154 0.0
H1161 H 0.92069 0.44601 0.14136 0.0
H1162 H 0.87364 0.32619 0.08058 0.0
H1163 H 0.85528 0.38142 0.19357 0.0
C1164 C 0.82629 0.33344 0.20021 0.0
C1165 C 0.81554 0.2989 0.18619 0.0
C1166 C 0.88397 0.35246 0.09385 0.0
C1167 C 0.85728 0.34174 0.14935 0.0
C1168 C 0.90191 0.37512 0.07504 0.0
C1169 C 0.915 0.40924 0.09176 0.0
C1170 C 0.87871 0.36428 0.12926 0.0
C1171 C 0.91058 0.41987 0.12749 0.0
C1172 C 0.84727 0.35485 0.18208 0.0
C1173 C 0.82595 0.28663 0.15334 0.0
N1174 N 0.89245 0.3975 0.14497 0.0
N1175 N 0.84622 0.3081 0.13588 0.0
H1176 H 0.67751 0.89658 0.16322 0.0
H1177 H 0.53527 0.8499 0.03008 0.0
H1178 H 0.66326 0.80486 0.08459 0.0
H1179 H 0.61625 0.94462 0.05179 0.0
H1180 H 0.57028 0.82578 0.05128 0.0
H1181 H 0.64115 0.90757 0.12854 0.0
C1182 C 0.66662 0.87852 0.13863 0.0
C1183 C 0.67479 0.85042 0.12635 0.0
C1184 C 0.58044 0.85158 0.05047 0.0
C1185 C 0.63148 0.86257 0.08667 0.0
C1186 C 0.56057 0.86539 0.03833 0.0
C1187 C 0.57256 0.89966 0.0402 0.0
C1188 C 0.61219 0.87241 0.06476 0.0
C1189 C 0.60558 0.91842 0.05096 0.0
C1190 C 0.64574 0.88488 0.11885 0.0
C1191 C 0.65825 0.82721 0.0949 0.0
N1192 N 0.62386 0.9048 0.06355 0.0
N1193 N 0.63739 0.83388 0.07587 0.0
H1194 H 0.16761 0.65739 0.21218 0.0
H1195 H 0.10431 0.55123 0.02127 0.0
H1196 H 0.23446 0.67979 0.13114 0.0
H1197 H 0.04658 0.58985 0.09774 0.0
H1198 H 0.15428 0.59246 0.05639 0.0
H1199 H 0.12452 0.62096 0.16741 0.0
C1200 C 0.17323 0.65415 0.18478 0.0
C1201 C 0.2042 0.67186 0.17504 0.0
C1202 C 0.13059 0.59223 0.06479 0.0
C1203 C 0.15498 0.63096 0.12378 0.0
C1204 C 0.10225 0.56901 0.04478 0.0
C1205 C 0.07156 0.56662 0.0575 0.0
C1206 C 0.12752 0.61234 0.0974 0.0
C1207 C 0.06987 0.59022 0.08774 0.0
C1208 C 0.14863 0.63372 0.1593 0.0
C1209 C 0.21061 0.66645 0.13934 0.0
N1210 N 0.09747 0.61162 0.1071 0.0
N1211 N 0.18588 0.64653 0.1146 0.0
H1212 H 0.33046 0.85107 0.80076 0.0
H1213 H 0.46885 0.88612 0.92707 0.0
H1214 H 0.32796 0.76905 0.84034 0.0
H1215 H 0.41945 0.95461 0.94419 0.0
H1216 H 0.41907 0.84141 0.89646 0.0
H1217 H 0.36641 0.88974 0.85127 0.0
C1218 C 0.33724 0.84119 0.82024 0.0
C1219 C 0.32548 0.80685 0.81694 0.0
C1220 C 0.41879 0.86595 0.90801 0.0
C1221 C 0.36719 0.85087 0.874 0.0
C1222 C 0.44701 0.89129 0.92546 0.0
C1223 C 0.44772 0.92363 0.93805 0.0
C1224 C 0.39215 0.87379 0.90163 0.0
C1225 C 0.41938 0.92968 0.93485 0.0
C1226 C 0.35746 0.86327 0.84913 0.0
C1227 C 0.33609 0.79538 0.84221 0.0
N1228 N 0.39282 0.90509 0.91582 0.0
N1229 N 0.35677 0.81743 0.86963 0.0
H1230 H 0.23238 0.30234 0.8578 0.0
H1231 H 0.10368 0.38638 0.84312 0.0
H1232 H 0.18999 0.30148 0.76125 0.0
H1233 H 0.15326 0.40388 0.94251 0.0
H1234 H 0.13209 0.35104 0.81525 0.0
H1235 H 0.20206 0.33573 0.89086 0.0
C1236 C 0.21652 0.30881 0.84352 0.0
C1237 C 0.21391 0.29896 0.8065 0.0
C1238 C 0.13688 0.3625 0.84319 0.0
C1239 C 0.17884 0.33714 0.84428 0.0
C1240 C 0.12008 0.38265 0.85962 0.0
C1241 C 0.12516 0.39841 0.89594 0.0
C1242 C 0.15981 0.35782 0.86256 0.0
C1243 C 0.1483 0.39283 0.91456 0.0
C1244 C 0.19933 0.32809 0.86245 0.0
C1245 C 0.19316 0.3086 0.78962 0.0
N1246 N 0.1647 0.37315 0.89774 0.0
N1247 N 0.17652 0.32681 0.80849 0.0
H1248 H 0.73311 0.21943 0.85445 0.0
H1249 H 0.58241 0.04836 0.84318 0.0
H1250 H 0.66844 0.16383 0.76196 0.0
H1251 H 0.63604 0.11255 0.94045 0.0
H1252 H 0.61278 0.09109 0.81333 0.0
H1253 H 0.69628 0.18239 0.88739 0.0
C1254 C 0.71101 0.19954 0.84121 0.0
C1255 C 0.70399 0.1943 0.80541 0.0
C1256 C 0.61781 0.09594 0.84124 0.0
C1257 C 0.66216 0.15148 0.84251 0.0
C1258 C 0.60059 0.07145 0.85827 0.0
C1259 C 0.60701 0.07672 0.89429 0.0
C1260 C 0.6417 0.12596 0.86032 0.0
C1261 C 0.63064 0.10724 0.91255 0.0
C1262 C 0.69 0.17842 0.85995 0.0
C1263 C 0.67487 0.16853 0.78949 0.0
N1264 N 0.64722 0.13064 0.89534 0.0
N1265 N 0.65528 0.14774 0.80801 0.0
H1266 H 0.85116 0.67676 0.91571 0.0
H1267 H 0.99525 0.62088 0.92957 0.0
H1268 H 0.91205 0.66142 0.83018 0.0
H1269 H 0.90424 0.55984 0.9629 0.0
H1270 H 0.96637 0.64886 0.90624 0.0
H1271 H 0.86838 0.64134 0.94296 0.0
C1272 C 0.86701 0.66484 0.90198 0.0
C1273 C 0.88032 0.67202 0.87066 0.0
C1274 C 0.95277 0.6297 0.91917 0.0
C1275 C 0.90126 0.63359 0.90238 0.0
C1276 C 0.96927 0.61408 0.93283 0.0
C1277 C 0.95201 0.58816 0.94806 0.0
C1278 C 0.91878 0.61965 0.92106 0.0
C1279 C 0.91823 0.57982 0.95122 0.0
C1280 C 0.87711 0.64508 0.91774 0.0
C1281 C 0.90124 0.65649 0.85428 0.0
N1282 N 0.9025 0.59559 0.93773 0.0
N1283 N 0.91176 0.63887 0.87077 0.0
H1284 H 0.16026 0.35015 0.15502 0.0
H1285 H 0.06475 0.36656 -0.00253 0.0
H1286 H 0.12533 0.27194 0.05955 0.0
H1287 H 0.08961 0.43326 0.10201 0.0
H1288 H 0.09476 0.33558 0.01363 0.0
H1289 H 0.14575 0.38679 0.1285 0.0
C1290 C 0.15081 0.3412 0.12789 0.0
C1291 C 0.1441 0.30815 0.10936 0.0
C1292 C 0.09406 0.35754 0.03253 0.0
C1293 C 0.12602 0.34932 0.07909 0.0
C1294 C 0.07661 0.37515 0.02349 0.0
C1295 C 0.07454 0.40329 0.04803 0.0
C1296 C 0.10994 0.36837 0.06614 0.0
C1297 C 0.09102 0.41294 0.08121 0.0
C1298 C 0.14197 0.36189 0.11284 0.0
C1299 C 0.131 0.29744 0.07452 0.0
N1300 N 0.10783 0.39568 0.08903 0.0
N1301 N 0.12187 0.31779 0.06062 0.0
H1302 H 0.21284 0.72517 0.84754 0.0
H1303 H 0.09342 0.53941 0.84454 0.0
H1304 H 0.19489 0.64089 0.75757 0.0
H1305 H 0.12655 0.61812 0.94024 0.0
H1306 H 0.1262 0.57801 0.81136 0.0
H1307 H 0.17783 0.6879 0.88117 0.0
C1308 C 0.20155 0.6988 0.83488 0.0
C1309 C 0.2068 0.68605 0.79971 0.0
C1310 C 0.12637 0.58691 0.83961 0.0
C1311 C 0.1665 0.6434 0.83792 0.0
C1312 C 0.10761 0.56491 0.85855 0.0
C1313 C 0.10779 0.57552 0.89519 0.0
C1314 C 0.14518 0.61994 0.85736 0.0
C1315 C 0.12632 0.60886 0.91203 0.0
C1316 C 0.18159 0.67757 0.8541 0.0
C1317 C 0.19166 0.65173 0.78466 0.0
N1318 N 0.14432 0.62997 0.89294 0.0
N1319 N 0.17207 0.63163 0.8038 0.0
H1320 H 0.37758 0.14249 0.82662 0.0
H1321 H 0.43119 0.09477 0.98983 0.0
H1322 H 0.33009 0.15063 0.92412 0.0
H1323 H 0.47139 0.08456 0.88799 0.0
H1324 H 0.40031 0.12462 0.97182 0.0
H1325 H 0.41952 0.13212 0.85426 0.0
C1326 C 0.3769 0.14361 0.85438 0.0
C1327 C 0.35073 0.14791 0.87328 0.0
C1328 C 0.41622 0.11613 0.95366 0.0
C1329 C 0.39781 0.13448 0.90501 0.0
C1330 C 0.43378 0.0992 0.96395 0.0
C1331 C 0.45329 0.08671 0.94001 0.0
C1332 C 0.41868 0.12073 0.91947 0.0
C1333 C 0.45607 0.09317 0.90693 0.0
C1334 C 0.40053 0.13711 0.87012 0.0
C1335 C 0.35028 0.14791 0.9089 0.0
N1336 N 0.43884 0.10941 0.89763 0.0
N1337 N 0.37321 0.14077 0.92357 0.0
H1338 H 0.85703 0.32616 0.78184 0.0
H1339 H 0.91756 0.44035 0.96882 0.0
H1340 H 0.78638 0.31138 0.86083 0.0
H1341 H 0.97462 0.39394 0.89975 0.0
H1342 H 0.86748 0.39814 0.93481 0.0
H1343 H 0.89954 0.36163 0.82737 0.0
C1344 C 0.85047 0.33084 0.80892 0.0
C1345 C 0.8185 0.31537 0.81789 0.0
C1346 C 0.89097 0.39678 0.92794 0.0
C1347 C 0.86709 0.35543 0.87018 0.0
C1348 C 0.91938 0.42059 0.94734 0.0
C1349 C 0.94998 0.42107 0.93598 0.0
C1350 C 0.89392 0.37409 0.89732 0.0
C1351 C 0.95139 0.39497 0.90844 0.0
C1352 C 0.87475 0.35071 0.83489 0.0
C1353 C 0.81099 0.32282 0.85319 0.0
N1354 N 0.92376 0.37295 0.88949 0.0
N1355 N 0.83539 0.34233 0.87848 0.0
H1356 H 0.74091 0.8112 0.855 0.0
H1357 H 0.61068 0.89355 0.84203 0.0
H1358 H 0.685 0.79653 0.76127 0.0
H1359 H 0.65475 0.90471 0.94236 0.0
H1360 H 0.63994 0.85919 0.81369 0.0
H1361 H 0.71277 0.84647 0.8884 0.0
C1362 C 0.72299 0.81535 0.84129 0.0
C1363 C 0.71569 0.80052 0.80494 0.0
C1364 C 0.6433 0.86892 0.84195 0.0
C1365 C 0.68302 0.84113 0.84327 0.0
C1366 C 0.62608 0.88851 0.85851 0.0
C1367 C 0.62917 0.90187 0.89519 0.0
C1368 C 0.66469 0.86247 0.86162 0.0
C1369 C 0.65124 0.89516 0.91412 0.0
C1370 C 0.70674 0.83548 0.86052 0.0
C1371 C 0.6917 0.80691 0.78908 0.0
N1372 N 0.66806 0.87596 0.89718 0.0
N1373 N 0.67654 0.82653 0.80815 0.0
H1374 H 0.77712 0.63885 0.19572 0.0
H1375 H 0.93268 0.63217 0.0863 0.0
H1376 H 0.84402 0.72433 0.16448 0.0
H1377 H 0.85093 0.54515 0.09615 0.0
H1378 H 0.90279 0.6672 0.11609 0.0
H1379 H 0.80594 0.60531 0.1616 0.0
C1380 C 0.7979 0.65068 0.18173 0.0
C1381 C 0.80796 0.68465 0.1832 0.0
C1382 C 0.8913 0.64044 0.11155 0.0
C1383 C 0.84168 0.64595 0.14386 0.0
C1384 C 0.90834 0.62042 0.0945 0.0
C1385 C 0.8942 0.58556 0.08843 0.0
C1386 C 0.86013 0.62563 0.1235 0.0
C1387 C 0.86266 0.57178 0.09983 0.0
C1388 C 0.81436 0.63137 0.16206 0.0
C1389 C 0.83514 0.69826 0.16412 0.0
N1390 N 0.84695 0.59177 0.11703 0.0
N1391 N 0.85116 0.67901 0.14556 0.0
H1392 H 0.27993 0.77857 0.14353 0.0
H1393 H 0.45204 0.92179 0.1322 0.0
H1394 H 0.36012 0.81157 0.22027 0.0
H1395 H 0.36968 0.88494 0.0574 0.0
H1396 H 0.42108 0.88013 0.16349 0.0
H1397 H 0.31477 0.81514 0.10999 0.0
C1398 C 0.30502 0.79341 0.15327 0.0
C1399 C 0.31688 0.79263 0.18524 0.0
C1400 C 0.40985 0.88116 0.14022 0.0
C1401 C 0.35735 0.83462 0.14649 0.0
C1402 C 0.42739 0.905 0.12245 0.0
C1403 C 0.41321 0.90687 0.09228 0.0
C1404 C 0.37787 0.85929 0.12778 0.0
C1405 C 0.3815 0.88436 0.08052 0.0
C1406 C 0.325 0.81435 0.13401 0.0
C1407 C 0.34987 0.81184 0.196 0.0
N1408 N 0.36488 0.86168 0.0984 0.0
N1409 N 0.36896 0.83237 0.1768 0.0
H1410 H 0.71968 0.20364 0.12668 0.0
H1411 H 0.55645 0.04431 0.11326 0.0
H1412 H 0.68309 0.15303 0.20792 0.0
H1413 H 0.59282 0.07856 0.02124 0.0
H1414 H 0.60304 0.08722 0.14776 0.0
H1415 H 0.6742 0.16044 0.08622 0.0
C1416 C 0.70214 0.18328 0.13567 0.0
C1417 C 0.70472 0.18125 0.17014 0.0
C1418 C 0.60125 0.08558 0.12002 0.0
C1419 C 0.65353 0.13327 0.12541 0.0
C1420 C 0.57447 0.06101 0.10028 0.0
C1421 C 0.57097 0.05807 0.06447 0.0
C1422 C 0.62499 0.10753 0.10397 0.0
C1423 C 0.59508 0.08017 0.0489 0.0
C1424 C 0.67645 0.1589 0.11286 0.0
C1425 C 0.68199 0.15495 0.18124 0.0
N1426 N 0.62137 0.1044 0.06896 0.0
N1427 N 0.6572 0.13214 0.15896 0.0
H1428 H 0.66554 0.70186 0.79336 0.0
H1429 H 0.64 0.56026 0.89185 0.0
H1430 H 0.73515 0.65513 0.79068 0.0
H1431 H 0.56881 0.6022 0.8823 0.0
H1432 H 0.67545 0.59321 0.85398 0.0
H1433 H 0.6301 0.66465 0.82605 0.0
C1434 C 0.67326 0.68356 0.79957 0.0
C1435 C 0.7031 0.68132 0.78914 0.0
C1436 C 0.65212 0.59524 0.86028 0.0
C1437 C 0.66277 0.6387 0.82692 0.0
C1438 C 0.63215 0.57671 0.88192 0.0
C1439 C 0.6021 0.57942 0.89039 0.0
C1440 C 0.64181 0.6167 0.84777 0.0
C1441 C 0.59218 0.60006 0.87652 0.0
C1442 C 0.65302 0.6623 0.81825 0.0
C1443 C 0.71223 0.65758 0.79832 0.0
N1444 N 0.61214 0.61818 0.8561 0.0
N1445 N 0.69206 0.63706 0.81679 0.0
H1446 H 0.40442 0.66861 0.828 0.0
H1447 H 0.39756 0.56954 0.96215 0.0
H1448 H 0.3175 0.6266 0.88065 0.0
H1449 H 0.489 0.64169 0.94376 0.0
H1450 H 0.36849 0.59709 0.93927 0.0
H1451 H 0.43748 0.66676 0.87524 0.0
C1452 C 0.39254 0.66028 0.8503 0.0
C1453 C 0.35842 0.64761 0.85078 0.0
C1454 C 0.39493 0.60776 0.94118 0.0
C1455 C 0.39541 0.64468 0.90387 0.0
C1456 C 0.41138 0.59231 0.95485 0.0
C1457 C 0.44539 0.60442 0.95619 0.0
C1458 C 0.41272 0.6342 0.92659 0.0
C1459 C 0.4626 0.63245 0.94399 0.0
C1460 C 0.41128 0.65909 0.8771 0.0
C1461 C 0.34383 0.63653 0.87964 0.0
N1462 N 0.44598 0.64601 0.92871 0.0
N1463 N 0.36239 0.63475 0.90478 0.0
H1464 H 0.35121 0.27239 0.81051 0.0
H1465 H 0.4252 0.45922 0.92367 0.0
H1466 H 0.30813 0.34501 0.81553 0.0
H1467 H 0.46639 0.3877 0.9298 0.0
H1468 H 0.37688 0.41446 0.89202 0.0
H1469 H 0.38921 0.31088 0.86016 0.0
C1470 C 0.3497 0.29637 0.82222 0.0
C1471 C 0.3269 0.30589 0.80881 0.0
C1472 C 0.39605 0.4082 0.90074 0.0
C1473 C 0.36985 0.34961 0.86525 0.0
C1474 C 0.42355 0.43378 0.91888 0.0
C1475 C 0.44937 0.42677 0.92922 0.0
C1476 C 0.39504 0.37549 0.89154 0.0
C1477 C 0.44652 0.3937 0.92245 0.0
C1478 C 0.37119 0.31817 0.8506 0.0
C1479 C 0.32572 0.337 0.82479 0.0
N1480 N 0.41993 0.36907 0.90325 0.0
N1481 N 0.34705 0.35782 0.85202 0.0
H1482 H 0.63248 0.29678 0.89396 0.0
H1483 H 0.65694 0.47319 0.96597 0.0
H1484 H 0.71103 0.38076 0.87271 0.0
H1485 H 0.57189 0.3818 0.94477 0.0
H1486 H 0.69131 0.44184 0.9672 0.0
H1487 H 0.63501 0.32878 0.95464 0.0
C1488 C 0.65073 0.3218 0.90251 0.0
C1489 C 0.66916 0.33795 0.87832 0.0
C1490 C 0.66503 0.42889 0.96387 0.0
C1491 C 0.67011 0.37433 0.94505 0.0
C1492 C 0.64562 0.44651 0.96248 0.0
C1493 C 0.61191 0.4296 0.95563 0.0
C1494 C 0.65045 0.39425 0.95775 0.0
C1495 C 0.59791 0.39535 0.95045 0.0
C1496 C 0.65282 0.33978 0.93719 0.0
C1497 C 0.69427 0.369 0.89047 0.0
N1498 N 0.61739 0.37866 0.95149 0.0
N1499 N 0.69369 0.38697 0.92356 0.0
H1500 H 0.71218 0.38994 0.13241 0.0
H1501 H 0.54266 0.33837 0.03259 0.0
H1502 H 0.62645 0.30647 0.14272 0.0
H1503 H 0.62805 0.4267 0.03466 0.0
H1504 H 0.57667 0.31551 0.0566 0.0
H1505 H 0.68582 0.39239 0.0811 0.0
C1506 C 0.68799 0.37158 0.12315 0.0
C1507 C 0.67113 0.34841 0.1419 0.0
C1508 C 0.58805 0.33949 0.05089 0.0
C1509 C 0.64037 0.3514 0.08377 0.0
C1510 C 0.56876 0.35237 0.03697 0.0
C1511 C 0.58271 0.38462 0.0325 0.0
C1512 C 0.62121 0.3592 0.06019 0.0
C1513 C 0.61644 0.40197 0.03856 0.0
C1514 C 0.67286 0.37298 0.09394 0.0
C1515 C 0.63998 0.32489 0.12892 0.0
N1516 N 0.63446 0.38928 0.05273 0.0
N1517 N 0.62515 0.32746 0.10093 0.0
H1518 H 0.71792 0.668 0.14915 0.0
H1519 H 0.53169 0.56943 0.11101 0.0
H1520 H 0.6482 0.69698 0.21528 0.0
H1521 H 0.59735 0.57408 0.02678 0.0
H1522 H 0.57347 0.61771 0.1487 0.0
H1523 H 0.6746 0.63378 0.10358 0.0
C1524 C 0.69344 0.66756 0.15372 0.0
C1525 C 0.68647 0.68596 0.1854 0.0
C1526 C 0.57865 0.6086 0.12181 0.0
C1527 C 0.63686 0.64604 0.13412 0.0
C1528 C 0.55486 0.58105 0.10035 0.0
C1529 C 0.56159 0.56734 0.06629 0.0
C1530 C 0.60962 0.62199 0.10932 0.0
C1531 C 0.59162 0.58348 0.0533 0.0
C1532 C 0.66884 0.64809 0.12773 0.0
C1533 C 0.65435 0.68332 0.19095 0.0
N1534 N 0.61508 0.60964 0.07528 0.0
N1535 N 0.63053 0.66347 0.16549 0.0
H1536 H 0.39923 0.69006 0.10098 0.0
H1537 H 0.36223 0.51253 0.0136 0.0
H1538 H 0.3135 0.60708 0.11195 0.0
H1539 H 0.45178 0.59811 0.04812 0.0
H1540 H 0.33382 0.54962 0.01301 0.0
H1541 H 0.39894 0.66176 0.0392 0.0
C1542 C 0.38021 0.66592 0.09 0.0
C1543 C 0.35871 0.64859 0.11151 0.0
C1544 C 0.35992 0.5601 0.01927 0.0
C1545 C 0.3596 0.61629 0.04341 0.0
C1546 C 0.37597 0.53915 0.0201 0.0
C1547 C 0.40909 0.5527 0.03108 0.0
C1548 C 0.37725 0.59457 0.02985 0.0
C1549 C 0.42606 0.58701 0.03979 0.0
C1550 C 0.37929 0.65028 0.05469 0.0
C1551 C 0.33256 0.61921 0.0963 0.0
N1552 N 0.40978 0.60688 0.0393 0.0
N1553 N 0.33395 0.60325 0.06255 0.0
H1554 H 0.28178 0.32366 0.18775 0.0
H1555 H 0.46195 0.40562 0.12783 0.0
H1556 H 0.36122 0.29356 0.20225 0.0
H1557 H 0.37768 0.40301 0.07439 0.0
H1558 H 0.42599 0.37474 0.16615 0.0
H1559 H 0.31733 0.3618 0.15502 0.0
C1560 C 0.30671 0.32525 0.18436 0.0
C1561 C 0.31874 0.30579 0.19826 0.0
C1562 C 0.41535 0.38099 0.14612 0.0
C1563 C 0.35934 0.34956 0.16166 0.0
C1564 C 0.43579 0.39855 0.12434 0.0
C1565 C 0.42246 0.40591 0.09759 0.0
C1566 C 0.38142 0.37125 0.14138 0.0
C1567 C 0.38858 0.3968 0.09426 0.0
C1568 C 0.3269 0.34702 0.16578 0.0
C1569 C 0.35111 0.30864 0.19281 0.0
N1570 N 0.36903 0.37982 0.11602 0.0
N1571 N 0.37034 0.3303 0.17517 0.0
H1572 H 0.78495 0.64485 0.70873 0.0
H1573 H 0.91496 0.62159 0.56477 0.0
H1574 H 0.82985 0.71563 0.64824 0.0
H1575 H 0.8621 0.54878 0.62046 0.0
H1576 H 0.88411 0.65615 0.59335 0.0
H1577 H 0.81242 0.60921 0.67534 0.0
C1578 C 0.80052 0.65278 0.68821 0.0
C1579 C 0.80495 0.68317 0.6812 0.0
C1580 C 0.87904 0.6325 0.59914 0.0
C1581 C 0.83734 0.64261 0.64293 0.0
C1582 C 0.89661 0.61274 0.58273 0.0
C1583 C 0.89095 0.58214 0.59008 0.0
C1584 C 0.85572 0.62174 0.62334 0.0
C1585 C 0.86711 0.57206 0.61385 0.0
C1586 C 0.8163 0.63244 0.66911 0.0
C1587 C 0.82555 0.69227 0.65434 0.0
N1588 N 0.85058 0.59173 0.62959 0.0
N1589 N 0.84115 0.67226 0.63641 0.0
H1590 H 0.35545 0.78125 0.67767 0.0
H1591 H 0.37162 0.92798 0.59157 0.0
H1592 H 0.28418 0.82628 0.68622 0.0
H1593 H 0.44898 0.89249 0.59528 0.0
H1594 H 0.33934 0.89101 0.62699 0.0
H1595 H 0.38991 0.82088 0.64711 0.0
C1596 C 0.34696 0.79925 0.67312 0.0
C1597 C 0.31685 0.8 0.68469 0.0
C1598 C 0.36329 0.89111 0.61995 0.0
C1599 C 0.35621 0.84613 0.64955 0.0
C1600 C 0.38146 0.91195 0.59961 0.0
C1601 C 0.41231 0.91235 0.59017 0.0
C1602 C 0.37597 0.87018 0.63015 0.0
C1603 C 0.42485 0.89218 0.60183 0.0
C1604 C 0.36676 0.82217 0.65574 0.0
C1605 C 0.30716 0.82441 0.67785 0.0
N1606 N 0.40641 0.87148 0.62099 0.0
N1607 N 0.32678 0.84646 0.66071 0.0
H1608 H 0.21605 0.37764 0.59191 0.0
H1609 H 0.0331 0.35611 0.54772 0.0
H1610 H 0.1332 0.31501 0.63568 0.0
H1611 H 0.11965 0.4412 0.54361 0.0
H1612 H 0.06778 0.32903 0.5633 0.0
H1613 H 0.179 0.38767 0.55615 0.0
C1614 C 0.18994 0.36512 0.59307 0.0
C1615 C 0.17764 0.34565 0.61686 0.0
C1616 C 0.07912 0.35334 0.55831 0.0
C1617 C 0.13502 0.3577 0.5767 0.0
C1618 C 0.05943 0.36866 0.54925 0.0
C1619 C 0.0737 0.40095 0.54467 0.0
C1620 C 0.11321 0.37032 0.56215 0.0
C1621 C 0.1078 0.41638 0.54718 0.0
C1622 C 0.1688 0.37109 0.57293 0.0
C1623 C 0.14359 0.33015 0.61757 0.0
N1624 N 0.12636 0.40099 0.55589 0.0
N1625 N 0.12336 0.33694 0.5982 0.0
H1626 H 0.73386 0.19354 0.6187 0.0
H1627 H 0.55525 0.05642 0.61369 0.0
H1628 H 0.68868 0.14824 0.70139 0.0
H1629 H 0.59815 0.07183 0.51615 0.0
H1630 H 0.60424 0.09773 0.6455 0.0
H1631 H 0.68549 0.15457 0.57887 0.0
C1632 C 0.71468 0.17443 0.62786 0.0
C1633 C 0.71598 0.17274 0.66273 0.0
C1634 C 0.60334 0.09226 0.61711 0.0
C1635 C 0.66103 0.13006 0.61882 0.0
C1636 C 0.57509 0.06868 0.59886 0.0
C1637 C 0.57283 0.06046 0.56219 0.0
C1638 C 0.63004 0.10775 0.59877 0.0
C1639 C 0.59937 0.07729 0.5445 0.0
C1640 C 0.68705 0.15274 0.6055 0.0
C1641 C 0.68976 0.14912 0.67424 0.0
N1642 N 0.62727 0.10028 0.56306 0.0
N1643 N 0.66364 0.12892 0.65245 0.0
H1644 H 0.83037 0.34443 0.29488 0.0
H1645 H 0.9531 0.38909 0.45068 0.0
H1646 H 0.81604 0.27486 0.3576 0.0
H1647 H 0.93061 0.46317 0.41777 0.0
H1648 H 0.90296 0.34628 0.41938 0.0
H1649 H 0.86902 0.38763 0.3398 0.0
C1650 C 0.835 0.33843 0.31853 0.0
C1651 C 0.81942 0.30644 0.3233 0.0
C1652 C 0.90854 0.37205 0.41996 0.0
C1653 C 0.86418 0.35557 0.37434 0.0
C1654 C 0.93695 0.39648 0.43804 0.0
C1655 C 0.94543 0.42946 0.43685 0.0
C1656 C 0.88956 0.38098 0.4 0.0
C1657 C 0.92454 0.4378 0.41907 0.0
C1658 C 0.85701 0.36313 0.34417 0.0
C1659 C 0.82734 0.29955 0.35356 0.0
N1660 N 0.89764 0.41351 0.40073 0.0
N1661 N 0.84953 0.32409 0.37815 0.0
H1662 H 0.689 0.76421 0.33341 0.0
H1663 H 0.66244 0.938 0.37675 0.0
H1664 H 0.73835 0.84326 0.28381 0.0
H1665 H 0.59868 0.85463 0.41308 0.0
H1666 H 0.69312 0.90436 0.34672 0.0
H1667 H 0.65856 0.79707 0.36647 0.0
C1668 C 0.69385 0.78858 0.32966 0.0
C1669 C 0.71683 0.80087 0.30568 0.0
C1670 C 0.67259 0.89332 0.36141 0.0
C1671 C 0.68151 0.83887 0.34377 0.0
C1672 C 0.65516 0.91267 0.37876 0.0
C1673 C 0.62811 0.8993 0.39773 0.0
C1674 C 0.6633 0.86012 0.36306 0.0
C1675 C 0.6195 0.86603 0.39892 0.0
C1676 C 0.67616 0.80728 0.34848 0.0
C1677 C 0.72119 0.8325 0.30182 0.0
N1678 N 0.63705 0.84766 0.38201 0.0
N1679 N 0.70395 0.85021 0.32059 0.0
H1680 H 0.16239 0.71334 0.3099 0.0
H1681 H 0.13686 0.55316 0.37886 0.0
H1682 H 0.23692 0.67678 0.32353 0.0
H1683 H 0.07233 0.60605 0.4081 0.0
H1684 H 0.16753 0.593 0.34589 0.0
H1685 H 0.12422 0.67171 0.33802 0.0
C1686 C 0.1708 0.69656 0.31843 0.0
C1687 C 0.20288 0.6978 0.31286 0.0
C1688 C 0.14677 0.59616 0.35962 0.0
C1689 C 0.15913 0.64957 0.34348 0.0
C1690 C 0.12944 0.57347 0.37843 0.0
C1691 C 0.10299 0.57723 0.39686 0.0
C1692 C 0.13775 0.62301 0.35946 0.0
C1693 C 0.09338 0.60318 0.39478 0.0
C1694 C 0.14891 0.67266 0.33415 0.0
C1695 C 0.21227 0.67566 0.32496 0.0
N1696 N 0.11101 0.62549 0.3766 0.0
N1697 N 0.19054 0.6523 0.33896 0.0
H1698 H 0.37591 0.14288 0.32832 0.0
H1699 H 0.44155 0.10534 0.49282 0.0
H1700 H 0.38149 0.2047 0.43307 0.0
H1701 H 0.45842 0.07163 0.38365 0.0
H1702 H 0.41045 0.13537 0.4753 0.0
H1703 H 0.39295 0.10626 0.35205 0.0
C1704 C 0.37922 0.14781 0.35654 0.0
C1705 C 0.37702 0.17659 0.3788 0.0
C1706 C 0.4208 0.12104 0.45536 0.0
C1707 C 0.39817 0.13577 0.40629 0.0
C1708 C 0.43869 0.10419 0.46534 0.0
C1709 C 0.4519 0.08523 0.43953 0.0
C1710 C 0.41614 0.11852 0.41946 0.0
C1711 C 0.44776 0.08485 0.40438 0.0
C1712 C 0.38964 0.12733 0.37014 0.0
C1713 C 0.38262 0.18245 0.41517 0.0
N1714 N 0.4302 0.1009 0.39551 0.0
N1715 N 0.39346 0.16249 0.42786 0.0
H1716 H 0.61515 0.76705 0.56549 0.0
H1717 H 0.61397 0.94668 0.5752 0.0
H1718 H 0.66491 0.85408 0.6491 0.0
H1719 H 0.54142 0.85393 0.51616 0.0
H1720 H 0.64328 0.9156 0.59163 0.0
H1721 H 0.60025 0.80161 0.53568 0.0
C1722 C 0.62398 0.79369 0.57689 0.0
C1723 C 0.64145 0.80779 0.60967 0.0
C1724 C 0.62115 0.90216 0.57473 0.0
C1725 C 0.62356 0.84735 0.57635 0.0
C1726 C 0.60412 0.91984 0.56548 0.0
C1727 C 0.57438 0.90305 0.54497 0.0
C1728 C 0.60888 0.86734 0.56292 0.0
C1729 C 0.56401 0.86826 0.53205 0.0
C1730 C 0.61511 0.81333 0.56011 0.0
C1731 C 0.65176 0.84234 0.62367 0.0
N1732 N 0.58103 0.85163 0.54151 0.0
N1733 N 0.64227 0.8609 0.60718 0.0
H1734 H 0.71747 0.14561 0.27458 0.0
H1735 H 0.60085 0.11469 0.43187 0.0
H1736 H 0.69008 0.22312 0.34058 0.0
H1737 H 0.61267 0.03646 0.34934 0.0
H1738 H 0.63341 0.15559 0.4002 0.0
H1739 H 0.68064 0.10612 0.30416 0.0
C1740 C 0.70371 0.15434 0.29548 0.0
C1741 C 0.70664 0.18763 0.30511 0.0
C1742 C 0.62887 0.12949 0.38907 0.0
C1743 C 0.66409 0.14238 0.33895 0.0
C1744 C 0.61058 0.10631 0.40716 0.0
C1745 C 0.60489 0.07253 0.39325 0.0
C1746 C 0.64203 0.11862 0.35746 0.0
C1747 C 0.61698 0.06245 0.36091 0.0
C1748 C 0.68243 0.1317 0.31214 0.0
C1749 C 0.68799 0.19752 0.33203 0.0
N1750 N 0.6354 0.08549 0.34429 0.0
N1751 N 0.66752 0.17496 0.34824 0.0
H1752 H 0.88078 0.6508 0.33159 0.0
H1753 H 0.92121 0.58344 0.48589 0.0
H1754 H 0.8217 0.64 0.42046 0.0
H1755 H 0.98122 0.60095 0.3987 0.0
H1756 H 0.88845 0.61141 0.46795 0.0
H1757 H 0.92247 0.64135 0.36131 0.0
C1758 C 0.87727 0.64795 0.35807 0.0
C1759 C 0.84796 0.64676 0.37379 0.0
C1760 C 0.90912 0.6096 0.45309 0.0
C1761 C 0.89494 0.63424 0.40758 0.0
C1762 C 0.92782 0.59375 0.46342 0.0
C1763 C 0.95368 0.58968 0.44346 0.0
C1764 C 0.91656 0.62148 0.42273 0.0
C1765 C 0.96122 0.60331 0.41452 0.0
C1766 C 0.90084 0.64197 0.3749 0.0
C1767 C 0.8442 0.64166 0.40768 0.0
N1768 N 0.94267 0.61827 0.40491 0.0
N1769 N 0.86711 0.63512 0.42322 0.0
H1770 H 0.29113 0.85366 0.33562 0.0
H1771 H 0.46252 0.88468 0.4155 0.0
H1772 H 0.31424 0.77353 0.35123 0.0
H1773 H 0.41994 0.95863 0.44832 0.0
H1774 H 0.40898 0.84348 0.38979 0.0
H1775 H 0.33662 0.89317 0.37762 0.0
C1776 C 0.30598 0.84433 0.34765 0.0
C1777 C 0.30142 0.8106 0.3374 0.0
C1778 C 0.41114 0.86853 0.40326 0.0
C1779 C 0.3532 0.85524 0.38473 0.0
C1780 C 0.44156 0.89186 0.41793 0.0
C1781 C 0.44506 0.92458 0.43434 0.0
C1782 C 0.38447 0.87844 0.40417 0.0
C1783 C 0.41767 0.93325 0.4364 0.0
C1784 C 0.33194 0.86685 0.37154 0.0
C1785 C 0.31992 0.79971 0.35545 0.0
N1786 N 0.38848 0.9104 0.42083 0.0
N1787 N 0.34586 0.82192 0.37725 0.0
H1788 H 0.25891 0.33704 0.33911 0.0
H1789 H 0.08686 0.35964 0.3709 0.0
H1790 H 0.16794 0.2715 0.28049 0.0
H1791 H 0.17759 0.43695 0.42008 0.0
H1792 H 0.11688 0.32583 0.34199 0.0
H1793 H 0.23055 0.37199 0.37311 0.0
C1794 C 0.23303 0.3297 0.33349 0.0
C1795 C 0.21601 0.30095 0.30656 0.0
C1796 C 0.13037 0.35017 0.35911 0.0
C1797 C 0.18326 0.34122 0.34562 0.0
C1798 C 0.11311 0.36993 0.37564 0.0
C1799 C 0.12933 0.40211 0.39778 0.0
C1800 C 0.16447 0.3619 0.36471 0.0
C1801 C 0.16356 0.41256 0.40347 0.0
C1802 C 0.21686 0.34988 0.35287 0.0
C1803 C 0.18244 0.29329 0.30058 0.0
N1804 N 0.17988 0.39269 0.38704 0.0
N1805 N 0.16743 0.31309 0.31977 0.0
H1806 H 0.3112 0.16396 0.72387 0.0
H1807 H 0.38815 0.10076 0.54418 0.0
H1808 H 0.31181 0.20317 0.63488 0.0
H1809 H 0.39508 0.07672 0.64174 0.0
H1810 H 0.35853 0.1364 0.57368 0.0
H1811 H 0.3399 0.13037 0.6914 0.0
C1812 C 0.31721 0.16567 0.69738 0.0
C1813 C 0.30867 0.18692 0.68245 0.0
C1814 C 0.36665 0.12333 0.58854 0.0
C1815 C 0.34243 0.14748 0.64426 0.0
C1816 C 0.38342 0.10279 0.57166 0.0
C1817 C 0.39456 0.08569 0.59042 0.0
C1818 C 0.36051 0.12649 0.62437 0.0
C1819 C 0.38771 0.08964 0.62609 0.0
C1820 C 0.33389 0.14628 0.67871 0.0
C1821 C 0.31773 0.18752 0.6478 0.0
N1822 N 0.37128 0.10935 0.64161 0.0
N1823 N 0.334 0.16813 0.6299 0.0
H1824 H 0.86432 0.3063 0.71618 0.0
H1825 H 0.87335 0.38615 0.55473 0.0
H1826 H 0.78371 0.27891 0.64195 0.0
H1827 H 0.95042 0.42473 0.63631 0.0
H1828 H 0.84196 0.34367 0.58431 0.0
H1829 H 0.89842 0.34696 0.68511 0.0
C1830 C 0.85417 0.30832 0.69279 0.0
C1831 C 0.82153 0.28902 0.68102 0.0
C1832 C 0.86574 0.36142 0.59579 0.0
C1833 C 0.85983 0.33529 0.64582 0.0
C1834 C 0.88363 0.38565 0.57889 0.0
C1835 C 0.9143 0.40907 0.59329 0.0
C1836 C 0.87877 0.36041 0.62711 0.0
C1837 C 0.92661 0.40728 0.62458 0.0
C1838 C 0.87342 0.33169 0.67534 0.0
C1839 C 0.80898 0.29313 0.65139 0.0
N1840 N 0.90879 0.38329 0.64048 0.0
N1841 N 0.82819 0.31576 0.63474 0.0
H1842 H 0.17121 0.71657 0.66959 0.0
H1843 H 0.10545 0.53742 0.53663 0.0
H1844 H 0.23139 0.66014 0.63219 0.0
H1845 H 0.0471 0.59566 0.576 0.0
H1846 H 0.15474 0.58596 0.56254 0.0
H1847 H 0.12893 0.67759 0.62554 0.0
C1848 C 0.17565 0.69577 0.65242 0.0
C1849 C 0.20402 0.68984 0.65685 0.0
C1850 C 0.13125 0.58838 0.56472 0.0
C1851 C 0.15577 0.64549 0.6055 0.0
C1852 C 0.10335 0.56085 0.54983 0.0
C1853 C 0.07276 0.56309 0.55452 0.0
C1854 C 0.12807 0.618 0.58397 0.0
C1855 C 0.07059 0.59335 0.5722 0.0
C1856 C 0.15142 0.67356 0.62702 0.0
C1857 C 0.20894 0.66381 0.63206 0.0
N1858 N 0.09797 0.61969 0.58656 0.0
N1859 N 0.18477 0.64204 0.60785 0.0
loop_
_geom_bond_atom_site_label_1
_geom_bond_atom_site_label_2
_geom_bond_distance
_geom_bond_site_symmetry_2
_ccdc_geom_bond_type
Tb0 N29 2.617 . S
Tb0 N35 2.572 . S
Tb0 O44 2.465 . S
Tb0 O45 2.387 . S
Tb0 O47 2.428 . S
Tb0 O48 2.308 . S
Tb0 O52 2.349 . S
Tb0 O55 2.393 . S
Tb0 C64 2.802 . S
C1 N2 1.379 . S
C1 C4 1.416 . S
C1 C8 1.424 . S
N2 C1 1.379 . S
N2 C5 1.334 . S
N2 Tb11 2.617 . S
C3 C5 1.390 . S
C3 C6 1.339 . S
C3 H23 0.930 . S
C4 C1 1.416 . S
C4 C6 1.416 . S
C4 C10 1.448 . S
C5 N2 1.334 . S
C5 C3 1.390 . S
C5 H16 0.930 . S
C6 C3 1.339 . S
C6 C4 1.416 . S
C6 H27 0.930 . S
C7 C8 1.413 . S
C7 C9 1.427 . S
C7 C13 1.416 . S
C8 C1 1.424 . S
C8 C7 1.413 . S
C8 N12 1.361 . S
C9 C7 1.427 . S
C9 C10 1.328 . S
C9 H24 0.929 . S
C10 C4 1.448 . S
C10 C9 1.328 . S
C10 H25 0.930 . S
Tb11 N2 2.617 . S
Tb11 N12 2.572 . S
Tb11 O46 2.349 . S
Tb11 O49 2.393 . S
Tb11 O50 2.465 . S
Tb11 O51 2.387 . S
Tb11 O53 2.428 . S
Tb11 O54 2.308 . S
Tb11 C75 2.802 . S
N12 C8 1.361 . S
N12 Tb11 2.572 . S
N12 C14 1.340 . S
C13 C7 1.416 . S
C13 C15 1.332 . S
C13 H21 0.931 . S
C14 N12 1.340 . S
C14 C15 1.407 . S
C14 H20 0.930 . S
C15 C13 1.332 . S
C15 C14 1.407 . S
C15 H17 0.929 . S
H16 C5 0.930 . S
H17 C15 0.929 . S
H18 C33 0.930 . S
H19 C40 0.929 . S
H20 C14 0.930 . S
H21 C13 0.931 . S
H22 C36 0.930 . S
H23 C3 0.930 . S
H24 C9 0.929 . S
H25 C10 0.930 . S
H26 C31 0.930 . S
H27 C6 0.930 . S
H28 C39 0.931 . S
N29 Tb0 2.617 . S
N29 C30 1.379 . S
N29 C33 1.334 . S
C30 N29 1.379 . S
C30 C32 1.416 . S
C30 C38 1.424 . S
C31 H26 0.930 . S
C31 C33 1.390 . S
C31 C34 1.339 . S
C32 C30 1.416 . S
C32 C34 1.416 . S
C32 C65 1.448 . S
C33 H18 0.930 . S
C33 N29 1.334 . S
C33 C31 1.390 . S
C34 C31 1.339 . S
C34 C32 1.416 . S
C34 H41 0.930 . S
N35 Tb0 2.572 . S
N35 C36 1.340 . S
N35 C38 1.361 . S
C36 H22 0.930 . S
C36 N35 1.340 . S
C36 C40 1.407 . S
C37 C38 1.413 . S
C37 C39 1.416 . S
C37 C66 1.427 . S
C38 C30 1.424 . S
C38 N35 1.361 . S
C38 C37 1.413 . S
C39 H28 0.931 . S
C39 C37 1.416 . S
C39 C40 1.332 . S
C40 H19 0.929 . S
C40 C36 1.407 . S
C40 C39 1.332 . S
H41 C34 0.930 . S
H42 C65 0.930 . S
H43 C66 0.929 . S
O44 Tb0 2.465 . S
O44 C64 1.264 . S
O45 Tb0 2.387 . S
O45 C56 1.264 . S
O46 Tb11 2.349 . S
O46 C56 1.243 . S
O47 Tb0 2.428 . S
O47 C64 1.256 . S
O48 Tb0 2.308 . S
O48 C63 1.266 . S
O49 Tb11 2.393 . S
O49 C63 1.248 . S
O50 Tb11 2.465 . S
O50 C75 1.264 . S
O51 Tb11 2.387 . S
O51 C67 1.264 . S
O52 Tb0 2.349 . S
O52 C67 1.243 . S
O53 Tb11 2.428 . S
O53 C75 1.256 . S
O54 Tb11 2.308 . S
O54 C74 1.266 . S
O55 Tb0 2.393 . S
O55 C74 1.248 . S
C56 O45 1.264 . S
C56 O46 1.243 . S
C57 C60 1.399 . S
C57 C62 1.383 . S
C57 C64 1.496 . S
C58 C59 1.399 . S
C58 C62 1.389 . S
C59 C58 1.399 . S
C59 C61 1.380 . S
C59 H76 0.929 . S
C60 C57 1.399 . S
C60 C61 1.392 . S
C60 H77 0.929 . S
C61 C59 1.380 . S
C61 C60 1.392 . S
C61 H78 0.929 . S
C62 C57 1.383 . S
C62 C58 1.389 . S
C62 H79 0.931 . S
C63 O48 1.266 . S
C63 O49 1.248 . S
C64 Tb0 2.802 . S
C64 O44 1.264 . S
C64 O47 1.256 . S
C64 C57 1.496 . S
C65 C32 1.448 . S
C65 H42 0.930 . S
C65 C66 1.328 . S
C66 C37 1.427 . S
C66 H43 0.929 . S
C66 C65 1.328 . S
C67 O51 1.264 . S
C67 O52 1.243 . S
C68 C71 1.399 . S
C68 C72 1.383 . S
C68 C75 1.496 . S
C69 C70 1.399 . S
C69 C72 1.389 . S
C70 C69 1.399 . S
C70 C73 1.380 . S
C70 H80 0.929 . S
C71 C68 1.399 . S
C71 C73 1.392 . S
C71 H81 0.929 . S
C72 C68 1.383 . S
C72 C69 1.389 . S
C72 H82 0.931 . S
C73 C70 1.380 . S
C73 C71 1.392 . S
C73 H83 0.929 . S
C74 O54 1.266 . S
C74 O55 1.248 . S
C75 Tb11 2.802 . S
C75 O50 1.264 . S
C75 O53 1.256 . S
C75 C68 1.496 . S
H76 C59 0.929 . S
H77 C60 0.929 . S
H78 C61 0.929 . S
H79 C62 0.931 . S
H80 C70 0.929 . S
H81 C71 0.929 . S
H82 C72 0.931 . S
H83 C73 0.929 . S
Tb84 N113 2.617 . S
Tb84 N119 2.572 . S
Tb84 O128 2.465 . S
Tb84 O129 2.387 . S
Tb84 O131 2.428 . S
Tb84 O132 2.308 . S
Tb84 O136 2.349 . S
Tb84 O139 2.393 . S
Tb84 C148 2.802 . S
C85 N86 1.379 . S
C85 C88 1.416 . S
C85 C92 1.424 . S
N86 C85 1.379 . S
N86 C89 1.334 . S
N86 Tb95 2.617 . S
C87 C89 1.390 . S
C87 C90 1.339 . S
C87 H107 0.930 . S
C88 C85 1.416 . S
C88 C90 1.416 . S
C88 C94 1.448 . S
C89 N86 1.334 . S
C89 C87 1.390 . S
C89 H100 0.930 . S
C90 C87 1.339 . S
C90 C88 1.416 . S
C90 H111 0.930 . S
C91 C92 1.413 . S
C91 C93 1.427 . S
C91 C97 1.416 . S
C92 C85 1.424 . S
C92 C91 1.413 . S
C92 N96 1.361 . S
C93 C91 1.427 . S
C93 C94 1.328 . S
C93 H108 0.929 . S
C94 C88 1.448 . S
C94 C93 1.328 . S
C94 H109 0.930 . S
Tb95 N86 2.617 . S
Tb95 N96 2.572 . S
Tb95 O130 2.349 . S
Tb95 O133 2.393 . S
Tb95 O134 2.465 . S
Tb95 O135 2.387 . S
Tb95 O137 2.428 . S
Tb95 O138 2.308 . S
Tb95 C159 2.802 . S
N96 C92 1.361 . S
N96 Tb95 2.572 . S
N96 C98 1.340 . S
C97 C91 1.416 . S
C97 C99 1.332 . S
C97 H105 0.931 . S
C98 N96 1.340 . S
C98 C99 1.407 . S
C98 H104 0.930 . S
C99 C97 1.332 . S
C99 C98 1.407 . S
C99 H101 0.929 . S
H100 C89 0.930 . S
H101 C99 0.929 . S
H102 C117 0.930 . S
H103 C124 0.929 . S
H104 C98 0.930 . S
H105 C97 0.931 . S
H106 C120 0.930 . S
H107 C87 0.930 . S
H108 C93 0.929 . S
H109 C94 0.930 . S
H110 C115 0.930 . S
H111 C90 0.930 . S
H112 C123 0.931 . S
N113 Tb84 2.617 . S
N113 C114 1.379 . S
N113 C117 1.334 . S
C114 N113 1.379 . S
C114 C116 1.416 . S
C114 C122 1.424 . S
C115 H110 0.930 . S
C115 C117 1.390 . S
C115 C118 1.339 . S
C116 C114 1.416 . S
C116 C118 1.416 . S
C116 C149 1.448 . S
C117 H102 0.930 . S
C117 N113 1.334 . S
C117 C115 1.390 . S
C118 C115 1.339 . S
C118 C116 1.416 . S
C118 H125 0.930 . S
N119 Tb84 2.572 . S
N119 C120 1.340 . S
N119 C122 1.361 . S
C120 H106 0.930 . S
C120 N119 1.340 . S
C120 C124 1.407 . S
C121 C122 1.413 . S
C121 C123 1.416 . S
C121 C150 1.427 . S
C122 C114 1.424 . S
C122 N119 1.361 . S
C122 C121 1.413 . S
C123 H112 0.931 . S
C123 C121 1.416 . S
C123 C124 1.332 . S
C124 H103 0.929 . S
C124 C120 1.407 . S
C124 C123 1.332 . S
H125 C118 0.930 . S
H126 C149 0.930 . S
H127 C150 0.929 . S
O128 Tb84 2.465 . S
O128 C148 1.264 . S
O129 Tb84 2.387 . S
O129 C140 1.264 . S
O130 Tb95 2.349 . S
O130 C140 1.243 . S
O131 Tb84 2.428 . S
O131 C148 1.256 . S
O132 Tb84 2.308 . S
O132 C147 1.266 . S
O133 Tb95 2.393 . S
O133 C147 1.248 . S
O134 Tb95 2.465 . S
O134 C159 1.264 . S
O135 Tb95 2.387 . S
O135 C151 1.264 . S
O136 Tb84 2.349 . S
O136 C151 1.243 . S
O137 Tb95 2.428 . S
O137 C159 1.256 . S
O138 Tb95 2.308 . S
O138 C158 1.266 . S
O139 Tb84 2.393 . S
O139 C158 1.248 . S
C140 O129 1.264 . S
C140 O130 1.243 . S
C141 C144 1.399 . S
C141 C146 1.383 . S
C141 C148 1.496 . S
C142 C143 1.399 . S
C142 C146 1.389 . S
C143 C142 1.399 . S
C143 C145 1.380 . S
C143 H160 0.929 . S
C144 C141 1.399 . S
C144 C145 1.392 . S
C144 H161 0.929 . S
C145 C143 1.380 . S
C145 C144 1.392 . S
C145 H162 0.929 . S
C146 C141 1.383 . S
C146 C142 1.389 . S
C146 H163 0.931 . S
C147 O132 1.266 . S
C147 O133 1.248 . S
C148 Tb84 2.802 . S
C148 O128 1.264 . S
C148 O131 1.256 . S
C148 C141 1.496 . S
C149 C116 1.448 . S
C149 H126 0.930 . S
C149 C150 1.328 . S
C150 C121 1.427 . S
C150 H127 0.929 . S
C150 C149 1.328 . S
C151 O135 1.264 . S
C151 O136 1.243 . S
C152 C155 1.399 . S
C152 C156 1.383 . S
C152 C159 1.496 . S
C153 C154 1.399 . S
C153 C156 1.389 . S
C154 C153 1.399 . S
C154 C157 1.380 . S
C154 H164 0.929 . S
C155 C152 1.399 . S
C155 C157 1.392 . S
C155 H165 0.929 . S
C156 C152 1.383 . S
C156 C153 1.389 . S
C156 H166 0.931 . S
C157 C154 1.380 . S
C157 C155 1.392 . S
C157 H167 0.929 . S
C158 O138 1.266 . S
C158 O139 1.248 . S
C159 Tb95 2.802 . S
C159 O134 1.264 . S
C159 O137 1.256 . S
C159 C152 1.496 . S
H160 C143 0.929 . S
H161 C144 0.929 . S
H162 C145 0.929 . S
H163 C146 0.931 . S
H164 C154 0.929 . S
H165 C155 0.929 . S
H166 C156 0.931 . S
H167 C157 0.929 . S
Tb168 N197 2.617 . S
Tb168 N203 2.572 . S
Tb168 O212 2.465 . S
Tb168 O213 2.387 . S
Tb168 O215 2.428 . S
Tb168 O216 2.308 . S
Tb168 O220 2.349 . S
Tb168 O223 2.393 . S
Tb168 C232 2.802 . S
C169 N170 1.379 . S
C169 C172 1.416 . S
C169 C176 1.424 . S
N170 C169 1.379 . S
N170 C173 1.334 . S
N170 Tb179 2.617 . S
C171 C173 1.390 . S
C171 C174 1.339 . S
C171 H191 0.930 . S
C172 C169 1.416 . S
C172 C174 1.416 . S
C172 C178 1.448 . S
C173 N170 1.334 . S
C173 C171 1.390 . S
C173 H184 0.930 . S
C174 C171 1.339 . S
C174 C172 1.416 . S
C174 H195 0.930 . S
C175 C176 1.413 . S
C175 C177 1.427 . S
C175 C181 1.416 . S
C176 C169 1.424 . S
C176 C175 1.413 . S
C176 N180 1.361 . S
C177 C175 1.427 . S
C177 C178 1.328 . S
C177 H192 0.929 . S
C178 C172 1.448 . S
C178 C177 1.328 . S
C178 H193 0.930 . S
Tb179 N170 2.617 . S
Tb179 N180 2.572 . S
Tb179 O214 2.349 . S
Tb179 O217 2.393 . S
Tb179 O218 2.465 . S
Tb179 O219 2.387 . S
Tb179 O221 2.428 . S
Tb179 O222 2.308 . S
Tb179 C243 2.802 . S
N180 C176 1.361 . S
N180 Tb179 2.572 . S
N180 C182 1.340 . S
C181 C175 1.416 . S
C181 C183 1.332 . S
C181 H189 0.931 . S
C182 N180 1.340 . S
C182 C183 1.407 . S
C182 H188 0.930 . S
C183 C181 1.332 . S
C183 C182 1.407 . S
C183 H185 0.929 . S
H184 C173 0.930 . S
H185 C183 0.929 . S
H186 C201 0.930 . S
H187 C208 0.929 . S
H188 C182 0.930 . S
H189 C181 0.931 . S
H190 C204 0.930 . S
H191 C171 0.930 . S
H192 C177 0.929 . S
H193 C178 0.930 . S
H194 C199 0.930 . S
H195 C174 0.930 . S
H196 C207 0.931 . S
N197 Tb168 2.617 . S
N197 C198 1.379 . S
N197 C201 1.334 . S
C198 N197 1.379 . S
C198 C200 1.416 . S
C198 C206 1.424 . S
C199 H194 0.930 . S
C199 C201 1.390 . S
C199 C202 1.339 . S
C200 C198 1.416 . S
C200 C202 1.416 . S
C200 C233 1.448 . S
C201 H186 0.930 . S
C201 N197 1.334 . S
C201 C199 1.390 . S
C202 C199 1.339 . S
C202 C200 1.416 . S
C202 H209 0.930 . S
N203 Tb168 2.572 . S
N203 C204 1.340 . S
N203 C206 1.361 . S
C204 H190 0.930 . S
C204 N203 1.340 . S
C204 C208 1.407 . S
C205 C206 1.413 . S
C205 C207 1.416 . S
C205 C234 1.427 . S
C206 C198 1.424 . S
C206 N203 1.361 . S
C206 C205 1.413 . S
C207 H196 0.931 . S
C207 C205 1.416 . S
C207 C208 1.332 . S
C208 H187 0.929 . S
C208 C204 1.407 . S
C208 C207 1.332 . S
H209 C202 0.930 . S
H210 C233 0.930 . S
H211 C234 0.929 . S
O212 Tb168 2.465 . S
O212 C232 1.264 . S
O213 Tb168 2.387 . S
O213 C224 1.264 . S
O214 Tb179 2.349 . S
O214 C224 1.243 . S
O215 Tb168 2.428 . S
O215 C232 1.256 . S
O216 Tb168 2.308 . S
O216 C231 1.266 . S
O217 Tb179 2.393 . S
O217 C231 1.248 . S
O218 Tb179 2.465 . S
O218 C243 1.264 . S
O219 Tb179 2.387 . S
O219 C235 1.264 . S
O220 Tb168 2.349 . S
O220 C235 1.243 . S
O221 Tb179 2.428 . S
O221 C243 1.256 . S
O222 Tb179 2.308 . S
O222 C242 1.266 . S
O223 Tb168 2.393 . S
O223 C242 1.248 . S
C224 O213 1.264 . S
C224 O214 1.243 . S
C225 C228 1.399 . S
C225 C230 1.383 . S
C225 C232 1.496 . S
C226 C227 1.399 . S
C226 C230 1.389 . S
C227 C226 1.399 . S
C227 C229 1.380 . S
C227 H244 0.929 . S
C228 C225 1.399 . S
C228 C229 1.392 . S
C228 H245 0.929 . S
C229 C227 1.380 . S
C229 C228 1.392 . S
C229 H246 0.929 . S
C230 C225 1.383 . S
C230 C226 1.389 . S
C230 H247 0.931 . S
C231 O216 1.266 . S
C231 O217 1.248 . S
C232 Tb168 2.802 . S
C232 O212 1.264 . S
C232 O215 1.256 . S
C232 C225 1.496 . S
C233 C200 1.448 . S
C233 H210 0.930 . S
C233 C234 1.328 . S
C234 C205 1.427 . S
C234 H211 0.929 . S
C234 C233 1.328 . S
C235 O219 1.264 . S
C235 O220 1.243 . S
C236 C239 1.399 . S
C236 C240 1.383 . S
C236 C243 1.496 . S
C237 C238 1.399 . S
C237 C240 1.389 . S
C238 C237 1.399 . S
C238 C241 1.380 . S
C238 H248 0.929 . S
C239 C236 1.399 . S
C239 C241 1.392 . S
C239 H249 0.929 . S
C240 C236 1.383 . S
C240 C237 1.389 . S
C240 H250 0.931 . S
C241 C238 1.380 . S
C241 C239 1.392 . S
C241 H251 0.929 . S
C242 O222 1.266 . S
C242 O223 1.248 . S
C243 Tb179 2.802 . S
C243 O218 1.264 . S
C243 O221 1.256 . S
C243 C236 1.496 . S
H244 C227 0.929 . S
H245 C228 0.929 . S
H246 C229 0.929 . S
H247 C230 0.931 . S
H248 C238 0.929 . S
H249 C239 0.929 . S
H250 C240 0.931 . S
H251 C241 0.929 . S
Tb252 N281 2.617 . S
Tb252 N287 2.572 . S
Tb252 O296 2.465 . S
Tb252 O297 2.387 . S
Tb252 O299 2.428 . S
Tb252 O300 2.308 . S
Tb252 O304 2.349 . S
Tb252 O307 2.393 . S
Tb252 C316 2.802 . S
C253 N254 1.379 . S
C253 C256 1.416 . S
C253 C260 1.424 . S
N254 C253 1.379 . S
N254 C257 1.334 . S
N254 Tb263 2.617 . S
C255 C257 1.390 . S
C255 C258 1.339 . S
C255 H275 0.930 . S
C256 C253 1.416 . S
C256 C258 1.416 . S
C256 C262 1.448 . S
C257 N254 1.334 . S
C257 C255 1.390 . S
C257 H268 0.930 . S
C258 C255 1.339 . S
C258 C256 1.416 . S
C258 H279 0.930 . S
C259 C260 1.413 . S
C259 C261 1.427 . S
C259 C265 1.416 . S
C260 C253 1.424 . S
C260 C259 1.413 . S
C260 N264 1.361 . S
C261 C259 1.427 . S
C261 C262 1.328 . S
C261 H276 0.929 . S
C262 C256 1.448 . S
C262 C261 1.328 . S
C262 H277 0.930 . S
Tb263 N254 2.617 . S
Tb263 N264 2.572 . S
Tb263 O298 2.349 . S
Tb263 O301 2.393 . S
Tb263 O302 2.465 . S
Tb263 O303 2.387 . S
Tb263 O305 2.428 . S
Tb263 O306 2.308 . S
Tb263 C327 2.802 . S
N264 C260 1.361 . S
N264 Tb263 2.572 . S
N264 C266 1.340 . S
C265 C259 1.416 . S
C265 C267 1.332 . S
C265 H273 0.931 . S
C266 N264 1.340 . S
C266 C267 1.407 . S
C266 H272 0.930 . S
C267 C265 1.332 . S
C267 C266 1.407 . S
C267 H269 0.929 . S
H268 C257 0.930 . S
H269 C267 0.929 . S
H270 C285 0.930 . S
H271 C292 0.929 . S
H272 C266 0.930 . S
H273 C265 0.931 . S
H274 C288 0.930 . S
H275 C255 0.930 . S
H276 C261 0.929 . S
H277 C262 0.930 . S
H278 C283 0.930 . S
H279 C258 0.930 . S
H280 C291 0.931 . S
N281 Tb252 2.617 . S
N281 C282 1.379 . S
N281 C285 1.334 . S
C282 N281 1.379 . S
C282 C284 1.416 . S
C282 C290 1.424 . S
C283 H278 0.930 . S
C283 C285 1.390 . S
C283 C286 1.339 . S
C284 C282 1.416 . S
C284 C286 1.416 . S
C284 C317 1.448 . S
C285 H270 0.930 . S
C285 N281 1.334 . S
C285 C283 1.390 . S
C286 C283 1.339 . S
C286 C284 1.416 . S
C286 H293 0.930 . S
N287 Tb252 2.572 . S
N287 C288 1.340 . S
N287 C290 1.361 . S
C288 H274 0.930 . S
C288 N287 1.340 . S
C288 C292 1.407 . S
C289 C290 1.413 . S
C289 C291 1.416 . S
C289 C318 1.427 . S
C290 C282 1.424 . S
C290 N287 1.361 . S
C290 C289 1.413 . S
C291 H280 0.931 . S
C291 C289 1.416 . S
C291 C292 1.332 . S
C292 H271 0.929 . S
C292 C288 1.407 . S
C292 C291 1.332 . S
H293 C286 0.930 . S
H294 C317 0.930 . S
H295 C318 0.929 . S
O296 Tb252 2.465 . S
O296 C316 1.264 . S
O297 Tb252 2.387 . S
O297 C308 1.264 . S
O298 Tb263 2.349 . S
O298 C308 1.243 . S
O299 Tb252 2.428 . S
O299 C316 1.256 . S
O300 Tb252 2.308 . S
O300 C315 1.266 . S
O301 Tb263 2.393 . S
O301 C315 1.248 . S
O302 Tb263 2.465 . S
O302 C327 1.264 . S
O303 Tb263 2.387 . S
O303 C319 1.264 . S
O304 Tb252 2.349 . S
O304 C319 1.243 . S
O305 Tb263 2.428 . S
O305 C327 1.256 . S
O306 Tb263 2.308 . S
O306 C326 1.266 . S
O307 Tb252 2.393 . S
O307 C326 1.248 . S
C308 O297 1.264 . S
C308 O298 1.243 . S
C309 C312 1.399 . S
C309 C314 1.383 . S
C309 C316 1.496 . S
C310 C311 1.399 . S
C310 C314 1.389 . S
C311 C310 1.399 . S
C311 C313 1.380 . S
C311 H328 0.929 . S
C312 C309 1.399 . S
C312 C313 1.392 . S
C312 H329 0.929 . S
C313 C311 1.380 . S
C313 C312 1.392 . S
C313 H330 0.929 . S
C314 C309 1.383 . S
C314 C310 1.389 . S
C314 H331 0.931 . S
C315 O300 1.266 . S
C315 O301 1.248 . S
C316 Tb252 2.802 . S
C316 O296 1.264 . S
C316 O299 1.256 . S
C316 C309 1.496 . S
C317 C284 1.448 . S
C317 H294 0.930 . S
C317 C318 1.328 . S
C318 C289 1.427 . S
C318 H295 0.929 . S
C318 C317 1.328 . S
C319 O303 1.264 . S
C319 O304 1.243 . S
C320 C323 1.399 . S
C320 C324 1.383 . S
C320 C327 1.496 . S
C321 C322 1.399 . S
C321 C324 1.389 . S
C322 C321 1.399 . S
C322 C325 1.380 . S
C322 H332 0.929 . S
C323 C320 1.399 . S
C323 C325 1.392 . S
C323 H333 0.929 . S
C324 C320 1.383 . S
C324 C321 1.389 . S
C324 H334 0.931 . S
C325 C322 1.380 . S
C325 C323 1.392 . S
C325 H335 0.929 . S
C326 O306 1.266 . S
C326 O307 1.248 . S
C327 Tb263 2.802 . S
C327 O302 1.264 . S
C327 O305 1.256 . S
C327 C320 1.496 . S
H328 C311 0.929 . S
H329 C312 0.929 . S
H330 C313 0.929 . S
H331 C314 0.931 . S
H332 C322 0.929 . S
H333 C323 0.929 . S
H334 C324 0.931 . S
H335 C325 0.929 . S
Tb336 N365 2.617 . S
Tb336 N371 2.572 . S
Tb336 O380 2.465 . S
Tb336 O381 2.387 . S
Tb336 O383 2.428 . S
Tb336 O384 2.308 . S
Tb336 O388 2.349 . S
Tb336 O391 2.393 . S
Tb336 C400 2.802 . S
C337 N338 1.379 . S
C337 C340 1.416 . S
C337 C344 1.424 . S
N338 C337 1.379 . S
N338 C341 1.334 . S
N338 Tb347 2.617 . S
C339 C341 1.390 . S
C339 C342 1.339 . S
C339 H359 0.930 . S
C340 C337 1.416 . S
C340 C342 1.416 . S
C340 C346 1.448 . S
C341 N338 1.334 . S
C341 C339 1.390 . S
C341 H352 0.930 . S
C342 C339 1.339 . S
C342 C340 1.416 . S
C342 H363 0.930 . S
C343 C344 1.413 . S
C343 C345 1.427 . S
C343 C349 1.416 . S
C344 C337 1.424 . S
C344 C343 1.413 . S
C344 N348 1.361 . S
C345 C343 1.427 . S
C345 C346 1.328 . S
C345 H360 0.929 . S
C346 C340 1.448 . S
C346 C345 1.328 . S
C346 H361 0.930 . S
Tb347 N338 2.617 . S
Tb347 N348 2.572 . S
Tb347 O382 2.349 . S
Tb347 O385 2.393 . S
Tb347 O386 2.465 . S
Tb347 O387 2.387 . S
Tb347 O389 2.428 . S
Tb347 O390 2.308 . S
Tb347 C411 2.802 . S
N348 C344 1.361 . S
N348 Tb347 2.572 . S
N348 C350 1.340 . S
C349 C343 1.416 . S
C349 C351 1.332 . S
C349 H357 0.931 . S
C350 N348 1.340 . S
C350 C351 1.407 . S
C350 H356 0.930 . S
C351 C349 1.332 . S
C351 C350 1.407 . S
C351 H353 0.929 . S
H352 C341 0.930 . S
H353 C351 0.929 . S
H354 C369 0.930 . S
H355 C376 0.929 . S
H356 C350 0.930 . S
H357 C349 0.931 . S
H358 C372 0.930 . S
H359 C339 0.930 . S
H360 C345 0.929 . S
H361 C346 0.930 . S
H362 C367 0.930 . S
H363 C342 0.930 . S
H364 C375 0.931 . S
N365 Tb336 2.617 . S
N365 C366 1.379 . S
N365 C369 1.334 . S
C366 N365 1.379 . S
C366 C368 1.416 . S
C366 C374 1.424 . S
C367 H362 0.930 . S
C367 C369 1.390 . S
C367 C370 1.339 . S
C368 C366 1.416 . S
C368 C370 1.416 . S
C368 C401 1.448 . S
C369 H354 0.930 . S
C369 N365 1.334 . S
C369 C367 1.390 . S
C370 C367 1.339 . S
C370 C368 1.416 . S
C370 H377 0.930 . S
N371 Tb336 2.572 . S
N371 C372 1.340 . S
N371 C374 1.361 . S
C372 H358 0.930 . S
C372 N371 1.340 . S
C372 C376 1.407 . S
C373 C374 1.413 . S
C373 C375 1.416 . S
C373 C402 1.427 . S
C374 C366 1.424 . S
C374 N371 1.361 . S
C374 C373 1.413 . S
C375 H364 0.931 . S
C375 C373 1.416 . S
C375 C376 1.332 . S
C376 H355 0.929 . S
C376 C372 1.407 . S
C376 C375 1.332 . S
H377 C370 0.930 . S
H378 C401 0.930 . S
H379 C402 0.929 . S
O380 Tb336 2.465 . S
O380 C400 1.264 . S
O381 Tb336 2.387 . S
O381 C392 1.264 . S
O382 Tb347 2.349 . S
O382 C392 1.243 . S
O383 Tb336 2.428 . S
O383 C400 1.256 . S
O384 Tb336 2.308 . S
O384 C399 1.266 . S
O385 Tb347 2.393 . S
O385 C399 1.248 . S
O386 Tb347 2.465 . S
O386 C411 1.264 . S
O387 Tb347 2.387 . S
O387 C403 1.264 . S
O388 Tb336 2.349 . S
O388 C403 1.243 . S
O389 Tb347 2.428 . S
O389 C411 1.256 . S
O390 Tb347 2.308 . S
O390 C410 1.266 . S
O391 Tb336 2.393 . S
O391 C410 1.248 . S
C392 O381 1.264 . S
C392 O382 1.243 . S
C393 C396 1.399 . S
C393 C398 1.383 . S
C393 C400 1.496 . S
C394 C395 1.399 . S
C394 C398 1.389 . S
C395 C394 1.399 . S
C395 C397 1.380 . S
C395 H412 0.929 . S
C396 C393 1.399 . S
C396 C397 1.392 . S
C396 H413 0.929 . S
C397 C395 1.380 . S
C397 C396 1.392 . S
C397 H414 0.929 . S
C398 C393 1.383 . S
C398 C394 1.389 . S
C398 H415 0.931 . S
C399 O384 1.266 . S
C399 O385 1.248 . S
C400 Tb336 2.802 . S
C400 O380 1.264 . S
C400 O383 1.256 . S
C400 C393 1.496 . S
C401 C368 1.448 . S
C401 H378 0.930 . S
C401 C402 1.328 . S
C402 C373 1.427 . S
C402 H379 0.929 . S
C402 C401 1.328 . S
C403 O387 1.264 . S
C403 O388 1.243 . S
C404 C407 1.399 . S
C404 C408 1.383 . S
C404 C411 1.496 . S
C405 C406 1.399 . S
C405 C408 1.389 . S
C406 C405 1.399 . S
C406 C409 1.380 . S
C406 H416 0.929 . S
C407 C404 1.399 . S
C407 C409 1.392 . S
C407 H417 0.929 . S
C408 C404 1.383 . S
C408 C405 1.389 . S
C408 H418 0.931 . S
C409 C406 1.380 . S
C409 C407 1.392 . S
C409 H419 0.929 . S
C410 O390 1.266 . S
C410 O391 1.248 . S
C411 Tb347 2.802 . S
C411 O386 1.264 . S
C411 O389 1.256 . S
C411 C404 1.496 . S
H412 C395 0.929 . S
H413 C396 0.929 . S
H414 C397 0.929 . S
H415 C398 0.931 . S
H416 C406 0.929 . S
H417 C407 0.929 . S
H418 C408 0.931 . S
H419 C409 0.929 . S
Tb420 N449 2.617 . S
Tb420 N455 2.572 . S
Tb420 O464 2.465 . S
Tb420 O465 2.387 . S
Tb420 O467 2.428 . S
Tb420 O468 2.308 . S
Tb420 O472 2.349 . S
Tb420 O475 2.393 . S
Tb420 C484 2.802 . S
C421 N422 1.379 . S
C421 C424 1.416 . S
C421 C428 1.424 . S
N422 C421 1.379 . S
N422 C425 1.334 . S
N422 Tb431 2.617 . S
C423 C425 1.390 . S
C423 C426 1.339 . S
C423 H443 0.930 . S
C424 C421 1.416 . S
C424 C426 1.416 . S
C424 C430 1.448 . S
C425 N422 1.334 . S
C425 C423 1.390 . S
C425 H436 0.930 . S
C426 C423 1.339 . S
C426 C424 1.416 . S
C426 H447 0.930 . S
C427 C428 1.413 . S
C427 C429 1.427 . S
C427 C433 1.416 . S
C428 C421 1.424 . S
C428 C427 1.413 . S
C428 N432 1.361 . S
C429 C427 1.427 . S
C429 C430 1.328 . S
C429 H444 0.929 . S
C430 C424 1.448 . S
C430 C429 1.328 . S
C430 H445 0.930 . S
Tb431 N422 2.617 . S
Tb431 N432 2.572 . S
Tb431 O466 2.349 . S
Tb431 O469 2.393 . S
Tb431 O470 2.465 . S
Tb431 O471 2.387 . S
Tb431 O473 2.428 . S
Tb431 O474 2.308 . S
Tb431 C495 2.802 . S
N432 C428 1.361 . S
N432 Tb431 2.572 . S
N432 C434 1.340 . S
C433 C427 1.416 . S
C433 C435 1.332 . S
C433 H441 0.931 . S
C434 N432 1.340 . S
C434 C435 1.407 . S
C434 H440 0.930 . S
C435 C433 1.332 . S
C435 C434 1.407 . S
C435 H437 0.929 . S
H436 C425 0.930 . S
H437 C435 0.929 . S
H438 C453 0.930 . S
H439 C460 0.929 . S
H440 C434 0.930 . S
H441 C433 0.931 . S
H442 C456 0.930 . S
H443 C423 0.930 . S
H444 C429 0.929 . S
H445 C430 0.930 . S
H446 C451 0.930 . S
H447 C426 0.930 . S
H448 C459 0.931 . S
N449 Tb420 2.617 . S
N449 C450 1.379 . S
N449 C453 1.334 . S
C450 N449 1.379 . S
C450 C452 1.416 . S
C450 C458 1.424 . S
C451 H446 0.930 . S
C451 C453 1.390 . S
C451 C454 1.339 . S
C452 C450 1.416 . S
C452 C454 1.416 . S
C452 C485 1.448 . S
C453 H438 0.930 . S
C453 N449 1.334 . S
C453 C451 1.390 . S
C454 C451 1.339 . S
C454 C452 1.416 . S
C454 H461 0.930 . S
N455 Tb420 2.572 . S
N455 C456 1.340 . S
N455 C458 1.361 . S
C456 H442 0.930 . S
C456 N455 1.340 . S
C456 C460 1.407 . S
C457 C458 1.413 . S
C457 C459 1.416 . S
C457 C486 1.427 . S
C458 C450 1.424 . S
C458 N455 1.361 . S
C458 C457 1.413 . S
C459 H448 0.931 . S
C459 C457 1.416 . S
C459 C460 1.332 . S
C460 H439 0.929 . S
C460 C456 1.407 . S
C460 C459 1.332 . S
H461 C454 0.930 . S
H462 C485 0.930 . S
H463 C486 0.929 . S
O464 Tb420 2.465 . S
O464 C484 1.264 . S
O465 Tb420 2.387 . S
O465 C476 1.264 . S
O466 Tb431 2.349 . S
O466 C476 1.243 . S
O467 Tb420 2.428 . S
O467 C484 1.256 . S
O468 Tb420 2.308 . S
O468 C483 1.266 . S
O469 Tb431 2.393 . S
O469 C483 1.248 . S
O470 Tb431 2.465 . S
O470 C495 1.264 . S
O471 Tb431 2.387 . S
O471 C487 1.264 . S
O472 Tb420 2.349 . S
O472 C487 1.243 . S
O473 Tb431 2.428 . S
O473 C495 1.256 . S
O474 Tb431 2.308 . S
O474 C494 1.266 . S
O475 Tb420 2.393 . S
O475 C494 1.248 . S
C476 O465 1.264 . S
C476 O466 1.243 . S
C477 C480 1.399 . S
C477 C482 1.383 . S
C477 C484 1.496 . S
C478 C479 1.399 . S
C478 C482 1.389 . S
C479 C478 1.399 . S
C479 C481 1.380 . S
C479 H496 0.929 . S
C480 C477 1.399 . S
C480 C481 1.392 . S
C480 H497 0.929 . S
C481 C479 1.380 . S
C481 C480 1.392 . S
C481 H498 0.929 . S
C482 C477 1.383 . S
C482 C478 1.389 . S
C482 H499 0.931 . S
C483 O468 1.266 . S
C483 O469 1.248 . S
C484 Tb420 2.802 . S
C484 O464 1.264 . S
C484 O467 1.256 . S
C484 C477 1.496 . S
C485 C452 1.448 . S
C485 H462 0.930 . S
C485 C486 1.328 . S
C486 C457 1.427 . S
C486 H463 0.929 . S
C486 C485 1.328 . S
C487 O471 1.264 . S
C487 O472 1.243 . S
C488 C491 1.399 . S
C488 C492 1.383 . S
C488 C495 1.496 . S
C489 C490 1.399 . S
C489 C492 1.389 . S
C490 C489 1.399 . S
C490 C493 1.380 . S
C490 H500 0.929 . S
C491 C488 1.399 . S
C491 C493 1.392 . S
C491 H501 0.929 . S
C492 C488 1.383 . S
C492 C489 1.389 . S
C492 H502 0.931 . S
C493 C490 1.380 . S
C493 C491 1.392 . S
C493 H503 0.929 . S
C494 O474 1.266 . S
C494 O475 1.248 . S
C495 Tb431 2.802 . S
C495 O470 1.264 . S
C495 O473 1.256 . S
C495 C488 1.496 . S
H496 C479 0.929 . S
H497 C480 0.929 . S
H498 C481 0.929 . S
H499 C482 0.931 . S
H500 C490 0.929 . S
H501 C491 0.929 . S
H502 C492 0.931 . S
H503 C493 0.929 . S
Tb504 N533 2.617 . S
Tb504 N539 2.572 . S
Tb504 O548 2.465 . S
Tb504 O549 2.387 . S
Tb504 O551 2.428 . S
Tb504 O552 2.308 . S
Tb504 O556 2.349 . S
Tb504 O559 2.393 . S
Tb504 C568 2.802 . S
C505 N506 1.379 . S
C505 C508 1.416 . S
C505 C512 1.424 . S
N506 C505 1.379 . S
N506 C509 1.334 . S
N506 Tb515 2.617 . S
C507 C509 1.390 . S
C507 C510 1.339 . S
C507 H527 0.930 . S
C508 C505 1.416 . S
C508 C510 1.416 . S
C508 C514 1.448 . S
C509 N506 1.334 . S
C509 C507 1.390 . S
C509 H520 0.930 . S
C510 C507 1.339 . S
C510 C508 1.416 . S
C510 H531 0.930 . S
C511 C512 1.413 . S
C511 C513 1.427 . S
C511 C517 1.416 . S
C512 C505 1.424 . S
C512 C511 1.413 . S
C512 N516 1.361 . S
C513 C511 1.427 . S
C513 C514 1.328 . S
C513 H528 0.929 . S
C514 C508 1.448 . S
C514 C513 1.328 . S
C514 H529 0.930 . S
Tb515 N506 2.617 . S
Tb515 N516 2.572 . S
Tb515 O550 2.349 . S
Tb515 O553 2.393 . S
Tb515 O554 2.465 . S
Tb515 O555 2.387 . S
Tb515 O557 2.428 . S
Tb515 O558 2.308 . S
Tb515 C579 2.802 . S
N516 C512 1.361 . S
N516 Tb515 2.572 . S
N516 C518 1.340 . S
C517 C511 1.416 . S
C517 C519 1.332 . S
C517 H525 0.931 . S
C518 N516 1.340 . S
C518 C519 1.407 . S
C518 H524 0.930 . S
C519 C517 1.332 . S
C519 C518 1.407 . S
C519 H521 0.929 . S
H520 C509 0.930 . S
H521 C519 0.929 . S
H522 C537 0.930 . S
H523 C544 0.929 . S
H524 C518 0.930 . S
H525 C517 0.931 . S
H526 C540 0.930 . S
H527 C507 0.930 . S
H528 C513 0.929 . S
H529 C514 0.930 . S
H530 C535 0.930 . S
H531 C510 0.930 . S
H532 C543 0.931 . S
N533 Tb504 2.617 . S
N533 C534 1.379 . S
N533 C537 1.334 . S
C534 N533 1.379 . S
C534 C536 1.416 . S
C534 C542 1.424 . S
C535 H530 0.930 . S
C535 C537 1.390 . S
C535 C538 1.339 . S
C536 C534 1.416 . S
C536 C538 1.416 . S
C536 C569 1.448 . S
C537 H522 0.930 . S
C537 N533 1.334 . S
C537 C535 1.390 . S
C538 C535 1.339 . S
C538 C536 1.416 . S
C538 H545 0.930 . S
N539 Tb504 2.572 . S
N539 C540 1.340 . S
N539 C542 1.361 . S
C540 H526 0.930 . S
C540 N539 1.340 . S
C540 C544 1.407 . S
C541 C542 1.413 . S
C541 C543 1.416 . S
C541 C570 1.427 . S
C542 C534 1.424 . S
C542 N539 1.361 . S
C542 C541 1.413 . S
C543 H532 0.931 . S
C543 C541 1.416 . S
C543 C544 1.332 . S
C544 H523 0.929 . S
C544 C540 1.407 . S
C544 C543 1.332 . S
H545 C538 0.930 . S
H546 C569 0.930 . S
H547 C570 0.929 . S
O548 Tb504 2.465 . S
O548 C568 1.264 . S
O549 Tb504 2.387 . S
O549 C560 1.264 . S
O550 Tb515 2.349 . S
O550 C560 1.243 . S
O551 Tb504 2.428 . S
O551 C568 1.256 . S
O552 Tb504 2.308 . S
O552 C567 1.266 . S
O553 Tb515 2.393 . S
O553 C567 1.248 . S
O554 Tb515 2.465 . S
O554 C579 1.264 . S
O555 Tb515 2.387 . S
O555 C571 1.264 . S
O556 Tb504 2.349 . S
O556 C571 1.243 . S
O557 Tb515 2.428 . S
O557 C579 1.256 . S
O558 Tb515 2.308 . S
O558 C578 1.266 . S
O559 Tb504 2.393 . S
O559 C578 1.248 . S
C560 O549 1.264 . S
C560 O550 1.243 . S
C561 C564 1.399 . S
C561 C566 1.383 . S
C561 C568 1.496 . S
C562 C563 1.399 . S
C562 C566 1.389 . S
C563 C562 1.399 . S
C563 C565 1.380 . S
C563 H580 0.929 . S
C564 C561 1.399 . S
C564 C565 1.392 . S
C564 H581 0.929 . S
C565 C563 1.380 . S
C565 C564 1.392 . S
C565 H582 0.929 . S
C566 C561 1.383 . S
C566 C562 1.389 . S
C566 H583 0.931 . S
C567 O552 1.266 . S
C567 O553 1.248 . S
C568 Tb504 2.802 . S
C568 O548 1.264 . S
C568 O551 1.256 . S
C568 C561 1.496 . S
C569 C536 1.448 . S
C569 H546 0.930 . S
C569 C570 1.328 . S
C570 C541 1.427 . S
C570 H547 0.929 . S
C570 C569 1.328 . S
C571 O555 1.264 . S
C571 O556 1.243 . S
C572 C575 1.399 . S
C572 C576 1.383 . S
C572 C579 1.496 . S
C573 C574 1.399 . S
C573 C576 1.389 . S
C574 C573 1.399 . S
C574 C577 1.380 . S
C574 H584 0.929 . S
C575 C572 1.399 . S
C575 C577 1.392 . S
C575 H585 0.929 . S
C576 C572 1.383 . S
C576 C573 1.389 . S
C576 H586 0.931 . S
C577 C574 1.380 . S
C577 C575 1.392 . S
C577 H587 0.929 . S
C578 O558 1.266 . S
C578 O559 1.248 . S
C579 Tb515 2.802 . S
C579 O554 1.264 . S
C579 O557 1.256 . S
C579 C572 1.496 . S
H580 C563 0.929 . S
H581 C564 0.929 . S
H582 C565 0.929 . S
H583 C566 0.931 . S
H584 C574 0.929 . S
H585 C575 0.929 . S
H586 C576 0.931 . S
H587 C577 0.929 . S
Tb588 N617 2.617 . S
Tb588 N623 2.572 . S
Tb588 O632 2.465 . S
Tb588 O633 2.387 . S
Tb588 O635 2.428 . S
Tb588 O636 2.308 . S
Tb588 O640 2.349 . S
Tb588 O643 2.393 . S
Tb588 C652 2.802 . S
C589 N590 1.379 . S
C589 C592 1.416 . S
C589 C596 1.424 . S
N590 C589 1.379 . S
N590 C593 1.334 . S
N590 Tb599 2.617 . S
C591 C593 1.390 . S
C591 C594 1.339 . S
C591 H611 0.930 . S
C592 C589 1.416 . S
C592 C594 1.416 . S
C592 C598 1.448 . S
C593 N590 1.334 . S
C593 C591 1.390 . S
C593 H604 0.930 . S
C594 C591 1.339 . S
C594 C592 1.416 . S
C594 H615 0.930 . S
C595 C596 1.413 . S
C595 C597 1.427 . S
C595 C601 1.416 . S
C596 C589 1.424 . S
C596 C595 1.413 . S
C596 N600 1.361 . S
C597 C595 1.427 . S
C597 C598 1.328 . S
C597 H612 0.929 . S
C598 C592 1.448 . S
C598 C597 1.328 . S
C598 H613 0.930 . S
Tb599 N590 2.617 . S
Tb599 N600 2.572 . S
Tb599 O634 2.349 . S
Tb599 O637 2.393 . S
Tb599 O638 2.465 . S
Tb599 O639 2.387 . S
Tb599 O641 2.428 . S
Tb599 O642 2.308 . S
Tb599 C663 2.802 . S
N600 C596 1.361 . S
N600 Tb599 2.572 . S
N600 C602 1.340 . S
C601 C595 1.416 . S
C601 C603 1.332 . S
C601 H609 0.931 . S
C602 N600 1.340 . S
C602 C603 1.407 . S
C602 H608 0.930 . S
C603 C601 1.332 . S
C603 C602 1.407 . S
C603 H605 0.929 . S
H604 C593 0.930 . S
H605 C603 0.929 . S
H606 C621 0.930 . S
H607 C628 0.929 . S
H608 C602 0.930 . S
H609 C601 0.931 . S
H610 C624 0.930 . S
H611 C591 0.930 . S
H612 C597 0.929 . S
H613 C598 0.930 . S
H614 C619 0.930 . S
H615 C594 0.930 . S
H616 C627 0.931 . S
N617 Tb588 2.617 . S
N617 C618 1.379 . S
N617 C621 1.334 . S
C618 N617 1.379 . S
C618 C620 1.416 . S
C618 C626 1.424 . S
C619 H614 0.930 . S
C619 C621 1.390 . S
C619 C622 1.339 . S
C620 C618 1.416 . S
C620 C622 1.416 . S
C620 C653 1.448 . S
C621 H606 0.930 . S
C621 N617 1.334 . S
C621 C619 1.390 . S
C622 C619 1.339 . S
C622 C620 1.416 . S
C622 H629 0.930 . S
N623 Tb588 2.572 . S
N623 C624 1.340 . S
N623 C626 1.361 . S
C624 H610 0.930 . S
C624 N623 1.340 . S
C624 C628 1.407 . S
C625 C626 1.413 . S
C625 C627 1.416 . S
C625 C654 1.427 . S
C626 C618 1.424 . S
C626 N623 1.361 . S
C626 C625 1.413 . S
C627 H616 0.931 . S
C627 C625 1.416 . S
C627 C628 1.332 . S
C628 H607 0.929 . S
C628 C624 1.407 . S
C628 C627 1.332 . S
H629 C622 0.930 . S
H630 C653 0.930 . S
H631 C654 0.929 . S
O632 Tb588 2.465 . S
O632 C652 1.264 . S
O633 Tb588 2.387 . S
O633 C644 1.264 . S
O634 Tb599 2.349 . S
O634 C644 1.243 . S
O635 Tb588 2.428 . S
O635 C652 1.256 . S
O636 Tb588 2.308 . S
O636 C651 1.266 . S
O637 Tb599 2.393 . S
O637 C651 1.248 . S
O638 Tb599 2.465 . S
O638 C663 1.264 . S
O639 Tb599 2.387 . S
O639 C655 1.264 . S
O640 Tb588 2.349 . S
O640 C655 1.243 . S
O641 Tb599 2.428 . S
O641 C663 1.256 . S
O642 Tb599 2.308 . S
O642 C662 1.266 . S
O643 Tb588 2.393 . S
O643 C662 1.248 . S
C644 O633 1.264 . S
C644 O634 1.243 . S
C645 C648 1.399 . S
C645 C650 1.383 . S
C645 C652 1.496 . S
C646 C647 1.399 . S
C646 C650 1.389 . S
C647 C646 1.399 . S
C647 C649 1.380 . S
C647 H664 0.929 . S
C648 C645 1.399 . S
C648 C649 1.392 . S
C648 H665 0.929 . S
C649 C647 1.380 . S
C649 C648 1.392 . S
C649 H666 0.929 . S
C650 C645 1.383 . S
C650 C646 1.389 . S
C650 H667 0.931 . S
C651 O636 1.266 . S
C651 O637 1.248 . S
C652 Tb588 2.802 . S
C652 O632 1.264 . S
C652 O635 1.256 . S
C652 C645 1.496 . S
C653 C620 1.448 . S
C653 H630 0.930 . S
C653 C654 1.328 . S
C654 C625 1.427 . S
C654 H631 0.929 . S
C654 C653 1.328 . S
C655 O639 1.264 . S
C655 O640 1.243 . S
C656 C659 1.399 . S
C656 C660 1.383 . S
C656 C663 1.496 . S
C657 C658 1.399 . S
C657 C660 1.389 . S
C658 C657 1.399 . S
C658 C661 1.380 . S
C658 H668 0.929 . S
C659 C656 1.399 . S
C659 C661 1.392 . S
C659 H669 0.929 . S
C660 C656 1.383 . S
C660 C657 1.389 . S
C660 H670 0.931 . S
C661 C658 1.380 . S
C661 C659 1.392 . S
C661 H671 0.929 . S
C662 O642 1.266 . S
C662 O643 1.248 . S
C663 Tb599 2.802 . S
C663 O638 1.264 . S
C663 O641 1.256 . S
C663 C656 1.496 . S
H664 C647 0.929 . S
H665 C648 0.929 . S
H666 C649 0.929 . S
H667 C650 0.931 . S
H668 C658 0.929 . S
H669 C659 0.929 . S
H670 C660 0.931 . S
H671 C661 0.929 . S
Cd672 N675 2.334 1_655 S
Cd672 N701 2.304 1_565 S
Cd672 O708 2.268 . S
Cd672 O711 2.273 1_665 S
Cd672 O712 2.417 . S
Cd672 O713 2.330 . S
Cd673 N688 2.304 1_455 S
Cd673 N692 2.334 1_545 S
Cd673 O709 2.273 1_445 S
Cd673 O710 2.268 . S
Cd673 O714 2.417 . S
Cd673 O715 2.330 . S
C674 N675 1.332 . S
C674 C678 1.381 . S
C674 H680 0.931 . S
N675 Cd672 2.334 1_455 S
N675 C674 1.332 . S
N675 C679 1.328 . S
C676 C677 1.396 . S
C676 C679 1.378 . S
C676 H718 0.931 . S
C677 C676 1.396 . S
C677 C678 1.382 . S
C678 C674 1.381 . S
C678 C677 1.382 . S
C678 H719 0.930 . S
C679 N675 1.328 . S
C679 C676 1.378 . S
C679 H681 0.930 1_455 S
H680 C674 0.931 . S
H681 C679 0.930 1_655 S
C682 O708 1.238 . S
C682 O709 1.253 . S
C683 C684 1.379 . S
C683 N688 1.337 . S
C683 H689 0.929 . S
C684 C683 1.379 . S
C684 C685 1.380 . S
C684 H720 0.929 . S
C685 C684 1.380 . S
C685 C686 1.399 . S
C686 C685 1.399 . S
C686 C687 1.383 . S
C686 H721 0.931 . S
C687 C686 1.383 . S
C687 N688 1.337 . S
C687 H690 0.924 1_655 S
N688 Cd673 2.304 1_655 S
N688 C683 1.337 . S
N688 C687 1.337 . S
H689 C683 0.929 . S
H690 C687 0.924 1_455 S
C691 N692 1.332 . S
C691 C695 1.381 . S
C691 H697 0.931 . S
N692 Cd673 2.334 1_565 S
N692 C691 1.332 . S
N692 C696 1.328 . S
C693 C694 1.396 . S
C693 C696 1.378 . S
C693 H722 0.931 . S
C694 C693 1.396 . S
C694 C695 1.382 . S
C695 C691 1.381 . S
C695 C694 1.382 . S
C695 H723 0.930 . S
C696 N692 1.328 . S
C696 C693 1.378 . S
C696 H698 0.930 1_565 S
H697 C691 0.931 . S
H698 C696 0.930 1_545 S
C699 O710 1.238 . S
C699 O711 1.253 . S
C700 O712 1.239 . S
C700 O713 1.230 . S
N701 Cd672 2.304 1_545 S
N701 C702 1.337 . S
N701 C706 1.338 . S
C702 N701 1.337 . S
C702 C703 1.379 . S
C702 H716 0.929 . S
C703 C702 1.379 . S
C703 C704 1.380 . S
C703 H724 0.929 . S
C704 C703 1.380 . S
C704 C705 1.399 . S
C705 C704 1.399 . S
C705 C706 1.376 . S
C705 H725 0.931 . S
C706 N701 1.338 . S
C706 C705 1.376 . S
C706 H717 0.930 1_545 S
C707 O714 1.239 . S
C707 O715 1.230 . S
O708 Cd672 2.268 . S
O708 C682 1.238 . S
O709 Cd673 2.273 1_665 S
O709 C682 1.253 . S
O710 Cd673 2.268 . S
O710 C699 1.238 . S
O711 Cd672 2.273 1_445 S
O711 C699 1.253 . S
O712 Cd672 2.417 . S
O712 C700 1.239 . S
O713 Cd672 2.330 . S
O713 C700 1.230 . S
O714 Cd673 2.417 . S
O714 C707 1.239 . S
O715 Cd673 2.330 . S
O715 C707 1.230 . S
H716 C702 0.929 . S
H717 C706 0.930 1_565 S
H718 C676 0.931 . S
H719 C678 0.930 . S
H720 C684 0.929 . S
H721 C686 0.931 . S
H722 C693 0.931 . S
H723 C695 0.930 . S
H724 C703 0.929 . S
H725 C705 0.931 . S
Cd726 N729 2.334 . S
Cd726 N755 2.304 1_565 S
Cd726 O762 2.268 1_554 S
Cd726 O765 2.273 1_565 S
Cd726 O766 2.417 . S
Cd726 O767 2.330 . S
Cd727 N742 2.304 . S
Cd727 N746 2.334 1_545 S
Cd727 O763 2.273 1_545 S
Cd727 O764 2.268 1_556 S
Cd727 O768 2.417 . S
Cd727 O769 2.330 . S
C728 N729 1.332 . S
C728 C732 1.381 . S
C728 H734 0.931 . S
N729 Cd726 2.334 . S
N729 C728 1.332 . S
N729 C733 1.328 . S
C730 C731 1.396 . S
C730 C733 1.378 . S
C730 H772 0.931 1_554 S
C731 C730 1.396 . S
C731 C732 1.382 . S
C732 C728 1.381 . S
C732 C731 1.382 . S
C732 H773 0.930 . S
C733 N729 1.328 . S
C733 C730 1.378 . S
C733 H735 0.930 1_554 S
H734 C728 0.931 . S
H735 C733 0.930 1_556 S
C736 O762 1.238 . S
C736 O763 1.253 . S
C737 C738 1.379 . S
C737 N742 1.337 . S
C737 H743 0.929 . S
C738 C737 1.379 . S
C738 C739 1.380 . S
C738 H774 0.929 . S
C739 C738 1.380 . S
C739 C740 1.399 . S
C740 C739 1.399 . S
C740 C741 1.376 . S
C740 H775 0.931 1_556 S
C741 C740 1.376 . S
C741 N742 1.338 . S
C741 H744 0.930 1_556 S
N742 Cd727 2.304 . S
N742 C737 1.337 . S
N742 C741 1.338 . S
H743 C737 0.929 . S
H744 C741 0.930 1_554 S
C745 N746 1.332 . S
C745 C749 1.381 . S
C745 H751 0.931 . S
N746 Cd727 2.334 1_565 S
N746 C745 1.332 . S
N746 C750 1.328 . S
C747 C748 1.396 . S
C747 C750 1.378 . S
C747 H776 0.931 . S
C748 C747 1.396 . S
C748 C749 1.382 . S
C749 C745 1.381 . S
C749 C748 1.382 . S
C749 H777 0.930 . S
C750 N746 1.328 . S
C750 C747 1.378 . S
C750 H752 0.930 1_566 S
H751 C745 0.931 . S
H752 C750 0.930 1_544 S
C753 O764 1.238 . S
C753 O765 1.253 . S
C754 O766 1.239 . S
C754 O767 1.230 . S
N755 Cd726 2.304 1_545 S
N755 C756 1.337 . S
N755 C760 1.338 . S
C756 N755 1.337 . S
C756 C757 1.379 . S
C756 H770 0.929 . S
C757 C756 1.379 . S
C757 C758 1.380 . S
C757 H778 0.929 . S
C758 C757 1.380 . S
C758 C759 1.399 . S
C759 C758 1.399 . S
C759 C760 1.376 . S
C759 H779 0.931 . S
C760 N755 1.338 . S
C760 C759 1.376 . S
C760 H771 0.930 1_544 S
C761 O768 1.239 . S
C761 O769 1.230 . S
O762 Cd726 2.268 1_556 S
O762 C736 1.238 . S
O763 Cd727 2.273 1_565 S
O763 C736 1.253 . S
O764 Cd727 2.268 1_554 S
O764 C753 1.238 . S
O765 Cd726 2.273 1_545 S
O765 C753 1.253 . S
O766 Cd726 2.417 . S
O766 C754 1.239 . S
O767 Cd726 2.330 . S
O767 C754 1.230 . S
O768 Cd727 2.417 . S
O768 C761 1.239 . S
O769 Cd727 2.330 . S
O769 C761 1.230 . S
H770 C756 0.929 . S
H771 C760 0.930 1_566 S
H772 C730 0.931 1_556 S
H773 C732 0.930 . S
H774 C738 0.929 . S
H775 C740 0.931 1_554 S
H776 C747 0.931 . S
H777 C749 0.930 . S
H778 C757 0.929 . S
H779 C759 0.931 . S
Cd780 N783 2.334 1_655 S
Cd780 N809 2.304 . S
Cd780 O816 2.268 1_554 S
Cd780 O819 2.273 1_655 S
Cd780 O820 2.417 . S
Cd780 O821 2.330 . S
Cd781 N796 2.304 1_455 S
Cd781 N800 2.334 . S
Cd781 O817 2.273 1_455 S
Cd781 O818 2.268 1_556 S
Cd781 O822 2.417 . S
Cd781 O823 2.330 . S
C782 N783 1.332 . S
C782 C786 1.381 . S
C782 H788 0.931 . S
N783 Cd780 2.334 1_455 S
N783 C782 1.332 . S
N783 C787 1.328 . S
C784 C785 1.396 . S
C784 C787 1.378 . S
C784 H826 0.931 1_554 S
C785 C784 1.396 . S
C785 C786 1.382 . S
C786 C782 1.381 . S
C786 C785 1.382 . S
C786 H827 0.930 . S
C787 N783 1.328 . S
C787 C784 1.378 . S
C787 H789 0.930 1_454 S
H788 C782 0.931 . S
H789 C787 0.930 1_656 S
C790 O816 1.238 . S
C790 O817 1.253 . S
C791 C792 1.379 . S
C791 N796 1.337 . S
C791 H797 0.929 . S
C792 C791 1.379 . S
C792 C793 1.380 . S
C792 H828 0.929 . S
C793 C792 1.380 . S
C793 C794 1.399 . S
C794 C793 1.399 . S
C794 C795 1.387 . S
C794 H829 0.931 1_556 S
C795 C794 1.387 . S
C795 N796 1.336 . S
C795 H798 0.921 1_656 S
N796 Cd781 2.304 1_655 S
N796 C791 1.337 . S
N796 C795 1.336 . S
H797 C791 0.929 . S
H798 C795 0.921 1_454 S
C799 N800 1.332 . S
C799 C803 1.381 . S
C799 H805 0.931 . S
N800 Cd781 2.334 . S
N800 C799 1.332 . S
N800 C804 1.328 . S
C801 C802 1.396 . S
C801 C804 1.378 . S
C801 H830 0.931 . S
C802 C801 1.396 . S
C802 C803 1.382 . S
C803 C799 1.381 . S
C803 C802 1.382 . S
C803 H831 0.930 . S
C804 N800 1.328 . S
C804 C801 1.378 . S
C804 H806 0.930 1_556 S
H805 C799 0.931 . S
H806 C804 0.930 1_554 S
C807 O818 1.238 . S
C807 O819 1.253 . S
C808 O820 1.239 . S
C808 O821 1.230 . S
N809 Cd780 2.304 . S
N809 C810 1.337 . S
N809 C814 1.338 . S
C810 N809 1.337 . S
C810 C811 1.379 . S
C810 H824 0.929 . S
C811 C810 1.379 . S
C811 C812 1.380 . S
C811 H832 0.929 . S
C812 C811 1.380 . S
C812 C813 1.399 . S
C813 C812 1.399 . S
C813 C814 1.376 . S
C813 H833 0.931 . S
C814 N809 1.338 . S
C814 C813 1.376 . S
C814 H825 0.930 1_554 S
C815 O822 1.239 . S
C815 O823 1.230 . S
O816 Cd780 2.268 1_556 S
O816 C790 1.238 . S
O817 Cd781 2.273 1_655 S
O817 C790 1.253 . S
O818 Cd781 2.268 1_554 S
O818 C807 1.238 . S
O819 Cd780 2.273 1_455 S
O819 C807 1.253 . S
O820 Cd780 2.417 . S
O820 C808 1.239 . S
O821 Cd780 2.330 . S
O821 C808 1.230 . S
O822 Cd781 2.417 . S
O822 C815 1.239 . S
O823 Cd781 2.330 . S
O823 C815 1.230 . S
H824 C810 0.929 . S
H825 C814 0.930 1_556 S
H826 C784 0.931 1_556 S
H827 C786 0.930 . S
H828 C792 0.929 . S
H829 C794 0.931 1_554 S
H830 C801 0.931 . S
H831 C803 0.930 . S
H832 C811 0.929 . S
H833 C813 0.931 . S
Cd834 N837 2.334 . S
Cd834 N863 2.304 . S
Cd834 O870 2.268 1_554 S
Cd834 O873 2.273 . S
Cd834 O874 2.417 . S
Cd834 O875 2.330 . S
Cd835 N850 2.304 . S
Cd835 N854 2.334 . S
Cd835 O871 2.273 . S
Cd835 O872 2.268 1_556 S
Cd835 O876 2.417 . S
Cd835 O877 2.330 . S
C836 N837 1.332 . S
C836 C840 1.381 . S
C836 H842 0.931 . S
N837 Cd834 2.334 . S
N837 C836 1.332 . S
N837 C841 1.328 . S
C838 C839 1.396 . S
C838 C841 1.378 . S
C838 H880 0.931 1_554 S
C839 C838 1.396 . S
C839 C840 1.382 . S
C840 C836 1.381 . S
C840 C839 1.382 . S
C840 H881 0.930 . S
C841 N837 1.328 . S
C841 C838 1.378 . S
C841 H843 0.930 1_554 S
H842 C836 0.931 . S
H843 C841 0.930 1_556 S
C844 O870 1.238 . S
C844 O871 1.253 . S
C845 C846 1.379 . S
C845 N850 1.337 . S
C845 H851 0.929 . S
C846 C845 1.379 . S
C846 C847 1.380 . S
C846 H882 0.929 . S
C847 C846 1.380 . S
C847 C848 1.399 . S
C848 C847 1.399 . S
C848 C849 1.376 . S
C848 H883 0.931 1_556 S
C849 C848 1.376 . S
C849 N850 1.338 . S
C849 H852 0.930 1_556 S
N850 Cd835 2.304 . S
N850 C845 1.337 . S
N850 C849 1.338 . S
H851 C845 0.929 . S
H852 C849 0.930 1_554 S
C853 N854 1.332 . S
C853 C857 1.381 . S
C853 H859 0.931 . S
N854 Cd835 2.334 . S
N854 C853 1.332 . S
N854 C858 1.328 . S
C855 C856 1.396 . S
C855 C858 1.378 . S
C855 H884 0.931 . S
C856 C855 1.396 . S
C856 C857 1.382 . S
C857 C853 1.381 . S
C857 C856 1.382 . S
C857 H885 0.930 . S
C858 N854 1.328 . S
C858 C855 1.378 . S
C858 H860 0.930 1_556 S
H859 C853 0.931 . S
H860 C858 0.930 1_554 S
C861 O872 1.238 . S
C861 O873 1.253 . S
C862 O874 1.239 . S
C862 O875 1.230 . S
N863 Cd834 2.304 . S
N863 C864 1.337 . S
N863 C868 1.338 . S
C864 N863 1.337 . S
C864 C865 1.379 . S
C864 H878 0.929 . S
C865 C864 1.379 . S
C865 C866 1.380 . S
C865 H886 0.929 . S
C866 C865 1.380 . S
C866 C867 1.399 . S
C867 C866 1.399 . S
C867 C868 1.376 . S
C867 H887 0.931 . S
C868 N863 1.338 . S
C868 C867 1.376 . S
C868 H879 0.930 1_554 S
C869 O876 1.239 . S
C869 O877 1.230 . S
O870 Cd834 2.268 1_556 S
O870 C844 1.238 . S
O871 Cd835 2.273 . S
O871 C844 1.253 . S
O872 Cd835 2.268 1_554 S
O872 C861 1.238 . S
O873 Cd834 2.273 . S
O873 C861 1.253 . S
O874 Cd834 2.417 . S
O874 C862 1.239 . S
O875 Cd834 2.330 . S
O875 C862 1.230 . S
O876 Cd835 2.417 . S
O876 C869 1.239 . S
O877 Cd835 2.330 . S
O877 C869 1.230 . S
H878 C864 0.929 . S
H879 C868 0.930 1_556 S
H880 C838 0.931 1_556 S
H881 C840 0.930 . S
H882 C846 0.929 . S
H883 C848 0.931 1_554 S
H884 C855 0.931 . S
H885 C857 0.930 . S
H886 C865 0.929 . S
H887 C867 0.931 . S
Cd888 N891 2.334 1_655 S
Cd888 N917 2.304 . S
Cd888 O924 2.268 . S
Cd888 O927 2.273 1_655 S
Cd888 O928 2.417 . S
Cd888 O929 2.330 . S
Cd889 N904 2.304 1_455 S
Cd889 N908 2.334 . S
Cd889 O925 2.273 1_455 S
Cd889 O926 2.268 . S
Cd889 O930 2.417 . S
Cd889 O931 2.330 . S
C890 N891 1.332 . S
C890 C894 1.381 . S
C890 H896 0.931 . S
N891 Cd888 2.334 1_455 S
N891 C890 1.332 . S
N891 C895 1.328 . S
C892 C893 1.396 . S
C892 C895 1.378 . S
C892 H934 0.931 . S
C893 C892 1.396 . S
C893 C894 1.382 . S
C894 C890 1.381 . S
C894 C893 1.382 . S
C894 H935 0.930 . S
C895 N891 1.328 . S
C895 C892 1.378 . S
C895 H897 0.930 1_455 S
H896 C890 0.931 . S
H897 C895 0.930 1_655 S
C898 O924 1.238 . S
C898 O925 1.253 . S
C899 C900 1.379 . S
C899 N904 1.337 . S
C899 H905 0.929 . S
C900 C899 1.379 . S
C900 C901 1.380 . S
C900 H936 0.929 . S
C901 C900 1.380 . S
C901 C902 1.399 . S
C902 C901 1.399 . S
C902 C903 1.386 . S
C902 H937 0.931 . S
C903 C902 1.386 . S
C903 N904 1.336 . S
C903 H906 0.922 1_655 S
N904 Cd889 2.304 1_655 S
N904 C899 1.337 . S
N904 C903 1.336 . S
H905 C899 0.929 . S
H906 C903 0.922 1_455 S
C907 N908 1.332 . S
C907 C911 1.381 . S
C907 H913 0.931 . S
N908 Cd889 2.334 . S
N908 C907 1.332 . S
N908 C912 1.328 . S
C909 C910 1.396 . S
C909 C912 1.378 . S
C909 H938 0.931 . S
C910 C909 1.396 . S
C910 C911 1.382 . S
C911 C907 1.381 . S
C911 C910 1.382 . S
C911 H939 0.930 . S
C912 N908 1.328 . S
C912 C909 1.378 . S
C912 H914 0.930 . S
H913 C907 0.931 . S
H914 C912 0.930 . S
C915 O926 1.238 . S
C915 O927 1.253 . S
C916 O928 1.239 . S
C916 O929 1.230 . S
N917 Cd888 2.304 . S
N917 C918 1.337 . S
N917 C922 1.338 . S
C918 N917 1.337 . S
C918 C919 1.379 . S
C918 H932 0.929 . S
C919 C918 1.379 . S
C919 C920 1.380 . S
C919 H940 0.929 . S
C920 C919 1.380 . S
C920 C921 1.399 . S
C921 C920 1.399 . S
C921 C922 1.376 . S
C921 H941 0.931 . S
C922 N917 1.338 . S
C922 C921 1.376 . S
C922 H933 0.930 . S
C923 O930 1.239 . S
C923 O931 1.230 . S
O924 Cd888 2.268 . S
O924 C898 1.238 . S
O925 Cd889 2.273 1_655 S
O925 C898 1.253 . S
O926 Cd889 2.268 . S
O926 C915 1.238 . S
O927 Cd888 2.273 1_455 S
O927 C915 1.253 . S
O928 Cd888 2.417 . S
O928 C916 1.239 . S
O929 Cd888 2.330 . S
O929 C916 1.230 . S
O930 Cd889 2.417 . S
O930 C923 1.239 . S
O931 Cd889 2.330 . S
O931 C923 1.230 . S
H932 C918 0.929 . S
H933 C922 0.930 . S
H934 C892 0.931 . S
H935 C894 0.930 . S
H936 C900 0.929 . S
H937 C902 0.931 . S
H938 C909 0.931 . S
H939 C911 0.930 . S
H940 C919 0.929 . S
H941 C921 0.931 . S
Cd942 N945 2.334 . S
Cd942 N971 2.304 1_565 S
Cd942 O978 2.268 . S
Cd942 O981 2.273 1_565 S
Cd942 O982 2.417 . S
Cd942 O983 2.330 . S
Cd943 N958 2.304 . S
Cd943 N962 2.334 1_545 S
Cd943 O979 2.273 1_545 S
Cd943 O980 2.268 . S
Cd943 O984 2.417 . S
Cd943 O985 2.330 . S
C944 N945 1.332 . S
C944 C948 1.381 . S
C944 H950 0.931 . S
N945 Cd942 2.334 . S
N945 C944 1.332 . S
N945 C949 1.328 . S
C946 C947 1.396 . S
C946 C949 1.378 . S
C946 H988 0.931 . S
C947 C946 1.396 . S
C947 C948 1.382 . S
C948 C944 1.381 . S
C948 C947 1.382 . S
C948 H989 0.930 . S
C949 N945 1.328 . S
C949 C946 1.378 . S
C949 H951 0.930 . S
H950 C944 0.931 . S
H951 C949 0.930 . S
C952 O978 1.238 . S
C952 O979 1.253 . S
C953 C954 1.379 . S
C953 N958 1.337 . S
C953 H959 0.929 . S
C954 C953 1.379 . S
C954 C955 1.380 . S
C954 H990 0.929 . S
C955 C954 1.380 . S
C955 C956 1.399 . S
C956 C955 1.399 . S
C956 C957 1.376 . S
C956 H991 0.931 . S
C957 C956 1.376 . S
C957 N958 1.338 . S
C957 H960 0.930 . S
N958 Cd943 2.304 . S
N958 C953 1.337 . S
N958 C957 1.338 . S
H959 C953 0.929 . S
H960 C957 0.930 . S
C961 N962 1.332 . S
C961 C965 1.381 . S
C961 H967 0.931 . S
N962 Cd943 2.334 1_565 S
N962 C961 1.332 . S
N962 C966 1.328 . S
C963 C964 1.396 . S
C963 C966 1.378 . S
C963 H992 0.931 . S
C964 C963 1.396 . S
C964 C965 1.382 . S
C965 C961 1.381 . S
C965 C964 1.382 . S
C965 H993 0.930 . S
C966 N962 1.328 . S
C966 C963 1.378 . S
C966 H968 0.930 1_565 S
H967 C961 0.931 . S
H968 C966 0.930 1_545 S
C969 O980 1.238 . S
C969 O981 1.253 . S
C970 O982 1.239 . S
C970 O983 1.230 . S
N971 Cd942 2.304 1_545 S
N971 C972 1.337 . S
N971 C976 1.338 . S
C972 N971 1.337 . S
C972 C973 1.379 . S
C972 H986 0.929 . S
C973 C972 1.379 . S
C973 C974 1.380 . S
C973 H994 0.929 . S
C974 C973 1.380 . S
C974 C975 1.399 . S
C975 C974 1.399 . S
C975 C976 1.376 . S
C975 H995 0.931 . S
C976 N971 1.338 . S
C976 C975 1.376 . S
C976 H987 0.930 1_545 S
C977 O984 1.239 . S
C977 O985 1.230 . S
O978 Cd942 2.268 . S
O978 C952 1.238 . S
O979 Cd943 2.273 1_565 S
O979 C952 1.253 . S
O980 Cd943 2.268 . S
O980 C969 1.238 . S
O981 Cd942 2.273 1_545 S
O981 C969 1.253 . S
O982 Cd942 2.417 . S
O982 C970 1.239 . S
O983 Cd942 2.330 . S
O983 C970 1.230 . S
O984 Cd943 2.417 . S
O984 C977 1.239 . S
O985 Cd943 2.330 . S
O985 C977 1.230 . S
H986 C972 0.929 . S
H987 C976 0.930 1_565 S
H988 C946 0.931 . S
H989 C948 0.930 . S
H990 C954 0.929 . S
H991 C956 0.931 . S
H992 C963 0.931 . S
H993 C965 0.930 . S
H994 C973 0.929 . S
H995 C975 0.931 . S
H996 C1002 0.930 . S
H997 C1006 0.930 . S
H998 C1011 0.929 . S
H999 C1009 0.929 . S
H1000 C1004 0.929 . S
H1001 C1010 0.929 . S
C1002 H996 0.930 . S
C1002 C1003 1.367 . S
C1002 C1010 1.378 . S
C1003 C1002 1.367 . S
C1003 C1011 1.433 . S
C1004 H1000 0.929 . S
C1004 C1006 1.378 . S
C1004 C1008 1.350 . S
C1005 C1008 1.463 . S
C1005 C1010 1.350 . S
C1005 N1013 1.427 . S
C1006 H997 0.930 . S
C1006 C1004 1.378 . S
C1006 C1007 1.367 . S
C1007 C1006 1.367 . S
C1007 C1009 1.433 . S
C1008 C1004 1.350 . S
C1008 C1005 1.463 . S
C1008 N1012 1.427 . S
C1009 H999 0.929 . S
C1009 C1007 1.433 . S
C1009 N1012 1.384 . S
C1010 H1001 0.929 . S
C1010 C1002 1.378 . S
C1010 C1005 1.350 . S
C1011 H998 0.929 . S
C1011 C1003 1.433 . S
C1011 N1013 1.384 . S
N1012 C1008 1.427 . S
N1012 C1009 1.384 . S
N1013 C1005 1.427 . S
N1013 C1011 1.384 . S
H1014 C1020 0.930 . S
H1015 C1024 0.930 . S
H1016 C1029 0.929 . S
H1017 C1027 0.929 . S
H1018 C1022 0.929 . S
H1019 C1028 0.929 . S
C1020 H1014 0.930 . S
C1020 C1021 1.367 . S
C1020 C1028 1.378 . S
C1021 C1020 1.367 . S
C1021 C1029 1.433 . S
C1022 H1018 0.929 . S
C1022 C1024 1.378 . S
C1022 C1026 1.350 . S
C1023 C1026 1.463 . S
C1023 C1028 1.350 . S
C1023 N1031 1.427 . S
C1024 H1015 0.930 . S
C1024 C1022 1.378 . S
C1024 C1025 1.367 . S
C1025 C1024 1.367 . S
C1025 C1027 1.433 . S
C1026 C1022 1.350 . S
C1026 C1023 1.463 . S
C1026 N1030 1.427 . S
C1027 H1017 0.929 . S
C1027 C1025 1.433 . S
C1027 N1030 1.384 . S
C1028 H1019 0.929 . S
C1028 C1020 1.378 . S
C1028 C1023 1.350 . S
C1029 H1016 0.929 . S
C1029 C1021 1.433 . S
C1029 N1031 1.384 . S
N1030 C1026 1.427 . S
N1030 C1027 1.384 . S
N1031 C1023 1.427 . S
N1031 C1029 1.384 . S
H1032 C1038 0.930 . S
H1033 C1042 0.930 . S
H1034 C1047 0.929 . S
H1035 C1045 0.929 . S
H1036 C1040 0.929 . S
H1037 C1046 0.929 . S
C1038 H1032 0.930 . S
C1038 C1039 1.367 . S
C1038 C1046 1.378 . S
C1039 C1038 1.367 . S
C1039 C1047 1.433 . S
C1040 H1036 0.929 . S
C1040 C1042 1.378 . S
C1040 C1044 1.350 . S
C1041 C1044 1.463 . S
C1041 C1046 1.350 . S
C1041 N1049 1.427 . S
C1042 H1033 0.930 . S
C1042 C1040 1.378 . S
C1042 C1043 1.367 . S
C1043 C1042 1.367 . S
C1043 C1045 1.433 . S
C1044 C1040 1.350 . S
C1044 C1041 1.463 . S
C1044 N1048 1.427 . S
C1045 H1035 0.929 . S
C1045 C1043 1.433 . S
C1045 N1048 1.384 . S
C1046 H1037 0.929 . S
C1046 C1038 1.378 . S
C1046 C1041 1.350 . S
C1047 H1034 0.929 . S
C1047 C1039 1.433 . S
C1047 N1049 1.384 . S
N1048 C1044 1.427 . S
N1048 C1045 1.384 . S
N1049 C1041 1.427 . S
N1049 C1047 1.384 . S
H1050 C1056 0.930 . S
H1051 C1060 0.930 . S
H1052 C1065 0.929 . S
H1053 C1063 0.929 . S
H1054 C1058 0.929 . S
H1055 C1064 0.929 . S
C1056 H1050 0.930 . S
C1056 C1057 1.367 . S
C1056 C1064 1.378 . S
C1057 C1056 1.367 . S
C1057 C1065 1.433 . S
C1058 H1054 0.929 . S
C1058 C1060 1.378 . S
C1058 C1062 1.350 . S
C1059 C1062 1.463 . S
C1059 C1064 1.350 . S
C1059 N1067 1.427 . S
C1060 H1051 0.930 . S
C1060 C1058 1.378 . S
C1060 C1061 1.367 . S
C1061 C1060 1.367 . S
C1061 C1063 1.433 . S
C1062 C1058 1.350 . S
C1062 C1059 1.463 . S
C1062 N1066 1.427 . S
C1063 H1053 0.929 . S
C1063 C1061 1.433 . S
C1063 N1066 1.384 . S
C1064 H1055 0.929 . S
C1064 C1056 1.378 . S
C1064 C1059 1.350 . S
C1065 H1052 0.929 . S
C1065 C1057 1.433 . S
C1065 N1067 1.384 . S
N1066 C1062 1.427 . S
N1066 C1063 1.384 . S
N1067 C1059 1.427 . S
N1067 C1065 1.384 . S
H1068 C1074 0.930 . S
H1069 C1078 0.930 . S
H1070 C1083 0.929 . S
H1071 C1081 0.929 . S
H1072 C1076 0.929 . S
H1073 C1082 0.929 . S
C1074 H1068 0.930 . S
C1074 C1075 1.367 . S
C1074 C1082 1.378 . S
C1075 C1074 1.367 . S
C1075 C1083 1.433 . S
C1076 H1072 0.929 . S
C1076 C1078 1.378 . S
C1076 C1080 1.350 . S
C1077 C1080 1.463 . S
C1077 C1082 1.350 . S
C1077 N1085 1.427 . S
C1078 H1069 0.930 . S
C1078 C1076 1.378 . S
C1078 C1079 1.367 . S
C1079 C1078 1.367 . S
C1079 C1081 1.433 . S
C1080 C1076 1.350 . S
C1080 C1077 1.463 . S
C1080 N1084 1.427 . S
C1081 H1071 0.929 . S
C1081 C1079 1.433 . S
C1081 N1084 1.384 . S
C1082 H1073 0.929 . S
C1082 C1074 1.378 . S
C1082 C1077 1.350 . S
C1083 H1070 0.929 . S
C1083 C1075 1.433 . S
C1083 N1085 1.384 . S
N1084 C1080 1.427 . S
N1084 C1081 1.384 . S
N1085 C1077 1.427 . S
N1085 C1083 1.384 . S
H1086 C1092 0.930 . S
H1087 C1096 0.930 . S
H1088 C1101 0.929 . S
H1089 C1099 0.929 . S
H1090 C1094 0.929 . S
H1091 C1100 0.929 . S
C1092 H1086 0.930 . S
C1092 C1093 1.367 . S
C1092 C1100 1.378 . S
C1093 C1092 1.367 . S
C1093 C1101 1.433 . S
C1094 H1090 0.929 . S
C1094 C1096 1.378 . S
C1094 C1098 1.350 . S
C1095 C1098 1.463 . S
C1095 C1100 1.350 . S
C1095 N1103 1.427 . S
C1096 H1087 0.930 . S
C1096 C1094 1.378 . S
C1096 C1097 1.367 . S
C1097 C1096 1.367 . S
C1097 C1099 1.433 . S
C1098 C1094 1.350 . S
C1098 C1095 1.463 . S
C1098 N1102 1.427 . S
C1099 H1089 0.929 . S
C1099 C1097 1.433 . S
C1099 N1102 1.384 . S
C1100 H1091 0.929 . S
C1100 C1092 1.378 . S
C1100 C1095 1.350 . S
C1101 H1088 0.929 . S
C1101 C1093 1.433 . S
C1101 N1103 1.384 . S
N1102 C1098 1.427 . S
N1102 C1099 1.384 . S
N1103 C1095 1.427 . S
N1103 C1101 1.384 . S
H1104 C1110 0.930 . S
H1105 C1114 0.930 . S
H1106 C1119 0.929 . S
H1107 C1117 0.929 . S
H1108 C1112 0.929 . S
H1109 C1118 0.929 . S
C1110 H1104 0.930 . S
C1110 C1111 1.367 . S
C1110 C1118 1.378 . S
C1111 C1110 1.367 . S
C1111 C1119 1.433 . S
C1112 H1108 0.929 . S
C1112 C1114 1.378 . S
C1112 C1116 1.350 . S
C1113 C1116 1.463 . S
C1113 C1118 1.350 . S
C1113 N1121 1.427 . S
C1114 H1105 0.930 . S
C1114 C1112 1.378 . S
C1114 C1115 1.367 . S
C1115 C1114 1.367 . S
C1115 C1117 1.433 . S
C1116 C1112 1.350 . S
C1116 C1113 1.463 . S
C1116 N1120 1.427 . S
C1117 H1107 0.929 . S
C1117 C1115 1.433 . S
C1117 N1120 1.384 . S
C1118 H1109 0.929 . S
C1118 C1110 1.378 . S
C1118 C1113 1.350 . S
C1119 H1106 0.929 . S
C1119 C1111 1.433 . S
C1119 N1121 1.384 . S
N1120 C1116 1.427 . S
N1120 C1117 1.384 . S
N1121 C1113 1.427 . S
N1121 C1119 1.384 . S
H1122 C1128 0.930 . S
H1123 C1132 0.930 . S
H1124 C1137 0.929 . S
H1125 C1135 0.929 . S
H1126 C1130 0.929 . S
H1127 C1136 0.929 . S
C1128 H1122 0.930 . S
C1128 C1129 1.367 . S
C1128 C1136 1.378 . S
C1129 C1128 1.367 . S
C1129 C1137 1.433 . S
C1130 H1126 0.929 . S
C1130 C1132 1.378 . S
C1130 C1134 1.350 . S
C1131 C1134 1.463 . S
C1131 C1136 1.350 . S
C1131 N1139 1.427 . S
C1132 H1123 0.930 . S
C1132 C1130 1.378 . S
C1132 C1133 1.367 . S
C1133 C1132 1.367 . S
C1133 C1135 1.433 . S
C1134 C1130 1.350 . S
C1134 C1131 1.463 . S
C1134 N1138 1.427 . S
C1135 H1125 0.929 . S
C1135 C1133 1.433 . S
C1135 N1138 1.384 . S
C1136 H1127 0.929 . S
C1136 C1128 1.378 . S
C1136 C1131 1.350 . S
C1137 H1124 0.929 . S
C1137 C1129 1.433 . S
C1137 N1139 1.384 . S
N1138 C1134 1.427 . S
N1138 C1135 1.384 . S
N1139 C1131 1.427 . S
N1139 C1137 1.384 . S
H1140 C1146 0.930 . S
H1141 C1150 0.930 . S
H1142 C1155 0.929 . S
H1143 C1153 0.929 . S
H1144 C1148 0.929 . S
H1145 C1154 0.929 . S
C1146 H1140 0.930 . S
C1146 C1147 1.367 . S
C1146 C1154 1.378 . S
C1147 C1146 1.367 . S
C1147 C1155 1.433 . S
C1148 H1144 0.929 . S
C1148 C1150 1.378 . S
C1148 C1152 1.350 . S
C1149 C1152 1.463 . S
C1149 C1154 1.350 . S
C1149 N1157 1.427 . S
C1150 H1141 0.930 . S
C1150 C1148 1.378 . S
C1150 C1151 1.367 . S
C1151 C1150 1.367 . S
C1151 C1153 1.433 . S
C1152 C1148 1.350 . S
C1152 C1149 1.463 . S
C1152 N1156 1.427 . S
C1153 H1143 0.929 . S
C1153 C1151 1.433 . S
C1153 N1156 1.384 . S
C1154 H1145 0.929 . S
C1154 C1146 1.378 . S
C1154 C1149 1.350 . S
C1155 H1142 0.929 . S
C1155 C1147 1.433 . S
C1155 N1157 1.384 . S
N1156 C1152 1.427 . S
N1156 C1153 1.384 . S
N1157 C1149 1.427 . S
N1157 C1155 1.384 . S
H1158 C1164 0.930 . S
H1159 C1168 0.930 . S
H1160 C1173 0.929 . S
H1161 C1171 0.929 . S
H1162 C1166 0.929 . S
H1163 C1172 0.929 . S
C1164 H1158 0.930 . S
C1164 C1165 1.367 . S
C1164 C1172 1.378 . S
C1165 C1164 1.367 . S
C1165 C1173 1.433 . S
C1166 H1162 0.929 . S
C1166 C1168 1.378 . S
C1166 C1170 1.350 . S
C1167 C1170 1.463 . S
C1167 C1172 1.350 . S
C1167 N1175 1.427 . S
C1168 H1159 0.930 . S
C1168 C1166 1.378 . S
C1168 C1169 1.367 . S
C1169 C1168 1.367 . S
C1169 C1171 1.433 . S
C1170 C1166 1.350 . S
C1170 C1167 1.463 . S
C1170 N1174 1.427 . S
C1171 H1161 0.929 . S
C1171 C1169 1.433 . S
C1171 N1174 1.384 . S
C1172 H1163 0.929 . S
C1172 C1164 1.378 . S
C1172 C1167 1.350 . S
C1173 H1160 0.929 . S
C1173 C1165 1.433 . S
C1173 N1175 1.384 . S
N1174 C1170 1.427 . S
N1174 C1171 1.384 . S
N1175 C1167 1.427 . S
N1175 C1173 1.384 . S
H1176 C1182 0.930 . S
H1177 C1186 0.930 . S
H1178 C1191 0.929 . S
H1179 C1189 0.929 . S
H1180 C1184 0.929 . S
H1181 C1190 0.929 . S
C1182 H1176 0.930 . S
C1182 C1183 1.367 . S
C1182 C1190 1.378 . S
C1183 C1182 1.367 . S
C1183 C1191 1.433 . S
C1184 H1180 0.929 . S
C1184 C1186 1.378 . S
C1184 C1188 1.350 . S
C1185 C1188 1.463 . S
C1185 C1190 1.350 . S
C1185 N1193 1.427 . S
C1186 H1177 0.930 . S
C1186 C1184 1.378 . S
C1186 C1187 1.367 . S
C1187 C1186 1.367 . S
C1187 C1189 1.433 . S
C1188 C1184 1.350 . S
C1188 C1185 1.463 . S
C1188 N1192 1.427 . S
C1189 H1179 0.929 . S
C1189 C1187 1.433 . S
C1189 N1192 1.384 . S
C1190 H1181 0.929 . S
C1190 C1182 1.378 . S
C1190 C1185 1.350 . S
C1191 H1178 0.929 . S
C1191 C1183 1.433 . S
C1191 N1193 1.384 . S
N1192 C1188 1.427 . S
N1192 C1189 1.384 . S
N1193 C1185 1.427 . S
N1193 C1191 1.384 . S
H1194 C1200 0.930 . S
H1195 C1204 0.930 . S
H1196 C1209 0.929 . S
H1197 C1207 0.929 . S
H1198 C1202 0.929 . S
H1199 C1208 0.929 . S
C1200 H1194 0.930 . S
C1200 C1201 1.367 . S
C1200 C1208 1.378 . S
C1201 C1200 1.367 . S
C1201 C1209 1.433 . S
C1202 H1198 0.929 . S
C1202 C1204 1.378 . S
C1202 C1206 1.350 . S
C1203 C1206 1.463 . S
C1203 C1208 1.350 . S
C1203 N1211 1.427 . S
C1204 H1195 0.930 . S
C1204 C1202 1.378 . S
C1204 C1205 1.367 . S
C1205 C1204 1.367 . S
C1205 C1207 1.433 . S
C1206 C1202 1.350 . S
C1206 C1203 1.463 . S
C1206 N1210 1.427 . S
C1207 H1197 0.929 . S
C1207 C1205 1.433 . S
C1207 N1210 1.384 . S
C1208 H1199 0.929 . S
C1208 C1200 1.378 . S
C1208 C1203 1.350 . S
C1209 H1196 0.929 . S
C1209 C1201 1.433 . S
C1209 N1211 1.384 . S
N1210 C1206 1.427 . S
N1210 C1207 1.384 . S
N1211 C1203 1.427 . S
N1211 C1209 1.384 . S
H1212 C1218 0.930 . S
H1213 C1222 0.930 . S
H1214 C1227 0.929 . S
H1215 C1225 0.929 . S
H1216 C1220 0.929 . S
H1217 C1226 0.929 . S
C1218 H1212 0.930 . S
C1218 C1219 1.367 . S
C1218 C1226 1.378 . S
C1219 C1218 1.367 . S
C1219 C1227 1.433 . S
C1220 H1216 0.929 . S
C1220 C1222 1.378 . S
C1220 C1224 1.350 . S
C1221 C1224 1.463 . S
C1221 C1226 1.350 . S
C1221 N1229 1.427 . S
C1222 H1213 0.930 . S
C1222 C1220 1.378 . S
C1222 C1223 1.367 . S
C1223 C1222 1.367 . S
C1223 C1225 1.433 . S
C1224 C1220 1.350 . S
C1224 C1221 1.463 . S
C1224 N1228 1.427 . S
C1225 H1215 0.929 . S
C1225 C1223 1.433 . S
C1225 N1228 1.384 . S
C1226 H1217 0.929 . S
C1226 C1218 1.378 . S
C1226 C1221 1.350 . S
C1227 H1214 0.929 . S
C1227 C1219 1.433 . S
C1227 N1229 1.384 . S
N1228 C1224 1.427 . S
N1228 C1225 1.384 . S
N1229 C1221 1.427 . S
N1229 C1227 1.384 . S
H1230 C1236 0.930 . S
H1231 C1240 0.930 . S
H1232 C1245 0.929 . S
H1233 C1243 0.929 . S
H1234 C1238 0.929 . S
H1235 C1244 0.929 . S
C1236 H1230 0.930 . S
C1236 C1237 1.367 . S
C1236 C1244 1.378 . S
C1237 C1236 1.367 . S
C1237 C1245 1.433 . S
C1238 H1234 0.929 . S
C1238 C1240 1.378 . S
C1238 C1242 1.350 . S
C1239 C1242 1.463 . S
C1239 C1244 1.350 . S
C1239 N1247 1.427 . S
C1240 H1231 0.930 . S
C1240 C1238 1.378 . S
C1240 C1241 1.367 . S
C1241 C1240 1.367 . S
C1241 C1243 1.433 . S
C1242 C1238 1.350 . S
C1242 C1239 1.463 . S
C1242 N1246 1.427 . S
C1243 H1233 0.929 . S
C1243 C1241 1.433 . S
C1243 N1246 1.384 . S
C1244 H1235 0.929 . S
C1244 C1236 1.378 . S
C1244 C1239 1.350 . S
C1245 H1232 0.929 . S
C1245 C1237 1.433 . S
C1245 N1247 1.384 . S
N1246 C1242 1.427 . S
N1246 C1243 1.384 . S
N1247 C1239 1.427 . S
N1247 C1245 1.384 . S
H1248 C1254 0.930 . S
H1249 C1258 0.930 . S
H1250 C1263 0.929 . S
H1251 C1261 0.929 . S
H1252 C1256 0.929 . S
H1253 C1262 0.929 . S
C1254 H1248 0.930 . S
C1254 C1255 1.367 . S
C1254 C1262 1.378 . S
C1255 C1254 1.367 . S
C1255 C1263 1.433 . S
C1256 H1252 0.929 . S
C1256 C1258 1.378 . S
C1256 C1260 1.350 . S
C1257 C1260 1.463 . S
C1257 C1262 1.350 . S
C1257 N1265 1.427 . S
C1258 H1249 0.930 . S
C1258 C1256 1.378 . S
C1258 C1259 1.367 . S
C1259 C1258 1.367 . S
C1259 C1261 1.433 . S
C1260 C1256 1.350 . S
C1260 C1257 1.463 . S
C1260 N1264 1.427 . S
C1261 H1251 0.929 . S
C1261 C1259 1.433 . S
C1261 N1264 1.384 . S
C1262 H1253 0.929 . S
C1262 C1254 1.378 . S
C1262 C1257 1.350 . S
C1263 H1250 0.929 . S
C1263 C1255 1.433 . S
C1263 N1265 1.384 . S
N1264 C1260 1.427 . S
N1264 C1261 1.384 . S
N1265 C1257 1.427 . S
N1265 C1263 1.384 . S
H1266 C1272 0.930 . S
H1267 C1276 0.930 . S
H1268 C1281 0.929 . S
H1269 C1279 0.929 . S
H1270 C1274 0.929 . S
H1271 C1280 0.929 . S
C1272 H1266 0.930 . S
C1272 C1273 1.367 . S
C1272 C1280 1.378 . S
C1273 C1272 1.367 . S
C1273 C1281 1.433 . S
C1274 H1270 0.929 . S
C1274 C1276 1.378 . S
C1274 C1278 1.350 . S
C1275 C1278 1.463 . S
C1275 C1280 1.350 . S
C1275 N1283 1.427 . S
C1276 H1267 0.930 . S
C1276 C1274 1.378 . S
C1276 C1277 1.367 . S
C1277 C1276 1.367 . S
C1277 C1279 1.433 . S
C1278 C1274 1.350 . S
C1278 C1275 1.463 . S
C1278 N1282 1.427 . S
C1279 H1269 0.929 . S
C1279 C1277 1.433 . S
C1279 N1282 1.384 . S
C1280 H1271 0.929 . S
C1280 C1272 1.378 . S
C1280 C1275 1.350 . S
C1281 H1268 0.929 . S
C1281 C1273 1.433 . S
C1281 N1283 1.384 . S
N1282 C1278 1.427 . S
N1282 C1279 1.384 . S
N1283 C1275 1.427 . S
N1283 C1281 1.384 . S
H1284 C1290 0.930 . S
H1285 C1294 0.930 1_556 S
H1286 C1299 0.929 . S
H1287 C1297 0.929 . S
H1288 C1292 0.929 . S
H1289 C1298 0.929 . S
C1290 H1284 0.930 . S
C1290 C1291 1.367 . S
C1290 C1298 1.378 . S
C1291 C1290 1.367 . S
C1291 C1299 1.433 . S
C1292 H1288 0.929 . S
C1292 C1294 1.378 . S
C1292 C1296 1.350 . S
C1293 C1296 1.463 . S
C1293 C1298 1.350 . S
C1293 N1301 1.427 . S
C1294 H1285 0.930 1_554 S
C1294 C1292 1.378 . S
C1294 C1295 1.367 . S
C1295 C1294 1.367 . S
C1295 C1297 1.433 . S
C1296 C1292 1.350 . S
C1296 C1293 1.463 . S
C1296 N1300 1.427 . S
C1297 H1287 0.929 . S
C1297 C1295 1.433 . S
C1297 N1300 1.384 . S
C1298 H1289 0.929 . S
C1298 C1290 1.378 . S
C1298 C1293 1.350 . S
C1299 H1286 0.929 . S
C1299 C1291 1.433 . S
C1299 N1301 1.384 . S
N1300 C1296 1.427 . S
N1300 C1297 1.384 . S
N1301 C1293 1.427 . S
N1301 C1299 1.384 . S
H1302 C1308 0.930 . S
H1303 C1312 0.930 . S
H1304 C1317 0.929 . S
H1305 C1315 0.929 . S
H1306 C1310 0.929 . S
H1307 C1316 0.929 . S
C1308 H1302 0.930 . S
C1308 C1309 1.367 . S
C1308 C1316 1.378 . S
C1309 C1308 1.367 . S
C1309 C1317 1.433 . S
C1310 H1306 0.929 . S
C1310 C1312 1.378 . S
C1310 C1314 1.350 . S
C1311 C1314 1.463 . S
C1311 C1316 1.350 . S
C1311 N1319 1.427 . S
C1312 H1303 0.930 . S
C1312 C1310 1.378 . S
C1312 C1313 1.367 . S
C1313 C1312 1.367 . S
C1313 C1315 1.433 . S
C1314 C1310 1.350 . S
C1314 C1311 1.463 . S
C1314 N1318 1.427 . S
C1315 H1305 0.929 . S
C1315 C1313 1.433 . S
C1315 N1318 1.384 . S
C1316 H1307 0.929 . S
C1316 C1308 1.378 . S
C1316 C1311 1.350 . S
C1317 H1304 0.929 . S
C1317 C1309 1.433 . S
C1317 N1319 1.384 . S
N1318 C1314 1.427 . S
N1318 C1315 1.384 . S
N1319 C1311 1.427 . S
N1319 C1317 1.384 . S
H1320 C1326 0.930 . S
H1321 C1330 0.930 1_554 S
H1322 C1335 0.929 . S
H1323 C1333 0.929 . S
H1324 C1328 0.929 . S
H1325 C1334 0.929 . S
C1326 H1320 0.930 . S
C1326 C1327 1.367 . S
C1326 C1334 1.378 . S
C1327 C1326 1.367 . S
C1327 C1335 1.433 . S
C1328 H1324 0.929 . S
C1328 C1330 1.378 . S
C1328 C1332 1.350 . S
C1329 C1332 1.463 . S
C1329 C1334 1.350 . S
C1329 N1337 1.427 . S
C1330 H1321 0.930 1_556 S
C1330 C1328 1.378 . S
C1330 C1331 1.367 . S
C1331 C1330 1.367 . S
C1331 C1333 1.433 . S
C1332 C1328 1.350 . S
C1332 C1329 1.463 . S
C1332 N1336 1.427 . S
C1333 H1323 0.929 . S
C1333 C1331 1.433 . S
C1333 N1336 1.384 . S
C1334 H1325 0.929 . S
C1334 C1326 1.378 . S
C1334 C1329 1.350 . S
C1335 H1322 0.929 . S
C1335 C1327 1.433 . S
C1335 N1337 1.384 . S
N1336 C1332 1.427 . S
N1336 C1333 1.384 . S
N1337 C1329 1.427 . S
N1337 C1335 1.384 . S
H1338 C1344 0.930 . S
H1339 C1348 0.930 . S
H1340 C1353 0.929 . S
H1341 C1351 0.929 . S
H1342 C1346 0.929 . S
H1343 C1352 0.929 . S
C1344 H1338 0.930 . S
C1344 C1345 1.367 . S
C1344 C1352 1.378 . S
C1345 C1344 1.367 . S
C1345 C1353 1.433 . S
C1346 H1342 0.929 . S
C1346 C1348 1.378 . S
C1346 C1350 1.350 . S
C1347 C1350 1.463 . S
C1347 C1352 1.350 . S
C1347 N1355 1.427 . S
C1348 H1339 0.930 . S
C1348 C1346 1.378 . S
C1348 C1349 1.367 . S
C1349 C1348 1.367 . S
C1349 C1351 1.433 . S
C1350 C1346 1.350 . S
C1350 C1347 1.463 . S
C1350 N1354 1.427 . S
C1351 H1341 0.929 . S
C1351 C1349 1.433 . S
C1351 N1354 1.384 . S
C1352 H1343 0.929 . S
C1352 C1344 1.378 . S
C1352 C1347 1.350 . S
C1353 H1340 0.929 . S
C1353 C1345 1.433 . S
C1353 N1355 1.384 . S
N1354 C1350 1.427 . S
N1354 C1351 1.384 . S
N1355 C1347 1.427 . S
N1355 C1353 1.384 . S
H1356 C1362 0.930 . S
H1357 C1366 0.930 . S
H1358 C1371 0.929 . S
H1359 C1369 0.929 . S
H1360 C1364 0.929 . S
H1361 C1370 0.929 . S
C1362 H1356 0.930 . S
C1362 C1363 1.367 . S
C1362 C1370 1.378 . S
C1363 C1362 1.367 . S
C1363 C1371 1.433 . S
C1364 H1360 0.929 . S
C1364 C1366 1.378 . S
C1364 C1368 1.350 . S
C1365 C1368 1.463 . S
C1365 C1370 1.350 . S
C1365 N1373 1.427 . S
C1366 H1357 0.930 . S
C1366 C1364 1.378 . S
C1366 C1367 1.367 . S
C1367 C1366 1.367 . S
C1367 C1369 1.433 . S
C1368 C1364 1.350 . S
C1368 C1365 1.463 . S
C1368 N1372 1.427 . S
C1369 H1359 0.929 . S
C1369 C1367 1.433 . S
C1369 N1372 1.384 . S
C1370 H1361 0.929 . S
C1370 C1362 1.378 . S
C1370 C1365 1.350 . S
C1371 H1358 0.929 . S
C1371 C1363 1.433 . S
C1371 N1373 1.384 . S
N1372 C1368 1.427 . S
N1372 C1369 1.384 . S
N1373 C1365 1.427 . S
N1373 C1371 1.384 . S
H1374 C1380 0.930 . S
H1375 C1384 0.930 . S
H1376 C1389 0.929 . S
H1377 C1387 0.929 . S
H1378 C1382 0.929 . S
H1379 C1388 0.929 . S
C1380 H1374 0.930 . S
C1380 C1381 1.367 . S
C1380 C1388 1.378 . S
C1381 C1380 1.367 . S
C1381 C1389 1.433 . S
C1382 H1378 0.929 . S
C1382 C1384 1.378 . S
C1382 C1386 1.350 . S
C1383 C1386 1.463 . S
C1383 C1388 1.350 . S
C1383 N1391 1.427 . S
C1384 H1375 0.930 . S
C1384 C1382 1.378 . S
C1384 C1385 1.367 . S
C1385 C1384 1.367 . S
C1385 C1387 1.433 . S
C1386 C1382 1.350 . S
C1386 C1383 1.463 . S
C1386 N1390 1.427 . S
C1387 H1377 0.929 . S
C1387 C1385 1.433 . S
C1387 N1390 1.384 . S
C1388 H1379 0.929 . S
C1388 C1380 1.378 . S
C1388 C1383 1.350 . S
C1389 H1376 0.929 . S
C1389 C1381 1.433 . S
C1389 N1391 1.384 . S
N1390 C1386 1.427 . S
N1390 C1387 1.384 . S
N1391 C1383 1.427 . S
N1391 C1389 1.384 . S
H1392 C1398 0.930 . S
H1393 C1402 0.930 . S
H1394 C1407 0.929 . S
H1395 C1405 0.929 . S
H1396 C1400 0.929 . S
H1397 C1406 0.929 . S
C1398 H1392 0.930 . S
C1398 C1399 1.367 . S
C1398 C1406 1.378 . S
C1399 C1398 1.367 . S
C1399 C1407 1.433 . S
C1400 H1396 0.929 . S
C1400 C1402 1.378 . S
C1400 C1404 1.350 . S
C1401 C1404 1.463 . S
C1401 C1406 1.350 . S
C1401 N1409 1.427 . S
C1402 H1393 0.930 . S
C1402 C1400 1.378 . S
C1402 C1403 1.367 . S
C1403 C1402 1.367 . S
C1403 C1405 1.433 . S
C1404 C1400 1.350 . S
C1404 C1401 1.463 . S
C1404 N1408 1.427 . S
C1405 H1395 0.929 . S
C1405 C1403 1.433 . S
C1405 N1408 1.384 . S
C1406 H1397 0.929 . S
C1406 C1398 1.378 . S
C1406 C1401 1.350 . S
C1407 H1394 0.929 . S
C1407 C1399 1.433 . S
C1407 N1409 1.384 . S
N1408 C1404 1.427 . S
N1408 C1405 1.384 . S
N1409 C1401 1.427 . S
N1409 C1407 1.384 . S
H1410 C1416 0.930 . S
H1411 C1420 0.930 . S
H1412 C1425 0.929 . S
H1413 C1423 0.929 . S
H1414 C1418 0.929 . S
H1415 C1424 0.929 . S
C1416 H1410 0.930 . S
C1416 C1417 1.367 . S
C1416 C1424 1.378 . S
C1417 C1416 1.367 . S
C1417 C1425 1.433 . S
C1418 H1414 0.929 . S
C1418 C1420 1.378 . S
C1418 C1422 1.350 . S
C1419 C1422 1.463 . S
C1419 C1424 1.350 . S
C1419 N1427 1.427 . S
C1420 H1411 0.930 . S
C1420 C1418 1.378 . S
C1420 C1421 1.367 . S
C1421 C1420 1.367 . S
C1421 C1423 1.433 . S
C1422 C1418 1.350 . S
C1422 C1419 1.463 . S
C1422 N1426 1.427 . S
C1423 H1413 0.929 . S
C1423 C1421 1.433 . S
C1423 N1426 1.384 . S
C1424 H1415 0.929 . S
C1424 C1416 1.378 . S
C1424 C1419 1.350 . S
C1425 H1412 0.929 . S
C1425 C1417 1.433 . S
C1425 N1427 1.384 . S
N1426 C1422 1.427 . S
N1426 C1423 1.384 . S
N1427 C1419 1.427 . S
N1427 C1425 1.384 . S
H1428 C1434 0.930 . S
H1429 C1438 0.930 . S
H1430 C1443 0.929 . S
H1431 C1441 0.929 . S
H1432 C1436 0.929 . S
H1433 C1442 0.929 . S
C1434 H1428 0.930 . S
C1434 C1435 1.367 . S
C1434 C1442 1.378 . S
C1435 C1434 1.367 . S
C1435 C1443 1.433 . S
C1436 H1432 0.929 . S
C1436 C1438 1.378 . S
C1436 C1440 1.350 . S
C1437 C1440 1.463 . S
C1437 C1442 1.350 . S
C1437 N1445 1.427 . S
C1438 H1429 0.930 . S
C1438 C1436 1.378 . S
C1438 C1439 1.367 . S
C1439 C1438 1.367 . S
C1439 C1441 1.433 . S
C1440 C1436 1.350 . S
C1440 C1437 1.463 . S
C1440 N1444 1.427 . S
C1441 H1431 0.929 . S
C1441 C1439 1.433 . S
C1441 N1444 1.384 . S
C1442 H1433 0.929 . S
C1442 C1434 1.378 . S
C1442 C1437 1.350 . S
C1443 H1430 0.929 . S
C1443 C1435 1.433 . S
C1443 N1445 1.384 . S
N1444 C1440 1.427 . S
N1444 C1441 1.384 . S
N1445 C1437 1.427 . S
N1445 C1443 1.384 . S
H1446 C1452 0.930 . S
H1447 C1456 0.930 . S
H1448 C1461 0.929 . S
H1449 C1459 0.929 . S
H1450 C1454 0.929 . S
H1451 C1460 0.929 . S
C1452 H1446 0.930 . S
C1452 C1453 1.367 . S
C1452 C1460 1.378 . S
C1453 C1452 1.367 . S
C1453 C1461 1.433 . S
C1454 H1450 0.929 . S
C1454 C1456 1.378 . S
C1454 C1458 1.350 . S
C1455 C1458 1.463 . S
C1455 C1460 1.350 . S
C1455 N1463 1.427 . S
C1456 H1447 0.930 . S
C1456 C1454 1.378 . S
C1456 C1457 1.367 . S
C1457 C1456 1.367 . S
C1457 C1459 1.433 . S
C1458 C1454 1.350 . S
C1458 C1455 1.463 . S
C1458 N1462 1.427 . S
C1459 H1449 0.929 . S
C1459 C1457 1.433 . S
C1459 N1462 1.384 . S
C1460 H1451 0.929 . S
C1460 C1452 1.378 . S
C1460 C1455 1.350 . S
C1461 H1448 0.929 . S
C1461 C1453 1.433 . S
C1461 N1463 1.384 . S
N1462 C1458 1.427 . S
N1462 C1459 1.384 . S
N1463 C1455 1.427 . S
N1463 C1461 1.384 . S
H1464 C1470 0.930 . S
H1465 C1474 0.930 . S
H1466 C1479 0.929 . S
H1467 C1477 0.929 . S
H1468 C1472 0.929 . S
H1469 C1478 0.929 . S
C1470 H1464 0.930 . S
C1470 C1471 1.367 . S
C1470 C1478 1.378 . S
C1471 C1470 1.367 . S
C1471 C1479 1.433 . S
C1472 H1468 0.929 . S
C1472 C1474 1.378 . S
C1472 C1476 1.350 . S
C1473 C1476 1.463 . S
C1473 C1478 1.350 . S
C1473 N1481 1.427 . S
C1474 H1465 0.930 . S
C1474 C1472 1.378 . S
C1474 C1475 1.367 . S
C1475 C1474 1.367 . S
C1475 C1477 1.433 . S
C1476 C1472 1.350 . S
C1476 C1473 1.463 . S
C1476 N1480 1.427 . S
C1477 H1467 0.929 . S
C1477 C1475 1.433 . S
C1477 N1480 1.384 . S
C1478 H1469 0.929 . S
C1478 C1470 1.378 . S
C1478 C1473 1.350 . S
C1479 H1466 0.929 . S
C1479 C1471 1.433 . S
C1479 N1481 1.384 . S
N1480 C1476 1.427 . S
N1480 C1477 1.384 . S
N1481 C1473 1.427 . S
N1481 C1479 1.384 . S
H1482 C1488 0.930 . S
H1483 C1492 0.930 . S
H1484 C1497 0.929 . S
H1485 C1495 0.929 . S
H1486 C1490 0.929 . S
H1487 C1496 0.929 . S
C1488 H1482 0.930 . S
C1488 C1489 1.367 . S
C1488 C1496 1.378 . S
C1489 C1488 1.367 . S
C1489 C1497 1.433 . S
C1490 H1486 0.929 . S
C1490 C1492 1.378 . S
C1490 C1494 1.350 . S
C1491 C1494 1.463 . S
C1491 C1496 1.350 . S
C1491 N1499 1.427 . S
C1492 H1483 0.930 . S
C1492 C1490 1.378 . S
C1492 C1493 1.367 . S
C1493 C1492 1.367 . S
C1493 C1495 1.433 . S
C1494 C1490 1.350 . S
C1494 C1491 1.463 . S
C1494 N1498 1.427 . S
C1495 H1485 0.929 . S
C1495 C1493 1.433 . S
C1495 N1498 1.384 . S
C1496 H1487 0.929 . S
C1496 C1488 1.378 . S
C1496 C1491 1.350 . S
C1497 H1484 0.929 . S
C1497 C1489 1.433 . S
C1497 N1499 1.384 . S
N1498 C1494 1.427 . S
N1498 C1495 1.384 . S
N1499 C1491 1.427 . S
N1499 C1497 1.384 . S
H1500 C1506 0.930 . S
H1501 C1510 0.930 . S
H1502 C1515 0.929 . S
H1503 C1513 0.929 . S
H1504 C1508 0.929 . S
H1505 C1514 0.929 . S
C1506 H1500 0.930 . S
C1506 C1507 1.367 . S
C1506 C1514 1.378 . S
C1507 C1506 1.367 . S
C1507 C1515 1.433 . S
C1508 H1504 0.929 . S
C1508 C1510 1.378 . S
C1508 C1512 1.350 . S
C1509 C1512 1.463 . S
C1509 C1514 1.350 . S
C1509 N1517 1.427 . S
C1510 H1501 0.930 . S
C1510 C1508 1.378 . S
C1510 C1511 1.367 . S
C1511 C1510 1.367 . S
C1511 C1513 1.433 . S
C1512 C1508 1.350 . S
C1512 C1509 1.463 . S
C1512 N1516 1.427 . S
C1513 H1503 0.929 . S
C1513 C1511 1.433 . S
C1513 N1516 1.384 . S
C1514 H1505 0.929 . S
C1514 C1506 1.378 . S
C1514 C1509 1.350 . S
C1515 H1502 0.929 . S
C1515 C1507 1.433 . S
C1515 N1517 1.384 . S
N1516 C1512 1.427 . S
N1516 C1513 1.384 . S
N1517 C1509 1.427 . S
N1517 C1515 1.384 . S
H1518 C1524 0.930 . S
H1519 C1528 0.930 . S
H1520 C1533 0.929 . S
H1521 C1531 0.929 . S
H1522 C1526 0.929 . S
H1523 C1532 0.929 . S
C1524 H1518 0.930 . S
C1524 C1525 1.367 . S
C1524 C1532 1.378 . S
C1525 C1524 1.367 . S
C1525 C1533 1.433 . S
C1526 H1522 0.929 . S
C1526 C1528 1.378 . S
C1526 C1530 1.350 . S
C1527 C1530 1.463 . S
C1527 C1532 1.350 . S
C1527 N1535 1.427 . S
C1528 H1519 0.930 . S
C1528 C1526 1.378 . S
C1528 C1529 1.367 . S
C1529 C1528 1.367 . S
C1529 C1531 1.433 . S
C1530 C1526 1.350 . S
C1530 C1527 1.463 . S
C1530 N1534 1.427 . S
C1531 H1521 0.929 . S
C1531 C1529 1.433 . S
C1531 N1534 1.384 . S
C1532 H1523 0.929 . S
C1532 C1524 1.378 . S
C1532 C1527 1.350 . S
C1533 H1520 0.929 . S
C1533 C1525 1.433 . S
C1533 N1535 1.384 . S
N1534 C1530 1.427 . S
N1534 C1531 1.384 . S
N1535 C1527 1.427 . S
N1535 C1533 1.384 . S
H1536 C1542 0.930 . S
H1537 C1546 0.930 . S
H1538 C1551 0.929 . S
H1539 C1549 0.929 . S
H1540 C1544 0.929 . S
H1541 C1550 0.929 . S
C1542 H1536 0.930 . S
C1542 C1543 1.367 . S
C1542 C1550 1.378 . S
C1543 C1542 1.367 . S
C1543 C1551 1.433 . S
C1544 H1540 0.929 . S
C1544 C1546 1.378 . S
C1544 C1548 1.350 . S
C1545 C1548 1.463 . S
C1545 C1550 1.350 . S
C1545 N1553 1.427 . S
C1546 H1537 0.930 . S
C1546 C1544 1.378 . S
C1546 C1547 1.367 . S
C1547 C1546 1.367 . S
C1547 C1549 1.433 . S
C1548 C1544 1.350 . S
C1548 C1545 1.463 . S
C1548 N1552 1.427 . S
C1549 H1539 0.929 . S
C1549 C1547 1.433 . S
C1549 N1552 1.384 . S
C1550 H1541 0.929 . S
C1550 C1542 1.378 . S
C1550 C1545 1.350 . S
C1551 H1538 0.929 . S
C1551 C1543 1.433 . S
C1551 N1553 1.384 . S
N1552 C1548 1.427 . S
N1552 C1549 1.384 . S
N1553 C1545 1.427 . S
N1553 C1551 1.384 . S
H1554 C1560 0.930 . S
H1555 C1564 0.930 . S
H1556 C1569 0.929 . S
H1557 C1567 0.929 . S
H1558 C1562 0.929 . S
H1559 C1568 0.929 . S
C1560 H1554 0.930 . S
C1560 C1561 1.367 . S
C1560 C1568 1.378 . S
C1561 C1560 1.367 . S
C1561 C1569 1.433 . S
C1562 H1558 0.929 . S
C1562 C1564 1.378 . S
C1562 C1566 1.350 . S
C1563 C1566 1.463 . S
C1563 C1568 1.350 . S
C1563 N1571 1.427 . S
C1564 H1555 0.930 . S
C1564 C1562 1.378 . S
C1564 C1565 1.367 . S
C1565 C1564 1.367 . S
C1565 C1567 1.433 . S
C1566 C1562 1.350 . S
C1566 C1563 1.463 . S
C1566 N1570 1.427 . S
C1567 H1557 0.929 . S
C1567 C1565 1.433 . S
C1567 N1570 1.384 . S
C1568 H1559 0.929 . S
C1568 C1560 1.378 . S
C1568 C1563 1.350 . S
C1569 H1556 0.929 . S
C1569 C1561 1.433 . S
C1569 N1571 1.384 . S
N1570 C1566 1.427 . S
N1570 C1567 1.384 . S
N1571 C1563 1.427 . S
N1571 C1569 1.384 . S
H1572 C1578 0.930 . S
H1573 C1582 0.930 . S
H1574 C1587 0.929 . S
H1575 C1585 0.929 . S
H1576 C1580 0.929 . S
H1577 C1586 0.929 . S
C1578 H1572 0.930 . S
C1578 C1579 1.367 . S
C1578 C1586 1.378 . S
C1579 C1578 1.367 . S
C1579 C1587 1.433 . S
C1580 H1576 0.929 . S
C1580 C1582 1.378 . S
C1580 C1584 1.350 . S
C1581 C1584 1.463 . S
C1581 C1586 1.350 . S
C1581 N1589 1.427 . S
C1582 H1573 0.930 . S
C1582 C1580 1.378 . S
C1582 C1583 1.367 . S
C1583 C1582 1.367 . S
C1583 C1585 1.433 . S
C1584 C1580 1.350 . S
C1584 C1581 1.463 . S
C1584 N1588 1.427 . S
C1585 H1575 0.929 . S
C1585 C1583 1.433 . S
C1585 N1588 1.384 . S
C1586 H1577 0.929 . S
C1586 C1578 1.378 . S
C1586 C1581 1.350 . S
C1587 H1574 0.929 . S
C1587 C1579 1.433 . S
C1587 N1589 1.384 . S
N1588 C1584 1.427 . S
N1588 C1585 1.384 . S
N1589 C1581 1.427 . S
N1589 C1587 1.384 . S
H1590 C1596 0.930 . S
H1591 C1600 0.930 . S
H1592 C1605 0.929 . S
H1593 C1603 0.929 . S
H1594 C1598 0.929 . S
H1595 C1604 0.929 . S
C1596 H1590 0.930 . S
C1596 C1597 1.367 . S
C1596 C1604 1.378 . S
C1597 C1596 1.367 . S
C1597 C1605 1.433 . S
C1598 H1594 0.929 . S
C1598 C1600 1.378 . S
C1598 C1602 1.350 . S
C1599 C1602 1.463 . S
C1599 C1604 1.350 . S
C1599 N1607 1.427 . S
C1600 H1591 0.930 . S
C1600 C1598 1.378 . S
C1600 C1601 1.367 . S
C1601 C1600 1.367 . S
C1601 C1603 1.433 . S
C1602 C1598 1.350 . S
C1602 C1599 1.463 . S
C1602 N1606 1.427 . S
C1603 H1593 0.929 . S
C1603 C1601 1.433 . S
C1603 N1606 1.384 . S
C1604 H1595 0.929 . S
C1604 C1596 1.378 . S
C1604 C1599 1.350 . S
C1605 H1592 0.929 . S
C1605 C1597 1.433 . S
C1605 N1607 1.384 . S
N1606 C1602 1.427 . S
N1606 C1603 1.384 . S
N1607 C1599 1.427 . S
N1607 C1605 1.384 . S
H1608 C1614 0.930 . S
H1609 C1618 0.930 . S
H1610 C1623 0.929 . S
H1611 C1621 0.929 . S
H1612 C1616 0.929 . S
H1613 C1622 0.929 . S
C1614 H1608 0.930 . S
C1614 C1615 1.367 . S
C1614 C1622 1.378 . S
C1615 C1614 1.367 . S
C1615 C1623 1.433 . S
C1616 H1612 0.929 . S
C1616 C1618 1.378 . S
C1616 C1620 1.350 . S
C1617 C1620 1.463 . S
C1617 C1622 1.350 . S
C1617 N1625 1.427 . S
C1618 H1609 0.930 . S
C1618 C1616 1.378 . S
C1618 C1619 1.367 . S
C1619 C1618 1.367 . S
C1619 C1621 1.433 . S
C1620 C1616 1.350 . S
C1620 C1617 1.463 . S
C1620 N1624 1.427 . S
C1621 H1611 0.929 . S
C1621 C1619 1.433 . S
C1621 N1624 1.384 . S
C1622 H1613 0.929 . S
C1622 C1614 1.378 . S
C1622 C1617 1.350 . S
C1623 H1610 0.929 . S
C1623 C1615 1.433 . S
C1623 N1625 1.384 . S
N1624 C1620 1.427 . S
N1624 C1621 1.384 . S
N1625 C1617 1.427 . S
N1625 C1623 1.384 . S
H1626 C1632 0.930 . S
H1627 C1636 0.930 . S
H1628 C1641 0.929 . S
H1629 C1639 0.929 . S
H1630 C1634 0.929 . S
H1631 C1640 0.929 . S
C1632 H1626 0.930 . S
C1632 C1633 1.367 . S
C1632 C1640 1.378 . S
C1633 C1632 1.367 . S
C1633 C1641 1.433 . S
C1634 H1630 0.929 . S
C1634 C1636 1.378 . S
C1634 C1638 1.350 . S
C1635 C1638 1.463 . S
C1635 C1640 1.350 . S
C1635 N1643 1.427 . S
C1636 H1627 0.930 . S
C1636 C1634 1.378 . S
C1636 C1637 1.367 . S
C1637 C1636 1.367 . S
C1637 C1639 1.433 . S
C1638 C1634 1.350 . S
C1638 C1635 1.463 . S
C1638 N1642 1.427 . S
C1639 H1629 0.929 . S
C1639 C1637 1.433 . S
C1639 N1642 1.384 . S
C1640 H1631 0.929 . S
C1640 C1632 1.378 . S
C1640 C1635 1.350 . S
C1641 H1628 0.929 . S
C1641 C1633 1.433 . S
C1641 N1643 1.384 . S
N1642 C1638 1.427 . S
N1642 C1639 1.384 . S
N1643 C1635 1.427 . S
N1643 C1641 1.384 . S
H1644 C1650 0.930 . S
H1645 C1654 0.930 . S
H1646 C1659 0.929 . S
H1647 C1657 0.929 . S
H1648 C1652 0.929 . S
H1649 C1658 0.929 . S
C1650 H1644 0.930 . S
C1650 C1651 1.367 . S
C1650 C1658 1.378 . S
C1651 C1650 1.367 . S
C1651 C1659 1.433 . S
C1652 H1648 0.929 . S
C1652 C1654 1.378 . S
C1652 C1656 1.350 . S
C1653 C1656 1.463 . S
C1653 C1658 1.350 . S
C1653 N1661 1.427 . S
C1654 H1645 0.930 . S
C1654 C1652 1.378 . S
C1654 C1655 1.367 . S
C1655 C1654 1.367 . S
C1655 C1657 1.433 . S
C1656 C1652 1.350 . S
C1656 C1653 1.463 . S
C1656 N1660 1.427 . S
C1657 H1647 0.929 . S
C1657 C1655 1.433 . S
C1657 N1660 1.384 . S
C1658 H1649 0.929 . S
C1658 C1650 1.378 . S
C1658 C1653 1.350 . S
C1659 H1646 0.929 . S
C1659 C1651 1.433 . S
C1659 N1661 1.384 . S
N1660 C1656 1.427 . S
N1660 C1657 1.384 . S
N1661 C1653 1.427 . S
N1661 C1659 1.384 . S
H1662 C1668 0.930 . S
H1663 C1672 0.930 . S
H1664 C1677 0.929 . S
H1665 C1675 0.929 . S
H1666 C1670 0.929 . S
H1667 C1676 0.929 . S
C1668 H1662 0.930 . S
C1668 C1669 1.367 . S
C1668 C1676 1.378 . S
C1669 C1668 1.367 . S
C1669 C1677 1.433 . S
C1670 H1666 0.929 . S
C1670 C1672 1.378 . S
C1670 C1674 1.350 . S
C1671 C1674 1.463 . S
C1671 C1676 1.350 . S
C1671 N1679 1.427 . S
C1672 H1663 0.930 . S
C1672 C1670 1.378 . S
C1672 C1673 1.367 . S
C1673 C1672 1.367 . S
C1673 C1675 1.433 . S
C1674 C1670 1.350 . S
C1674 C1671 1.463 . S
C1674 N1678 1.427 . S
C1675 H1665 0.929 . S
C1675 C1673 1.433 . S
C1675 N1678 1.384 . S
C1676 H1667 0.929 . S
C1676 C1668 1.378 . S
C1676 C1671 1.350 . S
C1677 H1664 0.929 . S
C1677 C1669 1.433 . S
C1677 N1679 1.384 . S
N1678 C1674 1.427 . S
N1678 C1675 1.384 . S
N1679 C1671 1.427 . S
N1679 C1677 1.384 . S
H1680 C1686 0.930 . S
H1681 C1690 0.930 . S
H1682 C1695 0.929 . S
H1683 C1693 0.929 . S
H1684 C1688 0.929 . S
H1685 C1694 0.929 . S
C1686 H1680 0.930 . S
C1686 C1687 1.367 . S
C1686 C1694 1.378 . S
C1687 C1686 1.367 . S
C1687 C1695 1.433 . S
C1688 H1684 0.929 . S
C1688 C1690 1.378 . S
C1688 C1692 1.350 . S
C1689 C1692 1.463 . S
C1689 C1694 1.350 . S
C1689 N1697 1.427 . S
C1690 H1681 0.930 . S
C1690 C1688 1.378 . S
C1690 C1691 1.367 . S
C1691 C1690 1.367 . S
C1691 C1693 1.433 . S
C1692 C1688 1.350 . S
C1692 C1689 1.463 . S
C1692 N1696 1.427 . S
C1693 H1683 0.929 . S
C1693 C1691 1.433 . S
C1693 N1696 1.384 . S
C1694 H1685 0.929 . S
C1694 C1686 1.378 . S
C1694 C1689 1.350 . S
C1695 H1682 0.929 . S
C1695 C1687 1.433 . S
C1695 N1697 1.384 . S
N1696 C1692 1.427 . S
N1696 C1693 1.384 . S
N1697 C1689 1.427 . S
N1697 C1695 1.384 . S
H1698 C1704 0.930 . S
H1699 C1708 0.930 . S
H1700 C1713 0.929 . S
H1701 C1711 0.929 . S
H1702 C1706 0.929 . S
H1703 C1712 0.929 . S
C1704 H1698 0.930 . S
C1704 C1705 1.367 . S
C1704 C1712 1.378 . S
C1705 C1704 1.367 . S
C1705 C1713 1.433 . S
C1706 H1702 0.929 . S
C1706 C1708 1.378 . S
C1706 C1710 1.350 . S
C1707 C1710 1.463 . S
C1707 C1712 1.350 . S
C1707 N1715 1.427 . S
C1708 H1699 0.930 . S
C1708 C1706 1.378 . S
C1708 C1709 1.367 . S
C1709 C1708 1.367 . S
C1709 C1711 1.433 . S
C1710 C1706 1.350 . S
C1710 C1707 1.463 . S
C1710 N1714 1.427 . S
C1711 H1701 0.929 . S
C1711 C1709 1.433 . S
C1711 N1714 1.384 . S
C1712 H1703 0.929 . S
C1712 C1704 1.378 . S
C1712 C1707 1.350 . S
C1713 H1700 0.929 . S
C1713 C1705 1.433 . S
C1713 N1715 1.384 . S
N1714 C1710 1.427 . S
N1714 C1711 1.384 . S
N1715 C1707 1.427 . S
N1715 C1713 1.384 . S
H1716 C1722 0.930 . S
H1717 C1726 0.930 . S
H1718 C1731 0.929 . S
H1719 C1729 0.929 . S
H1720 C1724 0.929 . S
H1721 C1730 0.929 . S
C1722 H1716 0.930 . S
C1722 C1723 1.367 . S
C1722 C1730 1.378 . S
C1723 C1722 1.367 . S
C1723 C1731 1.433 . S
C1724 H1720 0.929 . S
C1724 C1726 1.378 . S
C1724 C1728 1.350 . S
C1725 C1728 1.463 . S
C1725 C1730 1.350 . S
C1725 N1733 1.427 . S
C1726 H1717 0.930 . S
C1726 C1724 1.378 . S
C1726 C1727 1.367 . S
C1727 C1726 1.367 . S
C1727 C1729 1.433 . S
C1728 C1724 1.350 . S
C1728 C1725 1.463 . S
C1728 N1732 1.427 . S
C1729 H1719 0.929 . S
C1729 C1727 1.433 . S
C1729 N1732 1.384 . S
C1730 H1721 0.929 . S
C1730 C1722 1.378 . S
C1730 C1725 1.350 . S
C1731 H1718 0.929 . S
C1731 C1723 1.433 . S
C1731 N1733 1.384 . S
N1732 C1728 1.427 . S
N1732 C1729 1.384 . S
N1733 C1725 1.427 . S
N1733 C1731 1.384 . S
H1734 C1740 0.930 . S
H1735 C1744 0.930 . S
H1736 C1749 0.929 . S
H1737 C1747 0.929 . S
H1738 C1742 0.929 . S
H1739 C1748 0.929 . S
C1740 H1734 0.930 . S
C1740 C1741 1.367 . S
C1740 C1748 1.378 . S
C1741 C1740 1.367 . S
C1741 C1749 1.433 . S
C1742 H1738 0.929 . S
C1742 C1744 1.378 . S
C1742 C1746 1.350 . S
C1743 C1746 1.463 . S
C1743 C1748 1.350 . S
C1743 N1751 1.427 . S
C1744 H1735 0.930 . S
C1744 C1742 1.378 . S
C1744 C1745 1.367 . S
C1745 C1744 1.367 . S
C1745 C1747 1.433 . S
C1746 C1742 1.350 . S
C1746 C1743 1.463 . S
C1746 N1750 1.427 . S
C1747 H1737 0.929 . S
C1747 C1745 1.433 . S
C1747 N1750 1.384 . S
C1748 H1739 0.929 . S
C1748 C1740 1.378 . S
C1748 C1743 1.350 . S
C1749 H1736 0.929 . S
C1749 C1741 1.433 . S
C1749 N1751 1.384 . S
N1750 C1746 1.427 . S
N1750 C1747 1.384 . S
N1751 C1743 1.427 . S
N1751 C1749 1.384 . S
H1752 C1758 0.930 . S
H1753 C1762 0.930 . S
H1754 C1767 0.929 . S
H1755 C1765 0.929 . S
H1756 C1760 0.929 . S
H1757 C1766 0.929 . S
C1758 H1752 0.930 . S
C1758 C1759 1.367 . S
C1758 C1766 1.378 . S
C1759 C1758 1.367 . S
C1759 C1767 1.433 . S
C1760 H1756 0.929 . S
C1760 C1762 1.378 . S
C1760 C1764 1.350 . S
C1761 C1764 1.463 . S
C1761 C1766 1.350 . S
C1761 N1769 1.427 . S
C1762 H1753 0.930 . S
C1762 C1760 1.378 . S
C1762 C1763 1.367 . S
C1763 C1762 1.367 . S
C1763 C1765 1.433 . S
C1764 C1760 1.350 . S
C1764 C1761 1.463 . S
C1764 N1768 1.427 . S
C1765 H1755 0.929 . S
C1765 C1763 1.433 . S
C1765 N1768 1.384 . S
C1766 H1757 0.929 . S
C1766 C1758 1.378 . S
C1766 C1761 1.350 . S
C1767 H1754 0.929 . S
C1767 C1759 1.433 . S
C1767 N1769 1.384 . S
N1768 C1764 1.427 . S
N1768 C1765 1.384 . S
N1769 C1761 1.427 . S
N1769 C1767 1.384 . S
H1770 C1776 0.930 . S
H1771 C1780 0.930 . S
H1772 C1785 0.929 . S
H1773 C1783 0.929 . S
H1774 C1778 0.929 . S
H1775 C1784 0.929 . S
C1776 H1770 0.930 . S
C1776 C1777 1.367 . S
C1776 C1784 1.378 . S
C1777 C1776 1.367 . S
C1777 C1785 1.433 . S
C1778 H1774 0.929 . S
C1778 C1780 1.378 . S
C1778 C1782 1.350 . S
C1779 C1782 1.463 . S
C1779 C1784 1.350 . S
C1779 N1787 1.427 . S
C1780 H1771 0.930 . S
C1780 C1778 1.378 . S
C1780 C1781 1.367 . S
C1781 C1780 1.367 . S
C1781 C1783 1.433 . S
C1782 C1778 1.350 . S
C1782 C1779 1.463 . S
C1782 N1786 1.427 . S
C1783 H1773 0.929 . S
C1783 C1781 1.433 . S
C1783 N1786 1.384 . S
C1784 H1775 0.929 . S
C1784 C1776 1.378 . S
C1784 C1779 1.350 . S
C1785 H1772 0.929 . S
C1785 C1777 1.433 . S
C1785 N1787 1.384 . S
N1786 C1782 1.427 . S
N1786 C1783 1.384 . S
N1787 C1779 1.427 . S
N1787 C1785 1.384 . S
H1788 C1794 0.930 . S
H1789 C1798 0.930 . S
H1790 C1803 0.929 . S
H1791 C1801 0.929 . S
H1792 C1796 0.929 . S
H1793 C1802 0.929 . S
C1794 H1788 0.930 . S
C1794 C1795 1.367 . S
C1794 C1802 1.378 . S
C1795 C1794 1.367 . S
C1795 C1803 1.433 . S
C1796 H1792 0.929 . S
C1796 C1798 1.378 . S
C1796 C1800 1.350 . S
C1797 C1800 1.463 . S
C1797 C1802 1.350 . S
C1797 N1805 1.427 . S
C1798 H1789 0.930 . S
C1798 C1796 1.378 . S
C1798 C1799 1.367 . S
C1799 C1798 1.367 . S
C1799 C1801 1.433 . S
C1800 C1796 1.350 . S
C1800 C1797 1.463 . S
C1800 N1804 1.427 . S
C1801 H1791 0.929 . S
C1801 C1799 1.433 . S
C1801 N1804 1.384 . S
C1802 H1793 0.929 . S
C1802 C1794 1.378 . S
C1802 C1797 1.350 . S
C1803 H1790 0.929 . S
C1803 C1795 1.433 . S
C1803 N1805 1.384 . S
N1804 C1800 1.427 . S
N1804 C1801 1.384 . S
N1805 C1797 1.427 . S
N1805 C1803 1.384 . S
H1806 C1812 0.930 . S
H1807 C1816 0.930 . S
H1808 C1821 0.929 . S
H1809 C1819 0.929 . S
H1810 C1814 0.929 . S
H1811 C1820 0.929 . S
C1812 H1806 0.930 . S
C1812 C1813 1.367 . S
C1812 C1820 1.378 . S
C1813 C1812 1.367 . S
C1813 C1821 1.433 . S
C1814 H1810 0.929 . S
C1814 C1816 1.378 . S
C1814 C1818 1.350 . S
C1815 C1818 1.463 . S
C1815 C1820 1.350 . S
C1815 N1823 1.427 . S
C1816 H1807 0.930 . S
C1816 C1814 1.378 . S
C1816 C1817 1.367 . S
C1817 C1816 1.367 . S
C1817 C1819 1.433 . S
C1818 C1814 1.350 . S
C1818 C1815 1.463 . S
C1818 N1822 1.427 . S
C1819 H1809 0.929 . S
C1819 C1817 1.433 . S
C1819 N1822 1.384 . S
C1820 H1811 0.929 . S
C1820 C1812 1.378 . S
C1820 C1815 1.350 . S
C1821 H1808 0.929 . S
C1821 C1813 1.433 . S
C1821 N1823 1.384 . S
N1822 C1818 1.427 . S
N1822 C1819 1.384 . S
N1823 C1815 1.427 . S
N1823 C1821 1.384 . S
H1824 C1830 0.930 . S
H1825 C1834 0.930 . S
H1826 C1839 0.929 . S
H1827 C1837 0.929 . S
H1828 C1832 0.929 . S
H1829 C1838 0.929 . S
C1830 H1824 0.930 . S
C1830 C1831 1.367 . S
C1830 C1838 1.378 . S
C1831 C1830 1.367 . S
C1831 C1839 1.433 . S
C1832 H1828 0.929 . S
C1832 C1834 1.378 . S
C1832 C1836 1.350 . S
C1833 C1836 1.463 . S
C1833 C1838 1.350 . S
C1833 N1841 1.427 . S
C1834 H1825 0.930 . S
C1834 C1832 1.378 . S
C1834 C1835 1.367 . S
C1835 C1834 1.367 . S
C1835 C1837 1.433 . S
C1836 C1832 1.350 . S
C1836 C1833 1.463 . S
C1836 N1840 1.427 . S
C1837 H1827 0.929 . S
C1837 C1835 1.433 . S
C1837 N1840 1.384 . S
C1838 H1829 0.929 . S
C1838 C1830 1.378 . S
C1838 C1833 1.350 . S
C1839 H1826 0.929 . S
C1839 C1831 1.433 . S
C1839 N1841 1.384 . S
N1840 C1836 1.427 . S
N1840 C1837 1.384 . S
N1841 C1833 1.427 . S
N1841 C1839 1.384 . S
H1842 C1848 0.930 . S
H1843 C1852 0.930 . S
H1844 C1857 0.929 . S
H1845 C1855 0.929 . S
H1846 C1850 0.929 . S
H1847 C1856 0.929 . S
C1848 H1842 0.930 . S
C1848 C1849 1.367 . S
C1848 C1856 1.378 . S
C1849 C1848 1.367 . S
C1849 C1857 1.433 . S
C1850 H1846 0.929 . S
C1850 C1852 1.378 . S
C1850 C1854 1.350 . S
C1851 C1854 1.463 . S
C1851 C1856 1.350 . S
C1851 N1859 1.427 . S
C1852 H1843 0.930 . S
C1852 C1850 1.378 . S
C1852 C1853 1.367 . S
C1853 C1852 1.367 . S
C1853 C1855 1.433 . S
C1854 C1850 1.350 . S
C1854 C1851 1.463 . S
C1854 N1858 1.427 . S
C1855 H1845 0.929 . S
C1855 C1853 1.433 . S
C1855 N1858 1.384 . S
C1856 H1847 0.929 . S
C1856 C1848 1.378 . S
C1856 C1851 1.350 . S
C1857 H1844 0.929 . S
C1857 C1849 1.433 . S
C1857 N1859 1.384 . S
N1858 C1854 1.427 . S
N1858 C1855 1.384 . S
N1859 C1851 1.427 . S
N1859 C1857 1.384 . S
C1007 C707 1.417 . S
C1003 C74 1.379 . S
C1025 C685 1.548 . S
C1021 C153 1.523 . S
C1043 C682 0.938 . S
C1039 C231 0.919 . S
C1057 C310 0.668 . S
C1061 C694 0.302 . S
C1075 C394 1.506 . S
C1079 C677 1.542 . S
C1097 C699 0.935 . S
C1093 C494 0.914 . S
C1111 C573 0.641 . S
C1115 C704 0.308 . S
C1129 C651 1.387 . S
C1133 C700 1.415 . S
C1151 C758 2.727 . S
C1147 C56 2.795 . S
C1165 C151 1.384 . S
C1169 C808 1.374 . S
C1187 C731 1.570 . S
C1183 C237 1.492 . S
C1205 C807 0.961 . S
C1201 C326 0.922 . S
C1219 C410 0.912 . S
C1223 C736 0.937 . S
C1241 C802 2.727 . S
C1237 C476 2.796 . S
C1255 C571 1.405 . S
C1259 C761 1.402 . S
C1273 C657 1.509 . S
C1277 C793 1.569 . S
C1291 C58 1.506 . S
C1295 C785 1.581 . S
C1309 C392 1.398 . S
C1313 C815 1.392 . S
C1331 C739 1.588 . S
C1327 C478 1.513 . S
C1349 C790 0.970 . S
C1345 C567 0.931 . S
C1363 C655 2.798 . S
C1367 C748 2.727 . S
C1381 C235 2.809 . S
C1385 C812 2.748 . S
C1403 C754 1.404 . S
C1399 C308 1.409 . S
C1417 C147 0.942 . S
C1421 C753 0.942 . S
C1435 C662 1.379 . S
C1439 C869 1.417 . S
C1453 C405 1.516 . S
C1457 C847 1.556 . S
C1475 C844 0.928 . S
C1471 C483 0.933 . S
C1493 C856 0.328 . S
C1489 C562 0.626 . S
C1507 C142 1.500 . S
C1511 C839 1.549 . S
C1529 C861 0.927 . S
C1525 C242 0.920 . S
C1543 C321 0.615 . S
C1547 C866 0.334 . S
C1561 C63 1.389 . S
C1565 C862 1.414 . S
C1579 C644 2.795 . S
C1583 C920 2.732 . S
C1601 C970 1.379 . S
C1597 C403 1.386 . S
C1615 C489 1.493 . S
C1619 C893 1.567 . S
C1633 C578 0.943 . S
C1637 C969 0.953 . S
C1655 C898 0.938 . S
C1651 C158 0.910 . S
C1669 C224 2.797 . S
C1673 C964 2.729 . S
C1691 C923 1.401 . S
C1687 C319 1.406 . S
C1709 C955 1.581 . S
C1705 C69 1.496 . S
C1727 C947 1.571 . S
C1723 C646 1.497 . S
C1741 C140 1.395 . S
C1745 C977 1.386 . S
C1759 C226 1.516 . S
C1763 C901 1.588 . S
C1781 C952 0.971 . S
C1777 C315 0.952 . S
C1795 C67 2.798 . S
C1799 C910 2.729 . S
C1813 C487 2.809 . S
C1817 C974 2.751 . S
C1835 C916 1.401 . S
C1831 C560 1.409 . S
C1853 C915 0.947 . S
C1849 C399 0.937 . S
