# Generated by pormake.
# Topology rtl, (3,6)-cn, num edge types: 1
# Building blocks:
#     Node 0, Type 0, BuildingBlock: WUSLED_clean_sbu_0, # of connection points: 3
#     Node 1, Type 0, BuildingBlock: WUSLED_clean_sbu_0, # of connection points: 3
#     Node 2, Type 0, BuildingBlock: WUSLED_clean_sbu_0, # of connection points: 3
#     Node 3, Type 0, BuildingBlock: WUSLED_clean_sbu_0, # of connection points: 3
#     Node 4, Type 1, BuildingBlock: FUNLAD_clean_sbu_0, # of connection points: 6
#     Node 5, Type 1, BuildingBlock: FUNLAD_clean_sbu_0, # of connection points: 6
#     Edge 6, Type (0, 1), BuildingBlock: UVAHIK_clean_linker_0, # of connection points: 2
#     Edge 7, Type (0, 1), BuildingBlock: UVAHIK_clean_linker_0, # of connection points: 2
#     Edge 8, Type (0, 1), BuildingBlock: UVAHIK_clean_linker_0, # of connection points: 2
#     Edge 9, Type (0, 1), BuildingBlock: UVAHIK_clean_linker_0, # of connection points: 2
#     Edge 10, Type (0, 1), BuildingBlock: UVAHIK_clean_linker_0, # of connection points: 2
#     Edge 11, Type (0, 1), BuildingBlock: UVAHIK_clean_linker_0, # of connection points: 2
#     Edge 12, Type (0, 1), BuildingBlock: UVAHIK_clean_linker_0, # of connection points: 2
#     Edge 13, Type (0, 1), BuildingBlock: UVAHIK_clean_linker_0, # of connection points: 2
#     Edge 14, Type (0, 1), BuildingBlock: UVAHIK_clean_linker_0, # of connection points: 2
#     Edge 15, Type (0, 1), BuildingBlock: UVAHIK_clean_linker_0, # of connection points: 2
#     Edge 16, Type (0, 1), BuildingBlock: UVAHIK_clean_linker_0, # of connection points: 2
#     Edge 17, Type (0, 1), BuildingBlock: UVAHIK_clean_linker_0, # of connection points: 2
# Relax obj value: 0.026
# Max RMSD: 0.079
# Mean RMSD: 0.068
data_MOF--net-rtl--node1-WUSLED_clean_sbu_0--node2-FUNLAD_clean_sbu_0--edge1-UVAHIK_clean_linker_0
_symmetry_space_group_name_H-M    P1
_symmetry_Int_Tables_number       1
_symmetry_cell_setting            triclinic
loop_
_symmetry_equiv_pos_as_xyz
'x, y, z'
_cell_length_a     62.293227
_cell_length_b     51.788094
_cell_length_c     36.88711
_cell_angle_alpha  90.313584
_cell_angle_beta   91.122262
_cell_angle_gamma 90.435068
loop_
_atom_site_label
_atom_site_type_symbol
_atom_site_fract_x
_atom_site_fract_y
_atom_site_fract_z
_atom_type_partial_charge
C0 C 0.14325 0.7963 0.12462 0.0
C1 C 0.12299 0.80746 0.1191 0.0
C2 C 0.12235 0.82068 0.18253 0.0
C3 C 0.11258 0.81943 0.14785 0.0
C4 C 0.1426 0.80929 0.18793 0.0
C5 C 0.15293 0.79718 0.1592 0.0
U6 U 0.15161 0.79003 0.02358 0.0
O7 O 0.18123 0.78964 0.99222 0.0
O8 O 0.15914 0.75644 0.98942 0.0
C9 C 0.1779 0.76596 0.98033 0.0
C10 C 0.15482 0.78488 0.09416 0.0
C11 C 0.19626 0.74853 0.98447 0.0
C12 C 0.22105 0.72391 0.02215 0.0
C13 C 0.20295 0.73966 0.01872 0.0
C14 C 0.22575 0.72566 0.95714 0.0
C15 C 0.23277 0.71692 0.9914 0.0
C16 C 0.20767 0.74132 0.95376 0.0
C17 C 0.11581 0.83032 0.95989 0.0
C18 C 0.104 0.82288 0.89736 0.0
C19 C 0.10827 0.86659 0.92022 0.0
C20 C 0.11457 0.85701 0.95406 0.0
C21 C 0.10288 0.84965 0.8915 0.0
C22 C 0.11051 0.81327 0.93121 0.0
C23 C 0.12245 0.82099 0.99614 0.0
O24 O 0.14356 0.76899 0.0732 0.0
O25 O 0.16657 0.80127 0.0759 0.0
O26 O 0.1414 0.82904 0.00789 0.0
O27 O 0.11864 0.79654 0.00335 0.0
H28 H 0.11537 0.80723 0.09244 0.0
H29 H 0.09713 0.8283 0.14272 0.0
H30 H 0.15044 0.80974 0.2144 0.0
H31 H 0.16861 0.78876 0.16389 0.0
H32 H 0.22614 0.7177 0.04893 0.0
H33 H 0.19434 0.74518 0.04276 0.0
H34 H 0.23421 0.72032 0.93288 0.0
H35 H 0.20269 0.74798 0.92712 0.0
H36 H 0.1001 0.80938 0.87564 0.0
H37 H 0.10728 0.8873 0.91669 0.0
H38 H 0.11846 0.8705 0.97581 0.0
H39 H 0.11139 0.79257 0.93486 0.0
C40 C 0.63887 0.71882 0.63136 0.0
C41 C 0.61853 0.70731 0.62669 0.0
C42 C 0.61918 0.69377 0.68982 0.0
C43 C 0.60872 0.69499 0.65573 0.0
C44 C 0.63948 0.70558 0.69438 0.0
C45 C 0.64922 0.71802 0.66538 0.0
U46 U 0.64466 0.7266 0.52997 0.0
O47 O 0.65244 0.76059 0.49702 0.0
O48 O 0.67344 0.72675 0.49649 0.0
C49 C 0.67066 0.75079 0.48626 0.0
C50 C 0.64986 0.73046 0.60051 0.0
C51 C 0.68958 0.76766 0.49073 0.0
C52 C 0.71727 0.78788 0.52875 0.0
C53 C 0.69884 0.77238 0.52512 0.0
C54 C 0.71711 0.79431 0.46371 0.0
C55 C 0.72667 0.79894 0.49805 0.0
C56 C 0.69874 0.77879 0.46012 0.0
C57 C 0.60653 0.68943 0.46637 0.0
C58 C 0.61345 0.68384 0.40224 0.0
C59 C 0.57992 0.66858 0.42696 0.0
C60 C 0.58644 0.67751 0.4613 0.0
C61 C 0.59348 0.67133 0.39714 0.0
C62 C 0.6199 0.69289 0.43657 0.0
C63 C 0.6137 0.69724 0.503 0.0
O64 O 0.66056 0.71408 0.58056 0.0
O65 O 0.63851 0.74692 0.58121 0.0
O66 O 0.61104 0.72171 0.51129 0.0
O67 O 0.63254 0.68835 0.5133 0.0
H68 H 0.6104 0.70749 0.60045 0.0
H69 H 0.5932 0.6858 0.65123 0.0
H70 H 0.64784 0.70517 0.7204 0.0
H71 H 0.66496 0.72673 0.66938 0.0
H72 H 0.72409 0.79131 0.5556 0.0
H73 H 0.6919 0.76396 0.54906 0.0
H74 H 0.7241 0.80224 0.43948 0.0
H75 H 0.6918 0.77525 0.43337 0.0
H76 H 0.62412 0.68652 0.37971 0.0
H77 H 0.56455 0.6588 0.424 0.0
H78 H 0.57595 0.67467 0.48406 0.0
H79 H 0.63545 0.70221 0.44 0.0
C80 C 0.87099 0.21176 0.11552 0.0
C81 C 0.89137 0.201 0.11084 0.0
C82 C 0.89176 0.18594 0.17329 0.0
C83 C 0.90172 0.1883 0.13955 0.0
C84 C 0.87142 0.19698 0.17787 0.0
C85 C 0.86114 0.2098 0.14922 0.0
U86 U 0.8633 0.22194 0.01438 0.0
O87 O 0.83379 0.22255 0.98071 0.0
O88 O 0.85493 0.25663 0.98314 0.0
C89 C 0.83641 0.2469 0.97184 0.0
C90 C 0.85945 0.22389 0.08503 0.0
C91 C 0.81765 0.26338 0.97729 0.0
C92 C 0.79312 0.28563 0.01702 0.0
C93 C 0.81138 0.27048 0.01226 0.0
C94 C 0.78733 0.28677 0.95189 0.0
C95 C 0.78081 0.29382 0.98686 0.0
C96 C 0.80559 0.27168 0.94718 0.0
C97 C 0.90086 0.18675 0.95007 0.0
C98 C 0.89356 0.18046 0.88566 0.0
C99 C 0.9281 0.1685 0.91158 0.0
C100 C 0.92149 0.1768 0.94568 0.0
C101 C 0.91411 0.16993 0.88125 0.0
C102 C 0.88701 0.18888 0.91979 0.0
C103 C 0.89381 0.1938 0.98658 0.0
O104 O 0.87044 0.24104 0.0667 0.0
O105 O 0.8484 0.20779 0.06413 0.0
O106 O 0.87505 0.18438 0.99576 0.0
O107 O 0.89659 0.21813 0.99602 0.0
H108 H 0.89912 0.20208 0.08484 0.0
H109 H 0.91725 0.17973 0.13503 0.0
H110 H 0.86344 0.1957 0.20363 0.0
H111 H 0.84538 0.21792 0.15323 0.0
H112 H 0.78841 0.29049 0.04431 0.0
H113 H 0.82049 0.2641 0.03584 0.0
H114 H 0.77839 0.29304 0.92809 0.0
H115 H 0.81024 0.26639 0.92 0.0
H116 H 0.88252 0.1821 0.86275 0.0
H117 H 0.94393 0.16022 0.90919 0.0
H118 H 0.93237 0.17498 0.96879 0.0
H119 H 0.87103 0.19668 0.92267 0.0
C120 C 0.37325 0.29198 0.40402 0.0
C121 C 0.39347 0.30379 0.40886 0.0
C122 C 0.39324 0.31648 0.34539 0.0
C123 C 0.40342 0.31583 0.37975 0.0
C124 C 0.37305 0.30441 0.34066 0.0
C125 C 0.36317 0.29223 0.36976 0.0
U126 U 0.36687 0.28595 0.50537 0.0
O127 O 0.33794 0.28568 0.53847 0.0
O128 O 0.35959 0.25245 0.53961 0.0
C129 C 0.34114 0.26198 0.54977 0.0
C130 C 0.36216 0.28057 0.43494 0.0
C131 C 0.32248 0.24463 0.54594 0.0
C132 C 0.29663 0.22074 0.50843 0.0
C133 C 0.31509 0.23623 0.51166 0.0
C134 C 0.293 0.22175 0.57373 0.0
C135 C 0.28525 0.21354 0.53944 0.0
C136 C 0.31145 0.23716 0.57691 0.0
C137 C 0.40404 0.32627 0.56773 0.0
C138 C 0.41322 0.36237 0.60757 0.0
C139 C 0.41464 0.31868 0.63059 0.0
C140 C 0.40799 0.30919 0.59655 0.0
C141 C 0.4172 0.34539 0.63648 0.0
C142 C 0.40678 0.35288 0.57353 0.0
C143 C 0.39685 0.31704 0.53155 0.0
O144 O 0.37367 0.26477 0.45509 0.0
O145 O 0.35098 0.29698 0.45404 0.0
O146 O 0.37781 0.32504 0.5208 0.0
O147 O 0.40026 0.29259 0.52383 0.0
H148 H 0.40139 0.30404 0.43528 0.0
H149 H 0.41883 0.32525 0.38437 0.0
H150 H 0.3649 0.30439 0.31445 0.0
H151 H 0.34752 0.28329 0.36562 0.0
H152 H 0.29098 0.21494 0.48163 0.0
H153 H 0.32341 0.24197 0.48744 0.0
H154 H 0.28479 0.21623 0.59816 0.0
H155 H 0.31697 0.24348 0.60357 0.0
H156 H 0.41531 0.38302 0.61117 0.0
H157 H 0.41744 0.30518 0.65247 0.0
H158 H 0.40586 0.28856 0.5929 0.0
H159 H 0.40388 0.36638 0.55166 0.0
C160 C 0.02369 0.97243 0.46162 0.0
N161 N 0.04951 0.03817 0.51394 0.0
C162 C 0.06862 0.02562 0.51445 0.0
C163 C 0.08792 0.03952 0.51504 0.0
C164 C 0.08759 0.06664 0.51524 0.0
C165 C 0.06763 0.07909 0.51461 0.0
C166 C 0.0487 0.06442 0.5139 0.0
Zn167 Zn 0.02164 0.01695 0.51361 0.0
C168 C 0.98972 0.03553 0.45915 0.0
N169 N 0.964 0.9716 0.51309 0.0
C170 C 0.96456 0.94534 0.51358 0.0
C171 C 0.945 0.98441 0.51235 0.0
C172 C 0.92558 0.9708 0.51193 0.0
C173 C 0.92563 0.94367 0.51227 0.0
C174 C 0.94548 0.93094 0.51322 0.0
Zn175 Zn 0.99192 0.99271 0.51335 0.0
O176 O 0.03428 0.99172 0.47405 0.0
C177 C 0.02377 0.97433 0.56807 0.0
O178 O 0.00493 0.968 0.47322 0.0
H179 H 0.94489 0.00529 0.5121 0.0
H180 H 0.06893 0.00474 0.51463 0.0
H181 H 0.97983 0.93555 0.51411 0.0
O182 O 0.03425 0.99333 0.55552 0.0
O183 O 0.00516 0.96916 0.55505 0.0
H184 H 0.03334 0.07402 0.51337 0.0
O185 O 0.97943 0.01773 0.55344 0.0
O186 O 0.0086 0.04173 0.55347 0.0
O187 O 0.97916 0.01665 0.47188 0.0
O188 O 0.0085 0.04035 0.47164 0.0
C189 C 0.99003 0.03708 0.56566 0.0
H190 H 0.10294 0.02912 0.51599 0.0
H191 H 0.06663 0.09996 0.51434 0.0
H192 H 0.91069 0.98144 0.51173 0.0
H193 H 0.94628 0.91006 0.5131 0.0
C194 C 0.49126 0.47439 0.96187 0.0
N195 N 0.54991 0.47248 0.01995 0.0
C196 C 0.54865 0.44627 0.01787 0.0
C197 C 0.5673 0.4315 0.0172 0.0
C198 C 0.58751 0.44375 0.01871 0.0
C199 C 0.58832 0.47083 0.0213 0.0
C200 C 0.56925 0.48487 0.02184 0.0
Zn201 Zn 0.52214 0.49348 0.01908 0.0
C202 C 0.52477 0.53812 0.96843 0.0
N203 N 0.46407 0.53718 0.01628 0.0
C204 C 0.44482 0.52458 0.01438 0.0
C205 C 0.46515 0.56342 0.01737 0.0
C206 C 0.44639 0.57805 0.01633 0.0
C207 C 0.42629 0.56557 0.01429 0.0
C208 C 0.42566 0.53845 0.01343 0.0
Zn209 Zn 0.49189 0.51628 0.01739 0.0
O210 O 0.50967 0.47009 0.97595 0.0
C211 C 0.48925 0.47163 0.06799 0.0
O212 O 0.48012 0.49287 0.97405 0.0
H213 H 0.4806 0.57306 0.01903 0.0
H214 H 0.53313 0.43679 0.0165 0.0
H215 H 0.44431 0.50371 0.01343 0.0
O216 O 0.50836 0.46823 0.05754 0.0
O217 O 0.47849 0.4904 0.0553 0.0
H218 H 0.56991 0.50573 0.02337 0.0
O219 O 0.50416 0.53938 0.06089 0.0
O220 O 0.53407 0.51723 0.06201 0.0
O221 O 0.50578 0.54173 0.97932 0.0
O222 O 0.53545 0.51914 0.98073 0.0
C223 C 0.52274 0.53541 0.07456 0.0
H224 H 0.56589 0.41066 0.0157 0.0
H225 H 0.60352 0.48111 0.02212 0.0
H226 H 0.44762 0.59891 0.0175 0.0
H227 H 0.41054 0.52804 0.01142 0.0
C228 C 0.26345 0.17702 0.51196 0.0
C229 C 0.2651 0.19806 0.53613 0.0
C230 C 0.24447 0.16246 0.50917 0.0
C231 C 0.19493 0.14734 0.5591 0.0
H232 H 0.17332 0.12409 0.46509 0.0
C233 C 0.11006 0.10369 0.5391 0.0
C234 C 0.10796 0.08178 0.5166 0.0
C235 C 0.12936 0.11761 0.54102 0.0
C236 C 0.17926 0.13022 0.49157 0.0
H237 H 0.2479 0.2207 0.57558 0.0
H238 H 0.21485 0.19546 0.57063 0.0
H239 H 0.20683 0.14875 0.46928 0.0
H240 H 0.1244 0.05764 0.47793 0.0
H241 H 0.15818 0.08182 0.48157 0.0
H242 H 0.16731 0.12897 0.58137 0.0
C243 C 0.22834 0.18982 0.55437 0.0
C244 C 0.19848 0.14432 0.49399 0.0
C245 C 0.2473 0.20432 0.55721 0.0
C246 C 0.12556 0.07428 0.4958 0.0
C247 C 0.14484 0.08828 0.4976 0.0
C248 C 0.1757 0.13332 0.55667 0.0
C249 C 0.2267 0.16865 0.53043 0.0
C250 C 0.2065 0.15316 0.52779 0.0
C251 C 0.147 0.11003 0.52038 0.0
C252 C 0.16759 0.12468 0.52288 0.0
H253 H 0.27695 0.17153 0.49563 0.0
H254 H 0.24384 0.14608 0.49079 0.0
H255 H 0.20083 0.15342 0.58564 0.0
H256 H 0.09688 0.10984 0.55573 0.0
H257 H 0.13041 0.13445 0.55854 0.0
C258 C 0.27073 0.70711 0.97473 0.0
C259 C 0.25248 0.701 0.9949 0.0
C260 C 0.28919 0.69205 0.97742 0.0
C261 C 0.31692 0.64448 0.03603 0.0
H262 H 0.34843 0.63003 0.94866 0.0
C263 C 0.38811 0.57307 0.03246 0.0
C264 C 0.40612 0.58076 0.01268 0.0
C265 C 0.36912 0.58732 0.03075 0.0
C266 C 0.33993 0.6341 0.97337 0.0
H267 H 0.23935 0.67419 0.03374 0.0
H268 H 0.27159 0.64775 0.03833 0.0
H269 H 0.31574 0.65547 0.94494 0.0
H270 H 0.4182 0.60933 0.9753 0.0
H271 H 0.38521 0.63433 0.97264 0.0
H272 H 0.34117 0.62298 0.06439 0.0
C273 C 0.2717 0.66444 0.02076 0.0
C274 C 0.32119 0.6487 0.97125 0.0
C275 C 0.25321 0.67957 0.01812 0.0
C276 C 0.4047 0.60302 0.99115 0.0
C277 C 0.38571 0.61719 0.98931 0.0
C278 C 0.33567 0.62979 0.03812 0.0
C279 C 0.28988 0.67043 1.00029 0.0
C280 C 0.30952 0.65425 0.00258 0.0
C281 C 0.36768 0.6095 0.00905 0.0
C282 C 0.34747 0.62458 0.00684 0.0
H283 H 0.27085 0.72378 0.95712 0.0
H284 H 0.30303 0.69757 0.96184 0.0
H285 H 0.30849 0.64864 0.06076 0.0
H286 H 0.38873 0.55615 0.04957 0.0
H287 H 0.35548 0.58077 0.04606 0.0
C288 C 0.7635 0.80723 0.52489 0.0
C289 C 0.7466 0.81482 0.50157 0.0
C290 C 0.78261 0.82157 0.52701 0.0
C291 C 0.81466 0.86825 0.47505 0.0
H292 H 0.84439 0.87995 0.56708 0.0
C293 C 0.88779 0.93684 0.48922 0.0
C294 C 0.90507 0.92885 0.51142 0.0
C295 C 0.86841 0.92307 0.48851 0.0
C296 C 0.83641 0.87661 0.54112 0.0
H297 H 0.73628 0.84396 0.46313 0.0
H298 H 0.76956 0.86899 0.46689 0.0
H299 H 0.81048 0.85602 0.56539 0.0
H300 H 0.91543 0.90019 0.55055 0.0
H301 H 0.8817 0.87588 0.54882 0.0
H302 H 0.84056 0.88876 0.45075 0.0
C303 C 0.76821 0.85167 0.48303 0.0
C304 C 0.81696 0.86291 0.54015 0.0
C305 C 0.74912 0.83733 0.48089 0.0
C306 C 0.90251 0.90673 0.53288 0.0
C307 C 0.88309 0.89297 0.53221 0.0
C308 C 0.83408 0.88194 0.47602 0.0
C309 C 0.78525 0.84384 0.50588 0.0
C310 C 0.80585 0.85858 0.5071 0.0
C311 C 0.86582 0.90097 0.50999 0.0
C312 C 0.84519 0.8863 0.50905 0.0
H313 H 0.7622 0.7898 0.54082 0.0
H314 H 0.79551 0.81481 0.54454 0.0
H315 H 0.80672 0.86487 0.44905 0.0
H316 H 0.88929 0.95363 0.47205 0.0
H317 H 0.85536 0.92992 0.47136 0.0
C318 C 0.74245 0.30398 0.97076 0.0
C319 C 0.76104 0.30931 0.99178 0.0
C320 C 0.72385 0.31848 0.97519 0.0
C321 C 0.70468 0.38117 0.00922 0.0
H322 H 0.64924 0.34657 0.00758 0.0
C323 C 0.62558 0.43483 0.03886 0.0
C324 C 0.60756 0.42839 0.01697 0.0
C325 C 0.6444 0.42034 0.03707 0.0
C326 C 0.66457 0.35658 0.00772 0.0
H327 H 0.77468 0.33424 0.03382 0.0
H328 H 0.74208 0.3594 0.04186 0.0
H329 H 0.68185 0.32126 1.00224 0.0
H330 H 0.59543 0.40196 0.97547 0.0
H331 H 0.62819 0.37679 0.97229 0.0
H332 H 0.68737 0.41653 0.01443 0.0
C333 C 0.74197 0.34408 0.02175 0.0
C334 C 0.68327 0.34205 0.00468 0.0
C335 C 0.76057 0.3295 0.0174 0.0
C336 C 0.60886 0.40718 0.99319 0.0
C337 C 0.62766 0.39272 0.99137 0.0
C338 C 0.68595 0.39572 0.01221 0.0
C339 C 0.72337 0.33872 1.00071 0.0
C340 C 0.70355 0.35418 0.00514 0.0
C341 C 0.64566 0.39908 0.01333 0.0
C342 C 0.66566 0.38361 0.01125 0.0
H343 H 0.74218 0.28839 0.95106 0.0
H344 H 0.7099 0.31401 0.95826 0.0
H345 H 0.72003 0.39114 0.00923 0.0
H346 H 0.62503 0.45085 0.05781 0.0
H347 H 0.65786 0.42557 0.0547 0.0
C348 C 0.12364 0.85128 0.2355 0.0
C349 C 0.11175 0.83447 0.21267 0.0
C350 C 0.11364 0.86484 0.26325 0.0
C351 C 0.06021 0.88692 0.29275 0.0
H352 H 0.0905 0.8991 0.38416 0.0
C353 C 0.02084 0.93611 0.41629 0.0
C354 C 0.03323 0.95538 0.43397 0.0
C355 C 0.02993 0.92027 0.38993 0.0
C356 C 0.08189 0.89598 0.35869 0.0
H357 H 0.0801 0.81829 0.20153 0.0
H358 H 0.06265 0.84165 0.25034 0.0
H359 H 0.10718 0.87311 0.33735 0.0
H360 H 0.06494 0.97294 0.43801 0.0
H361 H 0.08075 0.94526 0.39224 0.0
H362 H 0.03486 0.90975 0.31438 0.0
C363 C 0.07965 0.84479 0.24635 0.0
C364 C 0.09146 0.88114 0.33179 0.0
C365 C 0.08964 0.83134 0.21842 0.0
C366 C 0.05493 0.95831 0.42491 0.0
C367 C 0.06404 0.94234 0.39884 0.0
C368 C 0.05057 0.90163 0.31979 0.0
C369 C 0.0915 0.8618 0.26905 0.0
C370 C 0.08086 0.87664 0.2983 0.0
C371 C 0.05165 0.92319 0.38099 0.0
C372 C 0.0614 0.90654 0.35291 0.0
H373 H 0.14063 0.85443 0.2314 0.0
H374 H 0.12322 0.87813 0.27969 0.0
H375 H 0.05167 0.88419 0.26714 0.0
H376 H 0.00408 0.93335 0.42265 0.0
H377 H 0.02003 0.90554 0.37682 0.0
C378 C 0.62165 0.66288 0.74185 0.0
C379 C 0.60925 0.67953 0.72015 0.0
C380 C 0.61225 0.64885 0.76971 0.0
C381 C 0.55958 0.62491 0.80087 0.0
H382 H 0.59116 0.61322 0.89087 0.0
C383 C 0.52175 0.57461 0.92423 0.0
C384 C 0.53428 0.55561 0.94137 0.0
C385 C 0.53064 0.59072 0.89808 0.0
C386 C 0.58221 0.61618 0.86579 0.0
H387 H 0.57734 0.69494 0.71119 0.0
H388 H 0.56096 0.67072 0.76017 0.0
H389 H 0.60703 0.63987 0.844 0.0
H390 H 0.56607 0.53884 0.94476 0.0
H391 H 0.58156 0.56699 0.89922 0.0
H392 H 0.53471 0.60127 0.82288 0.0
C393 C 0.57788 0.66809 0.75519 0.0
C394 C 0.59131 0.63141 0.83887 0.0
C395 C 0.58726 0.68203 0.72717 0.0
C396 C 0.55596 0.55327 0.93207 0.0
C397 C 0.56488 0.5695 0.90613 0.0
C398 C 0.55043 0.60981 0.8279 0.0
C399 C 0.59023 0.65122 0.77671 0.0
C400 C 0.58019 0.6358 0.80593 0.0
C401 C 0.5523 0.58832 0.88872 0.0
C402 C 0.56171 0.60511 0.86054 0.0
H403 H 0.63856 0.66022 0.73675 0.0
H404 H 0.6222 0.6357 0.78525 0.0
H405 H 0.55069 0.62753 0.77566 0.0
H406 H 0.50499 0.57695 0.93079 0.0
H407 H 0.5206 0.60521 0.88537 0.0
C408 C 0.92431 0.17444 0.21109 0.0
C409 C 0.90226 0.17133 0.20323 0.0
C410 C 0.93419 0.16025 0.23885 0.0
C411 C 0.92806 0.10046 0.29122 0.0
H412 H 0.96767 0.13332 0.35985 0.0
C413 C 0.95861 0.04786 0.41903 0.0
C414 C 0.98015 0.0516 0.43002 0.0
C415 C 0.94952 0.06277 0.39138 0.0
C416 C 0.95688 0.12375 0.34063 0.0
H417 H 0.87334 0.15075 0.21818 0.0
H418 H 0.89054 0.12612 0.26672 0.0
H419 H 0.95117 0.15879 0.31144 0.0
H420 H 0.00902 0.07403 0.42054 0.0
H421 H 0.99326 0.09975 0.37175 0.0
H422 H 0.93385 0.0654 0.31997 0.0
C423 C 0.90021 0.13947 0.25134 0.0
C424 C 0.94739 0.13838 0.31293 0.0
C425 C 0.89031 0.15377 0.22379 0.0
C426 C 0.99237 0.0707 0.41279 0.0
C427 C 0.98329 0.08555 0.38494 0.0
C428 C 0.93762 0.08582 0.31873 0.0
C429 C 0.92227 0.14248 0.25912 0.0
C430 C 0.93276 0.12693 0.28808 0.0
C431 C 0.96175 0.08172 0.37381 0.0
C432 C 0.95203 0.09729 0.34397 0.0
H433 H 0.93391 0.18796 0.19589 0.0
H434 H 0.95124 0.16287 0.24405 0.0
H435 H 0.91714 0.09098 0.27211 0.0
H436 H 0.94868 0.03344 0.43191 0.0
H437 H 0.93279 0.0596 0.38403 0.0
C438 C 0.41357 0.37711 0.68748 0.0
C439 C 0.42398 0.35566 0.67259 0.0
C440 C 0.42036 0.38744 0.72086 0.0
C441 C 0.46767 0.39286 0.78095 0.0
H442 H 0.42659 0.41508 0.8521 0.0
C443 C 0.49466 0.43703 0.91884 0.0
C444 C 0.48304 0.45842 0.93113 0.0
C445 C 0.48716 0.42244 0.88913 0.0
C446 C 0.43827 0.40921 0.83238 0.0
H447 H 0.44957 0.32809 0.68108 0.0
H448 H 0.46151 0.34623 0.73955 0.0
H449 H 0.41395 0.39325 0.79685 0.0
H450 H 0.45433 0.48113 0.92201 0.0
H451 H 0.4415 0.45607 0.86989 0.0
H452 H 0.49197 0.40936 0.8159 0.0
C453 C 0.44811 0.35504 0.72529 0.0
C454 C 0.43102 0.39664 0.80079 0.0
C455 C 0.44117 0.34454 0.69201 0.0
C456 C 0.46365 0.46472 0.91332 0.0
C457 C 0.45621 0.45022 0.88354 0.0
C458 C 0.47493 0.40557 0.81245 0.0
C459 C 0.43783 0.37667 0.73998 0.0
C460 C 0.44562 0.38856 0.77456 0.0
C461 C 0.46791 0.42896 0.87094 0.0
C462 C 0.4603 0.41415 0.8384 0.0
H463 H 0.40015 0.38592 0.67329 0.0
H464 H 0.41224 0.40425 0.73131 0.0
H465 H 0.47929 0.38714 0.76102 0.0
H466 H 0.50961 0.43156 0.93209 0.0
H467 H 0.49642 0.40598 0.8805 0.0
C468 C 0.60204 0.6461 0.34109 0.0
C469 C 0.58716 0.66018 0.36127 0.0
C470 C 0.59582 0.6342 0.30842 0.0
C471 C 0.55452 0.63442 0.23533 0.0
H472 H 0.5718 0.56335 0.22124 0.0
C473 C 0.51747 0.56924 0.12238 0.0
C474 C 0.53091 0.55143 0.10528 0.0
C475 C 0.52496 0.58365 0.15226 0.0
C476 C 0.5671 0.58331 0.2244 0.0
H477 H 0.55427 0.6735 0.3624 0.0
H478 H 0.54336 0.65258 0.30536 0.0
H479 H 0.58389 0.58675 0.27538 0.0
H480 H 0.56296 0.53531 0.10554 0.0
H481 H 0.57614 0.56079 0.15712 0.0
H482 H 0.53776 0.63101 0.1843 0.0
C483 C 0.55986 0.65082 0.3148 0.0
C484 C 0.57401 0.59671 0.25551 0.0
C485 C 0.56604 0.66259 0.34762 0.0
C486 C 0.55213 0.54871 0.11827 0.0
C487 C 0.55965 0.56323 0.148 0.0
C488 C 0.5477 0.62106 0.20407 0.0
C489 C 0.57461 0.63621 0.29509 0.0
C490 C 0.56773 0.62237 0.26141 0.0
C491 C 0.5461 0.58071 0.16561 0.0
C492 C 0.55382 0.59528 0.1983 0.0
H493 H 0.61837 0.64369 0.35103 0.0
H494 H 0.6076 0.62329 0.29366 0.0
H495 H 0.54962 0.65428 0.23895 0.0
H496 H 0.50102 0.57175 0.11311 0.0
H497 H 0.51398 0.59666 0.1654 0.0
C498 C 0.90638 0.14403 0.82472 0.0
C499 C 0.92068 0.1594 0.8456 0.0
C500 C 0.91298 0.13259 0.79242 0.0
C501 C 0.95413 0.13579 0.72167 0.0
H502 H 0.93965 0.06347 0.70724 0.0
C503 C 0.9938 0.07238 0.6123 0.0
C504 C 0.98108 0.05337 0.59476 0.0
C505 C 0.9857 0.08667 0.6412 0.0
C506 C 0.94357 0.08377 0.71047 0.0
H507 H 0.95288 0.17559 0.84824 0.0
H508 H 0.96445 0.15547 0.79194 0.0
H509 H 0.92667 0.08619 0.76029 0.0
H510 H 0.94962 0.03511 0.59303 0.0
H511 H 0.93538 0.06034 0.64283 0.0
H512 H 0.97106 0.13336 0.67181 0.0
C513 C 0.94812 0.15232 0.80052 0.0
C514 C 0.93613 0.09679 0.74096 0.0
C515 C 0.94155 0.16364 0.83294 0.0
C516 C 0.95991 0.04945 0.60614 0.0
C517 C 0.95178 0.06383 0.63487 0.0
C518 C 0.96149 0.12279 0.69102 0.0
C519 C 0.934 0.13637 0.78015 0.0
C520 C 0.94139 0.12291 0.74701 0.0
C521 C 0.96465 0.08239 0.65311 0.0
C522 C 0.95637 0.09657 0.68511 0.0
H523 H 0.89026 0.1402 0.83386 0.0
H524 H 0.90165 0.12064 0.77714 0.0
H525 H 0.95826 0.156 0.72537 0.0
H526 H 0.0102 0.07584 0.60426 0.0
H527 H 0.99616 0.10058 0.65484 0.0
C528 C 0.39104 0.34671 0.29257 0.0
C529 C 0.40334 0.33041 0.31495 0.0
C530 C 0.40063 0.36058 0.26473 0.0
C531 C 0.45348 0.38489 0.235 0.0
H532 H 0.42281 0.39578 0.14392 0.0
C533 C 0.49221 0.4353 0.1125 0.0
C534 C 0.47966 0.45409 0.0949 0.0
C535 C 0.48319 0.41913 0.13846 0.0
C536 C 0.43151 0.39304 0.1693 0.0
H537 H 0.43526 0.31539 0.32512 0.0
H538 H 0.45199 0.33931 0.27619 0.0
H539 H 0.40663 0.36914 0.19051 0.0
H540 H 0.44773 0.4704 0.0905 0.0
H541 H 0.43204 0.44214 0.13569 0.0
H542 H 0.4784 0.40874 0.21359 0.0
C543 C 0.43499 0.34181 0.28061 0.0
C544 C 0.42223 0.37782 0.19606 0.0
C545 C 0.42541 0.32805 0.3086 0.0
C546 C 0.45785 0.45615 0.10355 0.0
C547 C 0.44882 0.43985 0.12929 0.0
C548 C 0.46281 0.39998 0.20813 0.0
C549 C 0.42274 0.35839 0.25846 0.0
C550 C 0.43301 0.37372 0.22938 0.0
C551 C 0.46141 0.42125 0.14715 0.0
C552 C 0.45185 0.40439 0.17512 0.0
H553 H 0.37406 0.34925 0.29713 0.0
H554 H 0.39075 0.37349 0.24868 0.0
H555 H 0.46211 0.38251 0.26051 0.0
H556 H 0.50905 0.43319 0.10644 0.0
H557 H 0.49324 0.40482 0.15154 0.0
C558 C 0.0779 0.84981 0.83716 0.0
C559 C 0.09596 0.86008 0.85575 0.0
C560 C 0.07068 0.86075 0.80456 0.0
C561 C 0.07382 0.92176 0.75299 0.0
H562 H 0.05037 0.88028 0.67361 0.0
C563 C 0.05279 0.96616 0.61441 0.0
C564 C 0.03288 0.95912 0.59852 0.0
C565 C 0.06091 0.95289 0.64447 0.0
C566 C 0.05673 0.89211 0.69568 0.0
H567 H 0.12121 0.88903 0.85391 0.0
H568 H 0.1089 0.90783 0.79688 0.0
H569 H 0.06403 0.85914 0.72838 0.0
H570 H 0.00617 0.93212 0.60123 0.0
H571 H 0.0204 0.90893 0.65387 0.0
H572 H 0.06662 0.95469 0.72033 0.0
C573 C 0.09991 0.8918 0.80789 0.0
C574 C 0.06453 0.88001 0.72708 0.0
C575 C 0.10701 0.881 0.84054 0.0
C576 C 0.02154 0.93805 0.61285 0.0
C577 C 0.02973 0.92468 0.6429 0.0
C578 C 0.06615 0.9338 0.7216 0.0
C579 C 0.08146 0.88209 0.78973 0.0
C580 C 0.07322 0.89471 0.75611 0.0
C581 C 0.04938 0.9322 0.65933 0.0
C582 C 0.05755 0.91914 0.69255 0.0
H583 H 0.06895 0.83384 0.8484 0.0
H584 H 0.0563 0.85294 0.79155 0.0
H585 H 0.07993 0.93375 0.77507 0.0
H586 H 0.06201 0.9822 0.60397 0.0
H587 H 0.07624 0.95889 0.65618 0.0
loop_
_geom_bond_atom_site_label_1
_geom_bond_atom_site_label_2
_geom_bond_distance
_geom_bond_site_symmetry_2
_ccdc_geom_bond_type
C0 C1 1.264 . S
C0 C5 1.479 . S
C0 C10 1.465 . S
C1 C0 1.264 . S
C1 C3 1.339 . S
C1 H28 0.931 . S
C2 C3 1.395 . S
C2 C4 1.320 . S
C3 C1 1.339 . S
C3 C2 1.395 . S
C3 H29 0.929 . S
C4 C2 1.320 . S
C4 C5 1.405 . S
C4 H30 0.930 . S
C5 C0 1.479 . S
C5 C4 1.405 . S
C5 H31 0.931 . S
U6 O7 2.454 . S
U6 O8 2.458 1_554 S
U6 C9 2.984 . S
U6 C10 2.847 . S
U6 C23 2.882 1_554 S
U6 O24 2.441 . S
U6 O25 2.420 . S
U6 O26 2.455 1_554 S
U6 O27 2.449 1_554 S
O7 U6 2.454 . S
O7 C9 1.353 . S
O8 U6 2.458 1_556 S
O8 C9 1.286 1_556 S
C9 U6 2.984 . S
C9 O7 1.353 . S
C9 O8 1.286 1_554 S
C9 C11 1.363 . S
C10 C0 1.465 . S
C10 U6 2.847 . S
C10 O24 1.249 . S
C10 O25 1.202 . S
C11 C9 1.363 . S
C11 C13 1.408 . S
C11 C16 1.342 1_554 S
C12 C13 1.310 . S
C12 C15 1.461 . S
C12 H32 0.932 . S
C13 C11 1.408 . S
C13 C12 1.310 . S
C13 H33 0.930 . S
C14 C15 1.474 1_556 S
C14 C16 1.285 . S
C14 H34 0.929 . S
C15 C12 1.461 . S
C15 C14 1.474 1_554 S
C16 C11 1.342 1_556 S
C16 C14 1.285 . S
C16 H35 0.930 . S
C17 C20 1.424 . S
C17 C22 1.245 . S
C17 C23 1.428 . S
C18 C21 1.260 . S
C18 C22 1.477 . S
C18 H36 0.932 . S
C19 C20 1.384 . S
C19 C21 1.479 . S
C19 H37 0.929 . S
C20 C17 1.424 . S
C20 C19 1.384 . S
C20 H38 0.928 . S
C21 C18 1.260 . S
C21 C19 1.479 . S
C22 C17 1.245 . S
C22 C18 1.477 . S
C22 H39 0.932 . S
C23 U6 2.882 1_556 S
C23 C17 1.428 . S
C23 O26 1.301 . S
C23 O27 1.282 . S
O24 U6 2.441 . S
O24 C10 1.249 . S
O25 U6 2.420 . S
O25 C10 1.202 . S
O26 U6 2.455 1_556 S
O26 C23 1.301 . S
O27 U6 2.449 1_556 S
O27 C23 1.282 . S
H28 C1 0.931 . S
H29 C3 0.929 . S
H30 C4 0.930 . S
H31 C5 0.931 . S
H32 C12 0.932 . S
H33 C13 0.930 . S
H34 C14 0.929 . S
H35 C16 0.930 . S
H36 C18 0.932 . S
H37 C19 0.929 . S
H38 C20 0.928 . S
H39 C22 0.932 . S
C40 C41 1.264 . S
C40 C45 1.479 . S
C40 C50 1.465 . S
C41 C40 1.264 . S
C41 C43 1.339 . S
C41 H68 0.931 . S
C42 C43 1.395 . S
C42 C44 1.320 . S
C43 C41 1.339 . S
C43 C42 1.395 . S
C43 H69 0.929 . S
C44 C42 1.320 . S
C44 C45 1.405 . S
C44 H70 0.930 . S
C45 C40 1.479 . S
C45 C44 1.405 . S
C45 H71 0.931 . S
U46 O47 2.454 . S
U46 O48 2.458 . S
U46 C49 2.984 . S
U46 C50 2.847 . S
U46 C63 2.882 . S
U46 O64 2.441 . S
U46 O65 2.420 . S
U46 O66 2.455 . S
U46 O67 2.449 . S
O47 U46 2.454 . S
O47 C49 1.353 . S
O48 U46 2.458 . S
O48 C49 1.286 . S
C49 U46 2.984 . S
C49 O47 1.353 . S
C49 O48 1.286 . S
C49 C51 1.363 . S
C50 C40 1.465 . S
C50 U46 2.847 . S
C50 O64 1.249 . S
C50 O65 1.202 . S
C51 C49 1.363 . S
C51 C53 1.408 . S
C51 C56 1.342 . S
C52 C53 1.310 . S
C52 C55 1.461 . S
C52 H72 0.932 . S
C53 C51 1.408 . S
C53 C52 1.310 . S
C53 H73 0.930 . S
C54 C55 1.474 . S
C54 C56 1.285 . S
C54 H74 0.929 . S
C55 C52 1.461 . S
C55 C54 1.474 . S
C56 C51 1.342 . S
C56 C54 1.285 . S
C56 H75 0.930 . S
C57 C60 1.424 . S
C57 C62 1.245 . S
C57 C63 1.428 . S
C58 C61 1.260 . S
C58 C62 1.477 . S
C58 H76 0.932 . S
C59 C60 1.384 . S
C59 C61 1.479 . S
C59 H77 0.929 . S
C60 C57 1.424 . S
C60 C59 1.384 . S
C60 H78 0.928 . S
C61 C58 1.260 . S
C61 C59 1.479 . S
C62 C57 1.245 . S
C62 C58 1.477 . S
C62 H79 0.932 . S
C63 U46 2.882 . S
C63 C57 1.428 . S
C63 O66 1.301 . S
C63 O67 1.282 . S
O64 U46 2.441 . S
O64 C50 1.249 . S
O65 U46 2.420 . S
O65 C50 1.202 . S
O66 U46 2.455 . S
O66 C63 1.301 . S
O67 U46 2.449 . S
O67 C63 1.282 . S
H68 C41 0.931 . S
H69 C43 0.929 . S
H70 C44 0.930 . S
H71 C45 0.931 . S
H72 C52 0.932 . S
H73 C53 0.930 . S
H74 C54 0.929 . S
H75 C56 0.930 . S
H76 C58 0.932 . S
H77 C59 0.929 . S
H78 C60 0.928 . S
H79 C62 0.932 . S
C80 C81 1.264 . S
C80 C85 1.479 . S
C80 C90 1.465 . S
C81 C80 1.264 . S
C81 C83 1.339 . S
C81 H108 0.931 . S
C82 C83 1.395 . S
C82 C84 1.320 . S
C83 C81 1.339 . S
C83 C82 1.395 . S
C83 H109 0.929 . S
C84 C82 1.320 . S
C84 C85 1.405 . S
C84 H110 0.930 . S
C85 C80 1.479 . S
C85 C84 1.405 . S
C85 H111 0.931 . S
U86 O87 2.454 . S
U86 O88 2.458 1_554 S
U86 C89 2.984 . S
U86 C90 2.847 . S
U86 C103 2.882 1_554 S
U86 O104 2.441 . S
U86 O105 2.420 . S
U86 O106 2.455 1_554 S
U86 O107 2.449 1_554 S
O87 U86 2.454 . S
O87 C89 1.353 . S
O88 U86 2.458 1_556 S
O88 C89 1.286 1_556 S
C89 U86 2.984 . S
C89 O87 1.353 . S
C89 O88 1.286 1_554 S
C89 C91 1.363 . S
C90 C80 1.465 . S
C90 U86 2.847 . S
C90 O104 1.249 . S
C90 O105 1.202 . S
C91 C89 1.363 . S
C91 C93 1.408 . S
C91 C96 1.342 1_554 S
C92 C93 1.310 . S
C92 C95 1.461 . S
C92 H112 0.932 . S
C93 C91 1.408 . S
C93 C92 1.310 . S
C93 H113 0.930 . S
C94 C95 1.474 1_556 S
C94 C96 1.285 . S
C94 H114 0.929 . S
C95 C92 1.461 . S
C95 C94 1.474 1_554 S
C96 C91 1.342 1_556 S
C96 C94 1.285 . S
C96 H115 0.930 . S
C97 C100 1.424 . S
C97 C102 1.245 . S
C97 C103 1.428 . S
C98 C101 1.260 . S
C98 C102 1.477 . S
C98 H116 0.932 . S
C99 C100 1.384 . S
C99 C101 1.479 . S
C99 H117 0.929 . S
C100 C97 1.424 . S
C100 C99 1.384 . S
C100 H118 0.928 . S
C101 C98 1.260 . S
C101 C99 1.479 . S
C102 C97 1.245 . S
C102 C98 1.477 . S
C102 H119 0.932 . S
C103 U86 2.882 1_556 S
C103 C97 1.428 . S
C103 O106 1.301 . S
C103 O107 1.282 . S
O104 U86 2.441 . S
O104 C90 1.249 . S
O105 U86 2.420 . S
O105 C90 1.202 . S
O106 U86 2.455 1_556 S
O106 C103 1.301 . S
O107 U86 2.449 1_556 S
O107 C103 1.282 . S
H108 C81 0.931 . S
H109 C83 0.929 . S
H110 C84 0.930 . S
H111 C85 0.931 . S
H112 C92 0.932 . S
H113 C93 0.930 . S
H114 C94 0.929 . S
H115 C96 0.930 . S
H116 C98 0.932 . S
H117 C99 0.929 . S
H118 C100 0.928 . S
H119 C102 0.932 . S
C120 C121 1.264 . S
C120 C125 1.479 . S
C120 C130 1.465 . S
C121 C120 1.264 . S
C121 C123 1.339 . S
C121 H148 0.931 . S
C122 C123 1.395 . S
C122 C124 1.320 . S
C123 C121 1.339 . S
C123 C122 1.395 . S
C123 H149 0.929 . S
C124 C122 1.320 . S
C124 C125 1.405 . S
C124 H150 0.930 . S
C125 C120 1.479 . S
C125 C124 1.405 . S
C125 H151 0.931 . S
U126 O127 2.454 . S
U126 O128 2.458 . S
U126 C129 2.984 . S
U126 C130 2.847 . S
U126 C143 2.882 . S
U126 O144 2.441 . S
U126 O145 2.420 . S
U126 O146 2.455 . S
U126 O147 2.449 . S
O127 U126 2.454 . S
O127 C129 1.353 . S
O128 U126 2.458 . S
O128 C129 1.286 . S
C129 U126 2.984 . S
C129 O127 1.353 . S
C129 O128 1.286 . S
C129 C131 1.363 . S
C130 C120 1.465 . S
C130 U126 2.847 . S
C130 O144 1.249 . S
C130 O145 1.202 . S
C131 C129 1.363 . S
C131 C133 1.408 . S
C131 C136 1.342 . S
C132 C133 1.310 . S
C132 C135 1.461 . S
C132 H152 0.932 . S
C133 C131 1.408 . S
C133 C132 1.310 . S
C133 H153 0.930 . S
C134 C135 1.474 . S
C134 C136 1.285 . S
C134 H154 0.929 . S
C135 C132 1.461 . S
C135 C134 1.474 . S
C136 C131 1.342 . S
C136 C134 1.285 . S
C136 H155 0.930 . S
C137 C140 1.424 . S
C137 C142 1.245 . S
C137 C143 1.428 . S
C138 C141 1.260 . S
C138 C142 1.477 . S
C138 H156 0.932 . S
C139 C140 1.384 . S
C139 C141 1.479 . S
C139 H157 0.929 . S
C140 C137 1.424 . S
C140 C139 1.384 . S
C140 H158 0.928 . S
C141 C138 1.260 . S
C141 C139 1.479 . S
C142 C137 1.245 . S
C142 C138 1.477 . S
C142 H159 0.932 . S
C143 U126 2.882 . S
C143 C137 1.428 . S
C143 O146 1.301 . S
C143 O147 1.282 . S
O144 U126 2.441 . S
O144 C130 1.249 . S
O145 U126 2.420 . S
O145 C130 1.202 . S
O146 U126 2.455 . S
O146 C143 1.301 . S
O147 U126 2.449 . S
O147 C143 1.282 . S
H148 C121 0.931 . S
H149 C123 0.929 . S
H150 C124 0.930 . S
H151 C125 0.931 . S
H152 C132 0.932 . S
H153 C133 0.930 . S
H154 C134 0.929 . S
H155 C136 0.930 . S
H156 C138 0.932 . S
H157 C139 0.929 . S
H158 C140 0.928 . S
H159 C142 0.932 . S
C160 O176 1.251 . S
C160 O178 1.247 1_455 S
N161 C162 1.333 . S
N161 C166 1.307 . S
N161 Zn167 2.020 . S
C162 N161 1.333 . S
C162 C163 1.379 . S
C162 H180 0.952 . S
C163 C162 1.379 . S
C163 C164 1.390 . S
C163 H190 0.949 . S
C164 C163 1.390 . S
C164 C165 1.357 . S
C165 C164 1.357 . S
C165 C166 1.370 . S
C165 H191 0.950 . S
C166 N161 1.307 . S
C166 C165 1.370 . S
C166 H184 0.948 . S
Zn167 N161 2.020 . S
Zn167 O176 2.039 1_545 S
Zn167 O182 2.034 1_545 S
Zn167 O186 2.025 . S
Zn167 O188 2.024 . S
C168 O187 1.246 . S
C168 O188 1.249 1_655 S
N169 C170 1.307 . S
N169 C171 1.333 . S
N169 Zn175 2.020 . S
C170 N169 1.307 . S
C170 C174 1.370 . S
C170 H181 0.948 . S
C171 N169 1.333 . S
C171 C172 1.379 . S
C171 H179 0.956 . S
C172 C171 1.379 . S
C172 C173 1.390 . S
C172 H192 0.949 . S
C173 C172 1.390 . S
C173 C174 1.357 . S
C174 C170 1.370 . S
C174 C173 1.357 . S
C174 H193 0.950 . S
Zn175 N169 2.020 . S
Zn175 O178 2.029 . S
Zn175 O183 2.036 . S
Zn175 O185 2.039 1_565 S
Zn175 O187 2.034 1_565 S
O176 C160 1.251 . S
O176 Zn167 2.039 1_565 S
C177 O182 1.246 . S
C177 O183 1.227 1_455 S
O178 C160 1.247 1_655 S
O178 Zn175 2.029 . S
H179 C171 0.956 . S
H180 C162 0.952 . S
H181 C170 0.948 . S
O182 Zn167 2.034 1_565 S
O182 C177 1.246 . S
O183 Zn175 2.036 . S
O183 C177 1.227 1_655 S
H184 C166 0.948 . S
O185 Zn175 2.039 1_545 S
O185 C189 1.251 . S
O186 Zn167 2.025 . S
O186 C189 1.254 1_455 S
O187 C168 1.246 . S
O187 Zn175 2.034 1_545 S
O188 Zn167 2.024 . S
O188 C168 1.249 1_455 S
C189 O185 1.251 . S
C189 O186 1.254 1_655 S
H190 C163 0.949 . S
H191 C165 0.950 . S
H192 C172 0.949 . S
H193 C174 0.950 . S
C194 O210 1.251 . S
C194 O212 1.254 . S
N195 C196 1.333 . S
N195 C200 1.307 . S
N195 Zn201 2.020 . S
C196 N195 1.333 . S
C196 C197 1.379 . S
C196 H214 0.952 1_554 S
C197 C196 1.379 . S
C197 C198 1.390 . S
C197 H224 0.949 1_554 S
C198 C197 1.390 . S
C198 C199 1.357 . S
C199 C198 1.357 . S
C199 C200 1.370 . S
C199 H225 0.950 . S
C200 N195 1.307 . S
C200 C199 1.370 . S
C200 H218 0.948 . S
Zn201 N195 2.020 . S
Zn201 O210 2.039 1_554 S
Zn201 O216 2.034 . S
Zn201 O220 2.025 . S
Zn201 O222 2.024 1_554 S
C202 O221 1.246 . S
C202 O222 1.249 . S
N203 C204 1.307 . S
N203 C205 1.333 . S
N203 Zn209 2.020 . S
C204 N203 1.307 . S
C204 C208 1.370 . S
C204 H215 0.948 1_554 S
C205 N203 1.333 . S
C205 C206 1.379 . S
C205 H213 0.952 . S
C206 C205 1.379 . S
C206 C207 1.390 . S
C206 H226 0.949 . S
C207 C206 1.390 . S
C207 C208 1.357 . S
C208 C204 1.370 . S
C208 C207 1.357 . S
C208 H227 0.950 1_554 S
Zn209 N203 2.020 . S
Zn209 O212 2.025 1_554 S
Zn209 O217 2.024 . S
Zn209 O219 2.039 . S
Zn209 O221 2.034 1_554 S
O210 C194 1.251 . S
O210 Zn201 2.039 1_556 S
C211 O216 1.246 . S
C211 O217 1.249 . S
O212 C194 1.254 . S
O212 Zn209 2.025 1_556 S
H213 C205 0.952 . S
H214 C196 0.952 1_556 S
H215 C204 0.948 1_556 S
O216 Zn201 2.034 . S
O216 C211 1.246 . S
O217 Zn209 2.024 . S
O217 C211 1.249 . S
H218 C200 0.948 . S
O219 Zn209 2.039 . S
O219 C223 1.251 . S
O220 Zn201 2.025 . S
O220 C223 1.254 . S
O221 C202 1.246 . S
O221 Zn209 2.034 1_556 S
O222 Zn201 2.024 1_556 S
O222 C202 1.249 . S
C223 O219 1.251 . S
C223 O220 1.254 . S
H224 C197 0.949 1_556 S
H225 C199 0.950 . S
H226 C206 0.949 . S
H227 C208 0.950 1_556 S
C228 C229 1.349 . S
C228 C230 1.327 . S
C228 H253 0.950 . S
C229 C228 1.349 . S
C229 C245 1.349 . S
C230 C228 1.327 . S
C230 C249 1.429 . S
C230 H254 0.950 . S
C231 C248 1.574 . S
C231 C250 1.368 . S
C231 H255 0.949 . S
H232 C236 0.949 . S
C233 C234 1.349 . S
C233 C235 1.327 . S
C233 H256 0.950 . S
C234 C233 1.349 . S
C234 C246 1.349 . S
C235 C233 1.327 . S
C235 C251 1.429 . S
C235 H257 0.950 . S
C236 H232 0.949 . S
C236 C244 1.574 . S
C236 C252 1.368 . S
H237 C245 0.950 . S
H238 C243 0.950 . S
H239 C244 0.949 . S
H240 C246 0.950 . S
H241 C247 0.950 . S
H242 C248 0.949 . S
C243 H238 0.950 . S
C243 C245 1.327 . S
C243 C249 1.429 . S
C244 C236 1.574 . S
C244 H239 0.949 . S
C244 C250 1.368 . S
C245 C229 1.349 . S
C245 H237 0.950 . S
C245 C243 1.327 . S
C246 C234 1.349 . S
C246 H240 0.950 . S
C246 C247 1.327 . S
C247 H241 0.950 . S
C247 C246 1.327 . S
C247 C251 1.429 . S
C248 C231 1.574 . S
C248 H242 0.949 . S
C248 C252 1.368 . S
C249 C230 1.429 . S
C249 C243 1.429 . S
C249 C250 1.523 . S
C250 C231 1.368 . S
C250 C244 1.368 . S
C250 C249 1.523 . S
C251 C235 1.429 . S
C251 C247 1.429 . S
C251 C252 1.523 . S
C252 C236 1.368 . S
C252 C248 1.368 . S
C252 C251 1.523 . S
H253 C228 0.950 . S
H254 C230 0.950 . S
H255 C231 0.949 . S
H256 C233 0.950 . S
H257 C235 0.950 . S
C258 C259 1.349 1_556 S
C258 C260 1.327 . S
C258 H283 0.950 . S
C259 C258 1.349 1_554 S
C259 C275 1.349 . S
C260 C258 1.327 . S
C260 C279 1.429 1_556 S
C260 H284 0.950 . S
C261 C278 1.574 . S
C261 C280 1.368 . S
C261 H285 0.949 . S
H262 C266 0.949 . S
C263 C264 1.349 . S
C263 C265 1.327 . S
C263 H286 0.950 . S
C264 C263 1.349 . S
C264 C276 1.349 1_554 S
C265 C263 1.327 . S
C265 C281 1.429 . S
C265 H287 0.950 . S
C266 H262 0.949 . S
C266 C274 1.574 . S
C266 C282 1.368 1_556 S
H267 C275 0.950 . S
H268 C273 0.950 . S
H269 C274 0.949 . S
H270 C276 0.950 . S
H271 C277 0.950 . S
H272 C278 0.949 . S
C273 H268 0.950 . S
C273 C275 1.327 . S
C273 C279 1.429 . S
C274 C266 1.574 . S
C274 H269 0.949 . S
C274 C280 1.368 1_556 S
C275 C259 1.349 . S
C275 H267 0.950 . S
C275 C273 1.327 . S
C276 C264 1.349 1_556 S
C276 H270 0.950 . S
C276 C277 1.327 . S
C277 H271 0.950 . S
C277 C276 1.327 . S
C277 C281 1.429 1_556 S
C278 C261 1.574 . S
C278 H272 0.949 . S
C278 C282 1.368 . S
C279 C260 1.429 1_554 S
C279 C273 1.429 . S
C279 C280 1.523 . S
C280 C261 1.368 . S
C280 C274 1.368 1_554 S
C280 C279 1.523 . S
C281 C265 1.429 . S
C281 C277 1.429 1_554 S
C281 C282 1.523 . S
C282 C266 1.368 1_554 S
C282 C278 1.368 . S
C282 C281 1.523 . S
H283 C258 0.950 . S
H284 C260 0.950 . S
H285 C261 0.949 . S
H286 C263 0.950 . S
H287 C265 0.950 . S
C288 C289 1.349 . S
C288 C290 1.327 . S
C288 H313 0.950 . S
C289 C288 1.349 . S
C289 C305 1.349 . S
C290 C288 1.327 . S
C290 C309 1.429 . S
C290 H314 0.950 . S
C291 C308 1.574 . S
C291 C310 1.368 . S
C291 H315 0.949 . S
H292 C296 0.949 . S
C293 C294 1.349 . S
C293 C295 1.327 . S
C293 H316 0.950 . S
C294 C293 1.349 . S
C294 C306 1.349 . S
C295 C293 1.327 . S
C295 C311 1.429 . S
C295 H317 0.950 . S
C296 H292 0.949 . S
C296 C304 1.574 . S
C296 C312 1.368 . S
H297 C305 0.950 . S
H298 C303 0.950 . S
H299 C304 0.949 . S
H300 C306 0.950 . S
H301 C307 0.950 . S
H302 C308 0.949 . S
C303 H298 0.950 . S
C303 C305 1.327 . S
C303 C309 1.429 . S
C304 C296 1.574 . S
C304 H299 0.949 . S
C304 C310 1.368 . S
C305 C289 1.349 . S
C305 H297 0.950 . S
C305 C303 1.327 . S
C306 C294 1.349 . S
C306 H300 0.950 . S
C306 C307 1.327 . S
C307 H301 0.950 . S
C307 C306 1.327 . S
C307 C311 1.429 . S
C308 C291 1.574 . S
C308 H302 0.949 . S
C308 C312 1.368 . S
C309 C290 1.429 . S
C309 C303 1.429 . S
C309 C310 1.523 . S
C310 C291 1.368 . S
C310 C304 1.368 . S
C310 C309 1.523 . S
C311 C295 1.429 . S
C311 C307 1.429 . S
C311 C312 1.523 . S
C312 C296 1.368 . S
C312 C308 1.368 . S
C312 C311 1.523 . S
H313 C288 0.950 . S
H314 C290 0.950 . S
H315 C291 0.949 . S
H316 C293 0.950 . S
H317 C295 0.950 . S
C318 C319 1.349 1_556 S
C318 C320 1.327 . S
C318 H343 0.950 . S
C319 C318 1.349 1_554 S
C319 C335 1.349 . S
C320 C318 1.327 . S
C320 C339 1.429 1_556 S
C320 H344 0.950 . S
C321 C338 1.574 . S
C321 C340 1.368 . S
C321 H345 0.949 . S
H322 C326 0.949 . S
C323 C324 1.349 . S
C323 C325 1.327 . S
C323 H346 0.950 . S
C324 C323 1.349 . S
C324 C336 1.349 1_554 S
C325 C323 1.327 . S
C325 C341 1.429 . S
C325 H347 0.950 . S
C326 H322 0.949 . S
C326 C334 1.574 . S
C326 C342 1.368 1_556 S
H327 C335 0.950 . S
H328 C333 0.950 . S
H329 C334 0.949 . S
H330 C336 0.950 . S
H331 C337 0.950 . S
H332 C338 0.949 . S
C333 H328 0.950 . S
C333 C335 1.327 . S
C333 C339 1.429 . S
C334 C326 1.574 . S
C334 H329 0.949 . S
C334 C340 1.368 1_556 S
C335 C319 1.349 . S
C335 H327 0.950 . S
C335 C333 1.327 . S
C336 C324 1.349 1_556 S
C336 H330 0.950 . S
C336 C337 1.327 . S
C337 H331 0.950 . S
C337 C336 1.327 . S
C337 C341 1.429 1_556 S
C338 C321 1.574 . S
C338 H332 0.949 . S
C338 C342 1.368 . S
C339 C320 1.429 1_554 S
C339 C333 1.429 . S
C339 C340 1.523 . S
C340 C321 1.368 . S
C340 C334 1.368 1_554 S
C340 C339 1.523 . S
C341 C325 1.429 . S
C341 C337 1.429 1_554 S
C341 C342 1.523 . S
C342 C326 1.368 1_554 S
C342 C338 1.368 . S
C342 C341 1.523 . S
H343 C318 0.950 . S
H344 C320 0.950 . S
H345 C321 0.949 . S
H346 C323 0.950 . S
H347 C325 0.950 . S
C348 C349 1.349 . S
C348 C350 1.327 . S
C348 H373 0.950 . S
C349 C348 1.349 . S
C349 C365 1.349 . S
C350 C348 1.327 . S
C350 C369 1.429 . S
C350 H374 0.950 . S
C351 C368 1.574 . S
C351 C370 1.368 . S
C351 H375 0.949 . S
H352 C356 0.949 . S
C353 C354 1.349 . S
C353 C355 1.327 . S
C353 H376 0.950 1_455 S
C354 C353 1.349 . S
C354 C366 1.349 . S
C355 C353 1.327 . S
C355 C371 1.429 . S
C355 H377 0.950 . S
C356 H352 0.949 . S
C356 C364 1.574 . S
C356 C372 1.368 . S
H357 C365 0.950 . S
H358 C363 0.950 . S
H359 C364 0.949 . S
H360 C366 0.950 . S
H361 C367 0.950 . S
H362 C368 0.949 . S
C363 H358 0.950 . S
C363 C365 1.327 . S
C363 C369 1.429 . S
C364 C356 1.574 . S
C364 H359 0.949 . S
C364 C370 1.368 . S
C365 C349 1.349 . S
C365 H357 0.950 . S
C365 C363 1.327 . S
C366 C354 1.349 . S
C366 H360 0.950 . S
C366 C367 1.327 . S
C367 H361 0.950 . S
C367 C366 1.327 . S
C367 C371 1.429 . S
C368 C351 1.574 . S
C368 H362 0.949 . S
C368 C372 1.368 . S
C369 C350 1.429 . S
C369 C363 1.429 . S
C369 C370 1.523 . S
C370 C351 1.368 . S
C370 C364 1.368 . S
C370 C369 1.523 . S
C371 C355 1.429 . S
C371 C367 1.429 . S
C371 C372 1.523 . S
C372 C356 1.368 . S
C372 C368 1.368 . S
C372 C371 1.523 . S
H373 C348 0.950 . S
H374 C350 0.950 . S
H375 C351 0.949 . S
H376 C353 0.950 1_655 S
H377 C355 0.950 . S
C378 C379 1.349 . S
C378 C380 1.327 . S
C378 H403 0.950 . S
C379 C378 1.349 . S
C379 C395 1.349 . S
C380 C378 1.327 . S
C380 C399 1.429 . S
C380 H404 0.950 . S
C381 C398 1.574 . S
C381 C400 1.368 . S
C381 H405 0.949 . S
H382 C386 0.949 . S
C383 C384 1.349 . S
C383 C385 1.327 . S
C383 H406 0.950 . S
C384 C383 1.349 . S
C384 C396 1.349 . S
C385 C383 1.327 . S
C385 C401 1.429 . S
C385 H407 0.950 . S
C386 H382 0.949 . S
C386 C394 1.574 . S
C386 C402 1.368 . S
H387 C395 0.950 . S
H388 C393 0.950 . S
H389 C394 0.949 . S
H390 C396 0.950 . S
H391 C397 0.950 . S
H392 C398 0.949 . S
C393 H388 0.950 . S
C393 C395 1.327 . S
C393 C399 1.429 . S
C394 C386 1.574 . S
C394 H389 0.949 . S
C394 C400 1.368 . S
C395 C379 1.349 . S
C395 H387 0.950 . S
C395 C393 1.327 . S
C396 C384 1.349 . S
C396 H390 0.950 . S
C396 C397 1.327 . S
C397 H391 0.950 . S
C397 C396 1.327 . S
C397 C401 1.429 . S
C398 C381 1.574 . S
C398 H392 0.949 . S
C398 C402 1.368 . S
C399 C380 1.429 . S
C399 C393 1.429 . S
C399 C400 1.523 . S
C400 C381 1.368 . S
C400 C394 1.368 . S
C400 C399 1.523 . S
C401 C385 1.429 . S
C401 C397 1.429 . S
C401 C402 1.523 . S
C402 C386 1.368 . S
C402 C398 1.368 . S
C402 C401 1.523 . S
H403 C378 0.950 . S
H404 C380 0.950 . S
H405 C381 0.949 . S
H406 C383 0.950 . S
H407 C385 0.950 . S
C408 C409 1.349 . S
C408 C410 1.327 . S
C408 H433 0.950 . S
C409 C408 1.349 . S
C409 C425 1.349 . S
C410 C408 1.327 . S
C410 C429 1.429 . S
C410 H434 0.950 . S
C411 C428 1.574 . S
C411 C430 1.368 . S
C411 H435 0.949 . S
H412 C416 0.949 . S
C413 C414 1.349 . S
C413 C415 1.327 . S
C413 H436 0.950 . S
C414 C413 1.349 . S
C414 C426 1.349 . S
C415 C413 1.327 . S
C415 C431 1.429 . S
C415 H437 0.950 . S
C416 H412 0.949 . S
C416 C424 1.574 . S
C416 C432 1.368 . S
H417 C425 0.950 . S
H418 C423 0.950 . S
H419 C424 0.949 . S
H420 C426 0.950 1_455 S
H421 C427 0.950 1_455 S
H422 C428 0.949 . S
C423 H418 0.950 . S
C423 C425 1.327 . S
C423 C429 1.429 . S
C424 C416 1.574 . S
C424 H419 0.949 . S
C424 C430 1.368 . S
C425 C409 1.349 . S
C425 H417 0.950 . S
C425 C423 1.327 . S
C426 C414 1.349 . S
C426 H420 0.950 1_655 S
C426 C427 1.327 . S
C427 H421 0.950 1_655 S
C427 C426 1.327 . S
C427 C431 1.429 . S
C428 C411 1.574 . S
C428 H422 0.949 . S
C428 C432 1.368 . S
C429 C410 1.429 . S
C429 C423 1.429 . S
C429 C430 1.523 . S
C430 C411 1.368 . S
C430 C424 1.368 . S
C430 C429 1.523 . S
C431 C415 1.429 . S
C431 C427 1.429 . S
C431 C432 1.523 . S
C432 C416 1.368 . S
C432 C428 1.368 . S
C432 C431 1.523 . S
H433 C408 0.950 . S
H434 C410 0.950 . S
H435 C411 0.949 . S
H436 C413 0.950 . S
H437 C415 0.950 . S
C438 C439 1.349 . S
C438 C440 1.327 . S
C438 H463 0.950 . S
C439 C438 1.349 . S
C439 C455 1.349 . S
C440 C438 1.327 . S
C440 C459 1.429 . S
C440 H464 0.950 . S
C441 C458 1.574 . S
C441 C460 1.368 . S
C441 H465 0.949 . S
H442 C446 0.949 . S
C443 C444 1.349 . S
C443 C445 1.327 . S
C443 H466 0.950 . S
C444 C443 1.349 . S
C444 C456 1.349 . S
C445 C443 1.327 . S
C445 C461 1.429 . S
C445 H467 0.950 . S
C446 H442 0.949 . S
C446 C454 1.574 . S
C446 C462 1.368 . S
H447 C455 0.950 . S
H448 C453 0.950 . S
H449 C454 0.949 . S
H450 C456 0.950 . S
H451 C457 0.950 . S
H452 C458 0.949 . S
C453 H448 0.950 . S
C453 C455 1.327 . S
C453 C459 1.429 . S
C454 C446 1.574 . S
C454 H449 0.949 . S
C454 C460 1.368 . S
C455 C439 1.349 . S
C455 H447 0.950 . S
C455 C453 1.327 . S
C456 C444 1.349 . S
C456 H450 0.950 . S
C456 C457 1.327 . S
C457 H451 0.950 . S
C457 C456 1.327 . S
C457 C461 1.429 . S
C458 C441 1.574 . S
C458 H452 0.949 . S
C458 C462 1.368 . S
C459 C440 1.429 . S
C459 C453 1.429 . S
C459 C460 1.523 . S
C460 C441 1.368 . S
C460 C454 1.368 . S
C460 C459 1.523 . S
C461 C445 1.429 . S
C461 C457 1.429 . S
C461 C462 1.523 . S
C462 C446 1.368 . S
C462 C458 1.368 . S
C462 C461 1.523 . S
H463 C438 0.950 . S
H464 C440 0.950 . S
H465 C441 0.949 . S
H466 C443 0.950 . S
H467 C445 0.950 . S
C468 C469 1.349 . S
C468 C470 1.327 . S
C468 H493 0.950 . S
C469 C468 1.349 . S
C469 C485 1.349 . S
C470 C468 1.327 . S
C470 C489 1.429 . S
C470 H494 0.950 . S
C471 C488 1.574 . S
C471 C490 1.368 . S
C471 H495 0.949 . S
H472 C476 0.949 . S
C473 C474 1.349 . S
C473 C475 1.327 . S
C473 H496 0.950 . S
C474 C473 1.349 . S
C474 C486 1.349 . S
C475 C473 1.327 . S
C475 C491 1.429 . S
C475 H497 0.950 . S
C476 H472 0.949 . S
C476 C484 1.574 . S
C476 C492 1.368 . S
H477 C485 0.950 . S
H478 C483 0.950 . S
H479 C484 0.949 . S
H480 C486 0.950 . S
H481 C487 0.950 . S
H482 C488 0.949 . S
C483 H478 0.950 . S
C483 C485 1.327 . S
C483 C489 1.429 . S
C484 C476 1.574 . S
C484 H479 0.949 . S
C484 C490 1.368 . S
C485 C469 1.349 . S
C485 H477 0.950 . S
C485 C483 1.327 . S
C486 C474 1.349 . S
C486 H480 0.950 . S
C486 C487 1.327 . S
C487 H481 0.950 . S
C487 C486 1.327 . S
C487 C491 1.429 . S
C488 C471 1.574 . S
C488 H482 0.949 . S
C488 C492 1.368 . S
C489 C470 1.429 . S
C489 C483 1.429 . S
C489 C490 1.523 . S
C490 C471 1.368 . S
C490 C484 1.368 . S
C490 C489 1.523 . S
C491 C475 1.429 . S
C491 C487 1.429 . S
C491 C492 1.523 . S
C492 C476 1.368 . S
C492 C488 1.368 . S
C492 C491 1.523 . S
H493 C468 0.950 . S
H494 C470 0.950 . S
H495 C471 0.949 . S
H496 C473 0.950 . S
H497 C475 0.950 . S
C498 C499 1.349 . S
C498 C500 1.327 . S
C498 H523 0.950 . S
C499 C498 1.349 . S
C499 C515 1.349 . S
C500 C498 1.327 . S
C500 C519 1.429 . S
C500 H524 0.950 . S
C501 C518 1.574 . S
C501 C520 1.368 . S
C501 H525 0.949 . S
H502 C506 0.949 . S
C503 C504 1.349 . S
C503 C505 1.327 . S
C503 H526 0.950 1_655 S
C504 C503 1.349 . S
C504 C516 1.349 . S
C505 C503 1.327 . S
C505 C521 1.429 . S
C505 H527 0.950 1_655 S
C506 H502 0.949 . S
C506 C514 1.574 . S
C506 C522 1.368 . S
H507 C515 0.950 . S
H508 C513 0.950 . S
H509 C514 0.949 . S
H510 C516 0.950 . S
H511 C517 0.950 . S
H512 C518 0.949 . S
C513 H508 0.950 . S
C513 C515 1.327 . S
C513 C519 1.429 . S
C514 C506 1.574 . S
C514 H509 0.949 . S
C514 C520 1.368 . S
C515 C499 1.349 . S
C515 H507 0.950 . S
C515 C513 1.327 . S
C516 C504 1.349 . S
C516 H510 0.950 . S
C516 C517 1.327 . S
C517 H511 0.950 . S
C517 C516 1.327 . S
C517 C521 1.429 . S
C518 C501 1.574 . S
C518 H512 0.949 . S
C518 C522 1.368 . S
C519 C500 1.429 . S
C519 C513 1.429 . S
C519 C520 1.523 . S
C520 C501 1.368 . S
C520 C514 1.368 . S
C520 C519 1.523 . S
C521 C505 1.429 . S
C521 C517 1.429 . S
C521 C522 1.523 . S
C522 C506 1.368 . S
C522 C518 1.368 . S
C522 C521 1.523 . S
H523 C498 0.950 . S
H524 C500 0.950 . S
H525 C501 0.949 . S
H526 C503 0.950 1_455 S
H527 C505 0.950 1_455 S
C528 C529 1.349 . S
C528 C530 1.327 . S
C528 H553 0.950 . S
C529 C528 1.349 . S
C529 C545 1.349 . S
C530 C528 1.327 . S
C530 C549 1.429 . S
C530 H554 0.950 . S
C531 C548 1.574 . S
C531 C550 1.368 . S
C531 H555 0.949 . S
H532 C536 0.949 . S
C533 C534 1.349 . S
C533 C535 1.327 . S
C533 H556 0.950 . S
C534 C533 1.349 . S
C534 C546 1.349 . S
C535 C533 1.327 . S
C535 C551 1.429 . S
C535 H557 0.950 . S
C536 H532 0.949 . S
C536 C544 1.574 . S
C536 C552 1.368 . S
H537 C545 0.950 . S
H538 C543 0.950 . S
H539 C544 0.949 . S
H540 C546 0.950 . S
H541 C547 0.950 . S
H542 C548 0.949 . S
C543 H538 0.950 . S
C543 C545 1.327 . S
C543 C549 1.429 . S
C544 C536 1.574 . S
C544 H539 0.949 . S
C544 C550 1.368 . S
C545 C529 1.349 . S
C545 H537 0.950 . S
C545 C543 1.327 . S
C546 C534 1.349 . S
C546 H540 0.950 . S
C546 C547 1.327 . S
C547 H541 0.950 . S
C547 C546 1.327 . S
C547 C551 1.429 . S
C548 C531 1.574 . S
C548 H542 0.949 . S
C548 C552 1.368 . S
C549 C530 1.429 . S
C549 C543 1.429 . S
C549 C550 1.523 . S
C550 C531 1.368 . S
C550 C544 1.368 . S
C550 C549 1.523 . S
C551 C535 1.429 . S
C551 C547 1.429 . S
C551 C552 1.523 . S
C552 C536 1.368 . S
C552 C548 1.368 . S
C552 C551 1.523 . S
H553 C528 0.950 . S
H554 C530 0.950 . S
H555 C531 0.949 . S
H556 C533 0.950 . S
H557 C535 0.950 . S
C558 C559 1.349 . S
C558 C560 1.327 . S
C558 H583 0.950 . S
C559 C558 1.349 . S
C559 C575 1.349 . S
C560 C558 1.327 . S
C560 C579 1.429 . S
C560 H584 0.950 . S
C561 C578 1.574 . S
C561 C580 1.368 . S
C561 H585 0.949 . S
H562 C566 0.949 . S
C563 C564 1.349 . S
C563 C565 1.327 . S
C563 H586 0.950 . S
C564 C563 1.349 . S
C564 C576 1.349 . S
C565 C563 1.327 . S
C565 C581 1.429 . S
C565 H587 0.950 . S
C566 H562 0.949 . S
C566 C574 1.574 . S
C566 C582 1.368 . S
H567 C575 0.950 . S
H568 C573 0.950 . S
H569 C574 0.949 . S
H570 C576 0.950 . S
H571 C577 0.950 . S
H572 C578 0.949 . S
C573 H568 0.950 . S
C573 C575 1.327 . S
C573 C579 1.429 . S
C574 C566 1.574 . S
C574 H569 0.949 . S
C574 C580 1.368 . S
C575 C559 1.349 . S
C575 H567 0.950 . S
C575 C573 1.327 . S
C576 C564 1.349 . S
C576 H570 0.950 . S
C576 C577 1.327 . S
C577 H571 0.950 . S
C577 C576 1.327 . S
C577 C581 1.429 . S
C578 C561 1.574 . S
C578 H572 0.949 . S
C578 C582 1.368 . S
C579 C560 1.429 . S
C579 C573 1.429 . S
C579 C580 1.523 . S
C580 C561 1.368 . S
C580 C574 1.368 . S
C580 C579 1.523 . S
C581 C565 1.429 . S
C581 C577 1.429 . S
C581 C582 1.523 . S
C582 C566 1.368 . S
C582 C578 1.368 . S
C582 C581 1.523 . S
H583 C558 0.950 . S
H584 C560 0.950 . S
H585 C561 0.949 . S
H586 C563 0.950 . S
H587 C565 0.950 . S
C234 C164 1.677 . S
C229 C135 1.648 . S
C259 C15 1.568 . S
C264 C207 1.580 . S
C289 C55 1.655 . S
C294 C173 1.676 . S
C319 C95 1.569 . S
C324 C198 1.582 . S
C354 C160 1.619 . S
C349 C2 1.558 . S
C384 C202 1.736 . S
C379 C42 1.735 . S
C409 C82 1.551 . S
C414 C168 1.608 . S
C439 C141 1.638 . S
C444 C194 1.731 . S
C474 C223 1.756 . S
C469 C61 1.748 . S
C504 C189 1.664 . S
C499 C101 1.590 . S
C534 C211 1.763 . S
C529 C122 1.681 . S
C559 C21 1.585 . S
C564 C177 1.652 . S
