# Generated by pormake.
# Topology pth, (4,4)-cn, num edge types: 1
# Building blocks:
#     Node 0, Type 0, BuildingBlock: QUQFOY_clean_sbu_3, # of connection points: 4
#     Node 1, Type 0, BuildingBlock: QUQFOY_clean_sbu_3, # of connection points: 4
#     Node 2, Type 0, BuildingBlock: QUQFOY_clean_sbu_3, # of connection points: 4
#     Node 3, Type 1, BuildingBlock: NAWXER_clean_sbu_0, # of connection points: 4
#     Node 4, Type 1, BuildingBlock: NAWXER_clean_sbu_0, # of connection points: 4
#     Node 5, Type 1, BuildingBlock: NAWXER_clean_sbu_0, # of connection points: 4
#     Edge 6, Type (0, 1), BuildingBlock: MIFKUJ_clean_linker_0, # of connection points: 2
#     Edge 7, Type (0, 1), BuildingBlock: MIFKUJ_clean_linker_0, # of connection points: 2
#     Edge 8, Type (0, 1), BuildingBlock: MIFKUJ_clean_linker_0, # of connection points: 2
#     Edge 9, Type (0, 1), BuildingBlock: MIFKUJ_clean_linker_0, # of connection points: 2
#     Edge 10, Type (0, 1), BuildingBlock: MIFKUJ_clean_linker_0, # of connection points: 2
#     Edge 11, Type (0, 1), BuildingBlock: MIFKUJ_clean_linker_0, # of connection points: 2
#     Edge 12, Type (0, 1), BuildingBlock: MIFKUJ_clean_linker_0, # of connection points: 2
#     Edge 13, Type (0, 1), BuildingBlock: MIFKUJ_clean_linker_0, # of connection points: 2
#     Edge 14, Type (0, 1), BuildingBlock: MIFKUJ_clean_linker_0, # of connection points: 2
#     Edge 15, Type (0, 1), BuildingBlock: MIFKUJ_clean_linker_0, # of connection points: 2
#     Edge 16, Type (0, 1), BuildingBlock: MIFKUJ_clean_linker_0, # of connection points: 2
#     Edge 17, Type (0, 1), BuildingBlock: MIFKUJ_clean_linker_0, # of connection points: 2
# Relax obj value: 0.004
# Max RMSD: 0.054
# Mean RMSD: 0.030
data_MOF--net-pth--node1-QUQFOY_clean_sbu_3--node2-NAWXER_clean_sbu_0--edge1-MIFKUJ_clean_linker_0
_symmetry_space_group_name_H-M    P1
_symmetry_Int_Tables_number       1
_symmetry_cell_setting            triclinic
loop_
_symmetry_equiv_pos_as_xyz
'x, y, z'
_cell_length_a     30.19789
_cell_length_b     29.911469
_cell_length_c     77.320237
_cell_angle_alpha  89.95232
_cell_angle_beta   90.786513
_cell_angle_gamma 120.81889
loop_
_atom_site_label
_atom_site_type_symbol
_atom_site_fract_x
_atom_site_fract_y
_atom_site_fract_z
_atom_type_partial_charge
C0 C 0.0092 0.17244 0.08805 0.0
O1 O 0.98803 0.16935 0.07343 0.0
Cd2 Cd 0.97743 0.11013 0.05058 0.0
O3 O 0.02819 0.14379 0.0914 0.0
Cd4 Cd 0.03812 0.07544 0.07643 0.0
C5 C 0.10375 0.15054 0.04218 0.0
O6 O 0.94993 0.02906 0.06449 0.0
O7 O -0.00074 0.00142 0.05605 0.0
O8 O 0.03236 0.04051 0.10557 0.0
C9 C 0.9549 0.99617 0.05576 0.0
O10 O 0.06047 0.14291 0.03665 0.0
C11 C 0.0674 0.02955 0.10352 0.0
O12 O 0.10801 0.13476 0.05709 0.0
O13 O 0.08952 0.04074 0.08899 0.0
C14 C 0.13348 0.10523 0.42425 0.0
O15 O 0.154 0.12495 0.40986 0.0
Cd16 Cd 0.11026 0.13528 0.38548 0.0
O17 O 0.08549 0.08744 0.42653 0.0
Cd18 Cd 0.01042 0.0774 0.40899 0.0
C19 C 0.02246 0.00737 0.3764 0.0
O20 O 0.05749 0.1657 0.39722 0.0
O21 O 0.98076 0.11638 0.38696 0.0
O22 O 0.97575 0.08757 0.43626 0.0
C23 C 0.02124 0.16101 0.38751 0.0
O24 O 0.06091 0.05021 0.37149 0.0
C25 C 0.93038 0.04923 0.43375 0.0
O26 O -0.00068 0.00523 0.39032 0.0
O27 O 0.92236 0.02341 0.41986 0.0
C28 C 0.94574 0.10007 0.72498 0.0
O29 O 0.94712 0.12143 0.73933 0.0
Cd30 Cd 0.00176 0.13117 0.76344 0.0
O31 O 0.97471 0.0812 0.7225 0.0
Cd32 Cd 0.04164 0.07184 0.73908 0.0
C33 C 0.95946 0.00227 0.77149 0.0
O34 O 0.08442 0.16001 0.75139 0.0
O35 O 0.11222 0.11104 0.76078 0.0
O36 O 0.08113 0.0803 0.71079 0.0
C37 C 0.11619 0.15529 0.76092 0.0
O38 O 0.9637 0.04505 0.77627 0.0
C39 C 0.09098 0.04424 0.71318 0.0
O40 O 0.98129 -8e-05 0.7578 0.0
O41 O 0.07737 0.02055 0.72751 0.0
C42 C 0.98688 0.61979 0.26314 0.0
C43 C 0.00397 0.51571 0.21769 0.0
O44 O 0.0335 0.63174 0.26056 0.0
Zn45 Zn 0.07539 0.60939 0.24424 0.0
O46 O 0.95064 0.584 0.25404 0.0
Zn47 Zn 0.9935 0.56693 0.24017 0.0
O48 O 0.02196 0.53425 0.25873 0.0
O49 O 0.10656 0.58466 0.26093 0.0
O50 O 0.96241 0.51194 0.22291 0.0
O51 O 0.04723 0.55003 0.22452 0.0
O52 O 0.11798 0.67313 0.23144 0.0
O53 O 0.03516 0.63479 0.2246 0.0
C54 C 0.06508 0.54412 0.2655 0.0
C55 C 0.08173 0.67189 0.22248 0.0
C56 C 0.58761 0.08538 0.59724 0.0
C57 C 0.47287 0.08764 0.55257 0.0
O58 O 0.5523 0.03956 0.59242 0.0
Zn59 Zn 0.48975 0.00479 0.57381 0.0
O60 O 0.59011 0.12503 0.5902 0.0
Zn61 Zn 0.5313 0.08773 0.5748 0.0
O62 O 0.4682 0.0501 0.5923 0.0
O63 O 0.42966 0.96508 0.58819 0.0
O64 O 0.51013 0.12651 0.56029 0.0
O65 O 0.4624 0.0415 0.55635 0.0
O66 O 0.51194 0.96894 0.55834 0.0
O67 O 0.55948 0.05446 0.55665 0.0
C68 C 0.43239 0.0038 0.59603 0.0
C69 C 0.54942 0.00928 0.55168 0.0
C70 C 0.51325 0.48465 0.93086 0.0
C71 C 0.62349 0.59881 0.88503 0.0
O72 O 0.50323 0.51992 0.92647 0.0
Zn73 Zn 0.52864 0.58195 0.90829 0.0
O74 O 0.54816 0.48114 0.92305 0.0
Zn75 Zn 0.56809 0.53952 0.90754 0.0
O76 O 0.60027 0.60525 0.92498 0.0
O77 O 0.55225 0.64137 0.92353 0.0
O78 O 0.62381 0.55965 0.8913 0.0
O79 O 0.59029 0.61007 0.89032 0.0
O80 O 0.46817 0.55999 0.89354 0.0
O81 O 0.50168 0.50996 0.89098 0.0
C82 C 0.59097 0.6406 0.92987 0.0
C83 C 0.46696 0.52066 0.88677 0.0
H84 H 0.9768 0.24236 0.08473 0.0
H85 H 0.97612 0.30005 0.10688 0.0
H86 H 0.04276 0.24232 0.14385 0.0
H87 H 0.04324 0.18396 0.12177 0.0
H88 H 0.96399 0.24878 0.15778 0.0
H89 H 0.11685 0.35948 0.12604 0.0
H90 H 0.16804 0.40051 0.10002 0.0
H91 H 0.07728 0.4705 0.08896 0.0
H92 H 0.02506 0.42928 0.1148 0.0
H93 H 0.08681 0.51923 0.20268 0.0
H94 H 0.08707 0.46048 0.18095 0.0
H95 H 0.92074 0.37393 0.1798 0.0
H96 H 0.92005 0.4326 0.2018 0.0
H97 H 0.0516 0.43942 0.14846 0.0
H98 H 0.88101 0.24452 0.17239 0.0
H99 H 0.83666 0.20448 0.19962 0.0
H100 H 0.9754 0.30496 0.22855 0.0
H101 H 0.02072 0.34507 0.20149 0.0
C102 C 0.99147 0.24191 0.09755 0.0
C103 C 0.01026 0.20857 0.10143 0.0
C104 C 0.99112 0.27505 0.1102 0.0
C105 C 0.00969 0.27575 0.12699 0.0
C106 C 0.0282 0.24236 0.13097 0.0
C107 C 0.0287 0.20924 0.1183 0.0
C108 C 0.00989 0.3115 0.14035 0.0
C109 C 0.98306 0.29045 0.15574 0.0
C110 C 0.03534 0.36595 0.13779 0.0
C111 C 0.06673 0.39088 0.12226 0.0
C112 C 0.10754 0.38328 0.11798 0.0
C113 C 0.13679 0.40663 0.10328 0.0
C114 C 0.12584 0.43798 0.09282 0.0
C115 C 0.08568 0.44615 0.09707 0.0
C116 C 0.05627 0.42284 0.11175 0.0
C117 C 0.05015 0.48778 0.19784 0.0
C118 C 0.00335 0.48056 0.20405 0.0
C119 C 0.05044 0.45429 0.18534 0.0
C120 C 0.004 0.4126 0.17883 0.0
C121 C 0.95708 0.40553 0.1848 0.0
C122 C 0.95674 0.43921 0.19732 0.0
C123 C 0.00515 0.37669 0.16582 0.0
C124 C 0.03223 0.39771 0.15047 0.0
C125 C 0.98075 0.32238 0.16858 0.0
C126 C 0.95404 0.29817 0.18492 0.0
C127 C 0.90207 0.25794 0.18456 0.0
C128 C 0.87676 0.23525 0.19996 0.0
C129 C 0.90314 0.25229 0.21581 0.0
C130 C 0.95494 0.29194 0.21627 0.0
C131 C 0.98043 0.31471 0.20091 0.0
H132 H 0.88347 0.2347 0.22771 0.0
H133 H 0.14854 0.45604 0.08144 0.0
H134 H 0.82747 0.97749 0.42983 0.0
H135 H 0.75787 0.96077 0.44955 0.0
H136 H 0.86884 0.07554 0.48523 0.0
H137 H 0.93857 0.09246 0.46562 0.0
H138 H 0.79531 0.98802 0.50197 0.0
H139 H 0.80264 0.10781 0.45853 0.0
H140 H 0.80135 0.13657 0.42872 0.0
H141 H 0.64958 0.00403 0.4204 0.0
H142 H 0.65029 0.97412 0.45012 0.0
H143 H 0.61732 0.08587 0.53056 0.0
H144 H 0.67646 0.0825 0.51023 0.0
H145 H 0.61732 0.92126 0.52273 0.0
H146 H 0.55743 0.92426 0.54326 0.0
H147 H 0.66039 0.02401 0.48131 0.0
H148 H 0.72343 0.90382 0.52137 0.0
H149 H 0.73196 0.88378 0.55178 0.0
H150 H 0.75136 0.03022 0.56792 0.0
H151 H 0.74315 0.05112 0.53762 0.0
C152 C 0.83711 -0.00114 0.44194 0.0
C153 C 0.88853 0.03653 0.44612 0.0
C154 C 0.79727 0.98932 0.45317 0.0
C155 C 0.80814 0.01717 0.4688 0.0
C156 C 0.85959 0.05354 0.47325 0.0
C157 C 0.89938 0.06333 0.46199 0.0
C158 C 0.76593 0.01037 0.48018 0.0
C159 C 0.76549 0.99535 0.49741 0.0
C160 C 0.7273 0.02042 0.47429 0.0
C161 C 0.72677 0.03843 0.45646 0.0
C162 C 0.76918 0.08458 0.45029 0.0
C163 C 0.76852 0.10113 0.43343 0.0
C164 C 0.72547 0.07206 0.42265 0.0
C165 C 0.68294 0.02645 0.42875 0.0
C166 C 0.68343 0.0097 0.4456 0.0
C167 C 0.61655 0.0495 0.52897 0.0
C168 C 0.58271 0.00533 0.53859 0.0
C169 C 0.65032 0.04763 0.51726 0.0
C170 C 0.65154 0.00176 0.51502 0.0
C171 C 0.61724 0.95718 0.52436 0.0
C172 C 0.58292 0.95888 0.53601 0.0
C173 C 0.68976 0.00172 0.50314 0.0
C174 C 0.68951 0.01552 0.48579 0.0
C175 C 0.72815 0.99126 0.50899 0.0
C176 C 0.73203 0.97868 0.52727 0.0
C177 C 0.72938 0.93163 0.53143 0.0
C178 C 0.73416 0.92013 0.54864 0.0
C179 C 0.742 0.9556 0.56178 0.0
C180 C 0.74497 0.00262 0.55775 0.0
C181 C 0.7401 0.01424 0.54056 0.0
H182 H 0.746 0.94671 0.57508 0.0
H183 H 0.72503 0.08494 0.4096 0.0
H184 H 0.95165 0.90664 0.76873 0.0
H185 H 0.90259 0.8306 0.78726 0.0
H186 H 0.84863 0.91555 0.81662 0.0
H187 H 0.89806 0.99145 0.79858 0.0
H188 H 0.87801 0.8671 0.83775 0.0
H189 H 0.77272 0.82103 0.78547 0.0
H190 H 0.75504 0.80345 0.7542 0.0
H191 H 0.79017 0.68156 0.75758 0.0
H192 H 0.80867 0.69888 0.78885 0.0
H193 H 0.64323 0.69402 0.87475 0.0
H194 H 0.70844 0.75361 0.85483 0.0
H195 H 0.75715 0.64294 0.84626 0.0
H196 H 0.69163 0.58242 0.86659 0.0
H197 H 0.74264 0.69487 0.81485 0.0
H198 H 0.8333 0.73445 0.86918 0.0
H199 H 0.84433 0.75191 0.90058 0.0
H200 H 0.83168 0.88728 0.89331 0.0
H201 H 0.81973 0.87018 0.86189 0.0
C202 C 0.92922 0.909 0.77912 0.0
C203 C 0.92888 0.95522 0.78217 0.0
C204 C 0.90111 0.86547 0.78967 0.0
C205 C 0.87173 0.86723 0.80332 0.0
C206 C 0.87124 0.91326 0.80627 0.0
C207 C 0.89948 0.95669 0.79586 0.0
C208 C 0.84135 0.82174 0.81473 0.0
C209 C 0.84846 0.82948 0.8327 0.0
C210 C 0.80376 0.77206 0.8082 0.0
C211 C 0.79273 0.76171 0.78943 0.0
C212 C 0.7771 0.79079 0.77951 0.0
C213 C 0.76685 0.78081 0.7618 0.0
C214 C 0.77167 0.74154 0.7539 0.0
C215 C 0.78659 0.71205 0.76371 0.0
C216 C 0.79694 0.72192 0.78142 0.0
C217 C 0.66748 0.68193 0.86862 0.0
C218 C 0.66225 0.6334 0.87231 0.0
C219 C 0.70486 0.7162 0.85725 0.0
C220 C 0.73772 0.70276 0.84919 0.0
C221 C 0.73207 0.65391 0.85242 0.0
C222 C 0.69482 0.61957 0.86404 0.0
C223 C 0.77837 0.74112 0.83773 0.0
C224 C 0.77318 0.73211 0.81982 0.0
C225 C 0.81741 0.78992 0.84428 0.0
C226 C 0.82535 0.80084 0.86317 0.0
C227 C 0.83253 0.76775 0.87428 0.0
C228 C 0.83899 0.77761 0.89209 0.0
C229 C 0.83864 0.82063 0.89894 0.0
C230 C 0.83195 0.85397 0.88798 0.0
C231 C 0.82541 0.84425 0.87017 0.0
H232 H 0.84361 0.82818 0.91273 0.0
H233 H 0.7637 0.73386 0.74019 0.0
H234 H 0.04733 0.0243 0.13801 0.0
H235 H 0.06303 0.97529 0.16009 0.0
H236 H 0.12814 0.92233 0.12148 0.0
H237 H 0.11505 0.97358 0.09962 0.0
H238 H 0.02327 0.87999 0.16391 0.0
H239 H 0.20728 0.88593 0.13827 0.0
H240 H 0.28857 0.94793 0.12403 0.0
H241 H 0.27836 0.07609 0.14411 0.0
H242 H 0.1974 0.01493 0.15866 0.0
H243 H 0.02389 0.66342 0.1942 0.0
H244 H 0.03295 0.7327 0.17529 0.0
H245 H 0.16931 0.84395 0.20383 0.0
H246 H 0.16137 0.77378 0.22255 0.0
H247 H 0.18055 0.86805 0.17053 0.0
H248 H 0.05268 0.83205 0.21203 0.0
H249 H 0.9755 0.77788 0.22943 0.0
H250 H 0.88143 0.72656 0.18325 0.0
H251 H 0.95819 0.77982 0.16554 0.0
C252 C 0.06575 0.00284 0.13431 0.0
C253 C 0.08002 0.0028 0.1171 0.0
C254 C 0.07463 0.97471 0.14694 0.0
C255 C 0.09721 0.94525 0.14258 0.0
C256 C 0.11193 0.94568 0.12537 0.0
C257 C 0.10407 0.97473 0.11282 0.0
C258 C 0.10158 0.91097 0.15567 0.0
C259 C 0.0579 0.87784 0.16538 0.0
C260 C 0.14703 0.90865 0.15803 0.0
C261 C 0.196 0.94576 0.14944 0.0
C262 C 0.22249 0.92734 0.13972 0.0
C263 C 0.26849 0.96234 0.13158 0.0
C264 C 0.28853 0.01591 0.13313 0.0
C265 C 0.2627 0.03459 0.14287 0.0
C266 C 0.21671 -0.00024 0.15105 0.0
C267 C 0.05618 0.70253 0.19636 0.0
C268 C 0.09159 0.71334 0.20998 0.0
C269 C 0.0612 0.74217 0.18557 0.0
C270 C 0.10098 0.79382 0.18842 0.0
C271 C 0.13807 0.80444 0.20147 0.0
C272 C 0.13352 0.76439 0.21215 0.0
C273 C 0.10184 0.83644 0.17822 0.0
C274 C 0.1463 0.87091 0.1691 0.0
C275 C 0.05775 0.84144 0.17685 0.0
C276 C 0.01128 0.8097 0.18745 0.0
C277 C 0.01558 0.80898 0.20557 0.0
C278 C 0.97191 0.77845 0.21549 0.0
C279 C 0.92361 0.74874 0.20745 0.0
C280 C 0.91888 0.74959 0.18946 0.0
C281 C 0.96245 0.77999 0.17948 0.0
H282 H 0.88984 0.72511 0.21515 0.0
H283 H 0.32413 0.04294 0.1268 0.0
H284 H 0.11173 0.08962 0.45885 0.0
H285 H 0.1685 0.09287 0.48238 0.0
H286 H 0.28513 0.1199 0.44532 0.0
H287 H 0.22958 0.11858 0.42193 0.0
H288 H 0.2082 0.03795 0.49097 0.0
H289 H 0.40389 0.1944 0.46128 0.0
H290 H 0.43737 0.27272 0.44314 0.0
H291 H 0.31309 0.29342 0.45876 0.0
H292 H 0.27926 0.21569 0.47718 0.0
H293 H 0.40823 0.01738 0.52849 0.0
H294 H 0.3501 0.02567 0.50836 0.0
H295 H 0.40327 0.18061 0.52775 0.0
H296 H 0.46315 0.17314 0.54761 0.0
H297 H 0.3915 0.18 0.49454 0.0
H298 H 0.28548 0.07501 0.5398 0.0
H299 H 0.24964 0.00323 0.5608 0.0
H300 H 0.18918 0.89163 0.51919 0.0
H301 H 0.22536 0.96275 0.49792 0.0
C302 C 0.14949 0.09626 0.45573 0.0
C303 C 0.16628 0.10426 0.43852 0.0
C304 C 0.18192 0.0981 0.46919 0.0
C305 C 0.23159 0.10767 0.4657 0.0
C306 C 0.24764 0.11397 0.44845 0.0
C307 C 0.21563 0.11285 0.43505 0.0
C308 C 0.26653 0.11026 0.47995 0.0
C309 C 0.2482 0.06913 0.49178 0.0
C310 C 0.31839 0.15177 0.48143 0.0
C311 C 0.33882 0.19892 0.4705 0.0
C312 C 0.38384 0.2158 0.46091 0.0
C313 C 0.40285 0.26007 0.45056 0.0
C314 C 0.3773 0.28794 0.44976 0.0
C315 C 0.33275 0.2717 0.45934 0.0
C316 C 0.31361 0.2275 0.46972 0.0
C317 C 0.40776 0.05335 0.52844 0.0
C318 C 0.44009 0.09451 0.53972 0.0
C319 C 0.37422 0.05792 0.51699 0.0
C320 C 0.37132 0.10329 0.51679 0.0
C321 C 0.40457 0.14509 0.52772 0.0
C322 C 0.43879 0.1408 0.53906 0.0
C323 C 0.33362 0.10674 0.50512 0.0
C324 C 0.3514 0.14903 0.4938 0.0
C325 C 0.28079 0.06727 0.50452 0.0
C326 C 0.25846 0.02426 0.51726 0.0
C327 C 0.26481 0.03516 0.53512 0.0
C328 C 0.24441 0.99459 0.54707 0.0
C329 C 0.21722 0.9429 0.54133 0.0
C330 C 0.21027 0.93169 0.52362 0.0
C331 C 0.23067 0.97213 0.51161 0.0
H332 H 0.20147 0.91154 0.5506 0.0
H333 H 0.39206 0.32218 0.44173 0.0
H334 H 0.12547 0.25023 0.76625 0.0
H335 H 0.17993 0.31648 0.78777 0.0
H336 H 0.24007 0.22037 0.80498 0.0
H337 H 0.18531 0.15374 0.78368 0.0
H338 H 0.21329 0.25774 0.83194 0.0
H339 H 0.31066 0.32795 0.77961 0.0
H340 H 0.32367 0.35903 0.74951 0.0
H341 H 0.28882 0.47635 0.76364 0.0
H342 H 0.27495 0.44552 0.79379 0.0
H343 H 0.44403 0.42491 0.87567 0.0
H344 H 0.37795 0.36787 0.85483 0.0
H345 H 0.33024 0.48041 0.84848 0.0
H346 H 0.39685 0.53836 0.86959 0.0
H347 H 0.34241 0.44008 0.81687 0.0
H348 H 0.24994 0.3745 0.86918 0.0
H349 H 0.23656 0.34452 0.89939 0.0
H350 H 0.26222 0.22069 0.88552 0.0
H351 H 0.27546 0.2498 0.85516 0.0
C352 C 0.15055 0.24335 0.77455 0.0
C353 C 0.15111 0.19672 0.77326 0.0
C354 C 0.18172 0.28132 0.78682 0.0
C355 C 0.21429 0.27352 0.79794 0.0
C356 C 0.21514 0.22716 0.79657 0.0
C357 C 0.18397 0.1892 0.78434 0.0
C358 C 0.24691 0.31303 0.81125 0.0
C359 C 0.24176 0.29748 0.8286 0.0
C360 C 0.28276 0.36545 0.80701 0.0
C361 C 0.29119 0.38404 0.7889 0.0
C362 C 0.30535 0.3601 0.77626 0.0
C363 C 0.31297 0.37772 0.7592 0.0
C364 C 0.30692 0.41953 0.75465 0.0
C365 C 0.29339 0.44391 0.76717 0.0
C366 C 0.28569 0.4264 0.78425 0.0
C367 C 0.41954 0.43774 0.86991 0.0
C368 C 0.42578 0.48629 0.87429 0.0
C369 C 0.38157 0.40487 0.85804 0.0
C370 C 0.34893 0.4197 0.85023 0.0
C371 C 0.35501 0.46823 0.85444 0.0
C372 C 0.39291 0.50116 0.86651 0.0
C373 C 0.3095 0.3843 0.83741 0.0
C374 C 0.31335 0.40054 0.82019 0.0
C375 C 0.27224 0.33255 0.84174 0.0
C376 C 0.26401 0.31455 0.85993 0.0
C377 C 0.25298 0.34103 0.87259 0.0
C378 C 0.24531 0.32412 0.88973 0.0
C379 C 0.24885 0.28092 0.8944 0.0
C380 C 0.25957 0.25421 0.88189 0.0
C381 C 0.26691 0.27074 0.86469 0.0
H382 H 0.24316 0.26807 0.9077 0.0
H383 H 0.31284 0.43312 0.74143 0.0
H384 H 0.94482 0.07668 0.69057 0.0
H385 H 0.88922 0.07841 0.66752 0.0
H386 H 0.81104 0.11957 0.70491 0.0
H387 H 0.86714 0.11943 0.72781 0.0
H388 H 0.7906 0.02551 0.66099 0.0
H389 H 0.77354 0.19771 0.68809 0.0
H390 H 0.82666 0.27907 0.70466 0.0
H391 H 0.96447 0.28535 0.68762 0.0
H392 H 0.91223 0.20446 0.67076 0.0
H393 H 0.57504 0.01688 0.62255 0.0
H394 H 0.63945 0.02308 0.64338 0.0
H395 H 0.75182 0.17168 0.6222 0.0
H396 H 0.68644 0.16674 0.60188 0.0
H397 H 0.76525 0.17615 0.65495 0.0
H398 H 0.74399 0.05351 0.61179 0.0
H399 H 0.69527 0.97609 0.59313 0.0
H400 H 0.64842 0.87752 0.63769 0.0
H401 H 0.69492 0.95449 0.65674 0.0
C402 C 0.91576 0.08608 0.69387 0.0
C403 C 0.91074 0.09835 0.71101 0.0
C404 C 0.88398 0.08703 0.68068 0.0
C405 C 0.84654 0.10009 0.6844 0.0
C406 C 0.8405 0.11074 0.70161 0.0
C407 C 0.87249 0.11035 0.71472 0.0
C408 C 0.81323 0.10211 0.67044 0.0
C409 C 0.78518 0.0585 0.65962 0.0
C410 C 0.80712 0.14572 0.66832 0.0
C411 C 0.83889 0.19475 0.67828 0.0
C412 C 0.81518 0.21658 0.68781 0.0
C413 C 0.84514 0.2626 0.69727 0.0
C414 C 0.8989 0.28728 0.69723 0.0
C415 C 0.92282 0.2661 0.68769 0.0
C416 C 0.89304 0.22013 0.6782 0.0
C417 C 0.6134 0.05105 0.62242 0.0
C418 C 0.62588 0.09118 0.61052 0.0
C419 C 0.65032 0.05442 0.63427 0.0
C420 C 0.701 0.0972 0.6341 0.0
C421 C 0.71311 0.13812 0.62255 0.0
C422 C 0.67577 0.13529 0.61093 0.0
C423 C 0.74131 0.09885 0.64584 0.0
C424 C 0.7708 0.14322 0.65623 0.0
C425 C 0.7498 0.05649 0.64719 0.0
C426 C 0.72273 0.00994 0.63573 0.0
C427 C 0.72305 0.01538 0.61764 0.0
C428 C 0.69581 0.97155 0.60698 0.0
C429 C 0.66903 0.92191 0.61419 0.0
C430 C 0.66924 0.916 0.63211 0.0
C431 C 0.6959 0.95975 0.64286 0.0
H432 H 0.64807 0.88804 0.6059 0.0
H433 H 0.92202 0.32288 0.70457 0.0
H434 H 0.95719 0.92463 0.03447 0.0
H435 H 0.89173 0.86752 0.01328 0.0
H436 H 0.79459 0.92711 0.02843 0.0
H437 H 0.85974 0.984 0.04987 0.0
H438 H 0.73888 0.82289 0.02365 0.0
H439 H 0.8631 0.96953 0.99191 0.0
H440 H 0.94968 0.03527 0.98197 0.0
H441 H 0.9689 0.91478 0.95983 0.0
H442 H 0.88274 0.8482 0.96989 0.0
H443 H 0.57619 0.71095 0.94795 0.0
H444 H 0.63471 0.77492 0.96954 0.0
H445 H 0.74301 0.72345 0.96218 0.0
H446 H 0.6852 0.65979 0.94077 0.0
H447 H 0.78965 0.83027 0.96247 0.0
H448 H 0.66737 0.68378 -0.00353 0.0
H449 H 0.58036 0.61882 0.00633 0.0
H450 H 0.55686 0.74131 0.02374 0.0
H451 H 0.64352 0.80705 0.01375 0.0
C452 C 0.92179 0.9254 0.03338 0.0
C453 C 0.91379 0.95909 0.04377 0.0
C454 C 0.8845 0.89291 0.0212 0.0
C455 C 0.83866 0.89372 0.01906 0.0
C456 C 0.82979 0.92605 0.0298 0.0
C457 C 0.86709 0.95856 0.04203 0.0
C458 C 0.80048 0.86127 0.00543 0.0
C459 C 0.74975 0.82511 0.01022 0.0
C460 C 0.81476 0.86387 0.98792 0.0
C461 C 0.8666 0.90382 0.9818 0.0
C462 C 0.88595 0.957 0.98505 0.0
C463 C 0.93493 0.99443 0.97937 0.0
C464 C 0.96482 0.9792 0.97031 0.0
C465 C 0.94573 0.92651 0.96687 0.0
C466 C 0.8968 0.88891 0.97255 0.0
C467 C 0.61253 0.7134 0.95092 0.0
C468 C 0.62594 0.68014 0.9427 0.0
C469 C 0.6458 0.74981 0.96328 0.0
C470 C 0.69305 0.75367 0.96751 0.0
C471 C 0.70676 0.72111 0.95911 0.0
C472 C 0.67349 0.68456 0.94691 0.0
C473 C 0.7285 0.79123 0.98076 0.0
C474 C 0.77872 0.82847 0.97587 0.0
C475 C 0.71365 0.78978 -0.00188 0.0
C476 C 0.66165 0.75031 0.00417 0.0
C477 C 0.64346 0.69686 0.00226 0.0
C478 C 0.59425 0.6599 0.0079 0.0
C479 C 0.56303 0.67593 0.01561 0.0
C480 C 0.58104 0.72895 0.01774 0.0
C481 C 0.6302 0.76608 0.01209 0.0
H482 H 0.52495 0.64725 0.01997 0.0
H483 H 0.00273 0.00824 0.96592 0.0
H484 H 0.05417 0.00123 0.34407 0.0
H485 H 0.02847 0.92354 0.32673 0.0
H486 H 0.92619 0.82769 0.36693 0.0
H487 H 0.95192 0.90574 0.38454 0.0
H488 H 0.98552 0.78986 0.35508 0.0
H489 H 0.87482 0.84241 0.33046 0.0
H490 H 0.85094 0.90327 0.31805 0.0
H491 H 0.95196 0.93289 0.27546 0.0
H492 H 0.97706 0.87279 0.28774 0.0
H493 H 0.89605 0.61713 0.26982 0.0
H494 H 0.88267 0.6695 0.2913 0.0
H495 H 0.04189 0.74088 0.3077 0.0
H496 H 0.05535 0.68893 0.28667 0.0
H497 H 0.92837 0.77431 0.29375 0.0
H498 H 0.05613 0.76806 0.34974 0.0
H499 H 0.07796 0.7057 0.36218 0.0
H500 H 0.93479 0.57804 0.34281 0.0
H501 H 0.91168 0.63958 0.33048 0.0
C502 C 0.02601 0.96374 0.34926 0.0
C503 C 0.00517 0.9598 0.36574 0.0
C504 C 0.01109 0.91931 0.33925 0.0
C505 C 0.97495 0.86983 0.34544 0.0
C506 C 0.95395 0.86554 0.36188 0.0
C507 C 0.96863 0.91018 0.3719 0.0
C508 C 0.96144 0.82287 0.33492 0.0
C509 C 0.97245 0.78607 0.34173 0.0
C510 C 0.94323 0.81727 0.31762 0.0
C511 C 0.92799 0.85321 0.31008 0.0
C512 C 0.8922 0.86213 0.3185 0.0
C513 C 0.87841 0.89648 0.31148 0.0
C514 C 0.89997 0.92198 0.29598 0.0
C515 C 0.93528 0.91309 0.28746 0.0
C516 C 0.94923 0.87882 0.29443 0.0
C517 C 0.92797 0.64359 0.27815 0.0
C518 C 0.97674 0.6488 0.27651 0.0
C519 C 0.92031 0.67354 0.29038 0.0
C520 C 0.9611 0.7086 0.30127 0.0
C521 C 0.00955 0.71339 0.2997 0.0
C522 C 0.01725 0.6838 0.28754 0.0
C523 C 0.95477 0.74276 0.31368 0.0
C524 C 0.94023 0.7773 0.30721 0.0
C525 C 0.96923 0.74594 0.33135 0.0
C526 C 0.98227 0.70855 0.33911 0.0
C527 C 0.02908 0.7267 0.34825 0.0
C528 C 0.04174 0.69148 0.35525 0.0
C529 C 0.00782 0.63795 0.35326 0.0
C530 C 0.96109 0.61952 0.34431 0.0
C531 C 0.94821 0.65457 0.33729 0.0
H532 H 0.01773 0.61077 0.35869 0.0
H533 H 0.88926 0.94857 0.29057 0.0
H534 H 0.10419 0.07065 0.67903 0.0
H535 H 0.15264 0.05305 0.65778 0.0
H536 H 0.19099 0.97471 0.69687 0.0
H537 H 0.14044 0.99001 0.71789 0.0
H538 H 0.24648 0.08565 0.65534 0.0
H539 H 0.2173 0.88779 0.68012 0.0
H540 H 0.14882 0.80668 0.69312 0.0
H541 H 0.03349 0.83459 0.6715 0.0
H542 H 0.10119 0.91545 0.65817 0.0
H543 H 0.44814 0.06389 0.62428 0.0
H544 H 0.38349 0.06093 0.64358 0.0
H545 H 0.26418 0.9278 0.61556 0.0
H546 H 0.32963 0.92917 0.59666 0.0
H547 H 0.24013 0.91766 0.64808 0.0
H548 H 0.28942 0.05305 0.6074 0.0
H549 H 0.34904 0.13036 0.59055 0.0
H550 H 0.40626 0.22075 0.63733 0.0
H551 H 0.3475 0.14374 0.6545 0.0
C552 C 0.12245 0.04911 0.68302 0.0
C553 C 0.11844 0.03164 0.70012 0.0
C554 C 0.15027 0.03915 0.67087 0.0
C555 C 0.17528 0.01207 0.67559 0.0
C556 C 0.17112 0.99449 0.6927 0.0
C557 C 0.14247 0.00359 0.70477 0.0
C558 C 0.20823 0.00512 0.66295 0.0
C559 C 0.24474 0.04876 0.65374 0.0
C560 C 0.20541 0.95677 0.66039 0.0
C561 C 0.16442 0.90796 0.66828 0.0
C562 C 0.17733 0.87652 0.67808 0.0
C563 C 0.13864 0.8306 0.68552 0.0
C564 C 0.08685 0.81558 0.68318 0.0
C565 C 0.07363 0.84637 0.67336 0.0
C566 C 0.11215 0.89229 0.66588 0.0
C567 C 0.40821 0.03349 0.6224 0.0
C568 C 0.39377 0.99702 0.60891 0.0
C569 C 0.3712 0.03201 0.63337 0.0
C570 C 0.31868 0.99512 0.63073 0.0
C571 C 0.30439 0.95688 0.61779 0.0
C572 C 0.34175 0.95763 0.60702 0.0
C573 C 0.27902 -0.0015 0.64095 0.0
C574 C 0.2414 0.95433 0.64966 0.0
C575 C 0.27928 0.04584 0.64252 0.0
C576 C 0.31429 0.09251 0.63224 0.0
C577 C 0.31491 0.08934 0.6141 0.0
C578 C 0.34854 0.13311 0.60449 0.0
C579 C 0.38147 0.18042 0.61287 0.0
C580 C 0.38074 0.18407 0.63087 0.0
C581 C 0.34724 0.14039 0.64054 0.0
H582 H 0.40751 0.21426 0.60541 0.0
H583 H 0.05697 0.78004 0.68896 0.0
H584 H 0.10427 0.15464 0.00706 0.0
H585 H 0.17822 0.20176 0.98828 0.0
H586 H 0.27971 0.25774 0.03307 0.0
H587 H 0.20574 0.20809 0.05187 0.0
H588 H 0.2372 0.29628 0.98423 0.0
H589 H 0.40156 0.29186 0.02331 0.0
H590 H 0.41272 0.23178 0.04223 0.0
H591 H 0.2791 0.10138 0.01889 0.0
H592 H 0.26754 0.16058 -0.00032 0.0
H593 H 0.46691 0.50262 0.95742 0.0
H594 H 0.40385 0.4391 0.97718 0.0
H595 H 0.42388 0.31889 0.95461 0.0
H596 H 0.48864 0.38317 0.93496 0.0
H597 H 0.40473 0.30354 0.98959 0.0
H598 H 0.33064 0.33365 0.93992 0.0
H599 H 0.31944 0.38739 0.91817 0.0
H600 H 0.26388 0.44769 0.95723 0.0
H601 H 0.27679 0.39588 0.97939 0.0
C602 C 0.14243 0.1766 0.0129 0.0
C603 C 0.14922 0.17783 0.03094 0.0
C604 C 0.18475 0.20361 0.00214 0.0
C605 C 0.23486 0.23327 0.00916 0.0
C606 C 0.24175 0.23428 0.02723 0.0
C607 C 0.19939 0.2062 0.038 0.0
C608 C 0.27907 0.26569 -0.00238 0.0
C609 C 0.27361 0.29745 0.98542 0.0
C610 C 0.32652 0.26671 -0.00124 0.0
C611 C 0.33344 0.23076 0.01017 0.0
C612 C 0.37469 0.25036 0.02217 0.0
C613 C 0.38106 0.21645 0.03296 0.0
C614 C 0.34655 0.16281 0.0318 0.0
C615 C 0.30569 0.14295 0.01982 0.0
C616 C 0.29917 0.17667 0.009 0.0
C617 C 0.45864 0.46286 0.95686 0.0
C618 C 0.48205 0.4476 0.94449 0.0
C619 C 0.42261 0.42661 0.96817 0.0
C620 C 0.40832 0.37406 0.9671 0.0
C621 C 0.43423 0.35924 0.95559 0.0
C622 C 0.47109 0.3959 0.94437 0.0
C623 C 0.36273 0.33454 0.97672 0.0
C624 C 0.368 0.30172 0.98845 0.0
C625 C 0.31431 0.33091 0.97472 0.0
C626 C 0.30509 0.36114 0.96136 0.0
C627 C 0.31638 0.35864 0.94392 0.0
C628 C 0.30974 0.38878 0.9315 0.0
C629 C 0.29076 0.42079 0.93629 0.0
C630 C 0.27855 0.42284 0.95353 0.0
C631 C 0.28566 0.3932 0.96604 0.0
H632 H 0.28554 0.444 0.92665 0.0
H633 H 0.35153 0.13664 0.04017 0.0
H634 H 0.95113 0.16048 0.36466 0.0
H635 H 0.96404 0.22916 0.34458 0.0
H636 H 0.11976 0.32617 0.36394 0.0
H637 H 0.10691 0.25784 0.38426 0.0
H638 H 0.07254 0.38209 0.35904 0.0
H639 H 0.09774 0.26138 0.32613 0.0
H640 H 0.07531 0.17506 0.31485 0.0
H641 H 0.9397 0.15882 0.29002 0.0
H642 H 0.96093 0.24474 0.30137 0.0
H643 H 0.14499 0.55723 0.28672 0.0
H644 H 0.14312 0.49543 0.30808 0.0
H645 H 0.9841 0.3868 0.2945 0.0
H646 H 0.98552 0.44773 0.27332 0.0
H647 H 0.04127 0.33983 0.29637 0.0
H648 H 0.01223 0.45665 0.33053 0.0
H649 H 0.03274 0.5423 0.34186 0.0
H650 H 0.17407 0.56555 0.3642 0.0
H651 H 0.15473 0.48026 0.35276 0.0
C652 C 0.98805 0.1965 0.36471 0.0
C653 C 0.02811 0.20356 0.37596 0.0
C654 C -0.00455 0.23567 0.35318 0.0
C655 C 0.04315 0.28251 0.35257 0.0
C656 C 0.08272 0.29029 0.36415 0.0
C657 C 0.07533 0.25114 0.37571 0.0
C658 C 0.05189 0.32276 0.33959 0.0
C659 C 0.06654 0.37312 0.34531 0.0
C660 C 0.04337 0.31086 0.32169 0.0
C661 C 0.03072 0.25933 0.31472 0.0
C662 C 0.06295 0.23925 0.31836 0.0
C663 C 0.05047 0.19041 0.31194 0.0
C664 C 0.00605 0.16143 0.30175 0.0
C665 C 0.97408 0.18129 0.29793 0.0
C666 C 0.98634 0.23009 0.30433 0.0
C667 C 0.10971 0.52015 0.28829 0.0
C668 C 0.0654 0.50751 0.27835 0.0
C669 C 0.10865 0.48499 0.30052 0.0
C670 C 0.06337 0.43662 0.30291 0.0
C671 C 0.01944 0.42384 0.29285 0.0
C672 C 0.02032 0.45892 0.28079 0.0
C673 C 0.06111 0.39886 0.31584 0.0
C674 C 0.04776 0.34894 0.31009 0.0
C675 C 0.0707 0.41118 0.33367 0.0
C676 C 0.08234 0.46237 0.34061 0.0
C677 C 0.04791 0.48023 0.33773 0.0
C678 C 0.05927 0.52867 0.34419 0.0
C679 C 0.10475 0.55943 0.3537 0.0
C680 C 0.1389 0.54172 0.3568 0.0
C681 C 0.12775 0.49333 0.35033 0.0
H682 H 0.11346 0.59692 0.3587 0.0
H683 H -0.00356 0.12361 0.2968 0.0
loop_
_geom_bond_atom_site_label_1
_geom_bond_atom_site_label_2
_geom_bond_distance
_geom_bond_site_symmetry_2
_ccdc_geom_bond_type
C0 O1 1.306 . S
C0 O3 1.160 . S
O1 C0 1.306 . S
O1 Cd2 2.228 1_455 S
Cd2 O1 2.228 1_655 S
Cd2 O6 2.273 . S
Cd2 O10 2.277 1_655 S
O3 C0 1.160 . S
O3 Cd4 2.203 . S
Cd4 O3 2.203 . S
Cd4 O6 2.411 1_455 S
Cd4 O7 2.333 . S
Cd4 O8 2.352 . S
Cd4 O12 2.277 . S
Cd4 O13 2.356 . S
C5 O10 1.209 . S
C5 O12 1.226 . S
O6 Cd2 2.273 . S
O6 Cd4 2.411 1_655 S
O6 C9 1.320 . S
O7 Cd4 2.333 . S
O7 C9 1.214 1_455 S
O8 Cd4 2.352 . S
O8 C11 1.258 1_545 S
C9 O6 1.320 . S
C9 O7 1.214 1_655 S
O10 Cd2 2.277 1_455 S
O10 C5 1.209 . S
C11 O8 1.258 1_565 S
C11 O13 1.282 1_565 S
O12 Cd4 2.277 . S
O12 C5 1.226 . S
O13 Cd4 2.356 . S
O13 C11 1.282 1_545 S
C14 O15 1.306 . S
C14 O17 1.160 . S
O15 C14 1.306 . S
O15 Cd16 2.228 . S
Cd16 O15 2.228 . S
Cd16 O20 2.273 . S
Cd16 O24 2.277 . S
O17 C14 1.160 . S
O17 Cd18 2.203 . S
Cd18 O17 2.203 . S
Cd18 O20 2.411 . S
Cd18 O21 2.333 1_455 S
Cd18 O22 2.352 1_455 S
Cd18 O26 2.277 1_445 S
Cd18 O27 2.356 1_455 S
C19 O24 1.209 1_565 S
C19 O26 1.226 1_455 S
O20 Cd16 2.273 . S
O20 Cd18 2.411 . S
O20 C23 1.320 . S
O21 Cd18 2.333 1_655 S
O21 C23 1.214 1_655 S
O22 Cd18 2.352 1_655 S
O22 C25 1.258 . S
C23 O20 1.320 . S
C23 O21 1.214 1_455 S
O24 Cd16 2.277 . S
O24 C19 1.209 1_545 S
C25 O22 1.258 . S
C25 O27 1.282 . S
O26 Cd18 2.277 1_665 S
O26 C19 1.226 1_655 S
O27 Cd18 2.356 1_655 S
O27 C25 1.282 . S
C28 O29 1.306 . S
C28 O31 1.160 . S
O29 C28 1.306 . S
O29 Cd30 2.228 . S
Cd30 O29 2.228 . S
Cd30 O34 2.273 1_655 S
Cd30 O38 2.277 . S
O31 C28 1.160 . S
O31 Cd32 2.203 1_655 S
Cd32 O31 2.203 1_455 S
Cd32 O34 2.411 . S
Cd32 O35 2.333 . S
Cd32 O36 2.352 . S
Cd32 O40 2.277 1_445 S
Cd32 O41 2.356 . S
C33 O38 1.209 . S
C33 O40 1.226 1_545 S
O34 Cd30 2.273 1_455 S
O34 Cd32 2.411 . S
O34 C37 1.320 . S
O35 Cd32 2.333 . S
O35 C37 1.214 . S
O36 Cd32 2.352 . S
O36 C39 1.258 . S
C37 O34 1.320 . S
C37 O35 1.214 . S
O38 Cd30 2.277 . S
O38 C33 1.209 . S
C39 O36 1.258 . S
C39 O41 1.282 . S
O40 Cd32 2.277 1_665 S
O40 C33 1.226 1_565 S
O41 Cd32 2.356 . S
O41 C39 1.282 . S
C42 O44 1.247 . S
C42 O46 1.258 . S
C43 O50 1.247 . S
C43 O51 1.258 . S
O44 C42 1.247 . S
O44 Zn45 2.028 . S
Zn45 O44 2.028 . S
Zn45 O49 2.035 . S
Zn45 O51 2.035 . S
Zn45 O52 2.028 . S
O46 C42 1.258 . S
O46 Zn47 2.035 1_455 S
Zn47 O46 2.035 1_655 S
Zn47 O48 2.028 1_655 S
Zn47 O50 2.028 1_655 S
Zn47 O53 2.035 1_655 S
O48 Zn47 2.028 1_455 S
O48 C54 1.247 . S
O49 Zn45 2.035 . S
O49 C54 1.258 . S
O50 C43 1.247 . S
O50 Zn47 2.028 1_455 S
O51 C43 1.258 . S
O51 Zn45 2.035 . S
O52 Zn45 2.028 . S
O52 C55 1.247 . S
O53 Zn47 2.035 1_455 S
O53 C55 1.258 . S
C54 O48 1.247 . S
C54 O49 1.258 . S
C55 O52 1.247 . S
C55 O53 1.258 . S
C56 O58 1.247 . S
C56 O60 1.258 . S
C57 O64 1.247 . S
C57 O65 1.258 . S
O58 C56 1.247 . S
O58 Zn59 2.028 . S
Zn59 O58 2.028 . S
Zn59 O63 2.035 . S
Zn59 O65 2.035 . S
Zn59 O66 2.028 . S
O60 C56 1.258 . S
O60 Zn61 2.035 . S
Zn61 O60 2.035 . S
Zn61 O62 2.028 . S
Zn61 O64 2.028 . S
Zn61 O67 2.035 . S
O62 Zn61 2.028 . S
O62 C68 1.247 . S
O63 Zn59 2.035 . S
O63 C68 1.258 . S
O64 C57 1.247 . S
O64 Zn61 2.028 . S
O65 C57 1.258 . S
O65 Zn59 2.035 . S
O66 Zn59 2.028 . S
O66 C69 1.247 . S
O67 Zn61 2.035 . S
O67 C69 1.258 . S
C68 O62 1.247 . S
C68 O63 1.258 . S
C69 O66 1.247 . S
C69 O67 1.258 . S
C70 O72 1.247 . S
C70 O74 1.258 . S
C71 O78 1.247 . S
C71 O79 1.258 . S
O72 C70 1.247 . S
O72 Zn73 2.028 . S
Zn73 O72 2.028 . S
Zn73 O77 2.035 . S
Zn73 O79 2.035 . S
Zn73 O80 2.028 . S
O74 C70 1.258 . S
O74 Zn75 2.035 . S
Zn75 O74 2.035 . S
Zn75 O76 2.028 . S
Zn75 O78 2.028 . S
Zn75 O81 2.035 . S
O76 Zn75 2.028 . S
O76 C82 1.247 . S
O77 Zn73 2.035 . S
O77 C82 1.258 . S
O78 C71 1.247 . S
O78 Zn75 2.028 . S
O79 C71 1.258 . S
O79 Zn73 2.035 . S
O80 Zn73 2.028 . S
O80 C83 1.247 . S
O81 Zn75 2.035 . S
O81 C83 1.258 . S
C82 O76 1.247 . S
C82 O77 1.258 . S
C83 O80 1.247 . S
C83 O81 1.258 . S
H84 C102 0.951 . S
H85 C104 0.951 . S
H86 C106 0.950 . S
H87 C107 0.950 . S
H88 C109 0.950 1_655 S
H89 C112 0.950 . S
H90 C113 0.950 . S
H91 C115 0.950 . S
H92 C116 0.950 . S
H93 C117 0.951 . S
H94 C119 0.951 . S
H95 C121 0.950 . S
H96 C122 0.950 . S
H97 C124 0.950 . S
H98 C127 0.950 . S
H99 C128 0.950 . S
H100 C130 0.950 . S
H101 C131 0.950 . S
C102 H84 0.951 . S
C102 C103 1.366 . S
C102 C104 1.388 . S
C103 C102 1.366 . S
C103 C107 1.385 . S
C104 H85 0.951 . S
C104 C102 1.388 . S
C104 C105 1.366 . S
C105 C104 1.366 . S
C105 C106 1.414 . S
C105 C108 1.499 . S
C106 H86 0.950 . S
C106 C105 1.414 . S
C106 C107 1.374 . S
C107 H87 0.950 . S
C107 C103 1.385 . S
C107 C106 1.374 . S
C108 C105 1.499 . S
C108 C109 1.373 . S
C108 C110 1.389 . S
C109 H88 0.950 1_455 S
C109 C108 1.373 . S
C109 C125 1.377 . S
C110 C108 1.389 . S
C110 C111 1.524 . S
C110 C124 1.377 . S
C111 C110 1.524 . S
C111 C112 1.397 . S
C111 C116 1.363 . S
C112 H89 0.950 . S
C112 C111 1.397 . S
C112 C113 1.334 . S
C113 H90 0.950 . S
C113 C112 1.334 . S
C113 C114 1.287 . S
C114 C113 1.287 . S
C114 C115 1.524 . S
C114 H133 0.913 . S
C115 H91 0.950 . S
C115 C114 1.524 . S
C115 C116 1.415 . S
C116 H92 0.950 . S
C116 C111 1.363 . S
C116 C115 1.415 . S
C117 H93 0.951 . S
C117 C118 1.366 . S
C117 C119 1.388 . S
C118 C117 1.366 . S
C118 C122 1.385 . S
C119 H94 0.951 . S
C119 C117 1.388 . S
C119 C120 1.366 . S
C120 C119 1.366 . S
C120 C121 1.414 . S
C120 C123 1.499 . S
C121 H95 0.950 . S
C121 C120 1.414 . S
C121 C122 1.374 . S
C122 H96 0.950 . S
C122 C118 1.385 . S
C122 C121 1.374 . S
C123 C120 1.499 . S
C123 C124 1.373 . S
C123 C125 1.389 . S
C124 H97 0.950 . S
C124 C110 1.377 . S
C124 C123 1.373 . S
C125 C109 1.377 . S
C125 C123 1.389 . S
C125 C126 1.524 1_455 S
C126 C125 1.524 1_655 S
C126 C127 1.397 . S
C126 C131 1.363 . S
C127 H98 0.950 . S
C127 C126 1.397 . S
C127 C128 1.334 . S
C128 H99 0.950 . S
C128 C127 1.334 . S
C128 C129 1.287 . S
C129 C128 1.287 . S
C129 C130 1.524 . S
C129 H132 0.999 . S
C130 H100 0.950 . S
C130 C129 1.524 . S
C130 C131 1.415 . S
C131 H101 0.950 . S
C131 C126 1.363 . S
C131 C130 1.415 . S
H132 C129 0.999 . S
H133 C114 0.913 . S
H134 C152 0.951 . S
H135 C154 0.951 . S
H136 C156 0.950 . S
H137 C157 0.950 . S
H138 C159 0.941 1_565 S
H139 C162 0.950 . S
H140 C163 0.950 . S
H141 C165 0.950 . S
H142 C166 0.950 . S
H143 C167 0.951 . S
H144 C169 0.951 . S
H145 C171 0.950 . S
H146 C172 0.950 . S
H147 C174 0.950 . S
H148 C177 0.950 . S
H149 C178 0.950 . S
H150 C180 0.950 . S
H151 C181 0.950 . S
C152 H134 0.951 . S
C152 C153 1.366 . S
C152 C154 1.388 . S
C153 C152 1.366 . S
C153 C157 1.385 . S
C154 H135 0.951 . S
C154 C152 1.388 . S
C154 C155 1.366 . S
C155 C154 1.366 . S
C155 C156 1.414 . S
C155 C158 1.499 . S
C156 H136 0.950 . S
C156 C155 1.414 . S
C156 C157 1.374 . S
C157 H137 0.950 . S
C157 C153 1.385 . S
C157 C156 1.374 . S
C158 C155 1.499 . S
C158 C159 1.373 . S
C158 C160 1.389 . S
C159 H138 0.941 1_545 S
C159 C158 1.373 . S
C159 C175 1.377 . S
C160 C158 1.389 . S
C160 C161 1.524 . S
C160 C174 1.377 . S
C161 C160 1.524 . S
C161 C162 1.397 . S
C161 C166 1.363 . S
C162 H139 0.950 . S
C162 C161 1.397 . S
C162 C163 1.334 . S
C163 H140 0.950 . S
C163 C162 1.334 . S
C163 C164 1.287 . S
C164 C163 1.287 . S
C164 C165 1.524 . S
C164 H183 0.913 . S
C165 H141 0.950 . S
C165 C164 1.524 . S
C165 C166 1.415 . S
C166 H142 0.950 . S
C166 C161 1.363 . S
C166 C165 1.415 . S
C167 H143 0.951 . S
C167 C168 1.366 . S
C167 C169 1.388 . S
C168 C167 1.366 . S
C168 C172 1.385 . S
C169 H144 0.951 . S
C169 C167 1.388 . S
C169 C170 1.366 . S
C170 C169 1.366 . S
C170 C171 1.414 . S
C170 C173 1.499 . S
C171 H145 0.950 . S
C171 C170 1.414 . S
C171 C172 1.374 . S
C172 H146 0.950 . S
C172 C168 1.385 . S
C172 C171 1.374 . S
C173 C170 1.499 . S
C173 C174 1.373 . S
C173 C175 1.389 . S
C174 H147 0.950 . S
C174 C160 1.377 . S
C174 C173 1.373 . S
C175 C159 1.377 . S
C175 C173 1.389 . S
C175 C176 1.524 1_545 S
C176 C175 1.524 1_565 S
C176 C177 1.397 . S
C176 C181 1.363 . S
C177 H148 0.950 . S
C177 C176 1.397 . S
C177 C178 1.334 . S
C178 H149 0.950 . S
C178 C177 1.334 . S
C178 C179 1.287 . S
C179 C178 1.287 . S
C179 C180 1.524 . S
C179 H182 0.999 . S
C180 H150 0.950 . S
C180 C179 1.524 . S
C180 C181 1.415 . S
C181 H151 0.950 . S
C181 C176 1.363 . S
C181 C180 1.415 . S
H182 C179 0.999 . S
H183 C164 0.913 . S
H184 C202 0.951 . S
H185 C204 0.951 . S
H186 C206 0.950 . S
H187 C207 0.950 1_545 S
H188 C209 0.950 . S
H189 C212 0.950 . S
H190 C213 0.950 . S
H191 C215 0.950 . S
H192 C216 0.950 . S
H193 C217 0.951 . S
H194 C219 0.951 . S
H195 C221 0.950 . S
H196 C222 0.950 . S
H197 C224 0.950 . S
H198 C227 0.950 . S
H199 C228 0.950 . S
H200 C230 0.950 . S
H201 C231 0.950 . S
C202 H184 0.951 . S
C202 C203 1.366 . S
C202 C204 1.388 . S
C203 C202 1.366 . S
C203 C207 1.385 . S
C204 H185 0.951 . S
C204 C202 1.388 . S
C204 C205 1.366 . S
C205 C204 1.366 . S
C205 C206 1.414 . S
C205 C208 1.499 . S
C206 H186 0.950 . S
C206 C205 1.414 . S
C206 C207 1.374 . S
C207 H187 0.950 1_565 S
C207 C203 1.385 . S
C207 C206 1.374 . S
C208 C205 1.499 . S
C208 C209 1.373 . S
C208 C210 1.389 . S
C209 H188 0.950 . S
C209 C208 1.373 . S
C209 C225 1.377 . S
C210 C208 1.389 . S
C210 C211 1.524 . S
C210 C224 1.377 . S
C211 C210 1.524 . S
C211 C212 1.397 . S
C211 C216 1.363 . S
C212 H189 0.950 . S
C212 C211 1.397 . S
C212 C213 1.334 . S
C213 H190 0.950 . S
C213 C212 1.334 . S
C213 C214 1.287 . S
C214 C213 1.287 . S
C214 C215 1.524 . S
C214 H233 0.913 . S
C215 H191 0.950 . S
C215 C214 1.524 . S
C215 C216 1.415 . S
C216 H192 0.950 . S
C216 C211 1.363 . S
C216 C215 1.415 . S
C217 H193 0.951 . S
C217 C218 1.366 . S
C217 C219 1.388 . S
C218 C217 1.366 . S
C218 C222 1.385 . S
C219 H194 0.951 . S
C219 C217 1.388 . S
C219 C220 1.366 . S
C220 C219 1.366 . S
C220 C221 1.414 . S
C220 C223 1.499 . S
C221 H195 0.950 . S
C221 C220 1.414 . S
C221 C222 1.374 . S
C222 H196 0.950 . S
C222 C218 1.385 . S
C222 C221 1.374 . S
C223 C220 1.499 . S
C223 C224 1.373 . S
C223 C225 1.389 . S
C224 H197 0.950 . S
C224 C210 1.377 . S
C224 C223 1.373 . S
C225 C209 1.377 . S
C225 C223 1.389 . S
C225 C226 1.524 . S
C226 C225 1.524 . S
C226 C227 1.397 . S
C226 C231 1.363 . S
C227 H198 0.950 . S
C227 C226 1.397 . S
C227 C228 1.334 . S
C228 H199 0.950 . S
C228 C227 1.334 . S
C228 C229 1.287 . S
C229 C228 1.287 . S
C229 C230 1.524 . S
C229 H232 0.999 . S
C230 H200 0.950 . S
C230 C229 1.524 . S
C230 C231 1.415 . S
C231 H201 0.950 . S
C231 C226 1.363 . S
C231 C230 1.415 . S
H232 C229 0.999 . S
H233 C214 0.913 . S
H234 C252 0.951 1_545 S
H235 C254 0.951 . S
H236 C256 0.950 . S
H237 C257 0.950 . S
H238 C259 0.950 1_655 S
H239 C262 0.950 . S
H240 C263 0.950 . S
H241 C265 0.950 1_545 S
H242 C266 0.950 . S
H243 C267 0.951 . S
H244 C269 0.951 . S
H245 C271 0.950 . S
H246 C272 0.950 . S
H247 C274 0.950 . S
H248 C277 0.950 . S
H249 C278 0.950 . S
H250 C280 0.950 . S
H251 C281 0.950 . S
C252 H234 0.951 1_565 S
C252 C253 1.366 . S
C252 C254 1.388 . S
C253 C252 1.366 . S
C253 C257 1.385 . S
C254 H235 0.951 . S
C254 C252 1.388 . S
C254 C255 1.366 . S
C255 C254 1.366 . S
C255 C256 1.414 . S
C255 C258 1.499 . S
C256 H236 0.950 . S
C256 C255 1.414 . S
C256 C257 1.374 . S
C257 H237 0.950 . S
C257 C253 1.385 . S
C257 C256 1.374 . S
C258 C255 1.499 . S
C258 C259 1.373 . S
C258 C260 1.389 . S
C259 H238 0.950 1_455 S
C259 C258 1.373 . S
C259 C275 1.377 . S
C260 C258 1.389 . S
C260 C261 1.524 . S
C260 C274 1.377 . S
C261 C260 1.524 . S
C261 C262 1.397 . S
C261 C266 1.363 . S
C262 H239 0.950 . S
C262 C261 1.397 . S
C262 C263 1.334 . S
C263 H240 0.950 . S
C263 C262 1.334 . S
C263 C264 1.287 . S
C264 C263 1.287 . S
C264 C265 1.524 . S
C264 H283 0.913 1_565 S
C265 H241 0.950 1_565 S
C265 C264 1.524 . S
C265 C266 1.415 . S
C266 H242 0.950 . S
C266 C261 1.363 . S
C266 C265 1.415 . S
C267 H243 0.951 . S
C267 C268 1.366 . S
C267 C269 1.388 . S
C268 C267 1.366 . S
C268 C272 1.385 . S
C269 H244 0.951 . S
C269 C267 1.388 . S
C269 C270 1.366 . S
C270 C269 1.366 . S
C270 C271 1.414 . S
C270 C273 1.499 . S
C271 H245 0.950 . S
C271 C270 1.414 . S
C271 C272 1.374 . S
C272 H246 0.950 . S
C272 C268 1.385 . S
C272 C271 1.374 . S
C273 C270 1.499 . S
C273 C274 1.373 . S
C273 C275 1.389 . S
C274 H247 0.950 . S
C274 C260 1.377 . S
C274 C273 1.373 . S
C275 C259 1.377 . S
C275 C273 1.389 . S
C275 C276 1.524 1_455 S
C276 C275 1.524 1_655 S
C276 C277 1.397 . S
C276 C281 1.363 . S
C277 H248 0.950 . S
C277 C276 1.397 . S
C277 C278 1.334 . S
C278 H249 0.950 . S
C278 C277 1.334 . S
C278 C279 1.287 . S
C279 C278 1.287 . S
C279 C280 1.524 . S
C279 H282 0.999 . S
C280 H250 0.950 . S
C280 C279 1.524 . S
C280 C281 1.415 . S
C281 H251 0.950 . S
C281 C276 1.363 . S
C281 C280 1.415 . S
H282 C279 0.999 . S
H283 C264 0.913 1_545 S
H284 C302 0.951 . S
H285 C304 0.951 . S
H286 C306 0.950 . S
H287 C307 0.950 . S
H288 C309 0.950 1_565 S
H289 C312 0.950 . S
H290 C313 0.950 . S
H291 C315 0.950 . S
H292 C316 0.950 . S
H293 C317 0.951 . S
H294 C319 0.951 . S
H295 C321 0.950 . S
H296 C322 0.950 . S
H297 C324 0.950 . S
H298 C327 0.950 . S
H299 C328 0.950 . S
H300 C330 0.950 . S
H301 C331 0.950 . S
C302 H284 0.951 . S
C302 C303 1.366 . S
C302 C304 1.388 . S
C303 C302 1.366 . S
C303 C307 1.385 . S
C304 H285 0.951 . S
C304 C302 1.388 . S
C304 C305 1.366 . S
C305 C304 1.366 . S
C305 C306 1.414 . S
C305 C308 1.499 . S
C306 H286 0.950 . S
C306 C305 1.414 . S
C306 C307 1.374 . S
C307 H287 0.950 . S
C307 C303 1.385 . S
C307 C306 1.374 . S
C308 C305 1.499 . S
C308 C309 1.373 . S
C308 C310 1.389 . S
C309 H288 0.950 1_545 S
C309 C308 1.373 . S
C309 C325 1.377 . S
C310 C308 1.389 . S
C310 C311 1.524 . S
C310 C324 1.377 . S
C311 C310 1.524 . S
C311 C312 1.397 . S
C311 C316 1.363 . S
C312 H289 0.950 . S
C312 C311 1.397 . S
C312 C313 1.334 . S
C313 H290 0.950 . S
C313 C312 1.334 . S
C313 C314 1.287 . S
C314 C313 1.287 . S
C314 C315 1.524 . S
C314 H333 0.913 . S
C315 H291 0.950 . S
C315 C314 1.524 . S
C315 C316 1.415 . S
C316 H292 0.950 . S
C316 C311 1.363 . S
C316 C315 1.415 . S
C317 H293 0.951 . S
C317 C318 1.366 . S
C317 C319 1.388 . S
C318 C317 1.366 . S
C318 C322 1.385 . S
C319 H294 0.951 . S
C319 C317 1.388 . S
C319 C320 1.366 . S
C320 C319 1.366 . S
C320 C321 1.414 . S
C320 C323 1.499 . S
C321 H295 0.950 . S
C321 C320 1.414 . S
C321 C322 1.374 . S
C322 H296 0.950 . S
C322 C318 1.385 . S
C322 C321 1.374 . S
C323 C320 1.499 . S
C323 C324 1.373 . S
C323 C325 1.389 . S
C324 H297 0.950 . S
C324 C310 1.377 . S
C324 C323 1.373 . S
C325 C309 1.377 . S
C325 C323 1.389 . S
C325 C326 1.524 1_545 S
C326 C325 1.524 1_565 S
C326 C327 1.397 . S
C326 C331 1.363 . S
C327 H298 0.950 . S
C327 C326 1.397 . S
C327 C328 1.334 . S
C328 H299 0.950 . S
C328 C327 1.334 . S
C328 C329 1.287 . S
C329 C328 1.287 . S
C329 C330 1.524 . S
C329 H332 0.999 . S
C330 H300 0.950 . S
C330 C329 1.524 . S
C330 C331 1.415 . S
C331 H301 0.950 . S
C331 C326 1.363 . S
C331 C330 1.415 . S
H332 C329 0.999 . S
H333 C314 0.913 . S
H334 C352 0.951 . S
H335 C354 0.951 . S
H336 C356 0.950 . S
H337 C357 0.950 . S
H338 C359 0.950 . S
H339 C362 0.950 . S
H340 C363 0.950 . S
H341 C365 0.950 . S
H342 C366 0.950 . S
H343 C367 0.951 . S
H344 C369 0.951 . S
H345 C371 0.950 . S
H346 C372 0.950 . S
H347 C374 0.950 . S
H348 C377 0.950 . S
H349 C378 0.950 . S
H350 C380 0.950 . S
H351 C381 0.950 . S
C352 H334 0.951 . S
C352 C353 1.366 . S
C352 C354 1.388 . S
C353 C352 1.366 . S
C353 C357 1.385 . S
C354 H335 0.951 . S
C354 C352 1.388 . S
C354 C355 1.366 . S
C355 C354 1.366 . S
C355 C356 1.414 . S
C355 C358 1.499 . S
C356 H336 0.950 . S
C356 C355 1.414 . S
C356 C357 1.374 . S
C357 H337 0.950 . S
C357 C353 1.385 . S
C357 C356 1.374 . S
C358 C355 1.499 . S
C358 C359 1.373 . S
C358 C360 1.389 . S
C359 H338 0.950 . S
C359 C358 1.373 . S
C359 C375 1.377 . S
C360 C358 1.389 . S
C360 C361 1.524 . S
C360 C374 1.377 . S
C361 C360 1.524 . S
C361 C362 1.397 . S
C361 C366 1.363 . S
C362 H339 0.950 . S
C362 C361 1.397 . S
C362 C363 1.334 . S
C363 H340 0.950 . S
C363 C362 1.334 . S
C363 C364 1.287 . S
C364 C363 1.287 . S
C364 C365 1.524 . S
C364 H383 0.913 . S
C365 H341 0.950 . S
C365 C364 1.524 . S
C365 C366 1.415 . S
C366 H342 0.950 . S
C366 C361 1.363 . S
C366 C365 1.415 . S
C367 H343 0.951 . S
C367 C368 1.366 . S
C367 C369 1.388 . S
C368 C367 1.366 . S
C368 C372 1.385 . S
C369 H344 0.951 . S
C369 C367 1.388 . S
C369 C370 1.366 . S
C370 C369 1.366 . S
C370 C371 1.414 . S
C370 C373 1.499 . S
C371 H345 0.950 . S
C371 C370 1.414 . S
C371 C372 1.374 . S
C372 H346 0.950 . S
C372 C368 1.385 . S
C372 C371 1.374 . S
C373 C370 1.499 . S
C373 C374 1.373 . S
C373 C375 1.389 . S
C374 H347 0.950 . S
C374 C360 1.377 . S
C374 C373 1.373 . S
C375 C359 1.377 . S
C375 C373 1.389 . S
C375 C376 1.524 . S
C376 C375 1.524 . S
C376 C377 1.397 . S
C376 C381 1.363 . S
C377 H348 0.950 . S
C377 C376 1.397 . S
C377 C378 1.334 . S
C378 H349 0.950 . S
C378 C377 1.334 . S
C378 C379 1.287 . S
C379 C378 1.287 . S
C379 C380 1.524 . S
C379 H382 0.999 . S
C380 H350 0.950 . S
C380 C379 1.524 . S
C380 C381 1.415 . S
C381 H351 0.950 . S
C381 C376 1.363 . S
C381 C380 1.415 . S
H382 C379 0.999 . S
H383 C364 0.913 . S
H384 C402 0.951 . S
H385 C404 0.951 . S
H386 C406 0.950 . S
H387 C407 0.950 . S
H388 C409 0.950 1_565 S
H389 C412 0.950 . S
H390 C413 0.950 . S
H391 C415 0.950 . S
H392 C416 0.950 . S
H393 C417 0.951 . S
H394 C419 0.951 . S
H395 C421 0.950 . S
H396 C422 0.950 . S
H397 C424 0.950 . S
H398 C427 0.950 . S
H399 C428 0.950 . S
H400 C430 0.950 . S
H401 C431 0.950 . S
C402 H384 0.951 . S
C402 C403 1.366 . S
C402 C404 1.388 . S
C403 C402 1.366 . S
C403 C407 1.385 . S
C404 H385 0.951 . S
C404 C402 1.388 . S
C404 C405 1.366 . S
C405 C404 1.366 . S
C405 C406 1.414 . S
C405 C408 1.499 . S
C406 H386 0.950 . S
C406 C405 1.414 . S
C406 C407 1.374 . S
C407 H387 0.950 . S
C407 C403 1.385 . S
C407 C406 1.374 . S
C408 C405 1.499 . S
C408 C409 1.373 . S
C408 C410 1.389 . S
C409 H388 0.950 1_545 S
C409 C408 1.373 . S
C409 C425 1.377 . S
C410 C408 1.389 . S
C410 C411 1.524 . S
C410 C424 1.377 . S
C411 C410 1.524 . S
C411 C412 1.397 . S
C411 C416 1.363 . S
C412 H389 0.950 . S
C412 C411 1.397 . S
C412 C413 1.334 . S
C413 H390 0.950 . S
C413 C412 1.334 . S
C413 C414 1.287 . S
C414 C413 1.287 . S
C414 C415 1.524 . S
C414 H433 0.913 . S
C415 H391 0.950 . S
C415 C414 1.524 . S
C415 C416 1.415 . S
C416 H392 0.950 . S
C416 C411 1.363 . S
C416 C415 1.415 . S
C417 H393 0.951 . S
C417 C418 1.366 . S
C417 C419 1.388 . S
C418 C417 1.366 . S
C418 C422 1.385 . S
C419 H394 0.951 . S
C419 C417 1.388 . S
C419 C420 1.366 . S
C420 C419 1.366 . S
C420 C421 1.414 . S
C420 C423 1.499 . S
C421 H395 0.950 . S
C421 C420 1.414 . S
C421 C422 1.374 . S
C422 H396 0.950 . S
C422 C418 1.385 . S
C422 C421 1.374 . S
C423 C420 1.499 . S
C423 C424 1.373 . S
C423 C425 1.389 . S
C424 H397 0.950 . S
C424 C410 1.377 . S
C424 C423 1.373 . S
C425 C409 1.377 . S
C425 C423 1.389 . S
C425 C426 1.524 1_545 S
C426 C425 1.524 1_565 S
C426 C427 1.397 . S
C426 C431 1.363 . S
C427 H398 0.950 . S
C427 C426 1.397 . S
C427 C428 1.334 . S
C428 H399 0.950 . S
C428 C427 1.334 . S
C428 C429 1.287 . S
C429 C428 1.287 . S
C429 C430 1.524 . S
C429 H432 0.999 . S
C430 H400 0.950 . S
C430 C429 1.524 . S
C430 C431 1.415 . S
C431 H401 0.950 . S
C431 C426 1.363 . S
C431 C430 1.415 . S
H432 C429 0.999 . S
H433 C414 0.913 . S
H434 C452 0.951 . S
H435 C454 0.951 . S
H436 C456 0.950 . S
H437 C457 0.950 . S
H438 C459 0.950 . S
H439 C462 0.895 1_554 S
H440 C463 0.950 1_554 S
H441 C465 0.950 . S
H442 C466 0.950 . S
H443 C467 0.951 . S
H444 C469 0.951 . S
H445 C471 0.950 . S
H446 C472 0.950 . S
H447 C474 0.950 . S
H448 C477 0.950 . S
H449 C478 0.995 . S
H450 C480 0.950 . S
H451 C481 0.950 . S
C452 H434 0.951 . S
C452 C453 1.366 . S
C452 C454 1.388 . S
C453 C452 1.366 . S
C453 C457 1.385 . S
C454 H435 0.951 . S
C454 C452 1.388 . S
C454 C455 1.366 . S
C455 C454 1.366 . S
C455 C456 1.414 . S
C455 C458 1.499 . S
C456 H436 0.950 . S
C456 C455 1.414 . S
C456 C457 1.374 . S
C457 H437 0.950 . S
C457 C453 1.385 . S
C457 C456 1.374 . S
C458 C455 1.499 . S
C458 C459 1.373 . S
C458 C460 1.389 1_554 S
C459 H438 0.950 . S
C459 C458 1.373 . S
C459 C475 1.377 . S
C460 C458 1.389 1_556 S
C460 C461 1.524 . S
C460 C474 1.377 . S
C461 C460 1.524 . S
C461 C462 1.438 . S
C461 C466 1.363 . S
C462 H439 0.895 1_556 S
C462 C461 1.438 . S
C462 C463 1.350 1_565 S
C463 H440 0.950 1_556 S
C463 C462 1.350 1_545 S
C463 C464 1.287 . S
C464 C463 1.287 . S
C464 C465 1.524 . S
C464 H483 0.913 . S
C465 H441 0.950 . S
C465 C464 1.524 . S
C465 C466 1.415 1_545 S
C466 H442 0.950 . S
C466 C461 1.363 . S
C466 C465 1.415 1_565 S
C467 H443 0.951 . S
C467 C468 1.366 . S
C467 C469 1.388 . S
C468 C467 1.366 . S
C468 C472 1.385 . S
C469 H444 0.951 . S
C469 C467 1.388 . S
C469 C470 1.366 . S
C470 C469 1.366 . S
C470 C471 1.414 . S
C470 C473 1.499 . S
C471 H445 0.950 . S
C471 C470 1.414 . S
C471 C472 1.374 . S
C472 H446 0.950 . S
C472 C468 1.385 . S
C472 C471 1.374 . S
C473 C470 1.499 . S
C473 C474 1.373 . S
C473 C475 1.389 1_556 S
C474 H447 0.950 . S
C474 C460 1.377 . S
C474 C473 1.373 . S
C475 C459 1.377 . S
C475 C473 1.389 1_554 S
C475 C476 1.524 . S
C476 C475 1.524 . S
C476 C477 1.397 1_554 S
C476 C481 1.363 . S
C477 H448 0.950 . S
C477 C476 1.397 1_556 S
C477 C478 1.351 . S
C478 H449 0.995 . S
C478 C477 1.351 . S
C478 C479 1.227 1_556 S
C479 C478 1.227 1_554 S
C479 C480 1.524 . S
C479 H482 0.999 . S
C480 H450 0.950 . S
C480 C479 1.524 . S
C480 C481 1.415 . S
C481 H451 0.950 . S
C481 C476 1.363 . S
C481 C480 1.415 . S
H482 C479 0.999 . S
H483 C464 0.913 . S
H484 C502 0.951 1_545 S
H485 C504 0.951 . S
H486 C506 0.950 . S
H487 C507 0.950 . S
H488 C509 0.950 . S
H489 C512 0.950 . S
H490 C513 0.950 . S
H491 C515 0.950 . S
H492 C516 0.950 1_455 S
H493 C517 0.951 . S
H494 C519 0.951 . S
H495 C521 0.950 . S
H496 C522 0.950 . S
H497 C524 0.950 . S
H498 C527 0.950 . S
H499 C528 0.950 . S
H500 C530 0.950 . S
H501 C531 0.950 . S
C502 H484 0.951 1_565 S
C502 C503 1.366 . S
C502 C504 1.388 . S
C503 C502 1.366 . S
C503 C507 1.385 . S
C504 H485 0.951 . S
C504 C502 1.388 . S
C504 C505 1.366 . S
C505 C504 1.366 . S
C505 C506 1.414 . S
C505 C508 1.499 . S
C506 H486 0.950 . S
C506 C505 1.414 . S
C506 C507 1.374 . S
C507 H487 0.950 . S
C507 C503 1.385 . S
C507 C506 1.374 . S
C508 C505 1.499 . S
C508 C509 1.373 . S
C508 C510 1.389 . S
C509 H488 0.950 . S
C509 C508 1.373 . S
C509 C525 1.377 . S
C510 C508 1.389 . S
C510 C511 1.524 1_455 S
C510 C524 1.377 . S
C511 C510 1.524 1_655 S
C511 C512 1.397 . S
C511 C516 1.363 . S
C512 H489 0.950 . S
C512 C511 1.397 . S
C512 C513 1.334 . S
C513 H490 0.950 . S
C513 C512 1.334 . S
C513 C514 1.287 . S
C514 C513 1.287 . S
C514 C515 1.524 . S
C514 H533 0.913 . S
C515 H491 0.950 . S
C515 C514 1.524 . S
C515 C516 1.415 . S
C516 H492 0.950 1_655 S
C516 C511 1.363 . S
C516 C515 1.415 . S
C517 H493 0.951 . S
C517 C518 1.366 . S
C517 C519 1.388 . S
C518 C517 1.366 . S
C518 C522 1.385 . S
C519 H494 0.951 . S
C519 C517 1.388 . S
C519 C520 1.366 . S
C520 C519 1.366 . S
C520 C521 1.414 . S
C520 C523 1.499 . S
C521 H495 0.950 . S
C521 C520 1.414 . S
C521 C522 1.374 . S
C522 H496 0.950 . S
C522 C518 1.385 . S
C522 C521 1.374 . S
C523 C520 1.499 . S
C523 C524 1.373 . S
C523 C525 1.389 . S
C524 H497 0.950 . S
C524 C510 1.377 . S
C524 C523 1.373 . S
C525 C509 1.377 . S
C525 C523 1.389 . S
C525 C526 1.524 . S
C526 C525 1.524 . S
C526 C527 1.397 . S
C526 C531 1.363 . S
C527 H498 0.950 . S
C527 C526 1.397 . S
C527 C528 1.334 . S
C528 H499 0.950 . S
C528 C527 1.334 . S
C528 C529 1.287 . S
C529 C528 1.287 . S
C529 C530 1.524 . S
C529 H532 0.999 . S
C530 H500 0.950 . S
C530 C529 1.524 . S
C530 C531 1.415 . S
C531 H501 0.950 . S
C531 C526 1.363 . S
C531 C530 1.415 . S
H532 C529 0.999 . S
H533 C514 0.913 . S
H534 C552 0.951 . S
H535 C554 0.951 . S
H536 C556 0.950 . S
H537 C557 0.950 . S
H538 C559 0.950 . S
H539 C562 0.950 . S
H540 C563 0.950 . S
H541 C565 0.950 . S
H542 C566 0.950 . S
H543 C567 0.951 . S
H544 C569 0.951 . S
H545 C571 0.950 . S
H546 C572 0.950 . S
H547 C574 0.950 . S
H548 C577 0.950 . S
H549 C578 0.950 . S
H550 C580 0.950 . S
H551 C581 0.950 . S
C552 H534 0.951 . S
C552 C553 1.366 . S
C552 C554 1.388 . S
C553 C552 1.366 . S
C553 C557 1.385 . S
C554 H535 0.951 . S
C554 C552 1.388 . S
C554 C555 1.366 . S
C555 C554 1.366 . S
C555 C556 1.414 . S
C555 C558 1.499 . S
C556 H536 0.950 . S
C556 C555 1.414 . S
C556 C557 1.374 . S
C557 H537 0.950 . S
C557 C553 1.385 . S
C557 C556 1.374 . S
C558 C555 1.499 . S
C558 C559 1.373 . S
C558 C560 1.389 . S
C559 H538 0.950 . S
C559 C558 1.373 . S
C559 C575 1.377 . S
C560 C558 1.389 . S
C560 C561 1.524 1_545 S
C560 C574 1.377 . S
C561 C560 1.524 1_565 S
C561 C562 1.397 . S
C561 C566 1.363 . S
C562 H539 0.950 . S
C562 C561 1.397 . S
C562 C563 1.334 . S
C563 H540 0.950 . S
C563 C562 1.334 . S
C563 C564 1.287 . S
C564 C563 1.287 . S
C564 C565 1.524 . S
C564 H583 0.913 . S
C565 H541 0.950 . S
C565 C564 1.524 . S
C565 C566 1.415 . S
C566 H542 0.950 . S
C566 C561 1.363 . S
C566 C565 1.415 . S
C567 H543 0.951 . S
C567 C568 1.366 . S
C567 C569 1.388 . S
C568 C567 1.366 . S
C568 C572 1.385 . S
C569 H544 0.951 . S
C569 C567 1.388 . S
C569 C570 1.366 . S
C570 C569 1.366 . S
C570 C571 1.414 . S
C570 C573 1.499 . S
C571 H545 0.950 . S
C571 C570 1.414 . S
C571 C572 1.374 . S
C572 H546 0.950 . S
C572 C568 1.385 . S
C572 C571 1.374 . S
C573 C570 1.499 . S
C573 C574 1.373 . S
C573 C575 1.389 . S
C574 H547 0.950 . S
C574 C560 1.377 . S
C574 C573 1.373 . S
C575 C559 1.377 . S
C575 C573 1.389 . S
C575 C576 1.524 . S
C576 C575 1.524 . S
C576 C577 1.397 . S
C576 C581 1.363 . S
C577 H548 0.950 . S
C577 C576 1.397 . S
C577 C578 1.334 . S
C578 H549 0.950 . S
C578 C577 1.334 . S
C578 C579 1.287 . S
C579 C578 1.287 . S
C579 C580 1.524 . S
C579 H582 0.999 . S
C580 H550 0.950 . S
C580 C579 1.524 . S
C580 C581 1.415 . S
C581 H551 0.950 . S
C581 C576 1.363 . S
C581 C580 1.415 . S
H582 C579 0.999 . S
H583 C564 0.913 . S
H584 C602 0.951 . S
H585 C604 0.951 . S
H586 C606 0.950 . S
H587 C607 0.950 . S
H588 C609 0.950 . S
H589 C612 0.950 . S
H590 C613 0.950 . S
H591 C615 0.950 . S
H592 C616 0.950 . S
H593 C617 0.951 . S
H594 C619 0.951 . S
H595 C621 0.950 . S
H596 C622 0.950 . S
H597 C624 0.950 . S
H598 C627 0.950 . S
H599 C628 0.950 . S
H600 C630 0.950 1_554 S
H601 C631 0.950 1_554 S
C602 H584 0.951 . S
C602 C603 1.366 . S
C602 C604 1.388 . S
C603 C602 1.366 . S
C603 C607 1.385 . S
C604 H585 0.951 . S
C604 C602 1.388 . S
C604 C605 1.366 . S
C605 C604 1.366 . S
C605 C606 1.414 . S
C605 C608 1.499 . S
C606 H586 0.950 . S
C606 C605 1.414 . S
C606 C607 1.374 . S
C607 H587 0.950 . S
C607 C603 1.385 . S
C607 C606 1.374 . S
C608 C605 1.499 . S
C608 C609 1.373 . S
C608 C610 1.389 . S
C609 H588 0.950 . S
C609 C608 1.373 . S
C609 C625 1.377 1_554 S
C610 C608 1.389 . S
C610 C611 1.524 . S
C610 C624 1.377 1_554 S
C611 C610 1.524 . S
C611 C612 1.397 . S
C611 C616 1.363 1_554 S
C612 H589 0.950 . S
C612 C611 1.397 . S
C612 C613 1.334 . S
C613 H590 0.950 . S
C613 C612 1.334 . S
C613 C614 1.287 . S
C614 C613 1.287 . S
C614 C615 1.524 1_554 S
C614 H633 0.913 . S
C615 H591 0.950 . S
C615 C614 1.524 1_556 S
C615 C616 1.415 . S
C616 H592 0.950 . S
C616 C611 1.363 1_556 S
C616 C615 1.415 . S
C617 H593 0.951 . S
C617 C618 1.366 . S
C617 C619 1.388 . S
C618 C617 1.366 . S
C618 C622 1.385 . S
C619 H594 0.951 . S
C619 C617 1.388 . S
C619 C620 1.366 . S
C620 C619 1.366 . S
C620 C621 1.414 . S
C620 C623 1.499 . S
C621 H595 0.950 . S
C621 C620 1.414 . S
C621 C622 1.374 . S
C622 H596 0.950 . S
C622 C618 1.385 . S
C622 C621 1.374 . S
C623 C620 1.499 . S
C623 C624 1.373 . S
C623 C625 1.389 . S
C624 H597 0.950 . S
C624 C610 1.377 1_556 S
C624 C623 1.373 . S
C625 C609 1.377 1_556 S
C625 C623 1.389 . S
C625 C626 1.524 . S
C626 C625 1.524 . S
C626 C627 1.397 . S
C626 C631 1.363 . S
C627 H598 0.950 . S
C627 C626 1.397 . S
C627 C628 1.334 . S
C628 H599 0.950 . S
C628 C627 1.334 . S
C628 C629 1.287 . S
C629 C628 1.287 . S
C629 C630 1.524 . S
C629 H632 0.999 . S
C630 H600 0.950 1_556 S
C630 C629 1.524 . S
C630 C631 1.415 . S
C631 H601 0.950 1_556 S
C631 C626 1.363 . S
C631 C630 1.415 . S
H632 C629 0.999 . S
H633 C614 0.913 . S
H634 C652 0.951 . S
H635 C654 0.975 . S
H636 C656 0.950 . S
H637 C657 0.950 . S
H638 C659 0.950 . S
H639 C662 0.950 . S
H640 C663 0.950 . S
H641 C665 0.950 . S
H642 C666 0.950 . S
H643 C667 0.951 . S
H644 C669 0.951 . S
H645 C671 0.950 1_655 S
H646 C672 0.950 1_655 S
H647 C674 0.949 1_655 S
H648 C677 0.950 . S
H649 C678 0.950 . S
H650 C680 0.950 . S
H651 C681 0.950 . S
C652 H634 0.951 . S
C652 C653 1.366 1_655 S
C652 C654 1.379 . S
C653 C652 1.366 1_455 S
C653 C657 1.385 . S
C654 H635 0.975 . S
C654 C652 1.379 . S
C654 C655 1.351 1_655 S
C655 C654 1.351 1_455 S
C655 C656 1.414 . S
C655 C658 1.499 . S
C656 H636 0.950 . S
C656 C655 1.414 . S
C656 C657 1.374 . S
C657 H637 0.950 . S
C657 C653 1.385 . S
C657 C656 1.374 . S
C658 C655 1.499 . S
C658 C659 1.373 . S
C658 C660 1.372 1_455 S
C659 H638 0.950 . S
C659 C658 1.373 . S
C659 C675 1.377 . S
C660 C658 1.372 1_655 S
C660 C661 1.534 . S
C660 C674 1.386 1_655 S
C661 C660 1.534 . S
C661 C662 1.397 . S
C661 C666 1.363 . S
C662 H639 0.950 . S
C662 C661 1.397 . S
C662 C663 1.334 . S
C663 H640 0.950 . S
C663 C662 1.334 . S
C663 C664 1.287 . S
C664 C663 1.287 . S
C664 C665 1.524 . S
C664 H683 0.913 . S
C665 H641 0.950 . S
C665 C664 1.524 . S
C665 C666 1.415 . S
C666 H642 0.950 . S
C666 C661 1.363 . S
C666 C665 1.415 . S
C667 H643 0.951 . S
C667 C668 1.366 . S
C667 C669 1.388 . S
C668 C667 1.366 . S
C668 C672 1.385 . S
C669 H644 0.951 . S
C669 C667 1.388 . S
C669 C670 1.366 . S
C670 C669 1.366 . S
C670 C671 1.414 . S
C670 C673 1.499 . S
C671 H645 0.950 1_455 S
C671 C670 1.414 . S
C671 C672 1.374 . S
C672 H646 0.950 1_455 S
C672 C668 1.385 . S
C672 C671 1.374 . S
C673 C670 1.499 . S
C673 C674 1.374 . S
C673 C675 1.389 . S
C674 H647 0.949 1_455 S
C674 C660 1.386 1_455 S
C674 C673 1.374 . S
C675 C659 1.377 . S
C675 C673 1.389 . S
C675 C676 1.524 . S
C676 C675 1.524 . S
C676 C677 1.397 . S
C676 C681 1.363 . S
C677 H648 0.950 . S
C677 C676 1.397 . S
C677 C678 1.334 . S
C678 H649 0.950 . S
C678 C677 1.334 . S
C678 C679 1.287 . S
C679 C678 1.287 . S
C679 C680 1.524 . S
C679 H682 0.999 . S
C680 H650 0.950 . S
C680 C679 1.524 . S
C680 C681 1.415 . S
C681 H651 0.950 . S
C681 C676 1.363 . S
C681 C680 1.415 . S
H682 C679 0.999 . S
H683 C664 0.913 . S
C118 C43 1.427 . S
C103 C0 1.425 . S
C153 C25 1.456 . S
C168 C69 1.455 . S
C203 C33 1.476 1_565 S
C218 C71 1.476 . S
C253 C11 1.403 . S
C268 C55 1.402 . S
C318 C57 1.457 . S
C303 C14 1.454 . S
C353 C37 1.469 . S
C368 C83 1.474 . S
C418 C56 1.455 . S
C403 C28 1.453 . S
C453 C9 1.468 1_565 S
C468 C82 1.473 . S
C518 C42 1.503 . S
C503 C19 1.502 . S
C568 C68 1.453 . S
C553 C39 1.454 . S
C618 C70 1.475 . S
C603 C5 1.475 . S
C653 C23 1.516 . S
C668 C54 1.523 . S
