# Generated by pormake.
# Topology scu, (8,4)-cn, num edge types: 1
# Building blocks:
#     Node 0, Type 0, BuildingBlock: GIZVER_clean_sbu_0, # of connection points: 8
#     Node 1, Type 1, BuildingBlock: ESEHIV_clean_sbu_0, # of connection points: 4
#     Node 2, Type 1, BuildingBlock: ESEHIV_clean_sbu_0, # of connection points: 4
#     Edge 3, Type (0, 1), BuildingBlock: ZUJKAS_clean_linker_0, # of connection points: 2
#     Edge 4, Type (0, 1), BuildingBlock: ZUJKAS_clean_linker_0, # of connection points: 2
#     Edge 5, Type (0, 1), BuildingBlock: ZUJKAS_clean_linker_0, # of connection points: 2
#     Edge 6, Type (0, 1), BuildingBlock: ZUJKAS_clean_linker_0, # of connection points: 2
#     Edge 7, Type (0, 1), BuildingBlock: ZUJKAS_clean_linker_0, # of connection points: 2
#     Edge 8, Type (0, 1), BuildingBlock: ZUJKAS_clean_linker_0, # of connection points: 2
#     Edge 9, Type (0, 1), BuildingBlock: ZUJKAS_clean_linker_0, # of connection points: 2
#     Edge 10, Type (0, 1), BuildingBlock: ZUJKAS_clean_linker_0, # of connection points: 2
# Relax obj value: 0.032
# Max RMSD: 0.137
# Mean RMSD: 0.117
data_MOF--net-scu--node1-GIZVER_clean_sbu_0--node2-ESEHIV_clean_sbu_0--edge1-ZUJKAS_clean_linker_0
_symmetry_space_group_name_H-M    P1
_symmetry_Int_Tables_number       1
_symmetry_cell_setting            triclinic
loop_
_symmetry_equiv_pos_as_xyz
'x, y, z'
_cell_length_a     31.415293
_cell_length_b     31.992975
_cell_length_c     28.037811
_cell_angle_alpha  100.25543
_cell_angle_beta   86.688372
_cell_angle_gamma 112.24688
loop_
_atom_site_label
_atom_site_type_symbol
_atom_site_fract_x
_atom_site_fract_y
_atom_site_fract_z
_atom_type_partial_charge
Co0 Co 0.0304 0.99143 0.12971 0.0
Co1 Co 0.09513 0.05896 0.09738 0.0
Co2 Co 1.00411 0.03452 0.03543 0.0
O3 O 0.04349 1.01092 0.06769 0.0
H4 H 0.05334 0.99007 0.04478 0.0
O5 O 0.9664 0.05991 1.00328 0.0
Co6 Co 0.98637 0.08114 0.94276 0.0
Co7 Co 0.91595 1.01702 0.96968 0.0
H8 H 0.95693 0.08128 1.02583 0.0
O9 O 0.14802 0.0494 0.10759 0.0
O10 O 0.08777 0.04172 0.15772 0.0
O11 O 0.09544 0.12019 0.10771 0.0
O12 O 0.02428 0.09636 0.07893 0.0
O13 O 0.05572 0.05611 0.98943 0.0
O14 O 1.0036 0.1047 0.8892 0.0
O15 O 0.96718 0.1291 0.95303 0.0
O16 O 1.01161 0.03543 0.92421 0.0
O17 O 0.98214 0.97196 0.9918 0.0
O18 O 0.91379 0.95564 0.95777 0.0
O19 O 0.92625 0.03966 0.91181 0.0
O20 O 0.86577 0.03149 0.96186 0.0
C21 C 0.045 0.94648 0.16421 0.0
C22 C 0.95693 1.01962 0.12732 0.0
C23 C 0.0591 0.1272 0.10213 0.0
C24 C 0.1292 0.04213 0.14935 0.0
C25 C 0.9863 0.13409 0.91063 0.0
C26 C 0.04918 0.0409 0.94412 0.0
C27 C 0.94697 0.94438 0.96599 0.0
C28 C 0.88641 0.04296 0.92194 0.0
O29 O 0.02075 0.96962 0.18518 0.0
O30 O 0.0601 0.95173 0.12039 0.0
O31 O 0.95256 1.01203 0.08122 0.0
O32 O 0.99574 0.02928 0.14723 0.0
Cu33 Cu 0.06154 0.55988 0.53903 0.0
N34 N 0.08922 0.54021 0.58342 0.0
N35 N 0.09291 0.49932 0.63902 0.0
C36 C 0.06561 0.50649 0.60851 0.0
C37 C 0.13559 0.52991 0.63273 0.0
C38 C 0.13317 0.55523 0.59854 0.0
O39 O 0.02952 0.50667 0.49028 0.0
C40 C 0.04822 0.62288 0.60942 0.0
O41 O 0.09312 0.63487 0.60847 0.0
H42 H 0.029 0.4873 0.60388 0.0
H43 H 0.16132 0.58289 0.58608 0.0
N44 N 0.10274 0.60377 0.50514 0.0
N45 N 0.12508 0.65708 0.45705 0.0
C46 C 0.09131 0.63344 0.48514 0.0
C47 C 0.1453 0.60863 0.48921 0.0
C48 C 0.15922 0.64157 0.4596 0.0
C49 C 0.05258 0.48175 0.47471 0.0
O50 O 0.09384 0.49304 0.49279 0.0
H51 H 0.05774 0.6357 0.4891 0.0
H52 H 0.16409 0.58836 0.49687 0.0
O53 O 0.02396 0.58878 0.57864 0.0
H54 H 0.16627 0.5343 0.652 0.0
H55 H 0.19155 0.65246 0.44064 0.0
Cu56 Cu 0.4962 0.99547 0.54183 0.0
N57 N 0.45519 0.96359 0.58586 0.0
N58 N 0.39928 0.95006 0.64083 0.0
C59 C 0.42184 0.97646 0.60787 0.0
C60 C 0.41885 0.91884 0.63909 0.0
C61 C 0.45364 0.92749 0.60529 0.0
O62 O 0.46166 1.01825 0.5048 0.0
C63 C 0.55212 0.05578 0.62188 0.0
O64 O 0.51378 0.04558 0.64659 0.0
H65 H 0.41505 1.00546 0.60053 0.0
H66 H 0.47702 0.90969 0.59673 0.0
N67 N 0.5193 0.95846 0.49777 0.0
N68 N 0.56565 0.94212 0.44028 0.0
C69 C 0.5542 0.97535 0.46778 0.0
C70 C 0.50793 0.91278 0.48901 0.0
C71 C 0.53669 0.90259 0.45359 0.0
C72 C 0.42871 0.9867 0.47972 0.0
O73 O 0.42209 0.94382 0.48098 0.0
H74 H 0.57157 1.01162 0.46712 0.0
H75 H 0.48081 0.88862 0.50702 0.0
O76 O 0.55037 0.04177 0.57633 0.0
H77 H 0.40998 0.89293 0.662 0.0
H78 H 0.5361 0.86876 0.43865 0.0
H79 H 0.98237 0.1489 0.10837 0.0
H80 H 0.97018 0.21213 0.16237 0.0
H81 H 0.11096 0.26395 0.21196 0.0
H82 H 0.12368 0.20081 0.15804 0.0
H83 H 0.9806 0.22571 0.26383 0.0
H84 H 0.09202 0.37987 0.18909 0.0
H85 H 0.07361 0.3228 0.15387 0.0
H86 H 0.12058 0.3422 0.19643 0.0
C87 C 1.01115 0.17422 0.12992 0.0
C88 C 0.05408 0.16957 0.12885 0.0
C89 C 1.00399 0.21033 0.16088 0.0
C90 C 0.03969 0.24291 0.19093 0.0
C91 C 0.08311 0.23959 0.18849 0.0
H92 H 0.06874 0.40376 0.46492 0.0
H93 H 0.0551 0.34417 0.39347 0.0
C94 C 0.09028 0.20333 0.15772 0.0
C95 C 0.03048 0.27757 0.22826 0.0
H96 H 0.068 0.39244 0.27151 0.0
C97 C 0.99909 0.26221 0.26504 0.0
C98 C 0.05422 0.32517 0.22956 0.0
C99 C 0.08669 0.34362 0.18988 0.0
C100 C 0.99292 0.29308 0.30457 0.0
C101 C 0.01882 0.34045 0.3074 0.0
C102 C 0.04817 0.35605 0.26925 0.0
C103 C 0.02068 0.37349 0.35234 0.0
C104 C 0.95988 0.27477 0.3439 0.0
C105 C 1.00506 0.40939 0.35323 0.0
C106 C 1.01222 0.44335 0.39461 0.0
C107 C 0.03608 0.44222 0.43495 0.0
C108 C 0.05016 0.40537 0.43435 0.0
C109 C 0.04233 0.37126 0.3936 0.0
H110 H 0.9342 0.23996 0.33075 0.0
H111 H 0.97941 0.27255 0.37447 0.0
H112 H 0.94148 0.29796 0.3579 0.0
H113 H 0.98854 0.4118 0.32152 0.0
H114 H 1.00159 0.47175 0.39398 0.0
H115 H 0.95133 1.02183 0.22538 0.0
H116 H 0.883 1.00851 0.27572 0.0
H117 H 0.80149 0.99372 0.15069 0.0
H118 H 0.86962 1.00604 0.09964 0.0
H119 H 0.82546 0.05442 0.29556 0.0
H120 H 0.72931 0.87677 0.20319 0.0
H121 H 0.78956 0.90714 0.19282 0.0
H122 H 0.74657 0.91845 0.16349 0.0
C123 C 0.91894 1.01587 0.20846 0.0
C124 C 0.91595 1.01465 0.15831 0.0
C125 C 0.87986 1.00823 0.23737 0.0
C126 C 0.83692 0.99921 0.21686 0.0
C127 C 0.83402 0.99942 0.1671 0.0
H128 H 0.59862 1.00971 0.38626 0.0
H129 H 0.66368 1.02328 0.331 0.0
C130 C 0.87309 1.0068 0.13803 0.0
C131 C 0.79545 0.98983 0.24785 0.0
H132 H 0.68902 0.90943 0.26287 0.0
C133 C 0.79562 1.02272 0.28841 0.0
C134 C 0.7568 0.94814 0.23892 0.0
C135 C 0.75553 0.91037 0.19754 0.0
C136 C 0.75815 1.01526 0.32006 0.0
C137 C 0.71895 0.97417 0.31033 0.0
C138 C 0.7189 0.94109 0.27002 0.0
C139 C 0.67799 0.96463 0.34207 0.0
C140 C 0.76144 0.05104 0.3643 0.0
C141 C 0.66317 0.92609 0.36521 0.0
C142 C 0.62569 0.91806 0.39665 0.0
C143 C 0.60236 0.94847 0.40554 0.0
C144 C 0.61647 0.98622 0.38108 0.0
C145 C 0.6537 0.99406 0.3495 0.0
H146 H 0.79771 0.07384 0.37352 0.0
H147 H 0.74287 0.07268 0.35705 0.0
H148 H 0.74559 0.03489 0.3962 0.0
H149 H 0.68126 0.90276 0.35979 0.0
H150 H 0.61585 0.88883 0.41505 0.0
H151 H 0.09991 0.89678 0.1359 0.0
H152 H 0.11801 0.84693 0.18204 0.0
H153 H 0.03631 0.87988 0.30066 0.0
H154 H 0.01775 0.92898 0.25509 0.0
H155 H 0.16005 0.86702 0.2757 0.0
H156 H 0.98181 0.739 0.2719 0.0
H157 H 1.00092 0.78079 0.23182 0.0
H158 H 0.98575 0.79668 0.29332 0.0
C159 C 0.08558 0.89315 0.17168 0.0
C160 C 0.05674 0.91633 0.1914 0.0
C161 C 0.09611 0.86481 0.19806 0.0
C162 C 0.07773 0.85895 0.24441 0.0
C163 C 0.04999 0.883 0.26454 0.0
H164 H 0.07468 0.71069 0.47338 0.0
H165 H 0.06671 0.76043 0.42059 0.0
C166 C 0.03953 0.91123 0.23838 0.0
C167 C 0.0872 0.82786 0.27224 0.0
H168 H 0.03359 0.73506 0.32809 0.0
C169 C 0.13249 0.83808 0.28706 0.0
C170 C 0.05128 0.78972 0.28653 0.0
C171 C 1.00226 0.77553 0.26971 0.0
C172 C 0.14246 0.81271 0.31801 0.0
C173 C 0.10631 0.77511 0.33315 0.0
C174 C 0.06127 0.76407 0.31692 0.0
C175 C 0.11392 0.74699 0.36639 0.0
C176 C 0.19127 0.8276 0.33572 0.0
C177 C 0.1432 0.72282 0.35372 0.0
C178 C 0.14782 0.69423 0.38396 0.0
C179 C 0.12283 0.68881 0.42729 0.0
C180 C 0.09399 0.71354 0.44008 0.0
C181 C 0.08954 0.74219 0.40998 0.0
H182 H 0.21197 0.86368 0.33182 0.0
H183 H 0.19217 0.82424 0.37436 0.0
H184 H 0.20782 0.80547 0.31398 0.0
H185 H 0.16157 0.72505 0.3198 0.0
H186 H 0.16978 0.67524 0.37254 0.0
H187 H 0.20597 1.02141 0.13775 0.0
H188 H 0.25238 1.01436 0.20033 0.0
H189 H 0.16017 0.04259 0.30994 0.0
H190 H 0.11239 0.04797 0.24699 0.0
H191 H 0.29904 0.07846 0.27251 0.0
H192 H 0.17141 0.93298 0.34955 0.0
H193 H 0.16094 0.94839 0.2937 0.0
H194 H 0.15425 0.98064 0.35106 0.0
C195 C 0.19528 0.02574 0.17513 0.0
C196 C 0.15564 0.0355 0.18745 0.0
C197 C 0.2219 1.02175 0.21091 0.0
C198 C 0.20976 0.02771 0.25991 0.0
C199 C 0.16983 0.03695 0.27236 0.0
H200 H 0.41871 0.06881 0.48055 0.0
H201 H 0.3643 0.08273 0.43195 0.0
C202 C 0.1427 0.04032 0.23637 0.0
C203 C 0.2403 0.02599 0.29749 0.0
H204 H 0.24441 0.96871 0.38784 0.0
C205 C 0.28706 0.05456 0.29787 0.0
C206 C 0.22463 0.9948 0.33057 0.0
C207 C 0.17518 0.96214 0.33107 0.0
C208 C 0.31886 0.05191 0.32925 0.0
C209 C 0.30328 1.02062 0.36221 0.0
C210 C 0.25627 0.9929 0.36278 0.0
C211 C 0.33562 1.01302 0.3932 0.0
C212 C 0.3691 0.08114 0.32514 0.0
C213 C 0.33688 0.96914 0.38848 0.0
C214 C 0.36734 0.96107 0.41646 0.0
C215 C 0.3975 0.99674 0.44983 0.0
C216 C 0.39627 0.04077 0.45477 0.0
C217 C 0.36529 0.04876 0.42693 0.0
H218 H 0.37651 0.09501 0.29065 0.0
H219 H 0.37894 0.11059 0.35547 0.0
H220 H 0.39104 0.06127 0.32729 0.0
H221 H 0.31447 0.94104 0.3627 0.0
H222 H 0.36733 0.92671 0.41164 0.0
H223 H 0.02046 0.91742 0.95116 0.0
H224 H 0.02459 0.85168 0.89414 0.0
H225 H 0.88019 0.80668 0.86094 0.0
H226 H 0.87568 0.87246 0.91746 0.0
H227 H 0.97515 0.75451 0.88452 0.0
H228 H 0.94349 0.82611 0.7291 0.0
H229 H 0.95841 0.8597 0.78894 0.0
H230 H 0.90113 0.81823 0.77607 0.0
C231 C 0.98931 0.89307 0.93256 0.0
C232 C 0.9478 0.90049 0.93866 0.0
C233 C 0.99179 0.85557 0.89982 0.0
C234 C 0.95289 0.82485 0.87264 0.0
C235 C 0.91081 0.83051 0.88084 0.0
H236 H 0.95742 0.61458 0.62121 0.0
H237 H 0.92634 0.65752 0.68626 0.0
C238 C 0.90829 0.86804 0.9134 0.0
C239 C 0.95721 0.78858 0.83385 0.0
H240 H 0.95646 0.75737 0.71068 0.0
C241 C 0.97057 0.75482 0.84654 0.0
C242 C 0.951 0.78894 0.78429 0.0
C243 C 0.93804 0.82531 0.76849 0.0
C244 C 0.97908 0.72211 0.81093 0.0
C245 C 0.97475 0.72367 0.76139 0.0
C246 C 0.95945 0.75613 0.7487 0.0
C247 C 0.99198 0.69624 0.72261 0.0
C248 C 0.99362 0.68672 0.82657 0.0
C249 C 0.03904 0.70447 0.72115 0.0
C250 C 0.05674 0.6806 0.68424 0.0
C251 C 0.02782 0.64779 0.64767 0.0
C252 C 0.98052 0.63954 0.64891 0.0
C253 C 0.96276 0.66393 0.686 0.0
H254 H 0.98192 0.68106 0.86388 0.0
H255 H 0.97979 0.65352 0.80142 0.0
H256 H 0.03172 0.69888 0.82641 0.0
H257 H 0.06232 0.72992 0.74842 0.0
H258 H 0.09334 0.688 0.68458 0.0
H259 H 0.13865 0.06071 0.96915 0.0
H260 H 0.19741 0.04198 0.9187 0.0
H261 H 0.09752 0.97075 0.80355 0.0
H262 H 0.03901 0.9903 0.85312 0.0
H263 H 0.20428 0.96107 0.87608 0.0
H264 H 0.19867 0.06075 0.73542 0.0
H265 H 0.17102 0.06522 0.79324 0.0
H266 H 0.14382 1.01797 0.74553 0.0
C267 C 0.12921 0.04108 0.93307 0.0
C268 C 0.08435 0.02769 0.91485 0.0
C269 C 0.1628 0.03031 0.90432 0.0
C270 C 0.15214 1.00582 0.85694 0.0
C271 C 0.1069 0.99079 0.83946 0.0
H272 H 0.32769 0.88466 0.67643 0.0
H273 H 0.26713 0.89636 0.73001 0.0
C274 C 0.07344 1.00189 0.86794 0.0
C275 C 0.18849 0.99666 0.82554 0.0
H276 H 0.24247 1.01381 0.71742 0.0
C277 C 0.21274 0.97265 0.84142 0.0
C278 C 0.19997 1.01238 0.78063 0.0
C279 C 0.17736 0.04091 0.76284 0.0
C280 C 0.24789 0.96361 0.81344 0.0
C281 C 0.25833 0.97808 0.76781 0.0
C282 C 0.2342 1.0023 0.75215 0.0
C283 C 0.29536 0.97029 0.73639 0.0
C284 C 0.27426 0.93977 0.83366 0.0
C285 C 0.3308 1.0077 0.72122 0.0
C286 C 0.36484 1.00098 0.69013 0.0
C287 C 0.36437 0.95667 0.67355 0.0
C288 C 0.32916 0.91919 0.68906 0.0
C289 C 0.2947 0.9259 0.71984 0.0
H290 H 0.27097 0.94254 0.87367 0.0
H291 H 0.26032 0.90285 0.81765 0.0
H292 H 0.31132 0.95426 0.82469 0.0
H293 H 0.33215 0.04227 0.73349 0.0
H294 H 0.39186 0.03062 0.67945 0.0
H295 H 0.01458 0.14538 0.81874 0.0
H296 H 0.02566 0.21028 0.77904 0.0
H297 H 0.97488 0.27484 0.90535 0.0
H298 H 0.96422 0.20959 0.94619 0.0
H299 H 0.96485 0.24711 0.75584 0.0
H300 H 0.10076 0.37343 0.88371 0.0
H301 H 0.08169 0.31245 0.88229 0.0
H302 H 0.0468 0.34317 0.91024 0.0
C303 C 1.00561 0.17323 0.83833 0.0
C304 C 0.989 0.17246 0.88601 0.0
C305 C 1.01188 0.21035 0.81537 0.0
C306 C 1.00184 0.24781 0.83939 0.0
C307 C 0.98372 0.24668 0.88644 0.0
H308 H 1.00837 0.46147 0.6776 0.0
H309 H 0.98403 0.40226 0.72865 0.0
C310 C 0.97734 0.20926 0.90961 0.0
C311 C 1.01142 0.28788 0.81468 0.0
H312 H 0.08193 0.40014 0.818 0.0
C313 C 0.99008 0.28072 0.76967 0.0
C314 C 0.04488 0.33154 0.83242 0.0
C315 C 0.07023 0.34081 0.87962 0.0
C316 C 1.00183 0.31565 0.74154 0.0
C317 C 0.03531 0.35931 0.75924 0.0
C318 C 0.05613 0.36674 0.80461 0.0
C319 C 0.05055 0.39698 0.73017 0.0
C320 C 0.97964 0.30492 0.69219 0.0
C321 C 0.09644 0.41481 0.71517 0.0
C322 C 0.11054 0.44877 0.68587 0.0
C323 C 0.07903 0.46572 0.67102 0.0
C324 C 0.03336 0.44858 0.68729 0.0
C325 C 0.01935 0.41472 0.71663 0.0
H326 H 0.96305 0.26742 0.67939 0.0
H327 H 0.95274 0.31974 0.69414 0.0
H328 H 1.00534 0.32014 0.665 0.0
H329 H 0.12116 0.40171 0.72527 0.0
H330 H 0.14583 0.46088 0.67389 0.0
H331 H 0.91125 0.05713 0.82861 0.0
H332 H 0.86877 0.07626 0.7705 0.0
H333 H 0.76682 0.08079 0.87892 0.0
H334 H 0.80865 0.06186 0.93682 0.0
H335 H 0.77626 1.02175 0.74105 0.0
H336 H 0.7936 0.19829 0.82209 0.0
H337 H 0.83219 0.17241 0.83691 0.0
H338 H 0.77687 0.15978 0.86523 0.0
C339 C 0.88005 0.0627 0.84019 0.0
C340 C 0.86314 0.05756 0.88726 0.0
C341 C 0.85591 0.07372 0.80699 0.0
C342 C 0.81496 0.08054 0.8206 0.0
C343 C 0.79879 0.07659 0.8679 0.0
H344 H 0.56767 0.07857 0.71979 0.0
H345 H 0.63823 0.0919 0.76273 0.0
C346 C 0.82259 0.06529 0.90085 0.0
C347 C 0.7863 0.0873 0.78468 0.0
H348 H 0.72921 0.15564 0.76754 0.0
C349 C 0.76672 0.05147 0.74604 0.0
C350 C 0.77389 0.12607 0.79144 0.0
C351 C 0.79558 0.16655 0.8309 0.0
C352 C 0.73268 0.05189 0.71597 0.0
C353 C 0.71858 0.08972 0.72418 0.0
C354 C 0.73994 0.12665 0.76132 0.0
C355 C 0.67858 0.08918 0.69789 0.0
C356 C 0.71005 1.01049 0.6777 0.0
C357 C 0.67837 0.08537 0.64724 0.0
C358 C 0.63789 0.07752 0.62244 0.0
C359 C 0.59697 0.07362 0.64794 0.0
C360 C 0.59838 0.08107 0.69891 0.0
C361 C 0.63877 0.08873 0.7236 0.0
H362 H 0.71864 0.98081 0.68239 0.0
H363 H 0.67207 1.0 0.67852 0.0
H364 H 0.72197 1.01912 0.64139 0.0
H365 H 0.709 0.08665 0.62674 0.0
H366 H 0.63818 0.07232 0.58319 0.0
loop_
_geom_bond_atom_site_label_1
_geom_bond_atom_site_label_2
_geom_bond_distance
_geom_bond_site_symmetry_2
_ccdc_geom_bond_type
Co0 O3 2.042 . S
Co0 O10 2.264 1_565 S
Co0 O29 2.286 1_455 S
Co0 O30 2.069 . S
Co0 O32 2.015 1_455 S
Co1 O3 2.122 1_545 S
Co1 O9 2.073 . S
Co1 O10 2.327 . S
Co1 O11 1.976 . S
Co2 O3 2.087 1_545 S
Co2 O5 2.087 1_454 S
Co2 O12 2.111 . S
Co2 O13 2.143 1_554 S
Co2 O17 2.111 1_444 S
Co2 O31 2.143 1_445 S
O3 Co0 2.042 . S
O3 Co1 2.122 1_565 S
O3 Co2 2.087 1_565 S
O3 H4 0.980 . S
H4 O3 0.980 . S
O5 Co2 2.087 1_656 S
O5 Co6 2.037 1_655 S
O5 Co7 2.122 1_545 S
O5 H8 0.980 . S
Co6 O5 2.037 1_455 S
Co6 O14 2.287 . S
Co6 O15 2.055 1_455 S
Co6 O16 2.033 . S
Co6 O19 2.251 1_455 S
Co7 O5 2.122 1_565 S
Co7 O18 1.976 . S
Co7 O19 2.327 1_565 S
Co7 O20 2.073 . S
H8 O5 0.980 . S
O9 Co1 2.073 . S
O9 C24 1.245 . S
O10 Co0 2.264 1_545 S
O10 Co1 2.327 . S
O10 C24 1.257 . S
O11 Co1 1.976 . S
O11 C23 1.251 . S
O12 Co2 2.111 . S
O12 C23 1.274 . S
O13 Co2 2.143 1_556 S
O13 C26 1.246 . S
O14 Co6 2.287 . S
O14 C25 1.259 1_455 S
O15 Co6 2.055 1_655 S
O15 C25 1.289 . S
O16 Co6 2.033 . S
O16 C26 1.257 . S
O17 Co2 2.111 1_666 S
O17 C27 1.274 . S
O18 Co7 1.976 . S
O18 C27 1.251 . S
O19 Co6 2.251 1_655 S
O19 Co7 2.327 1_545 S
O19 C28 1.257 . S
O20 Co7 2.073 . S
O20 C28 1.245 1_565 S
C21 O29 1.259 1_455 S
C21 O30 1.289 . S
C22 O31 1.246 . S
C22 O32 1.257 . S
C23 O11 1.251 . S
C23 O12 1.274 . S
C24 O9 1.245 . S
C24 O10 1.257 . S
C25 O14 1.259 1_655 S
C25 O15 1.289 . S
C26 O13 1.246 . S
C26 O16 1.257 . S
C27 O17 1.274 . S
C27 O18 1.251 . S
C28 O19 1.257 . S
C28 O20 1.245 1_545 S
O29 Co0 2.286 1_655 S
O29 C21 1.259 1_655 S
O30 Co0 2.069 . S
O30 C21 1.289 . S
O31 Co2 2.143 1_665 S
O31 C22 1.246 . S
O32 Co0 2.015 1_655 S
O32 C22 1.257 . S
Cu33 N34 1.999 . S
Cu33 O39 1.974 . S
Cu33 N44 1.985 . S
Cu33 O53 1.959 . S
N34 Cu33 1.999 . S
N34 C36 1.263 . S
N34 C38 1.389 . S
N35 C36 1.358 . S
N35 C37 1.400 . S
C36 N34 1.263 . S
C36 N35 1.358 . S
C36 H42 0.930 1_655 S
C37 N35 1.400 . S
C37 C38 1.351 . S
C37 H54 0.930 . S
C38 N34 1.389 . S
C38 C37 1.351 . S
C38 H43 0.930 . S
O39 Cu33 1.974 . S
O39 C49 1.282 1_655 S
C40 O41 1.261 . S
C40 O53 1.251 1_455 S
O41 C40 1.261 . S
H42 C36 0.930 1_455 S
H43 C38 0.930 . S
N44 Cu33 1.985 . S
N44 C46 1.335 . S
N44 C47 1.390 1_655 S
N45 C46 1.345 . S
N45 C48 1.336 1_655 S
C46 N44 1.335 . S
C46 N45 1.345 . S
C46 H51 0.930 . S
C47 N44 1.390 1_455 S
C47 C48 1.346 . S
C47 H52 0.930 . S
C48 N45 1.336 1_455 S
C48 C47 1.346 . S
C48 H55 0.929 . S
C49 O39 1.282 1_455 S
C49 O50 1.216 . S
O50 C49 1.216 . S
H51 C46 0.930 . S
H52 C47 0.930 . S
O53 Cu33 1.959 . S
O53 C40 1.251 1_655 S
H54 C37 0.930 . S
H55 C48 0.929 . S
Cu56 N57 1.999 . S
Cu56 O62 1.974 . S
Cu56 N67 1.985 . S
Cu56 O76 1.959 . S
N57 Cu56 1.999 . S
N57 C59 1.263 . S
N57 C61 1.389 . S
N58 C59 1.358 . S
N58 C60 1.400 . S
C59 N57 1.263 . S
C59 N58 1.358 . S
C59 H65 0.930 1_545 S
C60 N58 1.400 . S
C60 C61 1.351 . S
C60 H77 0.930 . S
C61 N57 1.389 . S
C61 C60 1.351 . S
C61 H66 0.930 . S
O62 Cu56 1.974 . S
O62 C72 1.282 1_545 S
C63 O64 1.261 . S
C63 O76 1.251 1_565 S
O64 C63 1.261 . S
H65 C59 0.930 1_565 S
H66 C61 0.930 . S
N67 Cu56 1.985 . S
N67 C69 1.335 . S
N67 C70 1.391 . S
N68 C69 1.345 . S
N68 C71 1.337 1_545 S
C69 N67 1.335 . S
C69 N68 1.345 . S
C69 H74 0.930 . S
C70 N67 1.391 . S
C70 C71 1.339 1_545 S
C70 H75 0.934 1_545 S
C71 N68 1.337 1_565 S
C71 C70 1.339 1_565 S
C71 H78 0.931 . S
C72 O62 1.282 1_565 S
C72 O73 1.216 . S
O73 C72 1.216 . S
H74 C69 0.930 . S
H75 C70 0.934 1_565 S
O76 Cu56 1.959 . S
O76 C63 1.251 1_545 S
H77 C60 0.930 . S
H78 C71 0.931 . S
H79 C87 0.929 . S
H80 C89 0.930 . S
H81 C91 0.930 . S
H82 C94 0.929 . S
H83 C97 0.930 . S
H84 C99 0.960 . S
H85 C99 0.960 . S
H86 C99 0.960 . S
C87 H79 0.929 . S
C87 C88 1.377 . S
C87 C89 1.384 . S
C88 C87 1.377 . S
C88 C94 1.390 . S
C89 H80 0.930 . S
C89 C87 1.384 . S
C89 C90 1.372 . S
C90 C89 1.372 . S
C90 C91 1.400 . S
C90 C95 1.490 . S
C91 H81 0.930 . S
C91 C90 1.400 . S
C91 C94 1.386 . S
H92 C108 0.930 . S
H93 C109 0.931 1_655 S
C94 H82 0.929 . S
C94 C88 1.390 . S
C94 C91 1.386 . S
C95 C90 1.490 . S
C95 C97 1.395 1_455 S
C95 C98 1.403 . S
H96 C102 0.930 . S
C97 H83 0.930 . S
C97 C95 1.395 1_655 S
C97 C100 1.403 . S
C98 C95 1.403 . S
C98 C99 1.524 . S
C98 C102 1.400 . S
C99 H84 0.960 . S
C99 H85 0.960 . S
C99 H86 0.960 . S
C99 C98 1.524 . S
C100 C97 1.403 . S
C100 C101 1.392 1_655 S
C100 C104 1.495 . S
C101 C100 1.392 1_455 S
C101 C102 1.385 . S
C101 C103 1.478 . S
C102 H96 0.930 . S
C102 C98 1.400 . S
C102 C101 1.385 . S
C103 C101 1.478 . S
C103 C105 1.381 . S
C103 C109 1.383 . S
C104 C100 1.495 . S
C104 H110 0.959 . S
C104 H111 0.961 . S
C104 H112 0.960 . S
C105 C103 1.381 . S
C105 C106 1.394 . S
C105 H113 0.930 . S
C106 C105 1.394 . S
C106 C107 1.383 . S
C106 H114 0.929 . S
C107 C106 1.383 . S
C107 C108 1.377 . S
C108 H92 0.930 . S
C108 C107 1.377 . S
C108 C109 1.379 . S
C109 H93 0.931 1_455 S
C109 C103 1.383 . S
C109 C108 1.379 . S
H110 C104 0.959 . S
H111 C104 0.961 . S
H112 C104 0.960 . S
H113 C105 0.930 . S
H114 C106 0.929 . S
H115 C123 0.929 . S
H116 C125 0.930 . S
H117 C127 0.930 . S
H118 C130 0.929 . S
H119 C133 0.930 . S
H120 C135 0.960 . S
H121 C135 0.960 . S
H122 C135 0.960 1_545 S
C123 H115 0.929 . S
C123 C124 1.377 1_565 S
C123 C125 1.384 . S
C124 C123 1.377 1_545 S
C124 C130 1.390 . S
C125 H116 0.930 . S
C125 C123 1.384 . S
C125 C126 1.372 1_565 S
C126 C125 1.372 1_545 S
C126 C127 1.400 . S
C126 C131 1.490 . S
C127 H117 0.930 . S
C127 C126 1.400 . S
C127 C130 1.386 . S
H128 C144 0.930 . S
H129 C145 0.931 . S
C130 H118 0.929 . S
C130 C124 1.390 . S
C130 C127 1.386 . S
C131 C126 1.490 . S
C131 C133 1.395 . S
C131 C134 1.402 . S
H132 C138 0.927 . S
C133 H119 0.930 . S
C133 C131 1.395 . S
C133 C136 1.403 . S
C134 C131 1.402 . S
C134 C135 1.524 1_545 S
C134 C138 1.400 . S
C135 H120 0.960 . S
C135 H121 0.960 . S
C135 H122 0.960 1_565 S
C135 C134 1.524 1_565 S
C136 C133 1.403 . S
C136 C137 1.392 . S
C136 C140 1.495 . S
C137 C136 1.392 . S
C137 C138 1.385 . S
C137 C139 1.478 . S
C138 H132 0.927 . S
C138 C134 1.400 . S
C138 C137 1.385 . S
C139 C137 1.478 . S
C139 C141 1.381 1_545 S
C139 C145 1.383 . S
C140 C136 1.495 . S
C140 H146 0.959 . S
C140 H147 0.961 . S
C140 H148 0.960 . S
C141 C139 1.381 1_565 S
C141 C142 1.394 . S
C141 H149 0.930 . S
C142 C141 1.394 . S
C142 C143 1.383 1_565 S
C142 H150 0.929 . S
C143 C142 1.383 1_545 S
C143 C144 1.377 . S
C144 H128 0.930 . S
C144 C143 1.377 . S
C144 C145 1.379 . S
C145 H129 0.931 . S
C145 C139 1.383 . S
C145 C144 1.379 . S
H146 C140 0.959 . S
H147 C140 0.961 . S
H148 C140 0.960 . S
H149 C141 0.930 . S
H150 C142 0.929 . S
H151 C159 0.929 . S
H152 C161 0.930 . S
H153 C163 0.930 . S
H154 C166 0.929 . S
H155 C169 0.930 . S
H156 C171 0.960 . S
H157 C171 0.960 . S
H158 C171 0.960 . S
C159 H151 0.929 . S
C159 C160 1.377 . S
C159 C161 1.384 . S
C160 C159 1.377 . S
C160 C166 1.390 1_455 S
C161 H152 0.930 . S
C161 C159 1.384 . S
C161 C162 1.372 . S
C162 C161 1.372 . S
C162 C163 1.400 1_455 S
C162 C167 1.490 . S
C163 H153 0.930 . S
C163 C162 1.400 1_655 S
C163 C166 1.386 . S
H164 C180 0.930 . S
H165 C181 0.931 . S
C166 H154 0.929 . S
C166 C160 1.390 1_655 S
C166 C163 1.386 . S
C167 C162 1.490 . S
C167 C169 1.395 . S
C167 C170 1.403 1_455 S
H168 C174 0.930 . S
C169 H155 0.930 . S
C169 C167 1.395 . S
C169 C172 1.403 . S
C170 C167 1.403 1_655 S
C170 C171 1.524 . S
C170 C174 1.400 . S
C171 H156 0.960 . S
C171 H157 0.960 . S
C171 H158 0.960 . S
C171 C170 1.524 . S
C172 C169 1.403 . S
C172 C173 1.392 . S
C172 C176 1.495 . S
C173 C172 1.392 . S
C173 C174 1.385 1_455 S
C173 C175 1.478 . S
C174 H168 0.930 . S
C174 C170 1.400 . S
C174 C173 1.385 1_655 S
C175 C173 1.478 . S
C175 C177 1.381 . S
C175 C181 1.383 1_455 S
C176 C172 1.495 . S
C176 H182 0.959 . S
C176 H183 0.961 . S
C176 H184 0.960 . S
C177 C175 1.381 . S
C177 C178 1.394 . S
C177 H185 0.930 . S
C178 C177 1.394 . S
C178 C179 1.383 1_455 S
C178 H186 0.929 . S
C179 C178 1.383 1_655 S
C179 C180 1.377 . S
C180 H164 0.930 . S
C180 C179 1.377 . S
C180 C181 1.379 . S
C181 H165 0.931 . S
C181 C175 1.383 1_655 S
C181 C180 1.379 . S
H182 C176 0.959 . S
H183 C176 0.961 . S
H184 C176 0.960 . S
H185 C177 0.930 . S
H186 C178 0.929 . S
H187 C195 0.929 . S
H188 C197 0.930 . S
H189 C199 0.930 . S
H190 C202 0.929 . S
H191 C205 0.930 . S
H192 C207 0.960 . S
H193 C207 0.960 . S
H194 C207 0.960 1_545 S
C195 H187 0.929 . S
C195 C196 1.377 . S
C195 C197 1.384 . S
C196 C195 1.377 . S
C196 C202 1.390 1_565 S
C197 H188 0.930 . S
C197 C195 1.384 . S
C197 C198 1.372 . S
C198 C197 1.372 . S
C198 C199 1.400 1_565 S
C198 C203 1.490 . S
C199 H189 0.930 . S
C199 C198 1.400 1_545 S
C199 C202 1.386 . S
H200 C216 0.930 . S
H201 C217 0.931 . S
C202 H190 0.929 . S
C202 C196 1.390 1_545 S
C202 C199 1.386 . S
C203 C198 1.490 . S
C203 C205 1.395 . S
C203 C206 1.403 . S
H204 C210 0.930 . S
C205 H191 0.930 . S
C205 C203 1.395 . S
C205 C208 1.403 . S
C206 C203 1.403 . S
C206 C207 1.524 . S
C206 C210 1.400 . S
C207 H192 0.960 . S
C207 H193 0.960 . S
C207 H194 0.960 1_565 S
C207 C206 1.524 . S
C208 C205 1.403 . S
C208 C209 1.392 . S
C208 C212 1.495 . S
C209 C208 1.392 . S
C209 C210 1.385 . S
C209 C211 1.478 . S
C210 H204 0.930 . S
C210 C206 1.400 . S
C210 C209 1.385 . S
C211 C209 1.478 . S
C211 C213 1.381 . S
C211 C217 1.383 1_565 S
C212 C208 1.495 . S
C212 H218 0.959 . S
C212 H219 0.961 1_565 S
C212 H220 0.960 . S
C213 C211 1.381 . S
C213 C214 1.394 . S
C213 H221 0.930 . S
C214 C213 1.394 . S
C214 C215 1.383 . S
C214 H222 0.929 . S
C215 C214 1.383 . S
C215 C216 1.377 1_565 S
C216 H200 0.930 . S
C216 C215 1.377 1_545 S
C216 C217 1.379 . S
C217 H201 0.931 . S
C217 C211 1.383 1_545 S
C217 C216 1.379 . S
H218 C212 0.959 . S
H219 C212 0.961 1_545 S
H220 C212 0.960 . S
H221 C213 0.930 . S
H222 C214 0.929 . S
H223 C231 0.929 . S
H224 C233 0.930 . S
H225 C235 0.930 . S
H226 C238 0.929 . S
H227 C241 0.930 . S
H228 C243 0.960 . S
H229 C243 0.960 . S
H230 C243 0.960 . S
C231 H223 0.929 . S
C231 C232 1.377 . S
C231 C233 1.384 . S
C232 C231 1.377 . S
C232 C238 1.390 1_455 S
C233 H224 0.930 . S
C233 C231 1.384 . S
C233 C234 1.372 . S
C234 C233 1.372 . S
C234 C235 1.400 1_455 S
C234 C239 1.490 . S
C235 H225 0.930 . S
C235 C234 1.400 1_655 S
C235 C238 1.386 . S
H236 C252 0.930 . S
H237 C253 0.931 . S
C238 H226 0.929 . S
C238 C232 1.390 1_655 S
C238 C235 1.386 . S
C239 C234 1.490 . S
C239 C241 1.395 . S
C239 C242 1.403 1_455 S
H240 C246 0.930 . S
C241 H227 0.930 . S
C241 C239 1.395 . S
C241 C244 1.403 . S
C242 C239 1.403 1_655 S
C242 C243 1.524 . S
C242 C246 1.400 . S
C243 H228 0.960 . S
C243 H229 0.960 . S
C243 H230 0.960 . S
C243 C242 1.524 . S
C244 C241 1.403 . S
C244 C245 1.392 . S
C244 C248 1.495 . S
C245 C244 1.392 . S
C245 C246 1.385 1_455 S
C245 C247 1.478 . S
C246 H240 0.930 . S
C246 C242 1.400 . S
C246 C245 1.385 1_655 S
C247 C245 1.478 . S
C247 C249 1.381 . S
C247 C253 1.383 1_455 S
C248 C244 1.495 . S
C248 H254 0.959 . S
C248 H255 0.961 . S
C248 H256 0.960 . S
C249 C247 1.381 . S
C249 C250 1.394 . S
C249 H257 0.930 . S
C250 C249 1.394 . S
C250 C251 1.383 . S
C250 H258 0.929 . S
C251 C250 1.383 . S
C251 C252 1.377 1_455 S
C252 H236 0.930 . S
C252 C251 1.377 1_655 S
C252 C253 1.379 . S
C253 H237 0.931 . S
C253 C247 1.383 1_655 S
C253 C252 1.379 . S
H254 C248 0.959 . S
H255 C248 0.961 . S
H256 C248 0.960 . S
H257 C249 0.930 . S
H258 C250 0.929 . S
H259 C267 0.929 . S
H260 C269 0.930 . S
H261 C271 0.930 . S
H262 C274 0.929 . S
H263 C277 0.930 . S
H264 C279 0.960 . S
H265 C279 0.960 . S
H266 C279 0.960 . S
C267 H259 0.929 . S
C267 C268 1.377 . S
C267 C269 1.384 . S
C268 C267 1.377 . S
C268 C274 1.390 1_545 S
C269 H260 0.930 . S
C269 C267 1.384 . S
C269 C270 1.372 . S
C270 C269 1.372 . S
C270 C271 1.400 1_545 S
C270 C275 1.490 . S
C271 H261 0.930 . S
C271 C270 1.400 1_565 S
C271 C274 1.386 . S
H272 C288 0.930 . S
H273 C289 0.931 . S
C274 H262 0.929 . S
C274 C268 1.390 1_565 S
C274 C271 1.386 . S
C275 C270 1.490 . S
C275 C277 1.395 . S
C275 C278 1.403 . S
H276 C282 0.930 . S
C277 H263 0.930 . S
C277 C275 1.395 . S
C277 C280 1.403 . S
C278 C275 1.403 . S
C278 C279 1.524 . S
C278 C282 1.400 . S
C279 H264 0.960 . S
C279 H265 0.960 . S
C279 H266 0.960 . S
C279 C278 1.524 . S
C280 C277 1.403 . S
C280 C281 1.392 . S
C280 C284 1.495 . S
C281 C280 1.392 . S
C281 C282 1.385 . S
C281 C283 1.478 . S
C282 H276 0.930 . S
C282 C278 1.400 . S
C282 C281 1.385 . S
C283 C281 1.478 . S
C283 C285 1.381 . S
C283 C289 1.383 1_545 S
C284 C280 1.495 . S
C284 H290 0.959 . S
C284 H291 0.961 1_545 S
C284 H292 0.960 . S
C285 C283 1.381 . S
C285 C286 1.394 . S
C285 H293 0.930 . S
C286 C285 1.394 . S
C286 C287 1.383 . S
C286 H294 0.929 . S
C287 C286 1.383 . S
C287 C288 1.377 1_545 S
C288 H272 0.930 . S
C288 C287 1.377 1_565 S
C288 C289 1.379 . S
C289 H273 0.931 . S
C289 C283 1.383 1_565 S
C289 C288 1.379 . S
H290 C284 0.959 . S
H291 C284 0.961 1_565 S
H292 C284 0.960 . S
H293 C285 0.930 . S
H294 C286 0.929 . S
H295 C303 0.929 . S
H296 C305 0.930 . S
H297 C307 0.930 . S
H298 C310 0.929 . S
H299 C313 0.930 . S
H300 C315 0.960 . S
H301 C315 0.960 1_455 S
H302 C315 0.960 . S
C303 H295 0.929 . S
C303 C304 1.377 1_455 S
C303 C305 1.384 . S
C304 C303 1.377 1_655 S
C304 C310 1.390 . S
C305 H296 0.930 . S
C305 C303 1.384 . S
C305 C306 1.372 1_455 S
C306 C305 1.372 1_655 S
C306 C307 1.400 . S
C306 C311 1.490 . S
C307 H297 0.930 . S
C307 C306 1.400 . S
C307 C310 1.386 . S
H308 C324 0.930 . S
H309 C325 0.931 . S
C310 H298 0.929 . S
C310 C304 1.390 . S
C310 C307 1.386 . S
C311 C306 1.490 . S
C311 C313 1.395 . S
C311 C314 1.403 . S
H312 C318 0.930 . S
C313 H299 0.930 . S
C313 C311 1.395 . S
C313 C316 1.403 . S
C314 C311 1.403 . S
C314 C315 1.524 . S
C314 C318 1.400 . S
C315 H300 0.960 . S
C315 H301 0.960 1_655 S
C315 H302 0.960 . S
C315 C314 1.524 . S
C316 C313 1.403 . S
C316 C317 1.392 . S
C316 C320 1.495 . S
C317 C316 1.392 . S
C317 C318 1.385 . S
C317 C319 1.478 . S
C318 H312 0.930 . S
C318 C314 1.400 . S
C318 C317 1.385 . S
C319 C317 1.478 . S
C319 C321 1.381 1_655 S
C319 C325 1.383 . S
C320 C316 1.495 . S
C320 H326 0.959 . S
C320 H327 0.961 . S
C320 H328 0.960 1_655 S
C321 C319 1.381 1_455 S
C321 C322 1.394 . S
C321 H329 0.930 . S
C322 C321 1.394 . S
C322 C323 1.383 1_455 S
C322 H330 0.929 . S
C323 C322 1.383 1_655 S
C323 C324 1.377 . S
C324 H308 0.930 . S
C324 C323 1.377 . S
C324 C325 1.379 . S
C325 H309 0.931 . S
C325 C319 1.383 . S
C325 C324 1.379 . S
H326 C320 0.959 . S
H327 C320 0.961 . S
H328 C320 0.960 1_455 S
H329 C321 0.930 . S
H330 C322 0.929 . S
H331 C339 0.914 1_565 S
H332 C341 0.930 . S
H333 C343 0.930 . S
H334 C346 0.929 . S
H335 C349 0.930 . S
H336 C351 0.960 . S
H337 C351 0.960 . S
H338 C351 0.960 . S
C339 H331 0.914 1_545 S
C339 C340 1.384 . S
C339 C341 1.393 1_545 S
C340 C339 1.384 . S
C340 C346 1.390 . S
C341 H332 0.930 . S
C341 C339 1.393 1_565 S
C341 C342 1.372 1_565 S
C342 C341 1.372 1_545 S
C342 C343 1.400 . S
C342 C347 1.490 . S
C343 H333 0.930 . S
C343 C342 1.400 . S
C343 C346 1.386 . S
H344 C360 0.930 . S
H345 C361 0.931 . S
C346 H334 0.929 . S
C346 C340 1.390 . S
C346 C343 1.386 . S
C347 C342 1.490 . S
C347 C349 1.395 1_545 S
C347 C350 1.403 . S
H348 C354 0.930 . S
C349 H335 0.930 . S
C349 C347 1.395 1_565 S
C349 C352 1.403 . S
C350 C347 1.403 . S
C350 C351 1.524 . S
C350 C354 1.400 . S
C351 H336 0.960 . S
C351 H337 0.960 . S
C351 H338 0.960 . S
C351 C350 1.524 . S
C352 C349 1.403 . S
C352 C353 1.392 . S
C352 C356 1.495 . S
C353 C352 1.392 . S
C353 C354 1.385 1_565 S
C353 C355 1.478 . S
C354 H348 0.930 . S
C354 C350 1.400 . S
C354 C353 1.385 1_545 S
C355 C353 1.478 . S
C355 C357 1.381 . S
C355 C361 1.383 1_565 S
C356 C352 1.495 . S
C356 H362 0.959 . S
C356 H363 0.961 . S
C356 H364 0.960 . S
C357 C355 1.381 . S
C357 C358 1.394 . S
C357 H365 0.930 . S
C358 C357 1.394 . S
C358 C359 1.383 . S
C358 H366 0.929 . S
C359 C358 1.383 . S
C359 C360 1.377 1_565 S
C360 H344 0.930 . S
C360 C359 1.377 1_545 S
C360 C361 1.379 . S
C361 H345 0.931 . S
C361 C355 1.383 1_545 S
C361 C360 1.379 . S
H362 C356 0.959 . S
H363 C356 0.961 . S
H364 C356 0.960 . S
H365 C357 0.930 . S
H366 C358 0.929 . S
C88 C23 1.332 . S
C107 C49 1.409 . S
C124 C22 1.377 1_545 S
C143 N68 1.400 . S
C160 C21 1.773 . S
C179 N45 1.731 . S
C196 C24 1.578 1_565 S
C215 C72 1.608 . S
C232 C27 1.397 1_455 S
C251 C40 1.456 . S
C268 C26 1.395 . S
C287 N58 1.386 . S
C323 N35 1.773 . S
C304 C25 1.798 . S
C340 C28 1.616 . S
C359 C63 1.681 . S
