# Generated by pormake.
# Topology wbl, (4,4)-cn, num edge types: 1
# Building blocks:
#     Node 0, Type 0, BuildingBlock: MUDLON_clean_sbu_0, # of connection points: 4
#     Node 1, Type 0, BuildingBlock: MUDLON_clean_sbu_0, # of connection points: 4
#     Node 2, Type 0, BuildingBlock: MUDLON_clean_sbu_0, # of connection points: 4
#     Node 3, Type 0, BuildingBlock: MUDLON_clean_sbu_0, # of connection points: 4
#     Node 4, Type 0, BuildingBlock: MUDLON_clean_sbu_0, # of connection points: 4
#     Node 5, Type 0, BuildingBlock: MUDLON_clean_sbu_0, # of connection points: 4
#     Node 6, Type 0, BuildingBlock: MUDLON_clean_sbu_0, # of connection points: 4
#     Node 7, Type 0, BuildingBlock: MUDLON_clean_sbu_0, # of connection points: 4
#     Node 8, Type 1, BuildingBlock: KUFVIS_clean_sbu_0, # of connection points: 4
#     Node 9, Type 1, BuildingBlock: KUFVIS_clean_sbu_0, # of connection points: 4
#     Node 10, Type 1, BuildingBlock: KUFVIS_clean_sbu_0, # of connection points: 4
#     Node 11, Type 1, BuildingBlock: KUFVIS_clean_sbu_0, # of connection points: 4
#     Node 12, Type 1, BuildingBlock: KUFVIS_clean_sbu_0, # of connection points: 4
#     Node 13, Type 1, BuildingBlock: KUFVIS_clean_sbu_0, # of connection points: 4
#     Node 14, Type 1, BuildingBlock: KUFVIS_clean_sbu_0, # of connection points: 4
#     Node 15, Type 1, BuildingBlock: KUFVIS_clean_sbu_0, # of connection points: 4
#     Edge 16, Type (0, 1), BuildingBlock: OJICUG_clean_linker_0, # of connection points: 2
#     Edge 17, Type (0, 1), BuildingBlock: OJICUG_clean_linker_0, # of connection points: 2
#     Edge 18, Type (0, 1), BuildingBlock: OJICUG_clean_linker_0, # of connection points: 2
#     Edge 19, Type (0, 1), BuildingBlock: OJICUG_clean_linker_0, # of connection points: 2
#     Edge 20, Type (0, 1), BuildingBlock: OJICUG_clean_linker_0, # of connection points: 2
#     Edge 21, Type (0, 1), BuildingBlock: OJICUG_clean_linker_0, # of connection points: 2
#     Edge 22, Type (0, 1), BuildingBlock: OJICUG_clean_linker_0, # of connection points: 2
#     Edge 23, Type (0, 1), BuildingBlock: OJICUG_clean_linker_0, # of connection points: 2
#     Edge 24, Type (0, 1), BuildingBlock: OJICUG_clean_linker_0, # of connection points: 2
#     Edge 25, Type (0, 1), BuildingBlock: OJICUG_clean_linker_0, # of connection points: 2
#     Edge 26, Type (0, 1), BuildingBlock: OJICUG_clean_linker_0, # of connection points: 2
#     Edge 27, Type (0, 1), BuildingBlock: OJICUG_clean_linker_0, # of connection points: 2
#     Edge 28, Type (0, 1), BuildingBlock: OJICUG_clean_linker_0, # of connection points: 2
#     Edge 29, Type (0, 1), BuildingBlock: OJICUG_clean_linker_0, # of connection points: 2
#     Edge 30, Type (0, 1), BuildingBlock: OJICUG_clean_linker_0, # of connection points: 2
#     Edge 31, Type (0, 1), BuildingBlock: OJICUG_clean_linker_0, # of connection points: 2
#     Edge 32, Type (0, 1), BuildingBlock: OJICUG_clean_linker_0, # of connection points: 2
#     Edge 33, Type (0, 1), BuildingBlock: OJICUG_clean_linker_0, # of connection points: 2
#     Edge 34, Type (0, 1), BuildingBlock: OJICUG_clean_linker_0, # of connection points: 2
#     Edge 35, Type (0, 1), BuildingBlock: OJICUG_clean_linker_0, # of connection points: 2
#     Edge 36, Type (0, 1), BuildingBlock: OJICUG_clean_linker_0, # of connection points: 2
#     Edge 37, Type (0, 1), BuildingBlock: OJICUG_clean_linker_0, # of connection points: 2
#     Edge 38, Type (0, 1), BuildingBlock: OJICUG_clean_linker_0, # of connection points: 2
#     Edge 39, Type (0, 1), BuildingBlock: OJICUG_clean_linker_0, # of connection points: 2
#     Edge 40, Type (0, 1), BuildingBlock: OJICUG_clean_linker_0, # of connection points: 2
#     Edge 41, Type (0, 1), BuildingBlock: OJICUG_clean_linker_0, # of connection points: 2
#     Edge 42, Type (0, 1), BuildingBlock: OJICUG_clean_linker_0, # of connection points: 2
#     Edge 43, Type (0, 1), BuildingBlock: OJICUG_clean_linker_0, # of connection points: 2
#     Edge 44, Type (0, 1), BuildingBlock: OJICUG_clean_linker_0, # of connection points: 2
#     Edge 45, Type (0, 1), BuildingBlock: OJICUG_clean_linker_0, # of connection points: 2
#     Edge 46, Type (0, 1), BuildingBlock: OJICUG_clean_linker_0, # of connection points: 2
#     Edge 47, Type (0, 1), BuildingBlock: OJICUG_clean_linker_0, # of connection points: 2
# Relax obj value: 0.225
# Max RMSD: 0.217
# Mean RMSD: 0.173
data_MOF--net-wbl--node1-MUDLON_clean_sbu_0--node2-KUFVIS_clean_sbu_0--edge1-OJICUG_clean_linker_0
_symmetry_space_group_name_H-M    P1
_symmetry_Int_Tables_number       1
_symmetry_cell_setting            triclinic
loop_
_symmetry_equiv_pos_as_xyz
'x, y, z'
_cell_length_a     25.756297
_cell_length_b     25.776889
_cell_length_c     54.833027
_cell_angle_alpha  90.0299
_cell_angle_beta   90.549222
_cell_angle_gamma 90.050859
loop_
_atom_site_label
_atom_site_type_symbol
_atom_site_fract_x
_atom_site_fract_y
_atom_site_fract_z
_atom_type_partial_charge
Mg0 Mg 0.03226 0.07772 0.35869 0.0
C1 C 0.05886 0.96605 0.37322 0.0
O2 O 0.09443 0.9695 0.35631 0.0
C3 C 0.98087 0.15862 0.32757 0.0
O4 O 0.02958 0.17179 0.32439 0.0
C5 C 0.09425 0.05852 0.31579 0.0
O6 O 0.04903 0.03744 0.31051 0.0
O7 O 0.10042 0.08061 0.33636 0.0
O8 O 0.02249 -0.00042 0.37357 0.0
O9 O 0.02928 0.12 0.39275 0.0
C10 C 0.9827 0.11433 0.39992 0.0
O11 O 0.95031 0.08795 0.386 0.0
O12 O 0.97014 0.117 0.33903 0.0
Mg13 Mg 0.12639 0.52099 0.60559 0.0
C14 C 0.23919 0.54108 0.62116 0.0
O15 O 0.2417 0.57266 0.60247 0.0
C16 C 0.10061 0.41619 0.57928 0.0
O17 O 0.14419 0.39937 0.5891 0.0
C18 C 0.15388 0.60379 0.56833 0.0
O19 O 0.18176 0.56551 0.55959 0.0
O20 O 0.12637 0.59609 0.58721 0.0
O21 O 0.20313 0.50718 0.62169 0.0
O22 O 0.08056 0.51775 0.63908 0.0
C23 C 0.08034 0.47177 0.64762 0.0
O24 O 0.10418 0.43545 0.63523 0.0
O25 O 0.08792 0.46345 0.5821 0.0
Mg26 Mg 0.65773 0.61588 0.85948 0.0
C27 C 0.63819 0.73241 0.88982 0.0
O28 O 0.66493 0.77314 0.8829 0.0
C29 C 0.72816 0.56462 0.82455 0.0
O30 O 0.68263 0.54327 0.82027 0.0
C31 C 0.57481 0.65241 0.82484 0.0
O32 O 0.59739 0.69656 0.83053 0.0
O33 O 0.59208 0.61052 0.83426 0.0
O34 O 0.64523 0.68954 0.87873 0.0
O35 O 0.66217 0.55727 0.88799 0.0
C36 C 0.6917 0.57315 0.90515 0.0
O37 O 0.71214 0.61971 0.90352 0.0
O38 O 0.73055 0.6021 0.83973 0.0
Mg39 Mg 0.58577 0.14292 0.11501 0.0
C40 C 0.6756 0.16194 0.1503 0.0
O41 O 0.69602 0.18502 0.13134 0.0
C42 C 0.60614 0.04624 0.08105 0.0
O43 O 0.6524 0.04189 0.09113 0.0
C44 C 0.65229 0.20093 0.08002 0.0
O45 O 0.65789 0.15339 0.07191 0.0
O46 O 0.61952 0.20984 0.09681 0.0
O47 O 0.63535 0.13378 0.14725 0.0
O48 O 0.51079 0.14691 0.1335 0.0
C49 C 0.4782 0.11016 0.13023 0.0
O50 O 0.48304 0.08046 0.11093 0.0
O51 O 0.57578 0.08188 0.08803 0.0
Mg52 Mg 0.14195 0.58061 0.92642 0.0
C53 C 0.12764 0.61935 0.87303 0.0
O54 O 0.08628 0.58973 0.87125 0.0
C55 C 0.06181 0.59567 0.96604 0.0
O56 O 0.09471 0.63075 0.9741 0.0
C57 C 0.19974 0.67032 0.94727 0.0
O58 O 0.17195 0.69248 0.93003 0.0
O59 O 0.19659 0.62126 0.9504 0.0
O60 O 0.14936 0.62617 0.89362 0.0
O61 O 0.15669 0.50375 0.91088 0.0
C62 C 0.12409 0.46667 0.91283 0.0
O63 O 0.092 0.46678 0.93128 0.0
O64 O 0.06962 0.57328 0.94574 0.0
Mg65 Mg 0.59136 0.63908 0.1752 0.0
C66 C 0.49806 0.6563 0.14213 0.0
O67 O 0.47768 0.67654 0.16179 0.0
C68 C 0.56883 0.54467 0.20945 0.0
O69 O 0.52356 0.54034 0.19839 0.0
C70 C 0.52639 0.70027 0.20927 0.0
O71 O 0.52011 0.6533 0.21798 0.0
O72 O 0.55968 0.70777 0.19255 0.0
O73 O 0.53901 0.6289 0.14418 0.0
O74 O 0.66485 0.64078 0.15542 0.0
C75 C 0.69496 0.6017 0.15748 0.0
O76 O 0.68812 0.5698 0.17583 0.0
O77 O 0.60021 0.57984 0.20293 0.0
Mg78 Mg 0.51136 0.13544 0.4227 0.0
C79 C 0.51127 0.25315 0.39787 0.0
O80 O 0.4848 0.29664 0.39903 0.0
C81 C 0.44914 0.06901 0.45817 0.0
O82 O 0.49524 0.04809 0.46125 0.0
C83 C 0.59979 0.17603 0.45533 0.0
O84 O 0.57915 0.22093 0.44942 0.0
O85 O 0.58061 0.13452 0.44624 0.0
O86 O 0.49576 0.21553 0.41113 0.0
O87 O 0.50953 0.0813 0.39199 0.0
C88 C 0.47439 0.0919 0.37632 0.0
O89 O 0.44707 0.13448 0.37908 0.0
O90 O 0.44467 0.108 0.44402 0.0
Mg91 Mg 0.03739 0.00758 0.68427 0.0
C92 C 0.09762 0.02651 0.63533 0.0
O93 O 0.08222 0.07503 0.63621 0.0
C94 C 0.01133 0.08862 0.72227 0.0
O95 O 0.96978 0.05918 0.72364 0.0
C96 C 0.10104 0.94224 0.71619 0.0
O97 O 0.12301 0.98824 0.71707 0.0
O98 O 0.0578 0.93778 0.70485 0.0
O99 O 0.08845 0.99649 0.65318 0.0
O100 O 0.96319 0.01428 0.66487 0.0
C101 C 0.94378 0.05943 0.66233 0.0
O102 O 0.96452 0.09815 0.67448 0.0
O103 O 0.04726 0.07616 0.70747 0.0
Mn104 Mn 0.46454 0.81096 0.01621 0.0
Mn105 Mn 0.45038 0.68151 0.01246 0.0
C106 C 0.45661 0.76113 0.05113 0.0
C107 C 0.51635 0.8842 0.02254 0.0
C108 C 0.36481 0.75667 0.99976 0.0
O109 O 0.4928 0.79511 0.98229 0.0
O110 O 0.4838 0.70778 0.98208 0.0
C111 C 0.55847 0.64116 0.00283 0.0
N112 N 0.51106 0.64222 0.02115 0.0
C113 C 0.51168 0.54223 0.04711 0.0
C114 C 0.56274 0.51737 0.03213 0.0
C115 C 0.59711 0.58732 1.00047 0.0
C116 C 0.4895 0.60199 0.04049 0.0
H117 H 0.5666 0.67352 0.99105 0.0
C118 C 0.4989 0.75053 0.97231 0.0
O119 O 0.47062 0.88792 0.01245 0.0
O120 O 0.53316 0.83788 0.02709 0.0
N121 N 0.41721 0.65445 0.04101 0.0
C122 C 0.37171 0.67131 0.05075 0.0
C123 C 0.3495 0.64457 0.07023 0.0
C124 C 0.37343 0.59972 0.07915 0.0
C125 C 0.42013 0.58263 0.06898 0.0
C126 C 0.44239 0.6133 0.05047 0.0
H127 H 0.35361 0.70642 0.04435 0.0
O128 O 0.44265 0.80947 0.05123 0.0
O129 O 0.47281 0.7429 0.03048 0.0
O130 O 0.38867 0.79917 0.00401 0.0
O131 O 0.38568 0.7127 1.00226 0.0
C132 C 0.44288 0.53547 0.07655 0.0
C133 C 0.48668 0.51465 0.06526 0.0
H134 H 0.5764 0.47856 0.03711 0.0
H135 H 0.62951 0.58722 0.98784 0.0
H136 H 0.31376 0.65828 0.07819 0.0
H137 H 0.35525 0.57831 0.09378 0.0
H138 H 0.42477 0.51289 0.0908 0.0
H139 H 0.50103 0.4769 0.07071 0.0
Mn140 Mn 0.35528 0.96464 0.25898 0.0
Mn141 Mn 0.48415 0.96131 0.25638 0.0
C142 C 0.4059 0.96903 0.29444 0.0
C143 C 0.27669 0.00775 0.26254 0.0
C144 C 0.41473 0.87428 0.23968 0.0
O145 O 0.37117 0.99071 0.22427 0.0
O146 O 0.45892 0.00171 0.22768 0.0
C147 C 0.53288 0.06548 0.25133 0.0
N148 N 0.52355 0.01827 0.26929 0.0
C149 C 0.61793 0.00907 0.29987 0.0
C150 C 0.65042 0.05762 0.28623 0.0
C151 C 0.59033 0.09857 0.25158 0.0
C152 C 0.55771 0.99259 0.29034 0.0
H153 H 0.50441 0.07645 0.23788 0.0
C154 C 0.41498 0.00817 0.21661 0.0
O155 O 0.27906 0.96113 0.25371 0.0
O156 O 0.32038 0.03095 0.26723 0.0
N157 N 0.50522 0.92124 0.28448 0.0
C158 C 0.48484 0.87479 0.29161 0.0
C159 C 0.50536 0.84883 0.31188 0.0
C160 C 0.54781 0.86994 0.32441 0.0
C161 C 0.56833 0.91774 0.31706 0.0
C162 C 0.54288 0.94425 0.29781 0.0
H163 H 0.45216 0.8579 0.2823 0.0
O164 O 0.35933 0.94968 0.29528 0.0
O165 O 0.42154 0.98121 0.27295 0.0
O166 O 0.37304 0.88903 0.24964 0.0
O167 O 0.45585 0.9005 0.24072 0.0
C168 C 0.61437 0.93704 0.32784 0.0
C169 C 0.64006 0.98056 0.3187 0.0
H170 H 0.68947 0.06729 0.29286 0.0
H171 H 0.59585 0.13029 0.23886 0.0
H172 H 0.48908 0.81208 0.31754 0.0
H173 H 0.56499 0.84857 0.33946 0.0
H174 H 0.63287 0.91575 0.34257 0.0
H175 H 0.67763 0.99148 0.32609 0.0
Mn176 Mn 0.19728 0.89996 0.49759 0.0
Mn177 Mn 0.06833 0.88217 0.50309 0.0
C178 C 0.1452 0.88723 0.46304 0.0
C179 C 0.26879 0.95558 0.49203 0.0
C180 C 0.14832 0.803 0.51943 0.0
O181 O 0.18136 0.92863 0.53158 0.0
O182 O 0.09315 0.92535 0.53107 0.0
C183 C 0.03011 0.98844 0.49468 0.0
N184 N 0.02957 0.93729 0.48875 0.0
C185 C 0.96749 0.95175 0.4564 0.0
C186 C 0.96604 0.00433 0.46273 0.0
C187 C 0.99804 0.0228 0.48172 0.0
C188 C -8e-05 0.91918 0.4701 0.0
H189 H 0.05571 0.00289 0.50881 0.0
C190 C 0.13691 0.9378 0.54098 0.0
O191 O 0.27396 0.91006 0.5019 0.0
O192 O 0.22191 0.96952 0.48626 0.0
N193 N 0.04157 0.84059 0.47687 0.0
C194 C 0.05295 0.79045 0.47112 0.0
C195 C 0.02814 0.76695 0.45106 0.0
C196 C 0.99197 0.79522 0.4371 0.0
C197 C 0.98106 0.84682 0.44331 0.0
C198 C 0.00665 0.868 0.46365 0.0
H199 H 0.08092 0.7686 0.48168 0.0
O200 O 0.19444 0.87652 0.46242 0.0
O201 O 0.12847 0.90252 0.48404 0.0
O202 O 0.18831 0.82501 0.51047 0.0
O203 O 0.10307 0.82259 0.51815 0.0
C204 C 0.94688 0.87849 0.42974 0.0
C205 C 0.94005 0.93095 0.4363 0.0
H206 H 0.94168 0.03092 0.45264 0.0
H207 H 0.99859 0.06342 0.48629 0.0
H208 H 0.03703 0.72721 0.4463 0.0
H209 H 0.97327 0.77712 0.42149 0.0
H210 H 0.9265 0.8632 0.41393 0.0
H211 H 0.91471 0.95532 0.42536 0.0
Mn212 Mn 0.29072 0.69625 0.74312 0.0
Mn213 Mn 0.30465 0.56761 0.75144 0.0
C214 C 0.30426 0.64188 0.70986 0.0
C215 C 0.2341 0.76662 0.7374 0.0
C216 C 0.38605 0.64656 0.76671 0.0
O217 O 0.26104 0.68376 0.77674 0.0
O218 O 0.2599 0.59583 0.77783 0.0
C219 C 0.19778 0.53151 0.74204 0.0
N220 N 0.24921 0.52921 0.73701 0.0
C221 C 0.23491 0.46384 0.70633 0.0
C222 C 0.18199 0.46399 0.71192 0.0
C223 C 0.16338 0.49845 0.72964 0.0
C224 C 0.26758 0.49708 0.7196 0.0
H225 H 0.18315 0.55895 0.75514 0.0
C226 C 0.24825 0.64071 0.78644 0.0
O227 O 0.28043 0.77284 0.74657 0.0
O228 O 0.22112 0.7198 0.73126 0.0
N229 N 0.34695 0.53743 0.72664 0.0
C230 C 0.39766 0.54711 0.7214 0.0
C231 C 0.42153 0.51981 0.70241 0.0
C232 C 0.39307 0.48288 0.68899 0.0
C233 C 0.34088 0.47374 0.69465 0.0
C234 C 0.31931 0.50186 0.71391 0.0
H235 H 0.4197 0.57566 0.7315 0.0
O236 O 0.3149 0.69105 0.70826 0.0
O237 O 0.28765 0.62681 0.73088 0.0
O238 O 0.3652 0.68665 0.75696 0.0
O239 O 0.36459 0.60207 0.76654 0.0
C240 C 0.30904 0.4389 0.68151 0.0
C241 C 0.25608 0.43385 0.68739 0.0
H242 H 0.15528 0.43884 0.70225 0.0
H243 H 0.12269 0.50002 0.73377 0.0
H244 H 0.46172 0.52737 0.69804 0.0
H245 H 0.41148 0.46225 0.6742 0.0
H246 H 0.32464 0.4166 0.66652 0.0
H247 H 0.23165 0.40788 0.67678 0.0
Mn248 Mn 0.88032 0.20375 0.54168 0.0
Mn249 Mn 0.85669 0.07629 0.53399 0.0
C250 C 0.86412 0.15075 0.57508 0.0
C251 C 0.94421 0.2677 0.54824 0.0
C252 C 0.78028 0.16064 0.519 0.0
O253 O 0.9069 0.18934 0.50771 0.0
O254 O 0.89948 0.10164 0.50632 0.0
C255 C 0.96309 0.03702 0.54224 0.0
N256 N 0.91173 0.03579 0.54765 0.0
C257 C 0.92644 0.97314 0.57953 0.0
C258 C 0.9792 0.97222 0.57361 0.0
C259 C 0.99768 0.00496 0.55518 0.0
C260 C 0.8937 0.00577 0.56595 0.0
H261 H 0.97755 0.06368 0.52876 0.0
C262 C 0.91345 0.14555 0.49736 0.0
O263 O 0.89886 0.27964 0.53919 0.0
O264 O 0.95193 0.21934 0.55323 0.0
N265 N 0.81538 0.04869 0.55975 0.0
C266 C 0.76542 0.06032 0.56559 0.0
C267 C 0.742 0.035 0.58529 0.0
C268 C 0.7702 0.99814 0.59883 0.0
C269 C 0.82162 0.98695 0.59252 0.0
C270 C 0.84265 0.01284 0.57246 0.0
H271 H 0.74369 0.08892 0.55539 0.0
O272 O 0.85704 0.20049 0.57673 0.0
O273 O 0.87812 0.13463 0.55384 0.0
O274 O 0.80483 0.19977 0.52795 0.0
O275 O 0.79763 0.11434 0.52002 0.0
C276 C 0.85331 0.95234 0.60582 0.0
C277 C 0.90572 0.94547 0.59935 0.0
H278 H 0.00612 0.94808 0.58376 0.0
H279 H 0.0386 0.00639 0.55131 0.0
H280 H 0.70241 0.0441 0.59014 0.0
H281 H 0.75222 0.97919 0.61422 0.0
H282 H 0.83813 0.93182 0.62144 0.0
H283 H 0.93017 0.92006 0.61019 0.0
Mn284 Mn 0.97826 0.3873 0.79173 0.0
Mn285 Mn 0.10656 0.36693 0.78554 0.0
C286 C 0.03156 0.37834 0.82619 0.0
C287 C 0.90833 0.44546 0.79582 0.0
C288 C 0.02476 0.28694 0.77216 0.0
O289 O 0.99299 0.41029 0.75677 0.0
O290 O 0.08119 0.40771 0.7568 0.0
C291 C 0.1477 0.47285 0.7913 0.0
N292 N 0.14738 0.42238 0.79827 0.0
C293 C 0.21161 0.4385 0.82957 0.0
C294 C 0.21378 0.49047 0.82221 0.0
C295 C 0.18115 0.50763 0.80322 0.0
C296 C 0.17768 0.40539 0.81692 0.0
H297 H 0.12144 0.4865 0.77728 0.0
C298 C 0.03701 0.41841 0.7468 0.0
O299 O 0.90177 0.39862 0.78757 0.0
O300 O 0.95561 0.45899 0.80103 0.0
N301 N 0.13363 0.32736 0.81235 0.0
C302 C 0.12154 0.27802 0.8192 0.0
C303 C 0.14705 0.25577 0.83936 0.0
C304 C 0.18465 0.28446 0.85229 0.0
C305 C 0.1963 0.33521 0.84494 0.0
C306 C 0.17002 0.3551 0.82453 0.0
H307 H 0.09255 0.25579 0.80944 0.0
O308 O 0.98212 0.3689 0.82756 0.0
O309 O 0.04765 0.3904 0.80463 0.0
O310 O 0.98538 0.31041 0.78096 0.0
O311 O 0.07 0.30667 0.77225 0.0
C312 C 0.23199 0.3673 0.85743 0.0
C313 C 0.23964 0.41895 0.84975 0.0
H314 H 0.23904 0.5178 0.83151 0.0
H315 H 0.18098 0.54762 0.79793 0.0
H316 H 0.13762 0.21666 0.84498 0.0
H317 H 0.2039 0.26734 0.86798 0.0
H318 H 0.25293 0.353 0.87328 0.0
H319 H 0.26612 0.44371 0.8599 0.0
Mn320 Mn 0.81704 0.46696 0.02596 0.0
Mn321 Mn 0.68757 0.46139 0.029 0.0
C322 C 0.76585 0.46836 0.99079 0.0
C323 C 0.89427 0.51228 0.0215 0.0
C324 C 0.75834 0.37413 0.04425 0.0
O325 O 0.80215 0.4928 0.06067 0.0
O326 O 0.71387 0.49906 0.05843 0.0
C327 C 0.64004 0.56528 0.03687 0.0
N328 N 0.64783 0.51981 0.01776 0.0
C329 C 0.5504 0.51226 0.98924 0.0
C330 C 0.51893 0.559 0.0047 0.0
C331 C 0.58232 0.59754 0.03871 0.0
C332 C 0.61171 0.49573 0.99697 0.0
H333 H 0.66997 0.57556 0.04974 0.0
C334 C 0.75798 0.50711 0.06911 0.0
O335 O 0.89368 0.4655 0.03024 0.0
O336 O 0.84983 0.53427 0.01734 0.0
N337 N 0.66457 0.42403 1.00045 0.0
C338 C 0.68378 0.37781 0.99237 0.0
C339 C 0.66165 0.3536 0.97196 0.0
C340 C 0.61852 0.37594 0.96048 0.0
C341 C 0.59879 0.42313 0.96905 0.0
C342 C 0.62596 0.44814 0.98825 0.0
H343 H 0.71665 0.35979 1.00111 0.0
O344 O 0.81285 0.45029 0.98997 0.0
O345 O 0.74994 0.48183 0.01214 0.0
O346 O 0.80086 0.39124 0.03591 0.0
O347 O 0.71642 0.39896 0.04278 0.0
C348 C 0.55173 0.44305 0.95964 0.0
C349 C 0.52665 0.48536 0.97028 0.0
H350 H 0.47914 0.56876 0.99921 0.0
H351 H 0.57788 0.62815 0.05218 0.0
H352 H 0.67707 0.31714 0.96545 0.0
H353 H 0.60001 0.35578 0.94538 0.0
H354 H 0.53192 0.42296 0.94488 0.0
H355 H 0.48833 0.49655 0.96397 0.0
Mn356 Mn 0.70435 0.31126 0.27738 0.0
Mn357 Mn 0.71731 0.18242 0.28297 0.0
C358 C 0.7152 0.26016 0.24311 0.0
C359 C 0.6527 0.3839 0.27013 0.0
C360 C 0.80053 0.25879 0.29779 0.0
O361 O 0.67453 0.29628 0.31117 0.0
O362 O 0.67825 0.20859 0.31181 0.0
C363 C 0.60956 0.13899 0.28887 0.0
N364 N 0.65894 0.14245 0.2718 0.0
C365 C 0.66255 0.04509 0.24376 0.0
C366 C 0.61018 0.01812 0.25691 0.0
C367 C 0.5715 0.08455 0.28914 0.0
C368 C 0.68326 0.10443 0.25223 0.0
H369 H 0.59942 0.17009 0.30102 0.0
C370 C 0.66471 0.25228 0.32113 0.0
O371 O 0.69792 0.38809 0.28069 0.0
O372 O 0.63616 0.3374 0.26562 0.0
N373 N 0.7561 0.15613 0.2558 0.0
C374 C 0.80385 0.17278 0.24851 0.0
C375 C 0.82886 0.14808 0.2292 0.0
C376 C 0.80562 0.10514 0.21802 0.0
C377 C 0.75705 0.08768 0.22592 0.0
C378 C 0.73199 0.11657 0.24427 0.0
H379 H 0.82246 0.20563 0.25697 0.0
O380 O 0.72825 0.30876 0.24271 0.0
O381 O 0.69736 0.24283 0.26366 0.0
O382 O 0.77952 0.3005 0.29017 0.0
O383 O 0.77909 0.21484 0.29618 0.0
C384 C 0.7353 0.04159 0.2164 0.0
C385 C 0.69004 0.01953 0.22578 0.0
H386 H 0.59755 0.97965 0.2508 0.0
H387 H 0.53776 0.08279 0.30095 0.0
H388 H 0.8664 0.16167 0.2232 0.0
H389 H 0.82599 0.08516 0.2036 0.0
H390 H 0.75551 0.0205 0.20227 0.0
H391 H 0.67667 0.9823 0.21907 0.0
C392 C 0.13647 0.01335 0.28095 0.0
C393 C 0.13837 0.05166 0.29918 0.0
H394 H 0.17904 0.96973 0.25464 0.0
C395 C 0.18396 0.08081 0.30239 0.0
H396 H 0.10172 0.9904 0.27797 0.0
C397 C 0.22797 0.06959 0.2887 0.0
C398 C 0.22734 0.02849 0.27184 0.0
H399 H 0.18625 0.11101 0.3161 0.0
H400 H 0.26338 0.09092 0.29251 0.0
C401 C 0.18068 0.00165 0.26749 0.0
C402 C 0.19404 0.66918 0.53997 0.0
C403 C 0.15444 0.65527 0.55631 0.0
H404 H 0.22403 0.72731 0.51567 0.0
C405 C 0.11475 0.69095 0.56096 0.0
H406 H 0.22547 0.64256 0.53618 0.0
C407 C 0.11372 0.73878 0.54914 0.0
C408 C 0.15271 0.75274 0.53251 0.0
H409 H 0.08376 0.68157 0.57343 0.0
H410 H 0.08196 0.76493 0.55306 0.0
C411 C 0.19345 0.71773 0.52832 0.0
C412 C 0.50883 0.60479 0.79973 0.0
C413 C 0.5288 0.65196 0.80839 0.0
H414 H 0.44934 0.56637 0.77945 0.0
C415 C 0.50359 0.69842 0.80166 0.0
H416 H 0.52759 0.5684 0.80425 0.0
C417 C 0.45812 0.69742 0.78734 0.0
C418 C 0.43712 0.64992 0.77947 0.0
H419 H 0.51819 0.73553 0.80799 0.0
H420 H 0.43863 0.73358 0.78312 0.0
C421 C 0.46379 0.60379 0.78543 0.0
C422 C 0.53898 0.01568 0.0509 0.0
C423 C 0.58722 0.00823 0.06271 0.0
H424 H 0.47918 0.98269 0.02832 0.0
C425 C 0.61523 0.96272 0.05795 0.0
H426 H 0.51663 0.05065 0.0539 0.0
C427 C 0.5937 0.92381 0.04321 0.0
C428 C 0.54391 0.92976 0.0328 0.0
H429 H 0.65266 0.95601 0.06654 0.0
H430 H 0.61501 0.88793 0.041 0.0
C431 C 0.51764 0.97692 0.03602 0.0
C432 C 0.24025 0.69213 0.98734 0.0
C433 C 0.23457 0.7025 0.96245 0.0
H434 H 0.28333 0.70691 0.01984 0.0
C435 C 0.26345 0.74311 0.95203 0.0
H436 H 0.21737 0.66205 0.99592 0.0
C437 C 0.3022 0.76848 0.96569 0.0
C438 C 0.31144 0.75428 0.99004 0.0
H439 H 0.25902 0.75228 0.93285 0.0
H440 H 0.32835 0.79485 0.95653 0.0
C441 C 0.27748 0.71866 1.00111 0.0
C442 C 0.46152 0.73924 0.23781 0.0
C443 C 0.48885 0.74124 0.21572 0.0
H444 H 0.41242 0.78038 0.26264 0.0
C445 C 0.47849 0.78178 0.19935 0.0
H446 H 0.46806 0.7078 0.25057 0.0
C447 C 0.44481 0.82172 0.20577 0.0
C448 C 0.42193 0.82277 0.22893 0.0
H449 H 0.49773 0.78363 0.18189 0.0
H450 H 0.44125 0.85485 0.19369 0.0
C451 C 0.42847 0.77996 0.24445 0.0
C452 C 0.40837 0.00011 0.48423 0.0
C453 C 0.40262 0.04378 0.46902 0.0
H454 H 0.37098 0.93841 0.50353 0.0
C455 C 0.35207 0.06055 0.46309 0.0
H456 H 0.44662 0.98617 0.48932 0.0
C457 C 0.30855 0.03309 0.47135 0.0
C458 C 0.3145 0.98815 0.4857 0.0
H459 H 0.34607 0.09398 0.45144 0.0
H460 H 0.27027 0.04617 0.46581 0.0
C461 C 0.36493 0.97264 0.49242 0.0
C462 C 0.17902 0.90309 0.73665 0.0
C463 C 0.1312 0.89616 0.7244 0.0
H464 H 0.24885 0.86801 0.75027 0.0
C465 C 0.11593 0.84556 0.71795 0.0
H466 H 0.19198 0.94145 0.74202 0.0
C467 C 0.14885 0.80331 0.72266 0.0
C468 C 0.19771 0.81074 0.7339 0.0
H469 H 0.07946 0.83879 0.70848 0.0
H470 H 0.13653 0.76498 0.71691 0.0
C471 C 0.21185 0.86097 0.74131 0.0
C472 C 0.82582 0.55411 0.82234 0.0
C473 C 0.77564 0.53951 0.81461 0.0
H474 H 0.90727 0.53607 0.82232 0.0
C475 C 0.7705 0.49668 0.7988 0.0
H476 H 0.83131 0.58684 0.83449 0.0
C477 C 0.81377 0.4674 0.79205 0.0
C478 C 0.86357 0.48035 0.80069 0.0
H479 H 0.73262 0.48442 0.79226 0.0
H480 H 0.80792 0.43371 0.78052 0.0
C481 C 0.86936 0.52492 0.81538 0.0
C482 C 0.70114 0.28318 0.08753 0.0
C483 C 0.68864 0.24174 0.07197 0.0
H484 H 0.73863 0.35681 0.09117 0.0
C485 C 0.71224 0.23903 0.04896 0.0
H486 H 0.68456 0.28573 0.10558 0.0
C487 C 0.74368 0.27977 0.04076 0.0
C488 C 0.75276 0.32315 0.05569 0.0
H489 H 0.70378 0.20706 0.03673 0.0
H490 H 0.75654 0.27966 0.02201 0.0
C491 C 0.73344 0.32308 0.07957 0.0
C492 C 0.89927 0.20417 0.33813 0.0
C493 C 0.93928 0.19573 0.32146 0.0
H494 H 0.82431 0.23689 0.34409 0.0
C495 C 0.9387 0.22267 0.29919 0.0
H496 H 0.89959 0.18494 0.3557 0.0
C497 C 0.89538 0.25269 0.29253 0.0
C498 C 0.85295 0.25685 0.30834 0.0
H499 H 0.9697 0.21728 0.28622 0.0
H500 H 0.89267 0.26773 0.27412 0.0
C501 C 0.85695 0.23519 0.33178 0.0
C502 C 0.07296 0.32551 0.56863 0.0
C503 C 0.06254 0.37899 0.5685 0.0
H504 H 0.04404 0.2489 0.56232 0.0
C505 C 0.01367 0.39596 0.55987 0.0
H506 H 0.11004 0.31093 0.57509 0.0
C507 C 0.97552 0.36015 0.55247 0.0
C508 C 0.98537 0.30662 0.55365 0.0
H509 H 0.00427 0.43689 0.55948 0.0
H510 H 0.93788 0.37433 0.54657 0.0
C511 C 0.03489 0.28986 0.56135 0.0
C512 C 0.65836 0.12618 0.48336 0.0
C513 C 0.644 0.17371 0.47292 0.0
H514 H 0.71082 0.08531 0.50659 0.0
C515 C 0.67214 0.21862 0.47956 0.0
H516 H 0.63711 0.09101 0.47904 0.0
C517 C 0.71517 0.21546 0.49549 0.0
C518 C 0.73061 0.16735 0.50519 0.0
H519 H 0.66179 0.25601 0.47196 0.0
H520 H 0.73731 0.25023 0.49948 0.0
C521 C 0.70072 0.12309 0.49933 0.0
C522 C 0.96914 0.16116 0.74576 0.0
C523 C 0.0141 0.13796 0.73613 0.0
H524 H 0.93666 0.22668 0.76458 0.0
C525 C 0.06186 0.1631 0.73926 0.0
H526 H 0.93158 0.14274 0.74351 0.0
C527 C 0.0648 0.21047 0.75145 0.0
C528 C 0.01991 0.23471 0.76067 0.0
H529 H 0.0972 0.14619 0.73224 0.0
H530 H 0.10269 0.22836 0.75331 0.0
C531 C 0.97195 0.20925 0.75782 0.0
C532 C 0.01656 0.52156 0.9853 0.0
C533 C 0.02155 0.57537 0.98225 0.0
H534 H 0.97349 0.45958 1.00128 0.0
C535 C 0.98822 0.60883 0.9948 0.0
H536 H 0.04253 0.49508 0.97611 0.0
C537 C 0.94787 0.58848 0.00883 0.0
C538 C 0.94194 0.53453 0.01126 0.0
H539 H 0.99192 0.65048 0.99285 0.0
H540 H 0.9205 0.61475 0.01721 0.0
C541 C 0.97761 0.50133 1.0 0.0
C542 C 0.63233 0.51499 0.24134 0.0
C543 C 0.58557 0.50707 0.22834 0.0
H544 H 0.68969 0.48262 0.26537 0.0
C545 C 0.55723 0.46144 0.23244 0.0
H546 H 0.65483 0.5501 0.23887 0.0
C547 C 0.57728 0.42275 0.24771 0.0
C548 C 0.62586 0.42914 0.25929 0.0
H549 H 0.52088 0.4544 0.22291 0.0
H550 H 0.55597 0.3867 0.2494 0.0
C551 C 0.65217 0.47649 0.25674 0.0
C552 C 0.07097 0.96959 0.41801 0.0
C553 C 0.07346 0.94048 0.39645 0.0
H554 H 0.09534 0.977 0.45506 0.0
C555 C 0.09804 0.89169 0.39705 0.0
H556 H 0.05416 0.00813 0.41803 0.0
C557 C 0.11957 0.87254 0.41897 0.0
C558 C 0.11762 0.90246 0.44036 0.0
H559 H 0.1017 0.86909 0.3805 0.0
H560 H 0.1389 0.83525 0.41906 0.0
C561 C 0.09416 0.95151 0.4394 0.0
C562 C 0.30967 0.58373 0.64625 0.0
C563 C 0.26052 0.55993 0.64465 0.0
H564 H 0.36313 0.62769 0.66868 0.0
C565 C 0.22744 0.56232 0.66479 0.0
H566 H 0.33531 0.58363 0.63071 0.0
C567 C 0.24236 0.58911 0.68573 0.0
C568 C 0.29173 0.61175 0.68772 0.0
H569 H 0.18861 0.54617 0.66388 0.0
H570 H 0.2145 0.59324 0.70025 0.0
C571 C 0.32538 0.60922 0.66777 0.0
C572 C 0.59035 0.78578 0.92077 0.0
C573 C 0.59971 0.73725 0.90985 0.0
H574 H 0.551 0.82834 0.94858 0.0
C575 C 0.57257 0.69379 0.91855 0.0
H576 H 0.61028 0.82022 0.91449 0.0
C577 C 0.5382 0.69851 0.93812 0.0
C578 C 0.52999 0.74686 0.94953 0.0
H579 H 0.57861 0.65585 0.91057 0.0
H580 H 0.51908 0.66385 0.94469 0.0
C581 C 0.55596 0.79055 0.94029 0.0
C582 C 0.45052 0.11586 0.17389 0.0
C583 C 0.44789 0.09045 0.15124 0.0
H584 H 0.44007 0.10972 0.21248 0.0
C585 C 0.424 0.04118 0.15002 0.0
H586 H 0.46801 0.15395 0.17553 0.0
C587 C 0.40856 0.01565 0.17132 0.0
C588 C 0.41639 0.03916 0.19408 0.0
H589 H 0.42092 0.02054 0.13286 0.0
H590 H 0.39438 0.97613 0.17015 0.0
C591 C 0.43491 0.09038 0.1951 0.0
C592 C 0.21257 0.6295 0.85234 0.0
C593 C 0.15795 0.63192 0.8511 0.0
H594 H 0.2839 0.62953 0.83245 0.0
C595 C 0.13361 0.64153 0.82856 0.0
H596 H 0.23247 0.62134 0.8694 0.0
C597 C 0.16347 0.64781 0.80754 0.0
C598 C 0.2177 0.64252 0.80878 0.0
H599 H 0.09168 0.64322 0.82714 0.0
H600 H 0.14414 0.65391 0.79015 0.0
C601 C 0.24212 0.63409 0.83128 0.0
C602 C 0.51832 0.67436 0.09846 0.0
C603 C 0.48372 0.67831 0.11803 0.0
H604 H 0.53795 0.70102 0.06272 0.0
C605 C 0.43951 0.71007 0.11538 0.0
H606 H 0.55358 0.6517 0.10004 0.0
C607 C 0.43035 0.73734 0.09366 0.0
C608 C 0.46493 0.73281 0.07419 0.0
H609 H 0.41261 0.71479 0.13028 0.0
H610 H 0.39619 0.76162 0.09201 0.0
C611 C 0.50941 0.70219 0.07702 0.0
C612 C 0.45236 0.08102 0.33267 0.0
C613 C 0.46315 0.05794 0.35525 0.0
H614 H 0.4272 0.07037 0.29584 0.0
C615 C 0.45722 0.00386 0.35776 0.0
H616 H 0.45638 0.12257 0.33029 0.0
C617 C 0.43871 0.97382 0.33805 0.0
C618 C 0.42785 0.99745 0.31552 0.0
H619 H 0.46453 0.98536 0.37519 0.0
H620 H 0.43272 0.93254 0.34041 0.0
C621 C 0.43565 0.05109 0.31298 0.0
C622 C 0.13268 0.03499 0.59269 0.0
C623 C 0.11543 0.00358 0.61199 0.0
H624 H 0.15452 0.03829 0.5549 0.0
C625 C 0.11028 0.94983 0.60802 0.0
H626 H 0.1369 0.07647 0.59514 0.0
C627 C 0.11933 0.92847 0.58504 0.0
C628 C 0.13498 0.96005 0.56568 0.0
H629 H 0.09656 0.92444 0.62232 0.0
H630 H 0.11249 0.88741 0.58217 0.0
C631 C 0.14294 0.01324 0.56974 0.0
C632 C 0.7044 0.56732 0.94961 0.0
C633 C 0.70297 0.54197 0.92704 0.0
H634 H 0.72514 0.56343 0.98726 0.0
C635 C 0.71904 0.4899 0.92559 0.0
H636 H 0.69264 0.60756 0.95113 0.0
C637 C 0.73873 0.46458 0.94644 0.0
C638 C 0.74086 0.49072 0.96891 0.0
H639 H 0.71907 0.46992 0.90821 0.0
H640 H 0.753 0.42521 0.94495 0.0
C641 C 0.72279 0.54193 0.9703 0.0
C642 C 0.73578 0.20905 0.17907 0.0
C643 C 0.68967 0.18072 0.17507 0.0
H644 H 0.78034 0.2564 0.20393 0.0
C645 C 0.65332 0.17773 0.19399 0.0
H646 H 0.76412 0.21296 0.16471 0.0
C647 C 0.6622 0.20375 0.21598 0.0
C648 C 0.70831 0.23126 0.22007 0.0
H649 H 0.61661 0.15787 0.19133 0.0
H650 H 0.6321 0.20448 0.22956 0.0
C651 C 0.74495 0.23424 0.20137 0.0
C652 C 0.99979 0.14936 0.44218 0.0
C653 C 0.96505 0.13111 0.42419 0.0
H654 H 0.01004 0.1694 0.48006 0.0
C655 C 0.91249 0.1241 0.43012 0.0
H656 H 0.0404 0.15533 0.43807 0.0
C657 C 0.89586 0.13068 0.45393 0.0
C658 C 0.93108 0.14563 0.47214 0.0
H659 H 0.88442 0.1109 0.41665 0.0
H660 H 0.85572 0.1224 0.45831 0.0
C661 C 0.98259 0.15733 0.46608 0.0
C662 C 0.04321 0.4972 0.68856 0.0
C663 C 0.05958 0.45882 0.67204 0.0
H664 H 0.02164 0.51421 0.72562 0.0
C665 C 0.06079 0.4068 0.67982 0.0
H666 H 0.0417 0.53755 0.68311 0.0
C667 C 0.05059 0.39394 0.70397 0.0
C668 C 0.03773 0.43249 0.72081 0.0
H669 H 0.07242 0.37601 0.66759 0.0
H670 H 0.05495 0.35396 0.70977 0.0
C671 C 0.03164 0.48393 0.71279 0.0
C672 C 0.57638 0.29772 0.37177 0.0
C673 C 0.55644 0.25086 0.38106 0.0
H674 H 0.62598 0.33507 0.34619 0.0
C675 C 0.57698 0.20401 0.37233 0.0
H676 H 0.56219 0.33474 0.37825 0.0
C677 C 0.61411 0.20423 0.35363 0.0
C678 C 0.63162 0.25136 0.34337 0.0
H679 H 0.56288 0.16733 0.37916 0.0
H680 H 0.62756 0.16738 0.34662 0.0
C681 C 0.61331 0.298 0.3533 0.0
C682 C 0.86783 0.09601 0.63926 0.0
C683 C 0.91717 0.07272 0.63945 0.0
H684 H 0.81089 0.13816 0.61806 0.0
C685 C 0.94702 0.07356 0.6183 0.0
H686 H 0.84511 0.09746 0.65577 0.0
C687 C 0.92892 0.09888 0.59756 0.0
C688 C 0.87931 0.12122 0.59694 0.0
H689 H 0.98594 0.05769 0.61829 0.0
H690 H 0.95467 0.1025 0.58218 0.0
C691 C 0.84865 0.11972 0.61794 0.0
C692 C 0.08171 0.39021 0.89157 0.0
C693 C 0.10847 0.4379 0.89046 0.0
H694 H 0.03756 0.33249 0.87171 0.0
C695 C 0.11185 0.4632 0.86791 0.0
H696 H 0.0775 0.37031 0.90882 0.0
C697 C 0.08635 0.44347 0.84743 0.0
C698 C 0.06072 0.39552 0.84816 0.0
H699 H 0.13127 0.50025 0.86634 0.0
H700 H 0.08529 0.4669 0.83111 0.0
C701 C 0.05851 0.36883 0.87046 0.0
C702 C 0.74747 0.53357 0.13624 0.0
C703 C 0.72482 0.58341 0.13606 0.0
H704 H 0.77615 0.47007 0.1148 0.0
C705 C 0.72317 0.6111 0.11399 0.0
H706 H 0.74975 0.51117 0.15292 0.0
C707 C 0.73876 0.58749 0.09229 0.0
C708 C 0.75629 0.53593 0.09226 0.0
H709 H 0.70652 0.64964 0.11316 0.0
H710 H 0.73442 0.60862 0.07534 0.0
C711 C 0.76284 0.50993 0.11447 0.0
loop_
_geom_bond_atom_site_label_1
_geom_bond_atom_site_label_2
_geom_bond_distance
_geom_bond_site_symmetry_2
_ccdc_geom_bond_type
Mg0 O7 2.141 . S
Mg0 O8 2.048 1_545 S
Mg0 O9 2.048 1_455 S
Mg0 O12 2.141 1_455 S
C1 O2 1.313 . S
C1 O8 1.195 . S
O2 C1 1.313 . S
C3 O4 1.245 . S
C3 O12 1.289 . S
O4 C3 1.245 . S
C5 O6 1.245 . S
C5 O7 1.289 1_565 S
O6 C5 1.245 . S
O7 Mg0 2.141 . S
O7 C5 1.289 1_545 S
O8 Mg0 2.048 1_565 S
O8 C1 1.195 . S
O9 Mg0 2.048 1_655 S
O9 C10 1.195 . S
C10 O9 1.195 . S
C10 O11 1.313 1_545 S
O11 C10 1.313 1_565 S
O12 Mg0 2.141 1_655 S
O12 C3 1.289 . S
Mg13 O20 2.141 . S
Mg13 O21 2.048 . S
Mg13 O22 2.048 . S
Mg13 O25 2.141 . S
C14 O15 1.313 . S
C14 O21 1.195 . S
O15 C14 1.313 . S
C16 O17 1.245 . S
C16 O25 1.289 . S
O17 C16 1.245 . S
C18 O19 1.245 . S
C18 O20 1.289 . S
O19 C18 1.245 . S
O20 Mg13 2.141 . S
O20 C18 1.289 . S
O21 Mg13 2.048 . S
O21 C14 1.195 . S
O22 Mg13 2.048 . S
O22 C23 1.195 . S
C23 O22 1.195 . S
C23 O24 1.313 . S
O24 C23 1.313 . S
O25 Mg13 2.141 . S
O25 C16 1.289 . S
Mg26 O33 2.141 . S
Mg26 O34 2.048 . S
Mg26 O35 2.048 . S
Mg26 O38 2.141 . S
C27 O28 1.313 . S
C27 O34 1.195 . S
O28 C27 1.313 . S
C29 O30 1.245 . S
C29 O38 1.289 . S
O30 C29 1.245 . S
C31 O32 1.245 . S
C31 O33 1.289 . S
O32 C31 1.245 . S
O33 Mg26 2.141 . S
O33 C31 1.289 . S
O34 Mg26 2.048 . S
O34 C27 1.195 . S
O35 Mg26 2.048 . S
O35 C36 1.195 . S
C36 O35 1.195 . S
C36 O37 1.313 . S
O37 C36 1.313 . S
O38 Mg26 2.141 . S
O38 C29 1.289 . S
Mg39 O46 2.141 . S
Mg39 O47 2.048 . S
Mg39 O48 2.048 . S
Mg39 O51 2.141 . S
C40 O41 1.313 . S
C40 O47 1.195 . S
O41 C40 1.313 . S
C42 O43 1.245 . S
C42 O51 1.289 . S
O43 C42 1.245 . S
C44 O45 1.245 . S
C44 O46 1.289 . S
O45 C44 1.245 . S
O46 Mg39 2.141 . S
O46 C44 1.289 . S
O47 Mg39 2.048 . S
O47 C40 1.195 . S
O48 Mg39 2.048 . S
O48 C49 1.195 . S
C49 O48 1.195 . S
C49 O50 1.313 . S
O50 C49 1.313 . S
O51 Mg39 2.141 . S
O51 C42 1.289 . S
Mg52 O59 2.141 . S
Mg52 O60 2.048 . S
Mg52 O61 2.048 . S
Mg52 O64 2.141 . S
C53 O54 1.313 . S
C53 O60 1.195 . S
O54 C53 1.313 . S
C55 O56 1.245 . S
C55 O64 1.289 . S
O56 C55 1.245 . S
C57 O58 1.245 . S
C57 O59 1.289 . S
O58 C57 1.245 . S
O59 Mg52 2.141 . S
O59 C57 1.289 . S
O60 Mg52 2.048 . S
O60 C53 1.195 . S
O61 Mg52 2.048 . S
O61 C62 1.195 . S
C62 O61 1.195 . S
C62 O63 1.313 . S
O63 C62 1.313 . S
O64 Mg52 2.141 . S
O64 C55 1.289 . S
Mg65 O72 2.141 . S
Mg65 O73 2.048 . S
Mg65 O74 2.048 . S
Mg65 O77 2.141 . S
C66 O67 1.313 . S
C66 O73 1.195 . S
O67 C66 1.313 . S
C68 O69 1.245 . S
C68 O77 1.289 . S
O69 C68 1.245 . S
C70 O71 1.245 . S
C70 O72 1.289 . S
O71 C70 1.245 . S
O72 Mg65 2.141 . S
O72 C70 1.289 . S
O73 Mg65 2.048 . S
O73 C66 1.195 . S
O74 Mg65 2.048 . S
O74 C75 1.195 . S
C75 O74 1.195 . S
C75 O76 1.313 . S
O76 C75 1.313 . S
O77 Mg65 2.141 . S
O77 C68 1.289 . S
Mg78 O85 2.141 . S
Mg78 O86 2.048 . S
Mg78 O87 2.048 . S
Mg78 O90 2.141 . S
C79 O80 1.313 . S
C79 O86 1.195 . S
O80 C79 1.313 . S
C81 O82 1.245 . S
C81 O90 1.289 . S
O82 C81 1.245 . S
C83 O84 1.245 . S
C83 O85 1.289 . S
O84 C83 1.245 . S
O85 Mg78 2.141 . S
O85 C83 1.289 . S
O86 Mg78 2.048 . S
O86 C79 1.195 . S
O87 Mg78 2.048 . S
O87 C88 1.195 . S
C88 O87 1.195 . S
C88 O89 1.313 . S
O89 C88 1.313 . S
O90 Mg78 2.141 . S
O90 C81 1.289 . S
Mg91 O98 2.141 1_655 S
Mg91 O99 2.048 1_655 S
Mg91 O100 2.048 1_565 S
Mg91 O103 2.141 1_565 S
C92 O93 1.313 . S
C92 O99 1.195 . S
O93 C92 1.313 . S
C94 O95 1.245 1_655 S
C94 O103 1.289 . S
O95 C94 1.245 1_455 S
C96 O97 1.245 . S
C96 O98 1.289 . S
O97 C96 1.245 . S
O98 Mg91 2.141 1_455 S
O98 C96 1.289 . S
O99 Mg91 2.048 1_455 S
O99 C92 1.195 . S
O100 Mg91 2.048 1_545 S
O100 C101 1.195 . S
C101 O100 1.195 . S
C101 O102 1.313 1_655 S
O102 C101 1.313 1_455 S
O103 Mg91 2.141 1_545 S
O103 C94 1.289 . S
Mn104 O109 2.095 1_554 S
Mn104 O119 2.162 . S
Mn104 O120 2.297 . S
Mn104 O128 2.385 . S
Mn104 O129 2.209 . S
Mn104 O130 2.094 . S
Mn105 O110 2.121 1_554 S
Mn105 N112 2.257 . S
Mn105 N121 2.282 . S
Mn105 O129 2.215 . S
Mn105 O131 2.117 1_554 S
C106 O128 1.234 . S
C106 O129 1.283 . S
C107 O119 1.281 . S
C107 O120 1.236 . S
C108 O130 1.240 1_556 S
C108 O131 1.264 . S
O109 Mn104 2.095 1_556 S
O109 C118 1.250 . S
O110 Mn105 2.121 1_556 S
O110 C118 1.258 . S
C111 N112 1.326 . S
C111 C115 1.460 . S
C111 H117 0.929 1_554 S
N112 Mn105 2.257 . S
N112 C111 1.326 . S
N112 C116 1.362 . S
C113 C114 1.258 . S
C113 C116 1.431 . S
C113 C133 1.449 . S
C114 C113 1.258 . S
C114 C115 1.477 . S
C114 H134 0.931 . S
C115 C111 1.460 . S
C115 C114 1.477 . S
C115 H135 0.930 . S
C116 N112 1.362 . S
C116 C113 1.431 . S
C116 C126 1.476 . S
H117 C111 0.929 1_556 S
C118 O109 1.250 . S
C118 O110 1.258 . S
O119 Mn104 2.162 . S
O119 C107 1.281 . S
O120 Mn104 2.297 . S
O120 C107 1.236 . S
N121 Mn105 2.282 . S
N121 C122 1.328 . S
N121 C126 1.318 . S
C122 N121 1.328 . S
C122 C123 1.457 . S
C122 H127 0.929 . S
C123 C122 1.457 . S
C123 C124 1.291 . S
C123 H136 0.931 . S
C124 C123 1.291 . S
C124 C125 1.373 . S
C124 H137 0.929 . S
C125 C124 1.373 . S
C125 C126 1.396 . S
C125 C132 1.403 . S
C126 C116 1.476 . S
C126 N121 1.318 . S
C126 C125 1.396 . S
H127 C122 0.929 . S
O128 Mn104 2.385 . S
O128 C106 1.234 . S
O129 Mn104 2.209 . S
O129 Mn105 2.215 . S
O129 C106 1.283 . S
O130 Mn104 2.094 . S
O130 C108 1.240 1_554 S
O131 Mn105 2.117 1_556 S
O131 C108 1.264 . S
C132 C125 1.403 . S
C132 C133 1.399 . S
C132 H138 0.929 . S
C133 C113 1.449 . S
C133 C132 1.399 . S
C133 H139 0.930 . S
H134 C114 0.931 . S
H135 C115 0.930 . S
H136 C123 0.931 . S
H137 C124 0.929 . S
H138 C132 0.929 . S
H139 C133 0.930 . S
Mn140 O145 2.095 . S
Mn140 O155 2.162 . S
Mn140 O156 2.297 . S
Mn140 O164 2.385 . S
Mn140 O165 2.209 . S
Mn140 O166 2.094 . S
Mn141 O146 2.121 1_565 S
Mn141 N148 2.257 1_565 S
Mn141 N157 2.282 . S
Mn141 O165 2.215 . S
Mn141 O167 2.117 . S
C142 O164 1.234 . S
C142 O165 1.283 . S
C143 O155 1.281 . S
C143 O156 1.236 . S
C144 O166 1.240 . S
C144 O167 1.264 . S
O145 Mn140 2.095 . S
O145 C154 1.250 1_565 S
O146 Mn141 2.121 1_545 S
O146 C154 1.258 . S
C147 N148 1.326 . S
C147 C151 1.460 . S
C147 H153 0.929 . S
N148 Mn141 2.257 1_545 S
N148 C147 1.326 . S
N148 C152 1.362 . S
C149 C150 1.258 . S
C149 C152 1.431 . S
C149 C169 1.449 . S
C150 C149 1.258 . S
C150 C151 1.477 . S
C150 H170 0.931 . S
C151 C147 1.460 . S
C151 C150 1.477 . S
C151 H171 0.930 . S
C152 N148 1.362 . S
C152 C149 1.431 . S
C152 C162 1.476 . S
H153 C147 0.929 . S
C154 O145 1.250 1_545 S
C154 O146 1.258 . S
O155 Mn140 2.162 . S
O155 C143 1.281 . S
O156 Mn140 2.297 . S
O156 C143 1.236 . S
N157 Mn141 2.282 . S
N157 C158 1.328 . S
N157 C162 1.318 1_565 S
C158 N157 1.328 . S
C158 C159 1.457 . S
C158 H163 0.929 . S
C159 C158 1.457 . S
C159 C160 1.291 . S
C159 H172 0.931 . S
C160 C159 1.291 . S
C160 C161 1.372 1_565 S
C160 H173 0.929 . S
C161 C160 1.372 1_545 S
C161 C162 1.396 . S
C161 C168 1.403 . S
C162 C152 1.476 . S
C162 N157 1.318 1_545 S
C162 C161 1.396 . S
H163 C158 0.929 . S
O164 Mn140 2.385 . S
O164 C142 1.234 . S
O165 Mn140 2.209 . S
O165 Mn141 2.215 . S
O165 C142 1.283 . S
O166 Mn140 2.094 . S
O166 C144 1.240 . S
O167 Mn141 2.117 . S
O167 C144 1.264 . S
C168 C161 1.403 . S
C168 C169 1.399 . S
C168 H174 0.929 . S
C169 C149 1.449 . S
C169 C168 1.399 . S
C169 H175 0.930 . S
H170 C150 0.931 . S
H171 C151 0.930 . S
H172 C159 0.931 . S
H173 C160 0.929 . S
H174 C168 0.929 . S
H175 C169 0.930 . S
Mn176 O181 2.095 . S
Mn176 O191 2.162 . S
Mn176 O192 2.297 . S
Mn176 O200 2.385 . S
Mn176 O201 2.209 . S
Mn176 O202 2.094 . S
Mn177 O182 2.121 . S
Mn177 N184 2.257 . S
Mn177 N193 2.282 . S
Mn177 O201 2.215 . S
Mn177 O203 2.117 . S
C178 O200 1.234 . S
C178 O201 1.283 . S
C179 O191 1.281 . S
C179 O192 1.236 . S
C180 O202 1.240 . S
C180 O203 1.264 . S
O181 Mn176 2.095 . S
O181 C190 1.250 . S
O182 Mn177 2.121 . S
O182 C190 1.258 . S
C183 N184 1.326 . S
C183 C187 1.460 1_455 S
C183 H189 0.929 . S
N184 Mn177 2.257 . S
N184 C183 1.326 . S
N184 C188 1.362 . S
C185 C186 1.258 . S
C185 C188 1.431 1_655 S
C185 C205 1.449 . S
C186 C185 1.258 . S
C186 C187 1.477 . S
C186 H206 0.931 . S
C187 C183 1.460 1_655 S
C187 C186 1.477 . S
C187 H207 0.930 . S
C188 N184 1.362 . S
C188 C185 1.431 1_455 S
C188 C198 1.476 . S
H189 C183 0.929 . S
C190 O181 1.250 . S
C190 O182 1.258 . S
O191 Mn176 2.162 . S
O191 C179 1.281 . S
O192 Mn176 2.297 . S
O192 C179 1.236 . S
N193 Mn177 2.282 . S
N193 C194 1.328 . S
N193 C198 1.318 . S
C194 N193 1.328 . S
C194 C195 1.457 . S
C194 H199 0.929 . S
C195 C194 1.457 . S
C195 C196 1.291 . S
C195 H208 0.931 . S
C196 C195 1.291 . S
C196 C197 1.373 . S
C196 H209 0.929 . S
C197 C196 1.373 . S
C197 C198 1.396 . S
C197 C204 1.403 1_455 S
C198 C188 1.476 . S
C198 N193 1.318 . S
C198 C197 1.396 . S
H199 C194 0.929 . S
O200 Mn176 2.385 . S
O200 C178 1.234 . S
O201 Mn176 2.209 . S
O201 Mn177 2.215 . S
O201 C178 1.283 . S
O202 Mn176 2.094 . S
O202 C180 1.240 . S
O203 Mn177 2.117 . S
O203 C180 1.264 . S
C204 C197 1.403 1_655 S
C204 C205 1.399 . S
C204 H210 0.929 . S
C205 C185 1.449 . S
C205 C204 1.399 . S
C205 H211 0.930 . S
H206 C186 0.931 . S
H207 C187 0.930 . S
H208 C195 0.931 . S
H209 C196 0.929 . S
H210 C204 0.929 . S
H211 C205 0.930 . S
Mn212 O217 2.095 . S
Mn212 O227 2.162 . S
Mn212 O228 2.297 . S
Mn212 O236 2.385 . S
Mn212 O237 2.209 . S
Mn212 O238 2.094 . S
Mn213 O218 2.121 . S
Mn213 N220 2.257 . S
Mn213 N229 2.282 . S
Mn213 O237 2.215 . S
Mn213 O239 2.117 . S
C214 O236 1.234 . S
C214 O237 1.283 . S
C215 O227 1.281 . S
C215 O228 1.236 . S
C216 O238 1.240 . S
C216 O239 1.264 . S
O217 Mn212 2.095 . S
O217 C226 1.250 . S
O218 Mn213 2.121 . S
O218 C226 1.258 . S
C219 N220 1.326 . S
C219 C223 1.460 . S
C219 H225 0.929 . S
N220 Mn213 2.257 . S
N220 C219 1.326 . S
N220 C224 1.362 . S
C221 C222 1.258 . S
C221 C224 1.431 . S
C221 C241 1.449 . S
C222 C221 1.258 . S
C222 C223 1.477 . S
C222 H242 0.931 . S
C223 C219 1.460 . S
C223 C222 1.477 . S
C223 H243 0.930 . S
C224 N220 1.362 . S
C224 C221 1.431 . S
C224 C234 1.476 . S
H225 C219 0.929 . S
C226 O217 1.250 . S
C226 O218 1.258 . S
O227 Mn212 2.162 . S
O227 C215 1.281 . S
O228 Mn212 2.297 . S
O228 C215 1.236 . S
N229 Mn213 2.282 . S
N229 C230 1.328 . S
N229 C234 1.318 . S
C230 N229 1.328 . S
C230 C231 1.457 . S
C230 H235 0.929 . S
C231 C230 1.457 . S
C231 C232 1.291 . S
C231 H244 0.931 . S
C232 C231 1.291 . S
C232 C233 1.373 . S
C232 H245 0.929 . S
C233 C232 1.373 . S
C233 C234 1.396 . S
C233 C240 1.403 . S
C234 C224 1.476 . S
C234 N229 1.318 . S
C234 C233 1.396 . S
H235 C230 0.929 . S
O236 Mn212 2.385 . S
O236 C214 1.234 . S
O237 Mn212 2.209 . S
O237 Mn213 2.215 . S
O237 C214 1.283 . S
O238 Mn212 2.094 . S
O238 C216 1.240 . S
O239 Mn213 2.117 . S
O239 C216 1.264 . S
C240 C233 1.403 . S
C240 C241 1.399 . S
C240 H246 0.929 . S
C241 C221 1.449 . S
C241 C240 1.399 . S
C241 H247 0.930 . S
H242 C222 0.931 . S
H243 C223 0.930 . S
H244 C231 0.931 . S
H245 C232 0.929 . S
H246 C240 0.929 . S
H247 C241 0.930 . S
Mn248 O253 2.095 . S
Mn248 O263 2.162 . S
Mn248 O264 2.297 . S
Mn248 O272 2.385 . S
Mn248 O273 2.209 . S
Mn248 O274 2.094 . S
Mn249 O254 2.121 . S
Mn249 N256 2.257 . S
Mn249 N265 2.282 . S
Mn249 O273 2.215 . S
Mn249 O275 2.117 . S
C250 O272 1.234 . S
C250 O273 1.283 . S
C251 O263 1.281 . S
C251 O264 1.236 . S
C252 O274 1.240 . S
C252 O275 1.264 . S
O253 Mn248 2.095 . S
O253 C262 1.250 . S
O254 Mn249 2.121 . S
O254 C262 1.258 . S
C255 N256 1.326 . S
C255 C259 1.460 1_545 S
C255 H261 0.929 . S
N256 Mn249 2.257 . S
N256 C255 1.326 . S
N256 C260 1.362 . S
C257 C258 1.258 . S
C257 C260 1.431 1_565 S
C257 C277 1.449 . S
C258 C257 1.258 . S
C258 C259 1.477 . S
C258 H278 0.931 . S
C259 C255 1.460 1_565 S
C259 C258 1.477 . S
C259 H279 0.930 . S
C260 N256 1.362 . S
C260 C257 1.431 1_545 S
C260 C270 1.476 . S
H261 C255 0.929 . S
C262 O253 1.250 . S
C262 O254 1.258 . S
O263 Mn248 2.162 . S
O263 C251 1.281 . S
O264 Mn248 2.297 . S
O264 C251 1.236 . S
N265 Mn249 2.282 . S
N265 C266 1.328 . S
N265 C270 1.318 . S
C266 N265 1.328 . S
C266 C267 1.457 . S
C266 H271 0.929 . S
C267 C266 1.457 . S
C267 C268 1.291 . S
C267 H280 0.931 . S
C268 C267 1.291 . S
C268 C269 1.373 . S
C268 H281 0.929 . S
C269 C268 1.373 . S
C269 C270 1.396 . S
C269 C276 1.403 1_545 S
C270 C260 1.476 . S
C270 N265 1.318 . S
C270 C269 1.396 . S
H271 C266 0.929 . S
O272 Mn248 2.385 . S
O272 C250 1.234 . S
O273 Mn248 2.209 . S
O273 Mn249 2.215 . S
O273 C250 1.283 . S
O274 Mn248 2.094 . S
O274 C252 1.240 . S
O275 Mn249 2.117 . S
O275 C252 1.264 . S
C276 C269 1.403 1_565 S
C276 C277 1.399 . S
C276 H282 0.929 . S
C277 C257 1.449 . S
C277 C276 1.399 . S
C277 H283 0.930 . S
H278 C258 0.931 . S
H279 C259 0.930 . S
H280 C267 0.931 . S
H281 C268 0.929 . S
H282 C276 0.929 . S
H283 C277 0.930 . S
Mn284 O289 2.095 . S
Mn284 O299 2.162 . S
Mn284 O300 2.297 . S
Mn284 O308 2.385 . S
Mn284 O309 2.209 1_655 S
Mn284 O310 2.094 . S
Mn285 O290 2.121 . S
Mn285 N292 2.257 . S
Mn285 N301 2.282 . S
Mn285 O309 2.215 . S
Mn285 O311 2.117 . S
C286 O308 1.234 . S
C286 O309 1.283 1_655 S
C287 O299 1.281 . S
C287 O300 1.236 . S
C288 O310 1.240 . S
C288 O311 1.264 1_655 S
O289 Mn284 2.095 . S
O289 C298 1.250 . S
O290 Mn285 2.121 . S
O290 C298 1.258 1_455 S
C291 N292 1.326 . S
C291 C295 1.460 . S
C291 H297 0.929 . S
N292 Mn285 2.257 . S
N292 C291 1.326 . S
N292 C296 1.362 . S
C293 C294 1.258 . S
C293 C296 1.431 . S
C293 C313 1.449 . S
C294 C293 1.258 . S
C294 C295 1.477 . S
C294 H314 0.931 . S
C295 C291 1.460 . S
C295 C294 1.477 . S
C295 H315 0.930 . S
C296 N292 1.362 . S
C296 C293 1.431 . S
C296 C306 1.476 . S
H297 C291 0.929 . S
C298 O289 1.250 . S
C298 O290 1.258 1_655 S
O299 Mn284 2.162 . S
O299 C287 1.281 . S
O300 Mn284 2.297 . S
O300 C287 1.236 . S
N301 Mn285 2.282 . S
N301 C302 1.328 . S
N301 C306 1.318 . S
C302 N301 1.328 . S
C302 C303 1.457 . S
C302 H307 0.929 . S
C303 C302 1.457 . S
C303 C304 1.291 . S
C303 H316 0.931 . S
C304 C303 1.291 . S
C304 C305 1.373 . S
C304 H317 0.929 . S
C305 C304 1.373 . S
C305 C306 1.396 . S
C305 C312 1.403 . S
C306 C296 1.476 . S
C306 N301 1.318 . S
C306 C305 1.396 . S
H307 C302 0.929 . S
O308 Mn284 2.385 . S
O308 C286 1.234 . S
O309 Mn284 2.209 1_455 S
O309 Mn285 2.215 . S
O309 C286 1.283 1_455 S
O310 Mn284 2.094 . S
O310 C288 1.240 . S
O311 Mn285 2.117 . S
O311 C288 1.264 1_455 S
C312 C305 1.403 . S
C312 C313 1.399 . S
C312 H318 0.929 . S
C313 C293 1.449 . S
C313 C312 1.399 . S
C313 H319 0.930 . S
H314 C294 0.931 . S
H315 C295 0.930 . S
H316 C303 0.931 . S
H317 C304 0.929 . S
H318 C312 0.929 . S
H319 C313 0.930 . S
Mn320 O325 2.095 . S
Mn320 O335 2.162 . S
Mn320 O336 2.297 . S
Mn320 O344 2.385 1_554 S
Mn320 O345 2.209 . S
Mn320 O346 2.094 . S
Mn321 O326 2.121 . S
Mn321 N328 2.257 . S
Mn321 N337 2.265 1_554 S
Mn321 O345 2.215 . S
Mn321 O347 2.117 . S
C322 O344 1.234 . S
C322 O345 1.283 1_556 S
C323 O335 1.281 . S
C323 O336 1.236 . S
C324 O346 1.240 . S
C324 O347 1.264 . S
O325 Mn320 2.095 . S
O325 C334 1.250 . S
O326 Mn321 2.121 . S
O326 C334 1.258 . S
C327 N328 1.326 . S
C327 C331 1.460 . S
C327 H333 0.929 . S
N328 Mn321 2.257 . S
N328 C327 1.326 . S
N328 C332 1.362 . S
C329 C330 1.258 1_556 S
C329 C332 1.431 1_556 S
C329 C349 1.449 . S
C330 C329 1.258 1_554 S
C330 C331 1.477 . S
C330 H350 0.931 1_554 S
C331 C327 1.460 . S
C331 C330 1.477 . S
C331 H351 0.930 . S
C332 N328 1.362 . S
C332 C329 1.431 1_554 S
C332 C342 1.476 1_554 S
H333 C327 0.929 . S
C334 O325 1.250 . S
C334 O326 1.258 . S
O335 Mn320 2.162 . S
O335 C323 1.281 . S
O336 Mn320 2.297 . S
O336 C323 1.236 . S
N337 Mn321 2.265 1_556 S
N337 C338 1.337 . S
N337 C342 1.327 . S
C338 N337 1.337 . S
C338 C339 1.457 . S
C338 H343 0.929 . S
C339 C338 1.457 . S
C339 C340 1.291 . S
C339 H352 0.931 . S
C340 C339 1.291 . S
C340 C341 1.373 . S
C340 H353 0.929 . S
C341 C340 1.373 . S
C341 C342 1.396 . S
C341 C348 1.403 . S
C342 C332 1.476 1_556 S
C342 N337 1.327 . S
C342 C341 1.396 . S
H343 C338 0.929 . S
O344 Mn320 2.385 1_556 S
O344 C322 1.234 . S
O345 Mn320 2.209 . S
O345 Mn321 2.215 . S
O345 C322 1.283 1_554 S
O346 Mn320 2.094 . S
O346 C324 1.240 . S
O347 Mn321 2.117 . S
O347 C324 1.264 . S
C348 C341 1.403 . S
C348 C349 1.399 . S
C348 H354 0.929 . S
C349 C329 1.449 . S
C349 C348 1.399 . S
C349 H355 0.930 . S
H350 C330 0.931 1_556 S
H351 C331 0.930 . S
H352 C339 0.931 . S
H353 C340 0.929 . S
H354 C348 0.929 . S
H355 C349 0.930 . S
Mn356 O361 2.095 . S
Mn356 O371 2.162 . S
Mn356 O372 2.297 . S
Mn356 O380 2.385 . S
Mn356 O381 2.209 . S
Mn356 O382 2.094 . S
Mn357 O362 2.121 . S
Mn357 N364 2.257 . S
Mn357 N373 2.282 . S
Mn357 O381 2.215 . S
Mn357 O383 2.117 . S
C358 O380 1.234 . S
C358 O381 1.283 . S
C359 O371 1.281 . S
C359 O372 1.236 . S
C360 O382 1.240 . S
C360 O383 1.264 . S
O361 Mn356 2.095 . S
O361 C370 1.250 . S
O362 Mn357 2.121 . S
O362 C370 1.258 . S
C363 N364 1.326 . S
C363 C367 1.460 . S
C363 H369 0.929 . S
N364 Mn357 2.257 . S
N364 C363 1.326 . S
N364 C368 1.362 . S
C365 C366 1.258 . S
C365 C368 1.431 . S
C365 C385 1.449 . S
C366 C365 1.258 . S
C366 C367 1.477 . S
C366 H386 0.931 . S
C367 C363 1.460 . S
C367 C366 1.477 . S
C367 H387 0.930 . S
C368 N364 1.362 . S
C368 C365 1.431 . S
C368 C378 1.476 . S
H369 C363 0.929 . S
C370 O361 1.250 . S
C370 O362 1.258 . S
O371 Mn356 2.162 . S
O371 C359 1.281 . S
O372 Mn356 2.297 . S
O372 C359 1.236 . S
N373 Mn357 2.282 . S
N373 C374 1.328 . S
N373 C378 1.318 . S
C374 N373 1.328 . S
C374 C375 1.457 . S
C374 H379 0.929 . S
C375 C374 1.457 . S
C375 C376 1.291 . S
C375 H388 0.931 . S
C376 C375 1.291 . S
C376 C377 1.373 . S
C376 H389 0.929 . S
C377 C376 1.373 . S
C377 C378 1.396 . S
C377 C384 1.403 . S
C378 C368 1.476 . S
C378 N373 1.318 . S
C378 C377 1.396 . S
H379 C374 0.929 . S
O380 Mn356 2.385 . S
O380 C358 1.234 . S
O381 Mn356 2.209 . S
O381 Mn357 2.215 . S
O381 C358 1.283 . S
O382 Mn356 2.094 . S
O382 C360 1.240 . S
O383 Mn357 2.117 . S
O383 C360 1.264 . S
C384 C377 1.403 . S
C384 C385 1.399 . S
C384 H390 0.929 . S
C385 C365 1.449 . S
C385 C384 1.399 . S
C385 H391 0.930 . S
H386 C366 0.931 . S
H387 C367 0.930 . S
H388 C375 0.931 . S
H389 C376 0.929 . S
H390 C384 0.929 . S
H391 C385 0.930 . S
C392 C393 1.387 . S
C392 H396 0.950 . S
C392 C401 1.390 . S
C393 C392 1.387 . S
C393 C395 1.387 1_565 S
H394 C401 0.950 . S
C395 C393 1.387 1_545 S
C395 C397 1.390 . S
C395 H399 0.950 . S
H396 C392 0.950 . S
C397 C395 1.390 . S
C397 C398 1.387 1_545 S
C397 H400 0.950 . S
C398 C397 1.387 1_565 S
C398 C401 1.387 . S
H399 C395 0.950 . S
H400 C397 0.950 . S
C401 C392 1.390 . S
C401 H394 0.950 . S
C401 C398 1.387 . S
C402 C403 1.387 . S
C402 H406 0.950 . S
C402 C411 1.390 . S
C403 C402 1.387 . S
C403 C405 1.387 . S
H404 C411 0.950 . S
C405 C403 1.387 . S
C405 C407 1.390 . S
C405 H409 0.950 . S
H406 C402 0.950 . S
C407 C405 1.390 . S
C407 C408 1.387 . S
C407 H410 0.950 . S
C408 C407 1.387 . S
C408 C411 1.387 . S
H409 C405 0.950 . S
H410 C407 0.950 . S
C411 C402 1.390 . S
C411 H404 0.950 . S
C411 C408 1.387 . S
C412 C413 1.387 . S
C412 H416 0.950 . S
C412 C421 1.390 . S
C413 C412 1.387 . S
C413 C415 1.387 . S
H414 C421 0.950 . S
C415 C413 1.387 . S
C415 C417 1.390 . S
C415 H419 0.950 . S
H416 C412 0.950 . S
C417 C415 1.390 . S
C417 C418 1.387 . S
C417 H420 0.950 . S
C418 C417 1.387 . S
C418 C421 1.387 . S
H419 C415 0.950 . S
H420 C417 0.950 . S
C421 C412 1.390 . S
C421 H414 0.950 . S
C421 C418 1.387 . S
C422 C423 1.387 . S
C422 H426 0.950 . S
C422 C431 1.390 . S
C423 C422 1.387 . S
C423 C425 1.387 . S
H424 C431 0.994 . S
C425 C423 1.387 . S
C425 C427 1.390 1_545 S
C425 H429 0.950 . S
H426 C422 0.950 . S
C427 C425 1.390 1_565 S
C427 C428 1.387 . S
C427 H430 0.950 . S
C428 C427 1.387 . S
C428 C431 1.387 1_565 S
H429 C425 0.950 . S
H430 C427 0.950 . S
C431 C422 1.390 . S
C431 H424 0.994 . S
C431 C428 1.387 1_545 S
C432 C433 1.387 . S
C432 H436 0.950 1_556 S
C432 C441 1.390 1_556 S
C433 C432 1.387 . S
C433 C435 1.387 . S
H434 C441 0.950 . S
C435 C433 1.387 . S
C435 C437 1.390 . S
C435 H439 0.950 . S
H436 C432 0.950 1_554 S
C437 C435 1.390 . S
C437 C438 1.387 . S
C437 H440 0.950 . S
C438 C437 1.387 . S
C438 C441 1.387 1_556 S
H439 C435 0.950 . S
H440 C437 0.950 . S
C441 C432 1.390 1_554 S
C441 H434 0.950 . S
C441 C438 1.387 1_554 S
C442 C443 1.387 . S
C442 H446 0.950 . S
C442 C451 1.390 . S
C443 C442 1.387 . S
C443 C445 1.387 . S
H444 C451 0.950 . S
C445 C443 1.387 . S
C445 C447 1.390 . S
C445 H449 0.950 . S
H446 C442 0.950 . S
C447 C445 1.390 . S
C447 C448 1.387 . S
C447 H450 0.950 . S
C448 C447 1.387 . S
C448 C451 1.387 . S
H449 C445 0.950 . S
H450 C447 0.950 . S
C451 C442 1.390 . S
C451 H444 0.950 . S
C451 C448 1.387 . S
C452 C453 1.387 . S
C452 H456 0.950 . S
C452 C461 1.390 1_545 S
C453 C452 1.387 . S
C453 C455 1.387 . S
H454 C461 0.950 . S
C455 C453 1.387 . S
C455 C457 1.390 1_545 S
C455 H459 0.950 . S
H456 C452 0.950 . S
C457 C455 1.390 1_565 S
C457 C458 1.387 . S
C457 H460 0.950 . S
C458 C457 1.387 . S
C458 C461 1.387 . S
H459 C455 0.950 . S
H460 C457 0.950 . S
C461 C452 1.390 1_565 S
C461 H454 0.950 . S
C461 C458 1.387 . S
C462 C463 1.387 . S
C462 H466 0.950 . S
C462 C471 1.390 . S
C463 C462 1.387 . S
C463 C465 1.387 . S
H464 C471 0.950 . S
C465 C463 1.387 . S
C465 C467 1.390 . S
C465 H469 0.950 . S
H466 C462 0.950 . S
C467 C465 1.390 . S
C467 C468 1.387 . S
C467 H470 0.950 . S
C468 C467 1.387 . S
C468 C471 1.387 . S
H469 C465 0.950 . S
H470 C467 0.950 . S
C471 C462 1.390 . S
C471 H464 0.950 . S
C471 C468 1.387 . S
C472 C473 1.387 . S
C472 H476 0.950 . S
C472 C481 1.390 . S
C473 C472 1.387 . S
C473 C475 1.387 . S
H474 C481 0.950 . S
C475 C473 1.387 . S
C475 C477 1.390 . S
C475 H479 0.950 . S
H476 C472 0.950 . S
C477 C475 1.390 . S
C477 C478 1.387 . S
C477 H480 0.950 . S
C478 C477 1.387 . S
C478 C481 1.387 . S
H479 C475 0.950 . S
H480 C477 0.950 . S
C481 C472 1.390 . S
C481 H474 0.950 . S
C481 C478 1.387 . S
C482 C483 1.387 . S
C482 H486 0.950 . S
C482 C491 1.390 . S
C483 C482 1.387 . S
C483 C485 1.387 . S
H484 C491 0.950 . S
C485 C483 1.387 . S
C485 C487 1.390 . S
C485 H489 0.950 . S
H486 C482 0.950 . S
C487 C485 1.390 . S
C487 C488 1.387 . S
C487 H490 0.950 . S
C488 C487 1.387 . S
C488 C491 1.387 . S
H489 C485 0.950 . S
H490 C487 0.950 . S
C491 C482 1.390 . S
C491 H484 0.950 . S
C491 C488 1.387 . S
C492 C493 1.387 . S
C492 H496 0.950 . S
C492 C501 1.390 . S
C493 C492 1.387 . S
C493 C495 1.387 . S
H494 C501 0.950 . S
C495 C493 1.387 . S
C495 C497 1.390 . S
C495 H499 0.950 . S
H496 C492 0.950 . S
C497 C495 1.390 . S
C497 C498 1.387 . S
C497 H500 0.950 . S
C498 C497 1.387 . S
C498 C501 1.387 . S
H499 C495 0.950 . S
H500 C497 0.950 . S
C501 C492 1.390 . S
C501 H494 0.950 . S
C501 C498 1.387 . S
C502 C503 1.387 . S
C502 H506 0.950 . S
C502 C511 1.390 . S
C503 C502 1.387 . S
C503 C505 1.387 . S
H504 C511 0.947 1_655 S
C505 C503 1.387 . S
C505 C507 1.390 1_455 S
C505 H509 0.950 . S
H506 C502 0.950 . S
C507 C505 1.390 1_655 S
C507 C508 1.387 . S
C507 H510 0.950 . S
C508 C507 1.387 . S
C508 C511 1.387 1_655 S
H509 C505 0.950 . S
H510 C507 0.950 . S
C511 C502 1.390 . S
C511 H504 0.947 1_455 S
C511 C508 1.387 1_455 S
C512 C513 1.387 . S
C512 H516 0.950 . S
C512 C521 1.390 . S
C513 C512 1.387 . S
C513 C515 1.387 . S
H514 C521 0.950 . S
C515 C513 1.387 . S
C515 C517 1.390 . S
C515 H519 0.950 . S
H516 C512 0.950 . S
C517 C515 1.390 . S
C517 C518 1.387 . S
C517 H520 0.950 . S
C518 C517 1.387 . S
C518 C521 1.387 . S
H519 C515 0.950 . S
H520 C517 0.950 . S
C521 C512 1.390 . S
C521 H514 0.950 . S
C521 C518 1.387 . S
C522 C523 1.387 . S
C522 H526 0.950 . S
C522 C531 1.390 . S
C523 C522 1.387 . S
C523 C525 1.387 1_655 S
H524 C531 0.950 . S
C525 C523 1.387 1_455 S
C525 C527 1.390 . S
C525 H529 0.950 . S
H526 C522 0.950 . S
C527 C525 1.390 . S
C527 C528 1.387 1_455 S
C527 H530 0.950 . S
C528 C527 1.387 1_655 S
C528 C531 1.387 . S
H529 C525 0.950 . S
H530 C527 0.950 . S
C531 C522 1.390 . S
C531 H524 0.950 . S
C531 C528 1.387 . S
C532 C533 1.387 . S
C532 H536 0.950 . S
C532 C541 1.390 1_455 S
C533 C532 1.387 . S
C533 C535 1.387 . S
H534 C541 0.950 . S
C535 C533 1.387 . S
C535 C537 1.390 1_456 S
C535 H539 0.950 . S
H536 C532 0.950 . S
C537 C535 1.390 1_654 S
C537 C538 1.387 . S
C537 H540 0.950 . S
C538 C537 1.387 . S
C538 C541 1.387 1_554 S
H539 C535 0.950 . S
H540 C537 0.950 . S
C541 C532 1.390 1_655 S
C541 H534 0.950 . S
C541 C538 1.387 1_556 S
C542 C543 1.387 . S
C542 H546 0.950 . S
C542 C551 1.390 . S
C543 C542 1.387 . S
C543 C545 1.387 . S
H544 C551 0.950 . S
C545 C543 1.387 . S
C545 C547 1.390 . S
C545 H549 0.950 . S
H546 C542 0.950 . S
C547 C545 1.390 . S
C547 C548 1.387 . S
C547 H550 0.950 . S
C548 C547 1.387 . S
C548 C551 1.387 . S
H549 C545 0.950 . S
H550 C547 0.950 . S
C551 C542 1.390 . S
C551 H544 0.950 . S
C551 C548 1.387 . S
C552 C553 1.387 . S
C552 H556 0.950 . S
C552 C561 1.390 . S
C553 C552 1.387 . S
C553 C555 1.387 . S
H554 C561 0.950 . S
C555 C553 1.387 . S
C555 C557 1.390 . S
C555 H559 0.950 . S
H556 C552 0.950 . S
C557 C555 1.390 . S
C557 C558 1.387 . S
C557 H560 0.950 . S
C558 C557 1.387 . S
C558 C561 1.387 . S
H559 C555 0.950 . S
H560 C557 0.950 . S
C561 C552 1.390 . S
C561 H554 0.950 . S
C561 C558 1.387 . S
C562 C563 1.387 . S
C562 H566 0.950 . S
C562 C571 1.390 . S
C563 C562 1.387 . S
C563 C565 1.387 . S
H564 C571 0.950 . S
C565 C563 1.387 . S
C565 C567 1.390 . S
C565 H569 0.950 . S
H566 C562 0.950 . S
C567 C565 1.390 . S
C567 C568 1.387 . S
C567 H570 0.950 . S
C568 C567 1.387 . S
C568 C571 1.387 . S
H569 C565 0.950 . S
H570 C567 0.950 . S
C571 C562 1.390 . S
C571 H564 0.950 . S
C571 C568 1.387 . S
C572 C573 1.387 . S
C572 H576 0.950 . S
C572 C581 1.390 . S
C573 C572 1.387 . S
C573 C575 1.387 . S
H574 C581 0.950 . S
C575 C573 1.387 . S
C575 C577 1.390 . S
C575 H579 0.950 . S
H576 C572 0.950 . S
C577 C575 1.390 . S
C577 C578 1.387 . S
C577 H580 0.950 . S
C578 C577 1.387 . S
C578 C581 1.387 . S
H579 C575 0.950 . S
H580 C577 0.950 . S
C581 C572 1.390 . S
C581 H574 0.950 . S
C581 C578 1.387 . S
C582 C583 1.387 . S
C582 H586 0.950 . S
C582 C591 1.390 . S
C583 C582 1.387 . S
C583 C585 1.387 . S
H584 C591 0.950 . S
C585 C583 1.387 . S
C585 C587 1.390 . S
C585 H589 0.950 . S
H586 C582 0.950 . S
C587 C585 1.390 . S
C587 C588 1.387 . S
C587 H590 0.950 1_545 S
C588 C587 1.387 . S
C588 C591 1.387 . S
H589 C585 0.950 . S
H590 C587 0.950 1_565 S
C591 C582 1.390 . S
C591 H584 0.950 . S
C591 C588 1.387 . S
C592 C593 1.387 . S
C592 H596 0.950 . S
C592 C601 1.390 . S
C593 C592 1.387 . S
C593 C595 1.387 . S
H594 C601 0.950 . S
C595 C593 1.387 . S
C595 C597 1.390 . S
C595 H599 0.950 . S
H596 C592 0.950 . S
C597 C595 1.390 . S
C597 C598 1.387 . S
C597 H600 0.950 . S
C598 C597 1.387 . S
C598 C601 1.387 . S
H599 C595 0.950 . S
H600 C597 0.950 . S
C601 C592 1.390 . S
C601 H594 0.950 . S
C601 C598 1.387 . S
C602 C603 1.387 . S
C602 H606 0.950 . S
C602 C611 1.390 . S
C603 C602 1.387 . S
C603 C605 1.387 . S
H604 C611 0.950 . S
C605 C603 1.387 . S
C605 C607 1.390 . S
C605 H609 0.950 . S
H606 C602 0.950 . S
C607 C605 1.390 . S
C607 C608 1.387 . S
C607 H610 0.950 . S
C608 C607 1.387 . S
C608 C611 1.387 . S
H609 C605 0.950 . S
H610 C607 0.950 . S
C611 C602 1.390 . S
C611 H604 0.950 . S
C611 C608 1.387 . S
C612 C613 1.387 . S
C612 H616 0.950 . S
C612 C621 1.390 . S
C613 C612 1.387 . S
C613 C615 1.387 . S
H614 C621 0.950 . S
C615 C613 1.387 . S
C615 C617 1.390 . S
C615 H619 0.950 . S
H616 C612 0.950 . S
C617 C615 1.390 . S
C617 C618 1.387 . S
C617 H620 0.950 . S
C618 C617 1.387 . S
C618 C621 1.387 . S
H619 C615 0.950 . S
H620 C617 0.950 . S
C621 C612 1.390 . S
C621 H614 0.950 . S
C621 C618 1.387 . S
C622 C623 1.387 . S
C622 H626 0.950 . S
C622 C631 1.390 . S
C623 C622 1.387 . S
C623 C625 1.387 . S
H624 C631 0.950 . S
C625 C623 1.387 . S
C625 C627 1.390 . S
C625 H629 0.950 . S
H626 C622 0.950 . S
C627 C625 1.390 . S
C627 C628 1.387 . S
C627 H630 0.950 . S
C628 C627 1.387 . S
C628 C631 1.387 . S
H629 C625 0.950 . S
H630 C627 0.950 . S
C631 C622 1.390 . S
C631 H624 0.950 . S
C631 C628 1.387 . S
C632 C633 1.387 . S
C632 H636 0.950 . S
C632 C641 1.390 . S
C633 C632 1.387 . S
C633 C635 1.387 . S
H634 C641 0.950 . S
C635 C633 1.387 . S
C635 C637 1.390 . S
C635 H639 0.950 . S
H636 C632 0.950 . S
C637 C635 1.390 . S
C637 C638 1.387 . S
C637 H640 0.950 . S
C638 C637 1.387 . S
C638 C641 1.387 . S
H639 C635 0.950 . S
H640 C637 0.950 . S
C641 C632 1.390 . S
C641 H634 0.950 . S
C641 C638 1.387 . S
C642 C643 1.387 . S
C642 H646 0.950 . S
C642 C651 1.390 . S
C643 C642 1.387 . S
C643 C645 1.387 . S
H644 C651 0.950 . S
C645 C643 1.387 . S
C645 C647 1.390 . S
C645 H649 0.950 . S
H646 C642 0.950 . S
C647 C645 1.390 . S
C647 C648 1.387 . S
C647 H650 0.950 . S
C648 C647 1.387 . S
C648 C651 1.387 . S
H649 C645 0.950 . S
H650 C647 0.950 . S
C651 C642 1.390 . S
C651 H644 0.950 . S
C651 C648 1.387 . S
C652 C653 1.387 . S
C652 H656 0.950 . S
C652 C661 1.390 . S
C653 C652 1.387 . S
C653 C655 1.387 . S
H654 C661 0.950 . S
C655 C653 1.387 . S
C655 C657 1.390 . S
C655 H659 0.950 . S
H656 C652 0.950 . S
C657 C655 1.390 . S
C657 C658 1.387 . S
C657 H660 0.950 . S
C658 C657 1.387 . S
C658 C661 1.387 . S
H659 C655 0.950 . S
H660 C657 0.950 . S
C661 C652 1.390 . S
C661 H654 0.950 . S
C661 C658 1.387 . S
C662 C663 1.387 . S
C662 H666 0.950 . S
C662 C671 1.390 . S
C663 C662 1.387 . S
C663 C665 1.387 . S
H664 C671 0.950 . S
C665 C663 1.387 . S
C665 C667 1.390 . S
C665 H669 0.950 . S
H666 C662 0.950 . S
C667 C665 1.390 . S
C667 C668 1.387 . S
C667 H670 0.950 . S
C668 C667 1.387 . S
C668 C671 1.387 . S
H669 C665 0.950 . S
H670 C667 0.950 . S
C671 C662 1.390 . S
C671 H664 0.950 . S
C671 C668 1.387 . S
C672 C673 1.387 . S
C672 H676 0.950 . S
C672 C681 1.390 . S
C673 C672 1.387 . S
C673 C675 1.387 . S
H674 C681 0.950 . S
C675 C673 1.387 . S
C675 C677 1.390 . S
C675 H679 0.950 . S
H676 C672 0.950 . S
C677 C675 1.390 . S
C677 C678 1.387 . S
C677 H680 0.950 . S
C678 C677 1.387 . S
C678 C681 1.387 . S
H679 C675 0.950 . S
H680 C677 0.950 . S
C681 C672 1.390 . S
C681 H674 0.950 . S
C681 C678 1.387 . S
C682 C683 1.387 . S
C682 H686 0.950 . S
C682 C691 1.390 . S
C683 C682 1.387 . S
C683 C685 1.387 . S
H684 C691 0.950 . S
C685 C683 1.387 . S
C685 C687 1.390 . S
C685 H689 0.950 . S
H686 C682 0.950 . S
C687 C685 1.390 . S
C687 C688 1.387 . S
C687 H690 0.950 . S
C688 C687 1.387 . S
C688 C691 1.387 . S
H689 C685 0.950 . S
H690 C687 0.950 . S
C691 C682 1.390 . S
C691 H684 0.950 . S
C691 C688 1.387 . S
C692 C693 1.387 . S
C692 H696 0.950 . S
C692 C701 1.390 . S
C693 C692 1.387 . S
C693 C695 1.387 . S
H694 C701 0.950 1_655 S
C695 C693 1.387 . S
C695 C697 1.390 . S
C695 H699 0.950 . S
H696 C692 0.950 . S
C697 C695 1.390 . S
C697 C698 1.387 . S
C697 H700 0.950 . S
C698 C697 1.387 . S
C698 C701 1.387 . S
H699 C695 0.950 . S
H700 C697 0.950 . S
C701 C692 1.390 . S
C701 H694 0.950 1_455 S
C701 C698 1.387 . S
C702 C703 1.387 . S
C702 H706 0.950 . S
C702 C711 1.390 . S
C703 C702 1.387 . S
C703 C705 1.387 . S
H704 C711 0.950 . S
C705 C703 1.387 . S
C705 C707 1.390 . S
C705 H709 0.950 . S
H706 C702 0.950 . S
C707 C705 1.390 . S
C707 C708 1.387 . S
C707 H710 0.950 . S
C708 C707 1.387 . S
C708 C711 1.387 . S
H709 C705 0.950 . S
H710 C707 0.950 . S
C711 C702 1.390 . S
C711 H704 0.950 . S
C711 C708 1.387 . S
C398 C143 1.398 . S
C393 C5 1.397 . S
C408 C180 1.391 . S
C403 C18 1.405 . S
C418 C216 1.396 . S
C413 C31 1.408 . S
C423 C42 1.332 . S
C428 C107 1.404 . S
C433 C57 1.500 . S
C438 C108 1.507 . S
C443 C70 1.497 . S
C448 C144 1.501 . S
C458 C179 1.533 . S
C453 C81 1.544 . S
C468 C215 1.538 . S
C463 C96 1.489 . S
C473 C29 1.544 . S
C478 C287 1.534 . S
C488 C324 1.504 . S
C483 C44 1.500 . S
C493 C3 1.557 . S
C498 C360 1.510 . S
C508 C251 1.539 . S
C503 C16 1.547 . S
C513 C83 1.408 . S
C518 C252 1.396 . S
C523 C94 1.340 . S
C528 C288 1.391 . S
C538 C323 1.398 . S
C533 C55 1.330 . S
C543 C68 1.332 . S
C548 C359 1.404 . S
C558 C178 1.407 . S
C553 C1 1.415 . S
C568 C214 1.392 . S
C563 C14 1.399 . S
C573 C27 1.380 . S
C578 C118 1.246 . S
C583 C49 1.393 . S
C588 C154 1.259 . S
C593 C53 1.603 . S
C598 C226 1.523 . S
C608 C106 1.742 . S
C603 C66 1.630 . S
C618 C142 1.751 1_545 S
C613 C88 1.741 . S
C628 C190 1.535 . S
C623 C92 1.615 . S
C638 C322 1.753 . S
C633 C36 1.742 . S
C648 C358 1.742 . S
C643 C40 1.632 . S
C653 C10 1.703 . S
C658 C262 1.527 . S
C668 C298 1.535 1_455 S
C663 C23 1.713 . S
C678 C370 1.247 . S
C673 C79 1.380 . S
C683 C101 1.397 . S
C688 C250 1.392 . S
C698 C286 1.406 1_455 S
C693 C62 1.411 . S
C708 C334 1.253 . S
C703 C75 1.395 . S
