# Generated by pormake.
# Topology zzz, (3,6)-cn, num edge types: 1
# Building blocks:
#     Node 0, Type 0, BuildingBlock: WUSLED_clean_sbu_0, # of connection points: 3
#     Node 1, Type 0, BuildingBlock: WUSLED_clean_sbu_0, # of connection points: 3
#     Node 2, Type 0, BuildingBlock: WUSLED_clean_sbu_0, # of connection points: 3
#     Node 3, Type 0, BuildingBlock: WUSLED_clean_sbu_0, # of connection points: 3
#     Node 4, Type 0, BuildingBlock: WUSLED_clean_sbu_0, # of connection points: 3
#     Node 5, Type 0, BuildingBlock: WUSLED_clean_sbu_0, # of connection points: 3
#     Node 6, Type 0, BuildingBlock: WUSLED_clean_sbu_0, # of connection points: 3
#     Node 7, Type 0, BuildingBlock: WUSLED_clean_sbu_0, # of connection points: 3
#     Node 8, Type 1, BuildingBlock: JUFBIX_clean_sbu_0, # of connection points: 6
#     Node 9, Type 1, BuildingBlock: JUFBIX_clean_sbu_0, # of connection points: 6
#     Node 10, Type 1, BuildingBlock: JUFBIX_clean_sbu_0, # of connection points: 6
#     Node 11, Type 1, BuildingBlock: JUFBIX_clean_sbu_0, # of connection points: 6
#     Edge 12, Type (0, 1), BuildingBlock: KIFKEQ_clean_linker_1, # of connection points: 2
#     Edge 13, Type (0, 1), BuildingBlock: KIFKEQ_clean_linker_1, # of connection points: 2
#     Edge 14, Type (0, 1), BuildingBlock: KIFKEQ_clean_linker_1, # of connection points: 2
#     Edge 15, Type (0, 1), BuildingBlock: KIFKEQ_clean_linker_1, # of connection points: 2
#     Edge 16, Type (0, 1), BuildingBlock: KIFKEQ_clean_linker_1, # of connection points: 2
#     Edge 17, Type (0, 1), BuildingBlock: KIFKEQ_clean_linker_1, # of connection points: 2
#     Edge 18, Type (0, 1), BuildingBlock: KIFKEQ_clean_linker_1, # of connection points: 2
#     Edge 19, Type (0, 1), BuildingBlock: KIFKEQ_clean_linker_1, # of connection points: 2
#     Edge 20, Type (0, 1), BuildingBlock: KIFKEQ_clean_linker_1, # of connection points: 2
#     Edge 21, Type (0, 1), BuildingBlock: KIFKEQ_clean_linker_1, # of connection points: 2
#     Edge 22, Type (0, 1), BuildingBlock: KIFKEQ_clean_linker_1, # of connection points: 2
#     Edge 23, Type (0, 1), BuildingBlock: KIFKEQ_clean_linker_1, # of connection points: 2
#     Edge 24, Type (0, 1), BuildingBlock: KIFKEQ_clean_linker_1, # of connection points: 2
#     Edge 25, Type (0, 1), BuildingBlock: KIFKEQ_clean_linker_1, # of connection points: 2
#     Edge 26, Type (0, 1), BuildingBlock: KIFKEQ_clean_linker_1, # of connection points: 2
#     Edge 27, Type (0, 1), BuildingBlock: KIFKEQ_clean_linker_1, # of connection points: 2
#     Edge 28, Type (0, 1), BuildingBlock: KIFKEQ_clean_linker_1, # of connection points: 2
#     Edge 29, Type (0, 1), BuildingBlock: KIFKEQ_clean_linker_1, # of connection points: 2
#     Edge 30, Type (0, 1), BuildingBlock: KIFKEQ_clean_linker_1, # of connection points: 2
#     Edge 31, Type (0, 1), BuildingBlock: KIFKEQ_clean_linker_1, # of connection points: 2
#     Edge 32, Type (0, 1), BuildingBlock: KIFKEQ_clean_linker_1, # of connection points: 2
#     Edge 33, Type (0, 1), BuildingBlock: KIFKEQ_clean_linker_1, # of connection points: 2
#     Edge 34, Type (0, 1), BuildingBlock: KIFKEQ_clean_linker_1, # of connection points: 2
#     Edge 35, Type (0, 1), BuildingBlock: KIFKEQ_clean_linker_1, # of connection points: 2
# Relax obj value: 0.276
# Max RMSD: 0.214
# Mean RMSD: 0.182
data_MOF--net-zzz--node1-WUSLED_clean_sbu_0--node2-JUFBIX_clean_sbu_0--edge1-KIFKEQ_clean_linker_1
_symmetry_space_group_name_H-M    P1
_symmetry_Int_Tables_number       1
_symmetry_cell_setting            triclinic
loop_
_symmetry_equiv_pos_as_xyz
'x, y, z'
_cell_length_a     62.438237
_cell_length_b     64.08461
_cell_length_c     24.720739
_cell_angle_alpha  83.387215
_cell_angle_beta   90.151483
_cell_angle_gamma 86.774458
loop_
_atom_site_label
_atom_site_type_symbol
_atom_site_fract_x
_atom_site_fract_y
_atom_site_fract_z
_atom_type_partial_charge
C0 C 0.81113 0.56634 0.38863 0.0
C1 C 0.83039 0.56457 0.35994 0.0
C2 C 0.85092 0.56332 0.44449 0.0
C3 C 0.85012 0.56309 0.38761 0.0
C4 C 0.8315 0.5656 0.47268 0.0
C5 C 0.81182 0.56707 0.44497 0.0
U6 U 0.77888 0.56303 0.25986 0.0
O7 O 0.75184 0.54318 0.25039 0.0
O8 O 0.74747 0.57751 0.23068 0.0
C9 C 0.73883 0.55921 0.2315 0.0
C10 C 0.79031 0.56584 0.36093 0.0
C11 C 0.72474 0.55581 0.18555 0.0
C12 C 0.69528 0.53699 0.15384 0.0
C13 C 0.71005 0.54002 0.19423 0.0
C14 C 0.70956 0.56556 0.09463 0.0
C15 C 0.69475 0.54975 0.10361 0.0
C16 C 0.72448 0.56855 0.13525 0.0
C17 C 0.81561 0.56026 0.13152 0.0
C18 C 0.82234 0.53808 0.05936 0.0
C19 C 0.84033 0.57061 0.05911 0.0
C20 C 0.82938 0.57482 0.10605 0.0
C21 C 0.83772 0.55169 0.03679 0.0
C22 C 0.81138 0.5423 0.10652 0.0
C23 C 0.8097 0.56222 0.18837 0.0
O24 O 0.78463 0.58235 0.3262 0.0
O25 O 0.78699 0.54794 0.34217 0.0
O26 O 0.80347 0.54531 0.21803 0.0
O27 O 0.79943 0.57976 0.19884 0.0
H28 H 0.83015 0.5639 0.31634 0.0
H29 H 0.86472 0.56162 0.36449 0.0
H30 H 0.83145 0.56551 0.5165 0.0
H31 H 0.79709 0.56825 0.4678 0.0
H32 H 0.68391 0.52491 0.16251 0.0
H33 H 0.70975 0.53019 0.23293 0.0
H34 H 0.70965 0.57554 0.05618 0.0
H35 H 0.7356 0.5809 0.12752 0.0
H36 H 0.81973 0.52356 0.04247 0.0
H37 H 0.85217 0.58137 0.0432 0.0
H38 H 0.83299 0.58869 0.12485 0.0
H39 H 0.80073 0.53085 0.12523 0.0
C40 C 0.99507 0.80403 0.37727 0.0
C41 C 0.99609 0.82379 0.34657 0.0
C42 C 0.99414 0.84109 0.42957 0.0
C43 C 0.99559 0.84214 0.37244 0.0
C44 C 0.9933 0.82117 0.46 0.0
C45 C 0.99373 0.80285 0.43406 0.0
U46 U 1.0027 0.77609 0.25061 0.0
O47 O 0.01875 0.74525 0.24106 0.0
O48 O 0.98446 0.75115 0.22136 0.0
C49 C 1.00143 0.738 0.22126 0.0
C50 C 0.99544 0.78461 0.35058 0.0
C51 C 0.00428 0.72584 0.17388 0.0
C52 C 0.02363 0.69754 0.13307 0.0
C53 C 0.02203 0.7114 0.17284 0.0
C54 C 0.98993 0.7125 0.09347 0.0
C55 C 0.00743 0.69765 0.09334 0.0
C56 C 0.98834 0.72639 0.13331 0.0
C57 C 0.01672 0.81474 0.12151 0.0
C58 C 0.04343 0.82819 0.05708 0.0
C59 C 0.0057 0.83706 0.03887 0.0
C60 C 1.00049 0.8247 0.08667 0.0
C61 C 0.02727 0.83979 0.02498 0.0
C62 C 0.03821 0.81585 0.10506 0.0
C63 C 0.01156 0.80772 0.17878 0.0
O64 O 0.98011 0.78375 0.31452 0.0
O65 O 0.01435 0.77806 0.33394 0.0
O66 O 0.02631 0.7963 0.20883 0.0
O67 O 0.9919 0.80225 0.18962 0.0
H68 H 0.99716 0.82501 0.30258 0.0
H69 H 0.99601 0.85717 0.34757 0.0
H70 H 0.99255 0.81967 0.50402 0.0
H71 H 0.99306 0.78773 0.45843 0.0
H72 H 0.03719 0.68618 0.13485 0.0
H73 H 0.03439 0.7103 0.20406 0.0
H74 H 0.9773 0.71325 0.06307 0.0
H75 H 0.97433 0.73716 0.13307 0.0
H76 H 0.06018 0.82969 0.04695 0.0
H77 H 0.99282 0.8459 0.01549 0.0
H78 H 0.9838 0.82438 0.09839 0.0
H79 H 0.05113 0.80845 0.13109 0.0
C80 C 0.71968 0.98095 0.34341 0.0
C81 C 0.7004 0.97769 0.3171 0.0
C82 C 0.68043 0.98271 0.39978 0.0
C83 C 0.68095 0.97853 0.34506 0.0
C84 C 0.69988 0.98596 0.42573 0.0
C85 C 0.71929 0.98507 0.39779 0.0
U86 U 0.75097 0.97875 0.21225 0.0
O87 O 0.77785 0.9974 0.18171 0.0
O88 O 0.78241 0.96294 0.19837 0.0
C89 C 0.79112 0.98073 0.18167 0.0
C90 C 0.74017 0.98077 0.31418 0.0
C91 C 0.80665 0.98057 0.137 0.0
C92 C 0.84411 0.97773 0.1115 0.0
C93 C 0.82833 0.97678 0.1513 0.0
C94 C 0.81673 0.98592 0.04153 0.0
C95 C 0.83864 0.98231 0.05598 0.0
C96 C 0.80083 0.98508 0.08181 0.0
C97 C 0.71168 0.97516 0.08781 0.0
C98 C 0.70059 0.99507 1.00181 0.0
C99 C 0.68327 0.96314 0.03395 0.0
C100 C 0.69694 0.96013 0.07925 0.0
C101 C 0.68411 0.98132 0.99652 0.0
C102 C 0.71427 0.99204 0.04722 0.0
C103 C 0.71958 0.97567 0.14375 0.0
O104 O 0.74604 0.96306 0.29493 0.0
O105 O 0.74282 0.99745 0.27928 0.0
O106 O 0.72586 0.9937 0.15678 0.0
O107 O 0.73049 0.95908 0.16829 0.0
H108 H 0.70041 0.97456 0.27494 0.0
H109 H 0.66635 0.97573 0.32395 0.0
H110 H 0.70009 0.98957 0.46745 0.0
H111 H 0.734 0.9878 0.41855 0.0
H112 H 0.86071 0.9754 0.12467 0.0
H113 H 0.83315 0.97349 0.19372 0.0
H114 H 0.81188 0.98936 0.99922 0.0
H115 H 0.78413 0.98814 0.07001 0.0
H116 H 0.70188 0.00899 0.97293 0.0
H117 H 0.67074 0.95228 0.03125 0.0
H118 H 0.69457 0.94706 0.11019 0.0
H119 H 0.72561 1.00383 0.05267 0.0
C120 C 0.50029 0.70839 0.33664 0.0
C121 C 0.48429 0.694 0.33302 0.0
C122 C 0.50164 0.66998 0.40599 0.0
C123 C 0.48493 0.67501 0.36753 0.0
C124 C 0.51784 0.68423 0.40853 0.0
C125 C 0.51712 0.70323 0.37434 0.0
U126 U 0.49211 0.74632 0.20348 0.0
O127 O 0.47567 0.7779 0.19287 0.0
O128 O 0.51024 0.77407 0.17731 0.0
C129 C 0.49311 0.78705 0.17562 0.0
C130 C 0.49926 0.72932 0.30428 0.0
C131 C 0.49068 0.80351 0.12855 0.0
C132 C 0.47671 0.83877 0.09481 0.0
C133 C 0.47693 0.8212 0.13382 0.0
C134 C 0.50319 0.82092 0.04237 0.0
C135 C 0.4903 0.83911 0.04953 0.0
C136 C 0.50346 0.80326 0.08174 0.0
C137 C 0.48036 0.70802 0.08802 0.0
C138 C 0.49042 0.69443 0.00361 0.0
C139 C 0.46428 0.67697 0.06246 0.0
C140 C 0.46582 0.69219 0.0982 0.0
C141 C 0.47704 0.67756 0.01549 0.0
C142 C 0.49227 0.70936 0.03994 0.0
C143 C 0.48457 0.72181 0.12972 0.0
O144 O 0.51466 0.73289 0.26886 0.0
O145 O 0.48027 0.73684 0.28579 0.0
O146 O 0.46909 0.72968 0.1586 0.0
O147 O 0.50404 0.72717 0.14015 0.0
H148 H 0.47115 0.69753 0.30413 0.0
H149 H 0.47235 0.66426 0.36412 0.0
H150 H 0.53079 0.68098 0.43805 0.0
H151 H 0.52955 0.71413 0.37809 0.0
H152 H 0.46634 0.85241 0.10097 0.0
H153 H 0.46695 0.82179 0.16948 0.0
H154 H 0.51383 0.82074 0.00788 0.0
H155 H 0.51425 0.78982 0.07656 0.0
H156 H 0.50003 0.69572 0.96711 0.0
H157 H 0.45398 0.66414 0.07337 0.0
H158 H 0.45656 0.69088 0.13532 0.0
H159 H 0.50343 0.72163 0.03116 0.0
C160 C 0.19727 0.46692 0.15802 0.0
C161 C 0.18042 0.45399 0.17437 0.0
C162 C 0.15869 0.46986 0.09644 0.0
C163 C 0.16135 0.4554 0.14374 0.0
C164 C 0.17555 0.48294 0.08098 0.0
C165 C 0.1946 0.48137 0.11119 0.0
U166 U 0.22831 0.46651 0.29182 0.0
O167 O 0.25903 0.45007 0.32006 0.0
O168 O 0.25608 0.48464 0.30684 0.0
C169 C 0.26844 0.46777 0.32297 0.0
C170 C 0.21755 0.46614 0.1893 0.0
C171 C 0.28232 0.46889 0.3707 0.0
C172 C 0.31831 0.46454 0.40939 0.0
C173 C 0.30384 0.46167 0.36811 0.0
C174 C 0.28974 0.48134 0.45777 0.0
C175 C 0.31157 0.47468 0.45443 0.0
C176 C 0.27521 0.47848 0.4162 0.0
C177 C 0.19127 0.46831 0.41945 0.0
C178 C 0.18574 0.48941 0.49433 0.0
C179 C 0.1658 0.45827 0.49028 0.0
C180 C 0.17659 0.45427 0.44294 0.0
C181 C 0.16948 0.47647 0.51491 0.0
C182 C 0.19657 0.48538 0.44685 0.0
C183 C 0.19709 0.46709 0.36223 0.0
O184 O 0.22128 0.48343 0.21067 0.0
O185 O 0.2225 0.44891 0.22224 0.0
O186 O 0.20677 0.44953 0.34987 0.0
O187 O 0.20404 0.48415 0.3347 0.0
H188 H 0.18197 0.44281 0.21071 0.0
H189 H 0.14881 0.44499 0.15682 0.0
H190 H 0.17398 0.49467 0.0458 0.0
H191 H 0.20727 0.49166 0.09814 0.0
H192 H 0.33499 0.45948 0.40487 0.0
H193 H 0.30965 0.45439 0.33309 0.0
H194 H 0.28392 0.48895 0.49223 0.0
H195 H 0.25862 0.48416 0.41898 0.0
H196 H 0.18916 0.50335 0.51303 0.0
H197 H 0.15327 0.44805 0.50469 0.0
H198 H 0.17216 0.44109 0.42231 0.0
H199 H 0.20797 0.4964 0.42973 0.0
C200 C 0.01472 0.22805 0.16881 0.0
C201 C 0.0217 0.20855 0.19695 0.0
C202 C 0.01577 0.19111 0.11583 0.0
C203 C 0.02232 0.1903 0.17068 0.0
C204 C 0.00844 0.21069 0.08824 0.0
C205 C 0.00798 0.22894 0.11445 0.0
U206 U 0.00934 0.25623 0.29603 0.0
O207 O 0.02801 0.28174 0.32099 0.0
O208 O 0.99314 0.2867 0.30827 0.0
C209 C 0.01093 0.29456 0.32341 0.0
C210 C 0.01444 0.24755 0.19545 0.0
C211 C 0.00978 0.30706 0.37005 0.0
C212 C 0.0217 0.33728 0.41066 0.0
C213 C 0.02331 0.32378 0.37017 0.0
C214 C 0.99316 0.3173 0.45281 0.0
C215 C 0.00649 0.33438 0.45236 0.0
C216 C 0.99478 0.30375 0.41201 0.0
C217 C 0.99875 0.21718 0.42737 0.0
C218 C 0.97291 0.20518 0.49588 0.0
C219 C 0.01021 0.19279 0.50602 0.0
C220 C 0.01506 0.20532 0.45818 0.0
C221 C 0.98889 0.19178 0.52384 0.0
C222 C 0.97777 0.21774 0.44797 0.0
C223 C 1.00278 0.22446 0.36964 0.0
O224 O 0.99581 0.25365 0.21469 0.0
O225 O 0.03052 0.24908 0.22891 0.0
O226 O 0.02204 0.23054 0.35638 0.0
O227 O 0.98724 0.23541 0.34137 0.0
H228 H 0.02686 0.20744 0.23912 0.0
H229 H 0.0283 0.17563 0.19319 0.0
H230 H 1.00286 0.21193 0.04643 0.0
H231 H 1.00236 0.24381 0.09217 0.0
H232 H 0.032 0.35039 0.40822 0.0
H233 H 0.03487 0.32673 0.33796 0.0
H234 H 0.98145 0.31439 0.48463 0.0
H235 H 0.98415 0.29093 0.41286 0.0
H236 H 0.95639 0.20496 0.50915 0.0
H237 H 0.02289 0.18254 0.52627 0.0
H238 H 0.03132 0.20435 0.44306 0.0
H239 H 0.96478 0.22666 0.42517 0.0
C240 C 0.2854 0.06241 0.19996 0.0
C241 C 0.30479 0.06561 0.22579 0.0
C242 C 0.32443 0.06074 0.14253 0.0
C243 C 0.32412 0.06485 0.19732 0.0
C244 C 0.30486 0.05761 0.11696 0.0
C245 C 0.28556 0.05845 0.14544 0.0
U246 U 0.25586 0.06185 0.33378 0.0
O247 O 0.22527 0.07795 0.35391 0.0
O248 O 0.22877 0.04337 0.36335 0.0
C249 C 0.21636 0.06017 0.36976 0.0
C250 C 0.2651 0.06233 0.23013 0.0
C251 C 0.20264 0.05953 0.41866 0.0
C252 C 0.17014 0.07309 0.45975 0.0
C253 C 0.18604 0.07514 0.42016 0.0
C254 C 0.18768 0.0402 0.49925 0.0
C255 C 0.17036 0.05527 0.49873 0.0
C256 C 0.20365 0.04226 0.45947 0.0
C257 C 0.29633 0.06129 0.45708 0.0
C258 C 0.30699 0.03967 0.54104 0.0
C259 C 0.32421 0.07218 0.51459 0.0
C260 C 0.31089 0.07608 0.46872 0.0
C261 C 0.32321 0.05334 0.54952 0.0
C262 C 0.29365 0.04359 0.49507 0.0
C263 C 0.28838 0.06228 0.40068 0.0
O264 O 0.26228 0.04497 0.26243 0.0
O265 O 0.25995 0.07945 0.25292 0.0
O266 O 0.27781 0.07958 0.37906 0.0
O267 O 0.28133 0.04496 0.38497 0.0
H268 H 0.30498 0.06859 0.26806 0.0
H269 H 0.33879 0.06759 0.21819 0.0
H270 H 0.30448 0.05406 0.07521 0.0
H271 H 0.27076 0.05575 0.12503 0.0
H272 H 0.15725 0.08518 0.45873 0.0
H273 H 0.18478 0.08853 0.38903 0.0
H274 H 0.1883 0.02624 0.52853 0.0
H275 H 0.21618 0.02988 0.4593 0.0
H276 H 0.30559 0.02523 0.56793 0.0
H277 H 0.33658 0.083 0.51973 0.0
H278 H 0.31333 0.08977 0.43982 0.0
H279 H 0.28244 0.03196 0.48726 0.0
C280 C 0.50832 0.31995 0.20063 0.0
C281 C 0.50788 0.33906 0.22336 0.0
C282 C 0.50588 0.3586 0.13252 0.0
C283 C 0.50668 0.35823 0.1896 0.0
C284 C 0.5065 0.33932 0.11022 0.0
C285 C 0.50768 0.32022 0.14396 0.0
U286 U 0.51233 0.28817 0.34069 0.0
O287 O 0.49567 0.26003 0.37278 0.0
O288 O 0.53087 0.25831 0.36592 0.0
C289 C 0.51362 0.24825 0.38041 0.0
C290 C 0.50943 0.29964 0.23532 0.0
C291 C 0.51539 0.23203 0.42816 0.0
C292 C 0.52998 0.19721 0.46445 0.0
C293 C 0.52991 0.21471 0.4252 0.0
C294 C 0.50148 0.2143 0.51227 0.0
C295 C 0.51558 0.19655 0.50826 0.0
C296 C 0.50131 0.23184 0.47246 0.0
C297 C 0.51475 0.32688 0.45553 0.0
C298 C 0.53601 0.34183 0.52257 0.0
C299 C 0.49788 0.35079 0.51415 0.0
C300 C 0.49636 0.33748 0.47373 0.0
C301 C 0.51785 0.35376 0.5377 0.0
C302 C 0.53451 0.32861 0.48158 0.0
C303 C 0.51379 0.31873 0.40218 0.0
O304 O 0.52776 0.29457 0.26101 0.0
O305 O 0.49269 0.29594 0.26631 0.0
O306 O 0.49575 0.31117 0.38768 0.0
O307 O 0.53108 0.30937 0.38356 0.0
H308 H 0.50836 0.33913 0.26716 0.0
H309 H 0.50603 0.37274 0.20822 0.0
H310 H 0.50632 0.33896 0.06654 0.0
H311 H 0.50812 0.30561 0.12573 0.0
H312 H 0.54078 0.18382 0.45892 0.0
H313 H 0.54067 0.2143 0.39094 0.0
H314 H 0.49035 0.21455 0.54572 0.0
H315 H 0.48981 0.24493 0.4756 0.0
H316 H 0.55158 0.34341 0.54061 0.0
H317 H 0.48356 0.35988 0.52389 0.0
H318 H 0.48098 0.33681 0.45378 0.0
H319 H 0.54905 0.32081 0.46812 0.0
Co320 Co 0.01006 0.02266 0.81061 0.0
C321 C 0.96856 0.00795 0.82165 0.0
Co322 Co 0.99777 0.00897 0.7384 0.0
C323 C 0.02025 0.05502 0.87948 0.0
C324 C 0.0206 0.02424 0.92335 0.0
N325 N 0.01844 0.0345 0.87268 0.0
N326 N 0.02322 0.05793 0.93234 0.0
C327 C 0.02358 0.03848 0.9598 0.0
H328 H 0.0187 0.06765 0.84649 0.0
H329 H 0.01886 0.00758 0.93384 0.0
C330 C 0.03925 0.02363 0.72719 0.0
N331 N 0.98905 0.99686 0.67637 0.0
C332 C 0.99317 0.97687 0.66462 0.0
C333 C 0.97847 1.00654 0.63182 0.0
N334 N 0.98573 0.97381 0.61493 0.0
C335 C 0.97647 0.9925 0.5942 0.0
C336 C 0.98833 0.05166 0.73468 0.0
O337 O 0.03646 0.02897 0.77494 0.0
O338 O 0.02446 0.01457 0.70497 0.0
O339 O 0.98652 0.03598 0.70824 0.0
O340 O 0.99772 0.049 0.7807 0.0
O341 O 0.97098 1.00358 0.77297 0.0
H342 H 0.97272 0.02287 0.62621 0.0
H343 H 1.00203 0.96481 0.69112 0.0
O344 O 0.98368 0.01612 0.84493 0.0
O345 O 0.02233 0.99602 0.83975 0.0
O346 O 0.00935 0.98244 0.77013 0.0
C347 C 0.01976 0.98011 0.81473 0.0
H348 H 0.02464 0.0348 0.00359 0.0
H349 H 0.96872 0.99582 0.55469 0.0
Co350 Co 0.49722 0.02382 0.81282 0.0
C351 C 0.49839 0.97977 0.82036 0.0
Co352 Co 0.50877 0.01037 0.73858 0.0
C353 C 0.4664 0.04093 0.88722 0.0
C354 C 0.49654 0.03137 0.92598 0.0
N355 N 0.48658 0.03359 0.87695 0.0
N356 N 0.46331 0.04302 0.94054 0.0
C357 C 0.4824 0.03717 0.96483 0.0
H358 H 0.45394 0.04402 0.85653 0.0
H359 H 0.51269 0.02473 0.93403 0.0
C360 C 0.50743 0.05452 0.7312 0.0
N361 N 0.51958 1.00015 0.67617 0.0
C362 C 0.53879 1.00398 0.65324 0.0
C363 C 0.51096 0.98648 0.64598 0.0
N364 N 0.54268 0.99309 0.61033 0.0
C365 C 0.52509 0.98215 0.60542 0.0
C366 C 0.46511 0.01911 0.73747 0.0
O367 O 0.50022 0.05184 0.77954 0.0
O368 O 0.51244 0.03851 0.70674 0.0
O369 O 0.48044 0.01214 0.70959 0.0
O370 O 0.4691 0.02467 0.78392 0.0
O371 O 0.50502 0.98234 0.77154 0.0
H372 H 0.49565 0.97967 0.65383 0.0
H373 H 0.54984 0.01445 0.66822 0.0
O374 O 0.49417 0.99582 0.8451 0.0
O375 O 0.5259 0.0227 0.84027 0.0
O376 O 0.53675 0.00862 0.76787 0.0
C377 C 0.541 0.01487 0.81326 0.0
H378 H 0.48564 0.03586 0.00814 0.0
H379 H 0.5229 0.97118 0.57595 0.0
Co380 Co 0.52053 0.51711 0.78177 0.0
C381 C 0.50219 0.48918 0.85985 0.0
Co382 Co 0.48569 0.51472 0.76851 0.0
C383 C 0.55991 0.52401 0.83818 0.0
C384 C 0.56543 0.51711 0.75651 0.0
N385 N 0.5497 0.51959 0.79288 0.0
N386 N 0.58138 0.52422 0.83153 0.0
C387 C 0.58488 0.51982 0.78019 0.0
H388 H 0.55179 0.52666 0.87564 0.0
H389 H 0.56291 0.51354 0.71533 0.0
C390 C 0.50409 0.54268 0.6905 0.0
N391 N 0.45654 0.51225 0.75786 0.0
C392 C 0.44607 0.5087 0.71215 0.0
C393 C 0.44118 0.51308 0.79584 0.0
N394 N 0.42474 0.50727 0.72012 0.0
C395 C 0.42168 0.51004 0.77287 0.0
C396 C 0.49493 0.54603 0.83074 0.0
O397 O 0.52095 0.53738 0.71901 0.0
O398 O 0.48672 0.53404 0.7039 0.0
O399 O 0.47969 0.53762 0.80888 0.0
O400 O 0.51413 0.53905 0.82495 0.0
O401 O 0.48508 0.49537 0.83324 0.0
H402 H 0.44403 0.51545 0.83781 0.0
H403 H 0.45401 0.50726 0.67379 0.0
O404 O 0.51979 0.4969 0.84443 0.0
O405 O 0.52654 0.49488 0.73833 0.0
O406 O 0.49189 0.49185 0.72877 0.0
C407 C 0.51108 0.48557 0.72026 0.0
H408 H 0.6004 0.51889 0.76092 0.0
H409 H 0.40653 0.50942 0.79395 0.0
Co410 Co 0.00696 0.53203 0.77747 0.0
C411 C 0.02831 0.5034 0.85575 0.0
Co412 Co 1.00046 0.49875 0.77128 0.0
C413 C 0.00992 0.56915 0.83275 0.0
C414 C 0.0178 0.57502 0.74838 0.0
N415 N 0.01182 0.55978 0.78654 0.0
N416 N 0.01449 0.58966 0.82502 0.0
C417 C 0.01949 0.59335 0.77185 0.0
H418 H 0.00544 0.56097 0.87147 0.0
H419 H 0.0206 0.57297 0.7061 0.0
C420 C 0.9793 0.52749 0.69263 0.0
N421 N 0.99562 0.47099 0.76206 0.0
C422 C 0.99801 0.46165 0.71591 0.0
C423 C 0.98918 0.45575 0.79962 0.0
N424 N 0.99334 0.44118 0.72309 0.0
C425 C 0.98772 0.43746 0.77583 0.0
C426 C 0.97111 0.51783 0.83443 0.0
O427 O 0.98876 0.5411 0.71611 0.0
O428 O 0.98266 0.50809 0.70976 0.0
O429 O 0.97607 0.50041 0.81648 0.0
O430 O 0.98285 0.53325 0.82298 0.0
O431 O 0.01856 0.48967 0.83336 0.0
H432 H 0.98592 0.45777 0.84171 0.0
H433 H 1.00293 0.46983 0.6776 0.0
O434 O 0.02495 0.52274 0.8381 0.0
O435 O 0.03126 0.53042 0.7317 0.0
O436 O 0.02467 0.49746 0.72637 0.0
C437 C 0.03631 0.5129 0.71434 0.0
H438 H 0.02367 0.60833 0.75097 0.0
H439 H 0.9833 0.42247 0.79618 0.0
H440 H 0.12793 0.06205 0.47216 0.0
H441 H 0.1703 0.03988 0.6076 0.0
H442 H 0.09704 0.05509 0.52956 0.0
H443 H 0.1391 0.0323 0.66507 0.0
H444 H 0.07531 0.04155 0.76115 0.0
H445 H 0.10753 0.0497 0.70812 0.0
H446 H 0.08041 0.02376 0.57132 0.0
H447 H 0.0484 0.01588 0.62349 0.0
C448 C 0.13068 0.05589 0.51441 0.0
C449 C 0.15165 0.05164 0.53528 0.0
C450 C 0.11292 0.05164 0.54719 0.0
C451 C 0.11558 0.04299 0.60183 0.0
C452 C 0.13652 0.03908 0.62321 0.0
C453 C 0.15437 0.04325 0.59019 0.0
C454 C 0.07628 0.03758 0.71978 0.0
C455 C 0.05921 0.02815 0.69656 0.0
C456 C 0.09477 0.04215 0.68952 0.0
C457 C 0.09646 0.03753 0.63534 0.0
C458 C 0.07949 0.02786 0.61259 0.0
C459 C 0.06115 0.02323 0.64273 0.0
H460 H 0.48022 0.17925 0.55839 0.0
H461 H 0.54904 0.16908 0.54714 0.0
H462 H 0.47874 0.14575 0.61593 0.0
H463 H 0.54729 0.13534 0.60278 0.0
H464 H 0.52983 0.06575 0.63874 0.0
H465 H 0.53196 0.10073 0.58912 0.0
H466 H 0.49127 0.12693 0.70818 0.0
H467 H 0.4892 0.09183 0.75829 0.0
C468 C 0.49508 0.17012 0.56868 0.0
C469 C 0.51475 0.17697 0.54746 0.0
C470 C 0.49418 0.15083 0.60152 0.0
C471 C 0.51287 0.13781 0.61346 0.0
C472 C 0.53256 0.14485 0.59356 0.0
C473 C 0.53352 0.16422 0.56141 0.0
C474 C 0.52142 0.07896 0.65458 0.0
C475 C 0.50938 0.07599 0.70258 0.0
C476 C 0.52272 0.09903 0.62625 0.0
C477 C 0.51181 0.11661 0.64477 0.0
C478 C 0.49976 0.11367 0.69276 0.0
C479 C 0.4987 0.0936 0.72161 0.0
H480 H 0.34576 0.44919 0.49723 0.0
H481 H 0.31385 0.51033 0.50535 0.0
H482 H 0.37322 0.45738 0.56048 0.0
H483 H 0.34126 0.51846 0.5688 0.0
H484 H 0.38199 0.51737 0.72303 0.0
H485 H 0.35448 0.50895 0.66063 0.0
H486 H 0.40305 0.47994 0.56504 0.0
H487 H 0.43057 0.48759 0.62891 0.0
C488 C 0.34461 0.46441 0.51235 0.0
C489 C 0.32754 0.4791 0.49603 0.0
C490 C 0.36041 0.46912 0.54857 0.0
C491 C 0.35954 0.48862 0.5696 0.0
C492 C 0.34231 0.50319 0.55397 0.0
C493 C 0.32652 0.49849 0.51767 0.0
C494 C 0.38686 0.50903 0.68905 0.0
C495 C 0.40858 0.50307 0.68139 0.0
C496 C 0.37105 0.50442 0.65281 0.0
C497 C 0.3765 0.49374 0.60777 0.0
C498 C 0.39823 0.48795 0.59968 0.0
C499 C 0.41408 0.49258 0.63599 0.0
H500 H 0.03844 0.35351 0.50127 0.0
H501 H 0.96956 0.34988 0.49763 0.0
H502 H 0.03481 0.37968 0.56515 0.0
H503 H 0.966 0.37591 0.56217 0.0
H504 H 0.97051 0.40647 0.7214 0.0
H505 H 0.97361 0.38047 0.65682 0.0
H506 H 0.02175 0.41614 0.56888 0.0
H507 H 0.01908 0.44184 0.63446 0.0
C508 C 0.02249 0.35834 0.51382 0.0
C509 C 0.00429 0.34955 0.49395 0.0
C510 C 0.02042 0.3734 0.5505 0.0
C511 C 1.00011 0.38002 0.56867 0.0
C512 C 0.98191 0.37102 0.54952 0.0
C513 C 0.98397 0.35601 0.51259 0.0
C514 C 0.98185 0.40872 0.68852 0.0
C515 C 0.99461 0.42624 0.68341 0.0
C516 C 0.98346 0.39391 0.65109 0.0
C517 C 0.99797 0.39614 0.60766 0.0
C518 C 0.01059 0.41378 0.6022 0.0
C519 C 0.00889 0.42866 0.63949 0.0
H520 H 0.87633 0.95822 0.05535 0.0
H521 H 0.84054 0.01001 0.96211 0.0
H522 H 0.90691 0.96395 0.99577 0.0
H523 H 0.87109 0.01503 0.9009 0.0
H524 H 0.92868 1.0017 0.78089 0.0
H525 H 0.89587 0.99448 0.8329 0.0
H526 H 0.93097 0.99622 0.98276 0.0
H527 H 0.96342 1.00377 0.93138 0.0
C528 C 0.87488 0.97077 0.02205 0.0
C529 C 0.85601 0.98392 0.01443 0.0
C530 C 0.8924 0.97394 0.98772 0.0
C531 C 0.89142 0.99006 0.94412 0.0
C532 C 0.87221 1.00244 0.9342 0.0
C533 C 0.8547 0.99949 0.96919 0.0
C534 C 0.92933 1.00052 0.82493 0.0
C535 C 0.94863 1.0033 0.85203 0.0
C536 C 0.91057 0.99649 0.85458 0.0
C537 C 0.91095 0.9947 0.91179 0.0
C538 C 0.93027 0.99734 0.93871 0.0
C539 C 0.94883 1.00176 0.90922 0.0
H540 H 0.49046 0.84512 0.93728 0.0
H541 H 0.49476 0.87805 0.07933 0.0
H542 H 0.49182 0.87861 0.87866 0.0
H543 H 0.49678 0.91112 0.02164 0.0
H544 H 0.47685 0.9696 0.91424 0.0
H545 H 0.4746 0.93527 0.96584 0.0
H546 H 0.51337 0.90721 0.84573 0.0
H547 H 0.51485 0.94177 0.79259 0.0
C548 C 0.49185 0.85949 0.95589 0.0
C549 C 0.49209 0.85902 0.01289 0.0
C550 C 0.49271 0.87867 0.92239 0.0
C551 C 0.49404 0.89771 0.94529 0.0
C552 C 0.49505 0.89697 0.00235 0.0
C553 C 0.49397 0.87795 0.03558 0.0
C554 C 0.48481 0.95611 0.89855 0.0
C555 C 0.49615 0.95846 0.84946 0.0
C556 C 0.48366 0.93638 0.92845 0.0
C557 C 0.49412 0.9184 0.91063 0.0
C558 C 0.50502 0.92064 0.86065 0.0
C559 C 0.50595 0.94046 0.83025 0.0
H560 H 0.68287 0.51243 0.07299 0.0
H561 H 0.66984 0.57959 0.03934 0.0
H562 H 0.65498 0.50665 0.00811 0.0
H563 H 0.64206 0.57375 0.97335 0.0
H564 H 0.57773 0.55118 0.90835 0.0
H565 H 0.60547 0.55805 0.97354 0.0
H566 H 0.64899 0.5128 0.90791 0.0
H567 H 0.62135 0.50595 0.84334 0.0
C568 C 0.67406 0.52598 0.05166 0.0
C569 C 0.67857 0.54648 0.06146 0.0
C570 C 0.65818 0.52266 0.01418 0.0
C571 C 0.6463 0.53974 0.98563 0.0
C572 C 0.65082 0.56027 0.99511 0.0
C573 C 0.66689 0.56362 0.0324 0.0
C574 C 0.5932 0.54265 0.90823 0.0
C575 C 0.5974 0.52804 0.87077 0.0
C576 C 0.60913 0.54672 0.9451 0.0
C577 C 0.62943 0.53597 0.94581 0.0
C578 C 0.63349 0.52124 0.90862 0.0
C579 C 0.61772 0.51742 0.87138 0.0
H580 H 0.97452 0.67631 0.0559 0.0
H581 H 0.04279 0.68283 0.04054 0.0
H582 H 0.97634 0.65012 0.99169 0.0
H583 H 0.04477 0.65597 0.97838 0.0
H584 H 0.03697 0.62472 0.82327 0.0
H585 H 0.03496 0.65075 0.88754 0.0
H586 H 0.98915 0.61443 0.98277 0.0
H587 H 0.99055 0.58875 0.91705 0.0
C588 C 0.98991 0.67225 0.03869 0.0
C589 C 0.00849 0.68183 0.05334 0.0
C590 C 0.99101 0.65697 0.00242 0.0
C591 C 0.01071 0.65084 0.97977 0.0
C592 C 0.02927 0.66043 0.99443 0.0
C593 C 0.02817 0.67571 0.03063 0.0
C594 C 0.02632 0.62233 0.85761 0.0
C595 C 0.01385 0.60463 0.86464 0.0
C596 C 0.02536 0.63717 0.89495 0.0
C597 C 0.01189 0.63476 0.9405 0.0
C598 C 0.99952 0.61696 0.94787 0.0
C599 C 1.00052 0.60207 0.91047 0.0
H600 H 0.95522 0.16664 0.52069 0.0
H601 H 0.00993 0.1772 0.6194 0.0
H602 H 0.94967 0.13402 0.5784 0.0
H603 H 0.00484 0.14414 0.67594 0.0
H604 H 0.97495 0.06431 0.63012 0.0
H605 H 0.9704 0.1003 0.58629 0.0
H606 H 0.98226 0.12364 0.74016 0.0
H607 H 0.98718 0.08764 0.7839 0.0
C608 C 0.96571 0.16232 0.55562 0.0
C609 C 0.98309 0.17448 0.56537 0.0
C610 C 0.96268 0.14348 0.58823 0.0
C611 C 0.97694 0.1364 0.63128 0.0
C612 C 0.99346 0.14924 0.64329 0.0
C613 C 0.9965 0.16809 0.61066 0.0
C614 C 0.97613 0.07711 0.65483 0.0
C615 C 0.98173 0.07315 0.71024 0.0
C616 C 0.97343 0.09775 0.62978 0.0
C617 C 0.97618 0.11481 0.65974 0.0
C618 C 0.98039 0.11082 0.7159 0.0
C619 C 0.98313 0.09019 0.74092 0.0
H620 H 0.34374 0.07678 0.61788 0.0
H621 H 0.34391 0.01461 0.56611 0.0
H622 H 0.37736 0.06691 0.66761 0.0
H623 H 0.37708 1.00467 0.61681 0.0
H624 H 0.42976 0.03621 0.78432 0.0
H625 H 0.39382 0.04303 0.74554 0.0
H626 H 0.41448 0.01546 0.60163 0.0
H627 H 0.4505 0.0085 0.64045 0.0
C628 C 0.35072 0.06091 0.61805 0.0
C629 C 0.34116 0.04649 0.58809 0.0
C630 C 0.36989 0.05523 0.64668 0.0
C631 C 0.3799 0.03508 0.64559 0.0
C632 C 0.36983 0.02038 0.61778 0.0
C633 C 0.35066 0.02601 0.58943 0.0
C634 C 0.42664 0.03144 0.74457 0.0
C635 C 0.44302 0.02186 0.71535 0.0
C636 C 0.40606 0.03545 0.72233 0.0
C637 C 0.40138 0.0298 0.67062 0.0
C638 C 0.41759 0.01976 0.6419 0.0
C639 C 0.43823 0.01587 0.664 0.0
H640 H 0.55078 0.38024 0.54196 0.0
H641 H 0.48921 0.36643 0.61287 0.0
H642 H 0.5519 0.41076 0.59152 0.0
H643 H 0.48929 0.39795 0.65776 0.0
H644 H 0.49769 0.4483 0.76218 0.0
H645 H 0.50266 0.41474 0.72578 0.0
H646 H 0.53714 0.44495 0.58928 0.0
H647 H 0.53349 0.47823 0.62905 0.0
C648 C 0.53758 0.38352 0.5686 0.0
C649 C 0.51984 0.37083 0.57313 0.0
C650 C 0.53803 0.40134 0.59622 0.0
C651 C 0.52061 0.4071 0.62835 0.0
C652 C 0.50321 0.39399 0.63418 0.0
C653 C 0.50298 0.37598 0.60758 0.0
C654 C 0.50648 0.44758 0.72461 0.0
C655 C 0.51504 0.46563 0.69781 0.0
C656 C 0.50922 0.42842 0.70342 0.0
C657 C 0.51997 0.42706 0.6539 0.0
C658 C 0.52898 0.44524 0.62779 0.0
C659 C 0.52677 0.46435 0.65006 0.0
H660 H 0.1517 0.51608 0.51914 0.0
H661 H 0.1516 0.45269 0.60068 0.0
H662 H 0.12058 0.52617 0.57121 0.0
H663 H 0.12032 0.46285 0.65275 0.0
H664 H 0.04847 0.47918 0.66227 0.0
H665 H 0.08302 0.47147 0.62206 0.0
H666 H 0.10484 0.5308 0.66118 0.0
H667 H 0.0699 0.53874 0.70114 0.0
C668 C 0.1455 0.50446 0.5495 0.0
C669 C 0.15401 0.48351 0.55542 0.0
C670 C 0.12758 0.51025 0.57916 0.0
C671 C 0.11779 0.4952 0.61521 0.0
C672 C 0.12727 0.47466 0.62422 0.0
C673 C 0.1452 0.46886 0.59463 0.0
C674 C 0.06057 0.49067 0.66211 0.0
C675 C 0.05649 0.50956 0.68496 0.0
C676 C 0.08045 0.48613 0.63961 0.0
C677 C 0.09677 0.50034 0.63947 0.0
C678 C 0.09255 0.51954 0.66086 0.0
C679 C 0.07255 0.52412 0.68348 0.0
H680 H 0.05862 0.86753 0.03045 0.0
H681 H 0.00766 0.852 0.92603 0.0
H682 H 0.06247 0.90034 0.97242 0.0
H683 H 0.01073 0.88537 0.86963 0.0
H684 H 0.03304 0.96797 0.91936 0.0
H685 H 0.03997 0.93221 0.96268 0.0
H686 H 0.03079 0.90843 0.80803 0.0
H687 H 0.02325 0.94423 0.76503 0.0
C688 C 0.04862 0.87081 0.99429 0.0
C689 C 0.03267 0.85719 0.98317 0.0
C690 C 0.05063 0.8898 0.96146 0.0
C691 C 0.03667 0.89566 0.917 0.0
C692 C 0.02183 0.88133 0.90344 0.0
C693 C 0.01991 0.86227 0.93609 0.0
C694 C 0.03288 0.95514 0.89443 0.0
C695 C 0.02726 0.95887 0.83902 0.0
C696 C 0.03699 0.93462 0.91917 0.0
C697 C 0.03577 0.91742 0.88885 0.0
C698 C 0.03147 0.9213 0.83268 0.0
C699 C 0.0272 0.94182 0.80804 0.0
H700 H 0.66371 0.0201 0.97671 0.0
H701 H 0.66236 0.95672 0.93352 0.0
H702 H 0.63008 0.02953 0.92767 0.0
H703 H 0.6283 0.96612 0.88537 0.0
H704 H 0.55639 0.02656 0.90844 0.0
H705 H 0.59254 0.01941 0.94648 0.0
H706 H 0.61166 0.98908 0.80559 0.0
H707 H 0.57561 0.9961 0.76755 0.0
C708 C 0.65652 0.0083 0.95561 0.0
C709 C 0.66576 0.98766 0.95882 0.0
C710 C 0.63708 0.01365 0.92824 0.0
C711 C 0.62649 0.99851 0.90327 0.0
C712 C 0.63618 0.97813 0.90411 0.0
C713 C 0.65561 0.97273 0.9318 0.0
C714 C 0.56835 0.01854 0.88539 0.0
C715 C 0.56313 0.01188 0.83508 0.0
C716 C 0.58906 0.01452 0.90704 0.0
C717 C 0.60488 1.00368 0.87892 0.0
C718 C 0.59973 0.99729 0.82831 0.0
C719 C 0.5791 1.00142 0.8065 0.0
H720 H 0.51235 0.6608 0.96757 0.0
H721 H 0.44438 0.6532 0.9894 0.0
H722 H 0.51522 0.6297 0.92078 0.0
H723 H 0.4477 0.62088 0.94614 0.0
H724 H 0.45936 0.57297 0.8225 0.0
H725 H 0.45404 0.60575 0.86334 0.0
H726 H 0.5153 0.59314 0.94629 0.0
H727 H 0.52097 0.56103 0.90352 0.0
C728 C 0.49791 0.65267 0.96191 0.0
C729 C 0.47811 0.65958 0.98248 0.0
C730 C 0.49968 0.63452 0.93596 0.0
C731 C 0.4818 0.62252 0.93078 0.0
C732 C 0.4618 0.62976 0.94948 0.0
C733 C 0.45996 0.64817 0.97485 0.0
C734 C 0.47158 0.5772 0.84981 0.0
C735 C 0.49064 0.5646 0.85963 0.0
C736 C 0.46852 0.59594 0.87327 0.0
C737 C 0.48437 0.60223 0.90748 0.0
C738 C 0.50304 0.58909 0.91889 0.0
C739 C 0.50622 0.57058 0.89483 0.0
H740 H 0.85741 0.51268 0.03518 0.0
H741 H 0.85422 0.57539 0.94872 0.0
H742 H 0.88858 0.5033 0.98249 0.0
H743 H 0.88563 0.56597 0.89619 0.0
H744 H 0.95801 0.55207 0.8837 0.0
H745 H 0.92349 0.55909 0.925 0.0
H746 H 0.90358 0.4983 0.89191 0.0
H747 H 0.93843 0.49106 0.85087 0.0
C748 C 0.86291 0.52428 0.00371 0.0
C749 C 0.85342 0.54486 0.99649 0.0
C750 C 0.88087 0.5189 0.97369 0.0
C751 C 0.88975 0.53401 0.93599 0.0
C752 C 0.87938 0.55414 0.92593 0.0
C753 C 0.86137 0.55951 0.95583 0.0
C754 C 0.94634 0.54012 0.8854 0.0
C755 C 0.95092 0.52101 0.86397 0.0
C756 C 0.92647 0.54426 0.90853 0.0
C757 C 0.91071 0.5294 0.91078 0.0
C758 C 0.91544 0.51004 0.89063 0.0
C759 C 0.93539 0.50588 0.86736 0.0
H760 H 0.02654 0.18727 0.00945 0.0
H761 H 0.00724 0.15081 0.15755 0.0
H762 H 0.02849 0.15555 0.96349 0.0
H763 H 0.00966 0.1191 0.11176 0.0
H764 H 0.03956 0.06405 0.03077 0.0
H765 H 0.03748 0.09629 0.07398 0.0
H766 H 0.00539 0.1291 0.93144 0.0
H767 H 0.00713 0.0967 0.88823 0.0
C768 C 0.02251 0.17257 0.03218 0.0
C769 C 0.01676 0.17171 0.08743 0.0
C770 C 0.02369 0.15436 0.00575 0.0
C771 C 0.01933 0.13476 0.03397 0.0
C772 C 0.01347 0.13388 0.08905 0.0
C773 C 0.01214 0.1521 0.11538 0.0
C774 C 0.03192 0.07804 0.00857 0.0
C775 C 0.02338 0.07757 0.956 0.0
C776 C 0.03073 0.09657 0.03347 0.0
C777 C 0.0211 0.11525 0.00642 0.0
C778 C 0.01306 0.11502 0.95328 0.0
C779 C 0.01413 0.0964 0.92841 0.0
H780 H 0.33213 0.07494 0.03564 0.0
H781 H 0.36353 0.04336 0.1809 0.0
H782 H 0.36558 0.07178 0.98577 0.0
H783 H 0.397 0.04049 0.13114 0.0
H784 H 0.45814 0.05725 0.03928 0.0
H785 H 0.42469 0.06233 0.08773 0.0
H786 H 0.38934 0.04432 0.95179 0.0
H787 H 0.42273 0.03898 0.90349 0.0
C788 C 0.34611 0.06723 0.05694 0.0
C789 C 0.34505 0.05938 0.11239 0.0
C790 C 0.36531 0.06545 0.0283 0.0
C791 C 0.38398 0.05589 0.05443 0.0
C792 C 0.383 0.04823 0.10997 0.0
C793 C 0.36379 0.04991 0.13854 0.0
C794 C 0.44328 0.05429 0.01966 0.0
C795 C 0.4433 0.04759 0.9674 0.0
C796 C 0.42408 0.05721 0.04754 0.0
C797 C 0.40434 0.05363 0.0238 0.0
C798 C 0.40425 0.04745 0.97104 0.0
C799 C 0.42347 0.04443 0.94322 0.0
H800 H 0.5264 0.3948 0.14324 0.0
H801 H 0.48193 0.36847 0.03919 0.0
H802 H 0.52449 0.42761 0.08208 0.0
H803 H 0.48078 0.40079 0.97701 0.0
H804 H 0.46789 0.46737 0.89841 0.0
H805 H 0.46801 0.43706 0.96766 0.0
H806 H 0.53611 0.4411 0.99231 0.0
H807 H 0.53591 0.47171 0.92391 0.0
C808 C 0.51613 0.39602 0.10751 0.0
C809 C 0.50438 0.37891 0.09613 0.0
C810 C 0.51522 0.41476 0.07209 0.0
C811 C 0.50251 0.41689 0.02446 0.0
C812 C 0.49055 0.39987 0.01356 0.0
C813 C 0.49144 0.38117 0.04893 0.0
C814 C 0.48285 0.46196 0.91906 0.0
C815 C 0.5019 0.47197 0.90545 0.0
C816 C 0.48295 0.44445 0.95851 0.0
C817 C 0.5021 0.43648 0.98538 0.0
C818 C 0.52103 0.44689 0.97291 0.0
C819 C 0.52093 0.46442 0.93343 0.0
H820 H 0.11698 0.46603 0.1317 0.0
H821 H 0.15445 0.47761 0.98545 0.0
H822 H 0.08399 0.47188 0.07669 0.0
H823 H 0.12153 0.48445 0.93176 0.0
H824 H 0.05912 0.52773 0.88765 0.0
H825 H 0.08969 0.51711 0.94778 0.0
H826 H 0.06714 0.45453 0.97879 0.0
H827 H 0.03644 0.46494 0.91684 0.0
C828 C 0.11827 0.46952 0.08798 0.0
C829 C 0.13849 0.47165 0.06327 0.0
C830 C 0.09937 0.47292 0.05665 0.0
C831 C 0.10035 0.47873 1.00028 0.0
C832 C 0.12043 0.48015 0.97532 0.0
C833 C 0.13926 0.47643 0.00629 0.0
C834 C 0.0604 0.51175 0.90766 0.0
C835 C 0.04531 0.49716 0.8974 0.0
C836 C 0.07798 0.5057 0.9419 0.0
C837 C 0.0807 0.48505 0.96757 0.0
C838 C 0.06527 0.47057 0.95938 0.0
C839 C 0.04778 0.47653 0.92402 0.0
H840 H 0.97017 0.84988 0.51798 0.0
H841 H 0.01641 0.87669 0.4043 0.0
H842 H 0.96898 0.88166 0.5635 0.0
H843 H 0.01499 0.90859 0.44956 0.0
H844 H 0.98795 0.97062 0.50667 0.0
H845 H 0.99029 0.9385 0.46242 0.0
H846 H 0.99091 0.90138 0.61982 0.0
H847 H 0.98802 0.93359 0.66403 0.0
C848 C 0.98026 0.86244 0.50295 0.0
C849 C 0.99341 0.86062 0.45736 0.0
C850 C 0.97955 0.88071 0.52911 0.0
C851 C 0.99189 0.89771 0.51027 0.0
C852 C 0.00505 0.89592 0.46472 0.0
C853 C 0.00582 0.87762 0.43867 0.0
C854 C 0.98843 0.95562 0.53185 0.0
C855 C 0.98768 0.95472 0.58892 0.0
C856 C 0.99002 0.93718 0.50648 0.0
C857 C 0.99077 0.91733 0.53751 0.0
C858 C 0.99015 0.9164 0.59464 0.0
C859 C 0.9887 0.93487 0.62003 0.0
H860 H 0.67271 0.96795 0.50602 0.0
H861 H 0.64127 1.00009 0.36152 0.0
H862 H 0.63933 0.9708 0.556 0.0
H863 H 0.60778 1.00278 0.41156 0.0
H864 H 0.5468 0.98416 0.50606 0.0
H865 H 0.57992 0.98128 0.45449 0.0
H866 H 0.61588 0.99748 0.59169 0.0
H867 H 0.58295 0.99968 0.64369 0.0
C868 C 0.65873 0.97576 0.48495 0.0
C869 C 0.65977 0.98387 0.42972 0.0
C870 C 0.63956 0.97739 0.51366 0.0
C871 C 0.62088 0.98711 0.48791 0.0
C872 C 0.6218 0.99498 0.4325 0.0
C873 C 0.64102 0.9934 0.40377 0.0
C874 C 0.56179 0.987 0.52529 0.0
C875 C 0.56216 0.99215 0.57906 0.0
C876 C 0.58076 0.98555 0.49554 0.0
C877 C 0.60059 0.98911 0.51896 0.0
C878 C 0.60093 0.9944 0.57259 0.0
C879 C 0.58198 0.99593 0.60222 0.0
H880 H 0.53601 0.6427 0.43664 0.0
H881 H 0.46806 0.65274 0.46271 0.0
H882 H 0.53687 0.61113 0.50187 0.0
H883 H 0.46891 0.62147 0.52897 0.0
H884 H 0.4729 0.55472 0.61319 0.0
H885 H 0.47249 0.58438 0.54186 0.0
H886 H 0.53494 0.60001 0.59562 0.0
H887 H 0.53567 0.5699 0.66522 0.0
C888 C 0.52126 0.63821 0.45655 0.0
C889 C 0.50197 0.65025 0.44439 0.0
C890 C 0.52174 0.62011 0.49419 0.0
C891 C 0.50297 0.61365 0.52108 0.0
C892 C 0.48363 0.62565 0.50851 0.0
C893 C 0.48313 0.64365 0.47051 0.0
C894 C 0.48663 0.56437 0.60936 0.0
C895 C 0.50434 0.55987 0.64483 0.0
C896 C 0.48633 0.58153 0.56871 0.0
C897 C 0.50364 0.59477 0.56284 0.0
C898 C 0.52146 0.59005 0.59805 0.0
C899 C 0.52185 0.57278 0.63827 0.0
H900 H 0.86369 0.58284 0.53141 0.0
H901 H 0.88533 0.53652 0.42673 0.0
H902 H 0.89623 0.57517 0.58636 0.0
H903 H 0.91831 0.52957 0.48016 0.0
H904 H 0.95759 0.5022 0.63272 0.0
H905 H 0.92818 0.5123 0.56881 0.0
H906 H 0.93473 0.57769 0.58942 0.0
H907 H 0.964 0.5675 0.65461 0.0
C908 C 0.87546 0.57114 0.51981 0.0
C909 C 0.87175 0.56018 0.47484 0.0
C910 C 0.89428 0.56693 0.55095 0.0
C911 C 0.9099 0.55167 0.5379 0.0
C912 C 0.90651 0.54122 0.49185 0.0
C913 C 0.88768 0.54541 0.46077 0.0
C914 C 0.95295 0.51877 0.62325 0.0
C915 C 0.96313 0.53403 0.649 0.0
C916 C 0.93612 0.52458 0.58625 0.0
C917 C 0.929 0.54582 0.57396 0.0
C918 C 0.93962 0.56116 0.59846 0.0
C919 C 0.95652 0.55534 0.6355 0.0
loop_
_geom_bond_atom_site_label_1
_geom_bond_atom_site_label_2
_geom_bond_distance
_geom_bond_site_symmetry_2
_ccdc_geom_bond_type
C0 C1 1.264 . S
C0 C5 1.479 . S
C0 C10 1.465 . S
C1 C0 1.264 . S
C1 C3 1.339 . S
C1 H28 0.931 . S
C2 C3 1.395 . S
C2 C4 1.320 . S
C3 C1 1.339 . S
C3 C2 1.395 . S
C3 H29 0.929 . S
C4 C2 1.320 . S
C4 C5 1.405 . S
C4 H30 0.930 . S
C5 C0 1.479 . S
C5 C4 1.405 . S
C5 H31 0.931 . S
U6 O7 2.454 . S
U6 O8 2.458 . S
U6 C9 2.984 . S
U6 C10 2.847 . S
U6 C23 2.882 . S
U6 O24 2.441 . S
U6 O25 2.420 . S
U6 O26 2.455 . S
U6 O27 2.449 . S
O7 U6 2.454 . S
O7 C9 1.353 . S
O8 U6 2.458 . S
O8 C9 1.286 . S
C9 U6 2.984 . S
C9 O7 1.353 . S
C9 O8 1.286 . S
C9 C11 1.363 . S
C10 C0 1.465 . S
C10 U6 2.847 . S
C10 O24 1.249 . S
C10 O25 1.202 . S
C11 C9 1.363 . S
C11 C13 1.408 . S
C11 C16 1.342 . S
C12 C13 1.310 . S
C12 C15 1.461 . S
C12 H32 0.932 . S
C13 C11 1.408 . S
C13 C12 1.310 . S
C13 H33 0.930 . S
C14 C15 1.474 . S
C14 C16 1.285 . S
C14 H34 0.929 1_554 S
C15 C12 1.461 . S
C15 C14 1.474 . S
C16 C11 1.342 . S
C16 C14 1.285 . S
C16 H35 0.930 . S
C17 C20 1.424 . S
C17 C22 1.245 1_554 S
C17 C23 1.428 . S
C18 C21 1.260 . S
C18 C22 1.477 . S
C18 H36 0.932 . S
C19 C20 1.384 1_556 S
C19 C21 1.479 . S
C19 H37 0.929 1_556 S
C20 C17 1.424 . S
C20 C19 1.384 1_554 S
C20 H38 0.928 . S
C21 C18 1.260 . S
C21 C19 1.479 . S
C22 C17 1.245 1_556 S
C22 C18 1.477 . S
C22 H39 0.932 . S
C23 U6 2.882 . S
C23 C17 1.428 . S
C23 O26 1.301 . S
C23 O27 1.282 . S
O24 U6 2.441 . S
O24 C10 1.249 . S
O25 U6 2.420 . S
O25 C10 1.202 . S
O26 U6 2.455 . S
O26 C23 1.301 . S
O27 U6 2.449 . S
O27 C23 1.282 . S
H28 C1 0.931 . S
H29 C3 0.929 . S
H30 C4 0.930 . S
H31 C5 0.931 . S
H32 C12 0.932 . S
H33 C13 0.930 . S
H34 C14 0.929 1_556 S
H35 C16 0.930 . S
H36 C18 0.932 . S
H37 C19 0.929 1_554 S
H38 C20 0.928 . S
H39 C22 0.932 . S
C40 C41 1.264 . S
C40 C45 1.479 . S
C40 C50 1.465 . S
C41 C40 1.264 . S
C41 C43 1.339 . S
C41 H68 0.931 . S
C42 C43 1.395 . S
C42 C44 1.320 . S
C43 C41 1.339 . S
C43 C42 1.395 . S
C43 H69 0.929 . S
C44 C42 1.320 . S
C44 C45 1.405 . S
C44 H70 0.919 1_455 S
C45 C40 1.479 . S
C45 C44 1.405 . S
C45 H71 0.931 . S
U46 O47 2.454 . S
U46 O48 2.458 . S
U46 C49 2.984 . S
U46 C50 2.847 . S
U46 C63 2.882 . S
U46 O64 2.441 . S
U46 O65 2.420 . S
U46 O66 2.455 . S
U46 O67 2.449 . S
O47 U46 2.454 . S
O47 C49 1.353 . S
O48 U46 2.458 . S
O48 C49 1.286 . S
C49 U46 2.984 . S
C49 O47 1.353 . S
C49 O48 1.286 . S
C49 C51 1.363 . S
C50 C40 1.465 . S
C50 U46 2.847 . S
C50 O64 1.249 . S
C50 O65 1.202 . S
C51 C49 1.363 . S
C51 C53 1.408 . S
C51 C56 1.342 . S
C52 C53 1.310 . S
C52 C55 1.461 . S
C52 H72 0.932 . S
C53 C51 1.408 . S
C53 C52 1.310 . S
C53 H73 0.930 . S
C54 C55 1.475 1_655 S
C54 C56 1.284 1_655 S
C54 H74 0.930 1_554 S
C55 C52 1.461 . S
C55 C54 1.475 1_455 S
C56 C51 1.342 . S
C56 C54 1.284 1_455 S
C56 H75 0.931 . S
C57 C60 1.424 . S
C57 C62 1.245 1_554 S
C57 C63 1.428 . S
C58 C61 1.260 . S
C58 C62 1.477 . S
C58 H76 0.932 . S
C59 C60 1.384 1_556 S
C59 C61 1.479 . S
C59 H77 0.929 . S
C60 C57 1.424 . S
C60 C59 1.384 1_554 S
C60 H78 0.928 . S
C61 C58 1.260 . S
C61 C59 1.479 . S
C62 C57 1.245 1_556 S
C62 C58 1.477 . S
C62 H79 0.932 . S
C63 U46 2.882 . S
C63 C57 1.428 . S
C63 O66 1.301 . S
C63 O67 1.282 . S
O64 U46 2.441 . S
O64 C50 1.249 . S
O65 U46 2.420 . S
O65 C50 1.202 . S
O66 U46 2.455 . S
O66 C63 1.301 . S
O67 U46 2.449 . S
O67 C63 1.282 . S
H68 C41 0.931 . S
H69 C43 0.929 . S
H70 C44 0.919 1_655 S
H71 C45 0.931 . S
H72 C52 0.932 . S
H73 C53 0.930 . S
H74 C54 0.930 1_556 S
H75 C56 0.931 . S
H76 C58 0.932 . S
H77 C59 0.929 . S
H78 C60 0.928 . S
H79 C62 0.932 . S
C80 C81 1.264 . S
C80 C85 1.479 . S
C80 C90 1.465 . S
C81 C80 1.264 . S
C81 C83 1.339 . S
C81 H108 0.931 . S
C82 C83 1.395 . S
C82 C84 1.320 . S
C83 C81 1.339 . S
C83 C82 1.395 . S
C83 H109 0.929 . S
C84 C82 1.320 . S
C84 C85 1.405 . S
C84 H110 0.930 . S
C85 C80 1.479 . S
C85 C84 1.405 . S
C85 H111 0.931 . S
U86 O87 2.454 . S
U86 O88 2.458 . S
U86 C89 2.984 . S
U86 C90 2.847 . S
U86 C103 2.882 . S
U86 O104 2.441 . S
U86 O105 2.420 . S
U86 O106 2.455 . S
U86 O107 2.449 . S
O87 U86 2.454 . S
O87 C89 1.353 . S
O88 U86 2.458 . S
O88 C89 1.286 . S
C89 U86 2.984 . S
C89 O87 1.353 . S
C89 O88 1.286 . S
C89 C91 1.363 . S
C90 C80 1.465 . S
C90 U86 2.847 . S
C90 O104 1.249 . S
C90 O105 1.202 . S
C91 C89 1.363 . S
C91 C93 1.408 . S
C91 C96 1.342 . S
C92 C93 1.310 . S
C92 C95 1.461 . S
C92 H112 0.932 . S
C93 C91 1.408 . S
C93 C92 1.310 . S
C93 H113 0.930 . S
C94 C95 1.464 1_556 S
C94 C96 1.281 1_556 S
C94 H114 0.945 . S
C95 C92 1.461 . S
C95 C94 1.464 1_554 S
C96 C91 1.342 . S
C96 C94 1.281 1_554 S
C96 H115 0.930 1_554 S
C97 C100 1.424 1_556 S
C97 C102 1.245 . S
C97 C103 1.428 1_556 S
C98 C101 1.260 . S
C98 C102 1.477 . S
C98 H116 0.932 . S
C99 C100 1.384 1_556 S
C99 C101 1.479 . S
C99 H117 0.929 . S
C100 C97 1.424 1_554 S
C100 C99 1.384 1_554 S
C100 H118 0.928 . S
C101 C98 1.260 . S
C101 C99 1.479 . S
C102 C97 1.245 . S
C102 C98 1.477 . S
C102 H119 0.932 . S
C103 U86 2.882 . S
C103 C97 1.428 1_554 S
C103 O106 1.301 . S
C103 O107 1.282 . S
O104 U86 2.441 . S
O104 C90 1.249 . S
O105 U86 2.420 . S
O105 C90 1.202 . S
O106 U86 2.455 . S
O106 C103 1.301 . S
O107 U86 2.449 . S
O107 C103 1.282 . S
H108 C81 0.931 . S
H109 C83 0.929 . S
H110 C84 0.930 . S
H111 C85 0.931 . S
H112 C92 0.932 . S
H113 C93 0.930 . S
H114 C94 0.945 . S
H115 C96 0.930 1_556 S
H116 C98 0.932 . S
H117 C99 0.929 . S
H118 C100 0.928 . S
H119 C102 0.932 . S
C120 C121 1.264 . S
C120 C125 1.479 . S
C120 C130 1.465 . S
C121 C120 1.264 . S
C121 C123 1.339 . S
C121 H148 0.931 . S
C122 C123 1.395 . S
C122 C124 1.320 . S
C123 C121 1.339 . S
C123 C122 1.395 . S
C123 H149 0.929 . S
C124 C122 1.320 . S
C124 C125 1.405 . S
C124 H150 0.930 . S
C125 C120 1.479 . S
C125 C124 1.405 . S
C125 H151 0.931 . S
U126 O127 2.454 . S
U126 O128 2.458 . S
U126 C129 2.984 . S
U126 C130 2.847 . S
U126 C143 2.882 . S
U126 O144 2.441 . S
U126 O145 2.420 . S
U126 O146 2.455 . S
U126 O147 2.449 . S
O127 U126 2.454 . S
O127 C129 1.353 . S
O128 U126 2.458 . S
O128 C129 1.286 . S
C129 U126 2.984 . S
C129 O127 1.353 . S
C129 O128 1.286 . S
C129 C131 1.363 . S
C130 C120 1.465 . S
C130 U126 2.847 . S
C130 O144 1.249 . S
C130 O145 1.202 . S
C131 C129 1.363 . S
C131 C133 1.408 . S
C131 C136 1.342 . S
C132 C133 1.310 . S
C132 C135 1.461 . S
C132 H152 0.932 . S
C133 C131 1.408 . S
C133 C132 1.310 . S
C133 H153 0.930 . S
C134 C135 1.474 . S
C134 C136 1.285 . S
C134 H154 0.929 1_554 S
C135 C132 1.461 . S
C135 C134 1.474 . S
C136 C131 1.342 . S
C136 C134 1.285 . S
C136 H155 0.930 . S
C137 C140 1.424 . S
C137 C142 1.245 1_554 S
C137 C143 1.428 . S
C138 C141 1.260 . S
C138 C142 1.477 . S
C138 H156 0.932 . S
C139 C140 1.384 1_556 S
C139 C141 1.479 . S
C139 H157 0.929 1_556 S
C140 C137 1.424 . S
C140 C139 1.384 1_554 S
C140 H158 0.928 . S
C141 C138 1.260 . S
C141 C139 1.479 . S
C142 C137 1.245 1_556 S
C142 C138 1.477 . S
C142 H159 0.932 . S
C143 U126 2.882 . S
C143 C137 1.428 . S
C143 O146 1.301 . S
C143 O147 1.282 . S
O144 U126 2.441 . S
O144 C130 1.249 . S
O145 U126 2.420 . S
O145 C130 1.202 . S
O146 U126 2.455 . S
O146 C143 1.301 . S
O147 U126 2.449 . S
O147 C143 1.282 . S
H148 C121 0.931 . S
H149 C123 0.929 . S
H150 C124 0.930 . S
H151 C125 0.931 . S
H152 C132 0.932 . S
H153 C133 0.930 . S
H154 C134 0.929 1_556 S
H155 C136 0.930 . S
H156 C138 0.932 . S
H157 C139 0.929 1_554 S
H158 C140 0.928 . S
H159 C142 0.932 . S
C160 C161 1.264 . S
C160 C165 1.479 . S
C160 C170 1.465 . S
C161 C160 1.264 . S
C161 C163 1.339 . S
C161 H188 0.931 . S
C162 C163 1.395 . S
C162 C164 1.320 . S
C163 C161 1.339 . S
C163 C162 1.395 . S
C163 H189 0.929 . S
C164 C162 1.320 . S
C164 C165 1.405 . S
C164 H190 0.930 . S
C165 C160 1.479 . S
C165 C164 1.405 . S
C165 H191 0.931 . S
U166 O167 2.454 . S
U166 O168 2.458 . S
U166 C169 2.984 . S
U166 C170 2.847 . S
U166 C183 2.882 . S
U166 O184 2.441 . S
U166 O185 2.420 . S
U166 O186 2.455 . S
U166 O187 2.449 . S
O167 U166 2.454 . S
O167 C169 1.353 . S
O168 U166 2.458 . S
O168 C169 1.286 . S
C169 U166 2.984 . S
C169 O167 1.353 . S
C169 O168 1.286 . S
C169 C171 1.363 . S
C170 C160 1.465 . S
C170 U166 2.847 . S
C170 O184 1.249 . S
C170 O185 1.202 . S
C171 C169 1.363 . S
C171 C173 1.408 . S
C171 C176 1.342 . S
C172 C173 1.310 . S
C172 C175 1.461 . S
C172 H192 0.932 . S
C173 C171 1.408 . S
C173 C172 1.310 . S
C173 H193 0.930 . S
C174 C175 1.474 . S
C174 C176 1.285 . S
C174 H194 0.929 . S
C175 C172 1.461 . S
C175 C174 1.474 . S
C176 C171 1.342 . S
C176 C174 1.285 . S
C176 H195 0.930 . S
C177 C180 1.424 . S
C177 C182 1.245 . S
C177 C183 1.428 . S
C178 C181 1.260 . S
C178 C182 1.477 . S
C178 H196 0.932 . S
C179 C180 1.384 . S
C179 C181 1.479 . S
C179 H197 0.929 . S
C180 C177 1.424 . S
C180 C179 1.384 . S
C180 H198 0.928 . S
C181 C178 1.260 . S
C181 C179 1.479 . S
C182 C177 1.245 . S
C182 C178 1.477 . S
C182 H199 0.932 . S
C183 U166 2.882 . S
C183 C177 1.428 . S
C183 O186 1.301 . S
C183 O187 1.282 . S
O184 U166 2.441 . S
O184 C170 1.249 . S
O185 U166 2.420 . S
O185 C170 1.202 . S
O186 U166 2.455 . S
O186 C183 1.301 . S
O187 U166 2.449 . S
O187 C183 1.282 . S
H188 C161 0.931 . S
H189 C163 0.929 . S
H190 C164 0.930 . S
H191 C165 0.931 . S
H192 C172 0.932 . S
H193 C173 0.930 . S
H194 C174 0.929 . S
H195 C176 0.930 . S
H196 C178 0.932 . S
H197 C179 0.929 . S
H198 C180 0.928 . S
H199 C182 0.932 . S
C200 C201 1.264 . S
C200 C205 1.479 . S
C200 C210 1.465 . S
C201 C200 1.264 . S
C201 C203 1.339 . S
C201 H228 0.931 . S
C202 C203 1.395 . S
C202 C204 1.320 . S
C203 C201 1.339 . S
C203 C202 1.395 . S
C203 H229 0.929 . S
C204 C202 1.320 . S
C204 C205 1.405 . S
C204 H230 0.925 1_455 S
C205 C200 1.479 . S
C205 C204 1.405 . S
C205 H231 0.931 . S
U206 O207 2.454 . S
U206 O208 2.458 . S
U206 C209 2.984 . S
U206 C210 2.847 . S
U206 C223 2.882 . S
U206 O224 2.441 . S
U206 O225 2.420 . S
U206 O226 2.455 . S
U206 O227 2.449 . S
O207 U206 2.454 . S
O207 C209 1.353 . S
O208 U206 2.458 . S
O208 C209 1.286 . S
C209 U206 2.984 . S
C209 O207 1.353 . S
C209 O208 1.286 . S
C209 C211 1.363 . S
C210 C200 1.465 . S
C210 U206 2.847 . S
C210 O224 1.249 . S
C210 O225 1.202 . S
C211 C209 1.363 . S
C211 C213 1.408 . S
C211 C216 1.342 . S
C212 C213 1.310 . S
C212 C215 1.462 . S
C212 H232 0.932 . S
C213 C211 1.408 . S
C213 C212 1.310 . S
C213 H233 0.930 . S
C214 C215 1.473 1_655 S
C214 C216 1.286 1_655 S
C214 H234 0.929 . S
C215 C212 1.462 . S
C215 C214 1.473 1_455 S
C216 C211 1.342 . S
C216 C214 1.286 1_455 S
C216 H235 0.936 . S
C217 C220 1.424 . S
C217 C222 1.245 . S
C217 C223 1.428 . S
C218 C221 1.260 . S
C218 C222 1.477 . S
C218 H236 0.932 . S
C219 C220 1.384 . S
C219 C221 1.479 . S
C219 H237 0.929 . S
C220 C217 1.424 . S
C220 C219 1.384 . S
C220 H238 0.928 . S
C221 C218 1.260 . S
C221 C219 1.479 . S
C222 C217 1.245 . S
C222 C218 1.477 . S
C222 H239 0.932 . S
C223 U206 2.882 . S
C223 C217 1.428 . S
C223 O226 1.301 . S
C223 O227 1.282 . S
O224 U206 2.441 . S
O224 C210 1.249 . S
O225 U206 2.420 . S
O225 C210 1.202 . S
O226 U206 2.455 . S
O226 C223 1.301 . S
O227 U206 2.449 . S
O227 C223 1.282 . S
H228 C201 0.931 . S
H229 C203 0.929 . S
H230 C204 0.925 1_655 S
H231 C205 0.931 . S
H232 C212 0.932 . S
H233 C213 0.930 . S
H234 C214 0.929 . S
H235 C216 0.936 . S
H236 C218 0.932 . S
H237 C219 0.929 . S
H238 C220 0.928 . S
H239 C222 0.932 . S
C240 C241 1.264 . S
C240 C245 1.479 . S
C240 C250 1.465 . S
C241 C240 1.264 . S
C241 C243 1.339 . S
C241 H268 0.931 . S
C242 C243 1.395 . S
C242 C244 1.320 . S
C243 C241 1.339 . S
C243 C242 1.395 . S
C243 H269 0.929 . S
C244 C242 1.320 . S
C244 C245 1.405 . S
C244 H270 0.930 . S
C245 C240 1.479 . S
C245 C244 1.405 . S
C245 H271 0.931 . S
U246 O247 2.454 . S
U246 O248 2.458 . S
U246 C249 2.984 . S
U246 C250 2.847 . S
U246 C263 2.882 . S
U246 O264 2.441 . S
U246 O265 2.420 . S
U246 O266 2.455 . S
U246 O267 2.449 . S
O247 U246 2.454 . S
O247 C249 1.353 . S
O248 U246 2.458 . S
O248 C249 1.286 . S
C249 U246 2.984 . S
C249 O247 1.353 . S
C249 O248 1.286 . S
C249 C251 1.363 . S
C250 C240 1.465 . S
C250 U246 2.847 . S
C250 O264 1.249 . S
C250 O265 1.202 . S
C251 C249 1.363 . S
C251 C253 1.408 . S
C251 C256 1.342 . S
C252 C253 1.310 . S
C252 C255 1.461 . S
C252 H272 0.932 . S
C253 C251 1.408 . S
C253 C252 1.310 . S
C253 H273 0.930 . S
C254 C255 1.474 . S
C254 C256 1.285 . S
C254 H274 0.929 . S
C255 C252 1.461 . S
C255 C254 1.474 . S
C256 C251 1.342 . S
C256 C254 1.285 . S
C256 H275 0.930 . S
C257 C260 1.424 . S
C257 C262 1.245 . S
C257 C263 1.428 . S
C258 C261 1.260 . S
C258 C262 1.477 . S
C258 H276 0.932 . S
C259 C260 1.384 . S
C259 C261 1.479 . S
C259 H277 0.929 . S
C260 C257 1.424 . S
C260 C259 1.384 . S
C260 H278 0.928 . S
C261 C258 1.260 . S
C261 C259 1.479 . S
C262 C257 1.245 . S
C262 C258 1.477 . S
C262 H279 0.932 . S
C263 U246 2.882 . S
C263 C257 1.428 . S
C263 O266 1.301 . S
C263 O267 1.282 . S
O264 U246 2.441 . S
O264 C250 1.249 . S
O265 U246 2.420 . S
O265 C250 1.202 . S
O266 U246 2.455 . S
O266 C263 1.301 . S
O267 U246 2.449 . S
O267 C263 1.282 . S
H268 C241 0.931 . S
H269 C243 0.929 . S
H270 C244 0.930 . S
H271 C245 0.931 . S
H272 C252 0.932 . S
H273 C253 0.930 . S
H274 C254 0.929 . S
H275 C256 0.930 . S
H276 C258 0.932 . S
H277 C259 0.929 . S
H278 C260 0.928 . S
H279 C262 0.932 . S
C280 C281 1.264 . S
C280 C285 1.479 . S
C280 C290 1.465 . S
C281 C280 1.264 . S
C281 C283 1.339 . S
C281 H308 0.931 . S
C282 C283 1.395 . S
C282 C284 1.320 . S
C283 C281 1.339 . S
C283 C282 1.395 . S
C283 H309 0.929 . S
C284 C282 1.320 . S
C284 C285 1.405 . S
C284 H310 0.930 . S
C285 C280 1.479 . S
C285 C284 1.405 . S
C285 H311 0.931 . S
U286 O287 2.454 . S
U286 O288 2.458 . S
U286 C289 2.984 . S
U286 C290 2.847 . S
U286 C303 2.882 . S
U286 O304 2.441 . S
U286 O305 2.420 . S
U286 O306 2.455 . S
U286 O307 2.449 . S
O287 U286 2.454 . S
O287 C289 1.353 . S
O288 U286 2.458 . S
O288 C289 1.286 . S
C289 U286 2.984 . S
C289 O287 1.353 . S
C289 O288 1.286 . S
C289 C291 1.363 . S
C290 C280 1.465 . S
C290 U286 2.847 . S
C290 O304 1.249 . S
C290 O305 1.202 . S
C291 C289 1.363 . S
C291 C293 1.408 . S
C291 C296 1.342 . S
C292 C293 1.310 . S
C292 C295 1.461 . S
C292 H312 0.932 . S
C293 C291 1.408 . S
C293 C292 1.310 . S
C293 H313 0.930 . S
C294 C295 1.474 . S
C294 C296 1.285 . S
C294 H314 0.929 . S
C295 C292 1.461 . S
C295 C294 1.474 . S
C296 C291 1.342 . S
C296 C294 1.285 . S
C296 H315 0.930 . S
C297 C300 1.424 . S
C297 C302 1.245 . S
C297 C303 1.428 . S
C298 C301 1.260 . S
C298 C302 1.477 . S
C298 H316 0.932 . S
C299 C300 1.384 . S
C299 C301 1.479 . S
C299 H317 0.929 . S
C300 C297 1.424 . S
C300 C299 1.384 . S
C300 H318 0.928 . S
C301 C298 1.260 . S
C301 C299 1.479 . S
C302 C297 1.245 . S
C302 C298 1.477 . S
C302 H319 0.932 . S
C303 U286 2.882 . S
C303 C297 1.428 . S
C303 O306 1.301 . S
C303 O307 1.282 . S
O304 U286 2.441 . S
O304 C290 1.249 . S
O305 U286 2.420 . S
O305 C290 1.202 . S
O306 U286 2.455 . S
O306 C303 1.301 . S
O307 U286 2.449 . S
O307 C303 1.282 . S
H308 C281 0.931 . S
H309 C283 0.929 . S
H310 C284 0.930 . S
H311 C285 0.931 . S
H312 C292 0.932 . S
H313 C293 0.930 . S
H314 C294 0.929 . S
H315 C296 0.930 . S
H316 C298 0.932 . S
H317 C299 0.929 . S
H318 C300 0.928 . S
H319 C302 0.932 . S
Co320 N325 2.057 . S
Co320 O337 2.021 . S
Co320 O340 2.062 1_455 S
Co320 O344 2.117 1_455 S
Co320 O345 2.020 1_545 S
C321 O341 1.259 1_545 S
C321 O344 1.258 . S
Co322 N331 2.057 . S
Co322 O338 2.117 1_665 S
Co322 O339 2.020 1_565 S
Co322 O341 2.021 . S
Co322 O346 2.062 1_655 S
C323 N325 1.316 . S
C323 N326 1.347 . S
C323 H328 0.931 . S
C324 N325 1.375 1_655 S
C324 C327 1.350 . S
C324 H329 0.930 . S
N325 Co320 2.057 . S
N325 C323 1.316 . S
N325 C324 1.375 1_455 S
N326 C323 1.347 . S
N326 C327 1.373 1_455 S
C327 C324 1.350 . S
C327 N326 1.373 1_655 S
C327 H348 0.931 . S
H328 C323 0.931 . S
H329 C324 0.930 . S
C330 O337 1.259 . S
C330 O338 1.258 . S
N331 Co322 2.057 . S
N331 C332 1.316 . S
N331 C333 1.375 1_655 S
C332 N331 1.316 . S
C332 N334 1.347 . S
C332 H343 0.931 . S
C333 N331 1.375 1_455 S
C333 C335 1.350 . S
C333 H342 0.930 . S
N334 C332 1.347 . S
N334 C335 1.373 1_655 S
C335 C333 1.350 . S
C335 N334 1.373 1_455 S
C335 H349 0.931 . S
C336 O339 1.256 . S
C336 O340 1.255 . S
O337 Co320 2.021 . S
O337 C330 1.259 . S
O338 Co322 2.117 1_445 S
O338 C330 1.258 . S
O339 Co322 2.020 1_545 S
O339 C336 1.256 . S
O340 Co320 2.062 1_655 S
O340 C336 1.255 . S
O341 C321 1.259 1_565 S
O341 Co322 2.021 . S
H342 C333 0.930 . S
H343 C332 0.931 . S
O344 Co320 2.117 1_655 S
O344 C321 1.258 . S
O345 Co320 2.020 1_565 S
O345 C347 1.256 . S
O346 Co322 2.062 1_455 S
O346 C347 1.255 . S
C347 O345 1.256 . S
C347 O346 1.255 . S
H348 C327 0.931 . S
H349 C335 0.931 . S
Co350 N355 2.057 . S
Co350 O367 2.021 . S
Co350 O370 2.062 . S
Co350 O374 2.117 1_545 S
Co350 O375 2.020 . S
C351 O371 1.259 . S
C351 O374 1.258 . S
Co352 N361 2.054 1_545 S
Co352 O368 2.117 . S
Co352 O369 2.020 . S
Co352 O371 2.021 1_545 S
Co352 O376 2.062 1_545 S
C353 N355 1.316 . S
C353 N356 1.347 . S
C353 H358 0.931 . S
C354 N355 1.375 . S
C354 C357 1.350 . S
C354 H359 0.930 1_545 S
N355 Co350 2.057 . S
N355 C353 1.316 . S
N355 C354 1.375 . S
N356 C353 1.347 . S
N356 C357 1.373 . S
C357 C354 1.350 . S
C357 N356 1.373 . S
C357 H378 0.931 . S
H358 C353 0.931 . S
H359 C354 0.930 1_565 S
C360 O367 1.259 . S
C360 O368 1.258 . S
N361 Co352 2.054 1_565 S
N361 C362 1.336 . S
N361 C363 1.359 1_565 S
C362 N361 1.336 . S
C362 N364 1.347 . S
C362 H373 0.931 . S
C363 N361 1.359 1_545 S
C363 C365 1.350 . S
C363 H372 0.930 . S
N364 C362 1.347 . S
N364 C365 1.373 1_565 S
C365 C363 1.350 . S
C365 N364 1.373 1_545 S
C365 H379 0.931 . S
C366 O369 1.256 . S
C366 O370 1.255 . S
O367 Co350 2.021 . S
O367 C360 1.259 . S
O368 Co352 2.117 . S
O368 C360 1.258 . S
O369 Co352 2.020 . S
O369 C366 1.256 . S
O370 Co350 2.062 . S
O370 C366 1.255 . S
O371 C351 1.259 . S
O371 Co352 2.021 1_565 S
H372 C363 0.930 . S
H373 C362 0.931 . S
O374 Co350 2.117 1_565 S
O374 C351 1.258 . S
O375 Co350 2.020 . S
O375 C377 1.256 . S
O376 Co352 2.062 1_565 S
O376 C377 1.255 1_565 S
C377 O375 1.256 . S
C377 O376 1.255 1_545 S
H378 C357 0.931 . S
H379 C365 0.931 . S
Co380 N385 2.057 . S
Co380 O397 2.021 . S
Co380 O400 2.062 . S
Co380 O404 2.117 . S
Co380 O405 2.020 . S
C381 O401 1.259 . S
C381 O404 1.258 . S
Co382 N391 2.057 . S
Co382 O398 2.117 . S
Co382 O399 2.020 . S
Co382 O401 2.021 . S
Co382 O406 2.062 . S
C383 N385 1.316 . S
C383 N386 1.347 . S
C383 H388 0.931 . S
C384 N385 1.375 . S
C384 C387 1.350 . S
C384 H389 0.930 . S
N385 Co380 2.057 . S
N385 C383 1.316 . S
N385 C384 1.375 . S
N386 C383 1.347 . S
N386 C387 1.373 . S
C387 C384 1.350 . S
C387 N386 1.373 . S
C387 H408 0.931 . S
H388 C383 0.931 . S
H389 C384 0.930 . S
C390 O397 1.259 . S
C390 O398 1.258 . S
N391 Co382 2.057 . S
N391 C392 1.316 . S
N391 C393 1.375 . S
C392 N391 1.316 . S
C392 N394 1.347 . S
C392 H403 0.931 . S
C393 N391 1.375 . S
C393 C395 1.350 . S
C393 H402 0.930 . S
N394 C392 1.347 . S
N394 C395 1.373 . S
C395 C393 1.350 . S
C395 N394 1.373 . S
C395 H409 0.931 . S
C396 O399 1.256 . S
C396 O400 1.255 . S
O397 Co380 2.021 . S
O397 C390 1.259 . S
O398 Co382 2.117 . S
O398 C390 1.258 . S
O399 Co382 2.020 . S
O399 C396 1.256 . S
O400 Co380 2.062 . S
O400 C396 1.255 . S
O401 C381 1.259 . S
O401 Co382 2.021 . S
H402 C393 0.930 . S
H403 C392 0.931 . S
O404 Co380 2.117 . S
O404 C381 1.258 . S
O405 Co380 2.020 . S
O405 C407 1.256 . S
O406 Co382 2.062 . S
O406 C407 1.255 . S
C407 O405 1.256 . S
C407 O406 1.255 . S
H408 C387 0.931 . S
H409 C395 0.931 . S
Co410 N415 2.057 . S
Co410 O427 2.021 1_455 S
Co410 O430 2.062 1_455 S
Co410 O434 2.117 . S
Co410 O435 2.020 . S
C411 O431 1.259 . S
C411 O434 1.258 . S
Co412 N421 2.057 . S
Co412 O428 2.117 . S
Co412 O429 2.020 . S
Co412 O431 2.021 1_655 S
Co412 O436 2.062 1_655 S
C413 N415 1.316 . S
C413 N416 1.347 . S
C413 H418 0.931 1_455 S
C414 N415 1.375 . S
C414 C417 1.350 . S
C414 H419 0.930 . S
N415 Co410 2.057 . S
N415 C413 1.316 . S
N415 C414 1.375 . S
N416 C413 1.347 . S
N416 C417 1.373 . S
C417 C414 1.350 . S
C417 N416 1.373 . S
C417 H438 0.931 . S
H418 C413 0.931 1_655 S
H419 C414 0.930 . S
C420 O427 1.259 . S
C420 O428 1.258 . S
N421 Co412 2.057 . S
N421 C422 1.316 . S
N421 C423 1.375 . S
C422 N421 1.316 . S
C422 N424 1.347 . S
C422 H433 0.931 1_655 S
C423 N421 1.375 . S
C423 C425 1.350 . S
C423 H432 0.930 . S
N424 C422 1.347 . S
N424 C425 1.373 . S
C425 C423 1.350 . S
C425 N424 1.373 . S
C425 H439 0.931 . S
C426 O429 1.256 . S
C426 O430 1.255 . S
O427 Co410 2.021 1_655 S
O427 C420 1.259 . S
O428 Co412 2.117 . S
O428 C420 1.258 . S
O429 Co412 2.020 . S
O429 C426 1.256 . S
O430 Co410 2.062 1_655 S
O430 C426 1.255 . S
O431 C411 1.259 . S
O431 Co412 2.021 1_455 S
H432 C423 0.930 . S
H433 C422 0.931 1_455 S
O434 Co410 2.117 . S
O434 C411 1.258 . S
O435 Co410 2.020 . S
O435 C437 1.256 . S
O436 Co412 2.062 1_455 S
O436 C437 1.255 . S
C437 O435 1.256 . S
C437 O436 1.255 . S
H438 C417 0.931 . S
H439 C425 0.931 . S
H440 C448 0.950 . S
H441 C453 0.950 . S
H442 C450 0.950 . S
H443 C452 0.950 . S
H444 C454 0.950 . S
H445 C456 0.950 . S
H446 C458 0.950 . S
H447 C459 0.950 . S
C448 H440 0.950 . S
C448 C449 1.386 . S
C448 C450 1.391 . S
C449 C448 1.386 . S
C449 C453 1.393 . S
C450 H442 0.950 . S
C450 C448 1.391 . S
C450 C451 1.400 . S
C451 C450 1.400 . S
C451 C452 1.398 . S
C451 C457 1.491 . S
C452 H443 0.950 . S
C452 C451 1.398 . S
C452 C453 1.391 . S
C453 H441 0.950 . S
C453 C449 1.393 . S
C453 C452 1.391 . S
C454 H444 0.950 . S
C454 C455 1.386 . S
C454 C456 1.391 . S
C455 C454 1.386 . S
C455 C459 1.393 . S
C456 H445 0.950 . S
C456 C454 1.391 . S
C456 C457 1.400 . S
C457 C451 1.491 . S
C457 C456 1.400 . S
C457 C458 1.398 . S
C458 H446 0.950 . S
C458 C457 1.398 . S
C458 C459 1.391 . S
C459 H447 0.950 . S
C459 C455 1.393 . S
C459 C458 1.391 . S
H460 C468 0.950 . S
H461 C473 0.950 . S
H462 C470 0.950 . S
H463 C472 0.950 . S
H464 C474 0.950 . S
H465 C476 0.950 . S
H466 C478 0.950 . S
H467 C479 0.950 . S
C468 H460 0.950 . S
C468 C469 1.386 . S
C468 C470 1.391 . S
C469 C468 1.386 . S
C469 C473 1.393 . S
C470 H462 0.950 . S
C470 C468 1.391 . S
C470 C471 1.400 . S
C471 C470 1.400 . S
C471 C472 1.398 . S
C471 C477 1.491 . S
C472 H463 0.950 . S
C472 C471 1.398 . S
C472 C473 1.391 . S
C473 H461 0.950 . S
C473 C469 1.393 . S
C473 C472 1.391 . S
C474 H464 0.950 . S
C474 C475 1.386 . S
C474 C476 1.391 . S
C475 C474 1.386 . S
C475 C479 1.393 . S
C476 H465 0.950 . S
C476 C474 1.391 . S
C476 C477 1.400 . S
C477 C471 1.491 . S
C477 C476 1.400 . S
C477 C478 1.398 . S
C478 H466 0.950 . S
C478 C477 1.398 . S
C478 C479 1.391 . S
C479 H467 0.950 . S
C479 C475 1.393 . S
C479 C478 1.391 . S
H480 C488 0.950 . S
H481 C493 0.950 . S
H482 C490 0.950 . S
H483 C492 0.950 . S
H484 C494 0.950 . S
H485 C496 0.950 . S
H486 C498 0.950 . S
H487 C499 0.950 . S
C488 H480 0.950 . S
C488 C489 1.386 . S
C488 C490 1.391 . S
C489 C488 1.386 . S
C489 C493 1.393 . S
C490 H482 0.950 . S
C490 C488 1.391 . S
C490 C491 1.400 . S
C491 C490 1.400 . S
C491 C492 1.398 . S
C491 C497 1.491 . S
C492 H483 0.950 . S
C492 C491 1.398 . S
C492 C493 1.391 . S
C493 H481 0.950 . S
C493 C489 1.393 . S
C493 C492 1.391 . S
C494 H484 0.950 . S
C494 C495 1.386 . S
C494 C496 1.391 . S
C495 C494 1.386 . S
C495 C499 1.393 . S
C496 H485 0.950 . S
C496 C494 1.391 . S
C496 C497 1.400 . S
C497 C491 1.491 . S
C497 C496 1.400 . S
C497 C498 1.398 . S
C498 H486 0.950 . S
C498 C497 1.398 . S
C498 C499 1.391 . S
C499 H487 0.950 . S
C499 C495 1.393 . S
C499 C498 1.391 . S
H500 C508 0.950 . S
H501 C513 0.950 . S
H502 C510 0.950 . S
H503 C512 0.950 . S
H504 C514 0.950 . S
H505 C516 0.950 . S
H506 C518 0.950 . S
H507 C519 0.950 . S
C508 H500 0.950 . S
C508 C509 1.386 1_455 S
C508 C510 1.391 . S
C509 C508 1.386 1_655 S
C509 C513 1.393 . S
C510 H502 0.950 . S
C510 C508 1.391 . S
C510 C511 1.400 1_455 S
C511 C510 1.400 1_655 S
C511 C512 1.398 . S
C511 C517 1.491 . S
C512 H503 0.950 . S
C512 C511 1.398 . S
C512 C513 1.391 . S
C513 H501 0.950 . S
C513 C509 1.393 . S
C513 C512 1.391 . S
C514 H504 0.950 . S
C514 C515 1.386 . S
C514 C516 1.391 . S
C515 C514 1.386 . S
C515 C519 1.393 1_655 S
C516 H505 0.950 . S
C516 C514 1.391 . S
C516 C517 1.400 . S
C517 C511 1.491 . S
C517 C516 1.400 . S
C517 C518 1.398 1_655 S
C518 H506 0.950 . S
C518 C517 1.398 1_455 S
C518 C519 1.391 . S
C519 H507 0.950 . S
C519 C515 1.393 1_455 S
C519 C518 1.391 . S
H520 C528 0.950 . S
H521 C533 0.950 . S
H522 C530 0.950 . S
H523 C532 0.950 . S
H524 C534 0.950 . S
H525 C536 0.950 . S
H526 C538 0.950 . S
H527 C539 0.950 . S
C528 H520 0.950 . S
C528 C529 1.385 1_554 S
C528 C530 1.391 1_554 S
C529 C528 1.385 1_556 S
C529 C533 1.396 . S
C530 H522 0.950 . S
C530 C528 1.391 1_556 S
C530 C531 1.400 . S
C531 C530 1.400 . S
C531 C532 1.398 . S
C531 C537 1.491 . S
C532 H523 0.950 . S
C532 C531 1.398 . S
C532 C533 1.391 . S
C533 H521 0.950 . S
C533 C529 1.396 . S
C533 C532 1.391 . S
C534 H524 0.950 . S
C534 C535 1.386 1_545 S
C534 C536 1.391 1_545 S
C535 C534 1.386 1_565 S
C535 C539 1.393 . S
C536 H525 0.950 . S
C536 C534 1.391 1_565 S
C536 C537 1.400 . S
C537 C531 1.491 . S
C537 C536 1.400 . S
C537 C538 1.398 . S
C538 H526 0.950 . S
C538 C537 1.398 . S
C538 C539 1.391 . S
C539 H527 0.950 . S
C539 C535 1.393 . S
C539 C538 1.391 . S
H540 C548 0.950 . S
H541 C553 0.950 . S
H542 C550 0.950 . S
H543 C552 0.950 1_554 S
H544 C554 0.950 . S
H545 C556 0.950 . S
H546 C558 0.950 . S
H547 C559 0.950 . S
C548 H540 0.950 . S
C548 C549 1.386 1_556 S
C548 C550 1.391 . S
C549 C548 1.386 1_554 S
C549 C553 1.393 . S
C550 H542 0.950 . S
C550 C548 1.391 . S
C550 C551 1.400 . S
C551 C550 1.400 . S
C551 C552 1.398 . S
C551 C557 1.491 . S
C552 H543 0.950 1_556 S
C552 C551 1.398 . S
C552 C553 1.391 1_556 S
C553 H541 0.950 . S
C553 C549 1.393 . S
C553 C552 1.391 1_554 S
C554 H544 0.950 . S
C554 C555 1.386 . S
C554 C556 1.391 . S
C555 C554 1.386 . S
C555 C559 1.393 . S
C556 H545 0.950 . S
C556 C554 1.391 . S
C556 C557 1.400 . S
C557 C551 1.491 . S
C557 C556 1.400 . S
C557 C558 1.398 . S
C558 H546 0.950 . S
C558 C557 1.398 . S
C558 C559 1.391 . S
C559 H547 0.950 . S
C559 C555 1.393 . S
C559 C558 1.391 . S
H560 C568 0.950 . S
H561 C573 0.950 . S
H562 C570 0.950 . S
H563 C572 0.950 . S
H564 C574 0.950 . S
H565 C576 0.950 . S
H566 C578 0.950 . S
H567 C579 0.950 . S
C568 H560 0.950 . S
C568 C569 1.386 . S
C568 C570 1.391 . S
C569 C568 1.386 . S
C569 C573 1.393 1_554 S
C570 H562 0.950 . S
C570 C568 1.391 . S
C570 C571 1.400 1_554 S
C571 C570 1.400 1_556 S
C571 C572 1.398 . S
C571 C577 1.491 . S
C572 H563 0.950 . S
C572 C571 1.398 . S
C572 C573 1.391 . S
C573 H561 0.950 . S
C573 C569 1.393 1_556 S
C573 C572 1.391 . S
C574 H564 0.950 . S
C574 C575 1.386 . S
C574 C576 1.391 . S
C575 C574 1.386 . S
C575 C579 1.393 . S
C576 H565 0.950 . S
C576 C574 1.391 . S
C576 C577 1.400 . S
C577 C571 1.491 . S
C577 C576 1.400 . S
C577 C578 1.398 . S
C578 H566 0.950 . S
C578 C577 1.398 . S
C578 C579 1.391 . S
C579 H567 0.950 . S
C579 C575 1.393 . S
C579 C578 1.391 . S
H580 C588 0.950 . S
H581 C593 0.950 . S
H582 C590 0.950 . S
H583 C592 0.950 . S
H584 C594 0.950 . S
H585 C596 0.950 . S
H586 C598 0.950 . S
H587 C599 0.950 . S
C588 H580 0.950 . S
C588 C589 1.346 1_655 S
C588 C590 1.391 1_554 S
C589 C588 1.346 1_455 S
C589 C593 1.435 . S
C590 H582 0.950 . S
C590 C588 1.391 1_556 S
C590 C591 1.400 1_655 S
C591 C590 1.400 1_455 S
C591 C592 1.398 . S
C591 C597 1.491 . S
C592 H583 0.950 . S
C592 C591 1.398 . S
C592 C593 1.391 1_556 S
C593 H581 0.950 . S
C593 C589 1.435 . S
C593 C592 1.391 1_554 S
C594 H584 0.950 . S
C594 C595 1.386 . S
C594 C596 1.391 . S
C595 C594 1.386 . S
C595 C599 1.393 1_455 S
C596 H585 0.950 . S
C596 C594 1.391 . S
C596 C597 1.400 . S
C597 C591 1.491 . S
C597 C596 1.400 . S
C597 C598 1.398 1_455 S
C598 H586 0.950 . S
C598 C597 1.398 1_655 S
C598 C599 1.391 . S
C599 H587 0.950 . S
C599 C595 1.393 1_655 S
C599 C598 1.391 . S
H600 C608 0.950 . S
H601 C613 0.950 . S
H602 C610 0.950 . S
H603 C612 0.950 . S
H604 C614 0.950 . S
H605 C616 0.950 . S
H606 C618 0.950 . S
H607 C619 0.950 . S
C608 H600 0.950 . S
C608 C609 1.386 1_655 S
C608 C610 1.391 . S
C609 C608 1.386 1_455 S
C609 C613 1.393 . S
C610 H602 0.950 . S
C610 C608 1.391 . S
C610 C611 1.400 . S
C611 C610 1.400 . S
C611 C612 1.398 1_655 S
C611 C617 1.491 . S
C612 H603 0.950 . S
C612 C611 1.398 1_455 S
C612 C613 1.391 . S
C613 H601 0.950 . S
C613 C609 1.393 . S
C613 C612 1.391 . S
C614 H604 0.950 . S
C614 C615 1.386 1_455 S
C614 C616 1.391 . S
C615 C614 1.386 1_655 S
C615 C619 1.393 . S
C616 H605 0.950 . S
C616 C614 1.391 . S
C616 C617 1.400 1_455 S
C617 C611 1.491 . S
C617 C616 1.400 1_655 S
C617 C618 1.398 . S
C618 H606 0.950 . S
C618 C617 1.398 . S
C618 C619 1.391 . S
C619 H607 0.950 . S
C619 C615 1.393 . S
C619 C618 1.391 . S
H620 C628 0.950 . S
H621 C633 0.950 . S
H622 C630 0.950 . S
H623 C632 0.950 . S
H624 C634 0.950 . S
H625 C636 0.950 . S
H626 C638 0.950 . S
H627 C639 0.950 . S
C628 H620 0.950 . S
C628 C629 1.386 . S
C628 C630 1.391 . S
C629 C628 1.386 . S
C629 C633 1.393 . S
C630 H622 0.950 . S
C630 C628 1.391 . S
C630 C631 1.400 . S
C631 C630 1.400 . S
C631 C632 1.398 . S
C631 C637 1.491 . S
C632 H623 0.950 . S
C632 C631 1.398 . S
C632 C633 1.391 . S
C633 H621 0.950 . S
C633 C629 1.393 . S
C633 C632 1.391 . S
C634 H624 0.950 . S
C634 C635 1.386 . S
C634 C636 1.391 . S
C635 C634 1.386 . S
C635 C639 1.393 . S
C636 H625 0.950 . S
C636 C634 1.391 . S
C636 C637 1.400 . S
C637 C631 1.491 . S
C637 C636 1.400 . S
C637 C638 1.398 . S
C638 H626 0.950 . S
C638 C637 1.398 . S
C638 C639 1.391 . S
C639 H627 0.950 . S
C639 C635 1.393 . S
C639 C638 1.391 . S
H640 C648 0.950 . S
H641 C653 0.950 . S
H642 C650 0.950 . S
H643 C652 0.950 . S
H644 C654 0.950 . S
H645 C656 0.950 . S
H646 C658 0.950 . S
H647 C659 0.950 . S
C648 H640 0.950 . S
C648 C649 1.386 . S
C648 C650 1.391 . S
C649 C648 1.386 . S
C649 C653 1.393 . S
C650 H642 0.950 . S
C650 C648 1.391 . S
C650 C651 1.400 . S
C651 C650 1.400 . S
C651 C652 1.398 . S
C651 C657 1.491 . S
C652 H643 0.950 . S
C652 C651 1.398 . S
C652 C653 1.391 . S
C653 H641 0.950 . S
C653 C649 1.393 . S
C653 C652 1.391 . S
C654 H644 0.950 . S
C654 C655 1.386 . S
C654 C656 1.391 . S
C655 C654 1.386 . S
C655 C659 1.393 . S
C656 H645 0.950 . S
C656 C654 1.391 . S
C656 C657 1.400 . S
C657 C651 1.491 . S
C657 C656 1.400 . S
C657 C658 1.398 . S
C658 H646 0.950 . S
C658 C657 1.398 . S
C658 C659 1.391 . S
C659 H647 0.950 . S
C659 C655 1.393 . S
C659 C658 1.391 . S
H660 C668 0.950 . S
H661 C673 0.950 . S
H662 C670 0.950 . S
H663 C672 0.950 . S
H664 C674 0.950 . S
H665 C676 0.950 . S
H666 C678 0.950 . S
H667 C679 0.950 . S
C668 H660 0.950 . S
C668 C669 1.386 . S
C668 C670 1.391 . S
C669 C668 1.386 . S
C669 C673 1.393 . S
C670 H662 0.950 . S
C670 C668 1.391 . S
C670 C671 1.400 . S
C671 C670 1.400 . S
C671 C672 1.398 . S
C671 C677 1.491 . S
C672 H663 0.950 . S
C672 C671 1.398 . S
C672 C673 1.391 . S
C673 H661 0.950 . S
C673 C669 1.393 . S
C673 C672 1.391 . S
C674 H664 0.950 . S
C674 C675 1.386 . S
C674 C676 1.391 . S
C675 C674 1.386 . S
C675 C679 1.393 . S
C676 H665 0.950 . S
C676 C674 1.391 . S
C676 C677 1.400 . S
C677 C671 1.491 . S
C677 C676 1.400 . S
C677 C678 1.398 . S
C678 H666 0.950 . S
C678 C677 1.398 . S
C678 C679 1.391 . S
C679 H667 0.950 . S
C679 C675 1.393 . S
C679 C678 1.391 . S
H680 C688 0.950 . S
H681 C693 0.950 . S
H682 C690 0.950 . S
H683 C692 0.950 . S
H684 C694 0.950 1_655 S
H685 C696 0.950 . S
H686 C698 0.950 . S
H687 C699 0.950 . S
C688 H680 0.950 . S
C688 C689 1.386 1_455 S
C688 C690 1.391 . S
C689 C688 1.386 1_655 S
C689 C693 1.393 . S
C690 H682 0.950 . S
C690 C688 1.391 . S
C690 C691 1.400 . S
C691 C690 1.400 . S
C691 C692 1.398 1_455 S
C691 C697 1.491 . S
C692 H683 0.950 . S
C692 C691 1.398 1_655 S
C692 C693 1.391 . S
C693 H681 0.950 . S
C693 C689 1.393 . S
C693 C692 1.391 . S
C694 H684 0.950 1_455 S
C694 C695 1.386 . S
C694 C696 1.391 1_455 S
C695 C694 1.386 . S
C695 C699 1.393 . S
C696 H685 0.950 . S
C696 C694 1.391 1_655 S
C696 C697 1.400 1_655 S
C697 C691 1.491 . S
C697 C696 1.400 1_455 S
C697 C698 1.398 . S
C698 H686 0.950 . S
C698 C697 1.398 . S
C698 C699 1.391 . S
C699 H687 0.950 . S
C699 C695 1.393 . S
C699 C698 1.391 . S
H700 C708 0.950 . S
H701 C713 0.950 . S
H702 C710 0.950 . S
H703 C712 0.950 . S
H704 C714 0.950 . S
H705 C716 0.950 . S
H706 C718 0.950 . S
H707 C719 0.950 . S
C708 H700 0.950 . S
C708 C709 1.386 . S
C708 C710 1.391 . S
C709 C708 1.386 . S
C709 C713 1.393 . S
C710 H702 0.950 . S
C710 C708 1.391 . S
C710 C711 1.400 . S
C711 C710 1.400 . S
C711 C712 1.398 . S
C711 C717 1.491 . S
C712 H703 0.950 . S
C712 C711 1.398 . S
C712 C713 1.391 . S
C713 H701 0.950 . S
C713 C709 1.393 . S
C713 C712 1.391 . S
C714 H704 0.950 . S
C714 C715 1.386 1_565 S
C714 C716 1.391 . S
C715 C714 1.386 1_545 S
C715 C719 1.393 . S
C716 H705 0.950 . S
C716 C714 1.391 . S
C716 C717 1.400 . S
C717 C711 1.491 . S
C717 C716 1.400 . S
C717 C718 1.398 . S
C718 H706 0.950 . S
C718 C717 1.398 . S
C718 C719 1.391 1_565 S
C719 H707 0.950 . S
C719 C715 1.393 . S
C719 C718 1.391 1_545 S
H720 C728 0.950 . S
H721 C733 0.950 . S
H722 C730 0.950 . S
H723 C732 0.950 . S
H724 C734 0.950 . S
H725 C736 0.950 . S
H726 C738 0.950 . S
H727 C739 0.950 . S
C728 H720 0.950 . S
C728 C729 1.386 . S
C728 C730 1.391 . S
C729 C728 1.386 . S
C729 C733 1.393 . S
C730 H722 0.950 . S
C730 C728 1.391 . S
C730 C731 1.400 . S
C731 C730 1.400 . S
C731 C732 1.398 . S
C731 C737 1.491 . S
C732 H723 0.950 . S
C732 C731 1.398 . S
C732 C733 1.391 . S
C733 H721 0.950 . S
C733 C729 1.393 . S
C733 C732 1.391 . S
C734 H724 0.950 . S
C734 C735 1.386 . S
C734 C736 1.391 . S
C735 C734 1.386 . S
C735 C739 1.393 . S
C736 H725 0.950 . S
C736 C734 1.391 . S
C736 C737 1.400 . S
C737 C731 1.491 . S
C737 C736 1.400 . S
C737 C738 1.398 . S
C738 H726 0.950 . S
C738 C737 1.398 . S
C738 C739 1.391 . S
C739 H727 0.950 . S
C739 C735 1.393 . S
C739 C738 1.391 . S
H740 C748 0.950 . S
H741 C753 0.950 . S
H742 C750 0.950 . S
H743 C752 0.950 . S
H744 C754 0.950 . S
H745 C756 0.950 . S
H746 C758 0.950 . S
H747 C759 0.950 . S
C748 H740 0.950 . S
C748 C749 1.386 . S
C748 C750 1.391 . S
C749 C748 1.386 . S
C749 C753 1.393 . S
C750 H742 0.950 . S
C750 C748 1.391 . S
C750 C751 1.400 . S
C751 C750 1.400 . S
C751 C752 1.398 . S
C751 C757 1.491 . S
C752 H743 0.950 . S
C752 C751 1.398 . S
C752 C753 1.391 . S
C753 H741 0.950 . S
C753 C749 1.393 . S
C753 C752 1.391 . S
C754 H744 0.950 . S
C754 C755 1.386 . S
C754 C756 1.391 . S
C755 C754 1.386 . S
C755 C759 1.393 . S
C756 H745 0.950 . S
C756 C754 1.391 . S
C756 C757 1.400 . S
C757 C751 1.491 . S
C757 C756 1.400 . S
C757 C758 1.398 . S
C758 H746 0.950 . S
C758 C757 1.398 . S
C758 C759 1.391 . S
C759 H747 0.950 . S
C759 C755 1.393 . S
C759 C758 1.391 . S
H760 C768 0.950 . S
H761 C773 0.955 . S
H762 C770 0.950 1_556 S
H763 C772 0.950 . S
H764 C774 0.950 . S
H765 C776 0.950 . S
H766 C778 0.950 . S
H767 C779 0.950 . S
C768 H760 0.950 . S
C768 C769 1.386 . S
C768 C770 1.391 . S
C769 C768 1.386 . S
C769 C773 1.393 . S
C770 H762 0.950 1_554 S
C770 C768 1.391 . S
C770 C771 1.400 . S
C771 C770 1.400 . S
C771 C772 1.398 . S
C771 C777 1.491 . S
C772 H763 0.950 . S
C772 C771 1.398 . S
C772 C773 1.391 . S
C773 H761 0.955 . S
C773 C769 1.393 . S
C773 C772 1.391 . S
C774 H764 0.950 . S
C774 C775 1.386 1_554 S
C774 C776 1.391 . S
C775 C774 1.386 1_556 S
C775 C779 1.393 . S
C776 H765 0.950 . S
C776 C774 1.391 . S
C776 C777 1.400 . S
C777 C771 1.491 . S
C777 C776 1.400 . S
C777 C778 1.398 1_554 S
C778 H766 0.950 . S
C778 C777 1.398 1_556 S
C778 C779 1.391 . S
C779 H767 0.950 . S
C779 C775 1.393 . S
C779 C778 1.391 . S
H780 C788 0.950 . S
H781 C793 0.950 . S
H782 C790 0.950 . S
H783 C792 0.950 . S
H784 C794 0.950 . S
H785 C796 0.950 . S
H786 C798 0.950 . S
H787 C799 0.950 . S
C788 H780 0.950 . S
C788 C789 1.386 . S
C788 C790 1.391 . S
C789 C788 1.386 . S
C789 C793 1.393 . S
C790 H782 0.950 . S
C790 C788 1.391 . S
C790 C791 1.400 . S
C791 C790 1.400 . S
C791 C792 1.398 . S
C791 C797 1.491 . S
C792 H783 0.950 . S
C792 C791 1.398 . S
C792 C793 1.391 . S
C793 H781 0.950 . S
C793 C789 1.393 . S
C793 C792 1.391 . S
C794 H784 0.950 . S
C794 C795 1.386 1_554 S
C794 C796 1.391 . S
C795 C794 1.386 1_556 S
C795 C799 1.393 . S
C796 H785 0.950 . S
C796 C794 1.391 . S
C796 C797 1.400 . S
C797 C791 1.491 . S
C797 C796 1.400 . S
C797 C798 1.398 1_554 S
C798 H786 0.950 . S
C798 C797 1.398 1_556 S
C798 C799 1.391 . S
C799 H787 0.950 . S
C799 C795 1.393 . S
C799 C798 1.391 . S
H800 C808 0.950 . S
H801 C813 0.950 . S
H802 C810 0.950 . S
H803 C812 0.950 1_556 S
H804 C814 0.950 . S
H805 C816 0.950 . S
H806 C818 0.950 1_554 S
H807 C819 0.950 . S
C808 H800 0.950 . S
C808 C809 1.386 . S
C808 C810 1.391 . S
C809 C808 1.386 . S
C809 C813 1.393 . S
C810 H802 0.950 . S
C810 C808 1.391 . S
C810 C811 1.400 . S
C811 C810 1.400 . S
C811 C812 1.398 . S
C811 C817 1.491 1_554 S
C812 H803 0.950 1_554 S
C812 C811 1.398 . S
C812 C813 1.391 . S
C813 H801 0.950 . S
C813 C809 1.393 . S
C813 C812 1.391 . S
C814 H804 0.950 . S
C814 C815 1.386 . S
C814 C816 1.391 . S
C815 C814 1.386 . S
C815 C819 1.393 . S
C816 H805 0.950 . S
C816 C814 1.391 . S
C816 C817 1.400 . S
C817 C811 1.491 1_556 S
C817 C816 1.400 . S
C817 C818 1.398 . S
C818 H806 0.950 1_556 S
C818 C817 1.398 . S
C818 C819 1.391 . S
C819 H807 0.950 . S
C819 C815 1.393 . S
C819 C818 1.391 . S
H820 C828 0.950 . S
H821 C833 0.950 . S
H822 C830 0.950 . S
H823 C832 0.950 . S
H824 C834 0.950 . S
H825 C836 0.950 . S
H826 C838 0.959 . S
H827 C839 0.950 . S
C828 H820 0.950 . S
C828 C829 1.386 . S
C828 C830 1.391 . S
C829 C828 1.386 . S
C829 C833 1.393 . S
C830 H822 0.950 . S
C830 C828 1.391 . S
C830 C831 1.400 . S
C831 C830 1.400 . S
C831 C832 1.398 1_554 S
C831 C837 1.491 1_554 S
C832 H823 0.950 . S
C832 C831 1.398 1_556 S
C832 C833 1.391 1_556 S
C833 H821 0.950 . S
C833 C829 1.393 . S
C833 C832 1.391 1_554 S
C834 H824 0.950 . S
C834 C835 1.386 . S
C834 C836 1.391 . S
C835 C834 1.386 . S
C835 C839 1.393 . S
C836 H825 0.950 . S
C836 C834 1.391 . S
C836 C837 1.400 . S
C837 C831 1.491 1_556 S
C837 C836 1.400 . S
C837 C838 1.394 1_556 S
C838 H826 0.959 . S
C838 C837 1.394 1_554 S
C838 C839 1.386 1_554 S
C839 H827 0.950 . S
C839 C835 1.393 . S
C839 C838 1.386 1_556 S
H840 C848 0.950 . S
H841 C853 0.950 . S
H842 C850 0.950 . S
H843 C852 0.950 . S
H844 C854 0.950 . S
H845 C856 0.950 . S
H846 C858 0.950 . S
H847 C859 0.950 . S
C848 H840 0.950 . S
C848 C849 1.410 . S
C848 C850 1.391 . S
C849 C848 1.410 . S
C849 C853 1.370 1_655 S
C850 H842 0.950 . S
C850 C848 1.391 . S
C850 C851 1.400 . S
C851 C850 1.400 . S
C851 C852 1.398 1_655 S
C851 C857 1.491 . S
C852 H843 0.950 . S
C852 C851 1.398 1_455 S
C852 C853 1.391 . S
C853 H841 0.950 . S
C853 C849 1.370 1_455 S
C853 C852 1.391 . S
C854 H844 0.950 . S
C854 C855 1.386 1_455 S
C854 C856 1.391 . S
C855 C854 1.386 1_655 S
C855 C859 1.393 . S
C856 H845 0.950 . S
C856 C854 1.391 . S
C856 C857 1.400 1_455 S
C857 C851 1.491 . S
C857 C856 1.400 1_655 S
C857 C858 1.398 . S
C858 H846 0.950 . S
C858 C857 1.398 . S
C858 C859 1.391 . S
C859 H847 0.950 . S
C859 C855 1.393 . S
C859 C858 1.391 . S
H860 C868 0.950 . S
H861 C873 0.950 . S
H862 C870 0.950 . S
H863 C872 0.950 . S
H864 C874 0.950 . S
H865 C876 0.950 . S
H866 C878 0.950 . S
H867 C879 0.950 . S
C868 H860 0.950 . S
C868 C869 1.386 . S
C868 C870 1.391 . S
C869 C868 1.386 . S
C869 C873 1.393 . S
C870 H862 0.950 . S
C870 C868 1.391 . S
C870 C871 1.400 . S
C871 C870 1.400 . S
C871 C872 1.398 . S
C871 C877 1.491 . S
C872 H863 0.950 . S
C872 C871 1.398 . S
C872 C873 1.391 . S
C873 H861 0.950 . S
C873 C869 1.393 . S
C873 C872 1.391 . S
C874 H864 0.950 . S
C874 C875 1.386 . S
C874 C876 1.391 . S
C875 C874 1.386 . S
C875 C879 1.393 . S
C876 H865 0.950 . S
C876 C874 1.391 . S
C876 C877 1.400 . S
C877 C871 1.491 . S
C877 C876 1.400 . S
C877 C878 1.398 . S
C878 H866 0.950 . S
C878 C877 1.398 . S
C878 C879 1.391 . S
C879 H867 0.950 . S
C879 C875 1.393 . S
C879 C878 1.391 . S
H880 C888 0.950 . S
H881 C893 0.950 . S
H882 C890 0.950 . S
H883 C892 0.950 . S
H884 C894 0.950 . S
H885 C896 0.950 . S
H886 C898 0.950 . S
H887 C899 0.950 . S
C888 H880 0.950 . S
C888 C889 1.386 . S
C888 C890 1.391 . S
C889 C888 1.386 . S
C889 C893 1.393 . S
C890 H882 0.950 . S
C890 C888 1.391 . S
C890 C891 1.400 . S
C891 C890 1.400 . S
C891 C892 1.398 . S
C891 C897 1.491 . S
C892 H883 0.950 . S
C892 C891 1.398 . S
C892 C893 1.391 . S
C893 H881 0.950 . S
C893 C889 1.393 . S
C893 C892 1.391 . S
C894 H884 0.950 . S
C894 C895 1.386 . S
C894 C896 1.391 . S
C895 C894 1.386 . S
C895 C899 1.393 . S
C896 H885 0.950 . S
C896 C894 1.391 . S
C896 C897 1.400 . S
C897 C891 1.491 . S
C897 C896 1.400 . S
C897 C898 1.398 . S
C898 H886 0.950 . S
C898 C897 1.398 . S
C898 C899 1.391 . S
C899 H887 0.950 . S
C899 C895 1.393 . S
C899 C898 1.391 . S
H900 C908 0.950 . S
H901 C913 0.950 . S
H902 C910 0.950 . S
H903 C912 0.950 . S
H904 C914 0.950 . S
H905 C916 0.950 . S
H906 C918 0.950 . S
H907 C919 0.950 . S
C908 H900 0.950 . S
C908 C909 1.386 . S
C908 C910 1.391 . S
C909 C908 1.386 . S
C909 C913 1.393 . S
C910 H902 0.950 . S
C910 C908 1.391 . S
C910 C911 1.400 . S
C911 C910 1.400 . S
C911 C912 1.398 . S
C911 C917 1.491 . S
C912 H903 0.950 . S
C912 C911 1.398 . S
C912 C913 1.391 . S
C913 H901 0.950 . S
C913 C909 1.393 . S
C913 C912 1.391 . S
C914 H904 0.950 . S
C914 C915 1.386 . S
C914 C916 1.391 . S
C915 C914 1.386 . S
C915 C919 1.393 . S
C916 H905 0.950 . S
C916 C914 1.391 . S
C916 C917 1.400 . S
C917 C911 1.491 . S
C917 C916 1.400 . S
C917 C918 1.398 . S
C918 H906 0.950 . S
C918 C917 1.398 . S
C918 C919 1.391 . S
C919 H907 0.950 . S
C919 C915 1.393 . S
C919 C918 1.391 . S
C449 C255 1.867 . S
C455 C330 1.895 . S
C475 C360 1.757 . S
C469 C295 1.737 . S
C495 N394 1.848 . S
C489 C175 1.816 . S
C515 N424 1.400 . S
C509 C215 1.445 1_655 S
C535 C321 1.908 1_565 S
C529 C95 1.871 1_556 S
C549 C135 1.738 . S
C555 C351 1.754 . S
C569 C15 1.825 . S
C575 N386 1.851 . S
C589 C55 1.418 . S
C595 N416 1.364 . S
C615 C336 0.474 . S
C609 C221 0.559 . S
C635 C366 0.682 . S
C629 C261 0.706 . S
C655 C407 0.500 . S
C649 C301 0.517 . S
C669 C181 0.617 . S
C675 C437 0.630 . S
C689 C61 0.675 1_655 S
C695 C347 0.491 . S
C715 C377 0.719 . S
C709 C101 0.759 . S
C735 C396 0.495 . S
C729 C141 0.524 . S
C749 C21 0.734 . S
C755 C426 0.676 . S
C769 C202 1.746 . S
C775 N326 1.799 . S
C789 C242 1.919 . S
C795 N356 1.954 . S
C815 C381 1.968 . S
C809 C282 1.892 . S
C835 C411 2.258 . S
C829 C162 2.205 . S
C849 C42 1.770 1_655 S
C855 N334 1.818 . S
C875 N364 1.968 . S
C869 C82 1.860 . S
C895 C390 1.967 . S
C889 C122 1.921 . S
C909 C2 2.109 . S
C915 C420 2.264 . S
