# Generated by pormake.
# Topology pyr, (3,6)-cn, num edge types: 1
# Building blocks:
#     Node 0, Type 0, BuildingBlock: OLANEW_clean_sbu_2, # of connection points: 3
#     Node 1, Type 0, BuildingBlock: OLANEW_clean_sbu_2, # of connection points: 3
#     Node 2, Type 0, BuildingBlock: OLANEW_clean_sbu_2, # of connection points: 3
#     Node 3, Type 0, BuildingBlock: OLANEW_clean_sbu_2, # of connection points: 3
#     Node 4, Type 0, BuildingBlock: OLANEW_clean_sbu_2, # of connection points: 3
#     Node 5, Type 0, BuildingBlock: OLANEW_clean_sbu_2, # of connection points: 3
#     Node 6, Type 0, BuildingBlock: OLANEW_clean_sbu_2, # of connection points: 3
#     Node 7, Type 0, BuildingBlock: OLANEW_clean_sbu_2, # of connection points: 3
#     Node 8, Type 1, BuildingBlock: BETDAH_clean_sbu_0, # of connection points: 6
#     Node 9, Type 1, BuildingBlock: BETDAH_clean_sbu_0, # of connection points: 6
#     Node 10, Type 1, BuildingBlock: BETDAH_clean_sbu_0, # of connection points: 6
#     Node 11, Type 1, BuildingBlock: BETDAH_clean_sbu_0, # of connection points: 6
#     Edge 12, Type (0, 1), BuildingBlock: EYOCIG_clean_linker_4, # of connection points: 2
#     Edge 13, Type (0, 1), BuildingBlock: EYOCIG_clean_linker_4, # of connection points: 2
#     Edge 14, Type (0, 1), BuildingBlock: EYOCIG_clean_linker_4, # of connection points: 2
#     Edge 15, Type (0, 1), BuildingBlock: EYOCIG_clean_linker_4, # of connection points: 2
#     Edge 16, Type (0, 1), BuildingBlock: EYOCIG_clean_linker_4, # of connection points: 2
#     Edge 17, Type (0, 1), BuildingBlock: EYOCIG_clean_linker_4, # of connection points: 2
#     Edge 18, Type (0, 1), BuildingBlock: EYOCIG_clean_linker_4, # of connection points: 2
#     Edge 19, Type (0, 1), BuildingBlock: EYOCIG_clean_linker_4, # of connection points: 2
#     Edge 20, Type (0, 1), BuildingBlock: EYOCIG_clean_linker_4, # of connection points: 2
#     Edge 21, Type (0, 1), BuildingBlock: EYOCIG_clean_linker_4, # of connection points: 2
#     Edge 22, Type (0, 1), BuildingBlock: EYOCIG_clean_linker_4, # of connection points: 2
#     Edge 23, Type (0, 1), BuildingBlock: EYOCIG_clean_linker_4, # of connection points: 2
#     Edge 24, Type (0, 1), BuildingBlock: EYOCIG_clean_linker_4, # of connection points: 2
#     Edge 25, Type (0, 1), BuildingBlock: EYOCIG_clean_linker_4, # of connection points: 2
#     Edge 26, Type (0, 1), BuildingBlock: EYOCIG_clean_linker_4, # of connection points: 2
#     Edge 27, Type (0, 1), BuildingBlock: EYOCIG_clean_linker_4, # of connection points: 2
#     Edge 28, Type (0, 1), BuildingBlock: EYOCIG_clean_linker_4, # of connection points: 2
#     Edge 29, Type (0, 1), BuildingBlock: EYOCIG_clean_linker_4, # of connection points: 2
#     Edge 30, Type (0, 1), BuildingBlock: EYOCIG_clean_linker_4, # of connection points: 2
#     Edge 31, Type (0, 1), BuildingBlock: EYOCIG_clean_linker_4, # of connection points: 2
#     Edge 32, Type (0, 1), BuildingBlock: EYOCIG_clean_linker_4, # of connection points: 2
#     Edge 33, Type (0, 1), BuildingBlock: EYOCIG_clean_linker_4, # of connection points: 2
#     Edge 34, Type (0, 1), BuildingBlock: EYOCIG_clean_linker_4, # of connection points: 2
#     Edge 35, Type (0, 1), BuildingBlock: EYOCIG_clean_linker_4, # of connection points: 2
# Relax obj value: 0.168
# Max RMSD: 0.174
# Mean RMSD: 0.123
data_MOF--net-pyr--node1-OLANEW_clean_sbu_2--node2-BETDAH_clean_sbu_0--edge1-EYOCIG_clean_linker_4
_symmetry_space_group_name_H-M    P1
_symmetry_Int_Tables_number       1
_symmetry_cell_setting            triclinic
loop_
_symmetry_equiv_pos_as_xyz
'x, y, z'
_cell_length_a     33.521591
_cell_length_b     36.043184
_cell_length_c     30.871132
_cell_angle_alpha  94.062716
_cell_angle_beta   86.753732
_cell_angle_gamma 104.37711
loop_
_atom_site_label
_atom_site_type_symbol
_atom_site_fract_x
_atom_site_fract_y
_atom_site_fract_z
_atom_type_partial_charge
O0 O 0.41195 0.31237 0.23238 0.0
Cd1 Cd 0.38039 0.35917 0.27655 0.0
O2 O 0.36065 0.27586 0.2671 0.0
Cd3 Cd 0.32271 0.22252 0.28791 0.0
O4 O 0.29458 0.23392 0.34995 0.0
C5 C 0.3178 0.25101 0.38002 0.0
O6 O 0.35802 0.25852 0.37417 0.0
C7 C 0.39209 0.27895 0.24183 0.0
C8 C 0.32176 0.39286 0.24401 0.0
O9 O 0.36007 0.41018 0.2436 0.0
O10 O 0.31093 0.359 0.25792 0.0
O11 O 0.24914 0.91044 0.70982 0.0
Cd12 Cd 0.21827 0.86435 0.65355 0.0
O13 O 0.21655 0.87985 0.76628 0.0
Cd14 Cd 0.16759 0.84644 0.72711 0.0
O15 O 0.14907 0.87742 0.67856 0.0
C16 C 0.15555 0.91199 0.693 0.0
O17 O 0.16553 0.92146 0.73341 0.0
C18 C 0.24487 0.90621 0.75031 0.0
C19 C 0.27856 0.82533 0.63386 0.0
O20 O 0.28261 0.85951 0.62266 0.0
O21 O 0.24492 0.8081 0.65317 0.0
O22 O 0.74667 0.44467 0.8995 0.0
Cd23 Cd 0.67806 0.42764 0.85976 0.0
O24 O 0.74325 0.39478 0.94021 0.0
Cd25 Cd 0.68577 0.34796 0.93189 0.0
O26 O 0.63941 0.29434 0.94988 0.0
C27 C 0.64784 0.27481 0.97944 0.0
O28 O 0.68354 0.28614 0.99772 0.0
C29 C 0.76215 0.42781 0.92742 0.0
C30 C 0.64904 0.46732 0.79506 0.0
O31 O 0.65121 0.48001 0.83488 0.0
O32 O 0.66237 0.4374 0.7845 0.0
O33 O 0.93425 0.7884 0.4247 0.0
Cd34 Cd 0.91037 0.72245 0.38201 0.0
O35 O 0.90464 0.77481 0.48982 0.0
Cd36 Cd 0.875 0.71511 0.47413 0.0
O37 O 0.8159 0.67325 0.47596 0.0
C38 C 0.78968 0.68195 0.50353 0.0
O39 O 0.80009 0.71326 0.52899 0.0
C40 C 0.92615 0.7988 0.46429 0.0
C41 C 0.93907 0.68592 0.30346 0.0
O42 O 0.92612 0.71646 0.3024 0.0
O43 O 0.94098 0.67352 0.341 0.0
O44 O 0.65963 0.7718 0.81597 0.0
Cd45 Cd 0.63264 0.73542 0.87737 0.0
O46 O 0.64879 0.81391 0.86614 0.0
Cd47 Cd 0.65851 0.86972 0.89773 0.0
O48 O 0.62096 0.89847 0.93827 0.0
C49 C 0.58527 0.89852 0.92697 0.0
O50 O 0.57138 0.88217 0.88962 0.0
C51 C 0.66596 0.80627 0.8303 0.0
C52 C 0.70244 0.7149 0.89932 0.0
O53 O 0.67651 0.69331 0.87384 0.0
O54 O 0.6947 0.7458 0.91681 0.0
O55 O 0.7585 0.2003 0.47675 0.0
Cd56 Cd 0.80193 0.23097 0.53389 0.0
O57 O 0.78916 0.24259 0.42956 0.0
Cd58 Cd 0.83049 0.27627 0.47706 0.0
O59 O 0.79452 0.30371 0.5244 0.0
C60 C 0.76229 0.30886 0.5086 0.0
O61 O 0.75603 0.30112 0.46702 0.0
C62 C 0.76095 0.21348 0.43958 0.0
C63 C 0.86158 0.19335 0.54054 0.0
O64 O 0.82549 0.1805 0.55754 0.0
O65 O 0.86982 0.22436 0.52046 0.0
O66 O 0.42539 0.82574 0.26744 0.0
Cd67 Cd 0.4137 0.75919 0.30107 0.0
O68 O 0.36769 0.82037 0.23184 0.0
Cd69 Cd 0.32555 0.76359 0.2413 0.0
O70 O 0.27447 0.716 0.21712 0.0
C71 C 0.25217 0.72401 0.18882 0.0
O72 O 0.25936 0.75938 0.17698 0.0
C73 C 0.40338 0.8395 0.24284 0.0
C74 C 0.44157 0.71556 0.36341 0.0
O75 O 0.46578 0.73112 0.33245 0.0
O76 O 0.40586 0.72261 0.36749 0.0
O77 O 0.17327 0.47109 0.80485 0.0
Cd78 Cd 0.20155 0.44062 0.73911 0.0
O79 O 0.13005 0.41693 0.82341 0.0
Cd80 Cd 0.14781 0.37714 0.77276 0.0
O81 O 0.14112 0.3208 0.73739 0.0
C82 C 0.10615 0.29758 0.74304 0.0
O83 O 0.07758 0.30865 0.76767 0.0
C84 C 0.14464 0.45289 0.83 0.0
C85 C 0.27799 0.47619 0.69937 0.0
O86 O 0.24507 0.48587 0.69108 0.0
O87 O 0.27552 0.45111 0.72743 0.0
Ho88 Ho 0.03094 0.06129 0.57421 0.0
Ho89 Ho 0.98072 0.03341 0.6547 0.0
C90 C 0.03344 0.11946 0.65949 0.0
C91 C 0.07337 0.09943 0.51332 0.0
C92 C 0.10873 0.13328 0.51427 0.0
C93 C 0.10234 0.17051 0.51705 0.0
C94 C 0.1356 0.20233 0.51276 0.0
C95 C 0.17546 0.19719 0.5059 0.0
C96 C 0.18244 0.16049 0.50603 0.0
C97 C 0.14929 0.12867 0.51047 0.0
C98 C 0.06889 0.02945 0.62833 0.0
C99 C 0.97871 0.97503 0.56747 0.0
C100 C 0.9442 0.99941 0.72121 0.0
C101 C 0.90655 0.96897 0.7271 0.0
C102 C 0.90879 0.93071 0.72923 0.0
C103 C 0.87315 0.90223 0.73774 0.0
C104 C 0.83537 0.9121 0.74402 0.0
C105 C 0.83269 0.94967 0.74007 0.0
C106 C 0.86803 0.97805 0.73166 0.0
C107 C 0.94262 0.06607 0.60026 0.0
O108 O 0.03647 0.11595 0.61671 0.0
O109 O 0.01859 0.08947 0.68291 0.0
O110 O 0.08046 0.06783 0.52574 0.0
O111 O 0.03754 0.10471 0.52786 0.0
O112 O 0.07208 1.02433 0.58679 0.0
O113 O 0.0468 0.05178 0.64023 0.0
O114 O 0.97326 0.97844 0.61049 0.0
O115 O 0.9951 1.00513 0.54452 0.0
O116 O 0.93882 0.03209 0.70999 0.0
O117 O 0.97538 0.98949 0.70017 0.0
O118 O 0.93659 0.06845 0.64186 0.0
O119 O 0.9654 0.04408 0.58957 0.0
H120 H 0.07153 0.175 0.52066 0.0
H121 H 0.12992 0.23061 0.5123 0.0
H122 H 0.21328 0.15625 0.50057 0.0
H123 H 0.15536 0.10044 0.50898 0.0
H124 H 0.9381 0.92303 0.72551 0.0
H125 H 0.87533 0.87306 0.74095 0.0
H126 H 0.80339 0.95735 0.74502 0.0
H127 H 0.86515 1.00718 0.72991 0.0
Ho128 Ho 0.52409 0.0801 0.14429 0.0
Ho129 Ho 0.44883 0.06095 0.07819 0.0
C130 C 0.44696 0.12057 0.16036 0.0
C131 C 0.58784 0.11737 0.18273 0.0
C132 C 0.59209 0.13688 0.2258 0.0
C133 C 0.59966 0.17707 0.23 0.0
C134 C 0.61011 0.19631 0.26992 0.0
C135 C 0.61322 0.17519 0.30519 0.0
C136 C 0.60096 0.13519 0.30245 0.0
C137 C 0.5902 0.11593 0.26281 0.0
C138 C 0.46731 1.01521 0.16626 0.0
C139 C 0.5275 1.025 0.05951 0.0
C140 C 0.38764 1.02687 1.0334 0.0
C141 C 0.38565 1.0089 0.98928 0.0
C142 C 0.37891 0.96884 0.98302 0.0
C143 C 0.36977 0.95106 0.94207 0.0
C144 C 0.36768 0.97348 0.90761 0.0
C145 C 0.37871 1.01341 0.91252 0.0
C146 C 0.38787 0.03121 0.95326 0.0
C147 C 0.51324 0.11896 0.05249 0.0
O148 O 0.48351 0.11785 0.17205 0.0
O149 O 0.42581 0.09905 0.12877 0.0
O150 O 0.57639 0.07974 0.18119 0.0
O151 O 0.56952 0.13291 0.15512 0.0
O152 O 0.50023 0.03051 0.18748 0.0
O153 O 0.46541 0.03757 0.13679 0.0
O154 O 0.48907 1.02382 0.05111 0.0
O155 O 0.54923 0.04749 0.08989 0.0
O156 O 0.4007 0.06437 0.03671 0.0
O157 O 0.40234 1.00955 0.06245 0.0
O158 O 0.48017 0.10683 1.03072 0.0
O159 O 0.50896 0.09855 0.08433 0.0
H160 H 0.60025 0.19368 0.20195 0.0
H161 H 0.62006 0.22737 0.27191 0.0
H162 H 0.60361 0.11882 0.32985 0.0
H163 H 0.58325 0.08488 0.26076 0.0
H164 H 0.37804 0.95114 1.01016 0.0
H165 H 0.36109 0.92 0.93823 0.0
H166 H 0.37704 0.03073 0.88566 0.0
H167 H 0.39403 0.0622 0.95683 0.0
Ho168 Ho 0.5324 0.53798 0.54484 0.0
Ho169 Ho 0.52329 0.60668 0.60341 0.0
C170 C 0.56133 0.54749 0.64655 0.0
C171 C 0.56705 0.48657 0.50852 0.0
C172 C 0.58581 0.45698 0.52423 0.0
C173 C 0.62776 0.46623 0.53422 0.0
C174 C 0.64642 0.43774 0.54499 0.0
C175 C 0.62361 0.39964 0.54619 0.0
C176 C 0.58155 0.39021 0.53787 0.0
C177 C 0.56275 0.41874 0.52692 0.0
C178 C 0.45835 0.52974 0.58665 0.0
C179 C 0.49726 0.60069 0.50145 0.0
C180 C 0.49312 0.65923 0.64272 0.0
C181 C 0.47375 0.68832 0.62792 0.0
C182 C 0.43216 0.67803 0.617 0.0
C183 C 0.41233 0.70606 0.60846 0.0
C184 C 0.4336 0.74465 0.61066 0.0
C185 C 0.47581 0.7552 0.61825 0.0
C186 C 0.49589 0.72698 0.62688 0.0
C187 C 0.59724 0.61364 0.56316 0.0
O188 O 0.56252 0.53092 0.607 0.0
O189 O 0.54351 0.57607 0.6554 0.0
O190 O 0.52698 0.48123 0.51348 0.0
O191 O 0.58671 0.52237 0.51664 0.0
O192 O 0.46337 0.51459 0.54788 0.0
O193 O 0.49273 0.54557 0.60236 0.0
O194 O 0.49441 0.61588 0.54147 0.0
O195 O 0.51438 0.57133 0.49274 0.0
O196 O 0.53258 0.664 0.63349 0.0
O197 O 0.47224 0.6234 0.63746 0.0
O198 O 0.59217 0.62829 0.60204 0.0
O199 O 0.56314 0.59881 0.54654 0.0
H200 H 0.64658 0.49527 0.53246 0.0
H201 H 0.6791 0.44531 0.55097 0.0
H202 H 0.56366 0.36071 0.53816 0.0
H203 H 0.53048 0.41065 0.5193 0.0
H204 H 0.41427 0.64854 0.6169 0.0
H205 H 0.37964 0.69772 0.60251 0.0
H206 H 0.49252 0.78511 0.62002 0.0
H207 H 0.52813 0.73556 0.63464 0.0
Ho208 Ho 0.02709 0.52466 0.08237 0.0
Ho209 Ho 0.01016 0.59576 1.0291 0.0
C210 C 0.09175 0.61079 0.08491 0.0
C211 C 0.07046 0.47816 0.10041 0.0
C212 C 0.10714 0.47905 0.12636 0.0
C213 C 0.14605 0.48193 0.10508 0.0
C214 C 0.17917 0.47588 0.12701 0.0
C215 C 0.17422 0.46682 0.17068 0.0
C216 C 0.13662 0.4669 0.19314 0.0
C217 C 0.10334 0.473 0.17119 0.0
C218 C 0.99466 0.57572 0.13488 0.0
C219 C 0.94337 0.5106 1.02566 0.0
C220 C 0.97412 0.64676 1.00911 0.0
C221 C 0.93716 0.64699 0.98534 0.0
C222 C 0.89899 0.64335 1.00816 0.0
C223 C 0.86529 0.64932 0.98785 0.0
C224 C 0.86914 0.65902 0.94454 0.0
C225 C 0.90609 0.66008 0.92052 0.0
C226 C 0.94005 0.65407 0.94086 0.0
C227 C 0.04929 0.5481 0.98053 0.0
O228 O 0.08332 0.57384 0.09256 0.0
O229 O 0.06788 0.62664 0.06304 0.0
O230 O 0.0352 0.47914 0.12104 0.0
O231 O 0.07741 0.49822 0.06573 0.0
O232 O 0.00156 0.54449 0.14823 0.0
O233 O 0.00462 0.57608 0.09481 0.0
O234 O 0.95285 0.54769 1.01781 0.0
O235 O 0.96729 0.49435 0.048 0.0
O236 O 0.006 0.63963 0.98642 0.0
O237 O 0.96733 0.63025 0.04627 0.0
O238 O 0.04425 0.57983 0.96667 0.0
O239 O 0.03045 0.5438 1.01698 0.0
H240 H 0.1504 0.48691 0.07075 0.0
H241 H 0.20806 0.47631 0.10917 0.0
H242 H 0.13226 0.46032 0.22705 0.0
H243 H 0.07413 0.47111 0.18887 0.0
H244 H 0.89553 0.63764 0.04232 0.0
H245 H 0.83674 0.6482 1.00665 0.0
H246 H 0.90931 0.66736 0.88682 0.0
H247 H 0.96893 0.65666 0.92232 0.0
C248 C 0.27535 0.25945 0.4514 0.0
C249 C 0.29942 0.25822 0.42145 0.0
C250 C 0.24008 0.24799 0.47836 0.0
C251 C 0.20837 0.22802 0.49193 0.0
C252 C 0.30191 0.93933 0.80328 0.0
C253 C 0.27722 0.92581 0.77677 0.0
C254 C 0.32824 0.94825 0.83752 0.0
C255 C 0.34604 0.95671 0.87037 0.0
C256 C 0.61467 0.50081 0.7377 0.0
C257 C 0.63038 0.4853 0.76349 0.0
C258 C 0.59557 0.51856 0.7076 0.0
C259 C 0.57955 0.53275 0.68091 0.0
C260 C 0.95897 0.64757 0.23045 0.0
C261 C 0.94983 0.66527 0.2634 0.0
C262 C 0.97015 0.6255 0.1928 0.0
C263 C 0.98119 0.60501 0.16349 0.0
C264 C 0.41249 0.21514 0.21185 0.0
C265 C 0.40433 0.24498 0.22474 0.0
C266 C 0.42188 0.18037 0.19564 0.0
C267 C 0.43246 0.15281 0.17895 0.0
C268 C 0.13643 0.96844 0.66211 0.0
C269 C 0.14461 0.93952 0.66962 0.0
C270 C 0.11704 0.99793 0.66253 0.0
C271 C 0.09353 1.01605 0.65525 0.0
C272 C 0.83439 0.45904 0.96554 0.0
C273 C 0.80182 0.44648 0.94699 0.0
C274 C 0.87243 0.47342 0.98833 0.0
C275 C 0.90492 0.48752 1.0066 0.0
C276 C 0.71263 0.64268 0.51216 0.0
C277 C 0.74828 0.65885 0.50607 0.0
C278 C 0.67087 0.62838 0.52453 0.0
C279 C 0.63618 0.62037 0.53973 0.0
C280 C 0.26536 0.42649 0.21892 0.0
C281 C 0.29137 0.41147 0.23027 0.0
C282 C 0.23384 0.44248 0.20477 0.0
C283 C 0.20605 0.45342 0.19042 0.0
C284 C 0.59614 0.21293 1.01004 0.0
C285 C 0.6183 0.24128 0.9947 0.0
C286 C 0.57043 0.1799 1.0288 0.0
C287 C 0.54628 0.1519 0.04252 0.0
C288 C 0.94779 0.87025 0.49999 0.0
C289 C 0.93932 0.83858 0.48112 0.0
C290 C 0.95725 0.90661 0.52413 0.0
C291 C 0.96674 0.93743 0.54467 0.0
C292 C 0.3437 0.79784 0.61892 0.0
C293 C 0.31256 0.80818 0.62685 0.0
C294 C 0.38103 0.78691 0.61258 0.0
C295 C 0.40953 0.77229 0.6116 0.0
C296 C 0.72794 0.85188 0.79144 0.0
C297 C 0.69894 0.83383 0.81149 0.0
C298 C 0.766 0.86861 0.77174 0.0
C299 C 0.79938 0.88542 0.75883 0.0
C300 C 0.69563 0.19937 0.39387 0.0
C301 C 0.72472 0.2046 0.4159 0.0
C302 C 0.66324 0.19785 0.36728 0.0
C303 C 0.64034 0.19243 0.33822 0.0
C304 C 0.4623 0.66627 0.4143 0.0
C305 C 0.45303 0.68872 0.39109 0.0
C306 C 0.47375 0.64016 0.44159 0.0
C307 C 0.48507 0.62039 0.46659 0.0
C308 C 0.11077 0.48792 0.89596 0.0
C309 C 0.127 0.47299 0.86561 0.0
C310 C 0.08977 0.50563 0.92992 0.0
C311 C 0.07082 0.5226 0.95579 0.0
C312 C 0.55458 0.94389 0.9795 0.0
C313 C 0.56392 0.92197 0.95248 0.0
C314 C 0.55088 0.97285 1.01046 0.0
C315 C 0.54483 0.998 0.03508 0.0
C316 C 0.91291 0.15118 0.54859 0.0
C317 C 0.89181 0.17248 0.54319 0.0
C318 C 0.92958 0.12153 0.55902 0.0
C319 C 0.93739 0.09484 0.57416 0.0
C320 C 0.19194 0.67437 0.14812 0.0
C321 C 0.21987 0.69495 0.1683 0.0
C322 C 0.15799 0.65307 0.12386 0.0
C323 C 0.12753 0.63515 0.10538 0.0
C324 C 0.34911 0.50322 0.6564 0.0
C325 C 0.31641 0.49123 0.67564 0.0
C326 C 0.38733 0.51433 0.63258 0.0
C327 C 0.41988 0.52152 0.61193 0.0
C328 C 0.7708 0.69434 0.91155 0.0
C329 C 0.73999 0.70478 0.90685 0.0
C330 C 0.80634 0.68155 0.91774 0.0
C331 C 0.83633 0.67166 0.92709 0.0
C332 C 0.42626 0.90748 0.2066 0.0
C333 C 0.41865 0.87715 0.2246 0.0
C334 C 0.43424 0.94336 0.18583 0.0
C335 C 0.44479 0.97548 0.17198 0.0
C336 C 0.08501 0.22631 0.7099 0.0
C337 C 0.0973 0.25914 0.72363 0.0
C338 C 0.0671 0.18817 0.69483 0.0
C339 C 0.0513 0.15622 0.68048 0.0
C340 C 0.70289 0.33423 0.54914 0.0
C341 C 0.73216 0.32287 0.53507 0.0
C342 C 0.66933 0.35128 0.55479 0.0
C343 C 0.64513 0.37041 0.55104 0.0
loop_
_geom_bond_atom_site_label_1
_geom_bond_atom_site_label_2
_geom_bond_distance
_geom_bond_site_symmetry_2
_ccdc_geom_bond_type
O0 Cd1 2.300 . S
O0 C7 1.275 . S
Cd1 O0 2.300 . S
Cd1 O9 2.381 . S
Cd1 O10 2.378 . S
O2 Cd3 2.385 . S
O2 C7 1.255 . S
Cd3 O2 2.385 . S
Cd3 O4 2.317 . S
O4 Cd3 2.317 . S
O4 C5 1.232 . S
C5 O4 1.232 . S
C5 O6 1.218 . S
O6 C5 1.218 . S
C7 O0 1.275 . S
C7 O2 1.255 . S
C8 O9 1.258 . S
C8 O10 1.256 . S
O9 Cd1 2.381 . S
O9 C8 1.258 . S
O10 Cd1 2.378 . S
O10 C8 1.256 . S
O11 Cd12 2.300 . S
O11 C18 1.275 . S
Cd12 O11 2.300 . S
Cd12 O20 2.381 . S
Cd12 O21 2.378 . S
O13 Cd14 2.385 . S
O13 C18 1.255 . S
Cd14 O13 2.385 . S
Cd14 O15 2.317 . S
O15 Cd14 2.317 . S
O15 C16 1.232 . S
C16 O15 1.232 . S
C16 O17 1.218 . S
O17 C16 1.218 . S
C18 O11 1.275 . S
C18 O13 1.255 . S
C19 O20 1.258 . S
C19 O21 1.256 . S
O20 Cd12 2.381 . S
O20 C19 1.258 . S
O21 Cd12 2.378 . S
O21 C19 1.256 . S
O22 Cd23 2.300 . S
O22 C29 1.275 . S
Cd23 O22 2.300 . S
Cd23 O31 2.381 . S
Cd23 O32 2.378 . S
O24 Cd25 2.385 . S
O24 C29 1.255 . S
Cd25 O24 2.385 . S
Cd25 O26 2.317 . S
O26 Cd25 2.317 . S
O26 C27 1.232 . S
C27 O26 1.232 . S
C27 O28 1.218 . S
O28 C27 1.218 . S
C29 O22 1.275 . S
C29 O24 1.255 . S
C30 O31 1.258 . S
C30 O32 1.256 . S
O31 Cd23 2.381 . S
O31 C30 1.258 . S
O32 Cd23 2.378 . S
O32 C30 1.256 . S
O33 Cd34 2.300 . S
O33 C40 1.275 . S
Cd34 O33 2.300 . S
Cd34 O42 2.381 . S
Cd34 O43 2.378 . S
O35 Cd36 2.385 . S
O35 C40 1.255 . S
Cd36 O35 2.385 . S
Cd36 O37 2.317 . S
O37 Cd36 2.317 . S
O37 C38 1.232 . S
C38 O37 1.232 . S
C38 O39 1.218 . S
O39 C38 1.218 . S
C40 O33 1.275 . S
C40 O35 1.255 . S
C41 O42 1.258 . S
C41 O43 1.256 . S
O42 Cd34 2.381 . S
O42 C41 1.258 . S
O43 Cd34 2.378 . S
O43 C41 1.256 . S
O44 Cd45 2.300 . S
O44 C51 1.275 . S
Cd45 O44 2.300 . S
Cd45 O53 2.381 . S
Cd45 O54 2.378 . S
O46 Cd47 2.385 . S
O46 C51 1.255 . S
Cd47 O46 2.385 . S
Cd47 O48 2.317 . S
O48 Cd47 2.317 . S
O48 C49 1.232 . S
C49 O48 1.232 . S
C49 O50 1.218 . S
O50 C49 1.218 . S
C51 O44 1.275 . S
C51 O46 1.255 . S
C52 O53 1.258 . S
C52 O54 1.256 . S
O53 Cd45 2.381 . S
O53 C52 1.258 . S
O54 Cd45 2.378 . S
O54 C52 1.256 . S
O55 Cd56 2.300 . S
O55 C62 1.275 . S
Cd56 O55 2.300 . S
Cd56 O64 2.381 . S
Cd56 O65 2.378 . S
O57 Cd58 2.385 . S
O57 C62 1.255 . S
Cd58 O57 2.385 . S
Cd58 O59 2.317 . S
O59 Cd58 2.317 . S
O59 C60 1.232 . S
C60 O59 1.232 . S
C60 O61 1.218 . S
O61 C60 1.218 . S
C62 O55 1.275 . S
C62 O57 1.255 . S
C63 O64 1.258 . S
C63 O65 1.256 . S
O64 Cd56 2.381 . S
O64 C63 1.258 . S
O65 Cd56 2.378 . S
O65 C63 1.256 . S
O66 Cd67 2.300 . S
O66 C73 1.275 . S
Cd67 O66 2.300 . S
Cd67 O75 2.381 . S
Cd67 O76 2.378 . S
O68 Cd69 2.385 . S
O68 C73 1.255 . S
Cd69 O68 2.385 . S
Cd69 O70 2.317 . S
O70 Cd69 2.317 . S
O70 C71 1.232 . S
C71 O70 1.232 . S
C71 O72 1.218 . S
O72 C71 1.218 . S
C73 O66 1.275 . S
C73 O68 1.255 . S
C74 O75 1.258 . S
C74 O76 1.256 . S
O75 Cd67 2.381 . S
O75 C74 1.258 . S
O76 Cd67 2.378 . S
O76 C74 1.256 . S
O77 Cd78 2.300 . S
O77 C84 1.275 . S
Cd78 O77 2.300 . S
Cd78 O86 2.381 . S
Cd78 O87 2.378 . S
O79 Cd80 2.385 . S
O79 C84 1.255 . S
Cd80 O79 2.385 . S
Cd80 O81 2.317 . S
O81 Cd80 2.317 . S
O81 C82 1.232 . S
C82 O81 1.232 . S
C82 O83 1.218 . S
O83 C82 1.218 . S
C84 O77 1.275 . S
C84 O79 1.255 . S
C85 O86 1.258 . S
C85 O87 1.256 . S
O86 Cd78 2.381 . S
O86 C85 1.258 . S
O87 Cd78 2.378 . S
O87 C85 1.256 . S
Ho88 C91 2.811 . S
Ho88 O108 2.322 . S
Ho88 O110 2.378 . S
Ho88 O111 2.524 . S
Ho88 O112 2.381 . S
Ho88 O113 2.669 . S
Ho88 O115 2.346 1_445 S
Ho88 O119 2.305 1_455 S
Ho89 C100 2.811 1_545 S
Ho89 O109 2.346 1_655 S
Ho89 O113 2.305 1_655 S
Ho89 O114 2.322 1_545 S
Ho89 O116 2.378 1_545 S
Ho89 O117 2.524 1_545 S
Ho89 O118 2.381 . S
Ho89 O119 2.669 . S
C90 O108 1.259 . S
C90 O109 1.268 . S
C91 Ho88 2.811 . S
C91 C92 1.488 . S
C91 O110 1.215 . S
C91 O111 1.289 . S
C92 C91 1.488 . S
C92 C93 1.348 . S
C92 C97 1.413 . S
C93 C92 1.348 . S
C93 C94 1.442 . S
C93 H120 0.930 . S
C94 C93 1.442 . S
C94 C95 1.381 . S
C94 H121 0.931 . S
C95 C94 1.381 . S
C95 C96 1.321 . S
C96 C95 1.321 . S
C96 C97 1.403 . S
C96 H122 0.934 . S
C97 C92 1.413 . S
C97 C96 1.403 . S
C97 H123 0.930 . S
C98 O112 1.275 1_565 S
C98 O113 1.256 1_565 S
C99 O114 1.259 . S
C99 O115 1.268 . S
C100 Ho89 2.811 1_565 S
C100 C101 1.488 . S
C100 O116 1.215 . S
C100 O117 1.289 . S
C101 C100 1.488 . S
C101 C102 1.348 . S
C101 C106 1.413 . S
C102 C101 1.348 . S
C102 C103 1.442 . S
C102 H124 0.930 . S
C103 C102 1.442 . S
C103 C104 1.381 . S
C103 H125 0.931 . S
C104 C103 1.381 . S
C104 C105 1.321 . S
C105 C104 1.321 . S
C105 C106 1.403 . S
C105 H126 0.934 . S
C106 C101 1.413 . S
C106 C105 1.403 . S
C106 H127 0.930 . S
C107 O118 1.275 . S
C107 O119 1.256 . S
O108 Ho88 2.322 . S
O108 C90 1.259 . S
O109 Ho89 2.346 1_455 S
O109 C90 1.268 . S
O110 Ho88 2.378 . S
O110 C91 1.215 . S
O111 Ho88 2.524 . S
O111 C91 1.289 . S
O112 Ho88 2.381 . S
O112 C98 1.275 1_545 S
O113 Ho88 2.669 . S
O113 Ho89 2.305 1_455 S
O113 C98 1.256 1_545 S
O114 Ho89 2.322 1_565 S
O114 C99 1.259 . S
O115 Ho88 2.346 1_665 S
O115 C99 1.268 . S
O116 Ho89 2.378 1_565 S
O116 C100 1.215 . S
O117 Ho89 2.524 1_565 S
O117 C100 1.289 . S
O118 Ho89 2.381 . S
O118 C107 1.275 . S
O119 Ho88 2.305 1_655 S
O119 Ho89 2.669 . S
O119 C107 1.256 . S
H120 C93 0.930 . S
H121 C94 0.931 . S
H122 C96 0.934 . S
H123 C97 0.930 . S
H124 C102 0.930 . S
H125 C103 0.931 . S
H126 C105 0.934 . S
H127 C106 0.930 . S
Ho128 C131 2.811 . S
Ho128 O148 2.322 . S
Ho128 O150 2.378 . S
Ho128 O151 2.524 . S
Ho128 O152 2.381 1_545 S
Ho128 O153 2.669 . S
Ho128 O155 2.346 . S
Ho128 O159 2.305 . S
Ho129 C140 2.811 1_544 S
Ho129 O149 2.346 . S
Ho129 O153 2.305 . S
Ho129 O154 2.314 1_554 S
Ho129 O156 2.378 1_554 S
Ho129 O157 2.524 1_544 S
Ho129 O158 2.381 . S
Ho129 O159 2.669 . S
C130 O148 1.259 . S
C130 O149 1.268 . S
C131 Ho128 2.811 . S
C131 C132 1.488 . S
C131 O150 1.215 . S
C131 O151 1.289 . S
C132 C131 1.488 . S
C132 C133 1.348 . S
C132 C137 1.413 . S
C133 C132 1.348 . S
C133 C134 1.442 . S
C133 H160 0.930 . S
C134 C133 1.442 . S
C134 C135 1.381 . S
C134 H161 0.931 . S
C135 C134 1.381 . S
C135 C136 1.321 . S
C136 C135 1.321 . S
C136 C137 1.403 . S
C136 H162 0.934 . S
C137 C132 1.413 . S
C137 C136 1.403 . S
C137 H163 0.930 . S
C138 O152 1.275 . S
C138 O153 1.256 1_565 S
C139 O154 1.250 1_554 S
C139 O155 1.268 . S
C140 Ho129 2.811 1_566 S
C140 C141 1.488 . S
C140 O156 1.215 1_565 S
C140 O157 1.289 . S
C141 C140 1.488 . S
C141 C142 1.348 . S
C141 C146 1.413 . S
C142 C141 1.348 . S
C142 C143 1.442 . S
C142 H164 0.930 . S
C143 C142 1.442 . S
C143 C144 1.381 . S
C143 H165 0.931 . S
C144 C143 1.381 . S
C144 C145 1.321 . S
C145 C144 1.321 . S
C145 C146 1.403 . S
C145 H166 0.934 . S
C146 C141 1.413 . S
C146 C145 1.403 . S
C146 H167 0.930 1_565 S
C147 O158 1.275 . S
C147 O159 1.256 . S
O148 Ho128 2.322 . S
O148 C130 1.259 . S
O149 Ho129 2.346 . S
O149 C130 1.268 . S
O150 Ho128 2.378 . S
O150 C131 1.215 . S
O151 Ho128 2.524 . S
O151 C131 1.289 . S
O152 Ho128 2.381 1_565 S
O152 C138 1.275 . S
O153 Ho128 2.669 . S
O153 Ho129 2.305 . S
O153 C138 1.256 1_545 S
O154 Ho129 2.314 1_556 S
O154 C139 1.250 1_556 S
O155 Ho128 2.346 . S
O155 C139 1.268 . S
O156 Ho129 2.378 1_556 S
O156 C140 1.215 1_545 S
O157 Ho129 2.524 1_566 S
O157 C140 1.289 . S
O158 Ho129 2.381 . S
O158 C147 1.275 . S
O159 Ho128 2.305 . S
O159 Ho129 2.669 . S
O159 C147 1.256 . S
H160 C133 0.930 . S
H161 C134 0.931 . S
H162 C136 0.934 . S
H163 C137 0.930 . S
H164 C142 0.930 . S
H165 C143 0.931 . S
H166 C145 0.934 . S
H167 C146 0.930 1_545 S
Ho168 C171 2.811 . S
Ho168 O188 2.322 . S
Ho168 O190 2.378 . S
Ho168 O191 2.524 . S
Ho168 O192 2.381 . S
Ho168 O193 2.669 . S
Ho168 O195 2.346 . S
Ho168 O199 2.305 . S
Ho169 C180 2.811 . S
Ho169 O189 2.346 . S
Ho169 O193 2.305 . S
Ho169 O194 2.322 . S
Ho169 O196 2.378 . S
Ho169 O197 2.524 . S
Ho169 O198 2.381 . S
Ho169 O199 2.669 . S
C170 O188 1.259 . S
C170 O189 1.268 . S
C171 Ho168 2.811 . S
C171 C172 1.488 . S
C171 O190 1.215 . S
C171 O191 1.289 . S
C172 C171 1.488 . S
C172 C173 1.348 . S
C172 C177 1.413 . S
C173 C172 1.348 . S
C173 C174 1.442 . S
C173 H200 0.930 . S
C174 C173 1.442 . S
C174 C175 1.381 . S
C174 H201 0.931 . S
C175 C174 1.381 . S
C175 C176 1.321 . S
C176 C175 1.321 . S
C176 C177 1.403 . S
C176 H202 0.934 . S
C177 C172 1.413 . S
C177 C176 1.403 . S
C177 H203 0.930 . S
C178 O192 1.275 . S
C178 O193 1.256 . S
C179 O194 1.259 . S
C179 O195 1.268 . S
C180 Ho169 2.811 . S
C180 C181 1.488 . S
C180 O196 1.215 . S
C180 O197 1.289 . S
C181 C180 1.488 . S
C181 C182 1.348 . S
C181 C186 1.413 . S
C182 C181 1.348 . S
C182 C183 1.442 . S
C182 H204 0.930 . S
C183 C182 1.442 . S
C183 C184 1.381 . S
C183 H205 0.931 . S
C184 C183 1.381 . S
C184 C185 1.321 . S
C185 C184 1.321 . S
C185 C186 1.403 . S
C185 H206 0.934 . S
C186 C181 1.413 . S
C186 C185 1.403 . S
C186 H207 0.930 . S
C187 O198 1.275 . S
C187 O199 1.256 . S
O188 Ho168 2.322 . S
O188 C170 1.259 . S
O189 Ho169 2.346 . S
O189 C170 1.268 . S
O190 Ho168 2.378 . S
O190 C171 1.215 . S
O191 Ho168 2.524 . S
O191 C171 1.289 . S
O192 Ho168 2.381 . S
O192 C178 1.275 . S
O193 Ho168 2.669 . S
O193 Ho169 2.305 . S
O193 C178 1.256 . S
O194 Ho169 2.322 . S
O194 C179 1.259 . S
O195 Ho168 2.346 . S
O195 C179 1.268 . S
O196 Ho169 2.378 . S
O196 C180 1.215 . S
O197 Ho169 2.524 . S
O197 C180 1.289 . S
O198 Ho169 2.381 . S
O198 C187 1.275 . S
O199 Ho168 2.305 . S
O199 Ho169 2.669 . S
O199 C187 1.256 . S
H200 C173 0.930 . S
H201 C174 0.931 . S
H202 C176 0.934 . S
H203 C177 0.930 . S
H204 C182 0.930 . S
H205 C183 0.931 . S
H206 C185 0.934 . S
H207 C186 0.930 . S
Ho208 C211 2.811 . S
Ho208 O228 2.322 . S
Ho208 O230 2.378 . S
Ho208 O231 2.524 . S
Ho208 O232 2.373 1_455 S
Ho208 O233 2.669 . S
Ho208 O235 2.346 1_455 S
Ho208 O239 2.305 1_554 S
Ho209 C220 2.811 1_455 S
Ho209 O229 2.346 1_556 S
Ho209 O233 2.305 1_556 S
Ho209 O234 2.322 1_455 S
Ho209 O236 2.378 1_455 S
Ho209 O237 2.524 1_455 S
Ho209 O238 2.381 . S
Ho209 O239 2.669 . S
C210 O228 1.259 . S
C210 O229 1.268 . S
C211 Ho208 2.811 . S
C211 C212 1.488 . S
C211 O230 1.215 . S
C211 O231 1.289 . S
C212 C211 1.488 . S
C212 C213 1.348 . S
C212 C217 1.413 . S
C213 C212 1.348 . S
C213 C214 1.442 . S
C213 H240 0.930 . S
C214 C213 1.442 . S
C214 C215 1.381 . S
C214 H241 0.931 . S
C215 C214 1.381 . S
C215 C216 1.321 . S
C216 C215 1.321 . S
C216 C217 1.403 . S
C216 H242 0.934 . S
C217 C212 1.413 . S
C217 C216 1.403 . S
C217 H243 0.930 . S
C218 O232 1.281 . S
C218 O233 1.256 1_655 S
C219 O234 1.259 . S
C219 O235 1.268 1_556 S
C220 Ho209 2.811 1_655 S
C220 C221 1.488 . S
C220 O236 1.215 . S
C220 O237 1.289 . S
C221 C220 1.488 . S
C221 C222 1.348 . S
C221 C226 1.413 . S
C222 C221 1.348 . S
C222 C223 1.442 . S
C222 H244 0.930 . S
C223 C222 1.442 . S
C223 C224 1.381 . S
C223 H245 0.931 . S
C224 C223 1.381 . S
C224 C225 1.321 . S
C225 C224 1.321 . S
C225 C226 1.403 . S
C225 H246 0.934 . S
C226 C221 1.413 . S
C226 C225 1.403 . S
C226 H247 0.930 . S
C227 O238 1.275 . S
C227 O239 1.256 . S
O228 Ho208 2.322 . S
O228 C210 1.259 . S
O229 Ho209 2.346 1_554 S
O229 C210 1.268 . S
O230 Ho208 2.378 . S
O230 C211 1.215 . S
O231 Ho208 2.524 . S
O231 C211 1.289 . S
O232 Ho208 2.373 1_655 S
O232 C218 1.281 . S
O233 Ho208 2.669 . S
O233 Ho209 2.305 1_554 S
O233 C218 1.256 1_455 S
O234 Ho209 2.322 1_655 S
O234 C219 1.259 . S
O235 Ho208 2.346 1_655 S
O235 C219 1.268 1_554 S
O236 Ho209 2.378 1_655 S
O236 C220 1.215 . S
O237 Ho209 2.524 1_655 S
O237 C220 1.289 . S
O238 Ho209 2.381 . S
O238 C227 1.275 . S
O239 Ho208 2.305 1_556 S
O239 Ho209 2.669 . S
O239 C227 1.256 . S
H240 C213 0.930 . S
H241 C214 0.931 . S
H242 C216 0.934 . S
H243 C217 0.930 . S
H244 C222 0.930 . S
H245 C223 0.931 . S
H246 C225 0.934 . S
H247 C226 0.930 . S
C248 C249 1.170 . S
C248 C250 1.380 . S
C249 C248 1.170 . S
C250 C248 1.380 . S
C250 C251 1.170 . S
C251 C250 1.170 . S
C252 C253 1.170 . S
C252 C254 1.380 . S
C253 C252 1.170 . S
C254 C252 1.380 . S
C254 C255 1.170 . S
C255 C254 1.170 . S
C256 C257 1.170 . S
C256 C258 1.380 . S
C257 C256 1.170 . S
C258 C256 1.380 . S
C258 C259 1.170 . S
C259 C258 1.170 . S
C260 C261 1.170 . S
C260 C262 1.380 . S
C261 C260 1.170 . S
C262 C260 1.380 . S
C262 C263 1.170 . S
C263 C262 1.170 . S
C264 C265 1.170 . S
C264 C266 1.380 . S
C265 C264 1.170 . S
C266 C264 1.380 . S
C266 C267 1.170 . S
C267 C266 1.170 . S
C268 C269 1.170 . S
C268 C270 1.380 . S
C269 C268 1.170 . S
C270 C268 1.380 . S
C270 C271 1.170 . S
C271 C270 1.170 . S
C272 C273 1.170 . S
C272 C274 1.380 . S
C273 C272 1.170 . S
C274 C272 1.380 . S
C274 C275 1.170 . S
C275 C274 1.170 . S
C276 C277 1.170 . S
C276 C278 1.380 . S
C277 C276 1.170 . S
C278 C276 1.380 . S
C278 C279 1.170 . S
C279 C278 1.170 . S
C280 C281 1.170 . S
C280 C282 1.380 . S
C281 C280 1.170 . S
C282 C280 1.380 . S
C282 C283 1.170 . S
C283 C282 1.170 . S
C284 C285 1.170 . S
C284 C286 1.380 . S
C285 C284 1.170 . S
C286 C284 1.380 . S
C286 C287 1.174 . S
C287 C286 1.174 . S
C288 C289 1.170 . S
C288 C290 1.380 . S
C289 C288 1.170 . S
C290 C288 1.380 . S
C290 C291 1.170 . S
C291 C290 1.170 . S
C292 C293 1.170 . S
C292 C294 1.380 . S
C293 C292 1.170 . S
C294 C292 1.380 . S
C294 C295 1.170 . S
C295 C294 1.170 . S
C296 C297 1.170 . S
C296 C298 1.380 . S
C297 C296 1.170 . S
C298 C296 1.380 . S
C298 C299 1.170 . S
C299 C298 1.170 . S
C300 C301 1.170 . S
C300 C302 1.380 . S
C301 C300 1.170 . S
C302 C300 1.380 . S
C302 C303 1.170 . S
C303 C302 1.170 . S
C304 C305 1.170 . S
C304 C306 1.380 . S
C305 C304 1.170 . S
C306 C304 1.380 . S
C306 C307 1.170 . S
C307 C306 1.170 . S
C308 C309 1.170 . S
C308 C310 1.380 . S
C309 C308 1.170 . S
C310 C308 1.380 . S
C310 C311 1.170 . S
C311 C310 1.170 . S
C312 C313 1.170 . S
C312 C314 1.380 . S
C313 C312 1.170 . S
C314 C312 1.380 . S
C314 C315 1.170 . S
C315 C314 1.170 . S
C316 C317 1.170 . S
C316 C318 1.380 . S
C317 C316 1.170 . S
C318 C316 1.380 . S
C318 C319 1.170 . S
C319 C318 1.170 . S
C320 C321 1.170 . S
C320 C322 1.380 . S
C321 C320 1.170 . S
C322 C320 1.380 . S
C322 C323 1.170 . S
C323 C322 1.170 . S
C324 C325 1.170 . S
C324 C326 1.380 . S
C325 C324 1.170 . S
C326 C324 1.380 . S
C326 C327 1.170 . S
C327 C326 1.170 . S
C328 C329 1.170 . S
C328 C330 1.380 . S
C329 C328 1.170 . S
C330 C328 1.380 . S
C330 C331 1.170 . S
C331 C330 1.170 . S
C332 C333 1.170 . S
C332 C334 1.380 . S
C333 C332 1.170 . S
C334 C332 1.380 . S
C334 C335 1.170 . S
C335 C334 1.170 . S
C336 C337 1.170 . S
C336 C338 1.380 . S
C337 C336 1.170 . S
C338 C336 1.380 . S
C338 C339 1.170 . S
C339 C338 1.170 . S
C340 C341 1.170 . S
C340 C342 1.380 . S
C341 C340 1.170 . S
C342 C340 1.380 . S
C342 C343 1.170 . S
C343 C342 1.170 . S
C249 C5 1.026 . S
C251 C95 1.257 . S
C253 C18 0.999 . S
C255 C144 1.167 . S
C259 C170 2.354 . S
C257 C30 2.406 . S
C261 C41 2.177 . S
C263 C218 2.145 . S
C267 C130 2.308 . S
C265 C7 2.044 . S
C271 C98 0.892 . S
C269 C16 0.759 . S
C275 C219 2.002 . S
C273 C29 1.973 . S
C279 C187 1.369 . S
C277 C38 1.202 . S
C281 C8 1.491 . S
C283 C215 1.596 . S
C287 C147 2.543 1_556 S
C285 C27 2.344 . S
C289 C40 2.449 . S
C291 C99 2.461 . S
C293 C19 0.975 . S
C295 C184 0.948 . S
C299 C104 1.237 . S
C297 C51 0.947 . S
C301 C62 1.461 . S
C303 C135 1.383 . S
C305 C74 2.493 . S
C307 C179 2.454 . S
C309 C84 2.236 . S
C311 C227 2.338 . S
C313 C49 1.791 . S
C315 C139 2.508 1_566 S
C319 C107 0.955 . S
C317 C63 0.945 . S
C323 C210 1.858 . S
C321 C71 1.752 . S
C327 C178 1.506 . S
C325 C85 1.489 . S
C329 C52 1.512 . S
C331 C224 1.663 . S
C335 C138 2.636 . S
C333 C73 2.696 . S
C339 C90 2.073 . S
C337 C82 1.732 . S
C341 C60 0.908 . S
C343 C175 0.958 . S
