# Generated by pormake.
# Topology scu, (8,4)-cn, num edge types: 1
# Building blocks:
#     Node 0, Type 0, BuildingBlock: TAGTUT_clean_sbu_3, # of connection points: 8
#     Node 1, Type 1, BuildingBlock: ESEHIV_clean_sbu_0, # of connection points: 4
#     Node 2, Type 1, BuildingBlock: ESEHIV_clean_sbu_0, # of connection points: 4
#     Edge 3, Type (0, 1), BuildingBlock: ZUJKAS_clean_linker_0, # of connection points: 2
#     Edge 4, Type (0, 1), BuildingBlock: ZUJKAS_clean_linker_0, # of connection points: 2
#     Edge 5, Type (0, 1), BuildingBlock: ZUJKAS_clean_linker_0, # of connection points: 2
#     Edge 6, Type (0, 1), BuildingBlock: ZUJKAS_clean_linker_0, # of connection points: 2
#     Edge 7, Type (0, 1), BuildingBlock: ZUJKAS_clean_linker_0, # of connection points: 2
#     Edge 8, Type (0, 1), BuildingBlock: ZUJKAS_clean_linker_0, # of connection points: 2
#     Edge 9, Type (0, 1), BuildingBlock: ZUJKAS_clean_linker_0, # of connection points: 2
#     Edge 10, Type (0, 1), BuildingBlock: ZUJKAS_clean_linker_0, # of connection points: 2
# Relax obj value: 0.025
# Max RMSD: 0.104
# Mean RMSD: 0.103
data_MOF--net-scu--node1-TAGTUT_clean_sbu_3--node2-ESEHIV_clean_sbu_0--edge1-ZUJKAS_clean_linker_0
_symmetry_space_group_name_H-M    P1
_symmetry_Int_Tables_number       1
_symmetry_cell_setting            triclinic
loop_
_symmetry_equiv_pos_as_xyz
'x, y, z'
_cell_length_a     35.695018
_cell_length_b     30.995758
_cell_length_c     25.741736
_cell_angle_alpha  93.17566
_cell_angle_beta   94.380437
_cell_angle_gamma 89.981004
loop_
_atom_site_label
_atom_site_type_symbol
_atom_site_fract_x
_atom_site_fract_y
_atom_site_fract_z
_atom_type_partial_charge
C0 C 1.00238 0.93582 0.07055 0.0
C1 C 0.8652 0.9983 0.06001 0.0
C2 C 0.89028 0.03677 0.90795 0.0
Mg3 Mg 0.07606 0.96363 0.01677 0.0
Mg4 Mg 0.09193 0.06318 0.98677 0.0
O5 O 0.05834 0.01664 0.98048 0.0
Mg6 Mg 1.00538 0.02114 0.00226 0.0
O7 O 0.95251 0.01866 0.02393 0.0
Mg8 Mg 0.93429 0.96321 0.98563 0.0
Mg9 Mg 0.91947 0.06532 0.01881 0.0
C10 C 0.01832 0.10507 0.93103 0.0
O11 O 0.01568 0.07962 0.06283 0.0
O12 O 0.12873 0.96412 0.96787 0.0
O13 O 0.95898 0.11275 0.05619 0.0
O14 O 0.10954 0.00352 0.084 0.0
O15 O 0.13627 0.03259 0.94593 0.0
O16 O 0.11235 0.07323 0.06758 0.0
O17 O 0.98904 0.96506 0.9429 0.0
O18 O 0.04129 0.9256 0.95057 0.0
C19 C 1.00797 0.93157 0.92992 0.0
C20 C 0.14614 0.9928 0.94446 0.0
O21 O 0.99557 0.07561 0.94346 0.0
O22 O 0.88213 0.96792 0.03504 0.0
O23 O 0.05345 0.10659 0.94655 0.0
O24 O 0.90047 0.99881 0.92015 0.0
O25 O 0.87538 0.03801 0.06011 0.0
O26 O 0.89801 0.06967 0.93888 0.0
O27 O 0.02119 0.96878 0.05937 0.0
O28 O 0.96904 0.92849 0.04974 0.0
C29 C 0.11965 0.04241 0.09764 0.0
C30 C 0.99389 0.11183 0.07286 0.0
Cu31 Cu 0.04286 0.53631 0.51522 0.0
N32 N 0.06013 0.50998 0.57591 0.0
N33 N 0.05806 0.46641 0.64205 0.0
C34 C 0.04016 0.48011 0.59792 0.0
C35 C 0.0908 0.48875 0.64785 0.0
C36 C 0.09195 0.51572 0.60697 0.0
O37 O 0.02622 0.49036 0.464 0.0
C38 C 0.01912 0.6082 0.56617 0.0
O39 O 0.05551 0.60801 0.57867 0.0
H40 H 0.01318 0.46827 0.58104 0.0
H41 H 0.11422 0.538 0.6005 0.0
N42 N 0.07956 0.568 0.48543 0.0
N43 N 0.10162 0.61871 0.4373 0.0
C44 C 0.07223 0.60512 0.46197 0.0
C45 C 0.115 0.55759 0.47522 0.0
C46 C 0.12864 0.58882 0.44509 0.0
C47 C 0.0498 0.45974 0.45906 0.0
O48 O 0.08153 0.46165 0.48851 0.0
H49 H 0.04502 0.62063 0.4605 0.0
H50 H 0.12936 0.52858 0.48695 0.0
O51 O 1.00479 0.57737 0.53631 0.0
H52 H 0.11225 0.48626 0.67958 0.0
H53 H 0.15583 0.58901 0.42914 0.0
Cu54 Cu 0.50228 0.9647 0.49734 0.0
N55 N 0.47748 0.92985 0.54095 0.0
N56 N 0.43771 0.91221 0.59958 0.0
C57 C 0.44951 0.94344 0.56996 0.0
C58 C 0.45916 0.87749 0.58844 0.0
C59 C 0.48371 0.88851 0.55238 0.0
O60 O 0.46386 0.99995 0.46211 0.0
C61 C 0.56748 0.97174 0.55968 0.0
O62 O 0.5641 0.92983 0.5497 0.0
H63 H 0.43813 0.97577 0.56914 0.0
H64 H 0.50508 0.86806 0.5365 0.0
N65 N 0.52614 0.93237 0.44596 0.0
N66 N 0.56621 0.91753 0.38471 0.0
C67 C 0.55417 0.94741 0.41981 0.0
C68 C 0.52007 0.89146 0.42691 0.0
C69 C 0.54479 0.88218 0.38915 0.0
C70 C 0.43942 0.97792 0.43317 0.0
O71 O 0.44259 0.93565 0.43028 0.0
H72 H 0.56576 0.97961 0.42711 0.0
H73 H 0.49894 0.87003 0.43913 0.0
O74 O 0.54195 0.99618 0.54019 0.0
H75 H 0.45799 0.84667 0.60605 0.0
H76 H 0.54633 0.85201 0.36619 0.0
H77 H 0.9662 0.19324 0.07431 0.0
H78 H 0.98187 0.25258 0.13796 0.0
H79 H 0.06897 0.17565 0.21229 0.0
H80 H 0.05305 0.11523 0.14832 0.0
H81 H 0.01717 0.21101 0.28023 0.0
H82 H 0.06946 0.33749 0.16003 0.0
H83 H 0.02564 0.3143 0.13324 0.0
H84 H 0.06701 0.28113 0.13806 0.0
C85 C 0.98912 0.18901 0.10366 0.0
C86 C 1.00816 0.14936 0.10661 0.0
C87 C 0.99825 0.2232 0.13978 0.0
C88 C 0.02676 0.21871 0.17958 0.0
C89 C 0.04696 0.17979 0.18161 0.0
H90 H 0.08964 0.38533 0.45338 0.0
H91 H 0.08327 0.32655 0.38656 0.0
C92 C 0.03797 0.14541 0.145 0.0
C93 C 0.03241 0.25327 0.22159 0.0
H94 H 0.04891 0.36157 0.24331 0.0
C95 C 0.02464 0.2438 0.27237 0.0
C96 C 0.04169 0.29613 0.21104 0.0
C97 C 0.05178 0.30785 0.15772 0.0
C98 C 0.02486 0.27631 0.31259 0.0
C99 C 0.03353 0.31927 0.30182 0.0
C100 C 0.04182 0.32867 0.25125 0.0
C101 C 0.03592 0.35452 0.34319 0.0
C102 C 0.01484 0.26468 0.36599 0.0
C103 C 1.01148 0.39004 0.34075 0.0
C104 C 0.01499 0.42399 0.37918 0.0
C105 C 0.04336 0.42306 0.42009 0.0
C106 C 0.06748 0.38717 0.4224 0.0
C107 C 0.06382 0.35334 0.38436 0.0
H108 H 0.99996 0.23311 0.36464 0.0
H109 H 0.04097 0.2623 0.39193 0.0
H110 H 0.99685 0.28992 0.38354 0.0
H111 H 0.98986 0.39155 0.30901 0.0
H112 H 0.99615 0.45129 0.37621 0.0
H113 H 0.83912 0.91765 0.07873 0.0
H114 H 0.78686 0.89997 0.13028 0.0
H115 H 0.7668 0.03566 0.16214 0.0
H116 H 0.81868 0.05377 0.1107 0.0
H117 H 0.77865 0.92516 0.23788 0.0
H118 H 0.66263 0.98691 0.10663 0.0
H119 H 0.70884 0.97555 0.0853 0.0
H120 H 0.70045 0.02463 0.12307 0.0
C121 C 0.82347 0.94379 0.09639 0.0
C122 C 0.83311 0.98718 0.09033 0.0
C123 C 0.79366 0.93358 0.12591 0.0
C124 C 0.77268 0.96651 0.14941 0.0
C125 C 0.78222 0.00976 0.14356 0.0
H126 H 0.59147 0.99259 0.35 0.0
H127 H 0.64206 0.00153 0.29299 0.0
C128 C 0.81207 0.02002 0.11431 0.0
C129 C 0.74151 0.95587 0.18147 0.0
H130 H 0.6474 0.96983 0.19149 0.0
C131 C 0.74986 0.93449 0.22758 0.0
C132 C 0.70405 0.96819 0.16788 0.0
C133 C 0.69326 0.98976 0.1178 0.0
C134 C 0.72192 0.92645 0.26147 0.0
C135 C 0.68451 0.93937 0.24826 0.0
C136 C 0.67609 0.96002 0.20161 0.0
C137 C 0.6539 0.93325 0.28314 0.0
C138 C 0.73297 0.90569 0.31202 0.0
C139 C 0.64341 0.89181 0.29618 0.0
C140 C 0.61462 0.88656 0.32934 0.0
C141 C 0.59558 0.92268 0.34986 0.0
C142 C 0.60586 0.96408 0.3359 0.0
C143 C 0.63464 0.96926 0.30288 0.0
H144 H 0.76378 0.90744 0.32211 0.0
H145 H 0.71845 0.92136 0.3447 0.0
H146 H 0.72467 0.87109 0.30818 0.0
H147 H 0.6574 0.86348 0.2806 0.0
H148 H 0.60766 0.85425 0.33935 0.0
H149 H 0.05995 0.9489 0.14684 0.0
H150 H 0.08403 0.89744 0.21016 0.0
H151 H 1.00884 0.79952 0.13613 0.0
H152 H 0.98365 0.85112 0.07464 0.0
H153 H 1.00336 0.80281 0.23564 0.0
H154 H 0.15491 0.79798 0.20259 0.0
H155 H 0.1386 0.85147 0.21861 0.0
H156 H 0.1207 0.82321 0.15888 0.0
C157 C 0.0489 0.91623 0.14384 0.0
C158 C 0.0197 0.90415 0.10604 0.0
C159 C 0.06289 0.88671 0.17981 0.0
C160 C 0.04858 0.84431 0.17772 0.0
C161 C 0.02031 0.832 0.13877 0.0
H162 H 0.12952 0.62109 0.34263 0.0
H163 H 0.11941 0.67846 0.28099 0.0
C164 C 1.00588 0.86159 0.1036 0.0
C165 C 0.06057 0.81348 0.2181 0.0
H166 H 0.1365 0.76338 0.27717 0.0
C167 C 0.03251 0.79415 0.24448 0.0
C168 C 0.09856 0.80176 0.22948 0.0
C169 C 0.1299 0.81934 0.20055 0.0
C170 C 0.04116 0.76338 0.28143 0.0
C171 C 0.07922 0.75277 0.29424 0.0
C172 C 0.1074 0.77197 0.2679 0.0
C173 C 0.08986 0.72074 0.33368 0.0
C174 C 1.00915 0.74157 0.30501 0.0
C175 C 0.07809 0.72618 0.38445 0.0
C176 C 0.08329 0.69323 0.41914 0.0
C177 C 0.10131 0.65471 0.40432 0.0
C178 C 0.11568 0.65057 0.35499 0.0
C179 C 0.10983 0.68327 0.31981 0.0
H180 H 0.98242 0.74371 0.28017 0.0
H181 H 0.01525 0.70695 0.31066 0.0
H182 H 1.00478 0.75785 0.34355 0.0
H183 H 0.06368 0.75533 0.39666 0.0
H184 H 0.07246 0.69735 0.45727 0.0
H185 H 0.15808 0.11689 0.13148 0.0
H186 H 0.21018 0.12402 0.19909 0.0
H187 H 0.19239 0.99271 0.23884 0.0
H188 H 0.14016 0.98533 0.17205 0.0
H189 H 0.21321 0.051 0.32676 0.0
H190 H 0.3086 0.06112 0.16624 0.0
H191 H 0.27188 0.10069 0.16904 0.0
H192 H 0.26006 0.04485 0.15415 0.0
C193 C 0.16462 0.08982 0.15541 0.0
C194 C 0.14526 0.05026 0.14559 0.0
C195 C 0.19459 0.09392 0.19387 0.0
C196 C 0.20569 0.05859 0.22321 0.0
C197 C 0.18448 0.02031 0.21643 0.0
H198 H 0.39631 0.94071 0.35187 0.0
H199 H 0.34105 0.96982 0.30498 0.0
C200 C 0.1546 0.01615 0.17805 0.0
C201 C 0.2414 0.05943 0.25702 0.0
H202 H 0.33666 0.05507 0.25068 0.0
C203 C 0.24025 0.05286 0.31044 0.0
C204 C 0.27667 0.06144 0.23548 0.0
C205 C 0.27968 0.06712 0.17806 0.0
C206 C 0.27338 0.04662 0.34239 0.0
C207 C 0.30843 0.04694 0.32031 0.0
C208 C 0.3097 0.05535 0.26751 0.0
C209 C 0.34311 0.03141 0.34876 0.0
C210 C 0.27074 0.03707 0.39879 0.0
C211 C 0.36304 0.05677 0.38863 0.0
C212 C 0.39519 0.04022 0.41558 0.0
C213 C 0.40744 0.99798 0.40325 0.0
C214 C 0.38758 0.97325 0.3627 0.0
C215 C 0.35596 0.98983 0.33569 0.0
H216 H 0.24126 0.03723 0.40989 0.0
H217 H 0.28322 0.00496 0.40625 0.0
H218 H 0.28709 0.06153 0.42426 0.0
H219 H 0.3536 0.08909 0.39906 0.0
H220 H 0.40985 0.05998 0.44672 0.0
H221 H 0.03985 0.85615 0.8968 0.0
H222 H 0.01508 0.80334 0.82978 0.0
H223 H 0.91339 0.87754 0.80796 0.0
H224 H 0.93849 0.93162 0.87492 0.0
H225 H 0.95001 0.75268 0.82179 0.0
H226 H 0.95043 0.86591 0.66085 0.0
H227 H 0.97412 0.87916 0.72414 0.0
H228 H 0.92377 0.88018 0.71577 0.0
C229 C 1.01213 0.86142 0.87808 0.0
C230 C 0.99131 0.89844 0.89111 0.0
C231 C 0.99791 0.83097 0.83982 0.0
C232 C 0.96251 0.8366 0.81353 0.0
C233 C 0.941 0.87283 0.82727 0.0
H234 H 0.94551 0.6073 0.59247 0.0
H235 H 0.91497 0.66411 0.64519 0.0
C236 C 0.95534 0.9036 0.86571 0.0
C237 C 0.95 0.80497 0.7703 0.0
H238 H 0.94704 0.79208 0.63754 0.0
C239 C 0.94818 0.76121 0.78137 0.0
C240 C 0.94731 0.81637 0.71769 0.0
C241 C 0.9491 0.86287 0.70347 0.0
C242 C 0.94794 0.72836 0.74154 0.0
C243 C 0.94884 0.73973 0.68913 0.0
C244 C 0.94637 0.78351 0.67775 0.0
C245 C 0.96206 0.70853 0.64869 0.0
C246 C 0.95067 0.68195 0.75635 0.0
C247 C 0.99754 0.71567 0.63083 0.0
C248 C 0.01469 0.68374 0.60099 0.0
C249 C 0.99675 0.64389 0.58802 0.0
C250 C 0.95992 0.63777 0.6021 0.0
C251 C 0.94264 0.67001 0.63248 0.0
H252 H 0.95259 0.67903 0.7993 0.0
H253 H 0.92545 0.66384 0.73933 0.0
H254 H 0.97576 0.6664 0.74056 0.0
H255 H 0.01308 0.74507 0.64266 0.0
H256 H 0.0429 0.68957 0.59006 0.0
H257 H 0.16964 0.91063 0.91705 0.0
H258 H 0.22125 0.89015 0.86305 0.0
H259 H 0.24631 0.02465 0.84758 0.0
H260 H 0.1952 0.04546 0.90128 0.0
H261 H 0.22947 0.91463 0.75788 0.0
H262 H 0.34896 0.97179 0.89466 0.0
H263 H 0.30269 0.96211 0.91563 0.0
H264 H 0.31251 0.01114 0.88494 0.0
C265 C 0.18635 0.93586 0.90256 0.0
C266 C 0.17824 0.97972 0.91366 0.0
C267 C 0.21576 0.92407 0.87163 0.0
C268 C 0.23787 0.95589 0.8519 0.0
C269 C 0.23 0.99958 0.86315 0.0
H270 H 0.41325 0.98565 0.64861 0.0
H271 H 0.36444 0.99202 0.70975 0.0
C272 C 0.20057 0.01139 0.89368 0.0
C273 C 0.26826 0.9439 0.81766 0.0
H274 H 0.36215 0.95698 0.80596 0.0
C275 C 0.2586 0.92328 0.76855 0.0
C276 C 0.30617 0.95535 0.83175 0.0
C277 C 0.31837 0.97597 0.88481 0.0
C278 C 0.28561 0.91559 0.73215 0.0
C279 C 0.32339 0.92811 0.74575 0.0
C280 C 0.33318 0.94754 0.79551 0.0
C281 C 0.35286 0.92344 0.70811 0.0
C282 C 0.27315 0.89591 0.67869 0.0
C283 C 0.36287 0.88268 0.68706 0.0
C284 C 0.39064 0.87892 0.65147 0.0
C285 C 0.40912 0.91586 0.63645 0.0
C286 C 0.39926 0.95655 0.65829 0.0
C287 C 0.37152 0.96025 0.69371 0.0
H288 H 0.24217 0.89735 0.67054 0.0
H289 H 0.28665 0.91263 0.6479 0.0
H290 H 0.28161 0.86145 0.67621 0.0
H291 H 0.34934 0.85374 0.69833 0.0
H292 H 0.3973 0.84711 0.63538 0.0
H293 H 0.9611 0.16328 0.94123 0.0
H294 H 0.9504 0.22802 0.89042 0.0
H295 H 0.03722 0.18621 0.79145 0.0
H296 H 0.0481 0.12256 0.84203 0.0
H297 H 1.00999 0.28904 0.88298 0.0
H298 H 0.95326 0.22725 0.68702 0.0
H299 H 0.94992 0.19722 0.74475 0.0
H300 H 0.99262 0.19645 0.71178 0.0
C301 C 0.97684 0.16742 0.90748 0.0
C302 C 1.00519 0.13806 0.89506 0.0
C303 C 0.97093 0.20437 0.87877 0.0
C304 C 0.99276 0.21163 0.83681 0.0
C305 C 0.01955 0.18089 0.82292 0.0
H306 H 0.10027 0.41835 0.70968 0.0
H307 H 0.07831 0.36072 0.76091 0.0
C308 C 0.02582 0.14461 0.8519 0.0
C309 C 0.99171 0.25338 0.81132 0.0
H310 H 0.9877 0.29475 0.69088 0.0
C311 C 1.00423 0.29062 0.84113 0.0
C312 C 0.98404 0.25547 0.75682 0.0
C313 C 0.96885 0.21703 0.72328 0.0
C314 C 1.01178 0.32906 0.81734 0.0
C315 C 1.007 0.33004 0.76238 0.0
C316 C 0.9919 0.29376 0.73298 0.0
C317 C 0.01971 0.36726 0.73433 0.0
C318 C 0.02577 0.36795 0.85107 0.0
C319 C 0.99411 0.38991 0.70214 0.0
C320 C 1.00655 0.42307 0.67295 0.0
C321 C 0.04501 0.43392 0.67473 0.0
C322 C 0.07049 0.41142 0.70768 0.0
C323 C 0.05796 0.3784 0.73707 0.0
H324 H 0.01774 0.36623 0.89177 0.0
H325 H 0.0569 0.36921 0.85221 0.0
H326 H 0.01455 0.39832 0.83509 0.0
H327 H 0.96448 0.38176 0.69939 0.0
H328 H 0.98591 0.44004 0.6489 0.0
H329 H 0.86733 0.97417 0.83307 0.0
H330 H 0.81405 0.97759 0.76802 0.0
H331 H 0.79893 0.11227 0.81173 0.0
H332 H 0.8523 0.1094 0.87726 0.0
H333 H 0.73732 0.01876 0.8151 0.0
H334 H 0.78924 0.08383 0.6361 0.0
H335 H 0.81924 0.05028 0.67665 0.0
H336 H 0.8075 0.10355 0.70048 0.0
C337 C 0.85339 0.00488 0.82814 0.0
C338 C 0.86394 0.0414 0.86097 0.0
C339 C 0.82291 0.00673 0.79085 0.0
C340 C 0.80259 0.04513 0.78527 0.0
C341 C 0.81445 0.0824 0.81536 0.0
H342 H 0.58831 0.05672 0.58621 0.0
H343 H 0.64413 0.08207 0.64203 0.0
C344 C 0.845 0.08064 0.85277 0.0
C345 C 0.76633 0.04426 0.75319 0.0
H346 H 0.72663 0.05771 0.63015 0.0
C347 C 0.73479 0.02789 0.7749 0.0
C348 C 0.76316 0.0566 0.70106 0.0
C349 C 0.79645 0.07466 0.67676 0.0
C350 C 0.70046 0.0218 0.7451 0.0
C351 C 0.69774 0.03176 0.69198 0.0
C352 C 0.72878 0.05018 0.6709 0.0
C353 C 0.6646 0.01784 0.65677 0.0
C354 C 0.66757 0.00344 0.77021 0.0
C355 C 0.65803 0.97359 0.6462 0.0
C356 C 0.62656 0.95917 0.61471 0.0
C357 C 0.60074 0.98866 0.59277 0.0
C358 C 0.60754 0.0332 0.60273 0.0
C359 C 0.63942 0.04771 0.6344 0.0
H360 H 0.67077 0.00858 0.81339 0.0
H361 H 0.64078 0.01825 0.75544 0.0
H362 H 0.66578 0.96813 0.76054 0.0
H363 H 0.67731 0.95004 0.66263 0.0
H364 H 0.6225 0.92465 0.60784 0.0
loop_
_geom_bond_atom_site_label_1
_geom_bond_atom_site_label_2
_geom_bond_distance
_geom_bond_site_symmetry_2
_ccdc_geom_bond_type
C0 O27 1.312 1_655 S
C0 O28 1.208 . S
C1 O22 1.331 1_545 S
C1 O25 1.244 . S
C2 O24 1.264 1_545 S
C2 O26 1.273 . S
Mg3 O5 1.936 1_564 S
Mg3 O12 2.081 1_554 S
Mg3 O14 2.023 . S
Mg3 O18 2.031 1_554 S
Mg3 O27 2.291 . S
Mg4 O5 1.963 . S
Mg4 O15 1.942 . S
Mg4 O16 1.955 1_556 S
Mg4 O23 1.986 . S
O5 Mg3 1.936 1_546 S
O5 Mg4 1.963 . S
O5 Mg6 1.915 1_556 S
Mg6 O5 1.915 1_554 S
Mg6 O7 1.915 1_455 S
Mg6 O11 2.013 . S
Mg6 O17 2.114 1_444 S
Mg6 O21 2.013 1_454 S
Mg6 O27 2.114 1_545 S
O7 Mg6 1.915 1_655 S
O7 Mg8 1.937 1_545 S
O7 Mg9 1.963 . S
Mg8 O7 1.937 1_565 S
Mg8 O17 2.288 1_554 S
Mg8 O22 2.084 . S
Mg8 O24 2.020 1_554 S
Mg8 O28 2.034 . S
Mg9 O7 1.963 . S
Mg9 O13 1.986 . S
Mg9 O25 1.942 . S
Mg9 O26 1.955 1_554 S
C10 O21 1.191 1_455 S
C10 O23 1.307 . S
O11 Mg6 2.013 . S
O11 C30 1.191 1_455 S
O12 Mg3 2.081 1_556 S
O12 C20 1.331 . S
O13 Mg9 1.986 . S
O13 C30 1.307 . S
O14 Mg3 2.023 . S
O14 C29 1.264 1_565 S
O15 Mg4 1.942 . S
O15 C20 1.244 1_545 S
O16 Mg4 1.955 1_554 S
O16 C29 1.273 . S
O17 Mg6 2.114 1_666 S
O17 Mg8 2.288 1_556 S
O17 C19 1.312 1_655 S
O18 Mg3 2.031 1_556 S
O18 C19 1.208 . S
C19 O17 1.312 1_455 S
C19 O18 1.208 . S
C20 O12 1.331 . S
C20 O15 1.244 1_565 S
O21 Mg6 2.013 1_656 S
O21 C10 1.191 1_655 S
O22 C1 1.331 1_565 S
O22 Mg8 2.084 . S
O23 Mg4 1.986 . S
O23 C10 1.307 . S
O24 C2 1.264 1_565 S
O24 Mg8 2.020 1_556 S
O25 C1 1.244 . S
O25 Mg9 1.942 . S
O26 C2 1.273 . S
O26 Mg9 1.955 1_556 S
O27 C0 1.312 1_455 S
O27 Mg3 2.291 . S
O27 Mg6 2.114 1_565 S
O28 C0 1.208 . S
O28 Mg8 2.034 . S
C29 O14 1.264 1_545 S
C29 O16 1.273 . S
C30 O11 1.191 1_655 S
C30 O13 1.307 . S
Cu31 N32 1.999 . S
Cu31 O37 1.974 . S
Cu31 N42 1.985 . S
Cu31 O51 1.959 . S
N32 Cu31 1.999 . S
N32 C34 1.263 . S
N32 C36 1.389 . S
N33 C34 1.358 . S
N33 C35 1.400 . S
C34 N32 1.263 . S
C34 N33 1.358 . S
C34 H40 0.930 1_655 S
C35 N33 1.400 . S
C35 C36 1.351 . S
C35 H52 0.930 . S
C36 N32 1.389 . S
C36 C35 1.351 . S
C36 H41 0.930 . S
O37 Cu31 1.974 . S
O37 C47 1.282 1_655 S
C38 O39 1.261 . S
C38 O51 1.251 1_455 S
O39 C38 1.261 . S
H40 C34 0.930 1_455 S
H41 C36 0.930 . S
N42 Cu31 1.985 . S
N42 C44 1.335 . S
N42 C45 1.390 1_655 S
N43 C44 1.345 . S
N43 C46 1.336 1_655 S
C44 N42 1.335 . S
C44 N43 1.345 . S
C44 H49 0.930 . S
C45 N42 1.390 1_455 S
C45 C46 1.346 . S
C45 H50 0.930 . S
C46 N43 1.336 1_455 S
C46 C45 1.346 . S
C46 H53 0.929 . S
C47 O37 1.282 1_455 S
C47 O48 1.216 . S
O48 C47 1.216 . S
H49 C44 0.930 . S
H50 C45 0.930 . S
O51 Cu31 1.959 . S
O51 C38 1.251 1_655 S
H52 C35 0.930 . S
H53 C46 0.929 . S
Cu54 N55 1.999 . S
Cu54 O60 1.974 . S
Cu54 N65 1.985 . S
Cu54 O74 1.959 . S
N55 Cu54 1.999 . S
N55 C57 1.263 . S
N55 C59 1.389 . S
N56 C57 1.358 . S
N56 C58 1.400 . S
C57 N55 1.263 . S
C57 N56 1.358 . S
C57 H63 0.930 1_545 S
C58 N56 1.400 . S
C58 C59 1.351 . S
C58 H75 0.930 . S
C59 N55 1.389 . S
C59 C58 1.351 . S
C59 H64 0.930 . S
O60 Cu54 1.974 . S
O60 C70 1.282 1_545 S
C61 O62 1.261 . S
C61 O74 1.251 1_565 S
O62 C61 1.261 . S
H63 C57 0.930 1_565 S
H64 C59 0.930 . S
N65 Cu54 1.985 . S
N65 C67 1.335 . S
N65 C68 1.390 1_545 S
N66 C67 1.345 . S
N66 C69 1.336 1_545 S
C67 N65 1.335 . S
C67 N66 1.345 . S
C67 H72 0.930 . S
C68 N65 1.390 1_565 S
C68 C69 1.346 . S
C68 H73 0.930 . S
C69 N66 1.336 1_565 S
C69 C68 1.346 . S
C69 H76 0.929 . S
C70 O60 1.282 1_565 S
C70 O71 1.216 . S
O71 C70 1.216 . S
H72 C67 0.930 . S
H73 C68 0.930 . S
O74 Cu54 1.959 . S
O74 C61 1.251 1_545 S
H75 C58 0.930 . S
H76 C69 0.929 . S
H77 C85 0.929 . S
H78 C87 0.930 . S
H79 C89 0.930 . S
H80 C92 0.929 . S
H81 C95 0.930 . S
H82 C97 0.960 . S
H83 C97 0.960 . S
H84 C97 0.960 . S
C85 H77 0.929 . S
C85 C86 1.377 1_655 S
C85 C87 1.384 . S
C86 C85 1.377 1_455 S
C86 C92 1.390 . S
C87 H78 0.930 . S
C87 C85 1.384 . S
C87 C88 1.372 1_655 S
C88 C87 1.372 1_455 S
C88 C89 1.400 . S
C88 C93 1.490 . S
C89 H79 0.930 . S
C89 C88 1.400 . S
C89 C92 1.386 . S
H90 C106 0.930 . S
H91 C107 0.931 . S
C92 H80 0.929 . S
C92 C86 1.390 . S
C92 C89 1.386 . S
C93 C88 1.490 . S
C93 C95 1.395 1_455 S
C93 C96 1.403 . S
H94 C100 0.930 . S
C95 H81 0.930 . S
C95 C93 1.395 1_655 S
C95 C98 1.403 . S
C96 C93 1.403 . S
C96 C97 1.524 . S
C96 C100 1.400 . S
C97 H82 0.960 . S
C97 H83 0.960 . S
C97 H84 0.960 . S
C97 C96 1.524 . S
C98 C95 1.403 . S
C98 C99 1.392 1_655 S
C98 C102 1.495 . S
C99 C98 1.392 1_455 S
C99 C100 1.385 . S
C99 C101 1.478 . S
C100 H94 0.930 . S
C100 C96 1.400 . S
C100 C99 1.385 . S
C101 C99 1.478 . S
C101 C103 1.381 1_455 S
C101 C107 1.383 . S
C102 C98 1.495 . S
C102 H108 0.959 . S
C102 H109 0.961 . S
C102 H110 0.960 . S
C103 C101 1.381 1_655 S
C103 C104 1.394 . S
C103 H111 0.930 . S
C104 C103 1.394 . S
C104 C105 1.383 1_655 S
C104 H112 0.929 . S
C105 C104 1.383 1_455 S
C105 C106 1.377 . S
C106 H90 0.930 . S
C106 C105 1.377 . S
C106 C107 1.379 . S
C107 H91 0.931 . S
C107 C101 1.383 . S
C107 C106 1.379 . S
H108 C102 0.959 . S
H109 C102 0.961 . S
H110 C102 0.960 . S
H111 C103 0.930 . S
H112 C104 0.929 . S
H113 C121 0.929 . S
H114 C123 0.930 . S
H115 C125 0.930 . S
H116 C128 0.929 . S
H117 C131 0.930 . S
H118 C133 0.960 . S
H119 C133 0.960 . S
H120 C133 0.960 1_545 S
C121 H113 0.929 . S
C121 C122 1.379 . S
C121 C123 1.384 . S
C122 C121 1.379 . S
C122 C128 1.388 1_565 S
C123 H114 0.930 . S
C123 C121 1.384 . S
C123 C124 1.372 1_565 S
C124 C123 1.372 1_545 S
C124 C125 1.400 . S
C124 C129 1.490 . S
C125 H115 0.930 . S
C125 C124 1.400 . S
C125 C128 1.386 . S
H126 C142 0.930 . S
H127 C143 0.931 . S
C128 H116 0.929 . S
C128 C122 1.388 1_545 S
C128 C125 1.386 . S
C129 C124 1.490 . S
C129 C131 1.395 . S
C129 C132 1.403 1_545 S
H130 C136 0.930 . S
C131 H117 0.930 . S
C131 C129 1.395 . S
C131 C134 1.403 . S
C132 C129 1.403 1_565 S
C132 C133 1.524 . S
C132 C136 1.400 . S
C133 H118 0.960 . S
C133 H119 0.960 . S
C133 H120 0.960 1_565 S
C133 C132 1.524 . S
C134 C131 1.403 . S
C134 C135 1.392 . S
C134 C138 1.495 . S
C135 C134 1.392 . S
C135 C136 1.386 1_545 S
C135 C137 1.478 . S
C136 H130 0.930 . S
C136 C132 1.400 . S
C136 C135 1.386 1_565 S
C137 C135 1.478 . S
C137 C139 1.381 1_545 S
C137 C143 1.383 . S
C138 C134 1.495 . S
C138 H144 0.959 . S
C138 H145 0.961 . S
C138 H146 0.960 . S
C139 C137 1.381 1_565 S
C139 C140 1.394 . S
C139 H147 0.930 . S
C140 C139 1.394 . S
C140 C141 1.383 1_565 S
C140 H148 0.929 . S
C141 C140 1.383 1_545 S
C141 C142 1.377 . S
C142 H126 0.930 . S
C142 C141 1.377 . S
C142 C143 1.379 . S
C143 H127 0.931 . S
C143 C137 1.383 . S
C143 C142 1.379 . S
H144 C138 0.959 . S
H145 C138 0.961 . S
H146 C138 0.960 . S
H147 C139 0.930 . S
H148 C140 0.929 . S
H149 C157 0.929 . S
H150 C159 0.930 . S
H151 C161 0.930 . S
H152 C164 0.929 . S
H153 C167 0.930 . S
H154 C169 0.960 . S
H155 C169 0.960 . S
H156 C169 0.960 . S
C157 H149 0.929 . S
C157 C158 1.377 1_655 S
C157 C159 1.384 . S
C158 C157 1.377 1_455 S
C158 C164 1.390 . S
C159 H150 0.930 . S
C159 C157 1.384 . S
C159 C160 1.372 1_655 S
C160 C159 1.372 1_455 S
C160 C161 1.400 . S
C160 C165 1.488 1_455 S
C161 H151 0.930 . S
C161 C160 1.400 . S
C161 C164 1.386 . S
H162 C178 0.930 . S
H163 C179 0.931 . S
C164 H152 0.929 . S
C164 C158 1.390 . S
C164 C161 1.386 . S
C165 C160 1.488 1_655 S
C165 C167 1.409 . S
C165 C168 1.391 1_655 S
H166 C172 0.930 . S
C167 H153 0.930 . S
C167 C165 1.409 . S
C167 C170 1.403 . S
C168 C165 1.391 1_455 S
C168 C169 1.524 . S
C168 C172 1.400 . S
C169 H154 0.960 . S
C169 H155 0.960 . S
C169 H156 0.960 . S
C169 C168 1.524 . S
C170 C167 1.403 . S
C170 C171 1.392 . S
C170 C174 1.495 . S
C171 C170 1.392 . S
C171 C172 1.385 1_655 S
C171 C173 1.478 . S
C172 H166 0.930 . S
C172 C168 1.400 . S
C172 C171 1.385 1_455 S
C173 C171 1.478 . S
C173 C175 1.381 . S
C173 C179 1.383 . S
C174 C170 1.495 . S
C174 H180 0.959 . S
C174 H181 0.961 . S
C174 H182 0.960 . S
C175 C173 1.381 . S
C175 C176 1.394 . S
C175 H183 0.930 . S
C176 C175 1.394 . S
C176 C177 1.383 . S
C176 H184 0.929 . S
C177 C176 1.383 . S
C177 C178 1.377 . S
C178 H162 0.930 . S
C178 C177 1.377 . S
C178 C179 1.379 . S
C179 H163 0.931 . S
C179 C173 1.383 . S
C179 C178 1.379 . S
H180 C174 0.959 . S
H181 C174 0.961 . S
H182 C174 0.960 . S
H183 C175 0.930 . S
H184 C176 0.929 . S
H185 C193 0.929 . S
H186 C195 0.930 . S
H187 C197 0.930 1_565 S
H188 C200 0.929 1_565 S
H189 C203 0.930 . S
H190 C205 0.960 . S
H191 C205 0.960 . S
H192 C205 0.960 . S
C193 H185 0.929 . S
C193 C194 1.377 . S
C193 C195 1.384 . S
C194 C193 1.377 . S
C194 C200 1.390 . S
C195 H186 0.930 . S
C195 C193 1.384 . S
C195 C196 1.372 . S
C196 C195 1.372 . S
C196 C197 1.400 . S
C196 C201 1.490 . S
C197 H187 0.930 1_545 S
C197 C196 1.400 . S
C197 C200 1.386 . S
H198 C214 0.930 . S
H199 C215 0.931 . S
C200 H188 0.929 1_545 S
C200 C194 1.390 . S
C200 C197 1.386 . S
C201 C196 1.490 . S
C201 C203 1.395 1_545 S
C201 C204 1.403 . S
H202 C208 0.930 . S
C203 H189 0.930 . S
C203 C201 1.395 1_565 S
C203 C206 1.403 . S
C204 C201 1.403 . S
C204 C205 1.524 . S
C204 C208 1.400 . S
C205 H190 0.960 . S
C205 H191 0.960 . S
C205 H192 0.960 . S
C205 C204 1.524 . S
C206 C203 1.403 . S
C206 C207 1.392 . S
C206 C210 1.495 . S
C207 C206 1.392 . S
C207 C208 1.385 1_565 S
C207 C209 1.478 . S
C208 H202 0.930 . S
C208 C204 1.400 . S
C208 C207 1.385 1_545 S
C209 C207 1.478 . S
C209 C211 1.381 1_565 S
C209 C215 1.383 . S
C210 C206 1.495 . S
C210 H216 0.959 . S
C210 H217 0.961 . S
C210 H218 0.960 . S
C211 C209 1.381 1_545 S
C211 C212 1.394 . S
C211 H219 0.930 . S
C212 C211 1.394 . S
C212 C213 1.383 1_545 S
C212 H220 0.929 . S
C213 C212 1.383 1_565 S
C213 C214 1.377 . S
C214 H198 0.930 . S
C214 C213 1.377 . S
C214 C215 1.379 . S
C215 H199 0.931 . S
C215 C209 1.383 . S
C215 C214 1.379 . S
H216 C210 0.959 . S
H217 C210 0.961 . S
H218 C210 0.960 . S
H219 C211 0.930 . S
H220 C212 0.929 . S
H221 C229 0.929 . S
H222 C231 0.930 . S
H223 C233 0.930 . S
H224 C236 0.929 . S
H225 C239 0.930 . S
H226 C241 0.960 . S
H227 C241 0.960 . S
H228 C241 0.960 1_655 S
C229 H221 0.929 . S
C229 C230 1.359 1_455 S
C229 C231 1.384 . S
C230 C229 1.359 1_655 S
C230 C236 1.405 . S
C231 H222 0.930 . S
C231 C229 1.384 . S
C231 C232 1.372 . S
C232 C231 1.372 . S
C232 C233 1.400 1_455 S
C232 C237 1.490 . S
C233 H223 0.930 . S
C233 C232 1.400 1_655 S
C233 C236 1.386 . S
H234 C250 0.930 . S
H235 C251 0.931 . S
C236 H224 0.929 . S
C236 C230 1.405 . S
C236 C233 1.386 . S
C237 C232 1.490 . S
C237 C239 1.395 . S
C237 C240 1.403 . S
H238 C244 0.930 . S
C239 H225 0.930 . S
C239 C237 1.395 . S
C239 C242 1.403 . S
C240 C237 1.403 . S
C240 C241 1.524 . S
C240 C244 1.400 . S
C241 H226 0.960 . S
C241 H227 0.960 . S
C241 H228 0.960 1_455 S
C241 C240 1.524 . S
C242 C239 1.403 . S
C242 C243 1.392 . S
C242 C246 1.495 . S
C243 C242 1.392 . S
C243 C244 1.385 . S
C243 C245 1.478 . S
C244 H238 0.930 . S
C244 C240 1.400 . S
C244 C243 1.385 . S
C245 C243 1.478 . S
C245 C247 1.381 . S
C245 C251 1.383 1_455 S
C246 C242 1.495 . S
C246 H252 0.960 . S
C246 H253 0.961 1_455 S
C246 H254 0.960 . S
C247 C245 1.381 . S
C247 C248 1.394 . S
C247 H255 0.930 . S
C248 C247 1.394 . S
C248 C249 1.383 . S
C248 H256 0.929 . S
C249 C248 1.383 . S
C249 C250 1.377 1_455 S
C250 H234 0.930 . S
C250 C249 1.377 1_655 S
C250 C251 1.379 . S
C251 H235 0.931 . S
C251 C245 1.383 1_655 S
C251 C250 1.379 . S
H252 C246 0.960 . S
H253 C246 0.961 1_655 S
H254 C246 0.960 . S
H255 C247 0.930 . S
H256 C248 0.929 . S
H257 C265 0.929 . S
H258 C267 0.930 . S
H259 C269 0.930 . S
H260 C272 0.929 . S
H261 C275 0.930 . S
H262 C277 0.960 . S
H263 C277 0.960 1_565 S
H264 C277 0.960 . S
C265 H257 0.929 . S
C265 C266 1.377 . S
C265 C267 1.384 . S
C266 C265 1.377 . S
C266 C272 1.390 1_565 S
C267 H258 0.930 . S
C267 C265 1.384 . S
C267 C268 1.372 . S
C268 C267 1.372 . S
C268 C269 1.400 1_565 S
C268 C273 1.490 1_565 S
C269 H259 0.930 . S
C269 C268 1.400 1_545 S
C269 C272 1.386 . S
H270 C286 0.930 . S
H271 C287 0.931 . S
C272 H260 0.929 . S
C272 C266 1.390 1_545 S
C272 C269 1.386 . S
C273 C268 1.490 1_545 S
C273 C275 1.395 1_545 S
C273 C276 1.402 . S
H274 C280 0.930 . S
C275 H261 0.930 . S
C275 C273 1.395 1_565 S
C275 C278 1.403 . S
C276 C273 1.402 . S
C276 C277 1.524 . S
C276 C280 1.400 . S
C277 H262 0.960 . S
C277 H263 0.960 1_545 S
C277 H264 0.960 . S
C277 C276 1.524 . S
C278 C275 1.403 . S
C278 C279 1.392 1_565 S
C278 C282 1.495 . S
C279 C278 1.392 1_545 S
C279 C280 1.385 . S
C279 C281 1.478 . S
C280 H274 0.930 . S
C280 C276 1.400 . S
C280 C279 1.385 . S
C281 C279 1.478 . S
C281 C283 1.381 1_545 S
C281 C287 1.383 . S
C282 C278 1.495 . S
C282 H288 0.959 . S
C282 H289 0.961 1_565 S
C282 H290 0.960 . S
C283 C281 1.381 1_565 S
C283 C284 1.394 . S
C283 H291 0.930 . S
C284 C283 1.394 . S
C284 C285 1.383 1_565 S
C284 H292 0.929 . S
C285 C284 1.383 1_545 S
C285 C286 1.377 . S
C286 H270 0.930 . S
C286 C285 1.377 . S
C286 C287 1.379 . S
C287 H271 0.931 . S
C287 C281 1.383 . S
C287 C286 1.379 . S
H288 C282 0.959 . S
H289 C282 0.961 1_545 S
H290 C282 0.960 . S
H291 C283 0.930 . S
H292 C284 0.929 . S
H293 C301 0.929 . S
H294 C303 0.930 . S
H295 C305 0.930 . S
H296 C308 0.929 . S
H297 C311 0.930 . S
H298 C313 0.960 . S
H299 C313 0.960 1_655 S
H300 C313 0.960 . S
C301 H293 0.929 . S
C301 C302 1.360 1_655 S
C301 C303 1.384 . S
C302 C301 1.360 1_455 S
C302 C308 1.407 . S
C303 H294 0.930 . S
C303 C301 1.384 . S
C303 C304 1.372 . S
C304 C303 1.372 . S
C304 C305 1.400 1_655 S
C304 C309 1.490 . S
C305 H295 0.930 . S
C305 C304 1.400 1_455 S
C305 C308 1.386 . S
H306 C322 0.930 . S
H307 C323 0.931 . S
C308 H296 0.929 . S
C308 C302 1.407 . S
C308 C305 1.386 . S
C309 C304 1.490 . S
C309 C311 1.395 . S
C309 C312 1.400 1_655 S
H310 C316 0.929 1_455 S
C311 H297 0.930 . S
C311 C309 1.395 . S
C311 C314 1.403 . S
C312 C309 1.400 1_455 S
C312 C313 1.526 . S
C312 C316 1.401 1_455 S
C313 H298 0.960 . S
C313 H299 0.960 1_455 S
C313 H300 0.960 . S
C313 C312 1.526 . S
C314 C311 1.403 . S
C314 C315 1.392 . S
C314 C318 1.495 . S
C315 C314 1.392 . S
C315 C316 1.387 . S
C315 C317 1.478 . S
C316 H310 0.929 1_655 S
C316 C312 1.401 1_655 S
C316 C315 1.387 . S
C317 C315 1.478 . S
C317 C319 1.381 . S
C317 C323 1.383 1_655 S
C318 C314 1.495 . S
C318 H324 0.959 . S
C318 H325 0.961 1_655 S
C318 H326 0.960 . S
C319 C317 1.381 . S
C319 C320 1.394 . S
C319 H327 0.930 . S
C320 C319 1.394 . S
C320 C321 1.383 . S
C320 H328 0.929 . S
C321 C320 1.383 . S
C321 C322 1.377 1_655 S
C322 H306 0.930 . S
C322 C321 1.377 1_455 S
C322 C323 1.379 . S
C323 H307 0.931 . S
C323 C317 1.383 1_455 S
C323 C322 1.379 . S
H324 C318 0.959 . S
H325 C318 0.961 1_455 S
H326 C318 0.960 . S
H327 C319 0.930 . S
H328 C320 0.929 . S
H329 C337 0.929 . S
H330 C339 0.930 . S
H331 C341 0.930 . S
H332 C344 0.929 . S
H333 C347 0.930 . S
H334 C349 0.960 . S
H335 C349 0.960 . S
H336 C349 0.960 . S
C337 H329 0.929 . S
C337 C338 1.377 1_565 S
C337 C339 1.384 . S
C338 C337 1.377 1_545 S
C338 C344 1.390 . S
C339 H330 0.930 . S
C339 C337 1.384 . S
C339 C340 1.372 1_565 S
C340 C339 1.372 1_545 S
C340 C341 1.400 . S
C340 C345 1.490 . S
C341 H331 0.930 . S
C341 C340 1.400 . S
C341 C344 1.386 . S
H342 C358 0.930 . S
H343 C359 0.931 . S
C344 H332 0.929 . S
C344 C338 1.390 . S
C344 C341 1.386 . S
C345 C340 1.490 . S
C345 C347 1.395 1_545 S
C345 C348 1.403 . S
H346 C352 0.930 . S
C347 H333 0.930 . S
C347 C345 1.395 1_565 S
C347 C350 1.403 . S
C348 C345 1.403 . S
C348 C349 1.524 . S
C348 C352 1.400 . S
C349 H334 0.960 . S
C349 H335 0.960 . S
C349 H336 0.960 . S
C349 C348 1.524 . S
C350 C347 1.403 . S
C350 C351 1.392 . S
C350 C354 1.495 . S
C351 C350 1.392 . S
C351 C352 1.385 1_565 S
C351 C353 1.478 . S
C352 H346 0.930 . S
C352 C348 1.400 . S
C352 C351 1.385 1_545 S
C353 C351 1.478 . S
C353 C355 1.381 . S
C353 C359 1.383 1_565 S
C354 C350 1.495 . S
C354 H360 0.959 . S
C354 H361 0.961 . S
C354 H362 0.960 . S
C355 C353 1.381 . S
C355 C356 1.394 . S
C355 H363 0.930 . S
C356 C355 1.394 . S
C356 C357 1.383 . S
C356 H364 0.929 . S
C357 C356 1.383 . S
C357 C358 1.377 1_565 S
C358 H342 0.930 . S
C358 C357 1.377 1_545 S
C358 C359 1.379 . S
C359 H343 0.931 . S
C359 C353 1.383 1_545 S
C359 C358 1.379 . S
H360 C354 0.959 . S
H361 C354 0.961 . S
H362 C354 0.960 . S
H363 C355 0.930 . S
H364 C356 0.929 . S
C86 C30 1.313 1_455 S
C105 C47 1.355 . S
C122 C1 1.499 1_565 S
C141 N66 1.509 . S
C158 C0 1.226 1_455 S
C177 N43 1.254 . S
C194 C29 1.657 . S
C213 C70 1.687 . S
C230 C19 1.339 1_655 S
C249 C38 1.404 . S
C266 C20 1.544 . S
C285 N56 1.559 . S
C321 N33 1.242 . S
C302 C10 1.273 . S
C338 C2 1.700 . S
C357 C61 1.732 . S
