# Generated by pormake.
# Topology rtl, (3,6)-cn, num edge types: 1
# Building blocks:
#     Node 0, Type 0, BuildingBlock: WUSLED_clean_sbu_0, # of connection points: 3
#     Node 1, Type 0, BuildingBlock: WUSLED_clean_sbu_0, # of connection points: 3
#     Node 2, Type 0, BuildingBlock: WUSLED_clean_sbu_0, # of connection points: 3
#     Node 3, Type 0, BuildingBlock: WUSLED_clean_sbu_0, # of connection points: 3
#     Node 4, Type 1, BuildingBlock: FUNLAD_clean_sbu_0, # of connection points: 6
#     Node 5, Type 1, BuildingBlock: FUNLAD_clean_sbu_0, # of connection points: 6
#     Edge 6, Type (0, 1), BuildingBlock: OJICUG_clean_linker_0, # of connection points: 2
#     Edge 7, Type (0, 1), BuildingBlock: OJICUG_clean_linker_0, # of connection points: 2
#     Edge 8, Type (0, 1), BuildingBlock: OJICUG_clean_linker_0, # of connection points: 2
#     Edge 9, Type (0, 1), BuildingBlock: OJICUG_clean_linker_0, # of connection points: 2
#     Edge 10, Type (0, 1), BuildingBlock: OJICUG_clean_linker_0, # of connection points: 2
#     Edge 11, Type (0, 1), BuildingBlock: OJICUG_clean_linker_0, # of connection points: 2
#     Edge 12, Type (0, 1), BuildingBlock: OJICUG_clean_linker_0, # of connection points: 2
#     Edge 13, Type (0, 1), BuildingBlock: OJICUG_clean_linker_0, # of connection points: 2
#     Edge 14, Type (0, 1), BuildingBlock: OJICUG_clean_linker_0, # of connection points: 2
#     Edge 15, Type (0, 1), BuildingBlock: OJICUG_clean_linker_0, # of connection points: 2
#     Edge 16, Type (0, 1), BuildingBlock: OJICUG_clean_linker_0, # of connection points: 2
#     Edge 17, Type (0, 1), BuildingBlock: OJICUG_clean_linker_0, # of connection points: 2
# Relax obj value: 0.023
# Max RMSD: 0.098
# Mean RMSD: 0.081
data_MOF--net-rtl--node1-WUSLED_clean_sbu_0--node2-FUNLAD_clean_sbu_0--edge1-OJICUG_clean_linker_0
_symmetry_space_group_name_H-M    P1
_symmetry_Int_Tables_number       1
_symmetry_cell_setting            triclinic
loop_
_symmetry_equiv_pos_as_xyz
'x, y, z'
_cell_length_a     41.879074
_cell_length_b     34.541698
_cell_length_c     23.559581
_cell_angle_alpha  90.262992
_cell_angle_beta   91.028253
_cell_angle_gamma 90.494653
loop_
_atom_site_label
_atom_site_type_symbol
_atom_site_fract_x
_atom_site_fract_y
_atom_site_fract_z
_atom_type_partial_charge
C0 C 0.14763 0.83826 0.1829 0.0
C1 C 0.11573 0.84862 0.17217 0.0
C2 C 0.11253 0.87703 0.2667 0.0
C3 C 0.09827 0.86763 0.21386 0.0
C4 C 0.14441 0.86628 0.27733 0.0
C5 C 0.16176 0.84701 0.23581 0.0
U6 U 0.16522 0.82113 0.02728 0.0
O7 O 0.21082 0.82002 0.98244 0.0
O8 O 0.17959 0.76868 0.98131 0.0
C9 C 0.20774 0.78318 0.96879 0.0
C10 C 0.16685 0.81999 0.13861 0.0
C11 C 0.23576 0.75813 0.98007 0.0
C12 C 0.29301 0.75043 0.99642 0.0
C13 C 0.26637 0.77426 0.98967 0.0
C14 C 0.25911 0.69381 0.9843 0.0
C15 C 0.28976 0.70991 0.99335 0.0
C16 C 0.23249 0.71761 0.97752 0.0
C17 C 0.11089 0.87106 0.91684 0.0
C18 C 0.12337 0.88815 0.81963 0.0
C19 C 0.06847 0.88836 0.85034 0.0
C20 C 0.07843 0.87673 0.90447 0.0
C21 C 0.09084 0.8947 0.80746 0.0
C22 C 0.13332 0.87627 0.87383 0.0
C23 C 0.12071 0.86145 0.97539 0.0
O24 O 0.15222 0.7933 0.10751 0.0
O25 O 0.18408 0.84409 0.10861 0.0
O26 O 0.14802 0.87644 0.99351 0.0
O27 O 0.11659 0.8252 0.99053 0.0
H28 H 0.10448 0.84252 0.13129 0.0
H29 H 0.07389 0.87593 0.2042 0.0
H30 H 0.15596 0.8728 0.3178 0.0
H31 H 0.18637 0.83936 0.24478 0.0
H32 H 0.3163 0.76385 1.00248 0.0
H33 H 0.26991 0.80535 0.991 0.0
H34 H 0.25566 0.66272 0.98236 0.0
H35 H 0.20935 0.70421 0.96954 0.0
H36 H 0.14113 0.89241 0.78733 0.0
H37 H 0.0433 0.89362 0.84264 0.0
H38 H 0.0608 0.87293 0.93713 0.0
H39 H 0.15851 0.87179 0.88237 0.0
C40 C 0.64969 0.68137 0.69217 0.0
C41 C 0.61788 0.6695 0.68267 0.0
C42 C 0.61548 0.64429 0.77891 0.0
C43 C 0.60086 0.65131 0.72576 0.0
C44 C 0.64726 0.65658 0.78834 0.0
C45 C 0.66418 0.67502 0.74534 0.0
U46 U 0.66378 0.69477 0.53508 0.0
O47 O 0.6783 0.74572 0.48578 0.0
O48 O 0.70813 0.69378 0.48654 0.0
C49 C 0.70529 0.72998 0.4704 0.0
C50 C 0.66841 0.69846 0.64616 0.0
C51 C 0.73395 0.75444 0.47796 0.0
C52 C 0.77527 0.78436 0.5377 0.0
C53 C 0.748 0.76078 0.53177 0.0
C54 C 0.77454 0.79539 0.43618 0.0
C55 C 0.78878 0.80207 0.48993 0.0
C56 C 0.74741 0.77181 0.43033 0.0
C57 C 0.60618 0.64379 0.43031 0.0
C58 C 0.61728 0.62948 0.33153 0.0
C59 C 0.56347 0.6222 0.36635 0.0
C60 C 0.57398 0.63435 0.42024 0.0
C61 C 0.58508 0.61911 0.32156 0.0
C62 C 0.62772 0.64188 0.38542 0.0
C63 C 0.61695 0.65421 0.48821 0.0
O64 O 0.68424 0.67342 0.61563 0.0
O65 O 0.65373 0.72475 0.6153 0.0
O66 O 0.61421 0.69085 0.50236 0.0
O67 O 0.64416 0.63903 0.50515 0.0
H68 H 0.60637 0.67371 0.64162 0.0
H69 H 0.57658 0.64173 0.71693 0.0
H70 H 0.65908 0.65186 0.82896 0.0
H71 H 0.68875 0.68383 0.75334 0.0
H72 H 0.78545 0.78922 0.57973 0.0
H73 H 0.73781 0.74763 0.56906 0.0
H74 H 0.78457 0.80808 0.39844 0.0
H75 H 0.73691 0.7671 0.38846 0.0
H76 H 0.63441 0.62783 0.29772 0.0
H77 H 0.53861 0.61404 0.36024 0.0
H78 H 0.55703 0.63567 0.4544 0.0
H79 H 0.65268 0.64937 0.39226 0.0
C80 C 0.88011 0.17622 0.17397 0.0
C81 C 0.89101 0.13851 0.16381 0.0
C82 C 0.91633 0.13702 0.25754 0.0
C83 C 0.90875 0.11902 0.20534 0.0
C84 C 0.90612 0.17515 0.26708 0.0
C85 C 0.88802 0.19452 0.22567 0.0
U86 U 0.86132 0.1966 0.01949 0.0
O87 O 0.81571 0.19989 0.9723 0.0
O88 O 0.84806 0.25024 0.97508 0.0
C89 C 0.81982 0.23659 0.95956 0.0
C90 C 0.86082 0.19663 0.13071 0.0
C91 C 0.7926 0.26186 0.97106 0.0
C92 C 0.75271 0.2873 0.03465 0.0
C93 C 0.77915 0.26372 0.02513 0.0
C94 C 0.75326 0.30762 0.93635 0.0
C95 C 0.73945 0.30953 0.99031 0.0
C96 C 0.77956 0.28399 0.92689 0.0
C97 C 0.9142 0.14525 0.91054 0.0
C98 C 0.90178 0.12796 0.81236 0.0
C99 C 0.95672 0.12856 0.84637 0.0
C100 C 0.9467 0.14004 0.90004 0.0
C101 C 0.93437 0.12192 0.80205 0.0
C102 C 0.89177 0.13968 0.86613 0.0
C103 C 0.90448 0.15487 0.96864 0.0
O104 O 0.87621 0.22288 0.10137 0.0
O105 O 0.84187 0.17452 0.09911 0.0
O106 O 0.87678 0.14088 0.98466 0.0
O107 O 0.90962 0.19082 0.98508 0.0
H108 H 0.88568 0.12397 0.12386 0.0
H109 H 0.91667 0.08987 0.19653 0.0
H110 H 0.9115 0.18963 0.30704 0.0
H111 H 0.88002 0.22369 0.23414 0.0
H112 H 0.74286 0.28843 0.07681 0.0
H113 H 0.78902 0.24686 0.05981 0.0
H114 H 0.74339 0.32391 0.9011 0.0
H115 H 0.7896 0.28277 0.88484 0.0
H116 H 0.88403 0.12344 0.77893 0.0
H117 H 0.98193 0.12367 0.84014 0.0
H118 H 0.96435 0.14411 0.9338 0.0
H119 H 0.86654 0.14381 0.8732 0.0
C120 C 0.3786 0.3339 0.3473 0.0
C121 C 0.41041 0.34573 0.35688 0.0
C122 C 0.41289 0.37092 0.26062 0.0
C123 C 0.42746 0.36389 0.3138 0.0
C124 C 0.38111 0.35862 0.25112 0.0
C125 C 0.36416 0.34021 0.29408 0.0
U126 U 0.36412 0.32025 0.50442 0.0
O127 O 0.31955 0.32199 0.55239 0.0
O128 O 0.34865 0.26946 0.55306 0.0
C129 C 0.32174 0.28562 0.56799 0.0
C130 C 0.35976 0.31695 0.39327 0.0
C131 C 0.29275 0.26193 0.55893 0.0
C132 C 0.25597 0.22593 0.49714 0.0
C133 C 0.28359 0.24869 0.5046 0.0
C134 C 0.24639 0.22977 0.59813 0.0
C135 C 0.23703 0.2162 0.54387 0.0
C136 C 0.27399 0.2524 0.60551 0.0
C137 C 0.42191 0.37043 0.60999 0.0
C138 C 0.41073 0.38549 0.70851 0.0
C139 C 0.46467 0.39179 0.67401 0.0
C140 C 0.45418 0.37946 0.6202 0.0
C141 C 0.44299 0.39548 0.71859 0.0
C142 C 0.40028 0.37292 0.65469 0.0
C143 C 0.41117 0.36005 0.55204 0.0
O144 O 0.3742 0.29043 0.42406 0.0
O145 O 0.34413 0.34214 0.42386 0.0
O146 O 0.38419 0.37565 0.53479 0.0
O147 O 0.41356 0.32334 0.53798 0.0
H148 H 0.42187 0.34153 0.39796 0.0
H149 H 0.45175 0.37347 0.32268 0.0
H150 H 0.36932 0.36333 0.21047 0.0
H151 H 0.33959 0.33142 0.28603 0.0
H152 H 0.24927 0.2163 0.45473 0.0
H153 H 0.29778 0.25596 0.46809 0.0
H154 H 0.23266 0.22237 0.63512 0.0
H155 H 0.28078 0.26233 0.64777 0.0
H156 H 0.39353 0.38759 0.74215 0.0
H157 H 0.48959 0.39966 0.68018 0.0
H158 H 0.47119 0.37773 0.58618 0.0
H159 H 0.37527 0.36577 0.64774 0.0
C160 C 0.04359 0.96465 0.4347 0.0
N161 N 0.07216 0.06686 0.51929 0.0
C162 C 0.1021 0.05185 0.52048 0.0
C163 C 0.12888 0.07623 0.52228 0.0
C164 C 0.12493 0.11659 0.52297 0.0
C165 C 0.09372 0.1313 0.52147 0.0
C166 C 0.06758 0.10583 0.51958 0.0
Zn167 Zn 0.03369 0.02962 0.51751 0.0
C168 C 0.98412 0.05148 0.43214 0.0
N169 N 0.95463 0.95002 0.51359 0.0
C170 C 0.95855 0.91094 0.51321 0.0
C171 C 0.92495 0.96577 0.51239 0.0
C172 C 0.89779 0.94209 0.51014 0.0
C173 C 0.90103 0.90165 0.50905 0.0
C174 C 0.93195 0.88611 0.51102 0.0
Zn175 Zn 0.99331 0.98694 0.51539 0.0
O176 O 0.05597 0.99565 0.45478 0.0
C177 C 0.04214 0.96521 0.60164 0.0
O178 O 0.01652 0.95338 0.45234 0.0
H179 H 0.92229 0.99688 0.51297 0.0
H180 H 0.10527 0.0208 0.52041 0.0
H181 H 0.98234 0.89899 0.51416 0.0
O182 O 0.05541 0.99571 0.58273 0.0
O183 O 0.01547 0.95412 0.58035 0.0
H184 H 0.0436 0.11719 0.51846 0.0
O185 O 0.97109 0.02112 0.57886 0.0
O186 O 1.01101 0.06267 0.58058 0.0
O187 O 0.97171 0.02042 0.45067 0.0
O188 O 1.01085 0.06307 0.45271 0.0
C189 C 0.98416 0.05164 0.59926 0.0
H190 H 0.15243 0.06356 0.52422 0.0
H191 H 0.08953 0.16219 0.52132 0.0
H192 H 0.87447 0.95539 0.50958 0.0
H193 H 0.9356 0.85513 0.5097 0.0
C194 C 0.48938 0.46688 0.92746 0.0
N195 N 0.57371 0.45184 0.02442 0.0
C196 C 0.57012 0.41288 0.01771 0.0
C197 C 0.59692 0.38903 0.01551 0.0
C198 C 0.6277 0.40544 0.02011 0.0
C199 C 0.63058 0.44564 0.02836 0.0
C200 C 0.60321 0.46834 0.03035 0.0
Zn201 Zn 0.53469 0.48738 0.02196 0.0
C202 C 0.54658 0.55553 0.94607 0.0
N203 N 0.45466 0.56374 0.0145 0.0
C204 C 0.42508 0.54759 0.00766 0.0
C205 C 0.4586 0.60279 0.01909 0.0
C206 C 0.43214 0.62721 0.0166 0.0
C207 C 0.40132 0.61133 0.00918 0.0
C208 C 0.39803 0.5709 1.00488 0.0
Zn209 Zn 0.49355 0.52801 0.01762 0.0
O210 O 0.5154 0.4562 0.95098 0.0
C211 C 0.48169 0.45983 0.09349 0.0
O212 O 0.475 0.49618 0.94707 0.0
H213 H 0.48232 0.61505 0.02442 0.0
H214 H 0.54647 0.40034 0.01291 0.0
H215 H 0.42242 0.51649 1.00432 0.0
O216 O 0.50969 0.4506 0.07859 0.0
O217 O 0.46927 0.4906 0.07396 0.0
H218 H 0.60558 0.49935 0.03573 0.0
O219 O 0.51282 0.55919 0.0886 0.0
O220 O 0.55322 0.51917 0.0925 0.0
O221 O 0.51859 0.56475 0.96095 0.0
O222 O 0.55896 0.52477 0.96564 0.0
C223 C 0.53884 0.54847 0.11213 0.0
H224 H 0.59355 0.35824 0.00854 0.0
H225 H 0.65378 0.45949 0.03298 0.0
H226 H 0.43586 0.65822 0.01948 0.0
H227 H 0.37473 0.55732 0.99995 0.0
C228 C 0.20785 0.15901 0.50053 0.0
C229 C 0.20786 0.19161 0.53649 0.0
H230 H 0.1817 0.11005 0.46762 0.0
C231 C 0.18001 0.19998 0.56656 0.0
H232 H 0.22896 0.15155 0.4771 0.0
C233 C 0.15302 0.17602 0.56152 0.0
C234 C 0.1532 0.14301 0.52637 0.0
H235 H 0.17906 0.22512 0.59411 0.0
H236 H 0.13223 0.18291 0.58621 0.0
C237 C 0.18087 0.13498 0.4956 0.0
C238 C 0.34311 0.69292 0.03725 0.0
C239 C 0.31829 0.68457 0.99794 0.0
H240 H 0.38849 0.67619 0.07221 0.0
C241 C 0.32109 0.65201 0.96238 0.0
H242 H 0.34156 0.71747 0.06579 0.0
C243 C 0.34796 0.62836 0.96608 0.0
C244 C 0.37277 0.63666 1.00539 0.0
H245 H 0.30275 0.64512 0.93086 0.0
H246 H 0.34952 0.6039 0.93737 0.0
C247 C 0.37003 0.66926 0.04092 0.0
C248 C 0.81938 0.8622 0.46456 0.0
C249 C 0.81743 0.82771 0.49581 0.0
H250 H 0.84724 0.91211 0.44364 0.0
C251 C 0.84316 0.81778 0.53191 0.0
H252 H 0.79987 0.87096 0.43684 0.0
C253 C 0.87032 0.84164 0.53622 0.0
C254 C 0.87227 0.87608 0.50477 0.0
H255 H 0.84253 0.79126 0.55622 0.0
H256 H 0.88966 0.83328 0.56459 0.0
C257 C 0.84643 0.88604 0.46896 0.0
C258 C 0.68537 0.32117 0.03193 0.0
C259 C 0.71122 0.33447 0.99983 0.0
H260 H 0.63884 0.33311 0.06382 0.0
C261 C 0.70961 0.37155 0.97565 0.0
H262 H 0.68574 0.29263 0.05075 0.0
C263 C 0.6827 0.39457 0.98274 0.0
C264 C 0.65666 0.38114 0.0142 0.0
H265 H 0.72923 0.38286 0.9512 0.0
H266 H 0.68208 0.42267 0.96257 0.0
C267 C 0.65836 0.3442 0.03891 0.0
C268 C 0.06285 0.8895 0.32234 0.0
C269 C 0.09467 0.89912 0.30993 0.0
H270 H 0.02177 0.90238 0.3719 0.0
C271 C 0.10937 0.93038 0.33875 0.0
H272 H 0.05096 0.86539 0.30105 0.0
C273 C 0.09269 0.95162 0.37896 0.0
C274 C 0.06093 0.94196 0.3917 0.0
H275 H 0.13371 0.93882 0.32962 0.0
H276 H 0.1048 0.9756 0.40021 0.0
C277 C 0.0462 0.91057 0.36307 0.0
C278 C 0.61324 0.5931 0.85394 0.0
C279 C 0.59805 0.62282 0.8235 0.0
H280 H 0.60895 0.54858 0.9162 0.0
C281 C 0.56595 0.63105 0.83491 0.0
H282 H 0.63782 0.58575 0.84571 0.0
C283 C 0.54935 0.60977 0.87552 0.0
C284 C 0.56441 0.57956 0.90517 0.0
H285 H 0.55369 0.65401 0.81247 0.0
H286 H 0.52458 0.61662 0.88302 0.0
C287 C 0.5966 0.57164 0.89412 0.0
C288 C 0.96002 0.13247 0.33195 0.0
C289 C 0.934 0.11546 0.30231 0.0
H290 H 0.99666 0.12541 0.39582 0.0
C291 C 0.92479 0.07744 0.31562 0.0
H292 H 0.96772 0.16168 0.32229 0.0
C293 C 0.9411 0.05685 0.35775 0.0
C294 C 0.96727 0.07363 0.38722 0.0
H295 H 0.90464 0.06373 0.2939 0.0
H296 H 0.93321 0.02765 0.36706 0.0
C297 C 0.97666 0.11164 0.37375 0.0
C298 C 0.43567 0.43975 0.80201 0.0
C299 C 0.45383 0.41153 0.77443 0.0
H300 H 0.43262 0.47935 0.87175 0.0
C301 C 0.48309 0.40026 0.79918 0.0
H302 H 0.4132 0.44937 0.78376 0.0
C303 C 0.49428 0.41747 0.84969 0.0
C304 C 0.47655 0.44654 0.87633 0.0
H305 H 0.49745 0.37827 0.77928 0.0
H306 H 0.51713 0.40854 0.86718 0.0
C307 C 0.44693 0.45712 0.85229 0.0
C308 C 0.59257 0.57543 0.23757 0.0
C309 C 0.57427 0.60331 0.26558 0.0
H310 H 0.59577 0.53627 0.16734 0.0
C311 C 0.54491 0.61446 0.2411 0.0
H312 H 0.61513 0.56592 0.25561 0.0
C313 C 0.53377 0.59745 0.19042 0.0
C314 C 0.55164 0.5687 0.16336 0.0
H315 H 0.53044 0.63618 0.26136 0.0
H316 H 0.51083 0.60626 0.17314 0.0
C317 C 0.58135 0.55825 0.18714 0.0
C318 C 0.92856 0.07622 0.71919 0.0
C319 C 0.94513 0.10685 0.74643 0.0
H320 H 0.92782 0.03481 0.65129 0.0
C321 C 0.97324 0.12116 0.72208 0.0
H322 H 0.90698 0.06432 0.7371 0.0
C323 C 0.98526 0.10419 0.673 0.0
C324 C 0.96946 0.07244 0.64721 0.0
H325 H 0.98629 0.1451 0.74158 0.0
H326 H 1.00742 0.11531 0.65625 0.0
C327 C 0.94062 0.05917 0.67016 0.0
C328 C 0.41509 0.42216 0.18566 0.0
C329 C 0.43031 0.39244 0.21608 0.0
H330 H 0.41932 0.46669 0.1234 0.0
C331 C 0.46241 0.38428 0.20468 0.0
H332 H 0.3905 0.42946 0.19389 0.0
C333 C 0.47899 0.40559 0.16406 0.0
C334 C 0.46389 0.43578 0.13441 0.0
H335 H 0.4747 0.36133 0.22711 0.0
H336 H 0.50376 0.39878 0.15656 0.0
C337 C 0.4317 0.44365 0.14547 0.0
C338 C 0.052 0.89602 0.72495 0.0
C339 C 0.08021 0.90997 0.75137 0.0
H340 H 0.01805 0.90215 0.65671 0.0
C341 C 0.0971 0.94033 0.72559 0.0
H342 H 0.03868 0.8723 0.74331 0.0
C343 C 0.08532 0.95743 0.67585 0.0
C344 C 0.05643 0.94447 0.65068 0.0
H345 H 0.11877 0.95196 0.74511 0.0
H346 H 0.0984 0.98155 0.65808 0.0
C347 C 0.04027 0.91302 0.67514 0.0
loop_
_geom_bond_atom_site_label_1
_geom_bond_atom_site_label_2
_geom_bond_distance
_geom_bond_site_symmetry_2
_ccdc_geom_bond_type
C0 C1 1.264 . S
C0 C5 1.479 . S
C0 C10 1.465 . S
C1 C0 1.264 . S
C1 C3 1.339 . S
C1 H28 0.931 . S
C2 C3 1.395 . S
C2 C4 1.320 . S
C3 C1 1.339 . S
C3 C2 1.395 . S
C3 H29 0.929 . S
C4 C2 1.320 . S
C4 C5 1.405 . S
C4 H30 0.930 . S
C5 C0 1.479 . S
C5 C4 1.405 . S
C5 H31 0.931 . S
U6 O7 2.454 . S
U6 O8 2.458 1_554 S
U6 C9 2.984 . S
U6 C10 2.847 . S
U6 C23 2.882 1_554 S
U6 O24 2.441 . S
U6 O25 2.420 . S
U6 O26 2.455 1_554 S
U6 O27 2.449 1_554 S
O7 U6 2.454 . S
O7 C9 1.353 . S
O8 U6 2.458 1_556 S
O8 C9 1.286 1_556 S
C9 U6 2.984 . S
C9 O7 1.353 . S
C9 O8 1.286 1_554 S
C9 C11 1.363 . S
C10 C0 1.465 . S
C10 U6 2.847 . S
C10 O24 1.249 . S
C10 O25 1.202 . S
C11 C9 1.363 . S
C11 C13 1.408 . S
C11 C16 1.342 1_554 S
C12 C13 1.310 . S
C12 C15 1.461 . S
C12 H32 0.932 . S
C13 C11 1.408 . S
C13 C12 1.310 . S
C13 H33 0.930 . S
C14 C15 1.474 1_556 S
C14 C16 1.285 . S
C14 H34 0.929 . S
C15 C12 1.461 . S
C15 C14 1.474 1_554 S
C16 C11 1.342 1_556 S
C16 C14 1.285 . S
C16 H35 0.930 . S
C17 C20 1.424 . S
C17 C22 1.245 . S
C17 C23 1.428 . S
C18 C21 1.260 . S
C18 C22 1.477 . S
C18 H36 0.932 . S
C19 C20 1.384 . S
C19 C21 1.479 . S
C19 H37 0.929 . S
C20 C17 1.424 . S
C20 C19 1.384 . S
C20 H38 0.928 . S
C21 C18 1.260 . S
C21 C19 1.479 . S
C22 C17 1.245 . S
C22 C18 1.477 . S
C22 H39 0.932 . S
C23 U6 2.882 1_556 S
C23 C17 1.428 . S
C23 O26 1.301 . S
C23 O27 1.282 . S
O24 U6 2.441 . S
O24 C10 1.249 . S
O25 U6 2.420 . S
O25 C10 1.202 . S
O26 U6 2.455 1_556 S
O26 C23 1.301 . S
O27 U6 2.449 1_556 S
O27 C23 1.282 . S
H28 C1 0.931 . S
H29 C3 0.929 . S
H30 C4 0.930 . S
H31 C5 0.931 . S
H32 C12 0.932 . S
H33 C13 0.930 . S
H34 C14 0.929 . S
H35 C16 0.930 . S
H36 C18 0.932 . S
H37 C19 0.929 . S
H38 C20 0.928 . S
H39 C22 0.932 . S
C40 C41 1.264 . S
C40 C45 1.479 . S
C40 C50 1.465 . S
C41 C40 1.264 . S
C41 C43 1.339 . S
C41 H68 0.931 . S
C42 C43 1.395 . S
C42 C44 1.320 . S
C43 C41 1.339 . S
C43 C42 1.395 . S
C43 H69 0.929 . S
C44 C42 1.320 . S
C44 C45 1.405 . S
C44 H70 0.930 . S
C45 C40 1.479 . S
C45 C44 1.405 . S
C45 H71 0.931 . S
U46 O47 2.454 . S
U46 O48 2.458 . S
U46 C49 2.984 . S
U46 C50 2.847 . S
U46 C63 2.882 . S
U46 O64 2.441 . S
U46 O65 2.420 . S
U46 O66 2.455 . S
U46 O67 2.449 . S
O47 U46 2.454 . S
O47 C49 1.353 . S
O48 U46 2.458 . S
O48 C49 1.286 . S
C49 U46 2.984 . S
C49 O47 1.353 . S
C49 O48 1.286 . S
C49 C51 1.363 . S
C50 C40 1.465 . S
C50 U46 2.847 . S
C50 O64 1.249 . S
C50 O65 1.202 . S
C51 C49 1.363 . S
C51 C53 1.408 . S
C51 C56 1.342 . S
C52 C53 1.310 . S
C52 C55 1.461 . S
C52 H72 0.932 . S
C53 C51 1.408 . S
C53 C52 1.310 . S
C53 H73 0.930 . S
C54 C55 1.474 . S
C54 C56 1.285 . S
C54 H74 0.929 . S
C55 C52 1.461 . S
C55 C54 1.474 . S
C56 C51 1.342 . S
C56 C54 1.285 . S
C56 H75 0.930 . S
C57 C60 1.424 . S
C57 C62 1.245 . S
C57 C63 1.428 . S
C58 C61 1.260 . S
C58 C62 1.477 . S
C58 H76 0.932 . S
C59 C60 1.384 . S
C59 C61 1.479 . S
C59 H77 0.929 . S
C60 C57 1.424 . S
C60 C59 1.384 . S
C60 H78 0.928 . S
C61 C58 1.260 . S
C61 C59 1.479 . S
C62 C57 1.245 . S
C62 C58 1.477 . S
C62 H79 0.932 . S
C63 U46 2.882 . S
C63 C57 1.428 . S
C63 O66 1.301 . S
C63 O67 1.282 . S
O64 U46 2.441 . S
O64 C50 1.249 . S
O65 U46 2.420 . S
O65 C50 1.202 . S
O66 U46 2.455 . S
O66 C63 1.301 . S
O67 U46 2.449 . S
O67 C63 1.282 . S
H68 C41 0.931 . S
H69 C43 0.929 . S
H70 C44 0.930 . S
H71 C45 0.931 . S
H72 C52 0.932 . S
H73 C53 0.930 . S
H74 C54 0.929 . S
H75 C56 0.930 . S
H76 C58 0.932 . S
H77 C59 0.929 . S
H78 C60 0.928 . S
H79 C62 0.932 . S
C80 C81 1.264 . S
C80 C85 1.479 . S
C80 C90 1.465 . S
C81 C80 1.264 . S
C81 C83 1.339 . S
C81 H108 0.931 . S
C82 C83 1.395 . S
C82 C84 1.320 . S
C83 C81 1.339 . S
C83 C82 1.395 . S
C83 H109 0.929 . S
C84 C82 1.320 . S
C84 C85 1.405 . S
C84 H110 0.930 . S
C85 C80 1.479 . S
C85 C84 1.405 . S
C85 H111 0.931 . S
U86 O87 2.454 . S
U86 O88 2.458 1_554 S
U86 C89 2.984 . S
U86 C90 2.847 . S
U86 C103 2.882 1_554 S
U86 O104 2.441 . S
U86 O105 2.420 . S
U86 O106 2.455 1_554 S
U86 O107 2.449 1_554 S
O87 U86 2.454 . S
O87 C89 1.353 . S
O88 U86 2.458 1_556 S
O88 C89 1.286 1_556 S
C89 U86 2.984 . S
C89 O87 1.353 . S
C89 O88 1.286 1_554 S
C89 C91 1.363 . S
C90 C80 1.465 . S
C90 U86 2.847 . S
C90 O104 1.249 . S
C90 O105 1.202 . S
C91 C89 1.363 . S
C91 C93 1.408 . S
C91 C96 1.342 1_554 S
C92 C93 1.310 . S
C92 C95 1.461 . S
C92 H112 0.932 . S
C93 C91 1.408 . S
C93 C92 1.310 . S
C93 H113 0.930 . S
C94 C95 1.474 1_556 S
C94 C96 1.285 . S
C94 H114 0.929 . S
C95 C92 1.461 . S
C95 C94 1.474 1_554 S
C96 C91 1.342 1_556 S
C96 C94 1.285 . S
C96 H115 0.930 . S
C97 C100 1.424 . S
C97 C102 1.245 . S
C97 C103 1.428 . S
C98 C101 1.260 . S
C98 C102 1.477 . S
C98 H116 0.932 . S
C99 C100 1.384 . S
C99 C101 1.479 . S
C99 H117 0.929 . S
C100 C97 1.424 . S
C100 C99 1.384 . S
C100 H118 0.928 . S
C101 C98 1.260 . S
C101 C99 1.479 . S
C102 C97 1.245 . S
C102 C98 1.477 . S
C102 H119 0.932 . S
C103 U86 2.882 1_556 S
C103 C97 1.428 . S
C103 O106 1.301 . S
C103 O107 1.282 . S
O104 U86 2.441 . S
O104 C90 1.249 . S
O105 U86 2.420 . S
O105 C90 1.202 . S
O106 U86 2.455 1_556 S
O106 C103 1.301 . S
O107 U86 2.449 1_556 S
O107 C103 1.282 . S
H108 C81 0.931 . S
H109 C83 0.929 . S
H110 C84 0.930 . S
H111 C85 0.931 . S
H112 C92 0.932 . S
H113 C93 0.930 . S
H114 C94 0.929 . S
H115 C96 0.930 . S
H116 C98 0.932 . S
H117 C99 0.929 . S
H118 C100 0.928 . S
H119 C102 0.932 . S
C120 C121 1.264 . S
C120 C125 1.479 . S
C120 C130 1.465 . S
C121 C120 1.264 . S
C121 C123 1.339 . S
C121 H148 0.931 . S
C122 C123 1.395 . S
C122 C124 1.320 . S
C123 C121 1.339 . S
C123 C122 1.395 . S
C123 H149 0.929 . S
C124 C122 1.320 . S
C124 C125 1.405 . S
C124 H150 0.930 . S
C125 C120 1.479 . S
C125 C124 1.405 . S
C125 H151 0.931 . S
U126 O127 2.454 . S
U126 O128 2.458 . S
U126 C129 2.984 . S
U126 C130 2.847 . S
U126 C143 2.882 . S
U126 O144 2.441 . S
U126 O145 2.420 . S
U126 O146 2.455 . S
U126 O147 2.449 . S
O127 U126 2.454 . S
O127 C129 1.353 . S
O128 U126 2.458 . S
O128 C129 1.286 . S
C129 U126 2.984 . S
C129 O127 1.353 . S
C129 O128 1.286 . S
C129 C131 1.363 . S
C130 C120 1.465 . S
C130 U126 2.847 . S
C130 O144 1.249 . S
C130 O145 1.202 . S
C131 C129 1.363 . S
C131 C133 1.408 . S
C131 C136 1.342 . S
C132 C133 1.310 . S
C132 C135 1.461 . S
C132 H152 0.932 . S
C133 C131 1.408 . S
C133 C132 1.310 . S
C133 H153 0.930 . S
C134 C135 1.474 . S
C134 C136 1.285 . S
C134 H154 0.929 . S
C135 C132 1.461 . S
C135 C134 1.474 . S
C136 C131 1.342 . S
C136 C134 1.285 . S
C136 H155 0.930 . S
C137 C140 1.424 . S
C137 C142 1.245 . S
C137 C143 1.428 . S
C138 C141 1.260 . S
C138 C142 1.477 . S
C138 H156 0.932 . S
C139 C140 1.384 . S
C139 C141 1.479 . S
C139 H157 0.929 . S
C140 C137 1.424 . S
C140 C139 1.384 . S
C140 H158 0.928 . S
C141 C138 1.260 . S
C141 C139 1.479 . S
C142 C137 1.245 . S
C142 C138 1.477 . S
C142 H159 0.932 . S
C143 U126 2.882 . S
C143 C137 1.428 . S
C143 O146 1.301 . S
C143 O147 1.282 . S
O144 U126 2.441 . S
O144 C130 1.249 . S
O145 U126 2.420 . S
O145 C130 1.202 . S
O146 U126 2.455 . S
O146 C143 1.301 . S
O147 U126 2.449 . S
O147 C143 1.282 . S
H148 C121 0.931 . S
H149 C123 0.929 . S
H150 C124 0.930 . S
H151 C125 0.931 . S
H152 C132 0.932 . S
H153 C133 0.930 . S
H154 C134 0.929 . S
H155 C136 0.930 . S
H156 C138 0.932 . S
H157 C139 0.929 . S
H158 C140 0.928 . S
H159 C142 0.932 . S
C160 O176 1.251 . S
C160 O178 1.254 1_455 S
N161 C162 1.333 . S
N161 C166 1.307 . S
N161 Zn167 2.020 . S
C162 N161 1.333 . S
C162 C163 1.379 . S
C162 H180 0.952 . S
C163 C162 1.379 . S
C163 C164 1.390 . S
C163 H190 0.949 . S
C164 C163 1.390 . S
C164 C165 1.357 . S
C165 C164 1.357 . S
C165 C166 1.370 . S
C165 H191 0.950 . S
C166 N161 1.307 . S
C166 C165 1.370 . S
C166 H184 0.948 . S
Zn167 N161 2.020 . S
Zn167 O176 2.039 1_545 S
Zn167 O182 2.034 1_545 S
Zn167 O186 2.025 . S
Zn167 O188 2.024 . S
C168 O187 1.246 . S
C168 O188 1.249 1_655 S
N169 C170 1.307 . S
N169 C171 1.333 . S
N169 Zn175 2.020 . S
C170 N169 1.307 . S
C170 C174 1.370 . S
C170 H181 0.948 . S
C171 N169 1.333 . S
C171 C172 1.379 . S
C171 H179 0.952 . S
C172 C171 1.379 . S
C172 C173 1.390 . S
C172 H192 0.949 . S
C173 C172 1.390 . S
C173 C174 1.357 . S
C174 C170 1.370 . S
C174 C173 1.357 . S
C174 H193 0.950 . S
Zn175 N169 2.020 . S
Zn175 O178 2.025 . S
Zn175 O183 2.024 . S
Zn175 O185 2.039 1_565 S
Zn175 O187 2.034 1_565 S
O176 C160 1.251 . S
O176 Zn167 2.039 1_565 S
C177 O182 1.246 . S
C177 O183 1.249 1_455 S
O178 C160 1.254 1_655 S
O178 Zn175 2.025 . S
H179 C171 0.952 . S
H180 C162 0.952 . S
H181 C170 0.948 . S
O182 Zn167 2.034 1_565 S
O182 C177 1.246 . S
O183 Zn175 2.024 . S
O183 C177 1.249 1_655 S
H184 C166 0.948 . S
O185 Zn175 2.039 1_545 S
O185 C189 1.251 . S
O186 Zn167 2.025 . S
O186 C189 1.254 1_455 S
O187 C168 1.246 . S
O187 Zn175 2.034 1_545 S
O188 Zn167 2.024 . S
O188 C168 1.249 1_455 S
C189 O185 1.251 . S
C189 O186 1.254 1_655 S
H190 C163 0.949 . S
H191 C165 0.950 . S
H192 C172 0.949 . S
H193 C174 0.950 . S
C194 O210 1.251 . S
C194 O212 1.254 . S
N195 C196 1.333 1_554 S
N195 C200 1.307 . S
N195 Zn201 2.020 . S
C196 N195 1.333 1_556 S
C196 C197 1.379 . S
C196 H214 0.952 . S
C197 C196 1.379 . S
C197 C198 1.390 1_556 S
C197 H224 0.949 . S
C198 C197 1.390 1_554 S
C198 C199 1.357 . S
C199 C198 1.357 . S
C199 C200 1.370 . S
C199 H225 0.950 . S
C200 N195 1.307 . S
C200 C199 1.370 . S
C200 H218 0.948 . S
Zn201 N195 2.020 . S
Zn201 O210 2.039 1_554 S
Zn201 O216 2.034 . S
Zn201 O220 2.025 . S
Zn201 O222 2.024 1_554 S
C202 O221 1.246 . S
C202 O222 1.249 . S
N203 C204 1.307 1_554 S
N203 C205 1.333 . S
N203 Zn209 2.020 . S
C204 N203 1.307 1_556 S
C204 C208 1.370 . S
C204 H215 0.948 . S
C205 N203 1.333 . S
C205 C206 1.379 . S
C205 H213 0.952 . S
C206 C205 1.379 . S
C206 C207 1.390 . S
C206 H226 0.949 . S
C207 C206 1.390 . S
C207 C208 1.357 1_554 S
C208 C204 1.370 . S
C208 C207 1.357 1_556 S
C208 H227 0.950 . S
Zn209 N203 2.020 . S
Zn209 O212 2.025 1_554 S
Zn209 O217 2.024 . S
Zn209 O219 2.039 . S
Zn209 O221 2.034 1_554 S
O210 C194 1.251 . S
O210 Zn201 2.039 1_556 S
C211 O216 1.246 . S
C211 O217 1.249 . S
O212 C194 1.254 . S
O212 Zn209 2.025 1_556 S
H213 C205 0.952 . S
H214 C196 0.952 . S
H215 C204 0.948 . S
O216 Zn201 2.034 . S
O216 C211 1.246 . S
O217 Zn209 2.024 . S
O217 C211 1.249 . S
H218 C200 0.948 . S
O219 Zn209 2.039 . S
O219 C223 1.251 . S
O220 Zn201 2.025 . S
O220 C223 1.254 . S
O221 C202 1.246 . S
O221 Zn209 2.034 1_556 S
O222 Zn201 2.024 1_556 S
O222 C202 1.249 . S
C223 O219 1.251 . S
C223 O220 1.254 . S
H224 C197 0.949 . S
H225 C199 0.950 . S
H226 C206 0.949 . S
H227 C208 0.950 . S
C228 C229 1.387 . S
C228 H232 0.950 . S
C228 C237 1.390 . S
C229 C228 1.387 . S
C229 C231 1.387 . S
H230 C237 0.950 . S
C231 C229 1.387 . S
C231 C233 1.390 . S
C231 H235 0.950 . S
H232 C228 0.950 . S
C233 C231 1.390 . S
C233 C234 1.387 . S
C233 H236 0.950 . S
C234 C233 1.387 . S
C234 C237 1.387 . S
H235 C231 0.950 . S
H236 C233 0.950 . S
C237 C228 1.390 . S
C237 H230 0.950 . S
C237 C234 1.387 . S
C238 C239 1.387 . S
C238 H242 0.950 . S
C238 C247 1.390 . S
C239 C238 1.387 . S
C239 C241 1.387 1_554 S
H240 C247 0.950 . S
C241 C239 1.387 1_556 S
C241 C243 1.390 . S
C241 H245 0.950 . S
H242 C238 0.950 . S
C243 C241 1.390 . S
C243 C244 1.387 1_556 S
C243 H246 0.950 . S
C244 C243 1.387 1_554 S
C244 C247 1.387 . S
H245 C241 0.950 . S
H246 C243 0.950 . S
C247 C238 1.390 . S
C247 H240 0.950 . S
C247 C244 1.387 . S
C248 C249 1.387 . S
C248 H252 0.950 . S
C248 C257 1.390 . S
C249 C248 1.387 . S
C249 C251 1.387 . S
H250 C257 0.950 . S
C251 C249 1.387 . S
C251 C253 1.390 . S
C251 H255 0.950 . S
H252 C248 0.950 . S
C253 C251 1.390 . S
C253 C254 1.387 . S
C253 H256 0.950 . S
C254 C253 1.387 . S
C254 C257 1.387 . S
H255 C251 0.950 . S
H256 C253 0.950 . S
C257 C248 1.390 . S
C257 H250 0.950 . S
C257 C254 1.387 . S
C258 C259 1.387 . S
C258 H262 0.950 . S
C258 C267 1.390 . S
C259 C258 1.387 . S
C259 C261 1.387 1_554 S
H260 C267 0.950 . S
C261 C259 1.387 1_556 S
C261 C263 1.390 . S
C261 H265 0.950 . S
H262 C258 0.950 . S
C263 C261 1.390 . S
C263 C264 1.387 1_556 S
C263 H266 0.950 . S
C264 C263 1.387 1_554 S
C264 C267 1.387 . S
H265 C261 0.950 . S
H266 C263 0.950 . S
C267 C258 1.390 . S
C267 H260 0.950 . S
C267 C264 1.387 . S
C268 C269 1.387 . S
C268 H272 0.950 1_455 S
C268 C277 1.390 . S
C269 C268 1.387 . S
C269 C271 1.387 . S
H270 C277 0.950 1_655 S
C271 C269 1.387 . S
C271 C273 1.390 . S
C271 H275 0.950 . S
H272 C268 0.950 1_655 S
C273 C271 1.390 . S
C273 C274 1.387 . S
C273 H276 0.950 . S
C274 C273 1.387 . S
C274 C277 1.387 . S
H275 C271 0.950 . S
H276 C273 0.950 . S
C277 C268 1.390 . S
C277 H270 0.950 1_455 S
C277 C274 1.387 . S
C278 C279 1.387 . S
C278 H282 0.950 . S
C278 C287 1.390 . S
C279 C278 1.387 . S
C279 C281 1.387 . S
H280 C287 0.950 . S
C281 C279 1.387 . S
C281 C283 1.390 . S
C281 H285 0.950 . S
H282 C278 0.950 . S
C283 C281 1.390 . S
C283 C284 1.387 . S
C283 H286 0.950 . S
C284 C283 1.387 . S
C284 C287 1.387 . S
H285 C281 0.950 . S
H286 C283 0.950 . S
C287 C278 1.390 . S
C287 H280 0.950 . S
C287 C284 1.387 . S
C288 C289 1.387 . S
C288 H292 0.950 1_655 S
C288 C297 1.390 . S
C289 C288 1.387 . S
C289 C291 1.387 . S
H290 C297 0.950 1_455 S
C291 C289 1.387 . S
C291 C293 1.390 . S
C291 H295 0.950 . S
H292 C288 0.950 1_455 S
C293 C291 1.390 . S
C293 C294 1.387 . S
C293 H296 0.950 . S
C294 C293 1.387 . S
C294 C297 1.387 . S
H295 C291 0.950 . S
H296 C293 0.950 . S
C297 C288 1.390 . S
C297 H290 0.950 1_655 S
C297 C294 1.387 . S
C298 C299 1.387 . S
C298 H302 0.950 . S
C298 C307 1.390 . S
C299 C298 1.387 . S
C299 C301 1.387 . S
H300 C307 0.950 . S
C301 C299 1.387 . S
C301 C303 1.390 . S
C301 H305 0.950 . S
H302 C298 0.950 . S
C303 C301 1.390 . S
C303 C304 1.387 . S
C303 H306 0.950 . S
C304 C303 1.387 . S
C304 C307 1.387 . S
H305 C301 0.950 . S
H306 C303 0.950 . S
C307 C298 1.390 . S
C307 H300 0.950 . S
C307 C304 1.387 . S
C308 C309 1.387 . S
C308 H312 0.950 . S
C308 C317 1.390 . S
C309 C308 1.387 . S
C309 C311 1.387 . S
H310 C317 0.950 . S
C311 C309 1.387 . S
C311 C313 1.390 . S
C311 H315 0.950 . S
H312 C308 0.950 . S
C313 C311 1.390 . S
C313 C314 1.387 . S
C313 H316 0.950 . S
C314 C313 1.387 . S
C314 C317 1.387 . S
H315 C311 0.950 . S
H316 C313 0.950 . S
C317 C308 1.390 . S
C317 H310 0.950 . S
C317 C314 1.387 . S
C318 C319 1.387 . S
C318 H322 0.950 . S
C318 C327 1.390 . S
C319 C318 1.387 . S
C319 C321 1.387 . S
H320 C327 0.950 . S
C321 C319 1.387 . S
C321 C323 1.392 . S
C321 H325 0.950 1_655 S
H322 C318 0.950 . S
C323 C321 1.392 . S
C323 C324 1.398 . S
C323 H326 0.938 1_655 S
C324 C323 1.398 . S
C324 C327 1.387 . S
H325 C321 0.950 1_455 S
H326 C323 0.938 1_455 S
C327 C318 1.390 . S
C327 H320 0.950 . S
C327 C324 1.387 . S
C328 C329 1.387 . S
C328 H332 0.950 . S
C328 C337 1.390 . S
C329 C328 1.387 . S
C329 C331 1.387 . S
H330 C337 0.950 . S
C331 C329 1.387 . S
C331 C333 1.390 . S
C331 H335 0.950 . S
H332 C328 0.950 . S
C333 C331 1.390 . S
C333 C334 1.387 . S
C333 H336 0.950 . S
C334 C333 1.387 . S
C334 C337 1.387 . S
H335 C331 0.950 . S
H336 C333 0.950 . S
C337 C328 1.390 . S
C337 H330 0.950 . S
C337 C334 1.387 . S
C338 C339 1.387 . S
C338 H342 0.950 1_455 S
C338 C347 1.390 . S
C339 C338 1.387 . S
C339 C341 1.387 . S
H340 C347 0.950 1_655 S
C341 C339 1.387 . S
C341 C343 1.390 . S
C341 H345 0.950 . S
H342 C338 0.950 1_655 S
C343 C341 1.390 . S
C343 C344 1.387 . S
C343 H346 0.950 . S
C344 C343 1.387 . S
C344 C347 1.387 . S
H345 C341 0.950 . S
H346 C343 0.950 . S
C347 C338 1.390 . S
C347 H340 0.950 1_455 S
C347 C344 1.387 . S
C234 C164 1.735 . S
C229 C135 1.678 . S
C239 C15 1.603 . S
C244 C207 1.625 . S
C249 C55 1.688 . S
C254 C173 1.733 . S
C259 C95 1.604 . S
C264 C198 1.628 . S
C274 C160 1.712 . S
C269 C2 1.603 . S
C284 C202 1.847 . S
C279 C42 1.840 . S
C289 C82 1.595 . S
C294 C168 1.691 . S
C299 C141 1.676 . S
C304 C194 1.841 . S
C314 C223 1.861 . S
C309 C61 1.842 . S
C324 C189 1.753 . S
C319 C101 1.623 . S
C334 C211 1.868 . S
C329 C122 1.726 . S
C339 C21 1.619 . S
C344 C177 1.731 . S
