# Generated by pormake.
# Topology ibd, (4,6)-cn, num edge types: 1
# Building blocks:
#     Node 0, Type 0, BuildingBlock: QUQFOY_clean_sbu_3, # of connection points: 4
#     Node 1, Type 0, BuildingBlock: QUQFOY_clean_sbu_3, # of connection points: 4
#     Node 2, Type 0, BuildingBlock: QUQFOY_clean_sbu_3, # of connection points: 4
#     Node 3, Type 0, BuildingBlock: QUQFOY_clean_sbu_3, # of connection points: 4
#     Node 4, Type 0, BuildingBlock: QUQFOY_clean_sbu_3, # of connection points: 4
#     Node 5, Type 0, BuildingBlock: QUQFOY_clean_sbu_3, # of connection points: 4
#     Node 6, Type 0, BuildingBlock: QUQFOY_clean_sbu_3, # of connection points: 4
#     Node 7, Type 0, BuildingBlock: QUQFOY_clean_sbu_3, # of connection points: 4
#     Node 8, Type 0, BuildingBlock: QUQFOY_clean_sbu_3, # of connection points: 4
#     Node 9, Type 0, BuildingBlock: QUQFOY_clean_sbu_3, # of connection points: 4
#     Node 10, Type 0, BuildingBlock: QUQFOY_clean_sbu_3, # of connection points: 4
#     Node 11, Type 0, BuildingBlock: QUQFOY_clean_sbu_3, # of connection points: 4
#     Node 12, Type 0, BuildingBlock: QUQFOY_clean_sbu_3, # of connection points: 4
#     Node 13, Type 0, BuildingBlock: QUQFOY_clean_sbu_3, # of connection points: 4
#     Node 14, Type 0, BuildingBlock: QUQFOY_clean_sbu_3, # of connection points: 4
#     Node 15, Type 0, BuildingBlock: QUQFOY_clean_sbu_3, # of connection points: 4
#     Node 16, Type 0, BuildingBlock: QUQFOY_clean_sbu_3, # of connection points: 4
#     Node 17, Type 0, BuildingBlock: QUQFOY_clean_sbu_3, # of connection points: 4
#     Node 18, Type 0, BuildingBlock: QUQFOY_clean_sbu_3, # of connection points: 4
#     Node 19, Type 0, BuildingBlock: QUQFOY_clean_sbu_3, # of connection points: 4
#     Node 20, Type 0, BuildingBlock: QUQFOY_clean_sbu_3, # of connection points: 4
#     Node 21, Type 0, BuildingBlock: QUQFOY_clean_sbu_3, # of connection points: 4
#     Node 22, Type 0, BuildingBlock: QUQFOY_clean_sbu_3, # of connection points: 4
#     Node 23, Type 0, BuildingBlock: QUQFOY_clean_sbu_3, # of connection points: 4
#     Node 24, Type 1, BuildingBlock: IZENUY_clean_sbu_0, # of connection points: 6
#     Node 25, Type 1, BuildingBlock: IZENUY_clean_sbu_0, # of connection points: 6
#     Node 26, Type 1, BuildingBlock: IZENUY_clean_sbu_0, # of connection points: 6
#     Node 27, Type 1, BuildingBlock: IZENUY_clean_sbu_0, # of connection points: 6
#     Node 28, Type 1, BuildingBlock: IZENUY_clean_sbu_0, # of connection points: 6
#     Node 29, Type 1, BuildingBlock: IZENUY_clean_sbu_0, # of connection points: 6
#     Node 30, Type 1, BuildingBlock: IZENUY_clean_sbu_0, # of connection points: 6
#     Node 31, Type 1, BuildingBlock: IZENUY_clean_sbu_0, # of connection points: 6
#     Node 32, Type 1, BuildingBlock: IZENUY_clean_sbu_0, # of connection points: 6
#     Node 33, Type 1, BuildingBlock: IZENUY_clean_sbu_0, # of connection points: 6
#     Node 34, Type 1, BuildingBlock: IZENUY_clean_sbu_0, # of connection points: 6
#     Node 35, Type 1, BuildingBlock: IZENUY_clean_sbu_0, # of connection points: 6
#     Node 36, Type 1, BuildingBlock: IZENUY_clean_sbu_0, # of connection points: 6
#     Node 37, Type 1, BuildingBlock: IZENUY_clean_sbu_0, # of connection points: 6
#     Node 38, Type 1, BuildingBlock: IZENUY_clean_sbu_0, # of connection points: 6
#     Node 39, Type 1, BuildingBlock: IZENUY_clean_sbu_0, # of connection points: 6
#     Edge 40, Type (0, 1), BuildingBlock: OJICUG_clean_linker_0, # of connection points: 2
#     Edge 41, Type (0, 1), BuildingBlock: OJICUG_clean_linker_0, # of connection points: 2
#     Edge 42, Type (0, 1), BuildingBlock: OJICUG_clean_linker_0, # of connection points: 2
#     Edge 43, Type (0, 1), BuildingBlock: OJICUG_clean_linker_0, # of connection points: 2
#     Edge 44, Type (0, 1), BuildingBlock: OJICUG_clean_linker_0, # of connection points: 2
#     Edge 45, Type (0, 1), BuildingBlock: OJICUG_clean_linker_0, # of connection points: 2
#     Edge 46, Type (0, 1), BuildingBlock: OJICUG_clean_linker_0, # of connection points: 2
#     Edge 47, Type (0, 1), BuildingBlock: OJICUG_clean_linker_0, # of connection points: 2
#     Edge 48, Type (0, 1), BuildingBlock: OJICUG_clean_linker_0, # of connection points: 2
#     Edge 49, Type (0, 1), BuildingBlock: OJICUG_clean_linker_0, # of connection points: 2
#     Edge 50, Type (0, 1), BuildingBlock: OJICUG_clean_linker_0, # of connection points: 2
#     Edge 51, Type (0, 1), BuildingBlock: OJICUG_clean_linker_0, # of connection points: 2
#     Edge 52, Type (0, 1), BuildingBlock: OJICUG_clean_linker_0, # of connection points: 2
#     Edge 53, Type (0, 1), BuildingBlock: OJICUG_clean_linker_0, # of connection points: 2
#     Edge 54, Type (0, 1), BuildingBlock: OJICUG_clean_linker_0, # of connection points: 2
#     Edge 55, Type (0, 1), BuildingBlock: OJICUG_clean_linker_0, # of connection points: 2
#     Edge 56, Type (0, 1), BuildingBlock: OJICUG_clean_linker_0, # of connection points: 2
#     Edge 57, Type (0, 1), BuildingBlock: OJICUG_clean_linker_0, # of connection points: 2
#     Edge 58, Type (0, 1), BuildingBlock: OJICUG_clean_linker_0, # of connection points: 2
#     Edge 59, Type (0, 1), BuildingBlock: OJICUG_clean_linker_0, # of connection points: 2
#     Edge 60, Type (0, 1), BuildingBlock: OJICUG_clean_linker_0, # of connection points: 2
#     Edge 61, Type (0, 1), BuildingBlock: OJICUG_clean_linker_0, # of connection points: 2
#     Edge 62, Type (0, 1), BuildingBlock: OJICUG_clean_linker_0, # of connection points: 2
#     Edge 63, Type (0, 1), BuildingBlock: OJICUG_clean_linker_0, # of connection points: 2
#     Edge 64, Type (0, 1), BuildingBlock: OJICUG_clean_linker_0, # of connection points: 2
#     Edge 65, Type (0, 1), BuildingBlock: OJICUG_clean_linker_0, # of connection points: 2
#     Edge 66, Type (0, 1), BuildingBlock: OJICUG_clean_linker_0, # of connection points: 2
#     Edge 67, Type (0, 1), BuildingBlock: OJICUG_clean_linker_0, # of connection points: 2
#     Edge 68, Type (0, 1), BuildingBlock: OJICUG_clean_linker_0, # of connection points: 2
#     Edge 69, Type (0, 1), BuildingBlock: OJICUG_clean_linker_0, # of connection points: 2
#     Edge 70, Type (0, 1), BuildingBlock: OJICUG_clean_linker_0, # of connection points: 2
#     Edge 71, Type (0, 1), BuildingBlock: OJICUG_clean_linker_0, # of connection points: 2
#     Edge 72, Type (0, 1), BuildingBlock: OJICUG_clean_linker_0, # of connection points: 2
#     Edge 73, Type (0, 1), BuildingBlock: OJICUG_clean_linker_0, # of connection points: 2
#     Edge 74, Type (0, 1), BuildingBlock: OJICUG_clean_linker_0, # of connection points: 2
#     Edge 75, Type (0, 1), BuildingBlock: OJICUG_clean_linker_0, # of connection points: 2
#     Edge 76, Type (0, 1), BuildingBlock: OJICUG_clean_linker_0, # of connection points: 2
#     Edge 77, Type (0, 1), BuildingBlock: OJICUG_clean_linker_0, # of connection points: 2
#     Edge 78, Type (0, 1), BuildingBlock: OJICUG_clean_linker_0, # of connection points: 2
#     Edge 79, Type (0, 1), BuildingBlock: OJICUG_clean_linker_0, # of connection points: 2
#     Edge 80, Type (0, 1), BuildingBlock: OJICUG_clean_linker_0, # of connection points: 2
#     Edge 81, Type (0, 1), BuildingBlock: OJICUG_clean_linker_0, # of connection points: 2
#     Edge 82, Type (0, 1), BuildingBlock: OJICUG_clean_linker_0, # of connection points: 2
#     Edge 83, Type (0, 1), BuildingBlock: OJICUG_clean_linker_0, # of connection points: 2
#     Edge 84, Type (0, 1), BuildingBlock: OJICUG_clean_linker_0, # of connection points: 2
#     Edge 85, Type (0, 1), BuildingBlock: OJICUG_clean_linker_0, # of connection points: 2
#     Edge 86, Type (0, 1), BuildingBlock: OJICUG_clean_linker_0, # of connection points: 2
#     Edge 87, Type (0, 1), BuildingBlock: OJICUG_clean_linker_0, # of connection points: 2
#     Edge 88, Type (0, 1), BuildingBlock: OJICUG_clean_linker_0, # of connection points: 2
#     Edge 89, Type (0, 1), BuildingBlock: OJICUG_clean_linker_0, # of connection points: 2
#     Edge 90, Type (0, 1), BuildingBlock: OJICUG_clean_linker_0, # of connection points: 2
#     Edge 91, Type (0, 1), BuildingBlock: OJICUG_clean_linker_0, # of connection points: 2
#     Edge 92, Type (0, 1), BuildingBlock: OJICUG_clean_linker_0, # of connection points: 2
#     Edge 93, Type (0, 1), BuildingBlock: OJICUG_clean_linker_0, # of connection points: 2
#     Edge 94, Type (0, 1), BuildingBlock: OJICUG_clean_linker_0, # of connection points: 2
#     Edge 95, Type (0, 1), BuildingBlock: OJICUG_clean_linker_0, # of connection points: 2
#     Edge 96, Type (0, 1), BuildingBlock: OJICUG_clean_linker_0, # of connection points: 2
#     Edge 97, Type (0, 1), BuildingBlock: OJICUG_clean_linker_0, # of connection points: 2
#     Edge 98, Type (0, 1), BuildingBlock: OJICUG_clean_linker_0, # of connection points: 2
#     Edge 99, Type (0, 1), BuildingBlock: OJICUG_clean_linker_0, # of connection points: 2
#     Edge 100, Type (0, 1), BuildingBlock: OJICUG_clean_linker_0, # of connection points: 2
#     Edge 101, Type (0, 1), BuildingBlock: OJICUG_clean_linker_0, # of connection points: 2
#     Edge 102, Type (0, 1), BuildingBlock: OJICUG_clean_linker_0, # of connection points: 2
#     Edge 103, Type (0, 1), BuildingBlock: OJICUG_clean_linker_0, # of connection points: 2
#     Edge 104, Type (0, 1), BuildingBlock: OJICUG_clean_linker_0, # of connection points: 2
#     Edge 105, Type (0, 1), BuildingBlock: OJICUG_clean_linker_0, # of connection points: 2
#     Edge 106, Type (0, 1), BuildingBlock: OJICUG_clean_linker_0, # of connection points: 2
#     Edge 107, Type (0, 1), BuildingBlock: OJICUG_clean_linker_0, # of connection points: 2
#     Edge 108, Type (0, 1), BuildingBlock: OJICUG_clean_linker_0, # of connection points: 2
#     Edge 109, Type (0, 1), BuildingBlock: OJICUG_clean_linker_0, # of connection points: 2
#     Edge 110, Type (0, 1), BuildingBlock: OJICUG_clean_linker_0, # of connection points: 2
#     Edge 111, Type (0, 1), BuildingBlock: OJICUG_clean_linker_0, # of connection points: 2
#     Edge 112, Type (0, 1), BuildingBlock: OJICUG_clean_linker_0, # of connection points: 2
#     Edge 113, Type (0, 1), BuildingBlock: OJICUG_clean_linker_0, # of connection points: 2
#     Edge 114, Type (0, 1), BuildingBlock: OJICUG_clean_linker_0, # of connection points: 2
#     Edge 115, Type (0, 1), BuildingBlock: OJICUG_clean_linker_0, # of connection points: 2
#     Edge 116, Type (0, 1), BuildingBlock: OJICUG_clean_linker_0, # of connection points: 2
#     Edge 117, Type (0, 1), BuildingBlock: OJICUG_clean_linker_0, # of connection points: 2
#     Edge 118, Type (0, 1), BuildingBlock: OJICUG_clean_linker_0, # of connection points: 2
#     Edge 119, Type (0, 1), BuildingBlock: OJICUG_clean_linker_0, # of connection points: 2
#     Edge 120, Type (0, 1), BuildingBlock: OJICUG_clean_linker_0, # of connection points: 2
#     Edge 121, Type (0, 1), BuildingBlock: OJICUG_clean_linker_0, # of connection points: 2
#     Edge 122, Type (0, 1), BuildingBlock: OJICUG_clean_linker_0, # of connection points: 2
#     Edge 123, Type (0, 1), BuildingBlock: OJICUG_clean_linker_0, # of connection points: 2
#     Edge 124, Type (0, 1), BuildingBlock: OJICUG_clean_linker_0, # of connection points: 2
#     Edge 125, Type (0, 1), BuildingBlock: OJICUG_clean_linker_0, # of connection points: 2
#     Edge 126, Type (0, 1), BuildingBlock: OJICUG_clean_linker_0, # of connection points: 2
#     Edge 127, Type (0, 1), BuildingBlock: OJICUG_clean_linker_0, # of connection points: 2
#     Edge 128, Type (0, 1), BuildingBlock: OJICUG_clean_linker_0, # of connection points: 2
#     Edge 129, Type (0, 1), BuildingBlock: OJICUG_clean_linker_0, # of connection points: 2
#     Edge 130, Type (0, 1), BuildingBlock: OJICUG_clean_linker_0, # of connection points: 2
#     Edge 131, Type (0, 1), BuildingBlock: OJICUG_clean_linker_0, # of connection points: 2
#     Edge 132, Type (0, 1), BuildingBlock: OJICUG_clean_linker_0, # of connection points: 2
#     Edge 133, Type (0, 1), BuildingBlock: OJICUG_clean_linker_0, # of connection points: 2
#     Edge 134, Type (0, 1), BuildingBlock: OJICUG_clean_linker_0, # of connection points: 2
#     Edge 135, Type (0, 1), BuildingBlock: OJICUG_clean_linker_0, # of connection points: 2
# Relax obj value: 0.310
# Max RMSD: 0.289
# Mean RMSD: 0.261
data_MOF--net-ibd--node1-QUQFOY_clean_sbu_3--node2-IZENUY_clean_sbu_0--edge1-OJICUG_clean_linker_0
_symmetry_space_group_name_H-M    P1
_symmetry_Int_Tables_number       1
_symmetry_cell_setting            triclinic
loop_
_symmetry_equiv_pos_as_xyz
'x, y, z'
_cell_length_a     37.316301
_cell_length_b     37.210162
_cell_length_c     37.170481
_cell_angle_alpha  90.193009
_cell_angle_beta   90.043639
_cell_angle_gamma 91.227732
loop_
_atom_site_label
_atom_site_type_symbol
_atom_site_fract_x
_atom_site_fract_y
_atom_site_fract_z
_atom_type_partial_charge
C0 C 0.94428 0.17302 0.40711 0.0
O1 O 0.91655 0.18997 0.39816 0.0
Cd2 Cd 0.91713 0.24443 0.36661 0.0
O3 O 0.97498 0.18147 0.39409 0.0
Cd4 Cd -0.00494 0.22391 0.3452 0.0
C5 C -0.01037 0.28541 0.40902 0.0
O6 O 0.94084 0.2286 0.31004 0.0
O7 O 0.97577 0.27537 0.31051 0.0
O8 O 0.03003 0.18039 0.31139 0.0
C9 C 0.94862 0.25919 0.29727 0.0
O10 O 0.95581 0.28407 0.40412 0.0
C11 C 0.05563 0.2025 0.30478 0.0
O12 O 0.01022 0.265 0.3916 0.0
O13 O 0.05389 0.23354 0.31871 0.0
C14 C -0.00771 0.80287 0.54984 0.0
O15 O 0.95849 0.80542 0.55168 0.0
Cd16 Cd 0.9194 0.77923 0.59413 0.0
O17 O 0.00941 0.78346 0.57214 0.0
Cd18 Cd -0.01171 0.74261 0.62157 0.0
C19 C 0.93597 0.69562 0.56514 0.0
O20 O 0.95191 0.78744 0.64807 0.0
O21 O 0.93632 0.73378 0.66324 0.0
O22 O 0.03982 0.74365 0.66338 0.0
C23 C 0.93339 0.76732 0.66821 0.0
O24 O 0.91152 0.71763 0.57298 0.0
C25 C 0.04046 0.70958 0.66626 0.0
O26 O 0.96782 0.70075 0.57617 0.0
O27 O 0.0192 0.6916 0.64618 0.0
C28 C 0.43481 0.70556 0.91839 0.0
O29 O 0.41204 0.72995 0.91378 0.0
Cd30 Cd 0.42826 0.78472 0.88714 0.0
O31 O 0.46565 0.70747 0.90366 0.0
Cd32 Cd 0.49468 0.7467 0.85721 0.0
C33 C 0.51083 0.79749 0.92831 0.0
O34 O 0.44056 0.76381 0.82804 0.0
O35 O 0.48555 0.79991 0.81907 0.0
O36 O 0.50978 0.69258 0.82448 0.0
C37 C 0.45416 0.78948 0.8103 0.0
O38 O 0.47758 0.80448 0.92725 0.0
C39 C 0.54006 0.70456 0.81383 0.0
O40 O 0.52471 0.77741 0.90477 0.0
O41 O 0.54979 0.73566 0.82461 0.0
C42 C 0.46285 0.30356 0.06944 0.0
O43 O 0.42993 0.31133 0.07155 0.0
Cd44 Cd 0.38822 0.28783 0.11367 0.0
O45 O 0.47668 0.28075 0.09069 0.0
Cd46 Cd 0.45367 0.24082 0.13908 0.0
C47 C 0.39438 0.20537 0.07802 0.0
O48 O 0.42475 0.29069 0.1662 0.0
O49 O 0.41157 0.24007 0.19107 0.0
O50 O 0.51245 0.23824 0.16897 0.0
C51 C 0.41081 0.27412 0.1923 0.0
O52 O 0.37287 0.23046 0.08514 0.0
C53 C 0.51078 0.20445 0.17412 0.0
O54 O 0.42501 0.20457 0.09284 0.0
O55 O 0.48357 0.18772 0.16141 0.0
C56 C 0.91992 0.73063 0.16308 0.0
O57 O 0.9108 0.76319 0.16047 0.0
Cd58 Cd 0.93224 0.80518 0.11791 0.0
O59 O 0.94288 0.71719 0.14175 0.0
Cd60 Cd 0.98066 0.74044 0.09237 0.0
C61 C 0.01691 0.80072 0.15026 0.0
O62 O 0.93138 0.76961 0.06514 0.0
O63 O 0.98245 0.78661 0.04389 0.0
O64 O 0.98246 0.68288 0.06005 0.0
C65 C 0.94853 0.78691 0.04154 0.0
O66 O -0.00919 0.82099 0.14313 0.0
C67 C 0.01627 0.68422 0.05566 0.0
O68 O 0.01823 0.76916 0.13737 0.0
O69 O 0.03314 0.71064 0.06984 0.0
C70 C 0.54271 0.78366 0.32255 0.0
O71 O 0.5212 0.8094 0.32575 0.0
Cd72 Cd 0.4647 0.80291 0.35444 0.0
O73 O 0.53659 0.75378 0.33822 0.0
Cd74 Cd 0.49237 0.73188 0.38369 0.0
C75 C 0.43364 0.7225 0.31793 0.0
O76 O 0.47883 0.78769 0.41471 0.0
O77 O 0.4395 0.74482 0.42031 0.0
O78 O 0.54363 0.71241 0.41753 0.0
C79 C 0.45094 0.7756 0.43019 0.0
O80 O 0.43099 0.75652 0.32032 0.0
C81 C 0.5298 0.68232 0.42652 0.0
O82 O 0.45584 0.70595 0.33732 0.0
O83 O 0.49861 0.67474 0.41473 0.0
C84 C 0.42554 0.18439 0.66491 0.0
O85 O 0.40484 0.21073 0.66124 0.0
Cd86 Cd 0.42351 0.26543 0.63361 0.0
O87 O 0.45571 0.18376 0.64898 0.0
Cd88 Cd 0.48907 0.22 0.60414 0.0
C89 C 0.50757 0.2724 0.67365 0.0
O90 O 0.44098 0.25104 0.57488 0.0
O91 O 0.4929 0.2773 0.57116 0.0
O92 O 0.49406 0.17004 0.56266 0.0
C93 C 0.46004 0.27658 0.56238 0.0
O94 O 0.47618 0.28434 0.66868 0.0
C95 C 0.52777 0.1734 0.55863 0.0
O96 O 0.5194 0.24635 0.65529 0.0
O97 O 0.54379 0.19746 0.57735 0.0
C98 C 0.04152 0.28616 0.81402 0.0
O99 O 0.02143 0.31066 0.82574 0.0
Cd100 Cd 0.96971 0.29703 0.85994 0.0
O101 O 0.03858 0.25412 0.82567 0.0
Cd102 Cd 0.00659 0.22383 0.87574 0.0
C103 C 0.9419 0.21868 0.81588 0.0
O104 O -0.00731 0.27381 0.91404 0.0
O105 O 0.95742 0.22729 0.91865 0.0
O106 O 0.06356 0.2105 0.90122 0.0
C107 C 0.96745 0.25784 0.93057 0.0
O108 O 0.93808 0.25211 0.82209 0.0
C109 C 0.05571 0.1782 0.90939 0.0
O110 O 0.96583 0.20096 0.83188 0.0
O111 O 0.02511 0.16602 0.89965 0.0
C112 C 0.42765 0.90659 0.21252 0.0
O113 O 0.41972 0.88747 0.23967 0.0
Cd114 Cd 0.38259 0.90671 0.28689 0.0
O115 O 0.41366 0.93719 0.20798 0.0
Cd116 Cd 0.3671 0.97047 0.24083 0.0
C117 C 0.42383 -0.01314 0.30759 0.0
O118 O 0.32774 0.92077 0.25682 0.0
O119 O 0.32406 0.96814 0.29003 0.0
O120 O 0.33779 -0.0095 0.18591 0.0
C121 C 0.31008 0.93874 0.27923 0.0
O122 O 0.41736 0.9548 0.31796 0.0
C123 C 0.33269 0.02195 0.19802 0.0
O124 O 0.41004 -0.00144 0.27891 0.0
O125 O 0.34616 0.0298 0.2284 0.0
C126 C 0.2997 0.06354 0.50136 0.0
O127 O 0.30601 0.06266 0.4678 0.0
Cd128 Cd 0.28353 0.10163 0.42323 0.0
O129 O 0.2782 0.08625 0.5146 0.0
Cd130 Cd 0.23996 0.13137 0.4864 0.0
C131 C 0.19836 0.07205 0.43132 0.0
O132 O 0.28823 0.15832 0.45218 0.0
O133 O 0.23566 0.17675 0.4384 0.0
O134 O 0.2392 0.17307 0.53773 0.0
C135 C 0.26938 0.18156 0.437 0.0
O136 O 0.22377 0.07807 0.40923 0.0
C137 C 0.20522 0.17476 0.53817 0.0
O138 O 0.19935 0.08531 0.46278 0.0
O139 O 0.18803 0.15409 0.51679 0.0
C140 C 0.16508 0.91893 0.73506 0.0
O141 O 0.16681 0.91464 0.76891 0.0
Cd142 Cd 0.12786 0.94074 0.8124 0.0
O143 O 0.14181 0.93932 0.72137 0.0
Cd144 Cd 0.09752 0.97924 0.74736 0.0
C145 C 0.15783 0.02458 0.7983 0.0
O146 O 0.06952 0.93522 0.78647 0.0
O147 O 0.05199 -0.01034 0.79375 0.0
O148 O 0.05826 0.97562 0.69474 0.0
C149 C 0.04675 0.95637 0.79938 0.0
O150 O 0.1523 0.0013 0.82274 0.0
C151 C 0.05753 0.00953 0.6909 0.0
O152 O 0.1437 0.02077 0.76748 0.0
O153 O 0.07705 0.02847 0.71187 0.0
C154 C 0.2772 0.81639 0.03461 0.0
O155 O 0.29692 0.82304 0.00751 0.0
Cd156 Cd 0.28014 0.85626 0.9564 0.0
O157 O 0.24588 0.82917 0.0373 0.0
Cd158 Cd 0.21005 0.87234 0.00236 0.0
C159 C 0.20054 0.81172 0.93589 0.0
O160 O 0.26154 0.909 -0.01422 0.0
O161 O 0.21236 0.92271 0.95947 0.0
O162 O 0.19462 0.89751 0.06022 0.0
C163 C 0.24497 0.93039 0.96588 0.0
O164 O 0.23305 0.81923 0.92806 0.0
C165 C 0.16323 0.90626 0.05105 0.0
O166 O 0.1855 0.82661 0.96258 0.0
O167 O 0.15233 0.89563 0.02036 0.0
C168 C 0.27176 0.29978 0.0215 0.0
O169 O 0.30576 0.29899 0.02278 0.0
Cd170 Cd 0.34561 0.34581 0.00271 0.0
O171 O 0.25576 0.3253 0.00573 0.0
Cd172 Cd 0.27764 0.37685 0.96912 0.0
C173 C 0.33282 0.3278 0.91646 0.0
O174 O 0.3142 0.39889 0.01828 0.0
O175 O 0.32076 0.4278 0.96855 0.0
O176 O 0.22179 0.41041 0.97588 0.0
C177 C 0.32544 0.42677 0.00232 0.0
O178 O 0.35735 0.33245 0.93986 0.0
C179 C 0.21894 0.41721 0.94251 0.0
O180 O 0.30148 0.33894 0.92248 0.0
O181 O 0.24204 0.40352 0.92186 0.0
C182 C 0.67652 0.0454 0.03372 0.0
O183 O 0.70063 0.05203 0.05698 0.0
Cd184 Cd 0.75148 0.08834 0.04545 0.0
O185 O 0.67634 0.06171 0.00365 0.0
Cd186 Cd 0.71238 0.11398 0.98037 0.0
C187 C 0.77469 0.05596 0.96147 0.0
O188 O 0.72706 0.14581 0.0356 0.0
O189 O 0.76502 0.15264 -0.00756 0.0
O190 O 0.65804 0.14554 0.96637 0.0
C191 C 0.75315 0.16341 0.02245 0.0
O192 O 0.78172 0.05856 -0.00505 0.0
C193 C 0.67026 0.15944 0.93762 0.0
O194 O 0.74882 0.07294 0.94797 0.0
O195 O 0.70094 0.14967 0.92724 0.0
C196 C 0.17197 0.51418 0.19462 0.0
O197 O 0.17125 0.48707 0.17387 0.0
Cd198 Cd 0.13961 0.43367 0.18851 0.0
O199 O 0.15297 0.51481 0.22311 0.0
Cd200 Cd 0.10557 0.4735 0.24865 0.0
C201 C 0.17048 0.42077 0.27471 0.0
O202 O 0.07943 0.45441 0.1919 0.0
O203 O 0.06741 0.41977 0.23676 0.0
O204 O 0.07187 0.52714 0.26127 0.0
C205 C 0.05986 0.42976 0.20513 0.0
O206 O 0.17095 0.41095 0.24186 0.0
C207 C 0.05757 0.51489 0.28981 0.0
O208 O 0.14901 0.44457 0.28509 0.0
O209 O 0.067 0.48407 0.30014 0.0
C210 C 0.72553 0.80266 0.55757 0.0
O211 O 0.75805 0.80741 0.56682 0.0
Cd212 Cd 0.79956 0.85089 0.54498 0.0
O213 O 0.71135 0.82227 0.53348 0.0
Cd214 Cd 0.73502 0.87157 0.49443 0.0
C215 C 0.79814 0.81862 0.45973 0.0
O216 O 0.76489 0.90314 0.54257 0.0
O217 O 0.78113 0.91975 0.48952 0.0
O218 O 0.68047 0.90658 0.48909 0.0
C219 C 0.78144 0.92564 0.52309 0.0
O220 O 0.81742 0.82626 0.48708 0.0
C221 C 0.68235 0.90906 0.455 0.0
O222 O 0.76621 0.82943 0.45741 0.0
O223 O 0.70644 0.8911 0.43953 0.0
C224 C 0.9313 0.05406 0.14809 0.0
O225 O 0.92906 0.02507 0.13009 0.0
Cd226 Cd 0.89398 0.97387 0.14913 0.0
O227 O 0.91146 0.05878 0.17544 0.0
Cd228 Cd 0.86338 0.02449 0.20584 0.0
C229 C 0.92383 0.9686 0.23618 0.0
O230 O 0.83321 -0.01163 0.15922 0.0
O231 O 0.83036 0.96843 0.21378 0.0
O232 O 0.81746 0.06996 0.20933 0.0
C233 C 0.81927 0.96648 0.18159 0.0
O234 O 0.92078 0.95354 0.20545 0.0
C235 C 0.81599 0.06951 0.24349 0.0
O236 O 0.90812 -0.00225 0.24313 0.0
O237 O 0.83877 0.05057 0.25972 0.0
C238 C 0.16498 0.56892 0.53959 0.0
O239 O 0.18545 0.57434 0.56639 0.0
Cd240 Cd 0.24001 0.60792 0.56366 0.0
O241 O 0.17069 0.58504 0.5099 0.0
Cd242 Cd 0.21304 0.6348 0.49192 0.0
C243 C 0.27709 0.57588 0.485 0.0
O244 O 0.22503 0.6674 0.5482 0.0
O245 O 0.2665 0.66994 0.5079 0.0
O246 O 0.16354 0.66978 0.46969 0.0
C247 C 0.25408 0.68169 0.53727 0.0
O248 O 0.27865 0.5788 0.51915 0.0
C249 C 0.17924 0.67966 0.44098 0.0
O250 O 0.25317 0.59192 0.46724 0.0
O251 O 0.21003 0.66712 0.43502 0.0
C252 C 0.41381 0.50239 0.66022 0.0
O253 O 0.40991 0.46929 0.65239 0.0
Cd254 Cd 0.36456 0.42964 0.67488 0.0
O255 O 0.39269 0.51757 0.6822 0.0
Cd256 Cd 0.34259 0.49671 0.71984 0.0
C257 C 0.3938 0.43585 0.76074 0.0
O258 O 0.3116 0.46399 0.67275 0.0
O259 O 0.2927 0.45301 0.72646 0.0
O260 O 0.30958 0.55291 0.72047 0.0
C261 C 0.28775 0.45025 0.6928 0.0
O262 O 0.38664 0.41454 0.73473 0.0
C263 C 0.30801 0.55431 0.75462 0.0
O264 O 0.38336 0.46805 0.76031 0.0
O265 O 0.32485 0.53063 0.77184 0.0
C266 C 0.66422 0.056 0.69371 0.0
O267 O 0.65676 0.033 0.66947 0.0
Cd268 Cd 0.6186 0.98233 0.67632 0.0
O269 O 0.6488 0.0546 0.72435 0.0
Cd270 Cd 0.59866 0.01401 0.74662 0.0
C271 C 0.65321 0.94612 0.75292 0.0
O272 O 0.5621 0.00615 0.69266 0.0
O273 O 0.56279 0.961 0.72841 0.0
O274 O 0.56416 0.0595 0.77877 0.0
C275 C 0.54834 0.97632 0.7019 0.0
O276 O 0.64737 0.94165 0.71941 0.0
C277 C 0.55699 0.03899 0.80523 0.0
O278 O 0.64084 0.97304 0.76935 0.0
O279 O 0.57136 0.00849 0.80537 0.0
C280 C 0.81044 0.54112 -0.00883 0.0
O281 O 0.81111 0.53797 0.95715 0.0
Cd282 Cd 0.77744 0.57443 0.91687 0.0
O283 O 0.79035 0.56395 0.00611 0.0
Cd284 Cd 0.74684 0.60725 0.98529 0.0
C285 C 0.69362 0.54827 0.94184 0.0
O286 O 0.78373 0.63446 0.93859 0.0
O287 O 0.72837 0.65019 0.93921 0.0
O288 O 0.76125 0.64975 0.03369 0.0
C289 C 0.76 0.65567 0.92774 0.0
O290 O 0.7157 0.55157 0.91593 0.0
C291 C 0.72926 0.65064 0.0452 0.0
O292 O 0.70018 0.56262 0.97219 0.0
O293 O 0.70643 0.62981 0.0301 0.0
C294 C 0.90037 0.41122 0.72364 0.0
O295 O 0.89795 0.38847 0.7489 0.0
Cd296 Cd 0.87187 0.40511 0.80431 0.0
O297 O 0.886 0.44182 0.72657 0.0
Cd298 Cd 0.84588 0.47181 0.76986 0.0
C299 C 0.91711 0.48449 0.82216 0.0
O300 O 0.81136 0.41842 0.78612 0.0
O301 O 0.80505 0.46432 0.82099 0.0
O302 O 0.81604 0.49066 0.71561 0.0
C303 C 0.79331 0.43398 0.8101 0.0
O304 O 0.91448 0.45098 0.82869 0.0
C305 C 0.80745 0.52119 0.72772 0.0
O306 O 0.89495 0.49921 0.80134 0.0
O307 O 0.8178 0.52933 0.75928 0.0
C308 C 0.8036 0.31175 0.51249 0.0
O309 O 0.82217 0.3163 0.48422 0.0
Cd310 Cd 0.80263 0.34881 0.43388 0.0
O311 O 0.77285 0.32573 0.5157 0.0
Cd312 Cd 0.73647 0.36764 0.47982 0.0
C313 C 0.7218 0.30588 0.41645 0.0
O314 O 0.78758 0.40367 0.46282 0.0
O315 O 0.74003 0.41251 0.43146 0.0
O316 O 0.72066 0.39531 0.5367 0.0
C317 C 0.77112 0.42311 0.44091 0.0
O318 O 0.754 0.31224 0.40665 0.0
C319 C 0.68956 0.40411 0.52664 0.0
O320 O 0.70892 0.32149 0.44378 0.0
O321 O 0.67941 0.39353 0.49574 0.0
C322 C 0.66757 0.42576 0.21248 0.0
O323 O 0.66826 0.41861 0.24586 0.0
Cd324 Cd 0.63558 0.44618 0.29287 0.0
O325 O 0.64754 0.45034 0.20046 0.0
Cd326 Cd 0.60584 0.49231 0.23008 0.0
C327 C 0.66991 0.53066 0.28075 0.0
O328 O 0.57675 0.44927 0.27009 0.0
O329 O 0.56652 0.50475 0.28211 0.0
O330 O 0.56314 0.49176 0.18035 0.0
C331 C 0.55908 0.47188 0.28779 0.0
O332 O 0.6642 0.50491 0.3026 0.0
C333 C 0.56198 0.52581 0.1783 0.0
O334 O 0.655 0.53101 0.25007 0.0
O335 O 0.58329 0.54376 0.1984 0.0
Fe336 Fe 0.13769 0.09765 0.15164 0.0
Fe337 Fe 0.12211 0.16361 0.10572 0.0
O338 O 0.14505 0.12294 0.11202 0.0
Fe339 Fe 0.17491 0.10791 0.07852 0.0
O340 O 0.16535 0.06006 0.08614 0.0
O341 O 0.12256 0.05832 0.12687 0.0
O342 O 0.09009 0.10942 0.15535 0.0
C343 C 0.06865 0.12025 0.13139 0.0
C344 C 0.21244 0.09202 0.13899 0.0
O345 O 0.07939 0.1397 0.10571 0.0
C346 C 0.1882 0.18344 0.08209 0.0
O347 O 0.15235 0.1349 0.17955 0.0
O348 O 0.11818 0.17429 0.15402 0.0
O349 O 0.21213 0.1081 0.10933 0.0
O350 O 0.18375 0.08155 0.15428 0.0
C351 C 0.12244 0.13335 0.03614 0.0
O352 O 0.1638 0.18925 0.1048 0.0
O353 O 0.18981 0.15355 0.0656 0.0
C354 C 0.13526 0.16354 0.18126 0.0
O355 O 0.1213 0.16054 0.05652 0.0
O356 O 0.13978 0.10623 0.04492 0.0
C357 C 0.13955 0.04392 0.1017 0.0
Fe358 Fe 0.06335 0.84398 0.35112 0.0
Fe359 Fe 0.10118 0.9109 0.32068 0.0
O360 O 0.09765 0.87742 0.35405 0.0
Fe361 Fe 0.12858 0.87742 0.39016 0.0
O362 O 0.14363 0.8329 0.37797 0.0
O363 O 0.08977 0.80862 0.37172 0.0
O364 O 0.07918 0.82862 0.30738 0.0
C365 C 0.08188 0.84895 0.2803 0.0
C366 C 0.06307 0.85703 0.42335 0.0
O367 O 0.08413 0.8826 0.28428 0.0
C368 C 0.11825 0.94941 0.38448 0.0
O369 O 0.0308 0.87337 0.32991 0.0
O370 O 0.05678 0.92685 0.33085 0.0
O371 O 0.0969 0.85888 0.42288 0.0
O372 O 0.04522 0.85703 0.39445 0.0
C373 C 0.17141 0.89636 0.33048 0.0
O374 O 0.11895 0.9456 0.35073 0.0
O375 O 0.11583 0.92222 0.40471 0.0
C376 C 0.02899 0.90722 0.32758 0.0
O377 O 0.14574 0.89682 0.30846 0.0
O378 O 0.16589 0.89577 0.36398 0.0
C379 C 0.12319 0.80549 0.37594 0.0
Fe380 Fe 0.35984 0.90902 0.64878 0.0
Fe381 Fe 0.32246 0.86953 0.58668 0.0
O382 O 0.35791 0.87304 0.61785 0.0
Fe383 Fe 0.39134 0.84051 0.61822 0.0
O384 O 0.3801 0.82801 0.66383 0.0
O385 O 0.38181 0.88342 0.68439 0.0
O386 O 0.31778 0.89471 0.66823 0.0
C387 C 0.28903 0.8907 0.65081 0.0
C388 C 0.42996 0.90575 0.63214 0.0
O389 O 0.28921 0.8898 0.61672 0.0
C390 C 0.38309 0.84824 0.54649 0.0
O391 O 0.33828 0.94117 0.61869 0.0
O392 O 0.33512 0.91218 0.5672 0.0
O393 O 0.42702 0.87177 0.63344 0.0
O394 O 0.40242 0.92473 0.63095 0.0
C395 C 0.3278 0.79955 0.60425 0.0
O396 O 0.34942 0.84829 0.55121 0.0
O397 O 0.40421 0.85159 0.57277 0.0
C398 C 0.33709 0.94121 0.58466 0.0
O399 O 0.30814 0.82659 0.60464 0.0
O400 O 0.3616 0.80338 0.60294 0.0
C401 C 0.38277 0.84988 0.6897 0.0
Fe402 Fe 0.39605 0.13864 0.86869 0.0
Fe403 Fe 0.35482 0.0716 0.8424 0.0
O404 O 0.35594 0.11252 0.86676 0.0
Fe405 Fe 0.31688 0.12678 0.88906 0.0
O406 O 0.32641 0.17478 0.88275 0.0
O407 O 0.37513 0.17752 0.84968 0.0
O408 O 0.40958 0.12731 0.82232 0.0
C409 C 0.39093 0.11533 0.7961 0.0
C410 C 0.36774 0.14325 0.93962 0.0
O411 O 0.36388 0.0951 0.801 0.0
C412 C 0.31724 0.05164 0.90142 0.0
O413 O 0.42036 0.102 0.88797 0.0
O414 O 0.40265 0.06205 0.84845 0.0
O415 O 0.33886 0.12683 0.93219 0.0
O416 O 0.38886 0.15432 0.9151 0.0
C417 C 0.28608 0.09978 0.82897 0.0
O418 O 0.34514 0.04639 0.88301 0.0
O419 O 0.30085 0.08107 0.89951 0.0
C420 C 0.42581 0.0736 0.87078 0.0
O421 O 0.30708 0.07361 0.83101 0.0
O422 O 0.29175 0.12766 0.84749 0.0
C423 C 0.34745 0.19181 0.86189 0.0
Fe424 Fe 0.54618 0.32781 0.87252 0.0
Fe425 Fe 0.58222 0.39566 0.84201 0.0
O426 O 0.57924 0.36246 0.87572 0.0
Fe427 Fe 0.60931 0.36355 0.91259 0.0
O428 O 0.62597 0.31957 0.90067 0.0
O429 O 0.57287 0.29384 0.89478 0.0
O430 O 0.56404 0.31213 0.82991 0.0
C431 C 0.56654 0.33194 0.80246 0.0
C432 C 0.54311 0.34334 0.94398 0.0
O433 O 0.56769 0.36579 0.80558 0.0
C434 C 0.59741 0.43511 0.90624 0.0
O435 O 0.51325 0.35508 0.8497 0.0
O436 O 0.5365 0.40966 0.85027 0.0
O437 O 0.57701 0.34439 0.94465 0.0
O438 O 0.52632 0.34166 0.91456 0.0
C439 C 0.65326 0.38487 0.85417 0.0
O440 O 0.5974 0.43131 0.87242 0.0
O441 O 0.59512 0.40797 0.92656 0.0
C442 C 0.50963 0.38863 0.84734 0.0
O443 O 0.62816 0.38399 0.83136 0.0
O444 O 0.64682 0.383 0.88744 0.0
C445 C 0.60643 0.29163 0.89778 0.0
Fe446 Fe 0.82829 0.35243 0.07579 0.0
Fe447 Fe 0.86128 0.38782 0.14283 0.0
O448 O 0.85922 0.3521 0.11166 0.0
Fe449 Fe 0.88806 0.31573 0.11659 0.0
O450 O 0.90876 0.32543 0.07386 0.0
O451 O 0.85771 0.32846 0.04445 0.0
O452 O 0.84802 0.39341 0.05856 0.0
C453 C 0.85099 0.42229 0.07609 0.0
C454 C 0.82368 0.28203 0.09259 0.0
O455 O 0.84864 0.42236 0.11011 0.0
C456 C 0.8707 0.32591 0.18599 0.0
O457 O 0.79352 0.37655 0.10094 0.0
O458 O 0.81549 0.37923 0.15582 0.0
O459 O 0.85735 0.28243 0.09631 0.0
O460 O 0.80695 0.311 0.09089 0.0
C461 C 0.93207 0.37537 0.13665 0.0
O462 O 0.87416 0.3595 0.18093 0.0
O463 O 0.86838 0.30469 0.15957 0.0
C464 C 0.78914 0.37866 0.13468 0.0
O465 O 0.90778 0.39793 0.13178 0.0
O466 O 0.92449 0.3421 0.13763 0.0
C467 C 0.89147 0.32511 0.04475 0.0
Fe468 Fe 0.83094 0.62386 0.39309 0.0
Fe469 Fe 0.90254 0.65172 0.3641 0.0
O470 O 0.86522 0.62186 0.36071 0.0
Fe471 Fe 0.86229 0.59034 0.32503 0.0
O472 O 0.82003 0.60803 0.30922 0.0
O473 O 0.79503 0.61024 0.36248 0.0
O474 O 0.82178 0.67013 0.38166 0.0
C475 C 0.84496 0.69515 0.38449 0.0
C476 C 0.83572 0.55161 0.38495 0.0
O477 O 0.87793 0.68813 0.38512 0.0
C478 C 0.93354 0.58737 0.34045 0.0
O479 O 0.86072 0.6373 0.42977 0.0
O480 O 0.91504 0.63365 0.40768 0.0
O481 O 0.83896 0.55575 0.35138 0.0
O482 O 0.83805 0.57788 0.40636 0.0
C483 C 0.88831 0.65365 0.2923 0.0
O484 O 0.93424 0.62118 0.34344 0.0
O485 O 0.90413 0.57015 0.33841 0.0
C486 C 0.89397 0.6332 0.4343 0.0
O487 O 0.8917 0.67129 0.32118 0.0
O488 O 0.88486 0.61976 0.29242 0.0
C489 C 0.79233 0.60929 0.32863 0.0
Fe490 Fe 0.87257 0.83028 0.85243 0.0
Fe491 Fe 0.80723 0.86244 0.88812 0.0
O492 O 0.83928 0.86282 0.85338 0.0
Fe493 Fe 0.83822 0.89574 0.81948 0.0
O494 O 0.88213 0.91296 0.832 0.0
O495 O 0.90663 0.85991 0.83177 0.0
O496 O 0.88998 0.84547 0.89492 0.0
C497 C 0.87206 0.84553 0.92348 0.0
C498 C 0.85675 0.8324 0.78185 0.0
O499 O 0.83801 0.84467 0.92244 0.0
C500 C 0.76748 0.87959 0.82564 0.0
O501 O 0.84464 0.79493 0.87314 0.0
O502 O 0.79108 0.81793 0.87572 0.0
O503 O 0.85668 0.86645 0.78421 0.0
O504 O 0.85668 0.81356 0.80979 0.0
C505 C 0.82153 0.93406 0.88275 0.0
O506 O 0.77112 0.88027 0.85964 0.0
O507 O 0.7945 0.88004 0.80542 0.0
C508 C 0.81087 0.79096 0.87448 0.0
O509 O 0.82175 0.90667 0.9025 0.0
O510 O 0.81965 0.9309 0.8488 0.0
C511 C 0.90959 0.89389 0.83273 0.0
Fe512 Fe 0.86683 0.08845 0.65091 0.0
Fe513 Fe 0.83828 0.12469 0.58348 0.0
O514 O 0.87144 0.12108 0.61677 0.0
Fe515 Fe 0.90935 0.15038 0.61588 0.0
O516 O 0.89733 0.16882 0.65911 0.0
O517 O 0.88923 0.11637 0.68535 0.0
O518 O 0.82493 0.10683 0.66648 0.0
C519 C 0.79782 0.11072 0.64674 0.0
C520 C 0.93814 0.08416 0.63643 0.0
O521 O 0.80096 0.11105 0.61281 0.0
C522 C 0.90314 0.13269 0.5451 0.0
O523 O 0.84356 0.0551 0.62223 0.0
O524 O 0.8451 0.0794 0.56851 0.0
O525 O 0.93975 0.11817 0.63625 0.0
O526 O 0.90826 0.06781 0.63752 0.0
C527 C 0.85292 0.19525 0.59494 0.0
O528 O 0.86988 0.13838 0.54809 0.0
O529 O 0.92319 0.1333 0.57242 0.0
C530 C 0.84245 0.05216 0.58828 0.0
O531 O 0.82959 0.17042 0.59657 0.0
O532 O 0.88591 0.18795 0.59518 0.0
C533 C 0.89308 0.15027 0.68717 0.0
Fe534 Fe 0.61569 0.07323 0.32125 0.0
Fe535 Fe 0.65272 0.10793 0.38614 0.0
O536 O 0.61689 0.10642 0.35525 0.0
Fe537 Fe 0.58235 0.13776 0.35855 0.0
O538 O 0.59117 0.15423 0.31369 0.0
O539 O 0.59188 0.10108 0.28807 0.0
O540 O 0.65728 0.09048 0.30236 0.0
C541 C 0.68609 0.09319 0.32002 0.0
C542 C 0.54624 0.07196 0.3434 0.0
O543 O 0.68573 0.09081 0.35403 0.0
C544 C 0.59297 0.12387 0.42948 0.0
O545 O 0.6386 0.03909 0.34846 0.0
O546 O 0.64094 0.06351 0.40225 0.0
O547 O 0.54697 0.10608 0.34287 0.0
O548 O 0.57439 0.05453 0.3387 0.0
C549 C 0.64571 0.17893 0.37203 0.0
O550 O 0.62642 0.12573 0.42388 0.0
O551 O 0.57132 0.12314 0.40353 0.0
C552 C 0.63926 0.03597 0.38248 0.0
O553 O 0.66592 0.15229 0.37143 0.0
O554 O 0.61198 0.17468 0.37494 0.0
C555 C 0.58908 0.13495 0.28586 0.0
Fe556 Fe 0.60107 0.8035 0.12923 0.0
Fe557 Fe 0.65836 0.84358 0.08487 0.0
O558 O 0.62948 0.8415 0.12259 0.0
Fe559 Fe 0.62856 0.8776 0.15321 0.0
O560 O 0.58159 0.8849 0.1443 0.0
O561 O 0.56486 0.82841 0.15019 0.0
O562 O 0.57893 0.81133 0.0868 0.0
C563 C 0.59454 0.81438 0.05692 0.0
C564 C 0.62113 0.81621 0.19835 0.0
O565 O 0.62832 0.81738 0.05532 0.0
C566 C 0.70003 0.8758 0.14059 0.0
O567 O 0.63227 0.77181 0.10926 0.0
O568 O 0.68141 0.80384 0.0996 0.0
O569 O 0.6183 0.8495 0.19225 0.0
O570 O 0.62106 0.79394 0.17263 0.0
C571 C 0.63363 0.91201 0.08584 0.0
O572 O 0.69336 0.87056 0.10756 0.0
O573 O 0.67553 0.8727 0.16378 0.0
C574 C 0.66594 0.77387 0.10505 0.0
O575 O 0.63701 0.88351 0.06782 0.0
O576 O 0.63824 0.91204 0.11956 0.0
C577 C 0.55725 0.86129 0.14821 0.0
Fe578 Fe 0.39615 0.65758 0.12083 0.0
Fe579 Fe 0.32779 0.62634 0.08767 0.0
O580 O 0.36202 0.62405 0.12017 0.0
Fe581 Fe 0.36228 0.58842 0.15138 0.0
O582 O 0.40605 0.57472 0.13666 0.0
O583 O 0.43133 0.62832 0.13783 0.0
O584 O 0.41041 0.64567 0.07576 0.0
C585 C 0.3896 0.64592 0.04902 0.0
C586 C 0.38187 0.65037 0.19223 0.0
O587 O 0.35612 0.64802 0.05365 0.0
C588 C 0.29054 0.59972 0.14877 0.0
O589 O 0.36723 0.69322 0.10429 0.0
O590 O 0.31323 0.6689 0.10553 0.0
O591 O 0.38091 0.61641 0.18833 0.0
O592 O 0.38351 0.67096 0.16544 0.0
C593 C 0.3442 0.55548 0.08506 0.0
O594 O 0.29337 0.60423 0.11521 0.0
O595 O 0.31813 0.59914 0.16828 0.0
C596 C 0.3335 0.69645 0.10588 0.0
O597 O 0.34095 0.58449 0.06826 0.0
O598 O 0.34416 0.55482 0.11924 0.0
C599 C 0.43375 0.59452 0.1361 0.0
Fe600 Fe 0.11587 0.57554 0.82694 0.0
Fe601 Fe 0.14819 0.60977 0.89468 0.0
O602 O 0.11361 0.60707 0.86238 0.0
Fe603 Fe 0.07689 0.636 0.86531 0.0
O604 O 0.08709 0.65526 0.8218 0.0
O605 O 0.09221 0.60356 0.79398 0.0
O606 O 0.15706 0.59601 0.81056 0.0
C607 C 0.1852 0.5994 0.82913 0.0
C608 C 0.04548 0.56911 0.84545 0.0
O609 O 0.18383 0.59701 0.86314 0.0
C610 C 0.08508 0.62021 0.93602 0.0
O611 O 0.1401 0.54185 0.85337 0.0
O612 O 0.14005 0.56365 0.90832 0.0
O613 O 0.04444 0.60316 0.84627 0.0
O614 O 0.07486 0.55348 0.84163 0.0
C615 C 0.13622 0.68078 0.88406 0.0
O616 O 0.11876 0.62345 0.93194 0.0
O617 O 0.06468 0.61858 0.90903 0.0
C618 C 0.14256 0.53729 0.88712 0.0
O619 O 0.15839 0.65579 0.88267 0.0
O620 O 0.10282 0.67391 0.88506 0.0
C621 C 0.08907 0.63744 0.79303 0.0
Fe622 Fe 0.11997 0.36917 0.56902 0.0
Fe623 Fe 0.06089 0.32445 0.60621 0.0
O624 O 0.08846 0.36365 0.60416 0.0
Fe625 Fe 0.08426 0.3969 0.63759 0.0
O626 O 0.13015 0.39212 0.65127 0.0
O627 O 0.15358 0.39287 0.59698 0.0
O628 O 0.14211 0.32792 0.58113 0.0
C629 C 0.12678 0.2975 0.58284 0.0
C630 C 0.09686 0.43809 0.57445 0.0
O631 O 0.09302 0.29493 0.58447 0.0
C632 C 0.01423 0.37888 0.62917 0.0
O633 O 0.09124 0.34642 0.53538 0.0
O634 O 0.04041 0.33544 0.56384 0.0
O635 O 0.09582 0.43456 0.60824 0.0
O636 O 0.10067 0.41109 0.55434 0.0
C637 C 0.08038 0.33218 0.67627 0.0
O638 O 0.02333 0.34634 0.62831 0.0
O639 O 0.03766 0.40357 0.62604 0.0
C640 C 0.05754 0.34077 0.53505 0.0
O641 O 0.0802 0.31176 0.64908 0.0
O642 O 0.0728 0.36502 0.67317 0.0
C643 C 0.15695 0.39485 0.63088 0.0
Fe644 Fe 0.65533 0.6011 0.58944 0.0
Fe645 Fe 0.61949 0.56969 0.65637 0.0
O646 O 0.62114 0.60228 0.62203 0.0
Fe647 Fe 0.58844 0.63572 0.62023 0.0
O648 O 0.57396 0.62098 0.57602 0.0
O649 O 0.628 0.61929 0.553 0.0
O650 O 0.64072 0.55665 0.57475 0.0
C651 C 0.63927 0.52979 0.59532 0.0
C652 C 0.65249 0.67304 0.60162 0.0
O653 O 0.63906 0.5339 0.62911 0.0
C654 C 0.59962 0.63322 0.69234 0.0
O655 O 0.6889 0.58285 0.6201 0.0
O656 O 0.66298 0.58431 0.67312 0.0
O657 O 0.61863 0.67034 0.60142 0.0
O658 O 0.67153 0.64544 0.60235 0.0
C659 C 0.54913 0.57305 0.63787 0.0
O660 O 0.5994 0.59929 0.68998 0.0
O661 O 0.60099 0.65235 0.66443 0.0
C662 C 0.69097 0.58374 0.65413 0.0
O663 O 0.57613 0.55351 0.641 0.0
O664 O 0.55238 0.60697 0.63842 0.0
C665 C 0.59434 0.61996 0.54906 0.0
Fe666 Fe 0.40036 0.35596 0.39205 0.0
Fe667 Fe 0.36712 0.41989 0.35454 0.0
O668 O 0.36716 0.38863 0.38996 0.0
Fe669 Fe 0.33368 0.38976 0.42336 0.0
O670 O 0.31762 0.34547 0.41101 0.0
O671 O 0.3708 0.32146 0.41258 0.0
O672 O 0.38653 0.33718 0.34967 0.0
C673 C 0.3846 0.35441 0.32079 0.0
C674 C 0.39627 0.37121 0.46247 0.0
O675 O 0.38541 0.38856 0.3209 0.0
C676 C 0.34806 0.46075 0.4161 0.0
O677 O 0.43538 0.38433 0.37101 0.0
O678 O 0.41106 0.43729 0.3667 0.0
O679 O 0.3624 0.37187 0.4593 0.0
O680 O 0.4157 0.37312 0.4349 0.0
C681 C 0.2961 0.40289 0.3595 0.0
O682 O 0.34824 0.45631 0.38216 0.0
O683 O 0.34832 0.43413 0.43691 0.0
C684 C 0.43845 0.41811 0.36715 0.0
O685 O 0.32366 0.40388 0.34013 0.0
O686 O 0.29857 0.40705 0.39328 0.0
C687 C 0.33693 0.31819 0.41066 0.0
C688 C 0.09406 0.22083 0.2531 0.0
C689 C 0.08316 0.19431 0.27788 0.0
H690 H 0.11919 0.23169 0.20224 0.0
C691 C 0.0949 0.15908 0.2735 0.0
H692 H 0.08506 0.2482 0.25585 0.0
C693 C 0.11547 0.15 0.24363 0.0
C694 C 0.12351 0.17576 0.217 0.0
H695 H 0.08679 0.13824 0.29229 0.0
H696 H 0.12239 0.1221 0.2399 0.0
C697 C 0.11357 0.21149 0.2225 0.0
C698 C -0.00919 0.83491 0.49105 0.0
C699 C 0.01091 0.82054 0.51948 0.0
H700 H -0.00849 0.85778 0.43832 0.0
C701 C 0.04841 0.82137 0.51732 0.0
H702 H 0.9618 0.83481 0.49188 0.0
C703 C 0.0654 0.83499 0.48668 0.0
C704 C 0.04517 0.84755 0.45746 0.0
H705 H 0.06459 0.81072 0.53884 0.0
H706 H 0.09437 0.83423 0.48536 0.0
C707 C 0.00776 0.84808 0.46027 0.0
C708 C 0.40508 0.78781 0.76532 0.0
C709 C 0.43365 0.80676 0.78181 0.0
H710 H 0.36642 0.78686 0.7227 0.0
C711 C 0.44298 0.84144 0.76998 0.0
H712 H 0.3974 0.76097 0.77403 0.0
C713 C 0.42459 0.85654 0.7413 0.0
C714 C 0.39728 0.83676 0.72364 0.0
H715 H 0.46479 0.85659 0.78246 0.0
H716 H 0.43304 0.88287 0.73173 0.0
C717 C 0.3873 0.80254 0.73612 0.0
C718 C 0.41613 0.17338 0.02383 0.0
C719 C 0.38736 0.18251 0.04628 0.0
H720 H 0.43234 0.15443 0.97198 0.0
C721 C 0.35217 0.17501 0.03482 0.0
H722 H 0.44358 0.17918 0.03183 0.0
C723 C 0.34581 0.16037 0.00068 0.0
C724 C 0.37456 0.15384 0.97724 0.0
H725 H 0.32963 0.18176 0.05169 0.0
H726 H 0.31835 0.15607 -0.00806 0.0
C727 C 0.40976 0.15961 -0.01057 0.0
C728 C 0.05025 0.84813 0.18424 0.0
C729 C 0.04188 0.81168 0.17901 0.0
H730 H 0.07075 0.88832 0.21992 0.0
C731 C 0.0523 0.78656 0.205 0.0
H732 H 0.04262 0.86791 0.16447 0.0
C733 C 0.06765 0.79824 0.23745 0.0
C734 C 0.07334 0.83511 0.24392 0.0
H735 H 0.04593 0.75822 0.20155 0.0
H736 H 0.0731 0.77866 0.25814 0.0
C737 C 0.06629 0.8597 0.21615 0.0
C738 C 0.44952 0.82596 0.47437 0.0
C739 C 0.43182 0.79714 0.45695 0.0
H740 H 0.44759 0.86506 0.51669 0.0
C741 C 0.39628 0.78827 0.46634 0.0
H742 H 0.47689 0.83342 0.46751 0.0
C743 C 0.37925 0.80697 0.49383 0.0
C744 C 0.39781 0.83429 0.51275 0.0
H745 H 0.38195 0.76634 0.45307 0.0
H746 H 0.35241 0.79857 0.5017 0.0
C747 C 0.43278 0.84415 0.50234 0.0
C748 C 0.44497 0.14873 0.71726 0.0
C749 C 0.41753 0.15848 0.69356 0.0
H750 H 0.45782 0.12781 0.76923 0.0
C751 C 0.38184 0.14917 0.70168 0.0
H752 H 0.47269 0.156 0.71168 0.0
C753 C 0.37346 0.13246 0.7342 0.0
C754 C 0.40059 0.1259 0.75938 0.0
H755 H 0.36031 0.1566 0.68379 0.0
H756 H 0.34556 0.12713 0.74074 0.0
C757 C 0.4365 0.13301 0.75026 0.0
C758 C 0.11099 0.17468 0.946 0.0
C759 C 0.07822 0.15887 0.93508 0.0
H760 H 0.15061 0.1787 -0.01249 0.0
C761 C 0.0641 0.12927 0.95427 0.0
H762 H 0.12272 0.19726 0.93153 0.0
C763 C 0.08039 0.11849 -0.01376 0.0
C764 C 0.11075 0.13728 -0.00101 0.0
H765 H 0.0389 0.11656 0.94639 0.0
H766 H 0.0677 0.09761 0.00235 0.0
C767 C 0.12693 0.16419 0.97798 0.0
C768 C 0.29923 0.04319 0.1443 0.0
C769 C 0.30662 0.04563 0.18122 0.0
H770 H 0.26352 0.0573 0.10167 0.0
C771 C 0.28502 0.06688 0.20337 0.0
H772 H 0.31545 0.02679 0.12683 0.0
C773 C 0.2548 0.08314 0.18932 0.0
C774 C 0.24662 0.07945 0.15275 0.0
H775 H 0.28996 0.06886 0.23204 0.0
H776 H 0.23725 0.09767 0.20716 0.0
C777 C 0.26967 0.06055 0.13001 0.0
C778 C 0.15877 0.01956 0.44689 0.0
C779 C 0.17027 0.04548 0.42173 0.0
H780 H 0.13297 0.96814 0.45487 0.0
C781 C 0.15869 0.04262 0.38603 0.0
H782 H 0.16745 0.02133 0.47467 0.0
C783 C 0.13836 0.01283 0.37492 0.0
C784 C 0.13022 -0.0153 0.39907 0.0
H785 H 0.16689 0.06253 0.3663 0.0
H786 H 0.1314 0.0107 0.34668 0.0
C787 C 0.13908 -0.01086 0.43557 0.0
C788 C 0.19328 0.91052 0.67466 0.0
C789 C 0.19368 0.90476 0.71205 0.0
H790 H 0.22341 0.91032 0.62562 0.0
C791 C 0.22405 0.88978 0.72793 0.0
H792 H 0.17012 0.92175 0.66161 0.0
C793 C 0.25452 0.88371 0.70746 0.0
C794 C 0.25507 0.89208 0.67067 0.0
H795 H 0.22514 0.8847 0.75658 0.0
H796 H 0.27815 0.87371 0.72075 0.0
C797 C 0.22375 0.90403 0.65405 0.0
C798 C 0.30106 0.96224 0.94669 0.0
C799 C 0.26349 0.9614 0.94954 0.0
H800 H 0.34771 -0.00836 0.92877 0.0
C801 C 0.24391 -0.00939 0.93726 0.0
H802 H 0.31673 0.93992 0.956 0.0
C803 C 0.26164 0.02036 0.92249 0.0
C804 C 0.29919 0.02104 0.91908 0.0
H805 H 0.21495 -0.00938 0.93938 0.0
H806 H 0.24582 0.04251 0.91303 0.0
C807 C 0.31877 -0.00829 0.93118 0.0
C808 C 0.25335 0.90339 0.27178 0.0
C809 C 0.27573 0.92553 0.29316 0.0
H810 H 0.20183 0.87713 0.2668 0.0
C811 C 0.26428 0.93653 0.32722 0.0
H812 H 0.26176 0.89485 0.24526 0.0
C813 C 0.23067 0.92585 0.3397 0.0
C814 C 0.20771 0.90474 0.31791 0.0
H815 H 0.2812 0.95357 0.3441 0.0
H816 H 0.22219 0.93518 0.36594 0.0
C817 C 0.21922 0.89343 0.28392 0.0
C818 C 0.33252 0.00656 0.50831 0.0
C819 C 0.31445 0.03525 0.52429 0.0
H820 H 0.35379 0.95423 0.51513 0.0
C821 C 0.30768 0.03458 0.56148 0.0
H822 H 0.33847 0.00634 0.47979 0.0
C823 C 0.31685 0.00467 0.58183 0.0
C824 C 0.33243 0.97495 0.5651 0.0
H825 H 0.29405 0.05645 0.57457 0.0
H826 H 0.31001 0.00403 0.61015 0.0
C827 C 0.3412 0.97661 0.52848 0.0
C828 C 0.19148 0.06798 0.83746 0.0
C829 C 0.18594 0.05226 0.80355 0.0
H830 H 0.22778 0.09776 0.87139 0.0
C831 C 0.21087 0.05884 0.77588 0.0
H832 H 0.1726 0.06316 0.85913 0.0
C833 C 0.24282 0.07763 0.78316 0.0
C834 C 0.24938 0.09127 0.81771 0.0
H835 H 0.20724 0.04667 0.74957 0.0
H836 H 0.26334 0.0794 0.76259 0.0
C837 C 0.22281 0.08796 0.84431 0.0
C838 C 0.12342 0.95877 0.05065 0.0
C839 C 0.14525 0.93547 0.07025 0.0
H840 H 0.105 0.01273 0.04545 0.0
C841 C 0.15755 0.94604 0.10451 0.0
H842 H 0.11361 0.95139 0.02414 0.0
C843 C 0.15212 0.98099 0.11678 0.0
C844 C 0.13448 0.00554 0.09486 0.0
H845 H 0.17435 0.92859 0.12018 0.0
H846 H 0.16467 -0.01022 0.1417 0.0
C847 C 0.11859 -0.0061 0.06266 0.0
C848 C 0.2171 0.27682 0.05335 0.0
C849 C 0.25081 0.27041 0.03824 0.0
H850 H 0.17118 0.25427 0.0802 0.0
C851 C 0.26456 0.2356 0.03926 0.0
H852 H 0.20608 0.30352 0.05305 0.0
C853 C 0.24447 0.20739 0.05426 0.0
C854 C 0.21068 0.21373 0.06927 0.0
H855 H 0.29045 0.23005 0.02758 0.0
H856 H 0.25523 0.18057 0.05387 0.0
C857 C 0.19736 0.24877 0.06917 0.0
C858 C 0.67332 0.21732 0.90451 0.0
C859 C 0.65254 0.19011 0.92105 0.0
H860 H 0.67505 0.27142 0.88485 0.0
C861 C 0.61589 0.19535 0.92677 0.0
H862 H 0.70176 0.21404 0.90012 0.0
C863 C 0.60059 0.22792 0.91764 0.0
C864 C 0.62191 0.25609 0.90348 0.0
H865 H 0.59938 0.17478 0.93957 0.0
H866 H 0.57245 0.23165 0.92339 0.0
C867 C 0.6582 0.25026 0.89618 0.0
C868 C 0.0151 0.38039 0.19413 0.0
C869 C 0.02929 0.41432 0.18505 0.0
H870 H 0.97349 0.34113 0.18509 0.0
C871 C 0.01277 0.43442 0.15797 0.0
H872 H 0.02741 0.36441 0.21487 0.0
C873 C 0.98148 0.42147 0.14137 0.0
C874 C 0.9669 0.38783 0.15096 0.0
H875 H 0.0232 0.46078 0.15064 0.0
H876 H 0.96839 0.43792 0.1215 0.0
C877 C -0.0156 0.36706 0.1769 0.0
C878 C 0.84761 0.78469 0.43156 0.0
C879 C 0.81103 0.79229 0.43342 0.0
H880 H 0.88719 0.74827 0.41371 0.0
C881 C 0.78631 0.77093 0.41381 0.0
H882 H 0.86725 0.80099 0.44608 0.0
C883 C 0.7976 0.74031 0.39568 0.0
C884 C 0.83382 0.73098 0.39647 0.0
H885 H 0.7579 0.77629 0.41463 0.0
H886 H 0.77774 0.72297 0.38275 0.0
C887 C 0.85896 0.75447 0.41296 0.0
C888 C 0.97817 0.0808 0.10774 0.0
C889 C 0.9621 0.07859 0.14185 0.0
H890 H 0.02477 0.09698 0.07761 0.0
C891 C 0.97942 0.0948 0.17152 0.0
H892 H 0.96535 0.06841 0.08452 0.0
C893 C 0.0137 0.10995 0.16778 0.0
C894 C 0.03058 0.1102 0.13412 0.0
H895 H 0.96779 0.09322 0.19818 0.0
H896 H 0.02759 0.1202 0.19143 0.0
C897 C 0.01204 0.09705 0.10381 0.0
C898 C 0.31095 0.71414 0.55279 0.0
C899 C 0.2742 0.70828 0.55896 0.0
H900 H 0.35723 0.74719 0.56351 0.0
C901 C 0.25655 0.72936 0.58449 0.0
H902 H 0.32525 0.69789 0.53354 0.0
C903 C 0.27478 0.75783 0.60147 0.0
C904 C 0.31105 0.76505 0.59364 0.0
H905 H 0.22823 0.72515 0.58983 0.0
H906 H 0.26014 0.77523 0.61939 0.0
C907 C 0.32935 0.74208 0.57029 0.0
C908 C 0.001 0.51458 0.32534 0.0
C909 C 0.0285 0.53397 0.30772 0.0
H910 H 0.94872 0.51635 0.34916 0.0
C911 C 0.02593 0.57126 0.30391 0.0
H912 H 0.00235 0.4857 0.32838 0.0
C913 C -0.00429 0.58878 0.31631 0.0
C914 C 0.96713 0.56916 0.33193 0.0
H915 H 0.04684 0.58675 0.29045 0.0
H916 H -0.00597 0.61749 0.31203 0.0
C917 C 0.97028 0.53201 0.33698 0.0
C918 C 0.42224 0.38802 0.79678 0.0
C919 C 0.41862 0.42456 0.78909 0.0
H920 H 0.45319 0.34811 0.82242 0.0
C921 C 0.44199 0.4499 0.80545 0.0
H922 H 0.4043 0.36803 0.78484 0.0
C923 C 0.47061 0.43854 0.82651 0.0
C924 C 0.47583 0.40172 0.83199 0.0
H925 H 0.4397 0.47833 0.79996 0.0
H926 H 0.4896 0.45841 0.83689 0.0
C927 C 0.45029 0.37672 0.81839 0.0
C928 C 0.90176 0.81996 0.69288 0.0
C929 C 0.90752 0.78276 0.69327 0.0
H930 H 0.88006 0.86498 0.72034 0.0
C931 C 0.89047 0.76132 0.71929 0.0
H932 H 0.91399 0.83705 0.67257 0.0
C933 C 0.87076 0.77737 0.74659 0.0
C934 C 0.86803 0.81504 0.74822 0.0
H935 H 0.89405 0.73251 0.71978 0.0
H936 H 0.85972 0.76045 0.7677 0.0
C937 C 0.88203 0.83598 0.72006 0.0
C938 C 0.90775 0.13179 0.44452 0.0
C939 C 0.94075 0.14959 0.43869 0.0
H940 H 0.87001 0.11229 0.48335 0.0
C941 C 0.96487 0.15392 0.46749 0.0
H942 H 0.88882 0.12792 0.42264 0.0
C943 C 0.95394 0.14527 0.50249 0.0
C944 C 0.91885 0.13227 0.50875 0.0
H945 H -0.00959 0.16778 0.46368 0.0
H946 H 0.97163 0.15197 0.52475 0.0
C947 C 0.89683 0.12328 0.47931 0.0
C948 C 0.55948 0.20604 0.22049 0.0
C949 C 0.53664 0.186 0.19762 0.0
H950 H 0.59423 0.20545 0.26633 0.0
C951 C 0.53551 0.14831 0.20073 0.0
H952 H 0.56104 0.23509 0.21874 0.0
C953 C 0.55487 0.13125 0.2278 0.0
C954 C 0.57532 0.15162 0.25258 0.0
H955 H 0.51831 0.1321 0.18336 0.0
H956 H 0.55189 0.10239 0.23074 0.0
C957 C 0.57844 0.18905 0.24783 0.0
C958 C 0.51569 0.81421 -0.00686 0.0
C959 C 0.53244 0.80759 0.96005 0.0
H960 H 0.52224 0.82087 0.04994 0.0
C961 C 0.56996 0.80539 0.95873 0.0
H962 H 0.48679 0.81576 -0.005 0.0
C963 C 0.59024 0.8082 -0.00984 0.0
C964 C 0.57332 0.81283 0.02352 0.0
H965 H 0.58359 0.80033 0.93355 0.0
H966 H 0.61906 0.80569 -0.01162 0.0
C967 C 0.53594 0.8166 0.02465 0.0
C968 C 0.92013 0.16362 0.78389 0.0
C969 C 0.92209 0.20128 0.78619 0.0
H970 H 0.90888 0.11782 0.75069 0.0
C971 C 0.90971 0.22193 0.75738 0.0
H972 H 0.92922 0.14711 0.8059 0.0
C973 C 0.89857 0.20519 0.72556 0.0
C974 C 0.89919 0.16758 0.72232 0.0
H975 H 0.91091 0.25103 0.75846 0.0
H976 H 0.89092 0.22176 0.70302 0.0
C977 C 0.90851 0.14688 0.75228 0.0
C978 C 0.52659 0.13311 0.50495 0.0
C979 C 0.54647 0.15389 0.52982 0.0
H980 H 0.52596 0.10711 0.45359 0.0
C981 C 0.58333 0.15981 0.52392 0.0
H982 H 0.49821 0.12781 0.50887 0.0
C983 C 0.59932 0.14771 0.49224 0.0
C984 C 0.57856 0.12984 0.46589 0.0
H985 H 0.59939 0.17553 0.54277 0.0
H986 H 0.62728 0.15444 0.48741 0.0
C987 C 0.54245 0.12136 0.4732 0.0
C988 C 0.58953 0.82152 0.29337 0.0
C989 C 0.57261 0.78778 0.29712 0.0
H990 H 0.62029 0.85643 0.2595 0.0
C991 C 0.57975 0.76049 0.27212 0.0
H992 H 0.58483 0.84277 0.3127 0.0
C993 C 0.59961 0.76843 0.24111 0.0
C994 C 0.61267 0.80366 0.23513 0.0
H995 H 0.56703 0.73418 0.27466 0.0
H996 H 0.60165 0.74799 0.22044 0.0
C997 C 0.60985 0.82925 0.26287 0.0
C998 C 0.94796 0.82426 -0.01403 0.0
C999 C 0.92938 0.80756 0.01425 0.0
H1000 H 0.9441 0.85042 0.93516 0.0
C1001 C 0.89171 0.80856 0.01511 0.0
H1002 H 0.97698 0.82427 0.98492 0.0
C1003 C 0.87281 0.82353 -0.01327 0.0
C1004 C 0.89132 0.83758 0.95698 0.0
H1005 H 0.87667 0.79635 0.03696 0.0
H1006 H 0.84379 0.82207 -0.01285 0.0
C1007 C 0.92907 0.83924 0.95756 0.0
C1008 C 0.70023 0.89942 0.75374 0.0
C1009 C 0.67713 0.92202 0.77253 0.0
H1010 H 0.74705 0.86746 0.75634 0.0
C1011 C 0.67987 0.92447 0.81023 0.0
H1012 H 0.69847 0.89664 0.72477 0.0
C1013 C 0.70749 0.90754 0.82836 0.0
C1014 C 0.73294 0.8882 0.80899 0.0
H1015 H 0.66194 0.94118 0.82553 0.0
H1016 H 0.71052 0.91206 0.85702 0.0
C1017 C 0.72801 0.88272 0.77183 0.0
C1018 C 0.81557 0.98365 0.5179 0.0
C1019 C 0.80137 0.95597 0.53938 0.0
H1020 H 0.84019 0.03595 0.51668 0.0
C1021 C 0.8043 0.95846 0.577 0.0
H1022 H 0.81385 0.98222 0.48876 0.0
C1023 C 0.81941 -0.01093 0.59298 0.0
C1024 C 0.83161 0.01777 0.57159 0.0
H1025 H 0.79393 0.93727 0.59419 0.0
H1026 H 0.82009 -0.0092 0.62208 0.0
C1027 C 0.83056 0.01437 0.53388 0.0
C1028 C 0.75382 0.09268 0.24445 0.0
C1029 C 0.78526 0.08418 0.26311 0.0
H1030 H 0.69754 0.10193 0.24788 0.0
C1031 C 0.78477 0.08348 0.30088 0.0
H1032 H 0.75339 0.09344 0.21533 0.0
C1033 C 0.75279 0.08825 0.31952 0.0
C1034 C 0.72066 0.09351 0.3007 0.0
H1035 H 0.80866 0.0772 0.31598 0.0
H1036 H 0.75299 0.08593 0.34856 0.0
C1037 C 0.72174 0.09716 0.26309 0.0
C1038 C 0.65341 0.98456 0.01805 0.0
C1039 C 0.65235 0.0148 0.04065 0.0
H1040 H 0.64807 0.92718 0.01487 0.0
C1041 C 0.63687 0.01173 0.07482 0.0
H1042 H 0.66559 -0.01355 -0.00834 0.0
C1043 C 0.6268 0.97811 0.08806 0.0
C1044 C 0.63275 0.94704 0.06751 0.0
H1045 H 0.63582 0.03485 0.09258 0.0
H1046 H 0.61753 0.97623 0.11562 0.0
C1047 C 0.64367 0.95065 0.03148 0.0
C1048 C 0.69815 0.09508 0.65173 0.0
C1049 C 0.69428 0.08111 0.68654 0.0
H1050 H 0.73391 0.11638 0.61208 0.0
C1051 C 0.72315 0.08389 0.71066 0.0
H1052 H 0.67613 0.09332 0.63272 0.0
C1053 C 0.75668 0.09655 0.69866 0.0
C1054 C 0.76151 0.1067 0.66247 0.0
H1055 H 0.7208 0.07301 0.73757 0.0
H1056 H 0.77929 0.09567 0.71691 0.0
C1057 C 0.73137 0.10802 0.63987 0.0
C1058 C 0.64633 0.96472 0.45405 0.0
C1059 C 0.66296 0.93697 0.4351 0.0
H1060 H 0.62596 0.01796 0.45212 0.0
C1061 C 0.66678 0.93993 0.39755 0.0
H1062 H 0.6429 0.96326 0.48295 0.0
C1063 C 0.65701 0.97135 0.37981 0.0
C1064 C 0.64365 0.00045 0.39943 0.0
H1065 H 0.67937 0.91889 0.38216 0.0
H1066 H 0.66205 0.97366 0.35121 0.0
C1067 C 0.63697 -0.00377 0.43642 0.0
C1068 C 0.77186 0.92099 0.19715 0.0
C1069 C 0.79169 0.93972 0.17083 0.0
H1070 H 0.72728 0.88564 0.20818 0.0
C1071 C 0.78371 0.93392 0.13437 0.0
H1072 H 0.77761 0.9248 0.2255 0.0
C1073 C 0.75524 0.91112 0.12444 0.0
C1074 C 0.73393 0.89414 0.15085 0.0
H1075 H 0.79883 0.94775 0.11353 0.0
H1076 H 0.74887 0.9083 0.09612 0.0
C1077 C 0.7431 0.89853 0.18726 0.0
C1078 C 0.78577 0.02597 0.90225 0.0
C1079 C 0.79332 0.02926 0.93923 0.0
H1080 H 0.78929 -0.00684 0.85496 0.0
C1081 C 0.81517 0.0038 0.95567 0.0
H1082 H 0.7693 0.04539 0.88872 0.0
C1083 C 0.82635 0.97389 0.9364 0.0
C1084 C 0.81622 0.96907 0.90027 0.0
H1085 H 0.82178 0.00569 0.984 0.0
H1086 H 0.84144 0.95362 0.95032 0.0
C1087 C 0.79729 -0.00385 0.88285 0.0
C1088 C 0.80508 0.69184 0.89368 0.0
C1089 C 0.77017 0.68814 0.90739 0.0
H1090 H 0.84515 0.72725 0.87199 0.0
C1091 C 0.74697 0.71727 0.90535 0.0
H1092 H 0.82338 0.66964 0.89445 0.0
C1093 C 0.75951 0.75048 0.89257 0.0
C1094 C 0.79541 0.75491 0.88167 0.0
H1095 H 0.71984 0.71505 0.91557 0.0
H1096 H 0.74165 0.77305 0.89309 0.0
C1097 C 0.81756 0.72489 0.88088 0.0
C1098 C 0.32714 0.78914 0.06786 0.0
C1099 C 0.29021 0.79099 0.06142 0.0
H1100 H 0.36982 0.75815 0.0884 0.0
C1101 C 0.2669 0.76503 0.07638 0.0
H1102 H 0.34553 0.80928 0.05704 0.0
C1103 C 0.28082 0.73527 0.09395 0.0
C1104 C 0.31814 0.73151 0.09702 0.0
H1105 H 0.23826 0.76611 0.07185 0.0
H1106 H 0.26253 0.7141 0.10278 0.0
C1107 C 0.34098 0.75985 0.08589 0.0
C1108 C 0.98088 0.48925 0.84265 0.0
C1109 C 0.94847 0.50594 0.83461 0.0
H1110 H 0.0372 0.49621 0.85206 0.0
C1111 C 0.94759 0.54368 0.83371 0.0
H1112 H 0.9824 0.46022 0.8434 0.0
C1113 C 0.97887 0.56428 0.8387 0.0
C1114 C 0.01178 0.54755 0.84425 0.0
H1115 H 0.92291 0.5573 0.82779 0.0
H1116 H 0.97746 0.59325 0.83667 0.0
C1117 C 0.01231 0.50987 0.84723 0.0
C1118 C 0.14914 0.20122 0.5615 0.0
C1119 C 0.18651 0.20349 0.55749 0.0
H1120 H 0.10102 0.22902 0.57299 0.0
C1121 C 0.20465 0.23585 0.56618 0.0
H1122 H 0.13449 0.17657 0.55509 0.0
C1123 C 0.1854 0.26624 0.57588 0.0
C1124 C 0.14774 0.26461 0.57739 0.0
H1125 H 0.23346 0.2384 0.56315 0.0
H1126 H 0.19991 0.29132 0.58074 0.0
C1127 C 0.12997 0.23139 0.57157 0.0
C1128 C 0.00947 0.90521 0.82176 0.0
C1129 C 0.01297 0.94209 0.81444 0.0
H1130 H 0.97401 0.86109 0.83348 0.0
C1131 C 0.98283 0.96385 0.81716 0.0
H1132 H 0.03237 0.88786 0.82022 0.0
C1133 C 0.9492 0.94844 0.82454 0.0
C1134 C 0.94534 0.91108 0.82934 0.0
H1135 H -0.01516 -0.0076 0.81169 0.0
H1136 H 0.92611 0.96558 0.82502 0.0
C1137 C 0.97599 0.88985 0.82919 0.0
C1138 C 0.66366 0.27276 0.40657 0.0
C1139 C 0.70036 0.2772 0.39868 0.0
H1140 H 0.61719 0.23813 0.40372 0.0
C1141 C 0.71716 0.25157 0.37707 0.0
H1142 H 0.64987 0.29234 0.42281 0.0
C1143 C 0.6985 0.22048 0.36638 0.0
C1144 C 0.66264 0.21471 0.37677 0.0
H1145 H 0.74531 0.25435 0.3703 0.0
H1146 H 0.71267 0.20016 0.35145 0.0
C1147 C 0.64487 0.24182 0.39551 0.0
C1148 C 0.94179 0.43122 0.6747 0.0
C1149 C 0.92322 0.40332 0.69255 0.0
H1150 H -0.01444 0.44534 0.63996 0.0
C1151 C 0.93023 0.36754 0.68357 0.0
H1152 H 0.93664 0.45908 0.68098 0.0
C1153 C 0.95772 0.35967 0.65972 0.0
C1154 C 0.97921 0.38747 0.64508 0.0
H1155 H 0.91578 0.34556 0.69651 0.0
H1156 H 0.96382 0.3317 0.6551 0.0
C1157 C 0.9698 0.42335 0.65124 0.0
C1158 C 0.5037 0.52339 0.14547 0.0
C1159 C 0.53292 0.54373 0.15887 0.0
H1160 H 0.44924 0.52363 0.12765 0.0
C1161 C 0.53108 0.58142 0.15927 0.0
H1162 H 0.50438 0.49431 0.14464 0.0
C1163 C 0.49943 0.59826 0.14962 0.0
C1164 C 0.46904 0.57765 0.13961 0.0
H1165 H 0.55331 0.59784 0.1692 0.0
H1166 H 0.49818 0.62722 0.15215 0.0
C1167 C 0.472 0.5402 0.13602 0.0
C1168 C 0.55491 0.64799 0.78175 0.0
C1169 C 0.5608 0.68501 0.78678 0.0
H1170 H 0.56343 0.6023 0.74812 0.0
C1171 C 0.58337 0.70399 0.76293 0.0
H1172 H 0.53774 0.63277 0.79989 0.0
C1173 C 0.5975 0.68676 0.73287 0.0
C1174 C 0.58991 0.65014 0.72672 0.0
H1175 H 0.58828 0.73262 0.76622 0.0
H1176 H 0.61325 0.70233 0.71378 0.0
C1177 C 0.5697 0.63059 0.75217 0.0
C1178 C 0.46681 0.33327 0.00961 0.0
C1179 C 0.48417 0.31834 0.03947 0.0
H1180 H 0.47196 0.35275 0.95578 0.0
C1181 C 0.52153 0.31492 0.03888 0.0
H1182 H 0.438 0.33629 0.00926 0.0
C1183 C 0.541 0.32473 0.00833 0.0
C1184 C 0.52331 0.33758 0.9777 0.0
H1185 H 0.5356 0.30372 0.0616 0.0
H1186 H 0.56966 0.32071 0.00818 0.0
C1187 C 0.48619 0.34256 0.9789 0.0
C1188 C 0.92751 0.3146 0.26766 0.0
C1189 C 0.92413 0.27738 0.27288 0.0
H1190 H 0.91174 0.35969 0.23674 0.0
C1191 C 0.89798 0.25754 0.25373 0.0
H1192 H 0.94704 0.3306 0.28263 0.0
C1193 C 0.8777 0.27419 0.22735 0.0
C1194 C 0.88312 0.31092 0.22013 0.0
H1195 H 0.89456 0.22884 0.25771 0.0
H1196 H 0.85944 0.25792 0.21111 0.0
C1197 C 0.90687 0.33134 0.24173 0.0
C1198 C 0.9544 0.66255 0.51025 0.0
C1199 C 0.9286 0.66874 0.537 0.0
H1200 H 0.96361 0.64611 0.45582 0.0
C1201 C 0.89368 0.65505 0.53247 0.0
H1202 H 0.98164 0.67279 0.51327 0.0
C1203 C 0.88354 0.6393 0.49994 0.0
C1204 C 0.90797 0.63791 0.47115 0.0
H1205 H 0.87352 0.65904 0.55299 0.0
H1206 H 0.85569 0.63125 0.49637 0.0
C1207 C 0.94408 0.64737 0.47731 0.0
C1208 C 0.5454 0.26513 0.72822 0.0
C1209 C 0.52905 0.28764 0.70311 0.0
H1210 H 0.57011 0.2616 0.78022 0.0
C1211 C 0.52947 0.32481 0.70875 0.0
H1212 H 0.54509 0.23626 0.72429 0.0
C1213 C 0.54436 0.33929 0.74 0.0
C1214 C 0.55816 0.3167 0.76672 0.0
H1215 H 0.51705 0.34256 0.68958 0.0
H1216 H 0.54286 0.36805 0.74413 0.0
C1217 C 0.55953 0.27956 0.76015 0.0
C1218 C 0.9643 0.30333 0.97928 0.0
C1219 C 0.9473 0.27648 0.95844 0.0
H1220 H 0.95953 0.33995 0.0235 0.0
C1221 C 0.91098 0.26788 0.96423 0.0
H1222 H -0.0077 0.31041 0.97511 0.0
C1223 C 0.89204 0.28553 -0.00896 0.0
C1224 C 0.9095 0.31128 0.01288 0.0
H1225 H 0.89729 0.24748 0.94816 0.0
H1226 H 0.86427 0.27785 -0.00425 0.0
C1227 C 0.94562 0.32028 0.0067 0.0
C1228 C 0.89286 0.72763 0.224 0.0
C1229 C 0.90722 0.70972 0.19413 0.0
H1230 H 0.87602 0.72377 0.27879 0.0
C1231 C 0.91262 0.67257 0.19586 0.0
H1232 H 0.88841 0.7563 0.22348 0.0
C1233 C 0.90518 0.65392 0.22752 0.0
C1234 C 0.89286 0.67235 0.25798 0.0
H1235 H 0.92352 0.65812 0.17315 0.0
H1236 H 0.91048 0.62543 0.22858 0.0
C1237 C 0.88603 0.70914 0.25576 0.0
C1238 C 0.52698 0.63773 0.47622 0.0
C1239 C 0.54755 0.65954 0.45301 0.0
H1240 H 0.52593 0.60796 0.52544 0.0
C1241 C 0.58462 0.66328 0.45862 0.0
H1242 H 0.49831 0.63443 0.47241 0.0
C1243 C 0.60049 0.64766 0.48852 0.0
C1244 C 0.57933 0.62875 0.51366 0.0
H1245 H 0.60105 0.67977 0.44089 0.0
H1246 H 0.62881 0.65268 0.49326 0.0
C1247 C 0.54272 0.62273 0.50659 0.0
C1248 C 0.75924 0.56629 0.72629 0.0
C1249 C 0.78273 0.54386 0.70769 0.0
H1250 H 0.71115 0.5966 0.72365 0.0
C1251 C 0.77894 0.53938 0.67041 0.0
H1252 H 0.76166 0.57013 0.7551 0.0
C1253 C 0.7505 0.55496 0.65237 0.0
C1254 C 0.72498 0.5746 0.67153 0.0
H1255 H 0.79691 0.52237 0.65549 0.0
H1256 H 0.74715 0.54943 0.62391 0.0
C1257 C 0.7303 0.58128 0.70837 0.0
C1258 C 0.64347 0.52512 0.90411 0.0
C1259 C 0.66167 0.52505 0.93702 0.0
H1260 H 0.60651 0.49766 0.8695 0.0
C1261 C 0.652 0.49954 0.96325 0.0
H1262 H 0.65009 0.54498 0.88378 0.0
C1263 C 0.62751 0.47173 0.95488 0.0
C1264 C 0.61215 0.46958 0.92035 0.0
H1265 H 0.66566 0.49924 -0.01103 0.0
H1266 H 0.62311 0.4504 0.97424 0.0
C1267 C 0.61841 0.49804 0.8961 0.0
C1268 C 0.7 0.42058 0.15346 0.0
C1269 C 0.69366 0.40821 0.18868 0.0
H1270 H 0.73564 0.42037 0.10805 0.0
C1271 C 0.7158 0.3817 0.20296 0.0
H1272 H 0.68327 0.44084 0.14165 0.0
C1273 C 0.74565 0.37046 0.18401 0.0
C1274 C 0.75369 0.385 0.15018 0.0
H1275 H 0.7114 0.3711 0.22974 0.0
H1276 H 0.76347 0.3516 0.1966 0.0
C1277 C 0.72985 0.40886 0.13419 0.0
C1278 C 0.81517 0.47359 0.44569 0.0
C1279 C 0.78849 0.45518 0.42581 0.0
H1280 H 0.85095 0.51934 0.44825 0.0
C1281 C 0.77853 0.46783 0.39189 0.0
H1282 H 0.82309 0.46426 0.47205 0.0
C1283 C 0.79511 0.49862 0.37798 0.0
C1284 C 0.82114 0.51752 0.39828 0.0
H1285 H 0.75806 0.45392 0.37614 0.0
H1286 H 0.78672 0.50832 0.3519 0.0
C1287 C 0.83106 0.50492 0.43221 0.0
C1288 C 0.7382 0.39619 0.79973 0.0
C1289 C 0.75863 0.41914 0.82229 0.0
H1290 H 0.68806 0.36778 0.79186 0.0
C1291 C 0.7446 0.4297 0.85552 0.0
H1292 H 0.7484 0.38797 0.77377 0.0
C1293 C 0.71063 0.41766 0.86603 0.0
C1294 C 0.68973 0.39552 0.84311 0.0
H1295 H 0.75978 0.44746 0.87328 0.0
H1296 H 0.70029 0.4266 0.89171 0.0
C1297 C 0.70372 0.38484 0.80988 0.0
C1298 C 0.8456 0.48532 -0.00226 0.0
C1299 C 0.82901 0.51485 0.01373 0.0
H1300 H 0.86612 0.43276 0.00531 0.0
C1301 C 0.82609 0.5164 0.05144 0.0
H1302 H 0.84877 0.48356 0.96882 0.0
C1303 C 0.83613 0.48725 0.0724 0.0
C1304 C 0.84905 0.45614 0.0559 0.0
H1305 H 0.81393 0.5391 0.06462 0.0
H1306 H 0.83128 0.48813 0.10112 0.0
C1307 C 0.85547 0.45617 0.01865 0.0
C1308 C 0.7231 0.56923 0.2654 0.0
C1309 C 0.69669 0.55848 0.29027 0.0
H1310 H 0.77483 0.59431 0.25804 0.0
C1311 C 0.69879 0.57088 0.32578 0.0
H1312 H 0.72181 0.55995 0.23776 0.0
C1313 C 0.72838 0.59125 0.33713 0.0
C1314 C 0.75708 0.5985 0.31345 0.0
H1315 H 0.6784 0.56327 0.34522 0.0
H1316 H 0.72997 0.5987 0.36529 0.0
C1317 C 0.75336 0.58891 0.27699 0.0
C1318 C 0.6775 0.43785 0.58314 0.0
C1319 C 0.66943 0.43102 0.54685 0.0
H1320 H 0.67354 0.47455 0.62728 0.0
C1321 C 0.64687 0.45437 0.52827 0.0
H1322 H 0.69481 0.42021 0.59801 0.0
C1323 C 0.63548 0.48589 0.54468 0.0
C1324 C 0.64573 0.494 0.58014 0.0
H1325 H 0.64034 0.44978 0.5002 0.0
H1326 H 0.61999 0.50466 0.52915 0.0
C1327 C 0.66537 0.46895 0.59982 0.0
C1328 C 0.66861 0.76682 0.56601 0.0
C1329 C 0.7054 0.77175 0.57271 0.0
H1330 H 0.62274 0.73165 0.57047 0.0
C1331 C 0.72377 0.74533 0.59194 0.0
H1332 H 0.65374 0.78679 0.55143 0.0
C1333 C 0.70621 0.71371 0.60244 0.0
C1334 C 0.66982 0.70811 0.59441 0.0
H1335 H 0.75214 0.74832 0.59767 0.0
H1336 H 0.72133 0.69328 0.61609 0.0
C1337 C 0.65088 0.73533 0.57702 0.0
C1338 C 0.12732 0.71406 0.41872 0.0
C1339 C 0.16425 0.70793 0.41826 0.0
H1340 H 0.08528 0.74946 0.40481 0.0
C1341 C 0.18721 0.73196 0.39982 0.0
H1342 H 0.1091 0.69587 0.4327 0.0
C1343 C 0.17372 0.76315 0.38449 0.0
C1344 C 0.13699 0.77027 0.38667 0.0
H1345 H 0.21586 0.72787 0.39925 0.0
H1346 H 0.19216 0.78229 0.37212 0.0
C1347 C 0.11374 0.74473 0.40268 0.0
C1348 C 0.498 0.97758 0.65782 0.0
C1349 C 0.52076 0.95794 0.68007 0.0
H1350 H 0.451 0.97617 0.62464 0.0
C1351 C 0.51622 0.92053 0.6824 0.0
H1352 H 0.50122 0.00649 0.65547 0.0
C1353 C 0.48823 0.90316 0.66418 0.0
C1354 C 0.46381 0.92302 0.64394 0.0
H1355 H 0.53376 0.90474 0.69902 0.0
H1356 H 0.48453 0.87445 0.66786 0.0
C1357 C 0.46946 0.96027 0.64011 0.0
C1358 C 0.30761 0.28156 0.87485 0.0
C1359 C 0.33785 0.30067 0.888 0.0
H1360 H 0.2871 0.23066 0.85622 0.0
C1361 C 0.3721 0.28713 0.88145 0.0
H1362 H 0.28083 0.29152 0.87885 0.0
C1363 C 0.37561 0.25247 0.86758 0.0
C1364 C 0.34488 0.23105 0.86076 0.0
H1365 H 0.39591 0.30157 0.8907 0.0
H1366 H 0.40206 0.24104 0.86661 0.0
C1367 C 0.31108 0.24664 0.8619 0.0
C1368 C 0.45028 0.559 0.65434 0.0
C1369 C 0.44628 0.52188 0.64817 0.0
H1370 H 0.48621 0.60448 0.65568 0.0
C1371 C 0.47542 0.50264 0.63478 0.0
H1372 H 0.42819 0.57453 0.66443 0.0
C1373 C 0.50869 0.51962 0.63033 0.0
C1374 C 0.51323 0.55622 0.63868 0.0
H1375 H 0.47316 0.474 0.62965 0.0
H1376 H 0.5311 0.50386 0.62137 0.0
C1377 C 0.48349 0.5761 0.6494 0.0
C1378 C 0.80847 0.19761 0.03888 0.0
C1379 C 0.77152 0.19183 0.04306 0.0
H1380 H 0.85417 0.23021 0.05252 0.0
C1381 C 0.75211 0.21402 0.06625 0.0
H1382 H 0.82395 0.18059 0.02132 0.0
C1383 C 0.76923 0.24294 0.08363 0.0
C1384 C 0.80611 0.24916 0.07882 0.0
H1385 H 0.72349 0.20988 0.06977 0.0
H1386 H 0.75363 0.2608 0.10019 0.0
C1387 C 0.82574 0.22575 0.05703 0.0
C1388 C 0.52072 0.08292 0.83958 0.0
C1389 C 0.5282 0.04725 0.83075 0.0
H1390 H 0.48252 0.11903 0.86127 0.0
C1391 C 0.5044 0.01957 0.84174 0.0
H1392 H 0.53865 0.10465 0.83131 0.0
C1393 C 0.47177 0.02779 0.85787 0.0
C1394 C 0.46321 0.06367 0.86449 0.0
H1395 H 0.5095 -0.0082 0.83497 0.0
H1396 H 0.45234 0.00638 0.86307 0.0
C1397 C 0.48872 0.09103 0.85694 0.0
C1398 C 0.95168 0.91534 0.26376 0.0
C1399 C 0.94693 0.95258 0.2635 0.0
H1400 H 0.98056 0.87161 0.28537 0.0
C1401 C 0.966 0.97445 0.2881 0.0
H1402 H 0.93694 0.89792 0.2453 0.0
C1403 C -0.00852 0.95948 0.31082 0.0
C1404 C -0.00249 0.92238 0.30979 0.0
H1405 H 0.96265 0.0033 0.2884 0.0
H1406 H 0.00742 0.97705 0.3281 0.0
C1407 C 0.97641 0.9003 0.28701 0.0
C1408 C 0.39762 0.33195 0.22277 0.0
C1409 C 0.39816 0.29415 0.2238 0.0
H1410 H 0.39284 0.38081 0.25269 0.0
C1411 C 0.39037 0.27639 0.25609 0.0
H1412 H 0.40321 0.34637 0.19806 0.0
C1413 C 0.38449 0.29616 0.28736 0.0
C1414 C 0.38635 0.33402 0.28684 0.0
H1415 H 0.39044 0.24732 0.25758 0.0
H1416 H 0.37973 0.28168 0.3122 0.0
C1417 C 0.39173 0.35173 0.25403 0.0
C1418 C 0.45197 0.67349 0.97385 0.0
C1419 C 0.42697 0.67894 0.94629 0.0
H1420 H 0.45958 0.65874 0.02893 0.0
C1421 C 0.39156 0.66645 0.95048 0.0
H1422 H 0.47942 0.68318 0.97113 0.0
C1423 C 0.38022 0.65255 0.98329 0.0
C1424 C 0.40403 0.65151 0.01257 0.0
H1425 H 0.37196 0.67024 0.92937 0.0
H1426 H 0.35213 0.64527 -0.01355 0.0
C1427 C 0.44051 0.65991 0.00701 0.0
C1428 C 0.06165 0.65386 0.69638 0.0
C1429 C 0.06014 0.69161 0.69551 0.0
H1430 H 0.07222 0.60708 0.72775 0.0
C1431 C 0.07235 0.71137 0.72552 0.0
H1432 H 0.05252 0.63787 0.67362 0.0
C1433 C 0.08316 0.6937 0.75673 0.0
C1434 C 0.08233 0.6559 0.75846 0.0
H1435 H 0.07147 0.74045 0.72574 0.0
H1436 H 0.09091 0.70971 0.77998 0.0
C1437 C 0.07282 0.63619 0.72746 0.0
C1438 C -0.01522 0.31574 0.46858 0.0
C1439 C 0.00526 0.30734 0.4382 0.0
H1440 H -0.01453 0.33303 0.52347 0.0
C1441 C 0.04223 0.31529 0.4382 0.0
H1442 H 0.95621 0.30995 0.46922 0.0
C1443 C 0.05899 0.32852 0.46913 0.0
C1444 C 0.03908 0.33364 0.50067 0.0
H1445 H 0.05855 0.30948 0.41488 0.0
H1446 H 0.08782 0.33261 0.46888 0.0
C1447 C 0.00161 0.32866 0.49969 0.0
C1448 C 0.41724 0.66511 0.28608 0.0
C1449 C 0.41381 0.70256 0.28961 0.0
H1450 H 0.40925 0.61884 0.25235 0.0
C1451 C 0.39453 0.72126 0.26349 0.0
H1452 H 0.43157 0.64985 0.30603 0.0
C1453 C 0.38186 0.7035 0.23286 0.0
C1454 C 0.38804 0.66669 0.22785 0.0
H1455 H 0.39102 0.75002 0.26561 0.0
H1456 H 0.36882 0.71901 0.21219 0.0
C1457 C 0.40432 0.64726 0.25545 0.0
C1458 C 0.01472 0.63883 0.00597 0.0
C1459 C 0.03462 0.65969 0.03074 0.0
H1460 H 0.01532 0.60943 0.95641 0.0
C1461 C 0.07217 0.66133 0.02766 0.0
H1462 H -0.01423 0.63684 0.00778 0.0
C1463 C 0.08915 0.64546 -0.00165 0.0
C1464 C 0.06882 0.62799 0.97141 0.0
H1465 H 0.08826 0.67688 0.04662 0.0
H1466 H 0.11786 0.64936 -0.00455 0.0
C1467 C 0.03166 0.62322 0.97647 0.0
C1468 C 0.07588 0.32932 0.77656 0.0
C1469 C 0.0632 0.29408 0.78207 0.0
H1470 H 0.09242 0.36875 0.73826 0.0
C1471 C 0.06418 0.26913 0.75365 0.0
H1472 H 0.07582 0.34884 0.79827 0.0
C1473 C 0.0731 0.28064 0.71898 0.0
C1474 C 0.08129 0.3171 0.71276 0.0
H1475 H 0.0545 0.24173 0.75738 0.0
H1476 H 0.07046 0.2618 0.69682 0.0
C1477 C 0.08512 0.34069 0.74218 0.0
C1478 C 0.40636 0.30841 0.54014 0.0
C1479 C 0.44382 0.30576 0.54175 0.0
H1480 H 0.36168 0.33257 0.51461 0.0
C1481 C 0.46534 0.33005 0.52214 0.0
H1482 H 0.38911 0.29049 0.55561 0.0
C1483 C 0.4496 0.35431 0.49865 0.0
C1484 C 0.41212 0.35476 0.49464 0.0
H1485 H 0.4943 0.32893 0.52335 0.0
H1486 H 0.46683 0.37102 0.48189 0.0
C1487 C 0.39062 0.33291 0.517 0.0
C1488 C 0.20018 0.42185 0.33522 0.0
C1489 C 0.19888 0.40907 0.29949 0.0
H1490 H 0.23223 0.42973 0.38268 0.0
C1491 C 0.22777 0.38955 0.28614 0.0
H1492 H 0.17816 0.43673 0.34642 0.0
C1493 C 0.25864 0.38591 0.30675 0.0
C1494 C 0.26111 0.40137 0.34123 0.0
H1495 H 0.22756 0.37904 0.25893 0.0
H1496 H 0.28125 0.37233 0.29501 0.0
C1497 C 0.23107 0.41788 0.35603 0.0
C1498 C 0.34166 0.49187 0.00592 0.0
C1499 C 0.33676 0.45868 0.02308 0.0
H1500 H 0.34792 0.54861 0.01221 0.0
C1501 C 0.33819 0.45704 0.06086 0.0
H1502 H 0.34089 0.49389 0.97686 0.0
C1503 C 0.34188 0.48841 0.08122 0.0
C1504 C 0.34421 0.52188 0.06409 0.0
H1505 H 0.33478 0.43167 0.07479 0.0
H1506 H 0.34151 0.48651 0.1103 0.0
C1507 C 0.34536 0.52321 0.02625 0.0
C1508 C 0.25274 0.59063 0.75449 0.0
C1509 C 0.28191 0.57683 0.77345 0.0
H1510 H 0.19885 0.60882 0.75749 0.0
C1511 C 0.28163 0.57781 0.81125 0.0
H1512 H 0.2523 0.59044 0.72535 0.0
C1513 C 0.25101 0.5883 0.82969 0.0
C1514 C 0.22012 0.5977 0.81058 0.0
H1515 H 0.30396 0.56771 0.82657 0.0
H1516 H 0.25066 0.58621 0.85875 0.0
C1517 C 0.22199 0.60086 0.77293 0.0
C1518 C 0.11851 0.53672 0.57503 0.0
C1519 C 0.13733 0.54042 0.54261 0.0
H1520 H 0.08921 0.50152 0.60986 0.0
C1521 C 0.13527 0.51267 0.51696 0.0
H1522 H 0.1195 0.55797 0.59504 0.0
C1523 C 0.11847 0.47982 0.52568 0.0
C1524 C 0.1034 0.47467 0.56003 0.0
H1525 H 0.14971 0.51502 0.49177 0.0
H1526 H 0.12024 0.45765 0.50685 0.0
C1527 C 0.10129 0.50429 0.58348 0.0
C1528 C 0.22257 0.55585 0.21102 0.0
C1529 C 0.19685 0.54388 0.18591 0.0
H1530 H 0.27309 0.58332 0.2189 0.0
C1531 C 0.19901 0.5558 0.15028 0.0
H1532 H 0.22137 0.54672 0.23865 0.0
C1533 C 0.228 0.57706 0.13909 0.0
C1534 C 0.25596 0.58594 0.16315 0.0
H1535 H 0.17928 0.54694 0.13057 0.0
H1536 H 0.22972 0.58415 0.1109 0.0
C1537 C 0.25217 0.5766 0.19965 0.0
C1538 C 0.189 0.44804 0.89133 0.0
C1539 C 0.19321 0.44352 0.92862 0.0
H1540 H 0.16918 0.48086 0.84893 0.0
C1541 C 0.1764 0.46749 0.95214 0.0
H1542 H 0.20147 0.42987 0.87251 0.0
C1543 C 0.15813 0.497 0.93861 0.0
C1544 C 0.15606 0.50292 0.9013 0.0
H1545 H 0.17913 0.46471 0.981 0.0
H1546 H 0.14701 0.51602 0.95746 0.0
C1547 C 0.17045 0.4773 0.87781 0.0
C1548 C 0.22748 0.42088 0.69956 0.0
C1549 C 0.2558 0.43233 0.67735 0.0
H1550 H 0.17392 0.39973 0.70221 0.0
C1551 C 0.25251 0.42863 0.63985 0.0
H1552 H 0.22939 0.42331 0.72855 0.0
C1553 C 0.2208 0.41516 0.62471 0.0
C1554 C 0.19178 0.4053 0.64681 0.0
H1555 H 0.27408 0.43703 0.62208 0.0
H1556 H 0.2187 0.41358 0.59568 0.0
C1557 C 0.19571 0.40748 0.68442 0.0
C1558 C 0.29951 0.54728 0.42854 0.0
C1559 C 0.30129 0.55126 0.46615 0.0
H1560 H 0.31378 0.51562 0.38278 0.0
C1561 C 0.3241 0.52917 0.48588 0.0
H1562 H 0.2826 0.5643 0.4125 0.0
C1563 C 0.34201 0.50142 0.46883 0.0
C1564 C 0.33755 0.49536 0.43174 0.0
H1565 H 0.32655 0.5319 0.51481 0.0
H1566 H 0.35763 0.48336 0.48506 0.0
C1567 C 0.31762 0.5196 0.41143 0.0
C1568 C 0.26532 0.24532 0.41742 0.0
C1569 C 0.2861 0.21507 0.42383 0.0
H1570 H 0.26523 0.30194 0.40828 0.0
C1571 C 0.32366 0.21827 0.4222 0.0
H1572 H 0.23633 0.24355 0.41846 0.0
C1573 C 0.34025 0.25165 0.41666 0.0
C1574 C 0.31954 0.2824 0.41272 0.0
H1575 H 0.34033 0.19524 0.42675 0.0
H1576 H 0.36926 0.25349 0.4168 0.0
C1577 C 0.28193 0.27877 0.41192 0.0
C1578 C 0.85383 0.28089 0.54238 0.0
C1579 C 0.81701 0.28766 0.5404 0.0
H1580 H 0.89437 0.24669 0.56237 0.0
C1581 C 0.79304 0.26815 0.5623 0.0
H1582 H 0.87295 0.29609 0.52623 0.0
C1583 C 0.80527 0.2396 0.58284 0.0
C1584 C 0.84165 0.23057 0.582 0.0
H1585 H 0.76455 0.27313 0.56149 0.0
H1586 H 0.78592 0.22319 0.59747 0.0
C1587 C 0.86612 0.25274 0.56328 0.0
C1588 C 0.45083 0.04707 0.32072 0.0
C1589 C 0.451 0.00962 0.32571 0.0
H1590 H 0.48101 0.09654 0.32301 0.0
C1591 C 0.48043 -0.00599 0.34253 0.0
H1592 H 0.42819 0.05977 0.30812 0.0
C1593 C 0.51081 0.01499 0.35061 0.0
C1594 C 0.5119 0.05188 0.34241 0.0
H1595 H 0.48118 0.96523 0.34672 0.0
H1596 H 0.53418 0.00197 0.36139 0.0
C1597 C 0.481 0.06812 0.32926 0.0
C1598 C 0.68285 0.67667 0.08469 0.0
C1599 C 0.71742 0.67888 0.06998 0.0
H1600 H 0.6396 0.70506 0.10808 0.0
C1601 C 0.73751 0.71107 0.07338 0.0
H1602 H 0.66698 0.652 0.08285 0.0
C1603 C 0.72165 0.74175 0.08744 0.0
C1604 C 0.68562 0.74048 0.09848 0.0
H1605 H 0.76433 0.71344 0.0624 0.0
H1606 H 0.73684 0.76689 0.08733 0.0
C1607 C 0.66714 0.70716 0.099 0.0
C1608 C 0.50508 0.48354 0.32553 0.0
C1609 C 0.5315 0.45998 0.3137 0.0
H1610 H 0.45472 0.48878 0.35234 0.0
C1611 C 0.52979 0.42388 0.32451 0.0
H1612 H 0.50596 0.51158 0.3178 0.0
C1613 C 0.50079 0.41088 0.34454 0.0
C1614 C 0.47267 0.43366 0.35376 0.0
H1615 H 0.55016 0.40525 0.31626 0.0
H1616 H 0.49947 0.38249 0.35088 0.0
C1617 C 0.47579 0.47045 0.34533 0.0
C1618 C 0.20103 0.75897 0.89432 0.0
C1619 C 0.18171 0.78199 0.9168 0.0
H1620 H 0.20154 0.70875 0.86624 0.0
C1621 C 0.14548 0.77375 0.92412 0.0
H1622 H 0.22889 0.76461 0.88792 0.0
C1623 C 0.1297 0.74178 0.91134 0.0
C1624 C 0.15005 0.71742 0.89145 0.0
H1625 H 0.1298 0.79112 0.94111 0.0
H1626 H 0.10233 0.73517 0.91894 0.0
C1627 C 0.18541 0.72689 0.88197 0.0
C1628 C 0.47934 0.91978 0.17194 0.0
C1629 C 0.45646 0.89461 0.18879 0.0
H1630 H 0.52975 0.9289 0.14573 0.0
C1631 C 0.46441 0.85797 0.1872 0.0
H1632 H 0.4737 0.94821 0.17278 0.0
C1633 C 0.49621 0.84691 0.17164 0.0
C1634 C 0.52085 0.87238 0.15785 0.0
H1635 H 0.44691 0.838 0.19963 0.0
H1636 H 0.50237 0.8186 0.17245 0.0
C1637 C 0.51149 0.90875 0.15671 0.0
C1638 C -0.00047 0.00772 0.65767 0.0
C1639 C 0.03079 0.02674 0.66796 0.0
H1640 H 0.94529 0.01112 0.63955 0.0
C1641 C 0.03322 0.06395 0.66204 0.0
H1642 H -0.00302 0.97898 0.66187 0.0
C1643 C 0.0037 0.08236 0.64931 0.0
C1644 C 0.97113 0.06389 0.6426 0.0
H1645 H 0.05718 0.07921 0.66942 0.0
H1646 H 0.00581 0.11133 0.64694 0.0
C1647 C 0.96983 0.02619 0.64518 0.0
loop_
_geom_bond_atom_site_label_1
_geom_bond_atom_site_label_2
_geom_bond_distance
_geom_bond_site_symmetry_2
_ccdc_geom_bond_type
C0 O1 1.306 . S
C0 O3 1.160 . S
O1 C0 1.306 . S
O1 Cd2 2.228 . S
Cd2 O1 2.228 . S
Cd2 O6 2.273 . S
Cd2 O10 2.277 . S
O3 C0 1.160 . S
O3 Cd4 2.203 1_655 S
Cd4 O3 2.203 1_455 S
Cd4 O6 2.411 1_455 S
Cd4 O7 2.333 . S
Cd4 O8 2.352 . S
Cd4 O12 2.277 . S
Cd4 O13 2.356 . S
C5 O10 1.209 1_455 S
C5 O12 1.226 . S
O6 Cd2 2.273 . S
O6 Cd4 2.411 1_655 S
O6 C9 1.320 . S
O7 Cd4 2.333 . S
O7 C9 1.214 1_455 S
O8 Cd4 2.352 . S
O8 C11 1.258 . S
C9 O6 1.320 . S
C9 O7 1.214 1_655 S
O10 Cd2 2.277 . S
O10 C5 1.209 1_655 S
C11 O8 1.258 . S
C11 O13 1.282 . S
O12 Cd4 2.277 . S
O12 C5 1.226 . S
O13 Cd4 2.356 . S
O13 C11 1.282 . S
C14 O15 1.306 . S
C14 O17 1.160 . S
O15 C14 1.306 . S
O15 Cd16 2.228 1_455 S
Cd16 O15 2.228 1_655 S
Cd16 O20 2.273 . S
Cd16 O24 2.277 . S
O17 C14 1.160 . S
O17 Cd18 2.203 . S
Cd18 O17 2.203 . S
Cd18 O20 2.411 1_455 S
Cd18 O21 2.333 1_455 S
Cd18 O22 2.352 . S
Cd18 O26 2.277 1_455 S
Cd18 O27 2.356 . S
C19 O24 1.209 . S
C19 O26 1.226 . S
O20 Cd16 2.273 . S
O20 Cd18 2.411 1_655 S
O20 C23 1.320 . S
O21 Cd18 2.333 1_655 S
O21 C23 1.214 . S
O22 Cd18 2.352 . S
O22 C25 1.258 . S
C23 O20 1.320 . S
C23 O21 1.214 . S
O24 Cd16 2.277 . S
O24 C19 1.209 . S
C25 O22 1.258 . S
C25 O27 1.282 . S
O26 Cd18 2.277 1_655 S
O26 C19 1.226 . S
O27 Cd18 2.356 . S
O27 C25 1.282 . S
C28 O29 1.306 . S
C28 O31 1.160 . S
O29 C28 1.306 . S
O29 Cd30 2.228 . S
Cd30 O29 2.228 . S
Cd30 O34 2.273 . S
Cd30 O38 2.277 . S
O31 C28 1.160 . S
O31 Cd32 2.203 . S
Cd32 O31 2.203 . S
Cd32 O34 2.411 . S
Cd32 O35 2.333 . S
Cd32 O36 2.352 . S
Cd32 O40 2.277 . S
Cd32 O41 2.356 . S
C33 O38 1.209 . S
C33 O40 1.226 . S
O34 Cd30 2.273 . S
O34 Cd32 2.411 . S
O34 C37 1.320 . S
O35 Cd32 2.333 . S
O35 C37 1.214 . S
O36 Cd32 2.352 . S
O36 C39 1.258 . S
C37 O34 1.320 . S
C37 O35 1.214 . S
O38 Cd30 2.277 . S
O38 C33 1.209 . S
C39 O36 1.258 . S
C39 O41 1.282 . S
O40 Cd32 2.277 . S
O40 C33 1.226 . S
O41 Cd32 2.356 . S
O41 C39 1.282 . S
C42 O43 1.306 . S
C42 O45 1.160 . S
O43 C42 1.306 . S
O43 Cd44 2.228 . S
Cd44 O43 2.228 . S
Cd44 O48 2.273 . S
Cd44 O52 2.277 . S
O45 C42 1.160 . S
O45 Cd46 2.203 . S
Cd46 O45 2.203 . S
Cd46 O48 2.411 . S
Cd46 O49 2.333 . S
Cd46 O50 2.352 . S
Cd46 O54 2.277 . S
Cd46 O55 2.356 . S
C47 O52 1.209 . S
C47 O54 1.226 . S
O48 Cd44 2.273 . S
O48 Cd46 2.411 . S
O48 C51 1.320 . S
O49 Cd46 2.333 . S
O49 C51 1.214 . S
O50 Cd46 2.352 . S
O50 C53 1.258 . S
C51 O48 1.320 . S
C51 O49 1.214 . S
O52 Cd44 2.277 . S
O52 C47 1.209 . S
C53 O50 1.258 . S
C53 O55 1.282 . S
O54 Cd46 2.277 . S
O54 C47 1.226 . S
O55 Cd46 2.356 . S
O55 C53 1.282 . S
C56 O57 1.306 . S
C56 O59 1.160 . S
O57 C56 1.306 . S
O57 Cd58 2.228 . S
Cd58 O57 2.228 . S
Cd58 O62 2.273 . S
Cd58 O66 2.277 . S
O59 C56 1.160 . S
O59 Cd60 2.203 1_655 S
Cd60 O59 2.203 1_455 S
Cd60 O62 2.411 1_455 S
Cd60 O63 2.333 . S
Cd60 O64 2.352 . S
Cd60 O68 2.277 . S
Cd60 O69 2.356 . S
C61 O66 1.209 1_455 S
C61 O68 1.226 . S
O62 Cd58 2.273 . S
O62 Cd60 2.411 1_655 S
O62 C65 1.320 . S
O63 Cd60 2.333 . S
O63 C65 1.214 1_455 S
O64 Cd60 2.352 . S
O64 C67 1.258 . S
C65 O62 1.320 . S
C65 O63 1.214 1_655 S
O66 Cd58 2.277 . S
O66 C61 1.209 1_655 S
C67 O64 1.258 . S
C67 O69 1.282 . S
O68 Cd60 2.277 . S
O68 C61 1.226 . S
O69 Cd60 2.356 . S
O69 C67 1.282 . S
C70 O71 1.306 . S
C70 O73 1.160 . S
O71 C70 1.306 . S
O71 Cd72 2.228 . S
Cd72 O71 2.228 . S
Cd72 O76 2.273 . S
Cd72 O80 2.277 . S
O73 C70 1.160 . S
O73 Cd74 2.203 . S
Cd74 O73 2.203 . S
Cd74 O76 2.411 . S
Cd74 O77 2.333 . S
Cd74 O78 2.352 . S
Cd74 O82 2.277 . S
Cd74 O83 2.356 . S
C75 O80 1.209 . S
C75 O82 1.226 . S
O76 Cd72 2.273 . S
O76 Cd74 2.411 . S
O76 C79 1.320 . S
O77 Cd74 2.333 . S
O77 C79 1.214 . S
O78 Cd74 2.352 . S
O78 C81 1.258 . S
C79 O76 1.320 . S
C79 O77 1.214 . S
O80 Cd72 2.277 . S
O80 C75 1.209 . S
C81 O78 1.258 . S
C81 O83 1.282 . S
O82 Cd74 2.277 . S
O82 C75 1.226 . S
O83 Cd74 2.356 . S
O83 C81 1.282 . S
C84 O85 1.306 . S
C84 O87 1.160 . S
O85 C84 1.306 . S
O85 Cd86 2.228 . S
Cd86 O85 2.228 . S
Cd86 O90 2.273 . S
Cd86 O94 2.277 . S
O87 C84 1.160 . S
O87 Cd88 2.203 . S
Cd88 O87 2.203 . S
Cd88 O90 2.411 . S
Cd88 O91 2.333 . S
Cd88 O92 2.352 . S
Cd88 O96 2.277 . S
Cd88 O97 2.356 . S
C89 O94 1.209 . S
C89 O96 1.226 . S
O90 Cd86 2.273 . S
O90 Cd88 2.411 . S
O90 C93 1.320 . S
O91 Cd88 2.333 . S
O91 C93 1.214 . S
O92 Cd88 2.352 . S
O92 C95 1.258 . S
C93 O90 1.320 . S
C93 O91 1.214 . S
O94 Cd86 2.277 . S
O94 C89 1.209 . S
C95 O92 1.258 . S
C95 O97 1.282 . S
O96 Cd88 2.277 . S
O96 C89 1.226 . S
O97 Cd88 2.356 . S
O97 C95 1.282 . S
C98 O99 1.306 . S
C98 O101 1.160 . S
O99 C98 1.306 . S
O99 Cd100 2.228 1_455 S
Cd100 O99 2.228 1_655 S
Cd100 O104 2.273 . S
Cd100 O108 2.277 . S
O101 C98 1.160 . S
O101 Cd102 2.203 . S
Cd102 O101 2.203 . S
Cd102 O104 2.411 1_455 S
Cd102 O105 2.333 1_455 S
Cd102 O106 2.352 . S
Cd102 O110 2.277 1_455 S
Cd102 O111 2.356 . S
C103 O108 1.209 . S
C103 O110 1.226 . S
O104 Cd100 2.273 . S
O104 Cd102 2.411 1_655 S
O104 C107 1.320 . S
O105 Cd102 2.333 1_655 S
O105 C107 1.214 . S
O106 Cd102 2.352 . S
O106 C109 1.258 . S
C107 O104 1.320 . S
C107 O105 1.214 . S
O108 Cd100 2.277 . S
O108 C103 1.209 . S
C109 O106 1.258 . S
C109 O111 1.282 . S
O110 Cd102 2.277 1_655 S
O110 C103 1.226 . S
O111 Cd102 2.356 . S
O111 C109 1.282 . S
C112 O113 1.306 . S
C112 O115 1.160 . S
O113 C112 1.306 . S
O113 Cd114 2.228 . S
Cd114 O113 2.228 . S
Cd114 O118 2.273 . S
Cd114 O122 2.277 . S
O115 C112 1.160 . S
O115 Cd116 2.203 1_565 S
Cd116 O115 2.203 1_545 S
Cd116 O118 2.411 1_545 S
Cd116 O119 2.333 . S
Cd116 O120 2.352 . S
Cd116 O124 2.277 . S
Cd116 O125 2.356 . S
C117 O122 1.209 1_545 S
C117 O124 1.226 . S
O118 Cd114 2.273 . S
O118 Cd116 2.411 1_565 S
O118 C121 1.320 . S
O119 Cd116 2.333 . S
O119 C121 1.214 1_545 S
O120 Cd116 2.352 . S
O120 C123 1.258 . S
C121 O118 1.320 . S
C121 O119 1.214 1_565 S
O122 Cd114 2.277 . S
O122 C117 1.209 1_565 S
C123 O120 1.258 . S
C123 O125 1.282 . S
O124 Cd116 2.277 . S
O124 C117 1.226 . S
O125 Cd116 2.356 . S
O125 C123 1.282 . S
C126 O127 1.306 . S
C126 O129 1.160 . S
O127 C126 1.306 . S
O127 Cd128 2.228 . S
Cd128 O127 2.228 . S
Cd128 O132 2.273 . S
Cd128 O136 2.277 . S
O129 C126 1.160 . S
O129 Cd130 2.203 . S
Cd130 O129 2.203 . S
Cd130 O132 2.411 . S
Cd130 O133 2.333 . S
Cd130 O134 2.352 . S
Cd130 O138 2.277 . S
Cd130 O139 2.356 . S
C131 O136 1.209 . S
C131 O138 1.226 . S
O132 Cd128 2.273 . S
O132 Cd130 2.411 . S
O132 C135 1.320 . S
O133 Cd130 2.333 . S
O133 C135 1.214 . S
O134 Cd130 2.352 . S
O134 C137 1.258 . S
C135 O132 1.320 . S
C135 O133 1.214 . S
O136 Cd128 2.277 . S
O136 C131 1.209 . S
C137 O134 1.258 . S
C137 O139 1.282 . S
O138 Cd130 2.277 . S
O138 C131 1.226 . S
O139 Cd130 2.356 . S
O139 C137 1.282 . S
C140 O141 1.306 . S
C140 O143 1.160 . S
O141 C140 1.306 . S
O141 Cd142 2.228 . S
Cd142 O141 2.228 . S
Cd142 O146 2.273 . S
Cd142 O150 2.277 . S
O143 C140 1.160 . S
O143 Cd144 2.203 1_565 S
Cd144 O143 2.203 1_545 S
Cd144 O146 2.411 1_545 S
Cd144 O147 2.333 . S
Cd144 O148 2.352 . S
Cd144 O152 2.277 . S
Cd144 O153 2.356 . S
C145 O150 1.209 1_545 S
C145 O152 1.226 . S
O146 Cd142 2.273 . S
O146 Cd144 2.411 1_565 S
O146 C149 1.320 . S
O147 Cd144 2.333 . S
O147 C149 1.214 1_545 S
O148 Cd144 2.352 . S
O148 C151 1.258 . S
C149 O146 1.320 . S
C149 O147 1.214 1_565 S
O150 Cd142 2.277 . S
O150 C145 1.209 1_565 S
C151 O148 1.258 . S
C151 O153 1.282 . S
O152 Cd144 2.277 . S
O152 C145 1.226 . S
O153 Cd144 2.356 . S
O153 C151 1.282 . S
C154 O155 1.306 . S
C154 O157 1.160 . S
O155 C154 1.306 . S
O155 Cd156 2.228 1_554 S
Cd156 O155 2.228 1_556 S
Cd156 O160 2.273 . S
Cd156 O164 2.277 . S
O157 C154 1.160 . S
O157 Cd158 2.203 . S
Cd158 O157 2.203 . S
Cd158 O160 2.411 1_554 S
Cd158 O161 2.333 1_554 S
Cd158 O162 2.352 . S
Cd158 O166 2.277 1_554 S
Cd158 O167 2.356 . S
C159 O164 1.209 . S
C159 O166 1.226 . S
O160 Cd156 2.273 . S
O160 Cd158 2.411 1_556 S
O160 C163 1.320 . S
O161 Cd158 2.333 1_556 S
O161 C163 1.214 . S
O162 Cd158 2.352 . S
O162 C165 1.258 . S
C163 O160 1.320 . S
C163 O161 1.214 . S
O164 Cd156 2.277 . S
O164 C159 1.209 . S
C165 O162 1.258 . S
C165 O167 1.282 . S
O166 Cd158 2.277 1_556 S
O166 C159 1.226 . S
O167 Cd158 2.356 . S
O167 C165 1.282 . S
C168 O169 1.306 . S
C168 O171 1.160 . S
O169 C168 1.306 . S
O169 Cd170 2.228 . S
Cd170 O169 2.228 . S
Cd170 O174 2.273 . S
Cd170 O178 2.277 . S
O171 C168 1.160 . S
O171 Cd172 2.203 1_554 S
Cd172 O171 2.203 1_556 S
Cd172 O174 2.411 1_556 S
Cd172 O175 2.333 . S
Cd172 O176 2.351 1_556 S
Cd172 O180 2.277 . S
Cd172 O181 2.356 . S
C173 O178 1.209 1_556 S
C173 O180 1.226 . S
O174 Cd170 2.273 . S
O174 Cd172 2.411 1_554 S
O174 C177 1.320 . S
O175 Cd172 2.333 . S
O175 C177 1.214 1_556 S
O176 Cd172 2.351 1_554 S
O176 C179 1.256 1_554 S
C177 O174 1.320 . S
C177 O175 1.214 1_554 S
O178 Cd170 2.277 . S
O178 C173 1.209 1_554 S
C179 O176 1.256 1_556 S
C179 O181 1.282 . S
O180 Cd172 2.277 . S
O180 C173 1.226 . S
O181 Cd172 2.356 . S
O181 C179 1.282 . S
C182 O183 1.306 . S
C182 O185 1.160 . S
O183 C182 1.306 . S
O183 Cd184 2.228 . S
Cd184 O183 2.228 . S
Cd184 O188 2.273 . S
Cd184 O192 2.277 . S
O185 C182 1.160 . S
O185 Cd186 2.203 1_554 S
Cd186 O185 2.203 1_556 S
Cd186 O188 2.411 1_556 S
Cd186 O189 2.333 . S
Cd186 O190 2.352 . S
Cd186 O194 2.277 . S
Cd186 O195 2.356 . S
C187 O192 1.209 1_556 S
C187 O194 1.226 . S
O188 Cd184 2.273 . S
O188 Cd186 2.411 1_554 S
O188 C191 1.320 . S
O189 Cd186 2.333 . S
O189 C191 1.214 1_556 S
O190 Cd186 2.352 . S
O190 C193 1.258 . S
C191 O188 1.320 . S
C191 O189 1.214 1_554 S
O192 Cd184 2.277 . S
O192 C187 1.209 1_554 S
C193 O190 1.258 . S
C193 O195 1.282 . S
O194 Cd186 2.277 . S
O194 C187 1.226 . S
O195 Cd186 2.356 . S
O195 C193 1.282 . S
C196 O197 1.306 . S
C196 O199 1.160 . S
O197 C196 1.306 . S
O197 Cd198 2.228 . S
Cd198 O197 2.228 . S
Cd198 O202 2.273 . S
Cd198 O206 2.277 . S
O199 C196 1.160 . S
O199 Cd200 2.203 . S
Cd200 O199 2.203 . S
Cd200 O202 2.411 . S
Cd200 O203 2.333 . S
Cd200 O204 2.352 . S
Cd200 O208 2.277 . S
Cd200 O209 2.356 . S
C201 O206 1.209 . S
C201 O208 1.226 . S
O202 Cd198 2.273 . S
O202 Cd200 2.411 . S
O202 C205 1.320 . S
O203 Cd200 2.333 . S
O203 C205 1.214 . S
O204 Cd200 2.352 . S
O204 C207 1.258 . S
C205 O202 1.320 . S
C205 O203 1.214 . S
O206 Cd198 2.277 . S
O206 C201 1.209 . S
C207 O204 1.258 . S
C207 O209 1.282 . S
O208 Cd200 2.277 . S
O208 C201 1.226 . S
O209 Cd200 2.356 . S
O209 C207 1.282 . S
C210 O211 1.306 . S
C210 O213 1.160 . S
O211 C210 1.306 . S
O211 Cd212 2.228 . S
Cd212 O211 2.228 . S
Cd212 O216 2.273 . S
Cd212 O220 2.277 . S
O213 C210 1.160 . S
O213 Cd214 2.203 . S
Cd214 O213 2.203 . S
Cd214 O216 2.411 . S
Cd214 O217 2.333 . S
Cd214 O218 2.352 . S
Cd214 O222 2.277 . S
Cd214 O223 2.356 . S
C215 O220 1.209 . S
C215 O222 1.226 . S
O216 Cd212 2.273 . S
O216 Cd214 2.411 . S
O216 C219 1.320 . S
O217 Cd214 2.333 . S
O217 C219 1.214 . S
O218 Cd214 2.352 . S
O218 C221 1.258 . S
C219 O216 1.320 . S
C219 O217 1.214 . S
O220 Cd212 2.277 . S
O220 C215 1.209 . S
C221 O218 1.258 . S
C221 O223 1.282 . S
O222 Cd214 2.277 . S
O222 C215 1.226 . S
O223 Cd214 2.356 . S
O223 C221 1.282 . S
C224 O225 1.306 . S
C224 O227 1.160 . S
O225 C224 1.306 . S
O225 Cd226 2.228 1_545 S
Cd226 O225 2.228 1_565 S
Cd226 O230 2.273 . S
Cd226 O234 2.277 . S
O227 C224 1.160 . S
O227 Cd228 2.203 . S
Cd228 O227 2.203 . S
Cd228 O230 2.411 1_545 S
Cd228 O231 2.333 1_545 S
Cd228 O232 2.352 . S
Cd228 O236 2.277 1_545 S
Cd228 O237 2.356 . S
C229 O234 1.209 . S
C229 O236 1.226 . S
O230 Cd226 2.273 . S
O230 Cd228 2.411 1_565 S
O230 C233 1.320 . S
O231 Cd228 2.333 1_565 S
O231 C233 1.214 . S
O232 Cd228 2.352 . S
O232 C235 1.258 . S
C233 O230 1.320 . S
C233 O231 1.214 . S
O234 Cd226 2.277 . S
O234 C229 1.209 . S
C235 O232 1.258 . S
C235 O237 1.282 . S
O236 Cd228 2.277 1_565 S
O236 C229 1.226 . S
O237 Cd228 2.356 . S
O237 C235 1.282 . S
C238 O239 1.306 . S
C238 O241 1.160 . S
O239 C238 1.306 . S
O239 Cd240 2.228 . S
Cd240 O239 2.228 . S
Cd240 O244 2.273 . S
Cd240 O248 2.277 . S
O241 C238 1.160 . S
O241 Cd242 2.203 . S
Cd242 O241 2.203 . S
Cd242 O244 2.411 . S
Cd242 O245 2.333 . S
Cd242 O246 2.352 . S
Cd242 O250 2.277 . S
Cd242 O251 2.356 . S
C243 O248 1.209 . S
C243 O250 1.226 . S
O244 Cd240 2.273 . S
O244 Cd242 2.411 . S
O244 C247 1.320 . S
O245 Cd242 2.333 . S
O245 C247 1.214 . S
O246 Cd242 2.352 . S
O246 C249 1.258 . S
C247 O244 1.320 . S
C247 O245 1.214 . S
O248 Cd240 2.277 . S
O248 C243 1.209 . S
C249 O246 1.258 . S
C249 O251 1.282 . S
O250 Cd242 2.277 . S
O250 C243 1.226 . S
O251 Cd242 2.356 . S
O251 C249 1.282 . S
C252 O253 1.306 . S
C252 O255 1.160 . S
O253 C252 1.306 . S
O253 Cd254 2.228 . S
Cd254 O253 2.228 . S
Cd254 O258 2.273 . S
Cd254 O262 2.277 . S
O255 C252 1.160 . S
O255 Cd256 2.203 . S
Cd256 O255 2.203 . S
Cd256 O258 2.411 . S
Cd256 O259 2.333 . S
Cd256 O260 2.352 . S
Cd256 O264 2.277 . S
Cd256 O265 2.356 . S
C257 O262 1.209 . S
C257 O264 1.226 . S
O258 Cd254 2.273 . S
O258 Cd256 2.411 . S
O258 C261 1.320 . S
O259 Cd256 2.333 . S
O259 C261 1.214 . S
O260 Cd256 2.352 . S
O260 C263 1.258 . S
C261 O258 1.320 . S
C261 O259 1.214 . S
O262 Cd254 2.277 . S
O262 C257 1.209 . S
C263 O260 1.258 . S
C263 O265 1.282 . S
O264 Cd256 2.277 . S
O264 C257 1.226 . S
O265 Cd256 2.356 . S
O265 C263 1.282 . S
C266 O267 1.306 . S
C266 O269 1.160 . S
O267 C266 1.306 . S
O267 Cd268 2.228 1_545 S
Cd268 O267 2.228 1_565 S
Cd268 O272 2.273 . S
Cd268 O276 2.277 . S
O269 C266 1.160 . S
O269 Cd270 2.203 . S
Cd270 O269 2.203 . S
Cd270 O272 2.411 1_545 S
Cd270 O273 2.333 1_545 S
Cd270 O274 2.352 . S
Cd270 O278 2.277 1_545 S
Cd270 O279 2.356 . S
C271 O276 1.209 . S
C271 O278 1.226 . S
O272 Cd268 2.273 . S
O272 Cd270 2.411 1_565 S
O272 C275 1.320 . S
O273 Cd270 2.333 1_565 S
O273 C275 1.214 . S
O274 Cd270 2.352 . S
O274 C277 1.258 . S
C275 O272 1.320 . S
C275 O273 1.214 . S
O276 Cd268 2.277 . S
O276 C271 1.209 . S
C277 O274 1.258 . S
C277 O279 1.282 . S
O278 Cd270 2.277 1_565 S
O278 C271 1.226 . S
O279 Cd270 2.356 . S
O279 C277 1.282 . S
C280 O281 1.306 . S
C280 O283 1.160 . S
O281 C280 1.306 . S
O281 Cd282 2.228 1_554 S
Cd282 O281 2.228 1_556 S
Cd282 O286 2.273 . S
Cd282 O290 2.277 . S
O283 C280 1.160 . S
O283 Cd284 2.203 . S
Cd284 O283 2.203 . S
Cd284 O286 2.411 1_554 S
Cd284 O287 2.333 1_554 S
Cd284 O288 2.352 . S
Cd284 O292 2.277 1_554 S
Cd284 O293 2.356 . S
C285 O290 1.209 . S
C285 O292 1.226 . S
O286 Cd282 2.273 . S
O286 Cd284 2.411 1_556 S
O286 C289 1.320 . S
O287 Cd284 2.333 1_556 S
O287 C289 1.214 . S
O288 Cd284 2.352 . S
O288 C291 1.258 . S
C289 O286 1.320 . S
C289 O287 1.214 . S
O290 Cd282 2.277 . S
O290 C285 1.209 . S
C291 O288 1.258 . S
C291 O293 1.282 . S
O292 Cd284 2.277 1_556 S
O292 C285 1.226 . S
O293 Cd284 2.356 . S
O293 C291 1.282 . S
C294 O295 1.306 . S
C294 O297 1.160 . S
O295 C294 1.306 . S
O295 Cd296 2.228 . S
Cd296 O295 2.228 . S
Cd296 O300 2.273 . S
Cd296 O304 2.277 . S
O297 C294 1.160 . S
O297 Cd298 2.203 . S
Cd298 O297 2.203 . S
Cd298 O300 2.411 . S
Cd298 O301 2.333 . S
Cd298 O302 2.352 . S
Cd298 O306 2.277 . S
Cd298 O307 2.356 . S
C299 O304 1.209 . S
C299 O306 1.226 . S
O300 Cd296 2.273 . S
O300 Cd298 2.411 . S
O300 C303 1.320 . S
O301 Cd298 2.333 . S
O301 C303 1.214 . S
O302 Cd298 2.352 . S
O302 C305 1.258 . S
C303 O300 1.320 . S
C303 O301 1.214 . S
O304 Cd296 2.277 . S
O304 C299 1.209 . S
C305 O302 1.258 . S
C305 O307 1.282 . S
O306 Cd298 2.277 . S
O306 C299 1.226 . S
O307 Cd298 2.356 . S
O307 C305 1.282 . S
C308 O309 1.306 . S
C308 O311 1.160 . S
O309 C308 1.306 . S
O309 Cd310 2.228 . S
Cd310 O309 2.228 . S
Cd310 O314 2.273 . S
Cd310 O318 2.277 . S
O311 C308 1.160 . S
O311 Cd312 2.203 . S
Cd312 O311 2.203 . S
Cd312 O314 2.411 . S
Cd312 O315 2.333 . S
Cd312 O316 2.352 . S
Cd312 O320 2.277 . S
Cd312 O321 2.356 . S
C313 O318 1.209 . S
C313 O320 1.226 . S
O314 Cd310 2.273 . S
O314 Cd312 2.411 . S
O314 C317 1.320 . S
O315 Cd312 2.333 . S
O315 C317 1.214 . S
O316 Cd312 2.352 . S
O316 C319 1.258 . S
C317 O314 1.320 . S
C317 O315 1.214 . S
O318 Cd310 2.277 . S
O318 C313 1.209 . S
C319 O316 1.258 . S
C319 O321 1.282 . S
O320 Cd312 2.277 . S
O320 C313 1.226 . S
O321 Cd312 2.356 . S
O321 C319 1.282 . S
C322 O323 1.306 . S
C322 O325 1.160 . S
O323 C322 1.306 . S
O323 Cd324 2.228 . S
Cd324 O323 2.228 . S
Cd324 O328 2.273 . S
Cd324 O332 2.277 . S
O325 C322 1.160 . S
O325 Cd326 2.203 . S
Cd326 O325 2.203 . S
Cd326 O328 2.411 . S
Cd326 O329 2.333 . S
Cd326 O330 2.352 . S
Cd326 O334 2.277 . S
Cd326 O335 2.356 . S
C327 O332 1.209 . S
C327 O334 1.226 . S
O328 Cd324 2.273 . S
O328 Cd326 2.411 . S
O328 C331 1.320 . S
O329 Cd326 2.333 . S
O329 C331 1.214 . S
O330 Cd326 2.352 . S
O330 C333 1.258 . S
C331 O328 1.320 . S
C331 O329 1.214 . S
O332 Cd324 2.277 . S
O332 C327 1.209 . S
C333 O330 1.258 . S
C333 O335 1.282 . S
O334 Cd326 2.277 . S
O334 C327 1.226 . S
O335 Cd326 2.356 . S
O335 C333 1.282 . S
Fe336 O338 1.918 . S
Fe336 O341 1.997 . S
Fe336 O342 2.002 . S
Fe336 O347 1.976 . S
Fe336 O350 1.996 . S
Fe337 O338 1.918 . S
Fe337 O345 1.997 . S
Fe337 O348 1.996 . S
Fe337 O352 1.976 . S
Fe337 O355 2.002 . S
O338 Fe336 1.918 . S
O338 Fe337 1.918 . S
O338 Fe339 1.918 . S
Fe339 O338 1.918 . S
Fe339 O340 2.002 . S
Fe339 O349 1.976 . S
Fe339 O353 1.996 . S
Fe339 O356 1.997 . S
O340 Fe339 2.002 . S
O340 C357 1.295 . S
O341 Fe336 1.997 . S
O341 C357 1.235 . S
O342 Fe336 2.002 . S
O342 C343 1.295 . S
C343 O342 1.295 . S
C343 O345 1.235 . S
C344 O349 1.287 . S
C344 O350 1.255 . S
O345 Fe337 1.997 . S
O345 C343 1.235 . S
C346 O352 1.287 . S
C346 O353 1.255 . S
O347 Fe336 1.976 . S
O347 C354 1.287 . S
O348 Fe337 1.996 . S
O348 C354 1.255 . S
O349 Fe339 1.976 . S
O349 C344 1.287 . S
O350 Fe336 1.996 . S
O350 C344 1.255 . S
C351 O355 1.295 . S
C351 O356 1.235 . S
O352 Fe337 1.976 . S
O352 C346 1.287 . S
O353 Fe339 1.996 . S
O353 C346 1.255 . S
C354 O347 1.287 . S
C354 O348 1.255 . S
O355 Fe337 2.002 . S
O355 C351 1.295 . S
O356 Fe339 1.997 . S
O356 C351 1.235 . S
C357 O340 1.295 . S
C357 O341 1.235 . S
Fe358 O360 1.918 . S
Fe358 O363 1.997 . S
Fe358 O364 2.002 . S
Fe358 O369 1.976 . S
Fe358 O372 1.996 . S
Fe359 O360 1.918 . S
Fe359 O367 1.997 . S
Fe359 O370 1.996 . S
Fe359 O374 1.976 . S
Fe359 O377 2.002 . S
O360 Fe358 1.918 . S
O360 Fe359 1.918 . S
O360 Fe361 1.918 . S
Fe361 O360 1.918 . S
Fe361 O362 2.002 . S
Fe361 O371 1.976 . S
Fe361 O375 1.996 . S
Fe361 O378 1.997 . S
O362 Fe361 2.002 . S
O362 C379 1.295 . S
O363 Fe358 1.997 . S
O363 C379 1.235 . S
O364 Fe358 2.002 . S
O364 C365 1.295 . S
C365 O364 1.295 . S
C365 O367 1.235 . S
C366 O371 1.287 . S
C366 O372 1.255 . S
O367 Fe359 1.997 . S
O367 C365 1.235 . S
C368 O374 1.287 . S
C368 O375 1.255 . S
O369 Fe358 1.976 . S
O369 C376 1.287 . S
O370 Fe359 1.996 . S
O370 C376 1.255 . S
O371 Fe361 1.976 . S
O371 C366 1.287 . S
O372 Fe358 1.996 . S
O372 C366 1.255 . S
C373 O377 1.295 . S
C373 O378 1.235 . S
O374 Fe359 1.976 . S
O374 C368 1.287 . S
O375 Fe361 1.996 . S
O375 C368 1.255 . S
C376 O369 1.287 . S
C376 O370 1.255 . S
O377 Fe359 2.002 . S
O377 C373 1.295 . S
O378 Fe361 1.997 . S
O378 C373 1.235 . S
C379 O362 1.295 . S
C379 O363 1.235 . S
Fe380 O382 1.918 . S
Fe380 O385 1.997 . S
Fe380 O386 2.002 . S
Fe380 O391 1.976 . S
Fe380 O394 1.996 . S
Fe381 O382 1.918 . S
Fe381 O389 1.997 . S
Fe381 O392 1.996 . S
Fe381 O396 1.976 . S
Fe381 O399 2.002 . S
O382 Fe380 1.918 . S
O382 Fe381 1.918 . S
O382 Fe383 1.918 . S
Fe383 O382 1.918 . S
Fe383 O384 2.002 . S
Fe383 O393 1.976 . S
Fe383 O397 1.996 . S
Fe383 O400 1.997 . S
O384 Fe383 2.002 . S
O384 C401 1.295 . S
O385 Fe380 1.997 . S
O385 C401 1.235 . S
O386 Fe380 2.002 . S
O386 C387 1.295 . S
C387 O386 1.295 . S
C387 O389 1.235 . S
C388 O393 1.287 . S
C388 O394 1.255 . S
O389 Fe381 1.997 . S
O389 C387 1.235 . S
C390 O396 1.287 . S
C390 O397 1.255 . S
O391 Fe380 1.976 . S
O391 C398 1.287 . S
O392 Fe381 1.996 . S
O392 C398 1.255 . S
O393 Fe383 1.976 . S
O393 C388 1.287 . S
O394 Fe380 1.996 . S
O394 C388 1.255 . S
C395 O399 1.295 . S
C395 O400 1.235 . S
O396 Fe381 1.976 . S
O396 C390 1.287 . S
O397 Fe383 1.996 . S
O397 C390 1.255 . S
C398 O391 1.287 . S
C398 O392 1.255 . S
O399 Fe381 2.002 . S
O399 C395 1.295 . S
O400 Fe383 1.997 . S
O400 C395 1.235 . S
C401 O384 1.295 . S
C401 O385 1.235 . S
Fe402 O404 1.918 . S
Fe402 O407 1.997 . S
Fe402 O408 2.002 . S
Fe402 O413 1.976 . S
Fe402 O416 1.996 . S
Fe403 O404 1.918 . S
Fe403 O411 1.997 . S
Fe403 O414 1.996 . S
Fe403 O418 1.976 . S
Fe403 O421 2.002 . S
O404 Fe402 1.918 . S
O404 Fe403 1.918 . S
O404 Fe405 1.918 . S
Fe405 O404 1.918 . S
Fe405 O406 2.002 . S
Fe405 O415 1.976 . S
Fe405 O419 1.996 . S
Fe405 O422 1.997 . S
O406 Fe405 2.002 . S
O406 C423 1.295 . S
O407 Fe402 1.997 . S
O407 C423 1.235 . S
O408 Fe402 2.002 . S
O408 C409 1.295 . S
C409 O408 1.295 . S
C409 O411 1.235 . S
C410 O415 1.287 . S
C410 O416 1.255 . S
O411 Fe403 1.997 . S
O411 C409 1.235 . S
C412 O418 1.287 . S
C412 O419 1.255 . S
O413 Fe402 1.976 . S
O413 C420 1.287 . S
O414 Fe403 1.996 . S
O414 C420 1.255 . S
O415 Fe405 1.976 . S
O415 C410 1.287 . S
O416 Fe402 1.996 . S
O416 C410 1.255 . S
C417 O421 1.295 . S
C417 O422 1.235 . S
O418 Fe403 1.976 . S
O418 C412 1.287 . S
O419 Fe405 1.996 . S
O419 C412 1.255 . S
C420 O413 1.287 . S
C420 O414 1.255 . S
O421 Fe403 2.002 . S
O421 C417 1.295 . S
O422 Fe405 1.997 . S
O422 C417 1.235 . S
C423 O406 1.295 . S
C423 O407 1.235 . S
Fe424 O426 1.918 . S
Fe424 O429 1.997 . S
Fe424 O430 2.002 . S
Fe424 O435 1.976 . S
Fe424 O438 1.996 . S
Fe425 O426 1.918 . S
Fe425 O433 1.997 . S
Fe425 O436 1.996 . S
Fe425 O440 1.976 . S
Fe425 O443 2.002 . S
O426 Fe424 1.918 . S
O426 Fe425 1.918 . S
O426 Fe427 1.918 . S
Fe427 O426 1.918 . S
Fe427 O428 2.002 . S
Fe427 O437 1.976 . S
Fe427 O441 1.996 . S
Fe427 O444 1.997 . S
O428 Fe427 2.002 . S
O428 C445 1.295 . S
O429 Fe424 1.997 . S
O429 C445 1.235 . S
O430 Fe424 2.002 . S
O430 C431 1.295 . S
C431 O430 1.295 . S
C431 O433 1.235 . S
C432 O437 1.287 . S
C432 O438 1.255 . S
O433 Fe425 1.997 . S
O433 C431 1.235 . S
C434 O440 1.287 . S
C434 O441 1.255 . S
O435 Fe424 1.976 . S
O435 C442 1.287 . S
O436 Fe425 1.996 . S
O436 C442 1.255 . S
O437 Fe427 1.976 . S
O437 C432 1.287 . S
O438 Fe424 1.996 . S
O438 C432 1.255 . S
C439 O443 1.295 . S
C439 O444 1.235 . S
O440 Fe425 1.976 . S
O440 C434 1.287 . S
O441 Fe427 1.996 . S
O441 C434 1.255 . S
C442 O435 1.287 . S
C442 O436 1.255 . S
O443 Fe425 2.002 . S
O443 C439 1.295 . S
O444 Fe427 1.997 . S
O444 C439 1.235 . S
C445 O428 1.295 . S
C445 O429 1.235 . S
Fe446 O448 1.918 . S
Fe446 O451 1.997 . S
Fe446 O452 2.002 . S
Fe446 O457 1.976 . S
Fe446 O460 1.996 . S
Fe447 O448 1.918 . S
Fe447 O455 1.997 . S
Fe447 O458 1.996 . S
Fe447 O462 1.976 . S
Fe447 O465 2.002 . S
O448 Fe446 1.918 . S
O448 Fe447 1.918 . S
O448 Fe449 1.918 . S
Fe449 O448 1.918 . S
Fe449 O450 2.002 . S
Fe449 O459 1.976 . S
Fe449 O463 1.996 . S
Fe449 O466 1.997 . S
O450 Fe449 2.002 . S
O450 C467 1.295 . S
O451 Fe446 1.997 . S
O451 C467 1.235 . S
O452 Fe446 2.002 . S
O452 C453 1.295 . S
C453 O452 1.295 . S
C453 O455 1.235 . S
C454 O459 1.287 . S
C454 O460 1.255 . S
O455 Fe447 1.997 . S
O455 C453 1.235 . S
C456 O462 1.287 . S
C456 O463 1.255 . S
O457 Fe446 1.976 . S
O457 C464 1.287 . S
O458 Fe447 1.996 . S
O458 C464 1.255 . S
O459 Fe449 1.976 . S
O459 C454 1.287 . S
O460 Fe446 1.996 . S
O460 C454 1.255 . S
C461 O465 1.295 . S
C461 O466 1.235 . S
O462 Fe447 1.976 . S
O462 C456 1.287 . S
O463 Fe449 1.996 . S
O463 C456 1.255 . S
C464 O457 1.287 . S
C464 O458 1.255 . S
O465 Fe447 2.002 . S
O465 C461 1.295 . S
O466 Fe449 1.997 . S
O466 C461 1.235 . S
C467 O450 1.295 . S
C467 O451 1.235 . S
Fe468 O470 1.918 . S
Fe468 O473 1.997 . S
Fe468 O474 2.002 . S
Fe468 O479 1.976 . S
Fe468 O482 1.996 . S
Fe469 O470 1.918 . S
Fe469 O477 1.997 . S
Fe469 O480 1.996 . S
Fe469 O484 1.976 . S
Fe469 O487 2.002 . S
O470 Fe468 1.918 . S
O470 Fe469 1.918 . S
O470 Fe471 1.918 . S
Fe471 O470 1.918 . S
Fe471 O472 2.002 . S
Fe471 O481 1.976 . S
Fe471 O485 1.996 . S
Fe471 O488 1.997 . S
O472 Fe471 2.002 . S
O472 C489 1.295 . S
O473 Fe468 1.997 . S
O473 C489 1.235 . S
O474 Fe468 2.002 . S
O474 C475 1.295 . S
C475 O474 1.295 . S
C475 O477 1.235 . S
C476 O481 1.287 . S
C476 O482 1.255 . S
O477 Fe469 1.997 . S
O477 C475 1.235 . S
C478 O484 1.287 . S
C478 O485 1.255 . S
O479 Fe468 1.976 . S
O479 C486 1.287 . S
O480 Fe469 1.996 . S
O480 C486 1.255 . S
O481 Fe471 1.976 . S
O481 C476 1.287 . S
O482 Fe468 1.996 . S
O482 C476 1.255 . S
C483 O487 1.295 . S
C483 O488 1.235 . S
O484 Fe469 1.976 . S
O484 C478 1.287 . S
O485 Fe471 1.996 . S
O485 C478 1.255 . S
C486 O479 1.287 . S
C486 O480 1.255 . S
O487 Fe469 2.002 . S
O487 C483 1.295 . S
O488 Fe471 1.997 . S
O488 C483 1.235 . S
C489 O472 1.295 . S
C489 O473 1.235 . S
Fe490 O492 1.918 . S
Fe490 O495 1.997 . S
Fe490 O496 2.002 . S
Fe490 O501 1.976 . S
Fe490 O504 1.996 . S
Fe491 O492 1.918 . S
Fe491 O499 1.997 . S
Fe491 O502 1.996 . S
Fe491 O506 1.976 . S
Fe491 O509 2.002 . S
O492 Fe490 1.918 . S
O492 Fe491 1.918 . S
O492 Fe493 1.918 . S
Fe493 O492 1.918 . S
Fe493 O494 2.002 . S
Fe493 O503 1.976 . S
Fe493 O507 1.996 . S
Fe493 O510 1.997 . S
O494 Fe493 2.002 . S
O494 C511 1.295 . S
O495 Fe490 1.997 . S
O495 C511 1.235 . S
O496 Fe490 2.002 . S
O496 C497 1.295 . S
C497 O496 1.295 . S
C497 O499 1.235 . S
C498 O503 1.287 . S
C498 O504 1.255 . S
O499 Fe491 1.997 . S
O499 C497 1.235 . S
C500 O506 1.287 . S
C500 O507 1.255 . S
O501 Fe490 1.976 . S
O501 C508 1.287 . S
O502 Fe491 1.996 . S
O502 C508 1.255 . S
O503 Fe493 1.976 . S
O503 C498 1.287 . S
O504 Fe490 1.996 . S
O504 C498 1.255 . S
C505 O509 1.295 . S
C505 O510 1.235 . S
O506 Fe491 1.976 . S
O506 C500 1.287 . S
O507 Fe493 1.996 . S
O507 C500 1.255 . S
C508 O501 1.287 . S
C508 O502 1.255 . S
O509 Fe491 2.002 . S
O509 C505 1.295 . S
O510 Fe493 1.997 . S
O510 C505 1.235 . S
C511 O494 1.295 . S
C511 O495 1.235 . S
Fe512 O514 1.918 . S
Fe512 O517 1.997 . S
Fe512 O518 2.002 . S
Fe512 O523 1.976 . S
Fe512 O526 1.996 . S
Fe513 O514 1.918 . S
Fe513 O521 1.997 . S
Fe513 O524 1.996 . S
Fe513 O528 1.976 . S
Fe513 O531 2.002 . S
O514 Fe512 1.918 . S
O514 Fe513 1.918 . S
O514 Fe515 1.918 . S
Fe515 O514 1.918 . S
Fe515 O516 2.002 . S
Fe515 O525 1.976 . S
Fe515 O529 1.996 . S
Fe515 O532 1.997 . S
O516 Fe515 2.002 . S
O516 C533 1.295 . S
O517 Fe512 1.997 . S
O517 C533 1.235 . S
O518 Fe512 2.002 . S
O518 C519 1.295 . S
C519 O518 1.295 . S
C519 O521 1.235 . S
C520 O525 1.287 . S
C520 O526 1.255 . S
O521 Fe513 1.997 . S
O521 C519 1.235 . S
C522 O528 1.287 . S
C522 O529 1.255 . S
O523 Fe512 1.976 . S
O523 C530 1.287 . S
O524 Fe513 1.996 . S
O524 C530 1.255 . S
O525 Fe515 1.976 . S
O525 C520 1.287 . S
O526 Fe512 1.996 . S
O526 C520 1.255 . S
C527 O531 1.295 . S
C527 O532 1.235 . S
O528 Fe513 1.976 . S
O528 C522 1.287 . S
O529 Fe515 1.996 . S
O529 C522 1.255 . S
C530 O523 1.287 . S
C530 O524 1.255 . S
O531 Fe513 2.002 . S
O531 C527 1.295 . S
O532 Fe515 1.997 . S
O532 C527 1.235 . S
C533 O516 1.295 . S
C533 O517 1.235 . S
Fe534 O536 1.918 . S
Fe534 O539 1.997 . S
Fe534 O540 2.002 . S
Fe534 O545 1.976 . S
Fe534 O548 1.996 . S
Fe535 O536 1.918 . S
Fe535 O543 1.997 . S
Fe535 O546 1.996 . S
Fe535 O550 1.976 . S
Fe535 O553 2.002 . S
O536 Fe534 1.918 . S
O536 Fe535 1.918 . S
O536 Fe537 1.918 . S
Fe537 O536 1.918 . S
Fe537 O538 2.002 . S
Fe537 O547 1.976 . S
Fe537 O551 1.996 . S
Fe537 O554 1.997 . S
O538 Fe537 2.002 . S
O538 C555 1.295 . S
O539 Fe534 1.997 . S
O539 C555 1.235 . S
O540 Fe534 2.002 . S
O540 C541 1.295 . S
C541 O540 1.295 . S
C541 O543 1.235 . S
C542 O547 1.287 . S
C542 O548 1.255 . S
O543 Fe535 1.997 . S
O543 C541 1.235 . S
C544 O550 1.287 . S
C544 O551 1.255 . S
O545 Fe534 1.976 . S
O545 C552 1.287 . S
O546 Fe535 1.996 . S
O546 C552 1.255 . S
O547 Fe537 1.976 . S
O547 C542 1.287 . S
O548 Fe534 1.996 . S
O548 C542 1.255 . S
C549 O553 1.295 . S
C549 O554 1.235 . S
O550 Fe535 1.976 . S
O550 C544 1.287 . S
O551 Fe537 1.996 . S
O551 C544 1.255 . S
C552 O545 1.287 . S
C552 O546 1.255 . S
O553 Fe535 2.002 . S
O553 C549 1.295 . S
O554 Fe537 1.997 . S
O554 C549 1.235 . S
C555 O538 1.295 . S
C555 O539 1.235 . S
Fe556 O558 1.918 . S
Fe556 O561 1.997 . S
Fe556 O562 2.002 . S
Fe556 O567 1.976 . S
Fe556 O570 1.996 . S
Fe557 O558 1.918 . S
Fe557 O565 1.997 . S
Fe557 O568 1.996 . S
Fe557 O572 1.976 . S
Fe557 O575 2.002 . S
O558 Fe556 1.918 . S
O558 Fe557 1.918 . S
O558 Fe559 1.918 . S
Fe559 O558 1.918 . S
Fe559 O560 2.002 . S
Fe559 O569 1.976 . S
Fe559 O573 1.996 . S
Fe559 O576 1.997 . S
O560 Fe559 2.002 . S
O560 C577 1.295 . S
O561 Fe556 1.997 . S
O561 C577 1.235 . S
O562 Fe556 2.002 . S
O562 C563 1.295 . S
C563 O562 1.295 . S
C563 O565 1.235 . S
C564 O569 1.287 . S
C564 O570 1.255 . S
O565 Fe557 1.997 . S
O565 C563 1.235 . S
C566 O572 1.287 . S
C566 O573 1.255 . S
O567 Fe556 1.976 . S
O567 C574 1.287 . S
O568 Fe557 1.996 . S
O568 C574 1.255 . S
O569 Fe559 1.976 . S
O569 C564 1.287 . S
O570 Fe556 1.996 . S
O570 C564 1.255 . S
C571 O575 1.295 . S
C571 O576 1.235 . S
O572 Fe557 1.976 . S
O572 C566 1.287 . S
O573 Fe559 1.996 . S
O573 C566 1.255 . S
C574 O567 1.287 . S
C574 O568 1.255 . S
O575 Fe557 2.002 . S
O575 C571 1.295 . S
O576 Fe559 1.997 . S
O576 C571 1.235 . S
C577 O560 1.295 . S
C577 O561 1.235 . S
Fe578 O580 1.918 . S
Fe578 O583 1.997 . S
Fe578 O584 2.002 . S
Fe578 O589 1.976 . S
Fe578 O592 1.996 . S
Fe579 O580 1.918 . S
Fe579 O587 1.997 . S
Fe579 O590 1.996 . S
Fe579 O594 1.976 . S
Fe579 O597 2.002 . S
O580 Fe578 1.918 . S
O580 Fe579 1.918 . S
O580 Fe581 1.918 . S
Fe581 O580 1.918 . S
Fe581 O582 2.002 . S
Fe581 O591 1.976 . S
Fe581 O595 1.996 . S
Fe581 O598 1.997 . S
O582 Fe581 2.002 . S
O582 C599 1.295 . S
O583 Fe578 1.997 . S
O583 C599 1.235 . S
O584 Fe578 2.002 . S
O584 C585 1.295 . S
C585 O584 1.295 . S
C585 O587 1.235 . S
C586 O591 1.287 . S
C586 O592 1.255 . S
O587 Fe579 1.997 . S
O587 C585 1.235 . S
C588 O594 1.287 . S
C588 O595 1.255 . S
O589 Fe578 1.976 . S
O589 C596 1.287 . S
O590 Fe579 1.996 . S
O590 C596 1.255 . S
O591 Fe581 1.976 . S
O591 C586 1.287 . S
O592 Fe578 1.996 . S
O592 C586 1.255 . S
C593 O597 1.295 . S
C593 O598 1.235 . S
O594 Fe579 1.976 . S
O594 C588 1.287 . S
O595 Fe581 1.996 . S
O595 C588 1.255 . S
C596 O589 1.287 . S
C596 O590 1.255 . S
O597 Fe579 2.002 . S
O597 C593 1.295 . S
O598 Fe581 1.997 . S
O598 C593 1.235 . S
C599 O582 1.295 . S
C599 O583 1.235 . S
Fe600 O602 1.918 . S
Fe600 O605 1.997 . S
Fe600 O606 2.002 . S
Fe600 O611 1.976 . S
Fe600 O614 1.996 . S
Fe601 O602 1.918 . S
Fe601 O609 1.997 . S
Fe601 O612 1.996 . S
Fe601 O616 1.976 . S
Fe601 O619 2.002 . S
O602 Fe600 1.918 . S
O602 Fe601 1.918 . S
O602 Fe603 1.918 . S
Fe603 O602 1.918 . S
Fe603 O604 2.002 . S
Fe603 O613 1.976 . S
Fe603 O617 1.996 . S
Fe603 O620 1.997 . S
O604 Fe603 2.002 . S
O604 C621 1.295 . S
O605 Fe600 1.997 . S
O605 C621 1.235 . S
O606 Fe600 2.002 . S
O606 C607 1.295 . S
C607 O606 1.295 . S
C607 O609 1.235 . S
C608 O613 1.287 . S
C608 O614 1.255 . S
O609 Fe601 1.997 . S
O609 C607 1.235 . S
C610 O616 1.287 . S
C610 O617 1.255 . S
O611 Fe600 1.976 . S
O611 C618 1.287 . S
O612 Fe601 1.996 . S
O612 C618 1.255 . S
O613 Fe603 1.976 . S
O613 C608 1.287 . S
O614 Fe600 1.996 . S
O614 C608 1.255 . S
C615 O619 1.295 . S
C615 O620 1.235 . S
O616 Fe601 1.976 . S
O616 C610 1.287 . S
O617 Fe603 1.996 . S
O617 C610 1.255 . S
C618 O611 1.287 . S
C618 O612 1.255 . S
O619 Fe601 2.002 . S
O619 C615 1.295 . S
O620 Fe603 1.997 . S
O620 C615 1.235 . S
C621 O604 1.295 . S
C621 O605 1.235 . S
Fe622 O624 1.918 . S
Fe622 O627 1.997 . S
Fe622 O628 2.002 . S
Fe622 O633 1.976 . S
Fe622 O636 1.996 . S
Fe623 O624 1.918 . S
Fe623 O631 1.997 . S
Fe623 O634 1.996 . S
Fe623 O638 1.976 . S
Fe623 O641 2.002 . S
O624 Fe622 1.918 . S
O624 Fe623 1.918 . S
O624 Fe625 1.918 . S
Fe625 O624 1.918 . S
Fe625 O626 2.002 . S
Fe625 O635 1.976 . S
Fe625 O639 1.996 . S
Fe625 O642 1.997 . S
O626 Fe625 2.002 . S
O626 C643 1.295 . S
O627 Fe622 1.997 . S
O627 C643 1.235 . S
O628 Fe622 2.002 . S
O628 C629 1.295 . S
C629 O628 1.295 . S
C629 O631 1.235 . S
C630 O635 1.287 . S
C630 O636 1.255 . S
O631 Fe623 1.997 . S
O631 C629 1.235 . S
C632 O638 1.287 . S
C632 O639 1.255 . S
O633 Fe622 1.976 . S
O633 C640 1.287 . S
O634 Fe623 1.996 . S
O634 C640 1.255 . S
O635 Fe625 1.976 . S
O635 C630 1.287 . S
O636 Fe622 1.996 . S
O636 C630 1.255 . S
C637 O641 1.295 . S
C637 O642 1.235 . S
O638 Fe623 1.976 . S
O638 C632 1.287 . S
O639 Fe625 1.996 . S
O639 C632 1.255 . S
C640 O633 1.287 . S
C640 O634 1.255 . S
O641 Fe623 2.002 . S
O641 C637 1.295 . S
O642 Fe625 1.997 . S
O642 C637 1.235 . S
C643 O626 1.295 . S
C643 O627 1.235 . S
Fe644 O646 1.918 . S
Fe644 O649 1.997 . S
Fe644 O650 2.002 . S
Fe644 O655 1.976 . S
Fe644 O658 1.996 . S
Fe645 O646 1.918 . S
Fe645 O653 1.997 . S
Fe645 O656 1.996 . S
Fe645 O660 1.976 . S
Fe645 O663 2.002 . S
O646 Fe644 1.918 . S
O646 Fe645 1.918 . S
O646 Fe647 1.918 . S
Fe647 O646 1.918 . S
Fe647 O648 2.002 . S
Fe647 O657 1.976 . S
Fe647 O661 1.996 . S
Fe647 O664 1.997 . S
O648 Fe647 2.002 . S
O648 C665 1.295 . S
O649 Fe644 1.997 . S
O649 C665 1.235 . S
O650 Fe644 2.002 . S
O650 C651 1.295 . S
C651 O650 1.295 . S
C651 O653 1.235 . S
C652 O657 1.287 . S
C652 O658 1.255 . S
O653 Fe645 1.997 . S
O653 C651 1.235 . S
C654 O660 1.287 . S
C654 O661 1.255 . S
O655 Fe644 1.976 . S
O655 C662 1.287 . S
O656 Fe645 1.996 . S
O656 C662 1.255 . S
O657 Fe647 1.976 . S
O657 C652 1.287 . S
O658 Fe644 1.996 . S
O658 C652 1.255 . S
C659 O663 1.295 . S
C659 O664 1.235 . S
O660 Fe645 1.976 . S
O660 C654 1.287 . S
O661 Fe647 1.996 . S
O661 C654 1.255 . S
C662 O655 1.287 . S
C662 O656 1.255 . S
O663 Fe645 2.002 . S
O663 C659 1.295 . S
O664 Fe647 1.997 . S
O664 C659 1.235 . S
C665 O648 1.295 . S
C665 O649 1.235 . S
Fe666 O668 1.918 . S
Fe666 O671 1.997 . S
Fe666 O672 2.002 . S
Fe666 O677 1.976 . S
Fe666 O680 1.996 . S
Fe667 O668 1.918 . S
Fe667 O675 1.997 . S
Fe667 O678 1.996 . S
Fe667 O682 1.976 . S
Fe667 O685 2.002 . S
O668 Fe666 1.918 . S
O668 Fe667 1.918 . S
O668 Fe669 1.918 . S
Fe669 O668 1.918 . S
Fe669 O670 2.002 . S
Fe669 O679 1.976 . S
Fe669 O683 1.996 . S
Fe669 O686 1.997 . S
O670 Fe669 2.002 . S
O670 C687 1.295 . S
O671 Fe666 1.997 . S
O671 C687 1.235 . S
O672 Fe666 2.002 . S
O672 C673 1.295 . S
C673 O672 1.295 . S
C673 O675 1.235 . S
C674 O679 1.287 . S
C674 O680 1.255 . S
O675 Fe667 1.997 . S
O675 C673 1.235 . S
C676 O682 1.287 . S
C676 O683 1.255 . S
O677 Fe666 1.976 . S
O677 C684 1.287 . S
O678 Fe667 1.996 . S
O678 C684 1.255 . S
O679 Fe669 1.976 . S
O679 C674 1.287 . S
O680 Fe666 1.996 . S
O680 C674 1.255 . S
C681 O685 1.295 . S
C681 O686 1.235 . S
O682 Fe667 1.976 . S
O682 C676 1.287 . S
O683 Fe669 1.996 . S
O683 C676 1.255 . S
C684 O677 1.287 . S
C684 O678 1.255 . S
O685 Fe667 2.002 . S
O685 C681 1.295 . S
O686 Fe669 1.997 . S
O686 C681 1.235 . S
C687 O670 1.295 . S
C687 O671 1.235 . S
C688 C689 1.387 . S
C688 H692 0.950 . S
C688 C697 1.390 . S
C689 C688 1.387 . S
C689 C691 1.387 . S
H690 C697 0.950 . S
C691 C689 1.387 . S
C691 C693 1.390 . S
C691 H695 0.950 . S
H692 C688 0.950 . S
C693 C691 1.390 . S
C693 C694 1.387 . S
C693 H696 0.950 . S
C694 C693 1.387 . S
C694 C697 1.387 . S
H695 C691 0.950 . S
H696 C693 0.950 . S
C697 C688 1.390 . S
C697 H690 0.950 . S
C697 C694 1.387 . S
C698 C699 1.387 . S
C698 H702 0.950 . S
C698 C707 1.390 . S
C699 C698 1.387 . S
C699 C701 1.387 . S
H700 C707 0.950 . S
C701 C699 1.387 . S
C701 C703 1.390 . S
C701 H705 0.950 . S
H702 C698 0.950 . S
C703 C701 1.390 . S
C703 C704 1.387 . S
C703 H706 0.950 . S
C704 C703 1.387 . S
C704 C707 1.387 . S
H705 C701 0.950 . S
H706 C703 0.950 . S
C707 C698 1.390 . S
C707 H700 0.950 . S
C707 C704 1.387 . S
C708 C709 1.387 . S
C708 H712 0.950 . S
C708 C717 1.390 . S
C709 C708 1.387 . S
C709 C711 1.387 . S
H710 C717 0.950 . S
C711 C709 1.387 . S
C711 C713 1.390 . S
C711 H715 0.950 . S
H712 C708 0.950 . S
C713 C711 1.390 . S
C713 C714 1.387 . S
C713 H716 0.950 . S
C714 C713 1.387 . S
C714 C717 1.387 . S
H715 C711 0.950 . S
H716 C713 0.950 . S
C717 C708 1.390 . S
C717 H710 0.950 . S
C717 C714 1.387 . S
C718 C719 1.387 . S
C718 H722 0.950 . S
C718 C727 1.390 . S
C719 C718 1.387 . S
C719 C721 1.387 . S
H720 C727 0.962 . S
C721 C719 1.387 . S
C721 C723 1.390 . S
C721 H725 0.950 . S
H722 C718 0.950 . S
C723 C721 1.390 . S
C723 C724 1.387 1_554 S
C723 H726 0.950 . S
C724 C723 1.387 1_556 S
C724 C727 1.387 1_556 S
H725 C721 0.950 . S
H726 C723 0.950 . S
C727 C718 1.390 . S
C727 H720 0.962 . S
C727 C724 1.387 1_554 S
C728 C729 1.387 . S
C728 H732 0.950 . S
C728 C737 1.390 . S
C729 C728 1.387 . S
C729 C731 1.387 . S
H730 C737 0.950 . S
C731 C729 1.387 . S
C731 C733 1.390 . S
C731 H735 0.950 . S
H732 C728 0.950 . S
C733 C731 1.390 . S
C733 C734 1.387 . S
C733 H736 0.950 . S
C734 C733 1.387 . S
C734 C737 1.387 . S
H735 C731 0.950 . S
H736 C733 0.950 . S
C737 C728 1.390 . S
C737 H730 0.950 . S
C737 C734 1.387 . S
C738 C739 1.387 . S
C738 H742 0.950 . S
C738 C747 1.390 . S
C739 C738 1.387 . S
C739 C741 1.387 . S
H740 C747 0.950 . S
C741 C739 1.387 . S
C741 C743 1.390 . S
C741 H745 0.950 . S
H742 C738 0.950 . S
C743 C741 1.390 . S
C743 C744 1.387 . S
C743 H746 0.950 . S
C744 C743 1.387 . S
C744 C747 1.387 . S
H745 C741 0.950 . S
H746 C743 0.950 . S
C747 C738 1.390 . S
C747 H740 0.950 . S
C747 C744 1.387 . S
C748 C749 1.387 . S
C748 H752 0.950 . S
C748 C757 1.390 . S
C749 C748 1.387 . S
C749 C751 1.387 . S
H750 C757 0.950 . S
C751 C749 1.387 . S
C751 C753 1.390 . S
C751 H755 0.950 . S
H752 C748 0.950 . S
C753 C751 1.390 . S
C753 C754 1.387 . S
C753 H756 0.950 . S
C754 C753 1.387 . S
C754 C757 1.387 . S
H755 C751 0.950 . S
H756 C753 0.950 . S
C757 C748 1.390 . S
C757 H750 0.950 . S
C757 C754 1.387 . S
C758 C759 1.387 . S
C758 H762 0.950 . S
C758 C767 1.390 . S
C759 C758 1.387 . S
C759 C761 1.387 . S
H760 C767 0.950 . S
C761 C759 1.387 . S
C761 C763 1.390 1_556 S
C761 H765 0.950 . S
H762 C758 0.950 . S
C763 C761 1.390 1_554 S
C763 C764 1.387 . S
C763 H766 0.950 . S
C764 C763 1.387 . S
C764 C767 1.387 1_554 S
H765 C761 0.950 . S
H766 C763 0.950 . S
C767 C758 1.390 . S
C767 H760 0.950 . S
C767 C764 1.387 1_556 S
C768 C769 1.387 . S
C768 H772 0.950 . S
C768 C777 1.390 . S
C769 C768 1.387 . S
C769 C771 1.387 . S
H770 C777 0.950 . S
C771 C769 1.387 . S
C771 C773 1.390 . S
C771 H775 0.950 . S
H772 C768 0.950 . S
C773 C771 1.390 . S
C773 C774 1.387 . S
C773 H776 0.950 . S
C774 C773 1.387 . S
C774 C777 1.387 . S
H775 C771 0.950 . S
H776 C773 0.950 . S
C777 C768 1.390 . S
C777 H770 0.950 . S
C777 C774 1.387 . S
C778 C779 1.387 . S
C778 H782 0.950 . S
C778 C787 1.390 . S
C779 C778 1.387 . S
C779 C781 1.387 . S
H780 C787 0.950 . S
C781 C779 1.387 . S
C781 C783 1.390 . S
C781 H785 0.950 . S
H782 C778 0.950 . S
C783 C781 1.390 . S
C783 C784 1.387 1_545 S
C783 H786 0.950 1_545 S
C784 C783 1.387 1_565 S
C784 C787 1.387 1_565 S
H785 C781 0.950 . S
H786 C783 0.950 1_565 S
C787 C778 1.390 . S
C787 H780 0.950 . S
C787 C784 1.387 1_545 S
C788 C789 1.387 . S
C788 H792 0.950 . S
C788 C797 1.390 . S
C789 C788 1.387 . S
C789 C791 1.387 . S
H790 C797 0.950 . S
C791 C789 1.387 . S
C791 C793 1.390 . S
C791 H795 0.950 . S
H792 C788 0.950 . S
C793 C791 1.390 . S
C793 C794 1.387 . S
C793 H796 0.950 . S
C794 C793 1.387 . S
C794 C797 1.387 . S
H795 C791 0.950 . S
H796 C793 0.950 . S
C797 C788 1.390 . S
C797 H790 0.950 . S
C797 C794 1.387 . S
C798 C799 1.387 . S
C798 H802 0.950 . S
C798 C807 1.390 1_565 S
C799 C798 1.387 . S
C799 C801 1.387 . S
H800 C807 0.950 . S
C801 C799 1.387 . S
C801 C803 1.390 . S
C801 H805 0.950 . S
H802 C798 0.950 . S
C803 C801 1.390 . S
C803 C804 1.387 1_565 S
C803 H806 0.955 . S
C804 C803 1.387 1_545 S
C804 C807 1.387 . S
H805 C801 0.950 . S
H806 C803 0.955 . S
C807 C798 1.390 1_545 S
C807 H800 0.950 . S
C807 C804 1.387 . S
C808 C809 1.387 . S
C808 H812 0.950 . S
C808 C817 1.390 . S
C809 C808 1.387 . S
C809 C811 1.387 . S
H810 C817 0.950 . S
C811 C809 1.387 . S
C811 C813 1.390 . S
C811 H815 0.950 . S
H812 C808 0.950 . S
C813 C811 1.390 . S
C813 C814 1.387 . S
C813 H816 0.950 . S
C814 C813 1.387 . S
C814 C817 1.387 . S
H815 C811 0.950 . S
H816 C813 0.950 . S
C817 C808 1.390 . S
C817 H810 0.950 . S
C817 C814 1.387 . S
C818 C819 1.387 . S
C818 H822 0.950 . S
C818 C827 1.393 1_545 S
C819 C818 1.387 . S
C819 C821 1.387 . S
H820 C827 0.948 . S
C821 C819 1.387 . S
C821 C823 1.390 . S
C821 H825 0.950 . S
H822 C818 0.950 . S
C823 C821 1.390 . S
C823 C824 1.387 1_545 S
C823 H826 0.950 . S
C824 C823 1.387 1_565 S
C824 C827 1.387 . S
H825 C821 0.950 . S
H826 C823 0.950 . S
C827 C818 1.393 1_565 S
C827 H820 0.948 . S
C827 C824 1.387 . S
C828 C829 1.387 . S
C828 H832 0.950 . S
C828 C837 1.390 . S
C829 C828 1.387 . S
C829 C831 1.387 . S
H830 C837 0.950 . S
C831 C829 1.387 . S
C831 C833 1.390 . S
C831 H835 0.950 . S
H832 C828 0.950 . S
C833 C831 1.390 . S
C833 C834 1.387 . S
C833 H836 0.950 . S
C834 C833 1.387 . S
C834 C837 1.387 . S
H835 C831 0.950 . S
H836 C833 0.950 . S
C837 C828 1.390 . S
C837 H830 0.950 . S
C837 C834 1.387 . S
C838 C839 1.387 . S
C838 H842 0.950 . S
C838 C847 1.390 1_565 S
C839 C838 1.387 . S
C839 C841 1.387 . S
H840 C847 0.950 . S
C841 C839 1.387 . S
C841 C843 1.390 . S
C841 H845 0.950 . S
H842 C838 0.950 . S
C843 C841 1.390 . S
C843 C844 1.387 1_565 S
C843 H846 0.950 . S
C844 C843 1.387 1_545 S
C844 C847 1.387 . S
H845 C841 0.950 . S
H846 C843 0.950 . S
C847 C838 1.390 1_545 S
C847 H840 0.950 . S
C847 C844 1.387 . S
C848 C849 1.387 . S
C848 H852 0.950 . S
C848 C857 1.390 . S
C849 C848 1.387 . S
C849 C851 1.387 . S
H850 C857 0.950 . S
C851 C849 1.387 . S
C851 C853 1.390 . S
C851 H855 0.950 . S
H852 C848 0.950 . S
C853 C851 1.390 . S
C853 C854 1.387 . S
C853 H856 0.950 . S
C854 C853 1.387 . S
C854 C857 1.387 . S
H855 C851 0.950 . S
H856 C853 0.950 . S
C857 C848 1.390 . S
C857 H850 0.950 . S
C857 C854 1.387 . S
C858 C859 1.387 . S
C858 H862 0.950 . S
C858 C867 1.390 . S
C859 C858 1.387 . S
C859 C861 1.387 . S
H860 C867 0.950 . S
C861 C859 1.387 . S
C861 C863 1.390 . S
C861 H865 0.950 . S
H862 C858 0.950 . S
C863 C861 1.390 . S
C863 C864 1.387 . S
C863 H866 0.950 . S
C864 C863 1.387 . S
C864 C867 1.387 . S
H865 C861 0.950 . S
H866 C863 0.950 . S
C867 C858 1.390 . S
C867 H860 0.950 . S
C867 C864 1.387 . S
C868 C869 1.387 . S
C868 H872 0.950 . S
C868 C877 1.390 . S
C869 C868 1.387 . S
C869 C871 1.387 . S
H870 C877 0.950 1_655 S
C871 C869 1.387 . S
C871 C873 1.390 . S
C871 H875 0.950 . S
H872 C868 0.950 . S
C873 C871 1.390 . S
C873 C874 1.387 1_455 S
C873 H876 0.950 1_455 S
C874 C873 1.387 1_655 S
C874 C877 1.387 1_655 S
H875 C871 0.950 . S
H876 C873 0.950 1_655 S
C877 C868 1.390 . S
C877 H870 0.950 1_455 S
C877 C874 1.387 1_455 S
C878 C879 1.387 . S
C878 H882 0.950 . S
C878 C887 1.390 . S
C879 C878 1.387 . S
C879 C881 1.387 . S
H880 C887 0.950 . S
C881 C879 1.387 . S
C881 C883 1.390 . S
C881 H885 0.950 . S
H882 C878 0.950 . S
C883 C881 1.390 . S
C883 C884 1.387 . S
C883 H886 0.950 . S
C884 C883 1.387 . S
C884 C887 1.387 . S
H885 C881 0.950 . S
H886 C883 0.950 . S
C887 C878 1.390 . S
C887 H880 0.950 . S
C887 C884 1.387 . S
C888 C889 1.387 . S
C888 H892 0.950 . S
C888 C897 1.390 . S
C889 C888 1.387 . S
C889 C891 1.387 . S
H890 C897 0.950 1_455 S
C891 C889 1.387 . S
C891 C893 1.390 1_655 S
C891 H895 0.950 . S
H892 C888 0.950 . S
C893 C891 1.390 1_455 S
C893 C894 1.387 . S
C893 H896 0.950 . S
C894 C893 1.387 . S
C894 C897 1.387 1_455 S
H895 C891 0.950 . S
H896 C893 0.950 . S
C897 C888 1.390 . S
C897 H890 0.950 1_655 S
C897 C894 1.387 1_655 S
C898 C899 1.387 . S
C898 H902 0.950 . S
C898 C907 1.390 . S
C899 C898 1.387 . S
C899 C901 1.387 . S
H900 C907 0.950 . S
C901 C899 1.387 . S
C901 C903 1.390 . S
C901 H905 0.950 . S
H902 C898 0.950 . S
C903 C901 1.390 . S
C903 C904 1.387 . S
C903 H906 0.950 . S
C904 C903 1.387 . S
C904 C907 1.387 . S
H905 C901 0.950 . S
H906 C903 0.950 . S
C907 C898 1.390 . S
C907 H900 0.950 . S
C907 C904 1.387 . S
C908 C909 1.387 . S
C908 H912 0.950 . S
C908 C917 1.390 1_455 S
C909 C908 1.387 . S
C909 C911 1.387 . S
H910 C917 0.950 . S
C911 C909 1.387 . S
C911 C913 1.390 . S
C911 H915 0.950 . S
H912 C908 0.950 . S
C913 C911 1.390 . S
C913 C914 1.387 1_455 S
C913 H916 0.950 . S
C914 C913 1.387 1_655 S
C914 C917 1.387 . S
H915 C911 0.950 . S
H916 C913 0.950 . S
C917 C908 1.390 1_655 S
C917 H910 0.950 . S
C917 C914 1.387 . S
C918 C919 1.387 . S
C918 H922 0.950 . S
C918 C927 1.390 . S
C919 C918 1.387 . S
C919 C921 1.387 . S
H920 C927 0.950 . S
C921 C919 1.387 . S
C921 C923 1.390 . S
C921 H925 0.950 . S
H922 C918 0.950 . S
C923 C921 1.390 . S
C923 C924 1.387 . S
C923 H926 0.950 . S
C924 C923 1.387 . S
C924 C927 1.387 . S
H925 C921 0.950 . S
H926 C923 0.950 . S
C927 C918 1.390 . S
C927 H920 0.950 . S
C927 C924 1.387 . S
C928 C929 1.387 . S
C928 H932 0.950 . S
C928 C937 1.390 . S
C929 C928 1.387 . S
C929 C931 1.387 . S
H930 C937 0.950 . S
C931 C929 1.387 . S
C931 C933 1.390 . S
C931 H935 0.950 . S
H932 C928 0.950 . S
C933 C931 1.390 . S
C933 C934 1.387 . S
C933 H936 0.950 . S
C934 C933 1.387 . S
C934 C937 1.387 . S
H935 C931 0.950 . S
H936 C933 0.950 . S
C937 C928 1.390 . S
C937 H930 0.950 . S
C937 C934 1.387 . S
C938 C939 1.387 . S
C938 H942 0.950 . S
C938 C947 1.390 . S
C939 C938 1.387 . S
C939 C941 1.387 . S
H940 C947 0.950 . S
C941 C939 1.387 . S
C941 C943 1.390 . S
C941 H945 0.950 . S
H942 C938 0.950 . S
C943 C941 1.390 . S
C943 C944 1.387 . S
C943 H946 0.950 . S
C944 C943 1.387 . S
C944 C947 1.387 . S
H945 C941 0.950 . S
H946 C943 0.950 . S
C947 C938 1.390 . S
C947 H940 0.950 . S
C947 C944 1.387 . S
C948 C949 1.387 . S
C948 H952 0.950 . S
C948 C957 1.390 . S
C949 C948 1.387 . S
C949 C951 1.387 . S
H950 C957 0.950 . S
C951 C949 1.387 . S
C951 C953 1.390 . S
C951 H955 0.950 . S
H952 C948 0.950 . S
C953 C951 1.390 . S
C953 C954 1.387 . S
C953 H956 0.950 . S
C954 C953 1.387 . S
C954 C957 1.387 . S
H955 C951 0.950 . S
H956 C953 0.950 . S
C957 C948 1.390 . S
C957 H950 0.950 . S
C957 C954 1.387 . S
C958 C959 1.387 . S
C958 H962 0.950 . S
C958 C967 1.390 1_556 S
C959 C958 1.387 . S
C959 C961 1.387 . S
H960 C967 0.950 . S
C961 C959 1.387 . S
C961 C963 1.390 . S
C961 H965 0.950 . S
H962 C958 0.950 . S
C963 C961 1.390 . S
C963 C964 1.387 1_556 S
C963 H966 0.950 . S
C964 C963 1.387 1_554 S
C964 C967 1.387 . S
H965 C961 0.950 . S
H966 C963 0.950 . S
C967 C958 1.390 1_554 S
C967 H960 0.950 . S
C967 C964 1.387 . S
C968 C969 1.387 . S
C968 H972 0.950 . S
C968 C977 1.390 . S
C969 C968 1.387 . S
C969 C971 1.387 . S
H970 C977 0.950 . S
C971 C969 1.387 . S
C971 C973 1.390 . S
C971 H975 0.950 . S
H972 C968 0.950 . S
C973 C971 1.390 . S
C973 C974 1.387 . S
C973 H976 0.950 . S
C974 C973 1.387 . S
C974 C977 1.387 . S
H975 C971 0.950 . S
H976 C973 0.950 . S
C977 C968 1.390 . S
C977 H970 0.950 . S
C977 C974 1.387 . S
C978 C979 1.387 . S
C978 H982 0.950 . S
C978 C987 1.390 . S
C979 C978 1.387 . S
C979 C981 1.387 . S
H980 C987 0.950 . S
C981 C979 1.387 . S
C981 C983 1.390 . S
C981 H985 0.950 . S
H982 C978 0.950 . S
C983 C981 1.390 . S
C983 C984 1.387 . S
C983 H986 0.950 . S
C984 C983 1.387 . S
C984 C987 1.387 . S
H985 C981 0.950 . S
H986 C983 0.950 . S
C987 C978 1.390 . S
C987 H980 0.950 . S
C987 C984 1.387 . S
C988 C989 1.387 . S
C988 H992 0.950 . S
C988 C997 1.390 . S
C989 C988 1.387 . S
C989 C991 1.387 . S
H990 C997 0.950 . S
C991 C989 1.387 . S
C991 C993 1.390 . S
C991 H995 0.950 . S
H992 C988 0.950 . S
C993 C991 1.390 . S
C993 C994 1.387 . S
C993 H996 0.950 . S
C994 C993 1.387 . S
C994 C997 1.387 . S
H995 C991 0.950 . S
H996 C993 0.950 . S
C997 C988 1.390 . S
C997 H990 0.950 . S
C997 C994 1.387 . S
C998 C999 1.387 . S
C998 H1002 0.950 . S
C998 C1007 1.378 1_554 S
C999 C998 1.387 . S
C999 C1001 1.387 . S
H1000 C1007 0.959 . S
C1001 C999 1.387 . S
C1001 C1003 1.390 . S
C1001 H1005 0.950 . S
H1002 C998 0.950 . S
C1003 C1001 1.390 . S
C1003 C1004 1.387 1_554 S
C1003 H1006 0.950 . S
C1004 C1003 1.387 1_556 S
C1004 C1007 1.390 . S
H1005 C1001 0.950 . S
H1006 C1003 0.950 . S
C1007 C998 1.378 1_556 S
C1007 H1000 0.959 . S
C1007 C1004 1.390 . S
C1008 C1009 1.387 . S
C1008 H1012 0.950 . S
C1008 C1017 1.390 . S
C1009 C1008 1.387 . S
C1009 C1011 1.387 . S
H1010 C1017 0.950 . S
C1011 C1009 1.387 . S
C1011 C1013 1.390 . S
C1011 H1015 0.950 . S
H1012 C1008 0.950 . S
C1013 C1011 1.390 . S
C1013 C1014 1.387 . S
C1013 H1016 0.950 . S
C1014 C1013 1.387 . S
C1014 C1017 1.387 . S
H1015 C1011 0.950 . S
H1016 C1013 0.950 . S
C1017 C1008 1.390 . S
C1017 H1010 0.950 . S
C1017 C1014 1.387 . S
C1018 C1019 1.387 . S
C1018 H1022 0.950 . S
C1018 C1027 1.390 1_565 S
C1019 C1018 1.387 . S
C1019 C1021 1.387 . S
H1020 C1027 0.950 . S
C1021 C1019 1.387 . S
C1021 C1023 1.390 . S
C1021 H1025 0.950 . S
H1022 C1018 0.950 . S
C1023 C1021 1.390 . S
C1023 C1024 1.387 1_565 S
C1023 H1026 0.950 . S
C1024 C1023 1.387 1_545 S
C1024 C1027 1.387 . S
H1025 C1021 0.950 . S
H1026 C1023 0.950 . S
C1027 C1018 1.390 1_545 S
C1027 H1020 0.950 . S
C1027 C1024 1.387 . S
C1028 C1029 1.387 . S
C1028 H1032 0.950 . S
C1028 C1037 1.390 . S
C1029 C1028 1.387 . S
C1029 C1031 1.387 . S
H1030 C1037 0.950 . S
C1031 C1029 1.387 . S
C1031 C1033 1.390 . S
C1031 H1035 0.950 . S
H1032 C1028 0.950 . S
C1033 C1031 1.390 . S
C1033 C1034 1.387 . S
C1033 H1036 0.950 . S
C1034 C1033 1.387 . S
C1034 C1037 1.387 . S
H1035 C1031 0.950 . S
H1036 C1033 0.950 . S
C1037 C1028 1.390 . S
C1037 H1030 0.950 . S
C1037 C1034 1.387 . S
C1038 C1039 1.387 . S
C1038 H1042 0.950 . S
C1038 C1047 1.390 1_545 S
C1039 C1038 1.387 . S
C1039 C1041 1.387 . S
H1040 C1047 0.950 . S
C1041 C1039 1.387 . S
C1041 C1043 1.390 . S
C1041 H1045 0.950 . S
H1042 C1038 0.950 . S
C1043 C1041 1.390 . S
C1043 C1044 1.387 1_545 S
C1043 H1046 0.950 . S
C1044 C1043 1.387 1_565 S
C1044 C1047 1.387 . S
H1045 C1041 0.950 . S
H1046 C1043 0.950 . S
C1047 C1038 1.390 1_565 S
C1047 H1040 0.950 . S
C1047 C1044 1.387 . S
C1048 C1049 1.387 . S
C1048 H1052 0.950 . S
C1048 C1057 1.390 . S
C1049 C1048 1.387 . S
C1049 C1051 1.387 . S
H1050 C1057 0.950 . S
C1051 C1049 1.387 . S
C1051 C1053 1.390 . S
C1051 H1055 0.950 . S
H1052 C1048 0.950 . S
C1053 C1051 1.390 . S
C1053 C1054 1.387 . S
C1053 H1056 0.950 . S
C1054 C1053 1.387 . S
C1054 C1057 1.387 . S
H1055 C1051 0.950 . S
H1056 C1053 0.950 . S
C1057 C1048 1.390 . S
C1057 H1050 0.950 . S
C1057 C1054 1.387 . S
C1058 C1059 1.387 . S
C1058 H1062 0.950 . S
C1058 C1067 1.390 1_565 S
C1059 C1058 1.387 . S
C1059 C1061 1.387 . S
H1060 C1067 0.950 . S
C1061 C1059 1.387 . S
C1061 C1063 1.390 . S
C1061 H1065 0.950 . S
H1062 C1058 0.950 . S
C1063 C1061 1.390 . S
C1063 C1064 1.387 1_565 S
C1063 H1066 0.950 1_565 S
C1064 C1063 1.387 1_545 S
C1064 C1067 1.387 . S
H1065 C1061 0.950 . S
H1066 C1063 0.950 1_545 S
C1067 C1058 1.390 1_545 S
C1067 H1060 0.950 . S
C1067 C1064 1.387 . S
C1068 C1069 1.387 . S
C1068 H1072 0.950 . S
C1068 C1077 1.390 . S
C1069 C1068 1.387 . S
C1069 C1071 1.387 . S
H1070 C1077 0.950 . S
C1071 C1069 1.387 . S
C1071 C1073 1.390 . S
C1071 H1075 0.950 . S
H1072 C1068 0.950 . S
C1073 C1071 1.390 . S
C1073 C1074 1.387 . S
C1073 H1076 0.950 . S
C1074 C1073 1.387 . S
C1074 C1077 1.387 . S
H1075 C1071 0.950 . S
H1076 C1073 0.950 . S
C1077 C1068 1.390 . S
C1077 H1070 0.950 . S
C1077 C1074 1.387 . S
C1078 C1079 1.387 . S
C1078 H1082 0.950 . S
C1078 C1087 1.390 . S
C1079 C1078 1.387 . S
C1079 C1081 1.387 . S
H1080 C1087 0.950 . S
C1081 C1079 1.387 . S
C1081 C1083 1.390 1_545 S
C1081 H1085 0.950 . S
H1082 C1078 0.950 . S
C1083 C1081 1.390 1_565 S
C1083 C1084 1.387 . S
C1083 H1086 0.950 . S
C1084 C1083 1.387 . S
C1084 C1087 1.387 1_565 S
H1085 C1081 0.950 . S
H1086 C1083 0.950 . S
C1087 C1078 1.390 . S
C1087 H1080 0.950 . S
C1087 C1084 1.387 1_545 S
C1088 C1089 1.387 . S
C1088 H1092 0.950 . S
C1088 C1097 1.390 . S
C1089 C1088 1.387 . S
C1089 C1091 1.387 . S
H1090 C1097 0.950 . S
C1091 C1089 1.387 . S
C1091 C1093 1.390 . S
C1091 H1095 0.950 . S
H1092 C1088 0.950 . S
C1093 C1091 1.390 . S
C1093 C1094 1.387 . S
C1093 H1096 0.950 . S
C1094 C1093 1.387 . S
C1094 C1097 1.387 . S
H1095 C1091 0.950 . S
H1096 C1093 0.950 . S
C1097 C1088 1.390 . S
C1097 H1090 0.950 . S
C1097 C1094 1.387 . S
C1098 C1099 1.387 . S
C1098 H1102 0.950 . S
C1098 C1107 1.390 . S
C1099 C1098 1.387 . S
C1099 C1101 1.387 . S
H1100 C1107 0.950 . S
C1101 C1099 1.387 . S
C1101 C1103 1.390 . S
C1101 H1105 0.950 . S
H1102 C1098 0.950 . S
C1103 C1101 1.390 . S
C1103 C1104 1.387 . S
C1103 H1106 0.950 . S
C1104 C1103 1.387 . S
C1104 C1107 1.387 . S
H1105 C1101 0.950 . S
H1106 C1103 0.950 . S
C1107 C1098 1.390 . S
C1107 H1100 0.950 . S
C1107 C1104 1.387 . S
C1108 C1109 1.387 . S
C1108 H1112 0.950 . S
C1108 C1117 1.390 1_655 S
C1109 C1108 1.387 . S
C1109 C1111 1.387 . S
H1110 C1117 0.950 . S
C1111 C1109 1.387 . S
C1111 C1113 1.390 . S
C1111 H1115 0.950 . S
H1112 C1108 0.950 . S
C1113 C1111 1.390 . S
C1113 C1114 1.387 1_655 S
C1113 H1116 0.950 . S
C1114 C1113 1.387 1_455 S
C1114 C1117 1.387 . S
H1115 C1111 0.950 . S
H1116 C1113 0.950 . S
C1117 C1108 1.390 1_455 S
C1117 H1110 0.950 . S
C1117 C1114 1.387 . S
C1118 C1119 1.387 . S
C1118 H1122 0.950 . S
C1118 C1127 1.390 . S
C1119 C1118 1.387 . S
C1119 C1121 1.387 . S
H1120 C1127 0.950 . S
C1121 C1119 1.387 . S
C1121 C1123 1.390 . S
C1121 H1125 0.950 . S
H1122 C1118 0.950 . S
C1123 C1121 1.390 . S
C1123 C1124 1.387 . S
C1123 H1126 0.950 . S
C1124 C1123 1.387 . S
C1124 C1127 1.387 . S
H1125 C1121 0.950 . S
H1126 C1123 0.950 . S
C1127 C1118 1.390 . S
C1127 H1120 0.950 . S
C1127 C1124 1.387 . S
C1128 C1129 1.387 . S
C1128 H1132 0.950 . S
C1128 C1137 1.390 . S
C1129 C1128 1.387 . S
C1129 C1131 1.387 . S
H1130 C1137 0.950 1_655 S
C1131 C1129 1.387 . S
C1131 C1133 1.390 . S
C1131 H1135 0.950 . S
H1132 C1128 0.950 . S
C1133 C1131 1.390 . S
C1133 C1134 1.387 1_455 S
C1133 H1136 0.950 . S
C1134 C1133 1.387 1_655 S
C1134 C1137 1.387 1_655 S
H1135 C1131 0.950 . S
H1136 C1133 0.950 . S
C1137 C1128 1.390 . S
C1137 H1130 0.950 1_455 S
C1137 C1134 1.387 1_455 S
C1138 C1139 1.387 . S
C1138 H1142 0.950 . S
C1138 C1147 1.390 . S
C1139 C1138 1.387 . S
C1139 C1141 1.387 . S
H1140 C1147 0.950 . S
C1141 C1139 1.387 . S
C1141 C1143 1.390 . S
C1141 H1145 0.950 . S
H1142 C1138 0.950 . S
C1143 C1141 1.390 . S
C1143 C1144 1.387 . S
C1143 H1146 0.950 . S
C1144 C1143 1.387 . S
C1144 C1147 1.387 . S
H1145 C1141 0.950 . S
H1146 C1143 0.950 . S
C1147 C1138 1.390 . S
C1147 H1140 0.950 . S
C1147 C1144 1.387 . S
C1148 C1149 1.387 . S
C1148 H1152 0.950 . S
C1148 C1157 1.390 . S
C1149 C1148 1.387 . S
C1149 C1151 1.387 . S
H1150 C1157 0.950 . S
C1151 C1149 1.387 . S
C1151 C1153 1.390 1_655 S
C1151 H1155 0.950 . S
H1152 C1148 0.950 . S
C1153 C1151 1.390 1_455 S
C1153 C1154 1.387 . S
C1153 H1156 0.950 . S
C1154 C1153 1.387 . S
C1154 C1157 1.387 1_455 S
H1155 C1151 0.950 . S
H1156 C1153 0.950 . S
C1157 C1148 1.390 . S
C1157 H1150 0.950 . S
C1157 C1154 1.387 1_655 S
C1158 C1159 1.387 . S
C1158 H1162 0.950 . S
C1158 C1167 1.390 . S
C1159 C1158 1.387 . S
C1159 C1161 1.387 . S
H1160 C1167 0.950 . S
C1161 C1159 1.387 . S
C1161 C1163 1.390 . S
C1161 H1165 0.950 . S
H1162 C1158 0.950 . S
C1163 C1161 1.390 . S
C1163 C1164 1.387 . S
C1163 H1166 0.950 . S
C1164 C1163 1.387 . S
C1164 C1167 1.387 . S
H1165 C1161 0.950 . S
H1166 C1163 0.950 . S
C1167 C1158 1.390 . S
C1167 H1160 0.950 . S
C1167 C1164 1.387 . S
C1168 C1169 1.387 . S
C1168 H1172 0.950 . S
C1168 C1177 1.390 . S
C1169 C1168 1.387 . S
C1169 C1171 1.387 . S
H1170 C1177 0.950 . S
C1171 C1169 1.387 . S
C1171 C1173 1.390 . S
C1171 H1175 0.950 . S
H1172 C1168 0.950 . S
C1173 C1171 1.390 . S
C1173 C1174 1.387 . S
C1173 H1176 0.950 . S
C1174 C1173 1.387 . S
C1174 C1177 1.387 . S
H1175 C1171 0.950 . S
H1176 C1173 0.950 . S
C1177 C1168 1.390 . S
C1177 H1170 0.950 . S
C1177 C1174 1.387 . S
C1178 C1179 1.387 . S
C1178 H1182 0.950 . S
C1178 C1187 1.390 . S
C1179 C1178 1.387 . S
C1179 C1181 1.387 . S
H1180 C1187 0.950 . S
C1181 C1179 1.387 . S
C1181 C1183 1.365 1_554 S
C1181 H1185 0.950 . S
H1182 C1178 0.950 . S
C1183 C1181 1.365 1_556 S
C1183 C1184 1.393 . S
C1183 H1186 0.970 . S
C1184 C1183 1.393 . S
C1184 C1187 1.387 1_556 S
H1185 C1181 0.950 . S
H1186 C1183 0.970 . S
C1187 C1178 1.390 . S
C1187 H1180 0.950 . S
C1187 C1184 1.387 1_554 S
C1188 C1189 1.387 . S
C1188 H1192 0.950 . S
C1188 C1197 1.390 . S
C1189 C1188 1.387 . S
C1189 C1191 1.387 . S
H1190 C1197 0.950 . S
C1191 C1189 1.387 . S
C1191 C1193 1.390 . S
C1191 H1195 0.950 . S
H1192 C1188 0.950 . S
C1193 C1191 1.390 . S
C1193 C1194 1.387 . S
C1193 H1196 0.950 . S
C1194 C1193 1.387 . S
C1194 C1197 1.387 . S
H1195 C1191 0.950 . S
H1196 C1193 0.950 . S
C1197 C1188 1.390 . S
C1197 H1190 0.950 . S
C1197 C1194 1.387 . S
C1198 C1199 1.387 . S
C1198 H1202 0.950 . S
C1198 C1207 1.390 . S
C1199 C1198 1.387 . S
C1199 C1201 1.387 . S
H1200 C1207 0.950 . S
C1201 C1199 1.387 . S
C1201 C1203 1.390 . S
C1201 H1205 0.950 . S
H1202 C1198 0.950 . S
C1203 C1201 1.390 . S
C1203 C1204 1.387 . S
C1203 H1206 0.950 . S
C1204 C1203 1.387 . S
C1204 C1207 1.387 . S
H1205 C1201 0.950 . S
H1206 C1203 0.950 . S
C1207 C1198 1.390 . S
C1207 H1200 0.950 . S
C1207 C1204 1.387 . S
C1208 C1209 1.387 . S
C1208 H1212 0.950 . S
C1208 C1217 1.390 . S
C1209 C1208 1.387 . S
C1209 C1211 1.387 . S
H1210 C1217 0.950 . S
C1211 C1209 1.387 . S
C1211 C1213 1.390 . S
C1211 H1215 0.950 . S
H1212 C1208 0.950 . S
C1213 C1211 1.390 . S
C1213 C1214 1.387 . S
C1213 H1216 0.950 . S
C1214 C1213 1.387 . S
C1214 C1217 1.387 . S
H1215 C1211 0.950 . S
H1216 C1213 0.950 . S
C1217 C1208 1.390 . S
C1217 H1210 0.950 . S
C1217 C1214 1.387 . S
C1218 C1219 1.387 . S
C1218 H1222 0.950 . S
C1218 C1227 1.365 1_556 S
C1219 C1218 1.387 . S
C1219 C1221 1.387 . S
H1220 C1227 0.965 . S
C1221 C1219 1.387 . S
C1221 C1223 1.390 . S
C1221 H1225 0.950 . S
H1222 C1218 0.950 . S
C1223 C1221 1.390 . S
C1223 C1224 1.387 1_556 S
C1223 H1226 0.950 1_556 S
C1224 C1223 1.387 1_554 S
C1224 C1227 1.398 . S
H1225 C1221 0.950 . S
H1226 C1223 0.950 1_554 S
C1227 C1218 1.365 1_554 S
C1227 H1220 0.965 . S
C1227 C1224 1.398 . S
C1228 C1229 1.387 . S
C1228 H1232 0.950 . S
C1228 C1237 1.390 . S
C1229 C1228 1.387 . S
C1229 C1231 1.387 . S
H1230 C1237 0.950 . S
C1231 C1229 1.387 . S
C1231 C1233 1.390 . S
C1231 H1235 0.950 . S
H1232 C1228 0.950 . S
C1233 C1231 1.390 . S
C1233 C1234 1.387 . S
C1233 H1236 0.950 . S
C1234 C1233 1.387 . S
C1234 C1237 1.387 . S
H1235 C1231 0.950 . S
H1236 C1233 0.950 . S
C1237 C1228 1.390 . S
C1237 H1230 0.950 . S
C1237 C1234 1.387 . S
C1238 C1239 1.387 . S
C1238 H1242 0.950 . S
C1238 C1247 1.390 . S
C1239 C1238 1.387 . S
C1239 C1241 1.387 . S
H1240 C1247 0.950 . S
C1241 C1239 1.387 . S
C1241 C1243 1.390 . S
C1241 H1245 0.950 . S
H1242 C1238 0.950 . S
C1243 C1241 1.390 . S
C1243 C1244 1.387 . S
C1243 H1246 0.950 . S
C1244 C1243 1.387 . S
C1244 C1247 1.387 . S
H1245 C1241 0.950 . S
H1246 C1243 0.950 . S
C1247 C1238 1.390 . S
C1247 H1240 0.950 . S
C1247 C1244 1.387 . S
C1248 C1249 1.387 . S
C1248 H1252 0.950 . S
C1248 C1257 1.390 . S
C1249 C1248 1.387 . S
C1249 C1251 1.387 . S
H1250 C1257 0.950 . S
C1251 C1249 1.387 . S
C1251 C1253 1.390 . S
C1251 H1255 0.950 . S
H1252 C1248 0.950 . S
C1253 C1251 1.390 . S
C1253 C1254 1.387 . S
C1253 H1256 0.950 . S
C1254 C1253 1.387 . S
C1254 C1257 1.387 . S
H1255 C1251 0.950 . S
H1256 C1253 0.950 . S
C1257 C1248 1.390 . S
C1257 H1250 0.950 . S
C1257 C1254 1.387 . S
C1258 C1259 1.387 . S
C1258 H1262 0.950 . S
C1258 C1267 1.390 . S
C1259 C1258 1.387 . S
C1259 C1261 1.387 . S
H1260 C1267 0.950 . S
C1261 C1259 1.387 . S
C1261 C1263 1.390 . S
C1261 H1265 0.950 . S
H1262 C1258 0.950 . S
C1263 C1261 1.390 . S
C1263 C1264 1.387 . S
C1263 H1266 0.950 . S
C1264 C1263 1.387 . S
C1264 C1267 1.387 . S
H1265 C1261 0.950 . S
H1266 C1263 0.950 . S
C1267 C1258 1.390 . S
C1267 H1260 0.950 . S
C1267 C1264 1.387 . S
C1268 C1269 1.387 . S
C1268 H1272 0.950 . S
C1268 C1277 1.390 . S
C1269 C1268 1.387 . S
C1269 C1271 1.387 . S
H1270 C1277 0.950 . S
C1271 C1269 1.387 . S
C1271 C1273 1.390 . S
C1271 H1275 0.950 . S
H1272 C1268 0.950 . S
C1273 C1271 1.390 . S
C1273 C1274 1.387 . S
C1273 H1276 0.950 . S
C1274 C1273 1.387 . S
C1274 C1277 1.387 . S
H1275 C1271 0.950 . S
H1276 C1273 0.950 . S
C1277 C1268 1.390 . S
C1277 H1270 0.950 . S
C1277 C1274 1.387 . S
C1278 C1279 1.387 . S
C1278 H1282 0.950 . S
C1278 C1287 1.390 . S
C1279 C1278 1.387 . S
C1279 C1281 1.387 . S
H1280 C1287 0.950 . S
C1281 C1279 1.387 . S
C1281 C1283 1.390 . S
C1281 H1285 0.950 . S
H1282 C1278 0.950 . S
C1283 C1281 1.390 . S
C1283 C1284 1.387 . S
C1283 H1286 0.950 . S
C1284 C1283 1.387 . S
C1284 C1287 1.387 . S
H1285 C1281 0.950 . S
H1286 C1283 0.950 . S
C1287 C1278 1.390 . S
C1287 H1280 0.950 . S
C1287 C1284 1.387 . S
C1288 C1289 1.387 . S
C1288 H1292 0.950 . S
C1288 C1297 1.390 . S
C1289 C1288 1.387 . S
C1289 C1291 1.387 . S
H1290 C1297 0.950 . S
C1291 C1289 1.387 . S
C1291 C1293 1.390 . S
C1291 H1295 0.950 . S
H1292 C1288 0.950 . S
C1293 C1291 1.390 . S
C1293 C1294 1.387 . S
C1293 H1296 0.950 . S
C1294 C1293 1.387 . S
C1294 C1297 1.387 . S
H1295 C1291 0.950 . S
H1296 C1293 0.950 . S
C1297 C1288 1.390 . S
C1297 H1290 0.950 . S
C1297 C1294 1.387 . S
C1298 C1299 1.387 . S
C1298 H1302 0.950 . S
C1298 C1307 1.390 . S
C1299 C1298 1.387 . S
C1299 C1301 1.387 . S
H1300 C1307 0.950 . S
C1301 C1299 1.387 . S
C1301 C1303 1.390 . S
C1301 H1305 0.950 . S
H1302 C1298 0.950 . S
C1303 C1301 1.390 . S
C1303 C1304 1.387 . S
C1303 H1306 0.950 . S
C1304 C1303 1.387 . S
C1304 C1307 1.387 . S
H1305 C1301 0.950 . S
H1306 C1303 0.950 . S
C1307 C1298 1.390 . S
C1307 H1300 0.950 . S
C1307 C1304 1.387 . S
C1308 C1309 1.387 . S
C1308 H1312 0.950 . S
C1308 C1317 1.390 . S
C1309 C1308 1.387 . S
C1309 C1311 1.387 . S
H1310 C1317 0.950 . S
C1311 C1309 1.387 . S
C1311 C1313 1.390 . S
C1311 H1315 0.950 . S
H1312 C1308 0.950 . S
C1313 C1311 1.390 . S
C1313 C1314 1.387 . S
C1313 H1316 0.950 . S
C1314 C1313 1.387 . S
C1314 C1317 1.387 . S
H1315 C1311 0.950 . S
H1316 C1313 0.950 . S
C1317 C1308 1.390 . S
C1317 H1310 0.950 . S
C1317 C1314 1.387 . S
C1318 C1319 1.387 . S
C1318 H1322 0.950 . S
C1318 C1327 1.390 . S
C1319 C1318 1.387 . S
C1319 C1321 1.387 . S
H1320 C1327 0.950 . S
C1321 C1319 1.387 . S
C1321 C1323 1.390 . S
C1321 H1325 0.950 . S
H1322 C1318 0.950 . S
C1323 C1321 1.390 . S
C1323 C1324 1.387 . S
C1323 H1326 0.950 . S
C1324 C1323 1.387 . S
C1324 C1327 1.387 . S
H1325 C1321 0.950 . S
H1326 C1323 0.950 . S
C1327 C1318 1.390 . S
C1327 H1320 0.950 . S
C1327 C1324 1.387 . S
C1328 C1329 1.387 . S
C1328 H1332 0.950 . S
C1328 C1337 1.390 . S
C1329 C1328 1.387 . S
C1329 C1331 1.387 . S
H1330 C1337 0.950 . S
C1331 C1329 1.387 . S
C1331 C1333 1.390 . S
C1331 H1335 0.950 . S
H1332 C1328 0.950 . S
C1333 C1331 1.390 . S
C1333 C1334 1.387 . S
C1333 H1336 0.950 . S
C1334 C1333 1.387 . S
C1334 C1337 1.387 . S
H1335 C1331 0.950 . S
H1336 C1333 0.950 . S
C1337 C1328 1.390 . S
C1337 H1330 0.950 . S
C1337 C1334 1.387 . S
C1338 C1339 1.387 . S
C1338 H1342 0.950 . S
C1338 C1347 1.390 . S
C1339 C1338 1.387 . S
C1339 C1341 1.387 . S
H1340 C1347 0.950 . S
C1341 C1339 1.387 . S
C1341 C1343 1.390 . S
C1341 H1345 0.950 . S
H1342 C1338 0.950 . S
C1343 C1341 1.390 . S
C1343 C1344 1.387 . S
C1343 H1346 0.950 . S
C1344 C1343 1.387 . S
C1344 C1347 1.387 . S
H1345 C1341 0.950 . S
H1346 C1343 0.950 . S
C1347 C1338 1.390 . S
C1347 H1340 0.950 . S
C1347 C1344 1.387 . S
C1348 C1349 1.387 . S
C1348 H1352 0.950 . S
C1348 C1357 1.390 . S
C1349 C1348 1.387 . S
C1349 C1351 1.387 . S
H1350 C1357 0.950 . S
C1351 C1349 1.387 . S
C1351 C1353 1.390 . S
C1351 H1355 0.950 . S
H1352 C1348 0.950 . S
C1353 C1351 1.390 . S
C1353 C1354 1.387 . S
C1353 H1356 0.950 . S
C1354 C1353 1.387 . S
C1354 C1357 1.387 . S
H1355 C1351 0.950 . S
H1356 C1353 0.950 . S
C1357 C1348 1.390 . S
C1357 H1350 0.950 . S
C1357 C1354 1.387 . S
C1358 C1359 1.387 . S
C1358 H1362 0.950 . S
C1358 C1367 1.390 . S
C1359 C1358 1.387 . S
C1359 C1361 1.387 . S
H1360 C1367 0.950 . S
C1361 C1359 1.387 . S
C1361 C1363 1.390 . S
C1361 H1365 0.950 . S
H1362 C1358 0.950 . S
C1363 C1361 1.390 . S
C1363 C1364 1.387 . S
C1363 H1366 0.950 . S
C1364 C1363 1.387 . S
C1364 C1367 1.387 . S
H1365 C1361 0.950 . S
H1366 C1363 0.950 . S
C1367 C1358 1.390 . S
C1367 H1360 0.950 . S
C1367 C1364 1.387 . S
C1368 C1369 1.387 . S
C1368 H1372 0.950 . S
C1368 C1377 1.390 . S
C1369 C1368 1.387 . S
C1369 C1371 1.387 . S
H1370 C1377 0.950 . S
C1371 C1369 1.387 . S
C1371 C1373 1.390 . S
C1371 H1375 0.950 . S
H1372 C1368 0.950 . S
C1373 C1371 1.390 . S
C1373 C1374 1.387 . S
C1373 H1376 0.950 . S
C1374 C1373 1.387 . S
C1374 C1377 1.387 . S
H1375 C1371 0.950 . S
H1376 C1373 0.950 . S
C1377 C1368 1.390 . S
C1377 H1370 0.950 . S
C1377 C1374 1.387 . S
C1378 C1379 1.387 . S
C1378 H1382 0.950 . S
C1378 C1387 1.390 . S
C1379 C1378 1.387 . S
C1379 C1381 1.387 . S
H1380 C1387 0.950 . S
C1381 C1379 1.387 . S
C1381 C1383 1.390 . S
C1381 H1385 0.950 . S
H1382 C1378 0.950 . S
C1383 C1381 1.390 . S
C1383 C1384 1.387 . S
C1383 H1386 0.950 . S
C1384 C1383 1.387 . S
C1384 C1387 1.387 . S
H1385 C1381 0.950 . S
H1386 C1383 0.950 . S
C1387 C1378 1.390 . S
C1387 H1380 0.950 . S
C1387 C1384 1.387 . S
C1388 C1389 1.387 . S
C1388 H1392 0.950 . S
C1388 C1397 1.390 . S
C1389 C1388 1.387 . S
C1389 C1391 1.387 . S
H1390 C1397 0.950 . S
C1391 C1389 1.387 . S
C1391 C1393 1.390 . S
C1391 H1395 0.950 . S
H1392 C1388 0.950 . S
C1393 C1391 1.390 . S
C1393 C1394 1.387 . S
C1393 H1396 0.950 . S
C1394 C1393 1.387 . S
C1394 C1397 1.387 . S
H1395 C1391 0.950 . S
H1396 C1393 0.950 . S
C1397 C1388 1.390 . S
C1397 H1390 0.950 . S
C1397 C1394 1.387 . S
C1398 C1399 1.387 . S
C1398 H1402 0.950 . S
C1398 C1407 1.390 . S
C1399 C1398 1.387 . S
C1399 C1401 1.387 . S
H1400 C1407 0.950 1_455 S
C1401 C1399 1.387 . S
C1401 C1403 1.397 . S
C1401 H1405 0.950 . S
H1402 C1398 0.950 . S
C1403 C1401 1.397 . S
C1403 C1404 1.384 1_655 S
C1403 H1406 0.946 1_655 S
C1404 C1403 1.384 1_455 S
C1404 C1407 1.387 1_455 S
H1405 C1401 0.950 . S
H1406 C1403 0.946 1_455 S
C1407 C1398 1.390 . S
C1407 H1400 0.950 1_655 S
C1407 C1404 1.387 1_655 S
C1408 C1409 1.387 . S
C1408 H1412 0.950 . S
C1408 C1417 1.390 . S
C1409 C1408 1.387 . S
C1409 C1411 1.387 . S
H1410 C1417 0.950 . S
C1411 C1409 1.387 . S
C1411 C1413 1.390 . S
C1411 H1415 0.950 . S
H1412 C1408 0.950 . S
C1413 C1411 1.390 . S
C1413 C1414 1.387 . S
C1413 H1416 0.950 . S
C1414 C1413 1.387 . S
C1414 C1417 1.387 . S
H1415 C1411 0.950 . S
H1416 C1413 0.950 . S
C1417 C1408 1.390 . S
C1417 H1410 0.950 . S
C1417 C1414 1.387 . S
C1418 C1419 1.387 . S
C1418 H1422 0.950 . S
C1418 C1427 1.390 . S
C1419 C1418 1.387 . S
C1419 C1421 1.387 . S
H1420 C1427 0.950 1_554 S
C1421 C1419 1.387 . S
C1421 C1423 1.390 1_556 S
C1421 H1425 0.950 . S
H1422 C1418 0.950 . S
C1423 C1421 1.390 1_554 S
C1423 C1424 1.387 . S
C1423 H1426 0.950 . S
C1424 C1423 1.387 . S
C1424 C1427 1.387 1_554 S
H1425 C1421 0.950 . S
H1426 C1423 0.950 . S
C1427 C1418 1.390 . S
C1427 H1420 0.950 1_556 S
C1427 C1424 1.387 1_556 S
C1428 C1429 1.387 . S
C1428 H1432 0.950 . S
C1428 C1437 1.390 . S
C1429 C1428 1.387 . S
C1429 C1431 1.387 . S
H1430 C1437 0.950 . S
C1431 C1429 1.387 . S
C1431 C1433 1.390 . S
C1431 H1435 0.950 . S
H1432 C1428 0.950 . S
C1433 C1431 1.390 . S
C1433 C1434 1.387 . S
C1433 H1436 0.950 . S
C1434 C1433 1.387 . S
C1434 C1437 1.387 . S
H1435 C1431 0.950 . S
H1436 C1433 0.950 . S
C1437 C1428 1.390 . S
C1437 H1430 0.950 . S
C1437 C1434 1.387 . S
C1438 C1439 1.387 . S
C1438 H1442 0.950 . S
C1438 C1447 1.390 . S
C1439 C1438 1.387 . S
C1439 C1441 1.387 . S
H1440 C1447 0.950 . S
C1441 C1439 1.387 . S
C1441 C1443 1.390 . S
C1441 H1445 0.950 . S
H1442 C1438 0.950 . S
C1443 C1441 1.390 . S
C1443 C1444 1.387 . S
C1443 H1446 0.950 . S
C1444 C1443 1.387 . S
C1444 C1447 1.387 . S
H1445 C1441 0.950 . S
H1446 C1443 0.950 . S
C1447 C1438 1.390 . S
C1447 H1440 0.950 . S
C1447 C1444 1.387 . S
C1448 C1449 1.387 . S
C1448 H1452 0.950 . S
C1448 C1457 1.390 . S
C1449 C1448 1.387 . S
C1449 C1451 1.387 . S
H1450 C1457 0.950 . S
C1451 C1449 1.387 . S
C1451 C1453 1.390 . S
C1451 H1455 0.950 . S
H1452 C1448 0.950 . S
C1453 C1451 1.390 . S
C1453 C1454 1.387 . S
C1453 H1456 0.950 . S
C1454 C1453 1.387 . S
C1454 C1457 1.387 . S
H1455 C1451 0.950 . S
H1456 C1453 0.950 . S
C1457 C1448 1.390 . S
C1457 H1450 0.950 . S
C1457 C1454 1.387 . S
C1458 C1459 1.387 . S
C1458 H1462 0.950 . S
C1458 C1467 1.390 1_554 S
C1459 C1458 1.387 . S
C1459 C1461 1.387 . S
H1460 C1467 0.950 . S
C1461 C1459 1.387 . S
C1461 C1463 1.390 . S
C1461 H1465 0.950 . S
H1462 C1458 0.950 . S
C1463 C1461 1.390 . S
C1463 C1464 1.387 1_554 S
C1463 H1466 0.950 . S
C1464 C1463 1.387 1_556 S
C1464 C1467 1.387 . S
H1465 C1461 0.950 . S
H1466 C1463 0.950 . S
C1467 C1458 1.390 1_556 S
C1467 H1460 0.950 . S
C1467 C1464 1.387 . S
C1468 C1469 1.387 . S
C1468 H1472 0.950 . S
C1468 C1477 1.390 . S
C1469 C1468 1.387 . S
C1469 C1471 1.387 . S
H1470 C1477 0.950 . S
C1471 C1469 1.387 . S
C1471 C1473 1.390 . S
C1471 H1475 0.950 . S
H1472 C1468 0.950 . S
C1473 C1471 1.390 . S
C1473 C1474 1.387 . S
C1473 H1476 0.950 . S
C1474 C1473 1.387 . S
C1474 C1477 1.387 . S
H1475 C1471 0.950 . S
H1476 C1473 0.950 . S
C1477 C1468 1.390 . S
C1477 H1470 0.950 . S
C1477 C1474 1.387 . S
C1478 C1479 1.387 . S
C1478 H1482 0.950 . S
C1478 C1487 1.390 . S
C1479 C1478 1.387 . S
C1479 C1481 1.387 . S
H1480 C1487 0.950 . S
C1481 C1479 1.387 . S
C1481 C1483 1.390 . S
C1481 H1485 0.950 . S
H1482 C1478 0.950 . S
C1483 C1481 1.390 . S
C1483 C1484 1.387 . S
C1483 H1486 0.950 . S
C1484 C1483 1.387 . S
C1484 C1487 1.387 . S
H1485 C1481 0.950 . S
H1486 C1483 0.950 . S
C1487 C1478 1.390 . S
C1487 H1480 0.950 . S
C1487 C1484 1.387 . S
C1488 C1489 1.387 . S
C1488 H1492 0.950 . S
C1488 C1497 1.390 . S
C1489 C1488 1.387 . S
C1489 C1491 1.387 . S
H1490 C1497 0.950 . S
C1491 C1489 1.387 . S
C1491 C1493 1.390 . S
C1491 H1495 0.950 . S
H1492 C1488 0.950 . S
C1493 C1491 1.390 . S
C1493 C1494 1.387 . S
C1493 H1496 0.950 . S
C1494 C1493 1.387 . S
C1494 C1497 1.387 . S
H1495 C1491 0.950 . S
H1496 C1493 0.950 . S
C1497 C1488 1.390 . S
C1497 H1490 0.950 . S
C1497 C1494 1.387 . S
C1498 C1499 1.387 . S
C1498 H1502 0.950 . S
C1498 C1507 1.390 . S
C1499 C1498 1.387 . S
C1499 C1501 1.387 . S
H1500 C1507 0.950 . S
C1501 C1499 1.387 . S
C1501 C1503 1.390 . S
C1501 H1505 0.950 . S
H1502 C1498 0.950 . S
C1503 C1501 1.390 . S
C1503 C1504 1.387 . S
C1503 H1506 0.950 . S
C1504 C1503 1.387 . S
C1504 C1507 1.387 . S
H1505 C1501 0.950 . S
H1506 C1503 0.950 . S
C1507 C1498 1.390 . S
C1507 H1500 0.950 . S
C1507 C1504 1.387 . S
C1508 C1509 1.387 . S
C1508 H1512 0.950 . S
C1508 C1517 1.390 . S
C1509 C1508 1.387 . S
C1509 C1511 1.387 . S
H1510 C1517 0.950 . S
C1511 C1509 1.387 . S
C1511 C1513 1.390 . S
C1511 H1515 0.950 . S
H1512 C1508 0.950 . S
C1513 C1511 1.390 . S
C1513 C1514 1.387 . S
C1513 H1516 0.950 . S
C1514 C1513 1.387 . S
C1514 C1517 1.387 . S
H1515 C1511 0.950 . S
H1516 C1513 0.950 . S
C1517 C1508 1.390 . S
C1517 H1510 0.950 . S
C1517 C1514 1.387 . S
C1518 C1519 1.387 . S
C1518 H1522 0.950 . S
C1518 C1527 1.390 . S
C1519 C1518 1.387 . S
C1519 C1521 1.387 . S
H1520 C1527 0.950 . S
C1521 C1519 1.387 . S
C1521 C1523 1.390 . S
C1521 H1525 0.950 . S
H1522 C1518 0.950 . S
C1523 C1521 1.390 . S
C1523 C1524 1.387 . S
C1523 H1526 0.950 . S
C1524 C1523 1.387 . S
C1524 C1527 1.387 . S
H1525 C1521 0.950 . S
H1526 C1523 0.950 . S
C1527 C1518 1.390 . S
C1527 H1520 0.950 . S
C1527 C1524 1.387 . S
C1528 C1529 1.387 . S
C1528 H1532 0.950 . S
C1528 C1537 1.390 . S
C1529 C1528 1.387 . S
C1529 C1531 1.387 . S
H1530 C1537 0.950 . S
C1531 C1529 1.387 . S
C1531 C1533 1.390 . S
C1531 H1535 0.950 . S
H1532 C1528 0.950 . S
C1533 C1531 1.390 . S
C1533 C1534 1.387 . S
C1533 H1536 0.950 . S
C1534 C1533 1.387 . S
C1534 C1537 1.387 . S
H1535 C1531 0.950 . S
H1536 C1533 0.950 . S
C1537 C1528 1.390 . S
C1537 H1530 0.950 . S
C1537 C1534 1.387 . S
C1538 C1539 1.387 . S
C1538 H1542 0.950 . S
C1538 C1547 1.390 . S
C1539 C1538 1.387 . S
C1539 C1541 1.387 . S
H1540 C1547 0.950 . S
C1541 C1539 1.387 . S
C1541 C1543 1.390 . S
C1541 H1545 0.950 . S
H1542 C1538 0.950 . S
C1543 C1541 1.390 . S
C1543 C1544 1.387 . S
C1543 H1546 0.950 . S
C1544 C1543 1.387 . S
C1544 C1547 1.387 . S
H1545 C1541 0.950 . S
H1546 C1543 0.950 . S
C1547 C1538 1.390 . S
C1547 H1540 0.950 . S
C1547 C1544 1.387 . S
C1548 C1549 1.387 . S
C1548 H1552 0.950 . S
C1548 C1557 1.390 . S
C1549 C1548 1.387 . S
C1549 C1551 1.387 . S
H1550 C1557 0.950 . S
C1551 C1549 1.387 . S
C1551 C1553 1.390 . S
C1551 H1555 0.950 . S
H1552 C1548 0.950 . S
C1553 C1551 1.390 . S
C1553 C1554 1.387 . S
C1553 H1556 0.950 . S
C1554 C1553 1.387 . S
C1554 C1557 1.387 . S
H1555 C1551 0.950 . S
H1556 C1553 0.950 . S
C1557 C1548 1.390 . S
C1557 H1550 0.950 . S
C1557 C1554 1.387 . S
C1558 C1559 1.387 . S
C1558 H1562 0.950 . S
C1558 C1567 1.390 . S
C1559 C1558 1.387 . S
C1559 C1561 1.387 . S
H1560 C1567 0.950 . S
C1561 C1559 1.387 . S
C1561 C1563 1.390 . S
C1561 H1565 0.950 . S
H1562 C1558 0.950 . S
C1563 C1561 1.390 . S
C1563 C1564 1.387 . S
C1563 H1566 0.950 . S
C1564 C1563 1.387 . S
C1564 C1567 1.387 . S
H1565 C1561 0.950 . S
H1566 C1563 0.950 . S
C1567 C1558 1.390 . S
C1567 H1560 0.950 . S
C1567 C1564 1.387 . S
C1568 C1569 1.387 . S
C1568 H1572 0.950 . S
C1568 C1577 1.390 . S
C1569 C1568 1.387 . S
C1569 C1571 1.387 . S
H1570 C1577 0.950 . S
C1571 C1569 1.387 . S
C1571 C1573 1.390 . S
C1571 H1575 0.950 . S
H1572 C1568 0.950 . S
C1573 C1571 1.390 . S
C1573 C1574 1.387 . S
C1573 H1576 0.950 . S
C1574 C1573 1.387 . S
C1574 C1577 1.387 . S
H1575 C1571 0.950 . S
H1576 C1573 0.950 . S
C1577 C1568 1.390 . S
C1577 H1570 0.950 . S
C1577 C1574 1.387 . S
C1578 C1579 1.387 . S
C1578 H1582 0.950 . S
C1578 C1587 1.390 . S
C1579 C1578 1.387 . S
C1579 C1581 1.387 . S
H1580 C1587 0.950 . S
C1581 C1579 1.387 . S
C1581 C1583 1.390 . S
C1581 H1585 0.950 . S
H1582 C1578 0.950 . S
C1583 C1581 1.390 . S
C1583 C1584 1.387 . S
C1583 H1586 0.950 . S
C1584 C1583 1.387 . S
C1584 C1587 1.387 . S
H1585 C1581 0.950 . S
H1586 C1583 0.950 . S
C1587 C1578 1.390 . S
C1587 H1580 0.950 . S
C1587 C1584 1.387 . S
C1588 C1589 1.387 . S
C1588 H1592 0.950 . S
C1588 C1597 1.390 . S
C1589 C1588 1.387 . S
C1589 C1591 1.387 . S
H1590 C1597 0.950 . S
C1591 C1589 1.387 . S
C1591 C1593 1.390 . S
C1591 H1595 0.950 . S
H1592 C1588 0.950 . S
C1593 C1591 1.390 . S
C1593 C1594 1.387 . S
C1593 H1596 0.950 . S
C1594 C1593 1.387 . S
C1594 C1597 1.387 . S
H1595 C1591 0.950 . S
H1596 C1593 0.950 . S
C1597 C1588 1.390 . S
C1597 H1590 0.950 . S
C1597 C1594 1.387 . S
C1598 C1599 1.387 . S
C1598 H1602 0.950 . S
C1598 C1607 1.390 . S
C1599 C1598 1.387 . S
C1599 C1601 1.387 . S
H1600 C1607 0.950 . S
C1601 C1599 1.387 . S
C1601 C1603 1.390 . S
C1601 H1605 0.950 . S
H1602 C1598 0.950 . S
C1603 C1601 1.390 . S
C1603 C1604 1.387 . S
C1603 H1606 0.950 . S
C1604 C1603 1.387 . S
C1604 C1607 1.387 . S
H1605 C1601 0.950 . S
H1606 C1603 0.950 . S
C1607 C1598 1.390 . S
C1607 H1600 0.950 . S
C1607 C1604 1.387 . S
C1608 C1609 1.387 . S
C1608 H1612 0.950 . S
C1608 C1617 1.390 . S
C1609 C1608 1.387 . S
C1609 C1611 1.387 . S
H1610 C1617 0.950 . S
C1611 C1609 1.387 . S
C1611 C1613 1.390 . S
C1611 H1615 0.950 . S
H1612 C1608 0.950 . S
C1613 C1611 1.390 . S
C1613 C1614 1.387 . S
C1613 H1616 0.950 . S
C1614 C1613 1.387 . S
C1614 C1617 1.387 . S
H1615 C1611 0.950 . S
H1616 C1613 0.950 . S
C1617 C1608 1.390 . S
C1617 H1610 0.950 . S
C1617 C1614 1.387 . S
C1618 C1619 1.387 . S
C1618 H1622 0.950 . S
C1618 C1627 1.390 . S
C1619 C1618 1.387 . S
C1619 C1621 1.387 . S
H1620 C1627 0.950 . S
C1621 C1619 1.387 . S
C1621 C1623 1.390 . S
C1621 H1625 0.950 . S
H1622 C1618 0.950 . S
C1623 C1621 1.390 . S
C1623 C1624 1.387 . S
C1623 H1626 0.950 . S
C1624 C1623 1.387 . S
C1624 C1627 1.387 . S
H1625 C1621 0.950 . S
H1626 C1623 0.950 . S
C1627 C1618 1.390 . S
C1627 H1620 0.950 . S
C1627 C1624 1.387 . S
C1628 C1629 1.387 . S
C1628 H1632 0.952 1_565 S
C1628 C1637 1.390 . S
C1629 C1628 1.387 . S
C1629 C1631 1.387 . S
H1630 C1637 0.950 . S
C1631 C1629 1.387 . S
C1631 C1633 1.390 . S
C1631 H1635 0.950 . S
H1632 C1628 0.952 1_545 S
C1633 C1631 1.390 . S
C1633 C1634 1.387 . S
C1633 H1636 0.950 . S
C1634 C1633 1.387 . S
C1634 C1637 1.387 . S
H1635 C1631 0.950 . S
H1636 C1633 0.950 . S
C1637 C1628 1.390 . S
C1637 H1630 0.950 . S
C1637 C1634 1.387 . S
C1638 C1639 1.387 . S
C1638 H1642 0.950 . S
C1638 C1647 1.390 1_455 S
C1639 C1638 1.387 . S
C1639 C1641 1.387 . S
H1640 C1647 0.950 . S
C1641 C1639 1.387 . S
C1641 C1643 1.390 . S
C1641 H1645 0.950 . S
H1642 C1638 0.950 . S
C1643 C1641 1.390 . S
C1643 C1644 1.387 1_455 S
C1643 H1646 0.950 . S
C1644 C1643 1.387 1_655 S
C1644 C1647 1.387 . S
H1645 C1641 0.950 . S
H1646 C1643 0.950 . S
C1647 C1638 1.390 1_655 S
C1647 H1640 0.950 . S
C1647 C1644 1.387 . S
C694 C354 1.192 . S
C689 C11 1.184 . S
C699 C14 1.275 . S
C704 C366 1.294 . S
C714 C401 1.361 . S
C709 C37 1.373 . S
C724 C410 1.287 . S
C719 C47 1.294 . S
C734 C365 1.284 . S
C729 C61 1.323 . S
C739 C79 1.348 . S
C744 C390 1.358 . S
C754 C409 1.285 . S
C749 C84 1.291 . S
C759 C109 1.228 . S
C764 C351 1.210 . S
C769 C123 1.224 . S
C774 C344 1.235 . S
C784 C368 1.273 . S
C779 C131 1.282 . S
C794 C387 1.353 . S
C789 C140 1.363 . S
C804 C412 1.308 . S
C799 C163 1.294 . S
C814 C373 1.280 . S
C809 C121 1.287 . S
C824 C398 1.349 . S
C819 C126 1.326 . S
C829 C145 1.296 . S
C834 C417 1.253 . S
C844 C357 1.213 . S
C839 C165 1.228 . S
C849 C168 1.219 . S
C854 C346 1.233 . S
C859 C193 1.262 . S
C864 C445 1.252 . S
C874 C461 1.313 . S
C869 C205 1.333 . S
C884 C475 1.302 . S
C879 C215 1.338 . S
C889 C224 1.239 . S
C894 C343 1.239 . S
C899 C247 1.350 . S
C904 C395 1.320 . S
C914 C478 1.256 . S
C909 C207 1.252 . S
C924 C442 1.345 . S
C919 C257 1.357 . S
C934 C498 1.311 . S
C929 C23 1.285 . S
C944 C522 1.219 . S
C939 C0 1.208 . S
C949 C53 1.182 . S
C954 C555 1.175 . S
C959 C33 1.327 . S
C964 C563 1.319 . S
C969 C103 1.328 . S
C974 C533 1.315 . S
C979 C95 1.168 . S
C984 C544 1.174 . S
C994 C564 1.234 . S
C989 C70 1.222 . S
C999 C65 1.326 . S
C1004 C497 1.337 . S
C1009 C271 1.316 . S
C1014 C500 1.312 . S
C1024 C530 1.287 . S
C1019 C219 1.263 . S
C1034 C541 1.201 . S
C1029 C235 1.196 . S
C1044 C571 1.236 . S
C1039 C182 1.243 . S
C1054 C519 1.233 . S
C1049 C266 1.234 . S
C1064 C552 1.172 . S
C1059 C221 1.166 . S
C1074 C566 1.285 . S
C1069 C233 1.269 . S
C1079 C187 1.362 . S
C1084 C505 1.339 . S
C1094 C508 1.250 . S
C1089 C289 1.231 . S
C1099 C154 1.281 . S
C1104 C596 1.295 . S
C1114 C608 1.236 . S
C1109 C299 1.235 . S
C1119 C137 1.260 . S
C1124 C629 1.261 . S
C1134 C511 1.295 . S
C1129 C149 1.293 . S
C1144 C549 1.220 . S
C1139 C313 1.232 . S
C1154 C632 1.255 . S
C1149 C294 1.241 . S
C1159 C333 1.243 . S
C1164 C599 1.244 . S
C1169 C39 1.199 . S
C1174 C654 1.204 . S
C1179 C42 1.267 . S
C1184 C432 1.292 . S
C1194 C456 1.339 . S
C1189 C9 1.329 . S
C1199 C19 1.299 . S
C1204 C486 1.287 . S
C1209 C89 1.310 . S
C1214 C431 1.274 . S
C1219 C107 1.372 . S
C1224 C467 1.361 . S
C1234 C483 1.300 . S
C1229 C56 1.308 . S
C1244 C665 1.193 . S
C1239 C81 1.211 . S
C1254 C662 1.219 . S
C1249 C305 1.208 . S
C1264 C434 1.269 . S
C1259 C285 1.285 . S
C1274 C464 1.365 . S
C1269 C322 1.346 . S
C1279 C317 1.307 . S
C1284 C476 1.320 . S
C1294 C439 1.282 . S
C1289 C303 1.292 . S
C1299 C280 1.331 . S
C1304 C453 1.326 . S
C1314 C489 1.247 . S
C1309 C327 1.285 . S
C1319 C319 1.243 . S
C1324 C651 1.224 . S
C1334 C652 1.237 . S
C1329 C210 1.223 . S
C1339 C249 1.261 . S
C1344 C379 1.240 . S
C1354 C388 1.304 . S
C1349 C275 1.293 . S
C1359 C173 1.334 . S
C1364 C423 1.306 . S
C1374 C659 1.227 . S
C1369 C252 1.234 . S
C1384 C454 1.328 . S
C1379 C191 1.324 . S
C1394 C420 1.252 . S
C1389 C277 1.244 . S
C1404 C376 1.327 . S
C1399 C229 1.341 . S
C1409 C51 1.320 . S
C1414 C673 1.329 . S
C1419 C28 1.240 . S
C1424 C585 1.232 . S
C1429 C25 1.176 . S
C1434 C621 1.183 . S
C1444 C640 1.286 . S
C1439 C5 1.284 . S
C1454 C586 1.293 . S
C1449 C75 1.288 . S
C1459 C67 1.174 . S
C1464 C610 1.176 . S
C1474 C637 1.249 . S
C1469 C98 1.255 . S
C1479 C93 1.311 . S
C1484 C674 1.328 . S
C1494 C681 1.346 . S
C1489 C201 1.352 . S
C1499 C177 1.275 . S
C1504 C593 1.289 . S
C1509 C263 1.197 . S
C1514 C607 1.193 . S
C1524 C630 1.223 . S
C1519 C238 1.210 . S
C1534 C588 1.220 . S
C1529 C196 1.217 . S
C1539 C179 1.167 . S
C1544 C618 1.173 . S
C1554 C643 1.295 . S
C1549 C261 1.288 . S
C1564 C676 1.343 . S
C1559 C243 1.341 . S
C1574 C687 1.260 . S
C1569 C135 1.262 . S
C1584 C527 1.320 . S
C1579 C308 1.316 . S
C1589 C117 1.234 . S
C1594 C542 1.231 . S
C1599 C291 1.240 . S
C1604 C574 1.257 . S
C1614 C684 1.282 . S
C1609 C331 1.276 . S
C1624 C615 1.216 . S
C1619 C159 1.227 . S
C1634 C577 1.281 . S
C1629 C112 1.281 . S
C1644 C520 1.238 . S
C1639 C151 1.229 . S
