# Generated by pormake.
# Topology rtl, (3,6)-cn, num edge types: 1
# Building blocks:
#     Node 0, Type 0, BuildingBlock: WUSLED_clean_sbu_0, # of connection points: 3
#     Node 1, Type 0, BuildingBlock: WUSLED_clean_sbu_0, # of connection points: 3
#     Node 2, Type 0, BuildingBlock: WUSLED_clean_sbu_0, # of connection points: 3
#     Node 3, Type 0, BuildingBlock: WUSLED_clean_sbu_0, # of connection points: 3
#     Node 4, Type 1, BuildingBlock: CIFDUS_clean_sbu_1, # of connection points: 6
#     Node 5, Type 1, BuildingBlock: CIFDUS_clean_sbu_1, # of connection points: 6
#     Edge 6, Type (0, 1), BuildingBlock: TEMPAE_clean_linker_10, # of connection points: 2
#     Edge 7, Type (0, 1), BuildingBlock: TEMPAE_clean_linker_10, # of connection points: 2
#     Edge 8, Type (0, 1), BuildingBlock: TEMPAE_clean_linker_10, # of connection points: 2
#     Edge 9, Type (0, 1), BuildingBlock: TEMPAE_clean_linker_10, # of connection points: 2
#     Edge 10, Type (0, 1), BuildingBlock: TEMPAE_clean_linker_10, # of connection points: 2
#     Edge 11, Type (0, 1), BuildingBlock: TEMPAE_clean_linker_10, # of connection points: 2
#     Edge 12, Type (0, 1), BuildingBlock: TEMPAE_clean_linker_10, # of connection points: 2
#     Edge 13, Type (0, 1), BuildingBlock: TEMPAE_clean_linker_10, # of connection points: 2
#     Edge 14, Type (0, 1), BuildingBlock: TEMPAE_clean_linker_10, # of connection points: 2
#     Edge 15, Type (0, 1), BuildingBlock: TEMPAE_clean_linker_10, # of connection points: 2
#     Edge 16, Type (0, 1), BuildingBlock: TEMPAE_clean_linker_10, # of connection points: 2
#     Edge 17, Type (0, 1), BuildingBlock: TEMPAE_clean_linker_10, # of connection points: 2
# Relax obj value: 0.026
# Max RMSD: 0.062
# Mean RMSD: 0.045
data_MOF--net-rtl--node1-WUSLED_clean_sbu_0--node2-CIFDUS_clean_sbu_1--edge1-TEMPAE_clean_linker_10
_symmetry_space_group_name_H-M    P1
_symmetry_Int_Tables_number       1
_symmetry_cell_setting            triclinic
loop_
_symmetry_equiv_pos_as_xyz
'x, y, z'
_cell_length_a     40.472462
_cell_length_b     44.589744
_cell_length_c     31.172312
_cell_angle_alpha  90.373335
_cell_angle_beta   98.012481
_cell_angle_gamma 90.048532
loop_
_atom_site_label
_atom_site_type_symbol
_atom_site_fract_x
_atom_site_fract_y
_atom_site_fract_z
_atom_type_partial_charge
C0 C 0.24676 0.92485 0.22279 0.0
C1 C 0.22128 0.94525 0.20825 0.0
C2 C 0.21391 0.95688 0.28304 0.0
C3 C 0.20496 0.96113 0.23814 0.0
C4 C 0.23976 0.93662 0.29713 0.0
C5 C 0.256 0.92086 0.26732 0.0
U6 U 0.26309 0.90359 0.10812 0.0
O7 O 0.3102 0.89092 0.08466 0.0
O8 O 0.26824 0.85916 0.07899 0.0
C9 C 0.29961 0.86362 0.07406 0.0
C10 C 0.26347 0.90689 0.19235 0.0
C11 C 0.32309 0.8388 0.08673 0.0
C12 C 0.33748 0.79185 0.12434 0.0
C13 C 0.31719 0.81736 0.11768 0.0
C14 C 0.37076 0.80969 0.07091 0.0
C15 C 0.36396 0.78732 0.10013 0.0
C16 C 0.35051 0.83507 0.06426 0.0
C17 C 0.21576 0.94649 1.01133 0.0
C18 C 0.21151 0.93177 0.93548 0.0
C19 C 0.18665 0.97829 0.95555 0.0
C20 C 0.19805 0.97271 0.9991 0.0
C21 C 0.19291 0.95779 0.92309 0.0
C22 C 0.22281 0.92614 0.97929 0.0
C23 C 0.22496 0.9404 0.05777 0.0
O24 O 0.24415 0.88843 0.1671 0.0
O25 O 0.28488 0.92132 0.17195 0.0
O26 O 0.25578 0.94691 0.07448 0.0
O27 O 0.2144 0.91475 0.07136 0.0
H28 H 0.21383 0.94865 0.17388 0.0
H29 H 0.18534 0.97668 0.22612 0.0
H30 H 0.24691 0.93224 0.33128 0.0
H31 H 0.2755 0.90511 0.27912 0.0
H32 H 0.33147 0.77503 0.14695 0.0
H33 H 0.29623 0.81976 0.13558 0.0
H34 H 0.3913 0.80721 0.05232 0.0
H35 H 0.35561 0.85135 0.04036 0.0
H36 H 0.21719 0.91568 0.9114 0.0
H37 H 0.17196 0.99827 0.94756 0.0
H38 H 0.19229 0.98861 0.02343 0.0
H39 H 0.23657 0.90576 0.98819 0.0
C40 C 0.71896 0.6608 0.71116 0.0
C41 C 0.6859 0.65159 0.6977 0.0
C42 C 0.68367 0.62828 0.76785 0.0
C43 C 0.6684 0.63557 0.72583 0.0
C44 C 0.71711 0.63679 0.78059 0.0
C45 C 0.73453 0.6529 0.75252 0.0
U46 U 0.73794 0.68298 0.59917 0.0
O47 O 0.74546 0.72728 0.57153 0.0
O48 O 0.78561 0.69384 0.5761 0.0
C49 C 0.77641 0.72145 0.56592 0.0
C50 C 0.73736 0.67908 0.683 0.0
C51 C 0.80118 0.74527 0.5788 0.0
C52 C 0.82571 0.78442 0.62817 0.0
C53 C 0.80333 0.76037 0.61878 0.0
C54 C 0.84405 0.77807 0.558 0.0
C55 C 0.84617 0.79383 0.59763 0.0
C56 C 0.822 0.75406 0.5489 0.0
C57 C 0.6889 0.63966 0.50224 0.0
C58 C 0.68651 0.65081 0.42558 0.0
C59 C 0.65895 0.60656 0.44823 0.0
C60 C 0.66987 0.61381 0.49145 0.0
C61 C 0.66699 0.62497 0.41465 0.0
C62 C 0.69743 0.65811 0.46912 0.0
C63 C 0.69847 0.64694 0.54835 0.0
O64 O 0.75878 0.66448 0.66263 0.0
O65 O 0.71955 0.69873 0.65842 0.0
O66 O 0.68906 0.6733 0.56132 0.0
O67 O 0.72894 0.63966 0.56524 0.0
H68 H 0.67347 0.65709 0.66566 0.0
H69 H 0.64285 0.62899 0.71474 0.0
H70 H 0.72956 0.63182 0.81279 0.0
H71 H 0.76006 0.65966 0.76344 0.0
H72 H 0.8268 0.79568 0.6592 0.0
H73 H 0.78744 0.75388 0.64239 0.0
H74 H 0.85861 0.78485 0.53309 0.0
H75 H 0.82058 0.74278 0.51778 0.0
H76 H 0.69335 0.66536 0.40054 0.0
H77 H 0.64341 0.58686 0.44123 0.0
H78 H 0.66294 0.5994 0.51663 0.0
H79 H 0.71221 0.67818 0.47694 0.0
C80 C 0.79832 0.16008 0.13833 0.0
C81 C 0.83114 0.15082 0.13559 0.0
C82 C 0.83675 0.13216 0.20959 0.0
C83 C 0.85021 0.13707 0.17095 0.0
C84 C 0.80341 0.14034 0.21146 0.0
C85 C 0.78444 0.15422 0.17617 0.0
U86 U 0.77456 0.17892 0.01835 0.0
O87 O 0.72563 0.19081 0.98189 0.0
O88 O 0.76739 0.22267 0.98651 0.0
C89 C 0.73536 0.21815 0.97411 0.0
C90 C 0.77879 0.1771 0.1031 0.0
C91 C 0.71296 0.2428 0.98336 0.0
C92 C 0.69975 0.2854 0.02712 0.0
C93 C 0.71962 0.26042 0.02112 0.0
C94 C 0.66543 0.27472 0.95871 0.0
C95 C 0.67273 0.29314 0.99561 0.0
C96 C 0.68542 0.24987 0.95263 0.0
C97 C 0.82149 0.13224 0.93885 0.0
C98 C 0.81919 0.13626 0.86063 0.0
C99 C 0.85785 0.10175 0.90086 0.0
C100 C 0.84632 0.1104 0.93917 0.0
C101 C 0.84482 0.11481 0.86118 0.0
C102 C 0.80767 0.14504 0.89934 0.0
C103 C 0.81174 0.14139 0.98075 0.0
O104 O 0.79585 0.19598 0.08249 0.0
O105 O 0.75646 0.16176 0.07714 0.0
O106 O 0.78112 0.13515 0.98742 0.0
O107 O 0.82219 0.16786 0.99569 0.0
H108 H 0.84227 0.15477 0.10646 0.0
H109 H 0.87559 0.13051 0.16818 0.0
H110 H 0.79233 0.137 0.24075 0.0
H111 H 0.75912 0.16106 0.17884 0.0
H112 H 0.70564 0.29876 0.05633 0.0
H113 H 0.74056 0.25523 0.04554 0.0
H114 H 0.64492 0.28008 0.93379 0.0
H115 H 0.67981 0.23655 0.92333 0.0
H116 H 0.80878 0.1468 0.83056 0.0
H117 H 0.87717 0.08484 0.90234 0.0
H118 H 0.85718 0.10021 0.96934 0.0
H119 H 0.78845 0.162 0.89854 0.0
C120 C 0.26744 0.4288 0.38951 0.0
C121 C 0.29947 0.44112 0.40083 0.0
C122 C 0.29864 0.46007 0.32735 0.0
C123 C 0.31496 0.45657 0.37 0.0
C124 C 0.26604 0.44869 0.31687 0.0
C125 C 0.25068 0.43318 0.3476 0.0
U126 U 0.25354 0.40653 0.50434 0.0
O127 O 0.20774 0.39185 0.52904 0.0
O128 O 0.25112 0.3619 0.53319 0.0
C129 C 0.22005 0.36528 0.54007 0.0
C130 C 0.25165 0.41018 0.42 0.0
C131 C 0.19796 0.33922 0.52964 0.0
C132 C 0.16908 0.30267 0.47929 0.0
C133 C 0.18816 0.32903 0.487 0.0
C134 C 0.16898 0.29722 0.55654 0.0
C135 C 0.15991 0.28613 0.51418 0.0
C136 C 0.18782 0.32337 0.56412 0.0
C137 C 0.30101 0.44999 0.60104 0.0
C138 C 0.29867 0.43872 0.67683 0.0
C139 C 0.33645 0.47697 0.65764 0.0
C140 C 0.32528 0.47182 0.61382 0.0
C141 C 0.32341 0.46048 0.68984 0.0
C142 C 0.2876 0.43347 0.63273 0.0
C143 C 0.29121 0.4443 0.55449 0.0
O144 O 0.27163 0.39195 0.44435 0.0
O145 O 0.23006 0.42383 0.44123 0.0
O146 O 0.25993 0.4498 0.539 0.0
O147 O 0.30246 0.41924 0.53959 0.0
H148 H 0.31284 0.43814 0.43313 0.0
H149 H 0.34017 0.46476 0.37916 0.0
H150 H 0.25251 0.45139 0.28463 0.0
H151 H 0.22588 0.42405 0.33831 0.0
H152 H 0.16243 0.29474 0.44631 0.0
H153 H 0.19579 0.34107 0.45993 0.0
H154 H 0.16173 0.28546 0.58409 0.0
H155 H 0.19502 0.33096 0.59721 0.0
H156 H 0.28783 0.42579 0.70066 0.0
H157 H 0.35599 0.49342 0.66616 0.0
H158 H 0.33606 0.48463 0.58977 0.0
H159 H 0.26883 0.41643 0.62336 0.0
O160 O 0.98775 0.0509 0.50314 0.0
Mn161 Mn 0.01708 0.03403 0.55852 0.0
O162 O 0.98639 1.01173 0.45737 0.0
Mn163 Mn 1.00559 0.9842 0.49725 0.0
O164 O 0.04621 1.01409 0.61254 0.0
O165 O 0.03767 0.07683 0.56827 0.0
Mn166 Mn 0.04383 0.07727 0.62601 0.0
O167 O 0.97893 0.04457 0.59581 0.0
O168 O 0.07513 0.0504 0.6494 0.0
O169 O 0.05674 0.02554 0.52169 0.0
O170 O 0.05034 0.97843 0.50039 0.0
O171 O 0.05963 0.11291 0.61411 0.0
O172 O 1.00315 0.07696 0.64602 0.0
C173 C 0.97927 0.96604 0.54234 0.0
C174 C 0.97943 0.03884 0.46551 0.0
C175 C 0.06961 0.02296 0.64187 0.0
C176 C 0.0507 0.10388 0.57454 0.0
C177 C 0.97803 0.06197 0.62874 0.0
C178 C 0.06807 1.0017 0.50561 0.0
O179 O 0.99389 0.99241 0.54872 0.0
O180 O 0.98191 0.95183 0.50653 0.0
O181 O 0.53314 0.55564 0.10142 0.0
Mn182 Mn 0.501 0.53379 0.0533 0.0
O183 O 0.52543 0.52518 0.15444 0.0
Mn184 Mn 0.51193 0.49416 0.11601 0.0
O185 O 0.46868 0.51209 1.00355 0.0
O186 O 0.47884 0.57444 0.0398 0.0
Mn187 Mn 0.47351 0.57801 0.98285 0.0
O188 O 0.53616 0.54158 1.01059 0.0
O189 O 0.4447 0.54836 0.96003 0.0
O190 O 0.46337 0.52873 0.09556 0.0
O191 O 0.46903 0.48183 0.11161 0.0
O192 O 0.45669 0.61266 1.00153 0.0
O193 O 0.51504 0.57795 0.96513 0.0
C194 C 0.54185 0.46858 0.08553 0.0
C195 C 0.53675 0.5494 0.14159 0.0
C196 C 0.44758 0.52112 0.97146 0.0
C197 C 0.465 0.60085 0.03935 0.0
C198 C 0.53828 0.56 0.97947 0.0
C199 C 0.45171 0.50494 0.11093 0.0
O200 O 0.52699 0.492 0.06459 0.0
O201 O 0.53896 0.46413 0.12588 0.0
C202 C 0.11417 0.2531 0.47557 0.0
C203 C 0.14197 0.25689 0.50753 0.0
C204 C 0.09525 0.2264 0.47292 0.0
C205 C 0.10411 0.20323 0.50328 0.0
C206 C 0.13322 0.20645 0.53403 0.0
C207 C 0.15186 0.233 0.53539 0.0
C208 C 0.06494 0.22364 0.43898 0.0
C209 C 0.14364 0.18264 0.5675 0.0
C210 C 0.04168 0.15541 0.55033 0.0
C211 C 0.05239 0.12654 0.5407 0.0
C212 C 0.05646 0.18097 0.53543 0.0
C213 C 0.08108 0.17759 0.50771 0.0
C214 C 0.08778 0.14856 0.492 0.0
C215 C 0.07395 0.1231 0.50959 0.0
C216 C 0.04918 0.21108 0.55457 0.0
C217 C 0.11202 0.14432 0.45993 0.0
H218 H 0.10639 0.27141 0.45378 0.0
H219 H 0.17384 0.23544 0.55938 0.0
H220 H 0.06238 0.20048 0.42568 0.0
H221 H 0.04217 0.22873 0.45375 0.0
H222 H 0.06605 0.23956 0.41195 0.0
H223 H 0.16736 0.18836 0.58842 0.0
H224 H 0.12387 0.17972 0.58849 0.0
H225 H 0.14689 0.1608 0.55146 0.0
H226 H 0.02493 0.15801 0.57444 0.0
H227 H 0.08239 0.10085 0.50213 0.0
H228 H 0.0443 0.22823 0.52895 0.0
H229 H 0.07127 0.2186 0.57729 0.0
H230 H 0.0274 0.2102 0.57265 0.0
H231 H 0.10828 0.16182 0.43454 0.0
H232 H 0.10918 0.12189 0.44423 0.0
H233 H 0.13794 0.14649 0.47673 0.0
C234 C 0.39291 0.74431 0.14235 0.0
C235 C 0.38276 0.75847 0.10256 0.0
C236 C 0.40951 0.71648 0.14417 0.0
C237 C 0.41584 0.70236 0.10532 0.0
C238 C 0.40597 0.71676 0.06517 0.0
C239 C 0.38962 0.74451 0.06433 0.0
C240 C 0.42006 0.70205 0.18754 0.0
C241 C 0.41203 0.70258 0.02279 0.0
C242 C 0.47926 0.64256 0.08975 0.0
C243 C 0.45818 0.61818 0.07725 0.0
C244 C 0.46644 0.6696 0.10396 0.0
C245 C 0.43174 0.67211 0.10562 0.0
C246 C 0.41136 0.64618 0.09884 0.0
C247 C 0.42493 0.61942 0.08487 0.0
C248 C 0.48927 0.69645 0.11133 0.0
C249 C 0.3743 0.64766 0.10041 0.0
H250 H 0.38798 0.75507 0.17208 0.0
H251 H 0.38137 0.75496 0.03338 0.0
H252 H 0.40739 0.68006 0.18881 0.0
H253 H 0.4473 0.69767 0.19199 0.0
H254 H 0.41412 0.71623 0.21488 0.0
H255 H 0.40355 0.71706 0.99452 0.0
H256 H 0.43901 0.69793 0.02332 0.0
H257 H 0.39864 0.68083 0.01813 0.0
H258 H 0.50484 0.64185 0.08305 0.0
H259 H 0.40845 0.60078 0.07438 0.0
H260 H 0.48285 0.71065 0.13832 0.0
H261 H 0.48639 0.71035 0.08164 0.0
H262 H 0.51585 0.68961 0.11858 0.0
H263 H 0.36886 0.66115 0.12859 0.0
H264 H 0.36323 0.62496 0.10221 0.0
H265 H 0.36188 0.65874 0.07067 0.0
C266 C 0.85837 0.84631 0.62706 0.0
C267 C 0.86836 0.82083 0.60538 0.0
C268 C 0.87683 0.8732 0.6289 0.0
C269 C 0.9054 0.87502 0.60749 0.0
C270 C 0.91672 0.84891 0.58788 0.0
C271 C 0.89847 0.82211 0.58782 0.0
C272 C 0.86457 0.90016 0.65151 0.0
C273 C 0.94672 0.84973 0.56396 0.0
C274 C 0.92447 0.94524 0.54832 0.0
C275 C 0.95615 0.95298 0.56963 0.0
C276 C 0.9067 0.92096 0.56195 0.0
C277 C 0.92027 0.90476 0.59917 0.0
C278 C 0.95027 0.91498 0.6241 0.0
C279 C 0.9683 0.93875 0.60854 0.0
C280 C 0.8755 0.91053 0.53333 0.0
C281 C 0.96471 0.89926 0.66512 0.0
H282 H 0.83524 0.84585 0.64082 0.0
H283 H 0.90723 0.80238 0.57238 0.0
H284 H 0.88579 0.91251 0.67006 0.0
H285 H 0.85168 0.91574 0.62712 0.0
H286 H 0.84675 0.89371 0.67393 0.0
H287 H 0.95344 0.82713 0.55271 0.0
H288 H 0.94138 0.86448 0.53529 0.0
H289 H 0.96862 0.85924 0.58495 0.0
H290 H 0.91536 0.95597 0.5178 0.0
H291 H 0.99306 0.9443 0.62467 0.0
H292 H 0.85485 0.90703 0.55266 0.0
H293 H 0.88041 0.88869 0.51813 0.0
H294 H 0.8671 0.92674 0.50715 0.0
H295 H 0.94478 0.89376 0.68492 0.0
H296 H 0.98405 0.91315 0.68485 0.0
H297 H 0.97638 0.87787 0.65691 0.0
C298 C 0.6179 0.32046 0.99099 0.0
C299 C 0.65284 0.32077 1.00066 0.0
C300 C 0.59893 0.34612 0.99737 0.0
C301 C 0.61526 0.37283 1.01362 0.0
C302 C 0.65058 0.37359 0.02168 0.0
C303 C 0.66888 0.3476 0.01524 0.0
C304 C 0.56134 0.34413 0.98915 0.0
C305 C 0.66902 0.40144 0.03945 0.0
C306 C 0.5664 0.44602 0.02142 0.0
C307 C 0.5606 0.44506 0.06472 0.0
C308 C 0.58403 0.42258 1.00378 0.0
C309 C 0.59571 0.39775 0.03 0.0
C310 C 0.58953 0.39671 0.07339 0.0
C311 C 0.57239 0.4202 0.09002 0.0
C312 C 0.5902 0.42429 0.95728 0.0
C313 C 0.60117 0.37074 0.10271 0.0
H314 H 0.60527 0.29979 0.97994 0.0
H315 H 0.69588 0.34821 0.02202 0.0
H316 H 0.55123 0.34524 0.02044 0.0
H317 H 0.55087 0.36339 0.96942 0.0
H318 H 0.55254 0.32297 0.97227 0.0
H319 H 0.69633 0.39965 0.03891 0.0
H320 H 0.65951 0.4214 0.02058 0.0
H321 H 0.66469 0.40521 0.07345 0.0
H322 H 0.55733 0.46494 1.00152 0.0
H323 H 0.56814 0.41872 0.1235 0.0
H324 H 0.5782 0.40491 0.93875 0.0
H325 H 0.61736 0.42287 0.95557 0.0
H326 H 0.58037 0.44533 0.94145 0.0
H327 H 0.59072 0.34937 0.08825 0.0
H328 H 0.59365 0.37313 0.1355 0.0
H329 H 0.62875 0.36895 0.10633 0.0
C330 C 0.21255 0.98197 0.35531 0.0
C331 C 0.1955 0.9721 0.31535 0.0
C332 C 0.19521 0.99224 0.38857 0.0
C333 C 0.15992 0.99284 0.38175 0.0
C334 C 0.14264 0.98498 0.34047 0.0
C335 C 0.16061 0.97466 0.30783 0.0
C336 C 0.21462 1.00055 0.43192 0.0
C337 C 0.10499 0.98542 0.33169 0.0
C338 C 0.11258 0.97438 0.47474 0.0
C339 C 0.09789 1.00196 0.48288 0.0
C340 C 0.13363 0.97146 0.44297 0.0
C341 C 0.14103 0.99694 0.41922 0.0
C342 C 0.12857 0.02541 0.42968 0.0
C343 C 0.10699 0.02762 0.46144 0.0
C344 C 0.14596 0.94059 0.43273 0.0
C345 C 0.13659 0.05313 0.40567 0.0
H346 H 0.23955 0.98081 0.36113 0.0
H347 H 0.14711 0.96702 0.27723 0.0
H348 H 0.20516 0.02184 0.44419 0.0
H349 H 0.21127 0.98286 0.45581 0.0
H350 H 0.24173 1.00299 0.43025 0.0
H351 H 0.09554 0.98219 0.29676 0.0
H352 H 0.09482 0.96722 0.35018 0.0
H353 H 0.09522 1.00695 0.3427 0.0
H354 H 0.10577 0.95448 0.49134 0.0
H355 H 0.09553 0.04895 0.46726 0.0
H356 H 0.17345 0.94077 0.43369 0.0
H357 H 0.1349 0.93386 0.39947 0.0
H358 H 0.13933 0.92335 0.45566 0.0
H359 H 0.16402 0.05591 0.40793 0.0
H360 H 0.12592 0.07368 0.41855 0.0
H361 H 0.12662 0.05079 0.37081 0.0
C362 C 0.63166 0.62212 0.80236 0.0
C363 C 0.66445 0.61318 0.79905 0.0
C364 C 0.6139 0.60961 0.8335 0.0
C365 C 0.62923 0.58758 0.8622 0.0
C366 C 0.662 0.57791 0.85841 0.0
C367 C 0.67922 0.59081 0.8269 0.0
C368 C 0.57897 0.6206 0.8364 0.0
C369 C 0.67906 0.55432 0.88812 0.0
C370 C 0.59114 0.58373 0.96655 0.0
C371 C 0.56787 0.56058 0.95711 0.0
C372 C 0.61307 0.59138 0.93716 0.0
C373 C 0.61119 0.57574 0.89715 0.0
C374 C 0.58917 0.551 0.88888 0.0
C375 C 0.56767 0.54376 0.91902 0.0
C376 C 0.63625 0.6178 0.94738 0.0
C377 C 0.5862 0.53383 0.84665 0.0
H378 H 0.62018 0.63964 0.78142 0.0
H379 H 0.70435 0.58345 0.82416 0.0
H380 H 0.56133 0.6014 0.83401 0.0
H381 H 0.57822 0.63158 0.86829 0.0
H382 H 0.5701 0.63688 0.81051 0.0
H383 H 0.70434 0.54877 0.88042 0.0
H384 H 0.68135 0.56225 0.92222 0.0
H385 H 0.6638 0.53353 0.88575 0.0
H386 H 0.5906 0.5972 0.99555 0.0
H387 H 0.54896 0.52639 0.9113 0.0
H388 H 0.62721 0.63692 0.92635 0.0
H389 H 0.66171 0.61218 0.9406 0.0
H390 H 0.63772 0.62512 0.98173 0.0
H391 H 0.57333 0.54794 0.82028 0.0
H392 H 0.57177 0.51271 0.84785 0.0
H393 H 0.61123 0.52833 0.83818 0.0
C394 C 0.84487 0.09826 0.27433 0.0
C395 C 0.85776 0.11974 0.2484 0.0
C396 C 0.8644 0.08679 0.31138 0.0
C397 C 0.89758 0.09711 0.32288 0.0
C398 C 0.91064 0.11893 0.29705 0.0
C399 C 0.89061 0.12995 0.26014 0.0
C400 C 0.84973 0.0632 0.33775 0.0
C401 C 0.94598 0.13031 0.30808 0.0
C402 C 0.94208 0.0816 0.43676 0.0
C403 C 0.9603 0.05578 0.42949 0.0
C404 C 0.92159 0.09552 0.40231 0.0
C405 C 0.91952 0.08336 0.35984 0.0
C406 C 0.93851 0.05778 0.35232 0.0
C407 C 0.95864 0.04444 0.38706 0.0
C408 C 0.90166 0.12283 0.41141 0.0
C409 C 0.93715 0.04407 0.30762 0.0
H410 H 0.81964 0.09004 0.26523 0.0
H411 H 0.9006 0.14687 0.24067 0.0
H412 H 0.86435 0.04217 0.33763 0.0
H413 H 0.85124 0.07075 0.37195 0.0
H414 H 0.82326 0.05814 0.32514 0.0
H415 H 0.95192 0.14826 0.28579 0.0
H416 H 0.95005 0.13919 0.34174 0.0
H417 H 0.96379 0.11158 0.30642 0.0
H418 H 0.94311 0.09042 0.46941 0.0
H419 H 0.97287 0.02467 0.38087 0.0
H420 H 0.87461 0.11786 0.40364 0.0
H421 H 0.90723 0.14162 0.39037 0.0
H422 H 0.90696 0.13022 0.44579 0.0
H423 H 0.91133 0.03658 0.29571 0.0
H424 H 0.95411 0.02453 0.30714 0.0
H425 H 0.94405 0.06103 0.28453 0.0
C426 C 0.34563 0.49452 0.75169 0.0
C427 C 0.33667 0.46553 0.73647 0.0
C428 C 0.36187 0.49941 0.79392 0.0
C429 C 0.36874 0.47477 0.8222 0.0
C430 C 0.35802 0.44569 0.80803 0.0
C431 C 0.34236 0.44135 0.76523 0.0
C432 C 0.37286 0.53084 0.80763 0.0
C433 C 0.36409 0.41906 0.83768 0.0
C434 C 0.44359 0.48786 0.90786 0.0
C435 C 0.42842 0.49976 0.94184 0.0
C436 C 0.42432 0.47791 0.86946 0.0
C437 C 0.38903 0.47945 0.86544 0.0
C438 C 0.37364 0.48897 0.90132 0.0
C439 C 0.39358 0.49951 0.93891 0.0
C440 C 0.4418 0.46863 0.83175 0.0
C441 C 0.33617 0.49053 0.89875 0.0
H442 H 0.34053 0.51349 0.73022 0.0
H443 H 0.33571 0.41883 0.75392 0.0
H444 H 0.36273 0.53733 0.83762 0.0
H445 H 0.40048 0.53171 0.81495 0.0
H446 H 0.36464 0.54766 0.78223 0.0
H447 H 0.3517 0.39842 0.82315 0.0
H448 H 0.39128 0.41478 0.84505 0.0
H449 H 0.35483 0.42382 0.8689 0.0
H450 H 0.47053 0.48908 0.90967 0.0
H451 H 0.38191 0.50956 0.96479 0.0
H452 H 0.43763 0.48591 0.8061 0.0
H453 H 0.43139 0.44721 0.81745 0.0
H454 H 0.46912 0.46594 0.84132 0.0
H455 H 0.3268 0.51044 0.87966 0.0
H456 H 0.32828 0.49249 0.93139 0.0
H457 H 0.32421 0.47041 0.88214 0.0
C458 C 0.65153 0.58753 0.3548 0.0
C459 C 0.65361 0.61754 0.36882 0.0
C460 C 0.63469 0.57958 0.31391 0.0
C461 C 0.6199 0.60223 0.28596 0.0
C462 C 0.6238 0.6327 0.29865 0.0
C463 C 0.64048 0.64001 0.34003 0.0
C464 C 0.63119 0.54678 0.30164 0.0
C465 C 0.6087 0.65746 0.26949 0.0
C466 C 0.58895 0.57675 0.17053 0.0
C467 C 0.55599 0.56884 0.17423 0.0
C468 C 0.60997 0.5889 0.20621 0.0
C469 C 0.59732 0.59362 0.2459 0.0
C470 C 0.56333 0.58749 0.24855 0.0
C471 C 0.54321 0.57484 0.21282 0.0
C472 C 0.64614 0.59476 0.20229 0.0
C473 C 0.54866 0.59248 0.29 0.0
H474 H 0.66232 0.57006 0.37636 0.0
H475 H 0.6418 0.66325 0.35054 0.0
H476 H 0.60462 0.53996 0.29939 0.0
H477 H 0.63903 0.54288 0.26937 0.0
H478 H 0.64622 0.53213 0.32558 0.0
H479 H 0.61705 0.68002 0.2819 0.0
H480 H 0.61537 0.65456 0.23637 0.0
H481 H 0.5811 0.65638 0.26678 0.0
H482 H 0.59892 0.57153 0.14082 0.0
H483 H 0.51771 0.56849 0.21556 0.0
H484 H 0.66196 0.57788 0.2214 0.0
H485 H 0.65391 0.61716 0.21576 0.0
H486 H 0.65108 0.59346 0.16815 0.0
H487 H 0.55992 0.57645 0.31492 0.0
H488 H 0.52115 0.58934 0.28539 0.0
H489 H 0.55447 0.61544 0.30277 0.0
C490 C 0.83871 0.09999 0.78219 0.0
C491 C 0.85919 0.10657 0.82126 0.0
C492 C 0.85257 0.09086 0.74516 0.0
C493 C 0.88767 0.08849 0.74727 0.0
C494 C 0.90838 0.09552 0.78653 0.0
C495 C 0.89392 0.10446 0.82286 0.0
C496 C 0.82972 0.0836 0.70392 0.0
C497 C 0.94597 0.09384 0.79018 0.0
C498 C 0.93469 0.04327 0.67158 0.0
C499 C 0.94721 0.06629 0.64813 0.0
C500 C 0.9128 0.04979 0.70179 0.0
C501 C 0.90339 0.07997 0.70838 0.0
C502 C 0.91377 0.10277 0.68182 0.0
C503 C 0.9357 0.09565 0.65223 0.0
C504 C 0.90226 0.02484 0.72941 0.0
C505 C 0.9044 0.13518 0.68753 0.0
H506 H 0.81185 0.1014 0.78083 0.0
H507 H 0.90992 0.11003 0.85271 0.0
H508 H 0.83596 0.09789 0.67716 0.0
H509 H 0.83337 0.05995 0.69437 0.0
H510 H 0.80302 0.08694 0.70735 0.0
H511 H 0.95845 0.09946 0.82328 0.0
H512 H 0.95368 0.07094 0.78164 0.0
H513 H 0.95505 0.10958 0.76698 0.0
H514 H 0.94413 0.02067 0.66899 0.0
H515 H 0.94578 0.11348 0.63436 0.0
H516 H 0.87529 0.02656 0.73212 0.0
H517 H 0.91616 0.02682 0.76261 0.0
H518 H 0.90732 1.00237 0.71618 0.0
H519 H 0.87731 0.13727 0.68923 0.0
H520 H 0.91077 0.14945 0.66075 0.0
H521 H 0.91792 0.14397 0.71848 0.0
C522 C 0.31328 0.46039 0.25176 0.0
C523 C 0.31632 0.47356 0.29315 0.0
C524 C 0.33206 0.47075 0.22024 0.0
C525 C 0.35464 0.4949 0.23019 0.0
C526 C 0.35663 0.50932 0.27112 0.0
C527 C 0.33753 0.49844 0.30215 0.0
C528 C 0.32957 0.45429 0.17742 0.0
C529 C 0.38039 0.5351 0.28303 0.0
C530 C 0.43297 0.48667 0.17831 0.0
C531 C 0.42718 0.50569 0.14221 0.0
C532 C 0.41014 0.48396 0.20767 0.0
C533 C 0.38038 0.50084 0.20136 0.0
C534 C 0.37486 0.5213 0.16629 0.0
C535 C 0.39851 0.52361 0.137 0.0
C536 C 0.41748 0.46203 0.24461 0.0
C537 C 0.34351 0.53986 0.15886 0.0
H538 H 0.29742 0.4409 0.24456 0.0
H539 H 0.33971 0.50906 0.33379 0.0
H540 H 0.32743 0.47039 0.15021 0.0
H541 H 0.3526 0.44099 0.1763 0.0
H542 H 0.30785 0.43878 0.17241 0.0
H543 H 0.37587 0.54641 0.31353 0.0
H544 H 0.40644 0.52671 0.28734 0.0
H545 H 0.37813 0.55184 0.25662 0.0
H546 H 0.45554 0.47332 0.18357 0.0
H547 H 0.39407 0.53856 0.10953 0.0
H548 H 0.39848 0.4439 0.24108 0.0
H549 H 0.41617 0.47346 0.27602 0.0
H550 H 0.44251 0.45158 0.2459 0.0
H551 H 0.32205 0.52515 0.14681 0.0
H552 H 0.34521 0.55784 0.13475 0.0
H553 H 0.33827 0.5502 0.18967 0.0
C554 C 0.16509 0.93937 0.85032 0.0
C555 C 0.17861 0.96313 0.87699 0.0
C556 C 0.14857 0.94462 0.80831 0.0
C557 C 0.14499 0.97435 0.79279 0.0
C558 C 0.15958 0.99832 0.81889 0.0
C559 C 0.17648 0.99238 0.86039 0.0
C560 C 0.13395 0.91848 0.78104 0.0
C561 C 0.15615 0.03043 0.80379 0.0
C562 C 0.11997 0.99555 0.67486 0.0
C563 C 0.08615 1.00227 0.67434 0.0
C564 C 0.13907 0.9843 0.71244 0.0
C565 C 0.12412 0.98082 0.75061 0.0
C566 C 0.08952 0.98632 0.74942 0.0
C567 C 0.07089 0.99671 0.71108 0.0
C568 C 0.17569 0.97816 0.71211 0.0
C569 C 0.07273 0.98376 0.78958 0.0
H570 H 0.16628 0.91672 0.86278 0.0
H571 H 0.18752 1.01083 0.88021 0.0
H572 H 0.10633 0.91998 0.77622 0.0
H573 H 0.14212 0.91921 0.74852 0.0
H574 H 0.14132 0.89656 0.79619 0.0
H575 H 0.17022 0.04632 0.82718 0.0
H576 H 0.16521 0.03284 0.77202 0.0
H577 H 0.12944 0.03695 0.79929 0.0
H578 H 0.13189 1.0007 0.6467 0.0
H579 H 0.04495 1.0029 0.7109 0.0
H580 H 0.18287 0.95656 0.72824 0.0
H581 H 0.19072 0.99607 0.73046 0.0
H582 H 0.18224 0.97745 0.67867 0.0
H583 H 0.07803 0.96163 0.80505 0.0
H584 H 0.04525 0.98667 0.78246 0.0
H585 H 0.08285 1.00119 0.81344 0.0
loop_
_geom_bond_atom_site_label_1
_geom_bond_atom_site_label_2
_geom_bond_distance
_geom_bond_site_symmetry_2
_ccdc_geom_bond_type
C0 C1 1.264 . S
C0 C5 1.479 . S
C0 C10 1.465 . S
C1 C0 1.264 . S
C1 C3 1.339 . S
C1 H28 0.931 . S
C2 C3 1.395 . S
C2 C4 1.320 . S
C3 C1 1.339 . S
C3 C2 1.395 . S
C3 H29 0.929 . S
C4 C2 1.320 . S
C4 C5 1.405 . S
C4 H30 0.930 . S
C5 C0 1.479 . S
C5 C4 1.405 . S
C5 H31 0.931 . S
U6 O7 2.454 . S
U6 O8 2.458 . S
U6 C9 2.984 . S
U6 C10 2.847 . S
U6 C23 2.882 . S
U6 O24 2.441 . S
U6 O25 2.420 . S
U6 O26 2.455 . S
U6 O27 2.449 . S
O7 U6 2.454 . S
O7 C9 1.353 . S
O8 U6 2.458 . S
O8 C9 1.286 . S
C9 U6 2.984 . S
C9 O7 1.353 . S
C9 O8 1.286 . S
C9 C11 1.363 . S
C10 C0 1.465 . S
C10 U6 2.847 . S
C10 O24 1.249 . S
C10 O25 1.202 . S
C11 C9 1.363 . S
C11 C13 1.408 . S
C11 C16 1.342 . S
C12 C13 1.310 . S
C12 C15 1.461 . S
C12 H32 0.932 . S
C13 C11 1.408 . S
C13 C12 1.310 . S
C13 H33 0.930 . S
C14 C15 1.474 . S
C14 C16 1.285 . S
C14 H34 0.929 . S
C15 C12 1.461 . S
C15 C14 1.474 . S
C16 C11 1.342 . S
C16 C14 1.285 . S
C16 H35 0.930 . S
C17 C20 1.424 . S
C17 C22 1.245 . S
C17 C23 1.428 1_556 S
C18 C21 1.260 . S
C18 C22 1.477 . S
C18 H36 0.932 . S
C19 C20 1.384 . S
C19 C21 1.479 . S
C19 H37 0.929 . S
C20 C17 1.424 . S
C20 C19 1.384 . S
C20 H38 0.928 1_556 S
C21 C18 1.260 . S
C21 C19 1.479 . S
C22 C17 1.245 . S
C22 C18 1.477 . S
C22 H39 0.932 . S
C23 U6 2.882 . S
C23 C17 1.428 1_554 S
C23 O26 1.301 . S
C23 O27 1.282 . S
O24 U6 2.441 . S
O24 C10 1.249 . S
O25 U6 2.420 . S
O25 C10 1.202 . S
O26 U6 2.455 . S
O26 C23 1.301 . S
O27 U6 2.449 . S
O27 C23 1.282 . S
H28 C1 0.931 . S
H29 C3 0.929 . S
H30 C4 0.930 . S
H31 C5 0.931 . S
H32 C12 0.932 . S
H33 C13 0.930 . S
H34 C14 0.929 . S
H35 C16 0.930 . S
H36 C18 0.932 . S
H37 C19 0.929 . S
H38 C20 0.928 1_554 S
H39 C22 0.932 . S
C40 C41 1.264 . S
C40 C45 1.479 . S
C40 C50 1.465 . S
C41 C40 1.264 . S
C41 C43 1.339 . S
C41 H68 0.931 . S
C42 C43 1.395 . S
C42 C44 1.320 . S
C43 C41 1.339 . S
C43 C42 1.395 . S
C43 H69 0.929 . S
C44 C42 1.320 . S
C44 C45 1.405 . S
C44 H70 0.930 . S
C45 C40 1.479 . S
C45 C44 1.405 . S
C45 H71 0.931 . S
U46 O47 2.454 . S
U46 O48 2.458 . S
U46 C49 2.984 . S
U46 C50 2.847 . S
U46 C63 2.882 . S
U46 O64 2.441 . S
U46 O65 2.420 . S
U46 O66 2.455 . S
U46 O67 2.449 . S
O47 U46 2.454 . S
O47 C49 1.353 . S
O48 U46 2.458 . S
O48 C49 1.286 . S
C49 U46 2.984 . S
C49 O47 1.353 . S
C49 O48 1.286 . S
C49 C51 1.363 . S
C50 C40 1.465 . S
C50 U46 2.847 . S
C50 O64 1.249 . S
C50 O65 1.202 . S
C51 C49 1.363 . S
C51 C53 1.408 . S
C51 C56 1.342 . S
C52 C53 1.310 . S
C52 C55 1.461 . S
C52 H72 0.932 . S
C53 C51 1.408 . S
C53 C52 1.310 . S
C53 H73 0.930 . S
C54 C55 1.474 . S
C54 C56 1.285 . S
C54 H74 0.929 . S
C55 C52 1.461 . S
C55 C54 1.474 . S
C56 C51 1.342 . S
C56 C54 1.285 . S
C56 H75 0.930 . S
C57 C60 1.424 . S
C57 C62 1.245 . S
C57 C63 1.428 . S
C58 C61 1.260 . S
C58 C62 1.477 . S
C58 H76 0.932 . S
C59 C60 1.384 . S
C59 C61 1.479 . S
C59 H77 0.929 . S
C60 C57 1.424 . S
C60 C59 1.384 . S
C60 H78 0.928 . S
C61 C58 1.260 . S
C61 C59 1.479 . S
C62 C57 1.245 . S
C62 C58 1.477 . S
C62 H79 0.932 . S
C63 U46 2.882 . S
C63 C57 1.428 . S
C63 O66 1.301 . S
C63 O67 1.282 . S
O64 U46 2.441 . S
O64 C50 1.249 . S
O65 U46 2.420 . S
O65 C50 1.202 . S
O66 U46 2.455 . S
O66 C63 1.301 . S
O67 U46 2.449 . S
O67 C63 1.282 . S
H68 C41 0.931 . S
H69 C43 0.929 . S
H70 C44 0.930 . S
H71 C45 0.931 . S
H72 C52 0.932 . S
H73 C53 0.930 . S
H74 C54 0.929 . S
H75 C56 0.930 . S
H76 C58 0.932 . S
H77 C59 0.929 . S
H78 C60 0.928 . S
H79 C62 0.932 . S
C80 C81 1.264 . S
C80 C85 1.479 . S
C80 C90 1.465 . S
C81 C80 1.264 . S
C81 C83 1.339 . S
C81 H108 0.931 . S
C82 C83 1.395 . S
C82 C84 1.320 . S
C83 C81 1.339 . S
C83 C82 1.395 . S
C83 H109 0.929 . S
C84 C82 1.320 . S
C84 C85 1.405 . S
C84 H110 0.930 . S
C85 C80 1.479 . S
C85 C84 1.405 . S
C85 H111 0.931 . S
U86 O87 2.454 . S
U86 O88 2.458 1_554 S
U86 C89 2.984 1_554 S
U86 C90 2.847 . S
U86 C103 2.882 1_554 S
U86 O104 2.441 . S
U86 O105 2.420 . S
U86 O106 2.455 1_554 S
U86 O107 2.449 1_554 S
O87 U86 2.454 . S
O87 C89 1.353 1_554 S
O88 U86 2.458 1_556 S
O88 C89 1.286 . S
C89 U86 2.984 1_556 S
C89 O87 1.353 1_556 S
C89 O88 1.286 . S
C89 C91 1.363 . S
C90 C80 1.465 . S
C90 U86 2.847 . S
C90 O104 1.249 . S
C90 O105 1.202 . S
C91 C89 1.363 . S
C91 C93 1.408 1_556 S
C91 C96 1.342 . S
C92 C93 1.310 . S
C92 C95 1.461 1_554 S
C92 H112 0.932 . S
C93 C91 1.408 1_554 S
C93 C92 1.310 . S
C93 H113 0.930 . S
C94 C95 1.474 . S
C94 C96 1.285 . S
C94 H114 0.929 . S
C95 C92 1.461 1_556 S
C95 C94 1.474 . S
C96 C91 1.342 . S
C96 C94 1.285 . S
C96 H115 0.930 . S
C97 C100 1.424 . S
C97 C102 1.245 . S
C97 C103 1.428 . S
C98 C101 1.260 . S
C98 C102 1.477 . S
C98 H116 0.932 . S
C99 C100 1.384 . S
C99 C101 1.479 . S
C99 H117 0.929 . S
C100 C97 1.424 . S
C100 C99 1.384 . S
C100 H118 0.928 . S
C101 C98 1.260 . S
C101 C99 1.479 . S
C102 C97 1.245 . S
C102 C98 1.477 . S
C102 H119 0.932 . S
C103 U86 2.882 1_556 S
C103 C97 1.428 . S
C103 O106 1.301 . S
C103 O107 1.282 . S
O104 U86 2.441 . S
O104 C90 1.249 . S
O105 U86 2.420 . S
O105 C90 1.202 . S
O106 U86 2.455 1_556 S
O106 C103 1.301 . S
O107 U86 2.449 1_556 S
O107 C103 1.282 . S
H108 C81 0.931 . S
H109 C83 0.929 . S
H110 C84 0.930 . S
H111 C85 0.931 . S
H112 C92 0.932 . S
H113 C93 0.930 . S
H114 C94 0.929 . S
H115 C96 0.930 . S
H116 C98 0.932 . S
H117 C99 0.929 . S
H118 C100 0.928 . S
H119 C102 0.932 . S
C120 C121 1.264 . S
C120 C125 1.479 . S
C120 C130 1.465 . S
C121 C120 1.264 . S
C121 C123 1.339 . S
C121 H148 0.931 . S
C122 C123 1.395 . S
C122 C124 1.320 . S
C123 C121 1.339 . S
C123 C122 1.395 . S
C123 H149 0.929 . S
C124 C122 1.320 . S
C124 C125 1.405 . S
C124 H150 0.930 . S
C125 C120 1.479 . S
C125 C124 1.405 . S
C125 H151 0.931 . S
U126 O127 2.454 . S
U126 O128 2.458 . S
U126 C129 2.984 . S
U126 C130 2.847 . S
U126 C143 2.882 . S
U126 O144 2.441 . S
U126 O145 2.420 . S
U126 O146 2.455 . S
U126 O147 2.449 . S
O127 U126 2.454 . S
O127 C129 1.353 . S
O128 U126 2.458 . S
O128 C129 1.286 . S
C129 U126 2.984 . S
C129 O127 1.353 . S
C129 O128 1.286 . S
C129 C131 1.363 . S
C130 C120 1.465 . S
C130 U126 2.847 . S
C130 O144 1.249 . S
C130 O145 1.202 . S
C131 C129 1.363 . S
C131 C133 1.408 . S
C131 C136 1.342 . S
C132 C133 1.310 . S
C132 C135 1.461 . S
C132 H152 0.932 . S
C133 C131 1.408 . S
C133 C132 1.310 . S
C133 H153 0.930 . S
C134 C135 1.474 . S
C134 C136 1.285 . S
C134 H154 0.929 . S
C135 C132 1.461 . S
C135 C134 1.474 . S
C136 C131 1.342 . S
C136 C134 1.285 . S
C136 H155 0.930 . S
C137 C140 1.424 . S
C137 C142 1.245 . S
C137 C143 1.428 . S
C138 C141 1.260 . S
C138 C142 1.477 . S
C138 H156 0.932 . S
C139 C140 1.384 . S
C139 C141 1.479 . S
C139 H157 0.929 . S
C140 C137 1.424 . S
C140 C139 1.384 . S
C140 H158 0.928 . S
C141 C138 1.260 . S
C141 C139 1.479 . S
C142 C137 1.245 . S
C142 C138 1.477 . S
C142 H159 0.932 . S
C143 U126 2.882 . S
C143 C137 1.428 . S
C143 O146 1.301 . S
C143 O147 1.282 . S
O144 U126 2.441 . S
O144 C130 1.249 . S
O145 U126 2.420 . S
O145 C130 1.202 . S
O146 U126 2.455 . S
O146 C143 1.301 . S
O147 U126 2.449 . S
O147 C143 1.282 . S
H148 C121 0.931 . S
H149 C123 0.929 . S
H150 C124 0.930 . S
H151 C125 0.931 . S
H152 C132 0.932 . S
H153 C133 0.930 . S
H154 C134 0.929 . S
H155 C136 0.930 . S
H156 C138 0.932 . S
H157 C139 0.929 . S
H158 C140 0.928 . S
H159 C142 0.932 . S
O160 Mn161 2.163 1_655 S
O160 C174 1.244 . S
Mn161 O160 2.163 1_455 S
Mn161 O164 2.160 1_545 S
Mn161 O165 2.221 . S
Mn161 O167 2.163 1_455 S
Mn161 O169 2.160 1_545 S
Mn161 O179 2.221 1_445 S
O162 Mn163 2.087 1_545 S
O162 C174 1.256 . S
Mn163 O162 2.087 1_565 S
Mn163 O170 2.089 1_655 S
Mn163 O179 2.290 . S
Mn163 O180 2.251 . S
O164 Mn161 2.160 1_565 S
O164 C175 1.239 . S
O165 Mn161 2.221 . S
O165 Mn166 2.290 . S
O165 C176 1.278 . S
Mn166 O165 2.290 . S
Mn166 O168 2.089 . S
Mn166 O171 2.251 . S
Mn166 O172 2.087 1_455 S
O167 Mn161 2.163 1_655 S
O167 C177 1.244 . S
O168 Mn166 2.089 . S
O168 C175 1.256 1_545 S
O169 Mn161 2.160 1_565 S
O169 C178 1.239 . S
O170 Mn163 2.089 1_455 S
O170 C178 1.256 . S
O171 Mn166 2.251 . S
O171 C176 1.241 . S
O172 Mn166 2.087 1_655 S
O172 C177 1.256 . S
C173 O179 1.278 . S
C173 O180 1.241 . S
C174 O160 1.244 . S
C174 O162 1.256 . S
C175 O164 1.239 . S
C175 O168 1.256 1_565 S
C176 O165 1.278 . S
C176 O171 1.241 . S
C177 O167 1.244 . S
C177 O172 1.256 . S
C178 O169 1.239 . S
C178 O170 1.256 . S
O179 Mn161 2.221 1_665 S
O179 Mn163 2.290 . S
O179 C173 1.278 . S
O180 Mn163 2.251 . S
O180 C173 1.241 . S
O181 Mn182 2.163 . S
O181 C195 1.244 . S
Mn182 O181 2.163 . S
Mn182 O185 2.160 1_554 S
Mn182 O186 2.221 . S
Mn182 O188 2.163 1_554 S
Mn182 O190 2.160 . S
Mn182 O200 2.221 . S
O183 Mn184 2.087 . S
O183 C195 1.256 . S
Mn184 O183 2.087 . S
Mn184 O191 2.089 . S
Mn184 O200 2.290 . S
Mn184 O201 2.251 . S
O185 Mn182 2.160 1_556 S
O185 C196 1.239 . S
O186 Mn182 2.221 . S
O186 Mn187 2.290 1_554 S
O186 C197 1.278 . S
Mn187 O186 2.290 1_556 S
Mn187 O189 2.089 . S
Mn187 O192 2.251 1_556 S
Mn187 O193 2.087 . S
O188 Mn182 2.163 1_556 S
O188 C198 1.244 . S
O189 Mn187 2.089 . S
O189 C196 1.256 . S
O190 Mn182 2.160 . S
O190 C199 1.239 . S
O191 Mn184 2.089 . S
O191 C199 1.256 . S
O192 Mn187 2.251 1_554 S
O192 C197 1.241 . S
O193 Mn187 2.087 . S
O193 C198 1.256 . S
C194 O200 1.278 . S
C194 O201 1.241 . S
C195 O181 1.244 . S
C195 O183 1.256 . S
C196 O185 1.239 . S
C196 O189 1.256 . S
C197 O186 1.278 . S
C197 O192 1.241 . S
C198 O188 1.244 . S
C198 O193 1.256 . S
C199 O190 1.239 . S
C199 O191 1.256 . S
O200 Mn182 2.221 . S
O200 Mn184 2.290 . S
O200 C194 1.278 . S
O201 Mn184 2.251 . S
O201 C194 1.241 . S
C202 C203 1.391 . S
C202 C204 1.394 . S
C202 H218 0.931 . S
C203 C202 1.391 . S
C203 C207 1.376 . S
C204 C202 1.394 . S
C204 C205 1.369 . S
C204 C208 1.531 . S
C205 C204 1.369 . S
C205 C206 1.410 . S
C205 C213 1.503 . S
C206 C205 1.410 . S
C206 C207 1.392 . S
C206 C209 1.511 . S
C207 C203 1.376 . S
C207 C206 1.392 . S
C207 H219 0.929 . S
C208 C204 1.531 . S
C208 H220 0.960 . S
C208 H221 0.962 . S
C208 H222 0.960 . S
C209 C206 1.511 . S
C209 H223 0.961 . S
C209 H224 0.961 . S
C209 H225 0.961 . S
C210 C211 1.370 . S
C210 C212 1.363 . S
C210 H226 0.931 . S
C211 C210 1.370 . S
C211 C215 1.408 . S
C212 C210 1.363 . S
C212 C213 1.370 . S
C212 C216 1.524 . S
C213 C205 1.503 . S
C213 C212 1.370 . S
C213 C214 1.403 . S
C214 C213 1.403 . S
C214 C215 1.404 . S
C214 C217 1.539 . S
C215 C211 1.408 . S
C215 C214 1.404 . S
C215 H227 0.930 . S
C216 C212 1.524 . S
C216 H228 0.956 . S
C216 H229 0.961 . S
C216 H230 0.961 . S
C217 C214 1.539 . S
C217 H231 0.958 . S
C217 H232 0.961 . S
C217 H233 0.960 . S
H218 C202 0.931 . S
H219 C207 0.929 . S
H220 C208 0.960 . S
H221 C208 0.962 . S
H222 C208 0.960 . S
H223 C209 0.961 . S
H224 C209 0.961 . S
H225 C209 0.961 . S
H226 C210 0.931 . S
H227 C215 0.930 . S
H228 C216 0.956 . S
H229 C216 0.961 . S
H230 C216 0.961 . S
H231 C217 0.958 . S
H232 C217 0.961 . S
H233 C217 0.960 . S
C234 C235 1.391 . S
C234 C236 1.394 . S
C234 H250 0.931 . S
C235 C234 1.391 . S
C235 C239 1.376 . S
C236 C234 1.394 . S
C236 C237 1.369 . S
C236 C240 1.531 . S
C237 C236 1.369 . S
C237 C238 1.410 . S
C237 C245 1.503 . S
C238 C237 1.410 . S
C238 C239 1.392 . S
C238 C241 1.511 1_554 S
C239 C235 1.376 . S
C239 C238 1.392 . S
C239 H251 0.929 . S
C240 C236 1.531 . S
C240 H252 0.960 . S
C240 H253 0.962 . S
C240 H254 0.960 . S
C241 C238 1.511 1_556 S
C241 H255 0.961 . S
C241 H256 0.961 . S
C241 H257 0.961 . S
C242 C243 1.370 . S
C242 C244 1.363 . S
C242 H258 0.931 . S
C243 C242 1.370 . S
C243 C247 1.408 . S
C244 C242 1.363 . S
C244 C245 1.370 . S
C244 C248 1.524 . S
C245 C237 1.503 . S
C245 C244 1.370 . S
C245 C246 1.403 . S
C246 C245 1.403 . S
C246 C247 1.404 . S
C246 C249 1.539 . S
C247 C243 1.408 . S
C247 C246 1.404 . S
C247 H259 0.930 . S
C248 C244 1.524 . S
C248 H260 0.956 . S
C248 H261 0.961 . S
C248 H262 0.961 . S
C249 C246 1.539 . S
C249 H263 0.958 . S
C249 H264 0.961 . S
C249 H265 0.960 . S
H250 C234 0.931 . S
H251 C239 0.929 . S
H252 C240 0.960 . S
H253 C240 0.962 . S
H254 C240 0.960 . S
H255 C241 0.961 . S
H256 C241 0.961 . S
H257 C241 0.961 . S
H258 C242 0.931 . S
H259 C247 0.930 . S
H260 C248 0.956 . S
H261 C248 0.961 . S
H262 C248 0.961 . S
H263 C249 0.958 . S
H264 C249 0.961 . S
H265 C249 0.960 . S
C266 C267 1.391 . S
C266 C268 1.394 . S
C266 H282 0.931 . S
C267 C266 1.391 . S
C267 C271 1.376 . S
C268 C266 1.394 . S
C268 C269 1.369 . S
C268 C272 1.531 . S
C269 C268 1.369 . S
C269 C270 1.410 . S
C269 C277 1.503 . S
C270 C269 1.410 . S
C270 C271 1.392 . S
C270 C273 1.511 . S
C271 C267 1.376 . S
C271 C270 1.392 . S
C271 H283 0.929 . S
C272 C268 1.531 . S
C272 H284 0.960 . S
C272 H285 0.962 . S
C272 H286 0.960 . S
C273 C270 1.511 . S
C273 H287 0.961 . S
C273 H288 0.961 . S
C273 H289 0.961 . S
C274 C275 1.370 . S
C274 C276 1.363 . S
C274 H290 0.931 . S
C275 C274 1.370 . S
C275 C279 1.408 . S
C276 C274 1.363 . S
C276 C277 1.370 . S
C276 C280 1.524 . S
C277 C269 1.503 . S
C277 C276 1.370 . S
C277 C278 1.403 . S
C278 C277 1.403 . S
C278 C279 1.404 . S
C278 C281 1.539 . S
C279 C275 1.408 . S
C279 C278 1.404 . S
C279 H291 0.930 . S
C280 C276 1.524 . S
C280 H292 0.956 . S
C280 H293 0.961 . S
C280 H294 0.961 . S
C281 C278 1.539 . S
C281 H295 0.958 . S
C281 H296 0.961 . S
C281 H297 0.960 . S
H282 C266 0.931 . S
H283 C271 0.929 . S
H284 C272 0.960 . S
H285 C272 0.962 . S
H286 C272 0.960 . S
H287 C273 0.961 . S
H288 C273 0.961 . S
H289 C273 0.961 . S
H290 C274 0.931 . S
H291 C279 0.930 . S
H292 C280 0.956 . S
H293 C280 0.961 . S
H294 C280 0.961 . S
H295 C281 0.958 . S
H296 C281 0.961 . S
H297 C281 0.960 . S
C298 C299 1.391 . S
C298 C300 1.394 1_556 S
C298 H314 0.931 . S
C299 C298 1.391 . S
C299 C303 1.376 1_556 S
C300 C298 1.394 1_554 S
C300 C301 1.369 . S
C300 C304 1.531 1_554 S
C301 C300 1.369 . S
C301 C302 1.410 . S
C301 C309 1.503 . S
C302 C301 1.410 . S
C302 C303 1.392 . S
C302 C305 1.511 . S
C303 C299 1.376 1_554 S
C303 C302 1.392 . S
C303 H315 0.929 . S
C304 C300 1.531 1_556 S
C304 H316 0.954 1_556 S
C304 H317 0.969 . S
C304 H318 0.958 1_556 S
C305 C302 1.511 . S
C305 H319 0.961 . S
C305 H320 0.961 . S
C305 H321 0.961 . S
C306 C307 1.370 1_556 S
C306 C308 1.363 . S
C306 H322 0.931 . S
C307 C306 1.370 1_554 S
C307 C311 1.408 . S
C308 C306 1.363 . S
C308 C309 1.370 1_556 S
C308 C312 1.524 . S
C309 C301 1.503 . S
C309 C308 1.370 1_554 S
C309 C310 1.403 . S
C310 C309 1.403 . S
C310 C311 1.404 . S
C310 C313 1.539 . S
C311 C307 1.408 . S
C311 C310 1.404 . S
C311 H323 0.930 . S
C312 C308 1.524 . S
C312 H324 0.956 . S
C312 H325 0.961 . S
C312 H326 0.961 . S
C313 C310 1.539 . S
C313 H327 0.958 . S
C313 H328 0.961 . S
C313 H329 0.960 . S
H314 C298 0.931 . S
H315 C303 0.929 . S
H316 C304 0.954 1_554 S
H317 C304 0.969 . S
H318 C304 0.958 1_554 S
H319 C305 0.961 . S
H320 C305 0.961 . S
H321 C305 0.961 . S
H322 C306 0.931 . S
H323 C311 0.930 . S
H324 C312 0.956 . S
H325 C312 0.961 . S
H326 C312 0.961 . S
H327 C313 0.958 . S
H328 C313 0.961 . S
H329 C313 0.960 . S
C330 C331 1.391 . S
C330 C332 1.394 . S
C330 H346 0.931 . S
C331 C330 1.391 . S
C331 C335 1.376 . S
C332 C330 1.394 . S
C332 C333 1.369 . S
C332 C336 1.531 . S
C333 C332 1.369 . S
C333 C334 1.410 . S
C333 C341 1.503 . S
C334 C333 1.410 . S
C334 C335 1.392 . S
C334 C337 1.511 . S
C335 C331 1.376 . S
C335 C334 1.392 . S
C335 H347 0.929 . S
C336 C332 1.531 . S
C336 H348 0.960 . S
C336 H349 0.962 . S
C336 H350 0.960 . S
C337 C334 1.511 . S
C337 H351 0.961 . S
C337 H352 0.961 . S
C337 H353 0.961 . S
C338 C339 1.370 . S
C338 C340 1.363 . S
C338 H354 0.931 . S
C339 C338 1.370 . S
C339 C343 1.408 1_565 S
C340 C338 1.363 . S
C340 C341 1.370 . S
C340 C344 1.524 . S
C341 C333 1.503 . S
C341 C340 1.370 . S
C341 C342 1.403 1_565 S
C342 C341 1.403 1_545 S
C342 C343 1.404 . S
C342 C345 1.539 . S
C343 C339 1.408 1_545 S
C343 C342 1.404 . S
C343 H355 0.930 . S
C344 C340 1.524 . S
C344 H356 0.956 . S
C344 H357 0.961 . S
C344 H358 0.961 . S
C345 C342 1.539 . S
C345 H359 0.958 . S
C345 H360 0.961 . S
C345 H361 0.960 . S
H346 C330 0.931 . S
H347 C335 0.929 . S
H348 C336 0.960 . S
H349 C336 0.962 . S
H350 C336 0.960 . S
H351 C337 0.961 . S
H352 C337 0.961 . S
H353 C337 0.961 . S
H354 C338 0.931 . S
H355 C343 0.930 . S
H356 C344 0.956 . S
H357 C344 0.961 . S
H358 C344 0.961 . S
H359 C345 0.958 . S
H360 C345 0.961 . S
H361 C345 0.960 . S
C362 C363 1.391 . S
C362 C364 1.394 . S
C362 H378 0.931 . S
C363 C362 1.391 . S
C363 C367 1.376 . S
C364 C362 1.394 . S
C364 C365 1.369 . S
C364 C368 1.531 . S
C365 C364 1.369 . S
C365 C366 1.410 . S
C365 C373 1.503 . S
C366 C365 1.410 . S
C366 C367 1.392 . S
C366 C369 1.511 . S
C367 C363 1.376 . S
C367 C366 1.392 . S
C367 H379 0.929 . S
C368 C364 1.531 . S
C368 H380 0.960 . S
C368 H381 0.962 . S
C368 H382 0.960 . S
C369 C366 1.511 . S
C369 H383 0.961 . S
C369 H384 0.961 . S
C369 H385 0.961 . S
C370 C371 1.370 . S
C370 C372 1.363 . S
C370 H386 0.931 . S
C371 C370 1.370 . S
C371 C375 1.408 . S
C372 C370 1.363 . S
C372 C373 1.370 . S
C372 C376 1.524 . S
C373 C365 1.503 . S
C373 C372 1.370 . S
C373 C374 1.403 . S
C374 C373 1.403 . S
C374 C375 1.404 . S
C374 C377 1.539 . S
C375 C371 1.408 . S
C375 C374 1.404 . S
C375 H387 0.930 . S
C376 C372 1.524 . S
C376 H388 0.956 . S
C376 H389 0.961 . S
C376 H390 0.961 . S
C377 C374 1.539 . S
C377 H391 0.958 . S
C377 H392 0.961 . S
C377 H393 0.960 . S
H378 C362 0.931 . S
H379 C367 0.929 . S
H380 C368 0.960 . S
H381 C368 0.962 . S
H382 C368 0.960 . S
H383 C369 0.961 . S
H384 C369 0.961 . S
H385 C369 0.961 . S
H386 C370 0.931 . S
H387 C375 0.930 . S
H388 C376 0.956 . S
H389 C376 0.961 . S
H390 C376 0.961 . S
H391 C377 0.958 . S
H392 C377 0.961 . S
H393 C377 0.960 . S
C394 C395 1.391 . S
C394 C396 1.394 . S
C394 H410 0.931 . S
C395 C394 1.391 . S
C395 C399 1.376 . S
C396 C394 1.394 . S
C396 C397 1.369 . S
C396 C400 1.531 . S
C397 C396 1.369 . S
C397 C398 1.410 . S
C397 C405 1.503 . S
C398 C397 1.410 . S
C398 C399 1.392 . S
C398 C401 1.511 . S
C399 C395 1.376 . S
C399 C398 1.392 . S
C399 H411 0.929 . S
C400 C396 1.531 . S
C400 H412 0.960 . S
C400 H413 0.962 . S
C400 H414 0.960 . S
C401 C398 1.511 . S
C401 H415 0.961 . S
C401 H416 0.961 . S
C401 H417 0.961 . S
C402 C403 1.370 . S
C402 C404 1.363 . S
C402 H418 0.931 . S
C403 C402 1.370 . S
C403 C407 1.408 . S
C404 C402 1.363 . S
C404 C405 1.370 . S
C404 C408 1.524 . S
C405 C397 1.503 . S
C405 C404 1.370 . S
C405 C406 1.403 . S
C406 C405 1.403 . S
C406 C407 1.404 . S
C406 C409 1.539 . S
C407 C403 1.408 . S
C407 C406 1.404 . S
C407 H419 0.930 . S
C408 C404 1.524 . S
C408 H420 0.956 . S
C408 H421 0.961 . S
C408 H422 0.961 . S
C409 C406 1.539 . S
C409 H423 0.958 1_545 S
C409 H424 0.961 . S
C409 H425 0.960 . S
H410 C394 0.931 . S
H411 C399 0.929 . S
H412 C400 0.960 . S
H413 C400 0.962 . S
H414 C400 0.960 . S
H415 C401 0.961 . S
H416 C401 0.961 . S
H417 C401 0.961 . S
H418 C402 0.931 . S
H419 C407 0.930 . S
H420 C408 0.956 . S
H421 C408 0.961 . S
H422 C408 0.961 . S
H423 C409 0.958 1_565 S
H424 C409 0.961 . S
H425 C409 0.960 . S
C426 C427 1.391 . S
C426 C428 1.394 . S
C426 H442 0.931 . S
C427 C426 1.391 . S
C427 C431 1.376 . S
C428 C426 1.394 . S
C428 C429 1.369 . S
C428 C432 1.531 . S
C429 C428 1.369 . S
C429 C430 1.410 . S
C429 C437 1.503 . S
C430 C429 1.410 . S
C430 C431 1.392 . S
C430 C433 1.511 . S
C431 C427 1.376 . S
C431 C430 1.392 . S
C431 H443 0.929 . S
C432 C428 1.531 . S
C432 H444 0.960 . S
C432 H445 0.962 . S
C432 H446 0.960 . S
C433 C430 1.511 . S
C433 H447 0.961 . S
C433 H448 0.961 . S
C433 H449 0.961 . S
C434 C435 1.370 . S
C434 C436 1.363 . S
C434 H450 0.931 . S
C435 C434 1.370 . S
C435 C439 1.408 . S
C436 C434 1.363 . S
C436 C437 1.370 . S
C436 C440 1.524 . S
C437 C429 1.503 . S
C437 C436 1.370 . S
C437 C438 1.403 . S
C438 C437 1.403 . S
C438 C439 1.404 . S
C438 C441 1.539 . S
C439 C435 1.408 . S
C439 C438 1.404 . S
C439 H451 0.930 . S
C440 C436 1.524 . S
C440 H452 0.956 . S
C440 H453 0.961 . S
C440 H454 0.961 . S
C441 C438 1.539 . S
C441 H455 0.958 . S
C441 H456 0.961 . S
C441 H457 0.960 . S
H442 C426 0.931 . S
H443 C431 0.929 . S
H444 C432 0.960 . S
H445 C432 0.962 . S
H446 C432 0.960 . S
H447 C433 0.961 . S
H448 C433 0.961 . S
H449 C433 0.961 . S
H450 C434 0.931 . S
H451 C439 0.930 . S
H452 C440 0.956 . S
H453 C440 0.961 . S
H454 C440 0.961 . S
H455 C441 0.958 . S
H456 C441 0.961 . S
H457 C441 0.960 . S
C458 C459 1.391 . S
C458 C460 1.394 . S
C458 H474 0.931 . S
C459 C458 1.391 . S
C459 C463 1.376 . S
C460 C458 1.394 . S
C460 C461 1.369 . S
C460 C464 1.531 . S
C461 C460 1.369 . S
C461 C462 1.410 . S
C461 C469 1.503 . S
C462 C461 1.410 . S
C462 C463 1.392 . S
C462 C465 1.511 . S
C463 C459 1.376 . S
C463 C462 1.392 . S
C463 H475 0.929 . S
C464 C460 1.531 . S
C464 H476 0.960 . S
C464 H477 0.962 . S
C464 H478 0.960 . S
C465 C462 1.511 . S
C465 H479 0.961 . S
C465 H480 0.961 . S
C465 H481 0.961 . S
C466 C467 1.370 . S
C466 C468 1.363 . S
C466 H482 0.931 . S
C467 C466 1.370 . S
C467 C471 1.408 . S
C468 C466 1.363 . S
C468 C469 1.370 . S
C468 C472 1.524 . S
C469 C461 1.503 . S
C469 C468 1.370 . S
C469 C470 1.403 . S
C470 C469 1.403 . S
C470 C471 1.404 . S
C470 C473 1.539 . S
C471 C467 1.408 . S
C471 C470 1.404 . S
C471 H483 0.930 . S
C472 C468 1.524 . S
C472 H484 0.956 . S
C472 H485 0.961 . S
C472 H486 0.961 . S
C473 C470 1.539 . S
C473 H487 0.958 . S
C473 H488 0.961 . S
C473 H489 0.960 . S
H474 C458 0.931 . S
H475 C463 0.929 . S
H476 C464 0.960 . S
H477 C464 0.962 . S
H478 C464 0.960 . S
H479 C465 0.961 . S
H480 C465 0.961 . S
H481 C465 0.961 . S
H482 C466 0.931 . S
H483 C471 0.930 . S
H484 C472 0.956 . S
H485 C472 0.961 . S
H486 C472 0.961 . S
H487 C473 0.958 . S
H488 C473 0.961 . S
H489 C473 0.960 . S
C490 C491 1.391 . S
C490 C492 1.394 . S
C490 H506 0.931 . S
C491 C490 1.391 . S
C491 C495 1.376 . S
C492 C490 1.394 . S
C492 C493 1.369 . S
C492 C496 1.531 . S
C493 C492 1.369 . S
C493 C494 1.410 . S
C493 C501 1.503 . S
C494 C493 1.410 . S
C494 C495 1.392 . S
C494 C497 1.511 . S
C495 C491 1.376 . S
C495 C494 1.392 . S
C495 H507 0.929 . S
C496 C492 1.531 . S
C496 H508 0.960 . S
C496 H509 0.962 . S
C496 H510 0.960 . S
C497 C494 1.511 . S
C497 H511 0.961 . S
C497 H512 0.961 . S
C497 H513 0.961 . S
C498 C499 1.370 . S
C498 C500 1.363 . S
C498 H514 0.931 . S
C499 C498 1.370 . S
C499 C503 1.408 . S
C500 C498 1.363 . S
C500 C501 1.370 . S
C500 C504 1.524 . S
C501 C493 1.503 . S
C501 C500 1.370 . S
C501 C502 1.403 . S
C502 C501 1.403 . S
C502 C503 1.404 . S
C502 C505 1.539 . S
C503 C499 1.408 . S
C503 C502 1.404 . S
C503 H515 0.930 . S
C504 C500 1.524 . S
C504 H516 0.956 . S
C504 H517 0.961 . S
C504 H518 0.961 1_545 S
C505 C502 1.539 . S
C505 H519 0.958 . S
C505 H520 0.961 . S
C505 H521 0.960 . S
H506 C490 0.931 . S
H507 C495 0.929 . S
H508 C496 0.960 . S
H509 C496 0.962 . S
H510 C496 0.960 . S
H511 C497 0.961 . S
H512 C497 0.961 . S
H513 C497 0.961 . S
H514 C498 0.931 . S
H515 C503 0.930 . S
H516 C504 0.956 . S
H517 C504 0.961 . S
H518 C504 0.961 1_565 S
H519 C505 0.958 . S
H520 C505 0.961 . S
H521 C505 0.960 . S
C522 C523 1.391 . S
C522 C524 1.394 . S
C522 H538 0.931 . S
C523 C522 1.391 . S
C523 C527 1.376 . S
C524 C522 1.394 . S
C524 C525 1.369 . S
C524 C528 1.531 . S
C525 C524 1.369 . S
C525 C526 1.410 . S
C525 C533 1.503 . S
C526 C525 1.410 . S
C526 C527 1.392 . S
C526 C529 1.511 . S
C527 C523 1.376 . S
C527 C526 1.392 . S
C527 H539 0.929 . S
C528 C524 1.531 . S
C528 H540 0.960 . S
C528 H541 0.962 . S
C528 H542 0.960 . S
C529 C526 1.511 . S
C529 H543 0.961 . S
C529 H544 0.961 . S
C529 H545 0.961 . S
C530 C531 1.370 . S
C530 C532 1.363 . S
C530 H546 0.931 . S
C531 C530 1.370 . S
C531 C535 1.408 . S
C532 C530 1.363 . S
C532 C533 1.370 . S
C532 C536 1.524 . S
C533 C525 1.503 . S
C533 C532 1.370 . S
C533 C534 1.403 . S
C534 C533 1.403 . S
C534 C535 1.404 . S
C534 C537 1.539 . S
C535 C531 1.408 . S
C535 C534 1.404 . S
C535 H547 0.930 . S
C536 C532 1.524 . S
C536 H548 0.956 . S
C536 H549 0.961 . S
C536 H550 0.961 . S
C537 C534 1.539 . S
C537 H551 0.958 . S
C537 H552 0.961 . S
C537 H553 0.960 . S
H538 C522 0.931 . S
H539 C527 0.929 . S
H540 C528 0.960 . S
H541 C528 0.962 . S
H542 C528 0.960 . S
H543 C529 0.961 . S
H544 C529 0.961 . S
H545 C529 0.961 . S
H546 C530 0.931 . S
H547 C535 0.930 . S
H548 C536 0.956 . S
H549 C536 0.961 . S
H550 C536 0.961 . S
H551 C537 0.958 . S
H552 C537 0.961 . S
H553 C537 0.960 . S
C554 C555 1.391 . S
C554 C556 1.394 . S
C554 H570 0.931 . S
C555 C554 1.391 . S
C555 C559 1.376 . S
C556 C554 1.394 . S
C556 C557 1.369 . S
C556 C560 1.531 . S
C557 C556 1.369 . S
C557 C558 1.410 . S
C557 C565 1.503 . S
C558 C557 1.410 . S
C558 C559 1.392 . S
C558 C561 1.511 1_565 S
C559 C555 1.376 . S
C559 C558 1.392 . S
C559 H571 0.929 1_565 S
C560 C556 1.531 . S
C560 H572 0.960 . S
C560 H573 0.962 . S
C560 H574 0.960 . S
C561 C558 1.511 1_545 S
C561 H575 0.961 . S
C561 H576 0.961 . S
C561 H577 0.961 . S
C562 C563 1.370 . S
C562 C564 1.363 . S
C562 H578 0.931 . S
C563 C562 1.370 . S
C563 C567 1.408 . S
C564 C562 1.363 . S
C564 C565 1.370 . S
C564 C568 1.524 . S
C565 C557 1.503 . S
C565 C564 1.370 . S
C565 C566 1.403 . S
C566 C565 1.403 . S
C566 C567 1.404 . S
C566 C569 1.539 . S
C567 C563 1.408 . S
C567 C566 1.404 . S
C567 H579 0.930 . S
C568 C564 1.524 . S
C568 H580 0.956 . S
C568 H581 0.961 . S
C568 H582 0.961 . S
C569 C566 1.539 . S
C569 H583 0.958 . S
C569 H584 0.961 . S
C569 H585 0.960 . S
H570 C554 0.931 . S
H571 C559 0.929 1_545 S
H572 C560 0.960 . S
H573 C560 0.962 . S
H574 C560 0.960 . S
H575 C561 0.961 . S
H576 C561 0.961 . S
H577 C561 0.961 . S
H578 C562 0.931 . S
H579 C567 0.930 . S
H580 C568 0.956 . S
H581 C568 0.961 . S
H582 C568 0.961 . S
H583 C569 0.958 . S
H584 C569 0.961 . S
H585 C569 0.960 . S
C211 C176 1.413 . S
C203 C135 1.547 . S
C235 C15 1.524 . S
C243 C197 1.385 . S
C267 C55 1.707 . S
C275 C173 1.522 . S
C299 C95 1.702 . S
C307 C194 1.504 . S
C339 C178 1.672 . S
C331 C2 1.685 . S
C371 C198 1.598 . S
C363 C42 1.576 . S
C395 C82 1.593 . S
C403 C174 1.504 . S
C427 C141 1.674 . S
C435 C196 1.574 . S
C467 C195 1.545 . S
C459 C61 1.531 . S
C499 C177 1.620 . S
C491 C101 1.662 . S
C531 C199 1.703 . S
C523 C122 1.717 . S
C555 C21 1.684 . S
C563 C175 1.598 . S
