# Generated by pormake.
# Topology tph, (6,8)-cn, num edge types: 1
# Building blocks:
#     Node 0, Type 0, BuildingBlock: OJICUG_clean_sbu_0, # of connection points: 6
#     Node 1, Type 0, BuildingBlock: OJICUG_clean_sbu_0, # of connection points: 6
#     Node 2, Type 0, BuildingBlock: OJICUG_clean_sbu_0, # of connection points: 6
#     Node 3, Type 0, BuildingBlock: OJICUG_clean_sbu_0, # of connection points: 6
#     Node 4, Type 0, BuildingBlock: OJICUG_clean_sbu_0, # of connection points: 6
#     Node 5, Type 0, BuildingBlock: OJICUG_clean_sbu_0, # of connection points: 6
#     Node 6, Type 0, BuildingBlock: OJICUG_clean_sbu_0, # of connection points: 6
#     Node 7, Type 0, BuildingBlock: OJICUG_clean_sbu_0, # of connection points: 6
#     Node 8, Type 0, BuildingBlock: OJICUG_clean_sbu_0, # of connection points: 6
#     Node 9, Type 0, BuildingBlock: OJICUG_clean_sbu_0, # of connection points: 6
#     Node 10, Type 0, BuildingBlock: OJICUG_clean_sbu_0, # of connection points: 6
#     Node 11, Type 0, BuildingBlock: OJICUG_clean_sbu_0, # of connection points: 6
#     Node 12, Type 0, BuildingBlock: OJICUG_clean_sbu_0, # of connection points: 6
#     Node 13, Type 0, BuildingBlock: OJICUG_clean_sbu_0, # of connection points: 6
#     Node 14, Type 0, BuildingBlock: OJICUG_clean_sbu_0, # of connection points: 6
#     Node 15, Type 0, BuildingBlock: OJICUG_clean_sbu_0, # of connection points: 6
#     Node 16, Type 1, BuildingBlock: TAGTUT_clean_sbu_3, # of connection points: 8
#     Node 17, Type 1, BuildingBlock: TAGTUT_clean_sbu_3, # of connection points: 8
#     Node 18, Type 1, BuildingBlock: TAGTUT_clean_sbu_3, # of connection points: 8
#     Node 19, Type 1, BuildingBlock: TAGTUT_clean_sbu_3, # of connection points: 8
#     Node 20, Type 1, BuildingBlock: TAGTUT_clean_sbu_3, # of connection points: 8
#     Node 21, Type 1, BuildingBlock: TAGTUT_clean_sbu_3, # of connection points: 8
#     Node 22, Type 1, BuildingBlock: TAGTUT_clean_sbu_3, # of connection points: 8
#     Node 23, Type 1, BuildingBlock: TAGTUT_clean_sbu_3, # of connection points: 8
#     Node 24, Type 1, BuildingBlock: TAGTUT_clean_sbu_3, # of connection points: 8
#     Node 25, Type 1, BuildingBlock: TAGTUT_clean_sbu_3, # of connection points: 8
#     Node 26, Type 1, BuildingBlock: TAGTUT_clean_sbu_3, # of connection points: 8
#     Node 27, Type 1, BuildingBlock: TAGTUT_clean_sbu_3, # of connection points: 8
#     Edge 28, Type (0, 1), None
#     Edge 29, Type (0, 1), None
#     Edge 30, Type (0, 1), None
#     Edge 31, Type (0, 1), None
#     Edge 32, Type (0, 1), None
#     Edge 33, Type (0, 1), None
#     Edge 34, Type (0, 1), None
#     Edge 35, Type (0, 1), None
#     Edge 36, Type (0, 1), None
#     Edge 37, Type (0, 1), None
#     Edge 38, Type (0, 1), None
#     Edge 39, Type (0, 1), None
#     Edge 40, Type (0, 1), None
#     Edge 41, Type (0, 1), None
#     Edge 42, Type (0, 1), None
#     Edge 43, Type (0, 1), None
#     Edge 44, Type (0, 1), None
#     Edge 45, Type (0, 1), None
#     Edge 46, Type (0, 1), None
#     Edge 47, Type (0, 1), None
#     Edge 48, Type (0, 1), None
#     Edge 49, Type (0, 1), None
#     Edge 50, Type (0, 1), None
#     Edge 51, Type (0, 1), None
#     Edge 52, Type (0, 1), None
#     Edge 53, Type (0, 1), None
#     Edge 54, Type (0, 1), None
#     Edge 55, Type (0, 1), None
#     Edge 56, Type (0, 1), None
#     Edge 57, Type (0, 1), None
#     Edge 58, Type (0, 1), None
#     Edge 59, Type (0, 1), None
#     Edge 60, Type (0, 1), None
#     Edge 61, Type (0, 1), None
#     Edge 62, Type (0, 1), None
#     Edge 63, Type (0, 1), None
#     Edge 64, Type (0, 1), None
#     Edge 65, Type (0, 1), None
#     Edge 66, Type (0, 1), None
#     Edge 67, Type (0, 1), None
#     Edge 68, Type (0, 1), None
#     Edge 69, Type (0, 1), None
#     Edge 70, Type (0, 1), None
#     Edge 71, Type (0, 1), None
#     Edge 72, Type (0, 1), None
#     Edge 73, Type (0, 1), None
#     Edge 74, Type (0, 1), None
#     Edge 75, Type (0, 1), None
#     Edge 76, Type (0, 1), None
#     Edge 77, Type (0, 1), None
#     Edge 78, Type (0, 1), None
#     Edge 79, Type (0, 1), None
#     Edge 80, Type (0, 1), None
#     Edge 81, Type (0, 1), None
#     Edge 82, Type (0, 1), None
#     Edge 83, Type (0, 1), None
#     Edge 84, Type (0, 1), None
#     Edge 85, Type (0, 1), None
#     Edge 86, Type (0, 1), None
#     Edge 87, Type (0, 1), None
#     Edge 88, Type (0, 1), None
#     Edge 89, Type (0, 1), None
#     Edge 90, Type (0, 1), None
#     Edge 91, Type (0, 1), None
#     Edge 92, Type (0, 1), None
#     Edge 93, Type (0, 1), None
#     Edge 94, Type (0, 1), None
#     Edge 95, Type (0, 1), None
#     Edge 96, Type (0, 1), None
#     Edge 97, Type (0, 1), None
#     Edge 98, Type (0, 1), None
#     Edge 99, Type (0, 1), None
#     Edge 100, Type (0, 1), None
#     Edge 101, Type (0, 1), None
#     Edge 102, Type (0, 1), None
#     Edge 103, Type (0, 1), None
#     Edge 104, Type (0, 1), None
#     Edge 105, Type (0, 1), None
#     Edge 106, Type (0, 1), None
#     Edge 107, Type (0, 1), None
#     Edge 108, Type (0, 1), None
#     Edge 109, Type (0, 1), None
#     Edge 110, Type (0, 1), None
#     Edge 111, Type (0, 1), None
#     Edge 112, Type (0, 1), None
#     Edge 113, Type (0, 1), None
#     Edge 114, Type (0, 1), None
#     Edge 115, Type (0, 1), None
#     Edge 116, Type (0, 1), None
#     Edge 117, Type (0, 1), None
#     Edge 118, Type (0, 1), None
#     Edge 119, Type (0, 1), None
#     Edge 120, Type (0, 1), None
#     Edge 121, Type (0, 1), None
#     Edge 122, Type (0, 1), None
#     Edge 123, Type (0, 1), None
# Relax obj value: 0.193
# Max RMSD: 0.265
# Mean RMSD: 0.257
data_MOF--net-tph--node1-OJICUG_clean_sbu_0--node2-TAGTUT_clean_sbu_3--edge1-none
_symmetry_space_group_name_H-M    P1
_symmetry_Int_Tables_number       1
_symmetry_cell_setting            triclinic
loop_
_symmetry_equiv_pos_as_xyz
'x, y, z'
_cell_length_a     24.805673
_cell_length_b     24.635267
_cell_length_c     24.647237
_cell_angle_alpha  87.981927
_cell_angle_beta   89.407331
_cell_angle_gamma 87.19871
loop_
_atom_site_label
_atom_site_type_symbol
_atom_site_fract_x
_atom_site_fract_y
_atom_site_fract_z
_atom_type_partial_charge
Sc0 Sc 0.10914 0.22551 0.23052 0.0
Sc1 Sc 0.20873 0.12406 0.22618 0.0
Sc2 Sc 0.19796 0.22061 0.12226 0.0
O3 O 0.17428 0.19197 0.19495 0.0
C4 C 0.07829 0.2237 0.107 0.0
C5 C 0.08519 0.1063 0.24394 0.0
C6 C 0.21555 0.09414 0.10835 0.0
C7 C 0.18339 0.17747 0.33204 0.0
C8 C 0.14643 0.32692 0.18273 0.0
C9 C 0.30576 0.18958 0.16781 0.0
O10 O 0.07004 0.24718 0.15202 0.0
O11 O 0.1335 0.09202 0.25706 0.0
O12 O 0.22874 0.14183 0.09395 0.0
O13 O 0.13896 0.19931 0.31318 0.0
O14 O 0.16415 0.3043 0.13944 0.0
O15 O 0.28602 0.14939 0.19437 0.0
O16 O 0.14597 0.30105 0.22828 0.0
O17 O 0.22184 0.16229 0.30091 0.0
O18 O 0.27727 0.23086 0.14997 0.0
O19 O 0.07051 0.15336 0.22705 0.0
O20 O 0.12312 0.2017 0.0939 0.0
O21 O 0.19485 0.08303 0.15414 0.0
Sc22 Sc 0.45147 0.61657 -0.00479 0.0
Sc23 Sc 0.36608 0.52378 0.05452 0.0
Sc24 Sc 0.48102 0.54477 0.1148 0.0
O25 O 0.43843 0.55336 0.0468 0.0
C26 C 0.56547 0.59672 0.02409 0.0
C27 C 0.38567 0.52652 0.92957 0.0
C28 C 0.45947 0.42801 0.10079 0.0
C29 C 0.33286 0.64678 0.03145 0.0
C30 C 0.46016 0.66512 0.10483 0.0
C31 C 0.3737 0.53663 0.1709 0.0
O32 O 0.53427 0.59065 0.98389 0.0
O33 O 0.36861 0.49981 0.97127 0.0
O34 O 0.49889 0.46024 0.10173 0.0
O35 O 0.37833 0.65709 0.0124 0.0
O36 O 0.44317 0.62182 0.12494 0.0
O37 O 0.35885 0.56245 0.12938 0.0
O38 O 0.47996 0.66763 0.05727 0.0
O39 O 0.31708 0.59836 0.03589 0.0
O40 O 0.41957 0.51258 0.16963 0.0
O41 O 0.41672 0.56705 0.93243 0.0
O42 O 0.552 0.58084 0.07249 0.0
O43 O 0.41091 0.4451 0.08591 0.0
Sc44 Sc 0.85157 0.26528 0.18655 0.0
Sc45 Sc 0.74572 0.25805 0.10106 0.0
Sc46 Sc 0.74749 0.36324 0.19119 0.0
O47 O 0.78107 0.29513 0.16002 0.0
C48 C 0.79334 0.31782 0.2949 0.0
C49 C 0.80544 0.15945 0.17483 0.0
C50 C 0.64673 0.29835 0.14966 0.0
C51 C 0.85624 0.23428 0.05875 0.0
C52 C 0.87406 0.38032 0.19011 0.0
C53 C 0.72641 0.3887 0.07419 0.0
O54 O 0.83404 0.29648 0.26899 0.0
O55 O 0.77961 0.17596 0.13163 0.0
O56 O 0.66424 0.34253 0.16734 0.0
O57 O 0.87601 0.22976 0.10683 0.0
O58 O 0.82721 0.39171 0.20988 0.0
O59 O 0.71728 0.3389 0.06404 0.0
O60 O 0.88471 0.33919 0.1621 0.0
O61 O 0.81247 0.26082 0.04926 0.0
O62 O 0.75081 0.40216 0.11578 0.0
O63 O 0.81758 0.19188 0.21068 0.0
O64 O 0.74806 0.32899 0.27182 0.0
O65 O 0.67636 0.25516 0.15048 0.0
Sc66 Sc 0.60658 0.96377 0.05303 0.0
Sc67 Sc 0.55019 0.84252 0.02638 0.0
Sc68 Sc 0.49671 0.924 0.12899 0.0
O69 O 0.5481 0.91261 0.06549 0.0
C70 C 0.60226 0.94785 0.17216 0.0
C71 C 0.66989 0.85117 0.05172 0.0
C72 C 0.53867 0.81211 0.14639 0.0
C73 C 0.5854 0.92373 0.93329 0.0
C74 C 0.51574 0.04619 0.08414 0.0
C75 C 0.42377 0.87785 0.03996 0.0
O76 O 0.59717 0.98325 0.13479 0.0
O77 O 0.63544 0.83709 0.01838 0.0
O78 O 0.49473 0.83966 0.14143 0.0
O79 O 0.61382 0.95046 0.96509 0.0
O80 O 0.49586 0.0138 0.12008 0.0
O81 O 0.46028 0.84187 0.02659 0.0
O82 O 0.54594 0.02921 0.04464 0.0
O83 O 0.55098 0.88957 0.95099 0.0
O84 O 0.43335 0.91715 0.07109 0.0
O85 O 0.66699 0.89804 0.07219 0.0
O86 O 0.5623 0.92123 0.18664 0.0
O87 O 0.56375 0.79803 0.10383 0.0
Sc88 Sc 0.19664 0.86503 0.23697 0.0
Sc89 Sc 0.10367 0.76506 0.24435 0.0
Sc90 Sc 0.19077 0.78193 0.35008 0.0
O91 O 0.16569 0.8028 0.27636 0.0
C92 C 0.30042 0.80437 0.30361 0.0
C93 C 0.17113 0.80913 0.14193 0.0
C94 C 0.15652 0.66933 0.2966 0.0
C95 C 0.0663 0.87921 0.21858 0.0
C96 C 0.20307 0.91133 0.3467 0.0
C97 C 0.07436 0.76809 0.36748 0.0
O98 O 0.27841 0.84066 0.27033 0.0
O99 O 0.12695 0.79064 0.16006 0.0
O100 O 0.17207 0.69664 0.33664 0.0
O101 O 0.1143 0.89397 0.20596 0.0
O102 O 0.21071 0.86416 0.36907 0.0
O103 O 0.06913 0.74279 0.32387 0.0
O104 O 0.18432 0.91963 0.29977 0.0
O105 O 0.05754 0.83603 0.24514 0.0
O106 O 0.11121 0.80067 0.37344 0.0
O107 O 0.2106 0.81227 0.17295 0.0
O108 O 0.27325 0.76856 0.32829 0.0
O109 O 0.14798 0.69053 0.24939 0.0
Sc110 Sc 0.061 0.61683 0.95571 0.0
Sc111 Sc 0.01479 0.54302 0.85529 0.0
Sc112 Sc 0.12108 0.49029 0.94049 0.0
O113 O 0.05815 0.54474 0.9238 0.0
C114 C 0.17643 0.59538 0.93553 0.0
C115 C 0.04013 0.6549 0.83748 0.0
C116 C 0.137 0.53241 0.82165 0.0
C117 C 0.93537 0.58946 0.94708 0.0
C118 C 0.10007 0.52728 0.0567 0.0
C119 C 0.03469 0.4177 0.88513 0.0
O120 O 0.13392 0.6068 0.9116 0.0
O121 O 0.0007 0.62595 0.84237 0.0
O122 O 0.14655 0.49531 0.85794 0.0
O123 O 0.97122 0.61808 0.96952 0.0
O124 O 0.10227 0.48652 0.02597 0.0
O125 O 0.01442 0.45569 0.85491 0.0
O126 O 0.08547 0.57574 0.03774 0.0
O127 O 0.94697 0.55419 0.91014 0.0
O128 O 0.06843 0.42566 0.92267 0.0
O129 O 0.06356 0.66653 0.88013 0.0
O130 O 0.17993 0.55005 0.96089 0.0
O131 O 0.08908 0.54786 0.80763 0.0
Sc132 Sc 0.86098 0.71507 0.28405 0.0
Sc133 Sc 0.76466 0.61791 0.27862 0.0
Sc134 Sc 0.75823 0.70967 0.38077 0.0
O135 O 0.79339 0.6826 0.31302 0.0
C136 C 0.86828 0.73355 0.41471 0.0
C137 C 0.89481 0.60241 0.25808 0.0
C138 C 0.7448 0.57927 0.38933 0.0
C139 C 0.79937 0.67109 0.1766 0.0
C140 C 0.80788 0.81671 0.31743 0.0
C141 C 0.65677 0.67756 0.33561 0.0
O142 O 0.88673 0.74251 0.36629 0.0
O143 O 0.84611 0.58988 0.24908 0.0
O144 O 0.7325 0.62637 0.40826 0.0
O145 O 0.83922 0.69212 0.20029 0.0
O146 O 0.78226 0.79384 0.35736 0.0
O147 O 0.6792 0.63721 0.31013 0.0
O148 O 0.82198 0.79161 0.27535 0.0
O149 O 0.75628 0.65916 0.20207 0.0
O150 O 0.68233 0.72008 0.3425 0.0
O151 O 0.90484 0.6396 0.29032 0.0
O152 O 0.83162 0.70007 0.42321 0.0
O153 O 0.77816 0.57385 0.35086 0.0
Sc154 Sc 0.95462 0.91833 0.85925 0.0
Sc155 Sc 0.85737 0.98036 0.93324 0.0
Sc156 Sc 0.94179 0.87013 -0.01168 0.0
O157 O 0.92354 0.93065 0.93153 0.0
C158 C 0.94808 0.80516 0.88692 0.0
C159 C 0.83578 0.93931 0.82456 0.0
C160 C 0.81862 0.85768 0.9573 0.0
C161 C 0.94956 0.04965 0.87125 0.0
C162 C 0.0541 0.88878 0.94961 0.0
C163 C 0.87997 0.96122 0.06048 0.0
O164 O 0.91775 0.84394 0.87312 0.0
O165 O 0.83677 0.98176 0.85089 0.0
O166 O 0.86363 0.84166 0.97808 0.0
O167 O 0.96908 0.00635 0.84817 0.0
O168 O 0.02347 0.8937 -0.00852 0.0
O169 O 0.8618 -0.01115 0.01957 0.0
O170 O 0.03525 0.89629 0.90067 0.0
O171 O 0.9122 0.04782 0.90903 0.0
O172 O 0.91202 0.91927 0.05629 0.0
O173 O 0.88006 0.91536 0.81293 0.0
O174 O 0.97363 0.80983 0.9303 0.0
O175 O 0.80652 0.90779 0.9434 0.0
Sc176 Sc 0.35727 0.48036 0.43321 0.0
Sc177 Sc 0.44167 0.37014 0.48836 0.0
Sc178 Sc 0.45456 0.41829 0.35929 0.0
O179 O 0.42345 0.43064 0.43156 0.0
C180 C 0.33575 0.43932 0.32452 0.0
C181 C 0.31851 0.35769 0.45726 0.0
C182 C 0.44802 0.30513 0.38697 0.0
C183 C 0.37976 0.46123 0.56048 0.0
C184 C 0.4495 0.54963 0.37128 0.0
C185 C 0.55401 0.38876 0.44969 0.0
O186 O 0.33679 0.48178 0.35083 0.0
O187 O 0.3635 0.34168 0.4781 0.0
O188 O 0.41769 0.3439 0.37317 0.0
O189 O 0.36156 0.48883 0.51956 0.0
O190 O 0.46902 0.50632 0.34821 0.0
O191 O 0.52336 0.39368 0.49155 0.0
O192 O 0.41213 0.5478 0.40906 0.0
O193 O 0.41188 0.41932 0.5563 0.0
O194 O 0.53518 0.39627 0.40074 0.0
O195 O 0.30643 0.40778 0.44331 0.0
O196 O 0.38 0.41528 0.31297 0.0
O197 O 0.47354 0.30981 0.43038 0.0
Sc198 Sc 0.3516 0.76533 0.68654 0.0
Sc199 Sc 0.24576 0.75807 0.60104 0.0
Sc200 Sc 0.24749 0.86326 0.69117 0.0
O201 O 0.28109 0.79516 0.66 0.0
C202 C 0.29338 0.81788 0.79488 0.0
C203 C 0.30552 0.65949 0.67483 0.0
C204 C 0.14674 0.79834 0.64963 0.0
C205 C 0.35626 0.7343 0.55875 0.0
C206 C 0.37407 0.88037 0.69008 0.0
C207 C 0.2264 0.88872 0.57417 0.0
O208 O 0.33409 0.79654 0.76897 0.0
O209 O 0.27969 0.67599 0.63163 0.0
O210 O 0.16424 0.84252 0.66732 0.0
O211 O 0.37603 0.72978 0.60682 0.0
O212 O 0.32721 0.89175 0.70985 0.0
O213 O 0.21729 0.83891 0.56402 0.0
O214 O 0.38472 0.83924 0.66206 0.0
O215 O 0.31251 0.76087 0.54925 0.0
O216 O 0.25079 0.90218 0.61576 0.0
O217 O 0.31761 0.69194 0.71069 0.0
O218 O 0.24809 0.82902 0.77181 0.0
O219 O 0.17639 0.75515 0.65044 0.0
Sc220 Sc 0.10649 0.46381 0.55292 0.0
Sc221 Sc 0.05016 0.34252 0.52634 0.0
Sc222 Sc -0.00331 0.42402 0.62896 0.0
O223 O 0.04804 0.41263 0.56542 0.0
C224 C 0.10222 0.44796 0.67201 0.0
C225 C 0.16985 0.35124 0.55168 0.0
C226 C 0.03871 0.31216 0.64638 0.0
C227 C 0.08536 0.42371 0.43322 0.0
C228 C 0.01561 0.5462 0.58401 0.0
C229 C 0.92373 0.37781 0.53996 0.0
O230 O 0.097 0.48332 0.63462 0.0
O231 O 0.1354 0.33716 0.51833 0.0
O232 O -0.00524 0.33969 0.64145 0.0
O233 O 0.11378 0.45045 0.46501 0.0
O234 O -0.00422 0.51382 0.61998 0.0
O235 O 0.96025 0.34184 0.52657 0.0
O236 O 0.0458 0.5292 0.54449 0.0
O237 O 0.05093 0.38957 0.45094 0.0
O238 O 0.9333 0.4171 0.5711 0.0
O239 O 0.16692 0.39811 0.57214 0.0
O240 O 0.06231 0.42135 0.68662 0.0
O241 O 0.06376 0.29807 0.60381 0.0
Sc242 Sc 0.95144 0.1166 0.4952 0.0
Sc243 Sc 0.86606 0.02381 0.55451 0.0
Sc244 Sc 0.98101 0.04479 0.61478 0.0
O245 O 0.93841 0.05338 0.54678 0.0
C246 C 0.06543 0.09672 0.52405 0.0
C247 C 0.88561 0.02656 0.42955 0.0
C248 C 0.95946 0.92802 0.60077 0.0
C249 C 0.83284 0.14681 0.53148 0.0
C250 C 0.96017 0.16514 0.60481 0.0
C251 C 0.8737 0.03668 0.67088 0.0
O252 O 0.03423 0.09066 0.48386 0.0
O253 O 0.86857 -0.00016 0.47125 0.0
O254 O -0.00112 0.96025 0.6017 0.0
O255 O 0.8783 0.15713 0.51241 0.0
O256 O 0.9432 0.12184 0.62493 0.0
O257 O 0.85888 0.06251 0.62935 0.0
O258 O 0.97995 0.16766 0.55724 0.0
O259 O 0.81706 0.09839 0.5359 0.0
O260 O 0.91955 0.01261 0.66961 0.0
O261 O 0.91667 0.06708 0.43241 0.0
O262 O 0.05198 0.08084 0.57245 0.0
O263 O 0.9109 0.94512 0.58589 0.0
Sc264 Sc 0.69792 0.72058 0.62229 0.0
Sc265 Sc 0.60913 0.72545 0.73058 0.0
Sc266 Sc 0.70877 0.62404 0.72621 0.0
O267 O 0.67427 0.69194 0.695 0.0
C268 C 0.71556 0.59412 0.60838 0.0
C269 C 0.57825 0.72362 0.60706 0.0
C270 C 0.58524 0.60623 0.74404 0.0
C271 C 0.64635 0.82687 0.68278 0.0
C272 C 0.80574 0.6896 0.66779 0.0
C273 C 0.68343 0.67745 0.83207 0.0
O274 O 0.72873 0.64181 0.59398 0.0
O275 O 0.57 0.7471 0.65209 0.0
O276 O 0.63356 0.59196 0.75713 0.0
O277 O 0.66408 0.80427 0.63948 0.0
O278 O 0.78602 0.6494 0.69436 0.0
O279 O 0.63899 0.69927 0.81322 0.0
O280 O 0.77723 0.73087 0.64997 0.0
O281 O 0.64591 0.801 0.72833 0.0
O282 O 0.72188 0.66229 0.80094 0.0
O283 O 0.62308 0.70163 0.59396 0.0
O284 O 0.69488 0.583 0.65418 0.0
O285 O 0.57054 0.65328 0.72714 0.0
Sc286 Sc 0.69664 0.36502 0.73701 0.0
Sc287 Sc 0.60369 0.26504 0.74441 0.0
Sc288 Sc 0.69082 0.28191 0.85011 0.0
O289 O 0.66572 0.30278 0.77639 0.0
C290 C 0.80045 0.30438 0.80361 0.0
C291 C 0.67113 0.30914 0.64197 0.0
C292 C 0.65656 0.16931 0.79664 0.0
C293 C 0.56631 0.37917 0.71863 0.0
C294 C 0.70309 0.41131 0.84673 0.0
C295 C 0.57442 0.26805 0.86754 0.0
O296 O 0.77842 0.34067 0.77034 0.0
O297 O 0.62695 0.29063 0.66011 0.0
O298 O 0.67212 0.19661 0.83666 0.0
O299 O 0.6143 0.39394 0.706 0.0
O300 O 0.71076 0.36414 0.86909 0.0
O301 O 0.56917 0.24276 0.82393 0.0
O302 O 0.68432 0.41961 0.79981 0.0
O303 O 0.55755 0.33601 0.74522 0.0
O304 O 0.61128 0.30062 0.87351 0.0
O305 O 0.7106 0.31227 0.67298 0.0
O306 O 0.77329 0.26855 0.82828 0.0
O307 O 0.64801 0.1905 0.74943 0.0
Sc308 Sc 0.56095 0.1168 0.45573 0.0
Sc309 Sc 0.51473 0.04295 0.35536 0.0
Sc310 Sc 0.62096 -0.00971 0.44068 0.0
O311 O 0.55806 0.04471 0.42387 0.0
C312 C 0.67637 0.09532 0.43582 0.0
C313 C 0.54022 0.15479 0.33746 0.0
C314 C 0.63703 0.03224 0.32164 0.0
C315 C 0.4353 0.08954 0.44709 0.0
C316 C 0.5998 0.02722 0.55679 0.0
C317 C 0.53465 0.91765 0.38515 0.0
O318 O 0.63394 0.10674 0.41173 0.0
O319 O 0.50076 0.12587 0.34229 0.0
O320 O 0.64682 -0.00446 0.35828 0.0
O321 O 0.47117 0.11812 0.46955 0.0
O322 O 0.60183 0.98644 0.52608 0.0
O323 O 0.51422 0.95566 0.35508 0.0
O324 O 0.58538 0.07571 0.53779 0.0
O325 O 0.4469 0.05427 0.41015 0.0
O326 O 0.5685 0.92558 0.42259 0.0
O327 O 0.56353 0.1665 0.38015 0.0
O328 O 0.67968 0.05008 0.46135 0.0
O329 O 0.58905 0.0476 0.30772 0.0
Sc330 Sc 0.361 0.21505 0.78405 0.0
Sc331 Sc 0.26468 0.1179 0.77861 0.0
Sc332 Sc 0.25824 0.20967 0.88074 0.0
O333 O 0.29341 0.18259 0.81301 0.0
C334 C 0.36829 0.23353 0.91471 0.0
C335 C 0.39484 0.1024 0.75809 0.0
C336 C 0.24482 0.07927 0.88932 0.0
C337 C 0.29939 0.17108 0.67659 0.0
C338 C 0.30789 0.31669 0.81739 0.0
C339 C 0.15679 0.17756 0.83558 0.0
O340 O 0.38675 0.24249 0.86629 0.0
O341 O 0.34614 0.08986 0.74908 0.0
O342 O 0.23251 0.12636 0.90824 0.0
O343 O 0.33925 0.1921 0.70028 0.0
O344 O 0.28227 0.29383 0.85732 0.0
O345 O 0.17921 0.1372 0.81012 0.0
O346 O 0.32202 0.29159 0.77533 0.0
O347 O 0.25629 0.15914 0.70206 0.0
O348 O 0.18236 0.22008 0.84246 0.0
O349 O 0.40485 0.13958 0.79033 0.0
O350 O 0.33162 0.20007 0.9232 0.0
O351 O 0.27819 0.07385 0.85086 0.0
C352 C 0.10071 0.17694 0.85932 0.0
C353 C 0.03913 0.22509 0.06406 0.0
C354 C 0.88935 0.22211 0.01079 0.0
Mg355 Mg 0.03997 0.18306 0.75993 0.0
Mg356 Mg 0.95673 0.28662 0.72854 0.0
O357 O 0.96702 0.22492 0.77415 0.0
Mg358 Mg 0.97963 0.23893 0.8533 0.0
O359 O 0.00249 0.24226 0.93137 0.0
Mg360 Mg 0.00361 0.16346 0.95518 0.0
Mg361 Mg 0.96768 0.28779 0.97971 0.0
C362 C 0.86016 0.29886 0.8064 0.0
O363 O 0.00557 0.33247 0.85103 0.0
O364 O 0.0079 0.16962 0.68066 0.0
O365 O -0.01154 0.35806 0.93766 0.0
O366 O 0.08138 0.25204 0.70995 0.0
O367 O 0.95307 0.24186 0.65562 0.0
O368 O 0.03158 0.31949 0.73952 0.0
O369 O 0.95801 0.14785 0.87585 0.0
O370 O -0.00178 0.10726 0.80633 0.0
C371 C 0.96956 0.10431 0.8503 0.0
C372 C 0.97888 0.19711 0.64596 0.0
O373 O 0.88525 0.27099 0.8456 0.0
O374 O 0.04516 0.18693 0.03026 0.0
O375 O 0.88413 0.31684 0.76388 0.0
O376 O 0.92521 0.1826 0.0107 0.0
O377 O 0.0083 0.26745 0.05545 0.0
O378 O 0.89095 0.26094 0.97613 0.0
O379 O 0.0666 0.21033 0.83809 0.0
O380 O 0.08897 0.15248 0.90476 0.0
C381 C 0.05974 0.29931 0.70158 0.0
C382 C 0.00625 0.36719 0.88972 0.0
C383 C 0.60069 0.67692 0.35935 0.0
C384 C 0.53909 0.72502 0.56412 0.0
C385 C 0.38934 0.72208 0.51079 0.0
Mg386 Mg 0.53993 0.68302 0.25996 0.0
Mg387 Mg 0.45669 0.78658 0.22856 0.0
O388 O 0.46698 0.72488 0.27418 0.0
Mg389 Mg 0.4796 0.73889 0.35334 0.0
O390 O 0.50248 0.74222 0.4314 0.0
Mg391 Mg 0.50359 0.66341 0.45521 0.0
Mg392 Mg 0.46767 0.78774 0.47976 0.0
C393 C 0.36013 0.79884 0.30642 0.0
O394 O 0.50554 0.83242 0.35106 0.0
O395 O 0.50786 0.66958 0.18069 0.0
O396 O 0.48849 0.85798 0.43771 0.0
O397 O 0.58134 0.752 0.20998 0.0
O398 O 0.45304 0.74183 0.15565 0.0
O399 O 0.53153 0.81946 0.23953 0.0
O400 O 0.45798 0.64782 0.37588 0.0
O401 O 0.49817 0.60722 0.30636 0.0
C402 C 0.46951 0.60428 0.35033 0.0
C403 C 0.47885 0.69707 0.14598 0.0
O404 O 0.38522 0.77097 0.34562 0.0
O405 O 0.54515 0.68686 0.5303 0.0
O406 O 0.38411 0.81681 0.26391 0.0
O407 O 0.4252 0.68256 0.51073 0.0
O408 O 0.50825 0.76737 0.55551 0.0
O409 O 0.39094 0.76087 0.47609 0.0
O410 O 0.56657 0.71029 0.33812 0.0
O411 O 0.58895 0.65245 0.40478 0.0
C412 C 0.5597 0.79927 0.2016 0.0
C413 C 0.50626 0.86712 0.38976 0.0
C414 C 0.96819 0.87239 0.6283 0.0
C415 C 0.97111 0.77843 0.84072 0.0
C416 C 0.05784 0.6723 0.78235 0.0
Mg417 Mg -0.00015 0.81337 0.52499 0.0
Mg418 Mg 0.97168 0.69475 0.49649 0.0
O419 O 0.00604 0.73371 0.54762 0.0
Mg420 Mg 0.97923 0.73731 0.6256 0.0
O421 O 0.96334 0.7527 0.70618 0.0
Mg422 Mg 0.03295 0.7909 0.72393 0.0
Mg423 Mg 0.95599 0.69212 0.7523 0.0
C424 C -0.00281 0.60397 0.58132 0.0
O425 O 0.88911 0.71622 0.62812 0.0
O426 O 0.04538 0.79413 0.45143 0.0
O427 O 0.88643 0.67107 0.71053 0.0
O428 O 0.92569 0.79389 0.46343 0.0
O429 O 0.01174 0.7182 0.42054 0.0
O430 O 0.89274 0.72248 0.50485 0.0
O431 O 0.06351 0.76049 0.64418 0.0
O432 O 0.08032 0.82187 0.57888 0.0
C433 C 0.09349 0.7956 0.62349 0.0
C434 C 0.04077 0.75956 0.41474 0.0
O435 O -0.00074 0.63709 0.62196 0.0
O436 O -0.00431 0.80892 0.806 0.0
O437 O -0.01419 0.61955 0.53293 0.0
O438 O 0.07318 0.72055 0.77699 0.0
O439 O 0.95093 0.73373 0.82833 0.0
O440 O 0.03199 0.65355 0.74376 0.0
O441 O 0.95539 0.82955 0.60442 0.0
O442 O -0.00551 0.86793 0.67326 0.0
C443 C 0.89299 0.75471 0.46427 0.0
C444 C 0.86403 0.69112 0.66719 0.0
C445 C 0.85368 0.97344 0.1135 0.0
C446 C 0.65422 0.94354 0.19671 0.0
C447 C 0.68443 0.05256 0.29252 0.0
Mg448 Mg 0.94612 0.02441 0.17247 0.0
Mg449 Mg 0.9732 0.9798 0.291 0.0
O450 O 0.92224 0.02145 0.25231 0.0
Mg451 Mg 0.85001 0.98765 0.24695 0.0
O452 O 0.7774 0.95936 0.23081 0.0
Mg453 Mg 0.74859 0.02287 0.18186 0.0
Mg454 Mg 0.73139 0.95761 0.29134 0.0
C455 C 0.88536 0.00055 0.37703 0.0
O456 O 0.85153 0.89646 0.28355 0.0
O457 O 0.01105 0.07485 0.20186 0.0
O458 O 0.77868 0.90311 0.33971 0.0
O459 O 0.01503 0.95609 0.18066 0.0
O460 O 0.04085 0.03024 0.27844 0.0
O461 O 0.98225 0.90866 0.24942 0.0
O462 O 0.81555 0.07119 0.2134 0.0
O463 O 0.88231 0.09881 0.16112 0.0
C464 C 0.8339 0.1054 0.17948 0.0
C465 C 0.04449 0.06727 0.2411 0.0
O466 O 0.84724 0.0107 0.34139 0.0
O467 O 0.69014 0.96311 0.16516 0.0
O468 O 0.93156 0.97876 0.36545 0.0
O469 O 0.68217 0.05501 0.2413 0.0
O470 O 0.65883 0.93887 0.24839 0.0
O471 O 0.72926 0.03864 0.31371 0.0
O472 O 0.8787 0.96651 0.15809 0.0
O473 O 0.80518 -0.00705 0.1133 0.0
C474 C 0.01796 0.91491 0.21308 0.0
C475 C 0.81638 0.87516 0.31696 0.0
C476 C 0.17426 0.84086 0.09037 0.0
C477 C 0.22126 0.05048 0.07058 0.0
C478 C 0.22755 0.02781 0.91421 0.0
Mg479 Mg 0.18137 0.75225 0.01765 0.0
Mg480 Mg 0.28585 0.7309 0.94553 0.0
O481 O 0.22409 0.77676 0.94978 0.0
Mg482 Mg 0.24096 0.85276 0.97589 0.0
O483 O 0.24344 0.92521 0.01329 0.0
Mg484 Mg 0.16491 0.95299 0.01185 0.0
Mg485 Mg 0.28714 0.97883 -0.01118 0.0
C486 C 0.29593 0.81784 0.85471 0.0
O487 O 0.33756 0.84565 0.00487 0.0
O488 O 0.16563 0.67805 0.97479 0.0
O489 O 0.35909 0.93438 0.00118 0.0
O490 O 0.24857 0.69126 0.05167 0.0
O491 O 0.24778 0.65343 0.94071 0.0
O492 O 0.31483 0.73962 0.0234 0.0
O493 O 0.15188 0.88383 0.95294 0.0
O494 O 0.10919 0.81038 0.98044 0.0
C495 C 0.10808 0.85876 0.95837 0.0
C496 C 0.19964 0.64271 0.95528 0.0
O497 O 0.27009 0.85538 0.88239 0.0
O498 O 0.18378 0.01674 0.07072 0.0
O499 O 0.31576 0.77329 0.87615 0.0
O500 O 0.18704 0.02427 0.94674 0.0
O501 O 0.26311 0.04638 0.03991 0.0
O502 O 0.26159 -0.01153 0.91062 0.0
O503 O 0.21014 0.8244 0.05753 0.0
O504 O 0.15019 0.88795 0.08351 0.0
C505 C 0.29873 0.6955 0.04381 0.0
C506 C 0.37151 0.88421 0.01081 0.0
C507 C 0.12342 0.38343 0.18217 0.0
C508 C 0.91935 0.40849 0.2086 0.0
C509 C 0.93749 0.56096 0.24924 0.0
Mg510 Mg 0.22141 0.44693 0.18975 0.0
Mg511 Mg 0.24341 0.52107 0.29303 0.0
O512 O 0.19845 0.51262 0.23403 0.0
Mg513 Mg 0.11964 0.49577 0.24738 0.0
O514 O 0.04226 0.47443 0.24519 0.0
Mg515 Mg 0.02226 0.48043 0.16749 0.0
Mg516 Mg -0.01281 0.45771 0.29219 0.0
C517 C 0.15523 0.61058 0.30305 0.0
O518 O 0.11797 0.4614 0.34448 0.0
O519 O 0.29775 0.48772 0.17149 0.0
O520 O 0.03151 0.43723 0.36 0.0
O521 O 0.27825 0.40654 0.25825 0.0
O522 O 0.31736 0.53189 0.24704 0.0
O523 O 0.24216 0.44396 0.32946 0.0
O524 O 0.0994 0.52733 0.15654 0.0
O525 O 0.17114 0.48982 0.11559 0.0
C526 C 0.12593 0.51792 0.11259 0.0
C527 C 0.32975 0.51394 0.20021 0.0
O528 O 0.1196 0.58533 0.27648 0.0
O529 O 0.94898 0.43083 0.17309 0.0
O530 O 0.19783 0.58777 0.32397 0.0
O531 O 0.95996 0.5524 0.20189 0.0
O532 O 0.92977 0.40769 0.25898 0.0
O533 O 0.94689 0.53113 0.29127 0.0
O534 O 0.14242 0.41266 0.21761 0.0
O535 O 0.0801 0.39894 0.15594 0.0
C536 C 0.28263 0.42043 0.30731 0.0
C537 C 0.07972 0.44165 0.37553 0.0
C538 C 0.61292 0.63251 0.01752 0.0
C539 C 0.71123 0.80911 0.06736 0.0
C540 C 0.78423 0.81151 0.94577 0.0
Mg541 Mg 0.66828 0.5417 0.96885 0.0
Mg542 Mg 0.7898 0.50063 0.95397 0.0
O543 O 0.74619 0.55776 0.97746 0.0
Mg544 Mg 0.74715 0.63551 0.00484 0.0
O545 O 0.72985 0.71523 0.02935 0.0
Mg546 Mg 0.672 0.74654 0.96617 0.0
Mg547 Mg 0.79797 0.75206 0.04332 0.0
C548 C 0.87829 0.58786 0.96697 0.0
O549 O 0.77321 0.62504 0.09638 0.0
O550 O 0.67831 0.47593 0.90874 0.0
O551 O 0.83611 0.68694 0.08942 0.0
O552 O 0.685 0.46845 0.03196 0.0
O553 O 0.76336 0.47239 0.87903 0.0
O554 O 0.76787 0.43683 0.00659 0.0
O555 O 0.71648 0.67287 0.92281 0.0
O556 O 0.66368 0.60772 0.89742 0.0
C557 C 0.68558 0.65332 0.88808 0.0
C558 C 0.71497 0.45769 0.8773 0.0
O559 O 0.846 0.63026 0.97785 0.0
O560 O 0.70653 0.76034 0.05063 0.0
O561 O 0.86154 0.54025 0.96114 0.0
O562 O 0.73298 0.81675 0.94004 0.0
O563 O 0.75765 0.821 0.08332 0.0
O564 O 0.8052 0.76484 0.95839 0.0
O565 O 0.65945 0.61107 0.02655 0.0
O566 O 0.60769 0.68109 -0.00338 0.0
C567 C 0.72354 0.43105 0.03207 0.0
C568 C 0.80499 0.65803 0.11843 0.0
C569 C 0.11288 0.13252 0.51749 0.0
C570 C 0.21118 0.30918 0.56732 0.0
C571 C 0.28414 0.31151 0.4457 0.0
Mg572 Mg 0.16824 0.04172 0.46883 0.0
Mg573 Mg 0.28977 0.00068 0.45395 0.0
O574 O 0.24615 0.0578 0.47744 0.0
Mg575 Mg 0.2471 0.13556 0.50481 0.0
O576 O 0.22977 0.21528 0.52933 0.0
Mg577 Mg 0.17193 0.24656 0.46614 0.0
Mg578 Mg 0.2979 0.2521 0.54327 0.0
C579 C 0.37823 0.08794 0.46698 0.0
O580 O 0.27317 0.1251 0.59635 0.0
O581 O 0.17828 0.97595 0.40872 0.0
O582 O 0.33607 0.18702 0.58941 0.0
O583 O 0.18498 0.96846 0.53194 0.0
O584 O 0.26333 0.97243 0.379 0.0
O585 O 0.26784 0.93686 0.50657 0.0
O586 O 0.21642 0.1729 0.42278 0.0
O587 O 0.16363 0.10774 0.3974 0.0
C588 C 0.18553 0.15335 0.38805 0.0
C589 C 0.21495 0.95771 0.37728 0.0
O590 O 0.34593 0.13034 0.47784 0.0
O591 O 0.20647 0.2604 0.5506 0.0
O592 O 0.36148 0.04032 0.46115 0.0
O593 O 0.23289 0.31676 0.43998 0.0
O594 O 0.25761 0.32106 0.58325 0.0
O595 O 0.30511 0.26485 0.45833 0.0
O596 O 0.15941 0.11109 0.52652 0.0
O597 O 0.10764 0.18111 0.4966 0.0
C598 C 0.22352 0.93106 0.53205 0.0
C599 C 0.30497 0.15808 0.61841 0.0
C600 C 0.33405 0.60547 0.6795 0.0
C601 C 0.54456 0.56719 0.74118 0.0
C602 C 0.51796 0.41486 0.7131 0.0
Mg603 Mg 0.24871 0.52336 0.68204 0.0
Mg604 Mg 0.23131 0.45775 0.79137 0.0
O605 O 0.27732 0.45965 0.73084 0.0
Mg606 Mg 0.35003 0.48771 0.74698 0.0
O607 O 0.42231 0.52138 0.75236 0.0
Mg608 Mg 0.44619 0.52442 0.67252 0.0
Mg609 Mg 0.47325 0.4797 0.79104 0.0
C610 C 0.31628 0.37516 0.81686 0.0
O611 O 0.3473 0.5107 0.84142 0.0
O612 O 0.18993 0.46403 0.66522 0.0
O613 O 0.43159 0.47869 0.86549 0.0
O614 O 0.18241 0.55563 0.74159 0.0
O615 O 0.15876 0.43912 0.74833 0.0
O616 O 0.22927 0.53867 0.81404 0.0
O617 O 0.37874 0.4666 0.65805 0.0
O618 O 0.30514 0.49321 0.61344 0.0
C619 C 0.35358 0.47351 0.61354 0.0
C620 C 0.15413 0.44409 0.69667 0.0
O621 O 0.35144 0.39648 0.78348 0.0
O622 O 0.51112 0.5748 0.70195 0.0
O623 O 0.27852 0.40305 0.83959 0.0
O624 O 0.51506 0.45606 0.68071 0.0
O625 O 0.54092 0.53013 0.7785 0.0
O626 O 0.48222 0.40859 0.74941 0.0
O627 O 0.31588 0.57133 0.71359 0.0
O628 O 0.38241 0.59888 0.66104 0.0
C629 C 0.18453 0.55283 0.79281 0.0
C630 C 0.38541 0.50052 0.87706 0.0
C631 C 0.67425 0.34088 0.59042 0.0
C632 C 0.72126 0.55046 0.5706 0.0
C633 C 0.72753 0.52781 0.41422 0.0
Mg634 Mg 0.68133 0.25225 0.51777 0.0
Mg635 Mg 0.78576 0.23087 0.4456 0.0
O636 O 0.724 0.27673 0.44984 0.0
Mg637 Mg 0.7409 0.35274 0.47591 0.0
O638 O 0.74341 0.4252 0.51328 0.0
Mg639 Mg 0.66488 0.45299 0.51188 0.0
Mg640 Mg 0.78712 0.47881 0.48883 0.0
C641 C 0.79586 0.31777 0.35473 0.0
O642 O 0.83751 0.34563 0.50488 0.0
O643 O 0.66555 0.17801 0.475 0.0
O644 O 0.85906 0.43435 0.50118 0.0
O645 O 0.74856 0.19129 0.55177 0.0
O646 O 0.74768 0.1534 0.44088 0.0
O647 O 0.8148 0.23965 0.52344 0.0
O648 O 0.65181 0.38381 0.45299 0.0
O649 O 0.60913 0.31038 0.48057 0.0
C650 C 0.608 0.35875 0.45847 0.0
C651 C 0.69956 0.14266 0.45552 0.0
O652 O 0.77003 0.35532 0.3824 0.0
O653 O 0.68377 0.51674 0.57074 0.0
O654 O 0.81564 0.2732 0.37618 0.0
O655 O 0.68702 0.52426 0.44675 0.0
O656 O 0.76312 0.54636 0.53994 0.0
O657 O 0.76158 0.48848 0.41063 0.0
O658 O 0.71012 0.32443 0.55757 0.0
O659 O 0.65017 0.38796 0.58356 0.0
C660 C 0.79872 0.19552 0.54386 0.0
C661 C 0.87147 0.38418 0.51081 0.0
C662 C 0.6258 0.01784 0.61261 0.0
C663 C 0.82973 0.01399 0.70015 0.0
C664 C 0.78267 0.92045 0.80726 0.0
Mg665 Mg 0.52229 0.98045 0.66751 0.0
Mg666 Mg 0.4872 0.95769 0.79222 0.0
O667 O 0.54228 0.9744 0.74522 0.0
Mg668 Mg 0.61966 -0.00424 0.74742 0.0
O669 O 0.69844 0.01265 0.73403 0.0
Mg670 Mg 0.72143 0.94699 0.6897 0.0
Mg671 Mg 0.74342 0.02105 0.79301 0.0
C672 C 0.57975 0.94167 0.8756 0.0
O673 O 0.61961 0.08531 0.77653 0.0
O674 O 0.44899 0.93087 0.67309 0.0
O675 O 0.69786 0.08774 0.82401 0.0
O676 O 0.46 0.05241 0.7019 0.0
O677 O 0.42979 0.90769 0.75897 0.0
O678 O 0.4469 0.03111 0.79128 0.0
O679 O 0.64253 0.91262 0.7176 0.0
O680 O 0.58006 0.89894 0.65603 0.0
C681 C 0.62338 0.88338 0.68225 0.0
C682 C 0.41936 0.90852 0.70858 0.0
O683 O 0.61801 0.9614 0.84453 0.0
O684 O 0.7977 0.98784 0.67141 0.0
O685 O 0.53154 0.93725 0.86006 0.0
O686 O 0.77835 0.90667 0.75816 0.0
O687 O 0.81737 0.03187 0.74702 0.0
O688 O 0.74218 0.94393 0.82942 0.0
O689 O 0.59946 0.02732 0.65665 0.0
O690 O 0.67104 -0.01024 0.61552 0.0
C691 C 0.43752 0.06096 0.74925 0.0
C692 C 0.65525 0.11056 0.80309 0.0
C693 C 0.46818 0.37238 0.12833 0.0
C694 C 0.47109 0.27842 0.34078 0.0
C695 C 0.55788 0.17232 0.28235 0.0
Mg696 Mg 0.49985 0.31335 0.02503 0.0
Mg697 Mg 0.47174 0.19469 -0.00344 0.0
O698 O 0.50605 0.2337 0.04768 0.0
Mg699 Mg 0.47924 0.2373 0.12566 0.0
O700 O 0.46332 0.25271 0.20624 0.0
Mg701 Mg 0.53293 0.29092 0.22399 0.0
Mg702 Mg 0.45601 0.19211 0.25233 0.0
C703 C 0.49729 0.10395 0.08144 0.0
O704 O 0.38913 0.21619 0.12815 0.0
O705 O 0.5454 0.29411 0.95148 0.0
O706 O 0.38644 0.17105 0.21057 0.0
O707 O 0.4257 0.29385 0.96346 0.0
O708 O 0.51182 0.21813 0.92061 0.0
O709 O 0.3928 0.22238 0.00483 0.0
O710 O 0.5635 0.26051 0.14425 0.0
O711 O 0.58031 0.32187 0.07891 0.0
C712 C 0.59347 0.29561 0.12353 0.0
C713 C 0.54082 0.25952 0.9148 0.0
O714 O 0.49932 0.13709 0.12207 0.0
O715 O 0.49564 0.30894 0.30605 0.0
O716 O 0.48591 0.11951 0.03304 0.0
O717 O 0.57314 0.2206 0.27707 0.0
O718 O 0.45097 0.23369 0.32839 0.0
O719 O 0.53204 0.15359 0.24374 0.0
O720 O 0.45539 0.32954 0.10446 0.0
O721 O 0.49447 0.36794 0.17331 0.0
C722 C 0.39303 0.25464 0.96427 0.0
C723 C 0.36405 0.19109 0.16722 0.0
loop_
_geom_bond_atom_site_label_1
_geom_bond_atom_site_label_2
_geom_bond_distance
_geom_bond_site_symmetry_2
_ccdc_geom_bond_type
Sc0 O3 2.025 . S
Sc0 O10 2.105 . S
Sc0 O13 2.105 . S
Sc0 O16 2.105 . S
Sc0 O19 2.105 . S
Sc1 O3 2.025 . S
Sc1 O11 2.105 . S
Sc1 O15 2.105 . S
Sc1 O17 2.105 . S
Sc1 O21 2.105 . S
Sc2 O3 2.025 . S
Sc2 O12 2.105 . S
Sc2 O14 2.105 . S
Sc2 O18 2.105 . S
Sc2 O20 2.105 . S
O3 Sc0 2.025 . S
O3 Sc1 2.025 . S
O3 Sc2 2.025 . S
C4 O10 1.268 . S
C4 O20 1.268 . S
C5 O11 1.268 . S
C5 O19 1.268 . S
C6 O12 1.268 . S
C6 O21 1.268 . S
C7 O13 1.268 . S
C7 O17 1.268 . S
C8 O14 1.268 . S
C8 O16 1.268 . S
C9 O15 1.268 . S
C9 O18 1.268 . S
O10 Sc0 2.105 . S
O10 C4 1.268 . S
O11 Sc1 2.105 . S
O11 C5 1.268 . S
O12 Sc2 2.105 . S
O12 C6 1.268 . S
O13 Sc0 2.105 . S
O13 C7 1.268 . S
O14 Sc2 2.105 . S
O14 C8 1.268 . S
O15 Sc1 2.105 . S
O15 C9 1.268 . S
O16 Sc0 2.105 . S
O16 C8 1.268 . S
O17 Sc1 2.105 . S
O17 C7 1.268 . S
O18 Sc2 2.105 . S
O18 C9 1.268 . S
O19 Sc0 2.105 . S
O19 C5 1.268 . S
O20 Sc2 2.105 . S
O20 C4 1.268 . S
O21 Sc1 2.105 . S
O21 C6 1.268 . S
Sc22 O25 2.025 . S
Sc22 O32 2.105 . S
Sc22 O35 2.105 . S
Sc22 O38 2.105 . S
Sc22 O41 2.105 1_554 S
Sc23 O25 2.025 . S
Sc23 O33 2.105 1_554 S
Sc23 O37 2.105 . S
Sc23 O39 2.105 . S
Sc23 O43 2.105 . S
Sc24 O25 2.025 . S
Sc24 O34 2.105 . S
Sc24 O36 2.105 . S
Sc24 O40 2.105 . S
Sc24 O42 2.105 . S
O25 Sc22 2.025 . S
O25 Sc23 2.025 . S
O25 Sc24 2.025 . S
C26 O32 1.268 . S
C26 O42 1.268 . S
C27 O33 1.268 . S
C27 O41 1.268 . S
C28 O34 1.268 . S
C28 O43 1.268 . S
C29 O35 1.268 . S
C29 O39 1.268 . S
C30 O36 1.268 . S
C30 O38 1.268 . S
C31 O37 1.268 . S
C31 O40 1.268 . S
O32 Sc22 2.105 . S
O32 C26 1.268 . S
O33 Sc23 2.105 1_556 S
O33 C27 1.268 . S
O34 Sc24 2.105 . S
O34 C28 1.268 . S
O35 Sc22 2.105 . S
O35 C29 1.268 . S
O36 Sc24 2.105 . S
O36 C30 1.268 . S
O37 Sc23 2.105 . S
O37 C31 1.268 . S
O38 Sc22 2.105 . S
O38 C30 1.268 . S
O39 Sc23 2.105 . S
O39 C29 1.268 . S
O40 Sc24 2.105 . S
O40 C31 1.268 . S
O41 Sc22 2.105 1_556 S
O41 C27 1.268 . S
O42 Sc24 2.105 . S
O42 C26 1.268 . S
O43 Sc23 2.105 . S
O43 C28 1.268 . S
Sc44 O47 2.025 . S
Sc44 O54 2.105 . S
Sc44 O57 2.105 . S
Sc44 O60 2.105 . S
Sc44 O63 2.105 . S
Sc45 O47 2.025 . S
Sc45 O55 2.105 . S
Sc45 O59 2.105 . S
Sc45 O61 2.105 . S
Sc45 O65 2.105 . S
Sc46 O47 2.025 . S
Sc46 O56 2.105 . S
Sc46 O58 2.105 . S
Sc46 O62 2.105 . S
Sc46 O64 2.105 . S
O47 Sc44 2.025 . S
O47 Sc45 2.025 . S
O47 Sc46 2.025 . S
C48 O54 1.268 . S
C48 O64 1.268 . S
C49 O55 1.268 . S
C49 O63 1.268 . S
C50 O56 1.268 . S
C50 O65 1.268 . S
C51 O57 1.268 . S
C51 O61 1.268 . S
C52 O58 1.268 . S
C52 O60 1.268 . S
C53 O59 1.268 . S
C53 O62 1.268 . S
O54 Sc44 2.105 . S
O54 C48 1.268 . S
O55 Sc45 2.105 . S
O55 C49 1.268 . S
O56 Sc46 2.105 . S
O56 C50 1.268 . S
O57 Sc44 2.105 . S
O57 C51 1.268 . S
O58 Sc46 2.105 . S
O58 C52 1.268 . S
O59 Sc45 2.105 . S
O59 C53 1.268 . S
O60 Sc44 2.105 . S
O60 C52 1.268 . S
O61 Sc45 2.105 . S
O61 C51 1.268 . S
O62 Sc46 2.105 . S
O62 C53 1.268 . S
O63 Sc44 2.105 . S
O63 C49 1.268 . S
O64 Sc46 2.105 . S
O64 C48 1.268 . S
O65 Sc45 2.105 . S
O65 C50 1.268 . S
Sc66 O69 2.025 . S
Sc66 O76 2.105 . S
Sc66 O79 2.105 1_554 S
Sc66 O82 2.105 1_565 S
Sc66 O85 2.105 . S
Sc67 O69 2.025 . S
Sc67 O77 2.105 . S
Sc67 O81 2.105 . S
Sc67 O83 2.105 1_554 S
Sc67 O87 2.105 . S
Sc68 O69 2.025 . S
Sc68 O78 2.105 . S
Sc68 O80 2.105 1_565 S
Sc68 O84 2.105 . S
Sc68 O86 2.105 . S
O69 Sc66 2.025 . S
O69 Sc67 2.025 . S
O69 Sc68 2.025 . S
C70 O76 1.268 . S
C70 O86 1.268 . S
C71 O77 1.268 . S
C71 O85 1.268 . S
C72 O78 1.268 . S
C72 O87 1.268 . S
C73 O79 1.268 . S
C73 O83 1.268 . S
C74 O80 1.268 . S
C74 O82 1.268 . S
C75 O81 1.268 . S
C75 O84 1.268 . S
O76 Sc66 2.105 . S
O76 C70 1.268 . S
O77 Sc67 2.105 . S
O77 C71 1.268 . S
O78 Sc68 2.105 . S
O78 C72 1.268 . S
O79 Sc66 2.105 1_556 S
O79 C73 1.268 . S
O80 Sc68 2.105 1_545 S
O80 C74 1.268 . S
O81 Sc67 2.105 . S
O81 C75 1.268 . S
O82 Sc66 2.105 1_545 S
O82 C74 1.268 . S
O83 Sc67 2.105 1_556 S
O83 C73 1.268 . S
O84 Sc68 2.105 . S
O84 C75 1.268 . S
O85 Sc66 2.105 . S
O85 C71 1.268 . S
O86 Sc68 2.105 . S
O86 C70 1.268 . S
O87 Sc67 2.105 . S
O87 C72 1.268 . S
Sc88 O91 2.025 . S
Sc88 O98 2.105 . S
Sc88 O101 2.105 . S
Sc88 O104 2.105 . S
Sc88 O107 2.105 . S
Sc89 O91 2.025 . S
Sc89 O99 2.105 . S
Sc89 O103 2.105 . S
Sc89 O105 2.105 . S
Sc89 O109 2.105 . S
Sc90 O91 2.025 . S
Sc90 O100 2.105 . S
Sc90 O102 2.105 . S
Sc90 O106 2.105 . S
Sc90 O108 2.105 . S
O91 Sc88 2.025 . S
O91 Sc89 2.025 . S
O91 Sc90 2.025 . S
C92 O98 1.268 . S
C92 O108 1.268 . S
C93 O99 1.268 . S
C93 O107 1.268 . S
C94 O100 1.268 . S
C94 O109 1.268 . S
C95 O101 1.268 . S
C95 O105 1.268 . S
C96 O102 1.268 . S
C96 O104 1.268 . S
C97 O103 1.268 . S
C97 O106 1.268 . S
O98 Sc88 2.105 . S
O98 C92 1.268 . S
O99 Sc89 2.105 . S
O99 C93 1.268 . S
O100 Sc90 2.105 . S
O100 C94 1.268 . S
O101 Sc88 2.105 . S
O101 C95 1.268 . S
O102 Sc90 2.105 . S
O102 C96 1.268 . S
O103 Sc89 2.105 . S
O103 C97 1.268 . S
O104 Sc88 2.105 . S
O104 C96 1.268 . S
O105 Sc89 2.105 . S
O105 C95 1.268 . S
O106 Sc90 2.105 . S
O106 C97 1.268 . S
O107 Sc88 2.105 . S
O107 C93 1.268 . S
O108 Sc90 2.105 . S
O108 C92 1.268 . S
O109 Sc89 2.105 . S
O109 C94 1.268 . S
Sc110 O113 2.025 . S
Sc110 O120 2.105 . S
Sc110 O123 2.105 1_455 S
Sc110 O126 2.105 1_556 S
Sc110 O129 2.105 . S
Sc111 O113 2.025 . S
Sc111 O121 2.105 . S
Sc111 O125 2.105 . S
Sc111 O127 2.105 1_455 S
Sc111 O131 2.105 . S
Sc112 O113 2.025 . S
Sc112 O122 2.105 . S
Sc112 O124 2.105 1_556 S
Sc112 O128 2.105 . S
Sc112 O130 2.105 . S
O113 Sc110 2.025 . S
O113 Sc111 2.025 . S
O113 Sc112 2.025 . S
C114 O120 1.268 . S
C114 O130 1.268 . S
C115 O121 1.268 . S
C115 O129 1.268 . S
C116 O122 1.268 . S
C116 O131 1.268 . S
C117 O123 1.268 . S
C117 O127 1.268 . S
C118 O124 1.268 . S
C118 O126 1.268 . S
C119 O125 1.268 . S
C119 O128 1.268 . S
O120 Sc110 2.105 . S
O120 C114 1.268 . S
O121 Sc111 2.105 . S
O121 C115 1.268 . S
O122 Sc112 2.105 . S
O122 C116 1.268 . S
O123 Sc110 2.105 1_655 S
O123 C117 1.268 . S
O124 Sc112 2.105 1_554 S
O124 C118 1.268 . S
O125 Sc111 2.105 . S
O125 C119 1.268 . S
O126 Sc110 2.105 1_554 S
O126 C118 1.268 . S
O127 Sc111 2.105 1_655 S
O127 C117 1.268 . S
O128 Sc112 2.105 . S
O128 C119 1.268 . S
O129 Sc110 2.105 . S
O129 C115 1.268 . S
O130 Sc112 2.105 . S
O130 C114 1.268 . S
O131 Sc111 2.105 . S
O131 C116 1.268 . S
Sc132 O135 2.025 . S
Sc132 O142 2.105 . S
Sc132 O145 2.105 . S
Sc132 O148 2.105 . S
Sc132 O151 2.105 . S
Sc133 O135 2.025 . S
Sc133 O143 2.105 . S
Sc133 O147 2.105 . S
Sc133 O149 2.105 . S
Sc133 O153 2.105 . S
Sc134 O135 2.025 . S
Sc134 O144 2.105 . S
Sc134 O146 2.105 . S
Sc134 O150 2.105 . S
Sc134 O152 2.105 . S
O135 Sc132 2.025 . S
O135 Sc133 2.025 . S
O135 Sc134 2.025 . S
C136 O142 1.268 . S
C136 O152 1.268 . S
C137 O143 1.268 . S
C137 O151 1.268 . S
C138 O144 1.268 . S
C138 O153 1.268 . S
C139 O145 1.268 . S
C139 O149 1.268 . S
C140 O146 1.268 . S
C140 O148 1.268 . S
C141 O147 1.268 . S
C141 O150 1.268 . S
O142 Sc132 2.105 . S
O142 C136 1.268 . S
O143 Sc133 2.105 . S
O143 C137 1.268 . S
O144 Sc134 2.105 . S
O144 C138 1.268 . S
O145 Sc132 2.105 . S
O145 C139 1.268 . S
O146 Sc134 2.105 . S
O146 C140 1.268 . S
O147 Sc133 2.105 . S
O147 C141 1.268 . S
O148 Sc132 2.105 . S
O148 C140 1.268 . S
O149 Sc133 2.105 . S
O149 C139 1.268 . S
O150 Sc134 2.105 . S
O150 C141 1.268 . S
O151 Sc132 2.105 . S
O151 C137 1.268 . S
O152 Sc134 2.105 . S
O152 C136 1.268 . S
O153 Sc133 2.105 . S
O153 C138 1.268 . S
Sc154 O157 2.025 . S
Sc154 O164 2.105 . S
Sc154 O167 2.105 1_565 S
Sc154 O170 2.105 1_655 S
Sc154 O173 2.105 . S
Sc155 O157 2.025 . S
Sc155 O165 2.105 . S
Sc155 O169 2.105 1_556 S
Sc155 O171 2.105 1_565 S
Sc155 O175 2.105 . S
Sc156 O157 2.025 . S
Sc156 O166 2.105 . S
Sc156 O168 2.105 1_655 S
Sc156 O172 2.105 1_556 S
Sc156 O174 2.105 . S
O157 Sc154 2.025 . S
O157 Sc155 2.025 . S
O157 Sc156 2.025 . S
C158 O164 1.268 . S
C158 O174 1.268 . S
C159 O165 1.268 . S
C159 O173 1.268 . S
C160 O166 1.268 . S
C160 O175 1.268 . S
C161 O167 1.268 . S
C161 O171 1.268 . S
C162 O168 1.268 . S
C162 O170 1.268 . S
C163 O169 1.268 . S
C163 O172 1.268 . S
O164 Sc154 2.105 . S
O164 C158 1.268 . S
O165 Sc155 2.105 . S
O165 C159 1.268 . S
O166 Sc156 2.105 . S
O166 C160 1.268 . S
O167 Sc154 2.105 1_545 S
O167 C161 1.268 . S
O168 Sc156 2.105 1_455 S
O168 C162 1.268 . S
O169 Sc155 2.105 1_554 S
O169 C163 1.268 . S
O170 Sc154 2.105 1_455 S
O170 C162 1.268 . S
O171 Sc155 2.105 1_545 S
O171 C161 1.268 . S
O172 Sc156 2.105 1_554 S
O172 C163 1.268 . S
O173 Sc154 2.105 . S
O173 C159 1.268 . S
O174 Sc156 2.105 . S
O174 C158 1.268 . S
O175 Sc155 2.105 . S
O175 C160 1.268 . S
Sc176 O179 2.025 . S
Sc176 O186 2.105 . S
Sc176 O189 2.105 . S
Sc176 O192 2.105 . S
Sc176 O195 2.105 . S
Sc177 O179 2.025 . S
Sc177 O187 2.105 . S
Sc177 O191 2.105 . S
Sc177 O193 2.105 . S
Sc177 O197 2.105 . S
Sc178 O179 2.025 . S
Sc178 O188 2.105 . S
Sc178 O190 2.105 . S
Sc178 O194 2.105 . S
Sc178 O196 2.105 . S
O179 Sc176 2.025 . S
O179 Sc177 2.025 . S
O179 Sc178 2.025 . S
C180 O186 1.268 . S
C180 O196 1.268 . S
C181 O187 1.268 . S
C181 O195 1.268 . S
C182 O188 1.268 . S
C182 O197 1.268 . S
C183 O189 1.268 . S
C183 O193 1.268 . S
C184 O190 1.268 . S
C184 O192 1.268 . S
C185 O191 1.268 . S
C185 O194 1.268 . S
O186 Sc176 2.105 . S
O186 C180 1.268 . S
O187 Sc177 2.105 . S
O187 C181 1.268 . S
O188 Sc178 2.105 . S
O188 C182 1.268 . S
O189 Sc176 2.105 . S
O189 C183 1.268 . S
O190 Sc178 2.105 . S
O190 C184 1.268 . S
O191 Sc177 2.105 . S
O191 C185 1.268 . S
O192 Sc176 2.105 . S
O192 C184 1.268 . S
O193 Sc177 2.105 . S
O193 C183 1.268 . S
O194 Sc178 2.105 . S
O194 C185 1.268 . S
O195 Sc176 2.105 . S
O195 C181 1.268 . S
O196 Sc178 2.105 . S
O196 C180 1.268 . S
O197 Sc177 2.105 . S
O197 C182 1.268 . S
Sc198 O201 2.025 . S
Sc198 O208 2.105 . S
Sc198 O211 2.105 . S
Sc198 O214 2.105 . S
Sc198 O217 2.105 . S
Sc199 O201 2.025 . S
Sc199 O209 2.105 . S
Sc199 O213 2.105 . S
Sc199 O215 2.105 . S
Sc199 O219 2.105 . S
Sc200 O201 2.025 . S
Sc200 O210 2.105 . S
Sc200 O212 2.105 . S
Sc200 O216 2.105 . S
Sc200 O218 2.105 . S
O201 Sc198 2.025 . S
O201 Sc199 2.025 . S
O201 Sc200 2.025 . S
C202 O208 1.268 . S
C202 O218 1.268 . S
C203 O209 1.268 . S
C203 O217 1.268 . S
C204 O210 1.268 . S
C204 O219 1.268 . S
C205 O211 1.268 . S
C205 O215 1.268 . S
C206 O212 1.268 . S
C206 O214 1.268 . S
C207 O213 1.268 . S
C207 O216 1.268 . S
O208 Sc198 2.105 . S
O208 C202 1.268 . S
O209 Sc199 2.105 . S
O209 C203 1.268 . S
O210 Sc200 2.105 . S
O210 C204 1.268 . S
O211 Sc198 2.105 . S
O211 C205 1.268 . S
O212 Sc200 2.105 . S
O212 C206 1.268 . S
O213 Sc199 2.105 . S
O213 C207 1.268 . S
O214 Sc198 2.105 . S
O214 C206 1.268 . S
O215 Sc199 2.105 . S
O215 C205 1.268 . S
O216 Sc200 2.105 . S
O216 C207 1.268 . S
O217 Sc198 2.105 . S
O217 C203 1.268 . S
O218 Sc200 2.105 . S
O218 C202 1.268 . S
O219 Sc199 2.105 . S
O219 C204 1.268 . S
Sc220 O223 2.025 . S
Sc220 O230 2.105 . S
Sc220 O233 2.105 . S
Sc220 O236 2.105 . S
Sc220 O239 2.105 . S
Sc221 O223 2.025 . S
Sc221 O231 2.105 . S
Sc221 O235 2.105 1_455 S
Sc221 O237 2.105 . S
Sc221 O241 2.105 . S
Sc222 O223 2.025 . S
Sc222 O232 2.105 . S
Sc222 O234 2.105 . S
Sc222 O238 2.105 1_455 S
Sc222 O240 2.105 . S
O223 Sc220 2.025 . S
O223 Sc221 2.025 . S
O223 Sc222 2.025 . S
C224 O230 1.268 . S
C224 O240 1.268 . S
C225 O231 1.268 . S
C225 O239 1.268 . S
C226 O232 1.268 . S
C226 O241 1.268 . S
C227 O233 1.268 . S
C227 O237 1.268 . S
C228 O234 1.268 . S
C228 O236 1.268 . S
C229 O235 1.268 . S
C229 O238 1.268 . S
O230 Sc220 2.105 . S
O230 C224 1.268 . S
O231 Sc221 2.105 . S
O231 C225 1.268 . S
O232 Sc222 2.105 . S
O232 C226 1.268 . S
O233 Sc220 2.105 . S
O233 C227 1.268 . S
O234 Sc222 2.105 . S
O234 C228 1.268 . S
O235 Sc221 2.105 1_655 S
O235 C229 1.268 . S
O236 Sc220 2.105 . S
O236 C228 1.268 . S
O237 Sc221 2.105 . S
O237 C227 1.268 . S
O238 Sc222 2.105 1_655 S
O238 C229 1.268 . S
O239 Sc220 2.105 . S
O239 C225 1.268 . S
O240 Sc222 2.105 . S
O240 C224 1.268 . S
O241 Sc221 2.105 . S
O241 C226 1.268 . S
Sc242 O245 2.025 . S
Sc242 O252 2.105 1_655 S
Sc242 O255 2.105 . S
Sc242 O258 2.105 . S
Sc242 O261 2.105 . S
Sc243 O245 2.025 . S
Sc243 O253 2.105 . S
Sc243 O257 2.105 . S
Sc243 O259 2.105 . S
Sc243 O263 2.105 1_545 S
Sc244 O245 2.025 . S
Sc244 O254 2.105 1_545 S
Sc244 O256 2.105 . S
Sc244 O260 2.105 . S
Sc244 O262 2.105 1_655 S
O245 Sc242 2.025 . S
O245 Sc243 2.025 . S
O245 Sc244 2.025 . S
C246 O252 1.268 . S
C246 O262 1.268 . S
C247 O253 1.268 . S
C247 O261 1.268 . S
C248 O254 1.268 . S
C248 O263 1.268 . S
C249 O255 1.268 . S
C249 O259 1.268 . S
C250 O256 1.268 . S
C250 O258 1.268 . S
C251 O257 1.268 . S
C251 O260 1.268 . S
O252 Sc242 2.105 1_455 S
O252 C246 1.268 . S
O253 Sc243 2.105 . S
O253 C247 1.268 . S
O254 Sc244 2.105 1_565 S
O254 C248 1.268 . S
O255 Sc242 2.105 . S
O255 C249 1.268 . S
O256 Sc244 2.105 . S
O256 C250 1.268 . S
O257 Sc243 2.105 . S
O257 C251 1.268 . S
O258 Sc242 2.105 . S
O258 C250 1.268 . S
O259 Sc243 2.105 . S
O259 C249 1.268 . S
O260 Sc244 2.105 . S
O260 C251 1.268 . S
O261 Sc242 2.105 . S
O261 C247 1.268 . S
O262 Sc244 2.105 1_455 S
O262 C246 1.268 . S
O263 Sc243 2.105 1_565 S
O263 C248 1.268 . S
Sc264 O267 2.025 . S
Sc264 O274 2.105 . S
Sc264 O277 2.105 . S
Sc264 O280 2.105 . S
Sc264 O283 2.105 . S
Sc265 O267 2.025 . S
Sc265 O275 2.105 . S
Sc265 O279 2.105 . S
Sc265 O281 2.105 . S
Sc265 O285 2.105 . S
Sc266 O267 2.025 . S
Sc266 O276 2.105 . S
Sc266 O278 2.105 . S
Sc266 O282 2.105 . S
Sc266 O284 2.105 . S
O267 Sc264 2.025 . S
O267 Sc265 2.025 . S
O267 Sc266 2.025 . S
C268 O274 1.268 . S
C268 O284 1.268 . S
C269 O275 1.268 . S
C269 O283 1.268 . S
C270 O276 1.268 . S
C270 O285 1.268 . S
C271 O277 1.268 . S
C271 O281 1.268 . S
C272 O278 1.268 . S
C272 O280 1.268 . S
C273 O279 1.268 . S
C273 O282 1.268 . S
O274 Sc264 2.105 . S
O274 C268 1.268 . S
O275 Sc265 2.105 . S
O275 C269 1.268 . S
O276 Sc266 2.105 . S
O276 C270 1.268 . S
O277 Sc264 2.105 . S
O277 C271 1.268 . S
O278 Sc266 2.105 . S
O278 C272 1.268 . S
O279 Sc265 2.105 . S
O279 C273 1.268 . S
O280 Sc264 2.105 . S
O280 C272 1.268 . S
O281 Sc265 2.105 . S
O281 C271 1.268 . S
O282 Sc266 2.105 . S
O282 C273 1.268 . S
O283 Sc264 2.105 . S
O283 C269 1.268 . S
O284 Sc266 2.105 . S
O284 C268 1.268 . S
O285 Sc265 2.105 . S
O285 C270 1.268 . S
Sc286 O289 2.025 . S
Sc286 O296 2.105 . S
Sc286 O299 2.105 . S
Sc286 O302 2.105 . S
Sc286 O305 2.105 . S
Sc287 O289 2.025 . S
Sc287 O297 2.105 . S
Sc287 O301 2.105 . S
Sc287 O303 2.105 . S
Sc287 O307 2.105 . S
Sc288 O289 2.025 . S
Sc288 O298 2.105 . S
Sc288 O300 2.105 . S
Sc288 O304 2.105 . S
Sc288 O306 2.105 . S
O289 Sc286 2.025 . S
O289 Sc287 2.025 . S
O289 Sc288 2.025 . S
C290 O296 1.268 . S
C290 O306 1.268 . S
C291 O297 1.268 . S
C291 O305 1.268 . S
C292 O298 1.268 . S
C292 O307 1.268 . S
C293 O299 1.268 . S
C293 O303 1.268 . S
C294 O300 1.268 . S
C294 O302 1.268 . S
C295 O301 1.268 . S
C295 O304 1.268 . S
O296 Sc286 2.105 . S
O296 C290 1.268 . S
O297 Sc287 2.105 . S
O297 C291 1.268 . S
O298 Sc288 2.105 . S
O298 C292 1.268 . S
O299 Sc286 2.105 . S
O299 C293 1.268 . S
O300 Sc288 2.105 . S
O300 C294 1.268 . S
O301 Sc287 2.105 . S
O301 C295 1.268 . S
O302 Sc286 2.105 . S
O302 C294 1.268 . S
O303 Sc287 2.105 . S
O303 C293 1.268 . S
O304 Sc288 2.105 . S
O304 C295 1.268 . S
O305 Sc286 2.105 . S
O305 C291 1.268 . S
O306 Sc288 2.105 . S
O306 C290 1.268 . S
O307 Sc287 2.105 . S
O307 C292 1.268 . S
Sc308 O311 2.025 . S
Sc308 O318 2.105 . S
Sc308 O321 2.105 . S
Sc308 O324 2.105 . S
Sc308 O327 2.105 . S
Sc309 O311 2.025 . S
Sc309 O319 2.105 . S
Sc309 O323 2.105 1_545 S
Sc309 O325 2.105 . S
Sc309 O329 2.105 . S
Sc310 O311 2.025 . S
Sc310 O320 2.105 . S
Sc310 O322 2.105 . S
Sc310 O326 2.105 1_545 S
Sc310 O328 2.105 . S
O311 Sc308 2.025 . S
O311 Sc309 2.025 . S
O311 Sc310 2.025 . S
C312 O318 1.268 . S
C312 O328 1.268 . S
C313 O319 1.268 . S
C313 O327 1.268 . S
C314 O320 1.268 . S
C314 O329 1.268 . S
C315 O321 1.268 . S
C315 O325 1.268 . S
C316 O322 1.268 . S
C316 O324 1.268 . S
C317 O323 1.268 . S
C317 O326 1.268 . S
O318 Sc308 2.105 . S
O318 C312 1.268 . S
O319 Sc309 2.105 . S
O319 C313 1.268 . S
O320 Sc310 2.105 . S
O320 C314 1.268 . S
O321 Sc308 2.105 . S
O321 C315 1.268 . S
O322 Sc310 2.105 . S
O322 C316 1.268 . S
O323 Sc309 2.105 1_565 S
O323 C317 1.268 . S
O324 Sc308 2.105 . S
O324 C316 1.268 . S
O325 Sc309 2.105 . S
O325 C315 1.268 . S
O326 Sc310 2.105 1_565 S
O326 C317 1.268 . S
O327 Sc308 2.105 . S
O327 C313 1.268 . S
O328 Sc310 2.105 . S
O328 C312 1.268 . S
O329 Sc309 2.105 . S
O329 C314 1.268 . S
Sc330 O333 2.025 . S
Sc330 O340 2.105 . S
Sc330 O343 2.105 . S
Sc330 O346 2.105 . S
Sc330 O349 2.105 . S
Sc331 O333 2.025 . S
Sc331 O341 2.105 . S
Sc331 O345 2.105 . S
Sc331 O347 2.105 . S
Sc331 O351 2.105 . S
Sc332 O333 2.025 . S
Sc332 O342 2.105 . S
Sc332 O344 2.105 . S
Sc332 O348 2.105 . S
Sc332 O350 2.105 . S
O333 Sc330 2.025 . S
O333 Sc331 2.025 . S
O333 Sc332 2.025 . S
C334 O340 1.268 . S
C334 O350 1.268 . S
C335 O341 1.268 . S
C335 O349 1.268 . S
C336 O342 1.268 . S
C336 O351 1.268 . S
C337 O343 1.268 . S
C337 O347 1.268 . S
C338 O344 1.268 . S
C338 O346 1.268 . S
C339 O345 1.268 . S
C339 O348 1.268 . S
O340 Sc330 2.105 . S
O340 C334 1.268 . S
O341 Sc331 2.105 . S
O341 C335 1.268 . S
O342 Sc332 2.105 . S
O342 C336 1.268 . S
O343 Sc330 2.105 . S
O343 C337 1.268 . S
O344 Sc332 2.105 . S
O344 C338 1.268 . S
O345 Sc331 2.105 . S
O345 C339 1.268 . S
O346 Sc330 2.105 . S
O346 C338 1.268 . S
O347 Sc331 2.105 . S
O347 C337 1.268 . S
O348 Sc332 2.105 . S
O348 C339 1.268 . S
O349 Sc330 2.105 . S
O349 C335 1.268 . S
O350 Sc332 2.105 . S
O350 C334 1.268 . S
O351 Sc331 2.105 . S
O351 C336 1.268 . S
C352 O379 1.312 . S
C352 O380 1.208 . S
C353 O374 1.331 . S
C353 O377 1.244 . S
C354 O376 1.264 . S
C354 O378 1.273 . S
Mg355 O357 1.936 1_455 S
Mg355 O364 2.081 1_455 S
Mg355 O366 2.023 . S
Mg355 O370 2.031 . S
Mg355 O379 2.291 . S
Mg356 O357 1.963 . S
Mg356 O367 1.942 . S
Mg356 O368 1.955 1_655 S
Mg356 O375 1.986 . S
O357 Mg355 1.936 1_655 S
O357 Mg356 1.963 . S
O357 Mg358 1.915 . S
Mg358 O357 1.915 . S
Mg358 O359 1.915 1_655 S
Mg358 O363 2.013 1_655 S
Mg358 O369 2.114 . S
Mg358 O373 2.013 . S
Mg358 O379 2.114 1_655 S
O359 Mg358 1.915 1_455 S
O359 Mg360 1.936 . S
O359 Mg361 1.954 1_456 S
Mg360 O359 1.936 . S
Mg360 O369 2.291 1_455 S
Mg360 O374 2.081 1_556 S
Mg360 O376 2.023 1_456 S
Mg360 O380 2.031 . S
Mg361 O359 1.954 1_654 S
Mg361 O365 1.973 1_654 S
Mg361 O377 1.955 1_655 S
Mg361 O378 1.962 . S
C362 O373 1.191 . S
C362 O375 1.307 . S
O363 Mg358 2.013 1_455 S
O363 C382 1.191 . S
O364 Mg355 2.081 1_655 S
O364 C372 1.331 . S
O365 Mg361 1.973 1_456 S
O365 C382 1.307 . S
O366 Mg355 2.023 . S
O366 C381 1.264 . S
O367 Mg356 1.942 . S
O367 C372 1.244 . S
O368 Mg356 1.955 1_455 S
O368 C381 1.273 . S
O369 Mg358 2.114 . S
O369 Mg360 2.291 1_655 S
O369 C371 1.312 . S
O370 Mg355 2.031 . S
O370 C371 1.208 1_455 S
C371 O369 1.312 . S
C371 O370 1.208 1_655 S
C372 O364 1.331 . S
C372 O367 1.244 . S
O373 Mg358 2.013 . S
O373 C362 1.191 . S
O374 C353 1.331 . S
O374 Mg360 2.081 1_554 S
O375 Mg356 1.986 . S
O375 C362 1.307 . S
O376 C354 1.264 . S
O376 Mg360 2.023 1_654 S
O377 C353 1.244 . S
O377 Mg361 1.955 1_455 S
O378 C354 1.273 . S
O378 Mg361 1.962 . S
O379 C352 1.312 . S
O379 Mg355 2.291 . S
O379 Mg358 2.114 1_455 S
O380 C352 1.208 . S
O380 Mg360 2.031 . S
C381 O366 1.264 . S
C381 O368 1.273 . S
C382 O363 1.191 . S
C382 O365 1.307 . S
C383 O410 1.312 . S
C383 O411 1.208 . S
C384 O405 1.331 . S
C384 O408 1.244 . S
C385 O407 1.264 . S
C385 O409 1.273 . S
Mg386 O388 1.936 . S
Mg386 O395 2.081 . S
Mg386 O397 2.023 . S
Mg386 O401 2.031 . S
Mg386 O410 2.291 . S
Mg387 O388 1.963 . S
Mg387 O398 1.942 . S
Mg387 O399 1.955 . S
Mg387 O406 1.986 . S
O388 Mg386 1.936 . S
O388 Mg387 1.963 . S
O388 Mg389 1.915 . S
Mg389 O388 1.915 . S
Mg389 O390 1.915 . S
Mg389 O394 2.013 . S
Mg389 O400 2.114 . S
Mg389 O404 2.013 . S
Mg389 O410 2.114 . S
O390 Mg389 1.915 . S
O390 Mg391 1.936 . S
O390 Mg392 1.963 . S
Mg391 O390 1.936 . S
Mg391 O400 2.291 . S
Mg391 O405 2.081 . S
Mg391 O407 2.023 . S
Mg391 O411 2.031 . S
Mg392 O390 1.963 . S
Mg392 O396 1.986 . S
Mg392 O408 1.942 . S
Mg392 O409 1.955 . S
C393 O404 1.191 . S
C393 O406 1.307 . S
O394 Mg389 2.013 . S
O394 C413 1.191 . S
O395 Mg386 2.081 . S
O395 C403 1.331 . S
O396 Mg392 1.986 . S
O396 C413 1.307 . S
O397 Mg386 2.023 . S
O397 C412 1.264 . S
O398 Mg387 1.942 . S
O398 C403 1.244 . S
O399 Mg387 1.955 . S
O399 C412 1.273 . S
O400 Mg389 2.114 . S
O400 Mg391 2.291 . S
O400 C402 1.312 . S
O401 Mg386 2.031 . S
O401 C402 1.208 . S
C402 O400 1.312 . S
C402 O401 1.208 . S
C403 O395 1.331 . S
C403 O398 1.244 . S
O404 Mg389 2.013 . S
O404 C393 1.191 . S
O405 C384 1.331 . S
O405 Mg391 2.081 . S
O406 Mg387 1.986 . S
O406 C393 1.307 . S
O407 C385 1.264 . S
O407 Mg391 2.023 . S
O408 C384 1.244 . S
O408 Mg392 1.942 . S
O409 C385 1.273 . S
O409 Mg392 1.955 . S
O410 C383 1.312 . S
O410 Mg386 2.291 . S
O410 Mg389 2.114 . S
O411 C383 1.208 . S
O411 Mg391 2.031 . S
C412 O397 1.264 . S
C412 O399 1.273 . S
C413 O394 1.191 . S
C413 O396 1.307 . S
C414 O441 1.312 . S
C414 O442 1.208 1_655 S
C415 O436 1.331 . S
C415 O439 1.244 . S
C416 O438 1.264 . S
C416 O440 1.273 . S
Mg417 O419 1.936 . S
Mg417 O426 2.081 . S
Mg417 O428 2.023 1_455 S
Mg417 O432 2.031 . S
Mg417 O441 2.291 1_455 S
Mg418 O419 1.963 1_655 S
Mg418 O429 1.942 1_655 S
Mg418 O430 1.955 . S
Mg418 O437 1.986 1_655 S
O419 Mg417 1.936 . S
O419 Mg418 1.963 1_455 S
O419 Mg420 1.915 1_455 S
Mg420 O419 1.915 1_655 S
Mg420 O421 1.915 . S
Mg420 O425 2.013 . S
Mg420 O431 2.114 1_655 S
Mg420 O435 2.013 1_655 S
Mg420 O441 2.114 . S
O421 Mg420 1.915 . S
O421 Mg422 1.936 1_655 S
O421 Mg423 1.963 . S
Mg422 O421 1.936 1_455 S
Mg422 O431 2.291 . S
Mg422 O436 2.081 1_455 S
Mg422 O438 2.023 . S
Mg422 O442 2.031 . S
Mg423 O421 1.963 . S
Mg423 O427 1.986 . S
Mg423 O439 1.942 . S
Mg423 O440 1.955 1_655 S
C424 O435 1.191 . S
C424 O437 1.307 . S
O425 Mg420 2.013 . S
O425 C444 1.191 . S
O426 Mg417 2.081 . S
O426 C434 1.331 . S
O427 Mg423 1.986 . S
O427 C444 1.307 . S
O428 Mg417 2.023 1_655 S
O428 C443 1.264 . S
O429 Mg418 1.942 1_455 S
O429 C434 1.244 . S
O430 Mg418 1.955 . S
O430 C443 1.273 . S
O431 Mg420 2.114 1_455 S
O431 Mg422 2.291 . S
O431 C433 1.312 . S
O432 Mg417 2.031 . S
O432 C433 1.208 . S
C433 O431 1.312 . S
C433 O432 1.208 . S
C434 O426 1.331 . S
C434 O429 1.244 . S
O435 Mg420 2.013 1_455 S
O435 C424 1.191 . S
O436 C415 1.331 . S
O436 Mg422 2.081 1_655 S
O437 Mg418 1.986 1_455 S
O437 C424 1.307 . S
O438 C416 1.264 . S
O438 Mg422 2.023 . S
O439 C415 1.244 . S
O439 Mg423 1.942 . S
O440 C416 1.273 . S
O440 Mg423 1.955 1_455 S
O441 C414 1.312 . S
O441 Mg417 2.291 1_655 S
O441 Mg420 2.114 . S
O442 C414 1.208 1_455 S
O442 Mg422 2.031 . S
C443 O428 1.264 . S
C443 O430 1.273 . S
C444 O425 1.191 . S
C444 O427 1.307 . S
C445 O472 1.312 . S
C445 O473 1.208 1_565 S
C446 O467 1.331 . S
C446 O470 1.244 . S
C447 O469 1.264 . S
C447 O471 1.273 . S
Mg448 O450 1.936 . S
Mg448 O457 2.081 1_655 S
Mg448 O459 2.023 1_645 S
Mg448 O463 2.031 . S
Mg448 O472 2.291 1_545 S
Mg449 O450 1.963 1_465 S
Mg449 O460 1.942 1_565 S
Mg449 O461 1.955 . S
Mg449 O468 1.986 1_465 S
O450 Mg448 1.936 . S
O450 Mg449 1.963 1_645 S
O450 Mg451 1.915 1_545 S
Mg451 O450 1.915 1_565 S
Mg451 O452 1.915 . S
Mg451 O456 2.013 . S
Mg451 O462 2.114 1_565 S
Mg451 O466 2.013 1_565 S
Mg451 O472 2.114 . S
O452 Mg451 1.915 . S
O452 Mg453 1.936 1_565 S
O452 Mg454 1.963 . S
Mg453 O452 1.936 1_545 S
Mg453 O462 2.291 . S
Mg453 O467 2.081 1_545 S
Mg453 O469 2.023 . S
Mg453 O473 2.031 . S
Mg454 O452 1.963 . S
Mg454 O458 1.986 . S
Mg454 O470 1.942 . S
Mg454 O471 1.955 1_565 S
C455 O466 1.191 . S
C455 O468 1.307 . S
O456 Mg451 2.013 . S
O456 C475 1.191 . S
O457 Mg448 2.081 1_455 S
O457 C465 1.331 . S
O458 Mg454 1.986 . S
O458 C475 1.307 . S
O459 Mg448 2.023 1_465 S
O459 C474 1.264 . S
O460 Mg449 1.942 1_545 S
O460 C465 1.244 . S
O461 Mg449 1.955 . S
O461 C474 1.273 . S
O462 Mg451 2.114 1_545 S
O462 Mg453 2.291 . S
O462 C464 1.312 . S
O463 Mg448 2.031 . S
O463 C464 1.208 . S
C464 O462 1.312 . S
C464 O463 1.208 . S
C465 O457 1.331 . S
C465 O460 1.244 . S
O466 Mg451 2.013 1_545 S
O466 C455 1.191 . S
O467 C446 1.331 . S
O467 Mg453 2.081 1_565 S
O468 Mg449 1.986 1_645 S
O468 C455 1.307 . S
O469 C447 1.264 . S
O469 Mg453 2.023 . S
O470 C446 1.244 . S
O470 Mg454 1.942 . S
O471 C447 1.273 . S
O471 Mg454 1.955 1_545 S
O472 C445 1.312 . S
O472 Mg448 2.291 1_565 S
O472 Mg451 2.114 . S
O473 C445 1.208 1_545 S
O473 Mg453 2.031 . S
C474 O459 1.264 . S
C474 O461 1.273 . S
C475 O456 1.191 . S
C475 O458 1.307 . S
C476 O503 1.312 . S
C476 O504 1.208 . S
C477 O498 1.331 . S
C477 O501 1.244 . S
C478 O500 1.264 . S
C478 O502 1.273 . S
Mg479 O481 1.936 1_554 S
Mg479 O488 2.081 1_554 S
Mg479 O490 2.023 . S
Mg479 O494 2.031 . S
Mg479 O503 2.291 . S
Mg480 O481 1.963 . S
Mg480 O491 1.942 . S
Mg480 O492 1.955 1_556 S
Mg480 O499 1.986 . S
O481 Mg479 1.936 1_556 S
O481 Mg480 1.963 . S
O481 Mg482 1.915 . S
Mg482 O481 1.915 . S
Mg482 O483 1.915 1_556 S
Mg482 O487 2.013 1_556 S
Mg482 O493 2.114 . S
Mg482 O497 2.013 . S
Mg482 O503 2.114 1_556 S
O483 Mg482 1.915 1_554 S
O483 Mg484 1.936 . S
O483 Mg485 1.963 1_564 S
Mg484 O483 1.936 . S
Mg484 O493 2.291 1_554 S
Mg484 O498 2.081 1_565 S
Mg484 O500 2.023 1_564 S
Mg484 O504 2.031 . S
Mg485 O483 1.963 1_546 S
Mg485 O489 1.986 1_546 S
Mg485 O501 1.942 1_556 S
Mg485 O502 1.955 . S
C486 O497 1.191 . S
C486 O499 1.307 . S
O487 Mg482 2.013 1_554 S
O487 C506 1.191 . S
O488 Mg479 2.081 1_556 S
O488 C496 1.331 . S
O489 Mg485 1.986 1_564 S
O489 C506 1.307 . S
O490 Mg479 2.023 . S
O490 C505 1.264 . S
O491 Mg480 1.942 . S
O491 C496 1.244 . S
O492 Mg480 1.955 1_554 S
O492 C505 1.273 . S
O493 Mg482 2.114 . S
O493 Mg484 2.291 1_556 S
O493 C495 1.312 . S
O494 Mg479 2.031 . S
O494 C495 1.208 1_554 S
C495 O493 1.312 . S
C495 O494 1.208 1_556 S
C496 O488 1.331 . S
C496 O491 1.244 . S
O497 Mg482 2.013 . S
O497 C486 1.191 . S
O498 C477 1.331 . S
O498 Mg484 2.081 1_545 S
O499 Mg480 1.986 . S
O499 C486 1.307 . S
O500 C478 1.264 . S
O500 Mg484 2.023 1_546 S
O501 C477 1.244 . S
O501 Mg485 1.942 1_554 S
O502 C478 1.273 . S
O502 Mg485 1.955 . S
O503 C476 1.312 . S
O503 Mg479 2.291 . S
O503 Mg482 2.114 1_554 S
O504 C476 1.208 . S
O504 Mg484 2.031 . S
C505 O490 1.264 . S
C505 O492 1.273 . S
C506 O487 1.191 . S
C506 O489 1.307 . S
C507 O534 1.312 . S
C507 O535 1.208 . S
C508 O529 1.331 . S
C508 O532 1.244 . S
C509 O531 1.264 . S
C509 O533 1.273 . S
Mg510 O512 1.936 . S
Mg510 O519 2.081 . S
Mg510 O521 2.023 . S
Mg510 O525 2.031 . S
Mg510 O534 2.291 . S
Mg511 O512 1.963 . S
Mg511 O522 1.942 . S
Mg511 O523 1.955 . S
Mg511 O530 1.986 . S
O512 Mg510 1.936 . S
O512 Mg511 1.963 . S
O512 Mg513 1.915 . S
Mg513 O512 1.915 . S
Mg513 O514 1.915 . S
Mg513 O518 2.013 . S
Mg513 O524 2.114 . S
Mg513 O528 2.013 . S
Mg513 O534 2.114 . S
O514 Mg513 1.915 . S
O514 Mg515 1.936 . S
O514 Mg516 1.964 . S
Mg515 O514 1.936 . S
Mg515 O524 2.291 . S
Mg515 O529 2.081 1_455 S
Mg515 O531 2.023 1_455 S
Mg515 O535 2.031 . S
Mg516 O514 1.964 . S
Mg516 O520 1.986 . S
Mg516 O532 1.942 1_455 S
Mg516 O533 1.955 1_455 S
C517 O528 1.191 . S
C517 O530 1.307 . S
O518 Mg513 2.013 . S
O518 C537 1.191 . S
O519 Mg510 2.081 . S
O519 C527 1.331 . S
O520 Mg516 1.986 . S
O520 C537 1.307 . S
O521 Mg510 2.023 . S
O521 C536 1.264 . S
O522 Mg511 1.942 . S
O522 C527 1.244 . S
O523 Mg511 1.955 . S
O523 C536 1.273 . S
O524 Mg513 2.114 . S
O524 Mg515 2.291 . S
O524 C526 1.312 . S
O525 Mg510 2.031 . S
O525 C526 1.208 . S
C526 O524 1.312 . S
C526 O525 1.208 . S
C527 O519 1.331 . S
C527 O522 1.244 . S
O528 Mg513 2.013 . S
O528 C517 1.191 . S
O529 C508 1.331 . S
O529 Mg515 2.081 1_655 S
O530 Mg511 1.986 . S
O530 C517 1.307 . S
O531 C509 1.264 . S
O531 Mg515 2.023 1_655 S
O532 C508 1.244 . S
O532 Mg516 1.942 1_655 S
O533 C509 1.273 . S
O533 Mg516 1.955 1_655 S
O534 C507 1.312 . S
O534 Mg510 2.291 . S
O534 Mg513 2.114 . S
O535 C507 1.208 . S
O535 Mg515 2.031 . S
C536 O521 1.264 . S
C536 O523 1.273 . S
C537 O518 1.191 . S
C537 O520 1.307 . S
C538 O565 1.312 . S
C538 O566 1.213 . S
C539 O560 1.331 . S
C539 O563 1.244 . S
C540 O562 1.264 . S
C540 O564 1.273 . S
Mg541 O543 1.936 . S
Mg541 O550 2.081 . S
Mg541 O552 2.023 1_556 S
Mg541 O556 2.031 . S
Mg541 O565 2.291 1_556 S
Mg542 O543 1.963 1_554 S
Mg542 O553 1.942 1_554 S
Mg542 O554 1.955 . S
Mg542 O561 1.988 . S
O543 Mg541 1.936 . S
O543 Mg542 1.963 1_556 S
O543 Mg544 1.915 1_556 S
Mg544 O543 1.915 1_554 S
Mg544 O545 1.915 . S
Mg544 O549 2.013 . S
Mg544 O555 2.114 1_554 S
Mg544 O559 2.013 1_554 S
Mg544 O565 2.114 . S
O545 Mg544 1.915 . S
O545 Mg546 1.936 1_554 S
O545 Mg547 1.963 . S
Mg546 O545 1.936 1_556 S
Mg546 O555 2.291 . S
Mg546 O560 2.081 1_556 S
Mg546 O562 2.023 . S
Mg546 O566 2.027 1_556 S
Mg547 O545 1.963 . S
Mg547 O551 1.986 . S
Mg547 O563 1.942 . S
Mg547 O564 1.955 1_554 S
C548 O559 1.191 . S
C548 O561 1.304 1_556 S
O549 Mg544 2.013 . S
O549 C568 1.191 . S
O550 Mg541 2.081 . S
O550 C558 1.331 . S
O551 Mg547 1.986 . S
O551 C568 1.307 . S
O552 Mg541 2.023 1_554 S
O552 C567 1.264 . S
O553 Mg542 1.942 1_556 S
O553 C558 1.244 . S
O554 Mg542 1.955 . S
O554 C567 1.273 . S
O555 Mg544 2.114 1_556 S
O555 Mg546 2.291 . S
O555 C557 1.312 . S
O556 Mg541 2.031 . S
O556 C557 1.208 . S
C557 O555 1.312 . S
C557 O556 1.208 . S
C558 O550 1.331 . S
C558 O553 1.244 . S
O559 Mg544 2.013 1_556 S
O559 C548 1.191 . S
O560 C539 1.331 . S
O560 Mg546 2.081 1_554 S
O561 Mg542 1.988 . S
O561 C548 1.304 1_554 S
O562 C540 1.264 . S
O562 Mg546 2.023 . S
O563 C539 1.244 . S
O563 Mg547 1.942 . S
O564 C540 1.273 . S
O564 Mg547 1.955 1_556 S
O565 C538 1.312 . S
O565 Mg541 2.291 1_554 S
O565 Mg544 2.114 . S
O566 C538 1.213 . S
O566 Mg546 2.027 1_554 S
C567 O552 1.264 . S
C567 O554 1.273 . S
C568 O549 1.191 . S
C568 O551 1.307 . S
C569 O596 1.312 . S
C569 O597 1.208 . S
C570 O591 1.331 . S
C570 O594 1.244 . S
C571 O593 1.264 . S
C571 O595 1.273 . S
Mg572 O574 1.936 . S
Mg572 O581 2.081 1_545 S
Mg572 O583 2.023 1_545 S
Mg572 O587 2.031 . S
Mg572 O596 2.291 . S
Mg573 O574 1.962 . S
Mg573 O584 1.944 1_545 S
Mg573 O585 1.956 1_545 S
Mg573 O592 1.984 . S
O574 Mg572 1.936 . S
O574 Mg573 1.962 . S
O574 Mg575 1.915 . S
Mg575 O574 1.915 . S
Mg575 O576 1.915 . S
Mg575 O580 2.013 . S
Mg575 O586 2.114 . S
Mg575 O590 2.013 . S
Mg575 O596 2.114 . S
O576 Mg575 1.915 . S
O576 Mg577 1.936 . S
O576 Mg578 1.963 . S
Mg577 O576 1.936 . S
Mg577 O586 2.291 . S
Mg577 O591 2.081 . S
Mg577 O593 2.023 . S
Mg577 O597 2.031 . S
Mg578 O576 1.963 . S
Mg578 O582 1.986 . S
Mg578 O594 1.942 . S
Mg578 O595 1.955 . S
C579 O590 1.191 . S
C579 O592 1.307 . S
O580 Mg575 2.013 . S
O580 C599 1.191 . S
O581 Mg572 2.081 1_565 S
O581 C589 1.331 . S
O582 Mg578 1.986 . S
O582 C599 1.307 . S
O583 Mg572 2.023 1_565 S
O583 C598 1.264 . S
O584 Mg573 1.944 1_565 S
O584 C589 1.244 . S
O585 Mg573 1.956 1_565 S
O585 C598 1.273 . S
O586 Mg575 2.114 . S
O586 Mg577 2.291 . S
O586 C588 1.312 . S
O587 Mg572 2.031 . S
O587 C588 1.208 . S
C588 O586 1.312 . S
C588 O587 1.208 . S
C589 O581 1.331 . S
C589 O584 1.244 . S
O590 Mg575 2.013 . S
O590 C579 1.191 . S
O591 C570 1.331 . S
O591 Mg577 2.081 . S
O592 Mg573 1.984 . S
O592 C579 1.307 . S
O593 C571 1.264 . S
O593 Mg577 2.023 . S
O594 C570 1.244 . S
O594 Mg578 1.942 . S
O595 C571 1.273 . S
O595 Mg578 1.955 . S
O596 C569 1.312 . S
O596 Mg572 2.291 . S
O596 Mg575 2.114 . S
O597 C569 1.208 . S
O597 Mg577 2.031 . S
C598 O583 1.264 . S
C598 O585 1.273 . S
C599 O580 1.191 . S
C599 O582 1.307 . S
C600 O627 1.312 . S
C600 O628 1.208 . S
C601 O622 1.331 . S
C601 O625 1.244 . S
C602 O624 1.264 . S
C602 O626 1.273 . S
Mg603 O605 1.936 . S
Mg603 O612 2.081 . S
Mg603 O614 2.023 . S
Mg603 O618 2.031 . S
Mg603 O627 2.291 . S
Mg604 O605 1.963 . S
Mg604 O615 1.942 . S
Mg604 O616 1.955 . S
Mg604 O623 1.986 . S
O605 Mg603 1.936 . S
O605 Mg604 1.963 . S
O605 Mg606 1.915 . S
Mg606 O605 1.915 . S
Mg606 O607 1.915 . S
Mg606 O611 2.013 . S
Mg606 O617 2.114 . S
Mg606 O621 2.013 . S
Mg606 O627 2.114 . S
O607 Mg606 1.915 . S
O607 Mg608 1.936 . S
O607 Mg609 1.963 . S
Mg608 O607 1.936 . S
Mg608 O617 2.291 . S
Mg608 O622 2.081 . S
Mg608 O624 2.023 . S
Mg608 O628 2.031 . S
Mg609 O607 1.963 . S
Mg609 O613 1.986 . S
Mg609 O625 1.942 . S
Mg609 O626 1.955 . S
C610 O621 1.191 . S
C610 O623 1.307 . S
O611 Mg606 2.013 . S
O611 C630 1.191 . S
O612 Mg603 2.081 . S
O612 C620 1.331 . S
O613 Mg609 1.986 . S
O613 C630 1.307 . S
O614 Mg603 2.023 . S
O614 C629 1.264 . S
O615 Mg604 1.942 . S
O615 C620 1.244 . S
O616 Mg604 1.955 . S
O616 C629 1.273 . S
O617 Mg606 2.114 . S
O617 Mg608 2.291 . S
O617 C619 1.312 . S
O618 Mg603 2.031 . S
O618 C619 1.208 . S
C619 O617 1.312 . S
C619 O618 1.208 . S
C620 O612 1.331 . S
C620 O615 1.244 . S
O621 Mg606 2.013 . S
O621 C610 1.191 . S
O622 C601 1.331 . S
O622 Mg608 2.081 . S
O623 Mg604 1.986 . S
O623 C610 1.307 . S
O624 C602 1.264 . S
O624 Mg608 2.023 . S
O625 C601 1.244 . S
O625 Mg609 1.942 . S
O626 C602 1.273 . S
O626 Mg609 1.955 . S
O627 C600 1.312 . S
O627 Mg603 2.291 . S
O627 Mg606 2.114 . S
O628 C600 1.208 . S
O628 Mg608 2.031 . S
C629 O614 1.264 . S
C629 O616 1.273 . S
C630 O611 1.191 . S
C630 O613 1.307 . S
C631 O658 1.312 . S
C631 O659 1.208 . S
C632 O653 1.331 . S
C632 O656 1.244 . S
C633 O655 1.264 . S
C633 O657 1.273 . S
Mg634 O636 1.936 . S
Mg634 O643 2.081 . S
Mg634 O645 2.023 . S
Mg634 O649 2.031 . S
Mg634 O658 2.291 . S
Mg635 O636 1.963 . S
Mg635 O646 1.942 . S
Mg635 O647 1.955 . S
Mg635 O654 1.986 . S
O636 Mg634 1.936 . S
O636 Mg635 1.963 . S
O636 Mg637 1.915 . S
Mg637 O636 1.915 . S
Mg637 O638 1.915 . S
Mg637 O642 2.013 . S
Mg637 O648 2.114 . S
Mg637 O652 2.013 . S
Mg637 O658 2.114 . S
O638 Mg637 1.915 . S
O638 Mg639 1.936 . S
O638 Mg640 1.963 . S
Mg639 O638 1.936 . S
Mg639 O648 2.291 . S
Mg639 O653 2.081 . S
Mg639 O655 2.023 . S
Mg639 O659 2.031 . S
Mg640 O638 1.963 . S
Mg640 O644 1.986 . S
Mg640 O656 1.942 . S
Mg640 O657 1.955 . S
C641 O652 1.191 . S
C641 O654 1.307 . S
O642 Mg637 2.013 . S
O642 C661 1.191 . S
O643 Mg634 2.081 . S
O643 C651 1.331 . S
O644 Mg640 1.986 . S
O644 C661 1.307 . S
O645 Mg634 2.023 . S
O645 C660 1.264 . S
O646 Mg635 1.942 . S
O646 C651 1.244 . S
O647 Mg635 1.955 . S
O647 C660 1.273 . S
O648 Mg637 2.114 . S
O648 Mg639 2.291 . S
O648 C650 1.312 . S
O649 Mg634 2.031 . S
O649 C650 1.208 . S
C650 O648 1.312 . S
C650 O649 1.208 . S
C651 O643 1.331 . S
C651 O646 1.244 . S
O652 Mg637 2.013 . S
O652 C641 1.191 . S
O653 C632 1.331 . S
O653 Mg639 2.081 . S
O654 Mg635 1.986 . S
O654 C641 1.307 . S
O655 C633 1.264 . S
O655 Mg639 2.023 . S
O656 C632 1.244 . S
O656 Mg640 1.942 . S
O657 C633 1.273 . S
O657 Mg640 1.955 . S
O658 C631 1.312 . S
O658 Mg634 2.291 . S
O658 Mg637 2.114 . S
O659 C631 1.208 . S
O659 Mg639 2.031 . S
C660 O645 1.264 . S
C660 O647 1.273 . S
C661 O642 1.191 . S
C661 O644 1.307 . S
C662 O689 1.312 . S
C662 O690 1.206 1_545 S
C663 O684 1.331 . S
C663 O687 1.244 . S
C664 O686 1.264 . S
C664 O688 1.273 . S
Mg665 O667 1.936 . S
Mg665 O674 2.081 . S
Mg665 O676 2.023 1_565 S
Mg665 O680 2.031 . S
Mg665 O689 2.291 1_565 S
Mg666 O667 1.963 1_545 S
Mg666 O677 1.942 1_545 S
Mg666 O678 1.955 . S
Mg666 O685 1.981 1_545 S
O667 Mg665 1.936 . S
O667 Mg666 1.963 1_565 S
O667 Mg668 1.915 1_565 S
Mg668 O667 1.915 1_545 S
Mg668 O669 1.915 . S
Mg668 O673 2.013 . S
Mg668 O679 2.114 1_545 S
Mg668 O683 2.013 1_545 S
Mg668 O689 2.114 . S
O669 Mg668 1.915 . S
O669 Mg670 1.936 1_545 S
O669 Mg671 1.963 . S
Mg670 O669 1.936 1_565 S
Mg670 O679 2.291 . S
Mg670 O684 2.081 1_565 S
Mg670 O686 2.023 . S
Mg670 O690 2.033 . S
Mg671 O669 1.963 . S
Mg671 O675 1.986 . S
Mg671 O687 1.942 . S
Mg671 O688 1.955 1_545 S
C672 O683 1.191 . S
C672 O685 1.313 . S
O673 Mg668 2.013 . S
O673 C692 1.191 . S
O674 Mg665 2.081 . S
O674 C682 1.331 . S
O675 Mg671 1.986 . S
O675 C692 1.307 . S
O676 Mg665 2.023 1_545 S
O676 C691 1.264 . S
O677 Mg666 1.942 1_565 S
O677 C682 1.244 . S
O678 Mg666 1.955 . S
O678 C691 1.273 . S
O679 Mg668 2.114 1_565 S
O679 Mg670 2.291 . S
O679 C681 1.312 . S
O680 Mg665 2.031 . S
O680 C681 1.208 . S
C681 O679 1.312 . S
C681 O680 1.208 . S
C682 O674 1.331 . S
C682 O677 1.244 . S
O683 Mg668 2.013 1_565 S
O683 C672 1.191 . S
O684 C663 1.331 . S
O684 Mg670 2.081 1_545 S
O685 Mg666 1.981 1_565 S
O685 C672 1.313 . S
O686 C664 1.264 . S
O686 Mg670 2.023 . S
O687 C663 1.244 . S
O687 Mg671 1.942 . S
O688 C664 1.273 . S
O688 Mg671 1.955 1_565 S
O689 C662 1.312 . S
O689 Mg665 2.291 1_545 S
O689 Mg668 2.114 . S
O690 C662 1.206 1_565 S
O690 Mg670 2.033 . S
C691 O676 1.264 . S
C691 O678 1.273 . S
C692 O673 1.191 . S
C692 O675 1.307 . S
C693 O720 1.312 . S
C693 O721 1.208 . S
C694 O715 1.331 . S
C694 O718 1.244 . S
C695 O717 1.264 . S
C695 O719 1.273 . S
Mg696 O698 1.936 . S
Mg696 O705 2.081 1_554 S
Mg696 O707 2.023 1_554 S
Mg696 O711 2.031 . S
Mg696 O720 2.291 . S
Mg697 O698 1.963 . S
Mg697 O708 1.942 1_554 S
Mg697 O709 1.955 1_554 S
Mg697 O716 1.986 . S
O698 Mg696 1.936 . S
O698 Mg697 1.963 . S
O698 Mg699 1.915 . S
Mg699 O698 1.915 . S
Mg699 O700 1.915 . S
Mg699 O704 2.013 . S
Mg699 O710 2.114 . S
Mg699 O714 2.013 . S
Mg699 O720 2.114 . S
O700 Mg699 1.915 . S
O700 Mg701 1.936 . S
O700 Mg702 1.963 . S
Mg701 O700 1.936 . S
Mg701 O710 2.291 . S
Mg701 O715 2.081 . S
Mg701 O717 2.023 . S
Mg701 O721 2.031 . S
Mg702 O700 1.963 . S
Mg702 O706 1.986 . S
Mg702 O718 1.942 . S
Mg702 O719 1.955 . S
C703 O714 1.191 . S
C703 O716 1.307 . S
O704 Mg699 2.013 . S
O704 C723 1.191 . S
O705 Mg696 2.081 1_556 S
O705 C713 1.331 . S
O706 Mg702 1.986 . S
O706 C723 1.307 . S
O707 Mg696 2.023 1_556 S
O707 C722 1.264 . S
O708 Mg697 1.942 1_556 S
O708 C713 1.244 . S
O709 Mg697 1.955 1_556 S
O709 C722 1.273 . S
O710 Mg699 2.114 . S
O710 Mg701 2.291 . S
O710 C712 1.312 . S
O711 Mg696 2.031 . S
O711 C712 1.208 . S
C712 O710 1.312 . S
C712 O711 1.208 . S
C713 O705 1.331 . S
C713 O708 1.244 . S
O714 Mg699 2.013 . S
O714 C703 1.191 . S
O715 C694 1.331 . S
O715 Mg701 2.081 . S
O716 Mg697 1.986 . S
O716 C703 1.307 . S
O717 C695 1.264 . S
O717 Mg701 2.023 . S
O718 C694 1.244 . S
O718 Mg702 1.942 . S
O719 C695 1.273 . S
O719 Mg702 1.955 . S
O720 C693 1.312 . S
O720 Mg696 2.291 . S
O720 Mg699 2.114 . S
O721 C693 1.208 . S
O721 Mg701 2.031 . S
C722 O707 1.264 . S
C722 O709 1.273 . S
C723 O704 1.191 . S
C723 O706 1.307 . S
C381 C226 1.491 . S
C384 C269 1.655 . S
C372 C250 1.382 . S
C205 C385 1.908 . S
C416 C115 1.424 . S
C136 C443 1.986 . S
C415 C158 1.297 . S
C97 C434 1.748 . S
C314 C447 1.468 . S
C336 C478 1.890 . S
C536 C180 1.472 . S
C558 C294 1.866 . S
C446 C70 1.328 . S
C477 C6 1.750 . S
C31 C527 1.345 . S
C53 C567 1.806 . S
C29 C505 1.519 . S
C571 C181 1.515 . S
C293 C602 1.833 . S
C651 C312 1.278 . S
C137 C509 1.966 . S
C570 C225 1.308 . S
C601 C270 1.668 . S
C682 C206 1.854 . S
C72 C412 1.490 . S
C4 C353 1.654 . S
C403 C30 1.383 . S
C51 C354 1.909 . S
C313 C695 1.424 . S
C334 C722 1.986 . S
C694 C182 1.297 . S
C295 C713 1.749 . S
C116 C629 1.467 . S
C633 C138 1.890 . S
C664 C159 1.472 . S
C589 C96 1.866 . S
C620 C224 1.329 . S
C268 C632 1.752 . S
C251 C663 1.345 . S
C598 C207 1.806 . S
C249 C660 1.518 . S
C540 C160 1.515 . S
C95 C474 1.834 . S
C114 C496 1.277 . S
C335 C691 1.967 . S
C71 C539 1.308 . S
C5 C465 1.667 . S
C508 C52 1.854 . S
C352 C339 2.426 . S
C402 C184 2.592 . S
C362 C290 2.031 . S
C413 C317 2.208 . S
C433 C204 2.369 . S
C228 C424 2.075 . S
C272 C444 1.975 . S
C248 C414 2.469 . S
C464 C49 2.389 . S
C506 C75 2.175 . S
C8 C507 2.408 . S
C538 C26 2.452 . S
C140 C475 1.998 . S
C495 C162 2.492 . S
C517 C94 2.008 . S
C117 C548 2.224 . S
C476 C93 2.300 . S
C7 C588 2.337 . S
C27 C630 2.202 . S
C48 C641 2.098 . S
C537 C227 2.209 . S
C599 C337 2.069 . S
C183 C619 2.456 . S
C662 C316 2.474 . S
C383 C141 2.427 . S
C161 C371 2.593 . S
C92 C393 2.030 . S
C119 C382 2.206 . S
C712 C50 2.370 . S
C703 C74 2.075 . S
C9 C723 1.974 . S
C28 C693 2.468 . S
C203 C600 2.391 . S
C661 C229 2.176 . S
C681 C271 2.408 . S
C246 C569 2.452 . S
C610 C338 1.997 . S
C185 C650 2.491 . S
C692 C292 2.008 . S
C315 C579 2.224 . S
C291 C631 2.301 . S
C273 C557 2.337 . S
C455 C247 2.201 . S
C202 C486 2.100 . S
C73 C672 2.209 . S
C139 C568 2.069 . S
C445 C163 2.457 . S
C118 C526 2.473 . S
