# Generated by pormake.
# Topology apo, (3,6)-cn, num edge types: 1
# Building blocks:
#     Node 0, Type 0, BuildingBlock: WUSLED_clean_sbu_0, # of connection points: 3
#     Node 1, Type 0, BuildingBlock: WUSLED_clean_sbu_0, # of connection points: 3
#     Node 2, Type 0, BuildingBlock: WUSLED_clean_sbu_0, # of connection points: 3
#     Node 3, Type 0, BuildingBlock: WUSLED_clean_sbu_0, # of connection points: 3
#     Node 4, Type 0, BuildingBlock: WUSLED_clean_sbu_0, # of connection points: 3
#     Node 5, Type 0, BuildingBlock: WUSLED_clean_sbu_0, # of connection points: 3
#     Node 6, Type 0, BuildingBlock: WUSLED_clean_sbu_0, # of connection points: 3
#     Node 7, Type 0, BuildingBlock: WUSLED_clean_sbu_0, # of connection points: 3
#     Node 8, Type 1, BuildingBlock: KUMBUR_clean_sbu_1, # of connection points: 6
#     Node 9, Type 1, BuildingBlock: KUMBUR_clean_sbu_1, # of connection points: 6
#     Node 10, Type 1, BuildingBlock: KUMBUR_clean_sbu_1, # of connection points: 6
#     Node 11, Type 1, BuildingBlock: KUMBUR_clean_sbu_1, # of connection points: 6
#     Edge 12, Type (0, 1), BuildingBlock: UVAHIK_clean_linker_0, # of connection points: 2
#     Edge 13, Type (0, 1), BuildingBlock: UVAHIK_clean_linker_0, # of connection points: 2
#     Edge 14, Type (0, 1), BuildingBlock: UVAHIK_clean_linker_0, # of connection points: 2
#     Edge 15, Type (0, 1), BuildingBlock: UVAHIK_clean_linker_0, # of connection points: 2
#     Edge 16, Type (0, 1), BuildingBlock: UVAHIK_clean_linker_0, # of connection points: 2
#     Edge 17, Type (0, 1), BuildingBlock: UVAHIK_clean_linker_0, # of connection points: 2
#     Edge 18, Type (0, 1), BuildingBlock: UVAHIK_clean_linker_0, # of connection points: 2
#     Edge 19, Type (0, 1), BuildingBlock: UVAHIK_clean_linker_0, # of connection points: 2
#     Edge 20, Type (0, 1), BuildingBlock: UVAHIK_clean_linker_0, # of connection points: 2
#     Edge 21, Type (0, 1), BuildingBlock: UVAHIK_clean_linker_0, # of connection points: 2
#     Edge 22, Type (0, 1), BuildingBlock: UVAHIK_clean_linker_0, # of connection points: 2
#     Edge 23, Type (0, 1), BuildingBlock: UVAHIK_clean_linker_0, # of connection points: 2
#     Edge 24, Type (0, 1), BuildingBlock: UVAHIK_clean_linker_0, # of connection points: 2
#     Edge 25, Type (0, 1), BuildingBlock: UVAHIK_clean_linker_0, # of connection points: 2
#     Edge 26, Type (0, 1), BuildingBlock: UVAHIK_clean_linker_0, # of connection points: 2
#     Edge 27, Type (0, 1), BuildingBlock: UVAHIK_clean_linker_0, # of connection points: 2
#     Edge 28, Type (0, 1), BuildingBlock: UVAHIK_clean_linker_0, # of connection points: 2
#     Edge 29, Type (0, 1), BuildingBlock: UVAHIK_clean_linker_0, # of connection points: 2
#     Edge 30, Type (0, 1), BuildingBlock: UVAHIK_clean_linker_0, # of connection points: 2
#     Edge 31, Type (0, 1), BuildingBlock: UVAHIK_clean_linker_0, # of connection points: 2
#     Edge 32, Type (0, 1), BuildingBlock: UVAHIK_clean_linker_0, # of connection points: 2
#     Edge 33, Type (0, 1), BuildingBlock: UVAHIK_clean_linker_0, # of connection points: 2
#     Edge 34, Type (0, 1), BuildingBlock: UVAHIK_clean_linker_0, # of connection points: 2
#     Edge 35, Type (0, 1), BuildingBlock: UVAHIK_clean_linker_0, # of connection points: 2
# Relax obj value: 0.010
# Max RMSD: 0.089
# Mean RMSD: 0.069
data_MOF--net-apo--node1-WUSLED_clean_sbu_0--node2-KUMBUR_clean_sbu_1--edge1-UVAHIK_clean_linker_0
_symmetry_space_group_name_H-M    P1
_symmetry_Int_Tables_number       1
_symmetry_cell_setting            triclinic
loop_
_symmetry_equiv_pos_as_xyz
'x, y, z'
_cell_length_a     38.312006
_cell_length_b     68.086994
_cell_length_c     79.309456
_cell_angle_alpha  90.235604
_cell_angle_beta   90.025366
_cell_angle_gamma 90.124847
loop_
_atom_site_label
_atom_site_type_symbol
_atom_site_fract_x
_atom_site_fract_y
_atom_site_fract_z
_atom_type_partial_charge
C0 C 0.30944 0.41809 0.38704 0.0
C1 C 0.33841 0.4279 0.39396 0.0
C2 C 0.33501 0.4528 0.37197 0.0
C3 C 0.35115 0.44507 0.38645 0.0
C4 C 0.30563 0.44305 0.3653 0.0
C5 C 0.29304 0.42586 0.37276 0.0
U6 U 0.29806 0.38129 0.42333 0.0
O7 O 0.25239 0.36332 0.43002 0.0
O8 O 0.3013 0.34897 0.42258 0.0
C9 C 0.26795 0.34675 0.42597 0.0
C10 C 0.29642 0.39953 0.39419 0.0
C11 C 0.24856 0.3334 0.41457 0.0
C12 C 0.20596 0.3275 0.39229 0.0
C13 C 0.22426 0.34051 0.40281 0.0
C14 C 0.23646 0.30012 0.40487 0.0
C15 C 0.21174 0.3071 0.39319 0.0
C16 C 0.25454 0.31312 0.41545 0.0
C17 C 0.33731 0.39367 0.46702 0.0
C18 C 0.32862 0.37463 0.49258 0.0
C19 C 0.36681 0.40302 0.49298 0.0
C20 C 0.35996 0.40615 0.47589 0.0
C21 C 0.35107 0.3873 0.50161 0.0
C22 C 0.32178 0.3778 0.47542 0.0
C23 C 0.32993 0.3978 0.44915 0.0
O24 O 0.32029 0.38652 0.3982 0.0
O25 O 0.27161 0.40114 0.40555 0.0
O26 O 0.29707 0.40105 0.44533 0.0
O27 O 0.34596 0.38661 0.43806 0.0
H28 H 0.35132 0.42219 0.40506 0.0
H29 H 0.37356 0.45234 0.39202 0.0
H30 H 0.29282 0.44845 0.35407 0.0
H31 H 0.27069 0.41848 0.36723 0.0
H32 H 0.18689 0.33344 0.38363 0.0
H33 H 0.21926 0.35611 0.4018 0.0
H34 H 0.24219 0.28459 0.40574 0.0
H35 H 0.27333 0.30732 0.42434 0.0
H36 H 0.3158 0.36249 0.49883 0.0
H37 H 0.38468 0.41287 0.49941 0.0
H38 H 0.37229 0.41844 0.46959 0.0
H39 H 0.30416 0.368 0.46876 0.0
C40 C 0.20076 0.15245 0.96898 0.0
C41 C 0.17928 0.13691 0.97426 0.0
C42 C 0.17731 0.15061 1.00278 0.0
C43 C 0.16768 0.13599 0.99102 0.0
C44 C 0.19913 0.16601 0.99736 0.0
C45 C 0.21067 0.16691 0.98065 0.0
U46 U 0.20783 0.13329 0.92343 0.0
O47 O 0.2039 0.14945 0.89953 0.0
O48 O 0.25241 0.1341 0.90592 0.0
C49 C 0.23627 0.14562 0.89519 0.0
C50 C 0.21284 0.15402 0.95139 0.0
C51 C 0.2566 0.16222 0.88845 0.0
C52 C 0.28636 0.19365 0.89157 0.0
C53 C 0.2673 0.17806 0.8986 0.0
C54 C 0.28396 0.17767 0.86426 0.0
C55 C 0.29502 0.19363 0.87428 0.0
C56 C 0.26508 0.16216 0.87129 0.0
C57 C 0.16438 0.08456 0.91049 0.0
C58 C 0.17989 0.06226 0.88759 0.0
C59 C 0.12086 0.06251 0.89846 0.0
C60 C 0.1302 0.07716 0.91003 0.0
C61 C 0.1456 0.05482 0.88712 0.0
C62 C 0.18916 0.07706 0.8991 0.0
C63 C 0.17343 0.09986 0.92307 0.0
O64 O 0.2364 0.14114 0.94661 0.0
O65 O 0.18835 0.15679 0.94004 0.0
O66 O 0.15829 0.11698 0.921 0.0
O67 O 0.20652 0.10133 0.92735 0.0
H68 H 0.17131 0.12561 0.9654 0.0
H69 H 0.1507 0.12401 0.99469 0.0
H70 H 0.2076 0.17734 1.00608 0.0
H71 H 0.22736 0.17896 0.97683 0.0
H72 H 0.29464 0.20559 0.89971 0.0
H73 H 0.26094 0.17835 0.91191 0.0
H74 H 0.28941 0.17725 0.85087 0.0
H75 H 0.25687 0.15011 0.86323 0.0
H76 H 0.19946 0.05681 0.87891 0.0
H77 H 0.09435 0.05695 0.89858 0.0
H78 H 0.11068 0.08267 0.91872 0.0
H79 H 0.21569 0.08259 0.89909 0.0
C80 C 0.81488 0.09812 0.64082 0.0
C81 C 0.80519 0.07967 0.63424 0.0
C82 C 0.84069 0.06317 0.65542 0.0
C83 C 0.81791 0.06238 0.64151 0.0
C84 C 0.85069 0.08165 0.66178 0.0
C85 C 0.83783 0.0989 0.6546 0.0
U86 U 0.7963 0.13614 0.60578 0.0
O87 O 0.74919 0.15387 0.60154 0.0
O88 O 0.79887 0.16841 0.60745 0.0
C89 C 0.76509 0.17047 0.60524 0.0
C90 C 0.80017 0.11668 0.63426 0.0
C91 C 0.74724 0.18307 0.61765 0.0
C92 C 0.72316 0.18864 0.64564 0.0
C93 C 0.74049 0.17648 0.63408 0.0
C94 C 0.71947 0.21413 0.6245 0.0
C95 C 0.7123 0.20762 0.64098 0.0
C96 C 0.73673 0.20196 0.61297 0.0
C97 C 0.82868 0.12709 0.56018 0.0
C98 C 0.85324 0.14817 0.53841 0.0
C99 C 0.82333 0.11818 0.5305 0.0
C100 C 0.81689 0.11421 0.54752 0.0
C101 C 0.84203 0.13507 0.52574 0.0
C102 C 0.84658 0.14427 0.55544 0.0
C103 C 0.82407 0.12161 0.57813 0.0
O104 O 0.82294 0.13017 0.62983 0.0
O105 O 0.7735 0.11533 0.62386 0.0
O106 O 0.79205 0.11758 0.583 0.0
O107 O 0.84182 0.13183 0.58934 0.0
H108 H 0.78753 0.07857 0.62361 0.0
H109 H 0.80997 0.04838 0.63621 0.0
H110 H 0.86779 0.0828 0.67262 0.0
H111 H 0.84544 0.11291 0.66001 0.0
H112 H 0.71779 0.18306 0.65814 0.0
H113 H 0.74844 0.1619 0.63791 0.0
H114 H 0.71206 0.22874 0.62054 0.0
H115 H 0.74189 0.20733 0.60037 0.0
H116 H 0.86732 0.16144 0.53517 0.0
H117 H 0.81464 0.10768 0.52109 0.0
H118 H 0.80328 0.1008 0.55083 0.0
H119 H 0.85597 0.15455 0.56487 0.0
C120 C 0.70075 0.36047 0.05991 0.0
C121 C 0.68266 0.37693 0.0539 0.0
C122 C 0.67969 0.36228 0.02574 0.0
C123 C 0.67228 0.37785 0.03694 0.0
C124 C 0.69803 0.34591 0.03191 0.0
C125 C 0.70841 0.34504 0.04879 0.0
U126 U 0.70445 0.37912 0.10579 0.0
O127 O 0.70049 0.36254 0.12944 0.0
O128 O 0.74837 0.37901 0.12377 0.0
C129 C 0.73245 0.36696 0.13417 0.0
C130 C 0.71184 0.35896 0.07767 0.0
C131 C 0.75355 0.35078 0.14103 0.0
C132 C 0.77385 0.31692 0.14075 0.0
C133 C 0.75497 0.33223 0.13325 0.0
C134 C 0.79036 0.33866 0.16365 0.0
C135 C 0.79166 0.31994 0.15611 0.0
C136 C 0.77154 0.35387 0.15619 0.0
C137 C 0.65922 0.42654 0.11938 0.0
C138 C 0.67266 0.44508 0.14489 0.0
C139 C 0.61731 0.44985 0.13075 0.0
C140 C 0.62681 0.43599 0.11852 0.0
C141 C 0.64015 0.45461 0.14406 0.0
C142 C 0.68203 0.43108 0.13273 0.0
C143 C 0.66856 0.41193 0.10634 0.0
O144 O 0.73447 0.3722 0.08287 0.0
O145 O 0.68688 0.35557 0.08865 0.0
O146 O 0.6541 0.39453 0.10803 0.0
O147 O 0.70174 0.41108 0.10217 0.0
H148 H 0.67646 0.38899 0.06232 0.0
H149 H 0.65796 0.3906 0.03267 0.0
H150 H 0.70473 0.33381 0.02363 0.0
H151 H 0.72248 0.33225 0.05318 0.0
H152 H 0.77457 0.30276 0.1345 0.0
H153 H 0.74127 0.32955 0.12151 0.0
H154 H 0.80321 0.34148 0.17559 0.0
H155 H 0.77057 0.36805 0.16243 0.0
H156 H 0.69066 0.44828 0.15508 0.0
H157 H 0.59225 0.45707 0.12964 0.0
H158 H 0.60883 0.43268 0.10834 0.0
H159 H 0.70706 0.42382 0.13376 0.0
C160 C 0.70349 0.59417 0.6413 0.0
C161 C 0.66924 0.58794 0.63776 0.0
C162 C 0.67535 0.56067 0.65743 0.0
C163 C 0.65528 0.5714 0.6458 0.0
C164 C 0.70984 0.56675 0.66065 0.0
C165 C 0.72368 0.58334 0.65271 0.0
U166 U 0.71996 0.62996 0.60449 0.0
O167 O 0.71957 0.66225 0.60447 0.0
O168 O 0.76782 0.64649 0.59836 0.0
C169 C 0.75328 0.66357 0.60159 0.0
C170 C 0.71832 0.61224 0.63387 0.0
C171 C 0.77289 0.67662 0.6131 0.0
C172 C 0.7876 0.68784 0.6414 0.0
C173 C 0.76962 0.67493 0.63066 0.0
C174 C 0.81291 0.70401 0.61715 0.0
C175 C 0.80936 0.70262 0.63478 0.0
C176 C 0.7948 0.69115 0.60644 0.0
C177 C 0.68088 0.61702 0.56059 0.0
C178 C 0.68533 0.63645 0.53496 0.0
C179 C 0.65316 0.60579 0.53473 0.0
C180 C 0.661 0.6031 0.55176 0.0
C181 C 0.66499 0.62255 0.52608 0.0
C182 C 0.69315 0.63372 0.5521 0.0
C183 C 0.688 0.61361 0.57861 0.0
O184 O 0.74363 0.60975 0.6229 0.0
O185 O 0.696 0.62592 0.62942 0.0
O186 O 0.67245 0.62551 0.58931 0.0
O187 O 0.72054 0.60982 0.58269 0.0
H188 H 0.65314 0.59596 0.62893 0.0
H189 H 0.62879 0.56698 0.64287 0.0
H190 H 0.72589 0.55897 0.66966 0.0
H191 H 0.7501 0.5879 0.65567 0.0
H192 H 0.78461 0.68618 0.6549 0.0
H193 H 0.75299 0.6637 0.63606 0.0
H194 H 0.8291 0.71533 0.61161 0.0
H195 H 0.79764 0.69269 0.59292 0.0
H196 H 0.6947 0.64956 0.52873 0.0
H197 H 0.63806 0.59459 0.52828 0.0
H198 H 0.65145 0.59006 0.55807 0.0
H199 H 0.70856 0.64465 0.55874 0.0
C200 C 0.80865 0.86536 0.05933 0.0
C201 C 0.8241 0.88319 0.05454 0.0
C202 C 0.83154 0.87095 0.02579 0.0
C203 C 0.83542 0.88597 0.03793 0.0
C204 C 0.81602 0.8531 0.03073 0.0
C205 C 0.8047 0.85036 0.04733 0.0
U206 U 0.80144 0.88221 0.10509 0.0
O207 O 0.75812 0.88006 0.1232 0.0
O208 O 0.80807 0.86568 0.12869 0.0
C209 C 0.77543 0.86828 0.1333 0.0
C210 C 0.7969 0.86216 0.07678 0.0
C211 C 0.75678 0.85076 0.13978 0.0
C212 C 0.70425 0.83074 0.14252 0.0
C213 C 0.72238 0.84623 0.13489 0.0
C214 C 0.75476 0.82372 0.15978 0.0
C215 C 0.72004 0.81945 0.15525 0.0
C216 C 0.7728 0.83922 0.1522 0.0
C217 C 0.84225 0.9319 0.1175 0.0
C218 C 0.82877 0.95196 0.14212 0.0
C219 C 0.88261 0.9573 0.1268 0.0
C220 C 0.87367 0.94221 0.1156 0.0
C221 C 0.86016 0.96252 0.14013 0.0
C222 C 0.81993 0.93676 0.13093 0.0
C223 C 0.83335 0.91639 0.10518 0.0
O224 O 0.82192 0.85956 0.08789 0.0
O225 O 0.77229 0.87406 0.08218 0.0
O226 O 0.80006 0.91421 0.10157 0.0
O227 O 0.84981 0.89963 0.10705 0.0
H228 H 0.82736 0.89495 0.06365 0.0
H229 H 0.84683 0.89997 0.03455 0.0
H230 H 0.81307 0.84111 0.02182 0.0
H231 H 0.79299 0.83646 0.05083 0.0
H232 H 0.67745 0.82803 0.13882 0.0
H233 H 0.70912 0.85491 0.12544 0.0
H234 H 0.76802 0.81516 0.1693 0.0
H235 H 0.79919 0.84244 0.1563 0.0
H236 H 0.81072 0.95565 0.15213 0.0
H237 H 0.90731 0.96478 0.12506 0.0
H238 H 0.89134 0.93861 0.10539 0.0
H239 H 0.79557 0.92893 0.13269 0.0
C240 C 0.19571 0.91524 0.38755 0.0
C241 C 0.17148 0.92721 0.39596 0.0
C242 C 0.17191 0.9503 0.37245 0.0
C243 C 0.1596 0.94459 0.38845 0.0
C244 C 0.19638 0.93824 0.36421 0.0
C245 C 0.20811 0.92092 0.37168 0.0
U246 U 0.20987 0.87874 0.42412 0.0
O247 O 0.20544 0.84652 0.42376 0.0
O248 O 0.25597 0.86038 0.42919 0.0
C249 C 0.2391 0.84393 0.4261 0.0
C250 C 0.20815 0.89665 0.39482 0.0
C251 C 0.25641 0.83024 0.41433 0.0
C252 C 0.26732 0.818 0.38595 0.0
C253 C 0.25083 0.8313 0.39686 0.0
C254 C 0.29552 0.80264 0.40981 0.0
C255 C 0.28985 0.80344 0.39228 0.0
C256 C 0.27893 0.81588 0.4207 0.0
C257 C 0.17902 0.89104 0.46948 0.0
C258 C 0.14836 0.87481 0.49253 0.0
C259 C 0.1934 0.89871 0.49874 0.0
C260 C 0.19875 0.90153 0.48145 0.0
C261 C 0.16792 0.88544 0.50454 0.0
C262 C 0.15379 0.87759 0.47523 0.0
C263 C 0.18338 0.89535 0.45123 0.0
O264 O 0.23455 0.89805 0.40534 0.0
O265 O 0.18395 0.88428 0.39985 0.0
O266 O 0.16483 0.88483 0.44053 0.0
O267 O 0.21545 0.89857 0.44599 0.0
H268 H 0.16169 0.9231 0.40826 0.0
H269 H 0.14103 0.95362 0.39522 0.0
H270 H 0.20603 0.94199 0.35179 0.0
H271 H 0.22674 0.91183 0.36498 0.0
H272 H 0.262 0.81897 0.37257 0.0
H273 H 0.2336 0.84233 0.39168 0.0
H274 H 0.31313 0.79191 0.41515 0.0
H275 H 0.28376 0.81492 0.43413 0.0
H276 H 0.12817 0.86467 0.49648 0.0
H277 H 0.20935 0.90695 0.50756 0.0
H278 H 0.21813 0.91214 0.47745 0.0
H279 H 0.13777 0.86941 0.4664 0.0
C280 C 0.31438 0.65978 0.96749 0.0
C281 C 0.31548 0.64236 0.97691 0.0
C282 C 0.33747 0.66037 1.00144 0.0
C283 C 0.32682 0.64266 0.99372 0.0
C284 C 0.33679 0.6777 0.9918 0.0
C285 C 0.3253 0.67739 0.97505 0.0
U286 U 0.30415 0.63659 0.92353 0.0
O287 O 0.25915 0.6364 0.90621 0.0
O288 O 0.30854 0.65003 0.89845 0.0
C289 C 0.27579 0.6464 0.89456 0.0
C290 C 0.30175 0.66006 0.94988 0.0
C291 C 0.25637 0.66258 0.88666 0.0
C292 C 0.23673 0.69651 0.88575 0.0
C293 C 0.25435 0.6813 0.89405 0.0
C294 C 0.22273 0.6743 0.86278 0.0
C295 C 0.22096 0.69323 0.86991 0.0
C296 C 0.24025 0.65918 0.87106 0.0
C297 C 0.34264 0.58628 0.91379 0.0
C298 C 0.33456 0.57062 0.88645 0.0
C299 C 0.37203 0.55559 0.90733 0.0
C300 C 0.3649 0.57098 0.91854 0.0
C301 C 0.35699 0.55521 0.89113 0.0
C302 C 0.32748 0.58603 0.89768 0.0
C303 C 0.33594 0.60255 0.92562 0.0
O304 O 0.326 0.66128 0.93821 0.0
O305 O 0.27677 0.64752 0.94604 0.0
O306 O 0.3031 0.60516 0.92985 0.0
O307 O 0.35224 0.61904 0.92218 0.0
H308 H 0.30733 0.62854 0.97132 0.0
H309 H 0.32664 0.62906 1.00075 0.0
H310 H 0.34543 0.69154 0.99714 0.0
H311 H 0.32489 0.69098 0.96799 0.0
H312 H 0.23608 0.71093 0.89156 0.0
H313 H 0.26668 0.68419 0.9061 0.0
H314 H 0.21037 0.67112 0.85079 0.0
H315 H 0.24144 0.64479 0.86519 0.0
H316 H 0.32221 0.57071 0.87417 0.0
H317 H 0.38984 0.54416 0.91128 0.0
H318 H 0.37698 0.57101 0.9309 0.0
H319 H 0.31023 0.59776 0.8938 0.0
Tb320 Tb 0.04541 0.1471 0.25084 0.0
C321 C 0.90528 0.112 0.27369 0.0
N322 N 0.91406 0.13109 0.27124 0.0
C323 C 0.86143 0.13611 0.25547 0.0
C324 C 0.87489 0.1039 0.26646 0.0
C325 C 0.89206 0.14341 0.26284 0.0
C326 C 0.85303 0.1162 0.2571 0.0
C327 C 0.91802 0.0811 0.28726 0.0
C328 C 0.92658 0.10084 0.28387 0.0
C329 C 0.88873 0.07256 0.27942 0.0
C330 C 0.86715 0.08397 0.26906 0.0
Tb331 Tb 0.96459 0.14167 0.2835 0.0
N332 N 0.95418 0.1098 0.29143 0.0
C333 C 0.93828 0.07085 0.29895 0.0
C334 C 0.97163 0.10044 0.30409 0.0
C335 C 0.96476 0.08071 0.30768 0.0
H336 H 0.8984 0.15881 0.26166 0.0
H337 H 0.97941 0.07324 0.3174 0.0
H338 H 0.10462 0.11581 0.26715 0.0
H339 H 0.05781 0.22362 0.23534 0.0
H340 H 0.99039 0.10826 0.31174 0.0
H341 H 0.93264 0.05565 0.30192 0.0
H342 H 0.03112 0.19047 0.23433 0.0
H343 H 0.84436 0.14582 0.24855 0.0
H344 H 0.88193 0.05735 0.28171 0.0
H345 H 0.84415 0.07735 0.26344 0.0
H346 H 0.15769 0.11822 0.28435 0.0
H347 H 0.82937 0.11057 0.25134 0.0
H348 H 0.11055 0.22952 0.25273 0.0
N349 N 0.09703 0.14682 0.26566 0.0
C350 C 0.11241 0.16466 0.26796 0.0
C351 C 0.14486 0.13145 0.28009 0.0
C352 C 0.14381 0.16669 0.27708 0.0
C353 C 0.11406 0.13019 0.27066 0.0
C354 C 0.15946 0.14981 0.2836 0.0
N355 N 0.06769 0.17814 0.2514 0.0
C356 C 0.05392 0.19304 0.24205 0.0
C357 C 0.1138 0.19938 0.26123 0.0
C358 C 0.09769 0.18081 0.26024 0.0
C359 C 0.09893 0.215 0.25233 0.0
C360 C 0.06909 0.21175 0.24253 0.0
H361 H 0.18358 0.15072 0.2907 0.0
H362 H 0.18312 0.18723 0.28598 0.0
H363 H 0.15684 0.21588 0.27203 0.0
O364 O 0.03957 0.14914 0.2244 0.0
O365 O 0.03163 0.17043 0.26907 0.0
O366 O 0.01443 0.15342 0.29232 0.0
O367 O 0.0864 0.13764 0.23515 0.0
O368 O 0.99491 0.1587 0.24243 0.0
O369 O 0.96389 0.16737 0.26666 0.0
O370 O 0.93906 0.14008 0.30706 0.0
O371 O 0.96 0.13027 0.25751 0.0
O372 O 0.01515 0.1198 0.25061 0.0
O373 O 0.93949 0.16681 0.29293 0.0
O374 O 0.01585 0.12972 0.29095 0.0
O375 O 0.04343 0.12015 0.26626 0.0
C376 C 0.03047 0.16842 0.28551 0.0
C377 C 0.09202 0.15479 0.20943 0.0
C378 C 0.10881 0.16298 0.18047 0.0
C379 C 0.13168 0.17738 0.18688 0.0
C380 C 0.11563 0.16899 0.21542 0.0
C381 C 0.13507 0.18029 0.20421 0.0
C382 C 0.08891 0.1517 0.19189 0.0
C383 C 0.97112 0.16927 0.25041 0.0
C384 C 0.07102 0.143 0.22133 0.0
C385 C 0.15918 0.18535 0.27887 0.0
C386 C 0.14428 0.20166 0.27089 0.0
C387 C 0.98104 0.1179 0.24986 0.0
C388 C 0.94389 0.16958 0.32269 0.0
C389 C 0.94403 0.17341 0.35347 0.0
C390 C 0.96684 0.18952 0.35175 0.0
C391 C 0.96674 0.1857 0.32143 0.0
C392 C 0.93251 0.16355 0.33877 0.0
C393 C 0.97808 0.19555 0.33587 0.0
C394 C 0.03684 0.11791 0.28249 0.0
C395 C 0.93248 0.15876 0.30739 0.0
H396 H 0.14764 0.18611 0.17848 0.0
H397 H 0.11943 0.17124 0.22877 0.0
H398 H 0.15314 0.19122 0.20899 0.0
H399 H 0.07098 0.14063 0.18717 0.0
H400 H 0.97574 0.19766 0.36269 0.0
H401 H 0.97599 0.19072 0.30929 0.0
H402 H 0.91525 0.15098 0.33982 0.0
H403 H 0.99567 0.20794 0.33474 0.0
Tb404 Tb 0.46261 0.36977 0.75089 0.0
C405 C 0.60284 0.40347 0.77377 0.0
N406 N 0.59428 0.38436 0.7712 0.0
C407 C 0.64664 0.37958 0.75517 0.0
C408 C 0.63292 0.41172 0.76644 0.0
C409 C 0.61629 0.37213 0.76262 0.0
C410 C 0.65476 0.39953 0.75688 0.0
C411 C 0.58984 0.43433 0.78755 0.0
C412 C 0.58157 0.41453 0.78411 0.0
C413 C 0.61877 0.44302 0.7796 0.0
C414 C 0.64034 0.43171 0.76909 0.0
Tb415 Tb 0.54407 0.37355 0.78351 0.0
N416 N 0.55426 0.40544 0.79174 0.0
C417 C 0.56965 0.4445 0.79939 0.0
C418 C 0.537 0.41471 0.80457 0.0
C419 C 0.54359 0.43451 0.80821 0.0
H420 H 0.61014 0.35672 0.76136 0.0
H421 H 0.52902 0.44192 0.81803 0.0
H422 H 0.40501 0.40252 0.76632 0.0
H423 H 0.44516 0.29298 0.73664 0.0
H424 H 0.51851 0.40684 0.81225 0.0
H425 H 0.57506 0.45975 0.80238 0.0
H426 H 0.47311 0.32573 0.7345 0.0
H427 H 0.66371 0.36995 0.74809 0.0
H428 H 0.62531 0.45828 0.78191 0.0
H429 H 0.66307 0.43845 0.76337 0.0
H430 H 0.35226 0.40169 0.78392 0.0
H431 H 0.67819 0.40528 0.75104 0.0
H432 H 0.39358 0.28843 0.75505 0.0
N433 N 0.41112 0.37137 0.76572 0.0
C434 C 0.39511 0.35389 0.76863 0.0
C435 C 0.3644 0.38809 0.77997 0.0
C436 C 0.36405 0.3527 0.7781 0.0
C437 C 0.39489 0.38847 0.77028 0.0
C438 C 0.34928 0.3701 0.78421 0.0
N439 N 0.43828 0.33918 0.75186 0.0
C440 C 0.45069 0.32376 0.74256 0.0
C441 C 0.392 0.31894 0.76283 0.0
C442 C 0.40874 0.33725 0.76115 0.0
C443 C 0.40569 0.30278 0.7541 0.0
C444 C 0.43485 0.30528 0.74372 0.0
H445 H 0.32544 0.36985 0.79155 0.0
H446 H 0.32451 0.33308 0.78804 0.0
H447 H 0.34908 0.30346 0.77467 0.0
O448 O 0.46885 0.36813 0.72445 0.0
O449 O 0.47717 0.34602 0.7683 0.0
O450 O 0.49474 0.36116 0.79256 0.0
O451 O 0.4218 0.37937 0.7352 0.0
O452 O 0.51225 0.3573 0.74209 0.0
O453 O 0.54468 0.34837 0.76585 0.0
O454 O 0.57066 0.375 0.80704 0.0
O455 O 0.54803 0.38502 0.75759 0.0
O456 O 0.49363 0.39685 0.7511 0.0
O457 O 0.56847 0.34792 0.79235 0.0
O458 O 0.49299 0.38522 0.79147 0.0
O459 O 0.46617 0.39614 0.76708 0.0
C460 C 0.47709 0.3473 0.78478 0.0
C461 C 0.41669 0.36256 0.70918 0.0
C462 C 0.39975 0.35519 0.68002 0.0
C463 C 0.37716 0.34048 0.68605 0.0
C464 C 0.39344 0.34804 0.71481 0.0
C465 C 0.37407 0.33699 0.7033 0.0
C466 C 0.41962 0.36618 0.69175 0.0
C467 C 0.53628 0.34654 0.74969 0.0
C468 C 0.43742 0.37423 0.72136 0.0
C469 C 0.34813 0.33432 0.78062 0.0
C470 C 0.36205 0.31746 0.77296 0.0
C471 C 0.52785 0.39825 0.75056 0.0
C472 C 0.60055 0.34635 0.81879 0.0
C473 C 0.6195 0.34163 0.84801 0.0
C474 C 0.63907 0.32526 0.84274 0.0
C475 C 0.62017 0.32988 0.81395 0.0
C476 C 0.60065 0.35239 0.83585 0.0
C477 C 0.63947 0.31952 0.82585 0.0
C478 C 0.47205 0.39736 0.78345 0.0
C479 C 0.57946 0.35664 0.80598 0.0
H480 H 0.36115 0.33197 0.67744 0.0
H481 H 0.38985 0.34536 0.7281 0.0
H482 H 0.35624 0.32582 0.70778 0.0
H483 H 0.43735 0.37747 0.68735 0.0
H484 H 0.65423 0.31689 0.85172 0.0
H485 H 0.62065 0.32502 0.80093 0.0
H486 H 0.5852 0.36493 0.83974 0.0
H487 H 0.65464 0.30689 0.82198 0.0
Tb488 Tb 0.0421 0.87203 0.747 0.0
C489 C 0.88625 0.85599 0.77108 0.0
N490 N 0.90607 0.87256 0.77144 0.0
C491 C 0.85657 0.89156 0.76266 0.0
C492 C 0.85104 0.85645 0.76591 0.0
C493 C 0.89122 0.89039 0.76813 0.0
C494 C 0.83651 0.87449 0.76132 0.0
C495 C 0.88102 0.8212 0.77712 0.0
C496 C 0.90094 0.83861 0.77661 0.0
C497 C 0.84623 0.82145 0.77153 0.0
C498 C 0.83129 0.83903 0.76591 0.0
Tb499 Tb 0.9624 0.86845 0.78043 0.0
N500 N 0.93492 0.83879 0.78142 0.0
C501 C 0.89666 0.80413 0.78333 0.0
C502 C 0.9497 0.8225 0.78844 0.0
C503 C 0.93103 0.80485 0.7892 0.0
H504 H 0.90558 0.90385 0.77008 0.0
H505 H 0.94307 0.79186 0.79442 0.0
H506 H 0.10518 0.85272 0.76965 0.0
H507 H 0.03063 0.94321 0.71706 0.0
H508 H 0.97595 0.82309 0.79331 0.0
H509 H 0.88224 0.79044 0.78393 0.0
H510 H 0.01765 0.90812 0.72076 0.0
H511 H 0.84517 0.90569 0.75979 0.0
H512 H 0.83054 0.80819 0.77169 0.0
H513 H 0.80427 0.83907 0.76187 0.0
H514 H 0.15896 0.86409 0.78405 0.0
H515 H 0.80957 0.87547 0.75727 0.0
H516 H 0.07838 0.95875 0.7334 0.0
N517 N 0.092 0.88108 0.76064 0.0
C518 C 0.10223 0.90006 0.7588 0.0
C519 C 0.14305 0.8744 0.77711 0.0
C520 C 0.13252 0.90725 0.76679 0.0
C521 C 0.11255 0.86801 0.76905 0.0
C522 C 0.15287 0.89416 0.77615 0.0
N523 N 0.05383 0.9043 0.74086 0.0
C524 C 0.0368 0.91494 0.72883 0.0
C525 C 0.09154 0.93201 0.74662 0.0
C526 C 0.08194 0.9122 0.7489 0.0
C527 C 0.07192 0.94346 0.73551 0.0
C528 C 0.04485 0.93476 0.72632 0.0
H529 H 0.17639 0.89909 0.78248 0.0
H530 H 0.16444 0.93307 0.7713 0.0
H531 H 0.12856 0.95477 0.7536 0.0
O532 O 0.06678 0.87493 0.7231 0.0
O533 O 0.04551 0.88303 0.7732 0.0
O534 O 0.99175 0.89581 0.7785 0.0
O535 O 0.07008 0.84787 0.73752 0.0
O536 O 0.99144 0.88411 0.73876 0.0
O537 O 0.96343 0.89398 0.76336 0.0
O538 O 0.97795 0.86672 0.80585 0.0
O539 O 0.96639 0.84518 0.76092 0.0
O540 O 0.99313 0.85944 0.73774 0.0
O541 O 0.927 0.87713 0.79934 0.0
O542 O 0.01208 0.8544 0.78687 0.0
O543 O 0.03873 0.845 0.76188 0.0
C544 C 0.02582 0.89698 0.7795 0.0
C545 C 0.10076 0.84799 0.71066 0.0
C546 C 0.12445 0.84707 0.68197 0.0
C547 C 0.14385 0.83033 0.68634 0.0
C548 C 0.12032 0.8312 0.7146 0.0
C549 C 0.1417 0.82247 0.70251 0.0
C550 C 0.10276 0.85586 0.69425 0.0
C551 C 0.96859 0.89514 0.74692 0.0
C552 C 0.07886 0.85715 0.72387 0.0
C553 C 0.14148 0.92716 0.7651 0.0
C554 C 0.12097 0.93953 0.75506 0.0
C555 C 0.97331 0.84585 0.74462 0.0
C556 C 0.95197 0.88958 0.82434 0.0
C557 C 0.94565 0.9003 0.85367 0.0
C558 C 0.95814 0.91898 0.84904 0.0
C559 C 0.96383 0.90836 0.81999 0.0
C560 C 0.94283 0.88561 0.84115 0.0
C561 C 0.96713 0.92294 0.83231 0.0
C562 C 0.03292 0.84282 0.77814 0.0
C563 C 0.94887 0.87399 0.81153 0.0
H564 H 0.16038 0.82311 0.67714 0.0
H565 H 0.11932 0.82486 0.7271 0.0
H566 H 0.15668 0.80954 0.70568 0.0
H567 H 0.0878 0.86882 0.69108 0.0
H568 H 0.9603 0.93068 0.85827 0.0
H569 H 0.97026 0.91175 0.80707 0.0
H570 H 0.93377 0.87104 0.84447 0.0
H571 H 0.97639 0.93741 0.82887 0.0
Tb572 Tb 0.462 0.64701 0.24837 0.0
C573 C 0.60514 0.67446 0.26557 0.0
N574 N 0.59603 0.65518 0.26521 0.0
C575 C 0.64632 0.64771 0.24841 0.0
C576 C 0.63486 0.68125 0.25689 0.0
C577 C 0.61635 0.6417 0.25705 0.0
C578 C 0.65553 0.66758 0.24825 0.0
C579 C 0.59205 0.70765 0.27464 0.0
C580 C 0.58373 0.68746 0.2742 0.0
C581 C 0.62121 0.71459 0.26569 0.0
C582 C 0.6426 0.70142 0.25687 0.0
Tb583 Tb 0.54689 0.64695 0.27971 0.0
N584 N 0.55534 0.68025 0.28249 0.0
C585 C 0.57132 0.72018 0.28439 0.0
C586 C 0.53764 0.69212 0.29347 0.0
C587 C 0.5445 0.7123 0.29415 0.0
H588 H 0.60923 0.62633 0.2571 0.0
H589 H 0.52966 0.72167 0.30254 0.0
H590 H 0.42235 0.68974 0.25328 0.0
H591 H 0.41 0.57353 0.24255 0.0
H592 H 0.51914 0.68616 0.30228 0.0
H593 H 0.57681 0.73579 0.28506 0.0
H594 H 0.45451 0.59963 0.23922 0.0
H595 H 0.6622 0.63703 0.24181 0.0
H596 H 0.62774 0.73009 0.26573 0.0
H597 H 0.66509 0.70697 0.25011 0.0
H598 H 0.36502 0.70153 0.26357 0.0
H599 H 0.67856 0.67222 0.2414 0.0
H600 H 0.3523 0.58153 0.25483 0.0
N601 N 0.40932 0.6596 0.2561 0.0
C602 C 0.38379 0.64629 0.25928 0.0
C603 C 0.37006 0.68593 0.26256 0.0
C604 C 0.35046 0.65224 0.26473 0.0
C605 C 0.40257 0.67925 0.25693 0.0
C606 C 0.34402 0.67236 0.26671 0.0
N607 N 0.42272 0.62185 0.2502 0.0
C608 C 0.42943 0.60319 0.24463 0.0
C609 C 0.36429 0.61244 0.258 0.0
C610 C 0.39055 0.62673 0.25598 0.0
C611 C 0.37174 0.59299 0.25344 0.0
C612 C 0.40429 0.58842 0.24649 0.0
H613 H 0.31877 0.67757 0.27092 0.0
H614 H 0.29877 0.64223 0.27184 0.0
H615 H 0.31091 0.60733 0.26594 0.0
O616 O 0.48121 0.64436 0.22357 0.0
O617 O 0.45877 0.62558 0.26889 0.0
O618 O 0.50899 0.62403 0.28589 0.0
O619 O 0.4294 0.65507 0.22822 0.0
O620 O 0.5027 0.62513 0.24332 0.0
O621 O 0.54436 0.61996 0.26471 0.0
O622 O 0.56277 0.65177 0.30494 0.0
O623 O 0.54726 0.65542 0.25282 0.0
O624 O 0.49667 0.67226 0.25005 0.0
O625 O 0.5875 0.6299 0.2898 0.0
O626 O 0.49611 0.65656 0.28987 0.0
O627 O 0.47224 0.67058 0.26643 0.0
C628 C 0.47747 0.61818 0.2813 0.0
C629 C 0.45779 0.66685 0.20401 0.0
C630 C 0.45319 0.67737 0.1746 0.0
C631 C 0.46566 0.69604 0.17947 0.0
C632 C 0.46961 0.68561 0.20856 0.0
C633 C 0.47383 0.70006 0.1963 0.0
C634 C 0.44957 0.66277 0.18706 0.0
C635 C 0.52894 0.61543 0.25025 0.0
C636 C 0.45299 0.65155 0.21685 0.0
C637 C 0.3245 0.63799 0.2675 0.0
C638 C 0.33139 0.61811 0.26412 0.0
C639 C 0.52984 0.6703 0.24662 0.0
C640 C 0.58042 0.62278 0.31877 0.0
C641 C 0.58187 0.61487 0.34889 0.0
C642 C 0.57026 0.59576 0.345 0.0
C643 C 0.56942 0.60349 0.3153 0.0
C644 C 0.58704 0.62836 0.33564 0.0
C645 C 0.56423 0.59014 0.32833 0.0
C646 C 0.47225 0.6677 0.28276 0.0
C647 C 0.58432 0.63711 0.30489 0.0
H648 H 0.46833 0.70772 0.17034 0.0
H649 H 0.47514 0.68913 0.22159 0.0
H650 H 0.48303 0.71453 0.19991 0.0
H651 H 0.4404 0.64822 0.18362 0.0
H652 H 0.56639 0.58502 0.35486 0.0
H653 H 0.56488 0.59869 0.30247 0.0
H654 H 0.59563 0.6432 0.33845 0.0
H655 H 0.55557 0.57535 0.32549 0.0
C656 C 0.12354 0.97371 0.36483 0.0
C657 C 0.15905 0.96856 0.36418 0.0
C658 C 0.1113 0.99033 0.35634 0.0
C659 C 0.13409 0.02395 0.32135 0.0
H660 H 0.0627 0.05709 0.3411 0.0
C661 C 0.06178 0.08393 0.28329 0.0
C662 C 0.05386 0.1016 0.29164 0.0
C663 C 0.07573 0.06806 0.29219 0.0
C664 C 0.08286 0.04809 0.33544 0.0
H665 H 0.2097 0.97736 0.35458 0.0
H666 H 0.18842 1.00631 0.33987 0.0
H667 H 0.08494 0.02913 0.3569 0.0
H668 H 0.05583 0.11686 0.31564 0.0
H669 H 0.08039 0.08925 0.33117 0.0
H670 H 0.1324 0.04309 0.3 0.0
C671 C 0.16986 0.99728 0.34664 0.0
C672 C 0.09532 0.0319 0.34444 0.0
C673 C 0.18209 0.98067 0.3551 0.0
C674 C 0.06119 0.1033 0.30894 0.0
C675 C 0.0751 0.08745 0.31784 0.0
C676 C 0.1216 0.04012 0.31235 0.0
C677 C 0.13425 1.00225 0.34701 0.0
C678 C 0.1211 0.01961 0.33751 0.0
C679 C 0.08221 0.06954 0.30963 0.0
C680 C 0.09581 0.05241 0.31927 0.0
H681 H 0.10499 0.96459 0.37152 0.0
H682 H 0.08364 0.99356 0.35675 0.0
H683 H 0.15365 0.01469 0.31552 0.0
H684 H 0.05629 0.0822 0.26997 0.0
H685 H 0.08057 0.05446 0.28548 0.0
C686 C 0.36792 0.51945 0.88487 0.0
C687 C 0.36503 0.5389 0.87913 0.0
C688 C 0.37644 0.50422 0.87373 0.0
C689 C 0.41805 0.49492 0.83236 0.0
H690 H 0.37579 0.44344 0.83706 0.0
C691 C 0.44793 0.43142 0.78589 0.0
C692 C 0.45484 0.41312 0.79326 0.0
C693 C 0.43416 0.44679 0.79558 0.0
C694 C 0.388 0.4577 0.83565 0.0
H695 H 0.36878 0.55749 0.85705 0.0
H696 H 0.38288 0.53088 0.83757 0.0
H697 H 0.35712 0.47025 0.85541 0.0
H698 H 0.45142 0.39622 0.81628 0.0
H699 H 0.42757 0.42301 0.83322 0.0
H700 H 0.44911 0.48231 0.81268 0.0
C701 C 0.37897 0.52744 0.85075 0.0
C702 C 0.37734 0.47308 0.84619 0.0
C703 C 0.37046 0.54268 0.8619 0.0
C704 C 0.44657 0.41025 0.81032 0.0
C705 C 0.43268 0.42556 0.81998 0.0
C706 C 0.42866 0.47955 0.82179 0.0
C707 C 0.38226 0.50802 0.85653 0.0
C708 C 0.39246 0.49185 0.8448 0.0
C709 C 0.42673 0.4441 0.81279 0.0
C710 C 0.41399 0.4607 0.82341 0.0
H711 H 0.36349 0.51594 0.898 0.0
H712 H 0.3791 0.48951 0.87868 0.0
H713 H 0.43065 0.50909 0.83108 0.0
H714 H 0.45404 0.43402 0.77275 0.0
H715 H 0.42947 0.46081 0.7896 0.0
C716 C 0.67989 0.52638 0.66906 0.0
C717 C 0.66018 0.54353 0.66652 0.0
C718 C 0.66598 0.51052 0.67804 0.0
C719 C 0.59845 0.49822 0.70956 0.0
H720 H 0.61215 0.4448 0.69385 0.0
C721 C 0.5255 0.43248 0.73924 0.0
C722 C 0.54367 0.41473 0.7411 0.0
C723 C 0.54031 0.44812 0.73035 0.0
C724 C 0.60847 0.45959 0.69856 0.0
H725 H 0.61035 0.55741 0.67153 0.0
H726 H 0.586 0.52971 0.68707 0.0
H727 H 0.63668 0.47206 0.67786 0.0
H728 H 0.59111 0.39924 0.73464 0.0
H729 H 0.61758 0.42669 0.7196 0.0
H730 H 0.57047 0.48581 0.73032 0.0
C731 C 0.61232 0.52857 0.68218 0.0
C732 C 0.62249 0.47525 0.68936 0.0
C733 C 0.62614 0.54437 0.67311 0.0
C734 C 0.57682 0.41288 0.73373 0.0
C735 C 0.59174 0.42855 0.72489 0.0
C736 C 0.58456 0.48258 0.7188 0.0
C737 C 0.6321 0.51147 0.68482 0.0
C738 C 0.61752 0.49476 0.6947 0.0
C739 C 0.57366 0.44639 0.72305 0.0
C740 C 0.58922 0.46304 0.7134 0.0
H741 H 0.70609 0.52518 0.66403 0.0
H742 H 0.68203 0.49764 0.67993 0.0
H743 H 0.59463 0.51304 0.7142 0.0
H744 H 0.49985 0.43434 0.74476 0.0
H745 H 0.52534 0.46149 0.72899 0.0
C746 C 0.88646 0.99584 0.14564 0.0
C747 C 0.86961 0.97895 0.1518 0.0
C748 C 0.89673 0.01092 0.15658 0.0
C749 C 0.88115 0.03255 0.1986 0.0
H750 H 0.97447 0.05368 0.19286 0.0
C751 C 0.93234 0.10254 0.23311 0.0
C752 C 0.96643 0.10164 0.23958 0.0
C753 C 0.91911 0.08727 0.22308 0.0
C754 C 0.94841 0.04787 0.1947 0.0
H755 H 0.84993 0.96494 0.17443 0.0
H756 H 0.86746 0.99146 0.1935 0.0
H757 H 0.95373 0.02777 0.17406 0.0
H758 H 0.01338 0.08395 0.24067 0.0
H759 H 0.99058 0.05751 0.22298 0.0
H760 H 0.876 0.05272 0.21932 0.0
C761 C 0.87258 0.99298 0.18013 0.0
C762 C 0.93639 0.03316 0.18381 0.0
C763 C 0.8625 0.9778 0.16919 0.0
C764 C 0.98705 0.08516 0.2358 0.0
C765 C 0.97401 0.07001 0.22566 0.0
C766 C 0.89309 0.04744 0.20942 0.0
C767 C 0.8902 0.00961 0.17397 0.0
C768 C 0.90265 0.02531 0.18562 0.0
C769 C 0.93998 0.07093 0.21908 0.0
C770 C 0.92692 0.05521 0.20762 0.0
H771 H 0.89166 0.99749 0.1323 0.0
H772 H 0.90969 0.0237 0.1514 0.0
H773 H 0.85495 0.02688 0.20025 0.0
H774 H 0.91618 0.11527 0.23542 0.0
H775 H 0.89294 0.08853 0.21803 0.0
C776 C 0.83042 0.02914 0.66671 0.0
C777 C 0.85334 0.04487 0.66363 0.0
C778 C 0.84189 0.01241 0.67529 0.0
C779 C 0.91159 0.99585 0.70439 0.0
H780 H 0.87864 0.9438 0.69227 0.0
C781 C 0.94197 0.92868 0.74583 0.0
C782 C 0.95136 0.91121 0.73753 0.0
C783 C 0.92835 0.94449 0.73678 0.0
C784 C 0.88829 0.95822 0.69576 0.0
H785 H 0.90668 0.05501 0.66658 0.0
H786 H 0.9268 0.02582 0.68132 0.0
H787 H 0.85958 0.97212 0.67595 0.0
H788 H 0.95285 0.89638 0.71333 0.0
H789 H 0.92965 0.92409 0.69744 0.0
H790 H 0.94103 0.98196 0.72388 0.0
C791 C 0.8997 0.02656 0.67749 0.0
C792 C 0.87704 0.9745 0.68651 0.0
C793 C 0.8882 0.04329 0.66899 0.0
C794 C 0.94593 0.90969 0.72005 0.0
C795 C 0.93242 0.92554 0.71098 0.0
C796 C 0.92288 0.97959 0.7136 0.0
C797 C 0.87662 0.01098 0.68094 0.0
C798 C 0.88858 0.99354 0.6907 0.0
C799 C 0.92387 0.94325 0.71919 0.0
C800 C 0.91138 0.96055 0.70943 0.0
H801 H 0.80329 0.02998 0.66293 0.0
H802 H 0.82325 1.00084 0.67789 0.0
H803 H 0.92068 0.01029 0.70815 0.0
H804 H 0.94602 0.93036 0.75928 0.0
H805 H 0.92153 0.95776 0.74358 0.0
C806 C 0.59624 0.46966 0.16374 0.0
C807 C 0.63007 0.46957 0.1569 0.0
C808 C 0.58619 0.48419 0.17526 0.0
C809 C 0.62067 0.52379 0.20352 0.0
H810 H 0.52686 0.54419 0.19872 0.0
C811 C 0.5635 0.58394 0.24818 0.0
C812 C 0.54191 0.59812 0.24067 0.0
C813 C 0.57483 0.56753 0.23893 0.0
C814 C 0.55326 0.53881 0.20019 0.0
H815 H 0.68 0.48458 0.15695 0.0
H816 H 0.66231 0.51018 0.17678 0.0
H817 H 0.54587 0.51732 0.18083 0.0
H818 H 0.51636 0.60637 0.21729 0.0
H819 H 0.53653 0.57832 0.20127 0.0
H820 H 0.62836 0.54597 0.22245 0.0
C821 C 0.64368 0.4988 0.17353 0.0
C822 C 0.56404 0.52312 0.19006 0.0
C823 C 0.65383 0.48415 0.1621 0.0
C824 C 0.53249 0.59566 0.22364 0.0
C825 C 0.54396 0.57943 0.21442 0.0
C826 C 0.60992 0.53962 0.21361 0.0
C827 C 0.60958 0.49915 0.18014 0.0
C828 C 0.59795 0.51544 0.19149 0.0
C829 C 0.56496 0.565 0.22194 0.0
C830 C 0.57616 0.54748 0.21194 0.0
H831 H 0.57751 0.45844 0.16021 0.0
H832 H 0.55997 0.48367 0.18034 0.0
H833 H 0.64684 0.51813 0.20515 0.0
H834 H 0.57123 0.58535 0.26127 0.0
H835 H 0.59077 0.55665 0.24518 0.0
C836 C 0.32654 0.48514 0.35725 0.0
C837 C 0.34913 0.47067 0.36358 0.0
C838 C 0.33976 0.50158 0.34884 0.0
C839 C 0.42103 0.5305 0.3424 0.0
H840 H 0.37299 0.54922 0.30255 0.0
C841 C 0.48332 0.58666 0.29711 0.0
C842 C 0.46197 0.60164 0.29078 0.0
C843 C 0.46899 0.57109 0.30623 0.0
C844 C 0.3865 0.54433 0.31376 0.0
H845 H 0.40341 0.46216 0.3659 0.0
H846 H 0.42646 0.49072 0.35117 0.0
H847 H 0.34922 0.52146 0.31815 0.0
H848 H 0.40874 0.61205 0.289 0.0
H849 H 0.38344 0.58471 0.30475 0.0
H850 H 0.4585 0.55326 0.3379 0.0
C851 C 0.39851 0.48956 0.35296 0.0
C852 C 0.37286 0.5284 0.32274 0.0
C853 C 0.3853 0.47316 0.36142 0.0
C854 C 0.4258 0.60058 0.29354 0.0
C855 C 0.41136 0.58494 0.3026 0.0
C856 C 0.43472 0.54638 0.3334 0.0
C857 C 0.37592 0.50396 0.34648 0.0
C858 C 0.39002 0.52122 0.33714 0.0
C859 C 0.43283 0.57005 0.30915 0.0
C860 C 0.41772 0.55344 0.31893 0.0
H861 H 0.29858 0.48383 0.35891 0.0
H862 H 0.3216 0.51252 0.34429 0.0
H863 H 0.43464 0.52561 0.35359 0.0
H864 H 0.51106 0.58673 0.29469 0.0
H865 H 0.48622 0.55968 0.31076 0.0
C866 C 0.10361 0.03993 0.8663 0.0
C867 C 0.13554 0.03902 0.87498 0.0
C868 C 0.09345 0.02481 0.85535 0.0
C869 C 0.12694 0.98157 0.83137 0.0
H870 H 0.02918 0.96673 0.83094 0.0
C871 C 0.07279 0.91136 0.79796 0.0
C872 C 0.04135 0.91354 0.78905 0.0
C873 C 0.08602 0.92684 0.80778 0.0
C874 C 0.05652 0.97082 0.83078 0.0
H875 H 0.18194 0.02146 0.87888 0.0
H876 H 0.16405 0.99491 0.85996 0.0
H877 H 0.04879 0.99318 0.84937 0.0
H878 H 0.99964 0.93376 0.78301 0.0
H879 H 0.02233 0.96062 0.80029 0.0
H880 H 0.13451 0.95884 0.81289 0.0
C881 C 0.14706 1.0075 0.86137 0.0
C882 C 0.0678 0.98605 0.84133 0.0
C883 C 0.15733 0.02272 0.87225 0.0
C884 C 0.02376 0.93159 0.78988 0.0
C885 C 0.03673 0.94696 0.79981 0.0
C886 C 0.11564 0.96621 0.82086 0.0
C887 C 0.11482 1.00825 0.85287 0.0
C888 C 0.10312 0.99176 0.84171 0.0
C889 C 0.06778 0.94471 0.80904 0.0
C890 C 0.08024 0.96076 0.82036 0.0
H891 H 0.08648 0.05244 0.86788 0.0
H892 H 0.06883 0.02617 0.84876 0.0
H893 H 0.15426 0.98568 0.83116 0.0
H894 H 0.08663 0.89752 0.79772 0.0
H895 H 0.10989 0.9246 0.81482 0.0
C896 C 0.16295 0.13218 0.0295 0.0
C897 C 0.16467 0.14999 0.02059 0.0
C898 C 0.15229 0.13185 0.04642 0.0
C899 C 0.10642 0.16172 0.07909 0.0
H900 H 0.15819 0.12958 0.11061 0.0
C901 C 0.10567 0.17573 0.15086 0.0
C902 C 0.10692 0.15965 0.16191 0.0
C903 C 0.10798 0.17296 0.13342 0.0
C904 C 0.14304 0.1384 0.10195 0.0
H905 H 0.15532 0.18134 0.02246 0.0
H906 H 0.13758 0.18082 0.05189 0.0
H907 H 0.1715 0.12771 0.08057 0.0
H908 H 0.11048 0.12795 0.16323 0.0
H909 H 0.11435 0.12304 0.13266 0.0
H910 H 0.07855 0.17275 0.10053 0.0
C911 C 0.14416 0.16705 0.04582 0.0
C912 C 0.15069 0.13734 0.0847 0.0
C913 C 0.15483 0.16738 0.02896 0.0
C914 C 0.10925 0.14063 0.15505 0.0
C915 C 0.11185 0.13784 0.13755 0.0
C916 C 0.09885 0.16282 0.09634 0.0
C917 C 0.14293 0.1493 0.05484 0.0
C918 C 0.13289 0.14923 0.07305 0.0
C919 C 0.11177 0.15401 0.12653 0.0
C920 C 0.11744 0.15141 0.10803 0.0
H921 H 0.17055 0.11852 0.02352 0.0
H922 H 0.15134 0.11788 0.05289 0.0
H923 H 0.09163 0.17079 0.07049 0.0
H924 H 0.1036 0.19057 0.15574 0.0
H925 H 0.10813 0.18577 0.12538 0.0
C926 C 0.36251 0.36539 0.52661 0.0
C927 C 0.35793 0.38434 0.51997 0.0
C928 C 0.36941 0.36273 0.5438 0.0
C929 C 0.36168 0.38761 0.58537 0.0
H930 H 0.42793 0.34805 0.59964 0.0
C931 C 0.40031 0.37862 0.6555 0.0
C932 C 0.40128 0.35926 0.66158 0.0
C933 C 0.39794 0.38228 0.63815 0.0
C934 C 0.40916 0.35908 0.59589 0.0
H935 H 0.35643 0.41533 0.5264 0.0
H936 H 0.36906 0.41073 0.55621 0.0
H937 H 0.41722 0.35306 0.56964 0.0
H938 H 0.40233 0.3286 0.65409 0.0
H939 H 0.39785 0.33494 0.62397 0.0
H940 H 0.35343 0.39353 0.6116 0.0
C941 C 0.36709 0.39788 0.54817 0.0
C942 C 0.40296 0.36192 0.57866 0.0
C943 C 0.36023 0.40053 0.531 0.0
C944 C 0.40121 0.34369 0.64986 0.0
C945 C 0.39898 0.34734 0.63255 0.0
C946 C 0.36791 0.38478 0.60258 0.0
C947 C 0.37181 0.37895 0.55482 0.0
C948 C 0.37897 0.37615 0.57317 0.0
C949 C 0.3967 0.36667 0.62646 0.0
C950 C 0.39156 0.37038 0.60809 0.0
H951 H 0.36123 0.35259 0.51848 0.0
H952 H 0.37248 0.34792 0.54849 0.0
H953 H 0.34266 0.39851 0.58165 0.0
H954 H 0.40011 0.39095 0.66417 0.0
H955 H 0.39672 0.39736 0.6339 0.0
C956 C 0.65533 0.34586 0.99979 0.0
C957 C 0.6683 0.36288 1.00773 0.0
C958 C 0.64589 0.34603 0.98276 0.0
C959 C 0.66141 0.37279 0.94295 0.0
H960 H 0.58311 0.34142 0.92737 0.0
C961 C 0.62441 0.36617 0.87188 0.0
C962 C 0.61849 0.34683 0.86626 0.0
C963 C 0.62669 0.37039 0.8892 0.0
C964 C 0.60513 0.35021 0.93149 0.0
H965 H 0.68109 0.39357 1.00386 0.0
H966 H 0.66413 0.39396 0.97413 0.0
H967 H 0.59424 0.34467 0.9575 0.0
H968 H 0.60864 0.31698 0.87441 0.0
H969 H 0.61258 0.32427 0.9044 0.0
H970 H 0.67254 0.37805 0.91684 0.0
C971 C 0.66161 0.38038 0.9811 0.0
C972 C 0.61158 0.35205 0.94879 0.0
C973 C 0.671 0.38022 0.9982 0.0
C974 C 0.61357 0.332 0.87832 0.0
C975 C 0.61552 0.33623 0.89554 0.0
C976 C 0.65489 0.37099 0.9256 0.0
C977 C 0.64908 0.36325 0.97313 0.0
C978 C 0.64026 0.36299 0.95476 0.0
C979 C 0.62259 0.35541 0.90124 0.0
C980 C 0.62712 0.35931 0.91965 0.0
H981 H 0.65243 0.3323 1.00676 0.0
H982 H 0.63679 0.33248 0.97705 0.0
H983 H 0.6839 0.3812 0.94704 0.0
H984 H 0.62841 0.37789 0.86288 0.0
H985 H 0.63189 0.38536 0.89317 0.0
C986 C 0.8263 0.13524 0.49485 0.0
C987 C 0.85096 0.1386 0.50771 0.0
C988 C 0.83517 0.13806 0.47789 0.0
C989 C 0.91128 0.14007 0.44936 0.0
H990 H 0.84866 0.16732 0.41904 0.0
C991 C 0.95629 0.16738 0.38417 0.0
C992 C 0.93261 0.16708 0.37061 0.0
C993 C 0.94544 0.16264 0.40048 0.0
C994 C 0.86626 0.15939 0.42724 0.0
H995 H 0.90439 0.14742 0.51273 0.0
H996 H 0.91976 0.15244 0.48321 0.0
H997 H 0.83125 0.16175 0.44824 0.0
H998 H 0.87888 0.16112 0.36365 0.0
H999 H 0.86008 0.15234 0.39208 0.0
H1000 H 0.94625 0.13759 0.42845 0.0
C1001 C 0.89358 0.14756 0.48624 0.0
C1002 C 0.85628 0.15625 0.44401 0.0
C1003 C 0.88465 0.14489 0.50318 0.0
C1004 C 0.89789 0.1614 0.37375 0.0
C1005 C 0.88701 0.1566 0.39011 0.0
C1006 C 0.92116 0.14309 0.43259 0.0
C1007 C 0.86901 0.14411 0.47337 0.0
C1008 C 0.87886 0.14676 0.45533 0.0
C1009 C 0.91059 0.15732 0.40373 0.0
C1010 C 0.899 0.15301 0.42133 0.0
H1011 H 0.80006 0.13051 0.49791 0.0
H1012 H 0.81568 0.13517 0.46829 0.0
H1013 H 0.92902 0.13237 0.45765 0.0
H1014 H 0.98336 0.17138 0.38222 0.0
H1015 H 0.96432 0.16359 0.41061 0.0
C1016 C 0.82408 0.86649 0.99442 0.0
C1017 C 0.84367 0.87383 1.00808 0.0
C1018 C 0.83556 0.86904 0.97782 0.0
C1019 C 0.894 0.8997 0.95159 0.0
H1020 H 0.88476 0.85701 0.91938 0.0
C1021 C 0.9549 0.90374 0.88499 0.0
C1022 C 0.9351 0.89633 0.87143 0.0
C1023 C 0.94436 0.90061 0.90166 0.0
C1024 C 0.88719 0.86917 0.92815 0.0
H1025 H 0.8911 0.88943 1.01486 0.0
H1026 H 0.91102 0.89396 0.98594 0.0
H1027 H 0.86508 0.85246 0.94834 0.0
H1028 H 0.88854 0.87982 0.86487 0.0
H1029 H 0.8701 0.87441 0.89391 0.0
H1030 H 0.91592 0.91646 0.93141 0.0
C1031 C 0.88649 0.88644 0.98807 0.0
C1032 C 0.8759 0.86655 0.94478 0.0
C1033 C 0.87503 0.88385 1.00467 0.0
C1034 C 0.90469 0.88551 0.87499 0.0
C1035 C 0.89411 0.8824 0.89167 0.0
C1036 C 0.90524 0.90233 0.93496 0.0
C1037 C 0.86693 0.87905 0.97442 0.0
C1038 C 0.87913 0.88179 0.95672 0.0
C1039 C 0.91369 0.89 0.90523 0.0
C1040 C 0.90198 0.88711 0.923 0.0
H1041 H 0.79952 0.85898 0.99652 0.0
H1042 H 0.81954 0.86344 0.96762 0.0
H1043 H 0.89641 0.91186 0.96037 0.0
H1044 H 0.97876 0.91187 0.88273 0.0
H1045 H 0.96045 0.90638 0.91176 0.0
C1046 C 0.62249 0.62009 0.50199 0.0
C1047 C 0.6559 0.62526 0.50792 0.0
C1048 C 0.61441 0.62114 0.48483 0.0
C1049 C 0.64178 0.64237 0.4439 0.0
H1050 H 0.59054 0.59796 0.42566 0.0
C1051 C 0.6203 0.62903 0.37177 0.0
C1052 C 0.58866 0.62022 0.36683 0.0
C1053 C 0.62832 0.63152 0.38893 0.0
C1054 C 0.60438 0.61066 0.43053 0.0
H1055 H 0.70669 0.6362 0.50035 0.0
H1056 H 0.6925 0.6381 0.4703 0.0
H1057 H 0.60489 0.59887 0.45547 0.0
H1058 H 0.53964 0.60843 0.37593 0.0
H1059 H 0.55311 0.61315 0.40567 0.0
H1060 H 0.64119 0.65412 0.41882 0.0
C1061 C 0.67251 0.6333 0.47902 0.0
C1062 C 0.61269 0.61115 0.44768 0.0
C1063 C 0.68064 0.63222 0.49625 0.0
C1064 C 0.56449 0.61495 0.37935 0.0
C1065 C 0.57235 0.61756 0.39642 0.0
C1066 C 0.63332 0.64191 0.42667 0.0
C1067 C 0.63947 0.62742 0.47306 0.0
C1068 C 0.63128 0.62705 0.45465 0.0
C1069 C 0.60475 0.62536 0.40149 0.0
C1070 C 0.61426 0.62609 0.41978 0.0
H1071 H 0.60248 0.61513 0.51063 0.0
H1072 H 0.58845 0.61693 0.48076 0.0
H1073 H 0.65595 0.6549 0.44887 0.0
H1074 H 0.63951 0.63314 0.3624 0.0
H1075 H 0.65357 0.63751 0.39233 0.0
C1076 C 0.36902 0.64553 0.02632 0.0
C1077 C 0.34908 0.66089 0.01944 0.0
C1078 C 0.38044 0.64633 0.0431 0.0
C1079 C 0.39876 0.68161 0.07749 0.0
H1080 H 0.39515 0.63584 0.10639 0.0
C1081 C 0.46282 0.68147 0.14337 0.0
C1082 C 0.44318 0.67348 0.15668 0.0
C1083 C 0.45223 0.67895 0.12661 0.0
C1084 C 0.39622 0.64877 0.0985 0.0
H1085 H 0.32461 0.68885 0.02521 0.0
H1086 H 0.3449 0.69033 0.05427 0.0
H1087 H 0.3741 0.63349 0.07732 0.0
H1088 H 0.39712 0.65625 0.16262 0.0
H1089 H 0.37888 0.65171 0.13337 0.0
H1090 H 0.42047 0.69698 0.09864 0.0
C1091 C 0.35213 0.67779 0.0466 0.0
C1092 C 0.38444 0.64738 0.08179 0.0
C1093 C 0.34055 0.67694 0.02989 0.0
C1094 C 0.41316 0.66241 0.15272 0.0
C1095 C 0.40265 0.65983 0.13593 0.0
C1096 C 0.41074 0.68297 0.09412 0.0
C1097 C 0.37239 0.66256 0.05341 0.0
C1098 C 0.3854 0.66382 0.07111 0.0
C1099 C 0.42179 0.6683 0.12267 0.0
C1100 C 0.40955 0.6666 0.10486 0.0
H1101 H 0.3765 0.63305 0.01864 0.0
H1102 H 0.39629 0.63444 0.04789 0.0
H1103 H 0.40022 0.69451 0.06958 0.0
H1104 H 0.48645 0.68972 0.14588 0.0
H1105 H 0.46797 0.68536 0.1167 0.0
C1106 C 0.15369 0.86436 0.52976 0.0
C1107 C 0.16143 0.88295 0.523 0.0
C1108 C 0.14768 0.86207 0.54707 0.0
C1109 C 0.16554 0.88545 0.58829 0.0
H1110 H 0.09269 0.85057 0.60429 0.0
C1111 C 0.15972 0.85678 0.65669 0.0
C1112 C 0.12695 0.85489 0.66451 0.0
C1113 C 0.16229 0.86216 0.63974 0.0
C1114 C 0.11291 0.86053 0.60004 0.0
H1115 H 0.16804 0.91379 0.52929 0.0
H1116 H 0.15803 0.90973 0.55942 0.0
H1117 H 0.09991 0.85585 0.57404 0.0
H1118 H 0.07119 0.85768 0.66076 0.0
H1119 H 0.07564 0.86714 0.63104 0.0
H1120 H 0.17866 0.89005 0.61427 0.0
C1121 C 0.15701 0.89687 0.55134 0.0
C1122 C 0.11731 0.86338 0.58269 0.0
C1123 C 0.16285 0.89918 0.53403 0.0
C1124 C 0.0968 0.85912 0.65511 0.0
C1125 C 0.09935 0.86434 0.63805 0.0
C1126 C 0.16129 0.8825 0.60563 0.0
C1127 C 0.14939 0.87829 0.55809 0.0
C1128 C 0.14386 0.87576 0.57658 0.0
C1129 C 0.13214 0.86568 0.63012 0.0
C1130 C 0.1351 0.86988 0.61173 0.0
H1131 H 0.15286 0.85146 0.52174 0.0
H1132 H 0.1424 0.8475 0.55186 0.0
H1133 H 0.1864 0.89498 0.58404 0.0
H1134 H 0.18345 0.85377 0.66364 0.0
H1135 H 0.18793 0.8629 0.63403 0.0
C1136 C 0.1815 0.27465 0.3881 0.0
C1137 C 0.19213 0.29314 0.38206 0.0
C1138 C 0.16362 0.26143 0.37764 0.0
C1139 C 0.10945 0.25845 0.33926 0.0
H1140 H 0.1369 0.20368 0.33912 0.0
C1141 C 0.05334 0.20238 0.29115 0.0
C1142 C 0.04764 0.18306 0.29662 0.0
C1143 C 0.07058 0.21598 0.3015 0.0
C1144 C 0.12849 0.21886 0.33916 0.0
H1145 H 0.19214 0.31203 0.36008 0.0
H1146 H 0.16038 0.2891 0.34198 0.0
H1147 H 0.1674 0.22699 0.35731 0.0
H1148 H 0.05401 0.16307 0.31758 0.0
H1149 H 0.08294 0.18689 0.33589 0.0
H1150 H 0.07021 0.25032 0.3213 0.0
C1151 C 0.16581 0.28492 0.35487 0.0
C1152 C 0.1461 0.23224 0.34957 0.0
C1153 C 0.18396 0.29809 0.36529 0.0
C1154 C 0.05839 0.1778 0.31292 0.0
C1155 C 0.07531 0.19143 0.32335 0.0
C1156 C 0.09164 0.24504 0.32893 0.0
C1157 C 0.15558 0.26639 0.3609 0.0
C1158 C 0.13681 0.2522 0.34976 0.0
C1159 C 0.08199 0.21067 0.31773 0.0
C1160 C 0.1009 0.22504 0.32874 0.0
H1161 H 0.18661 0.27042 0.40101 0.0
H1162 H 0.15564 0.24739 0.38275 0.0
H1163 H 0.10138 0.27369 0.33925 0.0
H1164 H 0.04448 0.20699 0.27883 0.0
H1165 H 0.0754 0.23057 0.29665 0.0
C1166 C 0.30908 0.22977 0.87125 0.0
C1167 C 0.31514 0.21011 0.86651 0.0
C1168 C 0.32655 0.24519 0.86312 0.0
C1169 C 0.36937 0.25708 0.82295 0.0
H1170 H 0.41261 0.30007 0.84747 0.0
C1171 C 0.45928 0.31247 0.78946 0.0
C1172 C 0.45898 0.33213 0.79478 0.0
C1173 C 0.44121 0.29813 0.79854 0.0
C1174 C 0.40021 0.28836 0.84037 0.0
H1175 H 0.34586 0.19139 0.85003 0.0
H1176 H 0.37558 0.2182 0.83573 0.0
H1177 H 0.38201 0.27427 0.86289 0.0
H1178 H 0.43967 0.35236 0.81367 0.0
H1179 H 0.40727 0.32744 0.8294 0.0
H1180 H 0.38668 0.2712 0.80043 0.0
C1181 C 0.35693 0.22169 0.84555 0.0
C1182 C 0.38278 0.27353 0.84925 0.0
C1183 C 0.33978 0.20631 0.85375 0.0
C1184 C 0.44053 0.33723 0.80943 0.0
C1185 C 0.42205 0.32291 0.81843 0.0
C1186 C 0.38637 0.27199 0.81407 0.0
C1187 C 0.35025 0.24132 0.84999 0.0
C1188 C 0.36756 0.25758 0.84065 0.0
C1189 C 0.42208 0.30314 0.8131 0.0
C1190 C 0.40249 0.28773 0.82264 0.0
H1191 H 0.29008 0.23331 0.88089 0.0
H1192 H 0.32072 0.26018 0.86676 0.0
H1193 H 0.35734 0.24517 0.81593 0.0
H1194 H 0.47367 0.30816 0.7783 0.0
H1195 H 0.44258 0.28307 0.79419 0.0
C1196 C 0.6656 0.23241 0.64767 0.0
C1197 C 0.69345 0.22059 0.65313 0.0
C1198 C 0.64835 0.24493 0.6589 0.0
C1199 C 0.65923 0.27047 0.69993 0.0
H1200 H 0.55929 0.27802 0.69598 0.0
C1201 C 0.57978 0.319 0.7466 0.0
C1202 C 0.5546 0.33144 0.73939 0.0
C1203 C 0.59665 0.30471 0.73681 0.0
C1204 C 0.58726 0.2762 0.69717 0.0
H1205 H 0.72481 0.21274 0.67485 0.0
H1206 H 0.69422 0.23431 0.69454 0.0
H1207 H 0.58845 0.25432 0.67774 0.0
H1208 H 0.52766 0.33849 0.71609 0.0
H1209 H 0.55695 0.31372 0.69916 0.0
H1210 H 0.65791 0.29244 0.71937 0.0
C1211 C 0.68602 0.23405 0.68148 0.0
C1212 C 0.60402 0.26261 0.68669 0.0
C1213 C 0.70331 0.2215 0.67022 0.0
C1214 C 0.54677 0.32919 0.72215 0.0
C1215 C 0.56344 0.31486 0.71242 0.0
C1216 C 0.64242 0.28404 0.71046 0.0
C1217 C 0.65837 0.24599 0.67595 0.0
C1218 C 0.6403 0.25972 0.68778 0.0
C1219 C 0.58856 0.30242 0.7196 0.0
C1220 C 0.60628 0.28725 0.70907 0.0
H1221 H 0.65695 0.23192 0.63467 0.0
H1222 H 0.62748 0.25405 0.65412 0.0
H1223 H 0.68725 0.26882 0.70101 0.0
H1224 H 0.58643 0.32022 0.75984 0.0
H1225 H 0.61566 0.29526 0.74277 0.0
C1226 C 0.84276 0.30732 0.17282 0.0
C1227 C 0.81089 0.30365 0.16455 0.0
C1228 C 0.85975 0.29243 0.1817 0.0
C1229 C 0.86527 0.23844 0.18645 0.0
H1230 H 0.90565 0.25165 0.22991 0.0
C1231 C 0.95569 0.18535 0.22292 0.0
C1232 C 0.9516 0.18418 0.24052 0.0
C1233 C 0.93776 0.19952 0.21359 0.0
C1234 C 0.8943 0.24766 0.21786 0.0
H1235 H 0.77226 0.28121 0.15899 0.0
H1236 H 0.80208 0.25518 0.17439 0.0
H1237 H 0.87597 0.27691 0.21363 0.0
H1238 H 0.92509 0.19705 0.26206 0.0
H1239 H 0.89373 0.22168 0.24577 0.0
H1240 H 0.88332 0.20912 0.19079 0.0
C1241 C 0.81402 0.26959 0.1739 0.0
C1242 C 0.87763 0.26221 0.20842 0.0
C1243 C 0.79695 0.28452 0.16503 0.0
C1244 C 0.92895 0.1975 0.24854 0.0
C1245 C 0.9111 0.21173 0.2392 0.0
C1246 C 0.88211 0.22389 0.19587 0.0
C1247 C 0.84543 0.27342 0.18252 0.0
C1248 C 0.86297 0.25781 0.19257 0.0
C1249 C 0.91534 0.21295 0.22161 0.0
C1250 C 0.89688 0.22833 0.21168 0.0
H1251 H 0.85466 0.32175 0.17245 0.0
H1252 H 0.88426 0.29581 0.1879 0.0
H1253 H 0.8545 0.23456 0.17426 0.0
H1254 H 0.97289 0.17537 0.21628 0.0
H1255 H 0.94199 0.20018 0.20011 0.0
C1256 C 0.86226 0.72267 0.64292 0.0
C1257 C 0.82766 0.71681 0.64615 0.0
C1258 C 0.87904 0.73639 0.65337 0.0
C1259 C 0.86036 0.77626 0.68385 0.0
H1260 H 0.95683 0.76941 0.69738 0.0
C1261 C 0.92299 0.82491 0.73518 0.0
C1262 C 0.95777 0.83086 0.73324 0.0
C1263 C 0.90812 0.81096 0.72437 0.0
C1264 C 0.93001 0.77169 0.69355 0.0
H1265 H 0.78365 0.72089 0.66298 0.0
H1266 H 0.81297 0.7446 0.68128 0.0
H1267 H 0.92909 0.74506 0.67902 0.0
H1268 H 0.00422 0.82727 0.71799 0.0
H1269 H 0.9782 0.80303 0.6988 0.0
H1270 H 0.86117 0.80288 0.69823 0.0
C1271 C 0.82708 0.73869 0.67057 0.0
C1272 C 0.91408 0.7577 0.68303 0.0
C1273 C 0.81039 0.72491 0.66018 0.0
C1274 C 0.97735 0.82281 0.71992 0.0
C1275 C 0.96251 0.80882 0.70901 0.0
C1276 C 0.87627 0.79025 0.69429 0.0
C1277 C 0.86157 0.74469 0.66727 0.0
C1278 C 0.87895 0.75973 0.67816 0.0
C1279 C 0.9276 0.80273 0.71109 0.0
C1280 C 0.91123 0.78809 0.69942 0.0
H1281 H 0.87647 0.71659 0.63232 0.0
H1282 H 0.90551 0.74076 0.65038 0.0
H1283 H 0.8335 0.77852 0.68007 0.0
H1284 H 0.90674 0.83148 0.74465 0.0
H1285 H 0.88126 0.80664 0.72647 0.0
C1286 C 0.70415 0.80111 0.18167 0.0
C1287 C 0.70013 0.80375 0.16419 0.0
C1288 C 0.68534 0.78658 0.19018 0.0
C1289 C 0.63557 0.74035 0.18335 0.0
H1290 H 0.60038 0.75154 0.22819 0.0
C1291 C 0.57658 0.68011 0.22625 0.0
C1292 C 0.54781 0.68524 0.23628 0.0
C1293 C 0.59456 0.69444 0.21709 0.0
C1294 C 0.60971 0.74821 0.21562 0.0
H1295 H 0.67313 0.79291 0.14197 0.0
H1296 H 0.63969 0.76787 0.15687 0.0
H1297 H 0.63199 0.77684 0.21286 0.0
H1298 H 0.51478 0.70925 0.24438 0.0
H1299 H 0.54558 0.73424 0.22813 0.0
H1300 H 0.61251 0.71184 0.18599 0.0
C1301 C 0.65781 0.7769 0.16398 0.0
C1302 C 0.62829 0.76266 0.20689 0.0
C1303 C 0.67671 0.79143 0.15545 0.0
C1304 C 0.53687 0.70489 0.23671 0.0
C1305 C 0.55478 0.71923 0.22754 0.0
C1306 C 0.61689 0.7259 0.19207 0.0
C1307 C 0.66183 0.7743 0.18147 0.0
C1308 C 0.64158 0.75892 0.19065 0.0
C1309 C 0.58404 0.71423 0.21771 0.0
C1310 C 0.60373 0.72963 0.20833 0.0
H1311 H 0.72154 0.81046 0.1889 0.0
H1312 H 0.6895 0.78488 0.2036 0.0
H1313 H 0.6457 0.73685 0.17095 0.0
H1314 H 0.58543 0.66502 0.22564 0.0
H1315 H 0.6172 0.69007 0.20984 0.0
C1316 C 0.32015 0.79517 0.36491 0.0
C1317 C 0.30742 0.78918 0.38072 0.0
C1318 C 0.33708 0.78184 0.35421 0.0
C1319 C 0.34933 0.72833 0.34632 0.0
H1320 H 0.42991 0.74592 0.32094 0.0
C1321 C 0.44023 0.6749 0.30966 0.0
C1322 C 0.45159 0.681 0.29369 0.0
C1323 C 0.42182 0.68781 0.3202 0.0
C1324 C 0.40723 0.74081 0.3278 0.0
H1325 H 0.30206 0.76419 0.39742 0.0
H1326 H 0.33234 0.74116 0.37902 0.0
H1327 H 0.39946 0.76892 0.33933 0.0
H1328 H 0.4537 0.70559 0.27646 0.0
H1329 H 0.42112 0.72794 0.29461 0.0
H1330 H 0.35742 0.70014 0.33485 0.0
C1331 C 0.32889 0.75613 0.37478 0.0
C1332 C 0.38969 0.75403 0.33834 0.0
C1333 C 0.3119 0.76944 0.38546 0.0
C1334 C 0.4445 0.7003 0.28852 0.0
C1335 C 0.42627 0.7132 0.29904 0.0
C1336 C 0.36698 0.71508 0.33581 0.0
C1337 C 0.34182 0.76214 0.35902 0.0
C1338 C 0.36044 0.748 0.34774 0.0
C1339 C 0.41479 0.70717 0.31505 0.0
C1340 C 0.3961 0.72117 0.32638 0.0
H1341 H 0.31753 0.81026 0.36087 0.0
H1342 H 0.34626 0.78698 0.34209 0.0
H1343 H 0.32662 0.7232 0.35315 0.0
H1344 H 0.44563 0.66015 0.31401 0.0
H1345 H 0.41372 0.68275 0.33252 0.0
C1346 C 0.20653 0.71117 0.84313 0.0
C1347 C 0.20294 0.70937 0.86072 0.0
C1348 C 0.18879 0.72584 0.83432 0.0
C1349 C 0.11263 0.75899 0.83757 0.0
H1350 H 0.15739 0.78615 0.8005 0.0
C1351 C 0.04955 0.82591 0.80505 0.0
C1352 C 0.05235 0.82735 0.78741 0.0
C1353 C 0.06802 0.81158 0.81391 0.0
C1354 C 0.14435 0.77855 0.81069 0.0
H1355 H 0.17794 0.72182 0.88281 0.0
H1356 H 0.14743 0.74766 0.86748 0.0
H1357 H 0.1898 0.76153 0.81631 0.0
H1358 H 0.07692 0.81464 0.76528 0.0
H1359 H 0.10901 0.78955 0.78074 0.0
H1360 H 0.06719 0.77599 0.83196 0.0
C1361 C 0.16369 0.73752 0.86047 0.0
C1362 C 0.16296 0.76443 0.81978 0.0
C1363 C 0.1815 0.72284 0.8693 0.0
C1364 C 0.07415 0.81402 0.77885 0.0
C1365 C 0.09272 0.79969 0.78774 0.0
C1366 C 0.09404 0.77311 0.8285 0.0
C1367 C 0.16696 0.73915 0.84285 0.0
C1368 C 0.14735 0.75444 0.83334 0.0
C1369 C 0.08988 0.79828 0.80539 0.0
C1370 C 0.10964 0.78308 0.81493 0.0
H1371 H 0.22319 0.70123 0.83612 0.0
H1372 H 0.19172 0.7265 0.82076 0.0
H1373 H 0.09954 0.75136 0.84773 0.0
H1374 H 0.0332 0.83594 0.81213 0.0
H1375 H 0.06556 0.81113 0.8275 0.0
loop_
_geom_bond_atom_site_label_1
_geom_bond_atom_site_label_2
_geom_bond_distance
_geom_bond_site_symmetry_2
_ccdc_geom_bond_type
C0 C1 1.264 . S
C0 C5 1.479 . S
C0 C10 1.465 . S
C1 C0 1.264 . S
C1 C3 1.339 . S
C1 H28 0.931 . S
C2 C3 1.395 . S
C2 C4 1.320 . S
C3 C1 1.339 . S
C3 C2 1.395 . S
C3 H29 0.929 . S
C4 C2 1.320 . S
C4 C5 1.405 . S
C4 H30 0.930 . S
C5 C0 1.479 . S
C5 C4 1.405 . S
C5 H31 0.931 . S
U6 O7 2.454 . S
U6 O8 2.458 . S
U6 C9 2.984 . S
U6 C10 2.847 . S
U6 C23 2.882 . S
U6 O24 2.441 . S
U6 O25 2.420 . S
U6 O26 2.455 . S
U6 O27 2.449 . S
O7 U6 2.454 . S
O7 C9 1.353 . S
O8 U6 2.458 . S
O8 C9 1.286 . S
C9 U6 2.984 . S
C9 O7 1.353 . S
C9 O8 1.286 . S
C9 C11 1.363 . S
C10 C0 1.465 . S
C10 U6 2.847 . S
C10 O24 1.249 . S
C10 O25 1.202 . S
C11 C9 1.363 . S
C11 C13 1.408 . S
C11 C16 1.342 . S
C12 C13 1.310 . S
C12 C15 1.461 . S
C12 H32 0.932 . S
C13 C11 1.408 . S
C13 C12 1.310 . S
C13 H33 0.930 . S
C14 C15 1.474 . S
C14 C16 1.285 . S
C14 H34 0.929 . S
C15 C12 1.461 . S
C15 C14 1.474 . S
C16 C11 1.342 . S
C16 C14 1.285 . S
C16 H35 0.930 . S
C17 C20 1.424 . S
C17 C22 1.245 . S
C17 C23 1.428 . S
C18 C21 1.260 . S
C18 C22 1.477 . S
C18 H36 0.932 . S
C19 C20 1.384 . S
C19 C21 1.479 . S
C19 H37 0.929 . S
C20 C17 1.424 . S
C20 C19 1.384 . S
C20 H38 0.928 . S
C21 C18 1.260 . S
C21 C19 1.479 . S
C22 C17 1.245 . S
C22 C18 1.477 . S
C22 H39 0.932 . S
C23 U6 2.882 . S
C23 C17 1.428 . S
C23 O26 1.301 . S
C23 O27 1.282 . S
O24 U6 2.441 . S
O24 C10 1.249 . S
O25 U6 2.420 . S
O25 C10 1.202 . S
O26 U6 2.455 . S
O26 C23 1.301 . S
O27 U6 2.449 . S
O27 C23 1.282 . S
H28 C1 0.931 . S
H29 C3 0.929 . S
H30 C4 0.930 . S
H31 C5 0.931 . S
H32 C12 0.932 . S
H33 C13 0.930 . S
H34 C14 0.929 . S
H35 C16 0.930 . S
H36 C18 0.932 . S
H37 C19 0.929 . S
H38 C20 0.928 . S
H39 C22 0.932 . S
C40 C41 1.264 . S
C40 C45 1.479 . S
C40 C50 1.465 . S
C41 C40 1.264 . S
C41 C43 1.339 . S
C41 H68 0.931 . S
C42 C43 1.395 . S
C42 C44 1.320 . S
C43 C41 1.339 . S
C43 C42 1.395 . S
C43 H69 0.929 . S
C44 C42 1.320 . S
C44 C45 1.405 . S
C44 H70 0.930 . S
C45 C40 1.479 . S
C45 C44 1.405 . S
C45 H71 0.931 . S
U46 O47 2.454 . S
U46 O48 2.458 . S
U46 C49 2.984 . S
U46 C50 2.847 . S
U46 C63 2.882 . S
U46 O64 2.441 . S
U46 O65 2.420 . S
U46 O66 2.455 . S
U46 O67 2.449 . S
O47 U46 2.454 . S
O47 C49 1.353 . S
O48 U46 2.458 . S
O48 C49 1.286 . S
C49 U46 2.984 . S
C49 O47 1.353 . S
C49 O48 1.286 . S
C49 C51 1.363 . S
C50 C40 1.465 . S
C50 U46 2.847 . S
C50 O64 1.249 . S
C50 O65 1.202 . S
C51 C49 1.363 . S
C51 C53 1.408 . S
C51 C56 1.342 . S
C52 C53 1.310 . S
C52 C55 1.461 . S
C52 H72 0.932 . S
C53 C51 1.408 . S
C53 C52 1.310 . S
C53 H73 0.930 . S
C54 C55 1.474 . S
C54 C56 1.285 . S
C54 H74 0.929 . S
C55 C52 1.461 . S
C55 C54 1.474 . S
C56 C51 1.342 . S
C56 C54 1.285 . S
C56 H75 0.930 . S
C57 C60 1.424 . S
C57 C62 1.245 . S
C57 C63 1.428 . S
C58 C61 1.260 . S
C58 C62 1.477 . S
C58 H76 0.932 . S
C59 C60 1.384 . S
C59 C61 1.479 . S
C59 H77 0.929 . S
C60 C57 1.424 . S
C60 C59 1.384 . S
C60 H78 0.928 . S
C61 C58 1.260 . S
C61 C59 1.479 . S
C62 C57 1.245 . S
C62 C58 1.477 . S
C62 H79 0.932 . S
C63 U46 2.882 . S
C63 C57 1.428 . S
C63 O66 1.301 . S
C63 O67 1.282 . S
O64 U46 2.441 . S
O64 C50 1.249 . S
O65 U46 2.420 . S
O65 C50 1.202 . S
O66 U46 2.455 . S
O66 C63 1.301 . S
O67 U46 2.449 . S
O67 C63 1.282 . S
H68 C41 0.931 . S
H69 C43 0.929 . S
H70 C44 0.930 . S
H71 C45 0.931 . S
H72 C52 0.932 . S
H73 C53 0.930 . S
H74 C54 0.929 . S
H75 C56 0.930 . S
H76 C58 0.932 . S
H77 C59 0.929 . S
H78 C60 0.928 . S
H79 C62 0.932 . S
C80 C81 1.264 . S
C80 C85 1.479 . S
C80 C90 1.465 . S
C81 C80 1.264 . S
C81 C83 1.339 . S
C81 H108 0.931 . S
C82 C83 1.395 . S
C82 C84 1.320 . S
C83 C81 1.339 . S
C83 C82 1.395 . S
C83 H109 0.929 . S
C84 C82 1.320 . S
C84 C85 1.405 . S
C84 H110 0.930 . S
C85 C80 1.479 . S
C85 C84 1.405 . S
C85 H111 0.931 . S
U86 O87 2.454 . S
U86 O88 2.458 . S
U86 C89 2.984 . S
U86 C90 2.847 . S
U86 C103 2.882 . S
U86 O104 2.441 . S
U86 O105 2.420 . S
U86 O106 2.455 . S
U86 O107 2.449 . S
O87 U86 2.454 . S
O87 C89 1.353 . S
O88 U86 2.458 . S
O88 C89 1.286 . S
C89 U86 2.984 . S
C89 O87 1.353 . S
C89 O88 1.286 . S
C89 C91 1.363 . S
C90 C80 1.465 . S
C90 U86 2.847 . S
C90 O104 1.249 . S
C90 O105 1.202 . S
C91 C89 1.363 . S
C91 C93 1.408 . S
C91 C96 1.342 . S
C92 C93 1.310 . S
C92 C95 1.461 . S
C92 H112 0.932 . S
C93 C91 1.408 . S
C93 C92 1.310 . S
C93 H113 0.930 . S
C94 C95 1.474 . S
C94 C96 1.285 . S
C94 H114 0.929 . S
C95 C92 1.461 . S
C95 C94 1.474 . S
C96 C91 1.342 . S
C96 C94 1.285 . S
C96 H115 0.930 . S
C97 C100 1.424 . S
C97 C102 1.245 . S
C97 C103 1.428 . S
C98 C101 1.260 . S
C98 C102 1.477 . S
C98 H116 0.932 . S
C99 C100 1.384 . S
C99 C101 1.479 . S
C99 H117 0.929 . S
C100 C97 1.424 . S
C100 C99 1.384 . S
C100 H118 0.928 . S
C101 C98 1.260 . S
C101 C99 1.479 . S
C102 C97 1.245 . S
C102 C98 1.477 . S
C102 H119 0.932 . S
C103 U86 2.882 . S
C103 C97 1.428 . S
C103 O106 1.301 . S
C103 O107 1.282 . S
O104 U86 2.441 . S
O104 C90 1.249 . S
O105 U86 2.420 . S
O105 C90 1.202 . S
O106 U86 2.455 . S
O106 C103 1.301 . S
O107 U86 2.449 . S
O107 C103 1.282 . S
H108 C81 0.931 . S
H109 C83 0.929 . S
H110 C84 0.930 . S
H111 C85 0.931 . S
H112 C92 0.932 . S
H113 C93 0.930 . S
H114 C94 0.929 . S
H115 C96 0.930 . S
H116 C98 0.932 . S
H117 C99 0.929 . S
H118 C100 0.928 . S
H119 C102 0.932 . S
C120 C121 1.264 . S
C120 C125 1.479 . S
C120 C130 1.465 . S
C121 C120 1.264 . S
C121 C123 1.339 . S
C121 H148 0.931 . S
C122 C123 1.395 . S
C122 C124 1.320 . S
C123 C121 1.339 . S
C123 C122 1.395 . S
C123 H149 0.929 . S
C124 C122 1.320 . S
C124 C125 1.405 . S
C124 H150 0.930 . S
C125 C120 1.479 . S
C125 C124 1.405 . S
C125 H151 0.931 . S
U126 O127 2.454 . S
U126 O128 2.458 . S
U126 C129 2.984 . S
U126 C130 2.847 . S
U126 C143 2.882 . S
U126 O144 2.441 . S
U126 O145 2.420 . S
U126 O146 2.455 . S
U126 O147 2.449 . S
O127 U126 2.454 . S
O127 C129 1.353 . S
O128 U126 2.458 . S
O128 C129 1.286 . S
C129 U126 2.984 . S
C129 O127 1.353 . S
C129 O128 1.286 . S
C129 C131 1.363 . S
C130 C120 1.465 . S
C130 U126 2.847 . S
C130 O144 1.249 . S
C130 O145 1.202 . S
C131 C129 1.363 . S
C131 C133 1.408 . S
C131 C136 1.342 . S
C132 C133 1.310 . S
C132 C135 1.461 . S
C132 H152 0.932 . S
C133 C131 1.408 . S
C133 C132 1.310 . S
C133 H153 0.930 . S
C134 C135 1.474 . S
C134 C136 1.285 . S
C134 H154 0.929 . S
C135 C132 1.461 . S
C135 C134 1.474 . S
C136 C131 1.342 . S
C136 C134 1.285 . S
C136 H155 0.930 . S
C137 C140 1.424 . S
C137 C142 1.245 . S
C137 C143 1.428 . S
C138 C141 1.260 . S
C138 C142 1.477 . S
C138 H156 0.932 . S
C139 C140 1.384 . S
C139 C141 1.479 . S
C139 H157 0.929 . S
C140 C137 1.424 . S
C140 C139 1.384 . S
C140 H158 0.928 . S
C141 C138 1.260 . S
C141 C139 1.479 . S
C142 C137 1.245 . S
C142 C138 1.477 . S
C142 H159 0.932 . S
C143 U126 2.882 . S
C143 C137 1.428 . S
C143 O146 1.301 . S
C143 O147 1.282 . S
O144 U126 2.441 . S
O144 C130 1.249 . S
O145 U126 2.420 . S
O145 C130 1.202 . S
O146 U126 2.455 . S
O146 C143 1.301 . S
O147 U126 2.449 . S
O147 C143 1.282 . S
H148 C121 0.931 . S
H149 C123 0.929 . S
H150 C124 0.930 . S
H151 C125 0.931 . S
H152 C132 0.932 . S
H153 C133 0.930 . S
H154 C134 0.929 . S
H155 C136 0.930 . S
H156 C138 0.932 . S
H157 C139 0.929 . S
H158 C140 0.928 . S
H159 C142 0.932 . S
C160 C161 1.264 . S
C160 C165 1.479 . S
C160 C170 1.465 . S
C161 C160 1.264 . S
C161 C163 1.339 . S
C161 H188 0.931 . S
C162 C163 1.395 . S
C162 C164 1.320 . S
C163 C161 1.339 . S
C163 C162 1.395 . S
C163 H189 0.929 . S
C164 C162 1.320 . S
C164 C165 1.405 . S
C164 H190 0.930 . S
C165 C160 1.479 . S
C165 C164 1.405 . S
C165 H191 0.931 . S
U166 O167 2.454 . S
U166 O168 2.458 . S
U166 C169 2.984 . S
U166 C170 2.847 . S
U166 C183 2.882 . S
U166 O184 2.441 . S
U166 O185 2.420 . S
U166 O186 2.455 . S
U166 O187 2.449 . S
O167 U166 2.454 . S
O167 C169 1.353 . S
O168 U166 2.458 . S
O168 C169 1.286 . S
C169 U166 2.984 . S
C169 O167 1.353 . S
C169 O168 1.286 . S
C169 C171 1.363 . S
C170 C160 1.465 . S
C170 U166 2.847 . S
C170 O184 1.249 . S
C170 O185 1.202 . S
C171 C169 1.363 . S
C171 C173 1.408 . S
C171 C176 1.342 . S
C172 C173 1.310 . S
C172 C175 1.461 . S
C172 H192 0.932 . S
C173 C171 1.408 . S
C173 C172 1.310 . S
C173 H193 0.930 . S
C174 C175 1.474 . S
C174 C176 1.285 . S
C174 H194 0.929 . S
C175 C172 1.461 . S
C175 C174 1.474 . S
C176 C171 1.342 . S
C176 C174 1.285 . S
C176 H195 0.930 . S
C177 C180 1.424 . S
C177 C182 1.245 . S
C177 C183 1.428 . S
C178 C181 1.260 . S
C178 C182 1.477 . S
C178 H196 0.932 . S
C179 C180 1.384 . S
C179 C181 1.479 . S
C179 H197 0.929 . S
C180 C177 1.424 . S
C180 C179 1.384 . S
C180 H198 0.928 . S
C181 C178 1.260 . S
C181 C179 1.479 . S
C182 C177 1.245 . S
C182 C178 1.477 . S
C182 H199 0.932 . S
C183 U166 2.882 . S
C183 C177 1.428 . S
C183 O186 1.301 . S
C183 O187 1.282 . S
O184 U166 2.441 . S
O184 C170 1.249 . S
O185 U166 2.420 . S
O185 C170 1.202 . S
O186 U166 2.455 . S
O186 C183 1.301 . S
O187 U166 2.449 . S
O187 C183 1.282 . S
H188 C161 0.931 . S
H189 C163 0.929 . S
H190 C164 0.930 . S
H191 C165 0.931 . S
H192 C172 0.932 . S
H193 C173 0.930 . S
H194 C174 0.929 . S
H195 C176 0.930 . S
H196 C178 0.932 . S
H197 C179 0.929 . S
H198 C180 0.928 . S
H199 C182 0.932 . S
C200 C201 1.264 . S
C200 C205 1.479 . S
C200 C210 1.465 . S
C201 C200 1.264 . S
C201 C203 1.339 . S
C201 H228 0.931 . S
C202 C203 1.392 . S
C202 C204 1.318 . S
C203 C201 1.339 . S
C203 C202 1.392 . S
C203 H229 0.929 . S
C204 C202 1.318 . S
C204 C205 1.405 . S
C204 H230 0.935 . S
C205 C200 1.479 . S
C205 C204 1.405 . S
C205 H231 0.931 . S
U206 O207 2.454 . S
U206 O208 2.458 . S
U206 C209 2.984 . S
U206 C210 2.847 . S
U206 C223 2.882 . S
U206 O224 2.441 . S
U206 O225 2.420 . S
U206 O226 2.455 . S
U206 O227 2.449 . S
O207 U206 2.454 . S
O207 C209 1.353 . S
O208 U206 2.458 . S
O208 C209 1.286 . S
C209 U206 2.984 . S
C209 O207 1.353 . S
C209 O208 1.286 . S
C209 C211 1.363 . S
C210 C200 1.465 . S
C210 U206 2.847 . S
C210 O224 1.249 . S
C210 O225 1.202 . S
C211 C209 1.363 . S
C211 C213 1.408 . S
C211 C216 1.342 . S
C212 C213 1.310 . S
C212 C215 1.461 . S
C212 H232 0.932 . S
C213 C211 1.408 . S
C213 C212 1.310 . S
C213 H233 0.930 . S
C214 C215 1.474 . S
C214 C216 1.285 . S
C214 H234 0.929 . S
C215 C212 1.461 . S
C215 C214 1.474 . S
C216 C211 1.342 . S
C216 C214 1.285 . S
C216 H235 0.930 . S
C217 C220 1.424 . S
C217 C222 1.245 . S
C217 C223 1.428 . S
C218 C221 1.260 . S
C218 C222 1.477 . S
C218 H236 0.932 . S
C219 C220 1.384 . S
C219 C221 1.479 . S
C219 H237 0.929 . S
C220 C217 1.424 . S
C220 C219 1.384 . S
C220 H238 0.928 . S
C221 C218 1.260 . S
C221 C219 1.479 . S
C222 C217 1.245 . S
C222 C218 1.477 . S
C222 H239 0.932 . S
C223 U206 2.882 . S
C223 C217 1.428 . S
C223 O226 1.301 . S
C223 O227 1.282 . S
O224 U206 2.441 . S
O224 C210 1.249 . S
O225 U206 2.420 . S
O225 C210 1.202 . S
O226 U206 2.455 . S
O226 C223 1.301 . S
O227 U206 2.449 . S
O227 C223 1.282 . S
H228 C201 0.931 . S
H229 C203 0.929 . S
H230 C204 0.935 . S
H231 C205 0.931 . S
H232 C212 0.932 . S
H233 C213 0.930 . S
H234 C214 0.929 . S
H235 C216 0.930 . S
H236 C218 0.932 . S
H237 C219 0.929 . S
H238 C220 0.928 . S
H239 C222 0.932 . S
C240 C241 1.264 . S
C240 C245 1.479 . S
C240 C250 1.465 . S
C241 C240 1.264 . S
C241 C243 1.339 . S
C241 H268 0.931 . S
C242 C243 1.395 . S
C242 C244 1.320 . S
C243 C241 1.339 . S
C243 C242 1.395 . S
C243 H269 0.929 . S
C244 C242 1.320 . S
C244 C245 1.405 . S
C244 H270 0.930 . S
C245 C240 1.479 . S
C245 C244 1.405 . S
C245 H271 0.931 . S
U246 O247 2.454 . S
U246 O248 2.458 . S
U246 C249 2.984 . S
U246 C250 2.847 . S
U246 C263 2.882 . S
U246 O264 2.441 . S
U246 O265 2.420 . S
U246 O266 2.455 . S
U246 O267 2.449 . S
O247 U246 2.454 . S
O247 C249 1.353 . S
O248 U246 2.458 . S
O248 C249 1.286 . S
C249 U246 2.984 . S
C249 O247 1.353 . S
C249 O248 1.286 . S
C249 C251 1.363 . S
C250 C240 1.465 . S
C250 U246 2.847 . S
C250 O264 1.249 . S
C250 O265 1.202 . S
C251 C249 1.363 . S
C251 C253 1.408 . S
C251 C256 1.342 . S
C252 C253 1.310 . S
C252 C255 1.461 . S
C252 H272 0.932 . S
C253 C251 1.408 . S
C253 C252 1.310 . S
C253 H273 0.930 . S
C254 C255 1.474 . S
C254 C256 1.285 . S
C254 H274 0.929 . S
C255 C252 1.461 . S
C255 C254 1.474 . S
C256 C251 1.342 . S
C256 C254 1.285 . S
C256 H275 0.930 . S
C257 C260 1.424 . S
C257 C262 1.245 . S
C257 C263 1.428 . S
C258 C261 1.260 . S
C258 C262 1.477 . S
C258 H276 0.932 . S
C259 C260 1.384 . S
C259 C261 1.479 . S
C259 H277 0.929 . S
C260 C257 1.424 . S
C260 C259 1.384 . S
C260 H278 0.928 . S
C261 C258 1.260 . S
C261 C259 1.479 . S
C262 C257 1.245 . S
C262 C258 1.477 . S
C262 H279 0.932 . S
C263 U246 2.882 . S
C263 C257 1.428 . S
C263 O266 1.301 . S
C263 O267 1.282 . S
O264 U246 2.441 . S
O264 C250 1.249 . S
O265 U246 2.420 . S
O265 C250 1.202 . S
O266 U246 2.455 . S
O266 C263 1.301 . S
O267 U246 2.449 . S
O267 C263 1.282 . S
H268 C241 0.931 . S
H269 C243 0.929 . S
H270 C244 0.930 . S
H271 C245 0.931 . S
H272 C252 0.932 . S
H273 C253 0.930 . S
H274 C254 0.929 . S
H275 C256 0.930 . S
H276 C258 0.932 . S
H277 C259 0.929 . S
H278 C260 0.928 . S
H279 C262 0.932 . S
C280 C281 1.264 . S
C280 C285 1.479 . S
C280 C290 1.465 . S
C281 C280 1.264 . S
C281 C283 1.339 . S
C281 H308 0.931 . S
C282 C283 1.395 . S
C282 C284 1.320 . S
C283 C281 1.339 . S
C283 C282 1.395 . S
C283 H309 0.929 . S
C284 C282 1.320 . S
C284 C285 1.405 . S
C284 H310 0.930 . S
C285 C280 1.479 . S
C285 C284 1.405 . S
C285 H311 0.931 . S
U286 O287 2.454 . S
U286 O288 2.458 . S
U286 C289 2.984 . S
U286 C290 2.847 . S
U286 C303 2.882 . S
U286 O304 2.441 . S
U286 O305 2.420 . S
U286 O306 2.455 . S
U286 O307 2.449 . S
O287 U286 2.454 . S
O287 C289 1.353 . S
O288 U286 2.458 . S
O288 C289 1.286 . S
C289 U286 2.984 . S
C289 O287 1.353 . S
C289 O288 1.286 . S
C289 C291 1.363 . S
C290 C280 1.465 . S
C290 U286 2.847 . S
C290 O304 1.249 . S
C290 O305 1.202 . S
C291 C289 1.363 . S
C291 C293 1.408 . S
C291 C296 1.342 . S
C292 C293 1.310 . S
C292 C295 1.461 . S
C292 H312 0.932 . S
C293 C291 1.408 . S
C293 C292 1.310 . S
C293 H313 0.930 . S
C294 C295 1.474 . S
C294 C296 1.285 . S
C294 H314 0.929 . S
C295 C292 1.461 . S
C295 C294 1.474 . S
C296 C291 1.342 . S
C296 C294 1.285 . S
C296 H315 0.930 . S
C297 C300 1.424 . S
C297 C302 1.245 . S
C297 C303 1.428 . S
C298 C301 1.260 . S
C298 C302 1.477 . S
C298 H316 0.932 . S
C299 C300 1.384 . S
C299 C301 1.479 . S
C299 H317 0.929 . S
C300 C297 1.424 . S
C300 C299 1.384 . S
C300 H318 0.928 . S
C301 C298 1.260 . S
C301 C299 1.479 . S
C302 C297 1.245 . S
C302 C298 1.477 . S
C302 H319 0.932 . S
C303 U286 2.882 . S
C303 C297 1.428 . S
C303 O306 1.301 . S
C303 O307 1.282 . S
O304 U286 2.441 . S
O304 C290 1.249 . S
O305 U286 2.420 . S
O305 C290 1.202 . S
O306 U286 2.455 . S
O306 C303 1.301 . S
O307 U286 2.449 . S
O307 C303 1.282 . S
H308 C281 0.931 . S
H309 C283 0.929 . S
H310 C284 0.930 . S
H311 C285 0.931 . S
H312 C292 0.932 . S
H313 C293 0.930 . S
H314 C294 0.929 . S
H315 C296 0.930 . S
H316 C298 0.932 . S
H317 C299 0.929 . S
H318 C300 0.928 . S
H319 C302 0.932 . S
Tb320 N349 2.617 . S
Tb320 N355 2.572 . S
Tb320 O364 2.465 . S
Tb320 O365 2.387 . S
Tb320 O367 2.428 . S
Tb320 O368 2.326 . S
Tb320 O372 2.349 . S
Tb320 O375 2.393 . S
Tb320 C384 2.802 . S
C321 N322 1.379 . S
C321 C324 1.416 . S
C321 C328 1.424 . S
N322 C321 1.379 . S
N322 C325 1.334 . S
N322 Tb331 2.617 . S
C323 C325 1.390 . S
C323 C326 1.339 . S
C323 H343 0.930 . S
C324 C321 1.416 . S
C324 C326 1.416 . S
C324 C330 1.448 . S
C325 N322 1.334 . S
C325 C323 1.390 . S
C325 H336 0.930 . S
C326 C323 1.339 . S
C326 C324 1.416 . S
C326 H347 0.930 . S
C327 C328 1.413 . S
C327 C329 1.427 . S
C327 C333 1.416 . S
C328 C321 1.424 . S
C328 C327 1.413 . S
C328 N332 1.361 . S
C329 C327 1.427 . S
C329 C330 1.328 . S
C329 H344 0.929 . S
C330 C324 1.448 . S
C330 C329 1.328 . S
C330 H345 0.930 . S
Tb331 N322 2.617 . S
Tb331 N332 2.572 . S
Tb331 O366 2.351 . S
Tb331 O369 2.393 . S
Tb331 O370 2.465 . S
Tb331 O371 2.387 . S
Tb331 O373 2.428 . S
Tb331 O374 2.308 1_655 S
Tb331 C395 2.802 . S
N332 C328 1.361 . S
N332 Tb331 2.572 . S
N332 C334 1.340 . S
C333 C327 1.416 . S
C333 C335 1.332 . S
C333 H341 0.931 . S
C334 N332 1.340 . S
C334 C335 1.407 . S
C334 H340 0.930 . S
C335 C333 1.332 . S
C335 C334 1.407 . S
C335 H337 0.929 . S
H336 C325 0.930 . S
H337 C335 0.929 . S
H338 C353 0.930 . S
H339 C360 0.929 . S
H340 C334 0.930 . S
H341 C333 0.931 . S
H342 C356 0.930 . S
H343 C323 0.930 . S
H344 C329 0.929 . S
H345 C330 0.930 . S
H346 C351 0.930 . S
H347 C326 0.930 . S
H348 C359 0.931 . S
N349 Tb320 2.617 . S
N349 C350 1.379 . S
N349 C353 1.334 . S
C350 N349 1.379 . S
C350 C352 1.416 . S
C350 C358 1.424 . S
C351 H346 0.930 . S
C351 C353 1.390 . S
C351 C354 1.339 . S
C352 C350 1.416 . S
C352 C354 1.416 . S
C352 C385 1.448 . S
C353 H338 0.930 . S
C353 N349 1.334 . S
C353 C351 1.390 . S
C354 C351 1.339 . S
C354 C352 1.416 . S
C354 H361 0.930 . S
N355 Tb320 2.572 . S
N355 C356 1.340 . S
N355 C358 1.361 . S
C356 H342 0.930 . S
C356 N355 1.340 . S
C356 C360 1.407 . S
C357 C358 1.413 . S
C357 C359 1.416 . S
C357 C386 1.427 . S
C358 C350 1.424 . S
C358 N355 1.361 . S
C358 C357 1.413 . S
C359 H348 0.931 . S
C359 C357 1.416 . S
C359 C360 1.332 . S
C360 H339 0.929 . S
C360 C356 1.407 . S
C360 C359 1.332 . S
H361 C354 0.930 . S
H362 C385 0.930 . S
H363 C386 0.929 . S
O364 Tb320 2.465 . S
O364 C384 1.264 . S
O365 Tb320 2.387 . S
O365 C376 1.264 . S
O366 Tb331 2.351 . S
O366 C376 1.241 1_655 S
O367 Tb320 2.428 . S
O367 C384 1.256 . S
O368 Tb320 2.326 . S
O368 C383 1.245 1_455 S
O369 Tb331 2.393 . S
O369 C383 1.248 . S
O370 Tb331 2.465 . S
O370 C395 1.264 . S
O371 Tb331 2.387 . S
O371 C387 1.264 . S
O372 Tb320 2.349 . S
O372 C387 1.243 1_455 S
O373 Tb331 2.428 . S
O373 C395 1.256 . S
O374 Tb331 2.308 1_455 S
O374 C394 1.266 . S
O375 Tb320 2.393 . S
O375 C394 1.248 . S
C376 O365 1.264 . S
C376 O366 1.241 1_455 S
C377 C380 1.399 . S
C377 C382 1.383 . S
C377 C384 1.496 . S
C378 C379 1.399 . S
C378 C382 1.389 . S
C379 C378 1.399 . S
C379 C381 1.380 . S
C379 H396 0.929 . S
C380 C377 1.399 . S
C380 C381 1.392 . S
C380 H397 0.929 . S
C381 C379 1.380 . S
C381 C380 1.392 . S
C381 H398 0.929 . S
C382 C377 1.383 . S
C382 C378 1.389 . S
C382 H399 0.931 . S
C383 O368 1.245 1_655 S
C383 O369 1.248 . S
C384 Tb320 2.802 . S
C384 O364 1.264 . S
C384 O367 1.256 . S
C384 C377 1.496 . S
C385 C352 1.448 . S
C385 H362 0.930 . S
C385 C386 1.328 . S
C386 C357 1.427 . S
C386 H363 0.929 . S
C386 C385 1.328 . S
C387 O371 1.264 . S
C387 O372 1.243 1_655 S
C388 C391 1.399 . S
C388 C392 1.383 . S
C388 C395 1.496 . S
C389 C390 1.399 . S
C389 C392 1.389 . S
C390 C389 1.399 . S
C390 C393 1.380 . S
C390 H400 0.929 . S
C391 C388 1.399 . S
C391 C393 1.392 . S
C391 H401 0.929 . S
C392 C388 1.383 . S
C392 C389 1.389 . S
C392 H402 0.931 . S
C393 C390 1.380 . S
C393 C391 1.392 . S
C393 H403 0.929 . S
C394 O374 1.266 . S
C394 O375 1.248 . S
C395 Tb331 2.802 . S
C395 O370 1.264 . S
C395 O373 1.256 . S
C395 C388 1.496 . S
H396 C379 0.929 . S
H397 C380 0.929 . S
H398 C381 0.929 . S
H399 C382 0.931 . S
H400 C390 0.929 . S
H401 C391 0.929 . S
H402 C392 0.931 . S
H403 C393 0.929 . S
Tb404 N433 2.617 . S
Tb404 N439 2.572 . S
Tb404 O448 2.465 . S
Tb404 O449 2.387 . S
Tb404 O451 2.428 . S
Tb404 O452 2.308 . S
Tb404 O456 2.349 . S
Tb404 O459 2.393 . S
Tb404 C468 2.802 . S
C405 N406 1.379 . S
C405 C408 1.416 . S
C405 C412 1.424 . S
N406 C405 1.379 . S
N406 C409 1.334 . S
N406 Tb415 2.617 . S
C407 C409 1.390 . S
C407 C410 1.339 . S
C407 H427 0.930 . S
C408 C405 1.416 . S
C408 C410 1.416 . S
C408 C414 1.448 . S
C409 N406 1.334 . S
C409 C407 1.390 . S
C409 H420 0.930 . S
C410 C407 1.339 . S
C410 C408 1.416 . S
C410 H431 0.930 . S
C411 C412 1.413 . S
C411 C413 1.427 . S
C411 C417 1.416 . S
C412 C405 1.424 . S
C412 C411 1.413 . S
C412 N416 1.361 . S
C413 C411 1.427 . S
C413 C414 1.328 . S
C413 H428 0.929 . S
C414 C408 1.448 . S
C414 C413 1.328 . S
C414 H429 0.930 . S
Tb415 N406 2.617 . S
Tb415 N416 2.572 . S
Tb415 O450 2.349 . S
Tb415 O453 2.393 . S
Tb415 O454 2.465 . S
Tb415 O455 2.387 . S
Tb415 O457 2.428 . S
Tb415 O458 2.308 . S
Tb415 C479 2.802 . S
N416 C412 1.361 . S
N416 Tb415 2.572 . S
N416 C418 1.340 . S
C417 C411 1.416 . S
C417 C419 1.332 . S
C417 H425 0.931 . S
C418 N416 1.340 . S
C418 C419 1.407 . S
C418 H424 0.930 . S
C419 C417 1.332 . S
C419 C418 1.407 . S
C419 H421 0.929 . S
H420 C409 0.930 . S
H421 C419 0.929 . S
H422 C437 0.930 . S
H423 C444 0.929 . S
H424 C418 0.930 . S
H425 C417 0.931 . S
H426 C440 0.930 . S
H427 C407 0.930 . S
H428 C413 0.929 . S
H429 C414 0.930 . S
H430 C435 0.930 . S
H431 C410 0.930 . S
H432 C443 0.931 . S
N433 Tb404 2.617 . S
N433 C434 1.379 . S
N433 C437 1.334 . S
C434 N433 1.379 . S
C434 C436 1.416 . S
C434 C442 1.424 . S
C435 H430 0.930 . S
C435 C437 1.390 . S
C435 C438 1.339 . S
C436 C434 1.416 . S
C436 C438 1.416 . S
C436 C469 1.448 . S
C437 H422 0.930 . S
C437 N433 1.334 . S
C437 C435 1.390 . S
C438 C435 1.339 . S
C438 C436 1.416 . S
C438 H445 0.930 . S
N439 Tb404 2.572 . S
N439 C440 1.340 . S
N439 C442 1.361 . S
C440 H426 0.930 . S
C440 N439 1.340 . S
C440 C444 1.407 . S
C441 C442 1.413 . S
C441 C443 1.416 . S
C441 C470 1.427 . S
C442 C434 1.424 . S
C442 N439 1.361 . S
C442 C441 1.413 . S
C443 H432 0.931 . S
C443 C441 1.416 . S
C443 C444 1.332 . S
C444 H423 0.929 . S
C444 C440 1.407 . S
C444 C443 1.332 . S
H445 C438 0.930 . S
H446 C469 0.930 . S
H447 C470 0.929 . S
O448 Tb404 2.465 . S
O448 C468 1.264 . S
O449 Tb404 2.387 . S
O449 C460 1.264 . S
O450 Tb415 2.349 . S
O450 C460 1.243 . S
O451 Tb404 2.428 . S
O451 C468 1.256 . S
O452 Tb404 2.308 . S
O452 C467 1.266 . S
O453 Tb415 2.393 . S
O453 C467 1.248 . S
O454 Tb415 2.465 . S
O454 C479 1.264 . S
O455 Tb415 2.387 . S
O455 C471 1.264 . S
O456 Tb404 2.349 . S
O456 C471 1.243 . S
O457 Tb415 2.428 . S
O457 C479 1.256 . S
O458 Tb415 2.308 . S
O458 C478 1.266 . S
O459 Tb404 2.393 . S
O459 C478 1.248 . S
C460 O449 1.264 . S
C460 O450 1.243 . S
C461 C464 1.399 . S
C461 C466 1.383 . S
C461 C468 1.496 . S
C462 C463 1.399 . S
C462 C466 1.389 . S
C463 C462 1.399 . S
C463 C465 1.380 . S
C463 H480 0.929 . S
C464 C461 1.399 . S
C464 C465 1.392 . S
C464 H481 0.929 . S
C465 C463 1.380 . S
C465 C464 1.392 . S
C465 H482 0.929 . S
C466 C461 1.383 . S
C466 C462 1.389 . S
C466 H483 0.931 . S
C467 O452 1.266 . S
C467 O453 1.248 . S
C468 Tb404 2.802 . S
C468 O448 1.264 . S
C468 O451 1.256 . S
C468 C461 1.496 . S
C469 C436 1.448 . S
C469 H446 0.930 . S
C469 C470 1.328 . S
C470 C441 1.427 . S
C470 H447 0.929 . S
C470 C469 1.328 . S
C471 O455 1.264 . S
C471 O456 1.243 . S
C472 C475 1.399 . S
C472 C476 1.383 . S
C472 C479 1.496 . S
C473 C474 1.399 . S
C473 C476 1.389 . S
C474 C473 1.399 . S
C474 C477 1.380 . S
C474 H484 0.929 . S
C475 C472 1.399 . S
C475 C477 1.392 . S
C475 H485 0.929 . S
C476 C472 1.383 . S
C476 C473 1.389 . S
C476 H486 0.931 . S
C477 C474 1.380 . S
C477 C475 1.392 . S
C477 H487 0.929 . S
C478 O458 1.266 . S
C478 O459 1.248 . S
C479 Tb415 2.802 . S
C479 O454 1.264 . S
C479 O457 1.256 . S
C479 C472 1.496 . S
H480 C463 0.929 . S
H481 C464 0.929 . S
H482 C465 0.929 . S
H483 C466 0.931 . S
H484 C474 0.929 . S
H485 C475 0.929 . S
H486 C476 0.931 . S
H487 C477 0.929 . S
Tb488 N517 2.617 . S
Tb488 N523 2.572 . S
Tb488 O532 2.465 . S
Tb488 O533 2.387 . S
Tb488 O535 2.428 . S
Tb488 O536 2.308 . S
Tb488 O540 2.349 . S
Tb488 O543 2.393 . S
Tb488 C552 2.802 . S
C489 N490 1.379 . S
C489 C492 1.416 . S
C489 C496 1.424 . S
N490 C489 1.379 . S
N490 C493 1.334 . S
N490 Tb499 2.617 . S
C491 C493 1.390 . S
C491 C494 1.339 . S
C491 H511 0.930 . S
C492 C489 1.416 . S
C492 C494 1.416 . S
C492 C498 1.448 . S
C493 N490 1.334 . S
C493 C491 1.390 . S
C493 H504 0.930 . S
C494 C491 1.339 . S
C494 C492 1.416 . S
C494 H515 0.930 . S
C495 C496 1.413 . S
C495 C497 1.427 . S
C495 C501 1.416 . S
C496 C489 1.424 . S
C496 C495 1.413 . S
C496 N500 1.361 . S
C497 C495 1.427 . S
C497 C498 1.328 . S
C497 H512 0.929 . S
C498 C492 1.448 . S
C498 C497 1.328 . S
C498 H513 0.930 . S
Tb499 N490 2.617 . S
Tb499 N500 2.572 . S
Tb499 O534 2.349 1_655 S
Tb499 O537 2.393 . S
Tb499 O538 2.465 . S
Tb499 O539 2.387 . S
Tb499 O541 2.428 . S
Tb499 O542 2.308 1_655 S
Tb499 C563 2.802 . S
N500 C496 1.361 . S
N500 Tb499 2.572 . S
N500 C502 1.340 . S
C501 C495 1.416 . S
C501 C503 1.332 . S
C501 H509 0.931 . S
C502 N500 1.340 . S
C502 C503 1.407 . S
C502 H508 0.930 . S
C503 C501 1.332 . S
C503 C502 1.407 . S
C503 H505 0.929 . S
H504 C493 0.930 . S
H505 C503 0.929 . S
H506 C521 0.930 . S
H507 C528 0.929 . S
H508 C502 0.930 . S
H509 C501 0.931 . S
H510 C524 0.930 . S
H511 C491 0.930 . S
H512 C497 0.929 . S
H513 C498 0.930 . S
H514 C519 0.930 . S
H515 C494 0.930 . S
H516 C527 0.931 . S
N517 Tb488 2.617 . S
N517 C518 1.379 . S
N517 C521 1.334 . S
C518 N517 1.379 . S
C518 C520 1.416 . S
C518 C526 1.424 . S
C519 H514 0.930 . S
C519 C521 1.390 . S
C519 C522 1.339 . S
C520 C518 1.416 . S
C520 C522 1.416 . S
C520 C553 1.448 . S
C521 H506 0.930 . S
C521 N517 1.334 . S
C521 C519 1.390 . S
C522 C519 1.339 . S
C522 C520 1.416 . S
C522 H529 0.930 . S
N523 Tb488 2.572 . S
N523 C524 1.340 . S
N523 C526 1.361 . S
C524 H510 0.930 . S
C524 N523 1.340 . S
C524 C528 1.407 . S
C525 C526 1.413 . S
C525 C527 1.416 . S
C525 C554 1.427 . S
C526 C518 1.424 . S
C526 N523 1.361 . S
C526 C525 1.413 . S
C527 H516 0.931 . S
C527 C525 1.416 . S
C527 C528 1.332 . S
C528 H507 0.929 . S
C528 C524 1.407 . S
C528 C527 1.332 . S
H529 C522 0.930 . S
H530 C553 0.930 . S
H531 C554 0.929 . S
O532 Tb488 2.465 . S
O532 C552 1.264 . S
O533 Tb488 2.387 . S
O533 C544 1.264 . S
O534 Tb499 2.349 1_455 S
O534 C544 1.243 . S
O535 Tb488 2.428 . S
O535 C552 1.256 . S
O536 Tb488 2.308 . S
O536 C551 1.266 1_455 S
O537 Tb499 2.393 . S
O537 C551 1.248 . S
O538 Tb499 2.465 . S
O538 C563 1.264 . S
O539 Tb499 2.387 . S
O539 C555 1.264 . S
O540 Tb488 2.349 . S
O540 C555 1.243 1_455 S
O541 Tb499 2.428 . S
O541 C563 1.256 . S
O542 Tb499 2.308 1_455 S
O542 C562 1.266 . S
O543 Tb488 2.393 . S
O543 C562 1.248 . S
C544 O533 1.264 . S
C544 O534 1.243 . S
C545 C548 1.399 . S
C545 C550 1.383 . S
C545 C552 1.496 . S
C546 C547 1.399 . S
C546 C550 1.389 . S
C547 C546 1.399 . S
C547 C549 1.380 . S
C547 H564 0.929 . S
C548 C545 1.399 . S
C548 C549 1.392 . S
C548 H565 0.929 . S
C549 C547 1.380 . S
C549 C548 1.392 . S
C549 H566 0.929 . S
C550 C545 1.383 . S
C550 C546 1.389 . S
C550 H567 0.931 . S
C551 O536 1.266 1_655 S
C551 O537 1.248 . S
C552 Tb488 2.802 . S
C552 O532 1.264 . S
C552 O535 1.256 . S
C552 C545 1.496 . S
C553 C520 1.448 . S
C553 H530 0.930 . S
C553 C554 1.328 . S
C554 C525 1.427 . S
C554 H531 0.929 . S
C554 C553 1.328 . S
C555 O539 1.264 . S
C555 O540 1.243 1_655 S
C556 C559 1.399 . S
C556 C560 1.383 . S
C556 C563 1.496 . S
C557 C558 1.399 . S
C557 C560 1.389 . S
C558 C557 1.399 . S
C558 C561 1.380 . S
C558 H568 0.929 . S
C559 C556 1.399 . S
C559 C561 1.392 . S
C559 H569 0.929 . S
C560 C556 1.383 . S
C560 C557 1.389 . S
C560 H570 0.931 . S
C561 C558 1.380 . S
C561 C559 1.392 . S
C561 H571 0.929 . S
C562 O542 1.266 . S
C562 O543 1.248 . S
C563 Tb499 2.802 . S
C563 O538 1.264 . S
C563 O541 1.256 . S
C563 C556 1.496 . S
H564 C547 0.929 . S
H565 C548 0.929 . S
H566 C549 0.929 . S
H567 C550 0.931 . S
H568 C558 0.929 . S
H569 C559 0.929 . S
H570 C560 0.931 . S
H571 C561 0.929 . S
Tb572 N601 2.617 . S
Tb572 N607 2.572 . S
Tb572 O616 2.465 . S
Tb572 O617 2.387 . S
Tb572 O619 2.428 . S
Tb572 O620 2.308 . S
Tb572 O624 2.349 . S
Tb572 O627 2.393 . S
Tb572 C636 2.802 . S
C573 N574 1.379 . S
C573 C576 1.416 . S
C573 C580 1.424 . S
N574 C573 1.379 . S
N574 C577 1.334 . S
N574 Tb583 2.617 . S
C575 C577 1.390 . S
C575 C578 1.339 . S
C575 H595 0.930 . S
C576 C573 1.416 . S
C576 C578 1.416 . S
C576 C582 1.448 . S
C577 N574 1.334 . S
C577 C575 1.390 . S
C577 H588 0.930 . S
C578 C575 1.339 . S
C578 C576 1.416 . S
C578 H599 0.930 . S
C579 C580 1.413 . S
C579 C581 1.427 . S
C579 C585 1.416 . S
C580 C573 1.424 . S
C580 C579 1.413 . S
C580 N584 1.361 . S
C581 C579 1.427 . S
C581 C582 1.328 . S
C581 H596 0.929 . S
C582 C576 1.448 . S
C582 C581 1.328 . S
C582 H597 0.930 . S
Tb583 N574 2.617 . S
Tb583 N584 2.572 . S
Tb583 O618 2.349 . S
Tb583 O621 2.393 . S
Tb583 O622 2.465 . S
Tb583 O623 2.387 . S
Tb583 O625 2.428 . S
Tb583 O626 2.308 . S
Tb583 C647 2.802 . S
N584 C580 1.361 . S
N584 Tb583 2.572 . S
N584 C586 1.340 . S
C585 C579 1.416 . S
C585 C587 1.332 . S
C585 H593 0.931 . S
C586 N584 1.340 . S
C586 C587 1.407 . S
C586 H592 0.930 . S
C587 C585 1.332 . S
C587 C586 1.407 . S
C587 H589 0.929 . S
H588 C577 0.930 . S
H589 C587 0.929 . S
H590 C605 0.930 . S
H591 C612 0.929 . S
H592 C586 0.930 . S
H593 C585 0.931 . S
H594 C608 0.930 . S
H595 C575 0.930 . S
H596 C581 0.929 . S
H597 C582 0.930 . S
H598 C603 0.930 . S
H599 C578 0.930 . S
H600 C611 0.931 . S
N601 Tb572 2.617 . S
N601 C602 1.379 . S
N601 C605 1.334 . S
C602 N601 1.379 . S
C602 C604 1.416 . S
C602 C610 1.424 . S
C603 H598 0.930 . S
C603 C605 1.390 . S
C603 C606 1.339 . S
C604 C602 1.416 . S
C604 C606 1.416 . S
C604 C637 1.448 . S
C605 H590 0.930 . S
C605 N601 1.334 . S
C605 C603 1.390 . S
C606 C603 1.339 . S
C606 C604 1.416 . S
C606 H613 0.930 . S
N607 Tb572 2.572 . S
N607 C608 1.340 . S
N607 C610 1.361 . S
C608 H594 0.930 . S
C608 N607 1.340 . S
C608 C612 1.407 . S
C609 C610 1.413 . S
C609 C611 1.416 . S
C609 C638 1.427 . S
C610 C602 1.424 . S
C610 N607 1.361 . S
C610 C609 1.413 . S
C611 H600 0.931 . S
C611 C609 1.416 . S
C611 C612 1.332 . S
C612 H591 0.929 . S
C612 C608 1.407 . S
C612 C611 1.332 . S
H613 C606 0.930 . S
H614 C637 0.930 . S
H615 C638 0.929 . S
O616 Tb572 2.465 . S
O616 C636 1.264 . S
O617 Tb572 2.387 . S
O617 C628 1.264 . S
O618 Tb583 2.349 . S
O618 C628 1.243 . S
O619 Tb572 2.428 . S
O619 C636 1.256 . S
O620 Tb572 2.308 . S
O620 C635 1.266 . S
O621 Tb583 2.393 . S
O621 C635 1.248 . S
O622 Tb583 2.465 . S
O622 C647 1.264 . S
O623 Tb583 2.387 . S
O623 C639 1.264 . S
O624 Tb572 2.349 . S
O624 C639 1.243 . S
O625 Tb583 2.428 . S
O625 C647 1.256 . S
O626 Tb583 2.308 . S
O626 C646 1.266 . S
O627 Tb572 2.393 . S
O627 C646 1.248 . S
C628 O617 1.264 . S
C628 O618 1.243 . S
C629 C632 1.399 . S
C629 C634 1.383 . S
C629 C636 1.496 . S
C630 C631 1.399 . S
C630 C634 1.389 . S
C631 C630 1.399 . S
C631 C633 1.380 . S
C631 H648 0.929 . S
C632 C629 1.399 . S
C632 C633 1.392 . S
C632 H649 0.929 . S
C633 C631 1.380 . S
C633 C632 1.392 . S
C633 H650 0.929 . S
C634 C629 1.383 . S
C634 C630 1.389 . S
C634 H651 0.931 . S
C635 O620 1.266 . S
C635 O621 1.248 . S
C636 Tb572 2.802 . S
C636 O616 1.264 . S
C636 O619 1.256 . S
C636 C629 1.496 . S
C637 C604 1.448 . S
C637 H614 0.930 . S
C637 C638 1.328 . S
C638 C609 1.427 . S
C638 H615 0.929 . S
C638 C637 1.328 . S
C639 O623 1.264 . S
C639 O624 1.243 . S
C640 C643 1.399 . S
C640 C644 1.383 . S
C640 C647 1.496 . S
C641 C642 1.399 . S
C641 C644 1.389 . S
C642 C641 1.399 . S
C642 C645 1.380 . S
C642 H652 0.929 . S
C643 C640 1.399 . S
C643 C645 1.392 . S
C643 H653 0.929 . S
C644 C640 1.383 . S
C644 C641 1.389 . S
C644 H654 0.931 . S
C645 C642 1.380 . S
C645 C643 1.392 . S
C645 H655 0.929 . S
C646 O626 1.266 . S
C646 O627 1.248 . S
C647 Tb583 2.802 . S
C647 O622 1.264 . S
C647 O625 1.256 . S
C647 C640 1.496 . S
H648 C631 0.929 . S
H649 C632 0.929 . S
H650 C633 0.929 . S
H651 C634 0.931 . S
H652 C642 0.929 . S
H653 C643 0.929 . S
H654 C644 0.931 . S
H655 C645 0.929 . S
C656 C657 1.349 . S
C656 C658 1.327 1_565 S
C656 H681 0.950 . S
C657 C656 1.349 . S
C657 C673 1.349 . S
C658 C656 1.327 1_545 S
C658 C677 1.429 . S
C658 H682 0.950 . S
C659 C676 1.574 . S
C659 C678 1.368 . S
C659 H683 0.949 . S
H660 C664 0.949 . S
C661 C662 1.349 . S
C661 C663 1.327 . S
C661 H684 0.950 . S
C662 C661 1.349 . S
C662 C674 1.349 . S
C663 C661 1.327 . S
C663 C679 1.429 . S
C663 H685 0.950 . S
C664 H660 0.949 . S
C664 C672 1.574 . S
C664 C680 1.368 . S
H665 C673 0.950 . S
H666 C671 0.942 1_545 S
H667 C672 0.949 . S
H668 C674 0.950 . S
H669 C675 0.950 . S
H670 C676 0.949 . S
C671 H666 0.942 1_565 S
C671 C673 1.352 . S
C671 C677 1.412 1_565 S
C672 C664 1.574 . S
C672 H667 0.949 . S
C672 C678 1.368 . S
C673 C657 1.349 . S
C673 H665 0.950 . S
C673 C671 1.352 . S
C674 C662 1.349 . S
C674 H668 0.950 . S
C674 C675 1.327 . S
C675 H669 0.950 . S
C675 C674 1.327 . S
C675 C679 1.429 . S
C676 C659 1.574 . S
C676 H670 0.949 . S
C676 C680 1.368 . S
C677 C658 1.429 . S
C677 C671 1.412 1_545 S
C677 C678 1.523 . S
C678 C659 1.368 . S
C678 C672 1.368 . S
C678 C677 1.523 . S
C679 C663 1.429 . S
C679 C675 1.429 . S
C679 C680 1.523 . S
C680 C664 1.368 . S
C680 C676 1.368 . S
C680 C679 1.523 . S
H681 C656 0.950 . S
H682 C658 0.950 . S
H683 C659 0.949 . S
H684 C661 0.950 . S
H685 C663 0.950 . S
C686 C687 1.349 . S
C686 C688 1.327 . S
C686 H711 0.950 . S
C687 C686 1.349 . S
C687 C703 1.349 . S
C688 C686 1.327 . S
C688 C707 1.429 . S
C688 H712 0.950 . S
C689 C706 1.574 . S
C689 C708 1.368 . S
C689 H713 0.949 . S
H690 C694 0.949 . S
C691 C692 1.349 . S
C691 C693 1.327 . S
C691 H714 0.950 . S
C692 C691 1.349 . S
C692 C704 1.349 . S
C693 C691 1.327 . S
C693 C709 1.429 . S
C693 H715 0.950 . S
C694 H690 0.949 . S
C694 C702 1.574 . S
C694 C710 1.368 . S
H695 C703 0.950 . S
H696 C701 0.950 . S
H697 C702 0.949 . S
H698 C704 0.950 . S
H699 C705 0.950 . S
H700 C706 0.949 . S
C701 H696 0.950 . S
C701 C703 1.327 . S
C701 C707 1.429 . S
C702 C694 1.574 . S
C702 H697 0.949 . S
C702 C708 1.368 . S
C703 C687 1.349 . S
C703 H695 0.950 . S
C703 C701 1.327 . S
C704 C692 1.349 . S
C704 H698 0.950 . S
C704 C705 1.327 . S
C705 H699 0.950 . S
C705 C704 1.327 . S
C705 C709 1.429 . S
C706 C689 1.574 . S
C706 H700 0.949 . S
C706 C710 1.368 . S
C707 C688 1.429 . S
C707 C701 1.429 . S
C707 C708 1.523 . S
C708 C689 1.368 . S
C708 C702 1.368 . S
C708 C707 1.523 . S
C709 C693 1.429 . S
C709 C705 1.429 . S
C709 C710 1.523 . S
C710 C694 1.368 . S
C710 C706 1.368 . S
C710 C709 1.523 . S
H711 C686 0.950 . S
H712 C688 0.950 . S
H713 C689 0.949 . S
H714 C691 0.950 . S
H715 C693 0.950 . S
C716 C717 1.349 . S
C716 C718 1.327 . S
C716 H741 0.950 . S
C717 C716 1.349 . S
C717 C733 1.349 . S
C718 C716 1.327 . S
C718 C737 1.429 . S
C718 H742 0.950 . S
C719 C736 1.574 . S
C719 C738 1.368 . S
C719 H743 0.949 . S
H720 C724 0.949 . S
C721 C722 1.349 . S
C721 C723 1.327 . S
C721 H744 0.950 . S
C722 C721 1.349 . S
C722 C734 1.349 . S
C723 C721 1.327 . S
C723 C739 1.429 . S
C723 H745 0.950 . S
C724 H720 0.949 . S
C724 C732 1.574 . S
C724 C740 1.368 . S
H725 C733 0.950 . S
H726 C731 0.950 . S
H727 C732 0.949 . S
H728 C734 0.950 . S
H729 C735 0.950 . S
H730 C736 0.949 . S
C731 H726 0.950 . S
C731 C733 1.327 . S
C731 C737 1.429 . S
C732 C724 1.574 . S
C732 H727 0.949 . S
C732 C738 1.368 . S
C733 C717 1.349 . S
C733 H725 0.950 . S
C733 C731 1.327 . S
C734 C722 1.349 . S
C734 H728 0.950 . S
C734 C735 1.327 . S
C735 H729 0.950 . S
C735 C734 1.327 . S
C735 C739 1.429 . S
C736 C719 1.574 . S
C736 H730 0.949 . S
C736 C740 1.368 . S
C737 C718 1.429 . S
C737 C731 1.429 . S
C737 C738 1.523 . S
C738 C719 1.368 . S
C738 C732 1.368 . S
C738 C737 1.523 . S
C739 C723 1.429 . S
C739 C735 1.429 . S
C739 C740 1.523 . S
C740 C724 1.368 . S
C740 C736 1.368 . S
C740 C739 1.523 . S
H741 C716 0.950 . S
H742 C718 0.950 . S
H743 C719 0.949 . S
H744 C721 0.950 . S
H745 C723 0.950 . S
C746 C747 1.349 . S
C746 C748 1.327 1_565 S
C746 H771 0.950 . S
C747 C746 1.349 . S
C747 C763 1.349 . S
C748 C746 1.327 1_545 S
C748 C767 1.429 . S
C748 H772 0.950 . S
C749 C766 1.574 . S
C749 C768 1.368 . S
C749 H773 0.949 . S
H750 C754 0.949 . S
C751 C752 1.349 . S
C751 C753 1.327 . S
C751 H774 0.950 . S
C752 C751 1.349 . S
C752 C764 1.349 . S
C753 C751 1.327 . S
C753 C769 1.429 . S
C753 H775 0.950 . S
C754 H750 0.949 . S
C754 C762 1.574 . S
C754 C770 1.368 . S
H755 C763 0.950 . S
H756 C761 0.950 . S
H757 C762 0.949 . S
H758 C764 0.950 . S
H759 C765 0.950 . S
H760 C766 0.949 . S
C761 H756 0.950 . S
C761 C763 1.327 . S
C761 C767 1.429 1_565 S
C762 C754 1.574 . S
C762 H757 0.949 . S
C762 C768 1.368 . S
C763 C747 1.349 . S
C763 H755 0.950 . S
C763 C761 1.327 . S
C764 C752 1.349 . S
C764 H758 0.950 . S
C764 C765 1.327 . S
C765 H759 0.950 . S
C765 C764 1.327 . S
C765 C769 1.429 . S
C766 C749 1.574 . S
C766 H760 0.949 . S
C766 C770 1.368 . S
C767 C748 1.429 . S
C767 C761 1.429 1_545 S
C767 C768 1.523 . S
C768 C749 1.368 . S
C768 C762 1.368 . S
C768 C767 1.523 . S
C769 C753 1.429 . S
C769 C765 1.429 . S
C769 C770 1.523 . S
C770 C754 1.368 . S
C770 C766 1.368 . S
C770 C769 1.523 . S
H771 C746 0.950 . S
H772 C748 0.950 . S
H773 C749 0.949 . S
H774 C751 0.950 . S
H775 C753 0.950 . S
C776 C777 1.400 . S
C776 C778 1.288 1_545 S
C776 H801 0.940 1_545 S
C777 C776 1.400 . S
C777 C793 1.349 . S
C778 C776 1.288 1_565 S
C778 C797 1.429 . S
C778 H802 0.950 . S
C779 C796 1.574 . S
C779 C798 1.368 . S
C779 H803 0.949 . S
H780 C784 0.949 . S
C781 C782 1.349 . S
C781 C783 1.327 . S
C781 H804 0.950 . S
C782 C781 1.349 . S
C782 C794 1.349 . S
C783 C781 1.327 . S
C783 C799 1.429 . S
C783 H805 0.950 . S
C784 H780 0.949 . S
C784 C792 1.574 . S
C784 C800 1.368 . S
H785 C793 0.950 . S
H786 C791 0.950 . S
H787 C792 0.949 . S
H788 C794 0.950 . S
H789 C795 0.950 . S
H790 C796 0.949 . S
C791 H786 0.950 . S
C791 C793 1.327 . S
C791 C797 1.429 1_545 S
C792 C784 1.574 . S
C792 H787 0.949 . S
C792 C798 1.368 . S
C793 C777 1.349 . S
C793 H785 0.950 . S
C793 C791 1.327 . S
C794 C782 1.349 . S
C794 H788 0.950 . S
C794 C795 1.327 . S
C795 H789 0.950 . S
C795 C794 1.327 . S
C795 C799 1.429 . S
C796 C779 1.574 . S
C796 H790 0.949 . S
C796 C800 1.368 . S
C797 C778 1.429 . S
C797 C791 1.429 1_565 S
C797 C798 1.523 . S
C798 C779 1.368 . S
C798 C792 1.368 . S
C798 C797 1.523 . S
C799 C783 1.429 . S
C799 C795 1.429 . S
C799 C800 1.523 . S
C800 C784 1.368 . S
C800 C796 1.368 . S
C800 C799 1.523 . S
H801 C776 0.940 1_565 S
H802 C778 0.950 . S
H803 C779 0.949 . S
H804 C781 0.950 . S
H805 C783 0.950 . S
C806 C807 1.349 . S
C806 C808 1.327 . S
C806 H831 0.950 . S
C807 C806 1.349 . S
C807 C823 1.349 . S
C808 C806 1.327 . S
C808 C827 1.429 . S
C808 H832 0.950 . S
C809 C826 1.574 . S
C809 C828 1.368 . S
C809 H833 0.949 . S
H810 C814 0.949 . S
C811 C812 1.349 . S
C811 C813 1.327 . S
C811 H834 0.950 . S
C812 C811 1.349 . S
C812 C824 1.349 . S
C813 C811 1.327 . S
C813 C829 1.429 . S
C813 H835 0.950 . S
C814 H810 0.949 . S
C814 C822 1.574 . S
C814 C830 1.368 . S
H815 C823 0.950 . S
H816 C821 0.950 . S
H817 C822 0.949 . S
H818 C824 0.950 . S
H819 C825 0.950 . S
H820 C826 0.949 . S
C821 H816 0.950 . S
C821 C823 1.327 . S
C821 C827 1.429 . S
C822 C814 1.574 . S
C822 H817 0.949 . S
C822 C828 1.368 . S
C823 C807 1.349 . S
C823 H815 0.950 . S
C823 C821 1.327 . S
C824 C812 1.349 . S
C824 H818 0.950 . S
C824 C825 1.327 . S
C825 H819 0.950 . S
C825 C824 1.327 . S
C825 C829 1.429 . S
C826 C809 1.574 . S
C826 H820 0.949 . S
C826 C830 1.368 . S
C827 C808 1.429 . S
C827 C821 1.429 . S
C827 C828 1.523 . S
C828 C809 1.368 . S
C828 C822 1.368 . S
C828 C827 1.523 . S
C829 C813 1.429 . S
C829 C825 1.429 . S
C829 C830 1.523 . S
C830 C814 1.368 . S
C830 C826 1.368 . S
C830 C829 1.523 . S
H831 C806 0.950 . S
H832 C808 0.950 . S
H833 C809 0.949 . S
H834 C811 0.950 . S
H835 C813 0.950 . S
C836 C837 1.349 . S
C836 C838 1.327 . S
C836 H861 0.950 . S
C837 C836 1.349 . S
C837 C853 1.349 . S
C838 C836 1.327 . S
C838 C857 1.429 . S
C838 H862 0.950 . S
C839 C856 1.574 . S
C839 C858 1.368 . S
C839 H863 0.949 . S
H840 C844 0.949 . S
C841 C842 1.349 . S
C841 C843 1.327 . S
C841 H864 0.950 . S
C842 C841 1.349 . S
C842 C854 1.349 . S
C843 C841 1.327 . S
C843 C859 1.429 . S
C843 H865 0.950 . S
C844 H840 0.949 . S
C844 C852 1.574 . S
C844 C860 1.368 . S
H845 C853 0.950 . S
H846 C851 0.950 . S
H847 C852 0.949 . S
H848 C854 0.950 . S
H849 C855 0.950 . S
H850 C856 0.949 . S
C851 H846 0.950 . S
C851 C853 1.327 . S
C851 C857 1.429 . S
C852 C844 1.574 . S
C852 H847 0.949 . S
C852 C858 1.368 . S
C853 C837 1.349 . S
C853 H845 0.950 . S
C853 C851 1.327 . S
C854 C842 1.349 . S
C854 H848 0.950 . S
C854 C855 1.327 . S
C855 H849 0.950 . S
C855 C854 1.327 . S
C855 C859 1.429 . S
C856 C839 1.574 . S
C856 H850 0.949 . S
C856 C860 1.368 . S
C857 C838 1.429 . S
C857 C851 1.429 . S
C857 C858 1.523 . S
C858 C839 1.368 . S
C858 C852 1.368 . S
C858 C857 1.523 . S
C859 C843 1.429 . S
C859 C855 1.429 . S
C859 C860 1.523 . S
C860 C844 1.368 . S
C860 C856 1.368 . S
C860 C859 1.523 . S
H861 C836 0.950 . S
H862 C838 0.950 . S
H863 C839 0.949 . S
H864 C841 0.950 . S
H865 C843 0.950 . S
C866 C867 1.349 . S
C866 C868 1.327 . S
C866 H891 0.950 . S
C867 C866 1.349 . S
C867 C883 1.349 . S
C868 C866 1.327 . S
C868 C887 1.429 1_545 S
C868 H892 0.950 1_545 S
C869 C886 1.574 . S
C869 C888 1.368 . S
C869 H893 0.949 . S
H870 C874 0.949 . S
C871 C872 1.349 . S
C871 C873 1.327 . S
C871 H894 0.950 . S
C872 C871 1.349 . S
C872 C884 1.349 . S
C873 C871 1.327 . S
C873 C889 1.429 . S
C873 H895 0.950 . S
C874 H870 0.949 . S
C874 C882 1.574 . S
C874 C890 1.368 . S
H875 C883 0.950 . S
H876 C881 0.950 . S
H877 C882 0.949 . S
H878 C884 0.950 . S
H879 C885 0.950 . S
H880 C886 0.949 . S
C881 H876 0.950 . S
C881 C883 1.327 1_565 S
C881 C887 1.429 . S
C882 C874 1.574 . S
C882 H877 0.949 . S
C882 C888 1.368 . S
C883 C867 1.349 . S
C883 H875 0.950 . S
C883 C881 1.327 1_545 S
C884 C872 1.349 . S
C884 H878 0.950 . S
C884 C885 1.327 . S
C885 H879 0.950 . S
C885 C884 1.327 . S
C885 C889 1.429 . S
C886 C869 1.574 . S
C886 H880 0.949 . S
C886 C890 1.368 . S
C887 C868 1.429 1_565 S
C887 C881 1.429 . S
C887 C888 1.523 . S
C888 C869 1.368 . S
C888 C882 1.368 . S
C888 C887 1.523 . S
C889 C873 1.429 . S
C889 C885 1.429 . S
C889 C890 1.523 . S
C890 C874 1.368 . S
C890 C886 1.368 . S
C890 C889 1.523 . S
H891 C866 0.950 . S
H892 C868 0.950 1_565 S
H893 C869 0.949 . S
H894 C871 0.950 . S
H895 C873 0.950 . S
C896 C897 1.349 . S
C896 C898 1.327 . S
C896 H921 0.950 . S
C897 C896 1.349 . S
C897 C913 1.349 . S
C898 C896 1.327 . S
C898 C917 1.429 . S
C898 H922 0.950 . S
C899 C916 1.574 . S
C899 C918 1.368 . S
C899 H923 0.949 . S
H900 C904 0.949 . S
C901 C902 1.349 . S
C901 C903 1.327 . S
C901 H924 0.950 . S
C902 C901 1.349 . S
C902 C914 1.349 . S
C903 C901 1.327 . S
C903 C919 1.429 . S
C903 H925 0.950 . S
C904 H900 0.949 . S
C904 C912 1.574 . S
C904 C920 1.368 . S
H905 C913 0.950 . S
H906 C911 0.950 . S
H907 C912 0.949 . S
H908 C914 0.950 . S
H909 C915 0.950 . S
H910 C916 0.949 . S
C911 H906 0.950 . S
C911 C913 1.327 . S
C911 C917 1.429 . S
C912 C904 1.574 . S
C912 H907 0.949 . S
C912 C918 1.368 . S
C913 C897 1.349 . S
C913 H905 0.950 . S
C913 C911 1.327 . S
C914 C902 1.349 . S
C914 H908 0.950 . S
C914 C915 1.327 . S
C915 H909 0.950 . S
C915 C914 1.327 . S
C915 C919 1.429 . S
C916 C899 1.574 . S
C916 H910 0.949 . S
C916 C920 1.368 . S
C917 C898 1.429 . S
C917 C911 1.429 . S
C917 C918 1.523 . S
C918 C899 1.368 . S
C918 C912 1.368 . S
C918 C917 1.523 . S
C919 C903 1.429 . S
C919 C915 1.429 . S
C919 C920 1.523 . S
C920 C904 1.368 . S
C920 C916 1.368 . S
C920 C919 1.523 . S
H921 C896 0.950 . S
H922 C898 0.950 . S
H923 C899 0.949 . S
H924 C901 0.950 . S
H925 C903 0.950 . S
C926 C927 1.349 . S
C926 C928 1.327 . S
C926 H951 0.950 . S
C927 C926 1.349 . S
C927 C943 1.349 . S
C928 C926 1.327 . S
C928 C947 1.429 . S
C928 H952 0.950 . S
C929 C946 1.574 . S
C929 C948 1.368 . S
C929 H953 0.949 . S
H930 C934 0.949 . S
C931 C932 1.349 . S
C931 C933 1.327 . S
C931 H954 0.950 . S
C932 C931 1.349 . S
C932 C944 1.349 . S
C933 C931 1.327 . S
C933 C949 1.429 . S
C933 H955 0.950 . S
C934 H930 0.949 . S
C934 C942 1.574 . S
C934 C950 1.368 . S
H935 C943 0.950 . S
H936 C941 0.950 . S
H937 C942 0.949 . S
H938 C944 0.950 . S
H939 C945 0.950 . S
H940 C946 0.949 . S
C941 H936 0.950 . S
C941 C943 1.327 . S
C941 C947 1.429 . S
C942 C934 1.574 . S
C942 H937 0.949 . S
C942 C948 1.368 . S
C943 C927 1.349 . S
C943 H935 0.950 . S
C943 C941 1.327 . S
C944 C932 1.349 . S
C944 H938 0.950 . S
C944 C945 1.327 . S
C945 H939 0.950 . S
C945 C944 1.327 . S
C945 C949 1.429 . S
C946 C929 1.574 . S
C946 H940 0.949 . S
C946 C950 1.368 . S
C947 C928 1.429 . S
C947 C941 1.429 . S
C947 C948 1.523 . S
C948 C929 1.368 . S
C948 C942 1.368 . S
C948 C947 1.523 . S
C949 C933 1.429 . S
C949 C945 1.429 . S
C949 C950 1.523 . S
C950 C934 1.368 . S
C950 C946 1.368 . S
C950 C949 1.523 . S
H951 C926 0.950 . S
H952 C928 0.950 . S
H953 C929 0.949 . S
H954 C931 0.950 . S
H955 C933 0.950 . S
C956 C957 1.349 . S
C956 C958 1.327 . S
C956 H981 0.950 . S
C957 C956 1.349 . S
C957 C973 1.349 . S
C958 C956 1.327 . S
C958 C977 1.429 . S
C958 H982 0.950 . S
C959 C976 1.574 . S
C959 C978 1.368 . S
C959 H983 0.949 . S
H960 C964 0.949 . S
C961 C962 1.349 . S
C961 C963 1.327 . S
C961 H984 0.950 . S
C962 C961 1.349 . S
C962 C974 1.349 . S
C963 C961 1.327 . S
C963 C979 1.429 . S
C963 H985 0.950 . S
C964 H960 0.949 . S
C964 C972 1.574 . S
C964 C980 1.368 . S
H965 C973 0.950 . S
H966 C971 0.950 . S
H967 C972 0.949 . S
H968 C974 0.950 . S
H969 C975 0.950 . S
H970 C976 0.949 . S
C971 H966 0.950 . S
C971 C973 1.327 . S
C971 C977 1.429 . S
C972 C964 1.574 . S
C972 H967 0.949 . S
C972 C978 1.368 . S
C973 C957 1.349 . S
C973 H965 0.950 . S
C973 C971 1.327 . S
C974 C962 1.349 . S
C974 H968 0.950 . S
C974 C975 1.327 . S
C975 H969 0.950 . S
C975 C974 1.327 . S
C975 C979 1.429 . S
C976 C959 1.574 . S
C976 H970 0.949 . S
C976 C980 1.368 . S
C977 C958 1.429 . S
C977 C971 1.429 . S
C977 C978 1.523 . S
C978 C959 1.368 . S
C978 C972 1.368 . S
C978 C977 1.523 . S
C979 C963 1.429 . S
C979 C975 1.429 . S
C979 C980 1.523 . S
C980 C964 1.368 . S
C980 C976 1.368 . S
C980 C979 1.523 . S
H981 C956 0.950 . S
H982 C958 0.950 . S
H983 C959 0.949 . S
H984 C961 0.950 . S
H985 C963 0.950 . S
C986 C987 1.349 . S
C986 C988 1.327 . S
C986 H1011 0.950 . S
C987 C986 1.349 . S
C987 C1003 1.349 . S
C988 C986 1.327 . S
C988 C1007 1.429 . S
C988 H1012 0.950 . S
C989 C1006 1.574 . S
C989 C1008 1.368 . S
C989 H1013 0.949 . S
H990 C994 0.949 . S
C991 C992 1.349 . S
C991 C993 1.327 . S
C991 H1014 0.950 . S
C992 C991 1.349 . S
C992 C1004 1.349 . S
C993 C991 1.327 . S
C993 C1009 1.429 . S
C993 H1015 0.950 . S
C994 H990 0.949 . S
C994 C1002 1.574 . S
C994 C1010 1.368 . S
H995 C1003 0.950 . S
H996 C1001 0.950 . S
H997 C1002 0.949 . S
H998 C1004 0.950 . S
H999 C1005 0.950 . S
H1000 C1006 0.949 . S
C1001 H996 0.950 . S
C1001 C1003 1.327 . S
C1001 C1007 1.429 . S
C1002 C994 1.574 . S
C1002 H997 0.949 . S
C1002 C1008 1.368 . S
C1003 C987 1.349 . S
C1003 H995 0.950 . S
C1003 C1001 1.327 . S
C1004 C992 1.349 . S
C1004 H998 0.950 . S
C1004 C1005 1.327 . S
C1005 H999 0.950 . S
C1005 C1004 1.327 . S
C1005 C1009 1.429 . S
C1006 C989 1.574 . S
C1006 H1000 0.949 . S
C1006 C1010 1.368 . S
C1007 C988 1.429 . S
C1007 C1001 1.429 . S
C1007 C1008 1.523 . S
C1008 C989 1.368 . S
C1008 C1002 1.368 . S
C1008 C1007 1.523 . S
C1009 C993 1.429 . S
C1009 C1005 1.429 . S
C1009 C1010 1.523 . S
C1010 C994 1.368 . S
C1010 C1006 1.368 . S
C1010 C1009 1.523 . S
H1011 C986 0.950 . S
H1012 C988 0.950 . S
H1013 C989 0.949 . S
H1014 C991 0.950 . S
H1015 C993 0.950 . S
C1016 C1017 1.349 . S
C1016 C1018 1.327 . S
C1016 H1041 0.950 . S
C1017 C1016 1.349 . S
C1017 C1033 1.349 . S
C1018 C1016 1.327 . S
C1018 C1037 1.429 . S
C1018 H1042 0.950 . S
C1019 C1036 1.574 . S
C1019 C1038 1.368 . S
C1019 H1043 0.949 . S
H1020 C1024 0.949 . S
C1021 C1022 1.349 . S
C1021 C1023 1.327 . S
C1021 H1044 0.950 . S
C1022 C1021 1.349 . S
C1022 C1034 1.349 . S
C1023 C1021 1.327 . S
C1023 C1039 1.429 . S
C1023 H1045 0.950 . S
C1024 H1020 0.949 . S
C1024 C1032 1.574 . S
C1024 C1040 1.368 . S
H1025 C1033 0.950 . S
H1026 C1031 0.950 . S
H1027 C1032 0.949 . S
H1028 C1034 0.950 . S
H1029 C1035 0.950 . S
H1030 C1036 0.949 . S
C1031 H1026 0.950 . S
C1031 C1033 1.327 . S
C1031 C1037 1.429 . S
C1032 C1024 1.574 . S
C1032 H1027 0.949 . S
C1032 C1038 1.368 . S
C1033 C1017 1.349 . S
C1033 H1025 0.950 . S
C1033 C1031 1.327 . S
C1034 C1022 1.349 . S
C1034 H1028 0.950 . S
C1034 C1035 1.327 . S
C1035 H1029 0.950 . S
C1035 C1034 1.327 . S
C1035 C1039 1.429 . S
C1036 C1019 1.574 . S
C1036 H1030 0.949 . S
C1036 C1040 1.368 . S
C1037 C1018 1.429 . S
C1037 C1031 1.429 . S
C1037 C1038 1.523 . S
C1038 C1019 1.368 . S
C1038 C1032 1.368 . S
C1038 C1037 1.523 . S
C1039 C1023 1.429 . S
C1039 C1035 1.429 . S
C1039 C1040 1.523 . S
C1040 C1024 1.368 . S
C1040 C1036 1.368 . S
C1040 C1039 1.523 . S
H1041 C1016 0.950 . S
H1042 C1018 0.950 . S
H1043 C1019 0.949 . S
H1044 C1021 0.950 . S
H1045 C1023 0.950 . S
C1046 C1047 1.349 . S
C1046 C1048 1.327 . S
C1046 H1071 0.950 . S
C1047 C1046 1.349 . S
C1047 C1063 1.349 . S
C1048 C1046 1.327 . S
C1048 C1067 1.429 . S
C1048 H1072 0.950 . S
C1049 C1066 1.574 . S
C1049 C1068 1.368 . S
C1049 H1073 0.949 . S
H1050 C1054 0.949 . S
C1051 C1052 1.349 . S
C1051 C1053 1.327 . S
C1051 H1074 0.950 . S
C1052 C1051 1.349 . S
C1052 C1064 1.349 . S
C1053 C1051 1.327 . S
C1053 C1069 1.429 . S
C1053 H1075 0.950 . S
C1054 H1050 0.949 . S
C1054 C1062 1.574 . S
C1054 C1070 1.368 . S
H1055 C1063 0.950 . S
H1056 C1061 0.950 . S
H1057 C1062 0.949 . S
H1058 C1064 0.950 . S
H1059 C1065 0.950 . S
H1060 C1066 0.949 . S
C1061 H1056 0.950 . S
C1061 C1063 1.327 . S
C1061 C1067 1.429 . S
C1062 C1054 1.574 . S
C1062 H1057 0.949 . S
C1062 C1068 1.368 . S
C1063 C1047 1.349 . S
C1063 H1055 0.950 . S
C1063 C1061 1.327 . S
C1064 C1052 1.349 . S
C1064 H1058 0.950 . S
C1064 C1065 1.327 . S
C1065 H1059 0.950 . S
C1065 C1064 1.327 . S
C1065 C1069 1.429 . S
C1066 C1049 1.574 . S
C1066 H1060 0.949 . S
C1066 C1070 1.368 . S
C1067 C1048 1.429 . S
C1067 C1061 1.429 . S
C1067 C1068 1.523 . S
C1068 C1049 1.368 . S
C1068 C1062 1.368 . S
C1068 C1067 1.523 . S
C1069 C1053 1.429 . S
C1069 C1065 1.429 . S
C1069 C1070 1.523 . S
C1070 C1054 1.368 . S
C1070 C1066 1.368 . S
C1070 C1069 1.523 . S
H1071 C1046 0.950 . S
H1072 C1048 0.950 . S
H1073 C1049 0.949 . S
H1074 C1051 0.950 . S
H1075 C1053 0.950 . S
C1076 C1077 1.349 . S
C1076 C1078 1.327 . S
C1076 H1101 0.950 . S
C1077 C1076 1.349 . S
C1077 C1093 1.349 . S
C1078 C1076 1.327 . S
C1078 C1097 1.429 . S
C1078 H1102 0.950 . S
C1079 C1096 1.574 . S
C1079 C1098 1.368 . S
C1079 H1103 0.949 . S
H1080 C1084 0.949 . S
C1081 C1082 1.349 . S
C1081 C1083 1.327 . S
C1081 H1104 0.950 . S
C1082 C1081 1.349 . S
C1082 C1094 1.349 . S
C1083 C1081 1.327 . S
C1083 C1099 1.429 . S
C1083 H1105 0.950 . S
C1084 H1080 0.949 . S
C1084 C1092 1.574 . S
C1084 C1100 1.368 . S
H1085 C1093 0.950 . S
H1086 C1091 0.950 . S
H1087 C1092 0.949 . S
H1088 C1094 0.950 . S
H1089 C1095 0.950 . S
H1090 C1096 0.949 . S
C1091 H1086 0.950 . S
C1091 C1093 1.327 . S
C1091 C1097 1.429 . S
C1092 C1084 1.574 . S
C1092 H1087 0.949 . S
C1092 C1098 1.368 . S
C1093 C1077 1.349 . S
C1093 H1085 0.950 . S
C1093 C1091 1.327 . S
C1094 C1082 1.349 . S
C1094 H1088 0.950 . S
C1094 C1095 1.327 . S
C1095 H1089 0.950 . S
C1095 C1094 1.327 . S
C1095 C1099 1.429 . S
C1096 C1079 1.574 . S
C1096 H1090 0.949 . S
C1096 C1100 1.368 . S
C1097 C1078 1.429 . S
C1097 C1091 1.429 . S
C1097 C1098 1.523 . S
C1098 C1079 1.368 . S
C1098 C1092 1.368 . S
C1098 C1097 1.523 . S
C1099 C1083 1.429 . S
C1099 C1095 1.429 . S
C1099 C1100 1.523 . S
C1100 C1084 1.368 . S
C1100 C1096 1.368 . S
C1100 C1099 1.523 . S
H1101 C1076 0.950 . S
H1102 C1078 0.950 . S
H1103 C1079 0.949 . S
H1104 C1081 0.950 . S
H1105 C1083 0.950 . S
C1106 C1107 1.349 . S
C1106 C1108 1.327 . S
C1106 H1131 0.950 . S
C1107 C1106 1.349 . S
C1107 C1123 1.349 . S
C1108 C1106 1.327 . S
C1108 C1127 1.429 . S
C1108 H1132 0.950 . S
C1109 C1126 1.574 . S
C1109 C1128 1.368 . S
C1109 H1133 0.949 . S
H1110 C1114 0.949 . S
C1111 C1112 1.349 . S
C1111 C1113 1.327 . S
C1111 H1134 0.950 . S
C1112 C1111 1.349 . S
C1112 C1124 1.349 . S
C1113 C1111 1.327 . S
C1113 C1129 1.429 . S
C1113 H1135 0.950 . S
C1114 H1110 0.949 . S
C1114 C1122 1.574 . S
C1114 C1130 1.368 . S
H1115 C1123 0.950 . S
H1116 C1121 0.950 . S
H1117 C1122 0.949 . S
H1118 C1124 0.950 . S
H1119 C1125 0.950 . S
H1120 C1126 0.949 . S
C1121 H1116 0.950 . S
C1121 C1123 1.327 . S
C1121 C1127 1.429 . S
C1122 C1114 1.574 . S
C1122 H1117 0.949 . S
C1122 C1128 1.368 . S
C1123 C1107 1.349 . S
C1123 H1115 0.950 . S
C1123 C1121 1.327 . S
C1124 C1112 1.349 . S
C1124 H1118 0.950 . S
C1124 C1125 1.327 . S
C1125 H1119 0.950 . S
C1125 C1124 1.327 . S
C1125 C1129 1.429 . S
C1126 C1109 1.574 . S
C1126 H1120 0.949 . S
C1126 C1130 1.368 . S
C1127 C1108 1.429 . S
C1127 C1121 1.429 . S
C1127 C1128 1.523 . S
C1128 C1109 1.368 . S
C1128 C1122 1.368 . S
C1128 C1127 1.523 . S
C1129 C1113 1.429 . S
C1129 C1125 1.429 . S
C1129 C1130 1.523 . S
C1130 C1114 1.368 . S
C1130 C1126 1.368 . S
C1130 C1129 1.523 . S
H1131 C1106 0.950 . S
H1132 C1108 0.950 . S
H1133 C1109 0.949 . S
H1134 C1111 0.950 . S
H1135 C1113 0.950 . S
C1136 C1137 1.349 . S
C1136 C1138 1.327 . S
C1136 H1161 0.950 . S
C1137 C1136 1.349 . S
C1137 C1153 1.349 . S
C1138 C1136 1.327 . S
C1138 C1157 1.429 . S
C1138 H1162 0.950 . S
C1139 C1156 1.574 . S
C1139 C1158 1.368 . S
C1139 H1163 0.949 . S
H1140 C1144 0.949 . S
C1141 C1142 1.349 . S
C1141 C1143 1.327 . S
C1141 H1164 0.950 . S
C1142 C1141 1.349 . S
C1142 C1154 1.349 . S
C1143 C1141 1.327 . S
C1143 C1159 1.429 . S
C1143 H1165 0.950 . S
C1144 H1140 0.949 . S
C1144 C1152 1.574 . S
C1144 C1160 1.368 . S
H1145 C1153 0.950 . S
H1146 C1151 0.950 . S
H1147 C1152 0.949 . S
H1148 C1154 0.950 . S
H1149 C1155 0.950 . S
H1150 C1156 0.949 . S
C1151 H1146 0.950 . S
C1151 C1153 1.327 . S
C1151 C1157 1.429 . S
C1152 C1144 1.574 . S
C1152 H1147 0.949 . S
C1152 C1158 1.368 . S
C1153 C1137 1.349 . S
C1153 H1145 0.950 . S
C1153 C1151 1.327 . S
C1154 C1142 1.349 . S
C1154 H1148 0.950 . S
C1154 C1155 1.327 . S
C1155 H1149 0.950 . S
C1155 C1154 1.327 . S
C1155 C1159 1.429 . S
C1156 C1139 1.574 . S
C1156 H1150 0.949 . S
C1156 C1160 1.368 . S
C1157 C1138 1.429 . S
C1157 C1151 1.429 . S
C1157 C1158 1.523 . S
C1158 C1139 1.368 . S
C1158 C1152 1.368 . S
C1158 C1157 1.523 . S
C1159 C1143 1.429 . S
C1159 C1155 1.429 . S
C1159 C1160 1.523 . S
C1160 C1144 1.368 . S
C1160 C1156 1.368 . S
C1160 C1159 1.523 . S
H1161 C1136 0.950 . S
H1162 C1138 0.950 . S
H1163 C1139 0.949 . S
H1164 C1141 0.950 . S
H1165 C1143 0.950 . S
C1166 C1167 1.349 . S
C1166 C1168 1.327 . S
C1166 H1191 0.950 . S
C1167 C1166 1.349 . S
C1167 C1183 1.349 . S
C1168 C1166 1.327 . S
C1168 C1187 1.429 . S
C1168 H1192 0.950 . S
C1169 C1186 1.574 . S
C1169 C1188 1.368 . S
C1169 H1193 0.949 . S
H1170 C1174 0.949 . S
C1171 C1172 1.349 . S
C1171 C1173 1.327 . S
C1171 H1194 0.950 . S
C1172 C1171 1.349 . S
C1172 C1184 1.349 . S
C1173 C1171 1.327 . S
C1173 C1189 1.429 . S
C1173 H1195 0.950 . S
C1174 H1170 0.949 . S
C1174 C1182 1.574 . S
C1174 C1190 1.368 . S
H1175 C1183 0.950 . S
H1176 C1181 0.950 . S
H1177 C1182 0.949 . S
H1178 C1184 0.950 . S
H1179 C1185 0.950 . S
H1180 C1186 0.949 . S
C1181 H1176 0.950 . S
C1181 C1183 1.327 . S
C1181 C1187 1.429 . S
C1182 C1174 1.574 . S
C1182 H1177 0.949 . S
C1182 C1188 1.368 . S
C1183 C1167 1.349 . S
C1183 H1175 0.950 . S
C1183 C1181 1.327 . S
C1184 C1172 1.349 . S
C1184 H1178 0.950 . S
C1184 C1185 1.327 . S
C1185 H1179 0.950 . S
C1185 C1184 1.327 . S
C1185 C1189 1.429 . S
C1186 C1169 1.574 . S
C1186 H1180 0.949 . S
C1186 C1190 1.368 . S
C1187 C1168 1.429 . S
C1187 C1181 1.429 . S
C1187 C1188 1.523 . S
C1188 C1169 1.368 . S
C1188 C1182 1.368 . S
C1188 C1187 1.523 . S
C1189 C1173 1.429 . S
C1189 C1185 1.429 . S
C1189 C1190 1.523 . S
C1190 C1174 1.368 . S
C1190 C1186 1.368 . S
C1190 C1189 1.523 . S
H1191 C1166 0.950 . S
H1192 C1168 0.950 . S
H1193 C1169 0.949 . S
H1194 C1171 0.950 . S
H1195 C1173 0.950 . S
C1196 C1197 1.349 . S
C1196 C1198 1.327 . S
C1196 H1221 0.950 . S
C1197 C1196 1.349 . S
C1197 C1213 1.349 . S
C1198 C1196 1.327 . S
C1198 C1217 1.429 . S
C1198 H1222 0.950 . S
C1199 C1216 1.574 . S
C1199 C1218 1.368 . S
C1199 H1223 0.949 . S
H1200 C1204 0.949 . S
C1201 C1202 1.349 . S
C1201 C1203 1.327 . S
C1201 H1224 0.950 . S
C1202 C1201 1.349 . S
C1202 C1214 1.349 . S
C1203 C1201 1.327 . S
C1203 C1219 1.429 . S
C1203 H1225 0.950 . S
C1204 H1200 0.949 . S
C1204 C1212 1.574 . S
C1204 C1220 1.368 . S
H1205 C1213 0.950 . S
H1206 C1211 0.950 . S
H1207 C1212 0.949 . S
H1208 C1214 0.950 . S
H1209 C1215 0.950 . S
H1210 C1216 0.949 . S
C1211 H1206 0.950 . S
C1211 C1213 1.327 . S
C1211 C1217 1.429 . S
C1212 C1204 1.574 . S
C1212 H1207 0.949 . S
C1212 C1218 1.368 . S
C1213 C1197 1.349 . S
C1213 H1205 0.950 . S
C1213 C1211 1.327 . S
C1214 C1202 1.349 . S
C1214 H1208 0.950 . S
C1214 C1215 1.327 . S
C1215 H1209 0.950 . S
C1215 C1214 1.327 . S
C1215 C1219 1.429 . S
C1216 C1199 1.574 . S
C1216 H1210 0.949 . S
C1216 C1220 1.368 . S
C1217 C1198 1.429 . S
C1217 C1211 1.429 . S
C1217 C1218 1.523 . S
C1218 C1199 1.368 . S
C1218 C1212 1.368 . S
C1218 C1217 1.523 . S
C1219 C1203 1.429 . S
C1219 C1215 1.429 . S
C1219 C1220 1.523 . S
C1220 C1204 1.368 . S
C1220 C1216 1.368 . S
C1220 C1219 1.523 . S
H1221 C1196 0.950 . S
H1222 C1198 0.950 . S
H1223 C1199 0.949 . S
H1224 C1201 0.950 . S
H1225 C1203 0.950 . S
C1226 C1227 1.349 . S
C1226 C1228 1.327 . S
C1226 H1251 0.950 . S
C1227 C1226 1.349 . S
C1227 C1243 1.349 . S
C1228 C1226 1.327 . S
C1228 C1247 1.429 . S
C1228 H1252 0.950 . S
C1229 C1246 1.574 . S
C1229 C1248 1.368 . S
C1229 H1253 0.949 . S
H1230 C1234 0.949 . S
C1231 C1232 1.349 . S
C1231 C1233 1.327 . S
C1231 H1254 0.950 . S
C1232 C1231 1.349 . S
C1232 C1244 1.349 . S
C1233 C1231 1.327 . S
C1233 C1249 1.429 . S
C1233 H1255 0.950 . S
C1234 H1230 0.949 . S
C1234 C1242 1.574 . S
C1234 C1250 1.368 . S
H1235 C1243 0.950 . S
H1236 C1241 0.950 . S
H1237 C1242 0.949 . S
H1238 C1244 0.950 . S
H1239 C1245 0.950 . S
H1240 C1246 0.949 . S
C1241 H1236 0.950 . S
C1241 C1243 1.327 . S
C1241 C1247 1.429 . S
C1242 C1234 1.574 . S
C1242 H1237 0.949 . S
C1242 C1248 1.368 . S
C1243 C1227 1.349 . S
C1243 H1235 0.950 . S
C1243 C1241 1.327 . S
C1244 C1232 1.349 . S
C1244 H1238 0.950 . S
C1244 C1245 1.327 . S
C1245 H1239 0.950 . S
C1245 C1244 1.327 . S
C1245 C1249 1.429 . S
C1246 C1229 1.574 . S
C1246 H1240 0.949 . S
C1246 C1250 1.368 . S
C1247 C1228 1.429 . S
C1247 C1241 1.429 . S
C1247 C1248 1.523 . S
C1248 C1229 1.368 . S
C1248 C1242 1.368 . S
C1248 C1247 1.523 . S
C1249 C1233 1.429 . S
C1249 C1245 1.429 . S
C1249 C1250 1.523 . S
C1250 C1234 1.368 . S
C1250 C1246 1.368 . S
C1250 C1249 1.523 . S
H1251 C1226 0.950 . S
H1252 C1228 0.950 . S
H1253 C1229 0.949 . S
H1254 C1231 0.950 . S
H1255 C1233 0.950 . S
C1256 C1257 1.349 . S
C1256 C1258 1.327 . S
C1256 H1281 0.950 . S
C1257 C1256 1.349 . S
C1257 C1273 1.349 . S
C1258 C1256 1.327 . S
C1258 C1277 1.429 . S
C1258 H1282 0.950 . S
C1259 C1276 1.574 . S
C1259 C1278 1.368 . S
C1259 H1283 0.949 . S
H1260 C1264 0.949 . S
C1261 C1262 1.349 . S
C1261 C1263 1.327 . S
C1261 H1284 0.950 . S
C1262 C1261 1.349 . S
C1262 C1274 1.349 . S
C1263 C1261 1.327 . S
C1263 C1279 1.429 . S
C1263 H1285 0.950 . S
C1264 H1260 0.949 . S
C1264 C1272 1.574 . S
C1264 C1280 1.368 . S
H1265 C1273 0.950 . S
H1266 C1271 0.950 . S
H1267 C1272 0.949 . S
H1268 C1274 0.950 1_455 S
H1269 C1275 0.950 . S
H1270 C1276 0.949 . S
C1271 H1266 0.950 . S
C1271 C1273 1.327 . S
C1271 C1277 1.429 . S
C1272 C1264 1.574 . S
C1272 H1267 0.949 . S
C1272 C1278 1.368 . S
C1273 C1257 1.349 . S
C1273 H1265 0.950 . S
C1273 C1271 1.327 . S
C1274 C1262 1.349 . S
C1274 H1268 0.950 1_655 S
C1274 C1275 1.327 . S
C1275 H1269 0.950 . S
C1275 C1274 1.327 . S
C1275 C1279 1.429 . S
C1276 C1259 1.574 . S
C1276 H1270 0.949 . S
C1276 C1280 1.368 . S
C1277 C1258 1.429 . S
C1277 C1271 1.429 . S
C1277 C1278 1.523 . S
C1278 C1259 1.368 . S
C1278 C1272 1.368 . S
C1278 C1277 1.523 . S
C1279 C1263 1.429 . S
C1279 C1275 1.429 . S
C1279 C1280 1.523 . S
C1280 C1264 1.368 . S
C1280 C1276 1.368 . S
C1280 C1279 1.523 . S
H1281 C1256 0.950 . S
H1282 C1258 0.950 . S
H1283 C1259 0.949 . S
H1284 C1261 0.950 . S
H1285 C1263 0.950 . S
C1286 C1287 1.349 . S
C1286 C1288 1.327 . S
C1286 H1311 0.950 . S
C1287 C1286 1.349 . S
C1287 C1303 1.349 . S
C1288 C1286 1.327 . S
C1288 C1307 1.429 . S
C1288 H1312 0.950 . S
C1289 C1306 1.574 . S
C1289 C1308 1.368 . S
C1289 H1313 0.949 . S
H1290 C1294 0.949 . S
C1291 C1292 1.349 . S
C1291 C1293 1.327 . S
C1291 H1314 0.950 . S
C1292 C1291 1.349 . S
C1292 C1304 1.349 . S
C1293 C1291 1.327 . S
C1293 C1309 1.429 . S
C1293 H1315 0.950 . S
C1294 H1290 0.949 . S
C1294 C1302 1.574 . S
C1294 C1310 1.368 . S
H1295 C1303 0.950 . S
H1296 C1301 0.950 . S
H1297 C1302 0.949 . S
H1298 C1304 0.950 . S
H1299 C1305 0.950 . S
H1300 C1306 0.949 . S
C1301 H1296 0.950 . S
C1301 C1303 1.327 . S
C1301 C1307 1.429 . S
C1302 C1294 1.574 . S
C1302 H1297 0.949 . S
C1302 C1308 1.368 . S
C1303 C1287 1.349 . S
C1303 H1295 0.950 . S
C1303 C1301 1.327 . S
C1304 C1292 1.349 . S
C1304 H1298 0.950 . S
C1304 C1305 1.327 . S
C1305 H1299 0.950 . S
C1305 C1304 1.327 . S
C1305 C1309 1.429 . S
C1306 C1289 1.574 . S
C1306 H1300 0.949 . S
C1306 C1310 1.368 . S
C1307 C1288 1.429 . S
C1307 C1301 1.429 . S
C1307 C1308 1.523 . S
C1308 C1289 1.368 . S
C1308 C1302 1.368 . S
C1308 C1307 1.523 . S
C1309 C1293 1.429 . S
C1309 C1305 1.429 . S
C1309 C1310 1.523 . S
C1310 C1294 1.368 . S
C1310 C1306 1.368 . S
C1310 C1309 1.523 . S
H1311 C1286 0.950 . S
H1312 C1288 0.950 . S
H1313 C1289 0.949 . S
H1314 C1291 0.950 . S
H1315 C1293 0.950 . S
C1316 C1317 1.349 . S
C1316 C1318 1.327 . S
C1316 H1341 0.950 . S
C1317 C1316 1.349 . S
C1317 C1333 1.349 . S
C1318 C1316 1.327 . S
C1318 C1337 1.429 . S
C1318 H1342 0.950 . S
C1319 C1336 1.574 . S
C1319 C1338 1.368 . S
C1319 H1343 0.949 . S
H1320 C1324 0.949 . S
C1321 C1322 1.349 . S
C1321 C1323 1.327 . S
C1321 H1344 0.950 . S
C1322 C1321 1.349 . S
C1322 C1334 1.349 . S
C1323 C1321 1.327 . S
C1323 C1339 1.429 . S
C1323 H1345 0.950 . S
C1324 H1320 0.949 . S
C1324 C1332 1.574 . S
C1324 C1340 1.368 . S
H1325 C1333 0.950 . S
H1326 C1331 0.950 . S
H1327 C1332 0.949 . S
H1328 C1334 0.950 . S
H1329 C1335 0.950 . S
H1330 C1336 0.949 . S
C1331 H1326 0.950 . S
C1331 C1333 1.327 . S
C1331 C1337 1.429 . S
C1332 C1324 1.574 . S
C1332 H1327 0.949 . S
C1332 C1338 1.368 . S
C1333 C1317 1.349 . S
C1333 H1325 0.950 . S
C1333 C1331 1.327 . S
C1334 C1322 1.349 . S
C1334 H1328 0.950 . S
C1334 C1335 1.327 . S
C1335 H1329 0.950 . S
C1335 C1334 1.327 . S
C1335 C1339 1.429 . S
C1336 C1319 1.574 . S
C1336 H1330 0.949 . S
C1336 C1340 1.368 . S
C1337 C1318 1.429 . S
C1337 C1331 1.429 . S
C1337 C1338 1.523 . S
C1338 C1319 1.368 . S
C1338 C1332 1.368 . S
C1338 C1337 1.523 . S
C1339 C1323 1.429 . S
C1339 C1335 1.429 . S
C1339 C1340 1.523 . S
C1340 C1324 1.368 . S
C1340 C1336 1.368 . S
C1340 C1339 1.523 . S
H1341 C1316 0.950 . S
H1342 C1318 0.950 . S
H1343 C1319 0.949 . S
H1344 C1321 0.950 . S
H1345 C1323 0.950 . S
C1346 C1347 1.349 . S
C1346 C1348 1.327 . S
C1346 H1371 0.950 . S
C1347 C1346 1.349 . S
C1347 C1363 1.349 . S
C1348 C1346 1.327 . S
C1348 C1367 1.429 . S
C1348 H1372 0.950 . S
C1349 C1366 1.574 . S
C1349 C1368 1.368 . S
C1349 H1373 0.949 . S
H1350 C1354 0.949 . S
C1351 C1352 1.349 . S
C1351 C1353 1.327 . S
C1351 H1374 0.950 . S
C1352 C1351 1.349 . S
C1352 C1364 1.349 . S
C1353 C1351 1.327 . S
C1353 C1369 1.429 . S
C1353 H1375 0.950 . S
C1354 H1350 0.949 . S
C1354 C1362 1.574 . S
C1354 C1370 1.368 . S
H1355 C1363 0.950 . S
H1356 C1361 0.950 . S
H1357 C1362 0.949 . S
H1358 C1364 0.950 . S
H1359 C1365 0.950 . S
H1360 C1366 0.949 . S
C1361 H1356 0.950 . S
C1361 C1363 1.327 . S
C1361 C1367 1.429 . S
C1362 C1354 1.574 . S
C1362 H1357 0.949 . S
C1362 C1368 1.368 . S
C1363 C1347 1.349 . S
C1363 H1355 0.950 . S
C1363 C1361 1.327 . S
C1364 C1352 1.349 . S
C1364 H1358 0.950 . S
C1364 C1365 1.327 . S
C1365 H1359 0.950 . S
C1365 C1364 1.327 . S
C1365 C1369 1.429 . S
C1366 C1349 1.574 . S
C1366 H1360 0.949 . S
C1366 C1370 1.368 . S
C1367 C1348 1.429 . S
C1367 C1361 1.429 . S
C1367 C1368 1.523 . S
C1368 C1349 1.368 . S
C1368 C1362 1.368 . S
C1368 C1367 1.523 . S
C1369 C1353 1.429 . S
C1369 C1365 1.429 . S
C1369 C1370 1.523 . S
C1370 C1354 1.368 . S
C1370 C1366 1.368 . S
C1370 C1369 1.523 . S
H1371 C1346 0.950 . S
H1372 C1348 0.950 . S
H1373 C1349 0.949 . S
H1374 C1351 0.950 . S
H1375 C1353 0.950 . S
C657 C242 1.459 . S
C662 C394 1.472 . S
C692 C478 1.470 . S
C687 C301 1.487 . S
C722 C471 1.479 . S
C717 C162 1.449 . S
C747 C221 1.478 . S
C752 C387 1.476 . S
C782 C551 1.472 . S
C777 C82 1.484 . S
C812 C635 1.469 . S
C807 C141 1.464 . S
C837 C2 1.477 . S
C842 C628 1.480 . S
C867 C61 1.452 . S
C872 C544 1.475 . S
C902 C378 1.351 . S
C897 C42 1.502 1_554 S
C932 C462 1.349 . S
C927 C21 1.529 . S
C962 C473 1.410 . S
C957 C122 1.528 1_556 S
C992 C389 1.410 . S
C987 C101 1.552 . S
C1022 C557 1.351 . S
C1017 C202 1.532 1_556 S
C1047 C181 1.499 . S
C1052 C641 1.350 . S
C1082 C630 1.409 . S
C1077 C282 1.550 1_554 S
C1107 C261 1.525 . S
C1112 C546 1.411 . S
C1142 C376 1.621 . S
C1137 C15 1.616 . S
C1172 C460 1.606 . S
C1167 C55 1.601 . S
C1197 C95 1.600 . S
C1202 C467 1.592 . S
C1232 C383 1.579 . S
C1227 C135 1.587 . S
C1262 C555 1.621 . S
C1257 C175 1.613 . S
C1287 C215 1.603 . S
C1292 C639 1.606 . S
C1317 C255 1.598 . S
C1322 C646 1.592 . S
C1347 C295 1.590 . S
C1352 C562 1.579 . S
