# Generated by pormake.
# Topology pto, (3,4)-cn, num edge types: 1
# Building blocks:
#     Node 0, Type 0, BuildingBlock: WUSLED_clean_sbu_0, # of connection points: 3
#     Node 1, Type 0, BuildingBlock: WUSLED_clean_sbu_0, # of connection points: 3
#     Node 2, Type 0, BuildingBlock: WUSLED_clean_sbu_0, # of connection points: 3
#     Node 3, Type 0, BuildingBlock: WUSLED_clean_sbu_0, # of connection points: 3
#     Node 4, Type 0, BuildingBlock: WUSLED_clean_sbu_0, # of connection points: 3
#     Node 5, Type 0, BuildingBlock: WUSLED_clean_sbu_0, # of connection points: 3
#     Node 6, Type 0, BuildingBlock: WUSLED_clean_sbu_0, # of connection points: 3
#     Node 7, Type 0, BuildingBlock: WUSLED_clean_sbu_0, # of connection points: 3
#     Node 8, Type 1, BuildingBlock: KOZSID_clean_sbu_0, # of connection points: 4
#     Node 9, Type 1, BuildingBlock: KOZSID_clean_sbu_0, # of connection points: 4
#     Node 10, Type 1, BuildingBlock: KOZSID_clean_sbu_0, # of connection points: 4
#     Node 11, Type 1, BuildingBlock: KOZSID_clean_sbu_0, # of connection points: 4
#     Node 12, Type 1, BuildingBlock: KOZSID_clean_sbu_0, # of connection points: 4
#     Node 13, Type 1, BuildingBlock: KOZSID_clean_sbu_0, # of connection points: 4
#     Edge 14, Type (0, 1), BuildingBlock: MIFKUJ_clean_linker_0, # of connection points: 2
#     Edge 15, Type (0, 1), BuildingBlock: MIFKUJ_clean_linker_0, # of connection points: 2
#     Edge 16, Type (0, 1), BuildingBlock: MIFKUJ_clean_linker_0, # of connection points: 2
#     Edge 17, Type (0, 1), BuildingBlock: MIFKUJ_clean_linker_0, # of connection points: 2
#     Edge 18, Type (0, 1), BuildingBlock: MIFKUJ_clean_linker_0, # of connection points: 2
#     Edge 19, Type (0, 1), BuildingBlock: MIFKUJ_clean_linker_0, # of connection points: 2
#     Edge 20, Type (0, 1), BuildingBlock: MIFKUJ_clean_linker_0, # of connection points: 2
#     Edge 21, Type (0, 1), BuildingBlock: MIFKUJ_clean_linker_0, # of connection points: 2
#     Edge 22, Type (0, 1), BuildingBlock: MIFKUJ_clean_linker_0, # of connection points: 2
#     Edge 23, Type (0, 1), BuildingBlock: MIFKUJ_clean_linker_0, # of connection points: 2
#     Edge 24, Type (0, 1), BuildingBlock: MIFKUJ_clean_linker_0, # of connection points: 2
#     Edge 25, Type (0, 1), BuildingBlock: MIFKUJ_clean_linker_0, # of connection points: 2
#     Edge 26, Type (0, 1), BuildingBlock: MIFKUJ_clean_linker_0, # of connection points: 2
#     Edge 27, Type (0, 1), BuildingBlock: MIFKUJ_clean_linker_0, # of connection points: 2
#     Edge 28, Type (0, 1), BuildingBlock: MIFKUJ_clean_linker_0, # of connection points: 2
#     Edge 29, Type (0, 1), BuildingBlock: MIFKUJ_clean_linker_0, # of connection points: 2
#     Edge 30, Type (0, 1), BuildingBlock: MIFKUJ_clean_linker_0, # of connection points: 2
#     Edge 31, Type (0, 1), BuildingBlock: MIFKUJ_clean_linker_0, # of connection points: 2
#     Edge 32, Type (0, 1), BuildingBlock: MIFKUJ_clean_linker_0, # of connection points: 2
#     Edge 33, Type (0, 1), BuildingBlock: MIFKUJ_clean_linker_0, # of connection points: 2
#     Edge 34, Type (0, 1), BuildingBlock: MIFKUJ_clean_linker_0, # of connection points: 2
#     Edge 35, Type (0, 1), BuildingBlock: MIFKUJ_clean_linker_0, # of connection points: 2
#     Edge 36, Type (0, 1), BuildingBlock: MIFKUJ_clean_linker_0, # of connection points: 2
#     Edge 37, Type (0, 1), BuildingBlock: MIFKUJ_clean_linker_0, # of connection points: 2
# Relax obj value: 0.000
# Max RMSD: 0.020
# Mean RMSD: 0.009
data_MOF--net-pto--node1-WUSLED_clean_sbu_0--node2-KOZSID_clean_sbu_0--edge1-MIFKUJ_clean_linker_0
_symmetry_space_group_name_H-M    P1
_symmetry_Int_Tables_number       1
_symmetry_cell_setting            triclinic
loop_
_symmetry_equiv_pos_as_xyz
'x, y, z'
_cell_length_a     60.138628
_cell_length_b     80.685093
_cell_length_c     70.629312
_cell_angle_alpha  87.899555
_cell_angle_beta   88.577365
_cell_angle_gamma 92.426112
loop_
_atom_site_label
_atom_site_type_symbol
_atom_site_fract_x
_atom_site_fract_y
_atom_site_fract_z
_atom_type_partial_charge
C0 C 0.2528 0.23213 0.34539 0.0
C1 C 0.26424 0.21886 0.33806 0.0
C2 C 0.25597 0.20215 0.36721 0.0
C3 C 0.26577 0.20399 0.34885 0.0
C4 C 0.24457 0.21555 0.3744 0.0
C5 C 0.24302 0.23034 0.36361 0.0
U6 U 0.26766 0.2633 0.30352 0.0
O7 O 0.24563 0.27913 0.28707 0.0
O8 O 0.27193 0.29058 0.30387 0.0
C9 C 0.25456 0.29298 0.29333 0.0
C10 C 0.25064 0.2479 0.33443 0.0
C11 C 0.2392 0.30583 0.29946 0.0
C12 C 0.20182 0.31559 0.30506 0.0
C13 C 0.21603 0.3027 0.30121 0.0
C14 C 0.23365 0.33486 0.306 0.0
C15 C 0.21042 0.3319 0.30729 0.0
C16 C 0.24781 0.32201 0.30208 0.0
C17 C 0.31201 0.25283 0.26553 0.0
C18 C 0.31694 0.26334 0.23283 0.0
C19 C 0.34711 0.24982 0.24832 0.0
C20 C 0.33385 0.2474 0.26484 0.0
C21 C 0.33881 0.25772 0.23203 0.0
C22 C 0.3037 0.26097 0.24943 0.0
C23 C 0.29816 0.24923 0.28295 0.0
O24 O 0.26789 0.25846 0.33443 0.0
O25 O 0.24171 0.24683 0.31769 0.0
O26 O 0.27665 0.24672 0.28075 0.0
O27 O 0.30288 0.25824 0.29757 0.0
H28 H 0.27197 0.22001 0.32403 0.0
H29 H 0.27486 0.19402 0.34292 0.0
H30 H 0.23652 0.21455 0.3883 0.0
H31 H 0.23405 0.2404 0.36951 0.0
H32 H 0.18405 0.31279 0.30619 0.0
H33 H 0.2088 0.29038 0.29925 0.0
H34 H 0.2409 0.34726 0.30737 0.0
H35 H 0.26556 0.32484 0.3006 0.0
H36 H 0.3101 0.26965 0.22064 0.0
H37 H 0.36372 0.24513 0.24819 0.0
H38 H 0.34059 0.24102 0.27705 0.0
H39 H 0.28693 0.26537 0.24962 0.0
C40 C 0.24217 0.80697 0.6971 0.0
C41 C 0.26023 0.81823 0.69954 0.0
C42 C 0.24622 0.83716 0.67517 0.0
C43 C 0.26223 0.83319 0.68869 0.0
C44 C 0.22802 0.82587 0.67306 0.0
C45 C 0.22606 0.81097 0.68388 0.0
U46 U 0.25604 0.77632 0.73815 0.0
O47 O 0.23362 0.75883 0.75487 0.0
O48 O 0.26066 0.74934 0.73746 0.0
C49 C 0.24303 0.74566 0.74842 0.0
C50 C 0.23988 0.79085 0.70778 0.0
C51 C 0.22801 0.73186 0.74254 0.0
C52 C 0.19234 0.72098 0.73155 0.0
C53 C 0.20671 0.7345 0.73556 0.0
C54 C 0.22053 0.70204 0.74101 0.0
C55 C 0.199 0.70454 0.73438 0.0
C56 C 0.23481 0.71553 0.74504 0.0
C57 C 0.2985 0.78991 0.77549 0.0
C58 C 0.31068 0.77251 0.80185 0.0
C59 C 0.32429 0.80115 0.79821 0.0
C60 C 0.31172 0.80314 0.78195 0.0
C61 C 0.32391 0.78583 0.80845 0.0
C62 C 0.29804 0.77454 0.78552 0.0
C63 C 0.28543 0.79256 0.75831 0.0
O64 O 0.25729 0.78155 0.70732 0.0
O65 O 0.23024 0.79101 0.72467 0.0
O66 O 0.2638 0.79334 0.76099 0.0
O67 O 0.29085 0.78387 0.74364 0.0
H68 H 0.27287 0.81538 0.70969 0.0
H69 H 0.27656 0.84148 0.69062 0.0
H70 H 0.21514 0.82858 0.6631 0.0
H71 H 0.21193 0.80249 0.68183 0.0
H72 H 0.176 0.7234 0.72626 0.0
H73 H 0.20106 0.74699 0.73345 0.0
H74 H 0.22617 0.68961 0.74364 0.0
H75 H 0.25109 0.71317 0.75053 0.0
H76 H 0.30984 0.76058 0.80944 0.0
H77 H 0.33454 0.8116 0.80262 0.0
H78 H 0.31238 0.81508 0.77435 0.0
H79 H 0.28789 0.76417 0.78077 0.0
C80 C 0.73761 0.78985 0.26835 0.0
C81 C 0.73235 0.77395 0.26183 0.0
C82 C 0.7108 0.78597 0.23621 0.0
C83 C 0.71906 0.77203 0.24592 0.0
C84 C 0.71654 0.80185 0.24268 0.0
C85 C 0.72974 0.80375 0.25855 0.0
U86 U 0.78078 0.77681 0.30509 0.0
O87 O 0.80645 0.79224 0.3186 0.0
O88 O 0.77989 0.77946 0.33609 0.0
C89 C 0.79705 0.79013 0.33558 0.0
C90 C 0.75077 0.79234 0.2855 0.0
C91 C 0.79458 0.80524 0.3466 0.0
C92 C 0.78758 0.83467 0.34882 0.0
C93 C 0.78872 0.8204 0.33808 0.0
C94 C 0.7977 0.81874 0.37675 0.0
C95 C 0.79227 0.83408 0.3683 0.0
C96 C 0.79887 0.80454 0.36603 0.0
C97 C 0.8094 0.73475 0.2983 0.0
C98 C 0.83105 0.71872 0.32059 0.0
C99 C 0.82883 0.71069 0.28798 0.0
C100 C 0.81536 0.72403 0.28404 0.0
C101 C 0.83668 0.7077 0.30635 0.0
C102 C 0.81748 0.73212 0.31661 0.0
C103 C 0.79413 0.74809 0.29357 0.0
O104 O 0.74579 0.78221 0.30014 0.0
O105 O 0.77231 0.7951 0.28272 0.0
O106 O 0.80335 0.76245 0.28759 0.0
O107 O 0.77689 0.74955 0.30511 0.0
H108 H 0.73829 0.76303 0.26915 0.0
H109 H 0.71488 0.7596 0.24148 0.0
H110 H 0.71091 0.81289 0.2354 0.0
H111 H 0.7337 0.81613 0.26328 0.0
H112 H 0.78351 0.84624 0.34175 0.0
H113 H 0.7853 0.82125 0.3231 0.0
H114 H 0.80098 0.81766 0.39174 0.0
H115 H 0.80333 0.79297 0.37292 0.0
H116 H 0.8367 0.71676 0.33491 0.0
H117 H 0.83313 0.70272 0.27657 0.0
H118 H 0.80938 0.72587 0.2698 0.0
H119 H 0.81307 0.74026 0.32784 0.0
C120 C 0.76961 0.22815 0.72757 0.0
C121 C 0.7907 0.22564 0.71942 0.0
C122 C 0.77519 0.20293 0.70107 0.0
C123 C 0.79346 0.21316 0.70629 0.0
C124 C 0.75404 0.20585 0.70897 0.0
C125 C 0.75133 0.21827 0.72205 0.0
U126 U 0.78089 0.26981 0.75254 0.0
O127 O 0.75671 0.28556 0.76626 0.0
O128 O 0.78244 0.27405 0.78316 0.0
C129 C 0.76475 0.28307 0.78322 0.0
C130 C 0.76619 0.24028 0.74252 0.0
C131 C 0.7484 0.27963 0.79896 0.0
C132 C 0.7152 0.26529 0.81307 0.0
C133 C 0.7309 0.26762 0.79803 0.0
C134 C 0.73453 0.28678 0.83012 0.0
C135 C 0.7167 0.27498 0.82925 0.0
C136 C 0.75014 0.28906 0.81517 0.0
C137 C 0.82439 0.30285 0.73295 0.0
C138 C 0.82732 0.33161 0.74236 0.0
C139 C 0.8574 0.32024 0.72427 0.0
C140 C 0.84547 0.30497 0.72405 0.0
C141 C 0.84848 0.3338 0.73337 0.0
C142 C 0.81542 0.31627 0.74221 0.0
C143 C 0.81207 0.28664 0.73221 0.0
O144 O 0.78249 0.2426 0.75434 0.0
O145 O 0.7568 0.2541 0.73737 0.0
O146 O 0.79073 0.28712 0.7287 0.0
O147 O 0.81641 0.27557 0.74558 0.0
H148 H 0.8051 0.2331 0.72343 0.0
H149 H 0.81001 0.21124 0.70064 0.0
H150 H 0.7395 0.1985 0.70506 0.0
H151 H 0.73489 0.22 0.7281 0.0
H152 H 0.70164 0.25615 0.81185 0.0
H153 H 0.72926 0.2602 0.78562 0.0
H154 H 0.73652 0.29423 0.84246 0.0
H155 H 0.76356 0.29835 0.8162 0.0
H156 H 0.82005 0.3417 0.7497 0.0
H157 H 0.87349 0.3215 0.71701 0.0
H158 H 0.85268 0.29479 0.7168 0.0
H159 H 0.79923 0.3149 0.74929 0.0
C160 C 0.80338 0.73647 0.75073 0.0
C161 C 0.8265 0.73945 0.74815 0.0
C162 C 0.83136 0.71019 0.74194 0.0
C163 C 0.84032 0.72645 0.74382 0.0
C164 C 0.80816 0.70738 0.74403 0.0
C165 C 0.79439 0.72035 0.74842 0.0
U166 U 0.77608 0.7795 0.74846 0.0
O167 O 0.74145 0.78516 0.75555 0.0
O168 O 0.76866 0.79572 0.77208 0.0
C169 C 0.74701 0.79364 0.7704 0.0
C170 C 0.78856 0.7494 0.75748 0.0
C171 C 0.73386 0.78999 0.78821 0.0
C172 C 0.70742 0.77271 0.80778 0.0
C173 C 0.72082 0.77521 0.79129 0.0
C174 C 0.72028 0.79949 0.81855 0.0
C175 C 0.70687 0.78487 0.82157 0.0
C176 C 0.73355 0.80202 0.80206 0.0
C177 C 0.79052 0.812 0.7077 0.0
C178 C 0.76962 0.83149 0.68863 0.0
C179 C 0.8085 0.83768 0.69445 0.0
C180 C 0.80943 0.82276 0.70514 0.0
C181 C 0.78864 0.84217 0.68588 0.0
C182 C 0.77052 0.8166 0.69942 0.0
C183 C 0.7925 0.79568 0.71786 0.0
O184 O 0.79807 0.76296 0.76395 0.0
O185 O 0.771 0.7523 0.74734 0.0
O186 O 0.77519 0.78516 0.71778 0.0
O187 O 0.80226 0.79587 0.73431 0.0
H188 H 0.834 0.75173 0.74984 0.0
H189 H 0.85807 0.72911 0.74208 0.0
H190 H 0.80067 0.69502 0.74294 0.0
H191 H 0.77668 0.71765 0.75054 0.0
H192 H 0.6975 0.76123 0.80974 0.0
H193 H 0.72076 0.76567 0.78089 0.0
H194 H 0.72008 0.80922 0.82871 0.0
H195 H 0.74333 0.81356 0.79996 0.0
H196 H 0.75399 0.83463 0.68243 0.0
H197 H 0.82354 0.84547 0.69246 0.0
H198 H 0.82513 0.81948 0.71115 0.0
H199 H 0.75561 0.80862 0.70105 0.0
C200 C 0.73983 0.25371 0.27477 0.0
C201 C 0.74897 0.26126 0.25792 0.0
C202 C 0.71338 0.25741 0.24231 0.0
C203 C 0.73589 0.26306 0.24185 0.0
C204 C 0.70423 0.25023 0.2594 0.0
C205 C 0.71731 0.24837 0.27538 0.0
U206 U 0.78388 0.2663 0.31118 0.0
O207 O 0.78365 0.26119 0.34201 0.0
O208 O 0.80981 0.25128 0.32402 0.0
C209 C 0.80044 0.25129 0.34104 0.0
C210 C 0.75344 0.2506 0.29163 0.0
C211 C 0.79783 0.23495 0.3515 0.0
C212 C 0.77626 0.21477 0.3719 0.0
C213 C 0.7778 0.22974 0.36111 0.0
C214 C 0.81454 0.20972 0.36346 0.0
C215 C 0.79465 0.2046 0.37331 0.0
C216 C 0.81612 0.22473 0.35278 0.0
C217 C 0.81166 0.31093 0.30517 0.0
C218 C 0.84215 0.32324 0.32274 0.0
C219 C 0.82318 0.33999 0.2996 0.0
C220 C 0.80932 0.32628 0.29567 0.0
C221 C 0.83977 0.33872 0.31322 0.0
C222 C 0.82817 0.30945 0.31877 0.0
C223 C 0.7967 0.29685 0.30025 0.0
O224 O 0.77496 0.24935 0.28861 0.0
O225 O 0.74867 0.25909 0.30662 0.0
O226 O 0.77964 0.29326 0.31188 0.0
O227 O 0.80614 0.28362 0.294 0.0
H228 H 0.7663 0.26553 0.25704 0.0
H229 H 0.74361 0.26851 0.22895 0.0
H230 H 0.68689 0.24604 0.26047 0.0
H231 H 0.70986 0.24257 0.28823 0.0
H232 H 0.76062 0.21114 0.37911 0.0
H233 H 0.76336 0.23729 0.36049 0.0
H234 H 0.82912 0.20234 0.36441 0.0
H235 H 0.83183 0.22848 0.34572 0.0
H236 H 0.85464 0.32182 0.3334 0.0
H237 H 0.82109 0.35155 0.2917 0.0
H238 H 0.79677 0.32765 0.28504 0.0
H239 H 0.83023 0.29769 0.32628 0.0
C240 C 0.24711 0.23711 0.70254 0.0
C241 C 0.2676 0.22947 0.70077 0.0
C242 C 0.2506 0.20792 0.68166 0.0
C243 C 0.26934 0.21506 0.69037 0.0
C244 C 0.2301 0.21555 0.68369 0.0
C245 C 0.22841 0.22997 0.69398 0.0
U246 U 0.26168 0.26635 0.74287 0.0
O247 O 0.26616 0.29358 0.74235 0.0
O248 O 0.23965 0.28119 0.76028 0.0
C249 C 0.24912 0.29538 0.75401 0.0
C250 C 0.24483 0.25262 0.71287 0.0
C251 C 0.23409 0.30884 0.74923 0.0
C252 C 0.21191 0.32457 0.72707 0.0
C253 C 0.22536 0.31111 0.7311 0.0
C254 C 0.21561 0.33339 0.75928 0.0
C255 C 0.20708 0.336 0.74109 0.0
C256 C 0.22894 0.31999 0.76327 0.0
C257 C 0.30452 0.25309 0.77973 0.0
C258 C 0.32366 0.27086 0.80186 0.0
C259 C 0.32446 0.24098 0.80602 0.0
C260 C 0.31145 0.23914 0.79002 0.0
C261 C 0.33094 0.25686 0.81209 0.0
C262 C 0.31056 0.269 0.78584 0.0
C263 C 0.29134 0.25061 0.7626 0.0
O264 O 0.2354 0.25097 0.72987 0.0
O265 O 0.26209 0.26322 0.71203 0.0
O266 O 0.29653 0.26053 0.74782 0.0
O267 O 0.26977 0.24816 0.76544 0.0
H268 H 0.28227 0.23466 0.70736 0.0
H269 H 0.28533 0.20942 0.6893 0.0
H270 H 0.21538 0.21055 0.67701 0.0
H271 H 0.21245 0.23567 0.69511 0.0
H272 H 0.20571 0.32623 0.7129 0.0
H273 H 0.22914 0.30262 0.72005 0.0
H274 H 0.2119 0.34168 0.77054 0.0
H275 H 0.23543 0.31843 0.77737 0.0
H276 H 0.32845 0.28327 0.80599 0.0
H277 H 0.32931 0.2299 0.8137 0.0
H278 H 0.30686 0.22676 0.78563 0.0
H279 H 0.30533 0.27995 0.77813 0.0
C280 C 0.2184 0.73802 0.31742 0.0
C281 C 0.20791 0.733 0.30087 0.0
C282 C 0.19415 0.70711 0.31695 0.0
C283 C 0.19585 0.71775 0.30067 0.0
C284 C 0.20496 0.71209 0.33338 0.0
C285 C 0.21686 0.72738 0.33362 0.0
U286 U 0.26062 0.77198 0.29772 0.0
O287 O 0.25878 0.79917 0.29682 0.0
O288 O 0.28522 0.78742 0.31266 0.0
C289 C 0.27558 0.8013 0.30818 0.0
C290 C 0.2305 0.75437 0.31834 0.0
C291 C 0.2727 0.81307 0.32355 0.0
C292 C 0.24973 0.827 0.34647 0.0
C293 C 0.25206 0.8149 0.33284 0.0
C294 C 0.28868 0.83535 0.34196 0.0
C295 C 0.268 0.83747 0.35112 0.0
C296 C 0.29097 0.82331 0.32835 0.0
C297 C 0.29184 0.76364 0.25034 0.0
C298 C 0.32635 0.7768 0.23723 0.0
C299 C 0.30401 0.75862 0.21804 0.0
C300 C 0.28851 0.75605 0.23305 0.0
C301 C 0.32331 0.76884 0.21998 0.0
C302 C 0.31076 0.7742 0.25229 0.0
C303 C 0.27586 0.75959 0.26622 0.0
O304 O 0.25197 0.75399 0.32132 0.0
O305 O 0.22553 0.7659 0.30567 0.0
O306 O 0.25805 0.76845 0.267 0.0
O307 O 0.28436 0.75663 0.28291 0.0
H308 H 0.2089 0.74087 0.2881 0.0
H309 H 0.18798 0.71422 0.2877 0.0
H310 H 0.20383 0.70431 0.34623 0.0
H311 H 0.22473 0.73098 0.34657 0.0
H312 H 0.23362 0.82813 0.35338 0.0
H313 H 0.23771 0.80711 0.32942 0.0
H314 H 0.30304 0.84329 0.34492 0.0
H315 H 0.30701 0.8222 0.32129 0.0
H316 H 0.34106 0.78467 0.23927 0.0
H317 H 0.30087 0.75254 0.20489 0.0
H318 H 0.274 0.7479 0.23123 0.0
H319 H 0.31367 0.7802 0.26554 0.0
C320 C 0.05636 0.54404 0.33945 0.0
C321 C 0.06399 0.54933 0.35673 0.0
C322 C 0.05303 0.53963 0.37048 0.0
C323 C 0.03927 0.52908 0.36093 0.0
N324 N 0.04094 0.53128 0.34185 0.0
Co325 Co 0.02256 0.51942 0.32271 0.0
N326 N 0.00486 0.50635 0.34309 0.0
C327 C 0.00698 0.50745 0.36203 0.0
C328 C 0.99311 0.49653 0.37251 0.0
C329 C 0.9816 0.48775 0.3595 0.0
C330 C 0.98921 0.49384 0.34177 0.0
N331 N 1.00422 0.50754 0.30357 0.0
C332 C 0.98849 0.49501 0.30599 0.0
C333 C 0.9805 0.4899 0.28878 0.0
C334 C 0.99173 0.49937 0.27498 0.0
C335 C 0.0059 0.50967 0.28448 0.0
N336 N 0.0402 0.53249 0.30233 0.0
C337 C 0.03814 0.53133 0.28338 0.0
C338 C 0.05222 0.54207 0.27289 0.0
C339 C 0.06374 0.55084 0.28588 0.0
C340 C 0.05587 0.54499 0.30363 0.0
N341 N 0.04433 0.50141 0.32202 0.0
C342 C 0.07239 0.47408 0.32106 0.0
C343 C 0.06486 0.48155 0.30438 0.0
C344 C 0.05113 0.49511 0.30516 0.0
C345 C 0.06612 0.48088 0.33823 0.0
C346 C 0.05219 0.49438 0.33838 0.0
N347 N 1.0008 0.53743 0.3234 0.0
C348 C 0.97856 0.55751 0.30697 0.0
C349 C 0.97258 0.56465 0.32398 0.0
C350 C 0.98059 0.55767 0.34075 0.0
C351 C 0.99435 0.54409 0.34016 0.0
C352 C 0.9926 0.5441 0.30699 0.0
H353 H 0.99972 0.5393 0.35345 0.0
H354 H 0.99684 0.53951 0.29349 0.0
H355 H 0.04606 0.50014 0.29191 0.0
H356 H 0.04774 0.49875 0.35195 0.0
C357 C 0.02322 0.51803 0.36949 0.0
C358 C 0.0633 0.55213 0.32125 0.0
C359 C 0.98147 0.48699 0.32415 0.0
C360 C 0.02193 0.52073 0.27589 0.0
H361 H 0.07573 0.55948 0.35925 0.0
H362 H 0.05429 0.54061 0.38566 0.0
H363 H 0.99195 0.49483 0.38778 0.0
H364 H 0.96932 0.47778 0.36268 0.0
H365 H 0.96823 0.48004 0.28642 0.0
H366 H 0.99023 0.4985 0.25981 0.0
H367 H 0.05355 0.54364 0.25761 0.0
H368 H 0.07621 0.56067 0.28265 0.0
H369 H 0.0696 0.477 0.29068 0.0
H370 H 0.07144 0.47554 0.35158 0.0
H371 H 0.9729 0.56251 0.29357 0.0
H372 H 0.97613 0.56258 0.35434 0.0
C373 C 0.05131 0.54766 0.74176 0.0
C374 C 0.05961 0.55284 0.75885 0.0
C375 C 0.04886 0.54323 0.7728 0.0
C376 C 0.03476 0.53273 0.7635 0.0
N377 N 0.03609 0.53481 0.7444 0.0
Co378 Co 0.01791 0.52251 0.72551 0.0
N379 N 1.00082 0.5093 0.74614 0.0
C380 C 1.00327 0.51046 0.76504 0.0
C381 C 0.98978 0.49942 0.77571 0.0
C382 C 0.97824 0.49048 0.76288 0.0
C383 C 0.98544 0.49658 0.74504 0.0
N384 N 0.99956 0.5103 0.70663 0.0
C385 C 0.98413 0.49758 0.70928 0.0
C386 C 0.97599 0.49231 0.69219 0.0
C387 C 0.98677 0.50192 0.67824 0.0
C388 C 1.00085 0.51244 0.68755 0.0
N389 N 0.03516 0.53564 0.70489 0.0
C390 C 0.03288 0.53432 0.68599 0.0
C391 C 0.04623 0.54543 0.6753 0.0
C392 C 0.05756 0.55456 0.68811 0.0
C393 C 0.05051 0.54842 0.70597 0.0
N394 N 0.04014 0.50483 0.72476 0.0
C395 C 0.06923 0.47814 0.72414 0.0
C396 C 0.06054 0.48467 0.70743 0.0
C397 C 0.04634 0.49799 0.70803 0.0
C398 C 0.06345 0.48544 0.74111 0.0
C399 C 0.04899 0.49858 0.74111 0.0
N400 N 0.99572 0.54019 0.72626 0.0
C401 C 0.9736 0.56051 0.71009 0.0
C402 C 0.96722 0.56721 0.72727 0.0
C403 C 0.97481 0.55979 0.74395 0.0
C404 C 0.98875 0.54636 0.74314 0.0
C405 C 0.98775 0.54716 0.7099 0.0
H406 H 0.9939 0.54132 0.75637 0.0
H407 H 0.9923 0.54287 0.69633 0.0
H408 H 0.04045 0.50244 0.69478 0.0
H409 H 0.04498 0.50329 0.75458 0.0
C410 C 0.01924 0.52139 0.77231 0.0
C411 C 0.05792 0.55572 0.72351 0.0
C412 C 0.97762 0.48951 0.72755 0.0
C413 C 0.01668 0.52355 0.67876 0.0
H414 H 0.07186 0.56275 0.76101 0.0
H415 H 0.0507 0.54409 0.78794 0.0
H416 H 0.98886 0.49779 0.791 0.0
H417 H 0.96618 0.48039 0.76624 0.0
H418 H 0.96395 0.48226 0.68997 0.0
H419 H 0.98509 0.50096 0.66309 0.0
H420 H 0.04701 0.54712 0.66002 0.0
H421 H 0.0692 0.56488 0.68464 0.0
H422 H 0.06479 0.47961 0.69387 0.0
H423 H 0.06961 0.48077 0.75448 0.0
H424 H 0.96823 0.56583 0.69675 0.0
H425 H 0.96999 0.56428 0.75765 0.0
C426 C 0.27828 0.99501 0.54877 0.0
C427 C 0.29875 0.98956 0.55448 0.0
C428 C 0.31464 0.99903 0.54449 0.0
C429 C 0.30307 0.00962 0.53322 0.0
N430 N 0.2807 1.00766 0.53554 0.0
Co431 Co 0.25772 0.01971 0.52084 0.0
N432 N 0.2812 0.03317 0.50561 0.0
C433 C 0.30351 0.03244 0.5072 0.0
C434 C 0.31546 0.04363 0.49547 0.0
C435 C 0.29986 0.05221 0.48597 0.0
C436 C 0.27922 0.04573 0.49251 0.0
N437 N 0.23476 0.03145 0.50583 0.0
C438 C 0.23717 0.04385 0.4923 0.0
C439 C 0.21673 0.04857 0.4857 0.0
C440 C 0.20085 0.03891 0.49548 0.0
C441 C 0.21241 0.02889 0.50746 0.0
N442 N 0.23425 1.00657 0.5364 0.0
C443 C 0.21195 1.00788 0.53543 0.0
C444 C 0.19999 0.9973 0.54785 0.0
C445 C 0.21554 0.98858 0.55724 0.0
C446 C 0.23619 0.99429 0.54987 0.0
N447 N 0.25755 0.0375 0.53975 0.0
C448 C 0.2576 0.06421 0.56476 0.0
C449 C 0.23775 0.05761 0.55763 0.0
C450 C 0.23809 0.04438 0.54534 0.0
C451 C 0.27738 0.05691 0.55941 0.0
C452 C 0.27698 0.0437 0.54707 0.0
N453 N 0.2579 1.00192 0.50191 0.0
C454 C 0.23838 0.98054 0.48469 0.0
C455 C 0.25831 0.97535 0.47667 0.0
C456 C 0.27799 0.984 0.48129 0.0
C457 C 0.27742 0.99707 0.49381 0.0
C458 C 0.23854 0.99374 0.49703 0.0
H459 H 0.29304 1.00298 0.49679 0.0
H460 H 0.22276 0.99696 0.50263 0.0
H461 H 0.2224 0.0401 0.54034 0.0
H462 H 0.29265 0.0388 0.54353 0.0
C463 C 0.31271 0.02128 0.52005 0.0
C464 C 0.25706 0.98731 0.55577 0.0
C465 C 0.25827 0.05213 0.486 0.0
C466 C 0.20275 0.01811 0.52157 0.0
H467 H 0.30191 0.97957 0.56455 0.0
H468 H 0.33251 0.9981 0.54512 0.0
H469 H 0.33337 0.04547 0.49416 0.0
H470 H 0.30328 0.06222 0.47555 0.0
H471 H 0.2136 0.05827 0.47524 0.0
H472 H 0.18297 0.03953 0.49446 0.0
H473 H 0.18207 0.99578 0.54951 0.0
H474 H 0.21207 0.97889 0.56804 0.0
H475 H 0.22195 0.06285 0.56114 0.0
H476 H 0.2932 0.06128 0.56478 0.0
H477 H 0.22263 0.97425 0.48181 0.0
H478 H 0.29389 0.98081 0.47522 0.0
C479 C 0.48465 0.7937 0.04988 0.0
C480 C 0.47745 0.80899 0.05527 0.0
C481 C 0.48932 0.82075 0.04439 0.0
C482 C 0.50298 0.812 0.03299 0.0
N483 N 0.50044 0.79535 0.03578 0.0
Co484 Co 0.51727 0.77803 0.02242 0.0
N485 N 0.53617 0.79538 0.00764 0.0
C486 C 0.53529 0.81205 0.00885 0.0
C487 C 0.54983 0.82084 0.99666 0.0
C488 C 0.56059 0.80913 0.98694 0.0
C489 C 0.552 0.79377 0.99385 0.0
N490 N 0.53387 0.76072 0.00887 0.0
C491 C 0.54974 0.76237 0.99482 0.0
C492 C 0.55657 0.74704 0.98917 0.0
C493 C 0.54432 0.7353 0.99973 0.0
C494 C 0.53082 0.74405 0.01124 0.0
N495 N 0.49862 0.76069 0.03744 0.0
C496 C 0.49975 0.74402 0.03651 0.0
C497 C 0.48551 0.73526 0.049 0.0
C498 C 0.47479 0.74701 0.05869 0.0
C499 C 0.48312 0.76233 0.05148 0.0
N500 N 0.49503 0.77804 1.00188 0.0
C501 C 0.46501 0.77799 0.97149 0.0
C502 C 0.47042 0.76321 0.98098 0.0
C503 C 0.48534 0.76352 0.99591 0.0
C504 C 0.47475 0.7928 0.97778 0.0
C505 C 0.48939 0.79255 0.99287 0.0
N506 N 0.53947 0.77803 0.04296 0.0
C507 C 0.56142 0.76322 0.06586 0.0
C508 C 0.56894 0.77806 0.07367 0.0
C509 C 0.56178 0.7929 0.06548 0.0
C510 C 0.54725 0.7926 0.0503 0.0
C511 C 0.54689 0.76348 0.05066 0.0
H512 H 0.54241 0.80434 0.04485 0.0
H513 H 0.54165 0.75173 0.04554 0.0
H514 H 0.48886 0.7518 1.00232 0.0
H515 H 0.49611 0.80428 0.99685 0.0
C516 C 0.51948 0.81907 0.02058 0.0
C517 C 0.47639 0.77803 0.05895 0.0
C518 C 0.55865 0.77808 0.98621 0.0
C519 C 0.51488 0.737 0.02417 0.0
H520 H 0.46515 0.8114 0.06618 0.0
H521 H 0.48851 0.83409 0.04507 0.0
H522 H 0.55189 0.83419 0.99467 0.0
H523 H 0.57297 0.81166 0.97572 0.0
H524 H 0.56901 0.74461 0.9784 0.0
H525 H 0.545 0.72195 0.99897 0.0
H526 H 0.48349 0.72192 0.05108 0.0
H527 H 0.4625 0.74458 0.07002 0.0
H528 H 0.46311 0.75138 0.97704 0.0
H529 H 0.47149 0.80462 0.97088 0.0
H530 H 0.56629 0.75136 0.0717 0.0
H531 H 0.56741 0.80477 0.07068 0.0
C532 C 0.81069 0.99835 0.55699 0.0
C533 C 0.83121 0.99303 0.56278 0.0
C534 C 0.84706 1.00264 0.55294 0.0
C535 C 0.83545 0.01316 0.54163 0.0
N536 N 0.81308 0.01098 0.54372 0.0
Co537 Co 0.79011 0.02292 0.5289 0.0
N538 N 0.81358 0.0362 0.51343 0.0
C539 C 0.83589 0.03527 0.51482 0.0
C540 C 0.84789 0.04641 0.50311 0.0
C541 C 0.83235 0.05513 0.49374 0.0
C542 C 0.81164 0.04871 0.50022 0.0
N543 N 0.76713 0.03485 0.51412 0.0
C544 C 0.76953 0.04733 0.50068 0.0
C545 C 0.74909 0.05203 0.49408 0.0
C546 C 0.7332 0.0425 0.50399 0.0
C547 C 0.74477 0.03247 0.51594 0.0
N548 N 0.76663 0.00965 0.54434 0.0
C549 C 0.74431 0.01071 0.54311 0.0
C550 C 0.73233 1.0001 0.55547 0.0
C551 C 0.74789 0.99156 0.56505 0.0
C552 C 0.76857 0.99739 0.55783 0.0
N553 N 0.78999 0.0407 0.54786 0.0
C554 C 0.78974 0.06697 0.57344 0.0
C555 C 0.7699 0.05935 0.56758 0.0
C556 C 0.77039 0.04643 0.55487 0.0
C557 C 0.80973 0.06102 0.56644 0.0
C558 C 0.80948 0.04794 0.55391 0.0
N559 N 0.79022 1.0051 0.50997 0.0
C560 C 0.77042 0.98462 0.49164 0.0
C561 C 0.79037 0.97831 0.48504 0.0
C562 C 0.81024 0.98596 0.49085 0.0
C563 C 0.80979 0.99922 0.50311 0.0
C564 C 0.77072 0.99788 0.50392 0.0
H565 H 0.82553 1.0044 0.50697 0.0
H566 H 0.75493 1.0019 0.50854 0.0
H567 H 0.75467 0.04141 0.55077 0.0
H568 H 0.82528 0.04396 0.54925 0.0
C569 C 0.84507 0.02448 0.52809 0.0
C570 C 0.78947 0.99057 0.56396 0.0
C571 C 0.79067 0.05539 0.49402 0.0
C572 C 0.7351 0.02131 0.52964 0.0
H573 H 0.83451 0.98299 0.57273 0.0
H574 H 0.86494 1.00173 0.55355 0.0
H575 H 0.8658 0.04829 0.50192 0.0
H576 H 0.83596 0.06534 0.48362 0.0
H577 H 0.74596 0.06154 0.48338 0.0
H578 H 0.71532 0.04303 0.50287 0.0
H579 H 0.71441 0.99856 0.5571 0.0
H580 H 0.74438 0.98196 0.57594 0.0
H581 H 0.75395 0.06356 0.57245 0.0
H582 H 0.82557 0.06633 0.57076 0.0
H583 H 0.75452 0.97912 0.48774 0.0
H584 H 0.82619 0.98182 0.48589 0.0
C585 C 0.48942 0.28066 0.05451 0.0
C586 C 0.48222 0.29596 0.05987 0.0
C587 C 0.49422 0.30771 0.04911 0.0
C588 C 0.50795 0.29897 0.03777 0.0
N589 N 0.50533 0.28231 0.0405 0.0
Co590 Co 0.52212 0.26501 0.02706 0.0
N591 N 0.54101 0.28236 0.01231 0.0
C592 C 0.5404 0.299 0.01379 0.0
C593 C 0.55535 0.3078 1.00194 0.0
C594 C 0.56605 0.2961 0.99216 0.0
C595 C 0.55687 0.28077 0.99855 0.0
N596 N 0.53867 0.2477 0.01337 0.0
C597 C 0.55442 0.24937 0.99921 0.0
C598 C 0.56053 0.23404 0.99299 0.0
C599 C 0.5483 0.22229 1.00356 0.0
C600 C 0.53535 0.23104 0.01551 0.0
N601 N 0.50346 0.24766 0.04207 0.0
C602 C 0.50468 0.231 0.04116 0.0
C603 C 0.49053 0.22221 0.05371 0.0
C604 C 0.47976 0.23393 0.0634 0.0
C605 C 0.48794 0.24927 0.05611 0.0
N606 N 0.49989 0.26512 0.00656 0.0
C607 C 0.47056 0.26506 0.9758 0.0
C608 C 0.47608 0.25026 0.98512 0.0
C609 C 0.49054 0.25058 1.00033 0.0
C610 C 0.47956 0.27992 0.98251 0.0
C611 C 0.49403 0.27967 0.99775 0.0
N612 N 0.54436 0.26488 0.04755 0.0
C613 C 0.56699 0.24981 0.06967 0.0
C614 C 0.57404 0.26449 0.0781 0.0
C615 C 0.56628 0.2794 0.07062 0.0
C616 C 0.55169 0.27932 0.05547 0.0
C617 C 0.55231 0.25029 0.05461 0.0
H618 H 0.54637 0.2911 0.05057 0.0
H619 H 0.54753 0.23865 0.04899 0.0
H620 H 0.49403 0.23886 0.00672 0.0
H621 H 0.5005 0.29142 1.00198 0.0
C622 C 0.52461 0.30602 0.02552 0.0
C623 C 0.48101 0.26498 0.06349 0.0
C624 C 0.5635 0.26512 0.99079 0.0
C625 C 0.51958 0.22399 0.02861 0.0
H626 H 0.46982 0.29837 0.07068 0.0
H627 H 0.49346 0.32106 0.04981 0.0
H628 H 0.55783 0.32115 1.00032 0.0
H629 H 0.57895 0.29859 0.98135 0.0
H630 H 0.57234 0.23156 0.98175 0.0
H631 H 0.54854 0.20895 1.00244 0.0
H632 H 0.48856 0.20886 0.05578 0.0
H633 H 0.46754 0.23144 0.07477 0.0
H634 H 0.46921 0.23842 0.98077 0.0
H635 H 0.47592 0.29173 0.97576 0.0
H636 H 0.57282 0.23793 0.07458 0.0
H637 H 0.57102 0.29114 0.07666 0.0
H638 H 0.21578 0.35812 0.33082 0.0
H639 H 0.19211 0.38184 0.334 0.0
H640 H 0.14705 0.36117 0.29366 0.0
H641 H 0.17094 0.33763 0.29003 0.0
H642 H 0.156 0.39363 0.28574 0.0
H643 H 0.1338 0.36026 0.34132 0.0
H644 H 0.13962 0.34437 0.37114 0.0
H645 H 0.16804 0.38808 0.39564 0.0
H646 H 0.16267 0.40419 0.36586 0.0
H647 H 0.06714 0.44704 0.29902 0.0
H648 H 0.09012 0.42285 0.29769 0.0
H649 H 0.1323 0.44312 0.34041 0.0
H650 H 0.10911 0.4673 0.34198 0.0
H651 H 0.12532 0.41102 0.3474 0.0
H652 H 0.14811 0.44443 0.29238 0.0
H653 H 0.14302 0.46068 0.26266 0.0
H654 H 0.11474 0.4174 0.23717 0.0
H655 H 0.11938 0.40094 0.26683 0.0
C656 C 0.20085 0.35861 0.32259 0.0
C657 C 0.19531 0.3459 0.31017 0.0
C658 C 0.18721 0.37214 0.32456 0.0
C659 C 0.16764 0.37328 0.31419 0.0
C660 C 0.16201 0.36058 0.30186 0.0
C661 C 0.1756 0.34703 0.29992 0.0
C662 C 0.15341 0.38792 0.31574 0.0
C663 C 0.14903 0.39728 0.2992 0.0
C664 C 0.14483 0.39305 0.33336 0.0
C665 C 0.14803 0.38339 0.35129 0.0
C666 C 0.14146 0.36645 0.35301 0.0
C667 C 0.14464 0.35741 0.36992 0.0
C668 C 0.15425 0.3652 0.38526 0.0
C669 C 0.16063 0.38206 0.38373 0.0
C670 C 0.1575 0.39115 0.36685 0.0
C671 C 0.0814 0.44643 0.30804 0.0
C672 C 0.08637 0.45922 0.32049 0.0
C673 C 0.09456 0.43256 0.30727 0.0
C674 C 0.11326 0.43121 0.3187 0.0
C675 C 0.11803 0.44382 0.3314 0.0
C676 C 0.10473 0.45766 0.3323 0.0
C677 C 0.12779 0.41668 0.31736 0.0
C678 C 0.13227 0.40737 0.33394 0.0
C679 C 0.13661 0.41165 0.29978 0.0
C680 C 0.13391 0.42149 0.28189 0.0
C681 C 0.14066 0.4384 0.28048 0.0
C682 C 0.13788 0.44765 0.26364 0.0
C683 C 0.12851 0.44008 0.24805 0.0
C684 C 0.12197 0.42324 0.24926 0.0
C685 C 0.12469 0.41395 0.26608 0.0
H686 H 0.12637 0.44726 0.23503 0.0
H687 H 0.1567 0.35818 0.39834 0.0
H688 H 0.15413 0.70107 0.74285 0.0
H689 H 0.12929 0.67666 0.73925 0.0
H690 H 0.18377 0.65041 0.71557 0.0
H691 H 0.20855 0.67495 0.71854 0.0
H692 H 0.14641 0.64386 0.69668 0.0
H693 H 0.16669 0.64394 0.76205 0.0
H694 H 0.17087 0.6557 0.79357 0.0
H695 H 0.10025 0.66124 0.79812 0.0
H696 H 0.09569 0.64971 0.7665 0.0
H697 H 0.10137 0.56093 0.71163 0.0
H698 H 0.1243 0.58685 0.71193 0.0
H699 H 0.06834 0.61196 0.73496 0.0
H700 H 0.0455 0.58599 0.73469 0.0
H701 H 0.10555 0.61954 0.75368 0.0
H702 H 0.08514 0.61822 0.68871 0.0
H703 H 0.08114 0.60598 0.65744 0.0
H704 H 0.15205 0.60246 0.65217 0.0
H705 H 0.15646 0.61442 0.68357 0.0
C706 C 0.16079 0.69021 0.73659 0.0
C707 C 0.18345 0.69 0.73111 0.0
C708 C 0.14658 0.67617 0.73472 0.0
C709 C 0.15469 0.66155 0.72742 0.0
C710 C 0.1771 0.66148 0.72134 0.0
C711 C 0.19132 0.67551 0.72321 0.0
C712 C 0.14002 0.64619 0.72658 0.0
C713 C 0.13768 0.63845 0.70919 0.0
C714 C 0.1282 0.63924 0.74279 0.0
C715 C 0.13088 0.64613 0.76183 0.0
C716 C 0.15208 0.64779 0.76971 0.0
C717 C 0.15451 0.65439 0.7876 0.0
C718 C 0.13584 0.65926 0.79782 0.0
C719 C 0.1147 0.65749 0.79018 0.0
C720 C 0.11218 0.65091 0.77228 0.0
C721 C 0.094 0.57206 0.71657 0.0
C722 C 0.07168 0.57158 0.72297 0.0
C723 C 0.10705 0.58686 0.71672 0.0
C724 C 0.09801 0.60146 0.72329 0.0
C725 C 0.0757 0.60091 0.72979 0.0
C726 C 0.06265 0.58612 0.72959 0.0
C727 C 0.11195 0.61719 0.72379 0.0
C728 C 0.11419 0.62499 0.74114 0.0
C729 C 0.12369 0.62415 0.70754 0.0
C730 C 0.12111 0.61708 0.68858 0.0
C731 C 0.09987 0.61471 0.68095 0.0
C732 C 0.09753 0.60784 0.66319 0.0
C733 C 0.11632 0.60341 0.65284 0.0
C734 C 0.1375 0.60588 0.66021 0.0
C735 C 0.13994 0.61272 0.67799 0.0
H736 H 0.11447 0.59809 0.63909 0.0
H737 H 0.13776 0.66436 0.81167 0.0
H738 H 0.87356 0.70573 0.32862 0.0
H739 H 0.89653 0.68173 0.33419 0.0
H740 H 0.85415 0.65255 0.29862 0.0
H741 H 0.83079 0.67622 0.2935 0.0
H742 H 0.86437 0.63454 0.32904 0.0
H743 H 0.90524 0.66965 0.2826 0.0
H744 H 0.92396 0.69561 0.26983 0.0
H745 H 0.96906 0.69501 0.31602 0.0
H746 H 0.95039 0.66915 0.32921 0.0
H747 H 0.93472 0.56974 0.30416 0.0
H748 H 0.91189 0.59416 0.3038 0.0
H749 H 0.95533 0.61735 0.34366 0.0
H750 H 0.97832 0.59294 0.34403 0.0
H751 H 0.94541 0.63877 0.31368 0.0
H752 H 0.90578 0.60241 0.35884 0.0
H753 H 0.88721 0.5762 0.37099 0.0
H754 H 0.83985 0.57892 0.32661 0.0
H755 H 0.85834 0.60505 0.31401 0.0
C756 C 0.86898 0.69415 0.32215 0.0
C757 C 0.8504 0.69301 0.31046 0.0
C758 C 0.88227 0.68046 0.32521 0.0
C759 C 0.87731 0.66533 0.31662 0.0
C760 C 0.85844 0.66406 0.30536 0.0
C761 C 0.84519 0.6777 0.30229 0.0
C762 C 0.8918 0.65085 0.31906 0.0
C763 C 0.88205 0.63546 0.3255 0.0
C764 C 0.91502 0.65203 0.31491 0.0
C765 C 0.92625 0.66758 0.30701 0.0
C766 C 0.91903 0.67513 0.29012 0.0
C767 C 0.92965 0.68981 0.28279 0.0
C768 C 0.94765 0.69699 0.29214 0.0
C769 C 0.95509 0.68946 0.30881 0.0
C770 C 0.9445 0.67479 0.31622 0.0
C771 C 0.93944 0.58004 0.31284 0.0
C772 C 0.95833 0.57936 0.32416 0.0
C773 C 0.92629 0.59396 0.31271 0.0
C774 C 0.93178 0.60758 0.32381 0.0
C775 C 0.95071 0.60699 0.33503 0.0
C776 C 0.96375 0.59298 0.33532 0.0
C777 C 0.91789 0.62247 0.32341 0.0
C778 C 0.92776 0.63791 0.31735 0.0
C779 C 0.89477 0.62132 0.32784 0.0
C780 C 0.88358 0.60561 0.33537 0.0
C781 C 0.89152 0.59735 0.35157 0.0
C782 C 0.88099 0.58252 0.35856 0.0
C783 C 0.86239 0.57587 0.34955 0.0
C784 C 0.85427 0.58407 0.33355 0.0
C785 C 0.86476 0.5989 0.32649 0.0
H786 H 0.85426 0.56439 0.35499 0.0
H787 H 0.95586 0.70835 0.28643 0.0
H788 H 0.89321 0.33954 0.73845 0.0
H789 H 0.91423 0.36617 0.7377 0.0
H790 H 0.85383 0.39175 0.72787 0.0
H791 H 0.83272 0.36509 0.72818 0.0
H792 H 0.88781 0.40428 0.70472 0.0
H793 H 0.87691 0.39141 0.7712 0.0
H794 H 0.87809 0.37412 0.80064 0.0
H795 H 0.94919 0.37263 0.7945 0.0
H796 H 0.9484 0.38973 0.76486 0.0
H797 H 0.93297 0.48529 0.72211 0.0
H798 H 0.91033 0.45916 0.72357 0.0
H799 H 0.96891 0.43213 0.73621 0.0
H800 H 0.99136 0.45832 0.73507 0.0
H801 H 0.93498 0.4206 0.75818 0.0
H802 H 0.94617 0.43307 0.69168 0.0
H803 H 0.94537 0.45039 0.66223 0.0
H804 H 0.8743 0.45239 0.66806 0.0
H805 H 0.87471 0.43531 0.69775 0.0
C806 C 0.88438 0.35081 0.73601 0.0
C807 C 0.86123 0.35012 0.73339 0.0
C808 C 0.89641 0.36607 0.73575 0.0
C809 C 0.88562 0.38103 0.7329 0.0
C810 C 0.86254 0.3804 0.73015 0.0
C811 C 0.85046 0.36514 0.73049 0.0
C812 C 0.89846 0.39729 0.73267 0.0
C813 C 0.89786 0.40796 0.71653 0.0
C814 C 0.91203 0.40197 0.74786 0.0
C815 C 0.91256 0.39172 0.76571 0.0
C816 C 0.89278 0.38729 0.77604 0.0
C817 C 0.89338 0.37754 0.79278 0.0
C818 C 0.91369 0.37224 0.79941 0.0
C819 C 0.93346 0.37672 0.78934 0.0
C820 C 0.93295 0.38646 0.77258 0.0
C821 C 0.9409 0.47372 0.72516 0.0
C822 C 0.96384 0.47369 0.72835 0.0
C823 C 0.92803 0.4588 0.72593 0.0
C824 C 0.93792 0.44358 0.72975 0.0
C825 C 0.96086 0.44365 0.73321 0.0
C826 C 0.97369 0.45857 0.7325 0.0
C827 C 0.92442 0.42759 0.73019 0.0
C828 C 0.9249 0.41695 0.74637 0.0
C829 C 0.91082 0.42292 0.715 0.0
C830 C 0.9105 0.43305 0.69705 0.0
C831 C 0.93038 0.43731 0.68676 0.0
C832 C 0.93 0.44707 0.67002 0.0
C833 C 0.9098 0.45252 0.6633 0.0
C834 C 0.88994 0.44818 0.6733 0.0
C835 C 0.89023 0.43845 0.69008 0.0
H836 H 0.90954 0.46007 0.65034 0.0
H837 H 0.91413 0.3647 0.81238 0.0
H838 H 0.26281 0.1985 0.4054 0.0
H839 H 0.26374 0.17283 0.42471 0.0
H840 H 0.25397 0.14427 0.37494 0.0
H841 H 0.25233 0.16998 0.35556 0.0
H842 H 0.22772 0.13193 0.40401 0.0
H843 H 0.30513 0.14792 0.39537 0.0
H844 H 0.33843 0.16679 0.39599 0.0
H845 H 0.3294 0.17087 0.45611 0.0
H846 H 0.29586 0.1522 0.45581 0.0
H847 H 0.25247 0.0541 0.44779 0.0
H848 H 0.253 0.0792 0.42698 0.0
H849 H 0.2649 0.1094 0.4752 0.0
H850 H 0.26483 0.08422 0.49586 0.0
H851 H 0.29052 0.12058 0.44615 0.0
H852 H 0.21302 0.10516 0.45501 0.0
H853 H 0.1797 0.0863 0.45479 0.0
H854 H 0.18849 0.08139 0.39477 0.0
H855 H 0.22212 0.10001 0.39468 0.0
C856 C 0.26072 0.18678 0.39853 0.0
C857 C 0.25747 0.18638 0.37886 0.0
C858 C 0.26148 0.17207 0.4096 0.0
C859 C 0.25915 0.15654 0.40131 0.0
C860 C 0.25587 0.15607 0.38169 0.0
C861 C 0.25514 0.17081 0.37058 0.0
C862 C 0.2598 0.14086 0.41317 0.0
C863 C 0.24162 0.12933 0.413 0.0
C864 C 0.27765 0.13759 0.4253 0.0
C865 C 0.29786 0.14878 0.42553 0.0
C866 C 0.31015 0.15294 0.4087 0.0
C867 C 0.32908 0.16358 0.409 0.0
C868 C 0.336 0.17006 0.42607 0.0
C869 C 0.32402 0.16586 0.44289 0.0
C870 C 0.30505 0.15524 0.44267 0.0
C871 C 0.25517 0.06614 0.45385 0.0
C872 C 0.25846 0.06734 0.47335 0.0
C873 C 0.25539 0.08047 0.44201 0.0
C874 C 0.25869 0.09629 0.44951 0.0
C875 C 0.26229 0.0974 0.46903 0.0
C876 C 0.26216 0.08306 0.48084 0.0
C877 C 0.25842 0.11166 0.43705 0.0
C878 C 0.27665 0.12314 0.43712 0.0
C879 C 0.24057 0.11491 0.42489 0.0
C880 C 0.22022 0.10386 0.42487 0.0
C881 C 0.20794 0.09997 0.44178 0.0
C882 C 0.18899 0.08933 0.44172 0.0
C883 C 0.18201 0.08262 0.42479 0.0
C884 C 0.19394 0.08658 0.40788 0.0
C885 C 0.21294 0.09718 0.40788 0.0
H886 H 0.16733 0.07438 0.42476 0.0
H887 H 0.35066 0.17829 0.42627 0.0
H888 H 0.32996 0.80801 0.83656 0.0
H889 H 0.35346 0.80567 0.86412 0.0
H890 H 0.37176 0.75702 0.84775 0.0
H891 H 0.34826 0.7593 0.81999 0.0
H892 H 0.36438 0.75737 0.88545 0.0
H893 H 0.40743 0.79063 0.8396 0.0
H894 H 0.41533 0.81367 0.81617 0.0
H895 H 0.40569 0.84897 0.85935 0.0
H896 H 0.3974 0.82613 0.883 0.0
H897 H 0.46018 0.75471 0.94408 0.0
H898 H 0.4354 0.755 0.91719 0.0
H899 H 0.4107 0.80173 0.93414 0.0
H900 H 0.43476 0.80129 0.96148 0.0
H901 H 0.42217 0.80164 0.8957 0.0
H902 H 0.37891 0.76759 0.9415 0.0
H903 H 0.37187 0.74411 0.9645 0.0
H904 H 0.38338 0.7097 0.92072 0.0
H905 H 0.39081 0.73299 0.89749 0.0
C906 C 0.33907 0.79683 0.83871 0.0
C907 C 0.33736 0.78392 0.82587 0.0
C908 C 0.35251 0.7955 0.85454 0.0
C909 C 0.36473 0.78128 0.8579 0.0
C910 C 0.36256 0.76814 0.84546 0.0
C911 C 0.34905 0.76944 0.8296 0.0
C912 C 0.37997 0.78031 0.87425 0.0
C913 C 0.37722 0.76693 0.88752 0.0
C914 C 0.39657 0.79289 0.87719 0.0
C915 C 0.40158 0.80667 0.86303 0.0
C916 C 0.40682 0.80331 0.84407 0.0
C917 C 0.41139 0.81633 0.83075 0.0
C918 C 0.41095 0.83277 0.83626 0.0
C919 C 0.40599 0.83622 0.8551 0.0
C920 C 0.40137 0.82325 0.86847 0.0
C921 C 0.44923 0.76493 0.94236 0.0
C922 C 0.4496 0.77798 0.95512 0.0
C923 C 0.43513 0.76511 0.92685 0.0
C924 C 0.42112 0.77836 0.92365 0.0
C925 C 0.42144 0.7914 0.93626 0.0
C926 C 0.43535 0.79117 0.95187 0.0
C927 C 0.40643 0.7788 0.90696 0.0
C928 C 0.40934 0.79207 0.89359 0.0
C929 C 0.39013 0.76606 0.90387 0.0
C930 C 0.38566 0.75204 0.9178 0.0
C931 C 0.38014 0.75502 0.93681 0.0
C932 C 0.37604 0.74175 0.94988 0.0
C933 C 0.37725 0.72543 0.94409 0.0
C934 C 0.3825 0.72235 0.92519 0.0
C935 C 0.38664 0.73558 0.91206 0.0
H936 H 0.37406 0.71517 0.95423 0.0
H937 H 0.41451 0.84284 0.82593 0.0
H938 H 0.82066 0.84347 0.39621 0.0
H939 H 0.81949 0.86792 0.4155 0.0
H940 H 0.76216 0.88408 0.38563 0.0
H941 H 0.76303 0.85948 0.36634 0.0
H942 H 0.79157 0.90982 0.39041 0.0
H943 H 0.75657 0.8665 0.43023 0.0
H944 H 0.75317 0.83909 0.4469 0.0
H945 H 0.81152 0.85103 0.47836 0.0
H946 H 0.81546 0.87844 0.46168 0.0
H947 H 0.76244 0.97115 0.45585 0.0
H948 H 0.76221 0.94702 0.43588 0.0
H949 H 0.8185 0.92846 0.46539 0.0
H950 H 0.81836 0.95226 0.48583 0.0
H951 H 0.78849 0.90394 0.46061 0.0
H952 H 0.82396 0.947 0.42043 0.0
H953 H 0.82753 0.9744 0.40374 0.0
H954 H 0.76847 0.96297 0.37298 0.0
H955 H 0.76437 0.93557 0.38969 0.0
C956 C 0.80761 0.85209 0.39383 0.0
C957 C 0.7918 0.84933 0.37977 0.0
C958 C 0.80701 0.86614 0.40488 0.0
C959 C 0.79055 0.87779 0.40225 0.0
C960 C 0.77502 0.87529 0.38797 0.0
C961 C 0.77559 0.86121 0.3769 0.0
C962 C 0.78961 0.89254 0.41441 0.0
C963 C 0.79056 0.90852 0.40576 0.0
C964 C 0.78878 0.89093 0.43447 0.0
C965 C 0.78643 0.87447 0.44457 0.0
C966 C 0.76878 0.86323 0.4406 0.0
C967 C 0.76674 0.8477 0.45007 0.0
C968 C 0.78215 0.8433 0.46365 0.0
C969 C 0.79961 0.85445 0.46782 0.0
C970 C 0.80175 0.86999 0.45837 0.0
C971 C 0.77469 0.96189 0.45821 0.0
C972 C 0.79046 0.96375 0.47248 0.0
C973 C 0.77468 0.94815 0.44662 0.0
C974 C 0.79051 0.93594 0.44892 0.0
C975 C 0.80616 0.9377 0.46324 0.0
C976 C 0.80619 0.95143 0.47482 0.0
C977 C 0.7906 0.92125 0.43662 0.0
C978 C 0.78947 0.90526 0.44526 0.0
C979 C 0.79128 0.92286 0.41656 0.0
C980 C 0.79373 0.9393 0.40646 0.0
C981 C 0.81163 0.95038 0.41022 0.0
C982 C 0.81377 0.9659 0.40073 0.0
C983 C 0.79821 0.97044 0.38734 0.0
C984 C 0.7805 0.95945 0.38338 0.0
C985 C 0.77827 0.94391 0.39284 0.0
H986 H 0.79989 0.98246 0.38001 0.0
H987 H 0.78054 0.83127 0.47097 0.0
H988 H 0.69808 0.29944 0.8495 0.0
H989 H 0.67215 0.29638 0.87664 0.0
H990 H 0.67066 0.24319 0.87226 0.0
H991 H 0.69681 0.24615 0.84503 0.0
H992 H 0.62953 0.25358 0.87984 0.0
H993 H 0.70157 0.26174 0.90575 0.0
H994 H 0.73841 0.27566 0.90952 0.0
H995 H 0.7072 0.31977 0.92672 0.0
H996 H 0.67015 0.30619 0.9228 0.0
H997 H 0.60647 0.25544 0.9898 0.0
H998 H 0.63226 0.25553 0.96226 0.0
H999 H 0.58178 0.27587 0.92693 0.0
H1000 H 0.55591 0.27538 0.95442 0.0
H1001 H 0.65021 0.27943 0.93997 0.0
H1002 H 0.58738 0.26224 0.88209 0.0
H1003 H 0.55186 0.24616 0.8794 0.0
H1004 H 0.56715 0.2158 0.92817 0.0
H1005 H 0.6029 0.23153 0.93097 0.0
C1006 C 0.69238 0.28706 0.85434 0.0
C1007 C 0.69981 0.27302 0.84516 0.0
C1008 C 0.67747 0.28533 0.86987 0.0
C1009 C 0.66967 0.26954 0.87674 0.0
C1010 C 0.67645 0.25551 0.86727 0.0
C1011 C 0.69138 0.25723 0.85166 0.0
C1012 C 0.65483 0.26775 0.89402 0.0
C1013 C 0.63405 0.25923 0.89298 0.0
C1014 C 0.66084 0.27481 0.91134 0.0
C1015 C 0.68309 0.28299 0.91382 0.0
C1016 C 0.70256 0.27445 0.91021 0.0
C1017 C 0.72348 0.28227 0.91239 0.0
C1018 C 0.72515 0.2986 0.91831 0.0
C1019 C 0.70589 0.30713 0.92211 0.0
C1020 C 0.68492 0.29937 0.91993 0.0
C1021 C 0.60095 0.25983 0.97609 0.0
C1022 C 0.57924 0.26527 0.9741 0.0
C1023 C 0.61566 0.25995 0.96039 0.0
C1024 C 0.60894 0.26552 0.9424 0.0
C1025 C 0.58728 0.27121 0.94053 0.0
C1026 C 0.57255 0.27102 0.95622 0.0
C1027 C 0.62467 0.26559 0.92569 0.0
C1028 C 0.64564 0.27377 0.92684 0.0
C1029 C 0.619 0.25793 0.90861 0.0
C1030 C 0.59773 0.24818 0.90683 0.0
C1031 C 0.58321 0.25208 0.89218 0.0
C1032 C 0.56303 0.24304 0.89064 0.0
C1033 C 0.55722 0.23 0.90364 0.0
C1034 C 0.57163 0.22594 0.91815 0.0
C1035 C 0.59185 0.23492 0.91972 0.0
H1036 H 0.54157 0.22304 0.90245 0.0
H1037 H 0.74136 0.30464 0.91999 0.0
H1038 H 0.23693 0.84163 0.63751 0.0
H1039 H 0.23956 0.86727 0.61804 0.0
H1040 H 0.26391 0.89396 0.66564 0.0
H1041 H 0.26055 0.86837 0.68548 0.0
H1042 H 0.23359 0.91142 0.64744 0.0
H1043 H 0.29903 0.88367 0.62893 0.0
H1044 H 0.32057 0.86041 0.61781 0.0
H1045 H 0.28463 0.86056 0.56602 0.0
H1046 H 0.26265 0.88367 0.57695 0.0
H1047 H 0.26881 0.98457 0.59286 0.0
H1048 H 0.26801 0.95937 0.61356 0.0
H1049 H 0.24305 0.93062 0.5677 0.0
H1050 H 0.24423 0.9558 0.54698 0.0
H1051 H 0.27487 0.91457 0.58564 0.0
H1052 H 0.20894 0.9419 0.6044 0.0
H1053 H 0.18752 0.96526 0.61538 0.0
H1054 H 0.22442 0.96593 0.66664 0.0
H1055 H 0.24633 0.94273 0.65582 0.0
C1056 C 0.24268 0.85295 0.64395 0.0
C1057 C 0.24849 0.85285 0.66315 0.0
C1058 C 0.24441 0.86762 0.63269 0.0
C1059 C 0.2522 0.88259 0.64025 0.0
C1060 C 0.25793 0.88259 0.65942 0.0
C1061 C 0.25619 0.86789 0.67072 0.0
C1062 C 0.25407 0.89822 0.62817 0.0
C1063 C 0.24292 0.91217 0.63407 0.0
C1064 C 0.26582 0.89918 0.61048 0.0
C1065 C 0.27905 0.88531 0.60384 0.0
C1066 C 0.2956 0.87866 0.61523 0.0
C1067 C 0.30791 0.86551 0.60895 0.0
C1068 C 0.30393 0.85898 0.59124 0.0
C1069 C 0.28767 0.86561 0.57975 0.0
C1070 C 0.2753 0.87875 0.58597 0.0
C1071 C 0.26321 0.97283 0.58728 0.0
C1072 C 0.25661 0.97204 0.56839 0.0
C1073 C 0.26264 0.95846 0.59909 0.0
C1074 C 0.25526 0.94306 0.59228 0.0
C1075 C 0.24881 0.94231 0.57332 0.0
C1076 C 0.24941 0.95667 0.56151 0.0
C1077 C 0.25429 0.92772 0.60485 0.0
C1078 C 0.26561 0.91383 0.59904 0.0
C1079 C 0.24269 0.92682 0.62261 0.0
C1080 C 0.22943 0.94069 0.62921 0.0
C1081 C 0.21261 0.94711 0.61795 0.0
C1082 C 0.20036 0.96031 0.62415 0.0
C1083 C 0.20464 0.9671 0.64168 0.0
C1084 C 0.22115 0.96067 0.65306 0.0
C1085 C 0.23348 0.94749 0.6469 0.0
H1086 H 0.19514 0.97732 0.64646 0.0
H1087 H 0.31348 0.84881 0.5864 0.0
H1088 H 0.71369 0.76385 0.2075 0.0
H1089 H 0.68968 0.76111 0.18023 0.0
H1090 H 0.65095 0.80128 0.19957 0.0
H1091 H 0.67427 0.80364 0.22721 0.0
H1092 H 0.62417 0.77725 0.18771 0.0
H1093 H 0.69055 0.80657 0.16272 0.0
H1094 H 0.7309 0.81084 0.15616 0.0
H1095 H 0.73097 0.76605 0.12513 0.0
H1096 H 0.69066 0.76141 0.13172 0.0
H1097 H 0.56792 0.79834 0.10403 0.0
H1098 H 0.59216 0.79852 0.13123 0.0
H1099 H 0.62743 0.75778 0.10891 0.0
H1100 H 0.60372 0.75792 0.08123 0.0
H1101 H 0.6561 0.78047 0.12218 0.0
H1102 H 0.58936 0.75179 0.146 0.0
H1103 H 0.54896 0.74767 0.15236 0.0
H1104 H 0.54949 0.79121 0.18555 0.0
H1105 H 0.58986 0.79573 0.17917 0.0
C1106 C 0.69993 0.772 0.20609 0.0
C1107 C 0.69609 0.78406 0.21958 0.0
C1108 C 0.68632 0.77053 0.19034 0.0
C1109 C 0.66863 0.78115 0.18763 0.0
C1110 C 0.66452 0.79298 0.20124 0.0
C1111 C 0.67806 0.79443 0.21698 0.0
C1112 C 0.65437 0.78003 0.17066 0.0
C1113 C 0.63117 0.77815 0.17339 0.0
C1114 C 0.66343 0.78075 0.15191 0.0
C1115 C 0.68764 0.78355 0.14788 0.0
C1116 C 0.69921 0.79757 0.15462 0.0
C1117 C 0.72206 0.80006 0.15087 0.0
C1118 C 0.73351 0.7887 0.14028 0.0
C1119 C 0.7221 0.77483 0.13336 0.0
C1120 C 0.69924 0.77227 0.13708 0.0
C1121 C 0.58097 0.78952 0.10475 0.0
C1122 C 0.58379 0.77811 0.09035 0.0
C1123 C 0.59469 0.78951 0.12047 0.0
C1124 C 0.61148 0.77801 0.12232 0.0
C1125 C 0.61454 0.76673 0.10789 0.0
C1126 C 0.60082 0.76673 0.09213 0.0
C1127 C 0.6259 0.77787 0.13924 0.0
C1128 C 0.64912 0.7795 0.1365 0.0
C1129 C 0.61686 0.77692 0.15799 0.0
C1130 C 0.5926 0.77418 0.16196 0.0
C1131 C 0.58083 0.76055 0.15455 0.0
C1132 C 0.55794 0.75813 0.15817 0.0
C1133 C 0.54666 0.76919 0.16931 0.0
C1134 C 0.55825 0.78267 0.1769 0.0
C1135 C 0.58114 0.78515 0.1733 0.0
H1136 H 0.52894 0.7673 0.1721 0.0
H1137 H 0.7512 0.79065 0.1374 0.0
H1138 H 0.80212 0.20247 0.66892 0.0
H1139 H 0.80638 0.17969 0.64733 0.0
H1140 H 0.75869 0.14934 0.68124 0.0
H1141 H 0.75497 0.17176 0.70322 0.0
H1142 H 0.79234 0.13136 0.67127 0.0
H1143 H 0.74503 0.16872 0.63854 0.0
H1144 H 0.73432 0.19553 0.62442 0.0
H1145 H 0.79138 0.19649 0.58656 0.0
H1146 H 0.8026 0.16977 0.60064 0.0
H1147 H 0.76346 0.06994 0.60535 0.0
H1148 H 0.76279 0.09316 0.62668 0.0
H1149 H 0.81485 0.11909 0.59288 0.0
H1150 H 0.81547 0.09594 0.57136 0.0
H1151 H 0.78095 0.13956 0.6023 0.0
H1152 H 0.82716 0.10136 0.63441 0.0
H1153 H 0.83713 0.07432 0.6484 0.0
H1154 H 0.78125 0.07476 0.68739 0.0
H1155 H 0.77074 0.10171 0.67344 0.0
C1156 C 0.79268 0.1909 0.6719 0.0
C1157 C 0.77806 0.18907 0.68781 0.0
C1158 C 0.79497 0.17791 0.65941 0.0
C1159 C 0.78263 0.1628 0.66245 0.0
C1160 C 0.76834 0.16086 0.67848 0.0
C1161 C 0.76606 0.1738 0.69096 0.0
C1162 C 0.78453 0.14898 0.64903 0.0
C1163 C 0.78959 0.13315 0.65623 0.0
C1164 C 0.78149 0.15128 0.62927 0.0
C1165 C 0.77479 0.16734 0.62079 0.0
C1166 C 0.7554 0.17472 0.62731 0.0
C1167 C 0.74922 0.18988 0.6193 0.0
C1168 C 0.7622 0.19773 0.60464 0.0
C1169 C 0.78136 0.19041 0.59794 0.0
C1170 C 0.78764 0.17525 0.60592 0.0
C1171 C 0.77471 0.0806 0.6024 0.0
C1172 C 0.78955 0.08103 0.58664 0.0
C1173 C 0.77442 0.09384 0.61469 0.0
C1174 C 0.78889 0.10786 0.6115 0.0
C1175 C 0.80357 0.10841 0.59568 0.0
C1176 C 0.80402 0.0951 0.58347 0.0
C1177 C 0.78854 0.12196 0.6246 0.0
C1178 C 0.78378 0.13782 0.61734 0.0
C1179 C 0.79176 0.11967 0.64431 0.0
C1180 C 0.79804 0.10348 0.65275 0.0
C1181 C 0.81688 0.09562 0.64586 0.0
C1182 C 0.82265 0.08032 0.6538 0.0
C1183 C 0.8098 0.0728 0.66874 0.0
C1184 C 0.79117 0.08059 0.6758 0.0
C1185 C 0.78531 0.09588 0.66789 0.0
H1186 H 0.8143 0.06096 0.67487 0.0
H1187 H 0.75738 0.20947 0.59844 0.0
H1188 H 0.38336 0.26649 0.2283 0.0
H1189 H 0.40661 0.26846 0.19935 0.0
H1190 H 0.34938 0.25567 0.16641 0.0
H1191 H 0.32609 0.25327 0.19541 0.0
H1192 H 0.38486 0.23835 0.15587 0.0
H1193 H 0.37101 0.29547 0.16611 0.0
H1194 H 0.36987 0.32097 0.18425 0.0
H1195 H 0.4406 0.32057 0.19105 0.0
H1196 H 0.44212 0.29493 0.17315 0.0
H1197 H 0.43624 0.25783 0.06555 0.0
H1198 H 0.41138 0.25759 0.0937 0.0
H1199 H 0.46709 0.2719 0.12778 0.0
H1200 H 0.4918 0.27242 0.09949 0.0
H1201 H 0.43169 0.28873 0.13741 0.0
H1202 H 0.44579 0.23161 0.12781 0.0
H1203 H 0.44741 0.20619 0.10959 0.0
H1204 H 0.3768 0.20635 0.10199 0.0
H1205 H 0.37481 0.23196 0.11988 0.0
C1206 C 0.3757 0.26404 0.21492 0.0
C1207 C 0.3528 0.25972 0.21423 0.0
C1208 C 0.389 0.26531 0.19833 0.0
C1209 C 0.37976 0.26236 0.18062 0.0
C1210 C 0.35692 0.25806 0.17987 0.0
C1211 C 0.34357 0.25683 0.19647 0.0
C1212 C 0.39401 0.26342 0.16298 0.0
C1213 C 0.39484 0.24947 0.15169 0.0
C1214 C 0.4075 0.27775 0.15771 0.0
C1215 C 0.40664 0.29319 0.16844 0.0
C1216 C 0.38629 0.30074 0.1716 0.0
C1217 C 0.38558 0.31524 0.18182 0.0
C1218 C 0.40514 0.32236 0.18884 0.0
C1219 C 0.42546 0.31503 0.18562 0.0
C1220 C 0.42626 0.30052 0.17542 0.0
C1221 C 0.44306 0.26093 0.07909 0.0
C1222 C 0.46585 0.26503 0.0805 0.0
C1223 C 0.42892 0.26074 0.09517 0.0
C1224 C 0.43737 0.2645 0.11298 0.0
C1225 C 0.46015 0.26892 0.11425 0.0
C1226 C 0.47426 0.26917 0.09816 0.0
C1227 C 0.42257 0.26367 0.13031 0.0
C1228 C 0.42167 0.27764 0.14156 0.0
C1229 C 0.40908 0.24933 0.13559 0.0
C1230 C 0.41018 0.2338 0.12503 0.0
C1231 C 0.43062 0.22629 0.12214 0.0
C1232 C 0.43161 0.21184 0.11188 0.0
C1233 C 0.41223 0.20468 0.1046 0.0
C1234 C 0.3918 0.21193 0.10761 0.0
C1235 C 0.39074 0.22641 0.11782 0.0
H1236 H 0.41302 0.19349 0.09666 0.0
H1237 H 0.40456 0.33358 0.19674 0.0
H1238 H 0.82465 0.68411 0.71848 0.0
H1239 H 0.84777 0.66019 0.71457 0.0
H1240 H 0.89447 0.68019 0.75404 0.0
H1241 H 0.87148 0.70417 0.75797 0.0
H1242 H 0.9163 0.66767 0.72517 0.0
H1243 H 0.85579 0.64847 0.76708 0.0
H1244 H 0.81646 0.64338 0.77712 0.0
H1245 H 0.80578 0.61285 0.72937 0.0
H1246 H 0.84501 0.61795 0.7189 0.0
H1247 H 0.97227 0.59431 0.74926 0.0
H1248 H 0.94937 0.61862 0.75014 0.0
H1249 H 0.90759 0.59816 0.70729 0.0
H1250 H 0.93031 0.57365 0.7065 0.0
H1251 H 0.8831 0.61072 0.73651 0.0
H1252 H 0.94443 0.62917 0.69547 0.0
H1253 H 0.984 0.63402 0.68609 0.0
H1254 H 0.99336 0.6658 0.73295 0.0
H1255 H 0.9539 0.66094 0.74279 0.0
C1256 C 0.83982 0.68341 0.72637 0.0
C1257 C 0.8461 0.69607 0.73862 0.0
C1258 C 0.85304 0.6697 0.72412 0.0
C1259 C 0.87275 0.6682 0.73423 0.0
C1260 C 0.87937 0.68102 0.74607 0.0
C1261 C 0.86621 0.69478 0.74826 0.0
C1262 C 0.88629 0.65317 0.73271 0.0
C1263 C 0.90907 0.65524 0.72787 0.0
C1264 C 0.87684 0.63686 0.73581 0.0
C1265 C 0.85327 0.63374 0.7421 0.0
C1266 C 0.84501 0.64078 0.75864 0.0
C1267 C 0.82275 0.63787 0.76442 0.0
C1268 C 0.80861 0.62784 0.75386 0.0
C1269 C 0.81674 0.62064 0.73752 0.0
C1270 C 0.83899 0.62353 0.73166 0.0
C1271 C 0.95812 0.59491 0.74011 0.0
C1272 C 0.95314 0.582 0.72781 0.0
C1273 C 0.94514 0.6089 0.74052 0.0
C1274 C 0.92685 0.61032 0.72866 0.0
C1275 C 0.92165 0.59738 0.71652 0.0
C1276 C 0.93475 0.58342 0.716 0.0
C1277 C 0.91309 0.62526 0.72909 0.0
C1278 C 0.89029 0.62316 0.73373 0.0
C1279 C 0.92253 0.64153 0.7259 0.0
C1280 C 0.94625 0.64456 0.71997 0.0
C1281 C 0.95496 0.63709 0.70387 0.0
C1282 C 0.97737 0.63986 0.69845 0.0
C1283 C 0.9912 0.65018 0.70895 0.0
C1284 C 0.98263 0.65779 0.72485 0.0
C1285 C 0.96024 0.65504 0.73034 0.0
H1286 H 0.00854 0.65231 0.70473 0.0
H1287 H 0.79138 0.6256 0.75836 0.0
H1288 H 0.82818 0.37107 0.31582 0.0
H1289 H 0.85261 0.39565 0.31924 0.0
H1290 H 0.90924 0.3648 0.32316 0.0
H1291 H 0.88486 0.34005 0.31949 0.0
H1292 H 0.91098 0.39015 0.34867 0.0
H1293 H 0.8995 0.38476 0.28209 0.0
H1294 H 0.8772 0.38145 0.25354 0.0
H1295 H 0.84569 0.42714 0.26394 0.0
H1296 H 0.86758 0.4306 0.29273 0.0
H1297 H 0.99384 0.45512 0.32933 0.0
H1298 H 0.97013 0.42958 0.32911 0.0
H1299 H 0.91264 0.45887 0.32005 0.0
H1300 H 0.93655 0.48435 0.31989 0.0
H1301 H 0.91187 0.4338 0.29727 0.0
H1302 H 0.92318 0.43957 0.3636 0.0
H1303 H 0.9451 0.44308 0.39232 0.0
H1304 H 0.97637 0.39712 0.38292 0.0
H1305 H 0.95489 0.39346 0.35394 0.0
C1306 C 0.84584 0.36946 0.31734 0.0
C1307 C 0.85454 0.35353 0.3171 0.0
C1308 C 0.85979 0.38356 0.31936 0.0
C1309 C 0.88284 0.38213 0.32115 0.0
C1310 C 0.89152 0.36623 0.32176 0.0
C1311 C 0.87753 0.35207 0.3197 0.0
C1312 C 0.89784 0.39731 0.32165 0.0
C1313 C 0.91142 0.3996 0.33732 0.0
C1314 C 0.89809 0.40984 0.30705 0.0
C1315 C 0.88503 0.40786 0.28966 0.0
C1316 C 0.8877 0.39404 0.27837 0.0
C1317 C 0.87515 0.39215 0.26213 0.0
C1318 C 0.86 0.40406 0.25695 0.0
C1319 C 0.85741 0.41791 0.26798 0.0
C1320 C 0.8699 0.41985 0.28425 0.0
C1321 C 0.97611 0.45601 0.32738 0.0
C1322 C 0.9669 0.47158 0.32464 0.0
C1323 C 0.96255 0.44146 0.32734 0.0
C1324 C 0.93948 0.44224 0.32477 0.0
C1325 C 0.93034 0.45789 0.32207 0.0
C1326 C 0.94393 0.47243 0.32203 0.0
C1327 C 0.92495 0.42678 0.32438 0.0
C1328 C 0.91148 0.42439 0.30867 0.0
C1329 C 0.92476 0.41422 0.33899 0.0
C1330 C 0.93758 0.41633 0.35649 0.0
C1331 C 0.93485 0.43027 0.36757 0.0
C1332 C 0.94718 0.43228 0.38391 0.0
C1333 C 0.96215 0.42035 0.38942 0.0
C1334 C 0.96479 0.40636 0.37862 0.0
C1335 C 0.95253 0.40431 0.36224 0.0
H1336 H 0.97168 0.42193 0.40208 0.0
H1337 H 0.8503 0.40257 0.24437 0.0
H1338 H 0.21411 0.36776 0.75268 0.0
H1339 H 0.19058 0.39139 0.74803 0.0
H1340 H 0.14568 0.36156 0.71532 0.0
H1341 H 0.16917 0.33769 0.72005 0.0
H1342 H 0.1526 0.39317 0.69952 0.0
H1343 H 0.13256 0.36872 0.76085 0.0
H1344 H 0.13964 0.3577 0.79306 0.0
H1345 H 0.16766 0.4052 0.80775 0.0
H1346 H 0.16104 0.41645 0.77553 0.0
H1347 H 0.0639 0.44944 0.70479 0.0
H1348 H 0.08707 0.42522 0.70587 0.0
H1349 H 0.13109 0.45001 0.74415 0.0
H1350 H 0.10768 0.47406 0.74342 0.0
H1351 H 0.12331 0.41985 0.75663 0.0
H1352 H 0.14444 0.44434 0.69539 0.0
H1353 H 0.13819 0.45552 0.66308 0.0
H1354 H 0.10894 0.40849 0.64808 0.0
H1355 H 0.11475 0.39709 0.68039 0.0
C1356 C 0.19917 0.36615 0.74457 0.0
C1357 C 0.1934 0.3507 0.73698 0.0
C1358 C 0.18575 0.37972 0.74187 0.0
C1359 C 0.16612 0.37822 0.7316 0.0
C1360 C 0.1607 0.36302 0.72335 0.0
C1361 C 0.17419 0.34939 0.72604 0.0
C1362 C 0.15105 0.3924 0.73002 0.0
C1363 C 0.14593 0.39887 0.712 0.0
C1364 C 0.14266 0.40008 0.74628 0.0
C1365 C 0.14647 0.39339 0.76572 0.0
C1366 C 0.14037 0.37679 0.77091 0.0
C1367 C 0.14428 0.3705 0.78918 0.0
C1368 C 0.15414 0.38073 0.80244 0.0
C1369 C 0.16005 0.39729 0.79747 0.0
C1370 C 0.1562 0.40363 0.77921 0.0
C1371 C 0.07866 0.44979 0.71326 0.0
C1372 C 0.08393 0.4637 0.72402 0.0
C1373 C 0.09195 0.43593 0.71385 0.0
C1374 C 0.11107 0.43576 0.72494 0.0
C1375 C 0.11644 0.44973 0.73552 0.0
C1376 C 0.10303 0.4635 0.73511 0.0
C1377 C 0.12507 0.42089 0.7261 0.0
C1378 C 0.12994 0.4142 0.7441 0.0
C1379 C 0.13328 0.4131 0.70981 0.0
C1380 C 0.12983 0.41992 0.69037 0.0
C1381 C 0.13652 0.43642 0.68525 0.0
C1382 C 0.13308 0.44279 0.66693 0.0
C1383 C 0.12312 0.43273 0.65355 0.0
C1384 C 0.11663 0.41627 0.65846 0.0
C1385 C 0.12001 0.40984 0.67677 0.0
H1386 H 0.12047 0.43768 0.63938 0.0
H1387 H 0.15715 0.37585 0.81657 0.0
H1388 H 0.20507 0.67683 0.33217 0.0
H1389 H 0.18305 0.65059 0.33261 0.0
H1390 H 0.13141 0.67457 0.30202 0.0
H1391 H 0.15322 0.70092 0.30177 0.0
H1392 H 0.11446 0.65479 0.33198 0.0
H1393 H 0.16589 0.64965 0.27945 0.0
H1394 H 0.20295 0.64985 0.26368 0.0
H1395 H 0.22207 0.61063 0.30185 0.0
H1396 H 0.18521 0.61036 0.31802 0.0
H1397 H 0.05123 0.58265 0.30858 0.0
H1398 H 0.07366 0.60878 0.30719 0.0
H1399 H 0.12866 0.58343 0.33136 0.0
H1400 H 0.10647 0.55716 0.33187 0.0
H1401 H 0.14408 0.60408 0.30484 0.0
H1402 H 0.0937 0.60889 0.3577 0.0
H1403 H 0.05708 0.60838 0.37424 0.0
H1404 H 0.03662 0.6479 0.33711 0.0
H1405 H 0.07304 0.64849 0.32016 0.0
C1406 C 0.18899 0.67655 0.3256 0.0
C1407 C 0.18096 0.69101 0.3169 0.0
C1408 C 0.17647 0.6615 0.32575 0.0
C1409 C 0.15561 0.66054 0.31722 0.0
C1410 C 0.14746 0.67497 0.30865 0.0
C1411 C 0.16004 0.69001 0.30839 0.0
C1412 C 0.14223 0.64455 0.31736 0.0
C1413 C 0.12082 0.64376 0.32583 0.0
C1414 C 0.15072 0.63 0.30981 0.0
C1415 C 0.17286 0.6301 0.30006 0.0
C1416 C 0.17806 0.64116 0.28458 0.0
C1417 C 0.19902 0.64127 0.27555 0.0
C1418 C 0.21487 0.63029 0.28179 0.0
C1419 C 0.20978 0.61915 0.29705 0.0
C1420 C 0.18885 0.619 0.30614 0.0
C1421 C 0.06814 0.58273 0.31354 0.0
C1422 C 0.07707 0.568 0.32056 0.0
C1423 C 0.08091 0.59766 0.31288 0.0
C1424 C 0.10278 0.59824 0.31955 0.0
C1425 C 0.11183 0.5834 0.32623 0.0
C1426 C 0.09914 0.56842 0.32665 0.0
C1427 C 0.11622 0.61427 0.31948 0.0
C1428 C 0.13767 0.61508 0.31103 0.0
C1429 C 0.10785 0.62881 0.32723 0.0
C1430 C 0.08603 0.62863 0.33755 0.0
C1431 C 0.08135 0.61741 0.35299 0.0
C1432 C 0.06063 0.61711 0.36244 0.0
C1433 C 0.04451 0.62807 0.3567 0.0
C1434 C 0.04912 0.6394 0.34153 0.0
C1435 C 0.0698 0.63973 0.332 0.0
H1436 H 0.02848 0.62781 0.36403 0.0
H1437 H 0.23109 0.63039 0.27478 0.0
H1438 H 0.80762 0.87297 0.69229 0.0
H1439 H 0.80739 0.89813 0.67185 0.0
H1440 H 0.76791 0.87181 0.63157 0.0
H1441 H 0.76841 0.84652 0.65177 0.0
H1442 H 0.80227 0.89028 0.61416 0.0
H1443 H 0.74426 0.89906 0.66049 0.0
H1444 H 0.72837 0.90111 0.69281 0.0
H1445 H 0.77578 0.94074 0.70351 0.0
H1446 H 0.79215 0.93877 0.67133 0.0
H1447 H 0.77335 0.95943 0.55662 0.0
H1448 H 0.77232 0.9345 0.57757 0.0
H1449 H 0.80426 0.96257 0.62095 0.0
H1450 H 0.80415 0.98769 0.60027 0.0
H1451 H 0.77397 0.94305 0.637 0.0
H1452 H 0.83251 0.93469 0.59163 0.0
H1453 H 0.84962 0.93288 0.55972 0.0
H1454 H 0.80349 0.89278 0.54772 0.0
H1455 H 0.78589 0.8945 0.57948 0.0
C1456 C 0.79895 0.8725 0.67905 0.0
C1457 C 0.78798 0.85769 0.67372 0.0
C1458 C 0.79869 0.88695 0.66743 0.0
C1459 C 0.78748 0.88694 0.65021 0.0
C1460 C 0.77663 0.87216 0.6448 0.0
C1461 C 0.77676 0.85774 0.65646 0.0
C1462 C 0.78728 0.90226 0.63772 0.0
C1463 C 0.79581 0.90177 0.61907 0.0
C1464 C 0.77946 0.9174 0.64425 0.0
C1465 C 0.76956 0.91865 0.66357 0.0
C1466 C 0.7514 0.90812 0.66979 0.0
C1467 C 0.74229 0.90929 0.68807 0.0
C1468 C 0.75109 0.92102 0.70022 0.0
C1469 C 0.76899 0.93164 0.69409 0.0
C1470 C 0.77818 0.93052 0.67583 0.0
C1471 C 0.78007 0.96022 0.57066 0.0
C1472 C 0.78905 0.97539 0.57679 0.0
C1473 C 0.77966 0.94596 0.5826 0.0
C1474 C 0.78866 0.94647 0.60079 0.0
C1475 C 0.79731 0.96175 0.607 0.0
C1476 C 0.79739 0.97608 0.59516 0.0
C1477 C 0.78897 0.93114 0.61334 0.0
C1478 C 0.78047 0.9316 0.63203 0.0
C1479 C 0.79706 0.91601 0.60691 0.0
C1480 C 0.80776 0.91483 0.58787 0.0
C1481 C 0.82593 0.92555 0.58214 0.0
C1482 C 0.83572 0.92454 0.56409 0.0
C1483 C 0.82762 0.91275 0.55168 0.0
C1484 C 0.80974 0.90192 0.55734 0.0
C1485 C 0.79986 0.9029 0.57537 0.0
H1486 H 0.83521 0.91199 0.53771 0.0
H1487 H 0.74402 0.9219 0.71437 0.0
H1488 H 0.71352 0.28274 0.21502 0.0
H1489 H 0.69109 0.2844 0.18666 0.0
H1490 H 0.65898 0.23689 0.2023 0.0
H1491 H 0.68202 0.23477 0.23014 0.0
H1492 H 0.66856 0.23815 0.16591 0.0
H1493 H 0.63326 0.27448 0.20864 0.0
H1494 H 0.6313 0.29784 0.23009 0.0
H1495 H 0.65274 0.33194 0.18451 0.0
H1496 H 0.65511 0.30873 0.16284 0.0
H1497 H 0.57416 0.24147 0.10775 0.0
H1498 H 0.59884 0.24084 0.13467 0.0
H1499 H 0.63234 0.28632 0.11351 0.0
H1500 H 0.60801 0.2869 0.08625 0.0
H1501 H 0.62318 0.28679 0.15174 0.0
H1502 H 0.65698 0.25008 0.10879 0.0
H1503 H 0.65803 0.22651 0.08758 0.0
H1504 H 0.63842 0.19284 0.13407 0.0
H1505 H 0.63694 0.21625 0.15551 0.0
C1506 C 0.70185 0.27255 0.21236 0.0
C1507 C 0.69957 0.25865 0.22502 0.0
C1508 C 0.68882 0.27361 0.19621 0.0
C1509 C 0.67305 0.26088 0.19241 0.0
C1510 C 0.67092 0.24692 0.2049 0.0
C1511 C 0.68399 0.24582 0.22098 0.0
C1512 C 0.65888 0.26194 0.17537 0.0
C1513 C 0.65844 0.24871 0.16297 0.0
C1514 C 0.64602 0.27588 0.17118 0.0
C1515 C 0.6446 0.28985 0.18417 0.0
C1516 C 0.63773 0.28694 0.20323 0.0
C1517 C 0.63652 0.30016 0.21542 0.0
C1518 C 0.64196 0.31636 0.20868 0.0
C1519 C 0.64857 0.31938 0.18972 0.0
C1520 C 0.64984 0.3062 0.17747 0.0
C1521 C 0.58695 0.25124 0.10862 0.0
C1522 C 0.5891 0.26418 0.09466 0.0
C1523 C 0.60101 0.2509 0.12411 0.0
C1524 C 0.61761 0.26345 0.12605 0.0
C1525 C 0.61965 0.27651 0.11234 0.0
C1526 C 0.60563 0.27684 0.09677 0.0
C1527 C 0.63274 0.26294 0.14245 0.0
C1528 C 0.63337 0.27627 0.15469 0.0
C1529 C 0.64568 0.24906 0.14656 0.0
C1530 C 0.64665 0.23494 0.13372 0.0
C1531 C 0.65272 0.23767 0.11446 0.0
C1532 C 0.65343 0.22433 0.1024 0.0
C1533 C 0.64825 0.20819 0.10946 0.0
C1534 C 0.64241 0.20535 0.12861 0.0
C1535 C 0.64165 0.21864 0.14073 0.0
H1536 H 0.6488 0.19788 0.1001 0.0
H1537 H 0.641 0.32657 0.21814 0.0
H1538 H 0.2213 0.18093 0.6811 0.0
H1539 H 0.22357 0.15651 0.66174 0.0
H1540 H 0.28622 0.17584 0.63729 0.0
H1541 H 0.28382 0.2005 0.65634 0.0
H1542 H 0.25906 0.16413 0.61027 0.0
H1543 H 0.28458 0.14404 0.67023 0.0
H1544 H 0.28284 0.1386 0.70482 0.0
H1545 H 0.22268 0.10867 0.69975 0.0
H1546 H 0.2239 0.11411 0.66513 0.0
H1547 H 0.28816 0.09053 0.56528 0.0
H1548 H 0.28802 0.11436 0.58562 0.0
H1549 H 0.22679 0.09513 0.61278 0.0
H1550 H 0.22727 0.0709 0.593 0.0
H1551 H 0.25408 0.10685 0.63854 0.0
H1552 H 0.2279 0.12734 0.57888 0.0
H1553 H 0.22926 0.13278 0.54427 0.0
H1554 H 0.29007 0.16206 0.54878 0.0
H1555 H 0.28924 0.1566 0.5834 0.0
C1556 C 0.23553 0.18004 0.67155 0.0
C1557 C 0.25238 0.19272 0.67032 0.0
C1558 C 0.2369 0.16598 0.66059 0.0
C1559 C 0.25517 0.16422 0.64813 0.0
C1560 C 0.27199 0.17687 0.64681 0.0
C1561 C 0.27068 0.19091 0.65785 0.0
C1562 C 0.2565 0.14932 0.63628 0.0
C1563 C 0.25831 0.15162 0.61648 0.0
C1564 C 0.25498 0.13294 0.64429 0.0
C1565 C 0.25422 0.12962 0.6651 0.0
C1566 C 0.27088 0.13641 0.6765 0.0
C1567 C 0.27001 0.1333 0.69611 0.0
C1568 C 0.25263 0.12333 0.70449 0.0
C1569 C 0.23612 0.11641 0.69325 0.0
C1570 C 0.2369 0.11948 0.67363 0.0
C1571 C 0.27478 0.09122 0.57572 0.0
C1572 C 0.25768 0.07872 0.57739 0.0
C1573 C 0.27459 0.105 0.58723 0.0
C1574 C 0.25721 0.10673 0.6006 0.0
C1575 C 0.24033 0.09416 0.60253 0.0
C1576 C 0.24053 0.08035 0.59106 0.0
C1577 C 0.25659 0.12165 0.61251 0.0
C1578 C 0.25488 0.11937 0.63232 0.0
C1579 C 0.25814 0.13805 0.60451 0.0
C1580 C 0.25863 0.14142 0.58371 0.0
C1581 C 0.24166 0.13483 0.57247 0.0
C1582 C 0.24232 0.13794 0.55286 0.0
C1583 C 0.25978 0.14772 0.54433 0.0
C1584 C 0.27658 0.15446 0.5554 0.0
C1585 C 0.27601 0.15138 0.57502 0.0
H1586 H 0.26026 0.15011 0.52914 0.0
H1587 H 0.25198 0.12094 0.71967 0.0
H1588 H 0.33809 0.74491 0.1968 0.0
H1589 H 0.36519 0.74802 0.1705 0.0
H1590 H 0.37486 0.80007 0.18119 0.0
H1591 H 0.34713 0.79716 0.20727 0.0
H1592 H 0.37188 0.7956 0.14391 0.0
H1593 H 0.41372 0.7726 0.19422 0.0
H1594 H 0.42189 0.75285 0.22033 0.0
H1595 H 0.42204 0.71305 0.18161 0.0
H1596 H 0.41357 0.73253 0.15529 0.0
H1597 H 0.4882 0.78245 0.0954 0.0
H1598 H 0.46364 0.78247 0.12377 0.0
H1599 H 0.40658 0.77356 0.0891 0.0
H1600 H 0.43121 0.77364 0.06078 0.0
H1601 H 0.43588 0.7589 0.14008 0.0
H1602 H 0.36238 0.79364 0.10766 0.0
H1603 H 0.35631 0.81498 0.08263 0.0
H1604 H 0.42336 0.83444 0.08782 0.0
H1605 H 0.4297 0.81342 0.1131 0.0
C1606 C 0.3458 0.75707 0.19349 0.0
C1607 C 0.34032 0.7708 0.20417 0.0
C1608 C 0.36151 0.7588 0.17854 0.0
C1609 C 0.37229 0.77425 0.17394 0.0
C1610 C 0.36682 0.78801 0.18448 0.0
C1611 C 0.35109 0.78629 0.1995 0.0
C1612 C 0.38908 0.77598 0.158 0.0
C1613 C 0.38588 0.78758 0.1431 0.0
C1614 C 0.40765 0.76577 0.15704 0.0
C1615 C 0.41283 0.75401 0.17281 0.0
C1616 C 0.41533 0.75962 0.19129 0.0
C1617 C 0.42005 0.74847 0.20613 0.0
C1618 C 0.42244 0.7317 0.20264 0.0
C1619 C 0.42017 0.72604 0.18429 0.0
C1620 C 0.41544 0.73714 0.16941 0.0
C1621 C 0.47039 0.78053 0.09395 0.0
C1622 C 0.46146 0.77807 0.07606 0.0
C1623 C 0.4564 0.78049 0.1101 0.0
C1624 C 0.43322 0.77815 0.10859 0.0
C1625 C 0.42435 0.77561 0.09062 0.0
C1626 C 0.43836 0.7756 0.07449 0.0
C1627 C 0.41833 0.7782 0.12578 0.0
C1628 C 0.4219 0.76693 0.14091 0.0
C1629 C 0.40035 0.78892 0.1271 0.0
C1630 C 0.39656 0.80183 0.11215 0.0
C1631 C 0.37578 0.80252 0.10353 0.0
C1632 C 0.3723 0.81456 0.08929 0.0
C1633 C 0.38946 0.82603 0.0836 0.0
C1634 C 0.4101 0.82552 0.0922 0.0
C1635 C 0.41365 0.81354 0.10647 0.0
H1636 H 0.38674 0.83532 0.07255 0.0
H1637 H 0.42608 0.72308 0.21414 0.0
H1638 H 0.77506 0.19931 0.40865 0.0
H1639 H 0.77375 0.17388 0.42869 0.0
H1640 H 0.81022 0.14904 0.38557 0.0
H1641 H 0.81125 0.17436 0.36529 0.0
H1642 H 0.77548 0.12931 0.40087 0.0
H1643 H 0.83637 0.16277 0.42401 0.0
H1644 H 0.8543 0.18806 0.43639 0.0
H1645 H 0.80906 0.18497 0.48452 0.0
H1646 H 0.79066 0.15978 0.47228 0.0
H1647 H 0.80519 0.05913 0.45703 0.0
H1648 H 0.80562 0.08428 0.4364 0.0
H1649 H 0.77573 0.11089 0.48173 0.0
H1650 H 0.77617 0.08585 0.50254 0.0
H1651 H 0.8069 0.12986 0.46513 0.0
H1652 H 0.74585 0.09672 0.44274 0.0
H1653 H 0.72705 0.07163 0.43071 0.0
H1654 H 0.77087 0.07431 0.38165 0.0
H1655 H 0.79016 0.0993 0.39354 0.0
C1656 C 0.7826 0.1884 0.40332 0.0
C1657 C 0.79331 0.18894 0.38534 0.0
C1658 C 0.782 0.17389 0.41488 0.0
C1659 C 0.79209 0.15956 0.40875 0.0
C1660 C 0.80238 0.15993 0.39066 0.0
C1661 C 0.8031 0.17447 0.37913 0.0
C1662 C 0.79212 0.14426 0.42128 0.0
C1663 C 0.7826 0.12937 0.41483 0.0
C1664 C 0.80089 0.14439 0.43971 0.0
C1665 C 0.812 0.15948 0.44713 0.0
C1666 C 0.83013 0.16756 0.43716 0.0
C1667 C 0.8404 0.18186 0.44416 0.0
C1668 C 0.83279 0.18814 0.4612 0.0
C1669 C 0.81492 0.1801 0.47131 0.0
C1670 C 0.80458 0.16581 0.46435 0.0
C1671 C 0.79882 0.0704 0.46253 0.0
C1672 C 0.79073 0.07063 0.48134 0.0
C1673 C 0.79888 0.08474 0.45072 0.0
C1674 C 0.79042 0.09952 0.45736 0.0
C1675 C 0.78235 0.0997 0.47622 0.0
C1676 C 0.78251 0.08541 0.48808 0.0
C1677 C 0.7902 0.11483 0.44477 0.0
C1678 C 0.79972 0.12974 0.4512 0.0
C1679 C 0.78126 0.11475 0.42638 0.0
C1680 C 0.76959 0.0998 0.41912 0.0
C1681 C 0.75158 0.0919 0.42945 0.0
C1682 C 0.74083 0.0777 0.42265 0.0
C1683 C 0.7478 0.07136 0.40545 0.0
C1684 C 0.76551 0.07923 0.39499 0.0
C1685 C 0.77635 0.09342 0.40174 0.0
H1686 H 0.73945 0.06037 0.40021 0.0
H1687 H 0.84076 0.19921 0.46661 0.0
H1688 H 0.32858 0.27963 0.84013 0.0
H1689 H 0.35185 0.28202 0.86793 0.0
H1690 H 0.38901 0.2405 0.85018 0.0
H1691 H 0.3661 0.23817 0.82228 0.0
H1692 H 0.3778 0.23734 0.88732 0.0
H1693 H 0.41079 0.28023 0.84511 0.0
H1694 H 0.41097 0.30538 0.82419 0.0
H1695 H 0.38783 0.3336 0.87057 0.0
H1696 H 0.38722 0.30854 0.89172 0.0
H1697 H 0.47039 0.24356 0.94665 0.0
H1698 H 0.44613 0.24304 0.91946 0.0
H1699 H 0.41317 0.28572 0.93957 0.0
H1700 H 0.43747 0.28632 0.96689 0.0
H1701 H 0.4207 0.28891 0.90216 0.0
H1702 H 0.38852 0.24652 0.94462 0.0
H1703 H 0.38805 0.2215 0.96577 0.0
H1704 H 0.40888 0.19247 0.91929 0.0
H1705 H 0.40978 0.21738 0.89791 0.0
C1706 C 0.34187 0.27113 0.84199 0.0
C1707 C 0.34535 0.25867 0.82891 0.0
C1708 C 0.35515 0.27249 0.85795 0.0
C1709 C 0.37229 0.26148 0.86115 0.0
C1710 C 0.37583 0.24908 0.84811 0.0
C1711 C 0.36262 0.24773 0.83216 0.0
C1712 C 0.38633 0.26262 0.87821 0.0
C1713 C 0.38739 0.24856 0.89043 0.0
C1714 C 0.39835 0.2774 0.88263 0.0
C1715 C 0.39873 0.29247 0.86994 0.0
C1716 C 0.40556 0.29177 0.85081 0.0
C1717 C 0.40577 0.30601 0.83892 0.0
C1718 C 0.39935 0.32107 0.84603 0.0
C1719 C 0.39276 0.32192 0.86507 0.0
C1720 C 0.39249 0.3077 0.87702 0.0
C1721 C 0.45785 0.25275 0.94543 0.0
C1722 C 0.4558 0.2649 0.95909 0.0
C1723 C 0.44398 0.25246 0.92982 0.0
C1724 C 0.42754 0.26419 0.92755 0.0
C1725 C 0.42568 0.27651 0.94099 0.0
C1726 C 0.43963 0.27686 0.95659 0.0
C1727 C 0.41238 0.26356 0.91116 0.0
C1728 C 0.41106 0.2777 0.89909 0.0
C1729 C 0.40003 0.24888 0.9069 0.0
C1730 C 0.39941 0.23385 0.9197 0.0
C1731 C 0.39316 0.23482 0.93894 0.0
C1732 C 0.39279 0.22066 0.95097 0.0
C1733 C 0.39848 0.20541 0.94389 0.0
C1734 C 0.4045 0.2043 0.92476 0.0
C1735 C 0.40492 0.21843 0.91267 0.0
H1736 H 0.39819 0.19446 0.95323 0.0
H1737 H 0.39954 0.33209 0.8368 0.0
H1738 H 0.29728 0.84721 0.37825 0.0
H1739 H 0.29432 0.87011 0.39972 0.0
H1740 H 0.23013 0.88085 0.37752 0.0
H1741 H 0.2333 0.85825 0.35554 0.0
H1742 H 0.25513 0.90885 0.38033 0.0
H1743 H 0.23522 0.86185 0.42166 0.0
H1744 H 0.23987 0.83435 0.43711 0.0
H1745 H 0.30052 0.85226 0.46162 0.0
H1746 H 0.2964 0.87981 0.4461 0.0
H1747 H 0.22744 0.96617 0.45035 0.0
H1748 H 0.22766 0.9424 0.42998 0.0
H1749 H 0.29042 0.92846 0.45263 0.0
H1750 H 0.28973 0.95166 0.47382 0.0
H1751 H 0.2648 0.90181 0.44966 0.0
H1752 H 0.28566 0.94837 0.40763 0.0
H1753 H 0.28154 0.97588 0.39203 0.0
H1754 H 0.21979 0.95885 0.36867 0.0
H1755 H 0.22341 0.93129 0.38434 0.0
C1756 C 0.28254 0.85446 0.37786 0.0
C1757 C 0.26554 0.85083 0.36509 0.0
C1758 C 0.28077 0.86748 0.39031 0.0
C1759 C 0.26189 0.87717 0.39043 0.0
C1760 C 0.24484 0.87355 0.37777 0.0
C1761 C 0.24658 0.8605 0.36531 0.0
C1762 C 0.26026 0.89133 0.40338 0.0
C1763 C 0.25689 0.90725 0.39553 0.0
C1764 C 0.26311 0.8894 0.42318 0.0
C1765 C 0.2656 0.87285 0.43257 0.0
C1766 C 0.24964 0.85989 0.43023 0.0
C1767 C 0.25216 0.8443 0.43902 0.0
C1768 C 0.2705 0.84155 0.4503 0.0
C1769 C 0.28633 0.8544 0.45286 0.0
C1770 C 0.2839 0.87001 0.44408 0.0
C1771 C 0.24121 0.95798 0.45121 0.0
C1772 C 0.25861 0.96099 0.4638 0.0
C1773 C 0.24144 0.94445 0.43932 0.0
C1774 C 0.25924 0.93369 0.43947 0.0
C1775 C 0.27653 0.93657 0.45212 0.0
C1776 C 0.27623 0.95002 0.46412 0.0
C1777 C 0.2598 0.91938 0.42661 0.0
C1778 C 0.26297 0.90342 0.43447 0.0
C1779 C 0.25685 0.92128 0.4068 0.0
C1780 C 0.2547 0.93782 0.39731 0.0
C1781 C 0.27113 0.95053 0.39928 0.0
C1782 C 0.26889 0.96613 0.39041 0.0
C1783 C 0.25039 0.96912 0.37941 0.0
C1784 C 0.2341 0.95652 0.37721 0.0
C1785 C 0.23624 0.9409 0.38607 0.0
H1786 H 0.24869 0.98121 0.37255 0.0
H1787 H 0.27243 0.82947 0.45709 0.0
H1788 H 0.66372 0.77231 0.82396 0.0
H1789 H 0.63875 0.76993 0.85192 0.0
H1790 H 0.69097 0.79033 0.886 0.0
H1791 H 0.71618 0.79241 0.8582 0.0
H1792 H 0.66839 0.76426 0.90449 0.0
H1793 H 0.64997 0.81442 0.87051 0.0
H1794 H 0.63907 0.83118 0.84263 0.0
H1795 H 0.57826 0.80161 0.83979 0.0
H1796 H 0.58896 0.78452 0.86751 0.0
H1797 H 0.60307 0.78667 0.98412 0.0
H1798 H 0.62822 0.78683 0.95617 0.0
H1799 H 0.5738 0.76918 0.92251 0.0
H1800 H 0.54861 0.76942 0.95042 0.0
H1801 H 0.59719 0.79314 0.90352 0.0
H1802 H 0.61463 0.7434 0.9378 0.0
H1803 H 0.62517 0.7264 0.9656 0.0
H1804 H 0.6873 0.75444 0.96773 0.0
H1805 H 0.67697 0.7718 0.9401 0.0
C1806 C 0.67 0.77609 0.83745 0.0
C1807 C 0.69196 0.78262 0.83878 0.0
C1808 C 0.65563 0.77486 0.8534 0.0
C1809 C 0.66287 0.78015 0.87105 0.0
C1810 C 0.68496 0.78623 0.87255 0.0
C1811 C 0.69931 0.78753 0.85659 0.0
C1812 C 0.64732 0.77968 0.88786 0.0
C1813 C 0.65294 0.77073 0.90435 0.0
C1814 C 0.62688 0.78778 0.88758 0.0
C1815 C 0.62038 0.79808 0.87096 0.0
C1816 C 0.63436 0.81141 0.86385 0.0
C1817 C 0.6282 0.82098 0.84809 0.0
C1818 C 0.60801 0.81744 0.83941 0.0
C1819 C 0.59391 0.80433 0.84651 0.0
C1820 C 0.6 0.7947 0.86225 0.0
C1821 C 0.59658 0.78286 0.97071 0.0
C1822 C 0.57399 0.77806 0.96931 0.0
C1823 C 0.61093 0.78285 0.95478 0.0
C1824 C 0.603 0.77783 0.93722 0.0
C1825 C 0.58034 0.77309 0.93586 0.0
C1826 C 0.56599 0.77317 0.95177 0.0
C1827 C 0.61825 0.77773 0.92022 0.0
C1828 C 0.61259 0.7866 0.90367 0.0
C1829 C 0.6386 0.76949 0.92044 0.0
C1830 C 0.64493 0.759 0.93698 0.0
C1831 C 0.63047 0.74603 0.94428 0.0
C1832 C 0.63641 0.73631 0.96 0.0
C1833 C 0.65687 0.73936 0.96845 0.0
C1834 C 0.67144 0.75211 0.96118 0.0
C1835 C 0.66556 0.76188 0.94548 0.0
H1836 H 0.66144 0.73183 0.98062 0.0
H1837 H 0.60327 0.82487 0.82721 0.0
loop_
_geom_bond_atom_site_label_1
_geom_bond_atom_site_label_2
_geom_bond_distance
_geom_bond_site_symmetry_2
_ccdc_geom_bond_type
C0 C1 1.264 . S
C0 C5 1.479 . S
C0 C10 1.465 . S
C1 C0 1.264 . S
C1 C3 1.339 . S
C1 H28 0.931 . S
C2 C3 1.395 . S
C2 C4 1.320 . S
C3 C1 1.339 . S
C3 C2 1.395 . S
C3 H29 0.929 . S
C4 C2 1.320 . S
C4 C5 1.405 . S
C4 H30 0.930 . S
C5 C0 1.479 . S
C5 C4 1.405 . S
C5 H31 0.931 . S
U6 O7 2.454 . S
U6 O8 2.458 . S
U6 C9 2.984 . S
U6 C10 2.847 . S
U6 C23 2.882 . S
U6 O24 2.441 . S
U6 O25 2.420 . S
U6 O26 2.455 . S
U6 O27 2.449 . S
O7 U6 2.454 . S
O7 C9 1.353 . S
O8 U6 2.458 . S
O8 C9 1.286 . S
C9 U6 2.984 . S
C9 O7 1.353 . S
C9 O8 1.286 . S
C9 C11 1.363 . S
C10 C0 1.465 . S
C10 U6 2.847 . S
C10 O24 1.249 . S
C10 O25 1.202 . S
C11 C9 1.363 . S
C11 C13 1.408 . S
C11 C16 1.342 . S
C12 C13 1.310 . S
C12 C15 1.461 . S
C12 H32 0.932 . S
C13 C11 1.408 . S
C13 C12 1.310 . S
C13 H33 0.930 . S
C14 C15 1.474 . S
C14 C16 1.285 . S
C14 H34 0.929 . S
C15 C12 1.461 . S
C15 C14 1.474 . S
C16 C11 1.342 . S
C16 C14 1.285 . S
C16 H35 0.930 . S
C17 C20 1.424 . S
C17 C22 1.245 . S
C17 C23 1.428 . S
C18 C21 1.260 . S
C18 C22 1.477 . S
C18 H36 0.932 . S
C19 C20 1.384 . S
C19 C21 1.479 . S
C19 H37 0.929 . S
C20 C17 1.424 . S
C20 C19 1.384 . S
C20 H38 0.928 . S
C21 C18 1.260 . S
C21 C19 1.479 . S
C22 C17 1.245 . S
C22 C18 1.477 . S
C22 H39 0.932 . S
C23 U6 2.882 . S
C23 C17 1.428 . S
C23 O26 1.301 . S
C23 O27 1.282 . S
O24 U6 2.441 . S
O24 C10 1.249 . S
O25 U6 2.420 . S
O25 C10 1.202 . S
O26 U6 2.455 . S
O26 C23 1.301 . S
O27 U6 2.449 . S
O27 C23 1.282 . S
H28 C1 0.931 . S
H29 C3 0.929 . S
H30 C4 0.930 . S
H31 C5 0.931 . S
H32 C12 0.932 . S
H33 C13 0.930 . S
H34 C14 0.929 . S
H35 C16 0.930 . S
H36 C18 0.932 . S
H37 C19 0.929 . S
H38 C20 0.928 . S
H39 C22 0.932 . S
C40 C41 1.264 . S
C40 C45 1.479 . S
C40 C50 1.465 . S
C41 C40 1.264 . S
C41 C43 1.339 . S
C41 H68 0.931 . S
C42 C43 1.395 . S
C42 C44 1.320 . S
C43 C41 1.339 . S
C43 C42 1.395 . S
C43 H69 0.929 . S
C44 C42 1.320 . S
C44 C45 1.405 . S
C44 H70 0.930 . S
C45 C40 1.479 . S
C45 C44 1.405 . S
C45 H71 0.931 . S
U46 O47 2.454 . S
U46 O48 2.458 . S
U46 C49 2.984 . S
U46 C50 2.847 . S
U46 C63 2.882 . S
U46 O64 2.441 . S
U46 O65 2.420 . S
U46 O66 2.455 . S
U46 O67 2.449 . S
O47 U46 2.454 . S
O47 C49 1.353 . S
O48 U46 2.458 . S
O48 C49 1.286 . S
C49 U46 2.984 . S
C49 O47 1.353 . S
C49 O48 1.286 . S
C49 C51 1.363 . S
C50 C40 1.465 . S
C50 U46 2.847 . S
C50 O64 1.249 . S
C50 O65 1.202 . S
C51 C49 1.363 . S
C51 C53 1.408 . S
C51 C56 1.342 . S
C52 C53 1.310 . S
C52 C55 1.461 . S
C52 H72 0.932 . S
C53 C51 1.408 . S
C53 C52 1.310 . S
C53 H73 0.930 . S
C54 C55 1.474 . S
C54 C56 1.285 . S
C54 H74 0.929 . S
C55 C52 1.461 . S
C55 C54 1.474 . S
C56 C51 1.342 . S
C56 C54 1.285 . S
C56 H75 0.930 . S
C57 C60 1.424 . S
C57 C62 1.245 . S
C57 C63 1.428 . S
C58 C61 1.260 . S
C58 C62 1.477 . S
C58 H76 0.932 . S
C59 C60 1.384 . S
C59 C61 1.479 . S
C59 H77 0.929 . S
C60 C57 1.424 . S
C60 C59 1.384 . S
C60 H78 0.928 . S
C61 C58 1.260 . S
C61 C59 1.479 . S
C62 C57 1.245 . S
C62 C58 1.477 . S
C62 H79 0.932 . S
C63 U46 2.882 . S
C63 C57 1.428 . S
C63 O66 1.301 . S
C63 O67 1.282 . S
O64 U46 2.441 . S
O64 C50 1.249 . S
O65 U46 2.420 . S
O65 C50 1.202 . S
O66 U46 2.455 . S
O66 C63 1.301 . S
O67 U46 2.449 . S
O67 C63 1.282 . S
H68 C41 0.931 . S
H69 C43 0.929 . S
H70 C44 0.930 . S
H71 C45 0.931 . S
H72 C52 0.932 . S
H73 C53 0.930 . S
H74 C54 0.929 . S
H75 C56 0.930 . S
H76 C58 0.932 . S
H77 C59 0.929 . S
H78 C60 0.928 . S
H79 C62 0.932 . S
C80 C81 1.264 . S
C80 C85 1.479 . S
C80 C90 1.465 . S
C81 C80 1.264 . S
C81 C83 1.339 . S
C81 H108 0.931 . S
C82 C83 1.395 . S
C82 C84 1.320 . S
C83 C81 1.339 . S
C83 C82 1.395 . S
C83 H109 0.929 . S
C84 C82 1.320 . S
C84 C85 1.405 . S
C84 H110 0.930 . S
C85 C80 1.479 . S
C85 C84 1.405 . S
C85 H111 0.931 . S
U86 O87 2.454 . S
U86 O88 2.458 . S
U86 C89 2.984 . S
U86 C90 2.847 . S
U86 C103 2.882 . S
U86 O104 2.441 . S
U86 O105 2.420 . S
U86 O106 2.455 . S
U86 O107 2.449 . S
O87 U86 2.454 . S
O87 C89 1.353 . S
O88 U86 2.458 . S
O88 C89 1.286 . S
C89 U86 2.984 . S
C89 O87 1.353 . S
C89 O88 1.286 . S
C89 C91 1.363 . S
C90 C80 1.465 . S
C90 U86 2.847 . S
C90 O104 1.249 . S
C90 O105 1.202 . S
C91 C89 1.363 . S
C91 C93 1.408 . S
C91 C96 1.342 . S
C92 C93 1.310 . S
C92 C95 1.461 . S
C92 H112 0.932 . S
C93 C91 1.408 . S
C93 C92 1.310 . S
C93 H113 0.930 . S
C94 C95 1.474 . S
C94 C96 1.285 . S
C94 H114 0.929 . S
C95 C92 1.461 . S
C95 C94 1.474 . S
C96 C91 1.342 . S
C96 C94 1.285 . S
C96 H115 0.930 . S
C97 C100 1.424 . S
C97 C102 1.245 . S
C97 C103 1.428 . S
C98 C101 1.260 . S
C98 C102 1.477 . S
C98 H116 0.932 . S
C99 C100 1.384 . S
C99 C101 1.479 . S
C99 H117 0.929 . S
C100 C97 1.424 . S
C100 C99 1.384 . S
C100 H118 0.928 . S
C101 C98 1.260 . S
C101 C99 1.479 . S
C102 C97 1.245 . S
C102 C98 1.477 . S
C102 H119 0.932 . S
C103 U86 2.882 . S
C103 C97 1.428 . S
C103 O106 1.301 . S
C103 O107 1.282 . S
O104 U86 2.441 . S
O104 C90 1.249 . S
O105 U86 2.420 . S
O105 C90 1.202 . S
O106 U86 2.455 . S
O106 C103 1.301 . S
O107 U86 2.449 . S
O107 C103 1.282 . S
H108 C81 0.931 . S
H109 C83 0.929 . S
H110 C84 0.930 . S
H111 C85 0.931 . S
H112 C92 0.932 . S
H113 C93 0.930 . S
H114 C94 0.929 . S
H115 C96 0.930 . S
H116 C98 0.932 . S
H117 C99 0.929 . S
H118 C100 0.928 . S
H119 C102 0.932 . S
C120 C121 1.264 . S
C120 C125 1.479 . S
C120 C130 1.465 . S
C121 C120 1.264 . S
C121 C123 1.339 . S
C121 H148 0.931 . S
C122 C123 1.395 . S
C122 C124 1.320 . S
C123 C121 1.339 . S
C123 C122 1.395 . S
C123 H149 0.929 . S
C124 C122 1.320 . S
C124 C125 1.405 . S
C124 H150 0.930 . S
C125 C120 1.479 . S
C125 C124 1.405 . S
C125 H151 0.931 . S
U126 O127 2.454 . S
U126 O128 2.458 . S
U126 C129 2.984 . S
U126 C130 2.847 . S
U126 C143 2.882 . S
U126 O144 2.441 . S
U126 O145 2.420 . S
U126 O146 2.455 . S
U126 O147 2.449 . S
O127 U126 2.454 . S
O127 C129 1.353 . S
O128 U126 2.458 . S
O128 C129 1.286 . S
C129 U126 2.984 . S
C129 O127 1.353 . S
C129 O128 1.286 . S
C129 C131 1.363 . S
C130 C120 1.465 . S
C130 U126 2.847 . S
C130 O144 1.249 . S
C130 O145 1.202 . S
C131 C129 1.363 . S
C131 C133 1.408 . S
C131 C136 1.342 . S
C132 C133 1.310 . S
C132 C135 1.461 . S
C132 H152 0.932 . S
C133 C131 1.408 . S
C133 C132 1.310 . S
C133 H153 0.930 . S
C134 C135 1.474 . S
C134 C136 1.285 . S
C134 H154 0.929 . S
C135 C132 1.461 . S
C135 C134 1.474 . S
C136 C131 1.342 . S
C136 C134 1.285 . S
C136 H155 0.930 . S
C137 C140 1.424 . S
C137 C142 1.245 . S
C137 C143 1.428 . S
C138 C141 1.260 . S
C138 C142 1.477 . S
C138 H156 0.932 . S
C139 C140 1.384 . S
C139 C141 1.479 . S
C139 H157 0.929 . S
C140 C137 1.424 . S
C140 C139 1.384 . S
C140 H158 0.928 . S
C141 C138 1.260 . S
C141 C139 1.479 . S
C142 C137 1.245 . S
C142 C138 1.477 . S
C142 H159 0.932 . S
C143 U126 2.882 . S
C143 C137 1.428 . S
C143 O146 1.301 . S
C143 O147 1.282 . S
O144 U126 2.441 . S
O144 C130 1.249 . S
O145 U126 2.420 . S
O145 C130 1.202 . S
O146 U126 2.455 . S
O146 C143 1.301 . S
O147 U126 2.449 . S
O147 C143 1.282 . S
H148 C121 0.931 . S
H149 C123 0.929 . S
H150 C124 0.930 . S
H151 C125 0.931 . S
H152 C132 0.932 . S
H153 C133 0.930 . S
H154 C134 0.929 . S
H155 C136 0.930 . S
H156 C138 0.932 . S
H157 C139 0.929 . S
H158 C140 0.928 . S
H159 C142 0.932 . S
C160 C161 1.264 . S
C160 C165 1.479 . S
C160 C170 1.465 . S
C161 C160 1.264 . S
C161 C163 1.339 . S
C161 H188 0.931 . S
C162 C163 1.395 . S
C162 C164 1.320 . S
C163 C161 1.339 . S
C163 C162 1.395 . S
C163 H189 0.929 . S
C164 C162 1.320 . S
C164 C165 1.405 . S
C164 H190 0.930 . S
C165 C160 1.479 . S
C165 C164 1.405 . S
C165 H191 0.931 . S
U166 O167 2.454 . S
U166 O168 2.458 . S
U166 C169 2.984 . S
U166 C170 2.847 . S
U166 C183 2.882 . S
U166 O184 2.441 . S
U166 O185 2.420 . S
U166 O186 2.455 . S
U166 O187 2.449 . S
O167 U166 2.454 . S
O167 C169 1.353 . S
O168 U166 2.458 . S
O168 C169 1.286 . S
C169 U166 2.984 . S
C169 O167 1.353 . S
C169 O168 1.286 . S
C169 C171 1.363 . S
C170 C160 1.465 . S
C170 U166 2.847 . S
C170 O184 1.249 . S
C170 O185 1.202 . S
C171 C169 1.363 . S
C171 C173 1.408 . S
C171 C176 1.342 . S
C172 C173 1.310 . S
C172 C175 1.461 . S
C172 H192 0.932 . S
C173 C171 1.408 . S
C173 C172 1.310 . S
C173 H193 0.930 . S
C174 C175 1.474 . S
C174 C176 1.285 . S
C174 H194 0.929 . S
C175 C172 1.461 . S
C175 C174 1.474 . S
C176 C171 1.342 . S
C176 C174 1.285 . S
C176 H195 0.930 . S
C177 C180 1.424 . S
C177 C182 1.245 . S
C177 C183 1.428 . S
C178 C181 1.260 . S
C178 C182 1.477 . S
C178 H196 0.932 . S
C179 C180 1.384 . S
C179 C181 1.479 . S
C179 H197 0.929 . S
C180 C177 1.424 . S
C180 C179 1.384 . S
C180 H198 0.928 . S
C181 C178 1.260 . S
C181 C179 1.479 . S
C182 C177 1.245 . S
C182 C178 1.477 . S
C182 H199 0.932 . S
C183 U166 2.882 . S
C183 C177 1.428 . S
C183 O186 1.301 . S
C183 O187 1.282 . S
O184 U166 2.441 . S
O184 C170 1.249 . S
O185 U166 2.420 . S
O185 C170 1.202 . S
O186 U166 2.455 . S
O186 C183 1.301 . S
O187 U166 2.449 . S
O187 C183 1.282 . S
H188 C161 0.931 . S
H189 C163 0.929 . S
H190 C164 0.930 . S
H191 C165 0.931 . S
H192 C172 0.932 . S
H193 C173 0.930 . S
H194 C174 0.929 . S
H195 C176 0.930 . S
H196 C178 0.932 . S
H197 C179 0.929 . S
H198 C180 0.928 . S
H199 C182 0.932 . S
C200 C201 1.264 . S
C200 C205 1.479 . S
C200 C210 1.465 . S
C201 C200 1.264 . S
C201 C203 1.339 . S
C201 H228 0.931 . S
C202 C203 1.395 . S
C202 C204 1.320 . S
C203 C201 1.339 . S
C203 C202 1.395 . S
C203 H229 0.929 . S
C204 C202 1.320 . S
C204 C205 1.405 . S
C204 H230 0.930 . S
C205 C200 1.479 . S
C205 C204 1.405 . S
C205 H231 0.931 . S
U206 O207 2.454 . S
U206 O208 2.458 . S
U206 C209 2.984 . S
U206 C210 2.847 . S
U206 C223 2.882 . S
U206 O224 2.441 . S
U206 O225 2.420 . S
U206 O226 2.455 . S
U206 O227 2.449 . S
O207 U206 2.454 . S
O207 C209 1.353 . S
O208 U206 2.458 . S
O208 C209 1.286 . S
C209 U206 2.984 . S
C209 O207 1.353 . S
C209 O208 1.286 . S
C209 C211 1.363 . S
C210 C200 1.465 . S
C210 U206 2.847 . S
C210 O224 1.249 . S
C210 O225 1.202 . S
C211 C209 1.363 . S
C211 C213 1.408 . S
C211 C216 1.342 . S
C212 C213 1.310 . S
C212 C215 1.461 . S
C212 H232 0.932 . S
C213 C211 1.408 . S
C213 C212 1.310 . S
C213 H233 0.930 . S
C214 C215 1.474 . S
C214 C216 1.285 . S
C214 H234 0.929 . S
C215 C212 1.461 . S
C215 C214 1.474 . S
C216 C211 1.342 . S
C216 C214 1.285 . S
C216 H235 0.930 . S
C217 C220 1.424 . S
C217 C222 1.245 . S
C217 C223 1.428 . S
C218 C221 1.260 . S
C218 C222 1.477 . S
C218 H236 0.932 . S
C219 C220 1.384 . S
C219 C221 1.479 . S
C219 H237 0.929 . S
C220 C217 1.424 . S
C220 C219 1.384 . S
C220 H238 0.928 . S
C221 C218 1.260 . S
C221 C219 1.479 . S
C222 C217 1.245 . S
C222 C218 1.477 . S
C222 H239 0.932 . S
C223 U206 2.882 . S
C223 C217 1.428 . S
C223 O226 1.301 . S
C223 O227 1.282 . S
O224 U206 2.441 . S
O224 C210 1.249 . S
O225 U206 2.420 . S
O225 C210 1.202 . S
O226 U206 2.455 . S
O226 C223 1.301 . S
O227 U206 2.449 . S
O227 C223 1.282 . S
H228 C201 0.931 . S
H229 C203 0.929 . S
H230 C204 0.930 . S
H231 C205 0.931 . S
H232 C212 0.932 . S
H233 C213 0.930 . S
H234 C214 0.929 . S
H235 C216 0.930 . S
H236 C218 0.932 . S
H237 C219 0.929 . S
H238 C220 0.928 . S
H239 C222 0.932 . S
C240 C241 1.264 . S
C240 C245 1.479 . S
C240 C250 1.465 . S
C241 C240 1.264 . S
C241 C243 1.339 . S
C241 H268 0.931 . S
C242 C243 1.395 . S
C242 C244 1.320 . S
C243 C241 1.339 . S
C243 C242 1.395 . S
C243 H269 0.929 . S
C244 C242 1.320 . S
C244 C245 1.405 . S
C244 H270 0.930 . S
C245 C240 1.479 . S
C245 C244 1.405 . S
C245 H271 0.931 . S
U246 O247 2.454 . S
U246 O248 2.458 . S
U246 C249 2.984 . S
U246 C250 2.847 . S
U246 C263 2.882 . S
U246 O264 2.441 . S
U246 O265 2.420 . S
U246 O266 2.455 . S
U246 O267 2.449 . S
O247 U246 2.454 . S
O247 C249 1.353 . S
O248 U246 2.458 . S
O248 C249 1.286 . S
C249 U246 2.984 . S
C249 O247 1.353 . S
C249 O248 1.286 . S
C249 C251 1.363 . S
C250 C240 1.465 . S
C250 U246 2.847 . S
C250 O264 1.249 . S
C250 O265 1.202 . S
C251 C249 1.363 . S
C251 C253 1.408 . S
C251 C256 1.342 . S
C252 C253 1.310 . S
C252 C255 1.461 . S
C252 H272 0.932 . S
C253 C251 1.408 . S
C253 C252 1.310 . S
C253 H273 0.930 . S
C254 C255 1.474 . S
C254 C256 1.285 . S
C254 H274 0.929 . S
C255 C252 1.461 . S
C255 C254 1.474 . S
C256 C251 1.342 . S
C256 C254 1.285 . S
C256 H275 0.930 . S
C257 C260 1.424 . S
C257 C262 1.245 . S
C257 C263 1.428 . S
C258 C261 1.260 . S
C258 C262 1.477 . S
C258 H276 0.932 . S
C259 C260 1.384 . S
C259 C261 1.479 . S
C259 H277 0.929 . S
C260 C257 1.424 . S
C260 C259 1.384 . S
C260 H278 0.928 . S
C261 C258 1.260 . S
C261 C259 1.479 . S
C262 C257 1.245 . S
C262 C258 1.477 . S
C262 H279 0.932 . S
C263 U246 2.882 . S
C263 C257 1.428 . S
C263 O266 1.301 . S
C263 O267 1.282 . S
O264 U246 2.441 . S
O264 C250 1.249 . S
O265 U246 2.420 . S
O265 C250 1.202 . S
O266 U246 2.455 . S
O266 C263 1.301 . S
O267 U246 2.449 . S
O267 C263 1.282 . S
H268 C241 0.931 . S
H269 C243 0.929 . S
H270 C244 0.930 . S
H271 C245 0.931 . S
H272 C252 0.932 . S
H273 C253 0.930 . S
H274 C254 0.929 . S
H275 C256 0.930 . S
H276 C258 0.932 . S
H277 C259 0.929 . S
H278 C260 0.928 . S
H279 C262 0.932 . S
C280 C281 1.264 . S
C280 C285 1.479 . S
C280 C290 1.465 . S
C281 C280 1.264 . S
C281 C283 1.339 . S
C281 H308 0.931 . S
C282 C283 1.395 . S
C282 C284 1.320 . S
C283 C281 1.339 . S
C283 C282 1.395 . S
C283 H309 0.929 . S
C284 C282 1.320 . S
C284 C285 1.405 . S
C284 H310 0.930 . S
C285 C280 1.479 . S
C285 C284 1.405 . S
C285 H311 0.931 . S
U286 O287 2.454 . S
U286 O288 2.458 . S
U286 C289 2.984 . S
U286 C290 2.847 . S
U286 C303 2.882 . S
U286 O304 2.441 . S
U286 O305 2.420 . S
U286 O306 2.455 . S
U286 O307 2.449 . S
O287 U286 2.454 . S
O287 C289 1.353 . S
O288 U286 2.458 . S
O288 C289 1.286 . S
C289 U286 2.984 . S
C289 O287 1.353 . S
C289 O288 1.286 . S
C289 C291 1.363 . S
C290 C280 1.465 . S
C290 U286 2.847 . S
C290 O304 1.249 . S
C290 O305 1.202 . S
C291 C289 1.363 . S
C291 C293 1.408 . S
C291 C296 1.342 . S
C292 C293 1.310 . S
C292 C295 1.461 . S
C292 H312 0.932 . S
C293 C291 1.408 . S
C293 C292 1.310 . S
C293 H313 0.930 . S
C294 C295 1.474 . S
C294 C296 1.285 . S
C294 H314 0.929 . S
C295 C292 1.461 . S
C295 C294 1.474 . S
C296 C291 1.342 . S
C296 C294 1.285 . S
C296 H315 0.930 . S
C297 C300 1.424 . S
C297 C302 1.245 . S
C297 C303 1.428 . S
C298 C301 1.260 . S
C298 C302 1.477 . S
C298 H316 0.932 . S
C299 C300 1.384 . S
C299 C301 1.479 . S
C299 H317 0.929 . S
C300 C297 1.424 . S
C300 C299 1.384 . S
C300 H318 0.928 . S
C301 C298 1.260 . S
C301 C299 1.479 . S
C302 C297 1.245 . S
C302 C298 1.477 . S
C302 H319 0.932 . S
C303 U286 2.882 . S
C303 C297 1.428 . S
C303 O306 1.301 . S
C303 O307 1.282 . S
O304 U286 2.441 . S
O304 C290 1.249 . S
O305 U286 2.420 . S
O305 C290 1.202 . S
O306 U286 2.455 . S
O306 C303 1.301 . S
O307 U286 2.449 . S
O307 C303 1.282 . S
H308 C281 0.931 . S
H309 C283 0.929 . S
H310 C284 0.930 . S
H311 C285 0.931 . S
H312 C292 0.932 . S
H313 C293 0.930 . S
H314 C294 0.929 . S
H315 C296 0.930 . S
H316 C298 0.932 . S
H317 C299 0.929 . S
H318 C300 0.928 . S
H319 C302 0.932 . S
C320 C321 1.443 . S
C320 N324 1.376 . S
C320 C358 1.389 . S
C321 C320 1.443 . S
C321 C322 1.340 . S
C321 H361 0.951 . S
C322 C321 1.340 . S
C322 C323 1.439 . S
C322 H362 0.950 . S
C323 C322 1.439 . S
C323 N324 1.374 . S
C323 C357 1.395 . S
N324 C320 1.376 . S
N324 C323 1.374 . S
N324 Co325 2.008 . S
Co325 N324 2.008 . S
Co325 N326 1.995 . S
Co325 N331 2.008 . S
Co325 N336 1.995 . S
Co325 N341 2.282 . S
Co325 N347 2.282 1_455 S
N326 Co325 1.995 . S
N326 C327 1.376 . S
N326 C330 1.383 1_455 S
C327 N326 1.376 . S
C327 C328 1.446 1_455 S
C327 C357 1.391 . S
C328 C327 1.446 1_655 S
C328 C329 1.339 . S
C328 H363 0.949 . S
C329 C328 1.339 . S
C329 C330 1.439 . S
C329 H364 0.950 . S
C330 N326 1.383 1_655 S
C330 C329 1.439 . S
C330 C359 1.392 . S
N331 Co325 2.008 . S
N331 C332 1.376 1_455 S
N331 C335 1.374 . S
C332 N331 1.376 1_655 S
C332 C333 1.443 . S
C332 C359 1.389 . S
C333 C332 1.443 . S
C333 C334 1.340 . S
C333 H365 0.951 . S
C334 C333 1.340 . S
C334 C335 1.439 1_655 S
C334 H366 0.950 . S
C335 N331 1.374 . S
C335 C334 1.439 1_455 S
C335 C360 1.395 . S
N336 Co325 1.995 . S
N336 C337 1.376 . S
N336 C340 1.383 . S
C337 N336 1.376 . S
C337 C338 1.446 . S
C337 C360 1.391 . S
C338 C337 1.446 . S
C338 C339 1.339 . S
C338 H367 0.949 . S
C339 C338 1.339 . S
C339 C340 1.439 . S
C339 H368 0.950 . S
C340 N336 1.383 . S
C340 C339 1.439 . S
C340 C358 1.392 . S
N341 Co325 2.282 . S
N341 C344 1.332 . S
N341 C346 1.332 . S
C342 C343 1.386 . S
C342 C345 1.388 . S
C343 C342 1.386 . S
C343 C344 1.382 . S
C343 H369 0.950 . S
C344 N341 1.332 . S
C344 C343 1.382 . S
C344 H355 0.952 . S
C345 C342 1.388 . S
C345 C346 1.382 . S
C345 H370 0.950 . S
C346 N341 1.332 . S
C346 C345 1.382 . S
C346 H356 0.948 . S
N347 Co325 2.282 1_655 S
N347 C351 1.332 . S
N347 C352 1.332 . S
C348 C349 1.388 . S
C348 C352 1.382 . S
C348 H371 0.950 . S
C349 C348 1.388 . S
C349 C350 1.386 . S
C350 C349 1.386 . S
C350 C351 1.382 . S
C350 H372 0.950 . S
C351 N347 1.332 . S
C351 C350 1.382 . S
C351 H353 0.952 . S
C352 N347 1.332 . S
C352 C348 1.382 . S
C352 H354 0.948 . S
H353 C351 0.952 . S
H354 C352 0.948 . S
H355 C344 0.952 . S
H356 C346 0.948 . S
C357 C323 1.395 . S
C357 C327 1.391 . S
C358 C320 1.389 . S
C358 C340 1.392 . S
C359 C330 1.392 . S
C359 C332 1.389 . S
C360 C335 1.395 . S
C360 C337 1.391 . S
H361 C321 0.951 . S
H362 C322 0.950 . S
H363 C328 0.949 . S
H364 C329 0.950 . S
H365 C333 0.951 . S
H366 C334 0.950 . S
H367 C338 0.949 . S
H368 C339 0.950 . S
H369 C343 0.950 . S
H370 C345 0.950 . S
H371 C348 0.950 . S
H372 C350 0.950 . S
C373 C374 1.443 . S
C373 N377 1.376 . S
C373 C411 1.389 . S
C374 C373 1.443 . S
C374 C375 1.340 . S
C374 H414 0.951 . S
C375 C374 1.340 . S
C375 C376 1.439 . S
C375 H415 0.950 . S
C376 C375 1.439 . S
C376 N377 1.374 . S
C376 C410 1.395 . S
N377 C373 1.376 . S
N377 C376 1.374 . S
N377 Co378 2.008 . S
Co378 N377 2.008 . S
Co378 N379 1.995 1_455 S
Co378 N384 2.008 1_455 S
Co378 N389 1.995 . S
Co378 N394 2.282 . S
Co378 N400 2.282 1_455 S
N379 Co378 1.995 1_655 S
N379 C380 1.376 . S
N379 C383 1.383 . S
C380 N379 1.376 . S
C380 C381 1.446 . S
C380 C410 1.391 1_655 S
C381 C380 1.446 . S
C381 C382 1.339 . S
C381 H416 0.949 . S
C382 C381 1.339 . S
C382 C383 1.439 . S
C382 H417 0.950 . S
C383 N379 1.383 . S
C383 C382 1.439 . S
C383 C412 1.392 . S
N384 Co378 2.008 1_655 S
N384 C385 1.376 . S
N384 C388 1.373 1_655 S
C385 N384 1.376 . S
C385 C386 1.443 . S
C385 C412 1.389 . S
C386 C385 1.443 . S
C386 C387 1.340 . S
C386 H418 0.951 . S
C387 C386 1.340 . S
C387 C388 1.438 1_655 S
C387 H419 0.950 . S
C388 N384 1.373 1_455 S
C388 C387 1.438 1_455 S
C388 C413 1.397 . S
N389 Co378 1.995 . S
N389 C390 1.376 . S
N389 C393 1.383 . S
C390 N389 1.376 . S
C390 C391 1.446 . S
C390 C413 1.391 . S
C391 C390 1.446 . S
C391 C392 1.339 . S
C391 H420 0.949 . S
C392 C391 1.339 . S
C392 C393 1.439 . S
C392 H421 0.950 . S
C393 N389 1.383 . S
C393 C392 1.439 . S
C393 C411 1.392 . S
N394 Co378 2.282 . S
N394 C397 1.332 . S
N394 C399 1.332 . S
C395 C396 1.386 . S
C395 C398 1.388 . S
C396 C395 1.386 . S
C396 C397 1.382 . S
C396 H422 0.950 . S
C397 N394 1.332 . S
C397 C396 1.382 . S
C397 H408 0.952 . S
C398 C395 1.388 . S
C398 C399 1.382 . S
C398 H423 0.950 . S
C399 N394 1.332 . S
C399 C398 1.382 . S
C399 H409 0.948 . S
N400 Co378 2.282 1_655 S
N400 C404 1.332 . S
N400 C405 1.332 . S
C401 C402 1.388 . S
C401 C405 1.382 . S
C401 H424 0.950 . S
C402 C401 1.388 . S
C402 C403 1.386 . S
C403 C402 1.386 . S
C403 C404 1.382 . S
C403 H425 0.950 . S
C404 N400 1.332 . S
C404 C403 1.382 . S
C404 H406 0.952 . S
C405 N400 1.332 . S
C405 C401 1.382 . S
C405 H407 0.948 . S
H406 C404 0.952 . S
H407 C405 0.948 . S
H408 C397 0.952 . S
H409 C399 0.948 . S
C410 C376 1.395 . S
C410 C380 1.391 1_455 S
C411 C373 1.389 . S
C411 C393 1.392 . S
C412 C383 1.392 . S
C412 C385 1.389 . S
C413 C388 1.397 . S
C413 C390 1.391 . S
H414 C374 0.951 . S
H415 C375 0.950 . S
H416 C381 0.949 . S
H417 C382 0.950 . S
H418 C386 0.951 . S
H419 C387 0.950 . S
H420 C391 0.949 . S
H421 C392 0.950 . S
H422 C396 0.950 . S
H423 C398 0.950 . S
H424 C401 0.950 . S
H425 C403 0.950 . S
C426 C427 1.443 . S
C426 N430 1.376 . S
C426 C464 1.389 . S
C427 C426 1.443 . S
C427 C428 1.340 . S
C427 H467 0.951 . S
C428 C427 1.340 . S
C428 C429 1.439 . S
C428 H468 0.950 . S
C429 C428 1.439 . S
C429 N430 1.374 . S
C429 C463 1.395 1_565 S
N430 C426 1.376 . S
N430 C429 1.374 . S
N430 Co431 2.008 1_565 S
Co431 N430 2.008 1_545 S
Co431 N432 1.995 . S
Co431 N437 2.008 . S
Co431 N442 1.995 1_545 S
Co431 N447 2.282 . S
Co431 N453 2.282 1_545 S
N432 Co431 1.995 . S
N432 C433 1.376 . S
N432 C436 1.383 . S
C433 N432 1.376 . S
C433 C434 1.446 . S
C433 C463 1.391 . S
C434 C433 1.446 . S
C434 C435 1.339 . S
C434 H469 0.949 . S
C435 C434 1.339 . S
C435 C436 1.439 . S
C435 H470 0.950 . S
C436 N432 1.383 . S
C436 C435 1.439 . S
C436 C465 1.392 . S
N437 Co431 2.008 . S
N437 C438 1.376 . S
N437 C441 1.374 . S
C438 N437 1.376 . S
C438 C439 1.443 . S
C438 C465 1.389 . S
C439 C438 1.443 . S
C439 C440 1.340 . S
C439 H471 0.951 . S
C440 C439 1.340 . S
C440 C441 1.439 . S
C440 H472 0.950 . S
C441 N437 1.374 . S
C441 C440 1.439 . S
C441 C466 1.395 . S
N442 Co431 1.995 1_565 S
N442 C443 1.376 . S
N442 C446 1.383 . S
C443 N442 1.376 . S
C443 C444 1.446 . S
C443 C466 1.391 1_565 S
C444 C443 1.446 . S
C444 C445 1.339 . S
C444 H473 0.949 . S
C445 C444 1.339 . S
C445 C446 1.439 . S
C445 H474 0.950 . S
C446 N442 1.383 . S
C446 C445 1.439 . S
C446 C464 1.392 . S
N447 Co431 2.282 . S
N447 C450 1.332 . S
N447 C452 1.332 . S
C448 C449 1.386 . S
C448 C451 1.388 . S
C449 C448 1.386 . S
C449 C450 1.382 . S
C449 H475 0.950 . S
C450 N447 1.332 . S
C450 C449 1.382 . S
C450 H461 0.952 . S
C451 C448 1.388 . S
C451 C452 1.382 . S
C451 H476 0.950 . S
C452 N447 1.332 . S
C452 C451 1.382 . S
C452 H462 0.948 . S
N453 Co431 2.282 1_565 S
N453 C457 1.332 . S
N453 C458 1.332 . S
C454 C455 1.388 . S
C454 C458 1.382 . S
C454 H477 0.950 . S
C455 C454 1.388 . S
C455 C456 1.386 . S
C456 C455 1.386 . S
C456 C457 1.382 . S
C456 H478 0.950 . S
C457 N453 1.332 . S
C457 C456 1.382 . S
C457 H459 0.952 . S
C458 N453 1.332 . S
C458 C454 1.382 . S
C458 H460 0.948 . S
H459 C457 0.952 . S
H460 C458 0.948 . S
H461 C450 0.952 . S
H462 C452 0.948 . S
C463 C429 1.395 1_545 S
C463 C433 1.391 . S
C464 C426 1.389 . S
C464 C446 1.392 . S
C465 C436 1.392 . S
C465 C438 1.389 . S
C466 C441 1.395 . S
C466 C443 1.391 1_545 S
H467 C427 0.951 . S
H468 C428 0.950 . S
H469 C434 0.949 . S
H470 C435 0.950 . S
H471 C439 0.951 . S
H472 C440 0.950 . S
H473 C444 0.949 . S
H474 C445 0.950 . S
H475 C449 0.950 . S
H476 C451 0.950 . S
H477 C454 0.950 . S
H478 C456 0.950 . S
C479 C480 1.443 . S
C479 N483 1.376 . S
C479 C517 1.389 . S
C480 C479 1.443 . S
C480 C481 1.340 . S
C480 H520 0.951 . S
C481 C480 1.340 . S
C481 C482 1.439 . S
C481 H521 0.950 . S
C482 C481 1.439 . S
C482 N483 1.374 . S
C482 C516 1.395 . S
N483 C479 1.376 . S
N483 C482 1.374 . S
N483 Co484 2.008 . S
Co484 N483 2.008 . S
Co484 N485 2.018 . S
Co484 N490 2.004 1_554 S
Co484 N495 1.995 . S
Co484 N500 2.282 1_554 S
Co484 N506 2.282 . S
N485 Co484 2.018 . S
N485 C486 1.384 . S
N485 C489 1.344 1_554 S
C486 N485 1.384 . S
C486 C487 1.446 1_554 S
C486 C516 1.391 . S
C487 C486 1.446 1_556 S
C487 C488 1.339 . S
C487 H522 0.949 . S
C488 C487 1.339 . S
C488 C489 1.439 . S
C488 H523 0.950 . S
C489 N485 1.344 1_556 S
C489 C488 1.439 . S
C489 C518 1.392 . S
N490 Co484 2.004 1_556 S
N490 C491 1.382 . S
N490 C494 1.374 1_556 S
C491 N490 1.382 . S
C491 C492 1.443 . S
C491 C518 1.389 . S
C492 C491 1.443 . S
C492 C493 1.340 . S
C492 H524 0.951 . S
C493 C492 1.340 . S
C493 C494 1.402 1_556 S
C493 H525 0.950 . S
C494 N490 1.374 1_554 S
C494 C493 1.402 1_554 S
C494 C519 1.427 . S
N495 Co484 1.995 . S
N495 C496 1.376 . S
N495 C499 1.383 . S
C496 N495 1.376 . S
C496 C497 1.446 . S
C496 C519 1.391 . S
C497 C496 1.446 . S
C497 C498 1.339 . S
C497 H526 0.949 . S
C498 C497 1.339 . S
C498 C499 1.439 . S
C498 H527 0.950 . S
C499 N495 1.383 . S
C499 C498 1.439 . S
C499 C517 1.392 . S
N500 Co484 2.282 1_556 S
N500 C503 1.332 . S
N500 C505 1.332 . S
C501 C502 1.386 . S
C501 C504 1.388 . S
C502 C501 1.386 . S
C502 C503 1.382 . S
C502 H528 0.950 . S
C503 N500 1.332 . S
C503 C502 1.382 . S
C503 H514 0.952 . S
C504 C501 1.388 . S
C504 C505 1.382 . S
C504 H529 0.950 . S
C505 N500 1.332 . S
C505 C504 1.382 . S
C505 H515 0.948 . S
N506 Co484 2.282 . S
N506 C510 1.332 . S
N506 C511 1.332 . S
C507 C508 1.388 . S
C507 C511 1.382 . S
C507 H530 0.950 . S
C508 C507 1.388 . S
C508 C509 1.386 . S
C509 C508 1.386 . S
C509 C510 1.382 . S
C509 H531 0.950 . S
C510 N506 1.332 . S
C510 C509 1.382 . S
C510 H512 0.952 . S
C511 N506 1.332 . S
C511 C507 1.382 . S
C511 H513 0.948 . S
H512 C510 0.952 . S
H513 C511 0.948 . S
H514 C503 0.952 . S
H515 C505 0.948 . S
C516 C482 1.395 . S
C516 C486 1.391 . S
C517 C479 1.389 . S
C517 C499 1.392 . S
C518 C489 1.392 . S
C518 C491 1.389 . S
C519 C494 1.427 . S
C519 C496 1.391 . S
H520 C480 0.951 . S
H521 C481 0.950 . S
H522 C487 0.949 . S
H523 C488 0.950 . S
H524 C492 0.951 . S
H525 C493 0.950 . S
H526 C497 0.949 . S
H527 C498 0.950 . S
H528 C502 0.950 . S
H529 C504 0.950 . S
H530 C507 0.950 . S
H531 C509 0.950 . S
C532 C533 1.443 . S
C532 N536 1.376 1_565 S
C532 C570 1.389 . S
C533 C532 1.443 . S
C533 C534 1.340 . S
C533 H573 0.951 . S
C534 C533 1.340 . S
C534 C535 1.439 1_565 S
C534 H574 0.950 . S
C535 C534 1.439 1_545 S
C535 N536 1.374 . S
C535 C569 1.395 . S
N536 C532 1.376 1_545 S
N536 C535 1.374 . S
N536 Co537 2.008 . S
Co537 N536 2.008 . S
Co537 N538 1.995 . S
Co537 N543 2.008 . S
Co537 N548 1.995 . S
Co537 N553 2.282 . S
Co537 N559 2.282 1_545 S
N538 Co537 1.995 . S
N538 C539 1.376 . S
N538 C542 1.383 . S
C539 N538 1.376 . S
C539 C540 1.446 . S
C539 C569 1.391 . S
C540 C539 1.446 . S
C540 C541 1.339 . S
C540 H575 0.949 . S
C541 C540 1.339 . S
C541 C542 1.439 . S
C541 H576 0.950 . S
C542 N538 1.383 . S
C542 C541 1.439 . S
C542 C571 1.392 . S
N543 Co537 2.008 . S
N543 C544 1.376 . S
N543 C547 1.374 . S
C544 N543 1.376 . S
C544 C545 1.443 . S
C544 C571 1.389 . S
C545 C544 1.443 . S
C545 C546 1.340 . S
C545 H577 0.951 . S
C546 C545 1.340 . S
C546 C547 1.439 . S
C546 H578 0.950 . S
C547 N543 1.374 . S
C547 C546 1.439 . S
C547 C572 1.395 . S
N548 Co537 1.995 . S
N548 C549 1.376 . S
N548 C552 1.383 1_545 S
C549 N548 1.376 . S
C549 C550 1.446 1_545 S
C549 C572 1.391 . S
C550 C549 1.446 1_565 S
C550 C551 1.339 . S
C550 H579 0.949 . S
C551 C550 1.339 . S
C551 C552 1.439 . S
C551 H580 0.950 . S
C552 N548 1.383 1_565 S
C552 C551 1.439 . S
C552 C570 1.392 . S
N553 Co537 2.282 . S
N553 C556 1.332 . S
N553 C558 1.332 . S
C554 C555 1.386 . S
C554 C557 1.388 . S
C555 C554 1.386 . S
C555 C556 1.382 . S
C555 H581 0.950 . S
C556 N553 1.332 . S
C556 C555 1.382 . S
C556 H567 0.952 . S
C557 C554 1.388 . S
C557 C558 1.382 . S
C557 H582 0.950 . S
C558 N553 1.332 . S
C558 C557 1.382 . S
C558 H568 0.948 . S
N559 Co537 2.282 1_565 S
N559 C563 1.332 . S
N559 C564 1.332 . S
C560 C561 1.388 . S
C560 C564 1.382 . S
C560 H583 0.950 . S
C561 C560 1.388 . S
C561 C562 1.386 . S
C562 C561 1.386 . S
C562 C563 1.382 . S
C562 H584 0.950 . S
C563 N559 1.332 . S
C563 C562 1.382 . S
C563 H565 0.952 . S
C564 N559 1.332 . S
C564 C560 1.382 . S
C564 H566 0.948 . S
H565 C563 0.952 . S
H566 C564 0.948 . S
H567 C556 0.952 . S
H568 C558 0.948 . S
C569 C535 1.395 . S
C569 C539 1.391 . S
C570 C532 1.389 . S
C570 C552 1.392 . S
C571 C542 1.392 . S
C571 C544 1.389 . S
C572 C547 1.395 . S
C572 C549 1.391 . S
H573 C533 0.951 . S
H574 C534 0.950 . S
H575 C540 0.949 . S
H576 C541 0.950 . S
H577 C545 0.951 . S
H578 C546 0.950 . S
H579 C550 0.949 . S
H580 C551 0.950 . S
H581 C555 0.950 . S
H582 C557 0.950 . S
H583 C560 0.950 . S
H584 C562 0.950 . S
C585 C586 1.443 . S
C585 N589 1.376 . S
C585 C623 1.389 . S
C586 C585 1.443 . S
C586 C587 1.340 . S
C586 H626 0.951 . S
C587 C586 1.340 . S
C587 C588 1.439 . S
C587 H627 0.950 . S
C588 C587 1.439 . S
C588 N589 1.374 . S
C588 C622 1.395 . S
N589 C585 1.376 . S
N589 C588 1.374 . S
N589 Co590 2.008 . S
Co590 N589 2.008 . S
Co590 N591 1.995 . S
Co590 N596 2.008 . S
Co590 N601 1.995 . S
Co590 N606 2.315 . S
Co590 N612 2.282 . S
N591 Co590 1.995 . S
N591 C592 1.376 . S
N591 C595 1.383 1_554 S
C592 N591 1.376 . S
C592 C593 1.446 1_554 S
C592 C622 1.391 . S
C593 C592 1.446 1_556 S
C593 C594 1.339 . S
C593 H628 0.949 . S
C594 C593 1.339 . S
C594 C595 1.439 . S
C594 H629 0.950 . S
C595 N591 1.383 1_556 S
C595 C594 1.439 . S
C595 C624 1.392 . S
N596 Co590 2.008 . S
N596 C597 1.376 1_554 S
N596 C600 1.374 . S
C597 N596 1.376 1_556 S
C597 C598 1.443 . S
C597 C624 1.389 . S
C598 C597 1.443 . S
C598 C599 1.340 . S
C598 H630 0.951 . S
C599 C598 1.340 . S
C599 C600 1.439 1_556 S
C599 H631 0.950 . S
C600 N596 1.374 . S
C600 C599 1.439 1_554 S
C600 C625 1.395 . S
N601 Co590 1.995 . S
N601 C602 1.376 . S
N601 C605 1.383 . S
C602 N601 1.376 . S
C602 C603 1.446 . S
C602 C625 1.391 . S
C603 C602 1.446 . S
C603 C604 1.339 . S
C603 H632 0.949 . S
C604 C603 1.339 . S
C604 C605 1.439 . S
C604 H633 0.950 . S
C605 N601 1.383 . S
C605 C604 1.439 . S
C605 C623 1.392 . S
N606 Co590 2.315 . S
N606 C609 1.319 1_554 S
N606 C611 1.307 1_554 S
C607 C608 1.386 . S
C607 C610 1.388 . S
C608 C607 1.386 . S
C608 C609 1.382 . S
C608 H634 0.950 . S
C609 N606 1.319 1_556 S
C609 C608 1.382 . S
C609 H620 0.952 1_556 S
C610 C607 1.388 . S
C610 C611 1.382 . S
C610 H635 0.950 . S
C611 N606 1.307 1_556 S
C611 C610 1.382 . S
C611 H621 0.948 . S
N612 Co590 2.282 . S
N612 C616 1.332 . S
N612 C617 1.332 . S
C613 C614 1.388 . S
C613 C617 1.382 . S
C613 H636 0.950 . S
C614 C613 1.388 . S
C614 C615 1.386 . S
C615 C614 1.386 . S
C615 C616 1.382 . S
C615 H637 0.950 . S
C616 N612 1.332 . S
C616 C615 1.382 . S
C616 H618 0.952 . S
C617 N612 1.332 . S
C617 C613 1.382 . S
C617 H619 0.948 . S
H618 C616 0.952 . S
H619 C617 0.948 . S
H620 C609 0.952 1_554 S
H621 C611 0.948 . S
C622 C588 1.395 . S
C622 C592 1.391 . S
C623 C585 1.389 . S
C623 C605 1.392 . S
C624 C595 1.392 . S
C624 C597 1.389 . S
C625 C600 1.395 . S
C625 C602 1.391 . S
H626 C586 0.951 . S
H627 C587 0.950 . S
H628 C593 0.949 . S
H629 C594 0.950 . S
H630 C598 0.951 . S
H631 C599 0.950 . S
H632 C603 0.949 . S
H633 C604 0.950 . S
H634 C608 0.950 . S
H635 C610 0.950 . S
H636 C613 0.950 . S
H637 C615 0.950 . S
H638 C656 0.951 . S
H639 C658 0.951 . S
H640 C660 0.950 . S
H641 C661 0.950 . S
H642 C663 0.950 . S
H643 C666 0.950 . S
H644 C667 0.950 . S
H645 C669 0.950 . S
H646 C670 0.950 . S
H647 C671 0.951 . S
H648 C673 0.951 . S
H649 C675 0.950 . S
H650 C676 0.950 . S
H651 C678 0.950 . S
H652 C681 0.950 . S
H653 C682 0.950 . S
H654 C684 0.950 . S
H655 C685 0.950 . S
C656 H638 0.951 . S
C656 C657 1.366 . S
C656 C658 1.388 . S
C657 C656 1.366 . S
C657 C661 1.385 . S
C658 H639 0.951 . S
C658 C656 1.388 . S
C658 C659 1.366 . S
C659 C658 1.366 . S
C659 C660 1.414 . S
C659 C662 1.499 . S
C660 H640 0.950 . S
C660 C659 1.414 . S
C660 C661 1.374 . S
C661 H641 0.950 . S
C661 C657 1.385 . S
C661 C660 1.374 . S
C662 C659 1.499 . S
C662 C663 1.373 . S
C662 C664 1.389 . S
C663 H642 0.950 . S
C663 C662 1.373 . S
C663 C679 1.377 . S
C664 C662 1.389 . S
C664 C665 1.524 . S
C664 C678 1.377 . S
C665 C664 1.524 . S
C665 C666 1.397 . S
C665 C670 1.363 . S
C666 H643 0.950 . S
C666 C665 1.397 . S
C666 C667 1.334 . S
C667 H644 0.950 . S
C667 C666 1.334 . S
C667 C668 1.287 . S
C668 C667 1.287 . S
C668 C669 1.524 . S
C668 H687 0.913 . S
C669 H645 0.950 . S
C669 C668 1.524 . S
C669 C670 1.415 . S
C670 H646 0.950 . S
C670 C665 1.363 . S
C670 C669 1.415 . S
C671 H647 0.951 . S
C671 C672 1.366 . S
C671 C673 1.388 . S
C672 C671 1.366 . S
C672 C676 1.385 . S
C673 H648 0.951 . S
C673 C671 1.388 . S
C673 C674 1.366 . S
C674 C673 1.366 . S
C674 C675 1.414 . S
C674 C677 1.499 . S
C675 H649 0.950 . S
C675 C674 1.414 . S
C675 C676 1.374 . S
C676 H650 0.950 . S
C676 C672 1.385 . S
C676 C675 1.374 . S
C677 C674 1.499 . S
C677 C678 1.373 . S
C677 C679 1.389 . S
C678 H651 0.950 . S
C678 C664 1.377 . S
C678 C677 1.373 . S
C679 C663 1.377 . S
C679 C677 1.389 . S
C679 C680 1.524 . S
C680 C679 1.524 . S
C680 C681 1.397 . S
C680 C685 1.363 . S
C681 H652 0.950 . S
C681 C680 1.397 . S
C681 C682 1.334 . S
C682 H653 0.950 . S
C682 C681 1.334 . S
C682 C683 1.287 . S
C683 C682 1.287 . S
C683 C684 1.524 . S
C683 H686 0.999 . S
C684 H654 0.950 . S
C684 C683 1.524 . S
C684 C685 1.415 . S
C685 H655 0.950 . S
C685 C680 1.363 . S
C685 C684 1.415 . S
H686 C683 0.999 . S
H687 C668 0.913 . S
H688 C706 0.951 . S
H689 C708 0.951 . S
H690 C710 0.950 . S
H691 C711 0.950 . S
H692 C713 0.950 . S
H693 C716 0.950 . S
H694 C717 0.950 . S
H695 C719 0.950 . S
H696 C720 0.950 . S
H697 C721 0.951 . S
H698 C723 0.951 . S
H699 C725 0.950 . S
H700 C726 0.950 . S
H701 C728 0.950 . S
H702 C731 0.950 . S
H703 C732 0.950 . S
H704 C734 0.950 . S
H705 C735 0.950 . S
C706 H688 0.951 . S
C706 C707 1.366 . S
C706 C708 1.388 . S
C707 C706 1.366 . S
C707 C711 1.385 . S
C708 H689 0.951 . S
C708 C706 1.388 . S
C708 C709 1.366 . S
C709 C708 1.366 . S
C709 C710 1.414 . S
C709 C712 1.499 . S
C710 H690 0.950 . S
C710 C709 1.414 . S
C710 C711 1.374 . S
C711 H691 0.950 . S
C711 C707 1.385 . S
C711 C710 1.374 . S
C712 C709 1.499 . S
C712 C713 1.373 . S
C712 C714 1.389 . S
C713 H692 0.950 . S
C713 C712 1.373 . S
C713 C729 1.377 . S
C714 C712 1.389 . S
C714 C715 1.524 . S
C714 C728 1.377 . S
C715 C714 1.524 . S
C715 C716 1.397 . S
C715 C720 1.363 . S
C716 H693 0.950 . S
C716 C715 1.397 . S
C716 C717 1.334 . S
C717 H694 0.950 . S
C717 C716 1.334 . S
C717 C718 1.287 . S
C718 C717 1.287 . S
C718 C719 1.524 . S
C718 H737 0.913 . S
C719 H695 0.950 . S
C719 C718 1.524 . S
C719 C720 1.415 . S
C720 H696 0.950 . S
C720 C715 1.363 . S
C720 C719 1.415 . S
C721 H697 0.951 . S
C721 C722 1.366 . S
C721 C723 1.388 . S
C722 C721 1.366 . S
C722 C726 1.385 . S
C723 H698 0.951 . S
C723 C721 1.388 . S
C723 C724 1.366 . S
C724 C723 1.366 . S
C724 C725 1.414 . S
C724 C727 1.499 . S
C725 H699 0.950 . S
C725 C724 1.414 . S
C725 C726 1.374 . S
C726 H700 0.950 . S
C726 C722 1.385 . S
C726 C725 1.374 . S
C727 C724 1.499 . S
C727 C728 1.373 . S
C727 C729 1.389 . S
C728 H701 0.950 . S
C728 C714 1.377 . S
C728 C727 1.373 . S
C729 C713 1.377 . S
C729 C727 1.389 . S
C729 C730 1.524 . S
C730 C729 1.524 . S
C730 C731 1.397 . S
C730 C735 1.363 . S
C731 H702 0.950 . S
C731 C730 1.397 . S
C731 C732 1.334 . S
C732 H703 0.950 . S
C732 C731 1.334 . S
C732 C733 1.287 . S
C733 C732 1.287 . S
C733 C734 1.524 . S
C733 H736 0.999 . S
C734 H704 0.950 . S
C734 C733 1.524 . S
C734 C735 1.415 . S
C735 H705 0.950 . S
C735 C730 1.363 . S
C735 C734 1.415 . S
H736 C733 0.999 . S
H737 C718 0.913 . S
H738 C756 0.951 . S
H739 C758 0.951 . S
H740 C760 0.950 . S
H741 C761 0.950 . S
H742 C763 0.950 . S
H743 C766 0.950 . S
H744 C767 0.950 . S
H745 C769 0.950 . S
H746 C770 0.950 . S
H747 C771 0.951 . S
H748 C773 0.951 . S
H749 C775 0.950 . S
H750 C776 0.950 . S
H751 C778 0.950 . S
H752 C781 0.950 . S
H753 C782 0.950 . S
H754 C784 0.950 . S
H755 C785 0.950 . S
C756 H738 0.951 . S
C756 C757 1.366 . S
C756 C758 1.388 . S
C757 C756 1.366 . S
C757 C761 1.385 . S
C758 H739 0.951 . S
C758 C756 1.388 . S
C758 C759 1.366 . S
C759 C758 1.366 . S
C759 C760 1.414 . S
C759 C762 1.499 . S
C760 H740 0.950 . S
C760 C759 1.414 . S
C760 C761 1.374 . S
C761 H741 0.950 . S
C761 C757 1.385 . S
C761 C760 1.374 . S
C762 C759 1.499 . S
C762 C763 1.373 . S
C762 C764 1.389 . S
C763 H742 0.950 . S
C763 C762 1.373 . S
C763 C779 1.377 . S
C764 C762 1.389 . S
C764 C765 1.524 . S
C764 C778 1.377 . S
C765 C764 1.524 . S
C765 C766 1.397 . S
C765 C770 1.363 . S
C766 H743 0.950 . S
C766 C765 1.397 . S
C766 C767 1.334 . S
C767 H744 0.950 . S
C767 C766 1.334 . S
C767 C768 1.287 . S
C768 C767 1.287 . S
C768 C769 1.524 . S
C768 H787 0.913 . S
C769 H745 0.950 . S
C769 C768 1.524 . S
C769 C770 1.415 . S
C770 H746 0.950 . S
C770 C765 1.363 . S
C770 C769 1.415 . S
C771 H747 0.951 . S
C771 C772 1.366 . S
C771 C773 1.388 . S
C772 C771 1.366 . S
C772 C776 1.385 . S
C773 H748 0.951 . S
C773 C771 1.388 . S
C773 C774 1.366 . S
C774 C773 1.366 . S
C774 C775 1.414 . S
C774 C777 1.499 . S
C775 H749 0.950 . S
C775 C774 1.414 . S
C775 C776 1.374 . S
C776 H750 0.950 . S
C776 C772 1.385 . S
C776 C775 1.374 . S
C777 C774 1.499 . S
C777 C778 1.373 . S
C777 C779 1.389 . S
C778 H751 0.950 . S
C778 C764 1.377 . S
C778 C777 1.373 . S
C779 C763 1.377 . S
C779 C777 1.389 . S
C779 C780 1.524 . S
C780 C779 1.524 . S
C780 C781 1.397 . S
C780 C785 1.363 . S
C781 H752 0.950 . S
C781 C780 1.397 . S
C781 C782 1.334 . S
C782 H753 0.950 . S
C782 C781 1.334 . S
C782 C783 1.287 . S
C783 C782 1.287 . S
C783 C784 1.524 . S
C783 H786 0.999 . S
C784 H754 0.950 . S
C784 C783 1.524 . S
C784 C785 1.415 . S
C785 H755 0.950 . S
C785 C780 1.363 . S
C785 C784 1.415 . S
H786 C783 0.999 . S
H787 C768 0.913 . S
H788 C806 0.951 . S
H789 C808 0.951 . S
H790 C810 0.950 . S
H791 C811 0.950 . S
H792 C813 0.950 . S
H793 C816 0.950 . S
H794 C817 0.950 . S
H795 C819 0.950 . S
H796 C820 0.950 . S
H797 C821 0.951 . S
H798 C823 0.951 . S
H799 C825 0.950 . S
H800 C826 0.950 . S
H801 C828 0.950 . S
H802 C831 0.950 . S
H803 C832 0.950 . S
H804 C834 0.950 . S
H805 C835 0.950 . S
C806 H788 0.951 . S
C806 C807 1.366 . S
C806 C808 1.388 . S
C807 C806 1.366 . S
C807 C811 1.385 . S
C808 H789 0.951 . S
C808 C806 1.388 . S
C808 C809 1.366 . S
C809 C808 1.366 . S
C809 C810 1.414 . S
C809 C812 1.499 . S
C810 H790 0.950 . S
C810 C809 1.414 . S
C810 C811 1.374 . S
C811 H791 0.950 . S
C811 C807 1.385 . S
C811 C810 1.374 . S
C812 C809 1.499 . S
C812 C813 1.373 . S
C812 C814 1.389 . S
C813 H792 0.950 . S
C813 C812 1.373 . S
C813 C829 1.377 . S
C814 C812 1.389 . S
C814 C815 1.524 . S
C814 C828 1.377 . S
C815 C814 1.524 . S
C815 C816 1.397 . S
C815 C820 1.363 . S
C816 H793 0.950 . S
C816 C815 1.397 . S
C816 C817 1.334 . S
C817 H794 0.950 . S
C817 C816 1.334 . S
C817 C818 1.287 . S
C818 C817 1.287 . S
C818 C819 1.524 . S
C818 H837 0.913 . S
C819 H795 0.950 . S
C819 C818 1.524 . S
C819 C820 1.415 . S
C820 H796 0.950 . S
C820 C815 1.363 . S
C820 C819 1.415 . S
C821 H797 0.951 . S
C821 C822 1.366 . S
C821 C823 1.388 . S
C822 C821 1.366 . S
C822 C826 1.385 . S
C823 H798 0.951 . S
C823 C821 1.388 . S
C823 C824 1.366 . S
C824 C823 1.366 . S
C824 C825 1.414 . S
C824 C827 1.499 . S
C825 H799 0.950 . S
C825 C824 1.414 . S
C825 C826 1.374 . S
C826 H800 0.950 . S
C826 C822 1.385 . S
C826 C825 1.374 . S
C827 C824 1.499 . S
C827 C828 1.373 . S
C827 C829 1.389 . S
C828 H801 0.950 . S
C828 C814 1.377 . S
C828 C827 1.373 . S
C829 C813 1.377 . S
C829 C827 1.389 . S
C829 C830 1.524 . S
C830 C829 1.524 . S
C830 C831 1.397 . S
C830 C835 1.363 . S
C831 H802 0.950 . S
C831 C830 1.397 . S
C831 C832 1.334 . S
C832 H803 0.950 . S
C832 C831 1.334 . S
C832 C833 1.287 . S
C833 C832 1.287 . S
C833 C834 1.524 . S
C833 H836 0.999 . S
C834 H804 0.950 . S
C834 C833 1.524 . S
C834 C835 1.415 . S
C835 H805 0.950 . S
C835 C830 1.363 . S
C835 C834 1.415 . S
H836 C833 0.999 . S
H837 C818 0.913 . S
H838 C856 0.951 . S
H839 C858 0.951 . S
H840 C860 0.950 . S
H841 C861 0.950 . S
H842 C863 0.950 . S
H843 C866 0.950 . S
H844 C867 0.950 . S
H845 C869 0.950 . S
H846 C870 0.950 . S
H847 C871 0.951 . S
H848 C873 0.951 . S
H849 C875 0.950 . S
H850 C876 0.950 . S
H851 C878 0.950 . S
H852 C881 0.950 . S
H853 C882 0.950 . S
H854 C884 0.950 . S
H855 C885 0.950 . S
C856 H838 0.951 . S
C856 C857 1.366 . S
C856 C858 1.388 . S
C857 C856 1.366 . S
C857 C861 1.385 . S
C858 H839 0.951 . S
C858 C856 1.388 . S
C858 C859 1.366 . S
C859 C858 1.366 . S
C859 C860 1.414 . S
C859 C862 1.499 . S
C860 H840 0.950 . S
C860 C859 1.414 . S
C860 C861 1.374 . S
C861 H841 0.950 . S
C861 C857 1.385 . S
C861 C860 1.374 . S
C862 C859 1.499 . S
C862 C863 1.373 . S
C862 C864 1.389 . S
C863 H842 0.950 . S
C863 C862 1.373 . S
C863 C879 1.377 . S
C864 C862 1.389 . S
C864 C865 1.524 . S
C864 C878 1.377 . S
C865 C864 1.524 . S
C865 C866 1.397 . S
C865 C870 1.363 . S
C866 H843 0.950 . S
C866 C865 1.397 . S
C866 C867 1.334 . S
C867 H844 0.950 . S
C867 C866 1.334 . S
C867 C868 1.287 . S
C868 C867 1.287 . S
C868 C869 1.524 . S
C868 H887 0.913 . S
C869 H845 0.950 . S
C869 C868 1.524 . S
C869 C870 1.415 . S
C870 H846 0.950 . S
C870 C865 1.363 . S
C870 C869 1.415 . S
C871 H847 0.951 . S
C871 C872 1.366 . S
C871 C873 1.388 . S
C872 C871 1.366 . S
C872 C876 1.385 . S
C873 H848 0.951 . S
C873 C871 1.388 . S
C873 C874 1.366 . S
C874 C873 1.366 . S
C874 C875 1.414 . S
C874 C877 1.499 . S
C875 H849 0.950 . S
C875 C874 1.414 . S
C875 C876 1.374 . S
C876 H850 0.950 . S
C876 C872 1.385 . S
C876 C875 1.374 . S
C877 C874 1.499 . S
C877 C878 1.373 . S
C877 C879 1.389 . S
C878 H851 0.950 . S
C878 C864 1.377 . S
C878 C877 1.373 . S
C879 C863 1.377 . S
C879 C877 1.389 . S
C879 C880 1.524 . S
C880 C879 1.524 . S
C880 C881 1.397 . S
C880 C885 1.363 . S
C881 H852 0.950 . S
C881 C880 1.397 . S
C881 C882 1.334 . S
C882 H853 0.950 . S
C882 C881 1.334 . S
C882 C883 1.287 . S
C883 C882 1.287 . S
C883 C884 1.524 . S
C883 H886 0.999 . S
C884 H854 0.950 . S
C884 C883 1.524 . S
C884 C885 1.415 . S
C885 H855 0.950 . S
C885 C880 1.363 . S
C885 C884 1.415 . S
H886 C883 0.999 . S
H887 C868 0.913 . S
H888 C906 0.951 . S
H889 C908 0.951 . S
H890 C910 0.950 . S
H891 C911 0.950 . S
H892 C913 0.950 . S
H893 C916 0.950 . S
H894 C917 0.950 . S
H895 C919 0.950 . S
H896 C920 0.950 . S
H897 C921 0.951 . S
H898 C923 0.951 . S
H899 C925 0.950 . S
H900 C926 0.950 . S
H901 C928 0.950 . S
H902 C931 0.950 . S
H903 C932 0.950 . S
H904 C934 0.950 . S
H905 C935 0.950 . S
C906 H888 0.951 . S
C906 C907 1.366 . S
C906 C908 1.388 . S
C907 C906 1.366 . S
C907 C911 1.385 . S
C908 H889 0.951 . S
C908 C906 1.388 . S
C908 C909 1.366 . S
C909 C908 1.366 . S
C909 C910 1.414 . S
C909 C912 1.499 . S
C910 H890 0.950 . S
C910 C909 1.414 . S
C910 C911 1.374 . S
C911 H891 0.950 . S
C911 C907 1.385 . S
C911 C910 1.374 . S
C912 C909 1.499 . S
C912 C913 1.373 . S
C912 C914 1.389 . S
C913 H892 0.950 . S
C913 C912 1.373 . S
C913 C929 1.377 . S
C914 C912 1.389 . S
C914 C915 1.524 . S
C914 C928 1.377 . S
C915 C914 1.524 . S
C915 C916 1.397 . S
C915 C920 1.363 . S
C916 H893 0.950 . S
C916 C915 1.397 . S
C916 C917 1.334 . S
C917 H894 0.950 . S
C917 C916 1.334 . S
C917 C918 1.287 . S
C918 C917 1.287 . S
C918 C919 1.524 . S
C918 H937 0.913 . S
C919 H895 0.950 . S
C919 C918 1.524 . S
C919 C920 1.415 . S
C920 H896 0.950 . S
C920 C915 1.363 . S
C920 C919 1.415 . S
C921 H897 0.951 . S
C921 C922 1.366 . S
C921 C923 1.388 . S
C922 C921 1.366 . S
C922 C926 1.385 . S
C923 H898 0.951 . S
C923 C921 1.388 . S
C923 C924 1.366 . S
C924 C923 1.366 . S
C924 C925 1.414 . S
C924 C927 1.499 . S
C925 H899 0.950 . S
C925 C924 1.414 . S
C925 C926 1.374 . S
C926 H900 0.950 . S
C926 C922 1.385 . S
C926 C925 1.374 . S
C927 C924 1.499 . S
C927 C928 1.373 . S
C927 C929 1.389 . S
C928 H901 0.950 . S
C928 C914 1.377 . S
C928 C927 1.373 . S
C929 C913 1.377 . S
C929 C927 1.389 . S
C929 C930 1.524 . S
C930 C929 1.524 . S
C930 C931 1.397 . S
C930 C935 1.363 . S
C931 H902 0.950 . S
C931 C930 1.397 . S
C931 C932 1.334 . S
C932 H903 0.950 . S
C932 C931 1.334 . S
C932 C933 1.287 . S
C933 C932 1.287 . S
C933 C934 1.524 . S
C933 H936 0.999 . S
C934 H904 0.950 . S
C934 C933 1.524 . S
C934 C935 1.415 . S
C935 H905 0.950 . S
C935 C930 1.363 . S
C935 C934 1.415 . S
H936 C933 0.999 . S
H937 C918 0.913 . S
H938 C956 0.951 . S
H939 C958 0.951 . S
H940 C960 0.950 . S
H941 C961 0.950 . S
H942 C963 0.950 . S
H943 C966 0.950 . S
H944 C967 0.950 . S
H945 C969 0.950 . S
H946 C970 0.950 . S
H947 C971 0.951 . S
H948 C973 0.951 . S
H949 C975 0.950 . S
H950 C976 0.950 . S
H951 C978 0.950 . S
H952 C981 0.950 . S
H953 C982 0.950 . S
H954 C984 0.950 . S
H955 C985 0.950 . S
C956 H938 0.951 . S
C956 C957 1.366 . S
C956 C958 1.388 . S
C957 C956 1.366 . S
C957 C961 1.385 . S
C958 H939 0.951 . S
C958 C956 1.388 . S
C958 C959 1.366 . S
C959 C958 1.366 . S
C959 C960 1.414 . S
C959 C962 1.499 . S
C960 H940 0.950 . S
C960 C959 1.414 . S
C960 C961 1.374 . S
C961 H941 0.950 . S
C961 C957 1.385 . S
C961 C960 1.374 . S
C962 C959 1.499 . S
C962 C963 1.373 . S
C962 C964 1.389 . S
C963 H942 0.950 . S
C963 C962 1.373 . S
C963 C979 1.377 . S
C964 C962 1.389 . S
C964 C965 1.524 . S
C964 C978 1.377 . S
C965 C964 1.524 . S
C965 C966 1.397 . S
C965 C970 1.363 . S
C966 H943 0.950 . S
C966 C965 1.397 . S
C966 C967 1.334 . S
C967 H944 0.950 . S
C967 C966 1.334 . S
C967 C968 1.287 . S
C968 C967 1.287 . S
C968 C969 1.524 . S
C968 H987 0.913 . S
C969 H945 0.950 . S
C969 C968 1.524 . S
C969 C970 1.415 . S
C970 H946 0.950 . S
C970 C965 1.363 . S
C970 C969 1.415 . S
C971 H947 0.951 . S
C971 C972 1.366 . S
C971 C973 1.388 . S
C972 C971 1.366 . S
C972 C976 1.385 . S
C973 H948 0.951 . S
C973 C971 1.388 . S
C973 C974 1.366 . S
C974 C973 1.366 . S
C974 C975 1.414 . S
C974 C977 1.499 . S
C975 H949 0.950 . S
C975 C974 1.414 . S
C975 C976 1.374 . S
C976 H950 0.950 . S
C976 C972 1.385 . S
C976 C975 1.374 . S
C977 C974 1.499 . S
C977 C978 1.373 . S
C977 C979 1.389 . S
C978 H951 0.950 . S
C978 C964 1.377 . S
C978 C977 1.373 . S
C979 C963 1.377 . S
C979 C977 1.389 . S
C979 C980 1.524 . S
C980 C979 1.524 . S
C980 C981 1.397 . S
C980 C985 1.363 . S
C981 H952 0.950 . S
C981 C980 1.397 . S
C981 C982 1.334 . S
C982 H953 0.950 . S
C982 C981 1.334 . S
C982 C983 1.287 . S
C983 C982 1.287 . S
C983 C984 1.524 . S
C983 H986 0.999 . S
C984 H954 0.950 . S
C984 C983 1.524 . S
C984 C985 1.415 . S
C985 H955 0.950 . S
C985 C980 1.363 . S
C985 C984 1.415 . S
H986 C983 0.999 . S
H987 C968 0.913 . S
H988 C1006 0.951 . S
H989 C1008 0.951 . S
H990 C1010 0.950 . S
H991 C1011 0.950 . S
H992 C1013 0.950 . S
H993 C1016 0.950 . S
H994 C1017 0.950 . S
H995 C1019 0.950 . S
H996 C1020 0.950 . S
H997 C1021 0.951 . S
H998 C1023 0.951 . S
H999 C1025 0.950 . S
H1000 C1026 0.950 . S
H1001 C1028 0.950 . S
H1002 C1031 0.950 . S
H1003 C1032 0.950 . S
H1004 C1034 0.950 . S
H1005 C1035 0.950 . S
C1006 H988 0.951 . S
C1006 C1007 1.366 . S
C1006 C1008 1.388 . S
C1007 C1006 1.366 . S
C1007 C1011 1.385 . S
C1008 H989 0.951 . S
C1008 C1006 1.388 . S
C1008 C1009 1.366 . S
C1009 C1008 1.366 . S
C1009 C1010 1.414 . S
C1009 C1012 1.499 . S
C1010 H990 0.950 . S
C1010 C1009 1.414 . S
C1010 C1011 1.374 . S
C1011 H991 0.950 . S
C1011 C1007 1.385 . S
C1011 C1010 1.374 . S
C1012 C1009 1.499 . S
C1012 C1013 1.373 . S
C1012 C1014 1.389 . S
C1013 H992 0.950 . S
C1013 C1012 1.373 . S
C1013 C1029 1.377 . S
C1014 C1012 1.389 . S
C1014 C1015 1.524 . S
C1014 C1028 1.377 . S
C1015 C1014 1.524 . S
C1015 C1016 1.397 . S
C1015 C1020 1.363 . S
C1016 H993 0.950 . S
C1016 C1015 1.397 . S
C1016 C1017 1.334 . S
C1017 H994 0.950 . S
C1017 C1016 1.334 . S
C1017 C1018 1.287 . S
C1018 C1017 1.287 . S
C1018 C1019 1.524 . S
C1018 H1037 0.913 . S
C1019 H995 0.950 . S
C1019 C1018 1.524 . S
C1019 C1020 1.415 . S
C1020 H996 0.950 . S
C1020 C1015 1.363 . S
C1020 C1019 1.415 . S
C1021 H997 0.951 . S
C1021 C1022 1.366 . S
C1021 C1023 1.388 . S
C1022 C1021 1.366 . S
C1022 C1026 1.385 . S
C1023 H998 0.951 . S
C1023 C1021 1.388 . S
C1023 C1024 1.366 . S
C1024 C1023 1.366 . S
C1024 C1025 1.414 . S
C1024 C1027 1.499 . S
C1025 H999 0.950 . S
C1025 C1024 1.414 . S
C1025 C1026 1.374 . S
C1026 H1000 0.950 . S
C1026 C1022 1.385 . S
C1026 C1025 1.374 . S
C1027 C1024 1.499 . S
C1027 C1028 1.373 . S
C1027 C1029 1.389 . S
C1028 H1001 0.950 . S
C1028 C1014 1.377 . S
C1028 C1027 1.373 . S
C1029 C1013 1.377 . S
C1029 C1027 1.389 . S
C1029 C1030 1.524 . S
C1030 C1029 1.524 . S
C1030 C1031 1.397 . S
C1030 C1035 1.363 . S
C1031 H1002 0.950 . S
C1031 C1030 1.397 . S
C1031 C1032 1.334 . S
C1032 H1003 0.950 . S
C1032 C1031 1.334 . S
C1032 C1033 1.287 . S
C1033 C1032 1.287 . S
C1033 C1034 1.524 . S
C1033 H1036 0.999 . S
C1034 H1004 0.950 . S
C1034 C1033 1.524 . S
C1034 C1035 1.415 . S
C1035 H1005 0.950 . S
C1035 C1030 1.363 . S
C1035 C1034 1.415 . S
H1036 C1033 0.999 . S
H1037 C1018 0.913 . S
H1038 C1056 0.951 . S
H1039 C1058 0.951 . S
H1040 C1060 0.950 . S
H1041 C1061 0.950 . S
H1042 C1063 0.950 . S
H1043 C1066 0.950 . S
H1044 C1067 0.950 . S
H1045 C1069 0.950 . S
H1046 C1070 0.950 . S
H1047 C1071 0.951 . S
H1048 C1073 0.951 . S
H1049 C1075 0.950 . S
H1050 C1076 0.950 . S
H1051 C1078 0.950 . S
H1052 C1081 0.950 . S
H1053 C1082 0.950 . S
H1054 C1084 0.950 . S
H1055 C1085 0.950 . S
C1056 H1038 0.951 . S
C1056 C1057 1.366 . S
C1056 C1058 1.388 . S
C1057 C1056 1.366 . S
C1057 C1061 1.385 . S
C1058 H1039 0.951 . S
C1058 C1056 1.388 . S
C1058 C1059 1.366 . S
C1059 C1058 1.366 . S
C1059 C1060 1.414 . S
C1059 C1062 1.499 . S
C1060 H1040 0.950 . S
C1060 C1059 1.414 . S
C1060 C1061 1.374 . S
C1061 H1041 0.950 . S
C1061 C1057 1.385 . S
C1061 C1060 1.374 . S
C1062 C1059 1.499 . S
C1062 C1063 1.373 . S
C1062 C1064 1.389 . S
C1063 H1042 0.950 . S
C1063 C1062 1.373 . S
C1063 C1079 1.377 . S
C1064 C1062 1.389 . S
C1064 C1065 1.524 . S
C1064 C1078 1.377 . S
C1065 C1064 1.524 . S
C1065 C1066 1.397 . S
C1065 C1070 1.363 . S
C1066 H1043 0.950 . S
C1066 C1065 1.397 . S
C1066 C1067 1.334 . S
C1067 H1044 0.950 . S
C1067 C1066 1.334 . S
C1067 C1068 1.287 . S
C1068 C1067 1.287 . S
C1068 C1069 1.524 . S
C1068 H1087 0.913 . S
C1069 H1045 0.950 . S
C1069 C1068 1.524 . S
C1069 C1070 1.415 . S
C1070 H1046 0.950 . S
C1070 C1065 1.363 . S
C1070 C1069 1.415 . S
C1071 H1047 0.951 . S
C1071 C1072 1.366 . S
C1071 C1073 1.388 . S
C1072 C1071 1.366 . S
C1072 C1076 1.385 . S
C1073 H1048 0.951 . S
C1073 C1071 1.388 . S
C1073 C1074 1.366 . S
C1074 C1073 1.366 . S
C1074 C1075 1.414 . S
C1074 C1077 1.499 . S
C1075 H1049 0.950 . S
C1075 C1074 1.414 . S
C1075 C1076 1.374 . S
C1076 H1050 0.950 . S
C1076 C1072 1.385 . S
C1076 C1075 1.374 . S
C1077 C1074 1.499 . S
C1077 C1078 1.373 . S
C1077 C1079 1.389 . S
C1078 H1051 0.950 . S
C1078 C1064 1.377 . S
C1078 C1077 1.373 . S
C1079 C1063 1.377 . S
C1079 C1077 1.389 . S
C1079 C1080 1.524 . S
C1080 C1079 1.524 . S
C1080 C1081 1.397 . S
C1080 C1085 1.363 . S
C1081 H1052 0.950 . S
C1081 C1080 1.397 . S
C1081 C1082 1.334 . S
C1082 H1053 0.950 . S
C1082 C1081 1.334 . S
C1082 C1083 1.287 . S
C1083 C1082 1.287 . S
C1083 C1084 1.524 . S
C1083 H1086 0.999 . S
C1084 H1054 0.950 . S
C1084 C1083 1.524 . S
C1084 C1085 1.415 . S
C1085 H1055 0.950 . S
C1085 C1080 1.363 . S
C1085 C1084 1.415 . S
H1086 C1083 0.999 . S
H1087 C1068 0.913 . S
H1088 C1106 0.951 . S
H1089 C1108 0.951 . S
H1090 C1110 0.950 . S
H1091 C1111 0.950 . S
H1092 C1113 0.950 . S
H1093 C1116 0.950 . S
H1094 C1117 0.950 . S
H1095 C1119 0.950 . S
H1096 C1120 0.950 . S
H1097 C1121 0.951 . S
H1098 C1123 0.951 . S
H1099 C1125 0.950 . S
H1100 C1126 0.950 . S
H1101 C1128 0.950 . S
H1102 C1131 0.950 . S
H1103 C1132 0.950 . S
H1104 C1134 0.950 . S
H1105 C1135 0.950 . S
C1106 H1088 0.951 . S
C1106 C1107 1.366 . S
C1106 C1108 1.388 . S
C1107 C1106 1.366 . S
C1107 C1111 1.385 . S
C1108 H1089 0.951 . S
C1108 C1106 1.388 . S
C1108 C1109 1.366 . S
C1109 C1108 1.366 . S
C1109 C1110 1.414 . S
C1109 C1112 1.499 . S
C1110 H1090 0.950 . S
C1110 C1109 1.414 . S
C1110 C1111 1.374 . S
C1111 H1091 0.950 . S
C1111 C1107 1.385 . S
C1111 C1110 1.374 . S
C1112 C1109 1.499 . S
C1112 C1113 1.373 . S
C1112 C1114 1.389 . S
C1113 H1092 0.950 . S
C1113 C1112 1.373 . S
C1113 C1129 1.377 . S
C1114 C1112 1.389 . S
C1114 C1115 1.524 . S
C1114 C1128 1.377 . S
C1115 C1114 1.524 . S
C1115 C1116 1.397 . S
C1115 C1120 1.363 . S
C1116 H1093 0.950 . S
C1116 C1115 1.397 . S
C1116 C1117 1.334 . S
C1117 H1094 0.950 . S
C1117 C1116 1.334 . S
C1117 C1118 1.287 . S
C1118 C1117 1.287 . S
C1118 C1119 1.524 . S
C1118 H1137 0.913 . S
C1119 H1095 0.950 . S
C1119 C1118 1.524 . S
C1119 C1120 1.415 . S
C1120 H1096 0.950 . S
C1120 C1115 1.363 . S
C1120 C1119 1.415 . S
C1121 H1097 0.951 . S
C1121 C1122 1.366 . S
C1121 C1123 1.388 . S
C1122 C1121 1.366 . S
C1122 C1126 1.385 . S
C1123 H1098 0.951 . S
C1123 C1121 1.388 . S
C1123 C1124 1.366 . S
C1124 C1123 1.366 . S
C1124 C1125 1.414 . S
C1124 C1127 1.499 . S
C1125 H1099 0.950 . S
C1125 C1124 1.414 . S
C1125 C1126 1.374 . S
C1126 H1100 0.950 . S
C1126 C1122 1.385 . S
C1126 C1125 1.374 . S
C1127 C1124 1.499 . S
C1127 C1128 1.373 . S
C1127 C1129 1.389 . S
C1128 H1101 0.950 . S
C1128 C1114 1.377 . S
C1128 C1127 1.373 . S
C1129 C1113 1.377 . S
C1129 C1127 1.389 . S
C1129 C1130 1.524 . S
C1130 C1129 1.524 . S
C1130 C1131 1.397 . S
C1130 C1135 1.363 . S
C1131 H1102 0.950 . S
C1131 C1130 1.397 . S
C1131 C1132 1.334 . S
C1132 H1103 0.950 . S
C1132 C1131 1.334 . S
C1132 C1133 1.287 . S
C1133 C1132 1.287 . S
C1133 C1134 1.524 . S
C1133 H1136 0.999 . S
C1134 H1104 0.950 . S
C1134 C1133 1.524 . S
C1134 C1135 1.415 . S
C1135 H1105 0.950 . S
C1135 C1130 1.363 . S
C1135 C1134 1.415 . S
H1136 C1133 0.999 . S
H1137 C1118 0.913 . S
H1138 C1156 0.951 . S
H1139 C1158 0.951 . S
H1140 C1160 0.950 . S
H1141 C1161 0.950 . S
H1142 C1163 0.950 . S
H1143 C1166 0.950 . S
H1144 C1167 0.950 . S
H1145 C1169 0.950 . S
H1146 C1170 0.950 . S
H1147 C1171 0.951 . S
H1148 C1173 0.951 . S
H1149 C1175 0.950 . S
H1150 C1176 0.950 . S
H1151 C1178 0.950 . S
H1152 C1181 0.950 . S
H1153 C1182 0.950 . S
H1154 C1184 0.950 . S
H1155 C1185 0.950 . S
C1156 H1138 0.951 . S
C1156 C1157 1.366 . S
C1156 C1158 1.388 . S
C1157 C1156 1.366 . S
C1157 C1161 1.385 . S
C1158 H1139 0.951 . S
C1158 C1156 1.388 . S
C1158 C1159 1.366 . S
C1159 C1158 1.366 . S
C1159 C1160 1.414 . S
C1159 C1162 1.499 . S
C1160 H1140 0.950 . S
C1160 C1159 1.414 . S
C1160 C1161 1.374 . S
C1161 H1141 0.950 . S
C1161 C1157 1.385 . S
C1161 C1160 1.374 . S
C1162 C1159 1.499 . S
C1162 C1163 1.373 . S
C1162 C1164 1.389 . S
C1163 H1142 0.950 . S
C1163 C1162 1.373 . S
C1163 C1179 1.377 . S
C1164 C1162 1.389 . S
C1164 C1165 1.524 . S
C1164 C1178 1.377 . S
C1165 C1164 1.524 . S
C1165 C1166 1.397 . S
C1165 C1170 1.363 . S
C1166 H1143 0.950 . S
C1166 C1165 1.397 . S
C1166 C1167 1.334 . S
C1167 H1144 0.950 . S
C1167 C1166 1.334 . S
C1167 C1168 1.287 . S
C1168 C1167 1.287 . S
C1168 C1169 1.524 . S
C1168 H1187 0.913 . S
C1169 H1145 0.950 . S
C1169 C1168 1.524 . S
C1169 C1170 1.415 . S
C1170 H1146 0.950 . S
C1170 C1165 1.363 . S
C1170 C1169 1.415 . S
C1171 H1147 0.951 . S
C1171 C1172 1.366 . S
C1171 C1173 1.388 . S
C1172 C1171 1.366 . S
C1172 C1176 1.385 . S
C1173 H1148 0.951 . S
C1173 C1171 1.388 . S
C1173 C1174 1.366 . S
C1174 C1173 1.366 . S
C1174 C1175 1.414 . S
C1174 C1177 1.499 . S
C1175 H1149 0.950 . S
C1175 C1174 1.414 . S
C1175 C1176 1.374 . S
C1176 H1150 0.950 . S
C1176 C1172 1.385 . S
C1176 C1175 1.374 . S
C1177 C1174 1.499 . S
C1177 C1178 1.373 . S
C1177 C1179 1.389 . S
C1178 H1151 0.950 . S
C1178 C1164 1.377 . S
C1178 C1177 1.373 . S
C1179 C1163 1.377 . S
C1179 C1177 1.389 . S
C1179 C1180 1.524 . S
C1180 C1179 1.524 . S
C1180 C1181 1.397 . S
C1180 C1185 1.363 . S
C1181 H1152 0.950 . S
C1181 C1180 1.397 . S
C1181 C1182 1.334 . S
C1182 H1153 0.950 . S
C1182 C1181 1.334 . S
C1182 C1183 1.287 . S
C1183 C1182 1.287 . S
C1183 C1184 1.524 . S
C1183 H1186 0.999 . S
C1184 H1154 0.950 . S
C1184 C1183 1.524 . S
C1184 C1185 1.415 . S
C1185 H1155 0.950 . S
C1185 C1180 1.363 . S
C1185 C1184 1.415 . S
H1186 C1183 0.999 . S
H1187 C1168 0.913 . S
H1188 C1206 0.951 . S
H1189 C1208 0.951 . S
H1190 C1210 0.950 . S
H1191 C1211 0.950 . S
H1192 C1213 0.950 . S
H1193 C1216 0.950 . S
H1194 C1217 0.950 . S
H1195 C1219 0.950 . S
H1196 C1220 0.950 . S
H1197 C1221 0.951 . S
H1198 C1223 0.951 . S
H1199 C1225 0.950 . S
H1200 C1226 0.950 . S
H1201 C1228 0.950 . S
H1202 C1231 0.950 . S
H1203 C1232 0.950 . S
H1204 C1234 0.950 . S
H1205 C1235 0.950 . S
C1206 H1188 0.951 . S
C1206 C1207 1.366 . S
C1206 C1208 1.388 . S
C1207 C1206 1.366 . S
C1207 C1211 1.385 . S
C1208 H1189 0.951 . S
C1208 C1206 1.388 . S
C1208 C1209 1.366 . S
C1209 C1208 1.366 . S
C1209 C1210 1.414 . S
C1209 C1212 1.499 . S
C1210 H1190 0.950 . S
C1210 C1209 1.414 . S
C1210 C1211 1.374 . S
C1211 H1191 0.950 . S
C1211 C1207 1.385 . S
C1211 C1210 1.374 . S
C1212 C1209 1.499 . S
C1212 C1213 1.373 . S
C1212 C1214 1.389 . S
C1213 H1192 0.950 . S
C1213 C1212 1.373 . S
C1213 C1229 1.377 . S
C1214 C1212 1.389 . S
C1214 C1215 1.524 . S
C1214 C1228 1.377 . S
C1215 C1214 1.524 . S
C1215 C1216 1.397 . S
C1215 C1220 1.363 . S
C1216 H1193 0.950 . S
C1216 C1215 1.397 . S
C1216 C1217 1.334 . S
C1217 H1194 0.950 . S
C1217 C1216 1.334 . S
C1217 C1218 1.287 . S
C1218 C1217 1.287 . S
C1218 C1219 1.524 . S
C1218 H1237 0.913 . S
C1219 H1195 0.950 . S
C1219 C1218 1.524 . S
C1219 C1220 1.415 . S
C1220 H1196 0.950 . S
C1220 C1215 1.363 . S
C1220 C1219 1.415 . S
C1221 H1197 0.951 . S
C1221 C1222 1.366 . S
C1221 C1223 1.388 . S
C1222 C1221 1.366 . S
C1222 C1226 1.385 . S
C1223 H1198 0.951 . S
C1223 C1221 1.388 . S
C1223 C1224 1.366 . S
C1224 C1223 1.366 . S
C1224 C1225 1.414 . S
C1224 C1227 1.499 . S
C1225 H1199 0.950 . S
C1225 C1224 1.414 . S
C1225 C1226 1.374 . S
C1226 H1200 0.950 . S
C1226 C1222 1.385 . S
C1226 C1225 1.374 . S
C1227 C1224 1.499 . S
C1227 C1228 1.373 . S
C1227 C1229 1.389 . S
C1228 H1201 0.950 . S
C1228 C1214 1.377 . S
C1228 C1227 1.373 . S
C1229 C1213 1.377 . S
C1229 C1227 1.389 . S
C1229 C1230 1.524 . S
C1230 C1229 1.524 . S
C1230 C1231 1.397 . S
C1230 C1235 1.363 . S
C1231 H1202 0.950 . S
C1231 C1230 1.397 . S
C1231 C1232 1.334 . S
C1232 H1203 0.950 . S
C1232 C1231 1.334 . S
C1232 C1233 1.287 . S
C1233 C1232 1.287 . S
C1233 C1234 1.524 . S
C1233 H1236 0.999 . S
C1234 H1204 0.950 . S
C1234 C1233 1.524 . S
C1234 C1235 1.415 . S
C1235 H1205 0.950 . S
C1235 C1230 1.363 . S
C1235 C1234 1.415 . S
H1236 C1233 0.999 . S
H1237 C1218 0.913 . S
H1238 C1256 0.951 . S
H1239 C1258 0.951 . S
H1240 C1260 0.950 . S
H1241 C1261 0.950 . S
H1242 C1263 0.950 . S
H1243 C1266 0.950 . S
H1244 C1267 0.950 . S
H1245 C1269 0.950 . S
H1246 C1270 0.950 . S
H1247 C1271 0.951 . S
H1248 C1273 0.951 . S
H1249 C1275 0.950 . S
H1250 C1276 0.950 . S
H1251 C1278 0.950 . S
H1252 C1281 0.950 . S
H1253 C1282 0.950 . S
H1254 C1284 0.950 . S
H1255 C1285 0.950 . S
C1256 H1238 0.951 . S
C1256 C1257 1.366 . S
C1256 C1258 1.388 . S
C1257 C1256 1.366 . S
C1257 C1261 1.385 . S
C1258 H1239 0.951 . S
C1258 C1256 1.388 . S
C1258 C1259 1.366 . S
C1259 C1258 1.366 . S
C1259 C1260 1.414 . S
C1259 C1262 1.499 . S
C1260 H1240 0.950 . S
C1260 C1259 1.414 . S
C1260 C1261 1.374 . S
C1261 H1241 0.950 . S
C1261 C1257 1.385 . S
C1261 C1260 1.374 . S
C1262 C1259 1.499 . S
C1262 C1263 1.373 . S
C1262 C1264 1.389 . S
C1263 H1242 0.950 . S
C1263 C1262 1.373 . S
C1263 C1279 1.377 . S
C1264 C1262 1.389 . S
C1264 C1265 1.524 . S
C1264 C1278 1.377 . S
C1265 C1264 1.524 . S
C1265 C1266 1.397 . S
C1265 C1270 1.363 . S
C1266 H1243 0.950 . S
C1266 C1265 1.397 . S
C1266 C1267 1.334 . S
C1267 H1244 0.950 . S
C1267 C1266 1.334 . S
C1267 C1268 1.287 . S
C1268 C1267 1.287 . S
C1268 C1269 1.524 . S
C1268 H1287 0.913 . S
C1269 H1245 0.950 . S
C1269 C1268 1.524 . S
C1269 C1270 1.415 . S
C1270 H1246 0.950 . S
C1270 C1265 1.363 . S
C1270 C1269 1.415 . S
C1271 H1247 0.951 . S
C1271 C1272 1.366 . S
C1271 C1273 1.388 . S
C1272 C1271 1.366 . S
C1272 C1276 1.385 . S
C1273 H1248 0.951 . S
C1273 C1271 1.388 . S
C1273 C1274 1.366 . S
C1274 C1273 1.366 . S
C1274 C1275 1.414 . S
C1274 C1277 1.499 . S
C1275 H1249 0.950 . S
C1275 C1274 1.414 . S
C1275 C1276 1.374 . S
C1276 H1250 0.950 . S
C1276 C1272 1.385 . S
C1276 C1275 1.374 . S
C1277 C1274 1.499 . S
C1277 C1278 1.373 . S
C1277 C1279 1.389 . S
C1278 H1251 0.950 . S
C1278 C1264 1.377 . S
C1278 C1277 1.373 . S
C1279 C1263 1.377 . S
C1279 C1277 1.389 . S
C1279 C1280 1.524 . S
C1280 C1279 1.524 . S
C1280 C1281 1.397 . S
C1280 C1285 1.363 . S
C1281 H1252 0.950 . S
C1281 C1280 1.397 . S
C1281 C1282 1.334 . S
C1282 H1253 0.950 . S
C1282 C1281 1.334 . S
C1282 C1283 1.287 . S
C1283 C1282 1.287 . S
C1283 C1284 1.524 . S
C1283 H1286 0.999 . S
C1284 H1254 0.950 . S
C1284 C1283 1.524 . S
C1284 C1285 1.415 . S
C1285 H1255 0.950 . S
C1285 C1280 1.363 . S
C1285 C1284 1.415 . S
H1286 C1283 0.999 . S
H1287 C1268 0.913 . S
H1288 C1306 0.951 . S
H1289 C1308 0.951 . S
H1290 C1310 0.950 . S
H1291 C1311 0.950 . S
H1292 C1313 0.950 . S
H1293 C1316 0.950 . S
H1294 C1317 0.950 . S
H1295 C1319 0.950 . S
H1296 C1320 0.950 . S
H1297 C1321 0.951 . S
H1298 C1323 0.951 . S
H1299 C1325 0.950 . S
H1300 C1326 0.950 . S
H1301 C1328 0.950 . S
H1302 C1331 0.950 . S
H1303 C1332 0.950 . S
H1304 C1334 0.950 . S
H1305 C1335 0.950 . S
C1306 H1288 0.951 . S
C1306 C1307 1.366 . S
C1306 C1308 1.388 . S
C1307 C1306 1.366 . S
C1307 C1311 1.385 . S
C1308 H1289 0.951 . S
C1308 C1306 1.388 . S
C1308 C1309 1.366 . S
C1309 C1308 1.366 . S
C1309 C1310 1.414 . S
C1309 C1312 1.499 . S
C1310 H1290 0.950 . S
C1310 C1309 1.414 . S
C1310 C1311 1.374 . S
C1311 H1291 0.950 . S
C1311 C1307 1.385 . S
C1311 C1310 1.374 . S
C1312 C1309 1.499 . S
C1312 C1313 1.373 . S
C1312 C1314 1.389 . S
C1313 H1292 0.950 . S
C1313 C1312 1.373 . S
C1313 C1329 1.377 . S
C1314 C1312 1.389 . S
C1314 C1315 1.524 . S
C1314 C1328 1.377 . S
C1315 C1314 1.524 . S
C1315 C1316 1.397 . S
C1315 C1320 1.363 . S
C1316 H1293 0.950 . S
C1316 C1315 1.397 . S
C1316 C1317 1.334 . S
C1317 H1294 0.950 . S
C1317 C1316 1.334 . S
C1317 C1318 1.287 . S
C1318 C1317 1.287 . S
C1318 C1319 1.524 . S
C1318 H1337 0.913 . S
C1319 H1295 0.950 . S
C1319 C1318 1.524 . S
C1319 C1320 1.415 . S
C1320 H1296 0.950 . S
C1320 C1315 1.363 . S
C1320 C1319 1.415 . S
C1321 H1297 0.951 . S
C1321 C1322 1.366 . S
C1321 C1323 1.388 . S
C1322 C1321 1.366 . S
C1322 C1326 1.385 . S
C1323 H1298 0.951 . S
C1323 C1321 1.388 . S
C1323 C1324 1.366 . S
C1324 C1323 1.366 . S
C1324 C1325 1.414 . S
C1324 C1327 1.499 . S
C1325 H1299 0.950 . S
C1325 C1324 1.414 . S
C1325 C1326 1.374 . S
C1326 H1300 0.950 . S
C1326 C1322 1.385 . S
C1326 C1325 1.374 . S
C1327 C1324 1.499 . S
C1327 C1328 1.373 . S
C1327 C1329 1.389 . S
C1328 H1301 0.950 . S
C1328 C1314 1.377 . S
C1328 C1327 1.373 . S
C1329 C1313 1.377 . S
C1329 C1327 1.389 . S
C1329 C1330 1.524 . S
C1330 C1329 1.524 . S
C1330 C1331 1.397 . S
C1330 C1335 1.363 . S
C1331 H1302 0.950 . S
C1331 C1330 1.397 . S
C1331 C1332 1.334 . S
C1332 H1303 0.950 . S
C1332 C1331 1.334 . S
C1332 C1333 1.287 . S
C1333 C1332 1.287 . S
C1333 C1334 1.524 . S
C1333 H1336 0.999 . S
C1334 H1304 0.950 . S
C1334 C1333 1.524 . S
C1334 C1335 1.415 . S
C1335 H1305 0.950 . S
C1335 C1330 1.363 . S
C1335 C1334 1.415 . S
H1336 C1333 0.999 . S
H1337 C1318 0.913 . S
H1338 C1356 0.951 . S
H1339 C1358 0.951 . S
H1340 C1360 0.950 . S
H1341 C1361 0.950 . S
H1342 C1363 0.950 . S
H1343 C1366 0.950 . S
H1344 C1367 0.950 . S
H1345 C1369 0.950 . S
H1346 C1370 0.950 . S
H1347 C1371 0.951 . S
H1348 C1373 0.951 . S
H1349 C1375 0.950 . S
H1350 C1376 0.950 . S
H1351 C1378 0.950 . S
H1352 C1381 0.950 . S
H1353 C1382 0.950 . S
H1354 C1384 0.950 . S
H1355 C1385 0.950 . S
C1356 H1338 0.951 . S
C1356 C1357 1.366 . S
C1356 C1358 1.388 . S
C1357 C1356 1.366 . S
C1357 C1361 1.385 . S
C1358 H1339 0.951 . S
C1358 C1356 1.388 . S
C1358 C1359 1.366 . S
C1359 C1358 1.366 . S
C1359 C1360 1.414 . S
C1359 C1362 1.499 . S
C1360 H1340 0.950 . S
C1360 C1359 1.414 . S
C1360 C1361 1.374 . S
C1361 H1341 0.950 . S
C1361 C1357 1.385 . S
C1361 C1360 1.374 . S
C1362 C1359 1.499 . S
C1362 C1363 1.373 . S
C1362 C1364 1.389 . S
C1363 H1342 0.950 . S
C1363 C1362 1.373 . S
C1363 C1379 1.377 . S
C1364 C1362 1.389 . S
C1364 C1365 1.524 . S
C1364 C1378 1.377 . S
C1365 C1364 1.524 . S
C1365 C1366 1.397 . S
C1365 C1370 1.363 . S
C1366 H1343 0.950 . S
C1366 C1365 1.397 . S
C1366 C1367 1.334 . S
C1367 H1344 0.950 . S
C1367 C1366 1.334 . S
C1367 C1368 1.287 . S
C1368 C1367 1.287 . S
C1368 C1369 1.524 . S
C1368 H1387 0.913 . S
C1369 H1345 0.950 . S
C1369 C1368 1.524 . S
C1369 C1370 1.415 . S
C1370 H1346 0.950 . S
C1370 C1365 1.363 . S
C1370 C1369 1.415 . S
C1371 H1347 0.951 . S
C1371 C1372 1.366 . S
C1371 C1373 1.388 . S
C1372 C1371 1.366 . S
C1372 C1376 1.385 . S
C1373 H1348 0.951 . S
C1373 C1371 1.388 . S
C1373 C1374 1.366 . S
C1374 C1373 1.366 . S
C1374 C1375 1.414 . S
C1374 C1377 1.499 . S
C1375 H1349 0.950 . S
C1375 C1374 1.414 . S
C1375 C1376 1.374 . S
C1376 H1350 0.950 . S
C1376 C1372 1.385 . S
C1376 C1375 1.374 . S
C1377 C1374 1.499 . S
C1377 C1378 1.373 . S
C1377 C1379 1.389 . S
C1378 H1351 0.950 . S
C1378 C1364 1.377 . S
C1378 C1377 1.373 . S
C1379 C1363 1.377 . S
C1379 C1377 1.389 . S
C1379 C1380 1.524 . S
C1380 C1379 1.524 . S
C1380 C1381 1.397 . S
C1380 C1385 1.363 . S
C1381 H1352 0.950 . S
C1381 C1380 1.397 . S
C1381 C1382 1.334 . S
C1382 H1353 0.950 . S
C1382 C1381 1.334 . S
C1382 C1383 1.287 . S
C1383 C1382 1.287 . S
C1383 C1384 1.524 . S
C1383 H1386 0.999 . S
C1384 H1354 0.950 . S
C1384 C1383 1.524 . S
C1384 C1385 1.415 . S
C1385 H1355 0.950 . S
C1385 C1380 1.363 . S
C1385 C1384 1.415 . S
H1386 C1383 0.999 . S
H1387 C1368 0.913 . S
H1388 C1406 0.951 . S
H1389 C1408 0.951 . S
H1390 C1410 0.950 . S
H1391 C1411 0.950 . S
H1392 C1413 0.950 . S
H1393 C1416 0.950 . S
H1394 C1417 0.950 . S
H1395 C1419 0.950 . S
H1396 C1420 0.950 . S
H1397 C1421 0.951 . S
H1398 C1423 0.951 . S
H1399 C1425 0.950 . S
H1400 C1426 0.950 . S
H1401 C1428 0.950 . S
H1402 C1431 0.950 . S
H1403 C1432 0.950 . S
H1404 C1434 0.950 . S
H1405 C1435 0.950 . S
C1406 H1388 0.951 . S
C1406 C1407 1.366 . S
C1406 C1408 1.388 . S
C1407 C1406 1.366 . S
C1407 C1411 1.385 . S
C1408 H1389 0.951 . S
C1408 C1406 1.388 . S
C1408 C1409 1.366 . S
C1409 C1408 1.366 . S
C1409 C1410 1.414 . S
C1409 C1412 1.499 . S
C1410 H1390 0.950 . S
C1410 C1409 1.414 . S
C1410 C1411 1.374 . S
C1411 H1391 0.950 . S
C1411 C1407 1.385 . S
C1411 C1410 1.374 . S
C1412 C1409 1.499 . S
C1412 C1413 1.373 . S
C1412 C1414 1.389 . S
C1413 H1392 0.950 . S
C1413 C1412 1.373 . S
C1413 C1429 1.377 . S
C1414 C1412 1.389 . S
C1414 C1415 1.524 . S
C1414 C1428 1.377 . S
C1415 C1414 1.524 . S
C1415 C1416 1.397 . S
C1415 C1420 1.363 . S
C1416 H1393 0.950 . S
C1416 C1415 1.397 . S
C1416 C1417 1.334 . S
C1417 H1394 0.950 . S
C1417 C1416 1.334 . S
C1417 C1418 1.287 . S
C1418 C1417 1.287 . S
C1418 C1419 1.524 . S
C1418 H1437 0.913 . S
C1419 H1395 0.950 . S
C1419 C1418 1.524 . S
C1419 C1420 1.415 . S
C1420 H1396 0.950 . S
C1420 C1415 1.363 . S
C1420 C1419 1.415 . S
C1421 H1397 0.951 . S
C1421 C1422 1.366 . S
C1421 C1423 1.388 . S
C1422 C1421 1.366 . S
C1422 C1426 1.385 . S
C1423 H1398 0.951 . S
C1423 C1421 1.388 . S
C1423 C1424 1.366 . S
C1424 C1423 1.366 . S
C1424 C1425 1.414 . S
C1424 C1427 1.499 . S
C1425 H1399 0.950 . S
C1425 C1424 1.414 . S
C1425 C1426 1.374 . S
C1426 H1400 0.950 . S
C1426 C1422 1.385 . S
C1426 C1425 1.374 . S
C1427 C1424 1.499 . S
C1427 C1428 1.373 . S
C1427 C1429 1.389 . S
C1428 H1401 0.950 . S
C1428 C1414 1.377 . S
C1428 C1427 1.373 . S
C1429 C1413 1.377 . S
C1429 C1427 1.389 . S
C1429 C1430 1.524 . S
C1430 C1429 1.524 . S
C1430 C1431 1.397 . S
C1430 C1435 1.363 . S
C1431 H1402 0.950 . S
C1431 C1430 1.397 . S
C1431 C1432 1.334 . S
C1432 H1403 0.950 . S
C1432 C1431 1.334 . S
C1432 C1433 1.287 . S
C1433 C1432 1.287 . S
C1433 C1434 1.524 . S
C1433 H1436 0.999 . S
C1434 H1404 0.950 . S
C1434 C1433 1.524 . S
C1434 C1435 1.415 . S
C1435 H1405 0.950 . S
C1435 C1430 1.363 . S
C1435 C1434 1.415 . S
H1436 C1433 0.999 . S
H1437 C1418 0.913 . S
H1438 C1456 0.951 . S
H1439 C1458 0.951 . S
H1440 C1460 0.950 . S
H1441 C1461 0.950 . S
H1442 C1463 0.950 . S
H1443 C1466 0.950 . S
H1444 C1467 0.950 . S
H1445 C1469 0.950 . S
H1446 C1470 0.950 . S
H1447 C1471 0.951 . S
H1448 C1473 0.951 . S
H1449 C1475 0.950 . S
H1450 C1476 0.950 . S
H1451 C1478 0.950 . S
H1452 C1481 0.950 . S
H1453 C1482 0.950 . S
H1454 C1484 0.950 . S
H1455 C1485 0.950 . S
C1456 H1438 0.951 . S
C1456 C1457 1.366 . S
C1456 C1458 1.388 . S
C1457 C1456 1.366 . S
C1457 C1461 1.385 . S
C1458 H1439 0.951 . S
C1458 C1456 1.388 . S
C1458 C1459 1.366 . S
C1459 C1458 1.366 . S
C1459 C1460 1.414 . S
C1459 C1462 1.499 . S
C1460 H1440 0.950 . S
C1460 C1459 1.414 . S
C1460 C1461 1.374 . S
C1461 H1441 0.950 . S
C1461 C1457 1.385 . S
C1461 C1460 1.374 . S
C1462 C1459 1.499 . S
C1462 C1463 1.373 . S
C1462 C1464 1.389 . S
C1463 H1442 0.950 . S
C1463 C1462 1.373 . S
C1463 C1479 1.377 . S
C1464 C1462 1.389 . S
C1464 C1465 1.524 . S
C1464 C1478 1.377 . S
C1465 C1464 1.524 . S
C1465 C1466 1.397 . S
C1465 C1470 1.363 . S
C1466 H1443 0.950 . S
C1466 C1465 1.397 . S
C1466 C1467 1.334 . S
C1467 H1444 0.950 . S
C1467 C1466 1.334 . S
C1467 C1468 1.287 . S
C1468 C1467 1.287 . S
C1468 C1469 1.524 . S
C1468 H1487 0.913 . S
C1469 H1445 0.950 . S
C1469 C1468 1.524 . S
C1469 C1470 1.415 . S
C1470 H1446 0.950 . S
C1470 C1465 1.363 . S
C1470 C1469 1.415 . S
C1471 H1447 0.951 . S
C1471 C1472 1.366 . S
C1471 C1473 1.388 . S
C1472 C1471 1.366 . S
C1472 C1476 1.385 . S
C1473 H1448 0.951 . S
C1473 C1471 1.388 . S
C1473 C1474 1.366 . S
C1474 C1473 1.366 . S
C1474 C1475 1.414 . S
C1474 C1477 1.499 . S
C1475 H1449 0.950 . S
C1475 C1474 1.414 . S
C1475 C1476 1.374 . S
C1476 H1450 0.950 . S
C1476 C1472 1.385 . S
C1476 C1475 1.374 . S
C1477 C1474 1.499 . S
C1477 C1478 1.373 . S
C1477 C1479 1.389 . S
C1478 H1451 0.950 . S
C1478 C1464 1.377 . S
C1478 C1477 1.373 . S
C1479 C1463 1.377 . S
C1479 C1477 1.389 . S
C1479 C1480 1.524 . S
C1480 C1479 1.524 . S
C1480 C1481 1.397 . S
C1480 C1485 1.363 . S
C1481 H1452 0.950 . S
C1481 C1480 1.397 . S
C1481 C1482 1.334 . S
C1482 H1453 0.950 . S
C1482 C1481 1.334 . S
C1482 C1483 1.287 . S
C1483 C1482 1.287 . S
C1483 C1484 1.524 . S
C1483 H1486 0.999 . S
C1484 H1454 0.950 . S
C1484 C1483 1.524 . S
C1484 C1485 1.415 . S
C1485 H1455 0.950 . S
C1485 C1480 1.363 . S
C1485 C1484 1.415 . S
H1486 C1483 0.999 . S
H1487 C1468 0.913 . S
H1488 C1506 0.951 . S
H1489 C1508 0.951 . S
H1490 C1510 0.950 . S
H1491 C1511 0.950 . S
H1492 C1513 0.950 . S
H1493 C1516 0.950 . S
H1494 C1517 0.950 . S
H1495 C1519 0.950 . S
H1496 C1520 0.950 . S
H1497 C1521 0.951 . S
H1498 C1523 0.951 . S
H1499 C1525 0.950 . S
H1500 C1526 0.950 . S
H1501 C1528 0.950 . S
H1502 C1531 0.950 . S
H1503 C1532 0.950 . S
H1504 C1534 0.950 . S
H1505 C1535 0.950 . S
C1506 H1488 0.951 . S
C1506 C1507 1.366 . S
C1506 C1508 1.388 . S
C1507 C1506 1.366 . S
C1507 C1511 1.385 . S
C1508 H1489 0.951 . S
C1508 C1506 1.388 . S
C1508 C1509 1.366 . S
C1509 C1508 1.366 . S
C1509 C1510 1.414 . S
C1509 C1512 1.499 . S
C1510 H1490 0.950 . S
C1510 C1509 1.414 . S
C1510 C1511 1.374 . S
C1511 H1491 0.950 . S
C1511 C1507 1.385 . S
C1511 C1510 1.374 . S
C1512 C1509 1.499 . S
C1512 C1513 1.373 . S
C1512 C1514 1.389 . S
C1513 H1492 0.950 . S
C1513 C1512 1.373 . S
C1513 C1529 1.377 . S
C1514 C1512 1.389 . S
C1514 C1515 1.524 . S
C1514 C1528 1.377 . S
C1515 C1514 1.524 . S
C1515 C1516 1.397 . S
C1515 C1520 1.363 . S
C1516 H1493 0.950 . S
C1516 C1515 1.397 . S
C1516 C1517 1.334 . S
C1517 H1494 0.950 . S
C1517 C1516 1.334 . S
C1517 C1518 1.287 . S
C1518 C1517 1.287 . S
C1518 C1519 1.524 . S
C1518 H1537 0.913 . S
C1519 H1495 0.950 . S
C1519 C1518 1.524 . S
C1519 C1520 1.415 . S
C1520 H1496 0.950 . S
C1520 C1515 1.363 . S
C1520 C1519 1.415 . S
C1521 H1497 0.951 . S
C1521 C1522 1.366 . S
C1521 C1523 1.388 . S
C1522 C1521 1.366 . S
C1522 C1526 1.385 . S
C1523 H1498 0.951 . S
C1523 C1521 1.388 . S
C1523 C1524 1.366 . S
C1524 C1523 1.366 . S
C1524 C1525 1.414 . S
C1524 C1527 1.499 . S
C1525 H1499 0.950 . S
C1525 C1524 1.414 . S
C1525 C1526 1.374 . S
C1526 H1500 0.950 . S
C1526 C1522 1.385 . S
C1526 C1525 1.374 . S
C1527 C1524 1.499 . S
C1527 C1528 1.373 . S
C1527 C1529 1.389 . S
C1528 H1501 0.950 . S
C1528 C1514 1.377 . S
C1528 C1527 1.373 . S
C1529 C1513 1.377 . S
C1529 C1527 1.389 . S
C1529 C1530 1.524 . S
C1530 C1529 1.524 . S
C1530 C1531 1.397 . S
C1530 C1535 1.363 . S
C1531 H1502 0.950 . S
C1531 C1530 1.397 . S
C1531 C1532 1.334 . S
C1532 H1503 0.950 . S
C1532 C1531 1.334 . S
C1532 C1533 1.287 . S
C1533 C1532 1.287 . S
C1533 C1534 1.524 . S
C1533 H1536 0.999 . S
C1534 H1504 0.950 . S
C1534 C1533 1.524 . S
C1534 C1535 1.415 . S
C1535 H1505 0.950 . S
C1535 C1530 1.363 . S
C1535 C1534 1.415 . S
H1536 C1533 0.999 . S
H1537 C1518 0.913 . S
H1538 C1556 0.951 . S
H1539 C1558 0.951 . S
H1540 C1560 0.950 . S
H1541 C1561 0.950 . S
H1542 C1563 0.950 . S
H1543 C1566 0.950 . S
H1544 C1567 0.950 . S
H1545 C1569 0.950 . S
H1546 C1570 0.950 . S
H1547 C1571 0.951 . S
H1548 C1573 0.951 . S
H1549 C1575 0.950 . S
H1550 C1576 0.950 . S
H1551 C1578 0.950 . S
H1552 C1581 0.950 . S
H1553 C1582 0.950 . S
H1554 C1584 0.950 . S
H1555 C1585 0.950 . S
C1556 H1538 0.951 . S
C1556 C1557 1.366 . S
C1556 C1558 1.388 . S
C1557 C1556 1.366 . S
C1557 C1561 1.385 . S
C1558 H1539 0.951 . S
C1558 C1556 1.388 . S
C1558 C1559 1.366 . S
C1559 C1558 1.366 . S
C1559 C1560 1.414 . S
C1559 C1562 1.499 . S
C1560 H1540 0.950 . S
C1560 C1559 1.414 . S
C1560 C1561 1.374 . S
C1561 H1541 0.950 . S
C1561 C1557 1.385 . S
C1561 C1560 1.374 . S
C1562 C1559 1.499 . S
C1562 C1563 1.373 . S
C1562 C1564 1.389 . S
C1563 H1542 0.950 . S
C1563 C1562 1.373 . S
C1563 C1579 1.377 . S
C1564 C1562 1.389 . S
C1564 C1565 1.524 . S
C1564 C1578 1.377 . S
C1565 C1564 1.524 . S
C1565 C1566 1.397 . S
C1565 C1570 1.363 . S
C1566 H1543 0.950 . S
C1566 C1565 1.397 . S
C1566 C1567 1.334 . S
C1567 H1544 0.950 . S
C1567 C1566 1.334 . S
C1567 C1568 1.287 . S
C1568 C1567 1.287 . S
C1568 C1569 1.524 . S
C1568 H1587 0.913 . S
C1569 H1545 0.950 . S
C1569 C1568 1.524 . S
C1569 C1570 1.415 . S
C1570 H1546 0.950 . S
C1570 C1565 1.363 . S
C1570 C1569 1.415 . S
C1571 H1547 0.951 . S
C1571 C1572 1.366 . S
C1571 C1573 1.388 . S
C1572 C1571 1.366 . S
C1572 C1576 1.385 . S
C1573 H1548 0.951 . S
C1573 C1571 1.388 . S
C1573 C1574 1.366 . S
C1574 C1573 1.366 . S
C1574 C1575 1.414 . S
C1574 C1577 1.499 . S
C1575 H1549 0.950 . S
C1575 C1574 1.414 . S
C1575 C1576 1.374 . S
C1576 H1550 0.950 . S
C1576 C1572 1.385 . S
C1576 C1575 1.374 . S
C1577 C1574 1.499 . S
C1577 C1578 1.373 . S
C1577 C1579 1.389 . S
C1578 H1551 0.950 . S
C1578 C1564 1.377 . S
C1578 C1577 1.373 . S
C1579 C1563 1.377 . S
C1579 C1577 1.389 . S
C1579 C1580 1.524 . S
C1580 C1579 1.524 . S
C1580 C1581 1.397 . S
C1580 C1585 1.363 . S
C1581 H1552 0.950 . S
C1581 C1580 1.397 . S
C1581 C1582 1.334 . S
C1582 H1553 0.950 . S
C1582 C1581 1.334 . S
C1582 C1583 1.287 . S
C1583 C1582 1.287 . S
C1583 C1584 1.524 . S
C1583 H1586 0.999 . S
C1584 H1554 0.950 . S
C1584 C1583 1.524 . S
C1584 C1585 1.415 . S
C1585 H1555 0.950 . S
C1585 C1580 1.363 . S
C1585 C1584 1.415 . S
H1586 C1583 0.999 . S
H1587 C1568 0.913 . S
H1588 C1606 0.951 . S
H1589 C1608 0.951 . S
H1590 C1610 0.950 . S
H1591 C1611 0.950 . S
H1592 C1613 0.950 . S
H1593 C1616 0.950 . S
H1594 C1617 0.950 . S
H1595 C1619 0.950 . S
H1596 C1620 0.950 . S
H1597 C1621 0.951 . S
H1598 C1623 0.951 . S
H1599 C1625 0.950 . S
H1600 C1626 0.950 . S
H1601 C1628 0.950 . S
H1602 C1631 0.950 . S
H1603 C1632 0.950 . S
H1604 C1634 0.950 . S
H1605 C1635 0.950 . S
C1606 H1588 0.951 . S
C1606 C1607 1.366 . S
C1606 C1608 1.388 . S
C1607 C1606 1.366 . S
C1607 C1611 1.385 . S
C1608 H1589 0.951 . S
C1608 C1606 1.388 . S
C1608 C1609 1.366 . S
C1609 C1608 1.366 . S
C1609 C1610 1.414 . S
C1609 C1612 1.499 . S
C1610 H1590 0.950 . S
C1610 C1609 1.414 . S
C1610 C1611 1.374 . S
C1611 H1591 0.950 . S
C1611 C1607 1.385 . S
C1611 C1610 1.374 . S
C1612 C1609 1.499 . S
C1612 C1613 1.373 . S
C1612 C1614 1.389 . S
C1613 H1592 0.950 . S
C1613 C1612 1.373 . S
C1613 C1629 1.377 . S
C1614 C1612 1.389 . S
C1614 C1615 1.524 . S
C1614 C1628 1.377 . S
C1615 C1614 1.524 . S
C1615 C1616 1.397 . S
C1615 C1620 1.363 . S
C1616 H1593 0.950 . S
C1616 C1615 1.397 . S
C1616 C1617 1.334 . S
C1617 H1594 0.950 . S
C1617 C1616 1.334 . S
C1617 C1618 1.287 . S
C1618 C1617 1.287 . S
C1618 C1619 1.524 . S
C1618 H1637 0.913 . S
C1619 H1595 0.950 . S
C1619 C1618 1.524 . S
C1619 C1620 1.415 . S
C1620 H1596 0.950 . S
C1620 C1615 1.363 . S
C1620 C1619 1.415 . S
C1621 H1597 0.951 . S
C1621 C1622 1.366 . S
C1621 C1623 1.388 . S
C1622 C1621 1.366 . S
C1622 C1626 1.385 . S
C1623 H1598 0.951 . S
C1623 C1621 1.388 . S
C1623 C1624 1.366 . S
C1624 C1623 1.366 . S
C1624 C1625 1.414 . S
C1624 C1627 1.499 . S
C1625 H1599 0.950 . S
C1625 C1624 1.414 . S
C1625 C1626 1.374 . S
C1626 H1600 0.950 . S
C1626 C1622 1.385 . S
C1626 C1625 1.374 . S
C1627 C1624 1.499 . S
C1627 C1628 1.373 . S
C1627 C1629 1.389 . S
C1628 H1601 0.950 . S
C1628 C1614 1.377 . S
C1628 C1627 1.373 . S
C1629 C1613 1.377 . S
C1629 C1627 1.389 . S
C1629 C1630 1.524 . S
C1630 C1629 1.524 . S
C1630 C1631 1.397 . S
C1630 C1635 1.363 . S
C1631 H1602 0.950 . S
C1631 C1630 1.397 . S
C1631 C1632 1.334 . S
C1632 H1603 0.950 . S
C1632 C1631 1.334 . S
C1632 C1633 1.287 . S
C1633 C1632 1.287 . S
C1633 C1634 1.524 . S
C1633 H1636 0.999 . S
C1634 H1604 0.950 . S
C1634 C1633 1.524 . S
C1634 C1635 1.415 . S
C1635 H1605 0.950 . S
C1635 C1630 1.363 . S
C1635 C1634 1.415 . S
H1636 C1633 0.999 . S
H1637 C1618 0.913 . S
H1638 C1656 0.951 . S
H1639 C1658 0.951 . S
H1640 C1660 0.950 . S
H1641 C1661 0.950 . S
H1642 C1663 0.950 . S
H1643 C1666 0.950 . S
H1644 C1667 0.950 . S
H1645 C1669 0.950 . S
H1646 C1670 0.950 . S
H1647 C1671 0.951 . S
H1648 C1673 0.951 . S
H1649 C1675 0.950 . S
H1650 C1676 0.950 . S
H1651 C1678 0.950 . S
H1652 C1681 0.950 . S
H1653 C1682 0.950 . S
H1654 C1684 0.950 . S
H1655 C1685 0.950 . S
C1656 H1638 0.951 . S
C1656 C1657 1.366 . S
C1656 C1658 1.388 . S
C1657 C1656 1.366 . S
C1657 C1661 1.385 . S
C1658 H1639 0.951 . S
C1658 C1656 1.388 . S
C1658 C1659 1.366 . S
C1659 C1658 1.366 . S
C1659 C1660 1.414 . S
C1659 C1662 1.499 . S
C1660 H1640 0.950 . S
C1660 C1659 1.414 . S
C1660 C1661 1.374 . S
C1661 H1641 0.950 . S
C1661 C1657 1.385 . S
C1661 C1660 1.374 . S
C1662 C1659 1.499 . S
C1662 C1663 1.373 . S
C1662 C1664 1.389 . S
C1663 H1642 0.950 . S
C1663 C1662 1.373 . S
C1663 C1679 1.377 . S
C1664 C1662 1.389 . S
C1664 C1665 1.524 . S
C1664 C1678 1.377 . S
C1665 C1664 1.524 . S
C1665 C1666 1.397 . S
C1665 C1670 1.363 . S
C1666 H1643 0.950 . S
C1666 C1665 1.397 . S
C1666 C1667 1.334 . S
C1667 H1644 0.950 . S
C1667 C1666 1.334 . S
C1667 C1668 1.287 . S
C1668 C1667 1.287 . S
C1668 C1669 1.524 . S
C1668 H1687 0.913 . S
C1669 H1645 0.950 . S
C1669 C1668 1.524 . S
C1669 C1670 1.415 . S
C1670 H1646 0.950 . S
C1670 C1665 1.363 . S
C1670 C1669 1.415 . S
C1671 H1647 0.951 . S
C1671 C1672 1.366 . S
C1671 C1673 1.388 . S
C1672 C1671 1.366 . S
C1672 C1676 1.385 . S
C1673 H1648 0.951 . S
C1673 C1671 1.388 . S
C1673 C1674 1.366 . S
C1674 C1673 1.366 . S
C1674 C1675 1.414 . S
C1674 C1677 1.499 . S
C1675 H1649 0.950 . S
C1675 C1674 1.414 . S
C1675 C1676 1.374 . S
C1676 H1650 0.950 . S
C1676 C1672 1.385 . S
C1676 C1675 1.374 . S
C1677 C1674 1.499 . S
C1677 C1678 1.373 . S
C1677 C1679 1.389 . S
C1678 H1651 0.950 . S
C1678 C1664 1.377 . S
C1678 C1677 1.373 . S
C1679 C1663 1.377 . S
C1679 C1677 1.389 . S
C1679 C1680 1.524 . S
C1680 C1679 1.524 . S
C1680 C1681 1.397 . S
C1680 C1685 1.363 . S
C1681 H1652 0.950 . S
C1681 C1680 1.397 . S
C1681 C1682 1.334 . S
C1682 H1653 0.950 . S
C1682 C1681 1.334 . S
C1682 C1683 1.287 . S
C1683 C1682 1.287 . S
C1683 C1684 1.524 . S
C1683 H1686 0.999 . S
C1684 H1654 0.950 . S
C1684 C1683 1.524 . S
C1684 C1685 1.415 . S
C1685 H1655 0.950 . S
C1685 C1680 1.363 . S
C1685 C1684 1.415 . S
H1686 C1683 0.999 . S
H1687 C1668 0.913 . S
H1688 C1706 0.951 . S
H1689 C1708 0.951 . S
H1690 C1710 0.950 . S
H1691 C1711 0.950 . S
H1692 C1713 0.950 . S
H1693 C1716 0.950 . S
H1694 C1717 0.950 . S
H1695 C1719 0.950 . S
H1696 C1720 0.950 . S
H1697 C1721 0.951 . S
H1698 C1723 0.951 . S
H1699 C1725 0.950 . S
H1700 C1726 0.950 . S
H1701 C1728 0.950 . S
H1702 C1731 0.950 . S
H1703 C1732 0.950 . S
H1704 C1734 0.950 . S
H1705 C1735 0.950 . S
C1706 H1688 0.951 . S
C1706 C1707 1.366 . S
C1706 C1708 1.388 . S
C1707 C1706 1.366 . S
C1707 C1711 1.385 . S
C1708 H1689 0.951 . S
C1708 C1706 1.388 . S
C1708 C1709 1.366 . S
C1709 C1708 1.366 . S
C1709 C1710 1.414 . S
C1709 C1712 1.499 . S
C1710 H1690 0.950 . S
C1710 C1709 1.414 . S
C1710 C1711 1.374 . S
C1711 H1691 0.950 . S
C1711 C1707 1.385 . S
C1711 C1710 1.374 . S
C1712 C1709 1.499 . S
C1712 C1713 1.373 . S
C1712 C1714 1.389 . S
C1713 H1692 0.950 . S
C1713 C1712 1.373 . S
C1713 C1729 1.377 . S
C1714 C1712 1.389 . S
C1714 C1715 1.524 . S
C1714 C1728 1.377 . S
C1715 C1714 1.524 . S
C1715 C1716 1.397 . S
C1715 C1720 1.363 . S
C1716 H1693 0.950 . S
C1716 C1715 1.397 . S
C1716 C1717 1.334 . S
C1717 H1694 0.950 . S
C1717 C1716 1.334 . S
C1717 C1718 1.287 . S
C1718 C1717 1.287 . S
C1718 C1719 1.524 . S
C1718 H1737 0.913 . S
C1719 H1695 0.950 . S
C1719 C1718 1.524 . S
C1719 C1720 1.415 . S
C1720 H1696 0.950 . S
C1720 C1715 1.363 . S
C1720 C1719 1.415 . S
C1721 H1697 0.951 . S
C1721 C1722 1.366 . S
C1721 C1723 1.388 . S
C1722 C1721 1.366 . S
C1722 C1726 1.385 . S
C1723 H1698 0.951 . S
C1723 C1721 1.388 . S
C1723 C1724 1.366 . S
C1724 C1723 1.366 . S
C1724 C1725 1.414 . S
C1724 C1727 1.499 . S
C1725 H1699 0.950 . S
C1725 C1724 1.414 . S
C1725 C1726 1.374 . S
C1726 H1700 0.950 . S
C1726 C1722 1.385 . S
C1726 C1725 1.374 . S
C1727 C1724 1.499 . S
C1727 C1728 1.373 . S
C1727 C1729 1.389 . S
C1728 H1701 0.950 . S
C1728 C1714 1.377 . S
C1728 C1727 1.373 . S
C1729 C1713 1.377 . S
C1729 C1727 1.389 . S
C1729 C1730 1.524 . S
C1730 C1729 1.524 . S
C1730 C1731 1.397 . S
C1730 C1735 1.363 . S
C1731 H1702 0.950 . S
C1731 C1730 1.397 . S
C1731 C1732 1.334 . S
C1732 H1703 0.950 . S
C1732 C1731 1.334 . S
C1732 C1733 1.287 . S
C1733 C1732 1.287 . S
C1733 C1734 1.524 . S
C1733 H1736 0.999 . S
C1734 H1704 0.950 . S
C1734 C1733 1.524 . S
C1734 C1735 1.415 . S
C1735 H1705 0.950 . S
C1735 C1730 1.363 . S
C1735 C1734 1.415 . S
H1736 C1733 0.999 . S
H1737 C1718 0.913 . S
H1738 C1756 0.951 . S
H1739 C1758 0.951 . S
H1740 C1760 0.950 . S
H1741 C1761 0.950 . S
H1742 C1763 0.950 . S
H1743 C1766 0.950 . S
H1744 C1767 0.950 . S
H1745 C1769 0.950 . S
H1746 C1770 0.950 . S
H1747 C1771 0.951 . S
H1748 C1773 0.951 . S
H1749 C1775 0.950 . S
H1750 C1776 0.950 . S
H1751 C1778 0.950 . S
H1752 C1781 0.950 . S
H1753 C1782 0.950 . S
H1754 C1784 0.950 . S
H1755 C1785 0.950 . S
C1756 H1738 0.951 . S
C1756 C1757 1.366 . S
C1756 C1758 1.388 . S
C1757 C1756 1.366 . S
C1757 C1761 1.385 . S
C1758 H1739 0.951 . S
C1758 C1756 1.388 . S
C1758 C1759 1.366 . S
C1759 C1758 1.366 . S
C1759 C1760 1.414 . S
C1759 C1762 1.499 . S
C1760 H1740 0.950 . S
C1760 C1759 1.414 . S
C1760 C1761 1.374 . S
C1761 H1741 0.950 . S
C1761 C1757 1.385 . S
C1761 C1760 1.374 . S
C1762 C1759 1.499 . S
C1762 C1763 1.373 . S
C1762 C1764 1.389 . S
C1763 H1742 0.950 . S
C1763 C1762 1.373 . S
C1763 C1779 1.377 . S
C1764 C1762 1.389 . S
C1764 C1765 1.524 . S
C1764 C1778 1.377 . S
C1765 C1764 1.524 . S
C1765 C1766 1.397 . S
C1765 C1770 1.363 . S
C1766 H1743 0.950 . S
C1766 C1765 1.397 . S
C1766 C1767 1.334 . S
C1767 H1744 0.950 . S
C1767 C1766 1.334 . S
C1767 C1768 1.287 . S
C1768 C1767 1.287 . S
C1768 C1769 1.524 . S
C1768 H1787 0.913 . S
C1769 H1745 0.950 . S
C1769 C1768 1.524 . S
C1769 C1770 1.415 . S
C1770 H1746 0.950 . S
C1770 C1765 1.363 . S
C1770 C1769 1.415 . S
C1771 H1747 0.951 . S
C1771 C1772 1.366 . S
C1771 C1773 1.388 . S
C1772 C1771 1.366 . S
C1772 C1776 1.385 . S
C1773 H1748 0.951 . S
C1773 C1771 1.388 . S
C1773 C1774 1.366 . S
C1774 C1773 1.366 . S
C1774 C1775 1.414 . S
C1774 C1777 1.499 . S
C1775 H1749 0.950 . S
C1775 C1774 1.414 . S
C1775 C1776 1.374 . S
C1776 H1750 0.950 . S
C1776 C1772 1.385 . S
C1776 C1775 1.374 . S
C1777 C1774 1.499 . S
C1777 C1778 1.373 . S
C1777 C1779 1.389 . S
C1778 H1751 0.950 . S
C1778 C1764 1.377 . S
C1778 C1777 1.373 . S
C1779 C1763 1.377 . S
C1779 C1777 1.389 . S
C1779 C1780 1.524 . S
C1780 C1779 1.524 . S
C1780 C1781 1.397 . S
C1780 C1785 1.363 . S
C1781 H1752 0.950 . S
C1781 C1780 1.397 . S
C1781 C1782 1.334 . S
C1782 H1753 0.950 . S
C1782 C1781 1.334 . S
C1782 C1783 1.287 . S
C1783 C1782 1.287 . S
C1783 C1784 1.524 . S
C1783 H1786 0.999 . S
C1784 H1754 0.950 . S
C1784 C1783 1.524 . S
C1784 C1785 1.415 . S
C1785 H1755 0.950 . S
C1785 C1780 1.363 . S
C1785 C1784 1.415 . S
H1786 C1783 0.999 . S
H1787 C1768 0.913 . S
H1788 C1806 0.951 . S
H1789 C1808 0.951 . S
H1790 C1810 0.950 . S
H1791 C1811 0.950 . S
H1792 C1813 0.950 . S
H1793 C1816 0.950 . S
H1794 C1817 0.950 . S
H1795 C1819 0.950 . S
H1796 C1820 0.950 . S
H1797 C1821 0.951 . S
H1798 C1823 0.951 . S
H1799 C1825 0.950 . S
H1800 C1826 0.950 . S
H1801 C1828 0.950 . S
H1802 C1831 0.950 . S
H1803 C1832 0.950 . S
H1804 C1834 0.950 . S
H1805 C1835 0.950 . S
C1806 H1788 0.951 . S
C1806 C1807 1.366 . S
C1806 C1808 1.388 . S
C1807 C1806 1.366 . S
C1807 C1811 1.385 . S
C1808 H1789 0.951 . S
C1808 C1806 1.388 . S
C1808 C1809 1.366 . S
C1809 C1808 1.366 . S
C1809 C1810 1.414 . S
C1809 C1812 1.499 . S
C1810 H1790 0.950 . S
C1810 C1809 1.414 . S
C1810 C1811 1.374 . S
C1811 H1791 0.950 . S
C1811 C1807 1.385 . S
C1811 C1810 1.374 . S
C1812 C1809 1.499 . S
C1812 C1813 1.373 . S
C1812 C1814 1.389 . S
C1813 H1792 0.950 . S
C1813 C1812 1.373 . S
C1813 C1829 1.377 . S
C1814 C1812 1.389 . S
C1814 C1815 1.524 . S
C1814 C1828 1.377 . S
C1815 C1814 1.524 . S
C1815 C1816 1.397 . S
C1815 C1820 1.363 . S
C1816 H1793 0.950 . S
C1816 C1815 1.397 . S
C1816 C1817 1.334 . S
C1817 H1794 0.950 . S
C1817 C1816 1.334 . S
C1817 C1818 1.287 . S
C1818 C1817 1.287 . S
C1818 C1819 1.524 . S
C1818 H1837 0.913 . S
C1819 H1795 0.950 . S
C1819 C1818 1.524 . S
C1819 C1820 1.415 . S
C1820 H1796 0.950 . S
C1820 C1815 1.363 . S
C1820 C1819 1.415 . S
C1821 H1797 0.951 . S
C1821 C1822 1.366 . S
C1821 C1823 1.388 . S
C1822 C1821 1.366 . S
C1822 C1826 1.385 . S
C1823 H1798 0.951 . S
C1823 C1821 1.388 . S
C1823 C1824 1.366 . S
C1824 C1823 1.366 . S
C1824 C1825 1.414 . S
C1824 C1827 1.499 . S
C1825 H1799 0.950 . S
C1825 C1824 1.414 . S
C1825 C1826 1.374 . S
C1826 H1800 0.950 . S
C1826 C1822 1.385 . S
C1826 C1825 1.374 . S
C1827 C1824 1.499 . S
C1827 C1828 1.373 . S
C1827 C1829 1.389 . S
C1828 H1801 0.950 . S
C1828 C1814 1.377 . S
C1828 C1827 1.373 . S
C1829 C1813 1.377 . S
C1829 C1827 1.389 . S
C1829 C1830 1.524 . S
C1830 C1829 1.524 . S
C1830 C1831 1.397 . S
C1830 C1835 1.363 . S
C1831 H1802 0.950 . S
C1831 C1830 1.397 . S
C1831 C1832 1.334 . S
C1832 H1803 0.950 . S
C1832 C1831 1.334 . S
C1832 C1833 1.287 . S
C1833 C1832 1.287 . S
C1833 C1834 1.524 . S
C1833 H1836 0.999 . S
C1834 H1804 0.950 . S
C1834 C1833 1.524 . S
C1834 C1835 1.415 . S
C1835 H1805 0.950 . S
C1835 C1830 1.363 . S
C1835 C1834 1.415 . S
H1836 C1833 0.999 . S
H1837 C1818 0.913 . S
C672 C342 1.539 . S
C657 C15 1.541 . S
C722 C411 1.538 . S
C707 C55 1.545 . S
C772 C349 1.575 . S
C757 C101 1.561 . S
C822 C412 1.587 . S
C807 C141 1.583 . S
C872 C465 1.517 . S
C857 C2 1.495 . S
C922 C501 1.519 . S
C907 C61 1.500 . S
C957 C95 1.605 . S
C972 C561 1.600 . S
C1022 C624 1.516 . S
C1007 C135 1.517 . S
C1072 C464 1.501 . S
C1057 C42 1.482 . S
C1107 C82 1.513 . S
C1122 C508 1.537 . S
C1172 C554 1.595 . S
C1157 C122 1.598 . S
C1222 C623 1.532 . S
C1207 C21 1.512 . S
C1257 C162 1.582 . S
C1272 C402 1.585 . S
C1322 C359 1.566 . S
C1307 C221 1.565 . S
C1357 C255 1.550 . S
C1372 C395 1.543 . S
C1407 C282 1.515 . S
C1422 C358 1.529 . S
C1472 C570 1.603 . S
C1457 C181 1.607 . S
C1522 C614 1.528 . S
C1507 C202 1.521 . S
C1572 C448 1.510 . S
C1557 C242 1.505 . S
C1607 C301 1.510 . S
C1622 C517 1.527 . S
C1672 C571 1.592 . S
C1657 C215 1.600 . S
C1722 C607 1.523 . S
C1707 C261 1.519 . S
C1772 C455 1.510 . S
C1757 C295 1.510 . S
C1807 C175 1.523 . S
C1822 C518 1.523 . S
