# Generated by pormake.
# Topology hwx, (6,3)-cn, num edge types: 1
# Building blocks:
#     Node 0, Type 0, BuildingBlock: OJICUG_clean_sbu_0, # of connection points: 6
#     Node 1, Type 0, BuildingBlock: OJICUG_clean_sbu_0, # of connection points: 6
#     Node 2, Type 0, BuildingBlock: OJICUG_clean_sbu_0, # of connection points: 6
#     Node 3, Type 0, BuildingBlock: OJICUG_clean_sbu_0, # of connection points: 6
#     Node 4, Type 1, BuildingBlock: WUSLED_clean_sbu_0, # of connection points: 3
#     Node 5, Type 1, BuildingBlock: WUSLED_clean_sbu_0, # of connection points: 3
#     Node 6, Type 1, BuildingBlock: WUSLED_clean_sbu_0, # of connection points: 3
#     Node 7, Type 1, BuildingBlock: WUSLED_clean_sbu_0, # of connection points: 3
#     Node 8, Type 1, BuildingBlock: WUSLED_clean_sbu_0, # of connection points: 3
#     Node 9, Type 1, BuildingBlock: WUSLED_clean_sbu_0, # of connection points: 3
#     Node 10, Type 1, BuildingBlock: WUSLED_clean_sbu_0, # of connection points: 3
#     Node 11, Type 1, BuildingBlock: WUSLED_clean_sbu_0, # of connection points: 3
#     Edge 12, Type (0, 1), BuildingBlock: AJUNOK_clean_linker_0, # of connection points: 2
#     Edge 13, Type (0, 1), BuildingBlock: AJUNOK_clean_linker_0, # of connection points: 2
#     Edge 14, Type (0, 1), BuildingBlock: AJUNOK_clean_linker_0, # of connection points: 2
#     Edge 15, Type (0, 1), BuildingBlock: AJUNOK_clean_linker_0, # of connection points: 2
#     Edge 16, Type (0, 1), BuildingBlock: AJUNOK_clean_linker_0, # of connection points: 2
#     Edge 17, Type (0, 1), BuildingBlock: AJUNOK_clean_linker_0, # of connection points: 2
#     Edge 18, Type (0, 1), BuildingBlock: AJUNOK_clean_linker_0, # of connection points: 2
#     Edge 19, Type (0, 1), BuildingBlock: AJUNOK_clean_linker_0, # of connection points: 2
#     Edge 20, Type (0, 1), BuildingBlock: AJUNOK_clean_linker_0, # of connection points: 2
#     Edge 21, Type (0, 1), BuildingBlock: AJUNOK_clean_linker_0, # of connection points: 2
#     Edge 22, Type (0, 1), BuildingBlock: AJUNOK_clean_linker_0, # of connection points: 2
#     Edge 23, Type (0, 1), BuildingBlock: AJUNOK_clean_linker_0, # of connection points: 2
#     Edge 24, Type (0, 1), BuildingBlock: AJUNOK_clean_linker_0, # of connection points: 2
#     Edge 25, Type (0, 1), BuildingBlock: AJUNOK_clean_linker_0, # of connection points: 2
#     Edge 26, Type (0, 1), BuildingBlock: AJUNOK_clean_linker_0, # of connection points: 2
#     Edge 27, Type (0, 1), BuildingBlock: AJUNOK_clean_linker_0, # of connection points: 2
#     Edge 28, Type (0, 1), BuildingBlock: AJUNOK_clean_linker_0, # of connection points: 2
#     Edge 29, Type (0, 1), BuildingBlock: AJUNOK_clean_linker_0, # of connection points: 2
#     Edge 30, Type (0, 1), BuildingBlock: AJUNOK_clean_linker_0, # of connection points: 2
#     Edge 31, Type (0, 1), BuildingBlock: AJUNOK_clean_linker_0, # of connection points: 2
#     Edge 32, Type (0, 1), BuildingBlock: AJUNOK_clean_linker_0, # of connection points: 2
#     Edge 33, Type (0, 1), BuildingBlock: AJUNOK_clean_linker_0, # of connection points: 2
#     Edge 34, Type (0, 1), BuildingBlock: AJUNOK_clean_linker_0, # of connection points: 2
#     Edge 35, Type (0, 1), BuildingBlock: AJUNOK_clean_linker_0, # of connection points: 2
# Relax obj value: 0.072
# Max RMSD: 0.099
# Mean RMSD: 0.091
data_MOF--net-hwx--node1-OJICUG_clean_sbu_0--node2-WUSLED_clean_sbu_0--edge1-AJUNOK_clean_linker_0
_symmetry_space_group_name_H-M    P1
_symmetry_Int_Tables_number       1
_symmetry_cell_setting            triclinic
loop_
_symmetry_equiv_pos_as_xyz
'x, y, z'
_cell_length_a     51.83594
_cell_length_b     51.843075
_cell_length_c     23.376135
_cell_angle_alpha  90.329343
_cell_angle_beta   90.362688
_cell_angle_gamma 90.013091
loop_
_atom_site_label
_atom_site_type_symbol
_atom_site_fract_x
_atom_site_fract_y
_atom_site_fract_z
_atom_type_partial_charge
Sc0 Sc 0.24219 0.24752 0.09003 0.0
Sc1 Sc 0.20292 0.20752 1.0034 0.0
Sc2 Sc 0.24581 0.25165 0.93982 0.0
O3 O 0.23028 0.23556 0.01105 0.0
C4 C 0.2405 0.30099 0.02215 0.0
C5 C 0.18137 0.24074 0.10851 0.0
C6 C 0.18664 0.24601 0.90251 0.0
C7 C 0.2366 0.18673 0.10905 0.0
C8 C 0.29545 0.24615 0.02083 0.0
C9 C 0.24098 0.19225 0.90174 0.0
O10 O 0.23962 0.28784 0.06788 0.0
O11 O 0.17829 0.22547 0.06622 0.0
O12 O 0.2086 0.25687 0.89954 0.0
O13 O 0.24613 0.20868 0.12145 0.0
O14 O 0.28485 0.24788 0.97174 0.0
O15 O 0.22421 0.18651 0.93911 0.0
O16 O 0.28247 0.2461 0.06686 0.0
O17 O 0.22068 0.18346 0.06796 0.0
O18 O 0.2503 0.21485 0.89735 0.0
O19 O 0.20327 0.25003 0.1225 0.0
O20 O 0.24297 0.29057 0.97307 0.0
O21 O 0.18193 0.22797 0.93767 0.0
Sc22 Sc 0.2698 0.74836 0.43362 0.0
Sc23 Sc 0.31072 0.70644 0.51083 0.0
Sc24 Sc 0.26677 0.74655 0.58386 0.0
O25 O 0.28245 0.73377 0.50941 0.0
C26 C 0.27052 0.79902 0.51161 0.0
C27 C 0.33088 0.74359 0.41265 0.0
C28 C 0.32609 0.74192 0.61859 0.0
C29 C 0.27708 0.68904 0.40138 0.0
C30 C 0.21689 0.74319 0.50385 0.0
C31 C 0.27325 0.68585 0.60802 0.0
O32 O 0.27237 0.78774 0.46337 0.0
O33 O 0.33478 0.72781 0.45323 0.0
O34 O 0.30395 0.75223 0.62309 0.0
O35 O 0.26589 0.7107 0.39568 0.0
O36 O 0.22783 0.74225 0.55259 0.0
O37 O 0.28973 0.68213 0.56874 0.0
O38 O 0.22951 0.7461 0.45773 0.0
O39 O 0.29401 0.68486 0.43995 0.0
O40 O 0.26386 0.70803 0.61891 0.0
O41 O 0.30852 0.75206 0.39973 0.0
O42 O 0.26788 0.78663 0.55811 0.0
O43 O 0.33115 0.72452 0.58168 0.0
Sc44 Sc 0.76969 0.77139 0.92557 0.0
Sc45 Sc 0.80688 0.81316 0.01276 0.0
Sc46 Sc 0.76496 0.76809 0.07582 0.0
O47 O 0.78052 0.78421 1.00472 0.0
C48 C 0.71582 0.77167 0.99253 0.0
C49 C 0.7733 0.83255 0.90619 0.0
C50 C 0.76807 0.82741 0.11409 0.0
C51 C 0.83013 0.78063 0.9079 0.0
C52 C 0.77219 0.71842 0.99536 0.0
C53 C 0.82402 0.77524 0.11368 0.0
O54 O 0.72917 0.77217 0.94702 0.0
O55 O 0.78804 0.83669 0.94903 0.0
O56 O 0.75872 0.80479 0.11735 0.0
O57 O 0.80902 0.76937 0.89506 0.0
O58 O 0.76955 0.72924 0.0439 0.0
O59 O 0.82864 0.79288 0.0775 0.0
O60 O 0.77265 0.73113 0.94894 0.0
O61 O 0.83196 0.79671 0.949 0.0
O62 O 0.80204 0.76444 0.11758 0.0
O63 O 0.76539 0.81007 0.89261 0.0
O64 O 0.72609 0.77029 0.04204 0.0
O65 O 0.78528 0.83331 0.07788 0.0
Sc66 Sc 0.74177 0.2698 0.57789 0.0
Sc67 Sc 0.70284 0.31481 0.50405 0.0
Sc68 Sc 0.74494 0.27386 0.42787 0.0
O69 O 0.72981 0.28616 0.5033 0.0
C70 C 0.79486 0.27432 0.50831 0.0
C71 C 0.73778 0.32939 0.61289 0.0
C72 C 0.7405 0.33481 0.40622 0.0
C73 C 0.68124 0.27734 0.60079 0.0
C74 C 0.73919 0.22047 0.49603 0.0
C75 C 0.68557 0.28123 0.39472 0.0
O76 O 0.7821 0.27135 0.55422 0.0
O77 O 0.72145 0.33523 0.57416 0.0
O78 O 0.74958 0.31255 0.3951 0.0
O79 O 0.70288 0.26659 0.61089 0.0
O80 O 0.74206 0.23355 0.45061 0.0
O81 O 0.68107 0.29773 0.43399 0.0
O82 O 0.73817 0.23091 0.54533 0.0
O83 O 0.67841 0.29462 0.5629 0.0
O84 O 0.70748 0.27055 0.38841 0.0
O85 O 0.74686 0.30677 0.6187 0.0
O86 O 0.78402 0.27605 0.45955 0.0
O87 O 0.72396 0.33861 0.44531 0.0
C88 C 0.24826 0.55893 0.83978 0.0
C89 C 0.24851 0.58466 0.85881 0.0
C90 C 0.25194 0.5997 0.76065 0.0
C91 C 0.25036 0.60485 0.81965 0.0
C92 C 0.25155 0.57387 0.74173 0.0
C93 C 0.24968 0.55365 0.78102 0.0
U94 U 0.24885 0.53849 0.99369 0.0
O95 O 0.22705 0.50921 0.04092 0.0
O96 O 0.26937 0.50737 0.03892 0.0
C97 C 0.24788 0.4961 0.05478 0.0
C98 C 0.24745 0.53777 0.8815 0.0
C99 C 0.24668 0.46789 0.04667 0.0
C100 C 0.23237 0.42958 0.99474 0.0
C101 C 0.23412 0.45651 0.99944 0.0
C102 C 0.2562 0.42518 0.0836 0.0
C103 C 0.24308 0.41363 0.03726 0.0
C104 C 0.25788 0.45201 0.0883 0.0
C105 C 0.2533 0.59588 0.10065 0.0
C106 C 0.26202 0.5942 0.20294 0.0
C107 C 0.25156 0.63494 0.15807 0.0
C108 C 0.24912 0.62248 0.1053 0.0
C109 C 0.25826 0.62104 0.20744 0.0
C110 C 0.25956 0.58168 0.14979 0.0
C111 C 0.25177 0.58394 0.04359 0.0
O112 O 0.2688 0.53465 0.91127 0.0
O113 O 0.22661 0.537 0.91319 0.0
O114 O 0.22979 0.57279 0.02997 0.0
O115 O 0.27208 0.57075 0.02713 0.0
H116 H 0.24767 0.5891 0.90412 0.0
H117 H 0.25124 0.62447 0.8357 0.0
H118 H 0.25279 0.56934 0.69654 0.0
H119 H 0.24961 0.5339 0.76558 0.0
H120 H 0.22225 0.42121 0.95843 0.0
H121 H 0.22544 0.46842 0.96661 0.0
H122 H 0.26525 0.41344 0.11622 0.0
H123 H 0.26782 0.4604 0.12485 0.0
H124 H 0.26683 0.58294 0.2404 0.0
H125 H 0.24877 0.65563 0.16002 0.0
H126 H 0.24433 0.63373 0.06777 0.0
H127 H 0.26276 0.56107 0.14692 0.0
C128 C 0.95716 0.75676 0.67402 0.0
C129 C 0.94506 0.78089 0.68075 0.0
C130 C 0.91719 0.76357 0.75471 0.0
C131 C 0.92531 0.78422 0.72057 0.0
C132 C 0.92918 0.73945 0.74805 0.0
C133 C 0.94909 0.73613 0.70841 0.0
U134 U 0.97898 0.75051 0.51923 0.0
O135 O 0.01185 0.76723 0.47365 0.0
O136 O 1.00768 0.72514 0.47815 0.0
C137 C 0.02214 0.74462 0.46219 0.0
C138 C 0.97797 0.7529 0.63135 0.0
C139 C 0.05008 0.74222 0.47316 0.0
C140 C 0.08866 0.75204 0.52904 0.0
C141 C 0.0618 0.75304 0.52203 0.0
C142 C 0.09229 0.72888 0.43918 0.0
C143 C 0.10422 0.74008 0.48745 0.0
C144 C 0.0655 0.72993 0.43217 0.0
C145 C 0.92446 0.75552 0.40451 0.0
C146 C 0.90895 0.7802 0.32283 0.0
C147 C 0.90032 0.7344 0.32763 0.0
C148 C 0.91362 0.73317 0.37983 0.0
C149 C 0.89749 0.758 0.29902 0.0
C150 C 0.92225 0.77899 0.37497 0.0
C151 C 0.93497 0.75492 0.46369 0.0
O152 O 0.97738 0.73099 0.60271 0.0
O153 O 0.98351 0.77279 0.59894 0.0
O154 O 0.94892 0.7748 0.48046 0.0
O155 O 0.94404 0.73276 0.48212 0.0
H156 H 0.95068 0.79725 0.65507 0.0
H157 H 0.91612 0.80292 0.72414 0.0
H158 H 0.92331 0.72324 0.77394 0.0
H159 H 0.95812 0.71737 0.70448 0.0
H160 H 0.0973 0.76123 0.5662 0.0
H161 H 0.05025 0.76271 0.55413 0.0
H162 H 0.10372 0.71941 0.40659 0.0
H163 H 0.05683 0.72149 0.39414 0.0
H164 H 0.90656 0.7988 0.3026 0.0
H165 H 0.89164 0.71699 0.31035 0.0
H166 H 0.9146 0.71486 0.4018 0.0
H167 H 0.92991 0.79669 0.39314 0.0
C168 C 0.76592 0.46077 0.17223 0.0
C169 C 0.76521 0.43498 0.15368 0.0
C170 C 0.76188 0.42038 0.25221 0.0
C171 C 0.76317 0.41498 0.19327 0.0
C172 C 0.76262 0.44628 0.27061 0.0
C173 C 0.7647 0.46631 0.2309 0.0
U174 U 0.76754 0.4809 0.01793 0.0
O175 O 0.74863 0.51238 0.9711 0.0
O176 O 0.79091 0.50975 0.97254 0.0
C177 C 0.77061 0.52338 0.95751 0.0
C178 C 0.76748 0.48175 0.13018 0.0
C179 C 0.77242 0.55149 0.96726 0.0
C180 C 0.76087 0.59051 0.01952 0.0
C181 C 0.7599 0.56363 0.01324 0.0
C182 C 0.78731 0.59339 0.93477 0.0
C183 C 0.77456 0.60572 0.98025 0.0
C184 C 0.78624 0.56656 0.92839 0.0
C185 C 0.76365 0.42323 0.91115 0.0
C186 C 0.75396 0.42371 0.80919 0.0
C187 C 0.76766 0.38407 0.85463 0.0
C188 C 0.76965 0.39697 0.90699 0.0
C189 C 0.7598 0.39724 0.8051 0.0
C190 C 0.75597 0.43667 0.86191 0.0
C191 C 0.76449 0.43546 0.96803 0.0
O192 O 0.78873 0.4821 0.09979 0.0
O193 O 0.74656 0.48509 0.09904 0.0
O194 O 0.74419 0.44911 0.98274 0.0
O195 O 0.78647 0.44618 0.98329 0.0
H196 H 0.76594 0.43035 0.10846 0.0
H197 H 0.762 0.3953 0.17764 0.0
H198 H 0.76161 0.45101 0.31574 0.0
H199 H 0.76517 0.48611 0.24595 0.0
H200 H 0.75041 0.59943 0.05435 0.0
H201 H 0.74906 0.55239 0.04376 0.0
H202 H 0.79811 0.60452 0.904 0.0
H203 H 0.79603 0.55758 0.89262 0.0
H204 H 0.74775 0.43429 0.77175 0.0
H205 H 0.77159 0.36356 0.8533 0.0
H206 H 0.77538 0.38625 0.94466 0.0
H207 H 0.75119 0.45699 0.86441 0.0
C208 C 0.0537 0.26594 0.3398 0.0
C209 C 0.07389 0.28405 0.33723 0.0
C210 C 0.09391 0.26003 0.25929 0.0
C211 C 0.09373 0.28113 0.29739 0.0
C212 C 0.07366 0.24201 0.26179 0.0
C213 C 0.05371 0.24504 0.30133 0.0
U214 U 0.03265 0.26856 0.49537 0.0
O215 O 1.00345 0.29217 0.53955 0.0
O216 O 1.00047 0.24991 0.5398 0.0
C217 C 0.98955 0.27197 0.55354 0.0
C218 C 0.03303 0.26805 0.38315 0.0
C219 C 0.96157 0.27392 0.54264 0.0
C220 C 0.92325 0.26437 0.48565 0.0
C221 C 0.95009 0.26343 0.49314 0.0
C222 C 0.91917 0.28677 0.57635 0.0
C223 C 0.90748 0.27597 0.52734 0.0
C224 C 0.94593 0.28576 0.58386 0.0
C225 C 0.08794 0.26334 0.60808 0.0
C226 C 0.10277 0.284 0.69632 0.0
C227 C 0.11241 0.23898 0.67868 0.0
C228 C 0.09927 0.24018 0.62642 0.0
C229 C 0.11477 0.26099 0.71364 0.0
C230 C 0.08952 0.2852 0.64395 0.0
C231 C 0.07709 0.26477 0.54937 0.0
O232 O 0.02911 0.24725 0.41385 0.0
O233 O 0.03243 0.28944 0.4137 0.0
O234 O 0.06716 0.2869 0.53295 0.0
O235 O 0.06372 0.24469 0.5316 0.0
H236 H 0.07457 0.30037 0.36633 0.0
H237 H 0.109 0.29538 0.29646 0.0
H238 H 0.07352 0.2252 0.23409 0.0
H239 H 0.03847 0.23075 0.30253 0.0
H240 H 0.9148 0.25547 0.44793 0.0
H241 H 0.96181 0.25415 0.4608 0.0
H242 H 0.90758 0.29596 0.60903 0.0
H243 H 0.95442 0.29398 0.62232 0.0
H244 H 0.10398 0.30117 0.72282 0.0
H245 H 0.12162 0.22104 0.69071 0.0
H246 H 0.09869 0.22312 0.59944 0.0
H247 H 0.08111 0.3034 0.63106 0.0
C248 C 0.7482 0.95976 0.67407 0.0
C249 C 0.74997 0.93422 0.65428 0.0
C250 C 0.75258 0.91864 0.75229 0.0
C251 C 0.75219 0.91386 0.69299 0.0
C252 C 0.75072 0.94429 0.77193 0.0
C253 C 0.7485 0.96468 0.73309 0.0
U254 U 0.74642 0.98204 0.52084 0.0
O255 O 0.72417 0.01223 0.47695 0.0
O256 O 0.76654 0.01369 0.4771 0.0
C257 C 0.74492 0.02533 0.46294 0.0
C258 C 0.74674 0.9812 0.6331 0.0
C259 C 0.74417 0.05354 0.47197 0.0
C260 C 0.72822 0.09199 0.5206 0.0
C261 C 0.72972 0.06503 0.51597 0.0
C262 C 0.75606 0.0962 0.43839 0.0
C263 C 0.74104 0.10786 0.48122 0.0
C264 C 0.7575 0.06936 0.43373 0.0
C265 C 0.74945 0.92701 0.40694 0.0
C266 C 0.77418 0.90659 0.33086 0.0
C267 C 0.72757 0.90732 0.325 0.0
C268 C 0.72661 0.92081 0.37701 0.0
C269 C 0.75135 0.89951 0.30212 0.0
C270 C 0.77325 0.92005 0.38277 0.0
C271 C 0.74854 0.9377 0.46594 0.0
O272 O 0.76763 0.98462 0.60248 0.0
O273 O 0.72541 0.98223 0.60246 0.0
O274 O 0.76909 0.9502 0.48423 0.0
O275 O 0.7268 0.94842 0.48244 0.0
H276 H 0.74996 0.93007 0.60879 0.0
H277 H 0.75421 0.89441 0.67646 0.0
H278 H 0.75099 0.94857 0.81734 0.0
H279 H 0.74722 0.98428 0.74912 0.0
H280 H 0.71661 0.10043 0.55422 0.0
H281 H 0.71934 0.05321 0.54618 0.0
H282 H 0.76672 0.10787 0.40838 0.0
H283 H 0.76887 0.06091 0.39968 0.0
H284 H 0.79279 0.90069 0.31447 0.0
H285 H 0.70967 0.90248 0.30332 0.0
H286 H 0.70793 0.92564 0.39456 0.0
H287 H 0.7912 0.92416 0.405 0.0
C288 C 0.55389 0.25576 0.83358 0.0
C289 C 0.56803 0.27884 0.82908 0.0
C290 C 0.59449 0.26013 0.75385 0.0
C291 C 0.58802 0.28099 0.78956 0.0
C292 C 0.58026 0.23714 0.75778 0.0
C293 C 0.56009 0.23502 0.79714 0.0
U294 U 0.53364 0.25187 0.98891 0.0
O295 O 0.50197 0.26987 0.03666 0.0
O296 O 0.50494 0.22764 0.03269 0.0
C297 C 0.49101 0.24765 0.04835 0.0
C298 C 0.53321 0.25293 0.87679 0.0
C299 C 0.4628 0.24575 0.03843 0.0
C300 C 0.42205 0.26408 0.00564 0.0
C301 C 0.44899 0.26518 0.00966 0.0
C302 C 0.42223 0.22375 0.05726 0.0
C303 C 0.40832 0.2436 0.0303 0.0
C304 C 0.44915 0.22492 0.06157 0.0
C305 C 0.59104 0.25678 0.09627 0.0
C306 C 0.58987 0.26513 0.19872 0.0
C307 C 0.6304 0.25493 0.15273 0.0
C308 C 0.61766 0.2526 0.10024 0.0
C309 C 0.61675 0.26151 0.20249 0.0
C310 C 0.57707 0.26281 0.14585 0.0
C311 C 0.57891 0.25578 0.03932 0.0
O312 O 0.53351 0.23133 0.90603 0.0
O313 O 0.52843 0.2733 0.90881 0.0
O314 O 0.56483 0.2758 0.02478 0.0
O315 O 0.5687 0.23361 0.02375 0.0
H316 H 0.56387 0.29524 0.85638 0.0
H317 H 0.59872 0.29891 0.7875 0.0
H318 H 0.58458 0.2209 0.73011 0.0
H319 H 0.54943 0.21708 0.79937 0.0
H320 H 0.41189 0.27966 0.98457 0.0
H321 H 0.45891 0.28151 0.99127 0.0
H322 H 0.41229 0.20738 0.07542 0.0
H323 H 0.4593 0.20969 0.08391 0.0
H324 H 0.57879 0.26983 0.2365 0.0
H325 H 0.65112 0.25224 0.15409 0.0
H326 H 0.62875 0.24801 0.06237 0.0
H327 H 0.55644 0.26601 0.14352 0.0
C328 C 0.2607 0.05944 0.34131 0.0
C329 C 0.26062 0.08514 0.36049 0.0
C330 C 0.25622 0.10026 0.26241 0.0
C331 C 0.25838 0.10536 0.32142 0.0
C332 C 0.25629 0.07445 0.2434 0.0
C333 C 0.25858 0.05421 0.28257 0.0
U334 U 0.26241 0.03746 0.49497 0.0
O335 O 0.24253 1.00557 0.53841 0.0
O336 O 0.28487 1.00749 0.53908 0.0
C337 C 0.26425 0.99402 0.55225 0.0
C338 C 0.26222 0.03818 0.38269 0.0
C339 C 0.26527 0.9659 0.54156 0.0
C340 C 0.28318 0.92809 0.49392 0.0
C341 C 0.28179 0.95495 0.50062 0.0
C342 C 0.25129 0.92283 0.56817 0.0
C343 C 0.26794 0.91172 0.5277 0.0
C344 C 0.24999 0.94961 0.575 0.0
C345 C 0.25864 0.09252 0.60875 0.0
C346 C 0.2339 0.11439 0.68281 0.0
C347 C 0.28025 0.11073 0.69269 0.0
C348 C 0.28128 0.09724 0.64068 0.0
C349 C 0.25661 0.11997 0.71359 0.0
C350 C 0.23492 0.10095 0.63088 0.0
C351 C 0.25976 0.08178 0.54983 0.0
O352 O 0.2835 0.03737 0.41352 0.0
O353 O 0.2413 0.03473 0.41319 0.0
O354 O 0.23935 0.06905 0.53151 0.0
O355 O 0.28163 0.07128 0.53346 0.0
H356 H 0.26199 0.08954 0.40578 0.0
H357 H 0.25777 0.12499 0.33751 0.0
H358 H 0.25462 0.06996 0.19822 0.0
H359 H 0.2585 0.03448 0.26705 0.0
H360 H 0.29654 0.92013 0.46309 0.0
H361 H 0.29387 0.96708 0.47436 0.0
H362 H 0.23918 0.91078 0.59455 0.0
H363 H 0.23715 0.95762 0.60691 0.0
H364 H 0.21542 0.12142 0.69766 0.0
H365 H 0.29802 0.11442 0.71597 0.0
H366 H 0.29992 0.09123 0.62476 0.0
H367 H 0.21716 0.098 0.60704 0.0
C368 C 0.45777 0.76737 0.17994 0.0
C369 C 0.43687 0.78469 0.17929 0.0
C370 C 0.4176 0.76303 0.26088 0.0
C371 C 0.41706 0.78257 0.21941 0.0
C372 C 0.43854 0.74574 0.26141 0.0
C373 C 0.45846 0.74801 0.22161 0.0
U374 U 0.47757 0.76914 0.02409 0.0
O375 O 0.50696 0.79191 0.97893 0.0
O376 O 0.50858 0.74957 0.97703 0.0
C377 C 0.52012 0.77132 0.96379 0.0
C378 C 0.47832 0.76851 0.13625 0.0
C379 C 0.5484 0.77257 0.97266 0.0
C380 C 0.58856 0.75551 0.01174 0.0
C381 C 0.56157 0.75499 0.00793 0.0
C382 C 0.58958 0.79163 0.94666 0.0
C383 C 0.6029 0.77356 0.98035 0.0
C384 C 0.56266 0.79103 0.94264 0.0
C385 C 0.42018 0.76716 0.91658 0.0
C386 C 0.42057 0.75651 0.81509 0.0
C387 C 0.38154 0.77278 0.85889 0.0
C388 C 0.39431 0.77459 0.91147 0.0
C389 C 0.39446 0.76366 0.8101 0.0
C390 C 0.4334 0.75833 0.86799 0.0
C391 C 0.43213 0.76752 0.97381 0.0
O392 O 0.48102 0.74759 0.10481 0.0
O393 O 0.4797 0.78988 0.10633 0.0
O394 O 0.44338 0.78915 0.98964 0.0
O395 O 0.44516 0.74682 0.98849 0.0
H396 H 0.43561 0.79972 0.14742 0.0
H397 H 0.40124 0.7962 0.21784 0.0
H398 H 0.43924 0.73002 0.29168 0.0
H399 H 0.47422 0.73428 0.22269 0.0
H400 H 0.59827 0.74138 0.03817 0.0
H401 H 0.55109 0.74057 0.03178 0.0
H402 H 0.59999 0.80622 0.92316 0.0
H403 H 0.55295 0.80484 0.91534 0.0
H404 H 0.43096 0.74932 0.77823 0.0
H405 H 0.36126 0.77776 0.8569 0.0
H406 H 0.38374 0.78122 0.94861 0.0
H407 H 0.4534 0.75244 0.8712 0.0
C408 C 0.16237 0.25467 0.20216 0.0
C409 C 0.15869 0.24699 0.14479 0.0
C410 C 0.14137 0.25914 0.23846 0.0
C411 C 0.11577 0.25629 0.2189 0.0
H412 H 0.18165 0.25662 0.21977 0.0
H413 H 0.14526 0.26428 0.28267 0.0
S414 S 0.09549 0.23943 0.07078 0.0
N415 N 0.12731 0.23847 0.06912 0.0
N416 N 0.08793 0.24735 0.13709 0.0
C417 C 0.11178 0.24946 0.16117 0.0
C418 C 0.13317 0.24473 0.12423 0.0
C419 C 0.28051 0.64059 0.64231 0.0
C420 C 0.26592 0.66354 0.64456 0.0
C421 C 0.27542 0.61989 0.67891 0.0
C422 C 0.25551 0.62118 0.71938 0.0
H423 H 0.29652 0.63874 0.61303 0.0
H424 H 0.28771 0.60302 0.67662 0.0
S425 S 0.20961 0.6754 0.7388 0.0
N426 N 0.22926 0.68531 0.68814 0.0
N427 N 0.21971 0.6463 0.75656 0.0
C428 C 0.24013 0.64353 0.72085 0.0
C429 C 0.24529 0.66468 0.68356 0.0
C430 C 0.83782 0.75356 0.20453 0.0
C431 C 0.84433 0.76849 0.15651 0.0
C432 C 0.85547 0.74945 0.24919 0.0
C433 C 0.88044 0.76003 0.24781 0.0
H434 H 0.81857 0.7457 0.20895 0.0
H435 H 0.84911 0.73879 0.28624 0.0
S436 S 0.90866 0.79744 0.12878 0.0
N437 N 0.87867 0.79175 0.10808 0.0
N438 N 0.91178 0.78381 0.1921 0.0
C439 C 0.88776 0.77383 0.19892 0.0
C440 C 0.86977 0.77806 0.15328 0.0
C441 C 0.72753 0.36816 0.67323 0.0
C442 C 0.74531 0.34917 0.65596 0.0
C443 C 0.73286 0.38459 0.71983 0.0
C444 C 0.75623 0.38272 0.75054 0.0
H445 H 0.70882 0.36949 0.65255 0.0
H446 H 0.71806 0.39795 0.73362 0.0
S447 S 0.81105 0.33948 0.71587 0.0
N448 N 0.78845 0.33162 0.6688 0.0
N449 N 0.79861 0.36276 0.7555 0.0
C450 C 0.77486 0.36506 0.73109 0.0
C451 C 0.76937 0.34823 0.68405 0.0
C452 C 0.66672 0.25208 0.31978 0.0
C453 C 0.66516 0.27512 0.35178 0.0
C454 C 0.65005 0.24726 0.27356 0.0
C455 C 0.63117 0.2653 0.25715 0.0
H456 H 0.68142 0.23788 0.32948 0.0
H457 H 0.65248 0.22955 0.24935 0.0
S458 S 0.61815 0.32811 0.32816 0.0
N459 N 0.64222 0.31564 0.3654 0.0
N460 N 0.61118 0.30669 0.27784 0.0
C461 C 0.62855 0.28788 0.29027 0.0
C462 C 0.64547 0.29276 0.33771 0.0
C463 C 0.23354 0.14943 0.85348 0.0
C464 C 0.24799 0.17243 0.85797 0.0
C465 C 0.23712 0.1321 0.80792 0.0
C466 C 0.25546 0.13685 0.7652 0.0
H467 H 0.21858 0.14516 0.88414 0.0
H468 H 0.22499 0.1151 0.80538 0.0
S469 S 0.29967 0.19304 0.75853 0.0
N470 N 0.28265 0.19802 0.817 0.0
N471 N 0.28905 0.16555 0.73131 0.0
C472 C 0.27087 0.15908 0.77036 0.0
C473 C 0.26722 0.17681 0.81668 0.0
C474 C 0.34924 0.75682 0.31825 0.0
C475 C 0.35315 0.75087 0.37635 0.0
C476 C 0.37012 0.76118 0.28161 0.0
C477 C 0.39578 0.75997 0.30163 0.0
H478 H 0.32992 0.75721 0.30033 0.0
H479 H 0.36611 0.76474 0.23682 0.0
S480 S 0.41636 0.74854 0.45175 0.0
N481 N 0.38461 0.74611 0.4532 0.0
N482 N 0.42376 0.75489 0.38469 0.0
C483 C 0.39992 0.75517 0.36017 0.0
C484 C 0.37866 0.7505 0.39739 0.0
C485 C 0.77995 0.87817 0.87364 0.0
C486 C 0.76622 0.85476 0.86891 0.0
C487 C 0.77502 0.89884 0.83667 0.0
C488 C 0.75614 0.89704 0.79336 0.0
H489 H 0.79515 0.88043 0.90527 0.0
H490 H 0.78662 0.91613 0.84106 0.0
S491 S 0.71268 0.84132 0.76644 0.0
N492 N 0.73144 0.83189 0.81969 0.0
N493 N 0.72217 0.87083 0.75066 0.0
C494 C 0.74162 0.87416 0.78927 0.0
C495 C 0.74663 0.85305 0.82689 0.0
C496 C 0.85336 0.7551 0.83203 0.0
C497 C 0.85332 0.77565 0.87186 0.0
C498 C 0.87434 0.7509 0.79537 0.0
C499 C 0.896 0.76724 0.79655 0.0
H500 H 0.83695 0.74224 0.82864 0.0
H501 H 0.87329 0.73514 0.7648 0.0
S502 S 0.90659 0.82282 0.8944 0.0
N503 N 0.87776 0.81188 0.91143 0.0
N504 N 0.9169 0.80385 0.84244 0.0
C505 C 0.89657 0.78744 0.83682 0.0
C506 C 0.87535 0.79165 0.8745 0.0
C507 C 0.7336 0.38013 0.37195 0.0
C508 C 0.74803 0.35708 0.36974 0.0
C509 C 0.73867 0.40068 0.33491 0.0
C510 C 0.75837 0.39911 0.294 0.0
H511 H 0.7177 0.38217 0.40148 0.0
H512 H 0.72648 0.41763 0.33715 0.0
S513 S 0.80388 0.34456 0.27459 0.0
N514 N 0.78439 0.33494 0.32583 0.0
N515 N 0.79388 0.37366 0.25655 0.0
C516 C 0.77363 0.37668 0.29264 0.0
C517 C 0.7685 0.35569 0.33039 0.0
C518 C 0.14519 0.23611 0.85083 0.0
C519 C 0.16646 0.2527 0.85932 0.0
C520 C 0.12795 0.23957 0.80505 0.0
C521 C 0.13104 0.25992 0.7662 0.0
H522 H 0.14236 0.21959 0.87823 0.0
H523 H 0.11244 0.22578 0.79913 0.0
S524 S 0.18191 0.31023 0.77176 0.0
N525 N 0.18834 0.29152 0.82694 0.0
N526 N 0.156 0.29779 0.74082 0.0
C527 C 0.15133 0.27746 0.77573 0.0
C528 C 0.16901 0.2739 0.82223 0.0
C529 C 0.24812 0.67004 0.32625 0.0
C530 C 0.27119 0.66865 0.35822 0.0
C531 C 0.24354 0.65362 0.27952 0.0
C532 C 0.26186 0.63513 0.26254 0.0
H533 H 0.23371 0.68448 0.33632 0.0
H534 H 0.2258 0.65594 0.25534 0.0
S535 S 0.32483 0.62252 0.33331 0.0
N536 N 0.31204 0.64619 0.37123 0.0
N537 N 0.30351 0.61557 0.28275 0.0
C538 C 0.28447 0.63261 0.29565 0.0
C539 C 0.28911 0.6493 0.3436 0.0
C540 C 0.36429 0.7309 0.68007 0.0
C541 C 0.34612 0.74923 0.6613 0.0
C542 C 0.38084 0.73617 0.72649 0.0
C543 C 0.37993 0.76001 0.75554 0.0
H544 H 0.36484 0.71187 0.66076 0.0
H545 H 0.3935 0.72099 0.74151 0.0
S546 S 0.33923 0.81615 0.71638 0.0
N547 N 0.33048 0.79327 0.67082 0.0
N548 N 0.36186 0.80328 0.75721 0.0
C549 C 0.36316 0.77912 0.73452 0.0
C550 C 0.3462 0.7737 0.68764 0.0
C551 C 0.77374 0.87083 0.16088 0.0
C552 C 0.76058 0.84703 0.15794 0.0
C553 C 0.76992 0.88813 0.20641 0.0
C554 C 0.75261 0.88252 0.2507 0.0
H555 H 0.78789 0.87584 0.12892 0.0
H556 H 0.78106 0.90581 0.20765 0.0
S557 S 0.71195 0.82388 0.26214 0.0
N558 N 0.7282 0.81966 0.20232 0.0
N559 N 0.72138 0.85207 0.28791 0.0
C560 C 0.73844 0.85943 0.24719 0.0
C561 C 0.74232 0.84174 0.20088 0.0
C562 C 0.63737 0.28805 0.63861 0.0
C563 C 0.65859 0.27104 0.63719 0.0
C564 C 0.61662 0.28407 0.67564 0.0
C565 C 0.61598 0.26276 0.71243 0.0
H566 H 0.63699 0.30508 0.61199 0.0
H567 H 0.601 0.29796 0.6758 0.0
S568 S 0.66579 0.21168 0.72418 0.0
N569 N 0.67704 0.23138 0.67496 0.0
N570 N 0.63789 0.22398 0.74444 0.0
C571 C 0.63658 0.24514 0.71052 0.0
C572 C 0.65791 0.24928 0.67306 0.0
C573 C 0.22802 0.14174 0.14367 0.0
C574 C 0.24329 0.16424 0.14579 0.0
C575 C 0.2327 0.12097 0.18056 0.0
C576 C 0.25283 0.12179 0.22115 0.0
H577 H 0.21184 0.14033 0.11426 0.0
H578 H 0.21996 0.10442 0.17835 0.0
S579 S 0.3004 0.17468 0.24013 0.0
N580 N 0.2808 0.18504 0.18929 0.0
N581 N 0.28952 0.14595 0.25819 0.0
C582 C 0.26884 0.14369 0.22247 0.0
C583 C 0.26412 0.16488 0.18493 0.0
C584 C 0.24661 0.34493 0.97895 0.0
C585 C 0.23956 0.32973 0.02623 0.0
C586 C 0.24723 0.37199 0.98245 0.0
C587 C 0.24084 0.38501 0.03337 0.0
H588 H 0.25226 0.3359 0.93905 0.0
H589 H 0.25339 0.38276 0.94539 0.0
S590 S 0.21829 0.35478 0.16762 0.0
N591 N 0.2242 0.33019 0.12453 0.0
N592 N 0.22521 0.38089 0.13065 0.0
C593 C 0.23293 0.3702 0.08035 0.0
C594 C 0.23231 0.34266 0.0769 0.0
C595 C 0.17512 0.74826 0.44987 0.0
C596 C 0.18816 0.7415 0.5007 0.0
C597 C 0.1481 0.74761 0.44604 0.0
C598 C 0.13289 0.74016 0.4928 0.0
H599 H 0.1858 0.75448 0.41274 0.0
H600 H 0.13902 0.7534 0.40627 0.0
S601 S 0.1572 0.71864 0.63429 0.0
N602 N 0.1835 0.72583 0.59823 0.0
N603 N 0.13281 0.72451 0.59053 0.0
C604 C 0.14557 0.73291 0.54357 0.0
C605 C 0.17313 0.73357 0.5476 0.0
C606 C 0.76941 0.6767 0.94032 0.0
C607 C 0.77392 0.6897 0.99254 0.0
C608 C 0.76983 0.64967 0.93678 0.0
C609 C 0.77483 0.63442 0.98523 0.0
H610 H 0.76504 0.68743 0.90184 0.0
H611 H 0.76571 0.64063 0.89584 0.0
S612 S 0.79019 0.65867 0.13116 0.0
N613 N 0.785 0.685 0.09339 0.0
N614 N 0.78604 0.6343 0.0863 0.0
C615 C 0.77995 0.64709 0.03745 0.0
C616 C 0.77946 0.67464 0.04119 0.0
C617 C 0.83633 0.26812 0.56279 0.0
C618 C 0.82361 0.27537 0.51191 0.0
C619 C 0.86333 0.26844 0.56728 0.0
C620 C 0.87884 0.27606 0.52116 0.0
H621 H 0.8254 0.26183 0.59951 0.0
H622 H 0.87214 0.26232 0.60709 0.0
S623 S 0.85545 0.29875 0.37981 0.0
N624 N 0.82891 0.29158 0.415 0.0
N625 N 0.87957 0.29233 0.42395 0.0
C626 C 0.86649 0.28374 0.47031 0.0
C627 C 0.83895 0.28339 0.4656 0.0
C628 C 0.74262 0.17649 0.54044 0.0
C629 C 0.73802 0.19177 0.49168 0.0
C630 C 0.74309 0.14943 0.53699 0.0
C631 C 0.73896 0.1365 0.48466 0.0
H632 H 0.7465 0.18547 0.58156 0.0
H633 H 0.74737 0.13857 0.57535 0.0
S634 S 0.72301 0.16706 0.34566 0.0
N635 N 0.72724 0.19157 0.39013 0.0
N636 N 0.72791 0.14085 0.384 0.0
C637 C 0.73343 0.15142 0.43601 0.0
C638 C 0.733 0.17897 0.43942 0.0
C639 C 0.33919 0.24897 0.9752 0.0
C640 C 0.32419 0.2446 0.02435 0.0
C641 C 0.36626 0.24844 0.97743 0.0
C642 C 0.37955 0.24332 0.02876 0.0
H643 H 0.33002 0.25314 0.93453 0.0
H644 H 0.37687 0.25199 0.93847 0.0
S645 S 0.34981 0.23041 0.16979 0.0
N646 N 0.32504 0.23461 0.12611 0.0
N647 N 0.37578 0.234 0.13014 0.0
C648 C 0.36491 0.23869 0.07815 0.0
C649 C 0.33733 0.23926 0.07601 0.0
C650 C 0.27241 0.84067 0.56716 0.0
C651 C 0.27088 0.82782 0.51391 0.0
C652 C 0.27175 0.86768 0.57103 0.0
C653 C 0.26956 0.88311 0.52189 0.0
H654 H 0.27405 0.82982 0.60647 0.0
H655 H 0.27301 0.87657 0.61301 0.0
S656 S 0.26443 0.8595 0.37213 0.0
N657 N 0.26699 0.83301 0.41062 0.0
N658 N 0.26548 0.88367 0.41835 0.0
C659 C 0.26822 0.87067 0.46835 0.0
C660 C 0.26893 0.84312 0.46426 0.0
C661 C 0.67185 0.77155 0.0378 0.0
C662 C 0.68704 0.77249 0.98795 0.0
C663 C 0.64479 0.77189 0.03498 0.0
C664 C 0.63166 0.77331 0.98225 0.0
H665 H 0.68087 0.77049 0.07964 0.0
H666 H 0.63404 0.77127 0.07455 0.0
S667 S 0.66184 0.77544 0.83876 0.0
N668 N 0.68647 0.77461 0.88378 0.0
N669 N 0.63575 0.7749 0.87884 0.0
C670 C 0.64647 0.77419 0.93204 0.0
C671 C 0.67405 0.77385 0.93479 0.0
loop_
_geom_bond_atom_site_label_1
_geom_bond_atom_site_label_2
_geom_bond_distance
_geom_bond_site_symmetry_2
_ccdc_geom_bond_type
Sc0 O3 2.025 . S
Sc0 O10 2.105 . S
Sc0 O13 2.105 . S
Sc0 O16 2.105 . S
Sc0 O19 2.105 . S
Sc1 O3 2.025 . S
Sc1 O11 2.113 . S
Sc1 O15 2.097 1_554 S
Sc1 O17 2.113 . S
Sc1 O21 2.097 1_554 S
Sc2 O3 2.025 1_556 S
Sc2 O12 2.105 . S
Sc2 O14 2.105 . S
Sc2 O18 2.105 . S
Sc2 O20 2.105 . S
O3 Sc0 2.025 . S
O3 Sc1 2.025 . S
O3 Sc2 2.025 1_554 S
C4 O10 1.268 . S
C4 O20 1.268 1_554 S
C5 O11 1.268 . S
C5 O19 1.268 . S
C6 O12 1.268 . S
C6 O21 1.268 . S
C7 O13 1.268 . S
C7 O17 1.268 . S
C8 O14 1.268 1_554 S
C8 O16 1.268 . S
C9 O15 1.268 . S
C9 O18 1.268 . S
O10 Sc0 2.105 . S
O10 C4 1.268 . S
O11 Sc1 2.113 . S
O11 C5 1.268 . S
O12 Sc2 2.105 . S
O12 C6 1.268 . S
O13 Sc0 2.105 . S
O13 C7 1.268 . S
O14 Sc2 2.105 . S
O14 C8 1.268 1_556 S
O15 Sc1 2.097 1_556 S
O15 C9 1.268 . S
O16 Sc0 2.105 . S
O16 C8 1.268 . S
O17 Sc1 2.113 . S
O17 C7 1.268 . S
O18 Sc2 2.105 . S
O18 C9 1.268 . S
O19 Sc0 2.105 . S
O19 C5 1.268 . S
O20 Sc2 2.105 . S
O20 C4 1.268 1_556 S
O21 Sc1 2.097 1_556 S
O21 C6 1.268 . S
Sc22 O25 2.025 . S
Sc22 O32 2.105 . S
Sc22 O35 2.105 . S
Sc22 O38 2.105 . S
Sc22 O41 2.105 . S
Sc23 O25 2.025 . S
Sc23 O33 2.105 . S
Sc23 O37 2.105 . S
Sc23 O39 2.105 . S
Sc23 O43 2.105 . S
Sc24 O25 2.025 . S
Sc24 O34 2.105 . S
Sc24 O36 2.105 . S
Sc24 O40 2.105 . S
Sc24 O42 2.105 . S
O25 Sc22 2.025 . S
O25 Sc23 2.025 . S
O25 Sc24 2.025 . S
C26 O32 1.268 . S
C26 O42 1.268 . S
C27 O33 1.268 . S
C27 O41 1.268 . S
C28 O34 1.268 . S
C28 O43 1.268 . S
C29 O35 1.268 . S
C29 O39 1.268 . S
C30 O36 1.268 . S
C30 O38 1.268 . S
C31 O37 1.268 . S
C31 O40 1.268 . S
O32 Sc22 2.105 . S
O32 C26 1.268 . S
O33 Sc23 2.105 . S
O33 C27 1.268 . S
O34 Sc24 2.105 . S
O34 C28 1.268 . S
O35 Sc22 2.105 . S
O35 C29 1.268 . S
O36 Sc24 2.105 . S
O36 C30 1.268 . S
O37 Sc23 2.105 . S
O37 C31 1.268 . S
O38 Sc22 2.105 . S
O38 C30 1.268 . S
O39 Sc23 2.105 . S
O39 C29 1.268 . S
O40 Sc24 2.105 . S
O40 C31 1.268 . S
O41 Sc22 2.105 . S
O41 C27 1.268 . S
O42 Sc24 2.105 . S
O42 C26 1.268 . S
O43 Sc23 2.105 . S
O43 C28 1.268 . S
Sc44 O47 2.025 1_556 S
Sc44 O54 2.105 . S
Sc44 O57 2.105 . S
Sc44 O60 2.105 . S
Sc44 O63 2.105 . S
Sc45 O47 2.025 . S
Sc45 O55 2.105 1_554 S
Sc45 O59 2.105 . S
Sc45 O61 2.105 1_554 S
Sc45 O65 2.105 . S
Sc46 O47 2.025 . S
Sc46 O56 2.105 . S
Sc46 O58 2.105 . S
Sc46 O62 2.105 . S
Sc46 O64 2.105 . S
O47 Sc44 2.025 1_554 S
O47 Sc45 2.025 . S
O47 Sc46 2.025 . S
C48 O54 1.268 1_554 S
C48 O64 1.268 . S
C49 O55 1.268 . S
C49 O63 1.268 . S
C50 O56 1.268 . S
C50 O65 1.268 . S
C51 O57 1.268 . S
C51 O61 1.268 . S
C52 O58 1.268 . S
C52 O60 1.268 1_554 S
C53 O59 1.268 . S
C53 O62 1.268 . S
O54 Sc44 2.105 . S
O54 C48 1.268 1_556 S
O55 Sc45 2.105 1_556 S
O55 C49 1.268 . S
O56 Sc46 2.105 . S
O56 C50 1.268 . S
O57 Sc44 2.105 . S
O57 C51 1.268 . S
O58 Sc46 2.105 . S
O58 C52 1.268 . S
O59 Sc45 2.105 . S
O59 C53 1.268 . S
O60 Sc44 2.105 . S
O60 C52 1.268 1_556 S
O61 Sc45 2.105 1_556 S
O61 C51 1.268 . S
O62 Sc46 2.105 . S
O62 C53 1.268 . S
O63 Sc44 2.105 . S
O63 C49 1.268 . S
O64 Sc46 2.105 . S
O64 C48 1.268 . S
O65 Sc45 2.105 . S
O65 C50 1.268 . S
Sc66 O69 2.025 . S
Sc66 O76 2.105 . S
Sc66 O79 2.105 . S
Sc66 O82 2.105 . S
Sc66 O85 2.105 . S
Sc67 O69 2.025 . S
Sc67 O77 2.105 . S
Sc67 O81 2.105 . S
Sc67 O83 2.105 . S
Sc67 O87 2.105 . S
Sc68 O69 2.025 . S
Sc68 O78 2.105 . S
Sc68 O80 2.105 . S
Sc68 O84 2.105 . S
Sc68 O86 2.105 . S
O69 Sc66 2.025 . S
O69 Sc67 2.025 . S
O69 Sc68 2.025 . S
C70 O76 1.268 . S
C70 O86 1.268 . S
C71 O77 1.268 . S
C71 O85 1.268 . S
C72 O78 1.268 . S
C72 O87 1.268 . S
C73 O79 1.268 . S
C73 O83 1.268 . S
C74 O80 1.268 . S
C74 O82 1.268 . S
C75 O81 1.268 . S
C75 O84 1.268 . S
O76 Sc66 2.105 . S
O76 C70 1.268 . S
O77 Sc67 2.105 . S
O77 C71 1.268 . S
O78 Sc68 2.105 . S
O78 C72 1.268 . S
O79 Sc66 2.105 . S
O79 C73 1.268 . S
O80 Sc68 2.105 . S
O80 C74 1.268 . S
O81 Sc67 2.105 . S
O81 C75 1.268 . S
O82 Sc66 2.105 . S
O82 C74 1.268 . S
O83 Sc67 2.105 . S
O83 C73 1.268 . S
O84 Sc68 2.105 . S
O84 C75 1.268 . S
O85 Sc66 2.105 . S
O85 C71 1.268 . S
O86 Sc68 2.105 . S
O86 C70 1.268 . S
O87 Sc67 2.105 . S
O87 C72 1.268 . S
C88 C89 1.264 . S
C88 C93 1.479 . S
C88 C98 1.465 . S
C89 C88 1.264 . S
C89 C91 1.339 . S
C89 H116 0.931 . S
C90 C91 1.395 . S
C90 C92 1.320 . S
C91 C89 1.339 . S
C91 C90 1.395 . S
C91 H117 0.929 . S
C92 C90 1.320 . S
C92 C93 1.405 . S
C92 H118 0.930 . S
C93 C88 1.479 . S
C93 C92 1.405 . S
C93 H119 0.931 . S
U94 O95 2.454 . S
U94 O96 2.458 1_556 S
U94 C97 2.984 . S
U94 C98 2.847 . S
U94 C111 2.882 1_556 S
U94 O112 2.441 . S
U94 O113 2.420 . S
U94 O114 2.455 1_556 S
U94 O115 2.449 1_556 S
O95 U94 2.454 . S
O95 C97 1.353 . S
O96 U94 2.458 1_554 S
O96 C97 1.286 1_554 S
C97 U94 2.984 . S
C97 O95 1.353 . S
C97 O96 1.286 1_556 S
C97 C99 1.363 . S
C98 C88 1.465 . S
C98 U94 2.847 . S
C98 O112 1.249 . S
C98 O113 1.202 . S
C99 C97 1.363 . S
C99 C101 1.418 . S
C99 C104 1.332 1_556 S
C100 C101 1.310 . S
C100 C103 1.461 1_556 S
C100 H120 0.932 . S
C101 C99 1.418 . S
C101 C100 1.310 . S
C101 H121 0.930 . S
C102 C103 1.474 . S
C102 C104 1.285 . S
C102 H122 0.929 . S
C103 C100 1.461 1_554 S
C103 C102 1.474 . S
C104 C99 1.332 1_554 S
C104 C102 1.285 . S
C104 H123 0.930 . S
C105 C108 1.424 . S
C105 C110 1.245 . S
C105 C111 1.428 . S
C106 C109 1.260 . S
C106 C110 1.477 . S
C106 H124 0.932 . S
C107 C108 1.384 . S
C107 C109 1.479 . S
C107 H125 0.929 . S
C108 C105 1.424 . S
C108 C107 1.384 . S
C108 H126 0.928 . S
C109 C106 1.260 . S
C109 C107 1.479 . S
C110 C105 1.245 . S
C110 C106 1.477 . S
C110 H127 0.932 . S
C111 U94 2.882 1_554 S
C111 C105 1.428 . S
C111 O114 1.301 . S
C111 O115 1.282 . S
O112 U94 2.441 . S
O112 C98 1.249 . S
O113 U94 2.420 . S
O113 C98 1.202 . S
O114 U94 2.455 1_554 S
O114 C111 1.301 . S
O115 U94 2.449 1_554 S
O115 C111 1.282 . S
H116 C89 0.931 . S
H117 C91 0.929 . S
H118 C92 0.930 . S
H119 C93 0.931 . S
H120 C100 0.932 . S
H121 C101 0.930 . S
H122 C102 0.929 . S
H123 C104 0.930 . S
H124 C106 0.932 . S
H125 C107 0.929 . S
H126 C108 0.928 . S
H127 C110 0.932 . S
C128 C129 1.264 . S
C128 C133 1.479 . S
C128 C138 1.465 . S
C129 C128 1.264 . S
C129 C131 1.339 . S
C129 H156 0.931 . S
C130 C131 1.395 . S
C130 C132 1.320 . S
C131 C129 1.339 . S
C131 C130 1.395 . S
C131 H157 0.929 . S
C132 C130 1.320 . S
C132 C133 1.405 . S
C132 H158 0.930 . S
C133 C128 1.479 . S
C133 C132 1.405 . S
C133 H159 0.931 . S
U134 O135 2.454 1_655 S
U134 O136 2.458 1_655 S
U134 C137 2.984 1_655 S
U134 C138 2.847 . S
U134 C151 2.882 . S
U134 O152 2.441 . S
U134 O153 2.420 . S
U134 O154 2.455 . S
U134 O155 2.449 . S
O135 U134 2.454 1_455 S
O135 C137 1.353 . S
O136 U134 2.458 1_455 S
O136 C137 1.286 . S
C137 U134 2.984 1_455 S
C137 O135 1.353 . S
C137 O136 1.286 . S
C137 C139 1.363 . S
C138 C128 1.465 . S
C138 U134 2.847 . S
C138 O152 1.249 . S
C138 O153 1.202 . S
C139 C137 1.363 . S
C139 C141 1.408 . S
C139 C144 1.342 . S
C140 C141 1.310 . S
C140 C143 1.461 . S
C140 H160 0.932 . S
C141 C139 1.408 . S
C141 C140 1.310 . S
C141 H161 0.930 . S
C142 C143 1.474 . S
C142 C144 1.285 . S
C142 H162 0.929 . S
C143 C140 1.461 . S
C143 C142 1.474 . S
C144 C139 1.342 . S
C144 C142 1.285 . S
C144 H163 0.930 . S
C145 C148 1.424 . S
C145 C150 1.245 . S
C145 C151 1.428 . S
C146 C149 1.260 . S
C146 C150 1.477 . S
C146 H164 0.932 . S
C147 C148 1.384 . S
C147 C149 1.479 . S
C147 H165 0.929 . S
C148 C145 1.424 . S
C148 C147 1.384 . S
C148 H166 0.928 . S
C149 C146 1.260 . S
C149 C147 1.479 . S
C150 C145 1.245 . S
C150 C146 1.477 . S
C150 H167 0.932 . S
C151 U134 2.882 . S
C151 C145 1.428 . S
C151 O154 1.301 . S
C151 O155 1.282 . S
O152 U134 2.441 . S
O152 C138 1.249 . S
O153 U134 2.420 . S
O153 C138 1.202 . S
O154 U134 2.455 . S
O154 C151 1.301 . S
O155 U134 2.449 . S
O155 C151 1.282 . S
H156 C129 0.931 . S
H157 C131 0.929 . S
H158 C132 0.930 . S
H159 C133 0.931 . S
H160 C140 0.932 . S
H161 C141 0.930 . S
H162 C142 0.929 . S
H163 C144 0.930 . S
H164 C146 0.932 . S
H165 C147 0.929 . S
H166 C148 0.928 . S
H167 C150 0.932 . S
C168 C169 1.264 . S
C168 C173 1.479 . S
C168 C178 1.465 . S
C169 C168 1.264 . S
C169 C171 1.339 . S
C169 H196 0.931 . S
C170 C171 1.395 . S
C170 C172 1.320 . S
C171 C169 1.339 . S
C171 C170 1.395 . S
C171 H197 0.929 . S
C172 C170 1.320 . S
C172 C173 1.405 . S
C172 H198 0.930 . S
C173 C168 1.479 . S
C173 C172 1.405 . S
C173 H199 0.931 . S
U174 O175 2.454 . S
U174 O176 2.458 1_554 S
U174 C177 2.984 . S
U174 C178 2.847 . S
U174 C191 2.882 1_554 S
U174 O192 2.441 . S
U174 O193 2.420 . S
U174 O194 2.455 1_554 S
U174 O195 2.449 1_554 S
O175 U174 2.454 . S
O175 C177 1.353 . S
O176 U174 2.458 1_556 S
O176 C177 1.286 1_556 S
C177 U174 2.984 . S
C177 O175 1.353 . S
C177 O176 1.286 1_554 S
C177 C179 1.363 . S
C178 C168 1.465 . S
C178 U174 2.847 . S
C178 O192 1.249 . S
C178 O193 1.202 . S
C179 C177 1.363 . S
C179 C181 1.408 . S
C179 C184 1.342 1_554 S
C180 C181 1.310 . S
C180 C183 1.461 . S
C180 H200 0.932 . S
C181 C179 1.408 . S
C181 C180 1.310 . S
C181 H201 0.930 . S
C182 C183 1.474 1_556 S
C182 C184 1.285 . S
C182 H202 0.929 . S
C183 C180 1.461 . S
C183 C182 1.474 1_554 S
C184 C179 1.342 1_556 S
C184 C182 1.285 . S
C184 H203 0.930 . S
C185 C188 1.424 . S
C185 C190 1.245 . S
C185 C191 1.428 . S
C186 C189 1.260 . S
C186 C190 1.477 . S
C186 H204 0.932 . S
C187 C188 1.384 . S
C187 C189 1.479 . S
C187 H205 0.929 . S
C188 C185 1.424 . S
C188 C187 1.384 . S
C188 H206 0.928 . S
C189 C186 1.260 . S
C189 C187 1.479 . S
C190 C185 1.245 . S
C190 C186 1.477 . S
C190 H207 0.932 . S
C191 U174 2.882 1_556 S
C191 C185 1.428 . S
C191 O194 1.301 . S
C191 O195 1.282 . S
O192 U174 2.441 . S
O192 C178 1.249 . S
O193 U174 2.420 . S
O193 C178 1.202 . S
O194 U174 2.455 1_556 S
O194 C191 1.301 . S
O195 U174 2.449 1_556 S
O195 C191 1.282 . S
H196 C169 0.931 . S
H197 C171 0.929 . S
H198 C172 0.930 . S
H199 C173 0.931 . S
H200 C180 0.932 . S
H201 C181 0.930 . S
H202 C182 0.929 . S
H203 C184 0.930 . S
H204 C186 0.932 . S
H205 C187 0.929 . S
H206 C188 0.928 . S
H207 C190 0.932 . S
C208 C209 1.264 . S
C208 C213 1.479 . S
C208 C218 1.465 . S
C209 C208 1.264 . S
C209 C211 1.339 . S
C209 H236 0.931 . S
C210 C211 1.395 . S
C210 C212 1.320 . S
C211 C209 1.339 . S
C211 C210 1.395 . S
C211 H237 0.929 . S
C212 C210 1.320 . S
C212 C213 1.405 . S
C212 H238 0.930 . S
C213 C208 1.479 . S
C213 C212 1.405 . S
C213 H239 0.931 . S
U214 O215 2.454 1_455 S
U214 O216 2.458 1_455 S
U214 C217 2.984 1_455 S
U214 C218 2.847 . S
U214 C231 2.882 . S
U214 O232 2.441 . S
U214 O233 2.420 . S
U214 O234 2.455 . S
U214 O235 2.449 . S
O215 U214 2.454 1_655 S
O215 C217 1.353 . S
O216 U214 2.458 1_655 S
O216 C217 1.286 . S
C217 U214 2.984 1_655 S
C217 O215 1.353 . S
C217 O216 1.286 . S
C217 C219 1.363 . S
C218 C208 1.465 . S
C218 U214 2.847 . S
C218 O232 1.249 . S
C218 O233 1.202 . S
C219 C217 1.363 . S
C219 C221 1.408 . S
C219 C224 1.342 . S
C220 C221 1.310 . S
C220 C223 1.461 . S
C220 H240 0.932 . S
C221 C219 1.408 . S
C221 C220 1.310 . S
C221 H241 0.930 . S
C222 C223 1.474 . S
C222 C224 1.285 . S
C222 H242 0.929 . S
C223 C220 1.461 . S
C223 C222 1.474 . S
C224 C219 1.342 . S
C224 C222 1.285 . S
C224 H243 0.930 . S
C225 C228 1.424 . S
C225 C230 1.245 . S
C225 C231 1.428 . S
C226 C229 1.260 . S
C226 C230 1.477 . S
C226 H244 0.932 . S
C227 C228 1.384 . S
C227 C229 1.479 . S
C227 H245 0.929 . S
C228 C225 1.424 . S
C228 C227 1.384 . S
C228 H246 0.928 . S
C229 C226 1.260 . S
C229 C227 1.479 . S
C230 C225 1.245 . S
C230 C226 1.477 . S
C230 H247 0.932 . S
C231 U214 2.882 . S
C231 C225 1.428 . S
C231 O234 1.301 . S
C231 O235 1.282 . S
O232 U214 2.441 . S
O232 C218 1.249 . S
O233 U214 2.420 . S
O233 C218 1.202 . S
O234 U214 2.455 . S
O234 C231 1.301 . S
O235 U214 2.449 . S
O235 C231 1.282 . S
H236 C209 0.931 . S
H237 C211 0.929 . S
H238 C212 0.930 . S
H239 C213 0.931 . S
H240 C220 0.932 . S
H241 C221 0.930 . S
H242 C222 0.929 . S
H243 C224 0.930 . S
H244 C226 0.932 . S
H245 C227 0.929 . S
H246 C228 0.928 . S
H247 C230 0.932 . S
C248 C249 1.264 . S
C248 C253 1.479 . S
C248 C258 1.465 . S
C249 C248 1.264 . S
C249 C251 1.339 . S
C249 H276 0.931 . S
C250 C251 1.395 . S
C250 C252 1.320 . S
C251 C249 1.339 . S
C251 C250 1.395 . S
C251 H277 0.929 . S
C252 C250 1.320 . S
C252 C253 1.405 . S
C252 H278 0.930 . S
C253 C248 1.479 . S
C253 C252 1.405 . S
C253 H279 0.931 . S
U254 O255 2.454 1_565 S
U254 O256 2.458 1_565 S
U254 C257 2.984 1_565 S
U254 C258 2.847 . S
U254 C271 2.882 . S
U254 O272 2.441 . S
U254 O273 2.420 . S
U254 O274 2.455 . S
U254 O275 2.449 . S
O255 U254 2.454 1_545 S
O255 C257 1.353 . S
O256 U254 2.458 1_545 S
O256 C257 1.286 . S
C257 U254 2.984 1_545 S
C257 O255 1.353 . S
C257 O256 1.286 . S
C257 C259 1.363 . S
C258 C248 1.465 . S
C258 U254 2.847 . S
C258 O272 1.249 . S
C258 O273 1.202 . S
C259 C257 1.363 . S
C259 C261 1.408 . S
C259 C264 1.342 . S
C260 C261 1.310 . S
C260 C263 1.461 . S
C260 H280 0.932 . S
C261 C259 1.408 . S
C261 C260 1.310 . S
C261 H281 0.930 . S
C262 C263 1.474 . S
C262 C264 1.285 . S
C262 H282 0.929 . S
C263 C260 1.461 . S
C263 C262 1.474 . S
C264 C259 1.342 . S
C264 C262 1.285 . S
C264 H283 0.930 . S
C265 C268 1.424 . S
C265 C270 1.245 . S
C265 C271 1.428 . S
C266 C269 1.260 . S
C266 C270 1.477 . S
C266 H284 0.932 . S
C267 C268 1.384 . S
C267 C269 1.479 . S
C267 H285 0.929 . S
C268 C265 1.424 . S
C268 C267 1.384 . S
C268 H286 0.928 . S
C269 C266 1.260 . S
C269 C267 1.479 . S
C270 C265 1.245 . S
C270 C266 1.477 . S
C270 H287 0.932 . S
C271 U254 2.882 . S
C271 C265 1.428 . S
C271 O274 1.301 . S
C271 O275 1.282 . S
O272 U254 2.441 . S
O272 C258 1.249 . S
O273 U254 2.420 . S
O273 C258 1.202 . S
O274 U254 2.455 . S
O274 C271 1.301 . S
O275 U254 2.449 . S
O275 C271 1.282 . S
H276 C249 0.931 . S
H277 C251 0.929 . S
H278 C252 0.930 . S
H279 C253 0.931 . S
H280 C260 0.932 . S
H281 C261 0.930 . S
H282 C262 0.929 . S
H283 C264 0.930 . S
H284 C266 0.932 . S
H285 C267 0.929 . S
H286 C268 0.928 . S
H287 C270 0.932 . S
C288 C289 1.264 . S
C288 C293 1.479 . S
C288 C298 1.465 . S
C289 C288 1.264 . S
C289 C291 1.339 . S
C289 H316 0.931 . S
C290 C291 1.395 . S
C290 C292 1.320 . S
C291 C289 1.339 . S
C291 C290 1.395 . S
C291 H317 0.929 . S
C292 C290 1.320 . S
C292 C293 1.405 . S
C292 H318 0.930 . S
C293 C288 1.479 . S
C293 C292 1.405 . S
C293 H319 0.931 . S
U294 O295 2.454 . S
U294 O296 2.458 1_556 S
U294 C297 2.984 . S
U294 C298 2.847 . S
U294 C311 2.882 1_556 S
U294 O312 2.441 . S
U294 O313 2.420 . S
U294 O314 2.455 1_556 S
U294 O315 2.449 1_556 S
O295 U294 2.454 . S
O295 C297 1.353 . S
O296 U294 2.458 1_554 S
O296 C297 1.286 1_554 S
C297 U294 2.984 . S
C297 O295 1.353 . S
C297 O296 1.286 1_556 S
C297 C299 1.363 . S
C298 C288 1.465 . S
C298 U294 2.847 . S
C298 O312 1.249 . S
C298 O313 1.202 . S
C299 C297 1.363 . S
C299 C301 1.414 . S
C299 C304 1.336 1_556 S
C300 C301 1.310 . S
C300 C303 1.461 1_556 S
C300 H320 0.932 . S
C301 C299 1.414 . S
C301 C300 1.310 . S
C301 H321 0.930 . S
C302 C303 1.474 . S
C302 C304 1.285 . S
C302 H322 0.929 . S
C303 C300 1.461 1_554 S
C303 C302 1.474 . S
C304 C299 1.336 1_554 S
C304 C302 1.285 . S
C304 H323 0.930 . S
C305 C308 1.424 . S
C305 C310 1.245 . S
C305 C311 1.428 . S
C306 C309 1.260 . S
C306 C310 1.477 . S
C306 H324 0.932 . S
C307 C308 1.384 . S
C307 C309 1.479 . S
C307 H325 0.929 . S
C308 C305 1.424 . S
C308 C307 1.384 . S
C308 H326 0.928 . S
C309 C306 1.260 . S
C309 C307 1.479 . S
C310 C305 1.245 . S
C310 C306 1.477 . S
C310 H327 0.932 . S
C311 U294 2.882 1_554 S
C311 C305 1.428 . S
C311 O314 1.301 . S
C311 O315 1.282 . S
O312 U294 2.441 . S
O312 C298 1.249 . S
O313 U294 2.420 . S
O313 C298 1.202 . S
O314 U294 2.455 1_554 S
O314 C311 1.301 . S
O315 U294 2.449 1_554 S
O315 C311 1.282 . S
H316 C289 0.931 . S
H317 C291 0.929 . S
H318 C292 0.930 . S
H319 C293 0.931 . S
H320 C300 0.932 . S
H321 C301 0.930 . S
H322 C302 0.929 . S
H323 C304 0.930 . S
H324 C306 0.932 . S
H325 C307 0.929 . S
H326 C308 0.928 . S
H327 C310 0.932 . S
C328 C329 1.264 . S
C328 C333 1.479 . S
C328 C338 1.465 . S
C329 C328 1.264 . S
C329 C331 1.339 . S
C329 H356 0.931 . S
C330 C331 1.395 . S
C330 C332 1.320 . S
C331 C329 1.339 . S
C331 C330 1.395 . S
C331 H357 0.929 . S
C332 C330 1.320 . S
C332 C333 1.405 . S
C332 H358 0.930 . S
C333 C328 1.479 . S
C333 C332 1.405 . S
C333 H359 0.931 . S
U334 O335 2.454 1_545 S
U334 O336 2.458 1_545 S
U334 C337 2.984 1_545 S
U334 C338 2.847 . S
U334 C351 2.882 . S
U334 O352 2.441 . S
U334 O353 2.420 . S
U334 O354 2.455 . S
U334 O355 2.449 . S
O335 U334 2.454 1_565 S
O335 C337 1.353 . S
O336 U334 2.458 1_565 S
O336 C337 1.286 . S
C337 U334 2.984 1_565 S
C337 O335 1.353 . S
C337 O336 1.286 . S
C337 C339 1.363 . S
C338 C328 1.465 . S
C338 U334 2.847 . S
C338 O352 1.249 . S
C338 O353 1.202 . S
C339 C337 1.363 . S
C339 C341 1.408 . S
C339 C344 1.342 . S
C340 C341 1.310 . S
C340 C343 1.461 . S
C340 H360 0.932 . S
C341 C339 1.408 . S
C341 C340 1.310 . S
C341 H361 0.930 . S
C342 C343 1.474 . S
C342 C344 1.285 . S
C342 H362 0.929 . S
C343 C340 1.461 . S
C343 C342 1.474 . S
C344 C339 1.342 . S
C344 C342 1.285 . S
C344 H363 0.930 . S
C345 C348 1.424 . S
C345 C350 1.245 . S
C345 C351 1.428 . S
C346 C349 1.260 . S
C346 C350 1.477 . S
C346 H364 0.932 . S
C347 C348 1.384 . S
C347 C349 1.479 . S
C347 H365 0.929 . S
C348 C345 1.424 . S
C348 C347 1.384 . S
C348 H366 0.928 . S
C349 C346 1.260 . S
C349 C347 1.479 . S
C350 C345 1.245 . S
C350 C346 1.477 . S
C350 H367 0.932 . S
C351 U334 2.882 . S
C351 C345 1.428 . S
C351 O354 1.301 . S
C351 O355 1.282 . S
O352 U334 2.441 . S
O352 C338 1.249 . S
O353 U334 2.420 . S
O353 C338 1.202 . S
O354 U334 2.455 . S
O354 C351 1.301 . S
O355 U334 2.449 . S
O355 C351 1.282 . S
H356 C329 0.931 . S
H357 C331 0.929 . S
H358 C332 0.930 . S
H359 C333 0.931 . S
H360 C340 0.932 . S
H361 C341 0.930 . S
H362 C342 0.929 . S
H363 C344 0.930 . S
H364 C346 0.932 . S
H365 C347 0.929 . S
H366 C348 0.928 . S
H367 C350 0.932 . S
C368 C369 1.264 . S
C368 C373 1.479 . S
C368 C378 1.465 . S
C369 C368 1.264 . S
C369 C371 1.339 . S
C369 H396 0.931 . S
C370 C371 1.395 . S
C370 C372 1.320 . S
C371 C369 1.339 . S
C371 C370 1.395 . S
C371 H397 0.929 . S
C372 C370 1.320 . S
C372 C373 1.405 . S
C372 H398 0.930 . S
C373 C368 1.479 . S
C373 C372 1.405 . S
C373 H399 0.931 . S
U374 O375 2.454 . S
U374 O376 2.458 1_554 S
U374 C377 2.984 . S
U374 C378 2.847 . S
U374 C391 2.882 1_554 S
U374 O392 2.441 . S
U374 O393 2.420 . S
U374 O394 2.455 1_554 S
U374 O395 2.449 1_554 S
O375 U374 2.454 . S
O375 C377 1.353 . S
O376 U374 2.458 1_556 S
O376 C377 1.286 1_556 S
C377 U374 2.984 . S
C377 O375 1.353 . S
C377 O376 1.286 1_554 S
C377 C379 1.363 . S
C378 C368 1.465 . S
C378 U374 2.847 . S
C378 O392 1.249 . S
C378 O393 1.202 . S
C379 C377 1.363 . S
C379 C381 1.408 . S
C379 C384 1.342 1_554 S
C380 C381 1.310 . S
C380 C383 1.461 . S
C380 H400 0.932 . S
C381 C379 1.408 . S
C381 C380 1.310 . S
C381 H401 0.930 . S
C382 C383 1.474 1_556 S
C382 C384 1.285 . S
C382 H402 0.929 . S
C383 C380 1.461 . S
C383 C382 1.474 1_554 S
C384 C379 1.342 1_556 S
C384 C382 1.285 . S
C384 H403 0.930 . S
C385 C388 1.424 . S
C385 C390 1.245 . S
C385 C391 1.428 . S
C386 C389 1.260 . S
C386 C390 1.477 . S
C386 H404 0.932 . S
C387 C388 1.384 . S
C387 C389 1.479 . S
C387 H405 0.929 . S
C388 C385 1.424 . S
C388 C387 1.384 . S
C388 H406 0.928 . S
C389 C386 1.260 . S
C389 C387 1.479 . S
C390 C385 1.245 . S
C390 C386 1.477 . S
C390 H407 0.932 . S
C391 U374 2.882 1_556 S
C391 C385 1.428 . S
C391 O394 1.301 . S
C391 O395 1.282 . S
O392 U374 2.441 . S
O392 C378 1.249 . S
O393 U374 2.420 . S
O393 C378 1.202 . S
O394 U374 2.455 1_556 S
O394 C391 1.301 . S
O395 U374 2.449 1_556 S
O395 C391 1.282 . S
H396 C369 0.931 . S
H397 C371 0.929 . S
H398 C372 0.930 . S
H399 C373 0.931 . S
H400 C380 0.932 . S
H401 C381 0.930 . S
H402 C382 0.929 . S
H403 C384 0.930 . S
H404 C386 0.932 . S
H405 C387 0.929 . S
H406 C388 0.928 . S
H407 C390 0.932 . S
C408 C409 1.369 . S
C408 C410 1.419 . S
C408 H412 0.930 . S
C409 C408 1.369 . S
C409 C418 1.429 . S
C410 C408 1.419 . S
C410 C411 1.363 . S
C410 H413 0.929 . S
C411 C410 1.363 . S
C411 C417 1.428 . S
H412 C408 0.930 . S
H413 C410 0.929 . S
S414 N415 1.613 . S
S414 N416 1.610 . S
N415 S414 1.613 . S
N415 C418 1.350 . S
N416 S414 1.610 . S
N416 C417 1.351 . S
C417 C411 1.428 . S
C417 N416 1.351 . S
C417 C418 1.434 . S
C418 C409 1.429 . S
C418 N415 1.350 . S
C418 C417 1.434 . S
C419 C420 1.369 . S
C419 C421 1.419 . S
C419 H423 0.930 . S
C420 C419 1.369 . S
C420 C429 1.429 . S
C421 C419 1.419 . S
C421 C422 1.363 . S
C421 H424 0.929 . S
C422 C421 1.363 . S
C422 C428 1.428 . S
H423 C419 0.930 . S
H424 C421 0.929 . S
S425 N426 1.613 . S
S425 N427 1.610 . S
N426 S425 1.613 . S
N426 C429 1.350 . S
N427 S425 1.610 . S
N427 C428 1.351 . S
C428 C422 1.428 . S
C428 N427 1.351 . S
C428 C429 1.434 . S
C429 C420 1.429 . S
C429 N426 1.350 . S
C429 C428 1.434 . S
C430 C431 1.369 . S
C430 C432 1.419 . S
C430 H434 0.930 . S
C431 C430 1.369 . S
C431 C440 1.429 . S
C432 C430 1.419 . S
C432 C433 1.363 . S
C432 H435 0.929 . S
C433 C432 1.363 . S
C433 C439 1.428 . S
H434 C430 0.930 . S
H435 C432 0.929 . S
S436 N437 1.613 . S
S436 N438 1.610 . S
N437 S436 1.613 . S
N437 C440 1.350 . S
N438 S436 1.610 . S
N438 C439 1.351 . S
C439 C433 1.428 . S
C439 N438 1.351 . S
C439 C440 1.434 . S
C440 C431 1.429 . S
C440 N437 1.350 . S
C440 C439 1.434 . S
C441 C442 1.369 . S
C441 C443 1.419 . S
C441 H445 0.930 . S
C442 C441 1.369 . S
C442 C451 1.429 . S
C443 C441 1.419 . S
C443 C444 1.363 . S
C443 H446 0.929 . S
C444 C443 1.363 . S
C444 C450 1.428 . S
H445 C441 0.930 . S
H446 C443 0.929 . S
S447 N448 1.613 . S
S447 N449 1.610 . S
N448 S447 1.613 . S
N448 C451 1.350 . S
N449 S447 1.610 . S
N449 C450 1.351 . S
C450 C444 1.428 . S
C450 N449 1.351 . S
C450 C451 1.434 . S
C451 C442 1.429 . S
C451 N448 1.350 . S
C451 C450 1.434 . S
C452 C453 1.369 . S
C452 C454 1.419 . S
C452 H456 0.930 . S
C453 C452 1.369 . S
C453 C462 1.429 . S
C454 C452 1.419 . S
C454 C455 1.363 . S
C454 H457 0.929 . S
C455 C454 1.363 . S
C455 C461 1.428 . S
H456 C452 0.930 . S
H457 C454 0.929 . S
S458 N459 1.613 . S
S458 N460 1.610 . S
N459 S458 1.613 . S
N459 C462 1.350 . S
N460 S458 1.610 . S
N460 C461 1.351 . S
C461 C455 1.428 . S
C461 N460 1.351 . S
C461 C462 1.434 . S
C462 C453 1.429 . S
C462 N459 1.350 . S
C462 C461 1.434 . S
C463 C464 1.369 . S
C463 C465 1.419 . S
C463 H467 0.930 . S
C464 C463 1.369 . S
C464 C473 1.429 . S
C465 C463 1.419 . S
C465 C466 1.363 . S
C465 H468 0.929 . S
C466 C465 1.363 . S
C466 C472 1.428 . S
H467 C463 0.930 . S
H468 C465 0.929 . S
S469 N470 1.613 . S
S469 N471 1.610 . S
N470 S469 1.613 . S
N470 C473 1.350 . S
N471 S469 1.610 . S
N471 C472 1.351 . S
C472 C466 1.428 . S
C472 N471 1.351 . S
C472 C473 1.434 . S
C473 C464 1.429 . S
C473 N470 1.350 . S
C473 C472 1.434 . S
C474 C475 1.369 . S
C474 C476 1.419 . S
C474 H478 0.930 . S
C475 C474 1.369 . S
C475 C484 1.429 . S
C476 C474 1.419 . S
C476 C477 1.363 . S
C476 H479 0.929 . S
C477 C476 1.363 . S
C477 C483 1.428 . S
H478 C474 0.930 . S
H479 C476 0.929 . S
S480 N481 1.613 . S
S480 N482 1.610 . S
N481 S480 1.613 . S
N481 C484 1.350 . S
N482 S480 1.610 . S
N482 C483 1.351 . S
C483 C477 1.428 . S
C483 N482 1.351 . S
C483 C484 1.434 . S
C484 C475 1.429 . S
C484 N481 1.350 . S
C484 C483 1.434 . S
C485 C486 1.369 . S
C485 C487 1.419 . S
C485 H489 0.930 . S
C486 C485 1.369 . S
C486 C495 1.429 . S
C487 C485 1.419 . S
C487 C488 1.363 . S
C487 H490 0.929 . S
C488 C487 1.363 . S
C488 C494 1.428 . S
H489 C485 0.930 . S
H490 C487 0.929 . S
S491 N492 1.613 . S
S491 N493 1.610 . S
N492 S491 1.613 . S
N492 C495 1.350 . S
N493 S491 1.610 . S
N493 C494 1.351 . S
C494 C488 1.428 . S
C494 N493 1.351 . S
C494 C495 1.434 . S
C495 C486 1.429 . S
C495 N492 1.350 . S
C495 C494 1.434 . S
C496 C497 1.369 . S
C496 C498 1.419 . S
C496 H500 0.930 . S
C497 C496 1.369 . S
C497 C506 1.429 . S
C498 C496 1.419 . S
C498 C499 1.363 . S
C498 H501 0.929 . S
C499 C498 1.363 . S
C499 C505 1.428 . S
H500 C496 0.930 . S
H501 C498 0.929 . S
S502 N503 1.613 . S
S502 N504 1.610 . S
N503 S502 1.613 . S
N503 C506 1.350 . S
N504 S502 1.610 . S
N504 C505 1.351 . S
C505 C499 1.428 . S
C505 N504 1.351 . S
C505 C506 1.434 . S
C506 C497 1.429 . S
C506 N503 1.350 . S
C506 C505 1.434 . S
C507 C508 1.369 . S
C507 C509 1.419 . S
C507 H511 0.930 . S
C508 C507 1.369 . S
C508 C517 1.429 . S
C509 C507 1.419 . S
C509 C510 1.363 . S
C509 H512 0.929 . S
C510 C509 1.363 . S
C510 C516 1.428 . S
H511 C507 0.930 . S
H512 C509 0.929 . S
S513 N514 1.613 . S
S513 N515 1.610 . S
N514 S513 1.613 . S
N514 C517 1.350 . S
N515 S513 1.610 . S
N515 C516 1.351 . S
C516 C510 1.428 . S
C516 N515 1.351 . S
C516 C517 1.434 . S
C517 C508 1.429 . S
C517 N514 1.350 . S
C517 C516 1.434 . S
C518 C519 1.369 . S
C518 C520 1.419 . S
C518 H522 0.930 . S
C519 C518 1.369 . S
C519 C528 1.429 . S
C520 C518 1.419 . S
C520 C521 1.363 . S
C520 H523 0.929 . S
C521 C520 1.363 . S
C521 C527 1.428 . S
H522 C518 0.930 . S
H523 C520 0.929 . S
S524 N525 1.613 . S
S524 N526 1.610 . S
N525 S524 1.613 . S
N525 C528 1.350 . S
N526 S524 1.610 . S
N526 C527 1.351 . S
C527 C521 1.428 . S
C527 N526 1.351 . S
C527 C528 1.434 . S
C528 C519 1.429 . S
C528 N525 1.350 . S
C528 C527 1.434 . S
C529 C530 1.369 . S
C529 C531 1.419 . S
C529 H533 0.930 . S
C530 C529 1.369 . S
C530 C539 1.429 . S
C531 C529 1.419 . S
C531 C532 1.363 . S
C531 H534 0.929 . S
C532 C531 1.363 . S
C532 C538 1.428 . S
H533 C529 0.930 . S
H534 C531 0.929 . S
S535 N536 1.613 . S
S535 N537 1.610 . S
N536 S535 1.613 . S
N536 C539 1.350 . S
N537 S535 1.610 . S
N537 C538 1.351 . S
C538 C532 1.428 . S
C538 N537 1.351 . S
C538 C539 1.434 . S
C539 C530 1.429 . S
C539 N536 1.350 . S
C539 C538 1.434 . S
C540 C541 1.369 . S
C540 C542 1.419 . S
C540 H544 0.930 . S
C541 C540 1.369 . S
C541 C550 1.429 . S
C542 C540 1.419 . S
C542 C543 1.363 . S
C542 H545 0.929 . S
C543 C542 1.363 . S
C543 C549 1.428 . S
H544 C540 0.930 . S
H545 C542 0.929 . S
S546 N547 1.613 . S
S546 N548 1.610 . S
N547 S546 1.613 . S
N547 C550 1.350 . S
N548 S546 1.610 . S
N548 C549 1.351 . S
C549 C543 1.428 . S
C549 N548 1.351 . S
C549 C550 1.434 . S
C550 C541 1.429 . S
C550 N547 1.350 . S
C550 C549 1.434 . S
C551 C552 1.369 . S
C551 C553 1.419 . S
C551 H555 0.930 . S
C552 C551 1.369 . S
C552 C561 1.429 . S
C553 C551 1.419 . S
C553 C554 1.363 . S
C553 H556 0.929 . S
C554 C553 1.363 . S
C554 C560 1.428 . S
H555 C551 0.930 . S
H556 C553 0.929 . S
S557 N558 1.613 . S
S557 N559 1.610 . S
N558 S557 1.613 . S
N558 C561 1.350 . S
N559 S557 1.610 . S
N559 C560 1.351 . S
C560 C554 1.428 . S
C560 N559 1.351 . S
C560 C561 1.434 . S
C561 C552 1.429 . S
C561 N558 1.350 . S
C561 C560 1.434 . S
C562 C563 1.369 . S
C562 C564 1.419 . S
C562 H566 0.930 . S
C563 C562 1.369 . S
C563 C572 1.429 . S
C564 C562 1.419 . S
C564 C565 1.363 . S
C564 H567 0.929 . S
C565 C564 1.363 . S
C565 C571 1.428 . S
H566 C562 0.930 . S
H567 C564 0.929 . S
S568 N569 1.613 . S
S568 N570 1.610 . S
N569 S568 1.613 . S
N569 C572 1.350 . S
N570 S568 1.610 . S
N570 C571 1.351 . S
C571 C565 1.428 . S
C571 N570 1.351 . S
C571 C572 1.434 . S
C572 C563 1.429 . S
C572 N569 1.350 . S
C572 C571 1.434 . S
C573 C574 1.369 . S
C573 C575 1.419 . S
C573 H577 0.930 . S
C574 C573 1.369 . S
C574 C583 1.429 . S
C575 C573 1.419 . S
C575 C576 1.363 . S
C575 H578 0.929 . S
C576 C575 1.363 . S
C576 C582 1.428 . S
H577 C573 0.930 . S
H578 C575 0.929 . S
S579 N580 1.613 . S
S579 N581 1.610 . S
N580 S579 1.613 . S
N580 C583 1.350 . S
N581 S579 1.610 . S
N581 C582 1.351 . S
C582 C576 1.428 . S
C582 N581 1.351 . S
C582 C583 1.434 . S
C583 C574 1.429 . S
C583 N580 1.350 . S
C583 C582 1.434 . S
C584 C585 1.369 1_556 S
C584 C586 1.419 . S
C584 H588 0.930 . S
C585 C584 1.369 1_554 S
C585 C594 1.429 . S
C586 C584 1.419 . S
C586 C587 1.363 1_556 S
C586 H589 0.929 . S
C587 C586 1.363 1_554 S
C587 C593 1.428 . S
H588 C584 0.930 . S
H589 C586 0.929 . S
S590 N591 1.613 . S
S590 N592 1.610 . S
N591 S590 1.613 . S
N591 C594 1.350 . S
N592 S590 1.610 . S
N592 C593 1.351 . S
C593 C587 1.428 . S
C593 N592 1.351 . S
C593 C594 1.434 . S
C594 C585 1.429 . S
C594 N591 1.350 . S
C594 C593 1.434 . S
C595 C596 1.369 . S
C595 C597 1.419 . S
C595 H599 0.930 . S
C596 C595 1.369 . S
C596 C605 1.429 . S
C597 C595 1.419 . S
C597 C598 1.363 . S
C597 H600 0.929 . S
C598 C597 1.363 . S
C598 C604 1.428 . S
H599 C595 0.930 . S
H600 C597 0.929 . S
S601 N602 1.613 . S
S601 N603 1.610 . S
N602 S601 1.613 . S
N602 C605 1.350 . S
N603 S601 1.610 . S
N603 C604 1.351 . S
C604 C598 1.428 . S
C604 N603 1.351 . S
C604 C605 1.434 . S
C605 C596 1.429 . S
C605 N602 1.350 . S
C605 C604 1.434 . S
C606 C607 1.369 1_556 S
C606 C608 1.419 . S
C606 H610 0.930 . S
C607 C606 1.369 1_554 S
C607 C616 1.429 . S
C608 C606 1.419 . S
C608 C609 1.363 1_556 S
C608 H611 0.929 . S
C609 C608 1.363 1_554 S
C609 C615 1.428 . S
H610 C606 0.930 . S
H611 C608 0.929 . S
S612 N613 1.613 . S
S612 N614 1.610 . S
N613 S612 1.613 . S
N613 C616 1.350 . S
N614 S612 1.610 . S
N614 C615 1.351 . S
C615 C609 1.428 . S
C615 N614 1.351 . S
C615 C616 1.434 . S
C616 C607 1.429 . S
C616 N613 1.350 . S
C616 C615 1.434 . S
C617 C618 1.369 . S
C617 C619 1.419 . S
C617 H621 0.930 . S
C618 C617 1.369 . S
C618 C627 1.429 . S
C619 C617 1.419 . S
C619 C620 1.363 . S
C619 H622 0.929 . S
C620 C619 1.363 . S
C620 C626 1.428 . S
H621 C617 0.930 . S
H622 C619 0.929 . S
S623 N624 1.613 . S
S623 N625 1.610 . S
N624 S623 1.613 . S
N624 C627 1.350 . S
N625 S623 1.610 . S
N625 C626 1.351 . S
C626 C620 1.428 . S
C626 N625 1.351 . S
C626 C627 1.434 . S
C627 C618 1.429 . S
C627 N624 1.350 . S
C627 C626 1.434 . S
C628 C629 1.369 . S
C628 C630 1.419 . S
C628 H632 0.930 . S
C629 C628 1.369 . S
C629 C638 1.429 . S
C630 C628 1.419 . S
C630 C631 1.363 . S
C630 H633 0.929 . S
C631 C630 1.363 . S
C631 C637 1.428 . S
H632 C628 0.930 . S
H633 C630 0.929 . S
S634 N635 1.613 . S
S634 N636 1.610 . S
N635 S634 1.613 . S
N635 C638 1.350 . S
N636 S634 1.610 . S
N636 C637 1.351 . S
C637 C631 1.428 . S
C637 N636 1.351 . S
C637 C638 1.434 . S
C638 C629 1.429 . S
C638 N635 1.350 . S
C638 C637 1.434 . S
C639 C640 1.369 1_556 S
C639 C641 1.419 . S
C639 H643 0.930 . S
C640 C639 1.369 1_554 S
C640 C649 1.429 . S
C641 C639 1.419 . S
C641 C642 1.363 1_556 S
C641 H644 0.929 . S
C642 C641 1.363 1_554 S
C642 C648 1.428 . S
H643 C639 0.930 . S
H644 C641 0.929 . S
S645 N646 1.613 . S
S645 N647 1.610 . S
N646 S645 1.613 . S
N646 C649 1.350 . S
N647 S645 1.610 . S
N647 C648 1.351 . S
C648 C642 1.428 . S
C648 N647 1.351 . S
C648 C649 1.434 . S
C649 C640 1.429 . S
C649 N646 1.350 . S
C649 C648 1.434 . S
C650 C651 1.369 . S
C650 C652 1.419 . S
C650 H654 0.930 . S
C651 C650 1.369 . S
C651 C660 1.429 . S
C652 C650 1.419 . S
C652 C653 1.363 . S
C652 H655 0.929 . S
C653 C652 1.363 . S
C653 C659 1.428 . S
H654 C650 0.930 . S
H655 C652 0.929 . S
S656 N657 1.613 . S
S656 N658 1.610 . S
N657 S656 1.613 . S
N657 C660 1.350 . S
N658 S656 1.610 . S
N658 C659 1.351 . S
C659 C653 1.428 . S
C659 N658 1.351 . S
C659 C660 1.434 . S
C660 C651 1.429 . S
C660 N657 1.350 . S
C660 C659 1.434 . S
C661 C662 1.369 . S
C661 C663 1.419 . S
C661 H665 0.930 . S
C662 C661 1.369 . S
C662 C671 1.429 1_554 S
C663 C661 1.419 . S
C663 C664 1.363 . S
C663 H666 0.929 . S
C664 C663 1.363 . S
C664 C670 1.428 1_554 S
H665 C661 0.930 . S
H666 C663 0.929 . S
S667 N668 1.613 . S
S667 N669 1.610 . S
N668 S667 1.613 . S
N668 C671 1.350 . S
N669 S667 1.610 . S
N669 C670 1.351 . S
C670 C664 1.428 1_556 S
C670 N669 1.351 . S
C670 C671 1.434 . S
C671 C662 1.429 1_556 S
C671 N668 1.350 . S
C671 C670 1.434 . S
C409 C5 1.580 . S
C411 C210 1.572 . S
C420 C31 1.585 . S
C422 C90 1.577 . S
C433 C149 1.510 . S
C431 C53 1.605 . S
C442 C71 1.596 . S
C444 C189 1.503 . S
C455 C309 1.495 . S
C453 C75 1.596 . S
C466 C349 1.501 . S
C464 C9 1.603 . S
C477 C370 1.579 . S
C475 C27 1.587 . S
C488 C250 1.570 . S
C486 C49 1.578 . S
C497 C51 1.578 . S
C499 C130 1.507 . S
C508 C72 1.586 . S
C510 C170 1.519 . S
C519 C6 1.605 . S
C521 C229 1.575 . S
C532 C109 1.565 . S
C530 C29 1.596 . S
C541 C28 1.596 . S
C543 C389 1.565 . S
C554 C269 1.570 . S
C552 C50 1.603 . S
C565 C290 1.520 . S
C563 C73 1.588 . S
C574 C7 1.579 . S
C576 C330 1.514 . S
C587 C103 1.538 . S
C585 C4 1.556 . S
C598 C143 1.534 . S
C596 C30 1.556 . S
C607 C52 1.556 . S
C609 C183 1.533 . S
C618 C70 1.556 . S
C620 C223 1.539 . S
C631 C263 1.538 . S
C629 C74 1.556 . S
C640 C8 1.555 . S
C642 C303 1.530 . S
C651 C26 1.556 . S
C653 C343 1.531 . S
C662 C48 1.555 . S
C664 C383 1.535 . S
