# Generated by pormake.
# Topology pyr, (3,6)-cn, num edge types: 1
# Building blocks:
#     Node 0, Type 0, BuildingBlock: OLANEW_clean_sbu_2, # of connection points: 3
#     Node 1, Type 0, BuildingBlock: OLANEW_clean_sbu_2, # of connection points: 3
#     Node 2, Type 0, BuildingBlock: OLANEW_clean_sbu_2, # of connection points: 3
#     Node 3, Type 0, BuildingBlock: OLANEW_clean_sbu_2, # of connection points: 3
#     Node 4, Type 0, BuildingBlock: OLANEW_clean_sbu_2, # of connection points: 3
#     Node 5, Type 0, BuildingBlock: OLANEW_clean_sbu_2, # of connection points: 3
#     Node 6, Type 0, BuildingBlock: OLANEW_clean_sbu_2, # of connection points: 3
#     Node 7, Type 0, BuildingBlock: OLANEW_clean_sbu_2, # of connection points: 3
#     Node 8, Type 1, BuildingBlock: BETFEN_clean_sbu_0, # of connection points: 6
#     Node 9, Type 1, BuildingBlock: BETFEN_clean_sbu_0, # of connection points: 6
#     Node 10, Type 1, BuildingBlock: BETFEN_clean_sbu_0, # of connection points: 6
#     Node 11, Type 1, BuildingBlock: BETFEN_clean_sbu_0, # of connection points: 6
#     Edge 12, Type (0, 1), BuildingBlock: XUDNAN_clean_linker_2, # of connection points: 2
#     Edge 13, Type (0, 1), BuildingBlock: XUDNAN_clean_linker_2, # of connection points: 2
#     Edge 14, Type (0, 1), BuildingBlock: XUDNAN_clean_linker_2, # of connection points: 2
#     Edge 15, Type (0, 1), BuildingBlock: XUDNAN_clean_linker_2, # of connection points: 2
#     Edge 16, Type (0, 1), BuildingBlock: XUDNAN_clean_linker_2, # of connection points: 2
#     Edge 17, Type (0, 1), BuildingBlock: XUDNAN_clean_linker_2, # of connection points: 2
#     Edge 18, Type (0, 1), BuildingBlock: XUDNAN_clean_linker_2, # of connection points: 2
#     Edge 19, Type (0, 1), BuildingBlock: XUDNAN_clean_linker_2, # of connection points: 2
#     Edge 20, Type (0, 1), BuildingBlock: XUDNAN_clean_linker_2, # of connection points: 2
#     Edge 21, Type (0, 1), BuildingBlock: XUDNAN_clean_linker_2, # of connection points: 2
#     Edge 22, Type (0, 1), BuildingBlock: XUDNAN_clean_linker_2, # of connection points: 2
#     Edge 23, Type (0, 1), BuildingBlock: XUDNAN_clean_linker_2, # of connection points: 2
#     Edge 24, Type (0, 1), BuildingBlock: XUDNAN_clean_linker_2, # of connection points: 2
#     Edge 25, Type (0, 1), BuildingBlock: XUDNAN_clean_linker_2, # of connection points: 2
#     Edge 26, Type (0, 1), BuildingBlock: XUDNAN_clean_linker_2, # of connection points: 2
#     Edge 27, Type (0, 1), BuildingBlock: XUDNAN_clean_linker_2, # of connection points: 2
#     Edge 28, Type (0, 1), BuildingBlock: XUDNAN_clean_linker_2, # of connection points: 2
#     Edge 29, Type (0, 1), BuildingBlock: XUDNAN_clean_linker_2, # of connection points: 2
#     Edge 30, Type (0, 1), BuildingBlock: XUDNAN_clean_linker_2, # of connection points: 2
#     Edge 31, Type (0, 1), BuildingBlock: XUDNAN_clean_linker_2, # of connection points: 2
#     Edge 32, Type (0, 1), BuildingBlock: XUDNAN_clean_linker_2, # of connection points: 2
#     Edge 33, Type (0, 1), BuildingBlock: XUDNAN_clean_linker_2, # of connection points: 2
#     Edge 34, Type (0, 1), BuildingBlock: XUDNAN_clean_linker_2, # of connection points: 2
#     Edge 35, Type (0, 1), BuildingBlock: XUDNAN_clean_linker_2, # of connection points: 2
# Relax obj value: 0.166
# Max RMSD: 0.291
# Mean RMSD: 0.144
data_MOF--net-pyr--node1-OLANEW_clean_sbu_2--node2-BETFEN_clean_sbu_0--edge1-XUDNAN_clean_linker_2
_symmetry_space_group_name_H-M    P1
_symmetry_Int_Tables_number       1
_symmetry_cell_setting            triclinic
loop_
_symmetry_equiv_pos_as_xyz
'x, y, z'
_cell_length_a     39.539771
_cell_length_b     44.305695
_cell_length_c     40.45293
_cell_angle_alpha  94.868706
_cell_angle_beta   100.42579
_cell_angle_gamma 113.78015
loop_
_atom_site_label
_atom_site_type_symbol
_atom_site_fract_x
_atom_site_fract_y
_atom_site_fract_z
_atom_type_partial_charge
O0 O 0.45167 0.38108 0.2076 0.0
Cd1 Cd 0.45815 0.43479 0.23553 0.0
O2 O 0.42553 0.35629 0.24701 0.0
Cd3 Cd 0.39552 0.31409 0.27105 0.0
O4 O 0.36376 0.27506 0.29747 0.0
C5 C 0.3789 0.25849 0.31356 0.0
O6 O 0.41454 0.26497 0.31428 0.0
C7 C 0.43673 0.35449 0.21964 0.0
C8 C 0.38791 0.43758 0.22518 0.0
O9 O 0.40064 0.42824 0.25194 0.0
O10 O 0.40849 0.44575 0.20344 0.0
O11 O 0.3359 0.86808 0.78355 0.0
Cd12 Cd 0.31039 0.85228 0.722 0.0
O13 O 0.27959 0.84942 0.7955 0.0
Cd14 Cd 0.24828 0.84623 0.74378 0.0
O15 O 0.21691 0.86724 0.70989 0.0
C16 C 0.22953 0.89886 0.71765 0.0
O17 O 0.25941 0.91485 0.74324 0.0
C18 C 0.31564 0.86142 0.80534 0.0
C19 C 0.35767 0.82999 0.69435 0.0
O20 O 0.3623 0.86044 0.69562 0.0
O21 O 0.33013 0.80988 0.70544 0.0
O22 O 0.68789 0.3723 0.82497 0.0
Cd23 Cd 0.62242 0.35695 0.79463 0.0
O24 O 0.662 0.32895 0.84885 0.0
Cd25 Cd 0.65515 0.2929 0.88382 0.0
O26 O 0.63683 0.25219 0.91294 0.0
C27 C 0.66101 0.24445 0.93085 0.0
O28 O 0.69726 0.26141 0.93179 0.0
C29 C 0.69172 0.35375 0.84625 0.0
C30 C 0.6154 0.39173 0.74164 0.0
O31 O 0.62028 0.40462 0.77269 0.0
O32 O 0.61445 0.36248 0.73561 0.0
O33 O 0.92967 0.73223 0.3331 0.0
Cd34 Cd 0.9106 0.67199 0.31009 0.0
O35 O 0.88557 0.72007 0.36318 0.0
Cd36 Cd 0.85182 0.66646 0.36099 0.0
O37 O 0.80712 0.63529 0.3852 0.0
C38 C 0.79457 0.65079 0.40409 0.0
O39 O 0.80864 0.6836 0.40762 0.0
C40 C 0.9127 0.74153 0.35306 0.0
C41 C 0.92651 0.65078 0.24879 0.0
O42 O 0.8981 0.65794 0.24844 0.0
O43 O 0.9487 0.65515 0.2779 0.0
O44 O 0.68623 0.68376 0.70595 0.0
Cd45 Cd 0.64513 0.64032 0.73246 0.0
O46 O 0.67301 0.71562 0.74059 0.0
Cd47 Cd 0.67253 0.76124 0.76494 0.0
O48 O 0.66186 0.79788 0.7954 0.0
C49 C 0.63224 0.8024 0.78504 0.0
O50 O 0.60925 0.78563 0.75539 0.0
C51 C 0.69118 0.71291 0.71845 0.0
C52 C 0.68794 0.61502 0.77384 0.0
O53 O 0.66735 0.59859 0.74432 0.0
O54 O 0.68803 0.64321 0.78403 0.0
O55 O 0.74634 0.18818 0.39077 0.0
Cd56 Cd 0.78761 0.20373 0.44802 0.0
O57 O 0.71765 0.22166 0.3951 0.0
Cd58 Cd 0.73821 0.25068 0.44666 0.0
O59 O 0.71672 0.28784 0.45887 0.0
C60 C 0.71346 0.3039 0.43478 0.0
O61 O 0.72535 0.2984 0.40755 0.0
C62 C 0.72293 0.19935 0.37771 0.0
C63 C 0.8362 0.17185 0.45032 0.0
O64 O 0.80462 0.15846 0.45923 0.0
O65 O 0.84499 0.20041 0.44091 0.0
O66 O 0.45641 0.7829 0.26115 0.0
Cd67 Cd 0.44697 0.72544 0.26755 0.0
O68 O 0.39574 0.77148 0.25267 0.0
Cd69 Cd 0.37834 0.71909 0.25705 0.0
O70 O 0.33576 0.67033 0.22971 0.0
C71 C 0.32947 0.6669 0.19737 0.0
O72 O 0.35093 0.69123 0.1836 0.0
C73 C 0.42975 0.79219 0.25459 0.0
C74 C 0.45847 0.70992 0.33302 0.0
O75 O 0.48651 0.72638 0.32032 0.0
O76 O 0.42473 0.70172 0.31533 0.0
O77 O 0.17515 0.41944 0.78081 0.0
Cd78 Cd 0.20179 0.4001 0.73645 0.0
O79 O 0.15149 0.36811 0.79236 0.0
Cd80 Cd 0.15814 0.33888 0.74908 0.0
O81 O 0.14765 0.2915 0.71712 0.0
C82 C 0.1536 0.2698 0.7329 0.0
O83 O 0.16673 0.27755 0.76621 0.0
C84 C 0.15842 0.39896 0.79929 0.0
C85 C 0.25739 0.44545 0.70756 0.0
O86 O 0.26518 0.44223 0.73885 0.0
O87 O 0.22313 0.42847 0.69011 0.0
Pr88 Pr 0.9946 0.98927 0.54296 0.0
Pr89 Pr 0.06887 0.03772 0.51743 0.0
C90 C 0.92654 0.94284 0.54668 0.0
C91 C 0.9067 0.92057 0.56853 0.0
C92 C 0.86894 0.89725 0.55521 0.0
C93 C 0.84851 0.87696 0.5759 0.0
C94 C 0.86559 0.87967 0.61035 0.0
C95 C 0.90384 0.90276 0.62344 0.0
C96 C 0.92427 0.92309 0.60266 0.0
C97 C 0.0441 0.04765 0.58868 0.0
C98 C 0.07705 0.99027 0.57536 0.0
C99 C 0.13257 0.08873 0.51164 0.0
C100 C 0.15899 0.10005 0.48936 0.0
C101 C 0.1682 0.07776 0.4702 0.0
C102 C 0.19355 0.08964 0.44922 0.0
C103 C 0.20967 0.12387 0.44695 0.0
C104 C 0.20016 0.14594 0.46617 0.0
C105 C 0.17507 0.13411 0.48717 0.0
C106 C 0.02889 0.97455 0.47401 0.0
C107 C 0.98787 0.04435 0.49267 0.0
O108 O 0.95062 0.93539 0.53327 0.0
O109 O 0.93812 0.97501 0.55683 0.0
O110 O 0.03563 0.0454 0.55658 0.0
O111 O 0.02467 0.01965 0.59828 0.0
O112 O 0.09262 0.01911 0.56474 0.0
O113 O 0.0401 0.97051 0.56583 0.0
O114 O 0.09852 0.08697 0.50041 0.0
O115 O 0.13291 0.0644 0.52782 0.0
O116 O 0.02205 0.98604 0.49992 0.0
O117 O 0.05998 0.99715 0.46893 0.0
O118 O 0.96995 0.01746 0.50563 0.0
O119 O 0.02494 0.05759 0.49535 0.0
H120 H 0.85498 0.89515 0.52891 0.0
H121 H 0.81901 0.85982 0.56512 0.0
H122 H 0.91795 0.90514 0.64974 0.0
H123 H 0.95352 0.94101 0.61326 0.0
H124 H 0.15578 0.05127 0.47139 0.0
H125 H 0.20017 0.07206 0.43448 0.0
H126 H 0.21254 0.1725 0.46537 0.0
H127 H 0.16824 0.15162 0.50181 0.0
Pr128 Pr 0.48983 0.02801 0.09601 0.0
Pr129 Pr 0.5552 0.01245 0.08719 0.0
C130 C 0.43611 0.04312 0.1153 0.0
C131 C 0.43181 0.07409 0.1246 0.0
C132 C 0.40269 0.07948 0.10433 0.0
C133 C 0.39993 0.10976 0.11074 0.0
C134 C 0.42606 0.1351 0.13779 0.0
C135 C 0.45452 0.12935 0.15877 0.0
C136 C 0.45753 0.09917 0.15213 0.0
C137 C 0.53336 0.06617 0.05423 0.0
C138 C 0.57337 0.06894 0.15245 0.0
C139 C 0.60695 0.99901 0.06175 0.0
C140 C 0.60565 0.97938 0.03013 0.0
C141 C 0.57083 0.955 1.01006 0.0
C142 C 0.56957 0.9369 0.97955 0.0
C143 C 0.60313 0.94293 0.96858 0.0
C144 C 0.63795 0.96749 0.98879 0.0
C145 C 0.63916 0.9856 0.01933 0.0
C146 C 0.5176 0.97844 0.13367 0.0
C147 C 0.47027 0.96916 0.03521 0.0
O148 O 0.46092 0.03721 0.13665 0.0
O149 O 0.43625 0.03583 0.08333 0.0
O150 O 0.54597 0.05941 0.08194 0.0
O151 O 0.49657 0.05399 0.0473 0.0
O152 O 0.58975 0.05723 0.13235 0.0
O153 O 0.53623 0.05925 0.14567 0.0
O154 O 0.60173 0.02598 0.05827 0.0
O155 O 0.58864 0.9819 0.08274 0.0
O156 O 0.50094 0.98199 0.10543 0.0
O157 O 0.55428 0.99136 0.13775 0.0
O158 O 0.45662 0.97668 0.06032 0.0
O159 O 0.50699 0.98449 0.03661 0.0
H160 H 0.38253 0.06051 0.08299 0.0
H161 H 0.37749 0.11345 0.09442 0.0
H162 H 0.47521 0.1486 0.17962 0.0
H163 H 0.48048 0.09585 0.16809 0.0
H164 H 0.54462 0.94988 0.01801 0.0
H165 H 0.54239 0.91784 0.96484 0.0
H166 H 0.66422 0.973 0.9808 0.0
H167 H 0.6662 1.00455 0.03443 0.0
Pr168 Pr 0.54548 0.59285 0.57824 0.0
Pr169 Pr 0.50017 0.52469 0.52902 0.0
C170 C 0.568 0.65473 0.61342 0.0
C171 C 0.54997 0.67741 0.61989 0.0
C172 C 0.54324 0.68326 0.65223 0.0
C173 C 0.5254 0.70403 0.65838 0.0
C174 C 0.51428 0.7196 0.63239 0.0
C175 C 0.52135 0.71402 0.60016 0.0
C176 C 0.53896 0.69313 0.59394 0.0
C177 C 0.5639 0.5423 0.59916 0.0
C178 C 0.45643 0.5426 0.58261 0.0
C179 C 0.48034 0.46491 0.49069 0.0
C180 C 0.50378 0.44916 0.4793 0.0
C181 C 0.53499 0.46768 0.46615 0.0
C182 C 0.5589 0.45369 0.45779 0.0
C183 C 0.55216 0.42079 0.46223 0.0
C184 C 0.52085 0.40222 0.47537 0.0
C185 C 0.49691 0.41633 0.48385 0.0
C186 C 0.48702 0.5781 0.50705 0.0
C187 C 0.59012 0.57284 0.52682 0.0
O188 O 0.57172 0.64904 0.58234 0.0
O189 O 0.55813 0.62796 0.62762 0.0
O190 O 0.53072 0.53857 0.58573 0.0
O191 O 0.58821 0.57361 0.60583 0.0
O192 O 0.45749 0.51742 0.56365 0.0
O193 O 0.48294 0.57366 0.58653 0.0
O194 O 0.48196 0.46858 0.52342 0.0
O195 O 0.48099 0.4911 0.4776 0.0
O196 O 0.51853 0.57902 0.52121 0.0
O197 O 0.46021 0.5478 0.50195 0.0
O198 O 0.58827 0.59862 0.5439 0.0
O199 O 0.56312 0.5421 0.52285 0.0
H200 H 0.55162 0.67164 0.67273 0.0
H201 H 0.52064 0.70816 0.68358 0.0
H202 H 0.51267 0.72537 0.57953 0.0
H203 H 0.54363 0.68918 0.56868 0.0
H204 H 0.5414 0.49325 0.46283 0.0
H205 H 0.58316 0.46897 0.44842 0.0
H206 H 0.51468 0.37673 0.47886 0.0
H207 H 0.47325 0.40174 0.49432 0.0
Pr208 Pr 0.01344 0.52638 0.99258 0.0
Pr209 Pr 0.01823 0.48014 0.04287 0.0
C210 C 0.99254 0.56156 0.9485 0.0
C211 C 0.95864 0.56706 0.93612 0.0
C212 C 0.95786 0.58548 0.90974 0.0
C213 C 0.9245 0.58822 0.89548 0.0
C214 C 0.89143 0.57232 0.90729 0.0
C215 C 0.89271 0.55485 0.93452 0.0
C216 C 0.92612 0.55222 0.94888 0.0
C217 C 0.08427 0.54907 0.03839 0.0
C218 C 0.98467 0.53284 0.06379 0.0
C219 C 0.03826 0.44411 0.08652 0.0
C220 C 0.07356 0.44321 0.10423 0.0
C221 C 0.07248 0.42264 0.12878 0.0
C222 C 0.10604 0.42235 0.14665 0.0
C223 C 0.14139 0.44297 0.14052 0.0
C224 C 0.14218 0.46345 0.1156 0.0
C225 C 0.1085 0.46334 0.09742 0.0
C226 C 0.94591 0.45686 0.99954 0.0
C227 C 0.05513 0.47981 0.9744 0.0
O228 O 0.98895 0.53119 0.93946 0.0
O229 O 1.01086 0.57448 0.98029 0.0
O230 O 0.0524 0.53566 0.04522 0.0
O231 O 0.08093 0.55392 1.00698 0.0
O232 O 1.00568 0.518 0.07679 0.0
O233 O 0.97714 0.53303 0.03061 0.0
O234 O 0.03349 0.47065 0.09642 0.0
O235 O 0.02837 0.43473 0.05339 0.0
O236 O 0.97674 0.47003 0.9903 0.0
O237 O 0.95211 0.45306 0.03112 0.0
O238 O 0.03522 0.49512 0.96049 0.0
O239 O 0.05764 0.47594 1.00673 0.0
H240 H 0.98274 0.597 0.89959 0.0
H241 H 0.92415 0.60172 0.87441 0.0
H242 H 0.86776 0.54308 0.94446 0.0
H243 H 0.92637 0.53808 0.96942 0.0
H244 H 0.04566 0.40681 0.13418 0.0
H245 H 0.10418 0.40573 0.16507 0.0
H246 H 0.16883 0.47994 0.11043 0.0
H247 H 0.10973 0.47914 0.07825 0.0
H248 H 0.31006 0.24758 0.32728 0.0
H249 H 0.39811 0.21182 0.34191 0.0
H250 H 0.36199 0.17036 0.37441 0.0
H251 H 0.29372 0.24308 0.40985 0.0
H252 H 0.24317 0.23004 0.39627 0.0
H253 H 0.27438 0.25485 0.37186 0.0
H254 H 0.23602 0.20957 0.31767 0.0
H255 H 0.20465 0.18464 0.34197 0.0
H256 H 0.22901 0.16688 0.31868 0.0
H257 H 0.31738 0.13447 0.40751 0.0
H258 H 0.26935 0.10892 0.44061 0.0
H259 H 0.21132 0.16884 0.40428 0.0
C260 C 0.32157 0.23077 0.33691 0.0
C261 C 0.35683 0.23283 0.33195 0.0
C262 C 0.37114 0.21067 0.34541 0.0
C263 C 0.35077 0.18697 0.36378 0.0
C264 C 0.31622 0.18581 0.36844 0.0
C265 C 0.3018 0.20719 0.35544 0.0
C266 C 0.2652 0.20225 0.36564 0.0
C267 C 0.26939 0.23446 0.38718 0.0
C268 C 0.23175 0.19011 0.33411 0.0
C269 C 0.26152 0.17505 0.38679 0.0
C270 C 0.29095 0.1656 0.38785 0.0
C271 C 0.29404 0.14149 0.40665 0.0
C272 C 0.26657 0.12701 0.42522 0.0
C273 C 0.2367 0.13695 0.42502 0.0
C274 C 0.23401 0.16093 0.40513 0.0
H275 H 0.39169 0.89672 0.83633 0.0
H276 H 0.28093 0.84431 0.85794 0.0
H277 H 0.31037 0.86128 0.91962 0.0
H278 H 0.44795 0.87941 0.91065 0.0
H279 H 0.48678 0.92044 0.91766 0.0
H280 H 0.45828 0.90063 0.87509 0.0
H281 H 0.44389 0.95223 0.86864 0.0
H282 H 0.4724 0.97214 0.91106 0.0
H283 H 0.42365 0.96628 0.89982 0.0
H284 H 0.34984 0.88855 0.97811 0.0
H285 H 0.39701 0.92474 0.03005 0.0
H286 H 0.48277 0.95957 0.97127 0.0
C287 C 0.37374 0.88816 0.85402 0.0
C288 C 0.33396 0.86906 0.84225 0.0
C289 C 0.31142 0.85889 0.86628 0.0
C290 C 0.32792 0.86828 0.9014 0.0
C291 C 0.36702 0.88766 0.91212 0.0
C292 C 0.38976 0.89738 0.88922 0.0
C293 C 0.43054 0.92045 0.90752 0.0
C294 C 0.45746 0.90424 0.9024 0.0
C295 C 0.44334 0.9548 0.89608 0.0
C296 C 0.42681 0.92306 0.94415 0.0
C297 C 0.39002 0.90358 0.94621 0.0
C298 C 0.37887 0.90351 0.97693 0.0
C299 C 0.40587 0.92426 1.00627 0.0
C300 C 0.44359 0.94487 1.00472 0.0
C301 C 0.45431 0.94372 0.97333 0.0
H302 H 0.63456 0.45871 0.74598 0.0
H303 H 0.58214 0.36496 0.67412 0.0
H304 H 0.56671 0.39416 0.62829 0.0
H305 H 0.56904 0.49087 0.71585 0.0
H306 H 0.60464 0.53347 0.72283 0.0
H307 H 0.6123 0.50439 0.74833 0.0
H308 H 0.6764 0.51738 0.7293 0.0
H309 H 0.66732 0.54597 0.70378 0.0
H310 H 0.67511 0.51196 0.68443 0.0
H311 H 0.55086 0.43254 0.59217 0.0
H312 H 0.54026 0.47818 0.5676 0.0
H313 H 0.60594 0.54709 0.66219 0.0
C314 C 0.62025 0.4444 0.7205 0.0
C315 C 0.6094 0.40958 0.71356 0.0
C316 C 0.59085 0.39171 0.67991 0.0
C317 C 0.58192 0.40806 0.65376 0.0
C318 C 0.59241 0.44234 0.66161 0.0
C319 C 0.61169 0.46038 0.69404 0.0
C320 C 0.61909 0.49682 0.69606 0.0
C321 C 0.60017 0.507 0.72232 0.0
C322 C 0.66201 0.51939 0.70388 0.0
C323 C 0.59976 0.4963 0.66003 0.0
C324 C 0.58455 0.46463 0.64051 0.0
C325 C 0.56305 0.45749 0.60711 0.0
C326 C 0.55678 0.48336 0.59346 0.0
C327 C 0.5721 0.5158 0.6131 0.0
C328 C 0.59437 0.52249 0.64655 0.0
H329 H 0.97399 0.62003 0.24175 0.0
H330 H 0.89104 0.64778 0.18302 0.0
H331 H 0.89701 0.62082 0.12977 0.0
H332 H 0.03417 0.63155 0.18118 0.0
H333 H 0.04356 0.59584 0.18872 0.0
H334 H 0.034 0.61851 0.22219 0.0
H335 H 0.97911 0.56348 0.22782 0.0
H336 H 0.98841 0.54074 0.19422 0.0
H337 H 0.94156 0.53906 0.19071 0.0
H338 H 0.91132 0.59032 0.08266 0.0
H339 H 0.9329 0.55844 0.04525 0.0
H340 H 1.00526 0.54874 0.13423 0.0
C341 C 0.9574 0.62079 0.21768 0.0
C342 C 0.93219 0.63631 0.21669 0.0
C343 C 0.91063 0.63623 0.18457 0.0
C344 C 0.9138 0.62093 0.15412 0.0
C345 C 0.9385 0.60555 0.15603 0.0
C346 C 0.95996 0.60533 0.18696 0.0
C347 C 0.98366 0.58627 0.18186 0.0
C348 C 0.02638 0.60943 0.19422 0.0
C349 C 0.9725 0.55557 0.19972 0.0
C350 C 0.97212 0.57582 0.14328 0.0
C351 C 0.94616 0.58732 0.12889 0.0
C352 C 0.9316 0.58115 0.09368 0.0
C353 C 0.94403 0.56294 0.07261 0.0
C354 C 0.97063 0.55082 0.08669 0.0
C355 C 0.98464 0.55733 0.1226 0.0
H356 H 0.43728 0.29928 0.24614 0.0
H357 H 0.42712 0.33747 0.15132 0.0
H358 H 0.42127 0.28473 0.11975 0.0
H359 H 0.4921 0.25776 0.22864 0.0
H360 H 0.46873 0.22185 0.24757 0.0
H361 H 0.46966 0.2616 0.26281 0.0
H362 H 0.39554 0.23488 0.25046 0.0
H363 H 0.39532 0.195 0.23693 0.0
H364 H 0.36821 0.21103 0.20889 0.0
H365 H 0.41757 0.2285 0.09863 0.0
H366 H 0.41848 0.17299 0.08967 0.0
H367 H 0.43046 0.17125 0.19816 0.0
C368 C 0.4325 0.29617 0.21865 0.0
C369 C 0.43172 0.3222 0.20109 0.0
C370 C 0.42757 0.31775 0.16525 0.0
C371 C 0.42405 0.28786 0.14708 0.0
C372 C 0.42473 0.26265 0.16513 0.0
C373 C 0.42873 0.26639 0.20009 0.0
C374 C 0.42979 0.23576 0.21341 0.0
C375 C 0.46731 0.24481 0.23965 0.0
C376 C 0.39517 0.21812 0.22831 0.0
C377 C 0.42708 0.21478 0.18069 0.0
C378 C 0.42351 0.23049 0.15305 0.0
C379 C 0.42018 0.21587 0.12005 0.0
C380 C 0.42055 0.18433 0.11519 0.0
C381 C 0.42452 0.16793 0.14323 0.0
C382 C 0.42774 0.1834 0.17634 0.0
H383 H 0.16134 0.874 0.66886 0.0
H384 H 0.25555 0.96656 0.72495 0.0
H385 H 0.22529 0.99899 0.69594 0.0
H386 H 0.14693 0.90352 0.58948 0.0
H387 H 0.0958 0.8816 0.57975 0.0
H388 H 0.12447 0.86508 0.60505 0.0
H389 H 0.08907 0.86456 0.65314 0.0
H390 H 0.0604 0.88122 0.62802 0.0
H391 H 0.0875 0.90267 0.67058 0.0
H392 H 0.1868 0.02176 0.66074 0.0
H393 H 0.14149 0.03406 0.62051 0.0
H394 H 0.07014 0.92753 0.5871 0.0
C395 C 0.17559 0.90108 0.67495 0.0
C396 C 0.21092 0.91771 0.69921 0.0
C397 C 0.22853 0.95319 0.70656 0.0
C398 C 0.21155 0.9719 0.69023 0.0
C399 C 0.17678 0.95484 0.66667 0.0
C400 C 0.15885 0.92029 0.65896 0.0
C401 C 0.12157 0.90851 0.63238 0.0
C402 C 0.12225 0.8885 0.59973 0.0
C403 C 0.08763 0.88803 0.64691 0.0
C404 C 0.12169 0.94191 0.62626 0.0
C405 C 0.15392 0.96819 0.64641 0.0
C406 C 0.16139 1.00144 0.64488 0.0
C407 C 0.1355 1.00813 0.62183 0.0
C408 C 0.10233 0.98175 0.60063 0.0
C409 C 0.09508 0.94816 0.60322 0.0
H410 H 0.75221 0.4153 0.86509 0.0
H411 H 0.71758 0.31123 0.87632 0.0
H412 H 0.77984 0.3263 0.9153 0.0
H413 H 0.85129 0.43549 0.8658 0.0
H414 H 0.86835 0.47693 0.89022 0.0
H415 H 0.82141 0.45744 0.86237 0.0
H416 H 0.79391 0.46712 0.91332 0.0
H417 H 0.84019 0.48483 0.94228 0.0
H418 H 0.80206 0.4494 0.95083 0.0
H419 H 0.84406 0.35317 0.95574 0.0
H420 H 0.90722 0.38981 0.99331 0.0
H421 H 0.90228 0.47586 0.95306 0.0
C422 C 0.75787 0.39559 0.87544 0.0
C423 C 0.72965 0.36214 0.86825 0.0
C424 C 0.73812 0.33715 0.88241 0.0
C425 C 0.77366 0.34542 0.9042 0.0
C426 C 0.80056 0.37872 0.91122 0.0
C427 C 0.79324 0.40339 0.89707 0.0
C428 C 0.82655 0.43749 0.90982 0.0
C429 C 0.84287 0.45272 0.88028 0.0
C430 C 0.81495 0.46111 0.93024 0.0
C431 C 0.85404 0.42806 0.93291 0.0
C432 C 0.83824 0.39407 0.93365 0.0
C433 C 0.85696 0.3797 0.95497 0.0
C434 C 0.89269 0.40063 0.9762 0.0
C435 C 0.90949 0.43537 0.97552 0.0
C436 C 0.89018 0.44923 0.95339 0.0
H437 H 0.76052 0.67739 0.44386 0.0
H438 H 0.76064 0.58311 0.40471 0.0
H439 H 0.7105 0.55328 0.43428 0.0
H440 H 0.74509 0.65842 0.52684 0.0
H441 H 0.71453 0.67941 0.52817 0.0
H442 H 0.75127 0.69338 0.50494 0.0
H443 H 0.70101 0.68617 0.45025 0.0
H444 H 0.6642 0.67228 0.47338 0.0
H445 H 0.66041 0.64629 0.43486 0.0
H446 H 0.6593 0.53362 0.46718 0.0
H447 H 0.60986 0.52546 0.49939 0.0
H448 H 0.64276 0.6326 0.51643 0.0
C449 C 0.75022 0.65048 0.44158 0.0
C450 C 0.76466 0.63261 0.42195 0.0
C451 C 0.75011 0.59737 0.41958 0.0
C452 C 0.72169 0.58022 0.43636 0.0
C453 C 0.70812 0.59864 0.45545 0.0
C454 C 0.72188 0.633 0.4581 0.0
C455 C 0.70177 0.64683 0.4794 0.0
C456 C 0.72984 0.67093 0.51175 0.0
C457 C 0.68059 0.66388 0.4582 0.0
C458 C 0.67427 0.61484 0.48808 0.0
C459 C 0.67854 0.58734 0.47418 0.0
C460 C 0.65578 0.555 0.47817 0.0
C461 C 0.62762 0.55059 0.49641 0.0
C462 C 0.62218 0.57832 0.51028 0.0
C463 C 0.64629 0.61089 0.50637 0.0
H464 H 0.34798 0.44591 0.16656 0.0
H465 H 0.34304 0.43154 0.27072 0.0
H466 H 0.28023 0.43299 0.26096 0.0
H467 H 0.3023 0.50208 0.16105 0.0
H468 H 0.27658 0.48429 0.11734 0.0
H469 H 0.32175 0.48335 0.13288 0.0
H470 H 0.2906 0.41882 0.1139 0.0
H471 H 0.24539 0.4196 0.09824 0.0
H472 H 0.24982 0.39351 0.12905 0.0
H473 H 0.21798 0.436 0.23976 0.0
H474 H 0.15977 0.43819 0.20816 0.0
H475 H 0.20424 0.44774 0.11702 0.0
C476 C 0.33383 0.44328 0.18741 0.0
C477 C 0.35048 0.43877 0.21947 0.0
C478 C 0.33083 0.43505 0.24596 0.0
C479 C 0.2952 0.43592 0.24069 0.0
C480 C 0.27956 0.44034 0.20875 0.0
C481 C 0.29815 0.4438 0.18251 0.0
C482 C 0.27459 0.44713 0.15028 0.0
C483 C 0.29503 0.48125 0.13978 0.0
C484 C 0.2645 0.41803 0.12116 0.0
C485 C 0.23979 0.4449 0.16246 0.0
C486 C 0.24332 0.44123 0.19631 0.0
C487 C 0.21481 0.43868 0.21318 0.0
C488 C 0.18169 0.4397 0.19489 0.0
C489 C 0.17714 0.44292 0.15995 0.0
C490 C 0.20684 0.44568 0.14374 0.0
H491 H 0.58782 0.20242 0.93224 0.0
H492 H 0.706 0.22424 0.97435 0.0
H493 H 0.68562 0.1792 1.00826 0.0
H494 H 0.556 0.18565 1.0084 0.0
H495 H 0.51056 0.15208 0.98714 0.0
H496 H 0.53422 0.18516 0.96504 0.0
H497 H 0.53087 0.1413 0.91637 0.0
H498 H 0.50721 0.10808 0.93838 0.0
H499 H 0.55033 0.11183 0.92646 0.0
H500 H 0.65307 0.13409 0.0396 0.0
H501 H 0.6102 0.09109 0.06625 0.0
H502 H 0.51269 0.09695 1.00298 0.0
C503 C 0.60943 0.19762 0.94844 0.0
C504 C 0.64857 0.2169 0.95062 0.0
C505 C 0.67589 0.20982 0.97219 0.0
C506 C 0.6646 0.18425 0.99154 0.0
C507 C 0.62587 0.16584 0.98888 0.0
C508 C 0.59865 0.17207 0.96784 0.0
C509 C 0.55891 0.14901 0.97031 0.0
C510 C 0.53875 0.16919 0.98352 0.0
C511 C 0.53545 0.1262 0.93582 0.0
C512 C 0.56811 0.12915 0.99638 0.0
C513 C 0.60693 0.13928 1.00666 0.0
C514 C 0.62261 0.12568 0.0315 0.0
C515 C 0.59801 0.10123 0.04644 0.0
C516 C 0.55815 0.09048 0.0364 0.0
C517 C 0.54302 0.10442 1.01081 0.0
H518 H 0.98308 0.79693 0.36353 0.0
H519 H 0.86662 0.76732 0.37248 0.0
H520 H 0.8835 0.8242 0.40114 0.0
H521 H 0.02687 0.84873 0.44434 0.0
H522 H 0.06467 0.88097 0.43125 0.0
H523 H 0.04352 0.83867 0.40813 0.0
H524 H 0.02779 0.85942 0.35191 0.0
H525 H 0.04919 0.90186 0.37487 0.0
H526 H 1.00086 0.88405 0.34981 0.0
H527 H 0.91294 0.88132 0.43425 0.0
H528 H 0.95344 0.93843 0.46647 0.0
H529 H 0.05124 0.93437 0.43565 0.0
C530 C 0.96103 0.80274 0.37076 0.0
C531 C 0.92346 0.77749 0.3657 0.0
C532 C 0.8956 0.78603 0.37616 0.0
C533 C 0.90486 0.81837 0.39246 0.0
C534 C 0.94216 0.84234 0.39808 0.0
C535 C 0.96984 0.83529 0.38725 0.0
C536 C 1.00812 0.86582 0.39812 0.0
C537 C 0.03752 0.85807 0.42187 0.0
C538 C 0.02233 0.87853 0.3668 0.0
C539 C 0.99754 0.89056 0.41724 0.0
C540 C 0.95926 0.87627 0.41682 0.0
C541 C 0.94285 0.89303 0.43434 0.0
C542 C 0.9661 0.92535 0.45277 0.0
C543 C 1.00529 0.94078 0.45337 0.0
C544 C 0.02118 0.92328 0.4351 0.0
H545 H 0.36414 0.77119 0.69998 0.0
H546 H 0.41095 0.86327 0.65972 0.0
H547 H 0.45598 0.84493 0.63923 0.0
H548 H 0.45302 0.76705 0.72992 0.0
H549 H 0.43329 0.72206 0.719 0.0
H550 H 0.40396 0.74191 0.72966 0.0
H551 H 0.35514 0.712 0.67186 0.0
H552 H 0.3843 0.692 0.66114 0.0
H553 H 0.3709 0.71658 0.63269 0.0
H554 H 0.49587 0.81664 0.62319 0.0
H555 H 0.52865 0.78069 0.61363 0.0
H556 H 0.45648 0.70764 0.66524 0.0
C557 C 0.38366 0.78741 0.68664 0.0
C558 C 0.38391 0.8186 0.68127 0.0
C559 C 0.41023 0.83926 0.66407 0.0
C560 C 0.43589 0.82906 0.65233 0.0
C561 C 0.43503 0.79827 0.65822 0.0
C562 C 0.40969 0.77777 0.67505 0.0
C563 C 0.41521 0.74622 0.67875 0.0
C564 C 0.42708 0.74422 0.71658 0.0
C565 C 0.37925 0.71485 0.65998 0.0
C566 C 0.4475 0.75212 0.66125 0.0
C567 C 0.45845 0.78224 0.6495 0.0
C568 C 0.48754 0.793 0.63227 0.0
C569 C 0.50586 0.77238 0.62683 0.0
C570 C 0.49511 0.74144 0.63872 0.0
C571 C 0.4656 0.73135 0.65623 0.0
H572 H 0.71043 0.71707 0.65687 0.0
H573 H 0.7346 0.77538 0.75697 0.0
H574 H 0.78127 0.82446 0.74002 0.0
H575 H 0.80632 0.75076 0.64768 0.0
H576 H 0.79365 0.75075 0.60257 0.0
H577 H 0.76081 0.72058 0.62204 0.0
H578 H 0.70904 0.74029 0.59898 0.0
H579 H 0.74168 0.77041 0.57931 0.0
H580 H 0.71921 0.78399 0.60864 0.0
H581 H 0.82661 0.86673 0.71278 0.0
H582 H 0.8659 0.89986 0.67638 0.0
H583 H 0.81381 0.81348 0.59463 0.0
C584 C 0.72535 0.74026 0.6751 0.0
C585 C 0.71809 0.7427 0.70791 0.0
C586 C 0.73848 0.77331 0.73123 0.0
C587 C 0.76548 0.80121 0.722 0.0
C588 C 0.77189 0.798 0.68942 0.0
C589 C 0.75237 0.76834 0.66628 0.0
C590 C 0.76495 0.77142 0.63303 0.0
C591 C 0.78248 0.74693 0.62593 0.0
C592 C 0.73174 0.76623 0.60324 0.0
C593 C 0.79472 0.80741 0.64118 0.0
C594 C 0.79833 0.82226 0.67385 0.0
C595 C 0.82408 0.85536 0.68715 0.0
C596 C 0.8465 0.8739 0.66638 0.0
C597 C 0.84304 0.85929 0.63267 0.0
C598 C 0.81688 0.8255 0.62013 0.0
H599 H 0.72373 0.15001 0.3316 0.0
H600 H 0.67155 0.21874 0.34279 0.0
H601 H 0.63203 0.19565 0.28446 0.0
H602 H 0.72376 0.15225 0.24046 0.0
H603 H 0.71276 0.10838 0.23067 0.0
H604 H 0.73951 0.13194 0.27264 0.0
H605 H 0.69016 0.08929 0.29959 0.0
H606 H 0.6633 0.06563 0.25777 0.0
H607 H 0.64062 0.08052 0.28588 0.0
H608 H 0.59407 0.1625 0.22819 0.0
H609 H 0.56015 0.12114 0.17521 0.0
H610 H 0.6374 0.07452 0.19785 0.0
C611 C 0.70434 0.16048 0.32162 0.0
C612 C 0.70079 0.18619 0.3419 0.0
C613 C 0.67487 0.19905 0.32791 0.0
C614 C 0.65232 0.18619 0.2947 0.0
C615 C 0.65619 0.16068 0.2756 0.0
C616 C 0.68161 0.148 0.2883 0.0
C617 C 0.67866 0.11946 0.26266 0.0
C618 C 0.71589 0.12856 0.25091 0.0
C619 C 0.66751 0.0868 0.27736 0.0
C620 C 0.64683 0.11755 0.23406 0.0
C621 C 0.63455 0.14176 0.24216 0.0
C622 C 0.60376 0.14376 0.22122 0.0
C623 C 0.58461 0.12011 0.19132 0.0
C624 C 0.59647 0.09498 0.18252 0.0
C625 C 0.62837 0.09399 0.2038 0.0
H626 H 0.41168 0.65396 0.35405 0.0
H627 H 0.52119 0.7402 0.38575 0.0
H628 H 0.53596 0.71879 0.43827 0.0
H629 H 0.39447 0.64241 0.4412 0.0
H630 H 0.37409 0.5974 0.43004 0.0
H631 H 0.36913 0.62212 0.3979 0.0
H632 H 0.39913 0.59445 0.36048 0.0
H633 H 0.40427 0.56977 0.39246 0.0
H634 H 0.44524 0.59609 0.37814 0.0
H635 H 0.54222 0.68569 0.4833 0.0
H636 H 0.54111 0.64176 0.51694 0.0
H637 H 0.4282 0.57541 0.45635 0.0
C638 C 0.43823 0.6688 0.37262 0.0
C639 C 0.46511 0.69901 0.36617 0.0
C640 C 0.50013 0.71718 0.39039 0.0
C641 C 0.50867 0.70528 0.42033 0.0
C642 C 0.48199 0.67505 0.42561 0.0
C643 C 0.44748 0.65695 0.40245 0.0
C644 C 0.42583 0.62336 0.41238 0.0
C645 C 0.38867 0.62121 0.42089 0.0
C646 C 0.41819 0.59421 0.3842 0.0
C647 C 0.45411 0.62499 0.44411 0.0
C648 C 0.48596 0.65534 0.45155 0.0
C649 C 0.51718 0.66207 0.4781 0.0
C650 C 0.51626 0.63693 0.49712 0.0
C651 C 0.48441 0.60534 0.48956 0.0
C652 C 0.4526 0.59955 0.46312 0.0
H653 H 0.13163 0.4475 0.80925 0.0
H654 H 0.16068 0.37513 0.85867 0.0
H655 H 0.14063 0.39016 0.90942 0.0
H656 H 0.15867 0.51037 0.88634 0.0
H657 H 0.11888 0.52032 0.87321 0.0
H658 H 0.13852 0.50618 0.84157 0.0
H659 H 0.07207 0.45829 0.81352 0.0
H660 H 0.05232 0.47227 0.8451 0.0
H661 H 0.04686 0.42964 0.83909 0.0
H662 H 0.11669 0.41181 0.95456 0.0
H663 H 0.08639 0.43637 0.98996 0.0
H664 H 0.0686 0.49267 0.91105 0.0
C665 C 0.13432 0.43529 0.83102 0.0
C666 C 0.14812 0.41034 0.8301 0.0
C667 C 0.15031 0.39434 0.85878 0.0
C668 C 0.13909 0.40277 0.88781 0.0
C669 C 0.12518 0.42705 0.88784 0.0
C670 C 0.12242 0.44297 0.86018 0.0
C671 C 0.10404 0.46658 0.86627 0.0
C672 C 0.13168 0.50303 0.86689 0.0
C673 C 0.0666 0.45605 0.8394 0.0
C674 C 0.09682 0.46119 0.90147 0.0
C675 C 0.10974 0.43861 0.91354 0.0
C676 C 0.10643 0.42954 0.94538 0.0
C677 C 0.08919 0.44369 0.96537 0.0
C678 C 0.07494 0.46641 0.95339 0.0
C679 C 0.07904 0.4753 0.92097 0.0
H680 H 0.67044 0.83597 0.85011 0.0
H681 H 0.57221 0.81903 0.76983 0.0
H682 H 0.55498 0.85457 0.80753 0.0
H683 H 0.62538 0.83239 0.919 0.0
H684 H 0.66674 0.86465 0.94831 0.0
H685 H 0.67234 0.83922 0.91449 0.0
H686 H 0.71306 0.89273 0.8932 0.0
H687 H 0.70757 0.91829 0.92702 0.0
H688 H 0.69398 0.92248 0.88326 0.0
H689 H 0.54752 0.89064 0.85456 0.0
H690 H 0.55055 0.92478 0.9075 0.0
H691 H 0.65275 0.91663 0.95708 0.0
C692 C 0.6455 0.83995 0.84027 0.0
C693 C 0.62275 0.82482 0.80695 0.0
C694 C 0.59013 0.83044 0.79523 0.0
C695 C 0.58012 0.85059 0.81643 0.0
C696 C 0.60302 0.86489 0.84922 0.0
C697 C 0.63504 0.85985 0.86108 0.0
C698 C 0.65423 0.87726 0.89768 0.0
C699 C 0.65467 0.85186 0.92125 0.0
C700 C 0.6946 0.9043 0.90043 0.0
C701 C 0.62785 0.89272 0.90462 0.0
C702 C 0.59856 0.8854 0.87635 0.0
C703 C 0.57036 0.89657 0.87684 0.0
C704 C 0.57216 0.91573 0.90709 0.0
C705 C 0.60186 0.92335 0.93642 0.0
C706 C 0.63003 0.91168 0.93496 0.0
H707 H 0.83051 0.11516 0.47665 0.0
H708 H 0.89976 0.19016 0.42482 0.0
H709 H 0.94277 0.16238 0.42554 0.0
H710 H 0.90747 0.10971 0.53239 0.0
H711 H 0.88315 0.06525 0.53125 0.0
H712 H 0.85632 0.08966 0.52455 0.0
H713 H 0.81694 0.05052 0.46672 0.0
H714 H 0.8439 0.02613 0.47317 0.0
H715 H 0.84113 0.04404 0.43496 0.0
H716 H 0.97998 0.12846 0.43429 0.0
H717 H 1.0107 0.09222 0.45289 0.0
H718 H 0.91765 0.039 0.49924 0.0
C719 C 0.85452 0.12556 0.46516 0.0
C720 C 0.86168 0.1548 0.45056 0.0
C721 C 0.89366 0.16781 0.43615 0.0
C722 C 0.91818 0.15212 0.43628 0.0
C723 C 0.91036 0.12341 0.45091 0.0
C724 C 0.87942 0.11029 0.46521 0.0
C725 C 0.8787 0.08021 0.48095 0.0
C726 C 0.8816 0.08661 0.51957 0.0
C727 C 0.84305 0.04834 0.46286 0.0
C728 C 0.91437 0.0788 0.47367 0.0
C729 C 0.93198 0.10378 0.45605 0.0
C730 C 0.96629 0.10862 0.44782 0.0
C731 C 0.98352 0.08788 0.45854 0.0
C732 C 0.96652 0.0626 0.47737 0.0
C733 C 0.93107 0.05767 0.48439 0.0
H734 H 0.30196 0.65812 0.12839 0.0
H735 H 0.27759 0.61378 0.21793 0.0
H736 H 0.21425 0.57358 0.18394 0.0
H737 H 0.21591 0.65778 0.09939 0.0
H738 H 0.21215 0.64736 0.05442 0.0
H739 H 0.25822 0.66828 0.08336 0.0
H740 H 0.27618 0.62098 0.06273 0.0
H741 H 0.23025 0.60004 0.03324 0.0
H742 H 0.24569 0.57808 0.06371 0.0
H743 H 0.15068 0.5463 0.14438 0.0
H744 H 0.09198 0.52997 0.10003 0.0
H745 H 0.15705 0.58981 0.03462 0.0
C746 C 0.28381 0.63926 0.1406 0.0
C747 C 0.29471 0.63909 0.17584 0.0
C748 C 0.26988 0.61435 0.19098 0.0
C749 C 0.23386 0.59136 0.17186 0.0
C750 C 0.22334 0.5932 0.13756 0.0
C751 C 0.24777 0.61611 0.12185 0.0
C752 C 0.22818 0.61491 0.08555 0.0
C753 C 0.22865 0.64911 0.08041 0.0
C754 C 0.24615 0.60277 0.05978 0.0
C755 C 0.18837 0.58904 0.08395 0.0
C756 C 0.1864 0.57661 0.11415 0.0
C757 C 0.15204 0.55513 0.1203 0.0
C758 C 0.11882 0.54614 0.095 0.0
C759 C 0.12015 0.55822 0.06375 0.0
C760 C 0.15543 0.57965 0.058 0.0
H761 H 0.27019 0.43113 0.64498 0.0
H762 H 0.31361 0.50768 0.7355 0.0
H763 H 0.36598 0.54283 0.7107 0.0
H764 H 0.36137 0.43882 0.63708 0.0
H765 H 0.34943 0.43067 0.59106 0.0
H766 H 0.3129 0.41338 0.61393 0.0
H767 H 0.27422 0.44137 0.58114 0.0
H768 H 0.31073 0.45878 0.5582 0.0
H769 H 0.29621 0.48592 0.58184 0.0
H770 H 0.41389 0.56932 0.67643 0.0
H771 H 0.45858 0.58263 0.63881 0.0
H772 H 0.38794 0.48659 0.57261 0.0
C773 C 0.29035 0.45561 0.6592 0.0
C774 C 0.2875 0.4671 0.69185 0.0
C775 C 0.3151 0.49866 0.71031 0.0
C776 C 0.34482 0.5188 0.69637 0.0
C777 C 0.34704 0.5067 0.66422 0.0
C778 C 0.32089 0.47561 0.64606 0.0
C779 C 0.33194 0.46716 0.61361 0.0
C780 C 0.33936 0.43565 0.61396 0.0
C781 C 0.30146 0.46308 0.58182 0.0
C782 C 0.36841 0.49831 0.6164 0.0
C783 C 0.37613 0.52104 0.64546 0.0
C784 C 0.40813 0.55169 0.65363 0.0
C785 C 0.43331 0.55909 0.63194 0.0
C786 C 0.42686 0.53573 0.60265 0.0
C787 C 0.39369 0.50503 0.59474 0.0
H788 H 0.75858 0.65129 0.81549 0.0
H789 H 0.67117 0.55005 0.77944 0.0
H790 H 0.71235 0.52809 0.81284 0.0
H791 H 0.83579 0.63167 0.80933 0.0
H792 H 0.86808 0.66125 0.84671 0.0
H793 H 0.83036 0.66903 0.8226 0.0
H794 H 0.806 0.67419 0.8772 0.0
H795 H 0.84371 0.66645 0.9015 0.0
H796 H 0.79492 0.64045 0.9013 0.0
H797 H 0.76369 0.51741 0.84944 0.0
H798 H 0.82325 0.51824 0.88256 0.0
H799 H 0.87839 0.62633 0.89212 0.0
C800 C 0.74796 0.62456 0.81514 0.0
C801 C 0.71173 0.6022 0.7951 0.0
C802 C 0.69899 0.56738 0.79453 0.0
C803 C 0.72206 0.55479 0.81359 0.0
C804 C 0.7579 0.57745 0.83284 0.0
C805 C 0.77092 0.61159 0.83354 0.0
C806 C 0.81159 0.63037 0.8542 0.0
C807 C 0.838 0.64918 0.83187 0.0
C808 C 0.81419 0.65428 0.8854 0.0
C809 C 0.81952 0.60147 0.86479 0.0
C810 C 0.78799 0.57121 0.8527 0.0
C811 C 0.78851 0.54096 0.85911 0.0
C812 C 0.82233 0.54167 0.87803 0.0
C813 C 0.85519 0.57233 0.88984 0.0
C814 C 0.85362 0.60257 0.88328 0.0
H815 H 0.4984 0.84178 0.25175 0.0
H816 H 0.37757 0.81632 0.23185 0.0
H817 H 0.3879 0.8653 0.20352 0.0
H818 H 0.53153 0.93533 0.26495 0.0
H819 H 0.56971 0.9407 0.24414 0.0
H820 H 0.55366 0.90684 0.26764 0.0
H821 H 0.54225 0.86453 0.21388 0.0
H822 H 0.55772 0.8981 0.19014 0.0
H823 H 0.51146 0.86352 0.17461 0.0
H824 H 0.40948 0.91092 0.16869 0.0
H825 H 0.44226 0.95307 0.13496 0.0
H826 H 0.54898 0.95022 0.17977 0.0
C827 C 0.47428 0.8471 0.24246 0.0
C828 C 0.4372 0.82514 0.24412 0.0
C829 C 0.40632 0.83279 0.23111 0.0
C830 C 0.41187 0.86059 0.21489 0.0
C831 C 0.44853 0.88087 0.21238 0.0
C832 C 0.47935 0.87488 0.22642 0.0
C833 C 0.51537 0.89899 0.21806 0.0
C834 C 0.54427 0.92182 0.25064 0.0
C835 C 0.53269 0.88015 0.19798 0.0
C836 C 0.4997 0.9185 0.196 0.0
C837 C 0.46112 0.90784 0.19311 0.0
C838 C 0.43986 0.92007 0.17144 0.0
C839 C 0.45859 0.94382 0.15227 0.0
C840 C 0.49809 0.95505 0.1551 0.0
C841 C 0.51884 0.94253 0.17761 0.0
H842 H 0.12089 0.24241 0.66433 0.0
H843 H 0.16411 0.21951 0.76093 0.0
H844 H 0.14505 0.16169 0.73312 0.0
H845 H 0.0395 0.16517 0.63594 0.0
H846 H 0.04157 0.16194 0.5917 0.0
H847 H 0.06101 0.2025 0.61833 0.0
H848 H 0.12597 0.21677 0.60307 0.0
H849 H 0.10667 0.17617 0.57637 0.0
H850 H 0.14887 0.18921 0.61016 0.0
H851 H 0.11669 0.1054 0.69696 0.0
H852 H 0.08182 0.05391 0.65353 0.0
H853 H 0.05868 0.11221 0.57908 0.0
C854 C 0.12682 0.22535 0.6795 0.0
C855 C 0.14409 0.23567 0.71491 0.0
C856 C 0.15099 0.2124 0.73384 0.0
C857 C 0.14033 0.17941 0.71826 0.0
C858 C 0.12299 0.16993 0.68356 0.0
C859 C 0.11646 0.19217 0.66425 0.0
C860 C 0.09601 0.17489 0.6276 0.0
C861 C 0.05722 0.17621 0.61784 0.0
C862 C 0.12087 0.19017 0.60284 0.0
C863 C 0.09132 0.13938 0.62967 0.0
C864 C 0.10727 0.13723 0.66223 0.0
C865 C 0.10457 0.10682 0.67124 0.0
C866 C 0.08465 0.07772 0.64647 0.0
C867 C 0.06792 0.0792 0.61303 0.0
C868 C 0.07186 0.11053 0.60435 0.0
H869 H 0.67443 0.31357 0.48181 0.0
H870 H 0.70716 0.34397 0.38877 0.0
H871 H 0.67031 0.37749 0.38642 0.0
H872 H 0.57947 0.30462 0.45742 0.0
H873 H 0.57799 0.32101 0.4992 0.0
H874 H 0.60866 0.30065 0.49503 0.0
H875 H 0.66677 0.35341 0.53064 0.0
H876 H 0.63617 0.37379 0.53516 0.0
H877 H 0.67697 0.3935 0.51765 0.0
H878 H 0.6276 0.40521 0.39199 0.0
H879 H 0.5834 0.4276 0.40667 0.0
H880 H 0.57882 0.38063 0.49678 0.0
C881 C 0.67426 0.32764 0.46121 0.0
C882 C 0.69377 0.32612 0.43549 0.0
C883 C 0.69249 0.34467 0.40878 0.0
C884 C 0.67161 0.36381 0.40718 0.0
C885 C 0.65217 0.36428 0.43251 0.0
C886 C 0.65345 0.34693 0.45917 0.0
C887 C 0.62919 0.35124 0.48262 0.0
C888 C 0.59692 0.31736 0.4836 0.0
C889 C 0.65375 0.36905 0.51865 0.0
C890 C 0.61382 0.37339 0.46469 0.0
C891 C 0.62754 0.3806 0.43588 0.0
C892 C 0.61697 0.40006 0.41471 0.0
C893 C 0.59196 0.41279 0.42337 0.0
C894 C 0.5778 0.40615 0.45303 0.0
C895 C 0.58886 0.386 0.47381 0.0
loop_
_geom_bond_atom_site_label_1
_geom_bond_atom_site_label_2
_geom_bond_distance
_geom_bond_site_symmetry_2
_ccdc_geom_bond_type
O0 Cd1 2.300 . S
O0 C7 1.275 . S
Cd1 O0 2.300 . S
Cd1 O9 2.381 . S
Cd1 O10 2.378 . S
O2 Cd3 2.385 . S
O2 C7 1.255 . S
Cd3 O2 2.385 . S
Cd3 O4 2.317 . S
O4 Cd3 2.317 . S
O4 C5 1.232 . S
C5 O4 1.232 . S
C5 O6 1.218 . S
O6 C5 1.218 . S
C7 O0 1.275 . S
C7 O2 1.255 . S
C8 O9 1.258 . S
C8 O10 1.256 . S
O9 Cd1 2.381 . S
O9 C8 1.258 . S
O10 Cd1 2.378 . S
O10 C8 1.256 . S
O11 Cd12 2.300 . S
O11 C18 1.275 . S
Cd12 O11 2.300 . S
Cd12 O20 2.381 . S
Cd12 O21 2.378 . S
O13 Cd14 2.385 . S
O13 C18 1.255 . S
Cd14 O13 2.385 . S
Cd14 O15 2.317 . S
O15 Cd14 2.317 . S
O15 C16 1.232 . S
C16 O15 1.232 . S
C16 O17 1.218 . S
O17 C16 1.218 . S
C18 O11 1.275 . S
C18 O13 1.255 . S
C19 O20 1.258 . S
C19 O21 1.256 . S
O20 Cd12 2.381 . S
O20 C19 1.258 . S
O21 Cd12 2.378 . S
O21 C19 1.256 . S
O22 Cd23 2.300 . S
O22 C29 1.275 . S
Cd23 O22 2.300 . S
Cd23 O31 2.381 . S
Cd23 O32 2.378 . S
O24 Cd25 2.385 . S
O24 C29 1.255 . S
Cd25 O24 2.385 . S
Cd25 O26 2.317 . S
O26 Cd25 2.317 . S
O26 C27 1.232 . S
C27 O26 1.232 . S
C27 O28 1.218 . S
O28 C27 1.218 . S
C29 O22 1.275 . S
C29 O24 1.255 . S
C30 O31 1.258 . S
C30 O32 1.256 . S
O31 Cd23 2.381 . S
O31 C30 1.258 . S
O32 Cd23 2.378 . S
O32 C30 1.256 . S
O33 Cd34 2.300 . S
O33 C40 1.275 . S
Cd34 O33 2.300 . S
Cd34 O42 2.381 . S
Cd34 O43 2.378 . S
O35 Cd36 2.385 . S
O35 C40 1.255 . S
Cd36 O35 2.385 . S
Cd36 O37 2.317 . S
O37 Cd36 2.317 . S
O37 C38 1.232 . S
C38 O37 1.232 . S
C38 O39 1.218 . S
O39 C38 1.218 . S
C40 O33 1.275 . S
C40 O35 1.255 . S
C41 O42 1.258 . S
C41 O43 1.256 . S
O42 Cd34 2.381 . S
O42 C41 1.258 . S
O43 Cd34 2.378 . S
O43 C41 1.256 . S
O44 Cd45 2.300 . S
O44 C51 1.275 . S
Cd45 O44 2.300 . S
Cd45 O53 2.381 . S
Cd45 O54 2.378 . S
O46 Cd47 2.385 . S
O46 C51 1.255 . S
Cd47 O46 2.385 . S
Cd47 O48 2.317 . S
O48 Cd47 2.317 . S
O48 C49 1.232 . S
C49 O48 1.232 . S
C49 O50 1.218 . S
O50 C49 1.218 . S
C51 O44 1.275 . S
C51 O46 1.255 . S
C52 O53 1.258 . S
C52 O54 1.256 . S
O53 Cd45 2.381 . S
O53 C52 1.258 . S
O54 Cd45 2.378 . S
O54 C52 1.256 . S
O55 Cd56 2.300 . S
O55 C62 1.275 . S
Cd56 O55 2.300 . S
Cd56 O64 2.381 . S
Cd56 O65 2.378 . S
O57 Cd58 2.385 . S
O57 C62 1.255 . S
Cd58 O57 2.385 . S
Cd58 O59 2.317 . S
O59 Cd58 2.317 . S
O59 C60 1.232 . S
C60 O59 1.232 . S
C60 O61 1.218 . S
O61 C60 1.218 . S
C62 O55 1.275 . S
C62 O57 1.255 . S
C63 O64 1.258 . S
C63 O65 1.256 . S
O64 Cd56 2.381 . S
O64 C63 1.258 . S
O65 Cd56 2.378 . S
O65 C63 1.256 . S
O66 Cd67 2.300 . S
O66 C73 1.275 . S
Cd67 O66 2.300 . S
Cd67 O75 2.381 . S
Cd67 O76 2.378 . S
O68 Cd69 2.385 . S
O68 C73 1.255 . S
Cd69 O68 2.385 . S
Cd69 O70 2.317 . S
O70 Cd69 2.317 . S
O70 C71 1.232 . S
C71 O70 1.232 . S
C71 O72 1.218 . S
O72 C71 1.218 . S
C73 O66 1.275 . S
C73 O68 1.255 . S
C74 O75 1.258 . S
C74 O76 1.256 . S
O75 Cd67 2.381 . S
O75 C74 1.258 . S
O76 Cd67 2.378 . S
O76 C74 1.256 . S
O77 Cd78 2.300 . S
O77 C84 1.275 . S
Cd78 O77 2.300 . S
Cd78 O86 2.381 . S
Cd78 O87 2.378 . S
O79 Cd80 2.385 . S
O79 C84 1.255 . S
Cd80 O79 2.385 . S
Cd80 O81 2.317 . S
O81 Cd80 2.317 . S
O81 C82 1.232 . S
C82 O81 1.232 . S
C82 O83 1.218 . S
O83 C82 1.218 . S
C84 O77 1.275 . S
C84 O79 1.255 . S
C85 O86 1.258 . S
C85 O87 1.256 . S
O86 Cd78 2.381 . S
O86 C85 1.258 . S
O87 Cd78 2.378 . S
O87 C85 1.256 . S
Pr88 C90 2.880 . S
Pr88 O108 2.562 . S
Pr88 O109 2.490 . S
Pr88 O110 2.695 1_665 S
Pr88 O111 2.512 1_665 S
Pr88 O113 2.437 1_655 S
Pr88 O116 2.436 . S
Pr88 O118 2.438 1_565 S
Pr89 C99 2.880 . S
Pr89 O110 2.436 . S
Pr89 O112 2.438 1_545 S
Pr89 O114 2.562 . S
Pr89 O115 2.490 . S
Pr89 O116 2.695 1_445 S
Pr89 O117 2.512 1_545 S
Pr89 O119 2.437 1_455 S
C90 Pr88 2.880 . S
C90 C91 1.491 . S
C90 O108 1.254 . S
C90 O109 1.225 . S
C91 C90 1.491 . S
C91 C92 1.392 . S
C91 C96 1.356 . S
C92 C91 1.392 . S
C92 C93 1.368 . S
C92 H120 0.929 . S
C93 C92 1.368 . S
C93 C94 1.386 . S
C93 H121 0.929 . S
C94 C93 1.386 . S
C94 C95 1.373 . S
C95 C94 1.373 . S
C95 C96 1.409 . S
C95 H122 0.931 . S
C96 C91 1.356 . S
C96 C95 1.409 . S
C96 H123 0.930 . S
C97 O110 1.270 . S
C97 O111 1.248 . S
C98 O112 1.267 . S
C98 O113 1.278 . S
C99 Pr89 2.880 . S
C99 C100 1.491 . S
C99 O114 1.254 . S
C99 O115 1.225 . S
C100 C99 1.491 . S
C100 C101 1.392 . S
C100 C105 1.356 . S
C101 C100 1.392 . S
C101 C102 1.368 . S
C101 H124 0.929 . S
C102 C101 1.368 . S
C102 C103 1.386 . S
C102 H125 0.929 . S
C103 C102 1.386 . S
C103 C104 1.373 . S
C104 C103 1.373 . S
C104 C105 1.409 . S
C104 H126 0.931 . S
C105 C100 1.356 . S
C105 C104 1.409 . S
C105 H127 0.930 . S
C106 O116 1.270 . S
C106 O117 1.248 1_655 S
C107 O118 1.267 . S
C107 O119 1.278 . S
O108 Pr88 2.562 . S
O108 C90 1.254 . S
O109 Pr88 2.490 . S
O109 C90 1.225 . S
O110 Pr88 2.695 1_445 S
O110 Pr89 2.436 . S
O110 C97 1.270 . S
O111 Pr88 2.512 1_445 S
O111 C97 1.248 . S
O112 Pr89 2.438 1_565 S
O112 C98 1.267 . S
O113 Pr88 2.437 1_455 S
O113 C98 1.278 . S
O114 Pr89 2.562 . S
O114 C99 1.254 . S
O115 Pr89 2.490 . S
O115 C99 1.225 . S
O116 Pr88 2.436 . S
O116 Pr89 2.695 1_665 S
O116 C106 1.270 . S
O117 Pr89 2.512 1_565 S
O117 C106 1.248 1_455 S
O118 Pr88 2.438 1_545 S
O118 C107 1.267 . S
O119 Pr89 2.437 1_655 S
O119 C107 1.278 . S
H120 C92 0.929 . S
H121 C93 0.929 . S
H122 C95 0.931 . S
H123 C96 0.930 . S
H124 C101 0.929 . S
H125 C102 0.929 . S
H126 C104 0.931 . S
H127 C105 0.930 . S
Pr128 C130 2.880 . S
Pr128 O148 2.562 . S
Pr128 O149 2.490 . S
Pr128 O150 2.695 . S
Pr128 O151 2.512 . S
Pr128 O153 2.437 . S
Pr128 O156 2.436 . S
Pr128 O158 2.438 1_544 S
Pr129 C139 2.880 1_544 S
Pr129 O150 2.436 . S
Pr129 O152 2.438 . S
Pr129 O154 2.562 1_544 S
Pr129 O155 2.490 1_545 S
Pr129 O156 2.695 . S
Pr129 O157 2.512 1_545 S
Pr129 O159 2.437 1_545 S
C130 Pr128 2.880 . S
C130 C131 1.491 . S
C130 O148 1.254 . S
C130 O149 1.225 . S
C131 C130 1.491 . S
C131 C132 1.392 . S
C131 C136 1.356 . S
C132 C131 1.392 . S
C132 C133 1.368 . S
C132 H160 0.929 . S
C133 C132 1.368 . S
C133 C134 1.386 . S
C133 H161 0.929 . S
C134 C133 1.386 . S
C134 C135 1.373 . S
C135 C134 1.373 . S
C135 C136 1.409 . S
C135 H162 0.931 . S
C136 C131 1.356 . S
C136 C135 1.409 . S
C136 H163 0.930 . S
C137 O150 1.270 . S
C137 O151 1.248 . S
C138 O152 1.267 . S
C138 O153 1.278 . S
C139 Pr129 2.880 1_566 S
C139 C140 1.491 . S
C139 O154 1.254 . S
C139 O155 1.225 1_556 S
C140 C139 1.491 . S
C140 C141 1.392 . S
C140 C145 1.356 . S
C141 C140 1.392 . S
C141 C142 1.368 . S
C141 H164 0.929 . S
C142 C141 1.368 . S
C142 C143 1.386 . S
C142 H165 0.929 . S
C143 C142 1.386 . S
C143 C144 1.373 . S
C144 C143 1.373 . S
C144 C145 1.409 . S
C144 H166 0.931 . S
C145 C140 1.356 . S
C145 C144 1.409 . S
C145 H167 0.930 . S
C146 O156 1.270 1_565 S
C146 O157 1.248 . S
C147 O158 1.267 . S
C147 O159 1.278 1_556 S
O148 Pr128 2.562 . S
O148 C130 1.254 . S
O149 Pr128 2.490 . S
O149 C130 1.225 . S
O150 Pr128 2.695 . S
O150 Pr129 2.436 . S
O150 C137 1.270 . S
O151 Pr128 2.512 . S
O151 C137 1.248 . S
O152 Pr129 2.438 . S
O152 C138 1.267 . S
O153 Pr128 2.437 . S
O153 C138 1.278 . S
O154 Pr129 2.562 1_566 S
O154 C139 1.254 . S
O155 Pr129 2.490 1_565 S
O155 C139 1.225 1_554 S
O156 Pr128 2.436 . S
O156 Pr129 2.695 . S
O156 C146 1.270 1_545 S
O157 Pr129 2.512 1_565 S
O157 C146 1.248 . S
O158 Pr128 2.438 1_566 S
O158 C147 1.267 . S
O159 Pr129 2.437 1_565 S
O159 C147 1.278 1_554 S
H160 C132 0.929 . S
H161 C133 0.929 . S
H162 C135 0.931 . S
H163 C136 0.930 . S
H164 C141 0.929 . S
H165 C142 0.929 . S
H166 C144 0.931 . S
H167 C145 0.930 . S
Pr168 C170 2.880 . S
Pr168 O188 2.562 . S
Pr168 O189 2.490 . S
Pr168 O190 2.695 . S
Pr168 O191 2.512 . S
Pr168 O193 2.437 . S
Pr168 O196 2.436 . S
Pr168 O198 2.438 . S
Pr169 C179 2.880 . S
Pr169 O190 2.436 . S
Pr169 O192 2.438 . S
Pr169 O194 2.562 . S
Pr169 O195 2.490 . S
Pr169 O196 2.695 . S
Pr169 O197 2.512 . S
Pr169 O199 2.437 . S
C170 Pr168 2.880 . S
C170 C171 1.491 . S
C170 O188 1.254 . S
C170 O189 1.225 . S
C171 C170 1.491 . S
C171 C172 1.392 . S
C171 C176 1.356 . S
C172 C171 1.392 . S
C172 C173 1.368 . S
C172 H200 0.929 . S
C173 C172 1.368 . S
C173 C174 1.386 . S
C173 H201 0.929 . S
C174 C173 1.386 . S
C174 C175 1.373 . S
C175 C174 1.373 . S
C175 C176 1.409 . S
C175 H202 0.931 . S
C176 C171 1.356 . S
C176 C175 1.409 . S
C176 H203 0.930 . S
C177 O190 1.270 . S
C177 O191 1.248 . S
C178 O192 1.267 . S
C178 O193 1.278 . S
C179 Pr169 2.880 . S
C179 C180 1.491 . S
C179 O194 1.254 . S
C179 O195 1.225 . S
C180 C179 1.491 . S
C180 C181 1.392 . S
C180 C185 1.356 . S
C181 C180 1.392 . S
C181 C182 1.368 . S
C181 H204 0.929 . S
C182 C181 1.368 . S
C182 C183 1.386 . S
C182 H205 0.929 . S
C183 C182 1.386 . S
C183 C184 1.373 . S
C184 C183 1.373 . S
C184 C185 1.409 . S
C184 H206 0.931 . S
C185 C180 1.356 . S
C185 C184 1.409 . S
C185 H207 0.930 . S
C186 O196 1.270 . S
C186 O197 1.248 . S
C187 O198 1.267 . S
C187 O199 1.278 . S
O188 Pr168 2.562 . S
O188 C170 1.254 . S
O189 Pr168 2.490 . S
O189 C170 1.225 . S
O190 Pr168 2.695 . S
O190 Pr169 2.436 . S
O190 C177 1.270 . S
O191 Pr168 2.512 . S
O191 C177 1.248 . S
O192 Pr169 2.438 . S
O192 C178 1.267 . S
O193 Pr168 2.437 . S
O193 C178 1.278 . S
O194 Pr169 2.562 . S
O194 C179 1.254 . S
O195 Pr169 2.490 . S
O195 C179 1.225 . S
O196 Pr168 2.436 . S
O196 Pr169 2.695 . S
O196 C186 1.270 . S
O197 Pr169 2.512 . S
O197 C186 1.248 . S
O198 Pr168 2.438 . S
O198 C187 1.267 . S
O199 Pr169 2.437 . S
O199 C187 1.278 . S
H200 C172 0.929 . S
H201 C173 0.929 . S
H202 C175 0.931 . S
H203 C176 0.930 . S
H204 C181 0.929 . S
H205 C182 0.929 . S
H206 C184 0.931 . S
H207 C185 0.930 . S
Pr208 C210 2.880 1_455 S
Pr208 O228 2.562 1_455 S
Pr208 O229 2.490 . S
Pr208 O230 2.695 1_556 S
Pr208 O231 2.512 1_556 S
Pr208 O233 2.437 1_556 S
Pr208 O236 2.436 1_455 S
Pr208 O238 2.438 . S
Pr209 C219 2.880 . S
Pr209 O230 2.436 . S
Pr209 O232 2.438 1_455 S
Pr209 O234 2.562 . S
Pr209 O235 2.490 . S
Pr209 O236 2.695 1_454 S
Pr209 O237 2.512 1_454 S
Pr209 O239 2.437 1_554 S
C210 Pr208 2.880 1_655 S
C210 C211 1.491 . S
C210 O228 1.254 . S
C210 O229 1.225 1_655 S
C211 C210 1.491 . S
C211 C212 1.392 . S
C211 C216 1.356 . S
C212 C211 1.392 . S
C212 C213 1.368 . S
C212 H240 0.929 1_655 S
C213 C212 1.368 . S
C213 C214 1.386 . S
C213 H241 0.929 . S
C214 C213 1.386 . S
C214 C215 1.373 . S
C215 C214 1.373 . S
C215 C216 1.409 . S
C215 H242 0.931 . S
C216 C211 1.356 . S
C216 C215 1.409 . S
C216 H243 0.930 . S
C217 O230 1.270 . S
C217 O231 1.248 . S
C218 O232 1.267 . S
C218 O233 1.278 1_655 S
C219 Pr209 2.880 . S
C219 C220 1.491 . S
C219 O234 1.254 . S
C219 O235 1.225 . S
C220 C219 1.491 . S
C220 C221 1.392 . S
C220 C225 1.356 . S
C221 C220 1.392 . S
C221 C222 1.368 . S
C221 H244 0.929 . S
C222 C221 1.368 . S
C222 C223 1.386 . S
C222 H245 0.929 . S
C223 C222 1.386 . S
C223 C224 1.373 . S
C224 C223 1.373 . S
C224 C225 1.409 . S
C224 H246 0.931 . S
C225 C220 1.356 . S
C225 C224 1.409 . S
C225 H247 0.930 . S
C226 O236 1.270 . S
C226 O237 1.248 . S
C227 O238 1.267 . S
C227 O239 1.278 . S
O228 Pr208 2.562 1_655 S
O228 C210 1.254 . S
O229 Pr208 2.490 . S
O229 C210 1.225 1_455 S
O230 Pr208 2.695 1_554 S
O230 Pr209 2.436 . S
O230 C217 1.270 . S
O231 Pr208 2.512 1_554 S
O231 C217 1.248 . S
O232 Pr209 2.438 1_655 S
O232 C218 1.267 . S
O233 Pr208 2.437 1_554 S
O233 C218 1.278 1_455 S
O234 Pr209 2.562 . S
O234 C219 1.254 . S
O235 Pr209 2.490 . S
O235 C219 1.225 . S
O236 Pr208 2.436 1_655 S
O236 Pr209 2.695 1_656 S
O236 C226 1.270 . S
O237 Pr209 2.512 1_656 S
O237 C226 1.248 . S
O238 Pr208 2.438 . S
O238 C227 1.267 . S
O239 Pr209 2.437 1_556 S
O239 C227 1.278 . S
H240 C212 0.929 1_455 S
H241 C213 0.929 . S
H242 C215 0.931 . S
H243 C216 0.930 . S
H244 C221 0.929 . S
H245 C222 0.929 . S
H246 C224 0.931 . S
H247 C225 0.930 . S
H248 C260 0.930 . S
H249 C262 0.930 . S
H250 C263 0.930 . S
H251 C267 0.959 . S
H252 C267 0.959 . S
H253 C267 0.961 . S
H254 C268 0.960 . S
H255 C268 0.961 . S
H256 C268 0.959 . S
H257 C271 0.929 . S
H258 C272 0.931 . S
H259 C274 0.930 . S
C260 H248 0.930 . S
C260 C261 1.399 . S
C260 C265 1.399 . S
C261 C260 1.399 . S
C261 C262 1.376 . S
C262 H249 0.930 . S
C262 C261 1.376 . S
C262 C263 1.388 . S
C263 H250 0.930 . S
C263 C262 1.388 . S
C263 C264 1.390 . S
C264 C263 1.390 . S
C264 C265 1.394 . S
C264 C270 1.465 . S
C265 C260 1.399 . S
C265 C264 1.394 . S
C265 C266 1.516 . S
C266 C265 1.516 . S
C266 C267 1.502 . S
C266 C268 1.561 . S
C266 C269 1.526 . S
C267 H251 0.959 . S
C267 H252 0.959 . S
C267 H253 0.961 . S
C267 C266 1.502 . S
C268 H254 0.960 . S
C268 H255 0.961 . S
C268 H256 0.959 . S
C268 C266 1.561 . S
C269 C266 1.526 . S
C269 C270 1.396 . S
C269 C274 1.390 . S
C270 C264 1.465 . S
C270 C269 1.396 . S
C270 C271 1.399 . S
C271 H257 0.929 . S
C271 C270 1.399 . S
C271 C272 1.385 . S
C272 H258 0.931 . S
C272 C271 1.385 . S
C272 C273 1.389 . S
C273 C272 1.389 . S
C273 C274 1.387 . S
C274 H259 0.930 . S
C274 C269 1.390 . S
C274 C273 1.387 . S
H275 C287 0.930 . S
H276 C289 0.930 . S
H277 C290 0.930 . S
H278 C294 0.959 . S
H279 C294 0.959 . S
H280 C294 0.961 . S
H281 C295 0.960 . S
H282 C295 0.961 . S
H283 C295 0.959 . S
H284 C298 0.929 . S
H285 C299 0.931 . S
H286 C301 0.930 . S
C287 H275 0.930 . S
C287 C288 1.399 . S
C287 C292 1.399 . S
C288 C287 1.399 . S
C288 C289 1.376 . S
C289 H276 0.930 . S
C289 C288 1.376 . S
C289 C290 1.388 . S
C290 H277 0.930 . S
C290 C289 1.388 . S
C290 C291 1.390 . S
C291 C290 1.390 . S
C291 C292 1.394 . S
C291 C297 1.465 . S
C292 C287 1.399 . S
C292 C291 1.394 . S
C292 C293 1.516 . S
C293 C292 1.516 . S
C293 C294 1.502 . S
C293 C295 1.561 . S
C293 C296 1.526 . S
C294 H278 0.959 . S
C294 H279 0.959 . S
C294 H280 0.961 . S
C294 C293 1.502 . S
C295 H281 0.960 . S
C295 H282 0.961 . S
C295 H283 0.959 . S
C295 C293 1.561 . S
C296 C293 1.526 . S
C296 C297 1.396 . S
C296 C301 1.390 . S
C297 C291 1.465 . S
C297 C296 1.396 . S
C297 C298 1.399 . S
C298 H284 0.929 . S
C298 C297 1.399 . S
C298 C299 1.385 . S
C299 H285 0.931 . S
C299 C298 1.385 . S
C299 C300 1.389 . S
C300 C299 1.389 . S
C300 C301 1.387 . S
C301 H286 0.930 . S
C301 C296 1.390 . S
C301 C300 1.387 . S
H302 C314 0.930 . S
H303 C316 0.930 . S
H304 C317 0.930 . S
H305 C321 0.959 . S
H306 C321 0.959 . S
H307 C321 0.961 . S
H308 C322 0.960 . S
H309 C322 0.961 . S
H310 C322 0.959 . S
H311 C325 0.929 . S
H312 C326 0.931 . S
H313 C328 0.930 . S
C314 H302 0.930 . S
C314 C315 1.399 . S
C314 C319 1.399 . S
C315 C314 1.399 . S
C315 C316 1.376 . S
C316 H303 0.930 . S
C316 C315 1.376 . S
C316 C317 1.388 . S
C317 H304 0.930 . S
C317 C316 1.388 . S
C317 C318 1.390 . S
C318 C317 1.390 . S
C318 C319 1.394 . S
C318 C324 1.465 . S
C319 C314 1.399 . S
C319 C318 1.394 . S
C319 C320 1.516 . S
C320 C319 1.516 . S
C320 C321 1.502 . S
C320 C322 1.561 . S
C320 C323 1.526 . S
C321 H305 0.959 . S
C321 H306 0.959 . S
C321 H307 0.961 . S
C321 C320 1.502 . S
C322 H308 0.960 . S
C322 H309 0.961 . S
C322 H310 0.959 . S
C322 C320 1.561 . S
C323 C320 1.526 . S
C323 C324 1.396 . S
C323 C328 1.390 . S
C324 C318 1.465 . S
C324 C323 1.396 . S
C324 C325 1.399 . S
C325 H311 0.929 . S
C325 C324 1.399 . S
C325 C326 1.385 . S
C326 H312 0.931 . S
C326 C325 1.385 . S
C326 C327 1.389 . S
C327 C326 1.389 . S
C327 C328 1.387 . S
C328 H313 0.930 . S
C328 C323 1.390 . S
C328 C327 1.387 . S
H329 C341 0.930 . S
H330 C343 0.930 . S
H331 C344 0.930 . S
H332 C348 0.959 . S
H333 C348 0.959 . S
H334 C348 0.961 . S
H335 C349 0.960 . S
H336 C349 0.961 . S
H337 C349 0.959 . S
H338 C352 0.929 . S
H339 C353 0.931 . S
H340 C355 0.930 . S
C341 H329 0.930 . S
C341 C342 1.399 . S
C341 C346 1.399 . S
C342 C341 1.399 . S
C342 C343 1.376 . S
C343 H330 0.930 . S
C343 C342 1.376 . S
C343 C344 1.388 . S
C344 H331 0.930 . S
C344 C343 1.388 . S
C344 C345 1.390 . S
C345 C344 1.390 . S
C345 C346 1.394 . S
C345 C351 1.465 . S
C346 C341 1.399 . S
C346 C345 1.394 . S
C346 C347 1.516 . S
C347 C346 1.516 . S
C347 C348 1.502 . S
C347 C349 1.561 . S
C347 C350 1.526 . S
C348 H332 0.959 . S
C348 H333 0.959 . S
C348 H334 0.961 . S
C348 C347 1.502 . S
C349 H335 0.960 . S
C349 H336 0.961 . S
C349 H337 0.959 . S
C349 C347 1.561 . S
C350 C347 1.526 . S
C350 C351 1.396 . S
C350 C355 1.390 . S
C351 C345 1.465 . S
C351 C350 1.396 . S
C351 C352 1.399 . S
C352 H338 0.929 . S
C352 C351 1.399 . S
C352 C353 1.385 . S
C353 H339 0.931 . S
C353 C352 1.385 . S
C353 C354 1.389 . S
C354 C353 1.389 . S
C354 C355 1.387 . S
C355 H340 0.930 . S
C355 C350 1.390 . S
C355 C354 1.387 . S
H356 C368 0.930 . S
H357 C370 0.930 . S
H358 C371 0.930 . S
H359 C375 0.959 . S
H360 C375 0.959 . S
H361 C375 0.961 . S
H362 C376 0.960 . S
H363 C376 0.961 . S
H364 C376 0.959 . S
H365 C379 0.929 . S
H366 C380 0.931 . S
H367 C382 0.930 . S
C368 H356 0.930 . S
C368 C369 1.399 . S
C368 C373 1.399 . S
C369 C368 1.399 . S
C369 C370 1.376 . S
C370 H357 0.930 . S
C370 C369 1.376 . S
C370 C371 1.388 . S
C371 H358 0.930 . S
C371 C370 1.388 . S
C371 C372 1.390 . S
C372 C371 1.390 . S
C372 C373 1.394 . S
C372 C378 1.465 . S
C373 C368 1.399 . S
C373 C372 1.394 . S
C373 C374 1.516 . S
C374 C373 1.516 . S
C374 C375 1.502 . S
C374 C376 1.561 . S
C374 C377 1.526 . S
C375 H359 0.959 . S
C375 H360 0.959 . S
C375 H361 0.961 . S
C375 C374 1.502 . S
C376 H362 0.960 . S
C376 H363 0.961 . S
C376 H364 0.959 . S
C376 C374 1.561 . S
C377 C374 1.526 . S
C377 C378 1.396 . S
C377 C382 1.390 . S
C378 C372 1.465 . S
C378 C377 1.396 . S
C378 C379 1.399 . S
C379 H365 0.929 . S
C379 C378 1.399 . S
C379 C380 1.385 . S
C380 H366 0.931 . S
C380 C379 1.385 . S
C380 C381 1.389 . S
C381 C380 1.389 . S
C381 C382 1.387 . S
C382 H367 0.930 . S
C382 C377 1.390 . S
C382 C381 1.387 . S
H383 C395 0.930 . S
H384 C397 0.930 . S
H385 C398 0.930 . S
H386 C402 0.959 . S
H387 C402 0.959 . S
H388 C402 0.961 . S
H389 C403 0.960 . S
H390 C403 0.961 . S
H391 C403 0.959 . S
H392 C406 0.929 . S
H393 C407 0.931 . S
H394 C409 0.930 . S
C395 H383 0.930 . S
C395 C396 1.399 . S
C395 C400 1.399 . S
C396 C395 1.399 . S
C396 C397 1.376 . S
C397 H384 0.930 . S
C397 C396 1.376 . S
C397 C398 1.388 . S
C398 H385 0.930 . S
C398 C397 1.388 . S
C398 C399 1.390 . S
C399 C398 1.390 . S
C399 C400 1.394 . S
C399 C405 1.465 . S
C400 C395 1.399 . S
C400 C399 1.394 . S
C400 C401 1.516 . S
C401 C400 1.516 . S
C401 C402 1.502 . S
C401 C403 1.561 . S
C401 C404 1.526 . S
C402 H386 0.959 . S
C402 H387 0.959 . S
C402 H388 0.961 . S
C402 C401 1.502 . S
C403 H389 0.960 . S
C403 H390 0.961 . S
C403 H391 0.959 . S
C403 C401 1.561 . S
C404 C401 1.526 . S
C404 C405 1.396 . S
C404 C409 1.390 . S
C405 C399 1.465 . S
C405 C404 1.396 . S
C405 C406 1.399 . S
C406 H392 0.929 . S
C406 C405 1.399 . S
C406 C407 1.385 . S
C407 H393 0.931 . S
C407 C406 1.385 . S
C407 C408 1.389 . S
C408 C407 1.389 . S
C408 C409 1.387 . S
C409 H394 0.930 . S
C409 C404 1.390 . S
C409 C408 1.387 . S
H410 C422 0.930 . S
H411 C424 0.930 . S
H412 C425 0.930 . S
H413 C429 0.959 . S
H414 C429 0.959 . S
H415 C429 0.961 . S
H416 C430 0.960 . S
H417 C430 0.961 . S
H418 C430 0.959 . S
H419 C433 0.929 . S
H420 C434 0.931 . S
H421 C436 0.930 . S
C422 H410 0.930 . S
C422 C423 1.399 . S
C422 C427 1.399 . S
C423 C422 1.399 . S
C423 C424 1.376 . S
C424 H411 0.930 . S
C424 C423 1.376 . S
C424 C425 1.388 . S
C425 H412 0.930 . S
C425 C424 1.388 . S
C425 C426 1.390 . S
C426 C425 1.390 . S
C426 C427 1.394 . S
C426 C432 1.465 . S
C427 C422 1.399 . S
C427 C426 1.394 . S
C427 C428 1.516 . S
C428 C427 1.516 . S
C428 C429 1.502 . S
C428 C430 1.561 . S
C428 C431 1.526 . S
C429 H413 0.959 . S
C429 H414 0.959 . S
C429 H415 0.961 . S
C429 C428 1.502 . S
C430 H416 0.960 . S
C430 H417 0.961 . S
C430 H418 0.959 . S
C430 C428 1.561 . S
C431 C428 1.526 . S
C431 C432 1.396 . S
C431 C436 1.390 . S
C432 C426 1.465 . S
C432 C431 1.396 . S
C432 C433 1.399 . S
C433 H419 0.929 . S
C433 C432 1.399 . S
C433 C434 1.385 . S
C434 H420 0.931 . S
C434 C433 1.385 . S
C434 C435 1.389 . S
C435 C434 1.389 . S
C435 C436 1.387 . S
C436 H421 0.930 . S
C436 C431 1.390 . S
C436 C435 1.387 . S
H437 C449 0.930 . S
H438 C451 0.930 . S
H439 C452 0.930 . S
H440 C456 0.959 . S
H441 C456 0.959 . S
H442 C456 0.961 . S
H443 C457 0.960 . S
H444 C457 0.961 . S
H445 C457 0.959 . S
H446 C460 0.929 . S
H447 C461 0.931 . S
H448 C463 0.930 . S
C449 H437 0.930 . S
C449 C450 1.399 . S
C449 C454 1.399 . S
C450 C449 1.399 . S
C450 C451 1.376 . S
C451 H438 0.930 . S
C451 C450 1.376 . S
C451 C452 1.388 . S
C452 H439 0.930 . S
C452 C451 1.388 . S
C452 C453 1.390 . S
C453 C452 1.390 . S
C453 C454 1.394 . S
C453 C459 1.465 . S
C454 C449 1.399 . S
C454 C453 1.394 . S
C454 C455 1.516 . S
C455 C454 1.516 . S
C455 C456 1.502 . S
C455 C457 1.561 . S
C455 C458 1.526 . S
C456 H440 0.959 . S
C456 H441 0.959 . S
C456 H442 0.961 . S
C456 C455 1.502 . S
C457 H443 0.960 . S
C457 H444 0.961 . S
C457 H445 0.959 . S
C457 C455 1.561 . S
C458 C455 1.526 . S
C458 C459 1.396 . S
C458 C463 1.390 . S
C459 C453 1.465 . S
C459 C458 1.396 . S
C459 C460 1.399 . S
C460 H446 0.929 . S
C460 C459 1.399 . S
C460 C461 1.385 . S
C461 H447 0.931 . S
C461 C460 1.385 . S
C461 C462 1.389 . S
C462 C461 1.389 . S
C462 C463 1.387 . S
C463 H448 0.930 . S
C463 C458 1.390 . S
C463 C462 1.387 . S
H464 C476 0.930 . S
H465 C478 0.930 . S
H466 C479 0.930 . S
H467 C483 0.959 . S
H468 C483 0.959 . S
H469 C483 0.961 . S
H470 C484 0.960 . S
H471 C484 0.961 . S
H472 C484 0.959 . S
H473 C487 0.929 . S
H474 C488 0.931 . S
H475 C490 0.930 . S
C476 H464 0.930 . S
C476 C477 1.399 . S
C476 C481 1.399 . S
C477 C476 1.399 . S
C477 C478 1.376 . S
C478 H465 0.930 . S
C478 C477 1.376 . S
C478 C479 1.388 . S
C479 H466 0.930 . S
C479 C478 1.388 . S
C479 C480 1.390 . S
C480 C479 1.390 . S
C480 C481 1.394 . S
C480 C486 1.465 . S
C481 C476 1.399 . S
C481 C480 1.394 . S
C481 C482 1.516 . S
C482 C481 1.516 . S
C482 C483 1.502 . S
C482 C484 1.561 . S
C482 C485 1.526 . S
C483 H467 0.959 . S
C483 H468 0.959 . S
C483 H469 0.961 . S
C483 C482 1.502 . S
C484 H470 0.960 . S
C484 H471 0.961 . S
C484 H472 0.959 . S
C484 C482 1.561 . S
C485 C482 1.526 . S
C485 C486 1.396 . S
C485 C490 1.390 . S
C486 C480 1.465 . S
C486 C485 1.396 . S
C486 C487 1.399 . S
C487 H473 0.929 . S
C487 C486 1.399 . S
C487 C488 1.385 . S
C488 H474 0.931 . S
C488 C487 1.385 . S
C488 C489 1.389 . S
C489 C488 1.389 . S
C489 C490 1.387 . S
C490 H475 0.930 . S
C490 C485 1.390 . S
C490 C489 1.387 . S
H491 C503 0.930 . S
H492 C505 0.930 . S
H493 C506 0.930 . S
H494 C510 0.959 . S
H495 C510 0.959 . S
H496 C510 0.961 . S
H497 C511 0.960 . S
H498 C511 0.961 . S
H499 C511 0.959 . S
H500 C514 0.929 . S
H501 C515 0.931 1_554 S
H502 C517 0.930 . S
C503 H491 0.930 . S
C503 C504 1.399 . S
C503 C508 1.399 . S
C504 C503 1.399 . S
C504 C505 1.376 . S
C505 H492 0.930 . S
C505 C504 1.376 . S
C505 C506 1.388 . S
C506 H493 0.930 . S
C506 C505 1.388 . S
C506 C507 1.390 . S
C507 C506 1.390 . S
C507 C508 1.394 . S
C507 C513 1.465 . S
C508 C503 1.399 . S
C508 C507 1.394 . S
C508 C509 1.516 . S
C509 C508 1.516 . S
C509 C510 1.502 . S
C509 C511 1.561 . S
C509 C512 1.526 . S
C510 H494 0.959 . S
C510 H495 0.959 . S
C510 H496 0.961 . S
C510 C509 1.502 . S
C511 H497 0.960 . S
C511 H498 0.961 . S
C511 H499 0.959 . S
C511 C509 1.561 . S
C512 C509 1.526 . S
C512 C513 1.396 . S
C512 C517 1.390 . S
C513 C507 1.465 . S
C513 C512 1.396 . S
C513 C514 1.399 . S
C514 H500 0.929 . S
C514 C513 1.399 . S
C514 C515 1.385 . S
C515 H501 0.931 1_556 S
C515 C514 1.385 . S
C515 C516 1.389 . S
C516 C515 1.389 . S
C516 C517 1.387 . S
C517 H502 0.930 . S
C517 C512 1.390 . S
C517 C516 1.387 . S
H518 C530 0.930 . S
H519 C532 0.930 . S
H520 C533 0.930 . S
H521 C537 0.959 . S
H522 C537 0.959 . S
H523 C537 0.961 . S
H524 C538 0.960 . S
H525 C538 0.961 . S
H526 C538 0.959 . S
H527 C541 0.929 . S
H528 C542 0.931 . S
H529 C544 0.930 . S
C530 H518 0.930 . S
C530 C531 1.399 . S
C530 C535 1.399 . S
C531 C530 1.399 . S
C531 C532 1.376 . S
C532 H519 0.930 . S
C532 C531 1.376 . S
C532 C533 1.388 . S
C533 H520 0.930 . S
C533 C532 1.388 . S
C533 C534 1.390 . S
C534 C533 1.390 . S
C534 C535 1.394 . S
C534 C540 1.465 . S
C535 C530 1.399 . S
C535 C534 1.394 . S
C535 C536 1.516 . S
C536 C535 1.516 . S
C536 C537 1.502 . S
C536 C538 1.561 . S
C536 C539 1.526 . S
C537 H521 0.959 . S
C537 H522 0.959 . S
C537 H523 0.961 . S
C537 C536 1.502 . S
C538 H524 0.960 . S
C538 H525 0.961 . S
C538 H526 0.959 . S
C538 C536 1.561 . S
C539 C536 1.526 . S
C539 C540 1.396 . S
C539 C544 1.390 . S
C540 C534 1.465 . S
C540 C539 1.396 . S
C540 C541 1.399 . S
C541 H527 0.929 . S
C541 C540 1.399 . S
C541 C542 1.385 . S
C542 H528 0.931 . S
C542 C541 1.385 . S
C542 C543 1.389 . S
C543 C542 1.389 . S
C543 C544 1.387 . S
C544 H529 0.930 . S
C544 C539 1.390 . S
C544 C543 1.387 . S
H545 C557 0.930 . S
H546 C559 0.930 . S
H547 C560 0.930 . S
H548 C564 0.959 . S
H549 C564 0.959 . S
H550 C564 0.961 . S
H551 C565 0.960 . S
H552 C565 0.961 . S
H553 C565 0.959 . S
H554 C568 0.929 . S
H555 C569 0.931 . S
H556 C571 0.930 . S
C557 H545 0.930 . S
C557 C558 1.399 . S
C557 C562 1.399 . S
C558 C557 1.399 . S
C558 C559 1.376 . S
C559 H546 0.930 . S
C559 C558 1.376 . S
C559 C560 1.388 . S
C560 H547 0.930 . S
C560 C559 1.388 . S
C560 C561 1.390 . S
C561 C560 1.390 . S
C561 C562 1.394 . S
C561 C567 1.465 . S
C562 C557 1.399 . S
C562 C561 1.394 . S
C562 C563 1.516 . S
C563 C562 1.516 . S
C563 C564 1.502 . S
C563 C565 1.561 . S
C563 C566 1.526 . S
C564 H548 0.959 . S
C564 H549 0.959 . S
C564 H550 0.961 . S
C564 C563 1.502 . S
C565 H551 0.960 . S
C565 H552 0.961 . S
C565 H553 0.959 . S
C565 C563 1.561 . S
C566 C563 1.526 . S
C566 C567 1.396 . S
C566 C571 1.390 . S
C567 C561 1.465 . S
C567 C566 1.396 . S
C567 C568 1.399 . S
C568 H554 0.929 . S
C568 C567 1.399 . S
C568 C569 1.385 . S
C569 H555 0.931 . S
C569 C568 1.385 . S
C569 C570 1.389 . S
C570 C569 1.389 . S
C570 C571 1.387 . S
C571 H556 0.930 . S
C571 C566 1.390 . S
C571 C570 1.387 . S
H572 C584 0.930 . S
H573 C586 0.930 . S
H574 C587 0.930 . S
H575 C591 0.959 . S
H576 C591 0.959 . S
H577 C591 0.961 . S
H578 C592 0.960 . S
H579 C592 0.961 . S
H580 C592 0.959 . S
H581 C595 0.929 . S
H582 C596 0.931 . S
H583 C598 0.930 . S
C584 H572 0.930 . S
C584 C585 1.399 . S
C584 C589 1.399 . S
C585 C584 1.399 . S
C585 C586 1.376 . S
C586 H573 0.930 . S
C586 C585 1.376 . S
C586 C587 1.388 . S
C587 H574 0.930 . S
C587 C586 1.388 . S
C587 C588 1.390 . S
C588 C587 1.390 . S
C588 C589 1.394 . S
C588 C594 1.465 . S
C589 C584 1.399 . S
C589 C588 1.394 . S
C589 C590 1.516 . S
C590 C589 1.516 . S
C590 C591 1.502 . S
C590 C592 1.561 . S
C590 C593 1.526 . S
C591 H575 0.959 . S
C591 H576 0.959 . S
C591 H577 0.961 . S
C591 C590 1.502 . S
C592 H578 0.960 . S
C592 H579 0.961 . S
C592 H580 0.959 . S
C592 C590 1.561 . S
C593 C590 1.526 . S
C593 C594 1.396 . S
C593 C598 1.390 . S
C594 C588 1.465 . S
C594 C593 1.396 . S
C594 C595 1.399 . S
C595 H581 0.929 . S
C595 C594 1.399 . S
C595 C596 1.385 . S
C596 H582 0.931 . S
C596 C595 1.385 . S
C596 C597 1.389 . S
C597 C596 1.389 . S
C597 C598 1.387 . S
C598 H583 0.930 . S
C598 C593 1.390 . S
C598 C597 1.387 . S
H599 C611 0.930 . S
H600 C613 0.930 . S
H601 C614 0.930 . S
H602 C618 0.959 . S
H603 C618 0.959 . S
H604 C618 0.961 . S
H605 C619 0.960 . S
H606 C619 0.961 . S
H607 C619 0.959 . S
H608 C622 0.929 . S
H609 C623 0.931 . S
H610 C625 0.930 . S
C611 H599 0.930 . S
C611 C612 1.399 . S
C611 C616 1.399 . S
C612 C611 1.399 . S
C612 C613 1.376 . S
C613 H600 0.930 . S
C613 C612 1.376 . S
C613 C614 1.388 . S
C614 H601 0.930 . S
C614 C613 1.388 . S
C614 C615 1.390 . S
C615 C614 1.390 . S
C615 C616 1.394 . S
C615 C621 1.465 . S
C616 C611 1.399 . S
C616 C615 1.394 . S
C616 C617 1.516 . S
C617 C616 1.516 . S
C617 C618 1.502 . S
C617 C619 1.561 . S
C617 C620 1.526 . S
C618 H602 0.959 . S
C618 H603 0.959 . S
C618 H604 0.961 . S
C618 C617 1.502 . S
C619 H605 0.960 . S
C619 H606 0.961 . S
C619 H607 0.959 . S
C619 C617 1.561 . S
C620 C617 1.526 . S
C620 C621 1.396 . S
C620 C625 1.390 . S
C621 C615 1.465 . S
C621 C620 1.396 . S
C621 C622 1.399 . S
C622 H608 0.929 . S
C622 C621 1.399 . S
C622 C623 1.385 . S
C623 H609 0.931 . S
C623 C622 1.385 . S
C623 C624 1.389 . S
C624 C623 1.389 . S
C624 C625 1.387 . S
C625 H610 0.930 . S
C625 C620 1.390 . S
C625 C624 1.387 . S
H626 C638 0.930 . S
H627 C640 0.930 . S
H628 C641 0.930 . S
H629 C645 0.959 . S
H630 C645 0.959 . S
H631 C645 0.961 . S
H632 C646 0.960 . S
H633 C646 0.961 . S
H634 C646 0.959 . S
H635 C649 0.929 . S
H636 C650 0.931 . S
H637 C652 0.930 . S
C638 H626 0.930 . S
C638 C639 1.399 . S
C638 C643 1.399 . S
C639 C638 1.399 . S
C639 C640 1.376 . S
C640 H627 0.930 . S
C640 C639 1.376 . S
C640 C641 1.388 . S
C641 H628 0.930 . S
C641 C640 1.388 . S
C641 C642 1.390 . S
C642 C641 1.390 . S
C642 C643 1.394 . S
C642 C648 1.465 . S
C643 C638 1.399 . S
C643 C642 1.394 . S
C643 C644 1.516 . S
C644 C643 1.516 . S
C644 C645 1.502 . S
C644 C646 1.561 . S
C644 C647 1.526 . S
C645 H629 0.959 . S
C645 H630 0.959 . S
C645 H631 0.961 . S
C645 C644 1.502 . S
C646 H632 0.960 . S
C646 H633 0.961 . S
C646 H634 0.959 . S
C646 C644 1.561 . S
C647 C644 1.526 . S
C647 C648 1.396 . S
C647 C652 1.390 . S
C648 C642 1.465 . S
C648 C647 1.396 . S
C648 C649 1.399 . S
C649 H635 0.929 . S
C649 C648 1.399 . S
C649 C650 1.385 . S
C650 H636 0.931 . S
C650 C649 1.385 . S
C650 C651 1.389 . S
C651 C650 1.389 . S
C651 C652 1.387 . S
C652 H637 0.930 . S
C652 C647 1.390 . S
C652 C651 1.387 . S
H653 C665 0.930 . S
H654 C667 0.930 . S
H655 C668 0.930 . S
H656 C672 0.959 . S
H657 C672 0.959 . S
H658 C672 0.961 . S
H659 C673 0.960 . S
H660 C673 0.961 . S
H661 C673 0.959 . S
H662 C676 0.929 . S
H663 C677 0.931 . S
H664 C679 0.930 . S
C665 H653 0.930 . S
C665 C666 1.399 . S
C665 C670 1.399 . S
C666 C665 1.399 . S
C666 C667 1.376 . S
C667 H654 0.930 . S
C667 C666 1.376 . S
C667 C668 1.388 . S
C668 H655 0.930 . S
C668 C667 1.388 . S
C668 C669 1.390 . S
C669 C668 1.390 . S
C669 C670 1.394 . S
C669 C675 1.465 . S
C670 C665 1.399 . S
C670 C669 1.394 . S
C670 C671 1.516 . S
C671 C670 1.516 . S
C671 C672 1.502 . S
C671 C673 1.561 . S
C671 C674 1.526 . S
C672 H656 0.959 . S
C672 H657 0.959 . S
C672 H658 0.961 . S
C672 C671 1.502 . S
C673 H659 0.960 . S
C673 H660 0.961 . S
C673 H661 0.959 . S
C673 C671 1.561 . S
C674 C671 1.526 . S
C674 C675 1.396 . S
C674 C679 1.390 . S
C675 C669 1.465 . S
C675 C674 1.396 . S
C675 C676 1.399 . S
C676 H662 0.929 . S
C676 C675 1.399 . S
C676 C677 1.385 . S
C677 H663 0.931 . S
C677 C676 1.385 . S
C677 C678 1.389 . S
C678 C677 1.389 . S
C678 C679 1.387 . S
C679 H664 0.930 . S
C679 C674 1.390 . S
C679 C678 1.387 . S
H680 C692 0.930 . S
H681 C694 0.930 . S
H682 C695 0.930 . S
H683 C699 0.959 . S
H684 C699 0.959 . S
H685 C699 0.961 . S
H686 C700 0.960 . S
H687 C700 0.961 . S
H688 C700 0.959 . S
H689 C703 0.929 . S
H690 C704 0.931 . S
H691 C706 0.930 . S
C692 H680 0.930 . S
C692 C693 1.399 . S
C692 C697 1.399 . S
C693 C692 1.399 . S
C693 C694 1.376 . S
C694 H681 0.930 . S
C694 C693 1.376 . S
C694 C695 1.388 . S
C695 H682 0.930 . S
C695 C694 1.388 . S
C695 C696 1.390 . S
C696 C695 1.390 . S
C696 C697 1.394 . S
C696 C702 1.465 . S
C697 C692 1.399 . S
C697 C696 1.394 . S
C697 C698 1.516 . S
C698 C697 1.516 . S
C698 C699 1.502 . S
C698 C700 1.561 . S
C698 C701 1.526 . S
C699 H683 0.959 . S
C699 H684 0.959 . S
C699 H685 0.961 . S
C699 C698 1.502 . S
C700 H686 0.960 . S
C700 H687 0.961 . S
C700 H688 0.959 . S
C700 C698 1.561 . S
C701 C698 1.526 . S
C701 C702 1.396 . S
C701 C706 1.390 . S
C702 C696 1.465 . S
C702 C701 1.396 . S
C702 C703 1.399 . S
C703 H689 0.929 . S
C703 C702 1.399 . S
C703 C704 1.385 . S
C704 H690 0.931 . S
C704 C703 1.385 . S
C704 C705 1.389 . S
C705 C704 1.389 . S
C705 C706 1.387 . S
C706 H691 0.930 . S
C706 C701 1.390 . S
C706 C705 1.387 . S
H707 C719 0.930 . S
H708 C721 0.930 . S
H709 C722 0.930 . S
H710 C726 0.959 . S
H711 C726 0.959 . S
H712 C726 0.961 . S
H713 C727 0.960 . S
H714 C727 0.961 . S
H715 C727 0.959 . S
H716 C730 0.929 . S
H717 C731 0.931 1_455 S
H718 C733 0.930 . S
C719 H707 0.930 . S
C719 C720 1.399 . S
C719 C724 1.399 . S
C720 C719 1.399 . S
C720 C721 1.376 . S
C721 H708 0.930 . S
C721 C720 1.376 . S
C721 C722 1.388 . S
C722 H709 0.930 . S
C722 C721 1.388 . S
C722 C723 1.390 . S
C723 C722 1.390 . S
C723 C724 1.394 . S
C723 C729 1.465 . S
C724 C719 1.399 . S
C724 C723 1.394 . S
C724 C725 1.516 . S
C725 C724 1.516 . S
C725 C726 1.502 . S
C725 C727 1.561 . S
C725 C728 1.526 . S
C726 H710 0.959 . S
C726 H711 0.959 . S
C726 H712 0.961 . S
C726 C725 1.502 . S
C727 H713 0.960 . S
C727 H714 0.961 . S
C727 H715 0.959 . S
C727 C725 1.561 . S
C728 C725 1.526 . S
C728 C729 1.396 . S
C728 C733 1.390 . S
C729 C723 1.465 . S
C729 C728 1.396 . S
C729 C730 1.399 . S
C730 H716 0.929 . S
C730 C729 1.399 . S
C730 C731 1.385 . S
C731 H717 0.931 1_655 S
C731 C730 1.385 . S
C731 C732 1.389 . S
C732 C731 1.389 . S
C732 C733 1.387 . S
C733 H718 0.930 . S
C733 C728 1.390 . S
C733 C732 1.387 . S
H734 C746 0.930 . S
H735 C748 0.930 . S
H736 C749 0.930 . S
H737 C753 0.959 . S
H738 C753 0.959 . S
H739 C753 0.961 . S
H740 C754 0.960 . S
H741 C754 0.961 . S
H742 C754 0.959 . S
H743 C757 0.929 . S
H744 C758 0.931 . S
H745 C760 0.930 . S
C746 H734 0.930 . S
C746 C747 1.399 . S
C746 C751 1.399 . S
C747 C746 1.399 . S
C747 C748 1.376 . S
C748 H735 0.930 . S
C748 C747 1.376 . S
C748 C749 1.388 . S
C749 H736 0.930 . S
C749 C748 1.388 . S
C749 C750 1.390 . S
C750 C749 1.390 . S
C750 C751 1.394 . S
C750 C756 1.465 . S
C751 C746 1.399 . S
C751 C750 1.394 . S
C751 C752 1.516 . S
C752 C751 1.516 . S
C752 C753 1.502 . S
C752 C754 1.561 . S
C752 C755 1.526 . S
C753 H737 0.959 . S
C753 H738 0.959 . S
C753 H739 0.961 . S
C753 C752 1.502 . S
C754 H740 0.960 . S
C754 H741 0.961 . S
C754 H742 0.959 . S
C754 C752 1.561 . S
C755 C752 1.526 . S
C755 C756 1.396 . S
C755 C760 1.390 . S
C756 C750 1.465 . S
C756 C755 1.396 . S
C756 C757 1.399 . S
C757 H743 0.929 . S
C757 C756 1.399 . S
C757 C758 1.385 . S
C758 H744 0.931 . S
C758 C757 1.385 . S
C758 C759 1.389 . S
C759 C758 1.389 . S
C759 C760 1.387 . S
C760 H745 0.930 . S
C760 C755 1.390 . S
C760 C759 1.387 . S
H761 C773 0.930 . S
H762 C775 0.930 . S
H763 C776 0.930 . S
H764 C780 0.959 . S
H765 C780 0.959 . S
H766 C780 0.961 . S
H767 C781 0.960 . S
H768 C781 0.961 . S
H769 C781 0.959 . S
H770 C784 0.929 . S
H771 C785 0.931 . S
H772 C787 0.930 . S
C773 H761 0.930 . S
C773 C774 1.399 . S
C773 C778 1.399 . S
C774 C773 1.399 . S
C774 C775 1.376 . S
C775 H762 0.930 . S
C775 C774 1.376 . S
C775 C776 1.388 . S
C776 H763 0.930 . S
C776 C775 1.388 . S
C776 C777 1.390 . S
C777 C776 1.390 . S
C777 C778 1.394 . S
C777 C783 1.465 . S
C778 C773 1.399 . S
C778 C777 1.394 . S
C778 C779 1.516 . S
C779 C778 1.516 . S
C779 C780 1.502 . S
C779 C781 1.561 . S
C779 C782 1.526 . S
C780 H764 0.959 . S
C780 H765 0.959 . S
C780 H766 0.961 . S
C780 C779 1.502 . S
C781 H767 0.960 . S
C781 H768 0.961 . S
C781 H769 0.959 . S
C781 C779 1.561 . S
C782 C779 1.526 . S
C782 C783 1.396 . S
C782 C787 1.390 . S
C783 C777 1.465 . S
C783 C782 1.396 . S
C783 C784 1.399 . S
C784 H770 0.929 . S
C784 C783 1.399 . S
C784 C785 1.385 . S
C785 H771 0.931 . S
C785 C784 1.385 . S
C785 C786 1.389 . S
C786 C785 1.389 . S
C786 C787 1.387 . S
C787 H772 0.930 . S
C787 C782 1.390 . S
C787 C786 1.387 . S
H788 C800 0.930 . S
H789 C802 0.930 . S
H790 C803 0.930 . S
H791 C807 0.959 . S
H792 C807 0.959 . S
H793 C807 0.961 . S
H794 C808 0.960 . S
H795 C808 0.961 . S
H796 C808 0.959 . S
H797 C811 0.929 . S
H798 C812 0.931 . S
H799 C814 0.930 . S
C800 H788 0.930 . S
C800 C801 1.399 . S
C800 C805 1.399 . S
C801 C800 1.399 . S
C801 C802 1.376 . S
C802 H789 0.930 . S
C802 C801 1.376 . S
C802 C803 1.388 . S
C803 H790 0.930 . S
C803 C802 1.388 . S
C803 C804 1.390 . S
C804 C803 1.390 . S
C804 C805 1.394 . S
C804 C810 1.465 . S
C805 C800 1.399 . S
C805 C804 1.394 . S
C805 C806 1.516 . S
C806 C805 1.516 . S
C806 C807 1.502 . S
C806 C808 1.561 . S
C806 C809 1.526 . S
C807 H791 0.959 . S
C807 H792 0.959 . S
C807 H793 0.961 . S
C807 C806 1.502 . S
C808 H794 0.960 . S
C808 H795 0.961 . S
C808 H796 0.959 . S
C808 C806 1.561 . S
C809 C806 1.526 . S
C809 C810 1.396 . S
C809 C814 1.390 . S
C810 C804 1.465 . S
C810 C809 1.396 . S
C810 C811 1.399 . S
C811 H797 0.929 . S
C811 C810 1.399 . S
C811 C812 1.385 . S
C812 H798 0.931 . S
C812 C811 1.385 . S
C812 C813 1.389 . S
C813 C812 1.389 . S
C813 C814 1.387 . S
C814 H799 0.930 . S
C814 C809 1.390 . S
C814 C813 1.387 . S
H815 C827 0.930 . S
H816 C829 0.930 . S
H817 C830 0.930 . S
H818 C834 0.959 . S
H819 C834 0.959 . S
H820 C834 0.961 . S
H821 C835 0.960 . S
H822 C835 0.961 . S
H823 C835 0.959 . S
H824 C838 0.929 . S
H825 C839 0.931 . S
H826 C841 0.930 . S
C827 H815 0.930 . S
C827 C828 1.399 . S
C827 C832 1.399 . S
C828 C827 1.399 . S
C828 C829 1.376 . S
C829 H816 0.930 . S
C829 C828 1.376 . S
C829 C830 1.388 . S
C830 H817 0.930 . S
C830 C829 1.388 . S
C830 C831 1.390 . S
C831 C830 1.390 . S
C831 C832 1.394 . S
C831 C837 1.465 . S
C832 C827 1.399 . S
C832 C831 1.394 . S
C832 C833 1.516 . S
C833 C832 1.516 . S
C833 C834 1.502 . S
C833 C835 1.561 . S
C833 C836 1.526 . S
C834 H818 0.959 . S
C834 H819 0.959 . S
C834 H820 0.961 . S
C834 C833 1.502 . S
C835 H821 0.960 . S
C835 H822 0.961 . S
C835 H823 0.959 . S
C835 C833 1.561 . S
C836 C833 1.526 . S
C836 C837 1.396 . S
C836 C841 1.390 . S
C837 C831 1.465 . S
C837 C836 1.396 . S
C837 C838 1.399 . S
C838 H824 0.929 . S
C838 C837 1.399 . S
C838 C839 1.385 . S
C839 H825 0.931 . S
C839 C838 1.385 . S
C839 C840 1.389 . S
C840 C839 1.389 . S
C840 C841 1.387 . S
C841 H826 0.930 . S
C841 C836 1.390 . S
C841 C840 1.387 . S
H842 C854 0.930 . S
H843 C856 0.930 . S
H844 C857 0.930 . S
H845 C861 0.959 . S
H846 C861 0.959 . S
H847 C861 0.961 . S
H848 C862 0.960 . S
H849 C862 0.961 . S
H850 C862 0.959 . S
H851 C865 0.929 . S
H852 C866 0.931 . S
H853 C868 0.930 . S
C854 H842 0.930 . S
C854 C855 1.399 . S
C854 C859 1.399 . S
C855 C854 1.399 . S
C855 C856 1.376 . S
C856 H843 0.930 . S
C856 C855 1.376 . S
C856 C857 1.388 . S
C857 H844 0.930 . S
C857 C856 1.388 . S
C857 C858 1.390 . S
C858 C857 1.390 . S
C858 C859 1.394 . S
C858 C864 1.465 . S
C859 C854 1.399 . S
C859 C858 1.394 . S
C859 C860 1.516 . S
C860 C859 1.516 . S
C860 C861 1.502 . S
C860 C862 1.561 . S
C860 C863 1.526 . S
C861 H845 0.959 . S
C861 H846 0.959 . S
C861 H847 0.961 . S
C861 C860 1.502 . S
C862 H848 0.960 . S
C862 H849 0.961 . S
C862 H850 0.959 . S
C862 C860 1.561 . S
C863 C860 1.526 . S
C863 C864 1.396 . S
C863 C868 1.390 . S
C864 C858 1.465 . S
C864 C863 1.396 . S
C864 C865 1.399 . S
C865 H851 0.929 . S
C865 C864 1.399 . S
C865 C866 1.385 . S
C866 H852 0.931 . S
C866 C865 1.385 . S
C866 C867 1.389 . S
C867 C866 1.389 . S
C867 C868 1.387 . S
C868 H853 0.930 . S
C868 C863 1.390 . S
C868 C867 1.387 . S
H869 C881 0.930 . S
H870 C883 0.930 . S
H871 C884 0.930 . S
H872 C888 0.959 . S
H873 C888 0.959 . S
H874 C888 0.961 . S
H875 C889 0.960 . S
H876 C889 0.961 . S
H877 C889 0.959 . S
H878 C892 0.929 . S
H879 C893 0.931 . S
H880 C895 0.930 . S
C881 H869 0.930 . S
C881 C882 1.399 . S
C881 C886 1.399 . S
C882 C881 1.399 . S
C882 C883 1.376 . S
C883 H870 0.930 . S
C883 C882 1.376 . S
C883 C884 1.388 . S
C884 H871 0.930 . S
C884 C883 1.388 . S
C884 C885 1.390 . S
C885 C884 1.390 . S
C885 C886 1.394 . S
C885 C891 1.465 . S
C886 C881 1.399 . S
C886 C885 1.394 . S
C886 C887 1.516 . S
C887 C886 1.516 . S
C887 C888 1.502 . S
C887 C889 1.561 . S
C887 C890 1.526 . S
C888 H872 0.959 . S
C888 H873 0.959 . S
C888 H874 0.961 . S
C888 C887 1.502 . S
C889 H875 0.960 . S
C889 H876 0.961 . S
C889 H877 0.959 . S
C889 C887 1.561 . S
C890 C887 1.526 . S
C890 C891 1.396 . S
C890 C895 1.390 . S
C891 C885 1.465 . S
C891 C890 1.396 . S
C891 C892 1.399 . S
C892 H878 0.929 . S
C892 C891 1.399 . S
C892 C893 1.385 . S
C893 H879 0.931 . S
C893 C892 1.385 . S
C893 C894 1.389 . S
C894 C893 1.389 . S
C894 C895 1.387 . S
C895 H880 0.930 . S
C895 C890 1.390 . S
C895 C894 1.387 . S
C261 C5 0.793 . S
C273 C103 1.045 . S
C288 C18 1.534 . S
C300 C147 1.504 . S
C327 C177 2.078 . S
C315 C30 2.066 . S
C342 C41 2.442 . S
C354 C218 2.424 . S
C381 C134 0.945 . S
C369 C7 0.878 . S
C408 C98 2.576 . S
C396 C16 2.455 . S
C435 C226 1.164 . S
C423 C29 1.219 . S
C462 C187 1.796 . S
C450 C38 1.524 . S
C477 C8 1.078 . S
C489 C223 1.063 . S
C516 C137 2.180 1_556 S
C504 C27 2.065 . S
C531 C40 2.126 . S
C543 C106 2.121 . S
C558 C19 1.915 . S
C570 C174 1.841 . S
C597 C94 1.115 . S
C585 C51 0.853 . S
C612 C62 1.714 . S
C624 C138 1.715 . S
C639 C74 2.231 . S
C651 C186 2.239 . S
C666 C84 2.375 . S
C678 C227 2.387 . S
C693 C49 1.013 . S
C705 C143 1.148 . S
C732 C107 2.505 . S
C720 C63 2.492 . S
C759 C217 1.108 . S
C747 C71 1.068 . S
C786 C178 1.965 . S
C774 C85 2.040 . S
C801 C52 1.075 . S
C813 C214 0.981 . S
C840 C146 2.229 . S
C828 C73 2.293 . S
C867 C97 1.777 . S
C855 C82 1.662 . S
C882 C60 1.787 . S
C894 C183 1.961 . S
