# Generated by pormake.
# Topology ibd, (4,6)-cn, num edge types: 1
# Building blocks:
#     Node 0, Type 0, BuildingBlock: QUQFOY_clean_sbu_3, # of connection points: 4
#     Node 1, Type 0, BuildingBlock: QUQFOY_clean_sbu_3, # of connection points: 4
#     Node 2, Type 0, BuildingBlock: QUQFOY_clean_sbu_3, # of connection points: 4
#     Node 3, Type 0, BuildingBlock: QUQFOY_clean_sbu_3, # of connection points: 4
#     Node 4, Type 0, BuildingBlock: QUQFOY_clean_sbu_3, # of connection points: 4
#     Node 5, Type 0, BuildingBlock: QUQFOY_clean_sbu_3, # of connection points: 4
#     Node 6, Type 0, BuildingBlock: QUQFOY_clean_sbu_3, # of connection points: 4
#     Node 7, Type 0, BuildingBlock: QUQFOY_clean_sbu_3, # of connection points: 4
#     Node 8, Type 0, BuildingBlock: QUQFOY_clean_sbu_3, # of connection points: 4
#     Node 9, Type 0, BuildingBlock: QUQFOY_clean_sbu_3, # of connection points: 4
#     Node 10, Type 0, BuildingBlock: QUQFOY_clean_sbu_3, # of connection points: 4
#     Node 11, Type 0, BuildingBlock: QUQFOY_clean_sbu_3, # of connection points: 4
#     Node 12, Type 0, BuildingBlock: QUQFOY_clean_sbu_3, # of connection points: 4
#     Node 13, Type 0, BuildingBlock: QUQFOY_clean_sbu_3, # of connection points: 4
#     Node 14, Type 0, BuildingBlock: QUQFOY_clean_sbu_3, # of connection points: 4
#     Node 15, Type 0, BuildingBlock: QUQFOY_clean_sbu_3, # of connection points: 4
#     Node 16, Type 0, BuildingBlock: QUQFOY_clean_sbu_3, # of connection points: 4
#     Node 17, Type 0, BuildingBlock: QUQFOY_clean_sbu_3, # of connection points: 4
#     Node 18, Type 0, BuildingBlock: QUQFOY_clean_sbu_3, # of connection points: 4
#     Node 19, Type 0, BuildingBlock: QUQFOY_clean_sbu_3, # of connection points: 4
#     Node 20, Type 0, BuildingBlock: QUQFOY_clean_sbu_3, # of connection points: 4
#     Node 21, Type 0, BuildingBlock: QUQFOY_clean_sbu_3, # of connection points: 4
#     Node 22, Type 0, BuildingBlock: QUQFOY_clean_sbu_3, # of connection points: 4
#     Node 23, Type 0, BuildingBlock: QUQFOY_clean_sbu_3, # of connection points: 4
#     Node 24, Type 1, BuildingBlock: IZENUY_clean_sbu_0, # of connection points: 6
#     Node 25, Type 1, BuildingBlock: IZENUY_clean_sbu_0, # of connection points: 6
#     Node 26, Type 1, BuildingBlock: IZENUY_clean_sbu_0, # of connection points: 6
#     Node 27, Type 1, BuildingBlock: IZENUY_clean_sbu_0, # of connection points: 6
#     Node 28, Type 1, BuildingBlock: IZENUY_clean_sbu_0, # of connection points: 6
#     Node 29, Type 1, BuildingBlock: IZENUY_clean_sbu_0, # of connection points: 6
#     Node 30, Type 1, BuildingBlock: IZENUY_clean_sbu_0, # of connection points: 6
#     Node 31, Type 1, BuildingBlock: IZENUY_clean_sbu_0, # of connection points: 6
#     Node 32, Type 1, BuildingBlock: IZENUY_clean_sbu_0, # of connection points: 6
#     Node 33, Type 1, BuildingBlock: IZENUY_clean_sbu_0, # of connection points: 6
#     Node 34, Type 1, BuildingBlock: IZENUY_clean_sbu_0, # of connection points: 6
#     Node 35, Type 1, BuildingBlock: IZENUY_clean_sbu_0, # of connection points: 6
#     Node 36, Type 1, BuildingBlock: IZENUY_clean_sbu_0, # of connection points: 6
#     Node 37, Type 1, BuildingBlock: IZENUY_clean_sbu_0, # of connection points: 6
#     Node 38, Type 1, BuildingBlock: IZENUY_clean_sbu_0, # of connection points: 6
#     Node 39, Type 1, BuildingBlock: IZENUY_clean_sbu_0, # of connection points: 6
#     Edge 40, Type (0, 1), BuildingBlock: CIFDUS_clean_linker_0, # of connection points: 2
#     Edge 41, Type (0, 1), BuildingBlock: CIFDUS_clean_linker_0, # of connection points: 2
#     Edge 42, Type (0, 1), BuildingBlock: CIFDUS_clean_linker_0, # of connection points: 2
#     Edge 43, Type (0, 1), BuildingBlock: CIFDUS_clean_linker_0, # of connection points: 2
#     Edge 44, Type (0, 1), BuildingBlock: CIFDUS_clean_linker_0, # of connection points: 2
#     Edge 45, Type (0, 1), BuildingBlock: CIFDUS_clean_linker_0, # of connection points: 2
#     Edge 46, Type (0, 1), BuildingBlock: CIFDUS_clean_linker_0, # of connection points: 2
#     Edge 47, Type (0, 1), BuildingBlock: CIFDUS_clean_linker_0, # of connection points: 2
#     Edge 48, Type (0, 1), BuildingBlock: CIFDUS_clean_linker_0, # of connection points: 2
#     Edge 49, Type (0, 1), BuildingBlock: CIFDUS_clean_linker_0, # of connection points: 2
#     Edge 50, Type (0, 1), BuildingBlock: CIFDUS_clean_linker_0, # of connection points: 2
#     Edge 51, Type (0, 1), BuildingBlock: CIFDUS_clean_linker_0, # of connection points: 2
#     Edge 52, Type (0, 1), BuildingBlock: CIFDUS_clean_linker_0, # of connection points: 2
#     Edge 53, Type (0, 1), BuildingBlock: CIFDUS_clean_linker_0, # of connection points: 2
#     Edge 54, Type (0, 1), BuildingBlock: CIFDUS_clean_linker_0, # of connection points: 2
#     Edge 55, Type (0, 1), BuildingBlock: CIFDUS_clean_linker_0, # of connection points: 2
#     Edge 56, Type (0, 1), BuildingBlock: CIFDUS_clean_linker_0, # of connection points: 2
#     Edge 57, Type (0, 1), BuildingBlock: CIFDUS_clean_linker_0, # of connection points: 2
#     Edge 58, Type (0, 1), BuildingBlock: CIFDUS_clean_linker_0, # of connection points: 2
#     Edge 59, Type (0, 1), BuildingBlock: CIFDUS_clean_linker_0, # of connection points: 2
#     Edge 60, Type (0, 1), BuildingBlock: CIFDUS_clean_linker_0, # of connection points: 2
#     Edge 61, Type (0, 1), BuildingBlock: CIFDUS_clean_linker_0, # of connection points: 2
#     Edge 62, Type (0, 1), BuildingBlock: CIFDUS_clean_linker_0, # of connection points: 2
#     Edge 63, Type (0, 1), BuildingBlock: CIFDUS_clean_linker_0, # of connection points: 2
#     Edge 64, Type (0, 1), BuildingBlock: CIFDUS_clean_linker_0, # of connection points: 2
#     Edge 65, Type (0, 1), BuildingBlock: CIFDUS_clean_linker_0, # of connection points: 2
#     Edge 66, Type (0, 1), BuildingBlock: CIFDUS_clean_linker_0, # of connection points: 2
#     Edge 67, Type (0, 1), BuildingBlock: CIFDUS_clean_linker_0, # of connection points: 2
#     Edge 68, Type (0, 1), BuildingBlock: CIFDUS_clean_linker_0, # of connection points: 2
#     Edge 69, Type (0, 1), BuildingBlock: CIFDUS_clean_linker_0, # of connection points: 2
#     Edge 70, Type (0, 1), BuildingBlock: CIFDUS_clean_linker_0, # of connection points: 2
#     Edge 71, Type (0, 1), BuildingBlock: CIFDUS_clean_linker_0, # of connection points: 2
#     Edge 72, Type (0, 1), BuildingBlock: CIFDUS_clean_linker_0, # of connection points: 2
#     Edge 73, Type (0, 1), BuildingBlock: CIFDUS_clean_linker_0, # of connection points: 2
#     Edge 74, Type (0, 1), BuildingBlock: CIFDUS_clean_linker_0, # of connection points: 2
#     Edge 75, Type (0, 1), BuildingBlock: CIFDUS_clean_linker_0, # of connection points: 2
#     Edge 76, Type (0, 1), BuildingBlock: CIFDUS_clean_linker_0, # of connection points: 2
#     Edge 77, Type (0, 1), BuildingBlock: CIFDUS_clean_linker_0, # of connection points: 2
#     Edge 78, Type (0, 1), BuildingBlock: CIFDUS_clean_linker_0, # of connection points: 2
#     Edge 79, Type (0, 1), BuildingBlock: CIFDUS_clean_linker_0, # of connection points: 2
#     Edge 80, Type (0, 1), BuildingBlock: CIFDUS_clean_linker_0, # of connection points: 2
#     Edge 81, Type (0, 1), BuildingBlock: CIFDUS_clean_linker_0, # of connection points: 2
#     Edge 82, Type (0, 1), BuildingBlock: CIFDUS_clean_linker_0, # of connection points: 2
#     Edge 83, Type (0, 1), BuildingBlock: CIFDUS_clean_linker_0, # of connection points: 2
#     Edge 84, Type (0, 1), BuildingBlock: CIFDUS_clean_linker_0, # of connection points: 2
#     Edge 85, Type (0, 1), BuildingBlock: CIFDUS_clean_linker_0, # of connection points: 2
#     Edge 86, Type (0, 1), BuildingBlock: CIFDUS_clean_linker_0, # of connection points: 2
#     Edge 87, Type (0, 1), BuildingBlock: CIFDUS_clean_linker_0, # of connection points: 2
#     Edge 88, Type (0, 1), BuildingBlock: CIFDUS_clean_linker_0, # of connection points: 2
#     Edge 89, Type (0, 1), BuildingBlock: CIFDUS_clean_linker_0, # of connection points: 2
#     Edge 90, Type (0, 1), BuildingBlock: CIFDUS_clean_linker_0, # of connection points: 2
#     Edge 91, Type (0, 1), BuildingBlock: CIFDUS_clean_linker_0, # of connection points: 2
#     Edge 92, Type (0, 1), BuildingBlock: CIFDUS_clean_linker_0, # of connection points: 2
#     Edge 93, Type (0, 1), BuildingBlock: CIFDUS_clean_linker_0, # of connection points: 2
#     Edge 94, Type (0, 1), BuildingBlock: CIFDUS_clean_linker_0, # of connection points: 2
#     Edge 95, Type (0, 1), BuildingBlock: CIFDUS_clean_linker_0, # of connection points: 2
#     Edge 96, Type (0, 1), BuildingBlock: CIFDUS_clean_linker_0, # of connection points: 2
#     Edge 97, Type (0, 1), BuildingBlock: CIFDUS_clean_linker_0, # of connection points: 2
#     Edge 98, Type (0, 1), BuildingBlock: CIFDUS_clean_linker_0, # of connection points: 2
#     Edge 99, Type (0, 1), BuildingBlock: CIFDUS_clean_linker_0, # of connection points: 2
#     Edge 100, Type (0, 1), BuildingBlock: CIFDUS_clean_linker_0, # of connection points: 2
#     Edge 101, Type (0, 1), BuildingBlock: CIFDUS_clean_linker_0, # of connection points: 2
#     Edge 102, Type (0, 1), BuildingBlock: CIFDUS_clean_linker_0, # of connection points: 2
#     Edge 103, Type (0, 1), BuildingBlock: CIFDUS_clean_linker_0, # of connection points: 2
#     Edge 104, Type (0, 1), BuildingBlock: CIFDUS_clean_linker_0, # of connection points: 2
#     Edge 105, Type (0, 1), BuildingBlock: CIFDUS_clean_linker_0, # of connection points: 2
#     Edge 106, Type (0, 1), BuildingBlock: CIFDUS_clean_linker_0, # of connection points: 2
#     Edge 107, Type (0, 1), BuildingBlock: CIFDUS_clean_linker_0, # of connection points: 2
#     Edge 108, Type (0, 1), BuildingBlock: CIFDUS_clean_linker_0, # of connection points: 2
#     Edge 109, Type (0, 1), BuildingBlock: CIFDUS_clean_linker_0, # of connection points: 2
#     Edge 110, Type (0, 1), BuildingBlock: CIFDUS_clean_linker_0, # of connection points: 2
#     Edge 111, Type (0, 1), BuildingBlock: CIFDUS_clean_linker_0, # of connection points: 2
#     Edge 112, Type (0, 1), BuildingBlock: CIFDUS_clean_linker_0, # of connection points: 2
#     Edge 113, Type (0, 1), BuildingBlock: CIFDUS_clean_linker_0, # of connection points: 2
#     Edge 114, Type (0, 1), BuildingBlock: CIFDUS_clean_linker_0, # of connection points: 2
#     Edge 115, Type (0, 1), BuildingBlock: CIFDUS_clean_linker_0, # of connection points: 2
#     Edge 116, Type (0, 1), BuildingBlock: CIFDUS_clean_linker_0, # of connection points: 2
#     Edge 117, Type (0, 1), BuildingBlock: CIFDUS_clean_linker_0, # of connection points: 2
#     Edge 118, Type (0, 1), BuildingBlock: CIFDUS_clean_linker_0, # of connection points: 2
#     Edge 119, Type (0, 1), BuildingBlock: CIFDUS_clean_linker_0, # of connection points: 2
#     Edge 120, Type (0, 1), BuildingBlock: CIFDUS_clean_linker_0, # of connection points: 2
#     Edge 121, Type (0, 1), BuildingBlock: CIFDUS_clean_linker_0, # of connection points: 2
#     Edge 122, Type (0, 1), BuildingBlock: CIFDUS_clean_linker_0, # of connection points: 2
#     Edge 123, Type (0, 1), BuildingBlock: CIFDUS_clean_linker_0, # of connection points: 2
#     Edge 124, Type (0, 1), BuildingBlock: CIFDUS_clean_linker_0, # of connection points: 2
#     Edge 125, Type (0, 1), BuildingBlock: CIFDUS_clean_linker_0, # of connection points: 2
#     Edge 126, Type (0, 1), BuildingBlock: CIFDUS_clean_linker_0, # of connection points: 2
#     Edge 127, Type (0, 1), BuildingBlock: CIFDUS_clean_linker_0, # of connection points: 2
#     Edge 128, Type (0, 1), BuildingBlock: CIFDUS_clean_linker_0, # of connection points: 2
#     Edge 129, Type (0, 1), BuildingBlock: CIFDUS_clean_linker_0, # of connection points: 2
#     Edge 130, Type (0, 1), BuildingBlock: CIFDUS_clean_linker_0, # of connection points: 2
#     Edge 131, Type (0, 1), BuildingBlock: CIFDUS_clean_linker_0, # of connection points: 2
#     Edge 132, Type (0, 1), BuildingBlock: CIFDUS_clean_linker_0, # of connection points: 2
#     Edge 133, Type (0, 1), BuildingBlock: CIFDUS_clean_linker_0, # of connection points: 2
#     Edge 134, Type (0, 1), BuildingBlock: CIFDUS_clean_linker_0, # of connection points: 2
#     Edge 135, Type (0, 1), BuildingBlock: CIFDUS_clean_linker_0, # of connection points: 2
# Relax obj value: 0.309
# Max RMSD: 0.289
# Mean RMSD: 0.261
data_MOF--net-ibd--node1-QUQFOY_clean_sbu_3--node2-IZENUY_clean_sbu_0--edge1-CIFDUS_clean_linker_0
_symmetry_space_group_name_H-M    P1
_symmetry_Int_Tables_number       1
_symmetry_cell_setting            triclinic
loop_
_symmetry_equiv_pos_as_xyz
'x, y, z'
_cell_length_a     43.50808
_cell_length_b     43.584455
_cell_length_c     43.596765
_cell_angle_alpha  90.066246
_cell_angle_beta   90.013553
_cell_angle_gamma 91.19842
loop_
_atom_site_label
_atom_site_type_symbol
_atom_site_fract_x
_atom_site_fract_y
_atom_site_fract_z
_atom_type_partial_charge
C0 C 0.96308 0.14334 0.40994 0.0
O1 O 0.93544 0.1465 0.40147 0.0
Cd2 Cd 0.92362 0.19289 0.37526 0.0
O3 O 0.98427 0.15956 0.39767 0.0
Cd4 Cd 0.98734 0.19311 0.35265 0.0
C5 C 0.97595 0.2448 0.40618 0.0
O6 O 0.93909 0.19211 0.32285 0.0
O7 O 0.96572 0.23466 0.3247 0.0
O8 O 0.01377 0.15444 0.32403 0.0
C9 C 0.9435 0.21933 0.31316 0.0
O10 O 0.94812 0.23513 0.40479 0.0
C11 C 0.03673 0.17153 0.31717 0.0
O12 O -0.00338 0.23269 0.38978 0.0
O13 O 0.03714 0.19876 0.32768 0.0
C14 C 0.04035 0.79837 0.57843 0.0
O15 O 0.01284 0.80352 0.58631 0.0
Cd16 Cd 0.98058 0.77757 0.62138 0.0
O17 O 0.05531 0.77653 0.59056 0.0
Cd18 Cd 0.04072 0.73631 0.62936 0.0
C19 C 0.98479 0.70904 0.58326 0.0
O20 O 0.01343 0.76938 0.66302 0.0
O21 O 0.00152 0.72182 0.66867 0.0
O22 O 0.08885 0.73241 0.65774 0.0
C23 C -0.0013 0.74918 0.67794 0.0
O24 O 0.96798 0.7302 0.5938 0.0
C25 C 0.08982 0.70333 0.65559 0.0
O26 O 0.01303 0.7076 0.59047 0.0
O27 O 0.06976 0.69033 0.63859 0.0
C28 C 0.43072 0.7319 0.92128 0.0
O29 O 0.40824 0.74903 0.9155 0.0
Cd30 Cd 0.41745 0.79533 0.88906 0.0
O31 O 0.45655 0.73632 0.90794 0.0
Cd32 Cd 0.47546 0.76963 0.86431 0.0
C33 C 0.48666 0.8184 0.92081 0.0
O34 O 0.42776 0.77907 0.83739 0.0
O35 O 0.46372 0.81314 0.83076 0.0
O36 O 0.49627 0.72525 0.83756 0.0
C37 C 0.43803 0.80181 0.82231 0.0
O38 O 0.45749 0.81992 0.92186 0.0
C39 C 0.52146 0.73884 0.83066 0.0
O40 O 0.4996 0.80204 0.90085 0.0
O41 O 0.52514 0.76628 0.83979 0.0
C42 C 0.52206 0.33162 0.08194 0.0
O43 O 0.49488 0.34166 0.08247 0.0
Cd44 Cd 0.45777 0.33528 0.12211 0.0
O45 O 0.5324 0.31579 0.10408 0.0
Cd46 Cd 0.50731 0.29399 0.14994 0.0
C47 C 0.45115 0.26071 0.10658 0.0
O48 O 0.48534 0.34086 0.16942 0.0
O49 O 0.46692 0.2989 0.18873 0.0
O50 O 0.55329 0.28744 0.18239 0.0
C51 C 0.46947 0.32791 0.19011 0.0
O52 O 0.43533 0.28474 0.10963 0.0
C53 C 0.54878 0.25863 0.18518 0.0
O54 O 0.47836 0.25983 0.11691 0.0
O55 O 0.52611 0.24688 0.17079 0.0
C56 C 0.94133 0.69638 0.1571 0.0
O57 O 0.93009 0.72223 0.15061 0.0
Cd58 Cd 0.94728 0.75807 0.11339 0.0
O59 O 0.96443 0.68631 0.14238 0.0
Cd60 Cd -0.0024 0.70801 0.10041 0.0
C61 C 0.01762 0.7676 0.14662 0.0
O62 O 0.9567 0.72813 0.06944 0.0
O63 O 0.00175 0.74654 0.05912 0.0
O64 O 0.00455 0.65909 0.07398 0.0
C65 C 0.97362 0.74397 0.05176 0.0
O66 O 0.993 0.78022 0.13786 0.0
C67 C 0.03354 0.66224 0.07137 0.0
O68 O 0.02387 0.74046 0.13819 0.0
O69 O 0.04593 0.68533 0.08462 0.0
C70 C 0.56527 0.78267 0.34491 0.0
O71 O 0.55483 0.80921 0.34967 0.0
Cd72 Cd 0.50726 0.81495 0.37591 0.0
O73 O 0.55387 0.75945 0.35873 0.0
Cd74 Cd 0.51814 0.75075 0.40189 0.0
C75 C 0.46554 0.75252 0.34753 0.0
O76 O 0.51458 0.80029 0.42787 0.0
O77 O 0.47596 0.76866 0.43285 0.0
O78 O 0.56125 0.72989 0.42857 0.0
C79 C 0.48906 0.79374 0.44058 0.0
O80 O 0.4702 0.7815 0.34818 0.0
C81 C 0.54729 0.70558 0.43728 0.0
O82 O 0.48092 0.73484 0.36456 0.0
O83 O 0.51938 0.70194 0.42919 0.0
C84 C 0.4219 0.191 0.67111 0.0
O85 O 0.41107 0.21731 0.66589 0.0
Cd86 Cd 0.42624 0.25339 0.62775 0.0
O87 O 0.44303 0.18011 0.65427 0.0
Cd88 Cd 0.4737 0.19951 0.61042 0.0
C89 C 0.50002 0.25798 0.65432 0.0
O90 O 0.4341 0.22495 0.58245 0.0
O91 O 0.48005 0.24004 0.57149 0.0
O92 O 0.48011 0.15244 0.58083 0.0
C93 C 0.45151 0.24181 0.56615 0.0
O94 O 0.47547 0.27229 0.64835 0.0
C95 C 0.50934 0.15375 0.58201 0.0
O96 O 0.50366 0.23057 0.64529 0.0
O97 O 0.52141 0.17511 0.59805 0.0
C98 C 0.04055 0.34373 0.81337 0.0
O99 O 0.02557 0.36765 0.81923 0.0
Cd100 Cd 0.97703 0.35892 0.8433 0.0
O101 O 0.03328 0.31848 0.82632 0.0
Cd102 Cd -0.00226 0.30406 0.86883 0.0
C103 C 0.95145 0.29145 0.8113 0.0
O104 O 0.98204 0.34932 0.89766 0.0
O105 O 0.94766 0.31339 0.89105 0.0
O106 O 0.03852 0.28635 0.90258 0.0
C107 C 0.95668 0.33697 0.9058 0.0
O108 O 0.94891 0.32052 0.81099 0.0
C109 C 0.02531 0.26069 0.90819 0.0
O110 O 0.96907 0.27883 0.8304 0.0
O111 O -0.0001 0.25511 0.89485 0.0
C112 C 0.40099 0.91889 0.19746 0.0
O113 O 0.39059 0.90239 0.21926 0.0
Cd114 Cd 0.36013 0.9216 0.26 0.0
O115 O 0.3928 0.94661 0.1945 0.0
Cd116 Cd 0.35735 0.98229 0.21914 0.0
C117 C 0.40681 0.98377 0.27842 0.0
O118 O 0.31795 0.94617 0.23646 0.0
O119 O 0.31788 0.9916 0.25657 0.0
O120 O 0.33714 -0.00481 0.16881 0.0
C121 C 0.30462 0.9657 0.25309 0.0
O122 O 0.3962 0.95721 0.28534 0.0
C123 C 0.33584 0.02375 0.17428 0.0
O124 O 0.39732 -0.00207 0.25481 0.0
O125 O 0.34721 0.03324 0.1995 0.0
C126 C 0.29636 0.085 0.45407 0.0
O127 O 0.30171 0.08454 0.42543 0.0
Cd128 Cd 0.28028 0.1198 0.38936 0.0
O129 O 0.27779 0.10425 0.46527 0.0
Cd130 Cd 0.24469 0.14396 0.44325 0.0
C131 C 0.20655 0.09669 0.39424 0.0
O132 O 0.28405 0.16952 0.41276 0.0
O133 O 0.23782 0.1849 0.40543 0.0
O134 O 0.25011 0.17604 0.48915 0.0
C135 C 0.26648 0.19007 0.4028 0.0
O136 O 0.22906 0.10053 0.37596 0.0
C137 C 0.2214 0.17895 0.49301 0.0
O138 O 0.20756 0.10789 0.42114 0.0
O139 O 0.20378 0.16375 0.47514 0.0
C140 C 0.17421 0.93199 0.76881 0.0
O141 O 0.17417 0.91875 0.79476 0.0
Cd142 Cd 0.14563 0.93595 0.83823 0.0
O143 O 0.15865 0.95604 0.76453 0.0
Cd144 Cd 0.12461 0.98901 0.79457 0.0
C145 C 0.18122 0.00565 0.84564 0.0
O146 O 0.09619 0.94683 0.81767 0.0
O147 O 0.08475 0.9917 0.83463 0.0
O148 O 0.09513 -0.00421 0.74788 0.0
C149 C 0.07846 0.96318 0.83348 0.0
O150 O 0.17527 0.97978 0.85802 0.0
C151 C 0.09426 0.02483 0.74966 0.0
O152 O 0.16749 0.01379 0.82132 0.0
O153 O 0.10871 0.03745 0.7718 0.0
C154 C 0.25134 0.84471 0.02657 0.0
O155 O 0.27499 0.85065 0.01044 0.0
Cd156 Cd 0.27573 0.87745 0.96401 0.0
O157 O 0.22488 0.85422 0.01882 0.0
Cd158 Cd 0.2062 0.88915 0.9773 0.0
C159 C 0.21999 0.83571 0.92508 0.0
O160 O 0.25065 0.92177 0.98206 0.0
O161 O 0.22524 0.92886 0.94071 0.0
O162 O 0.17165 0.90803 0.01597 0.0
C163 C 0.24632 0.93807 0.95875 0.0
O164 O 0.24835 0.84266 0.92857 0.0
C165 C 0.15219 0.91817 -0.00296 0.0
O166 O 0.19955 0.84891 0.94077 0.0
O167 O 0.15651 0.91228 0.96891 0.0
C168 C 0.26203 0.34586 0.10198 0.0
O169 O 0.28739 0.34726 0.11638 0.0
Cd170 Cd 0.33151 0.36953 0.09212 0.0
O171 O 0.25933 0.35799 0.0756 0.0
Cd172 Cd 0.28744 0.38862 0.03728 0.0
C173 C 0.32787 0.32551 0.02667 0.0
O174 O 0.3149 0.41862 0.07445 0.0
O175 O 0.32977 0.425 0.02752 0.0
O176 O 0.2407 0.41727 0.03104 0.0
C177 C 0.33069 0.43395 0.05519 0.0
O178 O 0.33936 0.33024 0.05313 0.0
C179 C 0.24119 0.41673 0.00192 0.0
O180 O 0.30875 0.34374 0.01508 0.0
O181 O 0.26278 0.40216 0.98932 0.0
C182 C 0.71403 0.04917 0.05003 0.0
O183 O 0.73749 0.05077 0.06725 0.0
Cd184 Cd 0.7834 0.07655 0.05147 0.0
O185 O 0.71352 0.06334 0.02453 0.0
Cd186 Cd 0.74847 0.10122 -0.00123 0.0
C187 C 0.79667 0.04629 0.98028 0.0
O188 O 0.76768 0.12865 0.04383 0.0
O189 O 0.79366 0.13601 0.00231 0.0
O190 O 0.70168 0.12853 0.98724 0.0
C191 C 0.78775 0.14434 0.02947 0.0
O192 O 0.80505 0.04727 0.00826 0.0
C193 C 0.70978 0.1356 0.96016 0.0
O194 O 0.77523 0.06308 0.97084 0.0
O195 O 0.73551 0.12606 0.95094 0.0
C196 C 0.15937 0.53441 0.21439 0.0
O197 O 0.15752 0.51349 0.19419 0.0
Cd198 Cd 0.13895 0.46372 0.20764 0.0
O199 O 0.14802 0.53023 0.24101 0.0
Cd200 Cd 0.11466 0.49044 0.26644 0.0
C201 C 0.17814 0.45064 0.27519 0.0
O202 O 0.08642 0.47157 0.22174 0.0
O203 O 0.08468 0.44208 0.26143 0.0
O204 O 0.08605 0.5356 0.27917 0.0
C205 C 0.07412 0.44873 0.23522 0.0
O206 O 0.17517 0.4452 0.24661 0.0
C207 C 0.07734 0.52642 0.3054 0.0
O208 O 0.15904 0.46738 0.28904 0.0
O209 O 0.08669 0.50049 0.31426 0.0
C210 C 0.74669 0.82129 0.56832 0.0
O211 O 0.77436 0.82848 0.57483 0.0
Cd212 Cd 0.80529 0.86848 0.55389 0.0
O213 O 0.73196 0.83604 0.54787 0.0
Cd214 Cd 0.74653 0.87928 0.5122 0.0
C215 C 0.80508 0.83919 0.48178 0.0
O216 O 0.77146 0.91022 0.55113 0.0
O217 O 0.78247 0.92357 0.50504 0.0
O218 O 0.69566 0.90278 0.51008 0.0
C219 C 0.78419 0.92949 0.53346 0.0
O220 O 0.82134 0.84785 0.50459 0.0
C221 C 0.69517 0.90517 0.48101 0.0
O222 O 0.77669 0.84548 0.4803 0.0
O223 O 0.71736 0.89342 0.46658 0.0
C224 C 0.90626 0.05169 0.15879 0.0
O225 O 0.90083 0.026 0.14586 0.0
Cd226 Cd 0.8667 0.98532 0.16247 0.0
O227 O 0.89279 0.05863 0.18372 0.0
Cd228 Cd 0.85547 0.03201 0.21759 0.0
C229 C 0.89913 0.97087 0.23199 0.0
O230 O 0.8206 0.00728 0.18035 0.0
O231 O 0.81789 0.99183 0.22728 0.0
O232 O 0.82522 0.07589 0.23184 0.0
C233 C 0.80723 0.99057 0.2003 0.0
O234 O 0.89139 0.96039 0.20576 0.0
C235 C 0.82954 0.07282 0.26052 0.0
O236 O 0.89167 -0.00232 0.24034 0.0
O237 O 0.84852 0.05271 0.26875 0.0
C238 C 0.17788 0.59364 0.51489 0.0
O239 O 0.18539 0.6006 0.54215 0.0
Cd240 Cd 0.22888 0.63395 0.55005 0.0
O241 O 0.18934 0.60852 0.49244 0.0
Cd242 Cd 0.22076 0.65672 0.48832 0.0
C243 C 0.27927 0.611 0.49427 0.0
O244 O 0.21699 0.68584 0.53686 0.0
O245 O 0.25929 0.6906 0.51123 0.0
O246 O 0.18011 0.68083 0.45957 0.0
C247 C 0.24225 0.70026 0.53257 0.0
O248 O 0.27273 0.61103 0.52277 0.0
C249 C 0.19749 0.69006 0.43792 0.0
O250 O 0.26284 0.62543 0.47533 0.0
O251 O 0.22561 0.68307 0.4394 0.0
C252 C 0.42498 0.47254 0.65798 0.0
O253 O 0.42056 0.44765 0.64329 0.0
Cd254 Cd 0.38205 0.41 0.65747 0.0
O255 O 0.40864 0.47886 0.68127 0.0
Cd256 Cd 0.36728 0.45535 0.71166 0.0
C257 C 0.41255 0.39494 0.7268 0.0
O258 O 0.33599 0.43757 0.66909 0.0
O259 O 0.32268 0.42083 0.7139 0.0
O260 O 0.34618 0.50518 0.72491 0.0
C261 C 0.3164 0.42347 0.68565 0.0
O262 O 0.40635 0.38371 0.7005 0.0
C263 C 0.34689 0.50054 0.75369 0.0
O264 O 0.40222 0.42076 0.73477 0.0
O265 O 0.35784 0.47532 0.76263 0.0
C266 C 0.67326 0.04543 0.69661 0.0
O267 O 0.66629 0.02424 0.67772 0.0
Cd268 Cd 0.6333 0.9818 0.68989 0.0
O269 O 0.66114 0.04612 0.72318 0.0
Cd270 Cd 0.62022 0.01607 0.74978 0.0
C271 C 0.66559 0.95529 0.75627 0.0
O272 O 0.5866 0.00531 0.70596 0.0
O273 O 0.57781 0.97838 0.7465 0.0
O274 O 0.59986 0.06405 0.76906 0.0
C275 C 0.5691 0.98664 0.72011 0.0
O276 O 0.66039 0.95026 0.72793 0.0
C277 C 0.59675 0.05447 0.7964 0.0
O278 O 0.65477 0.9787 0.76942 0.0
O279 O 0.60572 0.02756 0.80206 0.0
C280 C 0.80885 0.5537 -0.00272 0.0
O281 O 0.81336 0.55204 0.96854 0.0
Cd282 Cd 0.78185 0.57569 0.93058 0.0
O283 O 0.78659 0.56894 0.00792 0.0
Cd284 Cd 0.74466 0.59997 0.98796 0.0
C285 C 0.71315 0.54095 0.94937 0.0
O286 O 0.77377 0.6262 0.9484 0.0
O287 O 0.72469 0.63272 0.94686 0.0
O288 O 0.75087 0.63712 0.02914 0.0
C289 C 0.75118 0.63973 0.93662 0.0
O290 O 0.73375 0.54604 0.92917 0.0
C291 C 0.72311 0.63496 0.03801 0.0
O292 O 0.71318 0.55542 0.97467 0.0
O293 O 0.7059 0.61531 0.02453 0.0
C294 C 0.92258 0.43186 0.73737 0.0
O295 O 0.92258 0.41616 0.76189 0.0
Cd296 Cd 0.89887 0.43226 0.80763 0.0
O297 O 0.90927 0.45765 0.73613 0.0
Cd298 Cd 0.87697 0.48899 0.77088 0.0
C299 C 0.93565 0.5017 0.81935 0.0
O300 O 0.84953 0.44342 0.78653 0.0
O301 O 0.83839 0.48383 0.81236 0.0
O302 O 0.85215 0.50368 0.72305 0.0
C303 C 0.83167 0.4564 0.80497 0.0
O304 O 0.93231 0.47377 0.82739 0.0
C305 C 0.84394 0.52974 0.73267 0.0
O306 O 0.9188 0.51288 0.7986 0.0
O307 O 0.85254 0.53743 0.75944 0.0
C308 C 0.79296 0.31628 0.52889 0.0
O309 O 0.80597 0.32021 0.50312 0.0
Cd310 Cd 0.78346 0.3487 0.46317 0.0
O311 O 0.76748 0.32897 0.53485 0.0
Cd312 Cd 0.73322 0.36601 0.50905 0.0
C313 C 0.7121 0.3129 0.45789 0.0
O314 O 0.77438 0.39692 0.48723 0.0
O315 O 0.72984 0.40388 0.46712 0.0
O316 O 0.72927 0.39007 0.55936 0.0
C317 C 0.75743 0.41311 0.47056 0.0
O318 O 0.73849 0.31822 0.44617 0.0
C319 C 0.70155 0.39788 0.55599 0.0
O320 O 0.70411 0.32642 0.48237 0.0
O321 O 0.68802 0.38905 0.53165 0.0
C322 C 0.64656 0.45409 0.2108 0.0
O323 O 0.64339 0.4474 0.23899 0.0
Cd324 Cd 0.61747 0.47484 0.27795 0.0
O325 O 0.6342 0.47799 0.19968 0.0
Cd326 Cd 0.60266 0.51998 0.22203 0.0
C327 C 0.65973 0.54134 0.26921 0.0
O328 O 0.57063 0.48947 0.25623 0.0
O329 O 0.57083 0.53796 0.26543 0.0
O330 O 0.56742 0.52631 0.17922 0.0
C331 C 0.55986 0.5115 0.27139 0.0
O332 O 0.65036 0.51979 0.2868 0.0
C333 C 0.5716 0.55523 0.17744 0.0
O334 O 0.64842 0.5449 0.24261 0.0
O335 O 0.59264 0.56697 0.19417 0.0
Fe336 Fe 0.1264 0.10267 0.11603 0.0
Fe337 Fe 0.10824 0.16805 0.10009 0.0
O338 O 0.13176 0.13614 0.09405 0.0
Fe339 Fe 0.16117 0.1376 0.066 0.0
O340 O 0.14268 0.1066 0.04449 0.0
O341 O 0.138 0.0771 0.08508 0.0
O342 O 0.08762 0.09745 0.10206 0.0
C343 C 0.06691 0.1171 0.10411 0.0
C344 C 0.18879 0.10651 0.11461 0.0
O345 O 0.0735 0.14506 0.10962 0.0
C346 C 0.16798 0.19304 0.09442 0.0
O347 O 0.11337 0.12234 0.15063 0.0
O348 O 0.1196 0.17116 0.13989 0.0
O349 O 0.1867 0.11111 0.08605 0.0
O350 O 0.16509 0.10627 0.13122 0.0
C351 C 0.11331 0.17022 0.03806 0.0
O352 O 0.13916 0.1962 0.09199 0.0
O353 O 0.18051 0.16837 0.0866 0.0
C354 C 0.11702 0.14989 0.15925 0.0
O355 O 0.09538 0.16722 0.06058 0.0
O356 O 0.14159 0.16469 0.04083 0.0
C357 C 0.13578 0.08094 0.05637 0.0
Fe358 Fe 0.05799 0.85779 0.35236 0.0
Fe359 Fe 0.08677 0.91608 0.32362 0.0
O360 O 0.08765 0.88639 0.35142 0.0
Fe361 Fe 0.11851 0.8855 0.3779 0.0
O362 O 0.1193 0.8438 0.38043 0.0
O363 O 0.08476 0.82696 0.34731 0.0
O364 O 0.05283 0.85697 0.31057 0.0
C365 C 0.07019 0.86631 0.28901 0.0
C366 C 0.07043 0.87013 0.41526 0.0
O367 O 0.0886 0.88876 0.29246 0.0
C368 C 0.10498 0.94882 0.37356 0.0
O369 O 0.02834 0.88601 0.35751 0.0
O370 O 0.04512 0.9168 0.32121 0.0
O371 O 0.09306 0.8879 0.41039 0.0
O372 O 0.05855 0.85374 0.39419 0.0
C373 C 0.14961 0.9025 0.32661 0.0
O374 O 0.0849 0.94539 0.35293 0.0
O375 O 0.12304 0.92739 0.38023 0.0
C376 C 0.02437 0.90816 0.33961 0.0
O377 O 0.1284 0.92088 0.3207 0.0
O378 O 0.14641 0.88262 0.34728 0.0
C379 C 0.10831 0.82286 0.36339 0.0
Fe380 Fe 0.35834 0.93851 0.63829 0.0
Fe381 Fe 0.32826 0.90179 0.58567 0.0
O382 O 0.35737 0.9062 0.61374 0.0
Fe383 Fe 0.38556 0.87813 0.61753 0.0
O384 O 0.37339 0.86971 0.65636 0.0
O385 O 0.3747 0.91792 0.67116 0.0
O386 O 0.32123 0.92792 0.65339 0.0
C387 C 0.29726 0.92306 0.63787 0.0
C388 C 0.41922 0.93369 0.62849 0.0
O389 O 0.29826 0.92003 0.60898 0.0
C390 C 0.38239 0.88195 0.55561 0.0
O391 O 0.34179 0.96488 0.61 0.0
O392 O 0.33959 0.93751 0.56772 0.0
O393 O 0.41566 0.90489 0.63092 0.0
O394 O 0.39626 0.95052 0.62482 0.0
C395 C 0.33193 0.84244 0.60384 0.0
O396 O 0.35329 0.88265 0.55769 0.0
O397 O 0.39907 0.88531 0.57906 0.0
C398 C 0.34059 0.96315 0.58101 0.0
O399 O 0.31501 0.86543 0.60162 0.0
O400 O 0.36086 0.84596 0.60478 0.0
C401 C 0.37458 0.88952 0.67747 0.0
Fe402 Fe 0.41986 0.15636 0.907 0.0
Fe403 Fe 0.39695 0.09472 0.88166 0.0
O404 O 0.39395 0.1246 0.90886 0.0
Fe405 Fe 0.36533 0.12265 0.93762 0.0
O406 O 0.34887 0.15842 0.92537 0.0
O407 O 0.39268 0.18398 0.92174 0.0
O408 O 0.40646 0.16597 0.86888 0.0
C409 C 0.4068 0.14769 0.84647 0.0
C410 C 0.41742 0.14804 0.96891 0.0
O411 O 0.41104 0.11943 0.85065 0.0
C412 C 0.37874 0.06261 0.93567 0.0
O413 O 0.452 0.13437 0.89187 0.0
O414 O 0.43551 0.08655 0.89449 0.0
O415 O 0.38887 0.14219 0.96674 0.0
O416 O 0.43433 0.1489 0.94532 0.0
C417 C 0.33458 0.09949 0.88457 0.0
O418 O 0.38297 0.0647 0.90713 0.0
O419 O 0.37938 0.08645 0.95206 0.0
C420 C 0.45736 0.10598 0.8935 0.0
O421 O 0.35813 0.10089 0.86755 0.0
O422 O 0.33681 0.1031 0.91331 0.0
C423 C 0.36373 0.18343 0.92337 0.0
Fe424 Fe 0.58986 0.30528 0.8521 0.0
Fe425 Fe 0.61716 0.36404 0.82381 0.0
O426 O 0.61642 0.33656 0.85341 0.0
Fe427 Fe 0.64208 0.34037 0.88463 0.0
O428 O 0.65911 0.30392 0.87553 0.0
O429 O 0.61505 0.27865 0.87205 0.0
O430 O 0.60561 0.29156 0.81611 0.0
C431 C 0.60588 0.30778 0.79209 0.0
C432 C 0.5868 0.3218 0.91234 0.0
O433 O 0.60605 0.33676 0.79386 0.0
C434 C 0.62633 0.40003 0.87738 0.0
O435 O 0.55996 0.3261 0.8319 0.0
O436 O 0.57745 0.37371 0.83095 0.0
O437 O 0.61583 0.32284 0.91256 0.0
O438 O 0.57227 0.31762 0.88761 0.0
C439 C 0.67832 0.35982 0.83417 0.0
O440 O 0.62812 0.39615 0.84868 0.0
O441 O 0.62673 0.37734 0.89537 0.0
C442 C 0.55544 0.3545 0.82929 0.0
O443 O 0.65702 0.3563 0.81479 0.0
O444 O 0.67278 0.35882 0.86257 0.0
C445 C 0.64403 0.27893 0.87461 0.0
Fe446 Fe 0.83469 0.36304 0.10219 0.0
Fe447 Fe 0.85726 0.38687 0.1643 0.0
O448 O 0.86058 0.36128 0.13317 0.0
Fe449 Fe 0.88995 0.33396 0.13267 0.0
O450 O 0.90642 0.35067 0.09818 0.0
O451 O 0.86255 0.35054 0.07341 0.0
O452 O 0.84733 0.40165 0.09364 0.0
C453 C 0.84687 0.42369 0.11231 0.0
C454 C 0.83855 0.30148 0.10843 0.0
O455 O 0.84347 0.41901 0.14083 0.0
C456 C 0.87205 0.33007 0.19217 0.0
O457 O 0.80213 0.37648 0.12508 0.0
O458 O 0.81855 0.37313 0.17249 0.0
O459 O 0.86743 0.30521 0.11076 0.0
O460 O 0.82103 0.32415 0.10928 0.0
C461 C 0.91952 0.38637 0.15823 0.0
O462 O 0.87068 0.35914 0.19294 0.0
O463 O 0.87504 0.31609 0.16705 0.0
C464 C 0.79676 0.37443 0.15353 0.0
O465 O 0.8957 0.40228 0.158 0.0
O466 O 0.91778 0.35757 0.15464 0.0
C467 C 0.89158 0.35345 0.07353 0.0
Fe468 Fe 0.83553 0.62646 0.41168 0.0
Fe469 Fe 0.89585 0.64958 0.38346 0.0
O470 O 0.86462 0.62312 0.38381 0.0
Fe471 Fe 0.86237 0.59334 0.35629 0.0
O472 O 0.82611 0.60715 0.34164 0.0
O473 O 0.80481 0.61143 0.38702 0.0
O474 O 0.826 0.66434 0.39816 0.0
C475 C 0.84493 0.68661 0.39739 0.0
C476 C 0.84136 0.56467 0.41075 0.0
O477 O 0.87359 0.68201 0.39767 0.0
C478 C 0.92341 0.59282 0.37 0.0
O479 O 0.86093 0.64213 0.44145 0.0
O480 O 0.90721 0.63885 0.42197 0.0
O481 O 0.84264 0.5659 0.38178 0.0
O482 O 0.84336 0.58871 0.42677 0.0
C483 C 0.88456 0.64417 0.32225 0.0
O484 O 0.92367 0.62188 0.36919 0.0
O485 O 0.89836 0.57773 0.3694 0.0
C486 C 0.8897 0.64061 0.44493 0.0
O487 O 0.88626 0.6619 0.34507 0.0
O488 O 0.88165 0.61544 0.32574 0.0
C489 C 0.80249 0.60988 0.35815 0.0
Fe490 Fe 0.88763 0.81244 0.85343 0.0
Fe491 Fe 0.82885 0.83783 0.88059 0.0
O492 O 0.86055 0.84165 0.85553 0.0
Fe493 Fe 0.86533 0.87472 0.83257 0.0
O494 O 0.90172 0.88437 0.85064 0.0
O495 O 0.92042 0.83837 0.84508 0.0
O496 O 0.8973 0.81728 0.89317 0.0
C497 C 0.87844 0.81443 0.91486 0.0
C498 C 0.88437 0.82638 0.79346 0.0
O499 O 0.84972 0.81583 0.90997 0.0
C500 C 0.80386 0.86433 0.82693 0.0
O501 O 0.85998 0.78127 0.86169 0.0
O502 O 0.81514 0.80328 0.86151 0.0
O503 O 0.88441 0.85462 0.8007 0.0
O504 O 0.87921 0.80625 0.81352 0.0
C505 C 0.84501 0.89781 0.88937 0.0
O506 O 0.80259 0.85934 0.85561 0.0
O507 O 0.82934 0.86673 0.81336 0.0
C508 C 0.83101 0.77957 0.859 0.0
O509 O 0.84089 0.87178 0.90125 0.0
O510 O 0.84741 0.90075 0.86051 0.0
C511 C 0.92424 0.86666 0.85099 0.0
Fe512 Fe 0.89274 0.10175 0.67149 0.0
Fe513 Fe 0.86852 0.12433 0.61006 0.0
O514 O 0.89725 0.12457 0.6383 0.0
Fe515 Fe 0.93066 0.14792 0.63285 0.0
O516 O 0.92148 0.16999 0.66639 0.0
O517 O 0.91211 0.13024 0.69659 0.0
O518 O 0.85694 0.11964 0.68208 0.0
C519 C 0.83373 0.12032 0.66486 0.0
C520 C 0.95396 0.09485 0.66085 0.0
O521 O 0.8366 0.11698 0.63626 0.0
C522 C 0.92282 0.12234 0.57655 0.0
O523 O 0.87236 0.06978 0.65154 0.0
O524 O 0.87324 0.08416 0.6032 0.0
O525 O 0.95632 0.12319 0.65486 0.0
O526 O 0.92796 0.08194 0.66346 0.0
C527 C 0.88303 0.18485 0.61086 0.0
O528 O 0.89532 0.1309 0.57854 0.0
O529 O 0.94116 0.12644 0.59868 0.0
C530 C 0.87039 0.06347 0.62313 0.0
O531 O 0.86243 0.16473 0.6157 0.0
O532 O 0.91108 0.1775 0.61022 0.0
C533 C 0.91632 0.15895 0.69267 0.0
Fe534 Fe 0.60991 0.07738 0.33337 0.0
Fe535 Fe 0.63839 0.09866 0.39413 0.0
O536 O 0.61011 0.10213 0.36542 0.0
Fe537 Fe 0.58205 0.13061 0.36849 0.0
O538 O 0.59531 0.14876 0.33347 0.0
O539 O 0.59421 0.10602 0.30671 0.0
O540 O 0.64724 0.09152 0.322 0.0
C541 C 0.67082 0.09266 0.3387 0.0
C542 C 0.54884 0.07941 0.34454 0.0
O543 O 0.66897 0.0873 0.36727 0.0
C544 C 0.58336 0.10859 0.42688 0.0
O545 O 0.62617 0.04432 0.35405 0.0
O546 O 0.62667 0.05952 0.40199 0.0
O547 O 0.55215 0.10816 0.34814 0.0
O548 O 0.57198 0.06248 0.34312 0.0
C549 C 0.63575 0.16084 0.38981 0.0
O550 O 0.61254 0.10968 0.42574 0.0
O551 O 0.5675 0.11364 0.40332 0.0
C552 C 0.6267 0.03824 0.38251 0.0
O553 O 0.652 0.13745 0.38797 0.0
O554 O 0.60671 0.15842 0.38956 0.0
C555 C 0.59556 0.13515 0.30793 0.0
Fe556 Fe 0.60145 0.80727 0.1313 0.0
Fe557 Fe 0.6422 0.84632 0.08801 0.0
O558 O 0.62135 0.84212 0.12263 0.0
Fe559 Fe 0.61977 0.87276 0.14877 0.0
O560 O 0.57846 0.87443 0.1445 0.0
O561 O 0.5708 0.82536 0.15326 0.0
O562 O 0.57738 0.81163 0.0981 0.0
C563 C 0.58652 0.81691 0.07118 0.0
C564 C 0.62627 0.82115 0.18678 0.0
O565 O 0.61468 0.8228 0.06559 0.0
C566 C 0.68003 0.87656 0.13258 0.0
O567 O 0.62801 0.7828 0.11057 0.0
O568 O 0.66588 0.81391 0.09724 0.0
O569 O 0.61698 0.84814 0.1825 0.0
O570 O 0.62447 0.80147 0.16555 0.0
C571 C 0.61924 0.90374 0.09139 0.0
O572 O 0.67273 0.87098 0.1049 0.0
O573 O 0.66084 0.87267 0.15397 0.0
C574 C 0.65582 0.78729 0.10321 0.0
O575 O 0.62041 0.87934 0.076 0.0
O576 O 0.62306 0.90305 0.12009 0.0
C577 C 0.56049 0.8521 0.1502 0.0
Fe578 Fe 0.38282 0.68819 0.1364 0.0
Fe579 Fe 0.32116 0.65778 0.11906 0.0
O580 O 0.35294 0.66117 0.14414 0.0
Fe581 Fe 0.35474 0.63667 0.17636 0.0
O582 O 0.38988 0.62051 0.16264 0.0
O583 O 0.41395 0.66363 0.15024 0.0
O584 O 0.38991 0.67217 0.09859 0.0
C585 C 0.36987 0.66957 0.07788 0.0
C586 C 0.37924 0.69308 0.19885 0.0
O587 O 0.34171 0.67035 0.08464 0.0
C588 C 0.29388 0.64763 0.17748 0.0
O589 O 0.35637 0.71693 0.12139 0.0
O590 O 0.3099 0.6965 0.12757 0.0
O591 O 0.37536 0.66432 0.20075 0.0
O592 O 0.37834 0.70645 0.17332 0.0
C593 C 0.33494 0.59805 0.12909 0.0
O594 O 0.29417 0.64461 0.14859 0.0
O595 O 0.31891 0.65088 0.19191 0.0
C596 C 0.32743 0.71971 0.12412 0.0
O597 O 0.33162 0.61888 0.10934 0.0
O598 O 0.33508 0.60445 0.15737 0.0
C599 C 0.41381 0.63479 0.15414 0.0
Fe600 Fe 0.15988 0.5754 0.83948 0.0
Fe601 Fe 0.19092 0.60313 0.89628 0.0
O602 O 0.16041 0.60248 0.86957 0.0
Fe603 Fe 0.13063 0.629 0.87301 0.0
O604 O 0.13923 0.64483 0.83583 0.0
O605 O 0.14118 0.60081 0.81152 0.0
O606 O 0.19596 0.59028 0.82485 0.0
C607 C 0.22056 0.59068 0.83998 0.0
C608 C 0.09962 0.57391 0.85644 0.0
O609 O 0.21991 0.58898 0.86902 0.0
C610 C 0.13886 0.61515 0.93312 0.0
O611 O 0.17858 0.54525 0.86216 0.0
O612 O 0.18073 0.56485 0.90867 0.0
O613 O 0.10048 0.60296 0.85771 0.0
O614 O 0.12379 0.55908 0.85249 0.0
C615 C 0.18448 0.66391 0.88529 0.0
O616 O 0.16764 0.61732 0.9286 0.0
O617 O 0.12054 0.61474 0.91074 0.0
C618 C 0.17966 0.54189 0.89107 0.0
O619 O 0.20232 0.64151 0.88491 0.0
O620 O 0.15572 0.65968 0.88852 0.0
C621 C 0.14059 0.6299 0.81119 0.0
Fe622 Fe 0.12192 0.3748 0.54724 0.0
Fe623 Fe 0.07048 0.34218 0.58424 0.0
O624 O 0.09709 0.37311 0.5795 0.0
Fe625 Fe 0.09898 0.4024 0.60735 0.0
O626 O 0.13835 0.39372 0.6159 0.0
O627 O 0.15415 0.3932 0.56802 0.0
O628 O 0.13851 0.33818 0.5571 0.0
C629 C 0.12332 0.31344 0.56064 0.0
C630 C 0.10628 0.43501 0.55213 0.0
O631 O 0.0947 0.31369 0.56577 0.0
C632 C 0.0373 0.39393 0.60465 0.0
O633 O 0.09411 0.3564 0.52112 0.0
O634 O 0.05176 0.35102 0.54833 0.0
O635 O 0.11018 0.43258 0.58068 0.0
O636 O 0.1072 0.41173 0.53494 0.0
C637 C 0.09034 0.34917 0.64328 0.0
O638 O 0.04149 0.36525 0.60355 0.0
O639 O 0.05945 0.41253 0.6004 0.0
C640 C 0.06527 0.35191 0.52272 0.0
O641 O 0.08742 0.33106 0.62079 0.0
O642 O 0.08827 0.37775 0.63945 0.0
C643 C 0.15981 0.39367 0.59653 0.0
Fe644 Fe 0.65694 0.61563 0.62064 0.0
Fe645 Fe 0.63019 0.58617 0.67855 0.0
O646 O 0.6288 0.61451 0.64967 0.0
Fe647 Fe 0.59898 0.64131 0.64969 0.0
O648 O 0.58556 0.62847 0.61246 0.0
O649 O 0.63107 0.62962 0.59079 0.0
O650 O 0.64622 0.57726 0.60823 0.0
C651 C 0.64649 0.554 0.62531 0.0
C652 C 0.65112 0.67675 0.63077 0.0
O653 O 0.64783 0.55691 0.65416 0.0
C654 C 0.61039 0.63889 0.71064 0.0
O655 O 0.68784 0.60172 0.64549 0.0
O656 O 0.66732 0.60054 0.6916 0.0
O657 O 0.62228 0.67258 0.63272 0.0
O658 O 0.66894 0.65427 0.63113 0.0
C659 C 0.56911 0.58578 0.66504 0.0
O660 O 0.61246 0.61003 0.70824 0.0
O661 O 0.6106 0.65556 0.68702 0.0
C662 C 0.69068 0.60203 0.67445 0.0
O663 O 0.59329 0.57042 0.66656 0.0
O664 O 0.57018 0.61479 0.66626 0.0
C665 C 0.60204 0.62827 0.58873 0.0
Fe666 Fe 0.41334 0.38245 0.40463 0.0
Fe667 Fe 0.38422 0.44095 0.38079 0.0
O668 O 0.38436 0.40992 0.40668 0.0
Fe669 Fe 0.35514 0.40576 0.43461 0.0
O670 O 0.34234 0.36955 0.41783 0.0
O671 O 0.38855 0.35042 0.41735 0.0
O672 O 0.40206 0.372 0.36633 0.0
C673 C 0.40028 0.39021 0.3441 0.0
C674 C 0.40861 0.38547 0.46577 0.0
O675 O 0.39995 0.41902 0.34831 0.0
C676 C 0.36734 0.46694 0.43824 0.0
O677 O 0.44314 0.40916 0.39058 0.0
O678 O 0.42205 0.45428 0.39276 0.0
O679 O 0.37965 0.38628 0.46257 0.0
O680 O 0.42582 0.39141 0.44324 0.0
C681 C 0.32292 0.42659 0.38297 0.0
O682 O 0.36835 0.4678 0.40908 0.0
O683 O 0.36655 0.44165 0.45231 0.0
C684 C 0.44561 0.43814 0.39041 0.0
O685 O 0.34663 0.42962 0.36667 0.0
O686 O 0.3251 0.42422 0.4118 0.0
C687 C 0.35976 0.34703 0.41425 0.0
H688 H 0.07514 0.2074 0.28326 0.0
H689 H 0.04835 0.11295 0.29973 0.0
H690 H 0.07616 0.09713 0.25395 0.0
H691 H 0.09995 0.11128 0.20516 0.0
H692 H 0.12305 0.20629 0.18648 0.0
H693 H 0.10521 0.22069 0.23745 0.0
C694 C 0.07609 0.18327 0.27726 0.0
C695 C 0.05938 0.16141 0.29445 0.0
C696 C 0.09101 0.17452 0.25025 0.0
C697 C 0.06077 0.13022 0.28653 0.0
C698 C 0.07654 0.12119 0.26032 0.0
C699 C 0.10162 0.13508 0.21239 0.0
C700 C 0.11207 0.15777 0.19178 0.0
C701 C 0.09046 0.14332 0.24128 0.0
C702 C 0.11453 0.18844 0.20171 0.0
C703 C 0.10431 0.19671 0.23084 0.0
H704 H 0.00823 0.83212 0.53853 0.0
H705 H 0.10028 0.80258 0.55824 0.0
H706 H 0.11856 0.82632 0.51044 0.0
H707 H 0.10695 0.85091 0.46077 0.0
H708 H 0.01354 0.87404 0.43941 0.0
H709 H -0.00301 0.85752 0.49058 0.0
C710 C 0.03245 0.8312 0.53276 0.0
C711 C 0.05291 0.81558 0.55194 0.0
C712 C 0.04237 0.84364 0.50491 0.0
C713 C 0.0841 0.81442 0.54383 0.0
C714 C 0.0945 0.82791 0.51651 0.0
C715 C 0.08312 0.85282 0.46775 0.0
C716 C 0.06137 0.86388 0.44691 0.0
C717 C 0.07366 0.84193 0.49656 0.0
C718 C 0.03047 0.86572 0.45545 0.0
C719 C 0.02109 0.85622 0.48453 0.0
H720 H 0.44222 0.85988 0.80057 0.0
H721 H 0.39436 0.77319 0.78741 0.0
H722 H 0.36824 0.79356 0.74239 0.0
H723 H 0.36224 0.83479 0.70457 0.0
H724 H 0.40878 0.92204 0.71895 0.0
H725 H 0.43184 0.90286 0.76599 0.0
C726 C 0.42592 0.84556 0.78792 0.0
C727 C 0.42048 0.81502 0.79689 0.0
C728 C 0.41073 0.85753 0.76239 0.0
C729 C 0.39894 0.79678 0.78075 0.0
C730 C 0.38407 0.80838 0.75502 0.0
C731 C 0.37706 0.84969 0.71831 0.0
C732 C 0.38398 0.87963 0.70828 0.0
C733 C 0.39022 0.83854 0.74533 0.0
C734 C 0.40297 0.89891 0.72632 0.0
C735 C 0.41637 0.8879 0.75308 0.0
H736 H 0.48538 0.22317 0.0721 0.0
H737 H 0.39159 0.24189 0.09685 0.0
H738 H 0.37323 0.20358 0.05967 0.0
H739 H 0.38366 0.17073 0.01558 0.0
H740 H 0.47732 0.15659 0.98688 0.0
H741 H 0.496 0.1873 0.03031 0.0
C742 C 0.4609 0.21853 0.06966 0.0
C743 C 0.43979 0.23527 0.0871 0.0
C744 C 0.45055 0.1978 0.04718 0.0
C745 C 0.40819 0.22937 0.0835 0.0
C746 C 0.39773 0.20766 0.06214 0.0
C747 C 0.40821 0.17382 0.01906 0.0
C748 C 0.42911 0.16155 -0.00214 0.0
C749 C 0.41867 0.19256 0.04316 0.0
C750 C 0.4608 0.16593 0.00276 0.0
C751 C 0.47145 0.18358 0.02749 0.0
H752 H 0.02176 0.82856 0.15903 0.0
H753 H 0.05477 0.74071 0.18861 0.0
H754 H 0.07621 0.76423 0.23495 0.0
H755 H 0.07963 0.80857 0.27006 0.0
H756 H 0.04832 0.89663 0.2399 0.0
H757 H 0.03203 0.87433 0.1907 0.0
C758 C 0.03418 0.81471 0.17534 0.0
C759 C 0.0363 0.78291 0.17064 0.0
C760 C 0.04635 0.82835 0.20197 0.0
C761 C 0.0528 0.76525 0.19172 0.0
C762 C 0.06485 0.77862 0.21836 0.0
C763 C 0.06975 0.82282 0.25236 0.0
C764 C 0.06491 0.85395 0.25823 0.0
C765 C 0.06083 0.80992 0.22418 0.0
C766 C 0.05226 0.87256 0.23548 0.0
C767 C 0.04288 0.85981 0.20752 0.0
H768 H 0.42795 0.79884 0.44864 0.0
H769 H 0.51538 0.83825 0.4764 0.0
H770 H 0.48938 0.87226 0.51235 0.0
H771 H 0.44221 0.88707 0.53896 0.0
H772 H 0.35477 0.84801 0.51037 0.0
H773 H 0.38035 0.8181 0.47092 0.0
C774 C 0.44127 0.81498 0.4625 0.0
C775 C 0.47348 0.81575 0.46047 0.0
C776 C 0.42619 0.83459 0.4827 0.0
C777 C 0.49053 0.83718 0.47789 0.0
C778 C 0.47569 0.85657 0.49838 0.0
C779 C 0.42872 0.8724 0.52373 0.0
C780 C 0.39674 0.86942 0.52781 0.0
C781 C 0.44359 0.85499 0.5014 0.0
C782 C 0.37944 0.8507 0.50769 0.0
C783 C 0.39407 0.83336 0.48532 0.0
H784 H 0.39726 0.21743 0.72106 0.0
H785 H 0.43061 0.1311 0.68726 0.0
H786 H 0.42696 0.10945 0.73893 0.0
H787 H 0.41913 0.11687 0.79403 0.0
H788 H 0.38963 0.20464 0.828 0.0
H789 H 0.38728 0.22413 0.77558 0.0
C790 C 0.40313 0.19365 0.72478 0.0
C791 C 0.41419 0.17585 0.70039 0.0
C792 C 0.40228 0.18189 0.75459 0.0
C793 C 0.42204 0.14522 0.70571 0.0
C794 C 0.42015 0.13294 0.73524 0.0
C795 C 0.41203 0.14023 0.79 0.0
C796 C 0.40487 0.15941 0.81487 0.0
C797 C 0.41118 0.15139 0.75994 0.0
C798 C 0.39565 0.18957 0.80926 0.0
C799 C 0.39414 0.20066 0.77932 0.0
H800 H 0.08465 0.25585 0.92611 0.0
H801 H -0.00629 0.21726 0.9406 0.0
H802 H 0.01316 0.18464 0.98146 0.0
H803 H 0.05546 0.16953 0.0152 0.0
H804 H 0.14689 0.2062 -0.00099 0.0
H805 H 0.12791 0.23687 0.95647 0.0
C806 C 0.06921 0.24011 0.9381 0.0
C807 C 0.03782 0.23912 0.93067 0.0
C808 C 0.0806 0.22115 0.96125 0.0
C809 C 0.01801 0.21838 0.94599 0.0
C810 C 0.02907 0.19982 0.96941 0.0
C811 C 0.07121 0.18406 0.00214 0.0
C812 C 0.10239 0.18588 0.01034 0.0
C813 C 0.06022 0.20138 0.97754 0.0
C814 C 0.12274 0.20441 -0.00694 0.0
C815 C 0.11191 0.22208 0.96885 0.0
H816 H 0.30191 0.07013 0.19487 0.0
H817 H 0.3236 0.0196 0.1129 0.0
H818 H 0.2814 0.04411 0.08564 0.0
H819 H 0.23432 0.07462 0.08752 0.0
H820 H 0.20927 0.11928 0.17196 0.0
H821 H 0.25672 0.10233 0.19605 0.0
C822 C 0.29796 0.06517 0.17078 0.0
C823 C 0.3159 0.04336 0.15576 0.0
C824 C 0.2726 0.07781 0.15599 0.0
C825 C 0.31013 0.03653 0.12478 0.0
C826 C 0.28587 0.05031 0.10933 0.0
C827 C 0.23954 0.08092 0.11106 0.0
C828 C 0.21839 0.09793 0.1281 0.0
C829 C 0.26628 0.07012 0.12507 0.0
C830 C 0.22514 0.10584 0.15861 0.0
C831 C 0.25227 0.09628 0.17231 0.0
H832 H 0.17122 0.06225 0.43231 0.0
H833 H 0.18554 0.0834 0.33666 0.0
H834 H 0.14946 0.04212 0.32208 0.0
H835 H 0.12026 -0.00449 0.3364 0.0
H836 H 0.11225 0.9702 0.43157 0.0
H837 H 0.13891 0.01794 0.44675 0.0
C838 C 0.16585 0.05829 0.40831 0.0
C839 C 0.18102 0.07569 0.38556 0.0
C840 C 0.1463 0.03367 0.40012 0.0
C841 C 0.17422 0.07012 0.35453 0.0
C842 C 0.15366 0.04653 0.34621 0.0
C843 C 0.12351 0.00109 0.36047 0.0
C844 C 0.11405 0.97995 0.38298 0.0
C845 C 0.14043 0.02752 0.36877 0.0
C846 C 0.11912 0.98658 0.41405 0.0
C847 C 0.13452 0.01366 0.42264 0.0
H848 H 0.17638 0.95072 0.7092 0.0
H849 H 0.21886 0.88938 0.77365 0.0
H850 H 0.25893 0.87845 0.73652 0.0
H851 H 0.28557 0.89163 0.68891 0.0
H852 H 0.24411 0.95258 0.62392 0.0
H853 H 0.19955 0.95815 0.658 0.0
C854 C 0.19414 0.93461 0.71495 0.0
C855 C 0.19498 0.92139 0.7444 0.0
C856 C 0.21732 0.92857 0.69354 0.0
C857 C 0.21782 0.90013 0.7513 0.0
C858 C 0.24083 0.89392 0.73013 0.0
C859 C 0.26643 0.90568 0.68205 0.0
C860 C 0.26798 0.92205 0.65442 0.0
C861 C 0.24135 0.90883 0.70169 0.0
C862 C 0.24316 0.93986 0.64524 0.0
C863 C 0.21791 0.94317 0.66478 0.0
H864 H 0.2858 0.96848 -0.0038 0.0
H865 H 0.259 0.95881 0.90122 0.0
H866 H 0.30121 -0.00678 0.88595 0.0
H867 H 0.34445 0.02576 0.89943 0.0
H868 H 0.36853 0.04143 -0.00559 0.0
H869 H 0.32897 0.0035 0.01002 0.0
C870 C 0.28924 0.97403 0.97218 0.0
C871 C 0.26958 0.96111 0.94977 0.0
C872 C 0.31324 -0.00589 0.96366 0.0
C873 C 0.27386 0.96858 0.91879 0.0
C874 C 0.29811 0.98796 0.91007 0.0
C875 C 0.34169 0.02062 0.92363 0.0
C876 C 0.3598 0.03608 0.9458 0.0
C877 C 0.31793 0.00063 0.93231 0.0
C878 C 0.35516 0.0295 0.97697 0.0
C879 C 0.33236 0.00816 0.98583 0.0
H880 H 0.28125 0.9095 0.26735 0.0
H881 H 0.26246 0.00625 0.27228 0.0
H882 H 0.21242 -0.00514 0.29534 0.0
H883 H 0.17399 0.95762 0.31309 0.0
H884 H 0.19318 0.86094 0.31152 0.0
H885 H 0.24351 0.87202 0.28809 0.0
C886 C 0.26613 0.928 0.2735 0.0
C887 C 0.2752 0.9586 0.26802 0.0
C888 C 0.23768 0.92131 0.2872 0.0
C889 C 0.25581 0.98252 0.2764 0.0
C890 C 0.22724 0.97604 0.28946 0.0
C891 C 0.18916 0.93897 0.30745 0.0
C892 C 0.18002 0.90854 0.31342 0.0
C893 C 0.21794 0.94556 0.29475 0.0
C894 C 0.19997 0.88454 0.30687 0.0
C895 C 0.22857 0.89087 0.2935 0.0
H896 H 0.29674 0.08372 0.51656 0.0
H897 H 0.32748 0.03416 0.43676 0.0
H898 H 0.34612 -0.00676 0.46945 0.0
H899 H 0.35001 0.96967 0.5201 0.0
H900 H 0.31964 0.01881 0.60018 0.0
H901 H 0.30494 0.062 0.56793 0.0
C902 C 0.30772 0.06408 0.50633 0.0
C903 C 0.31033 0.06185 0.47422 0.0
C904 C 0.31839 0.04054 0.52527 0.0
C905 C 0.32501 0.03643 0.46138 0.0
C906 C 0.33563 0.01295 0.48004 0.0
C907 C 0.34039 0.98994 0.53055 0.0
C908 C 0.33552 0.99088 0.5624 0.0
C909 C 0.33186 0.0145 0.51192 0.0
C910 C 0.32355 0.01749 0.57568 0.0
C911 C 0.31499 0.04211 0.55725 0.0
H912 H 0.21976 0.04358 0.81404 0.0
H913 H 0.19951 0.0102 0.90514 0.0
H914 H 0.24397 0.0388 0.92536 0.0
H915 H 0.28994 0.07026 0.91667 0.0
H916 H 0.31371 0.09995 0.82511 0.0
H917 H 0.26625 0.07577 0.80538 0.0
C918 C 0.22486 0.04301 0.83839 0.0
C919 C 0.20631 0.0251 0.85818 0.0
C920 C 0.25109 0.05859 0.84964 0.0
C921 C 0.21344 0.02395 0.88955 0.0
C922 C 0.23882 0.04025 0.90108 0.0
C923 C 0.28462 0.07189 0.89242 0.0
C924 C 0.3052 0.08708 0.87235 0.0
C925 C 0.25802 0.05721 0.88125 0.0
C926 C 0.29819 0.08841 0.84096 0.0
C927 C 0.27112 0.07459 0.82973 0.0
H928 H 0.14319 0.97035 0.96639 0.0
H929 H 0.11912 0.92245 0.04972 0.0
H930 H 0.10536 0.9709 0.0739 0.0
H931 H 0.11253 0.02642 0.07503 0.0
H932 H 0.14435 0.07462 -0.00578 0.0
H933 H 0.14269 0.02656 0.96513 0.0
C934 C 0.1336 0.97044 0.98937 0.0
C935 C 0.13223 0.94312 0.00646 0.0
C936 C 0.12829 -0.00146 0.00382 0.0
C937 C 0.12025 0.94335 0.03629 0.0
C938 C 0.11285 0.97105 0.05019 0.0
C939 C 0.11877 0.02652 0.05093 0.0
C940 C 0.12961 0.05375 0.03702 0.0
C941 C 0.11887 -0.0012 0.03484 0.0
C942 C 0.13658 0.05378 0.00558 0.0
C943 C 0.13562 0.02633 0.98897 0.0
H944 H 0.27121 0.29018 0.12542 0.0
H945 H 0.20004 0.35144 0.09725 0.0
H946 H 0.16265 0.30869 0.09644 0.0
H947 H 0.15305 0.25311 0.09459 0.0
H948 H 0.22642 0.19156 0.1163 0.0
H949 H 0.26033 0.23516 0.12851 0.0
C950 C 0.24723 0.2943 0.12028 0.0
C951 C 0.23817 0.3237 0.11152 0.0
C952 C 0.22661 0.2694 0.11768 0.0
C953 C 0.20729 0.32886 0.10422 0.0
C954 C 0.1861 0.30441 0.10337 0.0
C955 C 0.17634 0.24926 0.10236 0.0
C956 C 0.18748 0.2193 0.10394 0.0
C957 C 0.19593 0.27441 0.10849 0.0
C958 C 0.2176 0.21454 0.11423 0.0
C959 C 0.23692 0.2394 0.12142 0.0
H960 H 0.73119 0.17429 0.9167 0.0
H961 H 0.64809 0.14437 0.9627 0.0
H962 H 0.61928 0.1842 0.93647 0.0
H963 H 0.61918 0.2307 0.9051 0.0
H964 H 0.70354 0.26416 0.86386 0.0
H965 H 0.73058 0.21954 0.88342 0.0
C966 C 0.70665 0.17617 0.9205 0.0
C967 C 0.69166 0.15659 0.94149 0.0
C968 C 0.69066 0.19988 0.90645 0.0
C969 C 0.66001 0.15938 0.94665 0.0
C970 C 0.64361 0.18213 0.93174 0.0
C971 C 0.64336 0.22792 0.89995 0.0
C972 C 0.65947 0.25055 0.88317 0.0
C973 C 0.6589 0.203 0.91227 0.0
C974 C 0.69083 0.24699 0.87693 0.0
C975 C 0.70624 0.22156 0.88809 0.0
H976 H 0.0344 0.46933 0.1928 0.0
H977 H 0.05504 0.38997 0.24748 0.0
H978 H 0.01011 0.36257 0.22633 0.0
H979 H 0.96358 0.36226 0.19416 0.0
H980 H 0.94054 0.44348 0.14342 0.0
H981 H 0.98792 0.46917 0.16101 0.0
C982 C 0.02921 0.44592 0.19984 0.0
C983 C 0.048 0.43157 0.2215 0.0
C984 C 0.0029 0.43077 0.18835 0.0
C985 C 0.04082 0.40144 0.23083 0.0
C986 C 0.01518 0.3858 0.21875 0.0
C987 C 0.96921 0.38544 0.1867 0.0
C988 C 0.94889 0.40099 0.1674 0.0
C989 C -0.00412 0.40037 0.19775 0.0
C990 C 0.95597 0.43119 0.15831 0.0
C991 C 0.98298 0.44583 0.16834 0.0
H992 H 0.774 0.80129 0.44277 0.0
H993 H 0.86574 0.82841 0.471 0.0
H994 H 0.88682 0.78553 0.44239 0.0
H995 H 0.87833 0.73624 0.4166 0.0
H996 H 0.78614 0.70683 0.39217 0.0
H997 H 0.76614 0.755 0.41168 0.0
C998 C 0.79867 0.79827 0.44208 0.0
C999 C 0.81824 0.81773 0.45934 0.0
C1000 C 0.81051 0.77292 0.42659 0.0
C1001 C 0.85016 0.81351 0.45819 0.0
C1002 C 0.86222 0.78895 0.44192 0.0
C1003 C 0.85393 0.74059 0.41493 0.0
C1004 C 0.83369 0.71778 0.40344 0.0
C1005 C 0.84249 0.76781 0.42715 0.0
C1006 C 0.80216 0.72386 0.40133 0.0
C1007 C 0.7907 0.75137 0.41253 0.0
H1008 H 0.94479 0.03974 0.11169 0.0
H1009 H 0.9239 0.10906 0.17895 0.0
H1010 H 0.97026 0.13817 0.16447 0.0
H1011 H 0.02009 0.14021 0.13757 0.0
H1012 H 0.04226 0.06838 0.07361 0.0
H1013 H 0.99185 0.04414 0.08168 0.0
C1014 C 0.95002 0.06147 0.12289 0.0
C1015 C 0.9311 0.07196 0.14666 0.0
C1016 C 0.97713 0.07753 0.11517 0.0
C1017 C 0.93822 0.10027 0.16076 0.0
C1018 C 0.96478 0.11691 0.15255 0.0
C1019 C 0.01353 0.11965 0.12492 0.0
C1020 C 0.03479 0.10593 0.1052 0.0
C1021 C 0.98492 0.10522 0.13052 0.0
C1022 C 0.02626 0.07915 0.08911 0.0
C1023 C -0.00249 0.06527 0.09375 0.0
H1024 H 0.30017 0.71217 0.55076 0.0
H1025 H 0.20781 0.74505 0.55863 0.0
H1026 H 0.22715 0.79147 0.58486 0.0
H1027 H 0.27123 0.82493 0.60003 0.0
H1028 H 0.36327 0.79015 0.59299 0.0
H1029 H 0.34304 0.74197 0.57254 0.0
C1030 C 0.28427 0.72936 0.55859 0.0
C1031 C 0.25278 0.72567 0.55244 0.0
C1032 C 0.2955 0.75563 0.57371 0.0
C1033 C 0.23222 0.74764 0.56312 0.0
C1034 C 0.24328 0.77417 0.57795 0.0
C1035 C 0.2868 0.80662 0.59451 0.0
C1036 C 0.31878 0.81148 0.59748 0.0
C1037 C 0.27502 0.77878 0.58259 0.0
C1038 C 0.33859 0.78728 0.59069 0.0
C1039 C 0.32708 0.75969 0.57882 0.0
H1040 H 0.03151 0.50359 0.34111 0.0
H1041 H 0.07201 0.58819 0.30749 0.0
H1042 H 0.02922 0.61692 0.32853 0.0
H1043 H 0.97771 0.61707 0.35053 0.0
H1044 H 0.9344 0.53197 0.3796 0.0
H1045 H 0.98093 0.50428 0.36648 0.0
C1046 C 0.03124 0.52839 0.33911 0.0
C1047 C 0.05473 0.54388 0.3229 0.0
C1048 C 0.00587 0.54454 0.35001 0.0
C1049 C 0.05404 0.57591 0.3199 0.0
C1050 C 0.02956 0.59227 0.33179 0.0
C1051 C 0.97856 0.59253 0.35448 0.0
C1052 C 0.95255 0.57655 0.36576 0.0
C1053 C 0.0049 0.5767 0.34597 0.0
C1054 C 0.95404 0.54474 0.37064 0.0
C1055 C 0.98062 0.52891 0.36315 0.0
H1056 H 0.44048 0.41998 0.77636 0.0
H1057 H 0.43579 0.33709 0.72196 0.0
H1058 H 0.47811 0.31598 0.75166 0.0
H1059 H 0.51907 0.3232 0.78978 0.0
H1060 H 0.52672 0.40824 0.84026 0.0
H1061 H 0.4801 0.42652 0.81534 0.0
C1062 C 0.44829 0.39707 0.77124 0.0
C1063 C 0.43502 0.38011 0.74697 0.0
C1064 C 0.47317 0.38563 0.78759 0.0
C1065 C 0.44565 0.35058 0.74053 0.0
C1066 C 0.46986 0.33856 0.75743 0.0
C1067 C 0.51014 0.3455 0.79574 0.0
C1068 C 0.52595 0.36439 0.81691 0.0
C1069 C 0.48416 0.35618 0.78054 0.0
C1070 C 0.51473 0.39345 0.824 0.0
C1071 C 0.4882 0.40384 0.80978 0.0
H1072 H 0.97721 0.80618 0.68669 0.0
H1073 H 0.96364 0.71194 0.71492 0.0
H1074 H 0.9227 0.72736 0.74983 0.0
H1075 H 0.89427 0.76797 0.77505 0.0
H1076 H 0.90958 0.8625 0.74827 0.0
H1077 H 0.94566 0.84628 0.70887 0.0
C1078 C 0.9653 0.78896 0.70046 0.0
C1079 C 0.97372 0.75802 0.69868 0.0
C1080 C 0.94192 0.79797 0.72031 0.0
C1081 C 0.95774 0.73593 0.7162 0.0
C1082 C 0.9343 0.74472 0.73602 0.0
C1083 C 0.90508 0.78508 0.7603 0.0
C1084 C 0.89966 0.81649 0.76499 0.0
C1085 C 0.92661 0.77573 0.73859 0.0
C1086 C 0.9135 0.83821 0.74532 0.0
C1087 C 0.93436 0.82899 0.723 0.0
H1088 H 0.92688 0.10061 0.43758 0.0
H1089 H 0.01253 0.15111 0.44814 0.0
H1090 H 0.01115 0.14256 0.50338 0.0
H1091 H 0.97821 0.13343 0.54884 0.0
H1092 H 0.89037 0.08725 0.53709 0.0
H1093 H 0.90014 0.08086 0.48259 0.0
C1094 C 0.94579 0.10878 0.45186 0.0
C1095 C 0.96905 0.12744 0.43909 0.0
C1096 C 0.94406 0.10514 0.48367 0.0
C1097 C -0.00606 0.13715 0.45757 0.0
C1098 C 0.99301 0.13259 0.48927 0.0
C1099 C 0.96181 0.12108 0.53443 0.0
C1100 C 0.93334 0.11152 0.54654 0.0
C1101 C 0.96701 0.11865 0.50272 0.0
C1102 C 0.91222 0.09531 0.52792 0.0
C1103 C 0.91774 0.0917 0.49676 0.0
H1104 H 0.5522 0.19682 0.18582 0.0
H1105 H 0.58453 0.27819 0.23327 0.0
H1106 H 0.6047 0.24652 0.27469 0.0
H1107 H 0.60723 0.19618 0.30011 0.0
H1108 H 0.57455 0.11503 0.25231 0.0
H1109 H 0.56066 0.14617 0.20817 0.0
C1110 C 0.56413 0.2076 0.20499 0.0
C1111 C 0.56651 0.23978 0.20674 0.0
C1112 C 0.57527 0.18932 0.22878 0.0
C1113 C 0.58237 0.25345 0.23145 0.0
C1114 C 0.59369 0.23536 0.25523 0.0
C1115 C 0.59737 0.18529 0.27989 0.0
C1116 C 0.5914 0.15341 0.27972 0.0
C1117 C 0.58932 0.20335 0.2546 0.0
C1118 C 0.57919 0.13953 0.25315 0.0
C1119 C 0.57114 0.15734 0.22792 0.0
H1120 H 0.4739 0.81156 0.98052 0.0
H1121 H 0.54289 0.84642 0.91804 0.0
H1122 H 0.58041 0.84966 0.95984 0.0
H1123 H 0.59482 0.83708 0.01272 0.0
H1124 H 0.5263 0.7986 0.07409 0.0
H1125 H 0.48752 0.80163 0.034 0.0
C1126 C 0.49684 0.8209 0.97639 0.0
C1127 C 0.50565 0.82921 0.94656 0.0
C1128 C 0.51863 0.82097 5e-05 0.0
C1129 C 0.53565 0.84036 0.94107 0.0
C1130 C 0.55716 0.84176 0.96482 0.0
C1131 C 0.57146 0.82918 0.01726 0.0
C1132 C 0.56365 0.81716 0.04619 0.0
C1133 C 0.54919 0.83102 -0.00588 0.0
C1134 C 0.53309 0.80758 0.05188 0.0
C1135 C 0.51079 0.80952 0.02906 0.0
H1136 H 0.93958 0.23079 0.8154 0.0
H1137 H 0.93067 0.30813 0.75451 0.0
H1138 H 0.91643 0.27333 0.71248 0.0
H1139 H 0.91275 0.22086 0.69206 0.0
H1140 H 0.92333 0.1437 0.753 0.0
H1141 H 0.93077 0.17873 0.79625 0.0
C1142 C 0.9341 0.24009 0.79302 0.0
C1143 C 0.9366 0.27188 0.78785 0.0
C1144 C 0.92673 0.22001 0.769 0.0
C1145 C 0.92891 0.28371 0.75898 0.0
C1146 C 0.92107 0.26382 0.73493 0.0
C1147 C 0.91659 0.21169 0.71484 0.0
C1148 C 0.91818 0.17977 0.71927 0.0
C1149 C 0.92098 0.23191 0.73949 0.0
C1150 C 0.92236 0.16819 0.74897 0.0
C1151 C 0.92661 0.18818 0.77368 0.0
H1152 H 0.48992 0.11818 0.53462 0.0
H1153 H 0.57186 0.14959 0.58188 0.0
H1154 H 0.60343 0.13333 0.53878 0.0
H1155 H 0.60643 0.11969 0.48408 0.0
H1156 H 0.52367 0.09184 0.43604 0.0
H1157 H 0.49389 0.09697 0.48297 0.0
C1158 C 0.51475 0.12063 0.53589 0.0
C1159 C 0.52847 0.13562 0.56107 0.0
C1160 C 0.53262 0.11248 0.51053 0.0
C1161 C 0.5607 0.13845 0.5625 0.0
C1162 C 0.57878 0.12937 0.53777 0.0
C1163 C 0.58202 0.11411 0.48409 0.0
C1164 C 0.56714 0.10618 0.45652 0.0
C1165 C 0.56481 0.11789 0.51103 0.0
C1166 C 0.53553 0.09872 0.45688 0.0
C1167 C 0.51846 0.10157 0.48371 0.0
H1168 H 0.60955 0.8224 0.32591 0.0
H1169 H 0.56858 0.73362 0.30643 0.0
H1170 H 0.59152 0.7342 0.25529 0.0
H1171 H 0.61178 0.76596 0.2128 0.0
H1172 H 0.65064 0.85571 0.23239 0.0
H1173 H 0.64097 0.84838 0.28696 0.0
C1174 C 0.60654 0.80278 0.31077 0.0
C1175 C 0.58683 0.77846 0.31938 0.0
C1176 C 0.61915 0.80362 0.28127 0.0
C1177 C 0.58348 0.75279 0.30004 0.0
C1178 C 0.59638 0.75322 0.27071 0.0
C1179 C 0.61926 0.78331 0.22918 0.0
C1180 C 0.63101 0.81166 0.21873 0.0
C1181 C 0.61261 0.77939 0.26046 0.0
C1182 C 0.6409 0.83395 0.24007 0.0
C1183 C 0.63522 0.82987 0.27121 0.0
H1184 H 0.91322 0.74962 0.03832 0.0
H1185 H 0.00408 0.77796 0.0085 0.0
H1186 H 0.98197 0.80497 0.96496 0.0
H1187 H 0.93737 0.8175 0.93391 0.0
H1188 H 0.84641 0.78834 0.9627 0.0
H1189 H 0.86809 0.76514 0.00876 0.0
C1190 C 0.92821 0.76182 0.02234 0.0
C1191 C 0.9603 0.76156 0.02638 0.0
C1192 C 0.91533 0.77717 -0.0026 0.0
C1193 C 0.97939 0.77771 0.00576 0.0
C1194 C 0.96673 0.79314 0.98091 0.0
C1195 C 0.9222 0.80625 0.95034 0.0
C1196 C 0.89038 0.80424 0.94472 0.0
C1197 C 0.93482 0.79258 0.9763 0.0
C1198 C 0.87099 0.7901 0.96648 0.0
C1199 C 0.8834 0.77668 -0.00731 0.0
H1200 H 0.70724 0.91521 0.73415 0.0
H1201 H 0.66907 0.94998 0.81837 0.0
H1202 H 0.7062 0.92124 0.8481 0.0
H1203 H 0.75293 0.89082 0.84998 0.0
H1204 H 0.7934 0.85911 0.76569 0.0
H1205 H 0.75176 0.88161 0.73625 0.0
C1206 C 0.70675 0.91609 0.75901 0.0
C1207 C 0.68564 0.9349 0.774 0.0
C1208 C 0.7287 0.90015 0.77598 0.0
C1209 C 0.68534 0.93592 0.80625 0.0
C1210 C 0.70655 0.91948 0.8233 0.0
C1211 C 0.75225 0.88829 0.82523 0.0
C1212 C 0.7762 0.8735 0.80999 0.0
C1213 C 0.72884 0.90218 0.80839 0.0
C1214 C 0.77525 0.87063 0.77788 0.0
C1215 C 0.75152 0.88354 0.76104 0.0
H1216 H 0.79448 0.94328 0.59323 0.0
H1217 H 0.81936 0.97064 0.50117 0.0
H1218 H 0.85198 0.01208 0.52164 0.0
H1219 H 0.8704 0.04221 0.5651 0.0
H1220 H 0.84343 0.01724 0.6572 0.0
H1221 H 0.81539 0.97219 0.63724 0.0
C1222 C 0.80712 0.95825 0.57764 0.0
C1223 C 0.80432 0.95414 0.54572 0.0
C1224 C 0.8256 0.98212 0.58955 0.0
C1225 C 0.82096 0.97353 0.5258 0.0
C1226 C 0.83968 -0.00288 0.53748 0.0
C1227 C 0.85861 0.02682 0.58092 0.0
C1228 C 0.8586 0.0333 0.61255 0.0
C1229 C 0.84176 0.00183 0.56925 0.0
C1230 C 0.84374 0.01279 0.63275 0.0
C1231 C 0.82748 0.98723 0.62132 0.0
H1232 H 0.7812 0.1087 0.24833 0.0
H1233 H 0.82893 0.06544 0.3229 0.0
H1234 H 0.78415 0.07143 0.35599 0.0
H1235 H 0.72828 0.07975 0.36018 0.0
H1236 H 0.68046 0.11961 0.28361 0.0
H1237 H 0.72823 0.12396 0.25497 0.0
C1238 C 0.78218 0.10138 0.27209 0.0
C1239 C 0.80803 0.08601 0.2829 0.0
C1240 C 0.75592 0.10346 0.29043 0.0
C1241 C 0.80911 0.07705 0.31388 0.0
C1242 C 0.78337 0.08014 0.33273 0.0
C1243 C 0.72848 0.08977 0.33742 0.0
C1244 C 0.70076 0.09844 0.32369 0.0
C1245 C 0.75607 0.09173 0.32069 0.0
C1246 C 0.70137 0.11188 0.29436 0.0
C1247 C 0.72872 0.1146 0.27799 0.0
H1248 H 0.68185 0.00797 0.01543 0.0
H1249 H 0.68837 0.04671 0.10628 0.0
H1250 H 0.65141 0.00841 0.12539 0.0
H1251 H 0.62535 0.9593 0.11834 0.0
H1252 H 0.62499 0.91543 0.0295 0.0
H1253 H 0.65009 0.96088 0.00714 0.0
C1254 C 0.67446 0.00835 0.03919 0.0
C1255 C 0.68777 0.02978 0.05959 0.0
C1256 C 0.6544 0.98526 0.05033 0.0
C1257 C 0.67847 0.03013 0.09037 0.0
C1258 C 0.65739 0.00829 0.10125 0.0
C1259 C 0.63007 0.95983 0.09391 0.0
C1260 C 0.62409 0.93363 0.07583 0.0
C1261 C 0.64635 0.98498 0.08175 0.0
C1262 C 0.62974 0.9351 0.04409 0.0
C1263 C 0.64442 0.96098 0.03134 0.0
H1264 H 0.71695 0.071 0.73348 0.0
H1265 H 0.68329 0.06984 0.64041 0.0
H1266 H 0.72819 0.09983 0.62365 0.0
H1267 H 0.7801 0.11841 0.63384 0.0
H1268 H 0.81723 0.11418 0.72556 0.0
H1269 H 0.76753 0.09526 0.74473 0.0
C1270 C 0.7192 0.07802 0.70971 0.0
C1271 C 0.6972 0.06808 0.68807 0.0
C1272 C 0.74577 0.09406 0.70001 0.0
C1273 C 0.70025 0.07701 0.6573 0.0
C1274 C 0.72586 0.09412 0.64774 0.0
C1275 C 0.77728 0.1139 0.65816 0.0
C1276 C 0.80256 0.11696 0.67809 0.0
C1277 C 0.74932 0.10156 0.66865 0.0
C1278 C 0.79825 0.11164 0.70962 0.0
C1279 C 0.76989 0.10059 0.72056 0.0
H1280 H 0.69049 0.91613 0.41961 0.0
H1281 H 0.64997 0.93918 0.50682 0.0
H1282 H 0.62154 0.98028 0.4826 0.0
H1283 H 0.61446 0.01437 0.43856 0.0
H1284 H 0.65558 0.99234 0.35147 0.0
H1285 H 0.67706 0.94586 0.3736 0.0
C1286 C 0.67492 0.92969 0.43321 0.0
C1287 C 0.67279 0.92487 0.46512 0.0
C1288 C 0.659 0.95371 0.41921 0.0
C1289 C 0.65227 0.94249 0.4823 0.0
C1290 C 0.6361 0.96615 0.46848 0.0
C1291 C 0.62765 -0.00092 0.42426 0.0
C1292 C 0.63385 0.00705 0.39356 0.0
C1293 C 0.64027 0.97272 0.43725 0.0
C1294 C 0.65054 0.98679 0.37518 0.0
C1295 C 0.66302 0.96032 0.3879 0.0
H1296 H 0.78989 0.97203 0.14307 0.0
H1297 H 0.77219 0.9565 0.23934 0.0
H1298 H 0.73371 0.91717 0.22665 0.0
H1299 H 0.7036 0.88898 0.18861 0.0
H1300 H 0.71969 0.90479 0.09212 0.0
H1301 H 0.76098 0.94162 0.10456 0.0
C1302 C 0.77753 0.96006 0.16121 0.0
C1303 C 0.78366 0.9673 0.19206 0.0
C1304 C 0.75547 0.9373 0.15377 0.0
C1305 C 0.76778 0.9514 0.2154 0.0
C1306 C 0.74585 0.92885 0.20819 0.0
C1307 C 0.71634 0.90019 0.17023 0.0
C1308 C 0.70843 0.89431 0.13952 0.0
C1309 C 0.73939 0.92179 0.1775 0.0
C1310 C 0.72538 0.90882 0.116 0.0
C1311 C 0.74879 0.93012 0.12308 0.0
H1312 H 0.82685 -0.00567 -0.00553 0.0
H1313 H 0.79579 0.04813 0.91788 0.0
H1314 H 0.81119 0.00802 0.88231 0.0
H1315 H 0.82855 0.9555 0.87344 0.0
H1316 H 0.85652 0.90059 0.95046 0.0
H1317 H 0.84753 0.9433 0.98528 0.0
C1318 C 0.82397 -0.00251 0.96996 0.0
C1319 C 0.81002 0.024 0.95885 0.0
C1320 C 0.83205 0.97398 0.9497 0.0
C1321 C 0.80625 0.02774 0.92703 0.0
C1322 C 0.81501 0.00482 0.90666 0.0
C1323 C 0.83311 0.9531 0.89777 0.0
C1324 C 0.84284 0.92492 0.90942 0.0
C1325 C 0.82716 0.9775 0.9178 0.0
C1326 C 0.8486 0.92201 0.94102 0.0
C1327 C 0.84351 0.94641 0.96095 0.0
H1328 H 0.79932 0.6462 0.89848 0.0
H1329 H 0.71466 0.68859 0.92493 0.0
H1330 H 0.72977 0.73521 0.89697 0.0
H1331 H 0.7713 0.7665 0.87382 0.0
H1332 H 0.8568 0.72405 0.84959 0.0
H1333 H 0.83675 0.67455 0.86719 0.0
C1334 C 0.78392 0.66545 0.89756 0.0
C1335 C 0.75635 0.66445 0.91423 0.0
C1336 C 0.79302 0.69218 0.88207 0.0
C1337 C 0.73618 0.68909 0.91241 0.0
C1338 C 0.74489 0.71576 0.8966 0.0
C1339 C 0.78525 0.74628 0.87161 0.0
C1340 C 0.81582 0.74908 0.86128 0.0
C1341 C 0.77391 0.71802 0.88262 0.0
C1342 C 0.83342 0.72259 0.85811 0.0
C1343 C 0.82204 0.69429 0.86827 0.0
H1344 H 0.29967 0.84519 0.06438 0.0
H1345 H 0.21226 0.79971 0.0482 0.0
H1346 H 0.22651 0.75819 0.08302 0.0
H1347 H 0.26785 0.73067 0.10911 0.0
H1348 H 0.35645 0.77552 0.12187 0.0
H1349 H 0.33753 0.82181 0.0977 0.0
C1350 C 0.28347 0.82652 0.06912 0.0
C1351 C 0.25532 0.82495 0.05344 0.0
C1352 C 0.29224 0.8025 0.08814 0.0
C1353 C 0.23414 0.80117 0.06002 0.0
C1354 C 0.24243 0.77735 0.07965 0.0
C1355 C 0.2828 0.75081 0.10727 0.0
C1356 C 0.31378 0.74941 0.11644 0.0
C1357 C 0.27205 0.77706 0.09251 0.0
C1358 C 0.33273 0.77582 0.11433 0.0
C1359 C 0.32195 0.80228 0.10051 0.0
H1360 H 0.98762 0.4813 0.84591 0.0
H1361 H 0.94204 0.56409 0.81911 0.0
H1362 H 0.98826 0.59446 0.83135 0.0
H1363 H 0.04319 0.59667 0.84429 0.0
H1364 H 0.08946 0.5132 0.86762 0.0
H1365 H 0.04137 0.48396 0.86223 0.0
C1366 C 0.98759 0.50605 0.84332 0.0
C1367 C 0.96156 0.52041 0.83148 0.0
C1368 C 0.01451 0.52321 0.84938 0.0
C1369 C 0.96193 0.55248 0.82802 0.0
C1370 C 0.98835 0.56985 0.83492 0.0
C1371 C 0.04264 0.57215 0.84857 0.0
C1372 C 0.06987 0.55707 0.85595 0.0
C1373 C 0.01505 0.55534 0.84474 0.0
C1374 C 0.06885 0.52528 0.86145 0.0
C1375 C 0.04136 0.50853 0.85846 0.0
H1376 H 0.1624 0.18455 0.51154 0.0
H1377 H 0.25261 0.22664 0.52027 0.0
H1378 H 0.23035 0.27158 0.54454 0.0
H1379 H 0.18455 0.30145 0.55723 0.0
H1380 H 0.0945 0.25873 0.54844 0.0
H1381 H 0.11745 0.21157 0.53046 0.0
C1382 C 0.17725 0.2033 0.51932 0.0
C1383 C 0.20901 0.20245 0.51378 0.0
C1384 C 0.16429 0.22919 0.53287 0.0
C1385 C 0.22804 0.22674 0.52425 0.0
C1386 C 0.21531 0.25258 0.5379 0.0
C1387 C 0.17 0.2817 0.5517 0.0
C1388 C 0.13785 0.28385 0.55367 0.0
C1389 C 0.18334 0.25449 0.54133 0.0
C1390 C 0.11932 0.25786 0.54693 0.0
C1391 C 0.1324 0.23083 0.53657 0.0
H1392 H 0.06388 0.9032 0.83993 0.0
H1393 H 0.02767 -0.00633 0.85317 0.0
H1394 H 0.97657 0.97124 0.86292 0.0
H1395 H 0.94135 0.92635 0.8612 0.0
H1396 H 0.97809 0.83618 0.84631 0.0
H1397 H 0.02991 0.85817 0.84381 0.0
C1398 C 0.0449 0.91801 0.8454 0.0
C1399 C 0.04936 0.95002 0.84536 0.0
C1400 C 0.01563 0.90505 0.85028 0.0
C1401 C 0.02473 0.96893 0.85294 0.0
C1402 C -0.00451 0.95613 0.8583 0.0
C1403 C 0.96071 0.91147 0.8577 0.0
C1404 C 0.95575 0.87974 0.8533 0.0
C1405 C 0.99051 0.92429 0.85596 0.0
C1406 C 0.98116 0.86073 0.84933 0.0
C1407 C 0.01084 0.87326 0.8479 0.0
H1408 H 0.7265 0.27176 0.41386 0.0
H1409 H 0.65176 0.30011 0.47173 0.0
H1410 H 0.61996 0.25707 0.45317 0.0
H1411 H 0.61515 0.20866 0.42388 0.0
H1412 H 0.69161 0.17915 0.36903 0.0
H1413 H 0.72084 0.2255 0.38278 0.0
C1414 C 0.70312 0.26882 0.42216 0.0
C1415 C 0.69163 0.28901 0.44429 0.0
C1416 C 0.6853 0.24366 0.41202 0.0
C1417 C 0.66127 0.28476 0.45482 0.0
C1418 C 0.64307 0.26013 0.44425 0.0
C1419 C 0.63801 0.21272 0.41462 0.0
C1420 C 0.65134 0.19057 0.39566 0.0
C1421 C 0.65509 0.23904 0.42335 0.0
C1422 C 0.68105 0.19584 0.38393 0.0
C1423 C 0.69777 0.2223 0.39176 0.0
H1424 H 0.9463 0.46407 0.68919 0.0
H1425 H 0.93367 0.37222 0.72471 0.0
H1426 H 0.9635 0.35177 0.6824 0.0
H1427 H -0.00198 0.36052 0.63955 0.0
H1428 H 0.01578 0.45257 0.60663 0.0
H1429 H 0.97825 0.47235 0.64309 0.0
C1430 C 0.94976 0.43956 0.68734 0.0
C1431 C 0.9382 0.41971 0.71015 0.0
C1432 C 0.96774 0.42801 0.66342 0.0
C1433 C 0.9428 0.388 0.70764 0.0
C1434 C 0.95972 0.37626 0.6834 0.0
C1435 C -0.0068 0.38484 0.63974 0.0
C1436 C 0.00983 0.40509 0.62061 0.0
C1437 C 0.973 0.39614 0.66171 0.0
C1438 C 0.00334 0.43655 0.62129 0.0
C1439 C 0.98209 0.44788 0.64226 0.0
H1440 H 0.5172 0.53717 0.15273 0.0
H1441 H 0.57391 0.61766 0.17025 0.0
H1442 H 0.53003 0.65049 0.16085 0.0
H1443 H 0.47368 0.65553 0.15635 0.0
H1444 H 0.41724 0.57398 0.14266 0.0
H1445 H 0.46272 0.54253 0.14197 0.0
C1446 C 0.52023 0.56193 0.15365 0.0
C1447 C 0.54864 0.5749 0.16262 0.0
C1448 C 0.49466 0.58052 0.14968 0.0
C1449 C 0.55218 0.60705 0.16359 0.0
C1450 C 0.52701 0.62585 0.15852 0.0
C1451 C 0.47146 0.63095 0.15279 0.0
C1452 C 0.44212 0.61705 0.15033 0.0
C1453 C 0.4978 0.61274 0.15303 0.0
C1454 C 0.43955 0.58518 0.14541 0.0
C1455 C 0.46555 0.56714 0.14483 0.0
H1456 H 0.5304 0.67797 0.82263 0.0
H1457 H 0.56433 0.76743 0.79494 0.0
H1458 H 0.59824 0.74399 0.7574 0.0
H1459 H 0.61363 0.69844 0.72855 0.0
H1460 H 0.58073 0.60884 0.75715 0.0
H1461 H 0.55168 0.6319 0.79872 0.0
C1462 C 0.5455 0.69224 0.80859 0.0
C1463 C 0.54454 0.72431 0.81107 0.0
C1464 C 0.56513 0.67862 0.78727 0.0
C1465 C 0.56457 0.74264 0.79325 0.0
C1466 C 0.58391 0.72928 0.77175 0.0
C1467 C 0.60057 0.68395 0.74427 0.0
C1468 C 0.59893 0.6521 0.7395 0.0
C1469 C 0.58373 0.69735 0.76799 0.0
C1470 C 0.58232 0.63348 0.76028 0.0
C1471 C 0.56546 0.64665 0.78392 0.0
H1472 H 0.49899 0.33889 0.0252 0.0
H1473 H 0.58421 0.32765 0.07425 0.0
H1474 H 0.61191 0.32402 0.02555 0.0
H1475 H 0.61117 0.32128 0.96949 0.0
H1476 H 0.52526 0.32952 0.92076 0.0
H1477 H 0.4983 0.33664 0.96929 0.0
C1478 C 0.52372 0.33621 0.02528 0.0
C1479 C 0.53965 0.3338 0.0532 0.0
C1480 C 0.53917 0.33301 -0.00261 0.0
C1481 C 0.57156 0.3297 0.05297 0.0
C1482 C 0.58731 0.32745 0.0252 0.0
C1483 C 0.58653 0.3246 0.96944 0.0
C1484 C 0.57018 0.3247 0.94159 0.0
C1485 C 0.57122 0.32851 -0.00267 0.0
C1486 C 0.53829 0.32903 0.94192 0.0
C1487 C 0.52292 0.33331 0.96961 0.0
H1488 H 0.92817 0.27853 0.31268 0.0
H1489 H 0.91208 0.19275 0.26544 0.0
H1490 H 0.8841 0.21951 0.22493 0.0
H1491 H 0.87056 0.26819 0.2002 0.0
H1492 H 0.88707 0.35372 0.24826 0.0
H1493 H 0.90792 0.32598 0.29174 0.0
C1494 C 0.91818 0.26568 0.29367 0.0
C1495 C 0.92258 0.23396 0.29148 0.0
C1496 C 0.9023 0.28114 0.27073 0.0
C1497 C 0.90904 0.21729 0.2673 0.0
C1498 C 0.8932 0.23258 0.24418 0.0
C1499 C 0.87822 0.28071 0.22042 0.0
C1500 C 0.8779 0.31301 0.22072 0.0
C1501 C 0.8906 0.26465 0.24521 0.0
C1502 C 0.8873 0.32889 0.24729 0.0
C1503 C 0.89943 0.31307 0.27211 0.0
H1504 H 0.92496 0.69442 0.57351 0.0
H1505 H 0.01627 0.67725 0.53986 0.0
H1506 H -0.00533 0.65102 0.49499 0.0
H1507 H 0.94989 0.63929 0.46226 0.0
H1508 H 0.85871 0.65681 0.49652 0.0
H1509 H 0.8803 0.67621 0.54431 0.0
C1510 C 0.94012 0.68453 0.55657 0.0
C1511 C 0.97206 0.68824 0.55963 0.0
C1512 C 0.92761 0.6698 0.53079 0.0
C1513 C 0.99152 0.67481 0.53789 0.0
C1514 C 0.97921 0.65998 0.51214 0.0
C1515 C 0.93474 0.64695 0.48035 0.0
C1516 C 0.90282 0.64728 0.47549 0.0
C1517 C 0.94728 0.65833 0.50784 0.0
C1518 C 0.88343 0.65671 0.49941 0.0
C1519 C 0.89572 0.66789 0.52679 0.0
H1520 H 0.54201 0.22919 0.68919 0.0
H1521 H 0.51012 0.31901 0.66446 0.0
H1522 H 0.54509 0.34256 0.70186 0.0
H1523 H 0.57977 0.33716 0.74481 0.0
H1524 H 0.60716 0.24723 0.77447 0.0
H1525 H 0.57947 0.22405 0.73099 0.0
C1526 C 0.54315 0.25396 0.69161 0.0
C1527 C 0.52351 0.2724 0.67421 0.0
C1528 C 0.56247 0.26721 0.71389 0.0
C1529 C 0.52491 0.3044 0.67776 0.0
C1530 C 0.5449 0.31783 0.69907 0.0
C1531 C 0.58039 0.3125 0.74152 0.0
C1532 C 0.59546 0.29388 0.76292 0.0
C1533 C 0.56314 0.29938 0.71773 0.0
C1534 C 0.59569 0.262 0.75832 0.0
C1535 C 0.57971 0.24878 0.73363 0.0
H1536 H 0.98061 0.35705 0.9595 0.0
H1537 H 0.895 0.33727 0.91301 0.0
H1538 H 0.8668 0.3437 0.96097 0.0
H1539 H 0.86721 0.34903 0.01658 0.0
H1540 H 0.95313 0.36436 0.06435 0.0
H1541 H 0.9806 0.36553 0.01543 0.0
C1542 C 0.95572 0.35497 0.95987 0.0
C1543 C 0.93974 0.34688 0.93299 0.0
C1544 C 0.93987 0.35726 0.98778 0.0
C1545 C 0.90761 0.34357 0.93359 0.0
C1546 C 0.89156 0.34705 0.96097 0.0
C1547 C 0.89193 0.35288 0.01636 0.0
C1548 C 0.90815 0.35617 0.04408 0.0
C1549 C 0.90756 0.35289 0.98833 0.0
C1550 C 0.94015 0.36133 0.04332 0.0
C1551 C 0.95586 0.3621 0.01537 0.0
H1552 H 0.90611 0.71987 0.2018 0.0
H1553 H 0.95059 0.63659 0.17429 0.0
H1554 H 0.93461 0.61207 0.22247 0.0
H1555 H 0.91096 0.61582 0.27377 0.0
H1556 H 0.87062 0.70096 0.302 0.0
H1557 H 0.88204 0.72336 0.25187 0.0
C1558 C 0.91202 0.69618 0.20604 0.0
C1559 C 0.92945 0.68002 0.18444 0.0
C1560 C 0.9037 0.68273 0.23398 0.0
C1561 C 0.93719 0.6495 0.19057 0.0
C1562 C 0.92812 0.63554 0.2181 0.0
C1563 C 0.9044 0.63915 0.26875 0.0
C1564 C 0.88999 0.6568 0.29141 0.0
C1565 C 0.91182 0.65214 0.24019 0.0
C1566 C 0.8819 0.68709 0.28489 0.0
C1567 C 0.88837 0.69985 0.25628 0.0
H1568 H 0.51952 0.66832 0.47888 0.0
H1569 H 0.60841 0.69641 0.44375 0.0
H1570 H 0.63365 0.66979 0.48571 0.0
H1571 H 0.63008 0.64587 0.53606 0.0
H1572 H 0.54111 0.62194 0.57401 0.0
H1573 H 0.51623 0.63919 0.52703 0.0
C1574 C 0.54442 0.66791 0.48006 0.0
C1575 C 0.56215 0.68445 0.45859 0.0
C1576 C 0.5587 0.6537 0.50495 0.0
C1577 C 0.59436 0.68401 0.46031 0.0
C1578 C 0.60877 0.6689 0.4843 0.0
C1579 C 0.60528 0.64386 0.53389 0.0
C1580 C 0.58743 0.6332 0.55867 0.0
C1581 C 0.59113 0.6548 0.50738 0.0
C1582 C 0.55533 0.63054 0.55539 0.0
C1583 C 0.54109 0.64043 0.52857 0.0
H1584 H 0.80481 0.57111 0.75574 0.0
H1585 H 0.83259 0.52829 0.67119 0.0
H1586 H 0.78928 0.55115 0.64447 0.0
H1587 H 0.74011 0.57731 0.6469 0.0
H1588 H 0.70945 0.6154 0.73275 0.0
H1589 H 0.75748 0.6006 0.75726 0.0
C1590 C 0.80179 0.5674 0.7313 0.0
C1591 C 0.82174 0.54804 0.71541 0.0
C1592 C 0.77611 0.57942 0.71649 0.0
C1593 C 0.81741 0.54307 0.68387 0.0
C1594 C 0.79261 0.55601 0.66865 0.0
C1595 C 0.74418 0.58292 0.67082 0.0
C1596 C 0.72124 0.59725 0.68808 0.0
C1597 C 0.77125 0.57332 0.68498 0.0
C1598 C 0.72672 0.60415 0.7191 0.0
C1599 C 0.75413 0.59568 0.7331 0.0
H1600 H 0.68198 0.53093 0.89716 0.0
H1601 H 0.69318 0.49674 0.98906 0.0
H1602 H 0.66224 0.45082 0.97627 0.0
H1603 H 0.63903 0.41743 0.93645 0.0
H1604 H 0.62717 0.45317 0.84487 0.0
H1605 H 0.65056 0.50184 0.86032 0.0
C1606 C 0.67709 0.51362 0.91447 0.0
C1607 C 0.69009 0.51663 0.94371 0.0
C1608 C 0.6593 0.4876 0.907 0.0
C1609 C 0.68336 0.49459 0.9663 0.0
C1610 C 0.66584 0.46835 0.95896 0.0
C1611 C 0.64083 0.43612 0.9201 0.0
C1612 C 0.63224 0.43131 0.88933 0.0
C1613 C 0.65464 0.46412 0.92902 0.0
C1614 C 0.63423 0.45598 0.86856 0.0
C1615 C 0.64772 0.48384 0.87729 0.0
H1616 H 0.68016 0.40618 0.23 0.0
H1617 H 0.66269 0.46189 0.15026 0.0
H1618 H 0.70571 0.43833 0.1236 0.0
H1619 H 0.7523 0.40726 0.12581 0.0
H1620 H 0.77186 0.35558 0.20766 0.0
H1621 H 0.72375 0.37215 0.23063 0.0
C1622 C 0.68534 0.41292 0.2066 0.0
C1623 C 0.66841 0.43612 0.19232 0.0
C1624 C 0.7107 0.40019 0.19193 0.0
C1625 C 0.67543 0.44427 0.1619 0.0
C1626 C 0.70013 0.4309 0.14669 0.0
C1627 C 0.74567 0.3991 0.14841 0.0
C1628 C 0.76561 0.38036 0.16515 0.0
C1629 C 0.71855 0.40964 0.1619 0.0
C1630 C 0.75694 0.37019 0.19449 0.0
C1631 C 0.7295 0.37969 0.20762 0.0
H1632 H 0.80475 0.44897 0.4895 0.0
H1633 H 0.73765 0.43856 0.41718 0.0
H1634 H 0.75926 0.48393 0.39127 0.0
H1635 H 0.79678 0.52673 0.38977 0.0
H1636 H 0.86068 0.53996 0.46446 0.0
H1637 H 0.84087 0.49299 0.48909 0.0
C1638 C 0.79499 0.45662 0.46799 0.0
C1639 C 0.76991 0.44049 0.45501 0.0
C1640 C 0.80698 0.48303 0.45378 0.0
C1641 C 0.757 0.45075 0.42748 0.0
C1642 C 0.76937 0.47656 0.41269 0.0
C1643 C 0.80652 0.51906 0.41129 0.0
C1644 C 0.83038 0.5362 0.42522 0.0
C1645 C 0.79433 0.49284 0.42566 0.0
C1646 C 0.8424 0.52678 0.45342 0.0
C1647 C 0.83108 0.50007 0.46742 0.0
H1648 H 0.80209 0.4095 0.7768 0.0
H1649 H 0.79816 0.46842 0.85629 0.0
H1650 H 0.75068 0.44222 0.87286 0.0
H1651 H 0.71027 0.40359 0.86402 0.0
H1652 H 0.71159 0.34733 0.78255 0.0
H1653 H 0.76062 0.37167 0.76716 0.0
C1654 C 0.79094 0.41642 0.79789 0.0
C1655 C 0.80357 0.44056 0.81556 0.0
C1656 C 0.76342 0.40185 0.80672 0.0
C1657 C 0.78875 0.44981 0.84247 0.0
C1658 C 0.76172 0.43486 0.85189 0.0
C1659 C 0.72149 0.39639 0.84305 0.0
C1660 C 0.70786 0.37342 0.82458 0.0
C1661 C 0.7489 0.41096 0.83412 0.0
C1662 C 0.72197 0.36486 0.79708 0.0
C1663 C 0.74986 0.37874 0.78837 0.0
H1664 H 0.80147 0.54708 0.0589 0.0
H1665 H 0.85635 0.51643 0.9826 0.0
H1666 H 0.8772 0.47582 0.01423 0.0
H1667 H 0.87274 0.44393 0.0601 0.0
H1668 H 0.8162 0.47264 0.13568 0.0
H1669 H 0.80349 0.51954 0.10795 0.0
C1670 C 0.81848 0.53194 0.04934 0.0
C1671 C 0.82671 0.53427 0.01819 0.0
C1672 C 0.8298 0.50813 0.06742 0.0
C1673 C 0.84919 0.51482 0.00635 0.0
C1674 C 0.86107 0.49151 0.02438 0.0
C1675 C 0.8581 0.46079 0.0707 0.0
C1676 C 0.84484 0.45473 0.09947 0.0
C1677 C 0.8504 0.48712 0.0544 0.0
C1678 C 0.82648 0.47686 0.11341 0.0
C1679 C 0.81906 0.50351 0.09748 0.0
H1680 H 0.67008 0.56168 0.32642 0.0
H1681 H 0.70685 0.56472 0.23468 0.0
H1682 H 0.75406 0.58982 0.25372 0.0
H1683 H 0.78696 0.60475 0.29759 0.0
H1684 H 0.74863 0.60229 0.38906 0.0
H1685 H 0.69976 0.58361 0.36886 0.0
C1686 C 0.6883 0.56828 0.3106 0.0
C1687 C 0.68548 0.56103 0.27943 0.0
C1688 C 0.71511 0.58261 0.32166 0.0
C1689 C 0.70877 0.5701 0.25888 0.0
C1690 C 0.73576 0.58425 0.26977 0.0
C1691 C 0.76776 0.60058 0.31302 0.0
C1692 C 0.77173 0.6042 0.34482 0.0
C1693 C 0.73954 0.5897 0.30128 0.0
C1694 C 0.74644 0.59928 0.36449 0.0
C1695 C 0.71843 0.5885 0.35302 0.0
H1696 H 0.65745 0.43776 0.54159 0.0
H1697 H 0.71616 0.4099 0.61579 0.0
H1698 H 0.70106 0.45465 0.6458 0.0
H1699 H 0.67637 0.50493 0.64794 0.0
H1700 H 0.62256 0.53509 0.57095 0.0
H1701 H 0.63046 0.48621 0.54494 0.0
C1702 C 0.66632 0.44106 0.56465 0.0
C1703 C 0.6878 0.42063 0.57655 0.0
C1704 C 0.65882 0.46756 0.58098 0.0
C1705 C 0.69954 0.4254 0.60622 0.0
C1706 C 0.69108 0.45105 0.62327 0.0
C1707 C 0.66604 0.50053 0.62567 0.0
C1708 C 0.64912 0.5235 0.6112 0.0
C1709 C 0.67158 0.47282 0.61042 0.0
C1710 C 0.63598 0.51777 0.58229 0.0
C1711 C 0.64042 0.48985 0.56748 0.0
H1712 H 0.68572 0.80519 0.57244 0.0
H1713 H 0.77637 0.77662 0.59906 0.0
H1714 H 0.75464 0.73051 0.62249 0.0
H1715 H 0.71044 0.69676 0.6331 0.0
H1716 H 0.61944 0.72513 0.6078 0.0
H1717 H 0.64071 0.77289 0.58672 0.0
C1718 C 0.70064 0.78891 0.58347 0.0
C1719 C 0.7326 0.79429 0.58375 0.0
C1720 C 0.68798 0.76238 0.59726 0.0
C1721 C 0.75165 0.77313 0.59847 0.0
C1722 C 0.73929 0.74666 0.61188 0.0
C1723 C 0.69523 0.71352 0.62323 0.0
C1724 C 0.6635 0.70726 0.6218 0.0
C1725 C 0.70756 0.74087 0.61109 0.0
C1726 C 0.64402 0.72937 0.60924 0.0
C1727 C 0.65616 0.75664 0.59699 0.0
H1728 H 0.13888 0.69592 0.41814 0.0
H1729 H 0.23112 0.732 0.40559 0.0
H1730 H 0.2114 0.77505 0.37635 0.0
H1731 H 0.16741 0.80671 0.36268 0.0
H1732 H 0.07523 0.7705 0.3741 0.0
H1733 H 0.09537 0.72279 0.39498 0.0
C1734 C 0.15464 0.71286 0.40836 0.0
C1735 C 0.18625 0.7113 0.41449 0.0
C1736 C 0.14314 0.73755 0.39163 0.0
C1737 C 0.20663 0.73293 0.40131 0.0
C1738 C 0.19537 0.75763 0.38475 0.0
C1739 C 0.15189 0.78791 0.36891 0.0
C1740 C 0.12006 0.7919 0.36733 0.0
C1741 C 0.16362 0.76083 0.38098 0.0
C1742 C 0.09989 0.76763 0.37513 0.0
C1743 C 0.11138 0.74056 0.38732 0.0
H1744 H 0.53674 0.00919 0.67212 0.0
H1745 H 0.54003 0.93316 0.73537 0.0
H1746 H 0.495 0.9095 0.71096 0.0
H1747 H 0.45465 0.91066 0.6726 0.0
H1748 H 0.44756 0.98804 0.61162 0.0
H1749 H 0.49451 0.01105 0.6341 0.0
C1750 C 0.5276 0.98739 0.68041 0.0
C1751 C 0.5417 0.9728 0.70536 0.0
C1752 C 0.50129 0.9742 0.66664 0.0
C1753 C 0.52951 0.94481 0.71623 0.0
C1754 C 0.50386 0.93123 0.70224 0.0
C1755 C 0.46358 0.93238 0.66386 0.0
C1756 C 0.44814 0.94745 0.64012 0.0
C1757 C 0.48965 0.94572 0.6775 0.0
C1758 C 0.45937 0.97598 0.6297 0.0
C1759 C 0.48607 0.98909 0.64259 0.0
H1760 H 0.33609 0.31676 0.96584 0.0
H1761 H 0.33023 0.26947 0.05258 0.0
H1762 H 0.33382 0.22011 0.02638 0.0
H1763 H 0.34288 0.19089 0.97973 0.0
H1764 H 0.35672 0.23783 0.89387 0.0
H1765 H 0.34535 0.28707 0.91852 0.0
C1766 C 0.33596 0.29557 0.97889 0.0
C1767 C 0.33333 0.29649 0.01095 0.0
C1768 C 0.33922 0.26742 0.96383 0.0
C1769 C 0.33297 0.26914 0.02787 0.0
C1770 C 0.33482 0.241 0.01296 0.0
C1771 C 0.34249 0.21188 0.96636 0.0
C1772 C 0.34966 0.21107 0.9351 0.0
C1773 C 0.3383 0.23992 0.98107 0.0
C1774 C 0.35038 0.23822 0.9179 0.0
C1775 C 0.34437 0.26624 0.93206 0.0
H1776 H 0.43507 0.53107 0.67668 0.0
H1777 H 0.47554 0.45823 0.62415 0.0
H1778 H 0.52396 0.48744 0.62124 0.0
H1779 H 0.55602 0.53157 0.6377 0.0
H1780 H 0.51515 0.60478 0.68921 0.0
H1781 H 0.46556 0.57733 0.68872 0.0
C1782 C 0.45436 0.52176 0.66423 0.0
C1783 C 0.45188 0.49241 0.65099 0.0
C1784 C 0.48213 0.53848 0.66294 0.0
C1785 C 0.47688 0.4808 0.63455 0.0
C1786 C 0.50465 0.49735 0.63311 0.0
C1787 C 0.5362 0.54141 0.64881 0.0
C1788 C 0.53915 0.56974 0.66396 0.0
C1789 C 0.50776 0.52578 0.64798 0.0
C1790 C 0.51331 0.58281 0.67763 0.0
C1791 C 0.48502 0.56718 0.67732 0.0
H1792 H 0.76432 0.18115 0.07297 0.0
H1793 H 0.84448 0.16846 0.01655 0.0
H1794 H 0.86841 0.21502 0.03814 0.0
H1795 H 0.86536 0.26046 0.0712 0.0
H1796 H 0.78307 0.27593 0.1236 0.0
H1797 H 0.76099 0.22699 0.10555 0.0
C1798 C 0.78716 0.18847 0.06568 0.0
C1799 C 0.80279 0.17146 0.04343 0.0
C1800 C 0.80022 0.21573 0.07737 0.0
C1801 C 0.8321 0.18132 0.03368 0.0
C1802 C 0.84574 0.20786 0.046 0.0
C1803 C 0.84274 0.25289 0.0789 0.0
C1804 C 0.82586 0.27146 0.09882 0.0
C1805 C 0.82987 0.22539 0.0676 0.0
C1806 C 0.79637 0.26186 0.10824 0.0
C1807 C 0.7838 0.23396 0.09794 0.0
H1808 H 0.56903 0.03187 0.84711 0.0
H1809 H 0.5843 0.11557 0.79606 0.0
H1810 H 0.54551 0.14112 0.82694 0.0
H1811 H 0.50145 0.13662 0.86157 0.0
H1812 H 0.48211 0.05089 0.90782 0.0
H1813 H 0.52866 0.02919 0.88604 0.0
C1814 C 0.56444 0.05594 0.84328 0.0
C1815 C 0.57915 0.07178 0.81918 0.0
C1816 C 0.54109 0.06992 0.85999 0.0
C1817 C 0.57298 0.10289 0.81435 0.0
C1818 C 0.55075 0.11743 0.83189 0.0
C1819 C 0.50784 0.11345 0.86751 0.0
C1820 C 0.48828 0.09519 0.88594 0.0
C1821 C 0.53371 0.10073 0.85376 0.0
C1822 C 0.49672 0.06519 0.89338 0.0
C1823 C 0.52324 0.05279 0.88088 0.0
H1824 H 0.92027 0.98651 0.28862 0.0
H1825 H 0.91825 0.91227 0.2228 0.0
H1826 H 0.95202 0.88267 0.25553 0.0
H1827 H 0.98793 0.88129 0.29863 0.0
H1828 H -0.00583 0.95736 0.36151 0.0
H1829 H 0.95196 0.98255 0.33484 0.0
C1830 C 0.92692 0.96372 0.28155 0.0
C1831 C 0.91726 0.95187 0.25301 0.0
C1832 C 0.94676 0.94707 0.30019 0.0
C1833 C 0.92577 0.92214 0.24442 0.0
C1834 C 0.94496 0.90514 0.26316 0.0
C1835 C 0.97898 0.90276 0.30716 0.0
C1836 C -0.00667 0.91739 0.33212 0.0
C1837 C 0.95629 0.91777 0.29059 0.0
C1838 C 0.98269 0.94559 0.34268 0.0
C1839 C 0.95902 0.96013 0.32713 0.0
H1840 H 0.42804 0.30691 0.23161 0.0
H1841 H 0.47652 0.38909 0.20216 0.0
H1842 H 0.4555 0.41741 0.24548 0.0
H1843 H 0.42819 0.41701 0.29495 0.0
H1844 H 0.38148 0.33399 0.32482 0.0
H1845 H 0.39645 0.30797 0.27778 0.0
C1846 C 0.43374 0.3311 0.23449 0.0
C1847 C 0.45411 0.34578 0.21408 0.0
C1848 C 0.42188 0.34709 0.25951 0.0
C1849 C 0.46102 0.37722 0.21779 0.0
C1850 C 0.44905 0.39343 0.24255 0.0
C1851 C 0.42069 0.39349 0.29072 0.0
C1852 C 0.40411 0.37728 0.31328 0.0
C1853 C 0.4301 0.37838 0.264 0.0
C1854 C 0.3946 0.34675 0.30778 0.0
C1855 C 0.40321 0.33184 0.28099 0.0
H1856 H 0.37964 0.70066 0.93846 0.0
H1857 H 0.47461 0.71653 0.963 0.0
H1858 H 0.46505 0.69422 0.01373 0.0
H1859 H 0.42746 0.67884 0.05363 0.0
H1860 H 0.33221 0.66434 0.02832 0.0
H1861 H 0.34422 0.67713 0.97538 0.0
C1862 C 0.39841 0.69842 0.95465 0.0
C1863 C 0.42762 0.71051 0.94729 0.0
C1864 C 0.39257 0.68633 0.98385 0.0
C1865 C 0.45191 0.70726 0.9682 0.0
C1866 C 0.44635 0.69485 -0.00268 0.0
C1867 C 0.40945 0.67791 0.03643 0.0
C1868 C 0.37883 0.6715 0.04517 0.0
C1869 C 0.41643 0.68566 0.00587 0.0
C1870 C 0.35588 0.66987 0.02244 0.0
C1871 C 0.36269 0.67716 0.99208 0.0
H1872 H 0.12217 0.72415 0.70461 0.0
H1873 H 0.09766 0.64121 0.65549 0.0
H1874 H 0.11456 0.61033 0.69884 0.0
H1875 H 0.1284 0.60741 0.75367 0.0
H1876 H 0.14965 0.69115 0.80309 0.0
H1877 H 0.14184 0.72102 0.75681 0.0
C1878 C 0.12133 0.69931 0.703 0.0
C1879 C 0.10831 0.68504 0.67704 0.0
C1880 C 0.12977 0.68177 0.72846 0.0
C1881 C 0.10743 0.6528 0.67533 0.0
C1882 C 0.11681 0.6351 0.70024 0.0
C1883 C 0.13167 0.63214 0.75418 0.0
C1884 C 0.13885 0.64702 0.78198 0.0
C1885 C 0.12667 0.6494 0.72746 0.0
C1886 C 0.1434 0.6791 0.78218 0.0
C1887 C 0.1391 0.69626 0.75566 0.0
H1888 H 0.02606 0.28228 0.40323 0.0
H1889 H 0.94563 0.26211 0.45808 0.0
H1890 H 0.9643 0.2976 0.49772 0.0
H1891 H 0.00652 0.32908 0.51925 0.0
H1892 H 0.08727 0.34833 0.46428 0.0
H1893 H 0.06501 0.31897 0.42193 0.0
C1894 C 0.01247 0.2859 0.42373 0.0
C1895 C 0.98484 0.26923 0.42804 0.0
C1896 C 0.02339 0.30612 0.4464 0.0
C1897 C 0.9671 0.27457 0.45436 0.0
C1898 C 0.9778 0.29478 0.47706 0.0
C1899 C 0.01902 0.3274 0.49782 0.0
C1900 C 0.04882 0.34036 0.49523 0.0
C1901 C 0.00637 0.30995 0.4737 0.0
C1902 C 0.06448 0.33824 0.4671 0.0
C1903 C 0.05184 0.32133 0.44288 0.0
H1904 H 0.44175 0.77963 0.29698 0.0
H1905 H 0.44084 0.69463 0.34781 0.0
H1906 H 0.41065 0.66969 0.30743 0.0
H1907 H 0.38949 0.67055 0.25572 0.0
H1908 H 0.39263 0.75464 0.20336 0.0
H1909 H 0.41665 0.78152 0.24659 0.0
C1910 C 0.43451 0.75579 0.29945 0.0
C1911 C 0.44379 0.73891 0.32516 0.0
C1912 C 0.4178 0.74137 0.2758 0.0
C1913 C 0.43428 0.70803 0.32805 0.0
C1914 C 0.41703 0.69374 0.30498 0.0
C1915 C 0.39506 0.69485 0.25381 0.0
C1916 C 0.3897 0.71042 0.22618 0.0
C1917 C 0.40945 0.70996 0.27841 0.0
C1918 C 0.3968 0.74199 0.22427 0.0
C1919 C 0.41059 0.75739 0.24896 0.0
H1920 H 0.09531 0.66402 0.06105 0.0
H1921 H 0.01115 0.61852 0.03198 0.0
H1922 H 0.03757 0.59695 0.98785 0.0
H1923 H 0.08247 0.5973 0.95366 0.0
H1924 H 0.16666 0.64277 0.98247 0.0
H1925 H 0.14244 0.65777 0.03064 0.0
C1926 C 0.08291 0.64881 0.04546 0.0
C1927 C 0.05116 0.64332 0.04957 0.0
C1928 C 0.09815 0.63684 0.0198 0.0
C1929 C 0.03553 0.62331 0.0293 0.0
C1930 C 0.05058 0.61112 0.00389 0.0
C1931 C 0.09564 0.6101 0.97071 0.0
C1932 C 0.12612 0.61939 0.96428 0.0
C1933 C 0.08154 0.61875 -0.00172 0.0
C1934 C 0.14311 0.63546 0.98678 0.0
C1935 C 0.12922 0.64418 0.01428 0.0
H1936 H 0.04741 0.29943 0.77063 0.0
H1937 H 0.07995 0.38989 0.79678 0.0
H1938 H 0.10464 0.39639 0.74682 0.0
H1939 H 0.10829 0.38044 0.69347 0.0
H1940 H 0.07023 0.29282 0.6648 0.0
H1941 H 0.05707 0.28062 0.71814 0.0
C1942 C 0.06081 0.32011 0.76568 0.0
C1943 C 0.0619 0.34423 0.78718 0.0
C1944 C 0.07348 0.32431 0.7363 0.0
C1945 C 0.07883 0.37112 0.78047 0.0
C1946 C 0.09276 0.37488 0.75189 0.0
C1947 C 0.09762 0.35839 0.69894 0.0
C1948 C 0.0896 0.33784 0.67521 0.0
C1949 C 0.08888 0.35226 0.72922 0.0
C1950 C 0.07643 0.30911 0.68265 0.0
C1951 C 0.06868 0.30227 0.71311 0.0
H1952 H 0.48307 0.29047 0.54166 0.0
H1953 H 0.3915 0.25216 0.55364 0.0
H1954 H 0.36985 0.29648 0.52815 0.0
H1955 H 0.37698 0.34414 0.50006 0.0
H1956 H 0.46836 0.38156 0.48487 0.0
H1957 H 0.49001 0.34004 0.51526 0.0
C1958 C 0.4584 0.2918 0.53858 0.0
C1959 C 0.43893 0.26796 0.54925 0.0
C1960 C 0.44606 0.3174 0.52393 0.0
C1961 C 0.40699 0.27012 0.54541 0.0
C1962 C 0.39456 0.29553 0.53104 0.0
C1963 C 0.40159 0.34376 0.50397 0.0
C1964 C 0.42106 0.3659 0.4902 0.0
C1965 C 0.41389 0.31917 0.52007 0.0
C1966 C 0.45291 0.36479 0.49531 0.0
C1967 C 0.4653 0.34088 0.51235 0.0
H1968 H 0.18893 0.45285 0.33665 0.0
H1969 H 0.2293 0.42471 0.25086 0.0
H1970 H 0.27725 0.41349 0.27712 0.0
H1971 H 0.3089 0.41537 0.32357 0.0
H1972 H 0.26871 0.44285 0.40955 0.0
H1973 H 0.21938 0.45052 0.38403 0.0
C1974 C 0.2081 0.44397 0.32372 0.0
C1975 C 0.2056 0.43996 0.29176 0.0
C1976 C 0.2357 0.43769 0.33892 0.0
C1977 C 0.23057 0.4281 0.27545 0.0
C1978 C 0.25808 0.42181 0.29041 0.0
C1979 C 0.2893 0.42295 0.33674 0.0
C1980 C 0.29251 0.42899 0.36827 0.0
C1981 C 0.26109 0.42717 0.32199 0.0
C1982 C 0.26682 0.43819 0.3852 0.0
C1983 C 0.23866 0.44264 0.37062 0.0
H1984 H 0.33959 0.45568 0.11201 0.0
H1985 H 0.34523 0.48187 0.01674 0.0
H1986 H 0.34877 0.53602 0.03153 0.0
H1987 H 0.34301 0.5757 0.07137 0.0
H1988 H 0.33446 0.54816 0.16627 0.0
H1989 H 0.33874 0.49467 0.15165 0.0
C1990 C 0.34218 0.47322 0.09448 0.0
C1991 C 0.34158 0.46499 0.06341 0.0
C1992 C 0.34282 0.50405 0.10303 0.0
C1993 C 0.34551 0.48776 0.04089 0.0
C1994 C 0.34713 0.5187 0.0493 0.0
C1995 C 0.34203 0.55796 0.08879 0.0
C1996 C 0.33771 0.56583 0.11973 0.0
C1997 C 0.34443 0.52709 0.08026 0.0
C1998 C 0.33725 0.5427 0.14219 0.0
C1999 C 0.33988 0.51209 0.13393 0.0
H2000 H 0.31421 0.55118 0.7405 0.0
H2001 H 0.34646 0.49678 0.81616 0.0
H2002 H 0.31365 0.52473 0.85143 0.0
H2003 H 0.26956 0.5582 0.85896 0.0
H2004 H 0.23485 0.60971 0.78243 0.0
H2005 H 0.27523 0.58986 0.74949 0.0
C2006 C 0.31457 0.5459 0.76481 0.0
C2007 C 0.33228 0.52159 0.7756 0.0
C2008 C 0.29499 0.56142 0.7848 0.0
C2009 C 0.3327 0.51516 0.8072 0.0
C2010 C 0.31388 0.53108 0.82739 0.0
C2011 C 0.27146 0.56579 0.83533 0.0
C2012 C 0.24915 0.58506 0.82298 0.0
C2013 C 0.29398 0.55334 0.81622 0.0
C2014 C 0.25168 0.59461 0.79229 0.0
C2015 C 0.27465 0.58317 0.77343 0.0
H2016 H 0.12791 0.57492 0.54666 0.0
H2017 H 0.1867 0.54951 0.47175 0.0
H2018 H 0.1646 0.49735 0.47219 0.0
H2019 H 0.13606 0.45695 0.50119 0.0
H2020 H 0.07782 0.48344 0.57631 0.0
H2021 H 0.09131 0.53728 0.56788 0.0
C2022 C 0.13518 0.55814 0.52988 0.0
C2023 C 0.15912 0.56566 0.5096 0.0
C2024 C 0.12256 0.52832 0.53045 0.0
C2025 C 0.16825 0.54405 0.48765 0.0
C2026 C 0.15579 0.51419 0.48805 0.0
C2027 C 0.12544 0.47466 0.51482 0.0
C2028 C 0.10647 0.46638 0.53966 0.0
C2029 C 0.13396 0.50568 0.51035 0.0
C2030 C 0.09284 0.48942 0.5573 0.0
C2031 C 0.10068 0.52017 0.55265 0.0
H2032 H 0.20043 0.56552 0.25023 0.0
H2033 H 0.15632 0.56666 0.16168 0.0
H2034 H 0.19042 0.60868 0.14523 0.0
H2035 H 0.23768 0.63819 0.15282 0.0
H2036 H 0.28693 0.63218 0.23848 0.0
H2037 H 0.24537 0.60007 0.2598 0.0
C2038 C 0.19792 0.57558 0.22764 0.0
C2039 C 0.17619 0.56305 0.20702 0.0
C2040 C 0.21865 0.59874 0.21784 0.0
C2041 C 0.17315 0.57589 0.17772 0.0
C2042 C 0.19261 0.59986 0.16835 0.0
C2043 C 0.23913 0.63041 0.1764 0.0
C2044 C 0.26575 0.63694 0.19374 0.0
C2045 C 0.21624 0.61048 0.18774 0.0
C2046 C 0.26686 0.62725 0.22448 0.0
C2047 C 0.24323 0.60859 0.23657 0.0
H2048 H 0.23926 0.4225 0.9399 0.0
H2049 H 0.19594 0.45336 0.02322 0.0
H2050 H 0.16904 0.49256 -0.00542 0.0
H2051 H 0.16444 0.52295 0.94779 0.0
H2052 H 0.20884 0.4936 0.86465 0.0
H2053 H 0.22831 0.4485 0.89119 0.0
C2054 C 0.22344 0.43739 0.95168 0.0
C2055 C 0.22009 0.43548 0.98371 0.0
C2056 C 0.20851 0.4603 0.93517 0.0
C2057 C 0.19922 0.45463 -0.00138 0.0
C2058 C 0.1839 0.47713 0.98229 0.0
C2059 C 0.17794 0.50635 0.93538 0.0
C2060 C 0.18576 0.51174 0.90459 0.0
C2061 C 0.18943 0.48096 0.95086 0.0
C2062 C 0.20269 0.4899 0.88846 0.0
C2063 C 0.21398 0.46427 0.90367 0.0
H2064 H 0.29852 0.42432 0.62616 0.0
H2065 H 0.26783 0.39838 0.71688 0.0
H2066 H 0.21688 0.38535 0.6967 0.0
H2067 H 0.1804 0.3846 0.65415 0.0
H2068 H 0.21072 0.41076 0.56338 0.0
H2069 H 0.26275 0.42028 0.5828 0.0
C2070 C 0.28075 0.41558 0.64147 0.0
C2071 C 0.28678 0.41259 0.67298 0.0
C2072 C 0.25151 0.40837 0.62979 0.0
C2073 C 0.26367 0.40098 0.69253 0.0
C2074 C 0.23454 0.39362 0.68105 0.0
C2075 C 0.1984 0.39234 0.63857 0.0
C2076 C 0.19168 0.39741 0.60749 0.0
C2077 C 0.22809 0.3978 0.64985 0.0
C2078 C 0.21532 0.40686 0.58746 0.0
C2079 C 0.24502 0.41235 0.59854 0.0
H2080 H 0.30761 0.56431 0.52351 0.0
H2081 H 0.30586 0.61386 0.43784 0.0
H2082 H 0.33798 0.57542 0.41404 0.0
H2083 H 0.35912 0.52403 0.41529 0.0
H2084 H 0.35863 0.47297 0.50015 0.0
H2085 H 0.33544 0.516 0.5266 0.0
C2086 C 0.31485 0.56706 0.49985 0.0
C2087 C 0.30386 0.59151 0.48231 0.0
C2088 C 0.33263 0.54442 0.48601 0.0
C2089 C 0.31359 0.5949 0.45171 0.0
C2090 C 0.33192 0.57292 0.43804 0.0
C2091 C 0.35449 0.52247 0.43969 0.0
C2092 C 0.35985 0.49503 0.45548 0.0
C2093 C 0.34041 0.54694 0.4546 0.0
C2094 C 0.35422 0.49365 0.48725 0.0
C2095 C 0.34086 0.51822 0.50243 0.0
H2096 H 0.32615 0.20719 0.39908 0.0
H2097 H 0.23453 0.24287 0.39355 0.0
H2098 H 0.25562 0.29533 0.39505 0.0
H2099 H 0.2998 0.33064 0.40372 0.0
H2100 H 0.3909 0.2937 0.41146 0.0
H2101 H 0.37013 0.24211 0.40367 0.0
C2102 C 0.31077 0.22642 0.3977 0.0
C2103 C 0.27885 0.22118 0.39661 0.0
C2104 C 0.3229 0.25629 0.39962 0.0
C2105 C 0.25924 0.24632 0.3945 0.0
C2106 C 0.27125 0.2763 0.39565 0.0
C2107 C 0.31508 0.31129 0.40367 0.0
C2108 C 0.34676 0.316 0.40871 0.0
C2109 C 0.30299 0.2815 0.39929 0.0
C2110 C 0.36635 0.29075 0.40804 0.0
C2111 C 0.35455 0.2612 0.40346 0.0
H2112 H 0.85247 0.29974 0.53164 0.0
H2113 H 0.7648 0.28654 0.5766 0.0
H2114 H 0.78649 0.24678 0.60907 0.0
H2115 H 0.82851 0.21186 0.62011 0.0
H2116 H 0.91607 0.22483 0.57489 0.0
H2117 H 0.8964 0.26914 0.54743 0.0
C2118 C 0.83819 0.28836 0.54876 0.0
C2119 C 0.80696 0.29557 0.55135 0.0
C2120 C 0.85076 0.26552 0.5672 0.0
C2121 C 0.78887 0.28119 0.57405 0.0
C2122 C 0.80122 0.25842 0.59253 0.0
C2123 C 0.84341 0.22468 0.60456 0.0
C2124 C 0.87346 0.21482 0.59905 0.0
C2125 C 0.83185 0.2498 0.58862 0.0
C2126 C 0.89277 0.23191 0.57937 0.0
C2127 C 0.88148 0.2571 0.56352 0.0
H2128 H 0.42188 0.04404 0.2843 0.0
H2129 H 0.4486 0.9538 0.31327 0.0
H2130 H 0.49432 0.97571 0.33822 0.0
H2131 H 0.52883 0.0201 0.34797 0.0
H2132 H 0.50099 0.11044 0.32028 0.0
H2133 H 0.45344 0.08892 0.29896 0.0
C2134 C 0.43759 0.02924 0.29633 0.0
C2135 C 0.43215 -0.00261 0.29665 0.0
C2136 C 0.46367 0.04197 0.31074 0.0
C2137 C 0.45235 0.97844 0.3127 0.0
C2138 C 0.47856 0.99092 0.32684 0.0
C2139 C 0.51217 0.03505 0.33753 0.0
C2140 C 0.51856 0.06669 0.33535 0.0
C2141 C 0.48478 0.02257 0.32542 0.0
C2142 C 0.49663 0.08595 0.32221 0.0
C2143 C 0.46949 0.07368 0.30987 0.0
H2144 H 0.74794 0.69002 0.05407 0.0
H2145 H 0.66873 0.63063 0.06884 0.0
H2146 H 0.64221 0.67235 0.09444 0.0
H2147 H 0.63887 0.72711 0.10554 0.0
H2148 H 0.71662 0.78753 0.08702 0.0
H2149 H 0.7465 0.74385 0.07012 0.0
C2150 C 0.72517 0.686 0.06357 0.0
C2151 C 0.71015 0.65746 0.05936 0.0
C2152 C 0.70963 0.7104 0.07707 0.0
C2153 C 0.68063 0.65254 0.07165 0.0
C2154 C 0.66542 0.6764 0.08612 0.0
C2155 C 0.66248 0.73075 0.09818 0.0
C2156 C 0.67528 0.76063 0.09695 0.0
C2157 C 0.67923 0.70571 0.08779 0.0
C2158 C 0.70603 0.76483 0.08772 0.0
C2159 C 0.72315 0.73986 0.07808 0.0
H2160 H 0.56048 0.46258 0.30882 0.0
H2161 H 0.51479 0.548 0.29352 0.0
H2162 H 0.4775 0.53512 0.33395 0.0
H2163 H 0.45435 0.49629 0.36834 0.0
H2164 H 0.50097 0.41104 0.38336 0.0
H2165 H 0.54217 0.42769 0.34906 0.0
C2166 C 0.5425 0.47847 0.31458 0.0
C2167 C 0.53974 0.50579 0.29792 0.0
C2168 C 0.52151 0.47104 0.33785 0.0
C2169 C 0.51699 0.52666 0.30597 0.0
C2170 C 0.49574 0.5193 0.32902 0.0
C2171 C 0.47392 0.48169 0.36482 0.0
C2172 C 0.47417 0.45213 0.37783 0.0
C2173 C 0.49726 0.4911 0.34446 0.0
C2174 C 0.49993 0.4337 0.37326 0.0
C2175 C 0.52341 0.44308 0.35345 0.0
H2176 H 0.25556 0.78793 0.90968 0.0
H2177 H 0.16361 0.82221 0.90095 0.0
H2178 H 0.14506 0.77179 0.88393 0.0
H2179 H 0.15346 0.7167 0.87984 0.0
H2180 H 0.24482 0.68171 0.89171 0.0
H2181 H 0.26516 0.73379 0.89905 0.0
C2182 C 0.23165 0.78459 0.90319 0.0
C2183 C 0.21087 0.80852 0.90699 0.0
C2184 C 0.22092 0.75529 0.89469 0.0
C2185 C 0.17995 0.80393 0.89853 0.0
C2186 C 0.16929 0.7751 0.889 0.0
C2187 C 0.17786 0.72048 0.88381 0.0
C2188 C 0.19745 0.69538 0.88608 0.0
C2189 C 0.1893 0.75034 0.88847 0.0
C2190 C 0.22915 0.70065 0.8904 0.0
C2191 C 0.24082 0.73041 0.89456 0.0
H2192 H 0.42596 0.86244 0.19965 0.0
H2193 H 0.43417 0.95008 0.15382 0.0
H2194 H 0.48387 0.93585 0.13299 0.0
H2195 H 0.52783 0.90158 0.13377 0.0
H2196 H 0.52 0.81456 0.18064 0.0
H2197 H 0.46724 0.82562 0.19518 0.0
C2198 C 0.43831 0.87825 0.18463 0.0
C2199 C 0.42669 0.90753 0.17887 0.0
C2200 C 0.4672 0.8703 0.17343 0.0
C2201 C 0.44275 0.9275 0.15894 0.0
C2202 C 0.47129 0.9195 0.14718 0.0
C2203 C 0.5145 0.88501 0.14705 0.0
C2204 C 0.52794 0.85767 0.15675 0.0
C2205 C 0.48426 0.89151 0.15537 0.0
C2206 C 0.51024 0.83598 0.17324 0.0
C2207 C 0.48008 0.84225 0.18154 0.0
H2208 H 0.05038 0.00257 0.71124 0.0
H2209 H 0.09336 0.08711 0.74243 0.0
H2210 H 0.0555 0.11658 0.71408 0.0
H2211 H 0.00693 0.11807 0.68531 0.0
H2212 H 0.96186 0.03323 0.65801 0.0
H2213 H 0.00396 0.00409 0.67974 0.0
C2214 C 0.05181 0.02745 0.71141 0.0
C2215 C 0.07453 0.04265 0.72901 0.0
C2216 C 0.02941 0.04417 0.69597 0.0
C2217 C 0.07598 0.07489 0.72914 0.0
C2218 C 0.0543 0.09174 0.71302 0.0
C2219 C 0.00664 0.09323 0.68363 0.0
C2220 C 0.98131 0.07777 0.67024 0.0
C2221 C 0.03041 0.0766 0.69707 0.0
C2222 C 0.98104 0.04559 0.66845 0.0
C2223 C 0.00507 0.02893 0.68087 0.0
loop_
_geom_bond_atom_site_label_1
_geom_bond_atom_site_label_2
_geom_bond_distance
_geom_bond_site_symmetry_2
_ccdc_geom_bond_type
C0 O1 1.306 . S
C0 O3 1.160 . S
O1 C0 1.306 . S
O1 Cd2 2.228 . S
Cd2 O1 2.228 . S
Cd2 O6 2.273 . S
Cd2 O10 2.277 . S
O3 C0 1.160 . S
O3 Cd4 2.203 1_655 S
Cd4 O3 2.203 1_455 S
Cd4 O6 2.411 1_455 S
Cd4 O7 2.333 . S
Cd4 O8 2.352 . S
Cd4 O12 2.277 . S
Cd4 O13 2.356 . S
C5 O10 1.209 1_455 S
C5 O12 1.226 . S
O6 Cd2 2.273 . S
O6 Cd4 2.411 1_655 S
O6 C9 1.320 . S
O7 Cd4 2.333 . S
O7 C9 1.214 1_455 S
O8 Cd4 2.352 . S
O8 C11 1.258 . S
C9 O6 1.320 . S
C9 O7 1.214 1_655 S
O10 Cd2 2.277 . S
O10 C5 1.209 1_655 S
C11 O8 1.258 . S
C11 O13 1.282 . S
O12 Cd4 2.277 . S
O12 C5 1.226 . S
O13 Cd4 2.356 . S
O13 C11 1.282 . S
C14 O15 1.306 . S
C14 O17 1.160 . S
O15 C14 1.306 . S
O15 Cd16 2.228 1_455 S
Cd16 O15 2.228 1_655 S
Cd16 O20 2.273 . S
Cd16 O24 2.277 . S
O17 C14 1.160 . S
O17 Cd18 2.203 . S
Cd18 O17 2.203 . S
Cd18 O20 2.411 1_455 S
Cd18 O21 2.333 1_455 S
Cd18 O22 2.352 . S
Cd18 O26 2.277 1_455 S
Cd18 O27 2.356 . S
C19 O24 1.209 . S
C19 O26 1.226 . S
O20 Cd16 2.273 . S
O20 Cd18 2.411 1_655 S
O20 C23 1.320 . S
O21 Cd18 2.333 1_655 S
O21 C23 1.214 . S
O22 Cd18 2.352 . S
O22 C25 1.258 . S
C23 O20 1.320 . S
C23 O21 1.214 . S
O24 Cd16 2.277 . S
O24 C19 1.209 . S
C25 O22 1.258 . S
C25 O27 1.282 . S
O26 Cd18 2.277 1_655 S
O26 C19 1.226 . S
O27 Cd18 2.356 . S
O27 C25 1.282 . S
C28 O29 1.306 . S
C28 O31 1.160 . S
O29 C28 1.306 . S
O29 Cd30 2.228 . S
Cd30 O29 2.228 . S
Cd30 O34 2.273 . S
Cd30 O38 2.277 . S
O31 C28 1.160 . S
O31 Cd32 2.203 . S
Cd32 O31 2.203 . S
Cd32 O34 2.411 . S
Cd32 O35 2.333 . S
Cd32 O36 2.352 . S
Cd32 O40 2.277 . S
Cd32 O41 2.356 . S
C33 O38 1.209 . S
C33 O40 1.226 . S
O34 Cd30 2.273 . S
O34 Cd32 2.411 . S
O34 C37 1.320 . S
O35 Cd32 2.333 . S
O35 C37 1.214 . S
O36 Cd32 2.352 . S
O36 C39 1.258 . S
C37 O34 1.320 . S
C37 O35 1.214 . S
O38 Cd30 2.277 . S
O38 C33 1.209 . S
C39 O36 1.258 . S
C39 O41 1.282 . S
O40 Cd32 2.277 . S
O40 C33 1.226 . S
O41 Cd32 2.356 . S
O41 C39 1.282 . S
C42 O43 1.306 . S
C42 O45 1.160 . S
O43 C42 1.306 . S
O43 Cd44 2.228 . S
Cd44 O43 2.228 . S
Cd44 O48 2.273 . S
Cd44 O52 2.277 . S
O45 C42 1.160 . S
O45 Cd46 2.203 . S
Cd46 O45 2.203 . S
Cd46 O48 2.411 . S
Cd46 O49 2.333 . S
Cd46 O50 2.352 . S
Cd46 O54 2.277 . S
Cd46 O55 2.356 . S
C47 O52 1.209 . S
C47 O54 1.226 . S
O48 Cd44 2.273 . S
O48 Cd46 2.411 . S
O48 C51 1.320 . S
O49 Cd46 2.333 . S
O49 C51 1.214 . S
O50 Cd46 2.352 . S
O50 C53 1.258 . S
C51 O48 1.320 . S
C51 O49 1.214 . S
O52 Cd44 2.277 . S
O52 C47 1.209 . S
C53 O50 1.258 . S
C53 O55 1.282 . S
O54 Cd46 2.277 . S
O54 C47 1.226 . S
O55 Cd46 2.356 . S
O55 C53 1.282 . S
C56 O57 1.306 . S
C56 O59 1.160 . S
O57 C56 1.306 . S
O57 Cd58 2.228 . S
Cd58 O57 2.228 . S
Cd58 O62 2.273 . S
Cd58 O66 2.277 . S
O59 C56 1.160 . S
O59 Cd60 2.203 1_655 S
Cd60 O59 2.203 1_455 S
Cd60 O62 2.411 1_455 S
Cd60 O63 2.333 . S
Cd60 O64 2.352 . S
Cd60 O68 2.277 . S
Cd60 O69 2.356 . S
C61 O66 1.209 1_455 S
C61 O68 1.226 . S
O62 Cd58 2.273 . S
O62 Cd60 2.411 1_655 S
O62 C65 1.320 . S
O63 Cd60 2.333 . S
O63 C65 1.214 1_455 S
O64 Cd60 2.352 . S
O64 C67 1.258 . S
C65 O62 1.320 . S
C65 O63 1.214 1_655 S
O66 Cd58 2.277 . S
O66 C61 1.209 1_655 S
C67 O64 1.258 . S
C67 O69 1.282 . S
O68 Cd60 2.277 . S
O68 C61 1.226 . S
O69 Cd60 2.356 . S
O69 C67 1.282 . S
C70 O71 1.306 . S
C70 O73 1.160 . S
O71 C70 1.306 . S
O71 Cd72 2.228 . S
Cd72 O71 2.228 . S
Cd72 O76 2.273 . S
Cd72 O80 2.277 . S
O73 C70 1.160 . S
O73 Cd74 2.203 . S
Cd74 O73 2.203 . S
Cd74 O76 2.411 . S
Cd74 O77 2.333 . S
Cd74 O78 2.352 . S
Cd74 O82 2.277 . S
Cd74 O83 2.356 . S
C75 O80 1.209 . S
C75 O82 1.226 . S
O76 Cd72 2.273 . S
O76 Cd74 2.411 . S
O76 C79 1.320 . S
O77 Cd74 2.333 . S
O77 C79 1.214 . S
O78 Cd74 2.352 . S
O78 C81 1.258 . S
C79 O76 1.320 . S
C79 O77 1.214 . S
O80 Cd72 2.277 . S
O80 C75 1.209 . S
C81 O78 1.258 . S
C81 O83 1.282 . S
O82 Cd74 2.277 . S
O82 C75 1.226 . S
O83 Cd74 2.356 . S
O83 C81 1.282 . S
C84 O85 1.306 . S
C84 O87 1.160 . S
O85 C84 1.306 . S
O85 Cd86 2.228 . S
Cd86 O85 2.228 . S
Cd86 O90 2.273 . S
Cd86 O94 2.277 . S
O87 C84 1.160 . S
O87 Cd88 2.203 . S
Cd88 O87 2.203 . S
Cd88 O90 2.411 . S
Cd88 O91 2.333 . S
Cd88 O92 2.352 . S
Cd88 O96 2.277 . S
Cd88 O97 2.356 . S
C89 O94 1.209 . S
C89 O96 1.226 . S
O90 Cd86 2.273 . S
O90 Cd88 2.411 . S
O90 C93 1.320 . S
O91 Cd88 2.333 . S
O91 C93 1.214 . S
O92 Cd88 2.352 . S
O92 C95 1.258 . S
C93 O90 1.320 . S
C93 O91 1.214 . S
O94 Cd86 2.277 . S
O94 C89 1.209 . S
C95 O92 1.258 . S
C95 O97 1.282 . S
O96 Cd88 2.277 . S
O96 C89 1.226 . S
O97 Cd88 2.356 . S
O97 C95 1.282 . S
C98 O99 1.306 . S
C98 O101 1.160 . S
O99 C98 1.306 . S
O99 Cd100 2.228 1_455 S
Cd100 O99 2.228 1_655 S
Cd100 O104 2.273 . S
Cd100 O108 2.277 . S
O101 C98 1.160 . S
O101 Cd102 2.203 . S
Cd102 O101 2.203 . S
Cd102 O104 2.411 1_455 S
Cd102 O105 2.333 1_455 S
Cd102 O106 2.352 . S
Cd102 O110 2.277 1_455 S
Cd102 O111 2.356 . S
C103 O108 1.209 . S
C103 O110 1.226 . S
O104 Cd100 2.273 . S
O104 Cd102 2.411 1_655 S
O104 C107 1.320 . S
O105 Cd102 2.333 1_655 S
O105 C107 1.214 . S
O106 Cd102 2.352 . S
O106 C109 1.258 . S
C107 O104 1.320 . S
C107 O105 1.214 . S
O108 Cd100 2.277 . S
O108 C103 1.209 . S
C109 O106 1.258 . S
C109 O111 1.282 . S
O110 Cd102 2.277 1_655 S
O110 C103 1.226 . S
O111 Cd102 2.356 . S
O111 C109 1.282 . S
C112 O113 1.306 . S
C112 O115 1.160 . S
O113 C112 1.306 . S
O113 Cd114 2.228 . S
Cd114 O113 2.228 . S
Cd114 O118 2.273 . S
Cd114 O122 2.277 . S
O115 C112 1.160 . S
O115 Cd116 2.203 1_565 S
Cd116 O115 2.203 1_545 S
Cd116 O118 2.411 1_545 S
Cd116 O119 2.333 . S
Cd116 O120 2.352 . S
Cd116 O124 2.277 . S
Cd116 O125 2.356 . S
C117 O122 1.209 1_545 S
C117 O124 1.226 . S
O118 Cd114 2.273 . S
O118 Cd116 2.411 1_565 S
O118 C121 1.320 . S
O119 Cd116 2.333 . S
O119 C121 1.214 1_545 S
O120 Cd116 2.352 . S
O120 C123 1.258 . S
C121 O118 1.320 . S
C121 O119 1.214 1_565 S
O122 Cd114 2.277 . S
O122 C117 1.209 1_565 S
C123 O120 1.258 . S
C123 O125 1.282 . S
O124 Cd116 2.277 . S
O124 C117 1.226 . S
O125 Cd116 2.356 . S
O125 C123 1.282 . S
C126 O127 1.306 . S
C126 O129 1.160 . S
O127 C126 1.306 . S
O127 Cd128 2.228 . S
Cd128 O127 2.228 . S
Cd128 O132 2.273 . S
Cd128 O136 2.277 . S
O129 C126 1.160 . S
O129 Cd130 2.203 . S
Cd130 O129 2.203 . S
Cd130 O132 2.411 . S
Cd130 O133 2.333 . S
Cd130 O134 2.352 . S
Cd130 O138 2.277 . S
Cd130 O139 2.356 . S
C131 O136 1.209 . S
C131 O138 1.226 . S
O132 Cd128 2.273 . S
O132 Cd130 2.411 . S
O132 C135 1.320 . S
O133 Cd130 2.333 . S
O133 C135 1.214 . S
O134 Cd130 2.352 . S
O134 C137 1.258 . S
C135 O132 1.320 . S
C135 O133 1.214 . S
O136 Cd128 2.277 . S
O136 C131 1.209 . S
C137 O134 1.258 . S
C137 O139 1.282 . S
O138 Cd130 2.277 . S
O138 C131 1.226 . S
O139 Cd130 2.356 . S
O139 C137 1.282 . S
C140 O141 1.306 . S
C140 O143 1.160 . S
O141 C140 1.306 . S
O141 Cd142 2.228 . S
Cd142 O141 2.228 . S
Cd142 O146 2.273 . S
Cd142 O150 2.277 . S
O143 C140 1.160 . S
O143 Cd144 2.203 1_565 S
Cd144 O143 2.203 1_545 S
Cd144 O146 2.411 1_545 S
Cd144 O147 2.333 . S
Cd144 O148 2.352 . S
Cd144 O152 2.277 . S
Cd144 O153 2.356 . S
C145 O150 1.209 1_545 S
C145 O152 1.226 . S
O146 Cd142 2.273 . S
O146 Cd144 2.411 1_565 S
O146 C149 1.320 . S
O147 Cd144 2.333 . S
O147 C149 1.214 1_545 S
O148 Cd144 2.352 . S
O148 C151 1.258 . S
C149 O146 1.320 . S
C149 O147 1.214 1_565 S
O150 Cd142 2.277 . S
O150 C145 1.209 1_565 S
C151 O148 1.258 . S
C151 O153 1.282 . S
O152 Cd144 2.277 . S
O152 C145 1.226 . S
O153 Cd144 2.356 . S
O153 C151 1.282 . S
C154 O155 1.306 . S
C154 O157 1.160 . S
O155 C154 1.306 . S
O155 Cd156 2.228 1_554 S
Cd156 O155 2.228 1_556 S
Cd156 O160 2.273 . S
Cd156 O164 2.277 . S
O157 C154 1.160 . S
O157 Cd158 2.203 . S
Cd158 O157 2.203 . S
Cd158 O160 2.411 1_554 S
Cd158 O161 2.333 1_554 S
Cd158 O162 2.352 . S
Cd158 O166 2.277 1_554 S
Cd158 O167 2.356 . S
C159 O164 1.209 . S
C159 O166 1.226 . S
O160 Cd156 2.273 . S
O160 Cd158 2.411 1_556 S
O160 C163 1.320 . S
O161 Cd158 2.333 1_556 S
O161 C163 1.214 . S
O162 Cd158 2.352 . S
O162 C165 1.258 . S
C163 O160 1.320 . S
C163 O161 1.214 . S
O164 Cd156 2.277 . S
O164 C159 1.209 . S
C165 O162 1.258 . S
C165 O167 1.282 . S
O166 Cd158 2.277 1_556 S
O166 C159 1.226 . S
O167 Cd158 2.356 . S
O167 C165 1.282 . S
C168 O169 1.306 . S
C168 O171 1.160 . S
O169 C168 1.306 . S
O169 Cd170 2.228 . S
Cd170 O169 2.228 . S
Cd170 O174 2.273 . S
Cd170 O178 2.277 . S
O171 C168 1.160 . S
O171 Cd172 2.203 1_554 S
Cd172 O171 2.203 1_556 S
Cd172 O174 2.411 1_556 S
Cd172 O175 2.333 . S
Cd172 O176 2.350 1_556 S
Cd172 O180 2.277 . S
Cd172 O181 2.356 . S
C173 O178 1.209 1_556 S
C173 O180 1.226 . S
O174 Cd170 2.273 . S
O174 Cd172 2.411 1_554 S
O174 C177 1.320 . S
O175 Cd172 2.333 . S
O175 C177 1.214 1_556 S
O176 Cd172 2.350 1_554 S
O176 C179 1.246 1_554 S
C177 O174 1.320 . S
C177 O175 1.214 1_554 S
O178 Cd170 2.277 . S
O178 C173 1.209 1_554 S
C179 O176 1.246 1_556 S
C179 O181 1.282 . S
O180 Cd172 2.277 . S
O180 C173 1.226 . S
O181 Cd172 2.356 . S
O181 C179 1.282 . S
C182 O183 1.306 . S
C182 O185 1.160 . S
O183 C182 1.306 . S
O183 Cd184 2.228 . S
Cd184 O183 2.228 . S
Cd184 O188 2.273 . S
Cd184 O192 2.277 . S
O185 C182 1.160 . S
O185 Cd186 2.203 1_554 S
Cd186 O185 2.203 1_556 S
Cd186 O188 2.411 1_556 S
Cd186 O189 2.333 . S
Cd186 O190 2.352 . S
Cd186 O194 2.277 . S
Cd186 O195 2.356 . S
C187 O192 1.209 1_556 S
C187 O194 1.226 . S
O188 Cd184 2.273 . S
O188 Cd186 2.411 1_554 S
O188 C191 1.320 . S
O189 Cd186 2.333 . S
O189 C191 1.214 1_556 S
O190 Cd186 2.352 . S
O190 C193 1.258 . S
C191 O188 1.320 . S
C191 O189 1.214 1_554 S
O192 Cd184 2.277 . S
O192 C187 1.209 1_554 S
C193 O190 1.258 . S
C193 O195 1.282 . S
O194 Cd186 2.277 . S
O194 C187 1.226 . S
O195 Cd186 2.356 . S
O195 C193 1.282 . S
C196 O197 1.306 . S
C196 O199 1.160 . S
O197 C196 1.306 . S
O197 Cd198 2.228 . S
Cd198 O197 2.228 . S
Cd198 O202 2.273 . S
Cd198 O206 2.277 . S
O199 C196 1.160 . S
O199 Cd200 2.203 . S
Cd200 O199 2.203 . S
Cd200 O202 2.411 . S
Cd200 O203 2.333 . S
Cd200 O204 2.352 . S
Cd200 O208 2.277 . S
Cd200 O209 2.356 . S
C201 O206 1.209 . S
C201 O208 1.226 . S
O202 Cd198 2.273 . S
O202 Cd200 2.411 . S
O202 C205 1.320 . S
O203 Cd200 2.333 . S
O203 C205 1.214 . S
O204 Cd200 2.352 . S
O204 C207 1.258 . S
C205 O202 1.320 . S
C205 O203 1.214 . S
O206 Cd198 2.277 . S
O206 C201 1.209 . S
C207 O204 1.258 . S
C207 O209 1.282 . S
O208 Cd200 2.277 . S
O208 C201 1.226 . S
O209 Cd200 2.356 . S
O209 C207 1.282 . S
C210 O211 1.306 . S
C210 O213 1.160 . S
O211 C210 1.306 . S
O211 Cd212 2.228 . S
Cd212 O211 2.228 . S
Cd212 O216 2.273 . S
Cd212 O220 2.277 . S
O213 C210 1.160 . S
O213 Cd214 2.203 . S
Cd214 O213 2.203 . S
Cd214 O216 2.411 . S
Cd214 O217 2.333 . S
Cd214 O218 2.352 . S
Cd214 O222 2.277 . S
Cd214 O223 2.356 . S
C215 O220 1.209 . S
C215 O222 1.226 . S
O216 Cd212 2.273 . S
O216 Cd214 2.411 . S
O216 C219 1.320 . S
O217 Cd214 2.333 . S
O217 C219 1.214 . S
O218 Cd214 2.352 . S
O218 C221 1.258 . S
C219 O216 1.320 . S
C219 O217 1.214 . S
O220 Cd212 2.277 . S
O220 C215 1.209 . S
C221 O218 1.258 . S
C221 O223 1.282 . S
O222 Cd214 2.277 . S
O222 C215 1.226 . S
O223 Cd214 2.356 . S
O223 C221 1.282 . S
C224 O225 1.306 . S
C224 O227 1.160 . S
O225 C224 1.306 . S
O225 Cd226 2.228 1_545 S
Cd226 O225 2.228 1_565 S
Cd226 O230 2.273 . S
Cd226 O234 2.277 . S
O227 C224 1.160 . S
O227 Cd228 2.203 . S
Cd228 O227 2.203 . S
Cd228 O230 2.411 1_545 S
Cd228 O231 2.333 1_545 S
Cd228 O232 2.352 . S
Cd228 O236 2.277 1_545 S
Cd228 O237 2.356 . S
C229 O234 1.209 . S
C229 O236 1.226 . S
O230 Cd226 2.273 . S
O230 Cd228 2.411 1_565 S
O230 C233 1.320 . S
O231 Cd228 2.333 1_565 S
O231 C233 1.214 . S
O232 Cd228 2.352 . S
O232 C235 1.258 . S
C233 O230 1.320 . S
C233 O231 1.214 . S
O234 Cd226 2.277 . S
O234 C229 1.209 . S
C235 O232 1.258 . S
C235 O237 1.282 . S
O236 Cd228 2.277 1_565 S
O236 C229 1.226 . S
O237 Cd228 2.356 . S
O237 C235 1.282 . S
C238 O239 1.306 . S
C238 O241 1.160 . S
O239 C238 1.306 . S
O239 Cd240 2.228 . S
Cd240 O239 2.228 . S
Cd240 O244 2.273 . S
Cd240 O248 2.277 . S
O241 C238 1.160 . S
O241 Cd242 2.203 . S
Cd242 O241 2.203 . S
Cd242 O244 2.411 . S
Cd242 O245 2.333 . S
Cd242 O246 2.352 . S
Cd242 O250 2.277 . S
Cd242 O251 2.356 . S
C243 O248 1.209 . S
C243 O250 1.226 . S
O244 Cd240 2.273 . S
O244 Cd242 2.411 . S
O244 C247 1.320 . S
O245 Cd242 2.333 . S
O245 C247 1.214 . S
O246 Cd242 2.352 . S
O246 C249 1.258 . S
C247 O244 1.320 . S
C247 O245 1.214 . S
O248 Cd240 2.277 . S
O248 C243 1.209 . S
C249 O246 1.258 . S
C249 O251 1.282 . S
O250 Cd242 2.277 . S
O250 C243 1.226 . S
O251 Cd242 2.356 . S
O251 C249 1.282 . S
C252 O253 1.306 . S
C252 O255 1.160 . S
O253 C252 1.306 . S
O253 Cd254 2.228 . S
Cd254 O253 2.228 . S
Cd254 O258 2.273 . S
Cd254 O262 2.277 . S
O255 C252 1.160 . S
O255 Cd256 2.203 . S
Cd256 O255 2.203 . S
Cd256 O258 2.411 . S
Cd256 O259 2.333 . S
Cd256 O260 2.352 . S
Cd256 O264 2.277 . S
Cd256 O265 2.356 . S
C257 O262 1.209 . S
C257 O264 1.226 . S
O258 Cd254 2.273 . S
O258 Cd256 2.411 . S
O258 C261 1.320 . S
O259 Cd256 2.333 . S
O259 C261 1.214 . S
O260 Cd256 2.352 . S
O260 C263 1.258 . S
C261 O258 1.320 . S
C261 O259 1.214 . S
O262 Cd254 2.277 . S
O262 C257 1.209 . S
C263 O260 1.258 . S
C263 O265 1.282 . S
O264 Cd256 2.277 . S
O264 C257 1.226 . S
O265 Cd256 2.356 . S
O265 C263 1.282 . S
C266 O267 1.306 . S
C266 O269 1.160 . S
O267 C266 1.306 . S
O267 Cd268 2.228 1_545 S
Cd268 O267 2.228 1_565 S
Cd268 O272 2.273 . S
Cd268 O276 2.277 . S
O269 C266 1.160 . S
O269 Cd270 2.203 . S
Cd270 O269 2.203 . S
Cd270 O272 2.411 1_545 S
Cd270 O273 2.333 1_545 S
Cd270 O274 2.352 . S
Cd270 O278 2.277 1_545 S
Cd270 O279 2.356 . S
C271 O276 1.209 . S
C271 O278 1.226 . S
O272 Cd268 2.273 . S
O272 Cd270 2.411 1_565 S
O272 C275 1.320 . S
O273 Cd270 2.333 1_565 S
O273 C275 1.214 . S
O274 Cd270 2.352 . S
O274 C277 1.258 . S
C275 O272 1.320 . S
C275 O273 1.214 . S
O276 Cd268 2.277 . S
O276 C271 1.209 . S
C277 O274 1.258 . S
C277 O279 1.282 . S
O278 Cd270 2.277 1_565 S
O278 C271 1.226 . S
O279 Cd270 2.356 . S
O279 C277 1.282 . S
C280 O281 1.306 . S
C280 O283 1.160 . S
O281 C280 1.306 . S
O281 Cd282 2.228 1_554 S
Cd282 O281 2.228 1_556 S
Cd282 O286 2.273 . S
Cd282 O290 2.277 . S
O283 C280 1.160 . S
O283 Cd284 2.203 . S
Cd284 O283 2.203 . S
Cd284 O286 2.411 1_554 S
Cd284 O287 2.333 1_554 S
Cd284 O288 2.352 . S
Cd284 O292 2.277 1_554 S
Cd284 O293 2.356 . S
C285 O290 1.209 . S
C285 O292 1.226 . S
O286 Cd282 2.273 . S
O286 Cd284 2.411 1_556 S
O286 C289 1.320 . S
O287 Cd284 2.333 1_556 S
O287 C289 1.214 . S
O288 Cd284 2.352 . S
O288 C291 1.258 . S
C289 O286 1.320 . S
C289 O287 1.214 . S
O290 Cd282 2.277 . S
O290 C285 1.209 . S
C291 O288 1.258 . S
C291 O293 1.282 . S
O292 Cd284 2.277 1_556 S
O292 C285 1.226 . S
O293 Cd284 2.356 . S
O293 C291 1.282 . S
C294 O295 1.306 . S
C294 O297 1.160 . S
O295 C294 1.306 . S
O295 Cd296 2.228 . S
Cd296 O295 2.228 . S
Cd296 O300 2.273 . S
Cd296 O304 2.277 . S
O297 C294 1.160 . S
O297 Cd298 2.203 . S
Cd298 O297 2.203 . S
Cd298 O300 2.411 . S
Cd298 O301 2.333 . S
Cd298 O302 2.352 . S
Cd298 O306 2.277 . S
Cd298 O307 2.356 . S
C299 O304 1.209 . S
C299 O306 1.226 . S
O300 Cd296 2.273 . S
O300 Cd298 2.411 . S
O300 C303 1.320 . S
O301 Cd298 2.333 . S
O301 C303 1.214 . S
O302 Cd298 2.352 . S
O302 C305 1.258 . S
C303 O300 1.320 . S
C303 O301 1.214 . S
O304 Cd296 2.277 . S
O304 C299 1.209 . S
C305 O302 1.258 . S
C305 O307 1.282 . S
O306 Cd298 2.277 . S
O306 C299 1.226 . S
O307 Cd298 2.356 . S
O307 C305 1.282 . S
C308 O309 1.306 . S
C308 O311 1.160 . S
O309 C308 1.306 . S
O309 Cd310 2.228 . S
Cd310 O309 2.228 . S
Cd310 O314 2.273 . S
Cd310 O318 2.277 . S
O311 C308 1.160 . S
O311 Cd312 2.203 . S
Cd312 O311 2.203 . S
Cd312 O314 2.411 . S
Cd312 O315 2.333 . S
Cd312 O316 2.352 . S
Cd312 O320 2.277 . S
Cd312 O321 2.356 . S
C313 O318 1.209 . S
C313 O320 1.226 . S
O314 Cd310 2.273 . S
O314 Cd312 2.411 . S
O314 C317 1.320 . S
O315 Cd312 2.333 . S
O315 C317 1.214 . S
O316 Cd312 2.352 . S
O316 C319 1.258 . S
C317 O314 1.320 . S
C317 O315 1.214 . S
O318 Cd310 2.277 . S
O318 C313 1.209 . S
C319 O316 1.258 . S
C319 O321 1.282 . S
O320 Cd312 2.277 . S
O320 C313 1.226 . S
O321 Cd312 2.356 . S
O321 C319 1.282 . S
C322 O323 1.306 . S
C322 O325 1.160 . S
O323 C322 1.306 . S
O323 Cd324 2.228 . S
Cd324 O323 2.228 . S
Cd324 O328 2.273 . S
Cd324 O332 2.277 . S
O325 C322 1.160 . S
O325 Cd326 2.203 . S
Cd326 O325 2.203 . S
Cd326 O328 2.411 . S
Cd326 O329 2.333 . S
Cd326 O330 2.352 . S
Cd326 O334 2.277 . S
Cd326 O335 2.356 . S
C327 O332 1.209 . S
C327 O334 1.226 . S
O328 Cd324 2.273 . S
O328 Cd326 2.411 . S
O328 C331 1.320 . S
O329 Cd326 2.333 . S
O329 C331 1.214 . S
O330 Cd326 2.352 . S
O330 C333 1.258 . S
C331 O328 1.320 . S
C331 O329 1.214 . S
O332 Cd324 2.277 . S
O332 C327 1.209 . S
C333 O330 1.258 . S
C333 O335 1.282 . S
O334 Cd326 2.277 . S
O334 C327 1.226 . S
O335 Cd326 2.356 . S
O335 C333 1.282 . S
Fe336 O338 1.918 . S
Fe336 O341 1.997 . S
Fe336 O342 2.002 . S
Fe336 O347 1.976 . S
Fe336 O350 1.996 . S
Fe337 O338 1.918 . S
Fe337 O345 1.997 . S
Fe337 O348 1.996 . S
Fe337 O352 1.976 . S
Fe337 O355 2.002 . S
O338 Fe336 1.918 . S
O338 Fe337 1.918 . S
O338 Fe339 1.918 . S
Fe339 O338 1.918 . S
Fe339 O340 2.002 . S
Fe339 O349 1.976 . S
Fe339 O353 1.996 . S
Fe339 O356 1.997 . S
O340 Fe339 2.002 . S
O340 C357 1.295 . S
O341 Fe336 1.997 . S
O341 C357 1.235 . S
O342 Fe336 2.002 . S
O342 C343 1.295 . S
C343 O342 1.295 . S
C343 O345 1.235 . S
C344 O349 1.287 . S
C344 O350 1.255 . S
O345 Fe337 1.997 . S
O345 C343 1.235 . S
C346 O352 1.287 . S
C346 O353 1.255 . S
O347 Fe336 1.976 . S
O347 C354 1.287 . S
O348 Fe337 1.996 . S
O348 C354 1.255 . S
O349 Fe339 1.976 . S
O349 C344 1.287 . S
O350 Fe336 1.996 . S
O350 C344 1.255 . S
C351 O355 1.295 . S
C351 O356 1.235 . S
O352 Fe337 1.976 . S
O352 C346 1.287 . S
O353 Fe339 1.996 . S
O353 C346 1.255 . S
C354 O347 1.287 . S
C354 O348 1.255 . S
O355 Fe337 2.002 . S
O355 C351 1.295 . S
O356 Fe339 1.997 . S
O356 C351 1.235 . S
C357 O340 1.295 . S
C357 O341 1.235 . S
Fe358 O360 1.918 . S
Fe358 O363 1.997 . S
Fe358 O364 2.002 . S
Fe358 O369 1.976 . S
Fe358 O372 1.996 . S
Fe359 O360 1.918 . S
Fe359 O367 1.997 . S
Fe359 O370 1.996 . S
Fe359 O374 1.976 . S
Fe359 O377 2.002 . S
O360 Fe358 1.918 . S
O360 Fe359 1.918 . S
O360 Fe361 1.918 . S
Fe361 O360 1.918 . S
Fe361 O362 2.002 . S
Fe361 O371 1.976 . S
Fe361 O375 1.996 . S
Fe361 O378 1.997 . S
O362 Fe361 2.002 . S
O362 C379 1.295 . S
O363 Fe358 1.997 . S
O363 C379 1.235 . S
O364 Fe358 2.002 . S
O364 C365 1.295 . S
C365 O364 1.295 . S
C365 O367 1.235 . S
C366 O371 1.287 . S
C366 O372 1.255 . S
O367 Fe359 1.997 . S
O367 C365 1.235 . S
C368 O374 1.287 . S
C368 O375 1.255 . S
O369 Fe358 1.976 . S
O369 C376 1.287 . S
O370 Fe359 1.996 . S
O370 C376 1.255 . S
O371 Fe361 1.976 . S
O371 C366 1.287 . S
O372 Fe358 1.996 . S
O372 C366 1.255 . S
C373 O377 1.295 . S
C373 O378 1.235 . S
O374 Fe359 1.976 . S
O374 C368 1.287 . S
O375 Fe361 1.996 . S
O375 C368 1.255 . S
C376 O369 1.287 . S
C376 O370 1.255 . S
O377 Fe359 2.002 . S
O377 C373 1.295 . S
O378 Fe361 1.997 . S
O378 C373 1.235 . S
C379 O362 1.295 . S
C379 O363 1.235 . S
Fe380 O382 1.918 . S
Fe380 O385 1.997 . S
Fe380 O386 2.002 . S
Fe380 O391 1.976 . S
Fe380 O394 1.996 . S
Fe381 O382 1.918 . S
Fe381 O389 1.997 . S
Fe381 O392 1.996 . S
Fe381 O396 1.976 . S
Fe381 O399 2.002 . S
O382 Fe380 1.918 . S
O382 Fe381 1.918 . S
O382 Fe383 1.918 . S
Fe383 O382 1.918 . S
Fe383 O384 2.002 . S
Fe383 O393 1.976 . S
Fe383 O397 1.996 . S
Fe383 O400 1.997 . S
O384 Fe383 2.002 . S
O384 C401 1.295 . S
O385 Fe380 1.997 . S
O385 C401 1.235 . S
O386 Fe380 2.002 . S
O386 C387 1.295 . S
C387 O386 1.295 . S
C387 O389 1.235 . S
C388 O393 1.287 . S
C388 O394 1.255 . S
O389 Fe381 1.997 . S
O389 C387 1.235 . S
C390 O396 1.287 . S
C390 O397 1.255 . S
O391 Fe380 1.976 . S
O391 C398 1.287 . S
O392 Fe381 1.996 . S
O392 C398 1.255 . S
O393 Fe383 1.976 . S
O393 C388 1.287 . S
O394 Fe380 1.996 . S
O394 C388 1.255 . S
C395 O399 1.295 . S
C395 O400 1.235 . S
O396 Fe381 1.976 . S
O396 C390 1.287 . S
O397 Fe383 1.996 . S
O397 C390 1.255 . S
C398 O391 1.287 . S
C398 O392 1.255 . S
O399 Fe381 2.002 . S
O399 C395 1.295 . S
O400 Fe383 1.997 . S
O400 C395 1.235 . S
C401 O384 1.295 . S
C401 O385 1.235 . S
Fe402 O404 1.918 . S
Fe402 O407 1.997 . S
Fe402 O408 2.002 . S
Fe402 O413 1.976 . S
Fe402 O416 1.996 . S
Fe403 O404 1.918 . S
Fe403 O411 1.997 . S
Fe403 O414 1.996 . S
Fe403 O418 1.976 . S
Fe403 O421 2.002 . S
O404 Fe402 1.918 . S
O404 Fe403 1.918 . S
O404 Fe405 1.918 . S
Fe405 O404 1.918 . S
Fe405 O406 2.002 . S
Fe405 O415 1.976 . S
Fe405 O419 1.996 . S
Fe405 O422 1.997 . S
O406 Fe405 2.002 . S
O406 C423 1.295 . S
O407 Fe402 1.997 . S
O407 C423 1.235 . S
O408 Fe402 2.002 . S
O408 C409 1.295 . S
C409 O408 1.295 . S
C409 O411 1.235 . S
C410 O415 1.287 . S
C410 O416 1.255 . S
O411 Fe403 1.997 . S
O411 C409 1.235 . S
C412 O418 1.287 . S
C412 O419 1.255 . S
O413 Fe402 1.976 . S
O413 C420 1.287 . S
O414 Fe403 1.996 . S
O414 C420 1.255 . S
O415 Fe405 1.976 . S
O415 C410 1.287 . S
O416 Fe402 1.996 . S
O416 C410 1.255 . S
C417 O421 1.295 . S
C417 O422 1.235 . S
O418 Fe403 1.976 . S
O418 C412 1.287 . S
O419 Fe405 1.996 . S
O419 C412 1.255 . S
C420 O413 1.287 . S
C420 O414 1.255 . S
O421 Fe403 2.002 . S
O421 C417 1.295 . S
O422 Fe405 1.997 . S
O422 C417 1.235 . S
C423 O406 1.295 . S
C423 O407 1.235 . S
Fe424 O426 1.918 . S
Fe424 O429 1.997 . S
Fe424 O430 2.002 . S
Fe424 O435 1.976 . S
Fe424 O438 1.996 . S
Fe425 O426 1.918 . S
Fe425 O433 1.997 . S
Fe425 O436 1.996 . S
Fe425 O440 1.976 . S
Fe425 O443 2.002 . S
O426 Fe424 1.918 . S
O426 Fe425 1.918 . S
O426 Fe427 1.918 . S
Fe427 O426 1.918 . S
Fe427 O428 2.002 . S
Fe427 O437 1.976 . S
Fe427 O441 1.996 . S
Fe427 O444 1.997 . S
O428 Fe427 2.002 . S
O428 C445 1.295 . S
O429 Fe424 1.997 . S
O429 C445 1.235 . S
O430 Fe424 2.002 . S
O430 C431 1.295 . S
C431 O430 1.295 . S
C431 O433 1.235 . S
C432 O437 1.287 . S
C432 O438 1.255 . S
O433 Fe425 1.997 . S
O433 C431 1.235 . S
C434 O440 1.287 . S
C434 O441 1.255 . S
O435 Fe424 1.976 . S
O435 C442 1.287 . S
O436 Fe425 1.996 . S
O436 C442 1.255 . S
O437 Fe427 1.976 . S
O437 C432 1.287 . S
O438 Fe424 1.996 . S
O438 C432 1.255 . S
C439 O443 1.295 . S
C439 O444 1.235 . S
O440 Fe425 1.976 . S
O440 C434 1.287 . S
O441 Fe427 1.996 . S
O441 C434 1.255 . S
C442 O435 1.287 . S
C442 O436 1.255 . S
O443 Fe425 2.002 . S
O443 C439 1.295 . S
O444 Fe427 1.997 . S
O444 C439 1.235 . S
C445 O428 1.295 . S
C445 O429 1.235 . S
Fe446 O448 1.918 . S
Fe446 O451 1.997 . S
Fe446 O452 2.002 . S
Fe446 O457 1.976 . S
Fe446 O460 1.996 . S
Fe447 O448 1.918 . S
Fe447 O455 1.997 . S
Fe447 O458 1.996 . S
Fe447 O462 1.976 . S
Fe447 O465 2.002 . S
O448 Fe446 1.918 . S
O448 Fe447 1.918 . S
O448 Fe449 1.918 . S
Fe449 O448 1.918 . S
Fe449 O450 2.002 . S
Fe449 O459 1.976 . S
Fe449 O463 1.996 . S
Fe449 O466 1.997 . S
O450 Fe449 2.002 . S
O450 C467 1.295 . S
O451 Fe446 1.997 . S
O451 C467 1.235 . S
O452 Fe446 2.002 . S
O452 C453 1.295 . S
C453 O452 1.295 . S
C453 O455 1.235 . S
C454 O459 1.287 . S
C454 O460 1.255 . S
O455 Fe447 1.997 . S
O455 C453 1.235 . S
C456 O462 1.287 . S
C456 O463 1.255 . S
O457 Fe446 1.976 . S
O457 C464 1.287 . S
O458 Fe447 1.996 . S
O458 C464 1.255 . S
O459 Fe449 1.976 . S
O459 C454 1.287 . S
O460 Fe446 1.996 . S
O460 C454 1.255 . S
C461 O465 1.295 . S
C461 O466 1.235 . S
O462 Fe447 1.976 . S
O462 C456 1.287 . S
O463 Fe449 1.996 . S
O463 C456 1.255 . S
C464 O457 1.287 . S
C464 O458 1.255 . S
O465 Fe447 2.002 . S
O465 C461 1.295 . S
O466 Fe449 1.997 . S
O466 C461 1.235 . S
C467 O450 1.295 . S
C467 O451 1.235 . S
Fe468 O470 1.918 . S
Fe468 O473 1.997 . S
Fe468 O474 2.002 . S
Fe468 O479 1.976 . S
Fe468 O482 1.996 . S
Fe469 O470 1.918 . S
Fe469 O477 1.997 . S
Fe469 O480 1.996 . S
Fe469 O484 1.976 . S
Fe469 O487 2.002 . S
O470 Fe468 1.918 . S
O470 Fe469 1.918 . S
O470 Fe471 1.918 . S
Fe471 O470 1.918 . S
Fe471 O472 2.002 . S
Fe471 O481 1.976 . S
Fe471 O485 1.996 . S
Fe471 O488 1.997 . S
O472 Fe471 2.002 . S
O472 C489 1.295 . S
O473 Fe468 1.997 . S
O473 C489 1.235 . S
O474 Fe468 2.002 . S
O474 C475 1.295 . S
C475 O474 1.295 . S
C475 O477 1.235 . S
C476 O481 1.287 . S
C476 O482 1.255 . S
O477 Fe469 1.997 . S
O477 C475 1.235 . S
C478 O484 1.287 . S
C478 O485 1.255 . S
O479 Fe468 1.976 . S
O479 C486 1.287 . S
O480 Fe469 1.996 . S
O480 C486 1.255 . S
O481 Fe471 1.976 . S
O481 C476 1.287 . S
O482 Fe468 1.996 . S
O482 C476 1.255 . S
C483 O487 1.295 . S
C483 O488 1.235 . S
O484 Fe469 1.976 . S
O484 C478 1.287 . S
O485 Fe471 1.996 . S
O485 C478 1.255 . S
C486 O479 1.287 . S
C486 O480 1.255 . S
O487 Fe469 2.002 . S
O487 C483 1.295 . S
O488 Fe471 1.997 . S
O488 C483 1.235 . S
C489 O472 1.295 . S
C489 O473 1.235 . S
Fe490 O492 1.918 . S
Fe490 O495 1.997 . S
Fe490 O496 2.002 . S
Fe490 O501 1.976 . S
Fe490 O504 1.996 . S
Fe491 O492 1.918 . S
Fe491 O499 1.997 . S
Fe491 O502 1.996 . S
Fe491 O506 1.976 . S
Fe491 O509 2.002 . S
O492 Fe490 1.918 . S
O492 Fe491 1.918 . S
O492 Fe493 1.918 . S
Fe493 O492 1.918 . S
Fe493 O494 2.002 . S
Fe493 O503 1.976 . S
Fe493 O507 1.996 . S
Fe493 O510 1.997 . S
O494 Fe493 2.002 . S
O494 C511 1.295 . S
O495 Fe490 1.997 . S
O495 C511 1.235 . S
O496 Fe490 2.002 . S
O496 C497 1.295 . S
C497 O496 1.295 . S
C497 O499 1.235 . S
C498 O503 1.287 . S
C498 O504 1.255 . S
O499 Fe491 1.997 . S
O499 C497 1.235 . S
C500 O506 1.287 . S
C500 O507 1.255 . S
O501 Fe490 1.976 . S
O501 C508 1.287 . S
O502 Fe491 1.996 . S
O502 C508 1.255 . S
O503 Fe493 1.976 . S
O503 C498 1.287 . S
O504 Fe490 1.996 . S
O504 C498 1.255 . S
C505 O509 1.295 . S
C505 O510 1.235 . S
O506 Fe491 1.976 . S
O506 C500 1.287 . S
O507 Fe493 1.996 . S
O507 C500 1.255 . S
C508 O501 1.287 . S
C508 O502 1.255 . S
O509 Fe491 2.002 . S
O509 C505 1.295 . S
O510 Fe493 1.997 . S
O510 C505 1.235 . S
C511 O494 1.295 . S
C511 O495 1.235 . S
Fe512 O514 1.918 . S
Fe512 O517 1.997 . S
Fe512 O518 2.002 . S
Fe512 O523 1.976 . S
Fe512 O526 1.996 . S
Fe513 O514 1.918 . S
Fe513 O521 1.997 . S
Fe513 O524 1.996 . S
Fe513 O528 1.976 . S
Fe513 O531 2.002 . S
O514 Fe512 1.918 . S
O514 Fe513 1.918 . S
O514 Fe515 1.918 . S
Fe515 O514 1.918 . S
Fe515 O516 2.002 . S
Fe515 O525 1.976 . S
Fe515 O529 1.996 . S
Fe515 O532 1.997 . S
O516 Fe515 2.002 . S
O516 C533 1.295 . S
O517 Fe512 1.997 . S
O517 C533 1.235 . S
O518 Fe512 2.002 . S
O518 C519 1.295 . S
C519 O518 1.295 . S
C519 O521 1.235 . S
C520 O525 1.287 . S
C520 O526 1.255 . S
O521 Fe513 1.997 . S
O521 C519 1.235 . S
C522 O528 1.287 . S
C522 O529 1.255 . S
O523 Fe512 1.976 . S
O523 C530 1.287 . S
O524 Fe513 1.996 . S
O524 C530 1.255 . S
O525 Fe515 1.976 . S
O525 C520 1.287 . S
O526 Fe512 1.996 . S
O526 C520 1.255 . S
C527 O531 1.295 . S
C527 O532 1.235 . S
O528 Fe513 1.976 . S
O528 C522 1.287 . S
O529 Fe515 1.996 . S
O529 C522 1.255 . S
C530 O523 1.287 . S
C530 O524 1.255 . S
O531 Fe513 2.002 . S
O531 C527 1.295 . S
O532 Fe515 1.997 . S
O532 C527 1.235 . S
C533 O516 1.295 . S
C533 O517 1.235 . S
Fe534 O536 1.918 . S
Fe534 O539 1.997 . S
Fe534 O540 2.002 . S
Fe534 O545 1.976 . S
Fe534 O548 1.996 . S
Fe535 O536 1.918 . S
Fe535 O543 1.997 . S
Fe535 O546 1.996 . S
Fe535 O550 1.976 . S
Fe535 O553 2.002 . S
O536 Fe534 1.918 . S
O536 Fe535 1.918 . S
O536 Fe537 1.918 . S
Fe537 O536 1.918 . S
Fe537 O538 2.002 . S
Fe537 O547 1.976 . S
Fe537 O551 1.996 . S
Fe537 O554 1.997 . S
O538 Fe537 2.002 . S
O538 C555 1.295 . S
O539 Fe534 1.997 . S
O539 C555 1.235 . S
O540 Fe534 2.002 . S
O540 C541 1.295 . S
C541 O540 1.295 . S
C541 O543 1.235 . S
C542 O547 1.287 . S
C542 O548 1.255 . S
O543 Fe535 1.997 . S
O543 C541 1.235 . S
C544 O550 1.287 . S
C544 O551 1.255 . S
O545 Fe534 1.976 . S
O545 C552 1.287 . S
O546 Fe535 1.996 . S
O546 C552 1.255 . S
O547 Fe537 1.976 . S
O547 C542 1.287 . S
O548 Fe534 1.996 . S
O548 C542 1.255 . S
C549 O553 1.295 . S
C549 O554 1.235 . S
O550 Fe535 1.976 . S
O550 C544 1.287 . S
O551 Fe537 1.996 . S
O551 C544 1.255 . S
C552 O545 1.287 . S
C552 O546 1.255 . S
O553 Fe535 2.002 . S
O553 C549 1.295 . S
O554 Fe537 1.997 . S
O554 C549 1.235 . S
C555 O538 1.295 . S
C555 O539 1.235 . S
Fe556 O558 1.918 . S
Fe556 O561 1.997 . S
Fe556 O562 2.002 . S
Fe556 O567 1.976 . S
Fe556 O570 1.996 . S
Fe557 O558 1.918 . S
Fe557 O565 1.997 . S
Fe557 O568 1.996 . S
Fe557 O572 1.976 . S
Fe557 O575 2.002 . S
O558 Fe556 1.918 . S
O558 Fe557 1.918 . S
O558 Fe559 1.918 . S
Fe559 O558 1.918 . S
Fe559 O560 2.002 . S
Fe559 O569 1.976 . S
Fe559 O573 1.996 . S
Fe559 O576 1.997 . S
O560 Fe559 2.002 . S
O560 C577 1.295 . S
O561 Fe556 1.997 . S
O561 C577 1.235 . S
O562 Fe556 2.002 . S
O562 C563 1.295 . S
C563 O562 1.295 . S
C563 O565 1.235 . S
C564 O569 1.287 . S
C564 O570 1.255 . S
O565 Fe557 1.997 . S
O565 C563 1.235 . S
C566 O572 1.287 . S
C566 O573 1.255 . S
O567 Fe556 1.976 . S
O567 C574 1.287 . S
O568 Fe557 1.996 . S
O568 C574 1.255 . S
O569 Fe559 1.976 . S
O569 C564 1.287 . S
O570 Fe556 1.996 . S
O570 C564 1.255 . S
C571 O575 1.295 . S
C571 O576 1.235 . S
O572 Fe557 1.976 . S
O572 C566 1.287 . S
O573 Fe559 1.996 . S
O573 C566 1.255 . S
C574 O567 1.287 . S
C574 O568 1.255 . S
O575 Fe557 2.002 . S
O575 C571 1.295 . S
O576 Fe559 1.997 . S
O576 C571 1.235 . S
C577 O560 1.295 . S
C577 O561 1.235 . S
Fe578 O580 1.918 . S
Fe578 O583 1.997 . S
Fe578 O584 2.002 . S
Fe578 O589 1.976 . S
Fe578 O592 1.996 . S
Fe579 O580 1.918 . S
Fe579 O587 1.997 . S
Fe579 O590 1.996 . S
Fe579 O594 1.976 . S
Fe579 O597 2.002 . S
O580 Fe578 1.918 . S
O580 Fe579 1.918 . S
O580 Fe581 1.918 . S
Fe581 O580 1.918 . S
Fe581 O582 2.002 . S
Fe581 O591 1.976 . S
Fe581 O595 1.996 . S
Fe581 O598 1.997 . S
O582 Fe581 2.002 . S
O582 C599 1.295 . S
O583 Fe578 1.997 . S
O583 C599 1.235 . S
O584 Fe578 2.002 . S
O584 C585 1.295 . S
C585 O584 1.295 . S
C585 O587 1.235 . S
C586 O591 1.287 . S
C586 O592 1.255 . S
O587 Fe579 1.997 . S
O587 C585 1.235 . S
C588 O594 1.287 . S
C588 O595 1.255 . S
O589 Fe578 1.976 . S
O589 C596 1.287 . S
O590 Fe579 1.996 . S
O590 C596 1.255 . S
O591 Fe581 1.976 . S
O591 C586 1.287 . S
O592 Fe578 1.996 . S
O592 C586 1.255 . S
C593 O597 1.295 . S
C593 O598 1.235 . S
O594 Fe579 1.976 . S
O594 C588 1.287 . S
O595 Fe581 1.996 . S
O595 C588 1.255 . S
C596 O589 1.287 . S
C596 O590 1.255 . S
O597 Fe579 2.002 . S
O597 C593 1.295 . S
O598 Fe581 1.997 . S
O598 C593 1.235 . S
C599 O582 1.295 . S
C599 O583 1.235 . S
Fe600 O602 1.918 . S
Fe600 O605 1.997 . S
Fe600 O606 2.002 . S
Fe600 O611 1.976 . S
Fe600 O614 1.996 . S
Fe601 O602 1.918 . S
Fe601 O609 1.997 . S
Fe601 O612 1.996 . S
Fe601 O616 1.976 . S
Fe601 O619 2.002 . S
O602 Fe600 1.918 . S
O602 Fe601 1.918 . S
O602 Fe603 1.918 . S
Fe603 O602 1.918 . S
Fe603 O604 2.002 . S
Fe603 O613 1.976 . S
Fe603 O617 1.996 . S
Fe603 O620 1.997 . S
O604 Fe603 2.002 . S
O604 C621 1.295 . S
O605 Fe600 1.997 . S
O605 C621 1.235 . S
O606 Fe600 2.002 . S
O606 C607 1.295 . S
C607 O606 1.295 . S
C607 O609 1.235 . S
C608 O613 1.287 . S
C608 O614 1.255 . S
O609 Fe601 1.997 . S
O609 C607 1.235 . S
C610 O616 1.287 . S
C610 O617 1.255 . S
O611 Fe600 1.976 . S
O611 C618 1.287 . S
O612 Fe601 1.996 . S
O612 C618 1.255 . S
O613 Fe603 1.976 . S
O613 C608 1.287 . S
O614 Fe600 1.996 . S
O614 C608 1.255 . S
C615 O619 1.295 . S
C615 O620 1.235 . S
O616 Fe601 1.976 . S
O616 C610 1.287 . S
O617 Fe603 1.996 . S
O617 C610 1.255 . S
C618 O611 1.287 . S
C618 O612 1.255 . S
O619 Fe601 2.002 . S
O619 C615 1.295 . S
O620 Fe603 1.997 . S
O620 C615 1.235 . S
C621 O604 1.295 . S
C621 O605 1.235 . S
Fe622 O624 1.918 . S
Fe622 O627 1.997 . S
Fe622 O628 2.002 . S
Fe622 O633 1.976 . S
Fe622 O636 1.996 . S
Fe623 O624 1.918 . S
Fe623 O631 1.997 . S
Fe623 O634 1.996 . S
Fe623 O638 1.976 . S
Fe623 O641 2.002 . S
O624 Fe622 1.918 . S
O624 Fe623 1.918 . S
O624 Fe625 1.918 . S
Fe625 O624 1.918 . S
Fe625 O626 2.002 . S
Fe625 O635 1.976 . S
Fe625 O639 1.996 . S
Fe625 O642 1.997 . S
O626 Fe625 2.002 . S
O626 C643 1.295 . S
O627 Fe622 1.997 . S
O627 C643 1.235 . S
O628 Fe622 2.002 . S
O628 C629 1.295 . S
C629 O628 1.295 . S
C629 O631 1.235 . S
C630 O635 1.287 . S
C630 O636 1.255 . S
O631 Fe623 1.997 . S
O631 C629 1.235 . S
C632 O638 1.287 . S
C632 O639 1.255 . S
O633 Fe622 1.976 . S
O633 C640 1.287 . S
O634 Fe623 1.996 . S
O634 C640 1.255 . S
O635 Fe625 1.976 . S
O635 C630 1.287 . S
O636 Fe622 1.996 . S
O636 C630 1.255 . S
C637 O641 1.295 . S
C637 O642 1.235 . S
O638 Fe623 1.976 . S
O638 C632 1.287 . S
O639 Fe625 1.996 . S
O639 C632 1.255 . S
C640 O633 1.287 . S
C640 O634 1.255 . S
O641 Fe623 2.002 . S
O641 C637 1.295 . S
O642 Fe625 1.997 . S
O642 C637 1.235 . S
C643 O626 1.295 . S
C643 O627 1.235 . S
Fe644 O646 1.918 . S
Fe644 O649 1.997 . S
Fe644 O650 2.002 . S
Fe644 O655 1.976 . S
Fe644 O658 1.996 . S
Fe645 O646 1.918 . S
Fe645 O653 1.997 . S
Fe645 O656 1.996 . S
Fe645 O660 1.976 . S
Fe645 O663 2.002 . S
O646 Fe644 1.918 . S
O646 Fe645 1.918 . S
O646 Fe647 1.918 . S
Fe647 O646 1.918 . S
Fe647 O648 2.002 . S
Fe647 O657 1.976 . S
Fe647 O661 1.996 . S
Fe647 O664 1.997 . S
O648 Fe647 2.002 . S
O648 C665 1.295 . S
O649 Fe644 1.997 . S
O649 C665 1.235 . S
O650 Fe644 2.002 . S
O650 C651 1.295 . S
C651 O650 1.295 . S
C651 O653 1.235 . S
C652 O657 1.287 . S
C652 O658 1.255 . S
O653 Fe645 1.997 . S
O653 C651 1.235 . S
C654 O660 1.287 . S
C654 O661 1.255 . S
O655 Fe644 1.976 . S
O655 C662 1.287 . S
O656 Fe645 1.996 . S
O656 C662 1.255 . S
O657 Fe647 1.976 . S
O657 C652 1.287 . S
O658 Fe644 1.996 . S
O658 C652 1.255 . S
C659 O663 1.295 . S
C659 O664 1.235 . S
O660 Fe645 1.976 . S
O660 C654 1.287 . S
O661 Fe647 1.996 . S
O661 C654 1.255 . S
C662 O655 1.287 . S
C662 O656 1.255 . S
O663 Fe645 2.002 . S
O663 C659 1.295 . S
O664 Fe647 1.997 . S
O664 C659 1.235 . S
C665 O648 1.295 . S
C665 O649 1.235 . S
Fe666 O668 1.918 . S
Fe666 O671 1.997 . S
Fe666 O672 2.002 . S
Fe666 O677 1.976 . S
Fe666 O680 1.996 . S
Fe667 O668 1.918 . S
Fe667 O675 1.997 . S
Fe667 O678 1.996 . S
Fe667 O682 1.976 . S
Fe667 O685 2.002 . S
O668 Fe666 1.918 . S
O668 Fe667 1.918 . S
O668 Fe669 1.918 . S
Fe669 O668 1.918 . S
Fe669 O670 2.002 . S
Fe669 O679 1.976 . S
Fe669 O683 1.996 . S
Fe669 O686 1.997 . S
O670 Fe669 2.002 . S
O670 C687 1.295 . S
O671 Fe666 1.997 . S
O671 C687 1.235 . S
O672 Fe666 2.002 . S
O672 C673 1.295 . S
C673 O672 1.295 . S
C673 O675 1.235 . S
C674 O679 1.287 . S
C674 O680 1.255 . S
O675 Fe667 1.997 . S
O675 C673 1.235 . S
C676 O682 1.287 . S
C676 O683 1.255 . S
O677 Fe666 1.976 . S
O677 C684 1.287 . S
O678 Fe667 1.996 . S
O678 C684 1.255 . S
O679 Fe669 1.976 . S
O679 C674 1.287 . S
O680 Fe666 1.996 . S
O680 C674 1.255 . S
C681 O685 1.295 . S
C681 O686 1.235 . S
O682 Fe667 1.976 . S
O682 C676 1.287 . S
O683 Fe669 1.996 . S
O683 C676 1.255 . S
C684 O677 1.287 . S
C684 O678 1.255 . S
O685 Fe667 2.002 . S
O685 C681 1.295 . S
O686 Fe669 1.997 . S
O686 C681 1.235 . S
C687 O670 1.295 . S
C687 O671 1.235 . S
H688 C694 0.930 . S
H689 C697 0.930 . S
H690 C698 0.930 . S
H691 C699 0.930 . S
H692 C702 0.930 . S
H693 C703 0.930 . S
C694 H688 0.930 . S
C694 C695 1.355 . S
C694 C696 1.415 . S
C695 C694 1.355 . S
C695 C697 1.419 . S
C696 C694 1.415 . S
C696 C701 1.425 . S
C696 C703 1.409 . S
C697 H689 0.930 . S
C697 C695 1.419 . S
C697 C698 1.362 . S
C698 H690 0.930 . S
C698 C697 1.362 . S
C698 C701 1.409 . S
C699 H691 0.930 . S
C699 C700 1.355 . S
C699 C701 1.415 . S
C700 C699 1.355 . S
C700 C702 1.419 . S
C701 C696 1.425 . S
C701 C698 1.409 . S
C701 C699 1.415 . S
C702 H692 0.930 . S
C702 C700 1.419 . S
C702 C703 1.362 . S
C703 H693 0.930 . S
C703 C696 1.409 . S
C703 C702 1.362 . S
H704 C710 0.930 . S
H705 C713 0.930 . S
H706 C714 0.930 . S
H707 C715 0.930 . S
H708 C718 0.930 . S
H709 C719 0.930 . S
C710 H704 0.930 . S
C710 C711 1.355 . S
C710 C712 1.415 . S
C711 C710 1.355 . S
C711 C713 1.419 . S
C712 C710 1.415 . S
C712 C717 1.425 . S
C712 C719 1.409 . S
C713 H705 0.930 . S
C713 C711 1.419 . S
C713 C714 1.362 . S
C714 H706 0.930 . S
C714 C713 1.362 . S
C714 C717 1.409 . S
C715 H707 0.930 . S
C715 C716 1.355 . S
C715 C717 1.415 . S
C716 C715 1.355 . S
C716 C718 1.419 . S
C717 C712 1.425 . S
C717 C714 1.409 . S
C717 C715 1.415 . S
C718 H708 0.930 . S
C718 C716 1.419 . S
C718 C719 1.362 . S
C719 H709 0.930 . S
C719 C712 1.409 . S
C719 C718 1.362 . S
H720 C726 0.930 . S
H721 C729 0.930 . S
H722 C730 0.930 . S
H723 C731 0.930 . S
H724 C734 0.930 . S
H725 C735 0.930 . S
C726 H720 0.930 . S
C726 C727 1.355 . S
C726 C728 1.415 . S
C727 C726 1.355 . S
C727 C729 1.419 . S
C728 C726 1.415 . S
C728 C733 1.425 . S
C728 C735 1.409 . S
C729 H721 0.930 . S
C729 C727 1.419 . S
C729 C730 1.362 . S
C730 H722 0.930 . S
C730 C729 1.362 . S
C730 C733 1.409 . S
C731 H723 0.930 . S
C731 C732 1.355 . S
C731 C733 1.415 . S
C732 C731 1.355 . S
C732 C734 1.419 . S
C733 C728 1.425 . S
C733 C730 1.409 . S
C733 C731 1.415 . S
C734 H724 0.930 . S
C734 C732 1.419 . S
C734 C735 1.362 . S
C735 H725 0.930 . S
C735 C728 1.409 . S
C735 C734 1.362 . S
H736 C742 0.930 . S
H737 C745 0.930 . S
H738 C746 0.930 . S
H739 C747 0.930 . S
H740 C750 0.930 . S
H741 C751 0.930 . S
C742 H736 0.930 . S
C742 C743 1.355 . S
C742 C744 1.415 . S
C743 C742 1.355 . S
C743 C745 1.419 . S
C744 C742 1.415 . S
C744 C749 1.425 . S
C744 C751 1.409 1_554 S
C745 H737 0.930 . S
C745 C743 1.419 . S
C745 C746 1.362 . S
C746 H738 0.930 . S
C746 C745 1.362 . S
C746 C749 1.409 . S
C747 H739 0.930 . S
C747 C748 1.355 1_554 S
C747 C749 1.415 . S
C748 C747 1.355 1_556 S
C748 C750 1.419 . S
C749 C744 1.425 . S
C749 C746 1.409 . S
C749 C747 1.415 . S
C750 H740 0.930 . S
C750 C748 1.419 . S
C750 C751 1.362 . S
C751 H741 0.930 . S
C751 C744 1.409 1_556 S
C751 C750 1.362 . S
H752 C758 0.930 . S
H753 C761 0.930 . S
H754 C762 0.930 . S
H755 C763 0.930 . S
H756 C766 0.930 . S
H757 C767 0.930 . S
C758 H752 0.930 . S
C758 C759 1.355 . S
C758 C760 1.415 . S
C759 C758 1.355 . S
C759 C761 1.419 . S
C760 C758 1.415 . S
C760 C765 1.425 . S
C760 C767 1.409 . S
C761 H753 0.930 . S
C761 C759 1.419 . S
C761 C762 1.362 . S
C762 H754 0.930 . S
C762 C761 1.362 . S
C762 C765 1.409 . S
C763 H755 0.930 . S
C763 C764 1.355 . S
C763 C765 1.415 . S
C764 C763 1.355 . S
C764 C766 1.419 . S
C765 C760 1.425 . S
C765 C762 1.409 . S
C765 C763 1.415 . S
C766 H756 0.930 . S
C766 C764 1.419 . S
C766 C767 1.362 . S
C767 H757 0.930 . S
C767 C760 1.409 . S
C767 C766 1.362 . S
H768 C774 0.930 . S
H769 C777 0.930 . S
H770 C778 0.930 . S
H771 C779 0.930 . S
H772 C782 0.930 . S
H773 C783 0.930 . S
C774 H768 0.930 . S
C774 C775 1.355 . S
C774 C776 1.415 . S
C775 C774 1.355 . S
C775 C777 1.419 . S
C776 C774 1.415 . S
C776 C781 1.425 . S
C776 C783 1.409 . S
C777 H769 0.930 . S
C777 C775 1.419 . S
C777 C778 1.362 . S
C778 H770 0.930 . S
C778 C777 1.362 . S
C778 C781 1.409 . S
C779 H771 0.930 . S
C779 C780 1.355 . S
C779 C781 1.415 . S
C780 C779 1.355 . S
C780 C782 1.419 . S
C781 C776 1.425 . S
C781 C778 1.409 . S
C781 C779 1.415 . S
C782 H772 0.930 . S
C782 C780 1.419 . S
C782 C783 1.362 . S
C783 H773 0.930 . S
C783 C776 1.409 . S
C783 C782 1.362 . S
H784 C790 0.930 . S
H785 C793 0.930 . S
H786 C794 0.930 . S
H787 C795 0.930 . S
H788 C798 0.930 . S
H789 C799 0.930 . S
C790 H784 0.930 . S
C790 C791 1.355 . S
C790 C792 1.415 . S
C791 C790 1.355 . S
C791 C793 1.419 . S
C792 C790 1.415 . S
C792 C797 1.425 . S
C792 C799 1.409 . S
C793 H785 0.930 . S
C793 C791 1.419 . S
C793 C794 1.362 . S
C794 H786 0.930 . S
C794 C793 1.362 . S
C794 C797 1.409 . S
C795 H787 0.930 . S
C795 C796 1.355 . S
C795 C797 1.415 . S
C796 C795 1.355 . S
C796 C798 1.419 . S
C797 C792 1.425 . S
C797 C794 1.409 . S
C797 C795 1.415 . S
C798 H788 0.930 . S
C798 C796 1.419 . S
C798 C799 1.362 . S
C799 H789 0.930 . S
C799 C792 1.409 . S
C799 C798 1.362 . S
H800 C806 0.930 . S
H801 C809 0.930 . S
H802 C810 0.930 1_554 S
H803 C811 0.930 . S
H804 C814 0.930 . S
H805 C815 0.930 . S
C806 H800 0.930 . S
C806 C807 1.355 . S
C806 C808 1.415 . S
C807 C806 1.355 . S
C807 C809 1.419 . S
C808 C806 1.415 . S
C808 C813 1.425 1_556 S
C808 C815 1.409 . S
C809 H801 0.930 . S
C809 C807 1.419 . S
C809 C810 1.362 . S
C810 H802 0.930 1_556 S
C810 C809 1.362 . S
C810 C813 1.409 1_556 S
C811 H803 0.930 . S
C811 C812 1.355 . S
C811 C813 1.415 . S
C812 C811 1.355 . S
C812 C814 1.419 . S
C813 C808 1.425 1_554 S
C813 C810 1.409 1_554 S
C813 C811 1.415 . S
C814 H804 0.930 . S
C814 C812 1.419 . S
C814 C815 1.362 1_554 S
C815 H805 0.930 . S
C815 C808 1.409 . S
C815 C814 1.362 1_556 S
H816 C822 0.930 . S
H817 C825 0.926 1_565 S
H818 C826 0.930 . S
H819 C827 0.930 . S
H820 C830 0.930 . S
H821 C831 0.930 . S
C822 H816 0.930 . S
C822 C823 1.355 . S
C822 C824 1.415 . S
C823 C822 1.355 . S
C823 C825 1.419 . S
C824 C822 1.415 . S
C824 C829 1.425 . S
C824 C831 1.409 . S
C825 H817 0.926 1_545 S
C825 C823 1.419 . S
C825 C826 1.362 . S
C826 H818 0.930 . S
C826 C825 1.362 . S
C826 C829 1.409 . S
C827 H819 0.930 . S
C827 C828 1.355 . S
C827 C829 1.415 . S
C828 C827 1.355 . S
C828 C830 1.419 . S
C829 C824 1.425 . S
C829 C826 1.409 . S
C829 C827 1.415 . S
C830 H820 0.930 . S
C830 C828 1.419 . S
C830 C831 1.362 . S
C831 H821 0.930 . S
C831 C824 1.409 . S
C831 C830 1.362 . S
H832 C838 0.930 . S
H833 C841 0.930 . S
H834 C842 0.930 . S
H835 C843 0.930 . S
H836 C846 0.930 . S
H837 C847 0.930 . S
C838 H832 0.930 . S
C838 C839 1.355 . S
C838 C840 1.415 . S
C839 C838 1.355 . S
C839 C841 1.419 . S
C840 C838 1.415 . S
C840 C845 1.425 . S
C840 C847 1.409 . S
C841 H833 0.930 . S
C841 C839 1.419 . S
C841 C842 1.362 . S
C842 H834 0.930 . S
C842 C841 1.362 . S
C842 C845 1.409 . S
C843 H835 0.930 . S
C843 C844 1.355 . S
C843 C845 1.415 1_565 S
C844 C843 1.355 . S
C844 C846 1.419 . S
C845 C840 1.425 . S
C845 C842 1.409 . S
C845 C843 1.415 1_545 S
C846 H836 0.930 . S
C846 C844 1.419 . S
C846 C847 1.362 1_565 S
C847 H837 0.930 . S
C847 C840 1.409 . S
C847 C846 1.362 1_545 S
H848 C854 0.930 . S
H849 C857 0.930 . S
H850 C858 0.930 . S
H851 C859 0.930 . S
H852 C862 0.930 . S
H853 C863 0.930 . S
C854 H848 0.930 . S
C854 C855 1.355 . S
C854 C856 1.415 . S
C855 C854 1.355 . S
C855 C857 1.419 . S
C856 C854 1.415 . S
C856 C861 1.425 . S
C856 C863 1.409 . S
C857 H849 0.930 . S
C857 C855 1.419 . S
C857 C858 1.362 . S
C858 H850 0.930 . S
C858 C857 1.362 . S
C858 C861 1.409 . S
C859 H851 0.930 . S
C859 C860 1.355 . S
C859 C861 1.415 . S
C860 C859 1.355 . S
C860 C862 1.419 . S
C861 C856 1.425 . S
C861 C858 1.409 . S
C861 C859 1.415 . S
C862 H852 0.930 . S
C862 C860 1.419 . S
C862 C863 1.362 . S
C863 H853 0.930 . S
C863 C856 1.409 . S
C863 C862 1.362 . S
H864 C870 0.930 . S
H865 C873 0.930 . S
H866 C874 0.930 . S
H867 C875 0.930 . S
H868 C878 0.930 . S
H869 C879 0.930 . S
C870 H864 0.930 . S
C870 C871 1.355 . S
C870 C872 1.415 . S
C871 C870 1.355 . S
C871 C873 1.419 . S
C872 C870 1.415 . S
C872 C877 1.425 . S
C872 C879 1.409 1_565 S
C873 H865 0.930 . S
C873 C871 1.419 . S
C873 C874 1.362 . S
C874 H866 0.930 . S
C874 C873 1.362 . S
C874 C877 1.409 . S
C875 H867 0.930 . S
C875 C876 1.355 . S
C875 C877 1.415 1_545 S
C876 C875 1.355 . S
C876 C878 1.419 . S
C877 C872 1.425 . S
C877 C874 1.409 . S
C877 C875 1.415 1_565 S
C878 H868 0.930 . S
C878 C876 1.419 . S
C878 C879 1.362 . S
C879 H869 0.930 . S
C879 C872 1.409 1_545 S
C879 C878 1.362 . S
H880 C886 0.930 . S
H881 C889 0.930 . S
H882 C890 0.930 . S
H883 C891 0.930 . S
H884 C894 0.930 . S
H885 C895 0.930 . S
C886 H880 0.930 . S
C886 C887 1.355 . S
C886 C888 1.415 . S
C887 C886 1.355 . S
C887 C889 1.419 . S
C888 C886 1.415 . S
C888 C893 1.425 . S
C888 C895 1.409 . S
C889 H881 0.930 . S
C889 C887 1.419 . S
C889 C890 1.362 . S
C890 H882 0.930 . S
C890 C889 1.362 . S
C890 C893 1.409 . S
C891 H883 0.930 . S
C891 C892 1.355 . S
C891 C893 1.415 . S
C892 C891 1.355 . S
C892 C894 1.419 . S
C893 C888 1.425 . S
C893 C890 1.409 . S
C893 C891 1.415 . S
C894 H884 0.930 . S
C894 C892 1.419 . S
C894 C895 1.362 . S
C895 H885 0.930 . S
C895 C888 1.409 . S
C895 C894 1.362 . S
H896 C902 0.930 . S
H897 C905 0.930 . S
H898 C906 0.930 . S
H899 C907 0.935 . S
H900 C910 0.930 . S
H901 C911 0.930 . S
C902 H896 0.930 . S
C902 C903 1.355 . S
C902 C904 1.415 . S
C903 C902 1.355 . S
C903 C905 1.419 . S
C904 C902 1.415 . S
C904 C909 1.425 . S
C904 C911 1.409 1_545 S
C905 H897 0.930 . S
C905 C903 1.419 . S
C905 C906 1.362 . S
C906 H898 0.930 . S
C906 C905 1.362 . S
C906 C909 1.409 . S
C907 H899 0.935 . S
C907 C908 1.328 1_545 S
C907 C909 1.437 . S
C908 C907 1.328 1_565 S
C908 C910 1.419 . S
C909 C904 1.425 . S
C909 C906 1.409 . S
C909 C907 1.437 . S
C910 H900 0.930 . S
C910 C908 1.419 . S
C910 C911 1.362 . S
C911 H901 0.930 . S
C911 C904 1.409 1_565 S
C911 C910 1.362 . S
H912 C918 0.930 . S
H913 C921 0.938 . S
H914 C922 0.930 . S
H915 C923 0.930 . S
H916 C926 0.930 . S
H917 C927 0.930 . S
C918 H912 0.930 . S
C918 C919 1.355 . S
C918 C920 1.415 . S
C919 C918 1.355 . S
C919 C921 1.419 . S
C920 C918 1.415 . S
C920 C925 1.425 . S
C920 C927 1.409 . S
C921 H913 0.938 . S
C921 C919 1.419 . S
C921 C922 1.362 . S
C922 H914 0.930 . S
C922 C921 1.362 . S
C922 C925 1.409 . S
C923 H915 0.930 . S
C923 C924 1.355 . S
C923 C925 1.415 . S
C924 C923 1.355 . S
C924 C926 1.419 . S
C925 C920 1.425 . S
C925 C922 1.409 . S
C925 C923 1.415 . S
C926 H916 0.930 . S
C926 C924 1.419 . S
C926 C927 1.362 . S
C927 H917 0.930 . S
C927 C920 1.409 . S
C927 C926 1.362 . S
H928 C934 0.930 . S
H929 C937 0.930 . S
H930 C938 0.930 1_545 S
H931 C939 0.930 . S
H932 C942 0.930 . S
H933 C943 0.930 . S
C934 H928 0.930 . S
C934 C935 1.355 . S
C934 C936 1.415 . S
C935 C934 1.355 . S
C935 C937 1.419 . S
C936 C934 1.415 . S
C936 C941 1.425 1_565 S
C936 C943 1.409 . S
C937 H929 0.930 . S
C937 C935 1.419 . S
C937 C938 1.362 . S
C938 H930 0.930 1_565 S
C938 C937 1.362 . S
C938 C941 1.409 1_565 S
C939 H931 0.930 . S
C939 C940 1.355 . S
C939 C941 1.415 . S
C940 C939 1.355 . S
C940 C942 1.419 . S
C941 C936 1.425 1_545 S
C941 C938 1.409 1_545 S
C941 C939 1.415 . S
C942 H932 0.930 . S
C942 C940 1.419 . S
C942 C943 1.362 1_545 S
C943 H933 0.930 . S
C943 C936 1.409 . S
C943 C942 1.362 1_565 S
H944 C950 0.930 . S
H945 C953 0.930 . S
H946 C954 0.930 . S
H947 C955 0.930 . S
H948 C958 0.930 . S
H949 C959 0.930 . S
C950 H944 0.930 . S
C950 C951 1.355 . S
C950 C952 1.415 . S
C951 C950 1.355 . S
C951 C953 1.419 . S
C952 C950 1.415 . S
C952 C957 1.425 . S
C952 C959 1.409 . S
C953 H945 0.930 . S
C953 C951 1.419 . S
C953 C954 1.362 . S
C954 H946 0.930 . S
C954 C953 1.362 . S
C954 C957 1.409 . S
C955 H947 0.930 . S
C955 C956 1.355 . S
C955 C957 1.415 . S
C956 C955 1.355 . S
C956 C958 1.419 . S
C957 C952 1.425 . S
C957 C954 1.409 . S
C957 C955 1.415 . S
C958 H948 0.930 . S
C958 C956 1.419 . S
C958 C959 1.362 . S
C959 H949 0.930 . S
C959 C952 1.409 . S
C959 C958 1.362 . S
H960 C966 0.930 . S
H961 C969 0.930 . S
H962 C970 0.930 . S
H963 C971 0.930 . S
H964 C974 0.930 . S
H965 C975 0.930 . S
C966 H960 0.930 . S
C966 C967 1.355 . S
C966 C968 1.415 . S
C967 C966 1.355 . S
C967 C969 1.419 . S
C968 C966 1.415 . S
C968 C973 1.425 . S
C968 C975 1.409 . S
C969 H961 0.930 . S
C969 C967 1.419 . S
C969 C970 1.362 . S
C970 H962 0.930 . S
C970 C969 1.362 . S
C970 C973 1.409 . S
C971 H963 0.930 . S
C971 C972 1.355 . S
C971 C973 1.415 . S
C972 C971 1.355 . S
C972 C974 1.419 . S
C973 C968 1.425 . S
C973 C970 1.409 . S
C973 C971 1.415 . S
C974 H964 0.930 . S
C974 C972 1.419 . S
C974 C975 1.362 . S
C975 H965 0.930 . S
C975 C968 1.409 . S
C975 C974 1.362 . S
H976 C982 0.930 . S
H977 C985 0.930 . S
H978 C986 0.930 . S
H979 C987 0.930 . S
H980 C990 0.930 . S
H981 C991 0.930 . S
C982 H976 0.930 . S
C982 C983 1.355 . S
C982 C984 1.415 . S
C983 C982 1.355 . S
C983 C985 1.419 . S
C984 C982 1.415 . S
C984 C989 1.425 . S
C984 C991 1.409 1_455 S
C985 H977 0.930 . S
C985 C983 1.419 . S
C985 C986 1.362 . S
C986 H978 0.930 . S
C986 C985 1.362 . S
C986 C989 1.409 . S
C987 H979 0.930 . S
C987 C988 1.355 . S
C987 C989 1.415 1_655 S
C988 C987 1.355 . S
C988 C990 1.419 . S
C989 C984 1.425 . S
C989 C986 1.409 . S
C989 C987 1.415 1_455 S
C990 H980 0.930 . S
C990 C988 1.419 . S
C990 C991 1.362 . S
C991 H981 0.930 . S
C991 C984 1.409 1_655 S
C991 C990 1.362 . S
H992 C998 0.930 . S
H993 C1001 0.930 . S
H994 C1002 0.930 . S
H995 C1003 0.930 . S
H996 C1006 0.930 . S
H997 C1007 0.930 . S
C998 H992 0.930 . S
C998 C999 1.355 . S
C998 C1000 1.415 . S
C999 C998 1.355 . S
C999 C1001 1.419 . S
C1000 C998 1.415 . S
C1000 C1005 1.425 . S
C1000 C1007 1.409 . S
C1001 H993 0.930 . S
C1001 C999 1.419 . S
C1001 C1002 1.362 . S
C1002 H994 0.930 . S
C1002 C1001 1.362 . S
C1002 C1005 1.409 . S
C1003 H995 0.930 . S
C1003 C1004 1.355 . S
C1003 C1005 1.415 . S
C1004 C1003 1.355 . S
C1004 C1006 1.419 . S
C1005 C1000 1.425 . S
C1005 C1002 1.409 . S
C1005 C1003 1.415 . S
C1006 H996 0.930 . S
C1006 C1004 1.419 . S
C1006 C1007 1.362 . S
C1007 H997 0.930 . S
C1007 C1000 1.409 . S
C1007 C1006 1.362 . S
H1008 C1014 0.930 . S
H1009 C1017 0.930 . S
H1010 C1018 0.930 1_455 S
H1011 C1019 0.930 . S
H1012 C1022 0.930 . S
H1013 C1023 0.930 . S
C1014 H1008 0.930 . S
C1014 C1015 1.355 . S
C1014 C1016 1.415 . S
C1015 C1014 1.355 . S
C1015 C1017 1.419 . S
C1016 C1014 1.415 . S
C1016 C1021 1.446 . S
C1016 C1023 1.409 . S
C1017 H1009 0.930 . S
C1017 C1015 1.419 . S
C1017 C1018 1.362 . S
C1018 H1010 0.930 1_655 S
C1018 C1017 1.362 . S
C1018 C1021 1.414 . S
C1019 H1011 0.930 . S
C1019 C1020 1.355 . S
C1019 C1021 1.390 1_455 S
C1020 C1019 1.355 . S
C1020 C1022 1.419 . S
C1021 C1016 1.446 . S
C1021 C1018 1.414 . S
C1021 C1019 1.390 1_655 S
C1022 H1012 0.930 . S
C1022 C1020 1.419 . S
C1022 C1023 1.362 1_455 S
C1023 H1013 0.930 . S
C1023 C1016 1.409 . S
C1023 C1022 1.362 1_655 S
H1024 C1030 0.930 . S
H1025 C1033 0.930 . S
H1026 C1034 0.930 . S
H1027 C1035 0.930 . S
H1028 C1038 0.930 . S
H1029 C1039 0.930 . S
C1030 H1024 0.930 . S
C1030 C1031 1.355 . S
C1030 C1032 1.415 . S
C1031 C1030 1.355 . S
C1031 C1033 1.419 . S
C1032 C1030 1.415 . S
C1032 C1037 1.425 . S
C1032 C1039 1.409 . S
C1033 H1025 0.930 . S
C1033 C1031 1.419 . S
C1033 C1034 1.362 . S
C1034 H1026 0.930 . S
C1034 C1033 1.362 . S
C1034 C1037 1.409 . S
C1035 H1027 0.930 . S
C1035 C1036 1.355 . S
C1035 C1037 1.415 . S
C1036 C1035 1.355 . S
C1036 C1038 1.419 . S
C1037 C1032 1.425 . S
C1037 C1034 1.409 . S
C1037 C1035 1.415 . S
C1038 H1028 0.930 . S
C1038 C1036 1.419 . S
C1038 C1039 1.362 . S
C1039 H1029 0.930 . S
C1039 C1032 1.409 . S
C1039 C1038 1.362 . S
H1040 C1046 0.930 . S
H1041 C1049 0.930 . S
H1042 C1050 0.930 . S
H1043 C1051 0.930 1_455 S
H1044 C1054 0.930 . S
H1045 C1055 0.930 . S
C1046 H1040 0.930 . S
C1046 C1047 1.355 . S
C1046 C1048 1.415 . S
C1047 C1046 1.355 . S
C1047 C1049 1.419 . S
C1048 C1046 1.415 . S
C1048 C1053 1.425 . S
C1048 C1055 1.409 1_455 S
C1049 H1041 0.930 . S
C1049 C1047 1.419 . S
C1049 C1050 1.362 . S
C1050 H1042 0.930 . S
C1050 C1049 1.362 . S
C1050 C1053 1.409 . S
C1051 H1043 0.930 1_655 S
C1051 C1052 1.355 . S
C1051 C1053 1.415 1_655 S
C1052 C1051 1.355 . S
C1052 C1054 1.419 . S
C1053 C1048 1.425 . S
C1053 C1050 1.409 . S
C1053 C1051 1.415 1_455 S
C1054 H1044 0.930 . S
C1054 C1052 1.419 . S
C1054 C1055 1.362 . S
C1055 H1045 0.930 . S
C1055 C1048 1.409 1_655 S
C1055 C1054 1.362 . S
H1056 C1062 0.930 . S
H1057 C1065 0.930 . S
H1058 C1066 0.930 . S
H1059 C1067 0.930 . S
H1060 C1070 0.930 . S
H1061 C1071 0.930 . S
C1062 H1056 0.930 . S
C1062 C1063 1.355 . S
C1062 C1064 1.415 . S
C1063 C1062 1.355 . S
C1063 C1065 1.419 . S
C1064 C1062 1.415 . S
C1064 C1069 1.425 . S
C1064 C1071 1.409 . S
C1065 H1057 0.930 . S
C1065 C1063 1.419 . S
C1065 C1066 1.362 . S
C1066 H1058 0.930 . S
C1066 C1065 1.362 . S
C1066 C1069 1.409 . S
C1067 H1059 0.930 . S
C1067 C1068 1.355 . S
C1067 C1069 1.415 . S
C1068 C1067 1.355 . S
C1068 C1070 1.419 . S
C1069 C1064 1.425 . S
C1069 C1066 1.409 . S
C1069 C1067 1.415 . S
C1070 H1060 0.930 . S
C1070 C1068 1.419 . S
C1070 C1071 1.362 . S
C1071 H1061 0.930 . S
C1071 C1064 1.409 . S
C1071 C1070 1.362 . S
H1072 C1078 0.930 . S
H1073 C1081 0.930 . S
H1074 C1082 0.930 . S
H1075 C1083 0.930 . S
H1076 C1086 0.930 . S
H1077 C1087 0.930 . S
C1078 H1072 0.930 . S
C1078 C1079 1.355 . S
C1078 C1080 1.415 . S
C1079 C1078 1.355 . S
C1079 C1081 1.419 . S
C1080 C1078 1.415 . S
C1080 C1085 1.425 . S
C1080 C1087 1.409 . S
C1081 H1073 0.930 . S
C1081 C1079 1.419 . S
C1081 C1082 1.362 . S
C1082 H1074 0.930 . S
C1082 C1081 1.362 . S
C1082 C1085 1.409 . S
C1083 H1075 0.930 . S
C1083 C1084 1.355 . S
C1083 C1085 1.415 . S
C1084 C1083 1.355 . S
C1084 C1086 1.419 . S
C1085 C1080 1.425 . S
C1085 C1082 1.409 . S
C1085 C1083 1.415 . S
C1086 H1076 0.930 . S
C1086 C1084 1.419 . S
C1086 C1087 1.362 . S
C1087 H1077 0.930 . S
C1087 C1080 1.409 . S
C1087 C1086 1.362 . S
H1088 C1094 0.930 . S
H1089 C1097 0.900 1_455 S
H1090 C1098 0.930 . S
H1091 C1099 0.930 . S
H1092 C1102 0.930 . S
H1093 C1103 0.930 . S
C1094 H1088 0.930 . S
C1094 C1095 1.355 . S
C1094 C1096 1.415 . S
C1095 C1094 1.355 . S
C1095 C1097 1.419 . S
C1096 C1094 1.415 . S
C1096 C1101 1.425 . S
C1096 C1103 1.409 . S
C1097 H1089 0.900 1_655 S
C1097 C1095 1.419 . S
C1097 C1098 1.362 . S
C1098 H1090 0.930 . S
C1098 C1097 1.362 . S
C1098 C1101 1.409 . S
C1099 H1091 0.930 . S
C1099 C1100 1.355 . S
C1099 C1101 1.415 . S
C1100 C1099 1.355 . S
C1100 C1102 1.419 . S
C1101 C1096 1.425 . S
C1101 C1098 1.409 . S
C1101 C1099 1.415 . S
C1102 H1092 0.930 . S
C1102 C1100 1.419 . S
C1102 C1103 1.362 . S
C1103 H1093 0.930 . S
C1103 C1096 1.409 . S
C1103 C1102 1.362 . S
H1104 C1110 0.930 . S
H1105 C1113 0.930 . S
H1106 C1114 0.930 . S
H1107 C1115 0.930 . S
H1108 C1118 0.930 . S
H1109 C1119 0.930 . S
C1110 H1104 0.930 . S
C1110 C1111 1.355 . S
C1110 C1112 1.415 . S
C1111 C1110 1.355 . S
C1111 C1113 1.419 . S
C1112 C1110 1.415 . S
C1112 C1117 1.425 . S
C1112 C1119 1.409 . S
C1113 H1105 0.930 . S
C1113 C1111 1.419 . S
C1113 C1114 1.362 . S
C1114 H1106 0.930 . S
C1114 C1113 1.362 . S
C1114 C1117 1.409 . S
C1115 H1107 0.930 . S
C1115 C1116 1.355 . S
C1115 C1117 1.415 . S
C1116 C1115 1.355 . S
C1116 C1118 1.419 . S
C1117 C1112 1.425 . S
C1117 C1114 1.409 . S
C1117 C1115 1.415 . S
C1118 H1108 0.930 . S
C1118 C1116 1.419 . S
C1118 C1119 1.362 . S
C1119 H1109 0.930 . S
C1119 C1112 1.409 . S
C1119 C1118 1.362 . S
H1120 C1126 0.930 . S
H1121 C1129 0.930 . S
H1122 C1130 0.930 . S
H1123 C1131 0.930 . S
H1124 C1134 0.930 . S
H1125 C1135 0.930 . S
C1126 H1120 0.930 . S
C1126 C1127 1.355 . S
C1126 C1128 1.415 . S
C1127 C1126 1.355 . S
C1127 C1129 1.419 . S
C1128 C1126 1.415 . S
C1128 C1133 1.425 . S
C1128 C1135 1.409 1_556 S
C1129 H1121 0.930 . S
C1129 C1127 1.419 . S
C1129 C1130 1.362 . S
C1130 H1122 0.930 . S
C1130 C1129 1.362 . S
C1130 C1133 1.409 . S
C1131 H1123 0.930 . S
C1131 C1132 1.355 . S
C1131 C1133 1.415 1_554 S
C1132 C1131 1.355 . S
C1132 C1134 1.419 . S
C1133 C1128 1.425 . S
C1133 C1130 1.409 . S
C1133 C1131 1.415 1_556 S
C1134 H1124 0.930 . S
C1134 C1132 1.419 . S
C1134 C1135 1.362 . S
C1135 H1125 0.930 . S
C1135 C1128 1.409 1_554 S
C1135 C1134 1.362 . S
H1136 C1142 0.930 . S
H1137 C1145 0.930 . S
H1138 C1146 0.930 . S
H1139 C1147 0.930 . S
H1140 C1150 0.930 . S
H1141 C1151 0.930 . S
C1142 H1136 0.930 . S
C1142 C1143 1.355 . S
C1142 C1144 1.415 . S
C1143 C1142 1.355 . S
C1143 C1145 1.419 . S
C1144 C1142 1.415 . S
C1144 C1149 1.425 . S
C1144 C1151 1.409 . S
C1145 H1137 0.930 . S
C1145 C1143 1.419 . S
C1145 C1146 1.362 . S
C1146 H1138 0.930 . S
C1146 C1145 1.362 . S
C1146 C1149 1.409 . S
C1147 H1139 0.930 . S
C1147 C1148 1.355 . S
C1147 C1149 1.415 . S
C1148 C1147 1.355 . S
C1148 C1150 1.419 . S
C1149 C1144 1.425 . S
C1149 C1146 1.409 . S
C1149 C1147 1.415 . S
C1150 H1140 0.930 . S
C1150 C1148 1.419 . S
C1150 C1151 1.362 . S
C1151 H1141 0.930 . S
C1151 C1144 1.409 . S
C1151 C1150 1.362 . S
H1152 C1158 0.930 . S
H1153 C1161 0.930 . S
H1154 C1162 0.930 . S
H1155 C1163 0.930 . S
H1156 C1166 0.930 . S
H1157 C1167 0.930 . S
C1158 H1152 0.930 . S
C1158 C1159 1.355 . S
C1158 C1160 1.415 . S
C1159 C1158 1.355 . S
C1159 C1161 1.419 . S
C1160 C1158 1.415 . S
C1160 C1165 1.425 . S
C1160 C1167 1.409 . S
C1161 H1153 0.930 . S
C1161 C1159 1.419 . S
C1161 C1162 1.362 . S
C1162 H1154 0.930 . S
C1162 C1161 1.362 . S
C1162 C1165 1.409 . S
C1163 H1155 0.930 . S
C1163 C1164 1.355 . S
C1163 C1165 1.415 . S
C1164 C1163 1.355 . S
C1164 C1166 1.419 . S
C1165 C1160 1.425 . S
C1165 C1162 1.409 . S
C1165 C1163 1.415 . S
C1166 H1156 0.930 . S
C1166 C1164 1.419 . S
C1166 C1167 1.362 . S
C1167 H1157 0.930 . S
C1167 C1160 1.409 . S
C1167 C1166 1.362 . S
H1168 C1174 0.930 . S
H1169 C1177 0.930 . S
H1170 C1178 0.930 . S
H1171 C1179 0.930 . S
H1172 C1182 0.930 . S
H1173 C1183 0.930 . S
C1174 H1168 0.930 . S
C1174 C1175 1.355 . S
C1174 C1176 1.415 . S
C1175 C1174 1.355 . S
C1175 C1177 1.419 . S
C1176 C1174 1.415 . S
C1176 C1181 1.425 . S
C1176 C1183 1.409 . S
C1177 H1169 0.930 . S
C1177 C1175 1.419 . S
C1177 C1178 1.362 . S
C1178 H1170 0.930 . S
C1178 C1177 1.362 . S
C1178 C1181 1.409 . S
C1179 H1171 0.930 . S
C1179 C1180 1.355 . S
C1179 C1181 1.415 . S
C1180 C1179 1.355 . S
C1180 C1182 1.419 . S
C1181 C1176 1.425 . S
C1181 C1178 1.409 . S
C1181 C1179 1.415 . S
C1182 H1172 0.930 . S
C1182 C1180 1.419 . S
C1182 C1183 1.362 . S
C1183 H1173 0.930 . S
C1183 C1176 1.409 . S
C1183 C1182 1.362 . S
H1184 C1190 0.930 . S
H1185 C1193 0.930 1_455 S
H1186 C1194 0.922 1_556 S
H1187 C1195 0.930 . S
H1188 C1198 0.933 . S
H1189 C1199 0.930 . S
C1190 H1184 0.930 . S
C1190 C1191 1.355 . S
C1190 C1192 1.415 . S
C1191 C1190 1.355 . S
C1191 C1193 1.419 . S
C1192 C1190 1.415 . S
C1192 C1197 1.425 . S
C1192 C1199 1.409 . S
C1193 H1185 0.930 1_655 S
C1193 C1191 1.419 . S
C1193 C1194 1.362 . S
C1194 H1186 0.922 1_554 S
C1194 C1193 1.362 . S
C1194 C1197 1.409 . S
C1195 H1187 0.930 . S
C1195 C1196 1.355 . S
C1195 C1197 1.415 1_556 S
C1196 C1195 1.355 . S
C1196 C1198 1.433 . S
C1197 C1192 1.425 . S
C1197 C1194 1.409 . S
C1197 C1195 1.415 1_554 S
C1198 H1188 0.933 . S
C1198 C1196 1.433 . S
C1198 C1199 1.346 1_556 S
C1199 H1189 0.930 . S
C1199 C1192 1.409 . S
C1199 C1198 1.346 1_554 S
H1200 C1206 0.930 . S
H1201 C1209 0.930 . S
H1202 C1210 0.930 . S
H1203 C1211 0.930 . S
H1204 C1214 0.930 . S
H1205 C1215 0.930 . S
C1206 H1200 0.930 . S
C1206 C1207 1.355 . S
C1206 C1208 1.415 . S
C1207 C1206 1.355 . S
C1207 C1209 1.419 . S
C1208 C1206 1.415 . S
C1208 C1213 1.425 . S
C1208 C1215 1.409 . S
C1209 H1201 0.930 . S
C1209 C1207 1.419 . S
C1209 C1210 1.362 . S
C1210 H1202 0.930 . S
C1210 C1209 1.362 . S
C1210 C1213 1.409 . S
C1211 H1203 0.930 . S
C1211 C1212 1.355 . S
C1211 C1213 1.415 . S
C1212 C1211 1.355 . S
C1212 C1214 1.419 . S
C1213 C1208 1.425 . S
C1213 C1210 1.409 . S
C1213 C1211 1.415 . S
C1214 H1204 0.930 . S
C1214 C1212 1.419 . S
C1214 C1215 1.362 . S
C1215 H1205 0.930 . S
C1215 C1208 1.409 . S
C1215 C1214 1.362 . S
H1216 C1222 0.930 . S
H1217 C1225 0.930 . S
H1218 C1226 0.930 1_545 S
H1219 C1227 0.930 . S
H1220 C1230 0.930 . S
H1221 C1231 0.930 . S
C1222 H1216 0.930 . S
C1222 C1223 1.355 . S
C1222 C1224 1.415 . S
C1223 C1222 1.355 . S
C1223 C1225 1.419 . S
C1224 C1222 1.415 . S
C1224 C1229 1.425 . S
C1224 C1231 1.409 . S
C1225 H1217 0.930 . S
C1225 C1223 1.419 . S
C1225 C1226 1.362 . S
C1226 H1218 0.930 1_565 S
C1226 C1225 1.362 . S
C1226 C1229 1.409 . S
C1227 H1219 0.930 . S
C1227 C1228 1.355 . S
C1227 C1229 1.415 1_545 S
C1228 C1227 1.355 . S
C1228 C1230 1.419 . S
C1229 C1224 1.425 . S
C1229 C1226 1.409 . S
C1229 C1227 1.415 1_565 S
C1230 H1220 0.930 . S
C1230 C1228 1.419 . S
C1230 C1231 1.362 1_545 S
C1231 H1221 0.930 . S
C1231 C1224 1.409 . S
C1231 C1230 1.362 1_565 S
H1232 C1238 0.930 . S
H1233 C1241 0.930 . S
H1234 C1242 0.930 . S
H1235 C1243 0.930 . S
H1236 C1246 0.930 . S
H1237 C1247 0.930 . S
C1238 H1232 0.930 . S
C1238 C1239 1.355 . S
C1238 C1240 1.415 . S
C1239 C1238 1.355 . S
C1239 C1241 1.419 . S
C1240 C1238 1.415 . S
C1240 C1245 1.425 . S
C1240 C1247 1.409 . S
C1241 H1233 0.930 . S
C1241 C1239 1.419 . S
C1241 C1242 1.362 . S
C1242 H1234 0.930 . S
C1242 C1241 1.362 . S
C1242 C1245 1.409 . S
C1243 H1235 0.930 . S
C1243 C1244 1.355 . S
C1243 C1245 1.415 . S
C1244 C1243 1.355 . S
C1244 C1246 1.419 . S
C1245 C1240 1.425 . S
C1245 C1242 1.409 . S
C1245 C1243 1.415 . S
C1246 H1236 0.930 . S
C1246 C1244 1.419 . S
C1246 C1247 1.362 . S
C1247 H1237 0.930 . S
C1247 C1240 1.409 . S
C1247 C1246 1.362 . S
H1248 C1254 0.930 . S
H1249 C1257 0.930 . S
H1250 C1258 0.930 . S
H1251 C1259 0.930 1_545 S
H1252 C1262 0.930 . S
H1253 C1263 0.930 . S
C1254 H1248 0.930 . S
C1254 C1255 1.355 . S
C1254 C1256 1.415 . S
C1255 C1254 1.355 . S
C1255 C1257 1.419 . S
C1256 C1254 1.415 . S
C1256 C1261 1.425 . S
C1256 C1263 1.409 1_545 S
C1257 H1249 0.930 . S
C1257 C1255 1.419 . S
C1257 C1258 1.362 . S
C1258 H1250 0.930 . S
C1258 C1257 1.362 . S
C1258 C1261 1.409 . S
C1259 H1251 0.930 1_565 S
C1259 C1260 1.355 . S
C1259 C1261 1.415 1_565 S
C1260 C1259 1.355 . S
C1260 C1262 1.419 . S
C1261 C1256 1.425 . S
C1261 C1258 1.409 . S
C1261 C1259 1.415 1_545 S
C1262 H1252 0.930 . S
C1262 C1260 1.419 . S
C1262 C1263 1.362 . S
C1263 H1253 0.930 . S
C1263 C1256 1.409 1_565 S
C1263 C1262 1.362 . S
H1264 C1270 0.930 . S
H1265 C1273 0.930 . S
H1266 C1274 0.930 . S
H1267 C1275 0.930 . S
H1268 C1278 0.930 . S
H1269 C1279 0.930 . S
C1270 H1264 0.930 . S
C1270 C1271 1.355 . S
C1270 C1272 1.415 . S
C1271 C1270 1.355 . S
C1271 C1273 1.419 . S
C1272 C1270 1.415 . S
C1272 C1277 1.425 . S
C1272 C1279 1.409 . S
C1273 H1265 0.930 . S
C1273 C1271 1.419 . S
C1273 C1274 1.362 . S
C1274 H1266 0.930 . S
C1274 C1273 1.362 . S
C1274 C1277 1.409 . S
C1275 H1267 0.930 . S
C1275 C1276 1.355 . S
C1275 C1277 1.415 . S
C1276 C1275 1.355 . S
C1276 C1278 1.419 . S
C1277 C1272 1.425 . S
C1277 C1274 1.409 . S
C1277 C1275 1.415 . S
C1278 H1268 0.930 . S
C1278 C1276 1.419 . S
C1278 C1279 1.362 . S
C1279 H1269 0.930 . S
C1279 C1272 1.409 . S
C1279 C1278 1.362 . S
H1280 C1286 0.930 . S
H1281 C1289 0.930 . S
H1282 C1290 0.930 1_545 S
H1283 C1291 0.930 . S
H1284 C1294 0.930 . S
H1285 C1295 0.930 . S
C1286 H1280 0.930 . S
C1286 C1287 1.355 . S
C1286 C1288 1.415 . S
C1287 C1286 1.355 . S
C1287 C1289 1.419 . S
C1288 C1286 1.415 . S
C1288 C1293 1.425 . S
C1288 C1295 1.409 . S
C1289 H1281 0.930 . S
C1289 C1287 1.419 . S
C1289 C1290 1.362 . S
C1290 H1282 0.930 1_565 S
C1290 C1289 1.362 . S
C1290 C1293 1.409 . S
C1291 H1283 0.930 . S
C1291 C1292 1.355 . S
C1291 C1293 1.415 1_545 S
C1292 C1291 1.355 . S
C1292 C1294 1.419 . S
C1293 C1288 1.425 . S
C1293 C1290 1.409 . S
C1293 C1291 1.415 1_565 S
C1294 H1284 0.930 . S
C1294 C1292 1.419 . S
C1294 C1295 1.362 1_545 S
C1295 H1285 0.930 . S
C1295 C1288 1.409 . S
C1295 C1294 1.362 1_565 S
H1296 C1302 0.930 . S
H1297 C1305 0.930 . S
H1298 C1306 0.930 . S
H1299 C1307 0.930 . S
H1300 C1310 0.930 . S
H1301 C1311 0.930 . S
C1302 H1296 0.930 . S
C1302 C1303 1.355 . S
C1302 C1304 1.415 . S
C1303 C1302 1.355 . S
C1303 C1305 1.419 . S
C1304 C1302 1.415 . S
C1304 C1309 1.425 . S
C1304 C1311 1.409 . S
C1305 H1297 0.930 . S
C1305 C1303 1.419 . S
C1305 C1306 1.362 . S
C1306 H1298 0.930 . S
C1306 C1305 1.362 . S
C1306 C1309 1.409 . S
C1307 H1299 0.930 . S
C1307 C1308 1.355 . S
C1307 C1309 1.415 . S
C1308 C1307 1.355 . S
C1308 C1310 1.419 . S
C1309 C1304 1.425 . S
C1309 C1306 1.409 . S
C1309 C1307 1.415 . S
C1310 H1300 0.930 . S
C1310 C1308 1.419 . S
C1310 C1311 1.362 . S
C1311 H1301 0.930 . S
C1311 C1304 1.409 . S
C1311 C1310 1.362 . S
H1312 C1318 0.930 . S
H1313 C1321 0.930 . S
H1314 C1322 0.930 . S
H1315 C1323 0.925 1_545 S
H1316 C1326 0.930 . S
H1317 C1327 0.930 . S
C1318 H1312 0.930 . S
C1318 C1319 1.355 . S
C1318 C1320 1.415 . S
C1319 C1318 1.355 . S
C1319 C1321 1.419 . S
C1320 C1318 1.415 . S
C1320 C1325 1.425 . S
C1320 C1327 1.409 1_545 S
C1321 H1313 0.930 . S
C1321 C1319 1.419 . S
C1321 C1322 1.362 . S
C1322 H1314 0.930 . S
C1322 C1321 1.362 . S
C1322 C1325 1.409 . S
C1323 H1315 0.925 1_565 S
C1323 C1324 1.355 . S
C1323 C1325 1.415 1_565 S
C1324 C1323 1.355 . S
C1324 C1326 1.419 . S
C1325 C1320 1.425 . S
C1325 C1322 1.409 . S
C1325 C1323 1.415 1_545 S
C1326 H1316 0.930 . S
C1326 C1324 1.419 . S
C1326 C1327 1.362 . S
C1327 H1317 0.930 . S
C1327 C1320 1.409 1_565 S
C1327 C1326 1.362 . S
H1328 C1334 0.930 . S
H1329 C1337 0.930 . S
H1330 C1338 0.930 . S
H1331 C1339 0.930 . S
H1332 C1342 0.930 . S
H1333 C1343 0.930 . S
C1334 H1328 0.930 . S
C1334 C1335 1.355 . S
C1334 C1336 1.415 . S
C1335 C1334 1.355 . S
C1335 C1337 1.419 . S
C1336 C1334 1.415 . S
C1336 C1341 1.425 . S
C1336 C1343 1.409 . S
C1337 H1329 0.930 . S
C1337 C1335 1.419 . S
C1337 C1338 1.362 . S
C1338 H1330 0.930 . S
C1338 C1337 1.362 . S
C1338 C1341 1.409 . S
C1339 H1331 0.930 . S
C1339 C1340 1.355 . S
C1339 C1341 1.415 . S
C1340 C1339 1.355 . S
C1340 C1342 1.419 . S
C1341 C1336 1.425 . S
C1341 C1338 1.409 . S
C1341 C1339 1.415 . S
C1342 H1332 0.930 . S
C1342 C1340 1.419 . S
C1342 C1343 1.362 . S
C1343 H1333 0.930 . S
C1343 C1336 1.409 . S
C1343 C1342 1.362 . S
H1344 C1350 0.930 . S
H1345 C1353 0.930 . S
H1346 C1354 0.930 . S
H1347 C1355 0.930 . S
H1348 C1358 0.930 . S
H1349 C1359 0.930 . S
C1350 H1344 0.930 . S
C1350 C1351 1.355 . S
C1350 C1352 1.415 . S
C1351 C1350 1.355 . S
C1351 C1353 1.419 . S
C1352 C1350 1.415 . S
C1352 C1357 1.425 . S
C1352 C1359 1.409 . S
C1353 H1345 0.930 . S
C1353 C1351 1.419 . S
C1353 C1354 1.362 . S
C1354 H1346 0.930 . S
C1354 C1353 1.362 . S
C1354 C1357 1.409 . S
C1355 H1347 0.930 . S
C1355 C1356 1.355 . S
C1355 C1357 1.415 . S
C1356 C1355 1.355 . S
C1356 C1358 1.419 . S
C1357 C1352 1.425 . S
C1357 C1354 1.409 . S
C1357 C1355 1.415 . S
C1358 H1348 0.930 . S
C1358 C1356 1.419 . S
C1358 C1359 1.362 . S
C1359 H1349 0.930 . S
C1359 C1352 1.409 . S
C1359 C1358 1.362 . S
H1360 C1366 0.930 . S
H1361 C1369 0.930 . S
H1362 C1370 0.930 . S
H1363 C1371 0.930 1_655 S
H1364 C1374 0.930 . S
H1365 C1375 0.930 . S
C1366 H1360 0.930 . S
C1366 C1367 1.355 . S
C1366 C1368 1.415 . S
C1367 C1366 1.355 . S
C1367 C1369 1.419 . S
C1368 C1366 1.415 . S
C1368 C1373 1.425 . S
C1368 C1375 1.409 1_655 S
C1369 H1361 0.930 . S
C1369 C1367 1.419 . S
C1369 C1370 1.362 . S
C1370 H1362 0.930 . S
C1370 C1369 1.362 . S
C1370 C1373 1.409 . S
C1371 H1363 0.930 1_455 S
C1371 C1372 1.355 . S
C1371 C1373 1.415 1_455 S
C1372 C1371 1.355 . S
C1372 C1374 1.419 . S
C1373 C1368 1.425 . S
C1373 C1370 1.409 . S
C1373 C1371 1.415 1_655 S
C1374 H1364 0.930 . S
C1374 C1372 1.419 . S
C1374 C1375 1.362 . S
C1375 H1365 0.930 . S
C1375 C1368 1.409 1_455 S
C1375 C1374 1.362 . S
H1376 C1382 0.930 . S
H1377 C1385 0.930 . S
H1378 C1386 0.930 . S
H1379 C1387 0.930 . S
H1380 C1390 0.930 . S
H1381 C1391 0.930 . S
C1382 H1376 0.930 . S
C1382 C1383 1.355 . S
C1382 C1384 1.415 . S
C1383 C1382 1.355 . S
C1383 C1385 1.419 . S
C1384 C1382 1.415 . S
C1384 C1389 1.425 . S
C1384 C1391 1.409 . S
C1385 H1377 0.930 . S
C1385 C1383 1.419 . S
C1385 C1386 1.362 . S
C1386 H1378 0.930 . S
C1386 C1385 1.362 . S
C1386 C1389 1.409 . S
C1387 H1379 0.930 . S
C1387 C1388 1.355 . S
C1387 C1389 1.415 . S
C1388 C1387 1.355 . S
C1388 C1390 1.419 . S
C1389 C1384 1.425 . S
C1389 C1386 1.409 . S
C1389 C1387 1.415 . S
C1390 H1380 0.930 . S
C1390 C1388 1.419 . S
C1390 C1391 1.362 . S
C1391 H1381 0.930 . S
C1391 C1384 1.409 . S
C1391 C1390 1.362 . S
H1392 C1398 0.930 . S
H1393 C1401 0.930 . S
H1394 C1402 0.930 . S
H1395 C1403 0.930 . S
H1396 C1406 0.930 . S
H1397 C1407 0.930 . S
C1398 H1392 0.930 . S
C1398 C1399 1.355 . S
C1398 C1400 1.415 . S
C1399 C1398 1.355 . S
C1399 C1401 1.419 . S
C1400 C1398 1.415 . S
C1400 C1405 1.425 . S
C1400 C1407 1.409 . S
C1401 H1393 0.930 . S
C1401 C1399 1.419 . S
C1401 C1402 1.362 . S
C1402 H1394 0.930 . S
C1402 C1401 1.362 . S
C1402 C1405 1.409 . S
C1403 H1395 0.930 . S
C1403 C1404 1.355 . S
C1403 C1405 1.415 1_655 S
C1404 C1403 1.355 . S
C1404 C1406 1.419 . S
C1405 C1400 1.425 . S
C1405 C1402 1.409 . S
C1405 C1403 1.415 1_455 S
C1406 H1396 0.930 . S
C1406 C1404 1.419 . S
C1406 C1407 1.362 1_655 S
C1407 H1397 0.930 . S
C1407 C1400 1.409 . S
C1407 C1406 1.362 1_455 S
H1408 C1414 0.930 . S
H1409 C1417 0.930 . S
H1410 C1418 0.930 . S
H1411 C1419 0.930 . S
H1412 C1422 0.930 . S
H1413 C1423 0.930 . S
C1414 H1408 0.930 . S
C1414 C1415 1.355 . S
C1414 C1416 1.415 . S
C1415 C1414 1.355 . S
C1415 C1417 1.419 . S
C1416 C1414 1.415 . S
C1416 C1421 1.425 . S
C1416 C1423 1.409 . S
C1417 H1409 0.930 . S
C1417 C1415 1.419 . S
C1417 C1418 1.362 . S
C1418 H1410 0.930 . S
C1418 C1417 1.362 . S
C1418 C1421 1.409 . S
C1419 H1411 0.930 . S
C1419 C1420 1.355 . S
C1419 C1421 1.415 . S
C1420 C1419 1.355 . S
C1420 C1422 1.419 . S
C1421 C1416 1.425 . S
C1421 C1418 1.409 . S
C1421 C1419 1.415 . S
C1422 H1412 0.930 . S
C1422 C1420 1.419 . S
C1422 C1423 1.362 . S
C1423 H1413 0.930 . S
C1423 C1416 1.409 . S
C1423 C1422 1.362 . S
H1424 C1430 0.930 . S
H1425 C1433 0.930 . S
H1426 C1434 0.930 . S
H1427 C1435 0.930 . S
H1428 C1438 0.930 . S
H1429 C1439 0.930 . S
C1430 H1424 0.930 . S
C1430 C1431 1.355 . S
C1430 C1432 1.415 . S
C1431 C1430 1.355 . S
C1431 C1433 1.419 . S
C1432 C1430 1.415 . S
C1432 C1437 1.425 . S
C1432 C1439 1.409 . S
C1433 H1425 0.930 . S
C1433 C1431 1.419 . S
C1433 C1434 1.362 . S
C1434 H1426 0.930 . S
C1434 C1433 1.362 . S
C1434 C1437 1.409 . S
C1435 H1427 0.930 . S
C1435 C1436 1.355 . S
C1435 C1437 1.415 1_455 S
C1436 C1435 1.355 . S
C1436 C1438 1.419 . S
C1437 C1432 1.425 . S
C1437 C1434 1.409 . S
C1437 C1435 1.415 1_655 S
C1438 H1428 0.930 . S
C1438 C1436 1.419 . S
C1438 C1439 1.362 1_455 S
C1439 H1429 0.930 . S
C1439 C1432 1.409 . S
C1439 C1438 1.362 1_655 S
H1440 C1446 0.930 . S
H1441 C1449 0.930 . S
H1442 C1450 0.930 . S
H1443 C1451 0.930 . S
H1444 C1454 0.930 . S
H1445 C1455 0.930 . S
C1446 H1440 0.930 . S
C1446 C1447 1.355 . S
C1446 C1448 1.415 . S
C1447 C1446 1.355 . S
C1447 C1449 1.419 . S
C1448 C1446 1.415 . S
C1448 C1453 1.425 . S
C1448 C1455 1.409 . S
C1449 H1441 0.930 . S
C1449 C1447 1.419 . S
C1449 C1450 1.362 . S
C1450 H1442 0.930 . S
C1450 C1449 1.362 . S
C1450 C1453 1.409 . S
C1451 H1443 0.930 . S
C1451 C1452 1.355 . S
C1451 C1453 1.415 . S
C1452 C1451 1.355 . S
C1452 C1454 1.419 . S
C1453 C1448 1.425 . S
C1453 C1450 1.409 . S
C1453 C1451 1.415 . S
C1454 H1444 0.930 . S
C1454 C1452 1.419 . S
C1454 C1455 1.362 . S
C1455 H1445 0.930 . S
C1455 C1448 1.409 . S
C1455 C1454 1.362 . S
H1456 C1462 0.930 . S
H1457 C1465 0.930 . S
H1458 C1466 0.930 . S
H1459 C1467 0.930 . S
H1460 C1470 0.930 . S
H1461 C1471 0.930 . S
C1462 H1456 0.930 . S
C1462 C1463 1.355 . S
C1462 C1464 1.415 . S
C1463 C1462 1.355 . S
C1463 C1465 1.419 . S
C1464 C1462 1.415 . S
C1464 C1469 1.425 . S
C1464 C1471 1.409 . S
C1465 H1457 0.930 . S
C1465 C1463 1.419 . S
C1465 C1466 1.362 . S
C1466 H1458 0.930 . S
C1466 C1465 1.362 . S
C1466 C1469 1.409 . S
C1467 H1459 0.930 . S
C1467 C1468 1.355 . S
C1467 C1469 1.415 . S
C1468 C1467 1.355 . S
C1468 C1470 1.419 . S
C1469 C1464 1.425 . S
C1469 C1466 1.409 . S
C1469 C1467 1.415 . S
C1470 H1460 0.930 . S
C1470 C1468 1.419 . S
C1470 C1471 1.362 . S
C1471 H1461 0.930 . S
C1471 C1464 1.409 . S
C1471 C1470 1.362 . S
H1472 C1478 0.930 . S
H1473 C1481 0.930 . S
H1474 C1482 0.930 . S
H1475 C1483 0.933 . S
H1476 C1486 0.930 . S
H1477 C1487 0.930 . S
C1478 H1472 0.930 . S
C1478 C1479 1.355 . S
C1478 C1480 1.415 . S
C1479 C1478 1.355 . S
C1479 C1481 1.419 . S
C1480 C1478 1.415 . S
C1480 C1485 1.425 . S
C1480 C1487 1.409 1_554 S
C1481 H1473 0.930 . S
C1481 C1479 1.419 . S
C1481 C1482 1.362 . S
C1482 H1474 0.930 . S
C1482 C1481 1.362 . S
C1482 C1485 1.409 . S
C1483 H1475 0.933 . S
C1483 C1484 1.337 1_554 S
C1483 C1485 1.429 . S
C1484 C1483 1.337 1_556 S
C1484 C1486 1.419 . S
C1485 C1480 1.425 . S
C1485 C1482 1.409 . S
C1485 C1483 1.429 . S
C1486 H1476 0.930 . S
C1486 C1484 1.419 . S
C1486 C1487 1.362 . S
C1487 H1477 0.930 . S
C1487 C1480 1.409 1_556 S
C1487 C1486 1.362 . S
H1488 C1494 0.930 . S
H1489 C1497 0.930 . S
H1490 C1498 0.930 . S
H1491 C1499 0.930 . S
H1492 C1502 0.930 . S
H1493 C1503 0.930 . S
C1494 H1488 0.930 . S
C1494 C1495 1.355 . S
C1494 C1496 1.415 . S
C1495 C1494 1.355 . S
C1495 C1497 1.419 . S
C1496 C1494 1.415 . S
C1496 C1501 1.425 . S
C1496 C1503 1.409 . S
C1497 H1489 0.930 . S
C1497 C1495 1.419 . S
C1497 C1498 1.362 . S
C1498 H1490 0.930 . S
C1498 C1497 1.362 . S
C1498 C1501 1.409 . S
C1499 H1491 0.930 . S
C1499 C1500 1.355 . S
C1499 C1501 1.415 . S
C1500 C1499 1.355 . S
C1500 C1502 1.419 . S
C1501 C1496 1.425 . S
C1501 C1498 1.409 . S
C1501 C1499 1.415 . S
C1502 H1492 0.930 . S
C1502 C1500 1.419 . S
C1502 C1503 1.362 . S
C1503 H1493 0.930 . S
C1503 C1496 1.409 . S
C1503 C1502 1.362 . S
H1504 C1510 0.930 . S
H1505 C1513 0.930 . S
H1506 C1514 0.930 . S
H1507 C1515 0.930 . S
H1508 C1518 0.930 . S
H1509 C1519 0.930 . S
C1510 H1504 0.930 . S
C1510 C1511 1.355 . S
C1510 C1512 1.415 . S
C1511 C1510 1.355 . S
C1511 C1513 1.419 . S
C1512 C1510 1.415 . S
C1512 C1517 1.425 . S
C1512 C1519 1.409 . S
C1513 H1505 0.930 . S
C1513 C1511 1.419 . S
C1513 C1514 1.362 . S
C1514 H1506 0.930 . S
C1514 C1513 1.362 . S
C1514 C1517 1.409 . S
C1515 H1507 0.930 . S
C1515 C1516 1.355 . S
C1515 C1517 1.415 . S
C1516 C1515 1.355 . S
C1516 C1518 1.419 . S
C1517 C1512 1.425 . S
C1517 C1514 1.409 . S
C1517 C1515 1.415 . S
C1518 H1508 0.930 . S
C1518 C1516 1.419 . S
C1518 C1519 1.362 . S
C1519 H1509 0.930 . S
C1519 C1512 1.409 . S
C1519 C1518 1.362 . S
H1520 C1526 0.930 . S
H1521 C1529 0.930 . S
H1522 C1530 0.930 . S
H1523 C1531 0.930 . S
H1524 C1534 0.930 . S
H1525 C1535 0.930 . S
C1526 H1520 0.930 . S
C1526 C1527 1.355 . S
C1526 C1528 1.415 . S
C1527 C1526 1.355 . S
C1527 C1529 1.419 . S
C1528 C1526 1.415 . S
C1528 C1533 1.425 . S
C1528 C1535 1.409 . S
C1529 H1521 0.930 . S
C1529 C1527 1.419 . S
C1529 C1530 1.362 . S
C1530 H1522 0.930 . S
C1530 C1529 1.362 . S
C1530 C1533 1.409 . S
C1531 H1523 0.930 . S
C1531 C1532 1.355 . S
C1531 C1533 1.415 . S
C1532 C1531 1.355 . S
C1532 C1534 1.419 . S
C1533 C1528 1.425 . S
C1533 C1530 1.409 . S
C1533 C1531 1.415 . S
C1534 H1524 0.930 . S
C1534 C1532 1.419 . S
C1534 C1535 1.362 . S
C1535 H1525 0.930 . S
C1535 C1528 1.409 . S
C1535 C1534 1.362 . S
H1536 C1542 0.930 . S
H1537 C1545 0.930 . S
H1538 C1546 0.930 . S
H1539 C1547 0.930 . S
H1540 C1550 0.930 . S
H1541 C1551 0.930 . S
C1542 H1536 0.930 . S
C1542 C1543 1.355 . S
C1542 C1544 1.415 . S
C1543 C1542 1.355 . S
C1543 C1545 1.419 . S
C1544 C1542 1.415 . S
C1544 C1549 1.425 . S
C1544 C1551 1.409 1_556 S
C1545 H1537 0.930 . S
C1545 C1543 1.419 . S
C1545 C1546 1.362 . S
C1546 H1538 0.930 . S
C1546 C1545 1.362 . S
C1546 C1549 1.409 . S
C1547 H1539 0.930 . S
C1547 C1548 1.355 . S
C1547 C1549 1.415 1_554 S
C1548 C1547 1.355 . S
C1548 C1550 1.419 . S
C1549 C1544 1.425 . S
C1549 C1546 1.409 . S
C1549 C1547 1.415 1_556 S
C1550 H1540 0.930 . S
C1550 C1548 1.419 . S
C1550 C1551 1.362 . S
C1551 H1541 0.930 . S
C1551 C1544 1.409 1_554 S
C1551 C1550 1.362 . S
H1552 C1558 0.930 . S
H1553 C1561 0.930 . S
H1554 C1562 0.930 . S
H1555 C1563 0.930 . S
H1556 C1566 0.930 . S
H1557 C1567 0.930 . S
C1558 H1552 0.930 . S
C1558 C1559 1.355 . S
C1558 C1560 1.415 . S
C1559 C1558 1.355 . S
C1559 C1561 1.419 . S
C1560 C1558 1.415 . S
C1560 C1565 1.425 . S
C1560 C1567 1.409 . S
C1561 H1553 0.930 . S
C1561 C1559 1.419 . S
C1561 C1562 1.362 . S
C1562 H1554 0.930 . S
C1562 C1561 1.362 . S
C1562 C1565 1.409 . S
C1563 H1555 0.930 . S
C1563 C1564 1.355 . S
C1563 C1565 1.415 . S
C1564 C1563 1.355 . S
C1564 C1566 1.419 . S
C1565 C1560 1.425 . S
C1565 C1562 1.409 . S
C1565 C1563 1.415 . S
C1566 H1556 0.930 . S
C1566 C1564 1.419 . S
C1566 C1567 1.362 . S
C1567 H1557 0.930 . S
C1567 C1560 1.409 . S
C1567 C1566 1.362 . S
H1568 C1574 0.930 . S
H1569 C1577 0.930 . S
H1570 C1578 0.930 . S
H1571 C1579 0.930 . S
H1572 C1582 0.930 . S
H1573 C1583 0.930 . S
C1574 H1568 0.930 . S
C1574 C1575 1.355 . S
C1574 C1576 1.415 . S
C1575 C1574 1.355 . S
C1575 C1577 1.419 . S
C1576 C1574 1.415 . S
C1576 C1581 1.425 . S
C1576 C1583 1.409 . S
C1577 H1569 0.930 . S
C1577 C1575 1.419 . S
C1577 C1578 1.362 . S
C1578 H1570 0.930 . S
C1578 C1577 1.362 . S
C1578 C1581 1.409 . S
C1579 H1571 0.930 . S
C1579 C1580 1.355 . S
C1579 C1581 1.415 . S
C1580 C1579 1.355 . S
C1580 C1582 1.419 . S
C1581 C1576 1.425 . S
C1581 C1578 1.409 . S
C1581 C1579 1.415 . S
C1582 H1572 0.930 . S
C1582 C1580 1.419 . S
C1582 C1583 1.362 . S
C1583 H1573 0.930 . S
C1583 C1576 1.409 . S
C1583 C1582 1.362 . S
H1584 C1590 0.930 . S
H1585 C1593 0.930 . S
H1586 C1594 0.930 . S
H1587 C1595 0.930 . S
H1588 C1598 0.930 . S
H1589 C1599 0.930 . S
C1590 H1584 0.930 . S
C1590 C1591 1.355 . S
C1590 C1592 1.415 . S
C1591 C1590 1.355 . S
C1591 C1593 1.419 . S
C1592 C1590 1.415 . S
C1592 C1597 1.425 . S
C1592 C1599 1.409 . S
C1593 H1585 0.930 . S
C1593 C1591 1.419 . S
C1593 C1594 1.362 . S
C1594 H1586 0.930 . S
C1594 C1593 1.362 . S
C1594 C1597 1.409 . S
C1595 H1587 0.930 . S
C1595 C1596 1.355 . S
C1595 C1597 1.415 . S
C1596 C1595 1.355 . S
C1596 C1598 1.419 . S
C1597 C1592 1.425 . S
C1597 C1594 1.409 . S
C1597 C1595 1.415 . S
C1598 H1588 0.930 . S
C1598 C1596 1.419 . S
C1598 C1599 1.362 . S
C1599 H1589 0.930 . S
C1599 C1592 1.409 . S
C1599 C1598 1.362 . S
H1600 C1606 0.930 . S
H1601 C1609 0.930 . S
H1602 C1610 0.930 . S
H1603 C1611 0.930 . S
H1604 C1614 0.930 . S
H1605 C1615 0.930 . S
C1606 H1600 0.930 . S
C1606 C1607 1.355 . S
C1606 C1608 1.415 . S
C1607 C1606 1.355 . S
C1607 C1609 1.419 . S
C1608 C1606 1.415 . S
C1608 C1613 1.425 . S
C1608 C1615 1.409 . S
C1609 H1601 0.930 . S
C1609 C1607 1.419 . S
C1609 C1610 1.362 . S
C1610 H1602 0.930 . S
C1610 C1609 1.362 . S
C1610 C1613 1.409 . S
C1611 H1603 0.930 . S
C1611 C1612 1.355 . S
C1611 C1613 1.415 . S
C1612 C1611 1.355 . S
C1612 C1614 1.419 . S
C1613 C1608 1.425 . S
C1613 C1610 1.409 . S
C1613 C1611 1.415 . S
C1614 H1604 0.930 . S
C1614 C1612 1.419 . S
C1614 C1615 1.362 . S
C1615 H1605 0.930 . S
C1615 C1608 1.409 . S
C1615 C1614 1.362 . S
H1616 C1622 0.930 . S
H1617 C1625 0.930 . S
H1618 C1626 0.930 . S
H1619 C1627 0.930 . S
H1620 C1630 0.930 . S
H1621 C1631 0.930 . S
C1622 H1616 0.930 . S
C1622 C1623 1.355 . S
C1622 C1624 1.415 . S
C1623 C1622 1.355 . S
C1623 C1625 1.419 . S
C1624 C1622 1.415 . S
C1624 C1629 1.425 . S
C1624 C1631 1.409 . S
C1625 H1617 0.930 . S
C1625 C1623 1.419 . S
C1625 C1626 1.362 . S
C1626 H1618 0.930 . S
C1626 C1625 1.362 . S
C1626 C1629 1.409 . S
C1627 H1619 0.930 . S
C1627 C1628 1.355 . S
C1627 C1629 1.415 . S
C1628 C1627 1.355 . S
C1628 C1630 1.419 . S
C1629 C1624 1.425 . S
C1629 C1626 1.409 . S
C1629 C1627 1.415 . S
C1630 H1620 0.930 . S
C1630 C1628 1.419 . S
C1630 C1631 1.362 . S
C1631 H1621 0.930 . S
C1631 C1624 1.409 . S
C1631 C1630 1.362 . S
H1632 C1638 0.930 . S
H1633 C1641 0.930 . S
H1634 C1642 0.930 . S
H1635 C1643 0.930 . S
H1636 C1646 0.930 . S
H1637 C1647 0.930 . S
C1638 H1632 0.930 . S
C1638 C1639 1.355 . S
C1638 C1640 1.415 . S
C1639 C1638 1.355 . S
C1639 C1641 1.419 . S
C1640 C1638 1.415 . S
C1640 C1645 1.425 . S
C1640 C1647 1.409 . S
C1641 H1633 0.930 . S
C1641 C1639 1.419 . S
C1641 C1642 1.362 . S
C1642 H1634 0.930 . S
C1642 C1641 1.362 . S
C1642 C1645 1.409 . S
C1643 H1635 0.930 . S
C1643 C1644 1.355 . S
C1643 C1645 1.415 . S
C1644 C1643 1.355 . S
C1644 C1646 1.419 . S
C1645 C1640 1.425 . S
C1645 C1642 1.409 . S
C1645 C1643 1.415 . S
C1646 H1636 0.930 . S
C1646 C1644 1.419 . S
C1646 C1647 1.362 . S
C1647 H1637 0.930 . S
C1647 C1640 1.409 . S
C1647 C1646 1.362 . S
H1648 C1654 0.930 . S
H1649 C1657 0.930 . S
H1650 C1658 0.930 . S
H1651 C1659 0.930 . S
H1652 C1662 0.930 . S
H1653 C1663 0.930 . S
C1654 H1648 0.930 . S
C1654 C1655 1.355 . S
C1654 C1656 1.415 . S
C1655 C1654 1.355 . S
C1655 C1657 1.419 . S
C1656 C1654 1.415 . S
C1656 C1661 1.425 . S
C1656 C1663 1.409 . S
C1657 H1649 0.930 . S
C1657 C1655 1.419 . S
C1657 C1658 1.362 . S
C1658 H1650 0.930 . S
C1658 C1657 1.362 . S
C1658 C1661 1.409 . S
C1659 H1651 0.930 . S
C1659 C1660 1.355 . S
C1659 C1661 1.415 . S
C1660 C1659 1.355 . S
C1660 C1662 1.419 . S
C1661 C1656 1.425 . S
C1661 C1658 1.409 . S
C1661 C1659 1.415 . S
C1662 H1652 0.930 . S
C1662 C1660 1.419 . S
C1662 C1663 1.362 . S
C1663 H1653 0.930 . S
C1663 C1656 1.409 . S
C1663 C1662 1.362 . S
H1664 C1670 0.930 . S
H1665 C1673 0.930 . S
H1666 C1674 0.930 . S
H1667 C1675 0.930 . S
H1668 C1678 0.930 . S
H1669 C1679 0.930 . S
C1670 H1664 0.930 . S
C1670 C1671 1.355 . S
C1670 C1672 1.415 . S
C1671 C1670 1.355 . S
C1671 C1673 1.419 . S
C1672 C1670 1.415 . S
C1672 C1677 1.425 . S
C1672 C1679 1.409 . S
C1673 H1665 0.930 . S
C1673 C1671 1.419 . S
C1673 C1674 1.362 . S
C1674 H1666 0.930 . S
C1674 C1673 1.362 . S
C1674 C1677 1.409 . S
C1675 H1667 0.930 . S
C1675 C1676 1.355 . S
C1675 C1677 1.415 . S
C1676 C1675 1.355 . S
C1676 C1678 1.419 . S
C1677 C1672 1.425 . S
C1677 C1674 1.409 . S
C1677 C1675 1.415 . S
C1678 H1668 0.930 . S
C1678 C1676 1.419 . S
C1678 C1679 1.362 . S
C1679 H1669 0.930 . S
C1679 C1672 1.409 . S
C1679 C1678 1.362 . S
H1680 C1686 0.930 . S
H1681 C1689 0.930 . S
H1682 C1690 0.930 . S
H1683 C1691 0.930 . S
H1684 C1694 0.930 . S
H1685 C1695 0.930 . S
C1686 H1680 0.930 . S
C1686 C1687 1.355 . S
C1686 C1688 1.415 . S
C1687 C1686 1.355 . S
C1687 C1689 1.419 . S
C1688 C1686 1.415 . S
C1688 C1693 1.425 . S
C1688 C1695 1.409 . S
C1689 H1681 0.930 . S
C1689 C1687 1.419 . S
C1689 C1690 1.362 . S
C1690 H1682 0.930 . S
C1690 C1689 1.362 . S
C1690 C1693 1.409 . S
C1691 H1683 0.930 . S
C1691 C1692 1.355 . S
C1691 C1693 1.415 . S
C1692 C1691 1.355 . S
C1692 C1694 1.419 . S
C1693 C1688 1.425 . S
C1693 C1690 1.409 . S
C1693 C1691 1.415 . S
C1694 H1684 0.930 . S
C1694 C1692 1.419 . S
C1694 C1695 1.362 . S
C1695 H1685 0.930 . S
C1695 C1688 1.409 . S
C1695 C1694 1.362 . S
H1696 C1702 0.930 . S
H1697 C1705 0.930 . S
H1698 C1706 0.930 . S
H1699 C1707 0.930 . S
H1700 C1710 0.930 . S
H1701 C1711 0.930 . S
C1702 H1696 0.930 . S
C1702 C1703 1.355 . S
C1702 C1704 1.415 . S
C1703 C1702 1.355 . S
C1703 C1705 1.419 . S
C1704 C1702 1.415 . S
C1704 C1709 1.425 . S
C1704 C1711 1.409 . S
C1705 H1697 0.930 . S
C1705 C1703 1.419 . S
C1705 C1706 1.362 . S
C1706 H1698 0.930 . S
C1706 C1705 1.362 . S
C1706 C1709 1.409 . S
C1707 H1699 0.930 . S
C1707 C1708 1.355 . S
C1707 C1709 1.415 . S
C1708 C1707 1.355 . S
C1708 C1710 1.419 . S
C1709 C1704 1.425 . S
C1709 C1706 1.409 . S
C1709 C1707 1.415 . S
C1710 H1700 0.930 . S
C1710 C1708 1.419 . S
C1710 C1711 1.362 . S
C1711 H1701 0.930 . S
C1711 C1704 1.409 . S
C1711 C1710 1.362 . S
H1712 C1718 0.930 . S
H1713 C1721 0.930 . S
H1714 C1722 0.930 . S
H1715 C1723 0.930 . S
H1716 C1726 0.930 . S
H1717 C1727 0.930 . S
C1718 H1712 0.930 . S
C1718 C1719 1.355 . S
C1718 C1720 1.415 . S
C1719 C1718 1.355 . S
C1719 C1721 1.419 . S
C1720 C1718 1.415 . S
C1720 C1725 1.425 . S
C1720 C1727 1.409 . S
C1721 H1713 0.930 . S
C1721 C1719 1.419 . S
C1721 C1722 1.362 . S
C1722 H1714 0.930 . S
C1722 C1721 1.362 . S
C1722 C1725 1.409 . S
C1723 H1715 0.930 . S
C1723 C1724 1.355 . S
C1723 C1725 1.415 . S
C1724 C1723 1.355 . S
C1724 C1726 1.419 . S
C1725 C1720 1.425 . S
C1725 C1722 1.409 . S
C1725 C1723 1.415 . S
C1726 H1716 0.930 . S
C1726 C1724 1.419 . S
C1726 C1727 1.362 . S
C1727 H1717 0.930 . S
C1727 C1720 1.409 . S
C1727 C1726 1.362 . S
H1728 C1734 0.930 . S
H1729 C1737 0.930 . S
H1730 C1738 0.930 . S
H1731 C1739 0.930 . S
H1732 C1742 0.930 . S
H1733 C1743 0.930 . S
C1734 H1728 0.930 . S
C1734 C1735 1.355 . S
C1734 C1736 1.415 . S
C1735 C1734 1.355 . S
C1735 C1737 1.419 . S
C1736 C1734 1.415 . S
C1736 C1741 1.425 . S
C1736 C1743 1.409 . S
C1737 H1729 0.930 . S
C1737 C1735 1.419 . S
C1737 C1738 1.362 . S
C1738 H1730 0.930 . S
C1738 C1737 1.362 . S
C1738 C1741 1.409 . S
C1739 H1731 0.930 . S
C1739 C1740 1.355 . S
C1739 C1741 1.415 . S
C1740 C1739 1.355 . S
C1740 C1742 1.419 . S
C1741 C1736 1.425 . S
C1741 C1738 1.409 . S
C1741 C1739 1.415 . S
C1742 H1732 0.930 . S
C1742 C1740 1.419 . S
C1742 C1743 1.362 . S
C1743 H1733 0.930 . S
C1743 C1736 1.409 . S
C1743 C1742 1.362 . S
H1744 C1750 0.930 . S
H1745 C1753 0.930 . S
H1746 C1754 0.930 . S
H1747 C1755 0.930 . S
H1748 C1758 0.930 . S
H1749 C1759 0.930 . S
C1750 H1744 0.930 . S
C1750 C1751 1.355 . S
C1750 C1752 1.415 . S
C1751 C1750 1.355 . S
C1751 C1753 1.419 . S
C1752 C1750 1.415 . S
C1752 C1757 1.425 . S
C1752 C1759 1.409 . S
C1753 H1745 0.930 . S
C1753 C1751 1.419 . S
C1753 C1754 1.362 . S
C1754 H1746 0.930 . S
C1754 C1753 1.362 . S
C1754 C1757 1.409 . S
C1755 H1747 0.930 . S
C1755 C1756 1.355 . S
C1755 C1757 1.415 . S
C1756 C1755 1.355 . S
C1756 C1758 1.419 . S
C1757 C1752 1.425 . S
C1757 C1754 1.409 . S
C1757 C1755 1.415 . S
C1758 H1748 0.930 . S
C1758 C1756 1.419 . S
C1758 C1759 1.362 . S
C1759 H1749 0.930 . S
C1759 C1752 1.409 . S
C1759 C1758 1.362 . S
H1760 C1766 0.930 . S
H1761 C1769 0.930 . S
H1762 C1770 0.930 . S
H1763 C1771 0.930 . S
H1764 C1774 0.930 . S
H1765 C1775 0.930 . S
C1766 H1760 0.930 . S
C1766 C1767 1.355 . S
C1766 C1768 1.415 . S
C1767 C1766 1.355 . S
C1767 C1769 1.419 . S
C1768 C1766 1.415 . S
C1768 C1773 1.425 . S
C1768 C1775 1.409 . S
C1769 H1761 0.930 . S
C1769 C1767 1.419 . S
C1769 C1770 1.362 . S
C1770 H1762 0.930 . S
C1770 C1769 1.362 . S
C1770 C1773 1.409 . S
C1771 H1763 0.930 . S
C1771 C1772 1.355 . S
C1771 C1773 1.415 . S
C1772 C1771 1.355 . S
C1772 C1774 1.419 . S
C1773 C1768 1.425 . S
C1773 C1770 1.409 . S
C1773 C1771 1.415 . S
C1774 H1764 0.930 . S
C1774 C1772 1.419 . S
C1774 C1775 1.362 . S
C1775 H1765 0.930 . S
C1775 C1768 1.409 . S
C1775 C1774 1.362 . S
H1776 C1782 0.930 . S
H1777 C1785 0.930 . S
H1778 C1786 0.930 . S
H1779 C1787 0.930 . S
H1780 C1790 0.930 . S
H1781 C1791 0.930 . S
C1782 H1776 0.930 . S
C1782 C1783 1.355 . S
C1782 C1784 1.415 . S
C1783 C1782 1.355 . S
C1783 C1785 1.419 . S
C1784 C1782 1.415 . S
C1784 C1789 1.425 . S
C1784 C1791 1.409 . S
C1785 H1777 0.930 . S
C1785 C1783 1.419 . S
C1785 C1786 1.362 . S
C1786 H1778 0.930 . S
C1786 C1785 1.362 . S
C1786 C1789 1.409 . S
C1787 H1779 0.930 . S
C1787 C1788 1.355 . S
C1787 C1789 1.415 . S
C1788 C1787 1.355 . S
C1788 C1790 1.419 . S
C1789 C1784 1.425 . S
C1789 C1786 1.409 . S
C1789 C1787 1.415 . S
C1790 H1780 0.930 . S
C1790 C1788 1.419 . S
C1790 C1791 1.362 . S
C1791 H1781 0.930 . S
C1791 C1784 1.409 . S
C1791 C1790 1.362 . S
H1792 C1798 0.930 . S
H1793 C1801 0.930 1_556 S
H1794 C1802 0.930 . S
H1795 C1803 0.930 . S
H1796 C1806 0.930 . S
H1797 C1807 0.930 . S
C1798 H1792 0.930 . S
C1798 C1799 1.355 . S
C1798 C1800 1.415 . S
C1799 C1798 1.355 . S
C1799 C1801 1.419 . S
C1800 C1798 1.415 . S
C1800 C1805 1.425 . S
C1800 C1807 1.409 . S
C1801 H1793 0.930 1_554 S
C1801 C1799 1.419 . S
C1801 C1802 1.362 . S
C1802 H1794 0.930 . S
C1802 C1801 1.362 . S
C1802 C1805 1.409 . S
C1803 H1795 0.930 . S
C1803 C1804 1.355 . S
C1803 C1805 1.415 . S
C1804 C1803 1.355 . S
C1804 C1806 1.419 . S
C1805 C1800 1.425 . S
C1805 C1802 1.409 . S
C1805 C1803 1.415 . S
C1806 H1796 0.930 . S
C1806 C1804 1.419 . S
C1806 C1807 1.362 . S
C1807 H1797 0.930 . S
C1807 C1800 1.409 . S
C1807 C1806 1.362 . S
H1808 C1814 0.930 . S
H1809 C1817 0.930 . S
H1810 C1818 0.930 . S
H1811 C1819 0.930 . S
H1812 C1822 0.930 . S
H1813 C1823 0.930 . S
C1814 H1808 0.930 . S
C1814 C1815 1.355 . S
C1814 C1816 1.415 . S
C1815 C1814 1.355 . S
C1815 C1817 1.419 . S
C1816 C1814 1.415 . S
C1816 C1821 1.425 . S
C1816 C1823 1.409 . S
C1817 H1809 0.930 . S
C1817 C1815 1.419 . S
C1817 C1818 1.362 . S
C1818 H1810 0.930 . S
C1818 C1817 1.362 . S
C1818 C1821 1.409 . S
C1819 H1811 0.930 . S
C1819 C1820 1.355 . S
C1819 C1821 1.415 . S
C1820 C1819 1.355 . S
C1820 C1822 1.419 . S
C1821 C1816 1.425 . S
C1821 C1818 1.409 . S
C1821 C1819 1.415 . S
C1822 H1812 0.930 . S
C1822 C1820 1.419 . S
C1822 C1823 1.362 . S
C1823 H1813 0.930 . S
C1823 C1816 1.409 . S
C1823 C1822 1.362 . S
H1824 C1830 0.930 . S
H1825 C1833 0.930 . S
H1826 C1834 0.930 1_455 S
H1827 C1835 0.930 . S
H1828 C1838 0.930 . S
H1829 C1839 0.930 . S
C1830 H1824 0.930 . S
C1830 C1831 1.355 . S
C1830 C1832 1.415 . S
C1831 C1830 1.355 . S
C1831 C1833 1.419 . S
C1832 C1830 1.415 . S
C1832 C1837 1.421 1_655 S
C1832 C1839 1.409 . S
C1833 H1825 0.930 . S
C1833 C1831 1.419 . S
C1833 C1834 1.362 . S
C1834 H1826 0.930 1_655 S
C1834 C1833 1.362 . S
C1834 C1837 1.409 1_655 S
C1835 H1827 0.930 . S
C1835 C1836 1.355 . S
C1835 C1837 1.419 . S
C1836 C1835 1.355 . S
C1836 C1838 1.419 . S
C1837 C1832 1.421 1_455 S
C1837 C1834 1.409 1_455 S
C1837 C1835 1.419 . S
C1838 H1828 0.930 . S
C1838 C1836 1.419 . S
C1838 C1839 1.362 1_455 S
C1839 H1829 0.930 . S
C1839 C1832 1.409 . S
C1839 C1838 1.362 1_655 S
H1840 C1846 0.930 . S
H1841 C1849 0.930 . S
H1842 C1850 0.930 . S
H1843 C1851 0.930 . S
H1844 C1854 0.930 . S
H1845 C1855 0.930 . S
C1846 H1840 0.930 . S
C1846 C1847 1.355 . S
C1846 C1848 1.415 . S
C1847 C1846 1.355 . S
C1847 C1849 1.419 . S
C1848 C1846 1.415 . S
C1848 C1853 1.425 . S
C1848 C1855 1.409 . S
C1849 H1841 0.930 . S
C1849 C1847 1.419 . S
C1849 C1850 1.362 . S
C1850 H1842 0.930 . S
C1850 C1849 1.362 . S
C1850 C1853 1.409 . S
C1851 H1843 0.930 . S
C1851 C1852 1.355 . S
C1851 C1853 1.415 . S
C1852 C1851 1.355 . S
C1852 C1854 1.419 . S
C1853 C1848 1.425 . S
C1853 C1850 1.409 . S
C1853 C1851 1.415 . S
C1854 H1844 0.930 . S
C1854 C1852 1.419 . S
C1854 C1855 1.362 . S
C1855 H1845 0.930 . S
C1855 C1848 1.409 . S
C1855 C1854 1.362 . S
H1856 C1862 0.930 . S
H1857 C1865 0.930 . S
H1858 C1866 0.944 . S
H1859 C1867 0.930 . S
H1860 C1870 0.930 . S
H1861 C1871 0.930 . S
C1862 H1856 0.930 . S
C1862 C1863 1.355 . S
C1862 C1864 1.415 . S
C1863 C1862 1.355 . S
C1863 C1865 1.419 . S
C1864 C1862 1.415 . S
C1864 C1869 1.425 . S
C1864 C1871 1.409 . S
C1865 H1857 0.930 . S
C1865 C1863 1.419 . S
C1865 C1866 1.362 . S
C1866 H1858 0.944 . S
C1866 C1865 1.362 . S
C1866 C1869 1.409 . S
C1867 H1859 0.930 . S
C1867 C1868 1.355 . S
C1867 C1869 1.415 1_554 S
C1868 C1867 1.355 . S
C1868 C1870 1.419 . S
C1869 C1864 1.425 . S
C1869 C1866 1.409 . S
C1869 C1867 1.415 1_556 S
C1870 H1860 0.930 . S
C1870 C1868 1.419 . S
C1870 C1871 1.362 1_554 S
C1871 H1861 0.930 . S
C1871 C1864 1.409 . S
C1871 C1870 1.362 1_556 S
H1872 C1878 0.930 . S
H1873 C1881 0.930 . S
H1874 C1882 0.930 . S
H1875 C1883 0.930 . S
H1876 C1886 0.930 . S
H1877 C1887 0.930 . S
C1878 H1872 0.930 . S
C1878 C1879 1.355 . S
C1878 C1880 1.415 . S
C1879 C1878 1.355 . S
C1879 C1881 1.419 . S
C1880 C1878 1.415 . S
C1880 C1885 1.425 . S
C1880 C1887 1.409 . S
C1881 H1873 0.930 . S
C1881 C1879 1.419 . S
C1881 C1882 1.362 . S
C1882 H1874 0.930 . S
C1882 C1881 1.362 . S
C1882 C1885 1.409 . S
C1883 H1875 0.930 . S
C1883 C1884 1.355 . S
C1883 C1885 1.415 . S
C1884 C1883 1.355 . S
C1884 C1886 1.419 . S
C1885 C1880 1.425 . S
C1885 C1882 1.409 . S
C1885 C1883 1.415 . S
C1886 H1876 0.930 . S
C1886 C1884 1.419 . S
C1886 C1887 1.362 . S
C1887 H1877 0.930 . S
C1887 C1880 1.409 . S
C1887 C1886 1.362 . S
H1888 C1894 0.930 . S
H1889 C1897 0.930 . S
H1890 C1898 0.930 . S
H1891 C1899 0.930 . S
H1892 C1902 0.930 . S
H1893 C1903 0.930 . S
C1894 H1888 0.930 . S
C1894 C1895 1.355 . S
C1894 C1896 1.415 . S
C1895 C1894 1.355 . S
C1895 C1897 1.419 . S
C1896 C1894 1.415 . S
C1896 C1901 1.425 . S
C1896 C1903 1.409 . S
C1897 H1889 0.930 . S
C1897 C1895 1.419 . S
C1897 C1898 1.362 . S
C1898 H1890 0.930 . S
C1898 C1897 1.362 . S
C1898 C1901 1.409 . S
C1899 H1891 0.930 . S
C1899 C1900 1.355 . S
C1899 C1901 1.415 . S
C1900 C1899 1.355 . S
C1900 C1902 1.419 . S
C1901 C1896 1.425 . S
C1901 C1898 1.409 . S
C1901 C1899 1.415 . S
C1902 H1892 0.930 . S
C1902 C1900 1.419 . S
C1902 C1903 1.362 . S
C1903 H1893 0.930 . S
C1903 C1896 1.409 . S
C1903 C1902 1.362 . S
H1904 C1910 0.930 . S
H1905 C1913 0.930 . S
H1906 C1914 0.930 . S
H1907 C1915 0.930 . S
H1908 C1918 0.930 . S
H1909 C1919 0.930 . S
C1910 H1904 0.930 . S
C1910 C1911 1.355 . S
C1910 C1912 1.415 . S
C1911 C1910 1.355 . S
C1911 C1913 1.419 . S
C1912 C1910 1.415 . S
C1912 C1917 1.425 . S
C1912 C1919 1.409 . S
C1913 H1905 0.930 . S
C1913 C1911 1.419 . S
C1913 C1914 1.362 . S
C1914 H1906 0.930 . S
C1914 C1913 1.362 . S
C1914 C1917 1.409 . S
C1915 H1907 0.930 . S
C1915 C1916 1.355 . S
C1915 C1917 1.415 . S
C1916 C1915 1.355 . S
C1916 C1918 1.419 . S
C1917 C1912 1.425 . S
C1917 C1914 1.409 . S
C1917 C1915 1.415 . S
C1918 H1908 0.930 . S
C1918 C1916 1.419 . S
C1918 C1919 1.362 . S
C1919 H1909 0.930 . S
C1919 C1912 1.409 . S
C1919 C1918 1.362 . S
H1920 C1926 0.930 . S
H1921 C1929 0.930 . S
H1922 C1930 0.930 . S
H1923 C1931 0.930 . S
H1924 C1934 0.930 . S
H1925 C1935 0.930 . S
C1926 H1920 0.930 . S
C1926 C1927 1.355 . S
C1926 C1928 1.415 . S
C1927 C1926 1.355 . S
C1927 C1929 1.419 . S
C1928 C1926 1.415 . S
C1928 C1933 1.425 . S
C1928 C1935 1.409 . S
C1929 H1921 0.930 . S
C1929 C1927 1.419 . S
C1929 C1930 1.362 . S
C1930 H1922 0.930 . S
C1930 C1929 1.362 . S
C1930 C1933 1.409 . S
C1931 H1923 0.930 . S
C1931 C1932 1.355 . S
C1931 C1933 1.415 1_556 S
C1932 C1931 1.355 . S
C1932 C1934 1.419 . S
C1933 C1928 1.425 . S
C1933 C1930 1.409 . S
C1933 C1931 1.415 1_554 S
C1934 H1924 0.930 . S
C1934 C1932 1.419 . S
C1934 C1935 1.362 1_556 S
C1935 H1925 0.930 . S
C1935 C1928 1.409 . S
C1935 C1934 1.362 1_554 S
H1936 C1942 0.930 . S
H1937 C1945 0.930 . S
H1938 C1946 0.930 . S
H1939 C1947 0.930 . S
H1940 C1950 0.930 . S
H1941 C1951 0.930 . S
C1942 H1936 0.930 . S
C1942 C1943 1.355 . S
C1942 C1944 1.415 . S
C1943 C1942 1.355 . S
C1943 C1945 1.419 . S
C1944 C1942 1.415 . S
C1944 C1949 1.425 . S
C1944 C1951 1.409 . S
C1945 H1937 0.930 . S
C1945 C1943 1.419 . S
C1945 C1946 1.362 . S
C1946 H1938 0.930 . S
C1946 C1945 1.362 . S
C1946 C1949 1.409 . S
C1947 H1939 0.930 . S
C1947 C1948 1.355 . S
C1947 C1949 1.415 . S
C1948 C1947 1.355 . S
C1948 C1950 1.419 . S
C1949 C1944 1.425 . S
C1949 C1946 1.409 . S
C1949 C1947 1.415 . S
C1950 H1940 0.930 . S
C1950 C1948 1.419 . S
C1950 C1951 1.362 . S
C1951 H1941 0.930 . S
C1951 C1944 1.409 . S
C1951 C1950 1.362 . S
H1952 C1958 0.930 . S
H1953 C1961 0.930 . S
H1954 C1962 0.930 . S
H1955 C1963 0.930 . S
H1956 C1966 0.930 . S
H1957 C1967 0.930 . S
C1958 H1952 0.930 . S
C1958 C1959 1.355 . S
C1958 C1960 1.415 . S
C1959 C1958 1.355 . S
C1959 C1961 1.419 . S
C1960 C1958 1.415 . S
C1960 C1965 1.425 . S
C1960 C1967 1.409 . S
C1961 H1953 0.930 . S
C1961 C1959 1.419 . S
C1961 C1962 1.362 . S
C1962 H1954 0.930 . S
C1962 C1961 1.362 . S
C1962 C1965 1.409 . S
C1963 H1955 0.930 . S
C1963 C1964 1.355 . S
C1963 C1965 1.415 . S
C1964 C1963 1.355 . S
C1964 C1966 1.419 . S
C1965 C1960 1.425 . S
C1965 C1962 1.409 . S
C1965 C1963 1.415 . S
C1966 H1956 0.930 . S
C1966 C1964 1.419 . S
C1966 C1967 1.362 . S
C1967 H1957 0.930 . S
C1967 C1960 1.409 . S
C1967 C1966 1.362 . S
H1968 C1974 0.930 . S
H1969 C1977 0.930 . S
H1970 C1978 0.930 . S
H1971 C1979 0.930 . S
H1972 C1982 0.930 . S
H1973 C1983 0.930 . S
C1974 H1968 0.930 . S
C1974 C1975 1.355 . S
C1974 C1976 1.415 . S
C1975 C1974 1.355 . S
C1975 C1977 1.419 . S
C1976 C1974 1.415 . S
C1976 C1981 1.425 . S
C1976 C1983 1.409 . S
C1977 H1969 0.930 . S
C1977 C1975 1.419 . S
C1977 C1978 1.362 . S
C1978 H1970 0.930 . S
C1978 C1977 1.362 . S
C1978 C1981 1.409 . S
C1979 H1971 0.930 . S
C1979 C1980 1.355 . S
C1979 C1981 1.415 . S
C1980 C1979 1.355 . S
C1980 C1982 1.419 . S
C1981 C1976 1.425 . S
C1981 C1978 1.409 . S
C1981 C1979 1.415 . S
C1982 H1972 0.930 . S
C1982 C1980 1.419 . S
C1982 C1983 1.362 . S
C1983 H1973 0.930 . S
C1983 C1976 1.409 . S
C1983 C1982 1.362 . S
H1984 C1990 0.930 . S
H1985 C1993 0.930 1_556 S
H1986 C1994 0.930 . S
H1987 C1995 0.930 . S
H1988 C1998 0.930 . S
H1989 C1999 0.930 . S
C1990 H1984 0.930 . S
C1990 C1991 1.355 . S
C1990 C1992 1.415 . S
C1991 C1990 1.355 . S
C1991 C1993 1.419 . S
C1992 C1990 1.415 . S
C1992 C1997 1.425 . S
C1992 C1999 1.409 . S
C1993 H1985 0.930 1_554 S
C1993 C1991 1.419 . S
C1993 C1994 1.362 . S
C1994 H1986 0.930 . S
C1994 C1993 1.362 . S
C1994 C1997 1.409 . S
C1995 H1987 0.930 . S
C1995 C1996 1.355 . S
C1995 C1997 1.415 . S
C1996 C1995 1.355 . S
C1996 C1998 1.419 . S
C1997 C1992 1.425 . S
C1997 C1994 1.409 . S
C1997 C1995 1.415 . S
C1998 H1988 0.930 . S
C1998 C1996 1.419 . S
C1998 C1999 1.362 . S
C1999 H1989 0.930 . S
C1999 C1992 1.409 . S
C1999 C1998 1.362 . S
H2000 C2006 0.930 . S
H2001 C2009 0.930 . S
H2002 C2010 0.930 . S
H2003 C2011 0.930 . S
H2004 C2014 0.930 . S
H2005 C2015 0.930 . S
C2006 H2000 0.930 . S
C2006 C2007 1.355 . S
C2006 C2008 1.415 . S
C2007 C2006 1.355 . S
C2007 C2009 1.419 . S
C2008 C2006 1.415 . S
C2008 C2013 1.425 . S
C2008 C2015 1.409 . S
C2009 H2001 0.930 . S
C2009 C2007 1.419 . S
C2009 C2010 1.362 . S
C2010 H2002 0.930 . S
C2010 C2009 1.362 . S
C2010 C2013 1.409 . S
C2011 H2003 0.930 . S
C2011 C2012 1.355 . S
C2011 C2013 1.415 . S
C2012 C2011 1.355 . S
C2012 C2014 1.419 . S
C2013 C2008 1.425 . S
C2013 C2010 1.409 . S
C2013 C2011 1.415 . S
C2014 H2004 0.930 . S
C2014 C2012 1.419 . S
C2014 C2015 1.362 . S
C2015 H2005 0.930 . S
C2015 C2008 1.409 . S
C2015 C2014 1.362 . S
H2016 C2022 0.930 . S
H2017 C2025 0.930 . S
H2018 C2026 0.930 . S
H2019 C2027 0.930 . S
H2020 C2030 0.930 . S
H2021 C2031 0.930 . S
C2022 H2016 0.930 . S
C2022 C2023 1.355 . S
C2022 C2024 1.415 . S
C2023 C2022 1.355 . S
C2023 C2025 1.419 . S
C2024 C2022 1.415 . S
C2024 C2029 1.425 . S
C2024 C2031 1.409 . S
C2025 H2017 0.930 . S
C2025 C2023 1.419 . S
C2025 C2026 1.362 . S
C2026 H2018 0.930 . S
C2026 C2025 1.362 . S
C2026 C2029 1.409 . S
C2027 H2019 0.930 . S
C2027 C2028 1.355 . S
C2027 C2029 1.415 . S
C2028 C2027 1.355 . S
C2028 C2030 1.419 . S
C2029 C2024 1.425 . S
C2029 C2026 1.409 . S
C2029 C2027 1.415 . S
C2030 H2020 0.930 . S
C2030 C2028 1.419 . S
C2030 C2031 1.362 . S
C2031 H2021 0.930 . S
C2031 C2024 1.409 . S
C2031 C2030 1.362 . S
H2032 C2038 0.930 . S
H2033 C2041 0.930 . S
H2034 C2042 0.930 . S
H2035 C2043 0.930 . S
H2036 C2046 0.930 . S
H2037 C2047 0.930 . S
C2038 H2032 0.930 . S
C2038 C2039 1.355 . S
C2038 C2040 1.415 . S
C2039 C2038 1.355 . S
C2039 C2041 1.419 . S
C2040 C2038 1.415 . S
C2040 C2045 1.425 . S
C2040 C2047 1.409 . S
C2041 H2033 0.930 . S
C2041 C2039 1.419 . S
C2041 C2042 1.362 . S
C2042 H2034 0.930 . S
C2042 C2041 1.362 . S
C2042 C2045 1.409 . S
C2043 H2035 0.930 . S
C2043 C2044 1.355 . S
C2043 C2045 1.415 . S
C2044 C2043 1.355 . S
C2044 C2046 1.419 . S
C2045 C2040 1.425 . S
C2045 C2042 1.409 . S
C2045 C2043 1.415 . S
C2046 H2036 0.930 . S
C2046 C2044 1.419 . S
C2046 C2047 1.362 . S
C2047 H2037 0.930 . S
C2047 C2040 1.409 . S
C2047 C2046 1.362 . S
H2048 C2054 0.930 . S
H2049 C2057 0.930 . S
H2050 C2058 0.930 . S
H2051 C2059 0.930 . S
H2052 C2062 0.930 . S
H2053 C2063 0.930 . S
C2054 H2048 0.930 . S
C2054 C2055 1.355 . S
C2054 C2056 1.415 . S
C2055 C2054 1.355 . S
C2055 C2057 1.419 . S
C2056 C2054 1.415 . S
C2056 C2061 1.425 . S
C2056 C2063 1.409 . S
C2057 H2049 0.930 . S
C2057 C2055 1.419 . S
C2057 C2058 1.362 . S
C2058 H2050 0.930 . S
C2058 C2057 1.362 . S
C2058 C2061 1.409 . S
C2059 H2051 0.930 . S
C2059 C2060 1.355 . S
C2059 C2061 1.415 . S
C2060 C2059 1.355 . S
C2060 C2062 1.419 . S
C2061 C2056 1.425 . S
C2061 C2058 1.409 . S
C2061 C2059 1.415 . S
C2062 H2052 0.930 . S
C2062 C2060 1.419 . S
C2062 C2063 1.362 . S
C2063 H2053 0.930 . S
C2063 C2056 1.409 . S
C2063 C2062 1.362 . S
H2064 C2070 0.930 . S
H2065 C2073 0.930 . S
H2066 C2074 0.930 . S
H2067 C2075 0.930 . S
H2068 C2078 0.930 . S
H2069 C2079 0.930 . S
C2070 H2064 0.930 . S
C2070 C2071 1.355 . S
C2070 C2072 1.415 . S
C2071 C2070 1.355 . S
C2071 C2073 1.419 . S
C2072 C2070 1.415 . S
C2072 C2077 1.425 . S
C2072 C2079 1.409 . S
C2073 H2065 0.930 . S
C2073 C2071 1.419 . S
C2073 C2074 1.362 . S
C2074 H2066 0.930 . S
C2074 C2073 1.362 . S
C2074 C2077 1.409 . S
C2075 H2067 0.930 . S
C2075 C2076 1.355 . S
C2075 C2077 1.415 . S
C2076 C2075 1.355 . S
C2076 C2078 1.419 . S
C2077 C2072 1.425 . S
C2077 C2074 1.409 . S
C2077 C2075 1.415 . S
C2078 H2068 0.930 . S
C2078 C2076 1.419 . S
C2078 C2079 1.362 . S
C2079 H2069 0.930 . S
C2079 C2072 1.409 . S
C2079 C2078 1.362 . S
H2080 C2086 0.930 . S
H2081 C2089 0.930 . S
H2082 C2090 0.930 . S
H2083 C2091 0.930 . S
H2084 C2094 0.930 . S
H2085 C2095 0.930 . S
C2086 H2080 0.930 . S
C2086 C2087 1.355 . S
C2086 C2088 1.415 . S
C2087 C2086 1.355 . S
C2087 C2089 1.419 . S
C2088 C2086 1.415 . S
C2088 C2093 1.425 . S
C2088 C2095 1.409 . S
C2089 H2081 0.930 . S
C2089 C2087 1.419 . S
C2089 C2090 1.362 . S
C2090 H2082 0.930 . S
C2090 C2089 1.362 . S
C2090 C2093 1.409 . S
C2091 H2083 0.930 . S
C2091 C2092 1.355 . S
C2091 C2093 1.415 . S
C2092 C2091 1.355 . S
C2092 C2094 1.419 . S
C2093 C2088 1.425 . S
C2093 C2090 1.409 . S
C2093 C2091 1.415 . S
C2094 H2084 0.930 . S
C2094 C2092 1.419 . S
C2094 C2095 1.362 . S
C2095 H2085 0.930 . S
C2095 C2088 1.409 . S
C2095 C2094 1.362 . S
H2096 C2102 0.930 . S
H2097 C2105 0.930 . S
H2098 C2106 0.930 . S
H2099 C2107 0.930 . S
H2100 C2110 0.930 . S
H2101 C2111 0.930 . S
C2102 H2096 0.930 . S
C2102 C2103 1.355 . S
C2102 C2104 1.415 . S
C2103 C2102 1.355 . S
C2103 C2105 1.419 . S
C2104 C2102 1.415 . S
C2104 C2109 1.425 . S
C2104 C2111 1.409 . S
C2105 H2097 0.930 . S
C2105 C2103 1.419 . S
C2105 C2106 1.362 . S
C2106 H2098 0.930 . S
C2106 C2105 1.362 . S
C2106 C2109 1.409 . S
C2107 H2099 0.930 . S
C2107 C2108 1.355 . S
C2107 C2109 1.415 . S
C2108 C2107 1.355 . S
C2108 C2110 1.419 . S
C2109 C2104 1.425 . S
C2109 C2106 1.409 . S
C2109 C2107 1.415 . S
C2110 H2100 0.930 . S
C2110 C2108 1.419 . S
C2110 C2111 1.362 . S
C2111 H2101 0.930 . S
C2111 C2104 1.409 . S
C2111 C2110 1.362 . S
H2112 C2118 0.930 . S
H2113 C2121 0.930 . S
H2114 C2122 0.930 . S
H2115 C2123 0.930 . S
H2116 C2126 0.930 . S
H2117 C2127 0.930 . S
C2118 H2112 0.930 . S
C2118 C2119 1.355 . S
C2118 C2120 1.415 . S
C2119 C2118 1.355 . S
C2119 C2121 1.419 . S
C2120 C2118 1.415 . S
C2120 C2125 1.425 . S
C2120 C2127 1.409 . S
C2121 H2113 0.930 . S
C2121 C2119 1.419 . S
C2121 C2122 1.362 . S
C2122 H2114 0.930 . S
C2122 C2121 1.362 . S
C2122 C2125 1.409 . S
C2123 H2115 0.930 . S
C2123 C2124 1.355 . S
C2123 C2125 1.415 . S
C2124 C2123 1.355 . S
C2124 C2126 1.419 . S
C2125 C2120 1.425 . S
C2125 C2122 1.409 . S
C2125 C2123 1.415 . S
C2126 H2116 0.930 . S
C2126 C2124 1.419 . S
C2126 C2127 1.362 . S
C2127 H2117 0.930 . S
C2127 C2120 1.409 . S
C2127 C2126 1.362 . S
H2128 C2134 0.930 . S
H2129 C2137 0.930 1_565 S
H2130 C2138 0.930 . S
H2131 C2139 0.930 . S
H2132 C2142 0.930 . S
H2133 C2143 0.930 . S
C2134 H2128 0.930 . S
C2134 C2135 1.355 . S
C2134 C2136 1.415 . S
C2135 C2134 1.355 . S
C2135 C2137 1.419 . S
C2136 C2134 1.415 . S
C2136 C2141 1.425 . S
C2136 C2143 1.409 . S
C2137 H2129 0.930 1_545 S
C2137 C2135 1.419 . S
C2137 C2138 1.362 . S
C2138 H2130 0.930 . S
C2138 C2137 1.362 . S
C2138 C2141 1.409 . S
C2139 H2131 0.930 . S
C2139 C2140 1.355 . S
C2139 C2141 1.415 . S
C2140 C2139 1.355 . S
C2140 C2142 1.419 . S
C2141 C2136 1.425 . S
C2141 C2138 1.409 . S
C2141 C2139 1.415 . S
C2142 H2132 0.930 . S
C2142 C2140 1.419 . S
C2142 C2143 1.362 . S
C2143 H2133 0.930 . S
C2143 C2136 1.409 . S
C2143 C2142 1.362 . S
H2144 C2150 0.930 . S
H2145 C2153 0.930 . S
H2146 C2154 0.930 . S
H2147 C2155 0.930 . S
H2148 C2158 0.930 . S
H2149 C2159 0.930 . S
C2150 H2144 0.930 . S
C2150 C2151 1.355 . S
C2150 C2152 1.415 . S
C2151 C2150 1.355 . S
C2151 C2153 1.419 . S
C2152 C2150 1.415 . S
C2152 C2157 1.425 . S
C2152 C2159 1.409 . S
C2153 H2145 0.930 . S
C2153 C2151 1.419 . S
C2153 C2154 1.362 . S
C2154 H2146 0.930 . S
C2154 C2153 1.362 . S
C2154 C2157 1.409 . S
C2155 H2147 0.930 . S
C2155 C2156 1.355 . S
C2155 C2157 1.415 . S
C2156 C2155 1.355 . S
C2156 C2158 1.419 . S
C2157 C2152 1.425 . S
C2157 C2154 1.409 . S
C2157 C2155 1.415 . S
C2158 H2148 0.930 . S
C2158 C2156 1.419 . S
C2158 C2159 1.362 . S
C2159 H2149 0.930 . S
C2159 C2152 1.409 . S
C2159 C2158 1.362 . S
H2160 C2166 0.930 . S
H2161 C2169 0.930 . S
H2162 C2170 0.930 . S
H2163 C2171 0.930 . S
H2164 C2174 0.930 . S
H2165 C2175 0.930 . S
C2166 H2160 0.930 . S
C2166 C2167 1.355 . S
C2166 C2168 1.415 . S
C2167 C2166 1.355 . S
C2167 C2169 1.419 . S
C2168 C2166 1.415 . S
C2168 C2173 1.425 . S
C2168 C2175 1.409 . S
C2169 H2161 0.930 . S
C2169 C2167 1.419 . S
C2169 C2170 1.362 . S
C2170 H2162 0.930 . S
C2170 C2169 1.362 . S
C2170 C2173 1.409 . S
C2171 H2163 0.930 . S
C2171 C2172 1.355 . S
C2171 C2173 1.415 . S
C2172 C2171 1.355 . S
C2172 C2174 1.419 . S
C2173 C2168 1.425 . S
C2173 C2170 1.409 . S
C2173 C2171 1.415 . S
C2174 H2164 0.930 . S
C2174 C2172 1.419 . S
C2174 C2175 1.362 . S
C2175 H2165 0.930 . S
C2175 C2168 1.409 . S
C2175 C2174 1.362 . S
H2176 C2182 0.930 . S
H2177 C2185 0.930 . S
H2178 C2186 0.930 . S
H2179 C2187 0.930 . S
H2180 C2190 0.930 . S
H2181 C2191 0.930 . S
C2182 H2176 0.930 . S
C2182 C2183 1.355 . S
C2182 C2184 1.415 . S
C2183 C2182 1.355 . S
C2183 C2185 1.419 . S
C2184 C2182 1.415 . S
C2184 C2189 1.425 . S
C2184 C2191 1.409 . S
C2185 H2177 0.930 . S
C2185 C2183 1.419 . S
C2185 C2186 1.362 . S
C2186 H2178 0.930 . S
C2186 C2185 1.362 . S
C2186 C2189 1.409 . S
C2187 H2179 0.930 . S
C2187 C2188 1.355 . S
C2187 C2189 1.415 . S
C2188 C2187 1.355 . S
C2188 C2190 1.419 . S
C2189 C2184 1.425 . S
C2189 C2186 1.409 . S
C2189 C2187 1.415 . S
C2190 H2180 0.930 . S
C2190 C2188 1.419 . S
C2190 C2191 1.362 . S
C2191 H2181 0.930 . S
C2191 C2184 1.409 . S
C2191 C2190 1.362 . S
H2192 C2198 0.930 . S
H2193 C2201 0.930 1_545 S
H2194 C2202 0.930 . S
H2195 C2203 0.930 . S
H2196 C2206 0.930 . S
H2197 C2207 0.930 . S
C2198 H2192 0.930 . S
C2198 C2199 1.355 . S
C2198 C2200 1.415 . S
C2199 C2198 1.355 . S
C2199 C2201 1.419 . S
C2200 C2198 1.415 . S
C2200 C2205 1.425 . S
C2200 C2207 1.409 . S
C2201 H2193 0.930 1_565 S
C2201 C2199 1.419 . S
C2201 C2202 1.362 . S
C2202 H2194 0.930 . S
C2202 C2201 1.362 . S
C2202 C2205 1.409 . S
C2203 H2195 0.930 . S
C2203 C2204 1.355 . S
C2203 C2205 1.415 . S
C2204 C2203 1.355 . S
C2204 C2206 1.419 . S
C2205 C2200 1.425 . S
C2205 C2202 1.409 . S
C2205 C2203 1.415 . S
C2206 H2196 0.930 . S
C2206 C2204 1.419 . S
C2206 C2207 1.362 . S
C2207 H2197 0.930 . S
C2207 C2200 1.409 . S
C2207 C2206 1.362 . S
H2208 C2214 0.930 . S
H2209 C2217 0.930 . S
H2210 C2218 0.930 . S
H2211 C2219 0.934 . S
H2212 C2222 0.930 . S
H2213 C2223 0.930 . S
C2214 H2208 0.930 . S
C2214 C2215 1.355 . S
C2214 C2216 1.415 . S
C2215 C2214 1.355 . S
C2215 C2217 1.419 . S
C2216 C2214 1.415 . S
C2216 C2221 1.425 . S
C2216 C2223 1.409 1_455 S
C2217 H2209 0.930 . S
C2217 C2215 1.419 . S
C2217 C2218 1.362 . S
C2218 H2210 0.930 . S
C2218 C2217 1.362 . S
C2218 C2221 1.409 . S
C2219 H2211 0.934 . S
C2219 C2220 1.355 . S
C2219 C2221 1.415 1_655 S
C2220 C2219 1.355 . S
C2220 C2222 1.419 . S
C2221 C2216 1.425 . S
C2221 C2218 1.409 . S
C2221 C2219 1.415 1_455 S
C2222 H2212 0.930 . S
C2222 C2220 1.419 . S
C2222 C2223 1.362 . S
C2223 H2213 0.930 . S
C2223 C2216 1.409 1_655 S
C2223 C2222 1.362 . S
C700 C354 1.077 . S
C695 C11 1.117 . S
C711 C14 1.181 . S
C716 C366 1.244 . S
C732 C401 1.246 . S
C727 C37 1.306 . S
C748 C410 1.210 . S
C743 C47 1.245 . S
C764 C365 1.173 . S
C759 C61 1.223 . S
C775 C79 1.237 . S
C780 C390 1.265 . S
C796 C409 1.265 . S
C791 C84 1.240 . S
C807 C109 1.113 . S
C812 C351 1.135 . S
C823 C123 1.126 . S
C828 C344 1.176 . S
C844 C368 1.234 . S
C839 C131 1.222 . S
C860 C387 1.295 . S
C855 C140 1.262 . S
C876 C412 1.235 . S
C871 C163 1.253 . S
C892 C373 1.245 . S
C887 C121 1.226 . S
C908 C398 1.249 . S
C903 C126 1.269 . S
C919 C145 1.198 . S
C924 C417 1.214 . S
C940 C357 1.179 . S
C935 C165 1.152 . S
C951 C168 1.187 . S
C956 C346 1.187 . S
C967 C193 1.226 . S
C972 C445 1.217 . S
C988 C461 1.263 . S
C983 C205 1.283 . S
C1004 C475 1.271 . S
C999 C215 1.282 . S
C1015 C224 1.122 . S
C1020 C343 1.162 . S
C1031 C247 1.272 . S
C1036 C395 1.205 . S
C1052 C478 1.158 . S
C1047 C207 1.197 . S
C1068 C442 1.252 . S
C1063 C257 1.300 . S
C1084 C498 1.230 . S
C1079 C23 1.211 . S
C1100 C522 1.147 . S
C1095 C0 1.155 . S
C1111 C53 1.078 . S
C1116 C555 1.142 . S
C1127 C33 1.282 . S
C1132 C563 1.233 . S
C1143 C103 1.286 . S
C1148 C533 1.215 . S
C1159 C95 1.129 . S
C1164 C544 1.071 . S
C1180 C564 1.145 . S
C1175 C70 1.190 . S
C1191 C65 1.227 . S
C1196 C497 1.285 . S
C1207 C271 1.224 . S
C1212 C500 1.268 . S
C1228 C530 1.234 . S
C1223 C219 1.158 . S
C1244 C541 1.120 . S
C1239 C235 1.129 . S
C1260 C571 1.136 . S
C1255 C182 1.212 . S
C1276 C519 1.162 . S
C1271 C266 1.175 . S
C1292 C552 1.113 . S
C1287 C221 1.080 . S
C1308 C566 1.213 . S
C1303 C233 1.190 . S
C1319 C187 1.315 . S
C1324 C505 1.255 . S
C1340 C508 1.151 . S
C1335 C289 1.181 . S
C1351 C154 1.225 . S
C1356 C596 1.229 . S
C1372 C608 1.143 . S
C1367 C299 1.190 . S
C1383 C137 1.171 . S
C1388 C629 1.219 . S
C1404 C511 1.202 . S
C1399 C149 1.230 . S
C1420 C549 1.139 . S
C1415 C313 1.180 . S
C1436 C632 1.196 . S
C1431 C294 1.156 . S
C1447 C333 1.156 . S
C1452 C599 1.191 . S
C1463 C39 1.081 . S
C1468 C654 1.124 . S
C1479 C42 1.246 . S
C1484 C432 1.224 . S
C1500 C456 1.227 . S
C1495 C9 1.242 . S
C1511 C19 1.197 . S
C1516 C486 1.181 . S
C1527 C89 1.236 . S
C1532 C431 1.161 . S
C1543 C107 1.318 . S
C1548 C467 1.252 . S
C1564 C483 1.261 . S
C1559 C56 1.221 . S
C1580 C665 1.071 . S
C1575 C81 1.130 . S
C1596 C662 1.141 . S
C1591 C305 1.091 . S
C1612 C434 1.159 . S
C1607 C285 1.206 . S
C1628 C464 1.328 . S
C1623 C322 1.307 . S
C1639 C317 1.210 . S
C1644 C476 1.272 . S
C1660 C439 1.201 . S
C1655 C303 1.254 . S
C1671 C280 1.225 . S
C1676 C453 1.223 . S
C1692 C489 1.168 . S
C1687 C327 1.181 . S
C1703 C319 1.163 . S
C1708 C651 1.192 . S
C1724 C652 1.172 . S
C1719 C210 1.114 . S
C1735 C249 1.147 . S
C1740 C379 1.162 . S
C1756 C388 1.228 . S
C1751 C275 1.252 . S
C1767 C173 1.222 . S
C1772 C423 1.227 . S
C1788 C659 1.112 . S
C1783 C252 1.157 . S
C1804 C454 1.274 . S
C1799 C191 1.214 . S
C1820 C420 1.212 . S
C1815 C277 1.179 . S
C1836 C376 1.274 . S
C1831 C229 1.244 . S
C1847 C51 1.244 . S
C1852 C673 1.284 . S
C1863 C28 1.168 . S
C1868 C585 1.170 . S
C1879 C25 1.119 . S
C1884 C621 1.094 . S
C1900 C640 1.242 . S
C1895 C5 1.192 . S
C1916 C586 1.227 . S
C1911 C75 1.218 . S
C1927 C67 1.121 . S
C1932 C610 1.095 . S
C1948 C637 1.165 . S
C1943 C98 1.209 . S
C1959 C93 1.230 . S
C1964 C674 1.277 . S
C1980 C681 1.292 . S
C1975 C201 1.271 . S
C1991 C177 1.186 . S
C1996 C593 1.218 . S
C2007 C263 1.090 . S
C2012 C607 1.157 . S
C2028 C630 1.184 . S
C2023 C238 1.110 . S
C2044 C588 1.176 . S
C2039 C196 1.121 . S
C2055 C179 1.062 . S
C2060 C618 1.125 . S
C2076 C643 1.193 . S
C2071 C261 1.245 . S
C2092 C676 1.252 . S
C2087 C243 1.300 . S
C2108 C687 1.225 . S
C2103 C135 1.161 . S
C2124 C527 1.242 . S
C2119 C308 1.273 . S
C2135 C117 1.148 . S
C2140 C542 1.185 . S
C2151 C291 1.171 . S
C2156 C574 1.172 . S
C2172 C684 1.240 . S
C2167 C331 1.175 . S
C2188 C615 1.113 . S
C2183 C159 1.185 . S
C2204 C577 1.237 . S
C2199 C112 1.191 . S
C2220 C520 1.146 . S
C2215 C151 1.169 . S
