# Generated by pormake.
# Topology soc, (4,6)-cn, num edge types: 1
# Building blocks:
#     Node 0, Type 0, BuildingBlock: ESEHIV_clean_sbu_0, # of connection points: 4
#     Node 1, Type 0, BuildingBlock: ESEHIV_clean_sbu_0, # of connection points: 4
#     Node 2, Type 0, BuildingBlock: ESEHIV_clean_sbu_0, # of connection points: 4
#     Node 3, Type 0, BuildingBlock: ESEHIV_clean_sbu_0, # of connection points: 4
#     Node 4, Type 0, BuildingBlock: ESEHIV_clean_sbu_0, # of connection points: 4
#     Node 5, Type 0, BuildingBlock: ESEHIV_clean_sbu_0, # of connection points: 4
#     Node 6, Type 0, BuildingBlock: ESEHIV_clean_sbu_0, # of connection points: 4
#     Node 7, Type 0, BuildingBlock: ESEHIV_clean_sbu_0, # of connection points: 4
#     Node 8, Type 0, BuildingBlock: ESEHIV_clean_sbu_0, # of connection points: 4
#     Node 9, Type 0, BuildingBlock: ESEHIV_clean_sbu_0, # of connection points: 4
#     Node 10, Type 0, BuildingBlock: ESEHIV_clean_sbu_0, # of connection points: 4
#     Node 11, Type 0, BuildingBlock: ESEHIV_clean_sbu_0, # of connection points: 4
#     Node 12, Type 1, BuildingBlock: INOVEN_clean_sbu_0, # of connection points: 6
#     Node 13, Type 1, BuildingBlock: INOVEN_clean_sbu_0, # of connection points: 6
#     Node 14, Type 1, BuildingBlock: INOVEN_clean_sbu_0, # of connection points: 6
#     Node 15, Type 1, BuildingBlock: INOVEN_clean_sbu_0, # of connection points: 6
#     Node 16, Type 1, BuildingBlock: INOVEN_clean_sbu_0, # of connection points: 6
#     Node 17, Type 1, BuildingBlock: INOVEN_clean_sbu_0, # of connection points: 6
#     Node 18, Type 1, BuildingBlock: INOVEN_clean_sbu_0, # of connection points: 6
#     Node 19, Type 1, BuildingBlock: INOVEN_clean_sbu_0, # of connection points: 6
#     Edge 20, Type (0, 1), BuildingBlock: CIFDUS_clean_linker_0, # of connection points: 2
#     Edge 21, Type (0, 1), BuildingBlock: CIFDUS_clean_linker_0, # of connection points: 2
#     Edge 22, Type (0, 1), BuildingBlock: CIFDUS_clean_linker_0, # of connection points: 2
#     Edge 23, Type (0, 1), BuildingBlock: CIFDUS_clean_linker_0, # of connection points: 2
#     Edge 24, Type (0, 1), BuildingBlock: CIFDUS_clean_linker_0, # of connection points: 2
#     Edge 25, Type (0, 1), BuildingBlock: CIFDUS_clean_linker_0, # of connection points: 2
#     Edge 26, Type (0, 1), BuildingBlock: CIFDUS_clean_linker_0, # of connection points: 2
#     Edge 27, Type (0, 1), BuildingBlock: CIFDUS_clean_linker_0, # of connection points: 2
#     Edge 28, Type (0, 1), BuildingBlock: CIFDUS_clean_linker_0, # of connection points: 2
#     Edge 29, Type (0, 1), BuildingBlock: CIFDUS_clean_linker_0, # of connection points: 2
#     Edge 30, Type (0, 1), BuildingBlock: CIFDUS_clean_linker_0, # of connection points: 2
#     Edge 31, Type (0, 1), BuildingBlock: CIFDUS_clean_linker_0, # of connection points: 2
#     Edge 32, Type (0, 1), BuildingBlock: CIFDUS_clean_linker_0, # of connection points: 2
#     Edge 33, Type (0, 1), BuildingBlock: CIFDUS_clean_linker_0, # of connection points: 2
#     Edge 34, Type (0, 1), BuildingBlock: CIFDUS_clean_linker_0, # of connection points: 2
#     Edge 35, Type (0, 1), BuildingBlock: CIFDUS_clean_linker_0, # of connection points: 2
#     Edge 36, Type (0, 1), BuildingBlock: CIFDUS_clean_linker_0, # of connection points: 2
#     Edge 37, Type (0, 1), BuildingBlock: CIFDUS_clean_linker_0, # of connection points: 2
#     Edge 38, Type (0, 1), BuildingBlock: CIFDUS_clean_linker_0, # of connection points: 2
#     Edge 39, Type (0, 1), BuildingBlock: CIFDUS_clean_linker_0, # of connection points: 2
#     Edge 40, Type (0, 1), BuildingBlock: CIFDUS_clean_linker_0, # of connection points: 2
#     Edge 41, Type (0, 1), BuildingBlock: CIFDUS_clean_linker_0, # of connection points: 2
#     Edge 42, Type (0, 1), BuildingBlock: CIFDUS_clean_linker_0, # of connection points: 2
#     Edge 43, Type (0, 1), BuildingBlock: CIFDUS_clean_linker_0, # of connection points: 2
#     Edge 44, Type (0, 1), BuildingBlock: CIFDUS_clean_linker_0, # of connection points: 2
#     Edge 45, Type (0, 1), BuildingBlock: CIFDUS_clean_linker_0, # of connection points: 2
#     Edge 46, Type (0, 1), BuildingBlock: CIFDUS_clean_linker_0, # of connection points: 2
#     Edge 47, Type (0, 1), BuildingBlock: CIFDUS_clean_linker_0, # of connection points: 2
#     Edge 48, Type (0, 1), BuildingBlock: CIFDUS_clean_linker_0, # of connection points: 2
#     Edge 49, Type (0, 1), BuildingBlock: CIFDUS_clean_linker_0, # of connection points: 2
#     Edge 50, Type (0, 1), BuildingBlock: CIFDUS_clean_linker_0, # of connection points: 2
#     Edge 51, Type (0, 1), BuildingBlock: CIFDUS_clean_linker_0, # of connection points: 2
#     Edge 52, Type (0, 1), BuildingBlock: CIFDUS_clean_linker_0, # of connection points: 2
#     Edge 53, Type (0, 1), BuildingBlock: CIFDUS_clean_linker_0, # of connection points: 2
#     Edge 54, Type (0, 1), BuildingBlock: CIFDUS_clean_linker_0, # of connection points: 2
#     Edge 55, Type (0, 1), BuildingBlock: CIFDUS_clean_linker_0, # of connection points: 2
#     Edge 56, Type (0, 1), BuildingBlock: CIFDUS_clean_linker_0, # of connection points: 2
#     Edge 57, Type (0, 1), BuildingBlock: CIFDUS_clean_linker_0, # of connection points: 2
#     Edge 58, Type (0, 1), BuildingBlock: CIFDUS_clean_linker_0, # of connection points: 2
#     Edge 59, Type (0, 1), BuildingBlock: CIFDUS_clean_linker_0, # of connection points: 2
#     Edge 60, Type (0, 1), BuildingBlock: CIFDUS_clean_linker_0, # of connection points: 2
#     Edge 61, Type (0, 1), BuildingBlock: CIFDUS_clean_linker_0, # of connection points: 2
#     Edge 62, Type (0, 1), BuildingBlock: CIFDUS_clean_linker_0, # of connection points: 2
#     Edge 63, Type (0, 1), BuildingBlock: CIFDUS_clean_linker_0, # of connection points: 2
#     Edge 64, Type (0, 1), BuildingBlock: CIFDUS_clean_linker_0, # of connection points: 2
#     Edge 65, Type (0, 1), BuildingBlock: CIFDUS_clean_linker_0, # of connection points: 2
#     Edge 66, Type (0, 1), BuildingBlock: CIFDUS_clean_linker_0, # of connection points: 2
#     Edge 67, Type (0, 1), BuildingBlock: CIFDUS_clean_linker_0, # of connection points: 2
# Relax obj value: 0.189
# Max RMSD: 0.313
# Mean RMSD: 0.181
data_MOF--net-soc--node1-ESEHIV_clean_sbu_0--node2-INOVEN_clean_sbu_0--edge1-CIFDUS_clean_linker_0
_symmetry_space_group_name_H-M    P1
_symmetry_Int_Tables_number       1
_symmetry_cell_setting            triclinic
loop_
_symmetry_equiv_pos_as_xyz
'x, y, z'
_cell_length_a     46.909033
_cell_length_b     44.635148
_cell_length_c     38.688919
_cell_angle_alpha  82.200234
_cell_angle_beta   82.695143
_cell_angle_gamma 69.134326
loop_
_atom_site_label
_atom_site_type_symbol
_atom_site_fract_x
_atom_site_fract_y
_atom_site_fract_z
_atom_type_partial_charge
Cu0 Cu 0.03825 0.0469 0.37923 0.0
N1 N 0.05046 0.07069 0.40668 0.0
N2 N 0.07424 0.10162 0.42201 0.0
C3 C 0.07346 0.08245 0.39822 0.0
C4 C 0.05089 0.10176 0.44637 0.0
C5 C 0.03616 0.08284 0.43672 0.0
O6 O 0.07539 0.01779 0.35415 0.0
C7 C 0.99597 0.10777 0.35028 0.0
O8 O 1.01612 0.1204 0.35589 0.0
H9 H 0.08872 0.0777 0.37459 0.0
H10 H 1.01565 0.07934 0.44985 0.0
N11 N 0.02103 0.01951 0.4076 0.0
N12 N 0.99675 0.98403 0.42073 0.0
C13 C 1.00632 1.00289 0.39517 0.0
C14 C 0.02092 0.01092 0.44232 0.0
C15 C 1.00593 0.98896 0.45051 0.0
C16 C 0.09363 0.9964 0.37449 0.0
O17 O 0.08672 0.9972 0.40842 0.0
H18 H 1.00345 1.00414 0.36764 0.0
H19 H 0.03141 0.01952 0.46032 0.0
O20 O 1.0032 0.07707 0.35404 0.0
H21 H 0.04398 0.11579 0.46865 0.0
H22 H 1.00205 0.97765 0.47637 0.0
Cu23 Cu 0.04671 0.04717 0.76134 0.0
N24 N 0.03221 0.02765 0.7311 0.0
N25 N 1.00792 0.99864 0.71251 0.0
C26 C 1.01479 0.00906 0.74053 0.0
C27 C 0.02159 0.01128 0.68442 0.0
C28 C 0.03651 0.02913 0.69596 0.0
O29 O 1.00983 0.07131 0.79072 0.0
C30 C 0.10477 1.00203 0.75768 0.0
O31 O 0.09949 0.01312 0.72501 0.0
H32 H 1.00769 1.00304 0.76749 0.0
H33 H 0.04964 0.04219 0.67981 0.0
N34 N 0.06112 0.07803 0.73558 0.0
N35 N 0.08725 0.1118 0.7238 0.0
C36 C 0.08421 0.08592 0.74416 0.0
C37 C 0.04913 0.09947 0.70868 0.0
C38 C 0.0654 0.12029 0.70117 0.0
C39 C 1.00344 0.1008 0.79621 0.0
O40 O 0.02526 0.11329 0.7904 0.0
H41 H 0.09778 0.07351 0.76579 0.0
H42 H 0.02913 0.1008 0.69652 0.0
O43 O 0.08321 0.01332 0.78143 0.0
H44 H 0.02061 0.00827 0.65737 0.0
H45 H 0.06047 0.14103 0.68188 0.0
Cu46 Cu 0.3328 0.05914 0.10773 0.0
N47 N 0.36626 0.02892 0.08547 0.0
N48 N 0.39123 0.98432 0.05903 0.0
C49 C 0.36794 0.99881 0.08199 0.0
C50 C 0.40524 1.00593 0.04784 0.0
C51 C 0.39 0.03335 0.06457 0.0
O52 O 0.31177 0.03308 0.13989 0.0
C53 C 0.32599 0.1094 0.05304 0.0
O54 O 0.35165 0.10778 0.06464 0.0
H55 H 0.35069 0.98871 0.09326 0.0
H56 H 0.39483 0.05553 0.05992 0.0
N57 N 0.34779 0.07927 0.13679 0.0
N58 N 0.34964 0.10943 0.17762 0.0
C59 C 0.33149 0.10215 0.15803 0.0
C60 C 0.37719 0.07173 0.14316 0.0
C61 C 0.37843 0.09031 0.16817 0.0
C62 C 0.29767 0.01541 0.13209 0.0
O63 O 0.29102 0.01785 0.0996 0.0
H64 H 0.3068 0.11295 0.15919 0.0
H65 H 0.39635 0.05334 0.13116 0.0
O66 O 0.31152 0.09139 0.06951 0.0
H67 H 0.42365 1.00298 0.02721 0.0
H68 H 0.39892 0.08898 0.17931 0.0
Cu69 Cu 0.07259 0.30896 0.1287 0.0
N70 N 0.09061 0.33058 0.09168 0.0
N71 N 0.12077 0.33581 0.04266 0.0
C72 C 0.10842 0.31615 0.06407 0.0
C73 C 0.11024 0.36386 0.0576 0.0
C74 C 0.09174 0.36056 0.08775 0.0
O75 O 0.10084 0.29668 0.16754 0.0
C76 C 0.04452 0.29286 0.07973 0.0
O77 O 0.03905 0.32385 0.07194 0.0
H78 H 0.11306 0.29116 0.06056 0.0
H79 H 0.08049 0.37852 0.10586 0.0
N80 N 0.03321 0.33286 0.14849 0.0
N81 N 0.98529 0.34036 0.17361 0.0
C82 C 1.01216 0.31899 0.16141 0.0
C83 C 0.01923 0.36434 0.15273 0.0
C84 C 0.9898 0.36901 0.16826 0.0
C85 C 0.13 0.29005 0.16294 0.0
O86 O 0.14352 0.28516 0.1313 0.0
H87 H 1.01673 0.29341 0.16197 0.0
H88 H 0.02953 0.38265 0.14489 0.0
O89 O 0.06123 0.2783 0.10509 0.0
H90 H 0.11556 0.38529 0.04763 0.0
H91 H 0.97291 0.39189 0.17449 0.0
Cu92 Cu 0.79563 0.00965 1.01472 0.0
N93 N 0.82085 0.02619 0.98259 0.0
N94 N 0.83412 0.06475 0.94904 0.0
C95 C 0.81147 0.05705 0.9688 0.0
C96 C 0.85891 0.03752 0.95042 0.0
C97 C 0.85064 0.01369 0.97118 0.0
O98 O 0.77455 0.04506 0.04463 0.0
C99 C 0.77464 0.99224 0.95616 0.0
O100 O 0.78975 0.00952 0.9376 0.0
H101 H 0.78867 0.0739 0.97458 0.0
H102 H 0.86555 0.98941 0.97812 0.0
N103 N 0.81807 0.97554 0.04486 0.0
N104 N 0.82864 0.94313 0.09435 0.0
C105 C 0.80919 0.97034 0.07891 0.0
C106 C 0.8439 0.95058 0.03831 0.0
C107 C 0.85062 0.93062 0.06894 0.0
C108 C 0.79364 0.05363 0.05826 0.0
O109 O 0.82299 0.03757 0.05199 0.0
H110 H 0.78859 0.98609 0.09197 0.0
H111 H 0.85636 0.94648 1.01292 0.0
O112 O 0.77174 0.99197 0.98956 0.0
H113 H 0.88145 0.03509 0.93774 0.0
H114 H 0.86942 0.90797 0.0719 0.0
Cu115 Cu 0.01984 0.80079 1.01336 0.0
N116 N 0.9922 0.81264 0.97756 0.0
N117 N 0.95626 0.81281 0.94366 0.0
C118 C 0.96903 0.80185 0.97465 0.0
C119 C 0.97203 0.8312 0.92653 0.0
C120 C 0.99397 0.83106 0.94733 0.0
O121 O 1.00134 0.78031 0.05641 0.0
C122 C 0.07735 0.79823 0.97333 0.0
O123 O 0.06272 0.82947 0.97094 0.0
H124 H 0.96221 0.78556 0.99447 0.0
H125 H 1.01047 0.84317 0.94051 0.0
N126 N 0.02323 0.83602 0.03159 0.0
N127 N 0.04404 0.85978 0.06357 0.0
C128 C 0.04721 0.83274 0.04934 0.0
C129 C 1.00385 0.86633 0.0348 0.0
C130 C 1.01665 0.88106 0.05475 0.0
C131 C 0.97411 0.79682 0.0688 0.0
O132 O 0.95974 0.82427 0.0511 0.0
H133 H 0.06615 0.81029 0.05296 0.0
H134 H 0.98167 0.8766 0.02444 0.0
O135 O 0.06323 0.77979 0.99043 0.0
H136 H 0.96786 0.8441 0.90084 0.0
H137 H 1.00643 0.90527 0.06255 0.0
Cu138 Cu 0.54564 0.54109 0.85384 0.0
N139 N 0.55469 0.5669 0.88164 0.0
N140 N 0.57297 0.60255 0.89713 0.0
C141 C 0.57248 0.58496 0.87156 0.0
C142 C 0.55474 0.59515 0.92431 0.0
C143 C 0.54344 0.57326 0.91463 0.0
O144 O 0.58553 0.51592 0.82972 0.0
C145 C 0.48532 0.58239 0.84614 0.0
O146 O 0.48404 0.57189 0.8795 0.0
H147 H 0.584 0.58586 0.84557 0.0
H148 H 0.52768 0.56314 0.93034 0.0
N149 N 0.53221 0.51125 0.88322 0.0
N150 N 0.51069 0.47393 0.90099 0.0
C151 C 0.5131 0.49711 0.87567 0.0
C152 C 0.54221 0.49669 0.91436 0.0
C153 C 0.52887 0.47375 0.92549 0.0
C154 C 0.59373 0.48561 0.82694 0.0
O155 O 0.57287 0.47182 0.83297 0.0
H156 H 0.50259 0.50259 0.85118 0.0
H157 H 0.55883 0.50168 0.92746 0.0
O158 O 0.51086 0.57117 0.82762 0.0
H159 H 0.54985 0.60484 0.94943 0.0
H160 H 0.53273 0.45784 0.94948 0.0
Cu161 Cu 0.54389 0.56236 0.27614 0.0
N162 N 0.52462 0.5435 0.25081 0.0
N163 N 0.49498 0.51681 0.23989 0.0
C164 C 0.50599 0.5272 0.26475 0.0
C165 C 0.50726 0.52707 0.2091 0.0
C166 C 0.52549 0.54354 0.21592 0.0
O167 O 0.51022 0.58946 0.30692 0.0
C168 C 0.59905 0.51295 0.27082 0.0
O169 O 0.59207 0.52249 0.23835 0.0
H170 H 0.50098 0.52281 0.29266 0.0
H171 H 0.53845 0.55472 0.19678 0.0
N172 N 0.55977 0.58984 0.24585 0.0
N173 N 0.59022 0.61817 0.22608 0.0
C174 C 0.5858 0.59472 0.24963 0.0
C175 C 0.54716 0.61087 0.21894 0.0
C176 C 0.56595 0.62846 0.20666 0.0
C177 C 0.50443 0.61968 0.30784 0.0
O178 O 0.52571 0.63197 0.2955 0.0
H179 H 0.60035 0.58242 0.27049 0.0
H180 H 0.52533 0.61399 0.2098 0.0
O181 O 0.57977 0.52707 0.29521 0.0
H182 H 0.5031 0.52338 0.18339 0.0
H183 H 0.56176 0.64771 0.1856 0.0
Cu184 Cu 0.79625 0.58636 0.59309 0.0
N185 N 0.8153 0.59413 0.5488 0.0
N186 N 0.82281 0.61587 0.49421 0.0
C187 C 0.80427 0.6189 0.52436 0.0
C188 C 0.84635 0.58805 0.50016 0.0
C189 C 0.84167 0.5748 0.53366 0.0
O190 O 0.79717 0.61689 0.62502 0.0
C191 C 0.73796 0.57795 0.57647 0.0
O192 O 0.70799 0.5912 0.58048 0.0
H193 H 0.78301 0.63862 0.52874 0.0
H194 H 0.85605 0.55202 0.54563 0.0
N195 N 0.81625 0.54475 0.613 0.0
N196 N 0.82455 0.49525 0.6401 0.0
C197 C 0.80343 0.52294 0.62774 0.0
C198 C 0.8464 0.53062 0.61646 0.0
C199 C 0.85164 0.50006 0.63294 0.0
C200 C 0.82035 0.62549 0.62523 0.0
O201 O 0.8442 0.61404 0.6029 0.0
H202 H 0.77903 0.52767 0.63002 0.0
H203 H 0.86337 0.54189 0.60786 0.0
O204 O 0.75349 0.59204 0.58868 0.0
H205 H 0.86529 0.57741 0.48142 0.0
H206 H 0.87375 0.48281 0.63911 0.0
Cu207 Cu 0.5779 0.7966 0.60287 0.0
N208 N 0.59192 0.8177 0.56058 0.0
N209 N 0.6234 0.82342 0.512 0.0
C210 C 0.62143 0.811 0.54613 0.0
C211 C 0.59388 0.83898 0.50513 0.0
C212 C 0.57482 0.83538 0.53466 0.0
O213 O 0.6109 0.7855 0.63524 0.0
C214 C 0.57931 0.75092 0.55692 0.0
O215 O 0.60463 0.75429 0.54116 0.0
H216 H 0.64098 0.7951 0.55954 0.0
H217 H 0.55008 0.84339 0.53632 0.0
N218 N 0.53794 0.81884 0.62568 0.0
N219 N 0.49157 0.82802 0.65732 0.0
C220 C 0.51721 0.80567 0.6432 0.0
C221 C 0.52455 0.85061 0.62858 0.0
C222 C 0.49652 0.85621 0.64798 0.0
C223 C 0.61122 0.80433 0.6574 0.0
O224 O 0.58725 0.83046 0.66172 0.0
H225 H 0.52127 0.78005 0.64645 0.0
H226 H 0.5347 0.86852 0.61781 0.0
O227 O 0.57009 0.76054 0.58727 0.0
H228 H 0.58637 0.85138 0.4801 0.0
H229 H 0.48096 0.8795 0.65498 0.0
Cu230 Cu 0.26764 0.52039 0.53409 0.0
N231 N 0.29087 0.54343 0.5055 0.0
N232 N 0.2991 0.58648 0.47375 0.0
C233 C 0.27811 0.57287 0.48801 0.0
C234 C 0.32622 0.56463 0.48269 0.0
C235 C 0.32112 0.5383 0.50218 0.0
O236 O 0.23919 0.55414 0.56055 0.0
C237 C 0.25481 0.50039 0.47238 0.0
O238 O 0.27166 0.51679 0.45595 0.0
H239 H 0.25364 0.58467 0.4871 0.0
H240 H 0.33825 0.51751 0.51409 0.0
N241 N 0.2881 0.48699 0.56801 0.0
N242 N 0.29384 0.45139 0.61639 0.0
C243 C 0.27403 0.47581 0.59704 0.0
C244 C 0.31791 0.46882 0.56889 0.0
C245 C 0.32151 0.44709 0.59857 0.0
C246 C 0.25434 0.56421 0.57838 0.0
O247 O 0.2839 0.54866 0.57928 0.0
H248 H 0.2496 0.48558 0.60379 0.0
H249 H 0.33579 0.47071 0.54909 0.0
O250 O 0.2487 0.50088 0.50543 0.0
H251 H 0.34827 0.56752 0.47594 0.0
H252 H 0.34285 0.4289 0.60583 0.0
Cu253 Cu 0.51259 0.28139 0.52124 0.0
N254 N 0.5495 0.25632 0.49739 0.0
N255 N 0.59533 0.24506 0.46578 0.0
C256 C 0.57292 0.26681 0.48443 0.0
C257 C 0.58549 0.21983 0.46726 0.0
C258 C 0.55738 0.22684 0.48657 0.0
O259 O 0.52735 0.3101 0.54367 0.0
C260 C 0.45295 0.30176 0.49184 0.0
O261 O 0.44201 0.3 0.52473 0.0
H262 H 0.5729 0.29057 0.48749 0.0
H263 H 0.54334 0.21181 0.49145 0.0
N264 N 0.49641 0.25824 0.55877 0.0
N265 N 0.47023 0.24886 0.60978 0.0
C266 C 0.48 0.27055 0.5882 0.0
C267 C 0.49706 0.22763 0.5618 0.0
C268 C 0.48108 0.22179 0.59304 0.0
C269 C 0.54489 0.29511 0.56813 0.0
O270 O 0.54933 0.26438 0.57663 0.0
H271 H 0.47477 0.29531 0.59315 0.0
H272 H 0.50808 0.21076 0.54253 0.0
O273 O 0.48153 0.29795 0.48521 0.0
H274 H 0.59755 0.19788 0.45493 0.0
H275 H 0.47791 0.19917 0.60262 0.0
Gd276 Gd 0.26953 0.29454 0.35223 0.0
Gd277 Gd 0.30738 0.31773 0.29443 0.0
C278 C 0.32045 0.24388 0.30562 0.0
C279 C 0.2272 0.27552 0.38695 0.0
C280 C 0.20791 0.25672 0.38301 0.0
C281 C 0.21652 0.23379 0.35862 0.0
C282 C 0.18155 0.26017 0.40587 0.0
C283 C 0.17355 0.21637 0.38188 0.0
C284 C 0.16447 0.24027 0.40528 0.0
C285 C 0.19947 0.21375 0.35806 0.0
C286 C 0.31943 0.29598 0.38212 0.0
C287 C 0.2648 0.36773 0.34985 0.0
C288 C 0.34238 0.34209 0.25187 0.0
C289 C 0.36098 0.3629 0.25001 0.0
C290 C 0.34912 0.39391 0.26144 0.0
C291 C 0.39129 0.35154 0.23524 0.0
C292 C 0.39753 0.40223 0.24188 0.0
C293 C 0.4094 0.37088 0.23132 0.0
C294 C 0.36727 0.41342 0.2574 0.0
C295 C 0.2621 0.30215 0.27068 0.0
O296 O 0.29264 0.25157 0.32161 0.0
O297 O 0.33455 0.26505 0.29997 0.0
O298 O 0.2565 0.25925 0.38792 0.0
O299 O 0.22137 0.30365 0.36865 0.0
O300 O 0.29754 0.28691 0.39816 0.0
O301 O 0.31419 0.30354 0.35015 0.0
O302 O 0.28675 0.36159 0.32406 0.0
O303 O 0.25224 0.34624 0.36374 0.0
O304 O 0.31249 0.35553 0.2553 0.0
O305 O 0.35249 0.31411 0.27021 0.0
O306 O 0.28925 0.29751 0.25555 0.0
O307 O 0.25913 0.31679 0.29771 0.0
H308 H 0.23687 0.23081 0.34072 0.0
H309 H 0.17454 0.27782 0.42479 0.0
H310 H 0.14428 0.24341 0.42344 0.0
H311 H 0.20716 0.19552 0.33981 0.0
H312 H 0.32579 0.40322 0.27304 0.0
H313 H 0.40094 0.32766 0.22637 0.0
H314 H 0.43277 0.36123 0.21996 0.0
H315 H 0.35739 0.4375 0.26564 0.0
Gd316 Gd 0.79626 0.31528 0.35691 0.0
Gd317 Gd 0.78086 0.2912 0.29826 0.0
C318 C 0.74242 0.28722 0.37496 0.0
C319 C 0.80875 0.34951 0.39833 0.0
C320 C 0.7958 0.37451 0.4231 0.0
C321 C 0.81395 0.37591 0.4486 0.0
C322 C 0.76687 0.39845 0.42002 0.0
C323 C 0.77494 0.42545 0.46705 0.0
C324 C 0.75656 0.42362 0.44177 0.0
C325 C 0.80369 0.40105 0.47032 0.0
C326 C 0.8335 0.25252 0.34711 0.0
C327 C 0.83247 0.32259 0.28034 0.0
C328 C 0.76741 0.25634 0.2586 0.0
C329 C 0.77441 0.23279 0.23235 0.0
C330 C 0.76139 0.20845 0.23878 0.0
C331 C 0.79162 0.23526 0.20032 0.0
C332 C 0.78269 0.18915 0.18174 0.0
C333 C 0.79579 0.2136 0.17535 0.0
C334 C 0.76542 0.18695 0.21384 0.0
C335 C 0.74619 0.35437 0.30536 0.0
O336 O 0.75318 0.3085 0.38365 0.0
O337 O 0.75298 0.27419 0.34502 0.0
O338 O 0.80751 0.32077 0.40821 0.0
O339 O 0.80397 0.35861 0.36538 0.0
O340 O 0.82293 0.26362 0.37715 0.0
O341 O 0.82389 0.27557 0.32403 0.0
O342 O 0.82397 0.29944 0.27177 0.0
O343 O 0.8204 0.33581 0.30983 0.0
O344 O 0.76709 0.28567 0.24856 0.0
O345 O 0.77617 0.24593 0.29013 0.0
O346 O 0.75711 0.34239 0.27578 0.0
O347 O 0.75352 0.33211 0.32992 0.0
H348 H 0.83642 0.35778 0.45133 0.0
H349 H 0.75254 0.39806 0.40035 0.0
H350 H 0.73445 0.44211 0.43814 0.0
H351 H 0.81829 0.40129 0.48974 0.0
H352 H 0.74776 0.20623 0.26315 0.0
H353 H 0.80163 0.254 0.19447 0.0
H354 H 0.80903 0.21626 0.15082 0.0
H355 H 0.75537 0.16826 0.21999 0.0
Gd356 Gd 0.78965 0.78534 0.27423 0.0
Gd357 Gd 0.82599 0.79997 0.31992 0.0
C358 C 0.75494 0.80294 0.34919 0.0
C359 C 0.76866 0.75953 0.23202 0.0
C360 C 0.74503 0.74539 0.23056 0.0
C361 C 0.72908 0.75296 0.20047 0.0
C362 C 0.73813 0.72464 0.25829 0.0
C363 C 0.69976 0.71885 0.22539 0.0
C364 C 0.71573 0.71134 0.25564 0.0
C365 C 0.70657 0.7399 0.19791 0.0
C366 C 0.78441 0.84856 0.26557 0.0
C367 C 0.8587 0.78449 0.24264 0.0
C368 C 0.84584 0.8262 0.36281 0.0
C369 C 0.86473 0.84576 0.36483 0.0
C370 C 0.86694 0.8543 0.39761 0.0
C371 C 0.88002 0.85644 0.33491 0.0
C372 C 0.89958 0.88441 0.37085 0.0
C373 C 0.89737 0.87567 0.3379 0.0
C374 C 0.88416 0.87347 0.40064 0.0
C375 C 0.8326 0.73679 0.32785 0.0
O376 O 0.75452 0.78989 0.32066 0.0
O377 O 0.77918 0.8106 0.35345 0.0
O378 O 0.75881 0.79044 0.235 0.0
O379 O 0.79161 0.74316 0.25084 0.0
O380 O 0.7616 0.83836 0.26683 0.0
O381 O 0.80832 0.82465 0.2703 0.0
O382 O 0.85848 0.79952 0.27011 0.0
O383 O 0.83589 0.77385 0.24098 0.0
O384 O 0.86012 0.79683 0.35433 0.0
O385 O 0.82015 0.84069 0.34812 0.0
O386 O 0.855 0.74772 0.32553 0.0
O387 O 0.80779 0.76008 0.32431 0.0
H388 H 0.73414 0.76894 0.17882 0.0
H389 H 0.75002 0.7187 0.2819 0.0
H390 H 0.71066 0.69545 0.27737 0.0
H391 H 0.69485 0.74585 0.17419 0.0
H392 H 0.85507 0.84635 0.42091 0.0
H393 H 0.87846 0.85 0.30938 0.0
H394 H 0.90918 0.88351 0.31452 0.0
H395 H 0.8849 0.88023 0.42627 0.0
Gd396 Gd 0.28262 0.80127 0.29933 0.0
Gd397 Gd 0.3184 0.82059 0.35261 0.0
C398 C 0.304 0.86526 0.27873 0.0
C399 C 0.24435 0.79787 0.25879 0.0
C400 C 0.22119 0.81526 0.23347 0.0
C401 C 0.22986 0.82514 0.1989 0.0
C402 C 0.19047 0.81784 0.24248 0.0
C403 C 0.17828 0.83657 0.18214 0.0
C404 C 0.16923 0.8285 0.21717 0.0
C405 C 0.20864 0.8357 0.17356 0.0
C406 C 0.34185 0.76255 0.30506 0.0
C407 C 0.29639 0.75799 0.37351 0.0
C408 C 0.35982 0.82535 0.3879 0.0
C409 C 0.3842 0.80844 0.41184 0.0
C410 C 0.38204 0.82089 0.44384 0.0
C411 C 0.41018 0.78192 0.40297 0.0
C412 C 0.43158 0.78128 0.45775 0.0
C413 C 0.43366 0.76847 0.42574 0.0
C414 C 0.40531 0.80758 0.46643 0.0
C415 C 0.25677 0.85621 0.35828 0.0
O416 O 0.28824 0.84772 0.27104 0.0
O417 O 0.31885 0.85818 0.30745 0.0
O418 O 0.27331 0.79329 0.24872 0.0
O419 O 0.23701 0.8028 0.292 0.0
O420 O 0.32066 0.75301 0.29705 0.0
O421 O 0.33132 0.79281 0.30623 0.0
O422 O 0.3159 0.77251 0.37749 0.0
O423 O 0.27713 0.76858 0.34847 0.0
O424 O 0.33163 0.82947 0.40072 0.0
O425 O 0.36475 0.81998 0.35478 0.0
O426 O 0.27636 0.85859 0.37754 0.0
O427 O 0.27124 0.83458 0.3386 0.0
H428 H 0.25333 0.82342 0.19097 0.0
H429 H 0.18317 0.81005 0.26878 0.0
H430 H 0.14617 0.82854 0.22468 0.0
H431 H 0.21628 0.84216 0.14691 0.0
H432 H 0.36249 0.84158 0.45111 0.0
H433 H 0.41253 0.77185 0.37839 0.0
H434 H 0.45343 0.74813 0.41824 0.0
H435 H 0.40305 0.81869 0.4903 0.0
Gd436 Gd 0.30582 0.79515 0.84137 0.0
Gd437 Gd 0.27917 0.78564 0.78996 0.0
C438 C 0.24201 0.78746 0.86726 0.0
C439 C 0.3368 0.81111 0.88185 0.0
C440 C 0.33828 0.83279 0.90619 0.0
C441 C 0.35935 0.82023 0.93161 0.0
C442 C 0.32319 0.86618 0.9008 0.0
C443 C 0.35318 0.87438 0.94314 0.0
C444 C 0.33059 0.88685 0.91921 0.0
C445 C 0.36675 0.84085 0.95001 0.0
C446 C 0.32745 0.73066 0.83278 0.0
C447 C 0.34112 0.79805 0.76423 0.0
C448 C 0.24909 0.76791 0.74986 0.0
C449 C 0.2501 0.7497 0.72086 0.0
C450 C 0.22238 0.75259 0.70844 0.0
C451 C 0.27771 0.72882 0.70637 0.0
C452 C 0.24952 0.71251 0.66818 0.0
C453 C 0.27743 0.71033 0.6801 0.0
C454 C 0.22204 0.73412 0.68231 0.0
C455 C 0.25656 0.85016 0.7987 0.0
O456 O 0.25974 0.80335 0.87272 0.0
O457 O 0.24846 0.77341 0.83783 0.0
O458 O 0.32286 0.7905 0.8925 0.0
O459 O 0.33315 0.82293 0.84933 0.0
O460 O 0.31623 0.74299 0.86189 0.0
O461 O 0.3241 0.75324 0.80848 0.0
O462 O 0.32458 0.78128 0.75748 0.0
O463 O 0.33375 0.8113 0.79408 0.0
O464 O 0.25639 0.79377 0.74242 0.0
O465 O 0.25921 0.75142 0.77907 0.0
O466 O 0.26731 0.83811 0.76926 0.0
O467 O 0.26119 0.82736 0.82281 0.0
H468 H 0.37142 0.79451 0.93578 0.0
H469 H 0.30685 0.87631 0.88121 0.0
H470 H 0.31934 0.91261 0.91395 0.0
H471 H 0.38431 0.83056 0.96817 0.0
H472 H 0.20087 0.76877 0.71944 0.0
H473 H 0.29928 0.72636 0.71584 0.0
H474 H 0.29893 0.69355 0.66996 0.0
H475 H 0.20029 0.73649 0.6734 0.0
Gd476 Gd 0.28553 0.27145 0.81602 0.0
Gd477 Gd 0.3224 0.28942 0.85279 0.0
C478 C 0.25138 0.30539 0.88261 0.0
C479 C 0.26076 0.24298 0.78109 0.0
C480 C 0.23764 0.22736 0.78306 0.0
C481 C 0.21234 0.24196 0.7632 0.0
C482 C 0.24164 0.197 0.8016 0.0
C483 C 0.19615 0.19553 0.77879 0.0
C484 C 0.22101 0.18126 0.79954 0.0
C485 C 0.19174 0.2263 0.7612 0.0
C486 C 0.28667 0.33162 0.78965 0.0
C487 C 0.35571 0.25791 0.78414 0.0
C488 C 0.34696 0.31763 0.88829 0.0
C489 C 0.36717 0.33657 0.88435 0.0
C490 C 0.3785 0.34085 0.91434 0.0
C491 C 0.37427 0.35143 0.85173 0.0
C492 C 0.40348 0.37551 0.87956 0.0
C493 C 0.39231 0.37086 0.84936 0.0
C494 C 0.39648 0.36015 0.91202 0.0
C495 C 0.32359 0.22854 0.8774 0.0
O496 O 0.25155 0.28325 0.86327 0.0
O497 O 0.275 0.31536 0.87862 0.0
O498 O 0.25058 0.27401 0.78318 0.0
O499 O 0.28574 0.22788 0.79695 0.0
O500 O 0.26231 0.32384 0.79514 0.0
O501 O 0.30895 0.30753 0.79939 0.0
O502 O 0.35462 0.28051 0.80351 0.0
O503 O 0.33301 0.24639 0.78913 0.0
O504 O 0.35951 0.28744 0.88225 0.0
O505 O 0.32029 0.33171 0.87579 0.0
O506 O 0.34726 0.23721 0.86902 0.0
O507 O 0.2998 0.25233 0.87016 0.0
H508 H 0.20886 0.26525 0.74846 0.0
H509 H 0.26108 0.18504 0.81693 0.0
H510 H 0.22513 0.15745 0.81319 0.0
H511 H 0.17254 0.23816 0.74549 0.0
H512 H 0.37301 0.32965 0.93973 0.0
H513 H 0.36562 0.34828 0.82831 0.0
H514 H 0.39755 0.38218 0.82397 0.0
H515 H 0.40429 0.36367 0.93583 0.0
Gd516 Gd 0.78328 0.28834 0.78772 0.0
Gd517 Gd 0.81848 0.30424 0.84154 0.0
C518 C 0.81565 0.34205 0.76633 0.0
C519 C 0.74453 0.28619 0.74614 0.0
C520 C 0.71791 0.29986 0.72406 0.0
C521 C 0.72151 0.29301 0.68894 0.0
C522 C 0.68796 0.31461 0.73914 0.0
C523 C 0.66593 0.31166 0.68601 0.0
C524 C 0.66242 0.32038 0.72042 0.0
C525 C 0.6959 0.299 0.67009 0.0
C526 C 0.84176 0.24618 0.79334 0.0
C527 C 0.7949 0.2438 0.85925 0.0
C528 C 0.85336 0.30832 0.88696 0.0
C529 C 0.87955 0.29405 0.90962 0.0
C530 C 0.87493 0.29927 0.94533 0.0
C531 C 0.90984 0.27998 0.89521 0.0
C532 C 0.93025 0.28014 0.9506 0.0
C533 C 0.93475 0.27311 0.91538 0.0
C534 C 0.89987 0.29228 0.96558 0.0
C535 C 0.75966 0.34597 0.83406 0.0
O536 O 0.79176 0.33382 0.76257 0.0
O537 O 0.83321 0.32878 0.7923 0.0
O538 O 0.77164 0.28745 0.73458 0.0
O539 O 0.73919 0.28635 0.78015 0.0
O540 O 0.81964 0.23875 0.78421 0.0
O541 O 0.83274 0.27625 0.79532 0.0
O542 O 0.81619 0.25571 0.86334 0.0
O543 O 0.77509 0.25681 0.83534 0.0
O544 O 0.82743 0.30329 0.89613 0.0
O545 O 0.85946 0.3114 0.85297 0.0
O546 O 0.78174 0.35432 0.84153 0.0
O547 O 0.76914 0.31577 0.83396 0.0
H548 H 0.74417 0.28126 0.67663 0.0
H549 H 0.68411 0.3202 0.7661 0.0
H550 H 0.63976 0.33052 0.73348 0.0
H551 H 0.6996 0.29174 0.64381 0.0
H552 H 0.85196 0.31043 0.95719 0.0
H553 H 0.91444 0.27559 0.86785 0.0
H554 H 0.95771 0.26331 0.90293 0.0
H555 H 0.89533 0.29828 0.99241 0.0
Gd556 Gd 0.76672 0.79539 0.83094 0.0
Gd557 Gd 0.80303 0.81686 0.77146 0.0
C558 C 0.80012 0.74778 0.7692 0.0
C559 C 0.73012 0.77231 0.87224 0.0
C560 C 0.71244 0.75136 0.87064 0.0
C561 C 0.70053 0.73875 0.90187 0.0
C562 C 0.70777 0.74334 0.83849 0.0
C563 C 0.67922 0.71008 0.86909 0.0
C564 C 0.69129 0.72278 0.83772 0.0
C565 C 0.68406 0.7183 0.90115 0.0
C566 C 0.82111 0.79473 0.84937 0.0
C567 C 0.76867 0.86514 0.83241 0.0
C568 C 0.84041 0.83963 0.73109 0.0
C569 C 0.85898 0.85968 0.734 0.0
C570 C 0.84608 0.8897 0.74767 0.0
C571 C 0.89026 0.84856 0.72276 0.0
C572 C 0.89545 0.89752 0.73787 0.0
C573 C 0.90833 0.8672 0.72473 0.0
C574 C 0.86412 0.90845 0.74953 0.0
C575 C 0.74861 0.81704 0.75351 0.0
O576 O 0.77767 0.75625 0.79428 0.0
O577 O 0.81752 0.76552 0.75921 0.0
O578 O 0.7599 0.75831 0.86981 0.0
O579 O 0.72096 0.80051 0.85405 0.0
O580 O 0.79608 0.80071 0.86972 0.0
O581 O 0.81717 0.78642 0.82066 0.0
O582 O 0.79067 0.857 0.80682 0.0
O583 O 0.75245 0.8465 0.84425 0.0
O584 O 0.81061 0.85379 0.73288 0.0
O585 O 0.84902 0.81093 0.74818 0.0
O586 O 0.77371 0.81041 0.73317 0.0
O587 O 0.7526 0.8261 0.78174 0.0
H588 H 0.70414 0.74459 0.92689 0.0
H589 H 0.71683 0.75295 0.81409 0.0
H590 H 0.68774 0.71711 0.81262 0.0
H591 H 0.67551 0.70851 0.92577 0.0
H592 H 0.82202 0.89886 0.75662 0.0
H593 H 0.90074 0.82539 0.71234 0.0
H594 H 0.93247 0.85776 0.71611 0.0
H595 H 0.85335 0.93179 0.75947 0.0
H596 H 0.09993 0.12594 0.36368 0.0
H597 H 0.09235 0.12027 0.47648 0.0
H598 H 0.12293 0.1549 0.47395 0.0
H599 H 0.15104 0.18744 0.43979 0.0
H600 H 0.15798 0.19416 0.3269 0.0
H601 H 0.1291 0.15774 0.32938 0.0
C602 C 0.10532 0.1319 0.38771 0.0
C603 C 0.09378 0.12055 0.42025 0.0
C604 C 0.12282 0.15198 0.38603 0.0
C605 C 0.10061 0.12898 0.45112 0.0
C606 C 0.11819 0.14869 0.44969 0.0
C607 C 0.14601 0.18121 0.41568 0.0
C608 C 0.15647 0.19376 0.3832 0.0
C609 C 0.12914 0.16058 0.4173 0.0
C610 C 0.15038 0.18473 0.35226 0.0
C611 C 0.13372 0.16403 0.35366 0.0
H612 H 0.97501 0.17132 0.32515 0.0
H613 H 0.94346 0.09333 0.36855 0.0
H614 H 0.89045 0.1307 0.37168 0.0
H615 H 0.85284 0.18688 0.36551 0.0
H616 H 0.88486 0.26358 0.31835 0.0
H617 H 0.9374 0.22576 0.31336 0.0
C618 C 0.95652 0.16236 0.33481 0.0
C619 C 0.96345 0.12942 0.34664 0.0
C620 C 0.92596 0.18401 0.33625 0.0
C621 C 0.93899 0.1184 0.35897 0.0
C622 C 0.90858 0.13989 0.36106 0.0
C623 C 0.87136 0.19515 0.35395 0.0
C624 C 0.86489 0.22812 0.34256 0.0
C625 C 0.90175 0.17293 0.35037 0.0
C626 C 0.88913 0.23841 0.32733 0.0
C627 C 0.91926 0.21676 0.3245 0.0
H628 H 0.96084 0.98956 0.36937 0.0
H629 H 0.99656 0.93017 0.46262 0.0
H630 H 0.97005 0.89366 0.45495 0.0
H631 H 0.93717 0.87836 0.42144 0.0
H632 H 0.90146 0.93792 0.32826 0.0
H633 H 0.92858 0.97399 0.33552 0.0
C634 C 0.96317 0.96846 0.38783 0.0
C635 C 0.98077 0.96266 0.41651 0.0
C636 C 0.94813 0.94741 0.38307 0.0
C637 C 0.98291 0.9355 0.44056 0.0
C638 C 0.96793 0.91445 0.43605 0.0
C639 C 0.93517 0.89934 0.40282 0.0
C640 C 0.91726 0.90544 0.37437 0.0
C641 C 0.95048 0.9202 0.4074 0.0
C642 C 0.91537 0.93242 0.35014 0.0
C643 C 0.93067 0.95321 0.35443 0.0
H644 H 0.1241 0.94071 0.41136 0.0
H645 H 0.12778 0.99324 0.30981 0.0
H646 H 0.17743 0.95217 0.29373 0.0
H647 H 0.22235 0.90328 0.31118 0.0
H648 H 0.2174 0.8536 0.41413 0.0
H649 H 0.16572 0.8912 0.42683 0.0
C650 C 0.13554 0.94327 0.38552 0.0
C651 C 0.12217 0.97043 0.36201 0.0
C652 C 0.164 0.91978 0.3767 0.0
C653 C 0.13738 0.97276 0.32852 0.0
C654 C 0.16589 0.94925 0.31939 0.0
C655 C 0.20949 0.90028 0.33595 0.0
C656 C 0.22348 0.87523 0.36155 0.0
C657 C 0.17976 0.92286 0.34353 0.0
C658 C 0.20698 0.87224 0.3939 0.0
C659 C 0.1775 0.89394 0.40126 0.0
H660 H 0.12501 0.95919 0.81711 0.0
H661 H 0.15545 0.99004 0.71274 0.0
H662 H 0.20501 0.94825 0.71722 0.0
H663 H 0.23927 0.90003 0.74807 0.0
H664 H 0.21116 0.86776 0.85247 0.0
H665 H 0.16217 0.91257 0.8508 0.0
C666 C 0.14261 0.95699 0.79559 0.0
C667 C 0.13587 0.9778 0.7644 0.0
C668 C 0.17184 0.93231 0.79816 0.0
C669 C 0.15933 0.97435 0.73691 0.0
C670 C 0.188 0.95033 0.73937 0.0
C671 C 0.22265 0.90305 0.77072 0.0
C672 C 0.22906 0.88034 0.80024 0.0
C673 C 0.19439 0.92875 0.76948 0.0
C674 C 0.20708 0.88483 0.82934 0.0
C675 C 0.17884 0.91044 0.82831 0.0
H676 H 0.10873 0.1153 0.78386 0.0
H677 H 0.11077 0.14681 0.67342 0.0
H678 H 0.14472 0.17586 0.68079 0.0
H679 H 0.17429 0.19148 0.71854 0.0
H680 H 0.17187 0.16005 0.82909 0.0
H681 H 0.13812 0.1309 0.82156 0.0
C682 C 0.1169 0.12813 0.76128 0.0
C683 C 0.10741 0.1287 0.72805 0.0
C684 C 0.1364 0.14463 0.76574 0.0
C685 C 0.1176 0.14619 0.69927 0.0
C686 C 0.13709 0.16266 0.70346 0.0
C687 C 0.16611 0.17854 0.74107 0.0
C688 C 0.17549 0.17802 0.77436 0.0
C689 C 0.1466 0.16204 0.73659 0.0
C690 C 0.1652 0.16059 0.80315 0.0
C691 C 0.1458 0.14407 0.79889 0.0
H692 H 0.9826 0.16507 0.80557 0.0
H693 H 0.95054 0.08687 0.79839 0.0
H694 H 0.89785 0.1247 0.79835 0.0
H695 H 0.86112 0.18068 0.79573 0.0
H696 H 0.89317 0.25877 0.80286 0.0
H697 H 0.94541 0.22041 0.80755 0.0
C698 C 0.96411 0.1561 0.80446 0.0
C699 C 0.97087 0.1229 0.80183 0.0
C700 C 0.93377 0.17816 0.80395 0.0
C701 C 0.94632 0.11207 0.8005 0.0
C702 C 0.91609 0.13381 0.80024 0.0
C703 C 0.87954 0.18931 0.79838 0.0
C704 C 0.87325 0.22272 0.79834 0.0
C705 C 0.9096 0.167 0.80114 0.0
C706 C 0.89734 0.23334 0.80243 0.0
C707 C 0.92725 0.21134 0.80513 0.0
H708 H 0.96436 0.99072 0.76223 0.0
H709 H 1.0107 0.96037 0.6625 0.0
H710 H 0.9798 0.92679 0.66149 0.0
H711 H 0.93938 0.90628 0.68849 0.0
H712 H 0.8943 0.93472 0.7893 0.0
H713 H 0.92494 0.96879 0.79023 0.0
C714 C 0.968 0.97652 0.74045 0.0
C715 C 0.98988 0.9783 0.71244 0.0
C716 C 0.95027 0.95695 0.74013 0.0
C717 C 0.99379 0.96 0.68418 0.0
C718 C 0.97622 0.94057 0.68365 0.0
C719 C 0.93649 0.91958 0.71091 0.0
C720 C 0.91452 0.91786 0.73878 0.0
C721 C 0.95437 0.9389 0.71144 0.0
C722 C 0.91073 0.93585 0.76726 0.0
C723 C 0.92839 0.95522 0.76792 0.0
H724 H 0.38418 0.13853 0.20091 0.0
H725 H 0.29399 0.1313 0.21414 0.0
H726 H 0.27796 0.17016 0.25756 0.0
H727 H 0.28881 0.20778 0.28999 0.0
H728 H 0.37863 0.21592 0.27608 0.0
H729 H 0.39585 0.17413 0.23564 0.0
C730 C 0.36115 0.14501 0.21359 0.0
C731 C 0.34035 0.13195 0.20394 0.0
C732 C 0.35209 0.16729 0.23876 0.0
C733 C 0.31041 0.14124 0.22043 0.0
C734 C 0.30127 0.16329 0.24557 0.0
C735 C 0.31237 0.19997 0.27875 0.0
C736 C 0.33246 0.21487 0.28625 0.0
C737 C 0.32185 0.17663 0.25476 0.0
C738 C 0.36273 0.20477 0.27089 0.0
C739 C 0.37253 0.18103 0.24757 0.0
H740 H 0.93922 0.37571 0.21761 0.0
H741 H 0.96855 0.28978 0.16384 0.0
H742 H 0.92361 0.27726 0.1905 0.0
H743 H 0.8761 0.28973 0.23074 0.0
H744 H 0.84725 0.37568 0.28441 0.0
H745 H 0.89113 0.38915 0.25591 0.0
C746 C 0.93574 0.3544 0.21135 0.0
C747 C 0.95778 0.3337 0.18875 0.0
C748 C 0.90958 0.34724 0.22683 0.0
C749 C 0.9526 0.30601 0.1815 0.0
C750 C 0.92663 0.29887 0.19663 0.0
C751 C 0.87917 0.31162 0.23585 0.0
C752 C 0.85807 0.33163 0.25979 0.0
C753 C 0.90498 0.31916 0.21957 0.0
C754 C 0.8629 0.3597 0.26626 0.0
C755 C 0.88815 0.36747 0.24995 0.0
H756 H 0.77558 0.94699 0.13284 0.0
H757 H 0.87374 0.90689 0.13501 0.0
H758 H 0.86799 0.87892 0.19291 0.0
H759 H 0.83541 0.86164 0.23955 0.0
H760 H 0.73746 0.89688 0.2346 0.0
H761 H 0.7426 0.93257 0.18206 0.0
C762 C 0.79568 0.93267 0.1463 0.0
C763 C 0.82508 0.92888 0.1296 0.0
C764 C 0.79217 0.91609 0.1792 0.0
C765 C 0.85092 0.90982 0.14715 0.0
C766 C 0.84762 0.89403 0.18031 0.0
C767 C 0.81507 0.87753 0.2274 0.0
C768 C 0.78611 0.87622 0.24063 0.0
C769 C 0.81839 0.89638 0.19615 0.0
C770 C 0.76001 0.8973 0.22482 0.0
C771 C 0.763 0.91742 0.19456 0.0
H772 H 0.10531 0.83392 0.05685 0.0
H773 H 0.02964 0.89311 0.12072 0.0
H774 H 0.06484 0.89307 0.16252 0.0
H775 H 0.11696 0.87255 0.18301 0.0
H776 H 0.19211 0.81281 0.11851 0.0
H777 H 0.15745 0.81693 0.07486 0.0
C778 C 0.09658 0.84693 0.07986 0.0
C779 C 0.0649 0.86319 0.08591 0.0
C780 C 0.11691 0.84662 0.10374 0.0
C781 C 0.05393 0.88051 0.11544 0.0
C782 C 0.07405 0.88028 0.13944 0.0
C783 C 0.12575 0.8606 0.1593 0.0
C784 C 0.15718 0.84235 0.15419 0.0
C785 C 0.10554 0.86285 0.13422 0.0
C786 C 0.16819 0.82735 0.12306 0.0
C787 C 0.14831 0.82946 0.09814 0.0
H788 H 0.39304 0.98219 0.99023 0.0
H789 H 0.3899 0.92731 0.09016 0.0
H790 H 0.3793 0.88656 0.06247 0.0
H791 H 0.36514 0.87029 1.01087 0.0
H792 H 0.36584 0.92702 0.91132 0.0
H793 H 0.38266 0.9638 0.93783 0.0
C794 C 0.39105 0.96072 1.00561 0.0
C795 C 0.39256 0.9573 0.04196 0.0
C796 C 0.38363 0.93838 0.98974 0.0
C797 C 0.38909 0.92998 0.06202 0.0
C798 C 0.38272 0.907 0.04627 0.0
C799 C 0.36934 0.89048 0.99493 0.0
C800 C 0.36387 0.89621 0.95935 0.0
C801 C 0.37895 0.91153 1.01033 0.0
C802 C 0.36921 0.92257 0.93899 0.0
C803 C 0.37912 0.9434 0.95402 0.0
H804 H 0.16238 0.36366 1.01362 0.0
H805 H 0.12659 0.28969 1.00037 0.0
H806 H 0.16276 0.27451 0.94918 0.0
H807 H 0.20578 0.28112 0.90857 0.0
H808 H 0.24165 0.35495 0.92218 0.0
H809 H 0.20415 0.37143 0.97203 0.0
C810 C 0.16217 0.34446 0.99939 0.0
C811 C 0.14164 0.32782 1.01135 0.0
C812 C 0.18318 0.33575 0.96972 0.0
C813 C 0.14226 0.3027 0.99245 0.0
C814 C 0.16291 0.29407 0.96288 0.0
C815 C 0.20521 0.30104 0.92218 0.0
C816 C 0.22666 0.31674 0.91133 0.0
C817 C 0.18367 0.31025 0.95135 0.0
C818 C 0.22558 0.34233 0.92972 0.0
C819 C 0.20409 0.35179 0.9584 0.0
H820 H 0.7841 0.1108 0.92458 0.0
H821 H 0.87974 0.08974 0.93614 0.0
H822 H 0.87557 0.1442 0.91069 0.0
H823 H 0.84462 0.19777 0.88562 0.0
H824 H 0.74913 0.21847 0.87315 0.0
H825 H 0.75316 0.16426 0.89948 0.0
C826 C 0.80397 0.11819 0.92185 0.0
C827 C 0.83215 0.09626 0.93244 0.0
C828 C 0.80132 0.14954 0.90747 0.0
C829 C 0.85787 0.106 0.92791 0.0
C830 C 0.85542 0.13723 0.91366 0.0
C831 C 0.82455 0.19061 0.88918 0.0
C832 C 0.79648 0.21223 0.87794 0.0
C833 C 0.82722 0.15924 0.90357 0.0
C834 C 0.77091 0.20232 0.88185 0.0
C835 C 0.77324 0.17131 0.89676 0.0
H836 H 0.94685 0.80883 0.87657 0.0
H837 H 0.90749 0.80405 0.98325 0.0
H838 H 0.86287 0.79738 0.96336 0.0
H839 H 0.83398 0.79474 0.91571 0.0
H840 H 0.87354 0.79698 0.80904 0.0
H841 H 0.91889 0.80291 0.82866 0.0
C842 C 0.92851 0.80633 0.89547 0.0
C843 C 0.93065 0.80712 0.93154 0.0
C844 C 0.90286 0.80209 0.88376 0.0
C845 C 0.90674 0.80331 0.95554 0.0
C846 C 0.88108 0.79966 0.9441 0.0
C847 C 0.85262 0.79627 0.89668 0.0
C848 C 0.85018 0.79548 0.86079 0.0
C849 C 0.87877 0.79922 0.9083 0.0
C850 C 0.87471 0.79738 0.8367 0.0
C851 C 0.90064 0.80089 0.848 0.0
H852 H 0.19121 0.2597 0.16842 0.0
H853 H 0.11152 0.325 0.22102 0.0
H854 H 0.14403 0.33379 0.26097 0.0
H855 H 0.19686 0.32608 0.27807 0.0
H856 H 0.27492 0.25872 0.22462 0.0
H857 H 0.24168 0.24758 0.18899 0.0
C858 C 0.18075 0.27555 0.18892 0.0
C859 C 0.14873 0.29166 0.19132 0.0
C860 C 0.19962 0.28042 0.21187 0.0
C861 C 0.13594 0.31198 0.2184 0.0
C862 C 0.15468 0.31721 0.24122 0.0
C863 C 0.2065 0.30865 0.25901 0.0
C864 C 0.2388 0.29375 0.25396 0.0
C865 C 0.18682 0.30205 0.23788 0.0
C866 C 0.25046 0.27111 0.22901 0.0
C867 C 0.23137 0.2646 0.20839 0.0
H868 H 0.12026 0.82635 0.97147 0.0
H869 H 0.10762 0.7457 0.93432 0.0
H870 H 0.15687 0.73484 0.89821 0.0
H871 H 0.20291 0.75077 0.87404 0.0
H872 H 0.21467 0.83039 0.91528 0.0
H873 H 0.16704 0.83895 0.95218 0.0
C874 C 0.12839 0.80599 0.95593 0.0
C875 C 0.10986 0.78685 0.95606 0.0
C876 C 0.15683 0.79989 0.9353 0.0
C877 C 0.12121 0.76066 0.93548 0.0
C878 C 0.1494 0.75468 0.91441 0.0
C879 C 0.19519 0.76985 0.89126 0.0
C880 C 0.21296 0.78999 0.89125 0.0
C881 C 0.16734 0.77448 0.91356 0.0
C882 C 0.20213 0.81436 0.91425 0.0
C883 C 0.17459 0.81939 0.93556 0.0
H884 H 0.36349 0.11307 0.99537 0.0
H885 H 0.26908 0.15244 0.035 0.0
H886 H 0.25863 0.19183 0.98274 0.0
H887 H 0.27825 0.21846 0.92764 0.0
H888 H 0.37316 0.17622 0.88974 0.0
H889 H 0.38127 0.13475 0.93882 0.0
C890 C 0.34044 0.12994 0.99239 0.0
C891 C 0.31716 0.12976 0.01926 0.0
C892 C 0.33474 0.15232 0.96239 0.0
C893 C 0.28742 0.15175 1.01472 0.0
C894 C 0.28154 0.17449 0.98487 0.0
C895 C 0.3005 0.19978 0.92979 0.0
C896 C 0.32517 0.20083 0.90483 0.0
C897 C 0.30522 0.17552 0.95873 0.0
C898 C 0.35382 0.17636 0.9084 0.0
C899 C 0.35856 0.15254 0.93663 0.0
H900 H 0.04261 0.2978 1.01005 0.0
H901 H 1.0072 0.25791 0.10622 0.0
H902 H 0.96892 0.24907 0.0747 0.0
H903 H 0.94189 0.25847 0.02019 0.0
H904 H 0.97866 0.29892 0.92481 0.0
H905 H 0.01978 0.30151 0.95536 0.0
C906 C 0.02716 0.28615 0.02394 0.0
C907 C 0.02818 0.27802 0.06039 0.0
C908 C 1.00494 0.28179 1.00572 0.0
C909 C 1.00756 0.26357 0.07808 0.0
C910 C 0.98529 0.25905 0.06006 0.0
C911 C 0.95905 0.26757 1.00603 0.0
C912 C 0.95686 0.27847 0.96993 0.0
C913 C 0.98312 0.26899 0.02397 0.0
C914 C 0.97966 0.28994 0.95224 0.0
C915 C 1.00325 0.29163 0.96981 0.0
H916 H 0.77937 0.98753 0.88621 0.0
H917 H 0.75083 0.94514 0.98532 0.0
H918 H 0.74343 0.90369 0.95545 0.0
H919 H 0.74964 0.87653 0.90131 0.0
H920 H 0.7806 0.91867 0.80341 0.0
H921 H 0.78239 0.96296 0.83259 0.0
C922 C 0.77116 0.96952 0.90142 0.0
C923 C 0.7658 0.96958 0.93815 0.0
C924 C 0.76758 0.9454 0.88416 0.0
C925 C 0.75511 0.94589 0.9571 0.0
C926 C 0.75101 0.92202 0.93998 0.0
C927 C 0.75616 0.89577 0.88629 0.0
C928 C 0.76501 0.89416 0.85008 0.0
C929 C 0.75778 0.92111 0.90355 0.0
C930 C 0.77385 0.91911 0.83122 0.0
C931 C 0.7749 0.94451 0.84793 0.0
H932 H 0.91311 0.81971 0.08955 0.0
H933 H 0.99827 0.75424 0.12662 0.0
H934 H 0.97122 0.74515 0.18382 0.0
H935 H 0.92241 0.75711 0.2246 0.0
H936 H 0.83802 0.82074 0.18383 0.0
H937 H 0.86555 0.82955 0.12779 0.0
C938 C 0.92599 0.8032 0.10993 0.0
C939 C 0.95803 0.78772 0.10316 0.0
C940 C 0.91019 0.79803 0.14272 0.0
C941 C 0.97375 0.76638 0.13042 0.0
C942 C 0.95818 0.76136 0.16342 0.0
C943 C 0.91012 0.77291 0.20343 0.0
C944 C 0.87788 0.78854 0.20894 0.0
C945 C 0.9263 0.77726 0.17015 0.0
C946 C 0.86258 0.80853 0.18076 0.0
C947 C 0.8784 0.81352 0.14847 0.0
H948 H 0.32214 0.99179 0.19556 0.0
H949 H 0.26439 0.97707 0.12608 0.0
H950 H 0.26101 0.93 0.16447 0.0
H951 H 0.27561 0.89148 0.21736 0.0
H952 H 0.33425 0.90614 0.28595 0.0
H953 H 0.33602 0.95402 0.24862 0.0
C954 C 0.30848 0.97859 0.18894 0.0
C955 C 0.29341 0.98845 0.15777 0.0
C956 C 0.30697 0.95099 0.21102 0.0
C957 C 0.2762 0.97043 0.14977 0.0
C958 C 0.27432 0.94328 0.17175 0.0
C959 C 0.28882 0.90507 0.2242 0.0
C960 C 0.30485 0.89465 0.25474 0.0
C961 C 0.28986 0.93303 0.20235 0.0
C962 C 0.32168 0.91306 0.26283 0.0
C963 C 0.32271 0.94071 0.2414 0.0
H964 H 0.83029 0.08356 0.07429 0.0
H965 H 0.73697 0.08567 0.0918 0.0
H966 H 0.725 0.12836 0.13106 0.0
H967 H 0.74203 0.16383 0.16196 0.0
H968 H 0.83599 0.15993 0.14327 0.0
H969 H 0.84658 0.11933 0.10274 0.0
C970 C 0.80722 0.09325 0.0866 0.0
C971 C 0.78461 0.08109 0.08026 0.0
C972 C 0.80065 0.11757 0.10898 0.0
C973 C 0.75482 0.09448 0.09615 0.0
C974 C 0.74804 0.11882 0.11871 0.0
C975 C 0.76484 0.15405 0.14906 0.0
C976 C 0.78817 0.16516 0.15581 0.0
C977 C 0.77091 0.13034 0.12563 0.0
C978 C 0.81745 0.15238 0.13839 0.0
C979 C 0.82361 0.12892 0.11532 0.0
H980 H 0.62358 0.60295 0.8553 0.0
H981 H 0.55784 0.65372 0.93493 0.0
H982 H 0.58471 0.69172 0.93277 0.0
H983 H 0.62684 0.71059 0.90846 0.0
H984 H 0.69265 0.66015 0.82877 0.0
H985 H 0.66517 0.6226 0.82996 0.0
C986 C 0.6149 0.6225 0.87192 0.0
C987 C 0.58874 0.62526 0.89537 0.0
C988 C 0.63035 0.6445 0.87036 0.0
C989 C 0.57816 0.65057 0.91706 0.0
C990 C 0.5934 0.67251 0.91568 0.0
C991 C 0.63528 0.69126 0.89149 0.0
C992 C 0.66183 0.6881 0.86869 0.0
C993 C 0.61958 0.66961 0.89256 0.0
C994 C 0.67212 0.66331 0.84635 0.0
C995 C 0.65654 0.6417 0.84719 0.0
H996 H 0.42679 0.59624 0.87397 0.0
H997 H 0.4811 0.62828 0.78885 0.0
H998 H 0.43605 0.67579 0.77432 0.0
H999 H 0.38194 0.71122 0.79013 0.0
H1000 H 0.3298 0.67805 0.87699 0.0
H1001 H 0.37296 0.62815 0.88621 0.0
C1002 C 0.42885 0.61335 0.8519 0.0
C1003 C 0.45756 0.60861 0.83273 0.0
C1004 C 0.40302 0.6407 0.8441 0.0
C1005 C 0.45942 0.63107 0.80404 0.0
C1006 C 0.43361 0.65843 0.79589 0.0
C1007 C 0.37985 0.6927 0.81051 0.0
C1008 C 0.35244 0.69846 0.83286 0.0
C1009 C 0.40536 0.66394 0.81627 0.0
C1010 C 0.35043 0.67434 0.85944 0.0
C1011 C 0.37522 0.64579 0.86484 0.0
H1012 H 0.46162 0.48448 0.86538 0.0
H1013 H 0.52294 0.41401 0.93497 0.0
H1014 H 0.49561 0.37701 0.93353 0.0
H1015 H 0.45445 0.36452 0.9125 0.0
H1016 H 0.3931 0.43468 0.84282 0.0
H1017 H 0.42113 0.47148 0.84318 0.0
C1018 C 0.46924 0.46093 0.87996 0.0
C1019 C 0.49428 0.4522 0.90036 0.0
C1020 C 0.45364 0.43956 0.87868 0.0
C1021 C 0.50347 0.4217 0.91952 0.0
C1022 C 0.488 0.40035 0.91848 0.0
C1023 C 0.44714 0.38793 0.8975 0.0
C1024 C 0.42168 0.39692 0.87779 0.0
C1025 C 0.46305 0.40907 0.89822 0.0
C1026 C 0.41283 0.42706 0.85793 0.0
C1027 C 0.42867 0.44821 0.85837 0.0
H1028 H 0.61761 0.42072 0.82122 0.0
H1029 H 0.64495 0.50273 0.82527 0.0
H1030 H 0.69846 0.4671 0.8269 0.0
H1031 H 0.73745 0.41198 0.83067 0.0
H1032 H 0.70949 0.33038 0.82716 0.0
H1033 H 0.65659 0.36636 0.82176 0.0
C1034 C 0.63522 0.43101 0.82205 0.0
C1035 C 0.62691 0.46465 0.82315 0.0
C1036 C 0.66601 0.41025 0.82341 0.0
C1037 C 0.65038 0.47715 0.82423 0.0
C1038 C 0.68108 0.45667 0.82539 0.0
C1039 C 0.71978 0.40209 0.82862 0.0
C1040 C 0.72757 0.36834 0.82951 0.0
C1041 C 0.68916 0.42309 0.82561 0.0
C1042 C 0.70432 0.35609 0.82655 0.0
C1043 C 0.67396 0.37673 0.82353 0.0
H1044 H 0.61894 0.46877 0.32919 0.0
H1045 H 0.64858 0.49952 0.22445 0.0
H1046 H 0.69665 0.45495 0.2267 0.0
H1047 H 0.7293 0.40465 0.25572 0.0
H1048 H 0.70224 0.3724 0.36054 0.0
H1049 H 0.65493 0.41966 0.36105 0.0
C1050 C 0.63612 0.46593 0.30715 0.0
C1051 C 0.62962 0.48749 0.27647 0.0
C1052 C 0.66435 0.43962 0.30841 0.0
C1053 C 0.6524 0.48324 0.24822 0.0
C1054 C 0.68013 0.45764 0.2494 0.0
C1055 C 0.71321 0.4081 0.27885 0.0
C1056 C 0.71927 0.38482 0.30786 0.0
C1057 C 0.68612 0.43526 0.27893 0.0
C1058 C 0.69821 0.3899 0.33774 0.0
C1059 C 0.67103 0.41693 0.33799 0.0
H1060 H 0.58657 0.67956 0.20607 0.0
H1061 H 0.64788 0.58647 0.24406 0.0
H1062 H 0.68737 0.60952 0.24733 0.0
H1063 H 0.70401 0.6564 0.24079 0.0
H1064 H 0.64284 0.74951 0.20265 0.0
H1065 H 0.60387 0.72613 0.19753 0.0
C1066 C 0.60872 0.66424 0.21453 0.0
C1067 C 0.61421 0.6314 0.22499 0.0
C1068 C 0.63128 0.67769 0.21645 0.0
C1069 C 0.64294 0.61193 0.23635 0.0
C1070 C 0.66555 0.62506 0.23814 0.0
C1071 C 0.68206 0.67156 0.23158 0.0
C1072 C 0.67621 0.70461 0.2223 0.0
C1073 C 0.65983 0.65798 0.22869 0.0
C1074 C 0.64791 0.72394 0.20977 0.0
C1075 C 0.62561 0.71062 0.20693 0.0
H1076 H 0.48416 0.68526 0.30945 0.0
H1077 H 0.45184 0.60484 0.32179 0.0
H1078 H 0.39893 0.64202 0.32387 0.0
H1079 H 0.36182 0.6974 0.31705 0.0
H1080 H 0.39371 0.77795 0.30452 0.0
H1081 H 0.44663 0.74081 0.3079 0.0
C1082 C 0.46559 0.67574 0.31314 0.0
C1083 C 0.47228 0.64204 0.31525 0.0
C1084 C 0.43504 0.69739 0.3139 0.0
C1085 C 0.44766 0.63045 0.32012 0.0
C1086 C 0.41729 0.65179 0.32109 0.0
C1087 C 0.38035 0.70686 0.31525 0.0
C1088 C 0.37379 0.74049 0.31018 0.0
C1089 C 0.41072 0.68529 0.31713 0.0
C1090 C 0.39804 0.75228 0.30842 0.0
C1091 C 0.42835 0.73097 0.31021 0.0
H1092 H 0.48912 0.47799 0.19558 0.0
H1093 H 0.45478 0.51399 0.29631 0.0
H1094 H 0.42142 0.48188 0.30586 0.0
H1095 H 0.40243 0.44284 0.28594 0.0
H1096 H 0.43565 0.40869 0.18415 0.0
H1097 H 0.46881 0.44095 0.17471 0.0
C1098 C 0.47411 0.4792 0.21945 0.0
C1099 C 0.47468 0.49839 0.24517 0.0
C1100 C 0.45477 0.46087 0.22468 0.0
C1101 C 0.4553 0.4991 0.27622 0.0
C1102 C 0.43601 0.48087 0.28165 0.0
C1103 C 0.41666 0.44274 0.26153 0.0
C1104 C 0.41668 0.42312 0.23595 0.0
C1105 C 0.43562 0.46157 0.2561 0.0
C1106 C 0.43556 0.42306 0.20461 0.0
C1107 C 0.45443 0.44166 0.19906 0.0
H1108 H 0.78129 0.64518 0.68378 0.0
H1109 H 0.86102 0.65683 0.62287 0.0
H1110 H 0.86292 0.69392 0.66258 0.0
H1111 H 0.84139 0.72445 0.71386 0.0
H1112 H 0.76222 0.71231 0.77567 0.0
H1113 H 0.76097 0.67414 0.73685 0.0
C1114 C 0.79906 0.65585 0.67917 0.0
C1115 C 0.82087 0.64818 0.65008 0.0
C1116 C 0.8003 0.6771 0.70251 0.0
C1117 C 0.84388 0.66214 0.64488 0.0
C1118 C 0.84503 0.68344 0.66767 0.0
C1119 C 0.82407 0.71319 0.71917 0.0
C1120 C 0.80202 0.7214 0.74793 0.0
C1121 C 0.82334 0.6912 0.69654 0.0
C1122 C 0.77968 0.7065 0.75403 0.0
C1123 C 0.7788 0.6847 0.73162 0.0
H1124 H 0.45811 0.78885 0.65243 0.0
H1125 H 0.46504 0.85847 0.71491 0.0
H1126 H 0.42008 0.85566 0.75267 0.0
H1127 H 0.37765 0.83428 0.7685 0.0
H1128 H 0.36851 0.76615 0.70557 0.0
H1129 H 0.41443 0.76766 0.66822 0.0
C1130 C 0.44995 0.80318 0.67448 0.0
C1131 C 0.46552 0.82388 0.68052 0.0
C1132 C 0.42312 0.80194 0.69622 0.0
C1133 C 0.45387 0.84248 0.70918 0.0
C1134 C 0.42795 0.84087 0.73098 0.0
C1135 C 0.38551 0.81976 0.74657 0.0
C1136 C 0.36898 0.80015 0.74025 0.0
C1137 C 0.41214 0.8209 0.72477 0.0
C1138 C 0.38016 0.78166 0.71141 0.0
C1139 C 0.40673 0.78243 0.68992 0.0
H1140 H 0.33214 0.41773 0.6665 0.0
H1141 H 0.23964 0.44266 0.63906 0.0
H1142 H 0.22835 0.41002 0.69127 0.0
H1143 H 0.24536 0.3718 0.74381 0.0
H1144 H 0.33815 0.34655 0.77035 0.0
H1145 H 0.3485 0.38155 0.71989 0.0
C1146 C 0.30951 0.41602 0.67174 0.0
C1147 C 0.2869 0.43281 0.64832 0.0
C1148 C 0.30312 0.39695 0.70198 0.0
C1149 C 0.25756 0.43046 0.65637 0.0
C1150 C 0.25107 0.41155 0.68633 0.0
C1151 C 0.26771 0.37431 0.73884 0.0
C1152 C 0.29092 0.3564 0.76112 0.0
C1153 C 0.27371 0.39443 0.70926 0.0
C1154 C 0.3198 0.35993 0.75389 0.0
C1155 C 0.32581 0.37993 0.72484 0.0
H1156 H 0.55204 0.28874 0.63691 0.0
H1157 H 0.58066 0.33075 0.53793 0.0
H1158 H 0.62054 0.34065 0.56554 0.0
H1159 H 0.65061 0.33225 0.61742 0.0
H1160 H 0.61998 0.29068 0.71598 0.0
H1161 H 0.5778 0.28592 0.68916 0.0
C1162 C 0.56645 0.30093 0.62155 0.0
C1163 C 0.56306 0.30935 0.58547 0.0
C1164 C 0.58943 0.30617 0.63756 0.0
C1165 C 0.58222 0.3247 0.56587 0.0
C1166 C 0.60537 0.3299 0.58163 0.0
C1167 C 0.63452 0.32243 0.63306 0.0
C1168 C 0.63872 0.31185 0.6689 0.0
C1169 C 0.60976 0.31993 0.61735 0.0
C1170 C 0.61737 0.29939 0.68862 0.0
C1171 C 0.59321 0.29648 0.67322 0.0
H1172 H 0.70757 0.54123 0.55972 0.0
H1173 H 0.79802 0.5466 0.55095 0.0
H1174 H 0.81761 0.49982 0.51748 0.0
H1175 H 0.80826 0.45855 0.48809 0.0
H1176 H 0.7172 0.45381 0.49757 0.0
H1177 H 0.69861 0.49937 0.53278 0.0
C1178 C 0.73166 0.53229 0.55063 0.0
C1179 C 0.7513 0.54796 0.55796 0.0
C1180 C 0.74257 0.50546 0.53108 0.0
C1181 C 0.78236 0.53547 0.54594 0.0
C1182 C 0.79354 0.50857 0.52661 0.0
C1183 C 0.78441 0.4672 0.49818 0.0
C1184 C 0.76416 0.45271 0.48976 0.0
C1185 C 0.77376 0.49354 0.51867 0.0
C1186 C 0.73326 0.46469 0.50289 0.0
C1187 C 0.72261 0.49068 0.52329 0.0
H1188 H 0.62724 0.8225 0.44102 0.0
H1189 H 0.68192 0.81398 0.52568 0.0
H1190 H 0.72708 0.80815 0.48374 0.0
H1191 H 0.75167 0.80556 0.42189 0.0
H1192 H 0.69622 0.81151 0.33868 0.0
H1193 H 0.65149 0.81851 0.3806 0.0
C1194 C 0.6489 0.81962 0.4505 0.0
C1195 C 0.65063 0.81903 0.48697 0.0
C1196 C 0.67506 0.81586 0.42609 0.0
C1197 C 0.67949 0.81448 0.49814 0.0
C1198 C 0.70547 0.81126 0.47395 0.0
C1199 C 0.72977 0.80861 0.41287 0.0
C1200 C 0.72774 0.80821 0.37657 0.0
C1201 C 0.70366 0.81199 0.43769 0.0
C1202 C 0.69895 0.81168 0.36603 0.0
C1203 C 0.67311 0.81572 0.39017 0.0
H1204 H 0.33252 0.62555 0.47128 0.0
H1205 H 0.25306 0.61933 0.43209 0.0
H1206 H 0.24432 0.67189 0.39825 0.0
H1207 H 0.26013 0.71966 0.37829 0.0
H1208 H 0.33925 0.72532 0.41947 0.0
H1209 H 0.34704 0.67355 0.45341 0.0
C1210 C 0.31336 0.63553 0.45522 0.0
C1211 C 0.29364 0.61808 0.45425 0.0
C1212 C 0.3083 0.66604 0.43596 0.0
C1213 C 0.26858 0.63204 0.43366 0.0
C1214 C 0.26363 0.66218 0.41411 0.0
C1215 C 0.27894 0.70973 0.39486 0.0
C1216 C 0.29895 0.72694 0.39601 0.0
C1217 C 0.28341 0.67947 0.41488 0.0
C1218 C 0.32321 0.71321 0.41784 0.0
C1219 C 0.32786 0.6833 0.43735 0.0
H1220 H 0.39068 0.3203 0.49779 0.0
H1221 H 0.46828 0.28806 0.42234 0.0
H1222 H 0.43436 0.28557 0.38006 0.0
H1223 H 0.38199 0.28863 0.36603 0.0
H1224 H 0.3061 0.32019 0.44406 0.0
H1225 H 0.33958 0.32709 0.48293 0.0
C1226 C 0.40034 0.31304 0.47198 0.0
C1227 C 0.4323 0.30432 0.46366 0.0
C1228 C 0.3807 0.31137 0.44793 0.0
C1229 C 0.44392 0.29513 0.42976 0.0
C1230 C 0.42441 0.29351 0.40552 0.0
C1231 C 0.37277 0.29751 0.39129 0.0
C1232 C 0.34126 0.30369 0.40194 0.0
C1233 C 0.39266 0.30103 0.41443 0.0
C1234 C 0.33006 0.31491 0.43504 0.0
C1235 C 0.34929 0.31889 0.45749 0.0
H1236 H 0.61604 0.83278 0.71407 0.0
H1237 H 0.6704 0.76545 0.64067 0.0
H1238 H 0.71712 0.7627 0.66485 0.0
H1239 H 0.74298 0.78219 0.70412 0.0
H1240 H 0.68904 0.84768 0.77927 0.0
H1241 H 0.64188 0.84825 0.75738 0.0
C1242 C 0.63807 0.81722 0.70353 0.0
C1243 C 0.63946 0.79948 0.67522 0.0
C1244 C 0.66502 0.81566 0.71776 0.0
C1245 C 0.66837 0.77931 0.66234 0.0
C1246 C 0.6952 0.77788 0.67608 0.0
C1247 C 0.72088 0.79652 0.71585 0.0
C1248 C 0.71962 0.81535 0.743 0.0
C1249 C 0.69387 0.79639 0.70333 0.0
C1250 C 0.69076 0.83318 0.75829 0.0
C1251 C 0.66377 0.83354 0.74565 0.0
H1252 H 0.62687 0.28254 0.47884 0.0
H1253 H 0.62629 0.21589 0.4082 0.0
H1254 H 0.67196 0.22194 0.37485 0.0
H1255 H 0.71187 0.2471 0.36438 0.0
H1256 H 0.71255 0.31377 0.43501 0.0
H1257 H 0.66751 0.3068 0.46917 0.0
C1258 C 0.63661 0.26943 0.45608 0.0
C1259 C 0.62281 0.24871 0.44632 0.0
C1260 C 0.66317 0.27301 0.43677 0.0
C1261 C 0.63631 0.23168 0.41685 0.0
C1262 C 0.66249 0.23526 0.39751 0.0
C1263 C 0.70234 0.25998 0.38736 0.0
C1264 C 0.71591 0.28097 0.39687 0.0
C1265 C 0.67615 0.25591 0.4071 0.0
C1266 C 0.70291 0.2974 0.42685 0.0
C1267 C 0.67696 0.2935 0.44648 0.0
H1268 H 0.86633 0.61983 0.4425 0.0
H1269 H 0.76971 0.66124 0.47353 0.0
H1270 H 0.7634 0.69999 0.42173 0.0
H1271 H 0.78605 0.72476 0.37 0.0
H1272 H 0.8828 0.68386 0.33999 0.0
H1273 H 0.88801 0.64129 0.38823 0.0
C1274 C 0.84373 0.63683 0.43781 0.0
C1275 C 0.81864 0.63761 0.46241 0.0
C1276 C 0.84021 0.65901 0.40784 0.0
C1277 C 0.78964 0.66033 0.45568 0.0
C1278 C 0.78592 0.6824 0.4258 0.0
C1279 C 0.80813 0.70608 0.3735 0.0
C1280 C 0.83406 0.70746 0.35152 0.0
C1281 C 0.81114 0.68231 0.40201 0.0
C1282 C 0.86254 0.68325 0.35658 0.0
C1283 C 0.86556 0.65909 0.38432 0.0
H1284 H 0.52047 0.75329 0.57708 0.0
H1285 H 0.58754 0.74003 0.48782 0.0
H1286 H 0.54823 0.74533 0.44948 0.0
H1287 H 0.49363 0.76083 0.44012 0.0
H1288 H 0.42676 0.77339 0.52953 0.0
H1289 H 0.46707 0.76149 0.56863 0.0
C1290 C 0.52671 0.75083 0.54937 0.0
C1291 C 0.55702 0.74663 0.53547 0.0
C1292 C 0.50382 0.75443 0.52721 0.0
C1293 C 0.56448 0.74342 0.49941 0.0
C1294 C 0.54191 0.74666 0.47732 0.0
C1295 C 0.48788 0.76022 0.46818 0.0
C1296 C 0.45695 0.76874 0.48161 0.0
C1297 C 0.5113 0.75325 0.49073 0.0
C1298 C 0.45017 0.76786 0.5182 0.0
C1299 C 0.47328 0.76086 0.5407 0.0
H1300 H 0.26307 0.49543 0.40238 0.0
H1301 H 0.23114 0.45317 0.49967 0.0
H1302 H 0.22775 0.41009 0.46927 0.0
H1303 H 0.23973 0.38102 0.41625 0.0
H1304 H 0.2737 0.42282 0.3199 0.0
H1305 H 0.27014 0.46947 0.34867 0.0
C1306 C 0.25494 0.47709 0.41694 0.0
C1307 C 0.24771 0.47743 0.45337 0.0
C1308 C 0.25361 0.45207 0.39944 0.0
C1309 C 0.23695 0.45354 0.47165 0.0
C1310 C 0.23515 0.42876 0.45428 0.0
C1311 C 0.24566 0.40069 0.40136 0.0
C1312 C 0.25711 0.39829 0.36597 0.0
C1313 C 0.24424 0.42728 0.41834 0.0
C1314 C 0.265 0.42389 0.34719 0.0
C1315 C 0.26305 0.4506 0.36366 0.0
H1316 H 0.43582 0.21377 0.64294 0.0
H1317 H 0.46248 0.2951 0.65298 0.0
H1318 H 0.43077 0.30417 0.70826 0.0
H1319 H 0.39431 0.28991 0.75366 0.0
H1320 H 0.36766 0.20869 0.74333 0.0
H1321 H 0.40087 0.19845 0.68904 0.0
C1322 C 0.4351 0.23329 0.65725 0.0
C1323 C 0.45174 0.25373 0.6432 0.0
C1324 C 0.41679 0.23837 0.68939 0.0
C1325 C 0.44981 0.27915 0.66242 0.0
C1326 C 0.43173 0.28427 0.69436 0.0
C1327 C 0.39607 0.26967 0.73983 0.0
C1328 C 0.37849 0.24999 0.75294 0.0
C1329 C 0.41499 0.26414 0.7081 0.0
C1330 C 0.38087 0.22421 0.73414 0.0
C1331 C 0.39985 0.21838 0.70291 0.0
H1332 H 0.86082 0.45097 0.68508 0.0
H1333 H 0.77596 0.47607 0.63749 0.0
H1334 H 0.76591 0.43004 0.67146 0.0
H1335 H 0.78065 0.38341 0.71633 0.0
H1336 H 0.86634 0.35883 0.76233 0.0
H1337 H 0.87681 0.40347 0.7267 0.0
C1338 C 0.84034 0.44623 0.68158 0.0
C1339 C 0.81917 0.46721 0.65881 0.0
C1340 C 0.83481 0.41967 0.70096 0.0
C1341 C 0.79248 0.46073 0.65524 0.0
C1342 C 0.78678 0.43425 0.67452 0.0
C1343 C 0.80173 0.38765 0.71829 0.0
C1344 C 0.82253 0.36782 0.7422 0.0
C1345 C 0.80768 0.41368 0.69774 0.0
C1346 C 0.84973 0.37375 0.74441 0.0
C1347 C 0.85582 0.39934 0.72402 0.0
H1348 H 0.27794 0.61047 0.56098 0.0
H1349 H 0.20442 0.58837 0.6247 0.0
H1350 H 0.19379 0.63608 0.65612 0.0
H1351 H 0.21135 0.67836 0.67104 0.0
H1352 H 0.28676 0.6981 0.60826 0.0
H1353 H 0.29097 0.65671 0.57071 0.0
C1354 C 0.25911 0.61665 0.58125 0.0
C1355 C 0.24204 0.59619 0.59096 0.0
C1356 C 0.25399 0.64317 0.59963 0.0
C1357 C 0.21761 0.60412 0.61689 0.0
C1358 C 0.21185 0.63109 0.635 0.0
C1359 C 0.22821 0.67411 0.64864 0.0
C1360 C 0.24906 0.69086 0.64267 0.0
C1361 C 0.23075 0.64997 0.62749 0.0
C1362 C 0.27091 0.68502 0.61373 0.0
C1363 C 0.27323 0.6615 0.59221 0.0
loop_
_geom_bond_atom_site_label_1
_geom_bond_atom_site_label_2
_geom_bond_distance
_geom_bond_site_symmetry_2
_ccdc_geom_bond_type
Cu0 N1 1.999 . S
Cu0 O6 1.974 1_545 S
Cu0 N11 1.985 1_545 S
Cu0 O20 1.959 1_455 S
N1 Cu0 1.999 . S
N1 C3 1.263 . S
N1 C5 1.389 . S
N2 C3 1.358 . S
N2 C4 1.400 . S
C3 N1 1.263 . S
C3 N2 1.358 . S
C3 H9 0.930 . S
C4 N2 1.400 . S
C4 C5 1.351 . S
C4 H21 0.930 . S
C5 N1 1.389 . S
C5 C4 1.351 . S
C5 H10 0.930 . S
O6 Cu0 1.974 1_565 S
O6 C16 1.282 . S
C7 O8 1.261 1_655 S
C7 O20 1.251 . S
O8 C7 1.261 1_455 S
H9 C3 0.930 . S
H10 C5 0.930 . S
N11 Cu0 1.985 1_565 S
N11 C13 1.335 1_455 S
N11 C14 1.390 . S
N12 C13 1.345 . S
N12 C15 1.336 1_655 S
C13 N11 1.335 1_655 S
C13 N12 1.345 . S
C13 H18 0.930 1_565 S
C14 N11 1.390 . S
C14 C15 1.346 . S
C14 H19 0.930 . S
C15 N12 1.336 1_455 S
C15 C14 1.346 . S
C15 H22 0.929 . S
C16 O6 1.282 . S
C16 O17 1.216 . S
O17 C16 1.216 . S
H18 C13 0.930 1_545 S
H19 C14 0.930 . S
O20 Cu0 1.959 1_655 S
O20 C7 1.251 . S
H21 C4 0.930 . S
H22 C15 0.929 . S
Cu23 N24 1.999 . S
Cu23 O29 1.974 1_455 S
Cu23 N34 1.985 . S
Cu23 O43 1.959 . S
N24 Cu23 1.999 . S
N24 C26 1.263 1_455 S
N24 C28 1.358 1_545 S
N25 C26 1.358 . S
N25 C27 1.400 1_545 S
C26 N24 1.263 1_655 S
C26 N25 1.358 . S
C26 H32 0.930 . S
C27 N25 1.400 1_565 S
C27 C28 1.377 1_655 S
C27 H44 0.930 . S
C28 N24 1.358 1_565 S
C28 C27 1.377 1_455 S
C28 H33 0.935 . S
O29 Cu23 1.974 1_655 S
O29 C39 1.282 . S
C30 O31 1.261 . S
C30 O43 1.251 . S
O31 C30 1.261 . S
H32 C26 0.930 . S
H33 C28 0.935 . S
N34 Cu23 1.985 . S
N34 C36 1.335 . S
N34 C37 1.390 . S
N35 C36 1.345 . S
N35 C38 1.336 . S
C36 N34 1.335 . S
C36 N35 1.345 . S
C36 H41 0.930 . S
C37 N34 1.390 . S
C37 C38 1.346 . S
C37 H42 0.930 . S
C38 N35 1.336 . S
C38 C37 1.346 . S
C38 H45 0.929 . S
C39 O29 1.282 . S
C39 O40 1.216 . S
O40 C39 1.216 . S
H41 C36 0.930 . S
H42 C37 0.930 . S
O43 Cu23 1.959 . S
O43 C30 1.251 . S
H44 C27 0.930 . S
H45 C38 0.929 . S
Cu46 N47 1.999 . S
Cu46 O52 1.974 . S
Cu46 N57 1.985 . S
Cu46 O66 1.959 . S
N47 Cu46 1.999 . S
N47 C49 1.263 . S
N47 C51 1.389 . S
N48 C49 1.358 . S
N48 C50 1.400 . S
C49 N47 1.263 . S
C49 N48 1.358 . S
C49 H55 0.930 . S
C50 N48 1.400 . S
C50 C51 1.351 . S
C50 H67 0.930 1_554 S
C51 N47 1.389 . S
C51 C50 1.351 . S
C51 H56 0.930 . S
O52 Cu46 1.974 . S
O52 C62 1.282 . S
C53 O54 1.261 . S
C53 O66 1.251 . S
O54 C53 1.261 . S
H55 C49 0.930 . S
H56 C51 0.930 . S
N57 Cu46 1.985 . S
N57 C59 1.335 . S
N57 C60 1.390 . S
N58 C59 1.345 . S
N58 C61 1.336 . S
C59 N57 1.335 . S
C59 N58 1.345 . S
C59 H64 0.930 . S
C60 N57 1.390 . S
C60 C61 1.346 . S
C60 H65 0.930 . S
C61 N58 1.336 . S
C61 C60 1.346 . S
C61 H68 0.929 . S
C62 O52 1.282 . S
C62 O63 1.216 . S
O63 C62 1.216 . S
H64 C59 0.930 . S
H65 C60 0.930 . S
O66 Cu46 1.959 . S
O66 C53 1.251 . S
H67 C50 0.930 1_556 S
H68 C61 0.929 . S
Cu69 N70 1.999 . S
Cu69 O75 1.974 . S
Cu69 N80 1.985 . S
Cu69 O89 1.959 . S
N70 Cu69 1.999 . S
N70 C72 1.263 . S
N70 C74 1.389 . S
N71 C72 1.358 . S
N71 C73 1.400 1_554 S
C72 N70 1.263 . S
C72 N71 1.358 . S
C72 H78 0.930 . S
C73 N71 1.400 1_556 S
C73 C74 1.351 1_556 S
C73 H90 0.930 . S
C74 N70 1.389 . S
C74 C73 1.351 1_554 S
C74 H79 0.930 1_554 S
O75 Cu69 1.974 . S
O75 C85 1.282 . S
C76 O77 1.261 . S
C76 O89 1.251 . S
O77 C76 1.261 . S
H78 C72 0.930 . S
H79 C74 0.930 1_556 S
N80 Cu69 1.985 . S
N80 C82 1.335 1_455 S
N80 C83 1.390 . S
N81 C82 1.345 . S
N81 C84 1.336 1_655 S
C82 N80 1.335 1_655 S
C82 N81 1.345 . S
C82 H87 0.930 . S
C83 N80 1.390 . S
C83 C84 1.346 . S
C83 H88 0.930 . S
C84 N81 1.336 1_455 S
C84 C83 1.346 . S
C84 H91 0.929 . S
C85 O75 1.282 . S
C85 O86 1.216 . S
O86 C85 1.216 . S
H87 C82 0.930 . S
H88 C83 0.930 . S
O89 Cu69 1.959 . S
O89 C76 1.251 . S
H90 C73 0.930 . S
H91 C84 0.929 . S
Cu92 N93 1.999 1_554 S
Cu92 O98 1.974 . S
Cu92 N103 1.985 1_545 S
Cu92 O112 1.959 1_544 S
N93 Cu92 1.999 1_556 S
N93 C95 1.263 . S
N93 C97 1.389 . S
N94 C95 1.358 . S
N94 C96 1.400 . S
C95 N93 1.263 . S
C95 N94 1.358 . S
C95 H101 0.930 . S
C96 N94 1.400 . S
C96 C97 1.351 . S
C96 H113 0.930 . S
C97 N93 1.389 . S
C97 C96 1.351 . S
C97 H102 0.930 . S
O98 Cu92 1.974 . S
O98 C108 1.282 . S
C99 O100 1.261 . S
C99 O112 1.251 . S
O100 C99 1.261 . S
H101 C95 0.930 . S
H102 C97 0.930 . S
N103 Cu92 1.985 1_565 S
N103 C105 1.335 . S
N103 C106 1.390 . S
N104 C105 1.345 . S
N104 C107 1.336 . S
C105 N103 1.335 . S
C105 N104 1.345 . S
C105 H110 0.930 . S
C106 N103 1.390 . S
C106 C107 1.346 . S
C106 H111 0.930 . S
C107 N104 1.336 . S
C107 C106 1.346 . S
C107 H114 0.929 . S
C108 O98 1.282 . S
C108 O109 1.216 . S
O109 C108 1.216 . S
H110 C105 0.930 . S
H111 C106 0.930 . S
O112 Cu92 1.959 1_566 S
O112 C99 1.251 . S
H113 C96 0.930 . S
H114 C107 0.929 . S
Cu115 N116 1.999 1_454 S
Cu115 O121 1.974 1_455 S
Cu115 N126 1.985 . S
Cu115 O135 1.959 1_554 S
N116 Cu115 1.999 1_656 S
N116 C118 1.263 . S
N116 C120 1.389 . S
N117 C118 1.358 . S
N117 C119 1.400 . S
C118 N116 1.263 . S
C118 N117 1.358 . S
C118 H124 0.930 . S
C119 N117 1.400 . S
C119 C120 1.351 . S
C119 H136 0.930 . S
C120 N116 1.389 . S
C120 C119 1.351 . S
C120 H125 0.930 1_655 S
O121 Cu115 1.974 1_655 S
O121 C131 1.282 . S
C122 O123 1.261 . S
C122 O135 1.251 . S
O123 C122 1.261 . S
H124 C118 0.930 . S
H125 C120 0.930 1_455 S
N126 Cu115 1.985 . S
N126 C128 1.335 . S
N126 C129 1.390 . S
N127 C128 1.345 . S
N127 C130 1.336 . S
C128 N126 1.335 . S
C128 N127 1.345 . S
C128 H133 0.930 . S
C129 N126 1.390 . S
C129 C130 1.346 . S
C129 H134 0.930 1_455 S
C130 N127 1.336 . S
C130 C129 1.346 . S
C130 H137 0.929 . S
C131 O121 1.282 . S
C131 O132 1.216 . S
O132 C131 1.216 . S
H133 C128 0.930 . S
H134 C129 0.930 1_655 S
O135 Cu115 1.959 1_556 S
O135 C122 1.251 . S
H136 C119 0.930 . S
H137 C130 0.929 . S
Cu138 N139 1.999 . S
Cu138 O144 1.974 . S
Cu138 N149 1.985 . S
Cu138 O158 1.959 . S
N139 Cu138 1.999 . S
N139 C141 1.263 . S
N139 C143 1.389 . S
N140 C141 1.358 . S
N140 C142 1.400 . S
C141 N139 1.263 . S
C141 N140 1.358 . S
C141 H147 0.930 . S
C142 N140 1.400 . S
C142 C143 1.351 . S
C142 H159 0.930 . S
C143 N139 1.389 . S
C143 C142 1.351 . S
C143 H148 0.930 . S
O144 Cu138 1.974 . S
O144 C154 1.282 . S
C145 O146 1.261 . S
C145 O158 1.251 . S
O146 C145 1.261 . S
H147 C141 0.930 . S
H148 C143 0.930 . S
N149 Cu138 1.985 . S
N149 C151 1.335 . S
N149 C152 1.390 . S
N150 C151 1.345 . S
N150 C153 1.336 . S
C151 N149 1.335 . S
C151 N150 1.345 . S
C151 H156 0.930 . S
C152 N149 1.390 . S
C152 C153 1.346 . S
C152 H157 0.930 . S
C153 N150 1.336 . S
C153 C152 1.346 . S
C153 H160 0.929 . S
C154 O144 1.282 . S
C154 O155 1.216 . S
O155 C154 1.216 . S
H156 C151 0.930 . S
H157 C152 0.930 . S
O158 Cu138 1.959 . S
O158 C145 1.251 . S
H159 C142 0.930 . S
H160 C153 0.929 . S
Cu161 N162 1.999 . S
Cu161 O167 1.974 . S
Cu161 N172 1.985 . S
Cu161 O181 1.959 . S
N162 Cu161 1.999 . S
N162 C164 1.263 . S
N162 C166 1.389 . S
N163 C164 1.358 . S
N163 C165 1.400 . S
C164 N162 1.263 . S
C164 N163 1.358 . S
C164 H170 0.930 . S
C165 N163 1.400 . S
C165 C166 1.351 . S
C165 H182 0.930 . S
C166 N162 1.389 . S
C166 C165 1.351 . S
C166 H171 0.930 . S
O167 Cu161 1.974 . S
O167 C177 1.282 . S
C168 O169 1.261 . S
C168 O181 1.251 . S
O169 C168 1.261 . S
H170 C164 0.930 . S
H171 C166 0.930 . S
N172 Cu161 1.985 . S
N172 C174 1.335 . S
N172 C175 1.390 . S
N173 C174 1.345 . S
N173 C176 1.336 . S
C174 N172 1.335 . S
C174 N173 1.345 . S
C174 H179 0.930 . S
C175 N172 1.390 . S
C175 C176 1.346 . S
C175 H180 0.930 . S
C176 N173 1.336 . S
C176 C175 1.346 . S
C176 H183 0.929 . S
C177 O167 1.282 . S
C177 O178 1.216 . S
O178 C177 1.216 . S
H179 C174 0.930 . S
H180 C175 0.930 . S
O181 Cu161 1.959 . S
O181 C168 1.251 . S
H182 C165 0.930 . S
H183 C176 0.929 . S
Cu184 N185 1.999 . S
Cu184 O190 1.974 . S
Cu184 N195 1.985 . S
Cu184 O204 1.959 . S
N185 Cu184 1.999 . S
N185 C187 1.263 . S
N185 C189 1.389 . S
N186 C187 1.358 . S
N186 C188 1.400 . S
C187 N185 1.263 . S
C187 N186 1.358 . S
C187 H193 0.930 . S
C188 N186 1.400 . S
C188 C189 1.351 . S
C188 H205 0.930 . S
C189 N185 1.389 . S
C189 C188 1.351 . S
C189 H194 0.930 . S
O190 Cu184 1.974 . S
O190 C200 1.282 . S
C191 O192 1.261 . S
C191 O204 1.251 . S
O192 C191 1.261 . S
H193 C187 0.930 . S
H194 C189 0.930 . S
N195 Cu184 1.985 . S
N195 C197 1.335 . S
N195 C198 1.390 . S
N196 C197 1.345 . S
N196 C199 1.336 . S
C197 N195 1.335 . S
C197 N196 1.345 . S
C197 H202 0.930 . S
C198 N195 1.390 . S
C198 C199 1.346 . S
C198 H203 0.930 . S
C199 N196 1.336 . S
C199 C198 1.346 . S
C199 H206 0.929 . S
C200 O190 1.282 . S
C200 O201 1.216 . S
O201 C200 1.216 . S
H202 C197 0.930 . S
H203 C198 0.930 . S
O204 Cu184 1.959 . S
O204 C191 1.251 . S
H205 C188 0.930 . S
H206 C199 0.929 . S
Cu207 N208 1.999 . S
Cu207 O213 1.974 . S
Cu207 N218 1.985 . S
Cu207 O227 1.959 . S
N208 Cu207 1.999 . S
N208 C210 1.263 . S
N208 C212 1.389 . S
N209 C210 1.358 . S
N209 C211 1.400 . S
C210 N208 1.263 . S
C210 N209 1.358 . S
C210 H216 0.930 . S
C211 N209 1.400 . S
C211 C212 1.351 . S
C211 H228 0.930 . S
C212 N208 1.389 . S
C212 C211 1.351 . S
C212 H217 0.930 . S
O213 Cu207 1.974 . S
O213 C223 1.282 . S
C214 O215 1.261 . S
C214 O227 1.251 . S
O215 C214 1.261 . S
H216 C210 0.930 . S
H217 C212 0.930 . S
N218 Cu207 1.985 . S
N218 C220 1.335 . S
N218 C221 1.390 . S
N219 C220 1.345 . S
N219 C222 1.336 . S
C220 N218 1.335 . S
C220 N219 1.345 . S
C220 H225 0.930 . S
C221 N218 1.390 . S
C221 C222 1.346 . S
C221 H226 0.930 . S
C222 N219 1.336 . S
C222 C221 1.346 . S
C222 H229 0.929 . S
C223 O213 1.282 . S
C223 O224 1.216 . S
O224 C223 1.216 . S
H225 C220 0.930 . S
H226 C221 0.930 . S
O227 Cu207 1.959 . S
O227 C214 1.251 . S
H228 C211 0.930 . S
H229 C222 0.929 . S
Cu230 N231 1.999 . S
Cu230 O236 1.974 . S
Cu230 N241 1.985 . S
Cu230 O250 1.959 . S
N231 Cu230 1.999 . S
N231 C233 1.263 . S
N231 C235 1.389 . S
N232 C233 1.358 . S
N232 C234 1.400 . S
C233 N231 1.263 . S
C233 N232 1.358 . S
C233 H239 0.930 . S
C234 N232 1.400 . S
C234 C235 1.351 . S
C234 H251 0.930 . S
C235 N231 1.389 . S
C235 C234 1.351 . S
C235 H240 0.930 . S
O236 Cu230 1.974 . S
O236 C246 1.282 . S
C237 O238 1.261 . S
C237 O250 1.251 . S
O238 C237 1.261 . S
H239 C233 0.930 . S
H240 C235 0.930 . S
N241 Cu230 1.985 . S
N241 C243 1.335 . S
N241 C244 1.390 . S
N242 C243 1.345 . S
N242 C245 1.336 . S
C243 N241 1.335 . S
C243 N242 1.345 . S
C243 H248 0.930 . S
C244 N241 1.390 . S
C244 C245 1.346 . S
C244 H249 0.930 . S
C245 N242 1.336 . S
C245 C244 1.346 . S
C245 H252 0.929 . S
C246 O236 1.282 . S
C246 O247 1.216 . S
O247 C246 1.216 . S
H248 C243 0.930 . S
H249 C244 0.930 . S
O250 Cu230 1.959 . S
O250 C237 1.251 . S
H251 C234 0.930 . S
H252 C245 0.929 . S
Cu253 N254 1.999 . S
Cu253 O259 1.974 . S
Cu253 N264 1.985 . S
Cu253 O273 1.959 . S
N254 Cu253 1.999 . S
N254 C256 1.263 . S
N254 C258 1.389 . S
N255 C256 1.358 . S
N255 C257 1.400 . S
C256 N254 1.263 . S
C256 N255 1.358 . S
C256 H262 0.930 . S
C257 N255 1.400 . S
C257 C258 1.351 . S
C257 H274 0.930 . S
C258 N254 1.389 . S
C258 C257 1.351 . S
C258 H263 0.930 . S
O259 Cu253 1.974 . S
O259 C269 1.282 . S
C260 O261 1.261 . S
C260 O273 1.251 . S
O261 C260 1.261 . S
H262 C256 0.930 . S
H263 C258 0.930 . S
N264 Cu253 1.985 . S
N264 C266 1.335 . S
N264 C267 1.390 . S
N265 C266 1.345 . S
N265 C268 1.336 . S
C266 N264 1.335 . S
C266 N265 1.345 . S
C266 H271 0.930 . S
C267 N264 1.390 . S
C267 C268 1.346 . S
C267 H272 0.930 . S
C268 N265 1.336 . S
C268 C267 1.346 . S
C268 H275 0.929 . S
C269 O259 1.282 . S
C269 O270 1.216 . S
O270 C269 1.216 . S
H271 C266 0.930 . S
H272 C267 0.930 . S
O273 Cu253 1.959 . S
O273 C260 1.251 . S
H274 C257 0.930 . S
H275 C268 0.929 . S
Gd276 C279 2.818 . S
Gd276 O296 2.377 . S
Gd276 O298 2.448 . S
Gd276 O299 2.506 . S
Gd276 O300 2.435 . S
Gd276 O301 2.717 . S
Gd276 O303 2.395 . S
Gd276 O307 2.327 . S
Gd277 C288 2.818 . S
Gd277 O297 2.395 . S
Gd277 O301 2.327 . S
Gd277 O302 2.377 . S
Gd277 O304 2.448 . S
Gd277 O305 2.506 . S
Gd277 O306 2.435 . S
Gd277 O307 2.717 . S
C278 O296 1.240 . S
C278 O297 1.240 . S
C279 Gd276 2.818 . S
C279 C280 1.510 . S
C279 O298 1.249 . S
C279 O299 1.252 . S
C280 C279 1.510 . S
C280 C281 1.404 . S
C280 C282 1.352 . S
C281 C280 1.404 . S
C281 C285 1.389 . S
C281 H308 0.930 . S
C282 C280 1.352 . S
C282 C284 1.374 . S
C282 H309 0.931 . S
C283 C284 1.359 . S
C283 C285 1.364 . S
C284 C282 1.374 . S
C284 C283 1.359 . S
C284 H310 0.931 . S
C285 C281 1.389 . S
C285 C283 1.364 . S
C285 H311 0.931 . S
C286 O300 1.256 . S
C286 O301 1.257 . S
C287 O302 1.240 . S
C287 O303 1.240 . S
C288 Gd277 2.818 . S
C288 C289 1.510 . S
C288 O304 1.249 . S
C288 O305 1.252 . S
C289 C288 1.510 . S
C289 C290 1.404 . S
C289 C291 1.352 . S
C290 C289 1.404 . S
C290 C294 1.389 . S
C290 H312 0.930 . S
C291 C289 1.352 . S
C291 C293 1.374 . S
C291 H313 0.931 . S
C292 C293 1.359 . S
C292 C294 1.364 . S
C293 C291 1.374 . S
C293 C292 1.359 . S
C293 H314 0.931 . S
C294 C290 1.389 . S
C294 C292 1.364 . S
C294 H315 0.931 . S
C295 O306 1.256 . S
C295 O307 1.257 . S
O296 Gd276 2.377 . S
O296 C278 1.240 . S
O297 Gd277 2.395 . S
O297 C278 1.240 . S
O298 Gd276 2.448 . S
O298 C279 1.249 . S
O299 Gd276 2.506 . S
O299 C279 1.252 . S
O300 Gd276 2.435 . S
O300 C286 1.256 . S
O301 Gd276 2.717 . S
O301 Gd277 2.327 . S
O301 C286 1.257 . S
O302 Gd277 2.377 . S
O302 C287 1.240 . S
O303 Gd276 2.395 . S
O303 C287 1.240 . S
O304 Gd277 2.448 . S
O304 C288 1.249 . S
O305 Gd277 2.506 . S
O305 C288 1.252 . S
O306 Gd277 2.435 . S
O306 C295 1.256 . S
O307 Gd276 2.327 . S
O307 Gd277 2.717 . S
O307 C295 1.257 . S
H308 C281 0.930 . S
H309 C282 0.931 . S
H310 C284 0.931 . S
H311 C285 0.931 . S
H312 C290 0.930 . S
H313 C291 0.931 . S
H314 C293 0.931 . S
H315 C294 0.931 . S
Gd316 C319 2.818 . S
Gd316 O336 2.377 . S
Gd316 O338 2.448 . S
Gd316 O339 2.506 . S
Gd316 O340 2.435 . S
Gd316 O341 2.717 . S
Gd316 O343 2.395 . S
Gd316 O347 2.327 . S
Gd317 C328 2.818 . S
Gd317 O337 2.395 . S
Gd317 O341 2.327 . S
Gd317 O342 2.377 . S
Gd317 O344 2.448 . S
Gd317 O345 2.506 . S
Gd317 O346 2.435 . S
Gd317 O347 2.717 . S
C318 O336 1.240 . S
C318 O337 1.240 . S
C319 Gd316 2.818 . S
C319 C320 1.510 . S
C319 O338 1.249 . S
C319 O339 1.252 . S
C320 C319 1.510 . S
C320 C321 1.404 . S
C320 C322 1.352 . S
C321 C320 1.404 . S
C321 C325 1.389 . S
C321 H348 0.930 . S
C322 C320 1.352 . S
C322 C324 1.374 . S
C322 H349 0.931 . S
C323 C324 1.359 . S
C323 C325 1.364 . S
C324 C322 1.374 . S
C324 C323 1.359 . S
C324 H350 0.931 . S
C325 C321 1.389 . S
C325 C323 1.364 . S
C325 H351 0.931 . S
C326 O340 1.256 . S
C326 O341 1.257 . S
C327 O342 1.240 . S
C327 O343 1.240 . S
C328 Gd317 2.818 . S
C328 C329 1.510 . S
C328 O344 1.249 . S
C328 O345 1.252 . S
C329 C328 1.510 . S
C329 C330 1.404 . S
C329 C331 1.352 . S
C330 C329 1.404 . S
C330 C334 1.389 . S
C330 H352 0.930 . S
C331 C329 1.352 . S
C331 C333 1.374 . S
C331 H353 0.931 . S
C332 C333 1.359 . S
C332 C334 1.364 . S
C333 C331 1.374 . S
C333 C332 1.359 . S
C333 H354 0.931 . S
C334 C330 1.389 . S
C334 C332 1.364 . S
C334 H355 0.931 . S
C335 O346 1.256 . S
C335 O347 1.257 . S
O336 Gd316 2.377 . S
O336 C318 1.240 . S
O337 Gd317 2.395 . S
O337 C318 1.240 . S
O338 Gd316 2.448 . S
O338 C319 1.249 . S
O339 Gd316 2.506 . S
O339 C319 1.252 . S
O340 Gd316 2.435 . S
O340 C326 1.256 . S
O341 Gd316 2.717 . S
O341 Gd317 2.327 . S
O341 C326 1.257 . S
O342 Gd317 2.377 . S
O342 C327 1.240 . S
O343 Gd316 2.395 . S
O343 C327 1.240 . S
O344 Gd317 2.448 . S
O344 C328 1.249 . S
O345 Gd317 2.506 . S
O345 C328 1.252 . S
O346 Gd317 2.435 . S
O346 C335 1.256 . S
O347 Gd316 2.327 . S
O347 Gd317 2.717 . S
O347 C335 1.257 . S
H348 C321 0.930 . S
H349 C322 0.931 . S
H350 C324 0.931 . S
H351 C325 0.931 . S
H352 C330 0.930 . S
H353 C331 0.931 . S
H354 C333 0.931 . S
H355 C334 0.931 . S
Gd356 C359 2.818 . S
Gd356 O376 2.377 . S
Gd356 O378 2.448 . S
Gd356 O379 2.506 . S
Gd356 O380 2.435 . S
Gd356 O381 2.717 . S
Gd356 O383 2.395 . S
Gd356 O387 2.327 . S
Gd357 C368 2.818 . S
Gd357 O377 2.395 . S
Gd357 O381 2.327 . S
Gd357 O382 2.377 . S
Gd357 O384 2.448 . S
Gd357 O385 2.506 . S
Gd357 O386 2.435 . S
Gd357 O387 2.717 . S
C358 O376 1.240 . S
C358 O377 1.240 . S
C359 Gd356 2.818 . S
C359 C360 1.510 . S
C359 O378 1.249 . S
C359 O379 1.252 . S
C360 C359 1.510 . S
C360 C361 1.404 . S
C360 C362 1.352 . S
C361 C360 1.404 . S
C361 C365 1.389 . S
C361 H388 0.930 . S
C362 C360 1.352 . S
C362 C364 1.374 . S
C362 H389 0.931 . S
C363 C364 1.359 . S
C363 C365 1.364 . S
C364 C362 1.374 . S
C364 C363 1.359 . S
C364 H390 0.931 . S
C365 C361 1.389 . S
C365 C363 1.364 . S
C365 H391 0.931 . S
C366 O380 1.256 . S
C366 O381 1.257 . S
C367 O382 1.240 . S
C367 O383 1.240 . S
C368 Gd357 2.818 . S
C368 C369 1.510 . S
C368 O384 1.249 . S
C368 O385 1.252 . S
C369 C368 1.510 . S
C369 C370 1.404 . S
C369 C371 1.352 . S
C370 C369 1.404 . S
C370 C374 1.389 . S
C370 H392 0.930 . S
C371 C369 1.352 . S
C371 C373 1.374 . S
C371 H393 0.931 . S
C372 C373 1.359 . S
C372 C374 1.364 . S
C373 C371 1.374 . S
C373 C372 1.359 . S
C373 H394 0.931 . S
C374 C370 1.389 . S
C374 C372 1.364 . S
C374 H395 0.931 . S
C375 O386 1.256 . S
C375 O387 1.257 . S
O376 Gd356 2.377 . S
O376 C358 1.240 . S
O377 Gd357 2.395 . S
O377 C358 1.240 . S
O378 Gd356 2.448 . S
O378 C359 1.249 . S
O379 Gd356 2.506 . S
O379 C359 1.252 . S
O380 Gd356 2.435 . S
O380 C366 1.256 . S
O381 Gd356 2.717 . S
O381 Gd357 2.327 . S
O381 C366 1.257 . S
O382 Gd357 2.377 . S
O382 C367 1.240 . S
O383 Gd356 2.395 . S
O383 C367 1.240 . S
O384 Gd357 2.448 . S
O384 C368 1.249 . S
O385 Gd357 2.506 . S
O385 C368 1.252 . S
O386 Gd357 2.435 . S
O386 C375 1.256 . S
O387 Gd356 2.327 . S
O387 Gd357 2.717 . S
O387 C375 1.257 . S
H388 C361 0.930 . S
H389 C362 0.931 . S
H390 C364 0.931 . S
H391 C365 0.931 . S
H392 C370 0.930 . S
H393 C371 0.931 . S
H394 C373 0.931 . S
H395 C374 0.931 . S
Gd396 C399 2.818 . S
Gd396 O416 2.377 . S
Gd396 O418 2.448 . S
Gd396 O419 2.506 . S
Gd396 O420 2.435 . S
Gd396 O421 2.717 . S
Gd396 O423 2.395 . S
Gd396 O427 2.327 . S
Gd397 C408 2.818 . S
Gd397 O417 2.395 . S
Gd397 O421 2.327 . S
Gd397 O422 2.377 . S
Gd397 O424 2.448 . S
Gd397 O425 2.506 . S
Gd397 O426 2.435 . S
Gd397 O427 2.717 . S
C398 O416 1.240 . S
C398 O417 1.240 . S
C399 Gd396 2.818 . S
C399 C400 1.510 . S
C399 O418 1.249 . S
C399 O419 1.252 . S
C400 C399 1.510 . S
C400 C401 1.404 . S
C400 C402 1.352 . S
C401 C400 1.404 . S
C401 C405 1.389 . S
C401 H428 0.930 . S
C402 C400 1.352 . S
C402 C404 1.374 . S
C402 H429 0.931 . S
C403 C404 1.359 . S
C403 C405 1.364 . S
C404 C402 1.374 . S
C404 C403 1.359 . S
C404 H430 0.931 . S
C405 C401 1.389 . S
C405 C403 1.364 . S
C405 H431 0.931 . S
C406 O420 1.256 . S
C406 O421 1.257 . S
C407 O422 1.240 . S
C407 O423 1.240 . S
C408 Gd397 2.818 . S
C408 C409 1.510 . S
C408 O424 1.249 . S
C408 O425 1.252 . S
C409 C408 1.510 . S
C409 C410 1.404 . S
C409 C411 1.352 . S
C410 C409 1.404 . S
C410 C414 1.389 . S
C410 H432 0.930 . S
C411 C409 1.352 . S
C411 C413 1.374 . S
C411 H433 0.931 . S
C412 C413 1.359 . S
C412 C414 1.364 . S
C413 C411 1.374 . S
C413 C412 1.359 . S
C413 H434 0.931 . S
C414 C410 1.389 . S
C414 C412 1.364 . S
C414 H435 0.931 . S
C415 O426 1.256 . S
C415 O427 1.257 . S
O416 Gd396 2.377 . S
O416 C398 1.240 . S
O417 Gd397 2.395 . S
O417 C398 1.240 . S
O418 Gd396 2.448 . S
O418 C399 1.249 . S
O419 Gd396 2.506 . S
O419 C399 1.252 . S
O420 Gd396 2.435 . S
O420 C406 1.256 . S
O421 Gd396 2.717 . S
O421 Gd397 2.327 . S
O421 C406 1.257 . S
O422 Gd397 2.377 . S
O422 C407 1.240 . S
O423 Gd396 2.395 . S
O423 C407 1.240 . S
O424 Gd397 2.448 . S
O424 C408 1.249 . S
O425 Gd397 2.506 . S
O425 C408 1.252 . S
O426 Gd397 2.435 . S
O426 C415 1.256 . S
O427 Gd396 2.327 . S
O427 Gd397 2.717 . S
O427 C415 1.257 . S
H428 C401 0.930 . S
H429 C402 0.931 . S
H430 C404 0.931 . S
H431 C405 0.931 . S
H432 C410 0.930 . S
H433 C411 0.931 . S
H434 C413 0.931 . S
H435 C414 0.931 . S
Gd436 C439 2.818 . S
Gd436 O456 2.377 . S
Gd436 O458 2.448 . S
Gd436 O459 2.506 . S
Gd436 O460 2.435 . S
Gd436 O461 2.717 . S
Gd436 O463 2.395 . S
Gd436 O467 2.327 . S
Gd437 C448 2.818 . S
Gd437 O457 2.395 . S
Gd437 O461 2.327 . S
Gd437 O462 2.377 . S
Gd437 O464 2.448 . S
Gd437 O465 2.506 . S
Gd437 O466 2.435 . S
Gd437 O467 2.717 . S
C438 O456 1.240 . S
C438 O457 1.240 . S
C439 Gd436 2.818 . S
C439 C440 1.510 . S
C439 O458 1.249 . S
C439 O459 1.252 . S
C440 C439 1.510 . S
C440 C441 1.404 . S
C440 C442 1.352 . S
C441 C440 1.404 . S
C441 C445 1.389 . S
C441 H468 0.930 . S
C442 C440 1.352 . S
C442 C444 1.374 . S
C442 H469 0.931 . S
C443 C444 1.359 . S
C443 C445 1.364 . S
C444 C442 1.374 . S
C444 C443 1.359 . S
C444 H470 0.931 . S
C445 C441 1.389 . S
C445 C443 1.364 . S
C445 H471 0.931 . S
C446 O460 1.256 . S
C446 O461 1.257 . S
C447 O462 1.240 . S
C447 O463 1.240 . S
C448 Gd437 2.818 . S
C448 C449 1.510 . S
C448 O464 1.249 . S
C448 O465 1.252 . S
C449 C448 1.510 . S
C449 C450 1.404 . S
C449 C451 1.352 . S
C450 C449 1.404 . S
C450 C454 1.389 . S
C450 H472 0.930 . S
C451 C449 1.352 . S
C451 C453 1.374 . S
C451 H473 0.931 . S
C452 C453 1.359 . S
C452 C454 1.364 . S
C453 C451 1.374 . S
C453 C452 1.359 . S
C453 H474 0.931 . S
C454 C450 1.389 . S
C454 C452 1.364 . S
C454 H475 0.931 . S
C455 O466 1.256 . S
C455 O467 1.257 . S
O456 Gd436 2.377 . S
O456 C438 1.240 . S
O457 Gd437 2.395 . S
O457 C438 1.240 . S
O458 Gd436 2.448 . S
O458 C439 1.249 . S
O459 Gd436 2.506 . S
O459 C439 1.252 . S
O460 Gd436 2.435 . S
O460 C446 1.256 . S
O461 Gd436 2.717 . S
O461 Gd437 2.327 . S
O461 C446 1.257 . S
O462 Gd437 2.377 . S
O462 C447 1.240 . S
O463 Gd436 2.395 . S
O463 C447 1.240 . S
O464 Gd437 2.448 . S
O464 C448 1.249 . S
O465 Gd437 2.506 . S
O465 C448 1.252 . S
O466 Gd437 2.435 . S
O466 C455 1.256 . S
O467 Gd436 2.327 . S
O467 Gd437 2.717 . S
O467 C455 1.257 . S
H468 C441 0.930 . S
H469 C442 0.931 . S
H470 C444 0.931 . S
H471 C445 0.931 . S
H472 C450 0.930 . S
H473 C451 0.931 . S
H474 C453 0.931 . S
H475 C454 0.931 . S
Gd476 C479 2.818 . S
Gd476 O496 2.377 . S
Gd476 O498 2.448 . S
Gd476 O499 2.506 . S
Gd476 O500 2.435 . S
Gd476 O501 2.717 . S
Gd476 O503 2.395 . S
Gd476 O507 2.327 . S
Gd477 C488 2.818 . S
Gd477 O497 2.395 . S
Gd477 O501 2.327 . S
Gd477 O502 2.377 . S
Gd477 O504 2.448 . S
Gd477 O505 2.506 . S
Gd477 O506 2.435 . S
Gd477 O507 2.717 . S
C478 O496 1.240 . S
C478 O497 1.240 . S
C479 Gd476 2.818 . S
C479 C480 1.510 . S
C479 O498 1.249 . S
C479 O499 1.252 . S
C480 C479 1.510 . S
C480 C481 1.404 . S
C480 C482 1.352 . S
C481 C480 1.404 . S
C481 C485 1.389 . S
C481 H508 0.930 . S
C482 C480 1.352 . S
C482 C484 1.374 . S
C482 H509 0.931 . S
C483 C484 1.359 . S
C483 C485 1.364 . S
C484 C482 1.374 . S
C484 C483 1.359 . S
C484 H510 0.931 . S
C485 C481 1.389 . S
C485 C483 1.364 . S
C485 H511 0.931 . S
C486 O500 1.256 . S
C486 O501 1.257 . S
C487 O502 1.240 . S
C487 O503 1.240 . S
C488 Gd477 2.818 . S
C488 C489 1.510 . S
C488 O504 1.249 . S
C488 O505 1.252 . S
C489 C488 1.510 . S
C489 C490 1.404 . S
C489 C491 1.352 . S
C490 C489 1.404 . S
C490 C494 1.389 . S
C490 H512 0.930 . S
C491 C489 1.352 . S
C491 C493 1.374 . S
C491 H513 0.931 . S
C492 C493 1.359 . S
C492 C494 1.364 . S
C493 C491 1.374 . S
C493 C492 1.359 . S
C493 H514 0.931 . S
C494 C490 1.389 . S
C494 C492 1.364 . S
C494 H515 0.931 . S
C495 O506 1.256 . S
C495 O507 1.257 . S
O496 Gd476 2.377 . S
O496 C478 1.240 . S
O497 Gd477 2.395 . S
O497 C478 1.240 . S
O498 Gd476 2.448 . S
O498 C479 1.249 . S
O499 Gd476 2.506 . S
O499 C479 1.252 . S
O500 Gd476 2.435 . S
O500 C486 1.256 . S
O501 Gd476 2.717 . S
O501 Gd477 2.327 . S
O501 C486 1.257 . S
O502 Gd477 2.377 . S
O502 C487 1.240 . S
O503 Gd476 2.395 . S
O503 C487 1.240 . S
O504 Gd477 2.448 . S
O504 C488 1.249 . S
O505 Gd477 2.506 . S
O505 C488 1.252 . S
O506 Gd477 2.435 . S
O506 C495 1.256 . S
O507 Gd476 2.327 . S
O507 Gd477 2.717 . S
O507 C495 1.257 . S
H508 C481 0.930 . S
H509 C482 0.931 . S
H510 C484 0.931 . S
H511 C485 0.931 . S
H512 C490 0.930 . S
H513 C491 0.931 . S
H514 C493 0.931 . S
H515 C494 0.931 . S
Gd516 C519 2.818 . S
Gd516 O536 2.377 . S
Gd516 O538 2.448 . S
Gd516 O539 2.506 . S
Gd516 O540 2.435 . S
Gd516 O541 2.717 . S
Gd516 O543 2.395 . S
Gd516 O547 2.327 . S
Gd517 C528 2.818 . S
Gd517 O537 2.395 . S
Gd517 O541 2.327 . S
Gd517 O542 2.377 . S
Gd517 O544 2.448 . S
Gd517 O545 2.506 . S
Gd517 O546 2.435 . S
Gd517 O547 2.717 . S
C518 O536 1.240 . S
C518 O537 1.240 . S
C519 Gd516 2.818 . S
C519 C520 1.510 . S
C519 O538 1.249 . S
C519 O539 1.252 . S
C520 C519 1.510 . S
C520 C521 1.404 . S
C520 C522 1.352 . S
C521 C520 1.404 . S
C521 C525 1.389 . S
C521 H548 0.930 . S
C522 C520 1.352 . S
C522 C524 1.374 . S
C522 H549 0.931 . S
C523 C524 1.359 . S
C523 C525 1.364 . S
C524 C522 1.374 . S
C524 C523 1.359 . S
C524 H550 0.931 . S
C525 C521 1.389 . S
C525 C523 1.364 . S
C525 H551 0.931 . S
C526 O540 1.256 . S
C526 O541 1.257 . S
C527 O542 1.240 . S
C527 O543 1.240 . S
C528 Gd517 2.818 . S
C528 C529 1.510 . S
C528 O544 1.249 . S
C528 O545 1.252 . S
C529 C528 1.510 . S
C529 C530 1.404 . S
C529 C531 1.352 . S
C530 C529 1.404 . S
C530 C534 1.389 . S
C530 H552 0.930 . S
C531 C529 1.352 . S
C531 C533 1.374 . S
C531 H553 0.931 . S
C532 C533 1.359 . S
C532 C534 1.364 . S
C533 C531 1.374 . S
C533 C532 1.359 . S
C533 H554 0.931 . S
C534 C530 1.389 . S
C534 C532 1.364 . S
C534 H555 0.931 . S
C535 O546 1.256 . S
C535 O547 1.257 . S
O536 Gd516 2.377 . S
O536 C518 1.240 . S
O537 Gd517 2.395 . S
O537 C518 1.240 . S
O538 Gd516 2.448 . S
O538 C519 1.249 . S
O539 Gd516 2.506 . S
O539 C519 1.252 . S
O540 Gd516 2.435 . S
O540 C526 1.256 . S
O541 Gd516 2.717 . S
O541 Gd517 2.327 . S
O541 C526 1.257 . S
O542 Gd517 2.377 . S
O542 C527 1.240 . S
O543 Gd516 2.395 . S
O543 C527 1.240 . S
O544 Gd517 2.448 . S
O544 C528 1.249 . S
O545 Gd517 2.506 . S
O545 C528 1.252 . S
O546 Gd517 2.435 . S
O546 C535 1.256 . S
O547 Gd516 2.327 . S
O547 Gd517 2.717 . S
O547 C535 1.257 . S
H548 C521 0.930 . S
H549 C522 0.931 . S
H550 C524 0.931 . S
H551 C525 0.931 . S
H552 C530 0.930 . S
H553 C531 0.931 . S
H554 C533 0.931 . S
H555 C534 0.931 . S
Gd556 C559 2.818 . S
Gd556 O576 2.377 . S
Gd556 O578 2.448 . S
Gd556 O579 2.506 . S
Gd556 O580 2.435 . S
Gd556 O581 2.717 . S
Gd556 O583 2.395 . S
Gd556 O587 2.327 . S
Gd557 C568 2.818 . S
Gd557 O577 2.395 . S
Gd557 O581 2.327 . S
Gd557 O582 2.377 . S
Gd557 O584 2.448 . S
Gd557 O585 2.506 . S
Gd557 O586 2.435 . S
Gd557 O587 2.717 . S
C558 O576 1.240 . S
C558 O577 1.240 . S
C559 Gd556 2.818 . S
C559 C560 1.510 . S
C559 O578 1.249 . S
C559 O579 1.252 . S
C560 C559 1.510 . S
C560 C561 1.404 . S
C560 C562 1.352 . S
C561 C560 1.404 . S
C561 C565 1.389 . S
C561 H588 0.930 . S
C562 C560 1.352 . S
C562 C564 1.374 . S
C562 H589 0.931 . S
C563 C564 1.359 . S
C563 C565 1.364 . S
C564 C562 1.374 . S
C564 C563 1.359 . S
C564 H590 0.931 . S
C565 C561 1.389 . S
C565 C563 1.364 . S
C565 H591 0.931 . S
C566 O580 1.256 . S
C566 O581 1.257 . S
C567 O582 1.240 . S
C567 O583 1.240 . S
C568 Gd557 2.818 . S
C568 C569 1.510 . S
C568 O584 1.249 . S
C568 O585 1.252 . S
C569 C568 1.510 . S
C569 C570 1.404 . S
C569 C571 1.352 . S
C570 C569 1.404 . S
C570 C574 1.389 . S
C570 H592 0.930 . S
C571 C569 1.352 . S
C571 C573 1.374 . S
C571 H593 0.931 . S
C572 C573 1.359 . S
C572 C574 1.364 . S
C573 C571 1.374 . S
C573 C572 1.359 . S
C573 H594 0.931 . S
C574 C570 1.389 . S
C574 C572 1.364 . S
C574 H595 0.931 . S
C575 O586 1.256 . S
C575 O587 1.257 . S
O576 Gd556 2.377 . S
O576 C558 1.240 . S
O577 Gd557 2.395 . S
O577 C558 1.240 . S
O578 Gd556 2.448 . S
O578 C559 1.249 . S
O579 Gd556 2.506 . S
O579 C559 1.252 . S
O580 Gd556 2.435 . S
O580 C566 1.256 . S
O581 Gd556 2.717 . S
O581 Gd557 2.327 . S
O581 C566 1.257 . S
O582 Gd557 2.377 . S
O582 C567 1.240 . S
O583 Gd556 2.395 . S
O583 C567 1.240 . S
O584 Gd557 2.448 . S
O584 C568 1.249 . S
O585 Gd557 2.506 . S
O585 C568 1.252 . S
O586 Gd557 2.435 . S
O586 C575 1.256 . S
O587 Gd556 2.327 . S
O587 Gd557 2.717 . S
O587 C575 1.257 . S
H588 C561 0.930 . S
H589 C562 0.931 . S
H590 C564 0.931 . S
H591 C565 0.931 . S
H592 C570 0.930 . S
H593 C571 0.931 . S
H594 C573 0.931 . S
H595 C574 0.931 . S
H596 C602 0.930 . S
H597 C605 0.930 . S
H598 C606 0.930 . S
H599 C607 0.930 . S
H600 C610 0.930 . S
H601 C611 0.930 . S
C602 H596 0.930 . S
C602 C603 1.355 . S
C602 C604 1.415 . S
C603 C602 1.355 . S
C603 C605 1.419 . S
C604 C602 1.415 . S
C604 C609 1.425 . S
C604 C611 1.409 . S
C605 H597 0.930 . S
C605 C603 1.419 . S
C605 C606 1.362 . S
C606 H598 0.930 . S
C606 C605 1.362 . S
C606 C609 1.409 . S
C607 H599 0.930 . S
C607 C608 1.355 . S
C607 C609 1.415 . S
C608 C607 1.355 . S
C608 C610 1.419 . S
C609 C604 1.425 . S
C609 C606 1.409 . S
C609 C607 1.415 . S
C610 H600 0.930 . S
C610 C608 1.419 . S
C610 C611 1.362 . S
C611 H601 0.930 . S
C611 C604 1.409 . S
C611 C610 1.362 . S
H612 C618 0.930 . S
H613 C621 0.930 . S
H614 C622 0.930 . S
H615 C623 0.930 . S
H616 C626 0.930 . S
H617 C627 0.930 . S
C618 H612 0.930 . S
C618 C619 1.355 . S
C618 C620 1.415 . S
C619 C618 1.355 . S
C619 C621 1.419 . S
C620 C618 1.415 . S
C620 C625 1.425 . S
C620 C627 1.409 . S
C621 H613 0.930 . S
C621 C619 1.419 . S
C621 C622 1.362 . S
C622 H614 0.930 . S
C622 C621 1.362 . S
C622 C625 1.409 . S
C623 H615 0.930 . S
C623 C624 1.355 . S
C623 C625 1.415 . S
C624 C623 1.355 . S
C624 C626 1.419 . S
C625 C620 1.425 . S
C625 C622 1.409 . S
C625 C623 1.415 . S
C626 H616 0.930 . S
C626 C624 1.419 . S
C626 C627 1.362 . S
C627 H617 0.930 . S
C627 C620 1.409 . S
C627 C626 1.362 . S
H628 C634 0.930 . S
H629 C637 0.930 1_455 S
H630 C638 0.930 1_455 S
H631 C639 0.930 . S
H632 C642 0.930 . S
H633 C643 0.930 . S
C634 H628 0.930 . S
C634 C635 1.355 . S
C634 C636 1.415 . S
C635 C634 1.355 . S
C635 C637 1.419 . S
C636 C634 1.415 . S
C636 C641 1.425 . S
C636 C643 1.409 . S
C637 H629 0.930 1_655 S
C637 C635 1.419 . S
C637 C638 1.362 . S
C638 H630 0.930 1_655 S
C638 C637 1.362 . S
C638 C641 1.409 . S
C639 H631 0.930 . S
C639 C640 1.355 . S
C639 C641 1.415 . S
C640 C639 1.355 . S
C640 C642 1.419 . S
C641 C636 1.425 . S
C641 C638 1.409 . S
C641 C639 1.415 . S
C642 H632 0.930 . S
C642 C640 1.419 . S
C642 C643 1.362 . S
C643 H633 0.930 . S
C643 C636 1.409 . S
C643 C642 1.362 . S
H644 C650 0.930 . S
H645 C653 0.930 . S
H646 C654 0.930 . S
H647 C655 0.930 . S
H648 C658 0.930 . S
H649 C659 0.930 . S
C650 H644 0.930 . S
C650 C651 1.355 . S
C650 C652 1.415 . S
C651 C650 1.355 . S
C651 C653 1.419 . S
C652 C650 1.415 . S
C652 C657 1.425 . S
C652 C659 1.409 . S
C653 H645 0.930 . S
C653 C651 1.419 . S
C653 C654 1.362 . S
C654 H646 0.930 . S
C654 C653 1.362 . S
C654 C657 1.409 . S
C655 H647 0.930 . S
C655 C656 1.355 . S
C655 C657 1.415 . S
C656 C655 1.355 . S
C656 C658 1.419 . S
C657 C652 1.425 . S
C657 C654 1.409 . S
C657 C655 1.415 . S
C658 H648 0.930 . S
C658 C656 1.419 . S
C658 C659 1.362 . S
C659 H649 0.930 . S
C659 C652 1.409 . S
C659 C658 1.362 . S
H660 C666 0.930 . S
H661 C669 0.930 . S
H662 C670 0.930 . S
H663 C671 0.930 . S
H664 C674 0.930 . S
H665 C675 0.930 . S
C666 H660 0.930 . S
C666 C667 1.355 . S
C666 C668 1.415 . S
C667 C666 1.355 . S
C667 C669 1.419 . S
C668 C666 1.415 . S
C668 C673 1.425 . S
C668 C675 1.409 . S
C669 H661 0.930 . S
C669 C667 1.419 . S
C669 C670 1.362 . S
C670 H662 0.930 . S
C670 C669 1.362 . S
C670 C673 1.409 . S
C671 H663 0.930 . S
C671 C672 1.355 . S
C671 C673 1.415 . S
C672 C671 1.355 . S
C672 C674 1.419 . S
C673 C668 1.425 . S
C673 C670 1.409 . S
C673 C671 1.415 . S
C674 H664 0.930 . S
C674 C672 1.419 . S
C674 C675 1.362 . S
C675 H665 0.930 . S
C675 C668 1.409 . S
C675 C674 1.362 . S
H676 C682 0.930 . S
H677 C685 0.930 . S
H678 C686 0.930 . S
H679 C687 0.930 . S
H680 C690 0.930 . S
H681 C691 0.930 . S
C682 H676 0.930 . S
C682 C683 1.355 . S
C682 C684 1.415 . S
C683 C682 1.355 . S
C683 C685 1.419 . S
C684 C682 1.415 . S
C684 C689 1.425 . S
C684 C691 1.409 . S
C685 H677 0.930 . S
C685 C683 1.419 . S
C685 C686 1.362 . S
C686 H678 0.930 . S
C686 C685 1.362 . S
C686 C689 1.409 . S
C687 H679 0.930 . S
C687 C688 1.355 . S
C687 C689 1.415 . S
C688 C687 1.355 . S
C688 C690 1.419 . S
C689 C684 1.425 . S
C689 C686 1.409 . S
C689 C687 1.415 . S
C690 H680 0.930 . S
C690 C688 1.419 . S
C690 C691 1.362 . S
C691 H681 0.930 . S
C691 C684 1.409 . S
C691 C690 1.362 . S
H692 C698 0.930 . S
H693 C701 0.930 . S
H694 C702 0.930 . S
H695 C703 0.930 . S
H696 C706 0.930 . S
H697 C707 0.930 . S
C698 H692 0.930 . S
C698 C699 1.355 . S
C698 C700 1.415 . S
C699 C698 1.355 . S
C699 C701 1.419 . S
C700 C698 1.415 . S
C700 C705 1.425 . S
C700 C707 1.409 . S
C701 H693 0.930 . S
C701 C699 1.419 . S
C701 C702 1.362 . S
C702 H694 0.930 . S
C702 C701 1.362 . S
C702 C705 1.409 . S
C703 H695 0.930 . S
C703 C704 1.355 . S
C703 C705 1.415 . S
C704 C703 1.355 . S
C704 C706 1.419 . S
C705 C700 1.425 . S
C705 C702 1.409 . S
C705 C703 1.415 . S
C706 H696 0.930 . S
C706 C704 1.419 . S
C706 C707 1.362 . S
C707 H697 0.930 . S
C707 C700 1.409 . S
C707 C706 1.362 . S
H708 C714 0.930 . S
H709 C717 0.930 . S
H710 C718 0.930 . S
H711 C719 0.930 . S
H712 C722 0.930 . S
H713 C723 0.930 . S
C714 H708 0.930 . S
C714 C715 1.355 . S
C714 C716 1.415 1_545 S
C715 C714 1.355 . S
C715 C717 1.415 1_545 S
C716 C714 1.415 1_565 S
C716 C721 1.425 . S
C716 C723 1.409 1_565 S
C717 H709 0.930 . S
C717 C715 1.415 1_565 S
C717 C718 1.362 . S
C718 H710 0.930 . S
C718 C717 1.362 . S
C718 C721 1.409 . S
C719 H711 0.930 . S
C719 C720 1.355 . S
C719 C721 1.415 . S
C720 C719 1.355 . S
C720 C722 1.419 . S
C721 C716 1.425 . S
C721 C718 1.409 . S
C721 C719 1.415 . S
C722 H712 0.930 . S
C722 C720 1.419 . S
C722 C723 1.362 1_565 S
C723 H713 0.930 . S
C723 C716 1.409 1_545 S
C723 C722 1.362 1_545 S
H724 C730 0.930 . S
H725 C733 0.930 . S
H726 C734 0.930 . S
H727 C735 0.930 . S
H728 C738 0.930 . S
H729 C739 0.930 . S
C730 H724 0.930 . S
C730 C731 1.355 . S
C730 C732 1.415 . S
C731 C730 1.355 . S
C731 C733 1.419 . S
C732 C730 1.415 . S
C732 C737 1.425 . S
C732 C739 1.409 . S
C733 H725 0.930 . S
C733 C731 1.419 . S
C733 C734 1.362 . S
C734 H726 0.930 . S
C734 C733 1.362 . S
C734 C737 1.409 . S
C735 H727 0.930 . S
C735 C736 1.355 . S
C735 C737 1.415 . S
C736 C735 1.355 . S
C736 C738 1.419 . S
C737 C732 1.425 . S
C737 C734 1.409 . S
C737 C735 1.415 . S
C738 H728 0.930 . S
C738 C736 1.419 . S
C738 C739 1.362 . S
C739 H729 0.930 . S
C739 C732 1.409 . S
C739 C738 1.362 . S
H740 C746 0.930 . S
H741 C749 0.930 . S
H742 C750 0.930 . S
H743 C751 0.930 . S
H744 C754 0.930 . S
H745 C755 0.930 . S
C746 H740 0.930 . S
C746 C747 1.355 . S
C746 C748 1.415 . S
C747 C746 1.355 . S
C747 C749 1.419 . S
C748 C746 1.415 . S
C748 C753 1.425 . S
C748 C755 1.409 . S
C749 H741 0.930 . S
C749 C747 1.419 . S
C749 C750 1.362 . S
C750 H742 0.930 . S
C750 C749 1.362 . S
C750 C753 1.409 . S
C751 H743 0.930 . S
C751 C752 1.355 . S
C751 C753 1.415 . S
C752 C751 1.355 . S
C752 C754 1.419 . S
C753 C748 1.425 . S
C753 C750 1.409 . S
C753 C751 1.415 . S
C754 H744 0.930 . S
C754 C752 1.419 . S
C754 C755 1.362 . S
C755 H745 0.930 . S
C755 C748 1.409 . S
C755 C754 1.362 . S
H756 C762 0.930 . S
H757 C765 0.930 . S
H758 C766 0.930 . S
H759 C767 0.930 . S
H760 C770 0.930 . S
H761 C771 0.930 . S
C762 H756 0.930 . S
C762 C763 1.355 . S
C762 C764 1.415 . S
C763 C762 1.355 . S
C763 C765 1.419 . S
C764 C762 1.415 . S
C764 C769 1.425 . S
C764 C771 1.409 . S
C765 H757 0.930 . S
C765 C763 1.419 . S
C765 C766 1.362 . S
C766 H758 0.930 . S
C766 C765 1.362 . S
C766 C769 1.409 . S
C767 H759 0.930 . S
C767 C768 1.355 . S
C767 C769 1.415 . S
C768 C767 1.355 . S
C768 C770 1.419 . S
C769 C764 1.425 . S
C769 C766 1.409 . S
C769 C767 1.415 . S
C770 H760 0.930 . S
C770 C768 1.419 . S
C770 C771 1.362 . S
C771 H761 0.930 . S
C771 C764 1.409 . S
C771 C770 1.362 . S
H772 C778 0.930 . S
H773 C781 0.930 . S
H774 C782 0.930 . S
H775 C783 0.930 . S
H776 C786 0.930 . S
H777 C787 0.930 . S
C778 H772 0.930 . S
C778 C779 1.355 . S
C778 C780 1.415 . S
C779 C778 1.355 . S
C779 C781 1.419 . S
C780 C778 1.415 . S
C780 C785 1.425 . S
C780 C787 1.409 . S
C781 H773 0.930 . S
C781 C779 1.419 . S
C781 C782 1.362 . S
C782 H774 0.930 . S
C782 C781 1.362 . S
C782 C785 1.409 . S
C783 H775 0.930 . S
C783 C784 1.355 . S
C783 C785 1.415 . S
C784 C783 1.355 . S
C784 C786 1.419 . S
C785 C780 1.425 . S
C785 C782 1.409 . S
C785 C783 1.415 . S
C786 H776 0.930 . S
C786 C784 1.419 . S
C786 C787 1.362 . S
C787 H777 0.930 . S
C787 C780 1.409 . S
C787 C786 1.362 . S
H788 C794 0.945 1_545 S
H789 C797 0.930 . S
H790 C798 0.930 . S
H791 C799 0.930 . S
H792 C802 0.930 . S
H793 C803 0.930 . S
C794 H788 0.945 1_565 S
C794 C795 1.331 1_556 S
C794 C796 1.424 . S
C795 C794 1.331 1_554 S
C795 C797 1.419 . S
C796 C794 1.424 . S
C796 C801 1.425 1_556 S
C796 C803 1.409 . S
C797 H789 0.930 . S
C797 C795 1.419 . S
C797 C798 1.362 . S
C798 H790 0.930 . S
C798 C797 1.362 . S
C798 C801 1.409 . S
C799 H791 0.930 . S
C799 C800 1.355 1_554 S
C799 C801 1.415 . S
C800 C799 1.355 1_556 S
C800 C802 1.419 . S
C801 C796 1.425 1_554 S
C801 C798 1.409 . S
C801 C799 1.415 . S
C802 H792 0.930 . S
C802 C800 1.419 . S
C802 C803 1.362 . S
C803 H793 0.930 . S
C803 C796 1.409 . S
C803 C802 1.362 . S
H804 C810 0.930 . S
H805 C813 0.930 . S
H806 C814 0.930 . S
H807 C815 0.930 . S
H808 C818 0.930 . S
H809 C819 0.930 . S
C810 H804 0.930 . S
C810 C811 1.355 . S
C810 C812 1.415 . S
C811 C810 1.355 . S
C811 C813 1.419 . S
C812 C810 1.415 . S
C812 C817 1.425 . S
C812 C819 1.409 . S
C813 H805 0.930 . S
C813 C811 1.419 . S
C813 C814 1.362 . S
C814 H806 0.930 . S
C814 C813 1.362 . S
C814 C817 1.409 . S
C815 H807 0.930 . S
C815 C816 1.355 . S
C815 C817 1.415 . S
C816 C815 1.355 . S
C816 C818 1.419 . S
C817 C812 1.425 . S
C817 C814 1.409 . S
C817 C815 1.415 . S
C818 H808 0.930 . S
C818 C816 1.419 . S
C818 C819 1.362 . S
C819 H809 0.930 . S
C819 C812 1.409 . S
C819 C818 1.362 . S
H820 C826 0.930 . S
H821 C829 0.930 . S
H822 C830 0.930 . S
H823 C831 0.930 . S
H824 C834 0.930 . S
H825 C835 0.930 . S
C826 H820 0.930 . S
C826 C827 1.355 . S
C826 C828 1.415 . S
C827 C826 1.355 . S
C827 C829 1.419 . S
C828 C826 1.415 . S
C828 C833 1.425 . S
C828 C835 1.409 . S
C829 H821 0.930 . S
C829 C827 1.419 . S
C829 C830 1.362 . S
C830 H822 0.930 . S
C830 C829 1.362 . S
C830 C833 1.409 . S
C831 H823 0.930 . S
C831 C832 1.355 . S
C831 C833 1.415 . S
C832 C831 1.355 . S
C832 C834 1.419 . S
C833 C828 1.425 . S
C833 C830 1.409 . S
C833 C831 1.415 . S
C834 H824 0.930 . S
C834 C832 1.419 . S
C834 C835 1.362 . S
C835 H825 0.930 . S
C835 C828 1.409 . S
C835 C834 1.362 . S
H836 C842 0.930 . S
H837 C845 0.930 . S
H838 C846 0.930 . S
H839 C847 0.930 . S
H840 C850 0.930 . S
H841 C851 0.930 . S
C842 H836 0.930 . S
C842 C843 1.355 . S
C842 C844 1.415 . S
C843 C842 1.355 . S
C843 C845 1.419 . S
C844 C842 1.415 . S
C844 C849 1.425 . S
C844 C851 1.409 . S
C845 H837 0.930 . S
C845 C843 1.419 . S
C845 C846 1.362 . S
C846 H838 0.930 . S
C846 C845 1.362 . S
C846 C849 1.409 . S
C847 H839 0.930 . S
C847 C848 1.355 . S
C847 C849 1.415 . S
C848 C847 1.355 . S
C848 C850 1.419 . S
C849 C844 1.425 . S
C849 C846 1.409 . S
C849 C847 1.415 . S
C850 H840 0.930 . S
C850 C848 1.419 . S
C850 C851 1.362 . S
C851 H841 0.930 . S
C851 C844 1.409 . S
C851 C850 1.362 . S
H852 C858 0.930 . S
H853 C861 0.930 . S
H854 C862 0.930 . S
H855 C863 0.930 . S
H856 C866 0.930 . S
H857 C867 0.930 . S
C858 H852 0.930 . S
C858 C859 1.355 . S
C858 C860 1.415 . S
C859 C858 1.355 . S
C859 C861 1.419 . S
C860 C858 1.415 . S
C860 C865 1.425 . S
C860 C867 1.409 . S
C861 H853 0.930 . S
C861 C859 1.419 . S
C861 C862 1.362 . S
C862 H854 0.930 . S
C862 C861 1.362 . S
C862 C865 1.409 . S
C863 H855 0.930 . S
C863 C864 1.355 . S
C863 C865 1.415 . S
C864 C863 1.355 . S
C864 C866 1.419 . S
C865 C860 1.425 . S
C865 C862 1.409 . S
C865 C863 1.415 . S
C866 H856 0.930 . S
C866 C864 1.419 . S
C866 C867 1.362 . S
C867 H857 0.930 . S
C867 C860 1.409 . S
C867 C866 1.362 . S
H868 C874 0.930 . S
H869 C877 0.930 . S
H870 C878 0.930 . S
H871 C879 0.930 . S
H872 C882 0.930 . S
H873 C883 0.930 . S
C874 H868 0.930 . S
C874 C875 1.355 . S
C874 C876 1.415 . S
C875 C874 1.355 . S
C875 C877 1.419 . S
C876 C874 1.415 . S
C876 C881 1.425 . S
C876 C883 1.409 . S
C877 H869 0.930 . S
C877 C875 1.419 . S
C877 C878 1.362 . S
C878 H870 0.930 . S
C878 C877 1.362 . S
C878 C881 1.409 . S
C879 H871 0.930 . S
C879 C880 1.355 . S
C879 C881 1.415 . S
C880 C879 1.355 . S
C880 C882 1.419 . S
C881 C876 1.425 . S
C881 C878 1.409 . S
C881 C879 1.415 . S
C882 H872 0.930 . S
C882 C880 1.419 . S
C882 C883 1.362 . S
C883 H873 0.930 . S
C883 C876 1.409 . S
C883 C882 1.362 . S
H884 C890 0.930 . S
H885 C893 0.930 . S
H886 C894 0.930 . S
H887 C895 0.930 . S
H888 C898 0.930 . S
H889 C899 0.930 . S
C890 H884 0.930 . S
C890 C891 1.355 . S
C890 C892 1.415 1_554 S
C891 C890 1.355 . S
C891 C893 1.419 1_554 S
C892 C890 1.415 1_556 S
C892 C897 1.425 . S
C892 C899 1.409 . S
C893 H885 0.930 . S
C893 C891 1.419 1_556 S
C893 C894 1.362 . S
C894 H886 0.930 . S
C894 C893 1.362 . S
C894 C897 1.409 . S
C895 H887 0.930 . S
C895 C896 1.355 . S
C895 C897 1.415 . S
C896 C895 1.355 . S
C896 C898 1.419 . S
C897 C892 1.425 . S
C897 C894 1.409 . S
C897 C895 1.415 . S
C898 H888 0.930 . S
C898 C896 1.419 . S
C898 C899 1.362 . S
C899 H889 0.930 . S
C899 C892 1.409 . S
C899 C898 1.362 . S
H900 C906 0.930 1_455 S
H901 C909 0.930 . S
H902 C910 0.930 . S
H903 C911 0.930 . S
H904 C914 0.930 . S
H905 C915 0.930 . S
C906 H900 0.930 1_655 S
C906 C907 1.355 1_556 S
C906 C908 1.415 . S
C907 C906 1.355 1_554 S
C907 C909 1.419 . S
C908 C906 1.415 . S
C908 C913 1.425 1_556 S
C908 C915 1.409 . S
C909 H901 0.930 . S
C909 C907 1.419 . S
C909 C910 1.362 . S
C910 H902 0.930 . S
C910 C909 1.362 . S
C910 C913 1.409 . S
C911 H903 0.930 . S
C911 C912 1.355 1_554 S
C911 C913 1.415 . S
C912 C911 1.355 1_556 S
C912 C914 1.419 . S
C913 C908 1.425 1_554 S
C913 C910 1.409 . S
C913 C911 1.415 . S
C914 H904 0.930 . S
C914 C912 1.419 . S
C914 C915 1.362 . S
C915 H905 0.930 . S
C915 C908 1.409 . S
C915 C914 1.362 . S
H916 C922 0.930 . S
H917 C925 0.930 . S
H918 C926 0.930 . S
H919 C927 0.930 . S
H920 C930 0.930 . S
H921 C931 0.930 . S
C922 H916 0.930 . S
C922 C923 1.355 . S
C922 C924 1.415 . S
C923 C922 1.355 . S
C923 C925 1.419 . S
C924 C922 1.415 . S
C924 C929 1.425 . S
C924 C931 1.409 . S
C925 H917 0.930 . S
C925 C923 1.419 . S
C925 C926 1.362 . S
C926 H918 0.930 . S
C926 C925 1.362 . S
C926 C929 1.409 . S
C927 H919 0.930 . S
C927 C928 1.355 . S
C927 C929 1.415 . S
C928 C927 1.355 . S
C928 C930 1.419 . S
C929 C924 1.425 . S
C929 C926 1.409 . S
C929 C927 1.415 . S
C930 H920 0.930 . S
C930 C928 1.419 . S
C930 C931 1.362 . S
C931 H921 0.930 . S
C931 C924 1.409 . S
C931 C930 1.362 . S
H932 C938 0.930 . S
H933 C941 0.930 . S
H934 C942 0.930 . S
H935 C943 0.930 . S
H936 C946 0.930 . S
H937 C947 0.930 . S
C938 H932 0.930 . S
C938 C939 1.355 . S
C938 C940 1.415 . S
C939 C938 1.355 . S
C939 C941 1.419 . S
C940 C938 1.415 . S
C940 C945 1.425 . S
C940 C947 1.409 . S
C941 H933 0.930 . S
C941 C939 1.419 . S
C941 C942 1.362 . S
C942 H934 0.930 . S
C942 C941 1.362 . S
C942 C945 1.409 . S
C943 H935 0.930 . S
C943 C944 1.355 . S
C943 C945 1.415 . S
C944 C943 1.355 . S
C944 C946 1.419 . S
C945 C940 1.425 . S
C945 C942 1.409 . S
C945 C943 1.415 . S
C946 H936 0.930 . S
C946 C944 1.419 . S
C946 C947 1.362 . S
C947 H937 0.930 . S
C947 C940 1.409 . S
C947 C946 1.362 . S
H948 C954 0.930 . S
H949 C957 0.940 . S
H950 C958 0.930 . S
H951 C959 0.930 . S
H952 C962 0.930 . S
H953 C963 0.930 . S
C954 H948 0.930 . S
C954 C955 1.355 . S
C954 C956 1.415 . S
C955 C954 1.355 . S
C955 C957 1.419 . S
C956 C954 1.415 . S
C956 C961 1.425 . S
C956 C963 1.409 . S
C957 H949 0.940 . S
C957 C955 1.419 . S
C957 C958 1.362 . S
C958 H950 0.930 . S
C958 C957 1.362 . S
C958 C961 1.409 . S
C959 H951 0.930 . S
C959 C960 1.355 . S
C959 C961 1.415 . S
C960 C959 1.355 . S
C960 C962 1.419 . S
C961 C956 1.425 . S
C961 C958 1.409 . S
C961 C959 1.415 . S
C962 H952 0.930 . S
C962 C960 1.419 . S
C962 C963 1.362 . S
C963 H953 0.930 . S
C963 C956 1.409 . S
C963 C962 1.362 . S
H964 C970 0.930 . S
H965 C973 0.930 . S
H966 C974 0.930 . S
H967 C975 0.930 . S
H968 C978 0.930 . S
H969 C979 0.930 . S
C970 H964 0.930 . S
C970 C971 1.355 . S
C970 C972 1.415 . S
C971 C970 1.355 . S
C971 C973 1.419 . S
C972 C970 1.415 . S
C972 C977 1.425 . S
C972 C979 1.409 . S
C973 H965 0.930 . S
C973 C971 1.419 . S
C973 C974 1.362 . S
C974 H966 0.930 . S
C974 C973 1.362 . S
C974 C977 1.409 . S
C975 H967 0.930 . S
C975 C976 1.355 . S
C975 C977 1.415 . S
C976 C975 1.355 . S
C976 C978 1.419 . S
C977 C972 1.425 . S
C977 C974 1.409 . S
C977 C975 1.415 . S
C978 H968 0.930 . S
C978 C976 1.419 . S
C978 C979 1.362 . S
C979 H969 0.930 . S
C979 C972 1.409 . S
C979 C978 1.362 . S
H980 C986 0.930 . S
H981 C989 0.930 . S
H982 C990 0.930 . S
H983 C991 0.930 . S
H984 C994 0.930 . S
H985 C995 0.930 . S
C986 H980 0.930 . S
C986 C987 1.355 . S
C986 C988 1.415 . S
C987 C986 1.355 . S
C987 C989 1.419 . S
C988 C986 1.415 . S
C988 C993 1.425 . S
C988 C995 1.409 . S
C989 H981 0.930 . S
C989 C987 1.419 . S
C989 C990 1.362 . S
C990 H982 0.930 . S
C990 C989 1.362 . S
C990 C993 1.409 . S
C991 H983 0.930 . S
C991 C992 1.355 . S
C991 C993 1.415 . S
C992 C991 1.355 . S
C992 C994 1.419 . S
C993 C988 1.425 . S
C993 C990 1.409 . S
C993 C991 1.415 . S
C994 H984 0.930 . S
C994 C992 1.419 . S
C994 C995 1.362 . S
C995 H985 0.930 . S
C995 C988 1.409 . S
C995 C994 1.362 . S
H996 C1002 0.930 . S
H997 C1005 0.930 . S
H998 C1006 0.930 . S
H999 C1007 0.930 . S
H1000 C1010 0.930 . S
H1001 C1011 0.930 . S
C1002 H996 0.930 . S
C1002 C1003 1.355 . S
C1002 C1004 1.415 . S
C1003 C1002 1.355 . S
C1003 C1005 1.419 . S
C1004 C1002 1.415 . S
C1004 C1009 1.425 . S
C1004 C1011 1.409 . S
C1005 H997 0.930 . S
C1005 C1003 1.419 . S
C1005 C1006 1.362 . S
C1006 H998 0.930 . S
C1006 C1005 1.362 . S
C1006 C1009 1.409 . S
C1007 H999 0.930 . S
C1007 C1008 1.355 . S
C1007 C1009 1.415 . S
C1008 C1007 1.355 . S
C1008 C1010 1.419 . S
C1009 C1004 1.425 . S
C1009 C1006 1.409 . S
C1009 C1007 1.415 . S
C1010 H1000 0.930 . S
C1010 C1008 1.419 . S
C1010 C1011 1.362 . S
C1011 H1001 0.930 . S
C1011 C1004 1.409 . S
C1011 C1010 1.362 . S
H1012 C1018 0.930 . S
H1013 C1021 0.930 . S
H1014 C1022 0.930 . S
H1015 C1023 0.930 . S
H1016 C1026 0.930 . S
H1017 C1027 0.930 . S
C1018 H1012 0.930 . S
C1018 C1019 1.355 . S
C1018 C1020 1.415 . S
C1019 C1018 1.355 . S
C1019 C1021 1.419 . S
C1020 C1018 1.415 . S
C1020 C1025 1.425 . S
C1020 C1027 1.409 . S
C1021 H1013 0.930 . S
C1021 C1019 1.419 . S
C1021 C1022 1.362 . S
C1022 H1014 0.930 . S
C1022 C1021 1.362 . S
C1022 C1025 1.409 . S
C1023 H1015 0.930 . S
C1023 C1024 1.355 . S
C1023 C1025 1.415 . S
C1024 C1023 1.355 . S
C1024 C1026 1.419 . S
C1025 C1020 1.425 . S
C1025 C1022 1.409 . S
C1025 C1023 1.415 . S
C1026 H1016 0.930 . S
C1026 C1024 1.419 . S
C1026 C1027 1.362 . S
C1027 H1017 0.930 . S
C1027 C1020 1.409 . S
C1027 C1026 1.362 . S
H1028 C1034 0.930 . S
H1029 C1037 0.930 . S
H1030 C1038 0.930 . S
H1031 C1039 0.930 . S
H1032 C1042 0.930 . S
H1033 C1043 0.930 . S
C1034 H1028 0.930 . S
C1034 C1035 1.355 . S
C1034 C1036 1.415 . S
C1035 C1034 1.355 . S
C1035 C1037 1.419 . S
C1036 C1034 1.415 . S
C1036 C1041 1.425 . S
C1036 C1043 1.409 . S
C1037 H1029 0.930 . S
C1037 C1035 1.419 . S
C1037 C1038 1.362 . S
C1038 H1030 0.930 . S
C1038 C1037 1.362 . S
C1038 C1041 1.409 . S
C1039 H1031 0.930 . S
C1039 C1040 1.355 . S
C1039 C1041 1.415 . S
C1040 C1039 1.355 . S
C1040 C1042 1.419 . S
C1041 C1036 1.425 . S
C1041 C1038 1.409 . S
C1041 C1039 1.415 . S
C1042 H1032 0.930 . S
C1042 C1040 1.419 . S
C1042 C1043 1.362 . S
C1043 H1033 0.930 . S
C1043 C1036 1.409 . S
C1043 C1042 1.362 . S
H1044 C1050 0.930 . S
H1045 C1053 0.930 . S
H1046 C1054 0.930 . S
H1047 C1055 0.930 . S
H1048 C1058 0.930 . S
H1049 C1059 0.930 . S
C1050 H1044 0.930 . S
C1050 C1051 1.355 . S
C1050 C1052 1.415 . S
C1051 C1050 1.355 . S
C1051 C1053 1.419 . S
C1052 C1050 1.415 . S
C1052 C1057 1.425 . S
C1052 C1059 1.409 . S
C1053 H1045 0.930 . S
C1053 C1051 1.419 . S
C1053 C1054 1.362 . S
C1054 H1046 0.930 . S
C1054 C1053 1.362 . S
C1054 C1057 1.409 . S
C1055 H1047 0.930 . S
C1055 C1056 1.355 . S
C1055 C1057 1.415 . S
C1056 C1055 1.355 . S
C1056 C1058 1.419 . S
C1057 C1052 1.425 . S
C1057 C1054 1.409 . S
C1057 C1055 1.415 . S
C1058 H1048 0.930 . S
C1058 C1056 1.419 . S
C1058 C1059 1.362 . S
C1059 H1049 0.930 . S
C1059 C1052 1.409 . S
C1059 C1058 1.362 . S
H1060 C1066 0.930 . S
H1061 C1069 0.930 . S
H1062 C1070 0.930 . S
H1063 C1071 0.930 . S
H1064 C1074 0.930 . S
H1065 C1075 0.930 . S
C1066 H1060 0.930 . S
C1066 C1067 1.355 . S
C1066 C1068 1.415 . S
C1067 C1066 1.355 . S
C1067 C1069 1.419 . S
C1068 C1066 1.415 . S
C1068 C1073 1.425 . S
C1068 C1075 1.409 . S
C1069 H1061 0.930 . S
C1069 C1067 1.419 . S
C1069 C1070 1.362 . S
C1070 H1062 0.930 . S
C1070 C1069 1.362 . S
C1070 C1073 1.409 . S
C1071 H1063 0.930 . S
C1071 C1072 1.355 . S
C1071 C1073 1.415 . S
C1072 C1071 1.355 . S
C1072 C1074 1.419 . S
C1073 C1068 1.425 . S
C1073 C1070 1.409 . S
C1073 C1071 1.415 . S
C1074 H1064 0.930 . S
C1074 C1072 1.419 . S
C1074 C1075 1.362 . S
C1075 H1065 0.930 . S
C1075 C1068 1.409 . S
C1075 C1074 1.362 . S
H1076 C1082 0.930 . S
H1077 C1085 0.930 . S
H1078 C1086 0.930 . S
H1079 C1087 0.930 . S
H1080 C1090 0.930 . S
H1081 C1091 0.930 . S
C1082 H1076 0.930 . S
C1082 C1083 1.355 . S
C1082 C1084 1.415 . S
C1083 C1082 1.355 . S
C1083 C1085 1.419 . S
C1084 C1082 1.415 . S
C1084 C1089 1.425 . S
C1084 C1091 1.409 . S
C1085 H1077 0.930 . S
C1085 C1083 1.419 . S
C1085 C1086 1.362 . S
C1086 H1078 0.930 . S
C1086 C1085 1.362 . S
C1086 C1089 1.409 . S
C1087 H1079 0.930 . S
C1087 C1088 1.355 . S
C1087 C1089 1.415 . S
C1088 C1087 1.355 . S
C1088 C1090 1.419 . S
C1089 C1084 1.425 . S
C1089 C1086 1.409 . S
C1089 C1087 1.415 . S
C1090 H1080 0.930 . S
C1090 C1088 1.419 . S
C1090 C1091 1.362 . S
C1091 H1081 0.930 . S
C1091 C1084 1.409 . S
C1091 C1090 1.362 . S
H1092 C1098 0.930 . S
H1093 C1101 0.930 . S
H1094 C1102 0.930 . S
H1095 C1103 0.930 . S
H1096 C1106 0.930 . S
H1097 C1107 0.930 . S
C1098 H1092 0.930 . S
C1098 C1099 1.355 . S
C1098 C1100 1.415 . S
C1099 C1098 1.355 . S
C1099 C1101 1.419 . S
C1100 C1098 1.415 . S
C1100 C1105 1.425 . S
C1100 C1107 1.409 . S
C1101 H1093 0.930 . S
C1101 C1099 1.419 . S
C1101 C1102 1.362 . S
C1102 H1094 0.930 . S
C1102 C1101 1.362 . S
C1102 C1105 1.409 . S
C1103 H1095 0.930 . S
C1103 C1104 1.355 . S
C1103 C1105 1.415 . S
C1104 C1103 1.355 . S
C1104 C1106 1.419 . S
C1105 C1100 1.425 . S
C1105 C1102 1.409 . S
C1105 C1103 1.415 . S
C1106 H1096 0.930 . S
C1106 C1104 1.419 . S
C1106 C1107 1.362 . S
C1107 H1097 0.930 . S
C1107 C1100 1.409 . S
C1107 C1106 1.362 . S
H1108 C1114 0.930 . S
H1109 C1117 0.930 . S
H1110 C1118 0.930 . S
H1111 C1119 0.930 . S
H1112 C1122 0.930 . S
H1113 C1123 0.930 . S
C1114 H1108 0.930 . S
C1114 C1115 1.355 . S
C1114 C1116 1.415 . S
C1115 C1114 1.355 . S
C1115 C1117 1.419 . S
C1116 C1114 1.415 . S
C1116 C1121 1.425 . S
C1116 C1123 1.409 . S
C1117 H1109 0.930 . S
C1117 C1115 1.419 . S
C1117 C1118 1.362 . S
C1118 H1110 0.930 . S
C1118 C1117 1.362 . S
C1118 C1121 1.409 . S
C1119 H1111 0.930 . S
C1119 C1120 1.355 . S
C1119 C1121 1.415 . S
C1120 C1119 1.355 . S
C1120 C1122 1.419 . S
C1121 C1116 1.425 . S
C1121 C1118 1.409 . S
C1121 C1119 1.415 . S
C1122 H1112 0.930 . S
C1122 C1120 1.419 . S
C1122 C1123 1.362 . S
C1123 H1113 0.930 . S
C1123 C1116 1.409 . S
C1123 C1122 1.362 . S
H1124 C1130 0.930 . S
H1125 C1133 0.930 . S
H1126 C1134 0.930 . S
H1127 C1135 0.930 . S
H1128 C1138 0.930 . S
H1129 C1139 0.930 . S
C1130 H1124 0.930 . S
C1130 C1131 1.355 . S
C1130 C1132 1.415 . S
C1131 C1130 1.355 . S
C1131 C1133 1.419 . S
C1132 C1130 1.415 . S
C1132 C1137 1.425 . S
C1132 C1139 1.409 . S
C1133 H1125 0.930 . S
C1133 C1131 1.419 . S
C1133 C1134 1.362 . S
C1134 H1126 0.930 . S
C1134 C1133 1.362 . S
C1134 C1137 1.409 . S
C1135 H1127 0.930 . S
C1135 C1136 1.355 . S
C1135 C1137 1.415 . S
C1136 C1135 1.355 . S
C1136 C1138 1.419 . S
C1137 C1132 1.425 . S
C1137 C1134 1.409 . S
C1137 C1135 1.415 . S
C1138 H1128 0.930 . S
C1138 C1136 1.419 . S
C1138 C1139 1.362 . S
C1139 H1129 0.930 . S
C1139 C1132 1.409 . S
C1139 C1138 1.362 . S
H1140 C1146 0.930 . S
H1141 C1149 0.930 . S
H1142 C1150 0.930 . S
H1143 C1151 0.930 . S
H1144 C1154 0.930 . S
H1145 C1155 0.930 . S
C1146 H1140 0.930 . S
C1146 C1147 1.355 . S
C1146 C1148 1.415 . S
C1147 C1146 1.355 . S
C1147 C1149 1.419 . S
C1148 C1146 1.415 . S
C1148 C1153 1.425 . S
C1148 C1155 1.409 . S
C1149 H1141 0.930 . S
C1149 C1147 1.419 . S
C1149 C1150 1.362 . S
C1150 H1142 0.930 . S
C1150 C1149 1.362 . S
C1150 C1153 1.409 . S
C1151 H1143 0.930 . S
C1151 C1152 1.355 . S
C1151 C1153 1.415 . S
C1152 C1151 1.355 . S
C1152 C1154 1.419 . S
C1153 C1148 1.425 . S
C1153 C1150 1.409 . S
C1153 C1151 1.415 . S
C1154 H1144 0.930 . S
C1154 C1152 1.419 . S
C1154 C1155 1.362 . S
C1155 H1145 0.930 . S
C1155 C1148 1.409 . S
C1155 C1154 1.362 . S
H1156 C1162 0.930 . S
H1157 C1165 0.930 . S
H1158 C1166 0.930 . S
H1159 C1167 0.930 . S
H1160 C1170 0.930 . S
H1161 C1171 0.930 . S
C1162 H1156 0.930 . S
C1162 C1163 1.355 . S
C1162 C1164 1.415 . S
C1163 C1162 1.355 . S
C1163 C1165 1.419 . S
C1164 C1162 1.415 . S
C1164 C1169 1.425 . S
C1164 C1171 1.409 . S
C1165 H1157 0.930 . S
C1165 C1163 1.419 . S
C1165 C1166 1.362 . S
C1166 H1158 0.930 . S
C1166 C1165 1.362 . S
C1166 C1169 1.409 . S
C1167 H1159 0.930 . S
C1167 C1168 1.355 . S
C1167 C1169 1.415 . S
C1168 C1167 1.355 . S
C1168 C1170 1.419 . S
C1169 C1164 1.425 . S
C1169 C1166 1.409 . S
C1169 C1167 1.415 . S
C1170 H1160 0.930 . S
C1170 C1168 1.419 . S
C1170 C1171 1.362 . S
C1171 H1161 0.930 . S
C1171 C1164 1.409 . S
C1171 C1170 1.362 . S
H1172 C1178 0.930 . S
H1173 C1181 0.930 . S
H1174 C1182 0.930 . S
H1175 C1183 0.930 . S
H1176 C1186 0.930 . S
H1177 C1187 0.930 . S
C1178 H1172 0.930 . S
C1178 C1179 1.355 . S
C1178 C1180 1.415 . S
C1179 C1178 1.355 . S
C1179 C1181 1.419 . S
C1180 C1178 1.415 . S
C1180 C1185 1.425 . S
C1180 C1187 1.409 . S
C1181 H1173 0.930 . S
C1181 C1179 1.419 . S
C1181 C1182 1.362 . S
C1182 H1174 0.930 . S
C1182 C1181 1.362 . S
C1182 C1185 1.409 . S
C1183 H1175 0.930 . S
C1183 C1184 1.355 . S
C1183 C1185 1.415 . S
C1184 C1183 1.355 . S
C1184 C1186 1.419 . S
C1185 C1180 1.425 . S
C1185 C1182 1.409 . S
C1185 C1183 1.415 . S
C1186 H1176 0.930 . S
C1186 C1184 1.419 . S
C1186 C1187 1.362 . S
C1187 H1177 0.930 . S
C1187 C1180 1.409 . S
C1187 C1186 1.362 . S
H1188 C1194 0.930 . S
H1189 C1197 0.930 . S
H1190 C1198 0.930 . S
H1191 C1199 0.930 . S
H1192 C1202 0.930 . S
H1193 C1203 0.930 . S
C1194 H1188 0.930 . S
C1194 C1195 1.355 . S
C1194 C1196 1.415 . S
C1195 C1194 1.355 . S
C1195 C1197 1.419 . S
C1196 C1194 1.415 . S
C1196 C1201 1.425 . S
C1196 C1203 1.409 . S
C1197 H1189 0.930 . S
C1197 C1195 1.419 . S
C1197 C1198 1.362 . S
C1198 H1190 0.930 . S
C1198 C1197 1.362 . S
C1198 C1201 1.409 . S
C1199 H1191 0.930 . S
C1199 C1200 1.355 . S
C1199 C1201 1.415 . S
C1200 C1199 1.355 . S
C1200 C1202 1.419 . S
C1201 C1196 1.425 . S
C1201 C1198 1.409 . S
C1201 C1199 1.415 . S
C1202 H1192 0.930 . S
C1202 C1200 1.419 . S
C1202 C1203 1.362 . S
C1203 H1193 0.930 . S
C1203 C1196 1.409 . S
C1203 C1202 1.362 . S
H1204 C1210 0.930 . S
H1205 C1213 0.930 . S
H1206 C1214 0.930 . S
H1207 C1215 0.930 . S
H1208 C1218 0.930 . S
H1209 C1219 0.930 . S
C1210 H1204 0.930 . S
C1210 C1211 1.355 . S
C1210 C1212 1.415 . S
C1211 C1210 1.355 . S
C1211 C1213 1.419 . S
C1212 C1210 1.415 . S
C1212 C1217 1.425 . S
C1212 C1219 1.409 . S
C1213 H1205 0.930 . S
C1213 C1211 1.419 . S
C1213 C1214 1.362 . S
C1214 H1206 0.930 . S
C1214 C1213 1.362 . S
C1214 C1217 1.409 . S
C1215 H1207 0.930 . S
C1215 C1216 1.355 . S
C1215 C1217 1.415 . S
C1216 C1215 1.355 . S
C1216 C1218 1.419 . S
C1217 C1212 1.425 . S
C1217 C1214 1.409 . S
C1217 C1215 1.415 . S
C1218 H1208 0.930 . S
C1218 C1216 1.419 . S
C1218 C1219 1.362 . S
C1219 H1209 0.930 . S
C1219 C1212 1.409 . S
C1219 C1218 1.362 . S
H1220 C1226 0.930 . S
H1221 C1229 0.930 . S
H1222 C1230 0.930 . S
H1223 C1231 0.930 . S
H1224 C1234 0.930 . S
H1225 C1235 0.930 . S
C1226 H1220 0.930 . S
C1226 C1227 1.355 . S
C1226 C1228 1.415 . S
C1227 C1226 1.355 . S
C1227 C1229 1.419 . S
C1228 C1226 1.415 . S
C1228 C1233 1.425 . S
C1228 C1235 1.409 . S
C1229 H1221 0.930 . S
C1229 C1227 1.419 . S
C1229 C1230 1.362 . S
C1230 H1222 0.930 . S
C1230 C1229 1.362 . S
C1230 C1233 1.409 . S
C1231 H1223 0.930 . S
C1231 C1232 1.355 . S
C1231 C1233 1.415 . S
C1232 C1231 1.355 . S
C1232 C1234 1.419 . S
C1233 C1228 1.425 . S
C1233 C1230 1.409 . S
C1233 C1231 1.415 . S
C1234 H1224 0.930 . S
C1234 C1232 1.419 . S
C1234 C1235 1.362 . S
C1235 H1225 0.930 . S
C1235 C1228 1.409 . S
C1235 C1234 1.362 . S
H1236 C1242 0.930 . S
H1237 C1245 0.930 . S
H1238 C1246 0.930 . S
H1239 C1247 0.930 . S
H1240 C1250 0.930 . S
H1241 C1251 0.930 . S
C1242 H1236 0.930 . S
C1242 C1243 1.355 . S
C1242 C1244 1.415 . S
C1243 C1242 1.355 . S
C1243 C1245 1.419 . S
C1244 C1242 1.415 . S
C1244 C1249 1.425 . S
C1244 C1251 1.409 . S
C1245 H1237 0.930 . S
C1245 C1243 1.419 . S
C1245 C1246 1.362 . S
C1246 H1238 0.930 . S
C1246 C1245 1.362 . S
C1246 C1249 1.409 . S
C1247 H1239 0.930 . S
C1247 C1248 1.355 . S
C1247 C1249 1.415 . S
C1248 C1247 1.355 . S
C1248 C1250 1.419 . S
C1249 C1244 1.425 . S
C1249 C1246 1.409 . S
C1249 C1247 1.415 . S
C1250 H1240 0.930 . S
C1250 C1248 1.419 . S
C1250 C1251 1.362 . S
C1251 H1241 0.930 . S
C1251 C1244 1.409 . S
C1251 C1250 1.362 . S
H1252 C1258 0.930 . S
H1253 C1261 0.930 . S
H1254 C1262 0.930 . S
H1255 C1263 0.930 . S
H1256 C1266 0.930 . S
H1257 C1267 0.930 . S
C1258 H1252 0.930 . S
C1258 C1259 1.355 . S
C1258 C1260 1.415 . S
C1259 C1258 1.355 . S
C1259 C1261 1.419 . S
C1260 C1258 1.415 . S
C1260 C1265 1.425 . S
C1260 C1267 1.409 . S
C1261 H1253 0.930 . S
C1261 C1259 1.419 . S
C1261 C1262 1.362 . S
C1262 H1254 0.930 . S
C1262 C1261 1.362 . S
C1262 C1265 1.409 . S
C1263 H1255 0.930 . S
C1263 C1264 1.355 . S
C1263 C1265 1.415 . S
C1264 C1263 1.355 . S
C1264 C1266 1.419 . S
C1265 C1260 1.425 . S
C1265 C1262 1.409 . S
C1265 C1263 1.415 . S
C1266 H1256 0.930 . S
C1266 C1264 1.419 . S
C1266 C1267 1.362 . S
C1267 H1257 0.930 . S
C1267 C1260 1.409 . S
C1267 C1266 1.362 . S
H1268 C1274 0.930 . S
H1269 C1277 0.930 . S
H1270 C1278 0.930 . S
H1271 C1279 0.930 . S
H1272 C1282 0.930 . S
H1273 C1283 0.930 . S
C1274 H1268 0.930 . S
C1274 C1275 1.355 . S
C1274 C1276 1.415 . S
C1275 C1274 1.355 . S
C1275 C1277 1.419 . S
C1276 C1274 1.415 . S
C1276 C1281 1.425 . S
C1276 C1283 1.409 . S
C1277 H1269 0.930 . S
C1277 C1275 1.419 . S
C1277 C1278 1.362 . S
C1278 H1270 0.930 . S
C1278 C1277 1.362 . S
C1278 C1281 1.409 . S
C1279 H1271 0.930 . S
C1279 C1280 1.355 . S
C1279 C1281 1.415 . S
C1280 C1279 1.355 . S
C1280 C1282 1.419 . S
C1281 C1276 1.425 . S
C1281 C1278 1.409 . S
C1281 C1279 1.415 . S
C1282 H1272 0.930 . S
C1282 C1280 1.419 . S
C1282 C1283 1.362 . S
C1283 H1273 0.930 . S
C1283 C1276 1.409 . S
C1283 C1282 1.362 . S
H1284 C1290 0.930 . S
H1285 C1293 0.930 . S
H1286 C1294 0.930 . S
H1287 C1295 0.930 . S
H1288 C1298 0.930 . S
H1289 C1299 0.930 . S
C1290 H1284 0.930 . S
C1290 C1291 1.355 . S
C1290 C1292 1.415 . S
C1291 C1290 1.355 . S
C1291 C1293 1.419 . S
C1292 C1290 1.415 . S
C1292 C1297 1.425 . S
C1292 C1299 1.409 . S
C1293 H1285 0.930 . S
C1293 C1291 1.419 . S
C1293 C1294 1.362 . S
C1294 H1286 0.930 . S
C1294 C1293 1.362 . S
C1294 C1297 1.409 . S
C1295 H1287 0.930 . S
C1295 C1296 1.355 . S
C1295 C1297 1.415 . S
C1296 C1295 1.355 . S
C1296 C1298 1.419 . S
C1297 C1292 1.425 . S
C1297 C1294 1.409 . S
C1297 C1295 1.415 . S
C1298 H1288 0.930 . S
C1298 C1296 1.419 . S
C1298 C1299 1.362 . S
C1299 H1289 0.930 . S
C1299 C1292 1.409 . S
C1299 C1298 1.362 . S
H1300 C1306 0.930 . S
H1301 C1309 0.930 . S
H1302 C1310 0.930 . S
H1303 C1311 0.930 . S
H1304 C1314 0.930 . S
H1305 C1315 0.930 . S
C1306 H1300 0.930 . S
C1306 C1307 1.355 . S
C1306 C1308 1.415 . S
C1307 C1306 1.355 . S
C1307 C1309 1.419 . S
C1308 C1306 1.415 . S
C1308 C1313 1.425 . S
C1308 C1315 1.409 . S
C1309 H1301 0.930 . S
C1309 C1307 1.419 . S
C1309 C1310 1.362 . S
C1310 H1302 0.930 . S
C1310 C1309 1.362 . S
C1310 C1313 1.409 . S
C1311 H1303 0.930 . S
C1311 C1312 1.355 . S
C1311 C1313 1.415 . S
C1312 C1311 1.355 . S
C1312 C1314 1.419 . S
C1313 C1308 1.425 . S
C1313 C1310 1.409 . S
C1313 C1311 1.415 . S
C1314 H1304 0.930 . S
C1314 C1312 1.419 . S
C1314 C1315 1.362 . S
C1315 H1305 0.930 . S
C1315 C1308 1.409 . S
C1315 C1314 1.362 . S
H1316 C1322 0.930 . S
H1317 C1325 0.930 . S
H1318 C1326 0.930 . S
H1319 C1327 0.930 . S
H1320 C1330 0.930 . S
H1321 C1331 0.930 . S
C1322 H1316 0.930 . S
C1322 C1323 1.355 . S
C1322 C1324 1.415 . S
C1323 C1322 1.355 . S
C1323 C1325 1.419 . S
C1324 C1322 1.415 . S
C1324 C1329 1.425 . S
C1324 C1331 1.409 . S
C1325 H1317 0.930 . S
C1325 C1323 1.419 . S
C1325 C1326 1.362 . S
C1326 H1318 0.930 . S
C1326 C1325 1.362 . S
C1326 C1329 1.409 . S
C1327 H1319 0.930 . S
C1327 C1328 1.355 . S
C1327 C1329 1.415 . S
C1328 C1327 1.355 . S
C1328 C1330 1.419 . S
C1329 C1324 1.425 . S
C1329 C1326 1.409 . S
C1329 C1327 1.415 . S
C1330 H1320 0.930 . S
C1330 C1328 1.419 . S
C1330 C1331 1.362 . S
C1331 H1321 0.930 . S
C1331 C1324 1.409 . S
C1331 C1330 1.362 . S
H1332 C1338 0.930 . S
H1333 C1341 0.930 . S
H1334 C1342 0.930 . S
H1335 C1343 0.930 . S
H1336 C1346 0.930 . S
H1337 C1347 0.930 . S
C1338 H1332 0.930 . S
C1338 C1339 1.355 . S
C1338 C1340 1.415 . S
C1339 C1338 1.355 . S
C1339 C1341 1.419 . S
C1340 C1338 1.415 . S
C1340 C1345 1.425 . S
C1340 C1347 1.409 . S
C1341 H1333 0.930 . S
C1341 C1339 1.419 . S
C1341 C1342 1.362 . S
C1342 H1334 0.930 . S
C1342 C1341 1.362 . S
C1342 C1345 1.409 . S
C1343 H1335 0.930 . S
C1343 C1344 1.355 . S
C1343 C1345 1.415 . S
C1344 C1343 1.355 . S
C1344 C1346 1.419 . S
C1345 C1340 1.425 . S
C1345 C1342 1.409 . S
C1345 C1343 1.415 . S
C1346 H1336 0.930 . S
C1346 C1344 1.419 . S
C1346 C1347 1.362 . S
C1347 H1337 0.930 . S
C1347 C1340 1.409 . S
C1347 C1346 1.362 . S
H1348 C1354 0.930 . S
H1349 C1357 0.930 . S
H1350 C1358 0.930 . S
H1351 C1359 0.930 . S
H1352 C1362 0.930 . S
H1353 C1363 0.930 . S
C1354 H1348 0.930 . S
C1354 C1355 1.355 . S
C1354 C1356 1.415 . S
C1355 C1354 1.355 . S
C1355 C1357 1.419 . S
C1356 C1354 1.415 . S
C1356 C1361 1.425 . S
C1356 C1363 1.409 . S
C1357 H1349 0.930 . S
C1357 C1355 1.419 . S
C1357 C1358 1.362 . S
C1358 H1350 0.930 . S
C1358 C1357 1.362 . S
C1358 C1361 1.409 . S
C1359 H1351 0.930 . S
C1359 C1360 1.355 . S
C1359 C1361 1.415 . S
C1360 C1359 1.355 . S
C1360 C1362 1.419 . S
C1361 C1356 1.425 . S
C1361 C1358 1.409 . S
C1361 C1359 1.415 . S
C1362 H1352 0.930 . S
C1362 C1360 1.419 . S
C1362 C1363 1.362 . S
C1363 H1353 0.930 . S
C1363 C1356 1.409 . S
C1363 C1362 1.362 . S
C608 C283 1.331 . S
C603 N2 1.272 . S
C624 C326 2.489 . S
C619 C7 2.522 . S
C640 C372 1.746 . S
C635 N12 1.603 . S
C651 C16 1.821 . S
C656 C415 1.886 . S
C672 C455 2.587 . S
C667 C30 2.600 1_565 S
C688 C483 1.543 . S
C683 N35 1.501 . S
C699 C39 2.082 . S
C704 C526 2.055 . S
C720 C572 1.210 . S
C715 N25 1.092 . S
C736 C278 1.234 . S
C731 N58 1.177 . S
C747 N81 2.020 . S
C752 C327 1.956 . S
C768 C366 1.387 . S
C763 N104 1.373 . S
C779 N127 1.271 . S
C784 C403 1.261 . S
C800 C443 0.930 . S
C795 N48 1.060 1_565 S
C816 C478 1.452 . S
C811 N71 1.388 1_556 S
C827 N94 1.487 . S
C832 C527 1.495 . S
C848 C566 1.855 . S
C843 N117 1.854 . S
C859 C85 2.533 . S
C864 C295 2.411 . S
C875 C122 2.506 . S
C880 C438 2.475 . S
C891 C53 2.126 . S
C896 C495 2.040 . S
C912 C532 1.417 . S
C907 C76 1.486 1_655 S
C928 C567 1.935 . S
C923 C99 1.942 . S
C944 C367 1.937 . S
C939 C131 1.959 . S
C960 C398 1.885 . S
C955 C62 1.930 1_565 S
C971 C108 1.257 . S
C976 C332 1.211 . S
C992 C563 1.407 . S
C987 N140 1.360 . S
C1003 C145 2.512 . S
C1008 C446 2.493 . S
C1024 C492 1.597 . S
C1019 N150 1.450 . S
C1035 C154 1.889 . S
C1040 C535 1.933 . S
C1056 C335 2.607 . S
C1051 C168 2.622 . S
C1067 N173 1.376 . S
C1072 C363 1.407 . S
C1088 C406 2.076 . S
C1083 C177 2.109 . S
C1104 C292 1.231 . S
C1099 N163 1.231 . S
C1120 C558 1.680 . S
C1115 C200 1.651 . S
C1136 C447 2.259 . S
C1131 N219 2.306 . S
C1147 N242 1.624 . S
C1152 C486 1.649 . S
C1168 C523 1.468 . S
C1163 C269 1.577 . S
C1184 C323 1.253 . S
C1179 C191 1.329 . S
C1195 N209 1.674 . S
C1200 C358 1.746 . S
C1211 N232 1.781 . S
C1216 C407 1.785 . S
C1227 C260 2.407 . S
C1232 C286 2.333 . S
C1243 C223 2.243 . S
C1248 C575 2.152 . S
C1259 N255 2.051 . S
C1264 C318 2.054 . S
C1275 N186 1.649 . S
C1280 C375 1.595 . S
C1296 C412 1.159 . S
C1291 C214 1.199 . S
C1312 C287 1.594 . S
C1307 C237 1.598 . S
C1328 C487 1.556 . S
C1323 N265 1.471 . S
C1344 C518 1.510 . S
C1339 N196 1.537 . S
C1360 C452 0.992 . S
C1355 C246 0.988 . S
