# Generated by pormake.
# Topology ssa, (4,4)-cn, num edge types: 1
# Building blocks:
#     Node 0, Type 0, BuildingBlock: ESEHIV_clean_sbu_0, # of connection points: 4
#     Node 1, Type 0, BuildingBlock: ESEHIV_clean_sbu_0, # of connection points: 4
#     Node 2, Type 0, BuildingBlock: ESEHIV_clean_sbu_0, # of connection points: 4
#     Node 3, Type 0, BuildingBlock: ESEHIV_clean_sbu_0, # of connection points: 4
#     Node 4, Type 0, BuildingBlock: ESEHIV_clean_sbu_0, # of connection points: 4
#     Node 5, Type 0, BuildingBlock: ESEHIV_clean_sbu_0, # of connection points: 4
#     Node 6, Type 1, BuildingBlock: KOZSID_clean_sbu_0, # of connection points: 4
#     Node 7, Type 1, BuildingBlock: KOZSID_clean_sbu_0, # of connection points: 4
#     Node 8, Type 1, BuildingBlock: KOZSID_clean_sbu_0, # of connection points: 4
#     Node 9, Type 1, BuildingBlock: KOZSID_clean_sbu_0, # of connection points: 4
#     Node 10, Type 1, BuildingBlock: KOZSID_clean_sbu_0, # of connection points: 4
#     Node 11, Type 1, BuildingBlock: KOZSID_clean_sbu_0, # of connection points: 4
#     Edge 12, Type (0, 1), BuildingBlock: EZIPEK_clean_linker_0, # of connection points: 2
#     Edge 13, Type (0, 1), BuildingBlock: EZIPEK_clean_linker_0, # of connection points: 2
#     Edge 14, Type (0, 1), BuildingBlock: EZIPEK_clean_linker_0, # of connection points: 2
#     Edge 15, Type (0, 1), BuildingBlock: EZIPEK_clean_linker_0, # of connection points: 2
#     Edge 16, Type (0, 1), BuildingBlock: EZIPEK_clean_linker_0, # of connection points: 2
#     Edge 17, Type (0, 1), BuildingBlock: EZIPEK_clean_linker_0, # of connection points: 2
#     Edge 18, Type (0, 1), BuildingBlock: EZIPEK_clean_linker_0, # of connection points: 2
#     Edge 19, Type (0, 1), BuildingBlock: EZIPEK_clean_linker_0, # of connection points: 2
#     Edge 20, Type (0, 1), BuildingBlock: EZIPEK_clean_linker_0, # of connection points: 2
#     Edge 21, Type (0, 1), BuildingBlock: EZIPEK_clean_linker_0, # of connection points: 2
#     Edge 22, Type (0, 1), BuildingBlock: EZIPEK_clean_linker_0, # of connection points: 2
#     Edge 23, Type (0, 1), BuildingBlock: EZIPEK_clean_linker_0, # of connection points: 2
#     Edge 24, Type (0, 1), BuildingBlock: EZIPEK_clean_linker_0, # of connection points: 2
#     Edge 25, Type (0, 1), BuildingBlock: EZIPEK_clean_linker_0, # of connection points: 2
#     Edge 26, Type (0, 1), BuildingBlock: EZIPEK_clean_linker_0, # of connection points: 2
#     Edge 27, Type (0, 1), BuildingBlock: EZIPEK_clean_linker_0, # of connection points: 2
#     Edge 28, Type (0, 1), BuildingBlock: EZIPEK_clean_linker_0, # of connection points: 2
#     Edge 29, Type (0, 1), BuildingBlock: EZIPEK_clean_linker_0, # of connection points: 2
#     Edge 30, Type (0, 1), BuildingBlock: EZIPEK_clean_linker_0, # of connection points: 2
#     Edge 31, Type (0, 1), BuildingBlock: EZIPEK_clean_linker_0, # of connection points: 2
#     Edge 32, Type (0, 1), BuildingBlock: EZIPEK_clean_linker_0, # of connection points: 2
#     Edge 33, Type (0, 1), BuildingBlock: EZIPEK_clean_linker_0, # of connection points: 2
#     Edge 34, Type (0, 1), BuildingBlock: EZIPEK_clean_linker_0, # of connection points: 2
#     Edge 35, Type (0, 1), BuildingBlock: EZIPEK_clean_linker_0, # of connection points: 2
# Relax obj value: 0.023
# Max RMSD: 0.107
# Mean RMSD: 0.058
data_MOF--net-ssa--node1-ESEHIV_clean_sbu_0--node2-KOZSID_clean_sbu_0--edge1-EZIPEK_clean_linker_0
_symmetry_space_group_name_H-M    P1
_symmetry_Int_Tables_number       1
_symmetry_cell_setting            triclinic
loop_
_symmetry_equiv_pos_as_xyz
'x, y, z'
_cell_length_a     40.930379
_cell_length_b     44.233544
_cell_length_c     30.065361
_cell_angle_alpha  92.007601
_cell_angle_beta   95.196815
_cell_angle_gamma 122.9051
loop_
_atom_site_label
_atom_site_type_symbol
_atom_site_fract_x
_atom_site_fract_y
_atom_site_fract_z
_atom_type_partial_charge
Cu0 Cu 1.00101 0.50902 0.00962 0.0
N1 N 0.95796 0.46496 0.02207 0.0
N2 N 0.90381 0.4105 0.99969 0.0
C3 C 0.94064 0.43555 0.99219 0.0
C4 C 0.89782 0.42432 0.0364 0.0
C5 C 0.93146 0.45798 0.05034 0.0
O6 O 0.97817 0.51706 0.95192 0.0
C7 C 0.05182 0.48758 0.04476 0.0
O8 O 0.02167 0.46765 0.06636 0.0
H9 H 0.95287 0.43455 0.96211 0.0
H10 H 0.93465 0.47719 0.07635 0.0
N11 N 0.01716 0.54582 0.05576 0.0
N12 N 0.05933 0.5908 0.10837 0.0
C13 C 0.05506 0.56871 0.07322 0.0
C14 C 0.99671 0.55384 0.08097 0.0
C15 C 0.0228 0.58183 0.11339 0.0
C16 C 0.96096 0.53432 0.95178 0.0
O17 O 0.96623 0.55415 0.98855 0.0
H18 H 0.07917 0.5688 0.06097 0.0
H19 H 0.96514 0.54022 0.07647 0.0
O20 O 0.04787 0.50493 0.0134 0.0
H21 H 0.86999 0.41255 0.04942 0.0
H22 H 0.01558 0.59427 0.13901 0.0
Cu23 Cu 0.51807 0.00826 0.52948 0.0
N24 N 0.53294 0.99738 0.47588 0.0
N25 N 0.54137 0.9633 0.42624 0.0
C26 C 0.52397 0.96381 0.46229 0.0
C27 C 0.562 0.99805 0.41652 0.0
C28 C 0.55662 0.01889 0.44689 0.0
O29 O 0.47086 0.96137 0.53607 0.0
C30 C 0.59413 0.03158 0.57426 0.0
O31 O 0.59912 0.01729 0.53859 0.0
H32 H 0.50602 0.94023 0.47956 0.0
H33 H 0.57013 0.04784 0.44858 0.0
N34 N 0.50904 0.04645 0.53158 0.0
N35 N 0.50494 0.09146 0.56299 0.0
C36 C 0.518 0.06925 0.56883 0.0
C37 C 0.49017 0.05508 0.50079 0.0
C38 C 0.48734 0.08243 0.52007 0.0
C39 C 0.43651 0.9532 0.52153 0.0
O40 O 0.43006 0.97911 0.51887 0.0
H41 H 0.53273 0.06877 0.60031 0.0
H42 H 0.47806 0.04165 0.46715 0.0
O43 O 0.56038 0.02525 0.57862 0.0
H44 H 0.58037 1.00782 0.38992 0.0
H45 H 0.47276 0.09431 0.504 0.0
Cu46 Cu 0.53802 0.53334 0.99927 0.0
N47 N 0.53141 0.48726 0.99957 0.0
N48 N 0.52556 0.43637 0.97088 0.0
C49 C 0.53359 0.46962 0.96322 0.0
C50 C 0.51811 0.43299 0.01395 0.0
C51 C 0.52199 0.46436 0.03159 0.0
O52 O 0.57291 0.55416 0.95352 0.0
C53 C 0.45601 0.50003 0.99521 0.0
O54 O 0.45416 0.46959 0.99767 0.0
H55 H 0.54065 0.48086 0.93142 0.0
H56 H 0.51753 0.46973 0.06512 0.0
N57 N 0.55885 0.56446 0.05401 0.0
N58 N 0.56798 0.607 0.10673 0.0
C59 C 0.5494 0.58845 0.06592 0.0
C60 C 0.58399 0.56774 0.08892 0.0
C61 C 0.58983 0.59399 0.12118 0.0
C62 C 0.6094 0.56763 0.96458 0.0
O63 O 0.62428 0.57819 0.00697 0.0
H64 H 0.52885 0.59196 0.04527 0.0
H65 H 0.59703 0.55204 0.09093 0.0
O66 O 0.48744 0.52788 0.98578 0.0
H67 H 0.51041 0.40945 0.03144 0.0
H68 H 0.6082 0.60244 0.15323 0.0
Cu69 Cu 1.00678 0.48787 0.48745 0.0
N70 N 1.00718 0.45652 0.44492 0.0
N71 N 0.03735 0.44269 0.39795 0.0
C72 C 0.04093 0.46009 0.43744 0.0
C73 C 0.9995 0.42664 0.38005 0.0
C74 C 0.98081 0.43519 0.40931 0.0
O75 O 0.05448 0.53549 0.4758 0.0
C76 C 0.95761 0.43263 0.54066 0.0
O77 O 0.93646 0.42108 0.50095 0.0
H78 H 0.06857 0.47809 0.45842 0.0
H79 H 0.95128 0.42906 0.40307 0.0
N80 N 0.966 0.49417 0.47269 0.0
N81 N 0.91963 0.50318 0.48828 0.0
C82 C 0.9506 0.50224 0.50486 0.0
C83 C 0.94502 0.49125 0.43368 0.0
C84 C 0.91615 0.49693 0.4433 0.0
C85 C 0.0821 0.56647 0.49546 0.0
O86 O 0.08539 0.57258 0.53921 0.0
H87 H 0.96133 0.50638 0.54025 0.0
H88 H 0.94985 0.48487 0.40086 0.0
O89 O 0.99215 0.46231 0.5442 0.0
H90 H 0.98734 0.41266 0.34662 0.0
H91 H 0.89377 0.49554 0.4195 0.0
Cu92 Cu 0.53752 0.02059 0.04402 0.0
N93 N 0.5365 0.06202 0.05798 0.0
N94 N 0.53552 0.11006 0.03872 0.0
C95 C 0.51988 0.07436 0.02956 0.0
C96 C 0.5612 0.12027 0.07629 0.0
C97 C 0.5617 0.09059 0.08811 0.0
O98 O 0.56405 0.02988 0.98774 0.0
C99 C 0.47555 0.97416 0.09449 0.0
O100 O 0.49472 1.00415 0.12181 0.0
H101 H 0.49917 0.05835 1.00026 0.0
H102 H 0.58201 0.09099 0.11407 0.0
N103 N 0.57344 0.01842 0.0845 0.0
N104 N 0.59852 0.99156 0.12248 0.0
C105 C 0.56764 0.98684 0.09573 0.0
C106 C 0.61009 0.04409 0.10368 0.0
C107 C 0.6256 0.0275 0.12756 0.0
C108 C 0.5623 0.04683 0.9546 0.0
O109 O 0.53134 0.04835 0.94561 0.0
H110 H 0.54128 0.96067 0.08415 0.0
H111 H 0.62497 0.07262 0.09961 0.0
O112 O 0.48659 0.9752 0.05528 0.0
H113 H 0.58131 0.14793 0.09097 0.0
H114 H 0.65445 0.0406 0.14672 0.0
Cu115 Cu 0.49287 0.49638 0.50182 0.0
N116 N 0.49455 0.53735 0.52379 0.0
N117 N 0.4968 0.5885 0.51723 0.0
C118 C 0.50365 0.56474 0.49853 0.0
C119 C 0.48309 0.57599 0.55616 0.0
C120 C 0.48186 0.54428 0.56026 0.0
O121 O 0.46375 0.48546 0.43936 0.0
C122 C 0.56035 0.51349 0.55736 0.0
O123 O 0.53653 0.51097 0.58566 0.0
H124 H 0.51268 0.56597 0.46554 0.0
H125 H 0.47061 0.52668 0.58667 0.0
N126 N 0.4647 0.45626 0.53442 0.0
N127 N 0.45665 0.41222 0.57594 0.0
C128 C 0.47671 0.43407 0.54499 0.0
C129 C 0.43534 0.4475 0.559 0.0
C130 C 0.4304 0.42033 0.58483 0.0
C131 C 0.43188 0.48514 0.43648 0.0
O132 O 0.42012 0.48934 0.47408 0.0
H133 H 0.50173 0.43582 0.53286 0.0
H134 H 0.42032 0.46137 0.56027 0.0
O135 O 0.54818 0.50915 0.51511 0.0
H136 H 0.47309 0.58797 0.57875 0.0
H137 H 0.41076 0.40895 0.61005 0.0
C138 C 0.22512 0.5266 0.15564 0.0
C139 C 0.23146 0.56051 0.15205 0.0
C140 C 0.26462 0.58446 0.18064 0.0
C141 C 0.27675 0.56397 0.20001 0.0
N142 N 0.25361 0.52838 0.18527 0.0
Co143 Co 0.26024 0.48924 0.2069 0.0
N144 N 0.30775 0.52425 0.25136 0.0
C145 C 0.32428 0.56038 0.25802 0.0
C146 C 0.35606 0.57774 0.29072 0.0
C147 C 0.36041 0.55123 0.3058 0.0
C148 C 0.33111 0.519 0.28112 0.0
N149 N 0.26672 0.45004 0.22881 0.0
C150 C 0.29461 0.45164 0.25941 0.0
C151 C 0.28855 0.41774 0.26222 0.0
C152 C 0.25576 0.39396 0.23308 0.0
C153 C 0.24365 0.41447 0.21379 0.0
N154 N 0.21292 0.45426 0.1622 0.0
C155 C 0.19682 0.41824 0.15476 0.0
C156 C 0.1639 0.40073 0.12361 0.0
C157 C 0.15829 0.42702 0.11055 0.0
C158 C 0.18824 0.45926 0.13451 0.0
N159 N 0.29526 0.49707 0.16054 0.0
C160 C 0.34813 0.50655 0.1002 0.0
C161 C 0.31564 0.47233 0.10442 0.0
C162 C 0.28983 0.46823 0.1345 0.0
C163 C 0.35313 0.53632 0.12509 0.0
C164 C 0.32624 0.53102 0.15462 0.0
N165 N 0.22495 0.4813 0.25289 0.0
C166 C 0.16304 0.44236 0.28104 0.0
C167 C 0.16826 0.47141 0.30784 0.0
C168 C 0.20363 0.505 0.30927 0.0
C169 C 0.23111 0.50948 0.28111 0.0
C170 C 0.19194 0.44768 0.25495 0.0
H171 H 0.25659 0.53613 0.28199 0.0
H172 H 0.18641 0.42428 0.23596 0.0
H173 H 0.26631 0.44127 0.13676 0.0
H174 H 0.33159 0.55467 0.17296 0.0
C175 C 0.30868 0.57703 0.23348 0.0
C176 C 0.19087 0.49352 0.13101 0.0
C177 C 0.32715 0.4843 0.28708 0.0
C178 C 0.212 0.40142 0.1798 0.0
H179 H 0.21358 0.56713 0.13136 0.0
H180 H 0.27788 0.6133 0.18717 0.0
H181 H 0.3739 0.60631 0.30234 0.0
H182 H 0.38279 0.55528 0.33195 0.0
H183 H 0.30613 0.4109 0.28307 0.0
H184 H 0.24268 0.36517 0.22619 0.0
H185 H 0.14555 0.37208 0.11257 0.0
H186 H 0.13439 0.42282 0.08673 0.0
H187 H 0.31101 0.44861 0.08576 0.0
H188 H 0.37822 0.56334 0.12269 0.0
H189 H 0.1365 0.41564 0.27992 0.0
H190 H 0.20916 0.52805 0.33046 0.0
C191 C 0.70588 0.18991 0.68348 0.0
C192 C 0.6754 0.1874 0.65552 0.0
C193 C 0.67784 0.21927 0.66405 0.0
C194 C 0.70944 0.23932 0.69671 0.0
N195 N 0.72701 0.22203 0.70917 0.0
Co196 Co 0.77174 0.23962 0.75712 0.0
N197 N 0.76331 0.27623 0.78391 0.0
C198 C 0.74082 0.28696 0.76428 0.0
C199 C 0.73825 0.31068 0.79205 0.0
C200 C 0.76107 0.31569 0.83134 0.0
C201 C 0.77684 0.29509 0.82506 0.0
N202 N 0.81648 0.25698 0.80514 0.0
C203 C 0.82784 0.27977 0.84298 0.0
C204 C 0.86297 0.28691 0.86524 0.0
C205 C 0.87402 0.26824 0.84026 0.0
C206 C 0.8453 0.25087 0.80416 0.0
N207 N 0.77996 0.20317 0.72992 0.0
C208 C 0.81289 0.20317 0.73641 0.0
C209 C 0.80934 0.17387 0.71354 0.0
C210 C 0.77178 0.15426 0.69137 0.0
C211 C 0.7546 0.17282 0.70211 0.0
N212 N 0.80841 0.27587 0.71838 0.0
C213 C 0.86187 0.32813 0.66473 0.0
C214 C 0.83224 0.29278 0.64618 0.0
C215 C 0.80597 0.26721 0.67339 0.0
C216 C 0.86409 0.33642 0.71075 0.0
C217 C 0.83752 0.31013 0.73668 0.0
N218 N 0.73538 0.20337 0.79571 0.0
C219 C 0.71716 0.15296 0.84031 0.0
C220 C 0.68215 0.14984 0.84815 0.0
C221 C 0.67473 0.17449 0.82923 0.0
C222 C 0.70114 0.20041 0.80275 0.0
C223 C 0.74352 0.18012 0.81495 0.0
H224 H 0.69354 0.2179 0.78771 0.0
H225 H 0.77037 0.18196 0.81051 0.0
H226 H 0.78365 0.24038 0.65793 0.0
H227 H 0.84082 0.3176 0.7718 0.0
C228 C 0.71764 0.26988 0.72299 0.0
C229 C 0.71495 0.16206 0.68384 0.0
C230 C 0.80896 0.29859 0.85591 0.0
C231 C 0.84281 0.22657 0.77074 0.0
H232 H 0.65336 0.16479 0.63196 0.0
H233 H 0.65748 0.22599 0.65016 0.0
H234 H 0.72097 0.32214 0.78507 0.0
H235 H 0.76658 0.33348 0.86068 0.0
H236 H 0.87964 0.30468 0.89559 0.0
H237 H 0.8999 0.26744 0.84761 0.0
H238 H 0.83071 0.16658 0.71467 0.0
H239 H 0.75848 0.12916 0.67001 0.0
H240 H 0.82905 0.28509 0.61069 0.0
H241 H 0.8862 0.36328 0.72668 0.0
H242 H 0.72432 0.13466 0.85412 0.0
H243 H 0.64814 0.17323 0.83415 0.0
C244 C 0.51904 0.71097 0.21159 0.0
C245 C 0.4848 0.68276 0.18673 0.0
C246 C 0.4546 0.68431 0.2001 0.0
C247 C 0.47194 0.71334 0.2322 0.0
N248 N 0.51131 0.73073 0.23962 0.0
Co249 Co 0.54654 0.77284 0.28602 0.0
N250 N 0.50414 0.78076 0.29676 0.0
C251 C 0.46554 0.7569 0.28365 0.0
C252 C 0.44289 0.7693 0.2952 0.0
C253 C 0.46869 0.80298 0.31753 0.0
C254 C 0.50591 0.80944 0.31798 0.0
N255 N 0.58177 0.81527 0.33153 0.0
C256 C 0.57788 0.84221 0.34775 0.0
C257 C 0.61141 0.86815 0.37592 0.0
C258 C 0.63646 0.85661 0.37842 0.0
C259 C 0.6173 0.8246 0.35127 0.0
N260 N 0.58885 0.76434 0.27612 0.0
C261 C 0.62319 0.77915 0.30306 0.0
C262 C 0.64639 0.7678 0.28989 0.0
C263 C 0.62519 0.74375 0.25272 0.0
C264 C 0.59003 0.74164 0.24528 0.0
N265 N 0.56202 0.80625 0.2394 0.0
C266 C 0.58322 0.86661 0.19303 0.0
C267 C 0.61206 0.86299 0.21574 0.0
C268 C 0.60081 0.83261 0.23891 0.0
C269 C 0.54396 0.83776 0.18973 0.0
C270 C 0.53403 0.80747 0.21253 0.0
N271 N 0.53121 0.74014 0.33376 0.0
C272 C 0.51811 0.72797 0.41005 0.0
C273 C 0.5146 0.69483 0.40273 0.0
C274 C 0.51802 0.68425 0.36009 0.0
C275 C 0.52604 0.70712 0.32626 0.0
C276 C 0.52641 0.75024 0.37503 0.0
H277 H 0.52824 0.69812 0.29409 0.0
H278 H 0.52925 0.77572 0.38151 0.0
H279 H 0.62346 0.83189 0.25893 0.0
H280 H 0.50345 0.78628 0.21091 0.0
C281 C 0.45257 0.72611 0.25448 0.0
C282 C 0.55716 0.71472 0.21175 0.0
C283 C 0.5419 0.84264 0.34018 0.0
C284 C 0.63421 0.8062 0.33758 0.0
H285 H 0.48182 0.66233 0.16271 0.0
H286 H 0.42364 0.66623 0.18806 0.0
H287 H 0.41152 0.75604 0.28668 0.0
H288 H 0.46102 0.82086 0.33152 0.0
H289 H 0.61724 0.89283 0.39306 0.0
H290 H 0.66588 0.87074 0.39633 0.0
H291 H 0.67542 0.77624 0.30526 0.0
H292 H 0.63407 0.72862 0.23399 0.0
H293 H 0.64279 0.8846 0.21817 0.0
H294 H 0.52099 0.8394 0.17148 0.0
H295 H 0.51505 0.73672 0.44262 0.0
H296 H 0.51485 0.65852 0.35306 0.0
C297 C 0.73226 0.55748 0.67857 0.0
C298 C 0.741 0.59072 0.6659 0.0
C299 C 0.77672 0.61643 0.6889 0.0
C300 C 0.78799 0.59765 0.71421 0.0
N301 N 0.76183 0.56141 0.70841 0.0
Co302 Co 0.76789 0.52466 0.73914 0.0
N303 N 0.82177 0.56233 0.77079 0.0
C304 C 0.84208 0.59798 0.76524 0.0
C305 C 0.87893 0.61742 0.78909 0.0
C306 C 0.88271 0.59265 0.81081 0.0
C307 C 0.84783 0.55932 0.79901 0.0
N308 N 0.77297 0.48816 0.77215 0.0
C309 C 0.80282 0.4919 0.8014 0.0
C310 C 0.79332 0.45889 0.81571 0.0
C311 C 0.75649 0.4335 0.79496 0.0
C312 C 0.74548 0.45227 0.76921 0.0
N313 N 0.71509 0.48661 0.70557 0.0
C314 C 0.69657 0.45055 0.7077 0.0
C315 C 0.66053 0.4307 0.68211 0.0
C316 C 0.65579 0.45551 0.66203 0.0
C317 C 0.68943 0.48932 0.67635 0.0
N318 N 0.79314 0.519 0.68872 0.0
C319 C 0.83029 0.51256 0.61793 0.0
C320 C 0.81121 0.48446 0.64505 0.0
C321 C 0.79226 0.48791 0.67951 0.0
C322 C 0.82972 0.54341 0.62605 0.0
C323 C 0.81203 0.54642 0.66184 0.0
N324 N 0.74236 0.53078 0.78879 0.0
C325 C 0.68531 0.5075 0.82785 0.0
C326 C 0.69923 0.54223 0.84719 0.0
C327 C 0.73599 0.57075 0.83905 0.0
C328 C 0.75703 0.56446 0.81015 0.0
C329 C 0.70743 0.50234 0.79931 0.0
H330 H 0.78468 0.58744 0.80482 0.0
H331 H 0.69532 0.47525 0.78541 0.0
H332 H 0.77737 0.46515 0.69828 0.0
H333 H 0.81463 0.57155 0.667 0.0
C334 C 0.82475 0.61262 0.73951 0.0
C335 C 0.69525 0.52311 0.66155 0.0
C336 C 0.84109 0.52574 0.81576 0.0
C337 C 0.71172 0.4366 0.73802 0.0
H338 H 0.72349 0.59587 0.64216 0.0
H339 H 0.79304 0.64531 0.68651 0.0
H340 H 0.90041 0.64626 0.79079 0.0
H341 H 0.90828 0.59846 0.83288 0.0
H342 H 0.8115 0.45359 0.83809 0.0
H343 H 0.74022 0.40458 0.79716 0.0
H344 H 0.6396 0.4017 0.67952 0.0
H345 H 0.63014 0.44934 0.63986 0.0
H346 H 0.81092 0.45996 0.63961 0.0
H347 H 0.84419 0.56578 0.6057 0.0
H348 H 0.65732 0.48454 0.8344 0.0
H349 H 0.74814 0.5979 0.85444 0.0
C350 C 0.30176 0.83209 0.37007 0.0
C351 C 0.29629 0.85915 0.38398 0.0
C352 C 0.26947 0.85789 0.35207 0.0
C353 C 0.25998 0.83022 0.32063 0.0
N354 N 0.27857 0.8134 0.33093 0.0
Co355 Co 0.27419 0.77312 0.29305 0.0
N356 N 0.22731 0.7646 0.25457 0.0
C357 C 0.21557 0.78767 0.2515 0.0
C358 C 0.18178 0.77416 0.22239 0.0
C359 C 0.17157 0.74046 0.20609 0.0
C360 C 0.19998 0.73543 0.22616 0.0
N361 N 0.26901 0.73232 0.25583 0.0
C362 C 0.23756 0.70538 0.22815 0.0
C363 C 0.24569 0.6814 0.20962 0.0
C364 C 0.28364 0.69381 0.22651 0.0
C365 C 0.29648 0.72459 0.25426 0.0
N366 N 0.32187 0.78236 0.33102 0.0
C367 C 0.34317 0.76856 0.32187 0.0
C368 C 0.37333 0.7782 0.35524 0.0
C369 C 0.37176 0.8003 0.38673 0.0
C370 C 0.34052 0.80282 0.37087 0.0
N371 N 0.23983 0.73766 0.33407 0.0
C372 C 0.18849 0.68305 0.38731 0.0
C373 C 0.22431 0.68801 0.37929 0.0
C374 C 0.24885 0.71461 0.35221 0.0
C375 C 0.17949 0.70681 0.36844 0.0
C376 C 0.20566 0.73412 0.34289 0.0
N377 N 0.30843 0.80808 0.25121 0.0
C378 C 0.32764 0.82203 0.17636 0.0
C379 C 0.35894 0.85741 0.19242 0.0
C380 C 0.36372 0.86742 0.23858 0.0
C381 C 0.33856 0.84266 0.267 0.0
C382 C 0.30263 0.79817 0.20592 0.0
H383 H 0.34366 0.85181 0.30188 0.0
H384 H 0.27862 0.77159 0.19184 0.0
H385 H 0.27492 0.71592 0.34555 0.0
H386 H 0.19777 0.75199 0.32971 0.0
C387 C 0.23218 0.81798 0.28262 0.0
C388 C 0.33307 0.82864 0.39165 0.0
C389 C 0.20066 0.70314 0.2168 0.0
C390 C 0.33065 0.74276 0.28512 0.0
H391 H 0.31123 0.87868 0.41328 0.0
H392 H 0.25834 0.87519 0.35177 0.0
H393 H 0.16533 0.78647 0.21569 0.0
H394 H 0.14589 0.72164 0.18259 0.0
H395 H 0.2262 0.65747 0.18646 0.0
H396 H 0.29932 0.68098 0.22083 0.0
H397 H 0.39332 0.76935 0.35733 0.0
H398 H 0.39188 0.81379 0.41734 0.0
H399 H 0.23296 0.6707 0.39306 0.0
H400 H 0.15233 0.70436 0.3735 0.0
H401 H 0.32253 0.81277 0.14108 0.0
H402 H 0.38728 0.89432 0.2529 0.0
C403 C 0.48537 0.29108 0.84054 0.0
C404 C 0.45173 0.28088 0.85989 0.0
C405 C 0.4253 0.24488 0.84642 0.0
C406 C 0.44417 0.23498 0.81983 0.0
N407 N 0.48077 0.26248 0.81523 0.0
Co408 Co 0.51826 0.25822 0.78137 0.0
N409 N 0.47613 0.2096 0.74998 0.0
C410 C 0.43951 0.18887 0.76101 0.0
C411 C 0.41622 0.15711 0.73365 0.0
C412 C 0.4397 0.15731 0.70387 0.0
C413 C 0.47639 0.18909 0.71507 0.0
N414 N 0.55594 0.25372 0.74789 0.0
C415 C 0.54991 0.22855 0.71481 0.0
C416 C 0.58534 0.23481 0.70439 0.0
C417 C 0.61442 0.2646 0.73166 0.0
C418 C 0.59535 0.27484 0.75737 0.0
N419 N 0.56037 0.30688 0.81247 0.0
C420 C 0.59925 0.32229 0.81299 0.0
C421 C 0.62149 0.35672 0.83443 0.0
C422 C 0.59508 0.36345 0.84893 0.0
C423 C 0.55803 0.33247 0.83592 0.0
N424 N 0.52716 0.23449 0.83096 0.0
C425 C 0.53141 0.19645 0.90166 0.0
C426 C 0.52932 0.18459 0.85713 0.0
C427 C 0.52745 0.20407 0.82243 0.0
C428 C 0.53274 0.22838 0.91034 0.0
C429 C 0.53064 0.24695 0.87459 0.0
N430 N 0.50871 0.28206 0.7326 0.0
C431 C 0.53293 0.33162 0.68629 0.0
C432 C 0.49484 0.3235 0.67481 0.0
C433 C 0.46372 0.29307 0.69062 0.0
C434 C 0.47122 0.27263 0.71908 0.0
C435 C 0.53923 0.31053 0.71522 0.0
H436 H 0.44661 0.25004 0.73155 0.0
H437 H 0.56893 0.31814 0.72477 0.0
H438 H 0.52566 0.19419 0.78871 0.0
H439 H 0.53104 0.271 0.88235 0.0
C440 C 0.42706 0.20162 0.79444 0.0
C441 C 0.5219 0.32736 0.85019 0.0
C442 C 0.51151 0.19644 0.69522 0.0
C443 C 0.61342 0.30564 0.78803 0.0
H444 H 0.44696 0.29759 0.88197 0.0
H445 H 0.39559 0.22811 0.85438 0.0
H446 H 0.38564 0.13641 0.73487 0.0
H447 H 0.43107 0.13592 0.67777 0.0
H448 H 0.58977 0.21902 0.68032 0.0
H449 H 0.64577 0.27736 0.7325 0.0
H450 H 0.65309 0.37517 0.83795 0.0
H451 H 0.60237 0.38817 0.86753 0.0
H452 H 0.52888 0.16027 0.84923 0.0
H453 H 0.53495 0.23865 0.94447 0.0
H454 H 0.55771 0.35482 0.67429 0.0
H455 H 0.43385 0.28577 0.68207 0.0
C456 C 0.11507 0.48885 0.03801 0.0
C457 C 0.09102 0.49423 0.06422 0.0
C458 C 0.13093 0.49689 0.13296 0.0
C459 C 0.15666 0.4941 0.10723 0.0
N460 N 0.17695 0.49339 0.03476 0.0
N461 N 0.08483 0.51466 0.1367 0.0
C462 C 0.1499 0.49203 0.05952 0.0
C463 C 0.10166 0.50163 0.11167 0.0
N464 N 0.1038 0.47902 0.99298 0.0
N465 N 0.13313 0.49345 0.17787 0.0
H466 H 0.06467 0.52021 0.12255 0.0
H467 H 0.09429 0.52389 0.17067 0.0
H468 H 0.15401 0.49 0.19506 0.0
H469 H 0.11146 0.49011 0.19674 0.0
H470 H 0.11748 0.47079 0.97274 0.0
H471 H 0.07892 0.47667 0.97635 0.0
H472 H 0.17603 0.49563 1.00038 0.0
H473 H 0.20208 0.49507 0.04938 0.0
C474 C 0.65396 0.095 0.58188 0.0
C475 C 0.62869 0.06304 0.60215 0.0
C476 C 0.66249 0.09513 0.67672 0.0
C477 C 0.68803 0.12661 0.65607 0.0
N478 N 0.71545 0.15353 0.58954 0.0
N479 N 0.6131 0.03033 0.66755 0.0
C480 C 0.68629 0.12541 0.60877 0.0
C481 C 0.63434 0.06238 0.64929 0.0
N482 N 0.6455 0.09753 0.53764 0.0
N483 N 0.66455 0.09691 0.72244 0.0
H484 H 0.59242 1.00606 0.64814 0.0
H485 H 0.61798 0.02707 0.70109 0.0
H486 H 0.6855 0.1202 0.7433 0.0
H487 H 0.64456 0.07604 0.73972 0.0
H488 H 0.66032 0.12161 0.52271 0.0
H489 H 0.62127 0.07671 0.51666 0.0
H490 H 0.71789 0.15249 0.5554 0.0
H491 H 0.73933 0.17655 0.60828 0.0
C492 C 0.54973 0.62636 0.1738 0.0
C493 C 0.5637 0.63343 0.1315 0.0
C494 C 0.56999 0.69238 0.13955 0.0
C495 C 0.56028 0.68688 0.18411 0.0
N496 N 0.55015 0.65129 0.24675 0.0
N497 N 0.59292 0.67583 0.07691 0.0
C498 C 0.5527 0.65458 0.20208 0.0
C499 C 0.57521 0.66715 0.11499 0.0
N500 N 0.53239 0.59214 0.18651 0.0
N501 N 0.5741 0.72166 0.12054 0.0
H502 H 0.59795 0.65845 0.05899 0.0
H503 H 0.60563 0.70129 0.06532 0.0
H504 H 0.57182 0.74114 0.13793 0.0
H505 H 0.577 0.72528 0.08675 0.0
H506 H 0.51785 0.58423 0.21479 0.0
H507 H 0.52888 0.57076 0.16613 0.0
H508 H 0.54811 0.62979 0.26239 0.0
H509 H 0.5552 0.6722 0.26915 0.0
C510 C 0.85524 0.4789 0.51593 0.0
C511 C 0.89493 0.5075 0.51543 0.0
C512 C 0.89308 0.53735 0.58418 0.0
C513 C 0.8523 0.51071 0.58228 0.0
N514 N 0.79268 0.461 0.53961 0.0
N515 N 0.94841 0.56795 0.54223 0.0
C516 C 0.83271 0.48295 0.54602 0.0
C517 C 0.91266 0.53812 0.54734 0.0
N518 N 0.83971 0.44701 0.48996 0.0
N519 N 0.91368 0.56058 0.62209 0.0
H520 H 0.96288 0.56932 0.51475 0.0
H521 H 0.96145 0.59232 0.56243 0.0
H522 H 0.90105 0.55957 0.65106 0.0
H523 H 0.94413 0.5782 0.62647 0.0
H524 H 0.81223 0.42403 0.49277 0.0
H525 H 0.85565 0.44231 0.46887 0.0
H526 H 0.77699 0.44257 0.51127 0.0
H527 H 0.77509 0.46375 0.56021 0.0
C528 C 0.45697 0.92729 0.1512 0.0
C529 C 0.44523 0.93957 0.11337 0.0
C530 C 0.37592 0.89699 0.12603 0.0
C531 C 0.38786 0.8836 0.16231 0.0
N532 N 0.4396 0.8794 0.19977 0.0
N533 N 0.39254 0.93086 0.06025 0.0
C534 C 0.42834 0.89676 0.1718 0.0
C535 C 0.40433 0.92242 0.09914 0.0
N536 N 0.49559 0.94552 0.16892 0.0
N537 N 0.3378 0.88719 0.11883 0.0
H538 H 0.41239 0.94987 0.04079 0.0
H539 H 0.36346 0.91692 0.04539 0.0
H540 H 0.31654 0.86957 0.13809 0.0
H541 H 0.32793 0.8988 0.09638 0.0
H542 H 0.50521 0.94073 0.19953 0.0
H543 H 0.51781 0.96746 0.15513 0.0
H544 H 0.46803 0.88513 0.20426 0.0
H545 H 0.41965 0.85655 0.21463 0.0
C546 C 0.45445 0.35548 0.58117 0.0
C547 C 0.4668 0.3903 0.60043 0.0
C548 C 0.49785 0.38174 0.66834 0.0
C549 C 0.48724 0.34749 0.64816 0.0
N550 N 0.46126 0.30426 0.58272 0.0
N551 N 0.50617 0.43962 0.65806 0.0
C552 C 0.46715 0.33505 0.60373 0.0
C553 C 0.49027 0.4043 0.64282 0.0
N554 N 0.42977 0.34178 0.54168 0.0
N555 N 0.51365 0.39208 0.71249 0.0
H556 H 0.50056 0.45656 0.64046 0.0
H557 H 0.52724 0.4529 0.68613 0.0
H558 H 0.52 0.3766 0.73234 0.0
H559 H 0.51775 0.41467 0.73051 0.0
H560 H 0.41623 0.31518 0.52766 0.0
H561 H 0.42061 0.35654 0.52446 0.0
H562 H 0.45015 0.29544 0.54899 0.0
H563 H 0.47056 0.28894 0.59811 0.0
C564 C 0.52784 0.92213 0.35781 0.0
C565 C 0.54035 0.93259 0.40463 0.0
C566 C 0.54595 0.88002 0.40999 0.0
C567 C 0.53979 0.87303 0.3624 0.0
N568 N 0.52674 0.8894 0.29039 0.0
N569 N 0.56921 0.92515 0.47335 0.0
C570 C 0.53122 0.89469 0.33613 0.0
C571 C 0.55143 0.91242 0.43021 0.0
N572 N 0.51107 0.9373 0.3344 0.0
N573 N 0.54545 0.8552 0.43615 0.0
H574 H 0.57593 0.94978 0.48845 0.0
H575 H 0.58124 0.91335 0.49221 0.0
H576 H 0.5402 0.83066 0.42273 0.0
H577 H 0.54614 0.85733 0.4709 0.0
H578 H 0.49772 0.92846 0.30128 0.0
H579 H 0.50692 0.95632 0.34957 0.0
H580 H 0.52461 0.90665 0.26939 0.0
H581 H 0.52835 0.86939 0.27336 0.0
C582 C 0.6382 0.57553 0.89164 0.0
C583 C 0.63147 0.56069 0.93347 0.0
C584 C 0.67156 0.53626 0.91996 0.0
C585 C 0.67579 0.54862 0.87674 0.0
N586 N 0.65789 0.57475 0.81804 0.0
N587 N 0.63348 0.51897 0.98198 0.0
C588 C 0.65759 0.56678 0.86157 0.0
C589 C 0.64584 0.53883 0.94614 0.0
N590 N 0.62729 0.59893 0.88131 0.0
N591 N 0.69308 0.52305 0.93672 0.0
H592 H 0.61374 0.51889 1.00162 0.0
H593 H 0.63954 0.49955 0.98944 0.0
H594 H 0.7124 0.52079 0.91871 0.0
H595 H 0.69455 0.51751 0.96997 0.0
H596 H 0.63513 0.61372 0.85359 0.0
H597 H 0.61294 0.60578 0.90245 0.0
H598 H 0.64162 0.58438 0.80351 0.0
H599 H 0.67196 0.56895 0.79523 0.0
C600 C 0.12709 0.5895 0.43343 0.0
C601 C 0.10965 0.59648 0.46796 0.0
C602 C 0.1477 0.66107 0.45328 0.0
C603 C 0.16082 0.65309 0.41491 0.0
N604 N 0.1544 0.60648 0.36332 0.0
N605 N 0.09698 0.63877 0.5022 0.0
C606 C 0.14797 0.61633 0.40352 0.0
C607 C 0.11822 0.63226 0.4755 0.0
N608 N 0.12562 0.55792 0.43041 0.0
N609 N 0.1645 0.69621 0.47006 0.0
H610 H 0.07378 0.61848 0.51707 0.0
H611 H 0.09943 0.66349 0.50528 0.0
H612 H 0.18731 0.718 0.45646 0.0
H613 H 0.1588 0.70341 0.50039 0.0
H614 H 0.14091 0.55277 0.40874 0.0
H615 H 0.11316 0.53886 0.45334 0.0
H616 H 0.14281 0.57967 0.35161 0.0
H617 H 0.16776 0.62459 0.33957 0.0
C618 C 0.56734 0.15231 0.98128 0.0
C619 C 0.53535 0.13347 0.00641 0.0
C620 C 0.49981 0.15485 0.96185 0.0
C621 C 0.53307 0.17579 0.93903 0.0
N622 N 0.60116 0.19994 0.93296 0.0
N623 N 0.47348 0.12004 0.02518 0.0
C624 C 0.56766 0.17616 0.95057 0.0
C625 C 0.50226 0.13579 0.99801 0.0
N626 N 0.59659 0.14604 0.98517 0.0
N627 N 0.46548 0.15206 0.9478 0.0
H628 H 0.47469 0.10567 0.0514 0.0
H629 H 0.45017 0.12343 0.02405 0.0
H630 H 0.46259 0.16555 0.92151 0.0
H631 H 0.43909 0.1344 0.9599 0.0
H632 H 0.61842 0.15574 0.96421 0.0
H633 H 0.59702 0.12835 0.00673 0.0
H634 H 0.62839 0.2042 0.94367 0.0
H635 H 0.60259 0.21791 0.91043 0.0
C636 C 0.36493 0.45791 0.39196 0.0
C637 C 0.40649 0.4801 0.39299 0.0
C638 C 0.39546 0.49912 0.31947 0.0
C639 C 0.35465 0.48194 0.32293 0.0
N640 N 0.30235 0.45003 0.36827 0.0
N641 N 0.46128 0.52604 0.35876 0.0
C642 C 0.33993 0.46267 0.36079 0.0
C643 C 0.42181 0.50162 0.35674 0.0
N644 N 0.34906 0.43138 0.42029 0.0
N645 N 0.40911 0.5128 0.28034 0.0
H646 H 0.48149 0.52892 0.38501 0.0
H647 H 0.47366 0.54537 0.33607 0.0
H648 H 0.39082 0.51137 0.25265 0.0
H649 H 0.43765 0.52253 0.27405 0.0
H650 H 0.31899 0.41229 0.41845 0.0
H651 H 0.3662 0.42584 0.44192 0.0
H652 H 0.29139 0.4391 0.39774 0.0
H653 H 0.28334 0.45365 0.34712 0.0
C654 C 0.86673 0.39152 0.9242 0.0
C655 C 0.87424 0.38216 0.96656 0.0
C656 C 0.83001 0.31795 0.93914 0.0
C657 C 0.82881 0.32763 0.89468 0.0
N658 N 0.85208 0.37517 0.84457 0.0
N659 N 0.86493 0.3368 0.01492 0.0
C660 C 0.84861 0.36485 0.88706 0.0
C661 C 0.856 0.34538 0.97444 0.0
N662 N 0.87666 0.42603 0.91972 0.0
N663 N 0.80637 0.28266 0.94746 0.0
H664 H 0.8837 0.35651 0.0412 0.0
H665 H 0.85589 0.31056 0.02136 0.0
H666 H 0.78706 0.26205 0.92226 0.0
H667 H 0.80348 0.27435 0.97965 0.0
H668 H 0.86864 0.43373 0.89048 0.0
H669 H 0.88899 0.44584 0.94693 0.0
H670 H 0.87019 0.40199 0.83783 0.0
H671 H 0.83955 0.35704 0.81588 0.0
C672 C 0.89216 0.51866 0.9262 0.0
C673 C 0.92932 0.52783 0.91451 0.0
C674 C 0.90642 0.5304 0.83619 0.0
C675 C 0.87178 0.52627 0.8497 0.0
N676 N 0.83504 0.52197 0.91003 0.0
N677 N 0.97294 0.54569 0.85815 0.0
C678 C 0.86567 0.52193 0.89542 0.0
C679 C 0.93661 0.53427 0.86926 0.0
N680 N 0.88122 0.50519 0.96633 0.0
N681 N 0.91018 0.53 0.79154 0.0
H682 H 0.99535 0.54853 0.88109 0.0
H683 H 0.98174 0.55478 0.82725 0.0
H684 H 0.8891 0.52766 0.76681 0.0
H685 H 0.93248 0.52908 0.77878 0.0
H686 H 0.8531 0.49453 0.97485 0.0
H687 H 0.89864 0.50064 0.98893 0.0
H688 H 0.83156 0.52305 0.94382 0.0
H689 H 0.81503 0.52427 0.88881 0.0
C690 C 0.41725 0.9216 0.44388 0.0
C691 C 0.41137 0.91992 0.48981 0.0
C692 C 0.35582 0.85661 0.47257 0.0
C693 C 0.36312 0.85802 0.42712 0.0
N694 N 0.4082 0.88873 0.37326 0.0
N695 N 0.37942 0.88468 0.54964 0.0
C696 C 0.39617 0.88951 0.41396 0.0
C697 C 0.38204 0.88695 0.50477 0.0
N698 N 0.44207 0.95414 0.42822 0.0
N699 N 0.32328 0.82659 0.48458 0.0
H700 H 0.39761 0.9067 0.57364 0.0
H701 H 0.36124 0.86059 0.56333 0.0
H702 H 0.30467 0.80345 0.46229 0.0
H703 H 0.31365 0.82521 0.51577 0.0
H704 H 0.44375 0.95753 0.39421 0.0
H705 H 0.45877 0.97846 0.44875 0.0
H706 H 0.43439 0.90983 0.36395 0.0
H707 H 0.3948 0.86556 0.35089 0.0
C708 C 0.50089 0.39675 0.89796 0.0
C709 C 0.5254 0.41002 0.93996 0.0
C710 C 0.54426 0.36662 0.92542 0.0
C711 C 0.52345 0.35631 0.88121 0.0
N712 N 0.4867 0.3663 0.82313 0.0
N713 N 0.57762 0.41325 0.98817 0.0
C714 C 0.50327 0.37292 0.8668 0.0
C715 C 0.54911 0.39651 0.95208 0.0
N716 N 0.47373 0.40529 0.88875 0.0
N717 N 0.55836 0.34718 0.94283 0.0
H718 H 0.58318 0.43613 0.00714 0.0
H719 H 0.59841 0.40693 0.99609 0.0
H720 H 0.55486 0.32478 0.92504 0.0
H721 H 0.57016 0.3512 0.97634 0.0
H722 H 0.45244 0.39373 0.8607 0.0
H723 H 0.46989 0.42108 0.91151 0.0
H724 H 0.47526 0.38046 0.80936 0.0
H725 H 0.48735 0.34874 0.79968 0.0
C726 C 0.08831 0.43114 0.38474 0.0
C727 C 0.06981 0.44977 0.37494 0.0
C728 C 0.11644 0.48388 0.32225 0.0
C729 C 0.1362 0.46625 0.33342 0.0
N730 N 0.14617 0.42909 0.38235 0.0
N731 N 0.06979 0.49834 0.34158 0.0
C732 C 0.12356 0.4415 0.36671 0.0
C733 C 0.08494 0.47747 0.34575 0.0
N734 N 0.07159 0.40313 0.41084 0.0
N735 N 0.12677 0.50576 0.28819 0.0
H736 H 0.04669 0.49432 0.35827 0.0
H737 H 0.08186 0.52139 0.32451 0.0
H738 H 0.15005 0.51192 0.27059 0.0
H739 H 0.11063 0.51592 0.27501 0.0
H740 H 0.08112 0.38581 0.41584 0.0
H741 H 0.04606 0.39556 0.42483 0.0
H742 H 0.14051 0.41362 0.40938 0.0
H743 H 0.17284 0.43712 0.37102 0.0
C744 C 0.63396 0.09738 0.94914 0.0
C745 C 0.59633 0.06846 0.92781 0.0
C746 C 0.61573 0.09176 0.85434 0.0
C747 C 0.65319 0.12085 0.87551 0.0
N748 N 0.69994 0.14848 0.94261 0.0
N749 N 0.55577 0.03329 0.85936 0.0
C750 C 0.66296 0.12243 0.92269 0.0
C751 C 0.58865 0.06437 0.88014 0.0
N752 N 0.64124 0.10263 0.99498 0.0
N753 N 0.60562 0.0905 0.8094 0.0
H754 H 0.5362 0.01242 0.87717 0.0
H755 H 0.54983 0.02641 0.8248 0.0
H756 H 0.62509 0.10834 0.78873 0.0
H757 H 0.57729 0.07311 0.79286 0.0
H758 H 0.66557 0.12562 0.01296 0.0
H759 H 0.6216 0.08533 0.01581 0.0
H760 H 0.71112 0.14834 0.97504 0.0
H761 H 0.72059 0.16953 0.92597 0.0
C762 C 0.4666 0.60998 0.46325 0.0
C763 C 0.49826 0.61761 0.49547 0.0
C764 C 0.53919 0.67839 0.47163 0.0
C765 C 0.50756 0.67068 0.43899 0.0
N766 N 0.43897 0.63273 0.40974 0.0
N767 N 0.5614 0.65995 0.53682 0.0
C768 C 0.47046 0.63755 0.43685 0.0
C769 C 0.53343 0.65235 0.50192 0.0
N770 N 0.4335 0.5758 0.45682 0.0
N771 N 0.5753 0.70959 0.47185 0.0
H772 H 0.55788 0.64079 0.55856 0.0
H773 H 0.58646 0.68564 0.54636 0.0
H774 H 0.58061 0.72943 0.4505 0.0
H775 H 0.60062 0.71506 0.49129 0.0
H776 H 0.41121 0.56678 0.43017 0.0
H777 H 0.42928 0.55573 0.47729 0.0
H778 H 0.41036 0.61048 0.40917 0.0
H779 H 0.44095 0.65261 0.39028 0.0
C780 C 0.52303 0.15421 0.58714 0.0
C781 C 0.50692 0.11769 0.59617 0.0
C782 C 0.49821 0.13362 0.67182 0.0
C783 C 0.50945 0.16886 0.66074 0.0
N784 N 0.52655 0.21017 0.60376 0.0
N785 N 0.47036 0.07115 0.64399 0.0
C786 C 0.52003 0.17834 0.61709 0.0
C787 C 0.49215 0.10703 0.63773 0.0
N788 N 0.54295 0.16644 0.55098 0.0
N789 N 0.49432 0.12557 0.71519 0.0
H790 H 0.46325 0.05081 0.61903 0.0
H791 H 0.45563 0.0615 0.67189 0.0
H792 H 0.49874 0.14403 0.7412 0.0
H793 H 0.49032 0.10175 0.72587 0.0
H794 H 0.55863 0.19357 0.54489 0.0
H795 H 0.54729 0.1501 0.5298 0.0
H796 H 0.53052 0.21696 0.57097 0.0
H797 H 0.5245 0.22834 0.62447 0.0
C798 C 0.4363 0.50667 0.06943 0.0
C799 C 0.43061 0.50568 0.02187 0.0
C800 C 0.37577 0.51316 0.02696 0.0
C801 C 0.37881 0.51002 0.07377 0.0
N802 N 0.41003 0.50177 0.13989 0.0
N803 N 0.39491 0.50683 0.95459 0.0
C804 C 0.40878 0.50653 0.09515 0.0
C805 C 0.40055 0.50899 1.0004 0.0
N806 N 0.46859 0.50847 0.0901 0.0
N807 N 0.34935 0.52041 0.0082 0.0
H808 H 0.41319 0.50465 0.93452 0.0
H809 H 0.37115 0.50524 0.93621 0.0
H810 H 0.33062 0.52314 0.02682 0.0
H811 H 0.34772 0.52625 0.97517 0.0
H812 H 0.47678 0.51307 0.12466 0.0
H813 H 0.48922 0.5081 0.07265 0.0
H814 H 0.42763 0.49425 0.15637 0.0
H815 H 0.39163 0.50321 0.16048 0.0
C816 C 0.90098 0.40533 0.58724 0.0
C817 C 0.93796 0.41139 0.5796 0.0
C818 C 0.92744 0.36602 0.63282 0.0
C819 C 0.88862 0.35714 0.63589 0.0
N820 N 0.83746 0.36697 0.61317 0.0
N821 N 0.98509 0.39521 0.59318 0.0
C822 C 0.87528 0.37655 0.61237 0.0
C823 C 0.95103 0.39139 0.60238 0.0
N824 N 0.89083 0.42809 0.57149 0.0
N825 N 0.94185 0.35024 0.65919 0.0
H826 H 1.00332 0.41396 0.57231 0.0
H827 H 0.99424 0.37857 0.60407 0.0
H828 H 0.92505 0.33072 0.68019 0.0
H829 H 0.97104 0.3581 0.66258 0.0
H830 H 0.86681 0.42826 0.57988 0.0
H831 H 0.90883 0.44942 0.55357 0.0
H832 H 0.82402 0.37645 0.59216 0.0
H833 H 0.81833 0.3475 0.63274 0.0
C834 C 0.59861 0.95907 0.18766 0.0
C835 C 0.60086 0.9632 0.14136 0.0
C836 C 0.59478 0.90511 0.12901 0.0
C837 C 0.59339 0.90138 0.17561 0.0
N838 N 0.6035 0.92867 0.25083 0.0
N839 N 0.60909 0.94479 0.06952 0.0
C840 C 0.59855 0.92972 0.20547 0.0
C841 C 0.60144 0.93754 0.11251 0.0
N842 N 0.59398 0.98193 0.21402 0.0
N843 N 0.58898 0.87736 0.10055 0.0
H844 H 0.61458 0.96867 0.05718 0.0
H845 H 0.61332 0.92892 0.04746 0.0
H846 H 0.58602 0.85406 0.11185 0.0
H847 H 0.58519 0.87655 0.06573 0.0
H848 H 0.58733 0.97775 0.24679 0.0
H849 H 0.59342 1.00344 0.20189 0.0
H850 H 0.61158 0.95037 0.27407 0.0
H851 H 0.60235 0.90715 0.26544 0.0
C852 C 0.6178 0.54324 0.61875 0.0
C853 C 0.59969 0.52067 0.57742 0.0
C854 C 0.65027 0.50607 0.5867 0.0
C855 C 0.66276 0.52282 0.6317 0.0
N856 N 0.65167 0.55155 0.69287 0.0
N857 N 0.59713 0.47643 0.52499 0.0
C858 C 0.64457 0.53976 0.64833 0.0
C859 C 0.61572 0.50116 0.56184 0.0
N860 N 0.61026 0.56897 0.62938 0.0
N861 N 0.6716 0.49513 0.56741 0.0
H862 H 0.57195 0.47159 0.50591 0.0
H863 H 0.60503 0.45861 0.51547 0.0
H864 H 0.69691 0.49847 0.58439 0.0
H865 H 0.6662 0.48593 0.53351 0.0
H866 H 0.62504 0.58803 0.65733 0.0
H867 H 0.59299 0.57406 0.60731 0.0
H868 H 0.63623 0.56095 0.70742 0.0
H869 H 0.67003 0.5485 0.71599 0.0
C870 C 0.1031 0.61323 0.18071 0.0
C871 C 0.09571 0.61781 0.13528 0.0
C872 C 0.16142 0.67337 0.1411 0.0
C873 C 0.16656 0.67143 0.18797 0.0
N874 N 0.14177 0.64107 0.25365 0.0
N875 N 0.11525 0.65419 0.07336 0.0
C876 C 0.13732 0.64164 0.20815 0.0
C877 C 0.12437 0.64829 0.11563 0.0
N878 N 0.07796 0.58119 0.19706 0.0
N879 N 0.19195 0.69933 0.12109 0.0
H880 H 0.08788 0.63687 0.05445 0.0
H881 H 0.13334 0.67778 0.05867 0.0
H882 H 0.21933 0.71837 0.13897 0.0
H883 H 0.19127 0.70004 0.08645 0.0
H884 H 0.0836 0.57463 0.22852 0.0
H885 H 0.05301 0.55982 0.17747 0.0
H886 H 0.11956 0.6223 0.27102 0.0
H887 H 0.16708 0.66079 0.27448 0.0
loop_
_geom_bond_atom_site_label_1
_geom_bond_atom_site_label_2
_geom_bond_distance
_geom_bond_site_symmetry_2
_ccdc_geom_bond_type
Cu0 N1 1.999 1_454 S
Cu0 O6 1.971 1_454 S
Cu0 N11 1.985 . S
Cu0 O20 1.962 . S
N1 Cu0 1.999 1_656 S
N1 C3 1.263 . S
N1 C5 1.378 1_556 S
N2 C3 1.358 . S
N2 C4 1.400 . S
C3 N1 1.263 . S
C3 N2 1.358 . S
C3 H9 0.930 . S
C4 N2 1.400 . S
C4 C5 1.337 1_556 S
C4 H21 0.930 . S
C5 N1 1.378 1_554 S
C5 C4 1.337 1_554 S
C5 H10 0.952 . S
O6 Cu0 1.971 1_656 S
O6 C16 1.282 . S
C7 O8 1.275 . S
C7 O20 1.251 . S
O8 C7 1.275 . S
H9 C3 0.930 . S
H10 C5 0.952 . S
N11 Cu0 1.985 . S
N11 C13 1.335 . S
N11 C14 1.390 . S
N12 C13 1.345 . S
N12 C15 1.336 . S
C13 N11 1.335 . S
C13 N12 1.345 . S
C13 H18 0.930 . S
C14 N11 1.390 . S
C14 C15 1.346 . S
C14 H19 0.930 . S
C15 N12 1.336 . S
C15 C14 1.346 . S
C15 H22 0.929 . S
C16 O6 1.282 . S
C16 O17 1.216 1_655 S
O17 C16 1.216 1_455 S
H18 C13 0.930 . S
H19 C14 0.930 . S
O20 Cu0 1.962 . S
O20 C7 1.251 . S
H21 C4 0.930 . S
H22 C15 0.929 . S
Cu23 N24 1.999 . S
Cu23 O29 1.974 . S
Cu23 N34 1.985 1_565 S
Cu23 O43 1.959 1_565 S
N24 Cu23 1.999 . S
N24 C26 1.263 . S
N24 C28 1.389 . S
N25 C26 1.358 . S
N25 C27 1.400 . S
C26 N24 1.263 . S
C26 N25 1.358 . S
C26 H32 0.930 . S
C27 N25 1.400 . S
C27 C28 1.351 . S
C27 H44 0.930 . S
C28 N24 1.389 . S
C28 C27 1.351 . S
C28 H33 0.930 . S
O29 Cu23 1.974 . S
O29 C39 1.282 . S
C30 O31 1.261 . S
C30 O43 1.251 . S
O31 C30 1.261 . S
H32 C26 0.930 . S
H33 C28 0.930 . S
N34 Cu23 1.985 1_545 S
N34 C36 1.335 . S
N34 C37 1.390 . S
N35 C36 1.345 . S
N35 C38 1.336 . S
C36 N34 1.335 . S
C36 N35 1.345 . S
C36 H41 0.930 . S
C37 N34 1.390 . S
C37 C38 1.346 . S
C37 H42 0.930 . S
C38 N35 1.336 . S
C38 C37 1.346 . S
C38 H45 0.929 . S
C39 O29 1.282 . S
C39 O40 1.216 . S
O40 C39 1.216 . S
H41 C36 0.930 . S
H42 C37 0.930 . S
O43 Cu23 1.959 1_545 S
O43 C30 1.251 . S
H44 C27 0.930 . S
H45 C38 0.929 . S
Cu46 N47 1.990 1_554 S
Cu46 O52 1.961 1_554 S
Cu46 N57 1.996 . S
Cu46 O66 1.972 . S
N47 Cu46 1.990 1_556 S
N47 C49 1.263 . S
N47 C51 1.389 . S
N48 C49 1.358 . S
N48 C50 1.400 . S
C49 N47 1.263 . S
C49 N48 1.358 . S
C49 H55 0.930 . S
C50 N48 1.400 . S
C50 C51 1.351 . S
C50 H67 0.930 . S
C51 N47 1.389 . S
C51 C50 1.351 . S
C51 H56 0.930 . S
O52 Cu46 1.961 1_556 S
O52 C62 1.282 . S
C53 O54 1.261 . S
C53 O66 1.251 . S
O54 C53 1.261 . S
H55 C49 0.930 . S
H56 C51 0.930 . S
N57 Cu46 1.996 . S
N57 C59 1.335 . S
N57 C60 1.390 . S
N58 C59 1.345 . S
N58 C61 1.336 . S
C59 N57 1.335 . S
C59 N58 1.345 . S
C59 H64 0.930 . S
C60 N57 1.390 . S
C60 C61 1.346 . S
C60 H65 0.930 . S
C61 N58 1.336 . S
C61 C60 1.346 . S
C61 H68 0.929 . S
C62 O52 1.282 . S
C62 O63 1.216 1_556 S
O63 C62 1.216 1_554 S
H64 C59 0.930 . S
H65 C60 0.930 . S
O66 Cu46 1.972 . S
O66 C53 1.251 . S
H67 C50 0.930 . S
H68 C61 0.929 . S
Cu69 N70 1.999 1_655 S
Cu69 O75 1.974 1_655 S
Cu69 N80 1.985 . S
Cu69 O89 1.959 . S
N70 Cu69 1.999 1_455 S
N70 C72 1.263 . S
N70 C74 1.389 1_455 S
N71 C72 1.358 . S
N71 C73 1.400 . S
C72 N70 1.263 . S
C72 N71 1.358 . S
C72 H78 0.930 . S
C73 N71 1.400 . S
C73 C74 1.351 1_455 S
C73 H90 0.930 . S
C74 N70 1.389 1_655 S
C74 C73 1.351 1_655 S
C74 H79 0.930 . S
O75 Cu69 1.974 1_455 S
O75 C85 1.282 . S
C76 O77 1.261 1_655 S
C76 O89 1.251 . S
O77 C76 1.261 1_455 S
H78 C72 0.930 . S
H79 C74 0.930 . S
N80 Cu69 1.985 . S
N80 C82 1.335 . S
N80 C83 1.390 . S
N81 C82 1.345 . S
N81 C84 1.336 . S
C82 N80 1.335 . S
C82 N81 1.345 . S
C82 H87 0.930 . S
C83 N80 1.390 . S
C83 C84 1.346 . S
C83 H88 0.930 1_655 S
C84 N81 1.336 . S
C84 C83 1.346 . S
C84 H91 0.929 . S
C85 O75 1.282 . S
C85 O86 1.216 . S
O86 C85 1.216 . S
H87 C82 0.930 . S
H88 C83 0.930 1_455 S
O89 Cu69 1.959 . S
O89 C76 1.251 . S
H90 C73 0.930 . S
H91 C84 0.929 . S
Cu92 N93 1.999 . S
Cu92 O98 1.974 1_554 S
Cu92 N103 1.985 1_545 S
Cu92 O112 1.959 1_545 S
N93 Cu92 1.999 . S
N93 C95 1.263 1_554 S
N93 C97 1.389 . S
N94 C95 1.358 . S
N94 C96 1.392 1_556 S
C95 N93 1.263 1_556 S
C95 N94 1.358 . S
C95 H101 0.930 . S
C96 N94 1.392 1_554 S
C96 C97 1.356 . S
C96 H113 0.933 . S
C97 N93 1.389 . S
C97 C96 1.356 . S
C97 H102 0.930 . S
O98 Cu92 1.974 1_556 S
O98 C108 1.282 . S
C99 O100 1.261 . S
C99 O112 1.251 . S
O100 C99 1.261 . S
H101 C95 0.930 . S
H102 C97 0.930 . S
N103 Cu92 1.985 1_565 S
N103 C105 1.335 . S
N103 C106 1.390 . S
N104 C105 1.345 . S
N104 C107 1.336 . S
C105 N103 1.335 . S
C105 N104 1.345 . S
C105 H110 0.930 . S
C106 N103 1.390 . S
C106 C107 1.346 . S
C106 H111 0.930 . S
C107 N104 1.336 . S
C107 C106 1.346 . S
C107 H114 0.929 . S
C108 O98 1.282 . S
C108 O109 1.216 . S
O109 C108 1.216 . S
H110 C105 0.930 . S
H111 C106 0.930 . S
O112 Cu92 1.959 1_565 S
O112 C99 1.251 . S
H113 C96 0.933 . S
H114 C107 0.929 . S
Cu115 N116 1.999 . S
Cu115 O121 1.974 . S
Cu115 N126 1.985 . S
Cu115 O135 1.959 . S
N116 Cu115 1.999 . S
N116 C118 1.263 . S
N116 C120 1.389 . S
N117 C118 1.358 . S
N117 C119 1.400 . S
C118 N116 1.263 . S
C118 N117 1.358 . S
C118 H124 0.930 . S
C119 N117 1.400 . S
C119 C120 1.351 . S
C119 H136 0.930 . S
C120 N116 1.389 . S
C120 C119 1.351 . S
C120 H125 0.930 . S
O121 Cu115 1.974 . S
O121 C131 1.282 . S
C122 O123 1.261 . S
C122 O135 1.251 . S
O123 C122 1.261 . S
H124 C118 0.930 . S
H125 C120 0.930 . S
N126 Cu115 1.985 . S
N126 C128 1.335 . S
N126 C129 1.390 . S
N127 C128 1.345 . S
N127 C130 1.336 . S
C128 N126 1.335 . S
C128 N127 1.345 . S
C128 H133 0.930 . S
C129 N126 1.390 . S
C129 C130 1.346 . S
C129 H134 0.930 . S
C130 N127 1.336 . S
C130 C129 1.346 . S
C130 H137 0.929 . S
C131 O121 1.282 . S
C131 O132 1.216 . S
O132 C131 1.216 . S
H133 C128 0.930 . S
H134 C129 0.930 . S
O135 Cu115 1.959 . S
O135 C122 1.251 . S
H136 C119 0.930 . S
H137 C130 0.929 . S
C138 C139 1.443 . S
C138 N142 1.376 . S
C138 C176 1.389 . S
C139 C138 1.443 . S
C139 C140 1.340 . S
C139 H179 0.951 . S
C140 C139 1.340 . S
C140 C141 1.439 . S
C140 H180 0.950 . S
C141 C140 1.439 . S
C141 N142 1.374 . S
C141 C175 1.395 . S
N142 C138 1.376 . S
N142 C141 1.374 . S
N142 Co143 2.008 . S
Co143 N142 2.008 . S
Co143 N144 1.995 . S
Co143 N149 2.008 . S
Co143 N154 1.995 . S
Co143 N159 2.282 . S
Co143 N165 2.282 . S
N144 Co143 1.995 . S
N144 C145 1.376 . S
N144 C148 1.383 . S
C145 N144 1.376 . S
C145 C146 1.446 . S
C145 C175 1.391 . S
C146 C145 1.446 . S
C146 C147 1.339 . S
C146 H181 0.949 . S
C147 C146 1.339 . S
C147 C148 1.439 . S
C147 H182 0.950 . S
C148 N144 1.383 . S
C148 C147 1.439 . S
C148 C177 1.392 . S
N149 Co143 2.008 . S
N149 C150 1.376 . S
N149 C153 1.374 . S
C150 N149 1.376 . S
C150 C151 1.443 . S
C150 C177 1.389 . S
C151 C150 1.443 . S
C151 C152 1.340 . S
C151 H183 0.951 . S
C152 C151 1.340 . S
C152 C153 1.439 . S
C152 H184 0.950 . S
C153 N149 1.374 . S
C153 C152 1.439 . S
C153 C178 1.395 . S
N154 Co143 1.995 . S
N154 C155 1.376 . S
N154 C158 1.383 . S
C155 N154 1.376 . S
C155 C156 1.446 . S
C155 C178 1.391 . S
C156 C155 1.446 . S
C156 C157 1.339 . S
C156 H185 0.949 . S
C157 C156 1.339 . S
C157 C158 1.439 . S
C157 H186 0.950 . S
C158 N154 1.383 . S
C158 C157 1.439 . S
C158 C176 1.392 . S
N159 Co143 2.282 . S
N159 C162 1.332 . S
N159 C164 1.332 . S
C160 C161 1.386 . S
C160 C163 1.388 . S
C161 C160 1.386 . S
C161 C162 1.382 . S
C161 H187 0.950 . S
C162 N159 1.332 . S
C162 C161 1.382 . S
C162 H173 0.952 . S
C163 C160 1.388 . S
C163 C164 1.382 . S
C163 H188 0.950 . S
C164 N159 1.332 . S
C164 C163 1.382 . S
C164 H174 0.948 . S
N165 Co143 2.282 . S
N165 C169 1.332 . S
N165 C170 1.332 . S
C166 C167 1.388 . S
C166 C170 1.382 . S
C166 H189 0.950 . S
C167 C166 1.388 . S
C167 C168 1.386 . S
C168 C167 1.386 . S
C168 C169 1.382 . S
C168 H190 0.950 . S
C169 N165 1.332 . S
C169 C168 1.382 . S
C169 H171 0.952 . S
C170 N165 1.332 . S
C170 C166 1.382 . S
C170 H172 0.948 . S
H171 C169 0.952 . S
H172 C170 0.948 . S
H173 C162 0.952 . S
H174 C164 0.948 . S
C175 C141 1.395 . S
C175 C145 1.391 . S
C176 C138 1.389 . S
C176 C158 1.392 . S
C177 C148 1.392 . S
C177 C150 1.389 . S
C178 C153 1.395 . S
C178 C155 1.391 . S
H179 C139 0.951 . S
H180 C140 0.950 . S
H181 C146 0.949 . S
H182 C147 0.950 . S
H183 C151 0.951 . S
H184 C152 0.950 . S
H185 C156 0.949 . S
H186 C157 0.950 . S
H187 C161 0.950 . S
H188 C163 0.950 . S
H189 C166 0.950 . S
H190 C168 0.950 . S
C191 C192 1.443 . S
C191 N195 1.376 . S
C191 C229 1.389 . S
C192 C191 1.443 . S
C192 C193 1.340 . S
C192 H232 0.951 . S
C193 C192 1.340 . S
C193 C194 1.439 . S
C193 H233 0.950 . S
C194 C193 1.439 . S
C194 N195 1.374 . S
C194 C228 1.395 . S
N195 C191 1.376 . S
N195 C194 1.374 . S
N195 Co196 2.008 . S
Co196 N195 2.008 . S
Co196 N197 1.995 . S
Co196 N202 2.008 . S
Co196 N207 1.995 . S
Co196 N212 2.282 . S
Co196 N218 2.282 . S
N197 Co196 1.995 . S
N197 C198 1.376 . S
N197 C201 1.383 . S
C198 N197 1.376 . S
C198 C199 1.446 . S
C198 C228 1.391 . S
C199 C198 1.446 . S
C199 C200 1.339 . S
C199 H234 0.949 . S
C200 C199 1.339 . S
C200 C201 1.439 . S
C200 H235 0.950 . S
C201 N197 1.383 . S
C201 C200 1.439 . S
C201 C230 1.392 . S
N202 Co196 2.008 . S
N202 C203 1.376 . S
N202 C206 1.374 . S
C203 N202 1.376 . S
C203 C204 1.443 . S
C203 C230 1.389 . S
C204 C203 1.443 . S
C204 C205 1.340 . S
C204 H236 0.951 . S
C205 C204 1.340 . S
C205 C206 1.439 . S
C205 H237 0.950 . S
C206 N202 1.374 . S
C206 C205 1.439 . S
C206 C231 1.395 . S
N207 Co196 1.995 . S
N207 C208 1.376 . S
N207 C211 1.383 . S
C208 N207 1.376 . S
C208 C209 1.446 . S
C208 C231 1.391 . S
C209 C208 1.446 . S
C209 C210 1.339 . S
C209 H238 0.949 . S
C210 C209 1.339 . S
C210 C211 1.439 . S
C210 H239 0.950 . S
C211 N207 1.383 . S
C211 C210 1.439 . S
C211 C229 1.392 . S
N212 Co196 2.282 . S
N212 C215 1.332 . S
N212 C217 1.332 . S
C213 C214 1.386 . S
C213 C216 1.388 . S
C214 C213 1.386 . S
C214 C215 1.382 . S
C214 H240 0.950 . S
C215 N212 1.332 . S
C215 C214 1.382 . S
C215 H226 0.952 . S
C216 C213 1.388 . S
C216 C217 1.382 . S
C216 H241 0.950 . S
C217 N212 1.332 . S
C217 C216 1.382 . S
C217 H227 0.948 . S
N218 Co196 2.282 . S
N218 C222 1.332 . S
N218 C223 1.332 . S
C219 C220 1.388 . S
C219 C223 1.382 . S
C219 H242 0.950 . S
C220 C219 1.388 . S
C220 C221 1.386 . S
C221 C220 1.386 . S
C221 C222 1.382 . S
C221 H243 0.950 . S
C222 N218 1.332 . S
C222 C221 1.382 . S
C222 H224 0.952 . S
C223 N218 1.332 . S
C223 C219 1.382 . S
C223 H225 0.948 . S
H224 C222 0.952 . S
H225 C223 0.948 . S
H226 C215 0.952 . S
H227 C217 0.948 . S
C228 C194 1.395 . S
C228 C198 1.391 . S
C229 C191 1.389 . S
C229 C211 1.392 . S
C230 C201 1.392 . S
C230 C203 1.389 . S
C231 C206 1.395 . S
C231 C208 1.391 . S
H232 C192 0.951 . S
H233 C193 0.950 . S
H234 C199 0.949 . S
H235 C200 0.950 . S
H236 C204 0.951 . S
H237 C205 0.950 . S
H238 C209 0.949 . S
H239 C210 0.950 . S
H240 C214 0.950 . S
H241 C216 0.950 . S
H242 C219 0.950 . S
H243 C221 0.950 . S
C244 C245 1.443 . S
C244 N248 1.376 . S
C244 C282 1.389 . S
C245 C244 1.443 . S
C245 C246 1.340 . S
C245 H285 0.951 . S
C246 C245 1.340 . S
C246 C247 1.439 . S
C246 H286 0.950 . S
C247 C246 1.439 . S
C247 N248 1.374 . S
C247 C281 1.395 . S
N248 C244 1.376 . S
N248 C247 1.374 . S
N248 Co249 2.008 . S
Co249 N248 2.008 . S
Co249 N250 1.995 . S
Co249 N255 2.008 . S
Co249 N260 1.995 . S
Co249 N265 2.282 . S
Co249 N271 2.282 . S
N250 Co249 1.995 . S
N250 C251 1.376 . S
N250 C254 1.383 . S
C251 N250 1.376 . S
C251 C252 1.446 . S
C251 C281 1.391 . S
C252 C251 1.446 . S
C252 C253 1.339 . S
C252 H287 0.949 . S
C253 C252 1.339 . S
C253 C254 1.439 . S
C253 H288 0.950 . S
C254 N250 1.383 . S
C254 C253 1.439 . S
C254 C283 1.392 . S
N255 Co249 2.008 . S
N255 C256 1.376 . S
N255 C259 1.374 . S
C256 N255 1.376 . S
C256 C257 1.443 . S
C256 C283 1.389 . S
C257 C256 1.443 . S
C257 C258 1.340 . S
C257 H289 0.951 . S
C258 C257 1.340 . S
C258 C259 1.439 . S
C258 H290 0.950 . S
C259 N255 1.374 . S
C259 C258 1.439 . S
C259 C284 1.395 . S
N260 Co249 1.995 . S
N260 C261 1.376 . S
N260 C264 1.383 . S
C261 N260 1.376 . S
C261 C262 1.446 . S
C261 C284 1.391 . S
C262 C261 1.446 . S
C262 C263 1.339 . S
C262 H291 0.949 . S
C263 C262 1.339 . S
C263 C264 1.439 . S
C263 H292 0.950 . S
C264 N260 1.383 . S
C264 C263 1.439 . S
C264 C282 1.392 . S
N265 Co249 2.282 . S
N265 C268 1.332 . S
N265 C270 1.332 . S
C266 C267 1.386 . S
C266 C269 1.388 . S
C267 C266 1.386 . S
C267 C268 1.382 . S
C267 H293 0.950 . S
C268 N265 1.332 . S
C268 C267 1.382 . S
C268 H279 0.952 . S
C269 C266 1.388 . S
C269 C270 1.382 . S
C269 H294 0.950 . S
C270 N265 1.332 . S
C270 C269 1.382 . S
C270 H280 0.948 . S
N271 Co249 2.282 . S
N271 C275 1.332 . S
N271 C276 1.332 . S
C272 C273 1.388 . S
C272 C276 1.382 . S
C272 H295 0.950 . S
C273 C272 1.388 . S
C273 C274 1.386 . S
C274 C273 1.386 . S
C274 C275 1.382 . S
C274 H296 0.950 . S
C275 N271 1.332 . S
C275 C274 1.382 . S
C275 H277 0.952 . S
C276 N271 1.332 . S
C276 C272 1.382 . S
C276 H278 0.948 . S
H277 C275 0.952 . S
H278 C276 0.948 . S
H279 C268 0.952 . S
H280 C270 0.948 . S
C281 C247 1.395 . S
C281 C251 1.391 . S
C282 C244 1.389 . S
C282 C264 1.392 . S
C283 C254 1.392 . S
C283 C256 1.389 . S
C284 C259 1.395 . S
C284 C261 1.391 . S
H285 C245 0.951 . S
H286 C246 0.950 . S
H287 C252 0.949 . S
H288 C253 0.950 . S
H289 C257 0.951 . S
H290 C258 0.950 . S
H291 C262 0.949 . S
H292 C263 0.950 . S
H293 C267 0.950 . S
H294 C269 0.950 . S
H295 C272 0.950 . S
H296 C274 0.950 . S
C297 C298 1.443 . S
C297 N301 1.376 . S
C297 C335 1.389 . S
C298 C297 1.443 . S
C298 C299 1.340 . S
C298 H338 0.951 . S
C299 C298 1.340 . S
C299 C300 1.439 . S
C299 H339 0.950 . S
C300 C299 1.439 . S
C300 N301 1.374 . S
C300 C334 1.395 . S
N301 C297 1.376 . S
N301 C300 1.374 . S
N301 Co302 2.008 . S
Co302 N301 2.008 . S
Co302 N303 1.995 . S
Co302 N308 2.008 . S
Co302 N313 1.995 . S
Co302 N318 2.282 . S
Co302 N324 2.282 . S
N303 Co302 1.995 . S
N303 C304 1.376 . S
N303 C307 1.383 . S
C304 N303 1.376 . S
C304 C305 1.446 . S
C304 C334 1.391 . S
C305 C304 1.446 . S
C305 C306 1.339 . S
C305 H340 0.949 . S
C306 C305 1.339 . S
C306 C307 1.439 . S
C306 H341 0.950 . S
C307 N303 1.383 . S
C307 C306 1.439 . S
C307 C336 1.392 . S
N308 Co302 2.008 . S
N308 C309 1.376 . S
N308 C312 1.374 . S
C309 N308 1.376 . S
C309 C310 1.443 . S
C309 C336 1.389 . S
C310 C309 1.443 . S
C310 C311 1.340 . S
C310 H342 0.951 . S
C311 C310 1.340 . S
C311 C312 1.439 . S
C311 H343 0.950 . S
C312 N308 1.374 . S
C312 C311 1.439 . S
C312 C337 1.395 . S
N313 Co302 1.995 . S
N313 C314 1.376 . S
N313 C317 1.383 . S
C314 N313 1.376 . S
C314 C315 1.446 . S
C314 C337 1.391 . S
C315 C314 1.446 . S
C315 C316 1.339 . S
C315 H344 0.949 . S
C316 C315 1.339 . S
C316 C317 1.439 . S
C316 H345 0.950 . S
C317 N313 1.383 . S
C317 C316 1.439 . S
C317 C335 1.392 . S
N318 Co302 2.282 . S
N318 C321 1.332 . S
N318 C323 1.332 . S
C319 C320 1.386 . S
C319 C322 1.388 . S
C320 C319 1.386 . S
C320 C321 1.382 . S
C320 H346 0.950 . S
C321 N318 1.332 . S
C321 C320 1.382 . S
C321 H332 0.952 . S
C322 C319 1.388 . S
C322 C323 1.382 . S
C322 H347 0.950 . S
C323 N318 1.332 . S
C323 C322 1.382 . S
C323 H333 0.948 . S
N324 Co302 2.282 . S
N324 C328 1.332 . S
N324 C329 1.332 . S
C325 C326 1.388 . S
C325 C329 1.382 . S
C325 H348 0.950 . S
C326 C325 1.388 . S
C326 C327 1.386 . S
C327 C326 1.386 . S
C327 C328 1.382 . S
C327 H349 0.950 . S
C328 N324 1.332 . S
C328 C327 1.382 . S
C328 H330 0.952 . S
C329 N324 1.332 . S
C329 C325 1.382 . S
C329 H331 0.948 . S
H330 C328 0.952 . S
H331 C329 0.948 . S
H332 C321 0.952 . S
H333 C323 0.948 . S
C334 C300 1.395 . S
C334 C304 1.391 . S
C335 C297 1.389 . S
C335 C317 1.392 . S
C336 C307 1.392 . S
C336 C309 1.389 . S
C337 C312 1.395 . S
C337 C314 1.391 . S
H338 C298 0.951 . S
H339 C299 0.950 . S
H340 C305 0.949 . S
H341 C306 0.950 . S
H342 C310 0.951 . S
H343 C311 0.950 . S
H344 C315 0.949 . S
H345 C316 0.950 . S
H346 C320 0.950 . S
H347 C322 0.950 . S
H348 C325 0.950 . S
H349 C327 0.950 . S
C350 C351 1.443 . S
C350 N354 1.376 . S
C350 C388 1.389 . S
C351 C350 1.443 . S
C351 C352 1.340 . S
C351 H391 0.951 . S
C352 C351 1.340 . S
C352 C353 1.439 . S
C352 H392 0.950 . S
C353 C352 1.439 . S
C353 N354 1.374 . S
C353 C387 1.395 . S
N354 C350 1.376 . S
N354 C353 1.374 . S
N354 Co355 2.008 . S
Co355 N354 2.008 . S
Co355 N356 1.995 . S
Co355 N361 2.008 . S
Co355 N366 1.995 . S
Co355 N371 2.282 . S
Co355 N377 2.282 . S
N356 Co355 1.995 . S
N356 C357 1.376 . S
N356 C360 1.383 . S
C357 N356 1.376 . S
C357 C358 1.446 . S
C357 C387 1.391 . S
C358 C357 1.446 . S
C358 C359 1.339 . S
C358 H393 0.949 . S
C359 C358 1.339 . S
C359 C360 1.439 . S
C359 H394 0.950 . S
C360 N356 1.383 . S
C360 C359 1.439 . S
C360 C389 1.392 . S
N361 Co355 2.008 . S
N361 C362 1.376 . S
N361 C365 1.374 . S
C362 N361 1.376 . S
C362 C363 1.443 . S
C362 C389 1.389 . S
C363 C362 1.443 . S
C363 C364 1.340 . S
C363 H395 0.951 . S
C364 C363 1.340 . S
C364 C365 1.439 . S
C364 H396 0.950 . S
C365 N361 1.374 . S
C365 C364 1.439 . S
C365 C390 1.395 . S
N366 Co355 1.995 . S
N366 C367 1.376 . S
N366 C370 1.383 . S
C367 N366 1.376 . S
C367 C368 1.446 . S
C367 C390 1.391 . S
C368 C367 1.446 . S
C368 C369 1.339 . S
C368 H397 0.949 . S
C369 C368 1.339 . S
C369 C370 1.439 . S
C369 H398 0.950 . S
C370 N366 1.383 . S
C370 C369 1.439 . S
C370 C388 1.392 . S
N371 Co355 2.282 . S
N371 C374 1.332 . S
N371 C376 1.332 . S
C372 C373 1.386 . S
C372 C375 1.388 . S
C373 C372 1.386 . S
C373 C374 1.382 . S
C373 H399 0.950 . S
C374 N371 1.332 . S
C374 C373 1.382 . S
C374 H385 0.952 . S
C375 C372 1.388 . S
C375 C376 1.382 . S
C375 H400 0.950 . S
C376 N371 1.332 . S
C376 C375 1.382 . S
C376 H386 0.948 . S
N377 Co355 2.282 . S
N377 C381 1.332 . S
N377 C382 1.332 . S
C378 C379 1.388 . S
C378 C382 1.382 . S
C378 H401 0.950 . S
C379 C378 1.388 . S
C379 C380 1.386 . S
C380 C379 1.386 . S
C380 C381 1.382 . S
C380 H402 0.950 . S
C381 N377 1.332 . S
C381 C380 1.382 . S
C381 H383 0.952 . S
C382 N377 1.332 . S
C382 C378 1.382 . S
C382 H384 0.948 . S
H383 C381 0.952 . S
H384 C382 0.948 . S
H385 C374 0.952 . S
H386 C376 0.948 . S
C387 C353 1.395 . S
C387 C357 1.391 . S
C388 C350 1.389 . S
C388 C370 1.392 . S
C389 C360 1.392 . S
C389 C362 1.389 . S
C390 C365 1.395 . S
C390 C367 1.391 . S
H391 C351 0.951 . S
H392 C352 0.950 . S
H393 C358 0.949 . S
H394 C359 0.950 . S
H395 C363 0.951 . S
H396 C364 0.950 . S
H397 C368 0.949 . S
H398 C369 0.950 . S
H399 C373 0.950 . S
H400 C375 0.950 . S
H401 C378 0.950 . S
H402 C380 0.950 . S
C403 C404 1.443 . S
C403 N407 1.376 . S
C403 C441 1.389 . S
C404 C403 1.443 . S
C404 C405 1.340 . S
C404 H444 0.951 . S
C405 C404 1.340 . S
C405 C406 1.439 . S
C405 H445 0.950 . S
C406 C405 1.439 . S
C406 N407 1.374 . S
C406 C440 1.395 . S
N407 C403 1.376 . S
N407 C406 1.374 . S
N407 Co408 2.008 . S
Co408 N407 2.008 . S
Co408 N409 1.995 . S
Co408 N414 2.008 . S
Co408 N419 1.995 . S
Co408 N424 2.282 . S
Co408 N430 2.282 . S
N409 Co408 1.995 . S
N409 C410 1.376 . S
N409 C413 1.383 . S
C410 N409 1.376 . S
C410 C411 1.446 . S
C410 C440 1.391 . S
C411 C410 1.446 . S
C411 C412 1.339 . S
C411 H446 0.949 . S
C412 C411 1.339 . S
C412 C413 1.439 . S
C412 H447 0.950 . S
C413 N409 1.383 . S
C413 C412 1.439 . S
C413 C442 1.392 . S
N414 Co408 2.008 . S
N414 C415 1.376 . S
N414 C418 1.374 . S
C415 N414 1.376 . S
C415 C416 1.443 . S
C415 C442 1.389 . S
C416 C415 1.443 . S
C416 C417 1.340 . S
C416 H448 0.951 . S
C417 C416 1.340 . S
C417 C418 1.439 . S
C417 H449 0.950 . S
C418 N414 1.374 . S
C418 C417 1.439 . S
C418 C443 1.395 . S
N419 Co408 1.995 . S
N419 C420 1.376 . S
N419 C423 1.383 . S
C420 N419 1.376 . S
C420 C421 1.446 . S
C420 C443 1.391 . S
C421 C420 1.446 . S
C421 C422 1.339 . S
C421 H450 0.949 . S
C422 C421 1.339 . S
C422 C423 1.439 . S
C422 H451 0.950 . S
C423 N419 1.383 . S
C423 C422 1.439 . S
C423 C441 1.392 . S
N424 Co408 2.282 . S
N424 C427 1.332 . S
N424 C429 1.332 . S
C425 C426 1.386 . S
C425 C428 1.388 . S
C426 C425 1.386 . S
C426 C427 1.382 . S
C426 H452 0.950 . S
C427 N424 1.332 . S
C427 C426 1.382 . S
C427 H438 0.952 . S
C428 C425 1.388 . S
C428 C429 1.382 . S
C428 H453 0.950 . S
C429 N424 1.332 . S
C429 C428 1.382 . S
C429 H439 0.948 . S
N430 Co408 2.282 . S
N430 C434 1.332 . S
N430 C435 1.332 . S
C431 C432 1.388 . S
C431 C435 1.382 . S
C431 H454 0.950 . S
C432 C431 1.388 . S
C432 C433 1.386 . S
C433 C432 1.386 . S
C433 C434 1.382 . S
C433 H455 0.950 . S
C434 N430 1.332 . S
C434 C433 1.382 . S
C434 H436 0.952 . S
C435 N430 1.332 . S
C435 C431 1.382 . S
C435 H437 0.948 . S
H436 C434 0.952 . S
H437 C435 0.948 . S
H438 C427 0.952 . S
H439 C429 0.948 . S
C440 C406 1.395 . S
C440 C410 1.391 . S
C441 C403 1.389 . S
C441 C423 1.392 . S
C442 C413 1.392 . S
C442 C415 1.389 . S
C443 C418 1.395 . S
C443 C420 1.391 . S
H444 C404 0.951 . S
H445 C405 0.950 . S
H446 C411 0.949 . S
H447 C412 0.950 . S
H448 C416 0.951 . S
H449 C417 0.950 . S
H450 C421 0.949 . S
H451 C422 0.950 . S
H452 C426 0.950 . S
H453 C428 0.950 . S
H454 C431 0.950 . S
H455 C433 0.950 . S
C456 C457 1.363 . S
C456 C462 1.379 . S
C456 N464 1.356 . S
C457 C456 1.363 . S
C457 C463 1.363 . S
C458 C459 1.363 . S
C458 C463 1.379 . S
C458 N465 1.356 . S
C459 C458 1.363 . S
C459 C462 1.363 . S
N460 C462 1.356 . S
N460 H472 0.984 . S
N460 H473 0.985 . S
N461 C463 1.356 . S
N461 H466 0.984 . S
N461 H467 0.985 . S
C462 C456 1.379 . S
C462 C459 1.363 . S
C462 N460 1.356 . S
C463 C457 1.363 . S
C463 C458 1.379 . S
C463 N461 1.356 . S
N464 C456 1.356 . S
N464 H470 0.984 . S
N464 H471 0.984 . S
N465 C458 1.356 . S
N465 H468 0.984 . S
N465 H469 0.985 . S
H466 N461 0.984 . S
H467 N461 0.985 . S
H468 N465 0.984 . S
H469 N465 0.985 . S
H470 N464 0.984 . S
H471 N464 0.984 . S
H472 N460 0.984 . S
H473 N460 0.985 . S
C474 C475 1.363 . S
C474 C480 1.379 . S
C474 N482 1.356 . S
C475 C474 1.363 . S
C475 C481 1.363 . S
C476 C477 1.363 . S
C476 C481 1.379 . S
C476 N483 1.356 . S
C477 C476 1.363 . S
C477 C480 1.363 . S
N478 C480 1.356 . S
N478 H490 0.984 . S
N478 H491 0.985 . S
N479 C481 1.356 . S
N479 H484 0.984 . S
N479 H485 0.985 . S
C480 C474 1.379 . S
C480 C477 1.363 . S
C480 N478 1.356 . S
C481 C475 1.363 . S
C481 C476 1.379 . S
C481 N479 1.356 . S
N482 C474 1.356 . S
N482 H488 0.984 . S
N482 H489 0.984 . S
N483 C476 1.356 . S
N483 H486 0.984 . S
N483 H487 0.985 . S
H484 N479 0.984 . S
H485 N479 0.985 . S
H486 N483 0.984 . S
H487 N483 0.985 . S
H488 N482 0.984 . S
H489 N482 0.984 . S
H490 N478 0.984 . S
H491 N478 0.985 . S
C492 C493 1.363 . S
C492 C498 1.379 . S
C492 N500 1.356 . S
C493 C492 1.363 . S
C493 C499 1.363 . S
C494 C495 1.363 . S
C494 C499 1.379 . S
C494 N501 1.356 . S
C495 C494 1.363 . S
C495 C498 1.363 . S
N496 C498 1.356 . S
N496 H508 0.984 . S
N496 H509 0.985 . S
N497 C499 1.356 . S
N497 H502 0.984 . S
N497 H503 0.985 . S
C498 C492 1.379 . S
C498 C495 1.363 . S
C498 N496 1.356 . S
C499 C493 1.363 . S
C499 C494 1.379 . S
C499 N497 1.356 . S
N500 C492 1.356 . S
N500 H506 0.984 . S
N500 H507 0.984 . S
N501 C494 1.356 . S
N501 H504 0.984 . S
N501 H505 0.985 . S
H502 N497 0.984 . S
H503 N497 0.985 . S
H504 N501 0.984 . S
H505 N501 0.985 . S
H506 N500 0.984 . S
H507 N500 0.984 . S
H508 N496 0.984 . S
H509 N496 0.985 . S
C510 C511 1.363 . S
C510 C516 1.379 . S
C510 N518 1.356 . S
C511 C510 1.363 . S
C511 C517 1.363 . S
C512 C513 1.363 . S
C512 C517 1.379 . S
C512 N519 1.356 . S
C513 C512 1.363 . S
C513 C516 1.363 . S
N514 C516 1.356 . S
N514 H526 0.984 . S
N514 H527 0.985 . S
N515 C517 1.356 . S
N515 H520 0.984 . S
N515 H521 0.985 . S
C516 C510 1.379 . S
C516 C513 1.363 . S
C516 N514 1.356 . S
C517 C511 1.363 . S
C517 C512 1.379 . S
C517 N515 1.356 . S
N518 C510 1.356 . S
N518 H524 0.984 . S
N518 H525 0.984 . S
N519 C512 1.356 . S
N519 H522 0.984 . S
N519 H523 0.985 . S
H520 N515 0.984 . S
H521 N515 0.985 . S
H522 N519 0.984 . S
H523 N519 0.985 . S
H524 N518 0.984 . S
H525 N518 0.984 . S
H526 N514 0.984 . S
H527 N514 0.985 . S
C528 C529 1.363 . S
C528 C534 1.379 . S
C528 N536 1.356 . S
C529 C528 1.363 . S
C529 C535 1.363 . S
C530 C531 1.363 . S
C530 C535 1.379 . S
C530 N537 1.356 . S
C531 C530 1.363 . S
C531 C534 1.363 . S
N532 C534 1.356 . S
N532 H544 0.984 . S
N532 H545 0.985 . S
N533 C535 1.356 . S
N533 H538 0.984 . S
N533 H539 0.985 . S
C534 C528 1.379 . S
C534 C531 1.363 . S
C534 N532 1.356 . S
C535 C529 1.363 . S
C535 C530 1.379 . S
C535 N533 1.356 . S
N536 C528 1.356 . S
N536 H542 0.984 1_565 S
N536 H543 0.984 . S
N537 C530 1.356 . S
N537 H540 0.984 . S
N537 H541 0.985 . S
H538 N533 0.984 . S
H539 N533 0.985 . S
H540 N537 0.984 . S
H541 N537 0.985 . S
H542 N536 0.984 1_545 S
H543 N536 0.984 . S
H544 N532 0.984 . S
H545 N532 0.985 . S
C546 C547 1.363 . S
C546 C552 1.379 . S
C546 N554 1.356 . S
C547 C546 1.363 . S
C547 C553 1.363 . S
C548 C549 1.363 . S
C548 C553 1.379 . S
C548 N555 1.356 . S
C549 C548 1.363 . S
C549 C552 1.363 . S
N550 C552 1.356 . S
N550 H562 0.984 . S
N550 H563 0.985 . S
N551 C553 1.356 . S
N551 H556 0.984 . S
N551 H557 0.985 . S
C552 C546 1.379 . S
C552 C549 1.363 . S
C552 N550 1.356 . S
C553 C547 1.363 . S
C553 C548 1.379 . S
C553 N551 1.356 . S
N554 C546 1.356 . S
N554 H560 0.984 . S
N554 H561 0.984 . S
N555 C548 1.356 . S
N555 H558 0.984 . S
N555 H559 0.985 . S
H556 N551 0.984 . S
H557 N551 0.985 . S
H558 N555 0.984 . S
H559 N555 0.985 . S
H560 N554 0.984 . S
H561 N554 0.984 . S
H562 N550 0.984 . S
H563 N550 0.985 . S
C564 C565 1.363 . S
C564 C570 1.379 . S
C564 N572 1.356 . S
C565 C564 1.363 . S
C565 C571 1.363 . S
C566 C567 1.363 . S
C566 C571 1.379 . S
C566 N573 1.356 . S
C567 C566 1.363 . S
C567 C570 1.363 . S
N568 C570 1.356 . S
N568 H580 0.984 . S
N568 H581 0.985 . S
N569 C571 1.356 . S
N569 H574 0.984 . S
N569 H575 0.985 . S
C570 C564 1.379 . S
C570 C567 1.363 . S
C570 N568 1.356 . S
C571 C565 1.363 . S
C571 C566 1.379 . S
C571 N569 1.356 . S
N572 C564 1.356 . S
N572 H578 0.984 . S
N572 H579 0.984 . S
N573 C566 1.356 . S
N573 H576 0.984 . S
N573 H577 0.985 . S
H574 N569 0.984 . S
H575 N569 0.985 . S
H576 N573 0.984 . S
H577 N573 0.985 . S
H578 N572 0.984 . S
H579 N572 0.984 . S
H580 N568 0.984 . S
H581 N568 0.985 . S
C582 C583 1.363 . S
C582 C588 1.379 . S
C582 N590 1.356 . S
C583 C582 1.363 . S
C583 C589 1.363 . S
C584 C585 1.363 . S
C584 C589 1.379 . S
C584 N591 1.356 . S
C585 C584 1.363 . S
C585 C588 1.363 . S
N586 C588 1.356 . S
N586 H598 0.984 . S
N586 H599 0.985 . S
N587 C589 1.356 . S
N587 H592 0.984 . S
N587 H593 0.985 . S
C588 C582 1.379 . S
C588 C585 1.363 . S
C588 N586 1.356 . S
C589 C583 1.363 . S
C589 C584 1.379 . S
C589 N587 1.356 . S
N590 C582 1.356 . S
N590 H596 0.984 . S
N590 H597 0.984 . S
N591 C584 1.356 . S
N591 H594 0.984 . S
N591 H595 0.985 . S
H592 N587 0.984 . S
H593 N587 0.985 . S
H594 N591 0.984 . S
H595 N591 0.985 . S
H596 N590 0.984 . S
H597 N590 0.984 . S
H598 N586 0.984 . S
H599 N586 0.985 . S
C600 C601 1.363 . S
C600 C606 1.379 . S
C600 N608 1.356 . S
C601 C600 1.363 . S
C601 C607 1.363 . S
C602 C603 1.363 . S
C602 C607 1.379 . S
C602 N609 1.356 . S
C603 C602 1.363 . S
C603 C606 1.363 . S
N604 C606 1.356 . S
N604 H616 0.984 . S
N604 H617 0.985 . S
N605 C607 1.356 . S
N605 H610 0.984 . S
N605 H611 0.985 . S
C606 C600 1.379 . S
C606 C603 1.363 . S
C606 N604 1.356 . S
C607 C601 1.363 . S
C607 C602 1.379 . S
C607 N605 1.356 . S
N608 C600 1.356 . S
N608 H614 0.984 . S
N608 H615 0.984 . S
N609 C602 1.356 . S
N609 H612 0.984 . S
N609 H613 0.985 . S
H610 N605 0.984 . S
H611 N605 0.985 . S
H612 N609 0.984 . S
H613 N609 0.985 . S
H614 N608 0.984 . S
H615 N608 0.984 . S
H616 N604 0.984 . S
H617 N604 0.985 . S
C618 C619 1.363 . S
C618 C624 1.379 . S
C618 N626 1.356 . S
C619 C618 1.363 . S
C619 C625 1.363 . S
C620 C621 1.363 . S
C620 C625 1.379 . S
C620 N627 1.356 . S
C621 C620 1.363 . S
C621 C624 1.363 . S
N622 C624 1.356 . S
N622 H634 0.984 . S
N622 H635 0.985 . S
N623 C625 1.356 . S
N623 H628 0.984 . S
N623 H629 0.985 . S
C624 C618 1.379 . S
C624 C621 1.363 . S
C624 N622 1.356 . S
C625 C619 1.363 . S
C625 C620 1.379 . S
C625 N623 1.356 . S
N626 C618 1.356 . S
N626 H632 0.984 1_556 S
N626 H633 0.984 . S
N627 C620 1.356 . S
N627 H630 0.984 . S
N627 H631 0.985 . S
H628 N623 0.984 . S
H629 N623 0.985 . S
H630 N627 0.984 . S
H631 N627 0.985 . S
H632 N626 0.984 1_554 S
H633 N626 0.984 . S
H634 N622 0.984 . S
H635 N622 0.985 . S
C636 C637 1.363 . S
C636 C642 1.379 . S
C636 N644 1.356 . S
C637 C636 1.363 . S
C637 C643 1.363 . S
C638 C639 1.363 . S
C638 C643 1.379 . S
C638 N645 1.356 . S
C639 C638 1.363 . S
C639 C642 1.363 . S
N640 C642 1.356 . S
N640 H652 0.984 . S
N640 H653 0.985 . S
N641 C643 1.356 . S
N641 H646 0.984 . S
N641 H647 0.985 . S
C642 C636 1.379 . S
C642 C639 1.363 . S
C642 N640 1.356 . S
C643 C637 1.363 . S
C643 C638 1.379 . S
C643 N641 1.356 . S
N644 C636 1.356 . S
N644 H650 0.984 . S
N644 H651 0.984 . S
N645 C638 1.356 . S
N645 H648 0.984 . S
N645 H649 0.985 . S
H646 N641 0.984 . S
H647 N641 0.985 . S
H648 N645 0.984 . S
H649 N645 0.985 . S
H650 N644 0.984 . S
H651 N644 0.984 . S
H652 N640 0.984 . S
H653 N640 0.985 . S
C654 C655 1.363 . S
C654 C660 1.379 . S
C654 N662 1.356 . S
C655 C654 1.363 . S
C655 C661 1.363 . S
C656 C657 1.363 . S
C656 C661 1.379 . S
C656 N663 1.356 . S
C657 C656 1.363 . S
C657 C660 1.363 . S
N658 C660 1.356 . S
N658 H670 0.984 . S
N658 H671 0.985 . S
N659 C661 1.356 . S
N659 H664 0.984 . S
N659 H665 0.985 . S
C660 C654 1.379 . S
C660 C657 1.363 . S
C660 N658 1.356 . S
C661 C655 1.363 . S
C661 C656 1.379 . S
C661 N659 1.356 . S
N662 C654 1.356 . S
N662 H668 0.984 . S
N662 H669 0.984 . S
N663 C656 1.356 . S
N663 H666 0.984 . S
N663 H667 0.985 . S
H664 N659 0.984 . S
H665 N659 0.985 . S
H666 N663 0.984 . S
H667 N663 0.985 . S
H668 N662 0.984 . S
H669 N662 0.984 . S
H670 N658 0.984 . S
H671 N658 0.985 . S
C672 C673 1.363 . S
C672 C678 1.379 . S
C672 N680 1.356 . S
C673 C672 1.363 . S
C673 C679 1.363 . S
C674 C675 1.363 . S
C674 C679 1.379 . S
C674 N681 1.356 . S
C675 C674 1.363 . S
C675 C678 1.363 . S
N676 C678 1.356 . S
N676 H688 0.984 . S
N676 H689 0.985 . S
N677 C679 1.356 . S
N677 H682 0.984 . S
N677 H683 0.985 . S
C678 C672 1.379 . S
C678 C675 1.363 . S
C678 N676 1.356 . S
C679 C673 1.363 . S
C679 C674 1.379 . S
C679 N677 1.356 . S
N680 C672 1.356 . S
N680 H686 0.984 1_556 S
N680 H687 0.984 . S
N681 C674 1.356 . S
N681 H684 0.984 . S
N681 H685 0.985 . S
H682 N677 0.984 . S
H683 N677 0.985 . S
H684 N681 0.984 . S
H685 N681 0.985 . S
H686 N680 0.984 1_554 S
H687 N680 0.984 . S
H688 N676 0.984 . S
H689 N676 0.985 . S
C690 C691 1.363 . S
C690 C696 1.379 . S
C690 N698 1.356 . S
C691 C690 1.363 . S
C691 C697 1.363 . S
C692 C693 1.363 . S
C692 C697 1.379 . S
C692 N699 1.356 . S
C693 C692 1.363 . S
C693 C696 1.363 . S
N694 C696 1.356 . S
N694 H706 0.984 . S
N694 H707 0.985 . S
N695 C697 1.356 . S
N695 H700 0.984 . S
N695 H701 0.985 . S
C696 C690 1.379 . S
C696 C693 1.363 . S
C696 N694 1.356 . S
C697 C691 1.363 . S
C697 C692 1.379 . S
C697 N695 1.356 . S
N698 C690 1.356 . S
N698 H704 0.984 . S
N698 H705 0.984 . S
N699 C692 1.356 . S
N699 H702 0.984 . S
N699 H703 0.985 . S
H700 N695 0.984 . S
H701 N695 0.985 . S
H702 N699 0.984 . S
H703 N699 0.985 . S
H704 N698 0.984 . S
H705 N698 0.984 . S
H706 N694 0.984 . S
H707 N694 0.985 . S
C708 C709 1.363 . S
C708 C714 1.379 . S
C708 N716 1.356 . S
C709 C708 1.363 . S
C709 C715 1.363 . S
C710 C711 1.363 . S
C710 C715 1.379 . S
C710 N717 1.356 . S
C711 C710 1.363 . S
C711 C714 1.363 . S
N712 C714 1.356 . S
N712 H724 0.984 . S
N712 H725 0.985 . S
N713 C715 1.356 . S
N713 H718 0.984 . S
N713 H719 0.985 . S
C714 C708 1.379 . S
C714 C711 1.363 . S
C714 N712 1.356 . S
C715 C709 1.363 . S
C715 C710 1.379 . S
C715 N713 1.356 . S
N716 C708 1.356 . S
N716 H722 0.984 . S
N716 H723 0.984 . S
N717 C710 1.356 . S
N717 H720 0.984 . S
N717 H721 0.985 . S
H718 N713 0.984 . S
H719 N713 0.985 . S
H720 N717 0.984 . S
H721 N717 0.985 . S
H722 N716 0.984 . S
H723 N716 0.984 . S
H724 N712 0.984 . S
H725 N712 0.985 . S
C726 C727 1.363 . S
C726 C732 1.379 . S
C726 N734 1.356 . S
C727 C726 1.363 . S
C727 C733 1.363 . S
C728 C729 1.363 . S
C728 C733 1.379 . S
C728 N735 1.356 . S
C729 C728 1.363 . S
C729 C732 1.363 . S
N730 C732 1.356 . S
N730 H742 0.984 . S
N730 H743 0.985 . S
N731 C733 1.356 . S
N731 H736 0.984 . S
N731 H737 0.985 . S
C732 C726 1.379 . S
C732 C729 1.363 . S
C732 N730 1.356 . S
C733 C727 1.363 . S
C733 C728 1.379 . S
C733 N731 1.356 . S
N734 C726 1.356 . S
N734 H740 0.984 . S
N734 H741 0.984 . S
N735 C728 1.356 . S
N735 H738 0.984 . S
N735 H739 0.985 . S
H736 N731 0.984 . S
H737 N731 0.985 . S
H738 N735 0.984 . S
H739 N735 0.985 . S
H740 N734 0.984 . S
H741 N734 0.984 . S
H742 N730 0.984 . S
H743 N730 0.985 . S
C744 C745 1.363 . S
C744 C750 1.379 . S
C744 N752 1.356 . S
C745 C744 1.363 . S
C745 C751 1.363 . S
C746 C747 1.363 . S
C746 C751 1.379 . S
C746 N753 1.356 . S
C747 C746 1.363 . S
C747 C750 1.363 . S
N748 C750 1.356 . S
N748 H760 0.984 . S
N748 H761 0.985 . S
N749 C751 1.356 . S
N749 H754 0.984 . S
N749 H755 0.985 1_545 S
C750 C744 1.379 . S
C750 C747 1.363 . S
C750 N748 1.356 . S
C751 C745 1.363 . S
C751 C746 1.379 . S
C751 N749 1.356 . S
N752 C744 1.356 . S
N752 H758 0.984 . S
N752 H759 0.984 . S
N753 C746 1.356 . S
N753 H756 0.984 . S
N753 H757 0.985 . S
H754 N749 0.984 . S
H755 N749 0.985 1_565 S
H756 N753 0.984 . S
H757 N753 0.985 . S
H758 N752 0.984 . S
H759 N752 0.984 . S
H760 N748 0.984 . S
H761 N748 0.985 . S
C762 C763 1.363 . S
C762 C768 1.379 . S
C762 N770 1.356 . S
C763 C762 1.363 . S
C763 C769 1.363 . S
C764 C765 1.363 . S
C764 C769 1.379 . S
C764 N771 1.356 . S
C765 C764 1.363 . S
C765 C768 1.363 . S
N766 C768 1.356 . S
N766 H778 0.984 . S
N766 H779 0.985 . S
N767 C769 1.356 . S
N767 H772 0.984 . S
N767 H773 0.985 . S
C768 C762 1.379 . S
C768 C765 1.363 . S
C768 N766 1.356 . S
C769 C763 1.363 . S
C769 C764 1.379 . S
C769 N767 1.356 . S
N770 C762 1.356 . S
N770 H776 0.984 . S
N770 H777 0.984 . S
N771 C764 1.356 . S
N771 H774 0.984 . S
N771 H775 0.985 . S
H772 N767 0.984 . S
H773 N767 0.985 . S
H774 N771 0.984 . S
H775 N771 0.985 . S
H776 N770 0.984 . S
H777 N770 0.984 . S
H778 N766 0.984 . S
H779 N766 0.985 . S
C780 C781 1.363 . S
C780 C786 1.379 . S
C780 N788 1.356 . S
C781 C780 1.363 . S
C781 C787 1.363 . S
C782 C783 1.363 . S
C782 C787 1.379 . S
C782 N789 1.356 . S
C783 C782 1.363 . S
C783 C786 1.363 . S
N784 C786 1.356 . S
N784 H796 0.984 . S
N784 H797 0.985 . S
N785 C787 1.356 . S
N785 H790 0.984 . S
N785 H791 0.985 . S
C786 C780 1.379 . S
C786 C783 1.363 . S
C786 N784 1.356 . S
C787 C781 1.363 . S
C787 C782 1.379 . S
C787 N785 1.356 . S
N788 C780 1.356 . S
N788 H794 0.984 . S
N788 H795 0.984 . S
N789 C782 1.356 . S
N789 H792 0.984 . S
N789 H793 0.985 . S
H790 N785 0.984 . S
H791 N785 0.985 . S
H792 N789 0.984 . S
H793 N789 0.985 . S
H794 N788 0.984 . S
H795 N788 0.984 . S
H796 N784 0.984 . S
H797 N784 0.985 . S
C798 C799 1.363 . S
C798 C804 1.379 . S
C798 N806 1.356 . S
C799 C798 1.363 . S
C799 C805 1.363 . S
C800 C801 1.363 . S
C800 C805 1.379 . S
C800 N807 1.356 . S
C801 C800 1.363 . S
C801 C804 1.363 . S
N802 C804 1.356 . S
N802 H814 0.984 . S
N802 H815 0.985 . S
N803 C805 1.356 . S
N803 H808 0.984 . S
N803 H809 0.984 1_554 S
C804 C798 1.379 . S
C804 C801 1.363 . S
C804 N802 1.356 . S
C805 C799 1.363 . S
C805 C800 1.379 . S
C805 N803 1.356 . S
N806 C798 1.356 . S
N806 H812 0.984 . S
N806 H813 0.984 . S
N807 C800 1.356 . S
N807 H810 0.984 . S
N807 H811 0.985 . S
H808 N803 0.984 . S
H809 N803 0.984 1_556 S
H810 N807 0.984 . S
H811 N807 0.985 . S
H812 N806 0.984 . S
H813 N806 0.984 . S
H814 N802 0.984 . S
H815 N802 0.985 . S
C816 C817 1.363 . S
C816 C822 1.379 . S
C816 N824 1.356 . S
C817 C816 1.363 . S
C817 C823 1.363 . S
C818 C819 1.363 . S
C818 C823 1.379 . S
C818 N825 1.356 . S
C819 C818 1.363 . S
C819 C822 1.363 . S
N820 C822 1.356 . S
N820 H832 0.984 . S
N820 H833 0.985 . S
N821 C823 1.356 . S
N821 H826 0.984 . S
N821 H827 0.985 1_655 S
C822 C816 1.379 . S
C822 C819 1.363 . S
C822 N820 1.356 . S
C823 C817 1.363 . S
C823 C818 1.379 . S
C823 N821 1.356 . S
N824 C816 1.356 . S
N824 H830 0.984 . S
N824 H831 0.984 . S
N825 C818 1.356 . S
N825 H828 0.984 . S
N825 H829 0.985 . S
H826 N821 0.984 . S
H827 N821 0.985 1_455 S
H828 N825 0.984 . S
H829 N825 0.985 . S
H830 N824 0.984 . S
H831 N824 0.984 . S
H832 N820 0.984 . S
H833 N820 0.985 . S
C834 C835 1.363 . S
C834 C840 1.379 . S
C834 N842 1.356 . S
C835 C834 1.363 . S
C835 C841 1.363 . S
C836 C837 1.363 . S
C836 C841 1.379 . S
C836 N843 1.356 . S
C837 C836 1.363 . S
C837 C840 1.363 . S
N838 C840 1.356 . S
N838 H850 0.984 . S
N838 H851 0.985 . S
N839 C841 1.356 . S
N839 H844 0.984 . S
N839 H845 0.985 . S
C840 C834 1.379 . S
C840 C837 1.363 . S
C840 N838 1.356 . S
C841 C835 1.363 . S
C841 C836 1.379 . S
C841 N839 1.356 . S
N842 C834 1.356 . S
N842 H848 0.984 . S
N842 H849 0.984 . S
N843 C836 1.356 . S
N843 H846 0.984 . S
N843 H847 0.985 . S
H844 N839 0.984 . S
H845 N839 0.985 . S
H846 N843 0.984 . S
H847 N843 0.985 . S
H848 N842 0.984 . S
H849 N842 0.984 . S
H850 N838 0.984 . S
H851 N838 0.985 . S
C852 C853 1.363 . S
C852 C858 1.379 . S
C852 N860 1.356 . S
C853 C852 1.363 . S
C853 C859 1.363 . S
C854 C855 1.363 . S
C854 C859 1.379 . S
C854 N861 1.356 . S
C855 C854 1.363 . S
C855 C858 1.363 . S
N856 C858 1.356 . S
N856 H868 0.984 . S
N856 H869 0.985 . S
N857 C859 1.356 . S
N857 H862 0.984 . S
N857 H863 0.985 . S
C858 C852 1.379 . S
C858 C855 1.363 . S
C858 N856 1.356 . S
C859 C853 1.363 . S
C859 C854 1.379 . S
C859 N857 1.356 . S
N860 C852 1.356 . S
N860 H866 0.984 . S
N860 H867 0.984 . S
N861 C854 1.356 . S
N861 H864 0.984 . S
N861 H865 0.985 . S
H862 N857 0.984 . S
H863 N857 0.985 . S
H864 N861 0.984 . S
H865 N861 0.985 . S
H866 N860 0.984 . S
H867 N860 0.984 . S
H868 N856 0.984 . S
H869 N856 0.985 . S
C870 C871 1.363 . S
C870 C876 1.379 . S
C870 N878 1.356 . S
C871 C870 1.363 . S
C871 C877 1.363 . S
C872 C873 1.363 . S
C872 C877 1.379 . S
C872 N879 1.356 . S
C873 C872 1.363 . S
C873 C876 1.363 . S
N874 C876 1.356 . S
N874 H886 0.984 . S
N874 H887 0.985 . S
N875 C877 1.356 . S
N875 H880 0.984 . S
N875 H881 0.985 . S
C876 C870 1.379 . S
C876 C873 1.363 . S
C876 N874 1.356 . S
C877 C871 1.363 . S
C877 C872 1.379 . S
C877 N875 1.356 . S
N878 C870 1.356 . S
N878 H884 0.984 . S
N878 H885 0.984 . S
N879 C872 1.356 . S
N879 H882 0.984 . S
N879 H883 0.985 . S
H880 N875 0.984 . S
H881 N875 0.985 . S
H882 N879 0.984 . S
H883 N879 0.985 . S
H884 N878 0.984 . S
H885 N878 0.984 . S
H886 N874 0.984 . S
H887 N874 0.985 . S
C457 C7 2.087 . S
C459 C176 2.059 . S
C475 C30 1.544 . S
C477 C229 1.512 . S
C495 C282 1.824 . S
C493 N58 1.797 . S
C513 C319 1.302 . S
C511 N81 1.265 . S
C531 C379 1.800 . S
C529 C99 1.835 . S
C549 C432 1.403 . S
C547 N127 1.375 . S
C565 N25 1.894 . S
C567 C283 1.916 . S
C583 C62 1.520 . S
C585 C326 1.483 . S
C603 C372 1.839 . S
C601 C85 1.856 . S
C621 C425 1.349 . S
C619 N94 1.356 . S
C637 C131 1.950 . S
C639 C177 1.911 . S
C657 C230 1.411 . S
C655 N2 1.391 . S
C675 C336 2.026 . S
C673 C16 2.038 . S
C691 C39 1.505 . S
C693 C388 1.499 . S
C711 C441 1.829 . S
C709 N48 1.797 . S
C727 N71 1.241 . S
C729 C167 1.267 . S
C745 C108 1.808 . S
C747 C220 1.800 . S
C763 N117 1.372 . S
C765 C273 1.403 . S
C781 N35 1.865 . S
C783 C442 1.907 . S
C801 C160 1.477 . S
C799 C53 1.502 . S
C817 C76 1.886 . S
C819 C213 1.860 . S
C835 N104 1.294 . S
C837 C266 1.310 . S
C853 C122 1.896 . S
C855 C335 1.878 . S
C871 N12 1.337 . S
C873 C389 1.383 . S
