# Generated by pormake.
# Topology gar, (4,6)-cn, num edge types: 1
# Building blocks:
#     Node 0, Type 0, BuildingBlock: QUQFOY_clean_sbu_1, # of connection points: 4
#     Node 1, Type 0, BuildingBlock: QUQFOY_clean_sbu_1, # of connection points: 4
#     Node 2, Type 0, BuildingBlock: QUQFOY_clean_sbu_1, # of connection points: 4
#     Node 3, Type 0, BuildingBlock: QUQFOY_clean_sbu_1, # of connection points: 4
#     Node 4, Type 0, BuildingBlock: QUQFOY_clean_sbu_1, # of connection points: 4
#     Node 5, Type 0, BuildingBlock: QUQFOY_clean_sbu_1, # of connection points: 4
#     Node 6, Type 0, BuildingBlock: QUQFOY_clean_sbu_1, # of connection points: 4
#     Node 7, Type 0, BuildingBlock: QUQFOY_clean_sbu_1, # of connection points: 4
#     Node 8, Type 0, BuildingBlock: QUQFOY_clean_sbu_1, # of connection points: 4
#     Node 9, Type 0, BuildingBlock: QUQFOY_clean_sbu_1, # of connection points: 4
#     Node 10, Type 0, BuildingBlock: QUQFOY_clean_sbu_1, # of connection points: 4
#     Node 11, Type 0, BuildingBlock: QUQFOY_clean_sbu_1, # of connection points: 4
#     Node 12, Type 0, BuildingBlock: QUQFOY_clean_sbu_1, # of connection points: 4
#     Node 13, Type 0, BuildingBlock: QUQFOY_clean_sbu_1, # of connection points: 4
#     Node 14, Type 0, BuildingBlock: QUQFOY_clean_sbu_1, # of connection points: 4
#     Node 15, Type 0, BuildingBlock: QUQFOY_clean_sbu_1, # of connection points: 4
#     Node 16, Type 0, BuildingBlock: QUQFOY_clean_sbu_1, # of connection points: 4
#     Node 17, Type 0, BuildingBlock: QUQFOY_clean_sbu_1, # of connection points: 4
#     Node 18, Type 0, BuildingBlock: QUQFOY_clean_sbu_1, # of connection points: 4
#     Node 19, Type 0, BuildingBlock: QUQFOY_clean_sbu_1, # of connection points: 4
#     Node 20, Type 0, BuildingBlock: QUQFOY_clean_sbu_1, # of connection points: 4
#     Node 21, Type 0, BuildingBlock: QUQFOY_clean_sbu_1, # of connection points: 4
#     Node 22, Type 0, BuildingBlock: QUQFOY_clean_sbu_1, # of connection points: 4
#     Node 23, Type 0, BuildingBlock: QUQFOY_clean_sbu_1, # of connection points: 4
#     Node 24, Type 1, BuildingBlock: KUMBOL_clean_sbu_1, # of connection points: 6
#     Node 25, Type 1, BuildingBlock: KUMBOL_clean_sbu_1, # of connection points: 6
#     Node 26, Type 1, BuildingBlock: KUMBOL_clean_sbu_1, # of connection points: 6
#     Node 27, Type 1, BuildingBlock: KUMBOL_clean_sbu_1, # of connection points: 6
#     Node 28, Type 1, BuildingBlock: KUMBOL_clean_sbu_1, # of connection points: 6
#     Node 29, Type 1, BuildingBlock: KUMBOL_clean_sbu_1, # of connection points: 6
#     Node 30, Type 1, BuildingBlock: KUMBOL_clean_sbu_1, # of connection points: 6
#     Node 31, Type 1, BuildingBlock: KUMBOL_clean_sbu_1, # of connection points: 6
#     Node 32, Type 1, BuildingBlock: KUMBOL_clean_sbu_1, # of connection points: 6
#     Node 33, Type 1, BuildingBlock: KUMBOL_clean_sbu_1, # of connection points: 6
#     Node 34, Type 1, BuildingBlock: KUMBOL_clean_sbu_1, # of connection points: 6
#     Node 35, Type 1, BuildingBlock: KUMBOL_clean_sbu_1, # of connection points: 6
#     Node 36, Type 1, BuildingBlock: KUMBOL_clean_sbu_1, # of connection points: 6
#     Node 37, Type 1, BuildingBlock: KUMBOL_clean_sbu_1, # of connection points: 6
#     Node 38, Type 1, BuildingBlock: KUMBOL_clean_sbu_1, # of connection points: 6
#     Node 39, Type 1, BuildingBlock: KUMBOL_clean_sbu_1, # of connection points: 6
#     Edge 40, Type (0, 1), BuildingBlock: MIFKUJ_clean_linker_0, # of connection points: 2
#     Edge 41, Type (0, 1), BuildingBlock: MIFKUJ_clean_linker_0, # of connection points: 2
#     Edge 42, Type (0, 1), BuildingBlock: MIFKUJ_clean_linker_0, # of connection points: 2
#     Edge 43, Type (0, 1), BuildingBlock: MIFKUJ_clean_linker_0, # of connection points: 2
#     Edge 44, Type (0, 1), BuildingBlock: MIFKUJ_clean_linker_0, # of connection points: 2
#     Edge 45, Type (0, 1), BuildingBlock: MIFKUJ_clean_linker_0, # of connection points: 2
#     Edge 46, Type (0, 1), BuildingBlock: MIFKUJ_clean_linker_0, # of connection points: 2
#     Edge 47, Type (0, 1), BuildingBlock: MIFKUJ_clean_linker_0, # of connection points: 2
#     Edge 48, Type (0, 1), BuildingBlock: MIFKUJ_clean_linker_0, # of connection points: 2
#     Edge 49, Type (0, 1), BuildingBlock: MIFKUJ_clean_linker_0, # of connection points: 2
#     Edge 50, Type (0, 1), BuildingBlock: MIFKUJ_clean_linker_0, # of connection points: 2
#     Edge 51, Type (0, 1), BuildingBlock: MIFKUJ_clean_linker_0, # of connection points: 2
#     Edge 52, Type (0, 1), BuildingBlock: MIFKUJ_clean_linker_0, # of connection points: 2
#     Edge 53, Type (0, 1), BuildingBlock: MIFKUJ_clean_linker_0, # of connection points: 2
#     Edge 54, Type (0, 1), BuildingBlock: MIFKUJ_clean_linker_0, # of connection points: 2
#     Edge 55, Type (0, 1), BuildingBlock: MIFKUJ_clean_linker_0, # of connection points: 2
#     Edge 56, Type (0, 1), BuildingBlock: MIFKUJ_clean_linker_0, # of connection points: 2
#     Edge 57, Type (0, 1), BuildingBlock: MIFKUJ_clean_linker_0, # of connection points: 2
#     Edge 58, Type (0, 1), BuildingBlock: MIFKUJ_clean_linker_0, # of connection points: 2
#     Edge 59, Type (0, 1), BuildingBlock: MIFKUJ_clean_linker_0, # of connection points: 2
#     Edge 60, Type (0, 1), BuildingBlock: MIFKUJ_clean_linker_0, # of connection points: 2
#     Edge 61, Type (0, 1), BuildingBlock: MIFKUJ_clean_linker_0, # of connection points: 2
#     Edge 62, Type (0, 1), BuildingBlock: MIFKUJ_clean_linker_0, # of connection points: 2
#     Edge 63, Type (0, 1), BuildingBlock: MIFKUJ_clean_linker_0, # of connection points: 2
#     Edge 64, Type (0, 1), BuildingBlock: MIFKUJ_clean_linker_0, # of connection points: 2
#     Edge 65, Type (0, 1), BuildingBlock: MIFKUJ_clean_linker_0, # of connection points: 2
#     Edge 66, Type (0, 1), BuildingBlock: MIFKUJ_clean_linker_0, # of connection points: 2
#     Edge 67, Type (0, 1), BuildingBlock: MIFKUJ_clean_linker_0, # of connection points: 2
#     Edge 68, Type (0, 1), BuildingBlock: MIFKUJ_clean_linker_0, # of connection points: 2
#     Edge 69, Type (0, 1), BuildingBlock: MIFKUJ_clean_linker_0, # of connection points: 2
#     Edge 70, Type (0, 1), BuildingBlock: MIFKUJ_clean_linker_0, # of connection points: 2
#     Edge 71, Type (0, 1), BuildingBlock: MIFKUJ_clean_linker_0, # of connection points: 2
#     Edge 72, Type (0, 1), BuildingBlock: MIFKUJ_clean_linker_0, # of connection points: 2
#     Edge 73, Type (0, 1), BuildingBlock: MIFKUJ_clean_linker_0, # of connection points: 2
#     Edge 74, Type (0, 1), BuildingBlock: MIFKUJ_clean_linker_0, # of connection points: 2
#     Edge 75, Type (0, 1), BuildingBlock: MIFKUJ_clean_linker_0, # of connection points: 2
#     Edge 76, Type (0, 1), BuildingBlock: MIFKUJ_clean_linker_0, # of connection points: 2
#     Edge 77, Type (0, 1), BuildingBlock: MIFKUJ_clean_linker_0, # of connection points: 2
#     Edge 78, Type (0, 1), BuildingBlock: MIFKUJ_clean_linker_0, # of connection points: 2
#     Edge 79, Type (0, 1), BuildingBlock: MIFKUJ_clean_linker_0, # of connection points: 2
#     Edge 80, Type (0, 1), BuildingBlock: MIFKUJ_clean_linker_0, # of connection points: 2
#     Edge 81, Type (0, 1), BuildingBlock: MIFKUJ_clean_linker_0, # of connection points: 2
#     Edge 82, Type (0, 1), BuildingBlock: MIFKUJ_clean_linker_0, # of connection points: 2
#     Edge 83, Type (0, 1), BuildingBlock: MIFKUJ_clean_linker_0, # of connection points: 2
#     Edge 84, Type (0, 1), BuildingBlock: MIFKUJ_clean_linker_0, # of connection points: 2
#     Edge 85, Type (0, 1), BuildingBlock: MIFKUJ_clean_linker_0, # of connection points: 2
#     Edge 86, Type (0, 1), BuildingBlock: MIFKUJ_clean_linker_0, # of connection points: 2
#     Edge 87, Type (0, 1), BuildingBlock: MIFKUJ_clean_linker_0, # of connection points: 2
#     Edge 88, Type (0, 1), BuildingBlock: MIFKUJ_clean_linker_0, # of connection points: 2
#     Edge 89, Type (0, 1), BuildingBlock: MIFKUJ_clean_linker_0, # of connection points: 2
#     Edge 90, Type (0, 1), BuildingBlock: MIFKUJ_clean_linker_0, # of connection points: 2
#     Edge 91, Type (0, 1), BuildingBlock: MIFKUJ_clean_linker_0, # of connection points: 2
#     Edge 92, Type (0, 1), BuildingBlock: MIFKUJ_clean_linker_0, # of connection points: 2
#     Edge 93, Type (0, 1), BuildingBlock: MIFKUJ_clean_linker_0, # of connection points: 2
#     Edge 94, Type (0, 1), BuildingBlock: MIFKUJ_clean_linker_0, # of connection points: 2
#     Edge 95, Type (0, 1), BuildingBlock: MIFKUJ_clean_linker_0, # of connection points: 2
#     Edge 96, Type (0, 1), BuildingBlock: MIFKUJ_clean_linker_0, # of connection points: 2
#     Edge 97, Type (0, 1), BuildingBlock: MIFKUJ_clean_linker_0, # of connection points: 2
#     Edge 98, Type (0, 1), BuildingBlock: MIFKUJ_clean_linker_0, # of connection points: 2
#     Edge 99, Type (0, 1), BuildingBlock: MIFKUJ_clean_linker_0, # of connection points: 2
#     Edge 100, Type (0, 1), BuildingBlock: MIFKUJ_clean_linker_0, # of connection points: 2
#     Edge 101, Type (0, 1), BuildingBlock: MIFKUJ_clean_linker_0, # of connection points: 2
#     Edge 102, Type (0, 1), BuildingBlock: MIFKUJ_clean_linker_0, # of connection points: 2
#     Edge 103, Type (0, 1), BuildingBlock: MIFKUJ_clean_linker_0, # of connection points: 2
#     Edge 104, Type (0, 1), BuildingBlock: MIFKUJ_clean_linker_0, # of connection points: 2
#     Edge 105, Type (0, 1), BuildingBlock: MIFKUJ_clean_linker_0, # of connection points: 2
#     Edge 106, Type (0, 1), BuildingBlock: MIFKUJ_clean_linker_0, # of connection points: 2
#     Edge 107, Type (0, 1), BuildingBlock: MIFKUJ_clean_linker_0, # of connection points: 2
#     Edge 108, Type (0, 1), BuildingBlock: MIFKUJ_clean_linker_0, # of connection points: 2
#     Edge 109, Type (0, 1), BuildingBlock: MIFKUJ_clean_linker_0, # of connection points: 2
#     Edge 110, Type (0, 1), BuildingBlock: MIFKUJ_clean_linker_0, # of connection points: 2
#     Edge 111, Type (0, 1), BuildingBlock: MIFKUJ_clean_linker_0, # of connection points: 2
#     Edge 112, Type (0, 1), BuildingBlock: MIFKUJ_clean_linker_0, # of connection points: 2
#     Edge 113, Type (0, 1), BuildingBlock: MIFKUJ_clean_linker_0, # of connection points: 2
#     Edge 114, Type (0, 1), BuildingBlock: MIFKUJ_clean_linker_0, # of connection points: 2
#     Edge 115, Type (0, 1), BuildingBlock: MIFKUJ_clean_linker_0, # of connection points: 2
#     Edge 116, Type (0, 1), BuildingBlock: MIFKUJ_clean_linker_0, # of connection points: 2
#     Edge 117, Type (0, 1), BuildingBlock: MIFKUJ_clean_linker_0, # of connection points: 2
#     Edge 118, Type (0, 1), BuildingBlock: MIFKUJ_clean_linker_0, # of connection points: 2
#     Edge 119, Type (0, 1), BuildingBlock: MIFKUJ_clean_linker_0, # of connection points: 2
#     Edge 120, Type (0, 1), BuildingBlock: MIFKUJ_clean_linker_0, # of connection points: 2
#     Edge 121, Type (0, 1), BuildingBlock: MIFKUJ_clean_linker_0, # of connection points: 2
#     Edge 122, Type (0, 1), BuildingBlock: MIFKUJ_clean_linker_0, # of connection points: 2
#     Edge 123, Type (0, 1), BuildingBlock: MIFKUJ_clean_linker_0, # of connection points: 2
#     Edge 124, Type (0, 1), BuildingBlock: MIFKUJ_clean_linker_0, # of connection points: 2
#     Edge 125, Type (0, 1), BuildingBlock: MIFKUJ_clean_linker_0, # of connection points: 2
#     Edge 126, Type (0, 1), BuildingBlock: MIFKUJ_clean_linker_0, # of connection points: 2
#     Edge 127, Type (0, 1), BuildingBlock: MIFKUJ_clean_linker_0, # of connection points: 2
#     Edge 128, Type (0, 1), BuildingBlock: MIFKUJ_clean_linker_0, # of connection points: 2
#     Edge 129, Type (0, 1), BuildingBlock: MIFKUJ_clean_linker_0, # of connection points: 2
#     Edge 130, Type (0, 1), BuildingBlock: MIFKUJ_clean_linker_0, # of connection points: 2
#     Edge 131, Type (0, 1), BuildingBlock: MIFKUJ_clean_linker_0, # of connection points: 2
#     Edge 132, Type (0, 1), BuildingBlock: MIFKUJ_clean_linker_0, # of connection points: 2
#     Edge 133, Type (0, 1), BuildingBlock: MIFKUJ_clean_linker_0, # of connection points: 2
#     Edge 134, Type (0, 1), BuildingBlock: MIFKUJ_clean_linker_0, # of connection points: 2
#     Edge 135, Type (0, 1), BuildingBlock: MIFKUJ_clean_linker_0, # of connection points: 2
# Relax obj value: 0.078
# Max RMSD: 0.183
# Mean RMSD: 0.141
data_MOF--net-gar--node1-QUQFOY_clean_sbu_1--node2-KUMBOL_clean_sbu_1--edge1-MIFKUJ_clean_linker_0
_symmetry_space_group_name_H-M    P1
_symmetry_Int_Tables_number       1
_symmetry_cell_setting            triclinic
loop_
_symmetry_equiv_pos_as_xyz
'x, y, z'
_cell_length_a     77.718771
_cell_length_b     77.73573
_cell_length_c     73.310533
_cell_angle_alpha  95.989416
_cell_angle_beta   95.978196
_cell_angle_gamma 102.74899
loop_
_atom_site_label
_atom_site_type_symbol
_atom_site_fract_x
_atom_site_fract_y
_atom_site_fract_z
_atom_type_partial_charge
O0 O 0.04341 0.27184 0.3798 0.0
Cd1 Cd 0.04381 0.28721 0.35782 0.0
Cd2 Cd 0.02908 0.3086 0.39163 0.0
O3 O 0.03496 0.28681 0.4035 0.0
O4 O 0.05758 0.27426 0.34015 0.0
O5 O 0.06878 0.3016 0.35315 0.0
C6 C 0.07107 0.28776 0.34316 0.0
C7 C 0.03366 0.33726 0.40988 0.0
C8 C 0.03986 0.27322 0.39644 0.0
C9 C 1.00475 0.29479 0.35383 0.0
O10 O 0.00746 0.30171 0.37077 0.0
O11 O 0.01724 0.28953 0.346 0.0
O12 O 0.02184 0.32369 0.41272 0.0
O13 O 0.04325 0.33472 0.39695 0.0
O14 O 1.00446 0.72385 0.68828 0.0
Cd15 Cd 0.0076 0.74586 0.70878 0.0
Cd16 Cd 0.02478 0.76258 0.67989 0.0
O17 O 0.01524 0.73723 0.66524 0.0
O18 O 0.98734 0.73958 0.72547 0.0
O19 O 0.9881 0.7608 0.7081 0.0
C20 C 0.9796 0.75134 0.7193 0.0
C21 C 0.0229 0.78825 0.6659 0.0
C22 C 0.00836 0.72308 0.67174 0.0
C23 C 0.04946 0.76022 0.71426 0.0
O24 O 0.04753 0.76499 0.69826 0.0
O25 O 0.03559 0.75337 0.72173 0.0
O26 O 0.03393 0.7788 0.66166 0.0
O27 O 0.01235 0.78286 0.67769 0.0
O28 O 0.57146 0.79863 0.87529 0.0
Cd29 Cd 0.55159 0.79661 0.89286 0.0
Cd30 Cd 0.53373 0.80972 0.85957 0.0
O31 O 0.55702 0.80229 0.84876 0.0
O32 O 0.56023 0.78372 0.91338 0.0
O33 O 0.5362 0.77179 0.89364 0.0
C34 C 0.54721 0.77019 0.90748 0.0
C35 C 0.50253 0.80224 0.84479 0.0
C36 C 0.57112 0.79968 0.85799 0.0
C37 C 0.54211 0.83311 0.89824 0.0
O38 O 0.53879 0.83205 0.88062 0.0
O39 O 0.54582 0.81998 0.90567 0.0
O40 O 0.51476 0.81408 0.83944 0.0
O41 O 0.50803 0.79366 0.85753 0.0
O42 O 0.50816 0.21483 0.1848 0.0
Cd43 Cd 0.51105 0.23675 0.20577 0.0
Cd44 Cd 0.52668 0.25384 0.17755 0.0
O45 O 0.51811 0.229 0.16194 0.0
O46 O 0.49014 0.23078 0.22165 0.0
O47 O 0.4924 0.2526 0.20488 0.0
C48 C 0.48324 0.24316 0.21565 0.0
C49 C 0.52432 0.28009 0.16502 0.0
C50 C 0.51191 0.2145 0.16818 0.0
C51 C 0.55228 0.25133 0.21138 0.0
O52 O 0.54949 0.25583 0.19536 0.0
O53 O 0.53881 0.24463 0.21945 0.0
O54 O 0.5358 0.27132 0.16044 0.0
O55 O 0.51359 0.27372 0.17626 0.0
O56 O 0.04051 0.75769 0.11886 0.0
Cd57 Cd 0.04284 0.7807 0.13688 0.0
Cd58 Cd 0.05957 0.79688 0.10792 0.0
O59 O 0.05241 0.76894 0.09521 0.0
O60 O 0.02737 0.77164 0.15567 0.0
O61 O 0.02223 0.79261 0.13927 0.0
C62 C 0.01752 0.78234 0.15153 0.0
C63 C 0.05377 0.82461 0.0974 0.0
C64 C 0.04546 0.75533 0.10298 0.0
C65 C 0.0821 0.79692 0.14512 0.0
O66 O 0.08149 0.80015 0.12838 0.0
O67 O 0.06794 0.79048 0.15176 0.0
O68 O 0.06611 0.81743 0.09177 0.0
O69 O 0.04392 0.8157 0.10804 0.0
O70 O 0.53461 0.7645 0.4371 0.0
Cd71 Cd 0.51845 0.76286 0.45835 0.0
Cd72 Cd 0.4968 0.77559 0.42355 0.0
O73 O 0.51833 0.76854 0.41176 0.0
O74 O 0.53081 0.74898 0.47652 0.0
O75 O 0.50423 0.73737 0.46175 0.0
C76 C 0.51764 0.73521 0.47255 0.0
C77 C 0.46815 0.77149 0.40506 0.0
C78 C 0.5328 0.76604 0.41987 0.0
C79 C 0.51058 0.80129 0.46114 0.0
O80 O 0.50409 0.79783 0.44402 0.0
O81 O 0.51535 0.7891 0.46986 0.0
O82 O 0.48201 0.78295 0.40221 0.0
O83 O 0.4704 0.76197 0.41813 0.0
O84 O 0.54771 0.2558 0.61935 0.0
Cd85 Cd 0.55058 0.27851 0.63744 0.0
Cd86 Cd 0.56822 0.29499 0.60976 0.0
O87 O 0.56034 0.26707 0.59624 0.0
O88 O 0.53356 0.26934 0.65495 0.0
O89 O 0.53087 0.29174 0.63958 0.0
C90 C 0.5247 0.28086 0.65076 0.0
C91 C 0.56146 0.32282 0.60004 0.0
C92 C 0.55285 0.25339 0.60361 0.0
C93 C 0.59034 0.29323 0.64681 0.0
O94 O 0.59029 0.29804 0.63061 0.0
O95 O 0.57572 0.28633 0.65249 0.0
O96 O 0.57287 0.31527 0.5928 0.0
O97 O 0.55314 0.31429 0.61201 0.0
O98 O 0.00694 0.23333 0.94228 0.0
Cd99 Cd 0.00858 0.25221 0.92378 0.0
Cd100 Cd 0.99675 0.27235 0.95676 0.0
O101 O 1.00298 0.24863 0.9682 0.0
O102 O 0.02293 0.24361 0.90461 0.0
O103 O 0.03258 0.26917 0.92273 0.0
C104 C 0.03539 0.25774 0.90996 0.0
C105 C 1.00471 0.3035 0.97141 0.0
C106 C 1.00558 0.23421 0.95953 0.0
C107 C 0.97263 0.26259 0.91779 0.0
O108 O 0.97501 0.26841 0.9351 0.0
O109 O 0.98457 0.25624 0.91054 0.0
O110 O 0.99226 0.29167 0.97641 0.0
O111 O 0.0136 0.29767 0.95917 0.0
O112 O 0.38432 0.01573 0.27618 0.0
Cd113 Cd 0.37382 0.01863 0.3004 0.0
Cd114 Cd 0.40272 0.0165 0.31245 0.0
O115 O 0.41052 0.02911 0.29102 0.0
O116 O 0.35352 0.0286 0.29485 0.0
O117 O 0.37841 0.0429 0.31331 0.0
C118 C 0.36294 0.04289 0.30486 0.0
C119 C 0.41615 0.02523 0.34167 0.0
C120 C 0.40043 0.02347 0.27592 0.0
C121 C 0.37436 0.98537 0.30975 0.0
O122 O 0.39031 0.99021 0.30663 0.0
O123 O 0.36543 0.99691 0.31249 0.0
O124 O 0.42394 0.01785 0.32938 0.0
O125 O 0.4008 0.02847 0.33696 0.0
O126 O 0.28245 0.17287 0.54963 0.0
Cd127 Cd 0.28042 0.15518 0.52638 0.0
Cd128 Cd 0.2662 0.18149 0.51053 0.0
O129 O 0.27401 0.1952 0.53792 0.0
O130 O 0.29436 0.13872 0.53648 0.0
O131 O 0.30155 0.15303 0.5129 0.0
C132 C 0.30514 0.14254 0.52453 0.0
C133 C 0.27209 0.19336 0.48243 0.0
C134 C 0.27922 0.1882 0.55191 0.0
C135 C 0.24146 0.14551 0.5122 0.0
O136 O 0.24318 0.16128 0.50809 0.0
O137 O 0.25485 0.1401 0.51872 0.0
O138 O 0.26136 0.19877 0.49277 0.0
O139 O 0.28027 0.18186 0.48841 0.0
O140 O 0.12991 0.02554 0.76115 0.0
Cd141 Cd 0.14676 0.02647 0.78488 0.0
Cd142 Cd 0.12016 0.04018 0.7994 0.0
O143 O 0.10632 0.03151 0.77244 0.0
O144 O 0.16319 0.01252 0.77488 0.0
O145 O 0.14786 0.0048 0.79771 0.0
C146 C 0.15874 1.00148 0.78642 0.0
C147 C 0.10859 0.03482 0.82764 0.0
C148 C 0.11411 0.02755 0.75861 0.0
C149 C 0.15638 0.06503 0.79891 0.0
O150 O 0.14005 0.06332 0.80105 0.0
O151 O 0.16233 0.05146 0.79421 0.0
O152 O 0.10304 0.04532 0.81711 0.0
O153 O 0.12011 0.02659 0.82178 0.0
O154 O 0.28155 0.92259 0.03437 0.0
Cd155 Cd 0.28081 0.93445 0.01083 0.0
Cd156 Cd 0.28374 0.90577 0.99699 0.0
O157 O 0.27226 0.89606 0.01844 0.0
O158 O 0.27028 0.95407 0.01772 0.0
O159 O 0.25759 0.93136 0.99568 0.0
C160 C 0.25677 0.9456 0.006 0.0
C161 C 0.27463 0.89254 0.96755 0.0
C162 C 0.27546 0.90604 0.03374 0.0
C163 C 0.31525 0.93479 0.00236 0.0
O164 O 0.30999 0.91818 0.00246 0.0
O165 O 0.30417 0.9445 0.00222 0.0
O166 O 0.28252 0.88482 0.97947 0.0
O167 O 0.2713 0.90777 0.97255 0.0
O168 O 0.28525 0.38116 0.07401 0.0
Cd169 Cd 0.2879 0.40005 0.05595 0.0
Cd170 Cd 0.29905 0.37098 0.03516 0.0
O171 O 0.29199 0.35823 0.05805 0.0
O172 O 0.27535 0.41764 0.06718 0.0
O173 O 0.26566 0.40154 0.03991 0.0
C174 C 0.26327 0.41291 0.053 0.0
C175 C 0.29294 0.35685 0.00408 0.0
C176 C 0.28712 0.36525 0.07259 0.0
C177 C 0.32563 0.40708 0.0468 0.0
O178 O 0.32219 0.39073 0.04021 0.0
O179 O 0.31353 0.41401 0.05278 0.0
O180 O 0.30521 0.35382 0.01568 0.0
O181 O 0.28329 0.36715 0.01026 0.0
O182 O 0.76794 0.12591 0.08038 0.0
Cd183 Cd 0.76626 0.11053 0.056 0.0
Cd184 Cd 0.76405 0.13848 0.04317 0.0
O185 O 0.77862 0.14973 0.06759 0.0
O186 O 0.78037 0.09303 0.05834 0.0
O187 O 0.78683 0.11679 0.04315 0.0
C188 C 0.79102 0.10306 0.04925 0.0
C189 C 0.76892 0.15015 0.01645 0.0
C190 C 0.77525 0.14233 0.08183 0.0
C191 C 0.73175 0.1106 0.04232 0.0
O192 O 0.7382 0.12721 0.04455 0.0
O193 O 0.7419 0.09996 0.04259 0.0
O194 O 0.76198 0.15816 0.029 0.0
O195 O 0.77381 0.13576 0.01933 0.0
O196 O 0.17801 0.53797 0.23901 0.0
Cd197 Cd 0.19386 0.53771 0.26252 0.0
Cd198 Cd 0.16608 0.53868 0.27548 0.0
O199 O 0.15503 0.52384 0.25076 0.0
O200 O 0.2099 0.5228 0.25649 0.0
O201 O 0.18828 0.51628 0.27444 0.0
C202 C 0.20049 0.51167 0.26563 0.0
C203 C 0.15218 0.53513 0.30136 0.0
C204 C 0.16205 0.52912 0.23688 0.0
C205 C 0.19445 0.57149 0.27714 0.0
O206 O 0.17785 0.56474 0.27468 0.0
O207 O 0.20535 0.56158 0.27661 0.0
O208 O 0.14513 0.54105 0.28738 0.0
O209 O 0.1669 0.53021 0.30027 0.0
O210 O 0.79117 0.88491 0.58113 0.0
Cd211 Cd 0.79152 0.90034 0.55991 0.0
Cd212 Cd 0.80081 0.87148 0.54095 0.0
O213 O 0.79308 0.85999 0.56474 0.0
O214 O 0.77809 0.9187 0.56661 0.0
O215 O 0.76844 0.89715 0.5431 0.0
C216 C 0.76596 0.91083 0.55317 0.0
C217 C 0.79263 0.85671 0.51031 0.0
C218 C 0.79095 0.86842 0.57998 0.0
C219 C 0.82798 0.90722 0.54872 0.0
O220 O 0.82474 0.89058 0.54351 0.0
O221 O 0.81613 0.91429 0.55488 0.0
O222 O 0.80459 0.85278 0.52161 0.0
O223 O 0.7843 0.86822 0.51672 0.0
O224 O 0.9227 0.0177 0.23651 0.0
Cd225 Cd 0.90619 0.01603 0.25687 0.0
Cd226 Cd 0.93443 0.0048 0.27519 0.0
O227 O 0.94683 0.01346 0.25251 0.0
O228 O 0.88875 0.02982 0.24845 0.0
O229 O 0.90725 0.03795 0.27463 0.0
C230 C 0.89501 0.04112 0.26303 0.0
C231 C 0.94857 0.01221 0.30629 0.0
C232 C 0.93897 0.01712 0.23775 0.0
C233 C 0.89855 0.97831 0.26499 0.0
O234 O 0.91521 0.98089 0.26999 0.0
O235 O 0.89184 0.99107 0.26057 0.0
O236 O 0.95322 1.00107 0.29458 0.0
O237 O 0.93632 0.01982 0.3002 0.0
O238 O 0.26941 0.62587 0.5771 0.0
Cd239 Cd 0.26777 0.61054 0.55261 0.0
Cd240 Cd 0.26657 0.6387 0.53952 0.0
O241 O 0.28167 0.64896 0.56413 0.0
O242 O 0.28188 0.59292 0.55463 0.0
O243 O 0.28863 0.61688 0.53986 0.0
C244 C 0.29275 0.60306 0.54584 0.0
C245 C 0.27203 0.65144 0.51335 0.0
C246 C 0.27752 0.64206 0.57845 0.0
C247 C 0.23338 0.61181 0.53815 0.0
O248 O 0.2403 0.62836 0.54036 0.0
O249 O 0.24314 0.60078 0.53902 0.0
O250 O 0.26673 0.65985 0.52692 0.0
O251 O 0.27493 0.6359 0.51485 0.0
O252 O 0.42116 0.51675 0.7409 0.0
Cd253 Cd 0.40371 0.51585 0.76022 0.0
Cd254 Cd 0.43314 0.50661 0.7818 0.0
O255 O 0.44526 0.51367 0.75807 0.0
O256 O 0.3851 0.5282 0.75078 0.0
O257 O 0.40424 0.53903 0.77597 0.0
C258 C 0.39133 0.54081 0.76426 0.0
C259 C 0.4481 0.51356 0.81256 0.0
C260 C 0.4375 0.51627 0.74264 0.0
C261 C 0.39715 0.47915 0.77154 0.0
O262 O 0.41337 0.48312 0.77871 0.0
O263 O 0.39027 0.49052 0.76403 0.0
O264 O 0.45108 0.5012 0.80105 0.0
O265 O 0.43748 0.52292 0.80643 0.0
O266 O 0.67753 0.03944 0.73767 0.0
Cd267 Cd 0.69353 0.0397 0.76122 0.0
Cd268 Cd 0.66638 0.04098 0.7757 0.0
O269 O 0.65396 0.02839 0.75063 0.0
O270 O 0.7105 0.02573 0.75572 0.0
O271 O 0.68829 0.01821 0.77275 0.0
C272 C 0.70121 0.01433 0.76466 0.0
C273 C 0.65482 0.03538 0.80232 0.0
C274 C 0.66112 0.03215 0.73633 0.0
C275 C 0.69482 0.07335 0.77794 0.0
O276 O 0.67822 0.0671 0.77645 0.0
O277 O 0.70525 0.06317 0.77572 0.0
O278 O 0.64725 0.04327 0.79034 0.0
O279 O 0.66845 0.02941 0.79858 0.0
O280 O 0.78113 0.68007 0.05515 0.0
Cd281 Cd 0.77824 0.66112 0.03257 0.0
Cd282 Cd 0.76289 0.68561 0.01557 0.0
O283 O 0.76919 0.70001 0.04236 0.0
O284 O 0.79105 0.64447 0.04353 0.0
O285 O 0.79946 0.65804 0.01985 0.0
C286 C 0.80212 0.64746 0.03173 0.0
C287 C 0.76925 0.69663 0.9874 0.0
C288 C 0.77637 0.6947 0.05655 0.0
C289 C 0.73938 0.64953 0.01804 0.0
O290 O 0.74062 0.66497 0.0133 0.0
O291 O 0.75307 0.645 0.0251 0.0
O292 O 0.75662 0.70047 0.99595 0.0
O293 O 0.77901 0.68728 0.99521 0.0
O294 O 0.88372 0.52169 0.78556 0.0
Cd295 Cd 0.87103 0.52431 0.80824 0.0
Cd296 Cd 0.89886 0.52013 0.82379 0.0
O297 O 0.91021 0.52946 0.80192 0.0
O298 O 0.85303 0.53741 0.80232 0.0
O299 O 0.87708 0.54781 0.82342 0.0
C300 C 0.86273 0.55002 0.81437 0.0
C301 C 0.91174 0.52667 0.85359 0.0
C302 C 0.90052 0.52609 0.78637 0.0
C303 C 0.86751 0.49023 0.81835 0.0
O304 O 0.88425 0.49463 0.8192 0.0
O305 O 0.85836 0.50162 0.81652 0.0
O306 O 0.91804 0.51728 0.84159 0.0
O307 O 0.89905 0.53402 0.84823 0.0
O308 O 0.78654 0.4172 0.53627 0.0
Cd309 Cd 0.78412 0.42833 0.5123 0.0
Cd310 Cd 0.78789 0.39981 0.50055 0.0
O311 O 0.77583 0.39023 0.52168 0.0
O312 O 0.77427 0.44882 0.51811 0.0
O313 O 0.75987 0.42428 0.49922 0.0
C314 C 0.76011 0.43978 0.50764 0.0
C315 C 0.78002 0.39022 0.47017 0.0
C316 C 0.78029 0.40074 0.53669 0.0
C317 C 0.8182 0.42916 0.50434 0.0
O318 O 0.81366 0.41324 0.50757 0.0
O319 O 0.80643 0.43775 0.50113 0.0
O320 O 0.78795 0.38122 0.4807 0.0
O321 O 0.77541 0.40419 0.47719 0.0
O322 O 0.63371 0.52306 0.26637 0.0
Cd323 Cd 0.65071 0.52584 0.29045 0.0
Cd324 Cd 0.62456 0.53969 0.3057 0.0
O325 O 0.61134 0.53137 0.27823 0.0
O326 O 0.66916 0.51295 0.28353 0.0
O327 O 0.65063 0.50409 0.30345 0.0
C328 C 0.66337 0.50156 0.29431 0.0
C329 C 0.61345 0.53332 0.33409 0.0
C330 C 0.61821 0.52596 0.26421 0.0
C331 C 0.65975 0.56506 0.3045 0.0
O332 O 0.64373 0.56327 0.30779 0.0
O333 O 0.66545 0.55155 0.29896 0.0
O334 O 0.60703 0.5434 0.32364 0.0
O335 O 0.6255 0.52595 0.32802 0.0
C336 C 0.99127 0.98189 0.00734 0.0
C337 C 0.97554 0.96655 0.03018 0.0
C338 C 0.986 0.98207 0.02495 0.0
C339 C 0.97073 0.95082 0.01766 0.0
C340 C 0.98619 0.96614 0.99468 0.0
C341 C 0.97605 0.95061 0.99998 0.0
N342 N 1.001 0.99716 0.0025 0.0
C343 C 1.00525 0.99774 0.98493 0.0
C344 C 0.99117 0.96653 0.9769 0.0
C345 C 1.00062 0.98243 0.97197 0.0
Gd346 Gd 0.05407 0.04327 0.04991 0.0
Gd347 Gd 1.0062 0.02222 0.02495 0.0
N348 N 0.99123 0.99735 0.03701 0.0
C349 C 0.97021 0.96732 0.04785 0.0
C350 C 0.98492 0.99849 0.05363 0.0
C351 C 0.97475 0.98344 0.05954 0.0
H352 H 0.9869 0.01115 0.0619 0.0
H353 H 0.97002 0.9844 0.0729 0.0
H354 H 0.06982 0.05736 0.01174 0.0
H355 H 0.01152 0.01006 0.98053 0.0
H356 H 0.08621 0.08504 0.0022 0.0
H357 H 0.9622 0.95569 0.05239 0.0
H358 H 0.96278 0.93876 0.02148 0.0
H359 H 0.04817 0.0534 0.09466 0.0
H360 H 0.98745 0.95473 0.96675 0.0
H361 H 1.00403 0.98301 0.95807 0.0
H362 H 0.0957 0.12763 0.0566 0.0
H363 H 0.97208 0.9384 0.99043 0.0
H364 H 0.07269 0.10839 0.11103 0.0
H365 H 0.05603 0.07955 0.11836 0.0
N366 N 0.05876 0.06748 0.07334 0.0
C367 C 0.06827 0.08316 0.0691 0.0
C368 C 0.05452 0.06604 0.09084 0.0
C369 C 0.06882 0.09703 0.10033 0.0
C370 C 0.05934 0.0808 0.1045 0.0
C371 C 0.0735 0.09836 0.08252 0.0
H372 H 0.08756 0.12611 0.08801 0.0
N373 N 0.06787 0.06917 0.0386 0.0
C374 C 0.07306 0.08399 0.05134 0.0
C375 C 0.08749 0.10043 0.02869 0.0
C376 C 0.08294 0.10006 0.04664 0.0
C377 C 0.07279 0.06933 0.0213 0.0
C378 C 0.0824 0.08499 0.01598 0.0
O379 O 0.02143 1.0012 0.03345 0.0
O380 O 0.04427 0.01497 0.05662 0.0
O381 O 0.07892 0.03667 0.0438 0.0
O382 O 0.07517 0.04571 0.07226 0.0
O383 O 0.00965 0.03806 0.05365 0.0
O384 O 0.03438 0.0317 0.06819 0.0
O385 O 0.03822 0.06399 0.04138 0.0
O386 O 0.01682 0.04995 0.01699 0.0
O387 O 0.98184 0.02864 0.03175 0.0
O388 O 0.98419 0.01935 0.00334 0.0
O389 O 0.0516 0.02829 0.021 0.0
O390 O 0.02584 0.03253 0.00591 0.0
C391 C 0.03388 1.0004 0.04694 0.0
C392 C 0.01876 0.03515 0.06865 0.0
C393 C 0.1035 0.0394 0.06825 0.0
C394 C 0.12841 0.02569 0.06568 0.0
C395 C 0.12882 0.04726 0.09229 0.0
C396 C 0.11209 0.04916 0.08519 0.0
C397 C 0.137 0.0356 0.0826 0.0
C398 C 0.11165 0.02772 0.05857 0.0
C399 C 0.08558 0.04052 0.06124 0.0
C400 C 0.08806 0.11519 0.05997 0.0
C401 C 0.0834 0.11433 0.07785 0.0
H402 H 0.09518 0.11247 0.02461 0.0
C403 C 0.02673 0.06468 0.02688 0.0
C404 C 0.04197 0.03003 0.00574 0.0
C405 C 0.96536 0.03887 0.00843 0.0
C406 C 0.94537 0.05775 0.01496 0.0
C407 C 0.95782 0.0578 0.98603 0.0
C408 C 0.96704 0.04519 0.99125 0.0
C409 C 0.94705 0.06418 0.99791 0.0
C410 C 0.95437 0.04507 0.02009 0.0
C411 C 0.97445 0.02556 0.01455 0.0
H412 H 0.13545 0.05482 0.10533 0.0
H413 H 0.10586 0.05818 0.09294 0.0
H414 H 0.15008 0.03448 0.08826 0.0
H415 H 0.10468 0.01978 0.0458 0.0
H416 H 0.95899 0.06259 0.97277 0.0
H417 H 0.97537 0.04041 0.9819 0.0
H418 H 0.93983 0.07385 0.99371 0.0
H419 H 0.95283 0.04008 0.03327 0.0
C420 C 0.29674 0.7494 0.22664 0.0
C421 C 0.27123 0.73495 0.20423 0.0
C422 C 0.27997 0.74902 0.2181 0.0
C423 C 0.27935 0.72086 0.19983 0.0
C424 C 0.30537 0.7358 0.22171 0.0
C425 C 0.29643 0.72132 0.20851 0.0
N426 N 0.30475 0.76335 0.23964 0.0
C427 C 0.32187 0.76523 0.24736 0.0
C428 C 0.32276 0.73728 0.23008 0.0
C429 C 0.33115 0.75223 0.24276 0.0
Gd430 Gd 0.25941 0.78052 0.29873 0.0
Gd431 Gd 0.28737 0.78273 0.24942 0.0
N432 N 0.27257 0.76285 0.22287 0.0
C433 C 0.25483 0.73572 0.19492 0.0
C434 C 0.25749 0.76448 0.21254 0.0
C435 C 0.24816 0.75078 0.19877 0.0
H436 H 0.25257 0.77635 0.21461 0.0
H437 H 0.23591 0.75192 0.19104 0.0
H438 H 0.29807 0.79337 0.32828 0.0
H439 H 0.32837 0.77677 0.25705 0.0
H440 H 0.31064 0.81462 0.35593 0.0
H441 H 0.24761 0.72514 0.18425 0.0
H442 H 0.27273 0.70979 0.1894 0.0
H443 H 0.21818 0.78618 0.28733 0.0
H444 H 0.3299 0.72715 0.22664 0.0
H445 H 0.3447 0.75371 0.24907 0.0
H446 H 0.26446 0.84464 0.36733 0.0
H447 H 0.30272 0.71057 0.20471 0.0
H448 H 0.21038 0.82852 0.32528 0.0
H449 H 0.19938 0.80587 0.29784 0.0
N450 N 0.24013 0.79811 0.30803 0.0
C451 C 0.24625 0.81015 0.32344 0.0
C452 C 0.2234 0.7963 0.29904 0.0
C453 C 0.21882 0.82002 0.32062 0.0
C454 C 0.21258 0.80729 0.3051 0.0
C455 C 0.23577 0.82149 0.33009 0.0
H456 H 0.23463 0.84278 0.35119 0.0
N457 N 0.27322 0.80067 0.32528 0.0
C458 C 0.26316 0.81131 0.33247 0.0
C459 C 0.28716 0.82488 0.35693 0.0
C460 C 0.26995 0.82382 0.34837 0.0
C461 C 0.29003 0.80171 0.33365 0.0
C462 C 0.29726 0.81382 0.34948 0.0
O463 O 0.27949 0.75552 0.25766 0.0
O464 O 0.25828 0.76482 0.27114 0.0
O465 O 0.26063 0.75975 0.31608 0.0
O466 O 0.23513 0.76391 0.30499 0.0
O467 O 0.25929 0.78805 0.24588 0.0
O468 O 0.24314 0.78302 0.27145 0.0
O469 O 0.27222 0.80891 0.29722 0.0
O470 O 0.27932 0.79323 0.27473 0.0
O471 O 0.28768 0.804 0.23255 0.0
O472 O 0.31222 0.80122 0.2475 0.0
O473 O 0.28712 0.77382 0.30059 0.0
O474 O 0.30455 0.78395 0.27729 0.0
C475 C 0.26686 0.7525 0.26808 0.0
C476 C 0.24476 0.78706 0.25435 0.0
C477 C 0.23776 0.75552 0.33489 0.0
C478 C 0.23916 0.74401 0.36423 0.0
C479 C 0.22178 0.76573 0.35904 0.0
C480 C 0.22664 0.76626 0.34126 0.0
C481 C 0.22807 0.75465 0.37056 0.0
C482 C 0.24391 0.74435 0.34643 0.0
C483 C 0.2435 0.75598 0.31652 0.0
C484 C 0.25948 0.835 0.35511 0.0
C485 C 0.24249 0.83393 0.34592 0.0
H486 H 0.29285 0.83434 0.36914 0.0
C487 C 0.28039 0.80897 0.28292 0.0
C488 C 0.3025 0.77776 0.2935 0.0
C489 C 0.31426 0.81373 0.21947 0.0
C490 C 0.31408 0.82293 0.18864 0.0
C491 C 0.34193 0.82181 0.20646 0.0
C492 C 0.33282 0.81617 0.22096 0.0
C493 C 0.3327 0.82532 0.19047 0.0
C494 C 0.30495 0.81694 0.20318 0.0
C495 C 0.30494 0.80955 0.2355 0.0
H496 H 0.21323 0.77398 0.36391 0.0
H497 H 0.22175 0.77507 0.33262 0.0
H498 H 0.22435 0.7544 0.38439 0.0
H499 H 0.25258 0.73611 0.34169 0.0
H500 H 0.35627 0.82387 0.20779 0.0
H501 H 0.34036 0.81407 0.23347 0.0
H502 H 0.34025 0.8304 0.17978 0.0
H503 H 0.29062 0.81507 0.20195 0.0
C504 C 0.57701 0.06391 0.51471 0.0
C505 C 0.59706 0.08268 0.54037 0.0
C506 C 0.58427 0.06688 0.53323 0.0
C507 C 0.60226 0.09556 0.5287 0.0
C508 C 0.58254 0.07664 0.50286 0.0
C509 C 0.59502 0.09255 0.51 0.0
N510 N 0.56493 0.0484 0.50818 0.0
C511 C 0.55902 0.04422 0.48973 0.0
C512 C 0.57564 0.07285 0.4841 0.0
C513 C 0.56401 0.05645 0.47746 0.0
Gd514 Gd 0.50981 0.02278 0.55104 0.0
Gd515 Gd 0.55754 0.0289 0.53003 0.0
N516 N 0.57858 0.0544 0.54435 0.0
C517 C 0.60426 0.085 0.55902 0.0
C518 C 0.58621 0.0562 0.56222 0.0
C519 C 0.59895 0.07157 0.56991 0.0
H520 H 0.58273 0.04569 0.57041 0.0
H521 H 0.60479 0.07291 0.58415 0.0
H522 H 0.48846 1.00232 0.50954 0.0
H523 H 0.55105 0.03118 0.48432 0.0
H524 H 0.46694 0.97429 0.49675 0.0
H525 H 0.61415 0.09692 0.56504 0.0
H526 H 0.61199 0.10782 0.53395 0.0
H527 H 0.51817 0.0214 0.59708 0.0
H528 H 0.57959 0.08227 0.47454 0.0
H529 H 0.55915 0.0531 0.46286 0.0
H530 H 0.45837 0.94281 0.54919 0.0
H531 H 0.59934 0.10252 0.50112 0.0
H532 H 0.49003 0.97063 0.60816 0.0
H533 H 0.51037 0.99999 0.61905 0.0
N534 N 0.50356 1.00385 0.57358 0.0
C535 C 0.49184 0.98801 0.56737 0.0
C536 C 0.50987 0.0084 0.59194 0.0
C537 C 0.49367 0.97986 0.59834 0.0
C538 C 0.50521 0.99639 0.60453 0.0
C539 C 0.48667 0.97555 0.57962 0.0
H540 H 0.47054 0.94954 0.58212 0.0
N541 N 0.49048 0.99612 0.53697 0.0
C542 C 0.4849 0.98416 0.54868 0.0
C543 C 0.46613 0.9644 0.5231 0.0
C544 C 0.47274 0.96783 0.54195 0.0
C545 C 0.48413 0.99279 0.51861 0.0
C546 C 0.47193 0.97688 0.51136 0.0
O547 O 0.55078 0.05532 0.54134 0.0
O548 O 0.52739 0.05083 0.55923 0.0
O549 O 0.48527 0.03047 0.54095 0.0
O550 O 0.49521 0.03418 0.57036 0.0
O551 O 0.55096 0.01705 0.55579 0.0
O552 O 0.53366 0.03132 0.5719 0.0
O553 O 0.51899 0.997 0.54146 0.0
O554 O 0.53733 1.00292 0.51873 0.0
O555 O 0.57853 0.01529 0.5398 0.0
O556 O 0.57403 0.02073 0.51118 0.0
O557 O 0.51689 0.03633 0.52649 0.0
O558 O 0.53339 0.02237 0.50899 0.0
C559 C 0.54044 0.06138 0.55259 0.0
C560 C 0.5483 0.02596 0.57091 0.0
C561 C 0.46594 0.03807 0.56299 0.0
C562 C 0.44219 0.05409 0.56217 0.0
C563 C 0.44532 0.03478 0.58576 0.0
C564 C 0.45995 0.03055 0.57846 0.0
C565 C 0.43656 0.04653 0.57779 0.0
C566 C 0.45682 0.04962 0.55467 0.0
C567 C 0.48337 0.03672 0.55765 0.0
C568 C 0.46765 0.95543 0.55414 0.0
C569 C 0.47462 0.95926 0.5729 0.0
H570 H 0.45649 0.95221 0.51751 0.0
C571 C 0.52721 0.99154 0.52766 0.0
C572 C 0.5192 0.0285 0.51069 0.0
C573 C 0.59662 0.0048 0.51678 0.0
C574 C 0.62112 0.99027 0.52209 0.0
C575 C 0.60998 0.99357 0.49083 0.0
C576 C 0.59753 1.00202 0.49764 0.0
C577 C 0.62174 0.98776 0.50296 0.0
C578 C 0.60845 0.99873 0.52911 0.0
C579 C 0.58299 0.01375 0.52311 0.0
H580 H 0.44094 0.02918 0.59787 0.0
H581 H 0.46694 0.02189 0.58529 0.0
H582 H 0.4253 0.04967 0.58382 0.0
H583 H 0.4617 0.05585 0.54305 0.0
H584 H 0.61053 0.99154 0.47609 0.0
H585 H 0.58855 0.00634 0.48776 0.0
H586 H 0.63138 0.98122 0.49739 0.0
H587 H 0.60794 1.00068 0.54388 0.0
C588 C 0.24198 0.2853 0.73569 0.0
C589 C 0.22581 0.25771 0.71685 0.0
C590 C 0.23591 0.26682 0.73353 0.0
C591 C 0.22191 0.26732 0.7024 0.0
C592 C 0.23813 0.29494 0.72115 0.0
C593 C 0.22806 0.28586 0.70453 0.0
N594 N 0.25177 0.2938 0.7519 0.0
C595 C 0.25778 0.31186 0.75465 0.0
C596 C 0.24454 0.31345 0.72374 0.0
C597 C 0.25437 0.32193 0.74056 0.0
Gd598 Gd 0.3035 0.2615 0.78136 0.0
Gd599 Gd 0.25644 0.27547 0.77428 0.0
N600 N 0.24033 0.25774 0.74755 0.0
C601 C 0.21994 0.23918 0.71519 0.0
C602 C 0.23403 0.23981 0.74631 0.0
C603 C 0.22399 0.23023 0.73003 0.0
H604 H 0.2365 0.23289 0.75786 0.0
H605 H 0.21928 0.21597 0.72899 0.0
H606 H 0.32961 0.30252 0.79116 0.0
H607 H 0.26492 0.3186 0.76779 0.0
H608 H 0.35131 0.32051 0.81677 0.0
H609 H 0.21213 0.23168 0.70261 0.0
H610 H 0.21415 0.26053 0.6895 0.0
H611 H 0.29354 0.21978 0.79259 0.0
H612 H 0.24188 0.32132 0.71288 0.0
H613 H 0.2592 0.33625 0.74275 0.0
H614 H 0.35534 0.28015 0.86147 0.0
H615 H 0.22496 0.29307 0.69323 0.0
H616 H 0.32064 0.22024 0.84641 0.0
H617 H 0.30009 0.20405 0.81889 0.0
N618 N 0.30876 0.24504 0.8056 0.0
C619 C 0.32063 0.25405 0.82028 0.0
C620 C 0.30175 0.22723 0.80481 0.0
C621 C 0.31744 0.22734 0.83505 0.0
C622 C 0.30577 0.21817 0.81958 0.0
C623 C 0.32522 0.24544 0.83544 0.0
H624 H 0.34125 0.24865 0.86213 0.0
N625 N 0.32368 0.27989 0.80522 0.0
C626 C 0.32848 0.2719 0.81998 0.0
C627 C 0.34934 0.29923 0.83363 0.0
C628 C 0.34126 0.28146 0.83472 0.0
C629 C 0.33216 0.29687 0.80365 0.0
C630 C 0.34485 0.30692 0.81795 0.0
O631 O 0.26986 0.26887 0.74869 0.0
O632 O 0.28446 0.24752 0.75625 0.0
O633 O 0.32631 0.26937 0.76543 0.0
O634 O 0.32006 0.24362 0.77577 0.0
O635 O 0.25857 0.25157 0.78879 0.0
O636 O 0.27901 0.23877 0.77559 0.0
O637 O 0.29324 0.2712 0.80792 0.0
O638 O 0.27292 0.28844 0.80129 0.0
O639 O 0.233 0.26428 0.78722 0.0
O640 O 0.23629 0.2903 0.77843 0.0
O641 O 0.30146 0.28635 0.7682 0.0
O642 O 0.28062 0.29843 0.782 0.0
C643 C 0.27713 0.25557 0.74384 0.0
C644 C 0.26427 0.2375 0.78323 0.0
C645 C 0.34624 0.24861 0.76052 0.0
C646 C 0.37122 0.25119 0.74231 0.0
C647 C 0.36498 0.22735 0.76134 0.0
C648 C 0.35068 0.23352 0.767 0.0
C649 C 0.37514 0.23605 0.7491 0.0
C650 C 0.35676 0.25766 0.74821 0.0
C651 C 0.33067 0.25427 0.76711 0.0
C652 C 0.34564 0.27298 0.84997 0.0
C653 C 0.33761 0.25504 0.85035 0.0
H654 H 0.35922 0.30703 0.84466 0.0
C655 C 0.28336 0.28226 0.81297 0.0
C656 C 0.29573 0.30013 0.77494 0.0
C657 C 0.21971 0.28517 0.8036 0.0
C658 C 0.19572 0.28429 0.82316 0.0
C659 C 0.22226 0.30848 0.82925 0.0
C660 C 0.22934 0.30099 0.8145 0.0
C661 C 0.20559 0.30027 0.83351 0.0
C662 C 0.20284 0.27671 0.8081 0.0
C663 C 0.22662 0.27843 0.78677 0.0
H664 H 0.3682 0.21573 0.76648 0.0
H665 H 0.34309 0.22636 0.77658 0.0
H666 H 0.38626 0.23097 0.74495 0.0
H667 H 0.35359 0.26931 0.74305 0.0
H668 H 0.22969 0.32082 0.83735 0.0
H669 H 0.24224 0.30778 0.8114 0.0
H670 H 0.20031 0.30643 0.84493 0.0
H671 H 0.19519 0.26455 0.79978 0.0
C672 C 0.01801 0.07208 0.57456 0.0
C673 C 0.04588 0.08934 0.59204 0.0
C674 C 0.03649 0.07792 0.57625 0.0
C675 C 0.03649 0.09483 0.60606 0.0
C676 C 0.00865 0.07726 0.58884 0.0
C677 C 0.01799 0.08867 0.60456 0.0
N678 N 0.00922 0.06123 0.55908 0.0
C679 C 0.99117 0.05522 0.55687 0.0
C680 C 0.99015 0.07088 0.58684 0.0
C681 C 0.98138 0.05983 0.57078 0.0
Gd682 Gd 0.04097 0.00765 0.5329 0.0
Gd683 Gd 0.02703 0.05469 0.5368 0.0
N684 N 0.04527 0.07213 0.56257 0.0
C685 C 0.0644 0.09503 0.59317 0.0
C686 C 0.0632 0.07812 0.5633 0.0
C687 C 0.07309 0.08941 0.57873 0.0
H688 H 0.06986 0.07458 0.55188 0.0
H689 H 0.08736 0.09402 0.57932 0.0
H690 H 0.99923 0.98386 0.51996 0.0
H691 H 0.9842 0.04716 0.54426 0.0
H692 H 0.98184 0.96337 0.4932 0.0
H693 H 0.07208 0.10398 0.60497 0.0
H694 H 0.04338 0.10393 0.61811 0.0
H695 H 0.08369 0.01536 0.52523 0.0
H696 H 0.98251 0.07452 0.59754 0.0
H697 H 0.96707 0.05501 0.56904 0.0
H698 H 0.02515 0.95593 0.45273 0.0
H699 H 0.011 0.09292 0.6156 0.0
H700 H 0.08575 0.98743 0.47232 0.0
H701 H 0.10093 0.00767 0.50047 0.0
N702 N 0.05885 1.00032 0.51085 0.0
C703 C 0.05032 0.98884 0.49571 0.0
C704 C 0.07684 0.00683 0.51284 0.0
C705 C 0.07808 0.99088 0.48307 0.0
C706 C 0.08669 1.00234 0.49892 0.0
C707 C 0.05969 0.98385 0.48136 0.0
H708 H 0.05742 0.96812 0.45462 0.0
N709 N 0.02342 0.98757 0.50839 0.0
C710 C 0.0321 0.98209 0.49453 0.0
C711 C 1.00453 0.96325 0.4787 0.0
C712 C 0.02283 0.97002 0.47913 0.0
C713 C 1.00574 0.98056 0.50833 0.0
C714 C 0.99595 0.96858 0.49336 0.0
O715 O 0.03339 0.04303 0.56368 0.0
O716 O 0.05479 0.02864 0.55644 0.0
O717 O 0.03105 0.98558 0.54829 0.0
O718 O 0.05888 0.99293 0.54468 0.0
O719 O 0.05127 0.05229 0.52264 0.0
O720 O 0.06329 0.03226 0.53759 0.0
O721 O 0.03252 0.01735 0.50543 0.0
O722 O 0.01327 0.03546 0.51171 0.0
O723 O 0.03762 0.0767 0.52163 0.0
O724 O 0.01202 0.07443 0.53115 0.0
O725 O 0.01631 0.0106 0.54594 0.0
O726 O 1.00391 0.03041 0.53078 0.0
C727 C 0.0464 0.03551 0.56877 0.0
C728 C 0.06484 0.04562 0.52784 0.0
C729 C 0.04775 0.96312 0.54953 0.0
C730 C 0.04592 0.93551 0.56335 0.0
C731 C 0.06011 0.93961 0.53558 0.0
C732 C 0.05649 0.95639 0.53555 0.0
C733 C 0.05504 0.92931 0.54945 0.0
C734 C 0.04216 0.95245 0.56328 0.0
C735 C 0.04662 0.98195 0.55128 0.0
C736 C 0.03208 0.9651 0.46474 0.0
C737 C 0.05046 0.97204 0.46582 0.0
H738 H 0.99698 0.95368 0.46732 0.0
C739 C 0.02007 0.02561 0.50003 0.0
C740 C 1.00238 0.01594 0.53904 0.0
C741 C 0.01664 0.0897 0.50499 0.0
C742 C 0.01591 0.11353 0.48543 0.0
C743 C 0.99346 0.08559 0.47891 0.0
C744 C 1.00139 0.07917 0.4939 0.0
C745 C 1.00054 0.10264 0.47481 0.0
C746 C 0.02409 0.10691 0.50052 0.0
C747 C 0.02369 0.08341 0.52208 0.0
H748 H 0.06716 0.93468 0.52497 0.0
H749 H 0.06101 0.96431 0.52491 0.0
H750 H 0.05821 0.9164 0.54933 0.0
H751 H 0.03564 0.9576 0.57428 0.0
H752 H 0.98158 0.0774 0.4706 0.0
H753 H 0.99531 0.06612 0.49713 0.0
H754 H 0.99395 0.10739 0.46325 0.0
H755 H 0.03574 0.11528 0.5091 0.0
C756 C 0.2384 0.73318 0.78883 0.0
C757 C 0.22046 0.71276 0.76291 0.0
C758 C 0.23595 0.72587 0.77032 0.0
C759 C 0.20726 0.70743 0.77419 0.0
C760 C 0.22542 0.7273 0.80033 0.0
C761 C 0.20978 0.71462 0.79286 0.0
N762 N 0.25389 0.74512 0.79587 0.0
C763 C 0.25779 0.75038 0.81454 0.0
C764 C 0.22883 0.73378 0.8192 0.0
C765 C 0.24519 0.74515 0.82637 0.0
Gd766 Gd 0.28043 0.80121 0.755 0.0
Gd767 Gd 0.27401 0.75253 0.77444 0.0
N768 N 0.24895 0.73121 0.75966 0.0
C769 C 0.21887 0.70509 0.74448 0.0
C770 C 0.24802 0.72291 0.74213 0.0
C771 C 0.23282 0.71004 0.73411 0.0
H772 H 0.25904 0.72611 0.73444 0.0
H773 H 0.23199 0.70378 0.72005 0.0
H774 H 0.29809 0.83226 0.79095 0.0
H775 H 0.27075 0.75834 0.82054 0.0
H776 H 0.32636 0.85444 0.80159 0.0
H777 H 0.20714 0.69502 0.73828 0.0
H778 H 0.19525 0.69742 0.76872 0.0
H779 H 0.28144 0.78795 0.70938 0.0
H780 H 0.21918 0.72956 0.82846 0.0
H781 H 0.24826 0.74963 0.84107 0.0
H782 H 0.36073 0.85002 0.75131 0.0
H783 H 0.19975 0.70996 0.80155 0.0
H784 H 0.33325 0.81034 0.69655 0.0
H785 H 0.30309 0.79104 0.68728 0.0
N786 N 0.29961 0.8035 0.73201 0.0
C787 C 0.31561 0.81532 0.73695 0.0
C788 C 0.29481 0.79551 0.71413 0.0
C789 C 0.32391 0.80862 0.70658 0.0
C790 C 0.30697 0.79761 0.70133 0.0
C791 C 0.32828 0.818 0.72443 0.0
H792 H 0.35456 0.83245 0.72048 0.0
N793 N 0.30654 0.82281 0.76602 0.0
C794 C 0.31909 0.8254 0.75433 0.0
C795 C 0.33804 0.84843 0.777 0.0
C796 C 0.33531 0.83814 0.75964 0.0
C797 C 0.30874 0.83338 0.78252 0.0
C798 C 0.3246 0.84618 0.78839 0.0
O799 O 0.24919 0.7579 0.75775 0.0
O800 O 0.2531 0.78842 0.76295 0.0
O801 O 0.27277 0.82664 0.76057 0.0
O802 O 0.26858 0.81241 0.73246 0.0
O803 O 0.28716 0.76149 0.7505 0.0
O804 O 0.26964 0.77636 0.73547 0.0
O805 O 0.30633 0.7931 0.76609 0.0
O806 O 0.29978 0.77254 0.78686 0.0
O807 O 0.2888 0.73242 0.76452 0.0
O808 O 0.28139 0.73498 0.79244 0.0
O809 O 0.27652 0.80247 0.78454 0.0
O810 O 0.27714 0.77561 0.79635 0.0
C811 C 0.24263 0.77229 0.75827 0.0
C812 C 0.27758 0.76328 0.73555 0.0
C813 C 0.26004 0.84052 0.73564 0.0
C814 C 0.24351 0.86377 0.73822 0.0
C815 C 0.25531 0.85663 0.70968 0.0
C816 C 0.26221 0.84357 0.71741 0.0
C817 C 0.24596 0.86661 0.71995 0.0
C818 C 0.25088 0.85085 0.74622 0.0
C819 C 0.26722 0.82635 0.74317 0.0
C820 C 0.34815 0.84037 0.74743 0.0
C821 C 0.34465 0.83032 0.72988 0.0
H822 H 0.3503 0.8584 0.78156 0.0
C823 C 0.31132 0.78405 0.77938 0.0
C824 C 0.27657 0.79244 0.79782 0.0
C825 C 0.29836 0.71322 0.78714 0.0
C826 C 0.31351 0.68899 0.78236 0.0
C827 C 0.30846 0.69935 0.81325 0.0
C828 C 0.30028 0.71188 0.80624 0.0
C829 C 0.31498 0.68795 0.80142 0.0
C830 C 0.30515 0.70169 0.77508 0.0
C831 C 0.28926 0.72684 0.78072 0.0
H832 H 0.25712 0.85896 0.69563 0.0
H833 H 0.26935 0.83589 0.70912 0.0
H834 H 0.24066 0.87665 0.7136 0.0
H835 H 0.24901 0.84848 0.76027 0.0
H836 H 0.30977 0.69848 0.82795 0.0
H837 H 0.29541 0.72055 0.81595 0.0
H838 H 0.32135 0.67828 0.8072 0.0
H839 H 0.30394 0.70252 0.76035 0.0
C840 C 0.55502 0.99557 0.08386 0.0
C841 C 0.56969 0.0197 0.10802 0.0
C842 C 0.55637 0.01254 0.09286 0.0
C843 C 0.58144 0.0095 0.11411 0.0
C844 C 0.56675 0.98526 0.09001 0.0
C845 C 0.57994 0.99231 0.10516 0.0
N846 N 0.5426 0.98933 0.06876 0.0
C847 C 0.5407 0.97264 0.0597 0.0
C848 C 0.56502 0.96823 0.08061 0.0
C849 C 0.55186 0.96186 0.06547 0.0
Gd850 Gd 0.52713 0.03709 0.0117 0.0
Gd851 Gd 0.52495 0.00853 0.05954 0.0
N852 N 0.54529 0.02239 0.0861 0.0
C853 C 0.57103 0.03702 0.11643 0.0
C854 C 0.54628 0.03913 0.09468 0.0
C855 C 0.55918 0.04671 0.1098 0.0
H856 H 0.53729 0.04686 0.09009 0.0
H857 H 0.55999 0.06007 0.11631 0.0
H858 H 0.51434 0.99742 0.98276 0.0
H859 H 0.53042 0.9675 0.04813 0.0
H860 H 0.49233 0.98395 0.95631 0.0
H861 H 0.58113 0.04302 0.12804 0.0
H862 H 0.5918 0.01482 0.12566 0.0
H863 H 0.51987 0.07711 0.02296 0.0
H864 H 0.57375 0.95989 0.08494 0.0
H865 H 0.55031 0.94864 0.05821 0.0
H866 H 0.46103 0.02896 0.94434 0.0
H867 H 0.58915 0.98463 0.10999 0.0
H868 H 0.47702 0.08392 0.98506 0.0
H869 H 0.4998 0.09556 0.01231 0.0
N870 N 0.50822 0.05507 0.00255 0.0
C871 C 0.49598 0.04848 0.98748 0.0
C872 C 0.50972 0.07174 0.01141 0.0
C873 C 0.4857 0.0757 0.98985 0.0
C874 C 0.49849 0.0823 0.00525 0.0
C875 C 0.48434 0.05863 0.98072 0.0
H876 H 0.46276 0.05907 0.95968 0.0
N877 N 0.50626 0.02196 0.98604 0.0
C878 C 0.49496 0.03145 0.97896 0.0
C879 C 0.48123 0.00685 0.95522 0.0
C880 C 0.48221 0.02416 0.96336 0.0
C881 C 0.50541 0.0051 0.9779 0.0
C882 C 0.49286 0.9973 0.96256 0.0
O883 O 0.55365 0.02091 0.05813 0.0
O884 O 0.5379 0.02913 0.03679 0.0
O885 O 0.54756 0.0378 0.99382 0.0
O886 O 0.54429 0.06236 0.00844 0.0
O887 O 0.51821 0.0363 0.06229 0.0
O888 O 0.52961 0.05404 0.03989 0.0
O889 O 0.49969 0.02918 0.01894 0.0
O890 O 0.50948 0.00813 0.03203 0.0
O891 O 0.50377 0.00971 0.07623 0.0
O892 O 0.5085 0.98422 0.06602 0.0
O893 O 0.53533 0.01009 0.0082 0.0
O894 O 0.52588 0.9923 0.03139 0.0
C895 C 0.55369 0.02994 0.04454 0.0
C896 C 0.5229 0.05191 0.05578 0.0
C897 C 0.55088 0.06241 0.9777 0.0
C898 C 0.55965 0.06204 0.94694 0.0
C899 C 0.53994 0.08057 0.95629 0.0
C900 C 0.54063 0.07468 0.97366 0.0
C901 C 0.54951 0.07438 0.94297 0.0
C902 C 0.56012 0.05604 0.96424 0.0
C903 C 0.55145 0.05511 0.99531 0.0
C904 C 0.4708 0.03433 0.95638 0.0
C905 C 0.47179 0.05147 0.9651 0.0
H906 H 0.47157 1.00076 0.94328 0.0
C907 C 0.49706 0.01671 0.02953 0.0
C908 C 0.53217 0.99462 0.01525 0.0
C909 C 0.49935 0.98732 0.09562 0.0
C910 C 0.4902 0.992 0.12596 0.0
C911 C 0.50619 0.96914 0.11915 0.0
C912 C 0.507 0.97361 0.10124 0.0
C913 C 0.49789 0.97836 0.13154 0.0
C914 C 0.49081 0.99632 0.10801 0.0
C915 C 0.50018 0.99264 0.07707 0.0
H916 H 0.53202 0.08998 0.95317 0.0
H917 H 0.53311 0.07964 0.98376 0.0
H918 H 0.54896 0.07915 0.92961 0.0
H919 H 0.56781 0.0464 0.96736 0.0
H920 H 0.51197 0.95851 0.12341 0.0
H921 H 0.51363 0.96636 0.0919 0.0
H922 H 0.49717 0.97466 0.14534 0.0
H923 H 0.48477 0.00684 0.10376 0.0
C924 C 0.32453 0.3103 0.2997 0.0
C925 C 0.33834 0.32694 0.27664 0.0
C926 C 0.32337 0.31602 0.28234 0.0
C927 C 0.35453 0.33179 0.28845 0.0
C928 C 0.34069 0.3155 0.31174 0.0
C929 C 0.35568 0.32612 0.30596 0.0
N930 N 0.30981 0.29988 0.30491 0.0
C931 C 0.31019 0.29507 0.3223 0.0
C932 C 0.34125 0.31009 0.32936 0.0
C933 C 0.32589 0.29997 0.33471 0.0
Gd934 Gd 0.26438 0.24559 0.25795 0.0
Gd935 Gd 0.28395 0.29382 0.28336 0.0
N936 N 0.30762 0.31082 0.27098 0.0
C937 C 0.3366 0.33267 0.2592 0.0
C938 C 0.30553 0.31746 0.25463 0.0
C939 C 0.32005 0.32807 0.24825 0.0
H940 H 0.29258 0.31523 0.24683 0.0
H941 H 0.31837 0.33302 0.23507 0.0
H942 H 0.24938 0.2284 0.29495 0.0
H943 H 0.29835 0.28803 0.32699 0.0
H944 H 0.22156 0.21085 0.30318 0.0
H945 H 0.34781 0.34099 0.25428 0.0
H946 H 0.36621 0.34006 0.28424 0.0
H947 H 0.2556 0.25209 0.21317 0.0
H948 H 0.35338 0.31392 0.33905 0.0
H949 H 0.32605 0.29613 0.34849 0.0
H950 H 0.18025 0.20258 0.24791 0.0
H951 H 0.36821 0.33017 0.315 0.0
H952 H 0.20097 0.22729 0.19488 0.0
H953 H 0.23008 0.2444 0.1887 0.0
N954 N 0.24083 0.24098 0.2338 0.0
C955 C 0.22499 0.23125 0.23741 0.0
C956 C 0.2428 0.24554 0.2165 0.0
C957 C 0.21202 0.2311 0.20592 0.0
C958 C 0.22841 0.24083 0.2024 0.0
C959 C 0.21017 0.22607 0.22353 0.0
H960 H 0.18259 0.21163 0.21696 0.0
N961 N 0.23817 0.231 0.26808 0.0
C962 C 0.22365 0.22605 0.25496 0.0
C963 C 0.20672 0.21038 0.27655 0.0
C964 C 0.20749 0.21567 0.25892 0.0
C965 C 0.23766 0.22537 0.28504 0.0
C966 C 0.22191 0.21516 0.28963 0.0
O967 O 0.30595 0.28056 0.2737 0.0
O968 O 0.29346 0.25448 0.25403 0.0
O969 O 0.27015 0.22057 0.26398 0.0
O970 O 0.26369 0.22524 0.2352 0.0
O971 O 0.26845 0.28975 0.25453 0.0
O972 O 0.27644 0.26583 0.24036 0.0
O973 O 0.24346 0.26131 0.26554 0.0
O974 O 0.25693 0.28099 0.29135 0.0
O975 O 0.27337 0.3167 0.27776 0.0
O976 O 0.28591 0.31487 0.30563 0.0
O977 O 0.27798 0.24751 0.28743 0.0
O978 O 0.27489 0.27386 0.30258 0.0
C979 C 0.30743 0.26676 0.26224 0.0
C980 C 0.27258 0.28127 0.23982 0.0
C981 C 0.27004 0.19689 0.23965 0.0
C982 C 0.28169 0.17126 0.24502 0.0
C983 C 0.26735 0.17317 0.21453 0.0
C984 C 0.2644 0.18963 0.22107 0.0
C985 C 0.27596 0.16396 0.22645 0.0
C986 C 0.27868 0.18768 0.25156 0.0
C987 C 0.26803 0.21455 0.24639 0.0
C988 C 0.19273 0.21062 0.24512 0.0
C989 C 0.19407 0.21579 0.22749 0.0
H990 H 0.19457 0.20238 0.28011 0.0
C991 C 0.24248 0.27188 0.28058 0.0
C992 C 0.27671 0.25748 0.30267 0.0
C993 C 0.27507 0.34115 0.30195 0.0
C994 C 0.26002 0.36483 0.29818 0.0
C995 C 0.27809 0.36486 0.32719 0.0
C996 C 0.28208 0.34907 0.32009 0.0
C997 C 0.267 0.3727 0.31633 0.0
C998 C 0.26426 0.34923 0.29092 0.0
C999 C 0.27813 0.32398 0.29494 0.0
H1000 H 0.26311 0.16762 0.20018 0.0
H1001 H 0.25786 0.19671 0.21159 0.0
H1002 H 0.27843 0.15132 0.22113 0.0
H1003 H 0.28325 0.19332 0.26588 0.0
H1004 H 0.28346 0.37093 0.34118 0.0
H1005 H 0.29048 0.343 0.32884 0.0
H1006 H 0.26391 0.38494 0.32202 0.0
H1007 H 0.25864 0.34314 0.27695 0.0
C1008 C 0.52171 0.56471 0.07907 0.0
C1009 C 0.54986 0.582 0.0958 0.0
C1010 C 0.54004 0.57084 0.08 0.0
C1011 C 0.54106 0.58677 0.11063 0.0
C1012 C 0.51283 0.56951 0.09394 0.0
C1013 C 0.52261 0.58053 0.10972 0.0
N1014 N 0.5126 0.5539 0.06373 0.0
C1015 C 0.49457 0.54798 0.06206 0.0
C1016 C 0.49437 0.56309 0.0925 0.0
C1017 C 0.4852 0.55235 0.07644 0.0
Gd1018 Gd 0.54432 0.50059 0.0338 0.0
Gd1019 Gd 0.52949 0.54732 0.04047 0.0
N1020 N 0.5483 0.56551 0.06566 0.0
C1021 C 0.56826 0.588 0.09622 0.0
C1022 C 0.56606 0.57205 0.06566 0.0
C1023 C 0.57636 0.58314 0.081 0.0
H1024 H 0.5723 0.56917 0.05377 0.0
H1025 H 0.59051 0.58812 0.08098 0.0
H1026 H 0.50282 0.4757 0.02151 0.0
H1027 H 0.48735 0.54033 0.04943 0.0
H1028 H 0.48541 0.45487 0.99498 0.0
H1029 H 0.57627 0.5966 0.10809 0.0
H1030 H 0.5484 0.59529 0.12289 0.0
H1031 H 0.58649 0.51033 0.02424 0.0
H1032 H 0.48707 0.56648 0.10362 0.0
H1033 H 0.47089 0.54757 0.07505 0.0
H1034 H 0.52725 0.45219 0.95161 0.0
H1035 H 0.51601 0.58433 0.12128 0.0
H1036 H 0.58742 0.48545 0.9697 0.0
H1037 H 0.60305 0.50478 0.99823 0.0
N1038 N 0.56148 0.49572 0.01009 0.0
C1039 C 0.55274 0.48459 0.99478 0.0
C1040 C 0.57938 0.50262 0.01158 0.0
C1041 C 0.58001 0.48819 0.98094 0.0
C1042 C 0.58886 0.49917 0.99699 0.0
C1043 C 0.56177 0.48058 0.97976 0.0
H1044 H 0.55912 0.46577 0.95248 0.0
N1045 N 0.52629 0.48145 0.00881 0.0
C1046 C 0.53468 0.47708 0.9942 0.0
C1047 C 0.50733 0.45731 0.97894 0.0
C1048 C 0.52532 0.46516 0.97871 0.0
C1049 C 0.509 0.47327 0.00942 0.0
C1050 C 0.4992 0.4612 0.99447 0.0
O1051 O 0.53654 0.53529 0.06687 0.0
O1052 O 0.55729 0.51983 0.05918 0.0
O1053 O 0.53641 0.47719 0.04878 0.0
O1054 O 0.56275 0.4846 0.03993 0.0
O1055 O 0.55337 0.54528 0.02588 0.0
O1056 O 0.56647 0.52549 0.03997 0.0
O1057 O 0.53606 0.51192 0.00752 0.0
O1058 O 0.5159 0.52845 0.01505 0.0
O1059 O 0.539 0.57088 0.02614 0.0
O1060 O 0.5119 0.5639 0.03313 0.0
O1061 O 0.51917 0.50116 0.04699 0.0
O1062 O 0.5068 0.52273 0.03489 0.0
C1063 C 0.54922 0.52713 0.07165 0.0
C1064 C 0.56754 0.53971 0.03148 0.0
C1065 C 0.5577 0.45813 0.05487 0.0
C1066 C 0.55482 0.43313 0.07305 0.0
C1067 C 0.57993 0.44045 0.05583 0.0
C1068 C 0.57355 0.45443 0.0496 0.0
C1069 C 0.57071 0.42993 0.06749 0.0
C1070 C 0.54812 0.44722 0.06653 0.0
C1071 C 0.5519 0.47348 0.04789 0.0
C1072 C 0.53424 0.46127 0.96365 0.0
C1073 C 0.5524 0.46899 0.96416 0.0
H1074 H 0.4997 0.44801 0.96735 0.0
C1075 C 0.52344 0.5201 0.00285 0.0
C1076 C 0.50531 0.50756 0.04189 0.0
C1077 C 0.51862 0.59055 0.01843 0.0
C1078 C 0.52247 0.61524 0.99961 0.0
C1079 C 0.49731 0.60924 0.01695 0.0
C1080 C 0.50309 0.5951 0.02356 0.0
C1081 C 0.50685 0.61918 0.00507 0.0
C1082 C 0.52853 0.60085 0.00641 0.0
C1083 C 0.52352 0.57485 0.02578 0.0
H1084 H 0.59214 0.4378 0.05164 0.0
H1085 H 0.58113 0.46236 0.04056 0.0
H1086 H 0.57599 0.41912 0.07216 0.0
H1087 H 0.5359 0.44984 0.07077 0.0
H1088 H 0.48529 0.61248 0.02103 0.0
H1089 H 0.49525 0.58767 0.03278 0.0
H1090 H 0.50198 0.6301 1.00006 0.0
H1091 H 0.54051 0.59758 0.0022 0.0
C1092 C 0.73959 0.22995 0.3003 0.0
C1093 C 0.71972 0.21129 0.27429 0.0
C1094 C 0.73608 0.22317 0.28147 0.0
C1095 C 0.70692 0.20633 0.28611 0.0
C1096 C 0.72668 0.22492 0.31212 0.0
C1097 C 0.71037 0.21314 0.30492 0.0
N1098 N 0.75553 0.24137 0.30704 0.0
C1099 C 0.75961 0.24765 0.32545 0.0
C1100 C 0.73057 0.23181 0.33089 0.0
C1101 C 0.74711 0.24315 0.33758 0.0
Gd1102 Gd 0.78238 0.29467 0.26515 0.0
Gd1103 Gd 0.77521 0.24675 0.28513 0.0
N1104 N 0.74847 0.22856 0.2701 0.0
C1105 C 0.71673 0.20467 0.25543 0.0
C1106 C 0.74596 0.22156 0.25194 0.0
C1107 C 0.72997 0.20972 0.24425 0.0
H1108 H 0.75638 0.22472 0.24351 0.0
H1109 H 0.72797 0.2043 0.22977 0.0
H1110 H 0.79751 0.32204 0.30411 0.0
H1111 H 0.77259 0.25579 0.33103 0.0
H1112 H 0.82472 0.34481 0.31762 0.0
H1113 H 0.70435 0.19545 0.24943 0.0
H1114 H 0.69427 0.19721 0.28082 0.0
H1115 H 0.78646 0.28421 0.21977 0.0
H1116 H 0.72098 0.22826 0.34039 0.0
H1117 H 0.75034 0.24824 0.35215 0.0
H1118 H 0.86127 0.34854 0.26855 0.0
H1119 H 0.70032 0.20914 0.31382 0.0
H1120 H 0.83787 0.31222 0.21062 0.0
H1121 H 0.80917 0.29097 0.19909 0.0
N1122 N 0.80268 0.29991 0.24359 0.0
C1123 C 0.818 0.31238 0.24997 0.0
C1124 C 0.79921 0.29271 0.2254 0.0
C1125 C 0.82809 0.30894 0.21999 0.0
C1126 C 0.81195 0.29686 0.21344 0.0
C1127 C 0.83117 0.3171 0.23835 0.0
H1128 H 0.8571 0.33376 0.23654 0.0
N1129 N 0.8075 0.31607 0.27905 0.0
C1130 C 0.82036 0.32086 0.26808 0.0
C1131 C 0.83761 0.34248 0.29311 0.0
C1132 C 0.83592 0.33406 0.27495 0.0
C1133 C 0.80857 0.32486 0.29632 0.0
C1134 C 0.82378 0.338 0.30378 0.0
O1135 O 0.75001 0.25705 0.2768 0.0
O1136 O 0.75523 0.27603 0.25459 0.0
O1137 O 0.76929 0.3162 0.27423 0.0
O1138 O 0.77549 0.31147 0.24587 0.0
O1139 O 0.78839 0.25408 0.26048 0.0
O1140 O 0.77365 0.27076 0.24429 0.0
O1141 O 0.80859 0.28748 0.27726 0.0
O1142 O 0.80366 0.26316 0.29407 0.0
O1143 O 0.78468 0.22399 0.27364 0.0
O1144 O 0.77951 0.22677 0.30218 0.0
O1145 O 0.77157 0.28784 0.29127 0.0
O1146 O 0.78551 0.26994 0.30682 0.0
C1147 C 0.74421 0.26567 0.26364 0.0
C1148 C 0.77993 0.25665 0.24516 0.0
C1149 C 0.7608 0.33521 0.25124 0.0
C1150 C 0.74455 0.35842 0.25586 0.0
C1151 C 0.75286 0.35079 0.22566 0.0
C1152 C 0.76083 0.33804 0.23257 0.0
C1153 C 0.74472 0.36091 0.23721 0.0
C1154 C 0.75266 0.34559 0.263 0.0
C1155 C 0.76852 0.32076 0.25754 0.0
C1156 C 0.84919 0.33848 0.2635 0.0
C1157 C 0.84683 0.33003 0.24527 0.0
H1158 H 0.84936 0.3527 0.2989 0.0
C1159 C 0.81444 0.27661 0.28811 0.0
C1160 C 0.78127 0.28517 0.30585 0.0
C1161 C 0.80206 0.21218 0.29561 0.0
C1162 C 0.82002 0.19027 0.29331 0.0
C1163 C 0.82715 0.214 0.31906 0.0
C1164 C 0.81307 0.22079 0.31194 0.0
C1165 C 0.83041 0.19862 0.30999 0.0
C1166 C 0.8058 0.19703 0.2861 0.0
C1167 C 0.78575 0.21779 0.28949 0.0
H1168 H 0.75292 0.35277 0.21127 0.0
H1169 H 0.76689 0.33027 0.22312 0.0
H1170 H 0.73854 0.37078 0.2316 0.0
H1171 H 0.75241 0.34358 0.27739 0.0
H1172 H 0.83536 0.22049 0.33182 0.0
H1173 H 0.81048 0.23248 0.31953 0.0
H1174 H 0.84114 0.19325 0.31592 0.0
H1175 H 0.7974 0.19024 0.27353 0.0
C1176 C 0.05596 0.50717 0.5932 0.0
C1177 C 0.07366 0.53358 0.61279 0.0
C1178 C 0.05903 0.52526 0.59931 0.0
C1179 C 0.08464 0.52338 0.62051 0.0
C1180 C 0.06716 0.49696 0.60074 0.0
C1181 C 0.08138 0.50512 0.61453 0.0
N1182 N 0.04269 0.49976 0.57916 0.0
C1183 C 0.03956 0.48218 0.57244 0.0
C1184 C 0.06403 0.47891 0.59385 0.0
C1185 C 0.05012 0.47148 0.57968 0.0
Gd1186 Gd 0.02658 0.54563 0.51854 0.0
Gd1187 Gd 0.02593 0.51857 0.56718 0.0
N1188 N 0.04882 0.53499 0.59068 0.0
C1189 C 0.07733 0.55203 0.61756 0.0
C1190 C 0.05273 0.55309 0.5951 0.0
C1191 C 0.06685 0.56182 0.60862 0.0
H1192 H 0.04568 0.56115 0.58782 0.0
H1193 H 0.06988 0.57616 0.61183 0.0
H1194 H 0.00803 0.50376 0.49531 0.0
H1195 H 0.02857 0.4763 0.5618 0.0
H1196 H 0.98419 0.48948 0.47095 0.0
H1197 H 0.08851 0.5589 0.62774 0.0
H1198 H 0.09595 0.52956 0.63082 0.0
H1199 H 0.02515 0.5882 0.52367 0.0
H1200 H 0.07235 0.47064 0.59928 0.0
H1201 H 0.04752 0.45752 0.57432 0.0
H1202 H 0.95496 0.53563 0.45717 0.0
H1203 H 0.09017 0.49749 0.6204 0.0
H1204 H 0.97955 0.59428 0.48919 0.0
H1205 H 1.00585 0.60724 0.51253 0.0
N1206 N 0.00969 0.56467 0.5073 0.0
C1207 C 0.99565 0.55739 0.49413 0.0
C1208 C 0.01354 0.58236 0.51374 0.0
C1209 C 0.98796 0.58586 0.4941 0.0
C1210 C 1.00274 0.59322 0.50731 0.0
C1211 C 0.98428 0.56776 0.48727 0.0
H1212 H 0.96066 0.56751 0.46862 0.0
N1213 N 1.00345 0.52978 0.49507 0.0
C1214 C 0.99249 0.53945 0.4877 0.0
C1215 C 0.97487 0.51326 0.46804 0.0
C1216 C 0.97778 0.5314 0.47422 0.0
C1217 C 1.00023 0.51193 0.48933 0.0
C1218 C 0.98623 0.50353 0.47558 0.0
O1219 O 0.05421 0.52842 0.56311 0.0
O1220 O 0.03811 0.53929 0.54426 0.0
O1221 O 0.04628 0.54359 0.50026 0.0
O1222 O 0.04541 0.5694 0.51401 0.0
O1223 O 0.01828 0.54576 0.56932 0.0
O1224 O 0.02726 0.56338 0.54583 0.0
O1225 O 0.99962 0.53772 0.52666 0.0
O1226 O 0.00916 0.5165 0.53989 0.0
O1227 O 0.00659 0.5213 0.58589 0.0
O1228 O 0.00905 0.49513 0.57483 0.0
O1229 O 0.03368 0.51826 0.5151 0.0
O1230 O 0.02742 0.50136 0.53988 0.0
C1231 C 0.05401 0.53832 0.55029 0.0
C1232 C 0.02078 0.56096 0.56184 0.0
C1233 C 0.053 0.56769 0.48358 0.0
C1234 C 0.06169 0.56465 0.45284 0.0
C1235 C 0.04558 0.587 0.46154 0.0
C1236 C 0.04519 0.58165 0.47911 0.0
C1237 C 0.05373 0.5785 0.44838 0.0
C1238 C 0.06138 0.55941 0.47046 0.0
C1239 C 0.05197 0.56079 0.50135 0.0
C1240 C 0.96637 0.54163 0.46742 0.0
C1241 C 0.9696 0.55977 0.47395 0.0
H1242 H 0.96387 0.50665 0.45755 0.0
C1243 C 0.99662 0.52497 0.53692 0.0
C1244 C 0.03225 0.50331 0.523 0.0
C1245 C 1.00095 0.49863 0.60485 0.0
C1246 C 0.98994 0.50163 0.63436 0.0
C1247 C 0.00802 0.4805 0.62832 0.0
C1248 C 0.00937 0.48549 0.61068 0.0
C1249 C 0.99841 0.48862 0.64022 0.0
C1250 C 0.9911 0.50649 0.61669 0.0
C1251 C 1.00189 0.50422 0.58648 0.0
H1252 H 0.03956 0.59774 0.45811 0.0
H1253 H 0.03871 0.58835 0.48905 0.0
H1254 H 0.05407 0.58292 0.43487 0.0
H1255 H 0.06735 0.54858 0.47385 0.0
H1256 H 0.0144 0.47032 0.63276 0.0
H1257 H 0.0169 0.47904 0.60169 0.0
H1258 H 0.99734 0.48458 0.65384 0.0
H1259 H 0.9844 0.51649 0.61222 0.0
C1260 C 0.73603 0.78704 0.24248 0.0
C1261 C 0.71668 0.75949 0.2266 0.0
C1262 C 0.7288 0.76894 0.24191 0.0
C1263 C 0.7123 0.76836 0.21169 0.0
C1264 C 0.73147 0.79604 0.22762 0.0
C1265 C 0.71968 0.78659 0.2122 0.0
N1266 N 0.74733 0.79589 0.25764 0.0
C1267 C 0.75378 0.81386 0.2592 0.0
C1268 C 0.73872 0.81433 0.22881 0.0
C1269 C 0.7498 0.8233 0.24474 0.0
Gd1270 Gd 0.80096 0.76555 0.28798 0.0
Gd1271 Gd 0.7531 0.77865 0.28098 0.0
N1272 N 0.73381 0.76055 0.25626 0.0
C1273 C 0.70947 0.74133 0.22668 0.0
C1274 C 0.72636 0.74305 0.25671 0.0
C1275 C 0.71432 0.73311 0.24183 0.0
H1276 H 0.72941 0.7368 0.26862 0.0
H1277 H 0.70882 0.71913 0.24207 0.0
H1278 H 0.82167 0.80834 0.30224 0.0
H1279 H 0.7616 0.8211 0.27177 0.0
H1280 H 0.84222 0.82579 0.32889 0.0
H1281 H 0.70017 0.73356 0.21515 0.0
H1282 H 0.70317 0.76128 0.19971 0.0
H1283 H 0.7922 0.72288 0.29665 0.0
H1284 H 0.73556 0.82171 0.21767 0.0
H1285 H 0.75508 0.83754 0.24601 0.0
H1286 H 0.8512 0.78244 0.36867 0.0
H1287 H 0.71603 0.79331 0.2007 0.0
H1288 H 0.82003 0.72176 0.34976 0.0
H1289 H 0.79976 0.70615 0.32181 0.0
N1290 N 0.80676 0.748 0.31082 0.0
C1291 C 0.81819 0.75684 0.32592 0.0
C1292 C 0.80037 0.73 0.30909 0.0
C1293 C 0.81642 0.72927 0.33892 0.0
C1294 C 0.80492 0.72041 0.3232 0.0
C1295 C 0.82335 0.74765 0.34036 0.0
H1296 H 0.83941 0.75017 0.36692 0.0
N1297 N 0.81884 0.78393 0.31333 0.0
C1298 C 0.82473 0.7752 0.32699 0.0
C1299 C 0.8429 0.80304 0.34315 0.0
C1300 C 0.83675 0.78461 0.34241 0.0
C1301 C 0.82529 0.80175 0.31366 0.0
C1302 C 0.83722 0.81162 0.32865 0.0
O1303 O 0.76362 0.76882 0.25449 0.0
O1304 O 0.78386 0.75168 0.26164 0.0
O1305 O 0.8233 0.77551 0.27301 0.0
O1306 O 0.821 0.75064 0.28434 0.0
O1307 O 0.75591 0.75439 0.29462 0.0
O1308 O 0.77692 0.74234 0.28128 0.0
O1309 O 0.78897 0.77298 0.31412 0.0
O1310 O 0.77241 0.7926 0.30576 0.0
O1311 O 0.73077 0.76958 0.2973 0.0
O1312 O 0.73565 0.79551 0.28743 0.0
O1313 O 0.79858 0.78954 0.27358 0.0
O1314 O 0.77749 0.80178 0.28642 0.0
C1315 C 0.77379 0.75792 0.24966 0.0
C1316 C 0.76178 0.74059 0.2883 0.0
C1317 C 0.83668 0.75371 0.25849 0.0
C1318 C 0.86067 0.75381 0.23936 0.0
C1319 C 0.83592 0.72792 0.23638 0.0
C1320 C 0.82821 0.73647 0.24989 0.0
C1321 C 0.85211 0.73643 0.23126 0.0
C1322 C 0.8528 0.76251 0.2529 0.0
C1323 C 0.82999 0.76168 0.27469 0.0
C1324 C 0.84201 0.77542 0.3567 0.0
C1325 C 0.83528 0.75703 0.35572 0.0
H1326 H 0.85212 0.81073 0.35477 0.0
C1327 C 0.77965 0.78473 0.31842 0.0
C1328 C 0.79233 0.8034 0.27881 0.0
C1329 C 0.71063 0.78976 0.30478 0.0
C1330 C 0.68509 0.78531 0.32259 0.0
C1331 C 0.6944 0.81296 0.30983 0.0
C1332 C 0.70798 0.80679 0.30243 0.0
C1333 C 0.68309 0.80238 0.3198 0.0
C1334 C 0.69897 0.77885 0.31499 0.0
C1335 C 0.72585 0.78452 0.29649 0.0
H1336 H 0.82946 0.71453 0.23004 0.0
H1337 H 0.81584 0.72941 0.25394 0.0
H1338 H 0.85796 0.72945 0.22089 0.0
H1339 H 0.85956 0.77573 0.2596 0.0
H1340 H 0.69266 0.82611 0.30785 0.0
H1341 H 0.7165 0.81557 0.29481 0.0
H1342 H 0.67264 0.80759 0.32545 0.0
H1343 H 0.70072 0.76573 0.31711 0.0
C1344 C 0.8068 0.24945 0.73312 0.0
C1345 C 0.78056 0.23303 0.71255 0.0
C1346 C 0.78924 0.24773 0.72581 0.0
C1347 C 0.78971 0.22009 0.70703 0.0
C1348 C 0.81611 0.23661 0.72748 0.0
C1349 C 0.80746 0.2219 0.71444 0.0
N1350 N 0.8146 0.26338 0.74628 0.0
C1351 C 0.83177 0.26553 0.75409 0.0
C1352 C 0.83377 0.23876 0.73537 0.0
C1353 C 0.84165 0.25333 0.74868 0.0
Gd1354 Gd 0.76785 0.28004 0.80413 0.0
Gd1355 Gd 0.79679 0.28207 0.75653 0.0
N1356 N 0.78062 0.26028 0.73181 0.0
C1357 C 0.76293 0.23172 0.70522 0.0
C1358 C 0.76379 0.25958 0.7236 0.0
C1359 C 0.75462 0.24519 0.7106 0.0
H1360 H 0.75721 0.27005 0.72648 0.0
H1361 H 0.74113 0.24457 0.70469 0.0
H1362 H 0.80096 0.2871 0.84014 0.0
H1363 H 0.83784 0.27659 0.76466 0.0
H1364 H 0.81565 0.31109 0.86514 0.0
H1365 H 0.75577 0.22058 0.69513 0.0
H1366 H 0.7832 0.20867 0.69699 0.0
H1367 H 0.72832 0.28781 0.79023 0.0
H1368 H 0.84138 0.22918 0.73139 0.0
H1369 H 0.85527 0.25507 0.75495 0.0
H1370 H 0.77757 0.35201 0.86449 0.0
H1371 H 0.81436 0.21182 0.71005 0.0
H1372 H 0.72392 0.33595 0.82146 0.0
H1373 H 0.71147 0.31067 0.79676 0.0
N1374 N 0.75003 0.30001 0.8109 0.0
C1375 C 0.7567 0.31328 0.82512 0.0
C1376 C 0.73387 0.29877 0.80098 0.0
C1377 C 0.73129 0.32585 0.81875 0.0
C1378 C 0.72425 0.31165 0.80474 0.0
C1379 C 0.74771 0.3268 0.82917 0.0
H1380 H 0.74885 0.35149 0.84647 0.0
N1381 N 0.78133 0.30044 0.83058 0.0
C1382 C 0.77297 0.31365 0.8351 0.0
C1383 C 0.79645 0.3268 0.86012 0.0
C1384 C 0.78053 0.32743 0.84967 0.0
C1385 C 0.79579 0.29883 0.84193 0.0
C1386 C 0.80385 0.31219 0.85653 0.0
O1387 O 0.7909 0.25508 0.76497 0.0
O1388 O 0.76981 0.26446 0.77753 0.0
O1389 O 0.76739 0.25935 0.82187 0.0
O1390 O 0.74276 0.2655 0.81093 0.0
O1391 O 0.76905 0.28884 0.75336 0.0
O1392 O 0.75154 0.27627 0.77523 0.0
O1393 O 0.77559 0.30792 0.79778 0.0
O1394 O 0.79176 0.29457 0.78258 0.0
O1395 O 0.796 0.30269 0.73927 0.0
O1396 O 0.82144 0.29943 0.75148 0.0
O1397 O 0.79676 0.27569 0.80865 0.0
O1398 O 0.81416 0.2829 0.78436 0.0
C1399 C 0.77827 0.25194 0.77519 0.0
C1400 C 0.75354 0.28436 0.76009 0.0
C1401 C 0.74466 0.25706 0.84087 0.0
C1402 C 0.74435 0.24449 0.86964 0.0
C1403 C 0.72826 0.26729 0.86458 0.0
C1404 C 0.7339 0.26822 0.84715 0.0
C1405 C 0.73335 0.25535 0.87579 0.0
C1406 C 0.74997 0.24537 0.85226 0.0
C1407 C 0.75035 0.25702 0.8225 0.0
C1408 C 0.77184 0.34118 0.8535 0.0
C1409 C 0.75546 0.34086 0.84329 0.0
H1410 H 0.80273 0.33715 0.87141 0.0
C1411 C 0.78642 0.30899 0.78575 0.0
C1412 C 0.81208 0.27814 0.80121 0.0
C1413 C 0.81914 0.30799 0.72131 0.0
C1414 C 0.81449 0.3165 0.69061 0.0
C1415 C 0.83676 0.29988 0.69778 0.0
C1416 C 0.83243 0.29966 0.7158 0.0
C1417 C 0.82774 0.30815 0.68514 0.0
C1418 C 0.81043 0.31659 0.7087 0.0
C1419 C 0.81318 0.30711 0.73958 0.0
H1420 H 0.7199 0.2758 0.86937 0.0
H1421 H 0.72977 0.27753 0.83862 0.0
H1422 H 0.72892 0.25469 0.88929 0.0
H1423 H 0.7583 0.23676 0.8475 0.0
H1424 H 0.84704 0.29353 0.69356 0.0
H1425 H 0.83932 0.29287 0.72528 0.0
H1426 H 0.83124 0.30826 0.67123 0.0
H1427 H 0.80011 0.323 0.71284 0.0
C1428 C 0.82036 0.8142 0.81054 0.0
C1429 C 0.83701 0.82997 0.78863 0.0
C1430 C 0.82125 0.81911 0.79291 0.0
C1431 C 0.85196 0.83544 0.80215 0.0
C1432 C 0.8352 0.82024 0.82434 0.0
C1433 C 0.85109 0.83054 0.81993 0.0
N1434 N 0.80467 0.80464 0.81457 0.0
C1435 C 0.80261 0.80186 0.83244 0.0
C1436 C 0.83343 0.81643 0.84238 0.0
C1437 C 0.81698 0.80741 0.84649 0.0
Gd1438 Gd 0.75979 0.74915 0.76479 0.0
Gd1439 Gd 0.78114 0.79681 0.79 0.0
N1440 N 0.80642 0.81413 0.78025 0.0
C1441 C 0.83709 0.8356 0.7711 0.0
C1442 C 0.80607 0.8206 0.76362 0.0
C1443 C 0.82147 0.83107 0.75862 0.0
H1444 H 0.79396 0.81752 0.75418 0.0
H1445 H 0.82122 0.83577 0.74523 0.0
H1446 H 0.74798 0.72045 0.79536 0.0
H1447 H 0.78974 0.79546 0.83587 0.0
H1448 H 0.72057 0.70166 0.80308 0.0
H1449 H 0.84897 0.84388 0.76729 0.0
H1450 H 0.86407 0.84397 0.79916 0.0
H1451 H 0.74965 0.75717 0.72062 0.0
H1452 H 0.8445 0.82092 0.85336 0.0
H1453 H 0.81528 0.80493 0.86053 0.0
H1454 H 0.67567 0.7051 0.75459 0.0
H1455 H 0.86262 0.83526 0.83034 0.0
H1456 H 0.69407 0.73642 0.70459 0.0
H1457 H 0.72324 0.75283 0.69782 0.0
N1458 N 0.73564 0.74531 0.74128 0.0
C1459 C 0.71992 0.73529 0.74483 0.0
C1460 C 0.737 0.75104 0.72438 0.0
C1461 C 0.70561 0.73882 0.71498 0.0
C1462 C 0.72203 0.74814 0.71113 0.0
C1463 C 0.70445 0.73197 0.73182 0.0
H1464 H 0.67645 0.71884 0.7259 0.0
N1465 N 0.73481 0.72976 0.77275 0.0
C1466 C 0.71949 0.72739 0.76102 0.0
C1467 C 0.70391 0.70733 0.78021 0.0
C1468 C 0.70358 0.71618 0.76455 0.0
C1469 C 0.73548 0.72 0.78715 0.0
C1470 C 0.72001 0.70902 0.79138 0.0
O1471 O 0.79975 0.78653 0.77167 0.0
O1472 O 0.79057 0.75648 0.77203 0.0
O1473 O 0.76944 0.72564 0.76936 0.0
O1474 O 0.75985 0.72989 0.7412 0.0
O1475 O 0.7642 0.79324 0.76205 0.0
O1476 O 0.77141 0.76946 0.74688 0.0
O1477 O 0.73904 0.76505 0.77251 0.0
O1478 O 0.7539 0.78414 0.79821 0.0
O1479 O 0.77385 0.82125 0.78392 0.0
O1480 O 0.7774 0.81525 0.81254 0.0
O1481 O 0.76103 0.75168 0.79585 0.0
O1482 O 0.7855 0.77435 0.80621 0.0
C1483 C 0.80285 0.77051 0.76941 0.0
C1484 C 0.76799 0.78521 0.74685 0.0
C1485 C 0.77036 0.70311 0.74422 0.0
C1486 C 0.78517 0.67923 0.74832 0.0
C1487 C 0.77113 0.68168 0.71794 0.0
C1488 C 0.76591 0.69673 0.72528 0.0
C1489 C 0.78089 0.67301 0.72938 0.0
C1490 C 0.77974 0.69411 0.75576 0.0
C1491 C 0.76652 0.71983 0.7517 0.0
C1492 C 0.68801 0.71359 0.75203 0.0
C1493 C 0.68846 0.72142 0.73569 0.0
H1494 H 0.69197 0.69863 0.78338 0.0
C1495 C 0.73882 0.77551 0.78796 0.0
C1496 C 0.77386 0.76008 0.80885 0.0
C1497 C 0.77027 0.84324 0.80838 0.0
C1498 C 0.76021 0.86949 0.80235 0.0
C1499 C 0.76909 0.86533 0.83389 0.0
C1500 C 0.77287 0.84921 0.82746 0.0
C1501 C 0.76271 0.87548 0.82135 0.0
C1502 C 0.76395 0.85346 0.79587 0.0
C1503 C 0.77414 0.82645 0.80147 0.0
H1504 H 0.76778 0.67684 0.70333 0.0
H1505 H 0.75868 0.70353 0.71611 0.0
H1506 H 0.78502 0.66143 0.72353 0.0
H1507 H 0.78339 0.69898 0.77038 0.0
H1508 H 0.77096 0.86987 0.84858 0.0
H1509 H 0.77781 0.84146 0.83737 0.0
H1510 H 0.75944 0.8878 0.82642 0.0
H1511 H 0.76162 0.84886 0.78113 0.0
C1512 C 0.4956 0.48128 0.51396 0.0
C1513 C 0.48346 0.46446 0.53766 0.0
C1514 C 0.49276 0.48049 0.53229 0.0
C1515 C 0.47694 0.44941 0.5244 0.0
C1516 C 0.48905 0.46615 0.50061 0.0
C1517 C 0.47968 0.45027 0.50592 0.0
N1518 N 0.50454 0.49687 0.50913 0.0
C1519 C 0.50731 0.49819 0.49119 0.0
C1520 C 0.49195 0.46746 0.48223 0.0
C1521 C 0.50113 0.48357 0.47751 0.0
Gd1522 Gd 0.55918 0.54162 0.55881 0.0
Gd1523 Gd 0.51224 0.52124 0.53264 0.0
N1524 N 0.49898 0.49537 0.54481 0.0
C1525 C 0.48078 0.46407 0.55619 0.0
C1526 C 0.49576 0.49512 0.56272 0.0
C1527 C 0.48694 0.47949 0.56877 0.0
H1528 H 0.49952 0.5069 0.57239 0.0
H1529 H 0.48462 0.47945 0.58307 0.0
H1530 H 0.5761 0.5555 0.52096 0.0
H1531 H 0.51338 0.51077 0.48722 0.0
H1532 H 0.59399 0.58249 0.51177 0.0
H1533 H 0.47375 0.45202 0.56087 0.0
H1534 H 0.46966 0.43706 0.52828 0.0
H1535 H 0.55512 0.55199 0.60386 0.0
H1536 H 0.48701 0.45617 0.47156 0.0
H1537 H 0.50315 0.48483 0.46328 0.0
H1538 H 0.60518 0.62494 0.56644 0.0
H1539 H 0.47446 0.43856 0.49582 0.0
H1540 H 0.58136 0.6064 0.62069 0.0
H1541 H 0.56391 0.57785 0.62788 0.0
N1542 N 0.56562 0.5659 0.58255 0.0
C1543 C 0.57564 0.58135 0.57846 0.0
C1544 C 0.56161 0.56453 0.60013 0.0
C1545 C 0.57698 0.59517 0.60988 0.0
C1546 C 0.56705 0.57912 0.61396 0.0
C1547 C 0.58155 0.59641 0.59203 0.0
H1548 H 0.59676 0.62376 0.59776 0.0
N1549 N 0.5746 0.56731 0.54796 0.0
C1550 C 0.58047 0.582 0.56078 0.0
C1551 C 0.59598 0.59791 0.53839 0.0
C1552 C 0.59126 0.59773 0.55628 0.0
C1553 C 0.57968 0.5673 0.53071 0.0
C1554 C 0.59018 0.5826 0.52556 0.0
O1555 O 0.52911 0.50086 0.53871 0.0
O1556 O 0.54594 0.51416 0.56604 0.0
O1557 O 0.58231 0.53183 0.55261 0.0
O1558 O 0.58028 0.54308 0.58091 0.0
O1559 O 0.51403 0.53685 0.56127 0.0
O1560 O 0.53876 0.53181 0.57724 0.0
O1561 O 0.54473 0.56297 0.54966 0.0
O1562 O 0.52379 0.54874 0.52501 0.0
O1563 O 0.4883 0.52929 0.53972 0.0
O1564 O 0.49147 0.52118 0.51084 0.0
O1565 O 0.55794 0.52754 0.52941 0.0
O1566 O 0.53216 0.53117 0.51378 0.0
C1567 C 0.53878 0.49969 0.55428 0.0
C1568 C 0.52315 0.53555 0.577 0.0
C1569 C 0.60681 0.53307 0.57654 0.0
C1570 C 0.63253 0.52209 0.5704 0.0
C1571 C 0.63099 0.53578 0.6012 0.0
C1572 C 0.61434 0.53855 0.59509 0.0
C1573 C 0.64016 0.52763 0.58886 0.0
C1574 C 0.61589 0.52472 0.56429 0.0
C1575 C 0.58956 0.53605 0.56986 0.0
C1576 C 0.59695 0.61276 0.56969 0.0
C1577 C 0.59212 0.6121 0.58751 0.0
H1578 H 0.60418 0.60973 0.53438 0.0
C1579 C 0.53319 0.56346 0.53518 0.0
C1580 C 0.54833 0.52877 0.51387 0.0
C1581 C 0.46465 0.53041 0.51556 0.0
C1582 C 0.4399 0.54341 0.52099 0.0
C1583 C 0.44264 0.53142 0.48989 0.0
C1584 C 0.4582 0.52675 0.49657 0.0
C1585 C 0.43346 0.53972 0.50206 0.0
C1586 C 0.45546 0.5388 0.52775 0.0
C1587 C 0.48186 0.52723 0.52223 0.0
H1588 H 0.63678 0.53995 0.61549 0.0
H1589 H 0.60741 0.54499 0.60482 0.0
H1590 H 0.65305 0.52541 0.59372 0.0
H1591 H 0.61015 0.52035 0.54996 0.0
H1592 H 0.43778 0.52875 0.47525 0.0
H1593 H 0.46531 0.52058 0.48684 0.0
H1594 H 0.42143 0.54341 0.49675 0.0
H1595 H 0.46045 0.54198 0.54238 0.0
C1596 C 0.0724 0.56289 0.02696 0.0
C1597 C 0.09437 0.58065 0.05184 0.0
C1598 C 0.08099 0.56518 0.04506 0.0
C1599 C 0.09869 0.594 0.04047 0.0
C1600 C 0.07718 0.57612 0.01538 0.0
C1601 C 0.0901 0.59177 0.02234 0.0
N1602 N 0.0598 0.54763 0.02053 0.0
C1603 C 0.05313 0.54406 0.00215 0.0
C1604 C 0.06912 0.57311 0.99701 0.0
C1605 C 0.05732 0.55688 0.99029 0.0
Gd1606 Gd 1.00239 0.52347 0.05777 0.0
Gd1607 Gd 0.05317 0.52825 0.04291 0.0
N1608 N 0.07607 0.55244 0.05614 0.0
C1609 C 0.10284 0.58235 0.06999 0.0
C1610 C 0.08479 0.55361 0.07348 0.0
C1611 C 0.09817 0.56867 0.08077 0.0
H1612 H 0.08158 0.54274 0.08149 0.0
H1613 H 0.10492 0.56968 0.09465 0.0
H1614 H 0.97595 0.50672 0.01848 0.0
H1615 H 0.04479 0.53129 0.99622 0.0
H1616 H 0.95476 0.4783 0.00517 0.0
H1617 H 0.11314 0.59406 0.07571 0.0
H1618 H 0.10876 0.60608 0.04554 0.0
H1619 H 0.01129 0.52054 0.10434 0.0
H1620 H 0.0724 0.58297 0.98772 0.0
H1621 H 0.05164 0.55412 0.97588 0.0
H1622 H 0.9557 0.44139 0.05359 0.0
H1623 H 0.09376 0.60211 0.01367 0.0
H1624 H 0.98932 0.46709 0.11209 0.0
H1625 H 0.00664 0.49739 0.1245 0.0
N1626 N 0.99943 0.50306 0.07949 0.0
C1627 C 0.9886 0.4868 0.07262 0.0
C1628 C 1.00494 0.50717 0.09811 0.0
C1629 C 0.99198 0.47706 0.10282 0.0
C1630 C 1.00183 0.49412 0.10987 0.0
C1631 C 0.98476 0.47336 0.08416 0.0
H1632 H 0.97022 0.44647 0.0857 0.0
N1633 N 0.98342 0.49705 0.04343 0.0
C1634 C 0.98014 0.48385 0.05434 0.0
C1635 C 0.95915 0.46548 0.02938 0.0
C1636 C 0.96807 0.46755 0.04739 0.0
C1637 C 0.97397 0.49559 0.02634 0.0
C1638 C 0.96195 0.47963 0.0189 0.0
O1639 O 0.04714 0.55553 0.054 0.0
O1640 O 0.01863 0.55233 0.06337 0.0
O1641 O 0.98132 0.53553 0.04669 0.0
O1642 O 0.98088 0.52581 0.07327 0.0
O1643 O 0.0429 0.51985 0.06869 0.0
O1644 O 0.02406 0.5344 0.08117 0.0
O1645 O 0.00879 0.50004 0.03958 0.0
O1646 O 0.03759 0.50232 0.05118 0.0
O1647 O 0.07706 0.51932 0.05162 0.0
O1648 O 0.06343 0.51142 0.02355 0.0
O1649 O 0.0136 0.53645 0.03451 0.0
O1650 O 0.03041 0.52033 0.02013 0.0
C1651 C 0.03426 0.56228 0.06074 0.0
C1652 C 0.03973 0.53092 0.08177 0.0
C1653 C 0.96843 0.55017 0.06986 0.0
C1654 C 0.94687 0.56842 0.07011 0.0
C1655 C 0.9697 0.57215 0.09638 0.0
C1656 C 0.97657 0.55895 0.08743 0.0
C1657 C 0.95477 0.57675 0.08787 0.0
C1658 C 0.95382 0.55524 0.06106 0.0
C1659 C 0.9736 0.5344 0.0616 0.0
C1660 C 0.9649 0.45402 0.05872 0.0
C1661 C 0.97322 0.4569 0.07701 0.0
H1662 H 0.94974 0.45315 0.0236 0.0
C1663 C 0.02249 0.49271 0.04197 0.0
C1664 C 0.01667 0.52743 0.01979 0.0
C1665 C 0.09372 0.50988 0.0287 0.0
C1666 C 0.11917 0.49638 0.02849 0.0
C1667 C 0.11375 0.51576 0.00568 0.0
C1668 C 0.09871 0.51835 0.01343 0.0
C1669 C 0.12384 0.5047 0.01303 0.0
C1670 C 0.10418 0.49915 0.03643 0.0
C1671 C 0.07671 0.51034 0.03552 0.0
H1672 H 0.97578 0.57864 0.11004 0.0
H1673 H 0.98791 0.55526 0.09448 0.0
H1674 H 0.94942 0.58688 0.09506 0.0
H1675 H 0.9474 0.54843 0.04758 0.0
H1676 H 0.11744 0.52208 0.99373 0.0
H1677 H 0.09077 0.52659 0.00725 0.0
H1678 H 0.1353 0.5026 0.00664 0.0
H1679 H 0.10025 0.49236 0.04807 0.0
H1680 H 0.99371 0.19925 0.9444 0.0
H1681 H 0.99727 0.17211 0.95691 0.0
H1682 H 0.0249 0.20334 0.0077 0.0
H1683 H 0.0209 0.2308 0.99525 0.0
H1684 H 0.04232 0.17634 0.99547 0.0
H1685 H 0.98291 0.1781 0.00602 0.0
H1686 H 0.95174 0.17967 0.99802 0.0
H1687 H 0.94254 0.13231 0.95905 0.0
H1688 H 0.97375 0.13064 0.96656 0.0
H1689 H 0.04428 0.09936 0.0428 0.0
H1690 H 0.04143 0.12784 0.0329 0.0
H1691 H 1.00217 0.10003 0.98744 0.0
H1692 H 1.00499 0.07161 0.99735 0.0
H1693 H 0.99097 0.12633 0.99808 0.0
H1694 H 0.04908 0.12431 0.98487 0.0
H1695 H 0.08035 0.12221 0.99028 0.0
H1696 H 0.09239 0.16869 0.03074 0.0
H1697 H 0.06113 0.17096 0.02578 0.0
C1698 C 1.00038 0.2005 0.95836 0.0
C1699 C 0.00678 0.21758 0.96873 0.0
C1700 C 1.00244 0.18475 0.96558 0.0
C1701 C 0.01135 0.18519 0.98346 0.0
C1702 C 0.01791 0.20225 0.9939 0.0
C1703 C 0.01547 0.2181 0.98679 0.0
C1704 C 0.01382 0.16793 0.99089 0.0
C1705 C 0.03101 0.16557 0.99633 0.0
C1706 C 0.99935 0.1532 0.99151 0.0
C1707 C 0.98071 0.15438 0.98669 0.0
C1708 C 0.9743 0.16814 0.99557 0.0
C1709 C 0.95661 0.16903 0.99116 0.0
C1710 C 0.94518 0.15613 0.97799 0.0
C1711 C 0.95141 0.14232 0.96921 0.0
C1712 C 0.9691 0.1414 0.97353 0.0
C1713 C 0.03519 0.09917 0.03054 0.0
C1714 C 0.02509 0.0827 0.02091 0.0
C1715 C 0.03355 0.11572 0.02475 0.0
C1716 C 0.02172 0.11669 0.00901 0.0
C1717 C 0.01149 0.10022 0.99955 0.0
C1718 C 0.01317 0.0837 0.00529 0.0
C1719 C 0.01954 0.13455 0.00267 0.0
C1720 C 1.00236 0.13705 0.99734 0.0
C1721 C 0.03406 0.14924 0.00179 0.0
C1722 C 0.05272 0.14766 0.00514 0.0
C1723 C 0.05835 0.13397 0.99507 0.0
C1724 C 0.07608 0.13277 0.99801 0.0
C1725 C 0.08832 0.14527 0.01086 0.0
C1726 C 0.08287 0.15899 0.02082 0.0
C1727 C 0.06515 0.16024 0.01796 0.0
H1728 H 0.10205 0.14434 0.01309 0.0
H1729 H 0.93147 0.15681 0.97463 0.0
H1730 H 0.1077 0.78065 0.13505 0.0
H1731 H 0.13516 0.77897 0.15392 0.0
H1732 H 0.12332 0.81323 0.19863 0.0
H1733 H 0.09532 0.81424 0.18003 0.0
H1734 H 0.16132 0.82134 0.18732 0.0
H1735 H 0.11541 0.77477 0.20462 0.0
H1736 H 0.09086 0.7479 0.19797 0.0
H1737 H 0.12531 0.71874 0.17318 0.0
H1738 H 0.14998 0.74556 0.17934 0.0
H1739 H 0.22641 0.8129 0.25893 0.0
H1740 H 0.19872 0.81486 0.24069 0.0
H1741 H 0.19808 0.76583 0.20671 0.0
H1742 H 0.22504 0.76341 0.22574 0.0
H1743 H 0.16621 0.76523 0.21183 0.0
H1744 H 0.21096 0.80815 0.19176 0.0
H1745 H 0.23683 0.83362 0.19465 0.0
H1746 H 0.20686 0.86791 0.21944 0.0
H1747 H 0.18086 0.84255 0.21694 0.0
C1748 C 0.11109 0.78802 0.14882 0.0
C1749 C 0.09953 0.79779 0.15601 0.0
C1750 C 0.12672 0.78696 0.15961 0.0
C1751 C 0.13131 0.79599 0.17768 0.0
C1752 C 0.12003 0.80618 0.18472 0.0
C1753 C 0.10409 0.80679 0.17411 0.0
C1754 C 0.1477 0.79448 0.1893 0.0
C1755 C 0.16232 0.80918 0.19295 0.0
C1756 C 0.14931 0.77835 0.19592 0.0
C1757 C 0.13447 0.76224 0.19222 0.0
C1758 C 0.1177 0.76269 0.19754 0.0
C1759 C 0.10377 0.74745 0.1939 0.0
C1760 C 0.1065 0.73163 0.1851 0.0
C1761 C 0.12319 0.73101 0.17995 0.0
C1762 C 0.13715 0.74623 0.18351 0.0
C1763 C 0.22034 0.80264 0.24748 0.0
C1764 C 0.22825 0.78843 0.24317 0.0
C1765 C 0.20456 0.80378 0.23699 0.0
C1766 C 0.19642 0.79075 0.22189 0.0
C1767 C 0.20411 0.77622 0.21804 0.0
C1768 C 0.21975 0.77501 0.22868 0.0
C1769 C 0.17993 0.79223 0.21018 0.0
C1770 C 0.16529 0.77748 0.20636 0.0
C1771 C 0.17851 0.80813 0.20287 0.0
C1772 C 0.19403 0.82343 0.20432 0.0
C1773 C 0.20993 0.8211 0.19795 0.0
C1774 C 0.22461 0.83551 0.1995 0.0
C1775 C 0.22351 0.85237 0.20727 0.0
C1776 C 0.2077 0.85484 0.21346 0.0
C1777 C 0.19298 0.84046 0.21196 0.0
H1778 H 0.23489 0.86352 0.20846 0.0
H1779 H 0.09571 0.71984 0.18232 0.0
H1780 H 0.51894 0.83151 0.44475 0.0
H1781 H 0.52202 0.86256 0.45731 0.0
H1782 H 0.51081 0.84655 0.51013 0.0
H1783 H 0.50814 0.81513 0.4976 0.0
H1784 H 0.49152 0.87236 0.49847 0.0
H1785 H 0.5522 0.867 0.50509 0.0
H1786 H 0.57913 0.85967 0.49455 0.0
H1787 H 0.57962 0.89669 0.45491 0.0
H1788 H 0.55248 0.904 0.465 0.0
H1789 H 0.511 0.96244 0.54413 0.0
H1790 H 0.50829 0.93072 0.5346 0.0
H1791 H 0.53512 0.94332 0.48742 0.0
H1792 H 0.53827 0.97498 0.49721 0.0
H1793 H 0.54674 0.91841 0.49758 0.0
H1794 H 0.48639 0.9218 0.48605 0.0
H1795 H 0.45793 0.92869 0.49226 0.0
H1796 H 0.45528 0.89621 0.5363 0.0
H1797 H 0.48371 0.88899 0.5302 0.0
C1798 C 0.51722 0.83446 0.45912 0.0
C1799 C 0.51332 0.82048 0.47006 0.0
C1800 C 0.51903 0.85243 0.46635 0.0
C1801 C 0.51673 0.85732 0.48482 0.0
C1802 C 0.51272 0.84341 0.49585 0.0
C1803 C 0.51129 0.82533 0.48869 0.0
C1804 C 0.51843 0.87684 0.49227 0.0
C1805 C 0.50375 0.88234 0.4986 0.0
C1806 C 0.534 0.89035 0.49182 0.0
C1807 C 0.55022 0.8859 0.48567 0.0
C1808 C 0.55795 0.87344 0.494 0.0
C1809 C 0.57327 0.86931 0.48813 0.0
C1810 C 0.58106 0.87767 0.47404 0.0
C1811 C 0.57355 0.8902 0.4658 0.0
C1812 C 0.5582 0.89434 0.47159 0.0
C1813 C 0.51618 0.95853 0.5316 0.0
C1814 C 0.52475 0.97167 0.52148 0.0
C1815 C 0.51454 0.94014 0.52602 0.0
C1816 C 0.52122 0.934 0.50993 0.0
C1817 C 0.52978 0.94719 0.49986 0.0
C1818 C 0.53152 0.96554 0.5055 0.0
C1819 C 0.51977 0.91413 0.5038 0.0
C1820 C 0.5345 0.90852 0.49763 0.0
C1821 C 0.50408 0.90058 0.50389 0.0
C1822 C 0.48723 0.90506 0.50784 0.0
C1823 C 0.47979 0.91624 0.49715 0.0
C1824 C 0.46364 0.92014 0.50059 0.0
C1825 C 0.45485 0.91298 0.51475 0.0
C1826 C 0.46213 0.90178 0.52538 0.0
C1827 C 0.47822 0.89772 0.52189 0.0
H1828 H 0.44238 0.91609 0.51746 0.0
H1829 H 0.59293 0.87447 0.46953 0.0
H1830 H 0.49926 0.25208 0.65517 0.0
H1831 H 0.47105 0.25154 0.66756 0.0
H1832 H 0.48355 0.30888 0.67567 0.0
H1833 H 0.51155 0.30948 0.66247 0.0
H1834 H 0.47359 0.28783 0.70829 0.0
H1835 H 0.45397 0.29381 0.64489 0.0
H1836 H 0.4492 0.28543 0.61107 0.0
H1837 H 0.41803 0.23397 0.61745 0.0
H1838 H 0.42291 0.24192 0.65134 0.0
H1839 H 0.39279 0.28488 0.74613 0.0
H1840 H 0.41737 0.2948 0.72822 0.0
H1841 H 0.40117 0.24483 0.69219 0.0
H1842 H 0.37629 0.23556 0.70931 0.0
H1843 H 0.41344 0.26672 0.67257 0.0
H1844 H 0.43527 0.25554 0.73266 0.0
H1845 H 0.44159 0.25888 0.76668 0.0
H1846 H 0.46992 0.31309 0.76743 0.0
H1847 H 0.46349 0.31017 0.73343 0.0
C1848 C 0.49593 0.26457 0.65949 0.0
C1849 C 0.50758 0.28083 0.65794 0.0
C1850 C 0.4798 0.26424 0.66646 0.0
C1851 C 0.4752 0.28016 0.67246 0.0
C1852 C 0.48683 0.29645 0.671 0.0
C1853 C 0.50277 0.29678 0.66347 0.0
C1854 C 0.45873 0.27962 0.68123 0.0
C1855 C 0.46037 0.28359 0.70051 0.0
C1856 C 0.44159 0.27332 0.67108 0.0
C1857 C 0.43898 0.26842 0.6507 0.0
C1858 C 0.44631 0.28063 0.63911 0.0
C1859 C 0.44353 0.27597 0.61991 0.0
C1860 C 0.43335 0.25916 0.61211 0.0
C1861 C 0.42594 0.24697 0.6235 0.0
C1862 C 0.42871 0.25155 0.64271 0.0
C1863 C 0.39413 0.27641 0.73392 0.0
C1864 C 0.38266 0.25947 0.72907 0.0
C1865 C 0.40839 0.2819 0.72389 0.0
C1866 C 0.41159 0.27039 0.7091 0.0
C1867 C 0.39923 0.25403 0.70352 0.0
C1868 C 0.38493 0.24871 0.7133 0.0
C1869 C 0.4281 0.27463 0.69991 0.0
C1870 C 0.42655 0.27126 0.6805 0.0
C1871 C 0.4454 0.28074 0.71004 0.0
C1872 C 0.44861 0.28274 0.73053 0.0
C1873 C 0.44262 0.26825 0.7401 0.0
C1874 C 0.44627 0.27005 0.75938 0.0
C1875 C 0.45608 0.28621 0.76922 0.0
C1876 C 0.46225 0.30061 0.7598 0.0
C1877 C 0.45858 0.2989 0.74054 0.0
H1878 H 0.45896 0.28755 0.78413 0.0
H1879 H 0.43118 0.2556 0.59724 0.0
H1880 H 0.05086 0.80994 0.6541 0.0
H1881 H 0.05139 0.83757 0.64069 0.0
H1882 H 0.9957 0.83202 0.64559 0.0
H1883 H 0.99523 0.80454 0.6597 0.0
H1884 H 0.00754 0.83827 0.6087 0.0
H1885 H 0.02009 0.86225 0.67267 0.0
H1886 H 0.03559 0.8672 0.70452 0.0
H1887 H 0.08484 0.88984 0.68519 0.0
H1888 H 0.06972 0.88468 0.65315 0.0
H1889 H 0.01268 0.92003 0.57102 0.0
H1890 H 1.00521 0.89724 0.59168 0.0
H1891 H 0.06117 0.90224 0.6086 0.0
H1892 H 0.0685 0.92503 0.58823 0.0
H1893 H 0.04473 0.89724 0.63703 0.0
H1894 H 0.03501 0.86935 0.57395 0.0
H1895 H 0.02174 0.86237 0.54123 0.0
H1896 H 0.96988 0.84538 0.55769 0.0
H1897 H 0.98282 0.85256 0.59054 0.0
C1898 C 0.03872 0.81462 0.6524 0.0
C1899 C 0.02297 0.80504 0.6579 0.0
C1900 C 0.03908 0.83046 0.64483 0.0
C1901 C 0.02362 0.83689 0.64223 0.0
C1902 C 0.0078 0.82732 0.64758 0.0
C1903 C 0.00755 0.81166 0.65563 0.0
C1904 C 0.024 0.85317 0.63311 0.0
C1905 C 0.01532 0.85129 0.61502 0.0
C1906 C 0.03459 0.86999 0.6412 0.0
C1907 C 0.04378 0.8729 0.66045 0.0
C1908 C 0.03427 0.86807 0.67516 0.0
C1909 C 0.04298 0.87096 0.69327 0.0
C1910 C 0.06119 0.87879 0.69687 0.0
C1911 C 0.07073 0.88375 0.68237 0.0
C1912 C 0.0621 0.88085 0.66423 0.0
C1913 C 0.0233 0.91651 0.57952 0.0
C1914 C 0.04115 0.92422 0.57806 0.0
C1915 C 0.01906 0.90336 0.59117 0.0
C1916 C 0.03262 0.8977 0.6015 0.0
C1917 C 0.05043 0.90623 0.60077 0.0
C1918 C 0.05464 0.91926 0.58912 0.0
C1919 C 0.02856 0.88235 0.61235 0.0
C1920 C 0.03663 0.88435 0.63077 0.0
C1921 C 0.0177 0.86551 0.60442 0.0
C1922 C 0.00984 0.86178 0.5847 0.0
C1923 C 0.02075 0.86436 0.5706 0.0
C1924 C 0.01329 0.86033 0.55202 0.0
C1925 C 0.99497 0.85351 0.54738 0.0
C1926 C 0.98406 0.85073 0.5613 0.0
C1927 C 0.99144 0.85481 0.5799 0.0
H1928 H 0.98923 0.85033 0.53299 0.0
H1929 H 0.06791 0.88105 0.71091 0.0
H1930 H 0.48716 0.81613 0.81559 0.0
H1931 H 0.45567 0.8127 0.80439 0.0
H1932 H 0.44114 0.77927 0.84632 0.0
H1933 H 0.47276 0.7821 0.85703 0.0
H1934 H 0.41794 0.76639 0.81896 0.0
H1935 H 0.43758 0.82651 0.84707 0.0
H1936 H 0.45655 0.85697 0.85325 0.0
H1937 H 0.44403 0.86437 0.79657 0.0
H1938 H 0.42511 0.83387 0.79003 0.0
H1939 H 0.32676 0.77181 0.80961 0.0
H1940 H 0.35816 0.77495 0.82055 0.0
H1941 H 0.37274 0.80475 0.77589 0.0
H1942 H 0.34118 0.80199 0.76513 0.0
H1943 H 0.39567 0.81917 0.80472 0.0
H1944 H 0.37355 0.75719 0.77872 0.0
H1945 H 0.35267 0.72786 0.77636 0.0
H1946 H 0.36877 0.72482 0.83355 0.0
H1947 H 0.38946 0.75429 0.83634 0.0
C1948 C 0.47733 0.80794 0.82243 0.0
C1949 C 0.48287 0.79942 0.83733 0.0
C1950 C 0.45907 0.80611 0.81608 0.0
C1951 C 0.44543 0.79601 0.8246 0.0
C1952 C 0.45099 0.78722 0.83929 0.0
C1953 C 0.46928 0.78887 0.84551 0.0
C1954 C 0.42561 0.79466 0.81827 0.0
C1955 C 0.4132 0.77806 0.81607 0.0
C1956 C 0.41876 0.8096 0.81419 0.0
C1957 C 0.4301 0.82789 0.81803 0.0
C1958 C 0.43897 0.83461 0.83591 0.0
C1959 C 0.44969 0.85188 0.83948 0.0
C1960 C 0.45153 0.86259 0.8253 0.0
C1961 C 0.44261 0.85606 0.80753 0.0
C1962 C 0.43187 0.83879 0.80389 0.0
C1963 C 0.33656 0.77911 0.80204 0.0
C1964 C 0.33103 0.78667 0.78637 0.0
C1965 C 0.35476 0.78077 0.80829 0.0
C1966 C 0.36836 0.78975 0.79896 0.0
C1967 C 0.36287 0.79764 0.78351 0.0
C1968 C 0.34461 0.7961 0.77732 0.0
C1969 C 0.38809 0.79092 0.80526 0.0
C1970 C 0.40047 0.80749 0.80748 0.0
C1971 C 0.39481 0.77602 0.80972 0.0
C1972 C 0.38298 0.75797 0.80776 0.0
C1973 C 0.37263 0.75026 0.79078 0.0
C1974 C 0.3608 0.73363 0.78939 0.0
C1975 C 0.35939 0.72451 0.80482 0.0
C1976 C 0.36987 0.73192 0.82163 0.0
C1977 C 0.38165 0.74857 0.82312 0.0
H1978 H 0.3502 0.71169 0.8038 0.0
H1979 H 0.45984 0.87596 0.82809 0.0
H1980 H 0.51757 0.20893 0.13186 0.0
H1981 H 0.51891 0.18121 0.1137 0.0
H1982 H 0.50606 0.15269 0.15971 0.0
H1983 H 0.50488 0.18055 0.17814 0.0
H1984 H 0.53255 0.14177 0.14411 0.0
H1985 H 0.47493 0.14865 0.12139 0.0
H1986 H 0.45364 0.16526 0.10922 0.0
H1987 H 0.48087 0.1724 0.06151 0.0
H1988 H 0.50247 0.15599 0.07354 0.0
H1989 H 0.50727 0.05458 0.08791 0.0
H1990 H 0.50548 0.08157 0.10745 0.0
H1991 H 0.53257 0.11388 0.07012 0.0
H1992 H 0.53576 0.08716 0.05137 0.0
H1993 H 0.49815 0.12216 0.08167 0.0
H1994 H 0.55591 0.11551 0.10471 0.0
H1995 H 0.57789 0.09999 0.11755 0.0
H1996 H 0.55055 0.09284 0.16517 0.0
H1997 H 0.52817 0.10801 0.1524 0.0
C1998 C 0.51479 0.19677 0.13814 0.0
C1999 C 0.5109 0.19711 0.15652 0.0
C2000 C 0.51557 0.18083 0.12766 0.0
C2001 C 0.51242 0.16464 0.13515 0.0
C2002 C 0.50852 0.1649 0.1535 0.0
C2003 C 0.50769 0.18088 0.164 0.0
C2004 C 0.51331 0.1476 0.12382 0.0
C2005 C 0.52477 0.13737 0.1306 0.0
C2006 C 0.50354 0.14183 0.10595 0.0
C2007 C 0.49035 0.15123 0.09841 0.0
C2008 C 0.4764 0.15382 0.10833 0.0
C2009 C 0.46429 0.1632 0.10147 0.0
C2010 C 0.46592 0.16992 0.08462 0.0
C2011 C 0.47963 0.16719 0.07456 0.0
C2012 C 0.49179 0.15783 0.08137 0.0
C2013 C 0.51297 0.06739 0.08383 0.0
C2014 C 0.5214 0.06843 0.06768 0.0
C2015 C 0.51189 0.08287 0.09506 0.0
C2016 C 0.51877 0.09984 0.09024 0.0
C2017 C 0.527 0.10098 0.0741 0.0
C2018 C 0.52861 0.08555 0.0632 0.0
C2019 C 0.51736 0.11638 0.10198 0.0
C2020 C 0.50581 0.1265 0.09524 0.0
C2021 C 0.52701 0.122 0.1199 0.0
C2022 C 0.5402 0.11259 0.12744 0.0
C2023 C 0.55442 0.11037 0.11778 0.0
C2024 C 0.567 0.10171 0.12508 0.0
C2025 C 0.56558 0.09537 0.14213 0.0
C2026 C 0.5516 0.0977 0.15193 0.0
C2027 C 0.53895 0.10631 0.14466 0.0
H2028 H 0.57535 0.08869 0.14777 0.0
H2029 H 0.45656 0.17721 0.07935 0.0
H2030 H 0.09595 0.31385 0.33041 0.0
H2031 H 0.12469 0.31173 0.31998 0.0
H2032 H 0.11615 0.2577 0.33199 0.0
H2033 H 0.0871 0.25948 0.3415 0.0
H2034 H 0.15321 0.28097 0.34517 0.0
H2035 H 0.11016 0.26159 0.29034 0.0
H2036 H 0.08582 0.26541 0.2679 0.0
H2037 H 0.11956 0.31272 0.25431 0.0
H2038 H 0.144 0.30936 0.27698 0.0
H2039 H 0.2216 0.25118 0.30208 0.0
H2040 H 0.19314 0.25411 0.31214 0.0
H2041 H 0.19461 0.29972 0.28307 0.0
H2042 H 0.22287 0.29628 0.27248 0.0
H2043 H 0.16137 0.28217 0.27907 0.0
H2044 H 0.20449 0.30252 0.33155 0.0
H2045 H 0.22934 0.30179 0.35502 0.0
H2046 H 0.19699 0.25692 0.3745 0.0
H2047 H 0.17203 0.25715 0.35085 0.0
C2048 C 0.10011 0.30147 0.33075 0.0
C2049 C 0.08886 0.28678 0.33665 0.0
C2050 C 0.11668 0.30027 0.3248 0.0
C2051 C 0.12294 0.28454 0.32513 0.0
C2052 C 0.11191 0.27004 0.3315 0.0
C2053 C 0.09512 0.27104 0.33685 0.0
C2054 C 0.1405 0.28294 0.31825 0.0
C2055 C 0.15486 0.28099 0.33067 0.0
C2056 C 0.14327 0.28357 0.29945 0.0
C2057 C 0.12881 0.28534 0.28549 0.0
C2058 C 0.11233 0.27288 0.28267 0.0
C2059 C 0.09853 0.27495 0.2699 0.0
C2060 C 0.10112 0.28933 0.25972 0.0
C2061 C 0.11756 0.30161 0.26223 0.0
C2062 C 0.13139 0.29963 0.27504 0.0
C2063 C 0.21572 0.26161 0.2975 0.0
C2064 C 0.22452 0.27324 0.2861 0.0
C2065 C 0.19942 0.26349 0.30353 0.0
C2066 C 0.19138 0.27733 0.29871 0.0
C2067 C 0.20015 0.28886 0.28711 0.0
C2068 C 0.21644 0.2869 0.28102 0.0
C2069 C 0.17415 0.27987 0.30593 0.0
C2070 C 0.15983 0.28208 0.29359 0.0
C2071 C 0.17157 0.27984 0.32491 0.0
C2072 C 0.18645 0.27971 0.33927 0.0
C2073 C 0.20271 0.2924 0.34073 0.0
C2074 C 0.21682 0.29208 0.35407 0.0
C2075 C 0.21477 0.27927 0.3662 0.0
C2076 C 0.19858 0.2668 0.36505 0.0
C2077 C 0.18444 0.26701 0.35167 0.0
H2078 H 0.22571 0.27904 0.37653 0.0
H2079 H 0.0904 0.29093 0.24986 0.0
H2080 H 0.93965 0.99202 0.20949 0.0
H2081 H 0.95286 0.99631 0.18082 0.0
H2082 H 0.97146 0.05247 0.19975 0.0
H2083 H 0.958 0.04814 0.22842 0.0
H2084 H 0.95626 0.04489 0.16199 0.0
H2085 H 0.99982 0.02512 0.20282 0.0
H2086 H 0.00782 1.00368 0.2228 0.0
H2087 H 0.99172 0.96179 0.17709 0.0
H2088 H 0.9834 0.98294 0.15693 0.0
H2089 H 0.0097 0.06219 0.08976 0.0
H2090 H 0.99801 0.06107 0.11948 0.0
H2091 H 0.99705 0.00495 0.11567 0.0
H2092 H 0.01147 0.00707 0.08779 0.0
H2093 H 1.0033 0.01378 0.14725 0.0
H2094 H 0.95777 0.02879 0.10622 0.0
H2095 H 0.94597 0.04682 0.0844 0.0
H2096 H 0.95947 0.09218 0.12638 0.0
H2097 H 0.97159 0.07451 0.14835 0.0
C2098 C 0.94676 0.00522 0.20758 0.0
C2099 C 0.94824 0.01969 0.22129 0.0
C2100 C 0.95422 0.0077 0.19118 0.0
C2101 C 0.96335 0.0247 0.18814 0.0
C2102 C 0.96455 0.03923 0.20176 0.0
C2103 C 0.95706 0.03674 0.2182 0.0
C2104 C 0.97207 0.02716 0.17105 0.0
C2105 C 0.96666 0.03822 0.15876 0.0
C2106 C 0.98519 0.01803 0.16646 0.0
C2107 C 0.99098 0.00559 0.17841 0.0
C2108 C 0.998 0.01134 0.19705 0.0
C2109 C 1.00256 0.99923 0.20841 0.0
C2110 C 1.00027 0.98138 0.20122 0.0
C2111 C 0.9935 0.97561 0.18264 0.0
C2112 C 0.98889 0.98766 0.17124 0.0
C2113 C 0.007 0.04969 0.09543 0.0
C2114 C 0.01103 0.0346 0.08629 0.0
C2115 C 1.00003 0.04892 0.11235 0.0
C2116 C 0.99576 0.03271 0.11986 0.0
C2117 C 1.00005 0.01771 0.11056 0.0
C2118 C 0.00813 0.01882 0.09441 0.0
C2119 C 0.98725 0.03122 0.13743 0.0
C2120 C 0.99279 0.02042 0.15006 0.0
C2121 C 0.97364 0.03998 0.14184 0.0
C2122 C 0.96578 0.0504 0.12884 0.0
C2123 C 0.95827 0.04263 0.11076 0.0
C2124 C 0.95159 0.0528 0.09835 0.0
C2125 C 0.95217 0.07069 0.10394 0.0
C2126 C 0.95918 0.07837 0.12203 0.0
C2127 C 0.96594 0.06829 0.13447 0.0
H2128 H 0.94699 0.07853 0.09431 0.0
H2129 H 1.00377 0.97202 0.21005 0.0
H2130 H 0.29187 0.68312 0.5078 0.0
H2131 H 0.2896 0.69739 0.47969 0.0
H2132 H 0.24984 0.65119 0.45284 0.0
H2133 H 0.25312 0.63649 0.48055 0.0
H2134 H 0.26975 0.66374 0.42892 0.0
H2135 H 0.23773 0.68945 0.47301 0.0
H2136 H 0.23328 0.7041 0.5031 0.0
H2137 H 0.27618 0.74854 0.49927 0.0
H2138 H 0.28089 0.73411 0.46918 0.0
H2139 H 0.22563 0.70914 0.36564 0.0
H2140 H 0.23537 0.69122 0.38853 0.0
H2141 H 0.2783 0.73594 0.41236 0.0
H2142 H 0.26823 0.75392 0.38972 0.0
H2143 H 0.25739 0.72383 0.43716 0.0
H2144 H 0.28842 0.69753 0.39201 0.0
H2145 H 0.29144 0.68257 0.36153 0.0
H2146 H 0.24807 0.6391 0.36679 0.0
H2147 H 0.2448 0.65383 0.39732 0.0
C2148 C 0.28306 0.67593 0.49565 0.0
C2149 C 0.27283 0.65877 0.49598 0.0
C2150 C 0.28158 0.6841 0.47976 0.0
C2151 C 0.26925 0.67547 0.46439 0.0
C2152 C 0.25946 0.65803 0.46456 0.0
C2153 C 0.26136 0.64965 0.48027 0.0
C2154 C 0.26604 0.68493 0.44847 0.0
C2155 C 0.26689 0.67681 0.43069 0.0
C2156 C 0.26245 0.70202 0.45082 0.0
C2157 C 0.25975 0.71065 0.46896 0.0
C2158 C 0.24627 0.70229 0.47866 0.0
C2159 C 0.24368 0.71058 0.49568 0.0
C2160 C 0.25447 0.72722 0.50311 0.0
C2161 C 0.26784 0.73565 0.49351 0.0
C2162 C 0.27045 0.72745 0.47645 0.0
C2163 C 0.23729 0.71492 0.37565 0.0
C2164 C 0.24613 0.73278 0.37637 0.0
C2165 C 0.24294 0.70471 0.38852 0.0
C2166 C 0.25758 0.7123 0.40203 0.0
C2167 C 0.26698 0.72992 0.40201 0.0
C2168 C 0.26125 0.74014 0.38923 0.0
C2169 C 0.26148 0.70282 0.41768 0.0
C2170 C 0.26048 0.71085 0.43541 0.0
C2171 C 0.26464 0.68559 0.41522 0.0
C2172 C 0.26633 0.6768 0.39684 0.0
C2173 C 0.27947 0.68483 0.38659 0.0
C2174 C 0.28125 0.67639 0.36935 0.0
C2175 C 0.26994 0.65994 0.36223 0.0
C2176 C 0.25682 0.65186 0.37233 0.0
C2177 C 0.25504 0.66021 0.38963 0.0
H2178 H 0.27143 0.65351 0.34892 0.0
H2179 H 0.25244 0.73361 0.5163 0.0
H2180 H 0.62564 0.02921 0.73103 0.0
H2181 H 0.6075 0.02942 0.70199 0.0
H2182 H 0.65334 0.03139 0.67297 0.0
H2183 H 0.67186 0.03176 0.70222 0.0
H2184 H 0.63303 0.05518 0.66317 0.0
H2185 H 0.62437 0.99286 0.66996 0.0
H2186 H 0.61844 0.96806 0.68859 0.0
H2187 H 0.56717 0.97794 0.69579 0.0
H2188 H 0.57292 1.00295 0.67738 0.0
H2189 H 0.57562 0.00966 0.57612 0.0
H2190 H 0.59639 0.01301 0.60427 0.0
H2191 H 0.56706 0.04603 0.63276 0.0
H2192 H 0.54704 0.04407 0.60433 0.0
H2193 H 0.58015 0.0054 0.64191 0.0
H2194 H 0.59151 0.07093 0.64081 0.0
H2195 H 0.59897 0.09809 0.62586 0.0
H2196 H 0.64578 0.08323 0.60968 0.0
H2197 H 0.6382 0.05564 0.62406 0.0
C2198 C 0.63181 0.02944 0.71844 0.0
C2199 C 0.65003 0.03026 0.7187 0.0
C2200 C 0.62149 0.02968 0.70196 0.0
C2201 C 0.62919 0.03024 0.68555 0.0
C2202 C 0.64734 0.03096 0.68567 0.0
C2203 C 0.65778 0.03101 0.70225 0.0
C2204 C 0.61801 0.02968 0.66822 0.0
C2205 C 0.62159 0.04423 0.65834 0.0
C2206 C 0.60304 0.01547 0.66233 0.0
C2207 C 0.59908 0.99975 0.67234 0.0
C2208 C 0.61182 0.9897 0.67549 0.0
C2209 C 0.60851 0.97564 0.68604 0.0
C2210 C 0.59244 0.97144 0.69338 0.0
C2211 C 0.5796 0.9812 0.69007 0.0
C2212 C 0.58285 0.99528 0.67954 0.0
C2213 C 0.57371 0.01781 0.5883 0.0
C2214 C 0.55986 0.02673 0.58807 0.0
C2215 C 0.58561 0.01979 0.60423 0.0
C2216 C 0.58342 0.03027 0.62009 0.0
C2217 C 0.5692 0.03852 0.62024 0.0
C2218 C 0.55763 0.03706 0.60416 0.0
C2219 C 0.59507 0.03098 0.63702 0.0
C2220 C 0.59164 0.01632 0.64672 0.0
C2221 C 0.6101 0.04512 0.64275 0.0
C2222 C 0.61402 0.06101 0.63304 0.0
C2223 C 0.6031 0.0732 0.63362 0.0
C2224 C 0.60745 0.08876 0.6254 0.0
C2225 C 0.62286 0.09241 0.61684 0.0
C2226 C 0.63385 0.08039 0.61631 0.0
C2227 C 0.62948 0.06475 0.6244 0.0
H2228 H 0.62624 0.10449 0.61055 0.0
H2229 H 0.58993 0.96061 0.70163 0.0
H2230 H 0.31935 0.35397 0.98324 0.0
H2231 H 0.31669 0.34234 0.95039 0.0
H2232 H 0.25954 0.33126 0.947 0.0
H2233 H 0.26218 0.34371 0.97979 0.0
H2234 H 0.27523 0.30163 0.93238 0.0
H2235 H 0.27466 0.36181 0.92617 0.0
H2236 H 0.28444 0.39452 0.93106 0.0
H2237 H 0.33384 0.39153 0.91108 0.0
H2238 H 0.32447 0.35875 0.90635 0.0
H2239 H 0.25584 0.2818 0.83304 0.0
H2240 H 0.25696 0.294 0.86555 0.0
H2241 H 0.31414 0.31065 0.87009 0.0
H2242 H 0.3129 0.29843 0.8376 0.0
H2243 H 0.2975 0.3376 0.88398 0.0
H2244 H 0.29825 0.2774 0.89069 0.0
H2245 H 0.2882 0.24472 0.88516 0.0
H2246 H 0.23827 0.24782 0.90386 0.0
H2247 H 0.24793 0.28058 0.90921 0.0
C2248 C 0.30621 0.3491 0.97548 0.0
C2249 C 0.29097 0.34965 0.98413 0.0
C2250 C 0.30471 0.34254 0.95668 0.0
C2251 C 0.28792 0.33592 0.94617 0.0
C2252 C 0.27264 0.33633 0.9548 0.0
C2253 C 0.27415 0.34344 0.97351 0.0
C2254 C 0.2865 0.32798 0.92644 0.0
C2255 C 0.27982 0.30956 0.92173 0.0
C2256 C 0.29293 0.33818 0.91259 0.0
C2257 C 0.29898 0.35782 0.9162 0.0
C2258 C 0.28774 0.36811 0.92313 0.0
C2259 C 0.29317 0.38667 0.92578 0.0
C2260 C 0.30978 0.3951 0.92146 0.0
C2261 C 0.32101 0.38498 0.91448 0.0
C2262 C 0.31564 0.36641 0.91182 0.0
C2263 C 0.26864 0.28792 0.84106 0.0
C2264 C 0.28435 0.28885 0.8329 0.0
C2265 C 0.26929 0.29484 0.85965 0.0
C2266 C 0.28565 0.30316 0.87038 0.0
C2267 C 0.30136 0.30421 0.86217 0.0
C2268 C 0.30071 0.297 0.84367 0.0
C2269 C 0.28628 0.31125 0.88994 0.0
C2270 C 0.29286 0.32969 0.89462 0.0
C2271 C 0.27976 0.30107 0.90376 0.0
C2272 C 0.27372 0.28144 0.90011 0.0
C2273 C 0.28503 0.27113 0.89338 0.0
C2274 C 0.27943 0.25259 0.89034 0.0
C2275 C 0.26258 0.2442 0.8941 0.0
C2276 C 0.2513 0.25434 0.90091 0.0
C2277 C 0.25683 0.27289 0.90395 0.0
H2278 H 0.25828 0.22984 0.89179 0.0
H2279 H 0.31394 0.40947 0.92346 0.0
H2280 H 0.93718 0.02898 0.3362 0.0
H2281 H 0.94905 0.03176 0.36897 0.0
H2282 H 0.99001 0.0055 0.35416 0.0
H2283 H 0.97784 1.00216 0.32158 0.0
H2284 H 0.97704 0.99199 0.38168 0.0
H2285 H 0.99629 0.05285 0.36937 0.0
H2286 H 0.99241 0.08151 0.36011 0.0
H2287 H 0.95909 0.08656 0.40261 0.0
H2288 H 0.9625 0.05779 0.4119 0.0
H2289 H 0.03215 0.01042 0.46941 0.0
H2290 H 0.02007 0.00836 0.43677 0.0
H2291 H 0.97888 0.03374 0.45275 0.0
H2292 H 0.99061 0.03554 0.48513 0.0
H2293 H 0.99161 0.04806 0.42502 0.0
H2294 H 0.96986 0.98858 0.43663 0.0
H2295 H 0.97094 0.95945 0.44649 0.0
H2296 H 1.00617 0.95159 0.40661 0.0
H2297 H 1.00526 0.98072 0.3965 0.0
C2298 C 0.94883 0.02396 0.33991 0.0
C2299 C 0.95655 0.01536 0.32616 0.0
C2300 C 0.95569 0.02562 0.35873 0.0
C2301 C 0.97065 0.01902 0.36425 0.0
C2302 C 0.97848 0.0107 0.35044 0.0
C2303 C 0.97152 0.00885 0.33172 0.0
C2304 C 0.9778 0.02001 0.38431 0.0
C2305 C 0.98049 1.00437 0.39101 0.0
C2306 C 0.98169 0.03592 0.39695 0.0
C2307 C 0.97949 0.05308 0.39117 0.0
C2308 C 0.98799 0.05999 0.37661 0.0
C2309 C 0.9859 0.07627 0.37138 0.0
C2310 C 0.97547 0.08582 0.38073 0.0
C2311 C 0.96712 0.07913 0.39534 0.0
C2312 C 0.96913 0.06284 0.40059 0.0
C2313 C 0.02042 0.01539 0.466 0.0
C2314 C 0.01251 0.02329 0.48005 0.0
C2315 C 0.01349 0.01422 0.44727 0.0
C2316 C 0.99847 0.02089 0.44212 0.0
C2317 C 0.99052 0.02861 0.45618 0.0
C2318 C 0.99734 0.02967 0.47481 0.0
C2319 C 0.99109 0.02011 0.4222 0.0
C2320 C 0.98827 0.03574 0.4156 0.0
C2321 C 0.98679 1.00417 0.40971 0.0
C2322 C 0.98765 0.98687 0.41596 0.0
C2323 C 0.97795 0.9807 0.43007 0.0
C2324 C 0.97847 0.96416 0.43565 0.0
C2325 C 0.98866 0.9537 0.42722 0.0
C2326 C 0.9983 0.95972 0.41314 0.0
C2327 C 0.99775 0.97622 0.40745 0.0
H2328 H 0.98908 0.9409 0.43158 0.0
H2329 H 0.97389 0.09844 0.37667 0.0
H2330 H 0.2861 0.63779 0.61446 0.0
H2331 H 0.28331 0.6578 0.64173 0.0
H2332 H 0.26225 0.69107 0.6058 0.0
H2333 H 0.26614 0.67197 0.57892 0.0
H2334 H 0.28733 0.71014 0.629 0.0
H2335 H 0.23573 0.66412 0.6329 0.0
H2336 H 0.21819 0.634 0.63512 0.0
H2337 H 0.25087 0.63266 0.68569 0.0
H2338 H 0.2687 0.66271 0.68368 0.0
H2339 H 0.25586 0.7601 0.7031 0.0
H2340 H 0.25452 0.73902 0.67537 0.0
H2341 H 0.29605 0.71849 0.70285 0.0
H2342 H 0.29825 0.73997 0.7301 0.0
H2343 H 0.25908 0.69342 0.68425 0.0
H2344 H 0.31177 0.73919 0.67767 0.0
H2345 H 0.32774 0.76983 0.67524 0.0
H2346 H 0.29033 0.77152 0.62841 0.0
H2347 H 0.27393 0.74096 0.63081 0.0
C2348 C 0.28112 0.64954 0.6126 0.0
C2349 C 0.27691 0.65385 0.59488 0.0
C2350 C 0.27923 0.66071 0.62803 0.0
C2351 C 0.27249 0.67579 0.62564 0.0
C2352 C 0.26763 0.67958 0.60785 0.0
C2353 C 0.27005 0.66882 0.59258 0.0
C2354 C 0.27213 0.68873 0.64147 0.0
C2355 C 0.28085 0.70647 0.64091 0.0
C2356 C 0.264 0.68384 0.65711 0.0
C2357 C 0.25366 0.66557 0.65802 0.0
C2358 C 0.2393 0.65731 0.64437 0.0
C2359 C 0.22926 0.64028 0.64563 0.0
C2360 C 0.23344 0.6314 0.66051 0.0
C2361 C 0.24766 0.63954 0.67416 0.0
C2362 C 0.25772 0.65657 0.67298 0.0
C2363 C 0.26488 0.75128 0.70306 0.0
C2364 C 0.27714 0.75157 0.71863 0.0
C2365 C 0.26401 0.73927 0.68739 0.0
C2366 C 0.27515 0.7274 0.68745 0.0
C2367 C 0.28738 0.72767 0.70287 0.0
C2368 C 0.2886 0.73991 0.71831 0.0
C2369 C 0.27407 0.71449 0.67142 0.0
C2370 C 0.26525 0.69688 0.67209 0.0
C2371 C 0.28187 0.71946 0.65575 0.0
C2372 C 0.29146 0.73795 0.65463 0.0
C2373 C 0.30678 0.7462 0.66706 0.0
C2374 C 0.31598 0.76351 0.66561 0.0
C2375 C 0.31003 0.77264 0.65171 0.0
C2376 C 0.29488 0.76446 0.63921 0.0
C2377 C 0.28563 0.74716 0.64061 0.0
H2378 H 0.31717 0.78604 0.65062 0.0
H2379 H 0.22563 0.61823 0.66148 0.0
H2380 H 0.64356 0.06123 0.82114 0.0
H2381 H 0.63277 0.061 0.85116 0.0
H2382 H 0.64182 0.00851 0.85434 0.0
H2383 H 0.65331 0.00891 0.82424 0.0
H2384 H 0.60494 0.0155 0.85619 0.0
H2385 H 0.66617 0.03701 0.88316 0.0
H2386 H 0.696 0.057 0.88606 0.0
H2387 H 0.67423 0.10203 0.90034 0.0
H2388 H 0.64421 0.08243 0.89703 0.0
H2389 H 0.56221 0.02803 0.93666 0.0
H2390 H 0.58257 0.01857 0.91649 0.0
H2391 H 0.60211 0.07309 0.90749 0.0
H2392 H 0.58227 0.08263 0.92802 0.0
H2393 H 0.62861 0.05784 0.91329 0.0
H2394 H 0.57156 0.04462 0.87785 0.0
H2395 H 0.53975 0.03117 0.86803 0.0
H2396 H 0.55057 0.9792 0.86175 0.0
H2397 H 0.58244 0.99231 0.87217 0.0
C2398 C 0.64339 0.0497 0.82832 0.0
C2399 C 0.64897 0.03497 0.82049 0.0
C2400 C 0.63746 0.04969 0.84548 0.0
C2401 C 0.63681 0.03484 0.85487 0.0
C2402 C 0.64257 0.02014 0.84724 0.0
C2403 C 0.64897 0.02034 0.83016 0.0
C2404 C 0.62784 0.03414 0.8714 0.0
C2405 C 0.61022 0.02422 0.86904 0.0
C2406 C 0.6347 0.04637 0.88749 0.0
C2407 C 0.65288 0.05818 0.88982 0.0
C2408 C 0.6677 0.05118 0.88679 0.0
C2409 C 0.68466 0.06246 0.8885 0.0
C2410 C 0.68701 0.08077 0.89339 0.0
C2411 C 0.67241 0.08784 0.89658 0.0
C2412 C 0.65541 0.07664 0.89479 0.0
C2413 C 0.57087 0.03794 0.93031 0.0
C2414 C 0.57061 0.05602 0.93361 0.0
C2415 C 0.58245 0.03254 0.91889 0.0
C2416 C 0.59376 0.04516 0.91058 0.0
C2417 C 0.5935 0.0632 0.91391 0.0
C2418 C 0.582 0.06859 0.92534 0.0
C2419 C 0.60544 0.03973 0.89775 0.0
C2420 C 0.6235 0.04849 0.90084 0.0
C2421 C 0.59865 0.0274 0.88166 0.0
C2422 C 0.57935 0.01941 0.87632 0.0
C2423 C 0.56713 0.03029 0.87482 0.0
C2424 C 0.54908 0.02273 0.86906 0.0
C2425 C 0.54311 1.00433 0.8644 0.0
C2426 C 0.55519 0.99344 0.86552 0.0
C2427 C 0.57324 1.00092 0.87144 0.0
H2428 H 0.52915 0.99851 0.85981 0.0
H2429 H 0.70016 0.08947 0.89471 0.0
H2430 H 0.25826 0.35988 0.09128 0.0
H2431 H 0.25454 0.3452 0.11906 0.0
H2432 H 0.30738 0.33595 0.11938 0.0
H2433 H 0.3103 0.3492 0.09067 0.0
H2434 H 0.28923 0.30916 0.12835 0.0
H2435 H 0.29261 0.37095 0.15099 0.0
H2436 H 0.2834 0.39943 0.15235 0.0
H2437 H 0.23109 0.37304 0.16195 0.0
H2438 H 0.23996 0.34441 0.16049 0.0
H2439 H 0.29944 0.28538 0.21869 0.0
H2440 H 0.30177 0.30005 0.1909 0.0
H2441 H 0.24882 0.3085 0.19273 0.0
H2442 H 0.24743 0.29547 0.22179 0.0
H2443 H 0.26599 0.33536 0.1824 0.0
H2444 H 0.26299 0.27347 0.15952 0.0
H2445 H 0.27278 0.24529 0.15865 0.0
H2446 H 0.32507 0.2725 0.14978 0.0
H2447 H 0.3156 0.30081 0.1507 0.0
C2448 C 0.26893 0.35445 0.0972 0.0
C2449 C 0.28445 0.3554 0.0887 0.0
C2450 C 0.26696 0.34632 0.11332 0.0
C2451 C 0.28083 0.33973 0.12185 0.0
C2452 C 0.29637 0.34078 0.11323 0.0
C2453 C 0.29806 0.34832 0.09675 0.0
C2454 C 0.2791 0.33118 0.13927 0.0
C2455 C 0.28437 0.31512 0.14022 0.0
C2456 C 0.27222 0.33839 0.15477 0.0
C2457 C 0.26689 0.35556 0.15544 0.0
C2458 C 0.27912 0.37123 0.15325 0.0
C2459 C 0.27396 0.38739 0.15407 0.0
C2460 C 0.25666 0.38804 0.15718 0.0
C2461 C 0.24448 0.37253 0.15951 0.0
C2462 C 0.24956 0.35634 0.15871 0.0
C2463 C 0.28829 0.29033 0.21306 0.0
C2464 C 0.27323 0.28924 0.2223 0.0
C2465 C 0.28951 0.29857 0.19699 0.0
C2466 C 0.27524 0.30498 0.18906 0.0
C2467 C 0.26007 0.3037 0.19833 0.0
C2468 C 0.2592 0.29617 0.21492 0.0
C2469 C 0.27629 0.31342 0.1715 0.0
C2470 C 0.27083 0.32942 0.1705 0.0
C2471 C 0.28306 0.30621 0.15594 0.0
C2472 C 0.28863 0.2892 0.1553 0.0
C2473 C 0.27658 0.27341 0.15745 0.0
C2474 C 0.28207 0.25743 0.15693 0.0
C2475 C 0.29954 0.25711 0.15419 0.0
C2476 C 0.31155 0.27276 0.1519 0.0
C2477 C 0.30612 0.28875 0.15238 0.0
H2478 H 0.30377 0.24473 0.15382 0.0
H2479 H 0.25269 0.40057 0.15781 0.0
H2480 H 0.23172 0.94732 0.9776 0.0
H2481 H 0.20318 0.95556 0.98099 0.0
H2482 H 0.21551 0.96092 0.04043 0.0
H2483 H 0.24392 0.95348 0.03715 0.0
H2484 H 0.17936 0.94215 0.02505 0.0
H2485 H 0.22594 0.99588 0.02586 0.0
H2486 H 0.25026 0.01365 0.01186 0.0
H2487 H 0.21379 0.01372 0.96366 0.0
H2488 H 0.18931 0.99561 0.97728 0.0
H2489 H 0.14703 1.00322 0.0799 0.0
H2490 H 0.1631 0.98452 0.06326 0.0
H2491 H 0.14368 1.00004 0.01158 0.0
H2492 H 0.12868 0.01991 0.02831 0.0
H2493 H 0.178 1.00397 0.01477 0.0
H2494 H 0.12923 0.95559 0.02274 0.0
H2495 H 0.108 0.93809 0.04048 0.0
H2496 H 0.15139 0.92915 0.07664 0.0
H2497 H 0.17286 0.94667 0.0592 0.0
C2498 C 0.22816 0.95029 0.99129 0.0
C2499 C 0.23987 0.95026 0.00714 0.0
C2500 C 0.21198 0.95477 0.99319 0.0
C2501 C 0.20744 0.95859 0.01093 0.0
C2502 C 0.21887 0.9578 0.02668 0.0
C2503 C 0.23512 0.95386 0.02479 0.0
C2504 C 0.19179 0.96543 0.01362 0.0
C2505 C 0.17871 0.95552 0.02253 0.0
C2506 C 0.19137 0.98287 0.01038 0.0
C2507 C 0.20588 0.99422 0.00244 0.0
C2508 C 0.22315 0.99958 0.01222 0.0
C2509 C 0.23695 0.00971 0.00436 0.0
C2510 C 0.23359 0.01475 0.98685 0.0
C2511 C 0.21639 0.00975 0.9772 0.0
C2512 C 0.20254 0.99955 0.98497 0.0
C2513 C 0.14625 1.00271 0.06501 0.0
C2514 C 0.13681 0.01318 0.05544 0.0
C2515 C 0.15511 0.99173 0.05547 0.0
C2516 C 0.15422 0.99064 0.03616 0.0
C2517 C 0.14431 1.0006 0.02648 0.0
C2518 C 0.13572 0.01186 0.03605 0.0
C2519 C 0.16533 0.98074 0.02644 0.0
C2520 C 0.17783 0.99022 0.01644 0.0
C2521 C 0.16549 0.96304 0.02919 0.0
C2522 C 0.15261 0.95242 0.03964 0.0
C2523 C 0.13422 0.94993 0.03451 0.0
C2524 C 0.12215 0.94 0.0445 0.0
C2525 C 0.12834 0.93251 0.05967 0.0
C2526 C 0.14661 0.93491 0.06487 0.0
C2527 C 0.15873 0.94479 0.05489 0.0
H2528 H 0.11897 0.92484 0.0674 0.0
H2529 H 0.24429 0.02258 0.98077 0.0
H2530 H 0.70701 0.65759 0.01155 0.0
H2531 H 0.67782 0.63879 0.01358 0.0
H2532 H 0.70212 0.59567 0.02534 0.0
H2533 H 0.73146 0.6144 0.02335 0.0
H2534 H 0.67213 0.58448 1.00023 0.0
H2535 H 0.68956 0.61986 0.05958 0.0
H2536 H 0.69956 0.64728 0.08179 0.0
H2537 H 0.65296 0.6647 0.06253 0.0
H2538 H 0.64283 0.63752 0.03997 0.0
H2539 H 0.60063 0.53552 0.04466 0.0
H2540 H 0.62961 0.5538 0.04067 0.0
H2541 H 0.60364 0.58792 0.0108 0.0
H2542 H 0.57461 0.56908 0.0135 0.0
H2543 H 0.63408 0.60347 0.04501 0.0
H2544 H 0.61744 0.5686 0.9848 0.0
H2545 H 0.60702 0.54066 0.96346 0.0
H2546 H 0.65234 0.52232 0.98491 0.0
H2547 H 0.66277 0.54998 0.00677 0.0
C2548 C 0.70617 0.64403 0.01434 0.0
C2549 C 0.72159 0.63749 0.01725 0.0
C2550 C 0.68946 0.63336 0.01566 0.0
C2551 C 0.68784 0.61592 0.01985 0.0
C2552 C 0.70311 0.60913 0.02216 0.0
C2553 C 0.71986 0.61984 0.02099 0.0
C2554 C 0.67019 0.60477 0.0218 0.0
C2555 C 0.66392 0.58856 0.01017 0.0
C2556 C 0.65933 0.61026 0.03454 0.0
C2557 C 0.66555 0.62674 0.04791 0.0
C2558 C 0.68155 0.62963 0.05992 0.0
C2559 C 0.68722 0.64511 0.07261 0.0
C2560 C 0.67693 0.65775 0.07353 0.0
C2561 C 0.66094 0.65492 0.06178 0.0
C2562 C 0.65523 0.63948 0.04903 0.0
C2563 C 0.60102 0.54657 0.03675 0.0
C2564 C 0.58524 0.55048 0.02894 0.0
C2565 C 0.6176 0.55712 0.03471 0.0
C2566 C 0.61866 0.57208 0.02536 0.0
C2567 C 0.60301 0.57633 0.01797 0.0
C2568 C 0.58646 0.5655 0.01949 0.0
C2569 C 0.63615 0.58336 0.02342 0.0
C2570 C 0.64236 0.5995 0.03508 0.0
C2571 C 0.64696 0.57786 0.01073 0.0
C2572 C 0.6407 0.56121 0.99767 0.0
C2573 C 0.62502 0.55848 0.9852 0.0
C2574 C 0.61915 0.54272 0.97296 0.0
C2575 C 0.62896 0.52968 0.9729 0.0
C2576 C 0.6447 0.5324 0.98504 0.0
C2577 C 0.65059 0.5481 0.99737 0.0
H2578 H 0.62441 0.51749 0.96339 0.0
H2579 H 0.68133 0.66971 0.08339 0.0
H2580 H 0.64515 0.46694 0.2906 0.0
H2581 H 0.65753 0.4406 0.28711 0.0
H2582 H 0.71066 0.47445 0.29741 0.0
H2583 H 0.69814 0.50067 0.29913 0.0
H2584 H 0.7098 0.45265 0.27027 0.0
H2585 H 0.68668 0.44388 0.32924 0.0
H2586 H 0.66313 0.43914 0.34958 0.0
H2587 H 0.63423 0.39286 0.31266 0.0
H2588 H 0.65748 0.39746 0.29203 0.0
H2589 H 0.76018 0.38938 0.27755 0.0
H2590 H 0.7451 0.41246 0.28806 0.0
H2591 H 0.69418 0.37655 0.26834 0.0
H2592 H 0.70932 0.35344 0.25806 0.0
H2593 H 0.69231 0.39763 0.29923 0.0
H2594 H 0.71337 0.40478 0.24114 0.0
H2595 H 0.73489 0.4082 0.21857 0.0
H2596 H 0.76542 0.45645 0.25121 0.0
H2597 H 0.74426 0.45314 0.27416 0.0
C2598 C 0.65946 0.46863 0.29242 0.0
C2599 C 0.67074 0.48574 0.29527 0.0
C2600 C 0.66657 0.45357 0.29054 0.0
C2601 C 0.68512 0.45538 0.29229 0.0
C2602 C 0.69632 0.47258 0.29593 0.0
C2603 C 0.68921 0.48759 0.29706 0.0
C2604 C 0.69305 0.4397 0.2889 0.0
C2605 C 0.70621 0.44083 0.27702 0.0
C2606 C 0.68771 0.4237 0.29669 0.0
C2607 C 0.67372 0.42112 0.30904 0.0
C2608 C 0.67523 0.43279 0.32542 0.0
C2609 C 0.66195 0.4301 0.337 0.0
C2610 C 0.64717 0.41574 0.33239 0.0
C2611 C 0.64565 0.404 0.3162 0.0
C2612 C 0.65888 0.40663 0.30458 0.0
C2613 C 0.74577 0.38624 0.27624 0.0
C2614 C 0.73582 0.36969 0.26729 0.0
C2615 C 0.73718 0.39946 0.28198 0.0
C2616 C 0.71854 0.39631 0.27862 0.0
C2617 C 0.70857 0.37926 0.27102 0.0
C2618 C 0.71717 0.36605 0.26528 0.0
C2619 C 0.7096 0.41117 0.28153 0.0
C2620 C 0.69608 0.40969 0.2929 0.0
C2621 C 0.7144 0.42678 0.27309 0.0
C2622 C 0.72735 0.42859 0.25949 0.0
C2623 C 0.72479 0.41601 0.24362 0.0
C2624 C 0.7369 0.41795 0.23073 0.0
C2625 C 0.75154 0.43251 0.23348 0.0
C2626 C 0.7541 0.44516 0.24912 0.0
C2627 C 0.74206 0.44325 0.26208 0.0
H2628 H 0.76087 0.43402 0.22345 0.0
H2629 H 0.63691 0.41368 0.34138 0.0
H2630 H 0.84387 0.42115 0.52727 0.0
H2631 H 0.87435 0.43869 0.53602 0.0
H2632 H 0.86452 0.47598 0.49879 0.0
H2633 H 0.83379 0.45867 0.49016 0.0
H2634 H 0.89497 0.46058 0.49521 0.0
H2635 H 0.86634 0.48967 0.54001 0.0
H2636 H 0.8482 0.49211 0.56537 0.0
H2637 H 0.88391 0.47101 0.60056 0.0
H2638 H 0.90208 0.46812 0.57526 0.0
H2639 H 0.9671 0.53556 0.52416 0.0
H2640 H 0.93653 0.51795 0.52034 0.0
H2641 H 0.95386 0.47707 0.54771 0.0
H2642 H 0.98461 0.49371 0.55004 0.0
H2643 H 0.92018 0.49302 0.55757 0.0
H2644 H 0.94875 0.46375 0.51239 0.0
H2645 H 0.96581 0.46008 0.48634 0.0
H2646 H 0.92914 0.48001 0.45127 0.0
H2647 H 0.91243 0.48486 0.47737 0.0
C2648 C 0.84829 0.43298 0.52081 0.0
C2649 C 0.83675 0.43858 0.50791 0.0
C2650 C 0.8655 0.44304 0.52602 0.0
C2651 C 0.87127 0.45857 0.51818 0.0
C2652 C 0.85995 0.46403 0.50502 0.0
C2653 C 0.84261 0.45414 0.50004 0.0
C2654 C 0.88964 0.4684 0.52268 0.0
C2655 C 0.90051 0.46791 0.50875 0.0
C2656 C 0.89662 0.47721 0.5406 0.0
C2657 C 0.8854 0.4784 0.55563 0.0
C2658 C 0.87016 0.48527 0.55304 0.0
C2659 C 0.85992 0.4868 0.56744 0.0
C2660 C 0.86485 0.48164 0.58454 0.0
C2661 C 0.88006 0.47494 0.58728 0.0
C2662 C 0.89033 0.47334 0.57291 0.0
C2663 C 0.96442 0.52293 0.5296 0.0
C2664 C 0.97821 0.51608 0.53771 0.0
C2665 C 0.94703 0.51295 0.52735 0.0
C2666 C 0.94334 0.49635 0.53365 0.0
C2667 C 0.95678 0.48995 0.54282 0.0
C2668 C 0.97425 0.49961 0.54445 0.0
C2669 C 0.92539 0.48545 0.52997 0.0
C2670 C 0.91463 0.48566 0.54406 0.0
C2671 C 0.91847 0.47632 0.51218 0.0
C2672 C 0.92952 0.475 0.49699 0.0
C2673 C 0.9446 0.46786 0.49931 0.0
C2674 C 0.95409 0.46536 0.48447 0.0
C2675 C 0.94839 0.46952 0.46713 0.0
C2676 C 0.93347 0.47668 0.46469 0.0
C2677 C 0.92408 0.47946 0.47954 0.0
H2678 H 0.95564 0.46734 0.4556 0.0
H2679 H 0.85693 0.4829 0.59569 0.0
H2680 H 0.32955 0.04602 0.29446 0.0
H2681 H 0.32101 0.07291 0.28674 0.0
H2682 H 0.37457 0.10359 0.30541 0.0
H2683 H 0.3833 0.07662 0.31339 0.0
H2684 H 0.34811 0.11931 0.31664 0.0
H2685 H 0.3636 0.0944 0.26041 0.0
H2686 H 0.3643 0.07073 0.23552 0.0
H2687 H 0.30757 0.06065 0.22199 0.0
H2688 H 0.30649 0.08412 0.24691 0.0
H2689 H 0.31368 0.18445 0.26641 0.0
H2690 H 0.33176 0.16712 0.28262 0.0
H2691 H 0.28889 0.12018 0.26791 0.0
H2692 H 0.27102 0.1373 0.25148 0.0
H2693 H 0.31897 0.11791 0.25287 0.0
H2694 H 0.30295 0.13314 0.31497 0.0
H2695 H 0.30164 0.14996 0.34509 0.0
H2696 H 0.3572 0.17508 0.34892 0.0
H2697 H 0.35885 0.15816 0.31899 0.0
C2698 C 0.33943 0.05853 0.29723 0.0
C2699 C 0.35708 0.05934 0.30435 0.0
C2700 C 0.33461 0.07377 0.29262 0.0
C2701 C 0.34741 0.08988 0.29494 0.0
C2702 C 0.36472 0.09105 0.30327 0.0
C2703 C 0.36958 0.07576 0.30798 0.0
C2704 C 0.34226 0.10549 0.28895 0.0
C2705 C 0.34218 0.1194 0.30258 0.0
C2706 C 0.33444 0.10518 0.27064 0.0
C2707 C 0.33499 0.09103 0.25557 0.0
C2708 C 0.35126 0.08708 0.25219 0.0
C2709 C 0.35173 0.0737 0.23806 0.0
C2710 C 0.33599 0.0642 0.22718 0.0
C2711 C 0.31976 0.06805 0.2304 0.0
C2712 C 0.31922 0.08142 0.2445 0.0
C2713 C 0.30803 0.17053 0.26711 0.0
C2714 C 0.29124 0.16193 0.25743 0.0
C2715 C 0.31827 0.16075 0.27647 0.0
C2716 C 0.3116 0.14247 0.27627 0.0
C2717 C 0.29418 0.13433 0.26809 0.0
C2718 C 0.28409 0.144 0.2586 0.0
C2719 C 0.32358 0.13107 0.28097 0.0
C2720 C 0.32532 0.11818 0.26684 0.0
C2721 C 0.33269 0.13217 0.29885 0.0
C2722 C 0.33092 0.14472 0.31465 0.0
C2723 C 0.31476 0.14258 0.32205 0.0
C2724 C 0.31404 0.15186 0.33924 0.0
C2725 C 0.32938 0.16344 0.34899 0.0
C2726 C 0.34537 0.16605 0.3414 0.0
C2727 C 0.3462 0.15663 0.32435 0.0
H2728 H 0.32882 0.17052 0.36235 0.0
H2729 H 0.33638 0.05385 0.21625 0.0
H2730 H 0.32394 0.13487 0.55462 0.0
H2731 H 0.35098 0.1236 0.55599 0.0
H2732 H 0.35018 0.12308 0.49705 0.0
H2733 H 0.3233 0.13503 0.49566 0.0
H2734 H 0.3531 0.08969 0.51327 0.0
H2735 H 0.38083 0.152 0.51926 0.0
H2736 H 0.38677 0.18362 0.53222 0.0
H2737 H 0.40292 0.17073 0.58595 0.0
H2738 H 0.39681 0.13899 0.57336 0.0
H2739 H 0.4302 0.05508 0.52574 0.0
H2740 H 0.41069 0.07345 0.51392 0.0
H2741 H 0.41304 0.09962 0.56938 0.0
H2742 H 0.43317 0.08215 0.58088 0.0
H2743 H 0.41115 0.12229 0.54846 0.0
H2744 H 0.37825 0.06131 0.54632 0.0
H2745 H 0.37017 0.02893 0.53637 0.0
H2746 H 0.36128 0.03793 0.47971 0.0
H2747 H 0.36956 0.07038 0.48932 0.0
C2748 C 0.32955 0.13243 0.54194 0.0
C2749 C 0.3215 0.13576 0.52501 0.0
C2750 C 0.34504 0.1261 0.54278 0.0
C2751 C 0.35261 0.12265 0.52664 0.0
C2752 C 0.34458 0.12582 0.50965 0.0
C2753 C 0.32927 0.13261 0.50888 0.0
C2754 C 0.36834 0.11481 0.52766 0.0
C2755 C 0.36596 0.09688 0.52058 0.0
C2756 C 0.38487 0.12409 0.53769 0.0
C2757 C 0.38821 0.14311 0.54538 0.0
C2758 C 0.38545 0.15588 0.53387 0.0
C2759 C 0.3889 0.17383 0.54115 0.0
C2760 C 0.39518 0.17918 0.55991 0.0
C2761 C 0.39803 0.16658 0.57143 0.0
C2762 C 0.39459 0.14861 0.56423 0.0
C2763 C 0.42685 0.06507 0.53527 0.0
C2764 C 0.43282 0.0669 0.5543 0.0
C2765 C 0.41552 0.07542 0.52856 0.0
C2766 C 0.40985 0.08756 0.54082 0.0
C2767 C 0.41696 0.09024 0.55959 0.0
C2768 C 0.42837 0.08011 0.56622 0.0
C2769 C 0.39581 0.09683 0.53469 0.0
C2770 C 0.39846 0.11508 0.5408 0.0
C2771 C 0.3793 0.08767 0.52429 0.0
C2772 C 0.3748 0.06822 0.5185 0.0
C2773 C 0.37477 0.05636 0.53172 0.0
C2774 C 0.37011 0.03801 0.52615 0.0
C2775 C 0.36529 0.03137 0.50741 0.0
C2776 C 0.36509 0.04308 0.49421 0.0
C2777 C 0.36978 0.06145 0.4997 0.0
H2778 H 0.36164 0.01716 0.50313 0.0
H2779 H 0.39788 0.19309 0.5655 0.0
H2780 H 0.69067 0.57432 0.28946 0.0
H2781 H 0.70767 0.60415 0.28706 0.0
H2782 H 0.67198 0.62675 0.3182 0.0
H2783 H 0.65443 0.59683 0.32002 0.0
H2784 H 0.67813 0.64411 0.29027 0.0
H2785 H 0.71571 0.62678 0.33729 0.0
H2786 H 0.73234 0.60662 0.35095 0.0
H2787 H 0.76469 0.60972 0.30679 0.0
H2788 H 0.7481 0.62975 0.29277 0.0
H2789 H 0.73356 0.73181 0.30769 0.0
H2790 H 0.71601 0.70221 0.31026 0.0
H2791 H 0.74839 0.67871 0.27538 0.0
H2792 H 0.76603 0.70837 0.27264 0.0
H2793 H 0.74382 0.66214 0.30567 0.0
H2794 H 0.70366 0.6773 0.2575 0.0
H2795 H 0.6848 0.69525 0.24308 0.0
H2796 H 0.65759 0.69691 0.29104 0.0
H2797 H 0.67579 0.67838 0.30542 0.0
C2798 C 0.68656 0.58561 0.29606 0.0
C2799 C 0.67125 0.58315 0.30508 0.0
C2800 C 0.69633 0.60271 0.29468 0.0
C2801 C 0.69131 0.61778 0.30268 0.0
C2802 C 0.67617 0.61536 0.31193 0.0
C2803 C 0.66621 0.59824 0.31307 0.0
C2804 C 0.70158 0.63601 0.30094 0.0
C2805 C 0.69247 0.64811 0.29394 0.0
C2806 C 0.72033 0.64125 0.30531 0.0
C2807 C 0.73062 0.62964 0.31394 0.0
C2808 C 0.72634 0.62311 0.33048 0.0
C2809 C 0.73575 0.61171 0.33828 0.0
C2810 C 0.74954 0.60686 0.32972 0.0
C2811 C 0.75401 0.61348 0.3134 0.0
C2812 C 0.74463 0.62488 0.30554 0.0
C2813 C 0.73698 0.72037 0.30052 0.0
C2814 C 0.75136 0.7225 0.29009 0.0
C2815 C 0.72681 0.70343 0.30189 0.0
C2816 C 0.73073 0.68821 0.29285 0.0
C2817 C 0.74509 0.69026 0.28247 0.0
C2818 C 0.75524 0.70723 0.281 0.0
C2819 C 0.72037 0.67016 0.29494 0.0
C2820 C 0.72948 0.65812 0.30205 0.0
C2821 C 0.70161 0.66504 0.29086 0.0
C2822 C 0.69119 0.6767 0.28259 0.0
C2823 C 0.69375 0.68165 0.26501 0.0
C2824 C 0.68315 0.69186 0.25683 0.0
C2825 C 0.67022 0.69747 0.26626 0.0
C2826 C 0.66768 0.69266 0.28379 0.0
C2827 C 0.67802 0.68218 0.2919 0.0
H2828 H 0.66208 0.70543 0.25991 0.0
H2829 H 0.75679 0.598 0.33576 0.0
H2830 H 0.87067 0.46428 0.83944 0.0
H2831 H 0.85878 0.43224 0.83004 0.0
H2832 H 0.83587 0.44304 0.77733 0.0
H2833 H 0.84647 0.47488 0.78736 0.0
H2834 H 0.81321 0.42052 0.79024 0.0
H2835 H 0.87579 0.42617 0.78345 0.0
H2836 H 0.90809 0.43424 0.79399 0.0
H2837 H 0.90039 0.40093 0.83706 0.0
H2838 H 0.86806 0.39276 0.82683 0.0
H2839 H 0.78524 0.32878 0.75736 0.0
H2840 H 0.80194 0.35974 0.75818 0.0
H2841 H 0.82692 0.35848 0.81342 0.0
H2842 H 0.81126 0.32751 0.81202 0.0
H2843 H 0.84991 0.37602 0.79453 0.0
H2844 H 0.78887 0.3737 0.80566 0.0
H2845 H 0.75618 0.36605 0.79806 0.0
H2846 H 0.76059 0.39364 0.75033 0.0
H2847 H 0.79332 0.40125 0.75754 0.0
C2848 C 0.86272 0.45962 0.82608 0.0
C2849 C 0.85891 0.47163 0.81423 0.0
C2850 C 0.85629 0.44147 0.82056 0.0
C2851 C 0.8468 0.43539 0.80286 0.0
C2852 C 0.84315 0.44755 0.79105 0.0
C2853 C 0.84899 0.46562 0.79681 0.0
C2854 C 0.83958 0.4164 0.79693 0.0
C2855 C 0.82132 0.41081 0.79077 0.0
C2856 C 0.85013 0.40383 0.79816 0.0
C2857 C 0.86953 0.40893 0.80441 0.0
C2858 C 0.88099 0.42066 0.79522 0.0
C2859 C 0.8993 0.42523 0.80113 0.0
C2860 C 0.90628 0.41812 0.81619 0.0
C2861 C 0.89497 0.40642 0.82539 0.0
C2862 C 0.87667 0.40179 0.81952 0.0
C2863 C 0.7949 0.33505 0.76923 0.0
C2864 C 0.79759 0.32604 0.78441 0.0
C2865 C 0.80418 0.35264 0.76982 0.0
C2866 C 0.81556 0.36122 0.78587 0.0
C2867 C 0.8184 0.35193 0.80083 0.0
C2868 C 0.8095 0.33437 0.80005 0.0
C2869 C 0.8236 0.38025 0.78801 0.0
C2870 C 0.84196 0.38583 0.79352 0.0
C2871 C 0.81311 0.39284 0.78654 0.0
C2872 C 0.7935 0.38779 0.78196 0.0
C2873 C 0.78286 0.37794 0.79342 0.0
C2874 C 0.76433 0.37366 0.78922 0.0
C2875 C 0.75632 0.3793 0.77368 0.0
C2876 C 0.76681 0.38923 0.76232 0.0
C2877 C 0.78534 0.39352 0.76645 0.0
H2878 H 0.74197 0.37602 0.77048 0.0
H2879 H 0.92046 0.42165 0.82073 0.0
H2880 H 0.07965 0.85412 0.0928 0.0
H2881 H 0.07631 0.8836 0.08577 0.0
H2882 H 0.01949 0.86603 0.08312 0.0
H2883 H 0.02285 0.8368 0.09111 0.0
H2884 H 0.03246 0.88471 0.05141 0.0
H2885 H 0.03876 0.89308 0.11796 0.0
H2886 H 0.05294 0.89459 0.14995 0.0
H2887 H 0.09823 0.93321 0.13917 0.0
H2888 H 0.08448 0.93168 0.10699 0.0
H2889 H 0.01075 0.96699 0.03755 0.0
H2890 H 0.01296 0.93868 0.04733 0.0
H2891 H 0.06516 0.9631 0.07659 0.0
H2892 H 0.06176 0.99207 0.06854 0.0
H2893 H 0.05461 0.94027 0.09505 0.0
H2894 H 0.05147 0.93158 0.02912 0.0
H2895 H 0.03884 0.93163 0.99683 0.0
H2896 H 0.99122 0.89455 0.00479 0.0
H2897 H 1.00347 0.89448 0.03721 0.0
C2898 C 0.0664 0.85645 0.09075 0.0
C2899 C 0.05154 0.84273 0.0925 0.0
C2900 C 0.0645 0.8735 0.08678 0.0
C2901 C 0.04761 0.87743 0.08381 0.0
C2902 C 0.03273 0.86367 0.0853 0.0
C2903 C 0.03467 0.84681 0.0899 0.0
C2904 C 0.04546 0.89558 0.07877 0.0
C2905 C 0.03718 0.89681 0.06107 0.0
C2906 C 0.05206 0.91179 0.0909 0.0
C2907 C 0.06071 0.91203 0.10995 0.0
C2908 C 0.05189 0.90165 0.12229 0.0
C2909 C 0.05981 0.90258 0.1405 0.0
C2910 C 0.0765 0.91393 0.14657 0.0
C2911 C 0.08533 0.92436 0.13443 0.0
C2912 C 0.07748 0.92346 0.11621 0.0
C2913 C 0.02256 0.96658 0.0463 0.0
C2914 C 0.03585 0.98231 0.05223 0.0
C2915 C 0.02411 0.94995 0.05166 0.0
C2916 C 0.03959 0.9479 0.06237 0.0
C2917 C 0.05297 0.96368 0.06833 0.0
C2918 C 0.05106 0.98048 0.06356 0.0
C2919 C 0.04174 0.92963 0.06746 0.0
C2920 C 0.05001 0.92829 0.0852 0.0
C2921 C 0.0356 0.91336 0.05517 0.0
C2922 C 0.02833 0.91315 0.03562 0.0
C2923 C 0.03828 0.92349 0.02399 0.0
C2924 C 0.03118 0.92353 0.00568 0.0
C2925 C 0.01422 0.91314 0.99878 0.0
C2926 C 1.00434 0.90262 0.01017 0.0
C2927 C 0.01136 0.90257 0.0285 0.0
H2928 H 0.00874 0.9132 0.98461 0.0
H2929 H 0.08257 0.91469 0.16069 0.0
H2930 H 0.94806 0.28222 0.9256 0.0
H2931 H 0.92148 0.2846 0.90607 0.0
H2932 H 0.93164 0.24696 0.86339 0.0
H2933 H 0.95888 0.24542 0.88253 0.0
H2934 H 0.9199 0.26833 0.84629 0.0
H2935 H 0.89593 0.23878 0.89537 0.0
H2936 H 0.89124 0.23388 0.92737 0.0
H2937 H 0.87423 0.28275 0.93544 0.0
H2938 H 0.87902 0.28805 0.90356 0.0
H2939 H 0.83259 0.25413 0.7946 0.0
H2940 H 0.85918 0.25056 0.81379 0.0
H2941 H 0.85568 0.29444 0.85322 0.0
H2942 H 0.82955 0.29824 0.8338 0.0
H2943 H 0.8633 0.26884 0.8716 0.0
H2944 H 0.88728 0.2974 0.82142 0.0
H2945 H 0.89013 0.30022 0.78861 0.0
H2946 H 0.90561 0.25044 0.78206 0.0
H2947 H 0.9026 0.2472 0.81478 0.0
C2948 C 0.94465 0.27437 0.91208 0.0
C2949 C 0.9558 0.26354 0.90585 0.0
C2950 C 0.92918 0.27561 0.90085 0.0
C2951 C 0.92386 0.26565 0.88311 0.0
C2952 C 0.93507 0.25485 0.87688 0.0
C2953 C 0.95076 0.2539 0.88797 0.0
C2954 C 0.90704 0.26676 0.87095 0.0
C2955 C 0.90752 0.26813 0.85193 0.0
C2956 C 0.89059 0.26688 0.87787 0.0
C2957 C 0.88801 0.26389 0.89714 0.0
C2958 C 0.89134 0.24856 0.90403 0.0
C2959 C 0.88863 0.2457 0.92213 0.0
C2960 C 0.88248 0.25802 0.93345 0.0
C2961 C 0.87902 0.27323 0.92667 0.0
C2962 C 0.88172 0.27616 0.90859 0.0
C2963 C 0.8375 0.263 0.80738 0.0
C2964 C 0.82846 0.27611 0.8129 0.0
C2965 C 0.85281 0.26099 0.81839 0.0
C2966 C 0.85973 0.27221 0.83519 0.0
C2967 C 0.85071 0.28539 0.84057 0.0
C2968 C 0.83549 0.28742 0.82953 0.0
C2969 C 0.87629 0.27039 0.84713 0.0
C2970 C 0.87573 0.26895 0.86606 0.0
C2971 C 0.89255 0.26994 0.84009 0.0
C2972 C 0.89458 0.27199 0.8205 0.0
C2973 C 0.8912 0.28701 0.81295 0.0
C2974 C 0.89284 0.28868 0.79437 0.0
C2975 C 0.898 0.2755 0.78325 0.0
C2976 C 0.90159 0.26063 0.79069 0.0
C2977 C 0.89993 0.25887 0.80925 0.0
H2978 H 0.89926 0.27682 0.76886 0.0
H2979 H 0.88036 0.25576 0.94745 0.0
H2980 H 0.53186 0.22355 0.61346 0.0
H2981 H 0.53101 0.19239 0.6046 0.0
H2982 H 0.5693 0.2069 0.56712 0.0
H2983 H 0.57004 0.23864 0.57591 0.0
H2984 H 0.54626 0.17748 0.55151 0.0
H2985 H 0.57915 0.1926 0.61257 0.0
H2986 H 0.58502 0.20358 0.64595 0.0
H2987 H 0.53908 0.16501 0.65537 0.0
H2988 H 0.53279 0.15397 0.62202 0.0
H2989 H 0.56121 0.08942 0.53806 0.0
H2990 H 0.5646 0.12144 0.54603 0.0
H2991 H 0.52808 0.11134 0.58616 0.0
H2992 H 0.5253 0.07936 0.5788 0.0
H2993 H 0.5519 0.1389 0.60047 0.0
H2994 H 0.51747 0.12458 0.54096 0.0
H2995 H 0.51004 0.11274 0.50785 0.0
H2996 H 0.5565 0.14896 0.49578 0.0
H2997 H 0.56435 0.16083 0.52888 0.0
C2998 C 0.54009 0.22032 0.60317 0.0
C2999 C 0.55103 0.23407 0.59548 0.0
C3000 C 0.53972 0.20222 0.59823 0.0
C3001 C 0.55045 0.1968 0.58547 0.0
C3002 C 0.56093 0.21039 0.57714 0.0
C3003 C 0.56129 0.2287 0.5821 0.0
C3004 C 0.55044 0.1771 0.58091 0.0
C3005 C 0.54785 0.16921 0.5623 0.0
C3006 C 0.55185 0.16567 0.59474 0.0
C3007 C 0.55541 0.17258 0.61475 0.0
C3008 C 0.5702 0.18658 0.62173 0.0
C3009 C 0.57362 0.19279 0.64066 0.0
C3010 C 0.56241 0.18502 0.65277 0.0
C3011 C 0.54774 0.17103 0.64598 0.0
C3012 C 0.54424 0.1648 0.62707 0.0
C3013 C 0.55414 0.09391 0.54885 0.0
C3014 C 0.54314 0.08139 0.55785 0.0
C3015 C 0.55586 0.11245 0.55324 0.0
C3016 C 0.54641 0.11931 0.56662 0.0
C3017 C 0.53561 0.10681 0.57579 0.0
C3018 C 0.53397 0.0883 0.57148 0.0
C3019 C 0.54766 0.13929 0.57108 0.0
C3020 C 0.55043 0.1472 0.58967 0.0
C3021 C 0.54616 0.15067 0.55727 0.0
C3022 C 0.5416 0.14345 0.53741 0.0
C3023 C 0.52619 0.1299 0.53126 0.0
C3024 C 0.52189 0.12321 0.5125 0.0
C3025 C 0.53282 0.13006 0.49972 0.0
C3026 C 0.54807 0.14363 0.50569 0.0
C3027 C 0.55245 0.15035 0.52445 0.0
H3028 H 0.52945 0.12488 0.48519 0.0
H3029 H 0.5651 0.18982 0.66742 0.0
H3030 H 0.56802 0.7753 0.43389 0.0
H3031 H 0.59393 0.77604 0.41744 0.0
H3032 H 0.55936 0.75725 0.36603 0.0
H3033 H 0.53322 0.75692 0.38243 0.0
H3034 H 0.58793 0.73911 0.3721 0.0
H3035 H 0.57982 0.79861 0.37294 0.0
H3036 H 0.57639 0.82776 0.38674 0.0
H3037 H 0.62712 0.83663 0.42011 0.0
H3038 H 0.63071 0.80737 0.40673 0.0
H3039 H 0.65384 0.76092 0.31016 0.0
H3040 H 0.62817 0.75421 0.32729 0.0
H3041 H 0.66076 0.7828 0.37712 0.0
H3042 H 0.68628 0.78954 0.35993 0.0
H3043 H 0.6327 0.7954 0.3718 0.0
H3044 H 0.6418 0.73731 0.37245 0.0
H3045 H 0.64598 0.70775 0.36104 0.0
H3046 H 0.59494 0.69557 0.3277 0.0
H3047 H 0.59059 0.7252 0.33868 0.0
C3048 C 0.56586 0.77125 0.41908 0.0
C3049 C 0.54844 0.76598 0.40953 0.0
C3050 C 0.58075 0.77177 0.40966 0.0
C3051 C 0.5787 0.76675 0.39045 0.0
C3052 C 0.56134 0.7612 0.38085 0.0
C3053 C 0.54638 0.76106 0.39024 0.0
C3054 C 0.59472 0.76735 0.38051 0.0
C3055 C 0.59758 0.75146 0.37175 0.0
C3056 C 0.60774 0.78332 0.38062 0.0
C3057 C 0.60542 0.8007 0.38901 0.0
C3058 C 0.59013 0.80667 0.3834 0.0
C3059 C 0.58819 0.82324 0.39111 0.0
C3060 C 0.6015 0.83402 0.40434 0.0
C3061 C 0.6168 0.82825 0.4099 0.0
C3062 C 0.61879 0.81167 0.40226 0.0
C3063 C 0.65573 0.76495 0.32497 0.0
C3064 C 0.67225 0.77536 0.33377 0.0
C3065 C 0.64096 0.76128 0.33477 0.0
C3066 C 0.64234 0.76804 0.3536 0.0
C3067 C 0.65919 0.77743 0.36264 0.0
C3068 C 0.67391 0.78103 0.35287 0.0
C3069 C 0.62607 0.76711 0.36333 0.0
C3070 C 0.62311 0.78299 0.37207 0.0
C3071 C 0.61313 0.75108 0.36343 0.0
C3072 C 0.61599 0.73358 0.35617 0.0
C3073 C 0.63159 0.72844 0.36246 0.0
C3074 C 0.63396 0.71164 0.35613 0.0
C3075 C 0.62077 0.69981 0.3436 0.0
C3076 C 0.60518 0.70477 0.33736 0.0
C3077 C 0.60276 0.72157 0.34362 0.0
H3078 H 0.6226 0.68678 0.33877 0.0
H3079 H 0.59999 0.84686 0.41026 0.0
H3080 H 0.0618 0.24995 0.39489 0.0
H3081 H 0.06153 0.22436 0.41174 0.0
H3082 H 0.01704 0.23525 0.4378 0.0
H3083 H 0.01842 0.26169 0.42219 0.0
H3084 H 0.03514 0.2253 0.4617 0.0
H3085 H 0.01684 0.19847 0.39732 0.0
H3086 H 0.02053 0.19317 0.36431 0.0
H3087 H 0.06902 0.17709 0.37904 0.0
H3088 H 0.06566 0.18241 0.41212 0.0
H3089 H 0.99873 0.14041 0.48677 0.0
H3090 H 1.00613 0.16833 0.4736 0.0
H3091 H 0.05465 0.15577 0.45881 0.0
H3092 H 0.04707 0.12757 0.47199 0.0
H3093 H 0.03808 0.16662 0.43021 0.0
H3094 H 0.05526 0.19125 0.49386 0.0
H3095 H 0.05212 0.19661 0.52699 0.0
H3096 H 1.00575 0.2166 0.51337 0.0
H3097 H 0.00857 0.21127 0.48017 0.0
C3098 C 0.05208 0.24695 0.40437 0.0
C3099 C 0.0402 0.25797 0.40724 0.0
C3100 C 0.05172 0.23207 0.41385 0.0
C3101 C 0.03892 0.22726 0.42585 0.0
C3102 C 0.02712 0.23842 0.42874 0.0
C3103 C 0.0279 0.25363 0.41977 0.0
C3104 C 0.03788 0.211 0.43575 0.0
C3105 C 0.0355 0.21246 0.45458 0.0
C3106 C 0.0391 0.19414 0.42703 0.0
C3107 C 0.04107 0.19099 0.40716 0.0
C3108 C 0.02832 0.19389 0.3935 0.0
C3109 C 0.03035 0.19086 0.37479 0.0
C3110 C 0.04502 0.18484 0.36959 0.0
C3111 C 0.05767 0.18178 0.38308 0.0
C3112 C 0.0557 0.18477 0.4018 0.0
C3113 C 0.0112 0.14382 0.48112 0.0
C3114 C 0.02243 0.13189 0.48066 0.0
C3115 C 0.01545 0.15983 0.47356 0.0
C3116 C 0.03107 0.16443 0.46525 0.0
C3117 C 0.04255 0.15268 0.46516 0.0
C3118 C 0.03833 0.13664 0.47288 0.0
C3119 C 0.03474 0.18094 0.45584 0.0
C3120 C 0.03769 0.17951 0.43719 0.0
C3121 C 0.03397 0.19782 0.46465 0.0
C3122 C 0.03207 0.20076 0.48456 0.0
C3123 C 0.04433 0.19667 0.49794 0.0
C3124 C 0.04263 0.19974 0.51673 0.0
C3125 C 0.02873 0.20691 0.52228 0.0
C3126 C 0.01651 0.21105 0.50906 0.0
C3127 C 0.01818 0.20804 0.49026 0.0
H3128 H 0.02745 0.2093 0.53683 0.0
H3129 H 0.04657 0.18251 0.3551 0.0
H3130 H 0.58169 0.2625 0.19434 0.0
H3131 H 0.61273 0.26379 0.20399 0.0
H3132 H 0.59961 0.24501 0.25517 0.0
H3133 H 0.5678 0.2436 0.24542 0.0
H3134 H 0.63072 0.27151 0.26127 0.0
H3135 H 0.6102 0.2177 0.21844 0.0
H3136 H 0.59614 0.19925 0.189 0.0
H3137 H 0.63382 0.2309 0.15981 0.0
H3138 H 0.64794 0.24972 0.18903 0.0
H3139 H 0.71692 0.25334 0.28394 0.0
H3140 H 0.68485 0.25045 0.27624 0.0
H3141 H 0.69367 0.26973 0.22422 0.0
H3142 H 0.72581 0.27283 0.23194 0.0
H3143 H 0.66451 0.24186 0.2192 0.0
H3144 H 0.68405 0.29617 0.2585 0.0
H3145 H 0.69875 0.31719 0.28607 0.0
H3146 H 0.6639 0.28789 0.3197 0.0
H3147 H 0.64917 0.26647 0.29233 0.0
C3148 C 0.58512 0.25864 0.20777 0.0
C3149 C 0.57172 0.25292 0.219 0.0
C3150 C 0.60318 0.25929 0.21324 0.0
C3151 C 0.60894 0.25422 0.23026 0.0
C3152 C 0.59577 0.24892 0.24188 0.0
C3153 C 0.57745 0.24812 0.23629 0.0
C3154 C 0.62859 0.25462 0.23556 0.0
C3155 C 0.63793 0.26464 0.25221 0.0
C3156 C 0.63863 0.24643 0.22355 0.0
C3157 C 0.63003 0.23522 0.20593 0.0
C3158 C 0.61539 0.22083 0.20573 0.0
C3159 C 0.60743 0.21028 0.18908 0.0
C3160 C 0.61406 0.21392 0.17254 0.0
C3161 C 0.62868 0.22811 0.17262 0.0
C3162 C 0.63667 0.23871 0.18923 0.0
C3163 C 0.71212 0.2569 0.27079 0.0
C3164 C 0.72427 0.26335 0.25863 0.0
C3165 C 0.69362 0.25533 0.26641 0.0
C3166 C 0.68646 0.25995 0.2496 0.0
C3167 C 0.69855 0.26603 0.23728 0.0
C3168 C 0.71709 0.26788 0.24178 0.0
C3169 C 0.66655 0.25857 0.24497 0.0
C3170 C 0.65723 0.24849 0.22839 0.0
C3171 C 0.65663 0.267 0.25683 0.0
C3172 C 0.66566 0.27956 0.27341 0.0
C3173 C 0.67967 0.29406 0.27182 0.0
C3174 C 0.68798 0.30608 0.2874 0.0
C3175 C 0.68231 0.30384 0.30465 0.0
C3176 C 0.66831 0.28957 0.30634 0.0
C3177 C 0.65998 0.27748 0.29079 0.0
H3178 H 0.68872 0.3132 0.31669 0.0
H3179 H 0.60789 0.20572 0.15967 0.0
H3180 H 0.55613 0.86802 0.89396 0.0
H3181 H 0.55518 0.89521 0.91397 0.0
H3182 H 0.52479 0.86334 0.94949 0.0
H3183 H 0.52648 0.83612 0.93004 0.0
H3184 H 0.51068 0.8938 0.93837 0.0
H3185 H 0.56406 0.88056 0.96579 0.0
H3186 H 0.59392 0.87443 0.9672 0.0
H3187 H 0.61449 0.92493 0.94923 0.0
H3188 H 0.58464 0.9312 0.94735 0.0
H3189 H 0.51444 0.95983 0.01559 0.0
H3190 H 0.51596 0.93317 0.99547 0.0
H3191 H 0.55436 0.96508 0.96691 0.0
H3192 H 0.55275 0.99192 0.98696 0.0
H3193 H 0.56451 0.93473 0.97412 0.0
H3194 H 0.51243 0.94801 0.94494 0.0
H3195 H 0.48271 0.95451 0.94105 0.0
H3196 H 0.4602 0.90554 0.96091 0.0
H3197 H 0.48976 0.8986 0.96467 0.0
C3198 C 0.54929 0.86679 0.90607 0.0
C3199 C 0.54141 0.84979 0.91034 0.0
C3200 C 0.54879 0.88239 0.91756 0.0
C3201 C 0.53992 0.8815 0.93338 0.0
C3202 C 0.53177 0.86453 0.93747 0.0
C3203 C 0.53278 0.84892 0.92633 0.0
C3204 C 0.53898 0.8982 0.94547 0.0
C3205 C 0.52245 0.90258 0.94639 0.0
C3206 C 0.55429 0.91017 0.95558 0.0
C3207 C 0.57207 0.9062 0.95611 0.0
C3208 C 0.57489 0.89022 0.96183 0.0
C3209 C 0.59183 0.88676 0.96279 0.0
C3210 C 0.60608 0.89924 0.95822 0.0
C3211 C 0.60343 0.91523 0.95269 0.0
C3212 C 0.5865 0.91874 0.95166 0.0
C3213 C 0.52335 0.96124 0.00515 0.0
C3214 C 0.53362 0.97818 0.00316 0.0
C3215 C 0.52407 0.9459 0.99345 0.0
C3216 C 0.53521 0.94689 0.97943 0.0
C3217 C 0.54563 0.96377 0.97753 0.0
C3218 C 0.5447 0.97918 0.98905 0.0
C3219 C 0.53619 0.93034 0.96708 0.0
C3220 C 0.55272 0.92597 0.96611 0.0
C3221 C 0.52091 0.91848 0.95675 0.0
C3222 C 0.50332 0.92293 0.95536 0.0
C3223 C 0.50118 0.93875 0.94872 0.0
C3224 C 0.48436 0.94249 0.94648 0.0
C3225 C 0.46962 0.93057 0.95096 0.0
C3226 C 0.47164 0.91481 0.95755 0.0
C3227 C 0.48841 0.91093 0.95967 0.0
H3228 H 0.45662 0.9335 0.94919 0.0
H3229 H 0.6192 0.89656 0.95904 0.0
H3230 H 0.95503 0.72886 0.73641 0.0
H3231 H 0.92555 0.73167 0.74371 0.0
H3232 H 0.93266 0.78127 0.72102 0.0
H3233 H 0.96206 0.77836 0.71346 0.0
H3234 H 0.9181 0.78506 0.75198 0.0
H3235 H 0.90305 0.74118 0.69883 0.0
H3236 H 0.90157 0.71315 0.67892 0.0
H3237 H 0.8781 0.68322 0.7198 0.0
H3238 H 0.8797 0.71106 0.74007 0.0
H3239 H 0.82901 0.79506 0.7567 0.0
H3240 H 0.85755 0.79202 0.74752 0.0
H3241 H 0.84712 0.73824 0.76074 0.0
H3242 H 0.81796 0.74105 0.76897 0.0
H3243 H 0.86363 0.73681 0.73407 0.0
H3244 H 0.87962 0.78098 0.78794 0.0
H3245 H 0.88092 0.80922 0.80743 0.0
H3246 H 0.90253 0.83861 0.7653 0.0
H3247 H 0.90108 0.81056 0.74544 0.0
C3248 C 0.95042 0.74043 0.73294 0.0
C3249 C 0.96137 0.75339 0.72431 0.0
C3250 C 0.93328 0.74197 0.73704 0.0
C3251 C 0.92628 0.75666 0.7329 0.0
C3252 C 0.93732 0.76973 0.72449 0.0
C3253 C 0.95433 0.76804 0.72011 0.0
C3254 C 0.90788 0.75862 0.7377 0.0
C3255 C 0.90621 0.7745 0.74782 0.0
C3256 C 0.89198 0.74493 0.73287 0.0
C3257 C 0.89176 0.7282 0.72108 0.0
C3258 C 0.89783 0.72861 0.70369 0.0
C3259 C 0.8969 0.71276 0.69231 0.0
C3260 C 0.88981 0.69641 0.69812 0.0
C3261 C 0.88365 0.69588 0.71534 0.0
C3262 C 0.88457 0.71169 0.72678 0.0
C3263 C 0.83272 0.78257 0.75782 0.0
C3264 C 0.82087 0.76843 0.76395 0.0
C3265 C 0.84942 0.78085 0.75265 0.0
C3266 C 0.85543 0.76502 0.75382 0.0
C3267 C 0.84341 0.75076 0.75967 0.0
C3268 C 0.82653 0.75239 0.76453 0.0
C3269 C 0.87382 0.76318 0.74869 0.0
C3270 C 0.8755 0.74734 0.73841 0.0
C3271 C 0.88977 0.77688 0.75347 0.0
C3272 C 0.89014 0.79369 0.76518 0.0
C3273 C 0.8845 0.79347 0.78278 0.0
C3274 C 0.88529 0.80944 0.7939 0.0
C3275 C 0.89188 0.82569 0.78763 0.0
C3276 C 0.89748 0.82601 0.77015 0.0
C3277 C 0.89667 0.8101 0.75896 0.0
H3278 H 0.89275 0.83804 0.79635 0.0
H3279 H 0.88904 0.68416 0.68926 0.0
H3280 H 0.12613 0.02615 0.85866 0.0
H3281 H 0.11709 0.02582 0.88966 0.0
H3282 H 0.06787 0.03865 0.86947 0.0
H3283 H 0.07748 0.04018 0.83886 0.0
H3284 H 0.07863 0.05695 0.90051 0.0
H3285 H 0.0754 0.99371 0.88084 0.0
H3286 H 0.0881 0.96828 0.87119 0.0
H3287 H 0.12624 0.98168 0.92027 0.0
H3288 H 0.11393 0.00729 0.93004 0.0
H3289 H 0.02762 0.03725 0.97235 0.0
H3290 H 0.03995 0.03708 0.94322 0.0
H3291 H 0.08697 0.02419 0.96947 0.0
H3292 H 0.07397 0.02291 0.99847 0.0
H3293 H 0.08019 0.00715 0.93725 0.0
H3294 H 0.08449 0.06762 0.95889 0.0
H3295 H 0.07367 0.0934 0.97119 0.0
H3296 H 0.03747 0.08752 0.92132 0.0
H3297 H 0.04777 0.06139 0.90887 0.0
C3298 C 0.1133 0.02873 0.86081 0.0
C3299 C 0.10247 0.03305 0.84618 0.0
C3300 C 0.10805 0.02844 0.87861 0.0
C3301 C 0.09153 0.03183 0.88212 0.0
C3302 C 0.08067 0.03596 0.86738 0.0
C3303 C 0.08613 0.03674 0.84975 0.0
C3304 C 0.08558 0.03164 0.90107 0.0
C3305 C 0.07877 0.04587 0.90834 0.0
C3306 C 0.08652 0.01779 0.91209 0.0
C3307 C 0.09388 1.00248 0.90604 0.0
C3308 C 0.08657 0.99128 0.88948 0.0
C3309 C 0.09369 0.97684 0.884 0.0
C3310 C 0.10799 0.9734 0.89508 0.0
C3311 C 0.11519 0.98437 0.91167 0.0
C3312 C 0.10816 0.99884 0.91718 0.0
C3313 C 0.04045 0.03402 0.97194 0.0
C3314 C 0.04965 0.02984 0.98784 0.0
C3315 C 0.04767 0.03423 0.95522 0.0
C3316 C 0.06466 0.03102 0.95403 0.0
C3317 C 0.07387 0.02675 0.96988 0.0
C3318 C 0.06643 0.02609 0.98653 0.0
C3319 C 0.07271 0.03211 0.93627 0.0
C3320 C 0.08003 0.01818 0.92935 0.0
C3321 C 0.07266 0.04645 0.9258 0.0
C3322 C 0.06683 0.06248 0.93299 0.0
C3323 C 0.07418 0.07178 0.95057 0.0
C3324 C 0.06812 0.08645 0.95758 0.0
C3325 C 0.05489 0.09211 0.94706 0.0
C3326 C 0.04771 0.08312 0.92946 0.0
C3327 C 0.05365 0.06837 0.92241 0.0
H3328 H 0.05021 0.10347 0.95253 0.0
H3329 H 0.11347 0.9622 0.89082 0.0
H3330 H 0.77127 0.36603 0.54209 0.0
H3331 H 0.77441 0.35405 0.57132 0.0
H3332 H 0.7934 0.40722 0.60041 0.0
H3333 H 0.79062 0.41943 0.57112 0.0
H3334 H 0.81362 0.38288 0.6107 0.0
H3335 H 0.75286 0.3876 0.60394 0.0
H3336 H 0.72457 0.38415 0.58377 0.0
H3337 H 0.719 0.3276 0.57461 0.0
H3338 H 0.74744 0.33077 0.59454 0.0
H3339 H 0.81177 0.35074 0.69557 0.0
H3340 H 0.80012 0.36711 0.67227 0.0
H3341 H 0.7843 0.31891 0.63357 0.0
H3342 H 0.79617 0.30252 0.65679 0.0
H3343 H 0.76095 0.34405 0.63067 0.0
H3344 H 0.82219 0.33925 0.63317 0.0
H3345 H 0.85216 0.34177 0.6495 0.0
H3346 H 0.85821 0.398 0.66362 0.0
H3347 H 0.82795 0.39567 0.64786 0.0
C3348 C 0.77594 0.3752 0.55471 0.0
C3349 C 0.78052 0.39365 0.5544 0.0
C3350 C 0.77778 0.36834 0.57134 0.0
C3351 C 0.78395 0.37984 0.58787 0.0
C3352 C 0.78857 0.39825 0.58768 0.0
C3353 C 0.78682 0.40515 0.57101 0.0
C3354 C 0.78526 0.37244 0.60537 0.0
C3355 C 0.80209 0.37478 0.61539 0.0
C3356 C 0.77018 0.36163 0.61107 0.0
C3357 C 0.7522 0.35941 0.60079 0.0
C3358 C 0.74551 0.37441 0.59776 0.0
C3359 C 0.7295 0.37252 0.58629 0.0
C3360 C 0.71998 0.35566 0.57793 0.0
C3361 C 0.72637 0.34064 0.58115 0.0
C3362 C 0.7424 0.34247 0.59258 0.0
C3363 C 0.80541 0.34361 0.68223 0.0
C3364 C 0.80518 0.32558 0.67764 0.0
C3365 C 0.79866 0.3529 0.66906 0.0
C3366 C 0.79152 0.34414 0.65131 0.0
C3367 C 0.78975 0.32577 0.64729 0.0
C3368 C 0.79674 0.31653 0.66037 0.0
C3369 C 0.78935 0.35456 0.63607 0.0
C3370 C 0.7724 0.35263 0.62636 0.0
C3371 C 0.80437 0.36571 0.63056 0.0
C3372 C 0.8227 0.36723 0.63966 0.0
C3373 C 0.82981 0.35211 0.63997 0.0
C3374 C 0.84685 0.3535 0.64911 0.0
C3375 C 0.85706 0.37003 0.65767 0.0
C3376 C 0.85025 0.38519 0.65706 0.0
C3377 C 0.83313 0.38384 0.64807 0.0
H3378 H 0.87027 0.37109 0.66472 0.0
H3379 H 0.70765 0.35423 0.56893 0.0
H3380 H 0.39881 0.02576 0.37203 0.0
H3381 H 0.41145 0.02397 0.4037 0.0
H3382 H 0.46328 0.02828 0.38586 0.0
H3383 H 0.45082 0.02985 0.35439 0.0
H3384 H 0.45232 0.99916 0.40521 0.0
H3385 H 0.452 0.0632 0.40815 0.0
H3386 H 0.43638 0.08757 0.40744 0.0
H3387 H 0.40736 0.06845 0.45092 0.0
H3388 H 0.4226 0.0438 0.45162 0.0
H3389 H 0.52271 0.01916 0.47451 0.0
H3390 H 0.50164 0.01881 0.44777 0.0
H3391 H 0.46485 0.03326 0.48365 0.0
H3392 H 0.48769 0.03811 0.50977 0.0
H3393 H 0.46032 0.04724 0.45757 0.0
H3394 H 0.46406 0.98689 0.46017 0.0
H3395 H 0.48006 0.96297 0.46276 0.0
H3396 H 0.50021 0.97219 0.41139 0.0
H3397 H 0.48461 0.99634 0.40864 0.0
C3398 C 0.41297 0.02675 0.37505 0.0
C3399 C 0.42394 0.02792 0.36095 0.0
C3400 C 0.42006 0.02554 0.39298 0.0
C3401 C 0.43813 0.02572 0.39679 0.0
C3402 C 0.44921 0.02782 0.38293 0.0
C3403 C 0.44215 0.0289 0.36508 0.0
C3404 C 0.44592 0.02374 0.41517 0.0
C3405 C 0.45399 0.00948 0.41687 0.0
C3406 C 0.44729 0.03681 0.43036 0.0
C3407 C 0.43817 0.05155 0.42971 0.0
C3408 C 0.44213 0.0641 0.41739 0.0
C3409 C 0.43338 0.07797 0.41702 0.0
C3410 C 0.42082 0.07951 0.42906 0.0
C3411 C 0.41703 0.06721 0.44154 0.0
C3412 C 0.42569 0.05328 0.44191 0.0
C3413 C 0.51048 0.02299 0.47665 0.0
C3414 C 0.50685 0.02855 0.49433 0.0
C3415 C 0.4981 0.02212 0.46136 0.0
C3416 C 0.48121 0.02498 0.46374 0.0
C3417 C 0.47768 0.03074 0.4814 0.0
C3418 C 0.49069 0.03327 0.49643 0.0
C3419 C 0.46756 0.02291 0.44772 0.0
C3420 C 0.45824 0.03634 0.44644 0.0
C3421 C 0.46466 0.00871 0.43313 0.0
C3422 C 0.47311 0.9934 0.43419 0.0
C3423 C 0.47183 0.98375 0.44939 0.0
C3424 C 0.48089 0.9702 0.45092 0.0
C3425 C 0.49113 0.96605 0.43724 0.0
C3426 C 0.49225 0.97538 0.42195 0.0
C3427 C 0.48326 0.98897 0.42037 0.0
H3428 H 0.4982 0.95561 0.4385 0.0
H3429 H 0.41408 0.09028 0.42877 0.0
H3430 H 0.80498 0.707 0.08337 0.0
H3431 H 0.80464 0.71785 0.11591 0.0
H3432 H 0.74755 0.71036 0.10557 0.0
H3433 H 0.74828 0.70113 0.0728 0.0
H3434 H 0.75731 0.7369 0.12764 0.0
H3435 H 0.77314 0.68093 0.12928 0.0
H3436 H 0.79047 0.65825 0.12402 0.0
H3437 H 0.83691 0.69374 0.1552 0.0
H3438 H 0.81994 0.71672 0.16043 0.0
H3439 H 0.74507 0.74448 0.22302 0.0
H3440 H 0.74489 0.73337 0.19059 0.0
H3441 H 0.80232 0.74561 0.19875 0.0
H3442 H 0.80221 0.75607 0.23143 0.0
H3443 H 0.79176 0.71605 0.17803 0.0
H3444 H 0.77319 0.77205 0.17539 0.0
H3445 H 0.7534 0.79239 0.18091 0.0
H3446 H 0.70878 0.75281 0.15169 0.0
H3447 H 0.72825 0.73219 0.14623 0.0
C3448 C 0.79246 0.70819 0.08803 0.0
C3449 C 0.77673 0.70374 0.07547 0.0
C3450 C 0.79218 0.71402 0.10678 0.0
C3451 C 0.776 0.71463 0.11363 0.0
C3452 C 0.76029 0.71022 0.1009 0.0
C3453 C 0.76069 0.70504 0.08206 0.0
C3454 C 0.77532 0.72021 0.13383 0.0
C3455 C 0.7647 0.73203 0.13856 0.0
C3456 C 0.78504 0.71427 0.14846 0.0
C3457 C 0.79533 0.7006 0.14505 0.0
C3458 C 0.78709 0.68395 0.13486 0.0
C3459 C 0.79684 0.67103 0.13191 0.0
C3460 C 0.8148 0.67458 0.13922 0.0
C3461 C 0.82303 0.69104 0.14951 0.0
C3462 C 0.81335 0.704 0.15247 0.0
C3463 C 0.75757 0.74515 0.21779 0.0
C3464 C 0.77357 0.7516 0.22971 0.0
C3465 C 0.75755 0.73873 0.19916 0.0
C3466 C 0.77363 0.73905 0.19178 0.0
C3467 C 0.78967 0.74527 0.20384 0.0
C3468 C 0.78962 0.75132 0.22257 0.0
C3469 C 0.77387 0.73276 0.17168 0.0
C3470 C 0.7844 0.72082 0.16702 0.0
C3471 C 0.76373 0.73821 0.15709 0.0
C3472 C 0.75213 0.7506 0.16051 0.0
C3473 C 0.75914 0.76769 0.17025 0.0
C3474 C 0.74799 0.77925 0.17335 0.0
C3475 C 0.72987 0.7739 0.16661 0.0
C3476 C 0.72282 0.75695 0.15687 0.0
C3477 C 0.7339 0.74533 0.15376 0.0
H3478 H 0.72127 0.78291 0.16889 0.0
H3479 H 0.82232 0.66455 0.13694 0.0
H3480 H 0.07859 0.01816 0.74326 0.0
H3481 H 0.0666 0.0186 0.7108 0.0
H3482 H 0.11979 0.03793 0.69807 0.0
H3483 H 0.13177 0.03699 0.72993 0.0
H3484 H 0.09611 0.05748 0.68491 0.0
H3485 H 0.10273 0.99897 0.68211 0.0
H3486 H 0.1002 0.96896 0.69112 0.0
H3487 H 0.04333 0.95799 0.67845 0.0
H3488 H 0.04552 0.98815 0.66968 0.0
H3489 H 0.08069 0.04213 0.58518 0.0
H3490 H 0.09144 0.04066 0.61754 0.0
H3491 H 0.03732 0.02715 0.62951 0.0
H3492 H 0.02652 0.02923 0.59717 0.0
H3493 H 0.06152 1.00412 0.64284 0.0
H3494 H 0.05843 0.06669 0.64667 0.0
H3495 H 0.06528 0.09698 0.63796 0.0
H3496 H 0.12114 0.09871 0.64622 0.0
H3497 H 0.11465 0.06855 0.65552 0.0
C3498 C 0.08767 0.02241 0.73348 0.0
C3499 C 0.10612 0.02743 0.73919 0.0
C3500 C 0.08084 0.02262 0.71495 0.0
C3501 C 0.09231 0.02831 0.70196 0.0
C3502 C 0.11067 0.0335 0.70776 0.0
C3503 C 0.11749 0.03285 0.72602 0.0
C3504 C 0.08531 0.02924 0.68239 0.0
C3505 C 0.0886 0.04577 0.67574 0.0
C3506 C 0.07576 0.01399 0.67022 0.0
C3507 C 0.07425 0.99591 0.67555 0.0
C3508 C 0.08966 0.99025 0.68148 0.0
C3509 C 0.0883 0.9732 0.6865 0.0
C3510 C 0.0716 0.9616 0.68545 0.0
C3511 C 0.05624 0.96703 0.67932 0.0
C3512 C 0.05753 0.9841 0.67433 0.0
C3513 C 0.07109 0.03899 0.59476 0.0
C3514 C 0.05276 0.03587 0.58868 0.0
C3515 C 0.07725 0.03813 0.61324 0.0
C3516 C 0.06521 0.0337 0.62599 0.0
C3517 C 0.04687 0.03055 0.61994 0.0
C3518 C 0.04071 0.03189 0.60152 0.0
C3519 C 0.07184 0.03248 0.64561 0.0
C3520 C 0.06874 0.01584 0.65216 0.0
C3521 C 0.08214 0.04752 0.65755 0.0
C3522 C 0.08605 0.06537 0.65156 0.0
C3523 C 0.07216 0.07349 0.64648 0.0
C3524 C 0.07598 0.09064 0.64148 0.0
C3525 C 0.0936 0.09968 0.64127 0.0
C3526 C 0.10749 0.09166 0.64629 0.0
C3527 C 0.10376 0.07459 0.65154 0.0
H3528 H 0.09649 0.11295 0.63733 0.0
H3529 H 0.07057 0.94838 0.68931 0.0
H3530 H 0.8068 0.39534 0.44998 0.0
H3531 H 0.80634 0.38124 0.41852 0.0
H3532 H 0.74962 0.36024 0.41493 0.0
H3533 H 0.75015 0.37443 0.44663 0.0
H3534 H 0.76887 0.33486 0.4124 0.0
H3535 H 0.76595 0.38784 0.38545 0.0
H3536 H 0.77462 0.41943 0.38101 0.0
H3537 H 0.82597 0.41301 0.36914 0.0
H3538 H 0.81774 0.38146 0.37386 0.0
H3539 H 0.7535 0.29479 0.31918 0.0
H3540 H 0.75459 0.31539 0.34712 0.0
H3541 H 0.81145 0.32153 0.35808 0.0
H3542 H 0.81025 0.30011 0.33046 0.0
H3543 H 0.79343 0.35471 0.35626 0.0
H3544 H 0.79772 0.303 0.38479 0.0
H3545 H 0.78939 0.271 0.38752 0.0
H3546 H 0.73669 0.27528 0.39653 0.0
H3547 H 0.74456 0.30724 0.39326 0.0
C3548 C 0.79417 0.38825 0.44212 0.0
C3549 C 0.77851 0.38573 0.45035 0.0
C3550 C 0.7939 0.38035 0.4242 0.0
C3551 C 0.77794 0.3698 0.41454 0.0
C3552 C 0.76199 0.36849 0.42228 0.0
C3553 C 0.76227 0.37652 0.44023 0.0
C3554 C 0.77869 0.35743 0.39836 0.0
C3555 C 0.77393 0.33922 0.39998 0.0
C3556 C 0.78618 0.36325 0.38269 0.0
C3557 C 0.79129 0.38232 0.38023 0.0
C3558 C 0.77918 0.39321 0.38214 0.0
C3559 C 0.784 0.41111 0.37952 0.0
C3560 C 0.80085 0.41824 0.37485 0.0
C3561 C 0.81293 0.40748 0.37279 0.0
C3562 C 0.80819 0.38959 0.37544 0.0
C3563 C 0.76614 0.30044 0.32773 0.0
C3564 C 0.78182 0.29619 0.32303 0.0
C3565 C 0.76676 0.31211 0.3435 0.0
C3566 C 0.7831 0.31981 0.3543 0.0
C3567 C 0.7988 0.31553 0.34969 0.0
C3568 C 0.79809 0.30334 0.3342 0.0
C3569 C 0.78343 0.33245 0.37041 0.0
C3570 C 0.78842 0.35055 0.36877 0.0
C3571 C 0.77639 0.32661 0.38619 0.0
C3572 C 0.77165 0.30747 0.3885 0.0
C3573 C 0.78428 0.29708 0.38709 0.0
C3574 C 0.77965 0.27895 0.38877 0.0
C3575 C 0.7625 0.27109 0.39213 0.0
C3576 C 0.74996 0.28137 0.39387 0.0
C3577 C 0.75449 0.2995 0.39208 0.0
H3578 H 0.75895 0.25705 0.39345 0.0
H3579 H 0.80454 0.43209 0.37278 0.0
H3580 H 0.43537 0.03252 0.27193 0.0
H3581 H 0.44845 0.02975 0.24343 0.0
H3582 H 0.39608 0.01158 0.21225 0.0
H3583 H 0.38272 0.01374 0.24098 0.0
H3584 H 0.42037 0.99153 0.20263 0.0
H3585 H 0.41747 0.05304 0.21129 0.0
H3586 H 0.42144 0.08083 0.23246 0.0
H3587 H 0.47758 0.08424 0.24278 0.0
H3588 H 0.47389 0.05628 0.22188 0.0
H3589 H 0.45611 0.9949 0.11984 0.0
H3590 H 0.43895 0.00599 0.14267 0.0
H3591 H 0.48607 0.02099 0.18294 0.0
H3592 H 0.50325 0.0097 0.16018 0.0
H3593 H 0.46149 0.04428 0.18553 0.0
H3594 H 0.46513 0.98302 0.18169 0.0
H3595 H 0.46268 0.95303 0.16545 0.0
H3596 H 0.40662 0.94728 0.15028 0.0
H3597 H 0.40889 0.97755 0.16592 0.0
C3598 C 0.42659 0.02813 0.25902 0.0
C3599 C 0.40803 0.02355 0.25856 0.0
C3600 C 0.43408 0.0265 0.2428 0.0
C3601 C 0.42313 0.02075 0.22588 0.0
C3602 C 0.40461 0.01614 0.22529 0.0
C3603 C 0.39706 0.01754 0.24161 0.0
C3604 C 0.43126 0.01977 0.20884 0.0
C3605 C 0.42894 1.0031 0.19851 0.0
C3606 C 0.44282 0.03488 0.20406 0.0
C3607 C 0.44542 0.05265 0.21494 0.0
C3608 C 0.43069 0.05982 0.21794 0.0
C3609 C 0.43287 0.07554 0.22997 0.0
C3610 C 0.44976 0.08431 0.23894 0.0
C3611 C 0.46452 0.07746 0.23577 0.0
C3612 C 0.46241 0.06171 0.22378 0.0
C3613 C 0.46284 1.001 0.13343 0.0
C3614 C 0.48079 1.0012 0.13858 0.0
C3615 C 0.45311 0.0074 0.14633 0.0
C3616 C 0.46133 0.01411 0.16436 0.0
C3617 C 0.47963 0.01586 0.16899 0.0
C3618 C 0.48932 0.00923 0.15617 0.0
C3619 C 0.4504 0.01604 0.17915 0.0
C3620 C 0.45238 0.03283 0.1892 0.0
C3621 C 0.43868 1.00096 0.18387 0.0
C3622 C 0.43725 0.9827 0.17461 0.0
C3623 C 0.45234 0.97549 0.17463 0.0
C3624 C 0.45098 0.95843 0.16557 0.0
C3625 C 0.43452 0.94829 0.15674 0.0
C3626 C 0.41938 0.95519 0.15702 0.0
C3627 C 0.42071 0.97233 0.16593 0.0
H3628 H 0.43348 0.93506 0.14977 0.0
H3629 H 0.4514 0.0964 0.24837 0.0
H3630 H 0.74601 0.68564 0.95584 0.0
H3631 H 0.74878 0.69518 0.92515 0.0
H3632 H 0.80011 0.72955 0.94624 0.0
H3633 H 0.79756 0.71952 0.97685 0.0
H3634 H 0.77776 0.74693 0.92729 0.0
H3635 H 0.79759 0.69321 0.91656 0.0
H3636 H 0.79729 0.66127 0.91395 0.0
H3637 H 0.74999 0.64941 0.87457 0.0
H3638 H 0.7498 0.68124 0.87719 0.0
H3639 H 0.80201 0.76662 0.83691 0.0
H3640 H 0.80217 0.75637 0.86749 0.0
H3641 H 0.74743 0.72781 0.85294 0.0
H3642 H 0.74669 0.73922 0.82316 0.0
H3643 H 0.77289 0.70757 0.8683 0.0
H3644 H 0.75114 0.75968 0.88015 0.0
H3645 H 0.75087 0.79138 0.88108 0.0
H3646 H 0.80024 0.80572 0.91749 0.0
H3647 H 0.80099 0.77406 0.91643 0.0
C3648 C 0.75797 0.69509 0.95384 0.0
C3649 C 0.77157 0.70186 0.96871 0.0
C3650 C 0.75958 0.70047 0.93627 0.0
C3651 C 0.7747 0.71306 0.93325 0.0
C3652 C 0.78835 0.71977 0.94813 0.0
C3653 C 0.78692 0.71404 0.96561 0.0
C3654 C 0.77567 0.72004 0.91498 0.0
C3655 C 0.77703 0.73832 0.91446 0.0
C3656 C 0.77409 0.70882 0.89803 0.0
C3657 C 0.77353 0.68959 0.89732 0.0
C3658 C 0.78693 0.68376 0.90761 0.0
C3659 C 0.7869 0.66568 0.90605 0.0
C3660 C 0.77359 0.65331 0.89416 0.0
C3661 C 0.76025 0.65899 0.88383 0.0
C3662 C 0.7602 0.67705 0.88537 0.0
C3663 C 0.7899 0.75849 0.84034 0.0
C3664 C 0.77437 0.75374 0.82741 0.0
C3665 C 0.79006 0.75249 0.85778 0.0
C3666 C 0.77483 0.74124 0.86249 0.0
C3667 C 0.75938 0.73636 0.84959 0.0
C3668 C 0.75906 0.74276 0.83242 0.0
C3669 C 0.77499 0.73432 0.88074 0.0
C3670 C 0.77377 0.71612 0.88121 0.0
C3671 C 0.77645 0.74552 0.8976 0.0
C3672 C 0.7763 0.76455 0.89793 0.0
C3673 C 0.7621 0.76961 0.8881 0.0
C3674 C 0.76182 0.78756 0.88871 0.0
C3675 C 0.77557 0.80057 0.89927 0.0
C3676 C 0.78963 0.79564 0.90925 0.0
C3677 C 0.79001 0.77769 0.90864 0.0
H3678 H 0.7753 0.81447 0.89978 0.0
H3679 H 0.77365 0.63933 0.89289 0.0
H3680 H 0.82124 0.12815 0.05056 0.0
H3681 H 0.85135 0.12343 0.05237 0.0
H3682 H 0.82992 0.06656 0.04617 0.0
H3683 H 0.79984 0.07134 0.04556 0.0
H3684 H 0.85653 0.07579 0.07217 0.0
H3685 H 0.84416 0.08952 0.01018 0.0
H3686 H 0.8359 0.10792 0.98681 0.0
H3687 H 0.88139 0.15002 0.009 0.0
H3688 H 0.88971 0.132 0.03275 0.0
H3689 H 0.91602 0.0376 0.02532 0.0
H3690 H 0.89381 0.04834 0.04157 0.0
H3691 H 0.92718 0.10166 0.04949 0.0
H3692 H 0.949 0.09096 0.03233 0.0
H3693 H 0.89763 0.09939 0.02858 0.0
H3694 H 0.91159 0.07988 0.08777 0.0
H3695 H 0.91694 0.05954 0.11034 0.0
H3696 H 0.86659 0.02394 0.08955 0.0
H3697 H 0.86077 0.04406 0.06706 0.0
C3698 C 0.82304 0.11466 0.04933 0.0
C3699 C 0.80849 0.10002 0.04772 0.0
C3700 C 0.84014 0.11201 0.05046 0.0
C3701 C 0.84269 0.09468 0.04925 0.0
C3702 C 0.82809 0.08003 0.04722 0.0
C3703 C 0.81102 0.08271 0.04667 0.0
C3704 C 0.86059 0.09165 0.04994 0.0
C3705 C 0.86559 0.08083 0.06262 0.0
C3706 C 0.87238 0.09878 0.0378 0.0
C3707 C 0.86743 0.10952 0.02339 0.0
C3708 C 0.85231 0.10276 0.01017 0.0
C3709 C 0.84762 0.11312 0.99685 0.0
C3710 C 0.85808 0.13016 0.99646 0.0
C3711 C 0.87327 0.13685 0.00936 0.0
C3712 C 0.87797 0.12658 0.02276 0.0
C3713 C 0.91869 0.05152 0.03096 0.0
C3714 C 0.93372 0.06369 0.02728 0.0
C3715 C 0.90623 0.05758 0.04054 0.0
C3716 C 0.90896 0.07578 0.0468 0.0
C3717 C 0.92495 0.08757 0.04478 0.0
C3718 C 0.93721 0.08157 0.03482 0.0
C3719 C 0.89358 0.08293 0.0505 0.0
C3720 C 0.88892 0.09463 0.03855 0.0
C3721 C 0.88185 0.07601 0.06282 0.0
C3722 C 0.88582 0.06345 0.07565 0.0
C3723 C 0.90177 0.06761 0.08785 0.0
C3724 C 0.90486 0.05614 0.10066 0.0
C3725 C 0.89223 0.0404 0.10123 0.0
C3726 C 0.87641 0.0361 0.08906 0.0
C3727 C 0.87316 0.04757 0.07634 0.0
H3728 H 0.89468 0.03158 0.11118 0.0
H3729 H 0.85443 0.13815 0.98613 0.0
H3730 H 0.33763 0.44334 0.04748 0.0
H3731 H 0.36852 0.45998 0.0476 0.0
H3732 H 0.38641 0.41139 0.04903 0.0
H3733 H 0.35576 0.39472 0.04851 0.0
H3734 H 0.40793 0.44066 0.07404 0.0
H3735 H 0.38403 0.42508 0.01005 0.0
H3736 H 0.36211 0.42309 0.9826 0.0
H3737 H 0.37137 0.48006 0.98868 0.0
H3738 H 0.39319 0.48236 0.01634 0.0
H3739 H 0.49612 0.47532 0.05505 0.0
H3740 H 0.46643 0.45717 0.05569 0.0
H3741 H 0.44357 0.49827 0.03486 0.0
H3742 H 0.47302 0.51499 0.03137 0.0
H3743 H 0.42419 0.47092 0.01989 0.0
H3744 H 0.4489 0.48602 0.08554 0.0
H3745 H 0.47095 0.48633 0.11247 0.0
H3746 H 0.46044 0.42929 0.10332 0.0
H3747 H 0.4385 0.42867 0.07626 0.0
C3748 C 0.34817 0.43625 0.04792 0.0
C3749 C 0.34421 0.41769 0.04784 0.0
C3750 C 0.36579 0.44574 0.04796 0.0
C3751 C 0.37976 0.43689 0.04828 0.0
C3752 C 0.37587 0.41849 0.0488 0.0
C3753 C 0.3583 0.40898 0.04839 0.0
C3754 C 0.39837 0.44665 0.04741 0.0
C3755 C 0.41156 0.44731 0.06223 0.0
C3756 C 0.40311 0.4552 0.03198 0.0
C3757 C 0.39007 0.45388 0.01536 0.0
C3758 C 0.38126 0.43717 0.00562 0.0
C3759 C 0.36889 0.43599 0.99001 0.0
C3760 C 0.36531 0.45144 0.98393 0.0
C3761 C 0.37413 0.46811 0.99343 0.0
C3762 C 0.38651 0.46936 0.00906 0.0
C3763 C 0.48477 0.48052 0.05059 0.0
C3764 C 0.48715 0.49698 0.04362 0.0
C3765 C 0.46767 0.47017 0.05124 0.0
C3766 C 0.45246 0.47648 0.04604 0.0
C3767 C 0.4549 0.49298 0.03917 0.0
C3768 C 0.47192 0.50284 0.03757 0.0
C3769 C 0.43399 0.46587 0.04702 0.0
C3770 C 0.42072 0.46472 0.032 0.0
C3771 C 0.42923 0.45687 0.06234 0.0
C3772 C 0.44216 0.45732 0.07883 0.0
C3773 C 0.45133 0.47356 0.08927 0.0
C3774 C 0.46382 0.47379 0.10454 0.0
C3775 C 0.46711 0.45785 0.10958 0.0
C3776 C 0.45788 0.44163 0.0994 0.0
C3777 C 0.44541 0.44133 0.08412 0.0
H3778 H 0.4768 0.45806 0.12138 0.0
H3779 H 0.35572 0.4505 0.97184 0.0
H3780 H 0.40966 0.57515 0.77592 0.0
H3781 H 0.39842 0.60212 0.77512 0.0
H3782 H 0.34556 0.56987 0.75577 0.0
H3783 H 0.3572 0.54313 0.75496 0.0
H3784 H 0.3492 0.59489 0.73792 0.0
H3785 H 0.36438 0.59467 0.80424 0.0
H3786 H 0.3843 0.59545 0.83297 0.0
H3787 H 0.41745 0.64469 0.82303 0.0
H3788 H 0.39787 0.64407 0.79412 0.0
H3789 H 0.29714 0.65527 0.76746 0.0
H3790 H 0.31226 0.63136 0.76027 0.0
H3791 H 0.36253 0.66992 0.76715 0.0
H3792 H 0.34731 0.6938 0.77403 0.0
H3793 H 0.36297 0.64432 0.78955 0.0
H3794 H 0.34651 0.64631 0.72575 0.0
H3795 H 0.32666 0.64656 0.69733 0.0
H3796 H 0.29591 0.59469 0.70294 0.0
H3797 H 0.31538 0.59426 0.73161 0.0
C3798 C 0.39561 0.57388 0.77166 0.0
C3799 C 0.38426 0.55705 0.76564 0.0
C3800 C 0.38913 0.58933 0.77132 0.0
C3801 C 0.37096 0.58824 0.76577 0.0
C3802 C 0.35962 0.57128 0.76009 0.0
C3803 C 0.36624 0.55593 0.75975 0.0
C3804 C 0.36369 0.60453 0.76514 0.0
C3805 C 0.35204 0.6055 0.74942 0.0
C3806 C 0.36794 0.61901 0.77964 0.0
C3807 C 0.37978 0.61919 0.79691 0.0
C3808 C 0.376 0.60557 0.80811 0.0
C3809 C 0.38722 0.606 0.82443 0.0
C3810 C 0.40216 0.62007 0.82979 0.0
C3811 C 0.4059 0.63377 0.81885 0.0
C3812 C 0.39476 0.63338 0.80249 0.0
C3813 C 0.31126 0.65869 0.76642 0.0
C3814 C 0.32103 0.67639 0.77099 0.0
C3815 C 0.31995 0.64502 0.76253 0.0
C3816 C 0.33857 0.64883 0.76327 0.0
C3817 C 0.34817 0.66666 0.76653 0.0
C3818 C 0.33945 0.68033 0.77024 0.0
C3819 C 0.34807 0.63416 0.76273 0.0
C3820 C 0.36018 0.6336 0.77814 0.0
C3821 C 0.3442 0.62005 0.74804 0.0
C3822 C 0.33232 0.62033 0.73093 0.0
C3823 C 0.3354 0.63504 0.72104 0.0
C3824 C 0.32424 0.6352 0.70486 0.0
C3825 C 0.31001 0.62067 0.69835 0.0
C3826 C 0.30692 0.60595 0.70801 0.0
C3827 C 0.31802 0.60574 0.72422 0.0
H3828 H 0.3014 0.62081 0.6858 0.0
H3829 H 0.41082 0.62039 0.84244 0.0
H3830 H 0.21511 0.579 0.54291 0.0
H3831 H 0.18321 0.56938 0.54354 0.0
H3832 H 0.17651 0.62102 0.53202 0.0
H3833 H 0.2086 0.63101 0.53182 0.0
H3834 H 0.15759 0.60695 0.56017 0.0
H3835 H 0.16665 0.58843 0.49692 0.0
H3836 H 0.18256 0.57391 0.47478 0.0
H3837 H 0.1674 0.52478 0.49735 0.0
H3838 H 0.15153 0.53907 0.51971 0.0
H3839 H 0.06404 0.57277 0.54529 0.0
H3840 H 0.09383 0.58831 0.54013 0.0
H3841 H 0.11079 0.53894 0.54013 0.0
H3842 H 0.08072 0.52331 0.54345 0.0
H3843 H 0.12394 0.55548 0.51498 0.0
H3844 H 0.11742 0.57137 0.5789 0.0
H3845 H 0.10652 0.58463 0.60617 0.0
H3846 H 0.11953 0.63602 0.58774 0.0
H3847 H 0.13027 0.62304 0.56023 0.0
C3848 C 0.20684 0.58825 0.54032 0.0
C3849 C 0.21417 0.60563 0.53701 0.0
C3850 C 0.18871 0.58278 0.5408 0.0
C3851 C 0.17774 0.59449 0.53756 0.0
C3852 C 0.18496 0.6119 0.53446 0.0
C3853 C 0.20316 0.61747 0.53419 0.0
C3854 C 0.15857 0.5882 0.53677 0.0
C3855 C 0.15 0.59594 0.55011 0.0
C3856 C 0.14915 0.57358 0.52392 0.0
C3857 C 0.15791 0.56479 0.5099 0.0
C3858 C 0.16669 0.57452 0.4971 0.0
C3859 C 0.17572 0.56634 0.48454 0.0
C3860 C 0.17598 0.54843 0.48464 0.0
C3861 C 0.16714 0.53863 0.49725 0.0
C3862 C 0.15809 0.54675 0.50982 0.0
C3863 C 0.07392 0.56519 0.54298 0.0
C3864 C 0.07015 0.54685 0.5437 0.0
C3865 C 0.09098 0.5741 0.54066 0.0
C3866 C 0.10442 0.56474 0.53991 0.0
C3867 C 0.10049 0.54633 0.54048 0.0
C3868 C 0.0834 0.53741 0.54227 0.0
C3869 C 0.12274 0.57389 0.53873 0.0
C3870 C 0.13124 0.56674 0.52489 0.0
C3871 C 0.13215 0.58871 0.55155 0.0
C3872 C 0.12442 0.59618 0.56736 0.0
C3873 C 0.11766 0.58543 0.58048 0.0
C3874 C 0.11158 0.59291 0.59603 0.0
C3875 C 0.11237 0.61115 0.59868 0.0
C3876 C 0.11894 0.6219 0.58566 0.0
C3877 C 0.12499 0.61448 0.57008 0.0
H3878 H 0.10805 0.617 0.6109 0.0
H3879 H 0.18303 0.54214 0.47496 0.0
H3880 H 0.7305 1.00385 0.75551 0.0
H3881 H 0.73499 0.97372 0.75339 0.0
H3882 H 0.68291 0.95474 0.76947 0.0
H3883 H 0.67853 0.98497 0.77222 0.0
H3884 H 0.70779 0.94525 0.79001 0.0
H3885 H 0.69041 0.94185 0.72565 0.0
H3886 H 0.68983 0.9528 0.69528 0.0
H3887 H 0.74543 0.9543 0.69567 0.0
H3888 H 0.7464 0.94353 0.72616 0.0
H3889 H 0.72561 0.86374 0.79076 0.0
H3890 H 0.71057 0.88289 0.7741 0.0
H3891 H 0.7616 0.91646 0.76889 0.0
H3892 H 0.7766 0.89678 0.78544 0.0
H3893 H 0.73138 0.91448 0.73877 0.0
H3894 H 0.74902 0.92485 0.80605 0.0
H3895 H 0.7499 0.91649 0.83761 0.0
H3896 H 0.69281 0.90376 0.83203 0.0
H3897 H 0.6916 0.91179 0.8003 0.0
C3898 C 0.72003 0.99323 0.75857 0.0
C3899 C 0.70429 0.99659 0.76422 0.0
C3900 C 0.72247 0.97606 0.75705 0.0
C3901 C 0.70905 0.96213 0.76082 0.0
C3902 C 0.69324 0.96544 0.76629 0.0
C3903 C 0.69089 0.98265 0.76808 0.0
C3904 C 0.71266 0.94463 0.76155 0.0
C3905 C 0.71238 0.93818 0.77861 0.0
C3906 C 0.71901 0.93586 0.74675 0.0
C3907 C 0.71847 0.94189 0.72819 0.0
C3908 C 0.70253 0.94455 0.71928 0.0
C3909 C 0.70213 0.95073 0.70205 0.0
C3910 C 0.71758 0.95424 0.69355 0.0
C3911 C 0.73346 0.95153 0.70226 0.0
C3912 C 0.73393 0.94534 0.71949 0.0
C3913 C 0.73347 0.87471 0.78533 0.0
C3914 C 0.75197 0.87909 0.78941 0.0
C3915 C 0.72498 0.88553 0.77574 0.0
C3916 C 0.73509 0.90096 0.77049 0.0
C3917 C 0.75373 0.90442 0.77282 0.0
C3918 C 0.76222 0.89345 0.78243 0.0
C3919 C 0.72657 0.91538 0.76721 0.0
C3920 C 0.72611 0.92125 0.74983 0.0
C3921 C 0.71946 0.92373 0.78174 0.0
C3922 C 0.72022 0.9185 0.80065 0.0
C3923 C 0.73665 0.91996 0.81143 0.0
C3924 C 0.73721 0.91535 0.82938 0.0
C3925 C 0.72142 0.90943 0.83676 0.0
C3926 C 0.70503 0.90821 0.82625 0.0
C3927 C 0.7044 0.91277 0.80828 0.0
H3928 H 0.72189 0.9059 0.85067 0.0
H3929 H 0.71725 0.95906 0.68022 0.0
H3930 H 0.73175 0.89199 0.55174 0.0
H3931 H 0.70496 0.90382 0.55075 0.0
H3932 H 0.73676 0.95576 0.54545 0.0
H3933 H 0.76355 0.9442 0.54817 0.0
H3934 H 0.7171 0.96032 0.5687 0.0
H3935 H 0.7041 0.92273 0.50861 0.0
H3936 H 0.69777 0.89449 0.4876 0.0
H3937 H 0.65394 0.87305 0.51608 0.0
H3938 H 0.66017 0.90105 0.5374 0.0
H3939 H 0.65615 0.00508 0.52978 0.0
H3940 H 0.67915 0.99001 0.53977 0.0
H3941 H 0.63875 0.94537 0.54982 0.0
H3942 H 0.61561 0.96041 0.53913 0.0
H3943 H 0.65987 0.93421 0.52877 0.0
H3944 H 0.67041 0.97248 0.58596 0.0
H3945 H 0.67567 1.00076 0.60667 0.0
H3946 H 0.72345 0.02087 0.58343 0.0
H3947 H 0.71836 0.9928 0.56243 0.0
C3948 C 0.73285 0.90587 0.55012 0.0
C3949 C 0.74958 0.91722 0.54991 0.0
C3950 C 0.71753 0.91263 0.54944 0.0
C3951 C 0.71865 0.9307 0.54777 0.0
C3952 C 0.73542 0.94181 0.54686 0.0
C3953 C 0.75075 0.93521 0.54826 0.0
C3954 C 0.70281 0.93859 0.54814 0.0
C3955 C 0.70469 0.95466 0.55972 0.0
C3956 C 0.68613 0.93081 0.53732 0.0
C3957 C 0.68276 0.91388 0.52474 0.0
C3958 C 0.69324 0.91192 0.51051 0.0
C3959 C 0.68964 0.89597 0.49852 0.0
C3960 C 0.6755 0.88196 0.50055 0.0
C3961 C 0.66492 0.88388 0.51456 0.0
C3962 C 0.66849 0.89977 0.52659 0.0
C3963 C 0.65227 0.9924 0.53492 0.0
C3964 C 0.63423 0.98399 0.53403 0.0
C3965 C 0.6654 0.98374 0.5406 0.0
C3966 C 0.66074 0.96657 0.54574 0.0
C3967 C 0.64267 0.95863 0.546 0.0
C3968 C 0.62948 0.9673 0.54017 0.0
C3969 C 0.67461 0.95631 0.54858 0.0
C3970 C 0.67228 0.93975 0.53778 0.0
C3971 C 0.69091 0.96362 0.56006 0.0
C3972 C 0.69395 0.98056 0.57259 0.0
C3973 C 0.68197 0.98298 0.58519 0.0
C3974 C 0.68494 0.99896 0.59699 0.0
C3975 C 0.69988 0.01261 0.59636 0.0
C3976 C 0.71189 0.01029 0.58392 0.0
C3977 C 0.70898 0.99434 0.57209 0.0
H3978 H 0.70216 0.02497 0.60552 0.0
H3979 H 0.67272 0.86965 0.49122 0.0
H3980 H 0.37778 0.45697 0.74171 0.0
H3981 H 0.36241 0.42574 0.74041 0.0
H3982 H 0.37663 0.42883 0.79942 0.0
H3983 H 0.39353 0.45956 0.80024 0.0
H3984 H 0.3787 0.39885 0.78611 0.0
H3985 H 0.33156 0.43007 0.77368 0.0
H3986 H 0.31669 0.4494 0.75622 0.0
H3987 H 0.31194 0.41356 0.70625 0.0
H3988 H 0.32695 0.39414 0.72339 0.0
H3989 H 0.30667 0.32807 0.80233 0.0
H3990 H 0.32554 0.35758 0.80048 0.0
H3991 H 0.32683 0.34241 0.74246 0.0
H3992 H 0.30869 0.3126 0.74451 0.0
H3993 H 0.31742 0.37689 0.75311 0.0
H3994 H 0.36126 0.3444 0.76516 0.0
H3995 H 0.37702 0.32487 0.78111 0.0
H3996 H 0.38864 0.3625 0.83052 0.0
H3997 H 0.37252 0.38209 0.815 0.0
C3998 C 0.37748 0.45096 0.75439 0.0
C3999 C 0.38657 0.46073 0.77113 0.0
C4000 C 0.36857 0.43309 0.7537 0.0
C4001 C 0.3677 0.42482 0.76992 0.0
C4002 C 0.3769 0.43471 0.78666 0.0
C4003 C 0.38644 0.45236 0.7872 0.0
C4004 C 0.35736 0.40597 0.76957 0.0
C4005 C 0.36518 0.39425 0.77915 0.0
C4006 C 0.33993 0.3994 0.75988 0.0
C4007 C 0.33046 0.41077 0.74976 0.0
C4008 C 0.32734 0.42635 0.75896 0.0
C4009 C 0.31892 0.43732 0.74912 0.0
C4010 C 0.31341 0.43273 0.73013 0.0
C4011 C 0.31623 0.41711 0.72095 0.0
C4012 C 0.32466 0.40611 0.73072 0.0
C4013 C 0.31093 0.33112 0.78919 0.0
C4014 C 0.30617 0.31819 0.77352 0.0
C4015 C 0.3218 0.34789 0.78817 0.0
C4016 C 0.32763 0.35217 0.77134 0.0
C4017 C 0.32254 0.33936 0.75558 0.0
C4018 C 0.31218 0.32239 0.75675 0.0
C4019 C 0.33858 0.37022 0.77012 0.0
C4020 C 0.33089 0.38167 0.76018 0.0
C4021 C 0.35609 0.37648 0.77944 0.0
C4022 C 0.36543 0.36458 0.789 0.0
C4023 C 0.36691 0.34839 0.77952 0.0
C4024 C 0.37598 0.33734 0.78846 0.0
C4025 C 0.38381 0.34244 0.80682 0.0
C4026 C 0.38254 0.35857 0.8163 0.0
C4027 C 0.37342 0.36964 0.80745 0.0
H4028 H 0.39086 0.33387 0.81371 0.0
H4029 H 0.30693 0.44127 0.72253 0.0
H4030 H 0.22609 0.58865 0.26835 0.0
H4031 H 0.23543 0.6202 0.26566 0.0
H4032 H 0.18603 0.62859 0.2826 0.0
H4033 H 0.17626 0.5968 0.28485 0.0
H4034 H 0.1987 0.64747 0.25254 0.0
H4035 H 0.21852 0.63771 0.31483 0.0
H4036 H 0.23158 0.61908 0.33493 0.0
H4037 H 0.28005 0.63098 0.31054 0.0
H4038 H 0.26713 0.64946 0.2901 0.0
H4039 H 0.23368 0.74011 0.27651 0.0
H4040 H 0.21943 0.70939 0.27871 0.0
H4041 H 0.26727 0.69335 0.26667 0.0
H4042 H 0.28196 0.72432 0.26517 0.0
H4043 H 0.25283 0.6788 0.29562 0.0
H4044 H 0.23409 0.6887 0.23369 0.0
H4045 H 0.2205 0.70355 0.20986 0.0
H4046 H 0.17031 0.68996 0.23075 0.0
H4047 H 0.18371 0.67539 0.255 0.0
C4048 C 0.21729 0.59723 0.27166 0.0
C4049 C 0.20067 0.59052 0.27721 0.0
C4050 C 0.22251 0.61509 0.26986 0.0
C4051 C 0.21137 0.62644 0.27408 0.0
C4052 C 0.19464 0.61981 0.27927 0.0
C4053 C 0.18926 0.60183 0.28081 0.0
C4054 C 0.21817 0.64549 0.27488 0.0
C4055 C 0.21031 0.65454 0.26213 0.0
C4056 C 0.23341 0.65426 0.28729 0.0
C4057 C 0.24186 0.64489 0.30095 0.0
C4058 C 0.232 0.63642 0.31385 0.0
C4059 C 0.23932 0.62579 0.3252 0.0
C4060 C 0.25657 0.6237 0.32388 0.0
C4061 C 0.26665 0.63252 0.31146 0.0
C4062 C 0.25936 0.64312 0.30004 0.0
C4063 C 0.24135 0.73014 0.27488 0.0
C4064 C 0.25899 0.73447 0.27102 0.0
C4065 C 0.23309 0.71263 0.27583 0.0
C4066 C 0.24234 0.69936 0.27262 0.0
C4067 C 0.26006 0.70364 0.26913 0.0
C4068 C 0.26838 0.7212 0.26831 0.0
C4069 C 0.23358 0.68091 0.27304 0.0
C4070 C 0.24103 0.67194 0.28618 0.0
C4071 C 0.218 0.6723 0.26089 0.0
C4072 C 0.20998 0.68117 0.24635 0.0
C4073 C 0.22022 0.68907 0.23337 0.0
C4074 C 0.21253 0.69741 0.21975 0.0
C4075 C 0.19456 0.69775 0.21883 0.0
C4076 C 0.18424 0.68973 0.23151 0.0
C4077 C 0.19188 0.68145 0.24521 0.0
H4078 H 0.18863 0.70418 0.20826 0.0
H4079 H 0.26221 0.61543 0.33264 0.0
H4080 H 0.54718 0.72306 0.48463 0.0
H4081 H 0.54882 0.694 0.49404 0.0
H4082 H 0.49166 0.67729 0.48527 0.0
H4083 H 0.48998 0.70622 0.47522 0.0
H4084 H 0.50491 0.66691 0.51799 0.0
H4085 H 0.51406 0.65897 0.45573 0.0
H4086 H 0.52633 0.66415 0.42658 0.0
H4087 H 0.578 0.66194 0.45198 0.0
H4088 H 0.56606 0.65693 0.48139 0.0
H4089 H 0.50293 0.57234 0.51956 0.0
H4090 H 0.49946 0.60076 0.50946 0.0
H4091 H 0.55535 0.62329 0.52612 0.0
H4092 H 0.55856 0.59526 0.53697 0.0
H4093 H 0.5414 0.62983 0.48857 0.0
H4094 H 0.52936 0.63747 0.55194 0.0
H4095 H 0.51389 0.62923 0.57859 0.0
H4096 H 0.46377 0.62877 0.54749 0.0
H4097 H 0.47896 0.63689 0.52059 0.0
C4098 C 0.53489 0.71328 0.48473 0.0
C4099 C 0.51842 0.71736 0.47919 0.0
C4100 C 0.53586 0.69646 0.49006 0.0
C4101 C 0.52039 0.68304 0.49048 0.0
C4102 C 0.5039 0.68716 0.48522 0.0
C4103 C 0.50294 0.70385 0.47942 0.0
C4104 C 0.52154 0.66497 0.49651 0.0
C4105 C 0.51277 0.65881 0.51133 0.0
C4106 C 0.53172 0.65396 0.48812 0.0
C4107 C 0.53923 0.65787 0.47085 0.0
C4108 C 0.52811 0.65988 0.4552 0.0
C4109 C 0.53498 0.66269 0.4386 0.0
C4110 C 0.55295 0.66345 0.43745 0.0
C4111 C 0.56409 0.66141 0.45291 0.0
C4112 C 0.55728 0.65858 0.46955 0.0
C4113 C 0.51451 0.58335 0.5212 0.0
C4114 C 0.53113 0.58123 0.52927 0.0
C4115 C 0.51249 0.59972 0.51538 0.0
C4116 C 0.52712 0.6145 0.51686 0.0
C4117 C 0.54374 0.61233 0.52469 0.0
C4118 C 0.54561 0.59615 0.53104 0.0
C4119 C 0.52513 0.63205 0.51025 0.0
C4120 C 0.53367 0.63805 0.49527 0.0
C4121 C 0.51442 0.64269 0.5182 0.0
C4122 C 0.50526 0.63762 0.53423 0.0
C4123 C 0.51502 0.63546 0.55074 0.0
C4124 C 0.50631 0.63086 0.5659 0.0
C4125 C 0.48785 0.62845 0.56472 0.0
C4126 C 0.47807 0.63064 0.54838 0.0
C4127 C 0.48672 0.63527 0.53319 0.0
H4128 H 0.48114 0.62491 0.57648 0.0
H4129 H 0.55824 0.66556 0.42457 0.0
H4130 H 0.59512 0.27588 0.67684 0.0
H4131 H 0.62273 0.27449 0.69488 0.0
H4132 H 0.65253 0.31029 0.6621 0.0
H4133 H 0.6247 0.31097 0.64318 0.0
H4134 H 0.66996 0.28625 0.66846 0.0
H4135 H 0.64423 0.32313 0.70939 0.0
H4136 H 0.61983 0.3301 0.72557 0.0
H4137 H 0.61758 0.28375 0.75324 0.0
H4138 H 0.64186 0.27642 0.73707 0.0
H4139 H 0.75067 0.30414 0.73131 0.0
H4140 H 0.72377 0.30604 0.71183 0.0
H4141 H 0.69185 0.26936 0.74219 0.0
H4142 H 0.71866 0.26738 0.76164 0.0
H4143 H 0.67589 0.29479 0.73702 0.0
H4144 H 0.69985 0.25683 0.69578 0.0
H4145 H 0.72223 0.24753 0.67794 0.0
H4146 H 0.72737 0.29451 0.65099 0.0
H4147 H 0.70476 0.30393 0.66842 0.0
C4148 C 0.60748 0.28367 0.6735 0.0
C4149 C 0.60751 0.2938 0.65863 0.0
C4150 C 0.6234 0.2829 0.68398 0.0
C4151 C 0.63994 0.29266 0.68037 0.0
C4152 C 0.64005 0.30271 0.66541 0.0
C4153 C 0.62407 0.30321 0.65463 0.0
C4154 C 0.65696 0.29217 0.69208 0.0
C4155 C 0.67131 0.28846 0.68345 0.0
C4156 C 0.65885 0.29447 0.71173 0.0
C4157 C 0.64475 0.29919 0.72196 0.0
C4158 C 0.63851 0.31443 0.71892 0.0
C4159 C 0.6247 0.31843 0.72807 0.0
C4160 C 0.61714 0.30736 0.7404 0.0
C4161 C 0.62345 0.29231 0.74369 0.0
C4162 C 0.63725 0.28825 0.73457 0.0
C4163 C 0.73794 0.29645 0.73386 0.0
C4164 C 0.73699 0.28573 0.74827 0.0
C4165 C 0.72249 0.29745 0.72257 0.0
C4166 C 0.70558 0.28771 0.72526 0.0
C4167 C 0.7046 0.27708 0.73971 0.0
C4168 C 0.72004 0.27603 0.75096 0.0
C4169 C 0.68891 0.28889 0.71341 0.0
C4170 C 0.67461 0.29271 0.72203 0.0
C4171 C 0.68705 0.28661 0.69378 0.0
C4172 C 0.70083 0.28118 0.68355 0.0
C4173 C 0.70587 0.26524 0.68616 0.0
C4174 C 0.71856 0.25993 0.67611 0.0
C4175 C 0.72637 0.27052 0.66352 0.0
C4176 C 0.72137 0.28636 0.66081 0.0
C4177 C 0.70856 0.29165 0.67069 0.0
H4178 H 0.73623 0.2664 0.65579 0.0
H4179 H 0.6064 0.31044 0.74742 0.0
H4180 H 0.02532 0.32339 0.00294 0.0
H4181 H 0.02908 0.35511 0.01401 0.0
H4182 H 0.99359 0.36007 0.96662 0.0
H4183 H 0.99041 0.32847 0.95529 0.0
H4184 H 0.01732 0.38958 0.97299 0.0
H4185 H 0.98182 0.35795 0.01372 0.0
H4186 H 0.97435 0.33582 0.03516 0.0
H4187 H 0.02137 0.36197 0.07248 0.0
H4188 H 0.02924 0.38412 0.05112 0.0
H4189 H 0.99777 0.47118 0.01423 0.0
H4190 H 0.99528 0.43994 0.00199 0.0
H4191 H 0.04052 0.43859 0.0406 0.0
H4192 H 0.04331 0.46994 0.05259 0.0
H4193 H 0.01166 0.40778 0.03855 0.0
H4194 H 0.04623 0.44023 0.99774 0.0
H4195 H 0.05283 0.46253 0.97635 0.0
H4196 H 1.00618 0.43513 0.93913 0.0
H4197 H 0.99911 0.41282 0.96051 0.0
C4198 C 0.01837 0.33124 0.99484 0.0
C4199 C 0.0075 0.32317 0.9782 0.0
C4200 C 0.0204 0.34952 0.00127 0.0
C4201 C 0.01135 0.36044 0.99154 0.0
C4202 C 1.00078 0.35236 0.97467 0.0
C4203 C 0.99888 0.33411 0.96816 0.0
C4204 C 0.01268 0.37997 0.999 0.0
C4205 C 0.01582 0.39337 0.98729 0.0
C4206 C 0.01105 0.3856 0.01775 0.0
C4207 C 1.0062 0.37255 0.03076 0.0
C4208 C 0.9906 0.35892 0.02647 0.0
C4209 C 0.9863 0.34638 0.0386 0.0
C4210 C 0.9974 0.34745 0.05514 0.0
C4211 C 0.01279 0.36113 0.05964 0.0
C4212 C 0.01718 0.37369 0.04754 0.0
C4213 C 0.00719 0.46428 0.02021 0.0
C4214 C 0.02075 0.47333 0.03454 0.0
C4215 C 1.00579 0.4463 0.01309 0.0
C4216 C 0.01771 0.43657 0.02022 0.0
C4217 C 0.03107 0.44553 0.03473 0.0
C4218 C 0.0327 0.46361 0.04158 0.0
C4219 C 0.01633 0.41722 0.01259 0.0
C4220 C 0.01314 0.40391 0.02426 0.0
C4221 C 0.01775 0.41171 0.9938 0.0
C4222 C 0.02202 0.42496 0.98083 0.0
C4223 C 0.03728 0.43904 0.98508 0.0
C4224 C 0.04112 0.45168 0.97294 0.0
C4225 C 0.0299 0.45028 0.95641 0.0
C4226 C 0.01484 0.43621 0.95196 0.0
C4227 C 0.01091 0.42356 0.96408 0.0
H4228 H 0.0329 0.46007 0.94703 0.0
H4229 H 0.99406 0.33771 0.06451 0.0
H4230 H 0.99746 0.80743 0.15225 0.0
H4231 H 0.97034 0.80679 0.16699 0.0
H4232 H 0.9734 0.75631 0.18488 0.0
H4233 H 1.00041 0.75694 0.17048 0.0
H4234 H 0.93937 0.75675 0.16921 0.0
H4235 H 0.98643 0.79225 0.21517 0.0
H4236 H 0.01224 0.81743 0.22571 0.0
H4237 H 0.98002 0.85424 0.21385 0.0
H4238 H 0.95405 0.82922 0.20299 0.0
H4239 H 0.89076 0.7416 0.24213 0.0
H4240 H 0.91742 0.75156 0.22743 0.0
H4241 H 0.89635 0.79442 0.2086 0.0
H4242 H 0.86947 0.78442 0.22343 0.0
H4243 H 0.9374 0.80143 0.2221 0.0
H4244 H 0.88941 0.76504 0.17798 0.0
H4245 H 0.86411 0.73919 0.16808 0.0
H4246 H 0.89862 0.70379 0.17672 0.0
H4247 H 0.92408 0.72945 0.18693 0.0
C4248 C 0.99232 0.79622 0.15933 0.0
C4249 C 1.00114 0.78228 0.16027 0.0
C4250 C 0.97686 0.79588 0.16776 0.0
C4251 C 0.96987 0.78151 0.17706 0.0
C4252 C 0.97853 0.76751 0.17776 0.0
C4253 C 0.99405 0.76795 0.1696 0.0
C4254 C 0.95367 0.78092 0.18635 0.0
C4255 C 0.93896 0.76656 0.18073 0.0
C4256 C 0.95295 0.79387 0.20117 0.0
C4257 C 0.96837 0.8089 0.20811 0.0
C4258 C 0.98488 0.80572 0.21472 0.0
C4259 C 0.99953 0.81995 0.22076 0.0
C4260 C 0.99778 0.83742 0.2204 0.0
C4261 C 0.98135 0.84069 0.21409 0.0
C4262 C 0.96666 0.8265 0.20801 0.0
C4263 C 0.89201 0.75339 0.23523 0.0
C4264 C 0.87806 0.76219 0.2338 0.0
C4265 C 0.90723 0.75908 0.22687 0.0
C4266 C 0.90879 0.77364 0.21683 0.0
C4267 C 0.89543 0.78322 0.21639 0.0
C4268 C 0.88012 0.77752 0.22485 0.0
C4269 C 0.92329 0.77714 0.20507 0.0
C4270 C 0.93768 0.79192 0.21028 0.0
C4271 C 0.92377 0.76459 0.18981 0.0
C4272 C 0.9086 0.74914 0.18333 0.0
C4273 C 0.89157 0.75174 0.17788 0.0
C4274 C 0.87721 0.73713 0.1722 0.0
C4275 C 0.87976 0.71986 0.17181 0.0
C4276 C 0.89668 0.71717 0.17703 0.0
C4277 C 0.91108 0.73174 0.18274 0.0
H4278 H 0.86864 0.70856 0.16742 0.0
H4279 H 0.00915 0.84843 0.22506 0.0
H4280 H 0.55231 0.30824 0.16652 0.0
H4281 H 0.55277 0.33628 0.15372 0.0
H4282 H 0.49671 0.3182 0.13418 0.0
H4283 H 0.49606 0.2904 0.14776 0.0
H4284 H 0.52165 0.33056 0.10683 0.0
H4285 H 0.50586 0.34858 0.16661 0.0
H4286 H 0.50938 0.35368 0.20068 0.0
H4287 H 0.56052 0.38899 0.20151 0.0
H4288 H 0.55748 0.38383 0.16745 0.0
H4289 H 0.52215 0.40959 0.06676 0.0
H4290 H 0.51205 0.38491 0.08448 0.0
H4291 H 0.5589 0.40461 0.12465 0.0
H4292 H 0.56846 0.42943 0.10744 0.0
H4293 H 0.53462 0.39095 0.14213 0.0
H4294 H 0.55493 0.37132 0.08618 0.0
H4295 H 0.55615 0.36556 0.05269 0.0
H4296 H 0.50305 0.33267 0.04498 0.0
H4297 H 0.50138 0.33853 0.0784 0.0
C4298 C 0.54005 0.31038 0.15969 0.0
C4299 C 0.52414 0.29724 0.1581 0.0
C4300 C 0.54031 0.32639 0.15245 0.0
C4301 C 0.52476 0.32934 0.14306 0.0
C4302 C 0.50882 0.31622 0.14149 0.0
C4303 C 0.50844 0.3004 0.14924 0.0
C4304 C 0.52554 0.34559 0.13384 0.0
C4305 C 0.52408 0.34378 0.11448 0.0
C4306 C 0.52952 0.36283 0.14393 0.0
C4307 C 0.5315 0.36567 0.16445 0.0
C4308 C 0.51796 0.35725 0.17405 0.0
C4309 C 0.51985 0.36019 0.19337 0.0
C4310 C 0.53518 0.37162 0.20326 0.0
C4311 C 0.54867 0.38012 0.19384 0.0
C4312 C 0.54686 0.37719 0.17453 0.0
C4313 C 0.52985 0.40897 0.07977 0.0
C4314 C 0.54603 0.42143 0.0858 0.0
C4315 C 0.52426 0.3947 0.08974 0.0
C4316 C 0.53493 0.39253 0.10573 0.0
C4317 C 0.5504 0.4058 0.11239 0.0
C4318 C 0.55586 0.42006 0.10257 0.0
C4319 C 0.53086 0.37606 0.11494 0.0
C4320 C 0.53185 0.37778 0.13434 0.0
C4321 C 0.52714 0.35872 0.10493 0.0
C4322 C 0.52791 0.35562 0.08475 0.0
C4323 C 0.54342 0.36306 0.07731 0.0
C4324 C 0.54421 0.35975 0.05835 0.0
C4325 C 0.52966 0.34882 0.0467 0.0
C4326 C 0.51428 0.3412 0.054 0.0
C4327 C 0.51339 0.34454 0.07295 0.0
H4328 H 0.53032 0.34622 0.03203 0.0
H4329 H 0.5366 0.37392 0.21822 0.0
H4330 H 0.99151 0.30921 0.32351 0.0
H4331 H 0.96002 0.30717 0.31187 0.0
H4332 H 0.94354 0.27204 0.35177 0.0
H4333 H 0.97477 0.27439 0.36354 0.0
H4334 H 0.92278 0.2598 0.31974 0.0
H4335 H 0.94012 0.31489 0.35801 0.0
H4336 H 0.95778 0.34505 0.37026 0.0
H4337 H 0.94559 0.36306 0.31807 0.0
H4338 H 0.92801 0.33289 0.30542 0.0
H4339 H 0.83112 0.26076 0.31449 0.0
H4340 H 0.8627 0.26422 0.3244 0.0
H4341 H 0.87544 0.3024 0.28638 0.0
H4342 H 0.84358 0.29896 0.27642 0.0
H4343 H 0.89852 0.31342 0.31651 0.0
H4344 H 0.88078 0.25509 0.27916 0.0
H4345 H 0.86391 0.22395 0.26997 0.0
H4346 H 0.87613 0.21232 0.32518 0.0
H4347 H 0.89322 0.24322 0.33458 0.0
C4348 C 0.98118 0.30077 0.32953 0.0
C4349 C 0.98587 0.29164 0.34424 0.0
C4350 C 0.96305 0.29977 0.32302 0.0
C4351 C 0.949 0.28946 0.33086 0.0
C4352 C 0.9538 0.28005 0.34525 0.0
C4353 C 0.97181 0.28132 0.35196 0.0
C4354 C 0.9294 0.28837 0.3243 0.0
C4355 C 0.91758 0.27161 0.31918 0.0
C4356 C 0.92211 0.30357 0.32337 0.0
C4357 C 0.93297 0.32159 0.33069 0.0
C4358 C 0.94139 0.32523 0.34907 0.0
C4359 C 0.95133 0.34234 0.35611 0.0
C4360 C 0.95286 0.35595 0.34493 0.0
C4361 C 0.94443 0.35248 0.3267 0.0
C4362 C 0.93447 0.33538 0.31958 0.0
C4363 C 0.84051 0.26991 0.30809 0.0
C4364 C 0.83433 0.27956 0.29452 0.0
C4365 C 0.85885 0.27181 0.31376 0.0
C4366 C 0.87202 0.28331 0.30599 0.0
C4367 C 0.86591 0.29332 0.29273 0.0
C4368 C 0.84747 0.29141 0.28703 0.0
C4369 C 0.8919 0.28479 0.31171 0.0
C4370 C 0.90377 0.30163 0.31679 0.0
C4371 C 0.89923 0.26965 0.313 0.0
C4372 C 0.88828 0.25138 0.30753 0.0
C4373 C 0.87979 0.24587 0.28932 0.0
C4374 C 0.87028 0.22825 0.28406 0.0
C4375 C 0.86922 0.21612 0.29691 0.0
C4376 C 0.87724 0.22164 0.31515 0.0
C4377 C 0.88686 0.23917 0.32044 0.0
H4378 H 0.86226 0.20242 0.29274 0.0
H4379 H 0.96054 0.36921 0.35042 0.0
H4380 H 1.00494 0.7149 0.63392 0.0
H4381 H 1.00543 0.6865 0.61611 0.0
H4382 H 0.01035 0.6632 0.66665 0.0
H4383 H 0.00935 0.69138 0.6845 0.0
H4384 H 0.03515 0.65646 0.6426 0.0
H4385 H 0.97302 0.64981 0.64125 0.0
H4386 H 0.94416 0.65803 0.63677 0.0
H4387 H 0.94896 0.66075 0.57924 0.0
H4388 H 0.97803 0.65279 0.58347 0.0
H4389 H 0.01854 0.56565 0.59935 0.0
H4390 H 0.01565 0.59238 0.61842 0.0
H4391 H 0.01244 0.61899 0.56995 0.0
H4392 H 0.0158 0.59259 0.55096 0.0
H4393 H 0.98644 0.62337 0.594 0.0
H4394 H 0.04938 0.62867 0.59665 0.0
H4395 H 0.07692 0.61836 0.60236 0.0
H4396 H 0.06974 0.61679 0.65953 0.0
H4397 H 0.04175 0.62657 0.65398 0.0
C4398 C 1.00585 0.70366 0.64124 0.0
C4399 C 0.00689 0.70542 0.66066 0.0
C4400 C 1.00617 0.68742 0.63103 0.0
C4401 C 0.00793 0.67264 0.64 0.0
C4402 C 0.00897 0.67436 0.65938 0.0
C4403 C 0.00823 0.69047 0.66956 0.0
C4404 C 0.00894 0.65554 0.62914 0.0
C4405 C 0.02438 0.64912 0.63216 0.0
C4406 C 0.99506 0.64595 0.61534 0.0
C4407 C 0.97778 0.65097 0.61273 0.0
C4408 C 0.96802 0.65238 0.62769 0.0
C4409 C 0.95161 0.65693 0.62519 0.0
C4410 C 0.94476 0.65998 0.60775 0.0
C4411 C 0.95431 0.65843 0.59276 0.0
C4412 C 0.97075 0.6539 0.59519 0.0
C4413 C 0.01733 0.57718 0.59266 0.0
C4414 C 0.0179 0.57694 0.57344 0.0
C4415 C 0.01566 0.5925 0.60366 0.0
C4416 C 0.01401 0.60783 0.59569 0.0
C4417 C 0.01383 0.60741 0.57649 0.0
C4418 C 0.01591 0.59226 0.56558 0.0
C4419 C 0.01269 0.62437 0.60734 0.0
C4420 C 0.99719 0.63071 0.60445 0.0
C4421 C 0.02645 0.63373 0.62142 0.0
C4422 C 0.04334 0.62808 0.62484 0.0
C4423 C 0.05356 0.62592 0.6104 0.0
C4424 C 0.06928 0.6202 0.61362 0.0
C4425 C 0.07509 0.61686 0.63131 0.0
C4426 C 0.0652 0.61931 0.64582 0.0
C4427 C 0.04938 0.62491 0.64264 0.0
H4428 H 0.08725 0.61239 0.63381 0.0
H4429 H 0.93203 0.66349 0.60583 0.0
H4430 H 0.57495 0.78708 0.82148 0.0
H4431 H 0.60217 0.78232 0.80915 0.0
H4432 H 0.63275 0.80322 0.86231 0.0
H4433 H 0.60577 0.80755 0.87469 0.0
H4434 H 0.65127 0.81635 0.83496 0.0
H4435 H 0.62263 0.7585 0.84749 0.0
H4436 H 0.59764 0.73225 0.84528 0.0
H4437 H 0.59688 0.72373 0.78633 0.0
H4438 H 0.62176 0.7501 0.78819 0.0
H4439 H 0.73303 0.79335 0.82071 0.0
H4440 H 0.70517 0.79626 0.83184 0.0
H4441 H 0.67569 0.76474 0.78191 0.0
H4442 H 0.70374 0.76111 0.77106 0.0
H4443 H 0.65576 0.75697 0.80673 0.0
H4444 H 0.68421 0.81317 0.7934 0.0
H4445 H 0.70922 0.83842 0.7942 0.0
H4446 H 0.70894 0.85209 0.85257 0.0
H4447 H 0.6843 0.82575 0.85221 0.0
C4448 C 0.58746 0.79079 0.83055 0.0
C4449 C 0.58781 0.79779 0.84923 0.0
C4450 C 0.60317 0.78793 0.82348 0.0
C4451 C 0.61995 0.79225 0.83467 0.0
C4452 C 0.6203 0.79966 0.85314 0.0
C4453 C 0.60464 0.80214 0.86028 0.0
C4454 C 0.63705 0.78909 0.82745 0.0
C4455 C 0.6522 0.80327 0.82903 0.0
C4456 C 0.63869 0.77223 0.81914 0.0
C4457 C 0.62391 0.75633 0.81796 0.0
C4458 C 0.61705 0.75109 0.83404 0.0
C4459 C 0.60293 0.73619 0.83286 0.0
C4460 C 0.59565 0.72635 0.81567 0.0
C4461 C 0.60252 0.73138 0.79963 0.0
C4462 C 0.61664 0.74628 0.80075 0.0
C4463 C 0.72069 0.78695 0.81197 0.0
C4464 C 0.72109 0.77709 0.79472 0.0
C4465 C 0.70448 0.78876 0.81839 0.0
C4466 C 0.68771 0.7812 0.80774 0.0
C4467 C 0.68807 0.77096 0.79066 0.0
C4468 C 0.70433 0.76894 0.78431 0.0
C4469 C 0.67015 0.78428 0.81425 0.0
C4470 C 0.6549 0.77009 0.81262 0.0
C4471 C 0.66832 0.80121 0.82237 0.0
C4472 C 0.68259 0.81739 0.82279 0.0
C4473 C 0.68953 0.82148 0.80645 0.0
C4474 C 0.70372 0.83606 0.80686 0.0
C4475 C 0.71073 0.84716 0.82345 0.0
C4476 C 0.70353 0.84351 0.83971 0.0
C4477 C 0.68951 0.82865 0.83944 0.0
H4478 H 0.72173 0.85852 0.82373 0.0
H4479 H 0.5847 0.71482 0.81477 0.0
H4480 H 0.42303 0.50916 0.70643 0.0
H4481 H 0.43791 0.51314 0.67892 0.0
H4482 H 0.48841 0.53257 0.71333 0.0
H4483 H 0.47352 0.52828 0.74115 0.0
H4484 H 0.48242 0.55388 0.68476 0.0
H4485 H 0.47946 0.49259 0.69119 0.0
H4486 H 0.46518 0.46163 0.69437 0.0
H4487 H 0.43232 0.4569 0.64239 0.0
H4488 H 0.44615 0.48798 0.63908 0.0
H4489 H 0.53594 0.52853 0.61131 0.0
H4490 H 0.52171 0.52803 0.63943 0.0
H4491 H 0.4753 0.53906 0.61 0.0
H4492 H 0.49017 0.54143 0.58215 0.0
H4493 H 0.47949 0.50351 0.63613 0.0
H4494 H 0.47948 0.56563 0.63146 0.0
H4495 H 0.4932 0.5967 0.62822 0.0
H4496 H 0.5302 0.6001 0.67698 0.0
H4497 H 0.5171 0.56874 0.68004 0.0
C4498 C 0.43733 0.51424 0.70823 0.0
C4499 C 0.44708 0.51837 0.72608 0.0
C4500 C 0.44583 0.51646 0.69242 0.0
C4501 C 0.46431 0.5231 0.69397 0.0
C4502 C 0.47413 0.5274 0.71176 0.0
C4503 C 0.46564 0.52485 0.72765 0.0
C4504 C 0.47321 0.5256 0.67695 0.0
C4505 C 0.4819 0.54282 0.67423 0.0
C4506 C 0.4722 0.51129 0.6629 0.0
C4507 C 0.46369 0.49269 0.665 0.0
C4508 C 0.46903 0.48503 0.68055 0.0
C4509 C 0.46105 0.46744 0.68235 0.0
C4510 C 0.44781 0.45732 0.66862 0.0
C4511 C 0.44254 0.46477 0.65305 0.0
C4512 C 0.45044 0.48237 0.6512 0.0
C4513 C 0.52309 0.5318 0.61093 0.0
C4514 C 0.51463 0.53586 0.59448 0.0
C4515 C 0.51484 0.53122 0.62705 0.0
C4516 C 0.49763 0.53403 0.62705 0.0
C4517 C 0.48884 0.5375 0.61058 0.0
C4518 C 0.49736 0.53875 0.59459 0.0
C4519 C 0.48846 0.53178 0.64387 0.0
C4520 C 0.47988 0.51456 0.64663 0.0
C4521 C 0.48934 0.5461 0.65782 0.0
C4522 C 0.49769 0.56467 0.65561 0.0
C4523 C 0.49088 0.57281 0.64115 0.0
C4524 C 0.49847 0.59052 0.63942 0.0
C4525 C 0.51267 0.60033 0.6523 0.0
C4526 C 0.51931 0.59244 0.66692 0.0
C4527 C 0.51185 0.57468 0.66861 0.0
H4528 H 0.51845 0.61408 0.65101 0.0
H4529 H 0.44168 0.44368 0.67002 0.0
H4530 H 0.79792 0.16756 0.00285 0.0
H4531 H 0.79789 0.18092 0.97384 0.0
H4532 H 0.74109 0.15993 0.96158 0.0
H4533 H 0.74108 0.14701 0.99069 0.0
H4534 H 0.76123 0.1571 0.93036 0.0
H4535 H 0.75014 0.19834 0.97882 0.0
H4536 H 0.75585 0.21582 0.0098 0.0
H4537 H 0.80744 0.2426 0.99858 0.0
H4538 H 0.80208 0.22507 0.96757 0.0
H4539 H 0.72357 0.2154 0.87987 0.0
H4540 H 0.73292 0.19537 0.90054 0.0
H4541 H 0.78723 0.2259 0.90573 0.0
H4542 H 0.77787 0.24583 0.88485 0.0
H4543 H 0.77319 0.22306 0.9389 0.0
H4544 H 0.77931 0.18348 0.88611 0.0
H4545 H 0.77006 0.16564 0.85537 0.0
H4546 H 0.72358 0.13596 0.87467 0.0
H4547 H 0.73254 0.15364 0.90551 0.0
C4548 C 0.78557 0.16564 0.9937 0.0
C4549 C 0.76951 0.15641 0.99861 0.0
C4550 C 0.78555 0.17316 0.97728 0.0
C4551 C 0.7695 0.17121 0.96573 0.0
C4552 C 0.75357 0.16131 0.97033 0.0
C4553 C 0.75356 0.15409 0.98687 0.0
C4554 C 0.76892 0.18104 0.94984 0.0
C4555 C 0.76392 0.17152 0.9321 0.0
C4556 C 0.77246 0.19978 0.95238 0.0
C4557 C 0.77584 0.21023 0.97103 0.0
C4558 C 0.76279 0.20781 0.98305 0.0
C4559 C 0.76593 0.21776 0.00058 0.0
C4560 C 0.78203 0.23026 0.00619 0.0
C4561 C 0.795 0.23287 0.99424 0.0
C4562 C 0.79191 0.22294 0.97668 0.0
C4563 C 0.7375 0.21763 0.88535 0.0
C4564 C 0.75004 0.23212 0.88124 0.0
C4565 C 0.74285 0.20613 0.89685 0.0
C4566 C 0.76076 0.20916 0.9044 0.0
C4567 C 0.7734 0.22334 0.89981 0.0
C4568 C 0.76807 0.23471 0.8881 0.0
C4569 C 0.76561 0.19918 0.91922 0.0
C4570 C 0.77117 0.20868 0.93695 0.0
C4571 C 0.76215 0.18042 0.91665 0.0
C4572 C 0.75658 0.16991 0.89808 0.0
C4573 C 0.76706 0.17322 0.88375 0.0
C4574 C 0.7619 0.1631 0.86633 0.0
C4575 C 0.74624 0.14968 0.86306 0.0
C4576 C 0.73572 0.14634 0.87722 0.0
C4577 C 0.74087 0.15636 0.89469 0.0
H4578 H 0.74227 0.14187 0.84957 0.0
H4579 H 0.78444 0.23797 0.01976 0.0
H4580 H 0.12943 0.50723 0.22512 0.0
H4581 H 0.10913 0.50933 0.19799 0.0
H4582 H 0.14885 0.55192 0.18315 0.0
H4583 H 0.16934 0.54976 0.20989 0.0
H4584 H 0.11155 0.55732 0.18618 0.0
H4585 H 0.14542 0.5189 0.1574 0.0
H4586 H 0.15882 0.49294 0.15752 0.0
H4587 H 0.1071 0.45846 0.15611 0.0
H4588 H 0.09346 0.48428 0.15623 0.0
H4589 H 0.06122 0.56087 0.10038 0.0
H4590 H 0.08422 0.56209 0.12614 0.0
H4591 H 0.06203 0.50663 0.13035 0.0
H4592 H 0.04146 0.50482 0.10245 0.0
H4593 H 0.09382 0.51005 0.13226 0.0
H4594 H 0.05913 0.54716 0.16261 0.0
H4595 H 0.04492 0.57261 0.16409 0.0
H4596 H 0.09575 0.60857 0.16505 0.0
H4597 H 0.11019 0.5833 0.16334 0.0
C4598 C 0.1339 0.5168 0.21588 0.0
C4599 C 0.15088 0.52827 0.21945 0.0
C4600 C 0.12234 0.51806 0.20058 0.0
C4601 C 0.12767 0.53089 0.18896 0.0
C4602 C 0.14469 0.54206 0.19221 0.0
C4603 C 0.15635 0.54063 0.2073 0.0
C4604 C 0.11538 0.53252 0.17327 0.0
C4605 C 0.10765 0.54713 0.17424 0.0
C4606 C 0.11044 0.51907 0.15809 0.0
C4607 C 0.11846 0.50347 0.15687 0.0
C4608 C 0.13693 0.50577 0.15711 0.0
C4609 C 0.14456 0.49109 0.15716 0.0
C4610 C 0.13382 0.47406 0.15684 0.0
C4611 C 0.11541 0.47165 0.15634 0.0
C4612 C 0.10771 0.48629 0.15631 0.0
C4613 C 0.0613 0.5491 0.10709 0.0
C4614 C 0.04997 0.53276 0.09969 0.0
C4615 C 0.07426 0.5498 0.12189 0.0
C4616 C 0.07473 0.5345 0.13042 0.0
C4617 C 0.06211 0.51855 0.12387 0.0
C4618 C 0.05017 0.51755 0.10822 0.0
C4619 C 0.08895 0.53453 0.14532 0.0
C4620 C 0.0974 0.5203 0.14413 0.0
C4621 C 0.09422 0.54819 0.16052 0.0
C4622 C 0.08569 0.56338 0.16276 0.0
C4623 C 0.06725 0.56051 0.1632 0.0
C4624 C 0.05916 0.57489 0.16402 0.0
C4625 C 0.06942 0.5922 0.16462 0.0
C4626 C 0.08782 0.59517 0.16457 0.0
C4627 C 0.09597 0.58084 0.16372 0.0
H4628 H 0.06311 0.6033 0.16514 0.0
H4629 H 0.13976 0.46272 0.15697 0.0
H4630 H 0.76254 0.85214 0.48513 0.0
H4631 H 0.75828 0.83998 0.45217 0.0
H4632 H 0.81202 0.8331 0.45732 0.0
H4633 H 0.81616 0.84467 0.49023 0.0
H4634 H 0.80315 0.84823 0.42524 0.0
H4635 H 0.78135 0.79897 0.45654 0.0
H4636 H 0.7633 0.7815 0.47693 0.0
H4637 H 0.71553 0.78258 0.44233 0.0
H4638 H 0.73331 0.80046 0.42196 0.0
H4639 H 0.80258 0.78338 0.34921 0.0
H4640 H 0.80232 0.79571 0.3811 0.0
H4641 H 0.75315 0.8104 0.36507 0.0
H4642 H 0.75401 0.79904 0.33271 0.0
H4643 H 0.75798 0.79226 0.40162 0.0
H4644 H 0.78274 0.84202 0.36944 0.0
H4645 H 0.80256 0.85044 0.34602 0.0
H4646 H 0.84706 0.84356 0.38204 0.0
H4647 H 0.82743 0.83467 0.40549 0.0
C4648 C 0.7734 0.84796 0.47923 0.0
C4649 C 0.78961 0.84918 0.49038 0.0
C4650 C 0.77097 0.84105 0.46039 0.0
C4651 C 0.78484 0.83562 0.45221 0.0
C4652 C 0.80114 0.83722 0.46325 0.0
C4653 C 0.80342 0.84369 0.48213 0.0
C4654 C 0.78227 0.82772 0.43235 0.0
C4655 C 0.79318 0.83607 0.42014 0.0
C4656 C 0.76939 0.81174 0.42552 0.0
C4657 C 0.75864 0.80135 0.43794 0.0
C4658 C 0.76698 0.79575 0.45345 0.0
C4659 C 0.7568 0.78572 0.46497 0.0
C4660 C 0.73827 0.78101 0.46099 0.0
C4661 C 0.72988 0.78631 0.44546 0.0
C4662 C 0.74 0.79642 0.43393 0.0
C4663 C 0.79183 0.78934 0.35231 0.0
C4664 C 0.77868 0.79068 0.33821 0.0
C4665 C 0.79155 0.7962 0.37067 0.0
C4666 C 0.77771 0.80399 0.3755 0.0
C4667 C 0.76396 0.80446 0.36167 0.0
C4668 C 0.76457 0.79809 0.34316 0.0
C4669 C 0.77856 0.81295 0.39467 0.0
C4670 C 0.76751 0.80473 0.40671 0.0
C4671 C 0.7914 0.8289 0.40142 0.0
C4672 C 0.80362 0.83752 0.3891 0.0
C4673 C 0.7968 0.84252 0.37244 0.0
C4674 C 0.80795 0.84724 0.35912 0.0
C4675 C 0.82596 0.84724 0.36249 0.0
C4676 C 0.83305 0.84336 0.37945 0.0
C4677 C 0.82193 0.83852 0.39277 0.0
H4678 H 0.83441 0.85 0.35189 0.0
H4679 H 0.73041 0.77319 0.46989 0.0
H4680 H 0.44504 0.48789 0.83514 0.0
H4681 H 0.45705 0.49051 0.86789 0.0
H4682 H 0.48011 0.54624 0.86762 0.0
H4683 H 0.46735 0.54379 0.83492 0.0
H4684 H 0.50428 0.52545 0.88268 0.0
H4685 H 0.44787 0.53808 0.89025 0.0
H4686 H 0.41527 0.53382 0.88664 0.0
H4687 H 0.41009 0.48459 0.90958 0.0
H4688 H 0.44267 0.4884 0.91304 0.0
H4689 H 0.53252 0.54542 0.98045 0.0
H4690 H 0.52005 0.54524 0.94819 0.0
H4691 H 0.48655 0.49306 0.94869 0.0
H4692 H 0.49872 0.49359 0.98104 0.0
H4693 H 0.4677 0.51344 0.9335 0.0
H4694 H 0.52341 0.49975 0.92528 0.0
H4695 H 0.55597 0.50365 0.92974 0.0
H4696 H 0.56247 0.55363 0.90812 0.0
H4697 H 0.52993 0.55018 0.90386 0.0
C4698 C 0.45259 0.50073 0.84211 0.0
C4699 C 0.45533 0.51563 0.83248 0.0
C4700 C 0.45939 0.50223 0.86085 0.0
C4701 C 0.4695 0.51857 0.87029 0.0
C4702 C 0.47232 0.5335 0.86066 0.0
C4703 C 0.46502 0.53211 0.84201 0.0
C4704 C 0.47769 0.51974 0.88992 0.0
C4705 C 0.49629 0.52312 0.89386 0.0
C4706 C 0.46731 0.51615 0.90446 0.0
C4707 C 0.44769 0.5134 0.90163 0.0
C4708 C 0.43977 0.52619 0.89423 0.0
C4709 C 0.42129 0.5239 0.8923 0.0
C4710 C 0.4106 0.50891 0.89781 0.0
C4711 C 0.41837 0.49617 0.90526 0.0
C4712 C 0.43684 0.49838 0.9072 0.0
C4713 C 0.52264 0.53386 0.97352 0.0
C4714 C 0.51682 0.51934 0.98304 0.0
C4715 C 0.51554 0.53372 0.95508 0.0
C4716 C 0.50244 0.51904 0.94578 0.0
C4717 C 0.49666 0.50452 0.95541 0.0
C4718 C 0.50376 0.5047 0.97385 0.0
C4719 C 0.49432 0.51903 0.9263 0.0
C4720 C 0.47573 0.51581 0.92236 0.0
C4721 C 0.5047 0.5226 0.91173 0.0
C4722 C 0.52426 0.52481 0.91445 0.0
C4723 C 0.53179 0.51166 0.92166 0.0
C4724 C 0.55024 0.51378 0.92412 0.0
C4725 C 0.56129 0.5289 0.91926 0.0
C4726 C 0.5539 0.54194 0.91191 0.0
C4727 C 0.53546 0.53992 0.90948 0.0
H4728 H 0.57558 0.5305 0.92114 0.0
H4729 H 0.39631 0.5072 0.89637 0.0
H4730 H 0.78247 0.13482 0.1168 0.0
H4731 H 0.78081 0.15346 0.14545 0.0
H4732 H 0.76455 0.19201 0.11321 0.0
H4733 H 0.76717 0.17409 0.08492 0.0
H4734 H 0.7909 0.20718 0.13761 0.0
H4735 H 0.73548 0.16562 0.13674 0.0
H4736 H 0.71431 0.13669 0.13581 0.0
H4737 H 0.74249 0.12771 0.18616 0.0
H4738 H 0.76398 0.15647 0.18726 0.0
H4739 H 0.76186 0.25703 0.21154 0.0
H4740 H 0.76082 0.23685 0.18341 0.0
H4741 H 0.79582 0.20993 0.2127 0.0
H4742 H 0.79769 0.23048 0.24072 0.0
H4743 H 0.75948 0.18904 0.19055 0.0
H4744 H 0.81531 0.23232 0.18911 0.0
H4745 H 0.83359 0.26262 0.18936 0.0
H4746 H 0.80032 0.26929 0.14131 0.0
H4747 H 0.78159 0.23916 0.14104 0.0
C4748 C 0.77878 0.1474 0.11603 0.0
C4749 C 0.77552 0.15345 0.09897 0.0
C4750 C 0.77752 0.1578 0.13223 0.0
C4751 C 0.77247 0.17395 0.13124 0.0
C4752 C 0.7686 0.17961 0.11411 0.0
C4753 C 0.77033 0.16952 0.09807 0.0
C4754 C 0.77311 0.18602 0.14799 0.0
C4755 C 0.7838 0.20325 0.14906 0.0
C4756 C 0.76405 0.18068 0.16292 0.0
C4757 C 0.75149 0.1631 0.16194 0.0
C4758 C 0.73731 0.15737 0.14748 0.0
C4759 C 0.72521 0.14103 0.14696 0.0
C4760 C 0.72709 0.13034 0.16088 0.0
C4761 C 0.74107 0.13598 0.17536 0.0
C4762 C 0.75322 0.1523 0.17594 0.0
C4763 C 0.76961 0.24704 0.21189 0.0
C4764 C 0.77998 0.24533 0.22815 0.0
C4765 C 0.76887 0.23554 0.19595 0.0
C4766 C 0.77824 0.22216 0.19636 0.0
C4767 C 0.78854 0.22032 0.21247 0.0
C4768 C 0.7896 0.23203 0.22832 0.0
C4769 C 0.77713 0.20989 0.17986 0.0
C4770 C 0.76644 0.19275 0.17894 0.0
C4771 C 0.78579 0.21538 0.16484 0.0
C4772 C 0.79691 0.23359 0.16522 0.0
C4773 C 0.81173 0.24034 0.17877 0.0
C4774 C 0.82222 0.25747 0.17888 0.0
C4775 C 0.8181 0.2679 0.16539 0.0
C4776 C 0.80348 0.26122 0.15178 0.0
C4777 C 0.79292 0.24413 0.15165 0.0
H4778 H 0.82626 0.28113 0.16548 0.0
H4779 H 0.71768 0.11772 0.16048 0.0
H4780 H 0.11811 0.53594 0.30491 0.0
H4781 H 0.1052 0.53956 0.33349 0.0
H4782 H 0.1553 0.53969 0.36515 0.0
H4783 H 0.16826 0.53555 0.33636 0.0
H4784 H 0.12834 0.51977 0.37832 0.0
H4785 H 0.14202 0.57912 0.36353 0.0
H4786 H 0.1432 0.60409 0.34515 0.0
H4787 H 0.08611 0.59218 0.33557 0.0
H4788 H 0.08459 0.56706 0.35374 0.0
H4789 H 0.09461 0.55794 0.45846 0.0
H4790 H 0.11147 0.54791 0.43477 0.0
H4791 H 0.06592 0.54147 0.39343 0.0
H4792 H 0.04907 0.55165 0.41701 0.0
H4793 H 0.09511 0.56678 0.38845 0.0
H4794 H 0.08209 0.50598 0.40249 0.0
H4795 H 0.08187 0.48169 0.42165 0.0
H4796 H 0.13881 0.49757 0.43392 0.0
H4797 H 0.13934 0.5221 0.41503 0.0
C4798 C 0.12634 0.53658 0.31795 0.0
C4799 C 0.14412 0.5354 0.31851 0.0
C4800 C 0.11902 0.53885 0.33425 0.0
C4801 C 0.12946 0.5403 0.35136 0.0
C4802 C 0.14713 0.5387 0.352 0.0
C4803 C 0.15444 0.53621 0.33562 0.0
C4804 C 0.12151 0.54288 0.36844 0.0
C4805 C 0.12133 0.53023 0.38077 0.0
C4806 C 0.11233 0.55648 0.37147 0.0
C4807 C 0.11321 0.57113 0.35989 0.0
C4808 C 0.12973 0.5817 0.35733 0.0
C4809 C 0.13045 0.59593 0.347 0.0
C4810 C 0.11474 0.5997 0.33917 0.0
C4811 C 0.09827 0.58924 0.34163 0.0
C4812 C 0.09747 0.57503 0.35196 0.0
C4813 C 0.08808 0.55391 0.44438 0.0
C4814 C 0.07076 0.55595 0.43933 0.0
C4815 C 0.09766 0.54806 0.43095 0.0
C4816 C 0.08989 0.54408 0.41246 0.0
C4817 C 0.07206 0.54457 0.40771 0.0
C4818 C 0.06256 0.55055 0.42107 0.0
C4819 C 0.1011 0.54309 0.39769 0.0
C4820 C 0.10216 0.55633 0.38602 0.0
C4821 C 0.11117 0.53016 0.39546 0.0
C4822 C 0.11073 0.51598 0.40753 0.0
C4823 C 0.09453 0.50445 0.40949 0.0
C4824 C 0.09436 0.49058 0.42023 0.0
C4825 C 0.1103 0.48809 0.42901 0.0
C4826 C 0.12646 0.49951 0.42714 0.0
C4827 C 0.1267 0.51339 0.41642 0.0
H4828 H 0.11014 0.47728 0.43722 0.0
H4829 H 0.11533 0.61075 0.33123 0.0
H4830 H 0.80021 0.88322 0.61602 0.0
H4831 H 0.79546 0.86904 0.64393 0.0
H4832 H 0.77039 0.81919 0.61028 0.0
H4833 H 0.77557 0.83327 0.58213 0.0
H4834 H 0.75128 0.82952 0.64087 0.0
H4835 H 0.80933 0.82267 0.62924 0.0
H4836 H 0.84035 0.83313 0.62344 0.0
H4837 H 0.85232 0.86679 0.67562 0.0
H4838 H 0.82124 0.85682 0.68155 0.0
H4839 H 0.77799 0.77325 0.71384 0.0
H4840 H 0.77961 0.78745 0.68568 0.0
H4841 H 0.76347 0.83207 0.71271 0.0
H4842 H 0.76033 0.81728 0.7405 0.0
H4843 H 0.8021 0.82436 0.68519 0.0
H4844 H 0.74171 0.83729 0.69149 0.0
H4845 H 0.71029 0.82766 0.69632 0.0
H4846 H 0.70274 0.78369 0.65331 0.0
H4847 H 0.73439 0.7927 0.64884 0.0
C4848 C 0.79373 0.86921 0.61451 0.0
C4849 C 0.78835 0.85936 0.59679 0.0
C4850 C 0.79103 0.86112 0.63052 0.0
C4851 C 0.78256 0.84303 0.62927 0.0
C4852 C 0.77695 0.83316 0.61161 0.0
C4853 C 0.78002 0.84118 0.59553 0.0
C4854 C 0.7798 0.8345 0.64645 0.0
C4855 C 0.76242 0.82837 0.65051 0.0
C4856 C 0.79425 0.83318 0.65927 0.0
C4857 C 0.81292 0.83916 0.65573 0.0
C4858 C 0.81853 0.83245 0.63938 0.0
C4859 C 0.83613 0.83827 0.63608 0.0
C4860 C 0.84829 0.85066 0.64913 0.0
C4861 C 0.84287 0.85723 0.66551 0.0
C4862 C 0.82527 0.8515 0.66884 0.0
C4863 C 0.77423 0.78585 0.7137 0.0
C4864 C 0.76864 0.79388 0.72948 0.0
C4865 C 0.77526 0.79401 0.69753 0.0
C4866 C 0.77108 0.81061 0.69671 0.0
C4867 C 0.76591 0.8189 0.71254 0.0
C4868 C 0.76436 0.8105 0.72859 0.0
C4869 C 0.77359 0.81965 0.67979 0.0
C4870 C 0.79097 0.82571 0.67565 0.0
C4871 C 0.75917 0.8212 0.66705 0.0
C4872 C 0.74052 0.81524 0.67038 0.0
C4873 C 0.73349 0.82524 0.68352 0.0
C4874 C 0.71562 0.81997 0.6861 0.0
C4875 C 0.70456 0.80495 0.67527 0.0
C4876 C 0.71137 0.79519 0.66185 0.0
C4877 C 0.7293 0.8003 0.65938 0.0
H4878 H 0.69068 0.80098 0.67716 0.0
H4879 H 0.86192 0.85512 0.64656 0.0
H4880 H 0.75794 0.47398 0.50935 0.0
H4881 H 0.73214 0.48538 0.51611 0.0
H4882 H 0.70091 0.43162 0.51369 0.0
H4883 H 0.72655 0.42013 0.50609 0.0
H4884 H 0.68158 0.4526 0.49973 0.0
H4885 H 0.72 0.4545 0.55567 0.0
H4886 H 0.74816 0.46134 0.57685 0.0
H4887 H 0.75399 0.5171 0.57345 0.0
H4888 H 0.72595 0.51059 0.55215 0.0
H4889 H 0.621 0.48882 0.55232 0.0
H4890 H 0.63929 0.47145 0.53687 0.0
H4891 H 0.68162 0.51901 0.54178 0.0
H4892 H 0.66411 0.53557 0.55931 0.0
H4893 H 0.69315 0.49564 0.557 0.0
H4894 H 0.65539 0.49223 0.49713 0.0
H4895 H 0.627 0.48382 0.47617 0.0
H4896 H 0.61941 0.42997 0.48828 0.0
H4897 H 0.64772 0.43809 0.50926 0.0
C4898 C 0.7454 0.46466 0.50973 0.0
C4899 C 0.74403 0.44629 0.5073 0.0
C4900 C 0.73081 0.47112 0.51375 0.0
C4901 C 0.71497 0.45925 0.51592 0.0
C4902 C 0.71318 0.44087 0.51218 0.0
C4903 C 0.72771 0.43437 0.50775 0.0
C4904 C 0.70068 0.46621 0.52301 0.0
C4905 C 0.68397 0.46194 0.51232 0.0
C4906 C 0.70393 0.47809 0.53957 0.0
C4907 C 0.72094 0.48203 0.55221 0.0
C4908 C 0.72737 0.4682 0.55933 0.0
C4909 C 0.74328 0.47203 0.57139 0.0
C4910 C 0.75288 0.48964 0.57646 0.0
C4911 C 0.74656 0.50347 0.56951 0.0
C4912 C 0.73064 0.49972 0.55748 0.0
C4913 C 0.63425 0.49536 0.54999 0.0
C4914 C 0.64171 0.51306 0.55756 0.0
C4915 C 0.64451 0.48561 0.54083 0.0
C4916 C 0.66187 0.49394 0.53831 0.0
C4917 C 0.66835 0.51229 0.54391 0.0
C4918 C 0.65846 0.52173 0.55388 0.0
C4919 C 0.67442 0.48342 0.53279 0.0
C4920 C 0.69071 0.48652 0.54424 0.0
C4921 C 0.6707 0.47044 0.51703 0.0
C4922 C 0.65352 0.4658 0.50484 0.0
C4923 C 0.64756 0.47864 0.49541 0.0
C4924 C 0.63153 0.47391 0.48349 0.0
C4925 C 0.62138 0.45638 0.48094 0.0
C4926 C 0.62726 0.44354 0.49028 0.0
C4927 C 0.6433 0.44818 0.50214 0.0
H4928 H 0.60899 0.45275 0.4717 0.0
H4929 H 0.76519 0.49257 0.5858 0.0
H4930 H 0.21284 0.13902 0.48513 0.0
H4931 H 0.18271 0.12135 0.48625 0.0
H4932 H 0.19921 0.11121 0.54147 0.0
H4933 H 0.22948 0.12734 0.53952 0.0
H4934 H 0.17958 0.08356 0.52635 0.0
H4935 H 0.17221 0.14386 0.52808 0.0
H4936 H 0.17347 0.17284 0.51672 0.0
H4937 H 0.13974 0.14672 0.46689 0.0
H4938 H 0.13847 0.11759 0.47786 0.0
H4939 H 0.09455 0.05286 0.55291 0.0
H4940 H 0.12408 0.07028 0.54993 0.0
H4941 H 0.10562 0.07674 0.49396 0.0
H4942 H 0.07554 0.06067 0.49769 0.0
H4943 H 0.12595 0.10564 0.50832 0.0
H4944 H 0.13327 0.04492 0.50855 0.0
H4945 H 0.13163 0.01686 0.52197 0.0
H4946 H 0.16549 0.04532 0.5708 0.0
H4947 H 0.16718 0.07353 0.55775 0.0
C4948 C 0.20997 0.13277 0.49735 0.0
C4949 C 0.22345 0.13432 0.51213 0.0
C4950 C 0.19269 0.12289 0.49814 0.0
C4951 C 0.18839 0.11516 0.51413 0.0
C4952 C 0.20201 0.11686 0.5289 0.0
C4953 C 0.21936 0.12608 0.52779 0.0
C4954 C 0.16997 0.10495 0.51557 0.0
C4955 C 0.16792 0.08859 0.5226 0.0
C4956 C 0.15452 0.11108 0.51031 0.0
C4957 C 0.1554 0.12857 0.50371 0.0
C4958 C 0.16518 0.14431 0.51465 0.0
C4959 C 0.16587 0.16075 0.50828 0.0
C4960 C 0.15673 0.16162 0.49107 0.0
C4961 C 0.14684 0.14604 0.4802 0.0
C4962 C 0.14612 0.12957 0.48648 0.0
C4963 C 0.09686 0.05794 0.53994 0.0
C4964 C 0.08287 0.05532 0.52544 0.0
C4965 C 0.11381 0.0678 0.53818 0.0
C4966 C 0.1174 0.07442 0.52148 0.0
C4967 C 0.10332 0.07174 0.50696 0.0
C4968 C 0.08616 0.06249 0.50902 0.0
C4969 C 0.13566 0.08439 0.51923 0.0
C4970 C 0.13765 0.10066 0.51202 0.0
C4971 C 0.15111 0.07832 0.52458 0.0
C4972 C 0.15029 0.0613 0.5322 0.0
C4973 C 0.14033 0.04517 0.52215 0.0
C4974 C 0.13938 0.02925 0.5297 0.0
C4975 C 0.14843 0.02931 0.54723 0.0
C4976 C 0.15849 0.04528 0.55723 0.0
C4977 C 0.15947 0.06123 0.54975 0.0
H4978 H 0.14767 0.01697 0.55305 0.0
H4979 H 0.15727 0.17436 0.48617 0.0
H4980 H 0.17933 0.99069 0.81337 0.0
H4981 H 0.19253 0.96463 0.81022 0.0
H4982 H 0.16543 0.94943 0.75453 0.0
H4983 H 0.15282 0.97571 0.75743 0.0
H4984 H 0.16487 0.92028 0.77674 0.0
H4985 H 0.20454 0.96994 0.75714 0.0
H4986 H 0.22251 1.0008 0.76132 0.0
H4987 H 0.25391 0.9903 0.80881 0.0
H4988 H 0.23588 0.95942 0.80507 0.0
H4989 H 0.21076 0.86796 0.72629 0.0
H4990 H 0.19525 0.8891 0.73976 0.0
H4991 H 0.23645 0.90434 0.78663 0.0
H4992 H 0.2526 0.88366 0.77247 0.0
H4993 H 0.22995 0.93273 0.77412 0.0
H4994 H 0.19205 0.88073 0.79031 0.0
H4995 H 0.17371 0.84998 0.78474 0.0
H4996 H 0.13882 0.86449 0.74274 0.0
H4997 H 0.15703 0.89531 0.74797 0.0
C4998 C 0.17605 0.98158 0.80061 0.0
C4999 C 0.16512 0.98503 0.78563 0.0
C5000 C 0.18356 0.96679 0.79881 0.0
C5001 C 0.17988 0.95514 0.78216 0.0
C5002 C 0.16832 0.95821 0.76751 0.0
C5003 C 0.16121 0.97321 0.76914 0.0
C5004 C 0.18914 0.94054 0.77932 0.0
C5005 C 0.1791 0.92293 0.7762 0.0
C5006 C 0.2077 0.94407 0.77888 0.0
C5007 C 0.21873 0.96249 0.78099 0.0
C5008 C 0.21517 0.97427 0.76858 0.0
C5009 C 0.22538 0.99175 0.77085 0.0
C5010 C 0.2393 0.99753 0.78537 0.0
C5011 C 0.24309 0.98581 0.7976 0.0
C5012 C 0.23288 0.96833 0.79542 0.0
C5013 C 0.21639 0.87565 0.7396 0.0
C5014 C 0.23287 0.87423 0.74834 0.0
C5015 C 0.20742 0.88762 0.74741 0.0
C5016 C 0.2145 0.89819 0.76438 0.0
C5017 C 0.23066 0.89627 0.77357 0.0
C5018 C 0.23979 0.88435 0.7656 0.0
C5019 C 0.20573 0.91223 0.77149 0.0
C5020 C 0.21582 0.92988 0.77522 0.0
C5021 C 0.18717 0.9087 0.77242 0.0
C5022 C 0.17593 0.8903 0.76952 0.0
C5023 C 0.18049 0.87734 0.77986 0.0
C5024 C 0.17011 0.85991 0.77677 0.0
C5025 C 0.15512 0.85528 0.76338 0.0
C5026 C 0.15042 0.8681 0.75313 0.0
C5027 C 0.16073 0.88557 0.75619 0.0
H5028 H 0.14714 0.84176 0.76096 0.0
H5029 H 0.24719 0.01107 0.78711 0.0
H5030 H 0.34267 0.91825 0.00225 0.0
H5031 H 0.37424 0.93226 0.01139 0.0
H5032 H 0.36166 0.98366 0.02005 0.0
H5033 H 0.33035 0.97 0.01052 0.0
H5034 H 0.38737 0.98298 0.99884 0.0
H5035 H 0.37221 0.96221 0.05667 0.0
H5036 H 0.36129 0.93969 0.07672 0.0
H5037 H 0.40099 0.91172 0.06279 0.0
H5038 H 0.41199 0.93395 0.04249 0.0
H5039 H 0.47109 0.03416 0.03395 0.0
H5040 H 0.43957 0.02032 0.03367 0.0
H5041 H 0.45183 0.96861 0.03192 0.0
H5042 H 0.48327 0.98243 0.03318 0.0
H5043 H 0.42606 0.96908 0.05078 0.0
H5044 H 0.43667 0.9837 0.98901 0.0
H5045 H 0.44489 1.00169 0.96409 0.0
H5046 H 0.41388 0.03791 0.98253 0.0
H5047 H 0.40508 0.0198 0.00724 0.0
C5048 C 0.34671 0.93255 0.00594 0.0
C5049 C 0.33418 0.94309 0.00561 0.0
C5050 C 0.36461 0.94044 0.01139 0.0
C5051 C 0.36997 0.95883 0.01672 0.0
C5052 C 0.35755 0.96938 0.01612 0.0
C5053 C 0.33975 0.96158 0.0105 0.0
C5054 C 0.38873 0.9675 0.02142 0.0
C5055 C 0.39579 0.98019 0.01041 0.0
C5056 C 0.39965 0.96315 0.036 0.0
C5057 C 0.3928 0.94965 0.04795 0.0
C5058 C 0.37848 0.95116 0.05775 0.0
C5059 C 0.37231 0.93847 0.06919 0.0
C5060 C 0.38041 0.92427 0.071 0.0
C5061 C 0.39471 0.92272 0.06137 0.0
C5062 C 0.40092 0.93536 0.04991 0.0
C5063 C 0.46699 0.01991 0.03405 0.0
C5064 C 0.4793 0.00924 0.0334 0.0
C5065 C 0.4491 0.01204 0.03372 0.0
C5066 C 0.4435 0.99347 0.0322 0.0
C5067 C 0.45599 0.98297 0.033 0.0
C5068 C 0.4739 0.99087 0.03376 0.0
C5069 C 0.42461 0.98483 0.02837 0.0
C5070 C 0.41756 0.97203 0.03938 0.0
C5071 C 0.41367 0.98875 0.01352 0.0
C5072 C 0.42047 1.00061 1.00007 0.0
C5073 C 0.43187 0.99567 0.98791 0.0
C5074 C 0.43653 0.00582 0.97376 0.0
C5075 C 0.43003 0.02102 0.97182 0.0
C5076 C 0.41894 0.02617 0.98408 0.0
C5077 C 0.41405 0.01594 0.9981 0.0
H5078 H 0.4334 0.02873 0.9607 0.0
H5079 H 0.37564 0.91448 0.07989 0.0
H5080 H 0.88134 0.57945 0.80342 0.0
H5081 H 0.8701 0.60552 0.79735 0.0
H5082 H 0.82301 0.58482 0.8222 0.0
H5083 H 0.83372 0.55804 0.82682 0.0
H5084 H 0.81449 0.59188 0.78963 0.0
H5085 H 0.85771 0.62383 0.84153 0.0
H5086 H 0.88823 0.63276 0.85812 0.0
H5087 H 0.90666 0.65804 0.8121 0.0
H5088 H 0.87632 0.64899 0.7951 0.0
H5089 H 0.77451 0.66248 0.77716 0.0
H5090 H 0.79048 0.64426 0.7947 0.0
H5091 H 0.83495 0.65817 0.76402 0.0
H5092 H 0.81891 0.67624 0.74638 0.0
H5093 H 0.84523 0.65587 0.80115 0.0
H5094 H 0.80573 0.62338 0.7486 0.0
H5095 H 0.7775 0.61192 0.72795 0.0
H5096 H 0.75429 0.58538 0.77112 0.0
H5097 H 0.78225 0.59715 0.79225 0.0
C5098 C 0.86891 0.5809 0.80816 0.0
C5099 C 0.85841 0.56719 0.81584 0.0
C5100 C 0.86252 0.59575 0.80475 0.0
C5101 C 0.84587 0.59723 0.80965 0.0
C5102 C 0.83595 0.58394 0.81846 0.0
C5103 C 0.84207 0.5688 0.82125 0.0
C5104 C 0.83771 0.61129 0.80338 0.0
C5105 C 0.82098 0.60593 0.79265 0.0
C5106 C 0.84673 0.62945 0.8064 0.0
C5107 C 0.86475 0.63571 0.81705 0.0
C5108 C 0.86827 0.6313 0.83496 0.0
C5109 C 0.88555 0.63635 0.84441 0.0
C5110 C 0.89937 0.64596 0.83617 0.0
C5111 C 0.89594 0.65062 0.81848 0.0
C5112 C 0.8787 0.64556 0.80894 0.0
C5113 C 0.78782 0.66182 0.77447 0.0
C5114 C 0.7955 0.67028 0.76032 0.0
C5115 C 0.79689 0.65155 0.78446 0.0
C5116 C 0.81371 0.64983 0.7804 0.0
C5117 C 0.82193 0.65939 0.76723 0.0
C5118 C 0.81277 0.66949 0.75709 0.0
C5119 C 0.82176 0.63642 0.78818 0.0
C5120 C 0.83855 0.64186 0.79877 0.0
C5121 C 0.81298 0.61821 0.78473 0.0
C5122 C 0.796 0.61147 0.77215 0.0
C5123 C 0.79452 0.61538 0.75382 0.0
C5124 C 0.77857 0.60878 0.742 0.0
C5125 C 0.76408 0.59801 0.74824 0.0
C5126 C 0.7655 0.59381 0.76633 0.0
C5127 C 0.78138 0.60049 0.77825 0.0
H5128 H 0.75176 0.59284 0.73904 0.0
H5129 H 0.91275 0.6498 0.84349 0.0
H5130 H 0.81123 0.62653 0.0567 0.0
H5131 H 0.83724 0.614 0.05925 0.0
H5132 H 0.85445 0.63753 0.01151 0.0
H5133 H 0.8281 0.65016 0.00871 0.0
H5134 H 0.85765 0.60295 0.0106 0.0
H5135 H 0.87628 0.65608 0.05319 0.0
H5136 H 0.87504 0.67893 0.0787 0.0
H5137 H 0.8706 0.63992 0.11639 0.0
H5138 H 0.87162 0.61679 0.09107 0.0
H5139 H 0.94328 0.58239 0.03782 0.0
H5140 H 0.91873 0.59537 0.02644 0.0
H5141 H 0.89065 0.57806 0.07156 0.0
H5142 H 0.91528 0.56556 0.0831 0.0
H5143 H 0.89644 0.6135 0.07077 0.0
H5144 H 0.87497 0.55978 0.02691 0.0
H5145 H 0.87707 0.53741 0.00129 0.0
H5146 H 0.88812 0.57821 0.96606 0.0
H5147 H 0.88624 0.60085 0.99154 0.0
C5148 C 0.82047 0.62905 0.04666 0.0
C5149 C 0.81764 0.6394 0.03252 0.0
C5150 C 0.83541 0.62196 0.04823 0.0
C5151 C 0.84789 0.62514 0.03577 0.0
C5152 C 0.84498 0.63509 0.02134 0.0
C5153 C 0.82997 0.64227 0.01977 0.0
C5154 C 0.86377 0.6177 0.03797 0.0
C5155 C 0.86638 0.60549 0.02362 0.0
C5156 C 0.87502 0.62095 0.055 0.0
C5157 C 0.87387 0.63469 0.07019 0.0
C5158 C 0.87484 0.65234 0.06688 0.0
C5159 C 0.87424 0.66535 0.08132 0.0
C5160 C 0.8727 0.66087 0.09915 0.0
C5161 C 0.87177 0.64337 0.10258 0.0
C5162 C 0.87239 0.63031 0.08819 0.0
C5163 C 0.93163 0.58107 0.04497 0.0
C5164 C 0.93109 0.57331 0.06141 0.0
C5165 C 0.91766 0.58839 0.03847 0.0
C5166 C 0.90298 0.5877 0.04824 0.0
C5167 C 0.90195 0.57879 0.06392 0.0
C5168 C 0.91595 0.57171 0.07051 0.0
C5169 C 0.88975 0.5981 0.04377 0.0
C5170 C 0.88781 0.61106 0.05768 0.0
C5171 C 0.87925 0.59555 0.02635 0.0
C5172 C 0.88068 0.58201 0.01117 0.0
C5173 C 0.87803 0.564 0.01375 0.0
C5174 C 0.87913 0.55126 0.99925 0.0
C5175 C 0.88278 0.55639 0.98207 0.0
C5176 C 0.88532 0.57426 0.97937 0.0
C5177 C 0.88422 0.58704 0.99383 0.0
H5178 H 0.8836 0.54651 0.97085 0.0
H5179 H 0.87227 0.67098 0.11031 0.0
H5180 H 0.19116 0.07375 0.7926 0.0
H5181 H 0.20931 0.10327 0.79079 0.0
H5182 H 0.1664 0.12676 0.80527 0.0
H5183 H 0.14798 0.0972 0.80681 0.0
H5184 H 0.18028 0.14041 0.77636 0.0
H5185 H 0.20321 0.13097 0.83664 0.0
H5186 H 0.21516 0.11389 0.85934 0.0
H5187 H 0.26024 0.11365 0.83013 0.0
H5188 H 0.24843 0.13057 0.80712 0.0
H5189 H 0.23398 0.22979 0.79975 0.0
H5190 H 0.21559 0.2005 0.80231 0.0
H5191 H 0.25131 0.17543 0.77399 0.0
H5192 H 0.26936 0.20466 0.77045 0.0
H5193 H 0.2411 0.16312 0.81046 0.0
H5194 H 0.21651 0.16992 0.74888 0.0
H5195 H 0.20341 0.18512 0.72504 0.0
H5196 H 0.16152 0.19062 0.75746 0.0
H5197 H 0.17421 0.17509 0.78132 0.0
C5198 C 0.18562 0.08518 0.79566 0.0
C5199 C 0.16811 0.08307 0.79995 0.0
C5200 C 0.19604 0.10208 0.79462 0.0
C5201 C 0.18927 0.11726 0.79804 0.0
C5202 C 0.1719 0.11524 0.80258 0.0
C5203 C 0.16143 0.09833 0.80358 0.0
C5204 C 0.2002 0.13516 0.79638 0.0
C5205 C 0.19346 0.14546 0.78406 0.0
C5206 C 0.21754 0.14167 0.8061 0.0
C5207 C 0.2249 0.13191 0.82012 0.0
C5208 C 0.21564 0.12721 0.83503 0.0
C5209 C 0.22238 0.11756 0.84795 0.0
C5210 C 0.23843 0.11266 0.84616 0.0
C5211 C 0.24781 0.11746 0.83149 0.0
C5212 C 0.24112 0.1271 0.81853 0.0
C5213 C 0.23799 0.21809 0.79404 0.0
C5214 C 0.25342 0.21965 0.78523 0.0
C5215 C 0.22742 0.20136 0.7955 0.0
C5216 C 0.23218 0.18587 0.78842 0.0
C5217 C 0.24753 0.18728 0.77965 0.0
C5218 C 0.25791 0.20402 0.77781 0.0
C5219 C 0.22117 0.1682 0.79043 0.0
C5220 C 0.22789 0.15802 0.80285 0.0
C5221 C 0.20379 0.16184 0.78091 0.0
C5222 C 0.19642 0.1716 0.76694 0.0
C5223 C 0.20461 0.17454 0.75098 0.0
C5224 C 0.19722 0.18314 0.73744 0.0
C5225 C 0.18176 0.18904 0.73982 0.0
C5226 C 0.17354 0.18614 0.75567 0.0
C5227 C 0.18077 0.17735 0.76916 0.0
H5228 H 0.1761 0.19575 0.72934 0.0
H5229 H 0.24362 0.10515 0.85616 0.0
H5230 H 0.38912 0.95682 0.30516 0.0
H5231 H 0.37312 0.92595 0.29469 0.0
H5232 H 0.3231 0.94164 0.29381 0.0
H5233 H 0.33876 0.97212 0.30482 0.0
H5234 H 0.324 0.91477 0.31238 0.0
H5235 H 0.33957 0.93132 0.2537 0.0
H5236 H 0.35966 0.94238 0.2314 0.0
H5237 H 0.38665 0.90039 0.23819 0.0
H5238 H 0.36688 0.88923 0.26072 0.0
H5239 H 0.26604 0.83562 0.27411 0.0
H5240 H 0.28262 0.86618 0.27343 0.0
H5241 H 0.33202 0.84932 0.28001 0.0
H5242 H 0.31547 0.81892 0.28112 0.0
H5243 H 0.33177 0.87647 0.25674 0.0
H5244 H 0.3211 0.86467 0.31948 0.0
H5245 H 0.30499 0.85699 0.34585 0.0
H5246 H 0.27025 0.89105 0.33226 0.0
H5247 H 0.28646 0.89923 0.30603 0.0
C5248 C 0.37471 0.95357 0.30293 0.0
C5249 C 0.36513 0.96671 0.30594 0.0
C5250 C 0.36567 0.9361 0.29667 0.0
C5251 C 0.34707 0.93183 0.29317 0.0
C5252 C 0.33752 0.94489 0.29633 0.0
C5253 C 0.34647 0.9622 0.30284 0.0
C5254 C 0.33727 0.91343 0.28807 0.0
C5255 C 0.32543 0.90651 0.29998 0.0
C5256 C 0.33979 0.90266 0.2723 0.0
C5257 C 0.35188 0.90956 0.25903 0.0
C5258 C 0.34992 0.92457 0.25059 0.0
C5259 C 0.36122 0.93082 0.23787 0.0
C5260 C 0.37445 0.92212 0.23341 0.0
C5261 C 0.37641 0.90714 0.24167 0.0
C5262 C 0.36516 0.90084 0.2544 0.0
C5263 C 0.2804 0.83844 0.27463 0.0
C5264 C 0.28965 0.8252 0.27718 0.0
C5265 C 0.28978 0.85574 0.27431 0.0
C5266 C 0.30839 0.85974 0.27678 0.0
C5267 C 0.3176 0.84624 0.27792 0.0
C5268 C 0.3082 0.82894 0.27836 0.0
C5269 C 0.31822 0.87817 0.2808 0.0
C5270 C 0.33019 0.88495 0.26889 0.0
C5271 C 0.31591 0.88896 0.29661 0.0
C5272 C 0.30473 0.88226 0.31065 0.0
C5273 C 0.30977 0.87019 0.32189 0.0
C5274 C 0.30071 0.86586 0.3369 0.0
C5275 C 0.2865 0.8734 0.34064 0.0
C5276 C 0.2812 0.88516 0.3293 0.0
C5277 C 0.29034 0.88968 0.3144 0.0
H5278 H 0.27972 0.87032 0.35247 0.0
H5279 H 0.38316 0.92697 0.22353 0.0
H5280 H 0.54332 0.34542 0.61773 0.0
H5281 H 0.53982 0.37478 0.61121 0.0
H5282 H 0.56902 0.37104 0.56468 0.0
H5283 H 0.57336 0.34205 0.5719 0.0
H5284 H 0.57836 0.40306 0.57782 0.0
H5285 H 0.518 0.36681 0.56449 0.0
H5286 H 0.4913 0.34654 0.57215 0.0
H5287 H 0.48833 0.38486 0.61767 0.0
H5288 H 0.51512 0.40526 0.61037 0.0
H5289 H 0.54749 0.47225 0.5326 0.0
H5290 H 0.55193 0.44346 0.54093 0.0
H5291 H 0.53833 0.45646 0.59528 0.0
H5292 H 0.53484 0.48564 0.58728 0.0
H5293 H 0.52088 0.42052 0.57897 0.0
H5294 H 0.57873 0.45651 0.59363 0.0
H5295 H 0.60826 0.47581 0.5925 0.0
H5296 H 0.61743 0.43892 0.54886 0.0
H5297 H 0.58779 0.4195 0.5495 0.0
C5298 C 0.54893 0.35072 0.606 0.0
C5299 C 0.55852 0.34086 0.59532 0.0
C5300 C 0.54676 0.36771 0.60209 0.0
C5301 C 0.55364 0.37559 0.58695 0.0
C5302 C 0.56334 0.36575 0.57638 0.0
C5303 C 0.56578 0.34888 0.5805 0.0
C5304 C 0.55113 0.39397 0.58233 0.0
C5305 C 0.56559 0.40653 0.57766 0.0
C5306 C 0.53484 0.39956 0.58283 0.0
C5307 C 0.51859 0.38747 0.58697 0.0
C5308 C 0.51166 0.37087 0.57615 0.0
C5309 C 0.49652 0.35936 0.58044 0.0
C5310 C 0.48814 0.36439 0.59541 0.0
C5311 C 0.49484 0.38097 0.60608 0.0
C5312 C 0.50997 0.39252 0.60187 0.0
C5313 C 0.54548 0.46904 0.54636 0.0
C5314 C 0.54083 0.48155 0.55921 0.0
C5315 C 0.5481 0.45246 0.55119 0.0
C5316 C 0.54557 0.44737 0.56887 0.0
C5317 C 0.54049 0.45972 0.58157 0.0
C5318 C 0.5385 0.47656 0.57696 0.0
C5319 C 0.54798 0.42925 0.57395 0.0
C5320 C 0.53354 0.41684 0.57878 0.0
C5321 C 0.56434 0.42388 0.5738 0.0
C5322 C 0.58096 0.43661 0.57151 0.0
C5323 C 0.58683 0.45271 0.58347 0.0
C5324 C 0.60366 0.4636 0.58303 0.0
C5325 C 0.61477 0.45845 0.57079 0.0
C5326 C 0.60884 0.44278 0.55845 0.0
C5327 C 0.59202 0.43186 0.55881 0.0
H5328 H 0.62804 0.46652 0.57099 0.0
H5329 H 0.47644 0.35545 0.59872 0.0
H5330 H 0.43462 0.76115 0.41541 0.0
H5331 H 0.40591 0.76111 0.39801 0.0
H5332 H 0.43261 0.77696 0.35156 0.0
H5333 H 0.46127 0.77836 0.3695 0.0
H5334 H 0.4108 0.79499 0.35404 0.0
H5335 H 0.40222 0.73094 0.35788 0.0
H5336 H 0.39913 0.70428 0.37398 0.0
H5337 H 0.3572 0.71908 0.40117 0.0
H5338 H 0.3602 0.74591 0.38542 0.0
H5339 H 0.33749 0.78643 0.28666 0.0
H5340 H 0.36387 0.78246 0.30473 0.0
H5341 H 0.33238 0.76356 0.34686 0.0
H5342 H 0.30545 0.76475 0.32723 0.0
H5343 H 0.3556 0.74757 0.3486 0.0
H5344 H 0.36273 0.81016 0.34706 0.0
H5345 H 0.36418 0.83774 0.33279 0.0
H5346 H 0.40753 0.82775 0.30475 0.0
H5347 H 0.40618 0.8 0.31865 0.0
C5348 C 0.43432 0.7645 0.40142 0.0
C5349 C 0.45035 0.76978 0.39392 0.0
C5350 C 0.41777 0.76431 0.39131 0.0
C5351 C 0.41666 0.76875 0.37309 0.0
C5352 C 0.43275 0.77355 0.36552 0.0
C5353 C 0.44927 0.77428 0.37581 0.0
C5354 C 0.39923 0.76958 0.36215 0.0
C5355 C 0.39888 0.78437 0.35267 0.0
C5356 C 0.38303 0.75643 0.36094 0.0
C5357 C 0.3816 0.74051 0.37065 0.0
C5358 C 0.39247 0.72858 0.36743 0.0
C5359 C 0.3907 0.71342 0.37647 0.0
C5360 C 0.37802 0.71002 0.38863 0.0
C5361 C 0.36705 0.72175 0.39178 0.0
C5362 C 0.36879 0.73692 0.38282 0.0
C5363 C 0.33594 0.78085 0.29942 0.0
C5364 C 0.319 0.77578 0.30513 0.0
C5365 C 0.35133 0.77909 0.3102 0.0
C5366 C 0.35062 0.77335 0.32779 0.0
C5367 C 0.33367 0.76816 0.33352 0.0
C5368 C 0.31814 0.76905 0.32226 0.0
C5369 C 0.3674 0.77272 0.34007 0.0
C5370 C 0.36757 0.75812 0.3499 0.0
C5371 C 0.38336 0.78625 0.34202 0.0
C5372 C 0.38426 0.80298 0.33378 0.0
C5373 C 0.37252 0.81383 0.33779 0.0
C5374 C 0.37332 0.82948 0.32976 0.0
C5375 C 0.38592 0.83448 0.31785 0.0
C5376 C 0.39777 0.82386 0.31397 0.0
C5377 C 0.397 0.80818 0.32192 0.0
H5378 H 0.38651 0.8466 0.31165 0.0
H5379 H 0.37666 0.69827 0.39558 0.0
H5380 H 0.07136 0.74037 0.08882 0.0
H5381 H 0.07127 0.70874 0.0827 0.0
H5382 H 0.01686 0.69478 0.09382 0.0
H5383 H 0.01757 0.72635 0.10132 0.0
H5384 H 0.03003 0.67246 0.1072 0.0
H5385 H 0.03527 0.69039 0.04615 0.0
H5386 H 0.0495 0.70942 0.02441 0.0
H5387 H 0.0988 0.6947 0.0388 0.0
H5388 H 0.08488 0.6757 0.06073 0.0
H5389 H 0.00937 0.58089 0.07018 0.0
H5390 H 0.01215 0.61276 0.07653 0.0
H5391 H 0.06748 0.6223 0.06872 0.0
H5392 H 0.06451 0.59012 0.06177 0.0
H5393 H 0.05564 0.64685 0.05459 0.0
H5394 H 0.05007 0.62759 0.11411 0.0
H5395 H 0.03654 0.60941 0.13686 0.0
H5396 H 0.98825 0.62697 0.12606 0.0
H5397 H 1.00144 0.64514 0.10313 0.0
C5398 C 0.0592 0.73058 0.08943 0.0
C5399 C 0.04428 0.7362 0.09502 0.0
C5400 C 0.05911 0.71223 0.0859 0.0
C5401 C 0.04387 0.69868 0.0872 0.0
C5402 C 0.0289 0.70446 0.09253 0.0
C5403 C 0.02919 0.72273 0.09658 0.0
C5404 C 0.04348 0.6787 0.08362 0.0
C5405 C 0.03541 0.66699 0.09545 0.0
C5406 C 0.05095 0.67093 0.06879 0.0
C5407 C 0.05908 0.68174 0.05511 0.0
C5408 C 0.04914 0.69121 0.04464 0.0
C5409 C 0.05715 0.70201 0.03232 0.0
C5410 C 0.07505 0.70329 0.03025 0.0
C5411 C 0.08494 0.69369 0.04041 0.0
C5412 C 0.07699 0.68288 0.05276 0.0
C5413 C 0.02227 0.58961 0.06988 0.0
C5414 C 0.03676 0.58241 0.06541 0.0
C5415 C 0.02389 0.60814 0.07371 0.0
C5416 C 0.04017 0.62052 0.07363 0.0
C5417 C 0.05468 0.61341 0.06905 0.0
C5418 C 0.05301 0.59478 0.06506 0.0
C5419 C 0.04183 0.64064 0.0779 0.0
C5420 C 0.05019 0.65235 0.06628 0.0
C5421 C 0.03461 0.64841 0.09293 0.0
C5422 C 0.0267 0.63761 0.1068 0.0
C5423 C 0.03653 0.6275 0.11653 0.0
C5424 C 0.02893 0.61722 0.12947 0.0
C5425 C 0.01153 0.61701 0.13287 0.0
C5426 C 1.00172 0.62713 0.1234 0.0
C5427 C 0.00926 0.63745 0.11046 0.0
H5428 H 1.00566 0.60902 0.14288 0.0
H5429 H 0.08125 0.71171 0.02075 0.0
H5430 H 0.06142 0.23971 0.9155 0.0
H5431 H 0.0891 0.24269 0.90132 0.0
H5432 H 0.0753 0.28397 0.87188 0.0
H5433 H 0.04787 0.28131 0.88647 0.0
H5434 H 0.0845 0.25701 0.84906 0.0
H5435 H 0.10872 0.29451 0.90715 0.0
H5436 H 0.11635 0.30209 0.94098 0.0
H5437 H 0.14448 0.26041 0.94246 0.0
H5438 H 0.13685 0.25246 0.90867 0.0
H5439 H 0.16394 0.29161 0.8118 0.0
H5440 H 0.13651 0.28458 0.82603 0.0
H5441 H 0.16037 0.25315 0.86183 0.0
H5442 H 0.18798 0.26065 0.84781 0.0
H5443 H 0.14599 0.27283 0.88198 0.0
H5444 H 0.12322 0.23426 0.82641 0.0
H5445 H 0.1157 0.22373 0.79301 0.0
H5446 H 0.08466 0.26264 0.78703 0.0
H5447 H 0.09214 0.27352 0.82038 0.0
C5448 C 0.06445 0.24956 0.90616 0.0
C5449 C 0.05255 0.26032 0.90211 0.0
C5450 C 0.0803 0.2513 0.8981 0.0
C5451 C 0.08442 0.26362 0.88553 0.0
C5452 C 0.07251 0.27442 0.88156 0.0
C5453 C 0.05685 0.27293 0.88992 0.0
C5454 C 0.1005 0.26453 0.87564 0.0
C5455 C 0.09797 0.26072 0.85625 0.0
C5456 C 0.11809 0.26846 0.88499 0.0
C5457 C 0.12199 0.27274 0.9054 0.0
C5458 C 0.1163 0.28679 0.91472 0.0
C5459 C 0.1207 0.29121 0.93389 0.0
C5460 C 0.13084 0.2817 0.94387 0.0
C5461 C 0.13659 0.26774 0.93472 0.0
C5462 C 0.13223 0.26328 0.91557 0.0
C5463 C 0.16307 0.28271 0.82227 0.0
C5464 C 0.17795 0.27634 0.8284 0.0
C5465 C 0.14736 0.27869 0.83048 0.0
C5466 C 0.1461 0.26816 0.84504 0.0
C5467 C 0.16083 0.26128 0.85068 0.0
C5468 C 0.17657 0.26536 0.8425 0.0
C5469 C 0.13006 0.26558 0.85526 0.0
C5470 C 0.13256 0.26903 0.87471 0.0
C5471 C 0.11238 0.26083 0.84602 0.0
C5472 C 0.1084 0.25482 0.82585 0.0
C5473 C 0.11497 0.24071 0.81793 0.0
C5474 C 0.11066 0.23464 0.79902 0.0
C5475 C 0.09975 0.24254 0.7879 0.0
C5476 C 0.09313 0.25655 0.79566 0.0
C5477 C 0.09738 0.26266 0.81456 0.0
H5478 H 0.09638 0.23778 0.77327 0.0
H5479 H 0.13429 0.28519 0.95869 0.0
H5480 H 0.52314 0.73812 0.89624 0.0
H5481 H 0.52125 0.71018 0.90939 0.0
H5482 H 0.56532 0.73588 0.95113 0.0
H5483 H 0.56759 0.76365 0.93769 0.0
H5484 H 0.56959 0.7047 0.93973 0.0
H5485 H 0.51943 0.72532 0.95899 0.0
H5486 H 0.49128 0.73505 0.9552 0.0
H5487 H 0.46572 0.6855 0.92169 0.0
H5488 H 0.4938 0.67561 0.92505 0.0
H5489 H 0.55155 0.64329 0.00747 0.0
H5490 H 0.55867 0.66797 0.98901 0.0
H5491 H 0.51888 0.63862 0.94465 0.0
H5492 H 0.51191 0.61403 0.96303 0.0
H5493 H 0.51271 0.67057 0.9559 0.0
H5494 H 0.5617 0.64891 0.93818 0.0
H5495 H 0.58956 0.6387 0.94134 0.0
H5496 H 0.61715 0.68938 0.97136 0.0
H5497 H 0.58935 0.69979 0.96871 0.0
C5498 C 0.53238 0.73787 0.90828 0.0
C5499 C 0.54545 0.75326 0.91594 0.0
C5500 C 0.53125 0.72183 0.91587 0.0
C5501 C 0.54297 0.7208 0.93152 0.0
C5502 C 0.55607 0.73617 0.93911 0.0
C5503 C 0.5573 0.75215 0.93144 0.0
C5504 C 0.54173 0.7038 0.93996 0.0
C5505 C 0.55717 0.69741 0.9435 0.0
C5506 C 0.52549 0.69376 0.9444 0.0
C5507 C 0.50875 0.69984 0.94207 0.0
C5508 C 0.50785 0.7166 0.95065 0.0
C5509 C 0.4919 0.72212 0.94861 0.0
C5510 C 0.47673 0.71093 0.93816 0.0
C5511 C 0.47748 0.69418 0.92974 0.0
C5512 C 0.49341 0.68862 0.93169 0.0
C5513 C 0.54502 0.64176 0.99341 0.0
C5514 C 0.53143 0.62656 0.98656 0.0
C5515 C 0.54895 0.65596 0.9829 0.0
C5516 C 0.53925 0.65528 0.9654 0.0
C5517 C 0.52656 0.63955 0.95808 0.0
C5518 C 0.52274 0.62537 0.9685 0.0
C5519 C 0.54058 0.67158 0.95582 0.0
C5520 C 0.52514 0.67785 0.95211 0.0
C5521 C 0.5568 0.68145 0.95124 0.0
C5522 C 0.57337 0.67503 0.95348 0.0
C5523 C 0.57364 0.65778 0.94572 0.0
C5524 C 0.58944 0.65198 0.94736 0.0
C5525 C 0.60511 0.66336 0.95661 0.0
C5526 C 0.605 0.68056 0.96425 0.0
C5527 C 0.58921 0.68641 0.9627 0.0
H5528 H 0.61735 0.65886 0.95779 0.0
H5529 H 0.46439 0.71521 0.93663 0.0
H5530 H 0.07671 0.78992 0.72567 0.0
H5531 H 0.10851 0.79163 0.73334 0.0
H5532 H 0.09787 0.73431 0.72574 0.0
H5533 H 0.0659 0.7328 0.71957 0.0
H5534 H 0.12341 0.74218 0.74897 0.0
H5535 H 0.11809 0.76719 0.6928 0.0
H5536 H 0.11016 0.78712 0.67093 0.0
H5537 H 0.14225 0.83246 0.70705 0.0
H5538 H 0.1502 0.81281 0.72922 0.0
H5539 H 0.21587 0.74215 0.74414 0.0
H5540 H 0.18383 0.73931 0.73699 0.0
H5541 H 0.19136 0.79556 0.75361 0.0
H5542 H 0.22341 0.79838 0.76075 0.0
H5543 H 0.16766 0.78727 0.72472 0.0
H5544 H 0.17252 0.75861 0.78054 0.0
H5545 H 0.18013 0.73612 0.79932 0.0
H5546 H 0.14879 0.69429 0.7584 0.0
H5547 H 0.14114 0.71654 0.73934 0.0
C5548 C 0.08108 0.77767 0.72625 0.0
C5549 C 0.06842 0.76123 0.72263 0.0
C5550 C 0.09954 0.77862 0.73018 0.0
C5551 C 0.10635 0.76313 0.72972 0.0
C5552 C 0.09355 0.74666 0.72637 0.0
C5553 C 0.07503 0.74574 0.72296 0.0
C5554 C 0.12648 0.76402 0.73285 0.0
C5555 C 0.13289 0.75196 0.74332 0.0
C5556 C 0.13958 0.77669 0.72585 0.0
C5557 C 0.13456 0.78855 0.71275 0.0
C5558 C 0.12332 0.78142 0.69614 0.0
C5559 C 0.11886 0.79267 0.68368 0.0
C5560 C 0.12565 0.81105 0.68762 0.0
C5561 C 0.13696 0.81823 0.70403 0.0
C5562 C 0.14146 0.80704 0.71654 0.0
C5563 C 0.21078 0.75389 0.74664 0.0
C5564 C 0.22261 0.77042 0.75357 0.0
C5565 C 0.1922 0.75227 0.74247 0.0
C5566 C 0.18455 0.76713 0.74507 0.0
C5567 C 0.19645 0.78372 0.75152 0.0
C5568 C 0.215 0.78532 0.75571 0.0
C5569 C 0.16443 0.7656 0.74098 0.0
C5570 C 0.15807 0.77753 0.73031 0.0
C5571 C 0.15134 0.75246 0.74727 0.0
C5572 C 0.15635 0.7392 0.75852 0.0
C5573 C 0.16737 0.74461 0.77552 0.0
C5574 C 0.17164 0.73191 0.78622 0.0
C5575 C 0.16486 0.7138 0.78009 0.0
C5576 C 0.15396 0.70833 0.76317 0.0
C5577 C 0.14965 0.72096 0.75242 0.0
H5578 H 0.16803 0.70396 0.78845 0.0
H5579 H 0.1222 0.81973 0.67794 0.0
H5580 H 0.03914 0.37009 0.39773 0.0
H5581 H 0.03933 0.39876 0.41521 0.0
H5582 H 0.03431 0.3736 0.46484 0.0
H5583 H 0.03231 0.34479 0.44687 0.0
H5584 H 0.01489 0.39346 0.46645 0.0
H5585 H 0.0759 0.40739 0.4504 0.0
H5586 H 0.09891 0.41186 0.4294 0.0
H5587 H 0.07365 0.44831 0.40298 0.0
H5588 H 0.05048 0.44399 0.42375 0.0
H5589 H 0.03197 0.46983 0.53262 0.0
H5590 H 0.03331 0.44307 0.51324 0.0
H5591 H 0.03631 0.47185 0.46601 0.0
H5592 H 0.03645 0.49911 0.48583 0.0
H5593 H 0.0555 0.4511 0.46147 0.0
H5594 H 0.99542 0.43835 0.47661 0.0
H5595 H 0.97127 0.43414 0.49633 0.0
H5596 H 0.99357 0.39602 0.52301 0.0
H5597 H 0.01779 0.39987 0.50348 0.0
C5598 C 0.03821 0.37076 0.41241 0.0
C5599 C 0.03572 0.35511 0.42088 0.0
C5600 C 0.03853 0.38731 0.42256 0.0
C5601 C 0.03718 0.38884 0.4417 0.0
C5602 C 0.03525 0.37314 0.45017 0.0
C5603 C 0.03421 0.35655 0.43989 0.0
C5604 C 0.0366 0.40626 0.45285 0.0
C5605 C 0.02412 0.40594 0.46551 0.0
C5606 C 0.04776 0.42307 0.45124 0.0
C5607 C 0.06138 0.42519 0.43846 0.0
C5608 C 0.07519 0.41622 0.43999 0.0
C5609 C 0.08828 0.41878 0.42817 0.0
C5610 C 0.08771 0.43033 0.41483 0.0
C5611 C 0.07406 0.43935 0.41329 0.0
C5612 C 0.06097 0.43687 0.42508 0.0
C5613 C 0.03302 0.47064 0.51821 0.0
C5614 C 0.03389 0.48688 0.51104 0.0
C5615 C 0.03351 0.45506 0.5069 0.0
C5616 C 0.03428 0.45494 0.48778 0.0
C5617 C 0.03555 0.47125 0.4806 0.0
C5618 C 0.03556 0.48696 0.49205 0.0
C5619 C 0.03426 0.43806 0.47545 0.0
C5620 C 0.04644 0.43854 0.46248 0.0
C5621 C 0.02272 0.4214 0.47661 0.0
C5622 C 0.00849 0.41954 0.48872 0.0
C5623 C 0.99525 0.42919 0.4868 0.0
C5624 C 0.98155 0.42685 0.4979 0.0
C5625 C 0.98097 0.41494 0.51096 0.0
C5626 C 0.99406 0.40528 0.51293 0.0
C5627 C 0.00774 0.40749 0.50182 0.0
H5628 H 0.97032 0.41315 0.51951 0.0
H5629 H 0.09788 0.43231 0.40573 0.0
H5630 H 0.45515 0.21907 0.22618 0.0
H5631 H 0.42584 0.22317 0.23289 0.0
H5632 H 0.44068 0.27779 0.22313 0.0
H5633 H 0.46977 0.27354 0.21569 0.0
H5634 H 0.42384 0.27387 0.25598 0.0
H5635 H 0.41168 0.24865 0.19204 0.0
H5636 H 0.40936 0.22679 0.16446 0.0
H5637 H 0.37568 0.18698 0.18958 0.0
H5638 H 0.37804 0.20852 0.21744 0.0
H5639 H 0.33828 0.29297 0.2619 0.0
H5640 H 0.36704 0.28982 0.25336 0.0
H5641 H 0.34728 0.23284 0.2434 0.0
H5642 H 0.31817 0.23626 0.25083 0.0
H5643 H 0.36722 0.23843 0.22032 0.0
H5644 H 0.38001 0.26135 0.28474 0.0
H5645 H 0.38011 0.28257 0.31226 0.0
H5646 H 0.41163 0.3247 0.28809 0.0
H5647 H 0.41148 0.30378 0.2603 0.0
C5648 C 0.45227 0.232 0.22544 0.0
C5649 C 0.46521 0.24595 0.22039 0.0
C5650 C 0.4353 0.23433 0.22923 0.0
C5651 C 0.43062 0.25084 0.22859 0.0
C5652 C 0.44362 0.26487 0.22382 0.0
C5653 C 0.46041 0.2624 0.21952 0.0
C5654 C 0.41244 0.25351 0.2331 0.0
C5655 C 0.4115 0.26618 0.24801 0.0
C5656 C 0.39595 0.24332 0.22329 0.0
C5657 C 0.39529 0.23013 0.20695 0.0
C5658 C 0.40404 0.23515 0.19182 0.0
C5659 C 0.40264 0.22284 0.1761 0.0
C5660 C 0.39245 0.20549 0.1753 0.0
C5661 C 0.38363 0.20041 0.19024 0.0
C5662 C 0.38501 0.21265 0.206 0.0
C5663 C 0.34005 0.27977 0.25815 0.0
C5664 C 0.32567 0.26494 0.25753 0.0
C5665 C 0.35678 0.27787 0.25327 0.0
C5666 C 0.36016 0.26095 0.24815 0.0
C5667 C 0.34562 0.24614 0.2473 0.0
C5668 C 0.32877 0.24811 0.25172 0.0
C5669 C 0.37847 0.2586 0.24347 0.0
C5670 C 0.37949 0.24603 0.22848 0.0
C5671 C 0.39502 0.26858 0.25349 0.0
C5672 C 0.39562 0.28104 0.2704 0.0
C5673 C 0.38694 0.27515 0.28529 0.0
C5674 C 0.38698 0.28712 0.30092 0.0
C5675 C 0.39585 0.30497 0.3019 0.0
C5676 C 0.40475 0.31087 0.2873 0.0
C5677 C 0.40471 0.29896 0.27161 0.0
H5678 H 0.39584 0.31423 0.314 0.0
H5679 H 0.39132 0.196 0.16308 0.0
H5680 H 0.63368 0.53043 0.36622 0.0
H5681 H 0.62498 0.53008 0.39737 0.0
H5682 H 0.57129 0.53013 0.37526 0.0
H5683 H 0.58045 0.53203 0.34449 0.0
H5684 H 0.57803 0.55081 0.40409 0.0
H5685 H 0.59102 0.49156 0.39292 0.0
H5686 H 0.61058 0.47098 0.38751 0.0
H5687 H 0.64599 0.49695 0.43635 0.0
H5688 H 0.62682 0.51784 0.44183 0.0
H5689 H 0.53283 0.53299 0.47966 0.0
H5690 H 0.54422 0.53116 0.45035 0.0
H5691 H 0.59458 0.52661 0.47791 0.0
H5692 H 0.58182 0.52496 0.50703 0.0
H5693 H 0.59236 0.51003 0.44786 0.0
H5694 H 0.5821 0.56827 0.46071 0.0
H5695 H 0.56456 0.59021 0.46862 0.0
H5696 H 0.52777 0.56955 0.41927 0.0
H5697 H 0.54494 0.54733 0.41122 0.0
C5698 C 0.61998 0.53017 0.36801 0.0
C5699 C 0.60774 0.53113 0.35278 0.0
C5700 C 0.61492 0.52983 0.38592 0.0
C5701 C 0.59726 0.52968 0.38902 0.0
C5702 C 0.585 0.53026 0.3736 0.0
C5703 C 0.59021 0.53124 0.35586 0.0
C5704 C 0.59148 0.52982 0.40815 0.0
C5705 C 0.58101 0.54164 0.41347 0.0
C5706 C 0.59606 0.51875 0.42126 0.0
C5707 C 0.60761 0.50636 0.41763 0.0
C5708 C 0.60306 0.49296 0.40238 0.0
C5709 C 0.61408 0.48124 0.39932 0.0
C5710 C 0.62955 0.4827 0.41154 0.0
C5711 C 0.63405 0.49587 0.42685 0.0
C5712 C 0.62313 0.50765 0.42992 0.0
C5713 C 0.54604 0.53072 0.47953 0.0
C5714 C 0.55607 0.52847 0.49589 0.0
C5715 C 0.55291 0.53041 0.46262 0.0
C5716 C 0.57068 0.52951 0.46159 0.0
C5717 C 0.58086 0.5274 0.47798 0.0
C5718 C 0.57356 0.52658 0.49479 0.0
C5719 C 0.57843 0.5306 0.4435 0.0
C5720 C 0.58937 0.51918 0.43847 0.0
C5721 C 0.57474 0.54241 0.43085 0.0
C5722 C 0.56475 0.55611 0.43542 0.0
C5723 C 0.57026 0.56842 0.45157 0.0
C5724 C 0.56037 0.58087 0.45609 0.0
C5725 C 0.54506 0.58126 0.44447 0.0
C5726 C 0.53963 0.56924 0.42826 0.0
C5727 C 0.54945 0.55673 0.4237 0.0
H5728 H 0.5374 0.5909 0.44801 0.0
H5729 H 0.63803 0.47359 0.40916 0.0
H5730 H 0.25656 0.90917 0.06267 0.0
H5731 H 0.25837 0.89402 0.09049 0.0
H5732 H 0.29974 0.87108 0.07029 0.0
H5733 H 0.29732 0.88544 0.04241 0.0
H5734 H 0.27401 0.84659 0.07969 0.0
H5735 H 0.31023 0.90461 0.10693 0.0
H5736 H 0.31554 0.93719 0.11451 0.0
H5737 H 0.27025 0.93064 0.14427 0.0
H5738 H 0.26468 0.898 0.13681 0.0
H5739 H 0.32068 0.81823 0.15277 0.0
H5740 H 0.30845 0.83069 0.1268 0.0
H5741 H 0.27245 0.84984 0.16046 0.0
H5742 H 0.28581 0.83886 0.18707 0.0
H5743 H 0.28882 0.87534 0.14477 0.0
H5744 H 0.25653 0.81491 0.11939 0.0
H5745 H 0.25247 0.78283 0.10906 0.0
H5746 H 0.29326 0.79455 0.07388 0.0
H5747 H 0.29751 0.82663 0.08397 0.0
C5748 C 0.26595 0.90085 0.06437 0.0
C5749 C 0.27655 0.89797 0.05058 0.0
C5750 C 0.26709 0.89238 0.08017 0.0
C5751 C 0.27913 0.88144 0.08227 0.0
C5752 C 0.29021 0.87929 0.06872 0.0
C5753 C 0.28881 0.8874 0.05288 0.0
C5754 C 0.2797 0.87124 0.09795 0.0
C5755 C 0.27727 0.85283 0.09396 0.0
C5756 C 0.28345 0.87943 0.11644 0.0
C5757 C 0.28697 0.89895 0.12123 0.0
C5758 C 0.30139 0.91015 0.11505 0.0
C5759 C 0.30445 0.92861 0.11933 0.0
C5760 C 0.29321 0.93598 0.12983 0.0
C5761 C 0.27894 0.92491 0.13614 0.0
C5762 C 0.27585 0.90644 0.13194 0.0
C5763 C 0.31015 0.82506 0.15469 0.0
C5764 C 0.30446 0.82776 0.17211 0.0
C5765 C 0.30286 0.83184 0.13967 0.0
C5766 C 0.28931 0.84094 0.14159 0.0
C5767 C 0.28284 0.84276 0.15866 0.0
C5768 C 0.29041 0.83632 0.17384 0.0
C5769 C 0.28371 0.85053 0.12653 0.0
C5770 C 0.28512 0.86892 0.1306 0.0
C5771 C 0.27942 0.84237 0.10796 0.0
C5772 C 0.27739 0.82309 0.10253 0.0
C5773 C 0.26472 0.81059 0.10959 0.0
C5774 C 0.26235 0.79243 0.10371 0.0
C5775 C 0.27262 0.78665 0.09085 0.0
C5776 C 0.2853 0.79902 0.08383 0.0
C5777 C 0.28766 0.81718 0.08958 0.0
H5778 H 0.27074 0.77259 0.08631 0.0
H5779 H 0.29557 0.95028 0.13309 0.0
H5780 H 0.91817 0.49905 0.86969 0.0
H5781 H 0.93099 0.49935 0.90149 0.0
H5782 H 0.93139 0.55504 0.91316 0.0
H5783 H 0.91801 0.55469 0.8811 0.0
H5784 H 0.96496 0.54588 0.91675 0.0
H5785 H 0.908 0.52853 0.93711 0.0
H5786 H 0.87744 0.51085 0.93681 0.0
H5787 H 0.89724 0.46407 0.94276 0.0
H5788 H 0.9279 0.4814 0.9428 0.0
H5789 H 1.00305 0.55404 0.00915 0.0
H5790 H 0.98227 0.553 0.98153 0.0
H5791 H 0.98387 0.49851 0.96476 0.0
H5792 H 1.00518 0.49961 0.99245 0.0
H5793 H 0.94809 0.50767 0.96525 0.0
H5794 H 1.00346 0.5225 0.94166 0.0
H5795 H 0.03455 0.53859 0.94174 0.0
H5796 H 0.01815 0.58773 0.94021 0.0
H5797 H 0.98694 0.57195 0.94051 0.0
C5798 C 0.92073 0.51128 0.87915 0.0
C5799 C 0.91761 0.52698 0.87311 0.0
C5800 C 0.92774 0.51135 0.89731 0.0
C5801 C 0.93194 0.52717 0.90952 0.0
C5802 C 0.92796 0.5427 0.90381 0.0
C5803 C 0.92053 0.54254 0.88562 0.0
C5804 C 0.9436 0.52805 0.92669 0.0
C5805 C 0.96116 0.53789 0.92762 0.0
C5806 C 0.93872 0.51681 0.94017 0.0
C5807 C 0.92025 0.50626 0.93978 0.0
C5808 C 0.90583 0.51443 0.93813 0.0
C5809 C 0.88848 0.50447 0.93806 0.0
C5810 C 0.88539 0.48634 0.93971 0.0
C5811 C 0.89965 0.47812 0.94145 0.0
C5812 C 0.91701 0.48801 0.94152 0.0
C5813 C 0.99905 0.5419 0.99947 0.0
C5814 C 1.00556 0.52691 0.0026 0.0
C5815 C 0.98725 0.54133 0.98384 0.0
C5816 C 0.98172 0.52569 0.9714 0.0
C5817 C 0.98817 0.51063 0.97442 0.0
C5818 C 1.00036 0.51132 0.98996 0.0
C5819 C 0.96923 0.52547 0.95514 0.0
C5820 C 0.9517 0.51575 0.95441 0.0
C5821 C 0.97416 0.5365 0.94158 0.0
C5822 C 0.99289 0.54608 0.94136 0.0
C5823 C 1.0065 0.53677 0.94157 0.0
C5824 C 0.02414 0.54582 0.9415 0.0
C5825 C 0.02834 0.56418 0.94106 0.0
C5826 C 0.01488 0.57351 0.94061 0.0
C5827 C 0.99721 0.56452 0.94073 0.0
H5828 H 0.04201 0.57117 0.94101 0.0
H5829 H 0.87195 0.47866 0.93968 0.0
H5830 H 0.27821 0.17153 0.58275 0.0
H5831 H 0.27736 0.18366 0.6145 0.0
H5832 H 0.28026 0.23564 0.59782 0.0
H5833 H 0.28081 0.22341 0.56549 0.0
H5834 H 0.30393 0.23465 0.63138 0.0
H5835 H 0.24182 0.2124 0.60587 0.0
H5836 H 0.21576 0.1895 0.59028 0.0
H5837 H 0.22215 0.15636 0.63262 0.0
H5838 H 0.24845 0.17891 0.64829 0.0
H5839 H 0.2777 0.27451 0.71422 0.0
H5840 H 0.27867 0.26367 0.68166 0.0
H5841 H 0.27541 0.21068 0.69571 0.0
H5842 H 0.27516 0.22156 0.7283 0.0
H5843 H 0.25191 0.21228 0.66343 0.0
H5844 H 0.31199 0.22927 0.68817 0.0
H5845 H 0.34058 0.24736 0.7045 0.0
H5846 H 0.34129 0.28482 0.66533 0.0
H5847 H 0.31244 0.26715 0.64899 0.0
C5848 C 0.27881 0.18561 0.5857 0.0
C5849 C 0.27967 0.1965 0.5714 0.0
C5850 C 0.2782 0.1925 0.60397 0.0
C5851 C 0.27861 0.21055 0.60865 0.0
C5852 C 0.27987 0.22164 0.59457 0.0
C5853 C 0.28017 0.21465 0.57607 0.0
C5854 C 0.27765 0.21761 0.62826 0.0
C5855 C 0.29237 0.23011 0.63825 0.0
C5856 C 0.26302 0.21088 0.63764 0.0
C5857 C 0.24721 0.1973 0.62817 0.0
C5858 C 0.23778 0.20016 0.61176 0.0
C5859 C 0.22294 0.18725 0.60292 0.0
C5860 C 0.21732 0.17147 0.61043 0.0
C5861 C 0.22653 0.16857 0.62681 0.0
C5862 C 0.2414 0.18142 0.63567 0.0
C5863 C 0.27717 0.26055 0.71034 0.0
C5864 C 0.27649 0.24894 0.72388 0.0
C5865 C 0.27779 0.25438 0.69175 0.0
C5866 C 0.27723 0.23635 0.68619 0.0
C5867 C 0.27594 0.22464 0.69961 0.0
C5868 C 0.27583 0.2309 0.71826 0.0
C5869 C 0.27797 0.22973 0.66641 0.0
C5870 C 0.26332 0.21714 0.65647 0.0
C5871 C 0.29292 0.23587 0.65727 0.0
C5872 C 0.30983 0.24706 0.66756 0.0
C5873 C 0.31803 0.24156 0.68325 0.0
C5874 C 0.33435 0.25169 0.69246 0.0
C5875 C 0.34271 0.26728 0.68601 0.0
C5876 C 0.33475 0.27278 0.67036 0.0
C5877 C 0.3184 0.26273 0.66113 0.0
H5878 H 0.3554 0.27504 0.6931 0.0
H5879 H 0.20582 0.1615 0.60358 0.0
H5880 H 0.62436 0.50693 0.23298 0.0
H5881 H 0.61258 0.50733 0.20089 0.0
H5882 H 0.58106 0.54349 0.21902 0.0
H5883 H 0.59231 0.5425 0.25133 0.0
H5884 H 0.56228 0.52154 0.19227 0.0
H5885 H 0.62304 0.55585 0.199 0.0
H5886 H 0.65569 0.56143 0.20601 0.0
H5887 H 0.65606 0.518 0.16485 0.0
H5888 H 0.62341 0.51201 0.15776 0.0
H5889 H 0.53951 0.54418 0.10276 0.0
H5890 H 0.55136 0.54515 0.13511 0.0
H5891 H 0.58466 0.51016 0.11873 0.0
H5892 H 0.57386 0.51029 0.08634 0.0
H5893 H 0.60296 0.53253 0.14479 0.0
H5894 H 0.5431 0.49695 0.13881 0.0
H5895 H 0.5104 0.49024 0.13143 0.0
H5896 H 0.50844 0.53449 0.17085 0.0
H5897 H 0.54113 0.54158 0.17827 0.0
C5898 C 0.61475 0.51482 0.23019 0.0
C5899 C 0.60925 0.52463 0.24485 0.0
C5900 C 0.60817 0.51523 0.21171 0.0
C5901 C 0.59622 0.52584 0.20723 0.0
C5902 C 0.59032 0.53525 0.22191 0.0
C5903 C 0.59669 0.53461 0.24046 0.0
C5904 C 0.58965 0.52688 0.18738 0.0
C5905 C 0.57127 0.52423 0.182 0.0
C5906 C 0.60116 0.52985 0.17358 0.0
C5907 C 0.62077 0.53339 0.17798 0.0
C5908 C 0.63008 0.54741 0.19155 0.0
C5909 C 0.64859 0.55066 0.19552 0.0
C5910 C 0.65794 0.54005 0.18592 0.0
C5911 C 0.64881 0.52619 0.1723 0.0
C5912 C 0.63031 0.52287 0.1683 0.0
C5913 C 0.54957 0.53695 0.10595 0.0
C5914 C 0.55585 0.52742 0.0917 0.0
C5915 C 0.55619 0.53726 0.12462 0.0
C5916 C 0.56881 0.52748 0.12969 0.0
C5917 C 0.57502 0.5179 0.11544 0.0
C5918 C 0.56872 0.51793 0.09679 0.0
C5919 C 0.57557 0.52713 0.14969 0.0
C5920 C 0.59398 0.5299 0.15508 0.0
C5921 C 0.56411 0.5241 0.16348 0.0
C5922 C 0.54452 0.51989 0.15895 0.0
C5923 C 0.53568 0.50531 0.14579 0.0
C5924 C 0.51716 0.50143 0.14162 0.0
C5925 C 0.50736 0.51196 0.15063 0.0
C5926 C 0.51605 0.52636 0.16385 0.0
C5927 C 0.53456 0.53031 0.16805 0.0
H5928 H 0.49302 0.50892 0.14739 0.0
H5929 H 0.67227 0.5426 0.189 0.0
H5930 H 0.25858 0.8586 0.95472 0.0
H5931 H 0.25937 0.84339 0.92407 0.0
H5932 H 0.28572 0.89315 0.9074 0.0
H5933 H 0.28413 0.90858 0.93796 0.0
H5934 H 0.26318 0.87266 0.87927 0.0
H5935 H 0.31133 0.86567 0.92105 0.0
H5936 H 0.32743 0.85917 0.94936 0.0
H5937 H 0.29525 0.80574 0.94101 0.0
H5938 H 0.27891 0.81196 0.91271 0.0
H5939 H 0.30394 0.81774 0.81581 0.0
H5940 H 0.30318 0.83764 0.84377 0.0
H5941 H 0.25139 0.80605 0.84966 0.0
H5942 H 0.25149 0.787 0.8207 0.0
H5943 H 0.29042 0.82067 0.88161 0.0
H5944 H 0.23986 0.83217 0.84018 0.0
H5945 H 0.22816 0.83994 0.81035 0.0
H5946 H 0.27016 0.88732 0.81727 0.0
H5947 H 0.28238 0.87954 0.84697 0.0
C5948 C 0.26397 0.86631 0.94426 0.0
C5949 C 0.27119 0.88461 0.94837 0.0
C5950 C 0.26461 0.85766 0.92693 0.0
C5951 C 0.27306 0.86716 0.91383 0.0
C5952 C 0.27925 0.88568 0.91748 0.0
C5953 C 0.27822 0.89444 0.93477 0.0
C5954 C 0.27615 0.85736 0.89681 0.0
C5955 C 0.26929 0.86142 0.87977 0.0
C5956 C 0.28446 0.84294 0.89752 0.0
C5957 C 0.29382 0.83933 0.91487 0.0
C5958 C 0.30758 0.85259 0.92537 0.0
C5959 C 0.31679 0.84894 0.94137 0.0
C5960 C 0.31234 0.83206 0.947 0.0
C5961 C 0.29868 0.81881 0.93664 0.0
C5962 C 0.28947 0.82238 0.92061 0.0
C5963 C 0.29232 0.81534 0.82298 0.0
C5964 C 0.27753 0.80147 0.81615 0.0
C5965 C 0.29195 0.82652 0.83884 0.0
C5966 C 0.27698 0.82345 0.8481 0.0
C5967 C 0.26278 0.80869 0.84214 0.0
C5968 C 0.26295 0.79777 0.82595 0.0
C5969 C 0.27653 0.83539 0.86448 0.0
C5970 C 0.28428 0.83191 0.88127 0.0
C5971 C 0.26945 0.85051 0.86344 0.0
C5972 C 0.26219 0.85512 0.8456 0.0
C5973 C 0.24677 0.84408 0.83519 0.0
C5974 C 0.24001 0.84851 0.81834 0.0
C5975 C 0.24845 0.86407 0.81189 0.0
C5976 C 0.26368 0.87524 0.82226 0.0
C5977 C 0.27054 0.87081 0.83909 0.0
H5978 H 0.24311 0.8675 0.79892 0.0
H5979 H 0.31951 0.82925 0.95938 0.0
H5980 H 0.88409 0.51176 0.7519 0.0
H5981 H 0.89784 0.50964 0.72359 0.0
H5982 H 0.94891 0.53668 0.75396 0.0
H5983 H 0.93529 0.53891 0.78244 0.0
H5984 H 0.94059 0.5506 0.72222 0.0
H5985 H 0.94075 0.49393 0.74177 0.0
H5986 H 0.92897 0.46453 0.75115 0.0
H5987 H 0.89536 0.44843 0.6991 0.0
H5988 H 0.90668 0.47788 0.68953 0.0
H5989 H 1.00181 0.5224 0.6671 0.0
H5990 H 0.98349 0.53206 0.68956 0.0
H5991 H 0.9361 0.50822 0.65124 0.0
H5992 H 0.95448 0.49885 0.62861 0.0
H5993 H 0.93945 0.49345 0.68456 0.0
H5994 H 0.94205 0.55025 0.66451 0.0
H5995 H 0.95477 0.57983 0.65601 0.0
H5996 H 0.98524 0.5953 0.70985 0.0
H5997 H 0.97289 0.56574 0.7186 0.0
C5998 C 0.89823 0.51738 0.75253 0.0
C5999 C 0.90865 0.52565 0.76928 0.0
C6000 C 0.90604 0.51599 0.73642 0.0
C6001 C 0.92431 0.52291 0.73688 0.0
C6002 C 0.93475 0.53127 0.7535 0.0
C6003 C 0.92697 0.53256 0.76968 0.0
C6004 C 0.93243 0.52205 0.71981 0.0
C6005 C 0.94055 0.53813 0.71402 0.0
C6006 C 0.93172 0.50572 0.70901 0.0
C6007 C 0.92434 0.48825 0.71506 0.0
C6008 C 0.93062 0.48425 0.73244 0.0
C6009 C 0.92408 0.46753 0.73777 0.0
C6010 C 0.91137 0.45464 0.72576 0.0
C6011 C 0.90515 0.45845 0.70841 0.0
C6012 C 0.91161 0.47516 0.70304 0.0
C6013 C 0.98751 0.51969 0.66341 0.0
C6014 C 0.97936 0.50973 0.6465 0.0
C6015 C 0.97713 0.52536 0.67605 0.0
C6016 C 0.95854 0.52086 0.6719 0.0
C6017 C 0.95047 0.51191 0.65448 0.0
C6018 C 0.96089 0.50649 0.64171 0.0
C6019 C 0.94781 0.52203 0.68702 0.0
C6020 C 0.93924 0.50596 0.69255 0.0
C6021 C 0.94836 0.53834 0.69773 0.0
C6022 C 0.95666 0.55572 0.69214 0.0
C6023 C 0.95168 0.55986 0.67444 0.0
C6024 C 0.95876 0.57665 0.6696 0.0
C6025 C 0.97083 0.58942 0.68236 0.0
C6026 C 0.97591 0.5854 0.69997 0.0
C6027 C 0.96887 0.56863 0.70487 0.0
H6028 H 0.97622 0.60245 0.67863 0.0
H6029 H 0.90638 0.44169 0.72988 0.0
H6030 H 0.26972 0.22566 0.47213 0.0
H6031 H 0.27139 0.23546 0.44164 0.0
H6032 H 0.27912 0.18439 0.41978 0.0
H6033 H 0.27883 0.1751 0.45076 0.0
H6034 H 0.2973 0.20658 0.40255 0.0
H6035 H 0.23634 0.19888 0.41342 0.0
H6036 H 0.21142 0.20311 0.43033 0.0
H6037 H 0.22661 0.25946 0.4287 0.0
H6038 H 0.25169 0.25556 0.41194 0.0
H6039 H 0.27901 0.22378 0.30942 0.0
H6040 H 0.2762 0.21098 0.33818 0.0
H6041 H 0.27237 0.26139 0.36602 0.0
H6042 H 0.2723 0.27342 0.33669 0.0
H6043 H 0.25151 0.23713 0.37889 0.0
H6044 H 0.31733 0.24334 0.37543 0.0
H6045 H 0.33898 0.2394 0.35385 0.0
H6046 H 0.30967 0.18565 0.33617 0.0
H6047 H 0.28913 0.1886 0.35915 0.0
C6048 C 0.27194 0.21657 0.46086 0.0
C6049 C 0.27411 0.19958 0.46395 0.0
C6050 C 0.27268 0.22211 0.44326 0.0
C6051 C 0.27479 0.21055 0.42794 0.0
C6052 C 0.27738 0.19366 0.43114 0.0
C6053 C 0.2772 0.18832 0.44892 0.0
C6054 C 0.27413 0.21603 0.40872 0.0
C6055 C 0.28711 0.21308 0.39746 0.0
C6056 C 0.261 0.2246 0.40157 0.0
C6057 C 0.24594 0.22694 0.41159 0.0
C6058 C 0.2344 0.21217 0.41677 0.0
C6059 C 0.22025 0.21451 0.42631 0.0
C6060 C 0.21746 0.23154 0.43063 0.0
C6061 C 0.22879 0.24627 0.42537 0.0
C6062 C 0.24295 0.24401 0.41583 0.0
C6063 C 0.27763 0.2322 0.32166 0.0
C6064 C 0.2764 0.24987 0.32064 0.0
C6065 C 0.27642 0.22492 0.33835 0.0
C6066 C 0.27511 0.23537 0.35483 0.0
C6067 C 0.27372 0.25298 0.35376 0.0
C6068 C 0.274 0.25999 0.3369 0.0
C6069 C 0.27484 0.22809 0.3731 0.0
C6070 C 0.26167 0.23065 0.38413 0.0
C6071 C 0.2876 0.21902 0.37992 0.0
C6072 C 0.30189 0.21614 0.36907 0.0
C6073 C 0.31601 0.23046 0.36748 0.0
C6074 C 0.32817 0.22833 0.35514 0.0
C6075 C 0.326 0.21208 0.344 0.0
C6076 C 0.31187 0.19787 0.34545 0.0
C6077 C 0.30021 0.19964 0.35841 0.0
H6078 H 0.33509 0.21056 0.33405 0.0
H6079 H 0.20651 0.23333 0.43802 0.0
H6080 H 0.32318 0.6282 0.54734 0.0
H6081 H 0.35339 0.62359 0.55114 0.0
H6082 H 0.33198 0.56677 0.54562 0.0
H6083 H 0.30182 0.57143 0.5429 0.0
H6084 H 0.35658 0.5771 0.57413 0.0
H6085 H 0.34956 0.5895 0.51024 0.0
H6086 H 0.34386 0.60843 0.48638 0.0
H6087 H 0.38894 0.64951 0.51202 0.0
H6088 H 0.39471 0.63093 0.53622 0.0
H6089 H 0.40823 0.52906 0.53086 0.0
H6090 H 0.38858 0.54514 0.54529 0.0
H6091 H 0.43003 0.59356 0.55324 0.0
H6092 H 0.44973 0.57728 0.53841 0.0
H6093 H 0.40114 0.59634 0.53218 0.0
H6094 H 0.41128 0.57761 0.59145 0.0
H6095 H 0.41538 0.55678 0.61381 0.0
H6096 H 0.36301 0.52452 0.59422 0.0
H6097 H 0.35867 0.54501 0.57162 0.0
C6098 C 0.32501 0.61473 0.5466 0.0
C6099 C 0.3104 0.60009 0.54472 0.0
C6100 C 0.34219 0.61215 0.54886 0.0
C6101 C 0.3448 0.59487 0.54864 0.0
C6102 C 0.33014 0.58022 0.546 0.0
C6103 C 0.313 0.58283 0.54425 0.0
C6104 C 0.36274 0.59179 0.55138 0.0
C6105 C 0.3664 0.58129 0.565 0.0
C6106 C 0.3757 0.59802 0.53998 0.0
C6107 C 0.37243 0.60894 0.52516 0.0
C6108 C 0.35819 0.60261 0.51084 0.0
C6109 C 0.35494 0.61327 0.49726 0.0
C6110 C 0.36599 0.63018 0.49772 0.0
C6111 C 0.38036 0.63643 0.51171 0.0
C6112 C 0.38362 0.62585 0.52536 0.0
C6113 C 0.41326 0.54299 0.53631 0.0
C6114 C 0.43018 0.55212 0.53353 0.0
C6115 C 0.40217 0.55213 0.54474 0.0
C6116 C 0.40798 0.57049 0.55052 0.0
C6117 C 0.42547 0.57935 0.54904 0.0
C6118 C 0.43663 0.57013 0.5406 0.0
C6119 C 0.39456 0.58059 0.55416 0.0
C6120 C 0.3917 0.59262 0.54181 0.0
C6121 C 0.38209 0.57535 0.56638 0.0
C6122 C 0.38466 0.56291 0.57989 0.0
C6123 C 0.40068 0.56603 0.59186 0.0
C6124 C 0.40303 0.55428 0.60459 0.0
C6125 C 0.38946 0.53935 0.60545 0.0
C6126 C 0.3735 0.53612 0.59358 0.0
C6127 C 0.37107 0.54783 0.58085 0.0
H6128 H 0.39131 0.53028 0.61532 0.0
H6129 H 0.36345 0.63843 0.4872 0.0
H6130 H 0.8541 0.92039 0.57748 0.0
H6131 H 0.88432 0.93777 0.57642 0.0
H6132 H 0.87207 0.93686 0.51744 0.0
H6133 H 0.84219 0.91851 0.51847 0.0
H6134 H 0.90372 0.93241 0.52399 0.0
H6135 H 0.87401 0.97495 0.55247 0.0
H6136 H 0.85704 0.98584 0.57597 0.0
H6137 H 0.89848 0.98439 0.61899 0.0
H6138 H 0.91559 0.9733 0.59574 0.0
H6139 H 0.97249 0.00877 0.51376 0.0
H6140 H 0.94353 0.98882 0.51553 0.0
H6141 H 0.96298 0.97889 0.56975 0.0
H6142 H 0.99212 0.99825 0.56774 0.0
H6143 H 0.92876 0.98836 0.56654 0.0
H6144 H 0.95889 0.94739 0.53992 0.0
H6145 H 0.9759 0.93382 0.51833 0.0
H6146 H 0.93459 0.93067 0.47354 0.0
H6147 H 0.91742 0.94447 0.49485 0.0
C6148 C 0.85793 0.92398 0.56434 0.0
C6149 C 0.84589 0.91831 0.54808 0.0
C6150 C 0.87516 0.93402 0.56372 0.0
C6151 C 0.8805 0.93909 0.5469 0.0
C6152 C 0.86837 0.93325 0.53061 0.0
C6153 C 0.85127 0.92286 0.53119 0.0
C6154 C 0.89869 0.95033 0.54618 0.0
C6155 C 0.90901 0.94482 0.53307 0.0
C6156 C 0.90608 0.9662 0.55851 0.0
C6157 C 0.89598 0.97319 0.57241 0.0
C6158 C 0.87946 0.97691 0.56695 0.0
C6159 C 0.86982 0.98311 0.58022 0.0
C6160 C 0.87666 0.98577 0.59897 0.0
C6161 C 0.89319 0.98231 0.60447 0.0
C6162 C 0.90287 0.97609 0.59126 0.0
C6163 C 0.97049 1.00245 0.52611 0.0
C6164 C 0.98445 0.0052 0.5407 0.0
C6165 C 0.95404 0.99093 0.52703 0.0
C6166 C 0.95113 0.98232 0.54275 0.0
C6167 C 0.96496 0.98536 0.55748 0.0
C6168 C 0.98155 0.99645 0.55634 0.0
C6169 C 0.93347 0.97063 0.54407 0.0
C6170 C 0.92334 0.97604 0.55734 0.0
C6171 C 0.92633 0.95463 0.532 0.0
C6172 C 0.937 0.94723 0.51893 0.0
C6173 C 0.95356 0.94408 0.52542 0.0
C6174 C 0.96317 0.93621 0.51326 0.0
C6175 C 0.95632 0.93136 0.49458 0.0
C6176 C 0.93988 0.93443 0.48801 0.0
C6177 C 0.9302 0.94228 0.50012 0.0
H6178 H 0.96379 0.92527 0.48519 0.0
H6179 H 0.86916 0.99054 0.60922 0.0
H6180 H 0.87161 0.04875 0.28588 0.0
H6181 H 0.8589 0.07508 0.2876 0.0
H6182 H 0.89168 0.09657 0.24753 0.0
H6183 H 0.90418 0.0701 0.24561 0.0
H6184 H 0.88951 0.1223 0.27774 0.0
H6185 H 0.85184 0.07851 0.2316 0.0
H6186 H 0.83439 0.04832 0.21908 0.0
H6187 H 0.80005 0.05027 0.26114 0.0
H6188 H 0.8175 0.0804 0.27408 0.0
H6189 H 0.84018 0.18786 0.26546 0.0
H6190 H 0.85293 0.16255 0.2561 0.0
H6191 H 0.82196 0.13144 0.29198 0.0
H6192 H 0.80948 0.15679 0.30146 0.0
H6193 H 0.82422 0.11132 0.25978 0.0
H6194 H 0.86431 0.15359 0.30778 0.0
H6195 H 0.88254 0.18324 0.32102 0.0
H6196 H 0.91228 0.1844 0.27478 0.0
H6197 H 0.89429 0.15458 0.26136 0.0
C6198 C 0.87624 0.05925 0.27769 0.0
C6199 C 0.88883 0.0576 0.26569 0.0
C6200 C 0.86898 0.0742 0.27862 0.0
C6201 C 0.87432 0.08768 0.2676 0.0
C6202 C 0.88744 0.08632 0.25614 0.0
C6203 C 0.89452 0.07126 0.25503 0.0
C6204 C 0.86537 0.10261 0.2673 0.0
C6205 C 0.8753 0.11997 0.27351 0.0
C6206 C 0.84684 0.09953 0.26184 0.0
C6207 C 0.83605 0.08163 0.25388 0.0
C6208 C 0.84063 0.07245 0.23823 0.0
C6209 C 0.83074 0.05536 0.23106 0.0
C6210 C 0.81614 0.04737 0.23933 0.0
C6211 C 0.81136 0.05648 0.25475 0.0
C6212 C 0.82124 0.07357 0.262 0.0
C6213 C 0.83581 0.17542 0.2709 0.0
C6214 C 0.82398 0.17412 0.28417 0.0
C6215 C 0.84314 0.16106 0.26567 0.0
C6216 C 0.83859 0.14524 0.2736 0.0
C6217 C 0.82568 0.14354 0.28575 0.0
C6218 C 0.81852 0.15795 0.29112 0.0
C6219 C 0.84826 0.13099 0.27061 0.0
C6220 C 0.83847 0.11372 0.26375 0.0
C6221 C 0.86693 0.1342 0.2754 0.0
C6222 C 0.87786 0.15199 0.28349 0.0
C6223 C 0.87469 0.16022 0.30041 0.0
C6224 C 0.88499 0.17703 0.30795 0.0
C6225 C 0.89847 0.18579 0.29868 0.0
C6226 C 0.90179 0.17763 0.28192 0.0
C6227 C 0.8916 0.16074 0.27438 0.0
H6228 H 0.90637 0.19887 0.3045 0.0
H6229 H 0.80851 0.03412 0.23378 0.0
H6230 H 0.70679 0.13003 0.0447 0.0
H6231 H 0.67502 0.11855 0.04538 0.0
H6232 H 0.68254 0.06494 0.04106 0.0
H6233 H 0.71417 0.07613 0.0401 0.0
H6234 H 0.65825 0.07073 0.01416 0.0
H6235 H 0.67445 0.08304 0.07984 0.0
H6236 H 0.68755 0.10147 0.10953 0.0
H6237 H 0.65066 0.13463 0.10166 0.0
H6238 H 0.63759 0.11666 0.07167 0.0
H6239 H 0.58109 0.01642 0.03643 0.0
H6240 H 0.61069 0.03345 0.03288 0.0
H6241 H 0.59202 0.08193 0.03725 0.0
H6242 H 0.56267 0.06497 0.0416 0.0
H6243 H 0.62083 0.08247 0.0627 0.0
H6244 H 0.60778 0.07105 0.99469 0.0
H6245 H 0.59775 0.05312 0.96408 0.0
H6246 H 0.62895 0.01628 0.97875 0.0
H6247 H 0.64006 0.0346 0.00901 0.0
C6248 C 0.70164 0.11579 0.04383 0.0
C6249 C 0.71276 0.10388 0.042 0.0
C6250 C 0.68364 0.10936 0.0445 0.0
C6251 C 0.67679 0.09104 0.0434 0.0
C6252 C 0.68788 0.07917 0.04198 0.0
C6253 C 0.70581 0.08555 0.04125 0.0
C6254 C 0.65775 0.08395 0.0414 0.0
C6255 C 0.65005 0.07321 0.02481 0.0
C6256 C 0.64731 0.08778 0.05521 0.0
C6257 C 0.6552 0.09863 0.0733 0.0
C6258 C 0.66927 0.0944 0.08428 0.0
C6259 C 0.67667 0.10474 0.10121 0.0
C6260 C 0.66999 0.11925 0.10744 0.0
C6261 C 0.65586 0.12342 0.09678 0.0
C6262 C 0.64846 0.11316 0.07981 0.0
C6263 C 0.58328 0.03063 0.03603 0.0
C6264 C 0.56978 0.03948 0.03869 0.0
C6265 C 0.60002 0.04029 0.03391 0.0
C6266 C 0.60322 0.05881 0.03447 0.0
C6267 C 0.58952 0.06758 0.03647 0.0
C6268 C 0.57279 0.0579 0.03869 0.0
C6269 C 0.62144 0.06903 0.03553 0.0
C6270 C 0.62902 0.08035 0.05195 0.0
C6271 C 0.63197 0.06559 0.02175 0.0
C6272 C 0.62456 0.05405 0.0041 0.0
C6273 C 0.61235 0.05903 0.99142 0.0
C6274 C 0.60653 0.04884 0.97412 0.0
C6275 C 0.61237 0.03337 0.9696 0.0
C6276 C 0.62433 0.0282 0.98228 0.0
C6277 C 0.63056 0.03859 0.99942 0.0
H6278 H 0.60777 0.02549 0.95621 0.0
H6279 H 0.67573 0.12723 0.12056 0.0
H6280 H 0.21485 0.49444 0.23939 0.0
H6281 H 0.21867 0.46398 0.23785 0.0
H6282 H 0.19445 0.4576 0.28784 0.0
H6283 H 0.19036 0.48801 0.28942 0.0
H6284 H 0.23103 0.45443 0.2877 0.0
H6285 H 0.17254 0.43315 0.25351 0.0
H6286 H 0.14885 0.43237 0.22811 0.0
H6287 H 0.18196 0.41828 0.18837 0.0
H6288 H 0.20595 0.41918 0.21357 0.0
H6289 H 0.22917 0.37171 0.30667 0.0
H6290 H 0.21344 0.39182 0.29234 0.0
H6291 H 0.24875 0.39651 0.2505 0.0
H6292 H 0.26456 0.3762 0.26482 0.0
H6293 H 0.20672 0.39979 0.24281 0.0
H6294 H 0.26641 0.42467 0.27699 0.0
H6295 H 0.29048 0.42718 0.30257 0.0
H6296 H 0.25533 0.43647 0.34205 0.0
H6297 H 0.23097 0.43368 0.31667 0.0
C6298 C 0.21028 0.48649 0.25 0.0
C6299 C 0.20268 0.49353 0.26476 0.0
C6300 C 0.21216 0.46909 0.24888 0.0
C6301 C 0.20658 0.45874 0.26259 0.0
C6302 C 0.19852 0.46552 0.27704 0.0
C6303 C 0.19642 0.48285 0.27804 0.0
C6304 C 0.21216 0.4422 0.26375 0.0
C6305 C 0.22561 0.44243 0.27799 0.0
C6306 C 0.20545 0.42699 0.25056 0.0
C6307 C 0.19109 0.4264 0.2354 0.0
C6308 C 0.17483 0.43005 0.23935 0.0
C6309 C 0.16133 0.42954 0.22499 0.0
C6310 C 0.16391 0.42533 0.20663 0.0
C6311 C 0.17998 0.42156 0.2026 0.0
C6312 C 0.19352 0.42204 0.21692 0.0
C6313 C 0.23312 0.37657 0.29405 0.0
C6314 C 0.24819 0.37297 0.287 0.0
C6315 C 0.22405 0.38779 0.28578 0.0
C6316 C 0.23014 0.39555 0.27055 0.0
C6317 C 0.2439 0.39038 0.26218 0.0
C6318 C 0.25296 0.37901 0.27043 0.0
C6319 C 0.22534 0.41204 0.26696 0.0
C6320 C 0.21219 0.41188 0.25233 0.0
C6321 C 0.23241 0.42756 0.27968 0.0
C6322 C 0.24682 0.42861 0.29497 0.0
C6323 C 0.26375 0.42693 0.29114 0.0
C6324 C 0.27745 0.42848 0.30559 0.0
C6325 C 0.27441 0.43189 0.32393 0.0
C6326 C 0.25765 0.43375 0.32785 0.0
C6327 C 0.24389 0.43216 0.31344 0.0
H6328 H 0.28506 0.43316 0.3351 0.0
H6329 H 0.15345 0.42495 0.19553 0.0
H6330 H 0.25272 0.43339 0.08041 0.0
H6331 H 0.22561 0.44452 0.07935 0.0
H6332 H 0.20934 0.41879 0.02323 0.0
H6333 H 0.23649 0.40769 0.02414 0.0
H6334 H 0.20674 0.45214 0.02591 0.0
H6335 H 0.18762 0.40313 0.05888 0.0
H6336 H 0.18844 0.38368 0.0833 0.0
H6337 H 0.18876 0.42734 0.12448 0.0
H6338 H 0.18813 0.44711 0.1003 0.0
H6339 H 0.12156 0.46482 0.01101 0.0
H6340 H 0.14349 0.44768 0.01919 0.0
H6341 H 0.16301 0.48389 0.06948 0.0
H6342 H 0.14076 0.50099 0.06138 0.0
H6343 H 0.16337 0.44525 0.07134 0.0
H6344 H 0.18426 0.49434 0.03731 0.0
H6345 H 0.18084 0.51233 0.01196 0.0
H6346 H 0.1756 0.46634 0.97199 0.0
H6347 H 0.17876 0.44805 0.99717 0.0
C6348 C 0.24338 0.43009 0.06782 0.0
C6349 C 0.24686 0.41977 0.05228 0.0
C6350 C 0.22778 0.43631 0.06732 0.0
C6351 C 0.21534 0.43236 0.05128 0.0
C6352 C 0.21873 0.42197 0.03579 0.0
C6353 C 0.23428 0.41567 0.03631 0.0
C6354 C 0.1995 0.44017 0.05009 0.0
C6355 C 0.19719 0.45038 0.03575 0.0
C6356 C 0.18719 0.43831 0.06316 0.0
C6357 C 0.18808 0.42665 0.07781 0.0
C6358 C 0.1881 0.40864 0.07317 0.0
C6359 C 0.18846 0.39754 0.08696 0.0
C6360 C 0.18872 0.40429 0.10544 0.0
C6361 C 0.1886 0.42214 0.11017 0.0
C6362 C 0.18823 0.43329 0.09642 0.0
C6363 C 0.13021 0.46879 0.02405 0.0
C6364 C 0.12969 0.48423 0.03551 0.0
C6365 C 0.14266 0.459 0.02873 0.0
C6366 C 0.15495 0.46464 0.04483 0.0
C6367 C 0.15356 0.47929 0.05705 0.0
C6368 C 0.14094 0.48905 0.05241 0.0
C6369 C 0.17074 0.45695 0.04714 0.0
C6370 C 0.17304 0.44693 0.06163 0.0
C6371 C 0.18307 0.45883 0.0342 0.0
C6372 C 0.18164 0.46985 0.01907 0.0
C6373 C 0.1823 0.48808 0.02311 0.0
C6374 C 0.18041 0.49832 0.00878 0.0
C6375 C 0.17798 0.49048 0.99037 0.0
C6376 C 0.17749 0.47239 0.98626 0.0
C6377 C 0.17935 0.46209 0.00054 0.0
H6378 H 0.1765 0.49842 0.9793 0.0
H6379 H 0.18897 0.39566 0.11609 0.0
H6380 H 0.90774 0.94637 0.25981 0.0
H6381 H 0.88882 0.91658 0.25973 0.0
H6382 H 0.84436 0.93963 0.26901 0.0
H6383 H 0.86309 0.96944 0.26865 0.0
H6384 H 0.85293 0.91563 0.29465 0.0
H6385 H 0.84311 0.9182 0.22882 0.0
H6386 H 0.853 0.92221 0.19834 0.0
H6387 H 0.87844 0.87866 0.20134 0.0
H6388 H 0.86894 0.87457 0.23198 0.0
H6389 H 0.78752 0.83613 0.29265 0.0
H6390 H 0.80507 0.86549 0.28927 0.0
H6391 H 0.84004 0.84112 0.25876 0.0
H6392 H 0.82183 0.81179 0.26103 0.0
H6393 H 0.83635 0.86638 0.24273 0.0
H6394 H 0.8579 0.86945 0.30747 0.0
H6395 H 0.85963 0.86988 0.3413 0.0
H6396 H 0.82097 0.90169 0.34293 0.0
H6397 H 0.81962 0.90205 0.30915 0.0
C6398 C 0.8939 0.94508 0.2617 0.0
C6399 C 0.88692 0.96026 0.26431 0.0
C6400 C 0.88308 0.92805 0.26152 0.0
C6401 C 0.86516 0.92589 0.26423 0.0
C6402 C 0.85813 0.94101 0.26675 0.0
C6403 C 0.86884 0.95802 0.26655 0.0
C6404 C 0.85413 0.90802 0.26591 0.0
C6405 C 0.84895 0.90493 0.2832 0.0
C6406 C 0.84988 0.89382 0.25126 0.0
C6407 C 0.85543 0.89618 0.23276 0.0
C6408 C 0.85094 0.90958 0.22305 0.0
C6409 C 0.85645 0.91185 0.20573 0.0
C6410 C 0.86638 0.90073 0.19792 0.0
C6411 C 0.87077 0.88728 0.2074 0.0
C6412 C 0.8653 0.88496 0.22474 0.0
C6413 C 0.79876 0.83699 0.28494 0.0
C6414 C 0.80296 0.82148 0.2768 0.0
C6415 C 0.80909 0.85388 0.28335 0.0
C6416 C 0.82419 0.85576 0.27397 0.0
C6417 C 0.82848 0.84024 0.26601 0.0
C6418 C 0.81801 0.82337 0.26734 0.0
C6419 C 0.83495 0.8738 0.27168 0.0
C6420 C 0.84011 0.87701 0.25424 0.0
C6421 C 0.83994 0.888 0.2864 0.0
C6422 C 0.83835 0.88542 0.30585 0.0
C6423 C 0.8495 0.87621 0.31502 0.0
C6424 C 0.85064 0.87658 0.3342 0.0
C6425 C 0.84035 0.88575 0.34425 0.0
C6426 C 0.82888 0.89456 0.33513 0.0
C6427 C 0.82802 0.89458 0.31599 0.0
H6428 H 0.84129 0.88606 0.35912 0.0
H6429 H 0.87064 0.90251 0.18451 0.0
H6430 H 0.68517 0.1011 0.79624 0.0
H6431 H 0.69544 0.13256 0.79217 0.0
H6432 H 0.72655 0.11756 0.75027 0.0
H6433 H 0.7172 0.08658 0.75501 0.0
H6434 H 0.7458 0.13992 0.77894 0.0
H6435 H 0.69069 0.13418 0.73866 0.0
H6436 H 0.65799 0.12678 0.73132 0.0
H6437 H 0.65457 0.16568 0.77608 0.0
H6438 H 0.68725 0.17317 0.78379 0.0
H6439 H 0.78598 0.22246 0.75793 0.0
H6440 H 0.76783 0.19234 0.75424 0.0
H6441 H 0.7314 0.2098 0.78864 0.0
H6442 H 0.74777 0.24031 0.78936 0.0
H6443 H 0.71364 0.18613 0.76379 0.0
H6444 H 0.76774 0.18999 0.80588 0.0
H6445 H 0.80029 0.19673 0.81469 0.0
H6446 H 0.80511 0.16036 0.76824 0.0
H6447 H 0.77263 0.15351 0.75913 0.0
C6448 C 0.69433 0.10475 0.78635 0.0
C6449 C 0.70113 0.09191 0.77651 0.0
C6450 C 0.69982 0.12246 0.78375 0.0
C6451 C 0.7116 0.12707 0.77089 0.0
C6452 C 0.71747 0.11404 0.76028 0.0
C6453 C 0.71245 0.09653 0.76326 0.0
C6454 C 0.72036 0.14551 0.77064 0.0
C6455 C 0.73882 0.15001 0.77535 0.0
C6456 C 0.71099 0.15851 0.76668 0.0
C6457 C 0.69138 0.15416 0.76186 0.0
C6458 C 0.68295 0.14108 0.747 0.0
C6459 C 0.66443 0.13689 0.74276 0.0
C6460 C 0.65421 0.14574 0.75325 0.0
C6461 C 0.6625 0.15884 0.76796 0.0
C6462 C 0.68102 0.16309 0.77225 0.0
C6463 C 0.77416 0.21988 0.7648 0.0
C6464 C 0.76878 0.23359 0.775 0.0
C6465 C 0.76384 0.20268 0.7627 0.0
C6466 C 0.74877 0.19884 0.77186 0.0
C6467 C 0.74322 0.21251 0.78177 0.0
C6468 C 0.75293 0.22985 0.78284 0.0
C6469 C 0.73919 0.18046 0.77173 0.0
C6470 C 0.7206 0.176 0.76723 0.0
C6471 C 0.74838 0.16737 0.7761 0.0
C6472 C 0.76784 0.17131 0.78181 0.0
C6473 C 0.77578 0.18347 0.79756 0.0
C6474 C 0.7942 0.18731 0.80259 0.0
C6475 C 0.80477 0.17899 0.79202 0.0
C6476 C 0.79692 0.16678 0.77642 0.0
C6477 C 0.77852 0.16288 0.77135 0.0
H6478 H 0.81903 0.182 0.79592 0.0
H6479 H 0.63987 0.14246 0.74996 0.0
loop_
_geom_bond_atom_site_label_1
_geom_bond_atom_site_label_2
_geom_bond_distance
_geom_bond_site_symmetry_2
_ccdc_geom_bond_type
O0 Cd1 2.223 . S
O0 C8 1.315 . S
Cd1 O0 2.223 . S
Cd1 O4 2.297 . S
Cd1 O5 2.439 . S
Cd1 O11 2.240 . S
Cd2 O3 2.240 . S
Cd2 O10 2.227 . S
Cd2 O12 2.297 . S
Cd2 O13 2.439 . S
O3 Cd2 2.240 . S
O3 C8 1.279 . S
O4 Cd1 2.297 . S
O4 C6 1.247 . S
O5 Cd1 2.439 . S
O5 C6 1.208 . S
C6 O4 1.247 . S
C6 O5 1.208 . S
C7 O12 1.247 . S
C7 O13 1.208 . S
C8 O0 1.315 . S
C8 O3 1.279 . S
C9 O10 1.316 . S
C9 O11 1.279 . S
O10 Cd2 2.227 . S
O10 C9 1.316 . S
O11 Cd1 2.240 . S
O11 C9 1.279 . S
O12 Cd2 2.297 . S
O12 C7 1.247 . S
O13 Cd2 2.439 . S
O13 C7 1.208 . S
O14 Cd15 2.223 . S
O14 C22 1.315 . S
Cd15 O14 2.223 . S
Cd15 O18 2.297 1_455 S
Cd15 O19 2.439 1_455 S
Cd15 O25 2.240 . S
Cd16 O17 2.229 1_455 S
Cd16 O24 2.223 . S
Cd16 O26 2.297 . S
Cd16 O27 2.439 . S
O17 Cd16 2.229 1_655 S
O17 C22 1.269 1_655 S
O18 Cd15 2.297 1_655 S
O18 C20 1.247 . S
O19 Cd15 2.439 1_655 S
O19 C20 1.208 . S
C20 O18 1.247 . S
C20 O19 1.208 . S
C21 O26 1.247 . S
C21 O27 1.208 . S
C22 O14 1.315 . S
C22 O17 1.269 1_455 S
C23 O24 1.315 . S
C23 O25 1.279 . S
O24 Cd16 2.223 . S
O24 C23 1.315 . S
O25 Cd15 2.240 . S
O25 C23 1.279 . S
O26 Cd16 2.297 . S
O26 C21 1.247 . S
O27 Cd16 2.439 . S
O27 C21 1.208 . S
O28 Cd29 2.223 . S
O28 C36 1.315 . S
Cd29 O28 2.223 . S
Cd29 O32 2.297 . S
Cd29 O33 2.439 . S
Cd29 O39 2.240 . S
Cd30 O31 2.240 . S
Cd30 O38 2.223 . S
Cd30 O40 2.297 . S
Cd30 O41 2.439 . S
O31 Cd30 2.240 . S
O31 C36 1.279 . S
O32 Cd29 2.297 . S
O32 C34 1.247 . S
O33 Cd29 2.439 . S
O33 C34 1.208 . S
C34 O32 1.247 . S
C34 O33 1.208 . S
C35 O40 1.247 . S
C35 O41 1.208 . S
C36 O28 1.315 . S
C36 O31 1.279 . S
C37 O38 1.315 . S
C37 O39 1.279 . S
O38 Cd30 2.223 . S
O38 C37 1.315 . S
O39 Cd29 2.240 . S
O39 C37 1.279 . S
O40 Cd30 2.297 . S
O40 C35 1.247 . S
O41 Cd30 2.439 . S
O41 C35 1.208 . S
O42 Cd43 2.223 . S
O42 C50 1.315 . S
Cd43 O42 2.223 . S
Cd43 O46 2.297 . S
Cd43 O47 2.439 . S
Cd43 O53 2.240 . S
Cd44 O45 2.240 . S
Cd44 O52 2.223 . S
Cd44 O54 2.297 . S
Cd44 O55 2.439 . S
O45 Cd44 2.240 . S
O45 C50 1.279 . S
O46 Cd43 2.297 . S
O46 C48 1.247 . S
O47 Cd43 2.439 . S
O47 C48 1.208 . S
C48 O46 1.247 . S
C48 O47 1.208 . S
C49 O54 1.247 . S
C49 O55 1.208 . S
C50 O42 1.315 . S
C50 O45 1.279 . S
C51 O52 1.315 . S
C51 O53 1.279 . S
O52 Cd44 2.223 . S
O52 C51 1.315 . S
O53 Cd43 2.240 . S
O53 C51 1.279 . S
O54 Cd44 2.297 . S
O54 C49 1.247 . S
O55 Cd44 2.439 . S
O55 C49 1.208 . S
O56 Cd57 2.223 . S
O56 C64 1.315 . S
Cd57 O56 2.223 . S
Cd57 O60 2.297 . S
Cd57 O61 2.439 . S
Cd57 O67 2.240 . S
Cd58 O59 2.240 . S
Cd58 O66 2.223 . S
Cd58 O68 2.297 . S
Cd58 O69 2.439 . S
O59 Cd58 2.240 . S
O59 C64 1.279 . S
O60 Cd57 2.297 . S
O60 C62 1.247 . S
O61 Cd57 2.439 . S
O61 C62 1.208 . S
C62 O60 1.247 . S
C62 O61 1.208 . S
C63 O68 1.247 . S
C63 O69 1.208 . S
C64 O56 1.315 . S
C64 O59 1.279 . S
C65 O66 1.315 . S
C65 O67 1.279 . S
O66 Cd58 2.223 . S
O66 C65 1.315 . S
O67 Cd57 2.240 . S
O67 C65 1.279 . S
O68 Cd58 2.297 . S
O68 C63 1.247 . S
O69 Cd58 2.439 . S
O69 C63 1.208 . S
O70 Cd71 2.223 . S
O70 C78 1.315 . S
Cd71 O70 2.223 . S
Cd71 O74 2.297 . S
Cd71 O75 2.439 . S
Cd71 O81 2.240 . S
Cd72 O73 2.240 . S
Cd72 O80 2.223 . S
Cd72 O82 2.297 . S
Cd72 O83 2.439 . S
O73 Cd72 2.240 . S
O73 C78 1.279 . S
O74 Cd71 2.297 . S
O74 C76 1.247 . S
O75 Cd71 2.439 . S
O75 C76 1.208 . S
C76 O74 1.247 . S
C76 O75 1.208 . S
C77 O82 1.247 . S
C77 O83 1.208 . S
C78 O70 1.315 . S
C78 O73 1.279 . S
C79 O80 1.315 . S
C79 O81 1.279 . S
O80 Cd72 2.223 . S
O80 C79 1.315 . S
O81 Cd71 2.240 . S
O81 C79 1.279 . S
O82 Cd72 2.297 . S
O82 C77 1.247 . S
O83 Cd72 2.439 . S
O83 C77 1.208 . S
O84 Cd85 2.223 . S
O84 C92 1.315 . S
Cd85 O84 2.223 . S
Cd85 O88 2.297 . S
Cd85 O89 2.439 . S
Cd85 O95 2.240 . S
Cd86 O87 2.240 . S
Cd86 O94 2.223 . S
Cd86 O96 2.297 . S
Cd86 O97 2.439 . S
O87 Cd86 2.240 . S
O87 C92 1.279 . S
O88 Cd85 2.297 . S
O88 C90 1.247 . S
O89 Cd85 2.439 . S
O89 C90 1.208 . S
C90 O88 1.247 . S
C90 O89 1.208 . S
C91 O96 1.247 . S
C91 O97 1.208 . S
C92 O84 1.315 . S
C92 O87 1.279 . S
C93 O94 1.315 . S
C93 O95 1.279 . S
O94 Cd86 2.223 . S
O94 C93 1.315 . S
O95 Cd85 2.240 . S
O95 C93 1.279 . S
O96 Cd86 2.297 . S
O96 C91 1.247 . S
O97 Cd86 2.439 . S
O97 C91 1.208 . S
O98 Cd99 2.223 1_655 S
O98 C106 1.315 . S
Cd99 O98 2.223 1_455 S
Cd99 O102 2.297 . S
Cd99 O103 2.439 . S
Cd99 O109 2.240 1_455 S
Cd100 O101 2.240 1_655 S
Cd100 O108 2.223 . S
Cd100 O110 2.297 . S
Cd100 O111 2.439 1_655 S
O101 Cd100 2.240 1_455 S
O101 C106 1.279 1_455 S
O102 Cd99 2.297 . S
O102 C104 1.247 . S
O103 Cd99 2.439 . S
O103 C104 1.208 . S
C104 O102 1.247 . S
C104 O103 1.208 . S
C105 O110 1.267 . S
C105 O111 1.189 1_655 S
C106 O98 1.315 . S
C106 O101 1.279 1_655 S
C107 O108 1.315 . S
C107 O109 1.279 . S
O108 Cd100 2.223 . S
O108 C107 1.315 . S
O109 Cd99 2.240 1_655 S
O109 C107 1.279 . S
O110 Cd100 2.297 . S
O110 C105 1.267 . S
O111 Cd100 2.439 1_455 S
O111 C105 1.189 1_455 S
O112 Cd113 2.223 . S
O112 C120 1.315 . S
Cd113 O112 2.223 . S
Cd113 O116 2.297 . S
Cd113 O117 2.439 . S
Cd113 O123 2.240 1_545 S
Cd114 O115 2.240 . S
Cd114 O122 2.223 1_545 S
Cd114 O124 2.297 1_545 S
Cd114 O125 2.439 . S
O115 Cd114 2.240 . S
O115 C120 1.279 . S
O116 Cd113 2.297 . S
O116 C118 1.247 . S
O117 Cd113 2.439 . S
O117 C118 1.208 . S
C118 O116 1.247 . S
C118 O117 1.208 . S
C119 O124 1.247 1_545 S
C119 O125 1.208 . S
C120 O112 1.315 . S
C120 O115 1.279 . S
C121 O122 1.315 . S
C121 O123 1.279 . S
O122 Cd114 2.223 1_565 S
O122 C121 1.315 . S
O123 Cd113 2.240 1_565 S
O123 C121 1.279 . S
O124 Cd114 2.297 1_565 S
O124 C119 1.247 1_565 S
O125 Cd114 2.439 . S
O125 C119 1.208 . S
O126 Cd127 2.223 . S
O126 C134 1.315 . S
Cd127 O126 2.223 . S
Cd127 O130 2.297 . S
Cd127 O131 2.439 . S
Cd127 O137 2.240 . S
Cd128 O129 2.240 . S
Cd128 O136 2.223 . S
Cd128 O138 2.297 . S
Cd128 O139 2.439 . S
O129 Cd128 2.240 . S
O129 C134 1.279 . S
O130 Cd127 2.297 . S
O130 C132 1.247 . S
O131 Cd127 2.439 . S
O131 C132 1.208 . S
C132 O130 1.247 . S
C132 O131 1.208 . S
C133 O138 1.247 . S
C133 O139 1.208 . S
C134 O126 1.315 . S
C134 O129 1.279 . S
C135 O136 1.315 . S
C135 O137 1.279 . S
O136 Cd128 2.223 . S
O136 C135 1.315 . S
O137 Cd127 2.240 . S
O137 C135 1.279 . S
O138 Cd128 2.297 . S
O138 C133 1.247 . S
O139 Cd128 2.439 . S
O139 C133 1.208 . S
O140 Cd141 2.223 . S
O140 C148 1.315 . S
Cd141 O140 2.223 . S
Cd141 O144 2.297 1_545 S
Cd141 O145 2.439 1_545 S
Cd141 O151 2.240 . S
Cd142 O143 2.240 . S
Cd142 O150 2.223 . S
Cd142 O152 2.297 . S
Cd142 O153 2.439 . S
O143 Cd142 2.240 . S
O143 C148 1.279 . S
O144 Cd141 2.297 1_565 S
O144 C146 1.247 . S
O145 Cd141 2.439 1_565 S
O145 C146 1.208 . S
C146 O144 1.247 . S
C146 O145 1.208 . S
C147 O152 1.247 . S
C147 O153 1.208 . S
C148 O140 1.315 . S
C148 O143 1.279 . S
C149 O150 1.315 . S
C149 O151 1.279 . S
O150 Cd142 2.223 . S
O150 C149 1.315 . S
O151 Cd141 2.240 . S
O151 C149 1.279 . S
O152 Cd142 2.297 . S
O152 C147 1.247 . S
O153 Cd142 2.439 . S
O153 C147 1.208 . S
O154 Cd155 2.223 . S
O154 C162 1.315 . S
Cd155 O154 2.223 . S
Cd155 O158 2.297 . S
Cd155 O159 2.439 1_554 S
Cd155 O165 2.240 1_554 S
Cd156 O157 2.240 1_556 S
Cd156 O164 2.223 1_556 S
Cd156 O166 2.297 . S
Cd156 O167 2.439 . S
O157 Cd156 2.240 1_554 S
O157 C162 1.279 . S
O158 Cd155 2.297 . S
O158 C160 1.247 . S
O159 Cd155 2.439 1_556 S
O159 C160 1.208 1_556 S
C160 O158 1.247 . S
C160 O159 1.208 1_554 S
C161 O166 1.247 . S
C161 O167 1.208 . S
C162 O154 1.315 . S
C162 O157 1.279 . S
C163 O164 1.315 . S
C163 O165 1.279 1_554 S
O164 Cd156 2.223 1_554 S
O164 C163 1.315 . S
O165 Cd155 2.240 1_556 S
O165 C163 1.279 1_556 S
O166 Cd156 2.297 . S
O166 C161 1.247 . S
O167 Cd156 2.439 . S
O167 C161 1.208 . S
O168 Cd169 2.223 . S
O168 C176 1.315 . S
Cd169 O168 2.223 . S
Cd169 O172 2.297 . S
Cd169 O173 2.439 . S
Cd169 O179 2.240 . S
Cd170 O171 2.240 . S
Cd170 O178 2.223 . S
Cd170 O180 2.297 . S
Cd170 O181 2.439 . S
O171 Cd170 2.240 . S
O171 C176 1.279 . S
O172 Cd169 2.297 . S
O172 C174 1.247 . S
O173 Cd169 2.439 . S
O173 C174 1.208 . S
C174 O172 1.247 . S
C174 O173 1.208 . S
C175 O180 1.253 . S
C175 O181 1.216 . S
C176 O168 1.315 . S
C176 O171 1.279 . S
C177 O178 1.315 . S
C177 O179 1.279 . S
O178 Cd170 2.223 . S
O178 C177 1.315 . S
O179 Cd169 2.240 . S
O179 C177 1.279 . S
O180 Cd170 2.297 . S
O180 C175 1.253 . S
O181 Cd170 2.439 . S
O181 C175 1.216 . S
O182 Cd183 2.223 . S
O182 C190 1.315 . S
Cd183 O182 2.223 . S
Cd183 O186 2.297 . S
Cd183 O187 2.439 . S
Cd183 O193 2.240 . S
Cd184 O185 2.240 . S
Cd184 O192 2.223 . S
Cd184 O194 2.297 . S
Cd184 O195 2.439 . S
O185 Cd184 2.240 . S
O185 C190 1.279 . S
O186 Cd183 2.297 . S
O186 C188 1.247 . S
O187 Cd183 2.439 . S
O187 C188 1.208 . S
C188 O186 1.247 . S
C188 O187 1.208 . S
C189 O194 1.247 . S
C189 O195 1.208 . S
C190 O182 1.315 . S
C190 O185 1.279 . S
C191 O192 1.315 . S
C191 O193 1.279 . S
O192 Cd184 2.223 . S
O192 C191 1.315 . S
O193 Cd183 2.240 . S
O193 C191 1.279 . S
O194 Cd184 2.297 . S
O194 C189 1.247 . S
O195 Cd184 2.439 . S
O195 C189 1.208 . S
O196 Cd197 2.223 . S
O196 C204 1.315 . S
Cd197 O196 2.223 . S
Cd197 O200 2.297 . S
Cd197 O201 2.439 . S
Cd197 O207 2.240 . S
Cd198 O199 2.240 . S
Cd198 O206 2.223 . S
Cd198 O208 2.297 . S
Cd198 O209 2.439 . S
O199 Cd198 2.240 . S
O199 C204 1.279 . S
O200 Cd197 2.297 . S
O200 C202 1.247 . S
O201 Cd197 2.439 . S
O201 C202 1.208 . S
C202 O200 1.247 . S
C202 O201 1.208 . S
C203 O208 1.247 . S
C203 O209 1.208 . S
C204 O196 1.315 . S
C204 O199 1.279 . S
C205 O206 1.315 . S
C205 O207 1.279 . S
O206 Cd198 2.223 . S
O206 C205 1.315 . S
O207 Cd197 2.240 . S
O207 C205 1.279 . S
O208 Cd198 2.297 . S
O208 C203 1.247 . S
O209 Cd198 2.439 . S
O209 C203 1.208 . S
O210 Cd211 2.223 . S
O210 C218 1.315 . S
Cd211 O210 2.223 . S
Cd211 O214 2.297 . S
Cd211 O215 2.439 . S
Cd211 O221 2.240 . S
Cd212 O213 2.240 . S
Cd212 O220 2.223 . S
Cd212 O222 2.297 . S
Cd212 O223 2.439 . S
O213 Cd212 2.240 . S
O213 C218 1.279 . S
O214 Cd211 2.297 . S
O214 C216 1.247 . S
O215 Cd211 2.439 . S
O215 C216 1.208 . S
C216 O214 1.247 . S
C216 O215 1.208 . S
C217 O222 1.247 . S
C217 O223 1.208 . S
C218 O210 1.315 . S
C218 O213 1.279 . S
C219 O220 1.315 . S
C219 O221 1.279 . S
O220 Cd212 2.223 . S
O220 C219 1.315 . S
O221 Cd211 2.240 . S
O221 C219 1.279 . S
O222 Cd212 2.297 . S
O222 C217 1.247 . S
O223 Cd212 2.439 . S
O223 C217 1.208 . S
O224 Cd225 2.223 . S
O224 C232 1.315 . S
Cd225 O224 2.223 . S
Cd225 O228 2.297 . S
Cd225 O229 2.439 . S
Cd225 O235 2.240 1_545 S
Cd226 O227 2.240 . S
Cd226 O234 2.223 1_545 S
Cd226 O236 2.276 1_545 S
Cd226 O237 2.439 . S
O227 Cd226 2.240 . S
O227 C232 1.279 . S
O228 Cd225 2.297 . S
O228 C230 1.247 . S
O229 Cd225 2.439 . S
O229 C230 1.208 . S
C230 O228 1.247 . S
C230 O229 1.208 . S
C231 O236 1.202 1_545 S
C231 O237 1.208 . S
C232 O224 1.315 . S
C232 O227 1.279 . S
C233 O234 1.315 . S
C233 O235 1.279 . S
O234 Cd226 2.223 1_565 S
O234 C233 1.315 . S
O235 Cd225 2.240 1_565 S
O235 C233 1.279 . S
O236 Cd226 2.276 1_565 S
O236 C231 1.202 1_565 S
O237 Cd226 2.439 . S
O237 C231 1.208 . S
O238 Cd239 2.223 . S
O238 C246 1.315 . S
Cd239 O238 2.223 . S
Cd239 O242 2.297 . S
Cd239 O243 2.439 . S
Cd239 O249 2.240 . S
Cd240 O241 2.240 . S
Cd240 O248 2.223 . S
Cd240 O250 2.297 . S
Cd240 O251 2.439 . S
O241 Cd240 2.240 . S
O241 C246 1.279 . S
O242 Cd239 2.297 . S
O242 C244 1.247 . S
O243 Cd239 2.439 . S
O243 C244 1.208 . S
C244 O242 1.247 . S
C244 O243 1.208 . S
C245 O250 1.247 . S
C245 O251 1.208 . S
C246 O238 1.315 . S
C246 O241 1.279 . S
C247 O248 1.315 . S
C247 O249 1.279 . S
O248 Cd240 2.223 . S
O248 C247 1.315 . S
O249 Cd239 2.240 . S
O249 C247 1.279 . S
O250 Cd240 2.297 . S
O250 C245 1.247 . S
O251 Cd240 2.439 . S
O251 C245 1.208 . S
O252 Cd253 2.223 . S
O252 C260 1.315 . S
Cd253 O252 2.223 . S
Cd253 O256 2.297 . S
Cd253 O257 2.439 . S
Cd253 O263 2.240 . S
Cd254 O255 2.240 . S
Cd254 O262 2.223 . S
Cd254 O264 2.297 . S
Cd254 O265 2.439 . S
O255 Cd254 2.240 . S
O255 C260 1.279 . S
O256 Cd253 2.297 . S
O256 C258 1.247 . S
O257 Cd253 2.439 . S
O257 C258 1.208 . S
C258 O256 1.247 . S
C258 O257 1.208 . S
C259 O264 1.247 . S
C259 O265 1.208 . S
C260 O252 1.315 . S
C260 O255 1.279 . S
C261 O262 1.315 . S
C261 O263 1.279 . S
O262 Cd254 2.223 . S
O262 C261 1.315 . S
O263 Cd253 2.240 . S
O263 C261 1.279 . S
O264 Cd254 2.297 . S
O264 C259 1.247 . S
O265 Cd254 2.439 . S
O265 C259 1.208 . S
O266 Cd267 2.223 . S
O266 C274 1.315 . S
Cd267 O266 2.223 . S
Cd267 O270 2.297 . S
Cd267 O271 2.439 . S
Cd267 O277 2.240 . S
Cd268 O269 2.240 . S
Cd268 O276 2.223 . S
Cd268 O278 2.297 . S
Cd268 O279 2.439 . S
O269 Cd268 2.240 . S
O269 C274 1.279 . S
O270 Cd267 2.297 . S
O270 C272 1.264 . S
O271 Cd267 2.439 . S
O271 C272 1.229 . S
C272 O270 1.264 . S
C272 O271 1.229 . S
C273 O278 1.247 . S
C273 O279 1.208 . S
C274 O266 1.315 . S
C274 O269 1.279 . S
C275 O276 1.315 . S
C275 O277 1.279 . S
O276 Cd268 2.223 . S
O276 C275 1.315 . S
O277 Cd267 2.240 . S
O277 C275 1.279 . S
O278 Cd268 2.297 . S
O278 C273 1.247 . S
O279 Cd268 2.439 . S
O279 C273 1.208 . S
O280 Cd281 2.223 . S
O280 C288 1.315 . S
Cd281 O280 2.223 . S
Cd281 O284 2.297 . S
Cd281 O285 2.439 . S
Cd281 O291 2.240 . S
Cd282 O283 2.240 . S
Cd282 O290 2.223 . S
Cd282 O292 2.297 1_554 S
Cd282 O293 2.439 1_554 S
O283 Cd282 2.240 . S
O283 C288 1.279 . S
O284 Cd281 2.297 . S
O284 C286 1.247 . S
O285 Cd281 2.439 . S
O285 C286 1.208 . S
C286 O284 1.247 . S
C286 O285 1.208 . S
C287 O292 1.247 . S
C287 O293 1.208 . S
C288 O280 1.315 . S
C288 O283 1.279 . S
C289 O290 1.315 . S
C289 O291 1.279 . S
O290 Cd282 2.223 . S
O290 C289 1.315 . S
O291 Cd281 2.240 . S
O291 C289 1.279 . S
O292 Cd282 2.297 1_556 S
O292 C287 1.247 . S
O293 Cd282 2.439 1_556 S
O293 C287 1.208 . S
O294 Cd295 2.223 . S
O294 C302 1.315 . S
Cd295 O294 2.223 . S
Cd295 O298 2.297 . S
Cd295 O299 2.439 . S
Cd295 O305 2.240 . S
Cd296 O297 2.240 . S
Cd296 O304 2.223 . S
Cd296 O306 2.297 . S
Cd296 O307 2.439 . S
O297 Cd296 2.240 . S
O297 C302 1.279 . S
O298 Cd295 2.297 . S
O298 C300 1.247 . S
O299 Cd295 2.439 . S
O299 C300 1.208 . S
C300 O298 1.247 . S
C300 O299 1.208 . S
C301 O306 1.247 . S
C301 O307 1.208 . S
C302 O294 1.315 . S
C302 O297 1.279 . S
C303 O304 1.315 . S
C303 O305 1.279 . S
O304 Cd296 2.223 . S
O304 C303 1.315 . S
O305 Cd295 2.240 . S
O305 C303 1.279 . S
O306 Cd296 2.297 . S
O306 C301 1.247 . S
O307 Cd296 2.439 . S
O307 C301 1.208 . S
O308 Cd309 2.223 . S
O308 C316 1.315 . S
Cd309 O308 2.223 . S
Cd309 O312 2.297 . S
Cd309 O313 2.439 . S
Cd309 O319 2.240 . S
Cd310 O311 2.240 . S
Cd310 O318 2.223 . S
Cd310 O320 2.297 . S
Cd310 O321 2.439 . S
O311 Cd310 2.240 . S
O311 C316 1.279 . S
O312 Cd309 2.297 . S
O312 C314 1.247 . S
O313 Cd309 2.439 . S
O313 C314 1.208 . S
C314 O312 1.247 . S
C314 O313 1.208 . S
C315 O320 1.247 . S
C315 O321 1.208 . S
C316 O308 1.315 . S
C316 O311 1.279 . S
C317 O318 1.315 . S
C317 O319 1.279 . S
O318 Cd310 2.223 . S
O318 C317 1.315 . S
O319 Cd309 2.240 . S
O319 C317 1.279 . S
O320 Cd310 2.297 . S
O320 C315 1.247 . S
O321 Cd310 2.439 . S
O321 C315 1.208 . S
O322 Cd323 2.223 . S
O322 C330 1.315 . S
Cd323 O322 2.223 . S
Cd323 O326 2.297 . S
Cd323 O327 2.439 . S
Cd323 O333 2.240 . S
Cd324 O325 2.240 . S
Cd324 O332 2.223 . S
Cd324 O334 2.297 . S
Cd324 O335 2.439 . S
O325 Cd324 2.240 . S
O325 C330 1.279 . S
O326 Cd323 2.297 . S
O326 C328 1.247 . S
O327 Cd323 2.439 . S
O327 C328 1.208 . S
C328 O326 1.247 . S
C328 O327 1.208 . S
C329 O334 1.247 . S
C329 O335 1.208 . S
C330 O322 1.315 . S
C330 O325 1.279 . S
C331 O332 1.315 . S
C331 O333 1.279 . S
O332 Cd324 2.223 . S
O332 C331 1.315 . S
O333 Cd323 2.240 . S
O333 C331 1.279 . S
O334 Cd324 2.297 . S
O334 C329 1.247 . S
O335 Cd324 2.439 . S
O335 C329 1.208 . S
C336 C338 1.422 . S
C336 C340 1.415 1_554 S
C336 N342 1.381 . S
C337 C338 1.421 . S
C337 C339 1.417 . S
C337 C349 1.422 . S
C338 C336 1.422 . S
C338 C337 1.421 . S
C338 N348 1.359 . S
C339 C337 1.417 . S
C339 C341 1.329 1_554 S
C339 H358 0.930 . S
C340 C336 1.415 1_556 S
C340 C341 1.437 . S
C340 C344 1.413 . S
C341 C339 1.329 1_556 S
C341 C340 1.437 . S
C341 H363 0.929 . S
N342 C336 1.381 . S
N342 C343 1.311 1_554 S
N342 Gd347 2.638 1_565 S
C343 N342 1.311 1_556 S
C343 C345 1.378 . S
C343 H355 0.929 1_565 S
C344 C340 1.413 . S
C344 C345 1.348 . S
C344 H360 0.931 . S
C345 C343 1.378 . S
C345 C344 1.348 . S
C345 H361 0.930 . S
Gd346 N366 2.622 . S
Gd346 N373 2.570 . S
Gd346 O380 2.353 . S
Gd346 O381 2.468 . S
Gd346 O382 2.427 . S
Gd346 O384 2.388 . S
Gd346 O385 2.386 . S
Gd346 O389 2.307 . S
Gd346 C399 2.805 . S
Gd347 N342 2.638 1_545 S
Gd347 N348 2.570 1_545 S
Gd347 O379 2.386 1_645 S
Gd347 O383 2.307 1_655 S
Gd347 O386 2.353 1_655 S
Gd347 O387 2.468 . S
Gd347 O388 2.427 . S
Gd347 O390 2.388 1_655 S
Gd347 C411 2.805 . S
N348 C338 1.359 . S
N348 Gd347 2.570 1_565 S
N348 C350 1.343 . S
C349 C337 1.422 . S
C349 C351 1.321 . S
C349 H357 0.931 . S
C350 N348 1.343 . S
C350 C351 1.390 . S
C350 H352 0.931 1_565 S
C351 C349 1.321 . S
C351 C350 1.390 . S
C351 H353 0.930 . S
H352 C350 0.931 1_545 S
H353 C351 0.930 . S
H354 C377 0.931 . S
H355 C343 0.929 1_545 S
H356 C378 0.930 . S
H357 C349 0.931 . S
H358 C339 0.930 . S
H359 C368 0.929 . S
H360 C344 0.931 . S
H361 C345 0.930 . S
H362 C400 0.930 . S
H363 C341 0.929 . S
H364 C369 0.931 . S
H365 C370 0.930 . S
N366 Gd346 2.622 . S
N366 C367 1.369 . S
N366 C368 1.338 . S
C367 N366 1.369 . S
C367 C371 1.415 . S
C367 C374 1.422 . S
C368 H359 0.929 . S
C368 N366 1.338 . S
C368 C370 1.378 . S
C369 H364 0.931 . S
C369 C370 1.348 . S
C369 C371 1.413 . S
C370 H365 0.930 . S
C370 C368 1.378 . S
C370 C369 1.348 . S
C371 C367 1.415 . S
C371 C369 1.413 . S
C371 C401 1.437 . S
H372 C401 0.929 . S
N373 Gd346 2.570 . S
N373 C374 1.359 . S
N373 C377 1.343 . S
C374 C367 1.422 . S
C374 N373 1.359 . S
C374 C376 1.421 . S
C375 C376 1.422 . S
C375 C378 1.321 . S
C375 H402 0.931 . S
C376 C374 1.421 . S
C376 C375 1.422 . S
C376 C400 1.417 . S
C377 H354 0.931 . S
C377 N373 1.343 . S
C377 C378 1.390 . S
C378 H356 0.930 . S
C378 C375 1.321 . S
C378 C377 1.390 . S
O379 Gd347 2.386 1_465 S
O379 C391 1.265 . S
O380 Gd346 2.353 . S
O380 C391 1.242 1_545 S
O381 Gd346 2.468 . S
O381 C399 1.263 . S
O382 Gd346 2.427 . S
O382 C399 1.252 . S
O383 Gd347 2.307 1_455 S
O383 C392 1.261 . S
O384 Gd346 2.388 . S
O384 C392 1.252 . S
O385 Gd346 2.386 . S
O385 C403 1.265 . S
O386 Gd347 2.353 1_455 S
O386 C403 1.242 . S
O387 Gd347 2.468 . S
O387 C411 1.263 . S
O388 Gd347 2.427 . S
O388 C411 1.252 . S
O389 Gd346 2.307 . S
O389 C404 1.261 . S
O390 Gd347 2.388 1_455 S
O390 C404 1.252 . S
C391 O379 1.265 . S
C391 O380 1.242 1_565 S
C392 O383 1.261 . S
C392 O384 1.252 . S
C393 C396 1.394 . S
C393 C398 1.370 . S
C393 C399 1.500 . S
C394 C397 1.383 . S
C394 C398 1.395 . S
C395 C396 1.396 . S
C395 C397 1.365 . S
C395 H412 0.929 . S
C396 C393 1.394 . S
C396 C395 1.396 . S
C396 H413 0.930 . S
C397 C394 1.383 . S
C397 C395 1.365 . S
C397 H414 0.931 . S
C398 C393 1.370 . S
C398 C394 1.395 . S
C398 H415 0.930 . S
C399 Gd346 2.805 . S
C399 O381 1.263 . S
C399 O382 1.252 . S
C399 C393 1.500 . S
C400 H362 0.930 . S
C400 C376 1.417 . S
C400 C401 1.329 . S
C401 C371 1.437 . S
C401 H372 0.929 . S
C401 C400 1.329 . S
H402 C375 0.931 . S
C403 O385 1.265 . S
C403 O386 1.242 . S
C404 O389 1.261 . S
C404 O390 1.252 . S
C405 C408 1.394 1_554 S
C405 C410 1.370 . S
C405 C411 1.500 . S
C406 C409 1.383 . S
C406 C410 1.395 . S
C407 C408 1.396 . S
C407 C409 1.365 1_556 S
C407 H416 0.929 . S
C408 C405 1.394 1_556 S
C408 C407 1.396 . S
C408 H417 0.930 . S
C409 C406 1.383 . S
C409 C407 1.365 1_554 S
C409 H418 0.931 . S
C410 C405 1.370 . S
C410 C406 1.395 . S
C410 H419 0.930 . S
C411 Gd347 2.805 . S
C411 O387 1.263 . S
C411 O388 1.252 . S
C411 C405 1.500 . S
H412 C395 0.929 . S
H413 C396 0.930 . S
H414 C397 0.931 . S
H415 C398 0.930 . S
H416 C407 0.929 . S
H417 C408 0.930 . S
H418 C409 0.931 . S
H419 C410 0.930 . S
C420 C422 1.422 . S
C420 C424 1.415 . S
C420 N426 1.369 . S
C421 C422 1.421 . S
C421 C423 1.417 . S
C421 C433 1.422 . S
C422 C420 1.422 . S
C422 C421 1.421 . S
C422 N432 1.359 . S
C423 C421 1.417 . S
C423 C425 1.329 . S
C423 H442 0.930 . S
C424 C420 1.415 . S
C424 C425 1.437 . S
C424 C428 1.413 . S
C425 C423 1.329 . S
C425 C424 1.437 . S
C425 H447 0.929 . S
N426 C420 1.369 . S
N426 C427 1.338 . S
N426 Gd431 2.622 . S
C427 N426 1.338 . S
C427 C429 1.378 . S
C427 H439 0.929 . S
C428 C424 1.413 . S
C428 C429 1.348 . S
C428 H444 0.931 . S
C429 C427 1.378 . S
C429 C428 1.348 . S
C429 H445 0.930 . S
Gd430 N450 2.622 . S
Gd430 N457 2.570 . S
Gd430 O464 2.353 . S
Gd430 O465 2.468 . S
Gd430 O466 2.427 . S
Gd430 O468 2.388 . S
Gd430 O469 2.386 . S
Gd430 O473 2.307 . S
Gd430 C483 2.805 . S
Gd431 N426 2.622 . S
Gd431 N432 2.570 . S
Gd431 O463 2.386 . S
Gd431 O467 2.307 . S
Gd431 O470 2.353 . S
Gd431 O471 2.468 . S
Gd431 O472 2.427 . S
Gd431 O474 2.388 . S
Gd431 C495 2.805 . S
N432 C422 1.359 . S
N432 Gd431 2.570 . S
N432 C434 1.343 . S
C433 C421 1.422 . S
C433 C435 1.321 . S
C433 H441 0.931 . S
C434 N432 1.343 . S
C434 C435 1.390 . S
C434 H436 0.931 . S
C435 C433 1.321 . S
C435 C434 1.390 . S
C435 H437 0.930 . S
H436 C434 0.931 . S
H437 C435 0.930 . S
H438 C461 0.931 . S
H439 C427 0.929 . S
H440 C462 0.930 . S
H441 C433 0.931 . S
H442 C423 0.930 . S
H443 C452 0.929 . S
H444 C428 0.931 . S
H445 C429 0.930 . S
H446 C484 0.930 . S
H447 C425 0.929 . S
H448 C453 0.931 . S
H449 C454 0.930 . S
N450 Gd430 2.622 . S
N450 C451 1.369 . S
N450 C452 1.338 . S
C451 N450 1.369 . S
C451 C455 1.415 . S
C451 C458 1.422 . S
C452 H443 0.929 . S
C452 N450 1.338 . S
C452 C454 1.378 . S
C453 H448 0.931 . S
C453 C454 1.348 . S
C453 C455 1.413 . S
C454 H449 0.930 . S
C454 C452 1.378 . S
C454 C453 1.348 . S
C455 C451 1.415 . S
C455 C453 1.413 . S
C455 C485 1.437 . S
H456 C485 0.929 . S
N457 Gd430 2.570 . S
N457 C458 1.359 . S
N457 C461 1.343 . S
C458 C451 1.422 . S
C458 N457 1.359 . S
C458 C460 1.421 . S
C459 C460 1.422 . S
C459 C462 1.321 . S
C459 H486 0.931 . S
C460 C458 1.421 . S
C460 C459 1.422 . S
C460 C484 1.417 . S
C461 H438 0.931 . S
C461 N457 1.343 . S
C461 C462 1.390 . S
C462 H440 0.930 . S
C462 C459 1.321 . S
C462 C461 1.390 . S
O463 Gd431 2.386 . S
O463 C475 1.265 . S
O464 Gd430 2.353 . S
O464 C475 1.242 . S
O465 Gd430 2.468 . S
O465 C483 1.263 . S
O466 Gd430 2.427 . S
O466 C483 1.252 . S
O467 Gd431 2.307 . S
O467 C476 1.261 . S
O468 Gd430 2.388 . S
O468 C476 1.252 . S
O469 Gd430 2.386 . S
O469 C487 1.265 . S
O470 Gd431 2.353 . S
O470 C487 1.242 . S
O471 Gd431 2.468 . S
O471 C495 1.263 . S
O472 Gd431 2.427 . S
O472 C495 1.252 . S
O473 Gd430 2.307 . S
O473 C488 1.261 . S
O474 Gd431 2.388 . S
O474 C488 1.252 . S
C475 O463 1.265 . S
C475 O464 1.242 . S
C476 O467 1.261 . S
C476 O468 1.252 . S
C477 C480 1.394 . S
C477 C482 1.370 . S
C477 C483 1.500 . S
C478 C481 1.383 . S
C478 C482 1.395 . S
C479 C480 1.396 . S
C479 C481 1.365 . S
C479 H496 0.929 . S
C480 C477 1.394 . S
C480 C479 1.396 . S
C480 H497 0.930 . S
C481 C478 1.383 . S
C481 C479 1.365 . S
C481 H498 0.931 . S
C482 C477 1.370 . S
C482 C478 1.395 . S
C482 H499 0.930 . S
C483 Gd430 2.805 . S
C483 O465 1.263 . S
C483 O466 1.252 . S
C483 C477 1.500 . S
C484 H446 0.930 . S
C484 C460 1.417 . S
C484 C485 1.329 . S
C485 C455 1.437 . S
C485 H456 0.929 . S
C485 C484 1.329 . S
H486 C459 0.931 . S
C487 O469 1.265 . S
C487 O470 1.242 . S
C488 O473 1.261 . S
C488 O474 1.252 . S
C489 C492 1.394 . S
C489 C494 1.370 . S
C489 C495 1.500 . S
C490 C493 1.383 . S
C490 C494 1.395 . S
C491 C492 1.396 . S
C491 C493 1.365 . S
C491 H500 0.929 . S
C492 C489 1.394 . S
C492 C491 1.396 . S
C492 H501 0.930 . S
C493 C490 1.383 . S
C493 C491 1.365 . S
C493 H502 0.931 . S
C494 C489 1.370 . S
C494 C490 1.395 . S
C494 H503 0.930 . S
C495 Gd431 2.805 . S
C495 O471 1.263 . S
C495 O472 1.252 . S
C495 C489 1.500 . S
H496 C479 0.929 . S
H497 C480 0.930 . S
H498 C481 0.931 . S
H499 C482 0.930 . S
H500 C491 0.929 . S
H501 C492 0.930 . S
H502 C493 0.931 . S
H503 C494 0.930 . S
C504 C506 1.422 . S
C504 C508 1.415 . S
C504 N510 1.369 . S
C505 C506 1.421 . S
C505 C507 1.417 . S
C505 C517 1.422 . S
C506 C504 1.422 . S
C506 C505 1.421 . S
C506 N516 1.359 . S
C507 C505 1.417 . S
C507 C509 1.329 . S
C507 H526 0.930 . S
C508 C504 1.415 . S
C508 C509 1.437 . S
C508 C512 1.413 . S
C509 C507 1.329 . S
C509 C508 1.437 . S
C509 H531 0.929 . S
N510 C504 1.369 . S
N510 C511 1.338 . S
N510 Gd515 2.622 . S
C511 N510 1.338 . S
C511 C513 1.378 . S
C511 H523 0.929 . S
C512 C508 1.413 . S
C512 C513 1.348 . S
C512 H528 0.931 . S
C513 C511 1.378 . S
C513 C512 1.348 . S
C513 H529 0.930 . S
Gd514 N534 2.622 1_545 S
Gd514 N541 2.570 1_545 S
Gd514 O548 2.353 . S
Gd514 O549 2.468 . S
Gd514 O550 2.427 . S
Gd514 O552 2.388 . S
Gd514 O553 2.386 1_545 S
Gd514 O557 2.307 . S
Gd514 C567 2.805 . S
Gd515 N510 2.622 . S
Gd515 N516 2.570 . S
Gd515 O547 2.386 . S
Gd515 O551 2.307 . S
Gd515 O554 2.353 1_545 S
Gd515 O555 2.468 . S
Gd515 O556 2.427 . S
Gd515 O558 2.388 . S
Gd515 C579 2.805 . S
N516 C506 1.359 . S
N516 Gd515 2.570 . S
N516 C518 1.343 . S
C517 C505 1.422 . S
C517 C519 1.321 . S
C517 H525 0.931 . S
C518 N516 1.343 . S
C518 C519 1.390 . S
C518 H520 0.931 . S
C519 C517 1.321 . S
C519 C518 1.390 . S
C519 H521 0.930 . S
H520 C518 0.931 . S
H521 C519 0.930 . S
H522 C545 0.931 . S
H523 C511 0.929 . S
H524 C546 0.930 . S
H525 C517 0.931 . S
H526 C507 0.930 . S
H527 C536 0.929 1_545 S
H528 C512 0.931 . S
H529 C513 0.930 . S
H530 C568 0.930 . S
H531 C509 0.929 . S
H532 C537 0.931 . S
H533 C538 0.930 . S
N534 Gd514 2.622 1_565 S
N534 C535 1.369 . S
N534 C536 1.338 . S
C535 N534 1.369 . S
C535 C539 1.415 . S
C535 C542 1.422 . S
C536 H527 0.929 1_565 S
C536 N534 1.338 . S
C536 C538 1.378 . S
C537 H532 0.931 . S
C537 C538 1.348 . S
C537 C539 1.413 . S
C538 H533 0.930 . S
C538 C536 1.378 . S
C538 C537 1.348 . S
C539 C535 1.415 . S
C539 C537 1.413 . S
C539 C569 1.437 . S
H540 C569 0.929 . S
N541 Gd514 2.570 1_565 S
N541 C542 1.359 . S
N541 C545 1.343 . S
C542 C535 1.422 . S
C542 N541 1.359 . S
C542 C544 1.421 . S
C543 C544 1.422 . S
C543 C546 1.321 . S
C543 H570 0.931 . S
C544 C542 1.421 . S
C544 C543 1.422 . S
C544 C568 1.417 . S
C545 H522 0.931 . S
C545 N541 1.343 . S
C545 C546 1.390 . S
C546 H524 0.930 . S
C546 C543 1.321 . S
C546 C545 1.390 . S
O547 Gd515 2.386 . S
O547 C559 1.265 . S
O548 Gd514 2.353 . S
O548 C559 1.242 . S
O549 Gd514 2.468 . S
O549 C567 1.263 . S
O550 Gd514 2.427 . S
O550 C567 1.252 . S
O551 Gd515 2.307 . S
O551 C560 1.261 . S
O552 Gd514 2.388 . S
O552 C560 1.252 . S
O553 Gd514 2.386 1_565 S
O553 C571 1.265 . S
O554 Gd515 2.353 1_565 S
O554 C571 1.242 . S
O555 Gd515 2.468 . S
O555 C579 1.263 . S
O556 Gd515 2.427 . S
O556 C579 1.252 . S
O557 Gd514 2.307 . S
O557 C572 1.261 . S
O558 Gd515 2.388 . S
O558 C572 1.252 . S
C559 O547 1.265 . S
C559 O548 1.242 . S
C560 O551 1.261 . S
C560 O552 1.252 . S
C561 C564 1.394 . S
C561 C566 1.370 . S
C561 C567 1.500 . S
C562 C565 1.383 . S
C562 C566 1.395 . S
C563 C564 1.396 . S
C563 C565 1.365 . S
C563 H580 0.929 . S
C564 C561 1.394 . S
C564 C563 1.396 . S
C564 H581 0.930 . S
C565 C562 1.383 . S
C565 C563 1.365 . S
C565 H582 0.931 . S
C566 C561 1.370 . S
C566 C562 1.395 . S
C566 H583 0.930 . S
C567 Gd514 2.805 . S
C567 O549 1.263 . S
C567 O550 1.252 . S
C567 C561 1.500 . S
C568 H530 0.930 . S
C568 C544 1.417 . S
C568 C569 1.329 . S
C569 C539 1.437 . S
C569 H540 0.929 . S
C569 C568 1.329 . S
H570 C543 0.931 . S
C571 O553 1.265 . S
C571 O554 1.242 . S
C572 O557 1.261 . S
C572 O558 1.252 . S
C573 C576 1.394 . S
C573 C578 1.370 . S
C573 C579 1.500 1_565 S
C574 C577 1.383 . S
C574 C578 1.395 . S
C575 C576 1.396 . S
C575 C577 1.365 . S
C575 H584 0.929 . S
C576 C573 1.394 . S
C576 C575 1.396 . S
C576 H585 0.930 . S
C577 C574 1.383 . S
C577 C575 1.365 . S
C577 H586 0.931 . S
C578 C573 1.370 . S
C578 C574 1.395 . S
C578 H587 0.930 . S
C579 Gd515 2.805 . S
C579 O555 1.263 . S
C579 O556 1.252 . S
C579 C573 1.500 1_545 S
H580 C563 0.929 . S
H581 C564 0.930 . S
H582 C565 0.931 . S
H583 C566 0.930 . S
H584 C575 0.929 . S
H585 C576 0.930 . S
H586 C577 0.931 . S
H587 C578 0.930 . S
C588 C590 1.422 . S
C588 C592 1.415 . S
C588 N594 1.369 . S
C589 C590 1.421 . S
C589 C591 1.417 . S
C589 C601 1.422 . S
C590 C588 1.422 . S
C590 C589 1.421 . S
C590 N600 1.359 . S
C591 C589 1.417 . S
C591 C593 1.329 . S
C591 H610 0.930 . S
C592 C588 1.415 . S
C592 C593 1.437 . S
C592 C596 1.413 . S
C593 C591 1.329 . S
C593 C592 1.437 . S
C593 H615 0.929 . S
N594 C588 1.369 . S
N594 C595 1.338 . S
N594 Gd599 2.622 . S
C595 N594 1.338 . S
C595 C597 1.378 . S
C595 H607 0.929 . S
C596 C592 1.413 . S
C596 C597 1.348 . S
C596 H612 0.931 . S
C597 C595 1.378 . S
C597 C596 1.348 . S
C597 H613 0.930 . S
Gd598 N618 2.622 . S
Gd598 N625 2.570 . S
Gd598 O632 2.353 . S
Gd598 O633 2.468 . S
Gd598 O634 2.427 . S
Gd598 O636 2.388 . S
Gd598 O637 2.386 . S
Gd598 O641 2.307 . S
Gd598 C651 2.805 . S
Gd599 N594 2.622 . S
Gd599 N600 2.570 . S
Gd599 O631 2.386 . S
Gd599 O635 2.307 . S
Gd599 O638 2.353 . S
Gd599 O639 2.468 . S
Gd599 O640 2.427 . S
Gd599 O642 2.388 . S
Gd599 C663 2.805 . S
N600 C590 1.359 . S
N600 Gd599 2.570 . S
N600 C602 1.343 . S
C601 C589 1.422 . S
C601 C603 1.321 . S
C601 H609 0.931 . S
C602 N600 1.343 . S
C602 C603 1.390 . S
C602 H604 0.931 . S
C603 C601 1.321 . S
C603 C602 1.390 . S
C603 H605 0.930 . S
H604 C602 0.931 . S
H605 C603 0.930 . S
H606 C629 0.931 . S
H607 C595 0.929 . S
H608 C630 0.930 . S
H609 C601 0.931 . S
H610 C591 0.930 . S
H611 C620 0.929 . S
H612 C596 0.931 . S
H613 C597 0.930 . S
H614 C652 0.930 . S
H615 C593 0.929 . S
H616 C621 0.931 . S
H617 C622 0.930 . S
N618 Gd598 2.622 . S
N618 C619 1.369 . S
N618 C620 1.338 . S
C619 N618 1.369 . S
C619 C623 1.415 . S
C619 C626 1.422 . S
C620 H611 0.929 . S
C620 N618 1.338 . S
C620 C622 1.378 . S
C621 H616 0.931 . S
C621 C622 1.348 . S
C621 C623 1.413 . S
C622 H617 0.930 . S
C622 C620 1.378 . S
C622 C621 1.348 . S
C623 C619 1.415 . S
C623 C621 1.413 . S
C623 C653 1.437 . S
H624 C653 0.929 . S
N625 Gd598 2.570 . S
N625 C626 1.359 . S
N625 C629 1.343 . S
C626 C619 1.422 . S
C626 N625 1.359 . S
C626 C628 1.421 . S
C627 C628 1.422 . S
C627 C630 1.321 . S
C627 H654 0.931 . S
C628 C626 1.421 . S
C628 C627 1.422 . S
C628 C652 1.417 . S
C629 H606 0.931 . S
C629 N625 1.343 . S
C629 C630 1.390 . S
C630 H608 0.930 . S
C630 C627 1.321 . S
C630 C629 1.390 . S
O631 Gd599 2.386 . S
O631 C643 1.265 . S
O632 Gd598 2.353 . S
O632 C643 1.242 . S
O633 Gd598 2.468 . S
O633 C651 1.263 . S
O634 Gd598 2.427 . S
O634 C651 1.252 . S
O635 Gd599 2.307 . S
O635 C644 1.261 . S
O636 Gd598 2.388 . S
O636 C644 1.252 . S
O637 Gd598 2.386 . S
O637 C655 1.265 . S
O638 Gd599 2.353 . S
O638 C655 1.242 . S
O639 Gd599 2.468 . S
O639 C663 1.263 . S
O640 Gd599 2.427 . S
O640 C663 1.252 . S
O641 Gd598 2.307 . S
O641 C656 1.261 . S
O642 Gd599 2.388 . S
O642 C656 1.252 . S
C643 O631 1.265 . S
C643 O632 1.242 . S
C644 O635 1.261 . S
C644 O636 1.252 . S
C645 C648 1.394 . S
C645 C650 1.370 . S
C645 C651 1.500 . S
C646 C649 1.383 . S
C646 C650 1.395 . S
C647 C648 1.396 . S
C647 C649 1.365 . S
C647 H664 0.929 . S
C648 C645 1.394 . S
C648 C647 1.396 . S
C648 H665 0.930 . S
C649 C646 1.383 . S
C649 C647 1.365 . S
C649 H666 0.931 . S
C650 C645 1.370 . S
C650 C646 1.395 . S
C650 H667 0.930 . S
C651 Gd598 2.805 . S
C651 O633 1.263 . S
C651 O634 1.252 . S
C651 C645 1.500 . S
C652 H614 0.930 . S
C652 C628 1.417 . S
C652 C653 1.329 . S
C653 C623 1.437 . S
C653 H624 0.929 . S
C653 C652 1.329 . S
H654 C627 0.931 . S
C655 O637 1.265 . S
C655 O638 1.242 . S
C656 O641 1.261 . S
C656 O642 1.252 . S
C657 C660 1.394 . S
C657 C662 1.370 . S
C657 C663 1.500 . S
C658 C661 1.383 . S
C658 C662 1.395 . S
C659 C660 1.396 . S
C659 C661 1.365 . S
C659 H668 0.929 . S
C660 C657 1.394 . S
C660 C659 1.396 . S
C660 H669 0.930 . S
C661 C658 1.383 . S
C661 C659 1.365 . S
C661 H670 0.931 . S
C662 C657 1.370 . S
C662 C658 1.395 . S
C662 H671 0.930 . S
C663 Gd599 2.805 . S
C663 O639 1.263 . S
C663 O640 1.252 . S
C663 C657 1.500 . S
H664 C647 0.929 . S
H665 C648 0.930 . S
H666 C649 0.931 . S
H667 C650 0.930 . S
H668 C659 0.929 . S
H669 C660 0.930 . S
H670 C661 0.931 . S
H671 C662 0.930 . S
C672 C674 1.422 . S
C672 C676 1.415 . S
C672 N678 1.369 . S
C673 C674 1.421 . S
C673 C675 1.417 . S
C673 C685 1.422 . S
C674 C672 1.422 . S
C674 C673 1.421 . S
C674 N684 1.359 . S
C675 C673 1.417 . S
C675 C677 1.329 . S
C675 H694 0.930 . S
C676 C672 1.415 . S
C676 C677 1.437 . S
C676 C680 1.413 1_455 S
C677 C675 1.329 . S
C677 C676 1.437 . S
C677 H699 0.929 . S
N678 C672 1.369 . S
N678 C679 1.338 1_455 S
N678 Gd683 2.622 . S
C679 N678 1.338 1_655 S
C679 C681 1.378 . S
C679 H691 0.929 . S
C680 C676 1.413 1_655 S
C680 C681 1.348 . S
C680 H696 0.931 . S
C681 C679 1.378 . S
C681 C680 1.348 . S
C681 H697 0.930 . S
Gd682 N702 2.639 . S
Gd682 N709 2.599 . S
Gd682 O716 2.339 1_565 S
Gd682 O717 2.507 . S
Gd682 O718 2.465 . S
Gd682 O720 2.360 1_565 S
Gd682 O721 2.359 1_565 S
Gd682 O725 2.291 1_565 S
Gd682 C735 2.848 . S
Gd683 N678 2.622 . S
Gd683 N684 2.570 . S
Gd683 O715 2.386 . S
Gd683 O719 2.307 . S
Gd683 O722 2.353 . S
Gd683 O723 2.468 . S
Gd683 O724 2.427 . S
Gd683 O726 2.388 1_455 S
Gd683 C747 2.805 . S
N684 C674 1.359 . S
N684 Gd683 2.570 . S
N684 C686 1.343 . S
C685 C673 1.422 . S
C685 C687 1.321 . S
C685 H693 0.931 . S
C686 N684 1.343 . S
C686 C687 1.390 . S
C686 H688 0.931 . S
C687 C685 1.321 . S
C687 C686 1.390 . S
C687 H689 0.930 . S
H688 C686 0.931 . S
H689 C687 0.930 . S
H690 C713 0.931 1_655 S
H691 C679 0.929 . S
H692 C714 0.930 . S
H693 C685 0.931 . S
H694 C675 0.930 . S
H695 C704 0.929 1_545 S
H696 C680 0.931 . S
H697 C681 0.930 . S
H698 C736 0.930 . S
H699 C677 0.929 . S
H700 C705 0.931 . S
H701 C706 0.930 . S
N702 Gd682 2.639 . S
N702 C703 1.369 . S
N702 C704 1.338 . S
C703 N702 1.369 . S
C703 C707 1.415 . S
C703 C710 1.422 . S
C704 H695 0.929 1_565 S
C704 N702 1.338 . S
C704 C706 1.378 . S
C705 H700 0.931 . S
C705 C706 1.348 . S
C705 C707 1.413 . S
C706 H701 0.930 . S
C706 C704 1.378 . S
C706 C705 1.348 . S
C707 C703 1.415 . S
C707 C705 1.413 . S
C707 C737 1.437 . S
H708 C737 0.929 . S
N709 Gd682 2.599 . S
N709 C710 1.359 . S
N709 C713 1.343 . S
C710 C703 1.422 . S
C710 N709 1.359 . S
C710 C712 1.421 . S
C711 C712 1.423 1_655 S
C711 C714 1.321 . S
C711 H738 0.930 . S
C712 C710 1.421 . S
C712 C711 1.423 1_455 S
C712 C736 1.417 . S
C713 H690 0.931 1_455 S
C713 N709 1.343 . S
C713 C714 1.390 1_455 S
C714 H692 0.930 . S
C714 C711 1.321 . S
C714 C713 1.390 1_655 S
O715 Gd683 2.386 . S
O715 C727 1.265 . S
O716 Gd682 2.339 1_545 S
O716 C727 1.242 . S
O717 Gd682 2.507 . S
O717 C735 1.263 . S
O718 Gd682 2.465 . S
O718 C735 1.252 . S
O719 Gd683 2.307 . S
O719 C728 1.261 . S
O720 Gd682 2.360 1_545 S
O720 C728 1.252 . S
O721 Gd682 2.359 1_545 S
O721 C739 1.265 . S
O722 Gd683 2.353 . S
O722 C739 1.242 . S
O723 Gd683 2.468 . S
O723 C747 1.263 . S
O724 Gd683 2.427 . S
O724 C747 1.252 . S
O725 Gd682 2.291 1_545 S
O725 C740 1.261 1_455 S
O726 Gd683 2.388 1_655 S
O726 C740 1.252 . S
C727 O715 1.265 . S
C727 O716 1.242 . S
C728 O719 1.261 . S
C728 O720 1.252 . S
C729 C732 1.394 . S
C729 C734 1.370 . S
C729 C735 1.500 . S
C730 C733 1.383 . S
C730 C734 1.395 . S
C731 C732 1.396 . S
C731 C733 1.365 . S
C731 H748 0.929 . S
C732 C729 1.394 . S
C732 C731 1.396 . S
C732 H749 0.930 . S
C733 C730 1.383 . S
C733 C731 1.365 . S
C733 H750 0.931 . S
C734 C729 1.370 . S
C734 C730 1.395 . S
C734 H751 0.930 . S
C735 Gd682 2.848 . S
C735 O717 1.263 . S
C735 O718 1.252 . S
C735 C729 1.500 . S
C736 H698 0.930 . S
C736 C712 1.417 . S
C736 C737 1.329 . S
C737 C707 1.437 . S
C737 H708 0.929 . S
C737 C736 1.329 . S
H738 C711 0.930 . S
C739 O721 1.265 . S
C739 O722 1.242 . S
C740 O725 1.261 1_655 S
C740 O726 1.252 . S
C741 C744 1.394 1_455 S
C741 C746 1.370 . S
C741 C747 1.500 . S
C742 C745 1.383 . S
C742 C746 1.395 . S
C743 C744 1.396 . S
C743 C745 1.365 1_655 S
C743 H752 0.929 . S
C744 C741 1.394 1_655 S
C744 C743 1.396 . S
C744 H753 0.930 . S
C745 C742 1.383 . S
C745 C743 1.365 1_455 S
C745 H754 0.931 . S
C746 C741 1.370 . S
C746 C742 1.395 . S
C746 H755 0.930 . S
C747 Gd683 2.805 . S
C747 O723 1.263 . S
C747 O724 1.252 . S
C747 C741 1.500 . S
H748 C731 0.929 . S
H749 C732 0.930 . S
H750 C733 0.931 . S
H751 C734 0.930 . S
H752 C743 0.929 . S
H753 C744 0.930 . S
H754 C745 0.931 . S
H755 C746 0.930 . S
C756 C758 1.422 . S
C756 C760 1.415 . S
C756 N762 1.369 . S
C757 C758 1.421 . S
C757 C759 1.417 . S
C757 C769 1.422 . S
C758 C756 1.422 . S
C758 C757 1.421 . S
C758 N768 1.359 . S
C759 C757 1.417 . S
C759 C761 1.329 . S
C759 H778 0.930 . S
C760 C756 1.415 . S
C760 C761 1.437 . S
C760 C764 1.413 . S
C761 C759 1.329 . S
C761 C760 1.437 . S
C761 H783 0.929 . S
N762 C756 1.369 . S
N762 C763 1.338 . S
N762 Gd767 2.622 . S
C763 N762 1.338 . S
C763 C765 1.378 . S
C763 H775 0.929 . S
C764 C760 1.413 . S
C764 C765 1.348 . S
C764 H780 0.931 . S
C765 C763 1.378 . S
C765 C764 1.348 . S
C765 H781 0.930 . S
Gd766 N786 2.622 . S
Gd766 N793 2.570 . S
Gd766 O800 2.353 . S
Gd766 O801 2.468 . S
Gd766 O802 2.427 . S
Gd766 O804 2.388 . S
Gd766 O805 2.386 . S
Gd766 O809 2.307 . S
Gd766 C819 2.805 . S
Gd767 N762 2.622 . S
Gd767 N768 2.570 . S
Gd767 O799 2.386 . S
Gd767 O803 2.307 . S
Gd767 O806 2.353 . S
Gd767 O807 2.468 . S
Gd767 O808 2.427 . S
Gd767 O810 2.388 . S
Gd767 C831 2.805 . S
N768 C758 1.359 . S
N768 Gd767 2.570 . S
N768 C770 1.343 . S
C769 C757 1.422 . S
C769 C771 1.321 . S
C769 H777 0.931 . S
C770 N768 1.343 . S
C770 C771 1.390 . S
C770 H772 0.931 . S
C771 C769 1.321 . S
C771 C770 1.390 . S
C771 H773 0.930 . S
H772 C770 0.931 . S
H773 C771 0.930 . S
H774 C797 0.931 . S
H775 C763 0.929 . S
H776 C798 0.930 . S
H777 C769 0.931 . S
H778 C759 0.930 . S
H779 C788 0.929 . S
H780 C764 0.931 . S
H781 C765 0.930 . S
H782 C820 0.930 . S
H783 C761 0.929 . S
H784 C789 0.931 . S
H785 C790 0.930 . S
N786 Gd766 2.622 . S
N786 C787 1.369 . S
N786 C788 1.338 . S
C787 N786 1.369 . S
C787 C791 1.415 . S
C787 C794 1.422 . S
C788 H779 0.929 . S
C788 N786 1.338 . S
C788 C790 1.378 . S
C789 H784 0.931 . S
C789 C790 1.348 . S
C789 C791 1.413 . S
C790 H785 0.930 . S
C790 C788 1.378 . S
C790 C789 1.348 . S
C791 C787 1.415 . S
C791 C789 1.413 . S
C791 C821 1.437 . S
H792 C821 0.929 . S
N793 Gd766 2.570 . S
N793 C794 1.359 . S
N793 C797 1.343 . S
C794 C787 1.422 . S
C794 N793 1.359 . S
C794 C796 1.421 . S
C795 C796 1.422 . S
C795 C798 1.321 . S
C795 H822 0.931 . S
C796 C794 1.421 . S
C796 C795 1.422 . S
C796 C820 1.417 . S
C797 H774 0.931 . S
C797 N793 1.343 . S
C797 C798 1.390 . S
C798 H776 0.930 . S
C798 C795 1.321 . S
C798 C797 1.390 . S
O799 Gd767 2.386 . S
O799 C811 1.265 . S
O800 Gd766 2.353 . S
O800 C811 1.242 . S
O801 Gd766 2.468 . S
O801 C819 1.263 . S
O802 Gd766 2.427 . S
O802 C819 1.252 . S
O803 Gd767 2.307 . S
O803 C812 1.261 . S
O804 Gd766 2.388 . S
O804 C812 1.252 . S
O805 Gd766 2.386 . S
O805 C823 1.265 . S
O806 Gd767 2.353 . S
O806 C823 1.242 . S
O807 Gd767 2.468 . S
O807 C831 1.263 . S
O808 Gd767 2.427 . S
O808 C831 1.252 . S
O809 Gd766 2.307 . S
O809 C824 1.261 . S
O810 Gd767 2.388 . S
O810 C824 1.252 . S
C811 O799 1.265 . S
C811 O800 1.242 . S
C812 O803 1.261 . S
C812 O804 1.252 . S
C813 C816 1.394 . S
C813 C818 1.370 . S
C813 C819 1.500 . S
C814 C817 1.383 . S
C814 C818 1.395 . S
C815 C816 1.396 . S
C815 C817 1.365 . S
C815 H832 0.929 . S
C816 C813 1.394 . S
C816 C815 1.396 . S
C816 H833 0.930 . S
C817 C814 1.383 . S
C817 C815 1.365 . S
C817 H834 0.931 . S
C818 C813 1.370 . S
C818 C814 1.395 . S
C818 H835 0.930 . S
C819 Gd766 2.805 . S
C819 O801 1.263 . S
C819 O802 1.252 . S
C819 C813 1.500 . S
C820 H782 0.930 . S
C820 C796 1.417 . S
C820 C821 1.329 . S
C821 C791 1.437 . S
C821 H792 0.929 . S
C821 C820 1.329 . S
H822 C795 0.931 . S
C823 O805 1.265 . S
C823 O806 1.242 . S
C824 O809 1.261 . S
C824 O810 1.252 . S
C825 C828 1.394 . S
C825 C830 1.370 . S
C825 C831 1.500 . S
C826 C829 1.383 . S
C826 C830 1.395 . S
C827 C828 1.396 . S
C827 C829 1.365 . S
C827 H836 0.929 . S
C828 C825 1.394 . S
C828 C827 1.396 . S
C828 H837 0.930 . S
C829 C826 1.383 . S
C829 C827 1.365 . S
C829 H838 0.931 . S
C830 C825 1.370 . S
C830 C826 1.395 . S
C830 H839 0.930 . S
C831 Gd767 2.805 . S
C831 O807 1.263 . S
C831 O808 1.252 . S
C831 C825 1.500 . S
H832 C815 0.929 . S
H833 C816 0.930 . S
H834 C817 0.931 . S
H835 C818 0.930 . S
H836 C827 0.929 . S
H837 C828 0.930 . S
H838 C829 0.931 . S
H839 C830 0.930 . S
C840 C842 1.418 1_565 S
C840 C844 1.418 . S
C840 N846 1.370 . S
C841 C842 1.421 . S
C841 C843 1.417 . S
C841 C853 1.422 . S
C842 C840 1.418 1_545 S
C842 C841 1.421 . S
C842 N852 1.359 . S
C843 C841 1.417 . S
C843 C845 1.330 . S
C843 H862 0.930 . S
C844 C840 1.418 . S
C844 C845 1.437 1_565 S
C844 C848 1.413 . S
C845 C843 1.330 . S
C845 C844 1.437 1_545 S
C845 H867 0.929 1_545 S
N846 C840 1.370 . S
N846 C847 1.338 . S
N846 Gd851 2.622 1_565 S
C847 N846 1.338 . S
C847 C849 1.378 . S
C847 H859 0.929 . S
C848 C844 1.413 . S
C848 C849 1.348 . S
C848 H864 0.931 . S
C849 C847 1.378 . S
C849 C848 1.348 . S
C849 H865 0.930 . S
Gd850 N870 2.627 . S
Gd850 N877 2.570 1_554 S
Gd850 O884 2.353 . S
Gd850 O885 2.468 1_554 S
Gd850 O886 2.427 1_554 S
Gd850 O888 2.388 . S
Gd850 O889 2.386 . S
Gd850 O893 2.307 . S
Gd850 C903 2.805 1_554 S
Gd851 N846 2.622 1_545 S
Gd851 N852 2.570 . S
Gd851 O883 2.386 . S
Gd851 O887 2.307 . S
Gd851 O890 2.353 . S
Gd851 O891 2.468 . S
Gd851 O892 2.427 1_545 S
Gd851 O894 2.388 1_545 S
Gd851 C915 2.805 . S
N852 C842 1.359 . S
N852 Gd851 2.570 . S
N852 C854 1.343 . S
C853 C841 1.422 . S
C853 C855 1.321 . S
C853 H861 0.931 . S
C854 N852 1.343 . S
C854 C855 1.390 . S
C854 H856 0.931 . S
C855 C853 1.321 . S
C855 C854 1.390 . S
C855 H857 0.930 . S
H856 C854 0.931 . S
H857 C855 0.930 . S
H858 C881 0.931 1_565 S
H859 C847 0.929 . S
H860 C882 0.930 . S
H861 C853 0.931 . S
H862 C843 0.930 . S
H863 C872 0.929 . S
H864 C848 0.931 . S
H865 C849 0.930 . S
H866 C904 0.930 . S
H867 C845 0.929 1_565 S
H868 C873 0.931 . S
H869 C874 0.930 . S
N870 Gd850 2.627 . S
N870 C871 1.359 1_554 S
N870 C872 1.343 . S
C871 N870 1.359 1_556 S
C871 C875 1.415 . S
C871 C878 1.422 . S
C872 H863 0.929 . S
C872 N870 1.343 . S
C872 C874 1.378 . S
C873 H868 0.931 . S
C873 C874 1.348 1_556 S
C873 C875 1.413 . S
C874 H869 0.930 . S
C874 C872 1.378 . S
C874 C873 1.348 1_554 S
C875 C871 1.415 . S
C875 C873 1.413 . S
C875 C905 1.437 . S
H876 C905 0.929 . S
N877 Gd850 2.570 1_556 S
N877 C878 1.359 . S
N877 C881 1.343 . S
C878 C871 1.422 . S
C878 N877 1.359 . S
C878 C880 1.421 . S
C879 C880 1.481 . S
C879 C882 1.281 1_545 S
C879 H906 0.916 1_545 S
C880 C878 1.421 . S
C880 C879 1.481 . S
C880 C904 1.417 . S
C881 H858 0.931 1_545 S
C881 N877 1.343 . S
C881 C882 1.390 1_545 S
C882 H860 0.930 . S
C882 C879 1.281 1_565 S
C882 C881 1.390 1_565 S
O883 Gd851 2.386 . S
O883 C895 1.265 . S
O884 Gd850 2.353 . S
O884 C895 1.242 . S
O885 Gd850 2.468 1_556 S
O885 C903 1.263 . S
O886 Gd850 2.427 1_556 S
O886 C903 1.252 . S
O887 Gd851 2.307 . S
O887 C896 1.261 . S
O888 Gd850 2.388 . S
O888 C896 1.252 . S
O889 Gd850 2.386 . S
O889 C907 1.265 . S
O890 Gd851 2.353 . S
O890 C907 1.242 . S
O891 Gd851 2.468 . S
O891 C915 1.263 . S
O892 Gd851 2.427 1_565 S
O892 C915 1.252 1_565 S
O893 Gd850 2.307 . S
O893 C908 1.261 1_545 S
O894 Gd851 2.388 1_565 S
O894 C908 1.252 . S
C895 O883 1.265 . S
C895 O884 1.242 . S
C896 O887 1.261 . S
C896 O888 1.252 . S
C897 C900 1.394 . S
C897 C902 1.370 . S
C897 C903 1.500 . S
C898 C901 1.383 . S
C898 C902 1.395 . S
C899 C900 1.396 . S
C899 C901 1.365 . S
C899 H916 0.929 . S
C900 C897 1.394 . S
C900 C899 1.396 . S
C900 H917 0.930 . S
C901 C898 1.383 . S
C901 C899 1.365 . S
C901 H918 0.931 . S
C902 C897 1.370 . S
C902 C898 1.395 . S
C902 H919 0.930 . S
C903 Gd850 2.805 1_556 S
C903 O885 1.263 . S
C903 O886 1.252 . S
C903 C897 1.500 . S
C904 H866 0.930 . S
C904 C880 1.417 . S
C904 C905 1.329 . S
C905 C875 1.437 . S
C905 H876 0.929 . S
C905 C904 1.329 . S
H906 C879 0.916 1_565 S
C907 O889 1.265 . S
C907 O890 1.242 . S
C908 O893 1.261 1_565 S
C908 O894 1.252 . S
C909 C912 1.394 . S
C909 C914 1.370 1_565 S
C909 C915 1.500 1_565 S
C910 C913 1.383 1_545 S
C910 C914 1.395 . S
C911 C912 1.396 . S
C911 C913 1.365 . S
C911 H920 0.929 . S
C912 C909 1.394 . S
C912 C911 1.396 . S
C912 H921 0.930 . S
C913 C910 1.383 1_565 S
C913 C911 1.365 . S
C913 H922 0.931 . S
C914 C909 1.370 1_545 S
C914 C910 1.395 . S
C914 H923 0.930 . S
C915 Gd851 2.805 . S
C915 O891 1.263 . S
C915 O892 1.252 1_545 S
C915 C909 1.500 1_545 S
H916 C899 0.929 . S
H917 C900 0.930 . S
H918 C901 0.931 . S
H919 C902 0.930 . S
H920 C911 0.929 . S
H921 C912 0.930 . S
H922 C913 0.931 . S
H923 C914 0.930 . S
C924 C926 1.422 . S
C924 C928 1.415 . S
C924 N930 1.369 . S
C925 C926 1.421 . S
C925 C927 1.417 . S
C925 C937 1.422 . S
C926 C924 1.422 . S
C926 C925 1.421 . S
C926 N936 1.359 . S
C927 C925 1.417 . S
C927 C929 1.329 . S
C927 H946 0.930 . S
C928 C924 1.415 . S
C928 C929 1.437 . S
C928 C932 1.413 . S
C929 C927 1.329 . S
C929 C928 1.437 . S
C929 H951 0.929 . S
N930 C924 1.369 . S
N930 C931 1.338 . S
N930 Gd935 2.622 . S
C931 N930 1.338 . S
C931 C933 1.378 . S
C931 H943 0.929 . S
C932 C928 1.413 . S
C932 C933 1.348 . S
C932 H948 0.931 . S
C933 C931 1.378 . S
C933 C932 1.348 . S
C933 H949 0.930 . S
Gd934 N954 2.622 . S
Gd934 N961 2.570 . S
Gd934 O968 2.353 . S
Gd934 O969 2.468 . S
Gd934 O970 2.427 . S
Gd934 O972 2.388 . S
Gd934 O973 2.386 . S
Gd934 O977 2.307 . S
Gd934 C987 2.805 . S
Gd935 N930 2.622 . S
Gd935 N936 2.570 . S
Gd935 O967 2.386 . S
Gd935 O971 2.307 . S
Gd935 O974 2.353 . S
Gd935 O975 2.468 . S
Gd935 O976 2.427 . S
Gd935 O978 2.388 . S
Gd935 C999 2.805 . S
N936 C926 1.359 . S
N936 Gd935 2.570 . S
N936 C938 1.343 . S
C937 C925 1.422 . S
C937 C939 1.321 . S
C937 H945 0.931 . S
C938 N936 1.343 . S
C938 C939 1.390 . S
C938 H940 0.931 . S
C939 C937 1.321 . S
C939 C938 1.390 . S
C939 H941 0.930 . S
H940 C938 0.931 . S
H941 C939 0.930 . S
H942 C965 0.931 . S
H943 C931 0.929 . S
H944 C966 0.930 . S
H945 C937 0.931 . S
H946 C927 0.930 . S
H947 C956 0.929 . S
H948 C932 0.931 . S
H949 C933 0.930 . S
H950 C988 0.930 . S
H951 C929 0.929 . S
H952 C957 0.931 . S
H953 C958 0.930 . S
N954 Gd934 2.622 . S
N954 C955 1.369 . S
N954 C956 1.338 . S
C955 N954 1.369 . S
C955 C959 1.415 . S
C955 C962 1.422 . S
C956 H947 0.929 . S
C956 N954 1.338 . S
C956 C958 1.378 . S
C957 H952 0.931 . S
C957 C958 1.348 . S
C957 C959 1.413 . S
C958 H953 0.930 . S
C958 C956 1.378 . S
C958 C957 1.348 . S
C959 C955 1.415 . S
C959 C957 1.413 . S
C959 C989 1.437 . S
H960 C989 0.929 . S
N961 Gd934 2.570 . S
N961 C962 1.359 . S
N961 C965 1.343 . S
C962 C955 1.422 . S
C962 N961 1.359 . S
C962 C964 1.421 . S
C963 C964 1.422 . S
C963 C966 1.321 . S
C963 H990 0.931 . S
C964 C962 1.421 . S
C964 C963 1.422 . S
C964 C988 1.417 . S
C965 H942 0.931 . S
C965 N961 1.343 . S
C965 C966 1.390 . S
C966 H944 0.930 . S
C966 C963 1.321 . S
C966 C965 1.390 . S
O967 Gd935 2.386 . S
O967 C979 1.265 . S
O968 Gd934 2.353 . S
O968 C979 1.242 . S
O969 Gd934 2.468 . S
O969 C987 1.263 . S
O970 Gd934 2.427 . S
O970 C987 1.252 . S
O971 Gd935 2.307 . S
O971 C980 1.261 . S
O972 Gd934 2.388 . S
O972 C980 1.252 . S
O973 Gd934 2.386 . S
O973 C991 1.265 . S
O974 Gd935 2.353 . S
O974 C991 1.242 . S
O975 Gd935 2.468 . S
O975 C999 1.263 . S
O976 Gd935 2.427 . S
O976 C999 1.252 . S
O977 Gd934 2.307 . S
O977 C992 1.261 . S
O978 Gd935 2.388 . S
O978 C992 1.252 . S
C979 O967 1.265 . S
C979 O968 1.242 . S
C980 O971 1.261 . S
C980 O972 1.252 . S
C981 C984 1.394 . S
C981 C986 1.370 . S
C981 C987 1.500 . S
C982 C985 1.383 . S
C982 C986 1.395 . S
C983 C984 1.396 . S
C983 C985 1.365 . S
C983 H1000 0.929 . S
C984 C981 1.394 . S
C984 C983 1.396 . S
C984 H1001 0.930 . S
C985 C982 1.383 . S
C985 C983 1.365 . S
C985 H1002 0.931 . S
C986 C981 1.370 . S
C986 C982 1.395 . S
C986 H1003 0.930 . S
C987 Gd934 2.805 . S
C987 O969 1.263 . S
C987 O970 1.252 . S
C987 C981 1.500 . S
C988 H950 0.930 . S
C988 C964 1.417 . S
C988 C989 1.329 . S
C989 C959 1.437 . S
C989 H960 0.929 . S
C989 C988 1.329 . S
H990 C963 0.931 . S
C991 O973 1.265 . S
C991 O974 1.242 . S
C992 O977 1.261 . S
C992 O978 1.252 . S
C993 C996 1.394 . S
C993 C998 1.370 . S
C993 C999 1.500 . S
C994 C997 1.383 . S
C994 C998 1.395 . S
C995 C996 1.396 . S
C995 C997 1.365 . S
C995 H1004 0.929 . S
C996 C993 1.394 . S
C996 C995 1.396 . S
C996 H1005 0.930 . S
C997 C994 1.383 . S
C997 C995 1.365 . S
C997 H1006 0.931 . S
C998 C993 1.370 . S
C998 C994 1.395 . S
C998 H1007 0.930 . S
C999 Gd935 2.805 . S
C999 O975 1.263 . S
C999 O976 1.252 . S
C999 C993 1.500 . S
H1000 C983 0.929 . S
H1001 C984 0.930 . S
H1002 C985 0.931 . S
H1003 C986 0.930 . S
H1004 C995 0.929 . S
H1005 C996 0.930 . S
H1006 C997 0.931 . S
H1007 C998 0.930 . S
C1008 C1010 1.422 . S
C1008 C1012 1.415 . S
C1008 N1014 1.369 . S
C1009 C1010 1.421 . S
C1009 C1011 1.417 . S
C1009 C1021 1.422 . S
C1010 C1008 1.422 . S
C1010 C1009 1.421 . S
C1010 N1020 1.359 . S
C1011 C1009 1.417 . S
C1011 C1013 1.329 . S
C1011 H1030 0.930 . S
C1012 C1008 1.415 . S
C1012 C1013 1.437 . S
C1012 C1016 1.413 . S
C1013 C1011 1.329 . S
C1013 C1012 1.437 . S
C1013 H1035 0.929 . S
N1014 C1008 1.369 . S
N1014 C1015 1.338 . S
N1014 Gd1019 2.622 . S
C1015 N1014 1.338 . S
C1015 C1017 1.378 . S
C1015 H1027 0.929 . S
C1016 C1012 1.413 . S
C1016 C1017 1.348 . S
C1016 H1032 0.931 . S
C1017 C1015 1.378 . S
C1017 C1016 1.348 . S
C1017 H1033 0.930 . S
Gd1018 N1038 2.622 . S
Gd1018 N1045 2.570 . S
Gd1018 O1052 2.353 . S
Gd1018 O1053 2.468 . S
Gd1018 O1054 2.427 . S
Gd1018 O1056 2.388 . S
Gd1018 O1057 2.386 . S
Gd1018 O1061 2.307 . S
Gd1018 C1071 2.805 . S
Gd1019 N1014 2.622 . S
Gd1019 N1020 2.570 . S
Gd1019 O1051 2.386 . S
Gd1019 O1055 2.307 . S
Gd1019 O1058 2.353 . S
Gd1019 O1059 2.468 . S
Gd1019 O1060 2.427 . S
Gd1019 O1062 2.388 . S
Gd1019 C1083 2.805 . S
N1020 C1010 1.359 . S
N1020 Gd1019 2.570 . S
N1020 C1022 1.343 . S
C1021 C1009 1.422 . S
C1021 C1023 1.321 . S
C1021 H1029 0.931 . S
C1022 N1020 1.343 . S
C1022 C1023 1.390 . S
C1022 H1024 0.931 . S
C1023 C1021 1.321 . S
C1023 C1022 1.390 . S
C1023 H1025 0.930 . S
H1024 C1022 0.931 . S
H1025 C1023 0.930 . S
H1026 C1049 0.931 . S
H1027 C1015 0.929 . S
H1028 C1050 0.930 . S
H1029 C1021 0.931 . S
H1030 C1011 0.930 . S
H1031 C1040 0.929 . S
H1032 C1016 0.931 . S
H1033 C1017 0.930 . S
H1034 C1072 0.930 . S
H1035 C1013 0.929 . S
H1036 C1041 0.931 . S
H1037 C1042 0.930 . S
N1038 Gd1018 2.622 . S
N1038 C1039 1.369 1_554 S
N1038 C1040 1.338 . S
C1039 N1038 1.369 1_556 S
C1039 C1043 1.415 . S
C1039 C1046 1.422 . S
C1040 H1031 0.929 . S
C1040 N1038 1.338 . S
C1040 C1042 1.378 1_554 S
C1041 H1036 0.931 . S
C1041 C1042 1.348 . S
C1041 C1043 1.413 . S
C1042 H1037 0.930 . S
C1042 C1040 1.378 1_556 S
C1042 C1041 1.348 . S
C1043 C1039 1.415 . S
C1043 C1041 1.413 . S
C1043 C1073 1.437 . S
H1044 C1073 0.929 . S
N1045 Gd1018 2.570 . S
N1045 C1046 1.359 1_554 S
N1045 C1049 1.343 . S
C1046 C1039 1.422 . S
C1046 N1045 1.359 1_556 S
C1046 C1048 1.421 . S
C1047 C1048 1.422 . S
C1047 C1050 1.321 . S
C1047 H1074 0.931 . S
C1048 C1046 1.421 . S
C1048 C1047 1.422 . S
C1048 C1072 1.417 . S
C1049 H1026 0.931 . S
C1049 N1045 1.343 . S
C1049 C1050 1.390 1_554 S
C1050 H1028 0.930 . S
C1050 C1047 1.321 . S
C1050 C1049 1.390 1_556 S
O1051 Gd1019 2.386 . S
O1051 C1063 1.265 . S
O1052 Gd1018 2.353 . S
O1052 C1063 1.242 . S
O1053 Gd1018 2.468 . S
O1053 C1071 1.263 . S
O1054 Gd1018 2.427 . S
O1054 C1071 1.252 . S
O1055 Gd1019 2.307 . S
O1055 C1064 1.261 . S
O1056 Gd1018 2.388 . S
O1056 C1064 1.252 . S
O1057 Gd1018 2.386 . S
O1057 C1075 1.270 . S
O1058 Gd1019 2.353 . S
O1058 C1075 1.251 . S
O1059 Gd1019 2.468 . S
O1059 C1083 1.263 . S
O1060 Gd1019 2.427 . S
O1060 C1083 1.252 . S
O1061 Gd1018 2.307 . S
O1061 C1076 1.261 . S
O1062 Gd1019 2.388 . S
O1062 C1076 1.252 . S
C1063 O1051 1.265 . S
C1063 O1052 1.242 . S
C1064 O1055 1.261 . S
C1064 O1056 1.252 . S
C1065 C1068 1.394 . S
C1065 C1070 1.370 . S
C1065 C1071 1.500 . S
C1066 C1069 1.383 . S
C1066 C1070 1.395 . S
C1067 C1068 1.396 . S
C1067 C1069 1.365 . S
C1067 H1084 0.929 . S
C1068 C1065 1.394 . S
C1068 C1067 1.396 . S
C1068 H1085 0.930 . S
C1069 C1066 1.383 . S
C1069 C1067 1.365 . S
C1069 H1086 0.931 . S
C1070 C1065 1.370 . S
C1070 C1066 1.395 . S
C1070 H1087 0.930 . S
C1071 Gd1018 2.805 . S
C1071 O1053 1.263 . S
C1071 O1054 1.252 . S
C1071 C1065 1.500 . S
C1072 H1034 0.930 . S
C1072 C1048 1.417 . S
C1072 C1073 1.329 . S
C1073 C1043 1.437 . S
C1073 H1044 0.929 . S
C1073 C1072 1.329 . S
H1074 C1047 0.931 . S
C1075 O1057 1.270 . S
C1075 O1058 1.251 . S
C1076 O1061 1.261 . S
C1076 O1062 1.252 . S
C1077 C1080 1.394 . S
C1077 C1082 1.370 . S
C1077 C1083 1.500 . S
C1078 C1081 1.383 . S
C1078 C1082 1.395 1_556 S
C1079 C1080 1.396 . S
C1079 C1081 1.365 1_554 S
C1079 H1088 0.929 . S
C1080 C1077 1.394 . S
C1080 C1079 1.396 . S
C1080 H1089 0.930 . S
C1081 C1078 1.383 . S
C1081 C1079 1.365 1_556 S
C1081 H1090 0.931 . S
C1082 C1077 1.370 . S
C1082 C1078 1.395 1_554 S
C1082 H1091 0.930 . S
C1083 Gd1019 2.805 . S
C1083 O1059 1.263 . S
C1083 O1060 1.252 . S
C1083 C1077 1.500 . S
H1084 C1067 0.929 . S
H1085 C1068 0.930 . S
H1086 C1069 0.931 . S
H1087 C1070 0.930 . S
H1088 C1079 0.929 . S
H1089 C1080 0.930 . S
H1090 C1081 0.931 . S
H1091 C1082 0.930 . S
C1092 C1094 1.422 . S
C1092 C1096 1.415 . S
C1092 N1098 1.369 . S
C1093 C1094 1.421 . S
C1093 C1095 1.417 . S
C1093 C1105 1.422 . S
C1094 C1092 1.422 . S
C1094 C1093 1.421 . S
C1094 N1104 1.359 . S
C1095 C1093 1.417 . S
C1095 C1097 1.329 . S
C1095 H1114 0.930 . S
C1096 C1092 1.415 . S
C1096 C1097 1.437 . S
C1096 C1100 1.413 . S
C1097 C1095 1.329 . S
C1097 C1096 1.437 . S
C1097 H1119 0.929 . S
N1098 C1092 1.369 . S
N1098 C1099 1.338 . S
N1098 Gd1103 2.622 . S
C1099 N1098 1.338 . S
C1099 C1101 1.378 . S
C1099 H1111 0.929 . S
C1100 C1096 1.413 . S
C1100 C1101 1.348 . S
C1100 H1116 0.931 . S
C1101 C1099 1.378 . S
C1101 C1100 1.348 . S
C1101 H1117 0.930 . S
Gd1102 N1122 2.622 . S
Gd1102 N1129 2.570 . S
Gd1102 O1136 2.353 . S
Gd1102 O1137 2.468 . S
Gd1102 O1138 2.427 . S
Gd1102 O1140 2.388 . S
Gd1102 O1141 2.386 . S
Gd1102 O1145 2.307 . S
Gd1102 C1155 2.805 . S
Gd1103 N1098 2.622 . S
Gd1103 N1104 2.570 . S
Gd1103 O1135 2.386 . S
Gd1103 O1139 2.307 . S
Gd1103 O1142 2.353 . S
Gd1103 O1143 2.468 . S
Gd1103 O1144 2.427 . S
Gd1103 O1146 2.388 . S
Gd1103 C1167 2.805 . S
N1104 C1094 1.359 . S
N1104 Gd1103 2.570 . S
N1104 C1106 1.343 . S
C1105 C1093 1.422 . S
C1105 C1107 1.321 . S
C1105 H1113 0.931 . S
C1106 N1104 1.343 . S
C1106 C1107 1.390 . S
C1106 H1108 0.931 . S
C1107 C1105 1.321 . S
C1107 C1106 1.390 . S
C1107 H1109 0.930 . S
H1108 C1106 0.931 . S
H1109 C1107 0.930 . S
H1110 C1133 0.931 . S
H1111 C1099 0.929 . S
H1112 C1134 0.930 . S
H1113 C1105 0.931 . S
H1114 C1095 0.930 . S
H1115 C1124 0.929 . S
H1116 C1100 0.931 . S
H1117 C1101 0.930 . S
H1118 C1156 0.930 . S
H1119 C1097 0.929 . S
H1120 C1125 0.931 . S
H1121 C1126 0.930 . S
N1122 Gd1102 2.622 . S
N1122 C1123 1.369 . S
N1122 C1124 1.338 . S
C1123 N1122 1.369 . S
C1123 C1127 1.415 . S
C1123 C1130 1.422 . S
C1124 H1115 0.929 . S
C1124 N1122 1.338 . S
C1124 C1126 1.378 . S
C1125 H1120 0.931 . S
C1125 C1126 1.348 . S
C1125 C1127 1.413 . S
C1126 H1121 0.930 . S
C1126 C1124 1.378 . S
C1126 C1125 1.348 . S
C1127 C1123 1.415 . S
C1127 C1125 1.413 . S
C1127 C1157 1.437 . S
H1128 C1157 0.929 . S
N1129 Gd1102 2.570 . S
N1129 C1130 1.359 . S
N1129 C1133 1.343 . S
C1130 C1123 1.422 . S
C1130 N1129 1.359 . S
C1130 C1132 1.421 . S
C1131 C1132 1.422 . S
C1131 C1134 1.321 . S
C1131 H1158 0.931 . S
C1132 C1130 1.421 . S
C1132 C1131 1.422 . S
C1132 C1156 1.417 . S
C1133 H1110 0.931 . S
C1133 N1129 1.343 . S
C1133 C1134 1.390 . S
C1134 H1112 0.930 . S
C1134 C1131 1.321 . S
C1134 C1133 1.390 . S
O1135 Gd1103 2.386 . S
O1135 C1147 1.265 . S
O1136 Gd1102 2.353 . S
O1136 C1147 1.242 . S
O1137 Gd1102 2.468 . S
O1137 C1155 1.263 . S
O1138 Gd1102 2.427 . S
O1138 C1155 1.252 . S
O1139 Gd1103 2.307 . S
O1139 C1148 1.261 . S
O1140 Gd1102 2.388 . S
O1140 C1148 1.252 . S
O1141 Gd1102 2.386 . S
O1141 C1159 1.265 . S
O1142 Gd1103 2.353 . S
O1142 C1159 1.242 . S
O1143 Gd1103 2.468 . S
O1143 C1167 1.263 . S
O1144 Gd1103 2.427 . S
O1144 C1167 1.252 . S
O1145 Gd1102 2.307 . S
O1145 C1160 1.261 . S
O1146 Gd1103 2.388 . S
O1146 C1160 1.252 . S
C1147 O1135 1.265 . S
C1147 O1136 1.242 . S
C1148 O1139 1.261 . S
C1148 O1140 1.252 . S
C1149 C1152 1.394 . S
C1149 C1154 1.370 . S
C1149 C1155 1.500 . S
C1150 C1153 1.383 . S
C1150 C1154 1.395 . S
C1151 C1152 1.396 . S
C1151 C1153 1.365 . S
C1151 H1168 0.929 . S
C1152 C1149 1.394 . S
C1152 C1151 1.396 . S
C1152 H1169 0.930 . S
C1153 C1150 1.383 . S
C1153 C1151 1.365 . S
C1153 H1170 0.931 . S
C1154 C1149 1.370 . S
C1154 C1150 1.395 . S
C1154 H1171 0.930 . S
C1155 Gd1102 2.805 . S
C1155 O1137 1.263 . S
C1155 O1138 1.252 . S
C1155 C1149 1.500 . S
C1156 H1118 0.930 . S
C1156 C1132 1.417 . S
C1156 C1157 1.329 . S
C1157 C1127 1.437 . S
C1157 H1128 0.929 . S
C1157 C1156 1.329 . S
H1158 C1131 0.931 . S
C1159 O1141 1.265 . S
C1159 O1142 1.242 . S
C1160 O1145 1.261 . S
C1160 O1146 1.252 . S
C1161 C1164 1.394 . S
C1161 C1166 1.370 . S
C1161 C1167 1.500 . S
C1162 C1165 1.383 . S
C1162 C1166 1.395 . S
C1163 C1164 1.396 . S
C1163 C1165 1.365 . S
C1163 H1172 0.929 . S
C1164 C1161 1.394 . S
C1164 C1163 1.396 . S
C1164 H1173 0.930 . S
C1165 C1162 1.383 . S
C1165 C1163 1.365 . S
C1165 H1174 0.931 . S
C1166 C1161 1.370 . S
C1166 C1162 1.395 . S
C1166 H1175 0.930 . S
C1167 Gd1103 2.805 . S
C1167 O1143 1.263 . S
C1167 O1144 1.252 . S
C1167 C1161 1.500 . S
H1168 C1151 0.929 . S
H1169 C1152 0.930 . S
H1170 C1153 0.931 . S
H1171 C1154 0.930 . S
H1172 C1163 0.929 . S
H1173 C1164 0.930 . S
H1174 C1165 0.931 . S
H1175 C1166 0.930 . S
C1176 C1178 1.422 . S
C1176 C1180 1.415 . S
C1176 N1182 1.369 . S
C1177 C1178 1.421 . S
C1177 C1179 1.417 . S
C1177 C1189 1.422 . S
C1178 C1176 1.422 . S
C1178 C1177 1.421 . S
C1178 N1188 1.359 . S
C1179 C1177 1.417 . S
C1179 C1181 1.329 . S
C1179 H1198 0.930 . S
C1180 C1176 1.415 . S
C1180 C1181 1.437 . S
C1180 C1184 1.413 . S
C1181 C1179 1.329 . S
C1181 C1180 1.437 . S
C1181 H1203 0.929 . S
N1182 C1176 1.369 . S
N1182 C1183 1.338 . S
N1182 Gd1187 2.622 . S
C1183 N1182 1.338 . S
C1183 C1185 1.378 . S
C1183 H1195 0.929 . S
C1184 C1180 1.413 . S
C1184 C1185 1.348 . S
C1184 H1200 0.931 . S
C1185 C1183 1.378 . S
C1185 C1184 1.348 . S
C1185 H1201 0.930 . S
Gd1186 N1206 2.622 1_455 S
Gd1186 N1213 2.570 1_455 S
Gd1186 O1220 2.353 . S
Gd1186 O1221 2.468 . S
Gd1186 O1222 2.427 . S
Gd1186 O1224 2.388 . S
Gd1186 O1225 2.386 1_455 S
Gd1186 O1229 2.307 . S
Gd1186 C1239 2.805 . S
Gd1187 N1182 2.622 . S
Gd1187 N1188 2.570 . S
Gd1187 O1219 2.386 . S
Gd1187 O1223 2.307 . S
Gd1187 O1226 2.353 1_455 S
Gd1187 O1227 2.468 . S
Gd1187 O1228 2.427 . S
Gd1187 O1230 2.388 . S
Gd1187 C1251 2.805 . S
N1188 C1178 1.359 . S
N1188 Gd1187 2.570 . S
N1188 C1190 1.343 . S
C1189 C1177 1.422 . S
C1189 C1191 1.321 . S
C1189 H1197 0.931 . S
C1190 N1188 1.343 . S
C1190 C1191 1.390 . S
C1190 H1192 0.931 . S
C1191 C1189 1.321 . S
C1191 C1190 1.390 . S
C1191 H1193 0.930 . S
H1192 C1190 0.931 . S
H1193 C1191 0.930 . S
H1194 C1217 0.931 . S
H1195 C1183 0.929 . S
H1196 C1218 0.930 . S
H1197 C1189 0.931 . S
H1198 C1179 0.930 . S
H1199 C1208 0.929 1_455 S
H1200 C1184 0.931 . S
H1201 C1185 0.930 . S
H1202 C1240 0.930 . S
H1203 C1181 0.929 . S
H1204 C1209 0.931 . S
H1205 C1210 0.930 . S
N1206 Gd1186 2.622 1_655 S
N1206 C1207 1.369 . S
N1206 C1208 1.338 . S
C1207 N1206 1.369 . S
C1207 C1211 1.415 . S
C1207 C1214 1.422 . S
C1208 H1199 0.929 1_655 S
C1208 N1206 1.338 . S
C1208 C1210 1.378 . S
C1209 H1204 0.931 . S
C1209 C1210 1.348 . S
C1209 C1211 1.413 . S
C1210 H1205 0.930 . S
C1210 C1208 1.378 . S
C1210 C1209 1.348 . S
C1211 C1207 1.415 . S
C1211 C1209 1.413 . S
C1211 C1241 1.437 . S
H1212 C1241 0.929 . S
N1213 Gd1186 2.570 1_655 S
N1213 C1214 1.359 . S
N1213 C1217 1.343 . S
C1214 C1207 1.422 . S
C1214 N1213 1.359 . S
C1214 C1216 1.421 . S
C1215 C1216 1.422 . S
C1215 C1218 1.321 . S
C1215 H1242 0.931 . S
C1216 C1214 1.421 . S
C1216 C1215 1.422 . S
C1216 C1240 1.417 . S
C1217 H1194 0.931 . S
C1217 N1213 1.343 . S
C1217 C1218 1.390 . S
C1218 H1196 0.930 . S
C1218 C1215 1.321 . S
C1218 C1217 1.390 . S
O1219 Gd1187 2.386 . S
O1219 C1231 1.265 . S
O1220 Gd1186 2.353 . S
O1220 C1231 1.242 . S
O1221 Gd1186 2.468 . S
O1221 C1239 1.263 . S
O1222 Gd1186 2.427 . S
O1222 C1239 1.252 . S
O1223 Gd1187 2.307 . S
O1223 C1232 1.261 . S
O1224 Gd1186 2.388 . S
O1224 C1232 1.252 . S
O1225 Gd1186 2.386 1_655 S
O1225 C1243 1.265 . S
O1226 Gd1187 2.353 1_655 S
O1226 C1243 1.242 . S
O1227 Gd1187 2.468 . S
O1227 C1251 1.263 . S
O1228 Gd1187 2.427 . S
O1228 C1251 1.252 . S
O1229 Gd1186 2.307 . S
O1229 C1244 1.261 . S
O1230 Gd1187 2.388 . S
O1230 C1244 1.252 . S
C1231 O1219 1.265 . S
C1231 O1220 1.242 . S
C1232 O1223 1.261 . S
C1232 O1224 1.252 . S
C1233 C1236 1.394 . S
C1233 C1238 1.370 . S
C1233 C1239 1.500 . S
C1234 C1237 1.383 . S
C1234 C1238 1.395 . S
C1235 C1236 1.396 . S
C1235 C1237 1.365 . S
C1235 H1252 0.929 . S
C1236 C1233 1.394 . S
C1236 C1235 1.396 . S
C1236 H1253 0.930 . S
C1237 C1234 1.383 . S
C1237 C1235 1.365 . S
C1237 H1254 0.931 . S
C1238 C1233 1.370 . S
C1238 C1234 1.395 . S
C1238 H1255 0.930 . S
C1239 Gd1186 2.805 . S
C1239 O1221 1.263 . S
C1239 O1222 1.252 . S
C1239 C1233 1.500 . S
C1240 H1202 0.930 . S
C1240 C1216 1.417 . S
C1240 C1241 1.329 . S
C1241 C1211 1.437 . S
C1241 H1212 0.929 . S
C1241 C1240 1.329 . S
H1242 C1215 0.931 . S
C1243 O1225 1.265 . S
C1243 O1226 1.242 . S
C1244 O1229 1.261 . S
C1244 O1230 1.252 . S
C1245 C1248 1.394 . S
C1245 C1250 1.370 . S
C1245 C1251 1.500 1_655 S
C1246 C1249 1.383 . S
C1246 C1250 1.395 . S
C1247 C1248 1.396 . S
C1247 C1249 1.365 . S
C1247 H1256 0.929 . S
C1248 C1245 1.394 . S
C1248 C1247 1.396 . S
C1248 H1257 0.930 . S
C1249 C1246 1.383 . S
C1249 C1247 1.365 . S
C1249 H1258 0.931 . S
C1250 C1245 1.370 . S
C1250 C1246 1.395 . S
C1250 H1259 0.930 . S
C1251 Gd1187 2.805 . S
C1251 O1227 1.263 . S
C1251 O1228 1.252 . S
C1251 C1245 1.500 1_455 S
H1252 C1235 0.929 . S
H1253 C1236 0.930 . S
H1254 C1237 0.931 . S
H1255 C1238 0.930 . S
H1256 C1247 0.929 . S
H1257 C1248 0.930 . S
H1258 C1249 0.931 . S
H1259 C1250 0.930 . S
C1260 C1262 1.422 . S
C1260 C1264 1.415 . S
C1260 N1266 1.369 . S
C1261 C1262 1.421 . S
C1261 C1263 1.417 . S
C1261 C1273 1.422 . S
C1262 C1260 1.422 . S
C1262 C1261 1.421 . S
C1262 N1272 1.359 . S
C1263 C1261 1.417 . S
C1263 C1265 1.329 . S
C1263 H1282 0.930 . S
C1264 C1260 1.415 . S
C1264 C1265 1.437 . S
C1264 C1268 1.413 . S
C1265 C1263 1.329 . S
C1265 C1264 1.437 . S
C1265 H1287 0.929 . S
N1266 C1260 1.369 . S
N1266 C1267 1.338 . S
N1266 Gd1271 2.622 . S
C1267 N1266 1.338 . S
C1267 C1269 1.378 . S
C1267 H1279 0.929 . S
C1268 C1264 1.413 . S
C1268 C1269 1.348 . S
C1268 H1284 0.931 . S
C1269 C1267 1.378 . S
C1269 C1268 1.348 . S
C1269 H1285 0.930 . S
Gd1270 N1290 2.622 . S
Gd1270 N1297 2.570 . S
Gd1270 O1304 2.353 . S
Gd1270 O1305 2.468 . S
Gd1270 O1306 2.427 . S
Gd1270 O1308 2.388 . S
Gd1270 O1309 2.386 . S
Gd1270 O1313 2.307 . S
Gd1270 C1323 2.805 . S
Gd1271 N1266 2.622 . S
Gd1271 N1272 2.570 . S
Gd1271 O1303 2.386 . S
Gd1271 O1307 2.307 . S
Gd1271 O1310 2.353 . S
Gd1271 O1311 2.468 . S
Gd1271 O1312 2.427 . S
Gd1271 O1314 2.388 . S
Gd1271 C1335 2.805 . S
N1272 C1262 1.359 . S
N1272 Gd1271 2.570 . S
N1272 C1274 1.343 . S
C1273 C1261 1.422 . S
C1273 C1275 1.321 . S
C1273 H1281 0.931 . S
C1274 N1272 1.343 . S
C1274 C1275 1.390 . S
C1274 H1276 0.931 . S
C1275 C1273 1.321 . S
C1275 C1274 1.390 . S
C1275 H1277 0.930 . S
H1276 C1274 0.931 . S
H1277 C1275 0.930 . S
H1278 C1301 0.931 . S
H1279 C1267 0.929 . S
H1280 C1302 0.930 . S
H1281 C1273 0.931 . S
H1282 C1263 0.930 . S
H1283 C1292 0.929 . S
H1284 C1268 0.931 . S
H1285 C1269 0.930 . S
H1286 C1324 0.930 . S
H1287 C1265 0.929 . S
H1288 C1293 0.931 . S
H1289 C1294 0.930 . S
N1290 Gd1270 2.622 . S
N1290 C1291 1.369 . S
N1290 C1292 1.338 . S
C1291 N1290 1.369 . S
C1291 C1295 1.415 . S
C1291 C1298 1.422 . S
C1292 H1283 0.929 . S
C1292 N1290 1.338 . S
C1292 C1294 1.378 . S
C1293 H1288 0.931 . S
C1293 C1294 1.348 . S
C1293 C1295 1.413 . S
C1294 H1289 0.930 . S
C1294 C1292 1.378 . S
C1294 C1293 1.348 . S
C1295 C1291 1.415 . S
C1295 C1293 1.413 . S
C1295 C1325 1.437 . S
H1296 C1325 0.929 . S
N1297 Gd1270 2.570 . S
N1297 C1298 1.359 . S
N1297 C1301 1.343 . S
C1298 C1291 1.422 . S
C1298 N1297 1.359 . S
C1298 C1300 1.421 . S
C1299 C1300 1.422 . S
C1299 C1302 1.321 . S
C1299 H1326 0.931 . S
C1300 C1298 1.421 . S
C1300 C1299 1.422 . S
C1300 C1324 1.417 . S
C1301 H1278 0.931 . S
C1301 N1297 1.343 . S
C1301 C1302 1.390 . S
C1302 H1280 0.930 . S
C1302 C1299 1.321 . S
C1302 C1301 1.390 . S
O1303 Gd1271 2.386 . S
O1303 C1315 1.265 . S
O1304 Gd1270 2.353 . S
O1304 C1315 1.242 . S
O1305 Gd1270 2.468 . S
O1305 C1323 1.263 . S
O1306 Gd1270 2.427 . S
O1306 C1323 1.252 . S
O1307 Gd1271 2.307 . S
O1307 C1316 1.261 . S
O1308 Gd1270 2.388 . S
O1308 C1316 1.252 . S
O1309 Gd1270 2.386 . S
O1309 C1327 1.265 . S
O1310 Gd1271 2.353 . S
O1310 C1327 1.242 . S
O1311 Gd1271 2.468 . S
O1311 C1335 1.263 . S
O1312 Gd1271 2.427 . S
O1312 C1335 1.252 . S
O1313 Gd1270 2.307 . S
O1313 C1328 1.261 . S
O1314 Gd1271 2.388 . S
O1314 C1328 1.252 . S
C1315 O1303 1.265 . S
C1315 O1304 1.242 . S
C1316 O1307 1.261 . S
C1316 O1308 1.252 . S
C1317 C1320 1.394 . S
C1317 C1322 1.370 . S
C1317 C1323 1.500 . S
C1318 C1321 1.383 . S
C1318 C1322 1.395 . S
C1319 C1320 1.396 . S
C1319 C1321 1.365 . S
C1319 H1336 0.929 . S
C1320 C1317 1.394 . S
C1320 C1319 1.396 . S
C1320 H1337 0.930 . S
C1321 C1318 1.383 . S
C1321 C1319 1.365 . S
C1321 H1338 0.931 . S
C1322 C1317 1.370 . S
C1322 C1318 1.395 . S
C1322 H1339 0.930 . S
C1323 Gd1270 2.805 . S
C1323 O1305 1.263 . S
C1323 O1306 1.252 . S
C1323 C1317 1.500 . S
C1324 H1286 0.930 . S
C1324 C1300 1.417 . S
C1324 C1325 1.329 . S
C1325 C1295 1.437 . S
C1325 H1296 0.929 . S
C1325 C1324 1.329 . S
H1326 C1299 0.931 . S
C1327 O1309 1.265 . S
C1327 O1310 1.242 . S
C1328 O1313 1.261 . S
C1328 O1314 1.252 . S
C1329 C1332 1.394 . S
C1329 C1334 1.370 . S
C1329 C1335 1.500 . S
C1330 C1333 1.383 . S
C1330 C1334 1.395 . S
C1331 C1332 1.396 . S
C1331 C1333 1.365 . S
C1331 H1340 0.929 . S
C1332 C1329 1.394 . S
C1332 C1331 1.396 . S
C1332 H1341 0.930 . S
C1333 C1330 1.383 . S
C1333 C1331 1.365 . S
C1333 H1342 0.931 . S
C1334 C1329 1.370 . S
C1334 C1330 1.395 . S
C1334 H1343 0.930 . S
C1335 Gd1271 2.805 . S
C1335 O1311 1.263 . S
C1335 O1312 1.252 . S
C1335 C1329 1.500 . S
H1336 C1319 0.929 . S
H1337 C1320 0.930 . S
H1338 C1321 0.931 . S
H1339 C1322 0.930 . S
H1340 C1331 0.929 . S
H1341 C1332 0.930 . S
H1342 C1333 0.931 . S
H1343 C1334 0.930 . S
C1344 C1346 1.422 . S
C1344 C1348 1.415 . S
C1344 N1350 1.369 . S
C1345 C1346 1.421 . S
C1345 C1347 1.417 . S
C1345 C1357 1.422 . S
C1346 C1344 1.422 . S
C1346 C1345 1.421 . S
C1346 N1356 1.359 . S
C1347 C1345 1.417 . S
C1347 C1349 1.329 . S
C1347 H1366 0.930 . S
C1348 C1344 1.415 . S
C1348 C1349 1.437 . S
C1348 C1352 1.413 . S
C1349 C1347 1.329 . S
C1349 C1348 1.437 . S
C1349 H1371 0.929 . S
N1350 C1344 1.369 . S
N1350 C1351 1.338 . S
N1350 Gd1355 2.622 . S
C1351 N1350 1.338 . S
C1351 C1353 1.378 . S
C1351 H1363 0.929 . S
C1352 C1348 1.413 . S
C1352 C1353 1.348 . S
C1352 H1368 0.931 . S
C1353 C1351 1.378 . S
C1353 C1352 1.348 . S
C1353 H1369 0.930 . S
Gd1354 N1374 2.622 . S
Gd1354 N1381 2.570 . S
Gd1354 O1388 2.353 . S
Gd1354 O1389 2.468 . S
Gd1354 O1390 2.427 . S
Gd1354 O1392 2.388 . S
Gd1354 O1393 2.386 . S
Gd1354 O1397 2.307 . S
Gd1354 C1407 2.805 . S
Gd1355 N1350 2.622 . S
Gd1355 N1356 2.570 . S
Gd1355 O1387 2.386 . S
Gd1355 O1391 2.307 . S
Gd1355 O1394 2.353 . S
Gd1355 O1395 2.468 . S
Gd1355 O1396 2.427 . S
Gd1355 O1398 2.388 . S
Gd1355 C1419 2.805 . S
N1356 C1346 1.359 . S
N1356 Gd1355 2.570 . S
N1356 C1358 1.343 . S
C1357 C1345 1.422 . S
C1357 C1359 1.321 . S
C1357 H1365 0.931 . S
C1358 N1356 1.343 . S
C1358 C1359 1.390 . S
C1358 H1360 0.931 . S
C1359 C1357 1.321 . S
C1359 C1358 1.390 . S
C1359 H1361 0.930 . S
H1360 C1358 0.931 . S
H1361 C1359 0.930 . S
H1362 C1385 0.931 . S
H1363 C1351 0.929 . S
H1364 C1386 0.930 . S
H1365 C1357 0.931 . S
H1366 C1347 0.930 . S
H1367 C1376 0.929 . S
H1368 C1352 0.931 . S
H1369 C1353 0.930 . S
H1370 C1408 0.930 . S
H1371 C1349 0.929 . S
H1372 C1377 0.931 . S
H1373 C1378 0.930 . S
N1374 Gd1354 2.622 . S
N1374 C1375 1.369 . S
N1374 C1376 1.338 . S
C1375 N1374 1.369 . S
C1375 C1379 1.415 . S
C1375 C1382 1.422 . S
C1376 H1367 0.929 . S
C1376 N1374 1.338 . S
C1376 C1378 1.378 . S
C1377 H1372 0.931 . S
C1377 C1378 1.348 . S
C1377 C1379 1.413 . S
C1378 H1373 0.930 . S
C1378 C1376 1.378 . S
C1378 C1377 1.348 . S
C1379 C1375 1.415 . S
C1379 C1377 1.413 . S
C1379 C1409 1.437 . S
H1380 C1409 0.929 . S
N1381 Gd1354 2.570 . S
N1381 C1382 1.359 . S
N1381 C1385 1.343 . S
C1382 C1375 1.422 . S
C1382 N1381 1.359 . S
C1382 C1384 1.421 . S
C1383 C1384 1.422 . S
C1383 C1386 1.321 . S
C1383 H1410 0.931 . S
C1384 C1382 1.421 . S
C1384 C1383 1.422 . S
C1384 C1408 1.417 . S
C1385 H1362 0.931 . S
C1385 N1381 1.343 . S
C1385 C1386 1.390 . S
C1386 H1364 0.930 . S
C1386 C1383 1.321 . S
C1386 C1385 1.390 . S
O1387 Gd1355 2.386 . S
O1387 C1399 1.265 . S
O1388 Gd1354 2.353 . S
O1388 C1399 1.242 . S
O1389 Gd1354 2.468 . S
O1389 C1407 1.263 . S
O1390 Gd1354 2.427 . S
O1390 C1407 1.252 . S
O1391 Gd1355 2.307 . S
O1391 C1400 1.261 . S
O1392 Gd1354 2.388 . S
O1392 C1400 1.252 . S
O1393 Gd1354 2.386 . S
O1393 C1411 1.265 . S
O1394 Gd1355 2.353 . S
O1394 C1411 1.242 . S
O1395 Gd1355 2.468 . S
O1395 C1419 1.263 . S
O1396 Gd1355 2.427 . S
O1396 C1419 1.252 . S
O1397 Gd1354 2.307 . S
O1397 C1412 1.261 . S
O1398 Gd1355 2.388 . S
O1398 C1412 1.252 . S
C1399 O1387 1.265 . S
C1399 O1388 1.242 . S
C1400 O1391 1.261 . S
C1400 O1392 1.252 . S
C1401 C1404 1.394 . S
C1401 C1406 1.370 . S
C1401 C1407 1.500 . S
C1402 C1405 1.383 . S
C1402 C1406 1.395 . S
C1403 C1404 1.396 . S
C1403 C1405 1.365 . S
C1403 H1420 0.929 . S
C1404 C1401 1.394 . S
C1404 C1403 1.396 . S
C1404 H1421 0.930 . S
C1405 C1402 1.383 . S
C1405 C1403 1.365 . S
C1405 H1422 0.931 . S
C1406 C1401 1.370 . S
C1406 C1402 1.395 . S
C1406 H1423 0.930 . S
C1407 Gd1354 2.805 . S
C1407 O1389 1.263 . S
C1407 O1390 1.252 . S
C1407 C1401 1.500 . S
C1408 H1370 0.930 . S
C1408 C1384 1.417 . S
C1408 C1409 1.329 . S
C1409 C1379 1.437 . S
C1409 H1380 0.929 . S
C1409 C1408 1.329 . S
H1410 C1383 0.931 . S
C1411 O1393 1.265 . S
C1411 O1394 1.242 . S
C1412 O1397 1.261 . S
C1412 O1398 1.252 . S
C1413 C1416 1.394 . S
C1413 C1418 1.370 . S
C1413 C1419 1.500 . S
C1414 C1417 1.383 . S
C1414 C1418 1.395 . S
C1415 C1416 1.396 . S
C1415 C1417 1.365 . S
C1415 H1424 0.929 . S
C1416 C1413 1.394 . S
C1416 C1415 1.396 . S
C1416 H1425 0.930 . S
C1417 C1414 1.383 . S
C1417 C1415 1.365 . S
C1417 H1426 0.931 . S
C1418 C1413 1.370 . S
C1418 C1414 1.395 . S
C1418 H1427 0.930 . S
C1419 Gd1355 2.805 . S
C1419 O1395 1.263 . S
C1419 O1396 1.252 . S
C1419 C1413 1.500 . S
H1420 C1403 0.929 . S
H1421 C1404 0.930 . S
H1422 C1405 0.931 . S
H1423 C1406 0.930 . S
H1424 C1415 0.929 . S
H1425 C1416 0.930 . S
H1426 C1417 0.931 . S
H1427 C1418 0.930 . S
C1428 C1430 1.422 . S
C1428 C1432 1.415 . S
C1428 N1434 1.369 . S
C1429 C1430 1.421 . S
C1429 C1431 1.417 . S
C1429 C1441 1.422 . S
C1430 C1428 1.422 . S
C1430 C1429 1.421 . S
C1430 N1440 1.359 . S
C1431 C1429 1.417 . S
C1431 C1433 1.329 . S
C1431 H1450 0.930 . S
C1432 C1428 1.415 . S
C1432 C1433 1.437 . S
C1432 C1436 1.413 . S
C1433 C1431 1.329 . S
C1433 C1432 1.437 . S
C1433 H1455 0.929 . S
N1434 C1428 1.369 . S
N1434 C1435 1.338 . S
N1434 Gd1439 2.622 . S
C1435 N1434 1.338 . S
C1435 C1437 1.378 . S
C1435 H1447 0.929 . S
C1436 C1432 1.413 . S
C1436 C1437 1.348 . S
C1436 H1452 0.931 . S
C1437 C1435 1.378 . S
C1437 C1436 1.348 . S
C1437 H1453 0.930 . S
Gd1438 N1458 2.622 . S
Gd1438 N1465 2.570 . S
Gd1438 O1472 2.353 . S
Gd1438 O1473 2.468 . S
Gd1438 O1474 2.427 . S
Gd1438 O1476 2.388 . S
Gd1438 O1477 2.386 . S
Gd1438 O1481 2.307 . S
Gd1438 C1491 2.805 . S
Gd1439 N1434 2.622 . S
Gd1439 N1440 2.570 . S
Gd1439 O1471 2.386 . S
Gd1439 O1475 2.307 . S
Gd1439 O1478 2.353 . S
Gd1439 O1479 2.468 . S
Gd1439 O1480 2.427 . S
Gd1439 O1482 2.388 . S
Gd1439 C1503 2.805 . S
N1440 C1430 1.359 . S
N1440 Gd1439 2.570 . S
N1440 C1442 1.343 . S
C1441 C1429 1.422 . S
C1441 C1443 1.321 . S
C1441 H1449 0.931 . S
C1442 N1440 1.343 . S
C1442 C1443 1.390 . S
C1442 H1444 0.931 . S
C1443 C1441 1.321 . S
C1443 C1442 1.390 . S
C1443 H1445 0.930 . S
H1444 C1442 0.931 . S
H1445 C1443 0.930 . S
H1446 C1469 0.931 . S
H1447 C1435 0.929 . S
H1448 C1470 0.930 . S
H1449 C1441 0.931 . S
H1450 C1431 0.930 . S
H1451 C1460 0.929 . S
H1452 C1436 0.931 . S
H1453 C1437 0.930 . S
H1454 C1492 0.930 . S
H1455 C1433 0.929 . S
H1456 C1461 0.931 . S
H1457 C1462 0.930 . S
N1458 Gd1438 2.622 . S
N1458 C1459 1.369 . S
N1458 C1460 1.338 . S
C1459 N1458 1.369 . S
C1459 C1463 1.415 . S
C1459 C1466 1.422 . S
C1460 H1451 0.929 . S
C1460 N1458 1.338 . S
C1460 C1462 1.378 . S
C1461 H1456 0.931 . S
C1461 C1462 1.348 . S
C1461 C1463 1.413 . S
C1462 H1457 0.930 . S
C1462 C1460 1.378 . S
C1462 C1461 1.348 . S
C1463 C1459 1.415 . S
C1463 C1461 1.413 . S
C1463 C1493 1.437 . S
H1464 C1493 0.929 . S
N1465 Gd1438 2.570 . S
N1465 C1466 1.359 . S
N1465 C1469 1.343 . S
C1466 C1459 1.422 . S
C1466 N1465 1.359 . S
C1466 C1468 1.421 . S
C1467 C1468 1.422 . S
C1467 C1470 1.321 . S
C1467 H1494 0.931 . S
C1468 C1466 1.421 . S
C1468 C1467 1.422 . S
C1468 C1492 1.417 . S
C1469 H1446 0.931 . S
C1469 N1465 1.343 . S
C1469 C1470 1.390 . S
C1470 H1448 0.930 . S
C1470 C1467 1.321 . S
C1470 C1469 1.390 . S
O1471 Gd1439 2.386 . S
O1471 C1483 1.265 . S
O1472 Gd1438 2.353 . S
O1472 C1483 1.242 . S
O1473 Gd1438 2.468 . S
O1473 C1491 1.263 . S
O1474 Gd1438 2.427 . S
O1474 C1491 1.252 . S
O1475 Gd1439 2.307 . S
O1475 C1484 1.261 . S
O1476 Gd1438 2.388 . S
O1476 C1484 1.252 . S
O1477 Gd1438 2.386 . S
O1477 C1495 1.265 . S
O1478 Gd1439 2.353 . S
O1478 C1495 1.242 . S
O1479 Gd1439 2.468 . S
O1479 C1503 1.263 . S
O1480 Gd1439 2.427 . S
O1480 C1503 1.252 . S
O1481 Gd1438 2.307 . S
O1481 C1496 1.261 . S
O1482 Gd1439 2.388 . S
O1482 C1496 1.252 . S
C1483 O1471 1.265 . S
C1483 O1472 1.242 . S
C1484 O1475 1.261 . S
C1484 O1476 1.252 . S
C1485 C1488 1.394 . S
C1485 C1490 1.370 . S
C1485 C1491 1.500 . S
C1486 C1489 1.383 . S
C1486 C1490 1.395 . S
C1487 C1488 1.396 . S
C1487 C1489 1.365 . S
C1487 H1504 0.929 . S
C1488 C1485 1.394 . S
C1488 C1487 1.396 . S
C1488 H1505 0.930 . S
C1489 C1486 1.383 . S
C1489 C1487 1.365 . S
C1489 H1506 0.931 . S
C1490 C1485 1.370 . S
C1490 C1486 1.395 . S
C1490 H1507 0.930 . S
C1491 Gd1438 2.805 . S
C1491 O1473 1.263 . S
C1491 O1474 1.252 . S
C1491 C1485 1.500 . S
C1492 H1454 0.930 . S
C1492 C1468 1.417 . S
C1492 C1493 1.329 . S
C1493 C1463 1.437 . S
C1493 H1464 0.929 . S
C1493 C1492 1.329 . S
H1494 C1467 0.931 . S
C1495 O1477 1.265 . S
C1495 O1478 1.242 . S
C1496 O1481 1.261 . S
C1496 O1482 1.252 . S
C1497 C1500 1.394 . S
C1497 C1502 1.370 . S
C1497 C1503 1.500 . S
C1498 C1501 1.383 . S
C1498 C1502 1.395 . S
C1499 C1500 1.396 . S
C1499 C1501 1.365 . S
C1499 H1508 0.929 . S
C1500 C1497 1.394 . S
C1500 C1499 1.396 . S
C1500 H1509 0.930 . S
C1501 C1498 1.383 . S
C1501 C1499 1.365 . S
C1501 H1510 0.931 . S
C1502 C1497 1.370 . S
C1502 C1498 1.395 . S
C1502 H1511 0.930 . S
C1503 Gd1439 2.805 . S
C1503 O1479 1.263 . S
C1503 O1480 1.252 . S
C1503 C1497 1.500 . S
H1504 C1487 0.929 . S
H1505 C1488 0.930 . S
H1506 C1489 0.931 . S
H1507 C1490 0.930 . S
H1508 C1499 0.929 . S
H1509 C1500 0.930 . S
H1510 C1501 0.931 . S
H1511 C1502 0.930 . S
C1512 C1514 1.422 . S
C1512 C1516 1.415 . S
C1512 N1518 1.369 . S
C1513 C1514 1.421 . S
C1513 C1515 1.417 . S
C1513 C1525 1.422 . S
C1514 C1512 1.422 . S
C1514 C1513 1.421 . S
C1514 N1524 1.359 . S
C1515 C1513 1.417 . S
C1515 C1517 1.329 . S
C1515 H1534 0.930 . S
C1516 C1512 1.415 . S
C1516 C1517 1.437 . S
C1516 C1520 1.413 . S
C1517 C1515 1.329 . S
C1517 C1516 1.437 . S
C1517 H1539 0.929 . S
N1518 C1512 1.369 . S
N1518 C1519 1.338 . S
N1518 Gd1523 2.622 . S
C1519 N1518 1.338 . S
C1519 C1521 1.378 . S
C1519 H1531 0.929 . S
C1520 C1516 1.413 . S
C1520 C1521 1.348 . S
C1520 H1536 0.931 . S
C1521 C1519 1.378 . S
C1521 C1520 1.348 . S
C1521 H1537 0.930 . S
Gd1522 N1542 2.622 . S
Gd1522 N1549 2.570 . S
Gd1522 O1556 2.353 . S
Gd1522 O1557 2.468 . S
Gd1522 O1558 2.427 . S
Gd1522 O1560 2.388 . S
Gd1522 O1561 2.386 . S
Gd1522 O1565 2.307 . S
Gd1522 C1575 2.805 . S
Gd1523 N1518 2.622 . S
Gd1523 N1524 2.570 . S
Gd1523 O1555 2.386 . S
Gd1523 O1559 2.307 . S
Gd1523 O1562 2.353 . S
Gd1523 O1563 2.468 . S
Gd1523 O1564 2.427 . S
Gd1523 O1566 2.388 . S
Gd1523 C1587 2.805 . S
N1524 C1514 1.359 . S
N1524 Gd1523 2.570 . S
N1524 C1526 1.343 . S
C1525 C1513 1.422 . S
C1525 C1527 1.321 . S
C1525 H1533 0.931 . S
C1526 N1524 1.343 . S
C1526 C1527 1.390 . S
C1526 H1528 0.931 . S
C1527 C1525 1.321 . S
C1527 C1526 1.390 . S
C1527 H1529 0.930 . S
H1528 C1526 0.931 . S
H1529 C1527 0.930 . S
H1530 C1553 0.931 . S
H1531 C1519 0.929 . S
H1532 C1554 0.930 . S
H1533 C1525 0.931 . S
H1534 C1515 0.930 . S
H1535 C1544 0.929 . S
H1536 C1520 0.931 . S
H1537 C1521 0.930 . S
H1538 C1576 0.930 . S
H1539 C1517 0.929 . S
H1540 C1545 0.931 . S
H1541 C1546 0.930 . S
N1542 Gd1522 2.622 . S
N1542 C1543 1.369 . S
N1542 C1544 1.338 . S
C1543 N1542 1.369 . S
C1543 C1547 1.415 . S
C1543 C1550 1.422 . S
C1544 H1535 0.929 . S
C1544 N1542 1.338 . S
C1544 C1546 1.378 . S
C1545 H1540 0.931 . S
C1545 C1546 1.348 . S
C1545 C1547 1.413 . S
C1546 H1541 0.930 . S
C1546 C1544 1.378 . S
C1546 C1545 1.348 . S
C1547 C1543 1.415 . S
C1547 C1545 1.413 . S
C1547 C1577 1.437 . S
H1548 C1577 0.929 . S
N1549 Gd1522 2.570 . S
N1549 C1550 1.359 . S
N1549 C1553 1.343 . S
C1550 C1543 1.422 . S
C1550 N1549 1.359 . S
C1550 C1552 1.421 . S
C1551 C1552 1.422 . S
C1551 C1554 1.321 . S
C1551 H1578 0.931 . S
C1552 C1550 1.421 . S
C1552 C1551 1.422 . S
C1552 C1576 1.417 . S
C1553 H1530 0.931 . S
C1553 N1549 1.343 . S
C1553 C1554 1.390 . S
C1554 H1532 0.930 . S
C1554 C1551 1.321 . S
C1554 C1553 1.390 . S
O1555 Gd1523 2.386 . S
O1555 C1567 1.265 . S
O1556 Gd1522 2.353 . S
O1556 C1567 1.242 . S
O1557 Gd1522 2.468 . S
O1557 C1575 1.263 . S
O1558 Gd1522 2.427 . S
O1558 C1575 1.252 . S
O1559 Gd1523 2.307 . S
O1559 C1568 1.261 . S
O1560 Gd1522 2.388 . S
O1560 C1568 1.252 . S
O1561 Gd1522 2.386 . S
O1561 C1579 1.265 . S
O1562 Gd1523 2.353 . S
O1562 C1579 1.242 . S
O1563 Gd1523 2.468 . S
O1563 C1587 1.263 . S
O1564 Gd1523 2.427 . S
O1564 C1587 1.252 . S
O1565 Gd1522 2.307 . S
O1565 C1580 1.261 . S
O1566 Gd1523 2.388 . S
O1566 C1580 1.252 . S
C1567 O1555 1.265 . S
C1567 O1556 1.242 . S
C1568 O1559 1.261 . S
C1568 O1560 1.252 . S
C1569 C1572 1.394 . S
C1569 C1574 1.370 . S
C1569 C1575 1.500 . S
C1570 C1573 1.383 . S
C1570 C1574 1.395 . S
C1571 C1572 1.396 . S
C1571 C1573 1.365 . S
C1571 H1588 0.929 . S
C1572 C1569 1.394 . S
C1572 C1571 1.396 . S
C1572 H1589 0.930 . S
C1573 C1570 1.383 . S
C1573 C1571 1.365 . S
C1573 H1590 0.931 . S
C1574 C1569 1.370 . S
C1574 C1570 1.395 . S
C1574 H1591 0.930 . S
C1575 Gd1522 2.805 . S
C1575 O1557 1.263 . S
C1575 O1558 1.252 . S
C1575 C1569 1.500 . S
C1576 H1538 0.930 . S
C1576 C1552 1.417 . S
C1576 C1577 1.329 . S
C1577 C1547 1.437 . S
C1577 H1548 0.929 . S
C1577 C1576 1.329 . S
H1578 C1551 0.931 . S
C1579 O1561 1.265 . S
C1579 O1562 1.242 . S
C1580 O1565 1.261 . S
C1580 O1566 1.252 . S
C1581 C1584 1.394 . S
C1581 C1586 1.370 . S
C1581 C1587 1.500 . S
C1582 C1585 1.383 . S
C1582 C1586 1.395 . S
C1583 C1584 1.396 . S
C1583 C1585 1.365 . S
C1583 H1592 0.929 . S
C1584 C1581 1.394 . S
C1584 C1583 1.396 . S
C1584 H1593 0.930 . S
C1585 C1582 1.383 . S
C1585 C1583 1.365 . S
C1585 H1594 0.931 . S
C1586 C1581 1.370 . S
C1586 C1582 1.395 . S
C1586 H1595 0.930 . S
C1587 Gd1523 2.805 . S
C1587 O1563 1.263 . S
C1587 O1564 1.252 . S
C1587 C1581 1.500 . S
H1588 C1571 0.929 . S
H1589 C1572 0.930 . S
H1590 C1573 0.931 . S
H1591 C1574 0.930 . S
H1592 C1583 0.929 . S
H1593 C1584 0.930 . S
H1594 C1585 0.931 . S
H1595 C1586 0.930 . S
C1596 C1598 1.422 . S
C1596 C1600 1.415 . S
C1596 N1602 1.369 . S
C1597 C1598 1.421 . S
C1597 C1599 1.417 . S
C1597 C1609 1.422 . S
C1598 C1596 1.422 . S
C1598 C1597 1.421 . S
C1598 N1608 1.359 . S
C1599 C1597 1.417 . S
C1599 C1601 1.329 . S
C1599 H1618 0.930 . S
C1600 C1596 1.415 . S
C1600 C1601 1.437 . S
C1600 C1604 1.413 1_554 S
C1601 C1599 1.329 . S
C1601 C1600 1.437 . S
C1601 H1623 0.929 . S
N1602 C1596 1.369 . S
N1602 C1603 1.338 1_554 S
N1602 Gd1607 2.622 . S
C1603 N1602 1.338 1_556 S
C1603 C1605 1.378 . S
C1603 H1615 0.929 . S
C1604 C1600 1.413 1_556 S
C1604 C1605 1.348 . S
C1604 H1620 0.931 . S
C1605 C1603 1.378 . S
C1605 C1604 1.348 . S
C1605 H1621 0.930 . S
Gd1606 N1626 2.622 . S
Gd1606 N1633 2.570 . S
Gd1606 O1640 2.353 1_655 S
Gd1606 O1641 2.468 . S
Gd1606 O1642 2.427 . S
Gd1606 O1644 2.388 1_655 S
Gd1606 O1645 2.386 1_655 S
Gd1606 O1649 2.307 1_655 S
Gd1606 C1659 2.805 . S
Gd1607 N1602 2.622 . S
Gd1607 N1608 2.570 . S
Gd1607 O1639 2.386 . S
Gd1607 O1643 2.307 . S
Gd1607 O1646 2.353 . S
Gd1607 O1647 2.468 . S
Gd1607 O1648 2.427 . S
Gd1607 O1650 2.388 . S
Gd1607 C1671 2.805 . S
N1608 C1598 1.359 . S
N1608 Gd1607 2.570 . S
N1608 C1610 1.343 . S
C1609 C1597 1.422 . S
C1609 C1611 1.321 . S
C1609 H1617 0.931 . S
C1610 N1608 1.343 . S
C1610 C1611 1.390 . S
C1610 H1612 0.931 . S
C1611 C1609 1.321 . S
C1611 C1610 1.390 . S
C1611 H1613 0.930 . S
H1612 C1610 0.931 . S
H1613 C1611 0.930 . S
H1614 C1637 0.931 . S
H1615 C1603 0.929 . S
H1616 C1638 0.930 . S
H1617 C1609 0.931 . S
H1618 C1599 0.930 . S
H1619 C1628 0.929 1_455 S
H1620 C1604 0.931 . S
H1621 C1605 0.930 . S
H1622 C1660 0.930 . S
H1623 C1601 0.929 . S
H1624 C1629 0.931 . S
H1625 C1630 0.930 . S
N1626 Gd1606 2.622 . S
N1626 C1627 1.369 . S
N1626 C1628 1.338 . S
C1627 N1626 1.369 . S
C1627 C1631 1.415 . S
C1627 C1634 1.422 . S
C1628 H1619 0.929 1_655 S
C1628 N1626 1.338 . S
C1628 C1630 1.378 . S
C1629 H1624 0.931 . S
C1629 C1630 1.348 . S
C1629 C1631 1.413 . S
C1630 H1625 0.930 . S
C1630 C1628 1.378 . S
C1630 C1629 1.348 . S
C1631 C1627 1.415 . S
C1631 C1629 1.413 . S
C1631 C1661 1.437 . S
H1632 C1661 0.929 . S
N1633 Gd1606 2.570 . S
N1633 C1634 1.359 . S
N1633 C1637 1.343 . S
C1634 C1627 1.422 . S
C1634 N1633 1.359 . S
C1634 C1636 1.421 . S
C1635 C1636 1.422 . S
C1635 C1638 1.321 . S
C1635 H1662 0.931 . S
C1636 C1634 1.421 . S
C1636 C1635 1.422 . S
C1636 C1660 1.417 . S
C1637 H1614 0.931 . S
C1637 N1633 1.343 . S
C1637 C1638 1.390 . S
C1638 H1616 0.930 . S
C1638 C1635 1.321 . S
C1638 C1637 1.390 . S
O1639 Gd1607 2.386 . S
O1639 C1651 1.265 . S
O1640 Gd1606 2.353 1_455 S
O1640 C1651 1.242 . S
O1641 Gd1606 2.468 . S
O1641 C1659 1.263 . S
O1642 Gd1606 2.427 . S
O1642 C1659 1.252 . S
O1643 Gd1607 2.307 . S
O1643 C1652 1.261 . S
O1644 Gd1606 2.388 1_455 S
O1644 C1652 1.252 . S
O1645 Gd1606 2.386 1_455 S
O1645 C1663 1.265 . S
O1646 Gd1607 2.353 . S
O1646 C1663 1.242 . S
O1647 Gd1607 2.468 . S
O1647 C1671 1.263 . S
O1648 Gd1607 2.427 . S
O1648 C1671 1.252 . S
O1649 Gd1606 2.307 1_455 S
O1649 C1664 1.261 . S
O1650 Gd1607 2.388 . S
O1650 C1664 1.252 . S
C1651 O1639 1.265 . S
C1651 O1640 1.242 . S
C1652 O1643 1.261 . S
C1652 O1644 1.252 . S
C1653 C1656 1.394 . S
C1653 C1658 1.370 . S
C1653 C1659 1.500 . S
C1654 C1657 1.383 . S
C1654 C1658 1.395 . S
C1655 C1656 1.396 . S
C1655 C1657 1.365 . S
C1655 H1672 0.929 . S
C1656 C1653 1.394 . S
C1656 C1655 1.396 . S
C1656 H1673 0.930 . S
C1657 C1654 1.383 . S
C1657 C1655 1.365 . S
C1657 H1674 0.931 . S
C1658 C1653 1.370 . S
C1658 C1654 1.395 . S
C1658 H1675 0.930 . S
C1659 Gd1606 2.805 . S
C1659 O1641 1.263 . S
C1659 O1642 1.252 . S
C1659 C1653 1.500 . S
C1660 H1622 0.930 . S
C1660 C1636 1.417 . S
C1660 C1661 1.329 . S
C1661 C1631 1.437 . S
C1661 H1632 0.929 . S
C1661 C1660 1.329 . S
H1662 C1635 0.931 . S
C1663 O1645 1.265 . S
C1663 O1646 1.242 . S
C1664 O1649 1.261 . S
C1664 O1650 1.252 . S
C1665 C1668 1.394 . S
C1665 C1670 1.370 . S
C1665 C1671 1.500 . S
C1666 C1669 1.383 . S
C1666 C1670 1.395 . S
C1667 C1668 1.396 . S
C1667 C1669 1.365 . S
C1667 H1676 0.929 1_554 S
C1668 C1665 1.394 . S
C1668 C1667 1.396 . S
C1668 H1677 0.930 . S
C1669 C1666 1.383 . S
C1669 C1667 1.365 . S
C1669 H1678 0.931 . S
C1670 C1665 1.370 . S
C1670 C1666 1.395 . S
C1670 H1679 0.930 . S
C1671 Gd1607 2.805 . S
C1671 O1647 1.263 . S
C1671 O1648 1.252 . S
C1671 C1665 1.500 . S
H1672 C1655 0.929 . S
H1673 C1656 0.930 . S
H1674 C1657 0.931 . S
H1675 C1658 0.930 . S
H1676 C1667 0.929 1_556 S
H1677 C1668 0.930 . S
H1678 C1669 0.931 . S
H1679 C1670 0.930 . S
H1680 C1698 0.951 . S
H1681 C1700 0.951 . S
H1682 C1702 0.950 . S
H1683 C1703 0.950 . S
H1684 C1705 0.950 . S
H1685 C1708 0.961 . S
H1686 C1709 0.950 . S
H1687 C1711 0.950 . S
H1688 C1712 0.950 . S
H1689 C1713 0.951 . S
H1690 C1715 0.951 . S
H1691 C1717 0.963 1_655 S
H1692 C1718 0.950 . S
H1693 C1720 0.950 . S
H1694 C1723 0.950 . S
H1695 C1724 0.950 . S
H1696 C1726 0.950 . S
H1697 C1727 0.950 . S
C1698 H1680 0.951 . S
C1698 C1699 1.366 . S
C1698 C1700 1.388 . S
C1699 C1698 1.366 . S
C1699 C1703 1.385 1_655 S
C1700 H1681 0.951 . S
C1700 C1698 1.388 . S
C1700 C1701 1.366 1_655 S
C1701 C1700 1.366 1_455 S
C1701 C1702 1.414 . S
C1701 C1704 1.499 . S
C1702 H1682 0.950 . S
C1702 C1701 1.414 . S
C1702 C1703 1.374 . S
C1703 H1683 0.950 . S
C1703 C1699 1.385 1_455 S
C1703 C1702 1.374 . S
C1704 C1701 1.499 . S
C1704 C1705 1.373 . S
C1704 C1706 1.389 1_455 S
C1705 H1684 0.950 . S
C1705 C1704 1.373 . S
C1705 C1721 1.377 . S
C1706 C1704 1.389 1_655 S
C1706 C1707 1.524 . S
C1706 C1720 1.377 . S
C1707 C1706 1.524 . S
C1707 C1708 1.397 . S
C1707 C1712 1.363 . S
C1708 H1685 0.961 . S
C1708 C1707 1.397 . S
C1708 C1709 1.334 . S
C1709 H1686 0.950 . S
C1709 C1708 1.334 . S
C1709 C1710 1.287 . S
C1710 C1709 1.287 . S
C1710 C1711 1.524 . S
C1710 H1729 0.913 . S
C1711 H1687 0.950 . S
C1711 C1710 1.524 . S
C1711 C1712 1.415 . S
C1712 H1688 0.950 . S
C1712 C1707 1.363 . S
C1712 C1711 1.415 . S
C1713 H1689 0.951 . S
C1713 C1714 1.366 . S
C1713 C1715 1.388 . S
C1714 C1713 1.366 . S
C1714 C1718 1.385 . S
C1715 H1690 0.951 . S
C1715 C1713 1.388 . S
C1715 C1716 1.366 . S
C1716 C1715 1.366 . S
C1716 C1717 1.410 1_554 S
C1716 C1719 1.468 1_554 S
C1717 H1691 0.963 1_455 S
C1717 C1716 1.410 1_556 S
C1717 C1718 1.366 1_556 S
C1718 H1692 0.950 . S
C1718 C1714 1.385 . S
C1718 C1717 1.366 1_554 S
C1719 C1716 1.468 1_556 S
C1719 C1720 1.386 1_455 S
C1719 C1721 1.406 . S
C1720 H1693 0.950 . S
C1720 C1706 1.377 . S
C1720 C1719 1.386 1_655 S
C1721 C1705 1.377 . S
C1721 C1719 1.406 . S
C1721 C1722 1.524 1_556 S
C1722 C1721 1.524 1_554 S
C1722 C1723 1.397 1_554 S
C1722 C1727 1.363 . S
C1723 H1694 0.950 . S
C1723 C1722 1.397 1_556 S
C1723 C1724 1.334 . S
C1724 H1695 0.950 . S
C1724 C1723 1.334 . S
C1724 C1725 1.287 1_556 S
C1725 C1724 1.287 1_554 S
C1725 C1726 1.524 . S
C1725 H1728 0.999 . S
C1726 H1696 0.950 . S
C1726 C1725 1.524 . S
C1726 C1727 1.415 . S
C1727 H1697 0.950 . S
C1727 C1722 1.363 . S
C1727 C1726 1.415 . S
H1728 C1725 0.999 . S
H1729 C1710 0.913 . S
H1730 C1748 0.951 . S
H1731 C1750 0.951 . S
H1732 C1752 0.950 . S
H1733 C1753 0.950 . S
H1734 C1755 0.950 . S
H1735 C1758 0.950 . S
H1736 C1759 0.950 . S
H1737 C1761 0.950 . S
H1738 C1762 0.950 . S
H1739 C1763 0.951 . S
H1740 C1765 0.951 . S
H1741 C1767 0.950 . S
H1742 C1768 0.950 . S
H1743 C1770 0.950 . S
H1744 C1773 0.950 . S
H1745 C1774 0.950 . S
H1746 C1776 0.950 . S
H1747 C1777 0.950 . S
C1748 H1730 0.951 . S
C1748 C1749 1.366 . S
C1748 C1750 1.388 . S
C1749 C1748 1.366 . S
C1749 C1753 1.385 . S
C1750 H1731 0.951 . S
C1750 C1748 1.388 . S
C1750 C1751 1.366 . S
C1751 C1750 1.366 . S
C1751 C1752 1.414 . S
C1751 C1754 1.499 . S
C1752 H1732 0.950 . S
C1752 C1751 1.414 . S
C1752 C1753 1.374 . S
C1753 H1733 0.950 . S
C1753 C1749 1.385 . S
C1753 C1752 1.374 . S
C1754 C1751 1.499 . S
C1754 C1755 1.373 . S
C1754 C1756 1.389 . S
C1755 H1734 0.950 . S
C1755 C1754 1.373 . S
C1755 C1771 1.377 . S
C1756 C1754 1.389 . S
C1756 C1757 1.524 . S
C1756 C1770 1.377 . S
C1757 C1756 1.524 . S
C1757 C1758 1.397 . S
C1757 C1762 1.363 . S
C1758 H1735 0.950 . S
C1758 C1757 1.397 . S
C1758 C1759 1.334 . S
C1759 H1736 0.950 . S
C1759 C1758 1.334 . S
C1759 C1760 1.287 . S
C1760 C1759 1.287 . S
C1760 C1761 1.524 . S
C1760 H1779 0.913 . S
C1761 H1737 0.950 . S
C1761 C1760 1.524 . S
C1761 C1762 1.415 . S
C1762 H1738 0.950 . S
C1762 C1757 1.363 . S
C1762 C1761 1.415 . S
C1763 H1739 0.951 . S
C1763 C1764 1.366 . S
C1763 C1765 1.388 . S
C1764 C1763 1.366 . S
C1764 C1768 1.385 . S
C1765 H1740 0.951 . S
C1765 C1763 1.388 . S
C1765 C1766 1.366 . S
C1766 C1765 1.366 . S
C1766 C1767 1.414 . S
C1766 C1769 1.499 . S
C1767 H1741 0.950 . S
C1767 C1766 1.414 . S
C1767 C1768 1.374 . S
C1768 H1742 0.950 . S
C1768 C1764 1.385 . S
C1768 C1767 1.374 . S
C1769 C1766 1.499 . S
C1769 C1770 1.373 . S
C1769 C1771 1.389 . S
C1770 H1743 0.950 . S
C1770 C1756 1.377 . S
C1770 C1769 1.373 . S
C1771 C1755 1.377 . S
C1771 C1769 1.389 . S
C1771 C1772 1.524 . S
C1772 C1771 1.524 . S
C1772 C1773 1.397 . S
C1772 C1777 1.363 . S
C1773 H1744 0.950 . S
C1773 C1772 1.397 . S
C1773 C1774 1.334 . S
C1774 H1745 0.950 . S
C1774 C1773 1.334 . S
C1774 C1775 1.287 . S
C1775 C1774 1.287 . S
C1775 C1776 1.524 . S
C1775 H1778 0.999 . S
C1776 H1746 0.950 . S
C1776 C1775 1.524 . S
C1776 C1777 1.415 . S
C1777 H1747 0.950 . S
C1777 C1772 1.363 . S
C1777 C1776 1.415 . S
H1778 C1775 0.999 . S
H1779 C1760 0.913 . S
H1780 C1798 0.951 . S
H1781 C1800 0.951 . S
H1782 C1802 0.950 . S
H1783 C1803 0.950 . S
H1784 C1805 0.950 . S
H1785 C1808 0.950 . S
H1786 C1809 0.950 . S
H1787 C1811 0.950 . S
H1788 C1812 0.950 . S
H1789 C1813 0.951 . S
H1790 C1815 0.951 . S
H1791 C1817 0.950 . S
H1792 C1818 0.950 . S
H1793 C1820 0.950 . S
H1794 C1823 0.950 . S
H1795 C1824 0.950 . S
H1796 C1826 0.950 . S
H1797 C1827 0.950 . S
C1798 H1780 0.951 . S
C1798 C1799 1.366 . S
C1798 C1800 1.388 . S
C1799 C1798 1.366 . S
C1799 C1803 1.385 . S
C1800 H1781 0.951 . S
C1800 C1798 1.388 . S
C1800 C1801 1.366 . S
C1801 C1800 1.366 . S
C1801 C1802 1.414 . S
C1801 C1804 1.499 . S
C1802 H1782 0.950 . S
C1802 C1801 1.414 . S
C1802 C1803 1.374 . S
C1803 H1783 0.950 . S
C1803 C1799 1.385 . S
C1803 C1802 1.374 . S
C1804 C1801 1.499 . S
C1804 C1805 1.373 . S
C1804 C1806 1.389 . S
C1805 H1784 0.950 . S
C1805 C1804 1.373 . S
C1805 C1821 1.377 . S
C1806 C1804 1.389 . S
C1806 C1807 1.524 . S
C1806 C1820 1.377 . S
C1807 C1806 1.524 . S
C1807 C1808 1.397 . S
C1807 C1812 1.363 . S
C1808 H1785 0.950 . S
C1808 C1807 1.397 . S
C1808 C1809 1.334 . S
C1809 H1786 0.950 . S
C1809 C1808 1.334 . S
C1809 C1810 1.287 . S
C1810 C1809 1.287 . S
C1810 C1811 1.524 . S
C1810 H1829 0.913 . S
C1811 H1787 0.950 . S
C1811 C1810 1.524 . S
C1811 C1812 1.415 . S
C1812 H1788 0.950 . S
C1812 C1807 1.363 . S
C1812 C1811 1.415 . S
C1813 H1789 0.951 . S
C1813 C1814 1.366 . S
C1813 C1815 1.388 . S
C1814 C1813 1.366 . S
C1814 C1818 1.385 . S
C1815 H1790 0.951 . S
C1815 C1813 1.388 . S
C1815 C1816 1.366 . S
C1816 C1815 1.366 . S
C1816 C1817 1.414 . S
C1816 C1819 1.499 . S
C1817 H1791 0.950 . S
C1817 C1816 1.414 . S
C1817 C1818 1.374 . S
C1818 H1792 0.950 . S
C1818 C1814 1.385 . S
C1818 C1817 1.374 . S
C1819 C1816 1.499 . S
C1819 C1820 1.373 . S
C1819 C1821 1.389 . S
C1820 H1793 0.950 . S
C1820 C1806 1.377 . S
C1820 C1819 1.373 . S
C1821 C1805 1.377 . S
C1821 C1819 1.389 . S
C1821 C1822 1.524 . S
C1822 C1821 1.524 . S
C1822 C1823 1.397 . S
C1822 C1827 1.363 . S
C1823 H1794 0.950 . S
C1823 C1822 1.397 . S
C1823 C1824 1.334 . S
C1824 H1795 0.950 . S
C1824 C1823 1.334 . S
C1824 C1825 1.287 . S
C1825 C1824 1.287 . S
C1825 C1826 1.524 . S
C1825 H1828 0.999 . S
C1826 H1796 0.950 . S
C1826 C1825 1.524 . S
C1826 C1827 1.415 . S
C1827 H1797 0.950 . S
C1827 C1822 1.363 . S
C1827 C1826 1.415 . S
H1828 C1825 0.999 . S
H1829 C1810 0.913 . S
H1830 C1848 0.951 . S
H1831 C1850 0.951 . S
H1832 C1852 0.950 . S
H1833 C1853 0.950 . S
H1834 C1855 0.950 . S
H1835 C1858 0.950 . S
H1836 C1859 0.950 . S
H1837 C1861 0.950 . S
H1838 C1862 0.950 . S
H1839 C1863 0.951 . S
H1840 C1865 0.951 . S
H1841 C1867 0.950 . S
H1842 C1868 0.950 . S
H1843 C1870 0.950 . S
H1844 C1873 0.950 . S
H1845 C1874 0.950 . S
H1846 C1876 0.950 . S
H1847 C1877 0.950 . S
C1848 H1830 0.951 . S
C1848 C1849 1.366 . S
C1848 C1850 1.388 . S
C1849 C1848 1.366 . S
C1849 C1853 1.385 . S
C1850 H1831 0.951 . S
C1850 C1848 1.388 . S
C1850 C1851 1.366 . S
C1851 C1850 1.366 . S
C1851 C1852 1.414 . S
C1851 C1854 1.499 . S
C1852 H1832 0.950 . S
C1852 C1851 1.414 . S
C1852 C1853 1.374 . S
C1853 H1833 0.950 . S
C1853 C1849 1.385 . S
C1853 C1852 1.374 . S
C1854 C1851 1.499 . S
C1854 C1855 1.373 . S
C1854 C1856 1.389 . S
C1855 H1834 0.950 . S
C1855 C1854 1.373 . S
C1855 C1871 1.377 . S
C1856 C1854 1.389 . S
C1856 C1857 1.524 . S
C1856 C1870 1.377 . S
C1857 C1856 1.524 . S
C1857 C1858 1.397 . S
C1857 C1862 1.363 . S
C1858 H1835 0.950 . S
C1858 C1857 1.397 . S
C1858 C1859 1.334 . S
C1859 H1836 0.950 . S
C1859 C1858 1.334 . S
C1859 C1860 1.287 . S
C1860 C1859 1.287 . S
C1860 C1861 1.524 . S
C1860 H1879 0.913 . S
C1861 H1837 0.950 . S
C1861 C1860 1.524 . S
C1861 C1862 1.415 . S
C1862 H1838 0.950 . S
C1862 C1857 1.363 . S
C1862 C1861 1.415 . S
C1863 H1839 0.951 . S
C1863 C1864 1.366 . S
C1863 C1865 1.388 . S
C1864 C1863 1.366 . S
C1864 C1868 1.385 . S
C1865 H1840 0.951 . S
C1865 C1863 1.388 . S
C1865 C1866 1.366 . S
C1866 C1865 1.366 . S
C1866 C1867 1.414 . S
C1866 C1869 1.499 . S
C1867 H1841 0.950 . S
C1867 C1866 1.414 . S
C1867 C1868 1.374 . S
C1868 H1842 0.950 . S
C1868 C1864 1.385 . S
C1868 C1867 1.374 . S
C1869 C1866 1.499 . S
C1869 C1870 1.373 . S
C1869 C1871 1.389 . S
C1870 H1843 0.950 . S
C1870 C1856 1.377 . S
C1870 C1869 1.373 . S
C1871 C1855 1.377 . S
C1871 C1869 1.389 . S
C1871 C1872 1.524 . S
C1872 C1871 1.524 . S
C1872 C1873 1.397 . S
C1872 C1877 1.363 . S
C1873 H1844 0.950 . S
C1873 C1872 1.397 . S
C1873 C1874 1.334 . S
C1874 H1845 0.950 . S
C1874 C1873 1.334 . S
C1874 C1875 1.287 . S
C1875 C1874 1.287 . S
C1875 C1876 1.524 . S
C1875 H1878 0.999 . S
C1876 H1846 0.950 . S
C1876 C1875 1.524 . S
C1876 C1877 1.415 . S
C1877 H1847 0.950 . S
C1877 C1872 1.363 . S
C1877 C1876 1.415 . S
H1878 C1875 0.999 . S
H1879 C1860 0.913 . S
H1880 C1898 0.951 . S
H1881 C1900 0.951 . S
H1882 C1902 0.950 1_655 S
H1883 C1903 0.950 1_655 S
H1884 C1905 0.950 . S
H1885 C1908 0.950 . S
H1886 C1909 0.950 . S
H1887 C1911 0.950 . S
H1888 C1912 0.950 . S
H1889 C1913 0.951 1_655 S
H1890 C1915 0.951 1_655 S
H1891 C1917 0.950 . S
H1892 C1918 0.950 . S
H1893 C1920 0.950 . S
H1894 C1923 0.950 . S
H1895 C1924 0.950 . S
H1896 C1926 0.950 . S
H1897 C1927 0.950 . S
C1898 H1880 0.951 . S
C1898 C1899 1.366 . S
C1898 C1900 1.388 . S
C1899 C1898 1.366 . S
C1899 C1903 1.385 . S
C1900 H1881 0.951 . S
C1900 C1898 1.388 . S
C1900 C1901 1.366 . S
C1901 C1900 1.366 . S
C1901 C1902 1.414 . S
C1901 C1904 1.499 . S
C1902 H1882 0.950 1_455 S
C1902 C1901 1.414 . S
C1902 C1903 1.374 . S
C1903 H1883 0.950 1_455 S
C1903 C1899 1.385 . S
C1903 C1902 1.374 . S
C1904 C1901 1.499 . S
C1904 C1905 1.373 . S
C1904 C1906 1.389 . S
C1905 H1884 0.950 . S
C1905 C1904 1.373 . S
C1905 C1921 1.377 . S
C1906 C1904 1.389 . S
C1906 C1907 1.524 . S
C1906 C1920 1.377 . S
C1907 C1906 1.524 . S
C1907 C1908 1.397 . S
C1907 C1912 1.363 . S
C1908 H1885 0.950 . S
C1908 C1907 1.397 . S
C1908 C1909 1.334 . S
C1909 H1886 0.950 . S
C1909 C1908 1.334 . S
C1909 C1910 1.287 . S
C1910 C1909 1.287 . S
C1910 C1911 1.524 . S
C1910 H1929 0.913 . S
C1911 H1887 0.950 . S
C1911 C1910 1.524 . S
C1911 C1912 1.415 . S
C1912 H1888 0.950 . S
C1912 C1907 1.363 . S
C1912 C1911 1.415 . S
C1913 H1889 0.951 1_455 S
C1913 C1914 1.366 . S
C1913 C1915 1.388 . S
C1914 C1913 1.366 . S
C1914 C1918 1.385 . S
C1915 H1890 0.951 1_455 S
C1915 C1913 1.388 . S
C1915 C1916 1.366 . S
C1916 C1915 1.366 . S
C1916 C1917 1.414 . S
C1916 C1919 1.499 . S
C1917 H1891 0.950 . S
C1917 C1916 1.414 . S
C1917 C1918 1.374 . S
C1918 H1892 0.950 . S
C1918 C1914 1.385 . S
C1918 C1917 1.374 . S
C1919 C1916 1.499 . S
C1919 C1920 1.373 . S
C1919 C1921 1.389 . S
C1920 H1893 0.950 . S
C1920 C1906 1.377 . S
C1920 C1919 1.373 . S
C1921 C1905 1.377 . S
C1921 C1919 1.389 . S
C1921 C1922 1.524 . S
C1922 C1921 1.524 . S
C1922 C1923 1.397 . S
C1922 C1927 1.363 1_455 S
C1923 H1894 0.950 . S
C1923 C1922 1.397 . S
C1923 C1924 1.334 . S
C1924 H1895 0.950 . S
C1924 C1923 1.334 . S
C1924 C1925 1.287 1_455 S
C1925 C1924 1.287 1_655 S
C1925 C1926 1.524 . S
C1925 H1928 0.999 . S
C1926 H1896 0.950 . S
C1926 C1925 1.524 . S
C1926 C1927 1.415 . S
C1927 H1897 0.950 . S
C1927 C1922 1.363 1_655 S
C1927 C1926 1.415 . S
H1928 C1925 0.999 . S
H1929 C1910 0.913 . S
H1930 C1948 0.951 . S
H1931 C1950 0.951 . S
H1932 C1952 0.950 . S
H1933 C1953 0.950 . S
H1934 C1955 0.950 . S
H1935 C1958 0.950 . S
H1936 C1959 0.950 . S
H1937 C1961 0.950 . S
H1938 C1962 0.950 . S
H1939 C1963 0.951 . S
H1940 C1965 0.951 . S
H1941 C1967 0.950 . S
H1942 C1968 0.950 . S
H1943 C1970 0.950 . S
H1944 C1973 0.950 . S
H1945 C1974 0.950 . S
H1946 C1976 0.950 . S
H1947 C1977 0.950 . S
C1948 H1930 0.951 . S
C1948 C1949 1.366 . S
C1948 C1950 1.388 . S
C1949 C1948 1.366 . S
C1949 C1953 1.385 . S
C1950 H1931 0.951 . S
C1950 C1948 1.388 . S
C1950 C1951 1.366 . S
C1951 C1950 1.366 . S
C1951 C1952 1.414 . S
C1951 C1954 1.499 . S
C1952 H1932 0.950 . S
C1952 C1951 1.414 . S
C1952 C1953 1.374 . S
C1953 H1933 0.950 . S
C1953 C1949 1.385 . S
C1953 C1952 1.374 . S
C1954 C1951 1.499 . S
C1954 C1955 1.373 . S
C1954 C1956 1.389 . S
C1955 H1934 0.950 . S
C1955 C1954 1.373 . S
C1955 C1971 1.377 . S
C1956 C1954 1.389 . S
C1956 C1957 1.524 . S
C1956 C1970 1.377 . S
C1957 C1956 1.524 . S
C1957 C1958 1.397 . S
C1957 C1962 1.363 . S
C1958 H1935 0.950 . S
C1958 C1957 1.397 . S
C1958 C1959 1.334 . S
C1959 H1936 0.950 . S
C1959 C1958 1.334 . S
C1959 C1960 1.287 . S
C1960 C1959 1.287 . S
C1960 C1961 1.524 . S
C1960 H1979 0.913 . S
C1961 H1937 0.950 . S
C1961 C1960 1.524 . S
C1961 C1962 1.415 . S
C1962 H1938 0.950 . S
C1962 C1957 1.363 . S
C1962 C1961 1.415 . S
C1963 H1939 0.951 . S
C1963 C1964 1.366 . S
C1963 C1965 1.388 . S
C1964 C1963 1.366 . S
C1964 C1968 1.385 . S
C1965 H1940 0.951 . S
C1965 C1963 1.388 . S
C1965 C1966 1.366 . S
C1966 C1965 1.366 . S
C1966 C1967 1.414 . S
C1966 C1969 1.499 . S
C1967 H1941 0.950 . S
C1967 C1966 1.414 . S
C1967 C1968 1.374 . S
C1968 H1942 0.950 . S
C1968 C1964 1.385 . S
C1968 C1967 1.374 . S
C1969 C1966 1.499 . S
C1969 C1970 1.373 . S
C1969 C1971 1.389 . S
C1970 H1943 0.950 . S
C1970 C1956 1.377 . S
C1970 C1969 1.373 . S
C1971 C1955 1.377 . S
C1971 C1969 1.389 . S
C1971 C1972 1.524 . S
C1972 C1971 1.524 . S
C1972 C1973 1.397 . S
C1972 C1977 1.363 . S
C1973 H1944 0.950 . S
C1973 C1972 1.397 . S
C1973 C1974 1.334 . S
C1974 H1945 0.950 . S
C1974 C1973 1.334 . S
C1974 C1975 1.287 . S
C1975 C1974 1.287 . S
C1975 C1976 1.524 . S
C1975 H1978 0.999 . S
C1976 H1946 0.950 . S
C1976 C1975 1.524 . S
C1976 C1977 1.415 . S
C1977 H1947 0.950 . S
C1977 C1972 1.363 . S
C1977 C1976 1.415 . S
H1978 C1975 0.999 . S
H1979 C1960 0.913 . S
H1980 C1998 0.951 . S
H1981 C2000 0.951 . S
H1982 C2002 0.950 . S
H1983 C2003 0.950 . S
H1984 C2005 0.950 . S
H1985 C2008 0.950 . S
H1986 C2009 0.950 . S
H1987 C2011 0.950 . S
H1988 C2012 0.950 . S
H1989 C2013 0.951 . S
H1990 C2015 0.951 . S
H1991 C2017 0.950 . S
H1992 C2018 0.950 . S
H1993 C2020 0.950 . S
H1994 C2023 0.950 . S
H1995 C2024 0.950 . S
H1996 C2026 0.950 . S
H1997 C2027 0.950 . S
C1998 H1980 0.951 . S
C1998 C1999 1.366 . S
C1998 C2000 1.388 . S
C1999 C1998 1.366 . S
C1999 C2003 1.385 . S
C2000 H1981 0.951 . S
C2000 C1998 1.388 . S
C2000 C2001 1.366 . S
C2001 C2000 1.366 . S
C2001 C2002 1.414 . S
C2001 C2004 1.499 . S
C2002 H1982 0.950 . S
C2002 C2001 1.414 . S
C2002 C2003 1.374 . S
C2003 H1983 0.950 . S
C2003 C1999 1.385 . S
C2003 C2002 1.374 . S
C2004 C2001 1.499 . S
C2004 C2005 1.373 . S
C2004 C2006 1.389 . S
C2005 H1984 0.950 . S
C2005 C2004 1.373 . S
C2005 C2021 1.377 . S
C2006 C2004 1.389 . S
C2006 C2007 1.524 . S
C2006 C2020 1.377 . S
C2007 C2006 1.524 . S
C2007 C2008 1.397 . S
C2007 C2012 1.363 . S
C2008 H1985 0.950 . S
C2008 C2007 1.397 . S
C2008 C2009 1.334 . S
C2009 H1986 0.950 . S
C2009 C2008 1.334 . S
C2009 C2010 1.287 . S
C2010 C2009 1.287 . S
C2010 C2011 1.524 . S
C2010 H2029 0.913 . S
C2011 H1987 0.950 . S
C2011 C2010 1.524 . S
C2011 C2012 1.415 . S
C2012 H1988 0.950 . S
C2012 C2007 1.363 . S
C2012 C2011 1.415 . S
C2013 H1989 0.951 . S
C2013 C2014 1.366 . S
C2013 C2015 1.388 . S
C2014 C2013 1.366 . S
C2014 C2018 1.385 . S
C2015 H1990 0.951 . S
C2015 C2013 1.388 . S
C2015 C2016 1.366 . S
C2016 C2015 1.366 . S
C2016 C2017 1.414 . S
C2016 C2019 1.499 . S
C2017 H1991 0.950 . S
C2017 C2016 1.414 . S
C2017 C2018 1.374 . S
C2018 H1992 0.950 . S
C2018 C2014 1.385 . S
C2018 C2017 1.374 . S
C2019 C2016 1.499 . S
C2019 C2020 1.373 . S
C2019 C2021 1.389 . S
C2020 H1993 0.950 . S
C2020 C2006 1.377 . S
C2020 C2019 1.373 . S
C2021 C2005 1.377 . S
C2021 C2019 1.389 . S
C2021 C2022 1.524 . S
C2022 C2021 1.524 . S
C2022 C2023 1.397 . S
C2022 C2027 1.363 . S
C2023 H1994 0.950 . S
C2023 C2022 1.397 . S
C2023 C2024 1.334 . S
C2024 H1995 0.950 . S
C2024 C2023 1.334 . S
C2024 C2025 1.287 . S
C2025 C2024 1.287 . S
C2025 C2026 1.524 . S
C2025 H2028 0.999 . S
C2026 H1996 0.950 . S
C2026 C2025 1.524 . S
C2026 C2027 1.415 . S
C2027 H1997 0.950 . S
C2027 C2022 1.363 . S
C2027 C2026 1.415 . S
H2028 C2025 0.999 . S
H2029 C2010 0.913 . S
H2030 C2048 0.951 . S
H2031 C2050 0.951 . S
H2032 C2052 0.950 . S
H2033 C2053 0.950 . S
H2034 C2055 0.950 . S
H2035 C2058 0.950 . S
H2036 C2059 0.950 . S
H2037 C2061 0.950 . S
H2038 C2062 0.950 . S
H2039 C2063 0.951 . S
H2040 C2065 0.951 . S
H2041 C2067 0.950 . S
H2042 C2068 0.950 . S
H2043 C2070 0.950 . S
H2044 C2073 0.950 . S
H2045 C2074 0.950 . S
H2046 C2076 0.950 . S
H2047 C2077 0.950 . S
C2048 H2030 0.951 . S
C2048 C2049 1.366 . S
C2048 C2050 1.388 . S
C2049 C2048 1.366 . S
C2049 C2053 1.385 . S
C2050 H2031 0.951 . S
C2050 C2048 1.388 . S
C2050 C2051 1.366 . S
C2051 C2050 1.366 . S
C2051 C2052 1.414 . S
C2051 C2054 1.499 . S
C2052 H2032 0.950 . S
C2052 C2051 1.414 . S
C2052 C2053 1.374 . S
C2053 H2033 0.950 . S
C2053 C2049 1.385 . S
C2053 C2052 1.374 . S
C2054 C2051 1.499 . S
C2054 C2055 1.373 . S
C2054 C2056 1.389 . S
C2055 H2034 0.950 . S
C2055 C2054 1.373 . S
C2055 C2071 1.377 . S
C2056 C2054 1.389 . S
C2056 C2057 1.524 . S
C2056 C2070 1.377 . S
C2057 C2056 1.524 . S
C2057 C2058 1.397 . S
C2057 C2062 1.363 . S
C2058 H2035 0.950 . S
C2058 C2057 1.397 . S
C2058 C2059 1.334 . S
C2059 H2036 0.950 . S
C2059 C2058 1.334 . S
C2059 C2060 1.287 . S
C2060 C2059 1.287 . S
C2060 C2061 1.524 . S
C2060 H2079 0.913 . S
C2061 H2037 0.950 . S
C2061 C2060 1.524 . S
C2061 C2062 1.415 . S
C2062 H2038 0.950 . S
C2062 C2057 1.363 . S
C2062 C2061 1.415 . S
C2063 H2039 0.951 . S
C2063 C2064 1.366 . S
C2063 C2065 1.388 . S
C2064 C2063 1.366 . S
C2064 C2068 1.385 . S
C2065 H2040 0.951 . S
C2065 C2063 1.388 . S
C2065 C2066 1.366 . S
C2066 C2065 1.366 . S
C2066 C2067 1.414 . S
C2066 C2069 1.499 . S
C2067 H2041 0.950 . S
C2067 C2066 1.414 . S
C2067 C2068 1.374 . S
C2068 H2042 0.950 . S
C2068 C2064 1.385 . S
C2068 C2067 1.374 . S
C2069 C2066 1.499 . S
C2069 C2070 1.373 . S
C2069 C2071 1.389 . S
C2070 H2043 0.950 . S
C2070 C2056 1.377 . S
C2070 C2069 1.373 . S
C2071 C2055 1.377 . S
C2071 C2069 1.389 . S
C2071 C2072 1.524 . S
C2072 C2071 1.524 . S
C2072 C2073 1.397 . S
C2072 C2077 1.363 . S
C2073 H2044 0.950 . S
C2073 C2072 1.397 . S
C2073 C2074 1.334 . S
C2074 H2045 0.950 . S
C2074 C2073 1.334 . S
C2074 C2075 1.287 . S
C2075 C2074 1.287 . S
C2075 C2076 1.524 . S
C2075 H2078 0.999 . S
C2076 H2046 0.950 . S
C2076 C2075 1.524 . S
C2076 C2077 1.415 . S
C2077 H2047 0.950 . S
C2077 C2072 1.363 . S
C2077 C2076 1.415 . S
H2078 C2075 0.999 . S
H2079 C2060 0.913 . S
H2080 C2098 0.951 . S
H2081 C2100 0.952 . S
H2082 C2102 0.950 . S
H2083 C2103 0.950 . S
H2084 C2105 0.950 . S
H2085 C2108 0.950 . S
H2086 C2109 0.950 . S
H2087 C2111 0.950 . S
H2088 C2112 0.950 . S
H2089 C2113 0.951 . S
H2090 C2115 0.951 . S
H2091 C2117 0.950 . S
H2092 C2118 0.950 . S
H2093 C2120 0.950 . S
H2094 C2123 0.950 . S
H2095 C2124 0.950 . S
H2096 C2126 0.950 . S
H2097 C2127 0.950 . S
C2098 H2080 0.951 . S
C2098 C2099 1.366 1_565 S
C2098 C2100 1.388 . S
C2099 C2098 1.366 1_545 S
C2099 C2103 1.385 . S
C2100 H2081 0.952 . S
C2100 C2098 1.388 . S
C2100 C2101 1.364 1_565 S
C2101 C2100 1.364 1_545 S
C2101 C2102 1.414 . S
C2101 C2104 1.499 . S
C2102 H2082 0.950 . S
C2102 C2101 1.414 . S
C2102 C2103 1.374 . S
C2103 H2083 0.950 . S
C2103 C2099 1.385 . S
C2103 C2102 1.374 . S
C2104 C2101 1.499 . S
C2104 C2105 1.373 . S
C2104 C2106 1.389 . S
C2105 H2084 0.950 . S
C2105 C2104 1.373 . S
C2105 C2121 1.377 . S
C2106 C2104 1.389 . S
C2106 C2107 1.524 1_545 S
C2106 C2120 1.377 . S
C2107 C2106 1.524 1_565 S
C2107 C2108 1.397 1_565 S
C2107 C2112 1.363 . S
C2108 H2085 0.950 . S
C2108 C2107 1.397 1_545 S
C2108 C2109 1.334 1_545 S
C2109 H2086 0.950 . S
C2109 C2108 1.334 1_565 S
C2109 C2110 1.287 . S
C2110 C2109 1.287 . S
C2110 C2111 1.524 . S
C2110 H2129 0.913 . S
C2111 H2087 0.950 . S
C2111 C2110 1.524 . S
C2111 C2112 1.415 . S
C2112 H2088 0.950 . S
C2112 C2107 1.363 . S
C2112 C2111 1.415 . S
C2113 H2089 0.951 . S
C2113 C2114 1.366 . S
C2113 C2115 1.388 1_455 S
C2114 C2113 1.366 . S
C2114 C2118 1.385 1_455 S
C2115 H2090 0.951 . S
C2115 C2113 1.388 1_655 S
C2115 C2116 1.366 . S
C2116 C2115 1.366 . S
C2116 C2117 1.414 . S
C2116 C2119 1.499 . S
C2117 H2091 0.950 . S
C2117 C2116 1.414 . S
C2117 C2118 1.374 . S
C2118 H2092 0.950 . S
C2118 C2114 1.385 1_655 S
C2118 C2117 1.374 . S
C2119 C2116 1.499 . S
C2119 C2120 1.373 . S
C2119 C2121 1.389 . S
C2120 H2093 0.950 . S
C2120 C2106 1.377 . S
C2120 C2119 1.373 . S
C2121 C2105 1.377 . S
C2121 C2119 1.389 . S
C2121 C2122 1.524 . S
C2122 C2121 1.524 . S
C2122 C2123 1.397 . S
C2122 C2127 1.363 . S
C2123 H2094 0.950 . S
C2123 C2122 1.397 . S
C2123 C2124 1.334 . S
C2124 H2095 0.950 . S
C2124 C2123 1.334 . S
C2124 C2125 1.287 . S
C2125 C2124 1.287 . S
C2125 C2126 1.524 . S
C2125 H2128 0.999 . S
C2126 H2096 0.950 . S
C2126 C2125 1.524 . S
C2126 C2127 1.415 . S
C2127 H2097 0.950 . S
C2127 C2122 1.363 . S
C2127 C2126 1.415 . S
H2128 C2125 0.999 . S
H2129 C2110 0.913 . S
H2130 C2148 0.951 . S
H2131 C2150 0.951 . S
H2132 C2152 0.950 . S
H2133 C2153 0.950 . S
H2134 C2155 0.950 . S
H2135 C2158 0.950 . S
H2136 C2159 0.950 . S
H2137 C2161 0.950 . S
H2138 C2162 0.950 . S
H2139 C2163 0.951 . S
H2140 C2165 0.951 . S
H2141 C2167 0.950 . S
H2142 C2168 0.950 . S
H2143 C2170 0.950 . S
H2144 C2173 0.950 . S
H2145 C2174 0.950 . S
H2146 C2176 0.950 . S
H2147 C2177 0.950 . S
C2148 H2130 0.951 . S
C2148 C2149 1.366 . S
C2148 C2150 1.388 . S
C2149 C2148 1.366 . S
C2149 C2153 1.385 . S
C2150 H2131 0.951 . S
C2150 C2148 1.388 . S
C2150 C2151 1.366 . S
C2151 C2150 1.366 . S
C2151 C2152 1.414 . S
C2151 C2154 1.499 . S
C2152 H2132 0.950 . S
C2152 C2151 1.414 . S
C2152 C2153 1.374 . S
C2153 H2133 0.950 . S
C2153 C2149 1.385 . S
C2153 C2152 1.374 . S
C2154 C2151 1.499 . S
C2154 C2155 1.373 . S
C2154 C2156 1.389 . S
C2155 H2134 0.950 . S
C2155 C2154 1.373 . S
C2155 C2171 1.377 . S
C2156 C2154 1.389 . S
C2156 C2157 1.524 . S
C2156 C2170 1.377 . S
C2157 C2156 1.524 . S
C2157 C2158 1.397 . S
C2157 C2162 1.363 . S
C2158 H2135 0.950 . S
C2158 C2157 1.397 . S
C2158 C2159 1.334 . S
C2159 H2136 0.950 . S
C2159 C2158 1.334 . S
C2159 C2160 1.287 . S
C2160 C2159 1.287 . S
C2160 C2161 1.524 . S
C2160 H2179 0.913 . S
C2161 H2137 0.950 . S
C2161 C2160 1.524 . S
C2161 C2162 1.415 . S
C2162 H2138 0.950 . S
C2162 C2157 1.363 . S
C2162 C2161 1.415 . S
C2163 H2139 0.951 . S
C2163 C2164 1.366 . S
C2163 C2165 1.388 . S
C2164 C2163 1.366 . S
C2164 C2168 1.385 . S
C2165 H2140 0.951 . S
C2165 C2163 1.388 . S
C2165 C2166 1.366 . S
C2166 C2165 1.366 . S
C2166 C2167 1.414 . S
C2166 C2169 1.499 . S
C2167 H2141 0.950 . S
C2167 C2166 1.414 . S
C2167 C2168 1.374 . S
C2168 H2142 0.950 . S
C2168 C2164 1.385 . S
C2168 C2167 1.374 . S
C2169 C2166 1.499 . S
C2169 C2170 1.373 . S
C2169 C2171 1.389 . S
C2170 H2143 0.950 . S
C2170 C2156 1.377 . S
C2170 C2169 1.373 . S
C2171 C2155 1.377 . S
C2171 C2169 1.389 . S
C2171 C2172 1.524 . S
C2172 C2171 1.524 . S
C2172 C2173 1.397 . S
C2172 C2177 1.363 . S
C2173 H2144 0.950 . S
C2173 C2172 1.397 . S
C2173 C2174 1.334 . S
C2174 H2145 0.950 . S
C2174 C2173 1.334 . S
C2174 C2175 1.287 . S
C2175 C2174 1.287 . S
C2175 C2176 1.524 . S
C2175 H2178 0.999 . S
C2176 H2146 0.950 . S
C2176 C2175 1.524 . S
C2176 C2177 1.415 . S
C2177 H2147 0.950 . S
C2177 C2172 1.363 . S
C2177 C2176 1.415 . S
H2178 C2175 0.999 . S
H2179 C2160 0.913 . S
H2180 C2198 0.951 . S
H2181 C2200 0.951 . S
H2182 C2202 0.950 . S
H2183 C2203 0.950 . S
H2184 C2205 0.950 . S
H2185 C2208 0.950 . S
H2186 C2209 0.950 . S
H2187 C2211 0.950 . S
H2188 C2212 0.950 1_545 S
H2189 C2213 0.951 . S
H2190 C2215 0.951 . S
H2191 C2217 0.950 . S
H2192 C2218 0.950 . S
H2193 C2220 0.950 . S
H2194 C2223 0.950 . S
H2195 C2224 0.950 . S
H2196 C2226 0.950 . S
H2197 C2227 0.950 . S
C2198 H2180 0.951 . S
C2198 C2199 1.366 . S
C2198 C2200 1.388 . S
C2199 C2198 1.366 . S
C2199 C2203 1.385 . S
C2200 H2181 0.951 . S
C2200 C2198 1.388 . S
C2200 C2201 1.366 . S
C2201 C2200 1.366 . S
C2201 C2202 1.414 . S
C2201 C2204 1.499 . S
C2202 H2182 0.950 . S
C2202 C2201 1.414 . S
C2202 C2203 1.374 . S
C2203 H2183 0.950 . S
C2203 C2199 1.385 . S
C2203 C2202 1.374 . S
C2204 C2201 1.499 . S
C2204 C2205 1.373 . S
C2204 C2206 1.389 . S
C2205 H2184 0.950 . S
C2205 C2204 1.373 . S
C2205 C2221 1.377 . S
C2206 C2204 1.389 . S
C2206 C2207 1.539 . S
C2206 C2220 1.377 . S
C2207 C2206 1.539 . S
C2207 C2208 1.384 1_545 S
C2207 C2212 1.361 1_545 S
C2208 H2185 0.950 . S
C2208 C2207 1.384 1_565 S
C2208 C2209 1.334 . S
C2209 H2186 0.950 . S
C2209 C2208 1.334 . S
C2209 C2210 1.287 . S
C2210 C2209 1.287 . S
C2210 C2211 1.524 . S
C2210 H2229 0.913 . S
C2211 H2187 0.950 . S
C2211 C2210 1.524 . S
C2211 C2212 1.415 . S
C2212 H2188 0.950 1_565 S
C2212 C2207 1.361 1_565 S
C2212 C2211 1.415 . S
C2213 H2189 0.951 . S
C2213 C2214 1.366 . S
C2213 C2215 1.388 . S
C2214 C2213 1.366 . S
C2214 C2218 1.385 . S
C2215 H2190 0.951 . S
C2215 C2213 1.388 . S
C2215 C2216 1.366 . S
C2216 C2215 1.366 . S
C2216 C2217 1.414 . S
C2216 C2219 1.499 . S
C2217 H2191 0.950 . S
C2217 C2216 1.414 . S
C2217 C2218 1.374 . S
C2218 H2192 0.950 . S
C2218 C2214 1.385 . S
C2218 C2217 1.374 . S
C2219 C2216 1.499 . S
C2219 C2220 1.373 . S
C2219 C2221 1.389 . S
C2220 H2193 0.950 . S
C2220 C2206 1.377 . S
C2220 C2219 1.373 . S
C2221 C2205 1.377 . S
C2221 C2219 1.389 . S
C2221 C2222 1.524 . S
C2222 C2221 1.524 . S
C2222 C2223 1.397 . S
C2222 C2227 1.363 . S
C2223 H2194 0.950 . S
C2223 C2222 1.397 . S
C2223 C2224 1.334 . S
C2224 H2195 0.950 . S
C2224 C2223 1.334 . S
C2224 C2225 1.287 . S
C2225 C2224 1.287 . S
C2225 C2226 1.524 . S
C2225 H2228 0.999 . S
C2226 H2196 0.950 . S
C2226 C2225 1.524 . S
C2226 C2227 1.415 . S
C2227 H2197 0.950 . S
C2227 C2222 1.363 . S
C2227 C2226 1.415 . S
H2228 C2225 0.999 . S
H2229 C2210 0.913 . S
H2230 C2248 0.951 . S
H2231 C2250 0.951 . S
H2232 C2252 0.950 . S
H2233 C2253 0.950 . S
H2234 C2255 0.950 . S
H2235 C2258 0.950 . S
H2236 C2259 0.950 . S
H2237 C2261 0.950 . S
H2238 C2262 0.950 . S
H2239 C2263 0.951 . S
H2240 C2265 0.951 . S
H2241 C2267 0.950 . S
H2242 C2268 0.950 . S
H2243 C2270 0.950 . S
H2244 C2273 0.950 . S
H2245 C2274 0.950 . S
H2246 C2276 0.950 . S
H2247 C2277 0.950 . S
C2248 H2230 0.951 . S
C2248 C2249 1.366 . S
C2248 C2250 1.388 . S
C2249 C2248 1.366 . S
C2249 C2253 1.385 . S
C2250 H2231 0.951 . S
C2250 C2248 1.388 . S
C2250 C2251 1.366 . S
C2251 C2250 1.366 . S
C2251 C2252 1.414 . S
C2251 C2254 1.499 . S
C2252 H2232 0.950 . S
C2252 C2251 1.414 . S
C2252 C2253 1.374 . S
C2253 H2233 0.950 . S
C2253 C2249 1.385 . S
C2253 C2252 1.374 . S
C2254 C2251 1.499 . S
C2254 C2255 1.373 . S
C2254 C2256 1.389 . S
C2255 H2234 0.950 . S
C2255 C2254 1.373 . S
C2255 C2271 1.377 . S
C2256 C2254 1.389 . S
C2256 C2257 1.524 . S
C2256 C2270 1.377 . S
C2257 C2256 1.524 . S
C2257 C2258 1.397 . S
C2257 C2262 1.363 . S
C2258 H2235 0.950 . S
C2258 C2257 1.397 . S
C2258 C2259 1.334 . S
C2259 H2236 0.950 . S
C2259 C2258 1.334 . S
C2259 C2260 1.287 . S
C2260 C2259 1.287 . S
C2260 C2261 1.524 . S
C2260 H2279 0.913 . S
C2261 H2237 0.950 . S
C2261 C2260 1.524 . S
C2261 C2262 1.415 . S
C2262 H2238 0.950 . S
C2262 C2257 1.363 . S
C2262 C2261 1.415 . S
C2263 H2239 0.951 . S
C2263 C2264 1.366 . S
C2263 C2265 1.388 . S
C2264 C2263 1.366 . S
C2264 C2268 1.385 . S
C2265 H2240 0.951 . S
C2265 C2263 1.388 . S
C2265 C2266 1.366 . S
C2266 C2265 1.366 . S
C2266 C2267 1.414 . S
C2266 C2269 1.499 . S
C2267 H2241 0.950 . S
C2267 C2266 1.414 . S
C2267 C2268 1.374 . S
C2268 H2242 0.950 . S
C2268 C2264 1.385 . S
C2268 C2267 1.374 . S
C2269 C2266 1.499 . S
C2269 C2270 1.373 . S
C2269 C2271 1.389 . S
C2270 H2243 0.950 . S
C2270 C2256 1.377 . S
C2270 C2269 1.373 . S
C2271 C2255 1.377 . S
C2271 C2269 1.389 . S
C2271 C2272 1.524 . S
C2272 C2271 1.524 . S
C2272 C2273 1.397 . S
C2272 C2277 1.363 . S
C2273 H2244 0.950 . S
C2273 C2272 1.397 . S
C2273 C2274 1.334 . S
C2274 H2245 0.950 . S
C2274 C2273 1.334 . S
C2274 C2275 1.287 . S
C2275 C2274 1.287 . S
C2275 C2276 1.524 . S
C2275 H2278 0.999 . S
C2276 H2246 0.950 . S
C2276 C2275 1.524 . S
C2276 C2277 1.415 . S
C2277 H2247 0.950 . S
C2277 C2272 1.363 . S
C2277 C2276 1.415 . S
H2278 C2275 0.999 . S
H2279 C2260 0.913 . S
H2280 C2298 0.951 . S
H2281 C2300 0.951 . S
H2282 C2302 0.950 . S
H2283 C2303 0.950 . S
H2284 C2305 0.950 1_565 S
H2285 C2308 0.950 . S
H2286 C2309 0.950 . S
H2287 C2311 0.950 . S
H2288 C2312 0.950 . S
H2289 C2313 0.951 . S
H2290 C2315 0.951 . S
H2291 C2317 0.950 . S
H2292 C2318 0.950 . S
H2293 C2320 0.950 . S
H2294 C2323 0.950 . S
H2295 C2324 0.950 . S
H2296 C2326 0.950 . S
H2297 C2327 0.950 . S
C2298 H2280 0.951 . S
C2298 C2299 1.366 . S
C2298 C2300 1.388 . S
C2299 C2298 1.366 . S
C2299 C2303 1.385 . S
C2300 H2281 0.951 . S
C2300 C2298 1.388 . S
C2300 C2301 1.366 . S
C2301 C2300 1.366 . S
C2301 C2302 1.414 . S
C2301 C2304 1.499 . S
C2302 H2282 0.950 . S
C2302 C2301 1.414 . S
C2302 C2303 1.374 . S
C2303 H2283 0.950 . S
C2303 C2299 1.385 . S
C2303 C2302 1.374 . S
C2304 C2301 1.499 . S
C2304 C2305 1.373 . S
C2304 C2306 1.389 . S
C2305 H2284 0.950 1_545 S
C2305 C2304 1.373 . S
C2305 C2321 1.377 . S
C2306 C2304 1.389 . S
C2306 C2307 1.524 . S
C2306 C2320 1.377 . S
C2307 C2306 1.524 . S
C2307 C2308 1.397 . S
C2307 C2312 1.363 . S
C2308 H2285 0.950 . S
C2308 C2307 1.397 . S
C2308 C2309 1.334 . S
C2309 H2286 0.950 . S
C2309 C2308 1.334 . S
C2309 C2310 1.287 . S
C2310 C2309 1.287 . S
C2310 C2311 1.524 . S
C2310 H2329 0.913 . S
C2311 H2287 0.950 . S
C2311 C2310 1.524 . S
C2311 C2312 1.415 . S
C2312 H2288 0.950 . S
C2312 C2307 1.363 . S
C2312 C2311 1.415 . S
C2313 H2289 0.951 . S
C2313 C2314 1.366 . S
C2313 C2315 1.388 . S
C2314 C2313 1.366 . S
C2314 C2318 1.385 1_455 S
C2315 H2290 0.951 . S
C2315 C2313 1.388 . S
C2315 C2316 1.366 1_455 S
C2316 C2315 1.366 1_655 S
C2316 C2317 1.414 . S
C2316 C2319 1.499 . S
C2317 H2291 0.950 . S
C2317 C2316 1.414 . S
C2317 C2318 1.374 . S
C2318 H2292 0.950 . S
C2318 C2314 1.385 1_655 S
C2318 C2317 1.374 . S
C2319 C2316 1.499 . S
C2319 C2320 1.373 . S
C2319 C2321 1.389 . S
C2320 H2293 0.950 . S
C2320 C2306 1.377 . S
C2320 C2319 1.373 . S
C2321 C2305 1.377 . S
C2321 C2319 1.389 . S
C2321 C2322 1.524 1_545 S
C2322 C2321 1.524 1_565 S
C2322 C2323 1.397 . S
C2322 C2327 1.363 . S
C2323 H2294 0.950 . S
C2323 C2322 1.397 . S
C2323 C2324 1.334 . S
C2324 H2295 0.950 . S
C2324 C2323 1.334 . S
C2324 C2325 1.287 . S
C2325 C2324 1.287 . S
C2325 C2326 1.524 . S
C2325 H2328 0.999 . S
C2326 H2296 0.950 . S
C2326 C2325 1.524 . S
C2326 C2327 1.415 . S
C2327 H2297 0.950 . S
C2327 C2322 1.363 . S
C2327 C2326 1.415 . S
H2328 C2325 0.999 . S
H2329 C2310 0.913 . S
H2330 C2348 0.951 . S
H2331 C2350 0.951 . S
H2332 C2352 0.950 . S
H2333 C2353 0.950 . S
H2334 C2355 0.950 . S
H2335 C2358 0.950 . S
H2336 C2359 0.950 . S
H2337 C2361 0.950 . S
H2338 C2362 0.950 . S
H2339 C2363 0.951 . S
H2340 C2365 0.951 . S
H2341 C2367 0.950 . S
H2342 C2368 0.950 . S
H2343 C2370 0.950 . S
H2344 C2373 0.950 . S
H2345 C2374 0.950 . S
H2346 C2376 0.950 . S
H2347 C2377 0.950 . S
C2348 H2330 0.951 . S
C2348 C2349 1.366 . S
C2348 C2350 1.388 . S
C2349 C2348 1.366 . S
C2349 C2353 1.385 . S
C2350 H2331 0.951 . S
C2350 C2348 1.388 . S
C2350 C2351 1.366 . S
C2351 C2350 1.366 . S
C2351 C2352 1.414 . S
C2351 C2354 1.499 . S
C2352 H2332 0.950 . S
C2352 C2351 1.414 . S
C2352 C2353 1.374 . S
C2353 H2333 0.950 . S
C2353 C2349 1.385 . S
C2353 C2352 1.374 . S
C2354 C2351 1.499 . S
C2354 C2355 1.373 . S
C2354 C2356 1.389 . S
C2355 H2334 0.950 . S
C2355 C2354 1.373 . S
C2355 C2371 1.377 . S
C2356 C2354 1.389 . S
C2356 C2357 1.524 . S
C2356 C2370 1.377 . S
C2357 C2356 1.524 . S
C2357 C2358 1.397 . S
C2357 C2362 1.363 . S
C2358 H2335 0.950 . S
C2358 C2357 1.397 . S
C2358 C2359 1.334 . S
C2359 H2336 0.950 . S
C2359 C2358 1.334 . S
C2359 C2360 1.287 . S
C2360 C2359 1.287 . S
C2360 C2361 1.524 . S
C2360 H2379 0.913 . S
C2361 H2337 0.950 . S
C2361 C2360 1.524 . S
C2361 C2362 1.415 . S
C2362 H2338 0.950 . S
C2362 C2357 1.363 . S
C2362 C2361 1.415 . S
C2363 H2339 0.951 . S
C2363 C2364 1.366 . S
C2363 C2365 1.388 . S
C2364 C2363 1.366 . S
C2364 C2368 1.385 . S
C2365 H2340 0.951 . S
C2365 C2363 1.388 . S
C2365 C2366 1.366 . S
C2366 C2365 1.366 . S
C2366 C2367 1.414 . S
C2366 C2369 1.499 . S
C2367 H2341 0.950 . S
C2367 C2366 1.414 . S
C2367 C2368 1.374 . S
C2368 H2342 0.950 . S
C2368 C2364 1.385 . S
C2368 C2367 1.374 . S
C2369 C2366 1.499 . S
C2369 C2370 1.373 . S
C2369 C2371 1.389 . S
C2370 H2343 0.950 . S
C2370 C2356 1.377 . S
C2370 C2369 1.373 . S
C2371 C2355 1.377 . S
C2371 C2369 1.389 . S
C2371 C2372 1.524 . S
C2372 C2371 1.524 . S
C2372 C2373 1.397 . S
C2372 C2377 1.363 . S
C2373 H2344 0.950 . S
C2373 C2372 1.397 . S
C2373 C2374 1.334 . S
C2374 H2345 0.950 . S
C2374 C2373 1.334 . S
C2374 C2375 1.287 . S
C2375 C2374 1.287 . S
C2375 C2376 1.524 . S
C2375 H2378 0.999 . S
C2376 H2346 0.950 . S
C2376 C2375 1.524 . S
C2376 C2377 1.415 . S
C2377 H2347 0.950 . S
C2377 C2372 1.363 . S
C2377 C2376 1.415 . S
H2378 C2375 0.999 . S
H2379 C2360 0.913 . S
H2380 C2398 0.951 . S
H2381 C2400 0.951 . S
H2382 C2402 0.950 . S
H2383 C2403 0.950 . S
H2384 C2405 0.950 . S
H2385 C2408 0.950 . S
H2386 C2409 0.950 . S
H2387 C2411 0.950 . S
H2388 C2412 0.950 . S
H2389 C2413 0.951 . S
H2390 C2415 0.951 . S
H2391 C2417 0.950 . S
H2392 C2418 0.950 . S
H2393 C2420 0.950 . S
H2394 C2423 0.950 . S
H2395 C2424 0.950 . S
H2396 C2426 0.950 . S
H2397 C2427 0.969 . S
C2398 H2380 0.951 . S
C2398 C2399 1.366 . S
C2398 C2400 1.388 . S
C2399 C2398 1.366 . S
C2399 C2403 1.385 . S
C2400 H2381 0.951 . S
C2400 C2398 1.388 . S
C2400 C2401 1.366 . S
C2401 C2400 1.366 . S
C2401 C2402 1.414 . S
C2401 C2404 1.499 . S
C2402 H2382 0.950 . S
C2402 C2401 1.414 . S
C2402 C2403 1.374 . S
C2403 H2383 0.950 . S
C2403 C2399 1.385 . S
C2403 C2402 1.374 . S
C2404 C2401 1.499 . S
C2404 C2405 1.373 . S
C2404 C2406 1.389 . S
C2405 H2384 0.950 . S
C2405 C2404 1.373 . S
C2405 C2421 1.377 . S
C2406 C2404 1.389 . S
C2406 C2407 1.524 . S
C2406 C2420 1.377 . S
C2407 C2406 1.524 . S
C2407 C2408 1.397 . S
C2407 C2412 1.363 . S
C2408 H2385 0.950 . S
C2408 C2407 1.397 . S
C2408 C2409 1.334 . S
C2409 H2386 0.950 . S
C2409 C2408 1.334 . S
C2409 C2410 1.287 . S
C2410 C2409 1.287 . S
C2410 C2411 1.524 . S
C2410 H2429 0.913 . S
C2411 H2387 0.950 . S
C2411 C2410 1.524 . S
C2411 C2412 1.415 . S
C2412 H2388 0.950 . S
C2412 C2407 1.363 . S
C2412 C2411 1.415 . S
C2413 H2389 0.951 . S
C2413 C2414 1.366 . S
C2413 C2415 1.388 . S
C2414 C2413 1.366 . S
C2414 C2418 1.385 . S
C2415 H2390 0.951 . S
C2415 C2413 1.388 . S
C2415 C2416 1.366 . S
C2416 C2415 1.366 . S
C2416 C2417 1.414 . S
C2416 C2419 1.499 . S
C2417 H2391 0.950 . S
C2417 C2416 1.414 . S
C2417 C2418 1.374 . S
C2418 H2392 0.950 . S
C2418 C2414 1.385 . S
C2418 C2417 1.374 . S
C2419 C2416 1.499 . S
C2419 C2420 1.373 . S
C2419 C2421 1.389 . S
C2420 H2393 0.950 . S
C2420 C2406 1.377 . S
C2420 C2419 1.373 . S
C2421 C2405 1.377 . S
C2421 C2419 1.389 . S
C2421 C2422 1.524 . S
C2422 C2421 1.524 . S
C2422 C2423 1.397 . S
C2422 C2427 1.334 1_545 S
C2423 H2394 0.950 . S
C2423 C2422 1.397 . S
C2423 C2424 1.334 . S
C2424 H2395 0.950 . S
C2424 C2423 1.334 . S
C2424 C2425 1.281 1_545 S
C2425 C2424 1.281 1_565 S
C2425 C2426 1.528 . S
C2425 H2428 1.001 . S
C2426 H2396 0.950 . S
C2426 C2425 1.528 . S
C2426 C2427 1.426 . S
C2427 H2397 0.969 . S
C2427 C2422 1.334 1_565 S
C2427 C2426 1.426 . S
H2428 C2425 1.001 . S
H2429 C2410 0.913 . S
H2430 C2448 0.951 . S
H2431 C2450 0.951 . S
H2432 C2452 0.950 . S
H2433 C2453 0.950 . S
H2434 C2455 0.950 . S
H2435 C2458 0.950 . S
H2436 C2459 0.950 . S
H2437 C2461 0.950 . S
H2438 C2462 0.950 . S
H2439 C2463 0.951 . S
H2440 C2465 0.951 . S
H2441 C2467 0.950 . S
H2442 C2468 0.950 . S
H2443 C2470 0.950 . S
H2444 C2473 0.950 . S
H2445 C2474 0.950 . S
H2446 C2476 0.950 . S
H2447 C2477 0.950 . S
C2448 H2430 0.951 . S
C2448 C2449 1.366 . S
C2448 C2450 1.388 . S
C2449 C2448 1.366 . S
C2449 C2453 1.385 . S
C2450 H2431 0.951 . S
C2450 C2448 1.388 . S
C2450 C2451 1.366 . S
C2451 C2450 1.366 . S
C2451 C2452 1.414 . S
C2451 C2454 1.499 . S
C2452 H2432 0.950 . S
C2452 C2451 1.414 . S
C2452 C2453 1.374 . S
C2453 H2433 0.950 . S
C2453 C2449 1.385 . S
C2453 C2452 1.374 . S
C2454 C2451 1.499 . S
C2454 C2455 1.373 . S
C2454 C2456 1.389 . S
C2455 H2434 0.950 . S
C2455 C2454 1.373 . S
C2455 C2471 1.377 . S
C2456 C2454 1.389 . S
C2456 C2457 1.524 . S
C2456 C2470 1.377 . S
C2457 C2456 1.524 . S
C2457 C2458 1.397 . S
C2457 C2462 1.363 . S
C2458 H2435 0.950 . S
C2458 C2457 1.397 . S
C2458 C2459 1.334 . S
C2459 H2436 0.950 . S
C2459 C2458 1.334 . S
C2459 C2460 1.287 . S
C2460 C2459 1.287 . S
C2460 C2461 1.524 . S
C2460 H2479 0.913 . S
C2461 H2437 0.950 . S
C2461 C2460 1.524 . S
C2461 C2462 1.415 . S
C2462 H2438 0.950 . S
C2462 C2457 1.363 . S
C2462 C2461 1.415 . S
C2463 H2439 0.951 . S
C2463 C2464 1.366 . S
C2463 C2465 1.388 . S
C2464 C2463 1.366 . S
C2464 C2468 1.385 . S
C2465 H2440 0.951 . S
C2465 C2463 1.388 . S
C2465 C2466 1.366 . S
C2466 C2465 1.366 . S
C2466 C2467 1.414 . S
C2466 C2469 1.499 . S
C2467 H2441 0.950 . S
C2467 C2466 1.414 . S
C2467 C2468 1.374 . S
C2468 H2442 0.950 . S
C2468 C2464 1.385 . S
C2468 C2467 1.374 . S
C2469 C2466 1.499 . S
C2469 C2470 1.373 . S
C2469 C2471 1.389 . S
C2470 H2443 0.950 . S
C2470 C2456 1.377 . S
C2470 C2469 1.373 . S
C2471 C2455 1.377 . S
C2471 C2469 1.389 . S
C2471 C2472 1.524 . S
C2472 C2471 1.524 . S
C2472 C2473 1.397 . S
C2472 C2477 1.363 . S
C2473 H2444 0.950 . S
C2473 C2472 1.397 . S
C2473 C2474 1.334 . S
C2474 H2445 0.950 . S
C2474 C2473 1.334 . S
C2474 C2475 1.287 . S
C2475 C2474 1.287 . S
C2475 C2476 1.524 . S
C2475 H2478 0.999 . S
C2476 H2446 0.950 . S
C2476 C2475 1.524 . S
C2476 C2477 1.415 . S
C2477 H2447 0.950 . S
C2477 C2472 1.363 . S
C2477 C2476 1.415 . S
H2478 C2475 0.999 . S
H2479 C2460 0.913 . S
H2480 C2498 0.951 . S
H2481 C2500 0.951 . S
H2482 C2502 0.950 . S
H2483 C2503 0.950 . S
H2484 C2505 0.950 . S
H2485 C2508 0.950 . S
H2486 C2509 0.950 . S
H2487 C2511 0.950 . S
H2488 C2512 0.950 . S
H2489 C2513 0.946 1_545 S
H2490 C2515 0.951 . S
H2491 C2517 0.950 . S
H2492 C2518 0.950 . S
H2493 C2520 0.950 . S
H2494 C2523 0.950 . S
H2495 C2524 0.950 . S
H2496 C2526 0.950 . S
H2497 C2527 0.950 . S
C2498 H2480 0.951 . S
C2498 C2499 1.366 1_556 S
C2498 C2500 1.388 . S
C2499 C2498 1.366 1_554 S
C2499 C2503 1.385 . S
C2500 H2481 0.951 . S
C2500 C2498 1.388 . S
C2500 C2501 1.366 1_556 S
C2501 C2500 1.366 1_554 S
C2501 C2502 1.414 . S
C2501 C2504 1.499 . S
C2502 H2482 0.950 . S
C2502 C2501 1.414 . S
C2502 C2503 1.374 . S
C2503 H2483 0.950 . S
C2503 C2499 1.385 . S
C2503 C2502 1.374 . S
C2504 C2501 1.499 . S
C2504 C2505 1.373 . S
C2504 C2506 1.389 . S
C2505 H2484 0.950 . S
C2505 C2504 1.373 . S
C2505 C2521 1.377 . S
C2506 C2504 1.389 . S
C2506 C2507 1.524 . S
C2506 C2520 1.377 . S
C2507 C2506 1.524 . S
C2507 C2508 1.397 . S
C2507 C2512 1.363 1_554 S
C2508 H2485 0.950 . S
C2508 C2507 1.397 . S
C2508 C2509 1.334 1_565 S
C2509 H2486 0.950 . S
C2509 C2508 1.334 1_545 S
C2509 C2510 1.287 1_554 S
C2510 C2509 1.287 1_556 S
C2510 C2511 1.524 . S
C2510 H2529 0.913 . S
C2511 H2487 0.950 . S
C2511 C2510 1.524 . S
C2511 C2512 1.415 1_545 S
C2512 H2488 0.950 . S
C2512 C2507 1.363 1_556 S
C2512 C2511 1.415 1_565 S
C2513 H2489 0.946 1_565 S
C2513 C2514 1.366 1_565 S
C2513 C2515 1.388 . S
C2514 C2513 1.366 1_545 S
C2514 C2518 1.385 . S
C2515 H2490 0.951 . S
C2515 C2513 1.388 . S
C2515 C2516 1.366 . S
C2516 C2515 1.366 . S
C2516 C2517 1.414 . S
C2516 C2519 1.499 . S
C2517 H2491 0.950 . S
C2517 C2516 1.414 . S
C2517 C2518 1.374 1_565 S
C2518 H2492 0.950 . S
C2518 C2514 1.385 . S
C2518 C2517 1.374 1_545 S
C2519 C2516 1.499 . S
C2519 C2520 1.373 . S
C2519 C2521 1.389 . S
C2520 H2493 0.950 . S
C2520 C2506 1.377 . S
C2520 C2519 1.373 . S
C2521 C2505 1.377 . S
C2521 C2519 1.389 . S
C2521 C2522 1.524 . S
C2522 C2521 1.524 . S
C2522 C2523 1.397 . S
C2522 C2527 1.363 . S
C2523 H2494 0.950 . S
C2523 C2522 1.397 . S
C2523 C2524 1.334 . S
C2524 H2495 0.950 . S
C2524 C2523 1.334 . S
C2524 C2525 1.287 . S
C2525 C2524 1.287 . S
C2525 C2526 1.524 . S
C2525 H2528 0.999 . S
C2526 H2496 0.950 . S
C2526 C2525 1.524 . S
C2526 C2527 1.415 . S
C2527 H2497 0.950 . S
C2527 C2522 1.363 . S
C2527 C2526 1.415 . S
H2528 C2525 0.999 . S
H2529 C2510 0.913 . S
H2530 C2548 0.951 . S
H2531 C2550 0.951 . S
H2532 C2552 0.950 . S
H2533 C2553 0.950 . S
H2534 C2555 0.950 . S
H2535 C2558 0.950 . S
H2536 C2559 0.950 . S
H2537 C2561 0.950 . S
H2538 C2562 0.950 . S
H2539 C2563 0.951 . S
H2540 C2565 0.951 . S
H2541 C2567 0.950 . S
H2542 C2568 0.950 . S
H2543 C2570 0.950 . S
H2544 C2573 0.950 . S
H2545 C2574 0.950 . S
H2546 C2576 0.950 . S
H2547 C2577 0.950 1_554 S
C2548 H2530 0.951 . S
C2548 C2549 1.366 . S
C2548 C2550 1.388 . S
C2549 C2548 1.366 . S
C2549 C2553 1.385 . S
C2550 H2531 0.951 . S
C2550 C2548 1.388 . S
C2550 C2551 1.366 . S
C2551 C2550 1.366 . S
C2551 C2552 1.414 . S
C2551 C2554 1.499 . S
C2552 H2532 0.950 . S
C2552 C2551 1.414 . S
C2552 C2553 1.374 . S
C2553 H2533 0.950 . S
C2553 C2549 1.385 . S
C2553 C2552 1.374 . S
C2554 C2551 1.499 . S
C2554 C2555 1.373 . S
C2554 C2556 1.389 . S
C2555 H2534 0.950 . S
C2555 C2554 1.373 . S
C2555 C2571 1.377 . S
C2556 C2554 1.389 . S
C2556 C2557 1.524 . S
C2556 C2570 1.377 . S
C2557 C2556 1.524 . S
C2557 C2558 1.397 . S
C2557 C2562 1.363 . S
C2558 H2535 0.950 . S
C2558 C2557 1.397 . S
C2558 C2559 1.334 . S
C2559 H2536 0.950 . S
C2559 C2558 1.334 . S
C2559 C2560 1.287 . S
C2560 C2559 1.287 . S
C2560 C2561 1.524 . S
C2560 H2579 0.913 . S
C2561 H2537 0.950 . S
C2561 C2560 1.524 . S
C2561 C2562 1.415 . S
C2562 H2538 0.950 . S
C2562 C2557 1.363 . S
C2562 C2561 1.415 . S
C2563 H2539 0.951 . S
C2563 C2564 1.366 . S
C2563 C2565 1.388 . S
C2564 C2563 1.366 . S
C2564 C2568 1.385 . S
C2565 H2540 0.951 . S
C2565 C2563 1.388 . S
C2565 C2566 1.366 . S
C2566 C2565 1.366 . S
C2566 C2567 1.414 . S
C2566 C2569 1.499 . S
C2567 H2541 0.950 . S
C2567 C2566 1.414 . S
C2567 C2568 1.374 . S
C2568 H2542 0.950 . S
C2568 C2564 1.385 . S
C2568 C2567 1.374 . S
C2569 C2566 1.499 . S
C2569 C2570 1.373 . S
C2569 C2571 1.389 . S
C2570 H2543 0.950 . S
C2570 C2556 1.377 . S
C2570 C2569 1.373 . S
C2571 C2555 1.377 . S
C2571 C2569 1.389 . S
C2571 C2572 1.524 1_554 S
C2572 C2571 1.524 1_556 S
C2572 C2573 1.397 . S
C2572 C2577 1.363 . S
C2573 H2544 0.950 . S
C2573 C2572 1.397 . S
C2573 C2574 1.334 . S
C2574 H2545 0.950 . S
C2574 C2573 1.334 . S
C2574 C2575 1.287 . S
C2575 C2574 1.287 . S
C2575 C2576 1.524 . S
C2575 H2578 0.999 . S
C2576 H2546 0.950 . S
C2576 C2575 1.524 . S
C2576 C2577 1.415 . S
C2577 H2547 0.950 1_556 S
C2577 C2572 1.363 . S
C2577 C2576 1.415 . S
H2578 C2575 0.999 . S
H2579 C2560 0.913 . S
H2580 C2598 0.951 . S
H2581 C2600 0.951 . S
H2582 C2602 0.950 . S
H2583 C2603 0.950 . S
H2584 C2605 0.950 . S
H2585 C2608 0.950 . S
H2586 C2609 0.950 . S
H2587 C2611 0.950 . S
H2588 C2612 0.950 . S
H2589 C2613 0.951 . S
H2590 C2615 0.951 . S
H2591 C2617 0.950 . S
H2592 C2618 0.950 . S
H2593 C2620 0.950 . S
H2594 C2623 0.950 . S
H2595 C2624 0.950 . S
H2596 C2626 0.950 . S
H2597 C2627 0.950 . S
C2598 H2580 0.951 . S
C2598 C2599 1.366 . S
C2598 C2600 1.388 . S
C2599 C2598 1.366 . S
C2599 C2603 1.385 . S
C2600 H2581 0.951 . S
C2600 C2598 1.388 . S
C2600 C2601 1.366 . S
C2601 C2600 1.366 . S
C2601 C2602 1.414 . S
C2601 C2604 1.499 . S
C2602 H2582 0.950 . S
C2602 C2601 1.414 . S
C2602 C2603 1.374 . S
C2603 H2583 0.950 . S
C2603 C2599 1.385 . S
C2603 C2602 1.374 . S
C2604 C2601 1.499 . S
C2604 C2605 1.373 . S
C2604 C2606 1.389 . S
C2605 H2584 0.950 . S
C2605 C2604 1.373 . S
C2605 C2621 1.377 . S
C2606 C2604 1.389 . S
C2606 C2607 1.524 . S
C2606 C2620 1.377 . S
C2607 C2606 1.524 . S
C2607 C2608 1.397 . S
C2607 C2612 1.363 . S
C2608 H2585 0.950 . S
C2608 C2607 1.397 . S
C2608 C2609 1.334 . S
C2609 H2586 0.950 . S
C2609 C2608 1.334 . S
C2609 C2610 1.287 . S
C2610 C2609 1.287 . S
C2610 C2611 1.524 . S
C2610 H2629 0.913 . S
C2611 H2587 0.950 . S
C2611 C2610 1.524 . S
C2611 C2612 1.415 . S
C2612 H2588 0.950 . S
C2612 C2607 1.363 . S
C2612 C2611 1.415 . S
C2613 H2589 0.951 . S
C2613 C2614 1.366 . S
C2613 C2615 1.388 . S
C2614 C2613 1.366 . S
C2614 C2618 1.385 . S
C2615 H2590 0.951 . S
C2615 C2613 1.388 . S
C2615 C2616 1.366 . S
C2616 C2615 1.366 . S
C2616 C2617 1.414 . S
C2616 C2619 1.499 . S
C2617 H2591 0.950 . S
C2617 C2616 1.414 . S
C2617 C2618 1.374 . S
C2618 H2592 0.950 . S
C2618 C2614 1.385 . S
C2618 C2617 1.374 . S
C2619 C2616 1.499 . S
C2619 C2620 1.373 . S
C2619 C2621 1.389 . S
C2620 H2593 0.950 . S
C2620 C2606 1.377 . S
C2620 C2619 1.373 . S
C2621 C2605 1.377 . S
C2621 C2619 1.389 . S
C2621 C2622 1.524 . S
C2622 C2621 1.524 . S
C2622 C2623 1.397 . S
C2622 C2627 1.363 . S
C2623 H2594 0.950 . S
C2623 C2622 1.397 . S
C2623 C2624 1.334 . S
C2624 H2595 0.950 . S
C2624 C2623 1.334 . S
C2624 C2625 1.287 . S
C2625 C2624 1.287 . S
C2625 C2626 1.524 . S
C2625 H2628 0.999 . S
C2626 H2596 0.950 . S
C2626 C2625 1.524 . S
C2626 C2627 1.415 . S
C2627 H2597 0.950 . S
C2627 C2622 1.363 . S
C2627 C2626 1.415 . S
H2628 C2625 0.999 . S
H2629 C2610 0.913 . S
H2630 C2648 0.951 . S
H2631 C2650 0.951 . S
H2632 C2652 0.950 . S
H2633 C2653 0.950 . S
H2634 C2655 0.950 . S
H2635 C2658 0.950 . S
H2636 C2659 0.950 . S
H2637 C2661 0.950 . S
H2638 C2662 0.950 . S
H2639 C2663 0.951 . S
H2640 C2665 0.951 . S
H2641 C2667 0.950 . S
H2642 C2668 0.950 . S
H2643 C2670 0.950 . S
H2644 C2673 0.950 . S
H2645 C2674 0.950 . S
H2646 C2676 0.950 . S
H2647 C2677 0.950 . S
C2648 H2630 0.951 . S
C2648 C2649 1.366 . S
C2648 C2650 1.388 . S
C2649 C2648 1.366 . S
C2649 C2653 1.385 . S
C2650 H2631 0.951 . S
C2650 C2648 1.388 . S
C2650 C2651 1.366 . S
C2651 C2650 1.366 . S
C2651 C2652 1.414 . S
C2651 C2654 1.499 . S
C2652 H2632 0.950 . S
C2652 C2651 1.414 . S
C2652 C2653 1.374 . S
C2653 H2633 0.950 . S
C2653 C2649 1.385 . S
C2653 C2652 1.374 . S
C2654 C2651 1.499 . S
C2654 C2655 1.373 . S
C2654 C2656 1.389 . S
C2655 H2634 0.950 . S
C2655 C2654 1.373 . S
C2655 C2671 1.377 . S
C2656 C2654 1.389 . S
C2656 C2657 1.524 . S
C2656 C2670 1.377 . S
C2657 C2656 1.524 . S
C2657 C2658 1.397 . S
C2657 C2662 1.363 . S
C2658 H2635 0.950 . S
C2658 C2657 1.397 . S
C2658 C2659 1.334 . S
C2659 H2636 0.950 . S
C2659 C2658 1.334 . S
C2659 C2660 1.287 . S
C2660 C2659 1.287 . S
C2660 C2661 1.524 . S
C2660 H2679 0.913 . S
C2661 H2637 0.950 . S
C2661 C2660 1.524 . S
C2661 C2662 1.415 . S
C2662 H2638 0.950 . S
C2662 C2657 1.363 . S
C2662 C2661 1.415 . S
C2663 H2639 0.951 . S
C2663 C2664 1.366 . S
C2663 C2665 1.388 . S
C2664 C2663 1.366 . S
C2664 C2668 1.385 . S
C2665 H2640 0.951 . S
C2665 C2663 1.388 . S
C2665 C2666 1.366 . S
C2666 C2665 1.366 . S
C2666 C2667 1.414 . S
C2666 C2669 1.499 . S
C2667 H2641 0.950 . S
C2667 C2666 1.414 . S
C2667 C2668 1.374 . S
C2668 H2642 0.950 . S
C2668 C2664 1.385 . S
C2668 C2667 1.374 . S
C2669 C2666 1.499 . S
C2669 C2670 1.373 . S
C2669 C2671 1.389 . S
C2670 H2643 0.950 . S
C2670 C2656 1.377 . S
C2670 C2669 1.373 . S
C2671 C2655 1.377 . S
C2671 C2669 1.389 . S
C2671 C2672 1.524 . S
C2672 C2671 1.524 . S
C2672 C2673 1.397 . S
C2672 C2677 1.363 . S
C2673 H2644 0.950 . S
C2673 C2672 1.397 . S
C2673 C2674 1.334 . S
C2674 H2645 0.950 . S
C2674 C2673 1.334 . S
C2674 C2675 1.287 . S
C2675 C2674 1.287 . S
C2675 C2676 1.524 . S
C2675 H2678 0.999 . S
C2676 H2646 0.950 . S
C2676 C2675 1.524 . S
C2676 C2677 1.415 . S
C2677 H2647 0.950 . S
C2677 C2672 1.363 . S
C2677 C2676 1.415 . S
H2678 C2675 0.999 . S
H2679 C2660 0.913 . S
H2680 C2698 0.951 . S
H2681 C2700 0.951 . S
H2682 C2702 0.950 . S
H2683 C2703 0.950 . S
H2684 C2705 0.950 . S
H2685 C2708 0.950 . S
H2686 C2709 0.950 . S
H2687 C2711 0.950 . S
H2688 C2712 0.950 . S
H2689 C2713 0.951 . S
H2690 C2715 0.951 . S
H2691 C2717 0.950 . S
H2692 C2718 0.950 . S
H2693 C2720 0.950 . S
H2694 C2723 0.950 . S
H2695 C2724 0.950 . S
H2696 C2726 0.950 . S
H2697 C2727 0.950 . S
C2698 H2680 0.951 . S
C2698 C2699 1.366 . S
C2698 C2700 1.388 . S
C2699 C2698 1.366 . S
C2699 C2703 1.385 . S
C2700 H2681 0.951 . S
C2700 C2698 1.388 . S
C2700 C2701 1.366 . S
C2701 C2700 1.366 . S
C2701 C2702 1.414 . S
C2701 C2704 1.499 . S
C2702 H2682 0.950 . S
C2702 C2701 1.414 . S
C2702 C2703 1.374 . S
C2703 H2683 0.950 . S
C2703 C2699 1.385 . S
C2703 C2702 1.374 . S
C2704 C2701 1.499 . S
C2704 C2705 1.373 . S
C2704 C2706 1.389 . S
C2705 H2684 0.950 . S
C2705 C2704 1.373 . S
C2705 C2721 1.377 . S
C2706 C2704 1.389 . S
C2706 C2707 1.524 . S
C2706 C2720 1.377 . S
C2707 C2706 1.524 . S
C2707 C2708 1.397 . S
C2707 C2712 1.363 . S
C2708 H2685 0.950 . S
C2708 C2707 1.397 . S
C2708 C2709 1.334 . S
C2709 H2686 0.950 . S
C2709 C2708 1.334 . S
C2709 C2710 1.287 . S
C2710 C2709 1.287 . S
C2710 C2711 1.524 . S
C2710 H2729 0.913 . S
C2711 H2687 0.950 . S
C2711 C2710 1.524 . S
C2711 C2712 1.415 . S
C2712 H2688 0.950 . S
C2712 C2707 1.363 . S
C2712 C2711 1.415 . S
C2713 H2689 0.951 . S
C2713 C2714 1.366 . S
C2713 C2715 1.388 . S
C2714 C2713 1.366 . S
C2714 C2718 1.385 . S
C2715 H2690 0.951 . S
C2715 C2713 1.388 . S
C2715 C2716 1.366 . S
C2716 C2715 1.366 . S
C2716 C2717 1.414 . S
C2716 C2719 1.499 . S
C2717 H2691 0.950 . S
C2717 C2716 1.414 . S
C2717 C2718 1.374 . S
C2718 H2692 0.950 . S
C2718 C2714 1.385 . S
C2718 C2717 1.374 . S
C2719 C2716 1.499 . S
C2719 C2720 1.373 . S
C2719 C2721 1.389 . S
C2720 H2693 0.950 . S
C2720 C2706 1.377 . S
C2720 C2719 1.373 . S
C2721 C2705 1.377 . S
C2721 C2719 1.389 . S
C2721 C2722 1.524 . S
C2722 C2721 1.524 . S
C2722 C2723 1.397 . S
C2722 C2727 1.363 . S
C2723 H2694 0.950 . S
C2723 C2722 1.397 . S
C2723 C2724 1.334 . S
C2724 H2695 0.950 . S
C2724 C2723 1.334 . S
C2724 C2725 1.287 . S
C2725 C2724 1.287 . S
C2725 C2726 1.524 . S
C2725 H2728 0.999 . S
C2726 H2696 0.950 . S
C2726 C2725 1.524 . S
C2726 C2727 1.415 . S
C2727 H2697 0.950 . S
C2727 C2722 1.363 . S
C2727 C2726 1.415 . S
H2728 C2725 0.999 . S
H2729 C2710 0.913 . S
H2730 C2748 0.951 . S
H2731 C2750 0.951 . S
H2732 C2752 0.950 . S
H2733 C2753 0.950 . S
H2734 C2755 0.950 . S
H2735 C2758 0.950 . S
H2736 C2759 0.950 . S
H2737 C2761 0.950 . S
H2738 C2762 0.950 . S
H2739 C2763 0.951 . S
H2740 C2765 0.951 . S
H2741 C2767 0.950 . S
H2742 C2768 0.950 . S
H2743 C2770 0.950 . S
H2744 C2773 0.950 . S
H2745 C2774 0.950 . S
H2746 C2776 0.950 . S
H2747 C2777 0.950 . S
C2748 H2730 0.951 . S
C2748 C2749 1.366 . S
C2748 C2750 1.388 . S
C2749 C2748 1.366 . S
C2749 C2753 1.385 . S
C2750 H2731 0.951 . S
C2750 C2748 1.388 . S
C2750 C2751 1.366 . S
C2751 C2750 1.366 . S
C2751 C2752 1.414 . S
C2751 C2754 1.499 . S
C2752 H2732 0.950 . S
C2752 C2751 1.414 . S
C2752 C2753 1.374 . S
C2753 H2733 0.950 . S
C2753 C2749 1.385 . S
C2753 C2752 1.374 . S
C2754 C2751 1.499 . S
C2754 C2755 1.373 . S
C2754 C2756 1.389 . S
C2755 H2734 0.950 . S
C2755 C2754 1.373 . S
C2755 C2771 1.377 . S
C2756 C2754 1.389 . S
C2756 C2757 1.524 . S
C2756 C2770 1.377 . S
C2757 C2756 1.524 . S
C2757 C2758 1.397 . S
C2757 C2762 1.363 . S
C2758 H2735 0.950 . S
C2758 C2757 1.397 . S
C2758 C2759 1.334 . S
C2759 H2736 0.950 . S
C2759 C2758 1.334 . S
C2759 C2760 1.287 . S
C2760 C2759 1.287 . S
C2760 C2761 1.524 . S
C2760 H2779 0.913 . S
C2761 H2737 0.950 . S
C2761 C2760 1.524 . S
C2761 C2762 1.415 . S
C2762 H2738 0.950 . S
C2762 C2757 1.363 . S
C2762 C2761 1.415 . S
C2763 H2739 0.951 . S
C2763 C2764 1.366 . S
C2763 C2765 1.388 . S
C2764 C2763 1.366 . S
C2764 C2768 1.385 . S
C2765 H2740 0.951 . S
C2765 C2763 1.388 . S
C2765 C2766 1.366 . S
C2766 C2765 1.366 . S
C2766 C2767 1.414 . S
C2766 C2769 1.499 . S
C2767 H2741 0.950 . S
C2767 C2766 1.414 . S
C2767 C2768 1.374 . S
C2768 H2742 0.950 . S
C2768 C2764 1.385 . S
C2768 C2767 1.374 . S
C2769 C2766 1.499 . S
C2769 C2770 1.373 . S
C2769 C2771 1.389 . S
C2770 H2743 0.950 . S
C2770 C2756 1.377 . S
C2770 C2769 1.373 . S
C2771 C2755 1.377 . S
C2771 C2769 1.389 . S
C2771 C2772 1.524 . S
C2772 C2771 1.524 . S
C2772 C2773 1.397 . S
C2772 C2777 1.363 . S
C2773 H2744 0.950 . S
C2773 C2772 1.397 . S
C2773 C2774 1.334 . S
C2774 H2745 0.950 . S
C2774 C2773 1.334 . S
C2774 C2775 1.287 . S
C2775 C2774 1.287 . S
C2775 C2776 1.524 . S
C2775 H2778 0.999 . S
C2776 H2746 0.950 . S
C2776 C2775 1.524 . S
C2776 C2777 1.415 . S
C2777 H2747 0.950 . S
C2777 C2772 1.363 . S
C2777 C2776 1.415 . S
H2778 C2775 0.999 . S
H2779 C2760 0.913 . S
H2780 C2798 0.951 . S
H2781 C2800 0.951 . S
H2782 C2802 0.950 . S
H2783 C2803 0.950 . S
H2784 C2805 0.950 . S
H2785 C2808 0.950 . S
H2786 C2809 0.950 . S
H2787 C2811 0.950 . S
H2788 C2812 0.950 . S
H2789 C2813 0.951 . S
H2790 C2815 0.951 . S
H2791 C2817 0.950 . S
H2792 C2818 0.950 . S
H2793 C2820 0.950 . S
H2794 C2823 0.950 . S
H2795 C2824 0.950 . S
H2796 C2826 0.950 . S
H2797 C2827 0.950 . S
C2798 H2780 0.951 . S
C2798 C2799 1.366 . S
C2798 C2800 1.388 . S
C2799 C2798 1.366 . S
C2799 C2803 1.385 . S
C2800 H2781 0.951 . S
C2800 C2798 1.388 . S
C2800 C2801 1.366 . S
C2801 C2800 1.366 . S
C2801 C2802 1.414 . S
C2801 C2804 1.499 . S
C2802 H2782 0.950 . S
C2802 C2801 1.414 . S
C2802 C2803 1.374 . S
C2803 H2783 0.950 . S
C2803 C2799 1.385 . S
C2803 C2802 1.374 . S
C2804 C2801 1.499 . S
C2804 C2805 1.373 . S
C2804 C2806 1.389 . S
C2805 H2784 0.950 . S
C2805 C2804 1.373 . S
C2805 C2821 1.377 . S
C2806 C2804 1.389 . S
C2806 C2807 1.524 . S
C2806 C2820 1.377 . S
C2807 C2806 1.524 . S
C2807 C2808 1.397 . S
C2807 C2812 1.363 . S
C2808 H2785 0.950 . S
C2808 C2807 1.397 . S
C2808 C2809 1.334 . S
C2809 H2786 0.950 . S
C2809 C2808 1.334 . S
C2809 C2810 1.287 . S
C2810 C2809 1.287 . S
C2810 C2811 1.524 . S
C2810 H2829 0.913 . S
C2811 H2787 0.950 . S
C2811 C2810 1.524 . S
C2811 C2812 1.415 . S
C2812 H2788 0.950 . S
C2812 C2807 1.363 . S
C2812 C2811 1.415 . S
C2813 H2789 0.951 . S
C2813 C2814 1.366 . S
C2813 C2815 1.388 . S
C2814 C2813 1.366 . S
C2814 C2818 1.385 . S
C2815 H2790 0.951 . S
C2815 C2813 1.388 . S
C2815 C2816 1.366 . S
C2816 C2815 1.366 . S
C2816 C2817 1.414 . S
C2816 C2819 1.499 . S
C2817 H2791 0.950 . S
C2817 C2816 1.414 . S
C2817 C2818 1.374 . S
C2818 H2792 0.950 . S
C2818 C2814 1.385 . S
C2818 C2817 1.374 . S
C2819 C2816 1.499 . S
C2819 C2820 1.373 . S
C2819 C2821 1.389 . S
C2820 H2793 0.950 . S
C2820 C2806 1.377 . S
C2820 C2819 1.373 . S
C2821 C2805 1.377 . S
C2821 C2819 1.389 . S
C2821 C2822 1.524 . S
C2822 C2821 1.524 . S
C2822 C2823 1.397 . S
C2822 C2827 1.363 . S
C2823 H2794 0.950 . S
C2823 C2822 1.397 . S
C2823 C2824 1.334 . S
C2824 H2795 0.950 . S
C2824 C2823 1.334 . S
C2824 C2825 1.287 . S
C2825 C2824 1.287 . S
C2825 C2826 1.524 . S
C2825 H2828 0.999 . S
C2826 H2796 0.950 . S
C2826 C2825 1.524 . S
C2826 C2827 1.415 . S
C2827 H2797 0.950 . S
C2827 C2822 1.363 . S
C2827 C2826 1.415 . S
H2828 C2825 0.999 . S
H2829 C2810 0.913 . S
H2830 C2848 0.951 . S
H2831 C2850 0.951 . S
H2832 C2852 0.950 . S
H2833 C2853 0.950 . S
H2834 C2855 0.950 . S
H2835 C2858 0.950 . S
H2836 C2859 0.950 . S
H2837 C2861 0.950 . S
H2838 C2862 0.950 . S
H2839 C2863 0.951 . S
H2840 C2865 0.951 . S
H2841 C2867 0.950 . S
H2842 C2868 0.950 . S
H2843 C2870 0.950 . S
H2844 C2873 0.950 . S
H2845 C2874 0.950 . S
H2846 C2876 0.950 . S
H2847 C2877 0.950 . S
C2848 H2830 0.951 . S
C2848 C2849 1.366 . S
C2848 C2850 1.388 . S
C2849 C2848 1.366 . S
C2849 C2853 1.385 . S
C2850 H2831 0.951 . S
C2850 C2848 1.388 . S
C2850 C2851 1.366 . S
C2851 C2850 1.366 . S
C2851 C2852 1.414 . S
C2851 C2854 1.499 . S
C2852 H2832 0.950 . S
C2852 C2851 1.414 . S
C2852 C2853 1.374 . S
C2853 H2833 0.950 . S
C2853 C2849 1.385 . S
C2853 C2852 1.374 . S
C2854 C2851 1.499 . S
C2854 C2855 1.373 . S
C2854 C2856 1.389 . S
C2855 H2834 0.950 . S
C2855 C2854 1.373 . S
C2855 C2871 1.377 . S
C2856 C2854 1.389 . S
C2856 C2857 1.524 . S
C2856 C2870 1.377 . S
C2857 C2856 1.524 . S
C2857 C2858 1.397 . S
C2857 C2862 1.363 . S
C2858 H2835 0.950 . S
C2858 C2857 1.397 . S
C2858 C2859 1.334 . S
C2859 H2836 0.950 . S
C2859 C2858 1.334 . S
C2859 C2860 1.287 . S
C2860 C2859 1.287 . S
C2860 C2861 1.524 . S
C2860 H2879 0.913 . S
C2861 H2837 0.950 . S
C2861 C2860 1.524 . S
C2861 C2862 1.415 . S
C2862 H2838 0.950 . S
C2862 C2857 1.363 . S
C2862 C2861 1.415 . S
C2863 H2839 0.951 . S
C2863 C2864 1.366 . S
C2863 C2865 1.388 . S
C2864 C2863 1.366 . S
C2864 C2868 1.385 . S
C2865 H2840 0.951 . S
C2865 C2863 1.388 . S
C2865 C2866 1.366 . S
C2866 C2865 1.366 . S
C2866 C2867 1.414 . S
C2866 C2869 1.499 . S
C2867 H2841 0.950 . S
C2867 C2866 1.414 . S
C2867 C2868 1.374 . S
C2868 H2842 0.950 . S
C2868 C2864 1.385 . S
C2868 C2867 1.374 . S
C2869 C2866 1.499 . S
C2869 C2870 1.373 . S
C2869 C2871 1.389 . S
C2870 H2843 0.950 . S
C2870 C2856 1.377 . S
C2870 C2869 1.373 . S
C2871 C2855 1.377 . S
C2871 C2869 1.389 . S
C2871 C2872 1.524 . S
C2872 C2871 1.524 . S
C2872 C2873 1.397 . S
C2872 C2877 1.363 . S
C2873 H2844 0.950 . S
C2873 C2872 1.397 . S
C2873 C2874 1.334 . S
C2874 H2845 0.950 . S
C2874 C2873 1.334 . S
C2874 C2875 1.287 . S
C2875 C2874 1.287 . S
C2875 C2876 1.524 . S
C2875 H2878 0.999 . S
C2876 H2846 0.950 . S
C2876 C2875 1.524 . S
C2876 C2877 1.415 . S
C2877 H2847 0.950 . S
C2877 C2872 1.363 . S
C2877 C2876 1.415 . S
H2878 C2875 0.999 . S
H2879 C2860 0.913 . S
H2880 C2898 0.951 . S
H2881 C2900 0.951 . S
H2882 C2902 0.950 . S
H2883 C2903 0.950 . S
H2884 C2905 0.950 . S
H2885 C2908 0.950 . S
H2886 C2909 0.950 . S
H2887 C2911 0.950 . S
H2888 C2912 0.950 . S
H2889 C2913 0.951 . S
H2890 C2915 0.951 . S
H2891 C2917 0.950 . S
H2892 C2918 0.950 . S
H2893 C2920 0.950 . S
H2894 C2923 0.950 . S
H2895 C2924 0.953 . S
H2896 C2926 0.953 1_655 S
H2897 C2927 0.950 . S
C2898 H2880 0.951 . S
C2898 C2899 1.366 . S
C2898 C2900 1.388 . S
C2899 C2898 1.366 . S
C2899 C2903 1.385 . S
C2900 H2881 0.951 . S
C2900 C2898 1.388 . S
C2900 C2901 1.366 . S
C2901 C2900 1.366 . S
C2901 C2902 1.414 . S
C2901 C2904 1.499 . S
C2902 H2882 0.950 . S
C2902 C2901 1.414 . S
C2902 C2903 1.374 . S
C2903 H2883 0.950 . S
C2903 C2899 1.385 . S
C2903 C2902 1.374 . S
C2904 C2901 1.499 . S
C2904 C2905 1.373 . S
C2904 C2906 1.389 . S
C2905 H2884 0.950 . S
C2905 C2904 1.373 . S
C2905 C2921 1.377 . S
C2906 C2904 1.389 . S
C2906 C2907 1.524 . S
C2906 C2920 1.377 . S
C2907 C2906 1.524 . S
C2907 C2908 1.397 . S
C2907 C2912 1.363 . S
C2908 H2885 0.950 . S
C2908 C2907 1.397 . S
C2908 C2909 1.334 . S
C2909 H2886 0.950 . S
C2909 C2908 1.334 . S
C2909 C2910 1.287 . S
C2910 C2909 1.287 . S
C2910 C2911 1.524 . S
C2910 H2929 0.913 . S
C2911 H2887 0.950 . S
C2911 C2910 1.524 . S
C2911 C2912 1.415 . S
C2912 H2888 0.950 . S
C2912 C2907 1.363 . S
C2912 C2911 1.415 . S
C2913 H2889 0.951 . S
C2913 C2914 1.366 . S
C2913 C2915 1.388 . S
C2914 C2913 1.366 . S
C2914 C2918 1.385 . S
C2915 H2890 0.951 . S
C2915 C2913 1.388 . S
C2915 C2916 1.366 . S
C2916 C2915 1.366 . S
C2916 C2917 1.414 . S
C2916 C2919 1.499 . S
C2917 H2891 0.950 . S
C2917 C2916 1.414 . S
C2917 C2918 1.374 . S
C2918 H2892 0.950 . S
C2918 C2914 1.385 . S
C2918 C2917 1.374 . S
C2919 C2916 1.499 . S
C2919 C2920 1.373 . S
C2919 C2921 1.389 . S
C2920 H2893 0.950 . S
C2920 C2906 1.377 . S
C2920 C2919 1.373 . S
C2921 C2905 1.377 . S
C2921 C2919 1.389 . S
C2921 C2922 1.524 . S
C2922 C2921 1.524 . S
C2922 C2923 1.397 . S
C2922 C2927 1.363 . S
C2923 H2894 0.950 . S
C2923 C2922 1.397 . S
C2923 C2924 1.334 . S
C2924 H2895 0.953 . S
C2924 C2923 1.334 . S
C2924 C2925 1.287 . S
C2925 C2924 1.287 . S
C2925 C2926 1.521 . S
C2925 H2928 0.999 1_554 S
C2926 H2896 0.953 1_455 S
C2926 C2925 1.521 . S
C2926 C2927 1.414 . S
C2927 H2897 0.950 . S
C2927 C2922 1.363 . S
C2927 C2926 1.414 . S
H2928 C2925 0.999 1_556 S
H2929 C2910 0.913 . S
H2930 C2948 0.951 . S
H2931 C2950 0.951 . S
H2932 C2952 0.950 . S
H2933 C2953 0.950 . S
H2934 C2955 0.950 . S
H2935 C2958 0.950 . S
H2936 C2959 0.950 . S
H2937 C2961 0.950 . S
H2938 C2962 0.950 . S
H2939 C2963 0.951 . S
H2940 C2965 0.951 . S
H2941 C2967 0.950 . S
H2942 C2968 0.950 . S
H2943 C2970 0.950 . S
H2944 C2973 0.950 . S
H2945 C2974 0.950 . S
H2946 C2976 0.950 . S
H2947 C2977 0.950 . S
C2948 H2930 0.951 . S
C2948 C2949 1.366 . S
C2948 C2950 1.388 . S
C2949 C2948 1.366 . S
C2949 C2953 1.385 . S
C2950 H2931 0.951 . S
C2950 C2948 1.388 . S
C2950 C2951 1.366 . S
C2951 C2950 1.366 . S
C2951 C2952 1.414 . S
C2951 C2954 1.499 . S
C2952 H2932 0.950 . S
C2952 C2951 1.414 . S
C2952 C2953 1.374 . S
C2953 H2933 0.950 . S
C2953 C2949 1.385 . S
C2953 C2952 1.374 . S
C2954 C2951 1.499 . S
C2954 C2955 1.373 . S
C2954 C2956 1.389 . S
C2955 H2934 0.950 . S
C2955 C2954 1.373 . S
C2955 C2971 1.377 . S
C2956 C2954 1.389 . S
C2956 C2957 1.524 . S
C2956 C2970 1.377 . S
C2957 C2956 1.524 . S
C2957 C2958 1.397 . S
C2957 C2962 1.363 . S
C2958 H2935 0.950 . S
C2958 C2957 1.397 . S
C2958 C2959 1.334 . S
C2959 H2936 0.950 . S
C2959 C2958 1.334 . S
C2959 C2960 1.287 . S
C2960 C2959 1.287 . S
C2960 C2961 1.524 . S
C2960 H2979 0.913 . S
C2961 H2937 0.950 . S
C2961 C2960 1.524 . S
C2961 C2962 1.415 . S
C2962 H2938 0.950 . S
C2962 C2957 1.363 . S
C2962 C2961 1.415 . S
C2963 H2939 0.951 . S
C2963 C2964 1.366 . S
C2963 C2965 1.388 . S
C2964 C2963 1.366 . S
C2964 C2968 1.385 . S
C2965 H2940 0.951 . S
C2965 C2963 1.388 . S
C2965 C2966 1.366 . S
C2966 C2965 1.366 . S
C2966 C2967 1.414 . S
C2966 C2969 1.499 . S
C2967 H2941 0.950 . S
C2967 C2966 1.414 . S
C2967 C2968 1.374 . S
C2968 H2942 0.950 . S
C2968 C2964 1.385 . S
C2968 C2967 1.374 . S
C2969 C2966 1.499 . S
C2969 C2970 1.373 . S
C2969 C2971 1.389 . S
C2970 H2943 0.950 . S
C2970 C2956 1.377 . S
C2970 C2969 1.373 . S
C2971 C2955 1.377 . S
C2971 C2969 1.389 . S
C2971 C2972 1.524 . S
C2972 C2971 1.524 . S
C2972 C2973 1.397 . S
C2972 C2977 1.363 . S
C2973 H2944 0.950 . S
C2973 C2972 1.397 . S
C2973 C2974 1.334 . S
C2974 H2945 0.950 . S
C2974 C2973 1.334 . S
C2974 C2975 1.287 . S
C2975 C2974 1.287 . S
C2975 C2976 1.524 . S
C2975 H2978 0.999 . S
C2976 H2946 0.950 . S
C2976 C2975 1.524 . S
C2976 C2977 1.415 . S
C2977 H2947 0.950 . S
C2977 C2972 1.363 . S
C2977 C2976 1.415 . S
H2978 C2975 0.999 . S
H2979 C2960 0.913 . S
H2980 C2998 0.951 . S
H2981 C3000 0.951 . S
H2982 C3002 0.950 . S
H2983 C3003 0.950 . S
H2984 C3005 0.950 . S
H2985 C3008 0.950 . S
H2986 C3009 0.950 . S
H2987 C3011 0.950 . S
H2988 C3012 0.950 . S
H2989 C3013 0.951 . S
H2990 C3015 0.951 . S
H2991 C3017 0.950 . S
H2992 C3018 0.950 . S
H2993 C3020 0.950 . S
H2994 C3023 0.950 . S
H2995 C3024 0.950 . S
H2996 C3026 0.950 . S
H2997 C3027 0.950 . S
C2998 H2980 0.951 . S
C2998 C2999 1.366 . S
C2998 C3000 1.388 . S
C2999 C2998 1.366 . S
C2999 C3003 1.385 . S
C3000 H2981 0.951 . S
C3000 C2998 1.388 . S
C3000 C3001 1.366 . S
C3001 C3000 1.366 . S
C3001 C3002 1.414 . S
C3001 C3004 1.499 . S
C3002 H2982 0.950 . S
C3002 C3001 1.414 . S
C3002 C3003 1.374 . S
C3003 H2983 0.950 . S
C3003 C2999 1.385 . S
C3003 C3002 1.374 . S
C3004 C3001 1.499 . S
C3004 C3005 1.373 . S
C3004 C3006 1.389 . S
C3005 H2984 0.950 . S
C3005 C3004 1.373 . S
C3005 C3021 1.377 . S
C3006 C3004 1.389 . S
C3006 C3007 1.524 . S
C3006 C3020 1.377 . S
C3007 C3006 1.524 . S
C3007 C3008 1.397 . S
C3007 C3012 1.363 . S
C3008 H2985 0.950 . S
C3008 C3007 1.397 . S
C3008 C3009 1.334 . S
C3009 H2986 0.950 . S
C3009 C3008 1.334 . S
C3009 C3010 1.287 . S
C3010 C3009 1.287 . S
C3010 C3011 1.524 . S
C3010 H3029 0.913 . S
C3011 H2987 0.950 . S
C3011 C3010 1.524 . S
C3011 C3012 1.415 . S
C3012 H2988 0.950 . S
C3012 C3007 1.363 . S
C3012 C3011 1.415 . S
C3013 H2989 0.951 . S
C3013 C3014 1.366 . S
C3013 C3015 1.388 . S
C3014 C3013 1.366 . S
C3014 C3018 1.385 . S
C3015 H2990 0.951 . S
C3015 C3013 1.388 . S
C3015 C3016 1.366 . S
C3016 C3015 1.366 . S
C3016 C3017 1.414 . S
C3016 C3019 1.499 . S
C3017 H2991 0.950 . S
C3017 C3016 1.414 . S
C3017 C3018 1.374 . S
C3018 H2992 0.950 . S
C3018 C3014 1.385 . S
C3018 C3017 1.374 . S
C3019 C3016 1.499 . S
C3019 C3020 1.373 . S
C3019 C3021 1.389 . S
C3020 H2993 0.950 . S
C3020 C3006 1.377 . S
C3020 C3019 1.373 . S
C3021 C3005 1.377 . S
C3021 C3019 1.389 . S
C3021 C3022 1.524 . S
C3022 C3021 1.524 . S
C3022 C3023 1.397 . S
C3022 C3027 1.363 . S
C3023 H2994 0.950 . S
C3023 C3022 1.397 . S
C3023 C3024 1.334 . S
C3024 H2995 0.950 . S
C3024 C3023 1.334 . S
C3024 C3025 1.287 . S
C3025 C3024 1.287 . S
C3025 C3026 1.524 . S
C3025 H3028 0.999 . S
C3026 H2996 0.950 . S
C3026 C3025 1.524 . S
C3026 C3027 1.415 . S
C3027 H2997 0.950 . S
C3027 C3022 1.363 . S
C3027 C3026 1.415 . S
H3028 C3025 0.999 . S
H3029 C3010 0.913 . S
H3030 C3048 0.951 . S
H3031 C3050 0.951 . S
H3032 C3052 0.950 . S
H3033 C3053 0.950 . S
H3034 C3055 0.950 . S
H3035 C3058 0.950 . S
H3036 C3059 0.950 . S
H3037 C3061 0.950 . S
H3038 C3062 0.950 . S
H3039 C3063 0.951 . S
H3040 C3065 0.951 . S
H3041 C3067 0.950 . S
H3042 C3068 0.950 . S
H3043 C3070 0.950 . S
H3044 C3073 0.950 . S
H3045 C3074 0.950 . S
H3046 C3076 0.950 . S
H3047 C3077 0.950 . S
C3048 H3030 0.951 . S
C3048 C3049 1.366 . S
C3048 C3050 1.388 . S
C3049 C3048 1.366 . S
C3049 C3053 1.385 . S
C3050 H3031 0.951 . S
C3050 C3048 1.388 . S
C3050 C3051 1.366 . S
C3051 C3050 1.366 . S
C3051 C3052 1.414 . S
C3051 C3054 1.499 . S
C3052 H3032 0.950 . S
C3052 C3051 1.414 . S
C3052 C3053 1.374 . S
C3053 H3033 0.950 . S
C3053 C3049 1.385 . S
C3053 C3052 1.374 . S
C3054 C3051 1.499 . S
C3054 C3055 1.373 . S
C3054 C3056 1.389 . S
C3055 H3034 0.950 . S
C3055 C3054 1.373 . S
C3055 C3071 1.377 . S
C3056 C3054 1.389 . S
C3056 C3057 1.524 . S
C3056 C3070 1.377 . S
C3057 C3056 1.524 . S
C3057 C3058 1.397 . S
C3057 C3062 1.363 . S
C3058 H3035 0.950 . S
C3058 C3057 1.397 . S
C3058 C3059 1.334 . S
C3059 H3036 0.950 . S
C3059 C3058 1.334 . S
C3059 C3060 1.287 . S
C3060 C3059 1.287 . S
C3060 C3061 1.524 . S
C3060 H3079 0.913 . S
C3061 H3037 0.950 . S
C3061 C3060 1.524 . S
C3061 C3062 1.415 . S
C3062 H3038 0.950 . S
C3062 C3057 1.363 . S
C3062 C3061 1.415 . S
C3063 H3039 0.951 . S
C3063 C3064 1.366 . S
C3063 C3065 1.388 . S
C3064 C3063 1.366 . S
C3064 C3068 1.385 . S
C3065 H3040 0.951 . S
C3065 C3063 1.388 . S
C3065 C3066 1.366 . S
C3066 C3065 1.366 . S
C3066 C3067 1.414 . S
C3066 C3069 1.499 . S
C3067 H3041 0.950 . S
C3067 C3066 1.414 . S
C3067 C3068 1.374 . S
C3068 H3042 0.950 . S
C3068 C3064 1.385 . S
C3068 C3067 1.374 . S
C3069 C3066 1.499 . S
C3069 C3070 1.373 . S
C3069 C3071 1.389 . S
C3070 H3043 0.950 . S
C3070 C3056 1.377 . S
C3070 C3069 1.373 . S
C3071 C3055 1.377 . S
C3071 C3069 1.389 . S
C3071 C3072 1.524 . S
C3072 C3071 1.524 . S
C3072 C3073 1.397 . S
C3072 C3077 1.363 . S
C3073 H3044 0.950 . S
C3073 C3072 1.397 . S
C3073 C3074 1.334 . S
C3074 H3045 0.950 . S
C3074 C3073 1.334 . S
C3074 C3075 1.287 . S
C3075 C3074 1.287 . S
C3075 C3076 1.524 . S
C3075 H3078 0.999 . S
C3076 H3046 0.950 . S
C3076 C3075 1.524 . S
C3076 C3077 1.415 . S
C3077 H3047 0.950 . S
C3077 C3072 1.363 . S
C3077 C3076 1.415 . S
H3078 C3075 0.999 . S
H3079 C3060 0.913 . S
H3080 C3098 0.951 . S
H3081 C3100 0.951 . S
H3082 C3102 0.950 . S
H3083 C3103 0.950 . S
H3084 C3105 0.950 . S
H3085 C3108 0.950 . S
H3086 C3109 0.950 . S
H3087 C3111 0.950 . S
H3088 C3112 0.950 . S
H3089 C3113 0.951 . S
H3090 C3115 0.951 . S
H3091 C3117 0.950 . S
H3092 C3118 0.950 . S
H3093 C3120 0.950 . S
H3094 C3123 0.950 . S
H3095 C3124 0.950 . S
H3096 C3126 0.950 1_655 S
H3097 C3127 0.916 1_655 S
C3098 H3080 0.951 . S
C3098 C3099 1.366 . S
C3098 C3100 1.388 . S
C3099 C3098 1.366 . S
C3099 C3103 1.385 . S
C3100 H3081 0.951 . S
C3100 C3098 1.388 . S
C3100 C3101 1.366 . S
C3101 C3100 1.366 . S
C3101 C3102 1.414 . S
C3101 C3104 1.499 . S
C3102 H3082 0.950 . S
C3102 C3101 1.414 . S
C3102 C3103 1.374 . S
C3103 H3083 0.950 . S
C3103 C3099 1.385 . S
C3103 C3102 1.374 . S
C3104 C3101 1.499 . S
C3104 C3105 1.373 . S
C3104 C3106 1.389 . S
C3105 H3084 0.950 . S
C3105 C3104 1.373 . S
C3105 C3121 1.377 . S
C3106 C3104 1.389 . S
C3106 C3107 1.524 . S
C3106 C3120 1.377 . S
C3107 C3106 1.524 . S
C3107 C3108 1.397 . S
C3107 C3112 1.363 . S
C3108 H3085 0.950 . S
C3108 C3107 1.397 . S
C3108 C3109 1.334 . S
C3109 H3086 0.950 . S
C3109 C3108 1.334 . S
C3109 C3110 1.287 . S
C3110 C3109 1.287 . S
C3110 C3111 1.524 . S
C3110 H3129 0.913 . S
C3111 H3087 0.950 . S
C3111 C3110 1.524 . S
C3111 C3112 1.415 . S
C3112 H3088 0.950 . S
C3112 C3107 1.363 . S
C3112 C3111 1.415 . S
C3113 H3089 0.951 . S
C3113 C3114 1.366 . S
C3113 C3115 1.388 . S
C3114 C3113 1.366 . S
C3114 C3118 1.385 . S
C3115 H3090 0.951 . S
C3115 C3113 1.388 . S
C3115 C3116 1.366 . S
C3116 C3115 1.366 . S
C3116 C3117 1.414 . S
C3116 C3119 1.499 . S
C3117 H3091 0.950 . S
C3117 C3116 1.414 . S
C3117 C3118 1.374 . S
C3118 H3092 0.950 . S
C3118 C3114 1.385 . S
C3118 C3117 1.374 . S
C3119 C3116 1.499 . S
C3119 C3120 1.373 . S
C3119 C3121 1.389 . S
C3120 H3093 0.950 . S
C3120 C3106 1.377 . S
C3120 C3119 1.373 . S
C3121 C3105 1.377 . S
C3121 C3119 1.389 . S
C3121 C3122 1.524 . S
C3122 C3121 1.524 . S
C3122 C3123 1.397 . S
C3122 C3127 1.363 . S
C3123 H3094 0.950 . S
C3123 C3122 1.397 . S
C3123 C3124 1.334 . S
C3124 H3095 0.950 . S
C3124 C3123 1.334 . S
C3124 C3125 1.287 . S
C3125 C3124 1.287 . S
C3125 C3126 1.524 . S
C3125 H3128 0.999 . S
C3126 H3096 0.950 1_455 S
C3126 C3125 1.524 . S
C3126 C3127 1.415 . S
C3127 H3097 0.916 1_455 S
C3127 C3122 1.363 . S
C3127 C3126 1.415 . S
H3128 C3125 0.999 . S
H3129 C3110 0.913 . S
H3130 C3148 0.951 . S
H3131 C3150 0.951 . S
H3132 C3152 0.950 . S
H3133 C3153 0.950 . S
H3134 C3155 0.950 . S
H3135 C3158 0.950 . S
H3136 C3159 0.950 . S
H3137 C3161 0.950 . S
H3138 C3162 0.950 . S
H3139 C3163 0.951 . S
H3140 C3165 0.951 . S
H3141 C3167 0.950 . S
H3142 C3168 0.950 . S
H3143 C3170 0.950 . S
H3144 C3173 0.950 . S
H3145 C3174 0.950 . S
H3146 C3176 0.950 . S
H3147 C3177 0.950 . S
C3148 H3130 0.951 . S
C3148 C3149 1.366 . S
C3148 C3150 1.388 . S
C3149 C3148 1.366 . S
C3149 C3153 1.385 . S
C3150 H3131 0.951 . S
C3150 C3148 1.388 . S
C3150 C3151 1.366 . S
C3151 C3150 1.366 . S
C3151 C3152 1.414 . S
C3151 C3154 1.499 . S
C3152 H3132 0.950 . S
C3152 C3151 1.414 . S
C3152 C3153 1.374 . S
C3153 H3133 0.950 . S
C3153 C3149 1.385 . S
C3153 C3152 1.374 . S
C3154 C3151 1.499 . S
C3154 C3155 1.373 . S
C3154 C3156 1.389 . S
C3155 H3134 0.950 . S
C3155 C3154 1.373 . S
C3155 C3171 1.377 . S
C3156 C3154 1.389 . S
C3156 C3157 1.524 . S
C3156 C3170 1.377 . S
C3157 C3156 1.524 . S
C3157 C3158 1.397 . S
C3157 C3162 1.363 . S
C3158 H3135 0.950 . S
C3158 C3157 1.397 . S
C3158 C3159 1.334 . S
C3159 H3136 0.950 . S
C3159 C3158 1.334 . S
C3159 C3160 1.287 . S
C3160 C3159 1.287 . S
C3160 C3161 1.524 . S
C3160 H3179 0.913 . S
C3161 H3137 0.950 . S
C3161 C3160 1.524 . S
C3161 C3162 1.415 . S
C3162 H3138 0.950 . S
C3162 C3157 1.363 . S
C3162 C3161 1.415 . S
C3163 H3139 0.951 . S
C3163 C3164 1.366 . S
C3163 C3165 1.388 . S
C3164 C3163 1.366 . S
C3164 C3168 1.385 . S
C3165 H3140 0.951 . S
C3165 C3163 1.388 . S
C3165 C3166 1.366 . S
C3166 C3165 1.366 . S
C3166 C3167 1.414 . S
C3166 C3169 1.499 . S
C3167 H3141 0.950 . S
C3167 C3166 1.414 . S
C3167 C3168 1.374 . S
C3168 H3142 0.950 . S
C3168 C3164 1.385 . S
C3168 C3167 1.374 . S
C3169 C3166 1.499 . S
C3169 C3170 1.373 . S
C3169 C3171 1.389 . S
C3170 H3143 0.950 . S
C3170 C3156 1.377 . S
C3170 C3169 1.373 . S
C3171 C3155 1.377 . S
C3171 C3169 1.389 . S
C3171 C3172 1.524 . S
C3172 C3171 1.524 . S
C3172 C3173 1.397 . S
C3172 C3177 1.363 . S
C3173 H3144 0.950 . S
C3173 C3172 1.397 . S
C3173 C3174 1.334 . S
C3174 H3145 0.950 . S
C3174 C3173 1.334 . S
C3174 C3175 1.287 . S
C3175 C3174 1.287 . S
C3175 C3176 1.524 . S
C3175 H3178 0.999 . S
C3176 H3146 0.950 . S
C3176 C3175 1.524 . S
C3176 C3177 1.415 . S
C3177 H3147 0.950 . S
C3177 C3172 1.363 . S
C3177 C3176 1.415 . S
H3178 C3175 0.999 . S
H3179 C3160 0.913 . S
H3180 C3198 0.951 . S
H3181 C3200 0.951 . S
H3182 C3202 0.950 . S
H3183 C3203 0.950 . S
H3184 C3205 0.950 . S
H3185 C3208 0.950 . S
H3186 C3209 0.950 . S
H3187 C3211 0.950 . S
H3188 C3212 0.950 . S
H3189 C3213 0.951 . S
H3190 C3215 0.951 . S
H3191 C3217 0.950 . S
H3192 C3218 0.950 . S
H3193 C3220 0.950 . S
H3194 C3223 0.950 . S
H3195 C3224 0.950 . S
H3196 C3226 0.950 . S
H3197 C3227 0.950 . S
C3198 H3180 0.951 . S
C3198 C3199 1.366 . S
C3198 C3200 1.388 . S
C3199 C3198 1.366 . S
C3199 C3203 1.385 . S
C3200 H3181 0.951 . S
C3200 C3198 1.388 . S
C3200 C3201 1.366 . S
C3201 C3200 1.366 . S
C3201 C3202 1.414 . S
C3201 C3204 1.499 . S
C3202 H3182 0.950 . S
C3202 C3201 1.414 . S
C3202 C3203 1.374 . S
C3203 H3183 0.950 . S
C3203 C3199 1.385 . S
C3203 C3202 1.374 . S
C3204 C3201 1.499 . S
C3204 C3205 1.373 . S
C3204 C3206 1.389 . S
C3205 H3184 0.950 . S
C3205 C3204 1.373 . S
C3205 C3221 1.377 . S
C3206 C3204 1.389 . S
C3206 C3207 1.524 . S
C3206 C3220 1.377 . S
C3207 C3206 1.524 . S
C3207 C3208 1.397 . S
C3207 C3212 1.363 . S
C3208 H3185 0.950 . S
C3208 C3207 1.397 . S
C3208 C3209 1.334 . S
C3209 H3186 0.950 . S
C3209 C3208 1.334 . S
C3209 C3210 1.287 . S
C3210 C3209 1.287 . S
C3210 C3211 1.524 . S
C3210 H3229 0.913 . S
C3211 H3187 0.950 . S
C3211 C3210 1.524 . S
C3211 C3212 1.415 . S
C3212 H3188 0.950 . S
C3212 C3207 1.363 . S
C3212 C3211 1.415 . S
C3213 H3189 0.951 . S
C3213 C3214 1.366 . S
C3213 C3215 1.388 1_554 S
C3214 C3213 1.366 . S
C3214 C3218 1.385 1_554 S
C3215 H3190 0.951 . S
C3215 C3213 1.388 1_556 S
C3215 C3216 1.366 . S
C3216 C3215 1.366 . S
C3216 C3217 1.414 . S
C3216 C3219 1.499 . S
C3217 H3191 0.950 . S
C3217 C3216 1.414 . S
C3217 C3218 1.374 . S
C3218 H3192 0.950 . S
C3218 C3214 1.385 1_556 S
C3218 C3217 1.374 . S
C3219 C3216 1.499 . S
C3219 C3220 1.373 . S
C3219 C3221 1.389 . S
C3220 H3193 0.950 . S
C3220 C3206 1.377 . S
C3220 C3219 1.373 . S
C3221 C3205 1.377 . S
C3221 C3219 1.389 . S
C3221 C3222 1.524 . S
C3222 C3221 1.524 . S
C3222 C3223 1.397 . S
C3222 C3227 1.363 . S
C3223 H3194 0.950 . S
C3223 C3222 1.397 . S
C3223 C3224 1.334 . S
C3224 H3195 0.950 . S
C3224 C3223 1.334 . S
C3224 C3225 1.287 . S
C3225 C3224 1.287 . S
C3225 C3226 1.524 . S
C3225 H3228 0.999 . S
C3226 H3196 0.950 . S
C3226 C3225 1.524 . S
C3226 C3227 1.415 . S
C3227 H3197 0.950 . S
C3227 C3222 1.363 . S
C3227 C3226 1.415 . S
H3228 C3225 0.999 . S
H3229 C3210 0.913 . S
H3230 C3248 0.951 . S
H3231 C3250 0.951 . S
H3232 C3252 0.950 . S
H3233 C3253 0.950 . S
H3234 C3255 0.950 . S
H3235 C3258 0.950 . S
H3236 C3259 0.950 . S
H3237 C3261 0.950 . S
H3238 C3262 0.950 . S
H3239 C3263 0.951 . S
H3240 C3265 0.951 . S
H3241 C3267 0.950 . S
H3242 C3268 0.950 . S
H3243 C3270 0.950 . S
H3244 C3273 0.950 . S
H3245 C3274 0.950 . S
H3246 C3276 0.950 . S
H3247 C3277 0.950 . S
C3248 H3230 0.951 . S
C3248 C3249 1.366 . S
C3248 C3250 1.388 . S
C3249 C3248 1.366 . S
C3249 C3253 1.385 . S
C3250 H3231 0.951 . S
C3250 C3248 1.388 . S
C3250 C3251 1.366 . S
C3251 C3250 1.366 . S
C3251 C3252 1.414 . S
C3251 C3254 1.499 . S
C3252 H3232 0.950 . S
C3252 C3251 1.414 . S
C3252 C3253 1.374 . S
C3253 H3233 0.950 . S
C3253 C3249 1.385 . S
C3253 C3252 1.374 . S
C3254 C3251 1.499 . S
C3254 C3255 1.373 . S
C3254 C3256 1.389 . S
C3255 H3234 0.950 . S
C3255 C3254 1.373 . S
C3255 C3271 1.377 . S
C3256 C3254 1.389 . S
C3256 C3257 1.524 . S
C3256 C3270 1.377 . S
C3257 C3256 1.524 . S
C3257 C3258 1.397 . S
C3257 C3262 1.363 . S
C3258 H3235 0.950 . S
C3258 C3257 1.397 . S
C3258 C3259 1.334 . S
C3259 H3236 0.950 . S
C3259 C3258 1.334 . S
C3259 C3260 1.287 . S
C3260 C3259 1.287 . S
C3260 C3261 1.524 . S
C3260 H3279 0.913 . S
C3261 H3237 0.950 . S
C3261 C3260 1.524 . S
C3261 C3262 1.415 . S
C3262 H3238 0.950 . S
C3262 C3257 1.363 . S
C3262 C3261 1.415 . S
C3263 H3239 0.951 . S
C3263 C3264 1.366 . S
C3263 C3265 1.388 . S
C3264 C3263 1.366 . S
C3264 C3268 1.385 . S
C3265 H3240 0.951 . S
C3265 C3263 1.388 . S
C3265 C3266 1.366 . S
C3266 C3265 1.366 . S
C3266 C3267 1.414 . S
C3266 C3269 1.499 . S
C3267 H3241 0.950 . S
C3267 C3266 1.414 . S
C3267 C3268 1.374 . S
C3268 H3242 0.950 . S
C3268 C3264 1.385 . S
C3268 C3267 1.374 . S
C3269 C3266 1.499 . S
C3269 C3270 1.373 . S
C3269 C3271 1.389 . S
C3270 H3243 0.950 . S
C3270 C3256 1.377 . S
C3270 C3269 1.373 . S
C3271 C3255 1.377 . S
C3271 C3269 1.389 . S
C3271 C3272 1.524 . S
C3272 C3271 1.524 . S
C3272 C3273 1.397 . S
C3272 C3277 1.363 . S
C3273 H3244 0.950 . S
C3273 C3272 1.397 . S
C3273 C3274 1.334 . S
C3274 H3245 0.950 . S
C3274 C3273 1.334 . S
C3274 C3275 1.287 . S
C3275 C3274 1.287 . S
C3275 C3276 1.524 . S
C3275 H3278 0.999 . S
C3276 H3246 0.950 . S
C3276 C3275 1.524 . S
C3276 C3277 1.415 . S
C3277 H3247 0.950 . S
C3277 C3272 1.363 . S
C3277 C3276 1.415 . S
H3278 C3275 0.999 . S
H3279 C3260 0.913 . S
H3280 C3298 0.951 . S
H3281 C3300 0.951 . S
H3282 C3302 0.950 . S
H3283 C3303 0.950 . S
H3284 C3305 0.950 . S
H3285 C3308 0.950 . S
H3286 C3309 0.950 . S
H3287 C3311 0.950 . S
H3288 C3312 0.950 1_545 S
H3289 C3313 0.951 . S
H3290 C3315 0.951 . S
H3291 C3317 0.950 . S
H3292 C3318 0.934 1_554 S
H3293 C3320 0.950 . S
H3294 C3323 0.950 . S
H3295 C3324 0.950 . S
H3296 C3326 0.950 . S
H3297 C3327 0.950 . S
C3298 H3280 0.951 . S
C3298 C3299 1.366 . S
C3298 C3300 1.388 . S
C3299 C3298 1.366 . S
C3299 C3303 1.385 . S
C3300 H3281 0.951 . S
C3300 C3298 1.388 . S
C3300 C3301 1.366 . S
C3301 C3300 1.366 . S
C3301 C3302 1.414 . S
C3301 C3304 1.499 . S
C3302 H3282 0.950 . S
C3302 C3301 1.414 . S
C3302 C3303 1.374 . S
C3303 H3283 0.950 . S
C3303 C3299 1.385 . S
C3303 C3302 1.374 . S
C3304 C3301 1.499 . S
C3304 C3305 1.373 . S
C3304 C3306 1.389 . S
C3305 H3284 0.950 . S
C3305 C3304 1.373 . S
C3305 C3321 1.377 . S
C3306 C3304 1.389 . S
C3306 C3307 1.525 1_545 S
C3306 C3320 1.377 . S
C3307 C3306 1.525 1_565 S
C3307 C3308 1.397 . S
C3307 C3312 1.362 . S
C3308 H3285 0.950 . S
C3308 C3307 1.397 . S
C3308 C3309 1.334 . S
C3309 H3286 0.950 . S
C3309 C3308 1.334 . S
C3309 C3310 1.287 . S
C3310 C3309 1.287 . S
C3310 C3311 1.524 . S
C3310 H3329 0.913 . S
C3311 H3287 0.950 . S
C3311 C3310 1.524 . S
C3311 C3312 1.415 . S
C3312 H3288 0.950 1_565 S
C3312 C3307 1.362 . S
C3312 C3311 1.415 . S
C3313 H3289 0.951 . S
C3313 C3314 1.366 . S
C3313 C3315 1.388 . S
C3314 C3313 1.366 . S
C3314 C3318 1.385 . S
C3315 H3290 0.951 . S
C3315 C3313 1.388 . S
C3315 C3316 1.366 . S
C3316 C3315 1.366 . S
C3316 C3317 1.414 . S
C3316 C3319 1.499 . S
C3317 H3291 0.950 . S
C3317 C3316 1.414 . S
C3317 C3318 1.374 . S
C3318 H3292 0.934 1_556 S
C3318 C3314 1.385 . S
C3318 C3317 1.374 . S
C3319 C3316 1.499 . S
C3319 C3320 1.373 . S
C3319 C3321 1.389 . S
C3320 H3293 0.950 . S
C3320 C3306 1.377 . S
C3320 C3319 1.373 . S
C3321 C3305 1.377 . S
C3321 C3319 1.389 . S
C3321 C3322 1.524 . S
C3322 C3321 1.524 . S
C3322 C3323 1.397 . S
C3322 C3327 1.363 . S
C3323 H3294 0.950 . S
C3323 C3322 1.397 . S
C3323 C3324 1.334 . S
C3324 H3295 0.950 . S
C3324 C3323 1.334 . S
C3324 C3325 1.287 . S
C3325 C3324 1.287 . S
C3325 C3326 1.524 . S
C3325 H3328 0.999 . S
C3326 H3296 0.950 . S
C3326 C3325 1.524 . S
C3326 C3327 1.415 . S
C3327 H3297 0.950 . S
C3327 C3322 1.363 . S
C3327 C3326 1.415 . S
H3328 C3325 0.999 . S
H3329 C3310 0.913 . S
H3330 C3348 0.951 . S
H3331 C3350 0.951 . S
H3332 C3352 0.950 . S
H3333 C3353 0.950 . S
H3334 C3355 0.950 . S
H3335 C3358 0.950 . S
H3336 C3359 0.950 . S
H3337 C3361 0.950 . S
H3338 C3362 0.950 . S
H3339 C3363 0.951 . S
H3340 C3365 0.951 . S
H3341 C3367 0.950 . S
H3342 C3368 0.950 . S
H3343 C3370 0.950 . S
H3344 C3373 0.950 . S
H3345 C3374 0.950 . S
H3346 C3376 0.950 . S
H3347 C3377 0.950 . S
C3348 H3330 0.951 . S
C3348 C3349 1.366 . S
C3348 C3350 1.388 . S
C3349 C3348 1.366 . S
C3349 C3353 1.385 . S
C3350 H3331 0.951 . S
C3350 C3348 1.388 . S
C3350 C3351 1.366 . S
C3351 C3350 1.366 . S
C3351 C3352 1.414 . S
C3351 C3354 1.499 . S
C3352 H3332 0.950 . S
C3352 C3351 1.414 . S
C3352 C3353 1.374 . S
C3353 H3333 0.950 . S
C3353 C3349 1.385 . S
C3353 C3352 1.374 . S
C3354 C3351 1.499 . S
C3354 C3355 1.373 . S
C3354 C3356 1.389 . S
C3355 H3334 0.950 . S
C3355 C3354 1.373 . S
C3355 C3371 1.377 . S
C3356 C3354 1.389 . S
C3356 C3357 1.524 . S
C3356 C3370 1.377 . S
C3357 C3356 1.524 . S
C3357 C3358 1.397 . S
C3357 C3362 1.363 . S
C3358 H3335 0.950 . S
C3358 C3357 1.397 . S
C3358 C3359 1.334 . S
C3359 H3336 0.950 . S
C3359 C3358 1.334 . S
C3359 C3360 1.287 . S
C3360 C3359 1.287 . S
C3360 C3361 1.524 . S
C3360 H3379 0.913 . S
C3361 H3337 0.950 . S
C3361 C3360 1.524 . S
C3361 C3362 1.415 . S
C3362 H3338 0.950 . S
C3362 C3357 1.363 . S
C3362 C3361 1.415 . S
C3363 H3339 0.951 . S
C3363 C3364 1.366 . S
C3363 C3365 1.388 . S
C3364 C3363 1.366 . S
C3364 C3368 1.385 . S
C3365 H3340 0.951 . S
C3365 C3363 1.388 . S
C3365 C3366 1.366 . S
C3366 C3365 1.366 . S
C3366 C3367 1.414 . S
C3366 C3369 1.499 . S
C3367 H3341 0.950 . S
C3367 C3366 1.414 . S
C3367 C3368 1.374 . S
C3368 H3342 0.950 . S
C3368 C3364 1.385 . S
C3368 C3367 1.374 . S
C3369 C3366 1.499 . S
C3369 C3370 1.373 . S
C3369 C3371 1.389 . S
C3370 H3343 0.950 . S
C3370 C3356 1.377 . S
C3370 C3369 1.373 . S
C3371 C3355 1.377 . S
C3371 C3369 1.389 . S
C3371 C3372 1.524 . S
C3372 C3371 1.524 . S
C3372 C3373 1.397 . S
C3372 C3377 1.363 . S
C3373 H3344 0.950 . S
C3373 C3372 1.397 . S
C3373 C3374 1.334 . S
C3374 H3345 0.950 . S
C3374 C3373 1.334 . S
C3374 C3375 1.287 . S
C3375 C3374 1.287 . S
C3375 C3376 1.524 . S
C3375 H3378 0.999 . S
C3376 H3346 0.950 . S
C3376 C3375 1.524 . S
C3376 C3377 1.415 . S
C3377 H3347 0.950 . S
C3377 C3372 1.363 . S
C3377 C3376 1.415 . S
H3378 C3375 0.999 . S
H3379 C3360 0.913 . S
H3380 C3398 0.951 . S
H3381 C3400 0.951 . S
H3382 C3402 0.950 . S
H3383 C3403 0.950 . S
H3384 C3405 0.950 1_565 S
H3385 C3408 0.950 . S
H3386 C3409 0.950 . S
H3387 C3411 0.950 . S
H3388 C3412 0.950 . S
H3389 C3413 0.951 . S
H3390 C3415 0.951 . S
H3391 C3417 0.950 . S
H3392 C3418 0.950 . S
H3393 C3420 0.950 . S
H3394 C3423 0.950 . S
H3395 C3424 0.950 . S
H3396 C3426 0.950 . S
H3397 C3427 0.950 . S
C3398 H3380 0.951 . S
C3398 C3399 1.366 . S
C3398 C3400 1.388 . S
C3399 C3398 1.366 . S
C3399 C3403 1.385 . S
C3400 H3381 0.951 . S
C3400 C3398 1.388 . S
C3400 C3401 1.366 . S
C3401 C3400 1.366 . S
C3401 C3402 1.414 . S
C3401 C3404 1.499 . S
C3402 H3382 0.950 . S
C3402 C3401 1.414 . S
C3402 C3403 1.374 . S
C3403 H3383 0.950 . S
C3403 C3399 1.385 . S
C3403 C3402 1.374 . S
C3404 C3401 1.499 . S
C3404 C3405 1.373 . S
C3404 C3406 1.389 . S
C3405 H3384 0.950 1_545 S
C3405 C3404 1.373 . S
C3405 C3421 1.377 . S
C3406 C3404 1.389 . S
C3406 C3407 1.524 . S
C3406 C3420 1.377 . S
C3407 C3406 1.524 . S
C3407 C3408 1.397 . S
C3407 C3412 1.363 . S
C3408 H3385 0.950 . S
C3408 C3407 1.397 . S
C3408 C3409 1.334 . S
C3409 H3386 0.950 . S
C3409 C3408 1.334 . S
C3409 C3410 1.287 . S
C3410 C3409 1.287 . S
C3410 C3411 1.524 . S
C3410 H3429 0.913 . S
C3411 H3387 0.950 . S
C3411 C3410 1.524 . S
C3411 C3412 1.415 . S
C3412 H3388 0.950 . S
C3412 C3407 1.363 . S
C3412 C3411 1.415 . S
C3413 H3389 0.951 . S
C3413 C3414 1.366 . S
C3413 C3415 1.388 . S
C3414 C3413 1.366 . S
C3414 C3418 1.385 . S
C3415 H3390 0.951 . S
C3415 C3413 1.388 . S
C3415 C3416 1.366 . S
C3416 C3415 1.366 . S
C3416 C3417 1.414 . S
C3416 C3419 1.499 . S
C3417 H3391 0.950 . S
C3417 C3416 1.414 . S
C3417 C3418 1.374 . S
C3418 H3392 0.950 . S
C3418 C3414 1.385 . S
C3418 C3417 1.374 . S
C3419 C3416 1.499 . S
C3419 C3420 1.373 . S
C3419 C3421 1.389 . S
C3420 H3393 0.950 . S
C3420 C3406 1.377 . S
C3420 C3419 1.373 . S
C3421 C3405 1.377 . S
C3421 C3419 1.389 . S
C3421 C3422 1.524 1_545 S
C3422 C3421 1.524 1_565 S
C3422 C3423 1.397 . S
C3422 C3427 1.363 . S
C3423 H3394 0.950 . S
C3423 C3422 1.397 . S
C3423 C3424 1.334 . S
C3424 H3395 0.950 . S
C3424 C3423 1.334 . S
C3424 C3425 1.287 . S
C3425 C3424 1.287 . S
C3425 C3426 1.524 . S
C3425 H3428 0.999 . S
C3426 H3396 0.950 . S
C3426 C3425 1.524 . S
C3426 C3427 1.415 . S
C3427 H3397 0.950 . S
C3427 C3422 1.363 . S
C3427 C3426 1.415 . S
H3428 C3425 0.999 . S
H3429 C3410 0.913 . S
H3430 C3448 0.951 . S
H3431 C3450 0.951 . S
H3432 C3452 0.950 . S
H3433 C3453 0.950 . S
H3434 C3455 0.950 . S
H3435 C3458 0.950 . S
H3436 C3459 0.950 . S
H3437 C3461 0.950 . S
H3438 C3462 0.950 . S
H3439 C3463 0.951 . S
H3440 C3465 0.951 . S
H3441 C3467 0.950 . S
H3442 C3468 0.950 . S
H3443 C3470 0.950 . S
H3444 C3473 0.950 . S
H3445 C3474 0.950 . S
H3446 C3476 0.950 . S
H3447 C3477 0.950 . S
C3448 H3430 0.951 . S
C3448 C3449 1.366 . S
C3448 C3450 1.388 . S
C3449 C3448 1.366 . S
C3449 C3453 1.385 . S
C3450 H3431 0.951 . S
C3450 C3448 1.388 . S
C3450 C3451 1.366 . S
C3451 C3450 1.366 . S
C3451 C3452 1.414 . S
C3451 C3454 1.499 . S
C3452 H3432 0.950 . S
C3452 C3451 1.414 . S
C3452 C3453 1.374 . S
C3453 H3433 0.950 . S
C3453 C3449 1.385 . S
C3453 C3452 1.374 . S
C3454 C3451 1.499 . S
C3454 C3455 1.373 . S
C3454 C3456 1.389 . S
C3455 H3434 0.950 . S
C3455 C3454 1.373 . S
C3455 C3471 1.377 . S
C3456 C3454 1.389 . S
C3456 C3457 1.524 . S
C3456 C3470 1.377 . S
C3457 C3456 1.524 . S
C3457 C3458 1.397 . S
C3457 C3462 1.363 . S
C3458 H3435 0.950 . S
C3458 C3457 1.397 . S
C3458 C3459 1.334 . S
C3459 H3436 0.950 . S
C3459 C3458 1.334 . S
C3459 C3460 1.287 . S
C3460 C3459 1.287 . S
C3460 C3461 1.524 . S
C3460 H3479 0.913 . S
C3461 H3437 0.950 . S
C3461 C3460 1.524 . S
C3461 C3462 1.415 . S
C3462 H3438 0.950 . S
C3462 C3457 1.363 . S
C3462 C3461 1.415 . S
C3463 H3439 0.951 . S
C3463 C3464 1.366 . S
C3463 C3465 1.388 . S
C3464 C3463 1.366 . S
C3464 C3468 1.385 . S
C3465 H3440 0.951 . S
C3465 C3463 1.388 . S
C3465 C3466 1.366 . S
C3466 C3465 1.366 . S
C3466 C3467 1.414 . S
C3466 C3469 1.499 . S
C3467 H3441 0.950 . S
C3467 C3466 1.414 . S
C3467 C3468 1.374 . S
C3468 H3442 0.950 . S
C3468 C3464 1.385 . S
C3468 C3467 1.374 . S
C3469 C3466 1.499 . S
C3469 C3470 1.373 . S
C3469 C3471 1.389 . S
C3470 H3443 0.950 . S
C3470 C3456 1.377 . S
C3470 C3469 1.373 . S
C3471 C3455 1.377 . S
C3471 C3469 1.389 . S
C3471 C3472 1.524 . S
C3472 C3471 1.524 . S
C3472 C3473 1.397 . S
C3472 C3477 1.363 . S
C3473 H3444 0.950 . S
C3473 C3472 1.397 . S
C3473 C3474 1.334 . S
C3474 H3445 0.950 . S
C3474 C3473 1.334 . S
C3474 C3475 1.287 . S
C3475 C3474 1.287 . S
C3475 C3476 1.524 . S
C3475 H3478 0.999 . S
C3476 H3446 0.950 . S
C3476 C3475 1.524 . S
C3476 C3477 1.415 . S
C3477 H3447 0.950 . S
C3477 C3472 1.363 . S
C3477 C3476 1.415 . S
H3478 C3475 0.999 . S
H3479 C3460 0.913 . S
H3480 C3498 0.951 . S
H3481 C3500 0.951 . S
H3482 C3502 0.950 . S
H3483 C3503 0.950 . S
H3484 C3505 0.950 . S
H3485 C3508 0.950 . S
H3486 C3509 0.950 . S
H3487 C3511 0.950 . S
H3488 C3512 0.950 . S
H3489 C3513 0.951 . S
H3490 C3515 0.951 . S
H3491 C3517 0.950 . S
H3492 C3518 0.950 . S
H3493 C3520 0.978 . S
H3494 C3523 0.950 . S
H3495 C3524 0.950 . S
H3496 C3526 0.950 . S
H3497 C3527 0.950 . S
C3498 H3480 0.951 . S
C3498 C3499 1.366 . S
C3498 C3500 1.388 . S
C3499 C3498 1.366 . S
C3499 C3503 1.385 . S
C3500 H3481 0.951 . S
C3500 C3498 1.388 . S
C3500 C3501 1.366 . S
C3501 C3500 1.366 . S
C3501 C3502 1.414 . S
C3501 C3504 1.499 . S
C3502 H3482 0.950 . S
C3502 C3501 1.414 . S
C3502 C3503 1.374 . S
C3503 H3483 0.950 . S
C3503 C3499 1.385 . S
C3503 C3502 1.374 . S
C3504 C3501 1.499 . S
C3504 C3505 1.373 . S
C3504 C3506 1.389 . S
C3505 H3484 0.950 . S
C3505 C3504 1.373 . S
C3505 C3521 1.377 . S
C3506 C3504 1.389 . S
C3506 C3507 1.524 1_545 S
C3506 C3520 1.377 . S
C3507 C3506 1.524 1_565 S
C3507 C3508 1.397 . S
C3507 C3512 1.363 . S
C3508 H3485 0.950 . S
C3508 C3507 1.397 . S
C3508 C3509 1.334 . S
C3509 H3486 0.950 . S
C3509 C3508 1.334 . S
C3509 C3510 1.287 . S
C3510 C3509 1.287 . S
C3510 C3511 1.524 . S
C3510 H3529 0.913 . S
C3511 H3487 0.950 . S
C3511 C3510 1.524 . S
C3511 C3512 1.415 . S
C3512 H3488 0.950 . S
C3512 C3507 1.363 . S
C3512 C3511 1.415 . S
C3513 H3489 0.951 . S
C3513 C3514 1.366 . S
C3513 C3515 1.388 . S
C3514 C3513 1.366 . S
C3514 C3518 1.385 . S
C3515 H3490 0.951 . S
C3515 C3513 1.388 . S
C3515 C3516 1.366 . S
C3516 C3515 1.366 . S
C3516 C3517 1.414 . S
C3516 C3519 1.499 . S
C3517 H3491 0.950 . S
C3517 C3516 1.414 . S
C3517 C3518 1.374 . S
C3518 H3492 0.950 . S
C3518 C3514 1.385 . S
C3518 C3517 1.374 . S
C3519 C3516 1.499 . S
C3519 C3520 1.373 . S
C3519 C3521 1.389 . S
C3520 H3493 0.978 . S
C3520 C3506 1.377 . S
C3520 C3519 1.373 . S
C3521 C3505 1.377 . S
C3521 C3519 1.389 . S
C3521 C3522 1.524 . S
C3522 C3521 1.524 . S
C3522 C3523 1.397 . S
C3522 C3527 1.363 . S
C3523 H3494 0.950 . S
C3523 C3522 1.397 . S
C3523 C3524 1.334 . S
C3524 H3495 0.950 . S
C3524 C3523 1.334 . S
C3524 C3525 1.287 . S
C3525 C3524 1.287 . S
C3525 C3526 1.524 . S
C3525 H3528 0.999 . S
C3526 H3496 0.950 . S
C3526 C3525 1.524 . S
C3526 C3527 1.415 . S
C3527 H3497 0.950 . S
C3527 C3522 1.363 . S
C3527 C3526 1.415 . S
H3528 C3525 0.999 . S
H3529 C3510 0.913 . S
H3530 C3548 0.951 . S
H3531 C3550 0.951 . S
H3532 C3552 0.950 . S
H3533 C3553 0.950 . S
H3534 C3555 0.950 . S
H3535 C3558 0.950 . S
H3536 C3559 0.950 . S
H3537 C3561 0.950 . S
H3538 C3562 0.950 . S
H3539 C3563 0.951 . S
H3540 C3565 0.951 . S
H3541 C3567 0.950 . S
H3542 C3568 0.950 . S
H3543 C3570 0.950 . S
H3544 C3573 0.950 . S
H3545 C3574 0.950 . S
H3546 C3576 0.950 . S
H3547 C3577 0.950 . S
C3548 H3530 0.951 . S
C3548 C3549 1.366 . S
C3548 C3550 1.388 . S
C3549 C3548 1.366 . S
C3549 C3553 1.385 . S
C3550 H3531 0.951 . S
C3550 C3548 1.388 . S
C3550 C3551 1.366 . S
C3551 C3550 1.366 . S
C3551 C3552 1.414 . S
C3551 C3554 1.499 . S
C3552 H3532 0.950 . S
C3552 C3551 1.414 . S
C3552 C3553 1.374 . S
C3553 H3533 0.950 . S
C3553 C3549 1.385 . S
C3553 C3552 1.374 . S
C3554 C3551 1.499 . S
C3554 C3555 1.373 . S
C3554 C3556 1.389 . S
C3555 H3534 0.950 . S
C3555 C3554 1.373 . S
C3555 C3571 1.377 . S
C3556 C3554 1.389 . S
C3556 C3557 1.524 . S
C3556 C3570 1.377 . S
C3557 C3556 1.524 . S
C3557 C3558 1.397 . S
C3557 C3562 1.363 . S
C3558 H3535 0.950 . S
C3558 C3557 1.397 . S
C3558 C3559 1.334 . S
C3559 H3536 0.950 . S
C3559 C3558 1.334 . S
C3559 C3560 1.287 . S
C3560 C3559 1.287 . S
C3560 C3561 1.524 . S
C3560 H3579 0.913 . S
C3561 H3537 0.950 . S
C3561 C3560 1.524 . S
C3561 C3562 1.415 . S
C3562 H3538 0.950 . S
C3562 C3557 1.363 . S
C3562 C3561 1.415 . S
C3563 H3539 0.951 . S
C3563 C3564 1.366 . S
C3563 C3565 1.388 . S
C3564 C3563 1.366 . S
C3564 C3568 1.385 . S
C3565 H3540 0.951 . S
C3565 C3563 1.388 . S
C3565 C3566 1.366 . S
C3566 C3565 1.366 . S
C3566 C3567 1.414 . S
C3566 C3569 1.499 . S
C3567 H3541 0.950 . S
C3567 C3566 1.414 . S
C3567 C3568 1.374 . S
C3568 H3542 0.950 . S
C3568 C3564 1.385 . S
C3568 C3567 1.374 . S
C3569 C3566 1.499 . S
C3569 C3570 1.373 . S
C3569 C3571 1.389 . S
C3570 H3543 0.950 . S
C3570 C3556 1.377 . S
C3570 C3569 1.373 . S
C3571 C3555 1.377 . S
C3571 C3569 1.389 . S
C3571 C3572 1.524 . S
C3572 C3571 1.524 . S
C3572 C3573 1.397 . S
C3572 C3577 1.363 . S
C3573 H3544 0.950 . S
C3573 C3572 1.397 . S
C3573 C3574 1.334 . S
C3574 H3545 0.950 . S
C3574 C3573 1.334 . S
C3574 C3575 1.287 . S
C3575 C3574 1.287 . S
C3575 C3576 1.524 . S
C3575 H3578 0.999 . S
C3576 H3546 0.950 . S
C3576 C3575 1.524 . S
C3576 C3577 1.415 . S
C3577 H3547 0.950 . S
C3577 C3572 1.363 . S
C3577 C3576 1.415 . S
H3578 C3575 0.999 . S
H3579 C3560 0.913 . S
H3580 C3598 0.951 . S
H3581 C3600 0.951 . S
H3582 C3602 0.950 1_565 S
H3583 C3603 0.943 1_565 S
H3584 C3605 0.950 . S
H3585 C3608 0.950 . S
H3586 C3609 0.950 . S
H3587 C3611 0.950 . S
H3588 C3612 0.950 . S
H3589 C3613 0.951 1_565 S
H3590 C3615 0.951 1_565 S
H3591 C3617 0.950 . S
H3592 C3618 0.950 . S
H3593 C3620 0.950 . S
H3594 C3623 0.950 . S
H3595 C3624 0.950 . S
H3596 C3626 0.950 . S
H3597 C3627 0.950 . S
C3598 H3580 0.951 . S
C3598 C3599 1.366 . S
C3598 C3600 1.388 . S
C3599 C3598 1.366 . S
C3599 C3603 1.394 . S
C3600 H3581 0.951 . S
C3600 C3598 1.388 . S
C3600 C3601 1.366 . S
C3601 C3600 1.366 . S
C3601 C3602 1.414 . S
C3601 C3604 1.499 . S
C3602 H3582 0.950 1_545 S
C3602 C3601 1.414 . S
C3602 C3603 1.374 . S
C3603 H3583 0.943 1_545 S
C3603 C3599 1.394 . S
C3603 C3602 1.374 . S
C3604 C3601 1.499 . S
C3604 C3605 1.373 1_545 S
C3604 C3606 1.389 . S
C3605 H3584 0.950 . S
C3605 C3604 1.373 1_565 S
C3605 C3621 1.377 . S
C3606 C3604 1.389 . S
C3606 C3607 1.524 . S
C3606 C3620 1.377 . S
C3607 C3606 1.524 . S
C3607 C3608 1.397 . S
C3607 C3612 1.363 . S
C3608 H3585 0.950 . S
C3608 C3607 1.397 . S
C3608 C3609 1.334 . S
C3609 H3586 0.950 . S
C3609 C3608 1.334 . S
C3609 C3610 1.287 . S
C3610 C3609 1.287 . S
C3610 C3611 1.524 . S
C3610 H3629 0.913 . S
C3611 H3587 0.950 . S
C3611 C3610 1.524 . S
C3611 C3612 1.415 . S
C3612 H3588 0.950 . S
C3612 C3607 1.363 . S
C3612 C3611 1.415 . S
C3613 H3589 0.951 1_545 S
C3613 C3614 1.366 . S
C3613 C3615 1.388 . S
C3614 C3613 1.366 . S
C3614 C3618 1.385 . S
C3615 H3590 0.951 1_545 S
C3615 C3613 1.388 . S
C3615 C3616 1.366 . S
C3616 C3615 1.366 . S
C3616 C3617 1.414 . S
C3616 C3619 1.499 . S
C3617 H3591 0.950 . S
C3617 C3616 1.414 . S
C3617 C3618 1.374 . S
C3618 H3592 0.950 . S
C3618 C3614 1.385 . S
C3618 C3617 1.374 . S
C3619 C3616 1.499 . S
C3619 C3620 1.373 . S
C3619 C3621 1.389 1_545 S
C3620 H3593 0.950 . S
C3620 C3606 1.377 . S
C3620 C3619 1.373 . S
C3621 C3605 1.377 . S
C3621 C3619 1.389 1_565 S
C3621 C3622 1.524 . S
C3622 C3621 1.524 . S
C3622 C3623 1.397 . S
C3622 C3627 1.363 . S
C3623 H3594 0.950 . S
C3623 C3622 1.397 . S
C3623 C3624 1.334 . S
C3624 H3595 0.950 . S
C3624 C3623 1.334 . S
C3624 C3625 1.287 . S
C3625 C3624 1.287 . S
C3625 C3626 1.524 . S
C3625 H3628 0.999 . S
C3626 H3596 0.950 . S
C3626 C3625 1.524 . S
C3626 C3627 1.415 . S
C3627 H3597 0.950 . S
C3627 C3622 1.363 . S
C3627 C3626 1.415 . S
H3628 C3625 0.999 . S
H3629 C3610 0.913 . S
H3630 C3648 0.951 . S
H3631 C3650 0.951 . S
H3632 C3652 0.950 . S
H3633 C3653 0.950 . S
H3634 C3655 0.950 . S
H3635 C3658 0.950 . S
H3636 C3659 0.950 . S
H3637 C3661 0.950 . S
H3638 C3662 0.950 . S
H3639 C3663 0.951 . S
H3640 C3665 0.951 . S
H3641 C3667 0.950 . S
H3642 C3668 0.950 . S
H3643 C3670 0.950 . S
H3644 C3673 0.950 . S
H3645 C3674 0.950 . S
H3646 C3676 0.950 . S
H3647 C3677 0.950 . S
C3648 H3630 0.951 . S
C3648 C3649 1.366 . S
C3648 C3650 1.388 . S
C3649 C3648 1.366 . S
C3649 C3653 1.385 . S
C3650 H3631 0.951 . S
C3650 C3648 1.388 . S
C3650 C3651 1.366 . S
C3651 C3650 1.366 . S
C3651 C3652 1.414 . S
C3651 C3654 1.499 . S
C3652 H3632 0.950 . S
C3652 C3651 1.414 . S
C3652 C3653 1.374 . S
C3653 H3633 0.950 . S
C3653 C3649 1.385 . S
C3653 C3652 1.374 . S
C3654 C3651 1.499 . S
C3654 C3655 1.373 . S
C3654 C3656 1.389 . S
C3655 H3634 0.950 . S
C3655 C3654 1.373 . S
C3655 C3671 1.377 . S
C3656 C3654 1.389 . S
C3656 C3657 1.524 . S
C3656 C3670 1.377 . S
C3657 C3656 1.524 . S
C3657 C3658 1.397 . S
C3657 C3662 1.363 . S
C3658 H3635 0.950 . S
C3658 C3657 1.397 . S
C3658 C3659 1.334 . S
C3659 H3636 0.950 . S
C3659 C3658 1.334 . S
C3659 C3660 1.287 . S
C3660 C3659 1.287 . S
C3660 C3661 1.524 . S
C3660 H3679 0.913 . S
C3661 H3637 0.950 . S
C3661 C3660 1.524 . S
C3661 C3662 1.415 . S
C3662 H3638 0.950 . S
C3662 C3657 1.363 . S
C3662 C3661 1.415 . S
C3663 H3639 0.951 . S
C3663 C3664 1.366 . S
C3663 C3665 1.388 . S
C3664 C3663 1.366 . S
C3664 C3668 1.385 . S
C3665 H3640 0.951 . S
C3665 C3663 1.388 . S
C3665 C3666 1.366 . S
C3666 C3665 1.366 . S
C3666 C3667 1.414 . S
C3666 C3669 1.499 . S
C3667 H3641 0.950 . S
C3667 C3666 1.414 . S
C3667 C3668 1.374 . S
C3668 H3642 0.950 . S
C3668 C3664 1.385 . S
C3668 C3667 1.374 . S
C3669 C3666 1.499 . S
C3669 C3670 1.373 . S
C3669 C3671 1.389 . S
C3670 H3643 0.950 . S
C3670 C3656 1.377 . S
C3670 C3669 1.373 . S
C3671 C3655 1.377 . S
C3671 C3669 1.389 . S
C3671 C3672 1.524 . S
C3672 C3671 1.524 . S
C3672 C3673 1.397 . S
C3672 C3677 1.363 . S
C3673 H3644 0.950 . S
C3673 C3672 1.397 . S
C3673 C3674 1.334 . S
C3674 H3645 0.950 . S
C3674 C3673 1.334 . S
C3674 C3675 1.287 . S
C3675 C3674 1.287 . S
C3675 C3676 1.524 . S
C3675 H3678 0.999 . S
C3676 H3646 0.950 . S
C3676 C3675 1.524 . S
C3676 C3677 1.415 . S
C3677 H3647 0.950 . S
C3677 C3672 1.363 . S
C3677 C3676 1.415 . S
H3678 C3675 0.999 . S
H3679 C3660 0.913 . S
H3680 C3698 0.951 . S
H3681 C3700 0.951 . S
H3682 C3702 0.950 . S
H3683 C3703 0.950 . S
H3684 C3705 0.950 . S
H3685 C3708 0.950 . S
H3686 C3709 0.950 . S
H3687 C3711 0.950 . S
H3688 C3712 0.950 . S
H3689 C3713 0.951 . S
H3690 C3715 0.951 . S
H3691 C3717 0.950 . S
H3692 C3718 0.950 . S
H3693 C3720 0.950 . S
H3694 C3723 0.950 . S
H3695 C3724 0.950 . S
H3696 C3726 0.950 . S
H3697 C3727 0.950 . S
C3698 H3680 0.951 . S
C3698 C3699 1.366 . S
C3698 C3700 1.388 . S
C3699 C3698 1.366 . S
C3699 C3703 1.385 . S
C3700 H3681 0.951 . S
C3700 C3698 1.388 . S
C3700 C3701 1.366 . S
C3701 C3700 1.366 . S
C3701 C3702 1.414 . S
C3701 C3704 1.499 . S
C3702 H3682 0.950 . S
C3702 C3701 1.414 . S
C3702 C3703 1.374 . S
C3703 H3683 0.950 . S
C3703 C3699 1.385 . S
C3703 C3702 1.374 . S
C3704 C3701 1.499 . S
C3704 C3705 1.373 . S
C3704 C3706 1.389 . S
C3705 H3684 0.950 . S
C3705 C3704 1.373 . S
C3705 C3721 1.377 . S
C3706 C3704 1.389 . S
C3706 C3707 1.524 . S
C3706 C3720 1.377 . S
C3707 C3706 1.524 . S
C3707 C3708 1.397 . S
C3707 C3712 1.363 . S
C3708 H3685 0.950 . S
C3708 C3707 1.397 . S
C3708 C3709 1.334 1_554 S
C3709 H3686 0.950 . S
C3709 C3708 1.334 1_556 S
C3709 C3710 1.287 . S
C3710 C3709 1.287 . S
C3710 C3711 1.524 1_556 S
C3710 H3729 0.913 . S
C3711 H3687 0.950 . S
C3711 C3710 1.524 1_554 S
C3711 C3712 1.415 . S
C3712 H3688 0.950 . S
C3712 C3707 1.363 . S
C3712 C3711 1.415 . S
C3713 H3689 0.951 . S
C3713 C3714 1.366 . S
C3713 C3715 1.388 . S
C3714 C3713 1.366 . S
C3714 C3718 1.385 . S
C3715 H3690 0.951 . S
C3715 C3713 1.388 . S
C3715 C3716 1.366 . S
C3716 C3715 1.366 . S
C3716 C3717 1.414 . S
C3716 C3719 1.499 . S
C3717 H3691 0.950 . S
C3717 C3716 1.414 . S
C3717 C3718 1.374 . S
C3718 H3692 0.950 . S
C3718 C3714 1.385 . S
C3718 C3717 1.374 . S
C3719 C3716 1.499 . S
C3719 C3720 1.373 . S
C3719 C3721 1.389 . S
C3720 H3693 0.950 . S
C3720 C3706 1.377 . S
C3720 C3719 1.373 . S
C3721 C3705 1.377 . S
C3721 C3719 1.389 . S
C3721 C3722 1.524 . S
C3722 C3721 1.524 . S
C3722 C3723 1.397 . S
C3722 C3727 1.363 . S
C3723 H3694 0.950 . S
C3723 C3722 1.397 . S
C3723 C3724 1.334 . S
C3724 H3695 0.950 . S
C3724 C3723 1.334 . S
C3724 C3725 1.287 . S
C3725 C3724 1.287 . S
C3725 C3726 1.524 . S
C3725 H3728 0.999 . S
C3726 H3696 0.950 . S
C3726 C3725 1.524 . S
C3726 C3727 1.415 . S
C3727 H3697 0.950 . S
C3727 C3722 1.363 . S
C3727 C3726 1.415 . S
H3728 C3725 0.999 . S
H3729 C3710 0.913 . S
H3730 C3748 0.951 . S
H3731 C3750 0.951 . S
H3732 C3752 0.950 . S
H3733 C3753 0.950 . S
H3734 C3755 0.950 . S
H3735 C3758 0.950 . S
H3736 C3759 0.950 . S
H3737 C3761 0.950 . S
H3738 C3762 0.950 . S
H3739 C3763 0.951 . S
H3740 C3765 0.951 . S
H3741 C3767 0.950 . S
H3742 C3768 0.950 . S
H3743 C3770 0.950 . S
H3744 C3773 0.950 . S
H3745 C3774 0.950 . S
H3746 C3776 0.950 . S
H3747 C3777 0.950 . S
C3748 H3730 0.951 . S
C3748 C3749 1.366 . S
C3748 C3750 1.388 . S
C3749 C3748 1.366 . S
C3749 C3753 1.385 . S
C3750 H3731 0.951 . S
C3750 C3748 1.388 . S
C3750 C3751 1.366 . S
C3751 C3750 1.366 . S
C3751 C3752 1.414 . S
C3751 C3754 1.499 . S
C3752 H3732 0.950 . S
C3752 C3751 1.414 . S
C3752 C3753 1.374 . S
C3753 H3733 0.950 . S
C3753 C3749 1.385 . S
C3753 C3752 1.374 . S
C3754 C3751 1.499 . S
C3754 C3755 1.373 . S
C3754 C3756 1.389 . S
C3755 H3734 0.950 . S
C3755 C3754 1.373 . S
C3755 C3771 1.377 . S
C3756 C3754 1.389 . S
C3756 C3757 1.524 . S
C3756 C3770 1.377 . S
C3757 C3756 1.524 . S
C3757 C3758 1.397 . S
C3757 C3762 1.363 . S
C3758 H3735 0.950 . S
C3758 C3757 1.397 . S
C3758 C3759 1.334 1_554 S
C3759 H3736 0.950 . S
C3759 C3758 1.334 1_556 S
C3759 C3760 1.287 . S
C3760 C3759 1.287 . S
C3760 C3761 1.524 . S
C3760 H3779 0.913 . S
C3761 H3737 0.950 . S
C3761 C3760 1.524 . S
C3761 C3762 1.415 1_556 S
C3762 H3738 0.950 . S
C3762 C3757 1.363 . S
C3762 C3761 1.415 1_554 S
C3763 H3739 0.951 . S
C3763 C3764 1.366 . S
C3763 C3765 1.388 . S
C3764 C3763 1.366 . S
C3764 C3768 1.385 . S
C3765 H3740 0.951 . S
C3765 C3763 1.388 . S
C3765 C3766 1.366 . S
C3766 C3765 1.366 . S
C3766 C3767 1.414 . S
C3766 C3769 1.499 . S
C3767 H3741 0.950 . S
C3767 C3766 1.414 . S
C3767 C3768 1.374 . S
C3768 H3742 0.950 . S
C3768 C3764 1.385 . S
C3768 C3767 1.374 . S
C3769 C3766 1.499 . S
C3769 C3770 1.373 . S
C3769 C3771 1.389 . S
C3770 H3743 0.950 . S
C3770 C3756 1.377 . S
C3770 C3769 1.373 . S
C3771 C3755 1.377 . S
C3771 C3769 1.389 . S
C3771 C3772 1.524 . S
C3772 C3771 1.524 . S
C3772 C3773 1.397 . S
C3772 C3777 1.363 . S
C3773 H3744 0.950 . S
C3773 C3772 1.397 . S
C3773 C3774 1.334 . S
C3774 H3745 0.950 . S
C3774 C3773 1.334 . S
C3774 C3775 1.287 . S
C3775 C3774 1.287 . S
C3775 C3776 1.524 . S
C3775 H3778 0.999 . S
C3776 H3746 0.950 . S
C3776 C3775 1.524 . S
C3776 C3777 1.415 . S
C3777 H3747 0.950 . S
C3777 C3772 1.363 . S
C3777 C3776 1.415 . S
H3778 C3775 0.999 . S
H3779 C3760 0.913 . S
H3780 C3798 0.951 . S
H3781 C3800 0.951 . S
H3782 C3802 0.950 . S
H3783 C3803 0.950 . S
H3784 C3805 0.950 . S
H3785 C3808 0.950 . S
H3786 C3809 0.950 . S
H3787 C3811 0.950 . S
H3788 C3812 0.950 . S
H3789 C3813 0.951 . S
H3790 C3815 0.951 . S
H3791 C3817 0.950 . S
H3792 C3818 0.950 . S
H3793 C3820 0.950 . S
H3794 C3823 0.950 . S
H3795 C3824 0.950 . S
H3796 C3826 0.950 . S
H3797 C3827 0.950 . S
C3798 H3780 0.951 . S
C3798 C3799 1.366 . S
C3798 C3800 1.388 . S
C3799 C3798 1.366 . S
C3799 C3803 1.385 . S
C3800 H3781 0.951 . S
C3800 C3798 1.388 . S
C3800 C3801 1.366 . S
C3801 C3800 1.366 . S
C3801 C3802 1.414 . S
C3801 C3804 1.499 . S
C3802 H3782 0.950 . S
C3802 C3801 1.414 . S
C3802 C3803 1.374 . S
C3803 H3783 0.950 . S
C3803 C3799 1.385 . S
C3803 C3802 1.374 . S
C3804 C3801 1.499 . S
C3804 C3805 1.373 . S
C3804 C3806 1.389 . S
C3805 H3784 0.950 . S
C3805 C3804 1.373 . S
C3805 C3821 1.377 . S
C3806 C3804 1.389 . S
C3806 C3807 1.524 . S
C3806 C3820 1.377 . S
C3807 C3806 1.524 . S
C3807 C3808 1.397 . S
C3807 C3812 1.363 . S
C3808 H3785 0.950 . S
C3808 C3807 1.397 . S
C3808 C3809 1.334 . S
C3809 H3786 0.950 . S
C3809 C3808 1.334 . S
C3809 C3810 1.287 . S
C3810 C3809 1.287 . S
C3810 C3811 1.524 . S
C3810 H3829 0.913 . S
C3811 H3787 0.950 . S
C3811 C3810 1.524 . S
C3811 C3812 1.415 . S
C3812 H3788 0.950 . S
C3812 C3807 1.363 . S
C3812 C3811 1.415 . S
C3813 H3789 0.951 . S
C3813 C3814 1.366 . S
C3813 C3815 1.388 . S
C3814 C3813 1.366 . S
C3814 C3818 1.385 . S
C3815 H3790 0.951 . S
C3815 C3813 1.388 . S
C3815 C3816 1.366 . S
C3816 C3815 1.366 . S
C3816 C3817 1.414 . S
C3816 C3819 1.499 . S
C3817 H3791 0.950 . S
C3817 C3816 1.414 . S
C3817 C3818 1.374 . S
C3818 H3792 0.950 . S
C3818 C3814 1.385 . S
C3818 C3817 1.374 . S
C3819 C3816 1.499 . S
C3819 C3820 1.373 . S
C3819 C3821 1.389 . S
C3820 H3793 0.950 . S
C3820 C3806 1.377 . S
C3820 C3819 1.373 . S
C3821 C3805 1.377 . S
C3821 C3819 1.389 . S
C3821 C3822 1.524 . S
C3822 C3821 1.524 . S
C3822 C3823 1.397 . S
C3822 C3827 1.363 . S
C3823 H3794 0.950 . S
C3823 C3822 1.397 . S
C3823 C3824 1.334 . S
C3824 H3795 0.950 . S
C3824 C3823 1.334 . S
C3824 C3825 1.287 . S
C3825 C3824 1.287 . S
C3825 C3826 1.524 . S
C3825 H3828 0.999 . S
C3826 H3796 0.950 . S
C3826 C3825 1.524 . S
C3826 C3827 1.415 . S
C3827 H3797 0.950 . S
C3827 C3822 1.363 . S
C3827 C3826 1.415 . S
H3828 C3825 0.999 . S
H3829 C3810 0.913 . S
H3830 C3848 0.951 . S
H3831 C3850 0.951 . S
H3832 C3852 0.950 . S
H3833 C3853 0.950 . S
H3834 C3855 0.950 . S
H3835 C3858 0.950 . S
H3836 C3859 0.950 . S
H3837 C3861 0.950 . S
H3838 C3862 0.950 . S
H3839 C3863 0.951 . S
H3840 C3865 0.951 . S
H3841 C3867 0.950 . S
H3842 C3868 0.950 . S
H3843 C3870 0.950 . S
H3844 C3873 0.950 . S
H3845 C3874 0.950 . S
H3846 C3876 0.950 . S
H3847 C3877 0.950 . S
C3848 H3830 0.951 . S
C3848 C3849 1.366 . S
C3848 C3850 1.388 . S
C3849 C3848 1.366 . S
C3849 C3853 1.385 . S
C3850 H3831 0.951 . S
C3850 C3848 1.388 . S
C3850 C3851 1.366 . S
C3851 C3850 1.366 . S
C3851 C3852 1.414 . S
C3851 C3854 1.499 . S
C3852 H3832 0.950 . S
C3852 C3851 1.414 . S
C3852 C3853 1.374 . S
C3853 H3833 0.950 . S
C3853 C3849 1.385 . S
C3853 C3852 1.374 . S
C3854 C3851 1.499 . S
C3854 C3855 1.373 . S
C3854 C3856 1.389 . S
C3855 H3834 0.950 . S
C3855 C3854 1.373 . S
C3855 C3871 1.377 . S
C3856 C3854 1.389 . S
C3856 C3857 1.524 . S
C3856 C3870 1.377 . S
C3857 C3856 1.524 . S
C3857 C3858 1.397 . S
C3857 C3862 1.363 . S
C3858 H3835 0.950 . S
C3858 C3857 1.397 . S
C3858 C3859 1.334 . S
C3859 H3836 0.950 . S
C3859 C3858 1.334 . S
C3859 C3860 1.287 . S
C3860 C3859 1.287 . S
C3860 C3861 1.524 . S
C3860 H3879 0.913 . S
C3861 H3837 0.950 . S
C3861 C3860 1.524 . S
C3861 C3862 1.415 . S
C3862 H3838 0.950 . S
C3862 C3857 1.363 . S
C3862 C3861 1.415 . S
C3863 H3839 0.951 . S
C3863 C3864 1.366 . S
C3863 C3865 1.388 . S
C3864 C3863 1.366 . S
C3864 C3868 1.385 . S
C3865 H3840 0.951 . S
C3865 C3863 1.388 . S
C3865 C3866 1.366 . S
C3866 C3865 1.366 . S
C3866 C3867 1.414 . S
C3866 C3869 1.499 . S
C3867 H3841 0.950 . S
C3867 C3866 1.414 . S
C3867 C3868 1.374 . S
C3868 H3842 0.950 . S
C3868 C3864 1.385 . S
C3868 C3867 1.374 . S
C3869 C3866 1.499 . S
C3869 C3870 1.373 . S
C3869 C3871 1.389 . S
C3870 H3843 0.950 . S
C3870 C3856 1.377 . S
C3870 C3869 1.373 . S
C3871 C3855 1.377 . S
C3871 C3869 1.389 . S
C3871 C3872 1.524 . S
C3872 C3871 1.524 . S
C3872 C3873 1.397 . S
C3872 C3877 1.363 . S
C3873 H3844 0.950 . S
C3873 C3872 1.397 . S
C3873 C3874 1.334 . S
C3874 H3845 0.950 . S
C3874 C3873 1.334 . S
C3874 C3875 1.287 . S
C3875 C3874 1.287 . S
C3875 C3876 1.524 . S
C3875 H3878 0.999 . S
C3876 H3846 0.950 . S
C3876 C3875 1.524 . S
C3876 C3877 1.415 . S
C3877 H3847 0.950 . S
C3877 C3872 1.363 . S
C3877 C3876 1.415 . S
H3878 C3875 0.999 . S
H3879 C3860 0.913 . S
H3880 C3898 0.945 1_545 S
H3881 C3900 0.951 . S
H3882 C3902 0.950 . S
H3883 C3903 0.950 . S
H3884 C3905 0.950 . S
H3885 C3908 0.950 . S
H3886 C3909 0.950 . S
H3887 C3911 0.950 . S
H3888 C3912 0.950 . S
H3889 C3913 0.951 . S
H3890 C3915 0.951 . S
H3891 C3917 0.950 . S
H3892 C3918 0.950 . S
H3893 C3920 0.950 . S
H3894 C3923 0.950 . S
H3895 C3924 0.950 . S
H3896 C3926 0.950 . S
H3897 C3927 0.950 . S
C3898 H3880 0.945 1_565 S
C3898 C3899 1.366 . S
C3898 C3900 1.388 . S
C3899 C3898 1.366 . S
C3899 C3903 1.385 . S
C3900 H3881 0.951 . S
C3900 C3898 1.388 . S
C3900 C3901 1.366 . S
C3901 C3900 1.366 . S
C3901 C3902 1.414 . S
C3901 C3904 1.499 . S
C3902 H3882 0.950 . S
C3902 C3901 1.414 . S
C3902 C3903 1.374 . S
C3903 H3883 0.950 . S
C3903 C3899 1.385 . S
C3903 C3902 1.374 . S
C3904 C3901 1.499 . S
C3904 C3905 1.373 . S
C3904 C3906 1.389 . S
C3905 H3884 0.950 . S
C3905 C3904 1.373 . S
C3905 C3921 1.377 . S
C3906 C3904 1.389 . S
C3906 C3907 1.524 . S
C3906 C3920 1.377 . S
C3907 C3906 1.524 . S
C3907 C3908 1.397 . S
C3907 C3912 1.363 . S
C3908 H3885 0.950 . S
C3908 C3907 1.397 . S
C3908 C3909 1.334 . S
C3909 H3886 0.950 . S
C3909 C3908 1.334 . S
C3909 C3910 1.287 . S
C3910 C3909 1.287 . S
C3910 C3911 1.524 . S
C3910 H3929 0.913 . S
C3911 H3887 0.950 . S
C3911 C3910 1.524 . S
C3911 C3912 1.415 . S
C3912 H3888 0.950 . S
C3912 C3907 1.363 . S
C3912 C3911 1.415 . S
C3913 H3889 0.951 . S
C3913 C3914 1.366 . S
C3913 C3915 1.388 . S
C3914 C3913 1.366 . S
C3914 C3918 1.385 . S
C3915 H3890 0.951 . S
C3915 C3913 1.388 . S
C3915 C3916 1.366 . S
C3916 C3915 1.366 . S
C3916 C3917 1.414 . S
C3916 C3919 1.499 . S
C3917 H3891 0.950 . S
C3917 C3916 1.414 . S
C3917 C3918 1.374 . S
C3918 H3892 0.950 . S
C3918 C3914 1.385 . S
C3918 C3917 1.374 . S
C3919 C3916 1.499 . S
C3919 C3920 1.373 . S
C3919 C3921 1.389 . S
C3920 H3893 0.950 . S
C3920 C3906 1.377 . S
C3920 C3919 1.373 . S
C3921 C3905 1.377 . S
C3921 C3919 1.389 . S
C3921 C3922 1.524 . S
C3922 C3921 1.524 . S
C3922 C3923 1.397 . S
C3922 C3927 1.363 . S
C3923 H3894 0.950 . S
C3923 C3922 1.397 . S
C3923 C3924 1.334 . S
C3924 H3895 0.950 . S
C3924 C3923 1.334 . S
C3924 C3925 1.287 . S
C3925 C3924 1.287 . S
C3925 C3926 1.524 . S
C3925 H3928 0.999 . S
C3926 H3896 0.950 . S
C3926 C3925 1.524 . S
C3926 C3927 1.415 . S
C3927 H3897 0.950 . S
C3927 C3922 1.363 . S
C3927 C3926 1.415 . S
H3928 C3925 0.999 . S
H3929 C3910 0.913 . S
H3930 C3948 0.951 . S
H3931 C3950 0.951 . S
H3932 C3952 0.950 . S
H3933 C3953 0.950 . S
H3934 C3955 0.950 . S
H3935 C3958 0.950 . S
H3936 C3959 0.950 . S
H3937 C3961 0.950 . S
H3938 C3962 0.950 . S
H3939 C3963 0.951 . S
H3940 C3965 0.951 . S
H3941 C3967 0.950 . S
H3942 C3968 0.950 . S
H3943 C3970 0.950 . S
H3944 C3973 0.950 . S
H3945 C3974 0.950 . S
H3946 C3976 0.950 . S
H3947 C3977 0.950 . S
C3948 H3930 0.951 . S
C3948 C3949 1.366 . S
C3948 C3950 1.388 . S
C3949 C3948 1.366 . S
C3949 C3953 1.385 . S
C3950 H3931 0.951 . S
C3950 C3948 1.388 . S
C3950 C3951 1.366 . S
C3951 C3950 1.366 . S
C3951 C3952 1.414 . S
C3951 C3954 1.499 . S
C3952 H3932 0.950 . S
C3952 C3951 1.414 . S
C3952 C3953 1.374 . S
C3953 H3933 0.950 . S
C3953 C3949 1.385 . S
C3953 C3952 1.374 . S
C3954 C3951 1.499 . S
C3954 C3955 1.373 . S
C3954 C3956 1.389 . S
C3955 H3934 0.950 . S
C3955 C3954 1.373 . S
C3955 C3971 1.377 . S
C3956 C3954 1.389 . S
C3956 C3957 1.524 . S
C3956 C3970 1.377 . S
C3957 C3956 1.524 . S
C3957 C3958 1.397 . S
C3957 C3962 1.363 . S
C3958 H3935 0.950 . S
C3958 C3957 1.397 . S
C3958 C3959 1.334 . S
C3959 H3936 0.950 . S
C3959 C3958 1.334 . S
C3959 C3960 1.287 . S
C3960 C3959 1.287 . S
C3960 C3961 1.524 . S
C3960 H3979 0.913 . S
C3961 H3937 0.950 . S
C3961 C3960 1.524 . S
C3961 C3962 1.415 . S
C3962 H3938 0.950 . S
C3962 C3957 1.363 . S
C3962 C3961 1.415 . S
C3963 H3939 0.951 . S
C3963 C3964 1.366 . S
C3963 C3965 1.388 . S
C3964 C3963 1.366 . S
C3964 C3968 1.385 . S
C3965 H3940 0.951 . S
C3965 C3963 1.388 . S
C3965 C3966 1.366 . S
C3966 C3965 1.366 . S
C3966 C3967 1.414 . S
C3966 C3969 1.499 . S
C3967 H3941 0.950 . S
C3967 C3966 1.414 . S
C3967 C3968 1.374 . S
C3968 H3942 0.950 . S
C3968 C3964 1.385 . S
C3968 C3967 1.374 . S
C3969 C3966 1.499 . S
C3969 C3970 1.373 . S
C3969 C3971 1.389 . S
C3970 H3943 0.950 . S
C3970 C3956 1.377 . S
C3970 C3969 1.373 . S
C3971 C3955 1.377 . S
C3971 C3969 1.389 . S
C3971 C3972 1.524 . S
C3972 C3971 1.524 . S
C3972 C3973 1.397 . S
C3972 C3977 1.363 . S
C3973 H3944 0.950 . S
C3973 C3972 1.397 . S
C3973 C3974 1.334 . S
C3974 H3945 0.950 . S
C3974 C3973 1.334 . S
C3974 C3975 1.287 1_565 S
C3975 C3974 1.287 1_545 S
C3975 C3976 1.524 . S
C3975 H3978 0.999 . S
C3976 H3946 0.950 . S
C3976 C3975 1.524 . S
C3976 C3977 1.415 1_545 S
C3977 H3947 0.950 . S
C3977 C3972 1.363 . S
C3977 C3976 1.415 1_565 S
H3978 C3975 0.999 . S
H3979 C3960 0.913 . S
H3980 C3998 0.951 . S
H3981 C4000 0.951 . S
H3982 C4002 0.950 . S
H3983 C4003 0.950 . S
H3984 C4005 0.950 . S
H3985 C4008 0.950 . S
H3986 C4009 0.950 . S
H3987 C4011 0.950 . S
H3988 C4012 0.950 . S
H3989 C4013 0.951 . S
H3990 C4015 0.951 . S
H3991 C4017 0.950 . S
H3992 C4018 0.950 . S
H3993 C4020 0.950 . S
H3994 C4023 0.950 . S
H3995 C4024 0.950 . S
H3996 C4026 0.950 . S
H3997 C4027 0.950 . S
C3998 H3980 0.951 . S
C3998 C3999 1.366 . S
C3998 C4000 1.388 . S
C3999 C3998 1.366 . S
C3999 C4003 1.385 . S
C4000 H3981 0.951 . S
C4000 C3998 1.388 . S
C4000 C4001 1.366 . S
C4001 C4000 1.366 . S
C4001 C4002 1.414 . S
C4001 C4004 1.499 . S
C4002 H3982 0.950 . S
C4002 C4001 1.414 . S
C4002 C4003 1.374 . S
C4003 H3983 0.950 . S
C4003 C3999 1.385 . S
C4003 C4002 1.374 . S
C4004 C4001 1.499 . S
C4004 C4005 1.373 . S
C4004 C4006 1.389 . S
C4005 H3984 0.950 . S
C4005 C4004 1.373 . S
C4005 C4021 1.377 . S
C4006 C4004 1.389 . S
C4006 C4007 1.524 . S
C4006 C4020 1.377 . S
C4007 C4006 1.524 . S
C4007 C4008 1.397 . S
C4007 C4012 1.363 . S
C4008 H3985 0.950 . S
C4008 C4007 1.397 . S
C4008 C4009 1.334 . S
C4009 H3986 0.950 . S
C4009 C4008 1.334 . S
C4009 C4010 1.287 . S
C4010 C4009 1.287 . S
C4010 C4011 1.524 . S
C4010 H4029 0.913 . S
C4011 H3987 0.950 . S
C4011 C4010 1.524 . S
C4011 C4012 1.415 . S
C4012 H3988 0.950 . S
C4012 C4007 1.363 . S
C4012 C4011 1.415 . S
C4013 H3989 0.951 . S
C4013 C4014 1.366 . S
C4013 C4015 1.388 . S
C4014 C4013 1.366 . S
C4014 C4018 1.385 . S
C4015 H3990 0.951 . S
C4015 C4013 1.388 . S
C4015 C4016 1.366 . S
C4016 C4015 1.366 . S
C4016 C4017 1.414 . S
C4016 C4019 1.499 . S
C4017 H3991 0.950 . S
C4017 C4016 1.414 . S
C4017 C4018 1.374 . S
C4018 H3992 0.950 . S
C4018 C4014 1.385 . S
C4018 C4017 1.374 . S
C4019 C4016 1.499 . S
C4019 C4020 1.373 . S
C4019 C4021 1.389 . S
C4020 H3993 0.950 . S
C4020 C4006 1.377 . S
C4020 C4019 1.373 . S
C4021 C4005 1.377 . S
C4021 C4019 1.389 . S
C4021 C4022 1.524 . S
C4022 C4021 1.524 . S
C4022 C4023 1.397 . S
C4022 C4027 1.363 . S
C4023 H3994 0.950 . S
C4023 C4022 1.397 . S
C4023 C4024 1.334 . S
C4024 H3995 0.950 . S
C4024 C4023 1.334 . S
C4024 C4025 1.287 . S
C4025 C4024 1.287 . S
C4025 C4026 1.524 . S
C4025 H4028 0.999 . S
C4026 H3996 0.950 . S
C4026 C4025 1.524 . S
C4026 C4027 1.415 . S
C4027 H3997 0.950 . S
C4027 C4022 1.363 . S
C4027 C4026 1.415 . S
H4028 C4025 0.999 . S
H4029 C4010 0.913 . S
H4030 C4048 0.951 . S
H4031 C4050 0.951 . S
H4032 C4052 0.950 . S
H4033 C4053 0.950 . S
H4034 C4055 0.950 . S
H4035 C4058 0.950 . S
H4036 C4059 0.950 . S
H4037 C4061 0.950 . S
H4038 C4062 0.950 . S
H4039 C4063 0.951 . S
H4040 C4065 0.951 . S
H4041 C4067 0.950 . S
H4042 C4068 0.950 . S
H4043 C4070 0.950 . S
H4044 C4073 0.950 . S
H4045 C4074 0.950 . S
H4046 C4076 0.950 . S
H4047 C4077 0.950 . S
C4048 H4030 0.951 . S
C4048 C4049 1.366 . S
C4048 C4050 1.388 . S
C4049 C4048 1.366 . S
C4049 C4053 1.385 . S
C4050 H4031 0.951 . S
C4050 C4048 1.388 . S
C4050 C4051 1.366 . S
C4051 C4050 1.366 . S
C4051 C4052 1.414 . S
C4051 C4054 1.499 . S
C4052 H4032 0.950 . S
C4052 C4051 1.414 . S
C4052 C4053 1.374 . S
C4053 H4033 0.950 . S
C4053 C4049 1.385 . S
C4053 C4052 1.374 . S
C4054 C4051 1.499 . S
C4054 C4055 1.373 . S
C4054 C4056 1.389 . S
C4055 H4034 0.950 . S
C4055 C4054 1.373 . S
C4055 C4071 1.377 . S
C4056 C4054 1.389 . S
C4056 C4057 1.524 . S
C4056 C4070 1.377 . S
C4057 C4056 1.524 . S
C4057 C4058 1.397 . S
C4057 C4062 1.363 . S
C4058 H4035 0.950 . S
C4058 C4057 1.397 . S
C4058 C4059 1.334 . S
C4059 H4036 0.950 . S
C4059 C4058 1.334 . S
C4059 C4060 1.287 . S
C4060 C4059 1.287 . S
C4060 C4061 1.524 . S
C4060 H4079 0.913 . S
C4061 H4037 0.950 . S
C4061 C4060 1.524 . S
C4061 C4062 1.415 . S
C4062 H4038 0.950 . S
C4062 C4057 1.363 . S
C4062 C4061 1.415 . S
C4063 H4039 0.951 . S
C4063 C4064 1.366 . S
C4063 C4065 1.388 . S
C4064 C4063 1.366 . S
C4064 C4068 1.385 . S
C4065 H4040 0.951 . S
C4065 C4063 1.388 . S
C4065 C4066 1.366 . S
C4066 C4065 1.366 . S
C4066 C4067 1.414 . S
C4066 C4069 1.499 . S
C4067 H4041 0.950 . S
C4067 C4066 1.414 . S
C4067 C4068 1.374 . S
C4068 H4042 0.950 . S
C4068 C4064 1.385 . S
C4068 C4067 1.374 . S
C4069 C4066 1.499 . S
C4069 C4070 1.373 . S
C4069 C4071 1.389 . S
C4070 H4043 0.950 . S
C4070 C4056 1.377 . S
C4070 C4069 1.373 . S
C4071 C4055 1.377 . S
C4071 C4069 1.389 . S
C4071 C4072 1.524 . S
C4072 C4071 1.524 . S
C4072 C4073 1.397 . S
C4072 C4077 1.363 . S
C4073 H4044 0.950 . S
C4073 C4072 1.397 . S
C4073 C4074 1.334 . S
C4074 H4045 0.950 . S
C4074 C4073 1.334 . S
C4074 C4075 1.287 . S
C4075 C4074 1.287 . S
C4075 C4076 1.524 . S
C4075 H4078 0.999 . S
C4076 H4046 0.950 . S
C4076 C4075 1.524 . S
C4076 C4077 1.415 . S
C4077 H4047 0.950 . S
C4077 C4072 1.363 . S
C4077 C4076 1.415 . S
H4078 C4075 0.999 . S
H4079 C4060 0.913 . S
H4080 C4098 0.951 . S
H4081 C4100 0.951 . S
H4082 C4102 0.950 . S
H4083 C4103 0.950 . S
H4084 C4105 0.950 . S
H4085 C4108 0.950 . S
H4086 C4109 0.950 . S
H4087 C4111 0.950 . S
H4088 C4112 0.950 . S
H4089 C4113 0.951 . S
H4090 C4115 0.951 . S
H4091 C4117 0.950 . S
H4092 C4118 0.950 . S
H4093 C4120 0.950 . S
H4094 C4123 0.950 . S
H4095 C4124 0.950 . S
H4096 C4126 0.950 . S
H4097 C4127 0.950 . S
C4098 H4080 0.951 . S
C4098 C4099 1.366 . S
C4098 C4100 1.388 . S
C4099 C4098 1.366 . S
C4099 C4103 1.385 . S
C4100 H4081 0.951 . S
C4100 C4098 1.388 . S
C4100 C4101 1.366 . S
C4101 C4100 1.366 . S
C4101 C4102 1.414 . S
C4101 C4104 1.499 . S
C4102 H4082 0.950 . S
C4102 C4101 1.414 . S
C4102 C4103 1.374 . S
C4103 H4083 0.950 . S
C4103 C4099 1.385 . S
C4103 C4102 1.374 . S
C4104 C4101 1.499 . S
C4104 C4105 1.373 . S
C4104 C4106 1.389 . S
C4105 H4084 0.950 . S
C4105 C4104 1.373 . S
C4105 C4121 1.377 . S
C4106 C4104 1.389 . S
C4106 C4107 1.524 . S
C4106 C4120 1.377 . S
C4107 C4106 1.524 . S
C4107 C4108 1.397 . S
C4107 C4112 1.363 . S
C4108 H4085 0.950 . S
C4108 C4107 1.397 . S
C4108 C4109 1.334 . S
C4109 H4086 0.950 . S
C4109 C4108 1.334 . S
C4109 C4110 1.287 . S
C4110 C4109 1.287 . S
C4110 C4111 1.524 . S
C4110 H4129 0.913 . S
C4111 H4087 0.950 . S
C4111 C4110 1.524 . S
C4111 C4112 1.415 . S
C4112 H4088 0.950 . S
C4112 C4107 1.363 . S
C4112 C4111 1.415 . S
C4113 H4089 0.951 . S
C4113 C4114 1.366 . S
C4113 C4115 1.388 . S
C4114 C4113 1.366 . S
C4114 C4118 1.385 . S
C4115 H4090 0.951 . S
C4115 C4113 1.388 . S
C4115 C4116 1.366 . S
C4116 C4115 1.366 . S
C4116 C4117 1.414 . S
C4116 C4119 1.499 . S
C4117 H4091 0.950 . S
C4117 C4116 1.414 . S
C4117 C4118 1.374 . S
C4118 H4092 0.950 . S
C4118 C4114 1.385 . S
C4118 C4117 1.374 . S
C4119 C4116 1.499 . S
C4119 C4120 1.373 . S
C4119 C4121 1.389 . S
C4120 H4093 0.950 . S
C4120 C4106 1.377 . S
C4120 C4119 1.373 . S
C4121 C4105 1.377 . S
C4121 C4119 1.389 . S
C4121 C4122 1.524 . S
C4122 C4121 1.524 . S
C4122 C4123 1.397 . S
C4122 C4127 1.363 . S
C4123 H4094 0.950 . S
C4123 C4122 1.397 . S
C4123 C4124 1.334 . S
C4124 H4095 0.950 . S
C4124 C4123 1.334 . S
C4124 C4125 1.287 . S
C4125 C4124 1.287 . S
C4125 C4126 1.524 . S
C4125 H4128 0.999 . S
C4126 H4096 0.950 . S
C4126 C4125 1.524 . S
C4126 C4127 1.415 . S
C4127 H4097 0.950 . S
C4127 C4122 1.363 . S
C4127 C4126 1.415 . S
H4128 C4125 0.999 . S
H4129 C4110 0.913 . S
H4130 C4148 0.951 . S
H4131 C4150 0.951 . S
H4132 C4152 0.950 . S
H4133 C4153 0.950 . S
H4134 C4155 0.950 . S
H4135 C4158 0.950 . S
H4136 C4159 0.950 . S
H4137 C4161 0.950 . S
H4138 C4162 0.950 . S
H4139 C4163 0.951 . S
H4140 C4165 0.951 . S
H4141 C4167 0.950 . S
H4142 C4168 0.950 . S
H4143 C4170 0.950 . S
H4144 C4173 0.950 . S
H4145 C4174 0.950 . S
H4146 C4176 0.950 . S
H4147 C4177 0.950 . S
C4148 H4130 0.951 . S
C4148 C4149 1.366 . S
C4148 C4150 1.388 . S
C4149 C4148 1.366 . S
C4149 C4153 1.385 . S
C4150 H4131 0.951 . S
C4150 C4148 1.388 . S
C4150 C4151 1.366 . S
C4151 C4150 1.366 . S
C4151 C4152 1.414 . S
C4151 C4154 1.499 . S
C4152 H4132 0.950 . S
C4152 C4151 1.414 . S
C4152 C4153 1.374 . S
C4153 H4133 0.950 . S
C4153 C4149 1.385 . S
C4153 C4152 1.374 . S
C4154 C4151 1.499 . S
C4154 C4155 1.373 . S
C4154 C4156 1.389 . S
C4155 H4134 0.950 . S
C4155 C4154 1.373 . S
C4155 C4171 1.377 . S
C4156 C4154 1.389 . S
C4156 C4157 1.524 . S
C4156 C4170 1.377 . S
C4157 C4156 1.524 . S
C4157 C4158 1.397 . S
C4157 C4162 1.363 . S
C4158 H4135 0.950 . S
C4158 C4157 1.397 . S
C4158 C4159 1.334 . S
C4159 H4136 0.950 . S
C4159 C4158 1.334 . S
C4159 C4160 1.287 . S
C4160 C4159 1.287 . S
C4160 C4161 1.524 . S
C4160 H4179 0.913 . S
C4161 H4137 0.950 . S
C4161 C4160 1.524 . S
C4161 C4162 1.415 . S
C4162 H4138 0.950 . S
C4162 C4157 1.363 . S
C4162 C4161 1.415 . S
C4163 H4139 0.951 . S
C4163 C4164 1.366 . S
C4163 C4165 1.388 . S
C4164 C4163 1.366 . S
C4164 C4168 1.385 . S
C4165 H4140 0.951 . S
C4165 C4163 1.388 . S
C4165 C4166 1.366 . S
C4166 C4165 1.366 . S
C4166 C4167 1.414 . S
C4166 C4169 1.499 . S
C4167 H4141 0.950 . S
C4167 C4166 1.414 . S
C4167 C4168 1.374 . S
C4168 H4142 0.950 . S
C4168 C4164 1.385 . S
C4168 C4167 1.374 . S
C4169 C4166 1.499 . S
C4169 C4170 1.373 . S
C4169 C4171 1.389 . S
C4170 H4143 0.950 . S
C4170 C4156 1.377 . S
C4170 C4169 1.373 . S
C4171 C4155 1.377 . S
C4171 C4169 1.389 . S
C4171 C4172 1.524 . S
C4172 C4171 1.524 . S
C4172 C4173 1.397 . S
C4172 C4177 1.363 . S
C4173 H4144 0.950 . S
C4173 C4172 1.397 . S
C4173 C4174 1.334 . S
C4174 H4145 0.950 . S
C4174 C4173 1.334 . S
C4174 C4175 1.287 . S
C4175 C4174 1.287 . S
C4175 C4176 1.524 . S
C4175 H4178 0.999 . S
C4176 H4146 0.950 . S
C4176 C4175 1.524 . S
C4176 C4177 1.415 . S
C4177 H4147 0.950 . S
C4177 C4172 1.363 . S
C4177 C4176 1.415 . S
H4178 C4175 0.999 . S
H4179 C4160 0.913 . S
H4180 C4198 0.951 . S
H4181 C4200 0.951 1_554 S
H4182 C4202 0.950 . S
H4183 C4203 0.950 . S
H4184 C4205 0.950 . S
H4185 C4208 0.950 . S
H4186 C4209 0.950 . S
H4187 C4211 0.950 . S
H4188 C4212 0.950 . S
H4189 C4213 0.951 1_655 S
H4190 C4215 0.951 1_655 S
H4191 C4217 0.950 . S
H4192 C4218 0.950 . S
H4193 C4220 0.950 . S
H4194 C4223 0.950 . S
H4195 C4224 0.950 . S
H4196 C4226 0.950 . S
H4197 C4227 0.950 1_655 S
C4198 H4180 0.951 . S
C4198 C4199 1.366 . S
C4198 C4200 1.388 . S
C4199 C4198 1.366 . S
C4199 C4203 1.385 1_455 S
C4200 H4181 0.951 1_556 S
C4200 C4198 1.388 . S
C4200 C4201 1.366 . S
C4201 C4200 1.366 . S
C4201 C4202 1.414 1_455 S
C4201 C4204 1.499 . S
C4202 H4182 0.950 . S
C4202 C4201 1.414 1_655 S
C4202 C4203 1.374 . S
C4203 H4183 0.950 . S
C4203 C4199 1.385 1_655 S
C4203 C4202 1.374 . S
C4204 C4201 1.499 . S
C4204 C4205 1.373 . S
C4204 C4206 1.389 1_556 S
C4205 H4184 0.950 . S
C4205 C4204 1.373 . S
C4205 C4221 1.377 . S
C4206 C4204 1.389 1_554 S
C4206 C4207 1.524 . S
C4206 C4220 1.377 . S
C4207 C4206 1.524 . S
C4207 C4208 1.397 1_455 S
C4207 C4212 1.363 . S
C4208 H4185 0.950 . S
C4208 C4207 1.397 1_655 S
C4208 C4209 1.334 . S
C4209 H4186 0.950 . S
C4209 C4208 1.334 . S
C4209 C4210 1.287 . S
C4210 C4209 1.287 . S
C4210 C4211 1.524 1_655 S
C4210 H4229 0.913 . S
C4211 H4187 0.950 . S
C4211 C4210 1.524 1_455 S
C4211 C4212 1.415 . S
C4212 H4188 0.950 . S
C4212 C4207 1.363 . S
C4212 C4211 1.415 . S
C4213 H4189 0.951 1_455 S
C4213 C4214 1.366 . S
C4213 C4215 1.388 . S
C4214 C4213 1.366 . S
C4214 C4218 1.385 . S
C4215 H4190 0.951 1_455 S
C4215 C4213 1.388 . S
C4215 C4216 1.366 . S
C4216 C4215 1.366 . S
C4216 C4217 1.414 . S
C4216 C4219 1.499 . S
C4217 H4191 0.950 . S
C4217 C4216 1.414 . S
C4217 C4218 1.374 . S
C4218 H4192 0.950 . S
C4218 C4214 1.385 . S
C4218 C4217 1.374 . S
C4219 C4216 1.499 . S
C4219 C4220 1.373 . S
C4219 C4221 1.389 1_554 S
C4220 H4193 0.950 . S
C4220 C4206 1.377 . S
C4220 C4219 1.373 . S
C4221 C4205 1.377 . S
C4221 C4219 1.389 1_556 S
C4221 C4222 1.524 . S
C4222 C4221 1.524 . S
C4222 C4223 1.397 . S
C4222 C4227 1.363 . S
C4223 H4194 0.950 . S
C4223 C4222 1.397 . S
C4223 C4224 1.334 . S
C4224 H4195 0.950 . S
C4224 C4223 1.334 . S
C4224 C4225 1.287 . S
C4225 C4224 1.287 . S
C4225 C4226 1.524 . S
C4225 H4228 0.999 . S
C4226 H4196 0.950 . S
C4226 C4225 1.524 . S
C4226 C4227 1.415 . S
C4227 H4197 0.950 1_455 S
C4227 C4222 1.363 . S
C4227 C4226 1.415 . S
H4228 C4225 0.999 . S
H4229 C4210 0.913 . S
H4230 C4248 0.951 . S
H4231 C4250 0.951 . S
H4232 C4252 0.950 . S
H4233 C4253 0.950 . S
H4234 C4255 0.950 . S
H4235 C4258 0.950 . S
H4236 C4259 0.950 1_455 S
H4237 C4261 0.950 . S
H4238 C4262 0.950 . S
H4239 C4263 0.951 . S
H4240 C4265 0.951 . S
H4241 C4267 0.950 . S
H4242 C4268 0.950 . S
H4243 C4270 0.950 . S
H4244 C4273 0.950 . S
H4245 C4274 0.950 . S
H4246 C4276 0.950 . S
H4247 C4277 0.950 . S
C4248 H4230 0.951 . S
C4248 C4249 1.366 . S
C4248 C4250 1.388 . S
C4249 C4248 1.366 . S
C4249 C4253 1.385 . S
C4250 H4231 0.951 . S
C4250 C4248 1.388 . S
C4250 C4251 1.366 . S
C4251 C4250 1.366 . S
C4251 C4252 1.414 . S
C4251 C4254 1.499 . S
C4252 H4232 0.950 . S
C4252 C4251 1.414 . S
C4252 C4253 1.374 . S
C4253 H4233 0.950 . S
C4253 C4249 1.385 . S
C4253 C4252 1.374 . S
C4254 C4251 1.499 . S
C4254 C4255 1.373 . S
C4254 C4256 1.389 . S
C4255 H4234 0.950 . S
C4255 C4254 1.373 . S
C4255 C4271 1.377 . S
C4256 C4254 1.389 . S
C4256 C4257 1.524 . S
C4256 C4270 1.377 . S
C4257 C4256 1.524 . S
C4257 C4258 1.397 . S
C4257 C4262 1.363 . S
C4258 H4235 0.950 . S
C4258 C4257 1.397 . S
C4258 C4259 1.334 . S
C4259 H4236 0.950 1_655 S
C4259 C4258 1.334 . S
C4259 C4260 1.287 . S
C4260 C4259 1.287 . S
C4260 C4261 1.524 . S
C4260 H4279 0.877 1_655 S
C4261 H4237 0.950 . S
C4261 C4260 1.524 . S
C4261 C4262 1.415 . S
C4262 H4238 0.950 . S
C4262 C4257 1.363 . S
C4262 C4261 1.415 . S
C4263 H4239 0.951 . S
C4263 C4264 1.366 . S
C4263 C4265 1.388 . S
C4264 C4263 1.366 . S
C4264 C4268 1.385 . S
C4265 H4240 0.951 . S
C4265 C4263 1.388 . S
C4265 C4266 1.366 . S
C4266 C4265 1.366 . S
C4266 C4267 1.414 . S
C4266 C4269 1.499 . S
C4267 H4241 0.950 . S
C4267 C4266 1.414 . S
C4267 C4268 1.374 . S
C4268 H4242 0.950 . S
C4268 C4264 1.385 . S
C4268 C4267 1.374 . S
C4269 C4266 1.499 . S
C4269 C4270 1.373 . S
C4269 C4271 1.389 . S
C4270 H4243 0.950 . S
C4270 C4256 1.377 . S
C4270 C4269 1.373 . S
C4271 C4255 1.377 . S
C4271 C4269 1.389 . S
C4271 C4272 1.524 . S
C4272 C4271 1.524 . S
C4272 C4273 1.397 . S
C4272 C4277 1.363 . S
C4273 H4244 0.950 . S
C4273 C4272 1.397 . S
C4273 C4274 1.334 . S
C4274 H4245 0.950 . S
C4274 C4273 1.334 . S
C4274 C4275 1.287 . S
C4275 C4274 1.287 . S
C4275 C4276 1.524 . S
C4275 H4278 0.999 . S
C4276 H4246 0.950 . S
C4276 C4275 1.524 . S
C4276 C4277 1.415 . S
C4277 H4247 0.950 . S
C4277 C4272 1.363 . S
C4277 C4276 1.415 . S
H4278 C4275 0.999 . S
H4279 C4260 0.877 1_455 S
H4280 C4298 0.951 . S
H4281 C4300 0.951 . S
H4282 C4302 0.950 . S
H4283 C4303 0.950 . S
H4284 C4305 0.950 . S
H4285 C4308 0.950 . S
H4286 C4309 0.950 . S
H4287 C4311 0.950 . S
H4288 C4312 0.950 . S
H4289 C4313 0.951 . S
H4290 C4315 0.951 . S
H4291 C4317 0.950 . S
H4292 C4318 0.950 . S
H4293 C4320 0.950 . S
H4294 C4323 0.950 . S
H4295 C4324 0.950 . S
H4296 C4326 0.950 . S
H4297 C4327 0.950 . S
C4298 H4280 0.951 . S
C4298 C4299 1.366 . S
C4298 C4300 1.388 . S
C4299 C4298 1.366 . S
C4299 C4303 1.385 . S
C4300 H4281 0.951 . S
C4300 C4298 1.388 . S
C4300 C4301 1.366 . S
C4301 C4300 1.366 . S
C4301 C4302 1.414 . S
C4301 C4304 1.499 . S
C4302 H4282 0.950 . S
C4302 C4301 1.414 . S
C4302 C4303 1.374 . S
C4303 H4283 0.950 . S
C4303 C4299 1.385 . S
C4303 C4302 1.374 . S
C4304 C4301 1.499 . S
C4304 C4305 1.373 . S
C4304 C4306 1.389 . S
C4305 H4284 0.950 . S
C4305 C4304 1.373 . S
C4305 C4321 1.377 . S
C4306 C4304 1.389 . S
C4306 C4307 1.524 . S
C4306 C4320 1.377 . S
C4307 C4306 1.524 . S
C4307 C4308 1.397 . S
C4307 C4312 1.363 . S
C4308 H4285 0.950 . S
C4308 C4307 1.397 . S
C4308 C4309 1.334 . S
C4309 H4286 0.950 . S
C4309 C4308 1.334 . S
C4309 C4310 1.287 . S
C4310 C4309 1.287 . S
C4310 C4311 1.524 . S
C4310 H4329 0.913 . S
C4311 H4287 0.950 . S
C4311 C4310 1.524 . S
C4311 C4312 1.415 . S
C4312 H4288 0.950 . S
C4312 C4307 1.363 . S
C4312 C4311 1.415 . S
C4313 H4289 0.951 . S
C4313 C4314 1.366 . S
C4313 C4315 1.388 . S
C4314 C4313 1.366 . S
C4314 C4318 1.385 . S
C4315 H4290 0.951 . S
C4315 C4313 1.388 . S
C4315 C4316 1.366 . S
C4316 C4315 1.366 . S
C4316 C4317 1.414 . S
C4316 C4319 1.499 . S
C4317 H4291 0.950 . S
C4317 C4316 1.414 . S
C4317 C4318 1.374 . S
C4318 H4292 0.950 . S
C4318 C4314 1.385 . S
C4318 C4317 1.374 . S
C4319 C4316 1.499 . S
C4319 C4320 1.373 . S
C4319 C4321 1.389 . S
C4320 H4293 0.950 . S
C4320 C4306 1.377 . S
C4320 C4319 1.373 . S
C4321 C4305 1.377 . S
C4321 C4319 1.389 . S
C4321 C4322 1.524 . S
C4322 C4321 1.524 . S
C4322 C4323 1.397 . S
C4322 C4327 1.363 . S
C4323 H4294 0.950 . S
C4323 C4322 1.397 . S
C4323 C4324 1.334 . S
C4324 H4295 0.950 . S
C4324 C4323 1.334 . S
C4324 C4325 1.287 . S
C4325 C4324 1.287 . S
C4325 C4326 1.524 . S
C4325 H4328 0.999 . S
C4326 H4296 0.950 . S
C4326 C4325 1.524 . S
C4326 C4327 1.415 . S
C4327 H4297 0.950 . S
C4327 C4322 1.363 . S
C4327 C4326 1.415 . S
H4328 C4325 0.999 . S
H4329 C4310 0.913 . S
H4330 C4348 0.951 . S
H4331 C4350 0.951 . S
H4332 C4352 0.950 . S
H4333 C4353 0.950 . S
H4334 C4355 0.950 . S
H4335 C4358 0.950 . S
H4336 C4359 0.950 . S
H4337 C4361 0.950 . S
H4338 C4362 0.950 . S
H4339 C4363 0.951 . S
H4340 C4365 0.951 . S
H4341 C4367 0.950 . S
H4342 C4368 0.950 . S
H4343 C4370 0.950 . S
H4344 C4373 0.950 . S
H4345 C4374 0.950 . S
H4346 C4376 0.950 . S
H4347 C4377 0.950 . S
C4348 H4330 0.951 . S
C4348 C4349 1.366 . S
C4348 C4350 1.388 . S
C4349 C4348 1.366 . S
C4349 C4353 1.385 . S
C4350 H4331 0.951 . S
C4350 C4348 1.388 . S
C4350 C4351 1.366 . S
C4351 C4350 1.366 . S
C4351 C4352 1.414 . S
C4351 C4354 1.499 . S
C4352 H4332 0.950 . S
C4352 C4351 1.414 . S
C4352 C4353 1.374 . S
C4353 H4333 0.950 . S
C4353 C4349 1.385 . S
C4353 C4352 1.374 . S
C4354 C4351 1.499 . S
C4354 C4355 1.373 . S
C4354 C4356 1.389 . S
C4355 H4334 0.950 . S
C4355 C4354 1.373 . S
C4355 C4371 1.377 . S
C4356 C4354 1.389 . S
C4356 C4357 1.524 . S
C4356 C4370 1.377 . S
C4357 C4356 1.524 . S
C4357 C4358 1.397 . S
C4357 C4362 1.363 . S
C4358 H4335 0.950 . S
C4358 C4357 1.397 . S
C4358 C4359 1.334 . S
C4359 H4336 0.950 . S
C4359 C4358 1.334 . S
C4359 C4360 1.287 . S
C4360 C4359 1.287 . S
C4360 C4361 1.524 . S
C4360 H4379 0.913 . S
C4361 H4337 0.950 . S
C4361 C4360 1.524 . S
C4361 C4362 1.415 . S
C4362 H4338 0.950 . S
C4362 C4357 1.363 . S
C4362 C4361 1.415 . S
C4363 H4339 0.951 . S
C4363 C4364 1.366 . S
C4363 C4365 1.388 . S
C4364 C4363 1.366 . S
C4364 C4368 1.385 . S
C4365 H4340 0.951 . S
C4365 C4363 1.388 . S
C4365 C4366 1.366 . S
C4366 C4365 1.366 . S
C4366 C4367 1.414 . S
C4366 C4369 1.499 . S
C4367 H4341 0.950 . S
C4367 C4366 1.414 . S
C4367 C4368 1.374 . S
C4368 H4342 0.950 . S
C4368 C4364 1.385 . S
C4368 C4367 1.374 . S
C4369 C4366 1.499 . S
C4369 C4370 1.373 . S
C4369 C4371 1.389 . S
C4370 H4343 0.950 . S
C4370 C4356 1.377 . S
C4370 C4369 1.373 . S
C4371 C4355 1.377 . S
C4371 C4369 1.389 . S
C4371 C4372 1.524 . S
C4372 C4371 1.524 . S
C4372 C4373 1.397 . S
C4372 C4377 1.363 . S
C4373 H4344 0.950 . S
C4373 C4372 1.397 . S
C4373 C4374 1.334 . S
C4374 H4345 0.950 . S
C4374 C4373 1.334 . S
C4374 C4375 1.287 . S
C4375 C4374 1.287 . S
C4375 C4376 1.524 . S
C4375 H4378 0.999 . S
C4376 H4346 0.950 . S
C4376 C4375 1.524 . S
C4376 C4377 1.415 . S
C4377 H4347 0.950 . S
C4377 C4372 1.363 . S
C4377 C4376 1.415 . S
H4378 C4375 0.999 . S
H4379 C4360 0.913 . S
H4380 C4398 0.951 1_655 S
H4381 C4400 0.951 1_655 S
H4382 C4402 0.950 . S
H4383 C4403 0.950 . S
H4384 C4405 0.950 . S
H4385 C4408 0.950 . S
H4386 C4409 0.950 . S
H4387 C4411 0.950 . S
H4388 C4412 0.950 . S
H4389 C4413 0.951 . S
H4390 C4415 0.951 . S
H4391 C4417 0.950 . S
H4392 C4418 0.950 . S
H4393 C4420 0.950 . S
H4394 C4423 0.950 . S
H4395 C4424 0.950 . S
H4396 C4426 0.950 . S
H4397 C4427 0.950 . S
C4398 H4380 0.951 1_455 S
C4398 C4399 1.366 . S
C4398 C4400 1.388 . S
C4399 C4398 1.366 . S
C4399 C4403 1.385 . S
C4400 H4381 0.951 1_455 S
C4400 C4398 1.388 . S
C4400 C4401 1.366 . S
C4401 C4400 1.366 . S
C4401 C4402 1.414 . S
C4401 C4404 1.499 . S
C4402 H4382 0.950 . S
C4402 C4401 1.414 . S
C4402 C4403 1.374 . S
C4403 H4383 0.950 . S
C4403 C4399 1.385 . S
C4403 C4402 1.374 . S
C4404 C4401 1.499 . S
C4404 C4405 1.373 . S
C4404 C4406 1.389 1_455 S
C4405 H4384 0.950 . S
C4405 C4404 1.373 . S
C4405 C4421 1.377 . S
C4406 C4404 1.389 1_655 S
C4406 C4407 1.524 . S
C4406 C4420 1.377 . S
C4407 C4406 1.524 . S
C4407 C4408 1.397 . S
C4407 C4412 1.363 . S
C4408 H4385 0.950 . S
C4408 C4407 1.397 . S
C4408 C4409 1.334 . S
C4409 H4386 0.950 . S
C4409 C4408 1.334 . S
C4409 C4410 1.287 . S
C4410 C4409 1.287 . S
C4410 C4411 1.524 . S
C4410 H4429 0.913 . S
C4411 H4387 0.950 . S
C4411 C4410 1.524 . S
C4411 C4412 1.415 . S
C4412 H4388 0.950 . S
C4412 C4407 1.363 . S
C4412 C4411 1.415 . S
C4413 H4389 0.951 . S
C4413 C4414 1.366 . S
C4413 C4415 1.388 . S
C4414 C4413 1.366 . S
C4414 C4418 1.385 . S
C4415 H4390 0.951 . S
C4415 C4413 1.388 . S
C4415 C4416 1.366 . S
C4416 C4415 1.366 . S
C4416 C4417 1.414 . S
C4416 C4419 1.499 . S
C4417 H4391 0.950 . S
C4417 C4416 1.414 . S
C4417 C4418 1.374 . S
C4418 H4392 0.950 . S
C4418 C4414 1.385 . S
C4418 C4417 1.374 . S
C4419 C4416 1.499 . S
C4419 C4420 1.373 1_455 S
C4419 C4421 1.389 . S
C4420 H4393 0.950 . S
C4420 C4406 1.377 . S
C4420 C4419 1.373 1_655 S
C4421 C4405 1.377 . S
C4421 C4419 1.389 . S
C4421 C4422 1.524 . S
C4422 C4421 1.524 . S
C4422 C4423 1.397 . S
C4422 C4427 1.363 . S
C4423 H4394 0.950 . S
C4423 C4422 1.397 . S
C4423 C4424 1.334 . S
C4424 H4395 0.950 . S
C4424 C4423 1.334 . S
C4424 C4425 1.287 . S
C4425 C4424 1.287 . S
C4425 C4426 1.524 . S
C4425 H4428 0.999 . S
C4426 H4396 0.950 . S
C4426 C4425 1.524 . S
C4426 C4427 1.415 . S
C4427 H4397 0.950 . S
C4427 C4422 1.363 . S
C4427 C4426 1.415 . S
H4428 C4425 0.999 . S
H4429 C4410 0.913 . S
H4430 C4448 0.951 . S
H4431 C4450 0.951 . S
H4432 C4452 0.950 . S
H4433 C4453 0.950 . S
H4434 C4455 0.950 . S
H4435 C4458 0.950 . S
H4436 C4459 0.950 . S
H4437 C4461 0.950 . S
H4438 C4462 0.950 . S
H4439 C4463 0.951 . S
H4440 C4465 0.951 . S
H4441 C4467 0.950 . S
H4442 C4468 0.950 . S
H4443 C4470 0.950 . S
H4444 C4473 0.950 . S
H4445 C4474 0.950 . S
H4446 C4476 0.950 . S
H4447 C4477 0.950 . S
C4448 H4430 0.951 . S
C4448 C4449 1.366 . S
C4448 C4450 1.388 . S
C4449 C4448 1.366 . S
C4449 C4453 1.385 . S
C4450 H4431 0.951 . S
C4450 C4448 1.388 . S
C4450 C4451 1.366 . S
C4451 C4450 1.366 . S
C4451 C4452 1.414 . S
C4451 C4454 1.499 . S
C4452 H4432 0.950 . S
C4452 C4451 1.414 . S
C4452 C4453 1.374 . S
C4453 H4433 0.950 . S
C4453 C4449 1.385 . S
C4453 C4452 1.374 . S
C4454 C4451 1.499 . S
C4454 C4455 1.373 . S
C4454 C4456 1.389 . S
C4455 H4434 0.950 . S
C4455 C4454 1.373 . S
C4455 C4471 1.377 . S
C4456 C4454 1.389 . S
C4456 C4457 1.524 . S
C4456 C4470 1.377 . S
C4457 C4456 1.524 . S
C4457 C4458 1.397 . S
C4457 C4462 1.363 . S
C4458 H4435 0.950 . S
C4458 C4457 1.397 . S
C4458 C4459 1.334 . S
C4459 H4436 0.950 . S
C4459 C4458 1.334 . S
C4459 C4460 1.287 . S
C4460 C4459 1.287 . S
C4460 C4461 1.524 . S
C4460 H4479 0.913 . S
C4461 H4437 0.950 . S
C4461 C4460 1.524 . S
C4461 C4462 1.415 . S
C4462 H4438 0.950 . S
C4462 C4457 1.363 . S
C4462 C4461 1.415 . S
C4463 H4439 0.951 . S
C4463 C4464 1.366 . S
C4463 C4465 1.388 . S
C4464 C4463 1.366 . S
C4464 C4468 1.385 . S
C4465 H4440 0.951 . S
C4465 C4463 1.388 . S
C4465 C4466 1.366 . S
C4466 C4465 1.366 . S
C4466 C4467 1.414 . S
C4466 C4469 1.499 . S
C4467 H4441 0.950 . S
C4467 C4466 1.414 . S
C4467 C4468 1.374 . S
C4468 H4442 0.950 . S
C4468 C4464 1.385 . S
C4468 C4467 1.374 . S
C4469 C4466 1.499 . S
C4469 C4470 1.373 . S
C4469 C4471 1.389 . S
C4470 H4443 0.950 . S
C4470 C4456 1.377 . S
C4470 C4469 1.373 . S
C4471 C4455 1.377 . S
C4471 C4469 1.389 . S
C4471 C4472 1.524 . S
C4472 C4471 1.524 . S
C4472 C4473 1.397 . S
C4472 C4477 1.363 . S
C4473 H4444 0.950 . S
C4473 C4472 1.397 . S
C4473 C4474 1.334 . S
C4474 H4445 0.950 . S
C4474 C4473 1.334 . S
C4474 C4475 1.287 . S
C4475 C4474 1.287 . S
C4475 C4476 1.524 . S
C4475 H4478 0.999 . S
C4476 H4446 0.950 . S
C4476 C4475 1.524 . S
C4476 C4477 1.415 . S
C4477 H4447 0.950 . S
C4477 C4472 1.363 . S
C4477 C4476 1.415 . S
H4478 C4475 0.999 . S
H4479 C4460 0.913 . S
H4480 C4498 0.951 . S
H4481 C4500 0.951 . S
H4482 C4502 0.950 . S
H4483 C4503 0.950 . S
H4484 C4505 0.950 . S
H4485 C4508 0.950 . S
H4486 C4509 0.950 . S
H4487 C4511 0.950 . S
H4488 C4512 0.950 . S
H4489 C4513 0.951 . S
H4490 C4515 0.951 . S
H4491 C4517 0.950 . S
H4492 C4518 0.950 . S
H4493 C4520 0.950 . S
H4494 C4523 0.950 . S
H4495 C4524 0.950 . S
H4496 C4526 0.950 . S
H4497 C4527 0.950 . S
C4498 H4480 0.951 . S
C4498 C4499 1.366 . S
C4498 C4500 1.388 . S
C4499 C4498 1.366 . S
C4499 C4503 1.385 . S
C4500 H4481 0.951 . S
C4500 C4498 1.388 . S
C4500 C4501 1.366 . S
C4501 C4500 1.366 . S
C4501 C4502 1.414 . S
C4501 C4504 1.499 . S
C4502 H4482 0.950 . S
C4502 C4501 1.414 . S
C4502 C4503 1.374 . S
C4503 H4483 0.950 . S
C4503 C4499 1.385 . S
C4503 C4502 1.374 . S
C4504 C4501 1.499 . S
C4504 C4505 1.373 . S
C4504 C4506 1.389 . S
C4505 H4484 0.950 . S
C4505 C4504 1.373 . S
C4505 C4521 1.377 . S
C4506 C4504 1.389 . S
C4506 C4507 1.524 . S
C4506 C4520 1.377 . S
C4507 C4506 1.524 . S
C4507 C4508 1.397 . S
C4507 C4512 1.363 . S
C4508 H4485 0.950 . S
C4508 C4507 1.397 . S
C4508 C4509 1.334 . S
C4509 H4486 0.950 . S
C4509 C4508 1.334 . S
C4509 C4510 1.287 . S
C4510 C4509 1.287 . S
C4510 C4511 1.524 . S
C4510 H4529 0.913 . S
C4511 H4487 0.950 . S
C4511 C4510 1.524 . S
C4511 C4512 1.415 . S
C4512 H4488 0.950 . S
C4512 C4507 1.363 . S
C4512 C4511 1.415 . S
C4513 H4489 0.951 . S
C4513 C4514 1.366 . S
C4513 C4515 1.388 . S
C4514 C4513 1.366 . S
C4514 C4518 1.385 . S
C4515 H4490 0.951 . S
C4515 C4513 1.388 . S
C4515 C4516 1.366 . S
C4516 C4515 1.366 . S
C4516 C4517 1.414 . S
C4516 C4519 1.499 . S
C4517 H4491 0.950 . S
C4517 C4516 1.414 . S
C4517 C4518 1.374 . S
C4518 H4492 0.950 . S
C4518 C4514 1.385 . S
C4518 C4517 1.374 . S
C4519 C4516 1.499 . S
C4519 C4520 1.373 . S
C4519 C4521 1.389 . S
C4520 H4493 0.950 . S
C4520 C4506 1.377 . S
C4520 C4519 1.373 . S
C4521 C4505 1.377 . S
C4521 C4519 1.389 . S
C4521 C4522 1.524 . S
C4522 C4521 1.524 . S
C4522 C4523 1.397 . S
C4522 C4527 1.363 . S
C4523 H4494 0.950 . S
C4523 C4522 1.397 . S
C4523 C4524 1.334 . S
C4524 H4495 0.950 . S
C4524 C4523 1.334 . S
C4524 C4525 1.287 . S
C4525 C4524 1.287 . S
C4525 C4526 1.524 . S
C4525 H4528 0.999 . S
C4526 H4496 0.950 . S
C4526 C4525 1.524 . S
C4526 C4527 1.415 . S
C4527 H4497 0.950 . S
C4527 C4522 1.363 . S
C4527 C4526 1.415 . S
H4528 C4525 0.999 . S
H4529 C4510 0.913 . S
H4530 C4548 0.951 1_554 S
H4531 C4550 0.951 . S
H4532 C4552 0.950 . S
H4533 C4553 0.950 . S
H4534 C4555 0.950 . S
H4535 C4558 0.950 . S
H4536 C4559 0.950 . S
H4537 C4561 0.950 1_554 S
H4538 C4562 0.950 . S
H4539 C4563 0.951 . S
H4540 C4565 0.951 . S
H4541 C4567 0.950 . S
H4542 C4568 0.950 . S
H4543 C4570 0.950 . S
H4544 C4573 0.950 . S
H4545 C4574 0.950 . S
H4546 C4576 0.950 . S
H4547 C4577 0.950 . S
C4548 H4530 0.951 1_556 S
C4548 C4549 1.366 . S
C4548 C4550 1.388 . S
C4549 C4548 1.366 . S
C4549 C4553 1.385 . S
C4550 H4531 0.951 . S
C4550 C4548 1.388 . S
C4550 C4551 1.366 . S
C4551 C4550 1.366 . S
C4551 C4552 1.414 . S
C4551 C4554 1.499 . S
C4552 H4532 0.950 . S
C4552 C4551 1.414 . S
C4552 C4553 1.374 . S
C4553 H4533 0.950 . S
C4553 C4549 1.385 . S
C4553 C4552 1.374 . S
C4554 C4551 1.499 . S
C4554 C4555 1.373 . S
C4554 C4556 1.389 . S
C4555 H4534 0.950 . S
C4555 C4554 1.373 . S
C4555 C4571 1.377 . S
C4556 C4554 1.389 . S
C4556 C4557 1.524 . S
C4556 C4570 1.377 . S
C4557 C4556 1.524 . S
C4557 C4558 1.397 . S
C4557 C4562 1.363 . S
C4558 H4535 0.950 . S
C4558 C4557 1.397 . S
C4558 C4559 1.334 1_556 S
C4559 H4536 0.950 . S
C4559 C4558 1.334 1_554 S
C4559 C4560 1.287 . S
C4560 C4559 1.287 . S
C4560 C4561 1.524 1_554 S
C4560 H4579 0.913 . S
C4561 H4537 0.950 1_556 S
C4561 C4560 1.524 1_556 S
C4561 C4562 1.415 . S
C4562 H4538 0.950 . S
C4562 C4557 1.363 . S
C4562 C4561 1.415 . S
C4563 H4539 0.951 . S
C4563 C4564 1.366 . S
C4563 C4565 1.388 . S
C4564 C4563 1.366 . S
C4564 C4568 1.385 . S
C4565 H4540 0.951 . S
C4565 C4563 1.388 . S
C4565 C4566 1.366 . S
C4566 C4565 1.366 . S
C4566 C4567 1.414 . S
C4566 C4569 1.499 . S
C4567 H4541 0.950 . S
C4567 C4566 1.414 . S
C4567 C4568 1.374 . S
C4568 H4542 0.950 . S
C4568 C4564 1.385 . S
C4568 C4567 1.374 . S
C4569 C4566 1.499 . S
C4569 C4570 1.373 . S
C4569 C4571 1.389 . S
C4570 H4543 0.950 . S
C4570 C4556 1.377 . S
C4570 C4569 1.373 . S
C4571 C4555 1.377 . S
C4571 C4569 1.389 . S
C4571 C4572 1.524 . S
C4572 C4571 1.524 . S
C4572 C4573 1.397 . S
C4572 C4577 1.363 . S
C4573 H4544 0.950 . S
C4573 C4572 1.397 . S
C4573 C4574 1.334 . S
C4574 H4545 0.950 . S
C4574 C4573 1.334 . S
C4574 C4575 1.287 . S
C4575 C4574 1.287 . S
C4575 C4576 1.524 . S
C4575 H4578 0.999 . S
C4576 H4546 0.950 . S
C4576 C4575 1.524 . S
C4576 C4577 1.415 . S
C4577 H4547 0.950 . S
C4577 C4572 1.363 . S
C4577 C4576 1.415 . S
H4578 C4575 0.999 . S
H4579 C4560 0.913 . S
H4580 C4598 0.951 . S
H4581 C4600 0.951 . S
H4582 C4602 0.950 . S
H4583 C4603 0.950 . S
H4584 C4605 0.950 . S
H4585 C4608 0.950 . S
H4586 C4609 0.950 . S
H4587 C4611 0.950 . S
H4588 C4612 0.950 . S
H4589 C4613 0.951 . S
H4590 C4615 0.951 . S
H4591 C4617 0.950 . S
H4592 C4618 0.950 . S
H4593 C4620 0.950 . S
H4594 C4623 0.950 . S
H4595 C4624 0.950 . S
H4596 C4626 0.950 . S
H4597 C4627 0.950 . S
C4598 H4580 0.951 . S
C4598 C4599 1.366 . S
C4598 C4600 1.388 . S
C4599 C4598 1.366 . S
C4599 C4603 1.385 . S
C4600 H4581 0.951 . S
C4600 C4598 1.388 . S
C4600 C4601 1.366 . S
C4601 C4600 1.366 . S
C4601 C4602 1.414 . S
C4601 C4604 1.499 . S
C4602 H4582 0.950 . S
C4602 C4601 1.414 . S
C4602 C4603 1.374 . S
C4603 H4583 0.950 . S
C4603 C4599 1.385 . S
C4603 C4602 1.374 . S
C4604 C4601 1.499 . S
C4604 C4605 1.373 . S
C4604 C4606 1.389 . S
C4605 H4584 0.950 . S
C4605 C4604 1.373 . S
C4605 C4621 1.377 . S
C4606 C4604 1.389 . S
C4606 C4607 1.524 . S
C4606 C4620 1.377 . S
C4607 C4606 1.524 . S
C4607 C4608 1.397 . S
C4607 C4612 1.363 . S
C4608 H4585 0.950 . S
C4608 C4607 1.397 . S
C4608 C4609 1.334 . S
C4609 H4586 0.950 . S
C4609 C4608 1.334 . S
C4609 C4610 1.287 . S
C4610 C4609 1.287 . S
C4610 C4611 1.524 . S
C4610 H4629 0.913 . S
C4611 H4587 0.950 . S
C4611 C4610 1.524 . S
C4611 C4612 1.415 . S
C4612 H4588 0.950 . S
C4612 C4607 1.363 . S
C4612 C4611 1.415 . S
C4613 H4589 0.951 . S
C4613 C4614 1.366 . S
C4613 C4615 1.388 . S
C4614 C4613 1.366 . S
C4614 C4618 1.385 . S
C4615 H4590 0.951 . S
C4615 C4613 1.388 . S
C4615 C4616 1.366 . S
C4616 C4615 1.366 . S
C4616 C4617 1.414 . S
C4616 C4619 1.499 . S
C4617 H4591 0.950 . S
C4617 C4616 1.414 . S
C4617 C4618 1.374 . S
C4618 H4592 0.950 . S
C4618 C4614 1.385 . S
C4618 C4617 1.374 . S
C4619 C4616 1.499 . S
C4619 C4620 1.373 . S
C4619 C4621 1.389 . S
C4620 H4593 0.950 . S
C4620 C4606 1.377 . S
C4620 C4619 1.373 . S
C4621 C4605 1.377 . S
C4621 C4619 1.389 . S
C4621 C4622 1.524 . S
C4622 C4621 1.524 . S
C4622 C4623 1.397 . S
C4622 C4627 1.363 . S
C4623 H4594 0.950 . S
C4623 C4622 1.397 . S
C4623 C4624 1.334 . S
C4624 H4595 0.950 . S
C4624 C4623 1.334 . S
C4624 C4625 1.287 . S
C4625 C4624 1.287 . S
C4625 C4626 1.524 . S
C4625 H4628 0.999 . S
C4626 H4596 0.950 . S
C4626 C4625 1.524 . S
C4626 C4627 1.415 . S
C4627 H4597 0.950 . S
C4627 C4622 1.363 . S
C4627 C4626 1.415 . S
H4628 C4625 0.999 . S
H4629 C4610 0.913 . S
H4630 C4648 0.951 . S
H4631 C4650 0.951 . S
H4632 C4652 0.950 . S
H4633 C4653 0.950 . S
H4634 C4655 0.950 . S
H4635 C4658 0.950 . S
H4636 C4659 0.950 . S
H4637 C4661 0.950 . S
H4638 C4662 0.950 . S
H4639 C4663 0.951 . S
H4640 C4665 0.951 . S
H4641 C4667 0.950 . S
H4642 C4668 0.950 . S
H4643 C4670 0.950 . S
H4644 C4673 0.950 . S
H4645 C4674 0.950 . S
H4646 C4676 0.950 . S
H4647 C4677 0.950 . S
C4648 H4630 0.951 . S
C4648 C4649 1.366 . S
C4648 C4650 1.388 . S
C4649 C4648 1.366 . S
C4649 C4653 1.385 . S
C4650 H4631 0.951 . S
C4650 C4648 1.388 . S
C4650 C4651 1.366 . S
C4651 C4650 1.366 . S
C4651 C4652 1.414 . S
C4651 C4654 1.499 . S
C4652 H4632 0.950 . S
C4652 C4651 1.414 . S
C4652 C4653 1.374 . S
C4653 H4633 0.950 . S
C4653 C4649 1.385 . S
C4653 C4652 1.374 . S
C4654 C4651 1.499 . S
C4654 C4655 1.373 . S
C4654 C4656 1.389 . S
C4655 H4634 0.950 . S
C4655 C4654 1.373 . S
C4655 C4671 1.377 . S
C4656 C4654 1.389 . S
C4656 C4657 1.524 . S
C4656 C4670 1.377 . S
C4657 C4656 1.524 . S
C4657 C4658 1.397 . S
C4657 C4662 1.363 . S
C4658 H4635 0.950 . S
C4658 C4657 1.397 . S
C4658 C4659 1.334 . S
C4659 H4636 0.950 . S
C4659 C4658 1.334 . S
C4659 C4660 1.287 . S
C4660 C4659 1.287 . S
C4660 C4661 1.524 . S
C4660 H4679 0.913 . S
C4661 H4637 0.950 . S
C4661 C4660 1.524 . S
C4661 C4662 1.415 . S
C4662 H4638 0.950 . S
C4662 C4657 1.363 . S
C4662 C4661 1.415 . S
C4663 H4639 0.951 . S
C4663 C4664 1.366 . S
C4663 C4665 1.388 . S
C4664 C4663 1.366 . S
C4664 C4668 1.385 . S
C4665 H4640 0.951 . S
C4665 C4663 1.388 . S
C4665 C4666 1.366 . S
C4666 C4665 1.366 . S
C4666 C4667 1.414 . S
C4666 C4669 1.499 . S
C4667 H4641 0.950 . S
C4667 C4666 1.414 . S
C4667 C4668 1.374 . S
C4668 H4642 0.950 . S
C4668 C4664 1.385 . S
C4668 C4667 1.374 . S
C4669 C4666 1.499 . S
C4669 C4670 1.373 . S
C4669 C4671 1.389 . S
C4670 H4643 0.950 . S
C4670 C4656 1.377 . S
C4670 C4669 1.373 . S
C4671 C4655 1.377 . S
C4671 C4669 1.389 . S
C4671 C4672 1.524 . S
C4672 C4671 1.524 . S
C4672 C4673 1.397 . S
C4672 C4677 1.363 . S
C4673 H4644 0.950 . S
C4673 C4672 1.397 . S
C4673 C4674 1.334 . S
C4674 H4645 0.950 . S
C4674 C4673 1.334 . S
C4674 C4675 1.287 . S
C4675 C4674 1.287 . S
C4675 C4676 1.524 . S
C4675 H4678 0.999 . S
C4676 H4646 0.950 . S
C4676 C4675 1.524 . S
C4676 C4677 1.415 . S
C4677 H4647 0.950 . S
C4677 C4672 1.363 . S
C4677 C4676 1.415 . S
H4678 C4675 0.999 . S
H4679 C4660 0.913 . S
H4680 C4698 0.951 . S
H4681 C4700 0.951 . S
H4682 C4702 0.950 . S
H4683 C4703 0.950 . S
H4684 C4705 0.950 . S
H4685 C4708 0.950 . S
H4686 C4709 0.950 . S
H4687 C4711 0.950 . S
H4688 C4712 0.950 . S
H4689 C4713 0.951 . S
H4690 C4715 0.951 . S
H4691 C4717 0.950 . S
H4692 C4718 0.950 . S
H4693 C4720 0.950 . S
H4694 C4723 0.950 . S
H4695 C4724 0.950 . S
H4696 C4726 0.950 . S
H4697 C4727 0.950 . S
C4698 H4680 0.951 . S
C4698 C4699 1.366 . S
C4698 C4700 1.388 . S
C4699 C4698 1.366 . S
C4699 C4703 1.385 . S
C4700 H4681 0.951 . S
C4700 C4698 1.388 . S
C4700 C4701 1.366 . S
C4701 C4700 1.366 . S
C4701 C4702 1.414 . S
C4701 C4704 1.499 . S
C4702 H4682 0.950 . S
C4702 C4701 1.414 . S
C4702 C4703 1.374 . S
C4703 H4683 0.950 . S
C4703 C4699 1.385 . S
C4703 C4702 1.374 . S
C4704 C4701 1.499 . S
C4704 C4705 1.373 . S
C4704 C4706 1.389 . S
C4705 H4684 0.950 . S
C4705 C4704 1.373 . S
C4705 C4721 1.377 . S
C4706 C4704 1.389 . S
C4706 C4707 1.524 . S
C4706 C4720 1.377 . S
C4707 C4706 1.524 . S
C4707 C4708 1.397 . S
C4707 C4712 1.363 . S
C4708 H4685 0.950 . S
C4708 C4707 1.397 . S
C4708 C4709 1.334 . S
C4709 H4686 0.950 . S
C4709 C4708 1.334 . S
C4709 C4710 1.287 . S
C4710 C4709 1.287 . S
C4710 C4711 1.524 . S
C4710 H4729 0.913 . S
C4711 H4687 0.950 . S
C4711 C4710 1.524 . S
C4711 C4712 1.415 . S
C4712 H4688 0.950 . S
C4712 C4707 1.363 . S
C4712 C4711 1.415 . S
C4713 H4689 0.951 . S
C4713 C4714 1.366 . S
C4713 C4715 1.388 . S
C4714 C4713 1.366 . S
C4714 C4718 1.385 . S
C4715 H4690 0.951 . S
C4715 C4713 1.388 . S
C4715 C4716 1.366 . S
C4716 C4715 1.366 . S
C4716 C4717 1.414 . S
C4716 C4719 1.499 . S
C4717 H4691 0.950 . S
C4717 C4716 1.414 . S
C4717 C4718 1.374 . S
C4718 H4692 0.950 . S
C4718 C4714 1.385 . S
C4718 C4717 1.374 . S
C4719 C4716 1.499 . S
C4719 C4720 1.373 . S
C4719 C4721 1.389 . S
C4720 H4693 0.950 . S
C4720 C4706 1.377 . S
C4720 C4719 1.373 . S
C4721 C4705 1.377 . S
C4721 C4719 1.389 . S
C4721 C4722 1.524 . S
C4722 C4721 1.524 . S
C4722 C4723 1.397 . S
C4722 C4727 1.363 . S
C4723 H4694 0.950 . S
C4723 C4722 1.397 . S
C4723 C4724 1.334 . S
C4724 H4695 0.950 . S
C4724 C4723 1.334 . S
C4724 C4725 1.287 . S
C4725 C4724 1.287 . S
C4725 C4726 1.524 . S
C4725 H4728 0.999 . S
C4726 H4696 0.950 . S
C4726 C4725 1.524 . S
C4726 C4727 1.415 . S
C4727 H4697 0.950 . S
C4727 C4722 1.363 . S
C4727 C4726 1.415 . S
H4728 C4725 0.999 . S
H4729 C4710 0.913 . S
H4730 C4748 0.951 . S
H4731 C4750 0.951 . S
H4732 C4752 0.950 . S
H4733 C4753 0.950 . S
H4734 C4755 0.950 . S
H4735 C4758 0.950 . S
H4736 C4759 0.950 . S
H4737 C4761 0.950 . S
H4738 C4762 0.950 . S
H4739 C4763 0.951 . S
H4740 C4765 0.951 . S
H4741 C4767 0.950 . S
H4742 C4768 0.950 . S
H4743 C4770 0.950 . S
H4744 C4773 0.950 . S
H4745 C4774 0.950 . S
H4746 C4776 0.950 . S
H4747 C4777 0.950 . S
C4748 H4730 0.951 . S
C4748 C4749 1.366 . S
C4748 C4750 1.388 . S
C4749 C4748 1.366 . S
C4749 C4753 1.385 . S
C4750 H4731 0.951 . S
C4750 C4748 1.388 . S
C4750 C4751 1.366 . S
C4751 C4750 1.366 . S
C4751 C4752 1.414 . S
C4751 C4754 1.499 . S
C4752 H4732 0.950 . S
C4752 C4751 1.414 . S
C4752 C4753 1.374 . S
C4753 H4733 0.950 . S
C4753 C4749 1.385 . S
C4753 C4752 1.374 . S
C4754 C4751 1.499 . S
C4754 C4755 1.373 . S
C4754 C4756 1.389 . S
C4755 H4734 0.950 . S
C4755 C4754 1.373 . S
C4755 C4771 1.377 . S
C4756 C4754 1.389 . S
C4756 C4757 1.524 . S
C4756 C4770 1.377 . S
C4757 C4756 1.524 . S
C4757 C4758 1.397 . S
C4757 C4762 1.363 . S
C4758 H4735 0.950 . S
C4758 C4757 1.397 . S
C4758 C4759 1.334 . S
C4759 H4736 0.950 . S
C4759 C4758 1.334 . S
C4759 C4760 1.287 . S
C4760 C4759 1.287 . S
C4760 C4761 1.524 . S
C4760 H4779 0.913 . S
C4761 H4737 0.950 . S
C4761 C4760 1.524 . S
C4761 C4762 1.415 . S
C4762 H4738 0.950 . S
C4762 C4757 1.363 . S
C4762 C4761 1.415 . S
C4763 H4739 0.951 . S
C4763 C4764 1.366 . S
C4763 C4765 1.388 . S
C4764 C4763 1.366 . S
C4764 C4768 1.385 . S
C4765 H4740 0.951 . S
C4765 C4763 1.388 . S
C4765 C4766 1.366 . S
C4766 C4765 1.366 . S
C4766 C4767 1.414 . S
C4766 C4769 1.499 . S
C4767 H4741 0.950 . S
C4767 C4766 1.414 . S
C4767 C4768 1.374 . S
C4768 H4742 0.950 . S
C4768 C4764 1.385 . S
C4768 C4767 1.374 . S
C4769 C4766 1.499 . S
C4769 C4770 1.373 . S
C4769 C4771 1.389 . S
C4770 H4743 0.950 . S
C4770 C4756 1.377 . S
C4770 C4769 1.373 . S
C4771 C4755 1.377 . S
C4771 C4769 1.389 . S
C4771 C4772 1.524 . S
C4772 C4771 1.524 . S
C4772 C4773 1.397 . S
C4772 C4777 1.363 . S
C4773 H4744 0.950 . S
C4773 C4772 1.397 . S
C4773 C4774 1.334 . S
C4774 H4745 0.950 . S
C4774 C4773 1.334 . S
C4774 C4775 1.287 . S
C4775 C4774 1.287 . S
C4775 C4776 1.524 . S
C4775 H4778 0.999 . S
C4776 H4746 0.950 . S
C4776 C4775 1.524 . S
C4776 C4777 1.415 . S
C4777 H4747 0.950 . S
C4777 C4772 1.363 . S
C4777 C4776 1.415 . S
H4778 C4775 0.999 . S
H4779 C4760 0.913 . S
H4780 C4798 0.951 . S
H4781 C4800 0.951 . S
H4782 C4802 0.950 . S
H4783 C4803 0.950 . S
H4784 C4805 0.950 . S
H4785 C4808 0.950 . S
H4786 C4809 0.950 . S
H4787 C4811 0.950 . S
H4788 C4812 0.950 . S
H4789 C4813 0.951 . S
H4790 C4815 0.951 . S
H4791 C4817 0.950 . S
H4792 C4818 0.950 . S
H4793 C4820 0.950 . S
H4794 C4823 0.950 . S
H4795 C4824 0.950 . S
H4796 C4826 0.950 . S
H4797 C4827 0.950 . S
C4798 H4780 0.951 . S
C4798 C4799 1.366 . S
C4798 C4800 1.388 . S
C4799 C4798 1.366 . S
C4799 C4803 1.385 . S
C4800 H4781 0.951 . S
C4800 C4798 1.388 . S
C4800 C4801 1.366 . S
C4801 C4800 1.366 . S
C4801 C4802 1.414 . S
C4801 C4804 1.499 . S
C4802 H4782 0.950 . S
C4802 C4801 1.414 . S
C4802 C4803 1.374 . S
C4803 H4783 0.950 . S
C4803 C4799 1.385 . S
C4803 C4802 1.374 . S
C4804 C4801 1.499 . S
C4804 C4805 1.373 . S
C4804 C4806 1.389 . S
C4805 H4784 0.950 . S
C4805 C4804 1.373 . S
C4805 C4821 1.377 . S
C4806 C4804 1.389 . S
C4806 C4807 1.524 . S
C4806 C4820 1.377 . S
C4807 C4806 1.524 . S
C4807 C4808 1.397 . S
C4807 C4812 1.363 . S
C4808 H4785 0.950 . S
C4808 C4807 1.397 . S
C4808 C4809 1.334 . S
C4809 H4786 0.950 . S
C4809 C4808 1.334 . S
C4809 C4810 1.287 . S
C4810 C4809 1.287 . S
C4810 C4811 1.524 . S
C4810 H4829 0.913 . S
C4811 H4787 0.950 . S
C4811 C4810 1.524 . S
C4811 C4812 1.415 . S
C4812 H4788 0.950 . S
C4812 C4807 1.363 . S
C4812 C4811 1.415 . S
C4813 H4789 0.951 . S
C4813 C4814 1.366 . S
C4813 C4815 1.388 . S
C4814 C4813 1.366 . S
C4814 C4818 1.385 . S
C4815 H4790 0.951 . S
C4815 C4813 1.388 . S
C4815 C4816 1.366 . S
C4816 C4815 1.366 . S
C4816 C4817 1.414 . S
C4816 C4819 1.499 . S
C4817 H4791 0.950 . S
C4817 C4816 1.414 . S
C4817 C4818 1.374 . S
C4818 H4792 0.950 . S
C4818 C4814 1.385 . S
C4818 C4817 1.374 . S
C4819 C4816 1.499 . S
C4819 C4820 1.373 . S
C4819 C4821 1.389 . S
C4820 H4793 0.950 . S
C4820 C4806 1.377 . S
C4820 C4819 1.373 . S
C4821 C4805 1.377 . S
C4821 C4819 1.389 . S
C4821 C4822 1.524 . S
C4822 C4821 1.524 . S
C4822 C4823 1.397 . S
C4822 C4827 1.363 . S
C4823 H4794 0.950 . S
C4823 C4822 1.397 . S
C4823 C4824 1.334 . S
C4824 H4795 0.950 . S
C4824 C4823 1.334 . S
C4824 C4825 1.287 . S
C4825 C4824 1.287 . S
C4825 C4826 1.524 . S
C4825 H4828 0.999 . S
C4826 H4796 0.950 . S
C4826 C4825 1.524 . S
C4826 C4827 1.415 . S
C4827 H4797 0.950 . S
C4827 C4822 1.363 . S
C4827 C4826 1.415 . S
H4828 C4825 0.999 . S
H4829 C4810 0.913 . S
H4830 C4848 0.951 . S
H4831 C4850 0.951 . S
H4832 C4852 0.950 . S
H4833 C4853 0.950 . S
H4834 C4855 0.950 . S
H4835 C4858 0.950 . S
H4836 C4859 0.950 . S
H4837 C4861 0.950 . S
H4838 C4862 0.950 . S
H4839 C4863 0.951 . S
H4840 C4865 0.951 . S
H4841 C4867 0.950 . S
H4842 C4868 0.950 . S
H4843 C4870 0.950 . S
H4844 C4873 0.950 . S
H4845 C4874 0.950 . S
H4846 C4876 0.950 . S
H4847 C4877 0.950 . S
C4848 H4830 0.951 . S
C4848 C4849 1.366 . S
C4848 C4850 1.388 . S
C4849 C4848 1.366 . S
C4849 C4853 1.385 . S
C4850 H4831 0.951 . S
C4850 C4848 1.388 . S
C4850 C4851 1.366 . S
C4851 C4850 1.366 . S
C4851 C4852 1.414 . S
C4851 C4854 1.499 . S
C4852 H4832 0.950 . S
C4852 C4851 1.414 . S
C4852 C4853 1.374 . S
C4853 H4833 0.950 . S
C4853 C4849 1.385 . S
C4853 C4852 1.374 . S
C4854 C4851 1.499 . S
C4854 C4855 1.373 . S
C4854 C4856 1.389 . S
C4855 H4834 0.950 . S
C4855 C4854 1.373 . S
C4855 C4871 1.377 . S
C4856 C4854 1.389 . S
C4856 C4857 1.524 . S
C4856 C4870 1.377 . S
C4857 C4856 1.524 . S
C4857 C4858 1.397 . S
C4857 C4862 1.363 . S
C4858 H4835 0.950 . S
C4858 C4857 1.397 . S
C4858 C4859 1.334 . S
C4859 H4836 0.950 . S
C4859 C4858 1.334 . S
C4859 C4860 1.287 . S
C4860 C4859 1.287 . S
C4860 C4861 1.524 . S
C4860 H4879 0.913 . S
C4861 H4837 0.950 . S
C4861 C4860 1.524 . S
C4861 C4862 1.415 . S
C4862 H4838 0.950 . S
C4862 C4857 1.363 . S
C4862 C4861 1.415 . S
C4863 H4839 0.951 . S
C4863 C4864 1.366 . S
C4863 C4865 1.388 . S
C4864 C4863 1.366 . S
C4864 C4868 1.385 . S
C4865 H4840 0.951 . S
C4865 C4863 1.388 . S
C4865 C4866 1.366 . S
C4866 C4865 1.366 . S
C4866 C4867 1.414 . S
C4866 C4869 1.499 . S
C4867 H4841 0.950 . S
C4867 C4866 1.414 . S
C4867 C4868 1.374 . S
C4868 H4842 0.950 . S
C4868 C4864 1.385 . S
C4868 C4867 1.374 . S
C4869 C4866 1.499 . S
C4869 C4870 1.373 . S
C4869 C4871 1.389 . S
C4870 H4843 0.950 . S
C4870 C4856 1.377 . S
C4870 C4869 1.373 . S
C4871 C4855 1.377 . S
C4871 C4869 1.389 . S
C4871 C4872 1.524 . S
C4872 C4871 1.524 . S
C4872 C4873 1.397 . S
C4872 C4877 1.363 . S
C4873 H4844 0.950 . S
C4873 C4872 1.397 . S
C4873 C4874 1.334 . S
C4874 H4845 0.950 . S
C4874 C4873 1.334 . S
C4874 C4875 1.287 . S
C4875 C4874 1.287 . S
C4875 C4876 1.524 . S
C4875 H4878 0.999 . S
C4876 H4846 0.950 . S
C4876 C4875 1.524 . S
C4876 C4877 1.415 . S
C4877 H4847 0.950 . S
C4877 C4872 1.363 . S
C4877 C4876 1.415 . S
H4878 C4875 0.999 . S
H4879 C4860 0.913 . S
H4880 C4898 0.951 . S
H4881 C4900 0.951 . S
H4882 C4902 0.950 . S
H4883 C4903 0.950 . S
H4884 C4905 0.950 . S
H4885 C4908 0.950 . S
H4886 C4909 0.950 . S
H4887 C4911 0.950 . S
H4888 C4912 0.950 . S
H4889 C4913 0.951 . S
H4890 C4915 0.951 . S
H4891 C4917 0.950 . S
H4892 C4918 0.950 . S
H4893 C4920 0.950 . S
H4894 C4923 0.950 . S
H4895 C4924 0.950 . S
H4896 C4926 0.950 . S
H4897 C4927 0.950 . S
C4898 H4880 0.951 . S
C4898 C4899 1.366 . S
C4898 C4900 1.388 . S
C4899 C4898 1.366 . S
C4899 C4903 1.385 . S
C4900 H4881 0.951 . S
C4900 C4898 1.388 . S
C4900 C4901 1.366 . S
C4901 C4900 1.366 . S
C4901 C4902 1.414 . S
C4901 C4904 1.499 . S
C4902 H4882 0.950 . S
C4902 C4901 1.414 . S
C4902 C4903 1.374 . S
C4903 H4883 0.950 . S
C4903 C4899 1.385 . S
C4903 C4902 1.374 . S
C4904 C4901 1.499 . S
C4904 C4905 1.373 . S
C4904 C4906 1.389 . S
C4905 H4884 0.950 . S
C4905 C4904 1.373 . S
C4905 C4921 1.377 . S
C4906 C4904 1.389 . S
C4906 C4907 1.524 . S
C4906 C4920 1.377 . S
C4907 C4906 1.524 . S
C4907 C4908 1.397 . S
C4907 C4912 1.363 . S
C4908 H4885 0.950 . S
C4908 C4907 1.397 . S
C4908 C4909 1.334 . S
C4909 H4886 0.950 . S
C4909 C4908 1.334 . S
C4909 C4910 1.287 . S
C4910 C4909 1.287 . S
C4910 C4911 1.524 . S
C4910 H4929 0.913 . S
C4911 H4887 0.950 . S
C4911 C4910 1.524 . S
C4911 C4912 1.415 . S
C4912 H4888 0.950 . S
C4912 C4907 1.363 . S
C4912 C4911 1.415 . S
C4913 H4889 0.951 . S
C4913 C4914 1.366 . S
C4913 C4915 1.388 . S
C4914 C4913 1.366 . S
C4914 C4918 1.385 . S
C4915 H4890 0.951 . S
C4915 C4913 1.388 . S
C4915 C4916 1.366 . S
C4916 C4915 1.366 . S
C4916 C4917 1.414 . S
C4916 C4919 1.499 . S
C4917 H4891 0.950 . S
C4917 C4916 1.414 . S
C4917 C4918 1.374 . S
C4918 H4892 0.950 . S
C4918 C4914 1.385 . S
C4918 C4917 1.374 . S
C4919 C4916 1.499 . S
C4919 C4920 1.373 . S
C4919 C4921 1.389 . S
C4920 H4893 0.950 . S
C4920 C4906 1.377 . S
C4920 C4919 1.373 . S
C4921 C4905 1.377 . S
C4921 C4919 1.389 . S
C4921 C4922 1.524 . S
C4922 C4921 1.524 . S
C4922 C4923 1.397 . S
C4922 C4927 1.363 . S
C4923 H4894 0.950 . S
C4923 C4922 1.397 . S
C4923 C4924 1.334 . S
C4924 H4895 0.950 . S
C4924 C4923 1.334 . S
C4924 C4925 1.287 . S
C4925 C4924 1.287 . S
C4925 C4926 1.524 . S
C4925 H4928 0.999 . S
C4926 H4896 0.950 . S
C4926 C4925 1.524 . S
C4926 C4927 1.415 . S
C4927 H4897 0.950 . S
C4927 C4922 1.363 . S
C4927 C4926 1.415 . S
H4928 C4925 0.999 . S
H4929 C4910 0.913 . S
H4930 C4948 0.951 . S
H4931 C4950 0.951 . S
H4932 C4952 0.950 . S
H4933 C4953 0.950 . S
H4934 C4955 0.950 . S
H4935 C4958 0.950 . S
H4936 C4959 0.950 . S
H4937 C4961 0.950 . S
H4938 C4962 0.950 . S
H4939 C4963 0.951 . S
H4940 C4965 0.951 . S
H4941 C4967 0.950 . S
H4942 C4968 0.950 . S
H4943 C4970 0.950 . S
H4944 C4973 0.950 . S
H4945 C4974 0.950 . S
H4946 C4976 0.950 . S
H4947 C4977 0.950 . S
C4948 H4930 0.951 . S
C4948 C4949 1.366 . S
C4948 C4950 1.388 . S
C4949 C4948 1.366 . S
C4949 C4953 1.385 . S
C4950 H4931 0.951 . S
C4950 C4948 1.388 . S
C4950 C4951 1.366 . S
C4951 C4950 1.366 . S
C4951 C4952 1.414 . S
C4951 C4954 1.499 . S
C4952 H4932 0.950 . S
C4952 C4951 1.414 . S
C4952 C4953 1.374 . S
C4953 H4933 0.950 . S
C4953 C4949 1.385 . S
C4953 C4952 1.374 . S
C4954 C4951 1.499 . S
C4954 C4955 1.373 . S
C4954 C4956 1.389 . S
C4955 H4934 0.950 . S
C4955 C4954 1.373 . S
C4955 C4971 1.377 . S
C4956 C4954 1.389 . S
C4956 C4957 1.524 . S
C4956 C4970 1.377 . S
C4957 C4956 1.524 . S
C4957 C4958 1.397 . S
C4957 C4962 1.363 . S
C4958 H4935 0.950 . S
C4958 C4957 1.397 . S
C4958 C4959 1.334 . S
C4959 H4936 0.950 . S
C4959 C4958 1.334 . S
C4959 C4960 1.287 . S
C4960 C4959 1.287 . S
C4960 C4961 1.524 . S
C4960 H4979 0.913 . S
C4961 H4937 0.950 . S
C4961 C4960 1.524 . S
C4961 C4962 1.415 . S
C4962 H4938 0.950 . S
C4962 C4957 1.363 . S
C4962 C4961 1.415 . S
C4963 H4939 0.951 . S
C4963 C4964 1.366 . S
C4963 C4965 1.388 . S
C4964 C4963 1.366 . S
C4964 C4968 1.385 . S
C4965 H4940 0.951 . S
C4965 C4963 1.388 . S
C4965 C4966 1.366 . S
C4966 C4965 1.366 . S
C4966 C4967 1.414 . S
C4966 C4969 1.499 . S
C4967 H4941 0.950 . S
C4967 C4966 1.414 . S
C4967 C4968 1.374 . S
C4968 H4942 0.950 . S
C4968 C4964 1.385 . S
C4968 C4967 1.374 . S
C4969 C4966 1.499 . S
C4969 C4970 1.373 . S
C4969 C4971 1.389 . S
C4970 H4943 0.950 . S
C4970 C4956 1.377 . S
C4970 C4969 1.373 . S
C4971 C4955 1.377 . S
C4971 C4969 1.389 . S
C4971 C4972 1.524 . S
C4972 C4971 1.524 . S
C4972 C4973 1.397 . S
C4972 C4977 1.363 . S
C4973 H4944 0.950 . S
C4973 C4972 1.397 . S
C4973 C4974 1.334 . S
C4974 H4945 0.950 . S
C4974 C4973 1.334 . S
C4974 C4975 1.287 . S
C4975 C4974 1.287 . S
C4975 C4976 1.524 . S
C4975 H4978 0.999 . S
C4976 H4946 0.950 . S
C4976 C4975 1.524 . S
C4976 C4977 1.415 . S
C4977 H4947 0.950 . S
C4977 C4972 1.363 . S
C4977 C4976 1.415 . S
H4978 C4975 0.999 . S
H4979 C4960 0.913 . S
H4980 C4998 0.951 . S
H4981 C5000 0.951 . S
H4982 C5002 0.950 . S
H4983 C5003 0.950 . S
H4984 C5005 0.950 . S
H4985 C5008 0.950 . S
H4986 C5009 0.950 . S
H4987 C5011 0.950 . S
H4988 C5012 0.950 . S
H4989 C5013 0.951 . S
H4990 C5015 0.951 . S
H4991 C5017 0.950 . S
H4992 C5018 0.950 . S
H4993 C5020 0.950 . S
H4994 C5023 0.950 . S
H4995 C5024 0.950 . S
H4996 C5026 0.950 . S
H4997 C5027 0.950 . S
C4998 H4980 0.951 . S
C4998 C4999 1.366 . S
C4998 C5000 1.388 . S
C4999 C4998 1.366 . S
C4999 C5003 1.385 . S
C5000 H4981 0.951 . S
C5000 C4998 1.388 . S
C5000 C5001 1.366 . S
C5001 C5000 1.366 . S
C5001 C5002 1.414 . S
C5001 C5004 1.499 . S
C5002 H4982 0.950 . S
C5002 C5001 1.414 . S
C5002 C5003 1.374 . S
C5003 H4983 0.950 . S
C5003 C4999 1.385 . S
C5003 C5002 1.374 . S
C5004 C5001 1.499 . S
C5004 C5005 1.373 . S
C5004 C5006 1.389 . S
C5005 H4984 0.950 . S
C5005 C5004 1.373 . S
C5005 C5021 1.377 . S
C5006 C5004 1.389 . S
C5006 C5007 1.524 . S
C5006 C5020 1.377 . S
C5007 C5006 1.524 . S
C5007 C5008 1.397 . S
C5007 C5012 1.363 . S
C5008 H4985 0.950 . S
C5008 C5007 1.397 . S
C5008 C5009 1.334 . S
C5009 H4986 0.950 . S
C5009 C5008 1.334 . S
C5009 C5010 1.287 . S
C5010 C5009 1.287 . S
C5010 C5011 1.524 . S
C5010 H5029 0.913 1_565 S
C5011 H4987 0.950 . S
C5011 C5010 1.524 . S
C5011 C5012 1.415 . S
C5012 H4988 0.950 . S
C5012 C5007 1.363 . S
C5012 C5011 1.415 . S
C5013 H4989 0.951 . S
C5013 C5014 1.366 . S
C5013 C5015 1.388 . S
C5014 C5013 1.366 . S
C5014 C5018 1.385 . S
C5015 H4990 0.951 . S
C5015 C5013 1.388 . S
C5015 C5016 1.366 . S
C5016 C5015 1.366 . S
C5016 C5017 1.414 . S
C5016 C5019 1.499 . S
C5017 H4991 0.950 . S
C5017 C5016 1.414 . S
C5017 C5018 1.374 . S
C5018 H4992 0.950 . S
C5018 C5014 1.385 . S
C5018 C5017 1.374 . S
C5019 C5016 1.499 . S
C5019 C5020 1.373 . S
C5019 C5021 1.389 . S
C5020 H4993 0.950 . S
C5020 C5006 1.377 . S
C5020 C5019 1.373 . S
C5021 C5005 1.377 . S
C5021 C5019 1.389 . S
C5021 C5022 1.524 . S
C5022 C5021 1.524 . S
C5022 C5023 1.397 . S
C5022 C5027 1.363 . S
C5023 H4994 0.950 . S
C5023 C5022 1.397 . S
C5023 C5024 1.334 . S
C5024 H4995 0.950 . S
C5024 C5023 1.334 . S
C5024 C5025 1.287 . S
C5025 C5024 1.287 . S
C5025 C5026 1.524 . S
C5025 H5028 0.999 . S
C5026 H4996 0.950 . S
C5026 C5025 1.524 . S
C5026 C5027 1.415 . S
C5027 H4997 0.950 . S
C5027 C5022 1.363 . S
C5027 C5026 1.415 . S
H5028 C5025 0.999 . S
H5029 C5010 0.913 1_545 S
H5030 C5048 0.951 . S
H5031 C5050 0.951 . S
H5032 C5052 0.950 . S
H5033 C5053 0.950 . S
H5034 C5055 0.950 1_556 S
H5035 C5058 0.950 . S
H5036 C5059 0.950 . S
H5037 C5061 0.950 . S
H5038 C5062 0.950 . S
H5039 C5063 0.951 . S
H5040 C5065 0.951 . S
H5041 C5067 0.950 . S
H5042 C5068 0.950 . S
H5043 C5070 0.950 . S
H5044 C5073 0.950 . S
H5045 C5074 0.945 1_565 S
H5046 C5076 0.950 . S
H5047 C5077 0.941 1_554 S
C5048 H5030 0.951 . S
C5048 C5049 1.366 . S
C5048 C5050 1.388 . S
C5049 C5048 1.366 . S
C5049 C5053 1.385 . S
C5050 H5031 0.951 . S
C5050 C5048 1.388 . S
C5050 C5051 1.366 . S
C5051 C5050 1.366 . S
C5051 C5052 1.414 . S
C5051 C5054 1.499 . S
C5052 H5032 0.950 . S
C5052 C5051 1.414 . S
C5052 C5053 1.374 . S
C5053 H5033 0.950 . S
C5053 C5049 1.385 . S
C5053 C5052 1.374 . S
C5054 C5051 1.499 . S
C5054 C5055 1.373 . S
C5054 C5056 1.389 . S
C5055 H5034 0.950 1_554 S
C5055 C5054 1.373 . S
C5055 C5071 1.377 . S
C5056 C5054 1.389 . S
C5056 C5057 1.524 . S
C5056 C5070 1.377 . S
C5057 C5056 1.524 . S
C5057 C5058 1.397 . S
C5057 C5062 1.363 . S
C5058 H5035 0.950 . S
C5058 C5057 1.397 . S
C5058 C5059 1.334 . S
C5059 H5036 0.950 . S
C5059 C5058 1.334 . S
C5059 C5060 1.287 . S
C5060 C5059 1.287 . S
C5060 C5061 1.524 . S
C5060 H5079 0.913 . S
C5061 H5037 0.950 . S
C5061 C5060 1.524 . S
C5061 C5062 1.415 . S
C5062 H5038 0.950 . S
C5062 C5057 1.363 . S
C5062 C5061 1.415 . S
C5063 H5039 0.951 . S
C5063 C5064 1.366 . S
C5063 C5065 1.388 . S
C5064 C5063 1.366 . S
C5064 C5068 1.385 1_545 S
C5065 H5040 0.951 . S
C5065 C5063 1.388 . S
C5065 C5066 1.366 1_545 S
C5066 C5065 1.366 1_565 S
C5066 C5067 1.414 . S
C5066 C5069 1.499 . S
C5067 H5041 0.950 . S
C5067 C5066 1.414 . S
C5067 C5068 1.374 . S
C5068 H5042 0.950 . S
C5068 C5064 1.385 1_565 S
C5068 C5067 1.374 . S
C5069 C5066 1.499 . S
C5069 C5070 1.373 . S
C5069 C5071 1.389 . S
C5070 H5043 0.950 . S
C5070 C5056 1.377 . S
C5070 C5069 1.373 . S
C5071 C5055 1.377 . S
C5071 C5069 1.389 . S
C5071 C5072 1.524 1_554 S
C5072 C5071 1.524 1_556 S
C5072 C5073 1.397 . S
C5072 C5077 1.363 1_565 S
C5073 H5044 0.950 . S
C5073 C5072 1.397 . S
C5073 C5074 1.334 1_565 S
C5074 H5045 0.945 1_545 S
C5074 C5073 1.334 1_545 S
C5074 C5075 1.287 . S
C5075 C5074 1.287 . S
C5075 C5076 1.524 . S
C5075 H5078 0.999 . S
C5076 H5046 0.950 . S
C5076 C5075 1.524 . S
C5076 C5077 1.415 . S
C5077 H5047 0.941 1_556 S
C5077 C5072 1.363 1_545 S
C5077 C5076 1.415 . S
H5078 C5075 0.999 . S
H5079 C5060 0.913 . S
H5080 C5098 0.951 . S
H5081 C5100 0.951 . S
H5082 C5102 0.950 . S
H5083 C5103 0.950 . S
H5084 C5105 0.950 . S
H5085 C5108 0.950 . S
H5086 C5109 0.950 . S
H5087 C5111 0.950 . S
H5088 C5112 0.950 . S
H5089 C5113 0.951 . S
H5090 C5115 0.951 . S
H5091 C5117 0.950 . S
H5092 C5118 0.950 . S
H5093 C5120 0.950 . S
H5094 C5123 0.950 . S
H5095 C5124 0.950 . S
H5096 C5126 0.950 . S
H5097 C5127 0.950 . S
C5098 H5080 0.951 . S
C5098 C5099 1.366 . S
C5098 C5100 1.388 . S
C5099 C5098 1.366 . S
C5099 C5103 1.385 . S
C5100 H5081 0.951 . S
C5100 C5098 1.388 . S
C5100 C5101 1.366 . S
C5101 C5100 1.366 . S
C5101 C5102 1.414 . S
C5101 C5104 1.499 . S
C5102 H5082 0.950 . S
C5102 C5101 1.414 . S
C5102 C5103 1.374 . S
C5103 H5083 0.950 . S
C5103 C5099 1.385 . S
C5103 C5102 1.374 . S
C5104 C5101 1.499 . S
C5104 C5105 1.373 . S
C5104 C5106 1.389 . S
C5105 H5084 0.950 . S
C5105 C5104 1.373 . S
C5105 C5121 1.377 . S
C5106 C5104 1.389 . S
C5106 C5107 1.524 . S
C5106 C5120 1.377 . S
C5107 C5106 1.524 . S
C5107 C5108 1.397 . S
C5107 C5112 1.363 . S
C5108 H5085 0.950 . S
C5108 C5107 1.397 . S
C5108 C5109 1.334 . S
C5109 H5086 0.950 . S
C5109 C5108 1.334 . S
C5109 C5110 1.287 . S
C5110 C5109 1.287 . S
C5110 C5111 1.524 . S
C5110 H5129 0.913 . S
C5111 H5087 0.950 . S
C5111 C5110 1.524 . S
C5111 C5112 1.415 . S
C5112 H5088 0.950 . S
C5112 C5107 1.363 . S
C5112 C5111 1.415 . S
C5113 H5089 0.951 . S
C5113 C5114 1.366 . S
C5113 C5115 1.388 . S
C5114 C5113 1.366 . S
C5114 C5118 1.385 . S
C5115 H5090 0.951 . S
C5115 C5113 1.388 . S
C5115 C5116 1.366 . S
C5116 C5115 1.366 . S
C5116 C5117 1.414 . S
C5116 C5119 1.499 . S
C5117 H5091 0.950 . S
C5117 C5116 1.414 . S
C5117 C5118 1.374 . S
C5118 H5092 0.950 . S
C5118 C5114 1.385 . S
C5118 C5117 1.374 . S
C5119 C5116 1.499 . S
C5119 C5120 1.373 . S
C5119 C5121 1.389 . S
C5120 H5093 0.950 . S
C5120 C5106 1.377 . S
C5120 C5119 1.373 . S
C5121 C5105 1.377 . S
C5121 C5119 1.389 . S
C5121 C5122 1.524 . S
C5122 C5121 1.524 . S
C5122 C5123 1.397 . S
C5122 C5127 1.363 . S
C5123 H5094 0.950 . S
C5123 C5122 1.397 . S
C5123 C5124 1.334 . S
C5124 H5095 0.950 . S
C5124 C5123 1.334 . S
C5124 C5125 1.287 . S
C5125 C5124 1.287 . S
C5125 C5126 1.524 . S
C5125 H5128 0.999 . S
C5126 H5096 0.950 . S
C5126 C5125 1.524 . S
C5126 C5127 1.415 . S
C5127 H5097 0.950 . S
C5127 C5122 1.363 . S
C5127 C5126 1.415 . S
H5128 C5125 0.999 . S
H5129 C5110 0.913 . S
H5130 C5148 0.951 . S
H5131 C5150 0.951 . S
H5132 C5152 0.950 . S
H5133 C5153 0.950 . S
H5134 C5155 0.950 . S
H5135 C5158 0.950 . S
H5136 C5159 0.950 . S
H5137 C5161 0.950 . S
H5138 C5162 0.950 . S
H5139 C5163 0.951 . S
H5140 C5165 0.951 . S
H5141 C5167 0.950 . S
H5142 C5168 0.950 . S
H5143 C5170 0.950 . S
H5144 C5173 0.950 . S
H5145 C5174 0.950 . S
H5146 C5176 0.950 . S
H5147 C5177 0.950 . S
C5148 H5130 0.951 . S
C5148 C5149 1.366 . S
C5148 C5150 1.388 . S
C5149 C5148 1.366 . S
C5149 C5153 1.385 . S
C5150 H5131 0.951 . S
C5150 C5148 1.388 . S
C5150 C5151 1.366 . S
C5151 C5150 1.366 . S
C5151 C5152 1.414 . S
C5151 C5154 1.499 . S
C5152 H5132 0.950 . S
C5152 C5151 1.414 . S
C5152 C5153 1.374 . S
C5153 H5133 0.950 . S
C5153 C5149 1.385 . S
C5153 C5152 1.374 . S
C5154 C5151 1.499 . S
C5154 C5155 1.373 . S
C5154 C5156 1.389 . S
C5155 H5134 0.950 . S
C5155 C5154 1.373 . S
C5155 C5171 1.377 . S
C5156 C5154 1.389 . S
C5156 C5157 1.524 . S
C5156 C5170 1.377 . S
C5157 C5156 1.524 . S
C5157 C5158 1.397 . S
C5157 C5162 1.363 . S
C5158 H5135 0.950 . S
C5158 C5157 1.397 . S
C5158 C5159 1.334 . S
C5159 H5136 0.950 . S
C5159 C5158 1.334 . S
C5159 C5160 1.287 . S
C5160 C5159 1.287 . S
C5160 C5161 1.524 . S
C5160 H5179 0.913 . S
C5161 H5137 0.950 . S
C5161 C5160 1.524 . S
C5161 C5162 1.415 . S
C5162 H5138 0.950 . S
C5162 C5157 1.363 . S
C5162 C5161 1.415 . S
C5163 H5139 0.951 . S
C5163 C5164 1.366 . S
C5163 C5165 1.388 . S
C5164 C5163 1.366 . S
C5164 C5168 1.385 . S
C5165 H5140 0.951 . S
C5165 C5163 1.388 . S
C5165 C5166 1.366 . S
C5166 C5165 1.366 . S
C5166 C5167 1.414 . S
C5166 C5169 1.499 . S
C5167 H5141 0.950 . S
C5167 C5166 1.414 . S
C5167 C5168 1.374 . S
C5168 H5142 0.950 . S
C5168 C5164 1.385 . S
C5168 C5167 1.374 . S
C5169 C5166 1.499 . S
C5169 C5170 1.373 . S
C5169 C5171 1.389 . S
C5170 H5143 0.950 . S
C5170 C5156 1.377 . S
C5170 C5169 1.373 . S
C5171 C5155 1.377 . S
C5171 C5169 1.389 . S
C5171 C5172 1.524 . S
C5172 C5171 1.524 . S
C5172 C5173 1.397 . S
C5172 C5177 1.363 1_554 S
C5173 H5144 0.950 . S
C5173 C5172 1.397 . S
C5173 C5174 1.334 . S
C5174 H5145 0.950 . S
C5174 C5173 1.334 . S
C5174 C5175 1.287 1_554 S
C5175 C5174 1.287 1_556 S
C5175 C5176 1.524 . S
C5175 H5178 0.999 . S
C5176 H5146 0.950 . S
C5176 C5175 1.524 . S
C5176 C5177 1.415 . S
C5177 H5147 0.950 . S
C5177 C5172 1.363 1_556 S
C5177 C5176 1.415 . S
H5178 C5175 0.999 . S
H5179 C5160 0.913 . S
H5180 C5198 0.951 . S
H5181 C5200 0.951 . S
H5182 C5202 0.950 . S
H5183 C5203 0.950 . S
H5184 C5205 0.950 . S
H5185 C5208 0.950 . S
H5186 C5209 0.950 . S
H5187 C5211 0.950 . S
H5188 C5212 0.950 . S
H5189 C5213 0.951 . S
H5190 C5215 0.951 . S
H5191 C5217 0.950 . S
H5192 C5218 0.950 . S
H5193 C5220 0.950 . S
H5194 C5223 0.950 . S
H5195 C5224 0.950 . S
H5196 C5226 0.950 . S
H5197 C5227 0.950 . S
C5198 H5180 0.951 . S
C5198 C5199 1.366 . S
C5198 C5200 1.388 . S
C5199 C5198 1.366 . S
C5199 C5203 1.385 . S
C5200 H5181 0.951 . S
C5200 C5198 1.388 . S
C5200 C5201 1.366 . S
C5201 C5200 1.366 . S
C5201 C5202 1.414 . S
C5201 C5204 1.499 . S
C5202 H5182 0.950 . S
C5202 C5201 1.414 . S
C5202 C5203 1.374 . S
C5203 H5183 0.950 . S
C5203 C5199 1.385 . S
C5203 C5202 1.374 . S
C5204 C5201 1.499 . S
C5204 C5205 1.373 . S
C5204 C5206 1.389 . S
C5205 H5184 0.950 . S
C5205 C5204 1.373 . S
C5205 C5221 1.377 . S
C5206 C5204 1.389 . S
C5206 C5207 1.524 . S
C5206 C5220 1.377 . S
C5207 C5206 1.524 . S
C5207 C5208 1.397 . S
C5207 C5212 1.363 . S
C5208 H5185 0.950 . S
C5208 C5207 1.397 . S
C5208 C5209 1.334 . S
C5209 H5186 0.950 . S
C5209 C5208 1.334 . S
C5209 C5210 1.287 . S
C5210 C5209 1.287 . S
C5210 C5211 1.524 . S
C5210 H5229 0.913 . S
C5211 H5187 0.950 . S
C5211 C5210 1.524 . S
C5211 C5212 1.415 . S
C5212 H5188 0.950 . S
C5212 C5207 1.363 . S
C5212 C5211 1.415 . S
C5213 H5189 0.951 . S
C5213 C5214 1.366 . S
C5213 C5215 1.388 . S
C5214 C5213 1.366 . S
C5214 C5218 1.385 . S
C5215 H5190 0.951 . S
C5215 C5213 1.388 . S
C5215 C5216 1.366 . S
C5216 C5215 1.366 . S
C5216 C5217 1.414 . S
C5216 C5219 1.499 . S
C5217 H5191 0.950 . S
C5217 C5216 1.414 . S
C5217 C5218 1.374 . S
C5218 H5192 0.950 . S
C5218 C5214 1.385 . S
C5218 C5217 1.374 . S
C5219 C5216 1.499 . S
C5219 C5220 1.373 . S
C5219 C5221 1.389 . S
C5220 H5193 0.950 . S
C5220 C5206 1.377 . S
C5220 C5219 1.373 . S
C5221 C5205 1.377 . S
C5221 C5219 1.389 . S
C5221 C5222 1.524 . S
C5222 C5221 1.524 . S
C5222 C5223 1.397 . S
C5222 C5227 1.363 . S
C5223 H5194 0.950 . S
C5223 C5222 1.397 . S
C5223 C5224 1.334 . S
C5224 H5195 0.950 . S
C5224 C5223 1.334 . S
C5224 C5225 1.287 . S
C5225 C5224 1.287 . S
C5225 C5226 1.524 . S
C5225 H5228 0.999 . S
C5226 H5196 0.950 . S
C5226 C5225 1.524 . S
C5226 C5227 1.415 . S
C5227 H5197 0.950 . S
C5227 C5222 1.363 . S
C5227 C5226 1.415 . S
H5228 C5225 0.999 . S
H5229 C5210 0.913 . S
H5230 C5248 0.951 . S
H5231 C5250 0.951 . S
H5232 C5252 0.950 . S
H5233 C5253 0.950 . S
H5234 C5255 0.950 . S
H5235 C5258 0.950 . S
H5236 C5259 0.950 . S
H5237 C5261 0.950 . S
H5238 C5262 0.950 . S
H5239 C5263 0.951 . S
H5240 C5265 0.951 . S
H5241 C5267 0.950 . S
H5242 C5268 0.950 . S
H5243 C5270 0.950 . S
H5244 C5273 0.950 . S
H5245 C5274 0.950 . S
H5246 C5276 0.950 . S
H5247 C5277 0.950 . S
C5248 H5230 0.951 . S
C5248 C5249 1.366 . S
C5248 C5250 1.388 . S
C5249 C5248 1.366 . S
C5249 C5253 1.385 . S
C5250 H5231 0.951 . S
C5250 C5248 1.388 . S
C5250 C5251 1.366 . S
C5251 C5250 1.366 . S
C5251 C5252 1.414 . S
C5251 C5254 1.499 . S
C5252 H5232 0.950 . S
C5252 C5251 1.414 . S
C5252 C5253 1.374 . S
C5253 H5233 0.950 . S
C5253 C5249 1.385 . S
C5253 C5252 1.374 . S
C5254 C5251 1.499 . S
C5254 C5255 1.373 . S
C5254 C5256 1.389 . S
C5255 H5234 0.950 . S
C5255 C5254 1.373 . S
C5255 C5271 1.377 . S
C5256 C5254 1.389 . S
C5256 C5257 1.524 . S
C5256 C5270 1.377 . S
C5257 C5256 1.524 . S
C5257 C5258 1.397 . S
C5257 C5262 1.363 . S
C5258 H5235 0.950 . S
C5258 C5257 1.397 . S
C5258 C5259 1.334 . S
C5259 H5236 0.950 . S
C5259 C5258 1.334 . S
C5259 C5260 1.287 . S
C5260 C5259 1.287 . S
C5260 C5261 1.524 . S
C5260 H5279 0.913 . S
C5261 H5237 0.950 . S
C5261 C5260 1.524 . S
C5261 C5262 1.415 . S
C5262 H5238 0.950 . S
C5262 C5257 1.363 . S
C5262 C5261 1.415 . S
C5263 H5239 0.951 . S
C5263 C5264 1.366 . S
C5263 C5265 1.388 . S
C5264 C5263 1.366 . S
C5264 C5268 1.385 . S
C5265 H5240 0.951 . S
C5265 C5263 1.388 . S
C5265 C5266 1.366 . S
C5266 C5265 1.366 . S
C5266 C5267 1.414 . S
C5266 C5269 1.499 . S
C5267 H5241 0.950 . S
C5267 C5266 1.414 . S
C5267 C5268 1.374 . S
C5268 H5242 0.950 . S
C5268 C5264 1.385 . S
C5268 C5267 1.374 . S
C5269 C5266 1.499 . S
C5269 C5270 1.373 . S
C5269 C5271 1.389 . S
C5270 H5243 0.950 . S
C5270 C5256 1.377 . S
C5270 C5269 1.373 . S
C5271 C5255 1.377 . S
C5271 C5269 1.389 . S
C5271 C5272 1.524 . S
C5272 C5271 1.524 . S
C5272 C5273 1.397 . S
C5272 C5277 1.363 . S
C5273 H5244 0.950 . S
C5273 C5272 1.397 . S
C5273 C5274 1.334 . S
C5274 H5245 0.950 . S
C5274 C5273 1.334 . S
C5274 C5275 1.287 . S
C5275 C5274 1.287 . S
C5275 C5276 1.524 . S
C5275 H5278 0.999 . S
C5276 H5246 0.950 . S
C5276 C5275 1.524 . S
C5276 C5277 1.415 . S
C5277 H5247 0.950 . S
C5277 C5272 1.363 . S
C5277 C5276 1.415 . S
H5278 C5275 0.999 . S
H5279 C5260 0.913 . S
H5280 C5298 0.951 . S
H5281 C5300 0.951 . S
H5282 C5302 0.950 . S
H5283 C5303 0.950 . S
H5284 C5305 0.950 . S
H5285 C5308 0.950 . S
H5286 C5309 0.950 . S
H5287 C5311 0.950 . S
H5288 C5312 0.950 . S
H5289 C5313 0.951 . S
H5290 C5315 0.951 . S
H5291 C5317 0.950 . S
H5292 C5318 0.950 . S
H5293 C5320 0.950 . S
H5294 C5323 0.950 . S
H5295 C5324 0.950 . S
H5296 C5326 0.950 . S
H5297 C5327 0.950 . S
C5298 H5280 0.951 . S
C5298 C5299 1.366 . S
C5298 C5300 1.388 . S
C5299 C5298 1.366 . S
C5299 C5303 1.385 . S
C5300 H5281 0.951 . S
C5300 C5298 1.388 . S
C5300 C5301 1.366 . S
C5301 C5300 1.366 . S
C5301 C5302 1.414 . S
C5301 C5304 1.499 . S
C5302 H5282 0.950 . S
C5302 C5301 1.414 . S
C5302 C5303 1.374 . S
C5303 H5283 0.950 . S
C5303 C5299 1.385 . S
C5303 C5302 1.374 . S
C5304 C5301 1.499 . S
C5304 C5305 1.373 . S
C5304 C5306 1.389 . S
C5305 H5284 0.950 . S
C5305 C5304 1.373 . S
C5305 C5321 1.377 . S
C5306 C5304 1.389 . S
C5306 C5307 1.524 . S
C5306 C5320 1.377 . S
C5307 C5306 1.524 . S
C5307 C5308 1.397 . S
C5307 C5312 1.363 . S
C5308 H5285 0.950 . S
C5308 C5307 1.397 . S
C5308 C5309 1.334 . S
C5309 H5286 0.950 . S
C5309 C5308 1.334 . S
C5309 C5310 1.287 . S
C5310 C5309 1.287 . S
C5310 C5311 1.524 . S
C5310 H5329 0.913 . S
C5311 H5287 0.950 . S
C5311 C5310 1.524 . S
C5311 C5312 1.415 . S
C5312 H5288 0.950 . S
C5312 C5307 1.363 . S
C5312 C5311 1.415 . S
C5313 H5289 0.951 . S
C5313 C5314 1.366 . S
C5313 C5315 1.388 . S
C5314 C5313 1.366 . S
C5314 C5318 1.385 . S
C5315 H5290 0.951 . S
C5315 C5313 1.388 . S
C5315 C5316 1.366 . S
C5316 C5315 1.366 . S
C5316 C5317 1.414 . S
C5316 C5319 1.499 . S
C5317 H5291 0.950 . S
C5317 C5316 1.414 . S
C5317 C5318 1.374 . S
C5318 H5292 0.950 . S
C5318 C5314 1.385 . S
C5318 C5317 1.374 . S
C5319 C5316 1.499 . S
C5319 C5320 1.373 . S
C5319 C5321 1.389 . S
C5320 H5293 0.950 . S
C5320 C5306 1.377 . S
C5320 C5319 1.373 . S
C5321 C5305 1.377 . S
C5321 C5319 1.389 . S
C5321 C5322 1.524 . S
C5322 C5321 1.524 . S
C5322 C5323 1.397 . S
C5322 C5327 1.363 . S
C5323 H5294 0.950 . S
C5323 C5322 1.397 . S
C5323 C5324 1.334 . S
C5324 H5295 0.950 . S
C5324 C5323 1.334 . S
C5324 C5325 1.287 . S
C5325 C5324 1.287 . S
C5325 C5326 1.524 . S
C5325 H5328 0.999 . S
C5326 H5296 0.950 . S
C5326 C5325 1.524 . S
C5326 C5327 1.415 . S
C5327 H5297 0.950 . S
C5327 C5322 1.363 . S
C5327 C5326 1.415 . S
H5328 C5325 0.999 . S
H5329 C5310 0.913 . S
H5330 C5348 0.951 . S
H5331 C5350 0.951 . S
H5332 C5352 0.950 . S
H5333 C5353 0.950 . S
H5334 C5355 0.950 . S
H5335 C5358 0.950 . S
H5336 C5359 0.950 . S
H5337 C5361 0.950 . S
H5338 C5362 0.950 . S
H5339 C5363 0.951 . S
H5340 C5365 0.951 . S
H5341 C5367 0.950 . S
H5342 C5368 0.950 . S
H5343 C5370 0.950 . S
H5344 C5373 0.950 . S
H5345 C5374 0.950 . S
H5346 C5376 0.950 . S
H5347 C5377 0.950 . S
C5348 H5330 0.951 . S
C5348 C5349 1.366 . S
C5348 C5350 1.388 . S
C5349 C5348 1.366 . S
C5349 C5353 1.385 . S
C5350 H5331 0.951 . S
C5350 C5348 1.388 . S
C5350 C5351 1.366 . S
C5351 C5350 1.366 . S
C5351 C5352 1.414 . S
C5351 C5354 1.499 . S
C5352 H5332 0.950 . S
C5352 C5351 1.414 . S
C5352 C5353 1.374 . S
C5353 H5333 0.950 . S
C5353 C5349 1.385 . S
C5353 C5352 1.374 . S
C5354 C5351 1.499 . S
C5354 C5355 1.373 . S
C5354 C5356 1.389 . S
C5355 H5334 0.950 . S
C5355 C5354 1.373 . S
C5355 C5371 1.377 . S
C5356 C5354 1.389 . S
C5356 C5357 1.524 . S
C5356 C5370 1.377 . S
C5357 C5356 1.524 . S
C5357 C5358 1.397 . S
C5357 C5362 1.363 . S
C5358 H5335 0.950 . S
C5358 C5357 1.397 . S
C5358 C5359 1.334 . S
C5359 H5336 0.950 . S
C5359 C5358 1.334 . S
C5359 C5360 1.287 . S
C5360 C5359 1.287 . S
C5360 C5361 1.524 . S
C5360 H5379 0.913 . S
C5361 H5337 0.950 . S
C5361 C5360 1.524 . S
C5361 C5362 1.415 . S
C5362 H5338 0.950 . S
C5362 C5357 1.363 . S
C5362 C5361 1.415 . S
C5363 H5339 0.951 . S
C5363 C5364 1.366 . S
C5363 C5365 1.388 . S
C5364 C5363 1.366 . S
C5364 C5368 1.385 . S
C5365 H5340 0.951 . S
C5365 C5363 1.388 . S
C5365 C5366 1.366 . S
C5366 C5365 1.366 . S
C5366 C5367 1.414 . S
C5366 C5369 1.499 . S
C5367 H5341 0.950 . S
C5367 C5366 1.414 . S
C5367 C5368 1.374 . S
C5368 H5342 0.950 . S
C5368 C5364 1.385 . S
C5368 C5367 1.374 . S
C5369 C5366 1.499 . S
C5369 C5370 1.373 . S
C5369 C5371 1.389 . S
C5370 H5343 0.950 . S
C5370 C5356 1.377 . S
C5370 C5369 1.373 . S
C5371 C5355 1.377 . S
C5371 C5369 1.389 . S
C5371 C5372 1.524 . S
C5372 C5371 1.524 . S
C5372 C5373 1.397 . S
C5372 C5377 1.363 . S
C5373 H5344 0.950 . S
C5373 C5372 1.397 . S
C5373 C5374 1.334 . S
C5374 H5345 0.950 . S
C5374 C5373 1.334 . S
C5374 C5375 1.287 . S
C5375 C5374 1.287 . S
C5375 C5376 1.524 . S
C5375 H5378 0.999 . S
C5376 H5346 0.950 . S
C5376 C5375 1.524 . S
C5376 C5377 1.415 . S
C5377 H5347 0.950 . S
C5377 C5372 1.363 . S
C5377 C5376 1.415 . S
H5378 C5375 0.999 . S
H5379 C5360 0.913 . S
H5380 C5398 0.951 . S
H5381 C5400 0.951 . S
H5382 C5402 0.950 . S
H5383 C5403 0.950 . S
H5384 C5405 0.950 . S
H5385 C5408 0.950 . S
H5386 C5409 0.950 . S
H5387 C5411 0.950 . S
H5388 C5412 0.950 . S
H5389 C5413 0.951 . S
H5390 C5415 0.951 . S
H5391 C5417 0.950 . S
H5392 C5418 0.950 . S
H5393 C5420 0.950 . S
H5394 C5423 0.950 . S
H5395 C5424 0.950 . S
H5396 C5426 0.950 . S
H5397 C5427 0.924 1_655 S
C5398 H5380 0.951 . S
C5398 C5399 1.366 . S
C5398 C5400 1.388 . S
C5399 C5398 1.366 . S
C5399 C5403 1.385 . S
C5400 H5381 0.951 . S
C5400 C5398 1.388 . S
C5400 C5401 1.366 . S
C5401 C5400 1.366 . S
C5401 C5402 1.414 . S
C5401 C5404 1.499 . S
C5402 H5382 0.950 . S
C5402 C5401 1.414 . S
C5402 C5403 1.374 . S
C5403 H5383 0.950 . S
C5403 C5399 1.385 . S
C5403 C5402 1.374 . S
C5404 C5401 1.499 . S
C5404 C5405 1.373 . S
C5404 C5406 1.389 . S
C5405 H5384 0.950 . S
C5405 C5404 1.373 . S
C5405 C5421 1.377 . S
C5406 C5404 1.389 . S
C5406 C5407 1.524 . S
C5406 C5420 1.377 . S
C5407 C5406 1.524 . S
C5407 C5408 1.397 . S
C5407 C5412 1.363 . S
C5408 H5385 0.950 . S
C5408 C5407 1.397 . S
C5408 C5409 1.334 . S
C5409 H5386 0.950 . S
C5409 C5408 1.334 . S
C5409 C5410 1.287 . S
C5410 C5409 1.287 . S
C5410 C5411 1.524 . S
C5410 H5429 0.913 . S
C5411 H5387 0.950 . S
C5411 C5410 1.524 . S
C5411 C5412 1.415 . S
C5412 H5388 0.950 . S
C5412 C5407 1.363 . S
C5412 C5411 1.415 . S
C5413 H5389 0.951 . S
C5413 C5414 1.366 . S
C5413 C5415 1.388 . S
C5414 C5413 1.366 . S
C5414 C5418 1.385 . S
C5415 H5390 0.951 . S
C5415 C5413 1.388 . S
C5415 C5416 1.366 . S
C5416 C5415 1.366 . S
C5416 C5417 1.414 . S
C5416 C5419 1.499 . S
C5417 H5391 0.950 . S
C5417 C5416 1.414 . S
C5417 C5418 1.374 . S
C5418 H5392 0.950 . S
C5418 C5414 1.385 . S
C5418 C5417 1.374 . S
C5419 C5416 1.499 . S
C5419 C5420 1.373 . S
C5419 C5421 1.389 . S
C5420 H5393 0.950 . S
C5420 C5406 1.377 . S
C5420 C5419 1.373 . S
C5421 C5405 1.377 . S
C5421 C5419 1.389 . S
C5421 C5422 1.524 . S
C5422 C5421 1.524 . S
C5422 C5423 1.397 . S
C5422 C5427 1.407 . S
C5423 H5394 0.950 . S
C5423 C5422 1.397 . S
C5423 C5424 1.334 . S
C5424 H5395 0.950 . S
C5424 C5423 1.334 . S
C5424 C5425 1.287 . S
C5425 C5424 1.287 . S
C5425 C5426 1.524 1_455 S
C5425 H5428 0.989 1_455 S
C5426 H5396 0.950 . S
C5426 C5425 1.524 1_655 S
C5426 C5427 1.398 1_655 S
C5427 H5397 0.924 1_455 S
C5427 C5422 1.407 . S
C5427 C5426 1.398 1_455 S
H5428 C5425 0.989 1_655 S
H5429 C5410 0.913 . S
H5430 C5448 0.951 . S
H5431 C5450 0.951 . S
H5432 C5452 0.950 . S
H5433 C5453 0.950 . S
H5434 C5455 0.950 . S
H5435 C5458 0.950 . S
H5436 C5459 0.950 . S
H5437 C5461 0.950 . S
H5438 C5462 0.950 . S
H5439 C5463 0.951 . S
H5440 C5465 0.951 . S
H5441 C5467 0.950 . S
H5442 C5468 0.950 . S
H5443 C5470 0.950 . S
H5444 C5473 0.950 . S
H5445 C5474 0.950 . S
H5446 C5476 0.950 . S
H5447 C5477 0.950 . S
C5448 H5430 0.951 . S
C5448 C5449 1.366 . S
C5448 C5450 1.388 . S
C5449 C5448 1.366 . S
C5449 C5453 1.385 . S
C5450 H5431 0.951 . S
C5450 C5448 1.388 . S
C5450 C5451 1.366 . S
C5451 C5450 1.366 . S
C5451 C5452 1.414 . S
C5451 C5454 1.499 . S
C5452 H5432 0.950 . S
C5452 C5451 1.414 . S
C5452 C5453 1.374 . S
C5453 H5433 0.950 . S
C5453 C5449 1.385 . S
C5453 C5452 1.374 . S
C5454 C5451 1.499 . S
C5454 C5455 1.373 . S
C5454 C5456 1.389 . S
C5455 H5434 0.950 . S
C5455 C5454 1.373 . S
C5455 C5471 1.377 . S
C5456 C5454 1.389 . S
C5456 C5457 1.524 . S
C5456 C5470 1.377 . S
C5457 C5456 1.524 . S
C5457 C5458 1.397 . S
C5457 C5462 1.363 . S
C5458 H5435 0.950 . S
C5458 C5457 1.397 . S
C5458 C5459 1.334 . S
C5459 H5436 0.950 . S
C5459 C5458 1.334 . S
C5459 C5460 1.287 . S
C5460 C5459 1.287 . S
C5460 C5461 1.524 . S
C5460 H5479 0.913 . S
C5461 H5437 0.950 . S
C5461 C5460 1.524 . S
C5461 C5462 1.415 . S
C5462 H5438 0.950 . S
C5462 C5457 1.363 . S
C5462 C5461 1.415 . S
C5463 H5439 0.951 . S
C5463 C5464 1.366 . S
C5463 C5465 1.388 . S
C5464 C5463 1.366 . S
C5464 C5468 1.385 . S
C5465 H5440 0.951 . S
C5465 C5463 1.388 . S
C5465 C5466 1.366 . S
C5466 C5465 1.366 . S
C5466 C5467 1.414 . S
C5466 C5469 1.499 . S
C5467 H5441 0.950 . S
C5467 C5466 1.414 . S
C5467 C5468 1.374 . S
C5468 H5442 0.950 . S
C5468 C5464 1.385 . S
C5468 C5467 1.374 . S
C5469 C5466 1.499 . S
C5469 C5470 1.373 . S
C5469 C5471 1.389 . S
C5470 H5443 0.950 . S
C5470 C5456 1.377 . S
C5470 C5469 1.373 . S
C5471 C5455 1.377 . S
C5471 C5469 1.389 . S
C5471 C5472 1.524 . S
C5472 C5471 1.524 . S
C5472 C5473 1.397 . S
C5472 C5477 1.363 . S
C5473 H5444 0.950 . S
C5473 C5472 1.397 . S
C5473 C5474 1.334 . S
C5474 H5445 0.950 . S
C5474 C5473 1.334 . S
C5474 C5475 1.287 . S
C5475 C5474 1.287 . S
C5475 C5476 1.524 . S
C5475 H5478 0.999 . S
C5476 H5446 0.950 . S
C5476 C5475 1.524 . S
C5476 C5477 1.415 . S
C5477 H5447 0.950 . S
C5477 C5472 1.363 . S
C5477 C5476 1.415 . S
H5478 C5475 0.999 . S
H5479 C5460 0.913 . S
H5480 C5498 0.951 . S
H5481 C5500 0.951 . S
H5482 C5502 0.950 . S
H5483 C5503 0.950 . S
H5484 C5505 0.950 . S
H5485 C5508 0.950 . S
H5486 C5509 0.950 . S
H5487 C5511 0.950 . S
H5488 C5512 0.950 . S
H5489 C5513 0.951 1_554 S
H5490 C5515 0.951 . S
H5491 C5517 0.950 . S
H5492 C5518 0.950 . S
H5493 C5520 0.950 . S
H5494 C5523 0.950 . S
H5495 C5524 0.950 . S
H5496 C5526 0.950 . S
H5497 C5527 0.950 . S
C5498 H5480 0.951 . S
C5498 C5499 1.366 . S
C5498 C5500 1.388 . S
C5499 C5498 1.366 . S
C5499 C5503 1.385 . S
C5500 H5481 0.951 . S
C5500 C5498 1.388 . S
C5500 C5501 1.366 . S
C5501 C5500 1.366 . S
C5501 C5502 1.414 . S
C5501 C5504 1.499 . S
C5502 H5482 0.950 . S
C5502 C5501 1.414 . S
C5502 C5503 1.374 . S
C5503 H5483 0.950 . S
C5503 C5499 1.385 . S
C5503 C5502 1.374 . S
C5504 C5501 1.499 . S
C5504 C5505 1.373 . S
C5504 C5506 1.389 . S
C5505 H5484 0.950 . S
C5505 C5504 1.373 . S
C5505 C5521 1.377 . S
C5506 C5504 1.389 . S
C5506 C5507 1.524 . S
C5506 C5520 1.377 . S
C5507 C5506 1.524 . S
C5507 C5508 1.397 . S
C5507 C5512 1.363 . S
C5508 H5485 0.950 . S
C5508 C5507 1.397 . S
C5508 C5509 1.334 . S
C5509 H5486 0.950 . S
C5509 C5508 1.334 . S
C5509 C5510 1.287 . S
C5510 C5509 1.287 . S
C5510 C5511 1.524 . S
C5510 H5529 0.913 . S
C5511 H5487 0.950 . S
C5511 C5510 1.524 . S
C5511 C5512 1.415 . S
C5512 H5488 0.950 . S
C5512 C5507 1.363 . S
C5512 C5511 1.415 . S
C5513 H5489 0.951 1_556 S
C5513 C5514 1.366 . S
C5513 C5515 1.388 . S
C5514 C5513 1.366 . S
C5514 C5518 1.385 . S
C5515 H5490 0.951 . S
C5515 C5513 1.388 . S
C5515 C5516 1.366 . S
C5516 C5515 1.366 . S
C5516 C5517 1.414 . S
C5516 C5519 1.499 . S
C5517 H5491 0.950 . S
C5517 C5516 1.414 . S
C5517 C5518 1.374 . S
C5518 H5492 0.950 . S
C5518 C5514 1.385 . S
C5518 C5517 1.374 . S
C5519 C5516 1.499 . S
C5519 C5520 1.373 . S
C5519 C5521 1.389 . S
C5520 H5493 0.950 . S
C5520 C5506 1.377 . S
C5520 C5519 1.373 . S
C5521 C5505 1.377 . S
C5521 C5519 1.389 . S
C5521 C5522 1.524 . S
C5522 C5521 1.524 . S
C5522 C5523 1.397 . S
C5522 C5527 1.363 . S
C5523 H5494 0.950 . S
C5523 C5522 1.397 . S
C5523 C5524 1.334 . S
C5524 H5495 0.950 . S
C5524 C5523 1.334 . S
C5524 C5525 1.287 . S
C5525 C5524 1.287 . S
C5525 C5526 1.524 . S
C5525 H5528 0.999 . S
C5526 H5496 0.950 . S
C5526 C5525 1.524 . S
C5526 C5527 1.415 . S
C5527 H5497 0.950 . S
C5527 C5522 1.363 . S
C5527 C5526 1.415 . S
H5528 C5525 0.999 . S
H5529 C5510 0.913 . S
H5530 C5548 0.951 . S
H5531 C5550 0.951 . S
H5532 C5552 0.950 . S
H5533 C5553 0.950 . S
H5534 C5555 0.950 . S
H5535 C5558 0.950 . S
H5536 C5559 0.950 . S
H5537 C5561 0.950 . S
H5538 C5562 0.950 . S
H5539 C5563 0.951 . S
H5540 C5565 0.951 . S
H5541 C5567 0.950 . S
H5542 C5568 0.950 . S
H5543 C5570 0.950 . S
H5544 C5573 0.950 . S
H5545 C5574 0.950 . S
H5546 C5576 0.950 . S
H5547 C5577 0.950 . S
C5548 H5530 0.951 . S
C5548 C5549 1.366 . S
C5548 C5550 1.388 . S
C5549 C5548 1.366 . S
C5549 C5553 1.385 . S
C5550 H5531 0.951 . S
C5550 C5548 1.388 . S
C5550 C5551 1.366 . S
C5551 C5550 1.366 . S
C5551 C5552 1.414 . S
C5551 C5554 1.499 . S
C5552 H5532 0.950 . S
C5552 C5551 1.414 . S
C5552 C5553 1.374 . S
C5553 H5533 0.950 . S
C5553 C5549 1.385 . S
C5553 C5552 1.374 . S
C5554 C5551 1.499 . S
C5554 C5555 1.373 . S
C5554 C5556 1.389 . S
C5555 H5534 0.950 . S
C5555 C5554 1.373 . S
C5555 C5571 1.377 . S
C5556 C5554 1.389 . S
C5556 C5557 1.524 . S
C5556 C5570 1.377 . S
C5557 C5556 1.524 . S
C5557 C5558 1.397 . S
C5557 C5562 1.363 . S
C5558 H5535 0.950 . S
C5558 C5557 1.397 . S
C5558 C5559 1.334 . S
C5559 H5536 0.950 . S
C5559 C5558 1.334 . S
C5559 C5560 1.287 . S
C5560 C5559 1.287 . S
C5560 C5561 1.524 . S
C5560 H5579 0.913 . S
C5561 H5537 0.950 . S
C5561 C5560 1.524 . S
C5561 C5562 1.415 . S
C5562 H5538 0.950 . S
C5562 C5557 1.363 . S
C5562 C5561 1.415 . S
C5563 H5539 0.951 . S
C5563 C5564 1.366 . S
C5563 C5565 1.388 . S
C5564 C5563 1.366 . S
C5564 C5568 1.385 . S
C5565 H5540 0.951 . S
C5565 C5563 1.388 . S
C5565 C5566 1.366 . S
C5566 C5565 1.366 . S
C5566 C5567 1.414 . S
C5566 C5569 1.499 . S
C5567 H5541 0.950 . S
C5567 C5566 1.414 . S
C5567 C5568 1.374 . S
C5568 H5542 0.950 . S
C5568 C5564 1.385 . S
C5568 C5567 1.374 . S
C5569 C5566 1.499 . S
C5569 C5570 1.373 . S
C5569 C5571 1.389 . S
C5570 H5543 0.950 . S
C5570 C5556 1.377 . S
C5570 C5569 1.373 . S
C5571 C5555 1.377 . S
C5571 C5569 1.389 . S
C5571 C5572 1.524 . S
C5572 C5571 1.524 . S
C5572 C5573 1.397 . S
C5572 C5577 1.363 . S
C5573 H5544 0.950 . S
C5573 C5572 1.397 . S
C5573 C5574 1.334 . S
C5574 H5545 0.950 . S
C5574 C5573 1.334 . S
C5574 C5575 1.287 . S
C5575 C5574 1.287 . S
C5575 C5576 1.524 . S
C5575 H5578 0.999 . S
C5576 H5546 0.950 . S
C5576 C5575 1.524 . S
C5576 C5577 1.415 . S
C5577 H5547 0.950 . S
C5577 C5572 1.363 . S
C5577 C5576 1.415 . S
H5578 C5575 0.999 . S
H5579 C5560 0.913 . S
H5580 C5598 0.951 . S
H5581 C5600 0.951 . S
H5582 C5602 0.950 . S
H5583 C5603 0.950 . S
H5584 C5605 0.950 . S
H5585 C5608 0.950 . S
H5586 C5609 0.950 . S
H5587 C5611 0.950 . S
H5588 C5612 0.950 . S
H5589 C5613 0.951 . S
H5590 C5615 0.951 . S
H5591 C5617 0.950 . S
H5592 C5618 0.950 . S
H5593 C5620 0.950 . S
H5594 C5623 0.950 . S
H5595 C5624 0.950 . S
H5596 C5626 0.950 . S
H5597 C5627 0.950 . S
C5598 H5580 0.951 . S
C5598 C5599 1.366 . S
C5598 C5600 1.388 . S
C5599 C5598 1.366 . S
C5599 C5603 1.385 . S
C5600 H5581 0.951 . S
C5600 C5598 1.388 . S
C5600 C5601 1.366 . S
C5601 C5600 1.366 . S
C5601 C5602 1.414 . S
C5601 C5604 1.499 . S
C5602 H5582 0.950 . S
C5602 C5601 1.414 . S
C5602 C5603 1.374 . S
C5603 H5583 0.950 . S
C5603 C5599 1.385 . S
C5603 C5602 1.374 . S
C5604 C5601 1.499 . S
C5604 C5605 1.373 . S
C5604 C5606 1.389 . S
C5605 H5584 0.950 . S
C5605 C5604 1.373 . S
C5605 C5621 1.377 . S
C5606 C5604 1.389 . S
C5606 C5607 1.524 . S
C5606 C5620 1.377 . S
C5607 C5606 1.524 . S
C5607 C5608 1.397 . S
C5607 C5612 1.363 . S
C5608 H5585 0.950 . S
C5608 C5607 1.397 . S
C5608 C5609 1.334 . S
C5609 H5586 0.950 . S
C5609 C5608 1.334 . S
C5609 C5610 1.287 . S
C5610 C5609 1.287 . S
C5610 C5611 1.524 . S
C5610 H5629 0.913 . S
C5611 H5587 0.950 . S
C5611 C5610 1.524 . S
C5611 C5612 1.415 . S
C5612 H5588 0.950 . S
C5612 C5607 1.363 . S
C5612 C5611 1.415 . S
C5613 H5589 0.951 . S
C5613 C5614 1.366 . S
C5613 C5615 1.388 . S
C5614 C5613 1.366 . S
C5614 C5618 1.385 . S
C5615 H5590 0.951 . S
C5615 C5613 1.388 . S
C5615 C5616 1.366 . S
C5616 C5615 1.366 . S
C5616 C5617 1.414 . S
C5616 C5619 1.499 . S
C5617 H5591 0.950 . S
C5617 C5616 1.414 . S
C5617 C5618 1.374 . S
C5618 H5592 0.950 . S
C5618 C5614 1.385 . S
C5618 C5617 1.374 . S
C5619 C5616 1.499 . S
C5619 C5620 1.373 . S
C5619 C5621 1.389 . S
C5620 H5593 0.950 . S
C5620 C5606 1.377 . S
C5620 C5619 1.373 . S
C5621 C5605 1.377 . S
C5621 C5619 1.389 . S
C5621 C5622 1.524 . S
C5622 C5621 1.524 . S
C5622 C5623 1.397 1_455 S
C5622 C5627 1.363 . S
C5623 H5594 0.950 . S
C5623 C5622 1.397 1_655 S
C5623 C5624 1.334 . S
C5624 H5595 0.950 . S
C5624 C5623 1.334 . S
C5624 C5625 1.287 . S
C5625 C5624 1.287 . S
C5625 C5626 1.524 . S
C5625 H5628 0.999 . S
C5626 H5596 0.950 . S
C5626 C5625 1.524 . S
C5626 C5627 1.415 1_655 S
C5627 H5597 0.950 . S
C5627 C5622 1.363 . S
C5627 C5626 1.415 1_455 S
H5628 C5625 0.999 . S
H5629 C5610 0.913 . S
H5630 C5648 0.951 . S
H5631 C5650 0.951 . S
H5632 C5652 0.950 . S
H5633 C5653 0.950 . S
H5634 C5655 0.950 . S
H5635 C5658 0.950 . S
H5636 C5659 0.950 . S
H5637 C5661 0.950 . S
H5638 C5662 0.950 . S
H5639 C5663 0.951 . S
H5640 C5665 0.951 . S
H5641 C5667 0.950 . S
H5642 C5668 0.950 . S
H5643 C5670 0.950 . S
H5644 C5673 0.950 . S
H5645 C5674 0.950 . S
H5646 C5676 0.950 . S
H5647 C5677 0.950 . S
C5648 H5630 0.951 . S
C5648 C5649 1.366 . S
C5648 C5650 1.388 . S
C5649 C5648 1.366 . S
C5649 C5653 1.385 . S
C5650 H5631 0.951 . S
C5650 C5648 1.388 . S
C5650 C5651 1.366 . S
C5651 C5650 1.366 . S
C5651 C5652 1.414 . S
C5651 C5654 1.499 . S
C5652 H5632 0.950 . S
C5652 C5651 1.414 . S
C5652 C5653 1.374 . S
C5653 H5633 0.950 . S
C5653 C5649 1.385 . S
C5653 C5652 1.374 . S
C5654 C5651 1.499 . S
C5654 C5655 1.373 . S
C5654 C5656 1.389 . S
C5655 H5634 0.950 . S
C5655 C5654 1.373 . S
C5655 C5671 1.377 . S
C5656 C5654 1.389 . S
C5656 C5657 1.524 . S
C5656 C5670 1.377 . S
C5657 C5656 1.524 . S
C5657 C5658 1.397 . S
C5657 C5662 1.363 . S
C5658 H5635 0.950 . S
C5658 C5657 1.397 . S
C5658 C5659 1.334 . S
C5659 H5636 0.950 . S
C5659 C5658 1.334 . S
C5659 C5660 1.287 . S
C5660 C5659 1.287 . S
C5660 C5661 1.524 . S
C5660 H5679 0.913 . S
C5661 H5637 0.950 . S
C5661 C5660 1.524 . S
C5661 C5662 1.415 . S
C5662 H5638 0.950 . S
C5662 C5657 1.363 . S
C5662 C5661 1.415 . S
C5663 H5639 0.951 . S
C5663 C5664 1.366 . S
C5663 C5665 1.388 . S
C5664 C5663 1.366 . S
C5664 C5668 1.385 . S
C5665 H5640 0.951 . S
C5665 C5663 1.388 . S
C5665 C5666 1.366 . S
C5666 C5665 1.366 . S
C5666 C5667 1.414 . S
C5666 C5669 1.499 . S
C5667 H5641 0.950 . S
C5667 C5666 1.414 . S
C5667 C5668 1.374 . S
C5668 H5642 0.950 . S
C5668 C5664 1.385 . S
C5668 C5667 1.374 . S
C5669 C5666 1.499 . S
C5669 C5670 1.373 . S
C5669 C5671 1.389 . S
C5670 H5643 0.950 . S
C5670 C5656 1.377 . S
C5670 C5669 1.373 . S
C5671 C5655 1.377 . S
C5671 C5669 1.389 . S
C5671 C5672 1.524 . S
C5672 C5671 1.524 . S
C5672 C5673 1.397 . S
C5672 C5677 1.363 . S
C5673 H5644 0.950 . S
C5673 C5672 1.397 . S
C5673 C5674 1.334 . S
C5674 H5645 0.950 . S
C5674 C5673 1.334 . S
C5674 C5675 1.287 . S
C5675 C5674 1.287 . S
C5675 C5676 1.524 . S
C5675 H5678 0.999 . S
C5676 H5646 0.950 . S
C5676 C5675 1.524 . S
C5676 C5677 1.415 . S
C5677 H5647 0.950 . S
C5677 C5672 1.363 . S
C5677 C5676 1.415 . S
H5678 C5675 0.999 . S
H5679 C5660 0.913 . S
H5680 C5698 0.951 . S
H5681 C5700 0.951 . S
H5682 C5702 0.950 . S
H5683 C5703 0.950 . S
H5684 C5705 0.950 . S
H5685 C5708 0.950 . S
H5686 C5709 0.950 . S
H5687 C5711 0.950 . S
H5688 C5712 0.950 . S
H5689 C5713 0.951 . S
H5690 C5715 0.951 . S
H5691 C5717 0.950 . S
H5692 C5718 0.950 . S
H5693 C5720 0.950 . S
H5694 C5723 0.950 . S
H5695 C5724 0.950 . S
H5696 C5726 0.950 . S
H5697 C5727 0.950 . S
C5698 H5680 0.951 . S
C5698 C5699 1.366 . S
C5698 C5700 1.388 . S
C5699 C5698 1.366 . S
C5699 C5703 1.385 . S
C5700 H5681 0.951 . S
C5700 C5698 1.388 . S
C5700 C5701 1.366 . S
C5701 C5700 1.366 . S
C5701 C5702 1.414 . S
C5701 C5704 1.499 . S
C5702 H5682 0.950 . S
C5702 C5701 1.414 . S
C5702 C5703 1.374 . S
C5703 H5683 0.950 . S
C5703 C5699 1.385 . S
C5703 C5702 1.374 . S
C5704 C5701 1.499 . S
C5704 C5705 1.373 . S
C5704 C5706 1.389 . S
C5705 H5684 0.950 . S
C5705 C5704 1.373 . S
C5705 C5721 1.377 . S
C5706 C5704 1.389 . S
C5706 C5707 1.524 . S
C5706 C5720 1.377 . S
C5707 C5706 1.524 . S
C5707 C5708 1.397 . S
C5707 C5712 1.363 . S
C5708 H5685 0.950 . S
C5708 C5707 1.397 . S
C5708 C5709 1.334 . S
C5709 H5686 0.950 . S
C5709 C5708 1.334 . S
C5709 C5710 1.287 . S
C5710 C5709 1.287 . S
C5710 C5711 1.524 . S
C5710 H5729 0.913 . S
C5711 H5687 0.950 . S
C5711 C5710 1.524 . S
C5711 C5712 1.415 . S
C5712 H5688 0.950 . S
C5712 C5707 1.363 . S
C5712 C5711 1.415 . S
C5713 H5689 0.951 . S
C5713 C5714 1.366 . S
C5713 C5715 1.388 . S
C5714 C5713 1.366 . S
C5714 C5718 1.385 . S
C5715 H5690 0.951 . S
C5715 C5713 1.388 . S
C5715 C5716 1.366 . S
C5716 C5715 1.366 . S
C5716 C5717 1.414 . S
C5716 C5719 1.499 . S
C5717 H5691 0.950 . S
C5717 C5716 1.414 . S
C5717 C5718 1.374 . S
C5718 H5692 0.950 . S
C5718 C5714 1.385 . S
C5718 C5717 1.374 . S
C5719 C5716 1.499 . S
C5719 C5720 1.373 . S
C5719 C5721 1.389 . S
C5720 H5693 0.950 . S
C5720 C5706 1.377 . S
C5720 C5719 1.373 . S
C5721 C5705 1.377 . S
C5721 C5719 1.389 . S
C5721 C5722 1.524 . S
C5722 C5721 1.524 . S
C5722 C5723 1.397 . S
C5722 C5727 1.363 . S
C5723 H5694 0.950 . S
C5723 C5722 1.397 . S
C5723 C5724 1.334 . S
C5724 H5695 0.950 . S
C5724 C5723 1.334 . S
C5724 C5725 1.287 . S
C5725 C5724 1.287 . S
C5725 C5726 1.524 . S
C5725 H5728 0.999 . S
C5726 H5696 0.950 . S
C5726 C5725 1.524 . S
C5726 C5727 1.415 . S
C5727 H5697 0.950 . S
C5727 C5722 1.363 . S
C5727 C5726 1.415 . S
H5728 C5725 0.999 . S
H5729 C5710 0.913 . S
H5730 C5748 0.951 . S
H5731 C5750 0.951 . S
H5732 C5752 0.950 . S
H5733 C5753 0.950 . S
H5734 C5755 0.950 . S
H5735 C5758 0.950 . S
H5736 C5759 0.950 . S
H5737 C5761 0.950 . S
H5738 C5762 0.950 . S
H5739 C5763 0.951 . S
H5740 C5765 0.951 . S
H5741 C5767 0.950 . S
H5742 C5768 0.950 . S
H5743 C5770 0.950 . S
H5744 C5773 0.950 . S
H5745 C5774 0.950 . S
H5746 C5776 0.950 . S
H5747 C5777 0.950 . S
C5748 H5730 0.951 . S
C5748 C5749 1.366 . S
C5748 C5750 1.388 . S
C5749 C5748 1.366 . S
C5749 C5753 1.385 . S
C5750 H5731 0.951 . S
C5750 C5748 1.388 . S
C5750 C5751 1.366 . S
C5751 C5750 1.366 . S
C5751 C5752 1.414 . S
C5751 C5754 1.499 . S
C5752 H5732 0.950 . S
C5752 C5751 1.414 . S
C5752 C5753 1.374 . S
C5753 H5733 0.950 . S
C5753 C5749 1.385 . S
C5753 C5752 1.374 . S
C5754 C5751 1.499 . S
C5754 C5755 1.373 . S
C5754 C5756 1.389 . S
C5755 H5734 0.950 . S
C5755 C5754 1.373 . S
C5755 C5771 1.377 . S
C5756 C5754 1.389 . S
C5756 C5757 1.524 . S
C5756 C5770 1.377 . S
C5757 C5756 1.524 . S
C5757 C5758 1.397 . S
C5757 C5762 1.363 . S
C5758 H5735 0.950 . S
C5758 C5757 1.397 . S
C5758 C5759 1.334 . S
C5759 H5736 0.950 . S
C5759 C5758 1.334 . S
C5759 C5760 1.287 . S
C5760 C5759 1.287 . S
C5760 C5761 1.524 . S
C5760 H5779 0.913 . S
C5761 H5737 0.950 . S
C5761 C5760 1.524 . S
C5761 C5762 1.415 . S
C5762 H5738 0.950 . S
C5762 C5757 1.363 . S
C5762 C5761 1.415 . S
C5763 H5739 0.951 . S
C5763 C5764 1.366 . S
C5763 C5765 1.388 . S
C5764 C5763 1.366 . S
C5764 C5768 1.385 . S
C5765 H5740 0.951 . S
C5765 C5763 1.388 . S
C5765 C5766 1.366 . S
C5766 C5765 1.366 . S
C5766 C5767 1.414 . S
C5766 C5769 1.499 . S
C5767 H5741 0.950 . S
C5767 C5766 1.414 . S
C5767 C5768 1.374 . S
C5768 H5742 0.950 . S
C5768 C5764 1.385 . S
C5768 C5767 1.374 . S
C5769 C5766 1.499 . S
C5769 C5770 1.373 . S
C5769 C5771 1.389 . S
C5770 H5743 0.950 . S
C5770 C5756 1.377 . S
C5770 C5769 1.373 . S
C5771 C5755 1.377 . S
C5771 C5769 1.389 . S
C5771 C5772 1.524 . S
C5772 C5771 1.524 . S
C5772 C5773 1.397 . S
C5772 C5777 1.363 . S
C5773 H5744 0.950 . S
C5773 C5772 1.397 . S
C5773 C5774 1.334 . S
C5774 H5745 0.950 . S
C5774 C5773 1.334 . S
C5774 C5775 1.287 . S
C5775 C5774 1.287 . S
C5775 C5776 1.524 . S
C5775 H5778 0.999 . S
C5776 H5746 0.950 . S
C5776 C5775 1.524 . S
C5776 C5777 1.415 . S
C5777 H5747 0.950 . S
C5777 C5772 1.363 . S
C5777 C5776 1.415 . S
H5778 C5775 0.999 . S
H5779 C5760 0.913 . S
H5780 C5798 0.951 . S
H5781 C5800 0.951 . S
H5782 C5802 0.950 . S
H5783 C5803 0.950 . S
H5784 C5805 0.950 . S
H5785 C5808 0.950 . S
H5786 C5809 0.950 . S
H5787 C5811 0.950 . S
H5788 C5812 0.950 . S
H5789 C5813 0.937 1_454 S
H5790 C5815 0.951 . S
H5791 C5817 0.950 . S
H5792 C5818 0.950 1_554 S
H5793 C5820 0.950 . S
H5794 C5823 0.949 1_655 S
H5795 C5824 0.950 . S
H5796 C5826 0.950 . S
H5797 C5827 0.950 . S
C5798 H5780 0.951 . S
C5798 C5799 1.366 . S
C5798 C5800 1.388 . S
C5799 C5798 1.366 . S
C5799 C5803 1.385 . S
C5800 H5781 0.951 . S
C5800 C5798 1.388 . S
C5800 C5801 1.366 . S
C5801 C5800 1.366 . S
C5801 C5802 1.414 . S
C5801 C5804 1.499 . S
C5802 H5782 0.950 . S
C5802 C5801 1.414 . S
C5802 C5803 1.374 . S
C5803 H5783 0.950 . S
C5803 C5799 1.385 . S
C5803 C5802 1.374 . S
C5804 C5801 1.499 . S
C5804 C5805 1.373 . S
C5804 C5806 1.389 . S
C5805 H5784 0.950 . S
C5805 C5804 1.373 . S
C5805 C5821 1.377 . S
C5806 C5804 1.389 . S
C5806 C5807 1.524 . S
C5806 C5820 1.377 . S
C5807 C5806 1.524 . S
C5807 C5808 1.397 . S
C5807 C5812 1.363 . S
C5808 H5785 0.950 . S
C5808 C5807 1.397 . S
C5808 C5809 1.334 . S
C5809 H5786 0.950 . S
C5809 C5808 1.334 . S
C5809 C5810 1.287 . S
C5810 C5809 1.287 . S
C5810 C5811 1.524 . S
C5810 H5829 0.913 . S
C5811 H5787 0.950 . S
C5811 C5810 1.524 . S
C5811 C5812 1.415 . S
C5812 H5788 0.950 . S
C5812 C5807 1.363 . S
C5812 C5811 1.415 . S
C5813 H5789 0.937 1_656 S
C5813 C5814 1.365 1_556 S
C5813 C5815 1.390 . S
C5814 C5813 1.365 1_554 S
C5814 C5818 1.385 1_554 S
C5815 H5790 0.951 . S
C5815 C5813 1.390 . S
C5815 C5816 1.366 . S
C5816 C5815 1.366 . S
C5816 C5817 1.414 . S
C5816 C5819 1.499 . S
C5817 H5791 0.950 . S
C5817 C5816 1.414 . S
C5817 C5818 1.374 . S
C5818 H5792 0.950 1_556 S
C5818 C5814 1.385 1_556 S
C5818 C5817 1.374 . S
C5819 C5816 1.499 . S
C5819 C5820 1.373 . S
C5819 C5821 1.389 . S
C5820 H5793 0.950 . S
C5820 C5806 1.377 . S
C5820 C5819 1.373 . S
C5821 C5805 1.377 . S
C5821 C5819 1.389 . S
C5821 C5822 1.524 . S
C5822 C5821 1.524 . S
C5822 C5823 1.392 1_655 S
C5822 C5827 1.363 . S
C5823 H5794 0.949 1_455 S
C5823 C5822 1.392 1_455 S
C5823 C5824 1.339 . S
C5824 H5795 0.950 . S
C5824 C5823 1.339 . S
C5824 C5825 1.287 . S
C5825 C5824 1.287 . S
C5825 C5826 1.524 . S
C5825 H5828 0.999 . S
C5826 H5796 0.950 . S
C5826 C5825 1.524 . S
C5826 C5827 1.415 1_455 S
C5827 H5797 0.950 . S
C5827 C5822 1.363 . S
C5827 C5826 1.415 1_655 S
H5828 C5825 0.999 . S
H5829 C5810 0.913 . S
H5830 C5848 0.951 . S
H5831 C5850 0.951 . S
H5832 C5852 0.950 . S
H5833 C5853 0.950 . S
H5834 C5855 0.950 . S
H5835 C5858 0.950 . S
H5836 C5859 0.950 . S
H5837 C5861 0.950 . S
H5838 C5862 0.950 . S
H5839 C5863 0.951 . S
H5840 C5865 0.951 . S
H5841 C5867 0.950 . S
H5842 C5868 0.950 . S
H5843 C5870 0.950 . S
H5844 C5873 0.950 . S
H5845 C5874 0.950 . S
H5846 C5876 0.950 . S
H5847 C5877 0.950 . S
C5848 H5830 0.951 . S
C5848 C5849 1.366 . S
C5848 C5850 1.388 . S
C5849 C5848 1.366 . S
C5849 C5853 1.385 . S
C5850 H5831 0.951 . S
C5850 C5848 1.388 . S
C5850 C5851 1.366 . S
C5851 C5850 1.366 . S
C5851 C5852 1.414 . S
C5851 C5854 1.499 . S
C5852 H5832 0.950 . S
C5852 C5851 1.414 . S
C5852 C5853 1.374 . S
C5853 H5833 0.950 . S
C5853 C5849 1.385 . S
C5853 C5852 1.374 . S
C5854 C5851 1.499 . S
C5854 C5855 1.373 . S
C5854 C5856 1.389 . S
C5855 H5834 0.950 . S
C5855 C5854 1.373 . S
C5855 C5871 1.377 . S
C5856 C5854 1.389 . S
C5856 C5857 1.524 . S
C5856 C5870 1.377 . S
C5857 C5856 1.524 . S
C5857 C5858 1.397 . S
C5857 C5862 1.363 . S
C5858 H5835 0.950 . S
C5858 C5857 1.397 . S
C5858 C5859 1.334 . S
C5859 H5836 0.950 . S
C5859 C5858 1.334 . S
C5859 C5860 1.287 . S
C5860 C5859 1.287 . S
C5860 C5861 1.524 . S
C5860 H5879 0.913 . S
C5861 H5837 0.950 . S
C5861 C5860 1.524 . S
C5861 C5862 1.415 . S
C5862 H5838 0.950 . S
C5862 C5857 1.363 . S
C5862 C5861 1.415 . S
C5863 H5839 0.951 . S
C5863 C5864 1.366 . S
C5863 C5865 1.388 . S
C5864 C5863 1.366 . S
C5864 C5868 1.385 . S
C5865 H5840 0.951 . S
C5865 C5863 1.388 . S
C5865 C5866 1.366 . S
C5866 C5865 1.366 . S
C5866 C5867 1.414 . S
C5866 C5869 1.499 . S
C5867 H5841 0.950 . S
C5867 C5866 1.414 . S
C5867 C5868 1.374 . S
C5868 H5842 0.950 . S
C5868 C5864 1.385 . S
C5868 C5867 1.374 . S
C5869 C5866 1.499 . S
C5869 C5870 1.373 . S
C5869 C5871 1.389 . S
C5870 H5843 0.950 . S
C5870 C5856 1.377 . S
C5870 C5869 1.373 . S
C5871 C5855 1.377 . S
C5871 C5869 1.389 . S
C5871 C5872 1.524 . S
C5872 C5871 1.524 . S
C5872 C5873 1.397 . S
C5872 C5877 1.363 . S
C5873 H5844 0.950 . S
C5873 C5872 1.397 . S
C5873 C5874 1.334 . S
C5874 H5845 0.950 . S
C5874 C5873 1.334 . S
C5874 C5875 1.287 . S
C5875 C5874 1.287 . S
C5875 C5876 1.524 . S
C5875 H5878 0.999 . S
C5876 H5846 0.950 . S
C5876 C5875 1.524 . S
C5876 C5877 1.415 . S
C5877 H5847 0.950 . S
C5877 C5872 1.363 . S
C5877 C5876 1.415 . S
H5878 C5875 0.999 . S
H5879 C5860 0.913 . S
H5880 C5898 0.951 . S
H5881 C5900 0.951 . S
H5882 C5902 0.950 . S
H5883 C5903 0.950 . S
H5884 C5905 0.950 . S
H5885 C5908 0.950 . S
H5886 C5909 0.950 . S
H5887 C5911 0.950 . S
H5888 C5912 0.950 . S
H5889 C5913 0.951 . S
H5890 C5915 0.951 . S
H5891 C5917 0.950 . S
H5892 C5918 0.950 . S
H5893 C5920 0.950 . S
H5894 C5923 0.950 . S
H5895 C5924 0.950 . S
H5896 C5926 0.950 . S
H5897 C5927 0.950 . S
C5898 H5880 0.951 . S
C5898 C5899 1.366 . S
C5898 C5900 1.388 . S
C5899 C5898 1.366 . S
C5899 C5903 1.385 . S
C5900 H5881 0.951 . S
C5900 C5898 1.388 . S
C5900 C5901 1.366 . S
C5901 C5900 1.366 . S
C5901 C5902 1.414 . S
C5901 C5904 1.499 . S
C5902 H5882 0.950 . S
C5902 C5901 1.414 . S
C5902 C5903 1.374 . S
C5903 H5883 0.950 . S
C5903 C5899 1.385 . S
C5903 C5902 1.374 . S
C5904 C5901 1.499 . S
C5904 C5905 1.373 . S
C5904 C5906 1.389 . S
C5905 H5884 0.950 . S
C5905 C5904 1.373 . S
C5905 C5921 1.377 . S
C5906 C5904 1.389 . S
C5906 C5907 1.524 . S
C5906 C5920 1.377 . S
C5907 C5906 1.524 . S
C5907 C5908 1.397 . S
C5907 C5912 1.363 . S
C5908 H5885 0.950 . S
C5908 C5907 1.397 . S
C5908 C5909 1.334 . S
C5909 H5886 0.950 . S
C5909 C5908 1.334 . S
C5909 C5910 1.287 . S
C5910 C5909 1.287 . S
C5910 C5911 1.524 . S
C5910 H5929 0.913 . S
C5911 H5887 0.950 . S
C5911 C5910 1.524 . S
C5911 C5912 1.415 . S
C5912 H5888 0.950 . S
C5912 C5907 1.363 . S
C5912 C5911 1.415 . S
C5913 H5889 0.951 . S
C5913 C5914 1.366 . S
C5913 C5915 1.388 . S
C5914 C5913 1.366 . S
C5914 C5918 1.385 . S
C5915 H5890 0.951 . S
C5915 C5913 1.388 . S
C5915 C5916 1.366 . S
C5916 C5915 1.366 . S
C5916 C5917 1.414 . S
C5916 C5919 1.499 . S
C5917 H5891 0.950 . S
C5917 C5916 1.414 . S
C5917 C5918 1.374 . S
C5918 H5892 0.950 . S
C5918 C5914 1.385 . S
C5918 C5917 1.374 . S
C5919 C5916 1.499 . S
C5919 C5920 1.373 . S
C5919 C5921 1.389 . S
C5920 H5893 0.950 . S
C5920 C5906 1.377 . S
C5920 C5919 1.373 . S
C5921 C5905 1.377 . S
C5921 C5919 1.389 . S
C5921 C5922 1.524 . S
C5922 C5921 1.524 . S
C5922 C5923 1.397 . S
C5922 C5927 1.363 . S
C5923 H5894 0.950 . S
C5923 C5922 1.397 . S
C5923 C5924 1.334 . S
C5924 H5895 0.950 . S
C5924 C5923 1.334 . S
C5924 C5925 1.287 . S
C5925 C5924 1.287 . S
C5925 C5926 1.524 . S
C5925 H5928 0.999 . S
C5926 H5896 0.950 . S
C5926 C5925 1.524 . S
C5926 C5927 1.415 . S
C5927 H5897 0.950 . S
C5927 C5922 1.363 . S
C5927 C5926 1.415 . S
H5928 C5925 0.999 . S
H5929 C5910 0.913 . S
H5930 C5948 0.951 . S
H5931 C5950 0.951 . S
H5932 C5952 0.950 . S
H5933 C5953 0.950 . S
H5934 C5955 0.950 . S
H5935 C5958 0.950 . S
H5936 C5959 0.950 . S
H5937 C5961 0.950 . S
H5938 C5962 0.950 . S
H5939 C5963 0.951 . S
H5940 C5965 0.951 . S
H5941 C5967 0.950 . S
H5942 C5968 0.950 . S
H5943 C5970 0.950 . S
H5944 C5973 0.950 . S
H5945 C5974 0.950 . S
H5946 C5976 0.950 . S
H5947 C5977 0.950 . S
C5948 H5930 0.951 . S
C5948 C5949 1.366 . S
C5948 C5950 1.388 . S
C5949 C5948 1.366 . S
C5949 C5953 1.385 . S
C5950 H5931 0.951 . S
C5950 C5948 1.388 . S
C5950 C5951 1.366 . S
C5951 C5950 1.366 . S
C5951 C5952 1.414 . S
C5951 C5954 1.499 . S
C5952 H5932 0.950 . S
C5952 C5951 1.414 . S
C5952 C5953 1.374 . S
C5953 H5933 0.950 . S
C5953 C5949 1.385 . S
C5953 C5952 1.374 . S
C5954 C5951 1.499 . S
C5954 C5955 1.373 . S
C5954 C5956 1.389 . S
C5955 H5934 0.950 . S
C5955 C5954 1.373 . S
C5955 C5971 1.377 . S
C5956 C5954 1.389 . S
C5956 C5957 1.524 . S
C5956 C5970 1.377 . S
C5957 C5956 1.524 . S
C5957 C5958 1.397 . S
C5957 C5962 1.363 . S
C5958 H5935 0.950 . S
C5958 C5957 1.397 . S
C5958 C5959 1.334 . S
C5959 H5936 0.950 . S
C5959 C5958 1.334 . S
C5959 C5960 1.287 . S
C5960 C5959 1.287 . S
C5960 C5961 1.524 . S
C5960 H5979 0.913 . S
C5961 H5937 0.950 . S
C5961 C5960 1.524 . S
C5961 C5962 1.415 . S
C5962 H5938 0.950 . S
C5962 C5957 1.363 . S
C5962 C5961 1.415 . S
C5963 H5939 0.951 . S
C5963 C5964 1.366 . S
C5963 C5965 1.388 . S
C5964 C5963 1.366 . S
C5964 C5968 1.385 . S
C5965 H5940 0.951 . S
C5965 C5963 1.388 . S
C5965 C5966 1.366 . S
C5966 C5965 1.366 . S
C5966 C5967 1.414 . S
C5966 C5969 1.499 . S
C5967 H5941 0.950 . S
C5967 C5966 1.414 . S
C5967 C5968 1.374 . S
C5968 H5942 0.950 . S
C5968 C5964 1.385 . S
C5968 C5967 1.374 . S
C5969 C5966 1.499 . S
C5969 C5970 1.373 . S
C5969 C5971 1.389 . S
C5970 H5943 0.950 . S
C5970 C5956 1.377 . S
C5970 C5969 1.373 . S
C5971 C5955 1.377 . S
C5971 C5969 1.389 . S
C5971 C5972 1.524 . S
C5972 C5971 1.524 . S
C5972 C5973 1.397 . S
C5972 C5977 1.363 . S
C5973 H5944 0.950 . S
C5973 C5972 1.397 . S
C5973 C5974 1.334 . S
C5974 H5945 0.950 . S
C5974 C5973 1.334 . S
C5974 C5975 1.287 . S
C5975 C5974 1.287 . S
C5975 C5976 1.524 . S
C5975 H5978 0.999 . S
C5976 H5946 0.950 . S
C5976 C5975 1.524 . S
C5976 C5977 1.415 . S
C5977 H5947 0.950 . S
C5977 C5972 1.363 . S
C5977 C5976 1.415 . S
H5978 C5975 0.999 . S
H5979 C5960 0.913 . S
H5980 C5998 0.951 . S
H5981 C6000 0.951 . S
H5982 C6002 0.950 . S
H5983 C6003 0.950 . S
H5984 C6005 0.950 . S
H5985 C6008 0.950 . S
H5986 C6009 0.950 . S
H5987 C6011 0.950 . S
H5988 C6012 0.950 . S
H5989 C6013 0.951 . S
H5990 C6015 0.951 . S
H5991 C6017 0.950 . S
H5992 C6018 0.950 . S
H5993 C6020 0.950 . S
H5994 C6023 0.950 . S
H5995 C6024 0.950 . S
H5996 C6026 0.950 . S
H5997 C6027 0.950 . S
C5998 H5980 0.951 . S
C5998 C5999 1.366 . S
C5998 C6000 1.388 . S
C5999 C5998 1.366 . S
C5999 C6003 1.385 . S
C6000 H5981 0.951 . S
C6000 C5998 1.388 . S
C6000 C6001 1.366 . S
C6001 C6000 1.366 . S
C6001 C6002 1.414 . S
C6001 C6004 1.499 . S
C6002 H5982 0.950 . S
C6002 C6001 1.414 . S
C6002 C6003 1.374 . S
C6003 H5983 0.950 . S
C6003 C5999 1.385 . S
C6003 C6002 1.374 . S
C6004 C6001 1.499 . S
C6004 C6005 1.373 . S
C6004 C6006 1.389 . S
C6005 H5984 0.950 . S
C6005 C6004 1.373 . S
C6005 C6021 1.377 . S
C6006 C6004 1.389 . S
C6006 C6007 1.524 . S
C6006 C6020 1.377 . S
C6007 C6006 1.524 . S
C6007 C6008 1.397 . S
C6007 C6012 1.363 . S
C6008 H5985 0.950 . S
C6008 C6007 1.397 . S
C6008 C6009 1.334 . S
C6009 H5986 0.950 . S
C6009 C6008 1.334 . S
C6009 C6010 1.287 . S
C6010 C6009 1.287 . S
C6010 C6011 1.524 . S
C6010 H6029 0.913 . S
C6011 H5987 0.950 . S
C6011 C6010 1.524 . S
C6011 C6012 1.415 . S
C6012 H5988 0.950 . S
C6012 C6007 1.363 . S
C6012 C6011 1.415 . S
C6013 H5989 0.951 . S
C6013 C6014 1.366 . S
C6013 C6015 1.388 . S
C6014 C6013 1.366 . S
C6014 C6018 1.385 . S
C6015 H5990 0.951 . S
C6015 C6013 1.388 . S
C6015 C6016 1.366 . S
C6016 C6015 1.366 . S
C6016 C6017 1.414 . S
C6016 C6019 1.499 . S
C6017 H5991 0.950 . S
C6017 C6016 1.414 . S
C6017 C6018 1.374 . S
C6018 H5992 0.950 . S
C6018 C6014 1.385 . S
C6018 C6017 1.374 . S
C6019 C6016 1.499 . S
C6019 C6020 1.373 . S
C6019 C6021 1.389 . S
C6020 H5993 0.950 . S
C6020 C6006 1.377 . S
C6020 C6019 1.373 . S
C6021 C6005 1.377 . S
C6021 C6019 1.389 . S
C6021 C6022 1.524 . S
C6022 C6021 1.524 . S
C6022 C6023 1.397 . S
C6022 C6027 1.363 . S
C6023 H5994 0.950 . S
C6023 C6022 1.397 . S
C6023 C6024 1.334 . S
C6024 H5995 0.950 . S
C6024 C6023 1.334 . S
C6024 C6025 1.287 . S
C6025 C6024 1.287 . S
C6025 C6026 1.524 . S
C6025 H6028 0.999 . S
C6026 H5996 0.950 . S
C6026 C6025 1.524 . S
C6026 C6027 1.415 . S
C6027 H5997 0.950 . S
C6027 C6022 1.363 . S
C6027 C6026 1.415 . S
H6028 C6025 0.999 . S
H6029 C6010 0.913 . S
H6030 C6048 0.951 . S
H6031 C6050 0.951 . S
H6032 C6052 0.950 . S
H6033 C6053 0.950 . S
H6034 C6055 0.950 . S
H6035 C6058 0.950 . S
H6036 C6059 0.950 . S
H6037 C6061 0.950 . S
H6038 C6062 0.950 . S
H6039 C6063 0.951 . S
H6040 C6065 0.951 . S
H6041 C6067 0.950 . S
H6042 C6068 0.950 . S
H6043 C6070 0.950 . S
H6044 C6073 0.950 . S
H6045 C6074 0.950 . S
H6046 C6076 0.950 . S
H6047 C6077 0.950 . S
C6048 H6030 0.951 . S
C6048 C6049 1.366 . S
C6048 C6050 1.388 . S
C6049 C6048 1.366 . S
C6049 C6053 1.385 . S
C6050 H6031 0.951 . S
C6050 C6048 1.388 . S
C6050 C6051 1.366 . S
C6051 C6050 1.366 . S
C6051 C6052 1.414 . S
C6051 C6054 1.499 . S
C6052 H6032 0.950 . S
C6052 C6051 1.414 . S
C6052 C6053 1.374 . S
C6053 H6033 0.950 . S
C6053 C6049 1.385 . S
C6053 C6052 1.374 . S
C6054 C6051 1.499 . S
C6054 C6055 1.373 . S
C6054 C6056 1.389 . S
C6055 H6034 0.950 . S
C6055 C6054 1.373 . S
C6055 C6071 1.377 . S
C6056 C6054 1.389 . S
C6056 C6057 1.524 . S
C6056 C6070 1.377 . S
C6057 C6056 1.524 . S
C6057 C6058 1.397 . S
C6057 C6062 1.363 . S
C6058 H6035 0.950 . S
C6058 C6057 1.397 . S
C6058 C6059 1.334 . S
C6059 H6036 0.950 . S
C6059 C6058 1.334 . S
C6059 C6060 1.287 . S
C6060 C6059 1.287 . S
C6060 C6061 1.524 . S
C6060 H6079 0.913 . S
C6061 H6037 0.950 . S
C6061 C6060 1.524 . S
C6061 C6062 1.415 . S
C6062 H6038 0.950 . S
C6062 C6057 1.363 . S
C6062 C6061 1.415 . S
C6063 H6039 0.951 . S
C6063 C6064 1.366 . S
C6063 C6065 1.388 . S
C6064 C6063 1.366 . S
C6064 C6068 1.385 . S
C6065 H6040 0.951 . S
C6065 C6063 1.388 . S
C6065 C6066 1.366 . S
C6066 C6065 1.366 . S
C6066 C6067 1.414 . S
C6066 C6069 1.499 . S
C6067 H6041 0.950 . S
C6067 C6066 1.414 . S
C6067 C6068 1.374 . S
C6068 H6042 0.950 . S
C6068 C6064 1.385 . S
C6068 C6067 1.374 . S
C6069 C6066 1.499 . S
C6069 C6070 1.373 . S
C6069 C6071 1.389 . S
C6070 H6043 0.950 . S
C6070 C6056 1.377 . S
C6070 C6069 1.373 . S
C6071 C6055 1.377 . S
C6071 C6069 1.389 . S
C6071 C6072 1.524 . S
C6072 C6071 1.524 . S
C6072 C6073 1.397 . S
C6072 C6077 1.363 . S
C6073 H6044 0.950 . S
C6073 C6072 1.397 . S
C6073 C6074 1.334 . S
C6074 H6045 0.950 . S
C6074 C6073 1.334 . S
C6074 C6075 1.287 . S
C6075 C6074 1.287 . S
C6075 C6076 1.524 . S
C6075 H6078 0.999 . S
C6076 H6046 0.950 . S
C6076 C6075 1.524 . S
C6076 C6077 1.415 . S
C6077 H6047 0.950 . S
C6077 C6072 1.363 . S
C6077 C6076 1.415 . S
H6078 C6075 0.999 . S
H6079 C6060 0.913 . S
H6080 C6098 0.951 . S
H6081 C6100 0.951 . S
H6082 C6102 0.950 . S
H6083 C6103 0.950 . S
H6084 C6105 0.950 . S
H6085 C6108 0.950 . S
H6086 C6109 0.950 . S
H6087 C6111 0.950 . S
H6088 C6112 0.950 . S
H6089 C6113 0.951 . S
H6090 C6115 0.951 . S
H6091 C6117 0.950 . S
H6092 C6118 0.950 . S
H6093 C6120 0.950 . S
H6094 C6123 0.950 . S
H6095 C6124 0.950 . S
H6096 C6126 0.950 . S
H6097 C6127 0.950 . S
C6098 H6080 0.951 . S
C6098 C6099 1.366 . S
C6098 C6100 1.388 . S
C6099 C6098 1.366 . S
C6099 C6103 1.385 . S
C6100 H6081 0.951 . S
C6100 C6098 1.388 . S
C6100 C6101 1.366 . S
C6101 C6100 1.366 . S
C6101 C6102 1.414 . S
C6101 C6104 1.499 . S
C6102 H6082 0.950 . S
C6102 C6101 1.414 . S
C6102 C6103 1.374 . S
C6103 H6083 0.950 . S
C6103 C6099 1.385 . S
C6103 C6102 1.374 . S
C6104 C6101 1.499 . S
C6104 C6105 1.373 . S
C6104 C6106 1.389 . S
C6105 H6084 0.950 . S
C6105 C6104 1.373 . S
C6105 C6121 1.377 . S
C6106 C6104 1.389 . S
C6106 C6107 1.524 . S
C6106 C6120 1.377 . S
C6107 C6106 1.524 . S
C6107 C6108 1.397 . S
C6107 C6112 1.363 . S
C6108 H6085 0.950 . S
C6108 C6107 1.397 . S
C6108 C6109 1.334 . S
C6109 H6086 0.950 . S
C6109 C6108 1.334 . S
C6109 C6110 1.287 . S
C6110 C6109 1.287 . S
C6110 C6111 1.524 . S
C6110 H6129 0.913 . S
C6111 H6087 0.950 . S
C6111 C6110 1.524 . S
C6111 C6112 1.415 . S
C6112 H6088 0.950 . S
C6112 C6107 1.363 . S
C6112 C6111 1.415 . S
C6113 H6089 0.951 . S
C6113 C6114 1.366 . S
C6113 C6115 1.388 . S
C6114 C6113 1.366 . S
C6114 C6118 1.385 . S
C6115 H6090 0.951 . S
C6115 C6113 1.388 . S
C6115 C6116 1.366 . S
C6116 C6115 1.366 . S
C6116 C6117 1.414 . S
C6116 C6119 1.499 . S
C6117 H6091 0.950 . S
C6117 C6116 1.414 . S
C6117 C6118 1.374 . S
C6118 H6092 0.950 . S
C6118 C6114 1.385 . S
C6118 C6117 1.374 . S
C6119 C6116 1.499 . S
C6119 C6120 1.373 . S
C6119 C6121 1.389 . S
C6120 H6093 0.950 . S
C6120 C6106 1.377 . S
C6120 C6119 1.373 . S
C6121 C6105 1.377 . S
C6121 C6119 1.389 . S
C6121 C6122 1.524 . S
C6122 C6121 1.524 . S
C6122 C6123 1.397 . S
C6122 C6127 1.363 . S
C6123 H6094 0.950 . S
C6123 C6122 1.397 . S
C6123 C6124 1.334 . S
C6124 H6095 0.950 . S
C6124 C6123 1.334 . S
C6124 C6125 1.287 . S
C6125 C6124 1.287 . S
C6125 C6126 1.524 . S
C6125 H6128 0.999 . S
C6126 H6096 0.950 . S
C6126 C6125 1.524 . S
C6126 C6127 1.415 . S
C6127 H6097 0.950 . S
C6127 C6122 1.363 . S
C6127 C6126 1.415 . S
H6128 C6125 0.999 . S
H6129 C6110 0.913 . S
H6130 C6148 0.951 . S
H6131 C6150 0.951 . S
H6132 C6152 0.950 . S
H6133 C6153 0.950 . S
H6134 C6155 0.950 . S
H6135 C6158 0.950 . S
H6136 C6159 0.950 . S
H6137 C6161 0.950 . S
H6138 C6162 0.950 . S
H6139 C6163 0.951 . S
H6140 C6165 0.951 . S
H6141 C6167 0.950 . S
H6142 C6168 0.950 . S
H6143 C6170 0.950 . S
H6144 C6173 0.950 . S
H6145 C6174 0.950 . S
H6146 C6176 0.950 . S
H6147 C6177 0.950 . S
C6148 H6130 0.951 . S
C6148 C6149 1.366 . S
C6148 C6150 1.388 . S
C6149 C6148 1.366 . S
C6149 C6153 1.385 . S
C6150 H6131 0.951 . S
C6150 C6148 1.388 . S
C6150 C6151 1.366 . S
C6151 C6150 1.366 . S
C6151 C6152 1.414 . S
C6151 C6154 1.499 . S
C6152 H6132 0.950 . S
C6152 C6151 1.414 . S
C6152 C6153 1.374 . S
C6153 H6133 0.950 . S
C6153 C6149 1.385 . S
C6153 C6152 1.374 . S
C6154 C6151 1.499 . S
C6154 C6155 1.373 . S
C6154 C6156 1.389 . S
C6155 H6134 0.950 . S
C6155 C6154 1.373 . S
C6155 C6171 1.377 . S
C6156 C6154 1.389 . S
C6156 C6157 1.524 . S
C6156 C6170 1.377 . S
C6157 C6156 1.524 . S
C6157 C6158 1.397 . S
C6157 C6162 1.363 . S
C6158 H6135 0.950 . S
C6158 C6157 1.397 . S
C6158 C6159 1.334 . S
C6159 H6136 0.950 . S
C6159 C6158 1.334 . S
C6159 C6160 1.287 . S
C6160 C6159 1.287 . S
C6160 C6161 1.524 . S
C6160 H6179 0.913 . S
C6161 H6137 0.950 . S
C6161 C6160 1.524 . S
C6161 C6162 1.415 . S
C6162 H6138 0.950 . S
C6162 C6157 1.363 . S
C6162 C6161 1.415 . S
C6163 H6139 0.951 . S
C6163 C6164 1.366 . S
C6163 C6165 1.388 . S
C6164 C6163 1.366 . S
C6164 C6168 1.385 . S
C6165 H6140 0.951 . S
C6165 C6163 1.388 . S
C6165 C6166 1.366 . S
C6166 C6165 1.366 . S
C6166 C6167 1.414 . S
C6166 C6169 1.499 . S
C6167 H6141 0.950 . S
C6167 C6166 1.414 . S
C6167 C6168 1.374 . S
C6168 H6142 0.950 . S
C6168 C6164 1.385 . S
C6168 C6167 1.374 . S
C6169 C6166 1.499 . S
C6169 C6170 1.373 . S
C6169 C6171 1.389 . S
C6170 H6143 0.950 . S
C6170 C6156 1.377 . S
C6170 C6169 1.373 . S
C6171 C6155 1.377 . S
C6171 C6169 1.389 . S
C6171 C6172 1.524 . S
C6172 C6171 1.524 . S
C6172 C6173 1.397 . S
C6172 C6177 1.363 . S
C6173 H6144 0.950 . S
C6173 C6172 1.397 . S
C6173 C6174 1.334 . S
C6174 H6145 0.950 . S
C6174 C6173 1.334 . S
C6174 C6175 1.287 . S
C6175 C6174 1.287 . S
C6175 C6176 1.524 . S
C6175 H6178 0.999 . S
C6176 H6146 0.950 . S
C6176 C6175 1.524 . S
C6176 C6177 1.415 . S
C6177 H6147 0.950 . S
C6177 C6172 1.363 . S
C6177 C6176 1.415 . S
H6178 C6175 0.999 . S
H6179 C6160 0.913 . S
H6180 C6198 0.951 . S
H6181 C6200 0.951 . S
H6182 C6202 0.950 . S
H6183 C6203 0.950 . S
H6184 C6205 0.950 . S
H6185 C6208 0.950 . S
H6186 C6209 0.950 . S
H6187 C6211 0.950 . S
H6188 C6212 0.950 . S
H6189 C6213 0.951 . S
H6190 C6215 0.951 . S
H6191 C6217 0.950 . S
H6192 C6218 0.950 . S
H6193 C6220 0.950 . S
H6194 C6223 0.950 . S
H6195 C6224 0.950 . S
H6196 C6226 0.950 . S
H6197 C6227 0.950 . S
C6198 H6180 0.951 . S
C6198 C6199 1.366 . S
C6198 C6200 1.388 . S
C6199 C6198 1.366 . S
C6199 C6203 1.385 . S
C6200 H6181 0.951 . S
C6200 C6198 1.388 . S
C6200 C6201 1.366 . S
C6201 C6200 1.366 . S
C6201 C6202 1.414 . S
C6201 C6204 1.499 . S
C6202 H6182 0.950 . S
C6202 C6201 1.414 . S
C6202 C6203 1.374 . S
C6203 H6183 0.950 . S
C6203 C6199 1.385 . S
C6203 C6202 1.374 . S
C6204 C6201 1.499 . S
C6204 C6205 1.373 . S
C6204 C6206 1.389 . S
C6205 H6184 0.950 . S
C6205 C6204 1.373 . S
C6205 C6221 1.377 . S
C6206 C6204 1.389 . S
C6206 C6207 1.524 . S
C6206 C6220 1.377 . S
C6207 C6206 1.524 . S
C6207 C6208 1.397 . S
C6207 C6212 1.363 . S
C6208 H6185 0.950 . S
C6208 C6207 1.397 . S
C6208 C6209 1.334 . S
C6209 H6186 0.950 . S
C6209 C6208 1.334 . S
C6209 C6210 1.287 . S
C6210 C6209 1.287 . S
C6210 C6211 1.524 . S
C6210 H6229 0.913 . S
C6211 H6187 0.950 . S
C6211 C6210 1.524 . S
C6211 C6212 1.415 . S
C6212 H6188 0.950 . S
C6212 C6207 1.363 . S
C6212 C6211 1.415 . S
C6213 H6189 0.951 . S
C6213 C6214 1.366 . S
C6213 C6215 1.388 . S
C6214 C6213 1.366 . S
C6214 C6218 1.385 . S
C6215 H6190 0.951 . S
C6215 C6213 1.388 . S
C6215 C6216 1.366 . S
C6216 C6215 1.366 . S
C6216 C6217 1.414 . S
C6216 C6219 1.499 . S
C6217 H6191 0.950 . S
C6217 C6216 1.414 . S
C6217 C6218 1.374 . S
C6218 H6192 0.950 . S
C6218 C6214 1.385 . S
C6218 C6217 1.374 . S
C6219 C6216 1.499 . S
C6219 C6220 1.373 . S
C6219 C6221 1.389 . S
C6220 H6193 0.950 . S
C6220 C6206 1.377 . S
C6220 C6219 1.373 . S
C6221 C6205 1.377 . S
C6221 C6219 1.389 . S
C6221 C6222 1.524 . S
C6222 C6221 1.524 . S
C6222 C6223 1.397 . S
C6222 C6227 1.363 . S
C6223 H6194 0.950 . S
C6223 C6222 1.397 . S
C6223 C6224 1.334 . S
C6224 H6195 0.950 . S
C6224 C6223 1.334 . S
C6224 C6225 1.287 . S
C6225 C6224 1.287 . S
C6225 C6226 1.524 . S
C6225 H6228 0.999 . S
C6226 H6196 0.950 . S
C6226 C6225 1.524 . S
C6226 C6227 1.415 . S
C6227 H6197 0.950 . S
C6227 C6222 1.363 . S
C6227 C6226 1.415 . S
H6228 C6225 0.999 . S
H6229 C6210 0.913 . S
H6230 C6248 0.951 . S
H6231 C6250 0.951 . S
H6232 C6252 0.950 . S
H6233 C6253 0.950 . S
H6234 C6255 0.950 . S
H6235 C6258 0.950 . S
H6236 C6259 0.950 . S
H6237 C6261 0.950 . S
H6238 C6262 0.950 . S
H6239 C6263 0.951 . S
H6240 C6265 0.951 . S
H6241 C6267 0.950 . S
H6242 C6268 0.950 . S
H6243 C6270 0.950 . S
H6244 C6273 0.950 . S
H6245 C6274 0.950 . S
H6246 C6276 0.950 . S
H6247 C6277 0.950 . S
C6248 H6230 0.951 . S
C6248 C6249 1.366 . S
C6248 C6250 1.388 . S
C6249 C6248 1.366 . S
C6249 C6253 1.385 . S
C6250 H6231 0.951 . S
C6250 C6248 1.388 . S
C6250 C6251 1.366 . S
C6251 C6250 1.366 . S
C6251 C6252 1.414 . S
C6251 C6254 1.499 . S
C6252 H6232 0.950 . S
C6252 C6251 1.414 . S
C6252 C6253 1.374 . S
C6253 H6233 0.950 . S
C6253 C6249 1.385 . S
C6253 C6252 1.374 . S
C6254 C6251 1.499 . S
C6254 C6255 1.373 . S
C6254 C6256 1.389 . S
C6255 H6234 0.950 . S
C6255 C6254 1.373 . S
C6255 C6271 1.377 . S
C6256 C6254 1.389 . S
C6256 C6257 1.524 . S
C6256 C6270 1.377 . S
C6257 C6256 1.524 . S
C6257 C6258 1.397 . S
C6257 C6262 1.363 . S
C6258 H6235 0.950 . S
C6258 C6257 1.397 . S
C6258 C6259 1.334 . S
C6259 H6236 0.950 . S
C6259 C6258 1.334 . S
C6259 C6260 1.287 . S
C6260 C6259 1.287 . S
C6260 C6261 1.524 . S
C6260 H6279 0.913 . S
C6261 H6237 0.950 . S
C6261 C6260 1.524 . S
C6261 C6262 1.415 . S
C6262 H6238 0.950 . S
C6262 C6257 1.363 . S
C6262 C6261 1.415 . S
C6263 H6239 0.951 . S
C6263 C6264 1.366 . S
C6263 C6265 1.388 . S
C6264 C6263 1.366 . S
C6264 C6268 1.385 . S
C6265 H6240 0.951 . S
C6265 C6263 1.388 . S
C6265 C6266 1.366 . S
C6266 C6265 1.366 . S
C6266 C6267 1.414 . S
C6266 C6269 1.499 . S
C6267 H6241 0.950 . S
C6267 C6266 1.414 . S
C6267 C6268 1.374 . S
C6268 H6242 0.950 . S
C6268 C6264 1.385 . S
C6268 C6267 1.374 . S
C6269 C6266 1.499 . S
C6269 C6270 1.373 . S
C6269 C6271 1.389 . S
C6270 H6243 0.950 . S
C6270 C6256 1.377 . S
C6270 C6269 1.373 . S
C6271 C6255 1.377 . S
C6271 C6269 1.389 . S
C6271 C6272 1.524 . S
C6272 C6271 1.524 . S
C6272 C6273 1.397 . S
C6272 C6277 1.363 . S
C6273 H6244 0.950 . S
C6273 C6272 1.397 . S
C6273 C6274 1.334 1_554 S
C6274 H6245 0.950 . S
C6274 C6273 1.334 1_556 S
C6274 C6275 1.287 . S
C6275 C6274 1.287 . S
C6275 C6276 1.524 . S
C6275 H6278 0.999 . S
C6276 H6246 0.950 . S
C6276 C6275 1.524 . S
C6276 C6277 1.415 1_556 S
C6277 H6247 0.950 . S
C6277 C6272 1.363 . S
C6277 C6276 1.415 1_554 S
H6278 C6275 0.999 . S
H6279 C6260 0.913 . S
H6280 C6298 0.951 . S
H6281 C6300 0.951 . S
H6282 C6302 0.950 . S
H6283 C6303 0.950 . S
H6284 C6305 0.950 . S
H6285 C6308 0.950 . S
H6286 C6309 0.950 . S
H6287 C6311 0.950 . S
H6288 C6312 0.950 . S
H6289 C6313 0.951 . S
H6290 C6315 0.951 . S
H6291 C6317 0.950 . S
H6292 C6318 0.950 . S
H6293 C6320 0.950 . S
H6294 C6323 0.950 . S
H6295 C6324 0.950 . S
H6296 C6326 0.950 . S
H6297 C6327 0.950 . S
C6298 H6280 0.951 . S
C6298 C6299 1.366 . S
C6298 C6300 1.388 . S
C6299 C6298 1.366 . S
C6299 C6303 1.385 . S
C6300 H6281 0.951 . S
C6300 C6298 1.388 . S
C6300 C6301 1.366 . S
C6301 C6300 1.366 . S
C6301 C6302 1.414 . S
C6301 C6304 1.499 . S
C6302 H6282 0.950 . S
C6302 C6301 1.414 . S
C6302 C6303 1.374 . S
C6303 H6283 0.950 . S
C6303 C6299 1.385 . S
C6303 C6302 1.374 . S
C6304 C6301 1.499 . S
C6304 C6305 1.373 . S
C6304 C6306 1.389 . S
C6305 H6284 0.950 . S
C6305 C6304 1.373 . S
C6305 C6321 1.377 . S
C6306 C6304 1.389 . S
C6306 C6307 1.524 . S
C6306 C6320 1.377 . S
C6307 C6306 1.524 . S
C6307 C6308 1.397 . S
C6307 C6312 1.363 . S
C6308 H6285 0.950 . S
C6308 C6307 1.397 . S
C6308 C6309 1.334 . S
C6309 H6286 0.950 . S
C6309 C6308 1.334 . S
C6309 C6310 1.287 . S
C6310 C6309 1.287 . S
C6310 C6311 1.524 . S
C6310 H6329 0.913 . S
C6311 H6287 0.950 . S
C6311 C6310 1.524 . S
C6311 C6312 1.415 . S
C6312 H6288 0.950 . S
C6312 C6307 1.363 . S
C6312 C6311 1.415 . S
C6313 H6289 0.951 . S
C6313 C6314 1.366 . S
C6313 C6315 1.388 . S
C6314 C6313 1.366 . S
C6314 C6318 1.385 . S
C6315 H6290 0.951 . S
C6315 C6313 1.388 . S
C6315 C6316 1.366 . S
C6316 C6315 1.366 . S
C6316 C6317 1.414 . S
C6316 C6319 1.499 . S
C6317 H6291 0.950 . S
C6317 C6316 1.414 . S
C6317 C6318 1.374 . S
C6318 H6292 0.950 . S
C6318 C6314 1.385 . S
C6318 C6317 1.374 . S
C6319 C6316 1.499 . S
C6319 C6320 1.373 . S
C6319 C6321 1.389 . S
C6320 H6293 0.950 . S
C6320 C6306 1.377 . S
C6320 C6319 1.373 . S
C6321 C6305 1.377 . S
C6321 C6319 1.389 . S
C6321 C6322 1.524 . S
C6322 C6321 1.524 . S
C6322 C6323 1.397 . S
C6322 C6327 1.363 . S
C6323 H6294 0.950 . S
C6323 C6322 1.397 . S
C6323 C6324 1.334 . S
C6324 H6295 0.950 . S
C6324 C6323 1.334 . S
C6324 C6325 1.287 . S
C6325 C6324 1.287 . S
C6325 C6326 1.524 . S
C6325 H6328 0.999 . S
C6326 H6296 0.950 . S
C6326 C6325 1.524 . S
C6326 C6327 1.415 . S
C6327 H6297 0.950 . S
C6327 C6322 1.363 . S
C6327 C6326 1.415 . S
H6328 C6325 0.999 . S
H6329 C6310 0.913 . S
H6330 C6348 0.951 . S
H6331 C6350 0.951 . S
H6332 C6352 0.950 . S
H6333 C6353 0.950 . S
H6334 C6355 0.950 . S
H6335 C6358 0.950 . S
H6336 C6359 0.950 . S
H6337 C6361 0.950 . S
H6338 C6362 0.950 . S
H6339 C6363 0.951 . S
H6340 C6365 0.951 . S
H6341 C6367 0.950 . S
H6342 C6368 0.950 . S
H6343 C6370 0.950 . S
H6344 C6373 0.950 . S
H6345 C6374 0.950 . S
H6346 C6376 0.950 . S
H6347 C6377 0.950 1_556 S
C6348 H6330 0.951 . S
C6348 C6349 1.366 . S
C6348 C6350 1.388 . S
C6349 C6348 1.366 . S
C6349 C6353 1.385 . S
C6350 H6331 0.951 . S
C6350 C6348 1.388 . S
C6350 C6351 1.366 . S
C6351 C6350 1.366 . S
C6351 C6352 1.414 . S
C6351 C6354 1.499 . S
C6352 H6332 0.950 . S
C6352 C6351 1.414 . S
C6352 C6353 1.374 . S
C6353 H6333 0.950 . S
C6353 C6349 1.385 . S
C6353 C6352 1.374 . S
C6354 C6351 1.499 . S
C6354 C6355 1.373 . S
C6354 C6356 1.389 . S
C6355 H6334 0.950 . S
C6355 C6354 1.373 . S
C6355 C6371 1.377 . S
C6356 C6354 1.389 . S
C6356 C6357 1.524 . S
C6356 C6370 1.377 . S
C6357 C6356 1.524 . S
C6357 C6358 1.397 . S
C6357 C6362 1.363 . S
C6358 H6335 0.950 . S
C6358 C6357 1.397 . S
C6358 C6359 1.334 . S
C6359 H6336 0.950 . S
C6359 C6358 1.334 . S
C6359 C6360 1.287 . S
C6360 C6359 1.287 . S
C6360 C6361 1.524 . S
C6360 H6379 0.913 . S
C6361 H6337 0.950 . S
C6361 C6360 1.524 . S
C6361 C6362 1.415 . S
C6362 H6338 0.950 . S
C6362 C6357 1.363 . S
C6362 C6361 1.415 . S
C6363 H6339 0.951 . S
C6363 C6364 1.366 . S
C6363 C6365 1.388 . S
C6364 C6363 1.366 . S
C6364 C6368 1.385 . S
C6365 H6340 0.951 . S
C6365 C6363 1.388 . S
C6365 C6366 1.366 . S
C6366 C6365 1.366 . S
C6366 C6367 1.414 . S
C6366 C6369 1.499 . S
C6367 H6341 0.950 . S
C6367 C6366 1.414 . S
C6367 C6368 1.374 . S
C6368 H6342 0.950 . S
C6368 C6364 1.385 . S
C6368 C6367 1.374 . S
C6369 C6366 1.499 . S
C6369 C6370 1.373 . S
C6369 C6371 1.389 . S
C6370 H6343 0.950 . S
C6370 C6356 1.377 . S
C6370 C6369 1.373 . S
C6371 C6355 1.377 . S
C6371 C6369 1.389 . S
C6371 C6372 1.524 . S
C6372 C6371 1.524 . S
C6372 C6373 1.397 . S
C6372 C6377 1.363 . S
C6373 H6344 0.950 . S
C6373 C6372 1.397 . S
C6373 C6374 1.334 . S
C6374 H6345 0.950 . S
C6374 C6373 1.334 . S
C6374 C6375 1.287 1_554 S
C6375 C6374 1.287 1_556 S
C6375 C6376 1.524 . S
C6375 H6378 0.999 . S
C6376 H6346 0.950 . S
C6376 C6375 1.524 . S
C6376 C6377 1.415 1_556 S
C6377 H6347 0.950 1_554 S
C6377 C6372 1.363 . S
C6377 C6376 1.415 1_554 S
H6378 C6375 0.999 . S
H6379 C6360 0.913 . S
H6380 C6398 0.951 . S
H6381 C6400 0.951 . S
H6382 C6402 0.950 . S
H6383 C6403 0.950 . S
H6384 C6405 0.950 . S
H6385 C6408 0.950 . S
H6386 C6409 0.950 . S
H6387 C6411 0.950 . S
H6388 C6412 0.950 . S
H6389 C6413 0.951 . S
H6390 C6415 0.951 . S
H6391 C6417 0.950 . S
H6392 C6418 0.950 . S
H6393 C6420 0.950 . S
H6394 C6423 0.950 . S
H6395 C6424 0.950 . S
H6396 C6426 0.950 . S
H6397 C6427 0.950 . S
C6398 H6380 0.951 . S
C6398 C6399 1.366 . S
C6398 C6400 1.388 . S
C6399 C6398 1.366 . S
C6399 C6403 1.385 . S
C6400 H6381 0.951 . S
C6400 C6398 1.388 . S
C6400 C6401 1.366 . S
C6401 C6400 1.366 . S
C6401 C6402 1.414 . S
C6401 C6404 1.499 . S
C6402 H6382 0.950 . S
C6402 C6401 1.414 . S
C6402 C6403 1.374 . S
C6403 H6383 0.950 . S
C6403 C6399 1.385 . S
C6403 C6402 1.374 . S
C6404 C6401 1.499 . S
C6404 C6405 1.373 . S
C6404 C6406 1.389 . S
C6405 H6384 0.950 . S
C6405 C6404 1.373 . S
C6405 C6421 1.377 . S
C6406 C6404 1.389 . S
C6406 C6407 1.524 . S
C6406 C6420 1.377 . S
C6407 C6406 1.524 . S
C6407 C6408 1.397 . S
C6407 C6412 1.363 . S
C6408 H6385 0.950 . S
C6408 C6407 1.397 . S
C6408 C6409 1.334 . S
C6409 H6386 0.950 . S
C6409 C6408 1.334 . S
C6409 C6410 1.287 . S
C6410 C6409 1.287 . S
C6410 C6411 1.524 . S
C6410 H6429 0.913 . S
C6411 H6387 0.950 . S
C6411 C6410 1.524 . S
C6411 C6412 1.415 . S
C6412 H6388 0.950 . S
C6412 C6407 1.363 . S
C6412 C6411 1.415 . S
C6413 H6389 0.951 . S
C6413 C6414 1.366 . S
C6413 C6415 1.388 . S
C6414 C6413 1.366 . S
C6414 C6418 1.385 . S
C6415 H6390 0.951 . S
C6415 C6413 1.388 . S
C6415 C6416 1.366 . S
C6416 C6415 1.366 . S
C6416 C6417 1.414 . S
C6416 C6419 1.499 . S
C6417 H6391 0.950 . S
C6417 C6416 1.414 . S
C6417 C6418 1.374 . S
C6418 H6392 0.950 . S
C6418 C6414 1.385 . S
C6418 C6417 1.374 . S
C6419 C6416 1.499 . S
C6419 C6420 1.373 . S
C6419 C6421 1.389 . S
C6420 H6393 0.950 . S
C6420 C6406 1.377 . S
C6420 C6419 1.373 . S
C6421 C6405 1.377 . S
C6421 C6419 1.389 . S
C6421 C6422 1.524 . S
C6422 C6421 1.524 . S
C6422 C6423 1.397 . S
C6422 C6427 1.363 . S
C6423 H6394 0.950 . S
C6423 C6422 1.397 . S
C6423 C6424 1.334 . S
C6424 H6395 0.950 . S
C6424 C6423 1.334 . S
C6424 C6425 1.287 . S
C6425 C6424 1.287 . S
C6425 C6426 1.524 . S
C6425 H6428 0.999 . S
C6426 H6396 0.950 . S
C6426 C6425 1.524 . S
C6426 C6427 1.415 . S
C6427 H6397 0.950 . S
C6427 C6422 1.363 . S
C6427 C6426 1.415 . S
H6428 C6425 0.999 . S
H6429 C6410 0.913 . S
H6430 C6448 0.951 . S
H6431 C6450 0.951 . S
H6432 C6452 0.950 . S
H6433 C6453 0.950 . S
H6434 C6455 0.950 . S
H6435 C6458 0.950 . S
H6436 C6459 0.950 . S
H6437 C6461 0.950 . S
H6438 C6462 0.950 . S
H6439 C6463 0.951 . S
H6440 C6465 0.951 . S
H6441 C6467 0.950 . S
H6442 C6468 0.950 . S
H6443 C6470 0.950 . S
H6444 C6473 0.950 . S
H6445 C6474 0.950 . S
H6446 C6476 0.950 . S
H6447 C6477 0.950 . S
C6448 H6430 0.951 . S
C6448 C6449 1.366 . S
C6448 C6450 1.388 . S
C6449 C6448 1.366 . S
C6449 C6453 1.385 . S
C6450 H6431 0.951 . S
C6450 C6448 1.388 . S
C6450 C6451 1.366 . S
C6451 C6450 1.366 . S
C6451 C6452 1.414 . S
C6451 C6454 1.499 . S
C6452 H6432 0.950 . S
C6452 C6451 1.414 . S
C6452 C6453 1.374 . S
C6453 H6433 0.950 . S
C6453 C6449 1.385 . S
C6453 C6452 1.374 . S
C6454 C6451 1.499 . S
C6454 C6455 1.373 . S
C6454 C6456 1.389 . S
C6455 H6434 0.950 . S
C6455 C6454 1.373 . S
C6455 C6471 1.377 . S
C6456 C6454 1.389 . S
C6456 C6457 1.524 . S
C6456 C6470 1.377 . S
C6457 C6456 1.524 . S
C6457 C6458 1.397 . S
C6457 C6462 1.363 . S
C6458 H6435 0.950 . S
C6458 C6457 1.397 . S
C6458 C6459 1.334 . S
C6459 H6436 0.950 . S
C6459 C6458 1.334 . S
C6459 C6460 1.287 . S
C6460 C6459 1.287 . S
C6460 C6461 1.524 . S
C6460 H6479 0.913 . S
C6461 H6437 0.950 . S
C6461 C6460 1.524 . S
C6461 C6462 1.415 . S
C6462 H6438 0.950 . S
C6462 C6457 1.363 . S
C6462 C6461 1.415 . S
C6463 H6439 0.951 . S
C6463 C6464 1.366 . S
C6463 C6465 1.388 . S
C6464 C6463 1.366 . S
C6464 C6468 1.385 . S
C6465 H6440 0.951 . S
C6465 C6463 1.388 . S
C6465 C6466 1.366 . S
C6466 C6465 1.366 . S
C6466 C6467 1.414 . S
C6466 C6469 1.499 . S
C6467 H6441 0.950 . S
C6467 C6466 1.414 . S
C6467 C6468 1.374 . S
C6468 H6442 0.950 . S
C6468 C6464 1.385 . S
C6468 C6467 1.374 . S
C6469 C6466 1.499 . S
C6469 C6470 1.373 . S
C6469 C6471 1.389 . S
C6470 H6443 0.950 . S
C6470 C6456 1.377 . S
C6470 C6469 1.373 . S
C6471 C6455 1.377 . S
C6471 C6469 1.389 . S
C6471 C6472 1.524 . S
C6472 C6471 1.524 . S
C6472 C6473 1.397 . S
C6472 C6477 1.363 . S
C6473 H6444 0.950 . S
C6473 C6472 1.397 . S
C6473 C6474 1.334 . S
C6474 H6445 0.950 . S
C6474 C6473 1.334 . S
C6474 C6475 1.287 . S
C6475 C6474 1.287 . S
C6475 C6476 1.524 . S
C6475 H6478 0.999 . S
C6476 H6446 0.950 . S
C6476 C6475 1.524 . S
C6476 C6477 1.415 . S
C6477 H6447 0.950 . S
C6477 C6472 1.363 . S
C6477 C6476 1.415 . S
H6478 C6475 0.999 . S
H6479 C6460 0.913 . S
C1699 C106 2.300 . S
C1714 C403 2.346 . S
C1749 C65 1.788 . S
C1764 C476 1.768 . S
C1799 C79 2.108 . S
C1814 C571 2.138 . S
C1864 C646 1.228 . S
C1849 C90 1.289 . S
C1899 C21 1.334 . S
C1914 C730 1.266 . S
C1964 C823 1.714 . S
C1949 C35 1.694 . S
C2014 C896 1.841 . S
C1999 C50 1.861 . S
C2049 C6 1.895 . S
C2064 C991 1.942 . S
C2114 C392 1.759 . S
C2099 C232 1.785 . S
C2149 C245 0.861 . S
C2164 C478 0.847 . S
C2214 C560 1.128 . S
C2199 C274 1.142 . S
C2264 C655 1.595 . S
C2249 C175 1.546 1_556 S
C2299 C231 1.390 . S
C2314 C739 1.417 . S
C2364 C812 1.030 . S
C2349 C246 1.040 . S
C2414 C898 0.756 . S
C2399 C273 0.757 . S
C2464 C980 1.664 . S
C2449 C176 1.688 . S
C2514 C394 0.913 . S
C2499 C160 0.917 . S
C2549 C289 1.665 . S
C2564 C1064 1.644 . S
C2614 C1150 1.322 . S
C2599 C328 1.344 . S
C2664 C1243 0.974 . S
C2649 C317 0.969 . S
C2699 C118 0.882 . S
C2714 C982 0.881 . S
C2749 C132 1.344 . S
C2764 C562 1.321 . S
C2799 C331 1.754 . S
C2814 C1316 1.731 . S
C2864 C1411 1.049 . S
C2849 C303 1.041 . S
C2914 C391 1.930 . S
C2899 C63 1.919 . S
C2964 C1412 2.241 . S
C2949 C107 2.213 . S
C2999 C92 1.961 . S
C3014 C559 2.000 . S
C3049 C78 1.939 . S
C3064 C1330 1.779 . S
C3114 C742 1.780 . S
C3099 C8 1.940 . S
C3149 C51 1.961 . S
C3164 C1147 2.000 . S
C3214 C908 2.241 . S
C3199 C37 2.213 . S
C3264 C1483 1.930 . S
C3249 C20 1.919 . S
C3314 C404 1.597 1_556 S
C3299 C147 1.600 . S
C3364 C1414 1.047 . S
C3349 C316 1.112 . S
C3399 C119 1.089 . S
C3414 C572 1.123 . S
C3449 C288 1.799 . S
C3464 C1315 1.813 . S
C3499 C148 1.799 . S
C3514 C727 1.813 . S
C3564 C1160 1.122 . S
C3549 C315 1.089 . S
C3599 C120 1.112 . S
C3614 C910 1.047 . S
C3649 C287 1.600 . S
C3664 C1496 1.597 . S
C3699 C188 0.782 . S
C3714 C406 0.775 . S
C3749 C177 2.028 . S
C3764 C1076 2.026 . S
C3799 C258 1.470 . S
C3814 C826 1.399 . S
C3849 C247 1.029 . S
C3864 C1231 1.036 . S
C3914 C1498 0.778 . S
C3899 C272 0.743 1_565 S
C3949 C216 1.216 . S
C3964 C574 1.173 . S
C4014 C656 2.026 . S
C3999 C261 2.028 . S
C4064 C475 1.036 . S
C4049 C205 1.029 . S
C4099 C76 1.894 . S
C4114 C1579 1.942 . S
C4164 C1400 1.841 . S
C4149 C93 1.861 . S
C4199 C105 1.697 1_455 S
C4214 C1663 1.715 . S
C4249 C62 1.335 1_655 S
C4264 C1318 1.267 . S
C4299 C49 1.289 . S
C4314 C1066 1.228 . S
C4364 C1159 2.138 . S
C4349 C9 2.109 1_655 S
C4414 C1232 1.768 . S
C4399 C22 1.788 . S
C4464 C1495 2.346 . S
C4449 C36 2.300 . S
C4514 C1568 1.663 . S
C4499 C260 1.687 . S
C4549 C189 0.760 1_556 S
C4564 C1402 0.757 . S
C4614 C1652 1.031 . S
C4599 C204 1.041 . S
C4664 C1327 1.417 . S
C4649 C217 1.391 . S
C4714 C1075 1.580 1_556 S
C4699 C259 1.558 . S
C4749 C190 1.142 . S
C4764 C1148 1.127 . S
C4814 C1234 0.846 . S
C4799 C203 0.861 . S
C4849 C218 1.785 . S
C4864 C1484 1.759 . S
C4914 C1570 0.881 . S
C4899 C314 0.882 . S
C4949 C135 1.754 . S
C4964 C728 1.731 . S
C5014 C814 1.281 . S
C4999 C146 1.289 . S
C5064 C907 1.049 . S
C5049 C163 1.040 . S
C5114 C1486 0.913 . S
C5099 C300 0.916 . S
C5149 C286 1.288 . S
C5164 C1654 1.281 . S
C5214 C644 1.644 . S
C5199 C149 1.665 . S
C5264 C487 0.973 . S
C5249 C121 0.968 . S
C5299 C91 1.907 . S
C5314 C1567 1.917 . S
C5364 C488 1.848 . S
C5349 C77 1.771 . S
C5399 C64 1.943 . S
C5414 C1651 1.984 . S
C5449 C104 1.549 . S
C5464 C658 1.463 . S
C5499 C34 1.550 . S
C5514 C1078 1.462 . S
C5564 C811 1.985 . S
C5549 C23 1.944 . S
C5599 C7 1.771 . S
C5614 C1244 1.848 . S
C5649 C48 1.907 . S
C5664 C979 1.917 . S
C5714 C1580 1.592 . S
C5699 C329 1.599 . S
C5749 C162 1.146 . S
C5764 C490 1.068 . S
C5814 C1664 1.129 1_655 S
C5799 C301 1.099 . S
C5849 C134 1.818 . S
C5864 C643 1.835 . S
C5899 C330 1.819 . S
C5914 C1063 1.835 . S
C5964 C824 1.129 . S
C5949 C161 1.108 . S
C5999 C302 1.146 . S
C6014 C1246 1.073 . S
C6064 C992 1.591 . S
C6049 C133 1.599 . S
C6114 C1582 0.957 . S
C6099 C244 0.998 . S
C6164 C740 1.976 1_565 S
C6149 C219 1.967 . S
C6199 C230 1.217 . S
C6214 C1162 1.174 . S
C6264 C895 1.000 . S
C6249 C191 0.993 . S
C6299 C202 0.998 . S
C6314 C994 0.958 . S
C6349 C174 1.469 . S
C6364 C1666 1.400 . S
C6414 C1328 1.976 . S
C6399 C233 1.967 . S
C6464 C1399 1.000 . S
C6449 C275 0.993 . S
