# Generated by pormake.
# Topology pyr, (3,6)-cn, num edge types: 1
# Building blocks:
#     Node 0, Type 0, BuildingBlock: OLANEW_clean_sbu_2, # of connection points: 3
#     Node 1, Type 0, BuildingBlock: OLANEW_clean_sbu_2, # of connection points: 3
#     Node 2, Type 0, BuildingBlock: OLANEW_clean_sbu_2, # of connection points: 3
#     Node 3, Type 0, BuildingBlock: OLANEW_clean_sbu_2, # of connection points: 3
#     Node 4, Type 0, BuildingBlock: OLANEW_clean_sbu_2, # of connection points: 3
#     Node 5, Type 0, BuildingBlock: OLANEW_clean_sbu_2, # of connection points: 3
#     Node 6, Type 0, BuildingBlock: OLANEW_clean_sbu_2, # of connection points: 3
#     Node 7, Type 0, BuildingBlock: OLANEW_clean_sbu_2, # of connection points: 3
#     Node 8, Type 1, BuildingBlock: BETGAK_clean_sbu_0, # of connection points: 6
#     Node 9, Type 1, BuildingBlock: BETGAK_clean_sbu_0, # of connection points: 6
#     Node 10, Type 1, BuildingBlock: BETGAK_clean_sbu_0, # of connection points: 6
#     Node 11, Type 1, BuildingBlock: BETGAK_clean_sbu_0, # of connection points: 6
#     Edge 12, Type (0, 1), BuildingBlock: KIFKEQ_clean_linker_1, # of connection points: 2
#     Edge 13, Type (0, 1), BuildingBlock: KIFKEQ_clean_linker_1, # of connection points: 2
#     Edge 14, Type (0, 1), BuildingBlock: KIFKEQ_clean_linker_1, # of connection points: 2
#     Edge 15, Type (0, 1), BuildingBlock: KIFKEQ_clean_linker_1, # of connection points: 2
#     Edge 16, Type (0, 1), BuildingBlock: KIFKEQ_clean_linker_1, # of connection points: 2
#     Edge 17, Type (0, 1), BuildingBlock: KIFKEQ_clean_linker_1, # of connection points: 2
#     Edge 18, Type (0, 1), BuildingBlock: KIFKEQ_clean_linker_1, # of connection points: 2
#     Edge 19, Type (0, 1), BuildingBlock: KIFKEQ_clean_linker_1, # of connection points: 2
#     Edge 20, Type (0, 1), BuildingBlock: KIFKEQ_clean_linker_1, # of connection points: 2
#     Edge 21, Type (0, 1), BuildingBlock: KIFKEQ_clean_linker_1, # of connection points: 2
#     Edge 22, Type (0, 1), BuildingBlock: KIFKEQ_clean_linker_1, # of connection points: 2
#     Edge 23, Type (0, 1), BuildingBlock: KIFKEQ_clean_linker_1, # of connection points: 2
#     Edge 24, Type (0, 1), BuildingBlock: KIFKEQ_clean_linker_1, # of connection points: 2
#     Edge 25, Type (0, 1), BuildingBlock: KIFKEQ_clean_linker_1, # of connection points: 2
#     Edge 26, Type (0, 1), BuildingBlock: KIFKEQ_clean_linker_1, # of connection points: 2
#     Edge 27, Type (0, 1), BuildingBlock: KIFKEQ_clean_linker_1, # of connection points: 2
#     Edge 28, Type (0, 1), BuildingBlock: KIFKEQ_clean_linker_1, # of connection points: 2
#     Edge 29, Type (0, 1), BuildingBlock: KIFKEQ_clean_linker_1, # of connection points: 2
#     Edge 30, Type (0, 1), BuildingBlock: KIFKEQ_clean_linker_1, # of connection points: 2
#     Edge 31, Type (0, 1), BuildingBlock: KIFKEQ_clean_linker_1, # of connection points: 2
#     Edge 32, Type (0, 1), BuildingBlock: KIFKEQ_clean_linker_1, # of connection points: 2
#     Edge 33, Type (0, 1), BuildingBlock: KIFKEQ_clean_linker_1, # of connection points: 2
#     Edge 34, Type (0, 1), BuildingBlock: KIFKEQ_clean_linker_1, # of connection points: 2
#     Edge 35, Type (0, 1), BuildingBlock: KIFKEQ_clean_linker_1, # of connection points: 2
# Relax obj value: 0.126
# Max RMSD: 0.169
# Mean RMSD: 0.120
data_MOF--net-pyr--node1-OLANEW_clean_sbu_2--node2-BETGAK_clean_sbu_0--edge1-KIFKEQ_clean_linker_1
_symmetry_space_group_name_H-M    P1
_symmetry_Int_Tables_number       1
_symmetry_cell_setting            triclinic
loop_
_symmetry_equiv_pos_as_xyz
'x, y, z'
_cell_length_a     41.432782
_cell_length_b     45.129094
_cell_length_c     39.694377
_cell_angle_alpha  95.184467
_cell_angle_beta   88.310371
_cell_angle_gamma 103.84484
loop_
_atom_site_label
_atom_site_type_symbol
_atom_site_fract_x
_atom_site_fract_y
_atom_site_fract_z
_atom_type_partial_charge
O0 O 0.37765 0.27597 0.14025 0.0
Cd1 Cd 0.36978 0.32865 0.14553 0.0
O2 O 0.36094 0.27307 0.19284 0.0
Cd3 Cd 0.34502 0.25078 0.23911 0.0
O4 O 0.31126 0.23211 0.27923 0.0
C5 C 0.28061 0.22999 0.27417 0.0
O6 O 0.27183 0.2388 0.24586 0.0
C7 C 0.37253 0.2611 0.1664 0.0
C8 C 0.30895 0.34027 0.12885 0.0
O9 O 0.33229 0.34093 0.10677 0.0
O10 O 0.31378 0.33272 0.15834 0.0
O11 O 0.45313 1.01381 0.66141 0.0
Cd12 Cd 0.4525 1.00387 0.60001 0.0
O13 O 0.39945 0.99688 0.65675 0.0
Cd14 Cd 0.3465 0.98553 0.66956 0.0
O15 O 0.29457 0.9822 0.65777 0.0
C16 C 0.28921 0.9859 0.62724 0.0
O17 O 0.31446 0.99064 0.60595 0.0
C18 C 0.42479 1.00649 0.67558 0.0
C19 C 0.45161 0.94215 0.58673 0.0
O20 O 0.4789 0.96273 0.58582 0.0
O21 O 0.42459 0.95086 0.59261 0.0
O22 O 0.71017 0.43236 0.88315 0.0
Cd23 Cd 0.65862 0.41732 0.84693 0.0
O24 O 0.6972 0.39203 0.91254 0.0
Cd25 Cd 0.6902 0.3532 0.94594 0.0
O26 O 0.66259 0.30832 0.96485 0.0
C27 C 0.66979 0.29643 0.99081 0.0
O28 O 0.6958 0.31103 1.0088 0.0
C29 C 0.7177 0.41714 0.90631 0.0
C30 C 0.63916 0.45312 0.79866 0.0
O31 O 0.62978 0.45494 0.82972 0.0
O32 O 0.65926 0.43592 0.79063 0.0
O33 O 0.91443 0.74913 0.38937 0.0
Cd34 Cd 0.89136 0.69535 0.36556 0.0
O35 O 0.88113 0.74111 0.43378 0.0
Cd36 Cd 0.84905 0.69568 0.42069 0.0
O37 O 0.80242 0.6665 0.43815 0.0
C38 C 0.77497 0.67139 0.42946 0.0
O39 O 0.77542 0.69203 0.40801 0.0
C40 C 0.90448 0.7585 0.41827 0.0
C41 C 0.91301 0.67046 0.30333 0.0
O42 O 0.93001 0.67318 0.33039 0.0
O43 O 0.88674 0.68086 0.30512 0.0
O44 O 0.72014 0.77339 0.80496 0.0
Cd45 Cd 0.68059 0.73618 0.83591 0.0
O46 O 0.71287 0.80965 0.8426 0.0
Cd47 Cd 0.71523 0.85463 0.86985 0.0
O48 O 0.70026 0.88948 0.90472 0.0
C49 C 0.68104 0.90474 0.89424 0.0
O50 O 0.67219 0.9002 0.86232 0.0
C51 C 0.72777 0.80145 0.81614 0.0
C52 C 0.7172 0.7059 0.87241 0.0
O53 O 0.70643 0.69503 0.84281 0.0
O54 O 0.70971 0.73055 0.88511 0.0
O55 O 0.6463 0.07333 0.51401 0.0
Cd56 Cd 0.66306 0.06452 0.56965 0.0
O57 O 0.64799 0.12123 0.53087 0.0
Cd58 Cd 0.64157 0.16751 0.52699 0.0
O59 O 0.63267 0.21313 0.52595 0.0
C60 C 0.61958 0.22013 0.50017 0.0
O61 O 0.61197 0.19966 0.47415 0.0
C62 C 0.64348 0.09959 0.50734 0.0
C63 C 0.72948 0.0618 0.56594 0.0
O64 O 0.70615 0.03756 0.56038 0.0
O65 O 0.72132 0.08722 0.57385 0.0
O66 O 0.41004 0.79376 0.25059 0.0
Cd67 Cd 0.38626 0.745 0.2793 0.0
O68 O 0.37154 0.78825 0.21105 0.0
Cd69 Cd 0.33537 0.74322 0.21337 0.0
O70 O 0.28831 0.70956 0.19738 0.0
C71 C 0.28721 0.68738 0.17474 0.0
O72 O 0.31521 0.68309 0.16115 0.0
C73 C 0.39797 0.80395 0.22582 0.0
C74 C 0.41632 0.71969 0.33065 0.0
O75 O 0.40223 0.7419 0.33799 0.0
O76 O 0.41814 0.71069 0.2992 0.0
O77 O 0.16346 0.43297 0.7875 0.0
Cd78 Cd 0.19063 0.40942 0.73927 0.0
O79 O 0.13057 0.38964 0.80208 0.0
Cd80 Cd 0.14204 0.35614 0.76217 0.0
O81 O 0.13623 0.31138 0.7321 0.0
C82 C 0.11077 0.30133 0.71347 0.0
O83 O 0.08945 0.31852 0.71174 0.0
C84 C 0.14131 0.41862 0.80708 0.0
C85 C 0.24669 0.44643 0.70867 0.0
O86 O 0.21716 0.44459 0.6984 0.0
O87 O 0.24976 0.43164 0.73403 0.0
La88 La 0.02112 0.03966 0.53323 0.0
La89 La 0.01293 1.01802 0.60084 0.0
C90 C 0.02287 0.0682 0.48116 0.0
C91 C 0.04876 0.09123 0.46578 0.0
C92 C 0.08066 0.10031 0.47982 0.0
C93 C 0.10637 0.1195 0.46302 0.0
C94 C 0.10053 0.12998 0.43198 0.0
C95 C 0.06816 0.12173 0.41872 0.0
C96 C 0.04249 0.10241 0.43548 0.0
C97 C 0.07117 1.01813 0.55279 0.0
C98 C 0.04636 0.08648 0.59724 0.0
C99 C 0.00864 0.98929 0.65309 0.0
C100 C 0.97987 0.96916 0.66845 0.0
C101 C 0.94767 0.96844 0.65787 0.0
C102 C 0.92001 0.95075 0.67354 0.0
C103 C 0.92397 0.93309 0.6999 0.0
C104 C 0.95643 0.93345 0.70997 0.0
C105 C 0.98414 0.95144 0.69441 0.0
C106 C 0.96316 0.04018 0.5822 0.0
C107 C 0.98939 0.97139 0.53586 0.0
O108 O 0.0294 0.0413 0.48107 0.0
O109 O 0.01113 0.07678 0.5104 0.0
O110 O 0.06167 1.01637 0.52189 0.0
O111 O 0.05527 0.03407 0.57064 0.0
O112 O 0.03402 0.0826 0.56635 0.0
O113 O 0.04692 0.06241 0.61373 0.0
O114 O 1.007 1.01782 0.65342 0.0
O115 O 0.01839 0.97911 0.62361 0.0
O116 O 0.97384 0.04223 0.61262 0.0
O117 O 0.9782 0.02369 0.56373 0.0
O118 O 1.00162 0.97518 0.56686 0.0
O119 O 0.98803 0.99541 0.51988 0.0
H120 H 0.08585 0.09181 0.50326 0.0
H121 H 0.13094 0.12575 0.47402 0.0
H122 H 0.06298 0.12918 0.3947 0.0
H123 H 0.01802 0.09544 0.42427 0.0
H124 H 0.9439 0.98203 0.63783 0.0
H125 H 0.89551 0.95147 0.66542 0.0
H126 H 0.96046 0.91976 0.72976 0.0
H127 H 0.00886 0.95167 0.70279 0.0
La128 La 0.54603 0.06526 0.1224 0.0
La129 La 0.48689 0.04027 0.07448 0.0
C130 C 0.59487 0.09952 0.15333 0.0
C131 C 0.60226 0.1076 0.18951 0.0
C132 C 0.63326 0.10634 0.20173 0.0
C133 C 0.63929 0.11004 0.23647 0.0
C134 C 0.61444 0.11526 0.25956 0.0
C135 C 0.5839 0.11784 0.2472 0.0
C136 C 0.57775 0.11382 0.21247 0.0
C137 C 0.50636 1.01501 0.14618 0.0
C138 C 0.47699 0.08257 0.13655 0.0
C139 C 0.44105 1.00941 0.03643 0.0
C140 C 0.43801 1.00664 0.9995 0.0
C141 C 0.46354 0.0233 0.97989 0.0
C142 C 0.45981 1.02295 0.94503 0.0
C143 C 0.4305 1.00587 0.92913 0.0
C144 C 0.40531 0.98852 0.94877 0.0
C145 C 0.409 0.98903 0.98379 0.0
C146 C 0.52492 0.09513 0.06262 0.0
C147 C 0.55551 1.02175 0.05741 0.0
O148 O 0.59347 0.07087 0.14276 0.0
O149 O 0.57068 0.10954 0.14127 0.0
O150 O 0.53304 0.03147 0.16068 0.0
O151 O 0.50282 0.02808 0.12029 0.0
O152 O 0.50976 0.09212 0.13808 0.0
O153 O 0.46272 0.05672 0.11899 0.0
O154 O 0.44135 0.03665 0.05092 0.0
O155 O 0.46429 0.99812 0.04827 0.0
O156 O 0.49364 0.0859 0.05575 0.0
O157 O 0.53423 0.07277 0.07233 0.0
O158 O 0.52349 1.01732 0.05077 0.0
O159 O 0.57017 0.04132 0.08248 0.0
H160 H 0.65243 0.10146 0.18444 0.0
H161 H 0.66313 0.10816 0.24536 0.0
H162 H 0.5642 0.1215 0.26445 0.0
H163 H 0.55345 0.11456 0.20373 0.0
H164 H 0.48612 0.03704 0.99169 0.0
H165 H 0.47986 0.03614 0.93052 0.0
H166 H 0.38241 0.97527 0.93721 0.0
H167 H 0.38901 0.97618 0.99865 0.0
La168 La 0.50882 0.54782 0.54171 0.0
La169 La 0.50462 0.599 0.59286 0.0
C170 C 0.52828 0.50858 0.50205 0.0
C171 C 0.53793 0.47938 0.50316 0.0
C172 C 0.52943 0.45692 0.47608 0.0
C173 C 0.53866 0.42912 0.47609 0.0
C174 C 0.55656 0.42323 0.50329 0.0
C175 C 0.56502 0.44585 0.53048 0.0
C176 C 0.5558 0.47371 0.53038 0.0
C177 C 0.45119 0.54105 0.57444 0.0
C178 C 0.53364 0.54734 0.61814 0.0
C179 C 0.48365 0.63911 0.62912 0.0
C180 C 0.47873 0.66905 0.62179 0.0
C181 C 0.49904 0.68601 0.59786 0.0
C182 C 0.49448 0.71449 0.59095 0.0
C183 C 0.46917 0.72625 0.6074 0.0
C184 C 0.44826 0.70887 0.63066 0.0
C185 C 0.45313 0.68049 0.63791 0.0
C186 C 0.56217 0.60536 0.56078 0.0
C187 C 0.48355 0.60195 0.51566 0.0
O188 O 0.49698 0.50804 0.50818 0.0
O189 O 0.54819 0.53304 0.51673 0.0
O190 O 0.45453 0.53177 0.54298 0.0
O191 O 0.47962 0.55187 0.58679 0.0
O192 O 0.53456 0.53689 0.58574 0.0
O193 O 0.51833 0.56938 0.62763 0.0
O194 O 0.51457 0.63679 0.62893 0.0
O195 O 0.464 0.61531 0.61297 0.0
O196 O 0.55894 0.61597 0.59179 0.0
O197 O 0.53382 0.59462 0.54845 0.0
O198 O 0.4817 0.61188 0.54805 0.0
O199 O 0.49723 0.57868 0.50676 0.0
H200 H 0.51581 0.46097 0.45475 0.0
H201 H 0.5322 0.41242 0.45452 0.0
H202 H 0.57847 0.44194 0.55198 0.0
H203 H 0.56276 0.49082 0.55145 0.0
H204 H 0.51855 0.67731 0.5846 0.0
H205 H 0.51064 0.72728 0.57261 0.0
H206 H 0.42866 0.71755 0.64375 0.0
H207 H 0.437 0.66753 0.65616 0.0
La208 La 1.0069 0.50876 0.05911 0.0
La209 La 1.00312 0.56767 0.03286 0.0
C210 C 0.02445 0.46102 0.07163 0.0
C211 C 0.05514 0.45112 0.07788 0.0
C212 C 0.05649 0.43489 0.10613 0.0
C213 C 0.08424 0.42343 0.11158 0.0
C214 C 0.11121 0.42776 0.08871 0.0
C215 C 0.11005 0.44442 0.06064 0.0
C216 C 0.08235 0.4561 0.05533 0.0
C217 C 0.97641 0.54362 0.09951 0.0
C218 C 0.06734 0.56853 0.07138 0.0
C219 C 0.9849 0.61488 0.02033 0.0
C220 C 0.95523 0.62085 1.00555 0.0
C221 C 0.93676 0.60018 0.98061 0.0
C222 C 0.90822 0.60603 0.96739 0.0
C223 C 0.89759 0.63251 0.97909 0.0
C224 C 0.91604 0.65297 1.00428 0.0
C225 C 0.94464 0.64719 1.01735 0.0
C226 C 0.03628 0.53474 0.99376 0.0
C227 C 0.94157 0.50841 0.02141 0.0
O228 O 0.01532 0.4798 0.09497 0.0
O229 O 0.02029 0.46822 0.0411 0.0
O230 O 0.96763 0.5139 0.09635 0.0
O231 O 1.00198 0.55217 0.08177 0.0
O232 O 0.05794 0.53807 0.06771 0.0
O233 O 0.04729 0.58544 0.06311 0.0
O234 O 1.00358 0.60157 0.99991 0.0
O235 O 0.98025 0.6032 0.04958 0.0
O236 O 0.04385 0.56444 0.99757 0.0
O237 O 0.00977 0.52469 1.0099 0.0
O238 O 0.95312 0.53849 0.02135 0.0
O239 O 0.95962 0.49102 0.03297 0.0
H240 H 0.03574 0.43061 0.12374 0.0
H241 H 0.08418 0.41045 0.13324 0.0
H242 H 0.13059 0.44848 0.0428 0.0
H243 H 0.0821 0.46864 0.03336 0.0
H244 H 0.9443 0.57949 0.97145 0.0
H245 H 0.89429 0.5897 0.94826 0.0
H246 H 0.90866 0.67373 1.0135 0.0
H247 H 0.95852 0.66329 0.0367 0.0
H248 H 0.2133 0.21877 0.26825 0.0
H249 H 0.2901 0.21307 0.33703 0.0
H250 H 0.171 0.19686 0.3086 0.0
H251 H 0.24763 0.19186 0.37795 0.0
H252 H 0.16204 0.11898 0.42077 0.0
H253 H 0.2063 0.14514 0.38466 0.0
H254 H 0.14636 0.20721 0.36258 0.0
H255 H 0.10184 0.18064 0.39841 0.0
C256 C 0.22118 0.21309 0.29213 0.0
C257 C 0.25508 0.21753 0.29936 0.0
C258 C 0.19688 0.20074 0.31541 0.0
C259 C 0.20588 0.19265 0.34658 0.0
C260 C 0.23983 0.19748 0.354 0.0
C261 C 0.26418 0.20975 0.33062 0.0
C262 C 0.15854 0.13854 0.40865 0.0
C263 C 0.12842 0.14771 0.41234 0.0
C264 C 0.18393 0.15357 0.38796 0.0
C265 C 0.17985 0.1782 0.37057 0.0
C266 C 0.15008 0.18796 0.37511 0.0
C267 C 0.12461 0.17282 0.39568 0.0
H268 H 0.37572 0.97429 0.71529 0.0
H269 H 0.46892 0.04235 0.72041 0.0
H270 H 0.37382 0.97571 0.7768 0.0
H271 H 0.46792 0.04271 0.78175 0.0
H272 H 0.44466 0.05598 0.89288 0.0
H273 H 0.44013 0.05758 0.83205 0.0
H274 H 0.4024 0.95929 0.82118 0.0
H275 H 0.40649 0.95785 0.88223 0.0
C276 C 0.3954 0.99008 0.7295 0.0
C277 C 0.4221 1.00871 0.71293 0.0
C278 C 0.39466 0.99045 0.7648 0.0
C279 C 0.4207 1.00933 0.78428 0.0
C280 C 0.44715 0.02825 0.76764 0.0
C281 C 0.44785 0.0279 0.73242 0.0
C282 C 0.43544 0.03472 0.87746 0.0
C283 C 0.42621 1.00675 0.89227 0.0
C284 C 0.43285 0.03562 0.8426 0.0
C285 C 0.42112 1.00855 0.82165 0.0
C286 C 0.41114 0.98063 0.83659 0.0
C287 C 0.41357 0.97976 0.87155 0.0
H288 H 0.59093 0.48576 0.80661 0.0
H289 H 0.65592 0.45562 0.73115 0.0
H290 H 0.56572 0.50792 0.76351 0.0
H291 H 0.63151 0.47868 0.68807 0.0
H292 H 0.5581 0.49531 0.61175 0.0
H293 H 0.58398 0.47362 0.65482 0.0
H294 H 0.57185 0.54737 0.72764 0.0
H295 H 0.54519 0.56844 0.68479 0.0
C296 C 0.60022 0.48421 0.78088 0.0
C297 C 0.62559 0.46884 0.77255 0.0
C298 C 0.58578 0.49711 0.756 0.0
C299 C 0.59631 0.49524 0.7219 0.0
C300 C 0.62212 0.48026 0.71375 0.0
C301 C 0.63645 0.46722 0.73863 0.0
C302 C 0.56098 0.50696 0.6369 0.0
C303 C 0.54941 0.53371 0.64454 0.0
C304 C 0.57608 0.49456 0.66175 0.0
C305 C 0.58029 0.50858 0.6951 0.0
C306 C 0.56872 0.53542 0.70262 0.0
C307 C 0.55347 0.54769 0.67784 0.0
H308 H 0.97333 0.65816 0.28622 0.0
H309 H 0.87369 0.64524 0.24881 0.0
H310 H 0.98764 0.62859 0.23561 0.0
H311 H 0.8879 0.61512 0.19851 0.0
H312 H 0.92035 0.53043 0.13921 0.0
H313 H 0.90446 0.5626 0.18708 0.0
H314 H 0.99269 0.63336 0.17093 0.0
H315 H 0.00817 0.60163 0.12286 0.0
C316 C 0.95452 0.64916 0.26714 0.0
C317 C 0.92239 0.65418 0.27157 0.0
C318 C 0.96275 0.63226 0.23811 0.0
C319 C 0.93886 0.61942 0.2131 0.0
C320 C 0.90677 0.62454 0.21743 0.0
C321 C 0.89873 0.64198 0.24614 0.0
C322 C 0.93614 0.55296 0.14575 0.0
C323 C 0.96551 0.56344 0.12731 0.0
C324 C 0.92702 0.57141 0.17306 0.0
C325 C 0.94742 0.60047 0.1829 0.0
C326 C 0.9766 0.611 0.16418 0.0
C327 C 0.98537 0.59285 0.13654 0.0
H328 H 0.37129 0.21837 0.11293 0.0
H329 H 0.39586 0.23708 0.21884 0.0
H330 H 0.39213 0.17192 0.11089 0.0
H331 H 0.41623 0.19045 0.21698 0.0
H332 H 0.49568 0.13521 0.17846 0.0
H333 H 0.46577 0.1756 0.18924 0.0
H334 H 0.38217 0.11985 0.13268 0.0
H335 H 0.41201 0.07938 0.12183 0.0
C336 C 0.3805 0.21222 0.13593 0.0
C337 C 0.38139 0.23113 0.16616 0.0
C338 C 0.39227 0.18553 0.13483 0.0
C339 C 0.40573 0.17743 0.16383 0.0
C340 C 0.40601 0.19606 0.19423 0.0
C341 C 0.39388 0.22255 0.19541 0.0
C342 C 0.47063 0.13124 0.16897 0.0
C343 C 0.45638 0.10409 0.14911 0.0
C344 C 0.45344 0.15439 0.17522 0.0
C345 C 0.42173 0.15106 0.16149 0.0
C346 C 0.40674 0.12324 0.14323 0.0
C347 C 0.42377 0.09994 0.13729 0.0
H348 H 0.2309 0.97499 0.66364 0.0
H349 H 0.27165 0.99847 0.56542 0.0
H350 H 0.17631 0.97871 0.64554 0.0
H351 H 0.21757 1.00307 0.54774 0.0
H352 H 0.11111 0.98755 0.51536 0.0
H353 H 0.16208 0.97557 0.53345 0.0
H354 H 0.14946 1.01807 0.63348 0.0
H355 H 0.09811 0.02903 0.61559 0.0
C356 C 0.22821 0.9809 0.6382 0.0
C357 C 0.25566 0.98658 0.61604 0.0
C358 C 0.19697 0.98318 0.62786 0.0
C359 C 0.19254 0.99131 0.59521 0.0
C360 C 0.2199 0.99633 0.57288 0.0
C361 C 0.25104 0.99391 0.58314 0.0
C362 C 0.11919 0.99407 0.54126 0.0
C363 C 0.10094 1.00944 0.564 0.0
C364 C 0.14844 0.98737 0.5516 0.0
C365 C 0.16004 0.99604 0.58488 0.0
C366 C 0.14112 1.01071 0.60781 0.0
C367 C 0.11183 1.01725 0.59749 0.0
H368 H 0.76574 0.46845 0.89524 0.0
H369 H 0.7436 0.39347 0.95904 0.0
H370 H 0.8183 0.48902 0.92365 0.0
H371 H 0.79648 0.41465 0.98836 0.0
H372 H 0.89558 0.53729 1.00013 0.0
H373 H 0.8417 0.51474 0.97472 0.0
H374 H 0.85647 0.42423 0.98353 0.0
H375 H 0.91046 0.44698 1.00982 0.0
C376 C 0.7719 0.45633 0.91554 0.0
C377 C 0.75 0.42918 0.92473 0.0
C378 C 0.80221 0.46837 0.93214 0.0
C379 C 0.8119 0.45385 0.95875 0.0
C380 C 0.79018 0.42649 0.96788 0.0
C381 C 0.75965 0.41435 0.95114 0.0
C382 C 0.88748 0.51256 0.99677 0.0
C383 C 0.90779 0.49408 1.00695 0.0
C384 C 0.85642 0.49952 0.98192 0.0
C385 C 0.84448 0.46748 0.97652 0.0
C386 C 0.86447 0.44894 0.98739 0.0
C387 C 0.89564 0.46204 1.00237 0.0
H388 H 0.71204 0.67391 0.4136 0.0
H389 H 0.76638 0.63657 0.48365 0.0
H390 H 0.66071 0.65492 0.44465 0.0
H391 H 0.71485 0.61739 0.51461 0.0
H392 H 0.62505 0.6289 0.5842 0.0
H393 H 0.67645 0.6413 0.55101 0.0
H394 H 0.621 0.60739 0.45935 0.0
H395 H 0.56964 0.59523 0.49257 0.0
C396 C 0.71299 0.66132 0.43537 0.0
C397 C 0.74337 0.6569 0.44621 0.0
C398 C 0.68351 0.6503 0.45309 0.0
C399 C 0.68373 0.63478 0.48221 0.0
C400 C 0.71395 0.62959 0.49251 0.0
C401 C 0.74342 0.6404 0.47461 0.0
C402 C 0.62394 0.62395 0.55699 0.0
C403 C 0.59341 0.61127 0.54093 0.0
C404 C 0.65337 0.63084 0.53799 0.0
C405 C 0.65279 0.62538 0.50252 0.0
C406 C 0.62223 0.61216 0.48658 0.0
C407 C 0.59286 0.60507 0.5056 0.0
H408 H 0.25331 0.33757 0.16851 0.0
H409 H 0.29546 0.36542 0.07225 0.0
H410 H 0.20497 0.35726 0.15803 0.0
H411 H 0.24771 0.38602 0.06221 0.0
H412 H 0.14375 0.39734 0.04139 0.0
H413 H 0.18992 0.37406 0.05008 0.0
H414 H 0.19031 0.40495 0.15639 0.0
H415 H 0.14377 0.42764 0.1477 0.0
C416 C 0.25222 0.34781 0.14505 0.0
C417 C 0.2783 0.34994 0.12125 0.0
C418 C 0.2246 0.35937 0.13914 0.0
C419 C 0.22245 0.37356 0.10939 0.0
C420 C 0.24823 0.37498 0.08524 0.0
C421 C 0.27574 0.36324 0.09105 0.0
C422 C 0.15388 0.39933 0.06656 0.0
C423 C 0.14006 0.41435 0.09385 0.0
C424 C 0.18039 0.38597 0.07157 0.0
C425 C 0.19391 0.38746 0.10398 0.0
C426 C 0.18018 0.40273 0.1312 0.0
C427 C 0.15355 0.41589 0.12622 0.0
H428 H 0.67853 0.26531 0.04488 0.0
H429 H 0.6137 0.25953 0.96015 0.0
H430 H 0.64433 0.21728 0.0625 0.0
H431 H 0.57982 0.2111 0.97737 0.0
H432 H 0.50606 0.14213 0.03664 0.0
H433 H 0.54092 0.19009 1.01954 0.0
H434 H 0.62831 0.16282 0.04926 0.0
H435 H 0.59304 0.11491 0.06701 0.0
C436 C 0.65707 0.25376 0.02984 0.0
C437 C 0.64897 0.26656 1.00106 0.0
C438 C 0.63748 0.22596 0.03988 0.0
C439 C 0.60908 0.21002 0.02152 0.0
C440 C 0.60112 0.22277 0.99258 0.0
C441 C 0.62074 0.25057 0.98251 0.0
C442 C 0.53273 0.14638 0.03959 0.0
C443 C 0.54674 0.12462 0.05314 0.0
C444 C 0.55283 0.17387 0.0295 0.0
C445 C 0.58767 0.18055 0.03267 0.0
C446 C 0.60165 0.15881 0.04664 0.0
C447 C 0.58145 0.13121 0.05672 0.0
H448 H 0.89449 0.78024 0.48299 0.0
H449 H 0.94784 0.80755 0.39134 0.0
H450 H 0.91593 0.83104 0.51053 0.0
H451 H 0.9698 0.85893 0.41944 0.0
H452 H 0.96794 0.95572 0.47057 0.0
H453 H 0.94983 0.90457 0.44165 0.0
H454 H 0.96708 0.86492 0.53248 0.0
H455 H 0.98486 0.91607 0.56158 0.0
C456 C 0.91099 0.79705 0.46865 0.0
C457 C 0.91932 0.78965 0.43477 0.0
C458 C 0.9235 0.82625 0.48466 0.0
C459 C 0.9447 0.84916 0.46734 0.0
C460 C 0.9533 0.84188 0.43347 0.0
C461 C 0.94089 0.81239 0.41741 0.0
C462 C 0.96779 0.93612 0.48447 0.0
C463 C 0.97766 0.94009 0.51856 0.0
C464 C 0.9577 0.90675 0.46771 0.0
C465 C 0.957 0.88055 0.48464 0.0
C466 C 0.96696 0.88455 0.51872 0.0
C467 C 0.97723 0.91392 0.53543 0.0
H468 H 0.50028 0.91561 0.5598 0.0
H469 H 0.40335 0.8947 0.60738 0.0
H470 H 0.503 0.86235 0.56038 0.0
H471 H 0.40668 0.84184 0.60969 0.0
H472 H 0.41251 0.74282 0.59174 0.0
H473 H 0.40671 0.79387 0.58142 0.0
H474 H 0.51174 0.83004 0.60016 0.0
H475 H 0.51746 0.77893 0.60889 0.0
C476 C 0.47951 0.89957 0.57029 0.0
C477 C 0.4517 0.90932 0.5837 0.0
C478 C 0.48115 0.86907 0.57091 0.0
C479 C 0.45529 0.84776 0.58558 0.0
C480 C 0.42692 0.8574 0.59785 0.0
C481 C 0.42505 0.88779 0.59668 0.0
C482 C 0.43426 0.76179 0.5935 0.0
C483 C 0.46542 0.75703 0.60102 0.0
C484 C 0.43099 0.79105 0.5877 0.0
C485 C 0.45877 0.81621 0.58984 0.0
C486 C 0.48991 0.81122 0.59744 0.0
C487 C 0.49322 0.78196 0.6027 0.0
H488 H 0.7657 0.85772 0.84086 0.0
H489 H 0.75074 0.79347 0.75201 0.0
H490 H 0.81118 0.89107 0.81235 0.0
H491 H 0.7974 0.82574 0.7243 0.0
H492 H 0.8651 0.90095 0.67118 0.0
H493 H 0.81608 0.87224 0.69907 0.0
H494 H 0.86707 0.89308 0.79486 0.0
H495 H 0.91539 0.92357 0.76729 0.0
C496 C 0.77157 0.85095 0.81507 0.0
C497 C 0.75403 0.82316 0.79857 0.0
C498 C 0.79819 0.86981 0.7989 0.0
C499 C 0.80811 0.86114 0.76598 0.0
C500 C 0.79023 0.8335 0.7494 0.0
C501 C 0.76354 0.81483 0.76544 0.0
C502 C 0.86575 0.89985 0.69828 0.0
C503 C 0.89431 0.91468 0.71693 0.0
C504 C 0.83771 0.883 0.71425 0.0
C505 C 0.83754 0.88021 0.74926 0.0
C506 C 0.86608 0.89504 0.76794 0.0
C507 C 0.89406 0.91213 0.752 0.0
H508 H 0.60945 0.05696 0.46057 0.0
H509 H 0.66194 0.15216 0.47431 0.0
H510 H 0.60178 0.06237 0.40096 0.0
H511 H 0.65314 0.15779 0.41491 0.0
H512 H 0.60081 0.15592 0.31038 0.0
H513 H 0.6059 0.15374 0.37152 0.0
H514 H 0.64349 0.07239 0.35245 0.0
H515 H 0.63837 0.07448 0.29172 0.0
C516 C 0.61881 0.07919 0.45103 0.0
C517 C 0.63572 0.10428 0.47239 0.0
C518 C 0.6145 0.08224 0.41692 0.0
C519 C 0.62694 0.11047 0.40339 0.0
C520 C 0.64292 0.13587 0.42487 0.0
C521 C 0.64757 0.13273 0.45902 0.0
C522 C 0.61026 0.13768 0.31938 0.0
C523 C 0.6193 0.11542 0.29639 0.0
C524 C 0.61328 0.13652 0.35424 0.0
C525 C 0.62481 0.11276 0.3666 0.0
C526 C 0.63416 0.09074 0.34357 0.0
C527 C 0.63157 0.09213 0.30884 0.0
H528 H 0.42656 0.73864 0.39834 0.0
H529 H 0.43217 0.66382 0.32454 0.0
H530 H 0.44346 0.71134 0.44247 0.0
H531 H 0.44713 0.63566 0.3686 0.0
H532 H 0.49956 0.59912 0.44807 0.0
H533 H 0.48563 0.62836 0.40456 0.0
H534 H 0.42969 0.67284 0.47814 0.0
H535 H 0.44544 0.64464 0.52205 0.0
C536 C 0.43133 0.71629 0.3915 0.0
C537 C 0.42817 0.70365 0.35766 0.0
C538 C 0.44074 0.70032 0.41701 0.0
C539 C 0.44678 0.67087 0.40971 0.0
C540 C 0.44357 0.65838 0.37569 0.0
C541 C 0.43473 0.67457 0.35016 0.0
C542 C 0.48419 0.61508 0.45502 0.0
C543 C 0.47354 0.61925 0.48874 0.0
C544 C 0.47592 0.63189 0.42981 0.0
C545 C 0.45615 0.65322 0.43718 0.0
C546 C 0.44537 0.65723 0.47105 0.0
C547 C 0.45415 0.64073 0.49642 0.0
H548 H 0.10458 0.39499 0.86114 0.0
H549 H 0.146 0.4805 0.81793 0.0
H550 H 0.08079 0.42209 0.90751 0.0
H551 H 0.12094 0.50758 0.86343 0.0
H552 H 0.09648 0.55332 0.96356 0.0
H553 H 0.12303 0.52515 0.92039 0.0
H554 H 0.03884 0.44728 0.92289 0.0
H555 H 0.01316 0.47528 0.96735 0.0
C556 C 0.10847 0.41961 0.86141 0.0
C557 C 0.1273 0.43552 0.83571 0.0
C558 C 0.09455 0.43521 0.88799 0.0
C559 C 0.09866 0.4672 0.88951 0.0
C560 C 0.1176 0.48308 0.86374 0.0
C561 C 0.13189 0.4675 0.83738 0.0
C562 C 0.08378 0.53008 0.95501 0.0
C563 C 0.0527 0.51655 0.96876 0.0
C564 C 0.09888 0.51394 0.92995 0.0
C565 C 0.08311 0.48387 0.91755 0.0
C566 C 0.05212 0.47018 0.93189 0.0
C567 C 0.03722 0.48626 0.95732 0.0
H568 H 0.69007 0.91601 0.96283 0.0
H569 H 0.63843 0.93951 0.87988 0.0
H570 H 0.66145 0.94571 1.00261 0.0
H571 H 0.61035 0.96952 0.91952 0.0
H572 H 0.5345 0.98324 1.0012 0.0
H573 H 0.56709 0.95728 0.96236 0.0
H574 H 0.65511 0.99784 0.02127 0.0
H575 H 0.62225 0.02374 0.06081 0.0
C576 C 0.67295 0.92781 0.95302 0.0
C577 C 0.66631 0.92513 0.91818 0.0
C578 C 0.65666 0.94495 0.97583 0.0
C579 C 0.63335 0.95972 0.96427 0.0
C580 C 0.62769 0.95794 0.92931 0.0
C581 C 0.64395 0.94086 0.90655 0.0
C582 C 0.56079 0.98671 1.00606 0.0
C583 C 0.57572 1.00567 0.03421 0.0
C584 C 0.57955 0.97195 0.98354 0.0
C585 C 0.61377 0.97569 0.98852 0.0
C586 C 0.62876 0.99438 1.01684 0.0
C587 C 0.60994 1.00929 0.03941 0.0
H588 H 0.78423 0.10893 0.57767 0.0
H589 H 0.75465 1.01172 0.54847 0.0
H590 H 0.84237 0.10634 0.57616 0.0
H591 H 0.81282 1.00912 0.54743 0.0
H592 H 0.92352 1.01865 0.52687 0.0
H593 H 0.86756 0.02595 0.51835 0.0
H594 H 0.87546 0.08369 0.61217 0.0
H595 H 0.93097 0.07659 0.62038 0.0
C596 C 0.79013 0.08703 0.57081 0.0
C597 C 0.76481 0.06047 0.56354 0.0
C598 C 0.82343 0.08556 0.56998 0.0
C599 C 0.83215 0.05751 0.56179 0.0
C600 C 0.80691 0.03112 0.55346 0.0
C601 C 0.77357 0.03258 0.55437 0.0
C602 C 0.91334 0.03324 0.5453 0.0
C603 C 0.93131 0.04691 0.57438 0.0
C604 C 0.88134 0.03727 0.54057 0.0
C605 C 0.8671 0.05531 0.56466 0.0
C606 C 0.88583 0.06994 0.59296 0.0
C607 C 0.91754 0.06572 0.59779 0.0
H608 H 0.27657 0.63691 0.12876 0.0
H609 H 0.22415 0.69347 0.19167 0.0
H610 H 0.2239 0.60703 0.10493 0.0
H611 H 0.17146 0.66335 0.16809 0.0
H612 H 0.09056 0.62984 0.08815 0.0
H613 H 0.14284 0.65655 0.11439 0.0
H614 H 0.17098 0.57065 0.11692 0.0
H615 H 0.11827 0.54361 0.09012 0.0
C616 C 0.25381 0.64285 0.13777 0.0
C617 C 0.25476 0.66781 0.16207 0.0
C618 C 0.22352 0.62554 0.12419 0.0
C619 C 0.19331 0.63281 0.13434 0.0
C620 C 0.19422 0.65733 0.15924 0.0
C621 C 0.22449 0.67453 0.17295 0.0
C622 C 0.10778 0.61646 0.09417 0.0
C623 C 0.10001 0.58443 0.08689 0.0
C624 C 0.13779 0.63188 0.10957 0.0
C625 C 0.16118 0.61584 0.11811 0.0
C626 C 0.15366 0.5838 0.11055 0.0
C627 C 0.12338 0.56826 0.09527 0.0
H628 H 0.31243 0.45439 0.72424 0.0
H629 H 0.24832 0.47778 0.65235 0.0
H630 H 0.36106 0.47972 0.69261 0.0
H631 H 0.29698 0.50356 0.621 0.0
H632 H 0.38977 0.51036 0.55159 0.0
H633 H 0.34031 0.49003 0.58499 0.0
H634 H 0.39362 0.5288 0.67669 0.0
H635 H 0.44328 0.54873 0.64312 0.0
C636 C 0.30868 0.46523 0.70189 0.0
C637 C 0.27637 0.4639 0.69082 0.0
C638 C 0.33663 0.47993 0.68381 0.0
C639 C 0.33307 0.49366 0.65409 0.0
C640 C 0.30074 0.49289 0.64346 0.0
C641 C 0.27278 0.47825 0.6616 0.0
C642 C 0.39082 0.51474 0.57887 0.0
C643 C 0.42046 0.53101 0.59472 0.0
C644 C 0.3624 0.50322 0.59806 0.0
C645 C 0.36288 0.50762 0.63364 0.0
C646 C 0.39241 0.52456 0.64941 0.0
C647 C 0.42083 0.53617 0.63018 0.0
H648 H 0.75001 0.72751 0.93153 0.0
H649 H 0.73478 0.65196 0.85405 0.0
H650 H 0.79097 0.70686 0.95819 0.0
H651 H 0.77509 0.63071 0.88136 0.0
H652 H 0.88085 0.62809 0.91253 0.0
H653 H 0.8342 0.64282 0.88838 0.0
H654 H 0.80013 0.6665 0.98895 0.0
H655 H 0.84726 0.6523 1.01298 0.0
C656 C 0.75498 0.70619 0.92051 0.0
C657 C 0.7393 0.69149 0.89054 0.0
C658 C 0.77837 0.69423 0.93592 0.0
C659 C 0.78649 0.66717 0.92185 0.0
C660 C 0.76986 0.65187 0.89254 0.0
C661 C 0.74659 0.66394 0.87701 0.0
C662 C 0.86312 0.63605 0.92946 0.0
C663 C 0.86781 0.63925 0.96462 0.0
C664 C 0.8363 0.64442 0.91565 0.0
C665 C 0.81344 0.65598 0.93671 0.0
C666 C 0.8176 0.65823 0.97197 0.0
C667 C 0.84455 0.65006 0.98575 0.0
H668 H 0.37288 0.83586 0.18149 0.0
H669 H 0.45915 0.8426 0.24264 0.0
H670 H 0.39707 0.88611 0.16246 0.0
H671 H 0.4842 0.89258 0.22248 0.0
H672 H 0.50949 0.99367 0.20716 0.0
H673 H 0.48344 0.94378 0.22606 0.0
H674 H 0.436 0.91679 0.12886 0.0
H675 H 0.46134 0.96778 0.1106 0.0
C676 C 0.39725 0.84791 0.19073 0.0
C677 C 0.4139 0.83487 0.21384 0.0
C678 C 0.41134 0.87691 0.1795 0.0
C679 C 0.44282 0.89401 0.1907 0.0
C680 C 0.45966 0.88076 0.21358 0.0
C681 C 0.44537 0.8518 0.22509 0.0
C682 C 0.49322 0.97719 0.18986 0.0
C683 C 0.48747 0.98487 0.15735 0.0
C684 C 0.47849 0.94822 0.20062 0.0
C685 C 0.45771 0.92552 0.17908 0.0
C686 C 0.45148 0.93345 0.14656 0.0
C687 C 0.46604 0.96277 0.13591 0.0
H688 H 0.06069 0.27544 0.66914 0.0
H689 H 0.14542 0.2566 0.71633 0.0
H690 H 0.04775 0.22401 0.64075 0.0
H691 H 0.13262 0.20495 0.68738 0.0
H692 H 0.07255 0.10412 0.6608 0.0
H693 H 0.09035 0.15616 0.68789 0.0
H694 H 0.06821 0.19238 0.59653 0.0
H695 H 0.05005 0.14058 0.56968 0.0
C696 C 0.07675 0.26041 0.6733 0.0
C697 C 0.10412 0.27026 0.69508 0.0
C698 C 0.06942 0.23089 0.6568 0.0
C699 C 0.08917 0.21026 0.66164 0.0
C700 C 0.11669 0.22012 0.68329 0.0
C701 C 0.12416 0.24981 0.69972 0.0
C702 C 0.07171 0.1232 0.64641 0.0
C703 C 0.05963 0.11807 0.61311 0.0
C704 C 0.08208 0.15307 0.66191 0.0
C705 C 0.0805 0.17853 0.64452 0.0
C706 C 0.06925 0.17335 0.61091 0.0
C707 C 0.05898 0.14356 0.59543 0.0
H708 H 0.58883 0.24125 0.45059 0.0
H709 H 0.63295 0.26779 0.5494 0.0
H710 H 0.57462 0.29069 0.45112 0.0
H711 H 0.61828 0.31704 0.55007 0.0
H712 H 0.61574 0.41354 0.52316 0.0
H713 H 0.63203 0.36493 0.52196 0.0
H714 H 0.53603 0.31744 0.48158 0.0
H715 H 0.51966 0.36591 0.48297 0.0
C716 C 0.59553 0.25762 0.47241 0.0
C717 C 0.61192 0.25052 0.5 0.0
C718 C 0.5872 0.28588 0.47279 0.0
C719 C 0.59518 0.30772 0.50071 0.0
C720 C 0.61206 0.30082 0.52805 0.0
C721 C 0.6203 0.27252 0.52773 0.0
C722 C 0.59799 0.39269 0.51435 0.0
C723 C 0.56641 0.39363 0.5031 0.0
C724 C 0.60735 0.36485 0.51361 0.0
C725 C 0.58537 0.33735 0.50154 0.0
C726 C 0.55376 0.33829 0.49045 0.0
C727 C 0.54438 0.36608 0.49126 0.0
loop_
_geom_bond_atom_site_label_1
_geom_bond_atom_site_label_2
_geom_bond_distance
_geom_bond_site_symmetry_2
_ccdc_geom_bond_type
O0 Cd1 2.300 . S
O0 C7 1.275 . S
Cd1 O0 2.300 . S
Cd1 O9 2.381 . S
Cd1 O10 2.378 . S
O2 Cd3 2.385 . S
O2 C7 1.255 . S
Cd3 O2 2.385 . S
Cd3 O4 2.317 . S
O4 Cd3 2.317 . S
O4 C5 1.232 . S
C5 O4 1.232 . S
C5 O6 1.218 . S
O6 C5 1.218 . S
C7 O0 1.275 . S
C7 O2 1.255 . S
C8 O9 1.258 . S
C8 O10 1.256 . S
O9 Cd1 2.381 . S
O9 C8 1.258 . S
O10 Cd1 2.378 . S
O10 C8 1.256 . S
O11 Cd12 2.300 . S
O11 C18 1.275 . S
Cd12 O11 2.300 . S
Cd12 O20 2.381 . S
Cd12 O21 2.378 . S
O13 Cd14 2.385 . S
O13 C18 1.255 . S
Cd14 O13 2.385 . S
Cd14 O15 2.317 . S
O15 Cd14 2.317 . S
O15 C16 1.232 . S
C16 O15 1.232 . S
C16 O17 1.218 . S
O17 C16 1.218 . S
C18 O11 1.275 . S
C18 O13 1.255 . S
C19 O20 1.258 . S
C19 O21 1.256 . S
O20 Cd12 2.381 . S
O20 C19 1.258 . S
O21 Cd12 2.378 . S
O21 C19 1.256 . S
O22 Cd23 2.300 . S
O22 C29 1.275 . S
Cd23 O22 2.300 . S
Cd23 O31 2.381 . S
Cd23 O32 2.378 . S
O24 Cd25 2.385 . S
O24 C29 1.255 . S
Cd25 O24 2.385 . S
Cd25 O26 2.317 . S
O26 Cd25 2.317 . S
O26 C27 1.232 . S
C27 O26 1.232 . S
C27 O28 1.218 . S
O28 C27 1.218 . S
C29 O22 1.275 . S
C29 O24 1.255 . S
C30 O31 1.258 . S
C30 O32 1.256 . S
O31 Cd23 2.381 . S
O31 C30 1.258 . S
O32 Cd23 2.378 . S
O32 C30 1.256 . S
O33 Cd34 2.300 . S
O33 C40 1.275 . S
Cd34 O33 2.300 . S
Cd34 O42 2.381 . S
Cd34 O43 2.378 . S
O35 Cd36 2.385 . S
O35 C40 1.255 . S
Cd36 O35 2.385 . S
Cd36 O37 2.317 . S
O37 Cd36 2.317 . S
O37 C38 1.232 . S
C38 O37 1.232 . S
C38 O39 1.218 . S
O39 C38 1.218 . S
C40 O33 1.275 . S
C40 O35 1.255 . S
C41 O42 1.258 . S
C41 O43 1.256 . S
O42 Cd34 2.381 . S
O42 C41 1.258 . S
O43 Cd34 2.378 . S
O43 C41 1.256 . S
O44 Cd45 2.300 . S
O44 C51 1.275 . S
Cd45 O44 2.300 . S
Cd45 O53 2.381 . S
Cd45 O54 2.378 . S
O46 Cd47 2.385 . S
O46 C51 1.255 . S
Cd47 O46 2.385 . S
Cd47 O48 2.317 . S
O48 Cd47 2.317 . S
O48 C49 1.232 . S
C49 O48 1.232 . S
C49 O50 1.218 . S
O50 C49 1.218 . S
C51 O44 1.275 . S
C51 O46 1.255 . S
C52 O53 1.258 . S
C52 O54 1.256 . S
O53 Cd45 2.381 . S
O53 C52 1.258 . S
O54 Cd45 2.378 . S
O54 C52 1.256 . S
O55 Cd56 2.300 . S
O55 C62 1.275 . S
Cd56 O55 2.300 . S
Cd56 O64 2.381 . S
Cd56 O65 2.378 . S
O57 Cd58 2.385 . S
O57 C62 1.255 . S
Cd58 O57 2.385 . S
Cd58 O59 2.317 . S
O59 Cd58 2.317 . S
O59 C60 1.232 . S
C60 O59 1.232 . S
C60 O61 1.218 . S
O61 C60 1.218 . S
C62 O55 1.275 . S
C62 O57 1.255 . S
C63 O64 1.258 . S
C63 O65 1.256 . S
O64 Cd56 2.381 . S
O64 C63 1.258 . S
O65 Cd56 2.378 . S
O65 C63 1.256 . S
O66 Cd67 2.300 . S
O66 C73 1.275 . S
Cd67 O66 2.300 . S
Cd67 O75 2.381 . S
Cd67 O76 2.378 . S
O68 Cd69 2.385 . S
O68 C73 1.255 . S
Cd69 O68 2.385 . S
Cd69 O70 2.317 . S
O70 Cd69 2.317 . S
O70 C71 1.232 . S
C71 O70 1.232 . S
C71 O72 1.218 . S
O72 C71 1.218 . S
C73 O66 1.275 . S
C73 O68 1.255 . S
C74 O75 1.258 . S
C74 O76 1.256 . S
O75 Cd67 2.381 . S
O75 C74 1.258 . S
O76 Cd67 2.378 . S
O76 C74 1.256 . S
O77 Cd78 2.300 . S
O77 C84 1.275 . S
Cd78 O77 2.300 . S
Cd78 O86 2.381 . S
Cd78 O87 2.378 . S
O79 Cd80 2.385 . S
O79 C84 1.255 . S
Cd80 O79 2.385 . S
Cd80 O81 2.317 . S
O81 Cd80 2.317 . S
O81 C82 1.232 . S
C82 O81 1.232 . S
C82 O83 1.218 . S
O83 C82 1.218 . S
C84 O77 1.275 . S
C84 O79 1.255 . S
C85 O86 1.258 . S
C85 O87 1.256 . S
O86 Cd78 2.381 . S
O86 C85 1.258 . S
O87 Cd78 2.378 . S
O87 C85 1.256 . S
La88 C90 2.928 . S
La88 O108 2.521 . S
La88 O109 2.628 . S
La88 O110 2.540 1_545 S
La88 O111 2.757 1_545 S
La88 O112 2.470 . S
La88 O117 2.482 1_455 S
La88 O119 2.503 1_445 S
La89 C99 2.928 1_545 S
La89 O111 2.482 1_645 S
La89 O113 2.503 1_655 S
La89 O114 2.521 1_545 S
La89 O115 2.628 1_545 S
La89 O116 2.554 . S
La89 O117 2.757 . S
La89 O118 2.470 1_545 S
C90 La88 2.928 . S
C90 C91 1.503 . S
C90 O108 1.261 . S
C90 O109 1.243 . S
C91 C90 1.503 . S
C91 C92 1.394 . S
C91 C96 1.373 . S
C92 C91 1.394 . S
C92 C93 1.380 . S
C92 H120 0.930 . S
C93 C92 1.380 . S
C93 C94 1.376 . S
C93 H121 0.930 . S
C94 C93 1.376 . S
C94 C95 1.370 . S
C95 C94 1.370 . S
C95 C96 1.396 . S
C95 H122 0.929 . S
C96 C91 1.373 . S
C96 C95 1.396 . S
C96 H123 0.929 . S
C97 O110 1.246 . S
C97 O111 1.289 . S
C98 O112 1.258 . S
C98 O113 1.256 . S
C99 La89 2.928 1_565 S
C99 C100 1.503 . S
C99 O114 1.261 . S
C99 O115 1.243 . S
C100 C99 1.503 . S
C100 C101 1.394 . S
C100 C105 1.373 . S
C101 C100 1.394 . S
C101 C102 1.380 . S
C101 H124 0.930 . S
C102 C101 1.380 . S
C102 C103 1.376 . S
C102 H125 0.930 . S
C103 C102 1.376 . S
C103 C104 1.370 . S
C104 C103 1.370 . S
C104 C105 1.396 . S
C104 H126 0.929 . S
C105 C100 1.373 . S
C105 C104 1.396 . S
C105 H127 0.929 . S
C106 O116 1.240 . S
C106 O117 1.289 . S
C107 O118 1.258 . S
C107 O119 1.256 . S
O108 La88 2.521 . S
O108 C90 1.261 . S
O109 La88 2.628 . S
O109 C90 1.243 . S
O110 La88 2.540 1_565 S
O110 C97 1.246 . S
O111 La88 2.757 1_565 S
O111 La89 2.482 1_465 S
O111 C97 1.289 . S
O112 La88 2.470 . S
O112 C98 1.258 . S
O113 La89 2.503 1_455 S
O113 C98 1.256 . S
O114 La89 2.521 1_565 S
O114 C99 1.261 . S
O115 La89 2.628 1_565 S
O115 C99 1.243 . S
O116 La89 2.554 . S
O116 C106 1.240 . S
O117 La88 2.482 1_655 S
O117 La89 2.757 . S
O117 C106 1.289 . S
O118 La89 2.470 1_565 S
O118 C107 1.258 . S
O119 La88 2.503 1_665 S
O119 C107 1.256 . S
H120 C92 0.930 . S
H121 C93 0.930 . S
H122 C95 0.929 . S
H123 C96 0.929 . S
H124 C101 0.930 . S
H125 C102 0.930 . S
H126 C104 0.929 . S
H127 C105 0.929 . S
La128 C130 2.928 . S
La128 O148 2.521 . S
La128 O149 2.628 . S
La128 O150 2.554 1_545 S
La128 O151 2.757 . S
La128 O152 2.470 . S
La128 O157 2.482 . S
La128 O159 2.503 . S
La129 C139 2.928 1_544 S
La129 O151 2.482 . S
La129 O153 2.503 . S
La129 O154 2.521 1_554 S
La129 O155 2.628 1_544 S
La129 O156 2.554 . S
La129 O157 2.757 . S
La129 O158 2.480 . S
C130 La128 2.928 . S
C130 C131 1.503 . S
C130 O148 1.261 . S
C130 O149 1.243 . S
C131 C130 1.503 . S
C131 C132 1.394 . S
C131 C136 1.373 . S
C132 C131 1.394 . S
C132 C133 1.380 . S
C132 H160 0.930 . S
C133 C132 1.380 . S
C133 C134 1.376 . S
C133 H161 0.930 . S
C134 C133 1.376 . S
C134 C135 1.370 . S
C135 C134 1.370 . S
C135 C136 1.396 . S
C135 H162 0.929 . S
C136 C131 1.373 . S
C136 C135 1.396 . S
C136 H163 0.929 . S
C137 O150 1.240 . S
C137 O151 1.289 1_565 S
C138 O152 1.258 . S
C138 O153 1.256 . S
C139 La129 2.928 1_566 S
C139 C140 1.503 . S
C139 O154 1.261 1_565 S
C139 O155 1.243 . S
C140 C139 1.503 . S
C140 C141 1.394 . S
C140 C145 1.373 . S
C141 C140 1.394 . S
C141 C142 1.380 . S
C141 H164 0.930 1_565 S
C142 C141 1.380 . S
C142 C143 1.376 . S
C142 H165 0.930 . S
C143 C142 1.376 . S
C143 C144 1.370 . S
C144 C143 1.370 . S
C144 C145 1.396 . S
C144 H166 0.929 . S
C145 C140 1.373 . S
C145 C144 1.396 . S
C145 H167 0.929 . S
C146 O156 1.240 . S
C146 O157 1.289 . S
C147 O158 1.257 1_565 S
C147 O159 1.255 1_565 S
O148 La128 2.521 . S
O148 C130 1.261 . S
O149 La128 2.628 . S
O149 C130 1.243 . S
O150 La128 2.554 1_565 S
O150 C137 1.240 . S
O151 La128 2.757 . S
O151 La129 2.482 . S
O151 C137 1.289 1_545 S
O152 La128 2.470 . S
O152 C138 1.258 . S
O153 La129 2.503 . S
O153 C138 1.256 . S
O154 La129 2.521 1_556 S
O154 C139 1.261 1_545 S
O155 La129 2.628 1_566 S
O155 C139 1.243 . S
O156 La129 2.554 . S
O156 C146 1.240 . S
O157 La128 2.482 . S
O157 La129 2.757 . S
O157 C146 1.289 . S
O158 La129 2.480 . S
O158 C147 1.257 1_545 S
O159 La128 2.503 . S
O159 C147 1.255 1_545 S
H160 C132 0.930 . S
H161 C133 0.930 . S
H162 C135 0.929 . S
H163 C136 0.929 . S
H164 C141 0.930 1_545 S
H165 C142 0.930 . S
H166 C144 0.929 . S
H167 C145 0.929 . S
La168 C170 2.928 . S
La168 O188 2.521 . S
La168 O189 2.628 . S
La168 O190 2.554 . S
La168 O191 2.757 . S
La168 O192 2.470 . S
La168 O197 2.482 . S
La168 O199 2.503 . S
La169 C179 2.928 . S
La169 O191 2.482 . S
La169 O193 2.503 . S
La169 O194 2.521 . S
La169 O195 2.628 . S
La169 O196 2.554 . S
La169 O197 2.757 . S
La169 O198 2.470 . S
C170 La168 2.928 . S
C170 C171 1.503 . S
C170 O188 1.261 . S
C170 O189 1.243 . S
C171 C170 1.503 . S
C171 C172 1.394 . S
C171 C176 1.373 . S
C172 C171 1.394 . S
C172 C173 1.380 . S
C172 H200 0.930 . S
C173 C172 1.380 . S
C173 C174 1.376 . S
C173 H201 0.930 . S
C174 C173 1.376 . S
C174 C175 1.370 . S
C175 C174 1.370 . S
C175 C176 1.396 . S
C175 H202 0.929 . S
C176 C171 1.373 . S
C176 C175 1.396 . S
C176 H203 0.929 . S
C177 O190 1.240 . S
C177 O191 1.289 . S
C178 O192 1.258 . S
C178 O193 1.256 . S
C179 La169 2.928 . S
C179 C180 1.503 . S
C179 O194 1.261 . S
C179 O195 1.243 . S
C180 C179 1.503 . S
C180 C181 1.394 . S
C180 C185 1.373 . S
C181 C180 1.394 . S
C181 C182 1.380 . S
C181 H204 0.930 . S
C182 C181 1.380 . S
C182 C183 1.376 . S
C182 H205 0.930 . S
C183 C182 1.376 . S
C183 C184 1.370 . S
C184 C183 1.370 . S
C184 C185 1.396 . S
C184 H206 0.929 . S
C185 C180 1.373 . S
C185 C184 1.396 . S
C185 H207 0.929 . S
C186 O196 1.240 . S
C186 O197 1.289 . S
C187 O198 1.258 . S
C187 O199 1.256 . S
O188 La168 2.521 . S
O188 C170 1.261 . S
O189 La168 2.628 . S
O189 C170 1.243 . S
O190 La168 2.554 . S
O190 C177 1.240 . S
O191 La168 2.757 . S
O191 La169 2.482 . S
O191 C177 1.289 . S
O192 La168 2.470 . S
O192 C178 1.258 . S
O193 La169 2.503 . S
O193 C178 1.256 . S
O194 La169 2.521 . S
O194 C179 1.261 . S
O195 La169 2.628 . S
O195 C179 1.243 . S
O196 La169 2.554 . S
O196 C186 1.240 . S
O197 La168 2.482 . S
O197 La169 2.757 . S
O197 C186 1.289 . S
O198 La169 2.470 . S
O198 C187 1.258 . S
O199 La168 2.503 . S
O199 C187 1.256 . S
H200 C172 0.930 . S
H201 C173 0.930 . S
H202 C175 0.929 . S
H203 C176 0.929 . S
H204 C181 0.930 . S
H205 C182 0.930 . S
H206 C184 0.929 . S
H207 C185 0.929 . S
La208 C210 2.928 . S
La208 O228 2.521 . S
La208 O229 2.628 . S
La208 O230 2.554 1_455 S
La208 O231 2.757 1_455 S
La208 O232 2.470 . S
La208 O237 2.482 1_554 S
La208 O239 2.503 1_455 S
La209 C219 2.928 1_455 S
La209 O231 2.482 1_456 S
La209 O233 2.503 1_556 S
La209 O234 2.521 1_455 S
La209 O235 2.628 1_455 S
La209 O236 2.554 . S
La209 O237 2.757 . S
La209 O238 2.470 1_455 S
C210 La208 2.928 . S
C210 C211 1.503 . S
C210 O228 1.261 . S
C210 O229 1.243 . S
C211 C210 1.503 . S
C211 C212 1.394 . S
C211 C216 1.373 . S
C212 C211 1.394 . S
C212 C213 1.380 . S
C212 H240 0.930 . S
C213 C212 1.380 . S
C213 C214 1.376 . S
C213 H241 0.930 . S
C214 C213 1.376 . S
C214 C215 1.370 . S
C215 C214 1.370 . S
C215 C216 1.396 . S
C215 H242 0.929 . S
C216 C211 1.373 . S
C216 C215 1.396 . S
C216 H243 0.929 . S
C217 O230 1.240 . S
C217 O231 1.289 . S
C218 O232 1.258 . S
C218 O233 1.256 . S
C219 La209 2.928 1_655 S
C219 C220 1.503 . S
C219 O234 1.261 . S
C219 O235 1.243 . S
C220 C219 1.503 . S
C220 C221 1.394 . S
C220 C225 1.373 . S
C221 C220 1.394 . S
C221 C222 1.380 . S
C221 H244 0.930 . S
C222 C221 1.380 . S
C222 C223 1.376 . S
C222 H245 0.930 . S
C223 C222 1.376 . S
C223 C224 1.370 . S
C224 C223 1.370 . S
C224 C225 1.396 . S
C224 H246 0.929 . S
C225 C220 1.373 . S
C225 C224 1.396 . S
C225 H247 0.929 . S
C226 O236 1.240 . S
C226 O237 1.289 . S
C227 O238 1.258 . S
C227 O239 1.256 1_556 S
O228 La208 2.521 . S
O228 C210 1.261 . S
O229 La208 2.628 . S
O229 C210 1.243 . S
O230 La208 2.554 1_655 S
O230 C217 1.240 . S
O231 La208 2.757 1_655 S
O231 La209 2.482 1_654 S
O231 C217 1.289 . S
O232 La208 2.470 . S
O232 C218 1.258 . S
O233 La209 2.503 1_554 S
O233 C218 1.256 . S
O234 La209 2.521 1_655 S
O234 C219 1.261 . S
O235 La209 2.628 1_655 S
O235 C219 1.243 . S
O236 La209 2.554 . S
O236 C226 1.240 . S
O237 La208 2.482 1_556 S
O237 La209 2.757 . S
O237 C226 1.289 . S
O238 La209 2.470 1_655 S
O238 C227 1.258 . S
O239 La208 2.503 1_655 S
O239 C227 1.256 1_554 S
H240 C212 0.930 . S
H241 C213 0.930 . S
H242 C215 0.929 . S
H243 C216 0.929 . S
H244 C221 0.930 . S
H245 C222 0.930 . S
H246 C224 0.929 . S
H247 C225 0.929 . S
H248 C256 0.950 . S
H249 C261 0.950 . S
H250 C258 0.950 . S
H251 C260 0.950 . S
H252 C262 0.950 . S
H253 C264 0.950 . S
H254 C266 0.950 . S
H255 C267 0.950 . S
C256 H248 0.950 . S
C256 C257 1.386 . S
C256 C258 1.391 . S
C257 C256 1.386 . S
C257 C261 1.393 . S
C258 H250 0.950 . S
C258 C256 1.391 . S
C258 C259 1.400 . S
C259 C258 1.400 . S
C259 C260 1.398 . S
C259 C265 1.491 . S
C260 H251 0.950 . S
C260 C259 1.398 . S
C260 C261 1.391 . S
C261 H249 0.950 . S
C261 C257 1.393 . S
C261 C260 1.391 . S
C262 H252 0.950 . S
C262 C263 1.386 . S
C262 C264 1.391 . S
C263 C262 1.386 . S
C263 C267 1.393 . S
C264 H253 0.950 . S
C264 C262 1.391 . S
C264 C265 1.400 . S
C265 C259 1.491 . S
C265 C264 1.400 . S
C265 C266 1.398 . S
C266 H254 0.950 . S
C266 C265 1.398 . S
C266 C267 1.391 . S
C267 H255 0.950 . S
C267 C263 1.393 . S
C267 C266 1.391 . S
H268 C276 0.950 . S
H269 C281 0.950 . S
H270 C278 0.950 . S
H271 C280 0.950 . S
H272 C282 0.950 . S
H273 C284 0.950 . S
H274 C286 0.950 . S
H275 C287 0.950 . S
C276 H268 0.950 . S
C276 C277 1.386 . S
C276 C278 1.391 . S
C277 C276 1.386 . S
C277 C281 1.393 . S
C278 H270 0.950 . S
C278 C276 1.391 . S
C278 C279 1.400 . S
C279 C278 1.400 . S
C279 C280 1.398 . S
C279 C285 1.491 . S
C280 H271 0.950 . S
C280 C279 1.398 . S
C280 C281 1.391 . S
C281 H269 0.950 . S
C281 C277 1.393 . S
C281 C280 1.391 . S
C282 H272 0.950 . S
C282 C283 1.386 . S
C282 C284 1.391 . S
C283 C282 1.386 . S
C283 C287 1.393 . S
C284 H273 0.950 . S
C284 C282 1.391 . S
C284 C285 1.400 . S
C285 C279 1.491 . S
C285 C284 1.400 . S
C285 C286 1.398 . S
C286 H274 0.950 . S
C286 C285 1.398 . S
C286 C287 1.391 . S
C287 H275 0.950 . S
C287 C283 1.393 . S
C287 C286 1.391 . S
H288 C296 0.950 . S
H289 C301 0.950 . S
H290 C298 0.950 . S
H291 C300 0.950 . S
H292 C302 0.950 . S
H293 C304 0.950 . S
H294 C306 0.950 . S
H295 C307 0.950 . S
C296 H288 0.950 . S
C296 C297 1.386 . S
C296 C298 1.391 . S
C297 C296 1.386 . S
C297 C301 1.393 . S
C298 H290 0.950 . S
C298 C296 1.391 . S
C298 C299 1.400 . S
C299 C298 1.400 . S
C299 C300 1.398 . S
C299 C305 1.491 . S
C300 H291 0.950 . S
C300 C299 1.398 . S
C300 C301 1.391 . S
C301 H289 0.950 . S
C301 C297 1.393 . S
C301 C300 1.391 . S
C302 H292 0.950 . S
C302 C303 1.386 . S
C302 C304 1.391 . S
C303 C302 1.386 . S
C303 C307 1.393 . S
C304 H293 0.950 . S
C304 C302 1.391 . S
C304 C305 1.400 . S
C305 C299 1.491 . S
C305 C304 1.400 . S
C305 C306 1.398 . S
C306 H294 0.950 . S
C306 C305 1.398 . S
C306 C307 1.391 . S
C307 H295 0.950 . S
C307 C303 1.393 . S
C307 C306 1.391 . S
H308 C316 0.950 . S
H309 C321 0.950 . S
H310 C318 0.950 . S
H311 C320 0.950 . S
H312 C322 0.950 . S
H313 C324 0.950 . S
H314 C326 0.950 . S
H315 C327 0.950 1_455 S
C316 H308 0.950 . S
C316 C317 1.386 . S
C316 C318 1.391 . S
C317 C316 1.386 . S
C317 C321 1.393 . S
C318 H310 0.950 . S
C318 C316 1.391 . S
C318 C319 1.400 . S
C319 C318 1.400 . S
C319 C320 1.398 . S
C319 C325 1.491 . S
C320 H311 0.950 . S
C320 C319 1.398 . S
C320 C321 1.391 . S
C321 H309 0.950 . S
C321 C317 1.393 . S
C321 C320 1.391 . S
C322 H312 0.950 . S
C322 C323 1.386 . S
C322 C324 1.391 . S
C323 C322 1.386 . S
C323 C327 1.393 . S
C324 H313 0.950 . S
C324 C322 1.391 . S
C324 C325 1.400 . S
C325 C319 1.491 . S
C325 C324 1.400 . S
C325 C326 1.398 . S
C326 H314 0.950 . S
C326 C325 1.398 . S
C326 C327 1.391 . S
C327 H315 0.950 1_655 S
C327 C323 1.393 . S
C327 C326 1.391 . S
H328 C336 0.950 . S
H329 C341 0.950 . S
H330 C338 0.950 . S
H331 C340 0.950 . S
H332 C342 0.950 . S
H333 C344 0.950 . S
H334 C346 0.950 . S
H335 C347 0.950 . S
C336 H328 0.950 . S
C336 C337 1.386 . S
C336 C338 1.391 . S
C337 C336 1.386 . S
C337 C341 1.393 . S
C338 H330 0.950 . S
C338 C336 1.391 . S
C338 C339 1.400 . S
C339 C338 1.400 . S
C339 C340 1.398 . S
C339 C345 1.491 . S
C340 H331 0.950 . S
C340 C339 1.398 . S
C340 C341 1.391 . S
C341 H329 0.950 . S
C341 C337 1.393 . S
C341 C340 1.391 . S
C342 H332 0.950 . S
C342 C343 1.386 . S
C342 C344 1.391 . S
C343 C342 1.386 . S
C343 C347 1.393 . S
C344 H333 0.950 . S
C344 C342 1.391 . S
C344 C345 1.400 . S
C345 C339 1.491 . S
C345 C344 1.400 . S
C345 C346 1.398 . S
C346 H334 0.950 . S
C346 C345 1.398 . S
C346 C347 1.391 . S
C347 H335 0.950 . S
C347 C343 1.393 . S
C347 C346 1.391 . S
H348 C356 0.950 . S
H349 C361 0.950 . S
H350 C358 0.950 . S
H351 C360 0.950 . S
H352 C362 0.950 . S
H353 C364 0.950 . S
H354 C366 0.950 . S
H355 C367 0.950 . S
C356 H348 0.950 . S
C356 C357 1.386 . S
C356 C358 1.391 . S
C357 C356 1.386 . S
C357 C361 1.393 . S
C358 H350 0.950 . S
C358 C356 1.391 . S
C358 C359 1.400 . S
C359 C358 1.400 . S
C359 C360 1.398 . S
C359 C365 1.491 . S
C360 H351 0.950 . S
C360 C359 1.398 . S
C360 C361 1.391 . S
C361 H349 0.950 . S
C361 C357 1.393 . S
C361 C360 1.391 . S
C362 H352 0.950 . S
C362 C363 1.386 . S
C362 C364 1.391 . S
C363 C362 1.386 . S
C363 C367 1.393 . S
C364 H353 0.950 . S
C364 C362 1.391 . S
C364 C365 1.400 . S
C365 C359 1.491 . S
C365 C364 1.400 . S
C365 C366 1.398 . S
C366 H354 0.950 . S
C366 C365 1.398 . S
C366 C367 1.391 . S
C367 H355 0.950 . S
C367 C363 1.393 . S
C367 C366 1.391 . S
H368 C376 0.950 . S
H369 C381 0.950 . S
H370 C378 0.950 . S
H371 C380 0.950 . S
H372 C382 0.950 1_554 S
H373 C384 0.950 . S
H374 C386 0.950 . S
H375 C387 0.950 . S
C376 H368 0.950 . S
C376 C377 1.386 . S
C376 C378 1.391 . S
C377 C376 1.386 . S
C377 C381 1.393 . S
C378 H370 0.950 . S
C378 C376 1.391 . S
C378 C379 1.400 . S
C379 C378 1.400 . S
C379 C380 1.398 . S
C379 C385 1.491 . S
C380 H371 0.950 . S
C380 C379 1.398 . S
C380 C381 1.391 . S
C381 H369 0.950 . S
C381 C377 1.393 . S
C381 C380 1.391 . S
C382 H372 0.950 1_556 S
C382 C383 1.386 . S
C382 C384 1.391 . S
C383 C382 1.386 . S
C383 C387 1.393 . S
C384 H373 0.950 . S
C384 C382 1.391 . S
C384 C385 1.400 . S
C385 C379 1.491 . S
C385 C384 1.400 . S
C385 C386 1.398 . S
C386 H374 0.950 . S
C386 C385 1.398 . S
C386 C387 1.391 . S
C387 H375 0.950 . S
C387 C383 1.393 . S
C387 C386 1.391 . S
H388 C396 0.950 . S
H389 C401 0.950 . S
H390 C398 0.950 . S
H391 C400 0.950 . S
H392 C402 0.950 . S
H393 C404 0.950 . S
H394 C406 0.950 . S
H395 C407 0.950 . S
C396 H388 0.950 . S
C396 C397 1.386 . S
C396 C398 1.391 . S
C397 C396 1.386 . S
C397 C401 1.393 . S
C398 H390 0.950 . S
C398 C396 1.391 . S
C398 C399 1.400 . S
C399 C398 1.400 . S
C399 C400 1.398 . S
C399 C405 1.491 . S
C400 H391 0.950 . S
C400 C399 1.398 . S
C400 C401 1.391 . S
C401 H389 0.950 . S
C401 C397 1.393 . S
C401 C400 1.391 . S
C402 H392 0.950 . S
C402 C403 1.386 . S
C402 C404 1.391 . S
C403 C402 1.386 . S
C403 C407 1.393 . S
C404 H393 0.950 . S
C404 C402 1.391 . S
C404 C405 1.400 . S
C405 C399 1.491 . S
C405 C404 1.400 . S
C405 C406 1.398 . S
C406 H394 0.950 . S
C406 C405 1.398 . S
C406 C407 1.391 . S
C407 H395 0.950 . S
C407 C403 1.393 . S
C407 C406 1.391 . S
H408 C416 0.950 . S
H409 C421 0.950 . S
H410 C418 0.950 . S
H411 C420 0.950 . S
H412 C422 0.950 . S
H413 C424 0.950 . S
H414 C426 0.950 . S
H415 C427 0.950 . S
C416 H408 0.950 . S
C416 C417 1.386 . S
C416 C418 1.391 . S
C417 C416 1.386 . S
C417 C421 1.393 . S
C418 H410 0.950 . S
C418 C416 1.391 . S
C418 C419 1.400 . S
C419 C418 1.400 . S
C419 C420 1.398 . S
C419 C425 1.491 . S
C420 H411 0.950 . S
C420 C419 1.398 . S
C420 C421 1.391 . S
C421 H409 0.950 . S
C421 C417 1.393 . S
C421 C420 1.391 . S
C422 H412 0.950 . S
C422 C423 1.386 . S
C422 C424 1.391 . S
C423 C422 1.386 . S
C423 C427 1.393 . S
C424 H413 0.950 . S
C424 C422 1.391 . S
C424 C425 1.400 . S
C425 C419 1.491 . S
C425 C424 1.400 . S
C425 C426 1.398 . S
C426 H414 0.950 . S
C426 C425 1.398 . S
C426 C427 1.391 . S
C427 H415 0.950 . S
C427 C423 1.393 . S
C427 C426 1.391 . S
H428 C436 0.950 . S
H429 C441 0.950 . S
H430 C438 0.950 . S
H431 C440 0.950 . S
H432 C442 0.950 . S
H433 C444 0.950 . S
H434 C446 0.950 . S
H435 C447 0.950 . S
C436 H428 0.950 . S
C436 C437 1.386 . S
C436 C438 1.391 . S
C437 C436 1.386 . S
C437 C441 1.393 . S
C438 H430 0.950 . S
C438 C436 1.391 . S
C438 C439 1.400 . S
C439 C438 1.400 . S
C439 C440 1.398 . S
C439 C445 1.491 . S
C440 H431 0.950 . S
C440 C439 1.398 . S
C440 C441 1.391 . S
C441 H429 0.950 . S
C441 C437 1.393 . S
C441 C440 1.391 . S
C442 H432 0.950 . S
C442 C443 1.386 1_556 S
C442 C444 1.391 . S
C443 C442 1.386 1_554 S
C443 C447 1.393 . S
C444 H433 0.950 . S
C444 C442 1.391 . S
C444 C445 1.400 . S
C445 C439 1.491 . S
C445 C444 1.400 . S
C445 C446 1.398 1_556 S
C446 H434 0.950 . S
C446 C445 1.398 1_554 S
C446 C447 1.391 . S
C447 H435 0.950 . S
C447 C443 1.393 . S
C447 C446 1.391 . S
H448 C456 0.950 . S
H449 C461 0.950 . S
H450 C458 0.950 . S
H451 C460 0.950 . S
H452 C462 0.950 . S
H453 C464 0.950 . S
H454 C466 0.950 . S
H455 C467 0.950 . S
C456 H448 0.950 . S
C456 C457 1.386 . S
C456 C458 1.391 . S
C457 C456 1.386 . S
C457 C461 1.393 . S
C458 H450 0.950 . S
C458 C456 1.391 . S
C458 C459 1.400 . S
C459 C458 1.400 . S
C459 C460 1.398 . S
C459 C465 1.491 . S
C460 H451 0.950 . S
C460 C459 1.398 . S
C460 C461 1.391 . S
C461 H449 0.950 . S
C461 C457 1.393 . S
C461 C460 1.391 . S
C462 H452 0.950 . S
C462 C463 1.386 . S
C462 C464 1.391 . S
C463 C462 1.386 . S
C463 C467 1.393 . S
C464 H453 0.950 . S
C464 C462 1.391 . S
C464 C465 1.400 . S
C465 C459 1.491 . S
C465 C464 1.400 . S
C465 C466 1.398 . S
C466 H454 0.950 . S
C466 C465 1.398 . S
C466 C467 1.391 . S
C467 H455 0.950 . S
C467 C463 1.393 . S
C467 C466 1.391 . S
H468 C476 0.950 . S
H469 C481 0.950 . S
H470 C478 0.950 . S
H471 C480 0.950 . S
H472 C482 0.950 . S
H473 C484 0.950 . S
H474 C486 0.950 . S
H475 C487 0.950 . S
C476 H468 0.950 . S
C476 C477 1.386 . S
C476 C478 1.391 . S
C477 C476 1.386 . S
C477 C481 1.393 . S
C478 H470 0.950 . S
C478 C476 1.391 . S
C478 C479 1.400 . S
C479 C478 1.400 . S
C479 C480 1.398 . S
C479 C485 1.491 . S
C480 H471 0.950 . S
C480 C479 1.398 . S
C480 C481 1.391 . S
C481 H469 0.950 . S
C481 C477 1.393 . S
C481 C480 1.391 . S
C482 H472 0.950 . S
C482 C483 1.386 . S
C482 C484 1.391 . S
C483 C482 1.386 . S
C483 C487 1.393 . S
C484 H473 0.950 . S
C484 C482 1.391 . S
C484 C485 1.400 . S
C485 C479 1.491 . S
C485 C484 1.400 . S
C485 C486 1.398 . S
C486 H474 0.950 . S
C486 C485 1.398 . S
C486 C487 1.391 . S
C487 H475 0.950 . S
C487 C483 1.393 . S
C487 C486 1.391 . S
H488 C496 0.950 . S
H489 C501 0.950 . S
H490 C498 0.950 . S
H491 C500 0.950 . S
H492 C502 0.950 . S
H493 C504 0.950 . S
H494 C506 0.950 . S
H495 C507 0.950 . S
C496 H488 0.950 . S
C496 C497 1.386 . S
C496 C498 1.391 . S
C497 C496 1.386 . S
C497 C501 1.393 . S
C498 H490 0.950 . S
C498 C496 1.391 . S
C498 C499 1.400 . S
C499 C498 1.400 . S
C499 C500 1.398 . S
C499 C505 1.491 . S
C500 H491 0.950 . S
C500 C499 1.398 . S
C500 C501 1.391 . S
C501 H489 0.950 . S
C501 C497 1.393 . S
C501 C500 1.391 . S
C502 H492 0.950 . S
C502 C503 1.386 . S
C502 C504 1.391 . S
C503 C502 1.386 . S
C503 C507 1.393 . S
C504 H493 0.950 . S
C504 C502 1.391 . S
C504 C505 1.400 . S
C505 C499 1.491 . S
C505 C504 1.400 . S
C505 C506 1.398 . S
C506 H494 0.950 . S
C506 C505 1.398 . S
C506 C507 1.391 . S
C507 H495 0.950 . S
C507 C503 1.393 . S
C507 C506 1.391 . S
H508 C516 0.950 . S
H509 C521 0.950 . S
H510 C518 0.950 . S
H511 C520 0.950 . S
H512 C522 0.950 . S
H513 C524 0.950 . S
H514 C526 0.950 . S
H515 C527 0.950 . S
C516 H508 0.950 . S
C516 C517 1.386 . S
C516 C518 1.391 . S
C517 C516 1.386 . S
C517 C521 1.393 . S
C518 H510 0.950 . S
C518 C516 1.391 . S
C518 C519 1.400 . S
C519 C518 1.400 . S
C519 C520 1.398 . S
C519 C525 1.491 . S
C520 H511 0.950 . S
C520 C519 1.398 . S
C520 C521 1.391 . S
C521 H509 0.950 . S
C521 C517 1.393 . S
C521 C520 1.391 . S
C522 H512 0.950 . S
C522 C523 1.386 . S
C522 C524 1.391 . S
C523 C522 1.386 . S
C523 C527 1.393 . S
C524 H513 0.950 . S
C524 C522 1.391 . S
C524 C525 1.400 . S
C525 C519 1.491 . S
C525 C524 1.400 . S
C525 C526 1.398 . S
C526 H514 0.950 . S
C526 C525 1.398 . S
C526 C527 1.391 . S
C527 H515 0.950 . S
C527 C523 1.393 . S
C527 C526 1.391 . S
H528 C536 0.950 . S
H529 C541 0.950 . S
H530 C538 0.950 . S
H531 C540 0.950 . S
H532 C542 0.950 . S
H533 C544 0.950 . S
H534 C546 0.950 . S
H535 C547 0.950 . S
C536 H528 0.950 . S
C536 C537 1.386 . S
C536 C538 1.391 . S
C537 C536 1.386 . S
C537 C541 1.393 . S
C538 H530 0.950 . S
C538 C536 1.391 . S
C538 C539 1.400 . S
C539 C538 1.400 . S
C539 C540 1.398 . S
C539 C545 1.491 . S
C540 H531 0.950 . S
C540 C539 1.398 . S
C540 C541 1.391 . S
C541 H529 0.950 . S
C541 C537 1.393 . S
C541 C540 1.391 . S
C542 H532 0.950 . S
C542 C543 1.386 . S
C542 C544 1.391 . S
C543 C542 1.386 . S
C543 C547 1.393 . S
C544 H533 0.950 . S
C544 C542 1.391 . S
C544 C545 1.400 . S
C545 C539 1.491 . S
C545 C544 1.400 . S
C545 C546 1.398 . S
C546 H534 0.950 . S
C546 C545 1.398 . S
C546 C547 1.391 . S
C547 H535 0.950 . S
C547 C543 1.393 . S
C547 C546 1.391 . S
H548 C556 0.950 . S
H549 C561 0.950 . S
H550 C558 0.950 . S
H551 C560 0.950 . S
H552 C562 0.950 . S
H553 C564 0.950 . S
H554 C566 0.950 . S
H555 C567 0.950 . S
C556 H548 0.950 . S
C556 C557 1.386 . S
C556 C558 1.391 . S
C557 C556 1.386 . S
C557 C561 1.393 . S
C558 H550 0.950 . S
C558 C556 1.391 . S
C558 C559 1.400 . S
C559 C558 1.400 . S
C559 C560 1.398 . S
C559 C565 1.491 . S
C560 H551 0.950 . S
C560 C559 1.398 . S
C560 C561 1.391 . S
C561 H549 0.950 . S
C561 C557 1.393 . S
C561 C560 1.391 . S
C562 H552 0.950 . S
C562 C563 1.386 . S
C562 C564 1.391 . S
C563 C562 1.386 . S
C563 C567 1.393 . S
C564 H553 0.950 . S
C564 C562 1.391 . S
C564 C565 1.400 . S
C565 C559 1.491 . S
C565 C564 1.400 . S
C565 C566 1.398 . S
C566 H554 0.950 . S
C566 C565 1.398 . S
C566 C567 1.391 . S
C567 H555 0.950 . S
C567 C563 1.393 . S
C567 C566 1.391 . S
H568 C576 0.950 . S
H569 C581 0.950 . S
H570 C578 0.950 . S
H571 C580 0.950 . S
H572 C582 0.950 . S
H573 C584 0.950 . S
H574 C586 0.950 . S
H575 C587 0.950 1_554 S
C576 H568 0.950 . S
C576 C577 1.386 . S
C576 C578 1.391 . S
C577 C576 1.386 . S
C577 C581 1.393 . S
C578 H570 0.950 . S
C578 C576 1.391 . S
C578 C579 1.400 . S
C579 C578 1.400 . S
C579 C580 1.398 . S
C579 C585 1.491 . S
C580 H571 0.950 . S
C580 C579 1.398 . S
C580 C581 1.391 . S
C581 H569 0.950 . S
C581 C577 1.393 . S
C581 C580 1.391 . S
C582 H572 0.950 . S
C582 C583 1.386 . S
C582 C584 1.391 . S
C583 C582 1.386 . S
C583 C587 1.393 . S
C584 H573 0.950 . S
C584 C582 1.391 . S
C584 C585 1.400 . S
C585 C579 1.491 . S
C585 C584 1.400 . S
C585 C586 1.398 . S
C586 H574 0.950 . S
C586 C585 1.398 . S
C586 C587 1.391 . S
C587 H575 0.950 1_556 S
C587 C583 1.393 . S
C587 C586 1.391 . S
H588 C596 0.950 . S
H589 C601 0.950 . S
H590 C598 0.950 . S
H591 C600 0.950 . S
H592 C602 0.950 . S
H593 C604 0.950 . S
H594 C606 0.950 . S
H595 C607 0.950 . S
C596 H588 0.950 . S
C596 C597 1.386 . S
C596 C598 1.391 . S
C597 C596 1.386 . S
C597 C601 1.393 . S
C598 H590 0.950 . S
C598 C596 1.391 . S
C598 C599 1.400 . S
C599 C598 1.400 . S
C599 C600 1.398 . S
C599 C605 1.491 . S
C600 H591 0.950 . S
C600 C599 1.398 . S
C600 C601 1.391 . S
C601 H589 0.950 . S
C601 C597 1.393 . S
C601 C600 1.391 . S
C602 H592 0.950 . S
C602 C603 1.386 . S
C602 C604 1.391 . S
C603 C602 1.386 . S
C603 C607 1.393 . S
C604 H593 0.950 . S
C604 C602 1.391 . S
C604 C605 1.400 . S
C605 C599 1.491 . S
C605 C604 1.400 . S
C605 C606 1.398 . S
C606 H594 0.950 . S
C606 C605 1.398 . S
C606 C607 1.391 . S
C607 H595 0.950 . S
C607 C603 1.393 . S
C607 C606 1.391 . S
H608 C616 0.950 . S
H609 C621 0.950 . S
H610 C618 0.950 . S
H611 C620 0.950 . S
H612 C622 0.950 . S
H613 C624 0.950 . S
H614 C626 0.950 . S
H615 C627 0.950 . S
C616 H608 0.950 . S
C616 C617 1.386 . S
C616 C618 1.391 . S
C617 C616 1.386 . S
C617 C621 1.393 . S
C618 H610 0.950 . S
C618 C616 1.391 . S
C618 C619 1.400 . S
C619 C618 1.400 . S
C619 C620 1.398 . S
C619 C625 1.491 . S
C620 H611 0.950 . S
C620 C619 1.398 . S
C620 C621 1.391 . S
C621 H609 0.950 . S
C621 C617 1.393 . S
C621 C620 1.391 . S
C622 H612 0.950 . S
C622 C623 1.386 . S
C622 C624 1.391 . S
C623 C622 1.386 . S
C623 C627 1.393 . S
C624 H613 0.950 . S
C624 C622 1.391 . S
C624 C625 1.400 . S
C625 C619 1.491 . S
C625 C624 1.400 . S
C625 C626 1.398 . S
C626 H614 0.950 . S
C626 C625 1.398 . S
C626 C627 1.391 . S
C627 H615 0.950 . S
C627 C623 1.393 . S
C627 C626 1.391 . S
H628 C636 0.950 . S
H629 C641 0.950 . S
H630 C638 0.950 . S
H631 C640 0.950 . S
H632 C642 0.950 . S
H633 C644 0.950 . S
H634 C646 0.950 . S
H635 C647 0.950 . S
C636 H628 0.950 . S
C636 C637 1.386 . S
C636 C638 1.391 . S
C637 C636 1.386 . S
C637 C641 1.393 . S
C638 H630 0.950 . S
C638 C636 1.391 . S
C638 C639 1.400 . S
C639 C638 1.400 . S
C639 C640 1.398 . S
C639 C645 1.491 . S
C640 H631 0.950 . S
C640 C639 1.398 . S
C640 C641 1.391 . S
C641 H629 0.950 . S
C641 C637 1.393 . S
C641 C640 1.391 . S
C642 H632 0.950 . S
C642 C643 1.386 . S
C642 C644 1.391 . S
C643 C642 1.386 . S
C643 C647 1.393 . S
C644 H633 0.950 . S
C644 C642 1.391 . S
C644 C645 1.400 . S
C645 C639 1.491 . S
C645 C644 1.400 . S
C645 C646 1.398 . S
C646 H634 0.950 . S
C646 C645 1.398 . S
C646 C647 1.391 . S
C647 H635 0.950 . S
C647 C643 1.393 . S
C647 C646 1.391 . S
H648 C656 0.950 . S
H649 C661 0.950 . S
H650 C658 0.950 . S
H651 C660 0.950 . S
H652 C662 0.950 . S
H653 C664 0.950 . S
H654 C666 0.950 . S
H655 C667 0.950 . S
C656 H648 0.950 . S
C656 C657 1.386 . S
C656 C658 1.391 . S
C657 C656 1.386 . S
C657 C661 1.393 . S
C658 H650 0.950 . S
C658 C656 1.391 . S
C658 C659 1.400 . S
C659 C658 1.400 . S
C659 C660 1.398 . S
C659 C665 1.491 . S
C660 H651 0.950 . S
C660 C659 1.398 . S
C660 C661 1.391 . S
C661 H649 0.950 . S
C661 C657 1.393 . S
C661 C660 1.391 . S
C662 H652 0.950 . S
C662 C663 1.386 . S
C662 C664 1.391 . S
C663 C662 1.386 . S
C663 C667 1.393 . S
C664 H653 0.950 . S
C664 C662 1.391 . S
C664 C665 1.400 . S
C665 C659 1.491 . S
C665 C664 1.400 . S
C665 C666 1.398 . S
C666 H654 0.950 . S
C666 C665 1.398 . S
C666 C667 1.391 . S
C667 H655 0.950 . S
C667 C663 1.393 . S
C667 C666 1.391 . S
H668 C676 0.950 . S
H669 C681 0.950 . S
H670 C678 0.950 . S
H671 C680 0.950 . S
H672 C682 0.950 . S
H673 C684 0.950 . S
H674 C686 0.950 . S
H675 C687 0.950 . S
C676 H668 0.950 . S
C676 C677 1.386 . S
C676 C678 1.391 . S
C677 C676 1.386 . S
C677 C681 1.393 . S
C678 H670 0.950 . S
C678 C676 1.391 . S
C678 C679 1.400 . S
C679 C678 1.400 . S
C679 C680 1.398 . S
C679 C685 1.491 . S
C680 H671 0.950 . S
C680 C679 1.398 . S
C680 C681 1.391 . S
C681 H669 0.950 . S
C681 C677 1.393 . S
C681 C680 1.391 . S
C682 H672 0.950 . S
C682 C683 1.386 . S
C682 C684 1.391 . S
C683 C682 1.386 . S
C683 C687 1.393 . S
C684 H673 0.950 . S
C684 C682 1.391 . S
C684 C685 1.400 . S
C685 C679 1.491 . S
C685 C684 1.400 . S
C685 C686 1.398 . S
C686 H674 0.950 . S
C686 C685 1.398 . S
C686 C687 1.391 . S
C687 H675 0.950 . S
C687 C683 1.393 . S
C687 C686 1.391 . S
H688 C696 0.950 . S
H689 C701 0.950 . S
H690 C698 0.950 . S
H691 C700 0.950 . S
H692 C702 0.950 . S
H693 C704 0.950 . S
H694 C706 0.950 . S
H695 C707 0.950 . S
C696 H688 0.950 . S
C696 C697 1.386 . S
C696 C698 1.391 . S
C697 C696 1.386 . S
C697 C701 1.393 . S
C698 H690 0.950 . S
C698 C696 1.391 . S
C698 C699 1.400 . S
C699 C698 1.400 . S
C699 C700 1.398 . S
C699 C705 1.491 . S
C700 H691 0.950 . S
C700 C699 1.398 . S
C700 C701 1.391 . S
C701 H689 0.950 . S
C701 C697 1.393 . S
C701 C700 1.391 . S
C702 H692 0.950 . S
C702 C703 1.386 . S
C702 C704 1.391 . S
C703 C702 1.386 . S
C703 C707 1.393 . S
C704 H693 0.950 . S
C704 C702 1.391 . S
C704 C705 1.400 . S
C705 C699 1.491 . S
C705 C704 1.400 . S
C705 C706 1.398 . S
C706 H694 0.950 . S
C706 C705 1.398 . S
C706 C707 1.391 . S
C707 H695 0.950 . S
C707 C703 1.393 . S
C707 C706 1.391 . S
H708 C716 0.950 . S
H709 C721 0.950 . S
H710 C718 0.950 . S
H711 C720 0.950 . S
H712 C722 0.950 . S
H713 C724 0.950 . S
H714 C726 0.950 . S
H715 C727 0.950 . S
C716 H708 0.950 . S
C716 C717 1.386 . S
C716 C718 1.391 . S
C717 C716 1.386 . S
C717 C721 1.393 . S
C718 H710 0.950 . S
C718 C716 1.391 . S
C718 C719 1.400 . S
C719 C718 1.400 . S
C719 C720 1.398 . S
C719 C725 1.491 . S
C720 H711 0.950 . S
C720 C719 1.398 . S
C720 C721 1.391 . S
C721 H709 0.950 . S
C721 C717 1.393 . S
C721 C720 1.391 . S
C722 H712 0.950 . S
C722 C723 1.386 . S
C722 C724 1.391 . S
C723 C722 1.386 . S
C723 C727 1.393 . S
C724 H713 0.950 . S
C724 C722 1.391 . S
C724 C725 1.400 . S
C725 C719 1.491 . S
C725 C724 1.400 . S
C725 C726 1.398 . S
C726 H714 0.950 . S
C726 C725 1.398 . S
C726 C727 1.391 . S
C727 H715 0.950 . S
C727 C723 1.393 . S
C727 C726 1.391 . S
C257 C5 0.950 . S
C263 C94 1.213 . S
C277 C18 0.989 . S
C283 C143 1.061 . S
C303 C178 2.337 . S
C297 C30 2.384 . S
C317 C41 2.084 . S
C323 C217 2.046 . S
C343 C138 2.326 . S
C337 C7 2.149 . S
C363 C97 0.926 . S
C357 C16 0.871 . S
C383 C227 1.942 . S
C377 C29 1.911 . S
C403 C186 1.220 . S
C397 C38 1.144 . S
C417 C8 1.504 . S
C423 C214 1.577 . S
C443 C146 2.563 . S
C437 C27 2.400 . S
C457 C40 2.435 . S
C463 C107 2.453 . S
C477 C19 0.668 . S
C483 C183 0.691 . S
C503 C103 1.109 . S
C497 C51 0.958 . S
C517 C62 1.326 . S
C523 C134 1.308 . S
C537 C74 2.466 . S
C543 C187 2.428 . S
C557 C84 2.181 . S
C563 C226 2.244 . S
C577 C49 1.942 . S
C583 C147 2.563 1_556 S
C603 C106 0.956 . S
C597 C63 0.966 . S
C623 C218 1.797 . S
C617 C71 1.695 . S
C643 C177 1.370 . S
C637 C85 1.373 . S
C657 C52 1.510 . S
C663 C223 1.591 . S
C683 C137 2.621 . S
C677 C73 2.697 . S
C703 C98 1.982 . S
C697 C82 1.709 . S
C717 C60 0.801 . S
C723 C174 0.821 . S
