# Generated by pormake.
# Topology gar, (4,6)-cn, num edge types: 1
# Building blocks:
#     Node 0, Type 0, BuildingBlock: GALJAG_clean_sbu_0, # of connection points: 4
#     Node 1, Type 0, BuildingBlock: GALJAG_clean_sbu_0, # of connection points: 4
#     Node 2, Type 0, BuildingBlock: GALJAG_clean_sbu_0, # of connection points: 4
#     Node 3, Type 0, BuildingBlock: GALJAG_clean_sbu_0, # of connection points: 4
#     Node 4, Type 0, BuildingBlock: GALJAG_clean_sbu_0, # of connection points: 4
#     Node 5, Type 0, BuildingBlock: GALJAG_clean_sbu_0, # of connection points: 4
#     Node 6, Type 0, BuildingBlock: GALJAG_clean_sbu_0, # of connection points: 4
#     Node 7, Type 0, BuildingBlock: GALJAG_clean_sbu_0, # of connection points: 4
#     Node 8, Type 0, BuildingBlock: GALJAG_clean_sbu_0, # of connection points: 4
#     Node 9, Type 0, BuildingBlock: GALJAG_clean_sbu_0, # of connection points: 4
#     Node 10, Type 0, BuildingBlock: GALJAG_clean_sbu_0, # of connection points: 4
#     Node 11, Type 0, BuildingBlock: GALJAG_clean_sbu_0, # of connection points: 4
#     Node 12, Type 0, BuildingBlock: GALJAG_clean_sbu_0, # of connection points: 4
#     Node 13, Type 0, BuildingBlock: GALJAG_clean_sbu_0, # of connection points: 4
#     Node 14, Type 0, BuildingBlock: GALJAG_clean_sbu_0, # of connection points: 4
#     Node 15, Type 0, BuildingBlock: GALJAG_clean_sbu_0, # of connection points: 4
#     Node 16, Type 0, BuildingBlock: GALJAG_clean_sbu_0, # of connection points: 4
#     Node 17, Type 0, BuildingBlock: GALJAG_clean_sbu_0, # of connection points: 4
#     Node 18, Type 0, BuildingBlock: GALJAG_clean_sbu_0, # of connection points: 4
#     Node 19, Type 0, BuildingBlock: GALJAG_clean_sbu_0, # of connection points: 4
#     Node 20, Type 0, BuildingBlock: GALJAG_clean_sbu_0, # of connection points: 4
#     Node 21, Type 0, BuildingBlock: GALJAG_clean_sbu_0, # of connection points: 4
#     Node 22, Type 0, BuildingBlock: GALJAG_clean_sbu_0, # of connection points: 4
#     Node 23, Type 0, BuildingBlock: GALJAG_clean_sbu_0, # of connection points: 4
#     Node 24, Type 1, BuildingBlock: KUMBOL_clean_sbu_0, # of connection points: 6
#     Node 25, Type 1, BuildingBlock: KUMBOL_clean_sbu_0, # of connection points: 6
#     Node 26, Type 1, BuildingBlock: KUMBOL_clean_sbu_0, # of connection points: 6
#     Node 27, Type 1, BuildingBlock: KUMBOL_clean_sbu_0, # of connection points: 6
#     Node 28, Type 1, BuildingBlock: KUMBOL_clean_sbu_0, # of connection points: 6
#     Node 29, Type 1, BuildingBlock: KUMBOL_clean_sbu_0, # of connection points: 6
#     Node 30, Type 1, BuildingBlock: KUMBOL_clean_sbu_0, # of connection points: 6
#     Node 31, Type 1, BuildingBlock: KUMBOL_clean_sbu_0, # of connection points: 6
#     Node 32, Type 1, BuildingBlock: KUMBOL_clean_sbu_0, # of connection points: 6
#     Node 33, Type 1, BuildingBlock: KUMBOL_clean_sbu_0, # of connection points: 6
#     Node 34, Type 1, BuildingBlock: KUMBOL_clean_sbu_0, # of connection points: 6
#     Node 35, Type 1, BuildingBlock: KUMBOL_clean_sbu_0, # of connection points: 6
#     Node 36, Type 1, BuildingBlock: KUMBOL_clean_sbu_0, # of connection points: 6
#     Node 37, Type 1, BuildingBlock: KUMBOL_clean_sbu_0, # of connection points: 6
#     Node 38, Type 1, BuildingBlock: KUMBOL_clean_sbu_0, # of connection points: 6
#     Node 39, Type 1, BuildingBlock: KUMBOL_clean_sbu_0, # of connection points: 6
#     Edge 40, Type (0, 1), None
#     Edge 41, Type (0, 1), None
#     Edge 42, Type (0, 1), None
#     Edge 43, Type (0, 1), None
#     Edge 44, Type (0, 1), None
#     Edge 45, Type (0, 1), None
#     Edge 46, Type (0, 1), None
#     Edge 47, Type (0, 1), None
#     Edge 48, Type (0, 1), None
#     Edge 49, Type (0, 1), None
#     Edge 50, Type (0, 1), None
#     Edge 51, Type (0, 1), None
#     Edge 52, Type (0, 1), None
#     Edge 53, Type (0, 1), None
#     Edge 54, Type (0, 1), None
#     Edge 55, Type (0, 1), None
#     Edge 56, Type (0, 1), None
#     Edge 57, Type (0, 1), None
#     Edge 58, Type (0, 1), None
#     Edge 59, Type (0, 1), None
#     Edge 60, Type (0, 1), None
#     Edge 61, Type (0, 1), None
#     Edge 62, Type (0, 1), None
#     Edge 63, Type (0, 1), None
#     Edge 64, Type (0, 1), None
#     Edge 65, Type (0, 1), None
#     Edge 66, Type (0, 1), None
#     Edge 67, Type (0, 1), None
#     Edge 68, Type (0, 1), None
#     Edge 69, Type (0, 1), None
#     Edge 70, Type (0, 1), None
#     Edge 71, Type (0, 1), None
#     Edge 72, Type (0, 1), None
#     Edge 73, Type (0, 1), None
#     Edge 74, Type (0, 1), None
#     Edge 75, Type (0, 1), None
#     Edge 76, Type (0, 1), None
#     Edge 77, Type (0, 1), None
#     Edge 78, Type (0, 1), None
#     Edge 79, Type (0, 1), None
#     Edge 80, Type (0, 1), None
#     Edge 81, Type (0, 1), None
#     Edge 82, Type (0, 1), None
#     Edge 83, Type (0, 1), None
#     Edge 84, Type (0, 1), None
#     Edge 85, Type (0, 1), None
#     Edge 86, Type (0, 1), None
#     Edge 87, Type (0, 1), None
#     Edge 88, Type (0, 1), None
#     Edge 89, Type (0, 1), None
#     Edge 90, Type (0, 1), None
#     Edge 91, Type (0, 1), None
#     Edge 92, Type (0, 1), None
#     Edge 93, Type (0, 1), None
#     Edge 94, Type (0, 1), None
#     Edge 95, Type (0, 1), None
#     Edge 96, Type (0, 1), None
#     Edge 97, Type (0, 1), None
#     Edge 98, Type (0, 1), None
#     Edge 99, Type (0, 1), None
#     Edge 100, Type (0, 1), None
#     Edge 101, Type (0, 1), None
#     Edge 102, Type (0, 1), None
#     Edge 103, Type (0, 1), None
#     Edge 104, Type (0, 1), None
#     Edge 105, Type (0, 1), None
#     Edge 106, Type (0, 1), None
#     Edge 107, Type (0, 1), None
#     Edge 108, Type (0, 1), None
#     Edge 109, Type (0, 1), None
#     Edge 110, Type (0, 1), None
#     Edge 111, Type (0, 1), None
#     Edge 112, Type (0, 1), None
#     Edge 113, Type (0, 1), None
#     Edge 114, Type (0, 1), None
#     Edge 115, Type (0, 1), None
#     Edge 116, Type (0, 1), None
#     Edge 117, Type (0, 1), None
#     Edge 118, Type (0, 1), None
#     Edge 119, Type (0, 1), None
#     Edge 120, Type (0, 1), None
#     Edge 121, Type (0, 1), None
#     Edge 122, Type (0, 1), None
#     Edge 123, Type (0, 1), None
#     Edge 124, Type (0, 1), None
#     Edge 125, Type (0, 1), None
#     Edge 126, Type (0, 1), None
#     Edge 127, Type (0, 1), None
#     Edge 128, Type (0, 1), None
#     Edge 129, Type (0, 1), None
#     Edge 130, Type (0, 1), None
#     Edge 131, Type (0, 1), None
#     Edge 132, Type (0, 1), None
#     Edge 133, Type (0, 1), None
#     Edge 134, Type (0, 1), None
#     Edge 135, Type (0, 1), None
# Relax obj value: 0.238
# Max RMSD: 0.402
# Mean RMSD: 0.194
data_MOF--net-gar--node1-GALJAG_clean_sbu_0--node2-KUMBOL_clean_sbu_0--edge1-none
_symmetry_space_group_name_H-M    P1
_symmetry_Int_Tables_number       1
_symmetry_cell_setting            triclinic
loop_
_symmetry_equiv_pos_as_xyz
'x, y, z'
_cell_length_a     32.143568
_cell_length_b     26.092922
_cell_length_c     26.610984
_cell_angle_alpha  101.83937
_cell_angle_beta   94.967199
_cell_angle_gamma 101.60935
loop_
_atom_site_label
_atom_site_type_symbol
_atom_site_fract_x
_atom_site_fract_y
_atom_site_fract_z
_atom_type_partial_charge
In0 In 0.18898 0.41509 0.36237 0.0
O1 O 0.23081 0.36061 0.31739 0.0
O2 O 0.25854 0.44287 0.34057 0.0
C3 C 0.12976 0.405 0.28249 0.0
C4 C 0.15306 0.34721 0.42304 0.0
C5 C 0.17612 0.5088 0.42394 0.0
O6 O 0.16453 0.43988 0.29031 0.0
O7 O 0.12556 0.37494 0.31403 0.0
O8 O 0.20151 0.48146 0.43802 0.0
O9 O 0.16033 0.49226 0.37704 0.0
C10 C 0.26231 0.39759 0.31572 0.0
O11 O 0.18607 0.38467 0.43958 0.0
O12 O 0.14139 0.3412 0.37525 0.0
In13 In 0.0441 0.77685 0.72251 0.0
O14 O 0.04903 0.80966 0.64583 0.0
O15 O 0.09197 0.85145 0.71242 0.0
C16 C 0.05651 0.68355 0.65978 0.0
C17 C 0.10286 0.78481 0.80225 0.0
C18 C 0.97181 0.79604 0.77055 0.0
O19 O 0.03244 0.71239 0.64566 0.0
O20 O 0.07104 0.69836 0.70719 0.0
O21 O 1.00509 0.83154 0.77175 0.0
O22 O 0.97312 0.7514 0.74188 0.0
C23 C 0.0818 0.84695 0.66457 0.0
O24 O 0.10719 0.81552 0.7713 0.0
O25 O 0.06815 0.74972 0.79375 0.0
In26 In 0.69887 0.92127 0.86916 0.0
O27 O 0.7458 0.88101 0.81664 0.0
O28 O 0.77388 0.94659 0.87776 0.0
C29 C 0.63803 0.91506 0.79084 0.0
C30 C 0.66163 0.84794 0.92415 0.0
C31 C 0.68271 1.01354 0.92827 0.0
O32 O 0.67432 0.94712 0.79692 0.0
O33 O 0.63382 0.88442 0.82194 0.0
O34 O 0.70312 0.98264 0.94519 0.0
O35 O 0.6744 1.00214 0.8797 0.0
C36 C 0.78032 0.91201 0.84032 0.0
O37 O 0.69027 0.88949 0.9444 0.0
O38 O 0.6551 0.8406 0.87543 0.0
In39 In 0.53793 0.27492 0.21731 0.0
O40 O 0.53132 0.21406 0.13919 0.0
O41 O 0.56365 0.19554 0.20301 0.0
C42 C 0.5749 0.34757 0.16109 0.0
C43 C 0.46225 0.28907 0.26073 0.0
C44 C 0.5979 0.28031 0.29585 0.0
O45 O 0.54291 0.3093 0.1419 0.0
O46 O 0.5847 0.35191 0.20905 0.0
O47 O 0.60211 0.31197 0.26578 0.0
O48 O 0.56232 0.24689 0.28811 0.0
C49 C 0.5534 0.18385 0.15468 0.0
O50 O 0.49573 0.32552 0.26611 0.0
O51 O 0.4655 0.24592 0.23104 0.0
In52 In 0.18897 0.88312 0.1412 0.0
O53 O 0.17949 0.79573 0.07548 0.0
O54 O 0.1585 0.79508 0.147 0.0
C55 C 0.17094 0.9801 0.10434 0.0
C56 C 0.12973 0.87895 0.20788 0.0
C57 C 0.27229 0.89077 0.19731 0.0
O58 O 0.15544 0.93156 0.07982 0.0
O59 O 0.19793 0.97883 0.14171 0.0
O60 O 0.24314 0.91294 0.21437 0.0
O61 O 0.26211 0.86903 0.14913 0.0
C62 C 0.16232 0.76604 0.10444 0.0
O63 O 0.16934 0.88804 0.22281 0.0
O64 O 0.12074 0.87497 0.16005 0.0
In65 In 0.54795 0.81672 0.46376 0.0
O66 O 0.56526 0.80827 0.38108 0.0
O67 O 0.61587 0.8264 0.44278 0.0
C68 C 0.46318 0.81239 0.41214 0.0
C69 C 0.56666 0.71607 0.4958 0.0
C70 C 0.57916 0.93555 0.49869 0.0
O71 O 0.49229 0.79211 0.39258 0.0
O72 O 0.4741 0.83071 0.46075 0.0
O73 O 0.56436 0.90658 0.52951 0.0
O74 O 0.57937 0.90485 0.45554 0.0
C75 C 0.60523 0.81894 0.3946 0.0
O76 O 0.57198 0.76215 0.527 0.0
O77 O 0.54934 0.72053 0.45259 0.0
In78 In 0.68893 0.38489 0.64003 0.0
O79 O 0.6838 0.29678 0.57615 0.0
O80 O 0.6511 0.29692 0.63964 0.0
C81 C 0.67163 0.48292 0.60195 0.0
C82 C 0.62744 0.37911 0.70387 0.0
C83 C 0.77037 0.38907 0.70075 0.0
O84 O 0.66634 0.43584 0.57285 0.0
O85 O 0.68859 0.48074 0.64623 0.0
O86 O 0.74029 0.4098 0.71697 0.0
O87 O 0.76231 0.37089 0.65181 0.0
C88 C 0.66033 0.26733 0.60066 0.0
O89 O 0.66686 0.38936 0.72055 0.0
O90 O 0.61979 0.3743 0.65565 0.0
In91 In 0.049 0.31606 0.9645 0.0
O92 O 0.08311 0.26354 0.02238 0.0
O93 O 0.03848 0.21874 0.96199 0.0
C94 C 0.08103 0.43482 0.99982 0.0
C95 C 0.10372 0.31565 0.89201 0.0
C96 C 0.96378 0.31091 0.91394 0.0
O97 O 0.06163 0.40666 0.02859 0.0
O98 O 0.08493 0.40338 0.95862 0.0
O99 O 0.993 0.29127 0.89379 0.0
O100 O 0.97525 0.32997 0.96242 0.0
C101 C 0.06613 0.21531 0.99765 0.0
O102 O 0.06366 0.30769 0.88052 0.0
O103 O 0.11545 0.32094 0.93956 0.0
In104 In 0.49571 0.07202 0.33878 0.0
O105 O 0.52768 0.05105 0.26852 0.0
O106 O 0.5229 0.99785 0.31979 0.0
C107 C 0.54893 0.12641 0.42271 0.0
C108 C 0.45241 0.11925 0.27984 0.0
C109 C 0.44115 0.98532 0.34917 0.0
O110 O 0.56127 0.12004 0.37872 0.0
O111 O 0.50887 0.11522 0.42245 0.0
O112 O 0.42958 1.01558 0.32211 0.0
O113 O 0.47799 1.0021 0.37447 0.0
C114 C 0.53318 1.00709 0.2776 0.0
O115 O 0.44224 0.11432 0.32386 0.0
O116 O 0.48724 0.10704 0.26959 0.0
In117 In 0.32407 0.26063 0.53444 0.0
O118 O 0.3337 0.33006 0.61568 0.0
O119 O 0.33923 0.25174 0.61711 0.0
C120 C 0.35787 0.29759 0.44533 0.0
C121 C 0.38163 0.20218 0.54225 0.0
C122 C 0.23886 0.20025 0.53016 0.0
O123 O 0.35867 0.32826 0.48945 0.0
O124 O 0.33668 0.251 0.44549 0.0
O125 O 0.27156 0.18118 0.52415 0.0
O126 O 0.24756 0.25074 0.53299 0.0
C127 C 0.3409 0.29774 0.64381 0.0
O128 O 0.34316 0.18114 0.52306 0.0
O129 O 0.39153 0.25286 0.55347 0.0
In130 In 0.23562 0.0693 0.79389 0.0
O131 O 0.17372 0.08283 0.72938 0.0
O132 O 0.22179 0.05829 0.69547 0.0
C133 C 0.18483 0.07443 0.89344 0.0
C134 C 0.28552 0.97016 0.789 0.0
C135 C 0.29293 0.1802 0.80166 0.0
O136 O 0.17115 0.0468 0.84697 0.0
O137 O 0.22317 0.09816 0.88987 0.0
O138 O 0.30582 0.13671 0.79885 0.0
O139 O 0.25299 0.16852 0.80356 0.0
C140 C 0.18758 0.0746 0.68544 0.0
O141 O 0.29899 1.02033 0.8113 0.0
O142 O 0.24642 0.96943 0.77193 0.0
In143 In 0.42678 0.04492 1.00252 0.0
O144 O 0.40525 0.97742 0.03783 0.0
O145 O 0.45429 0.04381 0.0816 0.0
C146 C 0.39982 0.97789 0.91572 0.0
C147 C 0.3778 0.11762 0.0161 0.0
C148 C 0.50995 0.0477 1.00354 0.0
O149 O 0.38283 0.973 0.95586 0.0
O150 O 0.42683 1.0206 0.91826 0.0
O151 O 0.4961 0.0874 0.02618 0.0
O152 O 0.48213 1.00874 0.9764 0.0
C153 C 0.43444 0.99581 0.07543 0.0
O154 O 0.41659 0.12933 1.00902 0.0
O155 O 0.36363 0.069 0.01563 0.0
In156 In 0.40763 0.4362 0.05576 0.0
O157 O 0.36499 0.36573 0.09415 0.0
O158 O 0.39548 0.43669 0.144 0.0
C159 C 0.38414 0.39301 0.94722 0.0
C160 C 0.36586 0.51437 0.05649 0.0
C161 C 0.49424 0.49817 0.05905 0.0
O162 O 0.41118 0.37578 0.97332 0.0
O163 O 0.36818 0.42605 0.97618 0.0
O164 O 0.46094 0.51635 0.06321 0.0
O165 O 0.48557 0.4477 0.05743 0.0
C166 C 0.36946 0.39205 0.14069 0.0
O167 O 0.40582 0.52433 0.06855 0.0
O168 O 0.34713 0.46542 0.04734 0.0
In169 In 0.81455 0.13697 0.07798 0.0
O170 O 0.81364 0.04823 0.06196 0.0
O171 O 0.87126 0.10083 0.09796 0.0
C172 C 0.72997 0.13053 0.06171 0.0
C173 C 0.83184 0.21464 0.1622 0.0
C174 C 0.826 0.19285 1.00643 0.0
O175 O 0.75008 0.10949 0.02741 0.0
O176 O 0.75211 0.15204 0.10496 0.0
O177 O 0.85208 0.20338 0.04709 0.0
O178 O 0.80418 0.14541 0.99549 0.0
C179 C 0.85307 0.05362 0.07497 0.0
O180 O 0.85582 0.21288 0.12699 0.0
O181 O 0.80087 0.17507 0.15639 0.0
In182 In 0.2437 0.6355 0.26768 0.0
O183 O 0.29264 0.58477 0.27392 0.0
O184 O 0.2585 0.60425 0.33802 0.0
C185 C 0.30322 0.7222 0.26566 0.0
C186 C 0.19411 0.58387 0.17854 0.0
C187 C 0.20101 0.69793 0.32509 0.0
O188 O 0.30947 0.69259 0.29595 0.0
O189 O 0.26924 0.70468 0.23431 0.0
O190 O 0.20352 0.65216 0.33233 0.0
O191 O 0.2169 0.70998 0.28648 0.0
C192 C 0.28907 0.58548 0.32104 0.0
O193 O 0.18015 0.58438 0.22148 0.0
O194 O 0.23397 0.60124 0.18166 0.0
In195 In 0.90956 0.93719 0.55604 0.0
O196 O 0.87597 0.86654 0.59823 0.0
O197 O 0.89885 0.94262 0.64451 0.0
C198 C 0.88489 0.89196 0.44822 0.0
C199 C 0.86639 1.01382 0.55514 0.0
C200 C 0.99436 0.99836 0.55937 0.0
O201 O 0.91461 0.87875 0.47391 0.0
O202 O 0.86656 0.92177 0.47754 0.0
O203 O 0.96154 1.01711 0.56492 0.0
O204 O 0.98593 0.94775 0.55591 0.0
C205 C 0.87783 0.89572 0.64316 0.0
O206 O 0.90662 1.02422 0.56387 0.0
O207 O 0.848 0.96511 0.54998 0.0
In208 In 0.99795 0.12837 0.29616 0.0
O209 O 0.06426 0.15149 0.24711 0.0
O210 O 1.01305 0.09958 0.20222 0.0
C211 C 0.04557 0.12499 0.4045 0.0
C212 C 0.94761 0.22547 0.29492 0.0
C213 C 0.93948 1.01862 0.28981 0.0
O214 O 0.05833 0.11268 0.36042 0.0
O215 O 1.01269 0.1438 0.39443 0.0
O216 O 0.92805 0.06325 0.29759 0.0
O217 O 0.97834 1.0287 0.28217 0.0
C218 C 0.05168 0.12362 0.20063 0.0
O219 O 0.93628 0.17582 0.27042 0.0
O220 O 0.98531 0.22712 0.31736 0.0
In221 In 0.31031 0.64789 0.5727 0.0
O222 O 0.32011 0.56413 0.56508 0.0
O223 O 0.37353 0.62606 0.56229 0.0
C224 C 0.22578 0.63191 0.56318 0.0
C225 C 0.33043 0.72066 0.65947 0.0
C226 C 0.30591 0.70126 0.50165 0.0
O227 O 0.24485 0.60691 0.53015 0.0
O228 O 0.24922 0.66072 0.60342 0.0
O229 O 0.33604 0.71588 0.53853 0.0
O230 O 0.28515 0.65354 0.49412 0.0
C231 C 0.35877 0.5769 0.55843 0.0
O232 O 0.34129 0.72957 0.6172 0.0
O233 O 0.31269 0.67298 0.659 0.0
In234 In 0.49786 0.62638 0.79348 0.0
O235 O 0.43651 0.67448 0.76885 0.0
O236 O 0.48638 0.72539 0.81483 0.0
C237 C 0.43885 0.51677 0.78784 0.0
C238 C 0.55098 0.62148 0.69705 0.0
C239 C 0.54614 0.62471 0.90213 0.0
O240 O 0.42776 0.56162 0.79584 0.0
O241 O 0.47759 0.52662 0.77967 0.0
O242 O 0.55843 0.61122 0.85792 0.0
O243 O 0.51328 0.64348 0.89189 0.0
C244 C 0.44855 0.72411 0.79312 0.0
O245 O 0.56419 0.64744 0.74408 0.0
O246 O 0.51186 0.5991 0.6984 0.0
In247 In 0.73735 0.13238 0.76699 0.0
O248 O 0.77789 0.07204 0.76404 0.0
O249 O 0.75376 0.09784 0.83475 0.0
C250 C 0.8009 0.21686 0.76844 0.0
C251 C 0.68962 0.08344 0.67722 0.0
C252 C 0.69664 0.19698 0.82381 0.0
O253 O 0.80314 0.1879 0.80044 0.0
O254 O 0.76886 0.1995 0.73408 0.0
O255 O 0.71041 0.20667 0.78322 0.0
O256 O 0.69914 0.15174 0.83255 0.0
C257 C 0.77997 0.07438 0.81213 0.0
O258 O 0.67446 0.08264 0.7194 0.0
O259 O 0.72936 0.10206 0.68145 0.0
In260 In 0.82902 0.77278 0.03579 0.0
O261 O 0.85068 0.69434 0.0195 0.0
O262 O 0.89567 0.76508 0.06176 0.0
C263 C 0.74236 0.7064 0.02914 0.0
C264 C 0.8435 0.80536 0.14538 0.0
C265 C 0.87068 0.82052 0.95345 0.0
O266 O 0.77604 0.68942 0.02234 0.0
O267 O 0.75046 0.75714 0.03241 0.0
O268 O 0.85951 0.84867 0.99316 0.0
O269 O 0.8563 0.77145 0.9538 0.0
C270 C 0.88759 0.71481 0.04457 0.0
O271 O 0.83771 0.83944 0.11876 0.0
O272 O 0.84166 0.76008 0.11726 0.0
In273 In 0.99268 0.56846 0.84105 0.0
O274 O 0.94108 0.61484 0.82893 0.0
O275 O 0.9825 0.60203 0.77125 0.0
C276 C 0.93729 0.48231 0.85234 0.0
C277 C 0.03082 0.50438 0.77965 0.0
C278 C 0.04752 0.62214 0.92436 0.0
O279 O 0.92677 0.51107 0.82295 0.0
O280 O 0.97352 0.50023 0.87897 0.0
O281 O 0.05906 0.61527 0.87996 0.0
O282 O 1.00756 0.61115 0.92504 0.0
C283 C 0.94951 0.61782 0.78382 0.0
O284 O 0.02662 0.54931 0.77193 0.0
O285 O 1.01839 0.49335 0.82034 0.0
In286 In 0.92581 0.53952 0.50611 0.0
O287 O 0.90606 0.46922 0.53686 0.0
O288 O 0.94867 0.53822 0.58677 0.0
C289 C 0.89756 0.47755 0.41608 0.0
C290 C 0.87985 0.61382 0.52607 0.0
C291 C 1.00846 0.54122 0.5074 0.0
O292 O 0.87674 0.47544 0.45386 0.0
O293 O 0.92957 0.51563 0.42262 0.0
O294 O 0.99487 0.58226 0.52702 0.0
O295 O 0.98045 0.50055 0.48372 0.0
C296 C 0.93168 0.4889 0.57759 0.0
O297 O 0.91848 0.62535 0.51827 0.0
O298 O 0.86425 0.56469 0.52168 0.0
In299 In 0.73589 0.57071 0.29151 0.0
O300 O 0.79754 0.52022 0.30985 0.0
O301 O 0.7451 0.47064 0.26819 0.0
C302 C 0.79344 0.68152 0.30032 0.0
C303 C 0.68858 0.57618 0.18304 0.0
C304 C 0.68564 0.57522 0.39072 0.0
O305 O 0.8061 0.63776 0.2961 0.0
O306 O 0.75362 0.67008 0.30305 0.0
O307 O 0.67106 0.55051 0.3436 0.0
O308 O 0.72468 0.59678 0.38807 0.0
C309 C 0.78366 0.47052 0.2864 0.0
O310 O 0.6741 0.58354 0.22665 0.0
O311 O 0.72314 0.56075 0.19336 0.0
Gd312 Gd 0.16528 0.14412 0.07676 0.0
Gd313 Gd 0.07347 0.04938 0.02096 0.0
C314 C 0.04373 0.88784 0.06257 0.0
C315 C 0.03312 0.82506 0.97939 0.0
C316 C 0.0624 0.92075 0.98681 0.0
C317 C 0.06032 0.93054 0.03944 0.0
C318 C 0.05007 0.8673 0.95665 0.0
C319 C 0.02968 0.83539 0.03222 0.0
C320 C 0.04092 0.89921 0.11551 0.0
C321 C 0.0578 0.95107 0.14477 0.0
N322 N 0.0749 0.98159 0.06817 0.0
C323 C 0.07615 0.99104 0.12085 0.0
H324 H 0.09154 1.02916 0.14537 0.0
C325 C 0.08792 0.95129 0.91583 0.0
N326 N 0.07698 0.96313 0.96541 0.0
C327 C 0.07641 0.89923 0.88481 0.0
C328 C 0.05551 0.85748 0.90454 0.0
H329 H 0.1026 0.9804 0.89596 0.0
H330 H 1.01674 0.80244 0.04946 0.0
H331 H 0.14126 0.16459 0.95039 0.0
H332 H 0.02683 0.868 0.13423 0.0
H333 H 0.0564 0.96114 0.18577 0.0
H334 H 0.02306 0.78414 0.95653 0.0
H335 H 0.14141 0.21579 0.20216 0.0
H336 H 0.20834 0.32362 0.95762 0.0
H337 H 0.17399 0.23069 0.90705 0.0
H338 H 0.2151 0.41028 0.13481 0.0
H339 H 0.08265 0.89183 0.84495 0.0
H340 H 0.04518 0.8175 0.87979 0.0
H341 H 0.22057 0.39021 0.04182 0.0
H342 H 0.15984 0.3053 0.25059 0.0
N343 N 0.16591 0.2108 0.02699 0.0
C344 C 0.19555 0.29263 0.97724 0.0
C345 C 0.17654 0.24099 0.9487 0.0
C346 C 0.19491 0.30466 0.03064 0.0
C347 C 0.17975 0.26237 0.05497 0.0
C348 C 0.15993 0.20157 0.97406 0.0
N349 N 0.16374 0.23173 0.13074 0.0
C350 C 0.1774 0.27341 0.10779 0.0
C351 C 0.16526 0.29717 0.21048 0.0
C352 C 0.18428 0.33851 0.18895 0.0
C353 C 0.15446 0.24454 0.18097 0.0
C354 C 0.18921 0.3274 0.13672 0.0
H355 H 0.19391 0.37908 0.21252 0.0
O356 O 0.2252 0.11863 0.06632 0.0
O357 O 0.1357 0.055 0.0669 0.0
O358 O 0.05598 0.08666 0.10375 0.0
O359 O 0.11993 0.13815 0.14699 0.0
O360 O 0.19066 0.08003 0.1137 0.0
O361 O 0.22667 0.19995 0.10344 0.0
O362 O 1.01783 0.0559 0.06137 0.0
O363 O 0.10208 0.13846 0.03092 0.0
O364 O 0.18237 0.11195 0.9918 0.0
O365 O 0.1182 0.05845 0.95016 0.0
O366 O 0.04563 0.11361 0.98636 0.0
O367 O 1.01148 0.99812 0.98923 0.0
C368 C 0.1637 1.03584 0.09205 0.0
C369 C 0.20545 0.36898 0.11282 0.0
C370 C 0.20857 0.35758 0.05995 0.0
C371 C 0.24926 0.16532 0.08815 0.0
C372 C 0.29007 0.18287 0.06801 0.0
C373 C 0.31426 0.2353 0.08836 0.0
C374 C 0.30991 0.14483 0.03939 0.0
C375 C 0.35382 0.15881 0.03393 0.0
C376 C 0.35768 0.24829 0.08317 0.0
C377 C 0.37712 0.21112 0.05538 0.0
C378 C 0.07747 0.11793 0.14847 0.0
C379 C 0.07315 0.15801 1.0077 0.0
C380 C 0.99209 1.0177 0.027 0.0
C381 C 0.94813 1.02347 0.01515 0.0
C382 C 0.93328 1.0269 0.96562 0.0
C383 C 0.92022 1.02493 0.05318 0.0
C384 C 0.87683 1.02436 0.03912 0.0
C385 C 0.88973 1.02126 0.95116 0.0
C386 C 0.86123 1.01616 0.98662 0.0
C387 C 0.16049 0.07974 0.9474 0.0
H388 H 0.3005 0.26493 0.1118 0.0
H389 H 0.29254 0.10336 0.02582 0.0
H390 H 0.37782 0.28559 0.10402 0.0
H391 H 0.41133 0.22232 0.05461 0.0
H392 H 0.95581 1.03467 0.93909 0.0
H393 H 0.9326 1.02978 0.0935 0.0
H394 H 0.87747 1.02331 0.91327 0.0
H395 H 0.82801 1.01512 0.974 0.0
Gd396 Gd 0.33634 0.87359 0.35331 0.0
Gd397 Gd 0.401 0.84044 0.25941 0.0
C398 C 0.39489 0.71617 0.11101 0.0
C399 C 0.47077 0.72737 0.10619 0.0
C400 C 0.44544 0.76385 0.18568 0.0
C401 C 0.40447 0.75026 0.16073 0.0
C402 C 0.47924 0.75069 0.15956 0.0
C403 C 0.42834 0.7058 0.08309 0.0
C404 C 0.35218 0.6928 0.0919 0.0
C405 C 0.32071 0.70498 0.12183 0.0
N406 N 0.37368 0.7678 0.18638 0.0
C407 C 0.33167 0.74689 0.16592 0.0
H408 H 0.30597 0.76192 0.18235 0.0
C409 C 0.49104 0.7975 0.26476 0.0
N410 N 0.45208 0.79016 0.23582 0.0
C411 C 0.5249 0.78073 0.24172 0.0
C412 C 0.51984 0.76093 0.18812 0.0
H413 H 0.49734 0.82053 0.30429 0.0
H414 H 0.42173 0.68076 0.04424 0.0
H415 H 0.42765 0.95043 0.43324 0.0
H416 H 0.34321 0.66528 0.05474 0.0
H417 H 0.28787 0.68393 0.10966 0.0
H418 H 0.49631 0.7213 0.0836 0.0
H419 H 0.23952 0.87659 0.29454 0.0
H420 H 0.38379 0.05345 0.54762 0.0
H421 H 0.44376 1.03108 0.50517 0.0
H422 H 0.23357 0.9912 0.50609 0.0
H423 H 0.55571 0.78675 0.26467 0.0
H424 H 0.5471 0.75239 0.16977 0.0
H425 H 0.30491 0.03829 0.54898 0.0
H426 H 0.17805 0.90805 0.32701 0.0
N427 N 0.36265 0.95512 0.41493 0.0
C428 C 0.37778 1.02919 0.50917 0.0
C429 C 0.4116 1.0137 0.48625 0.0
C430 C 0.33633 1.00869 0.48404 0.0
C431 C 0.33027 0.97591 0.43383 0.0
C432 C 0.40272 0.97124 0.44265 0.0
N433 N 0.28464 0.92505 0.3586 0.0
C434 C 0.28961 0.95754 0.40641 0.0
C435 C 0.20918 0.9212 0.35021 0.0
C436 C 0.21313 0.94604 0.40245 0.0
C437 C 0.24479 0.90688 0.33017 0.0
C438 C 0.25379 0.9645 0.43142 0.0
H439 H 0.18455 0.95078 0.41946 0.0
O440 O 0.27699 0.82841 0.36982 0.0
O441 O 0.35462 0.80443 0.30452 0.0
O442 O 0.33725 0.85285 0.21697 0.0
O443 O 0.31512 0.90812 0.28406 0.0
O444 O 0.29044 0.80712 0.29713 0.0
O445 O 0.33057 0.86661 0.4313 0.0
O446 O 0.46096 0.88171 0.24154 0.0
O447 O 0.38579 0.90809 0.31312 0.0
O448 O 0.39666 0.85035 0.39535 0.0
O449 O 0.42389 0.80407 0.32625 0.0
O450 O 0.44776 0.8966 0.32363 0.0
O451 O 0.40122 0.90195 0.21673 0.0
C452 C 0.31791 0.7797 0.28272 0.0
C453 C 0.26003 0.98857 0.48455 0.0
C454 C 0.30093 1.01519 0.50938 0.0
C455 C 0.28986 0.84343 0.41931 0.0
C456 C 0.27259 0.80913 0.45079 0.0
C457 C 0.24633 0.82734 0.48665 0.0
C458 C 0.28923 0.7646 0.4526 0.0
C459 C 0.28233 0.74049 0.49331 0.0
C460 C 0.23835 0.80168 0.52679 0.0
C461 C 0.25718 0.75898 0.53088 0.0
C462 C 0.311 0.88494 0.23365 0.0
C463 C 0.4227 0.92833 0.33677 0.0
C464 C 0.4425 0.91002 0.21598 0.0
C465 C 0.45634 0.91504 0.16716 0.0
C466 C 0.4809 0.88221 0.1407 0.0
C467 C 0.44356 0.95462 0.14662 0.0
C468 C 0.45289 0.95963 0.09847 0.0
C469 C 0.49177 0.88892 0.09251 0.0
C470 C 0.4771 0.92725 0.07075 0.0
C471 C 0.42452 0.82072 0.37734 0.0
H472 H 0.23427 0.86303 0.48532 0.0
H473 H 0.31067 0.75219 0.42549 0.0
H474 H 0.21927 0.81619 0.55575 0.0
H475 H 0.25342 0.74198 0.56433 0.0
H476 H 0.49258 0.85295 0.15764 0.0
H477 H 0.42461 0.98006 0.16719 0.0
H478 H 0.51084 0.86404 0.07189 0.0
H479 H 0.48407 0.93118 0.03246 0.0
Gd480 Gd 0.58181 0.11166 0.58537 0.0
Gd481 Gd 0.66155 0.0964 0.51347 0.0
C482 C 0.7609 0.20059 0.45395 0.0
C483 C 0.74752 0.15916 0.36278 0.0
C484 C 0.69583 0.13367 0.41823 0.0
C485 C 0.72147 0.17027 0.46027 0.0
C486 C 0.70665 0.13161 0.36821 0.0
C487 C 0.77532 0.19079 0.40605 0.0
C488 C 0.78526 0.23831 0.49631 0.0
C489 C 0.76986 0.24578 0.54379 0.0
N490 N 0.70995 0.17261 0.50801 0.0
C491 C 0.73321 0.20978 0.54979 0.0
H492 H 0.72591 0.20918 0.5884 0.0
C493 C 0.63516 0.06219 0.38659 0.0
N494 N 0.66173 0.09835 0.42673 0.0
C495 C 0.64157 0.06385 0.33559 0.0
C496 C 0.67751 0.09875 0.32628 0.0
H497 H 0.60878 1.03299 0.39405 0.0
H498 H 0.80747 0.20876 0.40215 0.0
H499 H 0.52173 1.00184 0.50021 0.0
H500 H 0.81591 0.26116 0.49263 0.0
H501 H 0.78827 0.27576 0.57666 0.0
H502 H 0.75919 0.15464 0.32631 0.0
H503 H 0.62983 0.1617 0.71055 0.0
H504 H 0.42609 0.93597 0.58345 0.0
H505 H 0.46058 0.92878 0.50401 0.0
H506 H 0.46921 0.03933 0.7558 0.0
H507 H 0.62039 1.0364 0.30347 0.0
H508 H 0.68307 0.09835 0.28673 0.0
H509 H 0.42632 0.98634 0.67457 0.0
H510 H 0.61105 0.15198 0.79643 0.0
N511 N 0.53112 1.03436 0.58168 0.0
C512 C 0.45632 0.96219 0.58364 0.0
C513 C 0.4756 0.95866 0.5386 0.0
C514 C 0.47669 0.99972 0.62857 0.0
C515 C 0.51644 1.03239 0.62729 0.0
C516 C 0.51134 0.99857 0.53713 0.0
N517 N 0.57619 0.10065 0.66926 0.0
C518 C 0.54017 0.0653 0.67251 0.0
C519 C 0.59109 0.12748 0.76169 0.0
C520 C 0.55308 0.09292 0.76541 0.0
C521 C 0.60148 0.13261 0.71292 0.0
C522 C 0.52578 0.06368 0.72041 0.0
H523 H 0.54471 0.09132 0.80333 0.0
O524 O 0.5487 0.1673 0.62961 0.0
O525 O 0.63377 0.1656 0.55398 0.0
O526 O 0.68064 0.11096 0.59896 0.0
O527 O 0.62147 0.06672 0.62542 0.0
O528 O 0.62902 0.18785 0.63013 0.0
O529 O 0.52627 0.13089 0.54879 0.0
O530 O 0.70094 0.04484 0.47772 0.0
O531 O 0.60403 0.04407 0.53518 0.0
O532 O 0.55865 0.09817 0.50084 0.0
O533 O 0.61857 0.1349 0.46888 0.0
O534 O 0.63378 1.0069 0.48026 0.0
O535 O 0.72169 0.09512 0.55585 0.0
C536 C 0.64793 0.20457 0.59415 0.0
C537 C 0.48362 1.03627 0.7208 0.0
C538 C 0.45878 1.00601 0.67452 0.0
C539 C 0.52018 0.16281 0.59029 0.0
C540 C 0.4755 0.15852 0.59832 0.0
C541 C 0.45661 0.13031 0.6331 0.0
C542 C 0.45045 0.18052 0.5668 0.0
C543 C 0.40665 0.17331 0.56913 0.0
C544 C 0.41253 0.12243 0.63465 0.0
C545 C 0.38774 0.14509 0.60384 0.0
C546 C 0.66314 0.08157 0.62942 0.0
C547 C 0.60471 0.99607 0.50901 0.0
C548 C 0.73027 0.05983 0.51818 0.0
C549 C 0.7749 0.06615 0.50967 0.0
C550 C 0.79119 0.08781 0.46951 0.0
C551 C 0.80133 0.04679 0.54186 0.0
C552 C 0.84396 0.04944 0.53445 0.0
C553 C 0.83478 0.09447 0.46472 0.0
C554 C 0.86125 0.07514 0.49702 0.0
C555 C 0.57674 0.12361 0.46775 0.0
H556 H 0.47557 0.11429 0.65855 0.0
H557 H 0.46499 0.20314 0.54034 0.0
H558 H 0.39692 0.09748 0.65825 0.0
H559 H 0.35376 0.13992 0.60663 0.0
H560 H 0.77032 0.09816 0.44142 0.0
H561 H 0.78807 1.02663 0.57071 0.0
H562 H 0.84785 0.1129 0.43504 0.0
H563 H 0.89424 0.07692 0.49035 0.0
Gd564 Gd 0.41099 0.32545 0.79016 0.0
Gd565 Gd 0.3196 0.37175 0.79974 0.0
C566 C 0.22186 0.39233 0.67635 0.0
C567 C 0.21007 0.47952 0.71489 0.0
C568 C 0.26835 0.44706 0.75275 0.0
C569 C 0.25578 0.39924 0.71624 0.0
C570 C 0.24604 0.488 0.7517 0.0
C571 C 0.19898 0.43244 0.67615 0.0
C572 C 0.21058 0.34428 0.6391 0.0
C573 C 0.23017 0.30279 0.64502 0.0
N574 N 0.27471 0.35837 0.72142 0.0
C575 C 0.26028 0.30938 0.68821 0.0
H576 H 0.27192 0.2751 0.69472 0.0
C577 C 0.31229 0.49875 0.82958 0.0
N578 N 0.29978 0.45199 0.79199 0.0
C579 C 0.29334 0.54193 0.82733 0.0
C580 C 0.25955 0.53578 0.78887 0.0
H581 H 0.33681 0.50299 0.86143 0.0
H582 H 0.17305 0.42747 0.64581 0.0
H583 H 0.457 0.41992 0.89845 0.0
H584 H 0.18582 0.33829 0.60685 0.0
H585 H 0.22078 0.26517 0.61735 0.0
H586 H 0.19129 0.50963 0.71546 0.0
H587 H 0.38872 0.19119 0.73363 0.0
H588 H 0.55273 0.36048 0.97497 0.0
H589 H 0.51253 0.4307 0.97167 0.0
H590 H 0.54716 0.19109 0.86229 0.0
H591 H 0.30386 0.57943 0.8557 0.0
H592 H 0.24442 0.56822 0.78692 0.0
H593 H 0.56687 0.27339 0.9318 0.0
H594 H 0.4233 0.11534 0.73828 0.0
N595 N 0.45833 0.33886 0.8666 0.0
C596 C 0.52655 0.35421 0.94437 0.0
C597 C 0.50393 0.39396 0.94253 0.0
C598 C 0.51563 0.30714 0.9058 0.0
C599 C 0.47986 0.29955 0.86834 0.0
C600 C 0.47144 0.38685 0.90163 0.0
N601 N 0.43199 0.2455 0.79662 0.0
C602 C 0.46676 0.25194 0.83182 0.0
C603 C 0.43643 0.1546 0.76261 0.0
C604 C 0.47445 0.16303 0.79487 0.0
C605 C 0.41653 0.19723 0.76179 0.0
C606 C 0.49018 0.21174 0.83019 0.0
H607 H 0.48981 0.1305 0.79475 0.0
O608 O 0.44365 0.30153 0.72406 0.0
O609 O 0.36119 0.34911 0.73914 0.0
O610 O 0.30032 0.27668 0.78982 0.0
O611 O 0.36346 0.25182 0.80928 0.0
O612 O 0.37295 0.27337 0.71691 0.0
O613 O 0.47322 0.37302 0.78332 0.0
O614 O 0.28338 0.39571 0.8625 0.0
O615 O 0.36919 0.34784 0.85061 0.0
O616 O 0.43089 0.4203 0.79981 0.0
O617 O 0.36783 0.44648 0.78293 0.0
O618 O 0.35662 0.42222 0.87474 0.0
O619 O 0.25755 0.32222 0.80441 0.0
C620 C 0.35334 0.30696 0.70217 0.0
C621 C 0.52802 0.221 0.86421 0.0
C622 C 0.53983 0.26803 0.90308 0.0
C623 C 0.47769 0.34006 0.7412 0.0
C624 C 0.51964 0.32555 0.73944 0.0
C625 C 0.52404 0.27339 0.74022 0.0
C626 C 0.55553 0.36365 0.7339 0.0
C627 C 0.59524 0.3498 0.72977 0.0
C628 C 0.5642 0.26111 0.74149 0.0
C629 C 0.59976 0.29908 0.73624 0.0
C630 C 0.3204 0.23883 0.80059 0.0
C631 C 0.37697 0.38893 0.88873 0.0
C632 C 0.25074 0.35528 0.84501 0.0
C633 C 0.20747 0.36642 0.84431 0.0
C634 C 0.19953 0.41453 0.83467 0.0
C635 C 0.17396 0.32964 0.85681 0.0
C636 C 0.13347 0.34143 0.86085 0.0
C637 C 0.15841 0.42392 0.83337 0.0
C638 C 0.12562 0.38801 0.84719 0.0
C639 C 0.41096 0.45864 0.79005 0.0
H640 H 0.49645 0.24173 0.73838 0.0
H641 H 0.55191 0.40278 0.73004 0.0
H642 H 0.56718 0.22112 0.74344 0.0
H643 H 0.62976 0.28691 0.73195 0.0
H644 H 0.22521 0.44584 0.83054 0.0
H645 H 0.18024 0.29353 0.86592 0.0
H646 H 0.15264 0.46065 0.82476 0.0
H647 H 0.09537 0.39915 0.85212 0.0
Gd648 Gd 0.13319 0.04477 0.51607 0.0
Gd649 Gd 0.0991 0.15508 0.57338 0.0
C650 C 0.1267 0.18335 0.75061 0.0
C651 C 0.05621 0.1588 0.77612 0.0
C652 C 0.06472 0.15312 0.68492 0.0
C653 C 0.10841 0.16971 0.69801 0.0
C654 C 0.03806 0.147 0.72402 0.0
C655 C 0.10045 0.1776 0.78946 0.0
C656 C 0.17092 0.20244 0.7627 0.0
C657 C 0.19589 0.20606 0.72287 0.0
N658 N 0.13314 0.17382 0.65959 0.0
C659 C 0.17644 0.19192 0.67147 0.0
H660 H 0.19622 0.19196 0.641 0.0
C661 C 1.00432 0.13336 0.62189 0.0
N662 N 0.04814 0.14544 0.63449 0.0
C663 C 0.97685 0.12405 0.65866 0.0
C664 C 0.99379 0.13078 0.70999 0.0
H665 H 0.98986 0.12973 0.58272 0.0
H666 H 0.11403 0.18756 0.8299 0.0
H667 H 0.03357 1.00974 0.45321 0.0
H668 H 0.18614 0.21321 0.80249 0.0
H669 H 0.23023 0.21794 0.73167 0.0
H670 H 0.03622 0.15456 0.80646 0.0
H671 H 0.24194 0.08163 0.49908 0.0
H672 H 0.03744 0.97857 0.29029 0.0
H673 H 0.99641 0.98328 0.36433 0.0
H674 H 0.18526 1.03492 0.27607 0.0
H675 H 0.94248 0.11333 0.64751 0.0
H676 H 0.97239 0.12515 0.7387 0.0
H677 H 0.1077 0.99962 0.25791 0.0
H678 H 0.28422 0.09814 0.43085 0.0
N679 N 0.0958 1.02385 0.43096 0.0
C680 C 0.05407 0.99111 0.32942 0.0
C681 C 0.03084 0.99229 0.3711 0.0
C682 C 0.09843 1.00883 0.3387 0.0
C683 C 0.11872 1.02527 0.39056 0.0
C684 C 0.05221 1.00754 0.42161 0.0
N685 N 0.18101 0.05644 0.45102 0.0
C686 C 0.16237 0.04388 0.40089 0.0
C687 C 0.24987 0.08322 0.42161 0.0
C688 C 0.23086 0.06973 0.37057 0.0
C689 C 0.22485 0.07462 0.4608 0.0
C690 C 0.18687 0.04867 0.35946 0.0
H691 H 0.2505 0.07473 0.34003 0.0
O692 O 0.15909 0.97299 0.50299 0.0
O693 O 0.13999 0.09629 0.59893 0.0
O694 O 0.16168 0.18657 0.54191 0.0
O695 O 0.1923 0.11535 0.54022 0.0
O696 O 0.17663 0.04072 0.58789 0.0
O697 O 0.09465 0.96659 0.51987 0.0
O698 O 0.07252 0.22651 0.58538 0.0
O699 O 0.09252 0.10357 0.49091 0.0
O700 O 0.07122 1.01289 0.54796 0.0
O701 O 0.04028 0.08406 0.55155 0.0
O702 O 0.05648 0.15991 0.50143 0.0
O703 O 0.13819 0.23355 0.57213 0.0
C704 C 0.16518 0.07241 0.6258 0.0
C705 C 0.16688 1.03207 0.30807 0.0
C706 C 0.12275 1.01184 0.29772 0.0
C707 C 0.12672 0.94333 0.51777 0.0
C708 C 0.13557 0.91626 0.56141 0.0
C709 C 0.17838 0.91778 0.57915 0.0
C710 C 0.10261 0.89172 0.5878 0.0
C711 C 0.11326 0.87278 0.63298 0.0
C712 C 0.18879 0.89905 0.62284 0.0
C713 C 0.15689 0.87758 0.6497 0.0
C714 C 0.19546 0.16571 0.53642 0.0
C715 C 0.06762 0.1275 0.46397 0.0
C716 C 0.10592 0.25654 0.5727 0.0
C717 C 0.09881 0.28524 0.52989 0.0
C718 C 0.05762 0.29352 0.51791 0.0
C719 C 0.13149 0.30327 0.49985 0.0
C720 C 0.12176 0.32678 0.45748 0.0
C721 C 0.04828 0.31723 0.47725 0.0
C722 C 0.07967 0.33306 0.44715 0.0
C723 C 0.03752 1.03357 0.55437 0.0
H724 H 0.20435 0.93463 0.55995 0.0
H725 H 0.0694 0.88865 0.57395 0.0
H726 H 0.22207 0.90144 0.63621 0.0
H727 H 0.1666 0.86342 0.68346 0.0
H728 H 0.03209 0.28106 0.53974 0.0
H729 H 0.16359 0.29805 0.50875 0.0
H730 H 1.01626 0.32316 0.4688 0.0
H731 H 0.07102 0.35144 0.41592 0.0
Gd732 Gd 0.32954 0.81899 0.82324 0.0
Gd733 Gd 0.40645 0.87489 0.75747 0.0
C734 C 0.33264 0.95305 0.65263 0.0
C735 C 0.33096 0.89637 0.56802 0.0
C736 C 0.36825 0.87903 0.6437 0.0
C737 C 0.35546 0.92072 0.67507 0.0
C738 C 0.35783 0.86802 0.58949 0.0
C739 C 0.31714 0.93757 0.59978 0.0
C740 C 0.33111 1.00341 0.68213 0.0
C741 C 0.35488 1.02197 0.73124 0.0
N742 N 0.37318 0.93635 0.7255 0.0
C743 C 0.3758 0.98771 0.75261 0.0
H744 H 0.39301 1.00199 0.79115 0.0
C745 C 0.42102 0.8273 0.63564 0.0
N746 N 0.39699 0.85583 0.66577 0.0
C747 C 0.41171 0.81515 0.58163 0.0
C748 C 0.37903 0.83421 0.55847 0.0
H749 H 0.44587 0.81201 0.65375 0.0
H750 H 0.29761 0.96017 0.58261 0.0
H751 H 0.34018 0.69114 0.78672 0.0
H752 H 0.31473 1.02994 0.66585 0.0
H753 H 0.35612 0.06213 0.75326 0.0
H754 H 0.32385 0.89031 0.52675 0.0
H755 H 0.29622 0.88175 0.93338 0.0
H756 H 0.42074 0.65853 0.90671 0.0
H757 H 0.37395 0.62757 0.82252 0.0
H758 H 0.42753 0.80458 0.04762 0.0
H759 H 0.42966 0.79109 0.55791 0.0
H760 H 0.37258 0.82573 0.51661 0.0
H761 H 0.44693 0.73043 0.98794 0.0
H762 H 0.31804 0.90179 0.02824 0.0
N763 N 0.36316 0.75606 0.85227 0.0
C764 C 0.40453 0.68611 0.89197 0.0
C765 C 0.37784 0.66829 0.84471 0.0
C766 C 0.4067 0.73764 0.92171 0.0
C767 C 0.38368 0.77117 0.90152 0.0
C768 C 0.35807 0.70432 0.82475 0.0
N769 N 0.34463 0.83837 0.91536 0.0
C770 C 0.37431 0.81447 0.93443 0.0
C771 C 0.33472 0.87808 1.00223 0.0
C772 C 0.36893 0.85916 0.02191 0.0
C773 C 0.32224 0.86635 0.94871 0.0
C774 C 0.38825 0.82546 0.9881 0.0
H775 H 0.37782 0.86725 0.06346 0.0
O776 O 0.28611 0.77682 0.86446 0.0
O777 O 0.34069 0.89319 0.78528 0.0
O778 O 0.41342 0.93428 0.83309 0.0
O779 O 0.36163 0.89417 0.87573 0.0
O780 O 0.28748 0.88227 0.81986 0.0
O781 O 0.26263 0.78596 0.78949 0.0
O782 O 0.45301 0.92125 0.72224 0.0
O783 O 0.39435 0.8007 0.79469 0.0
O784 O 0.3206 0.76078 0.74591 0.0
O785 O 0.37076 0.80282 0.70222 0.0
O786 O 0.44718 0.81013 0.7592 0.0
O787 O 0.4729 0.90376 0.79496 0.0
C788 C 0.30677 0.91624 0.79535 0.0
C789 C 0.41656 0.79697 1.00668 0.0
C790 C 0.42666 0.75381 0.97305 0.0
C791 C 0.2527 0.77056 0.83142 0.0
C792 C 0.21411 0.7824 0.85334 0.0
C793 C 0.21058 0.78575 0.90628 0.0
C794 C 0.17848 0.78405 0.8204 0.0
C795 C 0.13901 0.78419 0.83872 0.0
C796 C 0.17104 0.78504 0.92446 0.0
C797 C 0.13487 0.78258 0.89035 0.0
C798 C 0.392 0.93348 0.87254 0.0
C799 C 0.42784 0.77728 0.78462 0.0
C800 C 0.48511 0.92359 0.75608 0.0
C801 C 0.52549 0.91497 0.73595 0.0
C802 C 0.53192 0.92033 0.68549 0.0
C803 C 0.56029 0.9101 0.76905 0.0
C804 C 0.60167 0.9168 0.75414 0.0
C805 C 0.57296 0.92782 0.67088 0.0
C806 C 0.60799 0.92821 0.70576 0.0
C807 C 0.34017 0.76342 0.70503 0.0
H808 H 0.23802 0.78773 0.93349 0.0
H809 H 0.18086 0.78306 0.77982 0.0
H810 H 0.16837 0.78563 0.96483 0.0
H811 H 0.1042 0.78053 0.90451 0.0
H812 H 0.50553 0.92076 0.65782 0.0
H813 H 0.5558 0.90421 0.80754 0.0
H814 H 0.57777 0.93485 0.63292 0.0
H815 H 0.63975 0.93665 0.6945 0.0
Gd816 Gd 0.61232 0.14863 1.00174 0.0
Gd817 Gd 0.62599 0.0517 0.08014 0.0
C818 C 0.746 0.1054 0.19606 0.0
C819 C 0.78653 0.03836 0.16684 0.0
C820 C 0.71748 1.03496 0.11902 0.0
C821 C 0.71319 0.07998 0.15481 0.0
C822 C 0.75342 1.01248 0.12623 0.0
C823 C 0.78305 0.08504 0.20128 0.0
C824 C 0.74243 0.1537 0.2277 0.0
C825 C 0.70645 0.17425 0.21947 0.0
N826 N 0.67848 0.10135 0.14725 0.0
C827 C 0.67483 0.14782 0.17887 0.0
H828 H 0.64852 0.16612 0.1726 0.0
C829 C 0.68418 0.96076 0.05119 0.0
N830 N 0.6857 1.01173 0.07884 0.0
C831 C 0.71876 0.93645 0.05756 0.0
C832 C 0.75419 0.96328 0.09394 0.0
H833 H 0.65593 0.9388 0.02448 0.0
H834 H 0.80904 0.10483 0.23207 0.0
H835 H 0.58745 1.02749 0.90826 0.0
H836 H 0.76839 0.17725 0.25632 0.0
H837 H 0.70276 0.21095 0.24318 0.0
H838 H 0.81458 1.02205 0.17252 0.0
H839 H 0.57676 0.25678 0.05849 0.0
H840 H 0.4665 1.01465 0.82776 0.0
H841 H 0.53081 0.9794 0.84374 0.0
H842 H 0.42009 0.1693 0.90856 0.0
H843 H 0.71773 0.8963 0.03587 0.0
H844 H 0.7808 0.94423 0.09893 0.0
H845 H 0.42684 0.08705 0.8496 0.0
H846 H 0.51302 0.29502 0.04828 0.0
N847 N 0.56066 0.09664 0.93115 0.0
C848 C 0.493 0.03873 0.85563 0.0
C849 C 0.5289 1.01842 0.86432 0.0
C850 C 0.49035 0.08816 0.88551 0.0
C851 C 0.52423 0.11566 0.92504 0.0
C852 C 0.56249 0.04775 0.9016 0.0
N853 N 0.55062 0.18496 1.00051 0.0
C854 C 0.51897 0.16045 0.9606 0.0
C855 C 0.51369 0.25615 0.02491 0.0
C856 C 0.47925 0.22884 0.98741 0.0
C857 C 0.54946 0.23399 0.03065 0.0
C858 C 0.48177 0.18092 0.95425 0.0
H859 H 0.45172 0.24636 0.98271 0.0
O860 O 0.65089 0.23177 0.02087 0.0
O861 O 0.65402 0.1302 0.06369 0.0
O862 O 0.586 0.10569 0.12617 0.0
O863 O 0.58738 0.17239 0.07884 0.0
O864 O 0.68344 0.16037 1.00536 0.0
O865 O 0.60451 0.20019 0.95164 0.0
O866 O 0.59251 0.9694 0.07962 0.0
O867 O 0.58228 0.08485 0.03602 0.0
O868 O 0.64526 0.08846 0.95155 0.0
O869 O 0.65613 1.03146 1.00754 0.0
O870 O 0.56514 1.00333 0.02681 0.0
O871 O 0.62647 1.02605 0.15047 0.0
C872 C 0.68961 0.1443 0.0476 0.0
C873 C 0.44886 0.15429 0.9139 0.0
C874 C 0.45305 0.10795 0.87986 0.0
C875 C 0.6335 0.241 0.97839 0.0
C876 C 0.65986 0.2649 0.94433 0.0
C877 C 0.64977 0.31015 0.93031 0.0
C878 C 0.67822 0.23039 0.91039 0.0
C879 C 0.68172 0.23714 0.86025 0.0
C880 C 0.6528 0.31671 0.88012 0.0
C881 C 0.66956 0.28105 0.84526 0.0
C882 C 0.5762 0.15134 0.11835 0.0
C883 C 0.55424 0.04448 0.01441 0.0
C884 C 0.60614 0.97686 0.12879 0.0
C885 C 0.58042 0.95104 0.16201 0.0
C886 C 0.58854 0.90342 0.17274 0.0
C887 C 0.55932 0.98231 0.19481 0.0
C888 C 0.55015 0.96949 0.24132 0.0
C889 C 0.57915 0.89021 0.21918 0.0
C890 C 0.55948 0.92279 0.25339 0.0
C891 C 0.66041 0.04739 0.9638 0.0
H892 H 0.63403 0.33609 0.95552 0.0
H893 H 0.68503 0.19473 0.92109 0.0
H894 H 0.63935 0.34738 0.86758 0.0
H895 H 0.67182 0.28674 0.80643 0.0
H896 H 0.60487 0.87862 0.14727 0.0
H897 H 0.5536 1.01933 0.18596 0.0
H898 H 0.58914 0.85625 0.22943 0.0
H899 H 0.55204 0.9121 0.28923 0.0
Gd900 Gd 0.3325 0.28019 0.27579 0.0
Gd901 Gd 0.39256 0.4038 0.30895 0.0
C902 C 0.506 0.45314 0.22572 0.0
C903 C 0.54901 0.51342 0.30292 0.0
C904 C 0.48773 0.44536 0.30866 0.0
C905 C 0.47669 0.43495 0.25776 0.0
C906 C 0.52258 0.48562 0.33292 0.0
C907 C 0.54168 0.49533 0.24844 0.0
C908 C 0.50046 0.42448 0.17435 0.0
C909 C 0.46861 0.37688 0.15911 0.0
N910 N 0.44095 0.39685 0.24109 0.0
C911 C 0.43983 0.36272 0.19369 0.0
H912 H 0.41646 0.32522 0.18145 0.0
C913 C 0.47648 0.41402 0.38359 0.0
N914 N 0.46363 0.41354 0.33436 0.0
C915 C 0.50684 0.45747 0.41119 0.0
C916 C 0.52831 0.4956 0.38618 0.0
H917 H 0.45963 0.38543 0.40289 0.0
H918 H 0.56421 0.51232 0.22497 0.0
H919 H 0.31699 0.38171 0.39417 0.0
H920 H 0.52277 0.43565 0.14814 0.0
H921 H 0.46599 0.35127 0.12089 0.0
H922 H 0.57638 0.54552 0.32117 0.0
H923 H 0.25552 0.23438 0.18514 0.0
H924 H 0.22343 0.2972 0.46701 0.0
H925 H 0.27754 0.37794 0.46603 0.0
H926 H 0.15558 0.14299 0.33414 0.0
H927 H 0.51261 0.46012 0.4514 0.0
H928 H 0.55055 0.53046 0.40723 0.0
H929 H 0.17964 0.2065 0.41901 0.0
H930 H 0.194 0.15657 0.16716 0.0
N931 N 0.28933 0.29998 0.3503 0.0
C932 C 0.24177 0.29728 0.43496 0.0
C933 C 0.27183 0.34312 0.43406 0.0
C934 C 0.23263 0.25464 0.39189 0.0
C935 C 0.25635 0.25849 0.34994 0.0
C936 C 0.29473 0.34424 0.3918 0.0
N937 N 0.25958 0.24129 0.26334 0.0
C938 C 0.24138 0.22612 0.30334 0.0
C939 C 0.20803 0.17301 0.2055 0.0
C940 C 0.18955 0.15484 0.24594 0.0
C941 C 0.24126 0.21843 0.21498 0.0
C942 C 0.20482 0.184 0.29619 0.0
H943 H 0.16178 0.12157 0.23775 0.0
O944 O 0.32859 0.22556 0.20095 0.0
O945 O 0.3971 0.3248 0.26903 0.0
O946 O 0.37064 0.41404 0.23156 0.0
O947 O 0.33915 0.32339 0.19968 0.0
O948 O 0.39697 0.26023 0.29966 0.0
O949 O 0.31714 0.19439 0.26932 0.0
O950 O 0.40151 0.46176 0.38249 0.0
O951 O 0.32639 0.35989 0.30809 0.0
O952 O 0.35897 0.27174 0.35343 0.0
O953 O 0.38391 0.36303 0.38455 0.0
O954 O 0.32999 0.42789 0.28461 0.0
O955 O 0.4139 0.4889 0.31289 0.0
C956 C 0.42173 0.29726 0.284 0.0
C957 C 0.18391 0.17497 0.33879 0.0
C958 C 0.19768 0.21091 0.38697 0.0
C959 C 0.32452 0.18361 0.22145 0.0
C960 C 0.35601 0.15068 0.21088 0.0
C961 C 0.35776 0.12533 0.15992 0.0
C962 C 0.38653 0.14752 0.25073 0.0
C963 C 0.42143 0.12516 0.23874 0.0
C964 C 0.39155 0.10118 0.14809 0.0
C965 C 0.42407 0.10254 0.18688 0.0
C966 C 0.35476 0.37429 0.19145 0.0
C967 C 0.3027 0.38843 0.29298 0.0
C968 C 0.41058 0.50301 0.36178 0.0
C969 C 0.38621 0.5443 0.37538 0.0
C970 C 0.39876 0.58307 0.42195 0.0
C971 C 0.3505 0.54572 0.34181 0.0
C972 C 0.32505 0.58183 0.35683 0.0
C973 C 0.3747 0.62141 0.43585 0.0
C974 C 0.33787 0.62051 0.40348 0.0
C975 C 0.37203 0.31245 0.39356 0.0
H976 H 0.3331 0.12454 0.1295 0.0
H977 H 0.38372 0.16307 0.29095 0.0
H978 H 0.3923 0.08136 0.10885 0.0
H979 H 0.45016 0.08365 0.17679 0.0
H980 H 0.42777 0.58463 0.44652 0.0
H981 H 0.34301 0.52041 0.30336 0.0
H982 H 0.38512 0.65252 0.47098 0.0
H983 H 0.32092 0.65216 0.41257 0.0
Gd984 Gd 0.63453 0.54661 0.01385 0.0
Gd985 Gd 0.60038 0.65629 0.07132 0.0
C986 C 0.62848 0.68488 0.24871 0.0
C987 C 0.55819 0.66014 0.27459 0.0
C988 C 0.56633 0.65467 0.18329 0.0
C989 C 0.61002 0.6712 0.19616 0.0
C990 C 0.53985 0.64853 0.22258 0.0
C991 C 0.60242 0.67902 0.28772 0.0
C992 C 0.67268 0.70408 0.26064 0.0
C993 C 0.69752 0.70745 0.22068 0.0
N994 N 0.6346 0.67524 0.15759 0.0
C995 C 0.67793 0.69329 0.16933 0.0
H996 H 0.69764 0.69339 0.1388 0.0
C997 C 0.50568 0.635 0.12066 0.0
N998 N 0.54957 0.64702 0.13291 0.0
C999 C 0.4784 0.62581 0.15763 0.0
C1000 C 0.49555 0.63249 0.20885 0.0
H1001 H 0.49101 0.63114 0.08153 0.0
H1002 H 0.61617 0.68899 0.32812 0.0
H1003 H 0.53354 0.51047 0.95379 0.0
H1004 H 0.68796 0.71517 0.30042 0.0
H1005 H 0.73187 0.71921 0.22936 0.0
H1006 H 0.53833 0.65587 0.30505 0.0
H1007 H 0.69565 0.56194 0.96821 0.0
H1008 H 0.53243 0.47405 0.78997 0.0
H1009 H 0.49388 0.48249 0.86627 0.0
H1010 H 0.67898 0.53238 0.7691 0.0
H1011 H 0.44401 0.61519 0.14671 0.0
H1012 H 0.47429 0.62693 0.23771 0.0
H1013 H 0.60126 0.49595 0.75402 0.0
H1014 H 0.78031 0.60604 0.92155 0.0
N1015 N 0.59483 0.52385 0.9288 0.0
C1016 C 0.55007 0.4882 0.8285 0.0
C1017 C 0.52832 0.49117 0.87152 0.0
C1018 C 0.59432 0.50635 0.83562 0.0
C1019 C 0.61597 0.52408 0.88671 0.0
C1020 C 0.55118 0.50762 0.92135 0.0
N1021 N 0.68026 0.55666 0.94618 0.0
C1022 C 0.65924 0.54306 0.89458 0.0
C1023 C 0.7466 0.58667 0.91408 0.0
C1024 C 0.72658 0.56915 0.86311 0.0
C1025 C 0.7245 0.58007 0.9563 0.0
C1026 C 0.68267 0.5473 0.85278 0.0
H1027 H 0.74541 0.57401 0.83184 0.0
O1028 O 0.65936 0.47384 1.00319 0.0
O1029 O 0.64129 0.59776 0.0966 0.0
O1030 O 0.66382 0.68922 0.04027 0.0
O1031 O 0.69549 0.61919 0.03999 0.0
O1032 O 0.67819 0.54231 0.08542 0.0
O1033 O 0.59443 0.46935 0.01751 0.0
O1034 O 0.57337 0.72738 0.08168 0.0
O1035 O 0.5938 0.60493 0.98889 0.0
O1036 O 0.57205 0.51375 0.04629 0.0
O1037 O 0.54101 0.58475 0.05115 0.0
O1038 O 0.55745 0.6606 0.99916 0.0
O1039 O 0.6398 0.73506 0.07195 0.0
C1040 C 0.66649 0.57384 0.12332 0.0
C1041 C 0.66154 0.5298 0.80192 0.0
C1042 C 0.61735 0.50888 0.79334 0.0
C1043 C 0.62578 0.44493 0.01648 0.0
C1044 C 0.63225 0.41604 0.05941 0.0
C1045 C 0.6738 0.41015 0.07394 0.0
C1046 C 0.59842 0.3951 0.08685 0.0
C1047 C 0.60738 0.37147 0.12947 0.0
C1048 C 0.68247 0.387 0.11521 0.0
C1049 C 0.64999 0.36853 0.14287 0.0
C1050 C 0.69855 0.66973 0.0355 0.0
C1051 C 0.56855 0.62813 0.96172 0.0
C1052 C 0.60731 0.7575 0.07018 0.0
C1053 C 0.60162 0.78475 0.02599 0.0
C1054 C 0.56029 0.79001 1.00941 0.0
C1055 C 0.63594 0.80348 0.99848 0.0
C1056 C 0.62783 0.82439 0.95395 0.0
C1057 C 0.55241 0.81059 0.9661 0.0
C1058 C 0.58554 0.8269 0.93837 0.0
C1059 C 0.53805 0.53401 0.05367 0.0
H1060 H 0.70013 0.42415 0.05374 0.0
H1061 H 0.56591 0.39808 0.07589 0.0
H1062 H 0.71486 0.3835 0.12605 0.0
H1063 H 0.65825 0.35054 0.17455 0.0
H1064 H 0.53353 0.77731 0.02946 0.0
H1065 H 0.66829 0.80093 0.0109 0.0
H1066 H 0.52023 0.81389 0.95383 0.0
H1067 H 0.57816 0.84325 0.90522 0.0
Gd1068 Gd 0.82618 0.31944 0.32148 0.0
Gd1069 Gd 0.90359 0.3743 0.25703 0.0
C1070 C 0.83259 0.45873 0.15549 0.0
C1071 C 0.82966 0.40398 0.06973 0.0
C1072 C 0.86431 0.3811 0.1443 0.0
C1073 C 0.85321 0.42359 0.17675 0.0
C1074 C 0.85478 0.37291 0.0901 0.0
C1075 C 0.81756 0.44586 0.10257 0.0
C1076 C 0.83313 0.50927 0.18626 0.0
C1077 C 0.8567 0.5252 0.2355 0.0
N1078 N 0.87092 0.4372 0.22719 0.0
C1079 C 0.8754 0.48842 0.2556 0.0
H1080 H 0.89213 0.50039 0.29436 0.0
C1081 C 0.91555 0.32733 0.13415 0.0
N1082 N 0.89191 0.35559 0.16523 0.0
C1083 C 0.90706 0.31788 0.08032 0.0
C1084 C 0.87572 0.33955 0.05817 0.0
H1085 H 0.94002 0.3108 0.15142 0.0
H1086 H 0.80016 0.4712 0.0862 0.0
H1087 H 0.83689 0.19236 0.28499 0.0
H1088 H 0.81847 0.53781 0.17094 0.0
H1089 H 0.85934 0.56523 0.2587 0.0
H1090 H 0.82254 0.3994 0.02854 0.0
H1091 H 0.79296 0.38104 0.43182 0.0
H1092 H 0.91771 0.15891 0.40445 0.0
H1093 H 0.87081 0.12833 0.32033 0.0
H1094 H 0.92531 0.30516 0.54565 0.0
H1095 H 0.92507 0.29454 0.05595 0.0
H1096 H 0.87086 0.33425 0.01655 0.0
H1097 H 0.94368 0.23019 0.4862 0.0
H1098 H 0.81441 0.40023 0.52663 0.0
N1099 N 0.86047 0.257 0.35041 0.0
C1100 C 0.90161 0.18666 0.38984 0.0
C1101 C 0.87478 0.16902 0.34264 0.0
C1102 C 0.90416 0.23828 0.41964 0.0
C1103 C 0.8814 0.27216 0.39949 0.0
C1104 C 0.85504 0.20522 0.32289 0.0
N1105 N 0.84202 0.33886 0.41354 0.0
C1106 C 0.87208 0.31539 0.43246 0.0
C1107 C 0.83153 0.3773 0.50052 0.0
C1108 C 0.86593 0.35866 0.52012 0.0
C1109 C 0.81937 0.36617 0.447 0.0
C1110 C 0.88594 0.32607 0.48617 0.0
H1111 H 0.87446 0.36609 0.56168 0.0
O1112 O 0.78253 0.27765 0.36318 0.0
O1113 O 0.83771 0.39301 0.2831 0.0
O1114 O 0.9135 0.43023 0.33571 0.0
O1115 O 0.85431 0.39772 0.37197 0.0
O1116 O 0.78408 0.38244 0.31717 0.0
O1117 O 0.75955 0.28552 0.28752 0.0
O1118 O 0.94808 0.41974 0.21861 0.0
O1119 O 0.89208 0.30081 0.29516 0.0
O1120 O 0.81575 0.26255 0.24287 0.0
O1121 O 0.87291 0.29746 0.20446 0.0
O1122 O 0.94571 0.31136 0.26071 0.0
O1123 O 0.96989 0.40615 0.29236 0.0
C1124 C 0.80371 0.41601 0.29248 0.0
C1125 C 0.91429 0.29758 0.50469 0.0
C1126 C 0.92401 0.25413 0.47109 0.0
C1127 C 0.74934 0.27049 0.32949 0.0
C1128 C 0.70972 0.28058 0.3501 0.0
C1129 C 0.70419 0.27833 0.40156 0.0
C1130 C 0.67477 0.28412 0.31685 0.0
C1131 C 0.6339 0.27868 0.3326 0.0
C1132 C 0.66344 0.27171 0.41702 0.0
C1133 C 0.62801 0.26942 0.38185 0.0
C1134 C 0.88836 0.43365 0.37188 0.0
C1135 C 0.92639 0.27836 0.28609 0.0
C1136 C 0.98092 0.42357 0.25181 0.0
C1137 C 0.01959 0.41132 0.23033 0.0
C1138 C 0.02459 0.41159 0.17836 0.0
C1139 C 0.05396 0.40551 0.26297 0.0
C1140 C 0.09382 0.40538 0.24559 0.0
C1141 C 0.06432 0.41129 0.1611 0.0
C1142 C 0.0993 0.40971 0.19496 0.0
C1143 C 0.83946 0.26068 0.20508 0.0
H1144 H 0.73104 0.27979 0.42941 0.0
H1145 H 0.67872 0.28809 0.27767 0.0
H1146 H 0.65924 0.26713 0.45591 0.0
H1147 H 0.59641 0.26163 0.39361 0.0
H1148 H 0.99819 0.4132 0.15131 0.0
H1149 H 0.05053 0.40388 0.30281 0.0
H1150 H 0.06829 0.41359 0.12183 0.0
H1151 H 0.13025 0.41136 0.18152 0.0
Gd1152 Gd 0.10749 0.64416 0.50188 0.0
Gd1153 Gd 0.12645 0.54949 0.5815 0.0
C1154 C 0.25002 0.60354 0.69181 0.0
C1155 C 0.28967 0.53624 0.66031 0.0
C1156 C 0.21975 0.53365 0.61495 0.0
C1157 C 0.21638 0.5786 0.65147 0.0
C1158 C 0.25605 0.51126 0.62009 0.0
C1159 C 0.28668 0.58226 0.69604 0.0
C1160 C 0.24694 0.65119 0.72493 0.0
C1161 C 0.21065 0.67174 0.71897 0.0
N1162 N 0.18106 0.59945 0.64642 0.0
C1163 C 0.17798 0.64553 0.67933 0.0
H1164 H 0.15113 0.66347 0.67504 0.0
C1165 C 0.18468 0.45903 0.54847 0.0
N1166 N 0.1866 0.51002 0.5765 0.0
C1167 C 0.21989 0.43531 0.55221 0.0
C1168 C 0.25635 0.46246 0.58682 0.0
H1169 H 0.15571 0.43674 0.52328 0.0
H1170 H 0.31295 0.60124 0.72679 0.0
H1171 H 0.08132 0.5223 0.41024 0.0
H1172 H 0.27307 0.67358 0.75391 0.0
H1173 H 0.20744 0.70792 0.74424 0.0
H1174 H 0.31771 0.51961 0.66477 0.0
H1175 H 0.07236 0.75213 0.56015 0.0
H1176 H 0.96289 0.51342 0.32588 0.0
H1177 H 0.02698 0.47766 0.34161 0.0
H1178 H 0.91487 0.66534 0.41147 0.0
H1179 H 0.21851 0.39522 0.5301 0.0
H1180 H 0.28326 0.4436 0.59017 0.0
H1181 H 0.92214 0.58461 0.35056 0.0
H1182 H 1.00817 0.78964 0.55244 0.0
N1183 N 0.05491 0.59166 0.43311 0.0
C1184 C 0.9889 0.53674 0.35475 0.0
C1185 C 0.02441 0.51574 0.36368 0.0
C1186 C 0.9856 0.58514 0.38623 0.0
C1187 C 1.01886 0.61128 0.42687 0.0
C1188 C 0.05687 0.54321 0.403 0.0
N1189 N 0.04566 0.68022 0.50249 0.0
C1190 C 1.01378 0.65593 0.46279 0.0
C1191 C 1.00876 0.75115 0.52822 0.0
C1192 C 0.97413 0.72412 0.49077 0.0
C1193 C 0.04476 0.72922 0.53285 0.0
C1194 C 0.97662 0.67657 0.45687 0.0
H1195 H 0.94643 0.74147 0.48686 0.0
O1196 O 0.14444 0.72783 0.51872 0.0
O1197 O 0.15016 0.62833 0.56419 0.0
O1198 O 0.08826 0.60483 0.62942 0.0
O1199 O 0.08442 0.66879 0.57982 0.0
O1200 O 0.17842 0.65732 0.50449 0.0
O1201 O 0.09921 0.69262 0.4488 0.0
O1202 O 0.09428 0.4676 0.58353 0.0
O1203 O 0.08057 0.58047 0.53811 0.0
O1204 O 0.13977 0.58381 0.45098 0.0
O1205 O 0.15525 0.5291 0.5073 0.0
O1206 O 0.06518 0.49899 0.53035 0.0
O1207 O 0.12797 0.5264 0.65328 0.0
C1208 C 0.18511 0.64296 0.54754 0.0
C1209 C 0.94369 0.65033 0.41637 0.0
C1210 C 0.94814 0.60477 0.38125 0.0
C1211 C 0.1273 0.73467 0.47495 0.0
C1212 C 0.15395 0.75823 0.44094 0.0
C1213 C 0.14639 0.80532 0.42852 0.0
C1214 C 0.17364 0.72457 0.40787 0.0
C1215 C 0.18323 0.73585 0.3607 0.0
C1216 C 0.15548 0.81642 0.38127 0.0
C1217 C 0.17466 0.78253 0.34766 0.0
C1218 C 0.07674 0.6495 0.62127 0.0
C1219 C 0.05299 0.53929 0.5177 0.0
C1220 C 0.10798 0.47677 0.63286 0.0
C1221 C 0.08244 0.45142 0.66652 0.0
C1222 C 0.09004 0.40347 0.67696 0.0
C1223 C 0.06056 0.48227 0.69866 0.0
C1224 C 0.04906 0.4678 0.74379 0.0
C1225 C 0.0784 0.38873 0.72196 0.0
C1226 C 0.05733 0.42035 0.75518 0.0
C1227 C 0.1567 0.5438 0.46263 0.0
H1228 H 0.12972 0.83071 0.45294 0.0
H1229 H 0.17802 0.68722 0.41696 0.0
H1230 H 0.14518 0.84962 0.36984 0.0
H1231 H 0.18178 0.79197 0.31119 0.0
H1232 H 0.10719 0.37919 0.6522 0.0
H1233 H 0.05548 0.51973 0.6903 0.0
H1234 H 0.08746 0.35408 0.73179 0.0
H1235 H 0.04789 0.40828 0.78975 0.0
Gd1236 Gd 0.91212 0.8271 0.29112 0.0
Gd1237 Gd 0.82065 0.87359 0.30166 0.0
C1238 C 0.72088 0.89337 0.18037 0.0
C1239 C 0.70859 0.98006 0.22001 0.0
C1240 C 0.76787 0.94814 0.2563 0.0
C1241 C 0.75529 0.90047 0.21964 0.0
C1242 C 0.74513 0.98877 0.25606 0.0
C1243 C 0.69742 0.93308 0.18113 0.0
C1244 C 0.71026 0.84595 0.14224 0.0
C1245 C 0.73129 0.80525 0.1465 0.0
N1246 N 0.77524 0.86019 0.22365 0.0
C1247 C 0.76174 0.81171 0.18937 0.0
H1248 H 0.77437 0.77773 0.19468 0.0
C1249 C 0.81325 1.00036 0.33187 0.0
N1250 N 0.80022 0.95349 0.29455 0.0
C1251 C 0.79393 0.04332 0.33021 0.0
C1252 C 0.75923 1.03672 0.29286 0.0
H1253 H 0.83847 1.00479 0.36301 0.0
H1254 H 0.67151 0.92842 0.1509 0.0
H1255 H 0.95932 0.92155 0.39809 0.0
H1256 H 0.68524 0.83999 0.1103 0.0
H1257 H 0.72285 0.76829 0.11775 0.0
H1258 H 0.68972 1.01013 0.2208 0.0
H1259 H 0.89041 0.69433 0.23089 0.0
H1260 H 0.05113 0.8586 0.47762 0.0
H1261 H 1.01429 0.93125 0.47191 0.0
H1262 H 0.04241 0.68749 0.36679 0.0
H1263 H 0.8049 0.08106 0.35808 0.0
H1264 H 0.74414 0.06915 0.29116 0.0
H1265 H 0.06252 0.76973 0.43657 0.0
H1266 H 0.92333 0.61716 0.23522 0.0
N1267 N 0.95833 0.83942 0.36796 0.0
C1268 C 0.02528 0.85291 0.44673 0.0
C1269 C 1.00469 0.89418 0.44337 0.0
C1270 C 1.01313 0.80524 0.40902 0.0
C1271 C 0.97808 0.79871 0.37085 0.0
C1272 C 0.97275 0.88782 0.40206 0.0
N1273 N 0.93131 0.74611 0.29725 0.0
C1274 C 0.96456 0.7511 0.33418 0.0
C1275 C 0.93559 0.65541 0.26178 0.0
C1276 C 0.9717 0.66196 0.29681 0.0
C1277 C 0.9167 0.69884 0.26072 0.0
C1278 C 0.9869 0.70992 0.33336 0.0
H1279 H 0.98658 0.62903 0.29695 0.0
O1280 O 0.94629 0.80265 0.22652 0.0
O1281 O 0.86298 0.85292 0.24141 0.0
O1282 O 0.80105 0.77841 0.28986 0.0
O1283 O 0.86406 0.75303 0.30874 0.0
O1284 O 0.87461 0.77745 0.21662 0.0
O1285 O 0.97486 0.87446 0.2859 0.0
O1286 O 0.78534 0.89732 0.3654 0.0
O1287 O 0.87032 0.84892 0.3516 0.0
O1288 O 0.93184 0.92195 0.30074 0.0
O1289 O 0.86867 0.94843 0.28504 0.0
O1290 O 0.85806 0.92328 0.37684 0.0
O1291 O 0.75868 0.82423 0.30704 0.0
C1292 C 0.85533 0.81199 0.20332 0.0
C1293 C 0.02388 0.71798 0.36847 0.0
C1294 C 0.03597 0.76492 0.40737 0.0
C1295 C 0.98021 0.84118 0.24449 0.0
C1296 C 0.02232 0.82684 0.2445 0.0
C1297 C 0.02697 0.77517 0.2471 0.0
C1298 C 0.05821 0.86465 0.23862 0.0
C1299 C 0.09801 0.85092 0.23523 0.0
C1300 C 0.06732 0.76328 0.2496 0.0
C1301 C 0.10281 0.80094 0.24359 0.0
C1302 C 0.82102 0.74024 0.29996 0.0
C1303 C 0.87841 0.88962 0.39011 0.0
C1304 C 0.7524 0.85725 0.34804 0.0
C1305 C 0.70934 0.86911 0.34795 0.0
C1306 C 0.70208 0.91811 0.33999 0.0
C1307 C 0.67535 0.83212 0.35929 0.0
C1308 C 0.63514 0.8446 0.36365 0.0
C1309 C 0.66105 0.92784 0.33807 0.0
C1310 C 0.62772 0.89156 0.35046 0.0
C1311 C 0.91179 0.96045 0.29173 0.0
H1312 H 0.99948 0.74354 0.24546 0.0
H1313 H 0.0545 0.90338 0.23365 0.0
H1314 H 0.07053 0.72368 0.25288 0.0
H1315 H 0.13292 0.78889 0.24006 0.0
H1316 H 0.72818 0.94973 0.33756 0.0
H1317 H 0.68089 0.79523 0.36716 0.0
H1318 H 0.65578 0.96508 0.33027 0.0
H1319 H 0.59739 0.90272 0.35482 0.0
Gd1320 Gd 0.83387 0.36746 0.85769 0.0
Gd1321 Gd 0.89867 0.33726 0.76306 0.0
C1322 C 0.89304 0.21521 0.61305 0.0
C1323 C 0.96893 0.22632 0.6082 0.0
C1324 C 0.94355 0.26204 0.68799 0.0
C1325 C 0.90262 0.24864 0.6631 0.0
C1326 C 0.97735 0.24905 0.6617 0.0
C1327 C 0.9265 0.20558 0.58478 0.0
C1328 C 0.85034 0.19149 0.59414 0.0
C1329 C 0.81891 0.20299 0.62447 0.0
N1330 N 0.87182 0.26559 0.68916 0.0
C1331 C 0.82984 0.24467 0.66876 0.0
H1332 H 0.8042 0.25957 0.68549 0.0
C1333 C 0.9892 0.29525 0.76702 0.0
N1334 N 0.95016 0.28787 0.73828 0.0
C1335 C 0.02304 0.27866 0.74384 0.0
C1336 C 1.01793 0.25908 0.69022 0.0
H1337 H 0.99556 0.31825 0.80654 0.0
H1338 H 0.91992 0.18151 0.54552 0.0
H1339 H 0.9245 0.44492 0.93726 0.0
H1340 H 0.84134 0.16409 0.55692 0.0
H1341 H 0.78611 0.18169 0.61243 0.0
H1342 H 0.99451 0.22022 0.58566 0.0
H1343 H 0.73572 0.3681 0.80024 0.0
H1344 H 0.88339 0.56103 0.04347 0.0
H1345 H 0.94211 0.5292 1.00512 0.0
H1346 H 0.73264 0.50362 1.00563 0.0
H1347 H 0.05388 0.28465 0.76669 0.0
H1348 H 0.0452 0.25071 0.67181 0.0
H1349 H 0.80465 0.54898 0.04606 0.0
H1350 H 0.67586 0.40656 0.8291 0.0
N1351 N 0.85962 0.44953 0.91889 0.0
C1352 C 0.87656 0.53139 1.0079 0.0
C1353 C 0.90966 0.5116 0.98713 0.0
C1354 C 0.83477 0.50993 0.98413 0.0
C1355 C 0.82768 0.47201 0.93661 0.0
C1356 C 0.89984 0.46634 0.94615 0.0
N1357 N 0.78112 0.4173 0.86376 0.0
C1358 C 0.78685 0.45299 0.90991 0.0
C1359 C 0.70669 0.41844 0.853 0.0
C1360 C 0.711 0.44761 0.90392 0.0
C1361 C 0.74133 0.39934 0.83531 0.0
C1362 C 0.75163 0.4659 0.93313 0.0
H1363 H 0.6827 0.45596 0.91939 0.0
O1364 O 0.77709 0.31781 0.87643 0.0
O1365 O 0.85248 0.29933 0.80751 0.0
O1366 O 0.83515 0.35063 0.72079 0.0
O1367 O 0.81075 0.40203 0.78882 0.0
O1368 O 0.78811 0.30153 0.8009 0.0
O1369 O 0.8303 0.36208 0.93613 0.0
O1370 O 0.95875 0.3806 0.74768 0.0
O1371 O 0.8826 0.40372 0.81743 0.0
O1372 O 0.89587 0.34643 0.89835 0.0
O1373 O 0.92233 0.30014 0.82877 0.0
O1374 O 0.94508 0.39415 0.82722 0.0
O1375 O 0.89865 0.39845 0.72018 0.0
C1376 C 0.81568 0.27453 0.78566 0.0
C1377 C 0.75856 0.49619 0.98454 0.0
C1378 C 0.79995 0.52195 1.00817 0.0
C1379 C 0.79112 0.33334 0.92565 0.0
C1380 C 0.77991 0.29676 0.95795 0.0
C1381 C 0.75475 0.31154 0.99644 0.0
C1382 C 0.80179 0.25593 0.95893 0.0
C1383 C 0.80168 0.23341 1.00173 0.0
C1384 C 0.75368 0.28792 0.03849 0.0
C1385 C 0.77828 0.2505 0.04209 0.0
C1386 C 0.80805 0.38136 0.73792 0.0
C1387 C 0.91952 0.42505 0.84073 0.0
C1388 C 0.94015 0.4079 0.72102 0.0
C1389 C 0.9549 0.41263 0.67268 0.0
C1390 C 0.9806 0.38044 0.64783 0.0
C1391 C 0.94118 0.45052 0.65046 0.0
C1392 C 0.95063 0.45423 0.6021 0.0
C1393 C 0.99156 0.3859 0.59942 0.0
C1394 C 0.97591 0.42236 0.57586 0.0
C1395 C 0.92391 0.31737 0.87988 0.0
H1396 H 0.73861 0.34419 0.99591 0.0
H1397 H 0.82174 0.24556 0.92927 0.0
H1398 H 0.7358 0.30067 0.06955 0.0
H1399 H 0.77958 0.2362 0.07716 0.0
H1400 H 0.993 0.35259 0.66613 0.0
H1401 H 0.92113 0.47521 0.66971 0.0
H1402 H 1.01157 0.36167 0.58012 0.0
H1403 H 0.9831 0.42532 0.53743 0.0
Gd1404 Gd 0.84288 0.7955 0.78031 0.0
Gd1405 Gd 0.90818 0.91814 0.80897 0.0
C1406 C 1.0105 0.94195 0.70102 0.0
C1407 C 0.05956 1.0187 0.75818 0.0
C1408 C 1.00222 0.96387 0.79078 0.0
C1409 C 0.98688 0.93503 0.74235 0.0
C1410 C 0.03835 1.00674 0.79978 0.0
C1411 C 0.04608 0.98538 0.70861 0.0
C1412 C 0.99941 0.90318 0.65487 0.0
C1413 C 0.96775 0.85753 0.65233 0.0
N1414 N 0.95172 0.89536 0.73799 0.0
C1415 C 0.94474 0.85379 0.69424 0.0
H1416 H 0.92168 0.81675 0.69031 0.0
C1417 C 0.9994 0.97018 0.87889 0.0
N1418 N 0.98235 0.94785 0.82964 0.0
C1419 C 0.03139 1.01761 0.88961 0.0
C1420 C 0.05139 1.03603 0.85026 0.0
H1421 H 0.98241 0.95586 0.908 0.0
H1422 H 0.06402 0.99241 0.67707 0.0
H1423 H 0.816 0.86793 0.91243 0.0
H1424 H 1.01721 0.90602 0.62268 0.0
H1425 H 0.96073 0.82516 0.61796 0.0
H1426 H 0.08729 0.05179 0.76434 0.0
H1427 H 0.77842 0.81561 0.68638 0.0
H1428 H 0.71003 0.75176 0.93651 0.0
H1429 H 0.76548 0.83665 0.96861 0.0
H1430 H 0.6613 0.64911 0.76013 0.0
H1431 H 0.0426 0.03811 0.9281 0.0
H1432 H 0.07767 0.07117 0.8595 0.0
H1433 H 0.67102 0.67805 0.85658 0.0
H1434 H 0.72854 0.73939 0.63505 0.0
N1435 N 0.79376 0.79915 0.84836 0.0
C1436 C 0.73281 0.76532 0.91171 0.0
C1437 C 0.76405 0.81298 0.92975 0.0
C1438 C 0.72841 0.73991 0.85955 0.0
C1439 C 0.75801 0.76153 0.82934 0.0
C1440 C 0.79361 0.83009 0.89713 0.0
N1441 N 0.77228 0.78681 0.75448 0.0
C1442 C 0.74781 0.75348 0.77848 0.0
C1443 C 0.73278 0.74203 0.67545 0.0
C1444 C 0.71058 0.70331 0.69916 0.0
C1445 C 0.76112 0.78644 0.70477 0.0
C1446 C 0.71434 0.71228 0.75224 0.0
H1447 H 0.68867 0.66902 0.67709 0.0
O1448 O 0.83525 0.73579 0.70793 0.0
O1449 O 0.90946 0.83638 0.77751 0.0
O1450 O 0.87217 0.91968 0.73382 0.0
O1451 O 0.85386 0.82887 0.70228 0.0
O1452 O 0.90486 0.77081 0.80617 0.0
O1453 O 0.82203 0.71035 0.77765 0.0
O1454 O 0.93081 0.99959 0.85176 0.0
O1455 O 0.83771 0.87987 0.79129 0.0
O1456 O 0.86495 0.79588 0.86195 0.0
O1457 O 0.90122 0.88544 0.89053 0.0
O1458 O 0.85876 0.93319 0.86222 0.0
O1459 O 0.90285 0.98475 0.77274 0.0
C1460 C 0.93227 0.80767 0.79383 0.0
C1461 C 0.68764 0.68186 0.78006 0.0
C1462 C 0.69364 0.69749 0.83462 0.0
C1463 C 0.82746 0.69532 0.72971 0.0
C1464 C 0.85484 0.65672 0.71924 0.0
C1465 C 0.85055 0.62414 0.66959 0.0
C1466 C 0.88694 0.65404 0.75746 0.0
C1467 C 0.91771 0.62455 0.74413 0.0
C1468 C 0.88058 0.5937 0.65641 0.0
C1469 C 0.91494 0.59547 0.6929 0.0
C1470 C 0.86341 0.87929 0.69355 0.0
C1471 C 0.82521 0.90606 0.83072 0.0
C1472 C 0.91781 1.02086 0.81542 0.0
C1473 C 0.89212 0.0595 0.83235 0.0
C1474 C 0.91035 0.10563 0.87151 0.0
C1475 C 0.8479 0.04581 0.81665 0.0
C1476 C 0.82179 0.0775 0.84003 0.0
C1477 C 0.88406 0.13634 0.89635 0.0
C1478 C 0.83989 0.12219 0.88091 0.0
C1479 C 0.88299 0.83639 0.9007 0.0
H1480 H 0.82385 0.62223 0.6414 0.0
H1481 H 0.88824 0.67467 0.79739 0.0
H1482 H 0.87699 0.56825 0.61816 0.0
H1483 H 0.93795 0.57159 0.68203 0.0
H1484 H 0.94448 0.11602 0.88469 0.0
H1485 H 0.83364 1.011 0.78559 0.0
H1486 H 0.89792 0.17144 0.9271 0.0
H1487 H 0.82037 0.14853 0.89804 0.0
Gd1488 Gd 0.6622 0.64265 0.57313 0.0
Gd1489 Gd 0.57714 0.55344 0.51689 0.0
C1490 C 0.54808 0.38858 0.55696 0.0
C1491 C 0.54454 0.32744 0.47444 0.0
C1492 C 0.57302 0.42403 0.48483 0.0
C1493 C 0.56531 0.43252 0.53558 0.0
C1494 C 0.56291 0.3708 0.45394 0.0
C1495 C 0.5373 0.33629 0.52601 0.0
C1496 C 0.54151 0.3985 0.60879 0.0
C1497 C 0.55592 0.4502 0.63919 0.0
N1498 N 0.5747 0.48375 0.56443 0.0
C1499 C 0.57445 0.49157 0.61699 0.0
H1500 H 0.58853 0.52913 0.64274 0.0
C1501 C 0.60217 0.45647 0.41655 0.0
N1502 N 0.58821 0.46751 0.46482 0.0
C1503 C 0.59255 0.40473 0.38501 0.0
C1504 C 0.57051 0.36238 0.40275 0.0
H1505 H 0.61604 0.48555 0.39639 0.0
H1506 H 0.5236 0.30242 0.54168 0.0
H1507 H 0.64594 0.66507 0.44649 0.0
H1508 H 0.52714 0.36624 0.62611 0.0
H1509 H 0.55258 0.45894 0.67975 0.0
H1510 H 0.53623 0.28678 0.45082 0.0
H1511 H 0.6221 0.71228 0.6917 0.0
H1512 H 0.71128 0.82587 0.45966 0.0
H1513 H 0.68254 0.73231 0.40703 0.0
H1514 H 0.70269 0.90936 0.6343 0.0
H1515 H 0.60017 0.39826 0.34568 0.0
H1516 H 0.55962 0.32332 0.37682 0.0
H1517 H 0.71583 0.8916 0.54351 0.0
H1518 H 0.63703 0.80041 0.74094 0.0
N1519 N 0.66363 0.71104 0.52426 0.0
C1520 C 0.6967 0.79434 0.47768 0.0
C1521 C 0.68074 0.74241 0.44803 0.0
C1522 C 0.69099 0.80561 0.52981 0.0
C1523 C 0.67379 0.76256 0.55223 0.0
C1524 C 0.66213 0.70224 0.47148 0.0
N1525 N 0.65089 0.72926 0.62357 0.0
C1526 C 0.66609 0.77215 0.60286 0.0
C1527 C 0.64524 0.79324 0.7019 0.0
C1528 C 0.66737 0.83521 0.6836 0.0
C1529 C 0.63619 0.74105 0.67129 0.0
C1530 C 0.67583 0.82575 0.63273 0.0
H1531 H 0.67758 0.87476 0.70876 0.0
O1532 O 0.72681 0.64255 0.60821 0.0
O1533 O 0.64399 0.55111 0.54876 0.0
O1534 O 0.55609 0.58994 0.59842 0.0
O1535 O 0.61998 0.63337 0.64479 0.0
O1536 O 0.67389 0.58312 0.6234 0.0
O1537 O 0.71957 0.68183 0.54469 0.0
O1538 O 0.51306 0.55414 0.48068 0.0
O1539 O 0.59498 0.64467 0.54391 0.0
O1540 O 0.68231 0.60546 0.49065 0.0
O1541 O 0.61806 0.56357 0.44485 0.0
O1542 O 0.56493 0.61553 0.46941 0.0
O1543 O 0.51963 0.51341 0.54336 0.0
C1544 C 0.66026 0.53757 0.58995 0.0
C1545 C 0.69452 0.86837 0.61143 0.0
C1546 C 0.70207 0.85831 0.55992 0.0
C1547 C 0.74518 0.66565 0.57446 0.0
C1548 C 0.79176 0.67879 0.57532 0.0
C1549 C 0.81515 0.73136 0.59609 0.0
C1550 C 0.81237 0.64075 0.54913 0.0
C1551 C 0.85675 0.65466 0.54683 0.0
C1552 C 0.85923 0.74427 0.59508 0.0
C1553 C 0.87999 0.70663 0.57035 0.0
C1554 C 0.57704 0.61676 0.64492 0.0
C1555 C 0.57818 0.66019 0.50441 0.0
C1556 C 0.49448 0.5308 0.51419 0.0
C1557 C 0.44819 0.51516 0.51176 0.0
C1558 C 0.42611 0.46197 0.49169 0.0
C1559 C 0.42657 0.55245 0.53647 0.0
C1560 C 0.38248 0.53707 0.53841 0.0
C1561 C 0.38187 0.44815 0.49068 0.0
C1562 C 0.36007 0.48486 0.51462 0.0
C1563 C 0.66085 0.57952 0.44403 0.0
H1564 H 0.79965 0.76234 0.6134 0.0
H1565 H 0.79411 0.60034 0.53157 0.0
H1566 H 0.87789 0.78304 0.61439 0.0
H1567 H 0.91442 0.71781 0.57122 0.0
H1568 H 0.44264 0.43149 0.47625 0.0
H1569 H 0.44401 0.59332 0.55383 0.0
H1570 H 0.36386 0.40979 0.46987 0.0
H1571 H 0.32558 0.47288 0.51279 0.0
Gd1572 Gd 0.08305 0.61104 0.08792 0.0
Gd1573 Gd 0.1622 0.59655 0.0145 0.0
C1574 C 0.26043 0.69929 0.95181 0.0
C1575 C 0.24614 0.65673 0.8609 0.0
C1576 C 0.19529 0.63204 0.91766 0.0
C1577 C 0.22109 0.66937 0.95901 0.0
C1578 C 0.20561 0.62907 0.86728 0.0
C1579 C 0.27449 0.68833 0.90375 0.0
C1580 C 0.28502 0.73785 0.99347 0.0
C1581 C 0.2699 0.74639 0.0411 0.0
N1582 N 0.20984 0.67282 1.00699 0.0
C1583 C 0.23337 0.71076 0.04807 0.0
H1584 H 0.22664 0.71084 0.08697 0.0
C1585 C 0.13459 0.56035 0.88764 0.0
N1586 N 0.16143 0.59707 0.92717 0.0
C1587 C 0.14053 0.56099 0.8363 0.0
C1588 C 0.17632 0.59538 0.82597 0.0
H1589 H 0.10834 0.53148 0.89581 0.0
H1590 H 0.30676 0.70558 0.89936 0.0
H1591 H 0.02307 0.50092 1.00234 0.0
H1592 H 0.31542 0.76093 0.98901 0.0
H1593 H 0.28848 0.77691 0.07346 0.0
H1594 H 0.25698 0.6526 0.82394 0.0
H1595 H 0.13107 0.6588 0.21339 0.0
H1596 H 0.92543 0.4375 0.08422 0.0
H1597 H 0.96143 0.42855 1.00583 0.0
H1598 H 0.9672 0.54114 0.25625 0.0
H1599 H 0.11903 0.5332 0.80471 0.0
H1600 H 0.18157 0.59419 0.78617 0.0
H1601 H 0.92483 0.48856 0.17485 0.0
H1602 H 0.11114 0.64989 0.29899 0.0
N1603 N 0.03165 0.53417 0.08372 0.0
C1604 C 0.95592 0.46327 0.08472 0.0
C1605 C 0.97595 0.45893 0.04023 0.0
C1606 C 0.97609 0.50075 0.12974 0.0
C1607 C 1.01629 0.53267 0.12901 0.0
C1608 C 1.01207 0.49835 0.03908 0.0
N1609 N 0.07659 0.59947 0.17158 0.0
C1610 C 0.03985 0.56523 0.17442 0.0
C1611 C 0.09085 0.62612 0.26411 0.0
C1612 C 0.05181 0.59319 0.26738 0.0
C1613 C 0.10205 0.63064 0.21549 0.0
C1614 C 0.0247 0.56433 0.22203 0.0
H1615 H 0.04279 0.59203 0.30517 0.0
O1616 O 0.05004 0.66675 0.13272 0.0
O1617 O 0.1344 0.66517 0.05603 0.0
O1618 O 0.18334 0.611 0.09983 0.0
O1619 O 0.12466 0.56813 0.1286 0.0
O1620 O 0.13106 0.68609 0.13297 0.0
O1621 O 0.02915 0.63374 0.0513 0.0
O1622 O 0.20193 0.54553 0.97861 0.0
O1623 O 0.10512 0.54369 0.03695 0.0
O1624 O 0.05909 0.59594 1.00331 0.0
O1625 O 0.11799 0.63351 0.96997 0.0
O1626 O 0.13494 0.50698 0.98183 0.0
O1627 O 0.22281 0.59671 0.05645 0.0
C1628 C 0.14896 0.7034 0.09663 0.0
C1629 C 0.98216 0.5377 0.22171 0.0
C1630 C 0.95758 0.50763 0.17523 0.0
C1631 C 0.0228 0.66498 0.093 0.0
C1632 C 0.97784 0.66259 0.09946 0.0
C1633 C 0.95678 0.63291 0.13183 0.0
C1634 C 0.95482 0.68815 0.06912 0.0
C1635 C 0.9109 0.68301 0.07025 0.0
C1636 C 0.91272 0.62734 0.13238 0.0
C1637 C 0.88997 0.6532 0.10259 0.0
C1638 C 0.16639 0.58256 0.13138 0.0
C1639 C 0.10582 0.49579 0.01042 0.0
C1640 C 0.23145 0.56138 0.01889 0.0
C1641 C 0.27604 0.56787 0.01039 0.0
C1642 C 0.29211 0.58737 0.96898 0.0
C1643 C 0.30254 0.55001 0.0438 0.0
C1644 C 0.34489 0.55129 0.03606 0.0
C1645 C 0.33557 0.59279 0.96371 0.0
C1646 C 0.36204 0.57451 0.99707 0.0
C1647 C 0.07625 0.62094 0.96935 0.0
H1648 H 0.97409 0.61397 0.1562 0.0
H1649 H 0.97096 0.71171 0.0444 0.0
H1650 H 0.89562 0.60192 0.15464 0.0
H1651 H 0.85598 0.64954 0.1045 0.0
H1652 H 0.27113 0.59683 0.9403 0.0
H1653 H 0.28932 0.53127 0.07357 0.0
H1654 H 0.34844 0.60907 0.93271 0.0
H1655 H 0.39475 0.57473 0.98992 0.0
loop_
_geom_bond_atom_site_label_1
_geom_bond_atom_site_label_2
_geom_bond_distance
_geom_bond_site_symmetry_2
_ccdc_geom_bond_type
In0 O1 2.294 . S
In0 O2 2.326 . S
In0 O6 2.266 . S
In0 O7 2.326 . S
In0 O8 2.266 . S
In0 O9 2.326 . S
In0 O11 2.294 . S
In0 O12 2.326 . S
O1 In0 2.294 . S
O1 C10 1.240 . S
O2 In0 2.326 . S
O2 C10 1.252 . S
C3 O6 1.252 . S
C3 O7 1.260 . S
C4 O11 1.240 . S
C4 O12 1.252 . S
C5 O8 1.252 . S
C5 O9 1.260 . S
O6 In0 2.266 . S
O6 C3 1.252 . S
O7 In0 2.326 . S
O7 C3 1.260 . S
O8 In0 2.266 . S
O8 C5 1.252 . S
O9 In0 2.326 . S
O9 C5 1.260 . S
C10 O1 1.240 . S
C10 O2 1.252 . S
O11 In0 2.294 . S
O11 C4 1.240 . S
O12 In0 2.326 . S
O12 C4 1.252 . S
In13 O14 2.294 . S
In13 O15 2.326 . S
In13 O19 2.266 1_455 S
In13 O20 2.326 1_455 S
In13 O21 2.266 1_455 S
In13 O22 2.326 1_455 S
In13 O24 2.294 . S
In13 O25 2.326 . S
O14 In13 2.294 . S
O14 C23 1.240 . S
O15 In13 2.326 . S
O15 C23 1.252 . S
C16 O19 1.252 . S
C16 O20 1.260 . S
C17 O24 1.240 . S
C17 O25 1.252 . S
C18 O21 1.252 . S
C18 O22 1.260 . S
O19 In13 2.266 1_655 S
O19 C16 1.252 . S
O20 In13 2.326 1_655 S
O20 C16 1.260 . S
O21 In13 2.266 1_655 S
O21 C18 1.252 . S
O22 In13 2.326 1_655 S
O22 C18 1.260 . S
C23 O14 1.240 . S
C23 O15 1.252 . S
O24 In13 2.294 . S
O24 C17 1.240 . S
O25 In13 2.326 . S
O25 C17 1.252 . S
In26 O27 2.294 . S
In26 O28 2.326 . S
In26 O32 2.266 . S
In26 O33 2.326 . S
In26 O34 2.266 . S
In26 O35 2.326 . S
In26 O37 2.294 . S
In26 O38 2.326 . S
O27 In26 2.294 . S
O27 C36 1.240 . S
O28 In26 2.326 . S
O28 C36 1.252 . S
C29 O32 1.252 . S
C29 O33 1.260 . S
C30 O37 1.240 . S
C30 O38 1.252 . S
C31 O34 1.252 1_545 S
C31 O35 1.260 1_545 S
O32 In26 2.266 . S
O32 C29 1.252 . S
O33 In26 2.326 . S
O33 C29 1.260 . S
O34 In26 2.266 . S
O34 C31 1.252 1_565 S
O35 In26 2.326 . S
O35 C31 1.260 1_565 S
C36 O27 1.240 . S
C36 O28 1.252 . S
O37 In26 2.294 . S
O37 C30 1.240 . S
O38 In26 2.326 . S
O38 C30 1.252 . S
In39 O40 2.294 . S
In39 O41 2.326 . S
In39 O45 2.266 . S
In39 O46 2.326 . S
In39 O47 2.266 . S
In39 O48 2.326 . S
In39 O50 2.294 . S
In39 O51 2.326 . S
O40 In39 2.294 . S
O40 C49 1.240 . S
O41 In39 2.326 . S
O41 C49 1.252 . S
C42 O45 1.252 . S
C42 O46 1.260 . S
C43 O50 1.240 . S
C43 O51 1.252 . S
C44 O47 1.252 . S
C44 O48 1.260 . S
O45 In39 2.266 . S
O45 C42 1.252 . S
O46 In39 2.326 . S
O46 C42 1.260 . S
O47 In39 2.266 . S
O47 C44 1.252 . S
O48 In39 2.326 . S
O48 C44 1.260 . S
C49 O40 1.240 . S
C49 O41 1.252 . S
O50 In39 2.294 . S
O50 C43 1.240 . S
O51 In39 2.326 . S
O51 C43 1.252 . S
In52 O53 2.294 . S
In52 O54 2.326 . S
In52 O58 2.266 . S
In52 O59 2.326 . S
In52 O60 2.266 . S
In52 O61 2.326 . S
In52 O63 2.294 . S
In52 O64 2.326 . S
O53 In52 2.294 . S
O53 C62 1.240 . S
O54 In52 2.326 . S
O54 C62 1.252 . S
C55 O58 1.252 . S
C55 O59 1.260 . S
C56 O63 1.240 . S
C56 O64 1.252 . S
C57 O60 1.252 . S
C57 O61 1.260 . S
O58 In52 2.266 . S
O58 C55 1.252 . S
O59 In52 2.326 . S
O59 C55 1.260 . S
O60 In52 2.266 . S
O60 C57 1.252 . S
O61 In52 2.326 . S
O61 C57 1.260 . S
C62 O53 1.240 . S
C62 O54 1.252 . S
O63 In52 2.294 . S
O63 C56 1.240 . S
O64 In52 2.326 . S
O64 C56 1.252 . S
In65 O66 2.294 . S
In65 O67 2.326 . S
In65 O71 2.266 . S
In65 O72 2.326 . S
In65 O73 2.266 . S
In65 O74 2.326 . S
In65 O76 2.294 . S
In65 O77 2.326 . S
O66 In65 2.294 . S
O66 C75 1.240 . S
O67 In65 2.326 . S
O67 C75 1.252 . S
C68 O71 1.252 . S
C68 O72 1.260 . S
C69 O76 1.240 . S
C69 O77 1.252 . S
C70 O73 1.252 . S
C70 O74 1.260 . S
O71 In65 2.266 . S
O71 C68 1.252 . S
O72 In65 2.326 . S
O72 C68 1.260 . S
O73 In65 2.266 . S
O73 C70 1.252 . S
O74 In65 2.326 . S
O74 C70 1.260 . S
C75 O66 1.240 . S
C75 O67 1.252 . S
O76 In65 2.294 . S
O76 C69 1.240 . S
O77 In65 2.326 . S
O77 C69 1.252 . S
In78 O79 2.294 . S
In78 O80 2.326 . S
In78 O84 2.266 . S
In78 O85 2.326 . S
In78 O86 2.266 . S
In78 O87 2.326 . S
In78 O89 2.294 . S
In78 O90 2.326 . S
O79 In78 2.294 . S
O79 C88 1.240 . S
O80 In78 2.326 . S
O80 C88 1.252 . S
C81 O84 1.252 . S
C81 O85 1.260 . S
C82 O89 1.240 . S
C82 O90 1.252 . S
C83 O86 1.252 . S
C83 O87 1.260 . S
O84 In78 2.266 . S
O84 C81 1.252 . S
O85 In78 2.326 . S
O85 C81 1.260 . S
O86 In78 2.266 . S
O86 C83 1.252 . S
O87 In78 2.326 . S
O87 C83 1.260 . S
C88 O79 1.240 . S
C88 O80 1.252 . S
O89 In78 2.294 . S
O89 C82 1.240 . S
O90 In78 2.326 . S
O90 C82 1.252 . S
In91 O92 2.294 1_556 S
In91 O93 2.326 . S
In91 O97 2.266 1_556 S
In91 O98 2.326 . S
In91 O99 2.266 1_455 S
In91 O100 2.326 1_455 S
In91 O102 2.294 . S
In91 O103 2.326 . S
O92 In91 2.294 1_554 S
O92 C101 1.240 1_554 S
O93 In91 2.326 . S
O93 C101 1.252 . S
C94 O97 1.252 . S
C94 O98 1.260 1_554 S
C95 O102 1.240 . S
C95 O103 1.252 . S
C96 O99 1.252 . S
C96 O100 1.260 . S
O97 In91 2.266 1_554 S
O97 C94 1.252 . S
O98 In91 2.326 . S
O98 C94 1.260 1_556 S
O99 In91 2.266 1_655 S
O99 C96 1.252 . S
O100 In91 2.326 1_655 S
O100 C96 1.260 . S
C101 O92 1.240 1_556 S
C101 O93 1.252 . S
O102 In91 2.294 . S
O102 C95 1.240 . S
O103 In91 2.326 . S
O103 C95 1.252 . S
In104 O105 2.294 . S
In104 O106 2.327 1_545 S
In104 O110 2.265 . S
In104 O111 2.325 . S
In104 O112 2.265 1_545 S
In104 O113 2.323 1_545 S
In104 O115 2.296 . S
In104 O116 2.329 . S
O105 In104 2.294 . S
O105 C114 1.240 . S
O106 In104 2.327 1_565 S
O106 C114 1.252 1_565 S
C107 O110 1.252 . S
C107 O111 1.260 . S
C108 O115 1.240 . S
C108 O116 1.252 . S
C109 O112 1.252 . S
C109 O113 1.260 . S
O110 In104 2.265 . S
O110 C107 1.252 . S
O111 In104 2.325 . S
O111 C107 1.260 . S
O112 In104 2.265 1_565 S
O112 C109 1.252 . S
O113 In104 2.323 1_565 S
O113 C109 1.260 . S
C114 O105 1.240 . S
C114 O106 1.252 1_545 S
O115 In104 2.296 . S
O115 C108 1.240 . S
O116 In104 2.329 . S
O116 C108 1.252 . S
In117 O118 2.294 . S
In117 O119 2.326 . S
In117 O123 2.266 . S
In117 O124 2.326 . S
In117 O125 2.266 . S
In117 O126 2.326 . S
In117 O128 2.294 . S
In117 O129 2.326 . S
O118 In117 2.294 . S
O118 C127 1.240 . S
O119 In117 2.326 . S
O119 C127 1.252 . S
C120 O123 1.252 . S
C120 O124 1.260 . S
C121 O128 1.240 . S
C121 O129 1.252 . S
C122 O125 1.252 . S
C122 O126 1.260 . S
O123 In117 2.266 . S
O123 C120 1.252 . S
O124 In117 2.326 . S
O124 C120 1.260 . S
O125 In117 2.266 . S
O125 C122 1.252 . S
O126 In117 2.326 . S
O126 C122 1.260 . S
C127 O118 1.240 . S
C127 O119 1.252 . S
O128 In117 2.294 . S
O128 C121 1.240 . S
O129 In117 2.326 . S
O129 C121 1.252 . S
In130 O131 2.294 1_545 S
In130 O132 2.326 . S
In130 O136 2.266 . S
In130 O137 2.326 . S
In130 O138 2.266 . S
In130 O139 2.326 . S
In130 O141 2.294 1_545 S
In130 O142 2.326 1_545 S
O131 In130 2.294 1_565 S
O131 C140 1.241 . S
O132 In130 2.326 . S
O132 C140 1.253 1_545 S
C133 O136 1.252 . S
C133 O137 1.260 . S
C134 O141 1.240 . S
C134 O142 1.252 . S
C135 O138 1.252 . S
C135 O139 1.260 . S
O136 In130 2.266 . S
O136 C133 1.252 . S
O137 In130 2.326 . S
O137 C133 1.260 . S
O138 In130 2.266 . S
O138 C135 1.252 . S
O139 In130 2.326 . S
O139 C135 1.260 . S
C140 O131 1.241 . S
C140 O132 1.253 1_565 S
O141 In130 2.294 1_565 S
O141 C134 1.240 . S
O142 In130 2.326 1_565 S
O142 C134 1.252 . S
In143 O144 2.300 . S
In143 O145 2.335 1_565 S
In143 O149 2.261 1_554 S
In143 O150 2.317 1_554 S
In143 O151 2.264 1_565 S
In143 O152 2.324 1_554 S
In143 O154 2.294 1_565 S
In143 O155 2.329 1_554 S
O144 In143 2.300 . S
O144 C153 1.240 . S
O145 In143 2.335 1_545 S
O145 C153 1.252 1_545 S
C146 O149 1.252 . S
C146 O150 1.260 . S
C147 O154 1.240 . S
C147 O155 1.253 1_544 S
C148 O151 1.252 . S
C148 O152 1.263 1_544 S
O149 In143 2.261 1_556 S
O149 C146 1.252 . S
O150 In143 2.317 1_556 S
O150 C146 1.260 . S
O151 In143 2.264 1_545 S
O151 C148 1.252 . S
O152 In143 2.324 1_556 S
O152 C148 1.263 1_566 S
C153 O144 1.240 . S
C153 O145 1.252 1_565 S
O154 In143 2.294 1_545 S
O154 C147 1.240 . S
O155 In143 2.329 1_556 S
O155 C147 1.253 1_566 S
In156 O157 2.294 . S
In156 O158 2.326 . S
In156 O162 2.266 1_554 S
In156 O163 2.326 1_554 S
In156 O164 2.266 . S
In156 O165 2.326 . S
In156 O167 2.294 . S
In156 O168 2.326 . S
O157 In156 2.294 . S
O157 C166 1.240 . S
O158 In156 2.326 . S
O158 C166 1.252 . S
C159 O162 1.252 . S
C159 O163 1.260 . S
C160 O167 1.240 . S
C160 O168 1.252 . S
C161 O164 1.252 . S
C161 O165 1.260 . S
O162 In156 2.266 1_556 S
O162 C159 1.252 . S
O163 In156 2.326 1_556 S
O163 C159 1.260 . S
O164 In156 2.266 . S
O164 C161 1.252 . S
O165 In156 2.326 . S
O165 C161 1.260 . S
C166 O157 1.240 . S
C166 O158 1.252 . S
O167 In156 2.294 . S
O167 C160 1.240 . S
O168 In156 2.326 . S
O168 C160 1.252 . S
In169 O170 2.294 . S
In169 O171 2.326 . S
In169 O175 2.266 . S
In169 O176 2.326 . S
In169 O177 2.266 . S
In169 O178 2.326 1_554 S
In169 O180 2.294 . S
In169 O181 2.326 . S
O170 In169 2.294 . S
O170 C179 1.240 . S
O171 In169 2.326 . S
O171 C179 1.252 . S
C172 O175 1.252 . S
C172 O176 1.260 . S
C173 O180 1.240 . S
C173 O181 1.252 . S
C174 O177 1.252 1_556 S
C174 O178 1.260 . S
O175 In169 2.266 . S
O175 C172 1.252 . S
O176 In169 2.326 . S
O176 C172 1.260 . S
O177 In169 2.266 . S
O177 C174 1.252 1_554 S
O178 In169 2.326 1_556 S
O178 C174 1.260 . S
C179 O170 1.240 . S
C179 O171 1.252 . S
O180 In169 2.294 . S
O180 C173 1.240 . S
O181 In169 2.326 . S
O181 C173 1.252 . S
In182 O183 2.294 . S
In182 O184 2.326 . S
In182 O188 2.266 . S
In182 O189 2.326 . S
In182 O190 2.266 . S
In182 O191 2.326 . S
In182 O193 2.294 . S
In182 O194 2.326 . S
O183 In182 2.294 . S
O183 C192 1.240 . S
O184 In182 2.326 . S
O184 C192 1.252 . S
C185 O188 1.252 . S
C185 O189 1.260 . S
C186 O193 1.240 . S
C186 O194 1.252 . S
C187 O190 1.252 . S
C187 O191 1.260 . S
O188 In182 2.266 . S
O188 C185 1.252 . S
O189 In182 2.326 . S
O189 C185 1.260 . S
O190 In182 2.266 . S
O190 C187 1.252 . S
O191 In182 2.326 . S
O191 C187 1.260 . S
C192 O183 1.240 . S
C192 O184 1.252 . S
O193 In182 2.294 . S
O193 C186 1.240 . S
O194 In182 2.326 . S
O194 C186 1.252 . S
In195 O196 2.294 . S
In195 O197 2.326 . S
In195 O201 2.266 . S
In195 O202 2.326 . S
In195 O203 2.266 . S
In195 O204 2.326 . S
In195 O206 2.294 . S
In195 O207 2.326 . S
O196 In195 2.294 . S
O196 C205 1.240 . S
O197 In195 2.326 . S
O197 C205 1.252 . S
C198 O201 1.252 . S
C198 O202 1.260 . S
C199 O206 1.240 . S
C199 O207 1.252 . S
C200 O203 1.252 . S
C200 O204 1.260 . S
O201 In195 2.266 . S
O201 C198 1.252 . S
O202 In195 2.326 . S
O202 C198 1.260 . S
O203 In195 2.266 . S
O203 C200 1.252 . S
O204 In195 2.326 . S
O204 C200 1.260 . S
C205 O196 1.240 . S
C205 O197 1.252 . S
O206 In195 2.294 . S
O206 C199 1.240 . S
O207 In195 2.326 . S
O207 C199 1.252 . S
In208 O209 2.294 1_655 S
In208 O210 2.326 . S
In208 O214 2.266 1_655 S
In208 O215 2.326 . S
In208 O216 2.266 . S
In208 O217 2.326 . S
In208 O219 2.294 . S
In208 O220 2.326 1_655 S
O209 In208 2.294 1_455 S
O209 C218 1.240 . S
O210 In208 2.326 . S
O210 C218 1.252 1_655 S
C211 O214 1.252 . S
C211 O215 1.260 1_455 S
C212 O219 1.240 . S
C212 O220 1.252 1_655 S
C213 O216 1.252 1_565 S
C213 O217 1.260 1_565 S
O214 In208 2.266 1_455 S
O214 C211 1.252 . S
O215 In208 2.326 . S
O215 C211 1.260 1_655 S
O216 In208 2.266 . S
O216 C213 1.252 1_545 S
O217 In208 2.326 . S
O217 C213 1.260 1_545 S
C218 O209 1.240 . S
C218 O210 1.252 1_455 S
O219 In208 2.294 . S
O219 C212 1.240 . S
O220 In208 2.326 1_455 S
O220 C212 1.252 1_455 S
In221 O222 2.294 . S
In221 O223 2.326 . S
In221 O227 2.266 . S
In221 O228 2.326 . S
In221 O229 2.266 . S
In221 O230 2.326 . S
In221 O232 2.294 . S
In221 O233 2.326 . S
O222 In221 2.294 . S
O222 C231 1.240 . S
O223 In221 2.326 . S
O223 C231 1.252 . S
C224 O227 1.252 . S
C224 O228 1.260 . S
C225 O232 1.240 . S
C225 O233 1.252 . S
C226 O229 1.252 . S
C226 O230 1.260 . S
O227 In221 2.266 . S
O227 C224 1.252 . S
O228 In221 2.326 . S
O228 C224 1.260 . S
O229 In221 2.266 . S
O229 C226 1.252 . S
O230 In221 2.326 . S
O230 C226 1.260 . S
C231 O222 1.240 . S
C231 O223 1.252 . S
O232 In221 2.294 . S
O232 C225 1.240 . S
O233 In221 2.326 . S
O233 C225 1.252 . S
In234 O235 2.294 . S
In234 O236 2.326 . S
In234 O240 2.266 . S
In234 O241 2.326 . S
In234 O242 2.266 . S
In234 O243 2.326 . S
In234 O245 2.294 . S
In234 O246 2.326 . S
O235 In234 2.294 . S
O235 C244 1.240 . S
O236 In234 2.326 . S
O236 C244 1.252 . S
C237 O240 1.252 . S
C237 O241 1.260 . S
C238 O245 1.240 . S
C238 O246 1.252 . S
C239 O242 1.252 . S
C239 O243 1.260 . S
O240 In234 2.266 . S
O240 C237 1.252 . S
O241 In234 2.326 . S
O241 C237 1.260 . S
O242 In234 2.266 . S
O242 C239 1.252 . S
O243 In234 2.326 . S
O243 C239 1.260 . S
C244 O235 1.240 . S
C244 O236 1.252 . S
O245 In234 2.294 . S
O245 C238 1.240 . S
O246 In234 2.326 . S
O246 C238 1.252 . S
In247 O248 2.294 . S
In247 O249 2.326 . S
In247 O253 2.266 . S
In247 O254 2.326 . S
In247 O255 2.266 . S
In247 O256 2.326 . S
In247 O258 2.294 . S
In247 O259 2.326 . S
O248 In247 2.294 . S
O248 C257 1.240 . S
O249 In247 2.326 . S
O249 C257 1.252 . S
C250 O253 1.252 . S
C250 O254 1.260 . S
C251 O258 1.240 . S
C251 O259 1.252 . S
C252 O255 1.252 . S
C252 O256 1.260 . S
O253 In247 2.266 . S
O253 C250 1.252 . S
O254 In247 2.326 . S
O254 C250 1.260 . S
O255 In247 2.266 . S
O255 C252 1.252 . S
O256 In247 2.326 . S
O256 C252 1.260 . S
C257 O248 1.240 . S
C257 O249 1.252 . S
O258 In247 2.294 . S
O258 C251 1.240 . S
O259 In247 2.326 . S
O259 C251 1.252 . S
In260 O261 2.294 . S
In260 O262 2.326 . S
In260 O266 2.266 1_554 S
In260 O267 2.326 . S
In260 O268 2.266 1_554 S
In260 O269 2.326 1_554 S
In260 O271 2.294 . S
In260 O272 2.326 . S
O261 In260 2.294 . S
O261 C270 1.240 . S
O262 In260 2.326 . S
O262 C270 1.252 . S
C263 O266 1.252 . S
C263 O267 1.260 1_556 S
C264 O271 1.240 . S
C264 O272 1.252 . S
C265 O268 1.252 . S
C265 O269 1.260 . S
O266 In260 2.266 1_556 S
O266 C263 1.252 . S
O267 In260 2.326 . S
O267 C263 1.260 1_554 S
O268 In260 2.266 1_556 S
O268 C265 1.252 . S
O269 In260 2.326 1_556 S
O269 C265 1.260 . S
C270 O261 1.240 . S
C270 O262 1.252 . S
O271 In260 2.294 . S
O271 C264 1.240 . S
O272 In260 2.326 . S
O272 C264 1.252 . S
In273 O274 2.294 . S
In273 O275 2.326 . S
In273 O279 2.266 . S
In273 O280 2.326 . S
In273 O281 2.266 1_655 S
In273 O282 2.326 . S
In273 O284 2.294 1_655 S
In273 O285 2.326 . S
O274 In273 2.294 . S
O274 C283 1.240 . S
O275 In273 2.326 . S
O275 C283 1.252 . S
C276 O279 1.252 . S
C276 O280 1.260 . S
C277 O284 1.240 1_655 S
C277 O285 1.252 . S
C278 O281 1.252 1_655 S
C278 O282 1.260 . S
O279 In273 2.266 . S
O279 C276 1.252 . S
O280 In273 2.326 . S
O280 C276 1.260 . S
O281 In273 2.266 1_455 S
O281 C278 1.252 1_455 S
O282 In273 2.326 . S
O282 C278 1.260 . S
C283 O274 1.240 . S
C283 O275 1.252 . S
O284 In273 2.294 1_455 S
O284 C277 1.240 1_455 S
O285 In273 2.326 . S
O285 C277 1.252 . S
In286 O287 2.294 . S
In286 O288 2.326 . S
In286 O292 2.266 . S
In286 O293 2.326 . S
In286 O294 2.266 . S
In286 O295 2.326 . S
In286 O297 2.294 . S
In286 O298 2.326 . S
O287 In286 2.294 . S
O287 C296 1.240 . S
O288 In286 2.326 . S
O288 C296 1.252 . S
C289 O292 1.252 . S
C289 O293 1.260 . S
C290 O297 1.240 . S
C290 O298 1.252 . S
C291 O294 1.252 1_455 S
C291 O295 1.260 1_455 S
O292 In286 2.266 . S
O292 C289 1.252 . S
O293 In286 2.326 . S
O293 C289 1.260 . S
O294 In286 2.266 . S
O294 C291 1.252 1_655 S
O295 In286 2.326 . S
O295 C291 1.260 1_655 S
C296 O287 1.240 . S
C296 O288 1.252 . S
O297 In286 2.294 . S
O297 C290 1.240 . S
O298 In286 2.326 . S
O298 C290 1.252 . S
In299 O300 2.294 . S
In299 O301 2.326 . S
In299 O305 2.266 . S
In299 O306 2.326 . S
In299 O307 2.266 . S
In299 O308 2.326 . S
In299 O310 2.294 . S
In299 O311 2.326 . S
O300 In299 2.294 . S
O300 C309 1.240 . S
O301 In299 2.326 . S
O301 C309 1.252 . S
C302 O305 1.252 . S
C302 O306 1.260 . S
C303 O310 1.240 . S
C303 O311 1.252 . S
C304 O307 1.252 . S
C304 O308 1.260 . S
O305 In299 2.266 . S
O305 C302 1.252 . S
O306 In299 2.326 . S
O306 C302 1.260 . S
O307 In299 2.266 . S
O307 C304 1.252 . S
O308 In299 2.326 . S
O308 C304 1.260 . S
C309 O300 1.240 . S
C309 O301 1.252 . S
O310 In299 2.294 . S
O310 C303 1.240 . S
O311 In299 2.326 . S
O311 C303 1.252 . S
Gd312 N343 2.661 . S
Gd312 N349 2.601 . S
Gd312 O356 2.545 . S
Gd312 O357 2.606 . S
Gd312 O359 2.429 . S
Gd312 O360 2.545 . S
Gd312 O361 2.412 . S
Gd312 O363 2.362 . S
Gd312 O364 2.324 1_554 S
Gd312 C371 2.828 . S
Gd313 N322 2.661 1_545 S
Gd313 N326 2.601 1_544 S
Gd313 O357 2.362 . S
Gd313 O358 2.324 . S
Gd313 O362 2.545 1_454 S
Gd313 O363 2.606 . S
Gd313 O365 2.429 1_554 S
Gd313 O366 2.545 . S
Gd313 O367 2.412 1_455 S
Gd313 C380 2.828 1_454 S
C314 C317 1.417 1_655 S
C314 C319 1.431 1_554 S
C314 C320 1.412 . S
C315 C318 1.437 . S
C315 C319 1.317 . S
C315 H334 0.929 . S
C316 C317 1.426 1_556 S
C316 C318 1.413 1_455 S
C316 N326 1.359 . S
C317 C314 1.417 1_455 S
C317 C316 1.426 1_554 S
C317 N322 1.350 . S
C318 C315 1.437 . S
C318 C316 1.413 1_655 S
C318 C328 1.391 . S
C319 C314 1.431 1_556 S
C319 C315 1.317 . S
C319 H330 0.930 . S
C320 C314 1.412 . S
C320 C321 1.355 1_655 S
C320 H332 0.930 . S
C321 C320 1.355 1_455 S
C321 C323 1.402 . S
C321 H333 0.930 . S
N322 Gd313 2.661 1_565 S
N322 C317 1.350 . S
N322 C323 1.307 . S
C323 C321 1.402 . S
C323 N322 1.307 . S
C323 H324 0.930 . S
H324 C323 0.930 . S
C325 N326 1.334 . S
C325 C327 1.394 1_455 S
C325 H329 0.930 . S
N326 Gd313 2.601 1_566 S
N326 C316 1.359 . S
N326 C325 1.334 . S
C327 C325 1.394 1_655 S
C327 C328 1.359 . S
C327 H339 0.930 . S
C328 C318 1.391 . S
C328 C327 1.359 . S
C328 H340 0.929 . S
H329 C325 0.930 . S
H330 C319 0.930 . S
H331 C348 0.930 1_556 S
H332 C320 0.930 . S
H333 C321 0.930 . S
H334 C315 0.929 . S
H335 C353 0.930 . S
H336 C344 0.930 . S
H337 C345 0.930 . S
H338 C369 0.929 . S
H339 C327 0.930 . S
H340 C328 0.929 . S
H341 C370 0.930 . S
H342 C351 0.930 . S
N343 Gd312 2.661 . S
N343 C347 1.350 . S
N343 C348 1.307 . S
C344 H336 0.930 . S
C344 C345 1.355 1_554 S
C344 C346 1.412 . S
C345 H337 0.930 . S
C345 C344 1.355 1_556 S
C345 C348 1.402 1_556 S
C346 C344 1.412 . S
C346 C347 1.417 . S
C346 C370 1.431 . S
C347 N343 1.350 . S
C347 C346 1.417 . S
C347 C350 1.426 . S
C348 H331 0.930 1_554 S
C348 N343 1.307 . S
C348 C345 1.402 1_554 S
N349 Gd312 2.601 . S
N349 C350 1.359 . S
N349 C353 1.334 . S
C350 C347 1.426 . S
C350 N349 1.359 . S
C350 C354 1.413 . S
C351 H342 0.930 . S
C351 C352 1.359 . S
C351 C353 1.394 . S
C352 C351 1.359 . S
C352 C354 1.391 . S
C352 H355 0.929 . S
C353 H335 0.930 . S
C353 N349 1.334 . S
C353 C351 1.394 . S
C354 C350 1.413 . S
C354 C352 1.391 . S
C354 C369 1.437 . S
H355 C352 0.929 . S
O356 Gd312 2.545 . S
O356 C371 1.258 . S
O357 Gd312 2.606 . S
O357 Gd313 2.362 . S
O357 C368 1.284 1_545 S
O358 Gd313 2.324 . S
O358 C378 1.254 . S
O359 Gd312 2.429 . S
O359 C378 1.268 . S
O360 Gd312 2.545 . S
O360 C368 1.250 1_545 S
O361 Gd312 2.412 . S
O361 C371 1.252 . S
O362 Gd313 2.545 1_656 S
O362 C380 1.258 . S
O363 Gd312 2.362 . S
O363 Gd313 2.606 . S
O363 C379 1.284 . S
O364 Gd312 2.324 1_556 S
O364 C387 1.254 . S
O365 Gd313 2.429 1_556 S
O365 C387 1.268 . S
O366 Gd313 2.545 . S
O366 C379 1.250 . S
O367 Gd313 2.412 1_655 S
O367 C380 1.252 1_554 S
C368 O357 1.284 1_565 S
C368 O360 1.250 1_565 S
C369 H338 0.929 . S
C369 C354 1.437 . S
C369 C370 1.317 . S
C370 H341 0.930 . S
C370 C346 1.431 . S
C370 C369 1.317 . S
C371 Gd312 2.828 . S
C371 O356 1.258 . S
C371 O361 1.252 . S
C371 C372 1.497 . S
C372 C371 1.497 . S
C372 C373 1.395 . S
C372 C374 1.380 . S
C373 C372 1.395 . S
C373 C376 1.398 . S
C373 H388 0.930 . S
C374 C372 1.380 . S
C374 C375 1.391 . S
C374 H389 0.930 . S
C375 C374 1.391 . S
C375 C377 1.387 . S
C376 C373 1.398 . S
C376 C377 1.380 . S
C376 H390 0.930 . S
C377 C375 1.387 . S
C377 C376 1.380 . S
C377 H391 0.930 . S
C378 O358 1.254 . S
C378 O359 1.268 . S
C379 O363 1.284 . S
C379 O366 1.250 . S
C380 Gd313 2.828 1_656 S
C380 O362 1.258 . S
C380 O367 1.252 1_556 S
C380 C381 1.497 . S
C381 C380 1.497 . S
C381 C382 1.395 . S
C381 C383 1.380 1_556 S
C382 C381 1.395 . S
C382 C385 1.398 . S
C382 H392 0.930 1_545 S
C383 C381 1.380 1_554 S
C383 C384 1.391 1_554 S
C383 H393 0.930 . S
C384 C383 1.391 1_556 S
C384 C386 1.387 . S
C385 C382 1.398 . S
C385 C386 1.380 . S
C385 H394 0.930 1_545 S
C386 C384 1.387 . S
C386 C385 1.380 . S
C386 H395 0.930 . S
C387 O364 1.254 . S
C387 O365 1.268 . S
H388 C373 0.930 . S
H389 C374 0.930 . S
H390 C376 0.930 . S
H391 C377 0.930 . S
H392 C382 0.930 1_565 S
H393 C383 0.930 . S
H394 C385 0.930 1_565 S
H395 C386 0.930 . S
Gd396 N427 2.661 . S
Gd396 N433 2.601 . S
Gd396 O440 2.545 . S
Gd396 O441 2.606 . S
Gd396 O443 2.429 . S
Gd396 O444 2.545 . S
Gd396 O445 2.412 . S
Gd396 O447 2.362 . S
Gd396 O448 2.324 . S
Gd396 C455 2.828 . S
Gd397 N406 2.661 . S
Gd397 N410 2.601 . S
Gd397 O441 2.362 . S
Gd397 O442 2.324 . S
Gd397 O446 2.545 . S
Gd397 O447 2.606 . S
Gd397 O449 2.429 . S
Gd397 O450 2.545 . S
Gd397 O451 2.412 . S
Gd397 C464 2.828 . S
C398 C401 1.417 . S
C398 C403 1.431 . S
C398 C404 1.412 . S
C399 C402 1.437 . S
C399 C403 1.317 . S
C399 H418 0.929 . S
C400 C401 1.426 . S
C400 C402 1.413 . S
C400 N410 1.359 . S
C401 C398 1.417 . S
C401 C400 1.426 . S
C401 N406 1.350 . S
C402 C399 1.437 . S
C402 C400 1.413 . S
C402 C412 1.391 . S
C403 C398 1.431 . S
C403 C399 1.317 . S
C403 H414 0.930 . S
C404 C398 1.412 . S
C404 C405 1.355 . S
C404 H416 0.930 . S
C405 C404 1.355 . S
C405 C407 1.402 . S
C405 H417 0.930 . S
N406 Gd397 2.661 . S
N406 C401 1.350 . S
N406 C407 1.307 . S
C407 C405 1.402 . S
C407 N406 1.307 . S
C407 H408 0.930 . S
H408 C407 0.930 . S
C409 N410 1.334 . S
C409 C411 1.394 . S
C409 H413 0.930 . S
N410 Gd397 2.601 . S
N410 C400 1.359 . S
N410 C409 1.334 . S
C411 C409 1.394 . S
C411 C412 1.359 . S
C411 H423 0.930 . S
C412 C402 1.391 . S
C412 C411 1.359 . S
C412 H424 0.929 . S
H413 C409 0.930 . S
H414 C403 0.930 . S
H415 C432 0.930 . S
H416 C404 0.930 . S
H417 C405 0.930 . S
H418 C399 0.929 . S
H419 C437 0.930 . S
H420 C428 0.930 . S
H421 C429 0.930 . S
H422 C453 0.929 . S
H423 C411 0.930 . S
H424 C412 0.929 . S
H425 C454 0.930 . S
H426 C435 0.930 . S
N427 Gd396 2.661 . S
N427 C431 1.350 . S
N427 C432 1.307 . S
C428 H420 0.930 . S
C428 C429 1.355 1_545 S
C428 C430 1.412 . S
C429 H421 0.930 . S
C429 C428 1.355 1_565 S
C429 C432 1.402 . S
C430 C428 1.412 . S
C430 C431 1.417 1_545 S
C430 C454 1.431 . S
C431 N427 1.350 . S
C431 C430 1.417 1_565 S
C431 C434 1.426 . S
C432 H415 0.930 . S
C432 N427 1.307 . S
C432 C429 1.402 . S
N433 Gd396 2.601 . S
N433 C434 1.359 . S
N433 C437 1.334 . S
C434 C431 1.426 . S
C434 N433 1.359 . S
C434 C438 1.413 . S
C435 H426 0.930 . S
C435 C436 1.359 . S
C435 C437 1.394 . S
C436 C435 1.359 . S
C436 C438 1.391 . S
C436 H439 0.929 1_565 S
C437 H419 0.930 . S
C437 N433 1.334 . S
C437 C435 1.394 . S
C438 C434 1.413 . S
C438 C436 1.391 . S
C438 C453 1.437 1_565 S
H439 C436 0.929 1_545 S
O440 Gd396 2.545 . S
O440 C455 1.258 . S
O441 Gd396 2.606 . S
O441 Gd397 2.362 . S
O441 C452 1.284 . S
O442 Gd397 2.324 . S
O442 C462 1.254 . S
O443 Gd396 2.429 . S
O443 C462 1.268 . S
O444 Gd396 2.545 . S
O444 C452 1.250 . S
O445 Gd396 2.412 . S
O445 C455 1.252 . S
O446 Gd397 2.545 . S
O446 C464 1.258 . S
O447 Gd396 2.362 . S
O447 Gd397 2.606 . S
O447 C463 1.284 . S
O448 Gd396 2.324 . S
O448 C471 1.254 . S
O449 Gd397 2.429 . S
O449 C471 1.268 . S
O450 Gd397 2.545 . S
O450 C463 1.250 . S
O451 Gd397 2.412 . S
O451 C464 1.252 . S
C452 O441 1.284 . S
C452 O444 1.250 . S
C453 H422 0.929 . S
C453 C438 1.437 1_545 S
C453 C454 1.317 . S
C454 H425 0.930 . S
C454 C430 1.431 . S
C454 C453 1.317 . S
C455 Gd396 2.828 . S
C455 O440 1.258 . S
C455 O445 1.252 . S
C455 C456 1.497 . S
C456 C455 1.497 . S
C456 C457 1.395 . S
C456 C458 1.380 . S
C457 C456 1.395 . S
C457 C460 1.398 . S
C457 H472 0.930 . S
C458 C456 1.380 . S
C458 C459 1.391 . S
C458 H473 0.930 . S
C459 C458 1.391 . S
C459 C461 1.387 . S
C460 C457 1.398 . S
C460 C461 1.380 . S
C460 H474 0.930 . S
C461 C459 1.387 . S
C461 C460 1.380 . S
C461 H475 0.930 . S
C462 O442 1.254 . S
C462 O443 1.268 . S
C463 O447 1.284 . S
C463 O450 1.250 . S
C464 Gd397 2.828 . S
C464 O446 1.258 . S
C464 O451 1.252 . S
C464 C465 1.497 . S
C465 C464 1.497 . S
C465 C466 1.395 . S
C465 C467 1.380 . S
C466 C465 1.395 . S
C466 C469 1.398 . S
C466 H476 0.930 . S
C467 C465 1.380 . S
C467 C468 1.391 . S
C467 H477 0.930 . S
C468 C467 1.391 . S
C468 C470 1.387 . S
C469 C466 1.398 . S
C469 C470 1.380 . S
C469 H478 0.930 . S
C470 C468 1.387 . S
C470 C469 1.380 . S
C470 H479 0.930 . S
C471 O448 1.254 . S
C471 O449 1.268 . S
H472 C457 0.930 . S
H473 C458 0.930 . S
H474 C460 0.930 . S
H475 C461 0.930 . S
H476 C466 0.930 . S
H477 C467 0.930 . S
H478 C469 0.930 . S
H479 C470 0.930 . S
Gd480 N511 2.661 1_545 S
Gd480 N517 2.601 . S
Gd480 O524 2.545 . S
Gd480 O525 2.606 . S
Gd480 O527 2.429 . S
Gd480 O528 2.545 . S
Gd480 O529 2.412 . S
Gd480 O531 2.362 . S
Gd480 O532 2.324 . S
Gd480 C539 2.828 . S
Gd481 N490 2.661 . S
Gd481 N494 2.601 . S
Gd481 O525 2.362 . S
Gd481 O526 2.324 . S
Gd481 O530 2.545 1_545 S
Gd481 O531 2.606 . S
Gd481 O533 2.429 . S
Gd481 O534 2.545 1_545 S
Gd481 O535 2.412 . S
Gd481 C548 2.828 . S
C482 C485 1.417 . S
C482 C487 1.431 . S
C482 C488 1.412 . S
C483 C486 1.437 . S
C483 C487 1.317 . S
C483 H502 0.929 . S
C484 C485 1.426 . S
C484 C486 1.413 . S
C484 N494 1.359 . S
C485 C482 1.417 . S
C485 C484 1.426 . S
C485 N490 1.350 . S
C486 C483 1.437 . S
C486 C484 1.413 . S
C486 C496 1.391 . S
C487 C482 1.431 . S
C487 C483 1.317 . S
C487 H498 0.930 . S
C488 C482 1.412 . S
C488 C489 1.355 . S
C488 H500 0.930 . S
C489 C488 1.355 . S
C489 C491 1.402 . S
C489 H501 0.930 . S
N490 Gd481 2.661 . S
N490 C485 1.350 . S
N490 C491 1.307 . S
C491 C489 1.402 . S
C491 N490 1.307 . S
C491 H492 0.930 . S
H492 C491 0.930 . S
C493 N494 1.334 . S
C493 C495 1.394 . S
C493 H497 0.930 . S
N494 Gd481 2.601 . S
N494 C484 1.359 . S
N494 C493 1.334 . S
C495 C493 1.394 . S
C495 C496 1.359 . S
C495 H507 0.930 . S
C496 C486 1.391 . S
C496 C495 1.359 . S
C496 H508 0.929 . S
H497 C493 0.930 . S
H498 C487 0.930 . S
H499 C516 0.930 . S
H500 C488 0.930 . S
H501 C489 0.930 . S
H502 C483 0.929 . S
H503 C521 0.930 . S
H504 C512 0.930 . S
H505 C513 0.930 . S
H506 C537 0.929 . S
H507 C495 0.930 . S
H508 C496 0.929 . S
H509 C538 0.930 . S
H510 C519 0.930 . S
N511 Gd480 2.661 1_565 S
N511 C515 1.350 . S
N511 C516 1.307 . S
C512 H504 0.930 . S
C512 C513 1.355 . S
C512 C514 1.412 . S
C513 H505 0.930 . S
C513 C512 1.355 . S
C513 C516 1.402 . S
C514 C512 1.412 . S
C514 C515 1.417 . S
C514 C538 1.431 . S
C515 N511 1.350 . S
C515 C514 1.417 . S
C515 C518 1.426 . S
C516 H499 0.930 . S
C516 N511 1.307 . S
C516 C513 1.402 . S
N517 Gd480 2.601 . S
N517 C518 1.359 1_545 S
N517 C521 1.334 . S
C518 C515 1.426 . S
C518 N517 1.359 1_565 S
C518 C522 1.413 . S
C519 H510 0.930 . S
C519 C520 1.359 1_545 S
C519 C521 1.394 . S
C520 C519 1.359 1_565 S
C520 C522 1.391 . S
C520 H523 0.929 . S
C521 H503 0.930 . S
C521 N517 1.334 . S
C521 C519 1.394 . S
C522 C518 1.413 . S
C522 C520 1.391 . S
C522 C537 1.437 . S
H523 C520 0.929 . S
O524 Gd480 2.545 . S
O524 C539 1.258 . S
O525 Gd480 2.606 . S
O525 Gd481 2.362 . S
O525 C536 1.284 . S
O526 Gd481 2.324 . S
O526 C546 1.254 . S
O527 Gd480 2.429 . S
O527 C546 1.268 . S
O528 Gd480 2.545 . S
O528 C536 1.250 . S
O529 Gd480 2.412 . S
O529 C539 1.252 . S
O530 Gd481 2.545 1_565 S
O530 C548 1.258 1_565 S
O531 Gd480 2.362 . S
O531 Gd481 2.606 . S
O531 C547 1.284 1_545 S
O532 Gd480 2.324 . S
O532 C555 1.254 . S
O533 Gd481 2.429 . S
O533 C555 1.268 . S
O534 Gd481 2.545 1_565 S
O534 C547 1.250 . S
O535 Gd481 2.412 . S
O535 C548 1.252 . S
C536 O525 1.284 . S
C536 O528 1.250 . S
C537 H506 0.929 . S
C537 C522 1.437 . S
C537 C538 1.317 . S
C538 H509 0.930 . S
C538 C514 1.431 . S
C538 C537 1.317 . S
C539 Gd480 2.828 . S
C539 O524 1.258 . S
C539 O529 1.252 . S
C539 C540 1.497 . S
C540 C539 1.497 . S
C540 C541 1.395 . S
C540 C542 1.380 . S
C541 C540 1.395 . S
C541 C544 1.398 . S
C541 H556 0.930 . S
C542 C540 1.380 . S
C542 C543 1.391 . S
C542 H557 0.930 . S
C543 C542 1.391 . S
C543 C545 1.387 . S
C544 C541 1.398 . S
C544 C545 1.380 . S
C544 H558 0.930 . S
C545 C543 1.387 . S
C545 C544 1.380 . S
C545 H559 0.930 . S
C546 O526 1.254 . S
C546 O527 1.268 . S
C547 O531 1.284 1_565 S
C547 O534 1.250 . S
C548 Gd481 2.828 . S
C548 O530 1.258 1_545 S
C548 O535 1.252 . S
C548 C549 1.497 1_545 S
C549 C548 1.497 1_565 S
C549 C550 1.395 . S
C549 C551 1.380 . S
C550 C549 1.395 . S
C550 C553 1.398 . S
C550 H560 0.930 . S
C551 C549 1.380 . S
C551 C552 1.391 . S
C551 H561 0.930 . S
C552 C551 1.391 . S
C552 C554 1.387 . S
C553 C550 1.398 . S
C553 C554 1.380 . S
C553 H562 0.930 . S
C554 C552 1.387 . S
C554 C553 1.380 . S
C554 H563 0.930 . S
C555 O532 1.254 . S
C555 O533 1.268 . S
H556 C541 0.930 . S
H557 C542 0.930 . S
H558 C544 0.930 . S
H559 C545 0.930 . S
H560 C550 0.930 . S
H561 C551 0.930 . S
H562 C553 0.930 . S
H563 C554 0.930 . S
Gd564 N595 2.661 . S
Gd564 N601 2.601 . S
Gd564 O608 2.545 . S
Gd564 O609 2.606 . S
Gd564 O611 2.429 . S
Gd564 O612 2.545 . S
Gd564 O613 2.412 . S
Gd564 O615 2.362 . S
Gd564 O616 2.324 . S
Gd564 C623 2.828 . S
Gd565 N574 2.661 . S
Gd565 N578 2.601 . S
Gd565 O609 2.362 . S
Gd565 O610 2.324 . S
Gd565 O614 2.545 . S
Gd565 O615 2.606 . S
Gd565 O617 2.429 . S
Gd565 O618 2.545 . S
Gd565 O619 2.412 . S
Gd565 C632 2.828 . S
C566 C569 1.417 . S
C566 C571 1.431 . S
C566 C572 1.412 . S
C567 C570 1.437 . S
C567 C571 1.317 . S
C567 H586 0.929 . S
C568 C569 1.426 . S
C568 C570 1.413 . S
C568 N578 1.359 . S
C569 C566 1.417 . S
C569 C568 1.426 . S
C569 N574 1.350 . S
C570 C567 1.437 . S
C570 C568 1.413 . S
C570 C580 1.391 . S
C571 C566 1.431 . S
C571 C567 1.317 . S
C571 H582 0.930 . S
C572 C566 1.412 . S
C572 C573 1.355 . S
C572 H584 0.930 . S
C573 C572 1.355 . S
C573 C575 1.402 . S
C573 H585 0.930 . S
N574 Gd565 2.661 . S
N574 C569 1.350 . S
N574 C575 1.307 . S
C575 C573 1.402 . S
C575 N574 1.307 . S
C575 H576 0.930 . S
H576 C575 0.930 . S
C577 N578 1.334 . S
C577 C579 1.394 . S
C577 H581 0.930 . S
N578 Gd565 2.601 . S
N578 C568 1.359 . S
N578 C577 1.334 . S
C579 C577 1.394 . S
C579 C580 1.359 . S
C579 H591 0.930 . S
C580 C570 1.391 . S
C580 C579 1.359 . S
C580 H592 0.929 . S
H581 C577 0.930 . S
H582 C571 0.930 . S
H583 C600 0.930 . S
H584 C572 0.930 . S
H585 C573 0.930 . S
H586 C567 0.929 . S
H587 C605 0.930 . S
H588 C596 0.939 . S
H589 C597 0.930 . S
H590 C621 0.929 . S
H591 C579 0.930 . S
H592 C580 0.929 . S
H593 C622 0.930 1_554 S
H594 C603 0.930 . S
N595 Gd564 2.661 . S
N595 C599 1.350 . S
N595 C600 1.307 . S
C596 H588 0.939 . S
C596 C597 1.355 . S
C596 C598 1.412 . S
C597 H589 0.930 . S
C597 C596 1.355 . S
C597 C600 1.402 . S
C598 C596 1.412 . S
C598 C599 1.417 . S
C598 C622 1.431 . S
C599 N595 1.350 . S
C599 C598 1.417 . S
C599 C602 1.426 . S
C600 H583 0.930 . S
C600 N595 1.307 . S
C600 C597 1.402 . S
N601 Gd564 2.601 . S
N601 C602 1.359 . S
N601 C605 1.334 . S
C602 C599 1.426 . S
C602 N601 1.359 . S
C602 C606 1.413 . S
C603 H594 0.930 . S
C603 C604 1.359 . S
C603 C605 1.394 . S
C604 C603 1.359 . S
C604 C606 1.391 . S
C604 H607 0.929 . S
C605 H587 0.930 . S
C605 N601 1.334 . S
C605 C603 1.394 . S
C606 C602 1.413 . S
C606 C604 1.391 . S
C606 C621 1.437 . S
H607 C604 0.929 . S
O608 Gd564 2.545 . S
O608 C623 1.258 . S
O609 Gd564 2.606 . S
O609 Gd565 2.362 . S
O609 C620 1.284 . S
O610 Gd565 2.324 . S
O610 C630 1.254 . S
O611 Gd564 2.429 . S
O611 C630 1.268 . S
O612 Gd564 2.545 . S
O612 C620 1.250 . S
O613 Gd564 2.412 . S
O613 C623 1.252 . S
O614 Gd565 2.545 . S
O614 C632 1.258 . S
O615 Gd564 2.362 . S
O615 Gd565 2.606 . S
O615 C631 1.284 . S
O616 Gd564 2.324 . S
O616 C639 1.254 . S
O617 Gd565 2.429 . S
O617 C639 1.268 . S
O618 Gd565 2.545 . S
O618 C631 1.250 . S
O619 Gd565 2.412 . S
O619 C632 1.252 . S
C620 O609 1.284 . S
C620 O612 1.250 . S
C621 H590 0.929 . S
C621 C606 1.437 . S
C621 C622 1.317 . S
C622 H593 0.930 1_556 S
C622 C598 1.431 . S
C622 C621 1.317 . S
C623 Gd564 2.828 . S
C623 O608 1.258 . S
C623 O613 1.252 . S
C623 C624 1.497 . S
C624 C623 1.497 . S
C624 C625 1.395 . S
C624 C626 1.380 . S
C625 C624 1.395 . S
C625 C628 1.398 . S
C625 H640 0.930 . S
C626 C624 1.380 . S
C626 C627 1.391 . S
C626 H641 0.930 . S
C627 C626 1.391 . S
C627 C629 1.387 . S
C628 C625 1.398 . S
C628 C629 1.380 . S
C628 H642 0.930 . S
C629 C627 1.387 . S
C629 C628 1.380 . S
C629 H643 0.930 . S
C630 O610 1.254 . S
C630 O611 1.268 . S
C631 O615 1.284 . S
C631 O618 1.250 . S
C632 Gd565 2.828 . S
C632 O614 1.258 . S
C632 O619 1.252 . S
C632 C633 1.497 . S
C633 C632 1.497 . S
C633 C634 1.395 . S
C633 C635 1.380 . S
C634 C633 1.395 . S
C634 C637 1.398 . S
C634 H644 0.930 . S
C635 C633 1.380 . S
C635 C636 1.391 . S
C635 H645 0.930 . S
C636 C635 1.391 . S
C636 C638 1.387 . S
C637 C634 1.398 . S
C637 C638 1.380 . S
C637 H646 0.930 . S
C638 C636 1.387 . S
C638 C637 1.380 . S
C638 H647 0.930 . S
C639 O616 1.254 . S
C639 O617 1.268 . S
H640 C625 0.930 . S
H641 C626 0.930 . S
H642 C628 0.930 . S
H643 C629 0.930 . S
H644 C634 0.930 . S
H645 C635 0.930 . S
H646 C637 0.930 . S
H647 C638 0.930 . S
Gd648 N679 2.661 . S
Gd648 N685 2.601 . S
Gd648 O692 2.545 . S
Gd648 O693 2.606 1_565 S
Gd648 O695 2.429 1_565 S
Gd648 O696 2.545 . S
Gd648 O697 2.412 . S
Gd648 O699 2.362 1_565 S
Gd648 O700 2.324 . S
Gd648 C707 2.828 . S
Gd649 N658 2.661 . S
Gd649 N662 2.601 . S
Gd649 O693 2.362 . S
Gd649 O694 2.324 . S
Gd649 O698 2.545 . S
Gd649 O699 2.606 . S
Gd649 O701 2.429 . S
Gd649 O702 2.545 . S
Gd649 O703 2.412 . S
Gd649 C716 2.828 . S
C650 C653 1.417 . S
C650 C655 1.431 . S
C650 C656 1.412 . S
C651 C654 1.437 . S
C651 C655 1.317 . S
C651 H670 0.929 . S
C652 C653 1.426 . S
C652 C654 1.413 . S
C652 N662 1.359 . S
C653 C650 1.417 . S
C653 C652 1.426 . S
C653 N658 1.350 . S
C654 C651 1.437 . S
C654 C652 1.413 . S
C654 C664 1.391 . S
C655 C650 1.431 . S
C655 C651 1.317 . S
C655 H666 0.930 . S
C656 C650 1.412 . S
C656 C657 1.355 . S
C656 H668 0.930 . S
C657 C656 1.355 . S
C657 C659 1.402 . S
C657 H669 0.930 . S
N658 Gd649 2.661 . S
N658 C653 1.350 . S
N658 C659 1.307 . S
C659 C657 1.402 . S
C659 N658 1.307 . S
C659 H660 0.930 . S
H660 C659 0.930 . S
C661 N662 1.334 . S
C661 C663 1.394 . S
C661 H665 0.930 . S
N662 Gd649 2.601 . S
N662 C652 1.359 . S
N662 C661 1.334 . S
C663 C661 1.394 . S
C663 C664 1.359 . S
C663 H675 0.930 1_455 S
C664 C654 1.391 . S
C664 C663 1.359 . S
C664 H676 0.929 . S
H665 C661 0.930 . S
H666 C655 0.930 . S
H667 C684 0.930 . S
H668 C656 0.930 . S
H669 C657 0.930 . S
H670 C651 0.929 . S
H671 C689 0.930 . S
H672 C680 0.930 . S
H673 C681 0.930 . S
H674 C705 0.929 . S
H675 C663 0.930 1_655 S
H676 C664 0.929 . S
H677 C706 0.930 . S
H678 C687 0.930 . S
N679 Gd648 2.661 . S
N679 C683 1.350 . S
N679 C684 1.307 . S
C680 H672 0.930 . S
C680 C681 1.355 . S
C680 C682 1.412 1_655 S
C681 H673 0.930 . S
C681 C680 1.355 . S
C681 C684 1.402 1_655 S
C682 C680 1.412 1_455 S
C682 C683 1.417 . S
C682 C706 1.431 . S
C683 N679 1.350 . S
C683 C682 1.417 . S
C683 C686 1.426 . S
C684 H667 0.930 . S
C684 N679 1.307 . S
C684 C681 1.402 1_455 S
N685 Gd648 2.601 . S
N685 C686 1.359 . S
N685 C689 1.334 . S
C686 C683 1.426 . S
C686 N685 1.359 . S
C686 C690 1.413 . S
C687 H678 0.930 . S
C687 C688 1.359 . S
C687 C689 1.394 . S
C688 C687 1.359 . S
C688 C690 1.391 . S
C688 H691 0.929 . S
C689 H671 0.930 . S
C689 N685 1.334 . S
C689 C687 1.394 . S
C690 C686 1.413 . S
C690 C688 1.391 . S
C690 C705 1.437 . S
H691 C688 0.929 . S
O692 Gd648 2.545 . S
O692 C707 1.258 . S
O693 Gd648 2.606 1_545 S
O693 Gd649 2.362 . S
O693 C704 1.284 . S
O694 Gd649 2.324 . S
O694 C714 1.254 . S
O695 Gd648 2.429 1_545 S
O695 C714 1.268 . S
O696 Gd648 2.545 . S
O696 C704 1.250 1_565 S
O697 Gd648 2.412 . S
O697 C707 1.252 . S
O698 Gd649 2.545 . S
O698 C716 1.258 . S
O699 Gd648 2.362 1_545 S
O699 Gd649 2.606 . S
O699 C715 1.284 . S
O700 Gd648 2.324 . S
O700 C723 1.254 1_565 S
O701 Gd649 2.429 . S
O701 C723 1.268 . S
O702 Gd649 2.545 . S
O702 C715 1.250 . S
O703 Gd649 2.412 . S
O703 C716 1.252 . S
C704 O693 1.284 . S
C704 O696 1.250 1_545 S
C705 H674 0.929 . S
C705 C690 1.437 . S
C705 C706 1.317 . S
C706 H677 0.930 . S
C706 C682 1.431 . S
C706 C705 1.317 . S
C707 Gd648 2.828 . S
C707 O692 1.258 . S
C707 O697 1.252 . S
C707 C708 1.497 . S
C708 C707 1.497 . S
C708 C709 1.395 . S
C708 C710 1.380 . S
C709 C708 1.395 . S
C709 C712 1.398 . S
C709 H724 0.930 . S
C710 C708 1.380 . S
C710 C711 1.391 . S
C710 H725 0.930 . S
C711 C710 1.391 . S
C711 C713 1.387 . S
C712 C709 1.398 . S
C712 C713 1.380 . S
C712 H726 0.930 . S
C713 C711 1.387 . S
C713 C712 1.380 . S
C713 H727 0.930 . S
C714 O694 1.254 . S
C714 O695 1.268 . S
C715 O699 1.284 . S
C715 O702 1.250 . S
C716 Gd649 2.828 . S
C716 O698 1.258 . S
C716 O703 1.252 . S
C716 C717 1.497 . S
C717 C716 1.497 . S
C717 C718 1.395 . S
C717 C719 1.380 . S
C718 C717 1.395 . S
C718 C721 1.398 . S
C718 H728 0.930 . S
C719 C717 1.380 . S
C719 C720 1.391 . S
C719 H729 0.930 . S
C720 C719 1.391 . S
C720 C722 1.387 . S
C721 C718 1.398 . S
C721 C722 1.380 . S
C721 H730 0.930 . S
C722 C720 1.387 . S
C722 C721 1.380 . S
C722 H731 0.930 . S
C723 O700 1.254 1_545 S
C723 O701 1.268 . S
H724 C709 0.930 . S
H725 C710 0.930 . S
H726 C712 0.930 . S
H727 C713 0.930 . S
H728 C718 0.930 . S
H729 C719 0.930 . S
H730 C721 0.930 . S
H731 C722 0.930 . S
Gd732 N763 2.661 . S
Gd732 N769 2.601 . S
Gd732 O776 2.545 . S
Gd732 O777 2.606 . S
Gd732 O779 2.429 . S
Gd732 O780 2.545 . S
Gd732 O781 2.412 . S
Gd732 O783 2.362 . S
Gd732 O784 2.324 . S
Gd732 C791 2.828 . S
Gd733 N742 2.661 . S
Gd733 N746 2.601 . S
Gd733 O777 2.362 . S
Gd733 O778 2.324 . S
Gd733 O782 2.545 . S
Gd733 O783 2.606 . S
Gd733 O785 2.429 . S
Gd733 O786 2.545 . S
Gd733 O787 2.412 . S
Gd733 C800 2.828 . S
C734 C737 1.417 1_545 S
C734 C739 1.431 . S
C734 C740 1.412 . S
C735 C738 1.437 1_545 S
C735 C739 1.317 . S
C735 H754 0.929 . S
C736 C737 1.426 . S
C736 C738 1.413 . S
C736 N746 1.359 . S
C737 C734 1.417 1_565 S
C737 C736 1.426 . S
C737 N742 1.350 . S
C738 C735 1.437 1_565 S
C738 C736 1.413 . S
C738 C748 1.391 . S
C739 C734 1.431 . S
C739 C735 1.317 . S
C739 H750 0.930 . S
C740 C734 1.412 . S
C740 C741 1.355 . S
C740 H752 0.930 . S
C741 C740 1.355 . S
C741 C743 1.402 1_545 S
C741 H753 0.930 . S
N742 Gd733 2.661 . S
N742 C737 1.350 . S
N742 C743 1.307 . S
C743 C741 1.402 1_565 S
C743 N742 1.307 . S
C743 H744 0.930 . S
H744 C743 0.930 . S
C745 N746 1.334 . S
C745 C747 1.394 . S
C745 H749 0.930 . S
N746 Gd733 2.601 . S
N746 C736 1.359 . S
N746 C745 1.334 . S
C747 C745 1.394 . S
C747 C748 1.359 . S
C747 H759 0.930 . S
C748 C738 1.391 . S
C748 C747 1.359 . S
C748 H760 0.929 . S
H749 C745 0.930 . S
H750 C739 0.930 . S
H751 C768 0.930 . S
H752 C740 0.930 . S
H753 C741 0.930 . S
H754 C735 0.929 . S
H755 C773 0.930 . S
H756 C764 0.930 . S
H757 C765 0.930 . S
H758 C789 0.929 . S
H759 C747 0.930 . S
H760 C748 0.929 . S
H761 C790 0.930 . S
H762 C771 0.930 . S
N763 Gd732 2.661 . S
N763 C767 1.350 . S
N763 C768 1.307 . S
C764 H756 0.930 . S
C764 C765 1.355 . S
C764 C766 1.412 . S
C765 H757 0.930 . S
C765 C764 1.355 . S
C765 C768 1.402 . S
C766 C764 1.412 . S
C766 C767 1.417 . S
C766 C790 1.431 . S
C767 N763 1.350 . S
C767 C766 1.417 . S
C767 C770 1.426 . S
C768 H751 0.930 . S
C768 N763 1.307 . S
C768 C765 1.402 . S
N769 Gd732 2.601 . S
N769 C770 1.359 . S
N769 C773 1.334 . S
C770 C767 1.426 . S
C770 N769 1.359 . S
C770 C774 1.413 . S
C771 H762 0.930 . S
C771 C772 1.359 . S
C771 C773 1.394 . S
C772 C771 1.359 . S
C772 C774 1.391 . S
C772 H775 0.929 . S
C773 H755 0.930 . S
C773 N769 1.334 . S
C773 C771 1.394 . S
C774 C770 1.413 . S
C774 C772 1.391 . S
C774 C789 1.437 . S
H775 C772 0.929 . S
O776 Gd732 2.545 . S
O776 C791 1.258 . S
O777 Gd732 2.606 . S
O777 Gd733 2.362 . S
O777 C788 1.284 . S
O778 Gd733 2.324 . S
O778 C798 1.254 . S
O779 Gd732 2.429 . S
O779 C798 1.268 . S
O780 Gd732 2.545 . S
O780 C788 1.250 . S
O781 Gd732 2.412 . S
O781 C791 1.252 . S
O782 Gd733 2.545 . S
O782 C800 1.258 . S
O783 Gd732 2.362 . S
O783 Gd733 2.606 . S
O783 C799 1.284 . S
O784 Gd732 2.324 . S
O784 C807 1.254 . S
O785 Gd733 2.429 . S
O785 C807 1.268 . S
O786 Gd733 2.545 . S
O786 C799 1.250 . S
O787 Gd733 2.412 . S
O787 C800 1.252 . S
C788 O777 1.284 . S
C788 O780 1.250 . S
C789 H758 0.929 . S
C789 C774 1.437 . S
C789 C790 1.317 . S
C790 H761 0.930 . S
C790 C766 1.431 . S
C790 C789 1.317 . S
C791 Gd732 2.828 . S
C791 O776 1.258 . S
C791 O781 1.252 . S
C791 C792 1.497 . S
C792 C791 1.497 . S
C792 C793 1.395 . S
C792 C794 1.380 . S
C793 C792 1.395 . S
C793 C796 1.398 . S
C793 H808 0.930 . S
C794 C792 1.380 . S
C794 C795 1.391 . S
C794 H809 0.930 . S
C795 C794 1.391 . S
C795 C797 1.387 . S
C796 C793 1.398 . S
C796 C797 1.380 . S
C796 H810 0.930 . S
C797 C795 1.387 . S
C797 C796 1.380 . S
C797 H811 0.930 . S
C798 O778 1.254 . S
C798 O779 1.268 . S
C799 O783 1.284 . S
C799 O786 1.250 . S
C800 Gd733 2.828 . S
C800 O782 1.258 . S
C800 O787 1.252 . S
C800 C801 1.497 . S
C801 C800 1.497 . S
C801 C802 1.395 . S
C801 C803 1.380 . S
C802 C801 1.395 . S
C802 C805 1.398 . S
C802 H812 0.930 . S
C803 C801 1.380 . S
C803 C804 1.391 . S
C803 H813 0.930 . S
C804 C803 1.391 . S
C804 C806 1.387 . S
C805 C802 1.398 . S
C805 C806 1.380 . S
C805 H814 0.930 . S
C806 C804 1.387 . S
C806 C805 1.380 . S
C806 H815 0.930 . S
C807 O784 1.254 . S
C807 O785 1.268 . S
H808 C793 0.930 . S
H809 C794 0.930 . S
H810 C796 0.930 . S
H811 C797 0.930 . S
H812 C802 0.930 . S
H813 C803 0.930 . S
H814 C805 0.930 . S
H815 C806 0.930 . S
Gd816 N847 2.661 . S
Gd816 N853 2.601 . S
Gd816 O860 2.545 . S
Gd816 O861 2.606 1_556 S
Gd816 O863 2.429 1_556 S
Gd816 O864 2.545 1_556 S
Gd816 O865 2.412 . S
Gd816 O867 2.362 1_556 S
Gd816 O868 2.324 . S
Gd816 C875 2.828 . S
Gd817 N826 2.661 . S
Gd817 N830 2.601 . S
Gd817 O861 2.362 . S
Gd817 O862 2.324 . S
Gd817 O866 2.545 1_545 S
Gd817 O867 2.606 . S
Gd817 O869 2.429 1_545 S
Gd817 O870 2.545 . S
Gd817 O871 2.412 . S
Gd817 C884 2.828 . S
C818 C821 1.417 . S
C818 C823 1.431 . S
C818 C824 1.412 . S
C819 C822 1.437 . S
C819 C823 1.317 . S
C819 H838 0.929 . S
C820 C821 1.426 . S
C820 C822 1.413 . S
C820 N830 1.359 . S
C821 C818 1.417 . S
C821 C820 1.426 . S
C821 N826 1.350 . S
C822 C819 1.437 . S
C822 C820 1.413 . S
C822 C832 1.391 1_545 S
C823 C818 1.431 . S
C823 C819 1.317 . S
C823 H834 0.930 . S
C824 C818 1.412 . S
C824 C825 1.355 . S
C824 H836 0.930 . S
C825 C824 1.355 . S
C825 C827 1.402 . S
C825 H837 0.930 . S
N826 Gd817 2.661 . S
N826 C821 1.350 . S
N826 C827 1.307 . S
C827 C825 1.402 . S
C827 N826 1.307 . S
C827 H828 0.930 . S
H828 C827 0.930 . S
C829 N830 1.334 1_565 S
C829 C831 1.394 . S
C829 H833 0.930 . S
N830 Gd817 2.601 . S
N830 C820 1.359 . S
N830 C829 1.334 1_545 S
C831 C829 1.394 . S
C831 C832 1.359 . S
C831 H843 0.930 . S
C832 C822 1.391 1_565 S
C832 C831 1.359 . S
C832 H844 0.929 . S
H833 C829 0.930 . S
H834 C823 0.930 . S
H835 C852 0.930 . S
H836 C824 0.930 . S
H837 C825 0.930 . S
H838 C819 0.929 . S
H839 C857 0.930 . S
H840 C848 0.930 . S
H841 C849 0.930 . S
H842 C873 0.929 . S
H843 C831 0.930 . S
H844 C832 0.929 . S
H845 C874 0.930 . S
H846 C855 0.930 . S
N847 Gd816 2.661 . S
N847 C851 1.350 . S
N847 C852 1.307 1_545 S
C848 H840 0.930 . S
C848 C849 1.355 . S
C848 C850 1.412 1_565 S
C849 H841 0.930 . S
C849 C848 1.355 . S
C849 C852 1.402 . S
C850 C848 1.412 1_545 S
C850 C851 1.417 . S
C850 C874 1.431 . S
C851 N847 1.350 . S
C851 C850 1.417 . S
C851 C854 1.426 . S
C852 H835 0.930 . S
C852 N847 1.307 1_565 S
C852 C849 1.402 . S
N853 Gd816 2.601 . S
N853 C854 1.359 . S
N853 C857 1.334 . S
C854 C851 1.426 . S
C854 N853 1.359 . S
C854 C858 1.413 . S
C855 H846 0.930 . S
C855 C856 1.359 . S
C855 C857 1.394 . S
C856 C855 1.359 . S
C856 C858 1.391 . S
C856 H859 0.929 . S
C857 H839 0.930 . S
C857 N853 1.334 . S
C857 C855 1.394 . S
C858 C854 1.413 . S
C858 C856 1.391 . S
C858 C873 1.437 . S
H859 C856 0.929 . S
O860 Gd816 2.545 . S
O860 C875 1.258 . S
O861 Gd816 2.606 1_554 S
O861 Gd817 2.362 . S
O861 C872 1.284 . S
O862 Gd817 2.324 . S
O862 C882 1.254 . S
O863 Gd816 2.429 1_554 S
O863 C882 1.268 . S
O864 Gd816 2.545 1_554 S
O864 C872 1.250 . S
O865 Gd816 2.412 . S
O865 C875 1.252 . S
O866 Gd817 2.545 1_565 S
O866 C884 1.258 1_565 S
O867 Gd816 2.362 1_554 S
O867 Gd817 2.606 . S
O867 C883 1.284 . S
O868 Gd816 2.324 . S
O868 C891 1.254 1_545 S
O869 Gd817 2.429 1_565 S
O869 C891 1.268 1_554 S
O870 Gd817 2.545 . S
O870 C883 1.250 . S
O871 Gd817 2.412 . S
O871 C884 1.252 . S
C872 O861 1.284 . S
C872 O864 1.250 . S
C873 H842 0.929 . S
C873 C858 1.437 . S
C873 C874 1.317 . S
C874 H845 0.930 . S
C874 C850 1.431 . S
C874 C873 1.317 . S
C875 Gd816 2.828 . S
C875 O860 1.258 . S
C875 O865 1.252 . S
C875 C876 1.497 . S
C876 C875 1.497 . S
C876 C877 1.395 . S
C876 C878 1.380 . S
C877 C876 1.395 . S
C877 C880 1.398 . S
C877 H892 0.930 . S
C878 C876 1.380 . S
C878 C879 1.391 . S
C878 H893 0.930 . S
C879 C878 1.391 . S
C879 C881 1.387 . S
C880 C877 1.398 . S
C880 C881 1.380 . S
C880 H894 0.930 . S
C881 C879 1.387 . S
C881 C880 1.380 . S
C881 H895 0.930 . S
C882 O862 1.254 . S
C882 O863 1.268 . S
C883 O867 1.284 . S
C883 O870 1.250 . S
C884 Gd817 2.828 . S
C884 O866 1.258 1_545 S
C884 O871 1.252 . S
C884 C885 1.497 1_545 S
C885 C884 1.497 1_565 S
C885 C886 1.395 . S
C885 C887 1.380 1_565 S
C886 C885 1.395 . S
C886 C889 1.398 . S
C886 H896 0.930 . S
C887 C885 1.380 1_545 S
C887 C888 1.391 1_545 S
C887 H897 0.930 . S
C888 C887 1.391 1_565 S
C888 C890 1.387 . S
C889 C886 1.398 . S
C889 C890 1.380 . S
C889 H898 0.930 . S
C890 C888 1.387 . S
C890 C889 1.380 . S
C890 H899 0.930 . S
C891 O868 1.254 1_565 S
C891 O869 1.268 1_556 S
H892 C877 0.930 . S
H893 C878 0.930 . S
H894 C880 0.930 . S
H895 C881 0.930 . S
H896 C886 0.930 . S
H897 C887 0.930 . S
H898 C889 0.930 . S
H899 C890 0.930 . S
Gd900 N931 2.661 . S
Gd900 N937 2.601 . S
Gd900 O944 2.545 . S
Gd900 O945 2.606 . S
Gd900 O947 2.429 . S
Gd900 O948 2.545 . S
Gd900 O949 2.412 . S
Gd900 O951 2.362 . S
Gd900 O952 2.324 . S
Gd900 C959 2.828 . S
Gd901 N910 2.661 . S
Gd901 N914 2.601 . S
Gd901 O945 2.362 . S
Gd901 O946 2.324 . S
Gd901 O950 2.545 . S
Gd901 O951 2.606 . S
Gd901 O953 2.429 . S
Gd901 O954 2.545 . S
Gd901 O955 2.412 . S
Gd901 C968 2.828 . S
C902 C905 1.417 . S
C902 C907 1.431 . S
C902 C908 1.412 . S
C903 C906 1.437 . S
C903 C907 1.317 . S
C903 H922 0.929 . S
C904 C905 1.426 . S
C904 C906 1.413 . S
C904 N914 1.359 . S
C905 C902 1.417 . S
C905 C904 1.426 . S
C905 N910 1.350 . S
C906 C903 1.437 . S
C906 C904 1.413 . S
C906 C916 1.391 . S
C907 C902 1.431 . S
C907 C903 1.317 . S
C907 H918 0.930 . S
C908 C902 1.412 . S
C908 C909 1.355 . S
C908 H920 0.930 . S
C909 C908 1.355 . S
C909 C911 1.402 . S
C909 H921 0.930 . S
N910 Gd901 2.661 . S
N910 C905 1.350 . S
N910 C911 1.307 . S
C911 C909 1.402 . S
C911 N910 1.307 . S
C911 H912 0.930 . S
H912 C911 0.930 . S
C913 N914 1.334 . S
C913 C915 1.394 . S
C913 H917 0.930 . S
N914 Gd901 2.601 . S
N914 C904 1.359 . S
N914 C913 1.334 . S
C915 C913 1.394 . S
C915 C916 1.359 . S
C915 H927 0.930 . S
C916 C906 1.391 . S
C916 C915 1.359 . S
C916 H928 0.929 . S
H917 C913 0.930 . S
H918 C907 0.930 . S
H919 C936 0.930 . S
H920 C908 0.930 . S
H921 C909 0.930 . S
H922 C903 0.929 . S
H923 C941 0.930 . S
H924 C932 0.930 . S
H925 C933 0.930 . S
H926 C957 0.929 . S
H927 C915 0.930 . S
H928 C916 0.929 . S
H929 C958 0.930 . S
H930 C939 0.930 . S
N931 Gd900 2.661 . S
N931 C935 1.350 . S
N931 C936 1.307 . S
C932 H924 0.930 . S
C932 C933 1.355 . S
C932 C934 1.412 . S
C933 H925 0.930 . S
C933 C932 1.355 . S
C933 C936 1.402 . S
C934 C932 1.412 . S
C934 C935 1.417 . S
C934 C958 1.431 . S
C935 N931 1.350 . S
C935 C934 1.417 . S
C935 C938 1.426 . S
C936 H919 0.930 . S
C936 N931 1.307 . S
C936 C933 1.402 . S
N937 Gd900 2.601 . S
N937 C938 1.359 . S
N937 C941 1.334 . S
C938 C935 1.426 . S
C938 N937 1.359 . S
C938 C942 1.413 . S
C939 H930 0.930 . S
C939 C940 1.359 . S
C939 C941 1.394 . S
C940 C939 1.359 . S
C940 C942 1.391 . S
C940 H943 0.929 . S
C941 H923 0.930 . S
C941 N937 1.334 . S
C941 C939 1.394 . S
C942 C938 1.413 . S
C942 C940 1.391 . S
C942 C957 1.437 . S
H943 C940 0.929 . S
O944 Gd900 2.545 . S
O944 C959 1.258 . S
O945 Gd900 2.606 . S
O945 Gd901 2.362 . S
O945 C956 1.284 . S
O946 Gd901 2.324 . S
O946 C966 1.254 . S
O947 Gd900 2.429 . S
O947 C966 1.268 . S
O948 Gd900 2.545 . S
O948 C956 1.250 . S
O949 Gd900 2.412 . S
O949 C959 1.252 . S
O950 Gd901 2.545 . S
O950 C968 1.258 . S
O951 Gd900 2.362 . S
O951 Gd901 2.606 . S
O951 C967 1.284 . S
O952 Gd900 2.324 . S
O952 C975 1.254 . S
O953 Gd901 2.429 . S
O953 C975 1.268 . S
O954 Gd901 2.545 . S
O954 C967 1.250 . S
O955 Gd901 2.412 . S
O955 C968 1.252 . S
C956 O945 1.284 . S
C956 O948 1.250 . S
C957 H926 0.929 . S
C957 C942 1.437 . S
C957 C958 1.317 . S
C958 H929 0.930 . S
C958 C934 1.431 . S
C958 C957 1.317 . S
C959 Gd900 2.828 . S
C959 O944 1.258 . S
C959 O949 1.252 . S
C959 C960 1.497 . S
C960 C959 1.497 . S
C960 C961 1.395 . S
C960 C962 1.380 . S
C961 C960 1.395 . S
C961 C964 1.398 1_545 S
C961 H976 0.930 . S
C962 C960 1.380 . S
C962 C963 1.391 1_545 S
C962 H977 0.930 . S
C963 C962 1.391 1_565 S
C963 C965 1.387 . S
C964 C961 1.398 1_565 S
C964 C965 1.380 . S
C964 H978 0.930 . S
C965 C963 1.387 . S
C965 C964 1.380 . S
C965 H979 0.930 . S
C966 O946 1.254 . S
C966 O947 1.268 . S
C967 O951 1.284 . S
C967 O954 1.250 . S
C968 Gd901 2.828 . S
C968 O950 1.258 . S
C968 O955 1.252 . S
C968 C969 1.497 . S
C969 C968 1.497 . S
C969 C970 1.395 . S
C969 C971 1.380 . S
C970 C969 1.395 . S
C970 C973 1.398 . S
C970 H980 0.930 . S
C971 C969 1.380 . S
C971 C972 1.391 . S
C971 H981 0.930 . S
C972 C971 1.391 . S
C972 C974 1.387 . S
C973 C970 1.398 . S
C973 C974 1.380 . S
C973 H982 0.930 . S
C974 C972 1.387 . S
C974 C973 1.380 . S
C974 H983 0.930 . S
C975 O952 1.254 . S
C975 O953 1.268 . S
H976 C961 0.930 . S
H977 C962 0.930 . S
H978 C964 0.930 . S
H979 C965 0.930 . S
H980 C970 0.930 . S
H981 C971 0.930 . S
H982 C973 0.930 . S
H983 C974 0.930 . S
Gd984 N1015 2.661 . S
Gd984 N1021 2.601 . S
Gd984 O1028 2.545 . S
Gd984 O1029 2.606 1_556 S
Gd984 O1031 2.426 . S
Gd984 O1032 2.545 1_556 S
Gd984 O1033 2.412 1_556 S
Gd984 O1035 2.362 . S
Gd984 O1036 2.324 1_556 S
Gd984 C1043 2.828 1_556 S
Gd985 N994 2.661 . S
Gd985 N998 2.601 . S
Gd985 O1029 2.362 . S
Gd985 O1030 2.324 . S
Gd985 O1034 2.545 . S
Gd985 O1035 2.606 1_554 S
Gd985 O1037 2.429 . S
Gd985 O1038 2.545 1_554 S
Gd985 O1039 2.412 . S
Gd985 C1052 2.828 . S
C986 C989 1.417 . S
C986 C991 1.431 . S
C986 C992 1.412 . S
C987 C990 1.437 . S
C987 C991 1.317 . S
C987 H1006 0.929 . S
C988 C989 1.426 . S
C988 C990 1.413 . S
C988 N998 1.359 . S
C989 C986 1.417 . S
C989 C988 1.426 . S
C989 N994 1.350 . S
C990 C987 1.437 . S
C990 C988 1.413 . S
C990 C1000 1.391 . S
C991 C986 1.431 . S
C991 C987 1.317 . S
C991 H1002 0.930 . S
C992 C986 1.412 . S
C992 C993 1.355 . S
C992 H1004 0.930 . S
C993 C992 1.355 . S
C993 C995 1.402 . S
C993 H1005 0.930 . S
N994 Gd985 2.661 . S
N994 C989 1.350 . S
N994 C995 1.307 . S
C995 C993 1.402 . S
C995 N994 1.307 . S
C995 H996 0.930 . S
H996 C995 0.930 . S
C997 N998 1.334 . S
C997 C999 1.394 . S
C997 H1001 0.930 . S
N998 Gd985 2.601 . S
N998 C988 1.359 . S
N998 C997 1.334 . S
C999 C997 1.394 . S
C999 C1000 1.359 . S
C999 H1011 0.930 . S
C1000 C990 1.391 . S
C1000 C999 1.359 . S
C1000 H1012 0.929 . S
H1001 C997 0.930 . S
H1002 C991 0.930 . S
H1003 C1020 0.930 . S
H1004 C992 0.930 . S
H1005 C993 0.930 . S
H1006 C987 0.929 . S
H1007 C1025 0.930 . S
H1008 C1016 0.930 . S
H1009 C1017 0.930 . S
H1010 C1041 0.929 . S
H1011 C999 0.930 . S
H1012 C1000 0.929 . S
H1013 C1042 0.930 . S
H1014 C1023 0.930 . S
N1015 Gd984 2.661 . S
N1015 C1019 1.350 . S
N1015 C1020 1.307 . S
C1016 H1008 0.930 . S
C1016 C1017 1.355 . S
C1016 C1018 1.412 . S
C1017 H1009 0.930 . S
C1017 C1016 1.355 . S
C1017 C1020 1.402 . S
C1018 C1016 1.412 . S
C1018 C1019 1.417 . S
C1018 C1042 1.431 . S
C1019 N1015 1.350 . S
C1019 C1018 1.417 . S
C1019 C1022 1.426 . S
C1020 H1003 0.930 . S
C1020 N1015 1.307 . S
C1020 C1017 1.402 . S
N1021 Gd984 2.601 . S
N1021 C1022 1.359 . S
N1021 C1025 1.334 . S
C1022 C1019 1.426 . S
C1022 N1021 1.359 . S
C1022 C1026 1.413 . S
C1023 H1014 0.930 . S
C1023 C1024 1.359 . S
C1023 C1025 1.394 . S
C1024 C1023 1.359 . S
C1024 C1026 1.391 . S
C1024 H1027 0.929 . S
C1025 H1007 0.930 . S
C1025 N1021 1.334 . S
C1025 C1023 1.394 . S
C1026 C1022 1.413 . S
C1026 C1024 1.391 . S
C1026 C1041 1.437 . S
H1027 C1024 0.929 . S
O1028 Gd984 2.545 . S
O1028 C1043 1.258 1_556 S
O1029 Gd984 2.606 1_554 S
O1029 Gd985 2.362 . S
O1029 C1040 1.284 . S
O1030 Gd985 2.324 . S
O1030 C1050 1.254 . S
O1031 Gd984 2.426 . S
O1031 C1050 1.271 1_556 S
O1032 Gd984 2.545 1_554 S
O1032 C1040 1.250 . S
O1033 Gd984 2.412 1_554 S
O1033 C1043 1.252 . S
O1034 Gd985 2.545 . S
O1034 C1052 1.258 . S
O1035 Gd984 2.362 . S
O1035 Gd985 2.606 1_556 S
O1035 C1051 1.284 . S
O1036 Gd984 2.324 1_554 S
O1036 C1059 1.254 . S
O1037 Gd985 2.429 . S
O1037 C1059 1.268 . S
O1038 Gd985 2.545 1_556 S
O1038 C1051 1.250 . S
O1039 Gd985 2.412 . S
O1039 C1052 1.252 . S
C1040 O1029 1.284 . S
C1040 O1032 1.250 . S
C1041 H1010 0.929 . S
C1041 C1026 1.437 . S
C1041 C1042 1.317 . S
C1042 H1013 0.930 . S
C1042 C1018 1.431 . S
C1042 C1041 1.317 . S
C1043 Gd984 2.828 1_554 S
C1043 O1028 1.258 1_554 S
C1043 O1033 1.252 . S
C1043 C1044 1.497 . S
C1044 C1043 1.497 . S
C1044 C1045 1.395 1_554 S
C1044 C1046 1.380 . S
C1045 C1044 1.395 1_556 S
C1045 C1048 1.398 . S
C1045 H1060 0.930 . S
C1046 C1044 1.380 . S
C1046 C1047 1.391 . S
C1046 H1061 0.930 . S
C1047 C1046 1.391 . S
C1047 C1049 1.387 . S
C1048 C1045 1.398 . S
C1048 C1049 1.380 1_556 S
C1048 H1062 0.930 . S
C1049 C1047 1.387 . S
C1049 C1048 1.380 1_554 S
C1049 H1063 0.930 . S
C1050 O1030 1.254 . S
C1050 O1031 1.271 1_554 S
C1051 O1035 1.284 . S
C1051 O1038 1.250 . S
C1052 Gd985 2.828 . S
C1052 O1034 1.258 . S
C1052 O1039 1.252 . S
C1052 C1053 1.497 . S
C1053 C1052 1.497 . S
C1053 C1054 1.395 . S
C1053 C1055 1.380 . S
C1054 C1053 1.395 . S
C1054 C1057 1.398 . S
C1054 H1064 0.930 . S
C1055 C1053 1.380 . S
C1055 C1056 1.391 . S
C1055 H1065 0.930 . S
C1056 C1055 1.391 . S
C1056 C1058 1.387 . S
C1057 C1054 1.398 . S
C1057 C1058 1.380 . S
C1057 H1066 0.930 . S
C1058 C1056 1.387 . S
C1058 C1057 1.380 . S
C1058 H1067 0.930 . S
C1059 O1036 1.254 . S
C1059 O1037 1.268 . S
H1060 C1045 0.930 . S
H1061 C1046 0.930 . S
H1062 C1048 0.930 . S
H1063 C1049 0.930 . S
H1064 C1054 0.930 . S
H1065 C1055 0.930 . S
H1066 C1057 0.930 . S
H1067 C1058 0.930 . S
Gd1068 N1099 2.661 . S
Gd1068 N1105 2.601 . S
Gd1068 O1112 2.545 . S
Gd1068 O1113 2.606 . S
Gd1068 O1115 2.429 . S
Gd1068 O1116 2.545 . S
Gd1068 O1117 2.412 . S
Gd1068 O1119 2.362 . S
Gd1068 O1120 2.324 . S
Gd1068 C1127 2.828 . S
Gd1069 N1078 2.661 . S
Gd1069 N1082 2.601 . S
Gd1069 O1113 2.362 . S
Gd1069 O1114 2.324 . S
Gd1069 O1118 2.545 . S
Gd1069 O1119 2.606 . S
Gd1069 O1121 2.429 . S
Gd1069 O1122 2.545 . S
Gd1069 O1123 2.412 . S
Gd1069 C1136 2.821 1_655 S
C1070 C1073 1.417 . S
C1070 C1075 1.431 . S
C1070 C1076 1.412 . S
C1071 C1074 1.437 . S
C1071 C1075 1.317 . S
C1071 H1090 0.929 . S
C1072 C1073 1.426 . S
C1072 C1074 1.413 . S
C1072 N1082 1.359 . S
C1073 C1070 1.417 . S
C1073 C1072 1.426 . S
C1073 N1078 1.350 . S
C1074 C1071 1.437 . S
C1074 C1072 1.413 . S
C1074 C1084 1.391 . S
C1075 C1070 1.431 . S
C1075 C1071 1.317 . S
C1075 H1086 0.930 . S
C1076 C1070 1.412 . S
C1076 C1077 1.355 . S
C1076 H1088 0.930 . S
C1077 C1076 1.355 . S
C1077 C1079 1.402 . S
C1077 H1089 0.930 . S
N1078 Gd1069 2.661 . S
N1078 C1073 1.350 . S
N1078 C1079 1.307 . S
C1079 C1077 1.402 . S
C1079 N1078 1.307 . S
C1079 H1080 0.930 . S
H1080 C1079 0.930 . S
C1081 N1082 1.334 . S
C1081 C1083 1.394 . S
C1081 H1085 0.930 . S
N1082 Gd1069 2.601 . S
N1082 C1072 1.359 . S
N1082 C1081 1.334 . S
C1083 C1081 1.394 . S
C1083 C1084 1.359 . S
C1083 H1095 0.930 . S
C1084 C1074 1.391 . S
C1084 C1083 1.359 . S
C1084 H1096 0.929 . S
H1085 C1081 0.930 . S
H1086 C1075 0.930 . S
H1087 C1104 0.930 . S
H1088 C1076 0.930 . S
H1089 C1077 0.930 . S
H1090 C1071 0.929 . S
H1091 C1109 0.930 . S
H1092 C1100 0.930 . S
H1093 C1101 0.930 . S
H1094 C1125 0.929 . S
H1095 C1083 0.930 . S
H1096 C1084 0.929 . S
H1097 C1126 0.930 . S
H1098 C1107 0.930 . S
N1099 Gd1068 2.661 . S
N1099 C1103 1.350 . S
N1099 C1104 1.307 . S
C1100 H1092 0.930 . S
C1100 C1101 1.355 . S
C1100 C1102 1.412 . S
C1101 H1093 0.930 . S
C1101 C1100 1.355 . S
C1101 C1104 1.402 . S
C1102 C1100 1.412 . S
C1102 C1103 1.417 . S
C1102 C1126 1.431 . S
C1103 N1099 1.350 . S
C1103 C1102 1.417 . S
C1103 C1106 1.426 . S
C1104 H1087 0.930 . S
C1104 N1099 1.307 . S
C1104 C1101 1.402 . S
N1105 Gd1068 2.601 . S
N1105 C1106 1.359 . S
N1105 C1109 1.334 . S
C1106 C1103 1.426 . S
C1106 N1105 1.359 . S
C1106 C1110 1.413 . S
C1107 H1098 0.930 . S
C1107 C1108 1.359 . S
C1107 C1109 1.394 . S
C1108 C1107 1.359 . S
C1108 C1110 1.391 . S
C1108 H1111 0.929 . S
C1109 H1091 0.930 . S
C1109 N1105 1.334 . S
C1109 C1107 1.394 . S
C1110 C1106 1.413 . S
C1110 C1108 1.391 . S
C1110 C1125 1.437 . S
H1111 C1108 0.929 . S
O1112 Gd1068 2.545 . S
O1112 C1127 1.258 . S
O1113 Gd1068 2.606 . S
O1113 Gd1069 2.362 . S
O1113 C1124 1.284 . S
O1114 Gd1069 2.324 . S
O1114 C1134 1.254 . S
O1115 Gd1068 2.429 . S
O1115 C1134 1.268 . S
O1116 Gd1068 2.545 . S
O1116 C1124 1.250 . S
O1117 Gd1068 2.412 . S
O1117 C1127 1.252 . S
O1118 Gd1069 2.545 . S
O1118 C1136 1.255 1_655 S
O1119 Gd1068 2.362 . S
O1119 Gd1069 2.606 . S
O1119 C1135 1.284 . S
O1120 Gd1068 2.324 . S
O1120 C1143 1.254 . S
O1121 Gd1069 2.429 . S
O1121 C1143 1.268 . S
O1122 Gd1069 2.545 . S
O1122 C1135 1.250 . S
O1123 Gd1069 2.412 . S
O1123 C1136 1.247 1_655 S
C1124 O1113 1.284 . S
C1124 O1116 1.250 . S
C1125 H1094 0.929 . S
C1125 C1110 1.437 . S
C1125 C1126 1.317 . S
C1126 H1097 0.930 . S
C1126 C1102 1.431 . S
C1126 C1125 1.317 . S
C1127 Gd1068 2.828 . S
C1127 O1112 1.258 . S
C1127 O1117 1.252 . S
C1127 C1128 1.497 . S
C1128 C1127 1.497 . S
C1128 C1129 1.395 . S
C1128 C1130 1.380 . S
C1129 C1128 1.395 . S
C1129 C1132 1.398 . S
C1129 H1144 0.930 . S
C1130 C1128 1.380 . S
C1130 C1131 1.391 . S
C1130 H1145 0.930 . S
C1131 C1130 1.391 . S
C1131 C1133 1.387 . S
C1132 C1129 1.398 . S
C1132 C1133 1.380 . S
C1132 H1146 0.930 . S
C1133 C1131 1.387 . S
C1133 C1132 1.380 . S
C1133 H1147 0.930 . S
C1134 O1114 1.254 . S
C1134 O1115 1.268 . S
C1135 O1119 1.284 . S
C1135 O1122 1.250 . S
C1136 Gd1069 2.821 1_455 S
C1136 O1118 1.255 1_455 S
C1136 O1123 1.247 1_455 S
C1136 C1137 1.505 . S
C1137 C1136 1.505 . S
C1137 C1138 1.395 . S
C1137 C1139 1.380 . S
C1138 C1137 1.395 . S
C1138 C1141 1.398 . S
C1138 H1148 0.930 . S
C1139 C1137 1.380 . S
C1139 C1140 1.391 . S
C1139 H1149 0.930 . S
C1140 C1139 1.391 . S
C1140 C1142 1.387 . S
C1141 C1138 1.398 . S
C1141 C1142 1.380 . S
C1141 H1150 0.930 . S
C1142 C1140 1.387 . S
C1142 C1141 1.380 . S
C1142 H1151 0.930 . S
C1143 O1120 1.254 . S
C1143 O1121 1.268 . S
H1144 C1129 0.930 . S
H1145 C1130 0.930 . S
H1146 C1132 0.930 . S
H1147 C1133 0.930 . S
H1148 C1138 0.930 . S
H1149 C1139 0.930 . S
H1150 C1141 0.930 . S
H1151 C1142 0.930 . S
Gd1152 N1183 2.661 . S
Gd1152 N1189 2.601 . S
Gd1152 O1196 2.545 . S
Gd1152 O1197 2.606 . S
Gd1152 O1199 2.429 . S
Gd1152 O1200 2.545 . S
Gd1152 O1201 2.412 . S
Gd1152 O1203 2.362 . S
Gd1152 O1204 2.324 . S
Gd1152 C1211 2.828 . S
Gd1153 N1162 2.661 . S
Gd1153 N1166 2.601 . S
Gd1153 O1197 2.362 . S
Gd1153 O1198 2.324 . S
Gd1153 O1202 2.545 . S
Gd1153 O1203 2.606 . S
Gd1153 O1205 2.429 . S
Gd1153 O1206 2.545 . S
Gd1153 O1207 2.412 . S
Gd1153 C1220 2.828 . S
C1154 C1157 1.417 . S
C1154 C1159 1.431 . S
C1154 C1160 1.412 . S
C1155 C1158 1.437 . S
C1155 C1159 1.317 . S
C1155 H1174 0.929 . S
C1156 C1157 1.426 . S
C1156 C1158 1.413 . S
C1156 N1166 1.359 . S
C1157 C1154 1.417 . S
C1157 C1156 1.426 . S
C1157 N1162 1.350 . S
C1158 C1155 1.437 . S
C1158 C1156 1.413 . S
C1158 C1168 1.391 . S
C1159 C1154 1.431 . S
C1159 C1155 1.317 . S
C1159 H1170 0.930 . S
C1160 C1154 1.412 . S
C1160 C1161 1.355 . S
C1160 H1172 0.930 . S
C1161 C1160 1.355 . S
C1161 C1163 1.402 . S
C1161 H1173 0.930 . S
N1162 Gd1153 2.661 . S
N1162 C1157 1.350 . S
N1162 C1163 1.307 . S
C1163 C1161 1.402 . S
C1163 N1162 1.307 . S
C1163 H1164 0.930 . S
H1164 C1163 0.930 . S
C1165 N1166 1.334 . S
C1165 C1167 1.394 . S
C1165 H1169 0.930 . S
N1166 Gd1153 2.601 . S
N1166 C1156 1.359 . S
N1166 C1165 1.334 . S
C1167 C1165 1.394 . S
C1167 C1168 1.359 . S
C1167 H1179 0.930 . S
C1168 C1158 1.391 . S
C1168 C1167 1.359 . S
C1168 H1180 0.929 . S
H1169 C1165 0.930 . S
H1170 C1159 0.930 . S
H1171 C1188 0.930 . S
H1172 C1160 0.930 . S
H1173 C1161 0.930 . S
H1174 C1155 0.929 . S
H1175 C1193 0.930 . S
H1176 C1184 0.930 . S
H1177 C1185 0.930 . S
H1178 C1209 0.929 . S
H1179 C1167 0.930 . S
H1180 C1168 0.929 . S
H1181 C1210 0.930 . S
H1182 C1191 0.930 . S
N1183 Gd1152 2.661 . S
N1183 C1187 1.350 1_455 S
N1183 C1188 1.307 . S
C1184 H1176 0.930 . S
C1184 C1185 1.355 . S
C1184 C1186 1.412 . S
C1185 H1177 0.930 . S
C1185 C1184 1.355 . S
C1185 C1188 1.402 1_655 S
C1186 C1184 1.412 . S
C1186 C1187 1.417 . S
C1186 C1210 1.431 . S
C1187 N1183 1.350 1_655 S
C1187 C1186 1.417 . S
C1187 C1190 1.426 . S
C1188 H1171 0.930 . S
C1188 N1183 1.307 . S
C1188 C1185 1.402 1_455 S
N1189 Gd1152 2.601 . S
N1189 C1190 1.359 1_455 S
N1189 C1193 1.334 . S
C1190 C1187 1.426 . S
C1190 N1189 1.359 1_655 S
C1190 C1194 1.413 . S
C1191 H1182 0.930 . S
C1191 C1192 1.359 1_455 S
C1191 C1193 1.394 . S
C1192 C1191 1.359 1_655 S
C1192 C1194 1.391 . S
C1192 H1195 0.929 . S
C1193 H1175 0.930 . S
C1193 N1189 1.334 . S
C1193 C1191 1.394 . S
C1194 C1190 1.413 . S
C1194 C1192 1.391 . S
C1194 C1209 1.437 . S
H1195 C1192 0.929 . S
O1196 Gd1152 2.545 . S
O1196 C1211 1.258 . S
O1197 Gd1152 2.606 . S
O1197 Gd1153 2.362 . S
O1197 C1208 1.284 . S
O1198 Gd1153 2.324 . S
O1198 C1218 1.254 . S
O1199 Gd1152 2.429 . S
O1199 C1218 1.268 . S
O1200 Gd1152 2.545 . S
O1200 C1208 1.250 . S
O1201 Gd1152 2.412 . S
O1201 C1211 1.252 . S
O1202 Gd1153 2.545 . S
O1202 C1220 1.258 . S
O1203 Gd1152 2.362 . S
O1203 Gd1153 2.606 . S
O1203 C1219 1.284 . S
O1204 Gd1152 2.324 . S
O1204 C1227 1.254 . S
O1205 Gd1153 2.429 . S
O1205 C1227 1.268 . S
O1206 Gd1153 2.545 . S
O1206 C1219 1.250 . S
O1207 Gd1153 2.412 . S
O1207 C1220 1.252 . S
C1208 O1197 1.284 . S
C1208 O1200 1.250 . S
C1209 H1178 0.929 . S
C1209 C1194 1.437 . S
C1209 C1210 1.317 . S
C1210 H1181 0.930 . S
C1210 C1186 1.431 . S
C1210 C1209 1.317 . S
C1211 Gd1152 2.828 . S
C1211 O1196 1.258 . S
C1211 O1201 1.252 . S
C1211 C1212 1.497 . S
C1212 C1211 1.497 . S
C1212 C1213 1.395 . S
C1212 C1214 1.380 . S
C1213 C1212 1.395 . S
C1213 C1216 1.398 . S
C1213 H1228 0.930 . S
C1214 C1212 1.380 . S
C1214 C1215 1.391 . S
C1214 H1229 0.930 . S
C1215 C1214 1.391 . S
C1215 C1217 1.387 . S
C1216 C1213 1.398 . S
C1216 C1217 1.380 . S
C1216 H1230 0.930 . S
C1217 C1215 1.387 . S
C1217 C1216 1.380 . S
C1217 H1231 0.930 . S
C1218 O1198 1.254 . S
C1218 O1199 1.268 . S
C1219 O1203 1.284 . S
C1219 O1206 1.250 . S
C1220 Gd1153 2.828 . S
C1220 O1202 1.258 . S
C1220 O1207 1.252 . S
C1220 C1221 1.497 . S
C1221 C1220 1.497 . S
C1221 C1222 1.395 . S
C1221 C1223 1.380 . S
C1222 C1221 1.395 . S
C1222 C1225 1.398 . S
C1222 H1232 0.930 . S
C1223 C1221 1.380 . S
C1223 C1224 1.391 1_455 S
C1223 H1233 0.939 . S
C1224 C1223 1.391 1_655 S
C1224 C1226 1.387 . S
C1225 C1222 1.398 . S
C1225 C1226 1.380 1_455 S
C1225 H1234 0.930 . S
C1226 C1224 1.387 . S
C1226 C1225 1.380 1_655 S
C1226 H1235 0.930 . S
C1227 O1204 1.254 . S
C1227 O1205 1.268 . S
H1228 C1213 0.930 . S
H1229 C1214 0.930 . S
H1230 C1216 0.930 . S
H1231 C1217 0.930 . S
H1232 C1222 0.930 . S
H1233 C1223 0.939 . S
H1234 C1225 0.930 . S
H1235 C1226 0.930 . S
Gd1236 N1267 2.661 . S
Gd1236 N1273 2.601 . S
Gd1236 O1280 2.545 . S
Gd1236 O1281 2.606 . S
Gd1236 O1283 2.429 . S
Gd1236 O1284 2.545 . S
Gd1236 O1285 2.412 . S
Gd1236 O1287 2.362 . S
Gd1236 O1288 2.324 . S
Gd1236 C1295 2.828 . S
Gd1237 N1246 2.661 . S
Gd1237 N1250 2.601 . S
Gd1237 O1281 2.362 . S
Gd1237 O1282 2.324 . S
Gd1237 O1286 2.545 . S
Gd1237 O1287 2.606 . S
Gd1237 O1289 2.429 . S
Gd1237 O1290 2.545 . S
Gd1237 O1291 2.412 . S
Gd1237 C1304 2.828 . S
C1238 C1241 1.417 . S
C1238 C1243 1.431 . S
C1238 C1244 1.412 . S
C1239 C1242 1.437 . S
C1239 C1243 1.317 . S
C1239 H1258 0.929 . S
C1240 C1241 1.426 . S
C1240 C1242 1.413 . S
C1240 N1250 1.359 . S
C1241 C1238 1.417 . S
C1241 C1240 1.426 . S
C1241 N1246 1.350 . S
C1242 C1239 1.437 . S
C1242 C1240 1.413 . S
C1242 C1252 1.391 . S
C1243 C1238 1.431 . S
C1243 C1239 1.317 . S
C1243 H1254 0.930 . S
C1244 C1238 1.412 . S
C1244 C1245 1.355 . S
C1244 H1256 0.930 . S
C1245 C1244 1.355 . S
C1245 C1247 1.402 . S
C1245 H1257 0.930 . S
N1246 Gd1237 2.661 . S
N1246 C1241 1.350 . S
N1246 C1247 1.307 . S
C1247 C1245 1.402 . S
C1247 N1246 1.307 . S
C1247 H1248 0.930 . S
H1248 C1247 0.930 . S
C1249 N1250 1.334 . S
C1249 C1251 1.394 . S
C1249 H1253 0.930 . S
N1250 Gd1237 2.601 . S
N1250 C1240 1.359 . S
N1250 C1249 1.334 . S
C1251 C1249 1.394 . S
C1251 C1252 1.359 . S
C1251 H1263 0.930 . S
C1252 C1242 1.391 . S
C1252 C1251 1.359 . S
C1252 H1264 0.929 . S
H1253 C1249 0.930 . S
H1254 C1243 0.930 . S
H1255 C1272 0.930 . S
H1256 C1244 0.930 . S
H1257 C1245 0.930 . S
H1258 C1239 0.929 . S
H1259 C1277 0.930 . S
H1260 C1268 0.930 . S
H1261 C1269 0.931 1_455 S
H1262 C1293 0.929 . S
H1263 C1251 0.930 . S
H1264 C1252 0.929 . S
H1265 C1294 0.930 . S
H1266 C1275 0.930 . S
N1267 Gd1236 2.661 . S
N1267 C1271 1.350 . S
N1267 C1272 1.307 . S
C1268 H1260 0.930 . S
C1268 C1269 1.355 1_455 S
C1268 C1270 1.412 . S
C1269 H1261 0.931 1_655 S
C1269 C1268 1.355 1_655 S
C1269 C1272 1.402 . S
C1270 C1268 1.412 . S
C1270 C1271 1.417 1_455 S
C1270 C1294 1.431 . S
C1271 N1267 1.350 . S
C1271 C1270 1.417 1_655 S
C1271 C1274 1.426 . S
C1272 H1255 0.930 . S
C1272 N1267 1.307 . S
C1272 C1269 1.402 . S
N1273 Gd1236 2.601 . S
N1273 C1274 1.359 . S
N1273 C1277 1.334 . S
C1274 C1271 1.426 . S
C1274 N1273 1.359 . S
C1274 C1278 1.413 . S
C1275 H1266 0.930 . S
C1275 C1276 1.359 . S
C1275 C1277 1.394 . S
C1276 C1275 1.359 . S
C1276 C1278 1.391 . S
C1276 H1279 0.929 . S
C1277 H1259 0.930 . S
C1277 N1273 1.334 . S
C1277 C1275 1.394 . S
C1278 C1274 1.413 . S
C1278 C1276 1.391 . S
C1278 C1293 1.437 1_655 S
H1279 C1276 0.929 . S
O1280 Gd1236 2.545 . S
O1280 C1295 1.258 . S
O1281 Gd1236 2.606 . S
O1281 Gd1237 2.362 . S
O1281 C1292 1.284 . S
O1282 Gd1237 2.324 . S
O1282 C1302 1.254 . S
O1283 Gd1236 2.429 . S
O1283 C1302 1.268 . S
O1284 Gd1236 2.545 . S
O1284 C1292 1.250 . S
O1285 Gd1236 2.412 . S
O1285 C1295 1.252 . S
O1286 Gd1237 2.545 . S
O1286 C1304 1.258 . S
O1287 Gd1236 2.362 . S
O1287 Gd1237 2.606 . S
O1287 C1303 1.284 . S
O1288 Gd1236 2.324 . S
O1288 C1311 1.254 . S
O1289 Gd1237 2.429 . S
O1289 C1311 1.268 . S
O1290 Gd1237 2.545 . S
O1290 C1303 1.250 . S
O1291 Gd1237 2.412 . S
O1291 C1304 1.252 . S
C1292 O1281 1.284 . S
C1292 O1284 1.250 . S
C1293 H1262 0.929 . S
C1293 C1278 1.437 1_455 S
C1293 C1294 1.317 . S
C1294 H1265 0.930 . S
C1294 C1270 1.431 . S
C1294 C1293 1.317 . S
C1295 Gd1236 2.828 . S
C1295 O1280 1.258 . S
C1295 O1285 1.252 . S
C1295 C1296 1.497 1_655 S
C1296 C1295 1.497 1_455 S
C1296 C1297 1.395 . S
C1296 C1298 1.380 . S
C1297 C1296 1.395 . S
C1297 C1300 1.398 . S
C1297 H1312 0.930 . S
C1298 C1296 1.380 . S
C1298 C1299 1.391 . S
C1298 H1313 0.930 . S
C1299 C1298 1.391 . S
C1299 C1301 1.387 . S
C1300 C1297 1.398 . S
C1300 C1301 1.380 . S
C1300 H1314 0.930 . S
C1301 C1299 1.387 . S
C1301 C1300 1.380 . S
C1301 H1315 0.930 . S
C1302 O1282 1.254 . S
C1302 O1283 1.268 . S
C1303 O1287 1.284 . S
C1303 O1290 1.250 . S
C1304 Gd1237 2.828 . S
C1304 O1286 1.258 . S
C1304 O1291 1.252 . S
C1304 C1305 1.497 . S
C1305 C1304 1.497 . S
C1305 C1306 1.395 . S
C1305 C1307 1.380 . S
C1306 C1305 1.395 . S
C1306 C1309 1.398 . S
C1306 H1316 0.930 . S
C1307 C1305 1.380 . S
C1307 C1308 1.391 . S
C1307 H1317 0.930 . S
C1308 C1307 1.391 . S
C1308 C1310 1.387 . S
C1309 C1306 1.398 . S
C1309 C1310 1.380 . S
C1309 H1318 0.930 . S
C1310 C1308 1.387 . S
C1310 C1309 1.380 . S
C1310 H1319 0.930 . S
C1311 O1288 1.254 . S
C1311 O1289 1.268 . S
H1312 C1297 0.930 . S
H1313 C1298 0.930 . S
H1314 C1300 0.930 . S
H1315 C1301 0.930 . S
H1316 C1306 0.930 . S
H1317 C1307 0.930 . S
H1318 C1309 0.930 . S
H1319 C1310 0.930 . S
Gd1320 N1351 2.661 . S
Gd1320 N1357 2.601 . S
Gd1320 O1364 2.545 . S
Gd1320 O1365 2.606 . S
Gd1320 O1367 2.429 . S
Gd1320 O1368 2.545 . S
Gd1320 O1369 2.412 . S
Gd1320 O1371 2.362 . S
Gd1320 O1372 2.324 . S
Gd1320 C1379 2.828 . S
Gd1321 N1330 2.661 . S
Gd1321 N1334 2.601 . S
Gd1321 O1365 2.362 . S
Gd1321 O1366 2.324 . S
Gd1321 O1370 2.545 . S
Gd1321 O1371 2.606 . S
Gd1321 O1373 2.429 . S
Gd1321 O1374 2.545 . S
Gd1321 O1375 2.412 . S
Gd1321 C1388 2.828 . S
C1322 C1325 1.417 . S
C1322 C1327 1.431 . S
C1322 C1328 1.412 . S
C1323 C1326 1.437 . S
C1323 C1327 1.317 . S
C1323 H1342 0.929 . S
C1324 C1325 1.426 . S
C1324 C1326 1.413 . S
C1324 N1334 1.359 . S
C1325 C1322 1.417 . S
C1325 C1324 1.426 . S
C1325 N1330 1.350 . S
C1326 C1323 1.437 . S
C1326 C1324 1.413 . S
C1326 C1336 1.391 . S
C1327 C1322 1.431 . S
C1327 C1323 1.317 . S
C1327 H1338 0.930 . S
C1328 C1322 1.412 . S
C1328 C1329 1.355 . S
C1328 H1340 0.930 . S
C1329 C1328 1.355 . S
C1329 C1331 1.402 . S
C1329 H1341 0.930 . S
N1330 Gd1321 2.661 . S
N1330 C1325 1.350 . S
N1330 C1331 1.307 . S
C1331 C1329 1.402 . S
C1331 N1330 1.307 . S
C1331 H1332 0.930 . S
H1332 C1331 0.930 . S
C1333 N1334 1.334 . S
C1333 C1335 1.394 . S
C1333 H1337 0.930 . S
N1334 Gd1321 2.601 . S
N1334 C1324 1.359 . S
N1334 C1333 1.334 . S
C1335 C1333 1.394 . S
C1335 C1336 1.359 . S
C1335 H1347 0.930 . S
C1336 C1326 1.391 . S
C1336 C1335 1.359 . S
C1336 H1348 0.929 . S
H1337 C1333 0.930 . S
H1338 C1327 0.930 . S
H1339 C1356 0.930 . S
H1340 C1328 0.930 . S
H1341 C1329 0.930 . S
H1342 C1323 0.929 . S
H1343 C1361 0.930 . S
H1344 C1352 0.930 . S
H1345 C1353 0.930 1_554 S
H1346 C1377 0.929 . S
H1347 C1335 0.930 . S
H1348 C1336 0.929 . S
H1349 C1378 0.930 . S
H1350 C1359 0.930 . S
N1351 Gd1320 2.661 . S
N1351 C1355 1.350 . S
N1351 C1356 1.307 . S
C1352 H1344 0.930 . S
C1352 C1353 1.355 1_554 S
C1352 C1354 1.412 . S
C1353 H1345 0.930 1_556 S
C1353 C1352 1.355 1_556 S
C1353 C1356 1.402 . S
C1354 C1352 1.412 . S
C1354 C1355 1.417 1_554 S
C1354 C1378 1.431 . S
C1355 N1351 1.350 . S
C1355 C1354 1.417 1_556 S
C1355 C1358 1.426 . S
C1356 H1339 0.930 . S
C1356 N1351 1.307 . S
C1356 C1353 1.402 . S
N1357 Gd1320 2.601 . S
N1357 C1358 1.359 . S
N1357 C1361 1.334 . S
C1358 C1355 1.426 . S
C1358 N1357 1.359 . S
C1358 C1362 1.413 . S
C1359 H1350 0.930 . S
C1359 C1360 1.359 . S
C1359 C1361 1.394 . S
C1360 C1359 1.359 . S
C1360 C1362 1.391 . S
C1360 H1363 0.929 . S
C1361 H1343 0.930 . S
C1361 N1357 1.334 . S
C1361 C1359 1.394 . S
C1362 C1358 1.413 . S
C1362 C1360 1.391 . S
C1362 C1377 1.437 1_556 S
H1363 C1360 0.929 . S
O1364 Gd1320 2.545 . S
O1364 C1379 1.258 . S
O1365 Gd1320 2.606 . S
O1365 Gd1321 2.362 . S
O1365 C1376 1.284 . S
O1366 Gd1321 2.324 . S
O1366 C1386 1.254 . S
O1367 Gd1320 2.429 . S
O1367 C1386 1.268 . S
O1368 Gd1320 2.545 . S
O1368 C1376 1.250 . S
O1369 Gd1320 2.412 . S
O1369 C1379 1.252 . S
O1370 Gd1321 2.545 . S
O1370 C1388 1.258 . S
O1371 Gd1320 2.362 . S
O1371 Gd1321 2.606 . S
O1371 C1387 1.284 . S
O1372 Gd1320 2.324 . S
O1372 C1395 1.254 . S
O1373 Gd1321 2.429 . S
O1373 C1395 1.268 . S
O1374 Gd1321 2.545 . S
O1374 C1387 1.250 . S
O1375 Gd1321 2.412 . S
O1375 C1388 1.252 . S
C1376 O1365 1.284 . S
C1376 O1368 1.250 . S
C1377 H1346 0.929 . S
C1377 C1362 1.437 1_554 S
C1377 C1378 1.317 . S
C1378 H1349 0.930 . S
C1378 C1354 1.431 . S
C1378 C1377 1.317 . S
C1379 Gd1320 2.828 . S
C1379 O1364 1.258 . S
C1379 O1369 1.252 . S
C1379 C1380 1.497 . S
C1380 C1379 1.497 . S
C1380 C1381 1.395 . S
C1380 C1382 1.380 . S
C1381 C1380 1.395 . S
C1381 C1384 1.398 1_556 S
C1381 H1396 0.930 . S
C1382 C1380 1.380 . S
C1382 C1383 1.391 1_556 S
C1382 H1397 0.930 . S
C1383 C1382 1.391 1_554 S
C1383 C1385 1.387 . S
C1384 C1381 1.398 1_554 S
C1384 C1385 1.380 . S
C1384 H1398 0.930 . S
C1385 C1383 1.387 . S
C1385 C1384 1.380 . S
C1385 H1399 0.930 . S
C1386 O1366 1.254 . S
C1386 O1367 1.268 . S
C1387 O1371 1.284 . S
C1387 O1374 1.250 . S
C1388 Gd1321 2.828 . S
C1388 O1370 1.258 . S
C1388 O1375 1.252 . S
C1388 C1389 1.497 . S
C1389 C1388 1.497 . S
C1389 C1390 1.395 . S
C1389 C1391 1.380 . S
C1390 C1389 1.395 . S
C1390 C1393 1.398 . S
C1390 H1400 0.930 . S
C1391 C1389 1.380 . S
C1391 C1392 1.391 . S
C1391 H1401 0.930 . S
C1392 C1391 1.391 . S
C1392 C1394 1.387 . S
C1393 C1390 1.398 . S
C1393 C1394 1.380 . S
C1393 H1402 0.930 1_655 S
C1394 C1392 1.387 . S
C1394 C1393 1.380 . S
C1394 H1403 0.930 . S
C1395 O1372 1.254 . S
C1395 O1373 1.268 . S
H1396 C1381 0.930 . S
H1397 C1382 0.930 . S
H1398 C1384 0.930 . S
H1399 C1385 0.930 . S
H1400 C1390 0.930 . S
H1401 C1391 0.930 . S
H1402 C1393 0.930 1_455 S
H1403 C1394 0.930 . S
Gd1404 N1435 2.661 . S
Gd1404 N1441 2.601 . S
Gd1404 O1448 2.545 . S
Gd1404 O1449 2.606 . S
Gd1404 O1451 2.429 . S
Gd1404 O1452 2.545 . S
Gd1404 O1453 2.412 . S
Gd1404 O1455 2.362 . S
Gd1404 O1456 2.324 . S
Gd1404 C1463 2.828 . S
Gd1405 N1414 2.661 . S
Gd1405 N1418 2.601 . S
Gd1405 O1449 2.362 . S
Gd1405 O1450 2.324 . S
Gd1405 O1454 2.545 . S
Gd1405 O1455 2.606 . S
Gd1405 O1457 2.429 . S
Gd1405 O1458 2.545 . S
Gd1405 O1459 2.412 . S
Gd1405 C1472 2.828 . S
C1406 C1409 1.417 1_455 S
C1406 C1411 1.431 . S
C1406 C1412 1.412 . S
C1407 C1410 1.437 . S
C1407 C1411 1.317 . S
C1407 H1426 0.929 . S
C1408 C1409 1.426 . S
C1408 C1410 1.413 1_655 S
C1408 N1418 1.359 . S
C1409 C1406 1.417 1_655 S
C1409 C1408 1.426 . S
C1409 N1414 1.350 . S
C1410 C1407 1.437 . S
C1410 C1408 1.413 1_455 S
C1410 C1420 1.391 . S
C1411 C1406 1.431 . S
C1411 C1407 1.317 . S
C1411 H1422 0.930 . S
C1412 C1406 1.412 . S
C1412 C1413 1.355 1_455 S
C1412 H1424 0.930 . S
C1413 C1412 1.355 1_655 S
C1413 C1415 1.402 . S
C1413 H1425 0.930 . S
N1414 Gd1405 2.661 . S
N1414 C1409 1.350 . S
N1414 C1415 1.307 . S
C1415 C1413 1.402 . S
C1415 N1414 1.307 . S
C1415 H1416 0.930 . S
H1416 C1415 0.930 . S
C1417 N1418 1.334 . S
C1417 C1419 1.394 . S
C1417 H1421 0.930 . S
N1418 Gd1405 2.601 . S
N1418 C1408 1.359 . S
N1418 C1417 1.334 . S
C1419 C1417 1.394 . S
C1419 C1420 1.359 1_655 S
C1419 H1431 0.930 . S
C1420 C1410 1.391 . S
C1420 C1419 1.359 1_455 S
C1420 H1432 0.929 . S
H1421 C1417 0.930 . S
H1422 C1411 0.930 . S
H1423 C1440 0.930 . S
H1424 C1412 0.930 . S
H1425 C1413 0.930 . S
H1426 C1407 0.929 . S
H1427 C1445 0.930 . S
H1428 C1436 0.930 . S
H1429 C1437 0.930 . S
H1430 C1461 0.929 . S
H1431 C1419 0.930 . S
H1432 C1420 0.929 . S
H1433 C1462 0.930 . S
H1434 C1443 0.930 . S
N1435 Gd1404 2.661 . S
N1435 C1439 1.350 . S
N1435 C1440 1.307 . S
C1436 H1428 0.930 . S
C1436 C1437 1.355 . S
C1436 C1438 1.412 . S
C1437 H1429 0.930 . S
C1437 C1436 1.355 . S
C1437 C1440 1.402 . S
C1438 C1436 1.412 . S
C1438 C1439 1.417 . S
C1438 C1462 1.431 . S
C1439 N1435 1.350 . S
C1439 C1438 1.417 . S
C1439 C1442 1.426 . S
C1440 H1423 0.930 . S
C1440 N1435 1.307 . S
C1440 C1437 1.402 . S
N1441 Gd1404 2.601 . S
N1441 C1442 1.359 . S
N1441 C1445 1.334 . S
C1442 C1439 1.426 . S
C1442 N1441 1.359 . S
C1442 C1446 1.413 . S
C1443 H1434 0.930 . S
C1443 C1444 1.359 . S
C1443 C1445 1.394 . S
C1444 C1443 1.359 . S
C1444 C1446 1.391 . S
C1444 H1447 0.929 . S
C1445 H1427 0.930 . S
C1445 N1441 1.334 . S
C1445 C1443 1.394 . S
C1446 C1442 1.413 . S
C1446 C1444 1.391 . S
C1446 C1461 1.437 . S
H1447 C1444 0.929 . S
O1448 Gd1404 2.545 . S
O1448 C1463 1.258 . S
O1449 Gd1404 2.606 . S
O1449 Gd1405 2.362 . S
O1449 C1460 1.284 . S
O1450 Gd1405 2.324 . S
O1450 C1470 1.254 . S
O1451 Gd1404 2.429 . S
O1451 C1470 1.268 . S
O1452 Gd1404 2.545 . S
O1452 C1460 1.250 . S
O1453 Gd1404 2.412 . S
O1453 C1463 1.252 . S
O1454 Gd1405 2.545 . S
O1454 C1472 1.258 . S
O1455 Gd1404 2.362 . S
O1455 Gd1405 2.606 . S
O1455 C1471 1.284 . S
O1456 Gd1404 2.324 . S
O1456 C1479 1.254 . S
O1457 Gd1405 2.429 . S
O1457 C1479 1.268 . S
O1458 Gd1405 2.545 . S
O1458 C1471 1.250 . S
O1459 Gd1405 2.412 . S
O1459 C1472 1.252 . S
C1460 O1449 1.284 . S
C1460 O1452 1.250 . S
C1461 H1430 0.929 . S
C1461 C1446 1.437 . S
C1461 C1462 1.317 . S
C1462 H1433 0.930 . S
C1462 C1438 1.431 . S
C1462 C1461 1.317 . S
C1463 Gd1404 2.828 . S
C1463 O1448 1.258 . S
C1463 O1453 1.252 . S
C1463 C1464 1.497 . S
C1464 C1463 1.497 . S
C1464 C1465 1.395 . S
C1464 C1466 1.380 . S
C1465 C1464 1.395 . S
C1465 C1468 1.398 . S
C1465 H1480 0.930 . S
C1466 C1464 1.380 . S
C1466 C1467 1.391 . S
C1466 H1481 0.930 . S
C1467 C1466 1.391 . S
C1467 C1469 1.387 . S
C1468 C1465 1.398 . S
C1468 C1469 1.380 . S
C1468 H1482 0.930 . S
C1469 C1467 1.387 . S
C1469 C1468 1.380 . S
C1469 H1483 0.930 . S
C1470 O1450 1.254 . S
C1470 O1451 1.268 . S
C1471 O1455 1.284 . S
C1471 O1458 1.250 . S
C1472 Gd1405 2.828 . S
C1472 O1454 1.258 . S
C1472 O1459 1.252 . S
C1472 C1473 1.497 1_565 S
C1473 C1472 1.497 1_545 S
C1473 C1474 1.395 . S
C1473 C1475 1.380 . S
C1474 C1473 1.395 . S
C1474 C1477 1.398 . S
C1474 H1484 0.930 . S
C1475 C1473 1.380 . S
C1475 C1476 1.391 . S
C1475 H1485 0.930 . S
C1476 C1475 1.391 . S
C1476 C1478 1.387 . S
C1477 C1474 1.398 . S
C1477 C1478 1.380 . S
C1477 H1486 0.930 . S
C1478 C1476 1.387 . S
C1478 C1477 1.380 . S
C1478 H1487 0.930 . S
C1479 O1456 1.254 . S
C1479 O1457 1.268 . S
H1480 C1465 0.930 . S
H1481 C1466 0.930 . S
H1482 C1468 0.930 . S
H1483 C1469 0.930 . S
H1484 C1474 0.930 . S
H1485 C1475 0.930 . S
H1486 C1477 0.930 . S
H1487 C1478 0.930 . S
Gd1488 N1519 2.661 . S
Gd1488 N1525 2.601 . S
Gd1488 O1532 2.545 . S
Gd1488 O1533 2.606 . S
Gd1488 O1535 2.429 . S
Gd1488 O1536 2.545 . S
Gd1488 O1537 2.412 . S
Gd1488 O1539 2.362 . S
Gd1488 O1540 2.324 . S
Gd1488 C1547 2.828 . S
Gd1489 N1498 2.661 . S
Gd1489 N1502 2.601 . S
Gd1489 O1533 2.362 . S
Gd1489 O1534 2.324 . S
Gd1489 O1538 2.545 . S
Gd1489 O1539 2.606 . S
Gd1489 O1541 2.429 . S
Gd1489 O1542 2.545 . S
Gd1489 O1543 2.412 . S
Gd1489 C1556 2.828 . S
C1490 C1493 1.417 . S
C1490 C1495 1.431 . S
C1490 C1496 1.412 . S
C1491 C1494 1.437 . S
C1491 C1495 1.317 . S
C1491 H1510 0.929 . S
C1492 C1493 1.426 . S
C1492 C1494 1.413 . S
C1492 N1502 1.359 . S
C1493 C1490 1.417 . S
C1493 C1492 1.426 . S
C1493 N1498 1.350 . S
C1494 C1491 1.437 . S
C1494 C1492 1.413 . S
C1494 C1504 1.391 . S
C1495 C1490 1.431 . S
C1495 C1491 1.317 . S
C1495 H1506 0.930 . S
C1496 C1490 1.412 . S
C1496 C1497 1.355 . S
C1496 H1508 0.930 . S
C1497 C1496 1.355 . S
C1497 C1499 1.402 . S
C1497 H1509 0.930 . S
N1498 Gd1489 2.661 . S
N1498 C1493 1.350 . S
N1498 C1499 1.307 . S
C1499 C1497 1.402 . S
C1499 N1498 1.307 . S
C1499 H1500 0.930 . S
H1500 C1499 0.930 . S
C1501 N1502 1.334 . S
C1501 C1503 1.394 . S
C1501 H1505 0.930 . S
N1502 Gd1489 2.601 . S
N1502 C1492 1.359 . S
N1502 C1501 1.334 . S
C1503 C1501 1.394 . S
C1503 C1504 1.359 . S
C1503 H1515 0.930 . S
C1504 C1494 1.391 . S
C1504 C1503 1.359 . S
C1504 H1516 0.929 . S
H1505 C1501 0.930 . S
H1506 C1495 0.930 . S
H1507 C1524 0.930 . S
H1508 C1496 0.930 . S
H1509 C1497 0.930 . S
H1510 C1491 0.929 . S
H1511 C1529 0.930 . S
H1512 C1520 0.930 . S
H1513 C1521 0.930 . S
H1514 C1545 0.929 . S
H1515 C1503 0.930 . S
H1516 C1504 0.929 . S
H1517 C1546 0.930 . S
H1518 C1527 0.930 . S
N1519 Gd1488 2.661 . S
N1519 C1523 1.350 . S
N1519 C1524 1.307 . S
C1520 H1512 0.930 . S
C1520 C1521 1.355 . S
C1520 C1522 1.412 . S
C1521 H1513 0.930 . S
C1521 C1520 1.355 . S
C1521 C1524 1.402 . S
C1522 C1520 1.412 . S
C1522 C1523 1.417 . S
C1522 C1546 1.431 . S
C1523 N1519 1.350 . S
C1523 C1522 1.417 . S
C1523 C1526 1.426 . S
C1524 H1507 0.930 . S
C1524 N1519 1.307 . S
C1524 C1521 1.402 . S
N1525 Gd1488 2.601 . S
N1525 C1526 1.359 . S
N1525 C1529 1.334 . S
C1526 C1523 1.426 . S
C1526 N1525 1.359 . S
C1526 C1530 1.413 . S
C1527 H1518 0.930 . S
C1527 C1528 1.359 . S
C1527 C1529 1.394 . S
C1528 C1527 1.359 . S
C1528 C1530 1.391 . S
C1528 H1531 0.929 . S
C1529 H1511 0.930 . S
C1529 N1525 1.334 . S
C1529 C1527 1.394 . S
C1530 C1526 1.413 . S
C1530 C1528 1.391 . S
C1530 C1545 1.437 . S
H1531 C1528 0.929 . S
O1532 Gd1488 2.545 . S
O1532 C1547 1.258 . S
O1533 Gd1488 2.606 . S
O1533 Gd1489 2.362 . S
O1533 C1544 1.284 . S
O1534 Gd1489 2.324 . S
O1534 C1554 1.254 . S
O1535 Gd1488 2.429 . S
O1535 C1554 1.268 . S
O1536 Gd1488 2.545 . S
O1536 C1544 1.250 . S
O1537 Gd1488 2.412 . S
O1537 C1547 1.252 . S
O1538 Gd1489 2.545 . S
O1538 C1556 1.258 . S
O1539 Gd1488 2.362 . S
O1539 Gd1489 2.606 . S
O1539 C1555 1.284 . S
O1540 Gd1488 2.324 . S
O1540 C1563 1.254 . S
O1541 Gd1489 2.429 . S
O1541 C1563 1.268 . S
O1542 Gd1489 2.545 . S
O1542 C1555 1.250 . S
O1543 Gd1489 2.412 . S
O1543 C1556 1.252 . S
C1544 O1533 1.284 . S
C1544 O1536 1.250 . S
C1545 H1514 0.929 . S
C1545 C1530 1.437 . S
C1545 C1546 1.317 . S
C1546 H1517 0.930 . S
C1546 C1522 1.431 . S
C1546 C1545 1.317 . S
C1547 Gd1488 2.828 . S
C1547 O1532 1.258 . S
C1547 O1537 1.252 . S
C1547 C1548 1.497 . S
C1548 C1547 1.497 . S
C1548 C1549 1.395 . S
C1548 C1550 1.380 . S
C1549 C1548 1.395 . S
C1549 C1552 1.398 . S
C1549 H1564 0.930 . S
C1550 C1548 1.380 . S
C1550 C1551 1.391 . S
C1550 H1565 0.930 . S
C1551 C1550 1.391 . S
C1551 C1553 1.387 . S
C1552 C1549 1.398 . S
C1552 C1553 1.380 . S
C1552 H1566 0.930 . S
C1553 C1551 1.387 . S
C1553 C1552 1.380 . S
C1553 H1567 0.930 . S
C1554 O1534 1.254 . S
C1554 O1535 1.268 . S
C1555 O1539 1.284 . S
C1555 O1542 1.250 . S
C1556 Gd1489 2.828 . S
C1556 O1538 1.258 . S
C1556 O1543 1.252 . S
C1556 C1557 1.497 . S
C1557 C1556 1.497 . S
C1557 C1558 1.395 . S
C1557 C1559 1.380 . S
C1558 C1557 1.395 . S
C1558 C1561 1.398 . S
C1558 H1568 0.930 . S
C1559 C1557 1.380 . S
C1559 C1560 1.391 . S
C1559 H1569 0.930 . S
C1560 C1559 1.391 . S
C1560 C1562 1.387 . S
C1561 C1558 1.398 . S
C1561 C1562 1.380 . S
C1561 H1570 0.930 . S
C1562 C1560 1.387 . S
C1562 C1561 1.380 . S
C1562 H1571 0.930 . S
C1563 O1540 1.254 . S
C1563 O1541 1.268 . S
H1564 C1549 0.930 . S
H1565 C1550 0.930 . S
H1566 C1552 0.930 . S
H1567 C1553 0.930 . S
H1568 C1558 0.930 . S
H1569 C1559 0.930 . S
H1570 C1561 0.930 . S
H1571 C1562 0.930 . S
Gd1572 N1603 2.661 1_455 S
Gd1572 N1609 2.601 . S
Gd1572 O1616 2.545 . S
Gd1572 O1617 2.606 . S
Gd1572 O1619 2.429 . S
Gd1572 O1620 2.545 . S
Gd1572 O1621 2.412 1_455 S
Gd1572 O1623 2.362 . S
Gd1572 O1624 2.324 . S
Gd1572 C1631 2.828 1_455 S
Gd1573 N1582 2.661 . S
Gd1573 N1586 2.601 1_554 S
Gd1573 O1617 2.362 . S
Gd1573 O1618 2.324 . S
Gd1573 O1622 2.545 1_554 S
Gd1573 O1623 2.606 . S
Gd1573 O1625 2.429 1_554 S
Gd1573 O1626 2.545 . S
Gd1573 O1627 2.412 . S
Gd1573 C1640 2.828 1_554 S
C1574 C1577 1.417 . S
C1574 C1579 1.431 1_554 S
C1574 C1580 1.412 . S
C1575 C1578 1.437 . S
C1575 C1579 1.317 . S
C1575 H1594 0.929 . S
C1576 C1577 1.426 1_556 S
C1576 C1578 1.413 . S
C1576 N1586 1.359 . S
C1577 C1574 1.417 . S
C1577 C1576 1.426 1_554 S
C1577 N1582 1.350 . S
C1578 C1575 1.437 . S
C1578 C1576 1.413 . S
C1578 C1588 1.391 . S
C1579 C1574 1.431 1_556 S
C1579 C1575 1.317 . S
C1579 H1590 0.930 . S
C1580 C1574 1.412 . S
C1580 C1581 1.355 . S
C1580 H1592 0.930 . S
C1581 C1580 1.355 . S
C1581 C1583 1.402 . S
C1581 H1593 0.930 . S
N1582 Gd1573 2.661 . S
N1582 C1577 1.350 . S
N1582 C1583 1.307 . S
C1583 C1581 1.402 . S
C1583 N1582 1.307 . S
C1583 H1584 0.930 . S
H1584 C1583 0.930 . S
C1585 N1586 1.334 . S
C1585 C1587 1.394 . S
C1585 H1589 0.930 . S
N1586 Gd1573 2.601 1_556 S
N1586 C1576 1.359 . S
N1586 C1585 1.334 . S
C1587 C1585 1.394 . S
C1587 C1588 1.359 . S
C1587 H1599 0.930 . S
C1588 C1578 1.391 . S
C1588 C1587 1.359 . S
C1588 H1600 0.929 . S
H1589 C1585 0.930 . S
H1590 C1579 0.930 . S
H1591 C1608 0.930 1_556 S
H1592 C1580 0.930 . S
H1593 C1581 0.930 . S
H1594 C1575 0.929 . S
H1595 C1613 0.930 . S
H1596 C1604 0.930 . S
H1597 C1605 0.930 . S
H1598 C1629 0.929 . S
H1599 C1587 0.930 . S
H1600 C1588 0.929 . S
H1601 C1630 0.930 . S
H1602 C1611 0.930 . S
N1603 Gd1572 2.661 1_655 S
N1603 C1607 1.350 . S
N1603 C1608 1.307 . S
C1604 H1596 0.930 . S
C1604 C1605 1.355 1_554 S
C1604 C1606 1.412 . S
C1605 H1597 0.930 . S
C1605 C1604 1.355 1_556 S
C1605 C1608 1.402 1_556 S
C1606 C1604 1.412 . S
C1606 C1607 1.417 . S
C1606 C1630 1.431 . S
C1607 N1603 1.350 . S
C1607 C1606 1.417 . S
C1607 C1610 1.426 . S
C1608 H1591 0.930 1_554 S
C1608 N1603 1.307 . S
C1608 C1605 1.402 1_554 S
N1609 Gd1572 2.601 . S
N1609 C1610 1.359 1_455 S
N1609 C1613 1.334 . S
C1610 C1607 1.426 . S
C1610 N1609 1.359 1_655 S
C1610 C1614 1.413 . S
C1611 H1602 0.930 . S
C1611 C1612 1.359 1_455 S
C1611 C1613 1.394 . S
C1612 C1611 1.359 1_655 S
C1612 C1614 1.391 . S
C1612 H1615 0.929 . S
C1613 H1595 0.930 . S
C1613 N1609 1.334 . S
C1613 C1611 1.394 . S
C1614 C1610 1.413 . S
C1614 C1612 1.391 . S
C1614 C1629 1.437 . S
H1615 C1612 0.929 . S
O1616 Gd1572 2.545 . S
O1616 C1631 1.258 1_455 S
O1617 Gd1572 2.606 . S
O1617 Gd1573 2.362 . S
O1617 C1628 1.284 . S
O1618 Gd1573 2.324 . S
O1618 C1638 1.254 . S
O1619 Gd1572 2.429 . S
O1619 C1638 1.268 . S
O1620 Gd1572 2.545 . S
O1620 C1628 1.250 . S
O1621 Gd1572 2.412 1_655 S
O1621 C1631 1.252 . S
O1622 Gd1573 2.545 1_556 S
O1622 C1640 1.258 . S
O1623 Gd1572 2.362 . S
O1623 Gd1573 2.606 . S
O1623 C1639 1.284 . S
O1624 Gd1572 2.324 . S
O1624 C1647 1.254 1_554 S
O1625 Gd1573 2.429 1_556 S
O1625 C1647 1.268 . S
O1626 Gd1573 2.545 . S
O1626 C1639 1.250 . S
O1627 Gd1573 2.412 . S
O1627 C1640 1.252 1_554 S
C1628 O1617 1.284 . S
C1628 O1620 1.250 . S
C1629 H1598 0.929 . S
C1629 C1614 1.437 . S
C1629 C1630 1.317 . S
C1630 H1601 0.930 . S
C1630 C1606 1.431 . S
C1630 C1629 1.317 . S
C1631 Gd1572 2.828 1_655 S
C1631 O1616 1.258 1_655 S
C1631 O1621 1.252 . S
C1631 C1632 1.497 . S
C1632 C1631 1.497 . S
C1632 C1633 1.395 . S
C1632 C1634 1.380 . S
C1633 C1632 1.395 . S
C1633 C1636 1.398 . S
C1633 H1648 0.930 . S
C1634 C1632 1.380 . S
C1634 C1635 1.391 . S
C1634 H1649 0.930 . S
C1635 C1634 1.391 . S
C1635 C1637 1.387 . S
C1636 C1633 1.398 . S
C1636 C1637 1.380 . S
C1636 H1650 0.930 . S
C1637 C1635 1.387 . S
C1637 C1636 1.380 . S
C1637 H1651 0.930 . S
C1638 O1618 1.254 . S
C1638 O1619 1.268 . S
C1639 O1623 1.284 . S
C1639 O1626 1.250 . S
C1640 Gd1573 2.828 1_556 S
C1640 O1622 1.258 . S
C1640 O1627 1.252 1_556 S
C1640 C1641 1.497 . S
C1641 C1640 1.497 . S
C1641 C1642 1.395 . S
C1641 C1643 1.380 1_556 S
C1642 C1641 1.395 . S
C1642 C1645 1.398 . S
C1642 H1652 0.930 . S
C1643 C1641 1.380 1_554 S
C1643 C1644 1.391 1_554 S
C1643 H1653 0.930 . S
C1644 C1643 1.391 1_556 S
C1644 C1646 1.387 . S
C1645 C1642 1.398 . S
C1645 C1646 1.380 . S
C1645 H1654 0.930 . S
C1646 C1644 1.387 . S
C1646 C1645 1.380 . S
C1646 H1655 0.930 . S
C1647 O1624 1.254 1_556 S
C1647 O1625 1.268 . S
H1648 C1633 0.930 . S
H1649 C1634 0.930 . S
H1650 C1636 0.930 . S
H1651 C1637 0.930 . S
H1652 C1642 0.930 . S
H1653 C1643 0.930 . S
H1654 C1645 0.930 . S
H1655 C1646 0.930 . S
C101 C379 2.733 1_556 S
C57 C462 3.224 . S
C70 C547 2.015 . S
C627 C82 1.298 . S
C23 C711 3.414 . S
C804 C29 1.819 . S
C882 C49 3.084 . S
C10 C967 2.978 . S
C378 C218 3.004 . S
C226 C459 2.008 . S
C546 C251 2.213 . S
C631 C159 2.061 . S
C211 C715 2.983 . S
C807 C225 2.160 . S
C879 C252 1.122 . S
C966 C166 2.791 . S
C375 C147 2.540 . S
C263 C1050 2.501 1_556 S
C1124 C309 3.400 . S
C1219 C291 0.567 . S
C108 C963 4.550 1_545 S
C121 C543 2.897 . S
C302 C1302 2.656 . S
C1387 C276 1.761 . S
C368 C55 2.923 . S
C1395 C96 3.256 . S
C88 C536 2.345 . S
C75 C1308 1.483 . S
C720 C4 3.089 . S
C44 C1131 1.357 . S
C891 C31 2.977 1_565 S
C1460 C18 2.594 . S
C387 C133 3.196 . S
C1392 C296 0.858 . S
C107 C555 1.729 . S
C264 C1292 2.229 . S
C140 C704 3.069 1_565 S
C1134 C289 1.789 . S
C114 C888 0.381 1_545 S
C265 C1479 2.824 . S
C179 C384 2.459 1_554 S
C161 C1059 2.483 . S
C244 C799 3.651 . S
C224 C1208 1.485 . S
C1476 C257 3.579 . S
C199 C552 2.421 . S
C639 C237 2.780 . S
C452 C185 1.211 . S
C69 C1555 2.735 . S
C1386 C83 3.223 . S
C94 C1639 2.018 . S
C56 C1299 1.295 . S
C42 C1047 3.447 . S
C1140 C3 1.832 . S
C1218 C16 3.074 1_455 S
C1471 C36 2.977 . S
C1554 C238 3.004 . S
C174 C1383 2.003 1_556 S
C1638 C186 2.211 . S
C1303 C198 2.061 . S
C1051 C239 2.986 . S
C173 C1143 2.170 . S
C1215 C187 1.127 . S
C205 C1470 2.793 . S
C1551 C290 2.538 . S
C122 C714 2.500 . S
C788 C134 3.408 . S
C883 C148 0.568 . S
C1467 C283 4.552 . S
C270 C1635 2.893 . S
C630 C135 2.654 . S
C463 C109 1.757 . S
C81 C1544 2.923 . S
C471 C68 3.255 . S
C62 C1628 2.344 . S
C95 C636 1.479 . S
C30 C1056 3.083 1_556 S
C795 C17 1.359 . S
C5 C1227 2.975 . S
C43 C956 2.587 . S
C1563 C304 3.195 . S
C153 C468 0.853 . S
C1647 C278 1.734 1_455 S
C127 C620 2.230 . S
C303 C1040 3.066 . S
C798 C146 1.793 . S
C277 C1224 0.372 . S
C975 C120 2.821 . S
C1560 C231 2.458 . S
C723 C200 2.483 1_445 S
C212 C1135 3.656 . S
C872 C172 1.476 . S
C192 C972 3.579 . S
C160 C1644 2.421 1_554 S
C1311 C213 2.782 . S
C1376 C250 1.208 . S
