# Generated by pormake.
# Topology ocu, (6,8)-cn, num edge types: 1
# Building blocks:
#     Node 0, Type 0, BuildingBlock: FUNLAD_clean_sbu_0, # of connection points: 6
#     Node 1, Type 0, BuildingBlock: FUNLAD_clean_sbu_0, # of connection points: 6
#     Node 2, Type 0, BuildingBlock: FUNLAD_clean_sbu_0, # of connection points: 6
#     Node 3, Type 0, BuildingBlock: FUNLAD_clean_sbu_0, # of connection points: 6
#     Node 4, Type 0, BuildingBlock: FUNLAD_clean_sbu_0, # of connection points: 6
#     Node 5, Type 0, BuildingBlock: FUNLAD_clean_sbu_0, # of connection points: 6
#     Node 6, Type 0, BuildingBlock: FUNLAD_clean_sbu_0, # of connection points: 6
#     Node 7, Type 0, BuildingBlock: FUNLAD_clean_sbu_0, # of connection points: 6
#     Node 8, Type 1, BuildingBlock: GIZVER_clean_sbu_0, # of connection points: 8
#     Node 9, Type 1, BuildingBlock: GIZVER_clean_sbu_0, # of connection points: 8
#     Node 10, Type 1, BuildingBlock: GIZVER_clean_sbu_0, # of connection points: 8
#     Node 11, Type 1, BuildingBlock: GIZVER_clean_sbu_0, # of connection points: 8
#     Node 12, Type 1, BuildingBlock: GIZVER_clean_sbu_0, # of connection points: 8
#     Node 13, Type 1, BuildingBlock: GIZVER_clean_sbu_0, # of connection points: 8
#     Edge 14, Type (0, 1), BuildingBlock: EZIPEK_clean_linker_0, # of connection points: 2
#     Edge 15, Type (0, 1), BuildingBlock: EZIPEK_clean_linker_0, # of connection points: 2
#     Edge 16, Type (0, 1), BuildingBlock: EZIPEK_clean_linker_0, # of connection points: 2
#     Edge 17, Type (0, 1), BuildingBlock: EZIPEK_clean_linker_0, # of connection points: 2
#     Edge 18, Type (0, 1), BuildingBlock: EZIPEK_clean_linker_0, # of connection points: 2
#     Edge 19, Type (0, 1), BuildingBlock: EZIPEK_clean_linker_0, # of connection points: 2
#     Edge 20, Type (0, 1), BuildingBlock: EZIPEK_clean_linker_0, # of connection points: 2
#     Edge 21, Type (0, 1), BuildingBlock: EZIPEK_clean_linker_0, # of connection points: 2
#     Edge 22, Type (0, 1), BuildingBlock: EZIPEK_clean_linker_0, # of connection points: 2
#     Edge 23, Type (0, 1), BuildingBlock: EZIPEK_clean_linker_0, # of connection points: 2
#     Edge 24, Type (0, 1), BuildingBlock: EZIPEK_clean_linker_0, # of connection points: 2
#     Edge 25, Type (0, 1), BuildingBlock: EZIPEK_clean_linker_0, # of connection points: 2
#     Edge 26, Type (0, 1), BuildingBlock: EZIPEK_clean_linker_0, # of connection points: 2
#     Edge 27, Type (0, 1), BuildingBlock: EZIPEK_clean_linker_0, # of connection points: 2
#     Edge 28, Type (0, 1), BuildingBlock: EZIPEK_clean_linker_0, # of connection points: 2
#     Edge 29, Type (0, 1), BuildingBlock: EZIPEK_clean_linker_0, # of connection points: 2
#     Edge 30, Type (0, 1), BuildingBlock: EZIPEK_clean_linker_0, # of connection points: 2
#     Edge 31, Type (0, 1), BuildingBlock: EZIPEK_clean_linker_0, # of connection points: 2
#     Edge 32, Type (0, 1), BuildingBlock: EZIPEK_clean_linker_0, # of connection points: 2
#     Edge 33, Type (0, 1), BuildingBlock: EZIPEK_clean_linker_0, # of connection points: 2
#     Edge 34, Type (0, 1), BuildingBlock: EZIPEK_clean_linker_0, # of connection points: 2
#     Edge 35, Type (0, 1), BuildingBlock: EZIPEK_clean_linker_0, # of connection points: 2
#     Edge 36, Type (0, 1), BuildingBlock: EZIPEK_clean_linker_0, # of connection points: 2
#     Edge 37, Type (0, 1), BuildingBlock: EZIPEK_clean_linker_0, # of connection points: 2
#     Edge 38, Type (0, 1), BuildingBlock: EZIPEK_clean_linker_0, # of connection points: 2
#     Edge 39, Type (0, 1), BuildingBlock: EZIPEK_clean_linker_0, # of connection points: 2
#     Edge 40, Type (0, 1), BuildingBlock: EZIPEK_clean_linker_0, # of connection points: 2
#     Edge 41, Type (0, 1), BuildingBlock: EZIPEK_clean_linker_0, # of connection points: 2
#     Edge 42, Type (0, 1), BuildingBlock: EZIPEK_clean_linker_0, # of connection points: 2
#     Edge 43, Type (0, 1), BuildingBlock: EZIPEK_clean_linker_0, # of connection points: 2
#     Edge 44, Type (0, 1), BuildingBlock: EZIPEK_clean_linker_0, # of connection points: 2
#     Edge 45, Type (0, 1), BuildingBlock: EZIPEK_clean_linker_0, # of connection points: 2
#     Edge 46, Type (0, 1), BuildingBlock: EZIPEK_clean_linker_0, # of connection points: 2
#     Edge 47, Type (0, 1), BuildingBlock: EZIPEK_clean_linker_0, # of connection points: 2
#     Edge 48, Type (0, 1), BuildingBlock: EZIPEK_clean_linker_0, # of connection points: 2
#     Edge 49, Type (0, 1), BuildingBlock: EZIPEK_clean_linker_0, # of connection points: 2
#     Edge 50, Type (0, 1), BuildingBlock: EZIPEK_clean_linker_0, # of connection points: 2
#     Edge 51, Type (0, 1), BuildingBlock: EZIPEK_clean_linker_0, # of connection points: 2
#     Edge 52, Type (0, 1), BuildingBlock: EZIPEK_clean_linker_0, # of connection points: 2
#     Edge 53, Type (0, 1), BuildingBlock: EZIPEK_clean_linker_0, # of connection points: 2
#     Edge 54, Type (0, 1), BuildingBlock: EZIPEK_clean_linker_0, # of connection points: 2
#     Edge 55, Type (0, 1), BuildingBlock: EZIPEK_clean_linker_0, # of connection points: 2
#     Edge 56, Type (0, 1), BuildingBlock: EZIPEK_clean_linker_0, # of connection points: 2
#     Edge 57, Type (0, 1), BuildingBlock: EZIPEK_clean_linker_0, # of connection points: 2
#     Edge 58, Type (0, 1), BuildingBlock: EZIPEK_clean_linker_0, # of connection points: 2
#     Edge 59, Type (0, 1), BuildingBlock: EZIPEK_clean_linker_0, # of connection points: 2
#     Edge 60, Type (0, 1), BuildingBlock: EZIPEK_clean_linker_0, # of connection points: 2
#     Edge 61, Type (0, 1), BuildingBlock: EZIPEK_clean_linker_0, # of connection points: 2
# Relax obj value: 0.256
# Max RMSD: 0.297
# Mean RMSD: 0.224
data_MOF--net-ocu--node1-FUNLAD_clean_sbu_0--node2-GIZVER_clean_sbu_0--edge1-EZIPEK_clean_linker_0
_symmetry_space_group_name_H-M    P1
_symmetry_Int_Tables_number       1
_symmetry_cell_setting            triclinic
loop_
_symmetry_equiv_pos_as_xyz
'x, y, z'
_cell_length_a     32.030886
_cell_length_b     33.103791
_cell_length_c     24.980759
_cell_angle_alpha  81.872711
_cell_angle_beta   83.482978
_cell_angle_gamma 95.111504
loop_
_atom_site_label
_atom_site_type_symbol
_atom_site_fract_x
_atom_site_fract_y
_atom_site_fract_z
_atom_type_partial_charge
C0 C 0.22175 0.31662 0.32014 0.0
N1 N 0.19253 0.20716 0.25634 0.0
C2 C 0.16346 0.19618 0.30103 0.0
C3 C 0.13234 0.16405 0.30208 0.0
C4 C 0.13263 0.14218 0.25767 0.0
C5 C 0.16078 0.1559 0.21065 0.0
C6 C 0.1902 0.18944 0.21045 0.0
Zn7 Zn 0.24096 0.25 0.25614 0.0
C8 C 0.23199 0.31832 0.16906 0.0
N9 N 0.34201 0.33978 0.24178 0.0
C10 C 0.35243 0.34903 0.2904 0.0
C11 C 0.36294 0.35912 0.19346 0.0
C12 C 0.39601 0.38933 0.19292 0.0
C13 C 0.40695 0.39956 0.24252 0.0
C14 C 0.38489 0.37946 0.29172 0.0
Zn15 Zn 0.29367 0.29703 0.24387 0.0
O16 O 0.20305 0.28463 0.30694 0.0
C17 C 0.30011 0.22745 0.33206 0.0
O18 O 0.26072 0.32572 0.30372 0.0
H19 H 0.35382 0.35117 0.15556 0.0
H20 H 0.16551 0.21112 0.33657 0.0
H21 H 0.33534 0.333 0.32834 0.0
O22 O 0.26203 0.21705 0.32561 0.0
O23 O 0.32012 0.25932 0.30315 0.0
H24 H 0.21234 0.20004 0.17424 0.0
O25 O 0.32842 0.26842 0.18328 0.0
O26 O 0.27929 0.21673 0.20754 0.0
O27 O 0.26521 0.33488 0.18411 0.0
O28 O 0.21975 0.28112 0.18736 0.0
C29 C 0.31443 0.23168 0.18063 0.0
H30 H 0.11061 0.154 0.33906 0.0
H31 H 0.16156 0.13956 0.17598 0.0
H32 H 0.41278 0.40481 0.1543 0.0
H33 H 0.39279 0.38713 0.33036 0.0
C34 C 0.72496 0.32967 0.20672 0.0
N35 N 0.75707 0.22316 0.15766 0.0
C36 C 0.71572 0.22865 0.15296 0.0
C37 C 0.69096 0.20401 0.12595 0.0
C38 C 0.70762 0.17211 0.10309 0.0
C39 C 0.75059 0.16677 0.10628 0.0
C40 C 0.7749 0.19268 0.13455 0.0
Zn41 Zn 0.77779 0.2581 0.21668 0.0
C42 C 0.84554 0.3249 0.19174 0.0
N43 N 0.78462 0.32893 0.34614 0.0
C44 C 0.77542 0.36847 0.3339 0.0
C45 C 0.81587 0.32043 0.37761 0.0
C46 C 0.84298 0.3522 0.39024 0.0
C47 C 0.83691 0.39295 0.37196 0.0
C48 C 0.80133 0.40104 0.34645 0.0
Zn49 Zn 0.77184 0.28977 0.28999 0.0
O50 O 0.74496 0.30589 0.18072 0.0
C51 C 0.70366 0.22437 0.31428 0.0
O52 O 0.72753 0.32859 0.25709 0.0
H53 H 0.82252 0.28931 0.38937 0.0
H54 H 0.69966 0.25012 0.17394 0.0
H55 H 0.75047 0.3759 0.31004 0.0
O56 O 0.72088 0.22566 0.26559 0.0
O57 O 0.7193 0.25024 0.34202 0.0
H58 H 0.80704 0.18715 0.13996 0.0
O59 O 0.81407 0.24817 0.3214 0.0
O60 O 0.81411 0.211 0.25514 0.0
O61 O 0.82463 0.3285 0.23716 0.0
O62 O 0.83529 0.29349 0.16923 0.0
C63 C 0.8254 0.21711 0.30119 0.0
H64 H 0.65802 0.20894 0.12489 0.0
H65 H 0.76461 0.14222 0.08889 0.0
H66 H 0.86941 0.34509 0.41206 0.0
H67 H 0.79511 0.43233 0.33349 0.0
C68 C 0.78754 0.72031 0.32362 0.0
N69 N 0.84584 0.83754 0.27318 0.0
C70 C 0.84568 0.82967 0.32817 0.0
C71 C 0.87675 0.84812 0.35292 0.0
C72 C 0.90833 0.87577 0.32136 0.0
C73 C 0.9089 0.88375 0.26453 0.0
C74 C 0.87681 0.86377 0.24083 0.0
Zn75 Zn 0.79637 0.80513 0.24955 0.0
C76 C 0.82053 0.7517 0.17481 0.0
N77 N 0.69121 0.72893 0.22248 0.0
C78 C 0.6582 0.70296 0.25104 0.0
C79 C 0.6971 0.73457 0.16687 0.0
C80 C 0.67033 0.71399 0.13783 0.0
C81 C 0.6369 0.68659 0.1656 0.0
C82 C 0.63023 0.68112 0.22298 0.0
Zn83 Zn 0.73909 0.76286 0.25035 0.0
O84 O 0.80996 0.75361 0.30352 0.0
C85 C 0.71868 0.81774 0.32842 0.0
O86 O 0.75041 0.71383 0.31084 0.0
H87 H 0.72338 0.7547 0.14408 0.0
H88 H 0.82098 0.80927 0.35379 0.0
H89 H 0.65403 0.69864 0.29514 0.0
O90 O 0.75795 0.82506 0.31333 0.0
O91 O 0.69813 0.78937 0.30898 0.0
H92 H 0.87633 0.86946 0.1972 0.0
O93 O 0.72697 0.81231 0.19156 0.0
O94 O 0.78091 0.85705 0.19338 0.0
O95 O 0.78273 0.73766 0.19386 0.0
O96 O 0.836 0.78514 0.18758 0.0
C97 C 0.7458 0.84802 0.17611 0.0
H98 H 0.8754 0.84178 0.39693 0.0
H99 H 0.93304 0.90551 0.23946 0.0
H100 H 0.67644 0.71864 0.09367 0.0
H101 H 0.60457 0.6597 0.24544 0.0
C102 C 0.22281 0.83274 0.29363 0.0
N103 N 0.33224 0.79609 0.3395 0.0
C104 C 0.33187 0.83772 0.33563 0.0
C105 C 0.35371 0.8605 0.36737 0.0
C106 C 0.37776 0.84155 0.40419 0.0
C107 C 0.37867 0.79861 0.40896 0.0
C108 C 0.35524 0.77612 0.37579 0.0
Zn109 Zn 0.2951 0.77777 0.28032 0.0
C110 C 0.22149 0.71439 0.31076 0.0
N111 N 0.21254 0.77379 0.15755 0.0
C112 C 0.17106 0.77181 0.17886 0.0
C113 C 0.22397 0.75279 0.1159 0.0
C114 C 0.19415 0.72514 0.09904 0.0
C115 C 0.1524 0.71945 0.12509 0.0
C116 C 0.14049 0.74459 0.16337 0.0
Zn117 Zn 0.25471 0.7854 0.21258 0.0
O118 O 0.25178 0.81462 0.31346 0.0
C119 C 0.33054 0.84675 0.17999 0.0
O120 O 0.21606 0.82884 0.24542 0.0
H121 H 0.25682 0.75416 0.09939 0.0
H122 H 0.31501 0.85483 0.30683 0.0
H123 H 0.16199 0.78721 0.21293 0.0
O124 O 0.33394 0.82794 0.22684 0.0
O125 O 0.29743 0.83666 0.15828 0.0
H126 H 0.35595 0.74329 0.37867 0.0
O127 O 0.29369 0.74239 0.18277 0.0
O128 O 0.33701 0.73909 0.24534 0.0
O129 O 0.21559 0.73475 0.26559 0.0
O130 O 0.25519 0.72477 0.33123 0.0
C131 C 0.32637 0.72919 0.20067 0.0
H132 H 0.35234 0.89344 0.3623 0.0
H133 H 0.39731 0.78297 0.43726 0.0
H134 H 0.20413 0.70652 0.06858 0.0
H135 H 0.1084 0.74118 0.18381 0.0
C136 C 0.23061 0.82776 0.70722 0.0
N137 N 0.26215 0.71948 0.65605 0.0
C138 C 0.22057 0.72147 0.64973 0.0
C139 C 0.19907 0.69364 0.62365 0.0
C140 C 0.21983 0.66259 0.60389 0.0
C141 C 0.26326 0.66171 0.60777 0.0
C142 C 0.28401 0.69069 0.63471 0.0
Zn143 Zn 0.28002 0.7533 0.71497 0.0
C144 C 0.34872 0.81854 0.69076 0.0
N145 N 0.29306 0.81922 0.84561 0.0
C146 C 0.27342 0.85165 0.8604 0.0
C147 C 0.33392 0.81544 0.85401 0.0
C148 C 0.35735 0.84558 0.87401 0.0
C149 C 0.33904 0.88026 0.88672 0.0
C150 C 0.29596 0.88263 0.88217 0.0
Zn151 Zn 0.27526 0.78506 0.78765 0.0
O152 O 0.24327 0.7985 0.68476 0.0
C153 C 0.20606 0.72211 0.81382 0.0
O154 O 0.23964 0.83191 0.75446 0.0
H155 H 0.35064 0.79144 0.83976 0.0
H156 H 0.20218 0.74229 0.66892 0.0
H157 H 0.2414 0.85498 0.85212 0.0
O158 O 0.22537 0.71713 0.76798 0.0
O159 O 0.21906 0.75273 0.83561 0.0
H160 H 0.31656 0.68851 0.64144 0.0
O161 O 0.30853 0.73669 0.82014 0.0
O162 O 0.31922 0.70867 0.74584 0.0
O163 O 0.33157 0.81721 0.73939 0.0
O164 O 0.3341 0.79157 0.66372 0.0
C165 C 0.3243 0.70965 0.79544 0.0
H166 H 0.16554 0.69494 0.62183 0.0
H167 H 0.2801 0.63776 0.59286 0.0
H168 H 0.39042 0.84256 0.87745 0.0
H169 H 0.28058 0.90866 0.89311 0.0
C170 C 0.29925 0.21858 0.83906 0.0
N171 N 0.35047 0.33233 0.75672 0.0
C172 C 0.38455 0.31382 0.77175 0.0
C173 C 0.40879 0.32978 0.80832 0.0
C174 C 0.39878 0.3659 0.82758 0.0
C175 C 0.36715 0.38728 0.80596 0.0
C176 C 0.34309 0.36976 0.77016 0.0
Zn177 Zn 0.29977 0.29347 0.74629 0.0
C178 C 0.32043 0.22731 0.68712 0.0
N179 N 0.19433 0.20807 0.74891 0.0
C180 C 0.15816 0.19011 0.78074 0.0
C181 C 0.19951 0.20678 0.69419 0.0
C182 C 0.16872 0.18802 0.66934 0.0
C183 C 0.13152 0.16937 0.70027 0.0
C184 C 0.12594 0.16986 0.75693 0.0
Zn185 Zn 0.2441 0.24663 0.76536 0.0
O186 O 0.31784 0.2511 0.80986 0.0
C187 C 0.22527 0.31142 0.82685 0.0
O188 O 0.26132 0.20684 0.83271 0.0
H189 H 0.22694 0.22219 0.6679 0.0
H190 H 0.38997 0.28417 0.7607 0.0
H191 H 0.1539 0.19215 0.82382 0.0
O192 O 0.26302 0.3218 0.80458 0.0
O193 O 0.20595 0.27784 0.8187 0.0
H194 H 0.31577 0.38391 0.75805 0.0
O195 O 0.22657 0.28767 0.69958 0.0
O196 O 0.2793 0.336 0.68241 0.0
O197 O 0.28474 0.2152 0.71457 0.0
O198 O 0.3371 0.26355 0.6883 0.0
C199 C 0.24262 0.32216 0.67372 0.0
H200 H 0.43388 0.31325 0.82329 0.0
H201 H 0.35957 0.41586 0.81915 0.0
H202 H 0.17402 0.18811 0.62564 0.0
H203 H 0.09729 0.1552 0.78191 0.0
C204 C 0.71124 0.33255 0.76808 0.0
N205 N 0.8201 0.29973 0.83447 0.0
C206 C 0.82101 0.34102 0.83335 0.0
C207 C 0.84979 0.36209 0.85916 0.0
C208 C 0.8781 0.34077 0.88744 0.0
C209 C 0.87547 0.29777 0.89148 0.0
C210 C 0.8461 0.27761 0.86371 0.0
Zn211 Zn 0.78788 0.28109 0.77443 0.0
C212 C 0.71922 0.21665 0.80273 0.0
N213 N 0.72311 0.25892 0.64067 0.0
C214 C 0.69379 0.27469 0.61026 0.0
C215 C 0.72847 0.21809 0.64406 0.0
C216 C 0.7053 0.19205 0.61735 0.0
C217 C 0.67436 0.20667 0.58759 0.0
C218 C 0.66876 0.24878 0.58297 0.0
Zn219 Zn 0.75498 0.28408 0.69989 0.0
O220 O 0.74028 0.31922 0.79416 0.0
C221 C 0.82449 0.34904 0.67254 0.0
O222 O 0.70764 0.32262 0.7212 0.0
H223 H 0.74817 0.2036 0.67143 0.0
H224 H 0.80216 0.35873 0.80812 0.0
H225 H 0.68818 0.3065 0.60942 0.0
O226 O 0.82619 0.33193 0.721 0.0
O227 O 0.7944 0.33581 0.64752 0.0
H228 H 0.84583 0.245 0.86291 0.0
O229 O 0.80277 0.24909 0.67992 0.0
O230 O 0.8345 0.24198 0.75306 0.0
O231 O 0.71821 0.23333 0.75393 0.0
O232 O 0.74874 0.23026 0.82786 0.0
C233 C 0.83113 0.23439 0.70521 0.0
H234 H 0.85114 0.39525 0.85509 0.0
H235 H 0.89713 0.28054 0.91331 0.0
H236 H 0.70996 0.15974 0.62263 0.0
H237 H 0.64456 0.26096 0.56042 0.0
C238 C 0.69901 0.79386 0.82313 0.0
N239 N 0.68763 0.68764 0.75037 0.0
C240 C 0.65923 0.67331 0.79494 0.0
C241 C 0.6256 0.64495 0.79107 0.0
C242 C 0.62181 0.63093 0.74114 0.0
C243 C 0.65144 0.64587 0.69585 0.0
C244 C 0.68433 0.67476 0.70133 0.0
Zn245 Zn 0.73035 0.73492 0.75248 0.0
C246 C 0.71459 0.80211 0.6687 0.0
N247 N 0.81755 0.83828 0.74315 0.0
C248 C 0.83109 0.84931 0.78932 0.0
C249 C 0.82999 0.86132 0.69352 0.0
C250 C 0.85888 0.8958 0.68842 0.0
C251 C 0.87622 0.90571 0.7345 0.0
C252 C 0.86104 0.88324 0.78588 0.0
Zn253 Zn 0.77665 0.78798 0.74589 0.0
O254 O 0.68629 0.76124 0.80579 0.0
C255 C 0.79258 0.71764 0.82797 0.0
O256 O 0.73659 0.81016 0.80745 0.0
H257 H 0.81892 0.852 0.65738 0.0
H258 H 0.66239 0.68428 0.8332 0.0
H259 H 0.82005 0.83076 0.82842 0.0
O260 O 0.7559 0.70375 0.81972 0.0
O261 O 0.80801 0.75326 0.80405 0.0
H262 H 0.70675 0.68748 0.66604 0.0
O263 O 0.81803 0.76573 0.68438 0.0
O264 O 0.77482 0.7091 0.70095 0.0
O265 O 0.7448 0.82094 0.68689 0.0
O266 O 0.70458 0.7644 0.68571 0.0
C267 C 0.80967 0.7285 0.67808 0.0
H268 H 0.60337 0.63305 0.82707 0.0
H269 H 0.64948 0.63489 0.65727 0.0
H270 H 0.8708 0.91217 0.64809 0.0
H271 H 0.87469 0.88975 0.82187 0.0
Co272 Co 0.07742 0.94142 0.48583 0.0
Co273 Co 0.09377 0.97298 0.57132 0.0
Co274 Co 1.0155 1.01394 0.5236 0.0
O275 O 0.07138 0.99264 0.50929 0.0
H276 H 0.09274 1.01318 0.48942 0.0
O277 O 0.96145 0.03955 0.53463 0.0
Co278 Co 0.96153 0.09753 0.54228 0.0
Co279 Co 0.94622 0.05778 0.46637 0.0
H280 H 0.93949 1.0214 0.55823 0.0
O281 O 0.14902 0.96892 0.57034 0.0
O282 O 0.09718 0.91953 0.55908 0.0
O283 O 0.06369 0.97849 0.64227 0.0
O284 O 0.03271 0.02601 0.59627 0.0
O285 O 0.04225 0.05724 0.56152 0.0
O286 O 0.95695 0.14735 0.55559 0.0
O287 O 0.90752 0.09245 0.57314 0.0
O288 O 0.02013 0.1109 0.51514 0.0
O289 O 0.03792 0.05364 0.45595 0.0
O290 O 0.98602 0.05054 0.40615 0.0
O291 O 0.94449 0.1137 0.46627 0.0
O292 O 0.8925 0.06659 0.45198 0.0
C293 C 0.12302 0.9174 0.44084 0.0
C294 C 0.99151 0.9399 0.48296 0.0
C295 C 0.03179 0.99823 0.63874 0.0
C296 C 0.13351 0.9306 0.57562 0.0
C297 C 0.92019 0.13006 0.57861 0.0
C298 C 0.04646 0.09624 0.54492 0.0
C299 C 0.02528 0.05372 0.40937 0.0
C300 C 0.90923 0.10447 0.4462 0.0
O301 O 0.0872 0.89593 0.45996 0.0
O302 O 0.13183 0.95346 0.45479 0.0
O303 O 0.99103 0.97855 0.47658 0.0
O304 O 1.01913 0.9234 0.50915 0.0
Co305 Co 0.56322 0.93407 0.98928 0.0
Co306 Co 0.57558 0.97296 0.05398 0.0
Co307 Co 0.52345 0.02721 0.98494 0.0
O308 O 0.56965 0.99182 0.98361 0.0
H309 H 0.59628 1.00465 0.96385 0.0
O310 O 0.47539 0.06148 0.98669 0.0
Co311 Co 0.46771 0.10374 0.0307 0.0
Co312 Co 0.48431 0.10576 0.93312 0.0
H313 H 0.44894 0.04554 0.98482 0.0
O314 O 0.62539 0.98445 0.08043 0.0
O315 O 0.60639 0.92882 0.04085 0.0
O316 O 0.52082 0.95401 0.10101 0.0
O317 O 0.48341 0.98608 0.04195 0.0
O318 O 0.55004 0.05666 0.03963 0.0
O319 O 0.45706 0.14154 0.07201 0.0
O320 O 0.41057 0.09377 0.04955 0.0
O321 O 0.52804 0.11866 0.02082 0.0
O322 O 0.56526 0.06587 0.92558 0.0
O323 O 0.54029 0.12549 0.90352 0.0
O324 O 0.45624 0.14318 0.96455 0.0
O325 O 0.44353 0.11176 0.89137 0.0
C326 C 0.59305 0.89145 0.94586 0.0
C327 C 0.49272 0.96124 0.92665 0.0
C328 C 0.48517 0.95969 0.08454 0.0
C329 C 0.6325 0.94899 0.06677 0.0
C330 C 0.41834 0.1253 0.07457 0.0
C331 C 0.55643 0.09595 0.03562 0.0
C332 C 0.57058 0.10349 0.90201 0.0
C333 C 0.43305 0.13662 0.92542 0.0
O334 O 0.56313 0.87869 0.98579 0.0
O335 O 0.60296 0.93064 0.9322 0.0
O336 O 0.49687 0.99941 0.93026 0.0
O337 O 0.51891 0.93686 0.94325 0.0
Co338 Co 0.07798 0.44784 0.97706 0.0
Co339 Co 0.07265 0.46592 0.07339 0.0
Co340 Co 0.02132 0.52798 0.00576 0.0
O341 O 0.07299 0.49786 0.00722 0.0
H342 H 0.09884 0.51622 0.99894 0.0
O343 O 0.97006 0.55957 0.00204 0.0
Co344 Co 0.96738 0.61407 0.01975 0.0
Co345 Co 0.97177 0.59176 0.9348 0.0
H346 H 0.94347 0.54279 0.01313 0.0
O347 O 0.12277 0.45997 0.09963 0.0
O348 O 0.08839 0.41935 0.04894 0.0
O349 O 1.01994 0.44742 0.11664 0.0
O350 O 0.98175 0.48613 0.06632 0.0
O351 O 0.0448 0.5619 0.05875 0.0
O352 O 0.96065 0.66374 0.04084 0.0
O353 O 0.91486 0.60748 0.06136 0.0
O354 O 0.99255 0.5979 0.08315 0.0
O355 O 0.06078 0.56872 0.94661 0.0
O356 O 0.02706 0.61653 0.90271 0.0
O357 O 0.94048 0.63293 0.95409 0.0
O358 O 0.92801 0.58928 0.89411 0.0
C359 C 0.12489 0.41804 0.94047 0.0
C360 C 0.9964 0.45469 0.96094 0.0
C361 C 0.98407 0.45704 0.10633 0.0
C362 C 0.11966 0.42718 0.0767 0.0
C363 C 0.92439 0.646 0.06442 0.0
C364 C 0.03045 0.58983 0.08381 0.0
C365 C 0.0612 0.60234 0.9133 0.0
C366 C 0.91875 0.62081 0.91704 0.0
O367 O 0.08571 0.40251 0.94831 0.0
O368 O 0.13489 0.45351 0.9559 0.0
O369 O 0.99993 0.49403 0.95177 0.0
O370 O 1.01903 0.43554 0.9926 0.0
Co371 Co 0.57522 0.43576 0.97616 0.0
Co372 Co 0.59679 0.47593 0.04886 0.0
Co373 Co 0.52125 0.51769 0.00356 0.0
O374 O 0.57431 0.49196 0.98768 0.0
H375 H 0.59647 0.5115 0.96683 0.0
O376 O 0.46831 0.54365 0.02024 0.0
Co377 Co 0.4681 0.60072 0.02685 0.0
Co378 Co 0.44548 0.55638 0.95746 0.0
H379 H 0.44779 0.52589 0.04654 0.0
O380 O 0.65176 0.47215 0.0507 0.0
O381 O 0.60004 0.42091 0.04685 0.0
O382 O 0.56917 0.48987 0.11424 0.0
O383 O 0.50815 0.48789 0.08056 0.0
O384 O 0.55465 0.56129 0.03118 0.0
O385 O 0.46299 0.6521 0.03898 0.0
O386 O 0.41565 0.59604 0.06375 0.0
O387 O 0.52476 0.61263 0.9923 0.0
O388 O 0.53509 0.54767 0.92566 0.0
O389 O 0.47438 0.5406 0.89303 0.0
O390 O 0.44604 0.61268 0.95425 0.0
O391 O 0.39076 0.56453 0.95361 0.0
C392 C 0.61422 0.40586 0.92895 0.0
C393 C 0.48904 0.43541 0.9863 0.0
C394 C 0.52952 0.48936 0.12073 0.0
C395 C 0.63637 0.43365 0.06195 0.0
C396 C 0.42732 0.63452 0.06581 0.0
C397 C 0.55445 0.59964 0.0175 0.0
C398 C 0.51425 0.54402 0.88539 0.0
C399 C 0.40879 0.60205 0.94047 0.0
O400 O 0.58103 0.3856 0.95912 0.0
O401 O 0.62596 0.44329 0.9363 0.0
O402 O 0.48731 0.47385 0.97601 0.0
O403 O 0.51865 0.42183 0.01162 0.0
Co404 Co 0.10507 0.47045 0.51493 0.0
Co405 Co 0.08488 0.48194 0.41774 0.0
Co406 Co 0.0226 0.52853 0.48899 0.0
O407 O 0.05269 0.47783 0.48565 0.0
H408 H 0.03335 0.45301 0.49287 0.0
O409 O 0.9907 0.57824 0.49394 0.0
Co410 Co 0.93202 0.57662 0.48308 0.0
Co411 Co 0.96772 0.5781 0.56619 0.0
H412 H 1.00708 0.60391 0.47807 0.0
O413 O 0.08828 0.43526 0.38778 0.0
O414 O 0.13286 0.46249 0.44107 0.0
O415 O 0.10508 0.53529 0.37643 0.0
O416 O 0.0672 0.56784 0.43346 0.0
O417 O 0.98924 0.50982 0.43233 0.0
O418 O 0.8778 0.57999 0.4677 0.0
O419 O 0.93162 0.62895 0.44552 0.0
O420 O 0.9461 0.55772 0.41571 0.0
O421 O 0.97727 0.49074 0.54335 0.0
O422 O 0.95253 0.5236 0.6101 0.0
O423 O 0.91491 0.59552 0.55443 0.0
O424 O 0.96456 0.62682 0.59513 0.0
C425 C 0.13621 0.42344 0.55004 0.0
C426 C 0.09858 0.54871 0.53538 0.0
C427 C 0.09718 0.56818 0.39409 0.0
C428 C 0.12238 0.43438 0.4113 0.0
C429 C 0.89219 0.6166 0.44395 0.0
C430 C 0.95846 0.52308 0.40958 0.0
C431 C 0.95303 0.49122 0.58808 0.0
C432 C 0.92566 0.62237 0.58515 0.0
O433 O 0.15258 0.46131 0.54306 0.0
O434 O 0.09929 0.41481 0.534 0.0
O435 O 0.05802 0.54529 0.54549 0.0
O436 O 0.11736 0.52767 0.50293 0.0
Co437 Co 0.6023 0.97146 0.51924 0.0
Co438 Co 0.59288 0.99371 0.42245 0.0
Co439 Co 0.51906 0.0257 0.49978 0.0
O440 O 0.555 0.98276 0.48225 0.0
H441 H 0.53801 0.95798 0.47864 0.0
O442 O 0.48177 0.06803 0.51761 0.0
Co443 Co 0.4301 0.07312 0.48726 0.0
Co444 Co 0.44563 0.05473 0.57952 0.0
H445 H 0.49764 0.09422 0.51768 0.0
O446 O 0.59846 0.95266 0.38155 0.0
O447 O 0.63703 0.96883 0.44806 0.0
O448 O 0.60604 0.05032 0.39557 0.0
O449 O 0.54948 0.07254 0.43848 0.0
O450 O 0.47959 1.00506 0.45146 0.0
O451 O 0.38443 0.08238 0.45683 0.0
O452 O 0.43648 0.12848 0.47113 0.0
O453 O 0.41813 1.01429 0.49522 0.0
O454 O 0.49043 0.97825 0.56034 0.0
O455 O 0.43557 0.99762 0.60932 0.0
O456 O 0.39721 0.07676 0.56173 0.0
O457 O 0.44139 0.09453 0.62117 0.0
C458 C 0.62571 0.92008 0.55253 0.0
C459 C 0.59793 0.05504 0.53544 0.0
C460 C 0.58437 0.07947 0.40507 0.0
C461 C 0.62817 0.94518 0.41188 0.0
C462 C 0.40132 0.12017 0.45109 0.0
C463 C 0.44091 0.99217 0.46848 0.0
C464 C 0.45778 0.96957 0.59686 0.0
C465 C 0.40602 0.09795 0.60073 0.0
O466 O 0.64438 0.95619 0.55479 0.0
O467 O 0.59157 0.91667 0.52891 0.0
O468 O 0.55809 0.04676 0.5486 0.0
O469 O 0.61946 0.02899 0.51511 0.0
C470 C 0.12605 0.07408 0.30671 0.0
C471 C 0.11029 0.1007 0.26714 0.0
C472 C 0.04019 0.07065 0.30642 0.0
C473 C 0.05576 0.06231 0.35804 0.0
N474 N 0.12038 0.06516 0.40329 0.0
N475 N 0.05096 0.11887 0.22225 0.0
C476 C 0.10082 0.06455 0.35763 0.0
C477 C 0.06677 0.09654 0.26385 0.0
N478 N 0.16731 0.06681 0.29974 0.0
N479 N 1.00192 0.05341 0.29711 0.0
H480 H 0.07094 0.13738 0.19049 0.0
H481 H 1.0186 0.11986 0.22115 0.0
H482 H 0.98481 0.02877 0.32349 0.0
H483 H 0.99104 0.05889 0.25922 0.0
H484 H 0.18024 0.04705 0.32823 0.0
H485 H 0.18656 0.07777 0.26298 0.0
H486 H 0.15314 0.06672 0.40213 0.0
H487 H 0.10643 0.07363 0.43891 0.0
C488 C 0.89074 0.18186 0.32217 0.0
C489 C 0.84732 0.18656 0.33563 0.0
C490 C 0.84764 0.14373 0.42508 0.0
C491 C 0.88994 0.13615 0.4101 0.0
N492 N 0.95028 0.14368 0.34075 0.0
N493 N 0.78254 0.16526 0.39578 0.0
C494 C 0.9112 0.15423 0.3577 0.0
C495 C 0.82538 0.1657 0.38604 0.0
N496 N 0.91276 0.20459 0.27608 0.0
N497 N 0.82901 0.13095 0.47748 0.0
H498 H 0.76486 0.18016 0.36805 0.0
H499 H 0.76427 0.14658 0.42863 0.0
H500 H 0.84436 0.11501 0.50716 0.0
H501 H 0.80014 0.13963 0.493 0.0
H502 H 0.9455 0.20661 0.26706 0.0
H503 H 0.89842 0.22357 0.24831 0.0
H504 H 0.96532 0.15165 0.30097 0.0
H505 H 0.96669 0.12451 0.36552 0.0
C506 C 0.96891 0.87621 0.3738 0.0
C507 C 0.93714 0.89784 0.35171 0.0
C508 C 0.9325 0.93702 0.42709 0.0
C509 C 0.96637 0.91754 0.44766 0.0
N510 N 1.00264 0.85648 0.45395 0.0
N511 N 0.89436 0.9539 0.35014 0.0
C512 C 0.98115 0.88378 0.42468 0.0
C513 C 0.92103 0.93015 0.376 0.0
N514 N 0.98684 0.84815 0.3459 0.0
N515 N 0.9094 0.95969 0.45873 0.0
H516 H 0.8856 0.94928 0.3123 0.0
H517 H 0.88449 0.98038 0.36337 0.0
H518 H 0.91466 0.96174 0.49881 0.0
H519 H 0.88216 0.97204 0.44811 0.0
H520 H 1.01286 0.83373 0.35687 0.0
H521 H 0.97794 0.84244 0.3085 0.0
H522 H 1.01219 0.82997 0.44058 0.0
H523 H 1.00536 0.85686 0.49501 0.0
C524 C 0.18181 0.83639 0.38408 0.0
C525 C 0.19654 0.85553 0.3296 0.0
C526 C 0.16471 0.91768 0.3487 0.0
C527 C 0.1532 0.89937 0.40403 0.0
N528 N 0.15993 0.8455 0.47708 0.0
N529 N 0.2099 0.91767 0.26394 0.0
C530 C 0.16469 0.86005 0.42246 0.0
C531 C 0.1902 0.89714 0.31285 0.0
N532 N 0.18236 0.79508 0.39891 0.0
N533 N 0.14989 0.95375 0.32968 0.0
H534 H 0.22935 0.90404 0.23697 0.0
H535 H 0.21005 0.94917 0.25234 0.0
H536 H 0.13147 0.96993 0.35449 0.0
H537 H 0.15324 0.96605 0.28848 0.0
H538 H 0.16756 0.779 0.43608 0.0
H539 H 0.19373 0.7759 0.37239 0.0
H540 H 0.17218 0.81901 0.49341 0.0
H541 H 0.14763 0.86214 0.50652 0.0
C542 C 0.2252 0.88124 0.62857 0.0
C543 C 0.20543 0.85593 0.67685 0.0
C544 C 0.13695 0.87795 0.65827 0.0
C545 C 0.15628 0.9003 0.60717 0.0
N546 N 0.2174 0.91633 0.53913 0.0
N547 N 0.14174 0.82438 0.73356 0.0
C548 C 0.20004 0.89991 0.59104 0.0
C549 C 0.16104 0.85251 0.69051 0.0
N550 N 0.26818 0.88866 0.61937 0.0
N551 N 0.09648 0.88285 0.67786 0.0
H552 H 0.15847 0.80641 0.75952 0.0
H553 H 0.1091 0.81688 0.7412 0.0
H554 H 0.07788 0.90164 0.65641 0.0
H555 H 0.08262 0.87112 0.71741 0.0
H556 H 0.28371 0.91177 0.58924 0.0
H557 H 0.28788 0.87477 0.6452 0.0
H558 H 0.24827 0.91316 0.52336 0.0
H559 H 0.19962 0.92947 0.51009 0.0
C560 C 0.11408 0.11127 0.65333 0.0
C561 C 0.10166 0.1478 0.67012 0.0
C562 C 0.06095 0.15882 0.5924 0.0
C563 C 0.07255 0.12123 0.57701 0.0
N564 N 0.12519 0.07365 0.57792 0.0
N565 N 0.06031 0.20474 0.66067 0.0
C566 C 0.10372 0.10104 0.60317 0.0
C567 C 0.07391 0.17101 0.64117 0.0
N568 N 0.13636 0.08662 0.68542 0.0
N569 N 0.04172 0.18463 0.5578 0.0
H570 H 0.0696 0.2138 0.6963 0.0
H571 H 0.03745 0.22157 0.6447 0.0
H572 H 0.03848 0.17964 0.51818 0.0
H573 H 0.03403 0.21341 0.56505 0.0
H574 H 0.14319 0.05764 0.67769 0.0
H575 H 0.14415 0.09359 0.72278 0.0
H576 H 0.15067 0.06027 0.59267 0.0
H577 H 0.12059 0.06829 0.53871 0.0
C578 C 0.86098 0.1671 0.69989 0.0
C579 C 0.8581 0.20824 0.67659 0.0
C580 C 0.88648 0.19353 0.58695 0.0
C581 C 0.89391 0.15415 0.61136 0.0
N582 N 0.8957 0.10591 0.69296 0.0
N583 N 0.8756 0.26277 0.59948 0.0
C584 C 0.8832 0.1415 0.66836 0.0
C585 C 0.87324 0.22208 0.62057 0.0
N586 N 0.84062 0.15154 0.75071 0.0
N587 N 0.89095 0.20329 0.53139 0.0
H588 H 0.86586 0.28497 0.62227 0.0
H589 H 0.89077 0.27506 0.56073 0.0
H590 H 0.90012 0.18275 0.50539 0.0
H591 H 0.88144 0.22999 0.5112 0.0
H592 H 0.83774 0.12042 0.76659 0.0
H593 H 0.82344 0.16877 0.77531 0.0
H594 H 0.89349 0.09815 0.73517 0.0
H595 H 0.91136 0.08583 0.67137 0.0
C596 C 0.9513 0.90967 0.7026 0.0
C597 C 0.91802 0.92966 0.72469 0.0
C598 C 0.96165 0.99565 0.69809 0.0
C599 C 0.99107 0.97602 0.66656 0.0
N600 N 1.00556 0.91502 0.62785 0.0
N601 N 0.88991 0.99154 0.74441 0.0
C602 C 0.98378 0.93311 0.66618 0.0
C603 C 0.92274 0.97275 0.72315 0.0
N604 N 0.95085 0.86801 0.71426 0.0
N605 N 0.97127 0.03535 0.70524 0.0
H606 H 0.8619 0.97495 0.76449 0.0
H607 H 0.88999 1.02325 0.74039 0.0
H608 H 0.99897 0.05305 0.68624 0.0
H609 H 0.95341 0.04935 0.73339 0.0
H610 H 0.9765 0.85264 0.70206 0.0
H611 H 0.92692 0.84954 0.74081 0.0
H612 H 0.99839 0.88462 0.62244 0.0
H613 H 0.02753 0.93197 0.59771 0.0
C614 C 0.32651 0.18821 0.10661 0.0
C615 C 0.34031 0.20406 0.15236 0.0
C616 C 0.39421 0.1559 0.15639 0.0
C617 C 0.38485 0.14438 0.10615 0.0
N618 N 0.33918 0.14605 0.03562 0.0
N619 N 0.38877 0.20476 0.21969 0.0
C620 C 0.34974 0.15909 0.08221 0.0
C621 C 0.37461 0.1884 0.17692 0.0
N622 N 0.29106 0.20107 0.08669 0.0
N623 N 0.42099 0.1344 0.18539 0.0
H624 H 0.37464 0.22768 0.23726 0.0
H625 H 0.41644 0.19784 0.23545 0.0
H626 H 0.43392 0.10897 0.17257 0.0
H627 H 0.42693 0.13871 0.22439 0.0
H628 H 0.27602 0.18774 0.05773 0.0
H629 H 0.27539 0.22458 0.10078 0.0
H630 H 0.31801 0.15936 0.01171 0.0
H631 H 0.35173 0.1215 0.02042 0.0
C632 C 0.92016 0.35919 0.19125 0.0
C633 C 0.88177 0.35784 0.16775 0.0
C634 C 0.9044 0.4287 0.11948 0.0
C635 C 0.94535 0.42775 0.13599 0.0
N636 N 0.9813 0.40067 0.2109 0.0
N637 N 0.84043 0.38994 0.10278 0.0
C638 C 0.95043 0.39511 0.17828 0.0
C639 C 0.87487 0.39227 0.13001 0.0
N640 N 0.92822 0.32555 0.22538 0.0
N641 N 0.8915 0.46554 0.10032 0.0
H642 H 0.819 0.36358 0.10819 0.0
H643 H 0.83526 0.41283 0.07182 0.0
H644 H 0.91028 0.49317 0.09886 0.0
H645 H 0.86058 0.469 0.09277 0.0
H646 H 0.95747 0.32209 0.23886 0.0
H647 H 0.90666 0.29934 0.23637 0.0
H648 H 0.98492 0.37998 0.24508 0.0
H649 H 0.99896 0.42893 0.20927 0.0
C650 C 0.73474 0.90272 0.09682 0.0
C651 C 0.72067 0.87946 0.14903 0.0
C652 C 0.64936 0.90087 0.14415 0.0
C653 C 0.66378 0.92602 0.09395 0.0
N654 N 0.7208 0.95565 0.02451 0.0
N655 N 0.66768 0.86743 0.22792 0.0
C656 C 0.70682 0.92858 0.07091 0.0
C657 C 0.67883 0.88175 0.17403 0.0
N658 N 0.77379 0.89874 0.07119 0.0
N659 N 0.60715 0.89459 0.16347 0.0
H660 H 0.68933 0.8556 0.25135 0.0
H661 H 0.63957 0.87228 0.25031 0.0
H662 H 0.5841 0.90948 0.14467 0.0
H663 H 0.59448 0.87196 0.19603 0.0
H664 H 0.78446 0.9115 0.03092 0.0
H665 H 0.79473 0.88049 0.08949 0.0
H666 H 0.75246 0.96191 0.00812 0.0
H667 H 0.70072 0.9739 0.00433 0.0
C668 C 0.09668 0.69342 0.07174 0.0
C669 C 0.12146 0.68592 0.11474 0.0
C670 C 0.08401 0.61622 0.14137 0.0
C671 C 0.06162 0.62271 0.09563 0.0
N672 N 0.05269 0.66486 0.01119 0.0
N673 N 0.14181 0.63979 0.18863 0.0
C674 C 0.06936 0.66074 0.05942 0.0
C675 C 0.11598 0.64714 0.14912 0.0
N676 N 0.09869 0.7321 0.04312 0.0
N677 N 0.07383 0.581 0.17806 0.0
H678 H 0.16471 0.66196 0.19629 0.0
H679 H 0.1425 0.6112 0.21176 0.0
H680 H 0.05107 0.55777 0.17287 0.0
H681 H 0.08563 0.5758 0.21528 0.0
H682 H 0.07756 0.7408 0.01598 0.0
H683 H 0.11941 0.75657 0.04959 0.0
H684 H 0.06116 0.68976 0.98022 0.0
H685 H 0.03375 0.64141 0.99937 0.0
C686 C 0.38688 0.9462 0.86977 0.0
C687 C 0.36694 0.91166 0.90644 0.0
C688 C 0.42679 0.91142 0.95839 0.0
C689 C 0.44983 0.94329 0.91811 0.0
N690 N 0.45173 0.99048 0.83452 0.0
N691 N 0.35916 0.87285 0.9955 0.0
C692 C 0.42942 0.96126 0.87412 0.0
C693 C 0.38423 0.89831 0.95409 0.0
N694 N 0.36451 0.96484 0.83179 0.0
N695 N 0.44548 0.89194 0.99976 0.0
H696 H 0.32763 0.86338 0.99247 0.0
H697 H 0.36791 0.8647 0.03414 0.0
H698 H 0.47381 0.90253 0.01175 0.0
H699 H 0.43307 0.86344 0.02167 0.0
H700 H 0.37509 0.99249 0.8066 0.0
H701 H 0.33341 0.95408 0.82877 0.0
H702 H 0.43997 1.00297 0.79944 0.0
H703 H 0.48357 1.0003 0.83453 0.0
C704 C 0.20178 0.38178 0.8343 0.0
C705 C 0.20355 0.34032 0.85854 0.0
C706 C 0.15876 0.35207 0.94012 0.0
C707 C 0.15701 0.39355 0.91606 0.0
N708 N 0.18408 0.45016 0.84518 0.0
N709 N 0.19386 0.29003 0.93969 0.0
C710 C 0.18122 0.4092 0.86503 0.0
C711 C 0.18497 0.32665 0.913 0.0
N712 N 0.21735 0.39452 0.78067 0.0
N713 N 0.13473 0.33654 0.98865 0.0
H714 H 0.21353 0.27101 0.92143 0.0
H715 H 0.18531 0.28035 0.98131 0.0
H716 H 0.11734 0.3544 0.01196 0.0
H717 H 0.1302 0.30544 0.00457 0.0
H718 H 0.21178 0.42222 0.75868 0.0
H719 H 0.23289 0.37625 0.75611 0.0
H720 H 0.20555 0.46431 0.81196 0.0
H721 H 0.16749 0.47096 0.86418 0.0
C722 C 0.64217 0.18851 0.81345 0.0
C723 C 0.68315 0.18456 0.82916 0.0
C724 C 0.65244 0.12111 0.89144 0.0
C725 C 0.61248 0.12414 0.87139 0.0
N726 N 0.57764 0.1522 0.79617 0.0
N727 N 0.72857 0.14 0.87403 0.0
C728 C 0.6104 0.15486 0.82646 0.0
C729 C 0.68878 0.14868 0.86546 0.0
N730 N 0.63212 0.22538 0.78944 0.0
N731 N 0.65588 0.09352 0.93632 0.0
H732 H 0.75567 0.15845 0.85481 0.0
H733 H 0.73475 0.11241 0.89579 0.0
H734 H 0.63098 0.07271 0.95651 0.0
H735 H 0.68277 0.09356 0.9562 0.0
H736 H 0.60167 0.23013 0.78081 0.0
H737 H 0.65232 0.25229 0.78582 0.0
H738 H 0.57615 0.17287 0.761 0.0
H739 H 0.55498 0.12671 0.80267 0.0
C740 C 0.85131 0.70927 0.88609 0.0
C741 C 0.8202 0.69093 0.85828 0.0
C742 C 0.84765 0.62486 0.88279 0.0
C743 C 0.88422 0.64503 0.89866 0.0
N744 N 0.92418 0.71052 0.9015 0.0
N745 N 0.79763 0.63082 0.8182 0.0
C746 C 0.88703 0.68843 0.89685 0.0
C747 C 0.82044 0.64849 0.85344 0.0
N748 N 0.84682 0.74639 0.90263 0.0
N749 N 0.83793 0.58342 0.89662 0.0
H750 H 0.78055 0.64684 0.7909 0.0
H751 H 0.80032 0.60079 0.81111 0.0
H752 H 0.85493 0.56522 0.9219 0.0
H753 H 0.80978 0.56829 0.88884 0.0
H754 H 0.86736 0.75933 0.92664 0.0
H755 H 0.81985 0.76144 0.89819 0.0
H756 H 0.92768 0.74251 0.89649 0.0
H757 H 0.95273 0.69784 0.90262 0.0
C758 C 0.21877 0.37355 0.09405 0.0
C759 C 0.20288 0.34334 0.1396 0.0
C760 C 0.13084 0.36076 0.12991 0.0
C761 C 0.14766 0.39548 0.09151 0.0
N762 N 0.20824 0.43751 0.03945 0.0
N763 N 0.14324 0.31547 0.20852 0.0
C764 C 0.19184 0.4026 0.07404 0.0
C765 C 0.1587 0.33836 0.15917 0.0
N766 N 0.25906 0.37388 0.06912 0.0
N767 N 0.08816 0.34984 0.1405 0.0
H768 H 0.16167 0.30056 0.23469 0.0
H769 H 0.11237 0.31534 0.22701 0.0
H770 H 0.06583 0.36668 0.12319 0.0
H771 H 0.07505 0.32179 0.16317 0.0
H772 H 0.27102 0.39283 0.03268 0.0
H773 H 0.2791 0.35227 0.08182 0.0
H774 H 0.24056 0.44644 0.02999 0.0
H775 H 0.18946 0.45906 0.02316 0.0
C776 C 0.13622 0.68024 0.81067 0.0
C777 C 0.16932 0.69128 0.841 0.0
C778 C 0.13439 0.6402 0.9192 0.0
C779 C 0.10235 0.6278 0.88745 0.0
N780 N 0.08132 0.62846 0.79783 0.0
N781 N 0.20322 0.67687 0.92201 0.0
C782 C 0.10599 0.64562 0.83164 0.0
C783 C 0.16925 0.66991 0.89471 0.0
N784 N 0.1321 0.70428 0.76279 0.0
N785 N 0.13117 0.62488 0.97336 0.0
H786 H 0.22891 0.69852 0.90658 0.0
H787 H 0.20799 0.65881 0.95798 0.0
H788 H 0.10845 0.6016 0.99285 0.0
H789 H 0.14952 0.637 1.00031 0.0
H790 H 0.10635 0.7002 0.74136 0.0
H791 H 0.15181 0.73121 0.74778 0.0
H792 H 0.0853 0.63739 0.75571 0.0
H793 H 0.06028 0.60209 0.81109 0.0
C794 C 0.35364 0.21638 0.90371 0.0
C795 C 0.32493 0.19441 0.87586 0.0
C796 C 0.35881 0.13254 0.9027 0.0
C797 C 0.39354 0.15666 0.91746 0.0
N798 N 0.42473 0.22409 0.92752 0.0
N799 N 0.30473 0.13072 0.84324 0.0
C800 C 0.39099 0.19925 0.9177 0.0
C801 C 0.32818 0.15205 0.87448 0.0
N802 N 0.34517 0.25376 0.91669 0.0
N803 N 0.3547 0.0908 0.91635 0.0
H804 H 0.28255 0.14322 0.82037 0.0
H805 H 0.31023 0.10122 0.83621 0.0
H806 H 0.37517 0.07552 0.93975 0.0
H807 H 0.32818 0.07215 0.91033 0.0
H808 H 0.36299 0.26948 0.94113 0.0
H809 H 0.31755 0.26654 0.9082 0.0
H810 H 0.42569 0.25598 0.92217 0.0
H811 H 0.45319 0.21349 0.93624 0.0
C812 C 0.95241 0.37433 0.88157 0.0
C813 C 0.91074 0.36552 0.91001 0.0
C814 C 0.92289 0.4235 0.95857 0.0
C815 C 0.9657 0.42978 0.93549 0.0
N816 N 0.02185 0.41273 0.87309 0.0
N817 N 0.85768 0.38164 0.97912 0.0
C818 C 0.98071 0.40543 0.89648 0.0
C819 C 0.89683 0.38953 0.94982 0.0
N820 N 0.96399 0.35485 0.8383 0.0
N821 N 0.90535 0.45013 0.98863 0.0
H822 H 0.83627 0.35642 0.97688 0.0
H823 H 0.83627 0.35642 0.97688 0.0
H824 H 0.92144 0.47769 0.99414 0.0
H825 H 0.92144 0.47769 0.99414 0.0
H826 H 0.99199 0.363 0.81197 0.0
H827 H 0.94446 0.33169 0.82653 0.0
H828 H 0.03675 0.39318 0.8498 0.0
H829 H 0.0415 0.43839 0.87831 0.0
C830 C 0.65149 0.85002 0.82804 0.0
C831 C 0.66895 0.81604 0.85508 0.0
C832 C 0.63551 0.83011 0.94315 0.0
C833 C 0.6158 0.86245 0.91548 0.0
N834 N 0.59569 0.89466 0.83085 0.0
N835 N 0.67112 0.76871 0.93707 0.0
C836 C 0.62102 0.86982 0.85767 0.0
C837 C 0.6586 0.80429 0.91225 0.0
N838 N 0.66475 0.86428 0.77421 0.0
N839 N 0.63466 0.8256 0.99852 0.0
H840 H 0.68916 0.74992 0.91586 0.0
H841 H 0.66075 0.75622 0.97757 0.0
H842 H 0.61947 0.84447 0.02267 0.0
H843 H 0.65221 0.80547 0.02013 0.0
H844 H 0.65655 0.89163 0.75406 0.0
H845 H 0.68668 0.85059 0.75069 0.0
H846 H 0.5952 0.8979 0.78883 0.0
H847 H 0.57174 0.90834 0.85112 0.0
C848 C 0.83678 0.7128 0.09661 0.0
C849 C 0.84782 0.72553 0.14556 0.0
C850 C 0.90822 0.68459 0.14221 0.0
C851 C 0.89561 0.66986 0.09522 0.0
N852 N 0.84435 0.66455 0.03227 0.0
N853 N 0.88908 0.71693 0.221 0.0
C854 C 0.85863 0.68218 0.07397 0.0
C855 C 0.88229 0.70977 0.16993 0.0
N856 N 0.80662 0.73133 0.07053 0.0
N857 N 0.9453 0.67472 0.16036 0.0
H858 H 0.87167 0.73562 0.24286 0.0
H859 H 0.90976 0.70163 0.24384 0.0
H860 H 0.96355 0.65365 0.14434 0.0
H861 H 0.95924 0.68912 0.18937 0.0
H862 H 0.79993 0.72662 0.03194 0.0
H863 H 0.79088 0.75453 0.08535 0.0
H864 H 0.81552 0.66924 0.01823 0.0
H865 H 0.85973 0.6424 0.01449 0.0
C866 C 0.36666 0.91921 0.13904 0.0
C867 C 0.36856 0.87611 0.151 0.0
C868 C 0.44668 0.88804 0.12509 0.0
C869 C 0.44503 0.93133 0.11075 0.0
N870 N 0.40231 0.98792 0.10548 0.0
N871 N 0.41026 0.81922 0.14909 0.0
C872 C 0.40454 0.94667 0.1178 0.0
C873 C 0.40867 0.86077 0.14298 0.0
N874 N 0.32883 0.93415 0.15106 0.0
N875 N 0.4846 0.87202 0.12014 0.0
H876 H 0.38404 0.79807 0.1632 0.0
H877 H 0.43664 0.80521 0.13623 0.0
H878 H 0.51142 0.88639 0.09497 0.0
H879 H 0.48956 0.84372 0.14115 0.0
H880 H 0.32493 0.96512 0.14938 0.0
H881 H 0.30096 0.91508 0.16555 0.0
H882 H 0.37434 1.00112 0.10151 0.0
H883 H 0.42886 1.00945 0.09875 0.0
C884 C 0.65495 0.10999 0.10948 0.0
C885 C 0.67758 0.14559 0.07763 0.0
C886 C 0.62148 0.15024 0.01806 0.0
C887 C 0.59744 0.11491 0.05098 0.0
N888 N 0.58794 0.06795 0.136 0.0
N889 N 0.68931 0.19214 0.99387 0.0
C890 C 0.61371 0.09608 0.09833 0.0
C891 C 0.66283 0.16322 0.02945 0.0
N892 N 0.67319 0.08937 0.15046 0.0
N893 N 0.60456 0.17308 0.97763 0.0
H894 H 0.71978 0.20154 0.00149 0.0
H895 H 0.68324 0.20343 0.95479 0.0
H896 H 0.57495 0.16615 0.96649 0.0
H897 H 0.61856 0.20153 0.95736 0.0
H898 H 0.66104 0.06054 0.17148 0.0
H899 H 0.7029 0.09939 0.15989 0.0
H900 H 0.59619 0.05595 0.17367 0.0
H901 H 0.55616 0.06007 0.13297 0.0
C902 C 0.60239 0.55897 0.7663 0.0
C903 C 0.59071 0.59581 0.74099 0.0
C904 C 0.51921 0.57609 0.78603 0.0
C905 C 0.53647 0.55155 0.82811 0.0
N906 N 0.59643 0.51588 0.85236 0.0
N907 N 0.53563 0.63567 0.71522 0.0
C908 C 0.57835 0.54076 0.81586 0.0
C909 C 0.54785 0.60252 0.74598 0.0
N910 N 0.63914 0.54523 0.74691 0.0
N911 N 0.47679 0.57393 0.78345 0.0
H912 H 0.5571 0.65455 0.68545 0.0
H913 H 0.5053 0.64472 0.72059 0.0
H914 H 0.45534 0.55116 0.8073 0.0
H915 H 0.46384 0.59072 0.7521 0.0
H916 H 0.64856 0.51709 0.7627 0.0
H917 H 0.65757 0.56064 0.7115 0.0
H918 H 0.62828 0.51111 0.84754 0.0
H919 H 0.57967 0.50182 0.88864 0.0
C920 C 0.32313 0.65096 0.86962 0.0
C921 C 0.34678 0.67908 0.82671 0.0
C922 C 0.41218 0.65516 0.8553 0.0
C923 C 0.3885 0.63124 0.90301 0.0
N924 N 0.3217 0.61536 0.96113 0.0
N925 N 0.4142 0.71285 0.78291 0.0
C926 C 0.34398 0.63163 0.91171 0.0
C927 C 0.39148 0.6827 0.82078 0.0
N928 N 0.28073 0.64195 0.86951 0.0
N929 N 0.45362 0.65015 0.84086 0.0
H930 H 0.40008 0.73253 0.75568 0.0
H931 H 0.44669 0.72013 0.78121 0.0
H932 H 0.4698 0.62854 0.862 0.0
H933 H 0.47089 0.66445 0.80422 0.0
H934 H 0.26267 0.6186 0.89712 0.0
H935 H 0.26476 0.65486 0.83824 0.0
H936 H 0.28968 0.61822 0.97083 0.0
H937 H 0.33615 0.60341 0.9944 0.0
C938 C 0.46335 0.40217 0.85296 0.0
C939 C 0.42239 0.38164 0.86942 0.0
C940 C 0.42915 0.38778 0.96543 0.0
C941 C 0.46892 0.41098 0.94834 0.0
N942 N 0.52391 0.44065 0.87664 0.0
N943 N 0.36432 0.35606 0.93969 0.0
C944 C 0.48591 0.418 0.89228 0.0
C945 C 0.40473 0.37455 0.92536 0.0
N946 N 0.48101 0.40594 0.79966 0.0
N947 N 0.41512 0.37839 0.01993 0.0
H948 H 0.34608 0.34529 0.9116 0.0
H949 H 0.34785 0.353 0.97864 0.0
H950 H 0.43269 0.38784 0.04954 0.0
H951 H 0.38786 0.35915 0.03629 0.0
H952 H 0.5127 0.41561 0.78599 0.0
H953 H 0.46449 0.39745 0.76864 0.0
H954 H 0.53568 0.45325 0.83667 0.0
H955 H 0.54402 0.44556 0.90513 0.0
C956 C 0.63891 0.34905 0.80609 0.0
C957 C 0.68318 0.35939 0.79499 0.0
C958 C 0.68197 0.39717 0.87228 0.0
C959 C 0.63749 0.38765 0.88419 0.0
N960 N 0.57234 0.36163 0.85293 0.0
N961 N 0.74196 0.40771 0.80196 0.0
C962 C 0.61547 0.36561 0.84844 0.0
C963 C 0.70293 0.38841 0.82298 0.0
N964 N 0.61914 0.32285 0.77709 0.0
N965 N 0.70487 0.41196 0.90955 0.0
H966 H 0.75691 0.40282 0.76436 0.0
H967 H 0.7568 0.43145 0.8186 0.0
H968 H 0.69138 0.41477 0.94862 0.0
H969 H 0.73781 0.41622 0.90415 0.0
H970 H 0.58854 0.30853 0.78903 0.0
H971 H 0.63373 0.31455 0.74149 0.0
H972 H 0.55534 0.3515 0.82335 0.0
H973 H 0.55294 0.37077 0.88397 0.0
C974 C 0.72166 0.3937 0.14313 0.0
C975 C 0.70005 0.35866 0.17686 0.0
C976 C 0.63444 0.37561 0.14182 0.0
C977 C 0.65799 0.40571 0.09988 0.0
N978 N 0.72745 0.43554 0.05523 0.0
N979 N 0.63611 0.31288 0.20451 0.0
C980 C 0.70262 0.41264 0.09905 0.0
C981 C 0.65651 0.34839 0.17486 0.0
N982 N 0.76001 0.40958 0.15392 0.0
N983 N 0.59161 0.37473 0.15357 0.0
H984 H 0.65087 0.2933 0.23112 0.0
H985 H 0.60547 0.30177 0.19974 0.0
H986 H 0.57407 0.39676 0.13589 0.0
H987 H 0.57417 0.35532 0.18656 0.0
H988 H 0.77502 0.43774 0.13365 0.0
H989 H 0.77434 0.39666 0.18684 0.0
H990 H 0.76038 0.43849 0.05182 0.0
H991 H 0.71573 0.44727 0.01968 0.0
C992 C 0.58251 0.68199 0.10215 0.0
C993 C 0.61219 0.66249 0.13203 0.0
C994 C 0.61459 0.61037 0.07174 0.0
C995 C 0.58138 0.62709 0.0458 0.0
N996 N 0.5513 0.68973 0.01796 0.0
N997 N 0.65408 0.60622 0.14912 0.0
C998 C 0.56993 0.66605 0.05576 0.0
C999 C 0.62748 0.62605 0.11793 0.0
N1000 N 0.5661 0.71557 0.11867 0.0
N1001 N 0.63611 0.58181 0.04902 0.0
H1002 H 0.66455 0.61714 0.18298 0.0
H1003 H 0.66273 0.57721 0.1445 0.0
H1004 H 0.6304 0.5734 0.01157 0.0
H1005 H 0.66286 0.57059 0.06305 0.0
H1006 H 0.54119 0.72878 0.10213 0.0
H1007 H 0.57482 0.7278 0.15258 0.0
H1008 H 0.545 0.71969 0.02098 0.0
H1009 H 0.54806 0.68184 0.9796 0.0
C1010 C 0.36027 0.71669 0.10846 0.0
C1011 C 0.35292 0.70499 0.16644 0.0
C1012 C 0.39892 0.65018 0.15777 0.0
C1013 C 0.40101 0.65822 0.10018 0.0
N1014 N 0.37842 0.69541 0.02054 0.0
N1015 N 0.35866 0.65418 0.24432 0.0
C1016 C 0.37999 0.6903 0.0755 0.0
C1017 C 0.37041 0.66993 0.19063 0.0
N1018 N 0.35087 0.75402 0.08461 0.0
N1019 N 0.42565 0.6252 0.18124 0.0
H1020 H 0.33665 0.66644 0.2696 0.0
H1021 H 0.36739 0.62631 0.26218 0.0
H1022 H 0.44879 0.61243 0.15828 0.0
H1023 H 0.42815 0.62122 0.22285 0.0
H1024 H 0.35987 0.76551 0.04349 0.0
H1025 H 0.33846 0.7758 0.1062 0.0
H1026 H 0.35928 0.71514 0.00117 0.0
H1027 H 0.39342 0.67731 0.99499 0.0
C1028 C 0.43388 0.47229 0.21971 0.0
C1029 C 0.44125 0.43218 0.24104 0.0
C1030 C 0.5166 0.4497 0.21435 0.0
C1031 C 0.50658 0.48214 0.17644 0.0
N1032 N 0.45994 0.53282 0.15382 0.0
N1033 N 0.48983 0.38405 0.26846 0.0
C1034 C 0.46672 0.49702 0.18415 0.0
C1035 C 0.48293 0.42169 0.24309 0.0
N1036 N 0.39491 0.48501 0.23099 0.0
N1037 N 0.55757 0.44558 0.222 0.0
H1038 H 0.46546 0.36346 0.29099 0.0
H1039 H 0.51929 0.37292 0.26555 0.0
H1040 H 0.58219 0.46777 0.20399 0.0
H1041 H 0.56628 0.42325 0.25116 0.0
H1042 H 0.38771 0.51468 0.2187 0.0
H1043 H 0.37074 0.46613 0.25678 0.0
H1044 H 0.43015 0.54266 0.15167 0.0
H1045 H 0.4848 0.5519 0.12958 0.0
C1046 C 0.87841 0.69646 0.67494 0.0
C1047 C 0.8415 0.70516 0.65065 0.0
C1048 C 0.85313 0.65148 0.59332 0.0
C1049 C 0.89286 0.646 0.61278 0.0
N1050 N 0.92901 0.64768 0.69217 0.0
N1051 N 0.79743 0.69584 0.58079 0.0
C1052 C 0.90197 0.66456 0.65889 0.0
C1053 C 0.83014 0.68413 0.60798 0.0
N1054 N 0.89098 0.7183 0.71393 0.0
N1055 N 0.83451 0.62298 0.56645 0.0
H1056 H 0.78037 0.71992 0.59012 0.0
H1057 H 0.79013 0.68472 0.54563 0.0
H1058 H 0.84442 0.59403 0.56574 0.0
H1059 H 0.80473 0.62448 0.55387 0.0
H1060 H 0.92035 0.71708 0.72787 0.0
H1061 H 0.87386 0.74027 0.72942 0.0
H1062 H 0.93425 0.65708 0.72911 0.0
H1063 H 0.94091 0.61989 0.6877 0.0
C1064 C 0.38192 0.89182 0.68991 0.0
C1065 C 0.38198 0.85461 0.66686 0.0
C1066 C 0.44233 0.88955 0.59958 0.0
C1067 C 0.44196 0.92579 0.62502 0.0
N1068 N 0.42627 0.94846 0.71139 0.0
N1069 N 0.42255 0.81574 0.60885 0.0
C1070 C 0.41696 0.92223 0.67601 0.0
C1071 C 0.4153 0.85269 0.62431 0.0
N1072 N 0.34725 0.90069 0.72156 0.0
N1073 N 0.46742 0.88993 0.55167 0.0
H1074 H 0.40542 0.7882 0.62763 0.0
H1075 H 0.44856 0.81179 0.58179 0.0
H1076 H 0.49006 0.914 0.5348 0.0
H1077 H 0.46461 0.86675 0.52769 0.0
H1078 H 0.34616 0.92876 0.7358 0.0
H1079 H 0.31775 0.88377 0.72641 0.0
H1080 H 0.41098 0.94425 0.7511 0.0
H1081 H 0.45274 0.97026 0.70319 0.0
C1082 C 0.1727 0.35046 0.66173 0.0
C1083 C 0.21519 0.34678 0.63959 0.0
C1084 C 0.20347 0.38905 0.55435 0.0
C1085 C 0.16078 0.39148 0.57628 0.0
N1086 N 0.10227 0.36602 0.64592 0.0
N1087 N 0.26723 0.35472 0.5603 0.0
C1088 C 0.14456 0.36911 0.62806 0.0
C1089 C 0.22956 0.36393 0.58456 0.0
N1090 N 0.15963 0.33872 0.71616 0.0
N1091 N 0.21925 0.41107 0.50459 0.0
H1092 H 0.28672 0.33602 0.58081 0.0
H1093 H 0.27749 0.36249 0.51874 0.0
H1094 H 0.20048 0.42701 0.47937 0.0
H1095 H 0.25121 0.41502 0.48931 0.0
H1096 H 0.13133 0.34574 0.73578 0.0
H1097 H 0.17864 0.32591 0.7434 0.0
H1098 H 0.0879 0.34568 0.68005 0.0
H1099 H 0.0806 0.38078 0.62433 0.0
C1100 C 0.61485 0.15112 0.60228 0.0
C1101 C 0.64759 0.17519 0.56586 0.0
C1102 C 0.65032 0.12058 0.50832 0.0
C1103 C 0.61868 0.09516 0.54691 0.0
N1104 N 0.58119 0.08303 0.63831 0.0
N1105 N 0.6917 0.18765 0.48042 0.0
C1106 C 0.60335 0.10981 0.59569 0.0
C1107 C 0.66381 0.1612 0.51761 0.0
N1108 N 0.59496 0.16792 0.64375 0.0
N1109 N 0.66841 0.10588 0.46373 0.0
H1110 H 0.70098 0.21752 0.4865 0.0
H1111 H 0.70308 0.18204 0.44194 0.0
H1112 H 0.66065 0.0769 0.45439 0.0
H1113 H 0.69267 0.12175 0.4355 0.0
H1114 H 0.56767 0.15372 0.66828 0.0
H1115 H 0.60323 0.19804 0.64968 0.0
H1116 H 0.57259 0.09092 0.67664 0.0
H1117 H 0.57617 0.05151 0.63798 0.0
C1118 C 0.89921 0.44588 0.33697 0.0
C1119 C 0.86751 0.42719 0.38014 0.0
C1120 C 0.89278 0.47444 0.43897 0.0
C1121 C 0.92665 0.49118 0.39758 0.0
N1122 N 0.96478 0.49088 0.30906 0.0
N1123 N 0.83616 0.42051 0.47368 0.0
C1124 C 0.93059 0.4764 0.34695 0.0
C1125 C 0.86476 0.44076 0.43138 0.0
N1126 N 0.89884 0.43487 0.2863 0.0
N1127 N 0.88672 0.49114 0.48572 0.0
H1128 H 0.81338 0.39706 0.46935 0.0
H1129 H 0.83662 0.42508 0.51401 0.0
H1130 H 0.90905 0.51173 0.49738 0.0
H1131 H 0.85797 0.48658 0.51088 0.0
H1132 H 0.91738 0.45088 0.25159 0.0
H1133 H 0.87779 0.41129 0.27811 0.0
H1134 H 0.97211 0.47855 0.27351 0.0
H1135 H 0.98744 0.51401 0.3148 0.0
C1136 C 0.6593 0.83829 0.39315 0.0
C1137 C 0.69725 0.84932 0.35668 0.0
C1138 C 0.69547 0.92091 0.37397 0.0
C1139 C 0.65393 0.91122 0.4009 0.0
N1140 N 0.59401 0.86046 0.43235 0.0
N1141 N 0.74389 0.90634 0.30107 0.0
C1142 C 0.63516 0.86978 0.40953 0.0
C1143 C 0.71385 0.89191 0.34463 0.0
N1144 N 0.64685 0.79799 0.41346 0.0
N1145 N 0.71691 0.95857 0.3736 0.0
H1146 H 0.75449 0.88907 0.27189 0.0
H1147 H 0.75355 0.93747 0.28847 0.0
H1148 H 0.70404 0.9818 0.39192 0.0
H1149 H 0.74908 0.96516 0.35958 0.0
H1150 H 0.62145 0.7885 0.4439 0.0
H1151 H 0.66472 0.77444 0.40435 0.0
H1152 H 0.57739 0.83167 0.43416 0.0
H1153 H 0.57557 0.88229 0.44598 0.0
C1154 C 0.14497 0.68089 0.33962 0.0
C1155 C 0.18953 0.67772 0.33621 0.0
C1156 C 0.17291 0.60433 0.37603 0.0
C1157 C 0.12857 0.6064 0.37436 0.0
N1158 N 0.07366 0.64638 0.34612 0.0
N1159 N 0.24455 0.63256 0.33975 0.0
C1160 C 0.11501 0.64472 0.35407 0.0
C1161 C 0.20303 0.63845 0.35166 0.0
N1162 N 0.13085 0.7187 0.33048 0.0
N1163 N 0.18687 0.57007 0.40241 0.0
H1164 H 0.26763 0.65578 0.32049 0.0
H1165 H 0.25538 0.60365 0.34358 0.0
H1166 H 0.16725 0.54367 0.4195 0.0
H1167 H 0.21775 0.56913 0.41154 0.0
H1168 H 0.09927 0.72365 0.33864 0.0
H1169 H 0.15092 0.7458 0.31922 0.0
H1170 H 0.06246 0.67193 0.32542 0.0
H1171 H 0.05111 0.62086 0.35583 0.0
C1172 C 0.33381 0.16254 0.34798 0.0
C1173 C 0.32407 0.19985 0.36583 0.0
C1174 C 0.37104 0.1892 0.43702 0.0
C1175 C 0.38071 0.15199 0.41841 0.0
N1176 N 0.38427 0.1127 0.34418 0.0
N1177 N 0.33638 0.25176 0.42243 0.0
C1178 C 0.3658 0.14147 0.37037 0.0
C1179 C 0.34391 0.21425 0.40871 0.0
N1180 N 0.3129 0.1471 0.30925 0.0
N1181 N 0.38673 0.2001 0.4822 0.0
H1182 H 0.31397 0.26905 0.40582 0.0
H1183 H 0.35304 0.26667 0.44864 0.0
H1184 H 0.40713 0.18329 0.50349 0.0
H1185 H 0.3785 0.22506 0.50049 0.0
H1186 H 0.31532 0.11765 0.29988 0.0
H1187 H 0.29047 0.16192 0.28932 0.0
H1188 H 0.37753 0.10623 0.30628 0.0
H1189 H 0.41013 0.09878 0.35713 0.0
C1190 C 0.7088 0.84805 0.5828 0.0
C1191 C 0.68871 0.82502 0.63235 0.0
C1192 C 0.62265 0.855 0.61843 0.0
C1193 C 0.64517 0.88348 0.57467 0.0
N1194 N 0.70962 0.90708 0.51361 0.0
N1195 N 0.62651 0.80649 0.69922 0.0
C1196 C 0.68814 0.8797 0.55601 0.0
C1197 C 0.64531 0.82762 0.65007 0.0
N1198 N 0.74734 0.83894 0.561 0.0
N1199 N 0.57992 0.85476 0.63096 0.0
H1200 H 0.64129 0.78589 0.72413 0.0
H1201 H 0.59713 0.81167 0.71785 0.0
H1202 H 0.56227 0.87618 0.61206 0.0
H1203 H 0.56115 0.83134 0.65755 0.0
H1204 H 0.76203 0.85174 0.52224 0.0
H1205 H 0.76283 0.81537 0.57966 0.0
H1206 H 0.74217 0.90922 0.50268 0.0
H1207 H 0.69525 0.92929 0.4907 0.0
C1208 C 0.63388 0.19419 0.37698 0.0
C1209 C 0.6685 0.1899 0.33737 0.0
C1210 C 0.63145 0.12339 0.32775 0.0
C1211 C 0.6037 0.12218 0.37649 0.0
N1212 N 0.57842 0.16006 0.44771 0.0
N1213 N 0.70351 0.14148 0.28786 0.0
C1214 C 0.60445 0.15882 0.40099 0.0
C1215 C 0.66806 0.15213 0.31597 0.0
N1216 N 0.62805 0.23194 0.39066 0.0
N1217 N 0.62336 0.09633 0.29285 0.0
H1218 H 0.73325 0.15774 0.28513 0.0
H1219 H 0.70451 0.11305 0.27455 0.0
H1220 H 0.5957 0.07609 0.29909 0.0
H1221 H 0.64149 0.09783 0.25509 0.0
H1222 H 0.60145 0.2376 0.41542 0.0
H1223 H 0.64739 0.25846 0.37266 0.0
H1224 H 0.58163 0.18367 0.47094 0.0
H1225 H 0.55502 0.13668 0.46491 0.0
C1226 C 0.81928 0.65351 0.34 0.0
C1227 C 0.80719 0.6896 0.35927 0.0
C1228 C 0.8542 0.68029 0.43031 0.0
C1229 C 0.8641 0.64256 0.41368 0.0
N1230 N 0.85257 0.59079 0.35594 0.0
N1231 N 0.80588 0.73286 0.42887 0.0
C1232 C 0.84519 0.62824 0.36989 0.0
C1233 C 0.82251 0.70154 0.40639 0.0
N1234 N 0.8085 0.64479 0.29112 0.0
N1235 N 0.87548 0.6963 0.46823 0.0
H1236 H 0.78154 0.74786 0.41324 0.0
H1237 H 0.81306 0.74136 0.4656 0.0
H1238 H 0.89812 0.68145 0.48783 0.0
H1239 H 0.873 0.72575 0.47753 0.0
H1240 H 0.82123 0.62233 0.27101 0.0
H1241 H 0.78898 0.66191 0.26843 0.0
H1242 H 0.83528 0.57633 0.32982 0.0
H1243 H 0.87465 0.57301 0.37228 0.0
C1244 C 0.37958 0.88373 0.4792 0.0
C1245 C 0.40168 0.86969 0.4343 0.0
C1246 C 0.44332 0.93648 0.40915 0.0
C1247 C 0.42381 0.95073 0.45625 0.0
N1248 N 0.37482 0.93384 0.54048 0.0
N1249 N 0.46259 0.87794 0.36725 0.0
C1250 C 0.39227 0.92329 0.49263 0.0
C1251 C 0.43689 0.89435 0.4039 0.0
N1252 N 0.345 0.85966 0.50745 0.0
N1253 N 0.46453 0.96373 0.3664 0.0
H1254 H 0.4576 0.84713 0.36234 0.0
H1255 H 0.49081 0.89361 0.34658 0.0
H1256 H 0.46454 0.99542 0.36421 0.0
H1257 H 0.47658 0.95504 0.32971 0.0
H1258 H 0.32342 0.86969 0.53562 0.0
H1259 H 0.33704 0.8297 0.50062 0.0
H1260 H 0.35723 0.91269 0.57135 0.0
H1261 H 0.38015 0.96232 0.55247 0.0
C1262 C 0.2053 0.38922 0.32581 0.0
C1263 C 0.198 0.34658 0.34752 0.0
C1264 C 0.14156 0.3618 0.41442 0.0
C1265 C 0.15198 0.40458 0.39595 0.0
N1266 N 0.20029 0.45911 0.34187 0.0
N1267 N 0.16541 0.29393 0.4208 0.0
C1268 C 0.1864 0.41825 0.3548 0.0
C1269 C 0.16799 0.33331 0.39442 0.0
N1270 N 0.22713 0.40205 0.27506 0.0
N1271 N 0.10569 0.34816 0.44966 0.0
H1272 H 0.18496 0.2726 0.40817 0.0
H1273 H 0.14692 0.28374 0.45816 0.0
H1274 H 0.0855 0.36792 0.46513 0.0
H1275 H 0.09421 0.31725 0.45996 0.0
H1276 H 0.22956 0.43223 0.25533 0.0
H1277 H 0.23814 0.38206 0.24951 0.0
H1278 H 0.22813 0.47012 0.31614 0.0
H1279 H 0.18636 0.48165 0.3606 0.0
C1280 C 0.33184 0.18309 0.61323 0.0
C1281 C 0.34358 0.19603 0.66185 0.0
C1282 C 0.38173 0.13525 0.67804 0.0
C1283 C 0.37625 0.12579 0.62527 0.0
N1284 N 0.32918 0.12939 0.55612 0.0
N1285 N 0.3825 0.18589 0.73893 0.0
C1286 C 0.34645 0.14647 0.59629 0.0
C1287 C 0.36941 0.17254 0.69364 0.0
N1288 N 0.30734 0.20645 0.58277 0.0
N1289 N 0.39477 0.10637 0.71547 0.0
H1290 H 0.37385 0.21275 0.75219 0.0
H1291 H 0.40495 0.17232 0.76049 0.0
H1292 H 0.39873 0.07668 0.70773 0.0
H1293 H 0.39561 0.10961 0.75623 0.0
H1294 H 0.30037 0.20149 0.54441 0.0
H1295 H 0.29656 0.23322 0.59417 0.0
H1296 H 0.30563 0.14145 0.53538 0.0
H1297 H 0.33398 0.10009 0.54821 0.0
C1298 C 0.84495 0.42458 0.63299 0.0
C1299 C 0.85744 0.38484 0.64804 0.0
C1300 C 0.93268 0.41446 0.62311 0.0
C1301 C 0.92027 0.45461 0.61077 0.0
N1302 N 0.8632 0.49809 0.61251 0.0
N1303 N 0.91459 0.34416 0.668 0.0
C1304 C 0.87607 0.45963 0.61849 0.0
C1305 C 0.90169 0.38046 0.64602 0.0
N1306 N 0.803 0.42921 0.63217 0.0
N1307 N 0.97442 0.40857 0.61353 0.0
H1308 H 0.89406 0.31804 0.68393 0.0
H1309 H 0.94567 0.34063 0.67457 0.0
H1310 H 0.99856 0.4326 0.60262 0.0
H1311 H 0.98505 0.37973 0.61369 0.0
H1312 H 0.79202 0.45574 0.61375 0.0
H1313 H 0.77883 0.40575 0.6468 0.0
H1314 H 0.83297 0.50432 0.6267 0.0
H1315 H 0.88276 0.52433 0.59478 0.0
C1316 C 0.1735 0.64223 0.53677 0.0
C1317 C 0.19352 0.63034 0.58338 0.0
C1318 C 0.14838 0.56471 0.60157 0.0
C1319 C 0.12562 0.57876 0.55831 0.0
N1320 N 0.10949 0.63509 0.49478 0.0
N1321 N 0.1955 0.58284 0.66576 0.0
C1322 C 0.13618 0.61877 0.52871 0.0
C1323 C 0.17994 0.59211 0.61728 0.0
N1324 N 0.19024 0.67611 0.50033 0.0
N1325 N 0.13987 0.52513 0.62753 0.0
H1326 H 0.21899 0.6017 0.67857 0.0
H1327 H 0.18311 0.55776 0.69502 0.0
H1328 H 0.11485 0.50524 0.61986 0.0
H1329 H 0.15884 0.51151 0.65459 0.0
H1330 H 0.17913 0.68423 0.46308 0.0
H1331 H 0.21795 0.69364 0.50508 0.0
H1332 H 0.11397 0.66533 0.47501 0.0
H1333 H 0.0801 0.61989 0.49218 0.0
loop_
_geom_bond_atom_site_label_1
_geom_bond_atom_site_label_2
_geom_bond_distance
_geom_bond_site_symmetry_2
_ccdc_geom_bond_type
C0 O16 1.251 . S
C0 O18 1.254 . S
N1 C2 1.333 . S
N1 C6 1.307 . S
N1 Zn7 2.020 . S
C2 N1 1.333 . S
C2 C3 1.379 . S
C2 H20 0.952 . S
C3 C2 1.379 . S
C3 C4 1.390 . S
C3 H30 0.949 . S
C4 C3 1.390 . S
C4 C5 1.357 . S
C5 C4 1.357 . S
C5 C6 1.370 . S
C5 H31 0.950 . S
C6 N1 1.307 . S
C6 C5 1.370 . S
C6 H24 0.948 . S
Zn7 N1 2.020 . S
Zn7 O16 2.039 . S
Zn7 O22 2.034 . S
Zn7 O26 2.025 . S
Zn7 O28 2.024 . S
C8 O27 1.246 . S
C8 O28 1.249 . S
N9 C10 1.307 . S
N9 C11 1.333 . S
N9 Zn15 2.020 . S
C10 N9 1.307 . S
C10 C14 1.370 . S
C10 H21 0.948 . S
C11 N9 1.333 . S
C11 C12 1.379 . S
C11 H19 0.952 . S
C12 C11 1.379 . S
C12 C13 1.390 . S
C12 H32 0.949 . S
C13 C12 1.390 . S
C13 C14 1.357 . S
C14 C10 1.370 . S
C14 C13 1.357 . S
C14 H33 0.950 . S
Zn15 N9 2.020 . S
Zn15 O18 2.025 . S
Zn15 O23 2.024 . S
Zn15 O25 2.039 . S
Zn15 O27 2.034 . S
O16 C0 1.251 . S
O16 Zn7 2.039 . S
C17 O22 1.246 . S
C17 O23 1.249 . S
O18 C0 1.254 . S
O18 Zn15 2.025 . S
H19 C11 0.952 . S
H20 C2 0.952 . S
H21 C10 0.948 . S
O22 Zn7 2.034 . S
O22 C17 1.246 . S
O23 Zn15 2.024 . S
O23 C17 1.249 . S
H24 C6 0.948 . S
O25 Zn15 2.039 . S
O25 C29 1.251 . S
O26 Zn7 2.025 . S
O26 C29 1.254 . S
O27 C8 1.246 . S
O27 Zn15 2.034 . S
O28 Zn7 2.024 . S
O28 C8 1.249 . S
C29 O25 1.251 . S
C29 O26 1.254 . S
H30 C3 0.949 . S
H31 C5 0.950 . S
H32 C12 0.949 . S
H33 C14 0.950 . S
C34 O50 1.251 . S
C34 O52 1.254 . S
N35 C36 1.333 . S
N35 C40 1.307 . S
N35 Zn41 2.020 . S
C36 N35 1.333 . S
C36 C37 1.379 . S
C36 H54 0.952 . S
C37 C36 1.379 . S
C37 C38 1.390 . S
C37 H64 0.949 . S
C38 C37 1.390 . S
C38 C39 1.357 . S
C39 C38 1.357 . S
C39 C40 1.370 . S
C39 H65 0.950 . S
C40 N35 1.307 . S
C40 C39 1.370 . S
C40 H58 0.948 . S
Zn41 N35 2.020 . S
Zn41 O50 2.039 . S
Zn41 O56 2.034 . S
Zn41 O60 2.025 . S
Zn41 O62 2.024 . S
C42 O61 1.246 . S
C42 O62 1.249 . S
N43 C44 1.307 . S
N43 C45 1.333 . S
N43 Zn49 2.020 . S
C44 N43 1.307 . S
C44 C48 1.370 . S
C44 H55 0.948 . S
C45 N43 1.333 . S
C45 C46 1.379 . S
C45 H53 0.952 . S
C46 C45 1.379 . S
C46 C47 1.390 . S
C46 H66 0.949 . S
C47 C46 1.390 . S
C47 C48 1.357 . S
C48 C44 1.370 . S
C48 C47 1.357 . S
C48 H67 0.950 . S
Zn49 N43 2.020 . S
Zn49 O52 2.025 . S
Zn49 O57 2.024 . S
Zn49 O59 2.039 . S
Zn49 O61 2.034 . S
O50 C34 1.251 . S
O50 Zn41 2.039 . S
C51 O56 1.246 . S
C51 O57 1.249 . S
O52 C34 1.254 . S
O52 Zn49 2.025 . S
H53 C45 0.952 . S
H54 C36 0.952 . S
H55 C44 0.948 . S
O56 Zn41 2.034 . S
O56 C51 1.246 . S
O57 Zn49 2.024 . S
O57 C51 1.249 . S
H58 C40 0.948 . S
O59 Zn49 2.039 . S
O59 C63 1.251 . S
O60 Zn41 2.025 . S
O60 C63 1.254 . S
O61 C42 1.246 . S
O61 Zn49 2.034 . S
O62 Zn41 2.024 . S
O62 C42 1.249 . S
C63 O59 1.251 . S
C63 O60 1.254 . S
H64 C37 0.949 . S
H65 C39 0.950 . S
H66 C46 0.949 . S
H67 C48 0.950 . S
C68 O84 1.251 . S
C68 O86 1.254 . S
N69 C70 1.333 . S
N69 C74 1.307 . S
N69 Zn75 2.020 . S
C70 N69 1.333 . S
C70 C71 1.379 . S
C70 H88 0.952 . S
C71 C70 1.379 . S
C71 C72 1.390 . S
C71 H98 0.949 . S
C72 C71 1.390 . S
C72 C73 1.357 . S
C73 C72 1.357 . S
C73 C74 1.370 . S
C73 H99 0.950 . S
C74 N69 1.307 . S
C74 C73 1.370 . S
C74 H92 0.948 . S
Zn75 N69 2.020 . S
Zn75 O84 2.039 . S
Zn75 O90 2.034 . S
Zn75 O94 2.025 . S
Zn75 O96 2.024 . S
C76 O95 1.246 . S
C76 O96 1.249 . S
N77 C78 1.307 . S
N77 C79 1.333 . S
N77 Zn83 2.020 . S
C78 N77 1.307 . S
C78 C82 1.370 . S
C78 H89 0.948 . S
C79 N77 1.333 . S
C79 C80 1.379 . S
C79 H87 0.952 . S
C80 C79 1.379 . S
C80 C81 1.390 . S
C80 H100 0.949 . S
C81 C80 1.390 . S
C81 C82 1.357 . S
C82 C78 1.370 . S
C82 C81 1.357 . S
C82 H101 0.950 . S
Zn83 N77 2.020 . S
Zn83 O86 2.025 . S
Zn83 O91 2.024 . S
Zn83 O93 2.039 . S
Zn83 O95 2.034 . S
O84 C68 1.251 . S
O84 Zn75 2.039 . S
C85 O90 1.246 . S
C85 O91 1.249 . S
O86 C68 1.254 . S
O86 Zn83 2.025 . S
H87 C79 0.952 . S
H88 C70 0.952 . S
H89 C78 0.948 . S
O90 Zn75 2.034 . S
O90 C85 1.246 . S
O91 Zn83 2.024 . S
O91 C85 1.249 . S
H92 C74 0.948 . S
O93 Zn83 2.039 . S
O93 C97 1.251 . S
O94 Zn75 2.025 . S
O94 C97 1.254 . S
O95 C76 1.246 . S
O95 Zn83 2.034 . S
O96 Zn75 2.024 . S
O96 C76 1.249 . S
C97 O93 1.251 . S
C97 O94 1.254 . S
H98 C71 0.949 . S
H99 C73 0.950 . S
H100 C80 0.949 . S
H101 C82 0.950 . S
C102 O118 1.251 . S
C102 O120 1.254 . S
N103 C104 1.333 . S
N103 C108 1.307 . S
N103 Zn109 2.020 . S
C104 N103 1.333 . S
C104 C105 1.379 . S
C104 H122 0.952 . S
C105 C104 1.379 . S
C105 C106 1.390 . S
C105 H132 0.949 . S
C106 C105 1.390 . S
C106 C107 1.357 . S
C107 C106 1.357 . S
C107 C108 1.370 . S
C107 H133 0.950 . S
C108 N103 1.307 . S
C108 C107 1.370 . S
C108 H126 0.948 . S
Zn109 N103 2.020 . S
Zn109 O118 2.039 . S
Zn109 O124 2.034 . S
Zn109 O128 2.025 . S
Zn109 O130 2.024 . S
C110 O129 1.246 . S
C110 O130 1.249 . S
N111 C112 1.307 . S
N111 C113 1.333 . S
N111 Zn117 2.020 . S
C112 N111 1.307 . S
C112 C116 1.370 . S
C112 H123 0.948 . S
C113 N111 1.333 . S
C113 C114 1.379 . S
C113 H121 0.952 . S
C114 C113 1.379 . S
C114 C115 1.390 . S
C114 H134 0.949 . S
C115 C114 1.390 . S
C115 C116 1.357 . S
C116 C112 1.370 . S
C116 C115 1.357 . S
C116 H135 0.950 . S
Zn117 N111 2.020 . S
Zn117 O120 2.025 . S
Zn117 O125 2.024 . S
Zn117 O127 2.039 . S
Zn117 O129 2.034 . S
O118 C102 1.251 . S
O118 Zn109 2.039 . S
C119 O124 1.246 . S
C119 O125 1.249 . S
O120 C102 1.254 . S
O120 Zn117 2.025 . S
H121 C113 0.952 . S
H122 C104 0.952 . S
H123 C112 0.948 . S
O124 Zn109 2.034 . S
O124 C119 1.246 . S
O125 Zn117 2.024 . S
O125 C119 1.249 . S
H126 C108 0.948 . S
O127 Zn117 2.039 . S
O127 C131 1.251 . S
O128 Zn109 2.025 . S
O128 C131 1.254 . S
O129 C110 1.246 . S
O129 Zn117 2.034 . S
O130 Zn109 2.024 . S
O130 C110 1.249 . S
C131 O127 1.251 . S
C131 O128 1.254 . S
H132 C105 0.949 . S
H133 C107 0.950 . S
H134 C114 0.949 . S
H135 C116 0.950 . S
C136 O152 1.251 . S
C136 O154 1.254 . S
N137 C138 1.333 . S
N137 C142 1.307 . S
N137 Zn143 2.020 . S
C138 N137 1.333 . S
C138 C139 1.379 . S
C138 H156 0.952 . S
C139 C138 1.379 . S
C139 C140 1.390 . S
C139 H166 0.949 . S
C140 C139 1.390 . S
C140 C141 1.357 . S
C141 C140 1.357 . S
C141 C142 1.370 . S
C141 H167 0.950 . S
C142 N137 1.307 . S
C142 C141 1.370 . S
C142 H160 0.948 . S
Zn143 N137 2.020 . S
Zn143 O152 2.039 . S
Zn143 O158 2.034 . S
Zn143 O162 2.025 . S
Zn143 O164 2.024 . S
C144 O163 1.246 . S
C144 O164 1.249 . S
N145 C146 1.307 . S
N145 C147 1.333 . S
N145 Zn151 2.020 . S
C146 N145 1.307 . S
C146 C150 1.370 . S
C146 H157 0.948 . S
C147 N145 1.333 . S
C147 C148 1.379 . S
C147 H155 0.952 . S
C148 C147 1.379 . S
C148 C149 1.390 . S
C148 H168 0.949 . S
C149 C148 1.390 . S
C149 C150 1.357 . S
C150 C146 1.370 . S
C150 C149 1.357 . S
C150 H169 0.950 . S
Zn151 N145 2.020 . S
Zn151 O154 2.025 . S
Zn151 O159 2.024 . S
Zn151 O161 2.039 . S
Zn151 O163 2.034 . S
O152 C136 1.251 . S
O152 Zn143 2.039 . S
C153 O158 1.246 . S
C153 O159 1.249 . S
O154 C136 1.254 . S
O154 Zn151 2.025 . S
H155 C147 0.952 . S
H156 C138 0.952 . S
H157 C146 0.948 . S
O158 Zn143 2.034 . S
O158 C153 1.246 . S
O159 Zn151 2.024 . S
O159 C153 1.249 . S
H160 C142 0.948 . S
O161 Zn151 2.039 . S
O161 C165 1.251 . S
O162 Zn143 2.025 . S
O162 C165 1.254 . S
O163 C144 1.246 . S
O163 Zn151 2.034 . S
O164 Zn143 2.024 . S
O164 C144 1.249 . S
C165 O161 1.251 . S
C165 O162 1.254 . S
H166 C139 0.949 . S
H167 C141 0.950 . S
H168 C148 0.949 . S
H169 C150 0.950 . S
C170 O186 1.251 . S
C170 O188 1.254 . S
N171 C172 1.333 . S
N171 C176 1.307 . S
N171 Zn177 2.020 . S
C172 N171 1.333 . S
C172 C173 1.379 . S
C172 H190 0.952 . S
C173 C172 1.379 . S
C173 C174 1.390 . S
C173 H200 0.949 . S
C174 C173 1.390 . S
C174 C175 1.357 . S
C175 C174 1.357 . S
C175 C176 1.370 . S
C175 H201 0.950 . S
C176 N171 1.307 . S
C176 C175 1.370 . S
C176 H194 0.948 . S
Zn177 N171 2.020 . S
Zn177 O186 2.039 . S
Zn177 O192 2.034 . S
Zn177 O196 2.025 . S
Zn177 O198 2.024 . S
C178 O197 1.246 . S
C178 O198 1.249 . S
N179 C180 1.307 . S
N179 C181 1.333 . S
N179 Zn185 2.020 . S
C180 N179 1.307 . S
C180 C184 1.370 . S
C180 H191 0.948 . S
C181 N179 1.333 . S
C181 C182 1.379 . S
C181 H189 0.952 . S
C182 C181 1.379 . S
C182 C183 1.390 . S
C182 H202 0.949 . S
C183 C182 1.390 . S
C183 C184 1.357 . S
C184 C180 1.370 . S
C184 C183 1.357 . S
C184 H203 0.950 . S
Zn185 N179 2.020 . S
Zn185 O188 2.025 . S
Zn185 O193 2.024 . S
Zn185 O195 2.039 . S
Zn185 O197 2.034 . S
O186 C170 1.251 . S
O186 Zn177 2.039 . S
C187 O192 1.246 . S
C187 O193 1.249 . S
O188 C170 1.254 . S
O188 Zn185 2.025 . S
H189 C181 0.952 . S
H190 C172 0.952 . S
H191 C180 0.948 . S
O192 Zn177 2.034 . S
O192 C187 1.246 . S
O193 Zn185 2.024 . S
O193 C187 1.249 . S
H194 C176 0.948 . S
O195 Zn185 2.039 . S
O195 C199 1.251 . S
O196 Zn177 2.025 . S
O196 C199 1.254 . S
O197 C178 1.246 . S
O197 Zn185 2.034 . S
O198 Zn177 2.024 . S
O198 C178 1.249 . S
C199 O195 1.251 . S
C199 O196 1.254 . S
H200 C173 0.949 . S
H201 C175 0.950 . S
H202 C182 0.949 . S
H203 C184 0.950 . S
C204 O220 1.251 . S
C204 O222 1.254 . S
N205 C206 1.333 . S
N205 C210 1.307 . S
N205 Zn211 2.020 . S
C206 N205 1.333 . S
C206 C207 1.379 . S
C206 H224 0.952 . S
C207 C206 1.379 . S
C207 C208 1.390 . S
C207 H234 0.949 . S
C208 C207 1.390 . S
C208 C209 1.357 . S
C209 C208 1.357 . S
C209 C210 1.370 . S
C209 H235 0.950 . S
C210 N205 1.307 . S
C210 C209 1.370 . S
C210 H228 0.948 . S
Zn211 N205 2.020 . S
Zn211 O220 2.039 . S
Zn211 O226 2.034 . S
Zn211 O230 2.025 . S
Zn211 O232 2.024 . S
C212 O231 1.246 . S
C212 O232 1.249 . S
N213 C214 1.307 . S
N213 C215 1.333 . S
N213 Zn219 2.020 . S
C214 N213 1.307 . S
C214 C218 1.370 . S
C214 H225 0.948 . S
C215 N213 1.333 . S
C215 C216 1.379 . S
C215 H223 0.952 . S
C216 C215 1.379 . S
C216 C217 1.390 . S
C216 H236 0.949 . S
C217 C216 1.390 . S
C217 C218 1.357 . S
C218 C214 1.370 . S
C218 C217 1.357 . S
C218 H237 0.950 . S
Zn219 N213 2.020 . S
Zn219 O222 2.025 . S
Zn219 O227 2.024 . S
Zn219 O229 2.039 . S
Zn219 O231 2.034 . S
O220 C204 1.251 . S
O220 Zn211 2.039 . S
C221 O226 1.246 . S
C221 O227 1.249 . S
O222 C204 1.254 . S
O222 Zn219 2.025 . S
H223 C215 0.952 . S
H224 C206 0.952 . S
H225 C214 0.948 . S
O226 Zn211 2.034 . S
O226 C221 1.246 . S
O227 Zn219 2.024 . S
O227 C221 1.249 . S
H228 C210 0.948 . S
O229 Zn219 2.039 . S
O229 C233 1.251 . S
O230 Zn211 2.025 . S
O230 C233 1.254 . S
O231 C212 1.246 . S
O231 Zn219 2.034 . S
O232 Zn211 2.024 . S
O232 C212 1.249 . S
C233 O229 1.251 . S
C233 O230 1.254 . S
H234 C207 0.949 . S
H235 C209 0.950 . S
H236 C216 0.949 . S
H237 C218 0.950 . S
C238 O254 1.251 . S
C238 O256 1.254 . S
N239 C240 1.333 . S
N239 C244 1.307 . S
N239 Zn245 2.020 . S
C240 N239 1.333 . S
C240 C241 1.379 . S
C240 H258 0.952 . S
C241 C240 1.379 . S
C241 C242 1.390 . S
C241 H268 0.949 . S
C242 C241 1.390 . S
C242 C243 1.357 . S
C243 C242 1.357 . S
C243 C244 1.370 . S
C243 H269 0.950 . S
C244 N239 1.307 . S
C244 C243 1.370 . S
C244 H262 0.948 . S
Zn245 N239 2.020 . S
Zn245 O254 2.039 . S
Zn245 O260 2.034 . S
Zn245 O264 2.025 . S
Zn245 O266 2.024 . S
C246 O265 1.246 . S
C246 O266 1.249 . S
N247 C248 1.307 . S
N247 C249 1.333 . S
N247 Zn253 2.020 . S
C248 N247 1.307 . S
C248 C252 1.370 . S
C248 H259 0.948 . S
C249 N247 1.333 . S
C249 C250 1.379 . S
C249 H257 0.952 . S
C250 C249 1.379 . S
C250 C251 1.390 . S
C250 H270 0.949 . S
C251 C250 1.390 . S
C251 C252 1.357 . S
C252 C248 1.370 . S
C252 C251 1.357 . S
C252 H271 0.950 . S
Zn253 N247 2.020 . S
Zn253 O256 2.025 . S
Zn253 O261 2.024 . S
Zn253 O263 2.039 . S
Zn253 O265 2.034 . S
O254 C238 1.251 . S
O254 Zn245 2.039 . S
C255 O260 1.246 . S
C255 O261 1.249 . S
O256 C238 1.254 . S
O256 Zn253 2.025 . S
H257 C249 0.952 . S
H258 C240 0.952 . S
H259 C248 0.948 . S
O260 Zn245 2.034 . S
O260 C255 1.246 . S
O261 Zn253 2.024 . S
O261 C255 1.249 . S
H262 C244 0.948 . S
O263 Zn253 2.039 . S
O263 C267 1.251 . S
O264 Zn245 2.025 . S
O264 C267 1.254 . S
O265 C246 1.246 . S
O265 Zn253 2.034 . S
O266 Zn245 2.024 . S
O266 C246 1.249 . S
C267 O263 1.251 . S
C267 O264 1.254 . S
H268 C241 0.949 . S
H269 C243 0.950 . S
H270 C250 0.949 . S
H271 C252 0.950 . S
Co272 O275 2.042 . S
Co272 O282 2.264 . S
Co272 O301 2.286 . S
Co272 O302 2.069 . S
Co272 O304 2.015 1_455 S
Co273 O275 2.122 . S
Co273 O281 2.073 . S
Co273 O282 2.327 . S
Co273 O283 1.976 1_455 S
Co274 O275 2.087 1_545 S
Co274 O277 2.087 1_455 S
Co274 O284 2.111 1_445 S
Co274 O285 2.143 . S
Co274 O289 2.111 . S
Co274 O303 2.143 1_445 S
O275 Co272 2.042 . S
O275 Co273 2.122 . S
O275 Co274 2.087 1_565 S
O275 H276 0.980 . S
H276 O275 0.980 . S
O277 Co274 2.087 1_655 S
O277 Co278 2.042 . S
O277 Co279 2.122 . S
O277 H280 0.980 . S
Co278 O277 2.042 . S
Co278 O286 2.286 . S
Co278 O287 2.069 . S
Co278 O288 2.015 1_655 S
Co278 O291 2.264 . S
Co279 O277 2.122 . S
Co279 O290 1.976 1_655 S
Co279 O291 2.327 . S
Co279 O292 2.073 . S
H280 O277 0.980 . S
O281 Co273 2.073 . S
O281 C296 1.245 . S
O282 Co272 2.264 . S
O282 Co273 2.327 . S
O282 C296 1.257 . S
O283 Co273 1.976 1_655 S
O283 C295 1.251 . S
O284 Co274 2.111 1_665 S
O284 C295 1.274 . S
O285 Co274 2.143 . S
O285 C298 1.246 . S
O286 Co278 2.286 . S
O286 C297 1.259 . S
O287 Co278 2.069 . S
O287 C297 1.289 . S
O288 Co278 2.015 1_455 S
O288 C298 1.257 . S
O289 Co274 2.111 . S
O289 C299 1.274 . S
O290 Co279 1.976 1_455 S
O290 C299 1.251 . S
O291 Co278 2.264 . S
O291 Co279 2.327 . S
O291 C300 1.257 . S
O292 Co279 2.073 . S
O292 C300 1.245 . S
C293 O301 1.259 . S
C293 O302 1.289 . S
C294 O303 1.246 . S
C294 O304 1.257 . S
C295 O283 1.251 . S
C295 O284 1.274 . S
C296 O281 1.245 . S
C296 O282 1.257 . S
C297 O286 1.259 . S
C297 O287 1.289 . S
C298 O285 1.246 . S
C298 O288 1.257 . S
C299 O289 1.274 . S
C299 O290 1.251 . S
C300 O291 1.257 . S
C300 O292 1.245 . S
O301 Co272 2.286 . S
O301 C293 1.259 . S
O302 Co272 2.069 . S
O302 C293 1.289 . S
O303 Co274 2.143 1_665 S
O303 C294 1.246 . S
O304 Co272 2.015 1_655 S
O304 C294 1.257 . S
Co305 O308 2.042 1_556 S
Co305 O315 2.264 1_556 S
Co305 O334 2.286 . S
Co305 O335 2.069 . S
Co305 O337 2.015 . S
Co306 O308 2.122 . S
Co306 O314 2.073 . S
Co306 O315 2.327 . S
Co306 O316 1.976 . S
Co307 O308 2.087 1_545 S
Co307 O310 2.087 1_554 S
Co307 O317 2.111 1_545 S
Co307 O318 2.143 . S
Co307 O322 2.111 1_554 S
Co307 O336 2.143 1_544 S
O308 Co305 2.042 1_554 S
O308 Co306 2.122 . S
O308 Co307 2.087 1_565 S
O308 H309 0.980 . S
H309 O308 0.980 . S
O310 Co307 2.087 1_556 S
O310 Co311 2.042 1_556 S
O310 Co312 2.122 . S
O310 H313 0.980 . S
Co311 O310 2.042 1_554 S
Co311 O319 2.286 . S
Co311 O320 2.069 . S
Co311 O321 2.015 . S
Co311 O324 2.264 1_554 S
Co312 O310 2.122 . S
Co312 O323 1.976 . S
Co312 O324 2.327 . S
Co312 O325 2.073 . S
H313 O310 0.980 . S
O314 Co306 2.073 . S
O314 C329 1.245 . S
O315 Co305 2.264 1_554 S
O315 Co306 2.327 . S
O315 C329 1.257 . S
O316 Co306 1.976 . S
O316 C328 1.251 . S
O317 Co307 2.111 1_565 S
O317 C328 1.274 . S
O318 Co307 2.143 . S
O318 C331 1.246 . S
O319 Co311 2.286 . S
O319 C330 1.259 . S
O320 Co311 2.069 . S
O320 C330 1.289 . S
O321 Co311 2.015 . S
O321 C331 1.257 . S
O322 Co307 2.111 1_556 S
O322 C332 1.274 . S
O323 Co312 1.976 . S
O323 C332 1.251 . S
O324 Co311 2.264 1_556 S
O324 Co312 2.327 . S
O324 C333 1.257 . S
O325 Co312 2.073 . S
O325 C333 1.245 . S
C326 O334 1.259 . S
C326 O335 1.289 . S
C327 O336 1.246 . S
C327 O337 1.257 . S
C328 O316 1.251 . S
C328 O317 1.274 . S
C329 O314 1.245 . S
C329 O315 1.257 . S
C330 O319 1.259 . S
C330 O320 1.289 . S
C331 O318 1.246 . S
C331 O321 1.257 . S
C332 O322 1.274 . S
C332 O323 1.251 . S
C333 O324 1.257 . S
C333 O325 1.245 . S
O334 Co305 2.286 . S
O334 C326 1.259 . S
O335 Co305 2.069 . S
O335 C326 1.289 . S
O336 Co307 2.143 1_566 S
O336 C327 1.246 . S
O337 Co305 2.015 . S
O337 C327 1.257 . S
Co338 O341 2.042 1_556 S
Co338 O348 2.264 1_556 S
Co338 O367 2.286 . S
Co338 O368 2.069 . S
Co338 O370 2.015 1_455 S
Co339 O341 2.122 . S
Co339 O347 2.073 . S
Co339 O348 2.327 . S
Co339 O349 1.976 1_455 S
Co340 O341 2.087 . S
Co340 O343 2.087 1_454 S
Co340 O350 2.111 1_455 S
Co340 O351 2.143 . S
Co340 O355 2.111 1_554 S
Co340 O369 2.143 1_454 S
O341 Co338 2.042 1_554 S
O341 Co339 2.122 . S
O341 Co340 2.087 . S
O341 H342 0.980 . S
H342 O341 0.980 . S
O343 Co340 2.087 1_656 S
O343 Co344 2.042 1_556 S
O343 Co345 2.122 . S
O343 H346 0.980 . S
Co344 O343 2.042 1_554 S
Co344 O352 2.286 . S
Co344 O353 2.069 . S
Co344 O354 2.015 1_655 S
Co344 O357 2.264 1_554 S
Co345 O343 2.122 . S
Co345 O356 1.976 1_655 S
Co345 O357 2.327 . S
Co345 O358 2.073 . S
H346 O343 0.980 . S
O347 Co339 2.073 . S
O347 C362 1.245 . S
O348 Co338 2.264 1_554 S
O348 Co339 2.327 . S
O348 C362 1.257 . S
O349 Co339 1.976 1_655 S
O349 C361 1.251 . S
O350 Co340 2.111 1_655 S
O350 C361 1.274 . S
O351 Co340 2.143 . S
O351 C364 1.246 . S
O352 Co344 2.286 . S
O352 C363 1.259 . S
O353 Co344 2.069 . S
O353 C363 1.289 . S
O354 Co344 2.015 1_455 S
O354 C364 1.257 . S
O355 Co340 2.111 1_556 S
O355 C365 1.274 . S
O356 Co345 1.976 1_455 S
O356 C365 1.251 . S
O357 Co344 2.264 1_556 S
O357 Co345 2.327 . S
O357 C366 1.257 . S
O358 Co345 2.073 . S
O358 C366 1.245 . S
C359 O367 1.259 . S
C359 O368 1.289 . S
C360 O369 1.246 . S
C360 O370 1.257 . S
C361 O349 1.251 . S
C361 O350 1.274 . S
C362 O347 1.245 . S
C362 O348 1.257 . S
C363 O352 1.259 . S
C363 O353 1.289 . S
C364 O351 1.246 . S
C364 O354 1.257 . S
C365 O355 1.274 . S
C365 O356 1.251 . S
C366 O357 1.257 . S
C366 O358 1.245 . S
O367 Co338 2.286 . S
O367 C359 1.259 . S
O368 Co338 2.069 . S
O368 C359 1.289 . S
O369 Co340 2.143 1_656 S
O369 C360 1.246 . S
O370 Co338 2.015 1_655 S
O370 C360 1.257 . S
Co371 O374 2.042 1_556 S
Co371 O381 2.264 1_556 S
Co371 O400 2.286 . S
Co371 O401 2.069 . S
Co371 O403 2.015 . S
Co372 O374 2.122 . S
Co372 O380 2.073 . S
Co372 O381 2.327 . S
Co372 O382 1.976 . S
Co373 O374 2.087 . S
Co373 O376 2.087 1_554 S
Co373 O383 2.111 . S
Co373 O384 2.143 . S
Co373 O388 2.111 1_554 S
Co373 O402 2.143 1_554 S
O374 Co371 2.042 1_554 S
O374 Co372 2.122 . S
O374 Co373 2.087 . S
O374 H375 0.980 . S
H375 O374 0.980 . S
O376 Co373 2.087 1_556 S
O376 Co377 2.042 1_556 S
O376 Co378 2.122 . S
O376 H379 0.980 . S
Co377 O376 2.042 1_554 S
Co377 O385 2.286 . S
Co377 O386 2.069 . S
Co377 O387 2.015 . S
Co377 O390 2.264 1_554 S
Co378 O376 2.122 . S
Co378 O389 1.976 . S
Co378 O390 2.327 . S
Co378 O391 2.073 . S
H379 O376 0.980 . S
O380 Co372 2.073 . S
O380 C395 1.245 . S
O381 Co371 2.264 1_554 S
O381 Co372 2.327 . S
O381 C395 1.257 . S
O382 Co372 1.976 . S
O382 C394 1.251 . S
O383 Co373 2.111 . S
O383 C394 1.274 . S
O384 Co373 2.143 . S
O384 C397 1.246 . S
O385 Co377 2.286 . S
O385 C396 1.259 . S
O386 Co377 2.069 . S
O386 C396 1.289 . S
O387 Co377 2.015 . S
O387 C397 1.257 . S
O388 Co373 2.111 1_556 S
O388 C398 1.274 . S
O389 Co378 1.976 . S
O389 C398 1.251 . S
O390 Co377 2.264 1_556 S
O390 Co378 2.327 . S
O390 C399 1.257 . S
O391 Co378 2.073 . S
O391 C399 1.245 . S
C392 O400 1.259 . S
C392 O401 1.289 . S
C393 O402 1.246 . S
C393 O403 1.257 . S
C394 O382 1.251 . S
C394 O383 1.274 . S
C395 O380 1.245 . S
C395 O381 1.257 . S
C396 O385 1.259 . S
C396 O386 1.289 . S
C397 O384 1.246 . S
C397 O387 1.257 . S
C398 O388 1.274 . S
C398 O389 1.251 . S
C399 O390 1.257 . S
C399 O391 1.245 . S
O400 Co371 2.286 . S
O400 C392 1.259 . S
O401 Co371 2.069 . S
O401 C392 1.289 . S
O402 Co373 2.143 1_556 S
O402 C393 1.246 . S
O403 Co371 2.015 . S
O403 C393 1.257 . S
Co404 O407 2.042 . S
Co404 O414 2.264 . S
Co404 O433 2.286 . S
Co404 O434 2.069 . S
Co404 O436 2.015 . S
Co405 O407 2.122 . S
Co405 O413 2.073 . S
Co405 O414 2.327 . S
Co405 O415 1.976 . S
Co406 O407 2.087 . S
Co406 O409 2.087 1_455 S
Co406 O416 2.111 . S
Co406 O417 2.143 1_455 S
Co406 O421 2.111 1_455 S
Co406 O435 2.143 . S
O407 Co404 2.042 . S
O407 Co405 2.122 . S
O407 Co406 2.087 . S
O407 H408 0.980 . S
H408 O407 0.980 . S
O409 Co406 2.087 1_655 S
O409 Co410 2.042 . S
O409 Co411 2.122 . S
O409 H412 0.980 . S
Co410 O409 2.042 . S
Co410 O418 2.286 . S
Co410 O419 2.069 . S
Co410 O420 2.015 . S
Co410 O423 2.264 . S
Co411 O409 2.122 . S
Co411 O422 1.976 . S
Co411 O423 2.327 . S
Co411 O424 2.073 . S
H412 O409 0.980 . S
O413 Co405 2.073 . S
O413 C428 1.245 . S
O414 Co404 2.264 . S
O414 Co405 2.327 . S
O414 C428 1.257 . S
O415 Co405 1.976 . S
O415 C427 1.251 . S
O416 Co406 2.111 . S
O416 C427 1.274 . S
O417 Co406 2.143 1_655 S
O417 C430 1.246 . S
O418 Co410 2.286 . S
O418 C429 1.259 . S
O419 Co410 2.069 . S
O419 C429 1.289 . S
O420 Co410 2.015 . S
O420 C430 1.257 . S
O421 Co406 2.111 1_655 S
O421 C431 1.274 . S
O422 Co411 1.976 . S
O422 C431 1.251 . S
O423 Co410 2.264 . S
O423 Co411 2.327 . S
O423 C432 1.257 . S
O424 Co411 2.073 . S
O424 C432 1.245 . S
C425 O433 1.259 . S
C425 O434 1.289 . S
C426 O435 1.246 . S
C426 O436 1.257 . S
C427 O415 1.251 . S
C427 O416 1.274 . S
C428 O413 1.245 . S
C428 O414 1.257 . S
C429 O418 1.259 . S
C429 O419 1.289 . S
C430 O417 1.246 . S
C430 O420 1.257 . S
C431 O421 1.274 . S
C431 O422 1.251 . S
C432 O423 1.257 . S
C432 O424 1.245 . S
O433 Co404 2.286 . S
O433 C425 1.259 . S
O434 Co404 2.069 . S
O434 C425 1.289 . S
O435 Co406 2.143 . S
O435 C426 1.246 . S
O436 Co404 2.015 . S
O436 C426 1.257 . S
Co437 O440 2.042 . S
Co437 O447 2.264 . S
Co437 O466 2.286 . S
Co437 O467 2.069 . S
Co437 O469 2.015 1_565 S
Co438 O440 2.122 . S
Co438 O446 2.073 . S
Co438 O447 2.327 . S
Co438 O448 1.976 1_565 S
Co439 O440 2.087 1_545 S
Co439 O442 2.087 . S
Co439 O449 2.111 . S
Co439 O450 2.143 1_545 S
Co439 O454 2.111 1_545 S
Co439 O468 2.143 . S
O440 Co437 2.042 . S
O440 Co438 2.122 . S
O440 Co439 2.087 1_565 S
O440 H441 0.980 . S
H441 O440 0.980 . S
O442 Co439 2.087 . S
O442 Co443 2.042 . S
O442 Co444 2.122 . S
O442 H445 0.980 . S
Co443 O442 2.042 . S
Co443 O451 2.286 . S
Co443 O452 2.069 . S
Co443 O453 2.015 1_545 S
Co443 O456 2.264 . S
Co444 O442 2.122 . S
Co444 O455 1.976 1_545 S
Co444 O456 2.327 . S
Co444 O457 2.073 . S
H445 O442 0.980 . S
O446 Co438 2.073 . S
O446 C461 1.245 . S
O447 Co437 2.264 . S
O447 Co438 2.327 . S
O447 C461 1.257 . S
O448 Co438 1.976 1_545 S
O448 C460 1.251 . S
O449 Co439 2.111 . S
O449 C460 1.274 . S
O450 Co439 2.143 1_565 S
O450 C463 1.246 . S
O451 Co443 2.286 . S
O451 C462 1.259 . S
O452 Co443 2.069 . S
O452 C462 1.289 . S
O453 Co443 2.015 1_565 S
O453 C463 1.257 . S
O454 Co439 2.111 1_565 S
O454 C464 1.274 . S
O455 Co444 1.976 1_565 S
O455 C464 1.251 . S
O456 Co443 2.264 . S
O456 Co444 2.327 . S
O456 C465 1.257 . S
O457 Co444 2.073 . S
O457 C465 1.245 . S
C458 O466 1.259 . S
C458 O467 1.289 . S
C459 O468 1.246 . S
C459 O469 1.257 . S
C460 O448 1.251 . S
C460 O449 1.274 . S
C461 O446 1.245 . S
C461 O447 1.257 . S
C462 O451 1.259 . S
C462 O452 1.289 . S
C463 O450 1.246 . S
C463 O453 1.257 . S
C464 O454 1.274 . S
C464 O455 1.251 . S
C465 O456 1.257 . S
C465 O457 1.245 . S
O466 Co437 2.286 . S
O466 C458 1.259 . S
O467 Co437 2.069 . S
O467 C458 1.289 . S
O468 Co439 2.143 . S
O468 C459 1.246 . S
O469 Co437 2.015 1_545 S
O469 C459 1.257 . S
C470 C471 1.363 . S
C470 C476 1.379 . S
C470 N478 1.356 . S
C471 C470 1.363 . S
C471 C477 1.363 . S
C472 C473 1.363 . S
C472 C477 1.379 . S
C472 N479 1.356 . S
C473 C472 1.363 . S
C473 C476 1.363 . S
N474 C476 1.356 . S
N474 H486 0.984 . S
N474 H487 0.985 . S
N475 C477 1.356 . S
N475 H480 0.984 . S
N475 H481 0.985 . S
C476 C470 1.379 . S
C476 C473 1.363 . S
C476 N474 1.356 . S
C477 C471 1.363 . S
C477 C472 1.379 . S
C477 N475 1.356 . S
N478 C470 1.356 . S
N478 H484 0.984 . S
N478 H485 0.984 . S
N479 C472 1.356 . S
N479 H482 0.984 . S
N479 H483 0.985 . S
H480 N475 0.984 . S
H481 N475 0.985 . S
H482 N479 0.984 . S
H483 N479 0.985 . S
H484 N478 0.984 . S
H485 N478 0.984 . S
H486 N474 0.984 . S
H487 N474 0.985 . S
C488 C489 1.363 . S
C488 C494 1.379 . S
C488 N496 1.356 . S
C489 C488 1.363 . S
C489 C495 1.363 . S
C490 C491 1.363 . S
C490 C495 1.379 . S
C490 N497 1.356 . S
C491 C490 1.363 . S
C491 C494 1.363 . S
N492 C494 1.356 . S
N492 H504 0.984 . S
N492 H505 0.985 . S
N493 C495 1.356 . S
N493 H498 0.984 . S
N493 H499 0.985 . S
C494 C488 1.379 . S
C494 C491 1.363 . S
C494 N492 1.356 . S
C495 C489 1.363 . S
C495 C490 1.379 . S
C495 N493 1.356 . S
N496 C488 1.356 . S
N496 H502 0.984 . S
N496 H503 0.984 . S
N497 C490 1.356 . S
N497 H500 0.984 . S
N497 H501 0.985 . S
H498 N493 0.984 . S
H499 N493 0.985 . S
H500 N497 0.984 . S
H501 N497 0.985 . S
H502 N496 0.984 . S
H503 N496 0.984 . S
H504 N492 0.984 . S
H505 N492 0.985 . S
C506 C507 1.363 . S
C506 C512 1.379 . S
C506 N514 1.356 . S
C507 C506 1.363 . S
C507 C513 1.363 . S
C508 C509 1.363 . S
C508 C513 1.379 . S
C508 N515 1.356 . S
C509 C508 1.363 . S
C509 C512 1.363 . S
N510 C512 1.356 . S
N510 H522 0.984 . S
N510 H523 0.985 . S
N511 C513 1.356 . S
N511 H516 0.984 . S
N511 H517 0.985 . S
C512 C506 1.379 . S
C512 C509 1.363 . S
C512 N510 1.356 . S
C513 C507 1.363 . S
C513 C508 1.379 . S
C513 N511 1.356 . S
N514 C506 1.356 . S
N514 H520 0.984 . S
N514 H521 0.984 . S
N515 C508 1.356 . S
N515 H518 0.984 . S
N515 H519 0.985 1_565 S
H516 N511 0.984 . S
H517 N511 0.985 . S
H518 N515 0.984 . S
H519 N515 0.985 1_545 S
H520 N514 0.984 . S
H521 N514 0.984 . S
H522 N510 0.984 . S
H523 N510 0.985 . S
C524 C525 1.363 . S
C524 C530 1.379 . S
C524 N532 1.356 . S
C525 C524 1.363 . S
C525 C531 1.363 . S
C526 C527 1.363 . S
C526 C531 1.379 . S
C526 N533 1.356 . S
C527 C526 1.363 . S
C527 C530 1.363 . S
N528 C530 1.356 . S
N528 H540 0.984 . S
N528 H541 0.985 . S
N529 C531 1.356 . S
N529 H534 0.984 . S
N529 H535 0.985 . S
C530 C524 1.379 . S
C530 C527 1.363 . S
C530 N528 1.356 . S
C531 C525 1.363 . S
C531 C526 1.379 . S
C531 N529 1.356 . S
N532 C524 1.356 . S
N532 H538 0.984 . S
N532 H539 0.984 . S
N533 C526 1.356 . S
N533 H536 0.984 . S
N533 H537 0.985 . S
H534 N529 0.984 . S
H535 N529 0.985 . S
H536 N533 0.984 . S
H537 N533 0.985 . S
H538 N532 0.984 . S
H539 N532 0.984 . S
H540 N528 0.984 . S
H541 N528 0.985 . S
C542 C543 1.363 . S
C542 C548 1.379 . S
C542 N550 1.356 . S
C543 C542 1.363 . S
C543 C549 1.363 . S
C544 C545 1.363 . S
C544 C549 1.379 . S
C544 N551 1.356 . S
C545 C544 1.363 . S
C545 C548 1.363 . S
N546 C548 1.356 . S
N546 H558 0.984 . S
N546 H559 0.985 . S
N547 C549 1.356 . S
N547 H552 0.984 . S
N547 H553 0.985 . S
C548 C542 1.379 . S
C548 C545 1.363 . S
C548 N546 1.356 . S
C549 C543 1.363 . S
C549 C544 1.379 . S
C549 N547 1.356 . S
N550 C542 1.356 . S
N550 H556 0.984 . S
N550 H557 0.984 . S
N551 C544 1.356 . S
N551 H554 0.984 . S
N551 H555 0.985 . S
H552 N547 0.984 . S
H553 N547 0.985 . S
H554 N551 0.984 . S
H555 N551 0.985 . S
H556 N550 0.984 . S
H557 N550 0.984 . S
H558 N546 0.984 . S
H559 N546 0.985 . S
C560 C561 1.363 . S
C560 C566 1.379 . S
C560 N568 1.356 . S
C561 C560 1.363 . S
C561 C567 1.363 . S
C562 C563 1.363 . S
C562 C567 1.379 . S
C562 N569 1.356 . S
C563 C562 1.363 . S
C563 C566 1.363 . S
N564 C566 1.356 . S
N564 H576 0.984 . S
N564 H577 0.985 . S
N565 C567 1.356 . S
N565 H570 0.984 . S
N565 H571 0.985 . S
C566 C560 1.379 . S
C566 C563 1.363 . S
C566 N564 1.356 . S
C567 C561 1.363 . S
C567 C562 1.379 . S
C567 N565 1.356 . S
N568 C560 1.356 . S
N568 H574 0.984 . S
N568 H575 0.984 . S
N569 C562 1.356 . S
N569 H572 0.984 . S
N569 H573 0.985 . S
H570 N565 0.984 . S
H571 N565 0.985 . S
H572 N569 0.984 . S
H573 N569 0.985 . S
H574 N568 0.984 . S
H575 N568 0.984 . S
H576 N564 0.984 . S
H577 N564 0.985 . S
C578 C579 1.363 . S
C578 C584 1.379 . S
C578 N586 1.356 . S
C579 C578 1.363 . S
C579 C585 1.363 . S
C580 C581 1.363 . S
C580 C585 1.379 . S
C580 N587 1.356 . S
C581 C580 1.363 . S
C581 C584 1.363 . S
N582 C584 1.356 . S
N582 H594 0.984 . S
N582 H595 0.985 . S
N583 C585 1.356 . S
N583 H588 0.984 . S
N583 H589 0.985 . S
C584 C578 1.379 . S
C584 C581 1.363 . S
C584 N582 1.356 . S
C585 C579 1.363 . S
C585 C580 1.379 . S
C585 N583 1.356 . S
N586 C578 1.356 . S
N586 H592 0.984 . S
N586 H593 0.984 . S
N587 C580 1.356 . S
N587 H590 0.984 . S
N587 H591 0.985 . S
H588 N583 0.984 . S
H589 N583 0.985 . S
H590 N587 0.984 . S
H591 N587 0.985 . S
H592 N586 0.984 . S
H593 N586 0.984 . S
H594 N582 0.984 . S
H595 N582 0.985 . S
C596 C597 1.363 . S
C596 C602 1.379 . S
C596 N604 1.356 . S
C597 C596 1.363 . S
C597 C603 1.363 . S
C598 C599 1.363 . S
C598 C603 1.379 . S
C598 N605 1.356 . S
C599 C598 1.363 . S
C599 C602 1.363 . S
N600 C602 1.356 . S
N600 H612 0.984 . S
N600 H613 0.985 . S
N601 C603 1.356 . S
N601 H606 0.984 . S
N601 H607 0.985 . S
C602 C596 1.379 . S
C602 C599 1.363 . S
C602 N600 1.356 . S
C603 C597 1.363 . S
C603 C598 1.379 . S
C603 N601 1.356 . S
N604 C596 1.356 . S
N604 H610 0.984 . S
N604 H611 0.984 . S
N605 C598 1.356 . S
N605 H608 0.984 . S
N605 H609 0.984 . S
H606 N601 0.984 . S
H607 N601 0.985 . S
H608 N605 0.984 . S
H609 N605 0.984 . S
H610 N604 0.984 . S
H611 N604 0.984 . S
H612 N600 0.984 . S
H613 N600 0.985 . S
C614 C615 1.363 . S
C614 C620 1.379 . S
C614 N622 1.356 . S
C615 C614 1.363 . S
C615 C621 1.363 . S
C616 C617 1.363 . S
C616 C621 1.379 . S
C616 N623 1.356 . S
C617 C616 1.363 . S
C617 C620 1.363 . S
N618 C620 1.356 . S
N618 H630 0.984 1_554 S
N618 H631 0.985 . S
N619 C621 1.356 . S
N619 H624 0.984 . S
N619 H625 0.985 . S
C620 C614 1.379 . S
C620 C617 1.363 . S
C620 N618 1.356 . S
C621 C615 1.363 . S
C621 C616 1.379 . S
C621 N619 1.356 . S
N622 C614 1.356 . S
N622 H628 0.984 . S
N622 H629 0.984 . S
N623 C616 1.356 . S
N623 H626 0.984 . S
N623 H627 0.985 . S
H624 N619 0.984 . S
H625 N619 0.985 . S
H626 N623 0.984 . S
H627 N623 0.985 . S
H628 N622 0.984 . S
H629 N622 0.984 . S
H630 N618 0.984 1_556 S
H631 N618 0.985 . S
C632 C633 1.363 . S
C632 C638 1.379 . S
C632 N640 1.356 . S
C633 C632 1.363 . S
C633 C639 1.363 . S
C634 C635 1.363 . S
C634 C639 1.379 . S
C634 N641 1.356 . S
C635 C634 1.363 . S
C635 C638 1.363 . S
N636 C638 1.356 . S
N636 H648 0.984 . S
N636 H649 0.985 . S
N637 C639 1.356 . S
N637 H642 0.984 . S
N637 H643 0.985 . S
C638 C632 1.379 . S
C638 C635 1.363 . S
C638 N636 1.356 . S
C639 C633 1.363 . S
C639 C634 1.379 . S
C639 N637 1.356 . S
N640 C632 1.356 . S
N640 H646 0.984 . S
N640 H647 0.984 . S
N641 C634 1.356 . S
N641 H644 0.984 . S
N641 H645 0.985 1_554 S
H642 N637 0.984 . S
H643 N637 0.985 . S
H644 N641 0.984 . S
H645 N641 0.985 1_556 S
H646 N640 0.984 . S
H647 N640 0.984 . S
H648 N636 0.984 . S
H649 N636 0.985 . S
C650 C651 1.363 . S
C650 C656 1.379 . S
C650 N658 1.356 . S
C651 C650 1.363 . S
C651 C657 1.363 . S
C652 C653 1.363 . S
C652 C657 1.379 . S
C652 N659 1.356 . S
C653 C652 1.363 . S
C653 C656 1.363 . S
N654 C656 1.356 . S
N654 H666 0.984 1_554 S
N654 H667 0.985 . S
N655 C657 1.356 . S
N655 H660 0.984 . S
N655 H661 0.985 . S
C656 C650 1.379 . S
C656 C653 1.363 . S
C656 N654 1.356 . S
C657 C651 1.363 . S
C657 C652 1.379 . S
C657 N655 1.356 . S
N658 C650 1.356 . S
N658 H664 0.984 . S
N658 H665 0.984 . S
N659 C652 1.356 . S
N659 H662 0.984 . S
N659 H663 0.985 . S
H660 N655 0.984 . S
H661 N655 0.985 . S
H662 N659 0.984 . S
H663 N659 0.985 . S
H664 N658 0.984 . S
H665 N658 0.984 . S
H666 N654 0.984 1_556 S
H667 N654 0.985 . S
C668 C669 1.363 . S
C668 C674 1.379 . S
C668 N676 1.356 1_554 S
C669 C668 1.363 . S
C669 C675 1.363 . S
C670 C671 1.363 . S
C670 C675 1.379 . S
C670 N677 1.356 . S
C671 C670 1.363 . S
C671 C674 1.363 . S
N672 C674 1.356 1_556 S
N672 H684 0.984 . S
N672 H685 0.985 1_556 S
N673 C675 1.356 . S
N673 H678 0.984 . S
N673 H679 0.985 . S
C674 C668 1.379 . S
C674 C671 1.363 . S
C674 N672 1.356 1_554 S
C675 C669 1.363 . S
C675 C670 1.379 . S
C675 N673 1.356 . S
N676 C668 1.356 1_556 S
N676 H682 0.984 . S
N676 H683 0.984 . S
N677 C670 1.356 . S
N677 H680 0.984 . S
N677 H681 0.985 . S
H678 N673 0.984 . S
H679 N673 0.985 . S
H680 N677 0.984 . S
H681 N677 0.985 . S
H682 N676 0.984 . S
H683 N676 0.984 . S
H684 N672 0.984 . S
H685 N672 0.985 1_554 S
C686 C687 1.363 . S
C686 C692 1.379 . S
C686 N694 1.356 . S
C687 C686 1.363 . S
C687 C693 1.363 . S
C688 C689 1.363 . S
C688 C693 1.379 . S
C688 N695 1.356 . S
C689 C688 1.363 . S
C689 C692 1.363 . S
N690 C692 1.356 . S
N690 H702 0.984 . S
N690 H703 0.985 . S
N691 C693 1.356 . S
N691 H696 0.984 . S
N691 H697 0.980 1_556 S
C692 C686 1.379 . S
C692 C689 1.363 . S
C692 N690 1.356 . S
C693 C687 1.363 . S
C693 C688 1.379 . S
C693 N691 1.356 . S
N694 C686 1.356 . S
N694 H700 0.984 . S
N694 H701 0.984 . S
N695 C688 1.356 . S
N695 H698 0.984 . S
N695 H699 0.985 1_556 S
H696 N691 0.984 . S
H697 N691 0.980 1_554 S
H698 N695 0.984 . S
H699 N695 0.985 1_554 S
H700 N694 0.984 . S
H701 N694 0.984 . S
H702 N690 0.984 . S
H703 N690 0.985 . S
C704 C705 1.363 . S
C704 C710 1.379 . S
C704 N712 1.356 . S
C705 C704 1.363 . S
C705 C711 1.363 . S
C706 C707 1.363 . S
C706 C711 1.379 . S
C706 N713 1.356 . S
C707 C706 1.363 . S
C707 C710 1.363 . S
N708 C710 1.356 . S
N708 H720 0.984 . S
N708 H721 0.985 . S
N709 C711 1.356 . S
N709 H714 0.984 . S
N709 H715 0.985 . S
C710 C704 1.379 . S
C710 C707 1.363 . S
C710 N708 1.356 . S
C711 C705 1.363 . S
C711 C706 1.379 . S
C711 N709 1.356 . S
N712 C704 1.356 . S
N712 H718 0.984 . S
N712 H719 0.984 . S
N713 C706 1.356 . S
N713 H716 0.984 . S
N713 H717 0.985 . S
H714 N709 0.984 . S
H715 N709 0.985 . S
H716 N713 0.984 . S
H717 N713 0.985 . S
H718 N712 0.984 . S
H719 N712 0.984 . S
H720 N708 0.984 . S
H721 N708 0.985 . S
C722 C723 1.363 . S
C722 C728 1.379 . S
C722 N730 1.356 . S
C723 C722 1.363 . S
C723 C729 1.363 . S
C724 C725 1.363 . S
C724 C729 1.379 . S
C724 N731 1.356 . S
C725 C724 1.363 . S
C725 C728 1.363 . S
N726 C728 1.356 . S
N726 H738 0.984 . S
N726 H739 0.985 . S
N727 C729 1.356 . S
N727 H732 0.984 . S
N727 H733 0.985 . S
C728 C722 1.379 . S
C728 C725 1.363 . S
C728 N726 1.356 . S
C729 C723 1.363 . S
C729 C724 1.379 . S
C729 N727 1.356 . S
N730 C722 1.356 . S
N730 H736 0.984 . S
N730 H737 0.984 . S
N731 C724 1.356 . S
N731 H734 0.984 . S
N731 H735 0.985 1_556 S
H732 N727 0.984 . S
H733 N727 0.985 . S
H734 N731 0.984 . S
H735 N731 0.985 1_554 S
H736 N730 0.984 . S
H737 N730 0.984 . S
H738 N726 0.984 . S
H739 N726 0.985 . S
C740 C741 1.363 . S
C740 C746 1.379 . S
C740 N748 1.356 . S
C741 C740 1.363 . S
C741 C747 1.363 . S
C742 C743 1.363 . S
C742 C747 1.379 . S
C742 N749 1.356 . S
C743 C742 1.363 . S
C743 C746 1.363 . S
N744 C746 1.356 . S
N744 H756 0.984 . S
N744 H757 0.985 . S
N745 C747 1.356 . S
N745 H750 0.984 . S
N745 H751 0.985 . S
C746 C740 1.379 . S
C746 C743 1.363 . S
C746 N744 1.356 . S
C747 C741 1.363 . S
C747 C742 1.379 . S
C747 N745 1.356 . S
N748 C740 1.356 . S
N748 H754 0.984 . S
N748 H755 0.984 . S
N749 C742 1.356 . S
N749 H752 0.984 . S
N749 H753 0.985 . S
H750 N745 0.984 . S
H751 N745 0.985 . S
H752 N749 0.984 . S
H753 N749 0.985 . S
H754 N748 0.984 . S
H755 N748 0.984 . S
H756 N744 0.984 . S
H757 N744 0.985 . S
C758 C759 1.363 . S
C758 C764 1.379 . S
C758 N766 1.356 . S
C759 C758 1.363 . S
C759 C765 1.363 . S
C760 C761 1.363 . S
C760 C765 1.379 . S
C760 N767 1.356 . S
C761 C760 1.363 . S
C761 C764 1.363 . S
N762 C764 1.356 . S
N762 H774 0.984 1_554 S
N762 H775 0.989 . S
N763 C765 1.356 . S
N763 H768 0.984 . S
N763 H769 0.985 . S
C764 C758 1.379 . S
C764 C761 1.363 . S
C764 N762 1.356 . S
C765 C759 1.363 . S
C765 C760 1.379 . S
C765 N763 1.356 . S
N766 C758 1.356 . S
N766 H772 0.984 . S
N766 H773 0.984 . S
N767 C760 1.356 . S
N767 H770 0.984 . S
N767 H771 0.985 . S
H768 N763 0.984 . S
H769 N763 0.985 . S
H770 N767 0.984 . S
H771 N767 0.985 . S
H772 N766 0.984 . S
H773 N766 0.984 . S
H774 N762 0.984 1_556 S
H775 N762 0.989 . S
C776 C777 1.363 . S
C776 C782 1.379 . S
C776 N784 1.356 . S
C777 C776 1.363 . S
C777 C783 1.363 . S
C778 C779 1.363 . S
C778 C783 1.379 . S
C778 N785 1.356 . S
C779 C778 1.363 . S
C779 C782 1.363 . S
N780 C782 1.356 . S
N780 H792 0.984 . S
N780 H793 0.985 . S
N781 C783 1.356 . S
N781 H786 0.984 . S
N781 H787 0.985 . S
C782 C776 1.379 . S
C782 C779 1.363 . S
C782 N780 1.356 . S
C783 C777 1.363 . S
C783 C778 1.379 . S
C783 N781 1.356 . S
N784 C776 1.356 . S
N784 H790 0.984 . S
N784 H791 0.984 . S
N785 C778 1.356 . S
N785 H788 0.984 . S
N785 H789 0.985 . S
H786 N781 0.984 . S
H787 N781 0.985 . S
H788 N785 0.984 . S
H789 N785 0.985 . S
H790 N784 0.984 . S
H791 N784 0.984 . S
H792 N780 0.984 . S
H793 N780 0.985 . S
C794 C795 1.363 . S
C794 C800 1.379 . S
C794 N802 1.356 . S
C795 C794 1.363 . S
C795 C801 1.363 . S
C796 C797 1.363 . S
C796 C801 1.379 . S
C796 N803 1.356 . S
C797 C796 1.363 . S
C797 C800 1.363 . S
N798 C800 1.356 . S
N798 H810 0.984 . S
N798 H811 0.985 . S
N799 C801 1.356 . S
N799 H804 0.984 . S
N799 H805 0.985 . S
C800 C794 1.379 . S
C800 C797 1.363 . S
C800 N798 1.356 . S
C801 C795 1.363 . S
C801 C796 1.379 . S
C801 N799 1.356 . S
N802 C794 1.356 . S
N802 H808 0.984 . S
N802 H809 0.984 . S
N803 C796 1.356 . S
N803 H806 0.984 . S
N803 H807 0.985 . S
H804 N799 0.984 . S
H805 N799 0.985 . S
H806 N803 0.984 . S
H807 N803 0.985 . S
H808 N802 0.984 . S
H809 N802 0.984 . S
H810 N798 0.984 . S
H811 N798 0.985 . S
C812 C813 1.363 . S
C812 C818 1.379 . S
C812 N820 1.356 . S
C813 C812 1.363 . S
C813 C819 1.363 . S
C814 C815 1.363 . S
C814 C819 1.379 . S
C814 N821 1.356 1_556 S
C815 C814 1.363 . S
C815 C818 1.363 . S
N816 C818 1.356 . S
N816 H828 0.984 . S
N816 H829 0.985 . S
N817 C819 1.356 1_554 S
N817 H822 0.984 . S
N817 H823 0.985 . S
C818 C812 1.379 . S
C818 C815 1.363 . S
C818 N816 1.356 . S
C819 C813 1.363 . S
C819 C814 1.379 . S
C819 N817 1.356 1_556 S
N820 C812 1.356 . S
N820 H826 0.984 . S
N820 H827 0.984 . S
N821 C814 1.356 1_554 S
N821 H824 0.984 1_554 S
N821 H825 0.985 . S
H822 N817 0.984 . S
H823 N817 0.985 . S
H824 N821 0.984 1_556 S
H825 N821 0.985 . S
H826 N820 0.984 . S
H827 N820 0.984 . S
H828 N816 0.984 . S
H829 N816 0.985 . S
C830 C831 1.363 . S
C830 C836 1.379 . S
C830 N838 1.356 . S
C831 C830 1.363 . S
C831 C837 1.363 . S
C832 C833 1.363 . S
C832 C837 1.379 . S
C832 N839 1.356 . S
C833 C832 1.363 . S
C833 C836 1.363 . S
N834 C836 1.356 . S
N834 H846 0.984 . S
N834 H847 0.985 . S
N835 C837 1.356 . S
N835 H840 0.984 . S
N835 H841 0.985 . S
C836 C830 1.379 . S
C836 C833 1.363 . S
C836 N834 1.356 . S
C837 C831 1.363 . S
C837 C832 1.379 . S
C837 N835 1.356 . S
N838 C830 1.356 . S
N838 H844 0.984 . S
N838 H845 0.984 . S
N839 C832 1.356 . S
N839 H842 0.984 . S
N839 H843 0.985 . S
H840 N835 0.984 . S
H841 N835 0.985 . S
H842 N839 0.984 . S
H843 N839 0.985 . S
H844 N838 0.984 . S
H845 N838 0.984 . S
H846 N834 0.984 . S
H847 N834 0.985 . S
C848 C849 1.363 . S
C848 C854 1.379 . S
C848 N856 1.356 . S
C849 C848 1.363 . S
C849 C855 1.363 . S
C850 C851 1.363 . S
C850 C855 1.379 . S
C850 N857 1.356 . S
C851 C850 1.363 . S
C851 C854 1.363 . S
N852 C854 1.356 . S
N852 H864 0.984 . S
N852 H865 0.985 . S
N853 C855 1.356 . S
N853 H858 0.984 . S
N853 H859 0.985 . S
C854 C848 1.379 . S
C854 C851 1.363 . S
C854 N852 1.356 . S
C855 C849 1.363 . S
C855 C850 1.379 . S
C855 N853 1.356 . S
N856 C848 1.356 . S
N856 H862 0.984 . S
N856 H863 0.984 . S
N857 C850 1.356 . S
N857 H860 0.984 . S
N857 H861 0.985 . S
H858 N853 0.984 . S
H859 N853 0.985 . S
H860 N857 0.984 . S
H861 N857 0.985 . S
H862 N856 0.984 . S
H863 N856 0.984 . S
H864 N852 0.984 . S
H865 N852 0.985 . S
C866 C867 1.363 . S
C866 C872 1.379 . S
C866 N874 1.356 . S
C867 C866 1.363 . S
C867 C873 1.363 . S
C868 C869 1.363 . S
C868 C873 1.379 . S
C868 N875 1.356 . S
C869 C868 1.363 . S
C869 C872 1.363 . S
N870 C872 1.356 . S
N870 H882 0.984 . S
N870 H883 0.985 . S
N871 C873 1.356 . S
N871 H876 0.984 . S
N871 H877 0.985 . S
C872 C866 1.379 . S
C872 C869 1.363 . S
C872 N870 1.356 . S
C873 C867 1.363 . S
C873 C868 1.379 . S
C873 N871 1.356 . S
N874 C866 1.356 . S
N874 H880 0.984 . S
N874 H881 0.984 . S
N875 C868 1.356 . S
N875 H878 0.984 . S
N875 H879 0.985 . S
H876 N871 0.984 . S
H877 N871 0.985 . S
H878 N875 0.984 . S
H879 N875 0.985 . S
H880 N874 0.984 . S
H881 N874 0.984 . S
H882 N870 0.984 . S
H883 N870 0.985 . S
C884 C885 1.363 . S
C884 C890 1.379 . S
C884 N892 1.356 . S
C885 C884 1.363 . S
C885 C891 1.363 . S
C886 C887 1.363 . S
C886 C891 1.379 . S
C886 N893 1.356 . S
C887 C886 1.363 . S
C887 C890 1.363 . S
N888 C890 1.356 . S
N888 H900 0.984 . S
N888 H901 0.985 . S
N889 C891 1.356 . S
N889 H894 0.984 . S
N889 H895 0.985 1_554 S
C890 C884 1.379 . S
C890 C887 1.363 . S
C890 N888 1.356 . S
C891 C885 1.363 . S
C891 C886 1.379 . S
C891 N889 1.356 . S
N892 C884 1.356 . S
N892 H898 0.984 . S
N892 H899 0.984 . S
N893 C886 1.356 . S
N893 H896 0.984 . S
N893 H897 0.985 1_554 S
H894 N889 0.984 . S
H895 N889 0.985 1_556 S
H896 N893 0.984 . S
H897 N893 0.985 1_556 S
H898 N892 0.984 . S
H899 N892 0.984 . S
H900 N888 0.984 . S
H901 N888 0.985 . S
C902 C903 1.363 . S
C902 C908 1.379 . S
C902 N910 1.356 . S
C903 C902 1.363 . S
C903 C909 1.363 . S
C904 C905 1.363 . S
C904 C909 1.379 . S
C904 N911 1.356 . S
C905 C904 1.363 . S
C905 C908 1.363 . S
N906 C908 1.356 . S
N906 H918 0.984 1_556 S
N906 H919 0.985 1_556 S
N907 C909 1.356 . S
N907 H912 0.984 . S
N907 H913 0.985 . S
C908 C902 1.379 . S
C908 C905 1.363 . S
C908 N906 1.356 . S
C909 C903 1.363 . S
C909 C904 1.379 . S
C909 N907 1.356 . S
N910 C902 1.356 . S
N910 H916 0.984 . S
N910 H917 0.984 . S
N911 C904 1.356 . S
N911 H914 0.984 . S
N911 H915 0.985 . S
H912 N907 0.984 . S
H913 N907 0.985 . S
H914 N911 0.984 . S
H915 N911 0.985 . S
H916 N910 0.984 . S
H917 N910 0.984 . S
H918 N906 0.984 1_554 S
H919 N906 0.985 1_554 S
C920 C921 1.363 . S
C920 C926 1.379 . S
C920 N928 1.356 . S
C921 C920 1.363 . S
C921 C927 1.363 . S
C922 C923 1.363 . S
C922 C927 1.379 . S
C922 N929 1.356 . S
C923 C922 1.363 . S
C923 C926 1.363 . S
N924 C926 1.356 . S
N924 H936 0.984 . S
N924 H937 0.985 . S
N925 C927 1.356 . S
N925 H930 0.984 . S
N925 H931 0.985 . S
C926 C920 1.379 . S
C926 C923 1.363 . S
C926 N924 1.356 . S
C927 C921 1.363 . S
C927 C922 1.379 . S
C927 N925 1.356 . S
N928 C920 1.356 . S
N928 H934 0.984 . S
N928 H935 0.984 . S
N929 C922 1.356 . S
N929 H932 0.984 . S
N929 H933 0.985 . S
H930 N925 0.984 . S
H931 N925 0.985 . S
H932 N929 0.984 . S
H933 N929 0.985 . S
H934 N928 0.984 . S
H935 N928 0.984 . S
H936 N924 0.984 . S
H937 N924 0.985 . S
C938 C939 1.363 . S
C938 C944 1.379 . S
C938 N946 1.356 . S
C939 C938 1.363 . S
C939 C945 1.363 . S
C940 C941 1.363 . S
C940 C945 1.379 . S
C940 N947 1.356 . S
C941 C940 1.363 . S
C941 C944 1.363 . S
N942 C944 1.356 . S
N942 H954 0.984 . S
N942 H955 0.985 . S
N943 C945 1.356 . S
N943 H948 0.984 . S
N943 H949 0.985 . S
C944 C938 1.379 . S
C944 C941 1.363 . S
C944 N942 1.356 . S
C945 C939 1.363 . S
C945 C940 1.379 . S
C945 N943 1.356 . S
N946 C938 1.356 . S
N946 H952 0.984 . S
N946 H953 0.984 . S
N947 C940 1.356 . S
N947 H950 0.984 1_556 S
N947 H951 0.985 1_556 S
H948 N943 0.984 . S
H949 N943 0.985 . S
H950 N947 0.984 1_554 S
H951 N947 0.985 1_554 S
H952 N946 0.984 . S
H953 N946 0.984 . S
H954 N942 0.984 . S
H955 N942 0.985 . S
C956 C957 1.363 . S
C956 C962 1.379 . S
C956 N964 1.356 . S
C957 C956 1.363 . S
C957 C963 1.363 . S
C958 C959 1.363 . S
C958 C963 1.379 . S
C958 N965 1.356 . S
C959 C958 1.363 . S
C959 C962 1.363 . S
N960 C962 1.356 . S
N960 H972 0.984 . S
N960 H973 0.985 . S
N961 C963 1.356 . S
N961 H966 0.984 . S
N961 H967 0.985 . S
C962 C956 1.379 . S
C962 C959 1.363 . S
C962 N960 1.356 . S
C963 C957 1.363 . S
C963 C958 1.379 . S
C963 N961 1.356 . S
N964 C956 1.356 . S
N964 H970 0.984 . S
N964 H971 0.984 . S
N965 C958 1.356 . S
N965 H968 0.984 . S
N965 H969 0.985 . S
H966 N961 0.984 . S
H967 N961 0.985 . S
H968 N965 0.984 . S
H969 N965 0.985 . S
H970 N964 0.984 . S
H971 N964 0.984 . S
H972 N960 0.984 . S
H973 N960 0.985 . S
C974 C975 1.363 . S
C974 C980 1.379 . S
C974 N982 1.356 . S
C975 C974 1.363 . S
C975 C981 1.363 . S
C976 C977 1.363 . S
C976 C981 1.379 . S
C976 N983 1.356 . S
C977 C976 1.363 . S
C977 C980 1.363 . S
N978 C980 1.356 . S
N978 H990 0.984 . S
N978 H991 0.985 . S
N979 C981 1.356 . S
N979 H984 0.984 . S
N979 H985 0.985 . S
C980 C974 1.379 . S
C980 C977 1.363 . S
C980 N978 1.356 . S
C981 C975 1.363 . S
C981 C976 1.379 . S
C981 N979 1.356 . S
N982 C974 1.356 . S
N982 H988 0.984 . S
N982 H989 0.984 . S
N983 C976 1.356 . S
N983 H986 0.984 . S
N983 H987 0.985 . S
H984 N979 0.984 . S
H985 N979 0.985 . S
H986 N983 0.984 . S
H987 N983 0.985 . S
H988 N982 0.984 . S
H989 N982 0.984 . S
H990 N978 0.984 . S
H991 N978 0.985 . S
C992 C993 1.363 . S
C992 C998 1.379 . S
C992 N1000 1.356 . S
C993 C992 1.363 . S
C993 C999 1.363 . S
C994 C995 1.363 . S
C994 C999 1.379 . S
C994 N1001 1.356 . S
C995 C994 1.363 . S
C995 C998 1.363 . S
N996 C998 1.356 . S
N996 H1008 0.984 . S
N996 H1009 0.985 . S
N997 C999 1.356 . S
N997 H1002 0.984 . S
N997 H1003 0.985 . S
C998 C992 1.379 . S
C998 C995 1.363 . S
C998 N996 1.356 . S
C999 C993 1.363 . S
C999 C994 1.379 . S
C999 N997 1.356 . S
N1000 C992 1.356 . S
N1000 H1006 0.984 . S
N1000 H1007 0.984 . S
N1001 C994 1.356 . S
N1001 H1004 0.984 . S
N1001 H1005 0.985 . S
H1002 N997 0.984 . S
H1003 N997 0.985 . S
H1004 N1001 0.984 . S
H1005 N1001 0.985 . S
H1006 N1000 0.984 . S
H1007 N1000 0.984 . S
H1008 N996 0.984 . S
H1009 N996 0.985 . S
C1010 C1011 1.363 . S
C1010 C1016 1.379 . S
C1010 N1018 1.356 . S
C1011 C1010 1.363 . S
C1011 C1017 1.363 . S
C1012 C1013 1.363 . S
C1012 C1017 1.379 . S
C1012 N1019 1.356 . S
C1013 C1012 1.363 . S
C1013 C1016 1.363 . S
N1014 C1016 1.356 . S
N1014 H1026 0.984 1_554 S
N1014 H1027 0.985 . S
N1015 C1017 1.356 . S
N1015 H1020 0.984 . S
N1015 H1021 0.985 . S
C1016 C1010 1.379 . S
C1016 C1013 1.363 . S
C1016 N1014 1.356 . S
C1017 C1011 1.363 . S
C1017 C1012 1.379 . S
C1017 N1015 1.356 . S
N1018 C1010 1.356 . S
N1018 H1024 0.984 . S
N1018 H1025 0.984 . S
N1019 C1012 1.356 . S
N1019 H1022 0.984 . S
N1019 H1023 0.985 . S
H1020 N1015 0.984 . S
H1021 N1015 0.985 . S
H1022 N1019 0.984 . S
H1023 N1019 0.985 . S
H1024 N1018 0.984 . S
H1025 N1018 0.984 . S
H1026 N1014 0.984 1_556 S
H1027 N1014 0.985 . S
C1028 C1029 1.363 . S
C1028 C1034 1.379 . S
C1028 N1036 1.356 . S
C1029 C1028 1.363 . S
C1029 C1035 1.363 . S
C1030 C1031 1.363 . S
C1030 C1035 1.379 . S
C1030 N1037 1.356 . S
C1031 C1030 1.363 . S
C1031 C1034 1.363 . S
N1032 C1034 1.356 . S
N1032 H1044 0.984 . S
N1032 H1045 0.985 1_554 S
N1033 C1035 1.356 . S
N1033 H1038 0.984 . S
N1033 H1039 0.985 . S
C1034 C1028 1.379 . S
C1034 C1031 1.363 . S
C1034 N1032 1.356 . S
C1035 C1029 1.363 . S
C1035 C1030 1.379 . S
C1035 N1033 1.356 . S
N1036 C1028 1.356 . S
N1036 H1042 0.984 . S
N1036 H1043 0.984 . S
N1037 C1030 1.356 . S
N1037 H1040 0.984 . S
N1037 H1041 0.985 . S
H1038 N1033 0.984 . S
H1039 N1033 0.985 . S
H1040 N1037 0.984 . S
H1041 N1037 0.985 . S
H1042 N1036 0.984 . S
H1043 N1036 0.984 . S
H1044 N1032 0.984 . S
H1045 N1032 0.985 1_556 S
C1046 C1047 1.363 . S
C1046 C1052 1.379 . S
C1046 N1054 1.356 . S
C1047 C1046 1.363 . S
C1047 C1053 1.363 . S
C1048 C1049 1.363 . S
C1048 C1053 1.379 . S
C1048 N1055 1.356 . S
C1049 C1048 1.363 . S
C1049 C1052 1.363 . S
N1050 C1052 1.356 . S
N1050 H1062 0.984 . S
N1050 H1063 0.985 . S
N1051 C1053 1.356 . S
N1051 H1056 0.984 . S
N1051 H1057 0.985 . S
C1052 C1046 1.379 . S
C1052 C1049 1.363 . S
C1052 N1050 1.356 . S
C1053 C1047 1.363 . S
C1053 C1048 1.379 . S
C1053 N1051 1.356 . S
N1054 C1046 1.356 . S
N1054 H1060 0.984 . S
N1054 H1061 0.984 . S
N1055 C1048 1.356 . S
N1055 H1058 0.984 . S
N1055 H1059 0.985 . S
H1056 N1051 0.984 . S
H1057 N1051 0.985 . S
H1058 N1055 0.984 . S
H1059 N1055 0.985 . S
H1060 N1054 0.984 . S
H1061 N1054 0.984 . S
H1062 N1050 0.984 . S
H1063 N1050 0.985 . S
C1064 C1065 1.363 . S
C1064 C1070 1.379 . S
C1064 N1072 1.356 . S
C1065 C1064 1.363 . S
C1065 C1071 1.363 . S
C1066 C1067 1.363 . S
C1066 C1071 1.379 . S
C1066 N1073 1.356 . S
C1067 C1066 1.363 . S
C1067 C1070 1.363 . S
N1068 C1070 1.356 . S
N1068 H1080 0.984 . S
N1068 H1081 0.985 . S
N1069 C1071 1.356 . S
N1069 H1074 0.984 . S
N1069 H1075 0.985 . S
C1070 C1064 1.379 . S
C1070 C1067 1.363 . S
C1070 N1068 1.356 . S
C1071 C1065 1.363 . S
C1071 C1066 1.379 . S
C1071 N1069 1.356 . S
N1072 C1064 1.356 . S
N1072 H1078 0.984 . S
N1072 H1079 0.984 . S
N1073 C1066 1.356 . S
N1073 H1076 0.984 . S
N1073 H1077 0.985 . S
H1074 N1069 0.984 . S
H1075 N1069 0.985 . S
H1076 N1073 0.984 . S
H1077 N1073 0.985 . S
H1078 N1072 0.984 . S
H1079 N1072 0.984 . S
H1080 N1068 0.984 . S
H1081 N1068 0.985 . S
C1082 C1083 1.363 . S
C1082 C1088 1.379 . S
C1082 N1090 1.356 . S
C1083 C1082 1.363 . S
C1083 C1089 1.363 . S
C1084 C1085 1.363 . S
C1084 C1089 1.379 . S
C1084 N1091 1.356 . S
C1085 C1084 1.363 . S
C1085 C1088 1.363 . S
N1086 C1088 1.356 . S
N1086 H1098 0.984 . S
N1086 H1099 0.985 . S
N1087 C1089 1.356 . S
N1087 H1092 0.984 . S
N1087 H1093 0.985 . S
C1088 C1082 1.379 . S
C1088 C1085 1.363 . S
C1088 N1086 1.356 . S
C1089 C1083 1.363 . S
C1089 C1084 1.379 . S
C1089 N1087 1.356 . S
N1090 C1082 1.356 . S
N1090 H1096 0.984 . S
N1090 H1097 0.984 . S
N1091 C1084 1.356 . S
N1091 H1094 0.984 . S
N1091 H1095 0.985 . S
H1092 N1087 0.984 . S
H1093 N1087 0.985 . S
H1094 N1091 0.984 . S
H1095 N1091 0.985 . S
H1096 N1090 0.984 . S
H1097 N1090 0.984 . S
H1098 N1086 0.984 . S
H1099 N1086 0.985 . S
C1100 C1101 1.363 . S
C1100 C1106 1.379 . S
C1100 N1108 1.356 . S
C1101 C1100 1.363 . S
C1101 C1107 1.363 . S
C1102 C1103 1.363 . S
C1102 C1107 1.379 . S
C1102 N1109 1.356 . S
C1103 C1102 1.363 . S
C1103 C1106 1.363 . S
N1104 C1106 1.356 . S
N1104 H1116 0.984 . S
N1104 H1117 0.985 . S
N1105 C1107 1.356 . S
N1105 H1110 0.984 . S
N1105 H1111 0.985 . S
C1106 C1100 1.379 . S
C1106 C1103 1.363 . S
C1106 N1104 1.356 . S
C1107 C1101 1.363 . S
C1107 C1102 1.379 . S
C1107 N1105 1.356 . S
N1108 C1100 1.356 . S
N1108 H1114 0.984 . S
N1108 H1115 0.984 . S
N1109 C1102 1.356 . S
N1109 H1112 0.984 . S
N1109 H1113 0.985 . S
H1110 N1105 0.984 . S
H1111 N1105 0.985 . S
H1112 N1109 0.984 . S
H1113 N1109 0.985 . S
H1114 N1108 0.984 . S
H1115 N1108 0.984 . S
H1116 N1104 0.984 . S
H1117 N1104 0.985 . S
C1118 C1119 1.363 . S
C1118 C1124 1.379 . S
C1118 N1126 1.356 . S
C1119 C1118 1.363 . S
C1119 C1125 1.363 . S
C1120 C1121 1.363 . S
C1120 C1125 1.379 . S
C1120 N1127 1.356 . S
C1121 C1120 1.363 . S
C1121 C1124 1.363 . S
N1122 C1124 1.356 . S
N1122 H1134 0.984 . S
N1122 H1135 0.985 . S
N1123 C1125 1.356 . S
N1123 H1128 0.984 . S
N1123 H1129 0.985 . S
C1124 C1118 1.379 . S
C1124 C1121 1.363 . S
C1124 N1122 1.356 . S
C1125 C1119 1.363 . S
C1125 C1120 1.379 . S
C1125 N1123 1.356 . S
N1126 C1118 1.356 . S
N1126 H1132 0.984 . S
N1126 H1133 0.984 . S
N1127 C1120 1.356 . S
N1127 H1130 0.984 . S
N1127 H1131 0.985 . S
H1128 N1123 0.984 . S
H1129 N1123 0.985 . S
H1130 N1127 0.984 . S
H1131 N1127 0.985 . S
H1132 N1126 0.984 . S
H1133 N1126 0.984 . S
H1134 N1122 0.984 . S
H1135 N1122 0.985 . S
C1136 C1137 1.363 . S
C1136 C1142 1.379 . S
C1136 N1144 1.356 . S
C1137 C1136 1.363 . S
C1137 C1143 1.363 . S
C1138 C1139 1.363 . S
C1138 C1143 1.379 . S
C1138 N1145 1.356 . S
C1139 C1138 1.363 . S
C1139 C1142 1.363 . S
N1140 C1142 1.356 . S
N1140 H1152 0.984 . S
N1140 H1153 0.985 . S
N1141 C1143 1.356 . S
N1141 H1146 0.984 . S
N1141 H1147 0.985 . S
C1142 C1136 1.379 . S
C1142 C1139 1.363 . S
C1142 N1140 1.356 . S
C1143 C1137 1.363 . S
C1143 C1138 1.379 . S
C1143 N1141 1.356 . S
N1144 C1136 1.356 . S
N1144 H1150 0.984 . S
N1144 H1151 0.984 . S
N1145 C1138 1.356 . S
N1145 H1148 0.984 . S
N1145 H1149 0.985 . S
H1146 N1141 0.984 . S
H1147 N1141 0.985 . S
H1148 N1145 0.984 . S
H1149 N1145 0.985 . S
H1150 N1144 0.984 . S
H1151 N1144 0.984 . S
H1152 N1140 0.984 . S
H1153 N1140 0.985 . S
C1154 C1155 1.363 . S
C1154 C1160 1.379 . S
C1154 N1162 1.356 . S
C1155 C1154 1.363 . S
C1155 C1161 1.363 . S
C1156 C1157 1.363 . S
C1156 C1161 1.379 . S
C1156 N1163 1.356 . S
C1157 C1156 1.363 . S
C1157 C1160 1.363 . S
N1158 C1160 1.356 . S
N1158 H1170 0.984 . S
N1158 H1171 0.985 . S
N1159 C1161 1.356 . S
N1159 H1164 0.984 . S
N1159 H1165 0.985 . S
C1160 C1154 1.379 . S
C1160 C1157 1.363 . S
C1160 N1158 1.356 . S
C1161 C1155 1.363 . S
C1161 C1156 1.379 . S
C1161 N1159 1.356 . S
N1162 C1154 1.356 . S
N1162 H1168 0.984 . S
N1162 H1169 0.984 . S
N1163 C1156 1.356 . S
N1163 H1166 0.984 . S
N1163 H1167 0.985 . S
H1164 N1159 0.984 . S
H1165 N1159 0.985 . S
H1166 N1163 0.984 . S
H1167 N1163 0.985 . S
H1168 N1162 0.984 . S
H1169 N1162 0.984 . S
H1170 N1158 0.984 . S
H1171 N1158 0.985 . S
C1172 C1173 1.363 . S
C1172 C1178 1.379 . S
C1172 N1180 1.356 . S
C1173 C1172 1.363 . S
C1173 C1179 1.363 . S
C1174 C1175 1.363 . S
C1174 C1179 1.379 . S
C1174 N1181 1.356 . S
C1175 C1174 1.363 . S
C1175 C1178 1.363 . S
N1176 C1178 1.356 . S
N1176 H1188 0.984 . S
N1176 H1189 0.985 . S
N1177 C1179 1.356 . S
N1177 H1182 0.984 . S
N1177 H1183 0.985 . S
C1178 C1172 1.379 . S
C1178 C1175 1.363 . S
C1178 N1176 1.356 . S
C1179 C1173 1.363 . S
C1179 C1174 1.379 . S
C1179 N1177 1.356 . S
N1180 C1172 1.356 . S
N1180 H1186 0.984 . S
N1180 H1187 0.984 . S
N1181 C1174 1.356 . S
N1181 H1184 0.984 . S
N1181 H1185 0.985 . S
H1182 N1177 0.984 . S
H1183 N1177 0.985 . S
H1184 N1181 0.984 . S
H1185 N1181 0.985 . S
H1186 N1180 0.984 . S
H1187 N1180 0.984 . S
H1188 N1176 0.984 . S
H1189 N1176 0.985 . S
C1190 C1191 1.363 . S
C1190 C1196 1.379 . S
C1190 N1198 1.356 . S
C1191 C1190 1.363 . S
C1191 C1197 1.363 . S
C1192 C1193 1.363 . S
C1192 C1197 1.379 . S
C1192 N1199 1.356 . S
C1193 C1192 1.363 . S
C1193 C1196 1.363 . S
N1194 C1196 1.356 . S
N1194 H1206 0.984 . S
N1194 H1207 0.985 . S
N1195 C1197 1.356 . S
N1195 H1200 0.984 . S
N1195 H1201 0.985 . S
C1196 C1190 1.379 . S
C1196 C1193 1.363 . S
C1196 N1194 1.356 . S
C1197 C1191 1.363 . S
C1197 C1192 1.379 . S
C1197 N1195 1.356 . S
N1198 C1190 1.356 . S
N1198 H1204 0.984 . S
N1198 H1205 0.984 . S
N1199 C1192 1.356 . S
N1199 H1202 0.984 . S
N1199 H1203 0.985 . S
H1200 N1195 0.984 . S
H1201 N1195 0.985 . S
H1202 N1199 0.984 . S
H1203 N1199 0.985 . S
H1204 N1198 0.984 . S
H1205 N1198 0.984 . S
H1206 N1194 0.984 . S
H1207 N1194 0.985 . S
C1208 C1209 1.363 . S
C1208 C1214 1.379 . S
C1208 N1216 1.356 . S
C1209 C1208 1.363 . S
C1209 C1215 1.363 . S
C1210 C1211 1.363 . S
C1210 C1215 1.379 . S
C1210 N1217 1.356 . S
C1211 C1210 1.363 . S
C1211 C1214 1.363 . S
N1212 C1214 1.356 . S
N1212 H1224 0.984 . S
N1212 H1225 0.985 . S
N1213 C1215 1.356 . S
N1213 H1218 0.984 . S
N1213 H1219 0.985 . S
C1214 C1208 1.379 . S
C1214 C1211 1.363 . S
C1214 N1212 1.356 . S
C1215 C1209 1.363 . S
C1215 C1210 1.379 . S
C1215 N1213 1.356 . S
N1216 C1208 1.356 . S
N1216 H1222 0.984 . S
N1216 H1223 0.984 . S
N1217 C1210 1.356 . S
N1217 H1220 0.984 . S
N1217 H1221 0.985 . S
H1218 N1213 0.984 . S
H1219 N1213 0.985 . S
H1220 N1217 0.984 . S
H1221 N1217 0.985 . S
H1222 N1216 0.984 . S
H1223 N1216 0.984 . S
H1224 N1212 0.984 . S
H1225 N1212 0.985 . S
C1226 C1227 1.363 . S
C1226 C1232 1.379 . S
C1226 N1234 1.356 . S
C1227 C1226 1.363 . S
C1227 C1233 1.363 . S
C1228 C1229 1.363 . S
C1228 C1233 1.379 . S
C1228 N1235 1.356 . S
C1229 C1228 1.363 . S
C1229 C1232 1.363 . S
N1230 C1232 1.356 . S
N1230 H1242 0.984 . S
N1230 H1243 0.985 . S
N1231 C1233 1.356 . S
N1231 H1236 0.984 . S
N1231 H1237 0.985 . S
C1232 C1226 1.379 . S
C1232 C1229 1.363 . S
C1232 N1230 1.356 . S
C1233 C1227 1.363 . S
C1233 C1228 1.379 . S
C1233 N1231 1.356 . S
N1234 C1226 1.356 . S
N1234 H1240 0.984 . S
N1234 H1241 0.984 . S
N1235 C1228 1.356 . S
N1235 H1238 0.984 . S
N1235 H1239 0.985 . S
H1236 N1231 0.984 . S
H1237 N1231 0.985 . S
H1238 N1235 0.984 . S
H1239 N1235 0.985 . S
H1240 N1234 0.984 . S
H1241 N1234 0.984 . S
H1242 N1230 0.984 . S
H1243 N1230 0.985 . S
C1244 C1245 1.363 . S
C1244 C1250 1.379 . S
C1244 N1252 1.356 . S
C1245 C1244 1.363 . S
C1245 C1251 1.363 . S
C1246 C1247 1.363 . S
C1246 C1251 1.379 . S
C1246 N1253 1.356 . S
C1247 C1246 1.363 . S
C1247 C1250 1.363 . S
N1248 C1250 1.356 . S
N1248 H1260 0.984 . S
N1248 H1261 0.985 . S
N1249 C1251 1.356 . S
N1249 H1254 0.984 . S
N1249 H1255 0.985 . S
C1250 C1244 1.379 . S
C1250 C1247 1.363 . S
C1250 N1248 1.356 . S
C1251 C1245 1.363 . S
C1251 C1246 1.379 . S
C1251 N1249 1.356 . S
N1252 C1244 1.356 . S
N1252 H1258 0.984 . S
N1252 H1259 0.984 . S
N1253 C1246 1.356 . S
N1253 H1256 0.984 . S
N1253 H1257 0.985 . S
H1254 N1249 0.984 . S
H1255 N1249 0.985 . S
H1256 N1253 0.984 . S
H1257 N1253 0.985 . S
H1258 N1252 0.984 . S
H1259 N1252 0.984 . S
H1260 N1248 0.984 . S
H1261 N1248 0.985 . S
C1262 C1263 1.363 . S
C1262 C1268 1.379 . S
C1262 N1270 1.356 . S
C1263 C1262 1.363 . S
C1263 C1269 1.363 . S
C1264 C1265 1.363 . S
C1264 C1269 1.379 . S
C1264 N1271 1.356 . S
C1265 C1264 1.363 . S
C1265 C1268 1.363 . S
N1266 C1268 1.356 . S
N1266 H1278 0.984 . S
N1266 H1279 0.985 . S
N1267 C1269 1.356 . S
N1267 H1272 0.984 . S
N1267 H1273 0.985 . S
C1268 C1262 1.379 . S
C1268 C1265 1.363 . S
C1268 N1266 1.356 . S
C1269 C1263 1.363 . S
C1269 C1264 1.379 . S
C1269 N1267 1.356 . S
N1270 C1262 1.356 . S
N1270 H1276 0.984 . S
N1270 H1277 0.984 . S
N1271 C1264 1.356 . S
N1271 H1274 0.984 . S
N1271 H1275 0.985 . S
H1272 N1267 0.984 . S
H1273 N1267 0.985 . S
H1274 N1271 0.984 . S
H1275 N1271 0.985 . S
H1276 N1270 0.984 . S
H1277 N1270 0.984 . S
H1278 N1266 0.984 . S
H1279 N1266 0.985 . S
C1280 C1281 1.363 . S
C1280 C1286 1.379 . S
C1280 N1288 1.356 . S
C1281 C1280 1.363 . S
C1281 C1287 1.363 . S
C1282 C1283 1.363 . S
C1282 C1287 1.379 . S
C1282 N1289 1.356 . S
C1283 C1282 1.363 . S
C1283 C1286 1.363 . S
N1284 C1286 1.356 . S
N1284 H1296 0.984 . S
N1284 H1297 0.985 . S
N1285 C1287 1.356 . S
N1285 H1290 0.984 . S
N1285 H1291 0.985 . S
C1286 C1280 1.379 . S
C1286 C1283 1.363 . S
C1286 N1284 1.356 . S
C1287 C1281 1.363 . S
C1287 C1282 1.379 . S
C1287 N1285 1.356 . S
N1288 C1280 1.356 . S
N1288 H1294 0.984 . S
N1288 H1295 0.984 . S
N1289 C1282 1.356 . S
N1289 H1292 0.984 . S
N1289 H1293 0.985 . S
H1290 N1285 0.984 . S
H1291 N1285 0.985 . S
H1292 N1289 0.984 . S
H1293 N1289 0.985 . S
H1294 N1288 0.984 . S
H1295 N1288 0.984 . S
H1296 N1284 0.984 . S
H1297 N1284 0.985 . S
C1298 C1299 1.363 . S
C1298 C1304 1.379 . S
C1298 N1306 1.356 . S
C1299 C1298 1.363 . S
C1299 C1305 1.363 . S
C1300 C1301 1.363 . S
C1300 C1305 1.379 . S
C1300 N1307 1.356 . S
C1301 C1300 1.363 . S
C1301 C1304 1.363 . S
N1302 C1304 1.356 . S
N1302 H1314 0.984 . S
N1302 H1315 0.985 . S
N1303 C1305 1.356 . S
N1303 H1308 0.984 . S
N1303 H1309 0.985 . S
C1304 C1298 1.379 . S
C1304 C1301 1.363 . S
C1304 N1302 1.356 . S
C1305 C1299 1.363 . S
C1305 C1300 1.379 . S
C1305 N1303 1.356 . S
N1306 C1298 1.356 . S
N1306 H1312 0.984 . S
N1306 H1313 0.984 . S
N1307 C1300 1.356 . S
N1307 H1310 0.984 . S
N1307 H1311 0.985 . S
H1308 N1303 0.984 . S
H1309 N1303 0.985 . S
H1310 N1307 0.984 . S
H1311 N1307 0.985 . S
H1312 N1306 0.984 . S
H1313 N1306 0.984 . S
H1314 N1302 0.984 . S
H1315 N1302 0.985 . S
C1316 C1317 1.363 . S
C1316 C1322 1.379 . S
C1316 N1324 1.356 . S
C1317 C1316 1.363 . S
C1317 C1323 1.363 . S
C1318 C1319 1.363 . S
C1318 C1323 1.379 . S
C1318 N1325 1.356 . S
C1319 C1318 1.363 . S
C1319 C1322 1.363 . S
N1320 C1322 1.356 . S
N1320 H1332 0.984 . S
N1320 H1333 0.985 . S
N1321 C1323 1.356 . S
N1321 H1326 0.984 . S
N1321 H1327 0.985 . S
C1322 C1316 1.379 . S
C1322 C1319 1.363 . S
C1322 N1320 1.356 . S
C1323 C1317 1.363 . S
C1323 C1318 1.379 . S
C1323 N1321 1.356 . S
N1324 C1316 1.356 . S
N1324 H1330 0.984 . S
N1324 H1331 0.984 . S
N1325 C1318 1.356 . S
N1325 H1328 0.984 . S
N1325 H1329 0.985 . S
H1326 N1321 0.984 . S
H1327 N1321 0.985 . S
H1328 N1325 0.984 . S
H1329 N1325 0.985 . S
H1330 N1324 0.984 . S
H1331 N1324 0.984 . S
H1332 N1320 0.984 . S
H1333 N1320 0.985 . S
C473 C299 0.687 . S
C471 C4 0.441 . S
C491 C300 1.809 . S
C489 C63 1.961 . S
C509 C294 1.201 . S
C507 C72 1.227 . S
C525 C102 1.307 . S
C527 C293 1.294 . S
C543 C136 1.961 . S
C545 C296 1.809 . S
C563 C298 1.201 . S
C561 C183 1.225 . S
C579 C233 1.307 . S
C581 C297 1.295 . S
C597 C251 0.443 . S
C599 C295 0.688 . S
C617 C330 1.579 . S
C615 C29 1.575 . S
C633 C42 2.209 . S
C635 C361 2.161 . S
C653 C329 1.573 . S
C651 C97 1.615 . S
C671 C364 1.389 . S
C669 C115 1.372 . S
C687 C149 1.388 . S
C689 C327 1.463 . S
C707 C359 1.574 . S
C705 C187 1.597 . S
C723 C212 2.053 . S
C725 C332 2.076 . S
C741 C255 1.556 . S
C743 C366 1.468 . S
C759 C8 1.556 . S
C761 C362 1.466 . S
C777 C153 2.209 . S
C779 C365 2.159 . S
C797 C333 1.573 . S
C795 C170 1.616 . S
C815 C360 1.389 . S
C813 C208 1.375 . S
C831 C238 1.577 . S
C833 C326 1.580 . S
C849 C76 1.597 . S
C851 C363 1.574 . S
C869 C328 2.077 . S
C867 C119 2.053 . S
C885 C38 1.388 . S
C887 C331 1.461 . S
C903 C242 0.403 . S
C905 C398 0.659 . S
C921 C165 1.580 . S
C923 C399 1.443 . S
C941 C393 1.192 . S
C939 C174 1.217 . S
C959 C392 1.647 . S
C957 C204 1.679 . S
C975 C34 1.580 . S
C977 C395 1.441 . S
C995 C397 1.192 . S
C993 C81 1.215 . S
C1011 C131 1.678 . S
C1013 C396 1.646 . S
C1029 C13 0.403 . S
C1031 C394 0.661 . S
C1047 C267 1.746 . S
C1049 C432 1.653 . S
C1067 C464 2.088 . S
C1065 C144 2.062 . S
C1083 C199 1.401 . S
C1085 C425 1.394 . S
C1101 C217 1.451 . S
C1103 C459 1.548 . S
C1121 C430 1.368 . S
C1119 C47 1.328 . S
C1137 C85 1.896 . S
C1139 C461 1.837 . S
C1157 C427 2.176 . S
C1155 C110 2.213 . S
C1175 C462 1.442 . S
C1173 C17 1.432 . S
C1193 C458 1.442 . S
C1191 C246 1.434 . S
C1209 C51 2.061 . S
C1211 C460 2.087 . S
C1227 C68 1.401 . S
C1229 C429 1.395 . S
C1247 C463 1.549 . S
C1245 C106 1.452 . S
C1263 C0 1.746 . S
C1265 C428 1.652 . S
C1281 C178 1.896 . S
C1283 C465 1.835 . S
C1301 C431 2.176 . S
C1299 C221 2.215 . S
C1319 C426 1.368 . S
C1317 C140 1.326 . S
