# Generated by pormake.
# Topology ocu, (6,8)-cn, num edge types: 1
# Building blocks:
#     Node 0, Type 0, BuildingBlock: NUHQIS_clean_sbu_0, # of connection points: 6
#     Node 1, Type 0, BuildingBlock: NUHQIS_clean_sbu_0, # of connection points: 6
#     Node 2, Type 0, BuildingBlock: NUHQIS_clean_sbu_0, # of connection points: 6
#     Node 3, Type 0, BuildingBlock: NUHQIS_clean_sbu_0, # of connection points: 6
#     Node 4, Type 0, BuildingBlock: NUHQIS_clean_sbu_0, # of connection points: 6
#     Node 5, Type 0, BuildingBlock: NUHQIS_clean_sbu_0, # of connection points: 6
#     Node 6, Type 0, BuildingBlock: NUHQIS_clean_sbu_0, # of connection points: 6
#     Node 7, Type 0, BuildingBlock: NUHQIS_clean_sbu_0, # of connection points: 6
#     Node 8, Type 1, BuildingBlock: TAGTUT_clean_sbu_1, # of connection points: 8
#     Node 9, Type 1, BuildingBlock: TAGTUT_clean_sbu_1, # of connection points: 8
#     Node 10, Type 1, BuildingBlock: TAGTUT_clean_sbu_1, # of connection points: 8
#     Node 11, Type 1, BuildingBlock: TAGTUT_clean_sbu_1, # of connection points: 8
#     Node 12, Type 1, BuildingBlock: TAGTUT_clean_sbu_1, # of connection points: 8
#     Node 13, Type 1, BuildingBlock: TAGTUT_clean_sbu_1, # of connection points: 8
#     Edge 14, Type (0, 1), BuildingBlock: AJUNOK_clean_linker_0, # of connection points: 2
#     Edge 15, Type (0, 1), BuildingBlock: AJUNOK_clean_linker_0, # of connection points: 2
#     Edge 16, Type (0, 1), BuildingBlock: AJUNOK_clean_linker_0, # of connection points: 2
#     Edge 17, Type (0, 1), BuildingBlock: AJUNOK_clean_linker_0, # of connection points: 2
#     Edge 18, Type (0, 1), BuildingBlock: AJUNOK_clean_linker_0, # of connection points: 2
#     Edge 19, Type (0, 1), BuildingBlock: AJUNOK_clean_linker_0, # of connection points: 2
#     Edge 20, Type (0, 1), BuildingBlock: AJUNOK_clean_linker_0, # of connection points: 2
#     Edge 21, Type (0, 1), BuildingBlock: AJUNOK_clean_linker_0, # of connection points: 2
#     Edge 22, Type (0, 1), BuildingBlock: AJUNOK_clean_linker_0, # of connection points: 2
#     Edge 23, Type (0, 1), BuildingBlock: AJUNOK_clean_linker_0, # of connection points: 2
#     Edge 24, Type (0, 1), BuildingBlock: AJUNOK_clean_linker_0, # of connection points: 2
#     Edge 25, Type (0, 1), BuildingBlock: AJUNOK_clean_linker_0, # of connection points: 2
#     Edge 26, Type (0, 1), BuildingBlock: AJUNOK_clean_linker_0, # of connection points: 2
#     Edge 27, Type (0, 1), BuildingBlock: AJUNOK_clean_linker_0, # of connection points: 2
#     Edge 28, Type (0, 1), BuildingBlock: AJUNOK_clean_linker_0, # of connection points: 2
#     Edge 29, Type (0, 1), BuildingBlock: AJUNOK_clean_linker_0, # of connection points: 2
#     Edge 30, Type (0, 1), BuildingBlock: AJUNOK_clean_linker_0, # of connection points: 2
#     Edge 31, Type (0, 1), BuildingBlock: AJUNOK_clean_linker_0, # of connection points: 2
#     Edge 32, Type (0, 1), BuildingBlock: AJUNOK_clean_linker_0, # of connection points: 2
#     Edge 33, Type (0, 1), BuildingBlock: AJUNOK_clean_linker_0, # of connection points: 2
#     Edge 34, Type (0, 1), BuildingBlock: AJUNOK_clean_linker_0, # of connection points: 2
#     Edge 35, Type (0, 1), BuildingBlock: AJUNOK_clean_linker_0, # of connection points: 2
#     Edge 36, Type (0, 1), BuildingBlock: AJUNOK_clean_linker_0, # of connection points: 2
#     Edge 37, Type (0, 1), BuildingBlock: AJUNOK_clean_linker_0, # of connection points: 2
#     Edge 38, Type (0, 1), BuildingBlock: AJUNOK_clean_linker_0, # of connection points: 2
#     Edge 39, Type (0, 1), BuildingBlock: AJUNOK_clean_linker_0, # of connection points: 2
#     Edge 40, Type (0, 1), BuildingBlock: AJUNOK_clean_linker_0, # of connection points: 2
#     Edge 41, Type (0, 1), BuildingBlock: AJUNOK_clean_linker_0, # of connection points: 2
#     Edge 42, Type (0, 1), BuildingBlock: AJUNOK_clean_linker_0, # of connection points: 2
#     Edge 43, Type (0, 1), BuildingBlock: AJUNOK_clean_linker_0, # of connection points: 2
#     Edge 44, Type (0, 1), BuildingBlock: AJUNOK_clean_linker_0, # of connection points: 2
#     Edge 45, Type (0, 1), BuildingBlock: AJUNOK_clean_linker_0, # of connection points: 2
#     Edge 46, Type (0, 1), BuildingBlock: AJUNOK_clean_linker_0, # of connection points: 2
#     Edge 47, Type (0, 1), BuildingBlock: AJUNOK_clean_linker_0, # of connection points: 2
#     Edge 48, Type (0, 1), BuildingBlock: AJUNOK_clean_linker_0, # of connection points: 2
#     Edge 49, Type (0, 1), BuildingBlock: AJUNOK_clean_linker_0, # of connection points: 2
#     Edge 50, Type (0, 1), BuildingBlock: AJUNOK_clean_linker_0, # of connection points: 2
#     Edge 51, Type (0, 1), BuildingBlock: AJUNOK_clean_linker_0, # of connection points: 2
#     Edge 52, Type (0, 1), BuildingBlock: AJUNOK_clean_linker_0, # of connection points: 2
#     Edge 53, Type (0, 1), BuildingBlock: AJUNOK_clean_linker_0, # of connection points: 2
#     Edge 54, Type (0, 1), BuildingBlock: AJUNOK_clean_linker_0, # of connection points: 2
#     Edge 55, Type (0, 1), BuildingBlock: AJUNOK_clean_linker_0, # of connection points: 2
#     Edge 56, Type (0, 1), BuildingBlock: AJUNOK_clean_linker_0, # of connection points: 2
#     Edge 57, Type (0, 1), BuildingBlock: AJUNOK_clean_linker_0, # of connection points: 2
#     Edge 58, Type (0, 1), BuildingBlock: AJUNOK_clean_linker_0, # of connection points: 2
#     Edge 59, Type (0, 1), BuildingBlock: AJUNOK_clean_linker_0, # of connection points: 2
#     Edge 60, Type (0, 1), BuildingBlock: AJUNOK_clean_linker_0, # of connection points: 2
#     Edge 61, Type (0, 1), BuildingBlock: AJUNOK_clean_linker_0, # of connection points: 2
# Relax obj value: 0.191
# Max RMSD: 0.268
# Mean RMSD: 0.132
data_MOF--net-ocu--node1-NUHQIS_clean_sbu_0--node2-TAGTUT_clean_sbu_1--edge1-AJUNOK_clean_linker_0
_symmetry_space_group_name_H-M    P1
_symmetry_Int_Tables_number       1
_symmetry_cell_setting            triclinic
loop_
_symmetry_equiv_pos_as_xyz
'x, y, z'
_cell_length_a     30.455798
_cell_length_b     30.791349
_cell_length_c     31.723445
_cell_angle_alpha  97.68244
_cell_angle_beta   84.870868
_cell_angle_gamma 117.54033
loop_
_atom_site_label
_atom_site_type_symbol
_atom_site_fract_x
_atom_site_fract_y
_atom_site_fract_z
_atom_type_partial_charge
Tb0 Tb 0.27178 0.24496 0.29072 0.0
Eu1 Eu 0.36328 0.3069 0.35082 0.0
C2 C 0.36652 0.21899 0.27387 0.0
C3 C 0.27179 0.20618 0.37601 0.0
C4 C 0.15973 0.21188 0.23163 0.0
C5 C 0.1316 0.22993 0.17018 0.0
C6 C 0.15511 0.20714 0.18747 0.0
C7 C 0.13632 0.23571 0.25842 0.0
C8 C 0.11295 0.25863 0.24107 0.0
C9 C 0.11246 0.25773 0.1969 0.0
C10 C 0.19402 0.19752 0.24857 0.0
O11 O 0.24758 0.29694 0.33399 0.0
O12 O 0.31604 0.34816 0.37272 0.0
O13 O 0.38537 0.35084 0.29456 0.0
O14 O 0.31554 0.30861 0.25522 0.0
C15 C 0.2698 0.3357 0.36324 0.0
O16 O 0.39787 0.31262 0.40982 0.0
O17 O 0.43583 0.36828 0.36687 0.0
O18 O 0.38677 0.25172 0.30749 0.0
O19 O 0.32222 0.21157 0.26227 0.0
O20 O 0.26519 0.19409 0.3352 0.0
O21 O 0.30195 0.25155 0.38999 0.0
C22 C 0.36051 0.34492 0.26084 0.0
O23 O 0.23859 0.21614 0.23147 0.0
O24 O 0.19488 0.19987 0.28983 0.0
C25 C 0.48261 0.34127 0.40125 0.0
C26 C 0.54144 0.2958 0.41181 0.0
C27 C 0.53805 0.33038 0.44402 0.0
C28 C 0.5082 0.35266 0.43891 0.0
C29 C 0.49069 0.31128 0.36754 0.0
C30 C 0.51915 0.28795 0.373 0.0
C31 C 0.43942 0.34997 0.40034 0.0
H32 H 0.13167 0.2289 0.1359 0.0
H33 H 0.1725 0.18856 0.16624 0.0
H34 H 0.13837 0.23898 0.29261 0.0
H35 H 0.09755 0.27927 0.26191 0.0
H36 H 0.55413 0.33624 0.47466 0.0
H37 H 0.50185 0.37531 0.46551 0.0
H38 H 0.47117 0.30248 0.33847 0.0
H39 H 0.52068 0.26081 0.34835 0.0
Tb40 Tb 0.87771 0.27858 0.31819 0.0
Eu41 Eu 0.77574 0.28231 0.29994 0.0
C42 C 0.82142 0.22339 0.23636 0.0
C43 C 0.87922 0.35507 0.2585 0.0
C44 C 0.98171 0.24804 0.32837 0.0
C45 C 1.01673 0.21595 0.37384 0.0
C46 C 0.99641 0.24685 0.36856 0.0
C47 C 0.98829 0.21801 0.29325 0.0
C48 C 1.00829 0.18646 0.29872 0.0
C49 C 1.02286 0.18568 0.33906 0.0
C50 C 0.96141 0.28202 0.3235 0.0
O51 O 0.85421 0.30748 0.37653 0.0
O52 O 0.81678 0.34502 0.34775 0.0
O53 O 0.75317 0.21414 0.33287 0.0
O54 O 0.8255 0.21976 0.3556 0.0
C55 C 0.83402 0.33721 0.38044 0.0
O56 O 0.71276 0.28879 0.33243 0.0
O57 O 0.71391 0.27323 0.26378 0.0
O58 O 0.7951 0.24738 0.24064 0.0
O59 O 0.84343 0.22001 0.26832 0.0
O60 O 0.89954 0.34685 0.28945 0.0
O61 O 0.83083 0.3346 0.25564 0.0
C62 C 0.77668 0.20041 0.35676 0.0
O63 O 0.94036 0.27586 0.28777 0.0
O64 O 0.93647 0.29126 0.35597 0.0
C65 C 0.67749 0.32385 0.29444 0.0
C66 C 0.65009 0.39839 0.29034 0.0
C67 C 0.62953 0.36674 0.32237 0.0
C68 C 0.64309 0.32947 0.32431 0.0
C69 C 0.69952 0.3568 0.26355 0.0
C70 C 0.68571 0.39351 0.26138 0.0
C71 C 0.69188 0.28512 0.29721 0.0
H72 H 1.02694 0.21504 0.40546 0.0
H73 H 0.99242 0.26996 0.39599 0.0
H74 H 0.97782 0.21867 0.26169 0.0
H75 H 1.01225 0.16278 0.27177 0.0
H76 H 0.60235 0.37027 0.34504 0.0
H77 H 0.62648 0.30471 0.34879 0.0
H78 H 0.72683 0.35382 0.24062 0.0
H79 H 0.70148 0.4169 0.23579 0.0
Tb80 Tb 0.76468 0.74075 0.32873 0.0
Eu81 Eu 0.869 0.82254 0.3009 0.0
C82 C 0.80232 0.72868 0.24041 0.0
C83 C 0.86057 0.73633 0.3652 0.0
C84 C 0.65686 0.67813 0.39422 0.0
C85 C 0.67876 0.72267 0.46426 0.0
C86 C 0.68835 0.69576 0.42899 0.0
C87 C 0.61103 0.67892 0.39883 0.0
C88 C 0.60157 0.70602 0.43406 0.0
C89 C 0.63772 0.7317 0.46482 0.0
C90 C 0.67918 0.67949 0.3513 0.0
O91 O 0.78953 0.79189 0.38537 0.0
O92 O 0.84197 0.86022 0.3541 0.0
O93 O 0.81968 0.85193 0.27486 0.0
O94 O 0.74594 0.7835 0.28365 0.0
C95 C 0.81918 0.8391 0.38808 0.0
O96 O 0.94059 0.88376 0.31985 0.0
O97 O 0.92639 0.85769 0.25339 0.0
O98 O 0.83296 0.77539 0.24047 0.0
O99 O 0.79521 0.71047 0.2764 0.0
O100 O 0.81171 0.72157 0.36739 0.0
O101 O 0.88752 0.77082 0.33888 0.0
C102 C 0.77143 0.82732 0.26755 0.0
O103 O 0.68873 0.71955 0.33483 0.0
O104 O 0.71655 0.66948 0.34579 0.0
C105 C 1.00299 0.87442 0.27591 0.0
C106 C 1.04183 0.81231 0.23752 0.0
C107 C 0.05066 0.85458 0.21875 0.0
C108 C 1.03118 0.88563 0.23794 0.0
C109 C 1.00322 0.83837 0.29864 0.0
C110 C 1.02193 0.80682 0.27921 0.0
C111 C 0.95994 0.88398 0.28146 0.0
H112 H 0.70612 0.7412 0.48855 0.0
H113 H 0.72377 0.69512 0.42643 0.0
H114 H 0.58624 0.66546 0.37241 0.0
H115 H 0.56928 0.71219 0.43429 0.0
H116 H 0.06729 0.86023 0.18702 0.0
H117 H 1.03183 0.91363 0.22014 0.0
H118 H 0.98262 0.82981 0.32856 0.0
H119 H 1.01504 0.77485 0.29466 0.0
Tb120 Tb 0.34573 0.74041 0.33356 0.0
Eu121 Eu 0.31134 0.80448 0.28333 0.0
C122 C 0.35509 0.8421 0.37727 0.0
C123 C 0.23822 0.72349 0.33806 0.0
C124 C 0.35356 0.63292 0.34589 0.0
C125 C 0.30806 0.58309 0.28352 0.0
C126 C 0.30852 0.60641 0.32449 0.0
C127 C 0.39399 0.6245 0.3308 0.0
C128 C 0.39365 0.60161 0.28969 0.0
C129 C 0.35222 0.58554 0.26452 0.0
C130 C 0.36485 0.68239 0.3671 0.0
O131 O 0.33544 0.70269 0.26867 0.0
O132 O 0.28728 0.73225 0.24243 0.0
O133 O 0.37902 0.80358 0.25152 0.0
O134 O 0.41192 0.80316 0.31274 0.0
C135 C 0.3059 0.70104 0.23992 0.0
O136 O 0.25891 0.80996 0.24479 0.0
O137 O 0.32726 0.87488 0.26152 0.0
O138 O 0.35477 0.85514 0.33956 0.0
O139 O 0.34195 0.79588 0.38247 0.0
O140 O 0.26675 0.7031 0.32431 0.0
O141 O 0.25352 0.77004 0.33424 0.0
C142 C 0.41747 0.81386 0.27345 0.0
O143 O 0.39795 0.71774 0.34605 0.0
O144 O 0.32697 0.69052 0.37954 0.0
C145 C 0.25252 0.88079 0.27428 0.0
C146 C 0.2051 0.8897 0.35221 0.0
C147 C 0.25267 0.9267 0.34261 0.0
C148 C 0.27651 0.92209 0.30388 0.0
C149 C 0.20137 0.85116 0.27993 0.0
C150 C 0.17819 0.85435 0.31923 0.0
C151 C 0.28163 0.8581 0.24984 0.0
H152 H 0.27534 0.56936 0.26489 0.0
H153 H 0.276 0.61074 0.33587 0.0
H154 H 0.42882 0.64366 0.34699 0.0
H155 H 0.42794 0.60294 0.27557 0.0
H156 H 0.273 0.95695 0.36614 0.0
H157 H 0.31544 0.94722 0.29959 0.0
H158 H 0.18138 0.82052 0.25662 0.0
H159 H 0.14081 0.82621 0.32477 0.0
Tb160 Tb 0.35697 0.76389 0.7926 0.0
Eu161 Eu 0.28656 0.81483 0.83212 0.0
C162 C 0.26322 0.74258 0.73908 0.0
C163 C 0.36785 0.86307 0.75868 0.0
C164 C 0.44468 0.71014 0.78618 0.0
C165 C 0.5205 0.71801 0.81311 0.0
C166 C 0.49605 0.73664 0.79151 0.0
C167 C 0.41845 0.6638 0.80144 0.0
C168 C 0.44268 0.64562 0.82366 0.0
C169 C 0.49379 0.67292 0.83041 0.0
C170 C 0.41865 0.73221 0.76677 0.0
O171 O 0.38531 0.79878 0.85759 0.0
O172 O 0.3504 0.85085 0.87802 0.0
O173 O 0.27745 0.75811 0.87449 0.0
O174 O 0.30132 0.70779 0.82961 0.0
C175 C 0.38161 0.83393 0.88468 0.0
O176 O 0.26387 0.87236 0.85302 0.0
O177 O 0.21258 0.79578 0.85914 0.0
O178 O 0.25233 0.77116 0.76857 0.0
O179 O 0.30108 0.73385 0.74305 0.0
O180 O 0.37626 0.82455 0.75476 0.0
O181 O 0.33862 0.87016 0.78871 0.0
C182 C 0.27997 0.71664 0.86507 0.0
O183 O 0.37083 0.7061 0.7635 0.0
O184 O 0.43104 0.77829 0.77977 0.0
C185 C 0.17951 0.84609 0.84171 0.0
C186 C 0.11632 0.86645 0.79761 0.0
C187 C 0.13138 0.89006 0.83863 0.0
C188 C 0.16296 0.87997 0.86053 0.0
C189 C 0.16115 0.81959 0.80235 0.0
C190 C 0.12961 0.82951 0.78059 0.0
C191 C 0.2182 0.84068 0.86153 0.0
H192 H 0.55981 0.73994 0.81813 0.0
H193 H 0.51698 0.77276 0.78069 0.0
H194 H 0.37879 0.64244 0.79801 0.0
H195 H 0.4206 0.61157 0.83781 0.0
H196 H 0.12093 0.91813 0.85266 0.0
H197 H 0.17621 0.90016 0.89123 0.0
H198 H 0.17306 0.79289 0.78744 0.0
H199 H 0.11861 0.81081 0.74903 0.0
Tb200 Tb 0.3479 0.33462 0.77902 0.0
Eu201 Eu 0.32239 0.24014 0.83185 0.0
C202 C 0.40927 0.34305 0.8566 0.0
C203 C 0.3986 0.26632 0.75023 0.0
C204 C 0.3147 0.41266 0.72537 0.0
C205 C 0.27236 0.41615 0.66534 0.0
C206 C 0.31164 0.41246 0.68145 0.0
C207 C 0.2777 0.41718 0.75294 0.0
C208 C 0.23865 0.42141 0.7368 0.0
C209 C 0.23548 0.42066 0.6928 0.0
C210 C 0.35439 0.40462 0.74148 0.0
O211 O 0.30279 0.26909 0.73883 0.0
O212 O 0.25967 0.21411 0.78765 0.0
O213 O 0.28984 0.28675 0.86865 0.0
O214 O 0.27546 0.31414 0.81087 0.0
C215 C 0.26678 0.22704 0.74884 0.0
O216 O 0.30547 0.16362 0.83533 0.0
O217 O 0.3138 0.21232 0.89325 0.0
O218 O 0.39966 0.29727 0.84535 0.0
O219 O 0.38674 0.36293 0.83869 0.0
O220 O 0.40591 0.31256 0.75573 0.0
O221 O 0.36476 0.23234 0.77243 0.0
C222 C 0.26757 0.30724 0.85133 0.0
O223 O 0.35639 0.40677 0.78261 0.0
O224 O 0.3603 0.36753 0.72215 0.0
C225 C 0.34755 0.15765 0.89101 0.0
C226 C 0.41906 0.13947 0.92463 0.0
C227 C 0.3683 0.11069 0.9338 0.0
C228 C 0.33278 0.11986 0.91719 0.0
C229 C 0.39806 0.18542 0.88062 0.0
C230 C 0.43363 0.17645 0.89739 0.0
C231 C 0.3109 0.17012 0.87636 0.0
H232 H 0.27105 0.416 0.63129 0.0
H233 H 0.33938 0.40879 0.65948 0.0
H234 H 0.27847 0.41685 0.78697 0.0
H235 H 0.21059 0.42462 0.75862 0.0
H236 H 0.3562 0.08216 0.955 0.0
H237 H 0.29397 0.09822 0.92555 0.0
H238 H 0.40997 0.21464 0.86019 0.0
H239 H 0.47245 0.1987 0.88951 0.0
Tb240 Tb 0.86795 0.28279 0.82221 0.0
Eu241 Eu 0.76904 0.29032 0.81521 0.0
C242 C 0.8439 0.35174 0.88771 0.0
C243 C 0.77289 0.21686 0.88009 0.0
C244 C 0.98793 0.29857 0.78861 0.0
C245 C 1.00554 0.25123 0.72903 0.0
C246 C 1.00151 0.26169 0.77281 0.0
C247 C 0.99025 0.33196 0.76105 0.0
C248 C 0.99349 0.32108 0.71716 0.0
C249 C 0.99667 0.27811 0.70134 0.0
C250 C 0.95237 0.28859 0.82476 0.0
O251 O 0.83918 0.24106 0.76106 0.0
O252 O 0.75794 0.21938 0.77785 0.0
O253 O 0.81341 0.32209 0.755 0.0
O254 O 0.88858 0.34479 0.78173 0.0
C255 C 0.79203 0.21281 0.75404 0.0
O256 O 0.68844 0.25709 0.81034 0.0
O257 O 0.73217 0.33581 0.81151 0.0
O258 O 0.81997 0.35688 0.85819 0.0
O259 O 0.85351 0.31442 0.88339 0.0
O260 O 0.81455 0.22143 0.85939 0.0
O261 O 0.75336 0.24553 0.87253 0.0
C262 C 0.86203 0.34828 0.75248 0.0
O263 O 0.9421 0.32455 0.83994 0.0
O264 O 0.91221 0.24676 0.81852 0.0
C265 C 0.66712 0.3079 0.86104 0.0
C266 C 0.68966 0.35242 0.9445 0.0
C267 C 0.67859 0.37562 0.91447 0.0
C268 C 0.66784 0.35367 0.87279 0.0
C269 C 0.66757 0.28083 0.89315 0.0
C270 C 0.68103 0.30351 0.93409 0.0
C271 C 0.68868 0.29981 0.81926 0.0
H272 H 1.00961 0.21862 0.71685 0.0
H273 H 1.00087 0.2361 0.79352 0.0
H274 H 0.98214 0.36216 0.77283 0.0
H275 H 0.98816 0.34296 0.69596 0.0
H276 H 0.68202 0.41238 0.9222 0.0
H277 H 0.66672 0.3751 0.84883 0.0
H278 H 0.66515 0.24472 0.88515 0.0
H279 H 0.68864 0.28389 0.95592 0.0
Tb280 Tb 0.77108 0.76195 0.79135 0.0
Eu281 Eu 0.87851 0.80764 0.83856 0.0
C282 C 0.85133 0.72485 0.75802 0.0
C283 C 0.78031 0.7144 0.86957 0.0
C284 C 0.65997 0.75867 0.7519 0.0
C285 C 0.6112 0.77612 0.70662 0.0
C286 C 0.63319 0.74725 0.71495 0.0
C287 C 0.66295 0.7983 0.78131 0.0
C288 C 0.64058 0.82692 0.7732 0.0
C289 C 0.61521 0.81672 0.73538 0.0
C290 C 0.68888 0.73259 0.75729 0.0
O291 O 0.76343 0.80385 0.84989 0.0
O292 O 0.84382 0.85657 0.86786 0.0
O293 O 0.89117 0.84727 0.78092 0.0
O294 O 0.81292 0.83633 0.77162 0.0
C295 C 0.79578 0.84213 0.87316 0.0
O296 O 0.92276 0.82537 0.89483 0.0
O297 O 0.95943 0.84288 0.83357 0.0
O298 O 0.87193 0.74002 0.79547 0.0
O299 O 0.81587 0.73488 0.7489 0.0
O300 O 0.76303 0.70544 0.83102 0.0
O301 O 0.82121 0.7541 0.88032 0.0
C302 C 0.861 0.85885 0.7637 0.0
O303 O 0.73106 0.7477 0.73616 0.0
O304 O 0.69327 0.72628 0.79616 0.0
C305 C 0.99696 0.81856 0.88208 0.0
C306 C 1.04759 0.76788 0.90337 0.0
C307 C 1.04079 0.80237 0.93343 0.0
C308 C 1.01558 0.82738 0.92289 0.0
C309 C 1.0065 0.78646 0.85129 0.0
C310 C 1.03121 0.76095 0.86191 0.0
C311 C 0.9647 0.84011 0.87328 0.0
H312 H 0.59329 0.76809 0.67658 0.0
H313 H 0.63107 0.71727 0.69163 0.0
H314 H 0.68389 0.80814 0.80992 0.0
H315 H 0.64431 0.85791 0.79592 0.0
H316 H 0.05253 0.80796 0.9658 0.0
H317 H 1.00889 0.85216 0.94712 0.0
H318 H 0.99357 0.78009 0.81942 0.0
H319 H 1.03634 0.73482 0.83817 0.0
C320 C 0.99172 0.15251 0.56575 0.0
C321 C 1.04649 0.09257 0.45836 0.0
C322 C 0.95614 0.92548 0.51896 0.0
Mg323 Mg 0.07997 0.1277 0.54833 0.0
O324 O 1.03172 0.07075 0.57125 0.0
Mg325 Mg 0.96832 0.03481 0.53941 0.0
Mg326 Mg 0.05356 0.01875 0.56088 0.0
O327 O 0.07559 0.96761 0.54966 0.0
Mg328 Mg 1.03216 0.90311 0.56305 0.0
Mg329 Mg 0.14141 1.00341 0.57738 0.0
C330 C 0.14709 0.11044 0.60766 0.0
C331 C 0.15309 0.06363 0.49718 0.0
O332 O 0.95991 0.10656 0.56059 0.0
O333 O 1.03854 0.16723 0.56202 0.0
O334 O 1.00413 0.06597 0.47521 0.0
O335 O 0.08434 0.11758 0.48096 0.0
O336 O 0.14056 0.14047 0.58759 0.0
O337 O 0.11813 0.06407 0.60427 0.0
C338 C 0.95713 0.98219 0.62633 0.0
O339 O 1.00006 0.98481 0.61636 0.0
O340 O 0.93676 0.99919 0.60349 0.0
O341 O 0.15361 0.93899 0.54121 0.0
O342 O 0.0781 0.87494 0.52822 0.0
O343 O 0.10947 0.96203 0.63662 0.0
C344 C 0.12527 0.89643 0.52225 0.0
O345 O 1.03336 0.90007 0.63022 0.0
O346 O 0.96568 0.89388 0.53359 0.0
C347 C 0.07115 0.92762 0.65243 0.0
O348 O 0.98741 0.9712 0.52073 0.0
O349 O 0.10779 0.0549 0.50446 0.0
O350 O 0.17374 0.04762 0.52008 0.0
C351 C 0.47989 0.11092 0.17124 0.0
C352 C 0.52708 0.09734 0.03746 0.0
C353 C 0.50894 0.91322 0.03822 0.0
Mg354 Mg 0.58245 0.1199 0.12181 0.0
O355 O 0.55911 0.05122 0.11791 0.0
Mg356 Mg 0.48837 1.00885 0.10257 0.0
Mg357 Mg 0.59583 1.01094 0.08943 0.0
O358 O 0.63285 0.96952 0.06702 0.0
Mg359 Mg 0.60761 0.901 0.0721 0.0
Mg360 Mg 0.70346 1.01227 0.08593 0.0
C361 C 0.68338 0.10458 0.13344 0.0
C362 C 0.68225 0.07718 1.01666 0.0
O363 O 0.45914 0.06596 0.15189 0.0
O364 O 0.5275 0.13631 0.16673 0.0
O365 O 0.49748 0.05514 0.04945 0.0
O366 O 0.56474 0.12821 0.05901 0.0
O367 O 0.6596 0.13058 0.13372 0.0
O368 O 0.6637 0.05775 0.12527 0.0
C369 C 0.52059 0.95321 0.165 0.0
O370 O 0.56127 0.96446 0.1437 0.0
O371 O 0.48798 0.96588 0.15635 0.0
O372 O 0.72832 0.96335 0.03559 0.0
O373 O 0.65861 0.89269 1.02239 0.0
O374 O 0.70339 0.95796 0.14057 0.0
C375 C 0.70477 0.92072 1.01456 0.0
O376 O 0.63814 0.88451 0.13095 0.0
O377 O 0.53388 0.88961 0.04448 0.0
C378 C 0.67919 0.91275 0.15049 0.0
O379 O 0.52326 0.95888 0.05457 0.0
O380 O 0.63704 0.06244 0.03159 0.0
O381 O 0.71066 0.06297 0.03212 0.0
C382 C 0.05288 0.65572 0.12453 0.0
C383 C 0.08858 0.64089 0.99224 0.0
C384 C 0.99549 0.44832 0.99585 0.0
Mg385 Mg 0.13135 0.63317 0.07237 0.0
O386 O 0.08091 0.5703 0.08172 0.0
Mg387 Mg 1.01551 0.55237 0.05681 0.0
Mg388 Mg 0.09542 0.51783 0.05192 0.0
O389 O 0.11215 0.46751 1.01885 0.0
Mg390 Mg 0.0678 0.40102 1.00746 0.0
Mg391 Mg 0.17805 0.48721 0.04264 0.0
C392 C 0.19947 0.58991 0.09989 0.0
C393 C 0.18894 0.57187 0.98607 0.0
O394 O 1.01731 0.61765 0.1055 0.0
O395 O 0.09875 0.66783 0.11669 0.0
O396 O 1.0477 0.60682 1.00519 0.0
O397 O 0.12864 0.65452 1.01129 0.0
O398 O 0.19398 0.62699 0.09236 0.0
O399 O 0.16566 0.54522 0.09144 0.0
C400 C 1.00091 0.47012 0.12015 0.0
O401 O 1.04105 0.4691 0.10417 0.0
O402 O 0.98527 0.49805 0.10718 0.0
O403 O 0.18639 0.42965 0.99089 0.0
O404 O 0.11308 0.37865 0.9615 0.0
O405 O 0.14059 0.42689 0.0884 0.0
C406 C 0.15998 0.39431 0.9634 0.0
O407 O 0.06474 0.37273 0.06636 0.0
O408 O 1.00485 0.41119 0.99116 0.0
C409 C 0.09921 0.38848 0.09304 0.0
O410 O 1.02617 0.49098 1.01276 0.0
O411 O 0.14736 0.56772 1.00251 0.0
O412 O 0.20878 0.54603 0.9959 0.0
C413 C 0.43481 0.59997 0.09811 0.0
C414 C 0.53173 0.61477 0.98006 0.0
C415 C 0.50794 0.43777 1.01559 0.0
Mg416 Mg 0.54853 0.64092 0.07663 0.0
O417 O 0.5266 0.57312 0.07804 0.0
Mg418 Mg 0.47103 0.52209 0.04225 0.0
Mg419 Mg 0.57073 0.54211 0.07127 0.0
O420 O 0.6149 0.51024 0.0663 0.0
Mg421 Mg 0.58148 0.44795 0.08573 0.0
Mg422 Mg 0.6697 0.56193 0.10269 0.0
C423 C 0.63738 0.64807 0.12709 0.0
C424 C 0.67011 0.60434 1.01318 0.0
O425 O 0.42554 0.56195 0.07123 0.0
O426 O 0.47896 0.63471 0.10429 0.0
O427 O 0.50119 0.57073 0.98733 0.0
O428 O 0.55519 0.64795 1.00981 0.0
O429 O 0.61575 0.6716 0.11539 0.0
O430 O 0.62194 0.60197 0.11686 0.0
C431 C 0.46943 0.47216 0.12607 0.0
O432 O 0.51719 0.49434 0.12452 0.0
O433 O 0.44462 0.47631 0.09788 0.0
O434 O 0.70922 0.51269 0.08524 0.0
O435 O 0.64513 0.4362 0.07833 0.0
O436 O 0.63953 0.52371 0.16328 0.0
C437 C 0.69172 0.46555 0.07905 0.0
O438 O 0.56904 0.45478 0.15328 0.0
O439 O 0.52453 0.41624 0.03722 0.0
C440 C 0.6024 0.48709 0.17779 0.0
O441 O 0.52112 0.48402 1.02282 0.0
O442 O 0.62286 0.58785 1.01799 0.0
O443 O 0.69546 0.59915 0.04063 0.0
C444 C 0.93688 0.64308 0.61536 0.0
C445 C 0.95638 0.64947 0.47878 0.0
C446 C 0.95624 0.45681 0.49778 0.0
Mg447 Mg 1.03144 0.66174 0.55523 0.0
O448 O 1.00666 0.59343 0.56094 0.0
Mg449 Mg 0.93535 0.55046 0.54353 0.0
Mg450 Mg 1.04411 0.55148 0.54088 0.0
O451 O 0.08081 0.51004 0.5149 0.0
Mg452 Mg 0.05747 0.4412 0.51011 0.0
Mg453 Mg 0.15135 0.55154 0.53075 0.0
C454 C 0.13112 0.65047 0.58958 0.0
C455 C 0.12312 0.60781 0.46571 0.0
O456 O 0.91208 0.60071 0.59428 0.0
O457 O 0.98292 0.67072 0.60695 0.0
O458 O 0.9329 0.60426 0.48894 0.0
O459 O 0.99816 0.6778 0.49736 0.0
O460 O 0.10567 0.67297 0.58168 0.0
O461 O 0.11664 0.60386 0.57623 0.0
C462 C 0.95643 0.48582 0.61377 0.0
O463 O 1.00207 0.50089 0.59994 0.0
O464 O 0.92866 0.50012 0.59739 0.0
O465 O 0.17952 0.4923 0.48229 0.0
O466 O 0.11074 0.42368 0.46397 0.0
O467 O 0.14177 0.50555 0.58478 0.0
C468 C 0.15855 0.44808 0.46136 0.0
O469 O 0.0768 0.43123 0.57195 0.0
O470 O 0.98088 0.43173 0.49823 0.0
C471 C 0.11319 0.46216 0.59489 0.0
O472 O 0.9754 0.50384 0.50504 0.0
O473 O 0.08123 0.59744 0.48499 0.0
O474 O 0.15391 0.59402 0.47661 0.0
C475 C 0.49968 0.17826 0.63034 0.0
C476 C 0.56436 0.16509 0.50405 0.0
C477 C 0.46702 0.96498 0.51893 0.0
Mg478 Mg 0.59291 0.16719 0.59459 0.0
O479 O 0.54875 0.09975 0.59074 0.0
Mg480 Mg 0.48376 0.07457 0.56345 0.0
Mg481 Mg 0.56759 0.04751 0.56664 0.0
O482 O 0.5856 0.99371 0.54589 0.0
Mg483 Mg 0.536 0.9356 0.56541 0.0
Mg484 Mg 0.65014 0.01945 0.57582 0.0
C485 C 0.66612 0.12846 0.62093 0.0
C486 C 0.66314 0.08745 0.49884 0.0
O487 O 0.47396 0.13781 0.60717 0.0
O488 O 0.54691 0.19623 0.63205 0.0
O489 O 0.52263 0.128 0.51144 0.0
O490 O 0.59853 0.18431 0.5311 0.0
O491 O 0.65645 0.16462 0.61912 0.0
O492 O 0.63589 0.08392 0.60778 0.0
C493 C 0.47111 1.00076 0.63259 0.0
O494 O 0.51384 1.00479 0.61966 0.0
O495 O 0.45108 0.02303 0.61648 0.0
O496 O 0.65197 0.94703 0.54343 0.0
O497 O 0.57088 0.89184 0.54093 0.0
O498 O 0.61747 0.97562 0.63432 0.0
C499 C 0.61682 0.90281 0.53561 0.0
O500 O 0.53569 0.93306 0.63235 0.0
O501 O 0.4744 0.93237 0.53407 0.0
C502 C 0.57597 0.94683 0.651 0.0
O503 O 0.49847 1.01125 0.52399 0.0
O504 O 0.62226 0.08839 0.51225 0.0
O505 O 0.68057 0.06393 0.51699 0.0
C506 C 0.19669 0.1288 0.39556 0.0
C507 C 0.24314 0.16869 0.40648 0.0
C508 C 0.1676 0.09472 0.42472 0.0
C509 C 0.18442 0.09829 0.46553 0.0
H510 H 0.18193 0.12465 0.36463 0.0
H511 H 0.13173 0.0654 0.41523 0.0
S512 S 0.30398 0.19423 0.50951 0.0
N513 N 0.3046 0.20878 0.46113 0.0
N514 N 0.25102 0.14425 0.51501 0.0
C515 C 0.23128 0.13713 0.47641 0.0
C516 C 0.2603 0.17241 0.4472 0.0
C517 C 0.08501 0.16933 0.36797 0.0
C518 C 1.03963 0.1503 0.34788 0.0
C519 C 0.09 0.14591 0.40064 0.0
C520 C 0.04974 0.10283 0.41368 0.0
H521 H 0.11362 0.20617 0.36339 0.0
H522 H 0.12301 0.16544 0.41925 0.0
S523 S 0.93172 0.02873 0.35778 0.0
N524 N 0.96024 0.0793 0.3334 0.0
N525 N 0.96974 0.03418 0.39443 0.0
C526 C 1.00854 0.07841 0.38746 0.0
C527 C 1.00357 0.10246 0.35423 0.0
C528 C 0.87392 0.91509 0.43261 0.0
C529 C 0.83993 0.8648 0.42985 0.0
C530 C 0.90864 0.93622 0.46466 0.0
C531 C 0.91051 0.90772 0.49497 0.0
H532 H 0.87679 0.93716 0.40767 0.0
H533 H 0.9369 0.97377 0.46311 0.0
S534 S 0.82004 0.77856 0.50941 0.0
N535 N 0.80316 0.7901 0.46591 0.0
N536 N 0.86822 0.83016 0.52631 0.0
C537 C 0.87211 0.85958 0.49634 0.0
C538 C 0.83666 0.83803 0.46375 0.0
C539 C 0.13385 0.87015 0.40453 0.0
C540 C 0.18476 0.88565 0.39664 0.0
C541 C 0.11389 0.86757 0.44592 0.0
C542 C 0.14425 0.88208 0.48132 0.0
H543 H 0.1093 0.86203 0.37874 0.0
H544 H 0.07494 0.85827 0.45 0.0
S545 S 0.27793 0.91631 0.4783 0.0
N546 N 0.26361 0.90698 0.42778 0.0
N547 N 0.22627 0.90653 0.50606 0.0
C548 C 0.19452 0.89459 0.47409 0.0
C549 C 0.21475 0.89554 0.43169 0.0
C550 C 0.05543 0.85316 0.74324 0.0
C551 C 0.0953 0.88579 0.76896 0.0
C552 C 1.04464 0.86819 0.70735 0.0
C553 C 0.07399 0.91614 0.69567 0.0
H554 H 1.03464 0.81492 0.74923 0.0
H555 H 1.01567 0.84094 0.68695 0.0
S556 S 0.17733 0.01774 0.7566 0.0
N557 N 0.16 0.96976 0.78346 0.0
N558 N 0.13994 0.99803 0.71619 0.0
C559 C 0.11092 0.95027 0.72345 0.0
C560 C 0.12148 0.9351 0.76012 0.0
C561 C 0.25568 0.20021 0.67153 0.0
C562 C 0.2371 0.19254 0.71369 0.0
C563 C 0.22767 0.17067 0.63695 0.0
C564 C 0.1804 0.13211 0.6433 0.0
H565 H 0.2918 0.23004 0.66493 0.0
H566 H 0.24221 0.17931 0.60505 0.0
S567 S 0.11433 0.09729 0.74677 0.0
N568 N 0.16862 0.14357 0.75967 0.0
N569 N 0.11558 0.08757 0.6943 0.0
C570 C 0.16194 0.12267 0.68511 0.0
C571 C 0.19044 0.15306 0.72045 0.0
C572 C 1.01651 0.27195 0.62423 0.0
C573 C 0.98225 0.25555 0.65798 0.0
C574 C 1.01303 0.23972 0.58779 0.0
C575 C 0.97671 0.18987 0.58573 0.0
H576 H 0.04903 0.30732 0.62807 0.0
H577 H 1.04342 0.25169 0.56446 0.0
S578 S 0.8678 0.13721 0.65916 0.0
N579 N 0.90248 0.19329 0.68175 0.0
N580 N 0.8971 0.13146 0.61399 0.0
C581 C 0.93681 0.17683 0.61536 0.0
C582 C 0.93975 0.21006 0.65191 0.0
C583 C 0.85585 0.89464 0.6979 0.0
C584 C 0.88281 0.89631 0.73252 0.0
C585 C 0.87931 0.9246 0.66452 0.0
C586 C 0.93052 0.95701 0.66457 0.0
H587 H 0.81705 0.8683 0.69543 0.0
H588 H 0.8578 0.92041 0.6375 0.0
S589 S 1.0153 0.9814 0.75147 0.0
N590 N 0.96181 0.93799 0.7673 0.0
N591 N 1.00571 0.99305 0.70478 0.0
C592 C 0.95688 0.96112 0.70032 0.0
C593 C 0.93309 0.93117 0.7342 0.0
C594 C 0.37096 0.14423 0.22221 0.0
C595 C 0.3949 0.19026 0.24819 0.0
C596 C 0.39694 0.11833 0.19885 0.0
C597 C 0.44957 0.13643 0.19855 0.0
H598 H 0.33111 0.12744 0.2199 0.0
H599 H 0.37516 0.08382 0.18014 0.0
S600 S 0.53245 0.25619 0.258 0.0
N601 N 0.47678 0.25198 0.26966 0.0
N602 N 0.52378 0.20589 0.22675 0.0
C603 C 0.47371 0.1825 0.2239 0.0
C604 C 0.44735 0.20827 0.24805 0.0
C605 C 0.89167 0.40183 0.19528 0.0
C606 C 0.91198 0.3867 0.22508 0.0
C607 C 0.92062 0.42796 0.16149 0.0
C608 C 0.97124 0.43969 0.15524 0.0
H609 H 0.85287 0.39329 0.19787 0.0
H610 H 0.90284 0.43879 0.13978 0.0
S611 S 1.04303 0.40892 0.22404 0.0
N612 N 0.98667 0.38586 0.24593 0.0
N613 N 1.04053 0.4344 0.18228 0.0
C614 C 0.99214 0.42467 0.18459 0.0
C615 C 0.96277 0.39853 0.21947 0.0
C616 C 0.69793 0.82274 0.22221 0.0
C617 C 0.74661 0.8495 0.23914 0.0
C618 C 0.67666 0.84271 0.19519 0.0
C619 C 0.70155 0.89174 0.18245 0.0
H620 H 0.6757 0.78508 0.22937 0.0
H621 H 0.63979 0.8187 0.1838 0.0
S622 S 0.83005 0.9794 0.21659 0.0
N623 N 0.81844 0.92979 0.23929 0.0
N624 N 0.77994 0.96575 0.19058 0.0
C625 C 0.75008 0.91879 0.19935 0.0
C626 C 0.77178 0.89846 0.22659 0.0
C627 C 0.24762 0.61769 0.20811 0.0
C628 C 0.29079 0.66218 0.20385 0.0
C629 C 0.22192 0.58761 0.17215 0.0
C630 C 0.2379 0.60213 0.13099 0.0
H631 H 0.23085 0.60865 0.23938 0.0
H632 H 0.18592 0.55677 0.17708 0.0
S633 S 0.35384 0.71055 0.10294 0.0
N634 N 0.35255 0.71522 0.15549 0.0
N635 N 0.30392 0.65944 0.08794 0.0
C636 C 0.28424 0.64332 0.12635 0.0
C637 C 0.31051 0.67358 0.16287 0.0
C638 C 0.42254 0.89946 0.948 0.0
C639 C 0.41164 0.85283 0.92537 0.0
C640 C 0.45161 0.9178 0.9852 0.0
C641 C 0.47092 0.89032 1.00266 0.0
H642 H 0.40957 0.92281 0.93623 0.0
H643 H 0.46009 0.95457 0.99971 0.0
S644 S 0.44866 0.76339 0.95876 0.0
N645 N 0.42018 0.77834 0.92574 0.0
N646 N 0.47275 0.81135 0.99482 0.0
C647 C 0.45824 0.84264 0.98125 0.0
C648 C 0.4294 0.82443 0.94314 0.0
C649 C 0.24874 0.3422 0.92218 0.0
C650 C 0.23751 0.32713 0.87892 0.0
C651 C 0.22346 0.36385 0.94897 0.0
C652 C 0.185 0.37031 0.93397 0.0
H653 H 0.27825 0.33841 0.93537 0.0
H654 H 0.23401 0.37541 0.98187 0.0
S655 S 0.1403 0.33641 0.82354 0.0
N656 N 0.1852 0.32027 0.82223 0.0
N657 N 0.13646 0.35949 0.87307 0.0
C658 C 0.17261 0.3546 0.89099 0.0
C659 C 0.19923 0.33352 0.86334 0.0
C660 C 0.77626 0.16447 0.936 0.0
C661 C 0.7485 0.18012 0.91401 0.0
C662 C 0.75473 0.13184 0.96842 0.0
C663 C 0.70375 0.11216 0.98115 0.0
H664 H 0.81551 0.17814 0.92858 0.0
H665 H 0.77883 0.12219 0.98387 0.0
S666 S 0.61275 0.13701 0.93128 0.0
N667 N 0.66554 0.16953 0.90607 0.0
N668 N 0.62589 0.10999 0.96638 0.0
C669 C 0.67537 0.12679 0.95885 0.0
C670 C 0.69735 0.15999 0.92577 0.0
C671 C 1.03478 0.68378 0.91343 0.0
C672 C 0.06559 0.73491 0.91722 0.0
C673 C 1.04495 0.65256 0.93483 0.0
C674 C 0.08668 0.67125 0.96036 0.0
H675 H 1.00061 0.66822 0.89642 0.0
H676 H 1.01823 0.61399 0.93348 0.0
S677 S 0.18357 0.80161 0.97399 0.0
N678 N 0.14245 0.80214 0.94376 0.0
N679 N 0.16262 0.74367 0.98312 0.0
C680 C 0.12036 0.72173 0.96079 0.0
C681 C 0.10944 0.75356 0.93958 0.0
C682 C 0.06593 0.27402 0.14562 0.0
C683 C 0.1 0.29182 0.1783 0.0
C684 C 0.06264 0.30632 0.12045 0.0
C685 C 0.09424 0.35735 0.12653 0.0
H686 H 1.04372 0.23473 0.13799 0.0
H687 H 1.03782 0.29069 0.09404 0.0
S688 S 0.18462 0.42257 0.21225 0.0
N689 N 0.16159 0.36368 0.21899 0.0
N690 N 0.15617 0.42454 0.17116 0.0
C691 C 0.12569 0.37581 0.16134 0.0
C692 C 0.12837 0.34295 0.1874 0.0
C693 C 0.24066 0.62931 0.88303 0.0
C694 C 0.25959 0.67999 0.89643 0.0
C695 C 0.2187 0.59417 0.91242 0.0
C696 C 0.21525 0.60877 0.95596 0.0
H697 H 0.24164 0.61666 0.84957 0.0
H698 H 0.2033 0.55541 0.90093 0.0
S699 S 0.26598 0.73648 1.00823 0.0
N700 N 0.27802 0.74277 0.95697 0.0
N701 N 0.23674 0.67658 1.01172 0.0
C702 C 0.23585 0.6591 0.96998 0.0
C703 C 0.25807 0.69481 0.94029 0.0
C704 C 0.45134 0.08448 0.9451 0.0
C705 C 0.45617 0.13215 0.94579 0.0
C706 C 0.47873 0.07456 0.97204 0.0
C707 C 0.51166 0.11187 1.001 0.0
H708 H 0.42423 0.05414 0.92522 0.0
H709 H 0.47158 0.03667 0.97213 0.0
S710 S 0.54263 0.24425 1.01067 0.0
N711 N 0.50018 0.21809 0.97405 0.0
N712 N 0.55193 0.19953 1.02489 0.0
C713 C 0.52026 0.16056 0.99912 0.0
C714 C 0.49229 0.17066 0.97152 0.0
C715 C 0.86549 0.37505 0.96286 0.0
C716 C 0.86867 0.39036 0.92241 0.0
C717 C 0.90499 0.39946 0.99054 0.0
C718 C 0.94862 0.44016 0.97872 0.0
H719 H 0.83518 0.34039 0.97087 0.0
H720 H 0.90372 0.38294 1.01902 0.0
S721 S 0.97038 0.50123 0.88064 0.0
N722 N 0.91482 0.45364 0.87516 0.0
N723 N 0.98909 0.50008 0.92763 0.0
C724 C 0.94908 0.46023 0.94135 0.0
C725 C 0.90884 0.43513 0.91298 0.0
C726 C 0.72335 0.84527 0.91539 0.0
C727 C 0.77522 0.86591 0.90846 0.0
C728 C 0.70165 0.86327 0.94949 0.0
C729 C 0.73039 0.90333 0.97862 0.0
H730 H 0.69866 0.81408 0.89463 0.0
H731 H 0.6616 0.84533 0.95281 0.0
S732 S 0.86795 0.97213 0.97495 0.0
N733 N 0.85496 0.92962 0.93382 0.0
N734 N 0.8141 0.96397 0.99772 0.0
C735 C 0.78237 0.92517 0.97189 0.0
C736 C 0.8047 0.9064 0.93703 0.0
C737 C 1.01899 0.75464 0.17125 0.0
C738 C 1.04272 0.76978 0.21058 0.0
C739 C 1.01867 0.71453 0.14459 0.0
C740 C 1.04229 0.68861 0.15643 0.0
H741 H 1.00082 0.77421 0.16081 0.0
H742 H 1.00217 0.70542 0.11372 0.0
S743 S 0.10482 0.70949 0.25756 0.0
N744 N 0.08615 0.75247 0.26154 0.0
N745 N 0.08692 0.6778 0.21064 0.0
C746 C 0.06414 0.70172 0.19632 0.0
C747 C 0.0639 0.74211 0.22371 0.0
C748 C 0.47274 0.90018 0.26876 0.0
C749 C 0.46387 0.8512 0.2575 0.0
C750 C 0.49439 0.93473 0.23925 0.0
C751 C 0.50933 0.92135 0.19864 0.0
H752 H 0.45667 0.91001 0.29801 0.0
H753 H 0.49625 0.97089 0.24711 0.0
S754 S 0.50351 0.80054 0.15761 0.0
N755 N 0.47763 0.7928 0.20588 0.0
N756 N 0.52135 0.85874 0.15099 0.0
C757 C 0.50703 0.87453 0.18931 0.0
C758 C 0.48377 0.8391 0.21892 0.0
C759 C 0.80646 0.2074 0.16099 0.0
C760 C 0.81435 0.19065 0.19734 0.0
C761 C 0.76551 0.17712 0.13641 0.0
C762 C 0.73462 0.12904 0.1463 0.0
H763 H 0.82546 0.24631 0.15677 0.0
H764 H 0.75507 0.19286 0.11288 0.0
S765 S 0.75616 0.06284 0.22518 0.0
N766 N 0.80035 0.12005 0.23277 0.0
N767 N 0.72451 0.06147 0.18496 0.0
C768 C 0.75028 0.10881 0.17546 0.0
C769 C 0.79121 0.14016 0.20107 0.0
C770 C 0.77382 0.69035 0.94326 0.0
C771 C 0.75184 0.68198 0.90372 0.0
C772 C 0.74712 0.66497 0.97798 0.0
C773 C 0.69688 0.63023 0.9752 0.0
H774 H 0.81206 0.71743 0.94788 0.0
H775 H 0.76598 0.67347 1.00761 0.0
S776 S 0.62261 0.59079 0.8781 0.0
N777 N 0.67718 0.6337 0.86327 0.0
N778 N 0.6269 0.58613 0.92868 0.0
C779 C 0.67452 0.62037 0.93567 0.0
C780 C 0.702 0.64603 0.89996 0.0
C781 C 0.54318 0.69378 0.89496 0.0
C782 C 0.51643 0.65852 0.86181 0.0
C783 C 0.55225 0.67946 0.93184 0.0
C784 C 0.53421 0.62935 0.93709 0.0
H785 H 0.55344 0.73238 0.8942 0.0
H786 H 0.56984 0.70776 0.95767 0.0
S787 S 0.47429 0.52398 0.85472 0.0
N788 N 0.48184 0.57262 0.83251 0.0
N789 N 0.49705 0.54517 0.90269 0.0
C790 C 0.51242 0.5942 0.90222 0.0
C791 C 0.50405 0.60895 0.86432 0.0
C792 C 0.42956 0.40659 0.91934 0.0
C793 C 0.43713 0.36842 0.89569 0.0
C794 C 0.45118 0.42765 0.95884 0.0
C795 C 0.48092 0.41115 0.97636 0.0
H796 H 0.40599 0.41979 0.90772 0.0
H797 H 0.44456 0.45715 0.97572 0.0
S798 S 0.51644 0.31569 0.92506 0.0
N799 N 0.47921 0.31729 0.89125 0.0
N800 N 0.51963 0.35659 0.96556 0.0
C801 C 0.48944 0.37351 0.95272 0.0
C802 C 0.4677 0.35232 0.91235 0.0
C803 C 0.74425 0.43134 0.98632 0.0
C804 C 0.71153 0.38055 0.98544 0.0
C805 C 0.7509 0.46257 1.02405 0.0
C806 C 0.72367 0.44336 0.06092 0.0
H807 H 0.76032 0.4478 0.95705 0.0
H808 H 0.76898 0.50194 1.02199 0.0
S809 S 0.65733 0.31243 0.08039 0.0
N810 N 0.66834 0.31159 1.02844 0.0
N811 N 0.68377 0.37111 0.09934 0.0
C812 C 0.70433 0.39251 0.06299 0.0
C813 C 0.69583 0.36045 1.02462 0.0
C814 C 0.6636 0.47868 0.27101 0.0
C815 C 0.63004 0.43148 0.28163 0.0
C816 C 0.65179 0.50024 0.24075 0.0
C817 C 0.60574 0.4755 0.22079 0.0
H818 H 0.70147 0.49568 0.28134 0.0
H819 H 0.68135 0.53332 0.22932 0.0
S820 S 0.49939 0.35988 0.25029 0.0
N821 N 0.54477 0.36758 0.27998 0.0
N822 N 0.52256 0.40749 0.22227 0.0
C823 C 0.56907 0.43277 0.23726 0.0
C824 C 0.58113 0.41106 0.26836 0.0
C825 C 0.76523 0.72754 0.17197 0.0
C826 C 0.76129 0.70625 0.20981 0.0
C827 C 0.72448 0.71038 0.14547 0.0
C828 C 0.67849 0.67207 0.15652 0.0
H829 H 0.79992 0.75773 0.16286 0.0
H830 H 0.7292 0.72641 0.11598 0.0
S831 S 0.64607 0.60742 0.2534 0.0
N832 N 0.70581 0.64524 0.25672 0.0
N833 N 0.62967 0.61609 0.20841 0.0
C834 C 0.67361 0.65154 0.19441 0.0
C835 C 0.71489 0.66771 0.22063 0.0
C836 C 0.38837 0.63394 0.20326 0.0
C837 C 0.36046 0.58759 0.21828 0.0
C838 C 0.40626 0.6381 0.16114 0.0
C839 C 0.39755 0.59593 0.13281 0.0
H840 H 0.39922 0.66724 0.225 0.0
H841 H 0.43117 0.67446 0.15204 0.0
S842 S 0.31684 0.46618 0.15512 0.0
N843 N 0.31751 0.49924 0.20079 0.0
N844 N 0.35098 0.50617 0.12114 0.0
C845 C 0.36416 0.54941 0.14625 0.0
C846 C 0.34598 0.5454 0.18936 0.0
C847 C 0.43013 0.42266 0.23499 0.0
C848 C 0.38558 0.37897 0.22687 0.0
C849 C 0.45743 0.45246 0.20244 0.0
C850 C 0.44108 0.4402 0.16044 0.0
H851 H 0.44482 0.43352 0.26665 0.0
H852 H 0.49162 0.4853 0.21028 0.0
S853 S 0.32524 0.33209 0.12234 0.0
N854 N 0.32547 0.32675 0.17338 0.0
N855 N 0.37607 0.38264 0.11288 0.0
C856 C 0.39568 0.39777 0.15219 0.0
C857 C 0.36811 0.36731 0.18515 0.0
C858 C 0.84742 0.68056 0.68392 0.0
C859 C 0.87095 0.69914 0.72348 0.0
C860 C 0.86771 0.66083 0.64944 0.0
C861 C 0.91301 0.65989 0.65266 0.0
H862 H 0.81335 0.68196 0.67917 0.0
H863 H 0.8487 0.64786 0.6196 0.0
S864 S 0.98749 0.69875 0.74933 0.0
N865 N 0.94032 0.71049 0.76401 0.0
N866 N 0.97908 0.67582 0.69898 0.0
C867 C 0.93618 0.67686 0.69206 0.0
C868 C 0.91503 0.69576 0.72744 0.0
C869 C 0.40928 0.94938 0.73681 0.0
C870 C 0.39123 0.89826 0.7261 0.0
C871 C 0.43464 0.98275 0.70628 0.0
C872 C 0.44248 0.96592 0.6642 0.0
H873 H 0.40499 0.9637 0.76916 0.0
H874 H 0.44904 0.02189 0.7158 0.0
S875 S 0.39571 0.83587 0.61837 0.0
N876 N 0.37846 0.83261 0.66917 0.0
N877 N 0.42581 0.89517 0.61242 0.0
C878 C 0.42272 0.91504 0.65277 0.0
C879 C 0.39716 0.88123 0.68358 0.0
C880 C 0.16709 0.39214 0.64158 0.0
C881 C 0.19498 0.42612 0.67499 0.0
C882 C 0.13539 0.40134 0.61871 0.0
C883 C 0.13094 0.44512 0.62811 0.0
H884 H 0.17182 0.35946 0.63161 0.0
H885 H 0.11781 0.3761 0.59111 0.0
S886 S 0.19122 0.54297 0.71584 0.0
N887 N 0.2121 0.50269 0.71914 0.0
N888 N 0.15309 0.52028 0.67577 0.0
C889 C 0.15568 0.47749 0.66349 0.0
C890 C 0.18754 0.4679 0.68706 0.0
C891 C 0.73392 0.13474 0.71519 0.0
C892 C 0.77526 0.18128 0.71381 0.0
C893 C 0.70174 0.11332 0.6811 0.0
C894 C 0.70943 0.13865 0.6453 0.0
H895 H 0.72342 0.1174 0.74452 0.0
H896 H 0.66758 0.08006 0.68524 0.0
S897 S 0.81846 0.25555 0.62231 0.0
N898 N 0.82752 0.24699 0.67046 0.0
N899 N 0.76599 0.20771 0.60693 0.0
C900 C 0.75404 0.18185 0.64128 0.0
C901 C 0.78741 0.20298 0.67552 0.0
C902 C 0.84537 0.34885 0.45701 0.0
C903 C 0.83974 0.36752 0.4209 0.0
C904 C 0.8787 0.38027 0.48771 0.0
C905 C 0.90567 0.43058 0.48289 0.0
H906 H 0.83041 0.30947 0.45804 0.0
H907 H 0.88837 0.36435 0.51162 0.0
S908 S 0.88406 0.49829 0.40544 0.0
N909 N 0.84871 0.43949 0.39016 0.0
N910 N 0.91091 0.49938 0.44883 0.0
C911 C 0.89046 0.45045 0.45308 0.0
C912 C 0.85696 0.4183 0.4215 0.0
C913 C 0.59804 0.77191 0.51634 0.0
C914 C 0.63853 0.77596 0.48961 0.0
C915 C 0.59302 0.81381 0.53272 0.0
C916 C 0.62793 0.86114 0.52238 0.0
H917 H 0.56911 0.73601 0.52315 0.0
H918 H 0.56048 0.80879 0.55255 0.0
S919 S 0.74139 0.89108 0.45452 0.0
N920 N 0.71518 0.83062 0.45448 0.0
N921 N 0.70542 0.90965 0.48543 0.0
C922 C 0.66989 0.8659 0.49741 0.0
C923 C 0.67518 0.82314 0.48084 0.0
C924 C 0.174 0.6432 0.35773 0.0
C925 C 0.19435 0.69486 0.3642 0.0
C926 C 0.14631 0.6143 0.38992 0.0
C927 C 0.13713 0.63607 0.42907 0.0
H928 H 0.18348 0.62531 0.32915 0.0
H929 H 0.13529 0.57514 0.38536 0.0
S930 S 0.17301 0.76821 0.45884 0.0
N931 N 0.19699 0.76588 0.41025 0.0
N932 N 0.14345 0.71071 0.47075 0.0
C933 C 0.15173 0.68679 0.43414 0.0
C934 C 0.18059 0.71653 0.40143 0.0
C935 C 0.52158 0.20993 0.42017 0.0
C936 C 0.55677 0.25984 0.42257 0.0
C937 C 0.52747 0.17696 0.44247 0.0
C938 C 0.56867 0.193 0.46804 0.0
H939 H 0.48692 0.19729 0.40451 0.0
H940 H 0.49719 0.14008 0.44291 0.0
S941 S 0.67897 0.31602 0.47207 0.0
N942 N 0.63924 0.32099 0.44328 0.0
N943 N 0.65149 0.25879 0.48465 0.0
C944 C 0.6078 0.24084 0.46485 0.0
C945 C 0.60138 0.27454 0.44246 0.0
C946 C 0.63052 0.90226 0.72672 0.0
C947 C 0.59809 0.8514 0.72343 0.0
C948 C 0.62025 0.93473 0.70731 0.0
C949 C 0.57696 0.91766 0.68421 0.0
H950 H 0.66599 0.91661 0.74142 0.0
H951 H 0.6483 0.97276 0.70754 0.0
S952 S 0.47562 0.7893 0.67313 0.0
N953 N 0.5179 0.78662 0.70026 0.0
N954 N 0.49787 0.84761 0.66489 0.0
C955 C 0.54167 0.86784 0.68488 0.0
C956 C 0.55257 0.83464 0.70395 0.0
C957 C 0.7696 0.1558 0.42069 0.0
C958 C 0.7464 0.16617 0.38961 0.0
C959 C 0.74246 0.12984 0.45537 0.0
C960 C 0.69093 0.11363 0.46103 0.0
H961 H 0.80934 0.16896 0.41898 0.0
H962 H 0.76238 0.12362 0.4786 0.0
S963 S 0.61095 0.12682 0.38714 0.0
N964 N 0.66725 0.15437 0.36574 0.0
N965 N 0.61725 0.10686 0.43085 0.0
C966 C 0.66698 0.1224 0.42965 0.0
C967 C 0.69435 0.14817 0.39406 0.0
C968 C 0.93694 0.73629 0.40315 0.0
C969 C 0.88541 0.71333 0.3931 0.0
C970 C 0.95903 0.71633 0.4295 0.0
C971 C 0.93243 0.67042 0.44784 0.0
H972 H 0.96103 0.7712 0.39106 0.0
H973 H 0.99817 0.73772 0.43549 0.0
S974 S 0.79644 0.59281 0.43231 0.0
N975 N 0.80906 0.64004 0.40571 0.0
N976 N 0.84923 0.60315 0.45198 0.0
C977 C 0.88107 0.64685 0.43748 0.0
C978 C 0.85841 0.66769 0.41151 0.0
C979 C 0.3624 0.86589 0.45585 0.0
C980 C 0.37477 0.88023 0.41443 0.0
C981 C 0.38803 0.89742 0.49108 0.0
C982 C 0.42805 0.94435 0.48646 0.0
H983 H 0.33445 0.82895 0.46096 0.0
H984 H 0.37947 0.88302 0.52176 0.0
S985 S 0.46901 1.00336 0.38603 0.0
N986 N 0.4241 0.94798 0.37179 0.0
N987 N 0.4737 1.00639 0.43794 0.0
C988 C 0.43719 0.9613 0.446 0.0
C989 C 0.41036 0.92933 0.40997 0.0
C990 C 0.26331 0.40512 0.42032 0.0
C991 C 0.24195 0.36582 0.38695 0.0
C992 C 0.2381 0.4321 0.44285 0.0
C993 C 0.18878 0.4222 0.43449 0.0
H994 H 0.30039 0.41525 0.42972 0.0
H995 H 0.25749 0.46055 0.46799 0.0
S996 S 0.11577 0.32696 0.34838 0.0
N997 N 0.16762 0.32202 0.34605 0.0
N998 N 0.12149 0.37031 0.3873 0.0
C999 C 0.16748 0.38369 0.40078 0.0
C1000 C 0.19326 0.35663 0.37767 0.0
C1001 C 0.47647 0.27142 0.71044 0.0
C1002 C 0.42461 0.24866 0.71562 0.0
C1003 C 0.50051 0.24914 0.68208 0.0
C1004 C 0.47356 0.20356 0.65753 0.0
H1005 H 0.49864 0.30535 0.72975 0.0
H1006 H 0.54062 0.2673 0.68019 0.0
S1007 S 0.33613 0.13204 0.65686 0.0
N1008 N 0.34689 0.18009 0.69206 0.0
N1009 N 0.39121 0.1389 0.63872 0.0
C1010 C 0.42141 0.18199 0.66118 0.0
C1011 C 0.39725 0.20434 0.6902 0.0
C1012 C 0.93864 0.41328 0.71278 0.0
C1013 C 0.88661 0.38281 0.71663 0.0
C1014 C 0.96121 0.44528 0.67969 0.0
C1015 C 0.93322 0.44975 0.64855 0.0
H1016 H 0.96251 0.41287 0.73579 0.0
H1017 H 1.00106 0.46747 0.67911 0.0
S1018 S 0.796 0.37696 0.6417 0.0
N1019 N 0.80853 0.35893 0.68379 0.0
N1020 N 0.84974 0.41806 0.62358 0.0
C1021 C 0.88131 0.4191 0.65184 0.0
C1022 C 0.85854 0.38629 0.68504 0.0
C1023 C 0.22414 0.67423 0.67743 0.0
C1024 C 0.23223 0.72048 0.69924 0.0
C1025 C 0.1935 0.65265 0.64129 0.0
C1026 C 0.17015 0.67662 0.62407 0.0
H1027 H 0.24046 0.65369 0.68914 0.0
H1028 H 0.18722 0.61624 0.6274 0.0
S1029 S 0.18432 0.80153 0.66613 0.0
N1030 N 0.2168 0.79084 0.69857 0.0
N1031 N 0.16175 0.75235 0.63113 0.0
C1032 C 0.18022 0.72413 0.64461 0.0
C1033 C 0.21036 0.74537 0.6818 0.0
loop_
_geom_bond_atom_site_label_1
_geom_bond_atom_site_label_2
_geom_bond_distance
_geom_bond_site_symmetry_2
_ccdc_geom_bond_type
Tb0 C10 2.825 . S
Tb0 O11 2.347 . S
Tb0 O14 2.366 . S
Tb0 O19 2.418 . S
Tb0 O20 2.384 . S
Tb0 O23 2.479 . S
Tb0 O24 2.471 . S
Eu1 O12 2.418 . S
Eu1 O13 2.384 . S
Eu1 O16 2.479 . S
Eu1 O17 2.471 . S
Eu1 O18 2.347 . S
Eu1 O21 2.366 . S
Eu1 C31 2.825 . S
C2 O18 1.259 . S
C2 O19 1.265 . S
C3 O20 1.255 . S
C3 O21 1.265 . S
C4 C6 1.380 . S
C4 C7 1.374 . S
C4 C10 1.507 . S
C5 C6 1.384 . S
C5 C9 1.387 . S
C5 H32 0.930 . S
C6 C4 1.380 . S
C6 C5 1.384 . S
C6 H33 0.931 . S
C7 C4 1.374 . S
C7 C8 1.390 . S
C7 H34 0.930 . S
C8 C7 1.390 . S
C8 C9 1.391 . S
C8 H35 0.930 . S
C9 C5 1.387 . S
C9 C8 1.391 . S
C10 Tb0 2.825 . S
C10 C4 1.507 . S
C10 O23 1.238 . S
C10 O24 1.247 . S
O11 Tb0 2.347 . S
O11 C15 1.259 . S
O12 Eu1 2.418 . S
O12 C15 1.265 . S
O13 Eu1 2.384 . S
O13 C22 1.255 . S
O14 Tb0 2.366 . S
O14 C22 1.265 . S
C15 O11 1.259 . S
C15 O12 1.265 . S
O16 Eu1 2.479 . S
O16 C31 1.238 . S
O17 Eu1 2.471 . S
O17 C31 1.247 . S
O18 Eu1 2.347 . S
O18 C2 1.259 . S
O19 Tb0 2.418 . S
O19 C2 1.265 . S
O20 Tb0 2.384 . S
O20 C3 1.255 . S
O21 Eu1 2.366 . S
O21 C3 1.265 . S
C22 O13 1.255 . S
C22 O14 1.265 . S
O23 Tb0 2.479 . S
O23 C10 1.238 . S
O24 Tb0 2.471 . S
O24 C10 1.247 . S
C25 C28 1.380 . S
C25 C29 1.374 . S
C25 C31 1.507 . S
C26 C27 1.387 . S
C26 C30 1.391 . S
C27 C26 1.387 . S
C27 C28 1.384 . S
C27 H36 0.930 . S
C28 C25 1.380 . S
C28 C27 1.384 . S
C28 H37 0.931 . S
C29 C25 1.374 . S
C29 C30 1.390 . S
C29 H38 0.930 . S
C30 C26 1.391 . S
C30 C29 1.390 . S
C30 H39 0.930 . S
C31 Eu1 2.825 . S
C31 O16 1.238 . S
C31 O17 1.247 . S
C31 C25 1.507 . S
H32 C5 0.930 . S
H33 C6 0.931 . S
H34 C7 0.930 . S
H35 C8 0.930 . S
H36 C27 0.930 . S
H37 C28 0.931 . S
H38 C29 0.930 . S
H39 C30 0.930 . S
Tb40 C50 2.825 . S
Tb40 O51 2.347 . S
Tb40 O54 2.366 . S
Tb40 O59 2.418 . S
Tb40 O60 2.384 . S
Tb40 O63 2.479 . S
Tb40 O64 2.471 . S
Eu41 O52 2.418 . S
Eu41 O53 2.384 . S
Eu41 O56 2.479 . S
Eu41 O57 2.471 . S
Eu41 O58 2.347 . S
Eu41 O61 2.366 . S
Eu41 C71 2.825 . S
C42 O58 1.259 . S
C42 O59 1.265 . S
C43 O60 1.255 . S
C43 O61 1.265 . S
C44 C46 1.380 . S
C44 C47 1.374 . S
C44 C50 1.507 . S
C45 C46 1.384 . S
C45 C49 1.387 . S
C45 H72 0.930 . S
C46 C44 1.380 . S
C46 C45 1.384 . S
C46 H73 0.931 . S
C47 C44 1.374 . S
C47 C48 1.390 . S
C47 H74 0.930 . S
C48 C47 1.390 . S
C48 C49 1.391 . S
C48 H75 0.930 . S
C49 C45 1.387 . S
C49 C48 1.391 . S
C50 Tb40 2.825 . S
C50 C44 1.507 . S
C50 O63 1.238 . S
C50 O64 1.247 . S
O51 Tb40 2.347 . S
O51 C55 1.259 . S
O52 Eu41 2.418 . S
O52 C55 1.265 . S
O53 Eu41 2.384 . S
O53 C62 1.255 . S
O54 Tb40 2.366 . S
O54 C62 1.265 . S
C55 O51 1.259 . S
C55 O52 1.265 . S
O56 Eu41 2.479 . S
O56 C71 1.238 . S
O57 Eu41 2.471 . S
O57 C71 1.247 . S
O58 Eu41 2.347 . S
O58 C42 1.259 . S
O59 Tb40 2.418 . S
O59 C42 1.265 . S
O60 Tb40 2.384 . S
O60 C43 1.255 . S
O61 Eu41 2.366 . S
O61 C43 1.265 . S
C62 O53 1.255 . S
C62 O54 1.265 . S
O63 Tb40 2.479 . S
O63 C50 1.238 . S
O64 Tb40 2.471 . S
O64 C50 1.247 . S
C65 C68 1.380 . S
C65 C69 1.374 . S
C65 C71 1.507 . S
C66 C67 1.387 . S
C66 C70 1.391 . S
C67 C66 1.387 . S
C67 C68 1.384 . S
C67 H76 0.930 . S
C68 C65 1.380 . S
C68 C67 1.384 . S
C68 H77 0.931 . S
C69 C65 1.374 . S
C69 C70 1.390 . S
C69 H78 0.930 . S
C70 C66 1.391 . S
C70 C69 1.390 . S
C70 H79 0.930 . S
C71 Eu41 2.825 . S
C71 O56 1.238 . S
C71 O57 1.247 . S
C71 C65 1.507 . S
H72 C45 0.930 . S
H73 C46 0.931 . S
H74 C47 0.930 . S
H75 C48 0.930 . S
H76 C67 0.930 . S
H77 C68 0.931 . S
H78 C69 0.930 . S
H79 C70 0.930 . S
Tb80 C90 2.825 . S
Tb80 O91 2.347 . S
Tb80 O94 2.366 . S
Tb80 O99 2.418 . S
Tb80 O100 2.384 . S
Tb80 O103 2.479 . S
Tb80 O104 2.471 . S
Eu81 O92 2.418 . S
Eu81 O93 2.384 . S
Eu81 O96 2.479 . S
Eu81 O97 2.471 . S
Eu81 O98 2.347 . S
Eu81 O101 2.366 . S
Eu81 C111 2.825 . S
C82 O98 1.259 . S
C82 O99 1.265 . S
C83 O100 1.255 . S
C83 O101 1.265 . S
C84 C86 1.380 . S
C84 C87 1.374 . S
C84 C90 1.507 . S
C85 C86 1.384 . S
C85 C89 1.387 . S
C85 H112 0.930 . S
C86 C84 1.380 . S
C86 C85 1.384 . S
C86 H113 0.931 . S
C87 C84 1.374 . S
C87 C88 1.390 . S
C87 H114 0.930 . S
C88 C87 1.390 . S
C88 C89 1.391 . S
C88 H115 0.930 . S
C89 C85 1.387 . S
C89 C88 1.391 . S
C90 Tb80 2.825 . S
C90 C84 1.507 . S
C90 O103 1.238 . S
C90 O104 1.247 . S
O91 Tb80 2.347 . S
O91 C95 1.259 . S
O92 Eu81 2.418 . S
O92 C95 1.265 . S
O93 Eu81 2.384 . S
O93 C102 1.255 . S
O94 Tb80 2.366 . S
O94 C102 1.265 . S
C95 O91 1.259 . S
C95 O92 1.265 . S
O96 Eu81 2.479 . S
O96 C111 1.238 . S
O97 Eu81 2.471 . S
O97 C111 1.247 . S
O98 Eu81 2.347 . S
O98 C82 1.259 . S
O99 Tb80 2.418 . S
O99 C82 1.265 . S
O100 Tb80 2.384 . S
O100 C83 1.255 . S
O101 Eu81 2.366 . S
O101 C83 1.265 . S
C102 O93 1.255 . S
C102 O94 1.265 . S
O103 Tb80 2.479 . S
O103 C90 1.238 . S
O104 Tb80 2.471 . S
O104 C90 1.247 . S
C105 C108 1.380 . S
C105 C109 1.374 . S
C105 C111 1.507 . S
C106 C107 1.387 . S
C106 C110 1.391 . S
C107 C106 1.387 . S
C107 C108 1.384 . S
C107 H116 0.930 1_655 S
C108 C105 1.380 . S
C108 C107 1.384 . S
C108 H117 0.931 . S
C109 C105 1.374 . S
C109 C110 1.390 . S
C109 H118 0.930 . S
C110 C106 1.391 . S
C110 C109 1.390 . S
C110 H119 0.930 . S
C111 Eu81 2.825 . S
C111 O96 1.238 . S
C111 O97 1.247 . S
C111 C105 1.507 . S
H112 C85 0.930 . S
H113 C86 0.931 . S
H114 C87 0.930 . S
H115 C88 0.930 . S
H116 C107 0.930 1_455 S
H117 C108 0.931 . S
H118 C109 0.930 . S
H119 C110 0.930 . S
Tb120 C130 2.825 . S
Tb120 O131 2.347 . S
Tb120 O134 2.366 . S
Tb120 O139 2.418 . S
Tb120 O140 2.384 . S
Tb120 O143 2.479 . S
Tb120 O144 2.471 . S
Eu121 O132 2.418 . S
Eu121 O133 2.384 . S
Eu121 O136 2.479 . S
Eu121 O137 2.471 . S
Eu121 O138 2.347 . S
Eu121 O141 2.366 . S
Eu121 C151 2.825 . S
C122 O138 1.259 . S
C122 O139 1.265 . S
C123 O140 1.255 . S
C123 O141 1.265 . S
C124 C126 1.380 . S
C124 C127 1.374 . S
C124 C130 1.507 . S
C125 C126 1.384 . S
C125 C129 1.387 . S
C125 H152 0.930 . S
C126 C124 1.380 . S
C126 C125 1.384 . S
C126 H153 0.931 . S
C127 C124 1.374 . S
C127 C128 1.390 . S
C127 H154 0.930 . S
C128 C127 1.390 . S
C128 C129 1.391 . S
C128 H155 0.930 . S
C129 C125 1.387 . S
C129 C128 1.391 . S
C130 Tb120 2.825 . S
C130 C124 1.507 . S
C130 O143 1.238 . S
C130 O144 1.247 . S
O131 Tb120 2.347 . S
O131 C135 1.259 . S
O132 Eu121 2.418 . S
O132 C135 1.265 . S
O133 Eu121 2.384 . S
O133 C142 1.255 . S
O134 Tb120 2.366 . S
O134 C142 1.265 . S
C135 O131 1.259 . S
C135 O132 1.265 . S
O136 Eu121 2.479 . S
O136 C151 1.238 . S
O137 Eu121 2.471 . S
O137 C151 1.247 . S
O138 Eu121 2.347 . S
O138 C122 1.259 . S
O139 Tb120 2.418 . S
O139 C122 1.265 . S
O140 Tb120 2.384 . S
O140 C123 1.255 . S
O141 Eu121 2.366 . S
O141 C123 1.265 . S
C142 O133 1.255 . S
C142 O134 1.265 . S
O143 Tb120 2.479 . S
O143 C130 1.238 . S
O144 Tb120 2.471 . S
O144 C130 1.247 . S
C145 C148 1.380 . S
C145 C149 1.374 . S
C145 C151 1.507 . S
C146 C147 1.387 . S
C146 C150 1.391 . S
C147 C146 1.387 . S
C147 C148 1.384 . S
C147 H156 0.930 . S
C148 C145 1.380 . S
C148 C147 1.384 . S
C148 H157 0.931 . S
C149 C145 1.374 . S
C149 C150 1.390 . S
C149 H158 0.930 . S
C150 C146 1.391 . S
C150 C149 1.390 . S
C150 H159 0.930 . S
C151 Eu121 2.825 . S
C151 O136 1.238 . S
C151 O137 1.247 . S
C151 C145 1.507 . S
H152 C125 0.930 . S
H153 C126 0.931 . S
H154 C127 0.930 . S
H155 C128 0.930 . S
H156 C147 0.930 . S
H157 C148 0.931 . S
H158 C149 0.930 . S
H159 C150 0.930 . S
Tb160 C170 2.825 . S
Tb160 O171 2.347 . S
Tb160 O174 2.366 . S
Tb160 O179 2.418 . S
Tb160 O180 2.384 . S
Tb160 O183 2.479 . S
Tb160 O184 2.471 . S
Eu161 O172 2.418 . S
Eu161 O173 2.384 . S
Eu161 O176 2.479 . S
Eu161 O177 2.471 . S
Eu161 O178 2.347 . S
Eu161 O181 2.366 . S
Eu161 C191 2.825 . S
C162 O178 1.259 . S
C162 O179 1.265 . S
C163 O180 1.255 . S
C163 O181 1.265 . S
C164 C166 1.380 . S
C164 C167 1.374 . S
C164 C170 1.507 . S
C165 C166 1.384 . S
C165 C169 1.387 . S
C165 H192 0.930 . S
C166 C164 1.380 . S
C166 C165 1.384 . S
C166 H193 0.931 . S
C167 C164 1.374 . S
C167 C168 1.390 . S
C167 H194 0.930 . S
C168 C167 1.390 . S
C168 C169 1.391 . S
C168 H195 0.930 . S
C169 C165 1.387 . S
C169 C168 1.391 . S
C170 Tb160 2.825 . S
C170 C164 1.507 . S
C170 O183 1.238 . S
C170 O184 1.247 . S
O171 Tb160 2.347 . S
O171 C175 1.259 . S
O172 Eu161 2.418 . S
O172 C175 1.265 . S
O173 Eu161 2.384 . S
O173 C182 1.255 . S
O174 Tb160 2.366 . S
O174 C182 1.265 . S
C175 O171 1.259 . S
C175 O172 1.265 . S
O176 Eu161 2.479 . S
O176 C191 1.238 . S
O177 Eu161 2.471 . S
O177 C191 1.247 . S
O178 Eu161 2.347 . S
O178 C162 1.259 . S
O179 Tb160 2.418 . S
O179 C162 1.265 . S
O180 Tb160 2.384 . S
O180 C163 1.255 . S
O181 Eu161 2.366 . S
O181 C163 1.265 . S
C182 O173 1.255 . S
C182 O174 1.265 . S
O183 Tb160 2.479 . S
O183 C170 1.238 . S
O184 Tb160 2.471 . S
O184 C170 1.247 . S
C185 C188 1.380 . S
C185 C189 1.374 . S
C185 C191 1.507 . S
C186 C187 1.387 . S
C186 C190 1.391 . S
C187 C186 1.387 . S
C187 C188 1.384 . S
C187 H196 0.930 . S
C188 C185 1.380 . S
C188 C187 1.384 . S
C188 H197 0.931 . S
C189 C185 1.374 . S
C189 C190 1.390 . S
C189 H198 0.930 . S
C190 C186 1.391 . S
C190 C189 1.390 . S
C190 H199 0.930 . S
C191 Eu161 2.825 . S
C191 O176 1.238 . S
C191 O177 1.247 . S
C191 C185 1.507 . S
H192 C165 0.930 . S
H193 C166 0.931 . S
H194 C167 0.930 . S
H195 C168 0.930 . S
H196 C187 0.930 . S
H197 C188 0.931 . S
H198 C189 0.930 . S
H199 C190 0.930 . S
Tb200 C210 2.825 . S
Tb200 O211 2.347 . S
Tb200 O214 2.366 . S
Tb200 O219 2.418 . S
Tb200 O220 2.384 . S
Tb200 O223 2.479 . S
Tb200 O224 2.471 . S
Eu201 O212 2.418 . S
Eu201 O213 2.384 . S
Eu201 O216 2.479 . S
Eu201 O217 2.471 . S
Eu201 O218 2.347 . S
Eu201 O221 2.366 . S
Eu201 C231 2.825 . S
C202 O218 1.259 . S
C202 O219 1.265 . S
C203 O220 1.255 . S
C203 O221 1.265 . S
C204 C206 1.380 . S
C204 C207 1.374 . S
C204 C210 1.507 . S
C205 C206 1.384 . S
C205 C209 1.387 . S
C205 H232 0.930 . S
C206 C204 1.380 . S
C206 C205 1.384 . S
C206 H233 0.931 . S
C207 C204 1.374 . S
C207 C208 1.390 . S
C207 H234 0.930 . S
C208 C207 1.390 . S
C208 C209 1.391 . S
C208 H235 0.930 . S
C209 C205 1.387 . S
C209 C208 1.391 . S
C210 Tb200 2.825 . S
C210 C204 1.507 . S
C210 O223 1.238 . S
C210 O224 1.247 . S
O211 Tb200 2.347 . S
O211 C215 1.259 . S
O212 Eu201 2.418 . S
O212 C215 1.265 . S
O213 Eu201 2.384 . S
O213 C222 1.255 . S
O214 Tb200 2.366 . S
O214 C222 1.265 . S
C215 O211 1.259 . S
C215 O212 1.265 . S
O216 Eu201 2.479 . S
O216 C231 1.238 . S
O217 Eu201 2.471 . S
O217 C231 1.247 . S
O218 Eu201 2.347 . S
O218 C202 1.259 . S
O219 Tb200 2.418 . S
O219 C202 1.265 . S
O220 Tb200 2.384 . S
O220 C203 1.255 . S
O221 Eu201 2.366 . S
O221 C203 1.265 . S
C222 O213 1.255 . S
C222 O214 1.265 . S
O223 Tb200 2.479 . S
O223 C210 1.238 . S
O224 Tb200 2.471 . S
O224 C210 1.247 . S
C225 C228 1.380 . S
C225 C229 1.374 . S
C225 C231 1.507 . S
C226 C227 1.387 . S
C226 C230 1.391 . S
C227 C226 1.387 . S
C227 C228 1.384 . S
C227 H236 0.930 . S
C228 C225 1.380 . S
C228 C227 1.384 . S
C228 H237 0.931 . S
C229 C225 1.374 . S
C229 C230 1.390 . S
C229 H238 0.930 . S
C230 C226 1.391 . S
C230 C229 1.390 . S
C230 H239 0.930 . S
C231 Eu201 2.825 . S
C231 O216 1.238 . S
C231 O217 1.247 . S
C231 C225 1.507 . S
H232 C205 0.930 . S
H233 C206 0.931 . S
H234 C207 0.930 . S
H235 C208 0.930 . S
H236 C227 0.930 . S
H237 C228 0.931 . S
H238 C229 0.930 . S
H239 C230 0.930 . S
Tb240 C250 2.825 . S
Tb240 O251 2.347 . S
Tb240 O254 2.366 . S
Tb240 O259 2.418 . S
Tb240 O260 2.384 . S
Tb240 O263 2.479 . S
Tb240 O264 2.471 . S
Eu241 O252 2.418 . S
Eu241 O253 2.384 . S
Eu241 O256 2.479 . S
Eu241 O257 2.471 . S
Eu241 O258 2.347 . S
Eu241 O261 2.366 . S
Eu241 C271 2.825 . S
C242 O258 1.259 . S
C242 O259 1.265 . S
C243 O260 1.255 . S
C243 O261 1.265 . S
C244 C246 1.380 . S
C244 C247 1.374 . S
C244 C250 1.507 . S
C245 C246 1.384 . S
C245 C249 1.387 . S
C245 H272 0.930 . S
C246 C244 1.380 . S
C246 C245 1.384 . S
C246 H273 0.931 . S
C247 C244 1.374 . S
C247 C248 1.390 . S
C247 H274 0.930 . S
C248 C247 1.390 . S
C248 C249 1.391 . S
C248 H275 0.930 . S
C249 C245 1.387 . S
C249 C248 1.391 . S
C250 Tb240 2.825 . S
C250 C244 1.507 . S
C250 O263 1.238 . S
C250 O264 1.247 . S
O251 Tb240 2.347 . S
O251 C255 1.259 . S
O252 Eu241 2.418 . S
O252 C255 1.265 . S
O253 Eu241 2.384 . S
O253 C262 1.255 . S
O254 Tb240 2.366 . S
O254 C262 1.265 . S
C255 O251 1.259 . S
C255 O252 1.265 . S
O256 Eu241 2.479 . S
O256 C271 1.238 . S
O257 Eu241 2.471 . S
O257 C271 1.247 . S
O258 Eu241 2.347 . S
O258 C242 1.259 . S
O259 Tb240 2.418 . S
O259 C242 1.265 . S
O260 Tb240 2.384 . S
O260 C243 1.255 . S
O261 Eu241 2.366 . S
O261 C243 1.265 . S
C262 O253 1.255 . S
C262 O254 1.265 . S
O263 Tb240 2.479 . S
O263 C250 1.238 . S
O264 Tb240 2.471 . S
O264 C250 1.247 . S
C265 C268 1.380 . S
C265 C269 1.374 . S
C265 C271 1.507 . S
C266 C267 1.387 . S
C266 C270 1.391 . S
C267 C266 1.387 . S
C267 C268 1.384 . S
C267 H276 0.930 . S
C268 C265 1.380 . S
C268 C267 1.384 . S
C268 H277 0.931 . S
C269 C265 1.374 . S
C269 C270 1.390 . S
C269 H278 0.930 . S
C270 C266 1.391 . S
C270 C269 1.390 . S
C270 H279 0.930 . S
C271 Eu241 2.825 . S
C271 O256 1.238 . S
C271 O257 1.247 . S
C271 C265 1.507 . S
H272 C245 0.930 . S
H273 C246 0.931 . S
H274 C247 0.930 . S
H275 C248 0.930 . S
H276 C267 0.930 . S
H277 C268 0.931 . S
H278 C269 0.930 . S
H279 C270 0.930 . S
Tb280 C290 2.825 . S
Tb280 O291 2.347 . S
Tb280 O294 2.366 . S
Tb280 O299 2.418 . S
Tb280 O300 2.384 . S
Tb280 O303 2.479 . S
Tb280 O304 2.471 . S
Eu281 O292 2.418 . S
Eu281 O293 2.384 . S
Eu281 O296 2.479 . S
Eu281 O297 2.471 . S
Eu281 O298 2.347 . S
Eu281 O301 2.366 . S
Eu281 C311 2.825 . S
C282 O298 1.259 . S
C282 O299 1.265 . S
C283 O300 1.255 . S
C283 O301 1.265 . S
C284 C286 1.380 . S
C284 C287 1.374 . S
C284 C290 1.507 . S
C285 C286 1.384 . S
C285 C289 1.387 . S
C285 H312 0.930 . S
C286 C284 1.380 . S
C286 C285 1.384 . S
C286 H313 0.931 . S
C287 C284 1.374 . S
C287 C288 1.390 . S
C287 H314 0.930 . S
C288 C287 1.390 . S
C288 C289 1.391 . S
C288 H315 0.930 . S
C289 C285 1.387 . S
C289 C288 1.391 . S
C290 Tb280 2.825 . S
C290 C284 1.507 . S
C290 O303 1.238 . S
C290 O304 1.247 . S
O291 Tb280 2.347 . S
O291 C295 1.259 . S
O292 Eu281 2.418 . S
O292 C295 1.265 . S
O293 Eu281 2.384 . S
O293 C302 1.255 . S
O294 Tb280 2.366 . S
O294 C302 1.265 . S
C295 O291 1.259 . S
C295 O292 1.265 . S
O296 Eu281 2.479 . S
O296 C311 1.238 . S
O297 Eu281 2.471 . S
O297 C311 1.247 . S
O298 Eu281 2.347 . S
O298 C282 1.259 . S
O299 Tb280 2.418 . S
O299 C282 1.265 . S
O300 Tb280 2.384 . S
O300 C283 1.255 . S
O301 Eu281 2.366 . S
O301 C283 1.265 . S
C302 O293 1.255 . S
C302 O294 1.265 . S
O303 Tb280 2.479 . S
O303 C290 1.238 . S
O304 Tb280 2.471 . S
O304 C290 1.247 . S
C305 C308 1.380 . S
C305 C309 1.374 . S
C305 C311 1.507 . S
C306 C307 1.387 . S
C306 C310 1.391 . S
C307 C306 1.387 . S
C307 C308 1.384 . S
C307 H316 0.930 . S
C308 C305 1.380 . S
C308 C307 1.384 . S
C308 H317 0.931 . S
C309 C305 1.374 . S
C309 C310 1.390 . S
C309 H318 0.930 . S
C310 C306 1.391 . S
C310 C309 1.390 . S
C310 H319 0.930 . S
C311 Eu281 2.825 . S
C311 O296 1.238 . S
C311 O297 1.247 . S
C311 C305 1.507 . S
H312 C285 0.930 . S
H313 C286 0.931 . S
H314 C287 0.930 . S
H315 C288 0.930 . S
H316 C307 0.930 . S
H317 C308 0.931 . S
H318 C309 0.930 . S
H319 C310 0.930 . S
C320 O332 1.241 . S
C320 O333 1.280 . S
C321 O334 1.277 . S
C321 O335 1.251 . S
C322 O346 1.247 . S
C322 O348 1.289 . S
Mg323 O324 1.926 1_455 S
Mg323 O333 1.984 1_455 S
Mg323 O335 1.984 1_455 S
Mg323 O336 2.061 . S
O324 Mg323 1.926 1_655 S
O324 Mg325 1.986 . S
O324 Mg326 1.917 1_655 S
Mg325 O324 1.986 . S
Mg325 O332 2.042 . S
Mg325 O334 2.041 . S
Mg325 O340 2.038 1_545 S
Mg325 O348 2.238 1_545 S
Mg326 O324 1.917 1_455 S
Mg326 O327 1.917 1_545 S
Mg326 O337 2.106 . S
Mg326 O339 2.079 1_445 S
Mg326 O348 2.106 1_445 S
Mg326 O349 2.079 . S
O327 Mg326 1.917 1_565 S
O327 Mg328 1.926 . S
O327 Mg329 1.986 1_565 S
Mg328 O327 1.926 . S
Mg328 O342 1.984 . S
Mg328 O345 1.988 . S
Mg328 O346 2.061 1_455 S
Mg329 O327 1.986 1_545 S
Mg329 O337 2.238 . S
Mg329 O341 2.042 1_545 S
Mg329 O343 2.041 1_545 S
Mg329 O350 2.038 . S
C330 O336 1.247 . S
C330 O337 1.289 . S
C331 O349 1.245 . S
C331 O350 1.274 . S
O332 C320 1.241 . S
O332 Mg325 2.042 . S
O333 C320 1.280 . S
O333 Mg323 1.984 1_655 S
O334 C321 1.277 . S
O334 Mg325 2.041 . S
O335 C321 1.251 . S
O335 Mg323 1.984 1_655 S
O336 Mg323 2.061 . S
O336 C330 1.247 . S
O337 Mg326 2.106 . S
O337 Mg329 2.238 . S
O337 C330 1.289 . S
C338 O339 1.245 . S
C338 O340 1.274 . S
O339 Mg326 2.079 1_665 S
O339 C338 1.245 . S
O340 Mg325 2.038 1_565 S
O340 C338 1.274 . S
O341 Mg329 2.042 1_565 S
O341 C344 1.241 . S
O342 Mg328 1.984 . S
O342 C344 1.280 . S
O343 Mg329 2.041 1_565 S
O343 C347 1.277 . S
C344 O341 1.241 . S
C344 O342 1.280 . S
O345 Mg328 1.988 . S
O345 C347 1.245 . S
O346 C322 1.247 . S
O346 Mg328 2.061 1_655 S
C347 O343 1.277 . S
C347 O345 1.245 . S
O348 C322 1.289 . S
O348 Mg325 2.238 1_565 S
O348 Mg326 2.106 1_665 S
O349 Mg326 2.079 . S
O349 C331 1.245 . S
O350 Mg329 2.038 . S
O350 C331 1.274 . S
C351 O363 1.241 . S
C351 O364 1.280 . S
C352 O365 1.277 . S
C352 O366 1.245 . S
C353 O377 1.247 . S
C353 O379 1.289 1_556 S
Mg354 O355 1.926 . S
Mg354 O364 1.984 . S
Mg354 O366 1.988 . S
Mg354 O367 2.061 . S
O355 Mg354 1.926 . S
O355 Mg356 1.986 1_545 S
O355 Mg357 1.917 . S
Mg356 O355 1.986 1_565 S
Mg356 O363 2.042 1_565 S
Mg356 O365 2.041 1_565 S
Mg356 O371 2.038 . S
Mg356 O379 2.238 . S
Mg357 O355 1.917 . S
Mg357 O358 1.917 1_545 S
Mg357 O368 2.106 . S
Mg357 O370 2.079 1_545 S
Mg357 O379 2.106 1_545 S
Mg357 O380 2.079 . S
O358 Mg357 1.917 1_565 S
O358 Mg359 1.926 . S
O358 Mg360 1.986 1_565 S
Mg359 O358 1.926 . S
Mg359 O373 1.984 1_554 S
Mg359 O376 1.988 . S
Mg359 O377 2.061 1_554 S
Mg360 O358 1.986 1_545 S
Mg360 O368 2.238 . S
Mg360 O372 2.042 1_545 S
Mg360 O374 2.041 1_545 S
Mg360 O381 2.038 . S
C361 O367 1.247 . S
C361 O368 1.289 . S
C362 O380 1.245 1_556 S
C362 O381 1.274 1_556 S
O363 C351 1.241 . S
O363 Mg356 2.042 1_545 S
O364 C351 1.280 . S
O364 Mg354 1.984 . S
O365 C352 1.277 . S
O365 Mg356 2.041 1_545 S
O366 C352 1.245 . S
O366 Mg354 1.988 . S
O367 Mg354 2.061 . S
O367 C361 1.247 . S
O368 Mg357 2.106 . S
O368 Mg360 2.238 . S
O368 C361 1.289 . S
C369 O370 1.245 . S
C369 O371 1.274 . S
O370 Mg357 2.079 1_565 S
O370 C369 1.245 . S
O371 Mg356 2.038 . S
O371 C369 1.274 . S
O372 Mg360 2.042 1_565 S
O372 C375 1.241 1_554 S
O373 Mg359 1.984 1_556 S
O373 C375 1.280 . S
O374 Mg360 2.041 1_565 S
O374 C378 1.277 . S
C375 O372 1.241 1_556 S
C375 O373 1.280 . S
O376 Mg359 1.988 . S
O376 C378 1.245 . S
O377 C353 1.247 . S
O377 Mg359 2.061 1_556 S
C378 O374 1.277 . S
C378 O376 1.245 . S
O379 C353 1.289 1_554 S
O379 Mg356 2.238 . S
O379 Mg357 2.106 1_565 S
O380 Mg357 2.079 . S
O380 C362 1.245 1_554 S
O381 Mg360 2.038 . S
O381 C362 1.274 1_554 S
C382 O394 1.241 . S
C382 O395 1.280 . S
C383 O396 1.277 . S
C383 O397 1.245 1_655 S
C384 O408 1.247 . S
C384 O410 1.289 . S
Mg385 O386 1.926 . S
Mg385 O395 1.984 1_455 S
Mg385 O397 1.988 1_554 S
Mg385 O398 2.061 . S
O386 Mg385 1.926 . S
O386 Mg387 1.986 1_455 S
O386 Mg388 1.917 . S
Mg387 O386 1.986 1_655 S
Mg387 O394 2.042 . S
Mg387 O396 2.041 1_554 S
Mg387 O402 2.038 . S
Mg387 O410 2.238 1_554 S
Mg388 O386 1.917 . S
Mg388 O389 1.917 1_554 S
Mg388 O399 2.106 . S
Mg388 O401 2.079 . S
Mg388 O410 2.106 1_454 S
Mg388 O411 2.079 1_554 S
O389 Mg388 1.917 1_556 S
O389 Mg390 1.926 . S
O389 Mg391 1.986 1_556 S
Mg390 O389 1.926 . S
Mg390 O404 1.984 . S
Mg390 O407 1.988 1_556 S
Mg390 O408 2.061 1_455 S
Mg391 O389 1.986 1_554 S
Mg391 O399 2.238 . S
Mg391 O403 2.042 1_554 S
Mg391 O405 2.041 . S
Mg391 O412 2.038 1_554 S
C392 O398 1.247 . S
C392 O399 1.289 . S
C393 O411 1.245 . S
C393 O412 1.274 . S
O394 C382 1.241 . S
O394 Mg387 2.042 . S
O395 C382 1.280 . S
O395 Mg385 1.984 1_655 S
O396 C383 1.277 . S
O396 Mg387 2.041 1_556 S
O397 C383 1.245 1_455 S
O397 Mg385 1.988 1_556 S
O398 Mg385 2.061 . S
O398 C392 1.247 . S
O399 Mg388 2.106 . S
O399 Mg391 2.238 . S
O399 C392 1.289 . S
C400 O401 1.245 1_655 S
C400 O402 1.274 . S
O401 Mg388 2.079 . S
O401 C400 1.245 1_455 S
O402 Mg387 2.038 . S
O402 C400 1.274 . S
O403 Mg391 2.042 1_556 S
O403 C406 1.241 . S
O404 Mg390 1.984 . S
O404 C406 1.280 . S
O405 Mg391 2.041 . S
O405 C409 1.277 . S
C406 O403 1.241 . S
C406 O404 1.280 . S
O407 Mg390 1.988 1_554 S
O407 C409 1.245 . S
O408 C384 1.247 . S
O408 Mg390 2.061 1_655 S
C409 O405 1.277 . S
C409 O407 1.245 . S
O410 C384 1.289 . S
O410 Mg387 2.238 1_556 S
O410 Mg388 2.106 1_656 S
O411 Mg388 2.079 1_556 S
O411 C393 1.245 . S
O412 Mg391 2.038 1_556 S
O412 C393 1.274 . S
C413 O425 1.241 . S
C413 O426 1.280 . S
C414 O427 1.277 . S
C414 O428 1.245 1_556 S
C415 O439 1.247 . S
C415 O441 1.289 . S
Mg416 O417 1.926 . S
Mg416 O426 1.984 . S
Mg416 O428 1.988 . S
Mg416 O429 2.061 . S
O417 Mg416 1.926 . S
O417 Mg418 1.986 . S
O417 Mg419 1.917 . S
Mg418 O417 1.986 . S
Mg418 O425 2.042 . S
Mg418 O427 2.041 1_554 S
Mg418 O433 2.038 . S
Mg418 O441 2.238 1_554 S
Mg419 O417 1.917 . S
Mg419 O420 1.917 . S
Mg419 O430 2.106 . S
Mg419 O432 2.079 . S
Mg419 O441 2.106 1_554 S
Mg419 O442 2.079 1_554 S
O420 Mg419 1.917 . S
O420 Mg421 1.926 . S
O420 Mg422 1.986 . S
Mg421 O420 1.926 . S
Mg421 O435 1.984 1_554 S
Mg421 O438 1.988 . S
Mg421 O439 2.061 1_554 S
Mg422 O420 1.986 . S
Mg422 O430 2.238 . S
Mg422 O434 2.042 1_554 S
Mg422 O436 2.041 . S
Mg422 O443 2.038 1_554 S
C423 O429 1.247 . S
C423 O430 1.289 . S
C424 O442 1.245 . S
C424 O443 1.274 . S
O425 C413 1.241 . S
O425 Mg418 2.042 . S
O426 C413 1.280 . S
O426 Mg416 1.984 . S
O427 C414 1.277 . S
O427 Mg418 2.041 1_556 S
O428 C414 1.245 1_554 S
O428 Mg416 1.988 . S
O429 Mg416 2.061 . S
O429 C423 1.247 . S
O430 Mg419 2.106 . S
O430 Mg422 2.238 . S
O430 C423 1.289 . S
C431 O432 1.245 . S
C431 O433 1.274 . S
O432 Mg419 2.079 . S
O432 C431 1.245 . S
O433 Mg418 2.038 . S
O433 C431 1.274 . S
O434 Mg422 2.042 1_556 S
O434 C437 1.241 . S
O435 Mg421 1.984 1_556 S
O435 C437 1.280 . S
O436 Mg422 2.041 . S
O436 C440 1.277 . S
C437 O434 1.241 . S
C437 O435 1.280 . S
O438 Mg421 1.988 . S
O438 C440 1.245 . S
O439 C415 1.247 . S
O439 Mg421 2.061 1_556 S
C440 O436 1.277 . S
C440 O438 1.245 . S
O441 C415 1.289 . S
O441 Mg418 2.238 1_556 S
O441 Mg419 2.106 1_556 S
O442 Mg419 2.079 1_556 S
O442 C424 1.245 . S
O443 Mg422 2.038 1_556 S
O443 C424 1.274 . S
C444 O456 1.241 . S
C444 O457 1.280 . S
C445 O458 1.277 . S
C445 O459 1.245 . S
C446 O470 1.247 . S
C446 O472 1.289 . S
Mg447 O448 1.926 1_455 S
Mg447 O457 1.984 1_455 S
Mg447 O459 1.988 1_455 S
Mg447 O460 2.061 . S
O448 Mg447 1.926 1_655 S
O448 Mg449 1.986 . S
O448 Mg450 1.917 1_655 S
Mg449 O448 1.986 . S
Mg449 O456 2.042 . S
Mg449 O458 2.041 . S
Mg449 O464 2.038 . S
Mg449 O472 2.238 . S
Mg450 O448 1.917 1_455 S
Mg450 O451 1.917 . S
Mg450 O461 2.106 . S
Mg450 O463 2.079 1_455 S
Mg450 O472 2.106 1_455 S
Mg450 O473 2.079 . S
O451 Mg450 1.917 . S
O451 Mg452 1.926 . S
O451 Mg453 1.986 . S
Mg452 O451 1.926 . S
Mg452 O466 1.984 . S
Mg452 O469 1.988 . S
Mg452 O470 2.061 1_455 S
Mg453 O451 1.986 . S
Mg453 O461 2.238 . S
Mg453 O465 2.042 . S
Mg453 O467 2.041 . S
Mg453 O474 2.038 . S
C454 O460 1.247 . S
C454 O461 1.289 . S
C455 O473 1.245 . S
C455 O474 1.274 . S
O456 C444 1.241 . S
O456 Mg449 2.042 . S
O457 C444 1.280 . S
O457 Mg447 1.984 1_655 S
O458 C445 1.277 . S
O458 Mg449 2.041 . S
O459 C445 1.245 . S
O459 Mg447 1.988 1_655 S
O460 Mg447 2.061 . S
O460 C454 1.247 . S
O461 Mg450 2.106 . S
O461 Mg453 2.238 . S
O461 C454 1.289 . S
C462 O463 1.245 . S
C462 O464 1.274 . S
O463 Mg450 2.079 1_655 S
O463 C462 1.245 . S
O464 Mg449 2.038 . S
O464 C462 1.274 . S
O465 Mg453 2.042 . S
O465 C468 1.241 . S
O466 Mg452 1.984 . S
O466 C468 1.280 . S
O467 Mg453 2.041 . S
O467 C471 1.277 . S
C468 O465 1.241 . S
C468 O466 1.280 . S
O469 Mg452 1.988 . S
O469 C471 1.245 . S
O470 C446 1.247 . S
O470 Mg452 2.061 1_655 S
C471 O467 1.277 . S
C471 O469 1.245 . S
O472 C446 1.289 . S
O472 Mg449 2.238 . S
O472 Mg450 2.106 1_655 S
O473 Mg450 2.079 . S
O473 C455 1.245 . S
O474 Mg453 2.038 . S
O474 C455 1.274 . S
C475 O487 1.241 . S
C475 O488 1.280 . S
C476 O489 1.277 . S
C476 O490 1.245 . S
C477 O501 1.247 . S
C477 O503 1.289 . S
Mg478 O479 1.926 . S
Mg478 O488 1.984 . S
Mg478 O490 1.988 . S
Mg478 O491 2.061 . S
O479 Mg478 1.926 . S
O479 Mg480 1.986 . S
O479 Mg481 1.917 . S
Mg480 O479 1.986 . S
Mg480 O487 2.042 . S
Mg480 O489 2.041 . S
Mg480 O495 2.038 1_545 S
Mg480 O503 2.238 1_545 S
Mg481 O479 1.917 . S
Mg481 O482 1.917 . S
Mg481 O492 2.106 . S
Mg481 O494 2.079 1_545 S
Mg481 O503 2.106 1_545 S
Mg481 O504 2.079 . S
O482 Mg481 1.917 . S
O482 Mg483 1.926 1_545 S
O482 Mg484 1.986 . S
Mg483 O482 1.926 1_565 S
Mg483 O497 1.984 . S
Mg483 O500 1.988 . S
Mg483 O501 2.061 . S
Mg484 O482 1.986 . S
Mg484 O492 2.238 . S
Mg484 O496 2.042 . S
Mg484 O498 2.041 . S
Mg484 O505 2.038 . S
C485 O491 1.247 . S
C485 O492 1.289 . S
C486 O504 1.245 . S
C486 O505 1.274 . S
O487 C475 1.241 . S
O487 Mg480 2.042 . S
O488 C475 1.280 . S
O488 Mg478 1.984 . S
O489 C476 1.277 . S
O489 Mg480 2.041 . S
O490 C476 1.245 . S
O490 Mg478 1.988 . S
O491 Mg478 2.061 . S
O491 C485 1.247 . S
O492 Mg481 2.106 . S
O492 Mg484 2.238 . S
O492 C485 1.289 . S
C493 O494 1.245 . S
C493 O495 1.274 . S
O494 Mg481 2.079 1_565 S
O494 C493 1.245 . S
O495 Mg480 2.038 1_565 S
O495 C493 1.274 . S
O496 Mg484 2.042 . S
O496 C499 1.241 1_545 S
O497 Mg483 1.984 . S
O497 C499 1.280 . S
O498 Mg484 2.041 . S
O498 C502 1.277 1_545 S
C499 O496 1.241 1_565 S
C499 O497 1.280 . S
O500 Mg483 1.988 . S
O500 C502 1.245 . S
O501 C477 1.247 . S
O501 Mg483 2.061 . S
C502 O498 1.277 1_565 S
C502 O500 1.245 . S
O503 C477 1.289 . S
O503 Mg480 2.238 1_565 S
O503 Mg481 2.106 1_565 S
O504 Mg481 2.079 . S
O504 C486 1.245 . S
O505 Mg484 2.038 . S
O505 C486 1.274 . S
C506 C507 1.369 . S
C506 C508 1.419 . S
C506 H510 0.930 . S
C507 C506 1.369 . S
C507 C516 1.429 . S
C508 C506 1.419 . S
C508 C509 1.363 . S
C508 H511 0.929 . S
C509 C508 1.363 . S
C509 C515 1.428 . S
H510 C506 0.930 . S
H511 C508 0.929 . S
S512 N513 1.613 . S
S512 N514 1.610 . S
N513 S512 1.613 . S
N513 C516 1.350 . S
N514 S512 1.610 . S
N514 C515 1.351 . S
C515 C509 1.428 . S
C515 N514 1.351 . S
C515 C516 1.434 . S
C516 C507 1.429 . S
C516 N513 1.350 . S
C516 C515 1.434 . S
C517 C518 1.369 . S
C517 C519 1.419 . S
C517 H521 0.930 . S
C518 C517 1.369 . S
C518 C527 1.429 . S
C519 C517 1.419 . S
C519 C520 1.363 . S
C519 H522 0.929 . S
C520 C519 1.363 . S
C520 C526 1.428 . S
H521 C517 0.930 . S
H522 C519 0.929 . S
S523 N524 1.613 . S
S523 N525 1.610 . S
N524 S523 1.613 . S
N524 C527 1.350 . S
N525 S523 1.610 . S
N525 C526 1.351 . S
C526 C520 1.428 . S
C526 N525 1.351 . S
C526 C527 1.434 . S
C527 C518 1.429 . S
C527 N524 1.350 . S
C527 C526 1.434 . S
C528 C529 1.369 . S
C528 C530 1.419 . S
C528 H532 0.930 . S
C529 C528 1.369 . S
C529 C538 1.429 . S
C530 C528 1.419 . S
C530 C531 1.363 . S
C530 H533 0.929 . S
C531 C530 1.363 . S
C531 C537 1.428 . S
H532 C528 0.930 . S
H533 C530 0.929 . S
S534 N535 1.613 . S
S534 N536 1.610 . S
N535 S534 1.613 . S
N535 C538 1.350 . S
N536 S534 1.610 . S
N536 C537 1.351 . S
C537 C531 1.428 . S
C537 N536 1.351 . S
C537 C538 1.434 . S
C538 C529 1.429 . S
C538 N535 1.350 . S
C538 C537 1.434 . S
C539 C540 1.369 . S
C539 C541 1.419 . S
C539 H543 0.930 . S
C540 C539 1.369 . S
C540 C549 1.429 . S
C541 C539 1.419 . S
C541 C542 1.363 . S
C541 H544 0.929 . S
C542 C541 1.363 . S
C542 C548 1.428 . S
H543 C539 0.930 . S
H544 C541 0.929 . S
S545 N546 1.613 . S
S545 N547 1.610 . S
N546 S545 1.613 . S
N546 C549 1.350 . S
N547 S545 1.610 . S
N547 C548 1.351 . S
C548 C542 1.428 . S
C548 N547 1.351 . S
C548 C549 1.434 . S
C549 C540 1.429 . S
C549 N546 1.350 . S
C549 C548 1.434 . S
C550 C551 1.369 . S
C550 C552 1.419 . S
C550 H554 0.930 . S
C551 C550 1.369 . S
C551 C560 1.429 . S
C552 C550 1.419 . S
C552 C553 1.363 . S
C552 H555 0.929 . S
C553 C552 1.363 . S
C553 C559 1.428 . S
H554 C550 0.930 . S
H555 C552 0.929 . S
S556 N557 1.613 . S
S556 N558 1.610 . S
N557 S556 1.613 . S
N557 C560 1.350 . S
N558 S556 1.610 . S
N558 C559 1.351 . S
C559 C553 1.428 . S
C559 N558 1.351 . S
C559 C560 1.434 . S
C560 C551 1.429 . S
C560 N557 1.350 . S
C560 C559 1.434 . S
C561 C562 1.369 . S
C561 C563 1.419 . S
C561 H565 0.930 . S
C562 C561 1.369 . S
C562 C571 1.429 . S
C563 C561 1.419 . S
C563 C564 1.363 . S
C563 H566 0.929 . S
C564 C563 1.363 . S
C564 C570 1.428 . S
H565 C561 0.930 . S
H566 C563 0.929 . S
S567 N568 1.613 . S
S567 N569 1.610 . S
N568 S567 1.613 . S
N568 C571 1.350 . S
N569 S567 1.610 . S
N569 C570 1.351 . S
C570 C564 1.428 . S
C570 N569 1.351 . S
C570 C571 1.434 . S
C571 C562 1.429 . S
C571 N568 1.350 . S
C571 C570 1.434 . S
C572 C573 1.369 . S
C572 C574 1.419 . S
C572 H576 0.930 . S
C573 C572 1.369 . S
C573 C582 1.429 . S
C574 C572 1.419 . S
C574 C575 1.363 . S
C574 H577 0.929 . S
C575 C574 1.363 . S
C575 C581 1.428 . S
H576 C572 0.930 . S
H577 C574 0.929 . S
S578 N579 1.613 . S
S578 N580 1.610 1_455 S
N579 S578 1.613 . S
N579 C582 1.350 1_455 S
N580 S578 1.610 1_655 S
N580 C581 1.351 . S
C581 C575 1.428 . S
C581 N580 1.351 . S
C581 C582 1.434 . S
C582 C573 1.429 . S
C582 N579 1.350 1_655 S
C582 C581 1.434 . S
C583 C584 1.369 . S
C583 C585 1.419 . S
C583 H587 0.930 . S
C584 C583 1.369 . S
C584 C593 1.429 . S
C585 C583 1.419 . S
C585 C586 1.363 . S
C585 H588 0.929 . S
C586 C585 1.363 . S
C586 C592 1.428 . S
H587 C583 0.930 . S
H588 C585 0.929 . S
S589 N590 1.613 . S
S589 N591 1.610 . S
N590 S589 1.613 . S
N590 C593 1.350 . S
N591 S589 1.610 . S
N591 C592 1.351 . S
C592 C586 1.428 . S
C592 N591 1.351 . S
C592 C593 1.434 . S
C593 C584 1.429 . S
C593 N590 1.350 . S
C593 C592 1.434 . S
C594 C595 1.369 . S
C594 C596 1.419 . S
C594 H598 0.930 . S
C595 C594 1.369 . S
C595 C604 1.429 . S
C596 C594 1.419 . S
C596 C597 1.363 . S
C596 H599 0.929 . S
C597 C596 1.363 . S
C597 C603 1.428 . S
H598 C594 0.930 . S
H599 C596 0.929 . S
S600 N601 1.613 . S
S600 N602 1.610 . S
N601 S600 1.613 . S
N601 C604 1.350 . S
N602 S600 1.610 . S
N602 C603 1.351 . S
C603 C597 1.428 . S
C603 N602 1.351 . S
C603 C604 1.434 . S
C604 C595 1.429 . S
C604 N601 1.350 . S
C604 C603 1.434 . S
C605 C606 1.369 . S
C605 C607 1.419 . S
C605 H609 0.930 . S
C606 C605 1.369 . S
C606 C615 1.429 . S
C607 C605 1.419 . S
C607 C608 1.363 . S
C607 H610 0.929 . S
C608 C607 1.363 . S
C608 C614 1.428 . S
H609 C605 0.930 . S
H610 C607 0.929 . S
S611 N612 1.613 . S
S611 N613 1.610 . S
N612 S611 1.613 . S
N612 C615 1.350 . S
N613 S611 1.610 . S
N613 C614 1.351 . S
C614 C608 1.428 . S
C614 N613 1.351 . S
C614 C615 1.434 . S
C615 C606 1.429 . S
C615 N612 1.350 . S
C615 C614 1.434 . S
C616 C617 1.369 . S
C616 C618 1.419 . S
C616 H620 0.930 . S
C617 C616 1.369 . S
C617 C626 1.429 . S
C618 C616 1.419 . S
C618 C619 1.363 . S
C618 H621 0.929 . S
C619 C618 1.363 . S
C619 C625 1.428 . S
H620 C616 0.930 . S
H621 C618 0.929 . S
S622 N623 1.613 . S
S622 N624 1.610 . S
N623 S622 1.613 . S
N623 C626 1.350 . S
N624 S622 1.610 . S
N624 C625 1.351 . S
C625 C619 1.428 . S
C625 N624 1.351 . S
C625 C626 1.434 . S
C626 C617 1.429 . S
C626 N623 1.350 . S
C626 C625 1.434 . S
C627 C628 1.369 . S
C627 C629 1.419 . S
C627 H631 0.930 . S
C628 C627 1.369 . S
C628 C637 1.429 . S
C629 C627 1.419 . S
C629 C630 1.363 . S
C629 H632 0.929 . S
C630 C629 1.363 . S
C630 C636 1.428 . S
H631 C627 0.930 . S
H632 C629 0.929 . S
S633 N634 1.613 . S
S633 N635 1.610 . S
N634 S633 1.613 . S
N634 C637 1.350 . S
N635 S633 1.610 . S
N635 C636 1.351 . S
C636 C630 1.428 . S
C636 N635 1.351 . S
C636 C637 1.434 . S
C637 C628 1.429 . S
C637 N634 1.350 . S
C637 C636 1.434 . S
C638 C639 1.369 . S
C638 C640 1.419 . S
C638 H642 0.930 . S
C639 C638 1.369 . S
C639 C648 1.429 . S
C640 C638 1.419 . S
C640 C641 1.363 . S
C640 H643 0.929 . S
C641 C640 1.363 . S
C641 C647 1.428 . S
H642 C638 0.930 . S
H643 C640 0.929 . S
S644 N645 1.613 . S
S644 N646 1.610 . S
N645 S644 1.613 . S
N645 C648 1.350 . S
N646 S644 1.610 . S
N646 C647 1.351 . S
C647 C641 1.428 . S
C647 N646 1.351 . S
C647 C648 1.434 . S
C648 C639 1.429 . S
C648 N645 1.350 . S
C648 C647 1.434 . S
C649 C650 1.369 . S
C649 C651 1.419 . S
C649 H653 0.930 . S
C650 C649 1.369 . S
C650 C659 1.429 . S
C651 C649 1.419 . S
C651 C652 1.363 . S
C651 H654 0.929 . S
C652 C651 1.363 . S
C652 C658 1.428 . S
H653 C649 0.930 . S
H654 C651 0.929 . S
S655 N656 1.613 . S
S655 N657 1.610 . S
N656 S655 1.613 . S
N656 C659 1.350 . S
N657 S655 1.610 . S
N657 C658 1.351 . S
C658 C652 1.428 . S
C658 N657 1.351 . S
C658 C659 1.434 . S
C659 C650 1.429 . S
C659 N656 1.350 . S
C659 C658 1.434 . S
C660 C661 1.369 . S
C660 C662 1.419 . S
C660 H664 0.930 . S
C661 C660 1.369 . S
C661 C670 1.429 . S
C662 C660 1.419 . S
C662 C663 1.363 . S
C662 H665 0.929 . S
C663 C662 1.363 . S
C663 C669 1.428 . S
H664 C660 0.930 . S
H665 C662 0.929 . S
S666 N667 1.613 . S
S666 N668 1.610 . S
N667 S666 1.613 . S
N667 C670 1.350 . S
N668 S666 1.610 . S
N668 C669 1.351 . S
C669 C663 1.428 . S
C669 N668 1.351 . S
C669 C670 1.434 . S
C670 C661 1.429 . S
C670 N667 1.350 . S
C670 C669 1.434 . S
C671 C672 1.369 . S
C671 C673 1.419 . S
C671 H675 0.930 . S
C672 C671 1.369 . S
C672 C681 1.429 . S
C673 C671 1.419 . S
C673 C674 1.363 . S
C673 H676 0.929 . S
C674 C673 1.363 . S
C674 C680 1.428 . S
H675 C671 0.930 . S
H676 C673 0.929 . S
S677 N678 1.613 1_455 S
S677 N679 1.610 1_554 S
N678 S677 1.613 1_655 S
N678 C681 1.350 1_554 S
N679 S677 1.610 1_556 S
N679 C680 1.351 1_455 S
C680 C674 1.428 . S
C680 N679 1.351 1_655 S
C680 C681 1.434 . S
C681 C672 1.429 . S
C681 N678 1.350 1_556 S
C681 C680 1.434 . S
C682 C683 1.369 . S
C682 C684 1.419 . S
C682 H686 0.930 . S
C683 C682 1.369 . S
C683 C692 1.429 . S
C684 C682 1.419 . S
C684 C685 1.363 . S
C684 H687 0.929 . S
C685 C684 1.363 . S
C685 C691 1.428 . S
H686 C682 0.930 . S
H687 C684 0.929 . S
S688 N689 1.613 . S
S688 N690 1.610 . S
N689 S688 1.613 . S
N689 C692 1.350 . S
N690 S688 1.610 . S
N690 C691 1.351 . S
C691 C685 1.428 . S
C691 N690 1.351 . S
C691 C692 1.434 . S
C692 C683 1.429 . S
C692 N689 1.350 . S
C692 C691 1.434 . S
C693 C694 1.369 . S
C693 C695 1.419 . S
C693 H697 0.930 . S
C694 C693 1.369 . S
C694 C703 1.429 . S
C695 C693 1.419 . S
C695 C696 1.363 . S
C695 H698 0.929 . S
C696 C695 1.363 . S
C696 C702 1.428 . S
H697 C693 0.930 . S
H698 C695 0.929 . S
S699 N700 1.613 . S
S699 N701 1.610 . S
N700 S699 1.613 . S
N700 C703 1.350 . S
N701 S699 1.610 . S
N701 C702 1.351 . S
C702 C696 1.428 . S
C702 N701 1.351 . S
C702 C703 1.434 . S
C703 C694 1.429 . S
C703 N700 1.350 . S
C703 C702 1.434 . S
C704 C705 1.369 . S
C704 C706 1.419 . S
C704 H708 0.930 . S
C705 C704 1.369 . S
C705 C714 1.429 . S
C706 C704 1.419 . S
C706 C707 1.363 . S
C706 H709 0.929 . S
C707 C706 1.363 . S
C707 C713 1.428 . S
H708 C704 0.930 . S
H709 C706 0.929 . S
S710 N711 1.613 . S
S710 N712 1.610 1_556 S
N711 S710 1.613 . S
N711 C714 1.350 . S
N712 S710 1.610 1_554 S
N712 C713 1.351 1_554 S
C713 C707 1.428 . S
C713 N712 1.351 1_556 S
C713 C714 1.434 . S
C714 C705 1.429 . S
C714 N711 1.350 . S
C714 C713 1.434 . S
C715 C716 1.369 . S
C715 C717 1.419 . S
C715 H719 0.930 . S
C716 C715 1.369 . S
C716 C725 1.429 . S
C717 C715 1.419 . S
C717 C718 1.363 . S
C717 H720 0.929 . S
C718 C717 1.363 . S
C718 C724 1.428 . S
H719 C715 0.930 . S
H720 C717 0.929 . S
S721 N722 1.613 . S
S721 N723 1.610 . S
N722 S721 1.613 . S
N722 C725 1.350 . S
N723 S721 1.610 . S
N723 C724 1.351 . S
C724 C718 1.428 . S
C724 N723 1.351 . S
C724 C725 1.434 . S
C725 C716 1.429 . S
C725 N722 1.350 . S
C725 C724 1.434 . S
C726 C727 1.369 . S
C726 C728 1.419 . S
C726 H730 0.930 . S
C727 C726 1.369 . S
C727 C736 1.429 . S
C728 C726 1.419 . S
C728 C729 1.363 . S
C728 H731 0.929 . S
C729 C728 1.363 . S
C729 C735 1.428 . S
H730 C726 0.930 . S
H731 C728 0.929 . S
S732 N733 1.613 . S
S732 N734 1.610 . S
N733 S732 1.613 . S
N733 C736 1.350 . S
N734 S732 1.610 . S
N734 C735 1.351 . S
C735 C729 1.428 . S
C735 N734 1.351 . S
C735 C736 1.434 . S
C736 C727 1.429 . S
C736 N733 1.350 . S
C736 C735 1.434 . S
C737 C738 1.369 . S
C737 C739 1.419 . S
C737 H741 0.930 . S
C738 C737 1.369 . S
C738 C747 1.429 . S
C739 C737 1.419 . S
C739 C740 1.363 . S
C739 H742 0.929 . S
C740 C739 1.363 . S
C740 C746 1.428 . S
H741 C737 0.930 . S
H742 C739 0.929 . S
S743 N744 1.613 . S
S743 N745 1.610 . S
N744 S743 1.613 . S
N744 C747 1.350 . S
N745 S743 1.610 . S
N745 C746 1.351 . S
C746 C740 1.428 . S
C746 N745 1.351 . S
C746 C747 1.434 . S
C747 C738 1.429 . S
C747 N744 1.350 . S
C747 C746 1.434 . S
C748 C749 1.369 . S
C748 C750 1.419 . S
C748 H752 0.930 . S
C749 C748 1.369 . S
C749 C758 1.429 . S
C750 C748 1.419 . S
C750 C751 1.363 . S
C750 H753 0.929 . S
C751 C750 1.363 . S
C751 C757 1.428 . S
H752 C748 0.930 . S
H753 C750 0.929 . S
S754 N755 1.613 . S
S754 N756 1.610 . S
N755 S754 1.613 . S
N755 C758 1.350 . S
N756 S754 1.610 . S
N756 C757 1.351 . S
C757 C751 1.428 . S
C757 N756 1.351 . S
C757 C758 1.434 . S
C758 C749 1.429 . S
C758 N755 1.350 . S
C758 C757 1.434 . S
C759 C760 1.369 . S
C759 C761 1.419 . S
C759 H763 0.930 . S
C760 C759 1.369 . S
C760 C769 1.429 . S
C761 C759 1.419 . S
C761 C762 1.363 . S
C761 H764 0.929 . S
C762 C761 1.363 . S
C762 C768 1.428 . S
H763 C759 0.930 . S
H764 C761 0.929 . S
S765 N766 1.613 . S
S765 N767 1.610 . S
N766 S765 1.613 . S
N766 C769 1.350 . S
N767 S765 1.610 . S
N767 C768 1.351 . S
C768 C762 1.428 . S
C768 N767 1.351 . S
C768 C769 1.434 . S
C769 C760 1.429 . S
C769 N766 1.350 . S
C769 C768 1.434 . S
C770 C771 1.369 . S
C770 C772 1.419 . S
C770 H774 0.930 . S
C771 C770 1.369 . S
C771 C780 1.429 . S
C772 C770 1.419 . S
C772 C773 1.363 . S
C772 H775 0.929 . S
C773 C772 1.363 . S
C773 C779 1.428 . S
H774 C770 0.930 . S
H775 C772 0.929 . S
S776 N777 1.613 . S
S776 N778 1.610 . S
N777 S776 1.613 . S
N777 C780 1.350 . S
N778 S776 1.610 . S
N778 C779 1.351 . S
C779 C773 1.428 . S
C779 N778 1.351 . S
C779 C780 1.434 . S
C780 C771 1.429 . S
C780 N777 1.350 . S
C780 C779 1.434 . S
C781 C782 1.369 . S
C781 C783 1.419 . S
C781 H785 0.930 . S
C782 C781 1.369 . S
C782 C791 1.429 . S
C783 C781 1.419 . S
C783 C784 1.363 . S
C783 H786 0.929 . S
C784 C783 1.363 . S
C784 C790 1.428 . S
H785 C781 0.930 . S
H786 C783 0.929 . S
S787 N788 1.587 1_554 S
S787 N789 1.611 . S
N788 S787 1.587 1_556 S
N788 C791 1.350 . S
N789 S787 1.611 . S
N789 C790 1.351 1_554 S
C790 C784 1.428 . S
C790 N789 1.351 1_556 S
C790 C791 1.434 . S
C791 C782 1.429 . S
C791 N788 1.350 . S
C791 C790 1.434 . S
C792 C793 1.369 . S
C792 C794 1.419 . S
C792 H796 0.930 . S
C793 C792 1.369 . S
C793 C802 1.429 . S
C794 C792 1.419 . S
C794 C795 1.363 . S
C794 H797 0.929 . S
C795 C794 1.363 . S
C795 C801 1.428 . S
H796 C792 0.930 . S
H797 C794 0.929 . S
S798 N799 1.613 . S
S798 N800 1.610 . S
N799 S798 1.613 . S
N799 C802 1.350 . S
N800 S798 1.610 . S
N800 C801 1.351 . S
C801 C795 1.428 . S
C801 N800 1.351 . S
C801 C802 1.434 . S
C802 C793 1.429 . S
C802 N799 1.350 . S
C802 C801 1.434 . S
C803 C804 1.369 . S
C803 C805 1.419 . S
C803 H807 0.930 . S
C804 C803 1.369 . S
C804 C813 1.429 . S
C805 C803 1.419 . S
C805 C806 1.363 . S
C805 H808 0.929 . S
C806 C805 1.363 . S
C806 C812 1.428 . S
H807 C803 0.930 . S
H808 C805 0.929 . S
S809 N810 1.613 . S
S809 N811 1.610 . S
N810 S809 1.613 . S
N810 C813 1.350 1_554 S
N811 S809 1.610 . S
N811 C812 1.351 1_554 S
C812 C806 1.428 . S
C812 N811 1.351 1_556 S
C812 C813 1.434 . S
C813 C804 1.429 . S
C813 N810 1.350 1_556 S
C813 C812 1.434 . S
C814 C815 1.369 . S
C814 C816 1.419 . S
C814 H818 0.930 . S
C815 C814 1.369 . S
C815 C824 1.429 . S
C816 C814 1.419 . S
C816 C817 1.363 . S
C816 H819 0.929 . S
C817 C816 1.363 . S
C817 C823 1.428 . S
H818 C814 0.930 . S
H819 C816 0.929 . S
S820 N821 1.613 . S
S820 N822 1.610 . S
N821 S820 1.613 . S
N821 C824 1.350 . S
N822 S820 1.610 . S
N822 C823 1.351 . S
C823 C817 1.428 . S
C823 N822 1.351 . S
C823 C824 1.434 . S
C824 C815 1.429 . S
C824 N821 1.350 . S
C824 C823 1.434 . S
C825 C826 1.369 . S
C825 C827 1.419 . S
C825 H829 0.930 . S
C826 C825 1.369 . S
C826 C835 1.429 . S
C827 C825 1.419 . S
C827 C828 1.363 . S
C827 H830 0.929 . S
C828 C827 1.363 . S
C828 C834 1.428 . S
H829 C825 0.930 . S
H830 C827 0.929 . S
S831 N832 1.613 . S
S831 N833 1.610 . S
N832 S831 1.613 . S
N832 C835 1.350 . S
N833 S831 1.610 . S
N833 C834 1.351 . S
C834 C828 1.428 . S
C834 N833 1.351 . S
C834 C835 1.434 . S
C835 C826 1.429 . S
C835 N832 1.350 . S
C835 C834 1.434 . S
C836 C837 1.369 . S
C836 C838 1.419 . S
C836 H840 0.930 . S
C837 C836 1.369 . S
C837 C846 1.429 . S
C838 C836 1.419 . S
C838 C839 1.363 . S
C838 H841 0.929 . S
C839 C838 1.363 . S
C839 C845 1.428 . S
H840 C836 0.930 . S
H841 C838 0.929 . S
S842 N843 1.613 . S
S842 N844 1.610 . S
N843 S842 1.613 . S
N843 C846 1.350 . S
N844 S842 1.610 . S
N844 C845 1.351 . S
C845 C839 1.428 . S
C845 N844 1.351 . S
C845 C846 1.434 . S
C846 C837 1.429 . S
C846 N843 1.350 . S
C846 C845 1.434 . S
C847 C848 1.369 . S
C847 C849 1.419 . S
C847 H851 0.930 . S
C848 C847 1.369 . S
C848 C857 1.429 . S
C849 C847 1.419 . S
C849 C850 1.363 . S
C849 H852 0.929 . S
C850 C849 1.363 . S
C850 C856 1.428 . S
H851 C847 0.930 . S
H852 C849 0.929 . S
S853 N854 1.613 . S
S853 N855 1.610 . S
N854 S853 1.613 . S
N854 C857 1.350 . S
N855 S853 1.610 . S
N855 C856 1.351 . S
C856 C850 1.428 . S
C856 N855 1.351 . S
C856 C857 1.434 . S
C857 C848 1.429 . S
C857 N854 1.350 . S
C857 C856 1.434 . S
C858 C859 1.369 . S
C858 C860 1.419 . S
C858 H862 0.930 . S
C859 C858 1.369 . S
C859 C868 1.429 . S
C860 C858 1.419 . S
C860 C861 1.363 . S
C860 H863 0.929 . S
C861 C860 1.363 . S
C861 C867 1.428 . S
H862 C858 0.930 . S
H863 C860 0.929 . S
S864 N865 1.613 . S
S864 N866 1.610 . S
N865 S864 1.613 . S
N865 C868 1.350 . S
N866 S864 1.610 . S
N866 C867 1.351 . S
C867 C861 1.428 . S
C867 N866 1.351 . S
C867 C868 1.434 . S
C868 C859 1.429 . S
C868 N865 1.350 . S
C868 C867 1.434 . S
C869 C870 1.369 . S
C869 C871 1.419 . S
C869 H873 0.930 . S
C870 C869 1.369 . S
C870 C879 1.429 . S
C871 C869 1.419 . S
C871 C872 1.363 . S
C871 H874 0.929 . S
C872 C871 1.363 . S
C872 C878 1.428 . S
H873 C869 0.930 . S
H874 C871 0.929 . S
S875 N876 1.613 . S
S875 N877 1.610 . S
N876 S875 1.613 . S
N876 C879 1.350 . S
N877 S875 1.610 . S
N877 C878 1.351 . S
C878 C872 1.428 . S
C878 N877 1.351 . S
C878 C879 1.434 . S
C879 C870 1.429 . S
C879 N876 1.350 . S
C879 C878 1.434 . S
C880 C881 1.369 . S
C880 C882 1.419 . S
C880 H884 0.930 . S
C881 C880 1.369 . S
C881 C890 1.429 . S
C882 C880 1.419 . S
C882 C883 1.363 . S
C882 H885 0.929 . S
C883 C882 1.363 . S
C883 C889 1.428 . S
H884 C880 0.930 . S
H885 C882 0.929 . S
S886 N887 1.613 . S
S886 N888 1.610 . S
N887 S886 1.613 . S
N887 C890 1.350 . S
N888 S886 1.610 . S
N888 C889 1.351 . S
C889 C883 1.428 . S
C889 N888 1.351 . S
C889 C890 1.434 . S
C890 C881 1.429 . S
C890 N887 1.350 . S
C890 C889 1.434 . S
C891 C892 1.369 . S
C891 C893 1.419 . S
C891 H895 0.930 . S
C892 C891 1.369 . S
C892 C901 1.429 . S
C893 C891 1.419 . S
C893 C894 1.363 . S
C893 H896 0.929 . S
C894 C893 1.363 . S
C894 C900 1.428 . S
H895 C891 0.930 . S
H896 C893 0.929 . S
S897 N898 1.613 . S
S897 N899 1.610 . S
N898 S897 1.613 . S
N898 C901 1.350 . S
N899 S897 1.610 . S
N899 C900 1.351 . S
C900 C894 1.428 . S
C900 N899 1.351 . S
C900 C901 1.434 . S
C901 C892 1.429 . S
C901 N898 1.350 . S
C901 C900 1.434 . S
C902 C903 1.369 . S
C902 C904 1.419 . S
C902 H906 0.930 . S
C903 C902 1.369 . S
C903 C912 1.429 . S
C904 C902 1.419 . S
C904 C905 1.363 . S
C904 H907 0.929 . S
C905 C904 1.363 . S
C905 C911 1.428 . S
H906 C902 0.930 . S
H907 C904 0.929 . S
S908 N909 1.613 . S
S908 N910 1.610 . S
N909 S908 1.613 . S
N909 C912 1.350 . S
N910 S908 1.610 . S
N910 C911 1.351 . S
C911 C905 1.428 . S
C911 N910 1.351 . S
C911 C912 1.434 . S
C912 C903 1.429 . S
C912 N909 1.350 . S
C912 C911 1.434 . S
C913 C914 1.369 . S
C913 C915 1.419 . S
C913 H917 0.930 . S
C914 C913 1.369 . S
C914 C923 1.429 . S
C915 C913 1.419 . S
C915 C916 1.363 . S
C915 H918 0.929 . S
C916 C915 1.363 . S
C916 C922 1.428 . S
H917 C913 0.930 . S
H918 C915 0.929 . S
S919 N920 1.613 . S
S919 N921 1.610 . S
N920 S919 1.613 . S
N920 C923 1.350 . S
N921 S919 1.610 . S
N921 C922 1.351 . S
C922 C916 1.428 . S
C922 N921 1.351 . S
C922 C923 1.434 . S
C923 C914 1.429 . S
C923 N920 1.350 . S
C923 C922 1.434 . S
C924 C925 1.369 . S
C924 C926 1.419 . S
C924 H928 0.930 . S
C925 C924 1.369 . S
C925 C934 1.429 . S
C926 C924 1.419 . S
C926 C927 1.363 . S
C926 H929 0.929 . S
C927 C926 1.363 . S
C927 C933 1.428 . S
H928 C924 0.930 . S
H929 C926 0.929 . S
S930 N931 1.613 . S
S930 N932 1.610 . S
N931 S930 1.613 . S
N931 C934 1.350 . S
N932 S930 1.610 . S
N932 C933 1.351 . S
C933 C927 1.428 . S
C933 N932 1.351 . S
C933 C934 1.434 . S
C934 C925 1.429 . S
C934 N931 1.350 . S
C934 C933 1.434 . S
C935 C936 1.369 . S
C935 C937 1.419 . S
C935 H939 0.930 . S
C936 C935 1.369 . S
C936 C945 1.429 . S
C937 C935 1.419 . S
C937 C938 1.363 . S
C937 H940 0.929 . S
C938 C937 1.363 . S
C938 C944 1.428 . S
H939 C935 0.930 . S
H940 C937 0.929 . S
S941 N942 1.613 . S
S941 N943 1.610 . S
N942 S941 1.613 . S
N942 C945 1.350 . S
N943 S941 1.610 . S
N943 C944 1.351 . S
C944 C938 1.428 . S
C944 N943 1.351 . S
C944 C945 1.434 . S
C945 C936 1.429 . S
C945 N942 1.350 . S
C945 C944 1.434 . S
C946 C947 1.369 . S
C946 C948 1.419 . S
C946 H950 0.930 . S
C947 C946 1.369 . S
C947 C956 1.429 . S
C948 C946 1.419 . S
C948 C949 1.363 . S
C948 H951 0.929 . S
C949 C948 1.363 . S
C949 C955 1.428 . S
H950 C946 0.930 . S
H951 C948 0.929 . S
S952 N953 1.613 . S
S952 N954 1.610 . S
N953 S952 1.613 . S
N953 C956 1.350 . S
N954 S952 1.610 . S
N954 C955 1.351 . S
C955 C949 1.428 . S
C955 N954 1.351 . S
C955 C956 1.434 . S
C956 C947 1.429 . S
C956 N953 1.350 . S
C956 C955 1.434 . S
C957 C958 1.369 . S
C957 C959 1.419 . S
C957 H961 0.930 . S
C958 C957 1.369 . S
C958 C967 1.429 . S
C959 C957 1.419 . S
C959 C960 1.363 . S
C959 H962 0.929 . S
C960 C959 1.363 . S
C960 C966 1.428 . S
H961 C957 0.930 . S
H962 C959 0.929 . S
S963 N964 1.613 . S
S963 N965 1.610 . S
N964 S963 1.613 . S
N964 C967 1.350 . S
N965 S963 1.610 . S
N965 C966 1.351 . S
C966 C960 1.428 . S
C966 N965 1.351 . S
C966 C967 1.434 . S
C967 C958 1.429 . S
C967 N964 1.350 . S
C967 C966 1.434 . S
C968 C969 1.369 . S
C968 C970 1.419 . S
C968 H972 0.930 . S
C969 C968 1.369 . S
C969 C978 1.429 . S
C970 C968 1.419 . S
C970 C971 1.363 . S
C970 H973 0.929 . S
C971 C970 1.363 . S
C971 C977 1.428 . S
H972 C968 0.930 . S
H973 C970 0.929 . S
S974 N975 1.613 . S
S974 N976 1.610 . S
N975 S974 1.613 . S
N975 C978 1.350 . S
N976 S974 1.610 . S
N976 C977 1.351 . S
C977 C971 1.428 . S
C977 N976 1.351 . S
C977 C978 1.434 . S
C978 C969 1.429 . S
C978 N975 1.350 . S
C978 C977 1.434 . S
C979 C980 1.369 . S
C979 C981 1.419 . S
C979 H983 0.930 . S
C980 C979 1.369 . S
C980 C989 1.429 . S
C981 C979 1.419 . S
C981 C982 1.363 . S
C981 H984 0.929 . S
C982 C981 1.363 . S
C982 C988 1.428 . S
H983 C979 0.930 . S
H984 C981 0.929 . S
S985 N986 1.613 . S
S985 N987 1.610 . S
N986 S985 1.613 . S
N986 C989 1.350 . S
N987 S985 1.610 . S
N987 C988 1.351 . S
C988 C982 1.428 . S
C988 N987 1.351 . S
C988 C989 1.434 . S
C989 C980 1.429 . S
C989 N986 1.350 . S
C989 C988 1.434 . S
C990 C991 1.369 . S
C990 C992 1.419 . S
C990 H994 0.930 . S
C991 C990 1.369 . S
C991 C1000 1.429 . S
C992 C990 1.419 . S
C992 C993 1.363 . S
C992 H995 0.929 . S
C993 C992 1.363 . S
C993 C999 1.428 . S
H994 C990 0.930 . S
H995 C992 0.929 . S
S996 N997 1.613 . S
S996 N998 1.610 . S
N997 S996 1.613 . S
N997 C1000 1.350 . S
N998 S996 1.610 . S
N998 C999 1.351 . S
C999 C993 1.428 . S
C999 N998 1.351 . S
C999 C1000 1.434 . S
C1000 C991 1.429 . S
C1000 N997 1.350 . S
C1000 C999 1.434 . S
C1001 C1002 1.369 . S
C1001 C1003 1.419 . S
C1001 H1005 0.930 . S
C1002 C1001 1.369 . S
C1002 C1011 1.429 . S
C1003 C1001 1.419 . S
C1003 C1004 1.363 . S
C1003 H1006 0.929 . S
C1004 C1003 1.363 . S
C1004 C1010 1.428 . S
H1005 C1001 0.930 . S
H1006 C1003 0.929 . S
S1007 N1008 1.613 . S
S1007 N1009 1.610 . S
N1008 S1007 1.613 . S
N1008 C1011 1.350 . S
N1009 S1007 1.610 . S
N1009 C1010 1.351 . S
C1010 C1004 1.428 . S
C1010 N1009 1.351 . S
C1010 C1011 1.434 . S
C1011 C1002 1.429 . S
C1011 N1008 1.350 . S
C1011 C1010 1.434 . S
C1012 C1013 1.369 . S
C1012 C1014 1.419 . S
C1012 H1016 0.930 . S
C1013 C1012 1.369 . S
C1013 C1022 1.429 . S
C1014 C1012 1.419 . S
C1014 C1015 1.363 . S
C1014 H1017 0.929 . S
C1015 C1014 1.363 . S
C1015 C1021 1.428 . S
H1016 C1012 0.930 . S
H1017 C1014 0.929 . S
S1018 N1019 1.613 . S
S1018 N1020 1.610 . S
N1019 S1018 1.613 . S
N1019 C1022 1.350 . S
N1020 S1018 1.610 . S
N1020 C1021 1.351 . S
C1021 C1015 1.428 . S
C1021 N1020 1.351 . S
C1021 C1022 1.434 . S
C1022 C1013 1.429 . S
C1022 N1019 1.350 . S
C1022 C1021 1.434 . S
C1023 C1024 1.369 . S
C1023 C1025 1.419 . S
C1023 H1027 0.930 . S
C1024 C1023 1.369 . S
C1024 C1033 1.429 . S
C1025 C1023 1.419 . S
C1025 C1026 1.363 . S
C1025 H1028 0.929 . S
C1026 C1025 1.363 . S
C1026 C1032 1.428 . S
H1027 C1023 0.930 . S
H1028 C1025 0.929 . S
S1029 N1030 1.613 . S
S1029 N1031 1.610 . S
N1030 S1029 1.613 . S
N1030 C1033 1.350 . S
N1031 S1029 1.610 . S
N1031 C1032 1.351 . S
C1032 C1026 1.428 . S
C1032 N1031 1.351 . S
C1032 C1033 1.434 . S
C1033 C1024 1.429 . S
C1033 N1030 1.350 . S
C1033 C1032 1.434 . S
C509 C331 1.960 . S
C507 C3 1.978 . S
C520 C321 0.991 . S
C518 C49 0.994 . S
C531 C322 1.271 . S
C529 C95 1.274 . S
C540 C146 0.695 . S
C542 C344 0.713 . S
C551 C186 1.146 . S
C553 C347 1.158 . S
C564 C330 1.253 . S
C562 C215 1.263 . S
C573 C249 0.723 . S
C575 C320 0.765 . S
C584 C302 1.967 . S
C586 C338 1.965 . S
C597 C351 3.183 . S
C595 C2 3.341 . S
C606 C43 2.243 . S
C608 C400 2.195 . S
C619 C378 3.249 . S
C617 C102 3.281 . S
C630 C392 1.577 . S
C628 C135 1.638 . S
C639 C175 1.593 . S
C641 C353 1.599 . S
C652 C406 2.212 . S
C650 C222 2.295 . S
C661 C243 2.238 . S
C663 C362 2.256 . S
C672 C306 1.592 . S
C674 C383 1.449 . S
C683 C9 1.017 . S
C685 C409 0.977 . S
C694 C182 1.723 . S
C696 C393 1.682 . S
C707 C352 1.682 1_556 S
C705 C226 1.668 . S
C718 C384 0.935 . S
C716 C242 0.916 . S
C727 C295 2.865 . S
C729 C375 2.794 . S
C738 C106 1.012 . S
C740 C382 0.983 . S
C751 C369 1.668 . S
C749 C142 1.712 . S
C760 C42 0.945 . S
C762 C361 0.945 . S
C771 C283 1.963 . S
C773 C424 1.965 . S
C782 C169 1.141 . S
C784 C414 1.159 . S
C795 C415 1.248 . S
C793 C202 1.265 . S
C806 C437 0.756 . S
C804 C266 0.728 . S
C815 C66 0.989 . S
C817 C440 0.992 . S
C828 C423 1.274 . S
C826 C82 1.277 . S
C837 C129 0.718 . S
C839 C413 0.705 . S
C848 C22 1.975 . S
C850 C431 1.959 . S
C859 C282 2.867 . S
C861 C444 2.797 . S
C872 C493 1.684 . S
C870 C163 1.723 . S
C881 C209 1.672 . S
C883 C471 1.685 . S
C892 C255 0.921 . S
C894 C485 0.933 . S
C905 C446 0.944 . S
C903 C55 0.948 . S
C914 C89 0.999 . S
C916 C499 0.980 . S
C927 C455 1.672 . S
C925 C123 1.714 . S
C938 C476 0.974 . S
C936 C26 1.019 . S
C949 C502 1.446 . S
C947 C289 1.596 . S
C958 C62 2.241 . S
C960 C486 2.197 . S
C969 C83 3.280 . S
C971 C445 3.246 . S
C982 C477 1.580 . S
C980 C122 1.642 . S
C991 C15 3.340 . S
C993 C468 3.181 . S
C1002 C203 2.294 . S
C1004 C475 2.213 . S
C1015 C462 2.256 . S
C1013 C262 2.239 . S
C1026 C454 1.601 . S
C1024 C162 1.596 . S
