# Generated by pormake.
# Topology ocu, (6,8)-cn, num edge types: 1
# Building blocks:
#     Node 0, Type 0, BuildingBlock: UKALOJ_clean_sbu_0, # of connection points: 6
#     Node 1, Type 0, BuildingBlock: UKALOJ_clean_sbu_0, # of connection points: 6
#     Node 2, Type 0, BuildingBlock: UKALOJ_clean_sbu_0, # of connection points: 6
#     Node 3, Type 0, BuildingBlock: UKALOJ_clean_sbu_0, # of connection points: 6
#     Node 4, Type 0, BuildingBlock: UKALOJ_clean_sbu_0, # of connection points: 6
#     Node 5, Type 0, BuildingBlock: UKALOJ_clean_sbu_0, # of connection points: 6
#     Node 6, Type 0, BuildingBlock: UKALOJ_clean_sbu_0, # of connection points: 6
#     Node 7, Type 0, BuildingBlock: UKALOJ_clean_sbu_0, # of connection points: 6
#     Node 8, Type 1, BuildingBlock: LIZSOE_clean_sbu_0, # of connection points: 8
#     Node 9, Type 1, BuildingBlock: LIZSOE_clean_sbu_0, # of connection points: 8
#     Node 10, Type 1, BuildingBlock: LIZSOE_clean_sbu_0, # of connection points: 8
#     Node 11, Type 1, BuildingBlock: LIZSOE_clean_sbu_0, # of connection points: 8
#     Node 12, Type 1, BuildingBlock: LIZSOE_clean_sbu_0, # of connection points: 8
#     Node 13, Type 1, BuildingBlock: LIZSOE_clean_sbu_0, # of connection points: 8
#     Edge 14, Type (0, 1), BuildingBlock: KIFKEQ_clean_linker_1, # of connection points: 2
#     Edge 15, Type (0, 1), BuildingBlock: KIFKEQ_clean_linker_1, # of connection points: 2
#     Edge 16, Type (0, 1), BuildingBlock: KIFKEQ_clean_linker_1, # of connection points: 2
#     Edge 17, Type (0, 1), BuildingBlock: KIFKEQ_clean_linker_1, # of connection points: 2
#     Edge 18, Type (0, 1), BuildingBlock: KIFKEQ_clean_linker_1, # of connection points: 2
#     Edge 19, Type (0, 1), BuildingBlock: KIFKEQ_clean_linker_1, # of connection points: 2
#     Edge 20, Type (0, 1), BuildingBlock: KIFKEQ_clean_linker_1, # of connection points: 2
#     Edge 21, Type (0, 1), BuildingBlock: KIFKEQ_clean_linker_1, # of connection points: 2
#     Edge 22, Type (0, 1), BuildingBlock: KIFKEQ_clean_linker_1, # of connection points: 2
#     Edge 23, Type (0, 1), BuildingBlock: KIFKEQ_clean_linker_1, # of connection points: 2
#     Edge 24, Type (0, 1), BuildingBlock: KIFKEQ_clean_linker_1, # of connection points: 2
#     Edge 25, Type (0, 1), BuildingBlock: KIFKEQ_clean_linker_1, # of connection points: 2
#     Edge 26, Type (0, 1), BuildingBlock: KIFKEQ_clean_linker_1, # of connection points: 2
#     Edge 27, Type (0, 1), BuildingBlock: KIFKEQ_clean_linker_1, # of connection points: 2
#     Edge 28, Type (0, 1), BuildingBlock: KIFKEQ_clean_linker_1, # of connection points: 2
#     Edge 29, Type (0, 1), BuildingBlock: KIFKEQ_clean_linker_1, # of connection points: 2
#     Edge 30, Type (0, 1), BuildingBlock: KIFKEQ_clean_linker_1, # of connection points: 2
#     Edge 31, Type (0, 1), BuildingBlock: KIFKEQ_clean_linker_1, # of connection points: 2
#     Edge 32, Type (0, 1), BuildingBlock: KIFKEQ_clean_linker_1, # of connection points: 2
#     Edge 33, Type (0, 1), BuildingBlock: KIFKEQ_clean_linker_1, # of connection points: 2
#     Edge 34, Type (0, 1), BuildingBlock: KIFKEQ_clean_linker_1, # of connection points: 2
#     Edge 35, Type (0, 1), BuildingBlock: KIFKEQ_clean_linker_1, # of connection points: 2
#     Edge 36, Type (0, 1), BuildingBlock: KIFKEQ_clean_linker_1, # of connection points: 2
#     Edge 37, Type (0, 1), BuildingBlock: KIFKEQ_clean_linker_1, # of connection points: 2
#     Edge 38, Type (0, 1), BuildingBlock: KIFKEQ_clean_linker_1, # of connection points: 2
#     Edge 39, Type (0, 1), BuildingBlock: KIFKEQ_clean_linker_1, # of connection points: 2
#     Edge 40, Type (0, 1), BuildingBlock: KIFKEQ_clean_linker_1, # of connection points: 2
#     Edge 41, Type (0, 1), BuildingBlock: KIFKEQ_clean_linker_1, # of connection points: 2
#     Edge 42, Type (0, 1), BuildingBlock: KIFKEQ_clean_linker_1, # of connection points: 2
#     Edge 43, Type (0, 1), BuildingBlock: KIFKEQ_clean_linker_1, # of connection points: 2
#     Edge 44, Type (0, 1), BuildingBlock: KIFKEQ_clean_linker_1, # of connection points: 2
#     Edge 45, Type (0, 1), BuildingBlock: KIFKEQ_clean_linker_1, # of connection points: 2
#     Edge 46, Type (0, 1), BuildingBlock: KIFKEQ_clean_linker_1, # of connection points: 2
#     Edge 47, Type (0, 1), BuildingBlock: KIFKEQ_clean_linker_1, # of connection points: 2
#     Edge 48, Type (0, 1), BuildingBlock: KIFKEQ_clean_linker_1, # of connection points: 2
#     Edge 49, Type (0, 1), BuildingBlock: KIFKEQ_clean_linker_1, # of connection points: 2
#     Edge 50, Type (0, 1), BuildingBlock: KIFKEQ_clean_linker_1, # of connection points: 2
#     Edge 51, Type (0, 1), BuildingBlock: KIFKEQ_clean_linker_1, # of connection points: 2
#     Edge 52, Type (0, 1), BuildingBlock: KIFKEQ_clean_linker_1, # of connection points: 2
#     Edge 53, Type (0, 1), BuildingBlock: KIFKEQ_clean_linker_1, # of connection points: 2
#     Edge 54, Type (0, 1), BuildingBlock: KIFKEQ_clean_linker_1, # of connection points: 2
#     Edge 55, Type (0, 1), BuildingBlock: KIFKEQ_clean_linker_1, # of connection points: 2
#     Edge 56, Type (0, 1), BuildingBlock: KIFKEQ_clean_linker_1, # of connection points: 2
#     Edge 57, Type (0, 1), BuildingBlock: KIFKEQ_clean_linker_1, # of connection points: 2
#     Edge 58, Type (0, 1), BuildingBlock: KIFKEQ_clean_linker_1, # of connection points: 2
#     Edge 59, Type (0, 1), BuildingBlock: KIFKEQ_clean_linker_1, # of connection points: 2
#     Edge 60, Type (0, 1), BuildingBlock: KIFKEQ_clean_linker_1, # of connection points: 2
#     Edge 61, Type (0, 1), BuildingBlock: KIFKEQ_clean_linker_1, # of connection points: 2
# Relax obj value: 0.229
# Max RMSD: 0.292
# Mean RMSD: 0.206
data_MOF--net-ocu--node1-UKALOJ_clean_sbu_0--node2-LIZSOE_clean_sbu_0--edge1-KIFKEQ_clean_linker_1
_symmetry_space_group_name_H-M    P1
_symmetry_Int_Tables_number       1
_symmetry_cell_setting            triclinic
loop_
_symmetry_equiv_pos_as_xyz
'x, y, z'
_cell_length_a     38.287435
_cell_length_b     38.403521
_cell_length_c     39.737624
_cell_angle_alpha  102.02675
_cell_angle_beta   77.528757
_cell_angle_gamma 96.48444
loop_
_atom_site_label
_atom_site_type_symbol
_atom_site_fract_x
_atom_site_fract_y
_atom_site_fract_z
_atom_type_partial_charge
Zn0 Zn 0.24661 0.2414 0.26308 0.0
O1 O 0.20352 0.26898 0.29898 0.0
C2 C 0.24664 0.29303 0.21875 0.0
Zn3 Zn 0.28574 0.28658 0.2763 0.0
C4 C 0.21095 0.29948 0.31674 0.0
O5 O 0.24346 0.31173 0.31347 0.0
C6 C 0.32192 0.22968 0.22259 0.0
O7 O 0.30166 0.26444 0.31497 0.0
O8 O 0.26159 0.2207 0.30322 0.0
N9 N 0.31747 0.33187 0.28719 0.0
C10 C 0.34187 0.34857 0.26504 0.0
C11 C 0.33102 0.38514 0.3138 0.0
N12 N 0.31093 0.35447 0.31762 0.0
N13 N 0.35081 0.38182 0.2811 0.0
C14 C 0.19357 0.17846 0.27726 0.0
C15 C 0.20881 0.1391 0.23141 0.0
N16 N 0.21513 0.19531 0.25323 0.0
N17 N 0.22421 0.1709 0.22455 0.0
N18 N 0.18987 0.14309 0.26455 0.0
H19 H 0.15979 0.21834 0.30956 0.0
H20 H 0.19519 0.20915 0.32898 0.0
H21 H 0.15586 0.17848 0.32684 0.0
C22 C 0.17519 0.19692 0.31279 0.0
C23 C 0.35618 0.33285 0.22724 0.0
H24 H 0.37505 0.31261 0.22622 0.0
H25 H 0.37105 0.35316 0.21237 0.0
H26 H 0.33426 0.3195 0.21404 0.0
O27 O 0.32808 0.26113 0.23889 0.0
O28 O 0.29021 0.21514 0.2274 0.0
C29 C 0.28627 0.23427 0.31983 0.0
O30 O 0.23245 0.26216 0.22268 0.0
O31 O 0.26936 0.30815 0.23725 0.0
Zn32 Zn 0.79571 0.26955 0.23986 0.0
O33 O 0.76076 0.23214 0.2093 0.0
C34 C 0.75209 0.3297 0.23943 0.0
Zn35 Zn 0.75141 0.27765 0.2855 0.0
C36 C 0.72747 0.22614 0.22176 0.0
O37 O 0.7156 0.24126 0.25345 0.0
C38 C 0.81985 0.32094 0.30349 0.0
O39 O 0.76775 0.23246 0.30159 0.0
O40 O 0.81295 0.22751 0.25705 0.0
N41 N 0.70959 0.28403 0.32695 0.0
C42 C 0.70405 0.27233 0.3574 0.0
C43 C 0.65438 0.2878 0.35215 0.0
N44 N 0.6789 0.29459 0.32411 0.0
N45 N 0.66893 0.27292 0.37348 0.0
C46 C 0.83958 0.26581 0.16509 0.0
C47 C 0.8927 0.26888 0.1739 0.0
N48 N 0.83728 0.26373 0.19884 0.0
N49 N 0.87033 0.26478 0.20413 0.0
N50 N 0.87414 0.26997 0.14892 0.0
H51 H 0.78697 0.27844 0.16176 0.0
H52 H 0.79682 0.23287 0.14594 0.0
H53 H 0.81637 0.26527 0.11966 0.0
C54 C 0.80825 0.26079 0.14704 0.0
C55 C 0.734 0.26365 0.37245 0.0
H56 H 0.73334 0.23444 0.37088 0.0
H57 H 0.73133 0.27752 0.40021 0.0
H58 H 0.76043 0.27296 0.35844 0.0
O59 O 0.78707 0.31376 0.31697 0.0
O60 O 0.83074 0.30725 0.2712 0.0
C61 C 0.79611 0.21752 0.28497 0.0
O62 O 0.77884 0.3125 0.22227 0.0
O63 O 0.73575 0.32183 0.26859 0.0
Zn64 Zn 0.80876 0.79339 0.2457 0.0
O65 O 0.79805 0.81373 0.20427 0.0
C66 C 0.74371 0.82457 0.29313 0.0
Zn67 Zn 0.76262 0.75323 0.24693 0.0
C68 C 0.76981 0.80061 0.19316 0.0
O69 O 0.75141 0.77497 0.20584 0.0
C70 C 0.80167 0.74721 0.30031 0.0
O71 O 0.79514 0.7136 0.21014 0.0
O72 O 0.84015 0.75424 0.21016 0.0
N73 N 0.71696 0.72053 0.24724 0.0
C74 C 0.69916 0.70706 0.22116 0.0
C75 C 0.66379 0.70032 0.26914 0.0
N76 N 0.69507 0.7161 0.27705 0.0
N77 N 0.66567 0.69479 0.23425 0.0
C78 C 0.86533 0.8479 0.2736 0.0
C79 C 0.90904 0.84491 0.22972 0.0
N80 N 0.85382 0.82635 0.24633 0.0
N81 N 0.88088 0.82466 0.21897 0.0
N82 N 0.89956 0.86012 0.26374 0.0
H83 H 0.83391 0.88158 0.31645 0.0
H84 H 0.86213 0.85493 0.32961 0.0
H85 H 0.82188 0.83487 0.31562 0.0
C86 C 0.8445 0.8548 0.31079 0.0
C87 C 0.71481 0.70456 0.1828 0.0
H88 H 0.74446 0.70599 0.17775 0.0
H89 H 0.70631 0.72672 0.17326 0.0
H90 H 0.70471 0.67919 0.16765 0.0
O91 O 0.77414 0.73273 0.2885 0.0
O92 O 0.81972 0.77271 0.28724 0.0
C93 C 0.82824 0.72246 0.19979 0.0
O94 O 0.77655 0.83273 0.28141 0.0
O95 O 0.73094 0.79287 0.2836 0.0
Zn96 Zn 0.29052 0.78115 0.28016 0.0
O97 O 0.26399 0.82236 0.3191 0.0
C98 C 0.22908 0.72673 0.30116 0.0
Zn99 Zn 0.25184 0.77503 0.24586 0.0
C100 C 0.23638 0.83257 0.31194 0.0
O101 O 0.22689 0.81789 0.28326 0.0
C102 C 0.30647 0.7237 0.21447 0.0
O103 O 0.28474 0.81338 0.21567 0.0
O104 O 0.32202 0.82197 0.25162 0.0
N105 N 0.2121 0.77377 0.21973 0.0
C106 C 0.21008 0.76464 0.18565 0.0
C107 C 0.15749 0.77478 0.21479 0.0
N108 N 0.17954 0.78069 0.23776 0.0
N109 N 0.17581 0.76455 0.18177 0.0
C110 C 0.33308 0.7837 0.33915 0.0
C111 C 0.38513 0.77584 0.30749 0.0
N112 N 0.33057 0.78174 0.30554 0.0
N113 N 0.36285 0.77663 0.28597 0.0
N114 N 0.36732 0.77992 0.34111 0.0
H115 H 0.27666 0.77547 0.36094 0.0
H116 H 0.2978 0.81655 0.37922 0.0
H117 H 0.30607 0.77543 0.39081 0.0
C118 C 0.30166 0.78774 0.3693 0.0
C119 C 0.24204 0.75785 0.15633 0.0
H120 H 0.26521 0.77638 0.16218 0.0
H121 H 0.23597 0.76122 0.13116 0.0
H122 H 0.24991 0.73033 0.15356 0.0
O123 O 0.27722 0.73129 0.20834 0.0
O124 O 0.31696 0.74071 0.24182 0.0
C125 C 0.3133 0.82932 0.22473 0.0
O126 O 0.25928 0.74024 0.3081 0.0
O127 O 0.21867 0.73656 0.27636 0.0
Zn128 Zn 0.2999 0.76652 0.73916 0.0
O129 O 0.26478 0.73172 0.70608 0.0
C130 C 0.25759 0.82856 0.73977 0.0
Zn131 Zn 0.25498 0.77513 0.78433 0.0
C132 C 0.23164 0.72519 0.71909 0.0
O133 O 0.22035 0.7389 0.75135 0.0
C134 C 0.32269 0.81725 0.80387 0.0
O135 O 0.2706 0.73169 0.80278 0.0
O136 O 0.31348 0.72145 0.75655 0.0
N137 N 0.21397 0.78294 0.82593 0.0
C138 C 0.1919 0.7589 0.84173 0.0
C139 C 0.18171 0.81017 0.87369 0.0
N140 N 0.20751 0.81487 0.84558 0.0
N141 N 0.17153 0.77526 0.87147 0.0
C142 C 0.35555 0.7749 0.67161 0.0
C143 C 0.40091 0.75582 0.6827 0.0
N144 N 0.34394 0.7595 0.69981 0.0
N145 N 0.37207 0.7466 0.70598 0.0
N146 N 0.39144 0.77415 0.66098 0.0
H147 H 0.30423 0.78334 0.66179 0.0
H148 H 0.34193 0.79084 0.62762 0.0
H149 H 0.33511 0.82295 0.66774 0.0
C150 C 0.33259 0.79406 0.65644 0.0
C151 C 0.19191 0.7191 0.82992 0.0
H152 H 0.20509 0.71129 0.80219 0.0
H153 H 0.16397 0.70693 0.83373 0.0
H154 H 0.20627 0.70811 0.84637 0.0
O155 O 0.28932 0.81157 0.81589 0.0
O156 O 0.33497 0.80184 0.77245 0.0
C157 C 0.2968 0.71371 0.78563 0.0
O158 O 0.28537 0.81263 0.72298 0.0
O159 O 0.23978 0.81816 0.76714 0.0
Zn160 Zn 0.33212 0.31815 0.74656 0.0
O161 O 0.31858 0.33637 0.70469 0.0
C162 C 0.26993 0.35274 0.79475 0.0
Zn163 Zn 0.28512 0.27909 0.75038 0.0
C164 C 0.29068 0.32161 0.69382 0.0
O165 O 0.27282 0.29674 0.70797 0.0
C166 C 0.32536 0.27516 0.80367 0.0
O167 O 0.31497 0.23675 0.71583 0.0
O168 O 0.36066 0.27621 0.71085 0.0
N169 N 0.23861 0.24772 0.75359 0.0
C170 C 0.2256 0.22406 0.72842 0.0
C171 C 0.18324 0.23202 0.77344 0.0
N172 N 0.21234 0.25257 0.78162 0.0
N173 N 0.19118 0.2137 0.74033 0.0
C174 C 0.39908 0.36419 0.76393 0.0
C175 C 0.43306 0.3603 0.71336 0.0
N176 N 0.37901 0.34865 0.74035 0.0
N177 N 0.39998 0.34676 0.70885 0.0
N178 N 0.43301 0.37158 0.74773 0.0
H179 H 0.3572 0.36807 0.8106 0.0
H180 H 0.39853 0.39462 0.81589 0.0
H181 H 0.39658 0.34731 0.81249 0.0
C182 C 0.38679 0.36884 0.80298 0.0
C183 C 0.24548 0.21289 0.69134 0.0
H184 H 0.2586 0.18804 0.68946 0.0
H185 H 0.26632 0.23341 0.68315 0.0
H186 H 0.22688 0.20725 0.67267 0.0
O187 O 0.29691 0.26213 0.79289 0.0
O188 O 0.34517 0.29892 0.78903 0.0
C189 C 0.34769 0.24434 0.70303 0.0
O190 O 0.30295 0.36033 0.78269 0.0
O191 O 0.25651 0.32127 0.78537 0.0
Zn192 Zn 0.79108 0.28196 0.78234 0.0
O193 O 0.76533 0.32525 0.8196 0.0
C194 C 0.7294 0.228 0.80363 0.0
Zn195 Zn 0.7531 0.27531 0.74719 0.0
C196 C 0.73694 0.33395 0.8125 0.0
O197 O 0.72693 0.31751 0.78455 0.0
C198 C 0.80719 0.22309 0.71739 0.0
O199 O 0.78568 0.31467 0.71783 0.0
O200 O 0.82437 0.32078 0.75199 0.0
N201 N 0.71408 0.27308 0.7198 0.0
C202 C 0.71435 0.26579 0.68518 0.0
C203 C 0.66006 0.27128 0.71177 0.0
N204 N 0.68044 0.27707 0.73631 0.0
N205 N 0.68065 0.26411 0.6794 0.0
C206 C 0.83427 0.28712 0.84152 0.0
C207 C 0.8849 0.27354 0.80947 0.0
N208 N 0.83094 0.28224 0.80783 0.0
N209 N 0.86232 0.27353 0.78805 0.0
N210 N 0.86814 0.2817 0.84331 0.0
H211 H 0.77853 0.28106 0.86582 0.0
H212 H 0.80002 0.32426 0.87763 0.0
H213 H 0.80919 0.28748 0.89578 0.0
C214 C 0.80382 0.29525 0.8721 0.0
C215 C 0.74768 0.2612 0.6571 0.0
H216 H 0.76988 0.28014 0.6645 0.0
H217 H 0.74276 0.26547 0.63178 0.0
H218 H 0.75641 0.23388 0.65346 0.0
O219 O 0.77948 0.23232 0.70968 0.0
O220 O 0.81645 0.23924 0.74562 0.0
C221 C 0.81517 0.32919 0.72582 0.0
O222 O 0.7583 0.24341 0.81234 0.0
O223 O 0.7205 0.23581 0.77702 0.0
Zn224 Zn 0.79533 0.78942 0.76437 0.0
O225 O 0.81264 0.76678 0.80181 0.0
C226 C 0.81668 0.72488 0.71216 0.0
Zn227 Zn 0.74879 0.75011 0.76113 0.0
C228 C 0.79512 0.73879 0.81038 0.0
O229 O 0.76679 0.72755 0.79854 0.0
C230 C 0.74919 0.79955 0.71422 0.0
O231 O 0.71419 0.78433 0.80002 0.0
O232 O 0.76065 0.82257 0.80445 0.0
N233 N 0.70952 0.7102 0.75838 0.0
C234 C 0.68629 0.69806 0.78463 0.0
C235 C 0.68315 0.66013 0.73763 0.0
N236 N 0.70744 0.68677 0.7291 0.0
N237 N 0.66952 0.66683 0.77229 0.0
C238 C 0.85073 0.85026 0.74614 0.0
C239 C 0.85981 0.87686 0.79654 0.0
N240 N 0.83413 0.8297 0.76919 0.0
N241 N 0.84011 0.84603 0.8005 0.0
N242 N 0.86658 0.88003 0.76264 0.0
H243 H 0.84436 0.81318 0.69842 0.0
H244 H 0.87758 0.8501 0.69282 0.0
H245 H 0.83101 0.85778 0.7021 0.0
C246 C 0.85088 0.84197 0.70759 0.0
C247 C 0.67934 0.71713 0.82228 0.0
H248 H 0.66295 0.7399 0.82468 0.0
H249 H 0.70464 0.72795 0.83089 0.0
H250 H 0.66424 0.69965 0.84023 0.0
O251 O 0.73158 0.7719 0.7235 0.0
O252 O 0.77716 0.81172 0.72644 0.0
C253 C 0.72729 0.81462 0.81338 0.0
O254 O 0.83006 0.75565 0.72425 0.0
O255 O 0.78346 0.7169 0.72216 0.0
Co256 Co 0.06512 0.9833 0.56427 0.0
N257 N 0.08256 0.97801 0.60367 0.0
C258 C 0.06116 0.96671 0.63171 0.0
N259 N 0.11623 0.96809 0.64039 0.0
C260 C 0.11625 0.9787 0.60987 0.0
C261 C 0.08157 0.96095 0.65418 0.0
Co262 Co 0.97278 0.05589 0.47601 0.0
N263 N 0.95269 0.05657 0.43741 0.0
N264 N 0.92367 0.07353 0.4005 0.0
C265 C 0.93411 0.04028 0.38682 0.0
C266 C 0.95188 0.03003 0.40931 0.0
C267 C 0.93564 0.0829 0.43122 0.0
Co268 Co 1.0205 0.02116 0.51976 0.0
C269 C 0.95443 0.06267 0.52824 0.0
H270 H 0.96352 1.00474 0.40528 0.0
O271 O 0.05238 0.98581 0.52535 0.0
O272 O 0.05389 0.02772 0.47466 0.0
O273 O 0.0472 0.06152 0.54667 0.0
O274 O 0.98624 1.01484 0.56408 0.0
O275 O 1.02125 0.99499 0.59306 0.0
O276 O 1.01669 0.04583 0.44625 0.0
O277 O 0.98811 0.0566 0.51449 0.0
O278 O 0.95947 1.00683 0.47097 0.0
O279 O 0.0798 0.03238 0.57139 0.0
O280 O 0.10527 0.97304 0.53338 0.0
O281 O 0.99514 0.97993 0.49326 0.0
O282 O 0.93307 0.06482 0.50743 0.0
C283 C 0.07097 0.06089 0.56475 0.0
C284 C 0.93309 0.11879 0.45485 0.0
H285 H 0.95474 0.12382 0.47025 0.0
H286 H 0.93492 0.14015 0.43943 0.0
H287 H 0.90698 0.11934 0.47357 0.0
C288 C 0.04688 0.03547 0.44708 0.0
C289 C 0.99202 1.00664 0.59171 0.0
H290 H 0.03247 0.96089 0.63491 0.0
H291 H 0.1581 0.96718 0.56465 0.0
H292 H 0.17177 0.99886 0.6005 0.0
H293 H 0.14456 1.01223 0.57406 0.0
C294 C 0.14962 0.99007 0.58596 0.0
C295 C 0.08576 0.97839 0.51221 0.0
C296 C 0.97022 0.97892 0.47649 0.0
H297 H 0.07185 0.94982 0.67768 0.0
H298 H 0.92903 0.02429 0.36226 0.0
Co299 Co 0.56772 0.97497 0.04184 0.0
N300 N 0.58545 0.95728 0.07459 0.0
C301 C 0.56532 0.93434 0.09377 0.0
N302 N 0.61948 0.9368 0.10471 0.0
C303 C 0.61872 0.95798 0.08161 0.0
C304 C 0.58586 0.92223 0.11252 0.0
Co305 Co 0.47417 0.07592 0.98316 0.0
N306 N 0.46012 0.09399 0.94899 0.0
N307 N 0.43345 0.12445 0.9205 0.0
C308 C 0.4532 0.10038 0.89662 0.0
C309 C 0.46955 0.08178 0.91413 0.0
C310 C 0.43788 0.11993 0.95216 0.0
Co311 Co 0.52167 0.02622 0.01244 0.0
C312 C 0.48777 0.09678 0.03024 0.0
H313 H 0.48701 0.06041 0.90218 0.0
O314 O 0.55459 0.98851 0.0078 0.0
O315 O 0.55821 0.04855 0.97446 0.0
O316 O 0.54664 0.06006 0.04983 0.0
O317 O 0.48553 1.00399 0.05059 0.0
O318 O 0.52159 0.97529 0.071 0.0
O319 O 0.52174 0.07956 0.95786 0.0
O320 O 0.48673 0.06258 0.01753 0.0
O321 O 0.46552 0.02935 0.95873 0.0
O322 O 0.57984 0.02289 0.06364 0.0
O323 O 0.609 0.97538 0.01059 0.0
O324 O 0.4968 0.99216 0.9749 0.0
O325 O 0.48288 0.11816 0.01037 0.0
C326 C 0.57065 0.05435 0.06616 0.0
C327 C 0.41863 0.13922 0.98676 0.0
H328 H 0.43511 0.16381 0.99538 0.0
H329 H 0.39231 0.14699 0.98448 0.0
H330 H 0.41463 0.12221 0.0069 0.0
C331 C 0.55296 0.06998 0.95526 0.0
C332 C 0.49057 0.98489 0.07213 0.0
H333 H 0.53785 0.92499 0.09259 0.0
H334 H 0.66356 0.96205 0.0396 0.0
H335 H 0.67116 0.98525 0.08202 0.0
H336 H 0.6435 1.0033 0.05927 0.0
C337 C 0.65109 0.97853 0.06483 0.0
C338 C 0.58798 0.98427 0.99254 0.0
C339 C 0.47428 0.99792 0.95686 0.0
H340 H 0.57737 0.9022 0.12875 0.0
H341 H 0.45567 0.09665 0.86845 0.0
Co342 Co 0.09146 0.48849 0.03936 0.0
N343 N 0.10896 0.48196 0.07748 0.0
C344 C 0.1008 0.49796 0.11148 0.0
N345 N 0.13585 0.45515 0.10934 0.0
C346 C 0.13019 0.45589 0.07694 0.0
C347 C 0.11754 0.48185 0.13096 0.0
Co348 Co 0.97454 0.5354 0.95893 0.0
N349 N 0.95636 0.54363 0.92132 0.0
N350 N 0.92687 0.5696 0.89072 0.0
C351 C 0.91973 0.534 0.88327 0.0
C352 C 0.93753 0.51827 0.90215 0.0
C353 C 0.94978 0.57478 0.91336 0.0
Co354 Co 0.03414 0.51379 0.99942 0.0
C355 C 0.9746 0.56305 0.00855 0.0
H356 H 0.93458 0.49031 0.90386 0.0
O357 O 0.07957 0.49351 1.00117 0.0
O358 O 0.06197 0.54413 0.96699 0.0
O359 O 0.0393 0.55386 0.03807 0.0
O360 O 1.00591 0.48357 0.03198 0.0
O361 O 0.04659 0.46849 0.05821 0.0
O362 O 1.01962 0.55824 0.94217 0.0
O363 O 0.98805 0.53186 0.99744 0.0
O364 O 0.99005 0.49057 0.93316 0.0
O365 O 0.07907 0.53558 0.06287 0.0
O366 O 0.13286 0.50689 0.01687 0.0
O367 O 0.02864 0.47379 0.96073 0.0
O368 O 0.96088 0.57599 0.98706 0.0
C369 C 0.05884 0.55889 0.06081 0.0
C370 C 0.96595 0.61084 0.92792 0.0
H371 H 0.99277 0.60906 0.93318 0.0
H372 H 0.96838 0.62931 0.90933 0.0
H373 H 0.94858 0.62236 0.95303 0.0
C374 C 0.05177 0.56097 0.94683 0.0
C375 C 1.01472 0.46682 0.05305 0.0
H376 H 0.08259 0.51884 0.12181 0.0
H377 H 0.12651 0.40671 0.04062 0.0
H378 H 0.17173 0.42292 0.04498 0.0
H379 H 0.14747 0.44351 0.02068 0.0
C380 C 0.14512 0.43095 0.04387 0.0
C381 C 0.11386 0.50272 0.99251 0.0
C382 C 1.01053 0.46806 0.93663 0.0
H383 H 0.1152 0.48831 0.15918 0.0
H384 H 0.90082 0.52048 0.8673 0.0
Co385 Co 0.57001 0.49015 0.05443 0.0
N386 N 0.59222 0.49147 0.09213 0.0
C387 C 0.58485 0.51215 0.12433 0.0
N388 N 0.62334 0.47455 0.12747 0.0
C389 C 0.61574 0.4688 0.09474 0.0
C390 C 0.60398 0.50204 0.14583 0.0
Co391 Co 0.44268 0.52405 0.97813 0.0
N392 N 0.42146 0.52807 0.94067 0.0
N393 N 0.39514 0.54658 0.90237 0.0
C394 C 0.38458 0.51203 0.90284 0.0
C395 C 0.40074 0.50082 0.92608 0.0
C396 C 0.41756 0.55582 0.92556 0.0
Co397 Co 0.50651 0.50749 0.01647 0.0
C398 C 0.44399 0.55392 0.02647 0.0
H399 H 0.39643 0.47469 0.93308 0.0
O400 O 0.55307 0.48839 0.01727 0.0
O401 O 0.53144 0.53117 0.97671 0.0
O402 O 0.51496 0.55241 0.05012 0.0
O403 O 0.48133 0.48446 0.05679 0.0
O404 O 0.52669 0.47602 0.08111 0.0
O405 O 0.48573 0.54793 0.95803 0.0
O406 O 0.4593 0.52377 0.01537 0.0
O407 O 0.46129 0.48061 0.9529 0.0
O408 O 0.5599 0.53821 0.07114 0.0
O409 O 0.6093 0.50347 0.02525 0.0
O410 O 0.49842 0.46325 0.98202 0.0
O411 O 0.42715 0.56452 1.00572 0.0
C412 C 0.53832 0.56019 0.06935 0.0
C413 C 0.43362 0.59314 0.93527 0.0
H414 H 0.44578 0.59698 0.95866 0.0
H415 H 0.45485 0.59922 0.91305 0.0
H416 H 0.41284 0.61249 0.93994 0.0
C417 C 0.51911 0.54756 0.95741 0.0
C418 C 0.49347 0.47451 0.08059 0.0
H419 H 0.56566 0.53239 0.13225 0.0
H420 H 0.61411 0.41568 0.06489 0.0
H421 H 0.65886 0.43622 0.06575 0.0
H422 H 0.63147 0.44904 0.0391 0.0
C423 C 0.6312 0.44096 0.06435 0.0
C424 C 0.58681 0.49578 1.0039 0.0
C425 C 0.48182 0.45835 0.95664 0.0
H426 H 0.60256 0.51317 0.17343 0.0
H427 H 0.3656 0.49626 0.88814 0.0
Co428 Co 0.07455 0.47978 0.54469 0.0
N429 N 0.09051 0.46547 0.57947 0.0
C430 C 0.07875 0.47283 0.61453 0.0
N431 N 0.12724 0.44323 0.60511 0.0
C432 C 0.12019 0.44778 0.57447 0.0
C433 C 0.1013 0.45909 0.63036 0.0
Co434 Co 0.97914 0.56964 0.47506 0.0
N435 N 0.9629 0.58207 0.43909 0.0
N436 N 0.93561 0.61015 0.40903 0.0
C437 C 0.95644 0.58634 0.38596 0.0
C438 C 0.97312 0.56912 0.40447 0.0
C439 C 0.94022 0.60725 0.44112 0.0
Co440 Co 0.02509 0.52362 0.5108 0.0
C441 C 0.95592 0.55988 0.52365 0.0
H442 H 0.99217 0.54903 0.39336 0.0
O443 O 0.06097 0.48921 0.5086 0.0
O444 O 0.06109 0.54527 0.47197 0.0
O445 O 0.0486 0.56089 0.54741 0.0
O446 O 0.98924 0.50202 0.54988 0.0
O447 O 0.02658 0.47457 0.56972 0.0
O448 O 0.02647 0.57448 0.45006 0.0
O449 O 0.99053 0.55925 0.51215 0.0
O450 O 0.97345 0.52114 0.45276 0.0
O451 O 0.08012 0.52721 0.5678 0.0
O452 O 0.06854 0.43613 0.51988 0.0
O453 O 1.0018 0.48632 0.47456 0.0
O454 O 0.93615 0.56455 0.50226 0.0
C455 C 0.07017 0.55753 0.56749 0.0
C456 C 0.92481 0.63095 0.47486 0.0
H457 H 0.94219 0.63305 0.49433 0.0
H458 H 0.92178 0.65795 0.47044 0.0
H459 H 0.89794 0.61925 0.48568 0.0
C460 C 0.05714 0.56522 0.45064 0.0
C461 C 0.99493 0.48233 0.57064 0.0
H462 H 0.05601 0.48816 0.62773 0.0
H463 H 0.1367 0.41017 0.52729 0.0
H464 H 0.1726 0.44024 0.54153 0.0
H465 H 0.14042 0.45572 0.52147 0.0
C466 C 0.14405 0.4381 0.53916 0.0
C467 C 0.06078 0.45449 0.49874 0.0
C468 C 0.98165 0.49033 0.45364 0.0
H469 H 0.09905 0.46089 0.65829 0.0
H470 H 0.95953 0.58195 0.3577 0.0
Co471 Co 0.59284 0.99368 0.5393 0.0
N472 N 0.61806 0.99409 0.57389 0.0
C473 C 0.62747 1.01973 0.59978 0.0
N474 N 0.64614 0.96931 0.6062 0.0
C475 C 0.62981 0.96387 0.5783 0.0
C476 C 0.64493 1.00457 0.61955 0.0
Co477 Co 0.46794 0.0348 0.46629 0.0
N478 N 0.44869 0.03976 0.42845 0.0
N479 N 0.41782 0.06379 0.39782 0.0
C480 C 0.4462 0.04862 0.37556 0.0
C481 C 0.4648 0.03354 0.39427 0.0
C482 C 0.41961 0.05746 0.42969 0.0
Co483 Co 0.52933 1.01412 0.50485 0.0
C484 C 0.4746 0.06784 0.51233 0.0
H485 H 0.49003 0.02134 0.38406 0.0
O486 O 0.57321 0.99105 0.50444 0.0
O487 O 0.55626 0.03507 0.46463 0.0
O488 O 0.54289 0.05869 0.53577 0.0
O489 O 0.50391 0.99317 0.54586 0.0
O490 O 0.54942 0.98737 0.57114 0.0
O491 O 0.51319 0.05208 0.44339 0.0
O492 O 0.48397 0.03492 0.50466 0.0
O493 O 0.47751 0.98651 0.44538 0.0
O494 O 0.59165 0.04408 0.55043 0.0
O495 O 0.63169 0.9981 0.50517 0.0
O496 O 0.51572 0.97015 0.47391 0.0
O497 O 0.46102 0.07928 0.48971 0.0
C498 C 0.5706 0.0669 0.54915 0.0
C499 C 0.39463 0.07146 0.46327 0.0
H500 H 0.40088 0.1006 0.47101 0.0
H501 H 0.36644 0.06723 0.45981 0.0
H502 H 0.39727 0.05782 0.48452 0.0
C503 C 0.54602 0.05124 0.4441 0.0
C504 C 0.51603 0.98486 0.5705 0.0
H505 H 0.62164 0.04743 0.60438 0.0
H506 H 0.60082 0.91397 0.56393 0.0
H507 H 0.64895 0.91279 0.55072 0.0
H508 H 0.62384 0.93372 0.52747 0.0
C509 C 0.62592 0.92904 0.55358 0.0
C510 C 0.60625 0.99284 0.48714 0.0
C511 C 0.49573 0.9633 0.45132 0.0
H512 H 0.65523 1.01828 0.64249 0.0
H513 H 0.45421 0.05035 0.34807 0.0
H514 H 0.1505 0.08178 0.24618 0.0
H515 H 0.20605 0.13992 0.32626 0.0
H516 H 0.12505 0.03828 0.28369 0.0
H517 H 0.17897 0.09932 0.36481 0.0
H518 H 0.12018 0.0396 0.43977 0.0
H519 H 0.1643 0.04887 0.38755 0.0
H520 H 0.07843 0.0413 0.33048 0.0
H521 H 0.03568 0.02842 0.38103 0.0
C522 C 0.15724 0.08508 0.27181 0.0
C523 C 0.17847 0.11509 0.28429 0.0
C524 C 0.14265 0.0604 0.29343 0.0
C525 C 0.14873 0.06578 0.32802 0.0
C526 C 0.17326 0.09389 0.33864 0.0
C527 C 0.18829 0.11787 0.31681 0.0
C528 C 0.11116 0.03824 0.41552 0.0
C529 C 0.07451 0.03412 0.41471 0.0
C530 C 0.13632 0.04417 0.38565 0.0
C531 C 0.12502 0.0473 0.35492 0.0
C532 C 0.0886 0.03928 0.35332 0.0
C533 C 0.06376 0.03249 0.38275 0.0
H534 H 0.86402 0.19607 0.26506 0.0
H535 H 0.7653 0.18266 0.33937 0.0
H536 H 0.89372 0.16135 0.29333 0.0
H537 H 0.79483 0.14638 0.36721 0.0
H538 H 0.86914 0.11662 0.43194 0.0
H539 H 0.83722 0.14983 0.40345 0.0
H540 H 0.89983 0.1049 0.30257 0.0
H541 H 0.93339 0.07424 0.33148 0.0
C542 C 0.84836 0.18506 0.28707 0.0
C543 C 0.81222 0.19231 0.29998 0.0
C544 C 0.86547 0.16492 0.30333 0.0
C545 C 0.84686 0.15089 0.33274 0.0
C546 C 0.81031 0.15725 0.34507 0.0
C547 C 0.79324 0.17784 0.32895 0.0
C548 C 0.87676 0.11473 0.40383 0.0
C549 C 0.90459 0.0936 0.38412 0.0
C550 C 0.85787 0.13313 0.3873 0.0
C551 C 0.86594 0.13039 0.35056 0.0
C552 C 0.89325 0.10849 0.33091 0.0
C553 C 0.91235 0.09055 0.34746 0.0
H554 H 0.89996 0.9275 0.29788 0.0
H555 H 0.94723 0.82779 0.28458 0.0
H556 H 0.91919 0.94786 0.35399 0.0
H557 H 0.96647 0.84779 0.34109 0.0
H558 H 0.90389 0.95358 0.46609 0.0
H559 H 0.89254 0.9201 0.40975 0.0
H560 H 1.00456 0.89979 0.3764 0.0
H561 H 1.01579 0.93336 0.43262 0.0
C562 C 0.91603 0.91079 0.30637 0.0
C563 C 0.92252 0.87644 0.28727 0.0
C564 C 0.92626 0.92192 0.33863 0.0
C565 C 0.94306 0.8987 0.35212 0.0
C566 C 0.95311 0.86583 0.33125 0.0
C567 C 0.94276 0.8547 0.29885 0.0
C568 C 0.92558 0.94012 0.44752 0.0
C569 C 0.96066 0.94583 0.45362 0.0
C570 C 0.91928 0.92157 0.41514 0.0
C571 C 0.94801 0.90859 0.38865 0.0
C572 C 0.98212 0.90982 0.39648 0.0
C573 C 0.98841 0.92842 0.42897 0.0
H574 H 0.17263 0.85445 0.30628 0.0
H575 H 0.24943 0.87252 0.37446 0.0
H576 H 0.1342 0.89669 0.34857 0.0
H577 H 0.21087 0.91465 0.41678 0.0
H578 H 0.14968 1.00409 0.47983 0.0
H579 H 0.18661 0.97327 0.42633 0.0
H580 H 0.09652 0.89844 0.40822 0.0
H581 H 0.0599 0.9295 0.46212 0.0
C582 C 0.18152 0.86764 0.33016 0.0
C583 C 0.21421 0.85998 0.33696 0.0
C584 C 0.15934 0.8918 0.35444 0.0
C585 C 0.16941 0.90924 0.38603 0.0
C586 C 0.20249 0.90218 0.39246 0.0
C587 C 0.22455 0.8778 0.3683 0.0
C588 C 0.13732 0.98213 0.4634 0.0
C589 C 0.10152 0.96986 0.47445 0.0
C590 C 0.15864 0.96408 0.43308 0.0
C591 C 0.14479 0.93293 0.41332 0.0
C592 C 0.10802 0.92251 0.42263 0.0
C593 C 0.08666 0.94072 0.4531 0.0
H594 H 0.28479 0.85515 0.67916 0.0
H595 H 0.19845 0.86548 0.76992 0.0
H596 H 0.25751 0.89625 0.65491 0.0
H597 H 0.17066 0.90526 0.74538 0.0
H598 H 0.13016 0.98801 0.70532 0.0
H599 H 0.17135 0.96125 0.73016 0.0
H600 H 0.20693 0.8953 0.6286 0.0
H601 H 0.16662 0.92331 0.60398 0.0
C602 C 0.26027 0.86639 0.69414 0.0
C603 C 0.24384 0.85672 0.72644 0.0
C604 C 0.24441 0.88983 0.6801 0.0
C605 C 0.21169 0.90412 0.69801 0.0
C606 C 0.19611 0.89543 0.73095 0.0
C607 C 0.21199 0.87223 0.74498 0.0
C608 C 0.14771 0.96858 0.68827 0.0
C609 C 0.14557 0.95794 0.65277 0.0
C610 C 0.17101 0.9529 0.70246 0.0
C611 C 0.19217 0.92557 0.68159 0.0
C612 C 0.19146 0.91647 0.64549 0.0
C613 C 0.16843 0.93255 0.63125 0.0
H614 H 0.13578 0.23762 0.72255 0.0
H615 H 0.19403 0.14486 0.71072 0.0
H616 H 0.1043 0.20667 0.67572 0.0
H617 H 0.16246 0.11345 0.66468 0.0
H618 H 0.0356 0.11276 0.61258 0.0
H619 H 0.06179 0.15371 0.65825 0.0
H620 H 0.1674 0.12249 0.60408 0.0
H621 H 0.14105 0.08103 0.55942 0.0
C622 C 0.14077 0.21014 0.71061 0.0
C623 C 0.16694 0.19324 0.71987 0.0
C624 C 0.12314 0.19263 0.68376 0.0
C625 C 0.13173 0.1581 0.66599 0.0
C626 C 0.15613 0.14048 0.67723 0.0
C627 C 0.17371 0.15801 0.70384 0.0
C628 C 0.06451 0.11606 0.60977 0.0
C629 C 0.08653 0.09409 0.58274 0.0
C630 C 0.07945 0.13914 0.636 0.0
C631 C 0.11644 0.14033 0.63515 0.0
C632 C 0.13866 0.12125 0.60584 0.0
C633 C 0.12376 0.09804 0.58 0.0
H634 H 0.79398 0.17798 0.65711 0.0
H635 H 0.87148 0.20417 0.72466 0.0
H636 H 0.83229 0.13309 0.6184 0.0
H637 H 0.90957 0.15934 0.68608 0.0
H638 H 0.89182 0.03914 0.56514 0.0
H639 H 0.85584 0.07503 0.61599 0.0
H640 H 0.94715 0.15067 0.62602 0.0
H641 H 0.98318 0.11429 0.57511 0.0
C642 C 0.819 0.17403 0.66385 0.0
C643 C 0.82953 0.19478 0.69401 0.0
C644 C 0.8409 0.14808 0.64182 0.0
C645 C 0.87401 0.1424 0.64923 0.0
C646 C 0.8844 0.16305 0.67949 0.0
C647 C 0.86239 0.18872 0.70165 0.0
C648 C 0.90466 0.06254 0.5793 0.0
C649 C 0.94025 0.07397 0.56616 0.0
C650 C 0.88386 0.08348 0.60802 0.0
C651 C 0.8982 0.11637 0.62435 0.0
C652 C 0.93513 0.1256 0.61391 0.0
C653 C 0.95602 0.10452 0.58501 0.0
H654 H 0.82697 0.92047 0.74053 0.0
H655 H 0.93361 0.91021 0.75409 0.0
H656 H 0.84969 0.96774 0.70678 0.0
H657 H 0.95697 0.95676 0.71994 0.0
H658 H 0.99888 0.03435 0.65816 0.0
H659 H 0.96072 1.01717 0.7105 0.0
H660 H 0.88484 0.96192 0.64768 0.0
H661 H 0.92253 0.9805 0.59575 0.0
C662 C 0.85524 0.9291 0.73674 0.0
C663 C 0.87891 0.91182 0.74911 0.0
C664 C 0.86821 0.95598 0.71754 0.0
C665 C 0.90512 0.96581 0.7104 0.0
C666 C 0.92829 0.95025 0.72534 0.0
C667 C 0.91518 0.92347 0.74465 0.0
C668 C 0.97318 1.01993 0.65604 0.0
C669 C 0.96374 1.00794 0.62313 0.0
C670 C 0.9515 1.0099 0.68587 0.0
C671 C 0.92047 0.98718 0.68299 0.0
C672 C 0.90868 0.97935 0.65081 0.0
C673 C 0.93021 0.9899 0.62098 0.0
H674 H 0.3334 0.16053 0.21937 0.0
H675 H 0.37779 0.25343 0.17575 0.0
H676 H 0.38255 0.12672 0.18294 0.0
H677 H 0.42517 0.21923 0.13664 0.0
H678 H 0.51085 0.15955 0.06809 0.0
H679 H 0.47622 0.19126 0.12238 0.0
H680 H 0.40321 0.09708 0.12916 0.0
H681 H 0.43987 0.06515 0.07729 0.0
C682 C 0.35357 0.17349 0.20145 0.0
C683 C 0.35166 0.20938 0.19996 0.0
C684 C 0.38182 0.15408 0.18032 0.0
C685 C 0.40824 0.16968 0.1561 0.0
C686 C 0.40626 0.20601 0.15521 0.0
C687 C 0.37869 0.22572 0.1773 0.0
C688 C 0.48847 0.14526 0.08246 0.0
C689 C 0.47795 0.11 0.0684 0.0
C690 C 0.46788 0.16369 0.11316 0.0
C691 C 0.43551 0.14764 0.12971 0.0
C692 C 0.42759 0.11093 0.11765 0.0
C693 C 0.44892 0.09223 0.08769 0.0
H694 H 0.84392 0.32515 0.13656 0.0
H695 H 0.93678 0.26304 0.103 0.0
H696 H 0.8758 0.37152 0.10671 0.0
H697 H 0.96935 0.31043 0.07338 0.0
H698 H 0.94777 0.44605 0.03892 0.0
H699 H 0.911 0.39236 0.05161 0.0
H700 H 0.98724 0.37068 0.10908 0.0
H701 H 1.02403 0.42397 0.09661 0.0
C702 C 0.87044 0.32034 0.12103 0.0
C703 C 0.88786 0.29021 0.12182 0.0
C704 C 0.88886 0.34725 0.10422 0.0
C705 C 0.9251 0.34471 0.08846 0.0
C706 C 0.94143 0.31304 0.08592 0.0
C707 C 0.92285 0.28589 0.10249 0.0
C708 C 0.95642 0.43016 0.05475 0.0
C709 C 0.98894 0.43918 0.06663 0.0
C710 C 0.93557 0.39927 0.0616 0.0
C711 C 0.94702 0.37697 0.08026 0.0
C712 C 0.97855 0.38686 0.09354 0.0
C713 C 0.99924 0.41773 0.08692 0.0
H714 H 0.80136 0.85598 0.16054 0.0
H715 H 0.70361 0.78785 0.17678 0.0
H716 H 0.77083 0.89413 0.1352 0.0
H717 H 0.67384 0.8257 0.15163 0.0
H718 H 0.625 0.93364 0.16981 0.0
H719 H 0.66842 0.90114 0.18591 0.0
H720 H 0.72431 0.88013 0.078 0.0
H721 H 0.68024 0.91206 0.06176 0.0
C722 C 0.77383 0.84855 0.15782 0.0
C723 C 0.7549 0.81887 0.17075 0.0
C724 C 0.75649 0.87037 0.1434 0.0
C725 C 0.7201 0.86279 0.14202 0.0
C726 C 0.70196 0.83197 0.15269 0.0
C727 C 0.71919 0.81014 0.1668 0.0
C728 C 0.64724 0.92303 0.14983 0.0
C729 C 0.64961 0.9256 0.11475 0.0
C730 C 0.67191 0.90449 0.15894 0.0
C731 C 0.69941 0.88831 0.13306 0.0
C732 C 0.70344 0.89285 0.09831 0.0
C733 C 0.67849 0.9113 0.08913 0.0
H734 H 0.19819 0.7051 0.1349 0.0
H735 H 0.11292 0.77711 0.16799 0.0
H736 H 0.16076 0.66211 0.10326 0.0
H737 H 0.074 0.73174 0.13749 0.0
H738 H 0.05447 0.62078 0.03976 0.0
H739 H 0.07865 0.67985 0.06486 0.0
H740 H 0.09779 0.63769 0.15124 0.0
H741 H 0.07406 0.57868 0.12619 0.0
C742 C 0.17234 0.71295 0.13395 0.0
C743 C 0.15881 0.74498 0.15397 0.0
C744 C 0.15053 0.68774 0.11624 0.0
C745 C 0.11459 0.69364 0.11887 0.0
C746 C 0.10178 0.72687 0.13545 0.0
C747 C 0.124 0.75263 0.15274 0.0
C748 C 0.06244 0.62448 0.06488 0.0
C749 C 0.06312 0.59514 0.08086 0.0
C750 C 0.0762 0.65822 0.07909 0.0
C751 C 0.09026 0.6627 0.10949 0.0
C752 C 0.08715 0.63438 0.12752 0.0
C753 C 0.07382 0.60069 0.11317 0.0
H754 H 0.39734 0.82812 0.79192 0.0
H755 H 0.30278 0.86184 0.86771 0.0
H756 H 0.43509 0.86805 0.8288 0.0
H757 H 0.34018 0.90166 0.90408 0.0
H758 H 0.41123 1.00148 0.93698 0.0
H759 H 0.3775 0.95749 0.90128 0.0
H760 H 0.45652 0.88182 0.88862 0.0
H761 H 0.49103 0.92673 0.92552 0.0
C762 C 0.38446 0.84394 0.8164 0.0
C763 C 0.34661 0.84153 0.82639 0.0
C764 C 0.40628 0.86678 0.8378 0.0
C765 C 0.39108 0.88859 0.86973 0.0
C766 C 0.35327 0.88584 0.8797 0.0
C767 C 0.3316 0.86273 0.85868 0.0
C768 C 0.42188 0.97556 0.92687 0.0
C769 C 0.45439 0.96826 0.93467 0.0
C770 C 0.40205 0.94995 0.90628 0.0
C771 C 0.41369 0.91556 0.89181 0.0
C772 C 0.44645 0.90794 0.89907 0.0
C773 C 0.46627 0.93371 0.9205 0.0
H774 H 0.28502 0.42534 0.81479 0.0
H775 H 0.20208 0.34112 0.83117 0.0
H776 H 0.2461 0.46848 0.85568 0.0
H777 H 0.1641 0.38332 0.87269 0.0
H778 H 0.09046 0.46064 0.93528 0.0
H779 H 0.12756 0.4299 0.88265 0.0
H780 H 0.22189 0.48786 0.91517 0.0
H781 H 0.18417 0.5206 0.96652 0.0
C782 C 0.25856 0.41599 0.82715 0.0
C783 C 0.24681 0.37966 0.81959 0.0
C784 C 0.23617 0.44074 0.85074 0.0
C785 C 0.20151 0.42978 0.86761 0.0
C786 C 0.18999 0.39337 0.85978 0.0
C787 C 0.21212 0.36885 0.83608 0.0
C788 C 0.11874 0.46839 0.93046 0.0
C789 C 0.13396 0.49329 0.95553 0.0
C790 C 0.14043 0.44988 0.90048 0.0
C791 C 0.17814 0.45517 0.89496 0.0
C792 C 0.19311 0.48264 0.91824 0.0
C793 C 0.17131 0.50158 0.94791 0.0
H794 H 0.67067 0.18389 0.78771 0.0
H795 H 0.73517 0.21164 0.86711 0.0
H796 H 0.63272 0.14248 0.82101 0.0
H797 H 0.69619 0.17106 0.90153 0.0
H798 H 0.62828 0.0784 0.9506 0.0
H799 H 0.67244 0.11364 0.91353 0.0
H800 H 0.58769 0.13824 0.86801 0.0
H801 H 0.54512 0.10289 0.90314 0.0
C802 C 0.67675 0.18141 0.81245 0.0
C803 C 0.70622 0.20171 0.82443 0.0
C804 C 0.65458 0.15756 0.83201 0.0
C805 C 0.66041 0.15311 0.86486 0.0
C806 C 0.69042 0.17299 0.87652 0.0
C807 C 0.71285 0.1967 0.85671 0.0
C808 C 0.6193 0.09073 0.93211 0.0
C809 C 0.5826 0.08717 0.93024 0.0
C810 C 0.64467 0.11151 0.91097 0.0
C811 C 0.63432 0.12933 0.88706 0.0
C812 C 0.59775 0.12486 0.885 0.0
C813 C 0.5728 0.10437 0.90579 0.0
H814 H 0.84944 0.75704 0.84741 0.0
H815 H 0.77706 0.66853 0.81296 0.0
H816 H 0.88112 0.71653 0.86863 0.0
H817 H 0.80931 0.62825 0.83333 0.0
H818 H 0.91129 0.56737 0.82722 0.0
H819 H 0.8769 0.60926 0.81094 0.0
H820 H 0.86575 0.67223 0.91559 0.0
H821 H 0.898 0.62936 0.93241 0.0
C822 C 0.83995 0.72913 0.84487 0.0
C823 C 0.81068 0.71607 0.82855 0.0
C824 C 0.85814 0.70598 0.85691 0.0
C825 C 0.8479 0.66924 0.85216 0.0
C826 C 0.81797 0.65639 0.83693 0.0
C827 C 0.79933 0.67959 0.82559 0.0
C828 C 0.90157 0.59022 0.84666 0.0
C829 C 0.90855 0.59564 0.88073 0.0
C830 C 0.88187 0.6141 0.83741 0.0
C831 C 0.86898 0.64412 0.86198 0.0
C832 C 0.87594 0.64965 0.896 0.0
C833 C 0.89496 0.62536 0.90545 0.0
H834 H 0.27872 0.35363 0.19639 0.0
H835 H 0.18635 0.27861 0.19012 0.0
H836 H 0.25488 0.39118 0.1656 0.0
H837 H 0.16172 0.31682 0.16049 0.0
H838 H 0.17982 0.47168 0.15562 0.0
H839 H 0.20886 0.43063 0.17819 0.0
H840 H 0.16452 0.3416 0.11019 0.0
H841 H 0.13379 0.3828 0.08947 0.0
C842 C 0.25341 0.34499 0.18818 0.0
C843 C 0.23438 0.31314 0.19585 0.0
C844 C 0.23954 0.36673 0.17078 0.0
C845 C 0.20603 0.35746 0.16091 0.0
C846 C 0.18773 0.3248 0.1673 0.0
C847 C 0.20182 0.30284 0.18442 0.0
C848 C 0.17652 0.44333 0.14543 0.0
C849 C 0.15514 0.43059 0.12024 0.0
C850 C 0.19344 0.41972 0.15807 0.0
C851 C 0.18942 0.38261 0.14586 0.0
C852 C 0.16818 0.36991 0.12039 0.0
C853 C 0.15106 0.39359 0.10793 0.0
H854 H 0.19588 0.74738 0.91701 0.0
H855 H 0.10054 0.76108 0.88192 0.0
H856 H 0.16716 0.69456 0.93902 0.0
H857 H 0.07027 0.70937 0.90579 0.0
H858 H 0.05353 0.58969 0.88943 0.0
H859 H 0.07962 0.64868 0.88057 0.0
H860 H 0.12434 0.66166 0.97396 0.0
H861 H 0.10004 0.60194 0.98145 0.0
C862 C 0.16783 0.74023 0.91627 0.0
C863 C 0.15021 0.75769 0.89785 0.0
C864 C 0.15142 0.7098 0.92848 0.0
C865 C 0.11687 0.69702 0.92293 0.0
C866 C 0.09744 0.71784 0.9092 0.0
C867 C 0.11424 0.7479 0.89638 0.0
C868 C 0.06984 0.60485 0.90738 0.0
C869 C 0.07489 0.59135 0.93597 0.0
C870 C 0.08406 0.63894 0.90289 0.0
C871 C 0.10303 0.66036 0.92729 0.0
C872 C 0.10977 0.64595 0.95477 0.0
C873 C 0.09615 0.61156 0.95884 0.0
H874 H 0.28677 0.22831 0.8429 0.0
H875 H 0.39001 0.28721 0.82477 0.0
H876 H 0.30874 0.19539 0.87934 0.0
H877 H 0.41189 0.25415 0.86129 0.0
H878 H 0.43605 0.19601 0.94201 0.0
H879 H 0.40548 0.23823 0.92153 0.0
H880 H 0.35413 0.14961 0.85913 0.0
H881 H 0.38462 0.10798 0.87968 0.0
C882 C 0.31395 0.23472 0.84719 0.0
C883 C 0.3368 0.26007 0.83055 0.0
C884 C 0.32649 0.21583 0.86804 0.0
C885 C 0.3621 0.22193 0.87279 0.0
C886 C 0.38422 0.24906 0.85827 0.0
C887 C 0.3717 0.26794 0.83726 0.0
C888 C 0.41749 0.18583 0.92461 0.0
C889 C 0.41229 0.14898 0.91247 0.0
C890 C 0.4003 0.20984 0.91271 0.0
C891 C 0.37735 0.19717 0.88887 0.0
C892 C 0.37121 0.16016 0.87791 0.0
C893 C 0.38872 0.13635 0.88942 0.0
H894 H 0.928 0.25514 0.84961 0.0
H895 H 0.85447 0.33705 0.8986 0.0
H896 H 0.97598 0.29329 0.87343 0.0
H897 H 0.90111 0.37298 0.92421 0.0
H898 H 1.02164 0.40813 0.95815 0.0
H899 H 0.98994 0.3501 0.94311 0.0
H900 H 0.95739 0.38575 0.85929 0.0
H901 H 0.98782 0.44433 0.87488 0.0
C902 C 0.92141 0.28006 0.86735 0.0
C903 C 0.88768 0.29349 0.87113 0.0
C904 C 0.94886 0.30172 0.88088 0.0
C905 C 0.94198 0.3361 0.89952 0.0
C906 C 0.90672 0.34646 0.90935 0.0
C907 C 0.87969 0.32543 0.89494 0.0
C908 C 1.00913 0.40315 0.93545 0.0
C909 C 1.00607 0.43103 0.91827 0.0
C910 C 0.99104 0.36992 0.92703 0.0
C911 C 0.97087 0.36431 0.9008 0.0
C912 C 0.97266 0.39012 0.88 0.0
C913 C 0.99006 0.4235 0.88881 0.0
H914 H 0.65638 0.82042 0.81503 0.0
H915 H 0.74543 0.87154 0.86161 0.0
H916 H 0.61937 0.86878 0.84786 0.0
H917 H 0.7082 0.91855 0.89623 0.0
H918 H 0.64777 1.00773 0.95025 0.0
H919 H 0.68028 0.96896 0.89938 0.0
H920 H 0.58755 0.89315 0.90151 0.0
H921 H 0.55468 0.93348 0.95021 0.0
C922 C 0.66782 0.84171 0.83286 0.0
C923 C 0.70373 0.84201 0.83599 0.0
C924 C 0.6466 0.86961 0.8517 0.0
C925 C 0.66054 0.89821 0.87474 0.0
C926 C 0.69647 0.89794 0.87807 0.0
C927 C 0.71783 0.87052 0.85866 0.0
C928 C 0.63375 0.98383 0.93827 0.0
C929 C 0.59883 0.97351 0.95424 0.0
C930 C 0.65269 0.96093 0.90973 0.0
C931 C 0.63742 0.92675 0.89729 0.0
C932 C 0.6007 0.91887 0.91026 0.0
C933 C 0.58147 0.94233 0.93813 0.0
H934 H 0.90116 0.73166 0.18281 0.0
H935 H 0.81304 0.65384 0.16558 0.0
H936 H 0.94324 0.69052 0.14487 0.0
H937 H 0.85537 0.61274 0.12649 0.0
H938 H 0.93813 0.53751 0.0665 0.0
H939 H 0.90462 0.57458 0.11886 0.0
H940 H 0.959 0.66924 0.08354 0.0
H941 H 0.99189 0.6323 0.03193 0.0
C942 C 0.89066 0.70574 0.17084 0.0
C943 C 0.85351 0.69634 0.17695 0.0
C944 C 0.91493 0.68206 0.149 0.0
C945 C 0.9029 0.64823 0.1323 0.0
C946 C 0.86579 0.63834 0.13921 0.0
C947 C 0.8414 0.66207 0.16133 0.0
C948 C 0.94422 0.56615 0.07107 0.0
C949 C 0.96801 0.58204 0.04543 0.0
C950 C 0.92444 0.58748 0.10064 0.0
C951 C 0.92845 0.62505 0.10523 0.0
C952 C 0.95511 0.64054 0.08126 0.0
C953 C 0.9744 0.61932 0.0517 0.0
H954 H 0.31232 0.83991 0.15796 0.0
H955 H 0.36725 0.87873 0.24377 0.0
H956 H 0.35156 0.87995 0.12343 0.0
H957 H 0.40507 0.92015 0.2105 0.0
H958 H 0.49475 0.96519 0.13314 0.0
H959 H 0.45232 0.92961 0.16858 0.0
H960 H 0.3733 0.93379 0.10686 0.0
H961 H 0.41766 0.96803 0.06943 0.0
C962 C 0.33252 0.8573 0.16975 0.0
C963 C 0.33647 0.8555 0.20388 0.0
C964 C 0.35515 0.88075 0.14984 0.0
C965 C 0.3825 0.90386 0.16333 0.0
C966 C 0.38554 0.90257 0.19799 0.0
C967 C 0.36336 0.87875 0.21758 0.0
C968 C 0.4683 0.95879 0.12696 0.0
C969 C 0.46026 0.96964 0.09781 0.0
C970 C 0.44334 0.93833 0.1479 0.0
C971 C 0.40849 0.92795 0.14132 0.0
C972 C 0.39974 0.94021 0.11298 0.0
C973 C 0.42513 0.96061 0.09162 0.0
H974 H 0.65432 0.20561 0.23892 0.0
H975 H 0.74432 0.19312 0.15216 0.0
H976 H 0.61586 0.16783 0.20165 0.0
H977 H 0.70621 0.15702 0.11479 0.0
H978 H 0.64265 0.06271 0.06204 0.0
H979 H 0.6779 0.10267 0.09948 0.0
H980 H 0.58303 0.15625 0.15514 0.0
H981 H 0.54703 0.11393 0.11792 0.0
C982 C 0.66607 0.195 0.21189 0.0
C983 C 0.70301 0.20266 0.19908 0.0
C984 C 0.64373 0.17336 0.19018 0.0
C985 C 0.65728 0.15842 0.1546 0.0
C986 C 0.69415 0.16672 0.1419 0.0
C987 C 0.71637 0.18804 0.16356 0.0
C988 C 0.62899 0.08275 0.08238 0.0
C989 C 0.5916 0.08427 0.08682 0.0
C990 C 0.6496 0.10647 0.10388 0.0
C991 C 0.63407 0.13354 0.13106 0.0
C992 C 0.59652 0.13583 0.13507 0.0
C993 C 0.5757 0.11174 0.11328 0.0
H994 H 0.69497 0.63182 0.81209 0.0
H995 H 0.59926 0.6476 0.77854 0.0
H996 H 0.65935 0.59946 0.85628 0.0
H997 H 0.56311 0.61432 0.82206 0.0
H998 H 0.58291 0.5241 0.91901 0.0
H999 H 0.62003 0.54727 0.86902 0.0
H1000 H 0.54796 0.63096 0.88584 0.0
H1001 H 0.51116 0.60768 0.9354 0.0
C1002 C 0.66627 0.62722 0.81371 0.0
C1003 C 0.64944 0.64204 0.79254 0.0
C1004 C 0.64592 0.60876 0.83881 0.0
C1005 C 0.60842 0.60485 0.84295 0.0
C1006 C 0.59194 0.61759 0.81988 0.0
C1007 C 0.6124 0.63619 0.79483 0.0
C1008 C 0.57545 0.54774 0.9122 0.0
C1009 C 0.5441 0.56403 0.93068 0.0
C1010 C 0.59646 0.56082 0.88351 0.0
C1011 C 0.58643 0.59045 0.87308 0.0
C1012 C 0.55573 0.60738 0.89251 0.0
C1013 C 0.53478 0.59426 0.92099 0.0
H1014 H 0.26843 0.69237 0.84823 0.0
H1015 H 0.35452 0.67311 0.75779 0.0
H1016 H 0.29208 0.65119 0.87533 0.0
H1017 H 0.37791 0.63143 0.78472 0.0
H1018 H 0.43251 0.59221 0.86137 0.0
H1019 H 0.40796 0.63141 0.8324 0.0
H1020 H 0.30083 0.58918 0.87158 0.0
H1021 H 0.32562 0.55113 0.90155 0.0
C1022 C 0.29213 0.67899 0.83386 0.0
C1023 C 0.30947 0.68612 0.80073 0.0
C1024 C 0.3057 0.65523 0.84941 0.0
C1025 C 0.33707 0.63795 0.83236 0.0
C1026 C 0.35403 0.64459 0.79892 0.0
C1027 C 0.3404 0.6683 0.78331 0.0
C1028 C 0.40374 0.59184 0.86426 0.0
C1029 C 0.38095 0.56922 0.88439 0.0
C1030 C 0.38961 0.61386 0.84718 0.0
C1031 C 0.3523 0.61371 0.84971 0.0
C1032 C 0.32962 0.59053 0.86943 0.0
C1033 C 0.34378 0.5685 0.8864 0.0
H1034 H 0.46983 0.43301 0.76784 0.0
H1035 H 0.46174 0.32004 0.76611 0.0
H1036 H 0.50256 0.44326 0.81575 0.0
H1037 H 0.49363 0.32994 0.81484 0.0
H1038 H 0.4451 0.39628 0.93402 0.0
H1039 H 0.45432 0.36434 0.87323 0.0
H1040 H 0.55171 0.43051 0.84826 0.0
H1041 H 0.54228 0.46226 0.90907 0.0
C1042 C 0.47709 0.41032 0.77643 0.0
C1043 C 0.46342 0.37593 0.76389 0.0
C1044 C 0.49579 0.41599 0.80377 0.0
C1045 C 0.50014 0.3873 0.81916 0.0
C1046 C 0.49064 0.35237 0.80331 0.0
C1047 C 0.47256 0.34672 0.77554 0.0
C1048 C 0.4695 0.40237 0.91595 0.0
C1049 C 0.49333 0.43106 0.92596 0.0
C1050 C 0.47497 0.38409 0.88123 0.0
C1051 C 0.50376 0.39513 0.85616 0.0
C1052 C 0.5296 0.42135 0.8672 0.0
C1053 C 0.52431 0.43931 0.90197 0.0
H1054 H 0.67055 0.35056 0.80853 0.0
H1055 H 0.7523 0.38067 0.87111 0.0
H1056 H 0.63236 0.3944 0.84867 0.0
H1057 H 0.71393 0.42479 0.91127 0.0
H1058 H 0.56257 0.43673 0.96147 0.0
H1059 H 0.59878 0.40082 0.91091 0.0
H1060 H 0.68607 0.48221 0.91459 0.0
H1061 H 0.6493 0.51862 0.96472 0.0
C1062 C 0.68057 0.36671 0.83072 0.0
C1063 C 0.71461 0.36194 0.83657 0.0
C1064 C 0.65853 0.39182 0.85378 0.0
C1065 C 0.67006 0.41325 0.88313 0.0
C1066 C 0.7044 0.40907 0.88863 0.0
C1067 C 0.72632 0.38359 0.86576 0.0
C1068 C 0.58866 0.44795 0.95033 0.0
C1069 C 0.60271 0.48091 0.96687 0.0
C1070 C 0.60975 0.42703 0.92159 0.0
C1071 C 0.64565 0.43829 0.90912 0.0
C1072 C 0.65876 0.47246 0.92392 0.0
C1073 C 0.63749 0.49356 0.95232 0.0
H1074 H 0.76839 0.33854 0.17111 0.0
H1075 H 0.70265 0.37881 0.27175 0.0
H1076 H 0.73882 0.37477 0.14336 0.0
H1077 H 0.67405 0.4161 0.24385 0.0
H1078 H 0.66414 0.50233 0.1756 0.0
H1079 H 0.69755 0.46986 0.20381 0.0
H1080 H 0.66564 0.37072 0.14068 0.0
H1081 H 0.63015 0.40258 0.11443 0.0
C1082 C 0.74808 0.35552 0.18745 0.0
C1083 C 0.73773 0.35554 0.22368 0.0
C1084 C 0.73111 0.37615 0.17147 0.0
C1085 C 0.7041 0.39801 0.19146 0.0
C1086 C 0.69488 0.39947 0.2279 0.0
C1087 C 0.71125 0.37814 0.24382 0.0
C1088 C 0.66425 0.4736 0.16772 0.0
C1089 C 0.64519 0.45528 0.14192 0.0
C1090 C 0.6834 0.4551 0.18384 0.0
C1091 C 0.68445 0.41791 0.17408 0.0
C1092 C 0.66576 0.39952 0.14817 0.0
C1093 C 0.64586 0.4179 0.1327 0.0
H1094 H 0.6429 0.73154 0.19343 0.0
H1095 H 0.62191 0.63515 0.23594 0.0
H1096 H 0.59833 0.71021 0.1566 0.0
H1097 H 0.57728 0.6134 0.19921 0.0
H1098 H 0.58296 0.61773 0.05838 0.0
H1099 H 0.60417 0.66091 0.1051 0.0
H1100 H 0.52012 0.62026 0.18177 0.0
H1101 H 0.49904 0.577 0.13451 0.0
C1102 C 0.6285 0.7058 0.19485 0.0
C1103 C 0.63643 0.68421 0.21631 0.0
C1104 C 0.60281 0.69381 0.17419 0.0
C1105 C 0.58451 0.66009 0.17484 0.0
C1106 C 0.5906 0.63973 0.19843 0.0
C1107 C 0.6163 0.65185 0.21916 0.0
C1108 C 0.56779 0.61963 0.08501 0.0
C1109 C 0.53944 0.5945 0.09313 0.0
C1110 C 0.57996 0.64419 0.11187 0.0
C1111 C 0.56418 0.64342 0.14716 0.0
C1112 C 0.533 0.62107 0.15482 0.0
C1113 C 0.52066 0.59671 0.12785 0.0
H1114 H 0.28791 0.66908 0.16286 0.0
H1115 H 0.37696 0.71632 0.21163 0.0
H1116 H 0.32667 0.6242 0.12405 0.0
H1117 H 0.4155 0.67209 0.17257 0.0
H1118 H 0.47127 0.61928 0.0541 0.0
H1119 H 0.43892 0.65935 0.10456 0.0
H1120 H 0.36332 0.57174 0.12932 0.0
H1121 H 0.39638 0.53163 0.07939 0.0
C1122 C 0.31563 0.66989 0.16533 0.0
C1123 C 0.32925 0.69628 0.19036 0.0
C1124 C 0.33775 0.64405 0.14335 0.0
C1125 C 0.37407 0.64451 0.14551 0.0
C1126 C 0.38767 0.671 0.17037 0.0
C1127 C 0.36548 0.69632 0.19272 0.0
C1128 C 0.44906 0.60822 0.07163 0.0
C1129 C 0.43683 0.57221 0.06338 0.0
C1130 C 0.43018 0.63123 0.1002 0.0
C1131 C 0.39814 0.61879 0.1204 0.0
C1132 C 0.38768 0.58213 0.11394 0.0
C1133 C 0.40706 0.55901 0.08585 0.0
H1134 H 0.32173 0.41693 0.24417 0.0
H1135 H 0.41933 0.40692 0.27726 0.0
H1136 H 0.35555 0.44572 0.19671 0.0
H1137 H 0.45364 0.43754 0.23105 0.0
H1138 H 0.42985 0.50185 0.11475 0.0
H1139 H 0.39457 0.49057 0.17114 0.0
H1140 H 0.46707 0.41164 0.17044 0.0
H1141 H 0.50261 0.42403 0.1153 0.0
C1142 C 0.35034 0.42293 0.2423 0.0
C1143 C 0.36828 0.4099 0.26384 0.0
C1144 C 0.36977 0.43921 0.21511 0.0
C1145 C 0.4074 0.44292 0.20949 0.0
C1146 C 0.42474 0.43398 0.23409 0.0
C1147 C 0.40526 0.41714 0.26088 0.0
C1148 C 0.43767 0.48173 0.12656 0.0
C1149 C 0.46865 0.4636 0.11079 0.0
C1150 C 0.41779 0.47552 0.15894 0.0
C1151 C 0.42852 0.45086 0.17573 0.0
C1152 C 0.45878 0.4318 0.15898 0.0
C1153 C 0.47878 0.43835 0.12705 0.0
H1154 H 0.80128 0.65313 0.70196 0.0
H1155 H 0.88436 0.73317 0.67228 0.0
H1156 H 0.83818 0.60638 0.66611 0.0
H1157 H 0.92088 0.68628 0.63465 0.0
H1158 H 0.98801 0.59972 0.57567 0.0
H1159 H 0.95596 0.63708 0.62815 0.0
H1160 H 0.85561 0.58251 0.60702 0.0
H1161 H 0.88778 0.54469 0.55582 0.0
C1162 C 0.82736 0.66079 0.68738 0.0
C1163 C 0.83962 0.69697 0.68946 0.0
C1164 C 0.84861 0.63387 0.6668 0.0
C1165 C 0.88256 0.64229 0.64711 0.0
C1166 C 0.89517 0.67856 0.64981 0.0
C1167 C 0.87406 0.70557 0.67099 0.0
C1168 C 0.95931 0.59442 0.58341 0.0
C1169 C 0.94033 0.5695 0.56145 0.0
C1170 C 0.94078 0.61647 0.61307 0.0
C1171 C 0.903 0.61382 0.62131 0.0
C1172 C 0.88461 0.58567 0.60173 0.0
C1173 C 0.9031 0.56367 0.5723 0.0
H1174 H 0.40542 0.78826 0.5955 0.0
H1175 H 0.42413 0.82725 0.70037 0.0
H1176 H 0.43231 0.84486 0.57879 0.0
H1177 H 0.45039 0.88374 0.68431 0.0
H1178 H 0.53183 0.96047 0.6249 0.0
H1179 H 0.50202 0.90891 0.64818 0.0
H1180 H 0.41668 0.90755 0.59225 0.0
H1181 H 0.44691 0.95875 0.56807 0.0
C1182 C 0.41596 0.80878 0.61462 0.0
C1183 C 0.41332 0.80353 0.6489 0.0
C1184 C 0.43073 0.84125 0.60541 0.0
C1185 C 0.44289 0.86888 0.63048 0.0
C1186 C 0.44143 0.86293 0.66441 0.0
C1187 C 0.4268 0.83055 0.6735 0.0
C1188 C 0.50618 0.9499 0.61831 0.0
C1189 C 0.49221 0.9632 0.59391 0.0
C1190 C 0.48915 0.92022 0.63161 0.0
C1191 C 0.45766 0.90357 0.62107 0.0
C1192 C 0.44159 0.91924 0.59983 0.0
C1193 C 0.45865 0.94893 0.58646 0.0
H1194 H 0.23658 0.29154 0.6604 0.0
H1195 H 0.31021 0.38526 0.67188 0.0
H1196 H 0.20217 0.32139 0.63162 0.0
H1197 H 0.2759 0.41503 0.64239 0.0
H1198 H 0.16897 0.46847 0.65238 0.0
H1199 H 0.21588 0.43785 0.66497 0.0
H1200 H 0.19831 0.34874 0.58238 0.0
H1201 H 0.15057 0.37913 0.57081 0.0
C1202 C 0.246 0.31819 0.65588 0.0
C1203 C 0.27573 0.33631 0.66893 0.0
C1204 C 0.22636 0.33524 0.63918 0.0
C1205 C 0.23604 0.37076 0.63524 0.0
C1206 C 0.26752 0.38783 0.64564 0.0
C1207 C 0.2873 0.37069 0.66226 0.0
C1208 C 0.17549 0.44248 0.63683 0.0
C1209 C 0.1565 0.42618 0.61055 0.0
C1210 C 0.20258 0.42513 0.64365 0.0
C1211 C 0.21097 0.39098 0.62445 0.0
C1212 C 0.19244 0.37504 0.59757 0.0
C1213 C 0.16538 0.39248 0.59075 0.0
H1214 H 0.70604 0.20641 0.63315 0.0
H1215 H 0.62223 0.27943 0.65894 0.0
H1216 H 0.67726 0.1694 0.58971 0.0
H1217 H 0.59133 0.2403 0.61539 0.0
H1218 H 0.53572 0.11895 0.59835 0.0
H1219 H 0.5618 0.17898 0.61876 0.0
H1220 H 0.65529 0.15961 0.53585 0.0
H1221 H 0.63095 0.09888 0.51833 0.0
C1222 C 0.68257 0.21587 0.62807 0.0
C1223 C 0.66718 0.24666 0.64872 0.0
C1224 C 0.66558 0.19421 0.60314 0.0
C1225 C 0.63211 0.2021 0.59878 0.0
C1226 C 0.61725 0.23379 0.61811 0.0
C1227 C 0.63484 0.25605 0.64288 0.0
C1228 C 0.56161 0.12802 0.58446 0.0
C1229 C 0.58214 0.10449 0.5578 0.0
C1230 C 0.57621 0.16246 0.59556 0.0
C1231 C 0.61097 0.17354 0.57931 0.0
C1232 C 0.62885 0.15139 0.54931 0.0
C1233 C 0.61508 0.11669 0.53941 0.0
H1234 H 0.80918 0.34533 0.37568 0.0
H1235 H 0.88918 0.3488 0.28153 0.0
H1236 H 0.85039 0.38163 0.41074 0.0
H1237 H 0.93031 0.38506 0.31643 0.0
H1238 H 0.9784 0.48481 0.38478 0.0
H1239 H 0.94109 0.44364 0.34955 0.0
H1240 H 0.9056 0.38557 0.43418 0.0
H1241 H 0.94349 0.42739 0.46965 0.0
C1242 C 0.83552 0.35382 0.36228 0.0
C1243 C 0.84529 0.34395 0.32534 0.0
C1244 C 0.8595 0.37456 0.38261 0.0
C1245 C 0.89425 0.38681 0.36692 0.0
C1246 C 0.90394 0.37684 0.32995 0.0
C1247 C 0.88016 0.35575 0.3097 0.0
C1248 C 0.96337 0.46281 0.39575 0.0
C1249 C 0.96481 0.45951 0.43017 0.0
C1250 C 0.94168 0.43893 0.37535 0.0
C1251 C 0.91964 0.41079 0.38854 0.0
C1252 C 0.92167 0.40685 0.42279 0.0
C1253 C 0.944 0.43059 0.44311 0.0
H1254 H 0.67033 0.82408 0.30675 0.0
H1255 H 0.76455 0.88686 0.33367 0.0
H1256 H 0.63244 0.86885 0.34576 0.0
H1257 H 0.72705 0.9305 0.37424 0.0
H1258 H 0.66017 1.01475 0.4375 0.0
H1259 H 0.69069 0.97641 0.385 0.0
H1260 H 0.60865 0.89144 0.40314 0.0
H1261 H 0.57734 0.93079 0.45395 0.0
C1262 C 0.68295 0.84736 0.32126 0.0
C1263 C 0.72051 0.85178 0.31716 0.0
C1264 C 0.66117 0.87312 0.34384 0.0
C1265 C 0.67628 0.90378 0.36353 0.0
C1266 C 0.71401 0.90803 0.35913 0.0
C1267 C 0.73574 0.88265 0.33606 0.0
C1268 C 0.64788 0.98842 0.42913 0.0
C1269 C 0.61624 0.97593 0.44969 0.0
C1270 C 0.66581 0.96598 0.39945 0.0
C1271 C 0.65314 0.93002 0.39015 0.0
C1272 C 0.61959 0.91874 0.40901 0.0
C1273 C 0.60124 0.94153 0.4382 0.0
H1274 H 0.24619 0.6937 0.35077 0.0
H1275 H 0.15909 0.70018 0.30001 0.0
H1276 H 0.20903 0.65179 0.38456 0.0
H1277 H 0.12134 0.65985 0.33467 0.0
H1278 H 0.06194 0.56877 0.38203 0.0
H1279 H 0.10426 0.6045 0.34581 0.0
H1280 H 0.16347 0.63818 0.42949 0.0
H1281 H 0.12149 0.60049 0.46505 0.0
C1282 C 0.21902 0.68633 0.34679 0.0
C1283 C 0.20608 0.70053 0.32214 0.0
C1284 C 0.19734 0.66223 0.36657 0.0
C1285 C 0.16155 0.65144 0.36285 0.0
C1286 C 0.1487 0.66608 0.33827 0.0
C1287 C 0.17049 0.68981 0.31828 0.0
C1288 C 0.08455 0.58303 0.39244 0.0
C1289 C 0.08829 0.58097 0.4265 0.0
C1290 C 0.10877 0.60439 0.37173 0.0
C1291 C 0.13759 0.62564 0.38435 0.0
C1292 C 0.14216 0.62246 0.41809 0.0
C1293 C 0.11805 0.60046 0.43869 0.0
H1294 H 0.34061 0.2525 0.35703 0.0
H1295 H 0.26542 0.16533 0.32613 0.0
H1296 H 0.37036 0.21246 0.38037 0.0
H1297 H 0.29543 0.12531 0.34843 0.0
H1298 H 0.34538 0.06271 0.4082 0.0
H1299 H 0.31037 0.10688 0.39657 0.0
H1300 H 0.40873 0.16485 0.3562 0.0
H1301 H 0.44322 0.12162 0.36972 0.0
C1302 C 0.33002 0.22498 0.35574 0.0
C1303 C 0.30055 0.21221 0.3397 0.0
C1304 C 0.34731 0.20188 0.36878 0.0
C1305 C 0.33567 0.16541 0.36593 0.0
C1306 C 0.30505 0.15319 0.35151 0.0
C1307 C 0.28774 0.17626 0.33865 0.0
C1308 C 0.3593 0.08537 0.39757 0.0
C1309 C 0.3969 0.08917 0.39036 0.0
C1310 C 0.33935 0.11047 0.39046 0.0
C1311 C 0.35663 0.13974 0.37563 0.0
C1312 C 0.39437 0.14323 0.36831 0.0
C1313 C 0.41421 0.11824 0.37558 0.0
H1314 H 0.67921 0.80415 0.713 0.0
H1315 H 0.7863 0.84213 0.66916 0.0
H1316 H 0.65443 0.84465 0.68623 0.0
H1317 H 0.76177 0.88187 0.64105 0.0
H1318 H 0.70777 0.97804 0.63042 0.0
H1319 H 0.73299 0.93521 0.65444 0.0
H1320 H 0.6438 0.85901 0.63572 0.0
H1321 H 0.61752 0.90298 0.61466 0.0
C1322 C 0.69748 0.82061 0.69689 0.0
C1323 C 0.73472 0.82019 0.69341 0.0
C1324 C 0.68328 0.8439 0.68144 0.0
C1325 C 0.70599 0.86697 0.66158 0.0
C1326 C 0.74335 0.8653 0.65688 0.0
C1327 C 0.75751 0.84236 0.67282 0.0
C1328 C 0.69362 0.95215 0.63165 0.0
C1329 C 0.66115 0.94358 0.61981 0.0
C1330 C 0.70824 0.92735 0.64499 0.0
C1331 C 0.69076 0.89325 0.64673 0.0
C1332 C 0.65807 0.88492 0.63507 0.0
C1333 C 0.64326 0.90992 0.62224 0.0
H1334 H 0.68954 0.24018 0.42198 0.0
H1335 H 0.59895 0.24886 0.37626 0.0
H1336 H 0.66555 0.18281 0.43345 0.0
H1337 H 0.57159 0.19413 0.39367 0.0
H1338 H 0.54476 0.07868 0.38622 0.0
H1339 H 0.57491 0.13495 0.37327 0.0
H1340 H 0.62924 0.14394 0.46015 0.0
H1341 H 0.6026 0.08608 0.46956 0.0
C1342 C 0.6648 0.22999 0.41378 0.0
C1343 C 0.64863 0.24768 0.39414 0.0
C1344 C 0.6501 0.19706 0.42165 0.0
C1345 C 0.6174 0.18221 0.41244 0.0
C1346 C 0.59812 0.20312 0.39873 0.0
C1347 C 0.6136 0.23524 0.38947 0.0
C1348 C 0.56436 0.09219 0.40141 0.0
C1349 C 0.57124 0.07825 0.42901 0.0
C1350 C 0.58096 0.12499 0.39476 0.0
C1351 C 0.60357 0.14517 0.41656 0.0
C1352 C 0.61226 0.12969 0.44253 0.0
C1353 C 0.59692 0.09624 0.44805 0.0
H1354 H 0.85761 0.77467 0.33222 0.0
H1355 H 0.77741 0.686 0.32597 0.0
H1356 H 0.88775 0.74504 0.36523 0.0
H1357 H 0.80791 0.6563 0.35901 0.0
H1358 H 0.9581 0.65251 0.36184 0.0
H1359 H 0.92182 0.69011 0.34264 0.0
H1360 H 0.82888 0.65872 0.41621 0.0
H1361 H 0.86562 0.62082 0.4352 0.0
C1362 C 0.84601 0.74913 0.33842 0.0
C1363 C 0.81543 0.73237 0.32596 0.0
C1364 C 0.86338 0.73217 0.35725 0.0
C1365 C 0.85048 0.69817 0.36417 0.0
C1366 C 0.81837 0.68257 0.3541 0.0
C1367 C 0.80098 0.69953 0.3351 0.0
C1368 C 0.93001 0.65408 0.37408 0.0
C1369 C 0.91457 0.6342 0.40007 0.0
C1370 C 0.90931 0.67571 0.36337 0.0
C1371 C 0.87258 0.67751 0.37815 0.0
C1372 C 0.85713 0.65783 0.40446 0.0
C1373 C 0.87808 0.63645 0.41549 0.0
H1374 H 0.34764 0.82431 0.40463 0.0
H1375 H 0.42968 0.7553 0.34329 0.0
H1376 H 0.38959 0.85608 0.43891 0.0
H1377 H 0.473 0.79052 0.37594 0.0
H1378 H 0.49566 0.90656 0.482 0.0
H1379 H 0.46896 0.84642 0.46411 0.0
H1380 H 0.45438 0.87494 0.36889 0.0
H1381 H 0.47941 0.93565 0.38734 0.0
C1382 C 0.37371 0.81414 0.39958 0.0
C1383 C 0.38535 0.78761 0.37031 0.0
C1384 C 0.39803 0.83276 0.41939 0.0
C1385 C 0.43435 0.82602 0.40927 0.0
C1386 C 0.44496 0.796 0.384 0.0
C1387 C 0.42019 0.77622 0.36519 0.0
C1388 C 0.48789 0.8996 0.45665 0.0
C1389 C 0.48893 0.92568 0.43611 0.0
C1390 C 0.47289 0.86523 0.44652 0.0
C1391 C 0.46006 0.85655 0.41529 0.0
C1392 C 0.46465 0.8814 0.393 0.0
C1393 C 0.47861 0.91602 0.40357 0.0
H1394 H 0.21976 0.3661 0.35538 0.0
H1395 H 0.13749 0.28531 0.32726 0.0
H1396 H 0.17425 0.40516 0.3897 0.0
H1397 H 0.09138 0.32508 0.36163 0.0
H1398 H 0.03645 0.38702 0.47429 0.0
H1399 H 0.06843 0.34882 0.42286 0.0
H1400 H 0.12757 0.44178 0.38809 0.0
H1401 H 0.09602 0.47989 0.44033 0.0
C1402 C 0.19187 0.35664 0.3564 0.0
C1403 C 0.18239 0.32231 0.33875 0.0
C1404 C 0.16563 0.3794 0.37571 0.0
C1405 C 0.12897 0.36865 0.37806 0.0
C1406 C 0.11934 0.3343 0.36036 0.0
C1407 C 0.14576 0.31142 0.34082 0.0
C1408 C 0.05492 0.39944 0.45469 0.0
C1409 C 0.06425 0.43634 0.46167 0.0
C1410 C 0.07352 0.37745 0.42521 0.0
C1411 C 0.10165 0.39207 0.40202 0.0
C1412 C 0.10686 0.42956 0.40612 0.0
C1413 C 0.08821 0.45157 0.43571 0.0
H1414 H 0.32862 0.17441 0.67604 0.0
H1415 H 0.41999 0.25129 0.67796 0.0
H1416 H 0.36702 0.13022 0.63638 0.0
H1417 H 0.45843 0.207 0.63922 0.0
H1418 H 0.49504 0.13786 0.52777 0.0
H1419 H 0.46777 0.17971 0.57888 0.0
H1420 H 0.4157 0.09156 0.62731 0.0
H1421 H 0.44315 0.04958 0.57542 0.0
C1422 C 0.35693 0.18181 0.6683 0.0
C1423 C 0.37101 0.21663 0.67988 0.0
C1424 C 0.37912 0.1563 0.64582 0.0
C1425 C 0.41601 0.16489 0.63442 0.0
C1426 C 0.43016 0.19944 0.64694 0.0
C1427 C 0.40801 0.22491 0.66924 0.0
C1428 C 0.47911 0.12744 0.55005 0.0
C1429 C 0.47134 0.0905 0.54767 0.0
C1430 C 0.46318 0.15148 0.5794 0.0
C1431 C 0.43873 0.13917 0.60709 0.0
C1432 C 0.43375 0.10204 0.60618 0.0
C1433 C 0.45008 0.07791 0.57678 0.0
H1434 H 0.80817 0.34702 0.66329 0.0
H1435 H 0.87649 0.3702 0.73943 0.0
H1436 H 0.84813 0.38605 0.62775 0.0
H1437 H 0.91555 0.41 0.70495 0.0
H1438 H 1.00271 0.44566 0.62026 0.0
H1439 H 0.95941 0.41176 0.65621 0.0
H1440 H 0.87449 0.44292 0.61529 0.0
H1441 H 0.91925 0.47696 0.57753 0.0
C1442 C 0.83153 0.36064 0.67275 0.0
C1443 C 0.83888 0.35481 0.70448 0.0
C1444 C 0.85456 0.38343 0.65228 0.0
C1445 C 0.88596 0.40151 0.66264 0.0
C1446 C 0.89256 0.39628 0.69494 0.0
C1447 C 0.86975 0.37338 0.71519 0.0
C1448 C 0.97488 0.44603 0.61879 0.0
C1449 C 0.9652 0.46484 0.59549 0.0
C1450 C 0.94951 0.42632 0.64006 0.0
C1451 C 0.91262 0.42418 0.63964 0.0
C1452 C 0.90246 0.4433 0.61665 0.0
C1453 C 0.92823 0.46333 0.59504 0.0
H1454 H 0.24267 0.70088 0.64676 0.0
H1455 H 0.16195 0.69811 0.74051 0.0
H1456 H 0.20138 0.66516 0.6114 0.0
H1457 H 0.12076 0.66246 0.70534 0.0
H1458 H 0.07223 0.56308 0.63649 0.0
H1459 H 0.10941 0.60403 0.67214 0.0
H1460 H 0.14656 0.66182 0.58749 0.0
H1461 H 0.1087 0.62039 0.5517 0.0
C1462 C 0.21616 0.6927 0.66001 0.0
C1463 C 0.20619 0.70262 0.69693 0.0
C1464 C 0.19213 0.67228 0.63951 0.0
C1465 C 0.15714 0.66039 0.65499 0.0
C1466 C 0.14729 0.6704 0.69195 0.0
C1467 C 0.17111 0.69117 0.71236 0.0
C1468 C 0.08738 0.5852 0.62573 0.0
C1469 C 0.0863 0.58861 0.59125 0.0
C1470 C 0.10911 0.60884 0.64631 0.0
C1471 C 0.13165 0.63676 0.63321 0.0
C1472 C 0.13006 0.64075 0.59887 0.0
C1473 C 0.10769 0.61727 0.57837 0.0
loop_
_geom_bond_atom_site_label_1
_geom_bond_atom_site_label_2
_geom_bond_distance
_geom_bond_site_symmetry_2
_ccdc_geom_bond_type
Zn0 O1 2.055 . S
Zn0 O8 2.046 . S
Zn0 N16 2.036 . S
Zn0 O28 2.053 . S
Zn0 O30 2.066 . S
O1 Zn0 2.055 . S
O1 C4 1.259 . S
C2 O30 1.256 . S
C2 O31 1.244 . S
Zn3 O5 2.046 . S
Zn3 O7 2.055 . S
Zn3 N9 2.036 . S
Zn3 O27 2.066 . S
Zn3 O31 2.053 . S
C4 O1 1.259 . S
C4 O5 1.254 . S
O5 Zn3 2.046 . S
O5 C4 1.254 . S
C6 O27 1.256 . S
C6 O28 1.244 . S
O7 Zn3 2.055 . S
O7 C29 1.259 . S
O8 Zn0 2.046 . S
O8 C29 1.254 . S
N9 Zn3 2.036 . S
N9 C10 1.298 . S
N9 N12 1.398 . S
C10 N9 1.298 . S
C10 N13 1.367 . S
C10 C23 1.481 . S
C11 N12 1.299 . S
C11 N13 1.379 . S
N12 N9 1.398 . S
N12 C11 1.299 . S
N13 C10 1.367 . S
N13 C11 1.379 . S
C14 N16 1.298 . S
C14 N18 1.367 . S
C14 C22 1.481 . S
C15 N17 1.299 . S
C15 N18 1.379 . S
N16 Zn0 2.036 . S
N16 C14 1.298 . S
N16 N17 1.398 . S
N17 C15 1.299 . S
N17 N16 1.398 . S
N18 C14 1.367 . S
N18 C15 1.379 . S
H19 C22 0.980 . S
H20 C22 0.981 . S
H21 C22 0.981 . S
C22 C14 1.481 . S
C22 H19 0.980 . S
C22 H20 0.981 . S
C22 H21 0.981 . S
C23 C10 1.481 . S
C23 H24 0.980 . S
C23 H25 0.981 . S
C23 H26 0.981 . S
H24 C23 0.980 . S
H25 C23 0.981 . S
H26 C23 0.981 . S
O27 Zn3 2.066 . S
O27 C6 1.256 . S
O28 Zn0 2.053 . S
O28 C6 1.244 . S
C29 O7 1.259 . S
C29 O8 1.254 . S
O30 Zn0 2.066 . S
O30 C2 1.256 . S
O31 C2 1.244 . S
O31 Zn3 2.053 . S
Zn32 O33 2.055 . S
Zn32 O40 2.046 . S
Zn32 N48 2.036 . S
Zn32 O60 2.053 . S
Zn32 O62 2.066 . S
O33 Zn32 2.055 . S
O33 C36 1.259 . S
C34 O62 1.256 . S
C34 O63 1.244 . S
Zn35 O37 2.046 . S
Zn35 O39 2.055 . S
Zn35 N41 2.036 . S
Zn35 O59 2.066 . S
Zn35 O63 2.053 . S
C36 O33 1.259 . S
C36 O37 1.254 . S
O37 Zn35 2.046 . S
O37 C36 1.254 . S
C38 O59 1.256 . S
C38 O60 1.244 . S
O39 Zn35 2.055 . S
O39 C61 1.259 . S
O40 Zn32 2.046 . S
O40 C61 1.254 . S
N41 Zn35 2.036 . S
N41 C42 1.298 . S
N41 N44 1.398 . S
C42 N41 1.298 . S
C42 N45 1.367 . S
C42 C55 1.481 . S
C43 N44 1.299 . S
C43 N45 1.379 . S
N44 N41 1.398 . S
N44 C43 1.299 . S
N45 C42 1.367 . S
N45 C43 1.379 . S
C46 N48 1.298 . S
C46 N50 1.367 . S
C46 C54 1.481 . S
C47 N49 1.299 . S
C47 N50 1.379 . S
N48 Zn32 2.036 . S
N48 C46 1.298 . S
N48 N49 1.398 . S
N49 C47 1.299 . S
N49 N48 1.398 . S
N50 C46 1.367 . S
N50 C47 1.379 . S
H51 C54 0.980 . S
H52 C54 0.981 . S
H53 C54 0.981 . S
C54 C46 1.481 . S
C54 H51 0.980 . S
C54 H52 0.981 . S
C54 H53 0.981 . S
C55 C42 1.481 . S
C55 H56 0.980 . S
C55 H57 0.981 . S
C55 H58 0.981 . S
H56 C55 0.980 . S
H57 C55 0.981 . S
H58 C55 0.981 . S
O59 Zn35 2.066 . S
O59 C38 1.256 . S
O60 Zn32 2.053 . S
O60 C38 1.244 . S
C61 O39 1.259 . S
C61 O40 1.254 . S
O62 Zn32 2.066 . S
O62 C34 1.256 . S
O63 C34 1.244 . S
O63 Zn35 2.053 . S
Zn64 O65 2.055 . S
Zn64 O72 2.046 . S
Zn64 N80 2.036 . S
Zn64 O92 2.053 . S
Zn64 O94 2.066 . S
O65 Zn64 2.055 . S
O65 C68 1.259 . S
C66 O94 1.256 . S
C66 O95 1.244 . S
Zn67 O69 2.046 . S
Zn67 O71 2.055 . S
Zn67 N73 2.036 . S
Zn67 O91 2.066 . S
Zn67 O95 2.053 . S
C68 O65 1.259 . S
C68 O69 1.254 . S
O69 Zn67 2.046 . S
O69 C68 1.254 . S
C70 O91 1.256 . S
C70 O92 1.244 . S
O71 Zn67 2.055 . S
O71 C93 1.259 . S
O72 Zn64 2.046 . S
O72 C93 1.254 . S
N73 Zn67 2.036 . S
N73 C74 1.298 . S
N73 N76 1.398 . S
C74 N73 1.298 . S
C74 N77 1.367 . S
C74 C87 1.481 . S
C75 N76 1.299 . S
C75 N77 1.379 . S
N76 N73 1.398 . S
N76 C75 1.299 . S
N77 C74 1.367 . S
N77 C75 1.379 . S
C78 N80 1.298 . S
C78 N82 1.367 . S
C78 C86 1.481 . S
C79 N81 1.299 . S
C79 N82 1.379 . S
N80 Zn64 2.036 . S
N80 C78 1.298 . S
N80 N81 1.398 . S
N81 C79 1.299 . S
N81 N80 1.398 . S
N82 C78 1.367 . S
N82 C79 1.379 . S
H83 C86 0.980 . S
H84 C86 0.981 . S
H85 C86 0.981 . S
C86 C78 1.481 . S
C86 H83 0.980 . S
C86 H84 0.981 . S
C86 H85 0.981 . S
C87 C74 1.481 . S
C87 H88 0.980 . S
C87 H89 0.981 . S
C87 H90 0.981 . S
H88 C87 0.980 . S
H89 C87 0.981 . S
H90 C87 0.981 . S
O91 Zn67 2.066 . S
O91 C70 1.256 . S
O92 Zn64 2.053 . S
O92 C70 1.244 . S
C93 O71 1.259 . S
C93 O72 1.254 . S
O94 Zn64 2.066 . S
O94 C66 1.256 . S
O95 C66 1.244 . S
O95 Zn67 2.053 . S
Zn96 O97 2.055 . S
Zn96 O104 2.046 . S
Zn96 N112 2.036 . S
Zn96 O124 2.053 . S
Zn96 O126 2.066 . S
O97 Zn96 2.055 . S
O97 C100 1.259 . S
C98 O126 1.256 . S
C98 O127 1.244 . S
Zn99 O101 2.046 . S
Zn99 O103 2.055 . S
Zn99 N105 2.036 . S
Zn99 O123 2.066 . S
Zn99 O127 2.053 . S
C100 O97 1.259 . S
C100 O101 1.254 . S
O101 Zn99 2.046 . S
O101 C100 1.254 . S
C102 O123 1.256 . S
C102 O124 1.244 . S
O103 Zn99 2.055 . S
O103 C125 1.259 . S
O104 Zn96 2.046 . S
O104 C125 1.254 . S
N105 Zn99 2.036 . S
N105 C106 1.298 . S
N105 N108 1.398 . S
C106 N105 1.298 . S
C106 N109 1.367 . S
C106 C119 1.481 . S
C107 N108 1.299 . S
C107 N109 1.379 . S
N108 N105 1.398 . S
N108 C107 1.299 . S
N109 C106 1.367 . S
N109 C107 1.379 . S
C110 N112 1.298 . S
C110 N114 1.367 . S
C110 C118 1.481 . S
C111 N113 1.299 . S
C111 N114 1.379 . S
N112 Zn96 2.036 . S
N112 C110 1.298 . S
N112 N113 1.398 . S
N113 C111 1.299 . S
N113 N112 1.398 . S
N114 C110 1.367 . S
N114 C111 1.379 . S
H115 C118 0.980 . S
H116 C118 0.981 . S
H117 C118 0.981 . S
C118 C110 1.481 . S
C118 H115 0.980 . S
C118 H116 0.981 . S
C118 H117 0.981 . S
C119 C106 1.481 . S
C119 H120 0.980 . S
C119 H121 0.981 . S
C119 H122 0.981 . S
H120 C119 0.980 . S
H121 C119 0.981 . S
H122 C119 0.981 . S
O123 Zn99 2.066 . S
O123 C102 1.256 . S
O124 Zn96 2.053 . S
O124 C102 1.244 . S
C125 O103 1.259 . S
C125 O104 1.254 . S
O126 Zn96 2.066 . S
O126 C98 1.256 . S
O127 C98 1.244 . S
O127 Zn99 2.053 . S
Zn128 O129 2.055 . S
Zn128 O136 2.046 . S
Zn128 N144 2.036 . S
Zn128 O156 2.053 . S
Zn128 O158 2.066 . S
O129 Zn128 2.055 . S
O129 C132 1.259 . S
C130 O158 1.256 . S
C130 O159 1.244 . S
Zn131 O133 2.046 . S
Zn131 O135 2.055 . S
Zn131 N137 2.036 . S
Zn131 O155 2.066 . S
Zn131 O159 2.053 . S
C132 O129 1.259 . S
C132 O133 1.254 . S
O133 Zn131 2.046 . S
O133 C132 1.254 . S
C134 O155 1.256 . S
C134 O156 1.244 . S
O135 Zn131 2.055 . S
O135 C157 1.259 . S
O136 Zn128 2.046 . S
O136 C157 1.254 . S
N137 Zn131 2.036 . S
N137 C138 1.298 . S
N137 N140 1.398 . S
C138 N137 1.298 . S
C138 N141 1.367 . S
C138 C151 1.481 . S
C139 N140 1.299 . S
C139 N141 1.379 . S
N140 N137 1.398 . S
N140 C139 1.299 . S
N141 C138 1.367 . S
N141 C139 1.379 . S
C142 N144 1.298 . S
C142 N146 1.367 . S
C142 C150 1.481 . S
C143 N145 1.299 . S
C143 N146 1.379 . S
N144 Zn128 2.036 . S
N144 C142 1.298 . S
N144 N145 1.398 . S
N145 C143 1.299 . S
N145 N144 1.398 . S
N146 C142 1.367 . S
N146 C143 1.379 . S
H147 C150 0.980 . S
H148 C150 0.981 . S
H149 C150 0.981 . S
C150 C142 1.481 . S
C150 H147 0.980 . S
C150 H148 0.981 . S
C150 H149 0.981 . S
C151 C138 1.481 . S
C151 H152 0.980 . S
C151 H153 0.981 . S
C151 H154 0.981 . S
H152 C151 0.980 . S
H153 C151 0.981 . S
H154 C151 0.981 . S
O155 Zn131 2.066 . S
O155 C134 1.256 . S
O156 Zn128 2.053 . S
O156 C134 1.244 . S
C157 O135 1.259 . S
C157 O136 1.254 . S
O158 Zn128 2.066 . S
O158 C130 1.256 . S
O159 C130 1.244 . S
O159 Zn131 2.053 . S
Zn160 O161 2.055 . S
Zn160 O168 2.046 . S
Zn160 N176 2.036 . S
Zn160 O188 2.053 . S
Zn160 O190 2.066 . S
O161 Zn160 2.055 . S
O161 C164 1.259 . S
C162 O190 1.256 . S
C162 O191 1.244 . S
Zn163 O165 2.046 . S
Zn163 O167 2.055 . S
Zn163 N169 2.036 . S
Zn163 O187 2.066 . S
Zn163 O191 2.053 . S
C164 O161 1.259 . S
C164 O165 1.254 . S
O165 Zn163 2.046 . S
O165 C164 1.254 . S
C166 O187 1.256 . S
C166 O188 1.244 . S
O167 Zn163 2.055 . S
O167 C189 1.259 . S
O168 Zn160 2.046 . S
O168 C189 1.254 . S
N169 Zn163 2.036 . S
N169 C170 1.298 . S
N169 N172 1.398 . S
C170 N169 1.298 . S
C170 N173 1.367 . S
C170 C183 1.481 . S
C171 N172 1.299 . S
C171 N173 1.379 . S
N172 N169 1.398 . S
N172 C171 1.299 . S
N173 C170 1.367 . S
N173 C171 1.379 . S
C174 N176 1.298 . S
C174 N178 1.367 . S
C174 C182 1.481 . S
C175 N177 1.299 . S
C175 N178 1.379 . S
N176 Zn160 2.036 . S
N176 C174 1.298 . S
N176 N177 1.398 . S
N177 C175 1.299 . S
N177 N176 1.398 . S
N178 C174 1.367 . S
N178 C175 1.379 . S
H179 C182 0.980 . S
H180 C182 0.981 . S
H181 C182 0.981 . S
C182 C174 1.481 . S
C182 H179 0.980 . S
C182 H180 0.981 . S
C182 H181 0.981 . S
C183 C170 1.481 . S
C183 H184 0.980 . S
C183 H185 0.981 . S
C183 H186 0.981 . S
H184 C183 0.980 . S
H185 C183 0.981 . S
H186 C183 0.981 . S
O187 Zn163 2.066 . S
O187 C166 1.256 . S
O188 Zn160 2.053 . S
O188 C166 1.244 . S
C189 O167 1.259 . S
C189 O168 1.254 . S
O190 Zn160 2.066 . S
O190 C162 1.256 . S
O191 C162 1.244 . S
O191 Zn163 2.053 . S
Zn192 O193 2.055 . S
Zn192 O200 2.046 . S
Zn192 N208 2.036 . S
Zn192 O220 2.053 . S
Zn192 O222 2.066 . S
O193 Zn192 2.055 . S
O193 C196 1.259 . S
C194 O222 1.256 . S
C194 O223 1.244 . S
Zn195 O197 2.046 . S
Zn195 O199 2.055 . S
Zn195 N201 2.036 . S
Zn195 O219 2.066 . S
Zn195 O223 2.053 . S
C196 O193 1.259 . S
C196 O197 1.254 . S
O197 Zn195 2.046 . S
O197 C196 1.254 . S
C198 O219 1.256 . S
C198 O220 1.244 . S
O199 Zn195 2.055 . S
O199 C221 1.259 . S
O200 Zn192 2.046 . S
O200 C221 1.254 . S
N201 Zn195 2.036 . S
N201 C202 1.298 . S
N201 N204 1.398 . S
C202 N201 1.298 . S
C202 N205 1.367 . S
C202 C215 1.481 . S
C203 N204 1.299 . S
C203 N205 1.379 . S
N204 N201 1.398 . S
N204 C203 1.299 . S
N205 C202 1.367 . S
N205 C203 1.379 . S
C206 N208 1.298 . S
C206 N210 1.367 . S
C206 C214 1.481 . S
C207 N209 1.299 . S
C207 N210 1.379 . S
N208 Zn192 2.036 . S
N208 C206 1.298 . S
N208 N209 1.398 . S
N209 C207 1.299 . S
N209 N208 1.398 . S
N210 C206 1.367 . S
N210 C207 1.379 . S
H211 C214 0.980 . S
H212 C214 0.981 . S
H213 C214 0.981 . S
C214 C206 1.481 . S
C214 H211 0.980 . S
C214 H212 0.981 . S
C214 H213 0.981 . S
C215 C202 1.481 . S
C215 H216 0.980 . S
C215 H217 0.981 . S
C215 H218 0.981 . S
H216 C215 0.980 . S
H217 C215 0.981 . S
H218 C215 0.981 . S
O219 Zn195 2.066 . S
O219 C198 1.256 . S
O220 Zn192 2.053 . S
O220 C198 1.244 . S
C221 O199 1.259 . S
C221 O200 1.254 . S
O222 Zn192 2.066 . S
O222 C194 1.256 . S
O223 C194 1.244 . S
O223 Zn195 2.053 . S
Zn224 O225 2.055 . S
Zn224 O232 2.046 . S
Zn224 N240 2.036 . S
Zn224 O252 2.053 . S
Zn224 O254 2.066 . S
O225 Zn224 2.055 . S
O225 C228 1.259 . S
C226 O254 1.256 . S
C226 O255 1.244 . S
Zn227 O229 2.046 . S
Zn227 O231 2.055 . S
Zn227 N233 2.036 . S
Zn227 O251 2.066 . S
Zn227 O255 2.053 . S
C228 O225 1.259 . S
C228 O229 1.254 . S
O229 Zn227 2.046 . S
O229 C228 1.254 . S
C230 O251 1.256 . S
C230 O252 1.244 . S
O231 Zn227 2.055 . S
O231 C253 1.259 . S
O232 Zn224 2.046 . S
O232 C253 1.254 . S
N233 Zn227 2.036 . S
N233 C234 1.298 . S
N233 N236 1.398 . S
C234 N233 1.298 . S
C234 N237 1.367 . S
C234 C247 1.481 . S
C235 N236 1.299 . S
C235 N237 1.379 . S
N236 N233 1.398 . S
N236 C235 1.299 . S
N237 C234 1.367 . S
N237 C235 1.379 . S
C238 N240 1.298 . S
C238 N242 1.367 . S
C238 C246 1.481 . S
C239 N241 1.299 . S
C239 N242 1.379 . S
N240 Zn224 2.036 . S
N240 C238 1.298 . S
N240 N241 1.398 . S
N241 C239 1.299 . S
N241 N240 1.398 . S
N242 C238 1.367 . S
N242 C239 1.379 . S
H243 C246 0.980 . S
H244 C246 0.981 . S
H245 C246 0.981 . S
C246 C238 1.481 . S
C246 H243 0.980 . S
C246 H244 0.981 . S
C246 H245 0.981 . S
C247 C234 1.481 . S
C247 H248 0.980 . S
C247 H249 0.981 . S
C247 H250 0.981 . S
H248 C247 0.980 . S
H249 C247 0.981 . S
H250 C247 0.981 . S
O251 Zn227 2.066 . S
O251 C230 1.256 . S
O252 Zn224 2.053 . S
O252 C230 1.244 . S
C253 O231 1.259 . S
C253 O232 1.254 . S
O254 Zn224 2.066 . S
O254 C226 1.256 . S
O255 C226 1.244 . S
O255 Zn227 2.053 . S
Co256 N257 2.034 . S
Co256 O271 2.262 . S
Co256 O275 1.958 1_455 S
Co256 O279 1.950 1_565 S
Co256 O280 2.057 . S
N257 Co256 2.034 . S
N257 C258 1.366 . S
N257 C260 1.332 . S
C258 N257 1.366 . S
C258 C261 1.377 . S
C258 H290 0.931 . S
N259 C260 1.346 . S
N259 C261 1.337 . S
C260 N257 1.332 . S
C260 N259 1.346 . S
C260 C294 1.361 . S
C261 C258 1.377 . S
C261 N259 1.337 . S
C261 H297 0.930 . S
Co262 N263 2.034 . S
Co262 O276 1.950 1_655 S
Co262 O277 2.262 . S
Co262 O278 1.958 1_545 S
Co262 O282 2.057 . S
N263 Co262 2.034 . S
N263 C266 1.366 . S
N263 C267 1.332 . S
N264 C265 1.337 . S
N264 C267 1.346 . S
C265 N264 1.337 . S
C265 C266 1.377 . S
C265 H298 0.930 . S
C266 N263 1.366 . S
C266 C265 1.377 . S
C266 H270 0.931 . S
C267 N263 1.332 . S
C267 N264 1.346 . S
C267 C284 1.361 . S
Co268 O271 2.124 . S
Co268 O272 2.075 1_565 S
Co268 O273 2.084 1_565 S
Co268 O274 2.033 1_455 S
Co268 O277 2.070 1_465 S
Co268 O281 2.025 1_455 S
C269 O277 1.253 . S
C269 O282 1.263 . S
H270 C266 0.931 . S
O271 Co256 2.262 . S
O271 Co268 2.124 . S
O271 C295 1.253 . S
O272 Co268 2.075 1_545 S
O272 C288 1.221 . S
O273 Co268 2.084 1_545 S
O273 C283 1.221 . S
O274 Co268 2.033 1_655 S
O274 C289 1.237 . S
O275 Co256 1.958 1_655 S
O275 C289 1.278 . S
O276 Co262 1.950 1_455 S
O276 C288 1.277 . S
O277 Co262 2.262 . S
O277 Co268 2.070 1_645 S
O277 C269 1.253 . S
O278 Co262 1.958 1_565 S
O278 C296 1.278 . S
O279 Co256 1.950 1_545 S
O279 C283 1.277 . S
O280 Co256 2.057 . S
O280 C295 1.263 . S
O281 Co268 2.025 1_655 S
O281 C296 1.237 . S
O282 Co262 2.057 . S
O282 C269 1.263 . S
C283 O273 1.221 . S
C283 O279 1.277 . S
C284 C267 1.361 . S
C284 H285 0.960 . S
C284 H286 0.961 . S
C284 H287 0.961 . S
H285 C284 0.960 . S
H286 C284 0.961 . S
H287 C284 0.961 . S
C288 O272 1.221 . S
C288 O276 1.277 . S
C289 O274 1.237 . S
C289 O275 1.278 . S
H290 C258 0.931 . S
H291 C294 0.961 . S
H292 C294 0.961 . S
H293 C294 0.960 . S
C294 C260 1.361 . S
C294 H291 0.961 . S
C294 H292 0.961 . S
C294 H293 0.960 . S
C295 O271 1.253 . S
C295 O280 1.263 . S
C296 O278 1.278 . S
C296 O281 1.237 . S
H297 C261 0.930 . S
H298 C265 0.930 . S
Co299 N300 2.034 . S
Co299 O314 2.262 1_554 S
Co299 O318 1.958 . S
Co299 O322 1.925 1_565 S
Co299 O323 2.057 1_554 S
N300 Co299 2.034 . S
N300 C301 1.366 . S
N300 C303 1.332 . S
C301 N300 1.366 . S
C301 C304 1.377 . S
C301 H333 0.931 . S
N302 C303 1.346 . S
N302 C304 1.337 . S
C303 N300 1.332 . S
C303 N302 1.346 . S
C303 C337 1.361 . S
C304 C301 1.377 . S
C304 N302 1.337 . S
C304 H340 0.930 . S
Co305 N306 2.034 . S
Co305 O319 1.950 . S
Co305 O320 2.262 1_556 S
Co305 O321 1.958 1_545 S
Co305 O325 2.057 1_556 S
N306 Co305 2.034 . S
N306 C309 1.366 . S
N306 C310 1.332 . S
N307 C308 1.337 . S
N307 C310 1.346 . S
C308 N307 1.337 . S
C308 C309 1.377 . S
C308 H341 0.930 . S
C309 N306 1.366 . S
C309 C308 1.377 . S
C309 H313 0.931 . S
C310 N306 1.332 . S
C310 N307 1.346 . S
C310 C327 1.361 . S
Co311 O314 2.121 1_554 S
Co311 O315 2.046 1_564 S
Co311 O316 2.054 1_565 S
Co311 O317 2.060 . S
Co311 O320 2.073 1_565 S
Co311 O324 2.053 1_554 S
C312 O320 1.253 . S
C312 O325 1.263 . S
H313 C309 0.931 . S
O314 Co299 2.262 1_556 S
O314 Co311 2.121 1_556 S
O314 C338 1.253 . S
O315 Co311 2.046 1_546 S
O315 C331 1.221 . S
O316 Co311 2.054 1_545 S
O316 C326 1.221 . S
O317 Co311 2.060 . S
O317 C332 1.237 . S
O318 Co299 1.958 . S
O318 C332 1.278 . S
O319 Co305 1.950 . S
O319 C331 1.277 . S
O320 Co305 2.262 1_554 S
O320 Co311 2.073 1_545 S
O320 C312 1.253 . S
O321 Co305 1.958 1_565 S
O321 C339 1.278 . S
O322 Co299 1.925 1_545 S
O322 C326 1.304 . S
O323 Co299 2.057 1_556 S
O323 C338 1.263 . S
O324 Co311 2.053 1_556 S
O324 C339 1.237 . S
O325 Co305 2.057 1_554 S
O325 C312 1.263 . S
C326 O316 1.221 . S
C326 O322 1.304 . S
C327 C310 1.361 . S
C327 H328 0.960 . S
C327 H329 0.961 . S
C327 H330 0.961 . S
H328 C327 0.960 . S
H329 C327 0.961 . S
H330 C327 0.961 . S
C331 O315 1.221 . S
C331 O319 1.277 . S
C332 O317 1.237 . S
C332 O318 1.278 . S
H333 C301 0.931 . S
H334 C337 0.961 . S
H335 C337 0.961 . S
H336 C337 0.960 . S
C337 C303 1.361 . S
C337 H334 0.961 . S
C337 H335 0.961 . S
C337 H336 0.960 . S
C338 O314 1.253 . S
C338 O323 1.263 . S
C339 O321 1.278 . S
C339 O324 1.237 . S
H340 C304 0.930 . S
H341 C308 0.930 . S
Co342 N343 2.034 . S
Co342 O357 2.262 1_554 S
Co342 O361 1.958 1_455 S
Co342 O365 1.950 . S
Co342 O366 2.057 1_554 S
N343 Co342 2.034 . S
N343 C344 1.366 . S
N343 C346 1.332 . S
C344 N343 1.366 . S
C344 C347 1.377 . S
C344 H376 0.931 . S
N345 C346 1.346 . S
N345 C347 1.337 . S
C346 N343 1.332 . S
C346 N345 1.346 . S
C346 C380 1.361 . S
C347 C344 1.377 . S
C347 N345 1.337 . S
C347 H383 0.930 . S
Co348 N349 2.034 . S
Co348 O362 1.926 1_655 S
Co348 O363 2.262 1_556 S
Co348 O364 1.958 . S
Co348 O368 2.057 1_556 S
N349 Co348 2.034 . S
N349 C352 1.366 . S
N349 C353 1.332 . S
N350 C351 1.337 . S
N350 C353 1.346 . S
C351 N350 1.337 . S
C351 C352 1.377 . S
C351 H384 0.930 . S
C352 N349 1.366 . S
C352 C351 1.377 . S
C352 H356 0.931 . S
C353 N349 1.332 . S
C353 N350 1.346 . S
C353 C370 1.361 . S
Co354 O357 2.073 1_654 S
Co354 O358 2.053 1_654 S
Co354 O359 2.046 1_655 S
Co354 O360 2.054 . S
Co354 O363 2.122 . S
Co354 O367 2.061 1_554 S
C355 O363 1.253 . S
C355 O368 1.263 . S
H356 C352 0.931 . S
O357 Co342 2.262 1_556 S
O357 Co354 2.073 1_456 S
O357 C381 1.253 . S
O358 Co354 2.053 1_456 S
O358 C374 1.221 . S
O359 Co354 2.046 1_455 S
O359 C369 1.221 . S
O360 Co354 2.054 . S
O360 C375 1.237 . S
O361 Co342 1.958 1_655 S
O361 C375 1.278 . S
O362 Co348 1.926 1_455 S
O362 C374 1.303 . S
O363 Co348 2.262 1_554 S
O363 Co354 2.122 . S
O363 C355 1.253 . S
O364 Co348 1.958 . S
O364 C382 1.278 . S
O365 Co342 1.950 . S
O365 C369 1.277 . S
O366 Co342 2.057 1_556 S
O366 C381 1.263 . S
O367 Co354 2.061 1_556 S
O367 C382 1.237 . S
O368 Co348 2.057 1_554 S
O368 C355 1.263 . S
C369 O359 1.221 . S
C369 O365 1.277 . S
C370 C353 1.361 . S
C370 H371 0.960 . S
C370 H372 0.961 . S
C370 H373 0.961 . S
H371 C370 0.960 . S
H372 C370 0.961 . S
H373 C370 0.961 . S
C374 O358 1.221 . S
C374 O362 1.303 . S
C375 O360 1.237 . S
C375 O361 1.278 . S
H376 C344 0.931 . S
H377 C380 0.961 . S
H378 C380 0.961 . S
H379 C380 0.960 . S
C380 C346 1.361 . S
C380 H377 0.961 . S
C380 H378 0.961 . S
C380 H379 0.960 . S
C381 O357 1.253 . S
C381 O366 1.263 . S
C382 O364 1.278 . S
C382 O367 1.237 . S
H383 C347 0.930 . S
H384 C351 0.930 . S
Co385 N386 2.034 . S
Co385 O400 2.262 1_554 S
Co385 O404 1.958 . S
Co385 O408 1.950 . S
Co385 O409 2.057 1_554 S
N386 Co385 2.034 . S
N386 C387 1.366 . S
N386 C389 1.332 . S
C387 N386 1.366 . S
C387 C390 1.377 . S
C387 H419 0.931 . S
N388 C389 1.346 . S
N388 C390 1.337 . S
C389 N386 1.332 . S
C389 N388 1.346 . S
C389 C423 1.361 . S
C390 C387 1.377 . S
C390 N388 1.337 . S
C390 H426 0.930 . S
Co391 N392 2.034 . S
Co391 O405 1.950 . S
Co391 O406 2.262 1_556 S
Co391 O407 1.958 . S
Co391 O411 2.057 1_556 S
N392 Co391 2.034 . S
N392 C395 1.366 . S
N392 C396 1.332 . S
N393 C394 1.337 . S
N393 C396 1.346 . S
C394 N393 1.337 . S
C394 C395 1.377 . S
C394 H427 0.930 . S
C395 N392 1.366 . S
C395 C394 1.377 . S
C395 H399 0.931 . S
C396 N392 1.332 . S
C396 N393 1.346 . S
C396 C413 1.361 . S
Co397 O400 2.097 1_554 S
Co397 O401 2.065 1_554 S
Co397 O402 2.065 . S
Co397 O403 2.042 . S
Co397 O406 2.097 . S
Co397 O410 2.042 1_554 S
C398 O406 1.253 . S
C398 O411 1.263 . S
H399 C395 0.931 . S
O400 Co385 2.262 1_556 S
O400 Co397 2.097 1_556 S
O400 C424 1.253 . S
O401 Co397 2.065 1_556 S
O401 C417 1.221 . S
O402 Co397 2.065 . S
O402 C412 1.221 . S
O403 Co397 2.042 . S
O403 C418 1.237 . S
O404 Co385 1.958 . S
O404 C418 1.278 . S
O405 Co391 1.950 . S
O405 C417 1.277 . S
O406 Co391 2.262 1_554 S
O406 Co397 2.097 . S
O406 C398 1.253 . S
O407 Co391 1.958 . S
O407 C425 1.278 . S
O408 Co385 1.950 . S
O408 C412 1.277 . S
O409 Co385 2.057 1_556 S
O409 C424 1.263 . S
O410 Co397 2.042 1_556 S
O410 C425 1.237 . S
O411 Co391 2.057 1_554 S
O411 C398 1.263 . S
C412 O402 1.221 . S
C412 O408 1.277 . S
C413 C396 1.361 . S
C413 H414 0.960 . S
C413 H415 0.961 . S
C413 H416 0.961 . S
H414 C413 0.960 . S
H415 C413 0.961 . S
H416 C413 0.961 . S
C417 O401 1.221 . S
C417 O405 1.277 . S
C418 O403 1.237 . S
C418 O404 1.278 . S
H419 C387 0.931 . S
H420 C423 0.961 . S
H421 C423 0.961 . S
H422 C423 0.960 . S
C423 C389 1.361 . S
C423 H420 0.961 . S
C423 H421 0.961 . S
C423 H422 0.960 . S
C424 O400 1.253 . S
C424 O409 1.263 . S
C425 O407 1.278 . S
C425 O410 1.237 . S
H426 C390 0.930 . S
H427 C394 0.930 . S
Co428 N429 2.034 . S
Co428 O443 2.262 . S
Co428 O447 1.958 1_455 S
Co428 O451 1.950 . S
Co428 O452 2.057 . S
N429 Co428 2.034 . S
N429 C430 1.366 . S
N429 C432 1.332 . S
C430 N429 1.366 . S
C430 C433 1.377 . S
C430 H462 0.931 . S
N431 C432 1.346 . S
N431 C433 1.337 . S
C432 N429 1.332 . S
C432 N431 1.346 . S
C432 C466 1.361 . S
C433 C430 1.377 . S
C433 N431 1.337 . S
C433 H469 0.930 . S
Co434 N435 2.034 . S
Co434 O448 1.938 1_655 S
Co434 O449 2.262 . S
Co434 O450 1.958 . S
Co434 O454 2.057 . S
N435 Co434 2.034 . S
N435 C438 1.366 . S
N435 C439 1.332 . S
N436 C437 1.337 . S
N436 C439 1.346 . S
C437 N436 1.337 . S
C437 C438 1.377 . S
C437 H470 0.930 . S
C438 N435 1.366 . S
C438 C437 1.377 . S
C438 H442 0.931 . S
C439 N435 1.332 . S
C439 N436 1.346 . S
C439 C456 1.361 . S
Co440 O443 2.097 1_655 S
Co440 O444 2.065 1_655 S
Co440 O445 2.065 1_655 S
Co440 O446 2.042 . S
Co440 O449 2.097 . S
Co440 O453 2.042 . S
C441 O449 1.253 . S
C441 O454 1.263 . S
H442 C438 0.931 . S
O443 Co428 2.262 . S
O443 Co440 2.097 1_455 S
O443 C467 1.253 . S
O444 Co440 2.065 1_455 S
O444 C460 1.221 . S
O445 Co440 2.065 1_455 S
O445 C455 1.221 . S
O446 Co440 2.042 . S
O446 C461 1.237 . S
O447 Co428 1.958 1_655 S
O447 C461 1.278 . S
O448 Co434 1.938 1_455 S
O448 C460 1.291 . S
O449 Co434 2.262 . S
O449 Co440 2.097 . S
O449 C441 1.253 . S
O450 Co434 1.958 . S
O450 C468 1.278 . S
O451 Co428 1.950 . S
O451 C455 1.277 . S
O452 Co428 2.057 . S
O452 C467 1.263 . S
O453 Co440 2.042 . S
O453 C468 1.237 . S
O454 Co434 2.057 . S
O454 C441 1.263 . S
C455 O445 1.221 . S
C455 O451 1.277 . S
C456 C439 1.361 . S
C456 H457 0.960 . S
C456 H458 0.961 . S
C456 H459 0.961 . S
H457 C456 0.960 . S
H458 C456 0.961 . S
H459 C456 0.961 . S
C460 O444 1.221 . S
C460 O448 1.291 . S
C461 O446 1.237 . S
C461 O447 1.278 . S
H462 C430 0.931 . S
H463 C466 0.961 . S
H464 C466 0.961 . S
H465 C466 0.960 . S
C466 C432 1.361 . S
C466 H463 0.961 . S
C466 H464 0.961 . S
C466 H465 0.960 . S
C467 O443 1.253 . S
C467 O452 1.263 . S
C468 O450 1.278 . S
C468 O453 1.237 . S
H469 C433 0.930 . S
H470 C437 0.930 . S
Co471 N472 2.034 . S
Co471 O486 2.262 . S
Co471 O490 1.958 . S
Co471 O494 1.950 1_565 S
Co471 O495 2.057 . S
N472 Co471 2.034 . S
N472 C473 1.366 . S
N472 C475 1.332 . S
C473 N472 1.366 . S
C473 C476 1.377 . S
C473 H505 0.931 . S
N474 C475 1.346 . S
N474 C476 1.337 . S
C475 N472 1.332 . S
C475 N474 1.346 . S
C475 C509 1.361 . S
C476 C473 1.377 . S
C476 N474 1.337 . S
C476 H512 0.930 . S
Co477 N478 2.034 . S
Co477 O491 1.950 . S
Co477 O492 2.262 . S
Co477 O493 1.958 1_545 S
Co477 O497 2.057 . S
N478 Co477 2.034 . S
N478 C481 1.366 . S
N478 C482 1.332 . S
N479 C480 1.337 . S
N479 C482 1.346 . S
C480 N479 1.337 . S
C480 C481 1.377 . S
C480 H513 0.930 . S
C481 N478 1.366 . S
C481 C480 1.377 . S
C481 H485 0.931 . S
C482 N478 1.332 . S
C482 N479 1.346 . S
C482 C499 1.361 . S
Co483 O486 2.101 . S
Co483 O487 2.062 1_565 S
Co483 O488 2.063 1_565 S
Co483 O489 2.045 . S
Co483 O492 2.093 1_565 S
Co483 O496 2.044 . S
C484 O492 1.253 . S
C484 O497 1.263 . S
H485 C481 0.931 . S
O486 Co471 2.262 . S
O486 Co483 2.101 . S
O486 C510 1.253 . S
O487 Co483 2.062 1_545 S
O487 C503 1.221 . S
O488 Co483 2.063 1_545 S
O488 C498 1.221 . S
O489 Co483 2.045 . S
O489 C504 1.237 . S
O490 Co471 1.958 . S
O490 C504 1.278 . S
O491 Co477 1.950 . S
O491 C503 1.277 . S
O492 Co477 2.262 . S
O492 Co483 2.093 1_545 S
O492 C484 1.253 . S
O493 Co477 1.958 1_565 S
O493 C511 1.278 . S
O494 Co471 1.950 1_545 S
O494 C498 1.277 . S
O495 Co471 2.057 . S
O495 C510 1.263 . S
O496 Co483 2.044 . S
O496 C511 1.237 . S
O497 Co477 2.057 . S
O497 C484 1.263 . S
C498 O488 1.221 . S
C498 O494 1.277 . S
C499 C482 1.361 . S
C499 H500 0.960 . S
C499 H501 0.961 . S
C499 H502 0.961 . S
H500 C499 0.960 . S
H501 C499 0.961 . S
H502 C499 0.961 . S
C503 O487 1.221 . S
C503 O491 1.277 . S
C504 O489 1.237 . S
C504 O490 1.278 . S
H505 C473 0.931 . S
H506 C509 0.961 . S
H507 C509 0.961 . S
H508 C509 0.960 . S
C509 C475 1.361 . S
C509 H506 0.961 . S
C509 H507 0.961 . S
C509 H508 0.960 . S
C510 O486 1.253 . S
C510 O495 1.263 . S
C511 O493 1.278 . S
C511 O496 1.237 . S
H512 C476 0.930 . S
H513 C480 0.930 . S
H514 C522 0.950 . S
H515 C527 0.950 . S
H516 C524 0.950 . S
H517 C526 0.950 . S
H518 C528 0.950 . S
H519 C530 0.950 . S
H520 C532 0.950 . S
H521 C533 0.950 . S
C522 H514 0.950 . S
C522 C523 1.386 . S
C522 C524 1.391 . S
C523 C522 1.386 . S
C523 C527 1.393 . S
C524 H516 0.950 . S
C524 C522 1.391 . S
C524 C525 1.400 . S
C525 C524 1.400 . S
C525 C526 1.398 . S
C525 C531 1.491 . S
C526 H517 0.950 . S
C526 C525 1.398 . S
C526 C527 1.391 . S
C527 H515 0.950 . S
C527 C523 1.393 . S
C527 C526 1.391 . S
C528 H518 0.950 . S
C528 C529 1.386 . S
C528 C530 1.391 . S
C529 C528 1.386 . S
C529 C533 1.393 . S
C530 H519 0.950 . S
C530 C528 1.391 . S
C530 C531 1.400 . S
C531 C525 1.491 . S
C531 C530 1.400 . S
C531 C532 1.398 . S
C532 H520 0.950 . S
C532 C531 1.398 . S
C532 C533 1.391 . S
C533 H521 0.950 . S
C533 C529 1.393 . S
C533 C532 1.391 . S
H534 C542 0.950 . S
H535 C547 0.950 . S
H536 C544 0.950 . S
H537 C546 0.950 . S
H538 C548 0.950 . S
H539 C550 0.950 . S
H540 C552 0.950 . S
H541 C553 0.950 . S
C542 H534 0.950 . S
C542 C543 1.386 . S
C542 C544 1.391 . S
C543 C542 1.386 . S
C543 C547 1.393 . S
C544 H536 0.950 . S
C544 C542 1.391 . S
C544 C545 1.400 . S
C545 C544 1.400 . S
C545 C546 1.398 . S
C545 C551 1.491 . S
C546 H537 0.950 . S
C546 C545 1.398 . S
C546 C547 1.391 . S
C547 H535 0.950 . S
C547 C543 1.393 . S
C547 C546 1.391 . S
C548 H538 0.950 . S
C548 C549 1.386 . S
C548 C550 1.391 . S
C549 C548 1.386 . S
C549 C553 1.393 . S
C550 H539 0.950 . S
C550 C548 1.391 . S
C550 C551 1.400 . S
C551 C545 1.491 . S
C551 C550 1.400 . S
C551 C552 1.398 . S
C552 H540 0.950 . S
C552 C551 1.398 . S
C552 C553 1.391 . S
C553 H541 0.950 . S
C553 C549 1.393 . S
C553 C552 1.391 . S
H554 C562 0.950 . S
H555 C567 0.950 . S
H556 C564 0.950 . S
H557 C566 0.950 . S
H558 C568 0.950 . S
H559 C570 0.950 . S
H560 C572 0.950 . S
H561 C573 0.950 . S
C562 H554 0.950 . S
C562 C563 1.386 . S
C562 C564 1.391 . S
C563 C562 1.386 . S
C563 C567 1.393 . S
C564 H556 0.950 . S
C564 C562 1.391 . S
C564 C565 1.400 . S
C565 C564 1.400 . S
C565 C566 1.398 . S
C565 C571 1.491 . S
C566 H557 0.950 . S
C566 C565 1.398 . S
C566 C567 1.391 . S
C567 H555 0.950 . S
C567 C563 1.393 . S
C567 C566 1.391 . S
C568 H558 0.950 . S
C568 C569 1.386 . S
C568 C570 1.391 . S
C569 C568 1.386 . S
C569 C573 1.393 . S
C570 H559 0.950 . S
C570 C568 1.391 . S
C570 C571 1.400 . S
C571 C565 1.491 . S
C571 C570 1.400 . S
C571 C572 1.398 . S
C572 H560 0.950 . S
C572 C571 1.398 . S
C572 C573 1.391 . S
C573 H561 0.950 . S
C573 C569 1.393 . S
C573 C572 1.391 . S
H574 C582 0.950 . S
H575 C587 0.950 . S
H576 C584 0.950 . S
H577 C586 0.950 . S
H578 C588 0.950 . S
H579 C590 0.950 . S
H580 C592 0.950 . S
H581 C593 0.950 . S
C582 H574 0.950 . S
C582 C583 1.386 . S
C582 C584 1.391 . S
C583 C582 1.386 . S
C583 C587 1.393 . S
C584 H576 0.950 . S
C584 C582 1.391 . S
C584 C585 1.400 . S
C585 C584 1.400 . S
C585 C586 1.398 . S
C585 C591 1.491 . S
C586 H577 0.950 . S
C586 C585 1.398 . S
C586 C587 1.391 . S
C587 H575 0.950 . S
C587 C583 1.393 . S
C587 C586 1.391 . S
C588 H578 0.950 . S
C588 C589 1.386 . S
C588 C590 1.391 . S
C589 C588 1.386 . S
C589 C593 1.393 . S
C590 H579 0.950 . S
C590 C588 1.391 . S
C590 C591 1.400 . S
C591 C585 1.491 . S
C591 C590 1.400 . S
C591 C592 1.398 . S
C592 H580 0.950 . S
C592 C591 1.398 . S
C592 C593 1.391 . S
C593 H581 0.950 . S
C593 C589 1.393 . S
C593 C592 1.391 . S
H594 C602 0.950 . S
H595 C607 0.950 . S
H596 C604 0.950 . S
H597 C606 0.950 . S
H598 C608 0.950 . S
H599 C610 0.950 . S
H600 C612 0.950 . S
H601 C613 0.950 . S
C602 H594 0.950 . S
C602 C603 1.386 . S
C602 C604 1.391 . S
C603 C602 1.386 . S
C603 C607 1.393 . S
C604 H596 0.950 . S
C604 C602 1.391 . S
C604 C605 1.400 . S
C605 C604 1.400 . S
C605 C606 1.398 . S
C605 C611 1.491 . S
C606 H597 0.950 . S
C606 C605 1.398 . S
C606 C607 1.391 . S
C607 H595 0.950 . S
C607 C603 1.393 . S
C607 C606 1.391 . S
C608 H598 0.950 . S
C608 C609 1.386 . S
C608 C610 1.391 . S
C609 C608 1.386 . S
C609 C613 1.393 . S
C610 H599 0.950 . S
C610 C608 1.391 . S
C610 C611 1.400 . S
C611 C605 1.491 . S
C611 C610 1.400 . S
C611 C612 1.398 . S
C612 H600 0.950 . S
C612 C611 1.398 . S
C612 C613 1.391 . S
C613 H601 0.950 . S
C613 C609 1.393 . S
C613 C612 1.391 . S
H614 C622 0.950 . S
H615 C627 0.950 . S
H616 C624 0.950 . S
H617 C626 0.950 . S
H618 C628 0.950 . S
H619 C630 0.950 . S
H620 C632 0.950 . S
H621 C633 0.950 . S
C622 H614 0.950 . S
C622 C623 1.386 . S
C622 C624 1.391 . S
C623 C622 1.386 . S
C623 C627 1.393 . S
C624 H616 0.950 . S
C624 C622 1.391 . S
C624 C625 1.400 . S
C625 C624 1.400 . S
C625 C626 1.398 . S
C625 C631 1.491 . S
C626 H617 0.950 . S
C626 C625 1.398 . S
C626 C627 1.391 . S
C627 H615 0.950 . S
C627 C623 1.393 . S
C627 C626 1.391 . S
C628 H618 0.950 . S
C628 C629 1.386 . S
C628 C630 1.391 . S
C629 C628 1.386 . S
C629 C633 1.393 . S
C630 H619 0.950 . S
C630 C628 1.391 . S
C630 C631 1.400 . S
C631 C625 1.491 . S
C631 C630 1.400 . S
C631 C632 1.398 . S
C632 H620 0.950 . S
C632 C631 1.398 . S
C632 C633 1.391 . S
C633 H621 0.950 . S
C633 C629 1.393 . S
C633 C632 1.391 . S
H634 C642 0.950 . S
H635 C647 0.950 . S
H636 C644 0.950 . S
H637 C646 0.950 . S
H638 C648 0.950 . S
H639 C650 0.950 . S
H640 C652 0.950 . S
H641 C653 0.950 . S
C642 H634 0.950 . S
C642 C643 1.386 . S
C642 C644 1.391 . S
C643 C642 1.386 . S
C643 C647 1.393 . S
C644 H636 0.950 . S
C644 C642 1.391 . S
C644 C645 1.400 . S
C645 C644 1.400 . S
C645 C646 1.398 . S
C645 C651 1.491 . S
C646 H637 0.950 . S
C646 C645 1.398 . S
C646 C647 1.391 . S
C647 H635 0.950 . S
C647 C643 1.393 . S
C647 C646 1.391 . S
C648 H638 0.950 . S
C648 C649 1.386 . S
C648 C650 1.391 . S
C649 C648 1.386 . S
C649 C653 1.393 . S
C650 H639 0.950 . S
C650 C648 1.391 . S
C650 C651 1.400 . S
C651 C645 1.491 . S
C651 C650 1.400 . S
C651 C652 1.398 . S
C652 H640 0.950 . S
C652 C651 1.398 . S
C652 C653 1.391 . S
C653 H641 0.950 . S
C653 C649 1.393 . S
C653 C652 1.391 . S
H654 C662 0.950 . S
H655 C667 0.950 . S
H656 C664 0.950 . S
H657 C666 0.950 . S
H658 C668 0.950 . S
H659 C670 0.950 . S
H660 C672 0.950 . S
H661 C673 0.950 . S
C662 H654 0.950 . S
C662 C663 1.386 . S
C662 C664 1.391 . S
C663 C662 1.386 . S
C663 C667 1.393 . S
C664 H656 0.950 . S
C664 C662 1.391 . S
C664 C665 1.400 . S
C665 C664 1.400 . S
C665 C666 1.398 . S
C665 C671 1.491 . S
C666 H657 0.950 . S
C666 C665 1.398 . S
C666 C667 1.391 . S
C667 H655 0.950 . S
C667 C663 1.393 . S
C667 C666 1.391 . S
C668 H658 0.950 . S
C668 C669 1.386 . S
C668 C670 1.391 . S
C669 C668 1.386 . S
C669 C673 1.393 . S
C670 H659 0.950 . S
C670 C668 1.391 . S
C670 C671 1.400 . S
C671 C665 1.491 . S
C671 C670 1.400 . S
C671 C672 1.398 . S
C672 H660 0.950 . S
C672 C671 1.398 . S
C672 C673 1.391 . S
C673 H661 0.950 . S
C673 C669 1.393 . S
C673 C672 1.391 . S
H674 C682 0.950 . S
H675 C687 0.950 . S
H676 C684 0.950 . S
H677 C686 0.950 . S
H678 C688 0.950 . S
H679 C690 0.950 . S
H680 C692 0.950 . S
H681 C693 0.950 . S
C682 H674 0.950 . S
C682 C683 1.386 . S
C682 C684 1.391 . S
C683 C682 1.386 . S
C683 C687 1.393 . S
C684 H676 0.950 . S
C684 C682 1.391 . S
C684 C685 1.400 . S
C685 C684 1.400 . S
C685 C686 1.398 . S
C685 C691 1.491 . S
C686 H677 0.950 . S
C686 C685 1.398 . S
C686 C687 1.391 . S
C687 H675 0.950 . S
C687 C683 1.393 . S
C687 C686 1.391 . S
C688 H678 0.950 . S
C688 C689 1.386 . S
C688 C690 1.391 . S
C689 C688 1.386 . S
C689 C693 1.393 . S
C690 H679 0.950 . S
C690 C688 1.391 . S
C690 C691 1.400 . S
C691 C685 1.491 . S
C691 C690 1.400 . S
C691 C692 1.398 . S
C692 H680 0.950 . S
C692 C691 1.398 . S
C692 C693 1.391 . S
C693 H681 0.950 . S
C693 C689 1.393 . S
C693 C692 1.391 . S
H694 C702 0.950 . S
H695 C707 0.950 . S
H696 C704 0.950 . S
H697 C706 0.950 . S
H698 C708 0.950 . S
H699 C710 0.950 . S
H700 C712 0.950 . S
H701 C713 0.950 . S
C702 H694 0.950 . S
C702 C703 1.386 . S
C702 C704 1.391 . S
C703 C702 1.386 . S
C703 C707 1.393 . S
C704 H696 0.950 . S
C704 C702 1.391 . S
C704 C705 1.400 . S
C705 C704 1.400 . S
C705 C706 1.398 . S
C705 C711 1.491 . S
C706 H697 0.950 . S
C706 C705 1.398 . S
C706 C707 1.391 . S
C707 H695 0.950 . S
C707 C703 1.393 . S
C707 C706 1.391 . S
C708 H698 0.950 . S
C708 C709 1.386 . S
C708 C710 1.391 . S
C709 C708 1.386 . S
C709 C713 1.393 . S
C710 H699 0.950 . S
C710 C708 1.391 . S
C710 C711 1.400 . S
C711 C705 1.491 . S
C711 C710 1.400 . S
C711 C712 1.398 . S
C712 H700 0.950 . S
C712 C711 1.398 . S
C712 C713 1.391 . S
C713 H701 0.950 . S
C713 C709 1.393 . S
C713 C712 1.391 . S
H714 C722 0.950 . S
H715 C727 0.950 . S
H716 C724 0.950 . S
H717 C726 0.950 . S
H718 C728 0.950 . S
H719 C730 0.950 . S
H720 C732 0.950 . S
H721 C733 0.950 . S
C722 H714 0.950 . S
C722 C723 1.386 . S
C722 C724 1.391 . S
C723 C722 1.386 . S
C723 C727 1.393 . S
C724 H716 0.950 . S
C724 C722 1.391 . S
C724 C725 1.400 . S
C725 C724 1.400 . S
C725 C726 1.398 . S
C725 C731 1.491 . S
C726 H717 0.950 . S
C726 C725 1.398 . S
C726 C727 1.391 . S
C727 H715 0.950 . S
C727 C723 1.393 . S
C727 C726 1.391 . S
C728 H718 0.950 . S
C728 C729 1.386 . S
C728 C730 1.391 . S
C729 C728 1.386 . S
C729 C733 1.393 . S
C730 H719 0.950 . S
C730 C728 1.391 . S
C730 C731 1.400 . S
C731 C725 1.491 . S
C731 C730 1.400 . S
C731 C732 1.398 . S
C732 H720 0.950 . S
C732 C731 1.398 . S
C732 C733 1.391 . S
C733 H721 0.950 . S
C733 C729 1.393 . S
C733 C732 1.391 . S
H734 C742 0.950 . S
H735 C747 0.950 . S
H736 C744 0.950 . S
H737 C746 0.950 . S
H738 C748 0.950 . S
H739 C750 0.950 . S
H740 C752 0.950 . S
H741 C753 0.950 . S
C742 H734 0.950 . S
C742 C743 1.386 . S
C742 C744 1.391 . S
C743 C742 1.386 . S
C743 C747 1.393 . S
C744 H736 0.950 . S
C744 C742 1.391 . S
C744 C745 1.400 . S
C745 C744 1.400 . S
C745 C746 1.398 . S
C745 C751 1.491 . S
C746 H737 0.950 . S
C746 C745 1.398 . S
C746 C747 1.391 . S
C747 H735 0.950 . S
C747 C743 1.393 . S
C747 C746 1.391 . S
C748 H738 0.950 . S
C748 C749 1.386 . S
C748 C750 1.391 . S
C749 C748 1.386 . S
C749 C753 1.393 . S
C750 H739 0.950 . S
C750 C748 1.391 . S
C750 C751 1.400 . S
C751 C745 1.491 . S
C751 C750 1.400 . S
C751 C752 1.398 . S
C752 H740 0.950 . S
C752 C751 1.398 . S
C752 C753 1.391 . S
C753 H741 0.950 . S
C753 C749 1.393 . S
C753 C752 1.391 . S
H754 C762 0.950 . S
H755 C767 0.950 . S
H756 C764 0.950 . S
H757 C766 0.950 . S
H758 C768 0.950 . S
H759 C770 0.950 . S
H760 C772 0.950 . S
H761 C773 0.950 . S
C762 H754 0.950 . S
C762 C763 1.386 . S
C762 C764 1.391 . S
C763 C762 1.386 . S
C763 C767 1.393 . S
C764 H756 0.950 . S
C764 C762 1.391 . S
C764 C765 1.400 . S
C765 C764 1.400 . S
C765 C766 1.398 . S
C765 C771 1.491 . S
C766 H757 0.950 . S
C766 C765 1.398 . S
C766 C767 1.391 . S
C767 H755 0.950 . S
C767 C763 1.393 . S
C767 C766 1.391 . S
C768 H758 0.950 . S
C768 C769 1.386 . S
C768 C770 1.391 . S
C769 C768 1.386 . S
C769 C773 1.393 . S
C770 H759 0.950 . S
C770 C768 1.391 . S
C770 C771 1.400 . S
C771 C765 1.491 . S
C771 C770 1.400 . S
C771 C772 1.398 . S
C772 H760 0.950 . S
C772 C771 1.398 . S
C772 C773 1.391 . S
C773 H761 0.950 . S
C773 C769 1.393 . S
C773 C772 1.391 . S
H774 C782 0.950 . S
H775 C787 0.950 . S
H776 C784 0.950 . S
H777 C786 0.950 . S
H778 C788 0.950 . S
H779 C790 0.950 . S
H780 C792 0.950 . S
H781 C793 0.950 . S
C782 H774 0.950 . S
C782 C783 1.386 . S
C782 C784 1.391 . S
C783 C782 1.386 . S
C783 C787 1.393 . S
C784 H776 0.950 . S
C784 C782 1.391 . S
C784 C785 1.400 . S
C785 C784 1.400 . S
C785 C786 1.398 . S
C785 C791 1.491 . S
C786 H777 0.950 . S
C786 C785 1.398 . S
C786 C787 1.391 . S
C787 H775 0.950 . S
C787 C783 1.393 . S
C787 C786 1.391 . S
C788 H778 0.950 . S
C788 C789 1.386 . S
C788 C790 1.391 . S
C789 C788 1.386 . S
C789 C793 1.393 . S
C790 H779 0.950 . S
C790 C788 1.391 . S
C790 C791 1.400 . S
C791 C785 1.491 . S
C791 C790 1.400 . S
C791 C792 1.398 . S
C792 H780 0.950 . S
C792 C791 1.398 . S
C792 C793 1.391 . S
C793 H781 0.950 . S
C793 C789 1.393 . S
C793 C792 1.391 . S
H794 C802 0.950 . S
H795 C807 0.950 . S
H796 C804 0.950 . S
H797 C806 0.950 . S
H798 C808 0.950 . S
H799 C810 0.950 . S
H800 C812 0.950 . S
H801 C813 0.950 . S
C802 H794 0.950 . S
C802 C803 1.386 . S
C802 C804 1.391 . S
C803 C802 1.386 . S
C803 C807 1.393 . S
C804 H796 0.950 . S
C804 C802 1.391 . S
C804 C805 1.400 . S
C805 C804 1.400 . S
C805 C806 1.398 . S
C805 C811 1.491 . S
C806 H797 0.950 . S
C806 C805 1.398 . S
C806 C807 1.391 . S
C807 H795 0.950 . S
C807 C803 1.393 . S
C807 C806 1.391 . S
C808 H798 0.950 . S
C808 C809 1.386 . S
C808 C810 1.391 . S
C809 C808 1.386 . S
C809 C813 1.393 . S
C810 H799 0.950 . S
C810 C808 1.391 . S
C810 C811 1.400 . S
C811 C805 1.491 . S
C811 C810 1.400 . S
C811 C812 1.398 . S
C812 H800 0.950 . S
C812 C811 1.398 . S
C812 C813 1.391 . S
C813 H801 0.950 . S
C813 C809 1.393 . S
C813 C812 1.391 . S
H814 C822 0.950 . S
H815 C827 0.950 . S
H816 C824 0.950 . S
H817 C826 0.950 . S
H818 C828 0.950 . S
H819 C830 0.950 . S
H820 C832 0.950 . S
H821 C833 0.950 . S
C822 H814 0.950 . S
C822 C823 1.386 . S
C822 C824 1.391 . S
C823 C822 1.386 . S
C823 C827 1.393 . S
C824 H816 0.950 . S
C824 C822 1.391 . S
C824 C825 1.400 . S
C825 C824 1.400 . S
C825 C826 1.398 . S
C825 C831 1.491 . S
C826 H817 0.950 . S
C826 C825 1.398 . S
C826 C827 1.391 . S
C827 H815 0.950 . S
C827 C823 1.393 . S
C827 C826 1.391 . S
C828 H818 0.950 . S
C828 C829 1.386 . S
C828 C830 1.391 . S
C829 C828 1.386 . S
C829 C833 1.393 . S
C830 H819 0.950 . S
C830 C828 1.391 . S
C830 C831 1.400 . S
C831 C825 1.491 . S
C831 C830 1.400 . S
C831 C832 1.398 . S
C832 H820 0.950 . S
C832 C831 1.398 . S
C832 C833 1.391 . S
C833 H821 0.950 . S
C833 C829 1.393 . S
C833 C832 1.391 . S
H834 C842 0.950 . S
H835 C847 0.950 . S
H836 C844 0.950 . S
H837 C846 0.950 . S
H838 C848 0.950 . S
H839 C850 0.950 . S
H840 C852 0.950 . S
H841 C853 0.950 . S
C842 H834 0.950 . S
C842 C843 1.386 . S
C842 C844 1.391 . S
C843 C842 1.386 . S
C843 C847 1.393 . S
C844 H836 0.950 . S
C844 C842 1.391 . S
C844 C845 1.400 . S
C845 C844 1.400 . S
C845 C846 1.398 . S
C845 C851 1.491 . S
C846 H837 0.950 . S
C846 C845 1.398 . S
C846 C847 1.391 . S
C847 H835 0.950 . S
C847 C843 1.393 . S
C847 C846 1.391 . S
C848 H838 0.950 . S
C848 C849 1.386 . S
C848 C850 1.391 . S
C849 C848 1.386 . S
C849 C853 1.393 . S
C850 H839 0.950 . S
C850 C848 1.391 . S
C850 C851 1.400 . S
C851 C845 1.491 . S
C851 C850 1.400 . S
C851 C852 1.398 . S
C852 H840 0.950 . S
C852 C851 1.398 . S
C852 C853 1.391 . S
C853 H841 0.950 . S
C853 C849 1.393 . S
C853 C852 1.391 . S
H854 C862 0.950 . S
H855 C867 0.950 . S
H856 C864 0.950 . S
H857 C866 0.950 . S
H858 C868 0.950 . S
H859 C870 0.950 . S
H860 C872 0.950 . S
H861 C873 0.950 . S
C862 H854 0.950 . S
C862 C863 1.386 . S
C862 C864 1.391 . S
C863 C862 1.386 . S
C863 C867 1.393 . S
C864 H856 0.950 . S
C864 C862 1.391 . S
C864 C865 1.400 . S
C865 C864 1.400 . S
C865 C866 1.398 . S
C865 C871 1.491 . S
C866 H857 0.950 . S
C866 C865 1.398 . S
C866 C867 1.391 . S
C867 H855 0.950 . S
C867 C863 1.393 . S
C867 C866 1.391 . S
C868 H858 0.950 . S
C868 C869 1.386 . S
C868 C870 1.391 . S
C869 C868 1.386 . S
C869 C873 1.393 . S
C870 H859 0.950 . S
C870 C868 1.391 . S
C870 C871 1.400 . S
C871 C865 1.491 . S
C871 C870 1.400 . S
C871 C872 1.398 . S
C872 H860 0.950 . S
C872 C871 1.398 . S
C872 C873 1.391 . S
C873 H861 0.950 . S
C873 C869 1.393 . S
C873 C872 1.391 . S
H874 C882 0.950 . S
H875 C887 0.950 . S
H876 C884 0.950 . S
H877 C886 0.950 . S
H878 C888 0.950 . S
H879 C890 0.950 . S
H880 C892 0.950 . S
H881 C893 0.950 . S
C882 H874 0.950 . S
C882 C883 1.386 . S
C882 C884 1.391 . S
C883 C882 1.386 . S
C883 C887 1.393 . S
C884 H876 0.950 . S
C884 C882 1.391 . S
C884 C885 1.400 . S
C885 C884 1.400 . S
C885 C886 1.398 . S
C885 C891 1.491 . S
C886 H877 0.950 . S
C886 C885 1.398 . S
C886 C887 1.391 . S
C887 H875 0.950 . S
C887 C883 1.393 . S
C887 C886 1.391 . S
C888 H878 0.950 . S
C888 C889 1.386 . S
C888 C890 1.391 . S
C889 C888 1.386 . S
C889 C893 1.393 . S
C890 H879 0.950 . S
C890 C888 1.391 . S
C890 C891 1.400 . S
C891 C885 1.491 . S
C891 C890 1.400 . S
C891 C892 1.398 . S
C892 H880 0.950 . S
C892 C891 1.398 . S
C892 C893 1.391 . S
C893 H881 0.950 . S
C893 C889 1.393 . S
C893 C892 1.391 . S
H894 C902 0.950 . S
H895 C907 0.950 . S
H896 C904 0.950 . S
H897 C906 0.950 . S
H898 C908 0.950 . S
H899 C910 0.950 . S
H900 C912 0.950 . S
H901 C913 0.950 . S
C902 H894 0.950 . S
C902 C903 1.386 . S
C902 C904 1.391 . S
C903 C902 1.386 . S
C903 C907 1.393 . S
C904 H896 0.950 . S
C904 C902 1.391 . S
C904 C905 1.400 . S
C905 C904 1.400 . S
C905 C906 1.398 . S
C905 C911 1.491 . S
C906 H897 0.950 . S
C906 C905 1.398 . S
C906 C907 1.391 . S
C907 H895 0.950 . S
C907 C903 1.393 . S
C907 C906 1.391 . S
C908 H898 0.950 . S
C908 C909 1.386 . S
C908 C910 1.391 . S
C909 C908 1.386 . S
C909 C913 1.393 . S
C910 H899 0.950 . S
C910 C908 1.391 . S
C910 C911 1.400 . S
C911 C905 1.491 . S
C911 C910 1.400 . S
C911 C912 1.398 . S
C912 H900 0.950 . S
C912 C911 1.398 . S
C912 C913 1.391 . S
C913 H901 0.950 . S
C913 C909 1.393 . S
C913 C912 1.391 . S
H914 C922 0.950 . S
H915 C927 0.950 . S
H916 C924 0.950 . S
H917 C926 0.950 . S
H918 C928 0.950 . S
H919 C930 0.950 . S
H920 C932 0.950 . S
H921 C933 0.950 . S
C922 H914 0.950 . S
C922 C923 1.386 . S
C922 C924 1.391 . S
C923 C922 1.386 . S
C923 C927 1.393 . S
C924 H916 0.950 . S
C924 C922 1.391 . S
C924 C925 1.400 . S
C925 C924 1.400 . S
C925 C926 1.398 . S
C925 C931 1.491 . S
C926 H917 0.950 . S
C926 C925 1.398 . S
C926 C927 1.391 . S
C927 H915 0.950 . S
C927 C923 1.393 . S
C927 C926 1.391 . S
C928 H918 0.950 . S
C928 C929 1.386 . S
C928 C930 1.391 . S
C929 C928 1.386 . S
C929 C933 1.393 . S
C930 H919 0.950 . S
C930 C928 1.391 . S
C930 C931 1.400 . S
C931 C925 1.491 . S
C931 C930 1.400 . S
C931 C932 1.398 . S
C932 H920 0.950 . S
C932 C931 1.398 . S
C932 C933 1.391 . S
C933 H921 0.950 . S
C933 C929 1.393 . S
C933 C932 1.391 . S
H934 C942 0.950 . S
H935 C947 0.950 . S
H936 C944 0.950 . S
H937 C946 0.950 . S
H938 C948 0.950 . S
H939 C950 0.950 . S
H940 C952 0.950 . S
H941 C953 0.950 . S
C942 H934 0.950 . S
C942 C943 1.386 . S
C942 C944 1.391 . S
C943 C942 1.386 . S
C943 C947 1.393 . S
C944 H936 0.950 . S
C944 C942 1.391 . S
C944 C945 1.400 . S
C945 C944 1.400 . S
C945 C946 1.398 . S
C945 C951 1.491 . S
C946 H937 0.950 . S
C946 C945 1.398 . S
C946 C947 1.391 . S
C947 H935 0.950 . S
C947 C943 1.393 . S
C947 C946 1.391 . S
C948 H938 0.950 . S
C948 C949 1.386 . S
C948 C950 1.391 . S
C949 C948 1.386 . S
C949 C953 1.393 . S
C950 H939 0.950 . S
C950 C948 1.391 . S
C950 C951 1.400 . S
C951 C945 1.491 . S
C951 C950 1.400 . S
C951 C952 1.398 . S
C952 H940 0.950 . S
C952 C951 1.398 . S
C952 C953 1.391 . S
C953 H941 0.950 . S
C953 C949 1.393 . S
C953 C952 1.391 . S
H954 C962 0.950 . S
H955 C967 0.950 . S
H956 C964 0.950 . S
H957 C966 0.950 . S
H958 C968 0.950 . S
H959 C970 0.950 . S
H960 C972 0.950 . S
H961 C973 0.950 . S
C962 H954 0.950 . S
C962 C963 1.386 . S
C962 C964 1.391 . S
C963 C962 1.386 . S
C963 C967 1.393 . S
C964 H956 0.950 . S
C964 C962 1.391 . S
C964 C965 1.400 . S
C965 C964 1.400 . S
C965 C966 1.398 . S
C965 C971 1.491 . S
C966 H957 0.950 . S
C966 C965 1.398 . S
C966 C967 1.391 . S
C967 H955 0.950 . S
C967 C963 1.393 . S
C967 C966 1.391 . S
C968 H958 0.950 . S
C968 C969 1.386 . S
C968 C970 1.391 . S
C969 C968 1.386 . S
C969 C973 1.393 . S
C970 H959 0.950 . S
C970 C968 1.391 . S
C970 C971 1.400 . S
C971 C965 1.491 . S
C971 C970 1.400 . S
C971 C972 1.398 . S
C972 H960 0.950 . S
C972 C971 1.398 . S
C972 C973 1.391 . S
C973 H961 0.950 . S
C973 C969 1.393 . S
C973 C972 1.391 . S
H974 C982 0.950 . S
H975 C987 0.950 . S
H976 C984 0.950 . S
H977 C986 0.950 . S
H978 C988 0.950 . S
H979 C990 0.950 . S
H980 C992 0.950 . S
H981 C993 0.950 . S
C982 H974 0.950 . S
C982 C983 1.386 . S
C982 C984 1.391 . S
C983 C982 1.386 . S
C983 C987 1.393 . S
C984 H976 0.950 . S
C984 C982 1.391 . S
C984 C985 1.400 . S
C985 C984 1.400 . S
C985 C986 1.398 . S
C985 C991 1.491 . S
C986 H977 0.950 . S
C986 C985 1.398 . S
C986 C987 1.391 . S
C987 H975 0.950 . S
C987 C983 1.393 . S
C987 C986 1.391 . S
C988 H978 0.950 . S
C988 C989 1.386 . S
C988 C990 1.391 . S
C989 C988 1.386 . S
C989 C993 1.393 . S
C990 H979 0.950 . S
C990 C988 1.391 . S
C990 C991 1.400 . S
C991 C985 1.491 . S
C991 C990 1.400 . S
C991 C992 1.398 . S
C992 H980 0.950 . S
C992 C991 1.398 . S
C992 C993 1.391 . S
C993 H981 0.950 . S
C993 C989 1.393 . S
C993 C992 1.391 . S
H994 C1002 0.950 . S
H995 C1007 0.950 . S
H996 C1004 0.950 . S
H997 C1006 0.950 . S
H998 C1008 0.950 . S
H999 C1010 0.950 . S
H1000 C1012 0.950 . S
H1001 C1013 0.950 . S
C1002 H994 0.950 . S
C1002 C1003 1.386 . S
C1002 C1004 1.391 . S
C1003 C1002 1.386 . S
C1003 C1007 1.393 . S
C1004 H996 0.950 . S
C1004 C1002 1.391 . S
C1004 C1005 1.400 . S
C1005 C1004 1.400 . S
C1005 C1006 1.398 . S
C1005 C1011 1.491 . S
C1006 H997 0.950 . S
C1006 C1005 1.398 . S
C1006 C1007 1.391 . S
C1007 H995 0.950 . S
C1007 C1003 1.393 . S
C1007 C1006 1.391 . S
C1008 H998 0.950 . S
C1008 C1009 1.386 . S
C1008 C1010 1.391 . S
C1009 C1008 1.386 . S
C1009 C1013 1.393 . S
C1010 H999 0.950 . S
C1010 C1008 1.391 . S
C1010 C1011 1.400 . S
C1011 C1005 1.491 . S
C1011 C1010 1.400 . S
C1011 C1012 1.398 . S
C1012 H1000 0.950 . S
C1012 C1011 1.398 . S
C1012 C1013 1.391 . S
C1013 H1001 0.950 . S
C1013 C1009 1.393 . S
C1013 C1012 1.391 . S
H1014 C1022 0.950 . S
H1015 C1027 0.950 . S
H1016 C1024 0.950 . S
H1017 C1026 0.950 . S
H1018 C1028 0.950 . S
H1019 C1030 0.950 . S
H1020 C1032 0.950 . S
H1021 C1033 0.950 . S
C1022 H1014 0.950 . S
C1022 C1023 1.386 . S
C1022 C1024 1.391 . S
C1023 C1022 1.386 . S
C1023 C1027 1.393 . S
C1024 H1016 0.950 . S
C1024 C1022 1.391 . S
C1024 C1025 1.400 . S
C1025 C1024 1.400 . S
C1025 C1026 1.398 . S
C1025 C1031 1.491 . S
C1026 H1017 0.950 . S
C1026 C1025 1.398 . S
C1026 C1027 1.391 . S
C1027 H1015 0.950 . S
C1027 C1023 1.393 . S
C1027 C1026 1.391 . S
C1028 H1018 0.950 . S
C1028 C1029 1.386 . S
C1028 C1030 1.391 . S
C1029 C1028 1.386 . S
C1029 C1033 1.393 . S
C1030 H1019 0.950 . S
C1030 C1028 1.391 . S
C1030 C1031 1.400 . S
C1031 C1025 1.491 . S
C1031 C1030 1.400 . S
C1031 C1032 1.398 . S
C1032 H1020 0.950 . S
C1032 C1031 1.398 . S
C1032 C1033 1.391 . S
C1033 H1021 0.950 . S
C1033 C1029 1.393 . S
C1033 C1032 1.391 . S
H1034 C1042 0.950 . S
H1035 C1047 0.950 . S
H1036 C1044 0.950 . S
H1037 C1046 0.950 . S
H1038 C1048 0.950 . S
H1039 C1050 0.950 . S
H1040 C1052 0.950 . S
H1041 C1053 0.950 . S
C1042 H1034 0.950 . S
C1042 C1043 1.386 . S
C1042 C1044 1.391 . S
C1043 C1042 1.386 . S
C1043 C1047 1.393 . S
C1044 H1036 0.950 . S
C1044 C1042 1.391 . S
C1044 C1045 1.400 . S
C1045 C1044 1.400 . S
C1045 C1046 1.398 . S
C1045 C1051 1.491 . S
C1046 H1037 0.950 . S
C1046 C1045 1.398 . S
C1046 C1047 1.391 . S
C1047 H1035 0.950 . S
C1047 C1043 1.393 . S
C1047 C1046 1.391 . S
C1048 H1038 0.950 . S
C1048 C1049 1.386 . S
C1048 C1050 1.391 . S
C1049 C1048 1.386 . S
C1049 C1053 1.393 . S
C1050 H1039 0.950 . S
C1050 C1048 1.391 . S
C1050 C1051 1.400 . S
C1051 C1045 1.491 . S
C1051 C1050 1.400 . S
C1051 C1052 1.398 . S
C1052 H1040 0.950 . S
C1052 C1051 1.398 . S
C1052 C1053 1.391 . S
C1053 H1041 0.950 . S
C1053 C1049 1.393 . S
C1053 C1052 1.391 . S
H1054 C1062 0.950 . S
H1055 C1067 0.950 . S
H1056 C1064 0.950 . S
H1057 C1066 0.950 . S
H1058 C1068 0.950 . S
H1059 C1070 0.950 . S
H1060 C1072 0.950 . S
H1061 C1073 0.950 . S
C1062 H1054 0.950 . S
C1062 C1063 1.386 . S
C1062 C1064 1.391 . S
C1063 C1062 1.386 . S
C1063 C1067 1.393 . S
C1064 H1056 0.950 . S
C1064 C1062 1.391 . S
C1064 C1065 1.400 . S
C1065 C1064 1.400 . S
C1065 C1066 1.398 . S
C1065 C1071 1.491 . S
C1066 H1057 0.950 . S
C1066 C1065 1.398 . S
C1066 C1067 1.391 . S
C1067 H1055 0.950 . S
C1067 C1063 1.393 . S
C1067 C1066 1.391 . S
C1068 H1058 0.950 . S
C1068 C1069 1.386 . S
C1068 C1070 1.391 . S
C1069 C1068 1.386 . S
C1069 C1073 1.393 . S
C1070 H1059 0.950 . S
C1070 C1068 1.391 . S
C1070 C1071 1.400 . S
C1071 C1065 1.491 . S
C1071 C1070 1.400 . S
C1071 C1072 1.398 . S
C1072 H1060 0.950 . S
C1072 C1071 1.398 . S
C1072 C1073 1.391 . S
C1073 H1061 0.950 . S
C1073 C1069 1.393 . S
C1073 C1072 1.391 . S
H1074 C1082 0.950 . S
H1075 C1087 0.950 . S
H1076 C1084 0.950 . S
H1077 C1086 0.950 . S
H1078 C1088 0.950 . S
H1079 C1090 0.950 . S
H1080 C1092 0.950 . S
H1081 C1093 0.950 . S
C1082 H1074 0.950 . S
C1082 C1083 1.386 . S
C1082 C1084 1.391 . S
C1083 C1082 1.386 . S
C1083 C1087 1.393 . S
C1084 H1076 0.950 . S
C1084 C1082 1.391 . S
C1084 C1085 1.400 . S
C1085 C1084 1.400 . S
C1085 C1086 1.398 . S
C1085 C1091 1.491 . S
C1086 H1077 0.950 . S
C1086 C1085 1.398 . S
C1086 C1087 1.391 . S
C1087 H1075 0.950 . S
C1087 C1083 1.393 . S
C1087 C1086 1.391 . S
C1088 H1078 0.950 . S
C1088 C1089 1.386 . S
C1088 C1090 1.391 . S
C1089 C1088 1.386 . S
C1089 C1093 1.393 . S
C1090 H1079 0.950 . S
C1090 C1088 1.391 . S
C1090 C1091 1.400 . S
C1091 C1085 1.491 . S
C1091 C1090 1.400 . S
C1091 C1092 1.398 . S
C1092 H1080 0.950 . S
C1092 C1091 1.398 . S
C1092 C1093 1.391 . S
C1093 H1081 0.950 . S
C1093 C1089 1.393 . S
C1093 C1092 1.391 . S
H1094 C1102 0.950 . S
H1095 C1107 0.950 . S
H1096 C1104 0.950 . S
H1097 C1106 0.950 . S
H1098 C1108 0.950 . S
H1099 C1110 0.950 . S
H1100 C1112 0.950 . S
H1101 C1113 0.950 . S
C1102 H1094 0.950 . S
C1102 C1103 1.386 . S
C1102 C1104 1.391 . S
C1103 C1102 1.386 . S
C1103 C1107 1.393 . S
C1104 H1096 0.950 . S
C1104 C1102 1.391 . S
C1104 C1105 1.400 . S
C1105 C1104 1.400 . S
C1105 C1106 1.398 . S
C1105 C1111 1.491 . S
C1106 H1097 0.950 . S
C1106 C1105 1.398 . S
C1106 C1107 1.391 . S
C1107 H1095 0.950 . S
C1107 C1103 1.393 . S
C1107 C1106 1.391 . S
C1108 H1098 0.950 . S
C1108 C1109 1.386 . S
C1108 C1110 1.391 . S
C1109 C1108 1.386 . S
C1109 C1113 1.393 . S
C1110 H1099 0.950 . S
C1110 C1108 1.391 . S
C1110 C1111 1.400 . S
C1111 C1105 1.491 . S
C1111 C1110 1.400 . S
C1111 C1112 1.398 . S
C1112 H1100 0.950 . S
C1112 C1111 1.398 . S
C1112 C1113 1.391 . S
C1113 H1101 0.950 . S
C1113 C1109 1.393 . S
C1113 C1112 1.391 . S
H1114 C1122 0.950 . S
H1115 C1127 0.950 . S
H1116 C1124 0.950 . S
H1117 C1126 0.950 . S
H1118 C1128 0.950 . S
H1119 C1130 0.950 . S
H1120 C1132 0.950 . S
H1121 C1133 0.950 . S
C1122 H1114 0.950 . S
C1122 C1123 1.386 . S
C1122 C1124 1.391 . S
C1123 C1122 1.386 . S
C1123 C1127 1.393 . S
C1124 H1116 0.950 . S
C1124 C1122 1.391 . S
C1124 C1125 1.400 . S
C1125 C1124 1.400 . S
C1125 C1126 1.398 . S
C1125 C1131 1.491 . S
C1126 H1117 0.950 . S
C1126 C1125 1.398 . S
C1126 C1127 1.391 . S
C1127 H1115 0.950 . S
C1127 C1123 1.393 . S
C1127 C1126 1.391 . S
C1128 H1118 0.950 . S
C1128 C1129 1.386 . S
C1128 C1130 1.391 . S
C1129 C1128 1.386 . S
C1129 C1133 1.393 . S
C1130 H1119 0.950 . S
C1130 C1128 1.391 . S
C1130 C1131 1.400 . S
C1131 C1125 1.491 . S
C1131 C1130 1.400 . S
C1131 C1132 1.398 . S
C1132 H1120 0.950 . S
C1132 C1131 1.398 . S
C1132 C1133 1.391 . S
C1133 H1121 0.950 . S
C1133 C1129 1.393 . S
C1133 C1132 1.391 . S
H1134 C1142 0.950 . S
H1135 C1147 0.950 . S
H1136 C1144 0.950 . S
H1137 C1146 0.950 . S
H1138 C1148 0.950 . S
H1139 C1150 0.950 . S
H1140 C1152 0.950 . S
H1141 C1153 0.950 . S
C1142 H1134 0.950 . S
C1142 C1143 1.386 . S
C1142 C1144 1.391 . S
C1143 C1142 1.386 . S
C1143 C1147 1.393 . S
C1144 H1136 0.950 . S
C1144 C1142 1.391 . S
C1144 C1145 1.400 . S
C1145 C1144 1.400 . S
C1145 C1146 1.398 . S
C1145 C1151 1.491 . S
C1146 H1137 0.950 . S
C1146 C1145 1.398 . S
C1146 C1147 1.391 . S
C1147 H1135 0.950 . S
C1147 C1143 1.393 . S
C1147 C1146 1.391 . S
C1148 H1138 0.950 . S
C1148 C1149 1.386 . S
C1148 C1150 1.391 . S
C1149 C1148 1.386 . S
C1149 C1153 1.393 . S
C1150 H1139 0.950 . S
C1150 C1148 1.391 . S
C1150 C1151 1.400 . S
C1151 C1145 1.491 . S
C1151 C1150 1.400 . S
C1151 C1152 1.398 . S
C1152 H1140 0.950 . S
C1152 C1151 1.398 . S
C1152 C1153 1.391 . S
C1153 H1141 0.950 . S
C1153 C1149 1.393 . S
C1153 C1152 1.391 . S
H1154 C1162 0.950 . S
H1155 C1167 0.950 . S
H1156 C1164 0.950 . S
H1157 C1166 0.950 . S
H1158 C1168 0.950 . S
H1159 C1170 0.950 . S
H1160 C1172 0.950 . S
H1161 C1173 0.950 . S
C1162 H1154 0.950 . S
C1162 C1163 1.386 . S
C1162 C1164 1.391 . S
C1163 C1162 1.386 . S
C1163 C1167 1.393 . S
C1164 H1156 0.950 . S
C1164 C1162 1.391 . S
C1164 C1165 1.400 . S
C1165 C1164 1.400 . S
C1165 C1166 1.398 . S
C1165 C1171 1.491 . S
C1166 H1157 0.950 . S
C1166 C1165 1.398 . S
C1166 C1167 1.391 . S
C1167 H1155 0.950 . S
C1167 C1163 1.393 . S
C1167 C1166 1.391 . S
C1168 H1158 0.950 . S
C1168 C1169 1.386 . S
C1168 C1170 1.391 . S
C1169 C1168 1.386 . S
C1169 C1173 1.393 . S
C1170 H1159 0.950 . S
C1170 C1168 1.391 . S
C1170 C1171 1.400 . S
C1171 C1165 1.491 . S
C1171 C1170 1.400 . S
C1171 C1172 1.398 . S
C1172 H1160 0.950 . S
C1172 C1171 1.398 . S
C1172 C1173 1.391 . S
C1173 H1161 0.950 . S
C1173 C1169 1.393 . S
C1173 C1172 1.391 . S
H1174 C1182 0.950 . S
H1175 C1187 0.950 . S
H1176 C1184 0.950 . S
H1177 C1186 0.950 . S
H1178 C1188 0.950 . S
H1179 C1190 0.950 . S
H1180 C1192 0.950 . S
H1181 C1193 0.950 . S
C1182 H1174 0.950 . S
C1182 C1183 1.386 . S
C1182 C1184 1.391 . S
C1183 C1182 1.386 . S
C1183 C1187 1.393 . S
C1184 H1176 0.950 . S
C1184 C1182 1.391 . S
C1184 C1185 1.400 . S
C1185 C1184 1.400 . S
C1185 C1186 1.398 . S
C1185 C1191 1.491 . S
C1186 H1177 0.950 . S
C1186 C1185 1.398 . S
C1186 C1187 1.391 . S
C1187 H1175 0.950 . S
C1187 C1183 1.393 . S
C1187 C1186 1.391 . S
C1188 H1178 0.950 . S
C1188 C1189 1.386 . S
C1188 C1190 1.391 . S
C1189 C1188 1.386 . S
C1189 C1193 1.393 . S
C1190 H1179 0.950 . S
C1190 C1188 1.391 . S
C1190 C1191 1.400 . S
C1191 C1185 1.491 . S
C1191 C1190 1.400 . S
C1191 C1192 1.398 . S
C1192 H1180 0.950 . S
C1192 C1191 1.398 . S
C1192 C1193 1.391 . S
C1193 H1181 0.950 . S
C1193 C1189 1.393 . S
C1193 C1192 1.391 . S
H1194 C1202 0.950 . S
H1195 C1207 0.950 . S
H1196 C1204 0.950 . S
H1197 C1206 0.950 . S
H1198 C1208 0.950 . S
H1199 C1210 0.950 . S
H1200 C1212 0.950 . S
H1201 C1213 0.950 . S
C1202 H1194 0.950 . S
C1202 C1203 1.386 . S
C1202 C1204 1.391 . S
C1203 C1202 1.386 . S
C1203 C1207 1.393 . S
C1204 H1196 0.950 . S
C1204 C1202 1.391 . S
C1204 C1205 1.400 . S
C1205 C1204 1.400 . S
C1205 C1206 1.398 . S
C1205 C1211 1.491 . S
C1206 H1197 0.950 . S
C1206 C1205 1.398 . S
C1206 C1207 1.391 . S
C1207 H1195 0.950 . S
C1207 C1203 1.393 . S
C1207 C1206 1.391 . S
C1208 H1198 0.950 . S
C1208 C1209 1.386 . S
C1208 C1210 1.391 . S
C1209 C1208 1.386 . S
C1209 C1213 1.393 . S
C1210 H1199 0.950 . S
C1210 C1208 1.391 . S
C1210 C1211 1.400 . S
C1211 C1205 1.491 . S
C1211 C1210 1.400 . S
C1211 C1212 1.398 . S
C1212 H1200 0.950 . S
C1212 C1211 1.398 . S
C1212 C1213 1.391 . S
C1213 H1201 0.950 . S
C1213 C1209 1.393 . S
C1213 C1212 1.391 . S
H1214 C1222 0.950 . S
H1215 C1227 0.950 . S
H1216 C1224 0.950 . S
H1217 C1226 0.950 . S
H1218 C1228 0.950 . S
H1219 C1230 0.950 . S
H1220 C1232 0.950 . S
H1221 C1233 0.950 . S
C1222 H1214 0.950 . S
C1222 C1223 1.386 . S
C1222 C1224 1.391 . S
C1223 C1222 1.386 . S
C1223 C1227 1.393 . S
C1224 H1216 0.950 . S
C1224 C1222 1.391 . S
C1224 C1225 1.400 . S
C1225 C1224 1.400 . S
C1225 C1226 1.398 . S
C1225 C1231 1.491 . S
C1226 H1217 0.950 . S
C1226 C1225 1.398 . S
C1226 C1227 1.391 . S
C1227 H1215 0.950 . S
C1227 C1223 1.393 . S
C1227 C1226 1.391 . S
C1228 H1218 0.950 . S
C1228 C1229 1.386 . S
C1228 C1230 1.391 . S
C1229 C1228 1.386 . S
C1229 C1233 1.393 . S
C1230 H1219 0.950 . S
C1230 C1228 1.391 . S
C1230 C1231 1.400 . S
C1231 C1225 1.491 . S
C1231 C1230 1.400 . S
C1231 C1232 1.398 . S
C1232 H1220 0.950 . S
C1232 C1231 1.398 . S
C1232 C1233 1.391 . S
C1233 H1221 0.950 . S
C1233 C1229 1.393 . S
C1233 C1232 1.391 . S
H1234 C1242 0.950 . S
H1235 C1247 0.950 . S
H1236 C1244 0.950 . S
H1237 C1246 0.950 . S
H1238 C1248 0.950 . S
H1239 C1250 0.950 . S
H1240 C1252 0.950 . S
H1241 C1253 0.950 . S
C1242 H1234 0.950 . S
C1242 C1243 1.386 . S
C1242 C1244 1.391 . S
C1243 C1242 1.386 . S
C1243 C1247 1.393 . S
C1244 H1236 0.950 . S
C1244 C1242 1.391 . S
C1244 C1245 1.400 . S
C1245 C1244 1.400 . S
C1245 C1246 1.398 . S
C1245 C1251 1.491 . S
C1246 H1237 0.950 . S
C1246 C1245 1.398 . S
C1246 C1247 1.391 . S
C1247 H1235 0.950 . S
C1247 C1243 1.393 . S
C1247 C1246 1.391 . S
C1248 H1238 0.950 . S
C1248 C1249 1.386 . S
C1248 C1250 1.391 . S
C1249 C1248 1.386 . S
C1249 C1253 1.393 . S
C1250 H1239 0.950 . S
C1250 C1248 1.391 . S
C1250 C1251 1.400 . S
C1251 C1245 1.491 . S
C1251 C1250 1.400 . S
C1251 C1252 1.398 . S
C1252 H1240 0.950 . S
C1252 C1251 1.398 . S
C1252 C1253 1.391 . S
C1253 H1241 0.950 . S
C1253 C1249 1.393 . S
C1253 C1252 1.391 . S
H1254 C1262 0.950 . S
H1255 C1267 0.950 . S
H1256 C1264 0.950 . S
H1257 C1266 0.950 . S
H1258 C1268 0.950 . S
H1259 C1270 0.950 . S
H1260 C1272 0.950 . S
H1261 C1273 0.950 . S
C1262 H1254 0.950 . S
C1262 C1263 1.386 . S
C1262 C1264 1.391 . S
C1263 C1262 1.386 . S
C1263 C1267 1.393 . S
C1264 H1256 0.950 . S
C1264 C1262 1.391 . S
C1264 C1265 1.400 . S
C1265 C1264 1.400 . S
C1265 C1266 1.398 . S
C1265 C1271 1.491 . S
C1266 H1257 0.950 . S
C1266 C1265 1.398 . S
C1266 C1267 1.391 . S
C1267 H1255 0.950 . S
C1267 C1263 1.393 . S
C1267 C1266 1.391 . S
C1268 H1258 0.950 . S
C1268 C1269 1.386 . S
C1268 C1270 1.391 . S
C1269 C1268 1.386 . S
C1269 C1273 1.393 . S
C1270 H1259 0.950 . S
C1270 C1268 1.391 . S
C1270 C1271 1.400 . S
C1271 C1265 1.491 . S
C1271 C1270 1.400 . S
C1271 C1272 1.398 . S
C1272 H1260 0.950 . S
C1272 C1271 1.398 . S
C1272 C1273 1.391 . S
C1273 H1261 0.950 . S
C1273 C1269 1.393 . S
C1273 C1272 1.391 . S
H1274 C1282 0.950 . S
H1275 C1287 0.950 . S
H1276 C1284 0.950 . S
H1277 C1286 0.950 . S
H1278 C1288 0.950 . S
H1279 C1290 0.950 . S
H1280 C1292 0.950 . S
H1281 C1293 0.950 . S
C1282 H1274 0.950 . S
C1282 C1283 1.386 . S
C1282 C1284 1.391 . S
C1283 C1282 1.386 . S
C1283 C1287 1.393 . S
C1284 H1276 0.950 . S
C1284 C1282 1.391 . S
C1284 C1285 1.400 . S
C1285 C1284 1.400 . S
C1285 C1286 1.398 . S
C1285 C1291 1.491 . S
C1286 H1277 0.950 . S
C1286 C1285 1.398 . S
C1286 C1287 1.391 . S
C1287 H1275 0.950 . S
C1287 C1283 1.393 . S
C1287 C1286 1.391 . S
C1288 H1278 0.950 . S
C1288 C1289 1.386 . S
C1288 C1290 1.391 . S
C1289 C1288 1.386 . S
C1289 C1293 1.393 . S
C1290 H1279 0.950 . S
C1290 C1288 1.391 . S
C1290 C1291 1.400 . S
C1291 C1285 1.491 . S
C1291 C1290 1.400 . S
C1291 C1292 1.398 . S
C1292 H1280 0.950 . S
C1292 C1291 1.398 . S
C1292 C1293 1.391 . S
C1293 H1281 0.950 . S
C1293 C1289 1.393 . S
C1293 C1292 1.391 . S
H1294 C1302 0.950 . S
H1295 C1307 0.950 . S
H1296 C1304 0.950 . S
H1297 C1306 0.950 . S
H1298 C1308 0.950 . S
H1299 C1310 0.950 . S
H1300 C1312 0.950 . S
H1301 C1313 0.950 . S
C1302 H1294 0.950 . S
C1302 C1303 1.386 . S
C1302 C1304 1.391 . S
C1303 C1302 1.386 . S
C1303 C1307 1.393 . S
C1304 H1296 0.950 . S
C1304 C1302 1.391 . S
C1304 C1305 1.400 . S
C1305 C1304 1.400 . S
C1305 C1306 1.398 . S
C1305 C1311 1.491 . S
C1306 H1297 0.950 . S
C1306 C1305 1.398 . S
C1306 C1307 1.391 . S
C1307 H1295 0.950 . S
C1307 C1303 1.393 . S
C1307 C1306 1.391 . S
C1308 H1298 0.950 . S
C1308 C1309 1.386 . S
C1308 C1310 1.391 . S
C1309 C1308 1.386 . S
C1309 C1313 1.393 . S
C1310 H1299 0.950 . S
C1310 C1308 1.391 . S
C1310 C1311 1.400 . S
C1311 C1305 1.491 . S
C1311 C1310 1.400 . S
C1311 C1312 1.398 . S
C1312 H1300 0.950 . S
C1312 C1311 1.398 . S
C1312 C1313 1.391 . S
C1313 H1301 0.950 . S
C1313 C1309 1.393 . S
C1313 C1312 1.391 . S
H1314 C1322 0.950 . S
H1315 C1327 0.950 . S
H1316 C1324 0.950 . S
H1317 C1326 0.950 . S
H1318 C1328 0.950 . S
H1319 C1330 0.950 . S
H1320 C1332 0.950 . S
H1321 C1333 0.950 . S
C1322 H1314 0.950 . S
C1322 C1323 1.386 . S
C1322 C1324 1.391 . S
C1323 C1322 1.386 . S
C1323 C1327 1.393 . S
C1324 H1316 0.950 . S
C1324 C1322 1.391 . S
C1324 C1325 1.400 . S
C1325 C1324 1.400 . S
C1325 C1326 1.398 . S
C1325 C1331 1.491 . S
C1326 H1317 0.950 . S
C1326 C1325 1.398 . S
C1326 C1327 1.391 . S
C1327 H1315 0.950 . S
C1327 C1323 1.393 . S
C1327 C1326 1.391 . S
C1328 H1318 0.950 . S
C1328 C1329 1.386 . S
C1328 C1330 1.391 . S
C1329 C1328 1.386 . S
C1329 C1333 1.393 . S
C1330 H1319 0.950 . S
C1330 C1328 1.391 . S
C1330 C1331 1.400 . S
C1331 C1325 1.491 . S
C1331 C1330 1.400 . S
C1331 C1332 1.398 . S
C1332 H1320 0.950 . S
C1332 C1331 1.398 . S
C1332 C1333 1.391 . S
C1333 H1321 0.950 . S
C1333 C1329 1.393 . S
C1333 C1332 1.391 . S
H1334 C1342 0.950 . S
H1335 C1347 0.950 . S
H1336 C1344 0.950 . S
H1337 C1346 0.950 . S
H1338 C1348 0.950 . S
H1339 C1350 0.950 . S
H1340 C1352 0.950 . S
H1341 C1353 0.950 . S
C1342 H1334 0.950 . S
C1342 C1343 1.386 . S
C1342 C1344 1.391 . S
C1343 C1342 1.386 . S
C1343 C1347 1.393 . S
C1344 H1336 0.950 . S
C1344 C1342 1.391 . S
C1344 C1345 1.400 . S
C1345 C1344 1.400 . S
C1345 C1346 1.398 . S
C1345 C1351 1.491 . S
C1346 H1337 0.950 . S
C1346 C1345 1.398 . S
C1346 C1347 1.391 . S
C1347 H1335 0.950 . S
C1347 C1343 1.393 . S
C1347 C1346 1.391 . S
C1348 H1338 0.950 . S
C1348 C1349 1.386 . S
C1348 C1350 1.391 . S
C1349 C1348 1.386 . S
C1349 C1353 1.393 . S
C1350 H1339 0.950 . S
C1350 C1348 1.391 . S
C1350 C1351 1.400 . S
C1351 C1345 1.491 . S
C1351 C1350 1.400 . S
C1351 C1352 1.398 . S
C1352 H1340 0.950 . S
C1352 C1351 1.398 . S
C1352 C1353 1.391 . S
C1353 H1341 0.950 . S
C1353 C1349 1.393 . S
C1353 C1352 1.391 . S
H1354 C1362 0.950 . S
H1355 C1367 0.950 . S
H1356 C1364 0.950 . S
H1357 C1366 0.950 . S
H1358 C1368 0.950 . S
H1359 C1370 0.950 . S
H1360 C1372 0.950 . S
H1361 C1373 0.950 . S
C1362 H1354 0.950 . S
C1362 C1363 1.386 . S
C1362 C1364 1.391 . S
C1363 C1362 1.386 . S
C1363 C1367 1.393 . S
C1364 H1356 0.950 . S
C1364 C1362 1.391 . S
C1364 C1365 1.400 . S
C1365 C1364 1.400 . S
C1365 C1366 1.398 . S
C1365 C1371 1.491 . S
C1366 H1357 0.950 . S
C1366 C1365 1.398 . S
C1366 C1367 1.391 . S
C1367 H1355 0.950 . S
C1367 C1363 1.393 . S
C1367 C1366 1.391 . S
C1368 H1358 0.950 . S
C1368 C1369 1.386 . S
C1368 C1370 1.391 . S
C1369 C1368 1.386 . S
C1369 C1373 1.393 . S
C1370 H1359 0.950 . S
C1370 C1368 1.391 . S
C1370 C1371 1.400 . S
C1371 C1365 1.491 . S
C1371 C1370 1.400 . S
C1371 C1372 1.398 . S
C1372 H1360 0.950 . S
C1372 C1371 1.398 . S
C1372 C1373 1.391 . S
C1373 H1361 0.950 . S
C1373 C1369 1.393 . S
C1373 C1372 1.391 . S
H1374 C1382 0.950 . S
H1375 C1387 0.950 . S
H1376 C1384 0.950 . S
H1377 C1386 0.950 . S
H1378 C1388 0.950 . S
H1379 C1390 0.950 . S
H1380 C1392 0.950 . S
H1381 C1393 0.950 . S
C1382 H1374 0.950 . S
C1382 C1383 1.386 . S
C1382 C1384 1.391 . S
C1383 C1382 1.386 . S
C1383 C1387 1.393 . S
C1384 H1376 0.950 . S
C1384 C1382 1.391 . S
C1384 C1385 1.400 . S
C1385 C1384 1.400 . S
C1385 C1386 1.398 . S
C1385 C1391 1.491 . S
C1386 H1377 0.950 . S
C1386 C1385 1.398 . S
C1386 C1387 1.391 . S
C1387 H1375 0.950 . S
C1387 C1383 1.393 . S
C1387 C1386 1.391 . S
C1388 H1378 0.950 . S
C1388 C1389 1.386 . S
C1388 C1390 1.391 . S
C1389 C1388 1.386 . S
C1389 C1393 1.393 . S
C1390 H1379 0.950 . S
C1390 C1388 1.391 . S
C1390 C1391 1.400 . S
C1391 C1385 1.491 . S
C1391 C1390 1.400 . S
C1391 C1392 1.398 . S
C1392 H1380 0.950 . S
C1392 C1391 1.398 . S
C1392 C1393 1.391 . S
C1393 H1381 0.950 . S
C1393 C1389 1.393 . S
C1393 C1392 1.391 . S
H1394 C1402 0.950 . S
H1395 C1407 0.950 . S
H1396 C1404 0.950 . S
H1397 C1406 0.950 . S
H1398 C1408 0.950 . S
H1399 C1410 0.950 . S
H1400 C1412 0.950 . S
H1401 C1413 0.950 . S
C1402 H1394 0.950 . S
C1402 C1403 1.386 . S
C1402 C1404 1.391 . S
C1403 C1402 1.386 . S
C1403 C1407 1.393 . S
C1404 H1396 0.950 . S
C1404 C1402 1.391 . S
C1404 C1405 1.400 . S
C1405 C1404 1.400 . S
C1405 C1406 1.398 . S
C1405 C1411 1.491 . S
C1406 H1397 0.950 . S
C1406 C1405 1.398 . S
C1406 C1407 1.391 . S
C1407 H1395 0.950 . S
C1407 C1403 1.393 . S
C1407 C1406 1.391 . S
C1408 H1398 0.950 . S
C1408 C1409 1.386 . S
C1408 C1410 1.391 . S
C1409 C1408 1.386 . S
C1409 C1413 1.393 . S
C1410 H1399 0.950 . S
C1410 C1408 1.391 . S
C1410 C1411 1.400 . S
C1411 C1405 1.491 . S
C1411 C1410 1.400 . S
C1411 C1412 1.398 . S
C1412 H1400 0.950 . S
C1412 C1411 1.398 . S
C1412 C1413 1.391 . S
C1413 H1401 0.950 . S
C1413 C1409 1.393 . S
C1413 C1412 1.391 . S
H1414 C1422 0.950 . S
H1415 C1427 0.950 . S
H1416 C1424 0.950 . S
H1417 C1426 0.950 . S
H1418 C1428 0.950 . S
H1419 C1430 0.950 . S
H1420 C1432 0.950 . S
H1421 C1433 0.950 . S
C1422 H1414 0.950 . S
C1422 C1423 1.386 . S
C1422 C1424 1.391 . S
C1423 C1422 1.386 . S
C1423 C1427 1.393 . S
C1424 H1416 0.950 . S
C1424 C1422 1.391 . S
C1424 C1425 1.400 . S
C1425 C1424 1.400 . S
C1425 C1426 1.398 . S
C1425 C1431 1.491 . S
C1426 H1417 0.950 . S
C1426 C1425 1.398 . S
C1426 C1427 1.391 . S
C1427 H1415 0.950 . S
C1427 C1423 1.393 . S
C1427 C1426 1.391 . S
C1428 H1418 0.950 . S
C1428 C1429 1.386 . S
C1428 C1430 1.391 . S
C1429 C1428 1.386 . S
C1429 C1433 1.393 . S
C1430 H1419 0.950 . S
C1430 C1428 1.391 . S
C1430 C1431 1.400 . S
C1431 C1425 1.491 . S
C1431 C1430 1.400 . S
C1431 C1432 1.398 . S
C1432 H1420 0.950 . S
C1432 C1431 1.398 . S
C1432 C1433 1.391 . S
C1433 H1421 0.950 . S
C1433 C1429 1.393 . S
C1433 C1432 1.391 . S
H1434 C1442 0.950 . S
H1435 C1447 0.950 . S
H1436 C1444 0.950 . S
H1437 C1446 0.950 . S
H1438 C1448 0.950 . S
H1439 C1450 0.950 . S
H1440 C1452 0.950 . S
H1441 C1453 0.950 . S
C1442 H1434 0.950 . S
C1442 C1443 1.386 . S
C1442 C1444 1.391 . S
C1443 C1442 1.386 . S
C1443 C1447 1.393 . S
C1444 H1436 0.950 . S
C1444 C1442 1.391 . S
C1444 C1445 1.400 . S
C1445 C1444 1.400 . S
C1445 C1446 1.398 . S
C1445 C1451 1.491 . S
C1446 H1437 0.950 . S
C1446 C1445 1.398 . S
C1446 C1447 1.391 . S
C1447 H1435 0.950 . S
C1447 C1443 1.393 . S
C1447 C1446 1.391 . S
C1448 H1438 0.950 . S
C1448 C1449 1.386 . S
C1448 C1450 1.391 . S
C1449 C1448 1.386 . S
C1449 C1453 1.393 . S
C1450 H1439 0.950 . S
C1450 C1448 1.391 . S
C1450 C1451 1.400 . S
C1451 C1445 1.491 . S
C1451 C1450 1.400 . S
C1451 C1452 1.398 . S
C1452 H1440 0.950 . S
C1452 C1451 1.398 . S
C1452 C1453 1.391 . S
C1453 H1441 0.950 . S
C1453 C1449 1.393 . S
C1453 C1452 1.391 . S
H1454 C1462 0.950 . S
H1455 C1467 0.950 . S
H1456 C1464 0.950 . S
H1457 C1466 0.950 . S
H1458 C1468 0.950 . S
H1459 C1470 0.950 . S
H1460 C1472 0.950 . S
H1461 C1473 0.950 . S
C1462 H1454 0.950 . S
C1462 C1463 1.386 . S
C1462 C1464 1.391 . S
C1463 C1462 1.386 . S
C1463 C1467 1.393 . S
C1464 H1456 0.950 . S
C1464 C1462 1.391 . S
C1464 C1465 1.400 . S
C1465 C1464 1.400 . S
C1465 C1466 1.398 . S
C1465 C1471 1.491 . S
C1466 H1457 0.950 . S
C1466 C1465 1.398 . S
C1466 C1467 1.391 . S
C1467 H1455 0.950 . S
C1467 C1463 1.393 . S
C1467 C1466 1.391 . S
C1468 H1458 0.950 . S
C1468 C1469 1.386 . S
C1468 C1470 1.391 . S
C1469 C1468 1.386 . S
C1469 C1473 1.393 . S
C1470 H1459 0.950 . S
C1470 C1468 1.391 . S
C1470 C1471 1.400 . S
C1471 C1465 1.491 . S
C1471 C1470 1.400 . S
C1471 C1472 1.398 . S
C1472 H1460 0.950 . S
C1472 C1471 1.398 . S
C1472 C1473 1.391 . S
C1473 H1461 0.950 . S
C1473 C1469 1.393 . S
C1473 C1472 1.391 . S
C529 C288 0.813 . S
C523 N18 0.788 . S
C549 N264 1.519 . S
C543 C61 1.596 . S
C569 C296 0.594 . S
C563 N82 0.633 . S
C583 C100 1.502 . S
C589 C295 1.425 . S
C603 C130 1.671 . S
C609 N259 1.616 . S
C629 C283 0.894 . S
C623 N173 0.879 . S
C643 C198 1.632 . S
C649 C269 1.513 . S
C663 N242 0.593 . S
C669 C289 0.565 . S
C689 C312 1.525 . S
C683 C6 1.639 . S
C703 N50 0.548 . S
C709 C375 0.560 . S
C729 N302 1.561 . S
C723 C68 1.569 . S
C749 C369 0.561 . S
C743 N109 0.575 . S
C763 C134 2.010 . S
C769 C339 1.995 . S
C789 C381 1.532 . S
C783 C162 1.659 . S
C803 C194 2.107 . S
C809 C331 2.091 . S
C823 C228 1.576 . S
C829 N350 1.562 . S
C843 C2 1.705 . S
C849 N345 1.656 . S
C863 N141 0.878 . S
C869 C374 0.891 . S
C889 N307 1.673 . S
C883 C166 1.714 . S
C909 C382 0.743 . S
C903 N210 0.708 . S
C923 C253 1.514 . S
C929 C338 1.415 . S
C943 C93 1.492 . S
C949 C355 1.366 . S
C969 C332 1.899 . S
C963 C125 1.908 . S
C983 C36 2.045 . S
C989 C326 2.018 . S
C1003 N237 0.857 . S
C1009 C417 0.867 . S
C1023 C157 1.599 . S
C1029 N393 1.534 . S
C1049 C425 0.606 . S
C1043 N178 0.644 . S
C1069 C424 1.404 . S
C1063 C196 1.507 . S
C1083 C34 1.680 . S
C1089 N388 1.629 . S
C1109 C412 0.857 . S
C1103 N77 0.838 . S
C1123 C102 1.628 . S
C1129 C398 1.532 . S
C1143 N13 0.577 . S
C1149 C418 0.553 . S
C1163 C226 1.640 . S
C1169 C441 1.522 . S
C1189 C504 0.527 . S
C1183 N146 0.594 . S
C1203 C164 1.577 . S
C1209 N431 1.567 . S
C1223 N205 0.598 . S
C1229 C498 0.581 . S
C1249 C468 1.983 . S
C1243 C38 2.008 . S
C1263 C66 1.655 . S
C1269 C510 1.545 . S
C1289 C460 2.101 . S
C1283 C98 2.097 . S
C1309 N479 1.556 . S
C1303 C29 1.592 . S
C1329 N474 1.664 . S
C1323 C230 1.700 . S
C1343 N45 0.832 . S
C1349 C503 0.895 . S
C1363 C70 1.715 . S
C1369 N436 1.664 . S
C1389 C511 0.741 . S
C1383 N114 0.780 . S
C1403 C4 1.520 . S
C1409 C467 1.380 . S
C1423 C189 1.497 . S
C1429 C484 1.392 . S
C1449 C461 1.897 . S
C1443 C221 1.914 . S
C1469 C455 2.025 . S
C1463 C132 2.044 . S
