# Generated by pormake.
# Topology anh, (6,3)-cn, num edge types: 1
# Building blocks:
#     Node 0, Type 0, BuildingBlock: BETFAJ_clean_sbu_0, # of connection points: 6
#     Node 1, Type 0, BuildingBlock: BETFAJ_clean_sbu_0, # of connection points: 6
#     Node 2, Type 0, BuildingBlock: BETFAJ_clean_sbu_0, # of connection points: 6
#     Node 3, Type 1, BuildingBlock: OLANEW_clean_sbu_2, # of connection points: 3
#     Node 4, Type 1, BuildingBlock: OLANEW_clean_sbu_2, # of connection points: 3
#     Node 5, Type 1, BuildingBlock: OLANEW_clean_sbu_2, # of connection points: 3
#     Node 6, Type 1, BuildingBlock: OLANEW_clean_sbu_2, # of connection points: 3
#     Node 7, Type 1, BuildingBlock: OLANEW_clean_sbu_2, # of connection points: 3
#     Node 8, Type 1, BuildingBlock: OLANEW_clean_sbu_2, # of connection points: 3
#     Edge 9, Type (0, 1), BuildingBlock: TEMPAE_clean_linker_10, # of connection points: 2
#     Edge 10, Type (0, 1), BuildingBlock: TEMPAE_clean_linker_10, # of connection points: 2
#     Edge 11, Type (0, 1), BuildingBlock: TEMPAE_clean_linker_10, # of connection points: 2
#     Edge 12, Type (0, 1), BuildingBlock: TEMPAE_clean_linker_10, # of connection points: 2
#     Edge 13, Type (0, 1), BuildingBlock: TEMPAE_clean_linker_10, # of connection points: 2
#     Edge 14, Type (0, 1), BuildingBlock: TEMPAE_clean_linker_10, # of connection points: 2
#     Edge 15, Type (0, 1), BuildingBlock: TEMPAE_clean_linker_10, # of connection points: 2
#     Edge 16, Type (0, 1), BuildingBlock: TEMPAE_clean_linker_10, # of connection points: 2
#     Edge 17, Type (0, 1), BuildingBlock: TEMPAE_clean_linker_10, # of connection points: 2
#     Edge 18, Type (0, 1), BuildingBlock: TEMPAE_clean_linker_10, # of connection points: 2
#     Edge 19, Type (0, 1), BuildingBlock: TEMPAE_clean_linker_10, # of connection points: 2
#     Edge 20, Type (0, 1), BuildingBlock: TEMPAE_clean_linker_10, # of connection points: 2
#     Edge 21, Type (0, 1), BuildingBlock: TEMPAE_clean_linker_10, # of connection points: 2
#     Edge 22, Type (0, 1), BuildingBlock: TEMPAE_clean_linker_10, # of connection points: 2
#     Edge 23, Type (0, 1), BuildingBlock: TEMPAE_clean_linker_10, # of connection points: 2
#     Edge 24, Type (0, 1), BuildingBlock: TEMPAE_clean_linker_10, # of connection points: 2
#     Edge 25, Type (0, 1), BuildingBlock: TEMPAE_clean_linker_10, # of connection points: 2
#     Edge 26, Type (0, 1), BuildingBlock: TEMPAE_clean_linker_10, # of connection points: 2
# Relax obj value: 0.140
# Max RMSD: 0.169
# Mean RMSD: 0.114
data_MOF--net-anh--node1-BETFAJ_clean_sbu_0--node2-OLANEW_clean_sbu_2--edge1-TEMPAE_clean_linker_10
_symmetry_space_group_name_H-M    P1
_symmetry_Int_Tables_number       1
_symmetry_cell_setting            triclinic
loop_
_symmetry_equiv_pos_as_xyz
'x, y, z'
_cell_length_a     37.936421
_cell_length_b     42.182557
_cell_length_c     51.015608
_cell_angle_alpha  91.811155
_cell_angle_beta   89.675956
_cell_angle_gamma 130.28056
loop_
_atom_site_label
_atom_site_type_symbol
_atom_site_fract_x
_atom_site_fract_y
_atom_site_fract_z
_atom_type_partial_charge
Sm0 Sm 0.0405 0.50191 0.12128 0.0
Sm1 Sm 0.99228 0.53449 0.13956 0.0
C2 C 0.07697 0.47272 0.09791 0.0
C3 C 0.12313 0.48586 0.10128 0.0
C4 C 0.15974 0.52651 0.11056 0.0
C5 C 0.20162 0.53745 0.11824 0.0
C6 C 0.20757 0.50788 0.11685 0.0
C7 C 0.1715 0.46763 0.10653 0.0
C8 C 0.12941 0.45664 0.0989 0.0
C9 C 0.03609 0.50714 0.17461 0.0
C10 C 0.10645 0.5982 0.14086 0.0
C11 C 0.95663 0.56346 0.16446 0.0
C12 C 0.90889 0.54459 0.17015 0.0
C13 C 0.89903 0.55706 0.19279 0.0
C14 C 0.85333 0.53839 0.19849 0.0
C15 C 0.81715 0.50722 0.18148 0.0
C16 C 0.82712 0.49412 0.15916 0.0
C17 C 0.87264 0.51246 0.15362 0.0
C18 C 0.99761 0.52879 0.08612 0.0
C19 C 0.9266 0.43747 0.12445 0.0
O20 O 0.07509 0.49936 0.08704 0.0
O21 O 0.05112 0.45608 0.11856 0.0
O22 O 1.00387 0.49451 0.15854 0.0
O23 O 0.07142 0.51531 0.16281 0.0
O24 O 0.10516 0.5704 0.12718 0.0
O25 O 0.0685 0.59035 0.14902 0.0
O26 O 0.97177 0.54733 0.17652 0.0
O27 O 0.96813 0.57031 0.13977 0.0
O28 O 0.02963 0.5424 0.10252 0.0
O29 O 0.96112 0.51876 0.09758 0.0
O30 O 0.9298 0.46586 0.1386 0.0
O31 O 0.96288 0.44514 0.11324 0.0
H32 H 0.15546 0.54944 0.11278 0.0
H33 H 0.22908 0.56884 0.12576 0.0
H34 H 0.17514 0.44418 0.10542 0.0
H35 H 0.10125 0.42498 0.09215 0.0
H36 H 0.92665 0.58136 0.20594 0.0
H37 H 0.84637 0.54912 0.21571 0.0
H38 H 0.79967 0.46988 0.1459 0.0
H39 H 0.87955 0.50173 0.13636 0.0
Sm40 Sm 0.52962 0.99352 0.47893 0.0
Sm41 Sm 0.47286 0.01974 0.47012 0.0
C42 C 0.56599 0.96144 0.49614 0.0
C43 C 0.55468 0.92105 0.49729 0.0
C44 C 0.5087 0.88369 0.49622 0.0
C45 C 0.49883 0.84568 0.49841 0.0
C46 C 0.53482 0.84455 0.50166 0.0
C47 C 0.58082 0.88211 0.50198 0.0
C48 C 0.5906 0.91999 0.49986 0.0
C49 C 0.5212 0.00469 0.42741 0.0
C50 C 0.41593 0.92166 0.47088 0.0
C51 C 0.43927 0.05506 0.4545 0.0
C52 C 0.45212 0.09589 0.45924 0.0
C53 C 0.49043 0.12619 0.47537 0.0
C54 C 0.50105 0.16416 0.48113 0.0
C55 C 0.47345 0.17242 0.47089 0.0
C56 C 0.43569 0.14225 0.45424 0.0
C57 C 0.4251 0.10424 0.44851 0.0
C58 C 0.48349 0.01021 0.5218 0.0
C59 C 0.58677 0.09161 0.47645 0.0
O60 O 0.54157 0.96673 0.51077 0.0
O61 O 0.57395 0.97679 0.4729 0.0
O62 O 0.48891 0.98703 0.44369 0.0
O63 O 0.55885 0.01533 0.43773 0.0
O64 O 0.45427 0.93095 0.48011 0.0
O65 O 0.41521 0.95026 0.46204 0.0
O66 O 0.46813 0.05464 0.44069 0.0
O67 O 0.42421 0.03174 0.4749 0.0
O68 O 0.51466 0.02726 0.50494 0.0
O69 O 0.44563 -0.00023 0.51207 0.0
O70 O 0.54804 0.0814 0.46715 0.0
O71 O 0.5877 0.06349 0.48604 0.0
H72 H 0.48049 0.88394 0.49411 0.0
H73 H 0.46305 0.81734 0.49828 0.0
H74 H 0.60932 0.88223 0.504 0.0
H75 H 0.62629 0.94856 0.50049 0.0
H76 H 0.51168 0.1202 0.48382 0.0
H77 H 0.53069 0.18697 0.49373 0.0
H78 H 0.41353 0.14752 0.44628 0.0
H79 H 0.39532 0.08107 0.43609 0.0
Sm80 Sm 0.58317 0.56399 0.8517 0.0
Sm81 Sm 0.51799 0.47473 0.86669 0.0
C82 C 0.6229 0.63661 0.8307 0.0
C83 C 0.61125 0.66338 0.82592 0.0
C84 C 0.57427 0.65017 0.80918 0.0
C85 C 0.56411 0.67617 0.80498 0.0
C86 C 0.59044 0.71571 0.81757 0.0
C87 C 0.62723 0.72875 0.83436 0.0
C88 C 0.63764 0.70294 0.83838 0.0
C89 C 0.57942 0.55225 0.9045 0.0
C90 C 0.47297 0.51753 0.86221 0.0
C91 C 0.47836 0.40132 0.8862 0.0
C92 C 0.48223 0.36945 0.87962 0.0
C93 C 0.47768 0.34433 0.89908 0.0
C94 C 0.48301 0.31504 0.8929 0.0
C95 C 0.49268 0.31032 0.86709 0.0
C96 C 0.49737 0.33572 0.8477 0.0
C97 C 0.49246 0.36513 0.85393 0.0
C98 C 0.52285 0.48548 0.81355 0.0
C99 C 0.63014 0.52303 0.85889 0.0
O100 O 0.60043 0.60165 0.81686 0.0
O101 O 0.62937 0.63292 0.85518 0.0
O102 O 0.54502 0.53323 0.88909 0.0
O103 O 0.61776 0.57947 0.8925 0.0
O104 O 0.51034 0.54536 0.84863 0.0
O105 O 0.47041 0.48971 0.87548 0.0
O106 O 0.51534 0.43616 0.89677 0.0
O107 O 0.45867 0.40716 0.8683 0.0
O108 O 0.55679 0.50544 0.82934 0.0
O109 O 0.48487 0.45712 0.82536 0.0
O110 O 0.59025 0.4923 0.86942 0.0
O111 O 0.63525 0.55334 0.84731 0.0
H112 H 0.55309 0.61977 0.79935 0.0
H113 H 0.53532 0.66518 0.7921 0.0
H114 H 0.64845 0.75923 0.8441 0.0
H115 H 0.66644 0.71395 0.85127 0.0
H116 H 0.47026 0.34752 0.91907 0.0
H117 H 0.47916 0.29584 0.9082 0.0
H118 H 0.50563 0.33334 0.82777 0.0
H119 H 0.497 0.38474 0.83868 0.0
O120 O 0.52592 0.10005 0.235 0.0
Cd121 Cd 0.52603 0.12137 0.19098 0.0
O122 O 0.49018 0.03683 0.21977 0.0
Cd123 Cd 0.45163 0.96976 0.21743 0.0
O124 O 0.4056 0.90635 0.2007 0.0
C125 C 0.38812 0.87429 0.2139 0.0
O126 O 0.3986 0.87889 0.23901 0.0
C127 C 0.50733 0.06266 0.23925 0.0
C128 C 0.61491 0.18286 0.17292 0.0
O129 O 0.59604 0.19162 0.18905 0.0
O130 O 0.59184 0.14482 0.16525 0.0
O131 O 0.5381 0.49531 0.60208 0.0
Cd132 Cd 0.53288 0.49543 0.55434 0.0
O133 O 0.52196 0.53643 0.60895 0.0
Cd134 Cd 0.51667 0.54656 0.56803 0.0
O135 O 0.51161 0.58397 0.54248 0.0
C136 C 0.48307 0.58872 0.54957 0.0
O137 O 0.45725 0.56871 0.56995 0.0
C138 C 0.53138 0.51481 0.61785 0.0
C139 C 0.521 0.42801 0.53147 0.0
O140 O 0.56145 0.46342 0.53515 0.0
O141 O 0.4862 0.4247 0.53829 0.0
O142 O 0.08833 0.51909 0.89202 0.0
Cd143 Cd 0.13796 0.52936 0.85478 0.0
O144 O 0.03911 0.52534 0.87523 0.0
Cd145 Cd 0.97947 0.52517 0.87604 0.0
O146 O 0.91839 0.52191 0.86963 0.0
C147 C 0.90537 0.53554 0.88633 0.0
O148 O 0.92862 0.55233 0.90864 0.0
C149 C 0.0551 0.51963 0.89481 0.0
C150 C 0.20824 0.52345 0.86205 0.0
O151 O 0.21522 0.55676 0.86854 0.0
O152 O 0.16781 0.4924 0.8532 0.0
O153 O 0.02676 0.54179 0.38446 0.0
Cd154 Cd 0.0266 0.55463 0.43144 0.0
O155 O 0.9826 0.47344 0.38241 0.0
Cd156 Cd 0.96094 0.45998 0.42315 0.0
O157 O 0.90374 0.40606 0.44428 0.0
C158 C 0.87949 0.37301 0.42984 0.0
O159 O 0.89159 0.37506 0.40536 0.0
C160 C 0.00778 0.5081 0.37123 0.0
C161 C 0.11148 0.63228 0.44467 0.0
O162 O 0.10372 0.59888 0.45028 0.0
O163 O 0.07902 0.629 0.43357 0.0
O164 O 0.52127 0.98046 0.72775 0.0
Cd165 Cd 0.525 0.97468 0.77506 0.0
O166 O 0.53015 0.0376 0.72999 0.0
Cd167 Cd 0.53061 0.04721 0.77239 0.0
O168 O 0.52496 0.08379 0.80078 0.0
C169 C 0.5507 0.12248 0.79675 0.0
O170 O 0.58018 0.13754 0.77749 0.0
C171 C 0.52522 0.00906 0.71646 0.0
C172 C 0.53738 0.91756 0.78549 0.0
O173 O 0.49682 0.90596 0.78343 0.0
O174 O 0.57203 0.95617 0.78281 0.0
O175 O 0.50159 0.47707 0.1052 0.0
Cd176 Cd 0.46714 0.4542 0.14893 0.0
O177 O 0.56844 0.53933 0.11495 0.0
Cd178 Cd 0.54939 0.53898 0.15502 0.0
O179 O 0.49725 0.53905 0.17213 0.0
C180 C 0.50056 0.56978 0.16593 0.0
O181 O 0.53757 0.60023 0.15357 0.0
C182 C 0.54072 0.51017 0.09823 0.0
C183 C 0.52095 0.44522 0.179 0.0
O184 O 0.52485 0.47765 0.18148 0.0
O185 O 0.48943 0.41565 0.16335 0.0
C186 C 0.26927 0.53994 0.15152 0.0
C187 C 0.25064 0.51866 0.12716 0.0
C188 C 0.31008 0.55046 0.16159 0.0
C189 C 0.33273 0.53955 0.14685 0.0
C190 C 0.31395 0.51789 0.1223 0.0
C191 C 0.27298 0.50759 0.11278 0.0
C192 C 0.32896 0.57322 0.18793 0.0
C193 C 0.33737 0.50595 0.10595 0.0
C194 C 0.46019 0.59626 0.15434 0.0
C195 C 0.4593 0.56639 0.16648 0.0
C196 C 0.41923 0.58904 0.14924 0.0
C197 C 0.37658 0.55122 0.15667 0.0
C198 C 0.37585 0.52262 0.17098 0.0
C199 C 0.41732 0.53055 0.17572 0.0
C200 C 0.42138 0.62043 0.1341 0.0
C201 C 0.331 0.48224 0.17959 0.0
H202 H 0.25159 0.54795 0.16287 0.0
H203 H 0.25878 0.49143 0.09386 0.0
H204 H 0.33201 0.555 0.20146 0.0
H205 H 0.36416 0.60354 0.18574 0.0
H206 H 0.30678 0.57896 0.19706 0.0
H207 H 0.31806 0.48894 0.08738 0.0
H208 H 0.37275 0.53425 0.10109 0.0
H209 H 0.34081 0.48602 0.11727 0.0
H210 H 0.49255 0.62425 0.14738 0.0
H211 H 0.41641 0.50751 0.18538 0.0
H212 H 0.40001 0.62682 0.1435 0.0
H213 H 0.40709 0.6076 0.11398 0.0
H214 H 0.4573 0.65026 0.13256 0.0
H215 H 0.30879 0.48771 0.18892 0.0
H216 H 0.33678 0.46628 0.19359 0.0
H217 H 0.31178 0.46113 0.16217 0.0
C218 C 0.67299 0.14606 0.48075 0.0
C219 C 0.63024 0.13528 0.47493 0.0
C220 C 0.71463 0.18624 0.47648 0.0
C221 C 0.71345 0.21635 0.4662 0.0
C222 C 0.6704 0.2063 0.46166 0.0
C223 C 0.62934 0.16589 0.46603 0.0
C224 C 0.75984 0.19577 0.48164 0.0
C225 C 0.66761 0.23757 0.45087 0.0
C226 C 0.82318 0.33005 0.4656 0.0
C227 C 0.83777 0.33302 0.43978 0.0
C228 C 0.78295 0.29219 0.47467 0.0
C229 C 0.75681 0.25662 0.45748 0.0
C230 C 0.77163 0.25943 0.43149 0.0
C231 C 0.81184 0.2975 0.423 0.0
C232 C 0.76817 0.2903 0.5025 0.0
C233 C 0.74474 0.22224 0.41252 0.0
H234 H 0.67409 0.12271 0.48776 0.0
H235 H 0.5965 0.15804 0.46171 0.0
H236 H 0.77659 0.19962 0.46272 0.0
H237 H 0.78384 0.22541 0.49325 0.0
H238 H 0.75504 0.17068 0.4923 0.0
H239 H 0.63191 0.22648 0.45127 0.0
H240 H 0.69084 0.26756 0.46221 0.0
H241 H 0.67929 0.24367 0.43027 0.0
H242 H 0.84302 0.35734 0.4787 0.0
H243 H 0.82278 0.29939 0.40302 0.0
H244 H 0.76513 0.26601 0.51299 0.0
H245 H 0.73355 0.28148 0.50248 0.0
H246 H 0.79282 0.32046 0.51358 0.0
H247 H 0.74153 0.19641 0.42068 0.0
H248 H 0.76129 0.22949 0.39309 0.0
H249 H 0.70924 0.21095 0.40962 0.0
C250 C 0.57849 0.76466 0.83421 0.0
C251 C 0.58007 0.74361 0.81303 0.0
C252 C 0.57016 0.79212 0.83017 0.0
C253 C 0.56372 0.79903 0.8043 0.0
C254 C 0.56488 0.77756 0.78286 0.0
C255 C 0.57281 0.74995 0.78749 0.0
C256 C 0.56861 0.81399 0.85358 0.0
C257 C 0.55859 0.78435 0.75498 0.0
C258 C 0.50586 0.8452 0.79403 0.0
C259 C 0.54404 0.88725 0.79057 0.0
C260 C 0.51173 0.81616 0.7986 0.0
C261 C 0.55684 0.82943 0.79964 0.0
C262 C 0.5955 0.87183 0.79621 0.0
C263 C 0.58864 0.90021 0.79175 0.0
C264 C 0.46966 0.77126 0.80227 0.0
C265 C 0.64415 0.8872 0.79713 0.0
H266 H 0.58354 0.75946 0.854 0.0
H267 H 0.57446 0.73405 0.77105 0.0
H268 H 0.59641 0.84812 0.8523 0.0
H269 H 0.53522 0.8075 0.85366 0.0
H270 H 0.57287 0.80425 0.87245 0.0
H271 H 0.55954 0.76466 0.74053 0.0
H272 H 0.52511 0.77738 0.75266 0.0
H273 H 0.58625 0.81745 0.7503 0.0
H274 H 0.47127 0.83488 0.79317 0.0
H275 H 0.61835 0.93261 0.78909 0.0
H276 H 0.47186 0.76122 0.8216 0.0
H277 H 0.4683 0.75113 0.78703 0.0
H278 H 0.43698 0.76601 0.80116 0.0
H279 H 0.65126 0.88067 0.8164 0.0
H280 H 0.6705 0.92111 0.79401 0.0
H281 H 0.64807 0.8704 0.78187 0.0
C282 C 0.74846 0.47542 0.21005 0.0
C283 C 0.76954 0.49073 0.18576 0.0
C284 C 0.70386 0.46153 0.21427 0.0
C285 C 0.68081 0.46425 0.19392 0.0
C286 C 0.70189 0.47915 0.16925 0.0
C287 C 0.74584 0.49187 0.16544 0.0
C288 C 0.68197 0.44488 0.24058 0.0
C289 C 0.67877 0.48307 0.14708 0.0
C290 C 0.55506 0.41137 0.18544 0.0
C291 C 0.55656 0.44511 0.19041 0.0
C292 C 0.59443 0.41552 0.18954 0.0
C293 C 0.63608 0.45444 0.19839 0.0
C294 C 0.63612 0.48691 0.20632 0.0
C295 C 0.59613 0.4817 0.20243 0.0
C296 C 0.59267 0.3797 0.18176 0.0
C297 C 0.6798 0.52893 0.21586 0.0
H298 H 0.76686 0.47433 0.22568 0.0
H299 H 0.76246 0.50412 0.14675 0.0
H300 H 0.68163 0.46784 0.25149 0.0
H301 H 0.64555 0.41578 0.23804 0.0
H302 H 0.70101 0.43862 0.25268 0.0
H303 H 0.6998 0.4949 0.12908 0.0
H304 H 0.64465 0.45242 0.14213 0.0
H305 H 0.67266 0.50462 0.15324 0.0
H306 H 0.52427 0.38269 0.1766 0.0
H307 H 0.59734 0.50772 0.20673 0.0
H308 H 0.61352 0.37763 0.1956 0.0
H309 H 0.60744 0.38471 0.16198 0.0
H310 H 0.55665 0.34962 0.18108 0.0
H311 H 0.69897 0.52559 0.23019 0.0
H312 H 0.67252 0.54831 0.22514 0.0
H313 H 0.70269 0.54568 0.19897 0.0
C314 C 0.3729 0.8462 0.46128 0.0
C315 C 0.3728 0.87804 0.46973 0.0
C316 C 0.33128 0.80502 0.45806 0.0
C317 C 0.28897 0.79545 0.46445 0.0
C318 C 0.28918 0.82735 0.47431 0.0
C319 C 0.33103 0.86842 0.4763 0.0
C320 C 0.3324 0.77222 0.44668 0.0
C321 C 0.24511 0.81824 0.4823 0.0
C322 C 0.17599 0.70417 0.43122 0.0
C323 C 0.15713 0.6735 0.44982 0.0
C324 C 0.21965 0.74345 0.43536 0.0
C325 C 0.24416 0.75282 0.4592 0.0
C326 C 0.22498 0.72198 0.4782 0.0
C327 C 0.18201 0.6823 0.47302 0.0
C328 C 0.23952 0.77492 0.41422 0.0
C329 C 0.24921 0.73128 0.50425 0.0
H330 H 0.40532 0.85382 0.4561 0.0
H331 H 0.33117 0.89311 0.48315 0.0
H332 H 0.31413 0.74523 0.45955 0.0
H333 H 0.31404 0.76065 0.42736 0.0
H334 H 0.36824 0.78428 0.44395 0.0
H335 H 0.25185 0.84553 0.4923 0.0
H336 H 0.22292 0.80916 0.46471 0.0
H337 H 0.22536 0.79177 0.49563 0.0
H338 H 0.1569 0.69711 0.41313 0.0
H339 H 0.1672 0.65852 0.48744 0.0
H340 H 0.27476 0.787 0.40934 0.0
H341 H 0.24266 0.80177 0.42137 0.0
H342 H 0.2178 0.76159 0.39601 0.0
H343 H 0.28419 0.74162 0.50117 0.0
H344 H 0.22975 0.70387 0.51687 0.0
H345 H 0.25374 0.75713 0.51484 0.0
C346 C 0.47745 0.25419 0.83734 0.0
C347 C 0.49853 0.2795 0.86019 0.0
C348 C 0.48522 0.22706 0.82938 0.0
C349 C 0.51503 0.22531 0.84456 0.0
C350 C 0.53535 0.24987 0.86809 0.0
C351 C 0.52674 0.27662 0.87567 0.0
C352 C 0.46258 0.20118 0.80428 0.0
C353 C 0.56747 0.24901 0.88473 0.0
C354 C 0.50863 0.13277 0.82934 0.0
C355 C 0.54442 0.14947 0.81136 0.0
C356 C 0.49964 0.15745 0.84111 0.0
C357 C 0.52709 0.19978 0.83476 0.0
C358 C 0.5644 0.21717 0.81747 0.0
C359 C 0.5726 0.19185 0.80601 0.0
C360 C 0.45967 0.13785 0.85954 0.0
C361 C 0.59461 0.2622 0.81024 0.0
H362 H 0.45509 0.25589 0.82553 0.0
H363 H 0.54338 0.29636 0.89324 0.0
H364 H 0.48945 0.21082 0.78971 0.0
H365 H 0.4434 0.16789 0.80796 0.0
H366 H 0.43825 0.20434 0.79557 0.0
H367 H 0.57753 0.2674 0.90345 0.0
H368 H 0.55094 0.21653 0.88924 0.0
H369 H 0.59927 0.26186 0.87371 0.0
H370 H 0.48674 0.10009 0.83365 0.0
H371 H 0.60051 0.20515 0.79228 0.0
H372 H 0.43246 0.13689 0.85049 0.0
H373 H 0.47109 0.15679 0.87809 0.0
H374 H 0.44423 0.10566 0.86424 0.0
H375 H 0.57373 0.26745 0.79923 0.0
H376 H 0.6241 0.27166 0.79795 0.0
H377 H 0.60841 0.28271 0.82819 0.0
C378 C 0.54921 0.80268 0.52515 0.0
C379 C 0.52462 0.80466 0.50582 0.0
C380 C 0.53986 0.76536 0.52981 0.0
C381 C 0.50489 0.72897 0.51483 0.0
C382 C 0.48003 0.73069 0.49518 0.0
C383 C 0.49015 0.76857 0.49092 0.0
C384 C 0.56699 0.76478 0.55107 0.0
C385 C 0.44263 0.69252 0.4788 0.0
C386 C 0.51356 0.64445 0.51728 0.0
C387 C 0.48357 0.62063 0.53774 0.0
C388 C 0.51889 0.67853 0.50849 0.0
C389 C 0.49381 0.68907 0.52055 0.0
C390 C 0.46156 0.66372 0.54015 0.0
C391 C 0.45672 0.62973 0.54844 0.0
C392 C 0.55325 0.70459 0.48733 0.0
C393 C 0.43416 0.67393 0.55349 0.0
H394 H 0.57532 0.83026 0.53704 0.0
H395 H 0.47133 0.77002 0.47579 0.0
H396 H 0.54323 0.74303 0.56637 0.0
H397 H 0.58427 0.7534 0.54277 0.0
H398 H 0.5937 0.79599 0.56055 0.0
H399 H 0.42729 0.69929 0.46387 0.0
H400 H 0.45684 0.67937 0.46867 0.0
H401 H 0.41473 0.66823 0.49164 0.0
H402 H 0.53417 0.63744 0.50875 0.0
H403 H 0.43322 0.61135 0.56414 0.0
H404 H 0.5835 0.73515 0.496 0.0
H405 H 0.53767 0.71064 0.47211 0.0
H406 H 0.56569 0.68947 0.47776 0.0
H407 H 0.45784 0.70311 0.56559 0.0
H408 H 0.40726 0.64888 0.56641 0.0
H409 H 0.41721 0.67919 0.53874 0.0
C410 C 0.66436 0.49053 0.87194 0.0
C411 C 0.66997 0.52357 0.86076 0.0
C412 C 0.70183 0.49125 0.87494 0.0
C413 C 0.74646 0.52594 0.86669 0.0
C414 C 0.75222 0.55907 0.85497 0.0
C415 C 0.71408 0.55747 0.85213 0.0
C416 C 0.69376 0.45511 0.88742 0.0
C417 C 0.79899 0.5967 0.8459 0.0
C418 C 0.85135 0.54841 0.8997 0.0
C419 C 0.86464 0.53288 0.88096 0.0
C420 C 0.8133 0.54641 0.89525 0.0
C421 C 0.78738 0.52841 0.87144 0.0
C422 C 0.80053 0.51266 0.8524 0.0
C423 C 0.83886 0.51508 0.85736 0.0
C424 C 0.80078 0.5636 0.91617 0.0
C425 C 0.77399 0.49315 0.82676 0.0
H426 H 0.63059 0.46403 0.87863 0.0
H427 H 0.71907 0.58322 0.84347 0.0
H428 H 0.70613 0.44263 0.87444 0.0
H429 H 0.71382 0.46581 0.90614 0.0
H430 H 0.6567 0.42951 0.89153 0.0
H431 H 0.79751 0.61901 0.83615 0.0
H432 H 0.82337 0.61298 0.86292 0.0
H433 H 0.81331 0.58699 0.832 0.0
H434 H 0.87077 0.56225 0.91802 0.0
H435 H 0.8486 0.50296 0.8427 0.0
H436 H 0.76496 0.5387 0.92267 0.0
H437 H 0.80184 0.58829 0.90805 0.0
H438 H 0.82443 0.57681 0.93356 0.0
H439 H 0.73735 0.46614 0.83056 0.0
H440 H 0.78854 0.48249 0.81392 0.0
H441 H 0.77429 0.51583 0.81609 0.0
C442 C 0.15284 0.67036 0.15987 0.0
C443 C 0.1515 0.63876 0.14874 0.0
C444 C 0.19434 0.70796 0.16936 0.0
C445 C 0.23571 0.71424 0.16775 0.0
C446 C 0.23491 0.68285 0.15611 0.0
C447 C 0.19274 0.64542 0.14666 0.0
C448 C 0.19371 0.74075 0.18148 0.0
C449 C 0.27837 0.68847 0.1541 0.0
C450 C 0.34305 0.82784 0.17449 0.0
C451 C 0.35313 0.83233 0.20146 0.0
C452 C 0.30657 0.78897 0.16289 0.0
C453 C 0.2794 0.75374 0.17864 0.0
C454 C 0.29095 0.75761 0.20556 0.0
C455 C 0.32776 0.79688 0.21666 0.0
C456 C 0.29552 0.78609 0.13408 0.0
C457 C 0.26282 0.72072 0.22299 0.0
H458 H 0.12124 0.66564 0.16146 0.0
H459 H 0.19197 0.62107 0.13822 0.0
H460 H 0.20568 0.74721 0.20226 0.0
H461 H 0.21782 0.77025 0.17108 0.0
H462 H 0.15873 0.73123 0.18081 0.0
H463 H 0.27219 0.66168 0.1437 0.0
H464 H 0.30519 0.71717 0.14358 0.0
H465 H 0.29247 0.69225 0.17403 0.0
H466 H 0.36278 0.85497 0.16251 0.0
H467 H 0.33547 0.79998 0.23747 0.0
H468 H 0.26264 0.78022 0.13178 0.0
H469 H 0.29067 0.75968 0.12418 0.0
H470 H 0.32307 0.81506 0.12396 0.0
H471 H 0.22804 0.71109 0.22555 0.0
H472 H 0.27929 0.72783 0.24268 0.0
H473 H 0.25788 0.69387 0.2138 0.0
C474 C 0.48043 0.2338 0.45968 0.0
C475 C 0.48283 0.21161 0.47844 0.0
C476 C 0.48764 0.27006 0.46687 0.0
C477 C 0.49723 0.28429 0.49346 0.0
C478 C 0.50017 0.26226 0.51242 0.0
C479 C 0.49299 0.22623 0.50468 0.0
C480 C 0.48458 0.29291 0.44607 0.0
C481 C 0.51008 0.27631 0.541 0.0
C482 C 0.55289 0.39601 0.51206 0.0
C483 C 0.51469 0.39169 0.52037 0.0
C484 C 0.5476 0.36147 0.50267 0.0
C485 C 0.50309 0.32163 0.50169 0.0
C486 C 0.4643 0.31719 0.50959 0.0
C487 C 0.47055 0.35228 0.51877 0.0
C488 C 0.58974 0.36746 0.49427 0.0
C489 C 0.41629 0.27519 0.5089 0.0
H490 H 0.47309 0.22287 0.43933 0.0
H491 H 0.49424 0.2089 0.51933 0.0
H492 H 0.4562 0.29327 0.45058 0.0
H493 H 0.51708 0.32574 0.44594 0.0
H494 H 0.4782 0.27848 0.42616 0.0
H495 H 0.51233 0.25627 0.55317 0.0
H496 H 0.5431 0.30878 0.54315 0.0
H497 H 0.48244 0.27591 0.5488 0.0
H498 H 0.5871 0.42638 0.51315 0.0
H499 H 0.44084 0.34864 0.52514 0.0
H500 H 0.58455 0.35455 0.47402 0.0
H501 H 0.59511 0.35025 0.50727 0.0
H502 H 0.62154 0.40073 0.49496 0.0
H503 H 0.40753 0.26069 0.48887 0.0
H504 H 0.38956 0.27722 0.51484 0.0
H505 H 0.41496 0.25421 0.52227 0.0
C506 C 0.43176 0.54152 0.8449 0.0
C507 C 0.43406 0.51831 0.86287 0.0
C508 C 0.39509 0.54225 0.84506 0.0
C509 C 0.35991 0.51977 0.86393 0.0
C510 C 0.3624 0.49673 0.88236 0.0
C511 C 0.39907 0.49599 0.88147 0.0
C512 C 0.39378 0.56681 0.8248 0.0
C513 C 0.32633 0.47294 0.90313 0.0
C514 C 0.28737 0.55216 0.87779 0.0
C515 C 0.24625 0.52152 0.86359 0.0
C516 C 0.32414 0.55155 0.87847 0.0
C517 C 0.32037 0.52002 0.8642 0.0
C518 C 0.27889 0.48898 0.84987 0.0
C519 C 0.24234 0.48988 0.84995 0.0
C520 C 0.36719 0.58484 0.89441 0.0
C521 C 0.27342 0.45517 0.83401 0.0
H522 H 0.45842 0.55882 0.83038 0.0
H523 H 0.40053 0.47819 0.89559 0.0
H524 H 0.36136 0.54586 0.8129 0.0
H525 H 0.39386 0.5907 0.83461 0.0
H526 H 0.4236 0.58255 0.81143 0.0
H527 H 0.33381 0.45758 0.91652 0.0
H528 H 0.32434 0.49426 0.91496 0.0
H529 H 0.29185 0.44881 0.89377 0.0
H530 H 0.29085 0.57671 0.88845 0.0
H531 H 0.21098 0.4662 0.83875 0.0
H532 H 0.39729 0.60351 0.88135 0.0
H533 H 0.37456 0.57035 0.90866 0.0
H534 H 0.36407 0.60612 0.90532 0.0
H535 H 0.30073 0.46926 0.81906 0.0
H536 H 0.23915 0.43335 0.82389 0.0
H537 H 0.27777 0.43719 0.84691 0.0
C538 C 0.84149 0.39004 0.11943 0.0
C539 C 0.88148 0.39529 0.12335 0.0
C540 C 0.79774 0.35191 0.12393 0.0
C541 C 0.7942 0.31883 0.13353 0.0
C542 C 0.83444 0.32332 0.13611 0.0
C543 C 0.87776 0.36153 0.13061 0.0
C544 C 0.75564 0.34807 0.12018 0.0
C545 C 0.8323 0.28921 0.14688 0.0
C546 C 0.69366 0.25159 0.17918 0.0
C547 C 0.66176 0.21602 0.16329 0.0
C548 C 0.73767 0.28438 0.17005 0.0
C549 C 0.7495 0.2821 0.14408 0.0
C550 C 0.71759 0.24598 0.12802 0.0
C551 C 0.67422 0.21301 0.13799 0.0
C552 C 0.77114 0.32189 0.18807 0.0
C553 C 0.7285 0.24291 0.10003 0.0
H554 H 0.84461 0.41635 0.11382 0.0
H555 H 0.90891 0.36597 0.13401 0.0
H556 H 0.7275 0.31811 0.10992 0.0
H557 H 0.74266 0.34856 0.1396 0.0
H558 H 0.76343 0.37391 0.10879 0.0
H559 H 0.86525 0.29525 0.14425 0.0
H560 H 0.82507 0.28686 0.16816 0.0
H561 H 0.80386 0.25871 0.13731 0.0
H562 H 0.68418 0.25375 0.19884 0.0
H563 H 0.6494 0.18555 0.12564 0.0
H564 H 0.77717 0.34937 0.18047 0.0
H565 H 0.80499 0.32923 0.18872 0.0
H566 H 0.75822 0.31709 0.20838 0.0
H567 H 0.73192 0.26652 0.08839 0.0
H568 H 0.70127 0.2117 0.0907 0.0
H569 H 0.76201 0.24969 0.09915 0.0
C570 C 0.04559 0.5489 0.04644 0.0
C571 C 1.00181 0.52586 0.05754 0.0
C572 C 0.05042 0.54658 0.01933 0.0
C573 C 0.01046 0.51963 0.00302 0.0
C574 C 0.9661 0.49599 0.01421 0.0
C575 C 0.96231 0.49982 0.04135 0.0
C576 C 0.09835 0.57294 0.00816 0.0
C577 C 0.92277 0.46608 0.9976 0.0
C578 C 0.02766 0.54101 0.93019 0.0
C579 C 0.03713 0.51544 0.92138 0.0
C580 C 0.01732 0.54172 0.9566 0.0
C581 C 0.01557 0.51564 0.97441 0.0
C582 C 0.02257 0.48808 0.9652 0.0
C583 C 0.03397 0.48879 0.93888 0.0
C584 C 0.011 0.57214 0.96572 0.0
C585 C 0.0198 0.45898 0.98336 0.0
H586 H 0.07617 0.56916 0.05896 0.0
H587 H 0.92842 0.48173 0.04999 0.0
H588 H 0.10465 0.55269 0.9993 0.0
H589 H 0.10148 0.59207 0.99235 0.0
H590 H 0.12569 0.59396 0.02328 0.0
H591 H 0.89091 0.4501 0.00928 0.0
H592 H 0.92154 0.4828 0.98178 0.0
H593 H 0.923 0.44224 0.98801 0.0
H594 H 0.03097 0.56222 0.91681 0.0
H595 H 0.04118 0.46892 0.93205 0.0
H596 H 0.03997 0.59609 0.97923 0.0
H597 H 0.97861 0.55607 0.97682 0.0
H598 H 0.00998 0.58799 0.94913 0.0
H599 H 0.04923 0.47717 0.99761 0.0
H600 H 0.02076 0.43627 0.97256 0.0
H601 H 0.98756 0.44164 0.99477 0.0
C602 C 0.4731 0.99297 0.38882 0.0
C603 C 0.51631 0.01018 0.39961 0.0
C604 C 0.46854 0.99842 0.36238 0.0
C605 C 0.50823 0.02202 0.34657 0.0
C606 C 0.55188 0.03929 0.35743 0.0
C607 C 0.55533 0.03301 0.3838 0.0
C608 C 0.42141 0.97934 0.35144 0.0
C609 C 0.59512 0.06508 0.34134 0.0
C610 C 0.49898 0.01478 0.27201 0.0
C611 C 0.50498 0.05037 0.26656 0.0
C612 C 0.49839 0.00432 0.29801 0.0
C613 C 0.50478 0.03048 0.31901 0.0
C614 C 0.51048 0.06624 0.31363 0.0
C615 C 0.51043 0.07567 0.28754 0.0
C616 C 0.49211 0.96585 0.30298 0.0
C617 C 0.51776 0.09514 0.33544 0.0
H618 H 0.44286 0.97523 0.40103 0.0
H619 H 0.58882 0.04646 0.39213 0.0
H620 H 0.42122 0.0042 0.34525 0.0
H621 H 0.41324 0.95945 0.33377 0.0
H622 H 0.39373 0.96025 0.36595 0.0
H623 H 0.62621 0.07546 0.35257 0.0
H624 H 0.59091 0.04693 0.3236 0.0
H625 H 0.60116 0.09296 0.33459 0.0
H626 H 0.49623 0.99576 0.25608 0.0
H627 H 0.51504 0.10323 0.28356 0.0
H628 H 0.46413 0.94624 0.3172 0.0
H629 H 0.52431 0.97493 0.31178 0.0
H630 H 0.48361 0.94692 0.2847 0.0
H631 H 0.48904 0.0776 0.34949 0.0
H632 H 0.51999 0.12085 0.328 0.0
H633 H 0.55015 0.10884 0.34651 0.0
C634 C 0.48637 0.4653 0.76902 0.0
C635 C 0.52631 0.49043 0.78494 0.0
C636 C 0.48875 0.46953 0.74177 0.0
C637 C 0.53214 0.49968 0.73022 0.0
C638 C 0.57266 0.52509 0.74622 0.0
C639 C 0.56925 0.52014 0.77345 0.0
C640 C 0.44476 0.44195 0.72538 0.0
C641 C 0.61949 0.55766 0.73459 0.0
C642 C 0.53973 0.48548 0.65705 0.0
C643 C 0.53375 0.51214 0.64662 0.0
C644 C 0.54021 0.4817 0.68428 0.0
C645 C 0.53472 0.50523 0.70144 0.0
C646 C 0.52967 0.53283 0.69106 0.0
C647 C 0.52917 0.5359 0.66381 0.0
C648 C 0.54564 0.45192 0.69467 0.0
C649 C 0.52387 0.55854 0.70875 0.0
H650 H 0.45312 0.44233 0.77788 0.0
H651 H 0.60018 0.53961 0.78576 0.0
H652 H 0.43933 0.46128 0.71505 0.0
H653 H 0.44754 0.42432 0.71017 0.0
H654 H 0.41393 0.41948 0.73735 0.0
H655 H 0.64771 0.5743 0.74967 0.0
H656 H 0.62677 0.54301 0.71961 0.0
H657 H 0.61977 0.58076 0.72454 0.0
H658 H 0.54336 0.46706 0.64394 0.0
H659 H 0.52478 0.55677 0.65598 0.0
H660 H 0.51412 0.42702 0.70529 0.0
H661 H 0.57505 0.46841 0.70892 0.0
H662 H 0.55155 0.43725 0.6788 0.0
H663 H 0.49156 0.53775 0.71993 0.0
H664 H 0.52241 0.5799 0.69762 0.0
H665 H 0.55289 0.57724 0.72325 0.0
C666 C 0.53434 0.02355 0.5592 0.0
C667 C 0.49075 0.00745 0.54974 0.0
C668 C 0.54195 0.02264 0.58598 0.0
C669 C 0.50506 0.00519 0.60362 0.0
C670 C 0.46069 0.98793 0.594 0.0
C671 C 0.4541 0.98929 0.56716 0.0
C672 C 0.58971 0.0413 0.59549 0.0
C673 C 0.42044 0.96896 0.61216 0.0
C674 C 0.51163 0.97527 0.6719 0.0
C675 C 0.52275 0.00886 0.68741 0.0
C676 C 0.50673 0.97401 0.6445 0.0
C677 C 0.51325 0.00714 0.63235 0.0
C678 C 0.52565 0.04158 0.64782 0.0
C679 C 0.53018 0.04199 0.67511 0.0
C680 C 0.49349 0.93678 0.62862 0.0
C681 C 0.53312 0.07764 0.6356 0.0
H682 H 0.56271 0.03747 0.54573 0.0
H683 H 0.42028 0.97659 0.55986 0.0
H684 H 0.60403 0.06877 0.60868 0.0
H685 H 0.58806 0.01855 0.60704 0.0
H686 H 0.61386 0.05119 0.57907 0.0
H687 H 0.38766 0.95492 0.60138 0.0
H688 H 0.41561 0.9446 0.62371 0.0
H689 H 0.42769 0.99317 0.6263 0.0
H690 H 0.50587 0.94955 0.6812 0.0
H691 H 0.53906 0.06822 0.68684 0.0
H692 H 0.51851 0.94696 0.61271 0.0
H693 H 0.45905 0.92005 0.61918 0.0
H694 H 0.4922 0.9147 0.64083 0.0
H695 H 0.55939 0.09071 0.6201 0.0
H696 H 0.54464 0.10289 0.65022 0.0
H697 H 0.50051 0.06667 0.6261 0.0
C698 C 0.61261 0.55289 0.94667 0.0
C699 C 0.57601 0.54538 0.93278 0.0
C700 C 0.60932 0.54586 0.97363 0.0
C701 C 0.56917 0.53251 0.987 0.0
C702 C 0.53226 0.52519 0.97296 0.0
C703 C 0.53582 0.53099 0.94588 0.0
C704 C 0.64865 0.55258 0.98777 0.0
C705 C 0.48942 0.51209 0.98662 0.0
C706 C 0.53566 0.48241 0.05315 0.0
C707 C 0.55215 0.51631 0.07018 0.0
C708 C 0.54312 0.48763 0.02607 0.0
C709 C 0.56605 0.52737 0.01581 0.0
C710 C 0.58342 0.56181 0.03302 0.0
C711 C 0.57692 0.55597 0.06008 0.0
C712 C 0.5255 0.45047 0.00839 0.0
C713 C 0.60683 0.60442 0.02279 0.0
H714 H 0.64344 0.56353 0.93634 0.0
H715 H 0.50759 0.52529 0.93503 0.0
H716 H 0.66429 0.57819 0.00278 0.0
H717 H 0.63551 0.52417 0.99819 0.0
H718 H 0.67609 0.5604 0.97419 0.0
H719 H 0.46438 0.50863 0.97291 0.0
H720 H 0.47197 0.48204 0.99611 0.0
H721 H 0.49912 0.53544 0.00231 0.0
H722 H 0.51673 0.45178 0.06101 0.0
H723 H 0.58926 0.58213 0.07322 0.0
H724 H 0.55312 0.4581 0.9951 0.0
H725 H 0.49648 0.44201 0.99592 0.0
H726 H 0.51315 0.42295 0.01968 0.0
H727 H 0.63648 0.61462 0.01047 0.0
H728 H 0.6195 0.62816 0.03884 0.0
H729 H 0.58216 0.60315 0.01018 0.0
C730 C 0.99217 0.49692 0.21471 0.0
C731 C 0.03249 0.50836 0.20335 0.0
C732 C 0.98847 0.49785 0.24206 0.0
C733 C 0.02575 0.5099 0.25836 0.0
C734 C 0.06655 0.52147 0.24694 0.0
C735 C 0.06951 0.52076 0.21954 0.0
C736 C 0.9446 0.48571 0.25351 0.0
C737 C 0.10688 0.53417 0.26365 0.0
C738 C 0.03287 0.54532 0.32897 0.0
C739 C 0.01372 0.509 0.34245 0.0
C740 C 0.03685 0.54603 0.30158 0.0
C741 C 0.02181 0.5097 0.28737 0.0
C742 C 1.00306 0.47313 0.30087 0.0
C743 C 0.99901 0.47315 0.32822 0.0
C744 C 0.05667 0.58551 0.2878 0.0
C745 C 0.98718 0.43393 0.28641 0.0
H746 H 0.96339 0.48706 0.20222 0.0
H747 H 0.10075 0.52964 0.21079 0.0
H748 H 0.92772 0.4578 0.26541 0.0
H749 H 0.95275 0.51111 0.26681 0.0
H750 H 0.91964 0.47883 0.23813 0.0
H751 H 0.13618 0.54244 0.25169 0.0
H752 H 0.11933 0.56128 0.27669 0.0
H753 H 0.09571 0.50841 0.27643 0.0
H754 H 0.04411 0.57311 0.33977 0.0
H755 H 0.98433 0.44499 0.33847 0.0
H756 H 0.03098 0.57954 0.27341 0.0
H757 H 0.0876 0.59603 0.27668 0.0
H758 H 0.06663 0.61105 0.30169 0.0
H759 H 0.95927 0.42329 0.27208 0.0
H760 H 0.97412 0.40832 0.29986 0.0
H761 H 0.01615 0.44027 0.27516 0.0
loop_
_geom_bond_atom_site_label_1
_geom_bond_atom_site_label_2
_geom_bond_distance
_geom_bond_site_symmetry_2
_ccdc_geom_bond_type
Sm0 C2 2.846 . S
Sm0 O20 2.543 . S
Sm0 O21 2.450 . S
Sm0 O22 2.681 . S
Sm0 O23 2.464 . S
Sm0 O24 2.396 . S
Sm0 O28 2.386 . S
Sm0 O31 2.408 1_455 S
Sm1 C11 2.846 . S
Sm1 O22 2.386 1_655 S
Sm1 O25 2.408 1_655 S
Sm1 O26 2.543 . S
Sm1 O27 2.450 . S
Sm1 O28 2.681 1_655 S
Sm1 O29 2.464 . S
Sm1 O30 2.396 . S
C2 Sm0 2.846 . S
C2 C3 1.506 . S
C2 O20 1.261 . S
C2 O21 1.242 . S
C3 C2 1.506 . S
C3 C4 1.358 . S
C3 C8 1.382 . S
C4 C3 1.358 . S
C4 C5 1.385 . S
C4 H32 0.930 . S
C5 C4 1.385 . S
C5 C6 1.395 . S
C5 H33 0.929 . S
C6 C5 1.395 . S
C6 C7 1.335 . S
C7 C6 1.335 . S
C7 C8 1.398 . S
C7 H34 0.930 . S
C8 C3 1.382 . S
C8 C7 1.398 . S
C8 H35 0.929 . S
C9 O22 1.271 . S
C9 O23 1.251 . S
C10 O24 1.252 . S
C10 O25 1.272 . S
C11 Sm1 2.846 . S
C11 C12 1.506 . S
C11 O26 1.261 . S
C11 O27 1.242 . S
C12 C11 1.506 . S
C12 C13 1.358 . S
C12 C17 1.382 . S
C13 C12 1.358 . S
C13 C14 1.385 . S
C13 H36 0.930 . S
C14 C13 1.385 . S
C14 C15 1.395 . S
C14 H37 0.929 . S
C15 C14 1.395 . S
C15 C16 1.335 . S
C16 C15 1.335 . S
C16 C17 1.398 . S
C16 H38 0.930 . S
C17 C12 1.382 . S
C17 C16 1.398 . S
C17 H39 0.929 . S
C18 O28 1.271 . S
C18 O29 1.251 1_455 S
C19 O30 1.252 . S
C19 O31 1.272 . S
O20 Sm0 2.543 . S
O20 C2 1.261 . S
O21 Sm0 2.450 . S
O21 C2 1.242 . S
O22 Sm0 2.681 . S
O22 Sm1 2.386 1_455 S
O22 C9 1.271 . S
O23 Sm0 2.464 . S
O23 C9 1.251 . S
O24 Sm0 2.396 . S
O24 C10 1.252 . S
O25 Sm1 2.408 1_455 S
O25 C10 1.272 . S
O26 Sm1 2.543 . S
O26 C11 1.261 . S
O27 Sm1 2.450 . S
O27 C11 1.242 . S
O28 Sm0 2.386 . S
O28 Sm1 2.681 1_455 S
O28 C18 1.271 . S
O29 Sm1 2.464 . S
O29 C18 1.251 1_655 S
O30 Sm1 2.396 . S
O30 C19 1.252 . S
O31 Sm0 2.408 1_655 S
O31 C19 1.272 . S
H32 C4 0.930 . S
H33 C5 0.929 . S
H34 C7 0.930 . S
H35 C8 0.929 . S
H36 C13 0.930 . S
H37 C14 0.929 . S
H38 C16 0.930 . S
H39 C17 0.929 . S
Sm40 C42 2.846 . S
Sm40 O60 2.543 . S
Sm40 O61 2.450 . S
Sm40 O62 2.681 1_565 S
Sm40 O63 2.464 . S
Sm40 O64 2.396 . S
Sm40 O68 2.386 1_565 S
Sm40 O71 2.408 1_565 S
Sm41 C51 2.846 . S
Sm41 O62 2.386 . S
Sm41 O65 2.408 1_545 S
Sm41 O66 2.543 . S
Sm41 O67 2.450 . S
Sm41 O68 2.681 . S
Sm41 O69 2.464 . S
Sm41 O70 2.396 . S
C42 Sm40 2.846 . S
C42 C43 1.506 . S
C42 O60 1.261 . S
C42 O61 1.242 . S
C43 C42 1.506 . S
C43 C44 1.358 . S
C43 C48 1.382 . S
C44 C43 1.358 . S
C44 C45 1.385 . S
C44 H72 0.930 . S
C45 C44 1.385 . S
C45 C46 1.395 . S
C45 H73 0.929 . S
C46 C45 1.395 . S
C46 C47 1.335 . S
C47 C46 1.335 . S
C47 C48 1.398 . S
C47 H74 0.930 . S
C48 C43 1.382 . S
C48 C47 1.398 . S
C48 H75 0.929 . S
C49 O62 1.271 . S
C49 O63 1.251 1_545 S
C50 O64 1.252 . S
C50 O65 1.272 . S
C51 Sm41 2.846 . S
C51 C52 1.506 . S
C51 O66 1.261 . S
C51 O67 1.242 . S
C52 C51 1.506 . S
C52 C53 1.358 . S
C52 C57 1.382 . S
C53 C52 1.358 . S
C53 C54 1.385 . S
C53 H76 0.930 . S
C54 C53 1.385 . S
C54 C55 1.395 . S
C54 H77 0.929 . S
C55 C54 1.395 . S
C55 C56 1.335 . S
C56 C55 1.335 . S
C56 C57 1.398 . S
C56 H78 0.930 . S
C57 C52 1.382 . S
C57 C56 1.398 . S
C57 H79 0.929 . S
C58 O68 1.271 . S
C58 O69 1.251 . S
C59 O70 1.252 . S
C59 O71 1.272 . S
O60 Sm40 2.543 . S
O60 C42 1.261 . S
O61 Sm40 2.450 . S
O61 C42 1.242 . S
O62 Sm40 2.681 1_545 S
O62 Sm41 2.386 . S
O62 C49 1.271 . S
O63 Sm40 2.464 . S
O63 C49 1.251 1_565 S
O64 Sm40 2.396 . S
O64 C50 1.252 . S
O65 Sm41 2.408 1_565 S
O65 C50 1.272 . S
O66 Sm41 2.543 . S
O66 C51 1.261 . S
O67 Sm41 2.450 . S
O67 C51 1.242 . S
O68 Sm40 2.386 1_545 S
O68 Sm41 2.681 . S
O68 C58 1.271 . S
O69 Sm41 2.464 . S
O69 C58 1.251 . S
O70 Sm41 2.396 . S
O70 C59 1.252 . S
O71 Sm40 2.408 1_545 S
O71 C59 1.272 . S
H72 C44 0.930 . S
H73 C45 0.929 . S
H74 C47 0.930 . S
H75 C48 0.929 . S
H76 C53 0.930 . S
H77 C54 0.929 . S
H78 C56 0.930 . S
H79 C57 0.929 . S
Sm80 C82 2.846 . S
Sm80 O100 2.543 . S
Sm80 O101 2.450 . S
Sm80 O102 2.681 . S
Sm80 O103 2.464 . S
Sm80 O104 2.396 . S
Sm80 O108 2.386 . S
Sm80 O111 2.408 . S
Sm81 C91 2.846 . S
Sm81 O102 2.386 . S
Sm81 O105 2.408 . S
Sm81 O106 2.543 . S
Sm81 O107 2.450 . S
Sm81 O108 2.681 . S
Sm81 O109 2.464 . S
Sm81 O110 2.396 . S
C82 Sm80 2.846 . S
C82 C83 1.506 . S
C82 O100 1.261 . S
C82 O101 1.242 . S
C83 C82 1.506 . S
C83 C84 1.358 . S
C83 C88 1.382 . S
C84 C83 1.358 . S
C84 C85 1.385 . S
C84 H112 0.930 . S
C85 C84 1.385 . S
C85 C86 1.395 . S
C85 H113 0.929 . S
C86 C85 1.395 . S
C86 C87 1.335 . S
C87 C86 1.335 . S
C87 C88 1.398 . S
C87 H114 0.930 . S
C88 C83 1.382 . S
C88 C87 1.398 . S
C88 H115 0.929 . S
C89 O102 1.271 . S
C89 O103 1.251 . S
C90 O104 1.252 . S
C90 O105 1.272 . S
C91 Sm81 2.846 . S
C91 C92 1.506 . S
C91 O106 1.261 . S
C91 O107 1.242 . S
C92 C91 1.506 . S
C92 C93 1.358 . S
C92 C97 1.382 . S
C93 C92 1.358 . S
C93 C94 1.385 . S
C93 H116 0.930 . S
C94 C93 1.385 . S
C94 C95 1.395 . S
C94 H117 0.929 . S
C95 C94 1.395 . S
C95 C96 1.335 . S
C96 C95 1.335 . S
C96 C97 1.398 . S
C96 H118 0.930 . S
C97 C92 1.382 . S
C97 C96 1.398 . S
C97 H119 0.929 . S
C98 O108 1.271 . S
C98 O109 1.251 . S
C99 O110 1.252 . S
C99 O111 1.272 . S
O100 Sm80 2.543 . S
O100 C82 1.261 . S
O101 Sm80 2.450 . S
O101 C82 1.242 . S
O102 Sm80 2.681 . S
O102 Sm81 2.386 . S
O102 C89 1.271 . S
O103 Sm80 2.464 . S
O103 C89 1.251 . S
O104 Sm80 2.396 . S
O104 C90 1.252 . S
O105 Sm81 2.408 . S
O105 C90 1.272 . S
O106 Sm81 2.543 . S
O106 C91 1.261 . S
O107 Sm81 2.450 . S
O107 C91 1.242 . S
O108 Sm80 2.386 . S
O108 Sm81 2.681 . S
O108 C98 1.271 . S
O109 Sm81 2.464 . S
O109 C98 1.251 . S
O110 Sm81 2.396 . S
O110 C99 1.252 . S
O111 Sm80 2.408 . S
O111 C99 1.272 . S
H112 C84 0.930 . S
H113 C85 0.929 . S
H114 C87 0.930 . S
H115 C88 0.929 . S
H116 C93 0.930 . S
H117 C94 0.929 . S
H118 C96 0.930 . S
H119 C97 0.929 . S
O120 Cd121 2.300 . S
O120 C127 1.275 . S
Cd121 O120 2.300 . S
Cd121 O129 2.381 . S
Cd121 O130 2.378 . S
O122 Cd123 2.385 . S
O122 C127 1.255 1_565 S
Cd123 O122 2.385 . S
Cd123 O124 2.317 . S
O124 Cd123 2.317 . S
O124 C125 1.232 . S
C125 O124 1.232 . S
C125 O126 1.218 . S
O126 C125 1.218 . S
C127 O120 1.275 . S
C127 O122 1.255 1_545 S
C128 O129 1.258 . S
C128 O130 1.256 . S
O129 Cd121 2.381 . S
O129 C128 1.258 . S
O130 Cd121 2.378 . S
O130 C128 1.256 . S
O131 Cd132 2.300 . S
O131 C138 1.275 . S
Cd132 O131 2.300 . S
Cd132 O140 2.381 . S
Cd132 O141 2.378 . S
O133 Cd134 2.385 . S
O133 C138 1.255 . S
Cd134 O133 2.385 . S
Cd134 O135 2.317 . S
O135 Cd134 2.317 . S
O135 C136 1.232 . S
C136 O135 1.232 . S
C136 O137 1.218 . S
O137 C136 1.218 . S
C138 O131 1.275 . S
C138 O133 1.255 . S
C139 O140 1.258 . S
C139 O141 1.256 . S
O140 Cd132 2.381 . S
O140 C139 1.258 . S
O141 Cd132 2.378 . S
O141 C139 1.256 . S
O142 Cd143 2.300 . S
O142 C149 1.275 . S
Cd143 O142 2.300 . S
Cd143 O151 2.381 . S
Cd143 O152 2.378 . S
O144 Cd145 2.385 . S
O144 C149 1.255 1_655 S
Cd145 O144 2.385 . S
Cd145 O146 2.317 . S
O146 Cd145 2.317 . S
O146 C147 1.232 . S
C147 O146 1.232 . S
C147 O148 1.218 . S
O148 C147 1.218 . S
C149 O142 1.275 . S
C149 O144 1.255 1_455 S
C150 O151 1.258 . S
C150 O152 1.256 . S
O151 Cd143 2.381 . S
O151 C150 1.258 . S
O152 Cd143 2.378 . S
O152 C150 1.256 . S
O153 Cd154 2.300 . S
O153 C160 1.275 1_455 S
Cd154 O153 2.300 . S
Cd154 O162 2.381 . S
Cd154 O163 2.378 . S
O155 Cd156 2.385 . S
O155 C160 1.255 . S
Cd156 O155 2.385 . S
Cd156 O157 2.317 . S
O157 Cd156 2.317 . S
O157 C158 1.232 . S
C158 O157 1.232 . S
C158 O159 1.218 . S
O159 C158 1.218 . S
C160 O153 1.275 1_655 S
C160 O155 1.255 . S
C161 O162 1.258 . S
C161 O163 1.256 . S
O162 Cd154 2.381 . S
O162 C161 1.258 . S
O163 Cd154 2.378 . S
O163 C161 1.256 . S
O164 Cd165 2.300 . S
O164 C171 1.275 1_565 S
Cd165 O164 2.300 . S
Cd165 O173 2.381 . S
Cd165 O174 2.378 . S
O166 Cd167 2.385 . S
O166 C171 1.255 . S
Cd167 O166 2.385 . S
Cd167 O168 2.317 . S
O168 Cd167 2.317 . S
O168 C169 1.232 . S
C169 O168 1.232 . S
C169 O170 1.218 . S
O170 C169 1.218 . S
C171 O164 1.275 1_545 S
C171 O166 1.255 . S
C172 O173 1.258 . S
C172 O174 1.256 . S
O173 Cd165 2.381 . S
O173 C172 1.258 . S
O174 Cd165 2.378 . S
O174 C172 1.256 . S
O175 Cd176 2.300 . S
O175 C182 1.275 . S
Cd176 O175 2.300 . S
Cd176 O184 2.381 . S
Cd176 O185 2.378 . S
O177 Cd178 2.385 . S
O177 C182 1.255 . S
Cd178 O177 2.385 . S
Cd178 O179 2.317 . S
O179 Cd178 2.317 . S
O179 C180 1.232 . S
C180 O179 1.232 . S
C180 O181 1.218 . S
O181 C180 1.218 . S
C182 O175 1.275 . S
C182 O177 1.255 . S
C183 O184 1.258 . S
C183 O185 1.256 . S
O184 Cd176 2.381 . S
O184 C183 1.258 . S
O185 Cd176 2.378 . S
O185 C183 1.256 . S
C186 C187 1.391 . S
C186 C188 1.394 . S
C186 H202 0.931 . S
C187 C186 1.391 . S
C187 C191 1.376 . S
C188 C186 1.394 . S
C188 C189 1.369 . S
C188 C192 1.531 . S
C189 C188 1.369 . S
C189 C190 1.410 . S
C189 C197 1.503 . S
C190 C189 1.410 . S
C190 C191 1.392 . S
C190 C193 1.511 . S
C191 C187 1.376 . S
C191 C190 1.392 . S
C191 H203 0.929 . S
C192 C188 1.531 . S
C192 H204 0.960 . S
C192 H205 0.962 . S
C192 H206 0.960 . S
C193 C190 1.511 . S
C193 H207 0.961 . S
C193 H208 0.961 . S
C193 H209 0.961 . S
C194 C195 1.370 . S
C194 C196 1.363 . S
C194 H210 0.931 . S
C195 C194 1.370 . S
C195 C199 1.408 . S
C196 C194 1.363 . S
C196 C197 1.370 . S
C196 C200 1.524 . S
C197 C189 1.503 . S
C197 C196 1.370 . S
C197 C198 1.403 . S
C198 C197 1.403 . S
C198 C199 1.404 . S
C198 C201 1.539 . S
C199 C195 1.408 . S
C199 C198 1.404 . S
C199 H211 0.930 . S
C200 C196 1.524 . S
C200 H212 0.956 . S
C200 H213 0.961 . S
C200 H214 0.961 . S
C201 C198 1.539 . S
C201 H215 0.958 . S
C201 H216 0.961 . S
C201 H217 0.960 . S
H202 C186 0.931 . S
H203 C191 0.929 . S
H204 C192 0.960 . S
H205 C192 0.962 . S
H206 C192 0.960 . S
H207 C193 0.961 . S
H208 C193 0.961 . S
H209 C193 0.961 . S
H210 C194 0.931 . S
H211 C199 0.930 . S
H212 C200 0.956 . S
H213 C200 0.961 . S
H214 C200 0.961 . S
H215 C201 0.958 . S
H216 C201 0.961 . S
H217 C201 0.960 . S
C218 C219 1.391 . S
C218 C220 1.394 . S
C218 H234 0.931 . S
C219 C218 1.391 . S
C219 C223 1.376 . S
C220 C218 1.394 . S
C220 C221 1.369 . S
C220 C224 1.531 . S
C221 C220 1.369 . S
C221 C222 1.410 . S
C221 C229 1.503 . S
C222 C221 1.410 . S
C222 C223 1.392 . S
C222 C225 1.511 . S
C223 C219 1.376 . S
C223 C222 1.392 . S
C223 H235 0.929 . S
C224 C220 1.531 . S
C224 H236 0.960 . S
C224 H237 0.962 . S
C224 H238 0.960 . S
C225 C222 1.511 . S
C225 H239 0.961 . S
C225 H240 0.961 . S
C225 H241 0.961 . S
C226 C227 1.370 . S
C226 C228 1.363 . S
C226 H242 0.931 . S
C227 C226 1.370 . S
C227 C231 1.408 . S
C228 C226 1.363 . S
C228 C229 1.370 . S
C228 C232 1.524 . S
C229 C221 1.503 . S
C229 C228 1.370 . S
C229 C230 1.403 . S
C230 C229 1.403 . S
C230 C231 1.404 . S
C230 C233 1.539 . S
C231 C227 1.408 . S
C231 C230 1.404 . S
C231 H243 0.930 . S
C232 C228 1.524 . S
C232 H244 0.956 . S
C232 H245 0.961 . S
C232 H246 0.961 . S
C233 C230 1.539 . S
C233 H247 0.958 . S
C233 H248 0.961 . S
C233 H249 0.960 . S
H234 C218 0.931 . S
H235 C223 0.929 . S
H236 C224 0.960 . S
H237 C224 0.962 . S
H238 C224 0.960 . S
H239 C225 0.961 . S
H240 C225 0.961 . S
H241 C225 0.961 . S
H242 C226 0.931 . S
H243 C231 0.930 . S
H244 C232 0.956 . S
H245 C232 0.961 . S
H246 C232 0.961 . S
H247 C233 0.958 . S
H248 C233 0.961 . S
H249 C233 0.960 . S
C250 C251 1.391 . S
C250 C252 1.394 . S
C250 H266 0.931 . S
C251 C250 1.391 . S
C251 C255 1.376 . S
C252 C250 1.394 . S
C252 C253 1.369 . S
C252 C256 1.531 . S
C253 C252 1.369 . S
C253 C254 1.410 . S
C253 C261 1.503 . S
C254 C253 1.410 . S
C254 C255 1.392 . S
C254 C257 1.511 . S
C255 C251 1.376 . S
C255 C254 1.392 . S
C255 H267 0.929 . S
C256 C252 1.531 . S
C256 H268 0.960 . S
C256 H269 0.962 . S
C256 H270 0.960 . S
C257 C254 1.511 . S
C257 H271 0.961 . S
C257 H272 0.961 . S
C257 H273 0.961 . S
C258 C259 1.370 . S
C258 C260 1.363 . S
C258 H274 0.931 . S
C259 C258 1.370 . S
C259 C263 1.408 . S
C260 C258 1.363 . S
C260 C261 1.370 . S
C260 C264 1.524 . S
C261 C253 1.503 . S
C261 C260 1.370 . S
C261 C262 1.403 . S
C262 C261 1.403 . S
C262 C263 1.404 . S
C262 C265 1.539 . S
C263 C259 1.408 . S
C263 C262 1.404 . S
C263 H275 0.930 . S
C264 C260 1.524 . S
C264 H276 0.956 . S
C264 H277 0.961 . S
C264 H278 0.961 . S
C265 C262 1.539 . S
C265 H279 0.958 . S
C265 H280 0.961 . S
C265 H281 0.960 . S
H266 C250 0.931 . S
H267 C255 0.929 . S
H268 C256 0.960 . S
H269 C256 0.962 . S
H270 C256 0.960 . S
H271 C257 0.961 . S
H272 C257 0.961 . S
H273 C257 0.961 . S
H274 C258 0.931 . S
H275 C263 0.930 . S
H276 C264 0.956 . S
H277 C264 0.961 . S
H278 C264 0.961 . S
H279 C265 0.958 . S
H280 C265 0.961 . S
H281 C265 0.960 . S
C282 C283 1.391 . S
C282 C284 1.394 . S
C282 H298 0.931 . S
C283 C282 1.391 . S
C283 C287 1.376 . S
C284 C282 1.394 . S
C284 C285 1.369 . S
C284 C288 1.531 . S
C285 C284 1.369 . S
C285 C286 1.410 . S
C285 C293 1.503 . S
C286 C285 1.410 . S
C286 C287 1.392 . S
C286 C289 1.511 . S
C287 C283 1.376 . S
C287 C286 1.392 . S
C287 H299 0.929 . S
C288 C284 1.531 . S
C288 H300 0.960 . S
C288 H301 0.962 . S
C288 H302 0.960 . S
C289 C286 1.511 . S
C289 H303 0.961 . S
C289 H304 0.961 . S
C289 H305 0.961 . S
C290 C291 1.370 . S
C290 C292 1.363 . S
C290 H306 0.931 . S
C291 C290 1.370 . S
C291 C295 1.408 . S
C292 C290 1.363 . S
C292 C293 1.370 . S
C292 C296 1.524 . S
C293 C285 1.503 . S
C293 C292 1.370 . S
C293 C294 1.403 . S
C294 C293 1.403 . S
C294 C295 1.404 . S
C294 C297 1.539 . S
C295 C291 1.408 . S
C295 C294 1.404 . S
C295 H307 0.930 . S
C296 C292 1.524 . S
C296 H308 0.956 . S
C296 H309 0.961 . S
C296 H310 0.961 . S
C297 C294 1.539 . S
C297 H311 0.958 . S
C297 H312 0.961 . S
C297 H313 0.960 . S
H298 C282 0.931 . S
H299 C287 0.929 . S
H300 C288 0.960 . S
H301 C288 0.962 . S
H302 C288 0.960 . S
H303 C289 0.961 . S
H304 C289 0.961 . S
H305 C289 0.961 . S
H306 C290 0.931 . S
H307 C295 0.930 . S
H308 C296 0.956 . S
H309 C296 0.961 . S
H310 C296 0.961 . S
H311 C297 0.958 . S
H312 C297 0.961 . S
H313 C297 0.960 . S
C314 C315 1.391 . S
C314 C316 1.394 . S
C314 H330 0.931 . S
C315 C314 1.391 . S
C315 C319 1.376 . S
C316 C314 1.394 . S
C316 C317 1.369 . S
C316 C320 1.531 . S
C317 C316 1.369 . S
C317 C318 1.410 . S
C317 C325 1.503 . S
C318 C317 1.410 . S
C318 C319 1.392 . S
C318 C321 1.511 . S
C319 C315 1.376 . S
C319 C318 1.392 . S
C319 H331 0.929 . S
C320 C316 1.531 . S
C320 H332 0.960 . S
C320 H333 0.962 . S
C320 H334 0.960 . S
C321 C318 1.511 . S
C321 H335 0.961 . S
C321 H336 0.961 . S
C321 H337 0.961 . S
C322 C323 1.370 . S
C322 C324 1.363 . S
C322 H338 0.931 . S
C323 C322 1.370 . S
C323 C327 1.408 . S
C324 C322 1.363 . S
C324 C325 1.370 . S
C324 C328 1.524 . S
C325 C317 1.503 . S
C325 C324 1.370 . S
C325 C326 1.403 . S
C326 C325 1.403 . S
C326 C327 1.404 . S
C326 C329 1.539 . S
C327 C323 1.408 . S
C327 C326 1.404 . S
C327 H339 0.930 . S
C328 C324 1.524 . S
C328 H340 0.956 . S
C328 H341 0.961 . S
C328 H342 0.961 . S
C329 C326 1.539 . S
C329 H343 0.958 . S
C329 H344 0.961 . S
C329 H345 0.960 . S
H330 C314 0.931 . S
H331 C319 0.929 . S
H332 C320 0.960 . S
H333 C320 0.962 . S
H334 C320 0.960 . S
H335 C321 0.961 . S
H336 C321 0.961 . S
H337 C321 0.961 . S
H338 C322 0.931 . S
H339 C327 0.930 . S
H340 C328 0.956 . S
H341 C328 0.961 . S
H342 C328 0.961 . S
H343 C329 0.958 . S
H344 C329 0.961 . S
H345 C329 0.960 . S
C346 C347 1.391 . S
C346 C348 1.394 . S
C346 H362 0.931 . S
C347 C346 1.391 . S
C347 C351 1.376 . S
C348 C346 1.394 . S
C348 C349 1.369 . S
C348 C352 1.531 . S
C349 C348 1.369 . S
C349 C350 1.410 . S
C349 C357 1.503 . S
C350 C349 1.410 . S
C350 C351 1.392 . S
C350 C353 1.511 . S
C351 C347 1.376 . S
C351 C350 1.392 . S
C351 H363 0.929 . S
C352 C348 1.531 . S
C352 H364 0.960 . S
C352 H365 0.962 . S
C352 H366 0.960 . S
C353 C350 1.511 . S
C353 H367 0.961 . S
C353 H368 0.961 . S
C353 H369 0.961 . S
C354 C355 1.370 . S
C354 C356 1.363 . S
C354 H370 0.931 . S
C355 C354 1.370 . S
C355 C359 1.408 . S
C356 C354 1.363 . S
C356 C357 1.370 . S
C356 C360 1.524 . S
C357 C349 1.503 . S
C357 C356 1.370 . S
C357 C358 1.403 . S
C358 C357 1.403 . S
C358 C359 1.404 . S
C358 C361 1.539 . S
C359 C355 1.408 . S
C359 C358 1.404 . S
C359 H371 0.930 . S
C360 C356 1.524 . S
C360 H372 0.956 . S
C360 H373 0.961 . S
C360 H374 0.961 . S
C361 C358 1.539 . S
C361 H375 0.958 . S
C361 H376 0.961 . S
C361 H377 0.960 . S
H362 C346 0.931 . S
H363 C351 0.929 . S
H364 C352 0.960 . S
H365 C352 0.962 . S
H366 C352 0.960 . S
H367 C353 0.961 . S
H368 C353 0.961 . S
H369 C353 0.961 . S
H370 C354 0.931 . S
H371 C359 0.930 . S
H372 C360 0.956 . S
H373 C360 0.961 . S
H374 C360 0.961 . S
H375 C361 0.958 . S
H376 C361 0.961 . S
H377 C361 0.960 . S
C378 C379 1.391 . S
C378 C380 1.394 . S
C378 H394 0.931 . S
C379 C378 1.391 . S
C379 C383 1.376 . S
C380 C378 1.394 . S
C380 C381 1.369 . S
C380 C384 1.531 . S
C381 C380 1.369 . S
C381 C382 1.410 . S
C381 C389 1.503 . S
C382 C381 1.410 . S
C382 C383 1.392 . S
C382 C385 1.511 . S
C383 C379 1.376 . S
C383 C382 1.392 . S
C383 H395 0.929 . S
C384 C380 1.531 . S
C384 H396 0.960 . S
C384 H397 0.962 . S
C384 H398 0.960 . S
C385 C382 1.511 . S
C385 H399 0.961 . S
C385 H400 0.961 . S
C385 H401 0.961 . S
C386 C387 1.370 . S
C386 C388 1.363 . S
C386 H402 0.931 . S
C387 C386 1.370 . S
C387 C391 1.408 . S
C388 C386 1.363 . S
C388 C389 1.370 . S
C388 C392 1.524 . S
C389 C381 1.503 . S
C389 C388 1.370 . S
C389 C390 1.403 . S
C390 C389 1.403 . S
C390 C391 1.404 . S
C390 C393 1.539 . S
C391 C387 1.408 . S
C391 C390 1.404 . S
C391 H403 0.930 . S
C392 C388 1.524 . S
C392 H404 0.956 . S
C392 H405 0.961 . S
C392 H406 0.961 . S
C393 C390 1.539 . S
C393 H407 0.958 . S
C393 H408 0.961 . S
C393 H409 0.960 . S
H394 C378 0.931 . S
H395 C383 0.929 . S
H396 C384 0.960 . S
H397 C384 0.962 . S
H398 C384 0.960 . S
H399 C385 0.961 . S
H400 C385 0.961 . S
H401 C385 0.961 . S
H402 C386 0.931 . S
H403 C391 0.930 . S
H404 C392 0.956 . S
H405 C392 0.961 . S
H406 C392 0.961 . S
H407 C393 0.958 . S
H408 C393 0.961 . S
H409 C393 0.960 . S
C410 C411 1.391 . S
C410 C412 1.394 . S
C410 H426 0.931 . S
C411 C410 1.391 . S
C411 C415 1.376 . S
C412 C410 1.394 . S
C412 C413 1.369 . S
C412 C416 1.531 . S
C413 C412 1.369 . S
C413 C414 1.410 . S
C413 C421 1.503 . S
C414 C413 1.410 . S
C414 C415 1.392 . S
C414 C417 1.511 . S
C415 C411 1.376 . S
C415 C414 1.392 . S
C415 H427 0.929 . S
C416 C412 1.531 . S
C416 H428 0.960 . S
C416 H429 0.962 . S
C416 H430 0.960 . S
C417 C414 1.511 . S
C417 H431 0.961 . S
C417 H432 0.961 . S
C417 H433 0.961 . S
C418 C419 1.370 . S
C418 C420 1.363 . S
C418 H434 0.931 . S
C419 C418 1.370 . S
C419 C423 1.408 . S
C420 C418 1.363 . S
C420 C421 1.370 . S
C420 C424 1.524 . S
C421 C413 1.503 . S
C421 C420 1.370 . S
C421 C422 1.403 . S
C422 C421 1.403 . S
C422 C423 1.404 . S
C422 C425 1.539 . S
C423 C419 1.408 . S
C423 C422 1.404 . S
C423 H435 0.930 . S
C424 C420 1.524 . S
C424 H436 0.956 . S
C424 H437 0.961 . S
C424 H438 0.961 . S
C425 C422 1.539 . S
C425 H439 0.958 . S
C425 H440 0.961 . S
C425 H441 0.960 . S
H426 C410 0.931 . S
H427 C415 0.929 . S
H428 C416 0.960 . S
H429 C416 0.962 . S
H430 C416 0.960 . S
H431 C417 0.961 . S
H432 C417 0.961 . S
H433 C417 0.961 . S
H434 C418 0.931 . S
H435 C423 0.930 . S
H436 C424 0.956 . S
H437 C424 0.961 . S
H438 C424 0.961 . S
H439 C425 0.958 . S
H440 C425 0.961 . S
H441 C425 0.960 . S
C442 C443 1.391 . S
C442 C444 1.394 . S
C442 H458 0.931 . S
C443 C442 1.391 . S
C443 C447 1.376 . S
C444 C442 1.394 . S
C444 C445 1.369 . S
C444 C448 1.531 . S
C445 C444 1.369 . S
C445 C446 1.410 . S
C445 C453 1.503 . S
C446 C445 1.410 . S
C446 C447 1.392 . S
C446 C449 1.511 . S
C447 C443 1.376 . S
C447 C446 1.392 . S
C447 H459 0.929 . S
C448 C444 1.531 . S
C448 H460 0.960 . S
C448 H461 0.962 . S
C448 H462 0.960 . S
C449 C446 1.511 . S
C449 H463 0.961 . S
C449 H464 0.961 . S
C449 H465 0.961 . S
C450 C451 1.370 . S
C450 C452 1.363 . S
C450 H466 0.931 . S
C451 C450 1.370 . S
C451 C455 1.408 . S
C452 C450 1.363 . S
C452 C453 1.370 . S
C452 C456 1.524 . S
C453 C445 1.503 . S
C453 C452 1.370 . S
C453 C454 1.403 . S
C454 C453 1.403 . S
C454 C455 1.404 . S
C454 C457 1.539 . S
C455 C451 1.408 . S
C455 C454 1.404 . S
C455 H467 0.930 . S
C456 C452 1.524 . S
C456 H468 0.956 . S
C456 H469 0.961 . S
C456 H470 0.961 . S
C457 C454 1.539 . S
C457 H471 0.958 . S
C457 H472 0.961 . S
C457 H473 0.960 . S
H458 C442 0.931 . S
H459 C447 0.929 . S
H460 C448 0.960 . S
H461 C448 0.962 . S
H462 C448 0.960 . S
H463 C449 0.961 . S
H464 C449 0.961 . S
H465 C449 0.961 . S
H466 C450 0.931 . S
H467 C455 0.930 . S
H468 C456 0.956 . S
H469 C456 0.961 . S
H470 C456 0.961 . S
H471 C457 0.958 . S
H472 C457 0.961 . S
H473 C457 0.960 . S
C474 C475 1.391 . S
C474 C476 1.394 . S
C474 H490 0.931 . S
C475 C474 1.391 . S
C475 C479 1.376 . S
C476 C474 1.394 . S
C476 C477 1.369 . S
C476 C480 1.531 . S
C477 C476 1.369 . S
C477 C478 1.410 . S
C477 C485 1.503 . S
C478 C477 1.410 . S
C478 C479 1.392 . S
C478 C481 1.511 . S
C479 C475 1.376 . S
C479 C478 1.392 . S
C479 H491 0.929 . S
C480 C476 1.531 . S
C480 H492 0.960 . S
C480 H493 0.962 . S
C480 H494 0.960 . S
C481 C478 1.511 . S
C481 H495 0.961 . S
C481 H496 0.961 . S
C481 H497 0.961 . S
C482 C483 1.370 . S
C482 C484 1.363 . S
C482 H498 0.931 . S
C483 C482 1.370 . S
C483 C487 1.408 . S
C484 C482 1.363 . S
C484 C485 1.370 . S
C484 C488 1.524 . S
C485 C477 1.503 . S
C485 C484 1.370 . S
C485 C486 1.403 . S
C486 C485 1.403 . S
C486 C487 1.404 . S
C486 C489 1.539 . S
C487 C483 1.408 . S
C487 C486 1.404 . S
C487 H499 0.930 . S
C488 C484 1.524 . S
C488 H500 0.956 . S
C488 H501 0.961 . S
C488 H502 0.961 . S
C489 C486 1.539 . S
C489 H503 0.958 . S
C489 H504 0.961 . S
C489 H505 0.960 . S
H490 C474 0.931 . S
H491 C479 0.929 . S
H492 C480 0.960 . S
H493 C480 0.962 . S
H494 C480 0.960 . S
H495 C481 0.961 . S
H496 C481 0.961 . S
H497 C481 0.961 . S
H498 C482 0.931 . S
H499 C487 0.930 . S
H500 C488 0.956 . S
H501 C488 0.961 . S
H502 C488 0.961 . S
H503 C489 0.958 . S
H504 C489 0.961 . S
H505 C489 0.960 . S
C506 C507 1.391 . S
C506 C508 1.394 . S
C506 H522 0.931 . S
C507 C506 1.391 . S
C507 C511 1.376 . S
C508 C506 1.394 . S
C508 C509 1.369 . S
C508 C512 1.531 . S
C509 C508 1.369 . S
C509 C510 1.410 . S
C509 C517 1.503 . S
C510 C509 1.410 . S
C510 C511 1.392 . S
C510 C513 1.511 . S
C511 C507 1.376 . S
C511 C510 1.392 . S
C511 H523 0.929 . S
C512 C508 1.531 . S
C512 H524 0.960 . S
C512 H525 0.962 . S
C512 H526 0.960 . S
C513 C510 1.511 . S
C513 H527 0.961 . S
C513 H528 0.961 . S
C513 H529 0.961 . S
C514 C515 1.370 . S
C514 C516 1.363 . S
C514 H530 0.931 . S
C515 C514 1.370 . S
C515 C519 1.408 . S
C516 C514 1.363 . S
C516 C517 1.370 . S
C516 C520 1.524 . S
C517 C509 1.503 . S
C517 C516 1.370 . S
C517 C518 1.403 . S
C518 C517 1.403 . S
C518 C519 1.404 . S
C518 C521 1.539 . S
C519 C515 1.408 . S
C519 C518 1.404 . S
C519 H531 0.930 . S
C520 C516 1.524 . S
C520 H532 0.956 . S
C520 H533 0.961 . S
C520 H534 0.961 . S
C521 C518 1.539 . S
C521 H535 0.958 . S
C521 H536 0.961 . S
C521 H537 0.960 . S
H522 C506 0.931 . S
H523 C511 0.929 . S
H524 C512 0.960 . S
H525 C512 0.962 . S
H526 C512 0.960 . S
H527 C513 0.961 . S
H528 C513 0.961 . S
H529 C513 0.961 . S
H530 C514 0.931 . S
H531 C519 0.930 . S
H532 C520 0.956 . S
H533 C520 0.961 . S
H534 C520 0.961 . S
H535 C521 0.958 . S
H536 C521 0.961 . S
H537 C521 0.960 . S
C538 C539 1.391 . S
C538 C540 1.394 . S
C538 H554 0.931 . S
C539 C538 1.391 . S
C539 C543 1.376 . S
C540 C538 1.394 . S
C540 C541 1.369 . S
C540 C544 1.531 . S
C541 C540 1.369 . S
C541 C542 1.410 . S
C541 C549 1.503 . S
C542 C541 1.410 . S
C542 C543 1.392 . S
C542 C545 1.511 . S
C543 C539 1.376 . S
C543 C542 1.392 . S
C543 H555 0.929 . S
C544 C540 1.531 . S
C544 H556 0.960 . S
C544 H557 0.962 . S
C544 H558 0.960 . S
C545 C542 1.511 . S
C545 H559 0.961 . S
C545 H560 0.961 . S
C545 H561 0.961 . S
C546 C547 1.370 . S
C546 C548 1.363 . S
C546 H562 0.931 . S
C547 C546 1.370 . S
C547 C551 1.408 . S
C548 C546 1.363 . S
C548 C549 1.370 . S
C548 C552 1.524 . S
C549 C541 1.503 . S
C549 C548 1.370 . S
C549 C550 1.403 . S
C550 C549 1.403 . S
C550 C551 1.404 . S
C550 C553 1.539 . S
C551 C547 1.408 . S
C551 C550 1.404 . S
C551 H563 0.930 . S
C552 C548 1.524 . S
C552 H564 0.956 . S
C552 H565 0.961 . S
C552 H566 0.961 . S
C553 C550 1.539 . S
C553 H567 0.958 . S
C553 H568 0.961 . S
C553 H569 0.960 . S
H554 C538 0.931 . S
H555 C543 0.929 . S
H556 C544 0.960 . S
H557 C544 0.962 . S
H558 C544 0.960 . S
H559 C545 0.961 . S
H560 C545 0.961 . S
H561 C545 0.961 . S
H562 C546 0.931 . S
H563 C551 0.930 . S
H564 C552 0.956 . S
H565 C552 0.961 . S
H566 C552 0.961 . S
H567 C553 0.958 . S
H568 C553 0.961 . S
H569 C553 0.960 . S
C570 C571 1.391 . S
C570 C572 1.394 . S
C570 H586 0.931 . S
C571 C570 1.391 . S
C571 C575 1.376 1_455 S
C572 C570 1.394 . S
C572 C573 1.369 . S
C572 C576 1.531 . S
C573 C572 1.369 . S
C573 C574 1.410 1_455 S
C573 C581 1.537 . S
C574 C573 1.410 1_655 S
C574 C575 1.392 . S
C574 C577 1.511 . S
C575 C571 1.376 1_655 S
C575 C574 1.392 . S
C575 H587 0.929 . S
C576 C572 1.531 . S
C576 H588 0.960 . S
C576 H589 0.962 . S
C576 H590 0.960 . S
C577 C574 1.511 . S
C577 H591 0.961 . S
C577 H592 0.961 . S
C577 H593 0.961 . S
C578 C579 1.370 . S
C578 C580 1.363 . S
C578 H594 0.931 . S
C579 C578 1.370 . S
C579 C583 1.408 . S
C580 C578 1.363 . S
C580 C581 1.358 1_556 S
C580 C584 1.524 1_556 S
C581 C573 1.537 . S
C581 C580 1.358 1_554 S
C581 C582 1.382 1_554 S
C582 C581 1.382 1_556 S
C582 C583 1.404 . S
C582 C585 1.539 1_455 S
C583 C579 1.408 . S
C583 C582 1.404 . S
C583 H595 0.930 . S
C584 C580 1.524 1_554 S
C584 H596 0.956 . S
C584 H597 0.961 . S
C584 H598 0.964 . S
C585 C582 1.539 1_655 S
C585 H599 0.958 1_655 S
C585 H600 0.961 . S
C585 H601 0.960 1_556 S
H586 C570 0.931 . S
H587 C575 0.929 . S
H588 C576 0.960 . S
H589 C576 0.962 . S
H590 C576 0.960 . S
H591 C577 0.961 . S
H592 C577 0.961 . S
H593 C577 0.961 . S
H594 C578 0.931 . S
H595 C583 0.930 . S
H596 C584 0.956 . S
H597 C584 0.961 . S
H598 C584 0.964 . S
H599 C585 0.958 1_455 S
H600 C585 0.961 . S
H601 C585 0.960 1_554 S
C602 C603 1.391 1_565 S
C602 C604 1.394 . S
C602 H618 0.931 . S
C603 C602 1.391 1_545 S
C603 C607 1.376 . S
C604 C602 1.394 . S
C604 C605 1.369 1_565 S
C604 C608 1.531 . S
C605 C604 1.369 1_545 S
C605 C606 1.410 . S
C605 C613 1.503 . S
C606 C605 1.410 . S
C606 C607 1.392 . S
C606 C609 1.511 . S
C607 C603 1.376 . S
C607 C606 1.392 . S
C607 H619 0.929 . S
C608 C604 1.531 . S
C608 H620 0.960 . S
C608 H621 0.962 . S
C608 H622 0.960 . S
C609 C606 1.511 . S
C609 H623 0.961 . S
C609 H624 0.961 . S
C609 H625 0.961 . S
C610 C611 1.370 . S
C610 C612 1.363 . S
C610 H626 0.931 . S
C611 C610 1.370 . S
C611 C615 1.408 1_545 S
C612 C610 1.363 . S
C612 C613 1.370 . S
C612 C616 1.524 . S
C613 C605 1.503 . S
C613 C612 1.370 . S
C613 C614 1.403 1_545 S
C614 C613 1.403 1_565 S
C614 C615 1.404 . S
C614 C617 1.539 . S
C615 C611 1.408 1_565 S
C615 C614 1.404 . S
C615 H627 0.930 . S
C616 C612 1.524 . S
C616 H628 0.956 . S
C616 H629 0.961 . S
C616 H630 0.961 . S
C617 C614 1.539 . S
C617 H631 0.958 . S
C617 H632 0.961 . S
C617 H633 0.960 . S
H618 C602 0.931 . S
H619 C607 0.929 . S
H620 C608 0.960 . S
H621 C608 0.962 . S
H622 C608 0.960 . S
H623 C609 0.961 . S
H624 C609 0.961 . S
H625 C609 0.961 . S
H626 C610 0.931 . S
H627 C615 0.930 . S
H628 C616 0.956 . S
H629 C616 0.961 . S
H630 C616 0.961 . S
H631 C617 0.958 . S
H632 C617 0.961 . S
H633 C617 0.960 . S
C634 C635 1.391 . S
C634 C636 1.394 . S
C634 H650 0.931 . S
C635 C634 1.391 . S
C635 C639 1.376 . S
C636 C634 1.394 . S
C636 C637 1.369 . S
C636 C640 1.531 . S
C637 C636 1.369 . S
C637 C638 1.410 . S
C637 C645 1.503 . S
C638 C637 1.410 . S
C638 C639 1.392 . S
C638 C641 1.511 . S
C639 C635 1.376 . S
C639 C638 1.392 . S
C639 H651 0.929 . S
C640 C636 1.531 . S
C640 H652 0.960 . S
C640 H653 0.962 . S
C640 H654 0.960 . S
C641 C638 1.511 . S
C641 H655 0.961 . S
C641 H656 0.961 . S
C641 H657 0.961 . S
C642 C643 1.370 . S
C642 C644 1.363 . S
C642 H658 0.931 . S
C643 C642 1.370 . S
C643 C647 1.408 . S
C644 C642 1.363 . S
C644 C645 1.370 . S
C644 C648 1.524 . S
C645 C637 1.503 . S
C645 C644 1.370 . S
C645 C646 1.403 . S
C646 C645 1.403 . S
C646 C647 1.404 . S
C646 C649 1.539 . S
C647 C643 1.408 . S
C647 C646 1.404 . S
C647 H659 0.930 . S
C648 C644 1.524 . S
C648 H660 0.956 . S
C648 H661 0.961 . S
C648 H662 0.961 . S
C649 C646 1.539 . S
C649 H663 0.958 . S
C649 H664 0.961 . S
C649 H665 0.960 . S
H650 C634 0.931 . S
H651 C639 0.929 . S
H652 C640 0.960 . S
H653 C640 0.962 . S
H654 C640 0.960 . S
H655 C641 0.961 . S
H656 C641 0.961 . S
H657 C641 0.961 . S
H658 C642 0.931 . S
H659 C647 0.930 . S
H660 C648 0.956 . S
H661 C648 0.961 . S
H662 C648 0.961 . S
H663 C649 0.958 . S
H664 C649 0.961 . S
H665 C649 0.960 . S
C666 C667 1.391 . S
C666 C668 1.394 . S
C666 H682 0.931 . S
C667 C666 1.391 . S
C667 C671 1.376 1_545 S
C668 C666 1.394 . S
C668 C669 1.369 . S
C668 C672 1.531 . S
C669 C668 1.369 . S
C669 C670 1.410 1_545 S
C669 C677 1.503 . S
C670 C669 1.410 1_565 S
C670 C671 1.392 . S
C670 C673 1.511 . S
C671 C667 1.376 1_565 S
C671 C670 1.392 . S
C671 H683 0.929 . S
C672 C668 1.531 . S
C672 H684 0.960 . S
C672 H685 0.962 . S
C672 H686 0.960 . S
C673 C670 1.511 . S
C673 H687 0.961 . S
C673 H688 0.961 . S
C673 H689 0.961 . S
C674 C675 1.370 1_565 S
C674 C676 1.363 . S
C674 H690 0.931 . S
C675 C674 1.370 1_545 S
C675 C679 1.408 . S
C676 C674 1.363 . S
C676 C677 1.370 1_565 S
C676 C680 1.524 . S
C677 C669 1.503 . S
C677 C676 1.370 1_545 S
C677 C678 1.403 . S
C678 C677 1.403 . S
C678 C679 1.404 . S
C678 C681 1.539 . S
C679 C675 1.408 . S
C679 C678 1.404 . S
C679 H691 0.930 . S
C680 C676 1.524 . S
C680 H692 0.956 . S
C680 H693 0.961 . S
C680 H694 0.961 . S
C681 C678 1.539 . S
C681 H695 0.958 . S
C681 H696 0.961 . S
C681 H697 0.960 . S
H682 C666 0.931 . S
H683 C671 0.929 . S
H684 C672 0.960 . S
H685 C672 0.962 . S
H686 C672 0.960 . S
H687 C673 0.961 . S
H688 C673 0.961 . S
H689 C673 0.961 . S
H690 C674 0.931 . S
H691 C679 0.930 . S
H692 C680 0.956 . S
H693 C680 0.961 . S
H694 C680 0.961 . S
H695 C681 0.958 . S
H696 C681 0.961 . S
H697 C681 0.960 . S
C698 C699 1.391 . S
C698 C700 1.394 . S
C698 H714 0.931 . S
C699 C698 1.391 . S
C699 C703 1.376 . S
C700 C698 1.394 . S
C700 C701 1.369 . S
C700 C704 1.531 . S
C701 C700 1.369 . S
C701 C702 1.410 . S
C701 C709 1.503 . S
C702 C701 1.410 . S
C702 C703 1.392 . S
C702 C705 1.511 . S
C703 C699 1.376 . S
C703 C702 1.392 . S
C703 H715 0.929 . S
C704 C700 1.531 . S
C704 H716 0.960 . S
C704 H717 0.962 . S
C704 H718 0.960 . S
C705 C702 1.511 . S
C705 H719 0.961 . S
C705 H720 0.961 . S
C705 H721 0.961 . S
C706 C707 1.370 . S
C706 C708 1.320 1_554 S
C706 H722 0.931 . S
C707 C706 1.370 . S
C707 C711 1.408 . S
C708 C706 1.320 1_556 S
C708 C709 1.389 . S
C708 C712 1.550 . S
C709 C701 1.503 . S
C709 C708 1.389 . S
C709 C710 1.403 1_556 S
C710 C709 1.403 1_554 S
C710 C711 1.404 . S
C710 C713 1.539 1_554 S
C711 C707 1.408 . S
C711 C710 1.404 . S
C711 H723 0.930 . S
C712 C708 1.550 . S
C712 H724 0.956 . S
C712 H725 0.961 . S
C712 H726 0.961 . S
C713 C710 1.539 1_556 S
C713 H727 0.958 . S
C713 H728 0.961 1_556 S
C713 H729 0.960 . S
H714 C698 0.931 . S
H715 C703 0.929 . S
H716 C704 0.960 . S
H717 C704 0.962 . S
H718 C704 0.960 . S
H719 C705 0.961 . S
H720 C705 0.961 . S
H721 C705 0.961 . S
H722 C706 0.931 . S
H723 C711 0.930 . S
H724 C712 0.956 . S
H725 C712 0.961 . S
H726 C712 0.961 . S
H727 C713 0.958 . S
H728 C713 0.961 1_554 S
H729 C713 0.960 . S
C730 C731 1.391 1_655 S
C730 C732 1.394 . S
C730 H746 0.931 . S
C731 C730 1.391 1_455 S
C731 C735 1.376 . S
C732 C730 1.394 . S
C732 C733 1.369 1_655 S
C732 C736 1.531 . S
C733 C732 1.369 1_455 S
C733 C734 1.410 . S
C733 C741 1.503 1_455 S
C734 C733 1.410 . S
C734 C735 1.392 . S
C734 C737 1.511 . S
C735 C731 1.376 . S
C735 C734 1.392 . S
C735 H747 0.929 . S
C736 C732 1.531 . S
C736 H748 0.960 . S
C736 H749 0.962 . S
C736 H750 0.960 . S
C737 C734 1.511 . S
C737 H751 0.961 . S
C737 H752 0.961 . S
C737 H753 0.961 . S
C738 C739 1.370 1_455 S
C738 C740 1.363 . S
C738 H754 0.931 . S
C739 C738 1.370 1_655 S
C739 C743 1.408 . S
C740 C738 1.363 . S
C740 C741 1.370 1_455 S
C740 C744 1.524 . S
C741 C733 1.503 1_655 S
C741 C740 1.370 1_655 S
C741 C742 1.403 . S
C742 C741 1.403 . S
C742 C743 1.404 . S
C742 C745 1.539 . S
C743 C739 1.408 . S
C743 C742 1.404 . S
C743 H755 0.930 . S
C744 C740 1.524 . S
C744 H756 0.956 1_455 S
C744 H757 0.961 . S
C744 H758 0.961 . S
C745 C742 1.539 . S
C745 H759 0.958 . S
C745 H760 0.961 . S
C745 H761 0.960 . S
H746 C730 0.931 . S
H747 C735 0.929 . S
H748 C736 0.960 . S
H749 C736 0.962 . S
H750 C736 0.960 . S
H751 C737 0.961 . S
H752 C737 0.961 . S
H753 C737 0.961 . S
H754 C738 0.931 . S
H755 C743 0.930 . S
H756 C744 0.956 1_655 S
H757 C744 0.961 . S
H758 C744 0.961 . S
H759 C745 0.958 . S
H760 C745 0.961 . S
H761 C745 0.960 . S
C187 C6 0.642 . S
C195 C180 0.780 . S
C219 C59 2.049 . S
C227 C158 1.749 . S
C251 C86 1.075 . S
C259 C172 1.041 . S
C283 C15 0.347 . S
C291 C183 0.216 . S
C323 C161 1.813 . S
C315 C50 1.862 . S
C355 C169 1.186 . S
C347 C95 1.379 . S
C379 C46 1.342 . S
C387 C136 1.135 . S
C411 C99 3.255 . S
C419 C147 2.928 . S
C443 C10 2.093 . S
C451 C125 1.801 . S
C483 C139 1.067 . S
C475 C55 1.063 . S
C515 C150 2.831 . S
C507 C90 2.891 . S
C539 C19 1.770 . S
C547 C128 1.757 . S
C579 C149 1.640 . S
C571 C18 1.675 . S
C603 C49 1.428 . S
C611 C127 1.410 . S
C635 C98 1.530 . S
C643 C138 1.490 . S
C675 C171 1.458 . S
C667 C58 1.427 . S
C707 C182 1.197 . S
C699 C89 1.201 . S
C731 C9 1.388 . S
C739 C160 1.405 . S
