# Generated by pormake.
# Topology gar, (4,6)-cn, num edge types: 1
# Building blocks:
#     Node 0, Type 0, BuildingBlock: TATPOV_clean_sbu_0, # of connection points: 4
#     Node 1, Type 0, BuildingBlock: TATPOV_clean_sbu_0, # of connection points: 4
#     Node 2, Type 0, BuildingBlock: TATPOV_clean_sbu_0, # of connection points: 4
#     Node 3, Type 0, BuildingBlock: TATPOV_clean_sbu_0, # of connection points: 4
#     Node 4, Type 0, BuildingBlock: TATPOV_clean_sbu_0, # of connection points: 4
#     Node 5, Type 0, BuildingBlock: TATPOV_clean_sbu_0, # of connection points: 4
#     Node 6, Type 0, BuildingBlock: TATPOV_clean_sbu_0, # of connection points: 4
#     Node 7, Type 0, BuildingBlock: TATPOV_clean_sbu_0, # of connection points: 4
#     Node 8, Type 0, BuildingBlock: TATPOV_clean_sbu_0, # of connection points: 4
#     Node 9, Type 0, BuildingBlock: TATPOV_clean_sbu_0, # of connection points: 4
#     Node 10, Type 0, BuildingBlock: TATPOV_clean_sbu_0, # of connection points: 4
#     Node 11, Type 0, BuildingBlock: TATPOV_clean_sbu_0, # of connection points: 4
#     Node 12, Type 0, BuildingBlock: TATPOV_clean_sbu_0, # of connection points: 4
#     Node 13, Type 0, BuildingBlock: TATPOV_clean_sbu_0, # of connection points: 4
#     Node 14, Type 0, BuildingBlock: TATPOV_clean_sbu_0, # of connection points: 4
#     Node 15, Type 0, BuildingBlock: TATPOV_clean_sbu_0, # of connection points: 4
#     Node 16, Type 0, BuildingBlock: TATPOV_clean_sbu_0, # of connection points: 4
#     Node 17, Type 0, BuildingBlock: TATPOV_clean_sbu_0, # of connection points: 4
#     Node 18, Type 0, BuildingBlock: TATPOV_clean_sbu_0, # of connection points: 4
#     Node 19, Type 0, BuildingBlock: TATPOV_clean_sbu_0, # of connection points: 4
#     Node 20, Type 0, BuildingBlock: TATPOV_clean_sbu_0, # of connection points: 4
#     Node 21, Type 0, BuildingBlock: TATPOV_clean_sbu_0, # of connection points: 4
#     Node 22, Type 0, BuildingBlock: TATPOV_clean_sbu_0, # of connection points: 4
#     Node 23, Type 0, BuildingBlock: TATPOV_clean_sbu_0, # of connection points: 4
#     Node 24, Type 1, BuildingBlock: KUMBUR_clean_sbu_0, # of connection points: 6
#     Node 25, Type 1, BuildingBlock: KUMBUR_clean_sbu_0, # of connection points: 6
#     Node 26, Type 1, BuildingBlock: KUMBUR_clean_sbu_0, # of connection points: 6
#     Node 27, Type 1, BuildingBlock: KUMBUR_clean_sbu_0, # of connection points: 6
#     Node 28, Type 1, BuildingBlock: KUMBUR_clean_sbu_0, # of connection points: 6
#     Node 29, Type 1, BuildingBlock: KUMBUR_clean_sbu_0, # of connection points: 6
#     Node 30, Type 1, BuildingBlock: KUMBUR_clean_sbu_0, # of connection points: 6
#     Node 31, Type 1, BuildingBlock: KUMBUR_clean_sbu_0, # of connection points: 6
#     Node 32, Type 1, BuildingBlock: KUMBUR_clean_sbu_0, # of connection points: 6
#     Node 33, Type 1, BuildingBlock: KUMBUR_clean_sbu_0, # of connection points: 6
#     Node 34, Type 1, BuildingBlock: KUMBUR_clean_sbu_0, # of connection points: 6
#     Node 35, Type 1, BuildingBlock: KUMBUR_clean_sbu_0, # of connection points: 6
#     Node 36, Type 1, BuildingBlock: KUMBUR_clean_sbu_0, # of connection points: 6
#     Node 37, Type 1, BuildingBlock: KUMBUR_clean_sbu_0, # of connection points: 6
#     Node 38, Type 1, BuildingBlock: KUMBUR_clean_sbu_0, # of connection points: 6
#     Node 39, Type 1, BuildingBlock: KUMBUR_clean_sbu_0, # of connection points: 6
#     Edge 40, Type (0, 1), BuildingBlock: ZUJKAS_clean_linker_0, # of connection points: 2
#     Edge 41, Type (0, 1), BuildingBlock: ZUJKAS_clean_linker_0, # of connection points: 2
#     Edge 42, Type (0, 1), BuildingBlock: ZUJKAS_clean_linker_0, # of connection points: 2
#     Edge 43, Type (0, 1), BuildingBlock: ZUJKAS_clean_linker_0, # of connection points: 2
#     Edge 44, Type (0, 1), BuildingBlock: ZUJKAS_clean_linker_0, # of connection points: 2
#     Edge 45, Type (0, 1), BuildingBlock: ZUJKAS_clean_linker_0, # of connection points: 2
#     Edge 46, Type (0, 1), BuildingBlock: ZUJKAS_clean_linker_0, # of connection points: 2
#     Edge 47, Type (0, 1), BuildingBlock: ZUJKAS_clean_linker_0, # of connection points: 2
#     Edge 48, Type (0, 1), BuildingBlock: ZUJKAS_clean_linker_0, # of connection points: 2
#     Edge 49, Type (0, 1), BuildingBlock: ZUJKAS_clean_linker_0, # of connection points: 2
#     Edge 50, Type (0, 1), BuildingBlock: ZUJKAS_clean_linker_0, # of connection points: 2
#     Edge 51, Type (0, 1), BuildingBlock: ZUJKAS_clean_linker_0, # of connection points: 2
#     Edge 52, Type (0, 1), BuildingBlock: ZUJKAS_clean_linker_0, # of connection points: 2
#     Edge 53, Type (0, 1), BuildingBlock: ZUJKAS_clean_linker_0, # of connection points: 2
#     Edge 54, Type (0, 1), BuildingBlock: ZUJKAS_clean_linker_0, # of connection points: 2
#     Edge 55, Type (0, 1), BuildingBlock: ZUJKAS_clean_linker_0, # of connection points: 2
#     Edge 56, Type (0, 1), BuildingBlock: ZUJKAS_clean_linker_0, # of connection points: 2
#     Edge 57, Type (0, 1), BuildingBlock: ZUJKAS_clean_linker_0, # of connection points: 2
#     Edge 58, Type (0, 1), BuildingBlock: ZUJKAS_clean_linker_0, # of connection points: 2
#     Edge 59, Type (0, 1), BuildingBlock: ZUJKAS_clean_linker_0, # of connection points: 2
#     Edge 60, Type (0, 1), BuildingBlock: ZUJKAS_clean_linker_0, # of connection points: 2
#     Edge 61, Type (0, 1), BuildingBlock: ZUJKAS_clean_linker_0, # of connection points: 2
#     Edge 62, Type (0, 1), BuildingBlock: ZUJKAS_clean_linker_0, # of connection points: 2
#     Edge 63, Type (0, 1), BuildingBlock: ZUJKAS_clean_linker_0, # of connection points: 2
#     Edge 64, Type (0, 1), BuildingBlock: ZUJKAS_clean_linker_0, # of connection points: 2
#     Edge 65, Type (0, 1), BuildingBlock: ZUJKAS_clean_linker_0, # of connection points: 2
#     Edge 66, Type (0, 1), BuildingBlock: ZUJKAS_clean_linker_0, # of connection points: 2
#     Edge 67, Type (0, 1), BuildingBlock: ZUJKAS_clean_linker_0, # of connection points: 2
#     Edge 68, Type (0, 1), BuildingBlock: ZUJKAS_clean_linker_0, # of connection points: 2
#     Edge 69, Type (0, 1), BuildingBlock: ZUJKAS_clean_linker_0, # of connection points: 2
#     Edge 70, Type (0, 1), BuildingBlock: ZUJKAS_clean_linker_0, # of connection points: 2
#     Edge 71, Type (0, 1), BuildingBlock: ZUJKAS_clean_linker_0, # of connection points: 2
#     Edge 72, Type (0, 1), BuildingBlock: ZUJKAS_clean_linker_0, # of connection points: 2
#     Edge 73, Type (0, 1), BuildingBlock: ZUJKAS_clean_linker_0, # of connection points: 2
#     Edge 74, Type (0, 1), BuildingBlock: ZUJKAS_clean_linker_0, # of connection points: 2
#     Edge 75, Type (0, 1), BuildingBlock: ZUJKAS_clean_linker_0, # of connection points: 2
#     Edge 76, Type (0, 1), BuildingBlock: ZUJKAS_clean_linker_0, # of connection points: 2
#     Edge 77, Type (0, 1), BuildingBlock: ZUJKAS_clean_linker_0, # of connection points: 2
#     Edge 78, Type (0, 1), BuildingBlock: ZUJKAS_clean_linker_0, # of connection points: 2
#     Edge 79, Type (0, 1), BuildingBlock: ZUJKAS_clean_linker_0, # of connection points: 2
#     Edge 80, Type (0, 1), BuildingBlock: ZUJKAS_clean_linker_0, # of connection points: 2
#     Edge 81, Type (0, 1), BuildingBlock: ZUJKAS_clean_linker_0, # of connection points: 2
#     Edge 82, Type (0, 1), BuildingBlock: ZUJKAS_clean_linker_0, # of connection points: 2
#     Edge 83, Type (0, 1), BuildingBlock: ZUJKAS_clean_linker_0, # of connection points: 2
#     Edge 84, Type (0, 1), BuildingBlock: ZUJKAS_clean_linker_0, # of connection points: 2
#     Edge 85, Type (0, 1), BuildingBlock: ZUJKAS_clean_linker_0, # of connection points: 2
#     Edge 86, Type (0, 1), BuildingBlock: ZUJKAS_clean_linker_0, # of connection points: 2
#     Edge 87, Type (0, 1), BuildingBlock: ZUJKAS_clean_linker_0, # of connection points: 2
#     Edge 88, Type (0, 1), BuildingBlock: ZUJKAS_clean_linker_0, # of connection points: 2
#     Edge 89, Type (0, 1), BuildingBlock: ZUJKAS_clean_linker_0, # of connection points: 2
#     Edge 90, Type (0, 1), BuildingBlock: ZUJKAS_clean_linker_0, # of connection points: 2
#     Edge 91, Type (0, 1), BuildingBlock: ZUJKAS_clean_linker_0, # of connection points: 2
#     Edge 92, Type (0, 1), BuildingBlock: ZUJKAS_clean_linker_0, # of connection points: 2
#     Edge 93, Type (0, 1), BuildingBlock: ZUJKAS_clean_linker_0, # of connection points: 2
#     Edge 94, Type (0, 1), BuildingBlock: ZUJKAS_clean_linker_0, # of connection points: 2
#     Edge 95, Type (0, 1), BuildingBlock: ZUJKAS_clean_linker_0, # of connection points: 2
#     Edge 96, Type (0, 1), BuildingBlock: ZUJKAS_clean_linker_0, # of connection points: 2
#     Edge 97, Type (0, 1), BuildingBlock: ZUJKAS_clean_linker_0, # of connection points: 2
#     Edge 98, Type (0, 1), BuildingBlock: ZUJKAS_clean_linker_0, # of connection points: 2
#     Edge 99, Type (0, 1), BuildingBlock: ZUJKAS_clean_linker_0, # of connection points: 2
#     Edge 100, Type (0, 1), BuildingBlock: ZUJKAS_clean_linker_0, # of connection points: 2
#     Edge 101, Type (0, 1), BuildingBlock: ZUJKAS_clean_linker_0, # of connection points: 2
#     Edge 102, Type (0, 1), BuildingBlock: ZUJKAS_clean_linker_0, # of connection points: 2
#     Edge 103, Type (0, 1), BuildingBlock: ZUJKAS_clean_linker_0, # of connection points: 2
#     Edge 104, Type (0, 1), BuildingBlock: ZUJKAS_clean_linker_0, # of connection points: 2
#     Edge 105, Type (0, 1), BuildingBlock: ZUJKAS_clean_linker_0, # of connection points: 2
#     Edge 106, Type (0, 1), BuildingBlock: ZUJKAS_clean_linker_0, # of connection points: 2
#     Edge 107, Type (0, 1), BuildingBlock: ZUJKAS_clean_linker_0, # of connection points: 2
#     Edge 108, Type (0, 1), BuildingBlock: ZUJKAS_clean_linker_0, # of connection points: 2
#     Edge 109, Type (0, 1), BuildingBlock: ZUJKAS_clean_linker_0, # of connection points: 2
#     Edge 110, Type (0, 1), BuildingBlock: ZUJKAS_clean_linker_0, # of connection points: 2
#     Edge 111, Type (0, 1), BuildingBlock: ZUJKAS_clean_linker_0, # of connection points: 2
#     Edge 112, Type (0, 1), BuildingBlock: ZUJKAS_clean_linker_0, # of connection points: 2
#     Edge 113, Type (0, 1), BuildingBlock: ZUJKAS_clean_linker_0, # of connection points: 2
#     Edge 114, Type (0, 1), BuildingBlock: ZUJKAS_clean_linker_0, # of connection points: 2
#     Edge 115, Type (0, 1), BuildingBlock: ZUJKAS_clean_linker_0, # of connection points: 2
#     Edge 116, Type (0, 1), BuildingBlock: ZUJKAS_clean_linker_0, # of connection points: 2
#     Edge 117, Type (0, 1), BuildingBlock: ZUJKAS_clean_linker_0, # of connection points: 2
#     Edge 118, Type (0, 1), BuildingBlock: ZUJKAS_clean_linker_0, # of connection points: 2
#     Edge 119, Type (0, 1), BuildingBlock: ZUJKAS_clean_linker_0, # of connection points: 2
#     Edge 120, Type (0, 1), BuildingBlock: ZUJKAS_clean_linker_0, # of connection points: 2
#     Edge 121, Type (0, 1), BuildingBlock: ZUJKAS_clean_linker_0, # of connection points: 2
#     Edge 122, Type (0, 1), BuildingBlock: ZUJKAS_clean_linker_0, # of connection points: 2
#     Edge 123, Type (0, 1), BuildingBlock: ZUJKAS_clean_linker_0, # of connection points: 2
#     Edge 124, Type (0, 1), BuildingBlock: ZUJKAS_clean_linker_0, # of connection points: 2
#     Edge 125, Type (0, 1), BuildingBlock: ZUJKAS_clean_linker_0, # of connection points: 2
#     Edge 126, Type (0, 1), BuildingBlock: ZUJKAS_clean_linker_0, # of connection points: 2
#     Edge 127, Type (0, 1), BuildingBlock: ZUJKAS_clean_linker_0, # of connection points: 2
#     Edge 128, Type (0, 1), BuildingBlock: ZUJKAS_clean_linker_0, # of connection points: 2
#     Edge 129, Type (0, 1), BuildingBlock: ZUJKAS_clean_linker_0, # of connection points: 2
#     Edge 130, Type (0, 1), BuildingBlock: ZUJKAS_clean_linker_0, # of connection points: 2
#     Edge 131, Type (0, 1), BuildingBlock: ZUJKAS_clean_linker_0, # of connection points: 2
#     Edge 132, Type (0, 1), BuildingBlock: ZUJKAS_clean_linker_0, # of connection points: 2
#     Edge 133, Type (0, 1), BuildingBlock: ZUJKAS_clean_linker_0, # of connection points: 2
#     Edge 134, Type (0, 1), BuildingBlock: ZUJKAS_clean_linker_0, # of connection points: 2
#     Edge 135, Type (0, 1), BuildingBlock: ZUJKAS_clean_linker_0, # of connection points: 2
# Relax obj value: 0.125
# Max RMSD: 0.314
# Mean RMSD: 0.168
data_MOF--net-gar--node1-TATPOV_clean_sbu_0--node2-KUMBUR_clean_sbu_0--edge1-ZUJKAS_clean_linker_0
_symmetry_space_group_name_H-M    P1
_symmetry_Int_Tables_number       1
_symmetry_cell_setting            triclinic
loop_
_symmetry_equiv_pos_as_xyz
'x, y, z'
_cell_length_a     76.519131
_cell_length_b     72.252652
_cell_length_c     72.289593
_cell_angle_alpha  100.41796
_cell_angle_beta   93.494605
_cell_angle_gamma 104.19849
loop_
_atom_site_label
_atom_site_type_symbol
_atom_site_fract_x
_atom_site_fract_y
_atom_site_fract_z
_atom_type_partial_charge
Zn0 Zn 0.08685 0.3283 0.42575 0.0
Zn1 Zn 0.10307 0.32128 0.39472 0.0
O2 O 0.11637 0.34967 0.4069 0.0
O3 O 0.10443 0.35454 0.43369 0.0
O4 O 0.11624 0.31589 0.37235 0.0
O5 O 0.09284 0.30587 0.4347 0.0
O6 O 0.10532 0.29922 0.40846 0.0
C7 C 0.11561 0.36063 0.42257 0.0
C8 C 0.06336 0.32084 0.39064 0.0
O9 O 0.07758 0.31881 0.38319 0.0
O10 O 0.06369 0.32484 0.4085 0.0
C11 C 0.11958 0.32701 0.36056 0.0
O12 O 0.11394 0.34296 0.36275 0.0
C13 C 0.10085 0.29536 0.42428 0.0
Zn14 Zn 0.99952 0.73588 0.6734 0.0
Zn15 Zn 0.00509 0.76761 0.65902 0.0
O16 O 0.9869 0.77072 0.67825 0.0
O17 O 0.98592 0.74677 0.69344 0.0
O18 O 0.00825 0.79144 0.64759 0.0
O19 O 0.02657 0.74028 0.67747 0.0
O20 O 0.0308 0.7691 0.66986 0.0
C21 C 0.98118 0.7619 0.69133 0.0
C22 C 0.98779 0.72727 0.63434 0.0
O23 O 0.99597 0.74519 0.63608 0.0
O24 O 0.98588 0.71976 0.64884 0.0
C25 C 0.99741 0.79138 0.63354 0.0
O26 O 0.98373 0.77601 0.62722 0.0
C27 C 0.03713 0.75617 0.67562 0.0
Zn28 Zn 0.57764 0.82442 0.921 0.0
Zn29 Zn 0.603 0.82302 0.89765 0.0
O30 O 0.61291 0.85027 0.9143 0.0
O31 O 0.59226 0.85101 0.93413 0.0
O32 O 0.62199 0.82128 0.88015 0.0
O33 O 0.58165 0.80163 0.93042 0.0
O34 O 0.60219 0.79959 0.91064 0.0
C35 C 0.60699 0.8591 0.92844 0.0
C36 C 0.56407 0.82006 0.88236 0.0
O37 O 0.58052 0.82107 0.87971 0.0
O38 O 0.55907 0.82075 0.89877 0.0
C39 C 0.62275 0.82907 0.86571 0.0
O40 O 0.61092 0.83881 0.86222 0.0
C41 C 0.59317 0.79329 0.92349 0.0
Zn42 Zn 0.49867 0.23203 0.17571 0.0
Zn43 Zn 0.50465 0.26409 0.15999 0.0
O44 O 0.48728 0.26882 0.17959 0.0
O45 O 0.48384 0.24374 0.19369 0.0
O46 O 0.50966 0.28766 0.14814 0.0
O47 O 0.52551 0.2376 0.18241 0.0
O48 O 0.52997 0.26406 0.17035 0.0
C49 C 0.48052 0.25971 0.19209 0.0
C50 C 0.48708 0.22357 0.13589 0.0
O51 O 0.4938 0.24181 0.13757 0.0
O52 O 0.48695 0.21584 0.15029 0.0
C53 C 0.49737 0.29221 0.1387 0.0
O54 O 0.48053 0.28164 0.13721 0.0
C55 C 0.53615 0.25252 0.17863 0.0
Zn56 Zn 0.10738 0.81523 0.09248 0.0
Zn57 Zn 0.08182 0.8119 0.11623 0.0
O58 O 0.07935 0.83483 0.10219 0.0
O59 O 0.10127 0.83822 0.08375 0.0
O60 O 0.06066 0.80936 0.13303 0.0
O61 O 0.0963 0.78715 0.07839 0.0
O62 O 0.07691 0.78395 0.09963 0.0
C63 C 0.08793 0.84361 0.09025 0.0
C64 C 0.12233 0.81957 0.13153 0.0
O65 O 0.1057 0.81694 0.13474 0.0
O66 O 0.12646 0.81993 0.11485 0.0
C67 C 0.04682 0.81574 0.12991 0.0
O68 O 0.04601 0.82459 0.11565 0.0
C69 C 0.08366 0.7765 0.08527 0.0
Zn70 Zn 0.49083 0.75982 0.44503 0.0
Zn71 Zn 0.51839 0.76505 0.42488 0.0
O72 O 0.52337 0.79277 0.44216 0.0
O73 O 0.49909 0.78862 0.45744 0.0
O74 O 0.54074 0.76615 0.40996 0.0
O75 O 0.49749 0.73854 0.45664 0.0
O76 O 0.52 0.74197 0.43905 0.0
C77 C 0.51351 0.79969 0.45377 0.0
C78 C 0.47829 0.75651 0.40626 0.0
O79 O 0.49541 0.76133 0.40495 0.0
O80 O 0.47274 0.7532 0.4218 0.0
C81 C 0.54821 0.77966 0.40161 0.0
O82 O 0.54103 0.7944 0.40153 0.0
C83 C 0.51123 0.73336 0.45099 0.0
Zn84 Zn 0.60708 0.3141 0.59109 0.0
Zn85 Zn 0.58261 0.31181 0.61581 0.0
O86 O 0.57979 0.33472 0.60186 0.0
O87 O 0.59985 0.33614 0.58132 0.0
O88 O 0.56127 0.30879 0.63234 0.0
O89 O 0.59646 0.28587 0.5777 0.0
O90 O 0.57752 0.28352 0.59938 0.0
C91 C 0.58733 0.34247 0.58875 0.0
C92 C 0.62321 0.31959 0.63026 0.0
O93 O 0.60676 0.31733 0.63407 0.0
O94 O 0.6267 0.31939 0.6133 0.0
C95 C 0.55284 0.32179 0.63727 0.0
O96 O 0.55847 0.33884 0.6326 0.0
C97 C 0.58397 0.27556 0.58503 0.0
Zn98 Zn 0.99331 0.26161 0.94631 0.0
Zn99 Zn 0.01869 0.26543 0.92367 0.0
O100 O 0.02455 0.29345 0.94097 0.0
O101 O 0.00222 0.28996 0.959 0.0
O102 O 0.03995 0.26615 0.90692 0.0
O103 O 1.00018 0.24024 0.95726 0.0
O104 O 0.02097 0.24225 0.93755 0.0
C105 C 0.01599 0.30071 0.95385 0.0
C106 C 0.97776 0.25804 0.9084 0.0
O107 O 0.99449 0.26156 0.9053 0.0
O108 O 0.97366 0.25586 0.92473 0.0
C109 C 0.05144 0.28158 0.90491 0.0
O110 O 0.04938 0.2986 0.91301 0.0
C111 C 0.01309 0.23427 0.95036 0.0
Zn112 Zn 0.43941 0.01804 0.28839 0.0
Zn113 Zn 0.42321 0.04728 0.29059 0.0
O114 O 0.437 0.05304 0.31638 0.0
O115 O 0.44695 0.02692 0.31645 0.0
O116 O 0.41026 0.06805 0.29294 0.0
O117 O 0.45443 0.02984 0.26945 0.0
O118 O 0.43829 0.05115 0.26879 0.0
C119 C 0.44493 0.04306 0.32499 0.0
C120 C 0.40114 0.00483 0.28002 0.0
O121 O 0.40232 0.02289 0.28503 0.0
O122 O 0.41529 0.99874 0.27915 0.0
C123 C 0.39696 0.06644 0.30275 0.0
O124 O 0.39258 0.05158 0.31122 0.0
C125 C 0.45055 0.04341 0.2625 0.0
Zn126 Zn 0.28017 0.21902 0.50683 0.0
Zn127 Zn 0.30033 0.19416 0.50755 0.0
O128 O 0.3068 0.20692 0.48405 0.0
O129 O 0.29048 0.22813 0.48435 0.0
O130 O 0.31834 0.1774 0.50966 0.0
O131 O 0.28978 0.23424 0.53278 0.0
O132 O 0.30478 0.21216 0.53468 0.0
C133 C 0.30192 0.22003 0.47687 0.0
C134 C 0.2591 0.17872 0.50247 0.0
O135 O 0.27456 0.17494 0.50305 0.0
O136 O 0.25811 0.19617 0.50386 0.0
C137 C 0.33036 0.17567 0.49845 0.0
O138 O 0.33122 0.1845 0.48404 0.0
C139 C 0.29996 0.22726 0.54238 0.0
Zn140 Zn 0.14942 0.02721 0.77092 0.0
Zn141 Zn 0.1719 0.0067 0.76771 0.0
O142 O 0.15797 0.00483 0.79486 0.0
O143 O 0.13723 0.02103 0.79358 0.0
O144 O 0.18857 0.98409 0.76528 0.0
O145 O 0.13523 0.01991 0.74543 0.0
O146 O 0.15584 0.00399 0.73867 0.0
C147 C 0.14495 0.01114 0.80242 0.0
C148 C 0.18627 0.05223 0.77403 0.0
O149 O 0.19068 0.03587 0.77183 0.0
O150 O 0.16968 0.05191 0.77455 0.0
C151 C 0.18707 0.96933 0.77367 0.0
O152 O 0.17422 0.96668 0.78492 0.0
C153 C 0.14227 0.01033 0.73298 0.0
Zn154 Zn 0.34053 0.89319 0.02554 0.0
Zn155 Zn 0.30894 0.91743 0.02263 0.0
O156 O 0.30504 0.90867 0.99404 0.0
O157 O 0.32566 0.89638 0.00443 0.0
O158 O 0.29134 0.93319 0.02936 0.0
O159 O 0.32607 0.88741 0.04611 0.0
O160 O 0.30126 0.89552 0.03658 0.0
C161 C 0.31606 0.89841 0.99071 0.0
C162 C 0.35141 0.93516 0.0355 0.0
O163 O 0.33477 0.93472 0.03142 0.0
O164 O 0.35679 0.9197 0.03415 0.0
C165 C 0.29049 0.9469 0.02092 0.0
O166 O 0.30197 0.95118 0.00858 0.0
C167 C 0.31014 0.88898 0.04814 0.0
Zn168 Zn 0.3249 0.36825 0.03869 0.0
Zn169 Zn 0.30049 0.3875 0.03613 0.0
O170 O 0.29721 0.37005 0.00902 0.0
O171 O 0.31965 0.35609 0.01106 0.0
O172 O 0.28011 0.40137 0.03577 0.0
O173 O 0.31403 0.35483 0.05862 0.0
O174 O 0.29482 0.37301 0.05874 0.0
C175 C 0.30665 0.35903 0.00135 0.0
C176 C 0.34116 0.40903 0.04534 0.0
O177 O 0.32493 0.40964 0.04069 0.0
O178 O 0.34445 0.39297 0.04663 0.0
C179 C 0.27707 0.4109 0.02328 0.0
O180 O 0.28774 0.41244 0.00976 0.0
C181 C 0.30109 0.36056 0.06567 0.0
Zn182 Zn 0.74489 0.15842 0.01515 0.0
Zn183 Zn 0.79001 0.14208 0.028 0.0
O184 O 0.79348 0.14692 1.00081 0.0
O185 O 0.76753 0.15053 0.00723 0.0
O186 O 0.8137 0.13852 0.03812 0.0
O187 O 0.75772 0.17657 0.03971 0.0
O188 O 0.78289 0.166 0.04509 0.0
C189 C 0.7795 0.15192 0.99586 0.0
C190 C 0.75563 0.12212 0.02508 0.0
O191 O 0.76982 0.11697 0.02873 0.0
O192 O 0.75791 0.13807 0.01952 0.0
C193 C 0.81471 0.121 0.03395 0.0
O194 O 0.80062 0.10757 0.02457 0.0
C195 C 0.77266 0.17761 0.04951 0.0
Zn196 Zn 0.16599 0.56137 0.25579 0.0
Zn197 Zn 0.18441 0.53285 0.24623 0.0
O198 O 0.17869 0.52956 0.27218 0.0
O199 O 0.15988 0.54826 0.27772 0.0
O200 O 0.19705 0.51257 0.23835 0.0
O201 O 0.15475 0.55257 0.22838 0.0
O202 O 0.16527 0.52657 0.22461 0.0
C203 C 0.16848 0.53676 0.2828 0.0
C204 C 0.20405 0.57505 0.25606 0.0
O205 O 0.20315 0.55774 0.24806 0.0
O206 O 0.19025 0.58021 0.26145 0.0
C207 C 0.21348 0.5164 0.23501 0.0
O208 O 0.22297 0.53457 0.23713 0.0
C209 C 0.15603 0.53681 0.21826 0.0
Zn210 Zn 0.8222 0.86473 0.53368 0.0
Zn211 Zn 0.80107 0.88829 0.53436 0.0
O212 O 0.79571 0.87068 0.50717 0.0
O213 O 0.81091 0.84867 0.50851 0.0
O214 O 0.7823 0.90433 0.53518 0.0
O215 O 0.81446 0.85596 0.55706 0.0
O216 O 0.79543 0.87433 0.55718 0.0
C217 C 0.80024 0.85547 0.49934 0.0
C218 C 0.84216 0.90487 0.53692 0.0
O219 O 0.82655 0.90821 0.53788 0.0
O220 O 0.84363 0.88755 0.53482 0.0
C221 C 0.77466 0.90767 0.52042 0.0
O222 O 0.7796 0.90142 0.50384 0.0
C223 C 0.80197 0.86228 0.56445 0.0
Zn224 Zn 0.95395 0.05139 0.26689 0.0
Zn225 Zn 0.93356 0.0738 0.27133 0.0
O226 O 0.9494 0.07649 0.30041 0.0
O227 O 0.9665 0.05652 0.29293 0.0
O228 O 0.91675 0.09618 0.27262 0.0
O229 O 0.96798 0.05851 0.24573 0.0
O230 O 0.94841 0.07611 0.24461 0.0
C231 C 0.96131 0.06772 0.30569 0.0
C232 C 0.91737 0.02778 0.26296 0.0
O233 O 0.91416 0.04472 0.26718 0.0
O234 O 0.93349 0.02702 0.26089 0.0
C235 C 0.92175 0.11516 0.27703 0.0
O236 O 0.93911 0.12329 0.28219 0.0
C237 C 0.96133 0.06942 0.23722 0.0
Zn238 Zn 0.24017 0.64603 0.51451 0.0
Zn239 Zn 0.28888 0.64073 0.52328 0.0
O240 O 0.29196 0.65198 0.49905 0.0
O241 O 0.26377 0.65176 0.50133 0.0
O242 O 0.31338 0.63903 0.53292 0.0
O243 O 0.24957 0.66216 0.54092 0.0
O244 O 0.2781 0.65867 0.54296 0.0
C245 C 0.27771 0.65568 0.4926 0.0
C246 C 0.25752 0.61429 0.51283 0.0
O247 O 0.2727 0.61271 0.51904 0.0
O248 O 0.25751 0.63006 0.50783 0.0
C249 C 0.32035 0.63033 0.51962 0.0
O250 O 0.31127 0.62464 0.50267 0.0
C251 C 0.26555 0.66613 0.54961 0.0
Zn252 Zn 0.45311 0.55057 0.76787 0.0
Zn253 Zn 0.43309 0.57399 0.77127 0.0
O254 O 0.44895 0.57683 0.80046 0.0
O255 O 0.46717 0.55796 0.79339 0.0
O256 O 0.41775 0.59762 0.77116 0.0
O257 O 0.46568 0.55545 0.74502 0.0
O258 O 0.44795 0.57513 0.74458 0.0
C259 C 0.46152 0.56896 0.80595 0.0
C260 C 0.41594 0.52839 0.76605 0.0
O261 O 0.41298 0.54547 0.76767 0.0
O262 O 0.43204 0.52692 0.76538 0.0
C263 C 0.41469 0.61104 0.78425 0.0
O264 O 0.42124 0.61184 0.80168 0.0
C265 C 0.45992 0.56712 0.73676 0.0
Zn266 Zn 0.67607 0.06539 0.74918 0.0
Zn267 Zn 0.69052 0.03565 0.74736 0.0
O268 O 0.67945 0.0369 0.77245 0.0
O269 O 0.67132 0.06439 0.77602 0.0
O270 O 0.70026 0.01233 0.74569 0.0
O271 O 0.65696 0.0503 0.72825 0.0
O272 O 0.67242 0.02819 0.72357 0.0
C273 C 0.67305 0.04962 0.78232 0.0
C274 C 0.71388 0.07482 0.74427 0.0
O275 O 0.71293 0.05792 0.74752 0.0
O276 O 0.69979 0.08092 0.74302 0.0
C277 C 0.71208 0.00934 0.73473 0.0
O278 O 0.71828 0.02202 0.72421 0.0
C279 C 0.65933 0.03485 0.71862 0.0
Zn280 Zn 0.77689 0.71609 0.00851 0.0
Zn281 Zn 0.79845 0.69327 0.01017 0.0
O282 O 0.80453 0.70533 0.98625 0.0
O283 O 0.78471 0.72264 0.98427 0.0
O284 O 0.81711 0.67742 0.01275 0.0
O285 O 0.78728 0.73346 0.03343 0.0
O286 O 0.80307 0.71235 0.03656 0.0
C287 C 0.7974 0.7161 0.97766 0.0
C288 C 0.75707 0.67629 0.00603 0.0
O289 O 0.77286 0.67324 0.00625 0.0
O290 O 0.75544 0.69349 0.00745 0.0
C291 C 0.82701 0.67309 0.99993 0.0
O292 O 0.82491 0.67829 0.98361 0.0
C293 C 0.79802 0.72753 0.04347 0.0
Zn294 Zn 0.93884 0.5209 0.79758 0.0
Zn295 Zn 0.92583 0.55441 0.7943 0.0
O296 O 0.93727 0.56099 0.82077 0.0
O297 O 0.92995 0.53048 0.82345 0.0
O298 O 0.9144 0.57585 0.79357 0.0
O299 O 0.93851 0.52443 0.76974 0.0
O300 O 0.94237 0.55612 0.77439 0.0
C301 C 0.93377 0.54843 0.83104 0.0
C302 C 0.90067 0.51607 0.79621 0.0
O303 O 0.90399 0.53043 0.78793 0.0
O304 O 0.91337 0.51188 0.8054 0.0
C305 C 0.90083 0.57575 0.80281 0.0
O306 O 0.89553 0.56201 0.81248 0.0
C307 C 0.94232 0.54021 0.76371 0.0
Zn308 Zn 0.83742 0.39266 0.51751 0.0
Zn309 Zn 0.81073 0.41799 0.5188 0.0
O310 O 0.81517 0.41775 0.49182 0.0
O311 O 0.83217 0.39657 0.49062 0.0
O312 O 0.78973 0.42916 0.52416 0.0
O313 O 0.82072 0.37254 0.5301 0.0
O314 O 0.80518 0.3903 0.52023 0.0
C315 C 0.8244 0.40738 0.48286 0.0
C316 C 0.84918 0.43408 0.53882 0.0
O317 O 0.83332 0.43568 0.53443 0.0
O318 O 0.85324 0.41796 0.53401 0.0
C319 C 0.79022 0.44503 0.51875 0.0
O320 O 0.80411 0.45276 0.5103 0.0
C321 C 0.81003 0.3832 0.53377 0.0
Zn322 Zn 0.65097 0.52796 0.27068 0.0
Zn323 Zn 0.67183 0.50633 0.26789 0.0
O324 O 0.65744 0.50487 0.29496 0.0
O325 O 0.63862 0.5232 0.29343 0.0
O326 O 0.68775 0.48293 0.26549 0.0
O327 O 0.63685 0.52189 0.2454 0.0
O328 O 0.65598 0.50404 0.23863 0.0
C329 C 0.64507 0.51249 0.30242 0.0
C330 C 0.68763 0.55187 0.27345 0.0
O331 O 0.6915 0.53524 0.27187 0.0
O332 O 0.67122 0.55222 0.27383 0.0
C333 C 0.68914 0.47126 0.27701 0.0
O334 O 0.68025 0.47281 0.29195 0.0
C335 C 0.64328 0.51165 0.23292 0.0
Tb336 Tb 0.03472 0.02767 0.0105 0.0
C337 C 0.09013 0.09866 0.05815 0.0
C338 C 0.09495 0.12167 0.03737 0.0
C339 C 0.0993 0.13346 0.07142 0.0
C340 C 0.08979 0.10233 0.04017 0.0
C341 C 0.09554 0.11413 0.07403 0.0
C342 C 0.09902 0.13723 0.05308 0.0
C343 C 0.09607 0.09034 0.09343 0.0
N344 N 0.08703 0.07984 0.05996 0.0
C345 C 0.09092 0.07555 0.0772 0.0
C346 C 0.09802 0.10971 0.0919 0.0
Tb347 Tb 0.07825 0.05636 0.03276 0.0
N348 N 0.08629 0.08688 0.02548 0.0
C349 C 0.08958 0.0899 0.00769 0.0
C350 C 0.09694 0.12476 0.019 0.0
C351 C 0.09454 0.10879 0.00413 0.0
H352 H 0.0895 0.06063 0.07857 0.0
H353 H 0.09657 0.111 0.98992 0.0
H354 H 0.10275 0.15219 0.0512 0.0
H355 H 0.09857 0.08678 0.1071 0.0
H356 H 0.0879 0.07784 0.99595 0.0
H357 H 0.01547 0.97714 0.05751 0.0
H358 H 0.10113 0.13938 0.01629 0.0
H359 H 0.02504 0.02077 0.96429 0.0
H360 H 0.02555 0.00911 0.04947 0.0
H361 H 0.01455 0.99325 0.93707 0.0
H362 H 0.10325 0.14556 0.08344 0.0
H363 H 0.00862 0.94728 0.03256 0.0
H364 H 0.00497 0.93223 0.99794 0.0
H365 H 0.1022 0.12116 0.10446 0.0
H366 H 0.00477 0.93659 0.96493 0.0
N367 N 0.02537 0.99816 0.01985 0.0
C368 C 0.02269 0.99652 0.03815 0.0
C369 C 0.01316 0.96143 0.02883 0.0
C370 C 0.01461 0.96313 0.01001 0.0
C371 C 0.01695 0.97823 0.04293 0.0
C372 C 0.02068 0.98192 0.00596 0.0
H373 H 0.00798 0.95935 0.94207 0.0
N374 N 0.02526 1.00273 0.98453 0.0
C375 C 0.01637 0.99049 0.95119 0.0
C376 C 0.02071 0.9843 0.98757 0.0
C377 C 0.0223 0.00605 0.96669 0.0
C378 C 0.01274 0.97139 0.95406 0.0
C379 C 0.0145 0.96809 0.97247 0.0
O380 O 0.01455 0.03678 0.99632 0.0
O381 O 0.05266 0.05688 0.01883 0.0
O382 O 0.05955 0.06322 0.05401 0.0
O383 O 0.03296 0.03933 0.04111 0.0
O384 O 0.03927 0.0486 0.992 0.0
O385 O 0.01036 0.02709 0.02258 0.0
O386 O 0.09841 0.04507 0.04416 0.0
O387 O 0.06034 0.02718 0.02408 0.0
O388 O 0.05382 0.02039 0.98985 0.0
O389 O 0.07972 0.04568 0.00183 0.0
O390 O 0.07405 0.03487 0.05072 0.0
O391 O 0.10355 0.06109 0.02194 0.0
C392 C 0.04994 0.06298 0.00376 0.0
C393 C 0.98447 0.02433 0.00189 0.0
C394 C 0.95383 0.02813 0.99886 0.0
C395 C 0.9722 0.03555 0.00575 0.0
C396 C 0.94778 0.00898 0.98821 0.0
C397 C 0.97844 0.00527 0.99123 0.0
C398 C 0.96008 0.99763 0.98444 0.0
C399 C 0.04261 0.0533 0.05531 0.0
C400 C 0.00345 0.03347 0.00892 0.0
C401 C 0.00941 0.94925 0.97633 0.0
C402 C 0.00949 0.94677 0.99511 0.0
C403 C 0.06315 0.02073 0.03889 0.0
C404 C 0.12866 0.06115 0.04266 0.0
C405 C 0.14139 0.05018 0.04052 0.0
C406 C 0.15906 0.0577 0.04973 0.0
C407 C 0.16385 0.07646 0.06127 0.0
C408 C 0.1336 0.07994 0.05398 0.0
C409 C 0.15117 0.08752 0.06329 0.0
C410 C 0.07038 0.031 0.98803 0.0
C411 C 0.11022 0.05206 0.03344 0.0
H412 H 0.97702 0.05016 0.0143 0.0
H413 H 0.93367 1.00289 0.98263 0.0
H414 H 0.98782 0.99641 0.98815 0.0
H415 H 0.95539 0.98294 0.97616 0.0
H416 H 0.13738 0.03554 0.03193 0.0
H417 H 0.17742 0.08263 0.0685 0.0
H418 H 0.12395 0.08865 0.05569 0.0
H419 H 0.15496 0.102 0.07209 0.0
Tb420 Tb 0.31334 0.78686 0.24949 0.0
C421 C 0.28019 0.83831 0.3064 0.0
C422 C 0.30663 0.86182 0.3243 0.0
C423 C 0.27752 0.8697 0.32314 0.0
C424 C 0.29848 0.84355 0.31246 0.0
C425 C 0.26941 0.85123 0.31182 0.0
C426 C 0.29606 0.87491 0.32952 0.0
C427 C 0.24307 0.82576 0.2967 0.0
N428 N 0.27277 0.82009 0.29613 0.0
C429 C 0.25426 0.81331 0.2922 0.0
C430 C 0.25071 0.84489 0.3064 0.0
Tb431 Tb 0.29206 0.80026 0.29111 0.0
N432 N 0.30819 0.83047 0.3072 0.0
C433 C 0.32623 0.83482 0.31343 0.0
C434 C 0.32504 0.86619 0.33087 0.0
C435 C 0.33492 0.8527 0.32526 0.0
H436 H 0.24821 0.79832 0.28522 0.0
H437 H 0.34919 0.85597 0.33019 0.0
H438 H 0.30204 0.889 0.33867 0.0
H439 H 0.22854 0.82049 0.293 0.0
H440 H 0.33411 0.82464 0.30945 0.0
H441 H 0.26749 0.75696 0.18431 0.0
H442 H 0.33175 0.87986 0.34037 0.0
H443 H 0.34321 0.76483 0.26724 0.0
H444 H 0.28846 0.78289 0.20789 0.0
H445 H 0.3449 0.7321 0.26859 0.0
H446 H 0.26949 0.87983 0.32749 0.0
H447 H 0.26367 0.72243 0.18626 0.0
H448 H 0.27446 0.69797 0.20113 0.0
H449 H 0.24198 0.85441 0.31023 0.0
H450 H 0.29607 0.69119 0.22383 0.0
N451 N 0.2948 0.76361 0.225 0.0
C452 C 0.28641 0.76795 0.20957 0.0
C453 C 0.27257 0.73382 0.19702 0.0
C454 C 0.28298 0.7293 0.21124 0.0
C455 C 0.27469 0.75326 0.19588 0.0
C456 C 0.29425 0.7447 0.22504 0.0
H457 H 0.32222 0.70374 0.24922 0.0
N458 N 0.31746 0.7562 0.25024 0.0
C459 C 0.33356 0.73426 0.26031 0.0
C460 C 0.30616 0.74087 0.23795 0.0
C461 C 0.33203 0.75309 0.2601 0.0
C462 C 0.32087 0.71833 0.24924 0.0
C463 C 0.30733 0.72153 0.23735 0.0
O464 O 0.34167 0.79602 0.24882 0.0
O465 O 0.31213 0.80962 0.27281 0.0
O466 O 0.27708 0.80801 0.26804 0.0
O467 O 0.28666 0.79221 0.2408 0.0
O468 O 0.31388 0.81653 0.24624 0.0
O469 O 0.32351 0.78683 0.22322 0.0
O470 O 0.27268 0.78251 0.30421 0.0
O471 O 0.2974 0.777 0.27076 0.0
O472 O 0.33313 0.7922 0.2745 0.0
O473 O 0.31564 0.78995 0.29956 0.0
O474 O 0.27093 0.77522 0.276 0.0
O475 O 0.29807 0.79976 0.31978 0.0
C476 C 0.31341 0.82329 0.2639 0.0
C477 C 0.35064 0.81071 0.22313 0.0
C478 C 0.35126 0.83625 0.20504 0.0
C479 C 0.3418 0.82247 0.21479 0.0
C480 C 0.37013 0.83899 0.20494 0.0
C481 C 0.3694 0.8137 0.22299 0.0
C482 C 0.37913 0.82797 0.21413 0.0
C483 C 0.27523 0.80119 0.24954 0.0
C484 C 0.34021 0.79429 0.23059 0.0
C485 C 0.29545 0.7061 0.2244 0.0
C486 C 0.28318 0.70996 0.21145 0.0
C487 C 0.28142 0.76641 0.26683 0.0
C488 C 0.27316 0.79177 0.33723 0.0
C489 C 0.2739 0.78057 0.35093 0.0
C490 C 0.26442 0.78286 0.36679 0.0
C491 C 0.25402 0.79647 0.36888 0.0
C492 C 0.2631 0.80569 0.3396 0.0
C493 C 0.25352 0.80798 0.35536 0.0
C494 C 0.33092 0.78972 0.29198 0.0
C495 C 0.28252 0.78775 0.32048 0.0
H496 H 0.32739 0.82035 0.21539 0.0
H497 H 0.37792 0.84911 0.19727 0.0
H498 H 0.37645 0.80474 0.22939 0.0
H499 H 0.3936 0.83007 0.21384 0.0
H500 H 0.2816 0.76972 0.34906 0.0
H501 H 0.24654 0.79835 0.38103 0.0
H502 H 0.26248 0.81468 0.32939 0.0
H503 H 0.24566 0.81863 0.35705 0.0
Tb504 Tb 0.57056 0.04173 0.51404 0.0
C505 C 0.50405 1.00046 0.5491 0.0
C506 C 0.48928 0.97253 0.52455 0.0
C507 C 0.48609 0.97109 0.55755 0.0
C508 C 0.50044 0.9917 0.53025 0.0
C509 C 0.49655 0.9905 0.56299 0.0
C510 C 0.4825 0.96209 0.53834 0.0
C511 C 0.50878 0.02024 0.58622 0.0
N512 N 0.51406 0.01925 0.55368 0.0
C513 C 0.51597 0.02946 0.57189 0.0
C514 C 0.49926 1.00058 0.58181 0.0
Tb515 Tb 0.5254 0.03315 0.52934 0.0
N516 N 0.50694 1.00247 0.51744 0.0
C517 C 0.50156 0.99535 0.49855 0.0
C518 C 0.48478 0.96472 0.50519 0.0
C519 C 0.49072 0.97631 0.49215 0.0
H520 H 0.52332 0.04463 0.57556 0.0
H521 H 0.48696 0.97059 0.47715 0.0
H522 H 0.47403 0.94728 0.53426 0.0
H523 H 0.51063 0.0283 0.60067 0.0
H524 H 0.506 0.00405 0.48823 0.0
H525 H 0.60931 0.10326 0.56706 0.0
H526 H 0.47631 0.95002 0.50021 0.0
H527 H 0.57038 0.03195 0.46733 0.0
H528 H 0.59009 0.0699 0.55543 0.0
H529 H 0.58196 0.04941 0.44246 0.0
H530 H 0.48033 0.9631 0.56802 0.0
H531 H 0.61977 0.12446 0.54445 0.0
H532 H 0.6214 0.12819 0.51058 0.0
H533 H 0.49368 0.99349 0.59292 0.0
H534 H 0.61408 0.11347 0.47661 0.0
N535 N 0.58907 0.07219 0.52642 0.0
C536 C 0.59453 0.0789 0.54534 0.0
C537 C 0.61129 0.1098 0.53924 0.0
C538 C 0.60655 0.10245 0.51982 0.0
C539 C 0.60545 0.09786 0.55203 0.0
C540 C 0.59538 0.08333 0.51382 0.0
H541 H 0.59958 0.08397 0.45105 0.0
N542 N 0.58094 0.05649 0.48986 0.0
C543 C 0.58459 0.05687 0.45715 0.0
C544 C 0.59122 0.07516 0.49484 0.0
C545 C 0.57806 0.047 0.47131 0.0
C546 C 0.5945 0.07638 0.46205 0.0
C547 C 0.59813 0.08572 0.48112 0.0
O548 O 0.58373 0.02113 0.50125 0.0
O549 O 0.5457 0.02071 0.51623 0.0
O550 O 0.54089 0.0201 0.54718 0.0
O551 O 0.57021 0.0373 0.54336 0.0
O552 O 0.55772 0.01567 0.49228 0.0
O553 O 0.5944 0.03934 0.52851 0.0
O554 O 0.51246 0.05446 0.54105 0.0
O555 O 0.5504 0.05406 0.52737 0.0
O556 O 0.55476 0.05511 0.4971 0.0
O557 O 0.52594 0.03624 0.49965 0.0
O558 O 0.53835 0.05917 0.55116 0.0
O559 O 0.50206 0.03575 0.51406 0.0
C560 C 0.54441 0.00842 0.50105 0.0
C561 C 0.61528 0.02792 0.50961 0.0
C562 C 0.6425 0.01586 0.50755 0.0
C563 C 0.62513 0.01468 0.51355 0.0
C564 C 0.64991 0.03065 0.49784 0.0
C565 C 0.62302 0.04257 0.5 0.0
C566 C 0.64026 0.04392 0.49418 0.0
C567 C 0.55871 0.02521 0.55157 0.0
C568 C 0.59676 0.02583 0.51505 0.0
C569 C 0.60875 0.10503 0.48693 0.0
C570 C 0.61292 0.11341 0.50626 0.0
C571 C 0.55177 0.06638 0.54252 0.0
C572 C 0.48104 0.04793 0.53214 0.0
C573 C 0.47174 0.06178 0.52862 0.0
C574 C 0.45415 0.06068 0.53409 0.0
C575 C 0.44606 0.04536 0.54291 0.0
C576 C 0.4726 0.03283 0.54089 0.0
C577 C 0.45522 0.03158 0.54624 0.0
C578 C 0.53713 0.04891 0.49179 0.0
C579 C 0.49966 0.04965 0.52704 0.0
H580 H 0.61911 0.00325 0.52088 0.0
H581 H 0.6633 0.03209 0.49321 0.0
H582 H 0.61574 0.05288 0.49688 0.0
H583 H 0.64614 0.05526 0.48674 0.0
H584 H 0.47831 0.07355 0.52196 0.0
H585 H 0.43248 0.04384 0.54703 0.0
H586 H 0.47943 0.02202 0.54363 0.0
H587 H 0.44879 0.01985 0.55298 0.0
Tb588 Tb 0.28009 0.29485 0.76811 0.0
C589 C 0.33965 0.26671 0.80586 0.0
C590 C 0.35008 0.29124 0.83445 0.0
C591 C 0.35204 0.25809 0.8339 0.0
C592 C 0.34206 0.28551 0.81551 0.0
C593 C 0.34525 0.25291 0.81465 0.0
C594 C 0.35441 0.27726 0.84382 0.0
C595 C 0.33951 0.23105 0.78415 0.0
N596 N 0.33344 0.26251 0.78724 0.0
C597 C 0.33411 0.24527 0.7761 0.0
C598 C 0.34474 0.23473 0.80359 0.0
Tb599 Tb 0.32458 0.28645 0.77518 0.0
N600 N 0.33818 0.29859 0.80573 0.0
C601 C 0.34365 0.31808 0.81363 0.0
C602 C 0.35437 0.31099 0.84303 0.0
C603 C 0.35147 0.32451 0.83244 0.0
H604 H 0.33004 0.24224 0.76107 0.0
H605 H 0.35522 0.3399 0.83875 0.0
H606 H 0.36033 0.28131 0.85845 0.0
H607 H 0.33957 0.21726 0.77535 0.0
H608 H 0.34148 0.32881 0.80582 0.0
H609 H 0.24874 0.23972 0.70586 0.0
H610 H 0.3606 0.31603 0.85752 0.0
H611 H 0.27646 0.34004 0.78059 0.0
H612 H 0.26269 0.25168 0.73864 0.0
H613 H 0.26771 0.36476 0.76519 0.0
H614 H 0.35618 0.24764 0.84102 0.0
H615 H 0.24333 0.26291 0.68625 0.0
H616 H 0.24365 0.29741 0.68429 0.0
H617 H 0.34899 0.22374 0.80978 0.0
H618 H 0.24872 0.33164 0.70055 0.0
N619 N 0.26597 0.28176 0.73789 0.0
C620 C 0.26047 0.26215 0.73049 0.0
C621 C 0.24955 0.26833 0.70073 0.0
C622 C 0.25392 0.28822 0.70878 0.0
C623 C 0.25251 0.25521 0.71177 0.0
C624 C 0.26208 0.29449 0.72764 0.0
H625 H 0.25731 0.35684 0.7309 0.0
N626 N 0.27167 0.31851 0.75515 0.0
C627 C 0.267 0.35046 0.75695 0.0
C628 C 0.26502 0.31362 0.73664 0.0
C629 C 0.27191 0.3364 0.76563 0.0
C630 C 0.26121 0.34596 0.73758 0.0
C631 C 0.25979 0.32721 0.72724 0.0
O632 O 0.26439 0.30379 0.78936 0.0
O633 O 0.30168 0.29345 0.78811 0.0
O634 O 0.30566 0.261 0.78266 0.0
O635 O 0.27784 0.2637 0.76955 0.0
O636 O 0.29028 0.31639 0.7941 0.0
O637 O 0.25431 0.27657 0.76993 0.0
O638 O 0.34026 0.27892 0.75334 0.0
O639 O 0.30288 0.28769 0.75525 0.0
O640 O 0.29925 0.31955 0.75969 0.0
O641 O 0.32668 0.31777 0.77445 0.0
O642 O 0.31451 0.26498 0.74909 0.0
O643 O 0.3505 0.30494 0.77434 0.0
C644 C 0.30189 0.30829 0.80051 0.0
C645 C 0.23256 0.29237 0.78272 0.0
C646 C 0.20422 0.29424 0.79643 0.0
C647 C 0.22108 0.28943 0.79719 0.0
C648 C 0.19903 0.30174 0.78092 0.0
C649 C 0.22681 0.29962 0.76737 0.0
C650 C 0.21018 0.30428 0.76651 0.0
C651 C 0.28799 0.25365 0.77699 0.0
C652 C 0.25073 0.28857 0.78402 0.0
C653 C 0.25263 0.32138 0.70811 0.0
C654 C 0.24973 0.30189 0.69887 0.0
C655 C 0.30266 0.27287 0.74282 0.0
C656 C 0.37203 0.28947 0.76057 0.0
C657 C 0.38334 0.29226 0.74597 0.0
C658 C 0.40003 0.28708 0.74641 0.0
C659 C 0.40519 0.2793 0.76173 0.0
C660 C 0.37776 0.28195 0.77575 0.0
C661 C 0.39419 0.27686 0.77627 0.0
C662 C 0.3167 0.32739 0.76612 0.0
C663 C 0.35407 0.29375 0.75962 0.0
H664 H 0.22541 0.28386 0.80914 0.0
H665 H 0.18617 0.30544 0.77983 0.0
H666 H 0.23519 0.30177 0.75605 0.0
H667 H 0.20592 0.30995 0.75462 0.0
H668 H 0.37903 0.29808 0.73418 0.0
H669 H 0.41795 0.27536 0.76263 0.0
H670 H 0.36954 0.27997 0.78721 0.0
H671 H 0.39843 0.27099 0.78803 0.0
Tb672 Tb 0.04913 0.06076 0.53171 0.0
C673 C 0.06821 1.00182 0.46894 0.0
C674 C 0.04241 0.9919 0.44499 0.0
C675 C 0.07189 0.98874 0.43638 0.0
C676 C 0.05009 0.99974 0.4639 0.0
C677 C 0.0793 0.99605 0.45532 0.0
C678 C 0.05346 0.98667 0.43122 0.0
C679 C 0.10377 0.0035 0.4804 0.0
N680 N 0.07475 0.00852 0.48743 0.0
C681 C 0.09218 0.00882 0.4934 0.0
C682 C 0.09736 0.99724 0.46124 0.0
Tb683 Tb 0.05451 0.01611 0.50782 0.0
N684 N 0.03984 0.00474 0.47766 0.0
C685 C 0.02148 1.00138 0.47345 0.0
C686 C 0.02379 0.98913 0.44057 0.0
C687 C 0.01327 0.99376 0.4549 0.0
H688 H 0.09741 0.01353 0.50814 0.0
H689 H 0.9988 0.99144 0.4517 0.0
H690 H 0.04783 0.98067 0.41663 0.0
H691 H 0.11763 0.00416 0.48519 0.0
H692 H 0.01295 0.00472 0.48419 0.0
H693 H 0.10326 0.08382 0.58944 0.0
H694 H 0.01738 0.98315 0.42623 0.0
H695 H 0.0069 0.06592 0.53042 0.0
H696 H 0.09023 0.07331 0.55624 0.0
H697 H 0.98587 0.07372 0.55305 0.0
H698 H 0.0802 0.98429 0.4257 0.0
H699 H 0.08347 0.08853 0.61473 0.0
H700 H 0.05242 0.08923 0.62372 0.0
H701 H 0.10632 0.99297 0.45122 0.0
H702 H 0.0204 0.0866 0.6138 0.0
N703 N 0.0629 0.07102 0.5623 0.0
C704 C 0.08125 0.0751 0.56696 0.0
C705 C 0.07759 0.0837 0.6001 0.0
C706 C 0.05901 0.08075 0.59521 0.0
C707 C 0.08879 0.08114 0.58587 0.0
C708 C 0.05205 0.07448 0.57595 0.0
H709 H 0.99553 0.08114 0.58744 0.0
N710 N 0.02842 0.06811 0.55164 0.0
C711 C 0.99939 0.07346 0.55815 0.0
C712 C 0.03415 0.07302 0.57042 0.0
C713 C 0.01144 0.06899 0.54532 0.0
C714 C 0.00487 0.07759 0.57755 0.0
C715 C 0.02254 0.07774 0.58391 0.0
O716 O 0.04131 0.08188 0.51907 0.0
O717 O 0.04713 0.04247 0.50335 0.0
O718 O 0.07486 0.03822 0.49817 0.0
O719 O 0.07694 0.06313 0.52406 0.0
O720 O 0.02641 0.05436 0.50956 0.0
O721 O 0.06725 0.08865 0.53561 0.0
O722 O 0.06327 0.99528 0.52009 0.0
O723 O 0.05659 0.03455 0.53592 0.0
O724 O 0.02845 0.03889 0.54108 0.0
O725 O 0.02671 0.01363 0.51562 0.0
O726 O 0.07731 0.02245 0.53007 0.0
O727 O 0.03646 0.98832 0.5053 0.0
C728 C 0.03225 0.04452 0.49581 0.0
C729 C 0.05421 0.11465 0.53287 0.0
C730 C 0.05531 0.14682 0.52656 0.0
C731 C 0.05773 0.12809 0.52103 0.0
C732 C 0.04936 0.15201 0.54433 0.0
C733 C 0.04821 0.11985 0.55052 0.0
C734 C 0.04581 0.13854 0.55621 0.0
C735 C 0.08346 0.05532 0.50886 0.0
C736 C 0.05621 0.09514 0.5257 0.0
C737 C 0.02913 0.08307 0.6032 0.0
C738 C 0.04735 0.08457 0.60885 0.0
C739 C 0.07148 0.03268 0.54352 0.0
C740 C 0.04962 0.96222 0.50777 0.0
C741 C 0.04556 0.94891 0.51972 0.0
C742 C 0.04794 0.93006 0.51463 0.0
C743 C 0.05428 0.92463 0.49712 0.0
C744 C 0.05598 0.9567 0.4904 0.0
C745 C 0.05826 0.93792 0.4851 0.0
C746 C 0.01993 0.02178 0.53047 0.0
C747 C 0.0481 0.98203 0.51466 0.0
H748 H 0.06255 0.12394 0.50747 0.0
H749 H 0.0473 0.16636 0.54894 0.0
H750 H 0.04535 0.10956 0.55979 0.0
H751 H 0.04114 0.14257 0.56983 0.0
H752 H 0.04051 0.9533 0.53308 0.0
H753 H 0.0564 0.91026 0.49286 0.0
H754 H 0.05931 0.96685 0.48107 0.0
H755 H 0.06326 0.93369 0.47172 0.0
Tb756 Tb 0.32527 0.80921 0.76659 0.0
C757 C 0.2802 0.74914 0.80577 0.0
C758 C 0.2857 0.71845 0.79137 0.0
C759 C 0.27765 0.72325 0.82357 0.0
C760 C 0.28487 0.73758 0.79055 0.0
C761 C 0.27626 0.74204 0.82239 0.0
C762 C 0.28238 0.71148 0.80808 0.0
C763 C 0.26889 0.77215 0.83498 0.0
N764 N 0.27899 0.76718 0.80404 0.0
C765 C 0.27289 0.77852 0.81819 0.0
C766 C 0.27073 0.7539 0.83717 0.0
Tb767 Tb 0.28611 0.77633 0.77599 0.0
N768 N 0.28774 0.74478 0.77461 0.0
C769 C 0.29032 0.73298 0.75849 0.0
C770 C 0.28935 0.70675 0.77522 0.0
C771 C 0.29144 0.71397 0.75863 0.0
H772 H 0.27145 0.7927 0.81688 0.0
H773 H 0.29395 0.70493 0.74595 0.0
H774 H 0.28307 0.69687 0.80904 0.0
H775 H 0.26443 0.78135 0.84625 0.0
H776 H 0.29198 0.73823 0.74549 0.0
H777 H 0.31519 0.87969 0.79648 0.0
H778 H 0.29018 0.692 0.77529 0.0
H779 H 0.34409 0.79531 0.72805 0.0
H780 H 0.31783 0.84663 0.79688 0.0
H781 H 0.35307 0.80768 0.69959 0.0
H782 H 0.27479 0.71756 0.83626 0.0
H783 H 0.31942 0.89305 0.76741 0.0
H784 H 0.32793 0.88898 0.73415 0.0
H785 H 0.26759 0.74899 0.85018 0.0
H786 H 0.33849 0.86942 0.70776 0.0
N787 N 0.32269 0.84047 0.7679 0.0
C788 C 0.31962 0.852 0.78396 0.0
C789 C 0.32046 0.87836 0.76742 0.0
C790 C 0.32483 0.86705 0.75144 0.0
C791 C 0.31814 0.87091 0.78386 0.0
C792 C 0.32594 0.84798 0.7522 0.0
H793 H 0.34831 0.83925 0.69492 0.0
N794 N 0.33381 0.81937 0.73944 0.0
C795 C 0.34701 0.81606 0.71008 0.0
C796 C 0.33184 0.83707 0.73745 0.0
C797 C 0.34187 0.80909 0.72631 0.0
C798 C 0.34425 0.83385 0.70746 0.0
C799 C 0.33683 0.84475 0.72137 0.0
O800 O 0.35229 0.80728 0.76768 0.0
O801 O 0.31487 0.78044 0.77338 0.0
O802 O 0.30511 0.78375 0.80131 0.0
O803 O 0.31994 0.81391 0.79617 0.0
O804 O 0.33334 0.78234 0.75477 0.0
O805 O 0.34444 0.82872 0.78781 0.0
O806 O 0.25961 0.77945 0.77622 0.0
O807 O 0.29609 0.80499 0.76838 0.0
O808 O 0.3078 0.80014 0.73998 0.0
O809 O 0.29046 0.77109 0.74603 0.0
O810 O 0.2789 0.80335 0.78844 0.0
O811 O 0.26573 0.7565 0.75617 0.0
C812 C 0.32393 0.77021 0.76366 0.0
C813 C 0.37467 0.83626 0.78039 0.0
C814 C 0.40769 0.84654 0.78626 0.0
C815 C 0.39101 0.83373 0.78789 0.0
C816 C 0.40767 0.86223 0.77722 0.0
C817 C 0.37485 0.85199 0.77147 0.0
C818 C 0.39132 0.86493 0.76995 0.0
C819 C 0.31604 0.80127 0.80735 0.0
C820 C 0.35778 0.82198 0.78184 0.0
C821 C 0.33488 0.86332 0.72006 0.0
C822 C 0.32886 0.87445 0.73507 0.0
C823 C 0.28725 0.81519 0.77863 0.0
C824 C 0.23576 0.75173 0.76454 0.0
C825 C 0.22033 0.75529 0.75619 0.0
C826 C 0.20298 0.74458 0.75847 0.0
C827 C 0.20124 0.72973 0.76894 0.0
C828 C 0.23402 0.73708 0.77514 0.0
C829 C 0.21674 0.72603 0.77723 0.0
C830 C 0.29625 0.78282 0.73433 0.0
C831 C 0.2532 0.76451 0.76247 0.0
H832 H 0.39066 0.82173 0.79509 0.0
H833 H 0.42026 0.87224 0.7755 0.0
H834 H 0.36237 0.85426 0.76571 0.0
H835 H 0.39143 0.87701 0.76298 0.0
H836 H 0.22191 0.76656 0.74786 0.0
H837 H 0.18797 0.72124 0.77096 0.0
H838 H 0.24588 0.73426 0.78179 0.0
H839 H 0.21534 0.71472 0.78543 0.0
Tb840 Tb 0.54805 0.04213 0.02875 0.0
C841 C 0.48983 0.04853 0.97577 0.0
C842 C 0.47462 0.01432 0.96474 0.0
C843 C 0.45738 0.03836 0.96527 0.0
C844 C 0.49065 0.02935 0.97153 0.0
C845 C 0.47309 0.05319 0.9728 0.0
C846 C 0.45814 0.01896 0.96127 0.0
C847 C 0.4883 0.08686 0.98528 0.0
N848 N 0.50517 0.06246 0.98368 0.0
C849 C 0.50454 0.08165 0.98789 0.0
C850 C 0.47249 0.07258 0.97772 0.0
Tb851 Tb 0.53168 0.05224 0.98378 0.0
N852 N 0.50673 0.02531 0.9756 0.0
C853 C 0.507 0.00622 0.97462 0.0
C854 C 0.47539 0.99496 0.96244 0.0
C855 C 0.49157 0.99093 0.96778 0.0
H856 H 0.51656 0.09345 0.99262 0.0
H857 H 0.49214 0.97598 0.96695 0.0
H858 H 0.44579 0.00761 0.95597 0.0
H859 H 0.48809 0.10201 0.98878 0.0
H860 H 0.51862 1.00216 0.97964 0.0
H861 H 0.57172 0.09816 0.09225 0.0
H862 H 0.46339 0.98306 0.95737 0.0
H863 H 0.56425 1.002 0.02102 0.0
H864 H 0.54886 0.07403 0.06849 0.0
H865 H 0.5935 0.99431 0.02313 0.0
H866 H 0.44449 0.04172 0.96286 0.0
H867 H 0.60415 0.09854 0.09221 0.0
H868 H 0.62734 0.08135 0.08009 0.0
H869 H 0.45992 0.0767 0.97566 0.0
H870 H 0.6333 0.05217 0.06108 0.0
N871 N 0.56826 0.06264 0.05357 0.0
C872 C 0.56301 0.07457 0.06793 0.0
C873 C 0.5942 0.08836 0.08143 0.0
C874 C 0.59914 0.07425 0.06843 0.0
C875 C 0.57592 0.08812 0.08154 0.0
C876 C 0.58562 0.06141 0.05464 0.0
H877 H 0.62075 0.01942 0.03951 0.0
N878 N 0.57469 0.03235 0.03299 0.0
C879 C 0.59266 0.009 0.02854 0.0
C880 C 0.58902 0.04544 0.04381 0.0
C881 C 0.57603 0.01366 0.02692 0.0
C882 C 0.60795 0.02317 0.03784 0.0
C883 C 0.60606 0.04138 0.04646 0.0
O884 O 0.53755 0.01269 0.03125 0.0
O885 O 0.52524 0.03961 0.00797 0.0
O886 O 0.53521 0.07799 0.00636 0.0
O887 O 0.55235 0.07403 0.03281 0.0
O888 O 0.52372 0.05072 0.03619 0.0
O889 O 0.53301 0.03654 0.05106 0.0
O890 O 0.53524 0.07664 0.97145 0.0
O891 O 0.55321 0.05448 0.00476 0.0
O892 O 0.55265 0.02192 0.00344 0.0
O893 O 0.54293 0.02797 0.97404 0.0
O894 O 0.56114 0.06194 0.98047 0.0
O895 O 0.52931 0.04752 0.95404 0.0
C896 C 0.51523 0.04591 0.01944 0.0
C897 C 0.53196 0.0088 0.06286 0.0
C898 C 0.52176 0.00652 0.09382 0.0
C899 C 0.51914 0.01022 0.07566 0.0
C900 C 0.53659 0.99929 0.0984 0.0
C901 C 0.54692 1.00196 0.06761 0.0
C902 C 0.54896 0.99679 0.08523 0.0
C903 C 0.54404 0.08439 0.02358 0.0
C904 C 0.53032 0.01783 0.04652 0.0
C905 C 0.62011 0.05495 0.0589 0.0
C906 C 0.61669 0.07151 0.06979 0.0
C907 C 0.56698 0.06101 0.9972 0.0
C908 C 0.54625 0.0744 0.94198 0.0
C909 C 0.5569 0.06344 0.93228 0.0
C910 C 0.56865 0.07154 0.92002 0.0
C911 C 0.57007 0.09079 0.91788 0.0
C912 C 0.54781 0.09362 0.9397 0.0
C913 C 0.55976 0.1018 0.9278 0.0
C914 C 0.55074 0.01838 0.98454 0.0
C915 C 0.5332 0.0663 0.95435 0.0
H916 H 0.50764 0.0156 0.07183 0.0
H917 H 0.53909 0.99639 0.11237 0.0
H918 H 0.55718 1.00114 0.05806 0.0
H919 H 0.56057 0.99165 0.089 0.0
H920 H 0.55579 0.04858 0.93389 0.0
H921 H 0.5792 0.0973 0.90856 0.0
H922 H 0.5397 0.1023 0.94712 0.0
H923 H 0.56092 0.11663 0.92613 0.0
Tb924 Tb 0.30478 0.30581 0.28001 0.0
C925 C 0.23901 0.24382 0.23318 0.0
C926 C 0.21833 0.23719 0.25655 0.0
C927 C 0.20654 0.23265 0.2236 0.0
C928 C 0.23609 0.24337 0.25167 0.0
C929 C 0.22435 0.23793 0.21878 0.0
C930 C 0.20353 0.23235 0.24249 0.0
C931 C 0.24609 0.24104 0.19592 0.0
N932 N 0.25639 0.24886 0.22916 0.0
C933 C 0.26016 0.24681 0.21075 0.0
C934 C 0.22809 0.23687 0.19997 0.0
Tb935 Tb 0.27866 0.25817 0.25417 0.0
N936 N 0.25079 0.2478 0.26466 0.0
C937 C 0.24859 0.24479 0.28265 0.0
C938 C 0.21603 0.23537 0.27523 0.0
C939 C 0.23125 0.23892 0.28827 0.0
H940 H 0.27403 0.25012 0.20749 0.0
H941 H 0.22967 0.23714 0.30267 0.0
H942 H 0.18977 0.22776 0.24599 0.0
H943 H 0.24915 0.23987 0.1814 0.0
H944 H 0.26007 0.2475 0.29306 0.0
H945 H 0.35163 0.33452 0.23251 0.0
H946 H 0.20261 0.23068 0.27957 0.0
H947 H 0.30997 0.30979 0.32629 0.0
H948 H 0.32233 0.31823 0.24108 0.0
H949 H 0.3349 0.32109 0.35232 0.0
H950 H 0.19506 0.22828 0.21278 0.0
H951 H 0.37866 0.34502 0.25609 0.0
H952 H 0.39233 0.34693 0.28908 0.0
H953 H 0.21721 0.23235 0.18847 0.0
H954 H 0.3879 0.34273 0.32166 0.0
N955 N 0.33212 0.31871 0.26955 0.0
C956 C 0.33374 0.32255 0.25176 0.0
C957 C 0.36575 0.33756 0.25998 0.0
C958 C 0.36409 0.33392 0.27822 0.0
C959 C 0.35051 0.33178 0.24668 0.0
C960 C 0.34685 0.32458 0.28265 0.0
H961 H 0.36647 0.3334 0.34547 0.0
N962 N 0.32731 0.31479 0.30474 0.0
C963 C 0.33779 0.32142 0.3379 0.0
C964 C 0.34437 0.32238 0.30089 0.0
C965 C 0.3237 0.31502 0.3231 0.0
C966 C 0.35559 0.32829 0.33397 0.0
C967 C 0.35903 0.32922 0.31533 0.0
O968 O 0.29579 0.32591 0.29922 0.0
O969 O 0.27877 0.28521 0.27212 0.0
O970 O 0.27033 0.27897 0.23934 0.0
O971 O 0.29415 0.30687 0.25107 0.0
O972 O 0.28448 0.29943 0.29962 0.0
O973 O 0.30349 0.33205 0.27213 0.0
O974 O 0.28856 0.23734 0.23688 0.0
O975 O 0.30448 0.27905 0.2617 0.0
O976 O 0.31424 0.2845 0.29312 0.0
O977 O 0.28919 0.25763 0.28327 0.0
O978 O 0.29917 0.26369 0.23447 0.0
O979 O 0.27775 0.23175 0.26287 0.0
C980 C 0.27198 0.28749 0.28747 0.0
C981 C 0.30594 0.35883 0.29705 0.0
C982 C 0.30253 0.39173 0.30089 0.0
C983 C 0.29728 0.37213 0.29175 0.0
C984 C 0.31742 0.39818 0.31494 0.0
C985 C 0.32072 0.36515 0.31118 0.0
C986 C 0.32652 0.38489 0.31998 0.0
C987 C 0.27998 0.29675 0.23861 0.0
C988 C 0.29801 0.33845 0.28818 0.0
C989 C 0.37643 0.33754 0.31082 0.0
C990 C 0.37895 0.33995 0.29228 0.0
C991 C 0.31121 0.27662 0.24635 0.0
C992 C 0.27748 0.20455 0.23907 0.0
C993 C 0.28685 0.19158 0.24394 0.0
C994 C 0.2819 0.17195 0.23477 0.0
C995 C 0.26678 0.16521 0.22099 0.0
C996 C 0.26249 0.19789 0.22522 0.0
C997 C 0.25711 0.17818 0.21629 0.0
C998 C 0.30423 0.26717 0.2947 0.0
C999 C 0.28484 0.22503 0.24803 0.0
H1000 H 0.28615 0.36701 0.28048 0.0
H1001 H 0.32182 0.41332 0.32216 0.0
H1002 H 0.32758 0.35495 0.31549 0.0
H1003 H 0.3379 0.38983 0.33091 0.0
H1004 H 0.29828 0.19693 0.25488 0.0
H1005 H 0.26268 0.1501 0.21367 0.0
H1006 H 0.25513 0.20784 0.22123 0.0
H1007 H 0.24559 0.17299 0.20553 0.0
Tb1008 Tb 0.54787 0.55944 0.03167 0.0
C1009 C 0.56665 0.5002 0.96936 0.0
C1010 C 0.5423 0.4936 0.94416 0.0
C1011 C 0.5717 0.48908 0.93678 0.0
C1012 C 0.54908 0.49983 0.96349 0.0
C1013 C 0.57808 0.49444 0.95612 0.0
C1014 C 0.55383 0.48866 0.9308 0.0
C1015 C 0.60057 0.49773 0.98222 0.0
N1016 N 0.57217 0.50511 0.9882 0.0
C1017 C 0.58869 0.5032 0.9948 0.0
C1018 C 0.59534 0.49358 0.96278 0.0
Tb1019 Tb 0.55163 0.514 0.00764 0.0
N1020 N 0.5383 0.50439 0.97686 0.0
C1021 C 0.52014 0.50158 0.97185 0.0
C1022 C 0.52399 0.49185 0.93892 0.0
C1023 C 0.5128 0.49558 0.95287 0.0
H1024 H 0.59302 0.50608 0.00972 0.0
H1025 H 0.49851 0.49384 0.94905 0.0
H1026 H 0.54891 0.48398 0.91589 0.0
H1027 H 0.61373 0.49665 0.98755 0.0
H1028 H 0.51116 0.50418 0.98233 0.0
H1029 H 0.60471 0.58363 0.08653 0.0
H1030 H 0.51826 0.48712 0.92424 0.0
H1031 H 0.50504 0.56185 0.03256 0.0
H1032 H 0.58993 0.57108 0.05417 0.0
H1033 H 0.48528 0.57085 0.05628 0.0
H1034 H 0.58032 0.48473 0.92639 0.0
H1035 H 0.58665 0.59122 0.11272 0.0
H1036 H 0.55647 0.59363 0.1232 0.0
H1037 H 0.60453 0.4892 0.95308 0.0
H1038 H 0.52399 0.59024 0.11498 0.0
N1039 N 0.56321 0.57055 0.06154 0.0
C1040 C 0.58163 0.57408 0.06526 0.0
C1041 C 0.57996 0.58549 0.09845 0.0
C1042 C 0.56128 0.58277 0.09451 0.0
C1043 C 0.59019 0.58128 0.08371 0.0
C1044 C 0.55324 0.57522 0.07569 0.0
H1045 H 0.49735 0.58182 0.09007 0.0
N1046 N 0.52812 0.56684 0.05271 0.0
C1047 C 0.49924 0.57156 0.06066 0.0
C1048 C 0.53506 0.57334 0.07111 0.0
C1049 C 0.51055 0.56647 0.04724 0.0
C1050 C 0.50609 0.5777 0.07972 0.0
C1051 C 0.52426 0.5789 0.08514 0.0
O1052 O 0.53886 0.5806 0.02042 0.0
O1053 O 0.54528 0.54099 0.00335 0.0
O1054 O 0.57365 0.53481 0.99863 0.0
O1055 O 0.57528 0.5613 0.02298 0.0
O1056 O 0.52523 0.55413 0.00956 0.0
O1057 O 0.56624 0.58704 0.034 0.0
O1058 O 0.55615 0.49307 0.02281 0.0
O1059 O 0.55463 0.53293 0.03568 0.0
O1060 O 0.52777 0.53746 0.04162 0.0
O1061 O 0.52385 0.51368 0.01452 0.0
O1062 O 0.57442 0.51944 0.02978 0.0
O1063 O 0.53333 0.48599 0.00177 0.0
C1064 C 0.53073 0.54385 0.99585 0.0
C1065 C 0.55354 0.61354 0.03172 0.0
C1066 C 0.55718 0.64533 0.02349 0.0
C1067 C 0.56007 0.62667 0.02024 0.0
C1068 C 0.54837 0.65109 0.03922 0.0
C1069 C 0.54462 0.61923 0.04727 0.0
C1070 C 0.54225 0.6381 0.05111 0.0
C1071 C 0.58211 0.55229 0.00865 0.0
C1072 C 0.55434 0.5935 0.02522 0.0
C1073 C 0.53206 0.58592 0.10399 0.0
C1074 C 0.55054 0.58785 0.10867 0.0
C1075 C 0.56938 0.53061 0.04314 0.0
C1076 C 0.54517 0.46019 0.00845 0.0
C1077 C 0.54082 0.44715 0.02067 0.0
C1078 C 0.54467 0.4289 0.01688 0.0
C1079 C 0.553 0.42383 1.00059 0.0
C1080 C 0.55328 0.4549 0.99213 0.0
C1081 C 0.55716 0.43675 0.98825 0.0
C1082 C 0.51798 0.52147 0.03015 0.0
C1083 C 0.54221 0.47962 0.01402 0.0
H1084 H 0.56705 0.62203 0.00833 0.0
H1085 H 0.54583 0.66538 0.04207 0.0
H1086 H 0.53923 0.60908 0.05612 0.0
H1087 H 0.53526 0.6425 0.06303 0.0
H1088 H 0.53484 0.45146 0.03345 0.0
H1089 H 0.55608 0.40983 0.9973 0.0
H1090 H 0.55675 0.46479 0.98256 0.0
H1091 H 0.5635 0.43273 0.97569 0.0
Tb1092 Tb 0.82477 0.30877 0.26921 0.0
C1093 C 0.77866 0.24599 0.30552 0.0
C1094 C 0.78447 0.21601 0.28962 0.0
C1095 C 0.77491 0.2184 0.3212 0.0
C1096 C 0.78396 0.23547 0.29004 0.0
C1097 C 0.77361 0.23745 0.32112 0.0
C1098 C 0.78036 0.2077 0.30547 0.0
C1099 C 0.76458 0.26635 0.33439 0.0
N1100 N 0.77736 0.26422 0.30475 0.0
C1101 C 0.76977 0.27418 0.31861 0.0
C1102 C 0.76677 0.24802 0.3358 0.0
Tb1103 Tb 0.78568 0.27567 0.27812 0.0
N1104 N 0.78743 0.24391 0.2749 0.0
C1105 C 0.79023 0.23301 0.2583 0.0
C1106 C 0.78841 0.20526 0.27304 0.0
C1107 C 0.79107 0.21373 0.25723 0.0
H1108 H 0.768 0.28837 0.3178 0.0
H1109 H 0.79374 0.20542 0.24418 0.0
H1110 H 0.78083 0.19283 0.30548 0.0
H1111 H 0.75893 0.27449 0.34548 0.0
H1112 H 0.79228 0.23914 0.24584 0.0
H1113 H 0.81556 0.37867 0.30256 0.0
H1114 H 0.78889 0.19026 0.27212 0.0
H1115 H 0.84174 0.2957 0.22911 0.0
H1116 H 0.81806 0.34526 0.30137 0.0
H1117 H 0.84956 0.30908 0.20084 0.0
H1118 H 0.77124 0.21163 0.33312 0.0
H1119 H 0.8193 0.39326 0.27416 0.0
H1120 H 0.82666 0.39029 0.24052 0.0
H1121 H 0.76268 0.24196 0.34801 0.0
H1122 H 0.83603 0.37137 0.2128 0.0
N1123 N 0.82243 0.34026 0.27219 0.0
C1124 C 0.81963 0.35122 0.28875 0.0
C1125 C 0.82028 0.37845 0.27348 0.0
C1126 C 0.82418 0.36762 0.25691 0.0
C1127 C 0.81823 0.37029 0.28954 0.0
C1128 C 0.82527 0.34838 0.25677 0.0
H1129 H 0.84495 0.34121 0.19801 0.0
N1130 N 0.83223 0.31974 0.24216 0.0
C1131 C 0.84408 0.31726 0.21204 0.0
C1132 C 0.83041 0.33777 0.2412 0.0
C1133 C 0.8396 0.30971 0.22815 0.0
C1134 C 0.84141 0.33538 0.21047 0.0
C1135 C 0.83476 0.34602 0.22528 0.0
O1136 O 0.8513 0.30551 0.26905 0.0
O1137 O 0.81457 0.27978 0.27579 0.0
O1138 O 0.80374 0.28299 0.3044 0.0
O1139 O 0.82072 0.31252 0.29918 0.0
O1140 O 0.8319 0.28188 0.2559 0.0
O1141 O 0.84534 0.32866 0.28879 0.0
O1142 O 0.75907 0.27838 0.27864 0.0
O1143 O 0.7958 0.30469 0.27157 0.0
O1144 O 0.8066 0.30144 0.24329 0.0
O1145 O 0.78993 0.27163 0.248 0.0
O1146 O 0.77861 0.30256 0.2915 0.0
O1147 O 0.76574 0.25717 0.25698 0.0
C1148 C 0.82321 0.2697 0.26524 0.0
C1149 C 0.87507 0.33366 0.27976 0.0
C1150 C 0.90801 0.34276 0.28553 0.0
C1151 C 0.89107 0.33147 0.28842 0.0
C1152 C 0.90879 0.3563 0.27368 0.0
C1153 C 0.87594 0.34743 0.26822 0.0
C1154 C 0.89278 0.35867 0.26517 0.0
C1155 C 0.81603 0.2998 0.3102 0.0
C1156 C 0.85788 0.32068 0.28251 0.0
C1157 C 0.83292 0.36483 0.22497 0.0
C1158 C 0.82759 0.37561 0.24075 0.0
C1159 C 0.78707 0.31476 0.28207 0.0
C1160 C 0.73545 0.25116 0.26428 0.0
C1161 C 0.72167 0.25079 0.25063 0.0
C1162 C 0.70359 0.2415 0.25201 0.0
C1163 C 0.69971 0.23099 0.26654 0.0
C1164 C 0.73156 0.2408 0.27879 0.0
C1165 C 0.71371 0.23046 0.27969 0.0
C1166 C 0.79531 0.28415 0.23691 0.0
C1167 C 0.75304 0.2645 0.26384 0.0
H1168 H 0.89032 0.32067 0.29721 0.0
H1169 H 0.92171 0.36523 0.27127 0.0
H1170 H 0.86374 0.34944 0.26154 0.0
H1171 H 0.89343 0.36924 0.25619 0.0
H1172 H 0.72506 0.25863 0.23933 0.0
H1173 H 0.68588 0.22379 0.26818 0.0
H1174 H 0.74211 0.24106 0.28955 0.0
H1175 H 0.71062 0.22259 0.29099 0.0
Tb1176 Tb 0.04837 0.53846 0.53244 0.0
C1177 C 0.00409 0.56266 0.47281 0.0
C1178 C 0.97901 0.53415 0.46154 0.0
C1179 C 0.97497 0.56638 0.46101 0.0
C1180 C 0.99717 0.54274 0.46936 0.0
C1181 C 0.99325 0.57473 0.46822 0.0
C1182 C 0.96786 0.5461 0.45768 0.0
C1183 C 0.01987 0.60199 0.47609 0.0
N1184 N 0.02183 0.5701 0.4796 0.0
C1185 C 0.03011 0.58933 0.48014 0.0
C1186 C 1.00128 0.59471 0.47038 0.0
Tb1187 Tb 0.03751 0.54818 0.48578 0.0
N1188 N 0.00839 0.53173 0.47328 0.0
C1189 C 0.0024 0.51181 0.46895 0.0
C1190 C 0.97271 0.51382 0.4576 0.0
C1191 C 0.98451 0.50261 0.46117 0.0
H1192 H 0.04451 0.59496 0.48444 0.0
H1193 H 0.97983 0.48686 0.45805 0.0
H1194 H 0.95384 0.5398 0.4518 0.0
H1195 H 0.02633 0.61733 0.47725 0.0
H1196 H 0.01113 0.50279 0.47179 0.0
H1197 H 0.06243 0.59961 0.59237 0.0
H1198 H 0.95885 0.50664 0.45161 0.0
H1199 H 0.06841 0.50122 0.53036 0.0
H1200 H 0.04285 0.57258 0.56835 0.0
H1201 H 0.09773 0.49658 0.54038 0.0
H1202 H 0.96635 0.57541 0.45755 0.0
H1203 H 0.09552 0.60324 0.59676 0.0
H1204 H 0.12148 0.58826 0.59004 0.0
H1205 H 0.99341 0.60451 0.46707 0.0
H1206 H 0.13109 0.55914 0.57617 0.0
N1207 N 0.06487 0.56225 0.55766 0.0
C1208 C 0.05734 0.57421 0.56988 0.0
C1209 C 0.08703 0.59161 0.58592 0.0
C1210 C 0.0942 0.57754 0.57548 0.0
C1211 C 0.06837 0.58954 0.58356 0.0
C1212 C 0.08253 0.56274 0.5615 0.0
H1213 H 0.12167 0.52413 0.55917 0.0
N1214 N 0.07535 0.53189 0.54225 0.0
C1215 C 0.09532 0.51088 0.54401 0.0
C1216 C 0.08797 0.54669 0.5536 0.0
C1217 C 0.07858 0.51375 0.53829 0.0
C1218 C 0.10879 0.52645 0.5545 0.0
C1219 C 0.10517 0.54461 0.55965 0.0
O1220 O 0.04009 0.50911 0.53598 0.0
O1221 O 0.02862 0.5323 0.50751 0.0
O1222 O 0.02969 0.56934 0.507 0.0
O1223 O 0.0477 0.56919 0.53447 0.0
O1224 O 0.0208 0.5406 0.53415 0.0
O1225 O 0.03129 0.53198 0.55294 0.0
O1226 O 0.05648 0.56045 0.46867 0.0
O1227 O 0.05733 0.5486 0.50811 0.0
O1228 O 0.05942 0.52099 0.51009 0.0
O1229 O 0.04166 0.51886 0.48231 0.0
O1230 O 0.06371 0.57063 0.49397 0.0
O1231 O 0.03624 0.5335 0.45765 0.0
C1232 C 0.01542 0.53491 0.51644 0.0
C1233 C 0.03353 0.50685 0.56773 0.0
C1234 C 0.02475 0.50763 0.59955 0.0
C1235 C 0.02165 0.51032 0.58113 0.0
C1236 C 0.0395 0.50044 0.6044 0.0
C1237 C 0.04806 0.49933 0.57252 0.0
C1238 C 0.05092 0.49601 0.59081 0.0
C1239 C 0.03731 0.577 0.52453 0.0
C1240 C 0.03119 0.51374 0.5501 0.0
C1241 C 0.11763 0.56024 0.57183 0.0
C1242 C 0.11216 0.57681 0.5797 0.0
C1243 C 0.06945 0.56357 0.50755 0.0
C1244 C 0.0461 0.55434 0.43657 0.0
C1245 C 0.06048 0.558 0.42571 0.0
C1246 C 0.05838 0.56448 0.40885 0.0
C1247 C 0.04176 0.56763 0.4029 0.0
C1248 C 0.02949 0.55768 0.43079 0.0
C1249 C 0.0274 0.56444 0.41403 0.0
C1250 C 0.05355 0.51292 0.49211 0.0
C1251 C 0.04921 0.54715 0.4538 0.0
H1252 H 0.01056 0.5164 0.57752 0.0
H1253 H 0.04216 0.49826 0.61864 0.0
H1254 H 0.05733 0.49638 0.5624 0.0
H1255 H 0.06224 0.49042 0.59458 0.0
H1256 H 0.07327 0.55524 0.43012 0.0
H1257 H 0.03992 0.57243 0.38973 0.0
H1258 H 0.01816 0.55489 0.43901 0.0
H1259 H 0.01456 0.56694 0.40954 0.0
Tb1260 Tb 0.77944 0.795 0.26888 0.0
C1261 C 0.83958 0.76809 0.30673 0.0
C1262 C 0.85061 0.79367 0.33445 0.0
C1263 C 0.85245 0.76071 0.33522 0.0
C1264 C 0.8423 0.78721 0.31565 0.0
C1265 C 0.84526 0.75473 0.31611 0.0
C1266 C 0.85508 0.78017 0.34441 0.0
C1267 C 0.83873 0.73161 0.28632 0.0
N1268 N 0.83298 0.7631 0.2882 0.0
C1269 C 0.8333 0.74543 0.27767 0.0
C1270 C 0.84439 0.73614 0.30572 0.0
Tb1271 Tb 0.82405 0.78644 0.27517 0.0
N1272 N 0.83827 0.7998 0.30531 0.0
C1273 C 0.84386 0.81944 0.31247 0.0
C1274 C 0.85499 0.8136 0.34232 0.0
C1275 C 0.85195 0.82658 0.33113 0.0
H1276 H 0.82882 0.74176 0.2627 0.0
H1277 H 0.85578 0.8421 0.33688 0.0
H1278 H 0.86127 0.78479 0.35894 0.0
H1279 H 0.83848 0.71746 0.27804 0.0
H1280 H 0.84159 0.82979 0.30419 0.0
H1281 H 0.7473 0.73888 0.20758 0.0
H1282 H 0.86134 0.81918 0.35673 0.0
H1283 H 0.77361 0.83921 0.28092 0.0
H1284 H 0.76193 0.75149 0.23999 0.0
H1285 H 0.76466 0.86362 0.26515 0.0
H1286 H 0.85667 0.75061 0.34279 0.0
H1287 H 0.74145 0.76151 0.18758 0.0
H1288 H 0.74248 0.79592 0.18464 0.0
H1289 H 0.84867 0.72545 0.31238 0.0
H1290 H 0.74747 0.8303 0.20037 0.0
N1291 N 0.76533 0.78146 0.23866 0.0
C1292 C 0.75966 0.76177 0.23166 0.0
C1293 C 0.74821 0.76726 0.20181 0.0
C1294 C 0.75298 0.78727 0.20935 0.0
C1295 C 0.75133 0.75444 0.21312 0.0
C1296 C 0.76142 0.79392 0.22809 0.0
H1297 H 0.75534 0.85566 0.23063 0.0
N1298 N 0.77049 0.8181 0.25542 0.0
C1299 C 0.76463 0.84951 0.25695 0.0
C1300 C 0.76422 0.81307 0.23681 0.0
C1301 C 0.76968 0.83564 0.26583 0.0
C1302 C 0.75947 0.845 0.23745 0.0
C1303 C 0.75868 0.82637 0.22722 0.0
O1304 O 0.76381 0.80395 0.29024 0.0
O1305 O 0.80143 0.79372 0.28842 0.0
O1306 O 0.80528 0.76139 0.28338 0.0
O1307 O 0.77734 0.76391 0.27053 0.0
O1308 O 0.78989 0.81656 0.29474 0.0
O1309 O 0.75391 0.77653 0.27124 0.0
O1310 O 0.83954 0.7772 0.25383 0.0
O1311 O 0.80214 0.7879 0.25564 0.0
O1312 O 0.79834 0.8209 0.2621 0.0
O1313 O 0.82664 0.81747 0.27309 0.0
O1314 O 0.81345 0.76493 0.24923 0.0
O1315 O 0.84969 0.80466 0.27293 0.0
C1316 C 0.80181 0.80863 0.3008 0.0
C1317 C 0.73198 0.7923 0.28339 0.0
C1318 C 0.70236 0.79187 0.29517 0.0
C1319 C 0.71973 0.78824 0.29698 0.0
C1320 C 0.69791 0.8002 0.27994 0.0
C1321 C 0.72675 0.80002 0.26815 0.0
C1322 C 0.70995 0.80413 0.26658 0.0
C1323 C 0.78761 0.75394 0.27789 0.0
C1324 C 0.75022 0.78866 0.2851 0.0
C1325 C 0.75157 0.82025 0.20809 0.0
C1326 C 0.74871 0.80068 0.19915 0.0
C1327 C 0.80172 0.77307 0.24314 0.0
C1328 C 0.87137 0.78861 0.26061 0.0
C1329 C 0.88267 0.79072 0.24592 0.0
C1330 C 0.89977 0.78647 0.24719 0.0
C1331 C 0.90528 0.78025 0.26344 0.0
C1332 C 0.8774 0.78254 0.27663 0.0
C1333 C 0.89419 0.77833 0.27797 0.0
C1334 C 0.81621 0.82782 0.26673 0.0
C1335 C 0.85323 0.79241 0.25904 0.0
H1336 H 0.72358 0.78199 0.30864 0.0
H1337 H 0.68503 0.80377 0.27833 0.0
H1338 H 0.73564 0.80289 0.25742 0.0
H1339 H 0.7062 0.81036 0.25488 0.0
H1340 H 0.87806 0.79538 0.23349 0.0
H1341 H 0.91838 0.77718 0.26512 0.0
H1342 H 0.86916 0.7811 0.28815 0.0
H1343 H 0.8987 0.77365 0.29041 0.0
Tb1344 Tb 0.8113 0.29034 0.75349 0.0
C1345 C 0.776 0.33951 0.81155 0.0
C1346 C 0.80136 0.36566 0.8278 0.0
C1347 C 0.7711 0.37063 0.82616 0.0
C1348 C 0.79429 0.34652 0.81721 0.0
C1349 C 0.76406 0.3512 0.81656 0.0
C1350 C 0.78975 0.37786 0.83176 0.0
C1351 C 0.73908 0.32282 0.80489 0.0
N1352 N 0.76974 0.32059 0.80265 0.0
C1353 C 0.75151 0.31183 0.80029 0.0
C1354 C 0.74538 0.34271 0.81268 0.0
Tb1355 Tb 0.7908 0.30328 0.79629 0.0
N1356 N 0.80498 0.33418 0.81326 0.0
C1357 C 0.82288 0.33994 0.8206 0.0
C1358 C 0.81974 0.37176 0.83463 0.0
C1359 C 0.83052 0.35879 0.8311 0.0
H1360 H 0.74656 0.29644 0.79425 0.0
H1361 H 0.84474 0.36329 0.83651 0.0
H1362 H 0.79498 0.39268 0.83968 0.0
H1363 H 0.72466 0.31593 0.80242 0.0
H1364 H 0.83165 0.33039 0.81812 0.0
H1365 H 0.7563 0.23222 0.71237 0.0
H1366 H 0.82563 0.38627 0.843 0.0
H1367 H 0.85539 0.29529 0.75813 0.0
H1368 H 0.76988 0.26428 0.73216 0.0
H1369 H 0.8767 0.27527 0.74933 0.0
H1370 H 0.76217 0.37993 0.82993 0.0
H1371 H 0.77498 0.20917 0.70382 0.0
H1372 H 0.8057 0.20266 0.70476 0.0
H1373 H 0.73575 0.35117 0.81635 0.0
H1374 H 0.83839 0.21407 0.71539 0.0
N1375 N 0.79648 0.25994 0.73587 0.0
C1376 C 0.77852 0.25471 0.72883 0.0
C1377 C 0.78114 0.22333 0.71276 0.0
C1378 C 0.79962 0.22899 0.7192 0.0
C1379 C 0.77058 0.23632 0.71749 0.0
C1380 C 0.80693 0.24753 0.73098 0.0
H1381 H 0.86499 0.2411 0.73206 0.0
N1382 N 0.83179 0.27232 0.74699 0.0
C1383 C 0.86224 0.26903 0.74582 0.0
C1384 C 0.82523 0.25392 0.73682 0.0
C1385 C 0.85014 0.28031 0.75079 0.0
C1386 C 0.85558 0.24974 0.73613 0.0
C1387 C 0.8369 0.24209 0.73112 0.0
O1388 O 0.83028 0.30855 0.74053 0.0
O1389 O 0.80658 0.31293 0.77472 0.0
O1390 O 0.77494 0.31142 0.77401 0.0
O1391 O 0.78462 0.29601 0.74657 0.0
O1392 O 0.83226 0.31662 0.76694 0.0
O1393 O 0.8033 0.29397 0.72639 0.0
O1394 O 0.77334 0.28416 0.80985 0.0
O1395 O 0.79557 0.28105 0.77495 0.0
O1396 O 0.82561 0.28066 0.77551 0.0
O1397 O 0.81804 0.29841 0.80288 0.0
O1398 O 0.77033 0.27604 0.78343 0.0
O1399 O 0.79939 0.30165 0.824 0.0
C1400 C 0.82194 0.32483 0.77705 0.0
C1401 C 0.82656 0.3032 0.70735 0.0
C1402 C 0.83127 0.31549 0.67852 0.0
C1403 C 0.82475 0.31651 0.6962 0.0
C1404 C 0.84047 0.30128 0.67235 0.0
C1405 C 0.83551 0.28883 0.7012 0.0
C1406 C 0.84257 0.28799 0.68372 0.0
C1407 C 0.77342 0.30529 0.75532 0.0
C1408 C 0.81908 0.30552 0.72539 0.0
C1409 C 0.82967 0.22341 0.71988 0.0
C1410 C 0.81107 0.21695 0.71377 0.0
C1411 C 0.78066 0.26849 0.77273 0.0
C1412 C 0.77603 0.29214 0.84294 0.0
C1413 C 0.77618 0.27889 0.85469 0.0
C1414 C 0.76762 0.28017 0.87126 0.0
C1415 C 0.75856 0.29481 0.87589 0.0
C1416 C 0.76732 0.30703 0.84778 0.0
C1417 C 0.75853 0.30827 0.8642 0.0
C1418 C 0.82824 0.28781 0.79402 0.0
C1419 C 0.78433 0.2891 0.82536 0.0
H1420 H 0.81814 0.32781 0.7014 0.0
H1421 H 0.84566 0.3002 0.6587 0.0
H1422 H 0.83708 0.27843 0.70979 0.0
H1423 H 0.84953 0.27695 0.67891 0.0
H1424 H 0.78278 0.26727 0.85074 0.0
H1425 H 0.75183 0.29602 0.88864 0.0
H1426 H 0.76718 0.31753 0.83896 0.0
H1427 H 0.7517 0.31968 0.86787 0.0
Tb1428 Tb 0.80925 0.80849 0.7781 0.0
C1429 C 0.74072 0.75152 0.73385 0.0
C1430 C 0.71675 0.75385 0.75384 0.0
C1431 C 0.70945 0.74414 0.71975 0.0
C1432 C 0.73531 0.75608 0.75167 0.0
C1433 C 0.72776 0.74511 0.71773 0.0
C1434 C 0.70394 0.74841 0.73778 0.0
C1435 C 0.75142 0.73844 0.69909 0.0
N1436 N 0.75847 0.752 0.73246 0.0
C1437 C 0.7637 0.74451 0.71547 0.0
C1438 C 0.73343 0.73901 0.70016 0.0
Tb1439 Tb 0.77712 0.76206 0.76058 0.0
N1440 N 0.74799 0.76101 0.76697 0.0
C1441 C 0.74273 0.76252 0.78482 0.0
C1442 C 0.71146 0.75616 0.77208 0.0
C1443 C 0.72448 0.76025 0.78763 0.0
H1444 H 0.7774 0.74348 0.71426 0.0
H1445 H 0.72049 0.7616 0.80181 0.0
H1446 H 0.68966 0.74684 0.7392 0.0
H1447 H 0.7558 0.73308 0.68566 0.0
H1448 H 0.75239 0.76545 0.79712 0.0
H1449 H 0.82943 0.85721 0.7295 0.0
H1450 H 0.69729 0.7542 0.77428 0.0
H1451 H 0.83756 0.80755 0.81455 0.0
H1452 H 0.80951 0.84196 0.75131 0.0
H1453 H 0.8694 0.80677 0.82048 0.0
H1454 H 0.69934 0.73936 0.70752 0.0
H1455 H 0.85964 0.85099 0.7266 0.0
H1456 H 0.88436 0.83818 0.73996 0.0
H1457 H 0.72389 0.73401 0.68747 0.0
H1458 H 0.8957 0.82471 0.76571 0.0
N1459 N 0.82751 0.82567 0.75917 0.0
C1460 C 0.82262 0.839 0.74998 0.0
C1461 C 0.85082 0.84399 0.73589 0.0
C1462 C 0.85683 0.83278 0.74752 0.0
C1463 C 0.83384 0.84765 0.73761 0.0
C1464 C 0.84473 0.8239 0.75926 0.0
H1465 H 0.89024 0.81287 0.79608 0.0
N1466 N 0.83931 0.81012 0.78579 0.0
C1467 C 0.86432 0.80878 0.80688 0.0
C1468 C 0.85098 0.81593 0.77334 0.0
C1469 C 0.84611 0.8086 0.80324 0.0
C1470 C 0.87604 0.81228 0.79311 0.0
C1471 C 0.86961 0.8169 0.77645 0.0
O1472 O 0.80274 0.81676 0.80583 0.0
O1473 O 0.78147 0.79134 0.77673 0.0
O1474 O 0.77517 0.77922 0.73884 0.0
O1475 O 0.80181 0.80472 0.74723 0.0
O1476 O 0.78577 0.81889 0.77071 0.0
O1477 O 0.81875 0.83781 0.79215 0.0
O1478 O 0.78992 0.73995 0.764 0.0
O1479 O 0.8051 0.77851 0.76611 0.0
O1480 O 0.81241 0.78583 0.79403 0.0
O1481 O 0.78248 0.7693 0.79146 0.0
O1482 O 0.79779 0.75791 0.74146 0.0
O1483 O 0.7613 0.73496 0.76433 0.0
C1484 C 0.77357 0.80365 0.77242 0.0
C1485 C 0.79794 0.84811 0.8119 0.0
C1486 C 0.78043 0.87044 0.80436 0.0
C1487 C 0.7922 0.85864 0.79919 0.0
C1488 C 0.77455 0.87162 0.82251 0.0
C1489 C 0.79187 0.84951 0.82988 0.0
C1490 C 0.78024 0.86121 0.83513 0.0
C1491 C 0.78742 0.79422 0.73525 0.0
C1492 C 0.80975 0.83513 0.80651 0.0
C1493 C 0.88138 0.82397 0.76368 0.0
C1494 C 0.87493 0.83173 0.74905 0.0
C1495 C 0.81097 0.77126 0.75148 0.0
C1496 C 0.77235 0.70872 0.74979 0.0
C1497 C 0.78498 0.69788 0.75139 0.0
C1498 C 0.78372 0.68061 0.73829 0.0
C1499 C 0.76953 0.67412 0.7235 0.0
C1500 C 0.75823 0.70218 0.73487 0.0
C1501 C 0.75689 0.68495 0.72178 0.0
C1502 C 0.79893 0.77439 0.80058 0.0
C1503 C 0.77476 0.72706 0.76354 0.0
H1504 H 0.79662 0.8574 0.78517 0.0
H1505 H 0.76576 0.88082 0.82711 0.0
H1506 H 0.79608 0.84145 0.83982 0.0
H1507 H 0.77565 0.86225 0.84905 0.0
H1508 H 0.79573 0.70282 0.76306 0.0
H1509 H 0.76829 0.66077 0.71328 0.0
H1510 H 0.7483 0.71033 0.73327 0.0
H1511 H 0.74602 0.67997 0.7103 0.0
Tb1512 Tb 0.53405 0.52828 0.50929 0.0
C1513 C 0.59089 0.59737 0.55742 0.0
C1514 C 0.59769 0.61928 0.53576 0.0
C1515 C 0.60139 0.63233 0.56958 0.0
C1516 C 0.59149 0.60028 0.53923 0.0
C1517 C 0.59645 0.61326 0.5729 0.0
C1518 C 0.602 0.63534 0.55099 0.0
C1519 C 0.59455 0.5902 0.59349 0.0
N1520 N 0.58671 0.57875 0.55992 0.0
C1521 C 0.58936 0.57496 0.57763 0.0
C1522 C 0.59781 0.60946 0.59115 0.0
Tb1523 Tb 0.57768 0.55436 0.53339 0.0
N1524 N 0.58787 0.58431 0.52509 0.0
C1525 C 0.59196 0.58645 0.50726 0.0
C1526 C 0.6004 0.6215 0.51727 0.0
C1527 C 0.59792 0.60497 0.50304 0.0
H1528 H 0.58683 0.56011 0.57961 0.0
H1529 H 0.60054 0.60646 0.48876 0.0
H1530 H 0.6066 0.65005 0.5486 0.0
H1531 H 0.59608 0.58706 0.60749 0.0
H1532 H 0.59014 0.57407 0.49586 0.0
H1533 H 0.50941 0.47475 0.55187 0.0
H1534 H 0.60515 0.63582 0.51399 0.0
H1535 H 0.52605 0.52368 0.46287 0.0
H1536 H 0.52011 0.50757 0.54568 0.0
H1537 H 0.51825 0.49728 0.43446 0.0
H1538 H 0.60552 0.64476 0.58127 0.0
H1539 H 0.50586 0.44593 0.52624 0.0
H1540 H 0.50597 0.43255 0.49165 0.0
H1541 H 0.60205 0.62125 0.60342 0.0
H1542 H 0.50825 0.43871 0.45935 0.0
N1543 N 0.52348 0.49801 0.51666 0.0
C1544 C 0.51871 0.49539 0.53416 0.0
C1545 C 0.5107 0.46043 0.52338 0.0
C1546 C 0.51411 0.46315 0.50516 0.0
C1547 C 0.51259 0.47664 0.53784 0.0
C1548 C 0.52033 0.48236 0.50222 0.0
H1549 H 0.51241 0.46287 0.43781 0.0
N1550 N 0.52577 0.50453 0.48215 0.0
C1551 C 0.51927 0.49381 0.44837 0.0
C1552 C 0.52153 0.48576 0.48422 0.0
C1553 C 0.5237 0.50873 0.46452 0.0
C1554 C 0.51606 0.47443 0.45032 0.0
C1555 C 0.51669 0.47017 0.46843 0.0
O1556 O 0.51525 0.53925 0.49516 0.0
O1557 O 0.55297 0.55679 0.51912 0.0
O1558 O 0.5585 0.56155 0.55395 0.0
O1559 O 0.53148 0.53894 0.53997 0.0
O1560 O 0.54071 0.55009 0.49189 0.0
O1561 O 0.50882 0.52716 0.51975 0.0
O1562 O 0.59694 0.54426 0.54802 0.0
O1563 O 0.55859 0.52602 0.52389 0.0
O1564 O 0.55319 0.52065 0.48912 0.0
O1565 O 0.58025 0.54331 0.50277 0.0
O1566 O 0.57124 0.53258 0.55095 0.0
O1567 O 0.60232 0.55409 0.52214 0.0
C1568 C 0.55146 0.56372 0.50432 0.0
C1569 C 0.48438 0.52657 0.49796 0.0
C1570 C 0.45353 0.52981 0.4959 0.0
C1571 C 0.47142 0.53602 0.50451 0.0
C1572 C 0.44861 0.51386 0.48057 0.0
C1573 C 0.47937 0.51038 0.48292 0.0
C1574 C 0.46149 0.50407 0.47425 0.0
C1575 C 0.54123 0.55223 0.55464 0.0
C1576 C 0.50311 0.53495 0.50653 0.0
C1577 C 0.5118 0.45092 0.47128 0.0
C1578 C 0.51051 0.44741 0.48965 0.0
C1579 C 0.56014 0.51911 0.53867 0.0
C1580 C 0.62747 0.5569 0.54384 0.0
C1581 C 0.63993 0.54552 0.54279 0.0
C1582 C 0.65831 0.55408 0.54915 0.0
C1583 C 0.66413 0.57413 0.55691 0.0
C1584 C 0.63333 0.57689 0.55176 0.0
C1585 C 0.65162 0.58543 0.55836 0.0
C1586 C 0.57036 0.52995 0.48826 0.0
C1587 C 0.60864 0.54752 0.53598 0.0
H1588 H 0.47543 0.54869 0.51601 0.0
H1589 H 0.43486 0.50894 0.47363 0.0
H1590 H 0.48919 0.5028 0.47775 0.0
H1591 H 0.45765 0.4917 0.46252 0.0
H1592 H 0.63541 0.53009 0.53653 0.0
H1593 H 0.67829 0.58099 0.56187 0.0
H1594 H 0.62389 0.58587 0.55264 0.0
H1595 H 0.65614 0.60086 0.56443 0.0
Tb1596 Tb 0.07102 0.5429 0.013 0.0
C1597 C 0.0047 0.50219 0.04829 0.0
C1598 C 0.99009 0.47309 0.02501 0.0
C1599 C 0.98745 0.47347 0.0584 0.0
C1600 C 1.00096 0.49245 0.02972 0.0
C1601 C 0.99771 0.493 0.06287 0.0
C1602 C 0.98366 0.4635 0.03948 0.0
C1603 C 0.01036 0.52352 0.0849 0.0
N1604 N 0.01451 0.52107 0.05193 0.0
C1605 C 0.01692 0.53201 0.06991 0.0
C1606 C 1.00087 0.50387 0.0814 0.0
Tb1607 Tb 0.02506 0.53358 0.02651 0.0
N1608 N 0.00718 0.50236 0.0162 0.0
C1609 C 1.0019 0.49407 0.9975 0.0
C1610 C 0.98558 0.46416 0.00589 0.0
C1611 C 0.9913 0.47481 0.99208 0.0
H1612 H 0.02425 0.54719 0.07289 0.0
H1613 H 0.98759 0.4682 0.97723 0.0
H1614 H 0.9754 0.44858 0.03617 0.0
H1615 H 0.01261 0.53216 0.09913 0.0
H1616 H 0.00619 0.50202 0.98661 0.0
H1617 H 0.10902 0.6073 0.0633 0.0
H1618 H 0.97731 0.44928 0.00166 0.0
H1619 H 0.07178 0.5303 0.96653 0.0
H1620 H 0.09041 0.57358 0.05337 0.0
H1621 H 0.08302 0.54614 0.94058 0.0
H1622 H 0.98205 0.46608 0.06941 0.0
H1623 H 0.11902 0.62695 0.03934 0.0
H1624 H 0.12053 0.62858 0.00497 0.0
H1625 H 0.99572 0.49736 0.09302 0.0
H1626 H 0.11354 0.61187 0.97149 0.0
N1627 N 0.08919 0.57391 0.02387 0.0
C1628 C 0.09459 0.5818 0.04264 0.0
C1629 C 0.11078 0.61208 0.03485 0.0
C1630 C 0.10612 0.60359 0.01565 0.0
C1631 C 0.1052 0.60102 0.0484 0.0
C1632 C 0.09529 0.58422 0.01059 0.0
H1633 H 0.09974 0.58101 0.94733 0.0
N1634 N 0.08158 0.55605 0.98791 0.0
C1635 C 0.0854 0.55445 0.95495 0.0
C1636 C 0.09137 0.57494 0.9919 0.0
C1637 C 0.07908 0.5455 0.96976 0.0
C1638 C 0.09479 0.57414 0.95881 0.0
C1639 C 0.09812 0.58459 0.97751 0.0
O1640 O 0.0846 0.52187 0.00233 0.0
O1641 O 0.04636 0.52152 0.01536 0.0
O1642 O 0.04103 0.52243 0.04561 0.0
O1643 O 0.06964 0.54213 0.04311 0.0
O1644 O 0.05943 0.51569 0.99227 0.0
O1645 O 0.09436 0.54126 0.02912 0.0
O1646 O 0.01148 0.55484 0.0365 0.0
O1647 O 0.04972 0.55491 0.0241 0.0
O1648 O 0.05501 0.55406 0.99406 0.0
O1649 O 0.02633 0.5344 0.99634 0.0
O1650 O 0.0365 0.56102 0.04701 0.0
O1651 O 1.00133 0.5343 0.01042 0.0
C1652 C 0.04581 0.50873 1.00075 0.0
C1653 C 0.11595 0.52942 0.01157 0.0
C1654 C 0.14374 0.51818 0.01103 0.0
C1655 C 0.12602 0.51662 0.01628 0.0
C1656 C 0.15098 0.53255 1.00075 0.0
C1657 C 0.12363 0.54368 0.00151 0.0
C1658 C 0.14101 0.54517 0.99609 0.0
C1659 C 0.05829 0.53056 0.05186 0.0
C1660 C 0.09724 0.5273 0.01652 0.0
C1661 C 0.10834 0.60413 0.98234 0.0
C1662 C 0.11231 0.61364 0.00139 0.0
C1663 C 0.05021 0.56785 0.03857 0.0
C1664 C 0.98003 0.54688 0.02789 0.0
C1665 C 0.97078 0.56098 0.02502 0.0
C1666 C 0.95354 0.56015 0.0313 0.0
C1667 C 0.94568 0.54486 0.04026 0.0
C1668 C 0.97181 0.53176 0.03674 0.0
C1669 C 0.95473 0.53078 0.04287 0.0
C1670 C 0.03786 0.54574 0.98751 0.0
C1671 C 0.99859 0.54871 0.02256 0.0
H1672 H 0.12011 0.50562 0.02413 0.0
H1673 H 0.16433 0.53392 0.99608 0.0
H1674 H 0.11616 0.55356 0.9977 0.0
H1675 H 0.14676 0.5561 0.98815 0.0
H1676 H 0.97718 0.5728 0.01834 0.0
H1677 H 0.93238 0.54362 0.04505 0.0
H1678 H 0.97863 0.52081 0.03905 0.0
H1679 H 0.9485 0.51908 0.04974 0.0
H1680 H 0.0408 0.21723 0.94015 0.0
H1681 H 0.04891 0.19002 0.95161 0.0
H1682 H 0.00627 0.18741 0.98807 0.0
H1683 H 0.99805 0.21428 0.97675 0.0
H1684 H 0.05921 0.18533 0.98953 0.0
H1685 H 0.99491 0.13145 0.95675 0.0
H1686 H 0.00244 0.15485 0.9502 0.0
H1687 H 0.99208 0.15301 0.97168 0.0
C1688 C 0.03315 0.21087 0.95061 0.0
C1689 C 0.01864 0.21797 0.95735 0.0
C1690 C 0.03785 0.19533 0.95721 0.0
C1691 C 0.02808 0.18641 0.97058 0.0
C1692 C 0.01387 0.19375 0.97757 0.0
H1693 H 0.04873 0.09543 0.03082 0.0
H1694 H 0.04486 0.12683 0.02456 0.0
C1695 C 0.00921 0.20924 0.97105 0.0
C1696 C 0.03232 0.16918 0.97694 0.0
H1697 H 0.01428 0.1208 0.97676 0.0
C1698 C 0.04935 0.17125 0.98681 0.0
C1699 C 0.01955 0.15069 0.97334 0.0
C1700 C 1.00127 0.14722 0.96228 0.0
C1701 C 0.05384 0.15542 0.99318 0.0
C1702 C 0.04104 0.137 0.9896 0.0
C1703 C 0.02405 0.13496 0.97975 0.0
C1704 C 0.04545 0.11916 0.99426 0.0
C1705 C 0.07247 0.1582 0.00306 0.0
C1706 C 0.0473 0.10453 0.97947 0.0
C1707 C 0.04962 0.08684 0.98303 0.0
C1708 C 0.05017 0.08317 0.00149 0.0
C1709 C 0.04871 0.09795 0.01649 0.0
C1710 C 0.04645 0.11585 0.0129 0.0
H1711 H 0.08098 0.17339 0.00478 0.0
H1712 H 0.07136 0.15446 0.01725 0.0
H1713 H 0.07937 0.14817 0.99477 0.0
H1714 H 0.04653 0.10662 0.96501 0.0
H1715 H 0.05057 0.07572 0.97115 0.0
H1716 H 0.15854 0.83615 0.13258 0.0
H1717 H 0.1833 0.83372 0.15413 0.0
H1718 H 0.14466 0.80181 0.18555 0.0
H1719 H 0.11963 0.80485 0.16427 0.0
H1720 H 0.17259 0.82512 0.2092 0.0
H1721 H 0.20035 0.78541 0.15048 0.0
H1722 H 0.19931 0.80887 0.14639 0.0
H1723 H 0.17868 0.79077 0.14751 0.0
C1724 C 0.15524 0.8288 0.14421 0.0
C1725 C 0.13703 0.82054 0.14655 0.0
C1726 C 0.16948 0.82724 0.15645 0.0
C1727 C 0.166 0.81695 0.17115 0.0
C1728 C 0.1478 0.80961 0.1742 0.0
H1729 H 0.25348 0.77494 0.21989 0.0
H1730 H 0.22643 0.77794 0.2021 0.0
C1731 C 0.13346 0.81142 0.16206 0.0
C1732 C 0.18137 0.81354 0.18288 0.0
H1733 H 0.21977 0.79745 0.17949 0.0
C1734 C 0.18283 0.81892 0.20271 0.0
C1735 C 0.19459 0.80497 0.1746 0.0
C1736 C 0.19306 0.79697 0.1536 0.0
C1737 C 0.19725 0.81643 0.21436 0.0
C1738 C 0.21119 0.80908 0.20598 0.0
C1739 C 0.20942 0.80332 0.18614 0.0
C1740 C 0.22763 0.80708 0.21731 0.0
C1741 C 0.19688 0.82123 0.23551 0.0
C1742 C 0.23766 0.82228 0.23192 0.0
C1743 C 0.25277 0.82023 0.24256 0.0
C1744 C 0.25919 0.80346 0.23811 0.0
C1745 C 0.24943 0.78838 0.22326 0.0
C1746 C 0.23381 0.79008 0.21313 0.0
H1747 H 0.18277 0.81946 0.23922 0.0
H1748 H 0.20321 0.81184 0.2428 0.0
H1749 H 0.2043 0.83672 0.241 0.0
H1750 H 0.23388 0.83589 0.2352 0.0
H1751 H 0.25936 0.83194 0.25421 0.0
H1752 H 0.54617 0.82638 0.46798 0.0
H1753 H 0.55128 0.86159 0.4801 0.0
H1754 H 0.49439 0.85627 0.466 0.0
H1755 H 0.48915 0.82121 0.45547 0.0
H1756 H 0.54934 0.88978 0.46541 0.0
H1757 H 0.49858 0.88823 0.51627 0.0
H1758 H 0.50419 0.86636 0.50513 0.0
H1759 H 0.4875 0.87547 0.4934 0.0
C1760 C 0.53477 0.83278 0.46781 0.0
C1761 C 0.51722 0.82101 0.46111 0.0
C1762 C 0.53766 0.85292 0.4747 0.0
C1763 C 0.52313 0.86177 0.4746 0.0
C1764 C 0.50574 0.84995 0.46723 0.0
H1765 H 0.53547 0.98241 0.46797 0.0
H1766 H 0.5299 0.94695 0.46279 0.0
C1767 C 0.50277 0.82983 0.46097 0.0
C1768 C 0.52621 0.8834 0.481 0.0
H1769 H 0.50823 0.91843 0.50521 0.0
C1770 C 0.54045 0.89594 0.47433 0.0
C1771 C 0.51497 0.89182 0.49304 0.0
C1772 C 0.50062 0.87973 0.50253 0.0
C1773 C 0.54325 0.91631 0.47862 0.0
C1774 C 0.53104 0.92454 0.48924 0.0
C1775 C 0.51732 0.91217 0.49665 0.0
C1776 C 0.5323 0.94589 0.49255 0.0
C1777 C 0.55948 0.92883 0.47189 0.0
C1778 C 0.53434 0.9571 0.51099 0.0
C1779 C 0.53723 0.97744 0.51397 0.0
C1780 C 0.53793 0.98689 0.49853 0.0
C1781 C 0.53497 0.97552 0.48012 0.0
C1782 C 0.53198 0.95526 0.47716 0.0
H1783 H 0.57037 0.9212 0.46967 0.0
H1784 H 0.55532 0.93215 0.45814 0.0
H1785 H 0.56515 0.9428 0.48216 0.0
H1786 H 0.53447 0.95024 0.52312 0.0
H1787 H 0.53973 0.98575 0.52831 0.0
H1788 H 0.53319 0.34714 0.65135 0.0
H1789 H 0.50605 0.34059 0.66783 0.0
H1790 H 0.50734 0.28054 0.66228 0.0
H1791 H 0.53476 0.28707 0.6461 0.0
H1792 H 0.47217 0.31581 0.65699 0.0
H1793 H 0.50456 0.29567 0.71841 0.0
H1794 H 0.51754 0.30701 0.70155 0.0
H1795 H 0.50662 0.28131 0.69605 0.0
C1796 C 0.5278 0.33253 0.65371 0.0
C1797 C 0.53637 0.31769 0.64753 0.0
C1798 C 0.51219 0.3288 0.6631 0.0
C1799 C 0.5047 0.31014 0.66663 0.0
C1800 C 0.51303 0.29519 0.66018 0.0
H1801 H 0.41606 0.26054 0.72755 0.0
H1802 H 0.43993 0.26604 0.70665 0.0
C1803 C 0.52872 0.29893 0.65085 0.0
C1804 C 0.48827 0.30642 0.67708 0.0
H1805 H 0.47273 0.29069 0.71639 0.0
C1806 C 0.4723 0.31036 0.67001 0.0
C1807 C 0.48836 0.29937 0.69413 0.0
C1808 C 0.50522 0.29576 0.70311 0.0
C1809 C 0.45642 0.30704 0.67924 0.0
C1810 C 0.45651 0.2999 0.69626 0.0
C1811 C 0.47251 0.29605 0.70333 0.0
C1812 C 0.44031 0.29616 0.70707 0.0
C1813 C 0.43957 0.31077 0.6704 0.0
C1814 C 0.43209 0.31107 0.71404 0.0
C1815 C 0.4182 0.30786 0.72592 0.0
C1816 C 0.41246 0.28977 0.73134 0.0
C1817 C 0.42025 0.2747 0.72378 0.0
C1818 C 0.43395 0.27784 0.71182 0.0
H1819 H 0.44009 0.31066 0.65506 0.0
H1820 H 0.42721 0.29971 0.67222 0.0
H1821 H 0.43841 0.32534 0.67738 0.0
H1822 H 0.43691 0.32547 0.71098 0.0
H1823 H 0.41265 0.31983 0.73167 0.0
H1824 H 0.98617 0.78998 0.59679 0.0
H1825 H 0.99505 0.81542 0.57853 0.0
H1826 H 0.02566 0.85472 0.62858 0.0
H1827 H 0.01751 0.82892 0.64675 0.0
H1828 H 0.98992 0.85059 0.58074 0.0
H1829 H 0.06388 0.85779 0.59325 0.0
H1830 H 0.04717 0.83855 0.59995 0.0
H1831 H 0.05343 0.86269 0.61449 0.0
C1832 C 0.99473 0.80407 0.60393 0.0
C1833 C 1.00133 0.80743 0.62312 0.0
C1834 C 0.99981 0.81859 0.59348 0.0
C1835 C 0.01138 0.83683 0.60207 0.0
C1836 C 0.01722 0.84055 0.6215 0.0
H1837 H 0.05605 0.93774 0.55309 0.0
H1838 H 0.04693 0.9157 0.57481 0.0
C1839 C 0.01244 0.82587 0.63189 0.0
C1840 C 0.01741 0.85169 0.59047 0.0
H1841 H 0.05497 0.87933 0.57589 0.0
C1842 C 0.00415 0.85686 0.57969 0.0
C1843 C 0.036 0.8599 0.58914 0.0
C1844 C 0.05095 0.85434 0.59968 0.0
C1845 C 0.00894 0.86989 0.56751 0.0
C1846 C 0.02748 0.87784 0.56599 0.0
C1847 C 0.04077 0.8731 0.57709 0.0
C1848 C 0.03334 0.89094 0.55276 0.0
C1849 C 0.99414 0.87513 0.55643 0.0
C1850 C 0.02906 0.88414 0.53316 0.0
C1851 C 0.03417 0.8967 0.5207 0.0
C1852 C 0.04368 0.91627 0.52766 0.0
C1853 C 0.04843 0.92284 0.5473 0.0
C1854 C 0.04333 0.91026 0.55973 0.0
H1855 H 0.98103 0.87159 0.56252 0.0
H1856 H 0.9979 0.89088 0.556 0.0
H1857 H 0.99212 0.86672 0.54166 0.0
H1858 H 0.02164 0.86914 0.52751 0.0
H1859 H 0.03025 0.89124 0.50567 0.0
H1860 H 0.56341 0.8496 0.86447 0.0
H1861 H 0.5376 0.85243 0.84431 0.0
H1862 H 0.50961 0.79294 0.845 0.0
H1863 H 0.53499 0.79058 0.8661 0.0
H1864 H 0.5179 0.83473 0.81082 0.0
H1865 H 0.47578 0.82188 0.86945 0.0
H1866 H 0.5 0.82529 0.87214 0.0
H1867 H 0.48519 0.80198 0.86083 0.0
C1868 C 0.55187 0.83705 0.85991 0.0
C1869 C 0.55093 0.81993 0.86679 0.0
C1870 C 0.53716 0.83865 0.84846 0.0
C1871 C 0.52148 0.82308 0.84365 0.0
C1872 C 0.52135 0.80533 0.84907 0.0
H1873 H 0.41615 0.81169 0.78534 0.0
H1874 H 0.44403 0.80621 0.79884 0.0
C1875 C 0.53585 0.8039 0.86091 0.0
C1876 C 0.50478 0.82604 0.83459 0.0
H1877 H 0.46065 0.82469 0.84096 0.0
C1878 C 0.50538 0.83253 0.8174 0.0
C1879 C 0.48853 0.82348 0.84339 0.0
C1880 C 0.48733 0.81798 0.86255 0.0
C1881 C 0.49006 0.83622 0.80864 0.0
C1882 C 0.47383 0.83326 0.81728 0.0
C1883 C 0.47317 0.82678 0.8344 0.0
C1884 C 0.45727 0.83681 0.80876 0.0
C1885 C 0.49118 0.84318 0.7902 0.0
C1886 C 0.45556 0.85586 0.81011 0.0
C1887 C 0.43951 0.85908 0.80271 0.0
C1888 C 0.42496 0.84327 0.7938 0.0
C1889 C 0.42692 0.8242 0.79238 0.0
C1890 C 0.44288 0.82101 0.79993 0.0
H1891 H 0.50413 0.84265 0.78423 0.0
H1892 H 0.47969 0.83415 0.77968 0.0
H1893 H 0.49007 0.85844 0.79253 0.0
H1894 H 0.46653 0.86819 0.81713 0.0
H1895 H 0.43838 0.87392 0.80432 0.0
H1896 H 0.4944 0.23368 0.102 0.0
H1897 H 0.4985 0.21134 0.07401 0.0
H1898 H 0.47497 0.16241 0.09903 0.0
H1899 H 0.47071 0.18455 0.12697 0.0
H1900 H 0.52272 0.19103 0.08574 0.0
H1901 H 0.46227 0.13951 0.04201 0.0
H1902 H 0.46175 0.1631 0.0553 0.0
H1903 H 0.46058 0.14297 0.06701 0.0
C1904 C 0.48928 0.21815 0.10119 0.0
C1905 C 0.48286 0.21083 0.11694 0.0
C1906 C 0.49158 0.20541 0.08512 0.0
C1907 C 0.48725 0.18529 0.08459 0.0
C1908 C 0.47829 0.17789 0.0991 0.0
H1909 H 0.53004 0.08913 0.05683 0.0
H1910 H 0.51741 0.11574 0.0703 0.0
C1911 C 0.47604 0.1906 0.11518 0.0
C1912 C 0.49657 0.17301 0.07247 0.0
H1913 H 0.48988 0.12894 0.0427 0.0
C1914 C 0.51558 0.17774 0.07585 0.0
C1915 C 0.48716 0.15551 0.06001 0.0
C1916 C 0.46681 0.15001 0.05572 0.0
C1917 C 0.52538 0.16496 0.0678 0.0
C1918 C 0.51593 0.1472 0.05589 0.0
C1919 C 0.49701 0.14272 0.05185 0.0
C1920 C 0.52538 0.13241 0.04879 0.0
C1921 C 0.54562 0.16985 0.07293 0.0
C1922 C 0.53454 0.13346 0.03266 0.0
C1923 C 0.54223 0.11846 0.02523 0.0
C1924 C 0.54095 0.10242 0.034 0.0
C1925 C 0.5323 0.10184 0.05052 0.0
C1926 C 0.52461 0.11677 0.05791 0.0
H1927 H 0.55094 0.18429 0.08257 0.0
H1928 H 0.54904 0.15852 0.07994 0.0
H1929 H 0.55258 0.16984 0.0599 0.0
H1930 H 0.53514 0.14549 0.02547 0.0
H1931 H 0.54833 0.11885 0.01212 0.0
H1932 H 0.13192 0.29466 0.35206 0.0
H1933 H 0.15433 0.28921 0.33081 0.0
H1934 H 0.15588 0.34371 0.31364 0.0
H1935 H 0.13358 0.34962 0.33546 0.0
H1936 H 0.15687 0.28685 0.2925 0.0
H1937 H 0.20788 0.35128 0.33624 0.0
H1938 H 0.18607 0.34177 0.34386 0.0
H1939 H 0.18786 0.3555 0.32536 0.0
C1940 C 0.13684 0.30545 0.34365 0.0
C1941 C 0.13121 0.32274 0.34568 0.0
C1942 C 0.14957 0.30223 0.33139 0.0
C1943 C 0.15691 0.31616 0.32085 0.0
C1944 C 0.15054 0.33292 0.32189 0.0
H1945 H 0.24691 0.2894 0.25961 0.0
H1946 H 0.21755 0.2963 0.26396 0.0
C1947 C 0.13778 0.33623 0.3343 0.0
C1948 C 0.17251 0.31364 0.31054 0.0
H1949 H 0.21862 0.32964 0.31483 0.0
C1950 C 0.17037 0.2964 0.297 0.0
C1951 C 0.19005 0.32616 0.31659 0.0
C1952 C 0.19325 0.34467 0.33137 0.0
C1953 C 0.18545 0.29061 0.29041 0.0
C1954 C 0.20297 0.30256 0.29738 0.0
C1955 C 0.20506 0.3205 0.30973 0.0
C1956 C 0.2194 0.29592 0.29386 0.0
C1957 C 0.18267 0.27117 0.27718 0.0
C1958 C 0.22992 0.29311 0.30918 0.0
C1959 C 0.24666 0.28924 0.30675 0.0
C1960 C 0.25304 0.28796 0.28893 0.0
C1961 C 0.24216 0.28994 0.27341 0.0
C1962 C 0.22541 0.29392 0.27587 0.0
H1963 H 0.16822 0.2627 0.2747 0.0
H1964 H 0.18736 0.27349 0.26334 0.0
H1965 H 0.19085 0.26239 0.28303 0.0
H1966 H 0.22543 0.2946 0.32318 0.0
H1967 H 0.25492 0.28789 0.31891 0.0
H1968 H 0.94382 0.07096 0.202 0.0
H1969 H 0.95649 0.06951 0.17122 0.0
H1970 H 0.00901 0.07369 0.19919 0.0
H1971 H 0.99643 0.07451 0.22939 0.0
H1972 H 0.98171 0.09027 0.15318 0.0
H1973 H 0.00611 0.02619 0.16119 0.0
H1974 H 0.99181 0.03551 0.17733 0.0
H1975 H 0.01599 0.0462 0.18044 0.0
C1976 C 0.95815 0.07196 0.20168 0.0
C1977 C 0.96895 0.07294 0.21862 0.0
C1978 C 0.96546 0.07093 0.18386 0.0
C1979 C 0.98384 0.07074 0.18221 0.0
C1980 C 0.99472 0.07294 0.19935 0.0
H1981 H 0.0588 0.06857 0.09253 0.0
H1982 H 0.04454 0.07296 0.12196 0.0
C1983 C 0.98746 0.07376 0.21694 0.0
C1984 C 0.99173 0.06801 0.16299 0.0
H1985 H 0.01795 0.04255 0.13695 0.0
C1986 C 0.98946 0.07966 0.14971 0.0
C1987 C 1.00196 0.05414 0.15771 0.0
C1988 C 0.00395 0.03967 0.16981 0.0
C1989 C 0.99735 0.07828 0.13221 0.0
C1990 C 0.00799 0.06484 0.1273 0.0
C1991 C 0.0101 0.05308 0.14043 0.0
C1992 C 0.01687 0.06267 0.10873 0.0
C1993 C 0.99462 0.09166 0.11918 0.0
C1994 C 0.00648 0.05523 0.09089 0.0
C1995 C 0.01475 0.05242 0.07385 0.0
C1996 C 0.03385 0.05724 0.07373 0.0
C1997 C 0.0442 0.06491 0.09159 0.0
C1998 C 0.03593 0.06735 0.10867 0.0
H1999 H 0.98888 0.10349 0.12616 0.0
H2000 H 0.00768 0.09829 0.11414 0.0
H2001 H 0.98515 0.08309 0.1066 0.0
H2002 H 0.99182 0.05119 0.09011 0.0
H2003 H 0.00606 0.04641 0.06065 0.0
H2004 H 0.24764 0.65654 0.4717 0.0
H2005 H 0.24561 0.67642 0.44824 0.0
H2006 H 0.30397 0.69725 0.45429 0.0
H2007 H 0.30615 0.67695 0.47769 0.0
H2008 H 0.25782 0.71618 0.45724 0.0
H2009 H 0.29067 0.68539 0.39693 0.0
H2010 H 0.28334 0.67234 0.41535 0.0
H2011 H 0.30419 0.69127 0.41943 0.0
C2012 C 0.26008 0.66505 0.46776 0.0
C2013 C 0.27707 0.66534 0.47651 0.0
C2014 C 0.25888 0.67637 0.45437 0.0
C2015 C 0.27462 0.68819 0.44954 0.0
C2016 C 0.29169 0.68792 0.45764 0.0
H2017 H 0.29472 0.77872 0.38505 0.0
H2018 H 0.29662 0.75579 0.40573 0.0
C2019 C 0.29292 0.6764 0.471 0.0
C2020 C 0.27292 0.70218 0.43751 0.0
H2021 H 0.28405 0.71578 0.39615 0.0
C2022 C 0.26347 0.71606 0.44382 0.0
C2023 C 0.28034 0.70189 0.4201 0.0
C2024 C 0.29007 0.68682 0.41243 0.0
C2025 C 0.26148 0.73 0.43329 0.0
C2026 C 0.26896 0.72979 0.4159 0.0
C2027 C 0.27836 0.71584 0.40954 0.0
C2028 C 0.26756 0.7442 0.40425 0.0
C2029 C 0.25179 0.74507 0.44109 0.0
C2030 C 0.25056 0.74532 0.3968 0.0
C2031 C 0.24945 0.7586 0.38524 0.0
C2032 C 0.26534 0.7706 0.38078 0.0
C2033 C 0.28231 0.76958 0.38839 0.0
C2034 C 0.2834 0.75649 0.40008 0.0
H2035 H 0.25104 0.74629 0.45655 0.0
H2036 H 0.25864 0.75962 0.43843 0.0
H2037 H 0.23771 0.74078 0.434 0.0
H2038 H 0.2382 0.73564 0.39957 0.0
H2039 H 0.23626 0.75897 0.3792 0.0
H2040 H 0.66751 0.01323 0.68687 0.0
H2041 H 0.64942 0.00319 0.65576 0.0
H2042 H 0.60653 0.02524 0.67989 0.0
H2043 H 0.62457 0.03568 0.71073 0.0
H2044 H 0.61091 0.98022 0.64129 0.0
H2045 H 0.62691 0.05936 0.64084 0.0
H2046 H 0.63914 0.04941 0.657 0.0
H2047 H 0.61737 0.05329 0.66173 0.0
C2048 C 0.65404 0.01548 0.68557 0.0
C2049 C 0.64748 0.02548 0.70101 0.0
C2050 C 0.64376 0.00972 0.66788 0.0
C2051 C 0.62684 0.01375 0.66567 0.0
C2052 C 0.61969 0.02223 0.68142 0.0
H2053 H 0.54493 0.01647 0.58388 0.0
H2054 H 0.56104 0.00787 0.61004 0.0
C2055 C 0.63 0.02822 0.69895 0.0
C2056 C 0.61756 0.01161 0.64676 0.0
H2057 H 0.60338 0.03861 0.61787 0.0
C2058 C 0.60936 0.99291 0.63599 0.0
C2059 C 0.61597 0.0283 0.63989 0.0
C2060 C 0.62547 0.04873 0.65036 0.0
C2061 C 0.5987 0.99055 0.6188 0.0
C2062 C 0.59626 0.00726 0.61266 0.0
C2063 C 0.60511 0.02588 0.623 0.0
C2064 C 0.58466 0.00624 0.59548 0.0
C2065 C 0.58985 0.97042 0.60741 0.0
C2066 C 0.59256 0.00766 0.5787 0.0
C2067 C 0.58357 0.01292 0.56401 0.0
C2068 C 0.56661 0.01685 0.56598 0.0
C2069 C 0.55803 0.01372 0.58213 0.0
C2070 C 0.56713 0.00863 0.59696 0.0
H2071 H 0.59338 0.95886 0.61397 0.0
H2072 H 0.57489 0.96803 0.606 0.0
H2073 H 0.59411 0.96914 0.59292 0.0
H2074 H 0.60618 0.00604 0.57749 0.0
H2075 H 0.59022 0.01462 0.55142 0.0
H2076 H 0.333 0.35938 0.97837 0.0
H2077 H 0.33009 0.34683 0.94442 0.0
H2078 H 0.27199 0.32712 0.94393 0.0
H2079 H 0.27489 0.34111 0.978 0.0
H2080 H 0.31949 0.3126 0.92397 0.0
H2081 H 0.273 0.35469 0.90168 0.0
H2082 H 0.28322 0.35923 0.92571 0.0
H2083 H 0.26383 0.33882 0.91709 0.0
C2084 C 0.31958 0.3525 0.97098 0.0
C2085 C 0.30416 0.35132 0.98073 0.0
C2086 C 0.31791 0.34523 0.95156 0.0
C2087 C 0.3008 0.33616 0.94139 0.0
C2088 C 0.28532 0.33454 0.95123 0.0
H2089 H 0.29935 0.27941 0.82119 0.0
H2090 H 0.29855 0.28356 0.85563 0.0
C2091 C 0.28696 0.34242 0.97071 0.0
C2092 C 0.29962 0.3287 0.92057 0.0
H2093 H 0.2817 0.33332 0.87774 0.0
C2094 C 0.31117 0.31711 0.91387 0.0
C2095 C 0.28876 0.3345 0.90729 0.0
C2096 C 0.27663 0.34762 0.91326 0.0
C2097 C 0.31284 0.31202 0.89445 0.0
C2098 C 0.30218 0.31808 0.88126 0.0
C2099 C 0.28995 0.32877 0.88788 0.0
C2100 C 0.30443 0.31508 0.86071 0.0
C2101 C 0.3267 0.30112 0.88838 0.0
C2102 C 0.30814 0.33133 0.85209 0.0
C2103 C 0.3083 0.32894 0.83255 0.0
C2104 C 0.30513 0.31029 0.82117 0.0
C2105 C 0.30222 0.29398 0.82975 0.0
C2106 C 0.30177 0.29636 0.84941 0.0
H2107 H 0.33671 0.3017 0.9004 0.0
H2108 H 0.3197 0.28559 0.88253 0.0
H2109 H 0.33413 0.30718 0.87719 0.0
H2110 H 0.31036 0.34592 0.86045 0.0
H2111 H 0.31041 0.3417 0.82621 0.0
H2112 H 0.98364 0.04666 0.31724 0.0
H2113 H 0.99531 0.04463 0.3484 0.0
H2114 H 0.9689 0.08764 0.37349 0.0
H2115 H 0.95646 0.08944 0.34161 0.0
H2116 H 0.01816 0.068 0.37611 0.0
H2117 H 0.95289 0.04927 0.40642 0.0
H2118 H 0.95383 0.04946 0.38158 0.0
H2119 H 0.95779 0.07197 0.39855 0.0
C2120 C 0.98011 0.05591 0.32918 0.0
C2121 C 0.96881 0.06831 0.32621 0.0
C2122 C 0.987 0.05466 0.34737 0.0
C2123 C 0.9831 0.06566 0.36398 0.0
C2124 C 0.97202 0.07841 0.36129 0.0
H2125 H 0.00513 0.05978 0.48475 0.0
H2126 H 0.99559 0.066 0.45461 0.0
C2127 C 0.96494 0.07964 0.34282 0.0
C2128 C 0.99089 0.06346 0.38353 0.0
H2129 H 0.97913 0.05154 0.42593 0.0
C2130 C 0.00956 0.06455 0.38705 0.0
C2131 C 0.98013 0.05894 0.39829 0.0
C2132 C 0.96003 0.05716 0.39608 0.0
C2133 C 0.01762 0.06181 0.40441 0.0
C2134 C 0.00678 0.05668 0.4191 0.0
C2135 C 0.98802 0.05551 0.41539 0.0
C2136 C 0.01422 0.05324 0.43848 0.0
C2137 C 0.03795 0.06529 0.40676 0.0
C2138 C 0.02863 0.04426 0.44104 0.0
C2139 C 0.03519 0.04186 0.45923 0.0
C2140 C 0.02671 0.04681 0.47558 0.0
C2141 C 0.01214 0.05531 0.47286 0.0
C2142 C 0.00636 0.05875 0.45511 0.0
H2143 H 0.04454 0.07509 0.39755 0.0
H2144 H 0.04376 0.07194 0.4216 0.0
H2145 H 0.04142 0.0512 0.40246 0.0
H2146 H 0.03493 0.03881 0.42901 0.0
H2147 H 0.04678 0.03594 0.46034 0.0
H2148 H 0.2421 0.68242 0.56972 0.0
H2149 H 0.24914 0.70609 0.59952 0.0
H2150 H 0.30552 0.70593 0.60036 0.0
H2151 H 0.29861 0.68192 0.57061 0.0
H2152 H 0.29218 0.70161 0.63366 0.0
H2153 H 0.27451 0.76402 0.60986 0.0
H2154 H 0.2565 0.74204 0.60326 0.0
H2155 H 0.27779 0.74336 0.59357 0.0
C2156 C 0.25603 0.68745 0.57615 0.0
C2157 C 0.2698 0.68028 0.56778 0.0
C2158 C 0.26004 0.70113 0.59308 0.0
C2159 C 0.2779 0.70806 0.60183 0.0
C2160 C 0.29168 0.70088 0.59363 0.0
H2161 H 0.30858 0.7991 0.70445 0.0
H2162 H 0.30495 0.78222 0.67135 0.0
C2163 C 0.28768 0.68711 0.57671 0.0
C2164 C 0.28185 0.72168 0.62027 0.0
H2165 H 0.27616 0.76497 0.64341 0.0
C2166 C 0.28893 0.71559 0.63575 0.0
C2167 C 0.27786 0.74002 0.62285 0.0
C2168 C 0.27143 0.74786 0.60645 0.0
C2169 C 0.29133 0.72697 0.65399 0.0
C2170 C 0.28605 0.74462 0.65677 0.0
C2171 C 0.27984 0.75122 0.64119 0.0
C2172 C 0.2864 0.75596 0.67591 0.0
C2173 C 0.29939 0.71988 0.6701 0.0
C2174 C 0.27637 0.74717 0.68903 0.0
C2175 C 0.27888 0.75646 0.70794 0.0
C2176 C 0.29123 0.77487 0.71395 0.0
C2177 C 0.29969 0.78456 0.70039 0.0
C2178 C 0.29746 0.77505 0.68146 0.0
H2179 H 0.30764 0.70969 0.66498 0.0
H2180 H 0.30808 0.73223 0.6808 0.0
H2181 H 0.28827 0.71191 0.67713 0.0
H2182 H 0.26723 0.73271 0.6848 0.0
H2183 H 0.27165 0.7488 0.71789 0.0
H2184 H 0.66061 0.0749 0.80743 0.0
H2185 H 0.64723 0.06911 0.83619 0.0
H2186 H 0.65721 0.01211 0.82765 0.0
H2187 H 0.67067 0.01773 0.79856 0.0
H2188 H 0.62091 0.0127 0.833 0.0
H2189 H 0.669 0.06674 0.8888 0.0
H2190 H 0.66406 0.07724 0.86909 0.0
H2191 H 0.67542 0.058 0.86582 0.0
C2192 C 0.66027 0.06124 0.81177 0.0
C2193 C 0.66667 0.04675 0.80069 0.0
C2194 C 0.65275 0.05802 0.82832 0.0
C2195 C 0.65157 0.04033 0.83418 0.0
C2196 C 0.65825 0.02595 0.82342 0.0
H2197 H 0.59208 0.05254 0.93305 0.0
H2198 H 0.61246 0.03701 0.91448 0.0
C2199 C 0.66589 0.02919 0.80684 0.0
C2200 C 0.64146 0.03645 0.85037 0.0
H2201 H 0.63712 0.05939 0.89462 0.0
C2202 C 0.6247 0.0224 0.84675 0.0
C2203 C 0.64656 0.04886 0.86837 0.0
C2204 C 0.66485 0.06342 0.87331 0.0
C2205 C 0.61199 0.02212 0.85992 0.0
C2206 C 0.61625 0.03628 0.87691 0.0
C2207 C 0.63383 0.04864 0.88148 0.0
C2208 C 0.60191 0.04166 0.88772 0.0
C2209 C 0.59363 0.00771 0.85494 0.0
C2210 C 0.58925 0.04921 0.87873 0.0
C2211 C 0.57796 0.05827 0.88924 0.0
C2212 C 0.5791 0.05987 0.90891 0.0
C2213 C 0.59103 0.05139 0.91785 0.0
C2214 C 0.60257 0.0425 0.9073 0.0
H2215 H 0.5946 0.99401 0.8457 0.0
H2216 H 0.58749 0.00421 0.86783 0.0
H2217 H 0.58447 0.01405 0.84702 0.0
H2218 H 0.58884 0.04912 0.8637 0.0
H2219 H 0.56874 0.06462 0.8821 0.0
H2220 H 0.31725 0.34184 0.08819 0.0
H2221 H 0.30728 0.33095 0.11657 0.0
H2222 H 0.25955 0.35191 0.11031 0.0
H2223 H 0.26987 0.36361 0.08189 0.0
H2224 H 0.27463 0.36173 0.14648 0.0
H2225 H 0.26906 0.2836 0.12084 0.0
H2226 H 0.29118 0.29793 0.11845 0.0
H2227 H 0.27156 0.30063 0.10513 0.0
C2228 C 0.30451 0.34401 0.09265 0.0
C2229 C 0.29425 0.35344 0.08259 0.0
C2230 C 0.29876 0.33762 0.10889 0.0
C2231 C 0.28239 0.34007 0.11534 0.0
C2232 C 0.27213 0.34965 0.10548 0.0
H2233 H 0.25165 0.28233 0.21014 0.0
H2234 H 0.24848 0.29317 0.18025 0.0
C2235 C 0.27802 0.3563 0.08924 0.0
C2236 C 0.27671 0.33336 0.13288 0.0
H2237 H 0.27308 0.29473 0.15486 0.0
C2238 C 0.27396 0.34698 0.1482 0.0
C2239 C 0.27542 0.314 0.13512 0.0
C2240 C 0.27677 0.29818 0.11891 0.0
C2241 C 0.27118 0.34211 0.16597 0.0
C2242 C 0.27153 0.32325 0.1686 0.0
C2243 C 0.27307 0.30929 0.15297 0.0
C2244 C 0.27186 0.31808 0.18762 0.0
C2245 C 0.26814 0.3573 0.18182 0.0
C2246 C 0.28584 0.32863 0.20189 0.0
C2247 C 0.28781 0.32232 0.21889 0.0
C2248 C 0.27602 0.30509 0.22192 0.0
C2249 C 0.26138 0.29521 0.20806 0.0
C2250 C 0.25944 0.30151 0.191 0.0
H2251 H 0.26196 0.36786 0.17622 0.0
H2252 H 0.25922 0.35053 0.19167 0.0
H2253 H 0.28138 0.36558 0.18991 0.0
H2254 H 0.29577 0.3413 0.19958 0.0
H2255 H 0.29902 0.33062 0.22931 0.0
H2256 H 0.26313 0.93977 0.04358 0.0
H2257 H 0.23932 0.95686 0.04861 0.0
H2258 H 0.26137 0.99388 0.01052 0.0
H2259 H 0.28528 0.97711 0.00556 0.0
H2260 H 0.25543 0.01406 0.0449 0.0
H2261 H 0.19461 0.9545 0.01236 0.0
H2262 H 0.20874 0.94872 0.03008 0.0
H2263 H 0.2174 0.95328 0.00834 0.0
C2264 C 0.26289 0.95154 0.03625 0.0
C2265 C 0.27613 0.95716 0.02419 0.0
C2266 C 0.24918 0.96115 0.03902 0.0
C2267 C 0.24849 0.97644 0.02974 0.0
C2268 C 0.26165 0.98203 0.01772 0.0
H2269 H 0.16577 0.03683 0.0168 0.0
H2270 H 0.1871 0.0165 0.01269 0.0
C2271 C 0.27532 0.97246 0.01494 0.0
C2272 C 0.2348 0.98757 0.03335 0.0
H2273 H 0.18942 0.98414 0.02812 0.0
C2274 C 0.24099 0.00753 0.04127 0.0
C2275 C 0.21602 0.97897 0.02841 0.0
C2276 C 0.20873 0.95773 0.01917 0.0
C2277 C 0.22891 0.01924 0.04432 0.0
C2278 C 0.2101 0.01062 0.03973 0.0
C2279 C 0.20386 0.99063 0.03179 0.0
C2280 C 0.19678 0.02236 0.04246 0.0
C2281 C 0.23646 0.04083 0.05193 0.0
C2282 C 0.19511 0.03225 0.06058 0.0
C2283 C 0.18304 0.04398 0.06296 0.0
C2284 C 0.17229 0.04578 0.04726 0.0
C2285 C 0.17382 0.03562 0.02916 0.0
C2286 C 0.18596 0.024 0.02679 0.0
H2287 H 0.25111 0.04577 0.05026 0.0
H2288 H 0.22904 0.04937 0.04464 0.0
H2289 H 0.2349 0.04411 0.06724 0.0
H2290 H 0.20313 0.03087 0.07288 0.0
H2291 H 0.18188 0.05137 0.07709 0.0
H2292 H 0.75301 0.6364 0.99751 0.0
H2293 H 0.7244 0.61055 0.99297 0.0
H2294 H 0.69483 0.65415 0.00563 0.0
H2295 H 0.72287 0.67973 0.00994 0.0
H2296 H 0.69839 0.60235 0.01841 0.0
H2297 H 0.66752 0.62142 0.9557 0.0
H2298 H 0.69146 0.63031 0.96373 0.0
H2299 H 0.6755 0.64215 0.97474 0.0
C2300 C 0.74039 0.64042 0.99929 0.0
C2301 C 0.74027 0.66016 0.0039 0.0
C2302 C 0.72407 0.62566 0.99665 0.0
C2303 C 0.70742 0.63046 0.99847 0.0
C2304 C 0.70741 0.6501 0.00356 0.0
H2305 H 0.60377 0.5875 0.02727 0.0
H2306 H 0.63451 0.60331 0.02216 0.0
C2307 C 0.72356 0.66474 0.00615 0.0
C2308 C 0.68994 0.61521 0.99592 0.0
H2309 H 0.64668 0.60313 0.97387 0.0
C2310 C 0.68721 0.60218 0.00835 0.0
C2311 C 0.67534 0.61491 0.98273 0.0
C2312 C 0.67764 0.62783 0.96834 0.0
C2313 C 0.66996 0.58984 0.0088 0.0
C2314 C 0.65515 0.59055 0.99653 0.0
C2315 C 0.65808 0.60267 0.98331 0.0
C2316 C 0.63629 0.58066 0.9989 0.0
C2317 C 0.66738 0.57671 0.02297 0.0
C2318 C 0.62698 0.56277 0.98723 0.0
C2319 C 0.60923 0.55356 0.9901 0.0
C2320 C 0.60057 0.56211 0.0047 0.0
C2321 C 0.60995 0.58028 0.01601 0.0
C2322 C 0.62758 0.58941 0.01314 0.0
H2323 H 0.68051 0.57581 0.02968 0.0
H2324 H 0.6597 0.5824 0.03423 0.0
H2325 H 0.6593 0.56181 0.01601 0.0
H2326 H 0.63349 0.55589 0.97606 0.0
H2327 H 0.60237 0.53975 0.98095 0.0
H2328 H 0.71194 0.46047 0.2489 0.0
H2329 H 0.72884 0.43509 0.24721 0.0
H2330 H 0.70931 0.42138 0.29893 0.0
H2331 H 0.69247 0.44591 0.30046 0.0
H2332 H 0.75628 0.42676 0.2674 0.0
H2333 H 0.69658 0.36722 0.27037 0.0
H2334 H 0.69442 0.39073 0.26712 0.0
H2335 H 0.69932 0.38658 0.29053 0.0
C2336 C 0.71108 0.452 0.25988 0.0
C2337 C 0.70029 0.45569 0.27474 0.0
C2338 C 0.72094 0.43727 0.25895 0.0
C2339 C 0.7204 0.42529 0.27268 0.0
C2340 C 0.70992 0.42938 0.2876 0.0
H2341 H 0.76907 0.33486 0.30647 0.0
H2342 H 0.75405 0.36043 0.30293 0.0
C2343 C 0.70019 0.44391 0.28854 0.0
C2344 C 0.73058 0.40884 0.27189 0.0
H2345 H 0.72538 0.36119 0.27754 0.0
C2346 C 0.74929 0.41239 0.26937 0.0
C2347 C 0.72211 0.38957 0.27437 0.0
C2348 C 0.70198 0.3832 0.27554 0.0
C2349 C 0.75944 0.39809 0.27 0.0
C2350 C 0.75103 0.37909 0.27309 0.0
C2351 C 0.73231 0.37547 0.27528 0.0
C2352 C 0.76132 0.3632 0.27497 0.0
C2353 C 0.77945 0.40377 0.26816 0.0
C2354 C 0.77085 0.35525 0.26053 0.0
C2355 C 0.77945 0.33997 0.26245 0.0
C2356 C 0.77934 0.33216 0.27912 0.0
C2357 C 0.7699 0.34028 0.29344 0.0
C2358 C 0.76111 0.35515 0.2914 0.0
H2359 H 0.78479 0.41974 0.2694 0.0
H2360 H 0.7871 0.39904 0.27918 0.0
H2361 H 0.78198 0.39635 0.25413 0.0
H2362 H 0.77126 0.36046 0.2474 0.0
H2363 H 0.78593 0.33408 0.25071 0.0
H2364 H 0.84798 0.47138 0.53778 0.0
H2365 H 0.87382 0.49677 0.53275 0.0
H2366 H 0.91008 0.46284 0.54641 0.0
H2367 H 0.8844 0.43721 0.55129 0.0
H2368 H 0.91764 0.51439 0.55583 0.0
H2369 H 0.90138 0.46714 0.48375 0.0
H2370 H 0.88411 0.46996 0.49921 0.0
H2371 H 0.8992 0.45546 0.50382 0.0
C2372 C 0.8615 0.46966 0.54061 0.0
C2373 C 0.86413 0.452 0.54437 0.0
C2374 C 0.87622 0.48419 0.53763 0.0
C2375 C 0.89364 0.48132 0.53881 0.0
C2376 C 0.89659 0.46509 0.54529 0.0
H2377 H 0.99536 0.49788 0.5094 0.0
H2378 H 0.96251 0.48757 0.50988 0.0
C2379 C 0.88191 0.4505 0.54814 0.0
C2380 C 0.90814 0.49302 0.53015 0.0
H2381 H 0.93031 0.48967 0.49068 0.0
C2382 C 0.92027 0.50943 0.54145 0.0
C2383 C 0.91125 0.48636 0.51134 0.0
C2384 C 0.89829 0.46882 0.49869 0.0
C2385 C 0.93639 0.51851 0.53487 0.0
C2386 C 0.94016 0.51096 0.51646 0.0
C2387 C 0.92729 0.49543 0.50471 0.0
C2388 C 0.95861 0.51641 0.5108 0.0
C2389 C 0.94987 0.53506 0.54822 0.0
C2390 C 0.96701 0.53575 0.50998 0.0
C2391 C 0.98578 0.54164 0.50998 0.0
C2392 C 0.99613 0.52808 0.50994 0.0
C2393 C 0.98749 0.50841 0.50891 0.0
C2394 C 0.96879 0.50258 0.50923 0.0
H2395 H 0.94574 0.53741 0.56275 0.0
H2396 H 0.96347 0.53218 0.54902 0.0
H2397 H 0.95107 0.54874 0.5429 0.0
H2398 H 0.95929 0.54653 0.51079 0.0
H2399 H 0.99227 0.5569 0.51082 0.0
H2400 H 0.36031 0.05639 0.30192 0.0
H2401 H 0.33976 0.07502 0.29248 0.0
H2402 H 0.38559 0.12354 0.29194 0.0
H2403 H 0.40624 0.1046 0.3005 0.0
H2404 H 0.33281 0.11087 0.30488 0.0
H2405 H 0.36367 0.10826 0.23713 0.0
H2406 H 0.36838 0.09438 0.25431 0.0
H2407 H 0.37947 0.11996 0.25772 0.0
C2408 C 0.36595 0.0712 0.30021 0.0
C2409 C 0.38478 0.07904 0.30156 0.0
C2410 C 0.35422 0.08179 0.29481 0.0
C2411 C 0.36125 0.10037 0.291 0.0
C2412 C 0.38 0.10896 0.29428 0.0
H2413 H 0.31866 0.18006 0.23999 0.0
H2414 H 0.33686 0.16161 0.25369 0.0
C2415 C 0.39173 0.09823 0.29924 0.0
C2416 C 0.34919 0.10985 0.28174 0.0
H2417 H 0.34166 0.12606 0.2413 0.0
C2418 C 0.33466 0.11418 0.29097 0.0
C2419 C 0.35164 0.11391 0.2635 0.0
C2420 C 0.36652 0.10873 0.25249 0.0
C2421 C 0.32275 0.12307 0.28264 0.0
C2422 C 0.32532 0.12728 0.26447 0.0
C2423 C 0.33973 0.12272 0.25519 0.0
C2424 C 0.31401 0.13763 0.2553 0.0
C2425 C 0.30791 0.1284 0.29359 0.0
C2426 C 0.29518 0.1299 0.25105 0.0
C2427 C 0.28464 0.1406 0.24346 0.0
C2428 C 0.29289 0.15905 0.23989 0.0
C2429 C 0.31188 0.16608 0.24302 0.0
C2430 C 0.32232 0.15553 0.25077 0.0
H2431 H 0.31043 0.12833 0.30887 0.0
H2432 H 0.30657 0.14304 0.29213 0.0
H2433 H 0.29482 0.11762 0.28791 0.0
H2434 H 0.28862 0.1158 0.25395 0.0
H2435 H 0.27004 0.13484 0.24112 0.0
H2436 H 0.3348 0.15803 0.52846 0.0
H2437 H 0.35742 0.14029 0.53416 0.0
H2438 H 0.37859 0.14968 0.48173 0.0
H2439 H 0.35632 0.16774 0.47612 0.0
H2440 H 0.36269 0.10719 0.51359 0.0
H2441 H 0.42466 0.16743 0.51771 0.0
H2442 H 0.40233 0.17148 0.51836 0.0
H2443 H 0.40993 0.16275 0.49617 0.0
C2444 C 0.3443 0.15639 0.51816 0.0
C2445 C 0.34375 0.16442 0.50186 0.0
C2446 C 0.35726 0.14624 0.52145 0.0
C2447 C 0.37 0.14394 0.50858 0.0
C2448 C 0.36928 0.15168 0.49216 0.0
H2449 H 0.45109 0.07607 0.50217 0.0
H2450 H 0.43153 0.09707 0.49568 0.0
C2451 C 0.35639 0.16189 0.48889 0.0
C2452 C 0.38354 0.1328 0.51199 0.0
H2453 H 0.42903 0.1358 0.51687 0.0
C2454 C 0.37719 0.11352 0.51438 0.0
C2455 C 0.40251 0.14096 0.51294 0.0
C2456 C 0.41031 0.16185 0.51134 0.0
C2457 C 0.38918 0.10218 0.51756 0.0
C2458 C 0.40811 0.11034 0.51861 0.0
C2459 C 0.41452 0.12954 0.51602 0.0
C2460 C 0.42132 0.09923 0.52302 0.0
C2461 C 0.38149 0.0814 0.51958 0.0
C2462 C 0.42254 0.09403 0.54074 0.0
C2463 C 0.4337 0.08215 0.5445 0.0
C2464 C 0.44396 0.07517 0.53063 0.0
C2465 C 0.44341 0.0812 0.51318 0.0
C2466 C 0.43219 0.09314 0.50942 0.0
H2467 H 0.36685 0.07595 0.51423 0.0
H2468 H 0.38894 0.07161 0.51182 0.0
H2469 H 0.38298 0.0806 0.53476 0.0
H2470 H 0.41455 0.09887 0.55158 0.0
H2471 H 0.43408 0.07818 0.55824 0.0
H2472 H 0.72527 0.56558 0.28589 0.0
H2473 H 0.74463 0.59915 0.28841 0.0
H2474 H 0.69956 0.61539 0.26336 0.0
H2475 H 0.6805 0.58273 0.2611 0.0
H2476 H 0.75542 0.62422 0.26279 0.0
H2477 H 0.71289 0.65637 0.31132 0.0
H2478 H 0.71073 0.63049 0.30581 0.0
H2479 H 0.69966 0.64177 0.28999 0.0
C2480 C 0.71956 0.57628 0.28082 0.0
C2481 C 0.70109 0.57124 0.27358 0.0
C2482 C 0.73065 0.59559 0.28231 0.0
C2483 C 0.72355 0.61031 0.27662 0.0
C2484 C 0.70543 0.60483 0.26853 0.0
H2485 H 0.75255 0.73191 0.2651 0.0
H2486 H 0.73862 0.69773 0.26561 0.0
C2487 C 0.69447 0.58587 0.26715 0.0
C2488 C 0.73452 0.6314 0.27905 0.0
H2489 H 0.73262 0.67848 0.29588 0.0
C2490 C 0.75055 0.63604 0.27029 0.0
C2491 C 0.7284 0.64718 0.2888 0.0
C2492 C 0.71209 0.64373 0.29968 0.0
C2493 C 0.75998 0.65565 0.27033 0.0
C2494 C 0.75346 0.67135 0.27952 0.0
C2495 C 0.7377 0.66669 0.28865 0.0
C2496 C 0.76236 0.69259 0.2794 0.0
C2497 C 0.77651 0.65937 0.25982 0.0
C2498 C 0.78039 0.70173 0.28737 0.0
C2499 C 0.78842 0.72156 0.28728 0.0
C2500 C 0.77881 0.73297 0.27904 0.0
C2501 C 0.76064 0.72385 0.27144 0.0
C2502 C 0.75257 0.70411 0.2717 0.0
H2503 H 0.77747 0.646 0.25002 0.0
H2504 H 0.77637 0.67092 0.25159 0.0
H2505 H 0.78886 0.66445 0.27017 0.0
H2506 H 0.78826 0.6936 0.29392 0.0
H2507 H 0.80217 0.72796 0.29383 0.0
H2508 H 0.88358 0.49198 0.76397 0.0
H2509 H 0.8595 0.46234 0.76216 0.0
H2510 H 0.85317 0.48065 0.82111 0.0
H2511 H 0.87828 0.50968 0.82313 0.0
H2512 H 0.863 0.44957 0.81677 0.0
H2513 H 0.80745 0.43678 0.76036 0.0
H2514 H 0.82845 0.44397 0.75067 0.0
H2515 H 0.82241 0.46076 0.76931 0.0
C2516 C 0.87642 0.49003 0.77626 0.0
C2517 C 0.88262 0.50281 0.79369 0.0
C2518 C 0.86252 0.47316 0.7752 0.0
C2519 C 0.85444 0.46922 0.79151 0.0
C2520 C 0.85921 0.48337 0.80837 0.0
H2521 H 0.79659 0.34581 0.77685 0.0
H2522 H 0.80216 0.38123 0.78309 0.0
C2523 C 0.87349 0.49992 0.80955 0.0
C2524 C 0.84514 0.44887 0.79218 0.0
H2525 H 0.81678 0.40744 0.76551 0.0
C2526 C 0.85244 0.44052 0.80589 0.0
C2527 C 0.83135 0.43695 0.77811 0.0
C2528 C 0.82188 0.44521 0.76394 0.0
C2529 C 0.84734 0.42046 0.80513 0.0
C2530 C 0.83496 0.40827 0.78988 0.0
C2531 C 0.82658 0.41672 0.77699 0.0
C2532 C 0.83143 0.3868 0.78645 0.0
C2533 C 0.85586 0.41275 0.82047 0.0
C2534 C 0.84598 0.37812 0.78585 0.0
C2535 C 0.84279 0.35796 0.78322 0.0
C2536 C 0.825 0.34611 0.78052 0.0
C2537 C 0.81043 0.35467 0.77976 0.0
C2538 C 0.81361 0.3749 0.78308 0.0
H2539 H 0.85792 0.42311 0.83428 0.0
H2540 H 0.84755 0.39842 0.82214 0.0
H2541 H 0.86942 0.41124 0.81693 0.0
H2542 H 0.85985 0.38694 0.78747 0.0
H2543 H 0.85424 0.35162 0.7832 0.0
H2544 H 0.1106 0.87571 0.082 0.0
H2545 H 0.10301 0.90317 0.07123 0.0
H2546 H 0.04611 0.87613 0.07154 0.0
H2547 H 0.0539 0.84933 0.08387 0.0
H2548 H 0.08757 0.90795 0.042 0.0
H2549 H 0.04519 0.92768 0.09783 0.0
H2550 H 0.05763 0.90972 0.09902 0.0
H2551 H 0.03601 0.90327 0.08476 0.0
C2552 C 0.09646 0.87575 0.08004 0.0
C2553 C 0.08288 0.86042 0.08406 0.0
C2554 C 0.09208 0.89147 0.07373 0.0
C2555 C 0.07393 0.89221 0.07077 0.0
C2556 C 0.06027 0.87657 0.07432 0.0
H2557 H 0.05937 0.98708 0.01118 0.0
H2558 H 0.05901 0.95428 0.01653 0.0
C2559 C 0.06471 0.86108 0.08126 0.0
C2560 C 0.06964 0.90925 0.06378 0.0
H2561 H 0.0461 0.94402 0.07234 0.0
C2562 C 0.07857 0.91588 0.04878 0.0
C2563 C 0.05789 0.91983 0.07243 0.0
C2564 C 0.04879 0.9149 0.08951 0.0
C2565 C 0.07674 0.93294 0.04278 0.0
C2566 C 0.06481 0.94336 0.05128 0.0
C2567 C 0.05526 0.93622 0.06569 0.0
C2568 C 0.06345 0.96276 0.04718 0.0
C2569 C 0.08843 0.94005 0.02811 0.0
C2570 C 0.06501 0.97845 0.0624 0.0
C2571 C 0.06426 0.99679 0.05932 0.0
C2572 C 0.06213 1.0003 0.04092 0.0
C2573 C 0.06065 0.98477 0.02553 0.0
C2574 C 0.06084 0.96607 0.02864 0.0
H2575 H 0.10019 0.9336 0.02698 0.0
H2576 H 0.08026 0.93567 0.01407 0.0
H2577 H 0.09368 0.95616 0.03147 0.0
H2578 H 0.06715 0.97666 0.07685 0.0
H2579 H 0.06563 0.00844 0.07152 0.0
H2580 H 0.94184 0.25318 0.91282 0.0
H2581 H 0.91781 0.25738 0.89164 0.0
H2582 H 0.95522 0.26907 0.85044 0.0
H2583 H 0.97977 0.26493 0.87181 0.0
H2584 H 0.93027 0.29797 0.86393 0.0
H2585 H 0.89436 0.21984 0.83714 0.0
H2586 H 0.90338 0.22742 0.86173 0.0
H2587 H 0.91859 0.22792 0.84382 0.0
C2588 C 0.94509 0.25637 0.89917 0.0
C2589 C 0.96291 0.25859 0.89409 0.0
C2590 C 0.93122 0.25883 0.88706 0.0
C2591 C 0.93462 0.26351 0.86942 0.0
C2592 C 0.95226 0.26547 0.86402 0.0
H2593 H 0.84939 0.26298 0.78257 0.0
H2594 H 0.8755 0.25807 0.80021 0.0
C2595 C 0.96627 0.26299 0.87621 0.0
C2596 C 0.9197 0.26683 0.85713 0.0
H2597 H 0.87945 0.24308 0.83008 0.0
C2598 C 0.91923 0.28598 0.85636 0.0
C2599 C 0.90527 0.25122 0.84729 0.0
C2600 C 0.9053 0.23038 0.84735 0.0
C2601 C 0.90465 0.28995 0.84625 0.0
C2602 C 0.88985 0.27434 0.83685 0.0
C2603 C 0.89058 0.25514 0.83733 0.0
C2604 C 0.87369 0.27751 0.82616 0.0
C2605 C 0.90543 0.31089 0.84557 0.0
C2606 C 0.86347 0.28977 0.83478 0.0
C2607 C 0.84866 0.29298 0.8245 0.0
C2608 C 0.84348 0.2838 0.80535 0.0
C2609 C 0.85324 0.27087 0.79703 0.0
C2610 C 0.86815 0.26786 0.80723 0.0
H2611 H 0.91959 0.3202 0.84833 0.0
H2612 H 0.89943 0.31217 0.83164 0.0
H2613 H 0.89768 0.31667 0.8567 0.0
H2614 H 0.8669 0.29688 0.84953 0.0
H2615 H 0.84134 0.30276 0.83158 0.0
H2616 H 0.56735 0.24727 0.60367 0.0
H2617 H 0.56248 0.21196 0.59398 0.0
H2618 H 0.58283 0.21954 0.54077 0.0
H2619 H 0.58846 0.25488 0.55072 0.0
H2620 H 0.54272 0.18441 0.56661 0.0
H2621 H 0.61481 0.18833 0.55702 0.0
H2622 H 0.60751 0.20939 0.56745 0.0
H2623 H 0.60487 0.20121 0.54213 0.0
C2624 C 0.57065 0.24142 0.58983 0.0
C2625 C 0.57846 0.25399 0.57807 0.0
C2626 C 0.56791 0.22117 0.58431 0.0
C2627 C 0.57278 0.21295 0.56683 0.0
C2628 C 0.57959 0.22542 0.55461 0.0
H2629 H 0.5577 0.08899 0.51515 0.0
H2630 H 0.56374 0.12454 0.52002 0.0
C2631 C 0.5826 0.24568 0.56025 0.0
C2632 C 0.57083 0.19142 0.56159 0.0
H2633 H 0.5941 0.15708 0.54818 0.0
C2634 C 0.55401 0.17852 0.5626 0.0
C2635 C 0.5855 0.18351 0.5563 0.0
C2636 C 0.60423 0.19631 0.55583 0.0
C2637 C 0.55149 0.15817 0.55861 0.0
C2638 C 0.56616 0.15036 0.55348 0.0
C2639 C 0.58287 0.16311 0.55206 0.0
C2640 C 0.56448 0.12901 0.55048 0.0
C2641 C 0.53315 0.14506 0.55995 0.0
C2642 C 0.56346 0.11974 0.56599 0.0
C2643 C 0.56033 0.09947 0.56326 0.0
C2644 C 0.55821 0.08796 0.54496 0.0
C2645 C 0.55972 0.09733 0.52944 0.0
C2646 C 0.56302 0.1177 0.5322 0.0
H2647 H 0.52243 0.15305 0.56085 0.0
H2648 H 0.52922 0.13279 0.5475 0.0
H2649 H 0.53381 0.13875 0.5728 0.0
H2650 H 0.56461 0.12818 0.58022 0.0
H2651 H 0.55902 0.09267 0.57547 0.0
H2652 H 0.56523 0.80385 0.37931 0.0
H2653 H 0.593 0.80334 0.36448 0.0
H2654 H 0.59808 0.75451 0.389 0.0
H2655 H 0.56993 0.75456 0.40344 0.0
H2656 H 0.62722 0.80863 0.37879 0.0
H2657 H 0.6034 0.7339 0.33496 0.0
H2658 H 0.58823 0.74601 0.3473 0.0
H2659 H 0.60262 0.73502 0.35988 0.0
C2660 C 0.57216 0.79289 0.38148 0.0
C2661 C 0.56516 0.77914 0.39247 0.0
C2662 C 0.58814 0.79266 0.37302 0.0
C2663 C 0.59765 0.77871 0.3753 0.0
C2664 C 0.59086 0.76513 0.38654 0.0
H2665 H 0.7072 0.79687 0.33433 0.0
H2666 H 0.68353 0.79212 0.35586 0.0
C2667 C 0.57475 0.76524 0.3949 0.0
C2668 C 0.61462 0.77864 0.36592 0.0
H2669 H 0.63365 0.75089 0.33368 0.0
C2670 C 0.62865 0.79596 0.36899 0.0
C2671 C 0.6166 0.76214 0.35308 0.0
C2672 C 0.60187 0.74326 0.34844 0.0
C2673 C 0.64421 0.79746 0.35924 0.0
C2674 C 0.64611 0.78101 0.34625 0.0
C2675 C 0.63234 0.7635 0.34366 0.0
C2676 C 0.66105 0.78221 0.33362 0.0
C2677 C 0.65801 0.81695 0.36231 0.0
C2678 C 0.65656 0.77721 0.31391 0.0
C2679 C 0.67004 0.77952 0.30165 0.0
C2680 C 0.68851 0.78707 0.30865 0.0
C2681 C 0.69315 0.79113 0.3284 0.0
C2682 C 0.67956 0.78867 0.34074 0.0
H2683 H 0.65259 0.829 0.36941 0.0
H2684 H 0.67006 0.81661 0.37145 0.0
H2685 H 0.66247 0.82025 0.34867 0.0
H2686 H 0.64249 0.772 0.30792 0.0
H2687 H 0.66588 0.77572 0.28656 0.0
H2688 H 0.11521 0.29296 0.4584 0.0
H2689 H 0.11036 0.26353 0.47161 0.0
H2690 H 0.0853 0.22873 0.41719 0.0
H2691 H 0.09078 0.25826 0.40373 0.0
H2692 H 0.07257 0.24475 0.46902 0.0
H2693 H 0.11242 0.19306 0.44048 0.0
H2694 H 0.12006 0.21891 0.44094 0.0
H2695 H 0.10161 0.20394 0.42409 0.0
C2696 C 0.10946 0.27892 0.44909 0.0
C2697 C 0.10328 0.27772 0.43016 0.0
C2698 C 0.10668 0.26215 0.45661 0.0
C2699 C 0.0974 0.24404 0.44538 0.0
C2700 C 0.09271 0.24256 0.42599 0.0
H2701 H 0.04628 0.14004 0.48829 0.0
H2702 H 0.05539 0.1626 0.46696 0.0
C2703 C 0.09583 0.25939 0.41834 0.0
C2704 C 0.08944 0.22804 0.4549 0.0
H2705 H 0.09161 0.18322 0.46195 0.0
C2706 C 0.07671 0.23127 0.46744 0.0
C2707 C 0.09454 0.21035 0.45239 0.0
C2708 C 0.10796 0.20624 0.43882 0.0
C2709 C 0.06945 0.21758 0.47818 0.0
C2710 C 0.07531 0.20036 0.47654 0.0
C2711 C 0.08735 0.19661 0.46329 0.0
C2712 C 0.06979 0.18669 0.48928 0.0
C2713 C 0.05567 0.22175 0.49132 0.0
C2714 C 0.0749 0.19287 0.50884 0.0
C2715 C 0.06974 0.18009 0.52104 0.0
C2716 C 0.05951 0.16085 0.51384 0.0
C2717 C 0.05431 0.15475 0.49421 0.0
C2718 C 0.05948 0.16756 0.48202 0.0
H2719 H 0.0489 0.23251 0.48701 0.0
H2720 H 0.04514 0.20822 0.49173 0.0
H2721 H 0.06262 0.22795 0.50585 0.0
H2722 H 0.08308 0.20755 0.51463 0.0
H2723 H 0.07419 0.18508 0.53602 0.0
H2724 H 0.55314 0.23434 0.20094 0.0
H2725 H 0.5856 0.23801 0.20681 0.0
H2726 H 0.59633 0.28169 0.17252 0.0
H2727 H 0.56359 0.27819 0.16648 0.0
H2728 H 0.61051 0.23587 0.17165 0.0
H2729 H 0.62773 0.30172 0.22982 0.0
H2730 H 0.60526 0.28545 0.22694 0.0
H2731 H 0.6121 0.2994 0.20925 0.0
C2732 C 0.56234 0.24479 0.19467 0.0
C2733 C 0.55583 0.25591 0.18317 0.0
C2734 C 0.58084 0.24683 0.19802 0.0
C2735 C 0.59313 0.25997 0.18995 0.0
C2736 C 0.58687 0.27144 0.17877 0.0
H2737 H 0.70289 0.27451 0.2388 0.0
H2738 H 0.67911 0.2799 0.2184 0.0
C2739 C 0.56825 0.26947 0.17543 0.0
C2740 C 0.61247 0.26117 0.19343 0.0
H2741 H 0.6477 0.28137 0.22786 0.0
C2742 C 0.61896 0.24613 0.18359 0.0
C2743 C 0.62336 0.27474 0.20879 0.0
C2744 C 0.6169 0.29135 0.21936 0.0
C2745 C 0.63568 0.24338 0.18973 0.0
C2746 C 0.6457 0.25568 0.20642 0.0
C2747 C 0.63988 0.27178 0.2152 0.0
C2748 C 0.66117 0.25116 0.21618 0.0
C2749 C 0.64207 0.22697 0.17866 0.0
C2750 C 0.65906 0.23308 0.2216 0.0
C2751 C 0.67294 0.22966 0.23288 0.0
C2752 C 0.68901 0.24443 0.23925 0.0
C2753 C 0.69099 0.26252 0.23374 0.0
C2754 C 0.67732 0.26575 0.22217 0.0
H2755 H 0.63717 0.22426 0.16337 0.0
H2756 H 0.65709 0.23012 0.18026 0.0
H2757 H 0.6364 0.21339 0.1838 0.0
H2758 H 0.64645 0.22181 0.21765 0.0
H2759 H 0.67099 0.21557 0.23678 0.0
H2760 H 0.60477 0.87891 0.96344 0.0
H2761 H 0.60657 0.91353 0.97128 0.0
H2762 H 0.62929 0.9213 0.91918 0.0
H2763 H 0.62712 0.88634 0.91098 0.0
H2764 H 0.62801 0.95137 0.97328 0.0
H2765 H 0.57691 0.92486 0.90942 0.0
H2766 H 0.58651 0.90844 0.92015 0.0
H2767 H 0.59974 0.9237 0.90624 0.0
C2768 C 0.61083 0.88811 0.95399 0.0
C2769 C 0.61516 0.87992 0.9363 0.0
C2770 C 0.61195 0.90794 0.95854 0.0
C2771 C 0.61741 0.91975 0.94544 0.0
C2772 C 0.62462 0.91223 0.92922 0.0
H2773 H 0.56875 0.01946 0.95327 0.0
H2774 H 0.58785 0.99804 0.9415 0.0
C2775 C 0.62346 0.89228 0.92461 0.0
C2776 C 0.61138 0.93781 0.94687 0.0
H2777 H 0.57667 0.95391 0.92924 0.0
C2778 C 0.61718 0.95228 0.96336 0.0
C2779 C 0.59699 0.93875 0.93403 0.0
C2780 C 0.58953 0.9231 0.91651 0.0
C2781 C 0.60821 0.96697 0.96792 0.0
C2782 C 0.59317 0.96709 0.95565 0.0
C2783 C 0.58827 0.95363 0.9385 0.0
C2784 C 0.58089 0.97928 0.96158 0.0
C2785 C 0.61414 0.9815 0.98638 0.0
C2786 C 0.5699 0.97493 0.97585 0.0
C2787 C 0.55881 0.98683 0.98228 0.0
C2788 C 0.55888 0.00345 0.97482 0.0
C2789 C 0.56869 0.00684 0.95941 0.0
C2790 C 0.57974 0.99482 0.95285 0.0
H2791 H 0.6286 0.98323 0.99131 0.0
H2792 H 0.61218 0.99597 0.98512 0.0
H2793 H 0.60581 0.97613 0.9973 0.0
H2794 H 0.57014 0.9625 0.9822 0.0
H2795 H 0.55047 0.98328 0.99336 0.0
H2796 H 0.96299 0.78904 0.68625 0.0
H2797 H 0.93578 0.79361 0.70051 0.0
H2798 H 0.94023 0.75211 0.73534 0.0
H2799 H 0.96739 0.74732 0.72121 0.0
H2800 H 0.905 0.75393 0.69872 0.0
H2801 H 0.92794 0.80374 0.76907 0.0
H2802 H 0.94138 0.8055 0.74943 0.0
H2803 H 0.93956 0.78534 0.76106 0.0
C2804 C 0.95848 0.78126 0.69729 0.0
C2805 C 0.9672 0.76767 0.70247 0.0
C2806 C 0.94296 0.78389 0.70538 0.0
C2807 C 0.93618 0.77319 0.71889 0.0
C2808 C 0.94546 0.76057 0.725 0.0
H2809 H 0.83736 0.76465 0.77376 0.0
H2810 H 0.86813 0.76444 0.76612 0.0
C2811 C 0.96092 0.75784 0.71687 0.0
C2812 C 0.91818 0.77324 0.72473 0.0
H2813 H 0.89645 0.7909 0.76081 0.0
C2814 C 0.90304 0.76218 0.71219 0.0
C2815 C 0.91591 0.78353 0.74252 0.0
C2816 C 0.932 0.79528 0.7564 0.0
C2817 C 0.88545 0.76138 0.71689 0.0
C2818 C 0.88308 0.7725 0.73435 0.0
C2819 C 0.89831 0.78297 0.74718 0.0
C2820 C 0.86491 0.77353 0.73942 0.0
C2821 C 0.86967 0.74816 0.70334 0.0
C2822 C 0.85315 0.77919 0.72718 0.0
C2823 C 0.83555 0.77885 0.73133 0.0
C2824 C 0.82986 0.77377 0.74817 0.0
C2825 C 0.84176 0.76888 0.76081 0.0
C2826 C 0.85922 0.76871 0.75643 0.0
H2827 H 0.87374 0.73605 0.69438 0.0
H2828 H 0.85826 0.74179 0.71098 0.0
H2829 H 0.86479 0.75666 0.69376 0.0
H2830 H 0.85748 0.78353 0.71427 0.0
H2831 H 0.82638 0.78247 0.7214 0.0
H2832 H 0.16474 0.01334 0.83738 0.0
H2833 H 0.15355 0.01518 0.8689 0.0
H2834 H 0.09918 0.006 0.84299 0.0
H2835 H 0.11022 0.00443 0.81188 0.0
H2836 H 0.1341 0.04249 0.8876 0.0
H2837 H 0.09135 0.96697 0.87875 0.0
H2838 H 0.10876 0.97373 0.8636 0.0
H2839 H 0.08724 0.9791 0.85995 0.0
C2840 C 0.15034 0.01115 0.83829 0.0
C2841 C 0.13847 0.0083 0.82163 0.0
C2842 C 0.14389 0.01245 0.85651 0.0
C2843 C 0.12528 0.01059 0.85881 0.0
C2844 C 0.11347 0.00722 0.84209 0.0
H2845 H 0.05396 0.01152 0.95168 0.0
H2846 H 0.06741 0.00737 0.92191 0.0
C2847 C 0.11991 0.00626 0.82407 0.0
C2848 C 0.11815 0.01292 0.87836 0.0
H2849 H 0.08763 0.98961 0.90533 0.0
C2850 C 0.12407 0.0308 0.89149 0.0
C2851 C 0.10471 0.99803 0.8838 0.0
C2852 C 0.0977 0.97831 0.8709 0.0
C2853 C 0.11678 0.03435 0.90915 0.0
C2854 C 0.10346 0.01934 0.9148 0.0
C2855 C 0.09771 1.00137 0.90163 0.0
C2856 C 0.0951 0.02196 0.93381 0.0
C2857 C 0.1229 0.05469 0.92103 0.0
C2858 C 0.10566 0.03127 0.95133 0.0
C2859 C 0.09773 0.03409 0.96858 0.0
C2860 C 0.07887 0.02716 0.96942 0.0
C2861 C 0.06841 0.01717 0.95207 0.0
C2862 C 0.07627 0.01474 0.93474 0.0
H2863 H 0.1277 0.06566 0.91222 0.0
H2864 H 0.11182 0.05874 0.92869 0.0
H2865 H 0.13446 0.05556 0.93147 0.0
H2866 H 0.12023 0.03633 0.95186 0.0
H2867 H 0.10655 0.04162 0.98141 0.0
H2868 H 0.78394 0.39513 0.55271 0.0
H2869 H 0.78452 0.40155 0.58723 0.0
H2870 H 0.84134 0.40298 0.59259 0.0
H2871 H 0.84066 0.39614 0.55861 0.0
H2872 H 0.79138 0.36819 0.5938 0.0
H2873 H 0.83669 0.4287 0.64572 0.0
H2874 H 0.82772 0.43194 0.62312 0.0
H2875 H 0.84789 0.42342 0.62512 0.0
C2876 C 0.79672 0.39786 0.56138 0.0
C2877 C 0.81204 0.39439 0.55319 0.0
C2878 C 0.79712 0.40182 0.58108 0.0
C2879 C 0.81287 0.40229 0.59247 0.0
C2880 C 0.82902 0.40269 0.58419 0.0
H2881 H 0.85471 0.33653 0.65796 0.0
H2882 H 0.84847 0.36048 0.63999 0.0
C2883 C 0.82854 0.39839 0.56463 0.0
C2884 C 0.8111 0.3938 0.60956 0.0
H2885 H 0.83574 0.39542 0.65102 0.0
C2886 C 0.80055 0.37444 0.60669 0.0
C2887 C 0.82333 0.40178 0.62614 0.0
C2888 C 0.83441 0.42269 0.63024 0.0
C2889 C 0.80337 0.3622 0.61878 0.0
C2890 C 0.81644 0.36983 0.63473 0.0
C2891 C 0.82589 0.38963 0.6386 0.0
C2892 C 0.82086 0.357 0.64689 0.0
C2893 C 0.79345 0.3408 0.61342 0.0
C2894 C 0.80736 0.3472 0.65646 0.0
C2895 C 0.81065 0.3332 0.66605 0.0
C2896 C 0.82773 0.32917 0.66678 0.0
C2897 C 0.84139 0.33921 0.65741 0.0
C2898 C 0.83795 0.35308 0.64748 0.0
H2899 H 0.78719 0.33654 0.59849 0.0
H2900 H 0.80277 0.33154 0.61541 0.0
H2901 H 0.78245 0.33761 0.62261 0.0
H2902 H 0.79411 0.35009 0.65615 0.0
H2903 H 0.79976 0.32551 0.67293 0.0
H2904 H 0.45625 0.08111 0.34311 0.0
H2905 H 0.47363 0.09375 0.37445 0.0
H2906 H 0.46763 0.03491 0.38258 0.0
H2907 H 0.4507 0.02218 0.35124 0.0
H2908 H 0.46722 0.0847 0.41412 0.0
H2909 H 0.52364 0.06132 0.38049 0.0
H2910 H 0.50464 0.06521 0.36702 0.0
H2911 H 0.50244 0.04294 0.37554 0.0
C2912 C 0.45838 0.07092 0.35177 0.0
C2913 C 0.45261 0.0507 0.34471 0.0
C2914 C 0.46821 0.07816 0.3696 0.0
C2915 C 0.47206 0.06518 0.38045 0.0
C2916 C 0.46492 0.04505 0.37412 0.0
H2917 H 0.50195 0.03882 0.47647 0.0
H2918 H 0.48893 0.05139 0.45158 0.0
C2919 C 0.45537 0.03782 0.35626 0.0
C2920 C 0.48529 0.07212 0.39729 0.0
H2921 H 0.52477 0.06456 0.41433 0.0
C2922 C 0.48008 0.08089 0.4142 0.0
C2923 C 0.50221 0.06758 0.39709 0.0
C2924 C 0.50867 0.05891 0.37901 0.0
C2925 C 0.49062 0.08324 0.4314 0.0
C2926 C 0.50639 0.07635 0.43139 0.0
C2927 C 0.5126 0.06973 0.41425 0.0
C2928 C 0.51412 0.07158 0.44842 0.0
C2929 C 0.48424 0.09181 0.44953 0.0
C2930 C 0.53271 0.07849 0.45453 0.0
C2931 C 0.54029 0.0712 0.46877 0.0
C2932 C 0.52938 0.05669 0.47676 0.0
C2933 C 0.51074 0.05 0.47066 0.0
C2934 C 0.5032 0.05739 0.45662 0.0
H2935 H 0.47652 0.10249 0.44712 0.0
H2936 H 0.47505 0.07998 0.45487 0.0
H2937 H 0.49583 0.09912 0.46058 0.0
H2938 H 0.54136 0.08916 0.44802 0.0
H2939 H 0.55466 0.07681 0.47334 0.0
H2940 H 0.78958 0.76016 0.06169 0.0
H2941 H 0.79164 0.77209 0.09573 0.0
H2942 H 0.81829 0.72817 0.10571 0.0
H2943 H 0.81618 0.7159 0.07148 0.0
H2944 H 0.77452 0.74512 0.11942 0.0
H2945 H 0.84757 0.78102 0.1427 0.0
H2946 H 0.83752 0.77841 0.11877 0.0
H2947 H 0.84224 0.75777 0.12657 0.0
C2948 C 0.79623 0.75322 0.07104 0.0
C2949 C 0.80257 0.73691 0.06381 0.0
C2950 C 0.79738 0.7601 0.09052 0.0
C2951 C 0.8051 0.75102 0.10319 0.0
C2952 C 0.81243 0.73549 0.0961 0.0
H2953 H 0.7937 0.73988 0.21703 0.0
H2954 H 0.79301 0.73628 0.18267 0.0
C2955 C 0.8112 0.72848 0.07654 0.0
C2956 C 0.80357 0.7564 0.12368 0.0
H2957 H 0.82817 0.77623 0.1668 0.0
C2958 C 0.78623 0.75202 0.12978 0.0
C2959 C 0.81885 0.76561 0.13707 0.0
C2960 C 0.83763 0.77115 0.13106 0.0
C2961 C 0.78384 0.75605 0.14904 0.0
C2962 C 0.79915 0.76471 0.1625 0.0
C2963 C 0.81645 0.76963 0.15638 0.0
C2964 C 0.79762 0.76709 0.18304 0.0
C2965 C 0.76499 0.75117 0.155 0.0
C2966 C 0.80016 0.78563 0.19456 0.0
C2967 C 0.80037 0.7877 0.21425 0.0
C2968 C 0.79813 0.77123 0.22254 0.0
C2969 C 0.7952 0.75273 0.2109 0.0
C2970 C 0.79483 0.75066 0.19132 0.0
H2971 H 0.75436 0.74594 0.1427 0.0
H2972 H 0.76363 0.73968 0.16354 0.0
H2973 H 0.76264 0.7643 0.164 0.0
H2974 H 0.80244 0.79848 0.18837 0.0
H2975 H 0.80304 0.80215 0.22299 0.0
H2976 H 0.10865 0.01253 0.71982 0.0
H2977 H 0.09708 0.01585 0.68882 0.0
H2978 H 0.14704 0.00975 0.66733 0.0
H2979 H 0.15873 0.00615 0.69872 0.0
H2980 H 0.10536 0.04195 0.66851 0.0
H2981 H 0.11396 0.97499 0.62366 0.0
H2982 H 0.11672 0.97896 0.64913 0.0
H2983 H 0.13486 0.99002 0.63667 0.0
C2984 C 0.11724 0.01148 0.70852 0.0
C2985 C 0.13476 0.00872 0.71228 0.0
C2986 C 0.11051 0.01358 0.69052 0.0
C2987 C 0.12081 0.01301 0.675 0.0
C2988 C 0.13827 0.00987 0.6785 0.0
H2989 H 0.10463 0.031 0.55748 0.0
H2990 H 0.11551 0.02672 0.58846 0.0
C2991 C 0.14508 0.00772 0.6967 0.0
C2992 C 0.1133 0.01636 0.65579 0.0
H2993 H 0.10595 0.99808 0.60757 0.0
C2994 C 0.10547 0.03217 0.65528 0.0
C2995 C 0.11307 0.0039 0.638 0.0
C2996 C 0.11992 0.98591 0.63682 0.0
C2997 C 0.0981 0.03599 0.63811 0.0
C2998 C 0.09798 0.02359 0.62035 0.0
C2999 C 0.10578 0.00779 0.62084 0.0
C3000 C 0.09074 0.02711 0.60117 0.0
C3001 C 0.09102 0.05383 0.63914 0.0
C3002 C 0.07289 0.02901 0.5971 0.0
C3003 C 0.06645 0.03143 0.5789 0.0
C3004 C 0.07766 0.03227 0.56405 0.0
C3005 C 0.09546 0.03061 0.56832 0.0
C3006 C 0.10178 0.02804 0.58626 0.0
H3007 H 0.09609 0.06444 0.65269 0.0
H3008 H 0.09502 0.06122 0.62727 0.0
H3009 H 0.07599 0.04941 0.6381 0.0
H3010 H 0.06366 0.02804 0.60785 0.0
H3011 H 0.05258 0.03221 0.57637 0.0
H3012 H 0.85583 0.41595 0.46794 0.0
H3013 H 0.8601 0.40202 0.43571 0.0
H3014 H 0.80208 0.3831 0.42128 0.0
H3015 H 0.79778 0.39715 0.45363 0.0
H3016 H 0.84105 0.35946 0.42974 0.0
H3017 H 0.82568 0.39569 0.37121 0.0
H3018 H 0.83451 0.4092 0.3949 0.0
H3019 H 0.81122 0.39544 0.38999 0.0
C3020 C 0.84405 0.40982 0.45754 0.0
C3021 C 0.8265 0.40732 0.46302 0.0
C3022 C 0.84651 0.40188 0.43921 0.0
C3023 C 0.8314 0.39147 0.42637 0.0
C3024 C 0.81385 0.39131 0.43109 0.0
H3025 H 0.80019 0.29117 0.34173 0.0
H3026 H 0.8085 0.3118 0.3733 0.0
C3027 C 0.81139 0.39934 0.44948 0.0
C3028 C 0.83371 0.37675 0.41061 0.0
H3029 H 0.82753 0.36298 0.36273 0.0
C3030 C 0.8384 0.3603 0.41503 0.0
C3031 C 0.83009 0.37803 0.39166 0.0
C3032 C 0.82518 0.39557 0.38652 0.0
C3033 C 0.839 0.34465 0.40078 0.0
C3034 C 0.83488 0.34571 0.38185 0.0
C3035 C 0.83076 0.36242 0.37741 0.0
C3036 C 0.8335 0.32928 0.36622 0.0
C3037 C 0.84363 0.32697 0.40592 0.0
C3038 C 0.84547 0.33157 0.35246 0.0
C3039 C 0.84059 0.32001 0.33446 0.0
C3040 C 0.82364 0.30627 0.33007 0.0
C3041 C 0.81301 0.30203 0.34463 0.0
C3042 C 0.81785 0.31369 0.3627 0.0
H3043 H 0.84927 0.32971 0.42099 0.0
H3044 H 0.83118 0.3147 0.40347 0.0
H3045 H 0.85359 0.32239 0.39678 0.0
H3046 H 0.85767 0.34349 0.3551 0.0
H3047 H 0.84936 0.32307 0.32359 0.0
H3048 H 0.47915 0.03249 0.24763 0.0
H3049 H 0.48782 0.03386 0.21593 0.0
H3050 H 0.44832 0.06557 0.20638 0.0
H3051 H 0.43957 0.06452 0.23834 0.0
H3052 H 0.44856 0.02174 0.18149 0.0
H3053 H 0.50855 0.0851 0.18766 0.0
H3054 H 0.5068 0.07211 0.20684 0.0
H3055 H 0.49039 0.08524 0.20256 0.0
C3056 C 0.47262 0.04023 0.23903 0.0
C3057 C 0.4585 0.04815 0.24535 0.0
C3058 C 0.47761 0.04101 0.22096 0.0
C3059 C 0.46858 0.0497 0.20897 0.0
C3060 C 0.45537 0.05882 0.21558 0.0
H3061 H 0.50965 0.03941 0.0991 0.0
H3062 H 0.49208 0.05044 0.12372 0.0
C3063 C 0.45045 0.05822 0.23381 0.0
C3064 C 0.47162 0.04677 0.18895 0.0
H3065 H 0.50473 0.05928 0.16081 0.0
C3066 C 0.46055 0.0302 0.17667 0.0
C3067 C 0.48711 0.058 0.18285 0.0
C3068 C 0.49891 0.07622 0.19557 0.0
C3069 C 0.46551 0.02362 0.15882 0.0
C3070 C 0.48203 0.03378 0.15345 0.0
C3071 C 0.49218 0.05135 0.16509 0.0
C3072 C 0.49008 0.02554 0.1369 0.0
C3073 C 0.4534 0.00548 0.14624 0.0
C3074 C 0.49466 0.00775 0.13609 0.0
C3075 C 0.50461 1.00123 0.12188 0.0
C3076 C 0.51019 0.01246 0.10832 0.0
C3077 C 0.50525 0.03012 0.10905 0.0
C3078 C 0.49527 0.03655 0.12317 0.0
H3079 H 0.43905 0.00345 0.14922 0.0
H3080 H 0.45417 0.00601 0.13105 0.0
H3081 H 0.45777 0.99258 0.14901 0.0
H3082 H 0.49114 0.99927 0.14687 0.0
H3083 H 0.50814 0.98757 0.12166 0.0
H3084 H 0.77411 0.7093 0.94658 0.0
H3085 H 0.78005 0.71893 0.91648 0.0
H3086 H 0.83699 0.74137 0.93652 0.0
H3087 H 0.83104 0.73096 0.96677 0.0
H3088 H 0.79405 0.758 0.91537 0.0
H3089 H 0.83733 0.71268 0.8816 0.0
H3090 H 0.8242 0.70599 0.90045 0.0
H3091 H 0.84435 0.72577 0.90561 0.0
C3092 C 0.78796 0.71589 0.94441 0.0
C3093 C 0.80213 0.71945 0.95889 0.0
C3094 C 0.79135 0.7214 0.92723 0.0
C3095 C 0.80894 0.73087 0.92424 0.0
C3096 C 0.82334 0.7338 0.93843 0.0
H3097 H 0.83147 0.7771 0.82088 0.0
H3098 H 0.83602 0.76817 0.85153 0.0
C3099 C 0.81996 0.72792 0.95566 0.0
C3100 C 0.81135 0.73923 0.90698 0.0
H3101 H 0.8278 0.73361 0.86401 0.0
C3102 C 0.80158 0.75278 0.90421 0.0
C3103 C 0.82146 0.73272 0.89261 0.0
C3104 C 0.8324 0.71842 0.89505 0.0
C3105 C 0.80088 0.75928 0.88715 0.0
C3106 C 0.80989 0.75172 0.87222 0.0
C3107 C 0.82064 0.73911 0.87536 0.0
C3108 C 0.80746 0.75611 0.8531 0.0
C3109 C 0.79027 0.77405 0.88525 0.0
C3110 C 0.78998 0.75174 0.8435 0.0
C3111 C 0.7873 0.75744 0.82633 0.0
C3112 C 0.80209 0.76735 0.8182 0.0
C3113 C 0.81971 0.77047 0.82718 0.0
C3114 C 0.82237 0.76504 0.84457 0.0
H3115 H 0.78934 0.78285 0.89927 0.0
H3116 H 0.79651 0.78408 0.87611 0.0
H3117 H 0.77624 0.7663 0.87883 0.0
H3118 H 0.77832 0.74422 0.84949 0.0
H3119 H 0.77357 0.75431 0.81961 0.0
H3120 H 0.84918 0.14509 0.03871 0.0
H3121 H 0.87727 0.13454 0.03578 0.0
H3122 H 0.84702 0.07498 0.03227 0.0
H3123 H 0.81908 0.08524 0.035 0.0
H3124 H 0.89411 0.10615 0.0557 0.0
H3125 H 0.86865 0.08161 0.97934 0.0
H3126 H 0.86085 0.09966 0.99497 0.0
H3127 H 0.85224 0.07421 0.99513 0.0
C3128 C 0.84866 0.12984 0.03787 0.0
C3129 C 0.83198 0.11589 0.03675 0.0
C3130 C 0.86466 0.12387 0.03619 0.0
C3131 C 0.86401 0.10401 0.03355 0.0
C3132 C 0.84764 0.09036 0.03415 0.0
H3133 H 0.9198 0.01771 0.00976 0.0
H3134 H 0.89988 0.03899 0.01858 0.0
C3135 C 0.83173 0.09624 0.03567 0.0
C3136 C 0.87963 0.09686 0.02775 0.0
H3137 H 0.89204 0.06844 0.99057 0.0
C3138 C 0.89394 0.09824 0.04141 0.0
C3139 C 0.87929 0.08674 0.00902 0.0
C3140 C 0.86452 0.08557 0.99369 0.0
C3141 C 0.90746 0.08861 0.03697 0.0
C3142 C 0.90635 0.0774 0.01858 0.0
C3143 C 0.89262 0.07694 0.00471 0.0
C3144 C 0.91861 0.06495 0.01371 0.0
C3145 C 0.92239 0.08968 0.05203 0.0
C3146 C 0.93541 0.07262 0.00773 0.0
C3147 C 0.94666 0.0605 0.00243 0.0
C3148 C 0.94125 0.04056 0.00312 0.0
C3149 C 0.92423 0.03293 0.00889 0.0
C3150 C 0.91297 0.04507 0.01412 0.0
H3151 H 0.92148 0.09929 0.06559 0.0
H3152 H 0.92174 0.07484 0.05458 0.0
H3153 H 0.93578 0.09525 0.04708 0.0
H3154 H 0.93976 0.08791 0.00709 0.0
H3155 H 0.95959 0.06673 0.99776 0.0
H3156 H 0.34654 0.43889 0.02575 0.0
H3157 H 0.37579 0.46215 0.02455 0.0
H3158 H 0.40042 0.44077 0.06866 0.0
H3159 H 0.37157 0.41746 0.06967 0.0
H3160 H 0.40289 0.4919 0.05215 0.0
H3161 H 0.42761 0.4279 0.0222 0.0
H3162 H 0.40387 0.42637 0.02383 0.0
H3163 H 0.41844 0.42643 0.04433 0.0
C3164 C 0.35808 0.43962 0.03556 0.0
C3165 C 0.35685 0.42629 0.0477 0.0
C3166 C 0.37479 0.45281 0.0348 0.0
C3167 C 0.39035 0.45285 0.04623 0.0
C3168 C 0.38868 0.44071 0.05946 0.0
H3169 H 0.50432 0.51643 0.0635 0.0
H3170 H 0.47264 0.50127 0.06778 0.0
C3171 C 0.37215 0.42748 0.06009 0.0
C3172 C 0.40866 0.46412 0.04336 0.0
H3173 H 0.44972 0.45831 0.03106 0.0
C3174 C 0.41311 0.48459 0.04749 0.0
C3175 C 0.42194 0.45453 0.03702 0.0
C3176 C 0.41773 0.4326 0.03141 0.0
C3177 C 0.4307 0.49567 0.046 0.0
C3178 C 0.44403 0.48602 0.04027 0.0
C3179 C 0.43948 0.46562 0.03572 0.0
C3180 C 0.4627 0.49675 0.03821 0.0
C3181 C 0.43505 0.51761 0.05041 0.0
C3182 C 0.46747 0.49914 0.02022 0.0
C3183 C 0.48545 0.50743 0.01774 0.0
C3184 C 0.49896 0.51357 0.03323 0.0
C3185 C 0.49411 0.51179 0.05137 0.0
C3186 C 0.47608 0.50322 0.05382 0.0
H3187 H 0.42316 0.52299 0.05458 0.0
H3188 H 0.44628 0.52353 0.06207 0.0
H3189 H 0.43977 0.52334 0.03781 0.0
H3190 H 0.45731 0.49426 0.00804 0.0
H3191 H 0.48879 0.50906 0.00368 0.0
H3192 H 0.39986 0.61961 0.75033 0.0
H3193 H 0.38403 0.6451 0.74708 0.0
H3194 H 0.38867 0.66246 0.80768 0.0
H3195 H 0.40464 0.63783 0.81093 0.0
H3196 H 0.35357 0.65468 0.75535 0.0
H3197 H 0.40637 0.71543 0.79906 0.0
H3198 H 0.40999 0.69157 0.79195 0.0
H3199 H 0.39823 0.69702 0.81232 0.0
C3200 C 0.39764 0.62888 0.76302 0.0
C3201 C 0.40406 0.62624 0.78096 0.0
C3202 C 0.38842 0.6437 0.76116 0.0
C3203 C 0.38523 0.65678 0.77708 0.0
C3204 C 0.39122 0.65365 0.79488 0.0
H3205 H 0.32848 0.75459 0.79669 0.0
H3206 H 0.34227 0.72755 0.80015 0.0
C3207 C 0.4004 0.63905 0.79674 0.0
C3208 C 0.37558 0.67327 0.7754 0.0
H3209 H 0.37782 0.72199 0.79256 0.0
C3210 C 0.35913 0.66936 0.76348 0.0
C3211 C 0.38219 0.69295 0.78578 0.0
C3212 C 0.40024 0.69958 0.79783 0.0
C3213 C 0.34936 0.6838 0.76204 0.0
C3214 C 0.3559 0.70334 0.77258 0.0
C3215 C 0.3723 0.70727 0.78449 0.0
C3216 C 0.3465 0.71987 0.77067 0.0
C3217 C 0.33167 0.67776 0.74942 0.0
C3218 C 0.3439 0.72531 0.75309 0.0
C3219 C 0.33613 0.74095 0.75116 0.0
C3220 C 0.33011 0.75197 0.76658 0.0
C3221 C 0.33245 0.74649 0.78426 0.0
C3222 C 0.34057 0.73092 0.78626 0.0
H3223 H 0.32586 0.66171 0.74646 0.0
H3224 H 0.32157 0.68488 0.7559 0.0
H3225 H 0.33402 0.68229 0.73572 0.0
H3226 H 0.34839 0.71776 0.7407 0.0
H3227 H 0.335 0.74463 0.73734 0.0
H3228 H 0.23474 0.58194 0.49143 0.0
H3229 H 0.20261 0.56947 0.49542 0.0
H3230 H 0.21009 0.61009 0.54874 0.0
H3231 H 0.24221 0.62241 0.54482 0.0
H3232 H 0.18204 0.55613 0.52767 0.0
H3233 H 0.17522 0.6257 0.50913 0.0
H3234 H 0.19463 0.61626 0.50451 0.0
H3235 H 0.1924 0.62779 0.52809 0.0
C3236 C 0.22963 0.5875 0.50437 0.0
C3237 C 0.24074 0.60285 0.51795 0.0
C3238 C 0.21135 0.58051 0.50658 0.0
C3239 C 0.20411 0.58906 0.52227 0.0
C3240 C 0.21555 0.60338 0.53655 0.0
H3241 H 0.09246 0.59247 0.53382 0.0
H3242 H 0.1254 0.59735 0.5403 0.0
C3243 C 0.23382 0.61029 0.53439 0.0
C3244 C 0.18434 0.58493 0.52242 0.0
H3245 H 0.14888 0.60472 0.51609 0.0
C3246 C 0.17473 0.56674 0.52529 0.0
C3247 C 0.17498 0.5988 0.51904 0.0
C3248 C 0.18474 0.6182 0.51485 0.0
C3249 C 0.15582 0.56207 0.52511 0.0
C3250 C 0.14636 0.57598 0.52183 0.0
C3251 C 0.15612 0.59421 0.51899 0.0
C3252 C 0.1263 0.57167 0.51993 0.0
C3253 C 0.14635 0.54229 0.52845 0.0
C3254 C 0.11591 0.55563 0.50647 0.0
C3255 C 0.09724 0.55275 0.50309 0.0
C3256 C 0.08868 0.56594 0.51292 0.0
C3257 C 0.0989 0.58202 0.52634 0.0
C3258 C 0.11762 0.58476 0.52999 0.0
H3259 H 0.15495 0.5373 0.53841 0.0
H3260 H 0.13335 0.54242 0.53419 0.0
H3261 H 0.14361 0.53157 0.51483 0.0
H3262 H 0.1223 0.54575 0.49801 0.0
H3263 H 0.0896 0.54073 0.49212 0.0
H3264 H 0.69744 0.97694 0.74836 0.0
H3265 H 0.7113 0.95061 0.75214 0.0
H3266 H 0.75733 0.97701 0.72555 0.0
H3267 H 0.7435 0.00352 0.72161 0.0
H3268 H 0.72643 0.92376 0.72464 0.0
H3269 H 0.77618 0.97589 0.7817 0.0
H3270 H 0.75529 0.98075 0.7736 0.0
H3271 H 0.77365 0.9828 0.75917 0.0
C3272 C 0.71041 0.97704 0.74309 0.0
C3273 C 0.71952 0.9924 0.73492 0.0
C3274 C 0.71824 0.96193 0.74515 0.0
C3275 C 0.73535 0.96202 0.73923 0.0
C3276 C 0.74412 0.97681 0.73024 0.0
H3277 H 0.80038 0.89001 0.78013 0.0
H3278 H 0.79069 0.91031 0.75994 0.0
C3279 C 0.73621 0.99189 0.72801 0.0
C3280 C 0.74459 0.94769 0.74433 0.0
H3281 H 0.77619 0.94299 0.77727 0.0
C3282 C 0.73754 0.92794 0.73589 0.0
C3283 C 0.75898 0.95329 0.75909 0.0
C3284 C 0.76649 0.9743 0.76907 0.0
C3285 C 0.74418 0.9135 0.74234 0.0
C3286 C 0.75803 0.91906 0.75763 0.0
C3287 C 0.76565 0.93887 0.76543 0.0
C3288 C 0.76323 0.90467 0.76744 0.0
C3289 C 0.73604 0.89239 0.73316 0.0
C3290 C 0.75098 0.89489 0.7783 0.0
C3291 C 0.75651 0.88357 0.79002 0.0
C3292 C 0.77435 0.88159 0.79097 0.0
C3293 C 0.78646 0.89097 0.77957 0.0
C3294 C 0.78098 0.90257 0.76803 0.0
H3295 H 0.72879 0.8908 0.71893 0.0
H3296 H 0.7467 0.88436 0.73179 0.0
H3297 H 0.72616 0.88554 0.74216 0.0
H3298 H 0.73732 0.89667 0.77832 0.0
H3299 H 0.7469 0.87673 0.79867 0.0
H3300 H 0.76035 0.9223 0.55223 0.0
H3301 H 0.73523 0.93794 0.55368 0.0
H3302 H 0.73034 0.93141 0.49297 0.0
H3303 H 0.75515 0.9157 0.49136 0.0
H3304 H 0.73208 0.97155 0.54202 0.0
H3305 H 0.67831 0.90851 0.50237 0.0
H3306 H 0.69984 0.90613 0.51189 0.0
H3307 H 0.69775 0.91374 0.48965 0.0
C3308 C 0.75389 0.92415 0.53918 0.0
C3309 C 0.75977 0.91765 0.52166 0.0
C3310 C 0.73951 0.93308 0.54004 0.0
C3311 C 0.73061 0.9355 0.5234 0.0
C3312 C 0.73665 0.92927 0.50597 0.0
H3313 H 0.66015 0.99622 0.48245 0.0
H3314 H 0.67988 0.97555 0.4887 0.0
C3315 C 0.75099 0.92041 0.50509 0.0
C3316 C 0.71551 0.94522 0.52409 0.0
H3317 H 0.67237 0.94002 0.50433 0.0
C3318 C 0.7189 0.96455 0.53408 0.0
C3319 C 0.69823 0.93604 0.51388 0.0
C3320 C 0.69322 0.91489 0.50401 0.0
C3321 C 0.70593 0.97531 0.53311 0.0
C3322 C 0.68906 0.96645 0.52199 0.0
C3323 C 0.68535 0.94685 0.51274 0.0
C3324 C 0.67589 0.97783 0.5183 0.0
C3325 C 0.71068 0.99637 0.5432 0.0
C3326 C 0.66668 0.98561 0.53277 0.0
C3327 C 0.65528 0.99742 0.52919 0.0
C3328 C 0.65303 1.00177 0.51113 0.0
C3329 C 0.6618 0.99338 0.49657 0.0
C3330 C 0.67302 0.98149 0.5001 0.0
H3331 H 0.72518 1.0018 0.54909 0.0
H3332 H 0.70774 0.0057 0.53341 0.0
H3333 H 0.70223 0.99796 0.55504 0.0
H3334 H 0.66853 0.98279 0.54687 0.0
H3335 H 0.64873 0.00367 0.54069 0.0
H3336 H 0.41888 0.50242 0.78783 0.0
H3337 H 0.39962 0.46981 0.78667 0.0
H3338 H 0.36182 0.47855 0.74452 0.0
H3339 H 0.38142 0.51163 0.74564 0.0
H3340 H 0.36572 0.45505 0.79406 0.0
H3341 H 0.37017 0.42727 0.71825 0.0
H3342 H 0.38431 0.4504 0.7311 0.0
H3343 H 0.36111 0.44816 0.72284 0.0
C3344 C 0.40632 0.4976 0.77845 0.0
C3345 C 0.40177 0.50993 0.76694 0.0
C3346 C 0.39526 0.47875 0.77776 0.0
C3347 C 0.37923 0.47115 0.76526 0.0
C3348 C 0.37423 0.48364 0.75408 0.0
H3349 H 0.3041 0.35146 0.74554 0.0
H3350 H 0.31798 0.38585 0.745 0.0
C3351 C 0.38533 0.50279 0.75493 0.0
C3352 C 0.36824 0.45023 0.7642 0.0
H3353 H 0.3525 0.40521 0.73456 0.0
C3354 C 0.36282 0.44426 0.78097 0.0
C3355 C 0.3643 0.43574 0.74725 0.0
C3356 C 0.37038 0.44057 0.72884 0.0
C3357 C 0.35381 0.42468 0.78129 0.0
C3358 C 0.35016 0.41014 0.76443 0.0
C3359 C 0.35519 0.41612 0.74756 0.0
C3360 C 0.34169 0.38872 0.76429 0.0
C3361 C 0.3481 0.41974 0.79979 0.0
C3362 C 0.35032 0.37833 0.77497 0.0
C3363 C 0.34239 0.35857 0.77527 0.0
C3364 C 0.32542 0.34837 0.76498 0.0
C3365 C 0.31696 0.35868 0.75396 0.0
C3366 C 0.325 0.37846 0.75354 0.0
H3367 H 0.34739 0.4329 0.81009 0.0
H3368 H 0.33467 0.40893 0.79761 0.0
H3369 H 0.35819 0.4133 0.80612 0.0
H3370 H 0.36333 0.38551 0.78313 0.0
H3371 H 0.34958 0.35136 0.78381 0.0
H3372 H 0.22534 0.58482 0.22933 0.0
H3373 H 0.2476 0.61618 0.23253 0.0
H3374 H 0.24359 0.62826 0.29266 0.0
H3375 H 0.22056 0.59737 0.28921 0.0
H3376 H 0.22803 0.64972 0.27219 0.0
H3377 H 0.29766 0.65146 0.25322 0.0
H3378 H 0.27976 0.63356 0.23769 0.0
H3379 H 0.28378 0.63139 0.26185 0.0
C3380 C 0.22993 0.59386 0.2433 0.0
C3381 C 0.22121 0.58942 0.25897 0.0
C3382 C 0.24276 0.61158 0.24517 0.0
C3383 C 0.24704 0.62441 0.26282 0.0
C3384 C 0.24035 0.61841 0.27898 0.0
H3385 H 0.29875 0.74611 0.28548 0.0
H3386 H 0.29049 0.71085 0.28324 0.0
C3387 C 0.22717 0.60098 0.277 0.0
C3388 C 0.25338 0.64523 0.2633 0.0
H3389 H 0.28762 0.6802 0.25282 0.0
C3390 C 0.24116 0.65648 0.26818 0.0
C3391 C 0.27028 0.65365 0.25766 0.0
C3392 C 0.28371 0.64194 0.25244 0.0
C3393 C 0.24551 0.67622 0.26773 0.0
C3394 C 0.2623 0.68463 0.26175 0.0
C3395 C 0.27459 0.67343 0.25697 0.0
C3396 C 0.26784 0.70541 0.26175 0.0
C3397 C 0.23226 0.68792 0.27401 0.0
C3398 C 0.25776 0.71369 0.25029 0.0
C3399 C 0.26228 0.73379 0.25177 0.0
C3400 C 0.27724 0.74544 0.26418 0.0
C3401 C 0.28739 0.73712 0.27549 0.0
C3402 C 0.28273 0.71713 0.27423 0.0
H3403 H 0.22214 0.68028 0.28234 0.0
H3404 H 0.23945 0.70241 0.28274 0.0
H3405 H 0.22479 0.69026 0.26136 0.0
H3406 H 0.2463 0.70465 0.2405 0.0
H3407 H 0.25425 0.74023 0.2432 0.0
H3408 H 0.49148 0.70725 0.46996 0.0
H3409 H 0.50005 0.68072 0.48185 0.0
H3410 H 0.5521 0.69615 0.46099 0.0
H3411 H 0.54351 0.72267 0.4487 0.0
H3412 H 0.51232 0.64861 0.45801 0.0
H3413 H 0.56173 0.69171 0.51945 0.0
H3414 H 0.54376 0.70062 0.50984 0.0
H3415 H 0.56333 0.70025 0.49751 0.0
C3416 C 0.5048 0.70512 0.46791 0.0
C3417 C 0.51678 0.71722 0.4583 0.0
C3418 C 0.50969 0.68989 0.47477 0.0
C3419 C 0.52681 0.68649 0.47255 0.0
C3420 C 0.53889 0.69858 0.46309 0.0
H3421 H 0.55792 0.57936 0.4737 0.0
H3422 H 0.55331 0.61005 0.46764 0.0
C3423 C 0.53391 0.7137 0.45596 0.0
C3424 C 0.53156 0.66966 0.47923 0.0
H3425 H 0.55901 0.65775 0.51198 0.0
C3426 C 0.52253 0.65063 0.46981 0.0
C3427 C 0.54457 0.67219 0.49492 0.0
C3428 C 0.5539 0.69225 0.5062 0.0
C3429 C 0.52647 0.63418 0.47523 0.0
C3430 C 0.54014 0.63665 0.49037 0.0
C3431 C 0.54875 0.65571 0.50024 0.0
C3432 C 0.54588 0.61956 0.49549 0.0
C3433 C 0.51567 0.61422 0.46475 0.0
C3434 C 0.5447 0.61515 0.5137 0.0
C3435 C 0.5479 0.59764 0.5174 0.0
C3436 C 0.55234 0.58428 0.50292 0.0
C3437 C 0.55451 0.58933 0.48514 0.0
C3438 C 0.55167 0.60683 0.48159 0.0
H3439 H 0.50233 0.61465 0.45812 0.0
H3440 H 0.52327 0.60885 0.45326 0.0
H3441 H 0.5133 0.60364 0.4743 0.0
H3442 H 0.54043 0.62476 0.52478 0.0
H3443 H 0.54588 0.59405 0.53116 0.0
H3444 H 0.65943 0.32619 0.62632 0.0
H3445 H 0.68401 0.32497 0.64873 0.0
H3446 H 0.64662 0.31485 0.69032 0.0
H3447 H 0.62165 0.31561 0.66764 0.0
H3448 H 0.69925 0.34605 0.68269 0.0
H3449 H 0.66928 0.26999 0.69006 0.0
H3450 H 0.66019 0.28069 0.67225 0.0
H3451 H 0.65503 0.28601 0.69627 0.0
C3452 C 0.65632 0.32377 0.64025 0.0
C3453 C 0.63838 0.32087 0.64502 0.0
C3454 C 0.67051 0.32309 0.65312 0.0
C3455 C 0.66728 0.31941 0.6712 0.0
C3456 C 0.64951 0.31721 0.67633 0.0
H3457 H 0.74315 0.31705 0.76622 0.0
H3458 H 0.71774 0.32058 0.74633 0.0
C3459 C 0.63522 0.31786 0.66339 0.0
C3460 C 0.68259 0.31779 0.68439 0.0
H3461 H 0.69651 0.2871 0.70965 0.0
C3462 C 0.69858 0.33313 0.68856 0.0
C3463 C 0.68197 0.30089 0.69203 0.0
C3464 C 0.66579 0.28337 0.68732 0.0
C3465 C 0.71371 0.33209 0.70013 0.0
C3466 C 0.71299 0.3153 0.70782 0.0
C3467 C 0.69705 0.30001 0.70381 0.0
C3468 C 0.72874 0.31333 0.71997 0.0
C3469 C 0.73045 0.34896 0.70417 0.0
C3470 C 0.74351 0.30807 0.7119 0.0
C3471 C 0.75801 0.30565 0.72333 0.0
C3472 C 0.75824 0.30865 0.74321 0.0
C3473 C 0.74356 0.31438 0.75116 0.0
C3474 C 0.72893 0.31647 0.73972 0.0
H3475 H 0.72834 0.36174 0.69867 0.0
H3476 H 0.73457 0.35346 0.71966 0.0
H3477 H 0.74179 0.34433 0.69751 0.0
H3478 H 0.74374 0.30562 0.69669 0.0
H3479 H 0.76904 0.30139 0.71653 0.0
H3480 H 0.04912 0.32748 0.96605 0.0
H3481 H 0.05444 0.36273 0.97838 0.0
H3482 H 0.99708 0.35718 0.96772 0.0
H3483 H 0.99173 0.32216 0.95698 0.0
H3484 H 0.0512 0.39105 0.96442 0.0
H3485 H 0.0037 0.38866 0.01858 0.0
H3486 H 0.00908 0.36695 0.00664 0.0
H3487 H 0.99142 0.37576 0.99626 0.0
C3488 C 0.0377 0.33386 0.96664 0.0
C3489 C 0.01999 0.32207 0.96089 0.0
C3490 C 0.0407 0.354 0.97368 0.0
C3491 C 0.02609 0.36275 0.97467 0.0
C3492 C 0.00853 0.35091 0.96813 0.0
H3493 H 0.03593 0.48259 0.96792 0.0
H3494 H 0.03055 0.44718 0.96302 0.0
C3495 C 0.00549 0.33084 0.96173 0.0
C3496 C 0.02913 0.38431 0.98133 0.0
H3497 H 0.01145 0.41879 0.00694 0.0
C3498 C 0.04263 0.39702 0.97395 0.0
C3499 C 0.01837 0.39248 0.99418 0.0
C3500 C 0.00501 0.3802 0.00452 0.0
C3501 C 0.04508 0.41734 0.97827 0.0
C3502 C 0.03315 0.42528 0.98961 0.0
C3503 C 0.02026 0.41274 0.99779 0.0
C3504 C 0.03381 0.44648 0.99283 0.0
C3505 C 0.06064 0.43007 0.97077 0.0
C3506 C 0.03598 0.45783 0.01124 0.0
C3507 C 0.03857 0.47812 0.01405 0.0
C3508 C 0.03896 0.48734 0.99849 0.0
C3509 C 0.03571 0.47583 0.98015 0.0
C3510 C 0.03287 0.45562 0.97735 0.0
H3511 H 0.07176 0.42281 0.96829 0.0
H3512 H 0.05579 0.43286 0.95701 0.0
H3513 H 0.06626 0.44427 0.9807 0.0
H3514 H 0.03652 0.45114 0.02345 0.0
H3515 H 0.04124 0.48664 0.02832 0.0
H3516 H 0.01872 0.83298 0.13048 0.0
H3517 H 0.99327 0.82854 0.14949 0.0
H3518 H 0.01396 0.78738 0.17471 0.0
H3519 H 0.03986 0.79227 0.15614 0.0
H3520 H 0.96633 0.798 0.15068 0.0
H3521 H 0.00597 0.82195 0.22134 0.0
H3522 H 0.01617 0.82536 0.19995 0.0
H3523 H 0.01233 0.80218 0.20706 0.0
C3524 C 0.01798 0.82307 0.14018 0.0
C3525 C 0.0315 0.8131 0.14186 0.0
C3526 C 0.00333 0.82051 0.15104 0.0
C3527 C 1.00172 0.80787 0.16386 0.0
C3528 C 0.01507 0.79765 0.16537 0.0
H3529 H 0.91992 0.76182 0.2328 0.0
H3530 H 0.94355 0.76744 0.21164 0.0
C3531 C 0.02986 0.80037 0.15464 0.0
C3532 C 0.98592 0.80516 0.17531 0.0
H3533 H 0.97458 0.80612 0.22052 0.0
C3534 C 0.96819 0.79995 0.16596 0.0
C3535 C 0.98818 0.80785 0.19533 0.0
C3536 C 0.00669 0.81485 0.20653 0.0
C3537 C 0.95282 0.79687 0.17598 0.0
C3538 C 0.95515 0.79896 0.19586 0.0
C3539 C 0.9728 0.80439 0.20524 0.0
C3540 C 0.93951 0.79494 0.2072 0.0
C3541 C 0.93413 0.79094 0.16528 0.0
C3542 C 0.92908 0.80838 0.21151 0.0
C3543 C 0.91555 0.80528 0.22379 0.0
C3544 C 0.91226 0.7887 0.23207 0.0
C3545 C 0.92226 0.77492 0.227 0.0
C3546 C 0.93576 0.77806 0.21483 0.0
H3547 H 0.93453 0.78864 0.14971 0.0
H3548 H 0.92606 0.7773 0.16887 0.0
H3549 H 0.92702 0.80244 0.1696 0.0
H3550 H 0.93181 0.82159 0.20587 0.0
H3551 H 0.90824 0.81627 0.22746 0.0
H3552 H 0.47473 0.30576 0.11688 0.0
H3553 H 0.48338 0.33055 0.09764 0.0
H3554 H 0.53969 0.33943 0.11733 0.0
H3555 H 0.53128 0.3148 0.13666 0.0
H3556 H 0.51205 0.37421 0.11281 0.0
H3557 H 0.52824 0.32123 0.05447 0.0
H3558 H 0.51138 0.31352 0.06989 0.0
H3559 H 0.53495 0.32079 0.07871 0.0
C3560 C 0.48894 0.31311 0.11727 0.0
C3561 C 0.50232 0.30822 0.12823 0.0
C3562 C 0.49383 0.32726 0.1063 0.0
C3563 C 0.51214 0.33666 0.10608 0.0
C3564 C 0.52549 0.33225 0.11735 0.0
H3565 H 0.5661 0.40838 0.03113 0.0
H3566 H 0.55875 0.38687 0.05377 0.0
C3567 C 0.52063 0.31817 0.12837 0.0
C3568 C 0.51742 0.35047 0.09341 0.0
H3569 H 0.53257 0.35352 0.05039 0.0
C3570 C 0.51654 0.36977 0.09914 0.0
C3571 C 0.52343 0.34456 0.07577 0.0
C3572 C 0.52457 0.32389 0.06917 0.0
C3573 C 0.52159 0.38345 0.08759 0.0
C3574 C 0.5272 0.37743 0.06966 0.0
C3575 C 0.52824 0.35811 0.06409 0.0
C3576 C 0.53177 0.39079 0.0563 0.0
C3577 C 0.52122 0.40427 0.09489 0.0
C3578 C 0.51896 0.39987 0.04998 0.0
C3579 C 0.52315 0.41218 0.03715 0.0
C3580 C 0.54015 0.41541 0.03013 0.0
C3581 C 0.55285 0.40602 0.03619 0.0
C3582 C 0.5487 0.39384 0.04917 0.0
H3583 H 0.52214 0.40772 0.11059 0.0
H3584 H 0.53252 0.41468 0.09026 0.0
H3585 H 0.50823 0.40649 0.08929 0.0
H3586 H 0.50562 0.39728 0.05482 0.0
H3587 H 0.51301 0.419 0.03251 0.0
H3588 H 0.03121 0.32638 0.40175 0.0
H3589 H 0.00496 0.3279 0.38168 0.0
H3590 H 0.03178 0.31507 0.33201 0.0
H3591 H 0.05811 0.31336 0.35193 0.0
H3592 H 0.00734 0.35481 0.35699 0.0
H3593 H 0.97996 0.2779 0.31859 0.0
H3594 H 0.99492 0.28452 0.34041 0.0
H3595 H 0.00388 0.28822 0.3186 0.0
C3596 C 0.03145 0.32358 0.38655 0.0
C3597 C 0.04678 0.31981 0.37844 0.0
C3598 C 0.01644 0.32447 0.37512 0.0
C3599 C 0.01643 0.32147 0.3554 0.0
C3600 C 0.03145 0.31714 0.34719 0.0
H3601 H 0.93874 0.33819 0.26987 0.0
H3602 H 0.96596 0.33302 0.28581 0.0
C3603 C 0.04651 0.31627 0.35862 0.0
C3604 C 1.00128 0.32445 0.34366 0.0
H3605 H 0.9661 0.30126 0.30943 0.0
C3606 C 0.99833 0.34312 0.34658 0.0
C3607 C 0.9897 0.30916 0.33001 0.0
C3608 C 0.99211 0.28876 0.32673 0.0
C3609 C 0.98394 0.34689 0.33631 0.0
C3610 C 0.97214 0.33154 0.32295 0.0
C3611 C 0.97528 0.31296 0.31969 0.0
C3612 C 0.95583 0.33438 0.31317 0.0
C3613 C 0.98133 0.36721 0.33984 0.0
C3614 C 0.94127 0.33675 0.32336 0.0
C3615 C 0.92582 0.33967 0.31437 0.0
C3616 C 0.92472 0.34031 0.29503 0.0
C3617 C 0.93937 0.33797 0.28484 0.0
C3618 C 0.9548 0.33489 0.29385 0.0
H3619 H 0.99357 0.37817 0.34769 0.0
H3620 H 0.97804 0.37141 0.32627 0.0
H3621 H 0.96979 0.36761 0.34836 0.0
H3622 H 0.94186 0.33633 0.33829 0.0
H3623 H 0.91476 0.34153 0.32256 0.0
H3624 H 0.00347 0.73345 0.60237 0.0
H3625 H 0.00641 0.70761 0.57689 0.0
H3626 H 0.96679 0.66571 0.59854 0.0
H3627 H 0.96404 0.69139 0.62431 0.0
H3628 H 0.0031 0.66308 0.60299 0.0
H3629 H 0.98193 0.66596 0.5288 0.0
H3630 H 0.99329 0.68895 0.54403 0.0
H3631 H 0.97143 0.67579 0.5487 0.0
C3632 C 0.9947 0.71892 0.60117 0.0
C3633 C 0.98395 0.71424 0.6156 0.0
C3634 C 0.99634 0.70417 0.58651 0.0
C3635 C 0.98698 0.68477 0.58604 0.0
C3636 C 0.97417 0.68063 0.59878 0.0
H3637 H 0.00632 0.57471 0.54035 0.0
H3638 H 0.99427 0.60173 0.55453 0.0
C3639 C 0.97266 0.69529 0.61352 0.0
C3640 C 0.99411 0.66892 0.57628 0.0
H3641 H 1.00169 0.64585 0.53321 0.0
C3642 C 0.00262 0.65918 0.58772 0.0
C3643 C 0.99375 0.66423 0.55643 0.0
C3644 C 0.98451 0.67415 0.54369 0.0
C3645 C 0.01081 0.64479 0.5798 0.0
C3646 C 0.01043 0.64006 0.55998 0.0
C3647 C 1.00201 0.64978 0.54846 0.0
C3648 C 0.01775 0.6241 0.55107 0.0
C3649 C 0.01992 0.63476 0.59259 0.0
C3650 C 0.03498 0.62794 0.5447 0.0
C3651 C 0.04177 0.61251 0.5364 0.0
C3652 C 0.03133 0.59329 0.53453 0.0
C3653 C 0.01434 0.58951 0.54134 0.0
C3654 C 0.00751 0.60485 0.54947 0.0
H3655 H 0.02057 0.6415 0.60779 0.0
H3656 H 0.01231 0.61919 0.5904 0.0
H3657 H 0.03391 0.63524 0.58898 0.0
H3658 H 0.04307 0.64281 0.54612 0.0
H3659 H 0.05496 0.61553 0.53121 0.0
H3660 H 0.62349 0.83574 0.82963 0.0
H3661 H 0.64534 0.82934 0.80745 0.0
H3662 H 0.67475 0.81079 0.85036 0.0
H3663 H 0.65282 0.81654 0.87228 0.0
H3664 H 0.68145 0.8443 0.80895 0.0
H3665 H 0.66752 0.76533 0.80687 0.0
H3666 H 0.65277 0.77961 0.81685 0.0
H3667 H 0.67267 0.77852 0.83088 0.0
C3668 C 0.63461 0.83025 0.83429 0.0
C3669 C 0.63634 0.82639 0.85259 0.0
C3670 C 0.64702 0.82658 0.8216 0.0
C3671 C 0.66132 0.81904 0.8271 0.0
C3672 C 0.66343 0.81592 0.84561 0.0
H3673 H 0.76378 0.80854 0.80758 0.0
H3674 H 0.73423 0.81152 0.81708 0.0
C3675 C 0.65097 0.81937 0.85818 0.0
C3676 C 0.67453 0.81497 0.8139 0.0
H3677 H 0.69753 0.78111 0.79964 0.0
C3678 C 0.68464 0.8303 0.80636 0.0
C3679 C 0.67849 0.79661 0.81032 0.0
C3680 C 0.66712 0.77905 0.8165 0.0
C3681 C 0.69961 0.82816 0.79671 0.0
C3682 C 0.70452 0.81038 0.79473 0.0
C3683 C 0.69371 0.79471 0.80115 0.0
C3684 C 0.72212 0.8087 0.78853 0.0
C3685 C 0.71093 0.84524 0.78987 0.0
C3686 C 0.72501 0.80642 0.76936 0.0
C3687 C 0.7419 0.80478 0.76394 0.0
C3688 C 0.75579 0.80509 0.77766 0.0
C3689 C 0.75301 0.80787 0.79682 0.0
C3690 C 0.73624 0.80956 0.80222 0.0
H3691 H 0.70612 0.8586 0.79369 0.0
H3692 H 0.7252 0.84828 0.79606 0.0
H3693 H 0.71068 0.84152 0.77425 0.0
H3694 H 0.71421 0.8058 0.75867 0.0
H3695 H 0.74404 0.80296 0.74912 0.0
H3696 H 0.44305 0.57084 0.70203 0.0
H3697 H 0.45559 0.5695 0.67118 0.0
H3698 H 0.50717 0.56916 0.69822 0.0
H3699 H 0.49465 0.56971 0.72842 0.0
H3700 H 0.48122 0.58925 0.65345 0.0
H3701 H 0.50239 0.52269 0.65871 0.0
H3702 H 0.48879 0.53241 0.67542 0.0
H3703 H 0.51314 0.54187 0.67837 0.0
C3704 C 0.45715 0.57079 0.70149 0.0
C3705 C 0.46768 0.5704 0.71814 0.0
C3706 C 0.46438 0.56985 0.68362 0.0
C3707 C 0.48242 0.56845 0.68165 0.0
C3708 C 0.49309 0.56931 0.69857 0.0
H3709 H 0.55713 0.56518 0.5921 0.0
H3710 H 0.54275 0.56935 0.62142 0.0
C3711 C 0.48588 0.56996 0.71618 0.0
C3712 C 0.49016 0.56589 0.66231 0.0
H3713 H 0.51512 0.53966 0.63521 0.0
C3714 C 0.48845 0.57823 0.64953 0.0
C3715 C 0.49969 0.55148 0.65642 0.0
C3716 C 0.50094 0.53624 0.66785 0.0
C3717 C 0.49626 0.57701 0.63198 0.0
C3718 C 0.50626 0.56305 0.62651 0.0
C3719 C 0.50778 0.55059 0.63911 0.0
C3720 C 0.51519 0.5611 0.60795 0.0
C3721 C 0.49415 0.5911 0.61952 0.0
C3722 C 0.5049 0.55487 0.58997 0.0
C3723 C 0.51324 0.55218 0.57294 0.0
C3724 C 0.53232 0.55597 0.573 0.0
C3725 C 0.54257 0.56242 0.59101 0.0
C3726 C 0.53422 0.56471 0.60804 0.0
H3727 H 0.489 0.6032 0.62697 0.0
H3728 H 0.50732 0.59736 0.61448 0.0
H3729 H 0.48442 0.58322 0.60691 0.0
H3730 H 0.49025 0.55164 0.58906 0.0
H3731 H 0.50463 0.5471 0.55962 0.0
H3732 H 0.80568 0.1636 0.9731 0.0
H3733 H 0.80377 0.18304 0.9488 0.0
H3734 H 0.74825 0.18089 0.95804 0.0
H3735 H 0.74992 0.16152 0.98211 0.0
H3736 H 0.7695 0.17516 0.9141 0.0
H3737 H 0.78584 0.24119 0.97215 0.0
H3738 H 0.79375 0.21994 0.97405 0.0
H3739 H 0.77035 0.2193 0.97585 0.0
C3740 C 0.79299 0.16699 0.96968 0.0
C3741 C 0.77802 0.16131 0.97963 0.0
C3742 C 0.79192 0.178 0.95582 0.0
C3743 C 0.77589 0.18331 0.95183 0.0
C3744 C 0.76069 0.17682 0.96103 0.0
H3745 H 0.73967 0.25818 0.88605 0.0
H3746 H 0.74139 0.23321 0.90469 0.0
C3747 C 0.76173 0.16588 0.97482 0.0
C3748 C 0.77538 0.1973 0.93957 0.0
H3749 H 0.77765 0.24531 0.94151 0.0
C3750 C 0.77138 0.19052 0.91998 0.0
C3751 C 0.77781 0.21723 0.94751 0.0
C3752 C 0.78226 0.225 0.96854 0.0
C3753 C 0.76953 0.20336 0.90803 0.0
C3754 C 0.77167 0.2232 0.91605 0.0
C3755 C 0.77588 0.22998 0.93559 0.0
C3756 C 0.77034 0.23745 0.90433 0.0
C3757 C 0.76526 0.19581 0.88697 0.0
C3758 C 0.78612 0.24808 0.89845 0.0
C3759 C 0.7852 0.2623 0.88806 0.0
C3760 C 0.76849 0.26611 0.88347 0.0
C3761 C 0.7527 0.2556 0.88962 0.0
C3762 C 0.75363 0.24128 0.90001 0.0
H3763 H 0.76416 0.17995 0.88295 0.0
H3764 H 0.75228 0.19857 0.88205 0.0
H3765 H 0.77602 0.20379 0.87953 0.0
H3766 H 0.79912 0.24538 0.90195 0.0
H3767 H 0.79757 0.27033 0.88357 0.0
H3768 H 0.14674 0.56031 0.19611 0.0
H3769 H 0.13429 0.55094 0.16283 0.0
H3770 H 0.13757 0.49201 0.1617 0.0
H3771 H 0.15014 0.50122 0.19502 0.0
H3772 H 0.14526 0.52672 0.12643 0.0
H3773 H 0.08166 0.4945 0.15613 0.0
H3774 H 0.10018 0.51249 0.17095 0.0
H3775 H 0.10239 0.48837 0.16242 0.0
C3776 C 0.14479 0.54536 0.18879 0.0
C3777 C 0.14869 0.53129 0.19827 0.0
C3778 C 0.13806 0.54015 0.16975 0.0
C3779 C 0.13503 0.52082 0.16007 0.0
C3780 C 0.13992 0.507 0.1691 0.0
H3781 H 0.05312 0.49527 0.06188 0.0
H3782 H 0.07225 0.48755 0.08646 0.0
C3783 C 0.1468 0.51223 0.18813 0.0
C3784 C 0.12359 0.51471 0.14198 0.0
H3785 H 0.07873 0.50083 0.12564 0.0
C3786 C 0.13078 0.52048 0.12596 0.0
C3787 C 0.10479 0.50643 0.14157 0.0
C3788 C 0.09666 0.50006 0.15864 0.0
C3789 C 0.11927 0.51955 0.10984 0.0
C3790 C 0.10031 0.51327 0.11026 0.0
C3791 C 0.0933 0.50576 0.12557 0.0
C3792 C 0.0877 0.51752 0.09659 0.0
C3793 C 0.1274 0.52634 0.09295 0.0
C3794 C 0.08939 0.53697 0.09526 0.0
C3795 C 0.07867 0.54133 0.08139 0.0
C3796 C 0.06593 0.52631 0.06897 0.0
C3797 C 0.06298 0.507 0.07139 0.0
C3798 C 0.07395 0.50259 0.08519 0.0
H3799 H 0.14116 0.52399 0.092 0.0
H3800 H 0.11872 0.51864 0.07955 0.0
H3801 H 0.12875 0.54221 0.09446 0.0
H3802 H 0.09944 0.54872 0.10455 0.0
H3803 H 0.08085 0.55634 0.07986 0.0
H3804 H 0.79957 0.8189 0.481 0.0
H3805 H 0.79883 0.80759 0.44689 0.0
H3806 H 0.79025 0.86198 0.43721 0.0
H3807 H 0.79085 0.87345 0.47142 0.0
H3808 H 0.76991 0.81195 0.41143 0.0
H3809 H 0.84363 0.85003 0.42047 0.0
H3810 H 0.83269 0.84006 0.43927 0.0
H3811 H 0.82821 0.86152 0.43314 0.0
C3812 C 0.79704 0.82827 0.47159 0.0
C3813 C 0.7954 0.84713 0.47889 0.0
C3814 C 0.79662 0.82177 0.45213 0.0
C3815 C 0.79465 0.83404 0.43967 0.0
C3816 C 0.79177 0.85234 0.44672 0.0
H3817 H 0.81009 0.84216 0.32632 0.0
H3818 H 0.81 0.84634 0.3606 0.0
C3819 C 0.79203 0.85882 0.46622 0.0
C3820 C 0.79759 0.82855 0.41963 0.0
H3821 H 0.83021 0.835 0.3895 0.0
C3822 C 0.78308 0.81683 0.40658 0.0
C3823 C 0.81485 0.8349 0.41354 0.0
C3824 C 0.83085 0.84729 0.42725 0.0
C3825 C 0.78528 0.81178 0.38732 0.0
C3826 C 0.80252 0.81839 0.38115 0.0
C3827 C 0.81709 0.82979 0.39433 0.0
C3828 C 0.80511 0.8156 0.3608 0.0
C3829 C 0.76903 0.80011 0.37357 0.0
C3830 C 0.80314 0.79697 0.34966 0.0
C3831 C 0.80334 0.79456 0.33 0.0
C3832 C 0.8056 0.81081 0.32139 0.0
C3833 C 0.80847 0.82946 0.33271 0.0
C3834 C 0.80839 0.83186 0.35225 0.0
H3835 H 0.75617 0.79862 0.38021 0.0
H3836 H 0.76796 0.80705 0.36119 0.0
H3837 H 0.77066 0.78529 0.36829 0.0
H3838 H 0.80079 0.78427 0.35608 0.0
H3839 H 0.80083 0.78001 0.3215 0.0
H3840 H 0.49094 0.5571 0.81778 0.0
H3841 H 0.502 0.55389 0.84883 0.0
H3842 H 0.46188 0.58023 0.87346 0.0
H3843 H 0.45004 0.58283 0.84168 0.0
H3844 H 0.51797 0.57552 0.88018 0.0
H3845 H 0.45237 0.53573 0.89937 0.0
H3846 H 0.45486 0.54066 0.87597 0.0
H3847 H 0.45259 0.55944 0.89505 0.0
C3848 C 0.48426 0.56239 0.82965 0.0
C3849 C 0.46928 0.57025 0.82655 0.0
C3850 C 0.4908 0.56049 0.84777 0.0
C3851 C 0.48284 0.56628 0.86416 0.0
C3852 C 0.46824 0.57489 0.86139 0.0
H3853 H 0.50047 0.55327 0.9835 0.0
H3854 H 0.49063 0.55925 0.95316 0.0
C3855 C 0.46154 0.57674 0.843 0.0
C3856 C 0.49008 0.56313 0.8836 0.0
H3857 H 0.47752 0.54311 0.9222 0.0
C3858 C 0.50899 0.56845 0.88932 0.0
C3859 C 0.47886 0.55388 0.8961 0.0
C3860 C 0.45857 0.54691 0.89131 0.0
C3861 C 0.51672 0.56537 0.9067 0.0
C3862 C 0.50552 0.55583 0.91915 0.0
C3863 C 0.48659 0.55045 0.9133 0.0
C3864 C 0.51266 0.55206 0.93846 0.0
C3865 C 0.53694 0.57319 0.91165 0.0
C3866 C 0.52873 0.54586 0.94162 0.0
C3867 C 0.53499 0.54315 0.9598 0.0
C3868 C 0.52495 0.54546 0.97548 0.0
C3869 C 0.50874 0.55107 0.97209 0.0
C3870 C 0.5029 0.55443 0.95431 0.0
H3871 H 0.54257 0.58517 0.90424 0.0
H3872 H 0.54056 0.5788 0.92709 0.0
H3873 H 0.54359 0.56135 0.90704 0.0
H3874 H 0.53657 0.54292 0.93004 0.0
H3875 H 0.54765 0.53918 0.9615 0.0
H3876 H 0.80637 0.19613 0.06841 0.0
H3877 H 0.81322 0.2195 0.09884 0.0
H3878 H 0.75596 0.21339 0.10176 0.0
H3879 H 0.74914 0.19086 0.07135 0.0
H3880 H 0.77544 0.25119 0.11178 0.0
H3881 H 0.8059 0.20378 0.14937 0.0
H3882 H 0.81648 0.21042 0.12917 0.0
H3883 H 0.79373 0.19501 0.12602 0.0
C3884 C 0.79532 0.1999 0.07558 0.0
C3885 C 0.77726 0.19179 0.06756 0.0
C3886 C 0.79922 0.21316 0.09291 0.0
C3887 C 0.78506 0.21802 0.10255 0.0
C3888 C 0.76708 0.20997 0.09445 0.0
H3889 H 0.7749 0.24847 0.21822 0.0
H3890 H 0.77223 0.23519 0.18449 0.0
C3891 C 0.76321 0.19707 0.07709 0.0
C3892 C 0.78851 0.23088 0.12142 0.0
H3893 H 0.80251 0.23269 0.16748 0.0
C3894 C 0.78152 0.24731 0.12399 0.0
C3895 C 0.79636 0.22562 0.13722 0.0
C3896 C 0.80344 0.20768 0.13544 0.0
C3897 C 0.78135 0.25811 0.14211 0.0
C3898 C 0.78881 0.25253 0.1579 0.0
C3899 C 0.79667 0.23676 0.15525 0.0
C3900 C 0.78772 0.26189 0.1775 0.0
C3901 C 0.77239 0.27468 0.14425 0.0
C3902 C 0.79647 0.2816 0.18451 0.0
C3903 C 0.79765 0.28939 0.20379 0.0
C3904 C 0.79074 0.27735 0.21634 0.0
C3905 C 0.7808 0.25802 0.20902 0.0
C3906 C 0.77928 0.25038 0.18974 0.0
H3907 H 0.76371 0.27416 0.13117 0.0
H3908 H 0.76394 0.27444 0.1562 0.0
H3909 H 0.783 0.28873 0.14726 0.0
H3910 H 0.80311 0.29072 0.17528 0.0
H3911 H 0.8047 0.30456 0.20892 0.0
H3912 H 0.18987 0.56262 0.31164 0.0
H3913 H 0.18194 0.56791 0.34404 0.0
H3914 H 0.13989 0.51377 0.32979 0.0
H3915 H 0.14839 0.50826 0.29785 0.0
H3916 H 0.15039 0.57457 0.34176 0.0
H3917 H 0.14547 0.51844 0.38484 0.0
H3918 H 0.16098 0.52073 0.36699 0.0
H3919 H 0.13768 0.50669 0.36076 0.0
C3920 C 0.17975 0.55129 0.31594 0.0
C3921 C 0.16934 0.53522 0.30252 0.0
C3922 C 0.17527 0.55429 0.33442 0.0
C3923 C 0.16009 0.54145 0.33927 0.0
C3924 C 0.15175 0.52383 0.32655 0.0
H3925 H 0.05888 0.54191 0.3749 0.0
H3926 H 0.0861 0.53863 0.35968 0.0
C3927 C 0.15642 0.52071 0.30817 0.0
C3928 C 0.14936 0.54897 0.35367 0.0
H3929 H 0.11957 0.53349 0.38427 0.0
C3930 C 0.14419 0.56596 0.35161 0.0
C3931 C 0.14104 0.53765 0.3663 0.0
C3932 C 0.14677 0.51998 0.36994 0.0
C3933 C 0.12989 0.57098 0.36063 0.0
C3934 C 0.12072 0.55879 0.37204 0.0
C3935 C 0.1266 0.5426 0.3752 0.0
C3936 C 0.10437 0.56212 0.38004 0.0
C3937 C 0.12385 0.58849 0.35697 0.0
C3938 C 0.10582 0.57684 0.39601 0.0
C3939 C 0.09038 0.57877 0.40458 0.0
C3940 C 0.07339 0.5661 0.39713 0.0
C3941 C 0.07184 0.55208 0.38054 0.0
C3942 C 0.08732 0.55003 0.37206 0.0
H3943 H 0.13147 0.59551 0.34637 0.0
H3944 H 0.10915 0.58415 0.35187 0.0
H3945 H 0.12586 0.59941 0.37039 0.0
H3946 H 0.11896 0.58624 0.40224 0.0
H3947 H 0.09179 0.58942 0.4176 0.0
H3948 H 0.77591 0.87288 0.58579 0.0
H3949 H 0.76648 0.86211 0.61495 0.0
H3950 H 0.80381 0.82592 0.61085 0.0
H3951 H 0.81329 0.83643 0.5821 0.0
H3952 H 0.76406 0.80882 0.61892 0.0
H3953 H 0.8044 0.87777 0.66639 0.0
H3954 H 0.79081 0.87843 0.64534 0.0
H3955 H 0.81089 0.86999 0.64325 0.0
C3956 C 0.78202 0.86256 0.59108 0.0
C3957 C 0.79541 0.8556 0.58163 0.0
C3958 C 0.77661 0.85643 0.60768 0.0
C3959 C 0.78447 0.84323 0.61494 0.0
C3960 C 0.79753 0.83604 0.60537 0.0
H3961 H 0.81338 0.8098 0.71443 0.0
H3962 H 0.80922 0.82189 0.6855 0.0
C3963 C 0.80297 0.84215 0.58895 0.0
C3964 C 0.78003 0.83731 0.63299 0.0
H3965 H 0.79366 0.85085 0.68035 0.0
C3966 C 0.77012 0.81807 0.63247 0.0
C3967 C 0.78813 0.84945 0.65049 0.0
C3968 C 0.79919 0.87009 0.65161 0.0
C3969 C 0.76897 0.81028 0.64895 0.0
C3970 C 0.77788 0.82216 0.66637 0.0
C3971 C 0.78688 0.84175 0.66698 0.0
C3972 C 0.77988 0.81416 0.68366 0.0
C3973 C 0.75922 0.78909 0.64735 0.0
C3974 C 0.76476 0.80556 0.69217 0.0
C3975 C 0.76715 0.79844 0.70867 0.0
C3976 C 0.7847 0.80022 0.7171 0.0
C3977 C 0.79974 0.8086 0.70844 0.0
C3978 C 0.79736 0.81547 0.69189 0.0
H3979 H 0.75619 0.78107 0.6324 0.0
H3980 H 0.7674 0.78175 0.6553 0.0
H3981 H 0.74617 0.78808 0.6535 0.0
H3982 H 0.75116 0.80467 0.68627 0.0
H3983 H 0.75532 0.79211 0.71515 0.0
H3984 H 0.76148 0.43527 0.53907 0.0
H3985 H 0.73736 0.45192 0.54453 0.0
H3986 H 0.76142 0.49309 0.51101 0.0
H3987 H 0.78564 0.47674 0.50556 0.0
H3988 H 0.74681 0.49907 0.5593 0.0
H3989 H 0.70303 0.46532 0.49116 0.0
H3990 H 0.71697 0.45256 0.50221 0.0
H3991 H 0.72732 0.47195 0.49089 0.0
C3992 C 0.76161 0.44783 0.53281 0.0
C3993 C 0.77546 0.45472 0.52189 0.0
C3994 C 0.74785 0.45729 0.53595 0.0
C3995 C 0.74768 0.47359 0.52807 0.0
C3996 C 0.76137 0.48043 0.51709 0.0
H3997 H 0.68716 0.55891 0.52883 0.0
H3998 H 0.70826 0.53817 0.52394 0.0
C3999 C 0.77519 0.4711 0.51405 0.0
C4000 C 0.73351 0.48395 0.5317 0.0
H4001 H 0.69513 0.49118 0.51099 0.0
C4002 C 0.7354 0.49724 0.54887 0.0
C4003 C 0.71877 0.48147 0.51795 0.0
C4004 C 0.71622 0.46701 0.49949 0.0
C4005 C 0.72302 0.50856 0.55248 0.0
C4006 C 0.70844 0.50632 0.53861 0.0
C4007 C 0.70638 0.49278 0.52155 0.0
C4008 C 0.69556 0.51849 0.54139 0.0
C4009 C 0.72577 0.5232 0.57084 0.0
C4010 C 0.68149 0.5141 0.55273 0.0
C4011 C 0.66938 0.52577 0.55537 0.0
C4012 C 0.67141 0.54211 0.54692 0.0
C4013 C 0.68555 0.54651 0.53566 0.0
C4014 C 0.69748 0.53467 0.53279 0.0
H4015 H 0.73867 0.52436 0.57944 0.0
H4016 H 0.7258 0.53779 0.56795 0.0
H4017 H 0.71434 0.51886 0.57925 0.0
H4018 H 0.67988 0.50163 0.55945 0.0
H4019 H 0.6585 0.52213 0.56406 0.0
H4020 H 0.22764 0.18278 0.51569 0.0
H4021 H 0.19891 0.15826 0.5127 0.0
H4022 H 0.22247 0.11518 0.48192 0.0
H4023 H 0.25179 0.13975 0.4857 0.0
H4024 H 0.1772 0.13894 0.48229 0.0
H4025 H 0.19846 0.08546 0.51911 0.0
H4026 H 0.21302 0.10941 0.51987 0.0
H4027 H 0.21041 0.09046 0.49922 0.0
C4028 C 0.2268 0.16805 0.50838 0.0
C4029 C 0.242 0.1632 0.50092 0.0
C4030 C 0.21031 0.15402 0.50665 0.0
C4031 C 0.20844 0.13477 0.4972 0.0
C4032 C 0.22361 0.1298 0.48967 0.0
H4033 H 0.10306 0.04474 0.47971 0.0
H4034 H 0.13353 0.06216 0.47414 0.0
C4035 C 0.24034 0.14386 0.49173 0.0
C4036 C 0.19036 0.12041 0.49504 0.0
H4037 H 0.16767 0.078 0.50715 0.0
C4038 C 0.1752 0.12552 0.48757 0.0
C4039 C 0.18765 0.10281 0.50185 0.0
C4040 C 0.2032 0.09672 0.51061 0.0
C4041 C 0.15749 0.11405 0.48746 0.0
C4042 C 0.15479 0.09689 0.49483 0.0
C4043 C 0.16987 0.09116 0.50142 0.0
C4044 C 0.13641 0.08609 0.49787 0.0
C4045 C 0.14166 0.12069 0.48013 0.0
C4046 C 0.12804 0.09379 0.51303 0.0
C4047 C 0.11085 0.08382 0.51641 0.0
C4048 C 0.10156 0.06588 0.50465 0.0
C4049 C 0.1099 0.05832 0.48923 0.0
C4050 C 0.12728 0.06827 0.48597 0.0
H4051 H 0.14595 0.1322 0.47179 0.0
H4052 H 0.13136 0.1082 0.47116 0.0
H4053 H 0.13512 0.12668 0.49228 0.0
H4054 H 0.1349 0.10753 0.52236 0.0
H4055 H 0.10492 0.09023 0.52836 0.0
H4056 H 0.18433 0.93721 0.79003 0.0
H4057 H 0.20229 0.91363 0.78854 0.0
H4058 H 0.2355 0.94271 0.75101 0.0
H4059 H 0.21753 0.96699 0.75287 0.0
H4060 H 0.20814 0.8861 0.7653 0.0
H4061 H 0.2765 0.93678 0.78278 0.0
H4062 H 0.25623 0.94519 0.78454 0.0
H4063 H 0.26463 0.94004 0.76194 0.0
C4064 C 0.19549 0.93894 0.78143 0.0
C4065 C 0.19912 0.95466 0.77168 0.0
C4066 C 0.20594 0.92505 0.78054 0.0
C4067 C 0.22094 0.92585 0.76992 0.0
C4068 C 0.22458 0.94144 0.75989 0.0
H4069 H 0.28541 0.83393 0.7469 0.0
H4070 H 0.27069 0.8604 0.74375 0.0
C4071 C 0.21401 0.95549 0.76079 0.0
C4072 C 0.23201 0.91017 0.76935 0.0
H4073 H 0.27528 0.90321 0.77399 0.0
C4074 C 0.22283 0.89014 0.76719 0.0
C4075 C 0.25141 0.91451 0.77188 0.0
C4076 C 0.26281 0.93528 0.77561 0.0
C4077 C 0.23202 0.87508 0.76743 0.0
C4078 C 0.25131 0.87941 0.76984 0.0
C4079 C 0.26059 0.89932 0.77185 0.0
C4080 C 0.26167 0.86365 0.77171 0.0
C4081 C 0.2209 0.8543 0.76511 0.0
C4082 C 0.26216 0.8562 0.78842 0.0
C4083 C 0.2709 0.84128 0.79034 0.0
C4084 C 0.2797 0.83268 0.77568 0.0
C4085 C 0.27929 0.84009 0.75881 0.0
C4086 C 0.27066 0.85536 0.75696 0.0
H4087 H 0.20633 0.85261 0.76073 0.0
H4088 H 0.22615 0.84455 0.75444 0.0
H4089 H 0.22207 0.84948 0.77876 0.0
H4090 H 0.25556 0.86187 0.80018 0.0
H4091 H 0.27054 0.83621 0.80356 0.0
H4092 H 0.34637 0.97081 0.03288 0.0
H4093 H 0.37009 0.99927 0.02945 0.0
H4094 H 0.411 0.97014 0.04173 0.0
H4095 H 0.38763 0.94172 0.04521 0.0
H4096 H 0.41231 0.01929 0.05653 0.0
H4097 H 0.40399 0.98134 0.98107 0.0
H4098 H 0.38536 0.97907 0.99548 0.0
H4099 H 0.40251 0.96656 0.99876 0.0
C4100 C 0.36043 0.9707 0.03544 0.0
C4101 C 0.36517 0.95389 0.03883 0.0
C4102 C 0.37389 0.98693 0.03345 0.0
C4103 C 0.39205 0.98643 0.03506 0.0
C4104 C 0.39691 0.97054 0.04037 0.0
H4105 H 0.49372 0.00961 0.01135 0.0
H4106 H 0.46093 0.99988 0.0116 0.0
C4107 C 0.38355 0.95435 0.04232 0.0
C4108 C 0.40596 1.00104 0.02881 0.0
H4109 H 0.43191 0.005 0.99247 0.0
C4110 C 0.41643 0.01673 0.04239 0.0
C4111 C 0.41098 0.99732 0.01032 0.0
C4112 C 0.4001 0.98021 0.99546 0.0
C4113 C 0.43304 0.02778 0.03852 0.0
C4114 C 0.43886 0.02306 0.02042 0.0
C4115 C 0.42734 0.0086 0.00626 0.0
C4116 C 0.45805 0.02947 0.01737 0.0
C4117 C 0.44492 0.04302 0.05439 0.0
C4118 C 0.46723 0.04928 0.02024 0.0
C4119 C 0.48605 0.05479 0.02057 0.0
C4120 C 0.49558 0.0405 0.01686 0.0
C4121 C 0.48638 0.02076 0.01339 0.0
C4122 C 0.46771 0.01526 0.01356 0.0
H4123 H 0.43923 0.04293 0.06817 0.0
H4124 H 0.45869 0.04067 0.05601 0.0
H4125 H 0.44624 0.05768 0.05111 0.0
H4126 H 0.45996 0.06042 0.02293 0.0
H4127 H 0.49318 0.07012 0.02381 0.0
H4128 H 0.912 0.612 0.79541 0.0
H4129 H 0.89271 0.63182 0.78582 0.0
H4130 H 0.84517 0.58803 0.79276 0.0
H4131 H 0.86442 0.56869 0.80324 0.0
H4132 H 0.86964 0.62095 0.75495 0.0
H4133 H 0.83193 0.63619 0.81643 0.0
H4134 H 0.85171 0.62694 0.81808 0.0
H4135 H 0.82981 0.61062 0.80904 0.0
C4136 C 0.89744 0.60693 0.79536 0.0
C4137 C 0.88961 0.58894 0.80006 0.0
C4138 C 0.88647 0.61819 0.78986 0.0
C4139 C 0.86754 0.61146 0.78874 0.0
C4140 C 0.85975 0.59375 0.79404 0.0
H4141 H 0.77637 0.64185 0.73848 0.0
H4142 H 0.79764 0.62431 0.74875 0.0
C4143 C 0.87074 0.58268 0.79994 0.0
C4144 C 0.85594 0.62191 0.7802 0.0
H4145 H 0.81944 0.64052 0.78672 0.0
C4146 C 0.85879 0.62544 0.76199 0.0
C4147 C 0.8418 0.62768 0.78941 0.0
C4148 C 0.83875 0.62534 0.80939 0.0
C4149 C 0.84759 0.63425 0.75256 0.0
C4150 C 0.83319 0.63949 0.76158 0.0
C4151 C 0.83041 0.63616 0.77982 0.0
C4152 C 0.82109 0.64906 0.75265 0.0
C4153 C 0.851 0.63765 0.73297 0.0
C4154 C 0.82748 0.66853 0.75108 0.0
C4155 C 0.81543 0.67853 0.74525 0.0
C4156 C 0.79683 0.66915 0.74097 0.0
C4157 C 0.79065 0.64932 0.74155 0.0
C4158 C 0.80272 0.63935 0.74749 0.0
H4159 H 0.86065 0.62971 0.7267 0.0
H4160 H 0.83809 0.63304 0.72345 0.0
H4161 H 0.85681 0.65346 0.7337 0.0
H4162 H 0.84163 0.67623 0.75519 0.0
H4163 H 0.82049 0.69381 0.74481 0.0
H4164 H 0.83616 0.66114 0.03236 0.0
H4165 H 0.85963 0.64437 0.03784 0.0
H4166 H 0.87313 0.64461 0.98084 0.0
H4167 H 0.84996 0.66159 0.97532 0.0
H4168 H 0.86211 0.60867 0.01938 0.0
H4169 H 0.92292 0.66542 0.01084 0.0
H4170 H 0.90115 0.67042 0.01376 0.0
H4171 H 0.90566 0.65867 0.99109 0.0
C4172 C 0.84418 0.65771 0.021 0.0
C4173 C 0.84114 0.66276 0.0034 0.0
C4174 C 0.85762 0.64814 0.02417 0.0
C4175 C 0.86842 0.64351 0.00988 0.0
C4176 C 0.86534 0.64843 0.99226 0.0
H4177 H 0.94833 0.57477 0.99938 0.0
H4178 H 0.92857 0.59597 0.99422 0.0
C4179 C 0.85193 0.65801 0.98908 0.0
C4180 C 0.88219 0.63261 0.01308 0.0
H4181 H 0.92727 0.63422 0.01257 0.0
C4182 C 0.87637 0.61434 0.01801 0.0
C4183 C 0.90082 0.63991 0.01114 0.0
C4184 C 0.90808 0.65976 0.00659 0.0
C4185 C 0.88852 0.60307 0.02083 0.0
C4186 C 0.90715 0.61039 0.01902 0.0
C4187 C 0.91301 0.62862 0.01397 0.0
C4188 C 0.92064 0.5993 0.02261 0.0
C4189 C 0.88119 0.58321 0.02534 0.0
C4190 C 0.92332 0.59472 0.04045 0.0
C4191 C 0.93452 0.58262 0.04341 0.0
C4192 C 0.94347 0.57493 0.02863 0.0
C4193 C 0.94164 0.58045 0.01105 0.0
C4194 C 0.93031 0.59252 0.00807 0.0
H4195 H 0.86632 0.57768 0.02134 0.0
H4196 H 0.88792 0.57248 0.01791 0.0
H4197 H 0.88386 0.58418 0.04079 0.0
H4198 H 0.91639 0.60018 0.05203 0.0
H4199 H 0.93593 0.57901 0.05723 0.0
H4200 H 0.17796 0.08692 0.77473 0.0
H4201 H 0.1974 0.11908 0.776 0.0
H4202 H 0.24441 0.09637 0.77787 0.0
H4203 H 0.22457 0.0633 0.77594 0.0
H4204 H 0.22108 0.14322 0.80108 0.0
H4205 H 0.25739 0.12774 0.73838 0.0
H4206 H 0.23816 0.11005 0.74352 0.0
H4207 H 0.26022 0.11382 0.75601 0.0
C4208 C 0.19243 0.08845 0.77535 0.0
C4209 C 0.19946 0.07205 0.7752 0.0
C4210 C 0.20367 0.10718 0.77612 0.0
C4211 C 0.22261 0.11063 0.77683 0.0
C4212 C 0.22988 0.09437 0.77687 0.0
H4213 H 0.30281 0.22655 0.79068 0.0
H4214 H 0.28834 0.19226 0.79075 0.0
C4215 C 0.21848 0.07534 0.77594 0.0
C4216 C 0.23416 0.13135 0.77792 0.0
H4217 H 0.26613 0.16001 0.75631 0.0
C4218 C 0.23093 0.14671 0.79123 0.0
C4219 C 0.24716 0.13644 0.76519 0.0
C4220 C 0.25087 0.12121 0.74984 0.0
C4221 C 0.23993 0.16653 0.79201 0.0
C4222 C 0.25273 0.17158 0.7792 0.0
C4223 C 0.25637 0.15632 0.7662 0.0
C4224 C 0.26187 0.19262 0.77879 0.0
C4225 C 0.23563 0.18206 0.80658 0.0
C4226 C 0.25203 0.20462 0.77205 0.0
C4227 C 0.26043 0.22424 0.77163 0.0
C4228 C 0.27898 0.23272 0.7781 0.0
C4229 C 0.28871 0.22072 0.78517 0.0
C4230 C 0.28036 0.20097 0.78531 0.0
H4231 H 0.22791 0.17585 0.81754 0.0
H4232 H 0.24831 0.19286 0.81363 0.0
H4233 H 0.22737 0.18995 0.79945 0.0
H4234 H 0.23778 0.19874 0.76694 0.0
H4235 H 0.25227 0.23276 0.76614 0.0
H4236 H 0.39165 0.96883 0.25755 0.0
H4237 H 0.36436 0.94301 0.25779 0.0
H4238 H 0.34369 0.98273 0.29701 0.0
H4239 H 0.37085 0.00895 0.2964 0.0
H4240 H 0.3518 0.94826 0.30937 0.0
H4241 H 0.30763 0.92917 0.24164 0.0
H4242 H 0.33137 0.93587 0.23867 0.0
H4243 H 0.32134 0.95364 0.25153 0.0
C4244 C 0.38102 0.97222 0.26571 0.0
C4245 C 0.38335 0.99071 0.2771 0.0
C4246 C 0.3654 0.95756 0.26572 0.0
C4247 C 0.35206 0.96113 0.2773 0.0
C4248 C 0.35379 0.9799 0.2878 0.0
H4249 H 0.28763 0.84318 0.26521 0.0
H4250 H 0.29183 0.8782 0.27525 0.0
C4251 C 0.36929 0.99476 0.28747 0.0
C4252 C 0.33875 0.94427 0.28114 0.0
H4253 H 0.31033 0.90213 0.25636 0.0
C4254 C 0.34216 0.93833 0.29811 0.0
C4255 C 0.32601 0.93164 0.26659 0.0
C4256 C 0.32121 0.93797 0.24863 0.0
C4257 C 0.33489 0.91908 0.29989 0.0
C4258 C 0.32415 0.90562 0.28425 0.0
C4259 C 0.31885 0.91234 0.26827 0.0
C4260 C 0.3208 0.88436 0.28263 0.0
C4261 C 0.33939 0.91315 0.31814 0.0
C4262 C 0.3356 0.87612 0.28359 0.0
C4263 C 0.33299 0.85601 0.27825 0.0
C4264 C 0.31561 0.84394 0.27176 0.0
C4265 C 0.30092 0.85214 0.27074 0.0
C4266 C 0.30337 0.87215 0.27649 0.0
H4267 H 0.3434 0.92588 0.33015 0.0
H4268 H 0.32748 0.90252 0.32135 0.0
H4269 H 0.35085 0.90629 0.31687 0.0
H4270 H 0.3493 0.88527 0.28736 0.0
H4271 H 0.34461 0.84995 0.27853 0.0
H4272 H 0.59774 0.35845 0.55822 0.0
H4273 H 0.59024 0.38628 0.54795 0.0
H4274 H 0.55729 0.39231 0.59375 0.0
H4275 H 0.56463 0.36425 0.60414 0.0
H4276 H 0.55363 0.39329 0.53841 0.0
H4277 H 0.59625 0.44663 0.59953 0.0
H4278 H 0.59919 0.42243 0.59217 0.0
H4279 H 0.58037 0.42586 0.60477 0.0
C4280 C 0.58881 0.36557 0.56613 0.0
C4281 C 0.5819 0.35903 0.58215 0.0
C4282 C 0.58447 0.3815 0.56014 0.0
C4283 C 0.57327 0.39154 0.57007 0.0
C4284 C 0.56606 0.3849 0.58588 0.0
H4285 H 0.55219 0.50402 0.56934 0.0
H4286 H 0.55324 0.47212 0.57518 0.0
C4287 C 0.57025 0.3688 0.59181 0.0
C4288 C 0.56983 0.4094 0.56434 0.0
H4289 H 0.58014 0.45897 0.57825 0.0
C4290 C 0.55934 0.40768 0.54713 0.0
C4291 C 0.57732 0.4282 0.57562 0.0
C4292 C 0.58903 0.43107 0.59401 0.0
C4293 C 0.55575 0.42414 0.5412 0.0
C4294 C 0.56339 0.44306 0.55245 0.0
C4295 C 0.57409 0.44464 0.56954 0.0
C4296 C 0.56026 0.46147 0.54739 0.0
C4297 C 0.54332 0.42091 0.52323 0.0
C4298 C 0.56319 0.4663 0.52952 0.0
C4299 C 0.56189 0.48452 0.52593 0.0
C4300 C 0.55806 0.49844 0.54027 0.0
C4301 C 0.55497 0.49351 0.55794 0.0
C4302 C 0.55571 0.47525 0.56133 0.0
H4303 H 0.53417 0.40592 0.51981 0.0
H4304 H 0.53489 0.43147 0.52429 0.0
H4305 H 0.5516 0.42272 0.51129 0.0
H4306 H 0.56727 0.4564 0.51858 0.0
H4307 H 0.56483 0.4881 0.51233 0.0
H4308 H 0.4422 0.7381 0.40106 0.0
H4309 H 0.41846 0.74338 0.38013 0.0
H4310 H 0.45881 0.78258 0.35649 0.0
H4311 H 0.48282 0.77704 0.37731 0.0
H4312 H 0.41003 0.77763 0.38063 0.0
H4313 H 0.42711 0.75081 0.30891 0.0
H4314 H 0.43708 0.74542 0.32993 0.0
H4315 H 0.44527 0.76887 0.3239 0.0
C4316 C 0.44613 0.74752 0.39111 0.0
C4317 C 0.46453 0.75704 0.39086 0.0
C4318 C 0.43246 0.75061 0.37917 0.0
C4319 C 0.43668 0.76333 0.36657 0.0
C4320 C 0.4551 0.77239 0.36576 0.0
H4321 H 0.36725 0.80319 0.28949 0.0
H4322 H 0.39272 0.79756 0.30789 0.0
C4323 C 0.46888 0.76918 0.37769 0.0
C4324 C 0.42164 0.76799 0.35544 0.0
H4325 H 0.40348 0.76673 0.31059 0.0
C4326 C 0.40861 0.77519 0.36529 0.0
C4327 C 0.41974 0.76505 0.33542 0.0
C4328 C 0.43293 0.75696 0.32386 0.0
C4329 C 0.39394 0.77962 0.35585 0.0
C4330 C 0.39178 0.77626 0.33578 0.0
C4331 C 0.40495 0.76927 0.32592 0.0
C4332 C 0.37606 0.77994 0.32477 0.0
C4333 C 0.38124 0.78837 0.36764 0.0
C4334 C 0.358 0.77189 0.32785 0.0
C4335 C 0.34341 0.77552 0.31762 0.0
C4336 C 0.34644 0.78681 0.30363 0.0
C4337 C 0.36444 0.79451 0.30023 0.0
C4338 C 0.37904 0.79121 0.31073 0.0
H4339 H 0.38796 0.7959 0.38203 0.0
H4340 H 0.3762 0.79897 0.36089 0.0
H4341 H 0.36945 0.77656 0.36936 0.0
H4342 H 0.35512 0.76254 0.33801 0.0
H4343 H 0.32971 0.76901 0.3203 0.0
H4344 H 0.07092 0.74768 0.10462 0.0
H4345 H 0.06645 0.71258 0.09396 0.0
H4346 H 0.07946 0.72148 0.03844 0.0
H4347 H 0.08502 0.75674 0.04945 0.0
H4348 H 0.04456 0.68566 0.06921 0.0
H4349 H 0.11313 0.68963 0.04661 0.0
H4350 H 0.10716 0.71073 0.05914 0.0
H4351 H 0.10064 0.70234 0.03406 0.0
C4352 C 0.0727 0.74215 0.09009 0.0
C4353 C 0.07841 0.75504 0.07792 0.0
C4354 C 0.07022 0.72203 0.084 0.0
C4355 C 0.07311 0.71421 0.06548 0.0
C4356 C 0.07784 0.72703 0.05299 0.0
H4357 H 0.05661 0.59033 0.0113 0.0
H4358 H 0.06321 0.62609 0.01657 0.0
C4359 C 0.08077 0.74721 0.05923 0.0
C4360 C 0.07096 0.69271 0.05943 0.0
H4361 H 0.09236 0.65837 0.04028 0.0
C4362 C 0.05508 0.6798 0.06291 0.0
C4363 C 0.08458 0.6848 0.05106 0.0
C4364 C 0.1024 0.69759 0.04765 0.0
C4365 C 0.05251 0.65947 0.05854 0.0
C4366 C 0.06621 0.65164 0.05048 0.0
C4367 C 0.08187 0.66439 0.04645 0.0
C4368 C 0.06471 0.6303 0.0471 0.0
C4369 C 0.03511 0.64649 0.06266 0.0
C4370 C 0.06415 0.62085 0.06248 0.0
C4371 C 0.06051 0.60055 0.05949 0.0
C4372 C 0.05765 0.58921 0.04108 0.0
C4373 C 0.05912 0.59869 0.02565 0.0
C4374 C 0.06276 0.61912 0.02866 0.0
H4375 H 0.02423 0.65422 0.0642 0.0
H4376 H 0.03025 0.63326 0.05127 0.0
H4377 H 0.03759 0.64175 0.07613 0.0
H4378 H 0.06588 0.62917 0.07683 0.0
H4379 H 0.05933 0.59361 0.07162 0.0
H4380 H 0.0763 0.3118 0.89561 0.0
H4381 H 0.1032 0.31086 0.87936 0.0
H4382 H 0.09087 0.24859 0.87478 0.0
H4383 H 0.06355 0.24937 0.89068 0.0
H4384 H 0.13317 0.30021 0.88886 0.0
H4385 H 0.0989 0.25201 0.82101 0.0
H4386 H 0.08651 0.2625 0.83866 0.0
H4387 H 0.0944 0.24159 0.8415 0.0
C4388 C 0.07916 0.29783 0.89103 0.0
C4389 C 0.06757 0.28063 0.89438 0.0
C4390 C 0.09466 0.29733 0.88176 0.0
C4391 C 0.0991 0.27964 0.87552 0.0
C4392 C 0.08763 0.26241 0.87897 0.0
H4393 H 0.19038 0.2613 0.81051 0.0
H4394 H 0.1662 0.25635 0.83155 0.0
C4395 C 0.072 0.26288 0.88817 0.0
C4396 C 0.11585 0.27955 0.86571 0.0
H4397 H 0.13086 0.26196 0.82407 0.0
C4398 C 0.13261 0.29177 0.87471 0.0
C4399 C 0.11535 0.26844 0.84727 0.0
C4400 C 0.09783 0.25551 0.83644 0.0
C4401 C 0.14863 0.29347 0.86574 0.0
C4402 C 0.14799 0.28286 0.8471 0.0
C4403 C 0.13142 0.27009 0.83835 0.0
C4404 C 0.16391 0.28606 0.83587 0.0
C4405 C 0.16613 0.3067 0.8763 0.0
C4406 C 0.17087 0.3044 0.8314 0.0
C4407 C 0.18453 0.30718 0.81934 0.0
C4408 C 0.19173 0.29174 0.81147 0.0
C4409 C 0.18528 0.27353 0.8165 0.0
C4410 C 0.17137 0.27068 0.82842 0.0
H4411 H 0.16562 0.30907 0.89186 0.0
H4412 H 0.17781 0.30063 0.87285 0.0
H4413 H 0.1685 0.3211 0.87216 0.0
H4414 H 0.16524 0.31645 0.83667 0.0
H4415 H 0.18917 0.32137 0.81574 0.0
H4416 H 0.60628 0.7633 0.9056 0.0
H4417 H 0.60606 0.73278 0.91649 0.0
H4418 H 0.58523 0.75441 0.96781 0.0
H4419 H 0.58526 0.78445 0.9572 0.0
H4420 H 0.61884 0.73176 0.9659 0.0
H4421 H 0.55054 0.69685 0.92617 0.0
H4422 H 0.56831 0.71265 0.9166 0.0
H4423 H 0.55642 0.72288 0.93474 0.0
C4424 C 0.60198 0.76159 0.91933 0.0
C4425 C 0.59558 0.77608 0.93048 0.0
C4426 C 0.60186 0.74424 0.92548 0.0
C4427 C 0.59558 0.74152 0.94287 0.0
C4428 C 0.59013 0.75637 0.95435 0.0
H4429 H 0.57265 0.68478 0.03139 0.0
H4430 H 0.58374 0.70539 0.00901 0.0
C4431 C 0.59008 0.77346 0.94821 0.0
C4432 C 0.59295 0.72283 0.94897 0.0
H4433 H 0.55782 0.68519 0.95353 0.0
C4434 C 0.60576 0.7211 0.96279 0.0
C4435 C 0.57593 0.70901 0.94473 0.0
C4436 C 0.56196 0.71026 0.92968 0.0
C4437 C 0.60138 0.70671 0.97363 0.0
C4438 C 0.58356 0.69431 0.9709 0.0
C4439 C 0.57137 0.69492 0.95584 0.0
C4440 C 0.5768 0.68181 0.98439 0.0
C4441 C 0.61566 0.70542 0.98832 0.0
C4442 C 0.56823 0.66199 0.97782 0.0
C4443 C 0.56135 0.65036 0.99047 0.0
C4444 C 0.56309 0.65825 0.01001 0.0
C4445 C 0.57115 0.67825 0.01648 0.0
C4446 C 0.57782 0.68995 0.00374 0.0
H4447 H 0.62946 0.71025 0.98398 0.0
H4448 H 0.61508 0.71524 0.00185 0.0
H4449 H 0.61357 0.69034 0.99079 0.0
H4450 H 0.56693 0.65551 0.9629 0.0
H4451 H 0.55471 0.63511 0.98492 0.0
H4452 H 0.06327 0.79092 0.68505 0.0
H4453 H 0.09557 0.79556 0.69527 0.0
H4454 H 0.08729 0.7332 0.68614 0.0
H4455 H 0.05529 0.72847 0.67616 0.0
H4456 H 0.10621 0.78077 0.72696 0.0
H4457 H 0.13491 0.75186 0.66302 0.0
H4458 H 0.11455 0.76027 0.66194 0.0
H4459 H 0.11352 0.73613 0.66582 0.0
C4460 C 0.06847 0.77824 0.68494 0.0
C4461 C 0.05679 0.75935 0.68005 0.0
C4462 C 0.08686 0.78091 0.6907 0.0
C4463 C 0.09378 0.7647 0.69116 0.0
C4464 C 0.08226 0.74587 0.6855 0.0
H4465 H 0.17221 0.7191 0.73876 0.0
H4466 H 0.14702 0.72715 0.72218 0.0
C4467 C 0.06394 0.74321 0.68004 0.0
C4468 C 0.11223 0.767 0.70001 0.0
H4469 H 0.14948 0.74978 0.69308 0.0
C4470 C 0.11596 0.77451 0.71953 0.0
C4471 C 0.1248 0.75878 0.69018 0.0
C4472 C 0.12183 0.75148 0.66903 0.0
C4473 C 0.13127 0.7725 0.72981 0.0
C4474 C 0.14319 0.76303 0.72016 0.0
C4475 C 0.14012 0.75677 0.70043 0.0
C4476 C 0.15826 0.75839 0.73045 0.0
C4477 C 0.13392 0.77936 0.75104 0.0
C4478 C 0.1727 0.77331 0.74067 0.0
C4479 C 0.18688 0.76876 0.75036 0.0
C4480 C 0.18699 0.7492 0.74975 0.0
C4481 C 0.17237 0.73427 0.73966 0.0
C4482 C 0.15813 0.73885 0.73003 0.0
H4483 H 0.12169 0.78301 0.7566 0.0
H4484 H 0.13724 0.76803 0.75811 0.0
H4485 H 0.14541 0.79263 0.75493 0.0
H4486 H 0.1731 0.78846 0.74101 0.0
H4487 H 0.19789 0.78059 0.75819 0.0
H4488 H 0.12927 0.38481 0.45636 0.0
H4489 H 0.12748 0.41854 0.4636 0.0
H4490 H 0.11745 0.41751 0.40407 0.0
H4491 H 0.11965 0.38387 0.39669 0.0
H4492 H 0.13495 0.45928 0.44046 0.0
H4493 H 0.06809 0.40561 0.4384 0.0
H4494 H 0.08826 0.40047 0.44798 0.0
H4495 H 0.08476 0.40023 0.42318 0.0
C4496 C 0.12792 0.3922 0.44478 0.0
C4497 C 0.1241 0.38169 0.42602 0.0
C4498 C 0.12693 0.41149 0.44893 0.0
C4499 C 0.12193 0.42022 0.43436 0.0
C4500 C 0.12133 0.41092 0.41546 0.0
H4501 H 0.04312 0.48872 0.45727 0.0
H4502 H 0.0604 0.46826 0.43978 0.0
C4503 C 0.12259 0.39167 0.41127 0.0
C4504 C 0.11174 0.43498 0.43893 0.0
H4505 H 0.06989 0.4384 0.45019 0.0
C4506 C 0.12067 0.45484 0.44234 0.0
C4507 C 0.09307 0.42898 0.44112 0.0
C4508 C 0.08286 0.40769 0.43745 0.0
C4509 C 0.11143 0.46898 0.44862 0.0
C4510 C 0.09301 0.46289 0.4519 0.0
C4511 C 0.08397 0.44303 0.44762 0.0
C4512 C 0.08324 0.47651 0.4615 0.0
C4513 C 0.12151 0.49023 0.45183 0.0
C4514 C 0.09022 0.48763 0.47955 0.0
C4515 C 0.08044 0.49923 0.48947 0.0
C4516 C 0.06326 0.49968 0.48179 0.0
C4517 C 0.05623 0.48852 0.46367 0.0
C4518 C 0.06613 0.47696 0.45363 0.0
H4519 H 0.1325 0.49258 0.44246 0.0
H4520 H 0.11227 0.49942 0.44928 0.0
H4521 H 0.12791 0.49515 0.46668 0.0
H4522 H 0.10316 0.48715 0.48613 0.0
H4523 H 0.08667 0.50821 0.50296 0.0
H4524 H 0.4655 0.2451 0.22135 0.0
H4525 H 0.43878 0.25141 0.23538 0.0
H4526 H 0.43806 0.29518 0.20217 0.0
H4527 H 0.46478 0.28899 0.1879 0.0
H4528 H 0.43015 0.30041 0.24678 0.0
H4529 H 0.38988 0.23578 0.19343 0.0
H4530 H 0.41056 0.23459 0.20594 0.0
H4531 H 0.41157 0.25009 0.18907 0.0
C4532 C 0.45992 0.25638 0.21731 0.0
C4533 C 0.46703 0.26637 0.20331 0.0
C4534 C 0.44473 0.25996 0.22538 0.0
C4535 C 0.43657 0.27359 0.2196 0.0
C4536 C 0.44435 0.28462 0.20672 0.0
H4537 H 0.32721 0.28149 0.21482 0.0
H4538 H 0.35887 0.28286 0.20999 0.0
C4539 C 0.45956 0.28106 0.19861 0.0
C4540 C 0.41879 0.27474 0.22526 0.0
H4541 H 0.37376 0.25303 0.21347 0.0
C4542 C 0.41775 0.29006 0.23966 0.0
C4543 C 0.40288 0.26112 0.21576 0.0
C4544 C 0.4036 0.24443 0.20013 0.0
C4545 C 0.40091 0.29238 0.24466 0.0
C4546 C 0.3849 0.27897 0.23491 0.0
C4547 C 0.38608 0.26339 0.22075 0.0
C4548 C 0.36667 0.28086 0.23873 0.0
C4549 C 0.40039 0.30955 0.25969 0.0
C4550 C 0.36072 0.27947 0.2565 0.0
C4551 C 0.34276 0.27893 0.25929 0.0
C4552 C 0.33055 0.27964 0.24431 0.0
C4553 C 0.33653 0.28116 0.22659 0.0
C4554 C 0.35453 0.28196 0.22386 0.0
H4555 H 0.41375 0.32049 0.26322 0.0
H4556 H 0.39026 0.31668 0.25481 0.0
H4557 H 0.39634 0.30452 0.2728 0.0
H4558 H 0.36971 0.27794 0.26796 0.0
H4559 H 0.33832 0.27711 0.27291 0.0
H4560 H 0.65868 0.49899 0.33373 0.0
H4561 H 0.64723 0.49953 0.36515 0.0
H4562 H 0.60434 0.52315 0.34665 0.0
H4563 H 0.61521 0.52231 0.31582 0.0
H4564 H 0.64252 0.52979 0.39346 0.0
H4565 H 0.57454 0.48055 0.36866 0.0
H4566 H 0.59261 0.4829 0.35364 0.0
H4567 H 0.57945 0.50056 0.35667 0.0
C4568 C 0.64662 0.50396 0.3362 0.0
C4569 C 0.63797 0.5104 0.32165 0.0
C4570 C 0.64007 0.50443 0.3544 0.0
C4571 C 0.6245 0.5111 0.35871 0.0
C4572 C 0.61598 0.51741 0.34411 0.0
H4573 H 0.55644 0.52964 0.45192 0.0
H4574 H 0.57008 0.52513 0.42223 0.0
C4575 C 0.62245 0.517 0.32618 0.0
C4576 C 0.61722 0.51216 0.37822 0.0
H4577 H 0.57818 0.49978 0.39975 0.0
C4578 C 0.62848 0.52301 0.39479 0.0
C4579 C 0.59879 0.50365 0.38053 0.0
C4580 C 0.58569 0.49111 0.36397 0.0
C4581 C 0.62189 0.52621 0.4129 0.0
C4582 C 0.60337 0.51777 0.41523 0.0
C4583 C 0.59227 0.50656 0.39863 0.0
C4584 C 0.59502 0.52067 0.43424 0.0
C4585 C 0.63491 0.53955 0.42911 0.0
C4586 C 0.60386 0.51962 0.45172 0.0
C4587 C 0.59608 0.52274 0.46905 0.0
C4588 C 0.57871 0.52618 0.46968 0.0
C4589 C 0.56962 0.52666 0.45224 0.0
C4590 C 0.57759 0.52411 0.43502 0.0
H4591 H 0.64608 0.5497 0.424 0.0
H4592 H 0.62795 0.54835 0.43882 0.0
H4593 H 0.64118 0.53067 0.43716 0.0
H4594 H 0.61682 0.51617 0.45211 0.0
H4595 H 0.60359 0.5221 0.48201 0.0
H4596 H 0.27823 0.87183 0.06045 0.0
H4597 H 0.2739 0.87082 0.09376 0.0
H4598 H 0.32723 0.9101 0.11106 0.0
H4599 H 0.3313 0.9113 0.07839 0.0
H4600 H 0.30018 0.85446 0.10568 0.0
H4601 H 0.30354 0.9217 0.15801 0.0
H4602 H 0.29554 0.91858 0.13327 0.0
H4603 H 0.31947 0.92563 0.14105 0.0
C4604 C 0.28861 0.88069 0.07158 0.0
C4605 C 0.30536 0.89083 0.06726 0.0
C4606 C 0.28606 0.88043 0.09048 0.0
C4607 C 0.30026 0.8904 0.10481 0.0
C4608 C 0.31596 0.90261 0.10036 0.0
H4609 H 0.36291 0.87278 0.19655 0.0
H4610 H 0.34767 0.88644 0.1738 0.0
C4611 C 0.3185 0.90281 0.08166 0.0
C4612 C 0.30192 0.88297 0.12219 0.0
H4613 H 0.31718 0.89782 0.16908 0.0
C4614 C 0.30322 0.8637 0.11971 0.0
C4615 C 0.30679 0.89544 0.14015 0.0
C4616 C 0.30614 0.91646 0.14328 0.0
C4617 C 0.31039 0.85683 0.13444 0.0
C4618 C 0.31521 0.86922 0.15254 0.0
C4619 C 0.31321 0.8883 0.15525 0.0
C4620 C 0.32323 0.8627 0.1684 0.0
C4621 C 0.31404 0.83693 0.12995 0.0
C4622 C 0.31427 0.84525 0.1733 0.0
C4623 C 0.32326 0.83685 0.18537 0.0
C4624 C 0.34113 0.84629 0.19368 0.0
C4625 C 0.34943 0.86475 0.19003 0.0
C4626 C 0.34061 0.87279 0.1773 0.0
H4627 H 0.31496 0.83227 0.1146 0.0
H4628 H 0.32689 0.83674 0.13784 0.0
H4629 H 0.30273 0.82601 0.13389 0.0
H4630 H 0.30067 0.8375 0.16688 0.0
H4631 H 0.31635 0.8225 0.18733 0.0
H4632 H 0.92651 0.52546 0.85712 0.0
H4633 H 0.94299 0.53255 0.88856 0.0
H4634 H 0.96632 0.59171 0.88299 0.0
H4635 H 0.94972 0.58491 0.85163 0.0
H4636 H 0.98187 0.54542 0.87921 0.0
H4637 H 0.96528 0.59196 0.9426 0.0
H4638 H 0.94766 0.57569 0.92515 0.0
H4639 H 0.96158 0.59725 0.91942 0.0
C4640 C 0.93449 0.54022 0.86292 0.0
C4641 C 0.9376 0.5544 0.85168 0.0
C4642 C 0.94372 0.54429 0.88096 0.0
C4643 C 0.95604 0.56251 0.88775 0.0
C4644 C 0.95681 0.57758 0.87786 0.0
H4645 H 0.04745 0.57893 0.97362 0.0
H4646 H 0.03136 0.58613 0.94638 0.0
C4647 C 0.94747 0.57357 0.85986 0.0
C4648 C 0.97172 0.56349 0.90083 0.0
H4649 H 0.99138 0.58042 0.94614 0.0
C4650 C 0.98408 0.55322 0.89382 0.0
C4651 C 0.97464 0.57412 0.91956 0.0
C4652 C 0.96164 0.58542 0.92729 0.0
C4653 C 0.99887 0.55235 0.90552 0.0
C4654 C 1.00119 0.56194 0.92462 0.0
C4655 C 0.98951 0.57326 0.93135 0.0
C4656 C 0.01314 0.5572 0.93853 0.0
C4657 C 0.01141 0.54044 0.89765 0.0
C4658 C 0.00833 0.53848 0.94253 0.0
C4659 C 0.01718 0.53448 0.95802 0.0
C4660 C 0.03098 0.54914 0.96959 0.0
C4661 C 0.03674 0.56748 0.9648 0.0
C4662 C 0.02763 0.5716 0.94938 0.0
H4663 H 0.01125 0.5391 0.88208 0.0
H4664 H 0.02555 0.54699 0.9044 0.0
H4665 H 0.00685 0.52554 0.90055 0.0
H4666 H 0.99703 0.52729 0.93431 0.0
H4667 H 0.01278 0.52014 0.96134 0.0
H4668 H 0.31227 0.21071 0.57027 0.0
H4669 H 0.3133 0.22186 0.60458 0.0
H4670 H 0.29784 0.27325 0.59539 0.0
H4671 H 0.29662 0.26224 0.56127 0.0
H4672 H 0.3319 0.25717 0.6309 0.0
H4673 H 0.25709 0.2461 0.62387 0.0
H4674 H 0.2688 0.23633 0.60509 0.0
H4675 H 0.26906 0.26168 0.60946 0.0
C4676 C 0.30945 0.22457 0.57557 0.0
C4677 C 0.30414 0.23545 0.563 0.0
C4678 C 0.30997 0.23089 0.59517 0.0
C4679 C 0.3052 0.24814 0.60248 0.0
C4680 C 0.30114 0.25966 0.59003 0.0
H4681 H 0.30295 0.30134 0.72197 0.0
H4682 H 0.30262 0.29705 0.68731 0.0
C4683 C 0.30056 0.25337 0.57051 0.0
C4684 C 0.30351 0.25361 0.62299 0.0
H4685 H 0.27268 0.25944 0.65447 0.0
C4686 C 0.31898 0.25778 0.63604 0.0
C4687 C 0.2866 0.25431 0.62967 0.0
C4688 C 0.26938 0.24922 0.61635 0.0
C4689 C 0.31796 0.26259 0.6556 0.0
C4690 C 0.30107 0.26317 0.66222 0.0
C4691 C 0.28563 0.25922 0.64924 0.0
C4692 C 0.29899 0.26584 0.68266 0.0
C4693 C 0.33484 0.26666 0.6692 0.0
C4694 C 0.29649 0.24965 0.69127 0.0
C4695 C 0.29659 0.25204 0.71084 0.0
C4696 C 0.29899 0.27064 0.72217 0.0
C4697 C 0.30072 0.28681 0.71349 0.0
C4698 C 0.30066 0.2844 0.69378 0.0
H4699 H 0.34722 0.26733 0.6618 0.0
H4700 H 0.33657 0.28067 0.67933 0.0
H4701 H 0.33342 0.25499 0.67753 0.0
H4702 H 0.29517 0.23524 0.68288 0.0
H4703 H 0.29541 0.2394 0.71725 0.0
H4704 H 0.6365 0.48265 0.19851 0.0
H4705 H 0.62373 0.4851 0.16686 0.0
H4706 H 0.62277 0.54421 0.18895 0.0
H4707 H 0.63518 0.54189 0.21994 0.0
H4708 H 0.58966 0.49459 0.15412 0.0
H4709 H 0.64912 0.55038 0.14176 0.0
H4710 H 0.65033 0.53586 0.15943 0.0
H4711 H 0.64098 0.55655 0.16423 0.0
C4712 C 0.63383 0.49626 0.1966 0.0
C4713 C 0.6372 0.51208 0.21227 0.0
C4714 C 0.62628 0.49765 0.17836 0.0
C4715 C 0.62217 0.515 0.17494 0.0
C4716 C 0.6258 0.53068 0.19057 0.0
H4717 H 0.55132 0.53151 0.07663 0.0
H4718 H 0.56303 0.52812 0.10818 0.0
C4719 C 0.63298 0.52924 0.2086 0.0
C4720 C 0.6142 0.5172 0.1555 0.0
H4721 H 0.62209 0.54538 0.12152 0.0
C4722 C 0.59688 0.50565 0.14701 0.0
C4723 C 0.62321 0.53157 0.14568 0.0
C4724 C 0.642 0.54421 0.15309 0.0
C4725 C 0.58852 0.50816 0.12965 0.0
C4726 C 0.59739 0.52288 0.12004 0.0
C4727 C 0.61482 0.53419 0.12847 0.0
C4728 C 0.58966 0.526 0.10081 0.0
C4729 C 0.57031 0.49457 0.12155 0.0
C4730 C 0.6005 0.52702 0.08572 0.0
C4731 C 0.59385 0.52929 0.06777 0.0
C4732 C 0.57601 0.5309 0.06374 0.0
C4733 C 0.56514 0.53048 0.07889 0.0
C4734 C 0.57186 0.52818 0.09706 0.0
H4735 H 0.56755 0.4811 0.12745 0.0
H4736 H 0.55954 0.50203 0.1252 0.0
H4737 H 0.56942 0.49039 0.10591 0.0
H4738 H 0.61421 0.52555 0.08762 0.0
H4739 H 0.6028 0.52942 0.05672 0.0
H4740 H 0.33225 0.86955 0.98313 0.0
H4741 H 0.33748 0.85324 0.95268 0.0
H4742 H 0.31214 0.88992 0.92531 0.0
H4743 H 0.30647 0.90657 0.95639 0.0
H4744 H 0.29769 0.84984 0.91292 0.0
H4745 H 0.37279 0.86891 0.91541 0.0
H4746 H 0.36443 0.86072 0.93597 0.0
H4747 H 0.36098 0.88307 0.93078 0.0
C4748 C 0.32789 0.87438 0.97069 0.0
C4749 C 0.31874 0.88914 0.97195 0.0
C4750 C 0.33116 0.8652 0.95336 0.0
C4751 C 0.32555 0.87076 0.93701 0.0
C4752 C 0.3167 0.88575 0.93805 0.0
H4753 H 0.33609 0.83733 0.82463 0.0
H4754 H 0.34107 0.85071 0.85825 0.0
C4755 C 0.31328 0.895 0.9556 0.0
C4756 C 0.32678 0.85888 0.91888 0.0
H4757 H 0.35634 0.84191 0.89154 0.0
C4758 C 0.31048 0.84817 0.90809 0.0
C4759 C 0.34356 0.85655 0.91319 0.0
C4760 C 0.36144 0.86805 0.92437 0.0
C4761 C 0.31047 0.8354 0.8912 0.0
C4762 C 0.32725 0.83317 0.88537 0.0
C4763 C 0.34356 0.8435 0.89644 0.0
C4764 C 0.32818 0.8235 0.86612 0.0
C4765 C 0.29261 0.82511 0.87934 0.0
C4766 C 0.32009 0.80356 0.85975 0.0
C4767 C 0.3171 0.7958 0.84041 0.0
C4768 C 0.32206 0.80807 0.82752 0.0
C4769 C 0.33175 0.82759 0.83419 0.0
C4770 C 0.33477 0.83525 0.8534 0.0
H4771 H 0.28111 0.83029 0.88506 0.0
H4772 H 0.29325 0.82735 0.86458 0.0
H4773 H 0.28973 0.80922 0.87895 0.0
H4774 H 0.31515 0.79436 0.8696 0.0
H4775 H 0.31014 0.78054 0.83559 0.0
H4776 H 0.92689 0.51144 0.73361 0.0
H4777 H 0.9346 0.50902 0.70109 0.0
H4778 H 0.97336 0.56528 0.71702 0.0
H4779 H 0.96507 0.56818 0.74948 0.0
H4780 H 0.95537 0.55666 0.6788 0.0
H4781 H 0.98439 0.49774 0.6968 0.0
H4782 H 0.96058 0.49413 0.69875 0.0
H4783 H 0.97665 0.51405 0.71437 0.0
C4784 C 0.93686 0.5234 0.73007 0.0
C4785 C 0.94579 0.53976 0.74399 0.0
C4786 C 0.94111 0.52207 0.71153 0.0
C4787 C 0.95474 0.53681 0.70688 0.0
C4788 C 0.96279 0.55379 0.72045 0.0
H4789 H 0.03564 0.53179 0.6339 0.0
H4790 H 0.01636 0.54172 0.6576 0.0
C4791 C 0.9582 0.55534 0.73894 0.0
C4792 C 0.96271 0.53306 0.68905 0.0
H4793 H 0.98753 0.50451 0.66654 0.0
C4794 C 0.96228 0.54518 0.67596 0.0
C4795 C 0.97187 0.51819 0.68565 0.0
C4796 C 0.97358 0.50538 0.69968 0.0
C4797 C 0.971 0.54279 0.65949 0.0
C4798 C 0.98024 0.52805 0.65633 0.0
C4799 C 0.98031 0.51575 0.66917 0.0
C4800 C 0.99117 0.52562 0.64057 0.0
C4801 C 0.9708 0.55623 0.64583 0.0
C4802 C 0.98321 0.51334 0.6233 0.0
C4803 C 0.99416 0.5075 0.60988 0.0
C4804 C 0.01316 0.51368 0.61375 0.0
C4805 C 0.02104 0.52649 0.63083 0.0
C4806 C 0.01009 0.53244 0.64416 0.0
H4807 H 0.96251 0.56662 0.65006 0.0
H4808 H 0.98489 0.56461 0.64501 0.0
H4809 H 0.96531 0.54753 0.63145 0.0
H4810 H 0.96861 0.50765 0.62057 0.0
H4811 H 0.98782 0.49772 0.59671 0.0
H4812 H 0.30393 0.254 0.46502 0.0
H4813 H 0.30911 0.2606 0.4336 0.0
H4814 H 0.31876 0.20397 0.41641 0.0
H4815 H 0.31401 0.1974 0.4482 0.0
H4816 H 0.3413 0.23406 0.40073 0.0
H4817 H 0.26852 0.23265 0.39073 0.0
H4818 H 0.28076 0.24998 0.4112 0.0
H4819 H 0.27807 0.22435 0.41012 0.0
C4820 C 0.30747 0.24305 0.45468 0.0
C4821 C 0.30831 0.22506 0.459 0.0
C4822 C 0.31038 0.24684 0.4367 0.0
C4823 C 0.31386 0.2326 0.42252 0.0
C4824 C 0.31596 0.21512 0.42712 0.0
H4825 H 0.28493 0.23427 0.30534 0.0
H4826 H 0.28937 0.22389 0.33507 0.0
C4827 C 0.31327 0.21139 0.44528 0.0
C4828 C 0.31367 0.23542 0.40266 0.0
H4829 H 0.28661 0.2438 0.36753 0.0
C4830 C 0.32933 0.23605 0.39335 0.0
C4831 C 0.29794 0.23769 0.39295 0.0
C4832 C 0.28031 0.23595 0.40167 0.0
C4833 C 0.32979 0.23937 0.37474 0.0
C4834 C 0.31426 0.24249 0.36535 0.0
C4835 C 0.29855 0.24148 0.37463 0.0
C4836 C 0.3137 0.24694 0.346 0.0
C4837 C 0.3468 0.23922 0.3653 0.0
C4838 C 0.3263 0.26291 0.34175 0.0
C4839 C 0.32402 0.26863 0.32443 0.0
C4840 C 0.30868 0.25903 0.31135 0.0
C4841 C 0.2967 0.24236 0.31519 0.0
C4842 C 0.29921 0.23638 0.33226 0.0
H4843 H 0.35476 0.23043 0.37151 0.0
H4844 H 0.34365 0.23329 0.34985 0.0
H4845 H 0.35549 0.25436 0.36749 0.0
H4846 H 0.3375 0.27151 0.35209 0.0
H4847 H 0.33396 0.28098 0.32162 0.0
H4848 H 0.34119 0.61902 0.49321 0.0
H4849 H 0.3673 0.60606 0.49778 0.0
H4850 H 0.36442 0.61627 0.55802 0.0
H4851 H 0.33805 0.62949 0.55359 0.0
H4852 H 0.40275 0.62395 0.52521 0.0
H4853 H 0.35694 0.55439 0.53568 0.0
H4854 H 0.34831 0.57034 0.52319 0.0
H4855 H 0.35475 0.57754 0.54821 0.0
C4856 C 0.34622 0.6188 0.50749 0.0
C4857 C 0.3375 0.62508 0.52304 0.0
C4858 C 0.36118 0.61148 0.51006 0.0
C4859 C 0.36762 0.61018 0.52819 0.0
C4860 C 0.35952 0.6172 0.54393 0.0
H4861 H 0.4455 0.53888 0.532 0.0
H4862 H 0.42602 0.55983 0.54375 0.0
C4863 C 0.34455 0.62474 0.54137 0.0
C4864 C 0.38177 0.59983 0.52989 0.0
H4865 H 0.38622 0.55374 0.52805 0.0
C4866 C 0.39935 0.60875 0.52637 0.0
C4867 C 0.37714 0.58001 0.53132 0.0
C4868 C 0.35828 0.56986 0.5348 0.0
C4869 C 0.41215 0.59795 0.52308 0.0
C4870 C 0.40706 0.5778 0.52311 0.0
C4871 C 0.38994 0.56921 0.52797 0.0
C4872 C 0.41859 0.56506 0.5162 0.0
C4873 C 0.43075 0.60787 0.51874 0.0
C4874 C 0.42036 0.56079 0.49679 0.0
C4875 C 0.43117 0.54863 0.49003 0.0
C4876 C 0.44046 0.54076 0.50264 0.0
C4877 C 0.43843 0.54482 0.52204 0.0
C4878 C 0.42742 0.55678 0.52876 0.0
H4879 H 0.4339 0.62396 0.52341 0.0
H4880 H 0.44131 0.60248 0.52572 0.0
H4881 H 0.43138 0.60444 0.50323 0.0
H4882 H 0.41343 0.56696 0.48692 0.0
H4883 H 0.43274 0.54587 0.47506 0.0
H4884 H 0.84891 0.94418 0.5525 0.0
H4885 H 0.87773 0.96937 0.55425 0.0
H4886 H 0.90148 0.92622 0.52414 0.0
H4887 H 0.87324 0.90122 0.52253 0.0
H4888 H 0.91759 0.96121 0.56851 0.0
H4889 H 0.90695 0.97841 0.49739 0.0
H4890 H 0.88838 0.97076 0.51099 0.0
H4891 H 0.89931 0.95328 0.49942 0.0
C4892 C 0.86027 0.94016 0.54619 0.0
C4893 C 0.85883 0.9207 0.53749 0.0
C4894 C 0.87669 0.9545 0.54725 0.0
C4895 C 0.89166 0.94955 0.53934 0.0
C4896 C 0.89008 0.93028 0.53036 0.0
H4897 H 0.99729 0.98803 0.50989 0.0
H4898 H 0.9661 0.97296 0.51418 0.0
C4899 C 0.87391 0.91601 0.52951 0.0
C4900 C 0.90929 0.96409 0.54046 0.0
H4901 H 0.93708 0.98824 0.51249 0.0
C4902 C 0.92182 0.96756 0.55649 0.0
C4903 C 0.91472 0.97202 0.52462 0.0
C4904 C 0.90166 0.96859 0.5071 0.0
C4905 C 0.94001 0.97797 0.55671 0.0
C4906 C 0.94563 0.98534 0.54055 0.0
C4907 C 0.9328 0.98258 0.52487 0.0
C4908 C 0.96498 0.99446 0.53885 0.0
C4909 C 0.95323 0.97994 0.57376 0.0
C4910 C 0.97492 0.01149 0.55145 0.0
C4911 C 0.99298 0.02008 0.54918 0.0
C4912 C 1.00131 0.01203 0.53402 0.0
C4913 C 0.99136 0.9948 0.52164 0.0
C4914 C 0.97344 0.98615 0.52403 0.0
H4915 H 0.94762 0.96983 0.58311 0.0
H4916 H 0.96612 0.97702 0.56937 0.0
H4917 H 0.95638 0.99505 0.58213 0.0
H4918 H 0.96865 0.01833 0.56287 0.0
H4919 H 1.00031 0.03312 0.55918 0.0
H4920 H 0.88428 0.10798 0.26293 0.0
H4921 H 0.86617 0.13193 0.26149 0.0
H4922 H 0.91214 0.17824 0.28899 0.0
H4923 H 0.93005 0.1549 0.29012 0.0
H4924 H 0.85372 0.15895 0.28564 0.0
H4925 H 0.90158 0.20218 0.24589 0.0
H4926 H 0.90338 0.1787 0.24963 0.0
H4927 H 0.91267 0.20026 0.26775 0.0
C4928 C 0.89061 0.12325 0.26869 0.0
C4929 C 0.90907 0.12901 0.27649 0.0
C4930 C 0.88011 0.13717 0.26787 0.0
C4931 C 0.88753 0.15758 0.27467 0.0
C4932 C 0.90574 0.16306 0.28294 0.0
H4933 H 0.82537 0.25114 0.29682 0.0
H4934 H 0.83949 0.2243 0.29961 0.0
C4935 C 0.91614 0.14933 0.28372 0.0
C4936 C 0.87679 0.17317 0.27316 0.0
H4937 H 0.87982 0.2173 0.25954 0.0
C4938 C 0.85954 0.17163 0.27984 0.0
C4939 C 0.88366 0.19006 0.26543 0.0
C4940 C 0.90123 0.19285 0.25659 0.0
C4941 C 0.84959 0.18611 0.27939 0.0
C4942 C 0.85682 0.20334 0.27228 0.0
C4943 C 0.87389 0.20462 0.26529 0.0
C4944 C 0.84688 0.21964 0.27093 0.0
C4945 C 0.83103 0.18238 0.28611 0.0
C4946 C 0.84599 0.227 0.25413 0.0
C4947 C 0.83789 0.24246 0.25259 0.0
C4948 C 0.83006 0.2517 0.26768 0.0
C4949 C 0.83076 0.24444 0.2846 0.0
C4950 C 0.83893 0.2288 0.28616 0.0
H4951 H 0.82517 0.16664 0.28581 0.0
H4952 H 0.83208 0.19036 0.30094 0.0
H4953 H 0.82157 0.18753 0.27727 0.0
H4954 H 0.85171 0.22077 0.24193 0.0
H4955 H 0.83794 0.24741 0.23931 0.0
H4956 H 0.73204 0.13799 0.04386 0.0
H4957 H 0.69993 0.12284 0.04446 0.0
H4958 H 0.70645 0.06835 0.01357 0.0
H4959 H 0.73899 0.08339 0.01388 0.0
H4960 H 0.67982 0.11102 0.01103 0.0
H4961 H 0.66995 0.0494 0.04881 0.0
H4962 H 0.69115 0.06796 0.05161 0.0
H4963 H 0.68533 0.04856 0.03105 0.0
C4964 C 0.72669 0.1226 0.03781 0.0
C4965 C 0.73771 0.11176 0.02873 0.0
C4966 C 0.70842 0.11396 0.03817 0.0
C4967 C 0.70083 0.0945 0.02905 0.0
C4968 C 0.71211 0.08327 0.02101 0.0
H4969 H 0.58896 0.03874 0.98403 0.0
H4970 H 0.62151 0.04484 0.99313 0.0
C4971 C 0.73061 0.09185 0.02108 0.0
C4972 C 0.68094 0.08739 0.02515 0.0
H4973 H 0.64404 0.05174 0.03005 0.0
C4974 C 0.67199 0.09824 0.01552 0.0
C4975 C 0.67085 0.07043 0.03055 0.0
C4976 C 0.67978 0.05848 0.04122 0.0
C4977 C 0.65316 0.09289 0.01154 0.0
C4978 C 0.64302 0.07628 0.0174 0.0
C4979 C 0.65192 0.06486 0.02624 0.0
C4980 C 0.62312 0.07077 0.0142 0.0
C4981 C 0.64426 0.10489 1.00084 0.0
C4982 C 0.61334 0.0831 0.02339 0.0
C4983 C 0.59476 0.0795 0.0183 0.0
C4984 C 0.58586 0.06346 0.00412 0.0
C4985 C 0.59556 0.0509 0.99527 0.0
C4986 C 0.61409 0.05437 1.00046 0.0
H4987 H 0.65414 0.1144 0.99367 0.0
H4988 H 0.63326 0.09535 0.99004 0.0
H4989 H 0.63816 0.11435 0.01088 0.0
H4990 H 0.6202 0.09583 0.03407 0.0
H4991 H 0.58749 0.0895 0.02505 0.0
H4992 H 0.24959 0.51979 0.24044 0.0
H4993 H 0.26351 0.49374 0.24449 0.0
H4994 H 0.21172 0.45146 0.22803 0.0
H4995 H 0.19755 0.47757 0.22414 0.0
H4996 H 0.22684 0.456 0.26549 0.0
H4997 H 0.27721 0.44614 0.21516 0.0
H4998 H 0.27815 0.4712 0.22441 0.0
H4999 H 0.2582 0.45575 0.20983 0.0
C5000 C 0.2413 0.50488 0.23692 0.0
C5001 C 0.22249 0.50064 0.23234 0.0
C5002 C 0.2493 0.48999 0.23909 0.0
C5003 C 0.2386 0.47077 0.23643 0.0
C5004 C 0.22013 0.46626 0.23 0.0
H5005 H 0.26593 0.38422 0.29355 0.0
H5006 H 0.24942 0.40216 0.27701 0.0
C5007 C 0.21209 0.48117 0.22792 0.0
C5008 C 0.24582 0.45671 0.24463 0.0
H5009 H 0.28164 0.43674 0.24501 0.0
C5010 C 0.23862 0.4514 0.26085 0.0
C5011 C 0.26124 0.45113 0.23858 0.0
C5012 C 0.26908 0.4562 0.22093 0.0
C5013 C 0.24715 0.44158 0.27197 0.0
C5014 C 0.26298 0.43645 0.26626 0.0
C5015 C 0.26966 0.44098 0.24949 0.0
C5016 C 0.27281 0.42627 0.27736 0.0
C5017 C 0.23961 0.43774 0.29016 0.0
C5018 C 0.29151 0.43381 0.28289 0.0
C5019 C 0.3012 0.42315 0.29169 0.0
C5020 C 0.29221 0.40492 0.29516 0.0
C5021 C 0.27328 0.39809 0.29072 0.0
C5022 C 0.26375 0.40844 0.28149 0.0
H5023 H 0.23149 0.44802 0.29538 0.0
H5024 H 0.23048 0.42279 0.28754 0.0
H5025 H 0.25057 0.43898 0.30146 0.0
H5026 H 0.2987 0.44763 0.27982 0.0
H5027 H 0.31577 0.42868 0.29486 0.0
H5028 H 0.25121 0.40934 0.04823 0.0
H5029 H 0.2254 0.42387 0.04838 0.0
H5030 H 0.242 0.44765 0.99974 0.0
H5031 H 0.26756 0.43299 0.99931 0.0
H5032 H 0.22433 0.46176 0.05264 0.0
H5033 H 0.18889 0.42117 0.9828 0.0
H5034 H 0.20693 0.41408 0.99461 0.0
H5035 H 0.21209 0.43308 0.9812 0.0
C5036 C 0.24933 0.41759 0.03751 0.0
C5037 C 0.26146 0.41987 0.02368 0.0
C5038 C 0.23454 0.42589 0.03761 0.0
C5039 C 0.23148 0.43655 0.02384 0.0
C5040 C 0.24373 0.43906 0.01021 0.0
H5041 H 0.17985 0.5281 0.02366 0.0
H5042 H 0.19902 0.50661 0.02845 0.0
C5043 C 0.25847 0.43077 0.01008 0.0
C5044 C 0.21597 0.44572 0.02402 0.0
H5045 H 0.18066 0.45062 0.99561 0.0
C5046 C 0.21465 0.45912 0.04024 0.0
C5047 C 0.20297 0.44198 0.00807 0.0
C5048 C 0.20264 0.42663 0.99077 0.0
C5049 C 0.20144 0.4697 0.04051 0.0
C5050 C 0.18941 0.46714 0.024 0.0
C5051 C 0.19002 0.45287 0.0082 0.0
C5052 C 0.17719 0.48014 0.0223 0.0
C5053 C 0.20058 0.48363 0.05849 0.0
C5054 C 0.15843 0.4725 0.01696 0.0
C5055 C 0.14736 0.48484 0.01396 0.0
C5056 C 0.15488 0.50505 0.01599 0.0
C5057 C 0.17359 0.51261 0.02174 0.0
C5058 C 0.18458 0.50034 0.02474 0.0
H5059 H 0.20586 0.47907 0.07112 0.0
H5060 H 0.20916 0.49834 0.05812 0.0
H5061 H 0.18649 0.48466 0.0601 0.0
H5062 H 0.1524 0.45695 0.01485 0.0
H5063 H 0.13305 0.47848 0.0094 0.0
H5064 H 0.91995 0.99193 0.24576 0.0
H5065 H 0.90106 0.95986 0.24677 0.0
H5066 H 0.86416 0.98619 0.27796 0.0
H5067 H 0.88341 0.01894 0.27715 0.0
H5068 H 0.89326 0.94491 0.27945 0.0
H5069 H 0.82943 0.9426 0.23711 0.0
H5070 H 0.85059 0.96005 0.23609 0.0
H5071 H 0.83817 0.96334 0.25616 0.0
C5072 C 0.90771 0.99115 0.2527 0.0
C5073 C 0.9034 0.00841 0.26139 0.0
C5074 C 0.89686 0.97255 0.25329 0.0
C5075 C 0.88101 0.97021 0.26242 0.0
C5076 C 0.87615 0.98734 0.27059 0.0
H5077 H 0.80316 0.86059 0.27459 0.0
H5078 H 0.81835 0.89444 0.27401 0.0
C5079 C 0.88719 0.00618 0.27008 0.0
C5080 C 0.87051 0.94985 0.26398 0.0
H5081 H 0.83014 0.91494 0.24979 0.0
C5082 C 0.87942 0.93843 0.27299 0.0
C5083 C 0.85237 0.94112 0.25575 0.0
C5084 C 0.84201 0.95226 0.2456 0.0
C5085 C 0.87088 0.91894 0.27409 0.0
C5086 C 0.85291 0.90986 0.26524 0.0
C5087 C 0.84388 0.92145 0.25649 0.0
C5088 C 0.84329 0.88862 0.26502 0.0
C5089 C 0.88122 0.90858 0.28531 0.0
C5090 C 0.85173 0.87338 0.25982 0.0
C5091 C 0.84299 0.85385 0.26035 0.0
C5092 C 0.82521 0.84863 0.26546 0.0
C5093 C 0.81657 0.86373 0.2701 0.0
C5094 C 0.82542 0.88332 0.26991 0.0
H5095 H 0.89144 0.9191 0.29631 0.0
H5096 H 0.87203 0.89832 0.29239 0.0
H5097 H 0.88865 0.90029 0.27567 0.0
H5098 H 0.86515 0.8765 0.25525 0.0
H5099 H 0.85014 0.84273 0.25655 0.0
H5100 H 0.74282 0.08409 0.77091 0.0
H5101 H 0.76548 0.11574 0.77804 0.0
H5102 H 0.74638 0.12861 0.72568 0.0
H5103 H 0.7235 0.0974 0.71881 0.0
H5104 H 0.78744 0.14739 0.74362 0.0
H5105 H 0.73081 0.15586 0.78689 0.0
H5106 H 0.74156 0.13658 0.78859 0.0
H5107 H 0.72775 0.13558 0.7673 0.0
C5108 C 0.74419 0.09325 0.76047 0.0
C5109 C 0.7314 0.08866 0.74448 0.0
C5110 C 0.75711 0.11126 0.76455 0.0
C5111 C 0.75733 0.12444 0.75246 0.0
C5112 C 0.74636 0.11853 0.73511 0.0
H5113 H 0.75101 0.23906 0.75782 0.0
H5114 H 0.74796 0.20396 0.75444 0.0
C5115 C 0.73328 0.10077 0.73122 0.0
C5116 C 0.76458 0.14547 0.75969 0.0
H5117 H 0.75054 0.1842 0.78182 0.0
C5118 C 0.77972 0.15556 0.75235 0.0
C5119 C 0.75424 0.15587 0.77094 0.0
C5120 C 0.73764 0.14554 0.77892 0.0
C5121 C 0.78423 0.17595 0.75508 0.0
C5122 C 0.7732 0.18629 0.76536 0.0
C5123 C 0.75877 0.17618 0.7737 0.0
C5124 C 0.77546 0.20739 0.76661 0.0
C5125 C 0.80007 0.18606 0.74601 0.0
C5126 C 0.79183 0.22083 0.77456 0.0
C5127 C 0.79366 0.24069 0.77599 0.0
C5128 C 0.77909 0.24748 0.76974 0.0
C5129 C 0.76252 0.23409 0.76233 0.0
C5130 C 0.76079 0.21414 0.7605 0.0
H5131 H 0.8038 0.17594 0.73436 0.0
H5132 H 0.79691 0.19821 0.74032 0.0
H5133 H 0.81202 0.19215 0.75681 0.0
H5134 H 0.80307 0.21601 0.78002 0.0
H5135 H 0.80625 0.25064 0.78273 0.0
loop_
_geom_bond_atom_site_label_1
_geom_bond_atom_site_label_2
_geom_bond_distance
_geom_bond_site_symmetry_2
_ccdc_geom_bond_type
Zn0 O3 2.031 . S
Zn0 O5 2.049 . S
Zn0 O10 2.067 . S
Zn1 O2 1.962 . S
Zn1 O4 1.986 . S
Zn1 O6 1.996 . S
Zn1 O9 1.943 . S
O2 Zn1 1.962 . S
O2 C7 1.254 . S
O3 Zn0 2.031 . S
O3 C7 1.269 . S
O4 Zn1 1.986 . S
O4 C11 1.262 . S
O5 Zn0 2.049 . S
O5 C13 1.260 . S
O6 Zn1 1.996 . S
O6 C13 1.257 . S
C7 O2 1.254 . S
C7 O3 1.269 . S
C8 O9 1.249 . S
C8 O10 1.270 . S
O9 Zn1 1.943 . S
O9 C8 1.249 . S
O10 Zn0 2.067 . S
O10 C8 1.270 . S
C11 O4 1.262 . S
C11 O12 1.232 . S
O12 C11 1.232 . S
C13 O5 1.260 . S
C13 O6 1.257 . S
Zn14 O17 1.975 1_455 S
Zn14 O19 2.106 . S
Zn14 O24 2.082 . S
Zn15 O16 1.950 1_455 S
Zn15 O18 1.991 . S
Zn15 O20 2.006 . S
Zn15 O23 1.945 1_455 S
O16 Zn15 1.950 1_655 S
O16 C21 1.254 . S
O17 Zn14 1.975 1_655 S
O17 C21 1.269 . S
O18 Zn15 1.991 . S
O18 C25 1.262 . S
O19 Zn14 2.106 . S
O19 C27 1.260 . S
O20 Zn15 2.006 . S
O20 C27 1.257 . S
C21 O16 1.254 . S
C21 O17 1.269 . S
C22 O23 1.249 . S
C22 O24 1.270 1_655 S
O23 Zn15 1.945 1_655 S
O23 C22 1.249 . S
O24 Zn14 2.082 . S
O24 C22 1.270 1_455 S
C25 O18 1.262 . S
C25 O26 1.232 1_455 S
O26 C25 1.232 1_655 S
C27 O19 1.260 . S
C27 O20 1.257 . S
Zn28 O31 2.031 . S
Zn28 O33 2.049 . S
Zn28 O38 2.067 . S
Zn29 O30 1.962 . S
Zn29 O32 1.986 . S
Zn29 O34 1.996 . S
Zn29 O37 1.943 . S
O30 Zn29 1.962 . S
O30 C35 1.254 . S
O31 Zn28 2.031 . S
O31 C35 1.269 . S
O32 Zn29 1.986 . S
O32 C39 1.262 . S
O33 Zn28 2.049 . S
O33 C41 1.260 . S
O34 Zn29 1.996 . S
O34 C41 1.257 . S
C35 O30 1.254 . S
C35 O31 1.269 . S
C36 O37 1.249 . S
C36 O38 1.270 . S
O37 Zn29 1.943 . S
O37 C36 1.249 . S
O38 Zn28 2.067 . S
O38 C36 1.270 . S
C39 O32 1.262 . S
C39 O40 1.232 . S
O40 C39 1.232 . S
C41 O33 1.260 . S
C41 O34 1.257 . S
Zn42 O45 2.031 . S
Zn42 O47 2.049 . S
Zn42 O52 2.067 . S
Zn43 O44 1.962 . S
Zn43 O46 1.986 . S
Zn43 O48 1.996 . S
Zn43 O51 1.943 . S
O44 Zn43 1.962 . S
O44 C49 1.254 . S
O45 Zn42 2.031 . S
O45 C49 1.269 . S
O46 Zn43 1.986 . S
O46 C53 1.262 . S
O47 Zn42 2.049 . S
O47 C55 1.260 . S
O48 Zn43 1.996 . S
O48 C55 1.257 . S
C49 O44 1.254 . S
C49 O45 1.269 . S
C50 O51 1.249 . S
C50 O52 1.270 . S
O51 Zn43 1.943 . S
O51 C50 1.249 . S
O52 Zn42 2.067 . S
O52 C50 1.270 . S
C53 O46 1.262 . S
C53 O54 1.232 . S
O54 C53 1.232 . S
C55 O47 1.260 . S
C55 O48 1.257 . S
Zn56 O59 2.031 . S
Zn56 O61 2.049 . S
Zn56 O66 2.067 . S
Zn57 O58 1.962 . S
Zn57 O60 1.986 . S
Zn57 O62 1.996 . S
Zn57 O65 1.943 . S
O58 Zn57 1.962 . S
O58 C63 1.254 . S
O59 Zn56 2.031 . S
O59 C63 1.269 . S
O60 Zn57 1.986 . S
O60 C67 1.262 . S
O61 Zn56 2.049 . S
O61 C69 1.260 . S
O62 Zn57 1.996 . S
O62 C69 1.257 . S
C63 O58 1.254 . S
C63 O59 1.269 . S
C64 O65 1.249 . S
C64 O66 1.270 . S
O65 Zn57 1.943 . S
O65 C64 1.249 . S
O66 Zn56 2.067 . S
O66 C64 1.270 . S
C67 O60 1.262 . S
C67 O68 1.232 . S
O68 C67 1.232 . S
C69 O61 1.260 . S
C69 O62 1.257 . S
Zn70 O73 2.031 . S
Zn70 O75 2.049 . S
Zn70 O80 2.067 . S
Zn71 O72 1.962 . S
Zn71 O74 1.986 . S
Zn71 O76 1.996 . S
Zn71 O79 1.943 . S
O72 Zn71 1.962 . S
O72 C77 1.254 . S
O73 Zn70 2.031 . S
O73 C77 1.269 . S
O74 Zn71 1.986 . S
O74 C81 1.262 . S
O75 Zn70 2.049 . S
O75 C83 1.260 . S
O76 Zn71 1.996 . S
O76 C83 1.257 . S
C77 O72 1.254 . S
C77 O73 1.269 . S
C78 O79 1.249 . S
C78 O80 1.270 . S
O79 Zn71 1.943 . S
O79 C78 1.249 . S
O80 Zn70 2.067 . S
O80 C78 1.270 . S
C81 O74 1.262 . S
C81 O82 1.232 . S
O82 C81 1.232 . S
C83 O75 1.260 . S
C83 O76 1.257 . S
Zn84 O87 2.031 . S
Zn84 O89 2.049 . S
Zn84 O94 2.067 . S
Zn85 O86 1.962 . S
Zn85 O88 1.986 . S
Zn85 O90 1.996 . S
Zn85 O93 1.943 . S
O86 Zn85 1.962 . S
O86 C91 1.254 . S
O87 Zn84 2.031 . S
O87 C91 1.269 . S
O88 Zn85 1.986 . S
O88 C95 1.262 . S
O89 Zn84 2.049 . S
O89 C97 1.260 . S
O90 Zn85 1.996 . S
O90 C97 1.257 . S
C91 O86 1.254 . S
C91 O87 1.269 . S
C92 O93 1.249 . S
C92 O94 1.270 . S
O93 Zn85 1.943 . S
O93 C92 1.249 . S
O94 Zn84 2.067 . S
O94 C92 1.270 . S
C95 O88 1.262 . S
C95 O96 1.232 . S
O96 C95 1.232 . S
C97 O89 1.260 . S
C97 O90 1.257 . S
Zn98 O101 2.031 1_655 S
Zn98 O103 2.049 . S
Zn98 O108 2.067 . S
Zn99 O100 1.962 . S
Zn99 O102 1.986 . S
Zn99 O104 1.996 . S
Zn99 O107 1.943 . S
O100 Zn99 1.962 . S
O100 C105 1.254 . S
O101 Zn98 2.031 1_455 S
O101 C105 1.269 . S
O102 Zn99 1.986 . S
O102 C109 1.262 . S
O103 Zn98 2.049 . S
O103 C111 1.260 1_655 S
O104 Zn99 1.996 . S
O104 C111 1.257 . S
C105 O100 1.254 . S
C105 O101 1.269 . S
C106 O107 1.249 1_655 S
C106 O108 1.270 . S
O107 Zn99 1.943 . S
O107 C106 1.249 1_455 S
O108 Zn98 2.067 . S
O108 C106 1.270 . S
C109 O102 1.262 . S
C109 O110 1.232 . S
O110 C109 1.232 . S
C111 O103 1.260 1_455 S
C111 O104 1.257 . S
Zn112 O115 2.031 . S
Zn112 O117 2.049 . S
Zn112 O122 2.067 1_545 S
Zn113 O114 1.962 . S
Zn113 O116 1.986 . S
Zn113 O118 1.996 . S
Zn113 O121 1.943 . S
O114 Zn113 1.962 . S
O114 C119 1.254 . S
O115 Zn112 2.031 . S
O115 C119 1.269 . S
O116 Zn113 1.986 . S
O116 C123 1.262 . S
O117 Zn112 2.049 . S
O117 C125 1.260 . S
O118 Zn113 1.996 . S
O118 C125 1.257 . S
C119 O114 1.254 . S
C119 O115 1.269 . S
C120 O121 1.249 1_565 S
C120 O122 1.270 . S
O121 Zn113 1.943 . S
O121 C120 1.249 1_545 S
O122 Zn112 2.067 1_565 S
O122 C120 1.270 . S
C123 O116 1.262 . S
C123 O124 1.232 . S
O124 C123 1.232 . S
C125 O117 1.260 . S
C125 O118 1.257 . S
Zn126 O129 2.031 . S
Zn126 O131 2.049 . S
Zn126 O136 2.067 . S
Zn127 O128 1.962 . S
Zn127 O130 1.986 . S
Zn127 O132 1.996 . S
Zn127 O135 1.943 . S
O128 Zn127 1.962 . S
O128 C133 1.254 . S
O129 Zn126 2.031 . S
O129 C133 1.269 . S
O130 Zn127 1.986 . S
O130 C137 1.262 . S
O131 Zn126 2.049 . S
O131 C139 1.260 . S
O132 Zn127 1.996 . S
O132 C139 1.257 . S
C133 O128 1.254 . S
C133 O129 1.269 . S
C134 O135 1.249 . S
C134 O136 1.270 . S
O135 Zn127 1.943 . S
O135 C134 1.249 . S
O136 Zn126 2.067 . S
O136 C134 1.270 . S
C137 O130 1.262 . S
C137 O138 1.232 . S
O138 C137 1.232 . S
C139 O131 1.260 . S
C139 O132 1.257 . S
Zn140 O143 2.031 . S
Zn140 O145 2.049 . S
Zn140 O150 2.067 . S
Zn141 O142 1.962 . S
Zn141 O144 1.986 . S
Zn141 O146 1.996 . S
Zn141 O149 1.943 1_565 S
O142 Zn141 1.962 . S
O142 C147 1.254 1_565 S
O143 Zn140 2.031 . S
O143 C147 1.269 . S
O144 Zn141 1.986 . S
O144 C151 1.262 . S
O145 Zn140 2.049 . S
O145 C153 1.260 1_545 S
O146 Zn141 1.996 . S
O146 C153 1.257 . S
C147 O142 1.254 1_545 S
C147 O143 1.269 . S
C148 O149 1.249 . S
C148 O150 1.270 . S
O149 Zn141 1.943 1_545 S
O149 C148 1.249 . S
O150 Zn140 2.067 . S
O150 C148 1.270 . S
C151 O144 1.262 . S
C151 O152 1.232 . S
O152 C151 1.232 . S
C153 O145 1.260 1_565 S
C153 O146 1.257 . S
Zn154 O157 2.031 1_554 S
Zn154 O159 2.049 . S
Zn154 O164 2.067 . S
Zn155 O156 1.962 1_554 S
Zn155 O158 1.986 . S
Zn155 O160 1.996 . S
Zn155 O163 1.943 . S
O156 Zn155 1.962 1_556 S
O156 C161 1.254 . S
O157 Zn154 2.031 1_556 S
O157 C161 1.269 . S
O158 Zn155 1.986 . S
O158 C165 1.262 . S
O159 Zn154 2.049 . S
O159 C167 1.260 . S
O160 Zn155 1.996 . S
O160 C167 1.257 . S
C161 O156 1.254 . S
C161 O157 1.269 . S
C162 O163 1.249 . S
C162 O164 1.270 . S
O163 Zn155 1.943 . S
O163 C162 1.249 . S
O164 Zn154 2.067 . S
O164 C162 1.270 . S
C165 O158 1.262 . S
C165 O166 1.232 . S
O166 C165 1.232 . S
C167 O159 1.260 . S
C167 O160 1.257 . S
Zn168 O171 2.031 . S
Zn168 O173 2.049 . S
Zn168 O178 2.067 . S
Zn169 O170 1.962 . S
Zn169 O172 1.986 . S
Zn169 O174 1.996 . S
Zn169 O177 1.943 . S
O170 Zn169 1.962 . S
O170 C175 1.254 . S
O171 Zn168 2.031 . S
O171 C175 1.269 . S
O172 Zn169 1.986 . S
O172 C179 1.262 . S
O173 Zn168 2.049 . S
O173 C181 1.260 . S
O174 Zn169 1.996 . S
O174 C181 1.257 . S
C175 O170 1.254 . S
C175 O171 1.269 . S
C176 O177 1.249 . S
C176 O178 1.270 . S
O177 Zn169 1.943 . S
O177 C176 1.249 . S
O178 Zn168 2.067 . S
O178 C176 1.270 . S
C179 O172 1.262 . S
C179 O180 1.232 . S
O180 C179 1.232 . S
C181 O173 1.260 . S
C181 O174 1.257 . S
Zn182 O185 2.031 . S
Zn182 O187 2.049 . S
Zn182 O192 2.067 . S
Zn183 O184 1.962 . S
Zn183 O186 1.986 . S
Zn183 O188 1.996 . S
Zn183 O191 1.943 . S
O184 Zn183 1.962 . S
O184 C189 1.254 1_554 S
O185 Zn182 2.031 . S
O185 C189 1.269 1_554 S
O186 Zn183 1.986 . S
O186 C193 1.262 . S
O187 Zn182 2.049 . S
O187 C195 1.260 . S
O188 Zn183 1.996 . S
O188 C195 1.257 . S
C189 O184 1.254 1_556 S
C189 O185 1.269 1_556 S
C190 O191 1.249 . S
C190 O192 1.270 . S
O191 Zn183 1.943 . S
O191 C190 1.249 . S
O192 Zn182 2.067 . S
O192 C190 1.270 . S
C193 O186 1.262 . S
C193 O194 1.232 . S
O194 C193 1.232 . S
C195 O187 1.260 . S
C195 O188 1.257 . S
Zn196 O199 2.031 . S
Zn196 O201 2.049 . S
Zn196 O206 2.067 . S
Zn197 O198 1.962 . S
Zn197 O200 1.986 . S
Zn197 O202 1.996 . S
Zn197 O205 1.943 . S
O198 Zn197 1.962 . S
O198 C203 1.254 . S
O199 Zn196 2.031 . S
O199 C203 1.269 . S
O200 Zn197 1.986 . S
O200 C207 1.262 . S
O201 Zn196 2.049 . S
O201 C209 1.260 . S
O202 Zn197 1.996 . S
O202 C209 1.257 . S
C203 O198 1.254 . S
C203 O199 1.269 . S
C204 O205 1.249 . S
C204 O206 1.270 . S
O205 Zn197 1.943 . S
O205 C204 1.249 . S
O206 Zn196 2.067 . S
O206 C204 1.270 . S
C207 O200 1.262 . S
C207 O208 1.232 . S
O208 C207 1.232 . S
C209 O201 1.260 . S
C209 O202 1.257 . S
Zn210 O213 2.031 . S
Zn210 O215 2.049 . S
Zn210 O220 2.067 . S
Zn211 O212 1.962 . S
Zn211 O214 1.986 . S
Zn211 O216 1.996 . S
Zn211 O219 1.943 . S
O212 Zn211 1.962 . S
O212 C217 1.254 . S
O213 Zn210 2.031 . S
O213 C217 1.269 . S
O214 Zn211 1.986 . S
O214 C221 1.262 . S
O215 Zn210 2.049 . S
O215 C223 1.260 . S
O216 Zn211 1.996 . S
O216 C223 1.257 . S
C217 O212 1.254 . S
C217 O213 1.269 . S
C218 O219 1.249 . S
C218 O220 1.270 . S
O219 Zn211 1.943 . S
O219 C218 1.249 . S
O220 Zn210 2.067 . S
O220 C218 1.270 . S
C221 O214 1.262 . S
C221 O222 1.232 . S
O222 C221 1.232 . S
C223 O215 1.260 . S
C223 O216 1.257 . S
Zn224 O227 2.031 . S
Zn224 O229 2.049 . S
Zn224 O234 2.067 . S
Zn225 O226 1.962 . S
Zn225 O228 1.986 . S
Zn225 O230 1.996 . S
Zn225 O233 1.943 . S
O226 Zn225 1.962 . S
O226 C231 1.254 . S
O227 Zn224 2.031 . S
O227 C231 1.269 . S
O228 Zn225 1.986 . S
O228 C235 1.262 . S
O229 Zn224 2.049 . S
O229 C237 1.260 . S
O230 Zn225 1.996 . S
O230 C237 1.257 . S
C231 O226 1.254 . S
C231 O227 1.269 . S
C232 O233 1.249 . S
C232 O234 1.270 . S
O233 Zn225 1.943 . S
O233 C232 1.249 . S
O234 Zn224 2.067 . S
O234 C232 1.270 . S
C235 O228 1.262 . S
C235 O236 1.232 . S
O236 C235 1.232 . S
C237 O229 1.260 . S
C237 O230 1.257 . S
Zn238 O241 2.031 . S
Zn238 O243 2.049 . S
Zn238 O248 2.067 . S
Zn239 O240 1.962 . S
Zn239 O242 1.986 . S
Zn239 O244 1.996 . S
Zn239 O247 1.943 . S
O240 Zn239 1.962 . S
O240 C245 1.254 . S
O241 Zn238 2.031 . S
O241 C245 1.269 . S
O242 Zn239 1.986 . S
O242 C249 1.262 . S
O243 Zn238 2.049 . S
O243 C251 1.260 . S
O244 Zn239 1.996 . S
O244 C251 1.257 . S
C245 O240 1.254 . S
C245 O241 1.269 . S
C246 O247 1.249 . S
C246 O248 1.270 . S
O247 Zn239 1.943 . S
O247 C246 1.249 . S
O248 Zn238 2.067 . S
O248 C246 1.270 . S
C249 O242 1.262 . S
C249 O250 1.232 . S
O250 C249 1.232 . S
C251 O243 1.260 . S
C251 O244 1.257 . S
Zn252 O255 2.031 . S
Zn252 O257 2.049 . S
Zn252 O262 2.067 . S
Zn253 O254 1.962 . S
Zn253 O256 1.986 . S
Zn253 O258 1.996 . S
Zn253 O261 1.943 . S
O254 Zn253 1.962 . S
O254 C259 1.254 . S
O255 Zn252 2.031 . S
O255 C259 1.269 . S
O256 Zn253 1.986 . S
O256 C263 1.262 . S
O257 Zn252 2.049 . S
O257 C265 1.260 . S
O258 Zn253 1.996 . S
O258 C265 1.257 . S
C259 O254 1.254 . S
C259 O255 1.269 . S
C260 O261 1.249 . S
C260 O262 1.270 . S
O261 Zn253 1.943 . S
O261 C260 1.249 . S
O262 Zn252 2.067 . S
O262 C260 1.270 . S
C263 O256 1.262 . S
C263 O264 1.232 . S
O264 C263 1.232 . S
C265 O257 1.260 . S
C265 O258 1.257 . S
Zn266 O269 2.031 . S
Zn266 O271 2.049 . S
Zn266 O276 2.067 . S
Zn267 O268 1.962 . S
Zn267 O270 1.986 . S
Zn267 O272 1.996 . S
Zn267 O275 1.943 . S
O268 Zn267 1.962 . S
O268 C273 1.254 . S
O269 Zn266 2.031 . S
O269 C273 1.269 . S
O270 Zn267 1.986 . S
O270 C277 1.262 . S
O271 Zn266 2.049 . S
O271 C279 1.260 . S
O272 Zn267 1.996 . S
O272 C279 1.257 . S
C273 O268 1.254 . S
C273 O269 1.269 . S
C274 O275 1.249 . S
C274 O276 1.270 . S
O275 Zn267 1.943 . S
O275 C274 1.249 . S
O276 Zn266 2.067 . S
O276 C274 1.270 . S
C277 O270 1.262 . S
C277 O278 1.232 . S
O278 C277 1.232 . S
C279 O271 1.260 . S
C279 O272 1.257 . S
Zn280 O283 2.031 1_554 S
Zn280 O285 2.049 . S
Zn280 O290 2.067 . S
Zn281 O282 1.989 . S
Zn281 O284 1.972 1_556 S
Zn281 O286 1.976 1_556 S
Zn281 O289 1.940 . S
O282 Zn281 1.989 . S
O282 C287 1.254 . S
O283 Zn280 2.031 1_556 S
O283 C287 1.269 . S
O284 Zn281 1.972 1_554 S
O284 C291 1.262 1_554 S
O285 Zn280 2.049 . S
O285 C293 1.260 . S
O286 Zn281 1.976 1_554 S
O286 C293 1.257 . S
C287 O282 1.254 . S
C287 O283 1.269 . S
C288 O289 1.249 . S
C288 O290 1.270 1_556 S
O289 Zn281 1.940 . S
O289 C288 1.249 . S
O290 Zn280 2.067 . S
O290 C288 1.270 1_554 S
C291 O284 1.262 1_556 S
C291 O292 1.232 . S
O292 C291 1.232 . S
C293 O285 1.260 . S
C293 O286 1.257 . S
Zn294 O297 2.031 . S
Zn294 O299 2.049 . S
Zn294 O304 2.067 . S
Zn295 O296 1.962 . S
Zn295 O298 1.986 . S
Zn295 O300 1.996 . S
Zn295 O303 1.943 . S
O296 Zn295 1.962 . S
O296 C301 1.254 . S
O297 Zn294 2.031 . S
O297 C301 1.269 . S
O298 Zn295 1.986 . S
O298 C305 1.262 . S
O299 Zn294 2.049 . S
O299 C307 1.260 . S
O300 Zn295 1.996 . S
O300 C307 1.257 . S
C301 O296 1.254 . S
C301 O297 1.269 . S
C302 O303 1.249 . S
C302 O304 1.270 . S
O303 Zn295 1.943 . S
O303 C302 1.249 . S
O304 Zn294 2.067 . S
O304 C302 1.270 . S
C305 O298 1.262 . S
C305 O306 1.232 . S
O306 C305 1.232 . S
C307 O299 1.260 . S
C307 O300 1.257 . S
Zn308 O311 2.031 . S
Zn308 O313 2.049 . S
Zn308 O318 2.067 . S
Zn309 O310 1.962 . S
Zn309 O312 1.986 . S
Zn309 O314 1.996 . S
Zn309 O317 1.943 . S
O310 Zn309 1.962 . S
O310 C315 1.254 . S
O311 Zn308 2.031 . S
O311 C315 1.269 . S
O312 Zn309 1.986 . S
O312 C319 1.262 . S
O313 Zn308 2.049 . S
O313 C321 1.260 . S
O314 Zn309 1.996 . S
O314 C321 1.257 . S
C315 O310 1.254 . S
C315 O311 1.269 . S
C316 O317 1.249 . S
C316 O318 1.270 . S
O317 Zn309 1.943 . S
O317 C316 1.249 . S
O318 Zn308 2.067 . S
O318 C316 1.270 . S
C319 O312 1.262 . S
C319 O320 1.232 . S
O320 C319 1.232 . S
C321 O313 1.260 . S
C321 O314 1.257 . S
Zn322 O325 2.031 . S
Zn322 O327 2.049 . S
Zn322 O332 2.067 . S
Zn323 O324 1.962 . S
Zn323 O326 1.986 . S
Zn323 O328 1.996 . S
Zn323 O331 1.943 . S
O324 Zn323 1.962 . S
O324 C329 1.254 . S
O325 Zn322 2.031 . S
O325 C329 1.269 . S
O326 Zn323 1.986 . S
O326 C333 1.262 . S
O327 Zn322 2.049 . S
O327 C335 1.260 . S
O328 Zn323 1.996 . S
O328 C335 1.257 . S
C329 O324 1.254 . S
C329 O325 1.269 . S
C330 O331 1.249 . S
C330 O332 1.270 . S
O331 Zn323 1.943 . S
O331 C330 1.249 . S
O332 Zn322 2.067 . S
O332 C330 1.270 . S
C333 O326 1.262 . S
C333 O334 1.232 . S
O334 C333 1.232 . S
C335 O327 1.260 . S
C335 O328 1.257 . S
Tb336 N367 2.626 1_545 S
Tb336 N374 2.600 1_544 S
Tb336 O380 2.571 1_554 S
Tb336 O381 2.610 . S
Tb336 O383 2.320 . S
Tb336 O384 2.552 . S
Tb336 O385 2.413 1_455 S
Tb336 O387 2.362 . S
Tb336 O388 2.421 1_554 S
Tb336 C400 2.821 1_454 S
C337 C340 1.432 . S
C337 C341 1.414 . S
C337 N344 1.359 . S
C338 C340 1.417 . S
C338 C342 1.432 . S
C338 C350 1.410 . S
C339 C341 1.444 . S
C339 C342 1.317 . S
C339 H362 0.929 . S
C340 C337 1.432 . S
C340 C338 1.417 . S
C340 N348 1.360 . S
C341 C337 1.414 . S
C341 C339 1.444 . S
C341 C346 1.385 . S
C342 C338 1.432 . S
C342 C339 1.317 . S
C342 H354 0.930 . S
C343 C345 1.392 . S
C343 C346 1.370 . S
C343 H355 0.931 . S
N344 C337 1.359 . S
N344 C345 1.327 . S
N344 Tb347 2.600 . S
C345 C343 1.392 . S
C345 N344 1.327 . S
C345 H352 0.930 . S
C346 C341 1.385 . S
C346 C343 1.370 . S
C346 H365 0.930 . S
Tb347 N344 2.600 . S
Tb347 N348 2.660 . S
Tb347 O381 2.362 . S
Tb347 O382 2.421 . S
Tb347 O386 2.546 . S
Tb347 O387 2.610 . S
Tb347 O389 2.320 . S
Tb347 O390 2.552 . S
Tb347 O391 2.413 . S
Tb347 C411 2.833 . S
N348 C340 1.360 . S
N348 Tb347 2.660 . S
N348 C349 1.305 . S
C349 N348 1.305 . S
C349 C351 1.407 1_554 S
C349 H356 0.930 1_554 S
C350 C338 1.410 . S
C350 C351 1.345 1_554 S
C350 H358 0.916 1_554 S
C351 C349 1.407 1_556 S
C351 C350 1.345 1_556 S
C351 H353 0.930 . S
H352 C345 0.930 . S
H353 C351 0.930 . S
H354 C342 0.930 . S
H355 C343 0.931 . S
H356 C349 0.930 1_556 S
H357 C371 0.930 . S
H358 C350 0.916 1_556 S
H359 C377 0.930 1_545 S
H360 C368 0.926 1_545 S
H361 C375 0.931 . S
H362 C339 0.929 . S
H363 C369 0.930 . S
H364 C402 0.930 . S
H365 C346 0.930 . S
H366 C401 0.929 . S
N367 Tb336 2.626 1_565 S
N367 C368 1.311 . S
N367 C372 1.389 . S
C368 H360 0.926 1_565 S
C368 N367 1.311 . S
C368 C371 1.412 . S
C369 H363 0.930 . S
C369 C370 1.410 . S
C369 C371 1.345 1_655 S
C370 C369 1.410 . S
C370 C372 1.417 1_655 S
C370 C402 1.432 . S
C371 H357 0.930 . S
C371 C368 1.412 . S
C371 C369 1.345 1_455 S
C372 N367 1.389 . S
C372 C370 1.417 1_455 S
C372 C376 1.432 1_554 S
H373 C378 0.930 . S
N374 Tb336 2.600 1_566 S
N374 C376 1.359 . S
N374 C377 1.327 . S
C375 H361 0.931 . S
C375 C377 1.392 . S
C375 C378 1.370 1_455 S
C376 C372 1.432 1_556 S
C376 N374 1.359 . S
C376 C379 1.414 1_455 S
C377 H359 0.930 1_565 S
C377 N374 1.327 . S
C377 C375 1.392 . S
C378 H373 0.930 . S
C378 C375 1.370 1_655 S
C378 C379 1.385 . S
C379 C376 1.414 1_655 S
C379 C378 1.385 . S
C379 C401 1.444 . S
O380 Tb336 2.571 1_556 S
O380 C400 1.270 1_455 S
O381 Tb336 2.610 . S
O381 Tb347 2.362 . S
O381 C392 1.283 . S
O382 Tb347 2.421 . S
O382 C399 1.262 . S
O383 Tb336 2.320 . S
O383 C399 1.260 . S
O384 Tb336 2.552 . S
O384 C392 1.243 . S
O385 Tb336 2.413 1_655 S
O385 C400 1.206 1_554 S
O386 Tb347 2.546 . S
O386 C411 1.251 . S
O387 Tb336 2.362 . S
O387 Tb347 2.610 . S
O387 C403 1.283 . S
O388 Tb336 2.421 1_556 S
O388 C410 1.262 . S
O389 Tb347 2.320 . S
O389 C410 1.260 1_554 S
O390 Tb347 2.552 . S
O390 C403 1.243 . S
O391 Tb347 2.413 . S
O391 C411 1.256 . S
C392 O381 1.283 . S
C392 O384 1.243 . S
C393 C395 1.382 1_556 S
C393 C397 1.393 . S
C393 C400 1.510 . S
C394 C395 1.400 . S
C394 C396 1.384 1_554 S
C395 C393 1.382 1_554 S
C395 C394 1.400 . S
C395 H412 0.930 . S
C396 C394 1.384 1_556 S
C396 C398 1.392 . S
C396 H413 0.931 . S
C397 C393 1.393 . S
C397 C398 1.401 . S
C397 H414 0.930 . S
C398 C396 1.392 . S
C398 C397 1.401 . S
C398 H415 0.930 . S
C399 O382 1.262 . S
C399 O383 1.260 . S
C400 Tb336 2.821 1_656 S
C400 O380 1.270 1_655 S
C400 O385 1.206 1_556 S
C400 C393 1.510 . S
C401 H366 0.929 . S
C401 C379 1.444 . S
C401 C402 1.317 1_556 S
C402 H364 0.930 . S
C402 C370 1.432 . S
C402 C401 1.317 1_554 S
C403 O387 1.283 . S
C403 O390 1.243 . S
C404 C405 1.382 . S
C404 C408 1.393 . S
C404 C411 1.500 . S
C405 C404 1.382 . S
C405 C406 1.400 . S
C405 H416 0.930 . S
C406 C405 1.400 . S
C406 C407 1.384 . S
C407 C406 1.384 . S
C407 C409 1.392 . S
C407 H417 0.931 . S
C408 C404 1.393 . S
C408 C409 1.401 . S
C408 H418 0.930 . S
C409 C407 1.392 . S
C409 C408 1.401 . S
C409 H419 0.930 . S
C410 O388 1.262 . S
C410 O389 1.260 1_556 S
C411 Tb347 2.833 . S
C411 O386 1.251 . S
C411 O391 1.256 . S
C411 C404 1.500 . S
H412 C395 0.930 . S
H413 C396 0.931 . S
H414 C397 0.930 . S
H415 C398 0.930 . S
H416 C405 0.930 . S
H417 C407 0.931 . S
H418 C408 0.930 . S
H419 C409 0.930 . S
Tb420 N451 2.660 . S
Tb420 N458 2.600 . S
Tb420 O464 2.546 . S
Tb420 O465 2.610 . S
Tb420 O467 2.320 . S
Tb420 O468 2.552 . S
Tb420 O469 2.413 . S
Tb420 O471 2.362 . S
Tb420 O472 2.421 . S
Tb420 C484 2.833 . S
C421 C424 1.432 . S
C421 C425 1.414 . S
C421 N428 1.359 . S
C422 C424 1.417 . S
C422 C426 1.432 . S
C422 C434 1.410 . S
C423 C425 1.444 . S
C423 C426 1.317 . S
C423 H446 0.929 . S
C424 C421 1.432 . S
C424 C422 1.417 . S
C424 N432 1.360 . S
C425 C421 1.414 . S
C425 C423 1.444 . S
C425 C430 1.385 . S
C426 C422 1.432 . S
C426 C423 1.317 . S
C426 H438 0.930 . S
C427 C429 1.392 . S
C427 C430 1.370 . S
C427 H439 0.931 . S
N428 C421 1.359 . S
N428 C429 1.327 . S
N428 Tb431 2.600 . S
C429 C427 1.392 . S
C429 N428 1.327 . S
C429 H436 0.930 . S
C430 C425 1.385 . S
C430 C427 1.370 . S
C430 H449 0.930 . S
Tb431 N428 2.600 . S
Tb431 N432 2.660 . S
Tb431 O465 2.362 . S
Tb431 O466 2.421 . S
Tb431 O470 2.546 . S
Tb431 O471 2.610 . S
Tb431 O473 2.320 . S
Tb431 O474 2.552 . S
Tb431 O475 2.413 . S
Tb431 C495 2.833 . S
N432 C424 1.360 . S
N432 Tb431 2.660 . S
N432 C433 1.305 . S
C433 N432 1.305 . S
C433 C435 1.407 . S
C433 H440 0.930 . S
C434 C422 1.410 . S
C434 C435 1.345 . S
C434 H442 0.930 . S
C435 C433 1.407 . S
C435 C434 1.345 . S
C435 H437 0.930 . S
H436 C429 0.930 . S
H437 C435 0.930 . S
H438 C426 0.930 . S
H439 C427 0.931 . S
H440 C433 0.930 . S
H441 C455 0.930 . S
H442 C434 0.930 . S
H443 C461 0.930 . S
H444 C452 0.930 . S
H445 C459 0.931 . S
H446 C423 0.929 . S
H447 C453 0.930 . S
H448 C486 0.930 . S
H449 C430 0.930 . S
H450 C485 0.929 . S
N451 Tb420 2.660 . S
N451 C452 1.305 . S
N451 C456 1.360 . S
C452 H444 0.930 . S
C452 N451 1.305 . S
C452 C455 1.407 . S
C453 H447 0.930 . S
C453 C454 1.410 . S
C453 C455 1.345 . S
C454 C453 1.410 . S
C454 C456 1.417 . S
C454 C486 1.432 . S
C455 H441 0.930 . S
C455 C452 1.407 . S
C455 C453 1.345 . S
C456 N451 1.360 . S
C456 C454 1.417 . S
C456 C460 1.432 . S
H457 C462 0.930 . S
N458 Tb420 2.600 . S
N458 C460 1.359 . S
N458 C461 1.327 . S
C459 H445 0.931 . S
C459 C461 1.392 . S
C459 C462 1.370 . S
C460 C456 1.432 . S
C460 N458 1.359 . S
C460 C463 1.414 . S
C461 H443 0.930 . S
C461 N458 1.327 . S
C461 C459 1.392 . S
C462 H457 0.930 . S
C462 C459 1.370 . S
C462 C463 1.385 . S
C463 C460 1.414 . S
C463 C462 1.385 . S
C463 C485 1.444 . S
O464 Tb420 2.546 . S
O464 C484 1.251 . S
O465 Tb420 2.610 . S
O465 Tb431 2.362 . S
O465 C476 1.283 . S
O466 Tb431 2.421 . S
O466 C483 1.262 . S
O467 Tb420 2.320 . S
O467 C483 1.260 . S
O468 Tb420 2.552 . S
O468 C476 1.243 . S
O469 Tb420 2.413 . S
O469 C484 1.256 . S
O470 Tb431 2.546 . S
O470 C495 1.251 . S
O471 Tb420 2.362 . S
O471 Tb431 2.610 . S
O471 C487 1.283 . S
O472 Tb420 2.421 . S
O472 C494 1.262 . S
O473 Tb431 2.320 . S
O473 C494 1.260 . S
O474 Tb431 2.552 . S
O474 C487 1.243 . S
O475 Tb431 2.413 . S
O475 C495 1.256 . S
C476 O465 1.283 . S
C476 O468 1.243 . S
C477 C479 1.382 . S
C477 C481 1.393 . S
C477 C484 1.500 . S
C478 C479 1.400 . S
C478 C480 1.384 . S
C479 C477 1.382 . S
C479 C478 1.400 . S
C479 H496 0.930 . S
C480 C478 1.384 . S
C480 C482 1.392 . S
C480 H497 0.931 . S
C481 C477 1.393 . S
C481 C482 1.401 . S
C481 H498 0.930 . S
C482 C480 1.392 . S
C482 C481 1.401 . S
C482 H499 0.930 . S
C483 O466 1.262 . S
C483 O467 1.260 . S
C484 Tb420 2.833 . S
C484 O464 1.251 . S
C484 O469 1.256 . S
C484 C477 1.500 . S
C485 H450 0.929 . S
C485 C463 1.444 . S
C485 C486 1.317 . S
C486 H448 0.930 . S
C486 C454 1.432 . S
C486 C485 1.317 . S
C487 O471 1.283 . S
C487 O474 1.243 . S
C488 C489 1.382 . S
C488 C492 1.393 . S
C488 C495 1.500 . S
C489 C488 1.382 . S
C489 C490 1.400 . S
C489 H500 0.930 . S
C490 C489 1.400 . S
C490 C491 1.384 . S
C491 C490 1.384 . S
C491 C493 1.392 . S
C491 H501 0.931 . S
C492 C488 1.393 . S
C492 C493 1.401 . S
C492 H502 0.930 . S
C493 C491 1.392 . S
C493 C492 1.401 . S
C493 H503 0.930 . S
C494 O472 1.262 . S
C494 O473 1.260 . S
C495 Tb431 2.833 . S
C495 O470 1.251 . S
C495 O475 1.256 . S
C495 C488 1.500 . S
H496 C479 0.930 . S
H497 C480 0.931 . S
H498 C481 0.930 . S
H499 C482 0.930 . S
H500 C489 0.930 . S
H501 C491 0.931 . S
H502 C492 0.930 . S
H503 C493 0.930 . S
Tb504 N535 2.660 . S
Tb504 N542 2.600 . S
Tb504 O548 2.546 . S
Tb504 O549 2.610 . S
Tb504 O551 2.320 . S
Tb504 O552 2.552 1_545 S
Tb504 O553 2.413 . S
Tb504 O555 2.362 . S
Tb504 O556 2.421 . S
Tb504 C568 2.833 . S
C505 C508 1.432 . S
C505 C509 1.414 . S
C505 N512 1.359 1_565 S
C506 C508 1.417 . S
C506 C510 1.432 . S
C506 C518 1.410 . S
C507 C509 1.444 . S
C507 C510 1.317 . S
C507 H530 0.929 . S
C508 C505 1.432 . S
C508 C506 1.417 . S
C508 N516 1.360 . S
C509 C505 1.414 . S
C509 C507 1.444 . S
C509 C514 1.385 . S
C510 C506 1.432 . S
C510 C507 1.317 . S
C510 H522 0.930 . S
C511 C513 1.392 . S
C511 C514 1.370 1_545 S
C511 H523 0.931 . S
N512 C505 1.359 1_545 S
N512 C513 1.327 . S
N512 Tb515 2.600 . S
C513 C511 1.392 . S
C513 N512 1.327 . S
C513 H520 0.930 . S
C514 C509 1.385 . S
C514 C511 1.370 1_565 S
C514 H533 0.930 . S
Tb515 N512 2.600 . S
Tb515 N516 2.660 1_545 S
Tb515 O549 2.362 . S
Tb515 O550 2.421 . S
Tb515 O554 2.546 . S
Tb515 O555 2.610 . S
Tb515 O557 2.320 . S
Tb515 O558 2.552 . S
Tb515 O559 2.413 . S
Tb515 C579 2.833 . S
N516 C508 1.360 . S
N516 Tb515 2.660 1_565 S
N516 C517 1.305 . S
C517 N516 1.305 . S
C517 C519 1.407 . S
C517 H524 0.896 1_565 S
C518 C506 1.410 . S
C518 C519 1.345 . S
C518 H526 0.930 . S
C519 C517 1.407 . S
C519 C518 1.345 . S
C519 H521 0.930 . S
H520 C513 0.930 . S
H521 C519 0.930 . S
H522 C510 0.930 . S
H523 C511 0.931 . S
H524 C517 0.896 1_545 S
H525 C539 0.930 . S
H526 C518 0.930 . S
H527 C545 0.930 . S
H528 C536 0.930 . S
H529 C543 0.931 . S
H530 C507 0.929 . S
H531 C537 0.930 . S
H532 C570 0.930 . S
H533 C514 0.930 . S
H534 C569 0.929 . S
N535 Tb504 2.660 . S
N535 C536 1.305 . S
N535 C540 1.360 . S
C536 H528 0.930 . S
C536 N535 1.305 . S
C536 C539 1.407 . S
C537 H531 0.930 . S
C537 C538 1.410 . S
C537 C539 1.345 . S
C538 C537 1.410 . S
C538 C540 1.417 . S
C538 C570 1.432 . S
C539 H525 0.930 . S
C539 C536 1.407 . S
C539 C537 1.345 . S
C540 N535 1.360 . S
C540 C538 1.417 . S
C540 C544 1.432 . S
H541 C546 0.930 . S
N542 Tb504 2.600 . S
N542 C544 1.359 . S
N542 C545 1.327 . S
C543 H529 0.931 . S
C543 C545 1.392 . S
C543 C546 1.370 . S
C544 C540 1.432 . S
C544 N542 1.359 . S
C544 C547 1.414 . S
C545 H527 0.930 . S
C545 N542 1.327 . S
C545 C543 1.392 . S
C546 H541 0.930 . S
C546 C543 1.370 . S
C546 C547 1.385 . S
C547 C544 1.414 . S
C547 C546 1.385 . S
C547 C569 1.444 . S
O548 Tb504 2.546 . S
O548 C568 1.251 . S
O549 Tb504 2.610 . S
O549 Tb515 2.362 . S
O549 C560 1.283 1_545 S
O550 Tb515 2.421 . S
O550 C567 1.262 . S
O551 Tb504 2.320 . S
O551 C567 1.260 . S
O552 Tb504 2.552 1_565 S
O552 C560 1.243 . S
O553 Tb504 2.413 . S
O553 C568 1.256 . S
O554 Tb515 2.546 . S
O554 C579 1.251 . S
O555 Tb504 2.362 . S
O555 Tb515 2.610 . S
O555 C571 1.283 . S
O556 Tb504 2.421 . S
O556 C578 1.262 . S
O557 Tb515 2.320 . S
O557 C578 1.260 . S
O558 Tb515 2.552 . S
O558 C571 1.243 . S
O559 Tb515 2.413 . S
O559 C579 1.256 . S
C560 O549 1.283 1_565 S
C560 O552 1.243 . S
C561 C563 1.382 . S
C561 C565 1.393 . S
C561 C568 1.500 . S
C562 C563 1.400 1_565 S
C562 C564 1.384 . S
C563 C561 1.382 . S
C563 C562 1.400 1_545 S
C563 H580 0.930 . S
C564 C562 1.384 . S
C564 C566 1.392 1_565 S
C564 H581 0.931 . S
C565 C561 1.393 . S
C565 C566 1.401 . S
C565 H582 0.930 . S
C566 C564 1.392 1_545 S
C566 C565 1.401 . S
C566 H583 0.930 . S
C567 O550 1.262 . S
C567 O551 1.260 . S
C568 Tb504 2.833 . S
C568 O548 1.251 . S
C568 O553 1.256 . S
C568 C561 1.500 . S
C569 H534 0.929 . S
C569 C547 1.444 . S
C569 C570 1.317 . S
C570 H532 0.930 . S
C570 C538 1.432 . S
C570 C569 1.317 . S
C571 O555 1.283 . S
C571 O558 1.243 . S
C572 C573 1.382 . S
C572 C576 1.393 . S
C572 C579 1.500 . S
C573 C572 1.382 . S
C573 C574 1.400 . S
C573 H584 0.930 . S
C574 C573 1.400 . S
C574 C575 1.384 . S
C575 C574 1.384 . S
C575 C577 1.392 . S
C575 H585 0.931 . S
C576 C572 1.393 . S
C576 C577 1.401 . S
C576 H586 0.930 . S
C577 C575 1.392 . S
C577 C576 1.401 . S
C577 H587 0.930 . S
C578 O556 1.262 . S
C578 O557 1.260 . S
C579 Tb515 2.833 . S
C579 O554 1.251 . S
C579 O559 1.256 . S
C579 C572 1.500 . S
H580 C563 0.930 . S
H581 C564 0.931 . S
H582 C565 0.930 . S
H583 C566 0.930 . S
H584 C573 0.930 . S
H585 C575 0.931 . S
H586 C576 0.930 . S
H587 C577 0.930 . S
Tb588 N619 2.660 . S
Tb588 N626 2.600 . S
Tb588 O632 2.546 . S
Tb588 O633 2.610 . S
Tb588 O635 2.320 . S
Tb588 O636 2.552 . S
Tb588 O637 2.413 . S
Tb588 O639 2.362 . S
Tb588 O640 2.421 . S
Tb588 C652 2.833 . S
C589 C592 1.432 . S
C589 C593 1.414 . S
C589 N596 1.359 . S
C590 C592 1.417 . S
C590 C594 1.432 . S
C590 C602 1.410 . S
C591 C593 1.444 . S
C591 C594 1.317 . S
C591 H614 0.929 . S
C592 C589 1.432 . S
C592 C590 1.417 . S
C592 N600 1.360 . S
C593 C589 1.414 . S
C593 C591 1.444 . S
C593 C598 1.385 . S
C594 C590 1.432 . S
C594 C591 1.317 . S
C594 H606 0.930 . S
C595 C597 1.392 . S
C595 C598 1.370 . S
C595 H607 0.931 . S
N596 C589 1.359 . S
N596 C597 1.327 . S
N596 Tb599 2.600 . S
C597 C595 1.392 . S
C597 N596 1.327 . S
C597 H604 0.930 . S
C598 C593 1.385 . S
C598 C595 1.370 . S
C598 H617 0.930 . S
Tb599 N596 2.600 . S
Tb599 N600 2.660 . S
Tb599 O633 2.362 . S
Tb599 O634 2.421 . S
Tb599 O638 2.546 . S
Tb599 O639 2.610 . S
Tb599 O641 2.320 . S
Tb599 O642 2.552 . S
Tb599 O643 2.413 . S
Tb599 C663 2.833 . S
N600 C592 1.360 . S
N600 Tb599 2.660 . S
N600 C601 1.305 . S
C601 N600 1.305 . S
C601 C603 1.407 . S
C601 H608 0.930 . S
C602 C590 1.410 . S
C602 C603 1.345 . S
C602 H610 0.930 . S
C603 C601 1.407 . S
C603 C602 1.345 . S
C603 H605 0.930 . S
H604 C597 0.930 . S
H605 C603 0.930 . S
H606 C594 0.930 . S
H607 C595 0.931 . S
H608 C601 0.930 . S
H609 C623 0.930 . S
H610 C602 0.930 . S
H611 C629 0.930 . S
H612 C620 0.930 . S
H613 C627 0.931 . S
H614 C591 0.929 . S
H615 C621 0.930 . S
H616 C654 0.930 . S
H617 C598 0.930 . S
H618 C653 0.929 . S
N619 Tb588 2.660 . S
N619 C620 1.305 . S
N619 C624 1.360 . S
C620 H612 0.930 . S
C620 N619 1.305 . S
C620 C623 1.407 . S
C621 H615 0.930 . S
C621 C622 1.410 . S
C621 C623 1.345 . S
C622 C621 1.410 . S
C622 C624 1.417 . S
C622 C654 1.432 . S
C623 H609 0.930 . S
C623 C620 1.407 . S
C623 C621 1.345 . S
C624 N619 1.360 . S
C624 C622 1.417 . S
C624 C628 1.432 . S
H625 C630 0.930 . S
N626 Tb588 2.600 . S
N626 C628 1.359 . S
N626 C629 1.327 . S
C627 H613 0.931 . S
C627 C629 1.392 . S
C627 C630 1.370 . S
C628 C624 1.432 . S
C628 N626 1.359 . S
C628 C631 1.414 . S
C629 H611 0.930 . S
C629 N626 1.327 . S
C629 C627 1.392 . S
C630 H625 0.930 . S
C630 C627 1.370 . S
C630 C631 1.385 . S
C631 C628 1.414 . S
C631 C630 1.385 . S
C631 C653 1.444 . S
O632 Tb588 2.546 . S
O632 C652 1.251 . S
O633 Tb588 2.610 . S
O633 Tb599 2.362 . S
O633 C644 1.283 . S
O634 Tb599 2.421 . S
O634 C651 1.262 . S
O635 Tb588 2.320 . S
O635 C651 1.260 . S
O636 Tb588 2.552 . S
O636 C644 1.243 . S
O637 Tb588 2.413 . S
O637 C652 1.256 . S
O638 Tb599 2.546 . S
O638 C663 1.251 . S
O639 Tb588 2.362 . S
O639 Tb599 2.610 . S
O639 C655 1.283 . S
O640 Tb588 2.421 . S
O640 C662 1.262 . S
O641 Tb599 2.320 . S
O641 C662 1.260 . S
O642 Tb599 2.552 . S
O642 C655 1.243 . S
O643 Tb599 2.413 . S
O643 C663 1.256 . S
C644 O633 1.283 . S
C644 O636 1.243 . S
C645 C647 1.382 . S
C645 C649 1.393 . S
C645 C652 1.500 . S
C646 C647 1.400 . S
C646 C648 1.384 . S
C647 C645 1.382 . S
C647 C646 1.400 . S
C647 H664 0.930 . S
C648 C646 1.384 . S
C648 C650 1.392 . S
C648 H665 0.931 . S
C649 C645 1.393 . S
C649 C650 1.401 . S
C649 H666 0.930 . S
C650 C648 1.392 . S
C650 C649 1.401 . S
C650 H667 0.930 . S
C651 O634 1.262 . S
C651 O635 1.260 . S
C652 Tb588 2.833 . S
C652 O632 1.251 . S
C652 O637 1.256 . S
C652 C645 1.500 . S
C653 H618 0.929 . S
C653 C631 1.444 . S
C653 C654 1.317 . S
C654 H616 0.930 . S
C654 C622 1.432 . S
C654 C653 1.317 . S
C655 O639 1.283 . S
C655 O642 1.243 . S
C656 C657 1.382 . S
C656 C660 1.393 . S
C656 C663 1.500 . S
C657 C656 1.382 . S
C657 C658 1.400 . S
C657 H668 0.930 . S
C658 C657 1.400 . S
C658 C659 1.384 . S
C659 C658 1.384 . S
C659 C661 1.392 . S
C659 H669 0.931 . S
C660 C656 1.393 . S
C660 C661 1.401 . S
C660 H670 0.930 . S
C661 C659 1.392 . S
C661 C660 1.401 . S
C661 H671 0.930 . S
C662 O640 1.262 . S
C662 O641 1.260 . S
C663 Tb599 2.833 . S
C663 O638 1.251 . S
C663 O643 1.256 . S
C663 C656 1.500 . S
H664 C647 0.930 . S
H665 C648 0.931 . S
H666 C649 0.930 . S
H667 C650 0.930 . S
H668 C657 0.930 . S
H669 C659 0.931 . S
H670 C660 0.930 . S
H671 C661 0.930 . S
Tb672 N703 2.660 . S
Tb672 N710 2.600 . S
Tb672 O716 2.546 . S
Tb672 O717 2.610 . S
Tb672 O719 2.320 . S
Tb672 O720 2.552 . S
Tb672 O721 2.413 . S
Tb672 O723 2.362 . S
Tb672 O724 2.421 . S
Tb672 C736 2.833 . S
C673 C676 1.432 . S
C673 C677 1.414 . S
C673 N680 1.367 . S
C674 C676 1.417 . S
C674 C678 1.432 . S
C674 C686 1.410 . S
C675 C677 1.444 . S
C675 C678 1.317 . S
C675 H698 0.929 . S
C676 C673 1.432 . S
C676 C674 1.417 . S
C676 N684 1.360 . S
C677 C673 1.414 . S
C677 C675 1.444 . S
C677 C682 1.385 . S
C678 C674 1.432 . S
C678 C675 1.317 . S
C678 H690 0.930 . S
C679 C681 1.392 1_565 S
C679 C682 1.370 . S
C679 H691 0.931 . S
N680 C673 1.367 . S
N680 C681 1.333 1_565 S
N680 Tb683 2.591 1_565 S
C681 C679 1.392 1_545 S
C681 N680 1.333 1_545 S
C681 H688 0.930 . S
C682 C677 1.385 . S
C682 C679 1.370 . S
C682 H701 0.930 . S
Tb683 N680 2.591 1_545 S
Tb683 N684 2.660 1_545 S
Tb683 O717 2.362 . S
Tb683 O718 2.421 . S
Tb683 O722 2.546 1_545 S
Tb683 O723 2.610 . S
Tb683 O725 2.320 . S
Tb683 O726 2.552 . S
Tb683 O727 2.413 1_545 S
Tb683 C747 2.833 1_545 S
N684 C676 1.360 . S
N684 Tb683 2.660 1_565 S
N684 C685 1.305 . S
C685 N684 1.305 . S
C685 C687 1.407 . S
C685 H692 0.930 . S
C686 C674 1.410 . S
C686 C687 1.345 . S
C686 H694 0.930 . S
C687 C685 1.407 . S
C687 C686 1.345 . S
C687 H689 0.930 1_455 S
H688 C681 0.930 . S
H689 C687 0.930 1_655 S
H690 C678 0.930 . S
H691 C679 0.931 . S
H692 C685 0.930 . S
H693 C707 0.930 . S
H694 C686 0.930 . S
H695 C713 0.930 . S
H696 C704 0.930 . S
H697 C711 0.931 1_655 S
H698 C675 0.929 . S
H699 C705 0.930 . S
H700 C738 0.930 . S
H701 C682 0.930 . S
H702 C737 0.929 . S
N703 Tb672 2.660 . S
N703 C704 1.305 . S
N703 C708 1.360 . S
C704 H696 0.930 . S
C704 N703 1.305 . S
C704 C707 1.407 . S
C705 H699 0.930 . S
C705 C706 1.410 . S
C705 C707 1.345 . S
C706 C705 1.410 . S
C706 C708 1.417 . S
C706 C738 1.432 . S
C707 H693 0.930 . S
C707 C704 1.407 . S
C707 C705 1.345 . S
C708 N703 1.360 . S
C708 C706 1.417 . S
C708 C712 1.432 . S
H709 C714 0.930 . S
N710 Tb672 2.600 . S
N710 C712 1.359 . S
N710 C713 1.327 . S
C711 H697 0.931 1_455 S
C711 C713 1.392 . S
C711 C714 1.370 . S
C712 C708 1.432 . S
C712 N710 1.359 . S
C712 C715 1.414 . S
C713 H695 0.930 . S
C713 N710 1.327 . S
C713 C711 1.392 . S
C714 H709 0.930 . S
C714 C711 1.370 . S
C714 C715 1.385 . S
C715 C712 1.414 . S
C715 C714 1.385 . S
C715 C737 1.444 . S
O716 Tb672 2.546 . S
O716 C736 1.251 . S
O717 Tb672 2.610 . S
O717 Tb683 2.362 . S
O717 C728 1.283 . S
O718 Tb683 2.421 . S
O718 C735 1.262 . S
O719 Tb672 2.320 . S
O719 C735 1.260 . S
O720 Tb672 2.552 . S
O720 C728 1.243 . S
O721 Tb672 2.413 . S
O721 C736 1.256 . S
O722 Tb683 2.546 1_565 S
O722 C747 1.251 . S
O723 Tb672 2.362 . S
O723 Tb683 2.610 . S
O723 C739 1.283 . S
O724 Tb672 2.421 . S
O724 C746 1.262 . S
O725 Tb683 2.320 . S
O725 C746 1.260 . S
O726 Tb683 2.552 . S
O726 C739 1.243 . S
O727 Tb683 2.413 1_565 S
O727 C747 1.256 . S
C728 O717 1.283 . S
C728 O720 1.243 . S
C729 C731 1.382 . S
C729 C733 1.393 . S
C729 C736 1.500 . S
C730 C731 1.400 . S
C730 C732 1.384 . S
C731 C729 1.382 . S
C731 C730 1.400 . S
C731 H748 0.930 . S
C732 C730 1.384 . S
C732 C734 1.392 . S
C732 H749 0.931 . S
C733 C729 1.393 . S
C733 C734 1.401 . S
C733 H750 0.930 . S
C734 C732 1.392 . S
C734 C733 1.401 . S
C734 H751 0.930 . S
C735 O718 1.262 . S
C735 O719 1.260 . S
C736 Tb672 2.833 . S
C736 O716 1.251 . S
C736 O721 1.256 . S
C736 C729 1.500 . S
C737 H702 0.929 . S
C737 C715 1.444 . S
C737 C738 1.317 . S
C738 H700 0.930 . S
C738 C706 1.432 . S
C738 C737 1.317 . S
C739 O723 1.283 . S
C739 O726 1.243 . S
C740 C741 1.382 . S
C740 C744 1.393 . S
C740 C747 1.500 . S
C741 C740 1.382 . S
C741 C742 1.400 . S
C741 H752 0.930 . S
C742 C741 1.400 . S
C742 C743 1.384 . S
C743 C742 1.384 . S
C743 C745 1.392 . S
C743 H753 0.931 . S
C744 C740 1.393 . S
C744 C745 1.401 . S
C744 H754 0.930 . S
C745 C743 1.392 . S
C745 C744 1.401 . S
C745 H755 0.930 . S
C746 O724 1.262 . S
C746 O725 1.260 . S
C747 Tb683 2.833 1_565 S
C747 O722 1.251 . S
C747 O727 1.256 . S
C747 C740 1.500 . S
H748 C731 0.930 . S
H749 C732 0.931 . S
H750 C733 0.930 . S
H751 C734 0.930 . S
H752 C741 0.930 . S
H753 C743 0.931 . S
H754 C744 0.930 . S
H755 C745 0.930 . S
Tb756 N787 2.660 . S
Tb756 N794 2.600 . S
Tb756 O800 2.546 . S
Tb756 O801 2.610 . S
Tb756 O803 2.320 . S
Tb756 O804 2.552 . S
Tb756 O805 2.413 . S
Tb756 O807 2.362 . S
Tb756 O808 2.421 . S
Tb756 C820 2.833 . S
C757 C760 1.432 . S
C757 C761 1.414 . S
C757 N764 1.359 . S
C758 C760 1.417 . S
C758 C762 1.432 . S
C758 C770 1.410 . S
C759 C761 1.444 . S
C759 C762 1.317 . S
C759 H782 0.929 . S
C760 C757 1.432 . S
C760 C758 1.417 . S
C760 N768 1.360 . S
C761 C757 1.414 . S
C761 C759 1.444 . S
C761 C766 1.385 . S
C762 C758 1.432 . S
C762 C759 1.317 . S
C762 H774 0.930 . S
C763 C765 1.392 . S
C763 C766 1.370 . S
C763 H775 0.931 . S
N764 C757 1.359 . S
N764 C765 1.327 . S
N764 Tb767 2.600 . S
C765 C763 1.392 . S
C765 N764 1.327 . S
C765 H772 0.930 . S
C766 C761 1.385 . S
C766 C763 1.370 . S
C766 H785 0.930 . S
Tb767 N764 2.600 . S
Tb767 N768 2.660 . S
Tb767 O801 2.362 . S
Tb767 O802 2.421 . S
Tb767 O806 2.546 . S
Tb767 O807 2.610 . S
Tb767 O809 2.320 . S
Tb767 O810 2.552 . S
Tb767 O811 2.413 . S
Tb767 C831 2.833 . S
N768 C760 1.360 . S
N768 Tb767 2.660 . S
N768 C769 1.305 . S
C769 N768 1.305 . S
C769 C771 1.407 . S
C769 H776 0.930 . S
C770 C758 1.410 . S
C770 C771 1.345 . S
C770 H778 0.930 . S
C771 C769 1.407 . S
C771 C770 1.345 . S
C771 H773 0.930 . S
H772 C765 0.930 . S
H773 C771 0.930 . S
H774 C762 0.930 . S
H775 C763 0.931 . S
H776 C769 0.930 . S
H777 C791 0.930 . S
H778 C770 0.930 . S
H779 C797 0.930 . S
H780 C788 0.930 . S
H781 C795 0.931 . S
H782 C759 0.929 . S
H783 C789 0.930 . S
H784 C822 0.930 . S
H785 C766 0.930 . S
H786 C821 0.929 . S
N787 Tb756 2.660 . S
N787 C788 1.305 . S
N787 C792 1.360 . S
C788 H780 0.930 . S
C788 N787 1.305 . S
C788 C791 1.407 . S
C789 H783 0.930 . S
C789 C790 1.410 . S
C789 C791 1.345 . S
C790 C789 1.410 . S
C790 C792 1.417 . S
C790 C822 1.432 . S
C791 H777 0.930 . S
C791 C788 1.407 . S
C791 C789 1.345 . S
C792 N787 1.360 . S
C792 C790 1.417 . S
C792 C796 1.432 . S
H793 C798 0.930 . S
N794 Tb756 2.600 . S
N794 C796 1.359 . S
N794 C797 1.327 . S
C795 H781 0.931 . S
C795 C797 1.392 . S
C795 C798 1.370 . S
C796 C792 1.432 . S
C796 N794 1.359 . S
C796 C799 1.414 . S
C797 H779 0.930 . S
C797 N794 1.327 . S
C797 C795 1.392 . S
C798 H793 0.930 . S
C798 C795 1.370 . S
C798 C799 1.385 . S
C799 C796 1.414 . S
C799 C798 1.385 . S
C799 C821 1.444 . S
O800 Tb756 2.546 . S
O800 C820 1.251 . S
O801 Tb756 2.610 . S
O801 Tb767 2.362 . S
O801 C812 1.283 . S
O802 Tb767 2.421 . S
O802 C819 1.262 . S
O803 Tb756 2.320 . S
O803 C819 1.260 . S
O804 Tb756 2.552 . S
O804 C812 1.243 . S
O805 Tb756 2.413 . S
O805 C820 1.256 . S
O806 Tb767 2.546 . S
O806 C831 1.251 . S
O807 Tb756 2.362 . S
O807 Tb767 2.610 . S
O807 C823 1.283 . S
O808 Tb756 2.421 . S
O808 C830 1.262 . S
O809 Tb767 2.320 . S
O809 C830 1.260 . S
O810 Tb767 2.552 . S
O810 C823 1.243 . S
O811 Tb767 2.413 . S
O811 C831 1.256 . S
C812 O801 1.283 . S
C812 O804 1.243 . S
C813 C815 1.382 . S
C813 C817 1.393 . S
C813 C820 1.500 . S
C814 C815 1.400 . S
C814 C816 1.384 . S
C815 C813 1.382 . S
C815 C814 1.400 . S
C815 H832 0.930 . S
C816 C814 1.384 . S
C816 C818 1.392 . S
C816 H833 0.931 . S
C817 C813 1.393 . S
C817 C818 1.401 . S
C817 H834 0.930 . S
C818 C816 1.392 . S
C818 C817 1.401 . S
C818 H835 0.930 . S
C819 O802 1.262 . S
C819 O803 1.260 . S
C820 Tb756 2.833 . S
C820 O800 1.251 . S
C820 O805 1.256 . S
C820 C813 1.500 . S
C821 H786 0.929 . S
C821 C799 1.444 . S
C821 C822 1.317 . S
C822 H784 0.930 . S
C822 C790 1.432 . S
C822 C821 1.317 . S
C823 O807 1.283 . S
C823 O810 1.243 . S
C824 C825 1.382 . S
C824 C828 1.393 . S
C824 C831 1.500 . S
C825 C824 1.382 . S
C825 C826 1.400 . S
C825 H836 0.930 . S
C826 C825 1.400 . S
C826 C827 1.384 . S
C827 C826 1.384 . S
C827 C829 1.392 . S
C827 H837 0.931 . S
C828 C824 1.393 . S
C828 C829 1.401 . S
C828 H838 0.930 . S
C829 C827 1.392 . S
C829 C828 1.401 . S
C829 H839 0.930 . S
C830 O808 1.262 . S
C830 O809 1.260 . S
C831 Tb767 2.833 . S
C831 O806 1.251 . S
C831 O811 1.256 . S
C831 C824 1.500 . S
H832 C815 0.930 . S
H833 C816 0.931 . S
H834 C817 0.930 . S
H835 C818 0.930 . S
H836 C825 0.930 . S
H837 C827 0.931 . S
H838 C828 0.930 . S
H839 C829 0.930 . S
Tb840 N871 2.660 . S
Tb840 N878 2.600 . S
Tb840 O884 2.546 . S
Tb840 O885 2.610 . S
Tb840 O887 2.320 . S
Tb840 O888 2.552 . S
Tb840 O889 2.413 . S
Tb840 O891 2.362 . S
Tb840 O892 2.421 . S
Tb840 C904 2.833 . S
C841 C844 1.432 . S
C841 C845 1.414 . S
C841 N848 1.359 . S
C842 C844 1.417 . S
C842 C846 1.432 . S
C842 C854 1.346 1_545 S
C843 C845 1.444 . S
C843 C846 1.317 . S
C843 H866 0.929 . S
C844 C841 1.432 . S
C844 C842 1.417 . S
C844 N852 1.360 . S
C845 C841 1.414 . S
C845 C843 1.444 . S
C845 C850 1.385 . S
C846 C842 1.432 . S
C846 C843 1.317 . S
C846 H858 0.930 . S
C847 C849 1.392 . S
C847 C850 1.370 . S
C847 H859 0.931 . S
N848 C841 1.359 . S
N848 C849 1.327 . S
N848 Tb851 2.600 . S
C849 C847 1.392 . S
C849 N848 1.327 . S
C849 H856 0.930 . S
C850 C845 1.385 . S
C850 C847 1.370 . S
C850 H869 0.930 . S
Tb851 N848 2.600 . S
Tb851 N852 2.660 . S
Tb851 O885 2.362 1_556 S
Tb851 O886 2.421 1_556 S
Tb851 O890 2.546 . S
Tb851 O891 2.610 1_556 S
Tb851 O893 2.320 . S
Tb851 O894 2.552 . S
Tb851 O895 2.413 . S
Tb851 C915 2.833 . S
N852 C844 1.360 . S
N852 Tb851 2.660 . S
N852 C853 1.305 . S
C853 N852 1.305 . S
C853 C855 1.407 1_545 S
C853 H860 0.930 . S
C854 C842 1.346 1_565 S
C854 C855 1.385 . S
C854 H862 0.956 . S
C855 C853 1.407 1_565 S
C855 C854 1.385 . S
C855 H857 0.930 . S
H856 C849 0.930 . S
H857 C855 0.930 . S
H858 C846 0.930 . S
H859 C847 0.931 . S
H860 C853 0.930 . S
H861 C875 0.930 . S
H862 C854 0.956 . S
H863 C881 0.930 1_565 S
H864 C872 0.930 . S
H865 C879 0.931 . S
H866 C843 0.929 . S
H867 C873 0.930 . S
H868 C906 0.930 . S
H869 C850 0.930 . S
H870 C905 0.929 . S
N871 Tb840 2.660 . S
N871 C872 1.305 . S
N871 C876 1.360 . S
C872 H864 0.930 . S
C872 N871 1.305 . S
C872 C875 1.407 . S
C873 H867 0.930 . S
C873 C874 1.410 . S
C873 C875 1.345 . S
C874 C873 1.410 . S
C874 C876 1.417 . S
C874 C906 1.432 . S
C875 H861 0.930 . S
C875 C872 1.407 . S
C875 C873 1.345 . S
C876 N871 1.360 . S
C876 C874 1.417 . S
C876 C880 1.432 . S
H877 C882 0.930 . S
N878 Tb840 2.600 . S
N878 C880 1.359 . S
N878 C881 1.327 . S
C879 H865 0.931 . S
C879 C881 1.392 1_565 S
C879 C882 1.370 1_565 S
C880 C876 1.432 . S
C880 N878 1.359 . S
C880 C883 1.414 . S
C881 H863 0.930 1_545 S
C881 N878 1.327 . S
C881 C879 1.392 1_545 S
C882 H877 0.930 . S
C882 C879 1.370 1_545 S
C882 C883 1.385 . S
C883 C880 1.414 . S
C883 C882 1.385 . S
C883 C905 1.444 . S
O884 Tb840 2.546 . S
O884 C904 1.251 . S
O885 Tb840 2.610 . S
O885 Tb851 2.362 1_554 S
O885 C896 1.283 . S
O886 Tb851 2.421 1_554 S
O886 C903 1.262 . S
O887 Tb840 2.320 . S
O887 C903 1.260 . S
O888 Tb840 2.552 . S
O888 C896 1.243 . S
O889 Tb840 2.413 . S
O889 C904 1.256 . S
O890 Tb851 2.546 . S
O890 C915 1.251 . S
O891 Tb840 2.362 . S
O891 Tb851 2.610 1_554 S
O891 C907 1.283 . S
O892 Tb840 2.421 . S
O892 C914 1.262 1_554 S
O893 Tb851 2.320 . S
O893 C914 1.260 . S
O894 Tb851 2.552 . S
O894 C907 1.243 1_556 S
O895 Tb851 2.413 . S
O895 C915 1.256 . S
C896 O885 1.283 . S
C896 O888 1.243 . S
C897 C899 1.382 . S
C897 C901 1.393 . S
C897 C904 1.500 . S
C898 C899 1.400 . S
C898 C900 1.384 . S
C899 C897 1.382 . S
C899 C898 1.400 . S
C899 H916 0.930 . S
C900 C898 1.384 . S
C900 C902 1.392 . S
C900 H917 0.931 . S
C901 C897 1.393 . S
C901 C902 1.401 . S
C901 H918 0.930 1_545 S
C902 C900 1.392 . S
C902 C901 1.401 . S
C902 H919 0.930 1_545 S
C903 O886 1.262 . S
C903 O887 1.260 . S
C904 Tb840 2.833 . S
C904 O884 1.251 . S
C904 O889 1.256 . S
C904 C897 1.500 . S
C905 H870 0.929 . S
C905 C883 1.444 . S
C905 C906 1.317 . S
C906 H868 0.930 . S
C906 C874 1.432 . S
C906 C905 1.317 . S
C907 O891 1.283 . S
C907 O894 1.243 1_554 S
C908 C909 1.382 . S
C908 C912 1.393 . S
C908 C915 1.500 . S
C909 C908 1.382 . S
C909 C910 1.400 . S
C909 H920 0.930 . S
C910 C909 1.400 . S
C910 C911 1.384 . S
C911 C910 1.384 . S
C911 C913 1.392 . S
C911 H921 0.931 . S
C912 C908 1.393 . S
C912 C913 1.401 . S
C912 H922 0.930 . S
C913 C911 1.392 . S
C913 C912 1.401 . S
C913 H923 0.930 . S
C914 O892 1.262 1_556 S
C914 O893 1.260 . S
C915 Tb851 2.833 . S
C915 O890 1.251 . S
C915 O895 1.256 . S
C915 C908 1.500 . S
H916 C899 0.930 . S
H917 C900 0.931 . S
H918 C901 0.930 1_565 S
H919 C902 0.930 1_565 S
H920 C909 0.930 . S
H921 C911 0.931 . S
H922 C912 0.930 . S
H923 C913 0.930 . S
Tb924 N955 2.660 . S
Tb924 N962 2.600 . S
Tb924 O968 2.546 . S
Tb924 O969 2.610 . S
Tb924 O971 2.320 . S
Tb924 O972 2.552 . S
Tb924 O973 2.413 . S
Tb924 O975 2.362 . S
Tb924 O976 2.421 . S
Tb924 C988 2.833 . S
C925 C928 1.432 . S
C925 C929 1.414 . S
C925 N932 1.359 . S
C926 C928 1.417 . S
C926 C930 1.432 . S
C926 C938 1.410 . S
C927 C929 1.444 . S
C927 C930 1.317 . S
C927 H950 0.929 . S
C928 C925 1.432 . S
C928 C926 1.417 . S
C928 N936 1.360 . S
C929 C925 1.414 . S
C929 C927 1.444 . S
C929 C934 1.385 . S
C930 C926 1.432 . S
C930 C927 1.317 . S
C930 H942 0.930 . S
C931 C933 1.392 . S
C931 C934 1.370 . S
C931 H943 0.931 . S
N932 C925 1.359 . S
N932 C933 1.327 . S
N932 Tb935 2.600 . S
C933 C931 1.392 . S
C933 N932 1.327 . S
C933 H940 0.930 . S
C934 C929 1.385 . S
C934 C931 1.370 . S
C934 H953 0.930 . S
Tb935 N932 2.600 . S
Tb935 N936 2.660 . S
Tb935 O969 2.362 . S
Tb935 O970 2.421 . S
Tb935 O974 2.546 . S
Tb935 O975 2.610 . S
Tb935 O977 2.320 . S
Tb935 O978 2.552 . S
Tb935 O979 2.413 . S
Tb935 C999 2.833 . S
N936 C928 1.360 . S
N936 Tb935 2.660 . S
N936 C937 1.305 . S
C937 N936 1.305 . S
C937 C939 1.407 . S
C937 H944 0.930 . S
C938 C926 1.410 . S
C938 C939 1.345 . S
C938 H946 0.930 . S
C939 C937 1.407 . S
C939 C938 1.345 . S
C939 H941 0.930 . S
H940 C933 0.930 . S
H941 C939 0.930 . S
H942 C930 0.930 . S
H943 C931 0.931 . S
H944 C937 0.930 . S
H945 C959 0.930 . S
H946 C938 0.930 . S
H947 C965 0.930 . S
H948 C956 0.930 . S
H949 C963 0.931 . S
H950 C927 0.929 . S
H951 C957 0.930 . S
H952 C990 0.930 . S
H953 C934 0.930 . S
H954 C989 0.929 . S
N955 Tb924 2.660 . S
N955 C956 1.305 . S
N955 C960 1.360 . S
C956 H948 0.930 . S
C956 N955 1.305 . S
C956 C959 1.407 . S
C957 H951 0.930 . S
C957 C958 1.410 . S
C957 C959 1.345 . S
C958 C957 1.410 . S
C958 C960 1.417 . S
C958 C990 1.432 . S
C959 H945 0.930 . S
C959 C956 1.407 . S
C959 C957 1.345 . S
C960 N955 1.360 . S
C960 C958 1.417 . S
C960 C964 1.432 . S
H961 C966 0.930 . S
N962 Tb924 2.600 . S
N962 C964 1.359 . S
N962 C965 1.327 . S
C963 H949 0.931 . S
C963 C965 1.392 . S
C963 C966 1.370 . S
C964 C960 1.432 . S
C964 N962 1.359 . S
C964 C967 1.414 . S
C965 H947 0.930 . S
C965 N962 1.327 . S
C965 C963 1.392 . S
C966 H961 0.930 . S
C966 C963 1.370 . S
C966 C967 1.385 . S
C967 C964 1.414 . S
C967 C966 1.385 . S
C967 C989 1.444 . S
O968 Tb924 2.546 . S
O968 C988 1.251 . S
O969 Tb924 2.610 . S
O969 Tb935 2.362 . S
O969 C980 1.283 . S
O970 Tb935 2.421 . S
O970 C987 1.262 . S
O971 Tb924 2.320 . S
O971 C987 1.260 . S
O972 Tb924 2.552 . S
O972 C980 1.243 . S
O973 Tb924 2.413 . S
O973 C988 1.256 . S
O974 Tb935 2.546 . S
O974 C999 1.251 . S
O975 Tb924 2.362 . S
O975 Tb935 2.610 . S
O975 C991 1.283 . S
O976 Tb924 2.421 . S
O976 C998 1.262 . S
O977 Tb935 2.320 . S
O977 C998 1.260 . S
O978 Tb935 2.552 . S
O978 C991 1.243 . S
O979 Tb935 2.413 . S
O979 C999 1.256 . S
C980 O969 1.283 . S
C980 O972 1.243 . S
C981 C983 1.382 . S
C981 C985 1.393 . S
C981 C988 1.500 . S
C982 C983 1.400 . S
C982 C984 1.384 . S
C983 C981 1.382 . S
C983 C982 1.400 . S
C983 H1000 0.930 . S
C984 C982 1.384 . S
C984 C986 1.392 . S
C984 H1001 0.931 . S
C985 C981 1.393 . S
C985 C986 1.401 . S
C985 H1002 0.930 . S
C986 C984 1.392 . S
C986 C985 1.401 . S
C986 H1003 0.930 . S
C987 O970 1.262 . S
C987 O971 1.260 . S
C988 Tb924 2.833 . S
C988 O968 1.251 . S
C988 O973 1.256 . S
C988 C981 1.500 . S
C989 H954 0.929 . S
C989 C967 1.444 . S
C989 C990 1.317 . S
C990 H952 0.930 . S
C990 C958 1.432 . S
C990 C989 1.317 . S
C991 O975 1.283 . S
C991 O978 1.243 . S
C992 C993 1.382 . S
C992 C996 1.393 . S
C992 C999 1.500 . S
C993 C992 1.382 . S
C993 C994 1.400 . S
C993 H1004 0.930 . S
C994 C993 1.400 . S
C994 C995 1.384 . S
C995 C994 1.384 . S
C995 C997 1.392 . S
C995 H1005 0.931 . S
C996 C992 1.393 . S
C996 C997 1.401 . S
C996 H1006 0.930 . S
C997 C995 1.392 . S
C997 C996 1.401 . S
C997 H1007 0.930 . S
C998 O976 1.262 . S
C998 O977 1.260 . S
C999 Tb935 2.833 . S
C999 O974 1.251 . S
C999 O979 1.256 . S
C999 C992 1.500 . S
H1000 C983 0.930 . S
H1001 C984 0.931 . S
H1002 C985 0.930 . S
H1003 C986 0.930 . S
H1004 C993 0.930 . S
H1005 C995 0.931 . S
H1006 C996 0.930 . S
H1007 C997 0.930 . S
Tb1008 N1039 2.660 . S
Tb1008 N1046 2.600 . S
Tb1008 O1052 2.546 . S
Tb1008 O1053 2.610 1_554 S
Tb1008 O1055 2.320 . S
Tb1008 O1056 2.552 1_554 S
Tb1008 O1057 2.413 . S
Tb1008 O1059 2.362 . S
Tb1008 O1060 2.421 . S
Tb1008 C1072 2.833 . S
C1009 C1012 1.432 . S
C1009 C1013 1.414 . S
C1009 N1016 1.359 . S
C1010 C1012 1.417 . S
C1010 C1014 1.432 . S
C1010 C1022 1.410 . S
C1011 C1013 1.444 . S
C1011 C1014 1.317 . S
C1011 H1034 0.929 . S
C1012 C1009 1.432 . S
C1012 C1010 1.417 . S
C1012 N1020 1.360 . S
C1013 C1009 1.414 . S
C1013 C1011 1.444 . S
C1013 C1018 1.385 . S
C1014 C1010 1.432 . S
C1014 C1011 1.317 . S
C1014 H1026 0.930 . S
C1015 C1017 1.392 . S
C1015 C1018 1.370 . S
C1015 H1027 0.931 . S
N1016 C1009 1.359 . S
N1016 C1017 1.327 . S
N1016 Tb1019 2.600 1_556 S
C1017 C1015 1.392 . S
C1017 N1016 1.327 . S
C1017 H1024 0.930 . S
C1018 C1013 1.385 . S
C1018 C1015 1.370 . S
C1018 H1037 0.930 . S
Tb1019 N1016 2.600 1_554 S
Tb1019 N1020 2.660 1_554 S
Tb1019 O1053 2.362 1_554 S
Tb1019 O1054 2.421 . S
Tb1019 O1058 2.546 . S
Tb1019 O1059 2.610 . S
Tb1019 O1061 2.320 . S
Tb1019 O1062 2.552 . S
Tb1019 O1063 2.413 . S
Tb1019 C1083 2.833 . S
N1020 C1012 1.360 . S
N1020 Tb1019 2.660 1_556 S
N1020 C1021 1.305 . S
C1021 N1020 1.305 . S
C1021 C1023 1.407 . S
C1021 H1028 0.930 . S
C1022 C1010 1.410 . S
C1022 C1023 1.345 . S
C1022 H1030 0.930 . S
C1023 C1021 1.407 . S
C1023 C1022 1.345 . S
C1023 H1025 0.930 . S
H1024 C1017 0.930 . S
H1025 C1023 0.930 . S
H1026 C1014 0.930 . S
H1027 C1015 0.931 . S
H1028 C1021 0.930 . S
H1029 C1043 0.930 . S
H1030 C1022 0.930 . S
H1031 C1049 0.930 . S
H1032 C1040 0.930 . S
H1033 C1047 0.931 . S
H1034 C1011 0.929 . S
H1035 C1041 0.930 . S
H1036 C1074 0.930 . S
H1037 C1018 0.930 . S
H1038 C1073 0.929 . S
N1039 Tb1008 2.660 . S
N1039 C1040 1.305 . S
N1039 C1044 1.360 . S
C1040 H1032 0.930 . S
C1040 N1039 1.305 . S
C1040 C1043 1.407 . S
C1041 H1035 0.930 . S
C1041 C1042 1.410 . S
C1041 C1043 1.345 . S
C1042 C1041 1.410 . S
C1042 C1044 1.417 . S
C1042 C1074 1.432 . S
C1043 H1029 0.930 . S
C1043 C1040 1.407 . S
C1043 C1041 1.345 . S
C1044 N1039 1.360 . S
C1044 C1042 1.417 . S
C1044 C1048 1.432 . S
H1045 C1050 0.930 . S
N1046 Tb1008 2.600 . S
N1046 C1048 1.359 . S
N1046 C1049 1.327 . S
C1047 H1033 0.931 . S
C1047 C1049 1.392 . S
C1047 C1050 1.370 . S
C1048 C1044 1.432 . S
C1048 N1046 1.359 . S
C1048 C1051 1.414 . S
C1049 H1031 0.930 . S
C1049 N1046 1.327 . S
C1049 C1047 1.392 . S
C1050 H1045 0.930 . S
C1050 C1047 1.370 . S
C1050 C1051 1.385 . S
C1051 C1048 1.414 . S
C1051 C1050 1.385 . S
C1051 C1073 1.444 . S
O1052 Tb1008 2.546 . S
O1052 C1072 1.251 . S
O1053 Tb1008 2.610 1_556 S
O1053 Tb1019 2.362 1_556 S
O1053 C1064 1.283 . S
O1054 Tb1019 2.421 . S
O1054 C1071 1.262 . S
O1055 Tb1008 2.320 . S
O1055 C1071 1.260 . S
O1056 Tb1008 2.552 1_556 S
O1056 C1064 1.243 . S
O1057 Tb1008 2.413 . S
O1057 C1072 1.256 . S
O1058 Tb1019 2.546 . S
O1058 C1083 1.251 . S
O1059 Tb1008 2.362 . S
O1059 Tb1019 2.610 . S
O1059 C1075 1.283 . S
O1060 Tb1008 2.421 . S
O1060 C1082 1.262 . S
O1061 Tb1019 2.320 . S
O1061 C1082 1.260 . S
O1062 Tb1019 2.552 . S
O1062 C1075 1.243 . S
O1063 Tb1019 2.413 . S
O1063 C1083 1.256 . S
C1064 O1053 1.283 . S
C1064 O1056 1.243 . S
C1065 C1067 1.382 . S
C1065 C1069 1.393 . S
C1065 C1072 1.500 . S
C1066 C1067 1.400 1_556 S
C1066 C1068 1.384 1_556 S
C1067 C1065 1.382 . S
C1067 C1066 1.400 1_554 S
C1067 H1084 0.930 1_554 S
C1068 C1066 1.384 1_554 S
C1068 C1070 1.392 . S
C1068 H1085 0.938 . S
C1069 C1065 1.393 . S
C1069 C1070 1.401 . S
C1069 H1086 0.930 . S
C1070 C1068 1.392 . S
C1070 C1069 1.401 . S
C1070 H1087 0.930 . S
C1071 O1054 1.262 . S
C1071 O1055 1.260 . S
C1072 Tb1008 2.833 . S
C1072 O1052 1.251 . S
C1072 O1057 1.256 . S
C1072 C1065 1.500 . S
C1073 H1038 0.929 . S
C1073 C1051 1.444 . S
C1073 C1074 1.317 . S
C1074 H1036 0.930 . S
C1074 C1042 1.432 . S
C1074 C1073 1.317 . S
C1075 O1059 1.283 . S
C1075 O1062 1.243 . S
C1076 C1077 1.382 . S
C1076 C1080 1.393 . S
C1076 C1083 1.500 . S
C1077 C1076 1.382 . S
C1077 C1078 1.400 . S
C1077 H1088 0.930 . S
C1078 C1077 1.400 . S
C1078 C1079 1.384 . S
C1079 C1078 1.384 . S
C1079 C1081 1.392 . S
C1079 H1089 0.931 . S
C1080 C1076 1.393 . S
C1080 C1081 1.401 . S
C1080 H1090 0.930 . S
C1081 C1079 1.392 . S
C1081 C1080 1.401 . S
C1081 H1091 0.930 . S
C1082 O1060 1.262 . S
C1082 O1061 1.260 . S
C1083 Tb1019 2.833 . S
C1083 O1058 1.251 . S
C1083 O1063 1.256 . S
C1083 C1076 1.500 . S
H1084 C1067 0.930 1_556 S
H1085 C1068 0.938 . S
H1086 C1069 0.930 . S
H1087 C1070 0.930 . S
H1088 C1077 0.930 . S
H1089 C1079 0.931 . S
H1090 C1080 0.930 . S
H1091 C1081 0.930 . S
Tb1092 N1123 2.660 . S
Tb1092 N1130 2.600 . S
Tb1092 O1136 2.546 . S
Tb1092 O1137 2.610 . S
Tb1092 O1139 2.320 . S
Tb1092 O1140 2.552 . S
Tb1092 O1141 2.413 . S
Tb1092 O1143 2.362 . S
Tb1092 O1144 2.421 . S
Tb1092 C1156 2.833 . S
C1093 C1096 1.432 . S
C1093 C1097 1.414 . S
C1093 N1100 1.359 . S
C1094 C1096 1.417 . S
C1094 C1098 1.432 . S
C1094 C1106 1.410 . S
C1095 C1097 1.444 . S
C1095 C1098 1.317 . S
C1095 H1118 0.929 . S
C1096 C1093 1.432 . S
C1096 C1094 1.417 . S
C1096 N1104 1.360 . S
C1097 C1093 1.414 . S
C1097 C1095 1.444 . S
C1097 C1102 1.385 . S
C1098 C1094 1.432 . S
C1098 C1095 1.317 . S
C1098 H1110 0.930 . S
C1099 C1101 1.392 . S
C1099 C1102 1.370 . S
C1099 H1111 0.931 . S
N1100 C1093 1.359 . S
N1100 C1101 1.327 . S
N1100 Tb1103 2.600 . S
C1101 C1099 1.392 . S
C1101 N1100 1.327 . S
C1101 H1108 0.930 . S
C1102 C1097 1.385 . S
C1102 C1099 1.370 . S
C1102 H1121 0.930 . S
Tb1103 N1100 2.600 . S
Tb1103 N1104 2.660 . S
Tb1103 O1137 2.362 . S
Tb1103 O1138 2.421 . S
Tb1103 O1142 2.546 . S
Tb1103 O1143 2.610 . S
Tb1103 O1145 2.320 . S
Tb1103 O1146 2.552 . S
Tb1103 O1147 2.413 . S
Tb1103 C1167 2.833 . S
N1104 C1096 1.360 . S
N1104 Tb1103 2.660 . S
N1104 C1105 1.305 . S
C1105 N1104 1.305 . S
C1105 C1107 1.407 . S
C1105 H1112 0.930 . S
C1106 C1094 1.410 . S
C1106 C1107 1.345 . S
C1106 H1114 0.930 . S
C1107 C1105 1.407 . S
C1107 C1106 1.345 . S
C1107 H1109 0.930 . S
H1108 C1101 0.930 . S
H1109 C1107 0.930 . S
H1110 C1098 0.930 . S
H1111 C1099 0.931 . S
H1112 C1105 0.930 . S
H1113 C1127 0.930 . S
H1114 C1106 0.930 . S
H1115 C1133 0.930 . S
H1116 C1124 0.930 . S
H1117 C1131 0.931 . S
H1118 C1095 0.929 . S
H1119 C1125 0.930 . S
H1120 C1158 0.930 . S
H1121 C1102 0.930 . S
H1122 C1157 0.929 . S
N1123 Tb1092 2.660 . S
N1123 C1124 1.305 . S
N1123 C1128 1.360 . S
C1124 H1116 0.930 . S
C1124 N1123 1.305 . S
C1124 C1127 1.407 . S
C1125 H1119 0.930 . S
C1125 C1126 1.410 . S
C1125 C1127 1.345 . S
C1126 C1125 1.410 . S
C1126 C1128 1.417 . S
C1126 C1158 1.432 . S
C1127 H1113 0.930 . S
C1127 C1124 1.407 . S
C1127 C1125 1.345 . S
C1128 N1123 1.360 . S
C1128 C1126 1.417 . S
C1128 C1132 1.432 . S
H1129 C1134 0.930 . S
N1130 Tb1092 2.600 . S
N1130 C1132 1.359 . S
N1130 C1133 1.327 . S
C1131 H1117 0.931 . S
C1131 C1133 1.392 . S
C1131 C1134 1.370 . S
C1132 C1128 1.432 . S
C1132 N1130 1.359 . S
C1132 C1135 1.414 . S
C1133 H1115 0.930 . S
C1133 N1130 1.327 . S
C1133 C1131 1.392 . S
C1134 H1129 0.930 . S
C1134 C1131 1.370 . S
C1134 C1135 1.385 . S
C1135 C1132 1.414 . S
C1135 C1134 1.385 . S
C1135 C1157 1.444 . S
O1136 Tb1092 2.546 . S
O1136 C1156 1.251 . S
O1137 Tb1092 2.610 . S
O1137 Tb1103 2.362 . S
O1137 C1148 1.283 . S
O1138 Tb1103 2.421 . S
O1138 C1155 1.262 . S
O1139 Tb1092 2.320 . S
O1139 C1155 1.260 . S
O1140 Tb1092 2.552 . S
O1140 C1148 1.243 . S
O1141 Tb1092 2.413 . S
O1141 C1156 1.256 . S
O1142 Tb1103 2.546 . S
O1142 C1167 1.251 . S
O1143 Tb1092 2.362 . S
O1143 Tb1103 2.610 . S
O1143 C1159 1.283 . S
O1144 Tb1092 2.421 . S
O1144 C1166 1.262 . S
O1145 Tb1103 2.320 . S
O1145 C1166 1.260 . S
O1146 Tb1103 2.552 . S
O1146 C1159 1.243 . S
O1147 Tb1103 2.413 . S
O1147 C1167 1.256 . S
C1148 O1137 1.283 . S
C1148 O1140 1.243 . S
C1149 C1151 1.382 . S
C1149 C1153 1.393 . S
C1149 C1156 1.500 . S
C1150 C1151 1.400 . S
C1150 C1152 1.384 . S
C1151 C1149 1.382 . S
C1151 C1150 1.400 . S
C1151 H1168 0.930 . S
C1152 C1150 1.384 . S
C1152 C1154 1.392 . S
C1152 H1169 0.931 . S
C1153 C1149 1.393 . S
C1153 C1154 1.401 . S
C1153 H1170 0.930 . S
C1154 C1152 1.392 . S
C1154 C1153 1.401 . S
C1154 H1171 0.930 . S
C1155 O1138 1.262 . S
C1155 O1139 1.260 . S
C1156 Tb1092 2.833 . S
C1156 O1136 1.251 . S
C1156 O1141 1.256 . S
C1156 C1149 1.500 . S
C1157 H1122 0.929 . S
C1157 C1135 1.444 . S
C1157 C1158 1.317 . S
C1158 H1120 0.930 . S
C1158 C1126 1.432 . S
C1158 C1157 1.317 . S
C1159 O1143 1.283 . S
C1159 O1146 1.243 . S
C1160 C1161 1.382 . S
C1160 C1164 1.393 . S
C1160 C1167 1.500 . S
C1161 C1160 1.382 . S
C1161 C1162 1.400 . S
C1161 H1172 0.930 . S
C1162 C1161 1.400 . S
C1162 C1163 1.384 . S
C1163 C1162 1.384 . S
C1163 C1165 1.392 . S
C1163 H1173 0.931 . S
C1164 C1160 1.393 . S
C1164 C1165 1.401 . S
C1164 H1174 0.930 . S
C1165 C1163 1.392 . S
C1165 C1164 1.401 . S
C1165 H1175 0.930 . S
C1166 O1144 1.262 . S
C1166 O1145 1.260 . S
C1167 Tb1103 2.833 . S
C1167 O1142 1.251 . S
C1167 O1147 1.256 . S
C1167 C1160 1.500 . S
H1168 C1151 0.930 . S
H1169 C1152 0.931 . S
H1170 C1153 0.930 . S
H1171 C1154 0.930 . S
H1172 C1161 0.930 . S
H1173 C1163 0.931 . S
H1174 C1164 0.930 . S
H1175 C1165 0.930 . S
Tb1176 N1207 2.660 . S
Tb1176 N1214 2.600 . S
Tb1176 O1220 2.546 . S
Tb1176 O1221 2.610 . S
Tb1176 O1223 2.320 . S
Tb1176 O1224 2.552 . S
Tb1176 O1225 2.413 . S
Tb1176 O1227 2.362 . S
Tb1176 O1228 2.421 . S
Tb1176 C1240 2.833 . S
C1177 C1180 1.435 1_455 S
C1177 C1181 1.397 1_455 S
C1177 N1184 1.373 . S
C1178 C1180 1.417 . S
C1178 C1182 1.432 . S
C1178 C1190 1.410 . S
C1179 C1181 1.444 . S
C1179 C1182 1.317 . S
C1179 H1202 0.929 . S
C1180 C1177 1.435 1_655 S
C1180 C1178 1.417 . S
C1180 N1188 1.360 1_655 S
C1181 C1177 1.397 1_655 S
C1181 C1179 1.444 . S
C1181 C1186 1.385 . S
C1182 C1178 1.432 . S
C1182 C1179 1.317 . S
C1182 H1194 0.930 . S
C1183 C1185 1.392 . S
C1183 C1186 1.370 1_455 S
C1183 H1195 0.931 . S
N1184 C1177 1.373 . S
N1184 C1185 1.327 . S
N1184 Tb1187 2.600 . S
C1185 C1183 1.392 . S
C1185 N1184 1.327 . S
C1185 H1192 0.930 . S
C1186 C1181 1.385 . S
C1186 C1183 1.370 1_655 S
C1186 H1205 0.930 . S
Tb1187 N1184 2.600 . S
Tb1187 N1188 2.660 . S
Tb1187 O1221 2.362 . S
Tb1187 O1222 2.421 . S
Tb1187 O1226 2.546 . S
Tb1187 O1227 2.610 . S
Tb1187 O1229 2.320 . S
Tb1187 O1230 2.552 . S
Tb1187 O1231 2.413 . S
Tb1187 C1251 2.833 . S
N1188 C1180 1.360 1_455 S
N1188 Tb1187 2.660 . S
N1188 C1189 1.305 . S
C1189 N1188 1.305 . S
C1189 C1191 1.407 1_455 S
C1189 H1196 0.930 . S
C1190 C1178 1.410 . S
C1190 C1191 1.345 . S
C1190 H1198 0.930 . S
C1191 C1189 1.407 1_655 S
C1191 C1190 1.345 . S
C1191 H1193 0.930 . S
H1192 C1185 0.930 . S
H1193 C1191 0.930 . S
H1194 C1182 0.930 . S
H1195 C1183 0.931 . S
H1196 C1189 0.930 . S
H1197 C1211 0.930 . S
H1198 C1190 0.930 . S
H1199 C1217 0.930 . S
H1200 C1208 0.930 . S
H1201 C1215 0.931 . S
H1202 C1179 0.929 . S
H1203 C1209 0.930 . S
H1204 C1242 0.930 . S
H1205 C1186 0.930 . S
H1206 C1241 0.929 . S
N1207 Tb1176 2.660 . S
N1207 C1208 1.305 . S
N1207 C1212 1.360 . S
C1208 H1200 0.930 . S
C1208 N1207 1.305 . S
C1208 C1211 1.407 . S
C1209 H1203 0.930 . S
C1209 C1210 1.410 . S
C1209 C1211 1.345 . S
C1210 C1209 1.410 . S
C1210 C1212 1.417 . S
C1210 C1242 1.432 . S
C1211 H1197 0.930 . S
C1211 C1208 1.407 . S
C1211 C1209 1.345 . S
C1212 N1207 1.360 . S
C1212 C1210 1.417 . S
C1212 C1216 1.432 . S
H1213 C1218 0.930 . S
N1214 Tb1176 2.600 . S
N1214 C1216 1.359 . S
N1214 C1217 1.327 . S
C1215 H1201 0.931 . S
C1215 C1217 1.392 . S
C1215 C1218 1.370 . S
C1216 C1212 1.432 . S
C1216 N1214 1.359 . S
C1216 C1219 1.414 . S
C1217 H1199 0.930 . S
C1217 N1214 1.327 . S
C1217 C1215 1.392 . S
C1218 H1213 0.930 . S
C1218 C1215 1.370 . S
C1218 C1219 1.385 . S
C1219 C1216 1.414 . S
C1219 C1218 1.385 . S
C1219 C1241 1.444 . S
O1220 Tb1176 2.546 . S
O1220 C1240 1.251 . S
O1221 Tb1176 2.610 . S
O1221 Tb1187 2.362 . S
O1221 C1232 1.283 . S
O1222 Tb1187 2.421 . S
O1222 C1239 1.262 . S
O1223 Tb1176 2.320 . S
O1223 C1239 1.260 . S
O1224 Tb1176 2.552 . S
O1224 C1232 1.243 . S
O1225 Tb1176 2.413 . S
O1225 C1240 1.256 . S
O1226 Tb1187 2.546 . S
O1226 C1251 1.251 . S
O1227 Tb1176 2.362 . S
O1227 Tb1187 2.610 . S
O1227 C1243 1.283 . S
O1228 Tb1176 2.421 . S
O1228 C1250 1.262 . S
O1229 Tb1187 2.320 . S
O1229 C1250 1.260 . S
O1230 Tb1187 2.552 . S
O1230 C1243 1.243 . S
O1231 Tb1187 2.413 . S
O1231 C1251 1.256 . S
C1232 O1221 1.283 . S
C1232 O1224 1.243 . S
C1233 C1235 1.382 . S
C1233 C1237 1.393 . S
C1233 C1240 1.500 . S
C1234 C1235 1.400 . S
C1234 C1236 1.384 . S
C1235 C1233 1.382 . S
C1235 C1234 1.400 . S
C1235 H1252 0.930 . S
C1236 C1234 1.384 . S
C1236 C1238 1.392 . S
C1236 H1253 0.931 . S
C1237 C1233 1.393 . S
C1237 C1238 1.401 . S
C1237 H1254 0.930 . S
C1238 C1236 1.392 . S
C1238 C1237 1.401 . S
C1238 H1255 0.930 . S
C1239 O1222 1.262 . S
C1239 O1223 1.260 . S
C1240 Tb1176 2.833 . S
C1240 O1220 1.251 . S
C1240 O1225 1.256 . S
C1240 C1233 1.500 . S
C1241 H1206 0.929 . S
C1241 C1219 1.444 . S
C1241 C1242 1.317 . S
C1242 H1204 0.930 . S
C1242 C1210 1.432 . S
C1242 C1241 1.317 . S
C1243 O1227 1.283 . S
C1243 O1230 1.243 . S
C1244 C1245 1.382 . S
C1244 C1248 1.393 . S
C1244 C1251 1.500 . S
C1245 C1244 1.382 . S
C1245 C1246 1.400 . S
C1245 H1256 0.930 . S
C1246 C1245 1.400 . S
C1246 C1247 1.384 . S
C1247 C1246 1.384 . S
C1247 C1249 1.392 . S
C1247 H1257 0.931 . S
C1248 C1244 1.393 . S
C1248 C1249 1.401 . S
C1248 H1258 0.930 . S
C1249 C1247 1.392 . S
C1249 C1248 1.401 . S
C1249 H1259 0.930 . S
C1250 O1228 1.262 . S
C1250 O1229 1.260 . S
C1251 Tb1187 2.833 . S
C1251 O1226 1.251 . S
C1251 O1231 1.256 . S
C1251 C1244 1.500 . S
H1252 C1235 0.930 . S
H1253 C1236 0.931 . S
H1254 C1237 0.930 . S
H1255 C1238 0.930 . S
H1256 C1245 0.930 . S
H1257 C1247 0.931 . S
H1258 C1248 0.930 . S
H1259 C1249 0.930 . S
Tb1260 N1291 2.660 . S
Tb1260 N1298 2.600 . S
Tb1260 O1304 2.546 . S
Tb1260 O1305 2.610 . S
Tb1260 O1307 2.320 . S
Tb1260 O1308 2.552 . S
Tb1260 O1309 2.413 . S
Tb1260 O1311 2.362 . S
Tb1260 O1312 2.421 . S
Tb1260 C1324 2.833 . S
C1261 C1264 1.432 . S
C1261 C1265 1.414 . S
C1261 N1268 1.359 . S
C1262 C1264 1.417 . S
C1262 C1266 1.432 . S
C1262 C1274 1.410 . S
C1263 C1265 1.444 . S
C1263 C1266 1.317 . S
C1263 H1286 0.929 . S
C1264 C1261 1.432 . S
C1264 C1262 1.417 . S
C1264 N1272 1.360 . S
C1265 C1261 1.414 . S
C1265 C1263 1.444 . S
C1265 C1270 1.385 . S
C1266 C1262 1.432 . S
C1266 C1263 1.317 . S
C1266 H1278 0.930 . S
C1267 C1269 1.392 . S
C1267 C1270 1.370 . S
C1267 H1279 0.931 . S
N1268 C1261 1.359 . S
N1268 C1269 1.327 . S
N1268 Tb1271 2.600 . S
C1269 C1267 1.392 . S
C1269 N1268 1.327 . S
C1269 H1276 0.930 . S
C1270 C1265 1.385 . S
C1270 C1267 1.370 . S
C1270 H1289 0.930 . S
Tb1271 N1268 2.600 . S
Tb1271 N1272 2.660 . S
Tb1271 O1305 2.362 . S
Tb1271 O1306 2.421 . S
Tb1271 O1310 2.546 . S
Tb1271 O1311 2.610 . S
Tb1271 O1313 2.320 . S
Tb1271 O1314 2.552 . S
Tb1271 O1315 2.413 . S
Tb1271 C1335 2.833 . S
N1272 C1264 1.360 . S
N1272 Tb1271 2.660 . S
N1272 C1273 1.305 . S
C1273 N1272 1.305 . S
C1273 C1275 1.407 . S
C1273 H1280 0.930 . S
C1274 C1262 1.410 . S
C1274 C1275 1.345 . S
C1274 H1282 0.930 . S
C1275 C1273 1.407 . S
C1275 C1274 1.345 . S
C1275 H1277 0.930 . S
H1276 C1269 0.930 . S
H1277 C1275 0.930 . S
H1278 C1266 0.930 . S
H1279 C1267 0.931 . S
H1280 C1273 0.930 . S
H1281 C1295 0.930 . S
H1282 C1274 0.930 . S
H1283 C1301 0.930 . S
H1284 C1292 0.930 . S
H1285 C1299 0.931 . S
H1286 C1263 0.929 . S
H1287 C1293 0.930 . S
H1288 C1326 0.930 . S
H1289 C1270 0.930 . S
H1290 C1325 0.929 . S
N1291 Tb1260 2.660 . S
N1291 C1292 1.305 . S
N1291 C1296 1.360 . S
C1292 H1284 0.930 . S
C1292 N1291 1.305 . S
C1292 C1295 1.407 . S
C1293 H1287 0.930 . S
C1293 C1294 1.410 . S
C1293 C1295 1.345 . S
C1294 C1293 1.410 . S
C1294 C1296 1.417 . S
C1294 C1326 1.432 . S
C1295 H1281 0.930 . S
C1295 C1292 1.407 . S
C1295 C1293 1.345 . S
C1296 N1291 1.360 . S
C1296 C1294 1.417 . S
C1296 C1300 1.432 . S
H1297 C1302 0.930 . S
N1298 Tb1260 2.600 . S
N1298 C1300 1.359 . S
N1298 C1301 1.327 . S
C1299 H1285 0.931 . S
C1299 C1301 1.392 . S
C1299 C1302 1.370 . S
C1300 C1296 1.432 . S
C1300 N1298 1.359 . S
C1300 C1303 1.414 . S
C1301 H1283 0.930 . S
C1301 N1298 1.327 . S
C1301 C1299 1.392 . S
C1302 H1297 0.930 . S
C1302 C1299 1.370 . S
C1302 C1303 1.385 . S
C1303 C1300 1.414 . S
C1303 C1302 1.385 . S
C1303 C1325 1.444 . S
O1304 Tb1260 2.546 . S
O1304 C1324 1.251 . S
O1305 Tb1260 2.610 . S
O1305 Tb1271 2.362 . S
O1305 C1316 1.283 . S
O1306 Tb1271 2.421 . S
O1306 C1323 1.262 . S
O1307 Tb1260 2.320 . S
O1307 C1323 1.260 . S
O1308 Tb1260 2.552 . S
O1308 C1316 1.243 . S
O1309 Tb1260 2.413 . S
O1309 C1324 1.256 . S
O1310 Tb1271 2.546 . S
O1310 C1335 1.251 . S
O1311 Tb1260 2.362 . S
O1311 Tb1271 2.610 . S
O1311 C1327 1.283 . S
O1312 Tb1260 2.421 . S
O1312 C1334 1.262 . S
O1313 Tb1271 2.320 . S
O1313 C1334 1.260 . S
O1314 Tb1271 2.552 . S
O1314 C1327 1.243 . S
O1315 Tb1271 2.413 . S
O1315 C1335 1.256 . S
C1316 O1305 1.283 . S
C1316 O1308 1.243 . S
C1317 C1319 1.382 . S
C1317 C1321 1.393 . S
C1317 C1324 1.500 . S
C1318 C1319 1.400 . S
C1318 C1320 1.384 . S
C1319 C1317 1.382 . S
C1319 C1318 1.400 . S
C1319 H1336 0.930 . S
C1320 C1318 1.384 . S
C1320 C1322 1.392 . S
C1320 H1337 0.931 . S
C1321 C1317 1.393 . S
C1321 C1322 1.401 . S
C1321 H1338 0.930 . S
C1322 C1320 1.392 . S
C1322 C1321 1.401 . S
C1322 H1339 0.930 . S
C1323 O1306 1.262 . S
C1323 O1307 1.260 . S
C1324 Tb1260 2.833 . S
C1324 O1304 1.251 . S
C1324 O1309 1.256 . S
C1324 C1317 1.500 . S
C1325 H1290 0.929 . S
C1325 C1303 1.444 . S
C1325 C1326 1.317 . S
C1326 H1288 0.930 . S
C1326 C1294 1.432 . S
C1326 C1325 1.317 . S
C1327 O1311 1.283 . S
C1327 O1314 1.243 . S
C1328 C1329 1.382 . S
C1328 C1332 1.393 . S
C1328 C1335 1.500 . S
C1329 C1328 1.382 . S
C1329 C1330 1.400 . S
C1329 H1340 0.930 . S
C1330 C1329 1.400 . S
C1330 C1331 1.384 . S
C1331 C1330 1.384 . S
C1331 C1333 1.392 . S
C1331 H1341 0.931 . S
C1332 C1328 1.393 . S
C1332 C1333 1.401 . S
C1332 H1342 0.930 . S
C1333 C1331 1.392 . S
C1333 C1332 1.401 . S
C1333 H1343 0.930 . S
C1334 O1312 1.262 . S
C1334 O1313 1.260 . S
C1335 Tb1271 2.833 . S
C1335 O1310 1.251 . S
C1335 O1315 1.256 . S
C1335 C1328 1.500 . S
H1336 C1319 0.930 . S
H1337 C1320 0.931 . S
H1338 C1321 0.930 . S
H1339 C1322 0.930 . S
H1340 C1329 0.930 . S
H1341 C1331 0.931 . S
H1342 C1332 0.930 . S
H1343 C1333 0.930 . S
Tb1344 N1375 2.660 . S
Tb1344 N1382 2.600 . S
Tb1344 O1388 2.546 . S
Tb1344 O1389 2.610 . S
Tb1344 O1391 2.320 . S
Tb1344 O1392 2.552 . S
Tb1344 O1393 2.413 . S
Tb1344 O1395 2.362 . S
Tb1344 O1396 2.421 . S
Tb1344 C1408 2.833 . S
C1345 C1348 1.432 . S
C1345 C1349 1.414 . S
C1345 N1352 1.359 . S
C1346 C1348 1.417 . S
C1346 C1350 1.432 . S
C1346 C1358 1.410 . S
C1347 C1349 1.444 . S
C1347 C1350 1.317 . S
C1347 H1370 0.929 . S
C1348 C1345 1.432 . S
C1348 C1346 1.417 . S
C1348 N1356 1.360 . S
C1349 C1345 1.414 . S
C1349 C1347 1.444 . S
C1349 C1354 1.385 . S
C1350 C1346 1.432 . S
C1350 C1347 1.317 . S
C1350 H1362 0.930 . S
C1351 C1353 1.392 . S
C1351 C1354 1.370 . S
C1351 H1363 0.931 . S
N1352 C1345 1.359 . S
N1352 C1353 1.327 . S
N1352 Tb1355 2.600 . S
C1353 C1351 1.392 . S
C1353 N1352 1.327 . S
C1353 H1360 0.930 . S
C1354 C1349 1.385 . S
C1354 C1351 1.370 . S
C1354 H1373 0.930 . S
Tb1355 N1352 2.600 . S
Tb1355 N1356 2.660 . S
Tb1355 O1389 2.362 . S
Tb1355 O1390 2.421 . S
Tb1355 O1394 2.546 . S
Tb1355 O1395 2.610 . S
Tb1355 O1397 2.320 . S
Tb1355 O1398 2.552 . S
Tb1355 O1399 2.413 . S
Tb1355 C1419 2.833 . S
N1356 C1348 1.360 . S
N1356 Tb1355 2.660 . S
N1356 C1357 1.305 . S
C1357 N1356 1.305 . S
C1357 C1359 1.407 . S
C1357 H1364 0.930 . S
C1358 C1346 1.410 . S
C1358 C1359 1.345 . S
C1358 H1366 0.930 . S
C1359 C1357 1.407 . S
C1359 C1358 1.345 . S
C1359 H1361 0.930 . S
H1360 C1353 0.930 . S
H1361 C1359 0.930 . S
H1362 C1350 0.930 . S
H1363 C1351 0.931 . S
H1364 C1357 0.930 . S
H1365 C1379 0.930 . S
H1366 C1358 0.930 . S
H1367 C1385 0.930 . S
H1368 C1376 0.930 . S
H1369 C1383 0.931 . S
H1370 C1347 0.929 . S
H1371 C1377 0.930 . S
H1372 C1410 0.930 . S
H1373 C1354 0.930 . S
H1374 C1409 0.929 . S
N1375 Tb1344 2.660 . S
N1375 C1376 1.305 . S
N1375 C1380 1.360 . S
C1376 H1368 0.930 . S
C1376 N1375 1.305 . S
C1376 C1379 1.407 . S
C1377 H1371 0.930 . S
C1377 C1378 1.410 . S
C1377 C1379 1.345 . S
C1378 C1377 1.410 . S
C1378 C1380 1.417 . S
C1378 C1410 1.432 . S
C1379 H1365 0.930 . S
C1379 C1376 1.407 . S
C1379 C1377 1.345 . S
C1380 N1375 1.360 . S
C1380 C1378 1.417 . S
C1380 C1384 1.432 . S
H1381 C1386 0.930 . S
N1382 Tb1344 2.600 . S
N1382 C1384 1.359 . S
N1382 C1385 1.327 . S
C1383 H1369 0.931 . S
C1383 C1385 1.392 . S
C1383 C1386 1.370 . S
C1384 C1380 1.432 . S
C1384 N1382 1.359 . S
C1384 C1387 1.414 . S
C1385 H1367 0.930 . S
C1385 N1382 1.327 . S
C1385 C1383 1.392 . S
C1386 H1381 0.930 . S
C1386 C1383 1.370 . S
C1386 C1387 1.385 . S
C1387 C1384 1.414 . S
C1387 C1386 1.385 . S
C1387 C1409 1.444 . S
O1388 Tb1344 2.546 . S
O1388 C1408 1.251 . S
O1389 Tb1344 2.610 . S
O1389 Tb1355 2.362 . S
O1389 C1400 1.283 . S
O1390 Tb1355 2.421 . S
O1390 C1407 1.262 . S
O1391 Tb1344 2.320 . S
O1391 C1407 1.260 . S
O1392 Tb1344 2.552 . S
O1392 C1400 1.243 . S
O1393 Tb1344 2.413 . S
O1393 C1408 1.256 . S
O1394 Tb1355 2.546 . S
O1394 C1419 1.251 . S
O1395 Tb1344 2.362 . S
O1395 Tb1355 2.610 . S
O1395 C1411 1.283 . S
O1396 Tb1344 2.421 . S
O1396 C1418 1.262 . S
O1397 Tb1355 2.320 . S
O1397 C1418 1.260 . S
O1398 Tb1355 2.552 . S
O1398 C1411 1.243 . S
O1399 Tb1355 2.413 . S
O1399 C1419 1.256 . S
C1400 O1389 1.283 . S
C1400 O1392 1.243 . S
C1401 C1403 1.382 . S
C1401 C1405 1.393 . S
C1401 C1408 1.500 . S
C1402 C1403 1.400 . S
C1402 C1404 1.384 . S
C1403 C1401 1.382 . S
C1403 C1402 1.400 . S
C1403 H1420 0.930 . S
C1404 C1402 1.384 . S
C1404 C1406 1.392 . S
C1404 H1421 0.931 . S
C1405 C1401 1.393 . S
C1405 C1406 1.401 . S
C1405 H1422 0.930 . S
C1406 C1404 1.392 . S
C1406 C1405 1.401 . S
C1406 H1423 0.930 . S
C1407 O1390 1.262 . S
C1407 O1391 1.260 . S
C1408 Tb1344 2.833 . S
C1408 O1388 1.251 . S
C1408 O1393 1.256 . S
C1408 C1401 1.500 . S
C1409 H1374 0.929 . S
C1409 C1387 1.444 . S
C1409 C1410 1.317 . S
C1410 H1372 0.930 . S
C1410 C1378 1.432 . S
C1410 C1409 1.317 . S
C1411 O1395 1.283 . S
C1411 O1398 1.243 . S
C1412 C1413 1.382 . S
C1412 C1416 1.393 . S
C1412 C1419 1.500 . S
C1413 C1412 1.382 . S
C1413 C1414 1.400 . S
C1413 H1424 0.930 . S
C1414 C1413 1.400 . S
C1414 C1415 1.384 . S
C1415 C1414 1.384 . S
C1415 C1417 1.392 . S
C1415 H1425 0.931 . S
C1416 C1412 1.393 . S
C1416 C1417 1.401 . S
C1416 H1426 0.930 . S
C1417 C1415 1.392 . S
C1417 C1416 1.401 . S
C1417 H1427 0.930 . S
C1418 O1396 1.262 . S
C1418 O1397 1.260 . S
C1419 Tb1355 2.833 . S
C1419 O1394 1.251 . S
C1419 O1399 1.256 . S
C1419 C1412 1.500 . S
H1420 C1403 0.930 . S
H1421 C1404 0.931 . S
H1422 C1405 0.930 . S
H1423 C1406 0.930 . S
H1424 C1413 0.930 . S
H1425 C1415 0.931 . S
H1426 C1416 0.930 . S
H1427 C1417 0.930 . S
Tb1428 N1459 2.660 . S
Tb1428 N1466 2.600 . S
Tb1428 O1472 2.546 . S
Tb1428 O1473 2.610 . S
Tb1428 O1475 2.320 . S
Tb1428 O1476 2.552 . S
Tb1428 O1477 2.413 . S
Tb1428 O1479 2.362 . S
Tb1428 O1480 2.421 . S
Tb1428 C1492 2.833 . S
C1429 C1432 1.432 . S
C1429 C1433 1.414 . S
C1429 N1436 1.359 . S
C1430 C1432 1.417 . S
C1430 C1434 1.432 . S
C1430 C1442 1.410 . S
C1431 C1433 1.444 . S
C1431 C1434 1.317 . S
C1431 H1454 0.929 . S
C1432 C1429 1.432 . S
C1432 C1430 1.417 . S
C1432 N1440 1.360 . S
C1433 C1429 1.414 . S
C1433 C1431 1.444 . S
C1433 C1438 1.385 . S
C1434 C1430 1.432 . S
C1434 C1431 1.317 . S
C1434 H1446 0.930 . S
C1435 C1437 1.392 . S
C1435 C1438 1.370 . S
C1435 H1447 0.931 . S
N1436 C1429 1.359 . S
N1436 C1437 1.327 . S
N1436 Tb1439 2.600 . S
C1437 C1435 1.392 . S
C1437 N1436 1.327 . S
C1437 H1444 0.930 . S
C1438 C1433 1.385 . S
C1438 C1435 1.370 . S
C1438 H1457 0.930 . S
Tb1439 N1436 2.600 . S
Tb1439 N1440 2.660 . S
Tb1439 O1473 2.362 . S
Tb1439 O1474 2.421 . S
Tb1439 O1478 2.546 . S
Tb1439 O1479 2.610 . S
Tb1439 O1481 2.320 . S
Tb1439 O1482 2.552 . S
Tb1439 O1483 2.413 . S
Tb1439 C1503 2.833 . S
N1440 C1432 1.360 . S
N1440 Tb1439 2.660 . S
N1440 C1441 1.305 . S
C1441 N1440 1.305 . S
C1441 C1443 1.407 . S
C1441 H1448 0.930 . S
C1442 C1430 1.410 . S
C1442 C1443 1.345 . S
C1442 H1450 0.930 . S
C1443 C1441 1.407 . S
C1443 C1442 1.345 . S
C1443 H1445 0.930 . S
H1444 C1437 0.930 . S
H1445 C1443 0.930 . S
H1446 C1434 0.930 . S
H1447 C1435 0.931 . S
H1448 C1441 0.930 . S
H1449 C1463 0.930 . S
H1450 C1442 0.930 . S
H1451 C1469 0.930 . S
H1452 C1460 0.930 . S
H1453 C1467 0.931 . S
H1454 C1431 0.929 . S
H1455 C1461 0.930 . S
H1456 C1494 0.930 . S
H1457 C1438 0.930 . S
H1458 C1493 0.929 . S
N1459 Tb1428 2.660 . S
N1459 C1460 1.305 . S
N1459 C1464 1.360 . S
C1460 H1452 0.930 . S
C1460 N1459 1.305 . S
C1460 C1463 1.407 . S
C1461 H1455 0.930 . S
C1461 C1462 1.410 . S
C1461 C1463 1.345 . S
C1462 C1461 1.410 . S
C1462 C1464 1.417 . S
C1462 C1494 1.432 . S
C1463 H1449 0.930 . S
C1463 C1460 1.407 . S
C1463 C1461 1.345 . S
C1464 N1459 1.360 . S
C1464 C1462 1.417 . S
C1464 C1468 1.432 . S
H1465 C1470 0.930 . S
N1466 Tb1428 2.600 . S
N1466 C1468 1.359 . S
N1466 C1469 1.327 . S
C1467 H1453 0.931 . S
C1467 C1469 1.392 . S
C1467 C1470 1.370 . S
C1468 C1464 1.432 . S
C1468 N1466 1.359 . S
C1468 C1471 1.414 . S
C1469 H1451 0.930 . S
C1469 N1466 1.327 . S
C1469 C1467 1.392 . S
C1470 H1465 0.930 . S
C1470 C1467 1.370 . S
C1470 C1471 1.385 . S
C1471 C1468 1.414 . S
C1471 C1470 1.385 . S
C1471 C1493 1.444 . S
O1472 Tb1428 2.546 . S
O1472 C1492 1.251 . S
O1473 Tb1428 2.610 . S
O1473 Tb1439 2.362 . S
O1473 C1484 1.283 . S
O1474 Tb1439 2.421 . S
O1474 C1491 1.262 . S
O1475 Tb1428 2.320 . S
O1475 C1491 1.260 . S
O1476 Tb1428 2.552 . S
O1476 C1484 1.243 . S
O1477 Tb1428 2.413 . S
O1477 C1492 1.256 . S
O1478 Tb1439 2.546 . S
O1478 C1503 1.251 . S
O1479 Tb1428 2.362 . S
O1479 Tb1439 2.610 . S
O1479 C1495 1.283 . S
O1480 Tb1428 2.421 . S
O1480 C1502 1.262 . S
O1481 Tb1439 2.320 . S
O1481 C1502 1.260 . S
O1482 Tb1439 2.552 . S
O1482 C1495 1.243 . S
O1483 Tb1439 2.413 . S
O1483 C1503 1.256 . S
C1484 O1473 1.283 . S
C1484 O1476 1.243 . S
C1485 C1487 1.382 . S
C1485 C1489 1.393 . S
C1485 C1492 1.500 . S
C1486 C1487 1.400 . S
C1486 C1488 1.384 . S
C1487 C1485 1.382 . S
C1487 C1486 1.400 . S
C1487 H1504 0.930 . S
C1488 C1486 1.384 . S
C1488 C1490 1.392 . S
C1488 H1505 0.931 . S
C1489 C1485 1.393 . S
C1489 C1490 1.401 . S
C1489 H1506 0.930 . S
C1490 C1488 1.392 . S
C1490 C1489 1.401 . S
C1490 H1507 0.930 . S
C1491 O1474 1.262 . S
C1491 O1475 1.260 . S
C1492 Tb1428 2.833 . S
C1492 O1472 1.251 . S
C1492 O1477 1.256 . S
C1492 C1485 1.500 . S
C1493 H1458 0.929 . S
C1493 C1471 1.444 . S
C1493 C1494 1.317 . S
C1494 H1456 0.930 . S
C1494 C1462 1.432 . S
C1494 C1493 1.317 . S
C1495 O1479 1.283 . S
C1495 O1482 1.243 . S
C1496 C1497 1.382 . S
C1496 C1500 1.393 . S
C1496 C1503 1.500 . S
C1497 C1496 1.382 . S
C1497 C1498 1.400 . S
C1497 H1508 0.930 . S
C1498 C1497 1.400 . S
C1498 C1499 1.384 . S
C1499 C1498 1.384 . S
C1499 C1501 1.392 . S
C1499 H1509 0.931 . S
C1500 C1496 1.393 . S
C1500 C1501 1.401 . S
C1500 H1510 0.930 . S
C1501 C1499 1.392 . S
C1501 C1500 1.401 . S
C1501 H1511 0.930 . S
C1502 O1480 1.262 . S
C1502 O1481 1.260 . S
C1503 Tb1439 2.833 . S
C1503 O1478 1.251 . S
C1503 O1483 1.256 . S
C1503 C1496 1.500 . S
H1504 C1487 0.930 . S
H1505 C1488 0.931 . S
H1506 C1489 0.930 . S
H1507 C1490 0.930 . S
H1508 C1497 0.930 . S
H1509 C1499 0.931 . S
H1510 C1500 0.930 . S
H1511 C1501 0.930 . S
Tb1512 N1543 2.660 . S
Tb1512 N1550 2.600 . S
Tb1512 O1556 2.546 . S
Tb1512 O1557 2.610 . S
Tb1512 O1559 2.320 . S
Tb1512 O1560 2.552 . S
Tb1512 O1561 2.413 . S
Tb1512 O1563 2.362 . S
Tb1512 O1564 2.421 . S
Tb1512 C1576 2.833 . S
C1513 C1516 1.432 . S
C1513 C1517 1.414 . S
C1513 N1520 1.359 . S
C1514 C1516 1.417 . S
C1514 C1518 1.432 . S
C1514 C1526 1.410 . S
C1515 C1517 1.444 . S
C1515 C1518 1.317 . S
C1515 H1538 0.929 . S
C1516 C1513 1.432 . S
C1516 C1514 1.417 . S
C1516 N1524 1.360 . S
C1517 C1513 1.414 . S
C1517 C1515 1.444 . S
C1517 C1522 1.385 . S
C1518 C1514 1.432 . S
C1518 C1515 1.317 . S
C1518 H1530 0.930 . S
C1519 C1521 1.392 . S
C1519 C1522 1.370 . S
C1519 H1531 0.931 . S
N1520 C1513 1.359 . S
N1520 C1521 1.327 . S
N1520 Tb1523 2.600 . S
C1521 C1519 1.392 . S
C1521 N1520 1.327 . S
C1521 H1528 0.930 . S
C1522 C1517 1.385 . S
C1522 C1519 1.370 . S
C1522 H1541 0.930 . S
Tb1523 N1520 2.600 . S
Tb1523 N1524 2.660 . S
Tb1523 O1557 2.362 . S
Tb1523 O1558 2.421 . S
Tb1523 O1562 2.546 . S
Tb1523 O1563 2.610 . S
Tb1523 O1565 2.320 . S
Tb1523 O1566 2.552 . S
Tb1523 O1567 2.413 . S
Tb1523 C1587 2.833 . S
N1524 C1516 1.360 . S
N1524 Tb1523 2.660 . S
N1524 C1525 1.305 . S
C1525 N1524 1.305 . S
C1525 C1527 1.407 . S
C1525 H1532 0.930 . S
C1526 C1514 1.410 . S
C1526 C1527 1.345 . S
C1526 H1534 0.930 . S
C1527 C1525 1.407 . S
C1527 C1526 1.345 . S
C1527 H1529 0.930 . S
H1528 C1521 0.930 . S
H1529 C1527 0.930 . S
H1530 C1518 0.930 . S
H1531 C1519 0.931 . S
H1532 C1525 0.930 . S
H1533 C1547 0.930 . S
H1534 C1526 0.930 . S
H1535 C1553 0.930 . S
H1536 C1544 0.930 . S
H1537 C1551 0.931 . S
H1538 C1515 0.929 . S
H1539 C1545 0.930 . S
H1540 C1578 0.930 . S
H1541 C1522 0.930 . S
H1542 C1577 0.929 . S
N1543 Tb1512 2.660 . S
N1543 C1544 1.305 . S
N1543 C1548 1.360 . S
C1544 H1536 0.930 . S
C1544 N1543 1.305 . S
C1544 C1547 1.407 . S
C1545 H1539 0.930 . S
C1545 C1546 1.410 . S
C1545 C1547 1.345 . S
C1546 C1545 1.410 . S
C1546 C1548 1.417 . S
C1546 C1578 1.432 . S
C1547 H1533 0.930 . S
C1547 C1544 1.407 . S
C1547 C1545 1.345 . S
C1548 N1543 1.360 . S
C1548 C1546 1.417 . S
C1548 C1552 1.432 . S
H1549 C1554 0.930 . S
N1550 Tb1512 2.600 . S
N1550 C1552 1.359 . S
N1550 C1553 1.327 . S
C1551 H1537 0.931 . S
C1551 C1553 1.392 . S
C1551 C1554 1.370 . S
C1552 C1548 1.432 . S
C1552 N1550 1.359 . S
C1552 C1555 1.414 . S
C1553 H1535 0.930 . S
C1553 N1550 1.327 . S
C1553 C1551 1.392 . S
C1554 H1549 0.930 . S
C1554 C1551 1.370 . S
C1554 C1555 1.385 . S
C1555 C1552 1.414 . S
C1555 C1554 1.385 . S
C1555 C1577 1.444 . S
O1556 Tb1512 2.546 . S
O1556 C1576 1.251 . S
O1557 Tb1512 2.610 . S
O1557 Tb1523 2.362 . S
O1557 C1568 1.283 . S
O1558 Tb1523 2.421 . S
O1558 C1575 1.262 . S
O1559 Tb1512 2.320 . S
O1559 C1575 1.260 . S
O1560 Tb1512 2.552 . S
O1560 C1568 1.243 . S
O1561 Tb1512 2.413 . S
O1561 C1576 1.256 . S
O1562 Tb1523 2.546 . S
O1562 C1587 1.251 . S
O1563 Tb1512 2.362 . S
O1563 Tb1523 2.610 . S
O1563 C1579 1.283 . S
O1564 Tb1512 2.421 . S
O1564 C1586 1.262 . S
O1565 Tb1523 2.320 . S
O1565 C1586 1.260 . S
O1566 Tb1523 2.552 . S
O1566 C1579 1.243 . S
O1567 Tb1523 2.413 . S
O1567 C1587 1.256 . S
C1568 O1557 1.283 . S
C1568 O1560 1.243 . S
C1569 C1571 1.382 . S
C1569 C1573 1.393 . S
C1569 C1576 1.500 . S
C1570 C1571 1.400 . S
C1570 C1572 1.384 . S
C1571 C1569 1.382 . S
C1571 C1570 1.400 . S
C1571 H1588 0.930 . S
C1572 C1570 1.384 . S
C1572 C1574 1.392 . S
C1572 H1589 0.931 . S
C1573 C1569 1.393 . S
C1573 C1574 1.401 . S
C1573 H1590 0.930 . S
C1574 C1572 1.392 . S
C1574 C1573 1.401 . S
C1574 H1591 0.930 . S
C1575 O1558 1.262 . S
C1575 O1559 1.260 . S
C1576 Tb1512 2.833 . S
C1576 O1556 1.251 . S
C1576 O1561 1.256 . S
C1576 C1569 1.500 . S
C1577 H1542 0.929 . S
C1577 C1555 1.444 . S
C1577 C1578 1.317 . S
C1578 H1540 0.930 . S
C1578 C1546 1.432 . S
C1578 C1577 1.317 . S
C1579 O1563 1.283 . S
C1579 O1566 1.243 . S
C1580 C1581 1.382 . S
C1580 C1584 1.393 . S
C1580 C1587 1.500 . S
C1581 C1580 1.382 . S
C1581 C1582 1.400 . S
C1581 H1592 0.930 . S
C1582 C1581 1.400 . S
C1582 C1583 1.384 . S
C1583 C1582 1.384 . S
C1583 C1585 1.392 . S
C1583 H1593 0.931 . S
C1584 C1580 1.393 . S
C1584 C1585 1.401 . S
C1584 H1594 0.930 . S
C1585 C1583 1.392 . S
C1585 C1584 1.401 . S
C1585 H1595 0.930 . S
C1586 O1564 1.262 . S
C1586 O1565 1.260 . S
C1587 Tb1523 2.833 . S
C1587 O1562 1.251 . S
C1587 O1567 1.256 . S
C1587 C1580 1.500 . S
H1588 C1571 0.930 . S
H1589 C1572 0.931 . S
H1590 C1573 0.930 . S
H1591 C1574 0.930 . S
H1592 C1581 0.930 . S
H1593 C1583 0.931 . S
H1594 C1584 0.930 . S
H1595 C1585 0.930 . S
Tb1596 N1627 2.660 . S
Tb1596 N1634 2.600 1_554 S
Tb1596 O1640 2.546 1_554 S
Tb1596 O1641 2.610 . S
Tb1596 O1643 2.320 . S
Tb1596 O1644 2.552 . S
Tb1596 O1645 2.413 . S
Tb1596 O1647 2.362 . S
Tb1596 O1648 2.421 1_554 S
Tb1596 C1660 2.833 1_554 S
C1597 C1600 1.432 . S
C1597 C1601 1.414 . S
C1597 N1604 1.359 1_655 S
C1598 C1600 1.417 . S
C1598 C1602 1.432 . S
C1598 C1610 1.410 1_554 S
C1599 C1601 1.444 . S
C1599 C1602 1.317 . S
C1599 H1622 0.929 . S
C1600 C1597 1.432 . S
C1600 C1598 1.417 . S
C1600 N1608 1.373 . S
C1601 C1597 1.414 . S
C1601 C1599 1.444 . S
C1601 C1606 1.385 . S
C1602 C1598 1.432 . S
C1602 C1599 1.317 . S
C1602 H1614 0.930 . S
C1603 C1605 1.412 . S
C1603 C1606 1.350 1_455 S
C1603 H1615 0.933 . S
N1604 C1597 1.359 1_455 S
N1604 C1605 1.327 . S
N1604 Tb1607 2.600 . S
C1605 C1603 1.412 . S
C1605 N1604 1.327 . S
C1605 H1612 0.930 . S
C1606 C1601 1.385 . S
C1606 C1603 1.350 1_655 S
C1606 H1625 0.930 . S
Tb1607 N1604 2.600 . S
Tb1607 N1608 2.646 1_455 S
Tb1607 O1641 2.362 . S
Tb1607 O1642 2.421 . S
Tb1607 O1646 2.546 . S
Tb1607 O1647 2.610 . S
Tb1607 O1649 2.320 1_554 S
Tb1607 O1650 2.552 . S
Tb1607 O1651 2.413 1_455 S
Tb1607 C1671 2.833 1_455 S
N1608 C1600 1.373 . S
N1608 Tb1607 2.646 1_655 S
N1608 C1609 1.306 1_554 S
C1609 N1608 1.306 1_556 S
C1609 C1611 1.407 . S
C1609 H1616 0.930 1_655 S
C1610 C1598 1.410 1_556 S
C1610 C1611 1.345 . S
C1610 H1618 0.930 . S
C1611 C1609 1.407 . S
C1611 C1610 1.345 . S
C1611 H1613 0.930 . S
H1612 C1605 0.930 . S
H1613 C1611 0.930 . S
H1614 C1602 0.930 . S
H1615 C1603 0.933 . S
H1616 C1609 0.930 1_455 S
H1617 C1631 0.930 . S
H1618 C1610 0.930 . S
H1619 C1637 0.930 . S
H1620 C1628 0.930 . S
H1621 C1635 0.931 . S
H1622 C1599 0.929 . S
H1623 C1629 0.930 . S
H1624 C1662 0.930 . S
H1625 C1606 0.930 . S
H1626 C1661 0.929 . S
N1627 Tb1596 2.660 . S
N1627 C1628 1.305 . S
N1627 C1632 1.360 . S
C1628 H1620 0.930 . S
C1628 N1627 1.305 . S
C1628 C1631 1.407 . S
C1629 H1623 0.930 . S
C1629 C1630 1.410 . S
C1629 C1631 1.345 . S
C1630 C1629 1.410 . S
C1630 C1632 1.417 . S
C1630 C1662 1.432 . S
C1631 H1617 0.930 . S
C1631 C1628 1.407 . S
C1631 C1629 1.345 . S
C1632 N1627 1.360 . S
C1632 C1630 1.417 . S
C1632 C1636 1.432 1_554 S
H1633 C1638 0.930 . S
N1634 Tb1596 2.600 1_556 S
N1634 C1636 1.359 . S
N1634 C1637 1.327 . S
C1635 H1621 0.931 . S
C1635 C1637 1.392 . S
C1635 C1638 1.370 . S
C1636 C1632 1.432 1_556 S
C1636 N1634 1.359 . S
C1636 C1639 1.414 . S
C1637 H1619 0.930 . S
C1637 N1634 1.327 . S
C1637 C1635 1.392 . S
C1638 H1633 0.930 . S
C1638 C1635 1.370 . S
C1638 C1639 1.385 . S
C1639 C1636 1.414 . S
C1639 C1638 1.385 . S
C1639 C1661 1.444 . S
O1640 Tb1596 2.546 1_556 S
O1640 C1660 1.251 . S
O1641 Tb1596 2.610 . S
O1641 Tb1607 2.362 . S
O1641 C1652 1.283 . S
O1642 Tb1607 2.421 . S
O1642 C1659 1.262 . S
O1643 Tb1596 2.320 . S
O1643 C1659 1.260 . S
O1644 Tb1596 2.552 . S
O1644 C1652 1.243 . S
O1645 Tb1596 2.413 . S
O1645 C1660 1.256 1_554 S
O1646 Tb1607 2.546 . S
O1646 C1671 1.251 1_455 S
O1647 Tb1596 2.362 . S
O1647 Tb1607 2.610 . S
O1647 C1663 1.283 . S
O1648 Tb1596 2.421 1_556 S
O1648 C1670 1.262 . S
O1649 Tb1607 2.320 1_556 S
O1649 C1670 1.260 . S
O1650 Tb1607 2.552 . S
O1650 C1663 1.243 . S
O1651 Tb1607 2.413 1_655 S
O1651 C1671 1.256 . S
C1652 O1641 1.283 . S
C1652 O1644 1.243 . S
C1653 C1655 1.382 1_556 S
C1653 C1657 1.393 . S
C1653 C1660 1.500 . S
C1654 C1655 1.400 . S
C1654 C1656 1.384 1_554 S
C1655 C1653 1.382 1_554 S
C1655 C1654 1.400 . S
C1655 H1672 0.930 . S
C1656 C1654 1.384 1_556 S
C1656 C1658 1.392 . S
C1656 H1673 0.931 . S
C1657 C1653 1.393 . S
C1657 C1658 1.401 . S
C1657 H1674 0.930 . S
C1658 C1656 1.392 . S
C1658 C1657 1.401 . S
C1658 H1675 0.930 . S
C1659 O1642 1.262 . S
C1659 O1643 1.260 . S
C1660 Tb1596 2.833 1_556 S
C1660 O1640 1.251 . S
C1660 O1645 1.256 1_556 S
C1660 C1653 1.500 . S
C1661 H1626 0.929 . S
C1661 C1639 1.444 . S
C1661 C1662 1.317 1_556 S
C1662 H1624 0.930 . S
C1662 C1630 1.432 . S
C1662 C1661 1.317 1_554 S
C1663 O1647 1.283 . S
C1663 O1650 1.243 . S
C1664 C1665 1.382 . S
C1664 C1668 1.393 . S
C1664 C1671 1.500 . S
C1665 C1664 1.382 . S
C1665 C1666 1.400 . S
C1665 H1676 0.930 . S
C1666 C1665 1.400 . S
C1666 C1667 1.384 . S
C1667 C1666 1.384 . S
C1667 C1669 1.392 . S
C1667 H1677 0.931 . S
C1668 C1664 1.393 . S
C1668 C1669 1.401 . S
C1668 H1678 0.930 . S
C1669 C1667 1.392 . S
C1669 C1668 1.401 . S
C1669 H1679 0.930 . S
C1670 O1648 1.262 . S
C1670 O1649 1.260 . S
C1671 Tb1607 2.833 1_655 S
C1671 O1646 1.251 1_655 S
C1671 O1651 1.256 . S
C1671 C1664 1.500 . S
H1672 C1655 0.930 . S
H1673 C1656 0.931 . S
H1674 C1657 0.930 . S
H1675 C1658 0.930 . S
H1676 C1665 0.930 . S
H1677 C1667 0.931 . S
H1678 C1668 0.930 . S
H1679 C1669 0.930 . S
H1680 C1688 0.929 . S
H1681 C1690 0.930 . S
H1682 C1692 0.967 . S
H1683 C1695 0.929 1_655 S
H1684 C1698 0.930 . S
H1685 C1700 0.960 . S
H1686 C1700 0.971 . S
H1687 C1700 0.960 . S
C1688 H1680 0.929 . S
C1688 C1689 1.377 . S
C1688 C1690 1.384 . S
C1689 C1688 1.377 . S
C1689 C1695 1.390 . S
C1690 H1681 0.930 . S
C1690 C1688 1.384 . S
C1690 C1691 1.372 . S
C1691 C1690 1.372 . S
C1691 C1692 1.400 . S
C1691 C1696 1.490 . S
C1692 H1682 0.967 . S
C1692 C1691 1.400 . S
C1692 C1695 1.386 . S
H1693 C1709 0.930 . S
H1694 C1710 0.931 . S
C1695 H1683 0.929 1_455 S
C1695 C1689 1.390 . S
C1695 C1692 1.386 . S
C1696 C1691 1.490 . S
C1696 C1698 1.395 . S
C1696 C1699 1.403 . S
H1697 C1703 0.930 . S
C1698 H1684 0.930 . S
C1698 C1696 1.395 . S
C1698 C1701 1.422 . S
C1699 C1696 1.403 . S
C1699 C1700 1.524 1_455 S
C1699 C1703 1.400 . S
C1700 H1685 0.960 . S
C1700 H1686 0.971 . S
C1700 H1687 0.960 . S
C1700 C1699 1.524 1_655 S
C1701 C1698 1.422 . S
C1701 C1702 1.391 . S
C1701 C1705 1.480 1_556 S
C1702 C1701 1.391 . S
C1702 C1703 1.385 . S
C1702 C1704 1.478 1_556 S
C1703 H1697 0.930 . S
C1703 C1699 1.400 . S
C1703 C1702 1.385 . S
C1704 C1702 1.478 1_554 S
C1704 C1706 1.381 1_554 S
C1704 C1710 1.383 . S
C1705 C1701 1.480 1_554 S
C1705 H1711 0.959 . S
C1705 H1712 0.961 . S
C1705 H1713 0.960 . S
C1706 C1704 1.381 1_556 S
C1706 C1707 1.394 1_556 S
C1706 H1714 0.930 . S
C1707 C1706 1.394 1_554 S
C1707 C1708 1.383 . S
C1707 H1715 0.929 1_554 S
C1708 C1707 1.383 . S
C1708 C1709 1.377 . S
C1709 H1693 0.930 . S
C1709 C1708 1.377 . S
C1709 C1710 1.379 . S
C1710 H1694 0.931 . S
C1710 C1704 1.383 . S
C1710 C1709 1.379 . S
H1711 C1705 0.959 . S
H1712 C1705 0.961 . S
H1713 C1705 0.960 . S
H1714 C1706 0.930 . S
H1715 C1707 0.929 1_556 S
H1716 C1724 0.929 . S
H1717 C1726 0.930 . S
H1718 C1728 0.930 . S
H1719 C1731 0.929 . S
H1720 C1734 0.930 . S
H1721 C1736 0.960 . S
H1722 C1736 0.960 . S
H1723 C1736 0.960 . S
C1724 H1716 0.929 . S
C1724 C1725 1.377 . S
C1724 C1726 1.384 . S
C1725 C1724 1.377 . S
C1725 C1731 1.390 . S
C1726 H1717 0.930 . S
C1726 C1724 1.384 . S
C1726 C1727 1.372 . S
C1727 C1726 1.372 . S
C1727 C1728 1.400 . S
C1727 C1732 1.490 . S
C1728 H1718 0.930 . S
C1728 C1727 1.400 . S
C1728 C1731 1.386 . S
H1729 C1745 0.930 . S
H1730 C1746 0.931 . S
C1731 H1719 0.929 . S
C1731 C1725 1.390 . S
C1731 C1728 1.386 . S
C1732 C1727 1.490 . S
C1732 C1734 1.395 . S
C1732 C1735 1.403 . S
H1733 C1739 0.930 . S
C1734 H1720 0.930 . S
C1734 C1732 1.395 . S
C1734 C1737 1.403 . S
C1735 C1732 1.403 . S
C1735 C1736 1.524 . S
C1735 C1739 1.400 . S
C1736 H1721 0.960 . S
C1736 H1722 0.960 . S
C1736 H1723 0.960 . S
C1736 C1735 1.524 . S
C1737 C1734 1.403 . S
C1737 C1738 1.392 . S
C1737 C1741 1.495 . S
C1738 C1737 1.392 . S
C1738 C1739 1.385 . S
C1738 C1740 1.478 . S
C1739 H1733 0.930 . S
C1739 C1735 1.400 . S
C1739 C1738 1.385 . S
C1740 C1738 1.478 . S
C1740 C1742 1.381 . S
C1740 C1746 1.383 . S
C1741 C1737 1.495 . S
C1741 H1747 0.959 . S
C1741 H1748 0.961 . S
C1741 H1749 0.960 . S
C1742 C1740 1.381 . S
C1742 C1743 1.394 . S
C1742 H1750 0.930 . S
C1743 C1742 1.394 . S
C1743 C1744 1.383 . S
C1743 H1751 0.929 . S
C1744 C1743 1.383 . S
C1744 C1745 1.377 . S
C1745 H1729 0.930 . S
C1745 C1744 1.377 . S
C1745 C1746 1.379 . S
C1746 H1730 0.931 . S
C1746 C1740 1.383 . S
C1746 C1745 1.379 . S
H1747 C1741 0.959 . S
H1748 C1741 0.961 . S
H1749 C1741 0.960 . S
H1750 C1742 0.930 . S
H1751 C1743 0.929 . S
H1752 C1760 0.929 . S
H1753 C1762 0.930 . S
H1754 C1764 0.930 . S
H1755 C1767 0.929 . S
H1756 C1770 0.930 . S
H1757 C1772 0.960 . S
H1758 C1772 0.960 . S
H1759 C1772 0.960 . S
C1760 H1752 0.929 . S
C1760 C1761 1.377 . S
C1760 C1762 1.384 . S
C1761 C1760 1.377 . S
C1761 C1767 1.390 . S
C1762 H1753 0.930 . S
C1762 C1760 1.384 . S
C1762 C1763 1.372 . S
C1763 C1762 1.372 . S
C1763 C1764 1.400 . S
C1763 C1768 1.490 . S
C1764 H1754 0.930 . S
C1764 C1763 1.400 . S
C1764 C1767 1.386 . S
H1765 C1781 0.930 . S
H1766 C1782 0.931 . S
C1767 H1755 0.929 . S
C1767 C1761 1.390 . S
C1767 C1764 1.386 . S
C1768 C1763 1.490 . S
C1768 C1770 1.395 . S
C1768 C1771 1.403 . S
H1769 C1775 0.930 . S
C1770 H1756 0.930 . S
C1770 C1768 1.395 . S
C1770 C1773 1.403 . S
C1771 C1768 1.403 . S
C1771 C1772 1.524 . S
C1771 C1775 1.400 . S
C1772 H1757 0.960 . S
C1772 H1758 0.960 . S
C1772 H1759 0.960 . S
C1772 C1771 1.524 . S
C1773 C1770 1.403 . S
C1773 C1774 1.392 . S
C1773 C1777 1.495 . S
C1774 C1773 1.392 . S
C1774 C1775 1.385 . S
C1774 C1776 1.478 . S
C1775 H1769 0.930 . S
C1775 C1771 1.400 . S
C1775 C1774 1.385 . S
C1776 C1774 1.478 . S
C1776 C1778 1.381 . S
C1776 C1782 1.383 . S
C1777 C1773 1.495 . S
C1777 H1783 0.959 . S
C1777 H1784 0.961 . S
C1777 H1785 0.960 . S
C1778 C1776 1.381 . S
C1778 C1779 1.394 . S
C1778 H1786 0.930 . S
C1779 C1778 1.394 . S
C1779 C1780 1.383 . S
C1779 H1787 0.929 . S
C1780 C1779 1.383 . S
C1780 C1781 1.377 . S
C1781 H1765 0.930 . S
C1781 C1780 1.377 . S
C1781 C1782 1.379 . S
C1782 H1766 0.931 . S
C1782 C1776 1.383 . S
C1782 C1781 1.379 . S
H1783 C1777 0.959 . S
H1784 C1777 0.961 . S
H1785 C1777 0.960 . S
H1786 C1778 0.930 . S
H1787 C1779 0.929 . S
H1788 C1796 0.929 . S
H1789 C1798 0.930 . S
H1790 C1800 0.930 . S
H1791 C1803 0.929 . S
H1792 C1806 0.930 . S
H1793 C1808 0.960 . S
H1794 C1808 0.960 . S
H1795 C1808 0.960 . S
C1796 H1788 0.929 . S
C1796 C1797 1.377 . S
C1796 C1798 1.384 . S
C1797 C1796 1.377 . S
C1797 C1803 1.390 . S
C1798 H1789 0.930 . S
C1798 C1796 1.384 . S
C1798 C1799 1.372 . S
C1799 C1798 1.372 . S
C1799 C1800 1.400 . S
C1799 C1804 1.490 . S
C1800 H1790 0.930 . S
C1800 C1799 1.400 . S
C1800 C1803 1.386 . S
H1801 C1817 0.930 . S
H1802 C1818 0.931 . S
C1803 H1791 0.929 . S
C1803 C1797 1.390 . S
C1803 C1800 1.386 . S
C1804 C1799 1.490 . S
C1804 C1806 1.395 . S
C1804 C1807 1.403 . S
H1805 C1811 0.930 . S
C1806 H1792 0.930 . S
C1806 C1804 1.395 . S
C1806 C1809 1.403 . S
C1807 C1804 1.403 . S
C1807 C1808 1.524 . S
C1807 C1811 1.400 . S
C1808 H1793 0.960 . S
C1808 H1794 0.960 . S
C1808 H1795 0.960 . S
C1808 C1807 1.524 . S
C1809 C1806 1.403 . S
C1809 C1810 1.392 . S
C1809 C1813 1.495 . S
C1810 C1809 1.392 . S
C1810 C1811 1.385 . S
C1810 C1812 1.478 . S
C1811 H1805 0.930 . S
C1811 C1807 1.400 . S
C1811 C1810 1.385 . S
C1812 C1810 1.478 . S
C1812 C1814 1.381 . S
C1812 C1818 1.383 . S
C1813 C1809 1.495 . S
C1813 H1819 0.959 . S
C1813 H1820 0.961 . S
C1813 H1821 0.960 . S
C1814 C1812 1.381 . S
C1814 C1815 1.394 . S
C1814 H1822 0.930 . S
C1815 C1814 1.394 . S
C1815 C1816 1.383 . S
C1815 H1823 0.929 . S
C1816 C1815 1.383 . S
C1816 C1817 1.377 . S
C1817 H1801 0.930 . S
C1817 C1816 1.377 . S
C1817 C1818 1.379 . S
C1818 H1802 0.931 . S
C1818 C1812 1.383 . S
C1818 C1817 1.379 . S
H1819 C1813 0.959 . S
H1820 C1813 0.961 . S
H1821 C1813 0.960 . S
H1822 C1814 0.930 . S
H1823 C1815 0.929 . S
H1824 C1832 0.929 . S
H1825 C1834 0.930 . S
H1826 C1836 0.930 . S
H1827 C1839 0.929 . S
H1828 C1842 0.930 1_655 S
H1829 C1844 0.960 . S
H1830 C1844 0.960 . S
H1831 C1844 0.960 . S
C1832 H1824 0.929 . S
C1832 C1833 1.377 . S
C1832 C1834 1.384 . S
C1833 C1832 1.377 . S
C1833 C1839 1.390 . S
C1834 H1825 0.930 . S
C1834 C1832 1.384 . S
C1834 C1835 1.372 . S
C1835 C1834 1.372 . S
C1835 C1836 1.400 . S
C1835 C1840 1.490 . S
C1836 H1826 0.930 . S
C1836 C1835 1.400 . S
C1836 C1839 1.386 . S
H1837 C1853 0.930 . S
H1838 C1854 0.931 . S
C1839 H1827 0.929 . S
C1839 C1833 1.390 . S
C1839 C1836 1.386 . S
C1840 C1835 1.490 . S
C1840 C1842 1.395 . S
C1840 C1843 1.403 . S
H1841 C1847 0.930 . S
C1842 H1828 0.930 1_455 S
C1842 C1840 1.395 . S
C1842 C1845 1.403 . S
C1843 C1840 1.403 . S
C1843 C1844 1.524 . S
C1843 C1847 1.400 . S
C1844 H1829 0.960 . S
C1844 H1830 0.960 . S
C1844 H1831 0.960 . S
C1844 C1843 1.524 . S
C1845 C1842 1.403 . S
C1845 C1846 1.392 . S
C1845 C1849 1.495 1_455 S
C1846 C1845 1.392 . S
C1846 C1847 1.385 . S
C1846 C1848 1.478 . S
C1847 H1841 0.930 . S
C1847 C1843 1.400 . S
C1847 C1846 1.385 . S
C1848 C1846 1.478 . S
C1848 C1850 1.381 . S
C1848 C1854 1.383 . S
C1849 C1845 1.495 1_655 S
C1849 H1855 0.959 . S
C1849 H1856 0.961 . S
C1849 H1857 0.960 . S
C1850 C1848 1.381 . S
C1850 C1851 1.394 . S
C1850 H1858 0.930 . S
C1851 C1850 1.394 . S
C1851 C1852 1.383 . S
C1851 H1859 0.929 . S
C1852 C1851 1.383 . S
C1852 C1853 1.377 . S
C1853 H1837 0.930 . S
C1853 C1852 1.377 . S
C1853 C1854 1.379 . S
C1854 H1838 0.931 . S
C1854 C1848 1.383 . S
C1854 C1853 1.379 . S
H1855 C1849 0.959 . S
H1856 C1849 0.961 . S
H1857 C1849 0.960 . S
H1858 C1850 0.930 . S
H1859 C1851 0.929 . S
H1860 C1868 0.929 . S
H1861 C1870 0.930 . S
H1862 C1872 0.930 . S
H1863 C1875 0.929 . S
H1864 C1878 0.930 . S
H1865 C1880 0.960 . S
H1866 C1880 0.960 . S
H1867 C1880 0.960 . S
C1868 H1860 0.929 . S
C1868 C1869 1.377 . S
C1868 C1870 1.384 . S
C1869 C1868 1.377 . S
C1869 C1875 1.390 . S
C1870 H1861 0.930 . S
C1870 C1868 1.384 . S
C1870 C1871 1.372 . S
C1871 C1870 1.372 . S
C1871 C1872 1.400 . S
C1871 C1876 1.490 . S
C1872 H1862 0.930 . S
C1872 C1871 1.400 . S
C1872 C1875 1.386 . S
H1873 C1889 0.930 . S
H1874 C1890 0.931 . S
C1875 H1863 0.929 . S
C1875 C1869 1.390 . S
C1875 C1872 1.386 . S
C1876 C1871 1.490 . S
C1876 C1878 1.395 . S
C1876 C1879 1.403 . S
H1877 C1883 0.930 . S
C1878 H1864 0.930 . S
C1878 C1876 1.395 . S
C1878 C1881 1.403 . S
C1879 C1876 1.403 . S
C1879 C1880 1.524 . S
C1879 C1883 1.400 . S
C1880 H1865 0.960 . S
C1880 H1866 0.960 . S
C1880 H1867 0.960 . S
C1880 C1879 1.524 . S
C1881 C1878 1.403 . S
C1881 C1882 1.392 . S
C1881 C1885 1.495 . S
C1882 C1881 1.392 . S
C1882 C1883 1.385 . S
C1882 C1884 1.478 . S
C1883 H1877 0.930 . S
C1883 C1879 1.400 . S
C1883 C1882 1.385 . S
C1884 C1882 1.478 . S
C1884 C1886 1.381 . S
C1884 C1890 1.383 . S
C1885 C1881 1.495 . S
C1885 H1891 0.959 . S
C1885 H1892 0.961 . S
C1885 H1893 0.960 . S
C1886 C1884 1.381 . S
C1886 C1887 1.394 . S
C1886 H1894 0.930 . S
C1887 C1886 1.394 . S
C1887 C1888 1.383 . S
C1887 H1895 0.929 . S
C1888 C1887 1.383 . S
C1888 C1889 1.377 . S
C1889 H1873 0.930 . S
C1889 C1888 1.377 . S
C1889 C1890 1.379 . S
C1890 H1874 0.931 . S
C1890 C1884 1.383 . S
C1890 C1889 1.379 . S
H1891 C1885 0.959 . S
H1892 C1885 0.961 . S
H1893 C1885 0.960 . S
H1894 C1886 0.930 . S
H1895 C1887 0.929 . S
H1896 C1904 0.929 . S
H1897 C1906 0.930 . S
H1898 C1908 0.930 . S
H1899 C1911 0.929 . S
H1900 C1914 0.930 . S
H1901 C1916 0.960 . S
H1902 C1916 0.960 . S
H1903 C1916 0.960 . S
C1904 H1896 0.929 . S
C1904 C1905 1.377 . S
C1904 C1906 1.384 . S
C1905 C1904 1.377 . S
C1905 C1911 1.390 . S
C1906 H1897 0.930 . S
C1906 C1904 1.384 . S
C1906 C1907 1.372 . S
C1907 C1906 1.372 . S
C1907 C1908 1.400 . S
C1907 C1912 1.490 . S
C1908 H1898 0.930 . S
C1908 C1907 1.400 . S
C1908 C1911 1.386 . S
H1909 C1925 0.930 . S
H1910 C1926 0.931 . S
C1911 H1899 0.929 . S
C1911 C1905 1.390 . S
C1911 C1908 1.386 . S
C1912 C1907 1.490 . S
C1912 C1914 1.395 . S
C1912 C1915 1.403 . S
H1913 C1919 0.930 . S
C1914 H1900 0.930 . S
C1914 C1912 1.395 . S
C1914 C1917 1.403 . S
C1915 C1912 1.403 . S
C1915 C1916 1.524 . S
C1915 C1919 1.400 . S
C1916 H1901 0.960 . S
C1916 H1902 0.960 . S
C1916 H1903 0.960 . S
C1916 C1915 1.524 . S
C1917 C1914 1.403 . S
C1917 C1918 1.392 . S
C1917 C1921 1.495 . S
C1918 C1917 1.392 . S
C1918 C1919 1.385 . S
C1918 C1920 1.478 . S
C1919 H1913 0.930 . S
C1919 C1915 1.400 . S
C1919 C1918 1.385 . S
C1920 C1918 1.478 . S
C1920 C1922 1.381 . S
C1920 C1926 1.383 . S
C1921 C1917 1.495 . S
C1921 H1927 0.959 . S
C1921 H1928 0.961 . S
C1921 H1929 0.960 . S
C1922 C1920 1.381 . S
C1922 C1923 1.394 . S
C1922 H1930 0.930 . S
C1923 C1922 1.394 . S
C1923 C1924 1.383 . S
C1923 H1931 0.929 . S
C1924 C1923 1.383 . S
C1924 C1925 1.377 . S
C1925 H1909 0.930 . S
C1925 C1924 1.377 . S
C1925 C1926 1.379 . S
C1926 H1910 0.931 . S
C1926 C1920 1.383 . S
C1926 C1925 1.379 . S
H1927 C1921 0.959 . S
H1928 C1921 0.961 . S
H1929 C1921 0.960 . S
H1930 C1922 0.930 . S
H1931 C1923 0.929 . S
H1932 C1940 0.929 . S
H1933 C1942 0.930 . S
H1934 C1944 0.930 . S
H1935 C1947 0.929 . S
H1936 C1950 0.930 . S
H1937 C1952 0.960 . S
H1938 C1952 0.960 . S
H1939 C1952 0.960 . S
C1940 H1932 0.929 . S
C1940 C1941 1.377 . S
C1940 C1942 1.384 . S
C1941 C1940 1.377 . S
C1941 C1947 1.390 . S
C1942 H1933 0.930 . S
C1942 C1940 1.384 . S
C1942 C1943 1.372 . S
C1943 C1942 1.372 . S
C1943 C1944 1.400 . S
C1943 C1948 1.490 . S
C1944 H1934 0.930 . S
C1944 C1943 1.400 . S
C1944 C1947 1.386 . S
H1945 C1961 0.930 . S
H1946 C1962 0.931 . S
C1947 H1935 0.929 . S
C1947 C1941 1.390 . S
C1947 C1944 1.386 . S
C1948 C1943 1.490 . S
C1948 C1950 1.395 . S
C1948 C1951 1.403 . S
H1949 C1955 0.930 . S
C1950 H1936 0.930 . S
C1950 C1948 1.395 . S
C1950 C1953 1.403 . S
C1951 C1948 1.403 . S
C1951 C1952 1.524 . S
C1951 C1955 1.400 . S
C1952 H1937 0.960 . S
C1952 H1938 0.960 . S
C1952 H1939 0.960 . S
C1952 C1951 1.524 . S
C1953 C1950 1.403 . S
C1953 C1954 1.392 . S
C1953 C1957 1.495 . S
C1954 C1953 1.392 . S
C1954 C1955 1.385 . S
C1954 C1956 1.478 . S
C1955 H1949 0.930 . S
C1955 C1951 1.400 . S
C1955 C1954 1.385 . S
C1956 C1954 1.478 . S
C1956 C1958 1.381 . S
C1956 C1962 1.383 . S
C1957 C1953 1.495 . S
C1957 H1963 0.959 . S
C1957 H1964 0.961 . S
C1957 H1965 0.960 . S
C1958 C1956 1.381 . S
C1958 C1959 1.394 . S
C1958 H1966 0.930 . S
C1959 C1958 1.394 . S
C1959 C1960 1.383 . S
C1959 H1967 0.929 . S
C1960 C1959 1.383 . S
C1960 C1961 1.377 . S
C1961 H1945 0.930 . S
C1961 C1960 1.377 . S
C1961 C1962 1.379 . S
C1962 H1946 0.931 . S
C1962 C1956 1.383 . S
C1962 C1961 1.379 . S
H1963 C1957 0.959 . S
H1964 C1957 0.961 . S
H1965 C1957 0.960 . S
H1966 C1958 0.930 . S
H1967 C1959 0.929 . S
H1968 C1976 0.929 . S
H1969 C1978 0.930 . S
H1970 C1980 0.930 1_455 S
H1971 C1983 0.929 . S
H1972 C1986 0.930 . S
H1973 C1988 0.960 1_455 S
H1974 C1988 0.960 . S
H1975 C1988 0.960 1_455 S
C1976 H1968 0.929 . S
C1976 C1977 1.377 . S
C1976 C1978 1.384 . S
C1977 C1976 1.377 . S
C1977 C1983 1.390 . S
C1978 H1969 0.930 . S
C1978 C1976 1.384 . S
C1978 C1979 1.372 . S
C1979 C1978 1.372 . S
C1979 C1980 1.400 . S
C1979 C1984 1.490 . S
C1980 H1970 0.930 1_655 S
C1980 C1979 1.400 . S
C1980 C1983 1.386 . S
H1981 C1997 0.930 . S
H1982 C1998 0.931 . S
C1983 H1971 0.929 . S
C1983 C1977 1.390 . S
C1983 C1980 1.386 . S
C1984 C1979 1.490 . S
C1984 C1986 1.395 . S
C1984 C1987 1.422 . S
H1985 C1991 0.930 . S
C1986 H1972 0.930 . S
C1986 C1984 1.395 . S
C1986 C1989 1.395 1_655 S
C1987 C1984 1.422 . S
C1987 C1988 1.519 . S
C1987 C1991 1.386 1_655 S
C1988 H1973 0.960 1_655 S
C1988 H1974 0.960 . S
C1988 H1975 0.960 1_655 S
C1988 C1987 1.519 . S
C1989 C1986 1.395 1_455 S
C1989 C1990 1.404 . S
C1989 C1993 1.499 . S
C1990 C1989 1.404 . S
C1990 C1991 1.385 . S
C1990 C1992 1.478 . S
C1991 H1985 0.930 . S
C1991 C1987 1.386 1_455 S
C1991 C1990 1.385 . S
C1992 C1990 1.478 . S
C1992 C1994 1.381 . S
C1992 C1998 1.383 . S
C1993 C1989 1.499 . S
C1993 H1999 0.933 1_455 S
C1993 H2000 0.997 . S
C1993 H2001 0.944 1_455 S
C1994 C1992 1.381 . S
C1994 C1995 1.394 . S
C1994 H2002 0.930 1_455 S
C1995 C1994 1.394 . S
C1995 C1996 1.383 . S
C1995 H2003 0.929 . S
C1996 C1995 1.383 . S
C1996 C1997 1.377 . S
C1997 H1981 0.930 . S
C1997 C1996 1.377 . S
C1997 C1998 1.379 . S
C1998 H1982 0.931 . S
C1998 C1992 1.383 . S
C1998 C1997 1.379 . S
H1999 C1993 0.933 1_655 S
H2000 C1993 0.997 . S
H2001 C1993 0.944 1_655 S
H2002 C1994 0.930 1_655 S
H2003 C1995 0.929 . S
H2004 C2012 0.929 . S
H2005 C2014 0.930 . S
H2006 C2016 0.930 . S
H2007 C2019 0.929 . S
H2008 C2022 0.930 . S
H2009 C2024 0.960 . S
H2010 C2024 0.960 . S
H2011 C2024 0.960 . S
C2012 H2004 0.929 . S
C2012 C2013 1.377 . S
C2012 C2014 1.384 . S
C2013 C2012 1.377 . S
C2013 C2019 1.390 . S
C2014 H2005 0.930 . S
C2014 C2012 1.384 . S
C2014 C2015 1.372 . S
C2015 C2014 1.372 . S
C2015 C2016 1.400 . S
C2015 C2020 1.490 . S
C2016 H2006 0.930 . S
C2016 C2015 1.400 . S
C2016 C2019 1.386 . S
H2017 C2033 0.930 . S
H2018 C2034 0.931 . S
C2019 H2007 0.929 . S
C2019 C2013 1.390 . S
C2019 C2016 1.386 . S
C2020 C2015 1.490 . S
C2020 C2022 1.395 . S
C2020 C2023 1.403 . S
H2021 C2027 0.930 . S
C2022 H2008 0.930 . S
C2022 C2020 1.395 . S
C2022 C2025 1.403 . S
C2023 C2020 1.403 . S
C2023 C2024 1.524 . S
C2023 C2027 1.400 . S
C2024 H2009 0.960 . S
C2024 H2010 0.960 . S
C2024 H2011 0.960 . S
C2024 C2023 1.524 . S
C2025 C2022 1.403 . S
C2025 C2026 1.392 . S
C2025 C2029 1.495 . S
C2026 C2025 1.392 . S
C2026 C2027 1.385 . S
C2026 C2028 1.478 . S
C2027 H2021 0.930 . S
C2027 C2023 1.400 . S
C2027 C2026 1.385 . S
C2028 C2026 1.478 . S
C2028 C2030 1.381 . S
C2028 C2034 1.383 . S
C2029 C2025 1.495 . S
C2029 H2035 0.959 . S
C2029 H2036 0.961 . S
C2029 H2037 0.960 . S
C2030 C2028 1.381 . S
C2030 C2031 1.394 . S
C2030 H2038 0.930 . S
C2031 C2030 1.394 . S
C2031 C2032 1.383 . S
C2031 H2039 0.929 . S
C2032 C2031 1.383 . S
C2032 C2033 1.377 . S
C2033 H2017 0.930 . S
C2033 C2032 1.377 . S
C2033 C2034 1.379 . S
C2034 H2018 0.931 . S
C2034 C2028 1.383 . S
C2034 C2033 1.379 . S
H2035 C2029 0.959 . S
H2036 C2029 0.961 . S
H2037 C2029 0.960 . S
H2038 C2030 0.930 . S
H2039 C2031 0.929 . S
H2040 C2048 0.929 . S
H2041 C2050 0.930 . S
H2042 C2052 0.930 . S
H2043 C2055 0.929 . S
H2044 C2058 0.930 . S
H2045 C2060 0.960 . S
H2046 C2060 0.960 . S
H2047 C2060 0.960 . S
C2048 H2040 0.929 . S
C2048 C2049 1.377 . S
C2048 C2050 1.384 . S
C2049 C2048 1.377 . S
C2049 C2055 1.390 . S
C2050 H2041 0.930 . S
C2050 C2048 1.384 . S
C2050 C2051 1.372 . S
C2051 C2050 1.372 . S
C2051 C2052 1.400 . S
C2051 C2056 1.490 . S
C2052 H2042 0.930 . S
C2052 C2051 1.400 . S
C2052 C2055 1.386 . S
H2053 C2069 0.930 . S
H2054 C2070 0.931 . S
C2055 H2043 0.929 . S
C2055 C2049 1.390 . S
C2055 C2052 1.386 . S
C2056 C2051 1.490 . S
C2056 C2058 1.395 . S
C2056 C2059 1.403 . S
H2057 C2063 0.930 . S
C2058 H2044 0.930 . S
C2058 C2056 1.395 . S
C2058 C2061 1.403 . S
C2059 C2056 1.403 . S
C2059 C2060 1.524 . S
C2059 C2063 1.400 . S
C2060 H2045 0.960 . S
C2060 H2046 0.960 . S
C2060 H2047 0.960 . S
C2060 C2059 1.524 . S
C2061 C2058 1.403 . S
C2061 C2062 1.392 . S
C2061 C2065 1.495 1_545 S
C2062 C2061 1.392 . S
C2062 C2063 1.385 . S
C2062 C2064 1.478 . S
C2063 H2057 0.930 . S
C2063 C2059 1.400 . S
C2063 C2062 1.385 . S
C2064 C2062 1.478 . S
C2064 C2066 1.381 . S
C2064 C2070 1.383 . S
C2065 C2061 1.495 1_565 S
C2065 H2071 0.959 . S
C2065 H2072 0.961 . S
C2065 H2073 0.960 . S
C2066 C2064 1.381 . S
C2066 C2067 1.394 . S
C2066 H2074 0.930 . S
C2067 C2066 1.394 . S
C2067 C2068 1.383 . S
C2067 H2075 0.929 . S
C2068 C2067 1.383 . S
C2068 C2069 1.377 . S
C2069 H2053 0.930 . S
C2069 C2068 1.377 . S
C2069 C2070 1.379 . S
C2070 H2054 0.931 . S
C2070 C2064 1.383 . S
C2070 C2069 1.379 . S
H2071 C2065 0.959 . S
H2072 C2065 0.961 . S
H2073 C2065 0.960 . S
H2074 C2066 0.930 . S
H2075 C2067 0.929 . S
H2076 C2084 0.929 . S
H2077 C2086 0.930 . S
H2078 C2088 0.930 . S
H2079 C2091 0.929 . S
H2080 C2094 0.930 . S
H2081 C2096 0.960 . S
H2082 C2096 0.960 . S
H2083 C2096 0.960 . S
C2084 H2076 0.929 . S
C2084 C2085 1.377 . S
C2084 C2086 1.384 . S
C2085 C2084 1.377 . S
C2085 C2091 1.390 . S
C2086 H2077 0.930 . S
C2086 C2084 1.384 . S
C2086 C2087 1.372 . S
C2087 C2086 1.372 . S
C2087 C2088 1.400 . S
C2087 C2092 1.490 . S
C2088 H2078 0.930 . S
C2088 C2087 1.400 . S
C2088 C2091 1.386 . S
H2089 C2105 0.930 . S
H2090 C2106 0.931 . S
C2091 H2079 0.929 . S
C2091 C2085 1.390 . S
C2091 C2088 1.386 . S
C2092 C2087 1.490 . S
C2092 C2094 1.395 . S
C2092 C2095 1.403 . S
H2093 C2099 0.930 . S
C2094 H2080 0.930 . S
C2094 C2092 1.395 . S
C2094 C2097 1.403 . S
C2095 C2092 1.403 . S
C2095 C2096 1.524 . S
C2095 C2099 1.400 . S
C2096 H2081 0.960 . S
C2096 H2082 0.960 . S
C2096 H2083 0.960 . S
C2096 C2095 1.524 . S
C2097 C2094 1.403 . S
C2097 C2098 1.392 . S
C2097 C2101 1.495 . S
C2098 C2097 1.392 . S
C2098 C2099 1.385 . S
C2098 C2100 1.478 . S
C2099 H2093 0.930 . S
C2099 C2095 1.400 . S
C2099 C2098 1.385 . S
C2100 C2098 1.478 . S
C2100 C2102 1.381 . S
C2100 C2106 1.383 . S
C2101 C2097 1.495 . S
C2101 H2107 0.959 . S
C2101 H2108 0.961 . S
C2101 H2109 0.960 . S
C2102 C2100 1.381 . S
C2102 C2103 1.394 . S
C2102 H2110 0.930 . S
C2103 C2102 1.394 . S
C2103 C2104 1.383 . S
C2103 H2111 0.929 . S
C2104 C2103 1.383 . S
C2104 C2105 1.377 . S
C2105 H2089 0.930 . S
C2105 C2104 1.377 . S
C2105 C2106 1.379 . S
C2106 H2090 0.931 . S
C2106 C2100 1.383 . S
C2106 C2105 1.379 . S
H2107 C2101 0.959 . S
H2108 C2101 0.961 . S
H2109 C2101 0.960 . S
H2110 C2102 0.930 . S
H2111 C2103 0.929 . S
H2112 C2120 0.929 . S
H2113 C2122 0.930 . S
H2114 C2124 0.930 . S
H2115 C2127 0.929 . S
H2116 C2130 0.930 . S
H2117 C2132 0.960 . S
H2118 C2132 0.960 . S
H2119 C2132 0.960 . S
C2120 H2112 0.929 . S
C2120 C2121 1.377 . S
C2120 C2122 1.384 . S
C2121 C2120 1.377 . S
C2121 C2127 1.390 . S
C2122 H2113 0.930 . S
C2122 C2120 1.384 . S
C2122 C2123 1.372 . S
C2123 C2122 1.372 . S
C2123 C2124 1.400 . S
C2123 C2128 1.490 . S
C2124 H2114 0.930 . S
C2124 C2123 1.400 . S
C2124 C2127 1.386 . S
H2125 C2141 0.930 . S
H2126 C2142 0.931 . S
C2127 H2115 0.929 . S
C2127 C2121 1.390 . S
C2127 C2124 1.386 . S
C2128 C2123 1.490 . S
C2128 C2130 1.395 1_655 S
C2128 C2131 1.403 . S
H2129 C2135 0.930 . S
C2130 H2116 0.930 . S
C2130 C2128 1.395 1_455 S
C2130 C2133 1.403 . S
C2131 C2128 1.403 . S
C2131 C2132 1.524 . S
C2131 C2135 1.400 . S
C2132 H2117 0.960 . S
C2132 H2118 0.960 . S
C2132 H2119 0.960 . S
C2132 C2131 1.524 . S
C2133 C2130 1.403 . S
C2133 C2134 1.392 . S
C2133 C2137 1.495 . S
C2134 C2133 1.392 . S
C2134 C2135 1.385 1_455 S
C2134 C2136 1.478 . S
C2135 H2129 0.930 . S
C2135 C2131 1.400 . S
C2135 C2134 1.385 1_655 S
C2136 C2134 1.478 . S
C2136 C2138 1.381 . S
C2136 C2142 1.383 . S
C2137 C2133 1.495 . S
C2137 H2143 0.959 . S
C2137 H2144 0.961 . S
C2137 H2145 0.960 . S
C2138 C2136 1.381 . S
C2138 C2139 1.394 . S
C2138 H2146 0.930 . S
C2139 C2138 1.394 . S
C2139 C2140 1.383 . S
C2139 H2147 0.929 . S
C2140 C2139 1.383 . S
C2140 C2141 1.377 . S
C2141 H2125 0.930 . S
C2141 C2140 1.377 . S
C2141 C2142 1.379 . S
C2142 H2126 0.931 . S
C2142 C2136 1.383 . S
C2142 C2141 1.379 . S
H2143 C2137 0.959 . S
H2144 C2137 0.961 . S
H2145 C2137 0.960 . S
H2146 C2138 0.930 . S
H2147 C2139 0.929 . S
H2148 C2156 0.929 . S
H2149 C2158 0.930 . S
H2150 C2160 0.930 . S
H2151 C2163 0.929 . S
H2152 C2166 0.930 . S
H2153 C2168 0.960 . S
H2154 C2168 0.960 . S
H2155 C2168 0.960 . S
C2156 H2148 0.929 . S
C2156 C2157 1.377 . S
C2156 C2158 1.384 . S
C2157 C2156 1.377 . S
C2157 C2163 1.390 . S
C2158 H2149 0.930 . S
C2158 C2156 1.384 . S
C2158 C2159 1.372 . S
C2159 C2158 1.372 . S
C2159 C2160 1.400 . S
C2159 C2164 1.490 . S
C2160 H2150 0.930 . S
C2160 C2159 1.400 . S
C2160 C2163 1.386 . S
H2161 C2177 0.930 . S
H2162 C2178 0.931 . S
C2163 H2151 0.929 . S
C2163 C2157 1.390 . S
C2163 C2160 1.386 . S
C2164 C2159 1.490 . S
C2164 C2166 1.395 . S
C2164 C2167 1.403 . S
H2165 C2171 0.930 . S
C2166 H2152 0.930 . S
C2166 C2164 1.395 . S
C2166 C2169 1.403 . S
C2167 C2164 1.403 . S
C2167 C2168 1.524 . S
C2167 C2171 1.400 . S
C2168 H2153 0.960 . S
C2168 H2154 0.960 . S
C2168 H2155 0.960 . S
C2168 C2167 1.524 . S
C2169 C2166 1.403 . S
C2169 C2170 1.392 . S
C2169 C2173 1.495 . S
C2170 C2169 1.392 . S
C2170 C2171 1.385 . S
C2170 C2172 1.478 . S
C2171 H2165 0.930 . S
C2171 C2167 1.400 . S
C2171 C2170 1.385 . S
C2172 C2170 1.478 . S
C2172 C2174 1.381 . S
C2172 C2178 1.383 . S
C2173 C2169 1.495 . S
C2173 H2179 0.959 . S
C2173 H2180 0.961 . S
C2173 H2181 0.960 . S
C2174 C2172 1.381 . S
C2174 C2175 1.394 . S
C2174 H2182 0.930 . S
C2175 C2174 1.394 . S
C2175 C2176 1.383 . S
C2175 H2183 0.929 . S
C2176 C2175 1.383 . S
C2176 C2177 1.377 . S
C2177 H2161 0.930 . S
C2177 C2176 1.377 . S
C2177 C2178 1.379 . S
C2178 H2162 0.931 . S
C2178 C2172 1.383 . S
C2178 C2177 1.379 . S
H2179 C2173 0.959 . S
H2180 C2173 0.961 . S
H2181 C2173 0.960 . S
H2182 C2174 0.930 . S
H2183 C2175 0.929 . S
H2184 C2192 0.929 . S
H2185 C2194 0.930 . S
H2186 C2196 0.930 . S
H2187 C2199 0.929 . S
H2188 C2202 0.930 . S
H2189 C2204 0.960 . S
H2190 C2204 0.960 . S
H2191 C2204 0.960 . S
C2192 H2184 0.929 . S
C2192 C2193 1.377 . S
C2192 C2194 1.384 . S
C2193 C2192 1.377 . S
C2193 C2199 1.390 . S
C2194 H2185 0.930 . S
C2194 C2192 1.384 . S
C2194 C2195 1.372 . S
C2195 C2194 1.372 . S
C2195 C2196 1.400 . S
C2195 C2200 1.490 . S
C2196 H2186 0.930 . S
C2196 C2195 1.400 . S
C2196 C2199 1.386 . S
H2197 C2213 0.930 . S
H2198 C2214 0.931 . S
C2199 H2187 0.929 . S
C2199 C2193 1.390 . S
C2199 C2196 1.386 . S
C2200 C2195 1.490 . S
C2200 C2202 1.395 . S
C2200 C2203 1.403 . S
H2201 C2207 0.930 . S
C2202 H2188 0.930 . S
C2202 C2200 1.395 . S
C2202 C2205 1.403 . S
C2203 C2200 1.403 . S
C2203 C2204 1.524 . S
C2203 C2207 1.400 . S
C2204 H2189 0.960 . S
C2204 H2190 0.960 . S
C2204 H2191 0.960 . S
C2204 C2203 1.524 . S
C2205 C2202 1.403 . S
C2205 C2206 1.392 . S
C2205 C2209 1.495 . S
C2206 C2205 1.392 . S
C2206 C2207 1.385 . S
C2206 C2208 1.478 . S
C2207 H2201 0.930 . S
C2207 C2203 1.400 . S
C2207 C2206 1.385 . S
C2208 C2206 1.478 . S
C2208 C2210 1.381 . S
C2208 C2214 1.383 . S
C2209 C2205 1.495 . S
C2209 H2215 0.959 . S
C2209 H2216 0.961 . S
C2209 H2217 0.960 . S
C2210 C2208 1.381 . S
C2210 C2211 1.394 . S
C2210 H2218 0.930 . S
C2211 C2210 1.394 . S
C2211 C2212 1.383 . S
C2211 H2219 0.929 . S
C2212 C2211 1.383 . S
C2212 C2213 1.377 . S
C2213 H2197 0.930 . S
C2213 C2212 1.377 . S
C2213 C2214 1.379 . S
C2214 H2198 0.931 . S
C2214 C2208 1.383 . S
C2214 C2213 1.379 . S
H2215 C2209 0.959 . S
H2216 C2209 0.961 . S
H2217 C2209 0.960 . S
H2218 C2210 0.930 . S
H2219 C2211 0.929 . S
H2220 C2228 0.929 . S
H2221 C2230 0.930 . S
H2222 C2232 0.930 . S
H2223 C2235 0.929 . S
H2224 C2238 0.930 . S
H2225 C2240 0.960 . S
H2226 C2240 0.960 . S
H2227 C2240 0.960 . S
C2228 H2220 0.929 . S
C2228 C2229 1.377 . S
C2228 C2230 1.384 . S
C2229 C2228 1.377 . S
C2229 C2235 1.390 . S
C2230 H2221 0.930 . S
C2230 C2228 1.384 . S
C2230 C2231 1.372 . S
C2231 C2230 1.372 . S
C2231 C2232 1.400 . S
C2231 C2236 1.490 . S
C2232 H2222 0.930 . S
C2232 C2231 1.400 . S
C2232 C2235 1.386 . S
H2233 C2249 0.930 . S
H2234 C2250 0.931 . S
C2235 H2223 0.929 . S
C2235 C2229 1.390 . S
C2235 C2232 1.386 . S
C2236 C2231 1.490 . S
C2236 C2238 1.395 . S
C2236 C2239 1.403 . S
H2237 C2243 0.930 . S
C2238 H2224 0.930 . S
C2238 C2236 1.395 . S
C2238 C2241 1.403 . S
C2239 C2236 1.403 . S
C2239 C2240 1.524 . S
C2239 C2243 1.400 . S
C2240 H2225 0.960 . S
C2240 H2226 0.960 . S
C2240 H2227 0.960 . S
C2240 C2239 1.524 . S
C2241 C2238 1.403 . S
C2241 C2242 1.392 . S
C2241 C2245 1.495 . S
C2242 C2241 1.392 . S
C2242 C2243 1.385 . S
C2242 C2244 1.478 . S
C2243 H2237 0.930 . S
C2243 C2239 1.400 . S
C2243 C2242 1.385 . S
C2244 C2242 1.478 . S
C2244 C2246 1.381 . S
C2244 C2250 1.383 . S
C2245 C2241 1.495 . S
C2245 H2251 0.959 . S
C2245 H2252 0.961 . S
C2245 H2253 0.960 . S
C2246 C2244 1.381 . S
C2246 C2247 1.394 . S
C2246 H2254 0.930 . S
C2247 C2246 1.394 . S
C2247 C2248 1.383 . S
C2247 H2255 0.929 . S
C2248 C2247 1.383 . S
C2248 C2249 1.377 . S
C2249 H2233 0.930 . S
C2249 C2248 1.377 . S
C2249 C2250 1.379 . S
C2250 H2234 0.931 . S
C2250 C2244 1.383 . S
C2250 C2249 1.379 . S
H2251 C2245 0.959 . S
H2252 C2245 0.961 . S
H2253 C2245 0.960 . S
H2254 C2246 0.930 . S
H2255 C2247 0.929 . S
H2256 C2264 0.929 . S
H2257 C2266 0.930 . S
H2258 C2268 0.930 1_556 S
H2259 C2271 0.929 1_556 S
H2260 C2274 0.930 . S
H2261 C2276 0.960 . S
H2262 C2276 0.960 . S
H2263 C2276 0.965 1_556 S
C2264 H2256 0.929 . S
C2264 C2265 1.377 . S
C2264 C2266 1.384 . S
C2265 C2264 1.377 . S
C2265 C2271 1.390 . S
C2266 H2257 0.930 . S
C2266 C2264 1.384 . S
C2266 C2267 1.372 . S
C2267 C2266 1.372 . S
C2267 C2268 1.400 . S
C2267 C2272 1.490 . S
C2268 H2258 0.930 1_554 S
C2268 C2267 1.400 . S
C2268 C2271 1.386 . S
H2269 C2285 0.930 . S
H2270 C2286 0.931 . S
C2271 H2259 0.929 1_554 S
C2271 C2265 1.390 . S
C2271 C2268 1.386 . S
C2272 C2267 1.490 . S
C2272 C2274 1.395 1_565 S
C2272 C2275 1.403 . S
H2273 C2279 0.930 . S
C2274 H2260 0.930 . S
C2274 C2272 1.395 1_545 S
C2274 C2277 1.403 . S
C2275 C2272 1.403 . S
C2275 C2276 1.524 . S
C2275 C2279 1.400 . S
C2276 H2261 0.960 . S
C2276 H2262 0.960 . S
C2276 H2263 0.965 1_554 S
C2276 C2275 1.524 . S
C2277 C2274 1.403 . S
C2277 C2278 1.392 1_545 S
C2277 C2281 1.495 . S
C2278 C2277 1.392 1_565 S
C2278 C2279 1.385 . S
C2278 C2280 1.478 1_565 S
C2279 H2273 0.930 . S
C2279 C2275 1.400 . S
C2279 C2278 1.385 . S
C2280 C2278 1.478 1_545 S
C2280 C2282 1.381 . S
C2280 C2286 1.383 . S
C2281 C2277 1.495 . S
C2281 H2287 0.959 . S
C2281 H2288 0.961 . S
C2281 H2289 0.960 . S
C2282 C2280 1.381 . S
C2282 C2283 1.394 . S
C2282 H2290 0.930 . S
C2283 C2282 1.394 . S
C2283 C2284 1.383 . S
C2283 H2291 0.929 . S
C2284 C2283 1.383 . S
C2284 C2285 1.377 . S
C2285 H2269 0.930 . S
C2285 C2284 1.377 . S
C2285 C2286 1.379 . S
C2286 H2270 0.931 . S
C2286 C2280 1.383 . S
C2286 C2285 1.379 . S
H2287 C2281 0.959 . S
H2288 C2281 0.961 . S
H2289 C2281 0.960 . S
H2290 C2282 0.930 . S
H2291 C2283 0.929 . S
H2292 C2300 0.929 . S
H2293 C2302 0.930 . S
H2294 C2304 0.937 . S
H2295 C2307 0.930 1_554 S
H2296 C2310 0.930 . S
H2297 C2312 0.960 . S
H2298 C2312 0.960 . S
H2299 C2312 0.960 . S
C2300 H2292 0.929 . S
C2300 C2301 1.377 . S
C2300 C2302 1.384 . S
C2301 C2300 1.377 . S
C2301 C2307 1.389 . S
C2302 H2293 0.930 . S
C2302 C2300 1.384 . S
C2302 C2303 1.372 . S
C2303 C2302 1.372 . S
C2303 C2304 1.399 1_556 S
C2303 C2308 1.490 . S
C2304 H2294 0.937 . S
C2304 C2303 1.399 1_554 S
C2304 C2307 1.381 1_554 S
H2305 C2321 0.930 . S
H2306 C2322 0.931 . S
C2307 H2295 0.930 1_556 S
C2307 C2301 1.389 . S
C2307 C2304 1.381 1_556 S
C2308 C2303 1.490 . S
C2308 C2310 1.395 1_556 S
C2308 C2311 1.403 . S
H2309 C2315 0.930 . S
C2310 H2296 0.930 . S
C2310 C2308 1.395 1_554 S
C2310 C2313 1.403 . S
C2311 C2308 1.403 . S
C2311 C2312 1.524 . S
C2311 C2315 1.400 . S
C2312 H2297 0.960 . S
C2312 H2298 0.960 . S
C2312 H2299 0.960 . S
C2312 C2311 1.524 . S
C2313 C2310 1.403 . S
C2313 C2314 1.420 . S
C2313 C2317 1.495 . S
C2314 C2313 1.420 . S
C2314 C2315 1.345 1_554 S
C2314 C2316 1.490 . S
C2315 H2309 0.930 . S
C2315 C2311 1.400 . S
C2315 C2314 1.345 1_556 S
C2316 C2314 1.490 . S
C2316 C2318 1.381 1_554 S
C2316 C2322 1.383 . S
C2317 C2313 1.495 . S
C2317 H2323 0.959 . S
C2317 H2324 0.961 . S
C2317 H2325 0.960 . S
C2318 C2316 1.381 1_556 S
C2318 C2319 1.394 . S
C2318 H2326 0.930 . S
C2319 C2318 1.394 . S
C2319 C2320 1.383 1_556 S
C2319 H2327 0.929 . S
C2320 C2319 1.383 1_554 S
C2320 C2321 1.377 . S
C2321 H2305 0.930 . S
C2321 C2320 1.377 . S
C2321 C2322 1.379 . S
C2322 H2306 0.931 . S
C2322 C2316 1.383 . S
C2322 C2321 1.379 . S
H2323 C2317 0.959 . S
H2324 C2317 0.961 . S
H2325 C2317 0.960 . S
H2326 C2318 0.930 . S
H2327 C2319 0.929 . S
H2328 C2336 0.929 . S
H2329 C2338 0.930 . S
H2330 C2340 0.930 . S
H2331 C2343 0.929 . S
H2332 C2346 0.930 . S
H2333 C2348 0.960 . S
H2334 C2348 0.960 . S
H2335 C2348 0.960 . S
C2336 H2328 0.929 . S
C2336 C2337 1.377 . S
C2336 C2338 1.384 . S
C2337 C2336 1.377 . S
C2337 C2343 1.390 . S
C2338 H2329 0.930 . S
C2338 C2336 1.384 . S
C2338 C2339 1.372 . S
C2339 C2338 1.372 . S
C2339 C2340 1.400 . S
C2339 C2344 1.490 . S
C2340 H2330 0.930 . S
C2340 C2339 1.400 . S
C2340 C2343 1.386 . S
H2341 C2357 0.930 . S
H2342 C2358 0.931 . S
C2343 H2331 0.929 . S
C2343 C2337 1.390 . S
C2343 C2340 1.386 . S
C2344 C2339 1.490 . S
C2344 C2346 1.395 . S
C2344 C2347 1.403 . S
H2345 C2351 0.930 . S
C2346 H2332 0.930 . S
C2346 C2344 1.395 . S
C2346 C2349 1.403 . S
C2347 C2344 1.403 . S
C2347 C2348 1.524 . S
C2347 C2351 1.400 . S
C2348 H2333 0.960 . S
C2348 H2334 0.960 . S
C2348 H2335 0.960 . S
C2348 C2347 1.524 . S
C2349 C2346 1.403 . S
C2349 C2350 1.392 . S
C2349 C2353 1.495 . S
C2350 C2349 1.392 . S
C2350 C2351 1.385 . S
C2350 C2352 1.478 . S
C2351 H2345 0.930 . S
C2351 C2347 1.400 . S
C2351 C2350 1.385 . S
C2352 C2350 1.478 . S
C2352 C2354 1.381 . S
C2352 C2358 1.383 . S
C2353 C2349 1.495 . S
C2353 H2359 0.959 . S
C2353 H2360 0.961 . S
C2353 H2361 0.960 . S
C2354 C2352 1.381 . S
C2354 C2355 1.394 . S
C2354 H2362 0.930 . S
C2355 C2354 1.394 . S
C2355 C2356 1.383 . S
C2355 H2363 0.929 . S
C2356 C2355 1.383 . S
C2356 C2357 1.377 . S
C2357 H2341 0.930 . S
C2357 C2356 1.377 . S
C2357 C2358 1.379 . S
C2358 H2342 0.931 . S
C2358 C2352 1.383 . S
C2358 C2357 1.379 . S
H2359 C2353 0.959 . S
H2360 C2353 0.961 . S
H2361 C2353 0.960 . S
H2362 C2354 0.930 . S
H2363 C2355 0.929 . S
H2364 C2372 0.929 . S
H2365 C2374 0.930 . S
H2366 C2376 0.930 . S
H2367 C2379 0.929 . S
H2368 C2382 0.930 . S
H2369 C2384 0.960 . S
H2370 C2384 0.960 . S
H2371 C2384 0.960 . S
C2372 H2364 0.929 . S
C2372 C2373 1.377 . S
C2372 C2374 1.384 . S
C2373 C2372 1.377 . S
C2373 C2379 1.390 . S
C2374 H2365 0.930 . S
C2374 C2372 1.384 . S
C2374 C2375 1.372 . S
C2375 C2374 1.372 . S
C2375 C2376 1.400 . S
C2375 C2380 1.490 . S
C2376 H2366 0.930 . S
C2376 C2375 1.400 . S
C2376 C2379 1.386 . S
H2377 C2393 0.930 . S
H2378 C2394 0.931 . S
C2379 H2367 0.929 . S
C2379 C2373 1.390 . S
C2379 C2376 1.386 . S
C2380 C2375 1.490 . S
C2380 C2382 1.395 . S
C2380 C2383 1.403 . S
H2381 C2387 0.930 . S
C2382 H2368 0.930 . S
C2382 C2380 1.395 . S
C2382 C2385 1.403 . S
C2383 C2380 1.403 . S
C2383 C2384 1.524 . S
C2383 C2387 1.400 . S
C2384 H2369 0.960 . S
C2384 H2370 0.960 . S
C2384 H2371 0.960 . S
C2384 C2383 1.524 . S
C2385 C2382 1.403 . S
C2385 C2386 1.392 . S
C2385 C2389 1.495 . S
C2386 C2385 1.392 . S
C2386 C2387 1.385 . S
C2386 C2388 1.478 . S
C2387 H2381 0.930 . S
C2387 C2383 1.400 . S
C2387 C2386 1.385 . S
C2388 C2386 1.478 . S
C2388 C2390 1.381 . S
C2388 C2394 1.383 . S
C2389 C2385 1.495 . S
C2389 H2395 0.959 . S
C2389 H2396 0.961 . S
C2389 H2397 0.960 . S
C2390 C2388 1.381 . S
C2390 C2391 1.394 . S
C2390 H2398 0.930 . S
C2391 C2390 1.394 . S
C2391 C2392 1.383 1_655 S
C2391 H2399 0.929 . S
C2392 C2391 1.383 1_455 S
C2392 C2393 1.377 . S
C2393 H2377 0.930 . S
C2393 C2392 1.377 . S
C2393 C2394 1.379 1_455 S
C2394 H2378 0.931 . S
C2394 C2388 1.383 . S
C2394 C2393 1.379 1_655 S
H2395 C2389 0.959 . S
H2396 C2389 0.961 . S
H2397 C2389 0.960 . S
H2398 C2390 0.930 . S
H2399 C2391 0.929 . S
H2400 C2408 0.929 . S
H2401 C2410 0.930 . S
H2402 C2412 0.930 . S
H2403 C2415 0.929 . S
H2404 C2418 0.930 . S
H2405 C2420 0.960 . S
H2406 C2420 0.960 . S
H2407 C2420 0.960 . S
C2408 H2400 0.929 . S
C2408 C2409 1.377 . S
C2408 C2410 1.384 . S
C2409 C2408 1.377 . S
C2409 C2415 1.390 . S
C2410 H2401 0.930 . S
C2410 C2408 1.384 . S
C2410 C2411 1.372 . S
C2411 C2410 1.372 . S
C2411 C2412 1.400 . S
C2411 C2416 1.490 . S
C2412 H2402 0.930 . S
C2412 C2411 1.400 . S
C2412 C2415 1.386 . S
H2413 C2429 0.930 . S
H2414 C2430 0.931 . S
C2415 H2403 0.929 . S
C2415 C2409 1.390 . S
C2415 C2412 1.386 . S
C2416 C2411 1.490 . S
C2416 C2418 1.395 . S
C2416 C2419 1.403 . S
H2417 C2423 0.930 . S
C2418 H2404 0.930 . S
C2418 C2416 1.395 . S
C2418 C2421 1.403 . S
C2419 C2416 1.403 . S
C2419 C2420 1.524 . S
C2419 C2423 1.400 . S
C2420 H2405 0.960 . S
C2420 H2406 0.960 . S
C2420 H2407 0.960 . S
C2420 C2419 1.524 . S
C2421 C2418 1.403 . S
C2421 C2422 1.392 . S
C2421 C2425 1.495 . S
C2422 C2421 1.392 . S
C2422 C2423 1.385 . S
C2422 C2424 1.478 . S
C2423 H2417 0.930 . S
C2423 C2419 1.400 . S
C2423 C2422 1.385 . S
C2424 C2422 1.478 . S
C2424 C2426 1.381 . S
C2424 C2430 1.383 . S
C2425 C2421 1.495 . S
C2425 H2431 0.959 . S
C2425 H2432 0.961 . S
C2425 H2433 0.960 . S
C2426 C2424 1.381 . S
C2426 C2427 1.394 . S
C2426 H2434 0.930 . S
C2427 C2426 1.394 . S
C2427 C2428 1.383 . S
C2427 H2435 0.929 . S
C2428 C2427 1.383 . S
C2428 C2429 1.377 . S
C2429 H2413 0.930 . S
C2429 C2428 1.377 . S
C2429 C2430 1.379 . S
C2430 H2414 0.931 . S
C2430 C2424 1.383 . S
C2430 C2429 1.379 . S
H2431 C2425 0.959 . S
H2432 C2425 0.961 . S
H2433 C2425 0.960 . S
H2434 C2426 0.930 . S
H2435 C2427 0.929 . S
H2436 C2444 0.929 . S
H2437 C2446 0.930 . S
H2438 C2448 0.930 . S
H2439 C2451 0.929 . S
H2440 C2454 0.930 . S
H2441 C2456 0.960 . S
H2442 C2456 0.960 . S
H2443 C2456 0.960 . S
C2444 H2436 0.929 . S
C2444 C2445 1.377 . S
C2444 C2446 1.384 . S
C2445 C2444 1.377 . S
C2445 C2451 1.390 . S
C2446 H2437 0.930 . S
C2446 C2444 1.384 . S
C2446 C2447 1.372 . S
C2447 C2446 1.372 . S
C2447 C2448 1.400 . S
C2447 C2452 1.490 . S
C2448 H2438 0.930 . S
C2448 C2447 1.400 . S
C2448 C2451 1.386 . S
H2449 C2465 0.930 . S
H2450 C2466 0.931 . S
C2451 H2439 0.929 . S
C2451 C2445 1.390 . S
C2451 C2448 1.386 . S
C2452 C2447 1.490 . S
C2452 C2454 1.395 . S
C2452 C2455 1.403 . S
H2453 C2459 0.930 . S
C2454 H2440 0.930 . S
C2454 C2452 1.395 . S
C2454 C2457 1.403 . S
C2455 C2452 1.403 . S
C2455 C2456 1.524 . S
C2455 C2459 1.400 . S
C2456 H2441 0.960 . S
C2456 H2442 0.960 . S
C2456 H2443 0.960 . S
C2456 C2455 1.524 . S
C2457 C2454 1.403 . S
C2457 C2458 1.392 . S
C2457 C2461 1.495 . S
C2458 C2457 1.392 . S
C2458 C2459 1.385 . S
C2458 C2460 1.478 . S
C2459 H2453 0.930 . S
C2459 C2455 1.400 . S
C2459 C2458 1.385 . S
C2460 C2458 1.478 . S
C2460 C2462 1.381 . S
C2460 C2466 1.383 . S
C2461 C2457 1.495 . S
C2461 H2467 0.959 . S
C2461 H2468 0.961 . S
C2461 H2469 0.960 . S
C2462 C2460 1.381 . S
C2462 C2463 1.394 . S
C2462 H2470 0.930 . S
C2463 C2462 1.394 . S
C2463 C2464 1.383 . S
C2463 H2471 0.929 . S
C2464 C2463 1.383 . S
C2464 C2465 1.377 . S
C2465 H2449 0.930 . S
C2465 C2464 1.377 . S
C2465 C2466 1.379 . S
C2466 H2450 0.931 . S
C2466 C2460 1.383 . S
C2466 C2465 1.379 . S
H2467 C2461 0.959 . S
H2468 C2461 0.961 . S
H2469 C2461 0.960 . S
H2470 C2462 0.930 . S
H2471 C2463 0.929 . S
H2472 C2480 0.929 . S
H2473 C2482 0.930 . S
H2474 C2484 0.930 . S
H2475 C2487 0.929 . S
H2476 C2490 0.930 . S
H2477 C2492 0.960 . S
H2478 C2492 0.960 . S
H2479 C2492 0.960 . S
C2480 H2472 0.929 . S
C2480 C2481 1.377 . S
C2480 C2482 1.384 . S
C2481 C2480 1.377 . S
C2481 C2487 1.390 . S
C2482 H2473 0.930 . S
C2482 C2480 1.384 . S
C2482 C2483 1.372 . S
C2483 C2482 1.372 . S
C2483 C2484 1.400 . S
C2483 C2488 1.490 . S
C2484 H2474 0.930 . S
C2484 C2483 1.400 . S
C2484 C2487 1.386 . S
H2485 C2501 0.930 . S
H2486 C2502 0.931 . S
C2487 H2475 0.929 . S
C2487 C2481 1.390 . S
C2487 C2484 1.386 . S
C2488 C2483 1.490 . S
C2488 C2490 1.395 . S
C2488 C2491 1.403 . S
H2489 C2495 0.930 . S
C2490 H2476 0.930 . S
C2490 C2488 1.395 . S
C2490 C2493 1.403 . S
C2491 C2488 1.403 . S
C2491 C2492 1.524 . S
C2491 C2495 1.400 . S
C2492 H2477 0.960 . S
C2492 H2478 0.960 . S
C2492 H2479 0.960 . S
C2492 C2491 1.524 . S
C2493 C2490 1.403 . S
C2493 C2494 1.392 . S
C2493 C2497 1.495 . S
C2494 C2493 1.392 . S
C2494 C2495 1.385 . S
C2494 C2496 1.478 . S
C2495 H2489 0.930 . S
C2495 C2491 1.400 . S
C2495 C2494 1.385 . S
C2496 C2494 1.478 . S
C2496 C2498 1.381 . S
C2496 C2502 1.383 . S
C2497 C2493 1.495 . S
C2497 H2503 0.959 . S
C2497 H2504 0.961 . S
C2497 H2505 0.960 . S
C2498 C2496 1.381 . S
C2498 C2499 1.394 . S
C2498 H2506 0.930 . S
C2499 C2498 1.394 . S
C2499 C2500 1.383 . S
C2499 H2507 0.929 . S
C2500 C2499 1.383 . S
C2500 C2501 1.377 . S
C2501 H2485 0.930 . S
C2501 C2500 1.377 . S
C2501 C2502 1.379 . S
C2502 H2486 0.931 . S
C2502 C2496 1.383 . S
C2502 C2501 1.379 . S
H2503 C2497 0.959 . S
H2504 C2497 0.961 . S
H2505 C2497 0.960 . S
H2506 C2498 0.930 . S
H2507 C2499 0.929 . S
H2508 C2516 0.929 . S
H2509 C2518 0.930 . S
H2510 C2520 0.930 . S
H2511 C2523 0.929 . S
H2512 C2526 0.930 . S
H2513 C2528 0.960 . S
H2514 C2528 0.960 . S
H2515 C2528 0.960 . S
C2516 H2508 0.929 . S
C2516 C2517 1.377 . S
C2516 C2518 1.384 . S
C2517 C2516 1.377 . S
C2517 C2523 1.390 . S
C2518 H2509 0.930 . S
C2518 C2516 1.384 . S
C2518 C2519 1.372 . S
C2519 C2518 1.372 . S
C2519 C2520 1.400 . S
C2519 C2524 1.490 . S
C2520 H2510 0.930 . S
C2520 C2519 1.400 . S
C2520 C2523 1.386 . S
H2521 C2537 0.930 . S
H2522 C2538 0.931 . S
C2523 H2511 0.929 . S
C2523 C2517 1.390 . S
C2523 C2520 1.386 . S
C2524 C2519 1.490 . S
C2524 C2526 1.395 . S
C2524 C2527 1.403 . S
H2525 C2531 0.930 . S
C2526 H2512 0.930 . S
C2526 C2524 1.395 . S
C2526 C2529 1.403 . S
C2527 C2524 1.403 . S
C2527 C2528 1.524 . S
C2527 C2531 1.400 . S
C2528 H2513 0.960 . S
C2528 H2514 0.960 . S
C2528 H2515 0.960 . S
C2528 C2527 1.524 . S
C2529 C2526 1.403 . S
C2529 C2530 1.392 . S
C2529 C2533 1.495 . S
C2530 C2529 1.392 . S
C2530 C2531 1.385 . S
C2530 C2532 1.478 . S
C2531 H2525 0.930 . S
C2531 C2527 1.400 . S
C2531 C2530 1.385 . S
C2532 C2530 1.478 . S
C2532 C2534 1.381 . S
C2532 C2538 1.383 . S
C2533 C2529 1.495 . S
C2533 H2539 0.959 . S
C2533 H2540 0.961 . S
C2533 H2541 0.960 . S
C2534 C2532 1.381 . S
C2534 C2535 1.394 . S
C2534 H2542 0.930 . S
C2535 C2534 1.394 . S
C2535 C2536 1.383 . S
C2535 H2543 0.929 . S
C2536 C2535 1.383 . S
C2536 C2537 1.377 . S
C2537 H2521 0.930 . S
C2537 C2536 1.377 . S
C2537 C2538 1.379 . S
C2538 H2522 0.931 . S
C2538 C2532 1.383 . S
C2538 C2537 1.379 . S
H2539 C2533 0.959 . S
H2540 C2533 0.961 . S
H2541 C2533 0.960 . S
H2542 C2534 0.930 . S
H2543 C2535 0.929 . S
H2544 C2552 0.929 . S
H2545 C2554 0.930 . S
H2546 C2556 0.930 . S
H2547 C2559 0.929 . S
H2548 C2562 0.930 . S
H2549 C2564 0.960 . S
H2550 C2564 0.960 . S
H2551 C2564 0.960 . S
C2552 H2544 0.929 . S
C2552 C2553 1.377 . S
C2552 C2554 1.384 . S
C2553 C2552 1.377 . S
C2553 C2559 1.390 . S
C2554 H2545 0.930 . S
C2554 C2552 1.384 . S
C2554 C2555 1.372 . S
C2555 C2554 1.372 . S
C2555 C2556 1.400 . S
C2555 C2560 1.490 . S
C2556 H2546 0.930 . S
C2556 C2555 1.400 . S
C2556 C2559 1.386 . S
H2557 C2573 0.930 . S
H2558 C2574 0.931 . S
C2559 H2547 0.929 . S
C2559 C2553 1.390 . S
C2559 C2556 1.386 . S
C2560 C2555 1.490 . S
C2560 C2562 1.395 . S
C2560 C2563 1.403 . S
H2561 C2567 0.930 . S
C2562 H2548 0.930 . S
C2562 C2560 1.395 . S
C2562 C2565 1.403 . S
C2563 C2560 1.403 . S
C2563 C2564 1.524 . S
C2563 C2567 1.400 . S
C2564 H2549 0.960 . S
C2564 H2550 0.960 . S
C2564 H2551 0.960 . S
C2564 C2563 1.524 . S
C2565 C2562 1.403 . S
C2565 C2566 1.392 . S
C2565 C2569 1.495 . S
C2566 C2565 1.392 . S
C2566 C2567 1.385 . S
C2566 C2568 1.478 . S
C2567 H2561 0.930 . S
C2567 C2563 1.400 . S
C2567 C2566 1.385 . S
C2568 C2566 1.478 . S
C2568 C2570 1.381 . S
C2568 C2574 1.383 . S
C2569 C2565 1.495 . S
C2569 H2575 0.959 . S
C2569 H2576 0.961 . S
C2569 H2577 0.960 . S
C2570 C2568 1.381 . S
C2570 C2571 1.394 . S
C2570 H2578 0.930 . S
C2571 C2570 1.394 . S
C2571 C2572 1.383 . S
C2571 H2579 0.929 1_565 S
C2572 C2571 1.383 . S
C2572 C2573 1.377 . S
C2573 H2557 0.930 . S
C2573 C2572 1.377 . S
C2573 C2574 1.379 . S
C2574 H2558 0.931 . S
C2574 C2568 1.383 . S
C2574 C2573 1.379 . S
H2575 C2569 0.959 . S
H2576 C2569 0.961 . S
H2577 C2569 0.960 . S
H2578 C2570 0.930 . S
H2579 C2571 0.929 1_545 S
H2580 C2588 0.929 . S
H2581 C2590 0.930 . S
H2582 C2592 0.930 . S
H2583 C2595 0.929 . S
H2584 C2598 0.930 . S
H2585 C2600 0.960 . S
H2586 C2600 0.960 . S
H2587 C2600 0.960 . S
C2588 H2580 0.929 . S
C2588 C2589 1.377 . S
C2588 C2590 1.384 . S
C2589 C2588 1.377 . S
C2589 C2595 1.390 . S
C2590 H2581 0.930 . S
C2590 C2588 1.384 . S
C2590 C2591 1.372 . S
C2591 C2590 1.372 . S
C2591 C2592 1.400 . S
C2591 C2596 1.490 . S
C2592 H2582 0.930 . S
C2592 C2591 1.400 . S
C2592 C2595 1.386 . S
H2593 C2609 0.930 . S
H2594 C2610 0.931 . S
C2595 H2583 0.929 . S
C2595 C2589 1.390 . S
C2595 C2592 1.386 . S
C2596 C2591 1.490 . S
C2596 C2598 1.395 . S
C2596 C2599 1.403 . S
H2597 C2603 0.930 . S
C2598 H2584 0.930 . S
C2598 C2596 1.395 . S
C2598 C2601 1.403 . S
C2599 C2596 1.403 . S
C2599 C2600 1.524 . S
C2599 C2603 1.400 . S
C2600 H2585 0.960 . S
C2600 H2586 0.960 . S
C2600 H2587 0.960 . S
C2600 C2599 1.524 . S
C2601 C2598 1.403 . S
C2601 C2602 1.392 . S
C2601 C2605 1.495 . S
C2602 C2601 1.392 . S
C2602 C2603 1.385 . S
C2602 C2604 1.478 . S
C2603 H2597 0.930 . S
C2603 C2599 1.400 . S
C2603 C2602 1.385 . S
C2604 C2602 1.478 . S
C2604 C2606 1.381 . S
C2604 C2610 1.383 . S
C2605 C2601 1.495 . S
C2605 H2611 0.959 . S
C2605 H2612 0.961 . S
C2605 H2613 0.960 . S
C2606 C2604 1.381 . S
C2606 C2607 1.394 . S
C2606 H2614 0.930 . S
C2607 C2606 1.394 . S
C2607 C2608 1.383 . S
C2607 H2615 0.929 . S
C2608 C2607 1.383 . S
C2608 C2609 1.377 . S
C2609 H2593 0.930 . S
C2609 C2608 1.377 . S
C2609 C2610 1.379 . S
C2610 H2594 0.931 . S
C2610 C2604 1.383 . S
C2610 C2609 1.379 . S
H2611 C2605 0.959 . S
H2612 C2605 0.961 . S
H2613 C2605 0.960 . S
H2614 C2606 0.930 . S
H2615 C2607 0.929 . S
H2616 C2624 0.929 . S
H2617 C2626 0.930 . S
H2618 C2628 0.930 . S
H2619 C2631 0.929 . S
H2620 C2634 0.930 . S
H2621 C2636 0.960 . S
H2622 C2636 0.960 . S
H2623 C2636 0.960 . S
C2624 H2616 0.929 . S
C2624 C2625 1.377 . S
C2624 C2626 1.384 . S
C2625 C2624 1.377 . S
C2625 C2631 1.390 . S
C2626 H2617 0.930 . S
C2626 C2624 1.384 . S
C2626 C2627 1.372 . S
C2627 C2626 1.372 . S
C2627 C2628 1.400 . S
C2627 C2632 1.490 . S
C2628 H2618 0.930 . S
C2628 C2627 1.400 . S
C2628 C2631 1.386 . S
H2629 C2645 0.930 . S
H2630 C2646 0.931 . S
C2631 H2619 0.929 . S
C2631 C2625 1.390 . S
C2631 C2628 1.386 . S
C2632 C2627 1.490 . S
C2632 C2634 1.395 . S
C2632 C2635 1.403 . S
H2633 C2639 0.930 . S
C2634 H2620 0.930 . S
C2634 C2632 1.395 . S
C2634 C2637 1.403 . S
C2635 C2632 1.403 . S
C2635 C2636 1.524 . S
C2635 C2639 1.400 . S
C2636 H2621 0.960 . S
C2636 H2622 0.960 . S
C2636 H2623 0.960 . S
C2636 C2635 1.524 . S
C2637 C2634 1.403 . S
C2637 C2638 1.392 . S
C2637 C2641 1.495 . S
C2638 C2637 1.392 . S
C2638 C2639 1.385 . S
C2638 C2640 1.478 . S
C2639 H2633 0.930 . S
C2639 C2635 1.400 . S
C2639 C2638 1.385 . S
C2640 C2638 1.478 . S
C2640 C2642 1.381 . S
C2640 C2646 1.383 . S
C2641 C2637 1.495 . S
C2641 H2647 0.959 . S
C2641 H2648 0.961 . S
C2641 H2649 0.960 . S
C2642 C2640 1.381 . S
C2642 C2643 1.394 . S
C2642 H2650 0.930 . S
C2643 C2642 1.394 . S
C2643 C2644 1.383 . S
C2643 H2651 0.929 . S
C2644 C2643 1.383 . S
C2644 C2645 1.377 . S
C2645 H2629 0.930 . S
C2645 C2644 1.377 . S
C2645 C2646 1.379 . S
C2646 H2630 0.931 . S
C2646 C2640 1.383 . S
C2646 C2645 1.379 . S
H2647 C2641 0.959 . S
H2648 C2641 0.961 . S
H2649 C2641 0.960 . S
H2650 C2642 0.930 . S
H2651 C2643 0.929 . S
H2652 C2660 0.929 . S
H2653 C2662 0.930 . S
H2654 C2664 0.930 . S
H2655 C2667 0.929 . S
H2656 C2670 0.930 . S
H2657 C2672 0.960 . S
H2658 C2672 0.960 . S
H2659 C2672 0.960 . S
C2660 H2652 0.929 . S
C2660 C2661 1.377 . S
C2660 C2662 1.384 . S
C2661 C2660 1.377 . S
C2661 C2667 1.390 . S
C2662 H2653 0.930 . S
C2662 C2660 1.384 . S
C2662 C2663 1.372 . S
C2663 C2662 1.372 . S
C2663 C2664 1.400 . S
C2663 C2668 1.490 . S
C2664 H2654 0.930 . S
C2664 C2663 1.400 . S
C2664 C2667 1.386 . S
H2665 C2681 0.930 . S
H2666 C2682 0.931 . S
C2667 H2655 0.929 . S
C2667 C2661 1.390 . S
C2667 C2664 1.386 . S
C2668 C2663 1.490 . S
C2668 C2670 1.395 . S
C2668 C2671 1.403 . S
H2669 C2675 0.930 . S
C2670 H2656 0.930 . S
C2670 C2668 1.395 . S
C2670 C2673 1.403 . S
C2671 C2668 1.403 . S
C2671 C2672 1.524 . S
C2671 C2675 1.400 . S
C2672 H2657 0.960 . S
C2672 H2658 0.960 . S
C2672 H2659 0.960 . S
C2672 C2671 1.524 . S
C2673 C2670 1.403 . S
C2673 C2674 1.392 . S
C2673 C2677 1.495 . S
C2674 C2673 1.392 . S
C2674 C2675 1.385 . S
C2674 C2676 1.478 . S
C2675 H2669 0.930 . S
C2675 C2671 1.400 . S
C2675 C2674 1.385 . S
C2676 C2674 1.478 . S
C2676 C2678 1.381 . S
C2676 C2682 1.383 . S
C2677 C2673 1.495 . S
C2677 H2683 0.959 . S
C2677 H2684 0.961 . S
C2677 H2685 0.960 . S
C2678 C2676 1.381 . S
C2678 C2679 1.394 . S
C2678 H2686 0.930 . S
C2679 C2678 1.394 . S
C2679 C2680 1.383 . S
C2679 H2687 0.929 . S
C2680 C2679 1.383 . S
C2680 C2681 1.377 . S
C2681 H2665 0.930 . S
C2681 C2680 1.377 . S
C2681 C2682 1.379 . S
C2682 H2666 0.931 . S
C2682 C2676 1.383 . S
C2682 C2681 1.379 . S
H2683 C2677 0.959 . S
H2684 C2677 0.961 . S
H2685 C2677 0.960 . S
H2686 C2678 0.930 . S
H2687 C2679 0.929 . S
H2688 C2696 0.929 . S
H2689 C2698 0.930 . S
H2690 C2700 0.930 . S
H2691 C2703 0.929 . S
H2692 C2706 0.930 . S
H2693 C2708 0.960 . S
H2694 C2708 0.960 . S
H2695 C2708 0.960 . S
C2696 H2688 0.929 . S
C2696 C2697 1.377 . S
C2696 C2698 1.384 . S
C2697 C2696 1.377 . S
C2697 C2703 1.390 . S
C2698 H2689 0.930 . S
C2698 C2696 1.384 . S
C2698 C2699 1.372 . S
C2699 C2698 1.372 . S
C2699 C2700 1.400 . S
C2699 C2704 1.490 . S
C2700 H2690 0.930 . S
C2700 C2699 1.400 . S
C2700 C2703 1.386 . S
H2701 C2717 0.930 . S
H2702 C2718 0.931 . S
C2703 H2691 0.929 . S
C2703 C2697 1.390 . S
C2703 C2700 1.386 . S
C2704 C2699 1.490 . S
C2704 C2706 1.395 . S
C2704 C2707 1.403 . S
H2705 C2711 0.930 . S
C2706 H2692 0.930 . S
C2706 C2704 1.395 . S
C2706 C2709 1.403 . S
C2707 C2704 1.403 . S
C2707 C2708 1.524 . S
C2707 C2711 1.400 . S
C2708 H2693 0.960 . S
C2708 H2694 0.960 . S
C2708 H2695 0.960 . S
C2708 C2707 1.524 . S
C2709 C2706 1.403 . S
C2709 C2710 1.392 . S
C2709 C2713 1.495 . S
C2710 C2709 1.392 . S
C2710 C2711 1.385 . S
C2710 C2712 1.478 . S
C2711 H2705 0.930 . S
C2711 C2707 1.400 . S
C2711 C2710 1.385 . S
C2712 C2710 1.478 . S
C2712 C2714 1.381 . S
C2712 C2718 1.383 . S
C2713 C2709 1.495 . S
C2713 H2719 0.959 . S
C2713 H2720 0.961 . S
C2713 H2721 0.960 . S
C2714 C2712 1.381 . S
C2714 C2715 1.394 . S
C2714 H2722 0.930 . S
C2715 C2714 1.394 . S
C2715 C2716 1.383 . S
C2715 H2723 0.929 . S
C2716 C2715 1.383 . S
C2716 C2717 1.377 . S
C2717 H2701 0.930 . S
C2717 C2716 1.377 . S
C2717 C2718 1.379 . S
C2718 H2702 0.931 . S
C2718 C2712 1.383 . S
C2718 C2717 1.379 . S
H2719 C2713 0.959 . S
H2720 C2713 0.961 . S
H2721 C2713 0.960 . S
H2722 C2714 0.930 . S
H2723 C2715 0.929 . S
H2724 C2732 0.929 . S
H2725 C2734 0.930 . S
H2726 C2736 0.930 . S
H2727 C2739 0.929 . S
H2728 C2742 0.930 . S
H2729 C2744 0.960 . S
H2730 C2744 0.960 . S
H2731 C2744 0.960 . S
C2732 H2724 0.929 . S
C2732 C2733 1.377 . S
C2732 C2734 1.384 . S
C2733 C2732 1.377 . S
C2733 C2739 1.390 . S
C2734 H2725 0.930 . S
C2734 C2732 1.384 . S
C2734 C2735 1.372 . S
C2735 C2734 1.372 . S
C2735 C2736 1.400 . S
C2735 C2740 1.490 . S
C2736 H2726 0.930 . S
C2736 C2735 1.400 . S
C2736 C2739 1.386 . S
H2737 C2753 0.930 . S
H2738 C2754 0.931 . S
C2739 H2727 0.929 . S
C2739 C2733 1.390 . S
C2739 C2736 1.386 . S
C2740 C2735 1.490 . S
C2740 C2742 1.395 . S
C2740 C2743 1.403 . S
H2741 C2747 0.930 . S
C2742 H2728 0.930 . S
C2742 C2740 1.395 . S
C2742 C2745 1.403 . S
C2743 C2740 1.403 . S
C2743 C2744 1.524 . S
C2743 C2747 1.400 . S
C2744 H2729 0.960 . S
C2744 H2730 0.960 . S
C2744 H2731 0.960 . S
C2744 C2743 1.524 . S
C2745 C2742 1.403 . S
C2745 C2746 1.392 . S
C2745 C2749 1.495 . S
C2746 C2745 1.392 . S
C2746 C2747 1.385 . S
C2746 C2748 1.478 . S
C2747 H2741 0.930 . S
C2747 C2743 1.400 . S
C2747 C2746 1.385 . S
C2748 C2746 1.478 . S
C2748 C2750 1.381 . S
C2748 C2754 1.383 . S
C2749 C2745 1.495 . S
C2749 H2755 0.959 . S
C2749 H2756 0.961 . S
C2749 H2757 0.960 . S
C2750 C2748 1.381 . S
C2750 C2751 1.394 . S
C2750 H2758 0.930 . S
C2751 C2750 1.394 . S
C2751 C2752 1.383 . S
C2751 H2759 0.929 . S
C2752 C2751 1.383 . S
C2752 C2753 1.377 . S
C2753 H2737 0.930 . S
C2753 C2752 1.377 . S
C2753 C2754 1.379 . S
C2754 H2738 0.931 . S
C2754 C2748 1.383 . S
C2754 C2753 1.379 . S
H2755 C2749 0.959 . S
H2756 C2749 0.961 . S
H2757 C2749 0.960 . S
H2758 C2750 0.930 . S
H2759 C2751 0.929 . S
H2760 C2768 0.929 . S
H2761 C2770 0.930 . S
H2762 C2772 0.930 . S
H2763 C2775 0.929 . S
H2764 C2778 0.930 . S
H2765 C2780 0.960 . S
H2766 C2780 0.960 . S
H2767 C2780 0.960 . S
C2768 H2760 0.929 . S
C2768 C2769 1.377 . S
C2768 C2770 1.384 . S
C2769 C2768 1.377 . S
C2769 C2775 1.390 . S
C2770 H2761 0.930 . S
C2770 C2768 1.384 . S
C2770 C2771 1.372 . S
C2771 C2770 1.372 . S
C2771 C2772 1.400 . S
C2771 C2776 1.490 . S
C2772 H2762 0.930 . S
C2772 C2771 1.400 . S
C2772 C2775 1.386 . S
H2773 C2789 0.930 . S
H2774 C2790 0.931 . S
C2775 H2763 0.929 . S
C2775 C2769 1.390 . S
C2775 C2772 1.386 . S
C2776 C2771 1.490 . S
C2776 C2778 1.395 . S
C2776 C2779 1.403 . S
H2777 C2783 0.930 . S
C2778 H2764 0.930 . S
C2778 C2776 1.395 . S
C2778 C2781 1.403 . S
C2779 C2776 1.403 . S
C2779 C2780 1.524 . S
C2779 C2783 1.400 . S
C2780 H2765 0.960 . S
C2780 H2766 0.960 . S
C2780 H2767 0.960 . S
C2780 C2779 1.524 . S
C2781 C2778 1.403 . S
C2781 C2782 1.392 . S
C2781 C2785 1.495 . S
C2782 C2781 1.392 . S
C2782 C2783 1.385 . S
C2782 C2784 1.478 . S
C2783 H2777 0.930 . S
C2783 C2779 1.400 . S
C2783 C2782 1.385 . S
C2784 C2782 1.478 . S
C2784 C2786 1.381 . S
C2784 C2790 1.383 . S
C2785 C2781 1.495 . S
C2785 H2791 0.959 . S
C2785 H2792 0.961 . S
C2785 H2793 0.960 1_556 S
C2786 C2784 1.381 . S
C2786 C2787 1.379 1_556 S
C2786 H2794 0.930 . S
C2787 C2786 1.379 1_554 S
C2787 C2788 1.355 1_564 S
C2787 H2795 0.975 . S
C2788 C2787 1.355 1_546 S
C2788 C2789 1.377 . S
C2789 H2773 0.930 . S
C2789 C2788 1.377 . S
C2789 C2790 1.379 1_545 S
C2790 H2774 0.931 . S
C2790 C2784 1.383 . S
C2790 C2789 1.379 1_565 S
H2791 C2785 0.959 . S
H2792 C2785 0.961 . S
H2793 C2785 0.960 1_554 S
H2794 C2786 0.930 . S
H2795 C2787 0.975 . S
H2796 C2804 0.929 . S
H2797 C2806 0.930 . S
H2798 C2808 0.930 . S
H2799 C2811 0.929 . S
H2800 C2814 0.930 . S
H2801 C2816 0.960 . S
H2802 C2816 0.960 . S
H2803 C2816 0.960 . S
C2804 H2796 0.929 . S
C2804 C2805 1.377 . S
C2804 C2806 1.384 . S
C2805 C2804 1.377 . S
C2805 C2811 1.390 . S
C2806 H2797 0.930 . S
C2806 C2804 1.384 . S
C2806 C2807 1.372 . S
C2807 C2806 1.372 . S
C2807 C2808 1.400 . S
C2807 C2812 1.490 . S
C2808 H2798 0.930 . S
C2808 C2807 1.400 . S
C2808 C2811 1.386 . S
H2809 C2825 0.930 . S
H2810 C2826 0.931 . S
C2811 H2799 0.929 . S
C2811 C2805 1.390 . S
C2811 C2808 1.386 . S
C2812 C2807 1.490 . S
C2812 C2814 1.395 . S
C2812 C2815 1.403 . S
H2813 C2819 0.930 . S
C2814 H2800 0.930 . S
C2814 C2812 1.395 . S
C2814 C2817 1.403 . S
C2815 C2812 1.403 . S
C2815 C2816 1.524 . S
C2815 C2819 1.400 . S
C2816 H2801 0.960 . S
C2816 H2802 0.960 . S
C2816 H2803 0.960 . S
C2816 C2815 1.524 . S
C2817 C2814 1.403 . S
C2817 C2818 1.392 . S
C2817 C2821 1.495 . S
C2818 C2817 1.392 . S
C2818 C2819 1.385 . S
C2818 C2820 1.478 . S
C2819 H2813 0.930 . S
C2819 C2815 1.400 . S
C2819 C2818 1.385 . S
C2820 C2818 1.478 . S
C2820 C2822 1.381 . S
C2820 C2826 1.383 . S
C2821 C2817 1.495 . S
C2821 H2827 0.959 . S
C2821 H2828 0.961 . S
C2821 H2829 0.960 . S
C2822 C2820 1.381 . S
C2822 C2823 1.394 . S
C2822 H2830 0.930 . S
C2823 C2822 1.394 . S
C2823 C2824 1.383 . S
C2823 H2831 0.929 . S
C2824 C2823 1.383 . S
C2824 C2825 1.377 . S
C2825 H2809 0.930 . S
C2825 C2824 1.377 . S
C2825 C2826 1.379 . S
C2826 H2810 0.931 . S
C2826 C2820 1.383 . S
C2826 C2825 1.379 . S
H2827 C2821 0.959 . S
H2828 C2821 0.961 . S
H2829 C2821 0.960 . S
H2830 C2822 0.930 . S
H2831 C2823 0.929 . S
H2832 C2840 0.929 . S
H2833 C2842 0.930 . S
H2834 C2844 0.930 . S
H2835 C2847 0.929 . S
H2836 C2850 0.930 . S
H2837 C2852 0.960 . S
H2838 C2852 0.960 . S
H2839 C2852 0.960 . S
C2840 H2832 0.929 . S
C2840 C2841 1.377 . S
C2840 C2842 1.384 . S
C2841 C2840 1.377 . S
C2841 C2847 1.390 . S
C2842 H2833 0.930 . S
C2842 C2840 1.384 . S
C2842 C2843 1.372 . S
C2843 C2842 1.372 . S
C2843 C2844 1.400 . S
C2843 C2848 1.490 . S
C2844 H2834 0.930 . S
C2844 C2843 1.400 . S
C2844 C2847 1.386 . S
H2845 C2861 0.930 . S
H2846 C2862 0.931 . S
C2847 H2835 0.929 . S
C2847 C2841 1.390 . S
C2847 C2844 1.386 . S
C2848 C2843 1.490 . S
C2848 C2850 1.395 . S
C2848 C2851 1.403 1_545 S
H2849 C2855 0.930 1_565 S
C2850 H2836 0.930 . S
C2850 C2848 1.395 . S
C2850 C2853 1.403 . S
C2851 C2848 1.403 1_565 S
C2851 C2852 1.524 . S
C2851 C2855 1.400 1_565 S
C2852 H2837 0.960 . S
C2852 H2838 0.960 . S
C2852 H2839 0.960 . S
C2852 C2851 1.524 . S
C2853 C2850 1.403 . S
C2853 C2854 1.392 . S
C2853 C2857 1.495 . S
C2854 C2853 1.392 . S
C2854 C2855 1.385 . S
C2854 C2856 1.478 . S
C2855 H2849 0.930 1_545 S
C2855 C2851 1.400 1_545 S
C2855 C2854 1.385 . S
C2856 C2854 1.478 . S
C2856 C2858 1.381 . S
C2856 C2862 1.383 . S
C2857 C2853 1.495 . S
C2857 H2863 0.959 . S
C2857 H2864 0.961 . S
C2857 H2865 0.960 . S
C2858 C2856 1.381 . S
C2858 C2859 1.394 . S
C2858 H2866 0.930 . S
C2859 C2858 1.394 . S
C2859 C2860 1.383 . S
C2859 H2867 0.929 . S
C2860 C2859 1.383 . S
C2860 C2861 1.377 . S
C2861 H2845 0.930 . S
C2861 C2860 1.377 . S
C2861 C2862 1.379 . S
C2862 H2846 0.931 . S
C2862 C2856 1.383 . S
C2862 C2861 1.379 . S
H2863 C2857 0.959 . S
H2864 C2857 0.961 . S
H2865 C2857 0.960 . S
H2866 C2858 0.930 . S
H2867 C2859 0.929 . S
H2868 C2876 0.929 . S
H2869 C2878 0.930 . S
H2870 C2880 0.930 . S
H2871 C2883 0.929 . S
H2872 C2886 0.930 . S
H2873 C2888 0.960 . S
H2874 C2888 0.960 . S
H2875 C2888 0.960 . S
C2876 H2868 0.929 . S
C2876 C2877 1.377 . S
C2876 C2878 1.384 . S
C2877 C2876 1.377 . S
C2877 C2883 1.390 . S
C2878 H2869 0.930 . S
C2878 C2876 1.384 . S
C2878 C2879 1.372 . S
C2879 C2878 1.372 . S
C2879 C2880 1.400 . S
C2879 C2884 1.490 . S
C2880 H2870 0.930 . S
C2880 C2879 1.400 . S
C2880 C2883 1.386 . S
H2881 C2897 0.930 . S
H2882 C2898 0.931 . S
C2883 H2871 0.929 . S
C2883 C2877 1.390 . S
C2883 C2880 1.386 . S
C2884 C2879 1.490 . S
C2884 C2886 1.395 . S
C2884 C2887 1.403 . S
H2885 C2891 0.930 . S
C2886 H2872 0.930 . S
C2886 C2884 1.395 . S
C2886 C2889 1.403 . S
C2887 C2884 1.403 . S
C2887 C2888 1.524 . S
C2887 C2891 1.400 . S
C2888 H2873 0.960 . S
C2888 H2874 0.960 . S
C2888 H2875 0.960 . S
C2888 C2887 1.524 . S
C2889 C2886 1.403 . S
C2889 C2890 1.392 . S
C2889 C2893 1.495 . S
C2890 C2889 1.392 . S
C2890 C2891 1.385 . S
C2890 C2892 1.478 . S
C2891 H2885 0.930 . S
C2891 C2887 1.400 . S
C2891 C2890 1.385 . S
C2892 C2890 1.478 . S
C2892 C2894 1.381 . S
C2892 C2898 1.383 . S
C2893 C2889 1.495 . S
C2893 H2899 0.959 . S
C2893 H2900 0.961 . S
C2893 H2901 0.960 . S
C2894 C2892 1.381 . S
C2894 C2895 1.394 . S
C2894 H2902 0.930 . S
C2895 C2894 1.394 . S
C2895 C2896 1.383 . S
C2895 H2903 0.929 . S
C2896 C2895 1.383 . S
C2896 C2897 1.377 . S
C2897 H2881 0.930 . S
C2897 C2896 1.377 . S
C2897 C2898 1.379 . S
C2898 H2882 0.931 . S
C2898 C2892 1.383 . S
C2898 C2897 1.379 . S
H2899 C2893 0.959 . S
H2900 C2893 0.961 . S
H2901 C2893 0.960 . S
H2902 C2894 0.930 . S
H2903 C2895 0.929 . S
H2904 C2912 0.929 . S
H2905 C2914 0.930 . S
H2906 C2916 0.930 . S
H2907 C2919 0.929 . S
H2908 C2922 0.930 . S
H2909 C2924 0.960 . S
H2910 C2924 0.960 . S
H2911 C2924 0.960 . S
C2912 H2904 0.929 . S
C2912 C2913 1.377 . S
C2912 C2914 1.384 . S
C2913 C2912 1.377 . S
C2913 C2919 1.390 . S
C2914 H2905 0.930 . S
C2914 C2912 1.384 . S
C2914 C2915 1.372 . S
C2915 C2914 1.372 . S
C2915 C2916 1.400 . S
C2915 C2920 1.490 . S
C2916 H2906 0.930 . S
C2916 C2915 1.400 . S
C2916 C2919 1.386 . S
H2917 C2933 0.930 . S
H2918 C2934 0.931 . S
C2919 H2907 0.929 . S
C2919 C2913 1.390 . S
C2919 C2916 1.386 . S
C2920 C2915 1.490 . S
C2920 C2922 1.395 . S
C2920 C2923 1.403 . S
H2921 C2927 0.930 . S
C2922 H2908 0.930 . S
C2922 C2920 1.395 . S
C2922 C2925 1.403 . S
C2923 C2920 1.403 . S
C2923 C2924 1.524 . S
C2923 C2927 1.400 . S
C2924 H2909 0.960 . S
C2924 H2910 0.960 . S
C2924 H2911 0.960 . S
C2924 C2923 1.524 . S
C2925 C2922 1.403 . S
C2925 C2926 1.392 . S
C2925 C2929 1.495 . S
C2926 C2925 1.392 . S
C2926 C2927 1.385 . S
C2926 C2928 1.478 . S
C2927 H2921 0.930 . S
C2927 C2923 1.400 . S
C2927 C2926 1.385 . S
C2928 C2926 1.478 . S
C2928 C2930 1.381 . S
C2928 C2934 1.383 . S
C2929 C2925 1.495 . S
C2929 H2935 0.959 . S
C2929 H2936 0.961 . S
C2929 H2937 0.960 . S
C2930 C2928 1.381 . S
C2930 C2931 1.394 . S
C2930 H2938 0.930 . S
C2931 C2930 1.394 . S
C2931 C2932 1.383 . S
C2931 H2939 0.929 . S
C2932 C2931 1.383 . S
C2932 C2933 1.377 . S
C2933 H2917 0.930 . S
C2933 C2932 1.377 . S
C2933 C2934 1.379 . S
C2934 H2918 0.931 . S
C2934 C2928 1.383 . S
C2934 C2933 1.379 . S
H2935 C2929 0.959 . S
H2936 C2929 0.961 . S
H2937 C2929 0.960 . S
H2938 C2930 0.930 . S
H2939 C2931 0.929 . S
H2940 C2948 0.929 . S
H2941 C2950 0.930 . S
H2942 C2952 0.930 . S
H2943 C2955 0.929 . S
H2944 C2958 0.930 . S
H2945 C2960 0.960 . S
H2946 C2960 0.960 . S
H2947 C2960 0.960 . S
C2948 H2940 0.929 . S
C2948 C2949 1.377 . S
C2948 C2950 1.384 . S
C2949 C2948 1.377 . S
C2949 C2955 1.390 . S
C2950 H2941 0.930 . S
C2950 C2948 1.384 . S
C2950 C2951 1.372 . S
C2951 C2950 1.372 . S
C2951 C2952 1.400 . S
C2951 C2956 1.490 . S
C2952 H2942 0.930 . S
C2952 C2951 1.400 . S
C2952 C2955 1.386 . S
H2953 C2969 0.930 . S
H2954 C2970 0.931 . S
C2955 H2943 0.929 . S
C2955 C2949 1.390 . S
C2955 C2952 1.386 . S
C2956 C2951 1.490 . S
C2956 C2958 1.395 . S
C2956 C2959 1.403 . S
H2957 C2963 0.930 . S
C2958 H2944 0.930 . S
C2958 C2956 1.395 . S
C2958 C2961 1.403 . S
C2959 C2956 1.403 . S
C2959 C2960 1.524 . S
C2959 C2963 1.400 . S
C2960 H2945 0.960 . S
C2960 H2946 0.960 . S
C2960 H2947 0.960 . S
C2960 C2959 1.524 . S
C2961 C2958 1.403 . S
C2961 C2962 1.392 . S
C2961 C2965 1.495 . S
C2962 C2961 1.392 . S
C2962 C2963 1.385 . S
C2962 C2964 1.478 . S
C2963 H2957 0.930 . S
C2963 C2959 1.400 . S
C2963 C2962 1.385 . S
C2964 C2962 1.478 . S
C2964 C2966 1.381 . S
C2964 C2970 1.383 . S
C2965 C2961 1.495 . S
C2965 H2971 0.959 . S
C2965 H2972 0.961 . S
C2965 H2973 0.960 . S
C2966 C2964 1.381 . S
C2966 C2967 1.394 . S
C2966 H2974 0.930 . S
C2967 C2966 1.394 . S
C2967 C2968 1.383 . S
C2967 H2975 0.929 . S
C2968 C2967 1.383 . S
C2968 C2969 1.377 . S
C2969 H2953 0.930 . S
C2969 C2968 1.377 . S
C2969 C2970 1.379 . S
C2970 H2954 0.931 . S
C2970 C2964 1.383 . S
C2970 C2969 1.379 . S
H2971 C2965 0.959 . S
H2972 C2965 0.961 . S
H2973 C2965 0.960 . S
H2974 C2966 0.930 . S
H2975 C2967 0.929 . S
H2976 C2984 0.929 . S
H2977 C2986 0.930 . S
H2978 C2988 0.930 . S
H2979 C2991 0.929 . S
H2980 C2994 0.930 . S
H2981 C2996 0.960 . S
H2982 C2996 0.960 . S
H2983 C2996 0.960 . S
C2984 H2976 0.929 . S
C2984 C2985 1.377 1_545 S
C2984 C2986 1.384 . S
C2985 C2984 1.377 1_565 S
C2985 C2991 1.390 . S
C2986 H2977 0.930 . S
C2986 C2984 1.384 . S
C2986 C2987 1.372 . S
C2987 C2986 1.372 . S
C2987 C2988 1.395 1_545 S
C2987 C2992 1.490 . S
C2988 H2978 0.930 . S
C2988 C2987 1.395 1_565 S
C2988 C2991 1.390 . S
H2989 C3005 0.930 . S
H2990 C3006 0.931 . S
C2991 H2979 0.929 . S
C2991 C2985 1.390 . S
C2991 C2988 1.390 . S
C2992 C2987 1.490 . S
C2992 C2994 1.395 . S
C2992 C2995 1.403 1_545 S
H2993 C2999 0.930 1_565 S
C2994 H2980 0.930 . S
C2994 C2992 1.395 . S
C2994 C2997 1.403 . S
C2995 C2992 1.403 1_565 S
C2995 C2996 1.524 . S
C2995 C2999 1.400 1_565 S
C2996 H2981 0.960 . S
C2996 H2982 0.960 . S
C2996 H2983 0.960 . S
C2996 C2995 1.524 . S
C2997 C2994 1.403 . S
C2997 C2998 1.392 . S
C2997 C3001 1.495 . S
C2998 C2997 1.392 . S
C2998 C2999 1.385 . S
C2998 C3000 1.478 . S
C2999 H2993 0.930 1_545 S
C2999 C2995 1.400 1_545 S
C2999 C2998 1.385 . S
C3000 C2998 1.478 . S
C3000 C3002 1.381 . S
C3000 C3006 1.383 . S
C3001 C2997 1.495 . S
C3001 H3007 0.959 . S
C3001 H3008 0.961 . S
C3001 H3009 0.960 . S
C3002 C3000 1.381 . S
C3002 C3003 1.394 . S
C3002 H3010 0.930 . S
C3003 C3002 1.394 . S
C3003 C3004 1.383 . S
C3003 H3011 0.929 . S
C3004 C3003 1.383 . S
C3004 C3005 1.377 . S
C3005 H2989 0.930 . S
C3005 C3004 1.377 . S
C3005 C3006 1.379 . S
C3006 H2990 0.931 . S
C3006 C3000 1.383 . S
C3006 C3005 1.379 . S
H3007 C3001 0.959 . S
H3008 C3001 0.961 . S
H3009 C3001 0.960 . S
H3010 C3002 0.930 . S
H3011 C3003 0.929 . S
H3012 C3020 0.929 . S
H3013 C3022 0.930 . S
H3014 C3024 0.930 . S
H3015 C3027 0.929 . S
H3016 C3030 0.930 . S
H3017 C3032 0.960 . S
H3018 C3032 0.960 . S
H3019 C3032 0.960 . S
C3020 H3012 0.929 . S
C3020 C3021 1.377 . S
C3020 C3022 1.384 . S
C3021 C3020 1.377 . S
C3021 C3027 1.390 . S
C3022 H3013 0.930 . S
C3022 C3020 1.384 . S
C3022 C3023 1.372 . S
C3023 C3022 1.372 . S
C3023 C3024 1.400 . S
C3023 C3028 1.490 . S
C3024 H3014 0.930 . S
C3024 C3023 1.400 . S
C3024 C3027 1.386 . S
H3025 C3041 0.930 . S
H3026 C3042 0.931 . S
C3027 H3015 0.929 . S
C3027 C3021 1.390 . S
C3027 C3024 1.386 . S
C3028 C3023 1.490 . S
C3028 C3030 1.395 . S
C3028 C3031 1.403 . S
H3029 C3035 0.930 . S
C3030 H3016 0.930 . S
C3030 C3028 1.395 . S
C3030 C3033 1.403 . S
C3031 C3028 1.403 . S
C3031 C3032 1.524 . S
C3031 C3035 1.400 . S
C3032 H3017 0.960 . S
C3032 H3018 0.960 . S
C3032 H3019 0.960 . S
C3032 C3031 1.524 . S
C3033 C3030 1.403 . S
C3033 C3034 1.392 . S
C3033 C3037 1.495 . S
C3034 C3033 1.392 . S
C3034 C3035 1.385 . S
C3034 C3036 1.478 . S
C3035 H3029 0.930 . S
C3035 C3031 1.400 . S
C3035 C3034 1.385 . S
C3036 C3034 1.478 . S
C3036 C3038 1.381 . S
C3036 C3042 1.383 . S
C3037 C3033 1.495 . S
C3037 H3043 0.959 . S
C3037 H3044 0.961 . S
C3037 H3045 0.960 . S
C3038 C3036 1.381 . S
C3038 C3039 1.394 . S
C3038 H3046 0.930 . S
C3039 C3038 1.394 . S
C3039 C3040 1.383 . S
C3039 H3047 0.929 . S
C3040 C3039 1.383 . S
C3040 C3041 1.377 . S
C3041 H3025 0.930 . S
C3041 C3040 1.377 . S
C3041 C3042 1.379 . S
C3042 H3026 0.931 . S
C3042 C3036 1.383 . S
C3042 C3041 1.379 . S
H3043 C3037 0.959 . S
H3044 C3037 0.961 . S
H3045 C3037 0.960 . S
H3046 C3038 0.930 . S
H3047 C3039 0.929 . S
H3048 C3056 0.929 . S
H3049 C3058 0.930 . S
H3050 C3060 0.930 . S
H3051 C3063 0.929 . S
H3052 C3066 0.930 . S
H3053 C3068 0.960 . S
H3054 C3068 0.960 . S
H3055 C3068 0.960 . S
C3056 H3048 0.929 . S
C3056 C3057 1.377 . S
C3056 C3058 1.384 . S
C3057 C3056 1.377 . S
C3057 C3063 1.390 . S
C3058 H3049 0.930 . S
C3058 C3056 1.384 . S
C3058 C3059 1.372 . S
C3059 C3058 1.372 . S
C3059 C3060 1.400 . S
C3059 C3064 1.490 . S
C3060 H3050 0.930 . S
C3060 C3059 1.400 . S
C3060 C3063 1.386 . S
H3061 C3077 0.930 . S
H3062 C3078 0.931 . S
C3063 H3051 0.929 . S
C3063 C3057 1.390 . S
C3063 C3060 1.386 . S
C3064 C3059 1.490 . S
C3064 C3066 1.395 . S
C3064 C3067 1.403 . S
H3065 C3071 0.930 . S
C3066 H3052 0.930 . S
C3066 C3064 1.395 . S
C3066 C3069 1.403 . S
C3067 C3064 1.403 . S
C3067 C3068 1.524 . S
C3067 C3071 1.400 . S
C3068 H3053 0.960 . S
C3068 H3054 0.960 . S
C3068 H3055 0.960 . S
C3068 C3067 1.524 . S
C3069 C3066 1.403 . S
C3069 C3070 1.392 . S
C3069 C3073 1.495 1_545 S
C3070 C3069 1.392 . S
C3070 C3071 1.385 . S
C3070 C3072 1.478 . S
C3071 H3065 0.930 . S
C3071 C3067 1.400 . S
C3071 C3070 1.385 . S
C3072 C3070 1.478 . S
C3072 C3074 1.381 . S
C3072 C3078 1.383 . S
C3073 C3069 1.495 1_565 S
C3073 H3079 0.959 . S
C3073 H3080 0.961 1_565 S
C3073 H3081 0.960 . S
C3074 C3072 1.381 . S
C3074 C3075 1.394 . S
C3074 H3082 0.930 . S
C3075 C3074 1.394 . S
C3075 C3076 1.383 . S
C3075 H3083 0.929 . S
C3076 C3075 1.383 . S
C3076 C3077 1.377 . S
C3077 H3061 0.930 . S
C3077 C3076 1.377 . S
C3077 C3078 1.379 . S
C3078 H3062 0.931 . S
C3078 C3072 1.383 . S
C3078 C3077 1.379 . S
H3079 C3073 0.959 . S
H3080 C3073 0.961 1_545 S
H3081 C3073 0.960 . S
H3082 C3074 0.930 . S
H3083 C3075 0.929 . S
H3084 C3092 0.929 . S
H3085 C3094 0.930 . S
H3086 C3096 0.930 . S
H3087 C3099 0.929 . S
H3088 C3102 0.930 . S
H3089 C3104 0.960 . S
H3090 C3104 0.960 . S
H3091 C3104 0.960 . S
C3092 H3084 0.929 . S
C3092 C3093 1.377 . S
C3092 C3094 1.384 . S
C3093 C3092 1.377 . S
C3093 C3099 1.390 . S
C3094 H3085 0.930 . S
C3094 C3092 1.384 . S
C3094 C3095 1.372 . S
C3095 C3094 1.372 . S
C3095 C3096 1.400 . S
C3095 C3100 1.490 . S
C3096 H3086 0.930 . S
C3096 C3095 1.400 . S
C3096 C3099 1.386 . S
H3097 C3113 0.930 . S
H3098 C3114 0.931 . S
C3099 H3087 0.929 . S
C3099 C3093 1.390 . S
C3099 C3096 1.386 . S
C3100 C3095 1.490 . S
C3100 C3102 1.395 . S
C3100 C3103 1.403 . S
H3101 C3107 0.930 . S
C3102 H3088 0.930 . S
C3102 C3100 1.395 . S
C3102 C3105 1.403 . S
C3103 C3100 1.403 . S
C3103 C3104 1.524 . S
C3103 C3107 1.400 . S
C3104 H3089 0.960 . S
C3104 H3090 0.960 . S
C3104 H3091 0.960 . S
C3104 C3103 1.524 . S
C3105 C3102 1.403 . S
C3105 C3106 1.392 . S
C3105 C3109 1.495 . S
C3106 C3105 1.392 . S
C3106 C3107 1.385 . S
C3106 C3108 1.478 . S
C3107 H3101 0.930 . S
C3107 C3103 1.400 . S
C3107 C3106 1.385 . S
C3108 C3106 1.478 . S
C3108 C3110 1.381 . S
C3108 C3114 1.383 . S
C3109 C3105 1.495 . S
C3109 H3115 0.959 . S
C3109 H3116 0.961 . S
C3109 H3117 0.960 . S
C3110 C3108 1.381 . S
C3110 C3111 1.394 . S
C3110 H3118 0.930 . S
C3111 C3110 1.394 . S
C3111 C3112 1.383 . S
C3111 H3119 0.929 . S
C3112 C3111 1.383 . S
C3112 C3113 1.377 . S
C3113 H3097 0.930 . S
C3113 C3112 1.377 . S
C3113 C3114 1.379 . S
C3114 H3098 0.931 . S
C3114 C3108 1.383 . S
C3114 C3113 1.379 . S
H3115 C3109 0.959 . S
H3116 C3109 0.961 . S
H3117 C3109 0.960 . S
H3118 C3110 0.930 . S
H3119 C3111 0.929 . S
H3120 C3128 0.929 . S
H3121 C3130 0.930 . S
H3122 C3132 0.930 . S
H3123 C3135 0.929 . S
H3124 C3138 0.930 . S
H3125 C3140 0.960 . S
H3126 C3140 0.960 . S
H3127 C3140 0.960 . S
C3128 H3120 0.929 . S
C3128 C3129 1.377 . S
C3128 C3130 1.384 . S
C3129 C3128 1.377 . S
C3129 C3135 1.390 . S
C3130 H3121 0.930 . S
C3130 C3128 1.384 . S
C3130 C3131 1.372 . S
C3131 C3130 1.372 . S
C3131 C3132 1.400 . S
C3131 C3136 1.490 . S
C3132 H3122 0.930 . S
C3132 C3131 1.400 . S
C3132 C3135 1.386 . S
H3133 C3149 0.930 . S
H3134 C3150 0.931 . S
C3135 H3123 0.929 . S
C3135 C3129 1.390 . S
C3135 C3132 1.386 . S
C3136 C3131 1.490 . S
C3136 C3138 1.395 . S
C3136 C3139 1.403 . S
H3137 C3143 0.930 1_556 S
C3138 H3124 0.930 . S
C3138 C3136 1.395 . S
C3138 C3141 1.403 . S
C3139 C3136 1.403 . S
C3139 C3140 1.524 1_554 S
C3139 C3143 1.400 . S
C3140 H3125 0.960 . S
C3140 H3126 0.960 . S
C3140 H3127 0.960 . S
C3140 C3139 1.524 1_556 S
C3141 C3138 1.403 . S
C3141 C3142 1.392 . S
C3141 C3145 1.495 . S
C3142 C3141 1.392 . S
C3142 C3143 1.385 . S
C3142 C3144 1.478 . S
C3143 H3137 0.930 1_554 S
C3143 C3139 1.400 . S
C3143 C3142 1.385 . S
C3144 C3142 1.478 . S
C3144 C3146 1.381 . S
C3144 C3150 1.383 . S
C3145 C3141 1.495 . S
C3145 H3151 0.959 . S
C3145 H3152 0.961 . S
C3145 H3153 0.960 . S
C3146 C3144 1.381 . S
C3146 C3147 1.394 . S
C3146 H3154 0.930 . S
C3147 C3146 1.394 . S
C3147 C3148 1.383 . S
C3147 H3155 0.929 . S
C3148 C3147 1.383 . S
C3148 C3149 1.377 . S
C3149 H3133 0.930 . S
C3149 C3148 1.377 . S
C3149 C3150 1.379 . S
C3150 H3134 0.931 . S
C3150 C3144 1.383 . S
C3150 C3149 1.379 . S
H3151 C3145 0.959 . S
H3152 C3145 0.961 . S
H3153 C3145 0.960 . S
H3154 C3146 0.930 . S
H3155 C3147 0.929 . S
H3156 C3164 0.929 . S
H3157 C3166 0.930 . S
H3158 C3168 0.930 . S
H3159 C3171 0.929 . S
H3160 C3174 0.930 . S
H3161 C3176 0.960 . S
H3162 C3176 0.960 . S
H3163 C3176 0.960 . S
C3164 H3156 0.929 . S
C3164 C3165 1.377 . S
C3164 C3166 1.384 . S
C3165 C3164 1.377 . S
C3165 C3171 1.390 . S
C3166 H3157 0.930 . S
C3166 C3164 1.384 . S
C3166 C3167 1.372 . S
C3167 C3166 1.372 . S
C3167 C3168 1.400 . S
C3167 C3172 1.490 . S
C3168 H3158 0.930 . S
C3168 C3167 1.400 . S
C3168 C3171 1.386 . S
H3169 C3185 0.930 . S
H3170 C3186 0.931 . S
C3171 H3159 0.929 . S
C3171 C3165 1.390 . S
C3171 C3168 1.386 . S
C3172 C3167 1.490 . S
C3172 C3174 1.395 . S
C3172 C3175 1.403 . S
H3173 C3179 0.930 . S
C3174 H3160 0.930 . S
C3174 C3172 1.395 . S
C3174 C3177 1.403 . S
C3175 C3172 1.403 . S
C3175 C3176 1.524 . S
C3175 C3179 1.400 . S
C3176 H3161 0.960 . S
C3176 H3162 0.960 . S
C3176 H3163 0.960 . S
C3176 C3175 1.524 . S
C3177 C3174 1.403 . S
C3177 C3178 1.392 . S
C3177 C3181 1.495 . S
C3178 C3177 1.392 . S
C3178 C3179 1.385 . S
C3178 C3180 1.478 . S
C3179 H3173 0.930 . S
C3179 C3175 1.400 . S
C3179 C3178 1.385 . S
C3180 C3178 1.478 . S
C3180 C3182 1.381 . S
C3180 C3186 1.383 . S
C3181 C3177 1.495 . S
C3181 H3187 0.959 . S
C3181 H3188 0.961 . S
C3181 H3189 0.960 . S
C3182 C3180 1.381 . S
C3182 C3183 1.394 . S
C3182 H3190 0.930 . S
C3183 C3182 1.394 . S
C3183 C3184 1.383 . S
C3183 H3191 0.929 . S
C3184 C3183 1.383 . S
C3184 C3185 1.377 . S
C3185 H3169 0.930 . S
C3185 C3184 1.377 . S
C3185 C3186 1.379 . S
C3186 H3170 0.931 . S
C3186 C3180 1.383 . S
C3186 C3185 1.379 . S
H3187 C3181 0.959 . S
H3188 C3181 0.961 . S
H3189 C3181 0.960 . S
H3190 C3182 0.930 . S
H3191 C3183 0.929 . S
H3192 C3200 0.929 . S
H3193 C3202 0.930 . S
H3194 C3204 0.930 . S
H3195 C3207 0.929 . S
H3196 C3210 0.930 . S
H3197 C3212 0.960 . S
H3198 C3212 0.960 . S
H3199 C3212 0.960 . S
C3200 H3192 0.929 . S
C3200 C3201 1.377 . S
C3200 C3202 1.384 . S
C3201 C3200 1.377 . S
C3201 C3207 1.390 . S
C3202 H3193 0.930 . S
C3202 C3200 1.384 . S
C3202 C3203 1.372 . S
C3203 C3202 1.372 . S
C3203 C3204 1.400 . S
C3203 C3208 1.490 . S
C3204 H3194 0.930 . S
C3204 C3203 1.400 . S
C3204 C3207 1.386 . S
H3205 C3221 0.930 . S
H3206 C3222 0.931 . S
C3207 H3195 0.929 . S
C3207 C3201 1.390 . S
C3207 C3204 1.386 . S
C3208 C3203 1.490 . S
C3208 C3210 1.395 . S
C3208 C3211 1.403 . S
H3209 C3215 0.930 . S
C3210 H3196 0.930 . S
C3210 C3208 1.395 . S
C3210 C3213 1.403 . S
C3211 C3208 1.403 . S
C3211 C3212 1.524 . S
C3211 C3215 1.400 . S
C3212 H3197 0.960 . S
C3212 H3198 0.960 . S
C3212 H3199 0.960 . S
C3212 C3211 1.524 . S
C3213 C3210 1.403 . S
C3213 C3214 1.392 . S
C3213 C3217 1.495 . S
C3214 C3213 1.392 . S
C3214 C3215 1.385 . S
C3214 C3216 1.478 . S
C3215 H3209 0.930 . S
C3215 C3211 1.400 . S
C3215 C3214 1.385 . S
C3216 C3214 1.478 . S
C3216 C3218 1.381 . S
C3216 C3222 1.383 . S
C3217 C3213 1.495 . S
C3217 H3223 0.959 . S
C3217 H3224 0.961 . S
C3217 H3225 0.960 . S
C3218 C3216 1.381 . S
C3218 C3219 1.394 . S
C3218 H3226 0.930 . S
C3219 C3218 1.394 . S
C3219 C3220 1.383 . S
C3219 H3227 0.929 . S
C3220 C3219 1.383 . S
C3220 C3221 1.377 . S
C3221 H3205 0.930 . S
C3221 C3220 1.377 . S
C3221 C3222 1.379 . S
C3222 H3206 0.931 . S
C3222 C3216 1.383 . S
C3222 C3221 1.379 . S
H3223 C3217 0.959 . S
H3224 C3217 0.961 . S
H3225 C3217 0.960 . S
H3226 C3218 0.930 . S
H3227 C3219 0.929 . S
H3228 C3236 0.929 . S
H3229 C3238 0.930 . S
H3230 C3240 0.930 . S
H3231 C3243 0.929 . S
H3232 C3246 0.930 . S
H3233 C3248 0.960 . S
H3234 C3248 0.960 . S
H3235 C3248 0.960 . S
C3236 H3228 0.929 . S
C3236 C3237 1.377 . S
C3236 C3238 1.384 . S
C3237 C3236 1.377 . S
C3237 C3243 1.390 . S
C3238 H3229 0.930 . S
C3238 C3236 1.384 . S
C3238 C3239 1.372 . S
C3239 C3238 1.372 . S
C3239 C3240 1.400 . S
C3239 C3244 1.490 . S
C3240 H3230 0.930 . S
C3240 C3239 1.400 . S
C3240 C3243 1.386 . S
H3241 C3257 0.930 . S
H3242 C3258 0.931 . S
C3243 H3231 0.929 . S
C3243 C3237 1.390 . S
C3243 C3240 1.386 . S
C3244 C3239 1.490 . S
C3244 C3246 1.395 . S
C3244 C3247 1.403 . S
H3245 C3251 0.930 . S
C3246 H3232 0.930 . S
C3246 C3244 1.395 . S
C3246 C3249 1.403 . S
C3247 C3244 1.403 . S
C3247 C3248 1.524 . S
C3247 C3251 1.400 . S
C3248 H3233 0.960 . S
C3248 H3234 0.960 . S
C3248 H3235 0.960 . S
C3248 C3247 1.524 . S
C3249 C3246 1.403 . S
C3249 C3250 1.392 . S
C3249 C3253 1.495 . S
C3250 C3249 1.392 . S
C3250 C3251 1.385 . S
C3250 C3252 1.478 . S
C3251 H3245 0.930 . S
C3251 C3247 1.400 . S
C3251 C3250 1.385 . S
C3252 C3250 1.478 . S
C3252 C3254 1.381 . S
C3252 C3258 1.383 . S
C3253 C3249 1.495 . S
C3253 H3259 0.959 . S
C3253 H3260 0.961 . S
C3253 H3261 0.960 . S
C3254 C3252 1.381 . S
C3254 C3255 1.394 . S
C3254 H3262 0.930 . S
C3255 C3254 1.394 . S
C3255 C3256 1.383 . S
C3255 H3263 0.929 . S
C3256 C3255 1.383 . S
C3256 C3257 1.377 . S
C3257 H3241 0.930 . S
C3257 C3256 1.377 . S
C3257 C3258 1.379 . S
C3258 H3242 0.931 . S
C3258 C3252 1.383 . S
C3258 C3257 1.379 . S
H3259 C3253 0.959 . S
H3260 C3253 0.961 . S
H3261 C3253 0.960 . S
H3262 C3254 0.930 . S
H3263 C3255 0.929 . S
H3264 C3272 0.929 . S
H3265 C3274 0.930 . S
H3266 C3276 0.930 . S
H3267 C3279 0.929 . S
H3268 C3282 0.930 . S
H3269 C3284 0.960 . S
H3270 C3284 0.960 . S
H3271 C3284 0.960 . S
C3272 H3264 0.929 . S
C3272 C3273 1.377 1_565 S
C3272 C3274 1.384 . S
C3273 C3272 1.377 1_545 S
C3273 C3279 1.390 . S
C3274 H3265 0.930 . S
C3274 C3272 1.384 . S
C3274 C3275 1.372 . S
C3275 C3274 1.372 . S
C3275 C3276 1.400 . S
C3275 C3280 1.490 . S
C3276 H3266 0.930 . S
C3276 C3275 1.400 . S
C3276 C3279 1.386 1_565 S
H3277 C3293 0.930 . S
H3278 C3294 0.931 . S
C3279 H3267 0.929 . S
C3279 C3273 1.390 . S
C3279 C3276 1.386 1_545 S
C3280 C3275 1.490 . S
C3280 C3282 1.395 . S
C3280 C3283 1.403 . S
H3281 C3287 0.930 . S
C3282 H3268 0.930 . S
C3282 C3280 1.395 . S
C3282 C3285 1.403 . S
C3283 C3280 1.403 . S
C3283 C3284 1.524 . S
C3283 C3287 1.400 . S
C3284 H3269 0.960 . S
C3284 H3270 0.960 . S
C3284 H3271 0.960 . S
C3284 C3283 1.524 . S
C3285 C3282 1.403 . S
C3285 C3286 1.392 . S
C3285 C3289 1.495 . S
C3286 C3285 1.392 . S
C3286 C3287 1.385 . S
C3286 C3288 1.478 . S
C3287 H3281 0.930 . S
C3287 C3283 1.400 . S
C3287 C3286 1.385 . S
C3288 C3286 1.478 . S
C3288 C3290 1.381 . S
C3288 C3294 1.383 . S
C3289 C3285 1.495 . S
C3289 H3295 0.959 . S
C3289 H3296 0.961 . S
C3289 H3297 0.960 . S
C3290 C3288 1.381 . S
C3290 C3291 1.394 . S
C3290 H3298 0.930 . S
C3291 C3290 1.394 . S
C3291 C3292 1.383 . S
C3291 H3299 0.929 . S
C3292 C3291 1.383 . S
C3292 C3293 1.377 . S
C3293 H3277 0.930 . S
C3293 C3292 1.377 . S
C3293 C3294 1.379 . S
C3294 H3278 0.931 . S
C3294 C3288 1.383 . S
C3294 C3293 1.379 . S
H3295 C3289 0.959 . S
H3296 C3289 0.961 . S
H3297 C3289 0.960 . S
H3298 C3290 0.930 . S
H3299 C3291 0.929 . S
H3300 C3308 0.929 . S
H3301 C3310 0.930 . S
H3302 C3312 0.930 . S
H3303 C3315 0.929 . S
H3304 C3318 0.930 . S
H3305 C3320 0.960 . S
H3306 C3320 0.960 . S
H3307 C3320 0.960 . S
C3308 H3300 0.929 . S
C3308 C3309 1.377 . S
C3308 C3310 1.384 . S
C3309 C3308 1.377 . S
C3309 C3315 1.390 . S
C3310 H3301 0.930 . S
C3310 C3308 1.384 . S
C3310 C3311 1.372 . S
C3311 C3310 1.372 . S
C3311 C3312 1.400 . S
C3311 C3316 1.490 . S
C3312 H3302 0.930 . S
C3312 C3311 1.400 . S
C3312 C3315 1.386 . S
H3313 C3329 0.930 . S
H3314 C3330 0.931 . S
C3315 H3303 0.929 . S
C3315 C3309 1.390 . S
C3315 C3312 1.386 . S
C3316 C3311 1.490 . S
C3316 C3318 1.395 . S
C3316 C3319 1.403 . S
H3317 C3323 0.930 . S
C3318 H3304 0.930 . S
C3318 C3316 1.395 . S
C3318 C3321 1.403 . S
C3319 C3316 1.403 . S
C3319 C3320 1.524 . S
C3319 C3323 1.400 . S
C3320 H3305 0.960 . S
C3320 H3306 0.960 . S
C3320 H3307 0.960 . S
C3320 C3319 1.524 . S
C3321 C3318 1.403 . S
C3321 C3322 1.392 . S
C3321 C3325 1.495 . S
C3322 C3321 1.392 . S
C3322 C3323 1.385 . S
C3322 C3324 1.478 . S
C3323 H3317 0.930 . S
C3323 C3319 1.400 . S
C3323 C3322 1.385 . S
C3324 C3322 1.478 . S
C3324 C3326 1.381 . S
C3324 C3330 1.383 . S
C3325 C3321 1.495 . S
C3325 H3331 0.959 . S
C3325 H3332 0.961 . S
C3325 H3333 0.960 . S
C3326 C3324 1.381 . S
C3326 C3327 1.394 . S
C3326 H3334 0.930 . S
C3327 C3326 1.394 . S
C3327 C3328 1.383 . S
C3327 H3335 0.929 . S
C3328 C3327 1.383 . S
C3328 C3329 1.377 . S
C3329 H3313 0.930 . S
C3329 C3328 1.377 . S
C3329 C3330 1.379 . S
C3330 H3314 0.931 . S
C3330 C3324 1.383 . S
C3330 C3329 1.379 . S
H3331 C3325 0.959 . S
H3332 C3325 0.961 . S
H3333 C3325 0.960 . S
H3334 C3326 0.930 . S
H3335 C3327 0.929 . S
H3336 C3344 0.929 . S
H3337 C3346 0.930 . S
H3338 C3348 0.930 . S
H3339 C3351 0.929 . S
H3340 C3354 0.930 . S
H3341 C3356 0.960 . S
H3342 C3356 0.960 . S
H3343 C3356 0.960 . S
C3344 H3336 0.929 . S
C3344 C3345 1.377 . S
C3344 C3346 1.384 . S
C3345 C3344 1.377 . S
C3345 C3351 1.390 . S
C3346 H3337 0.930 . S
C3346 C3344 1.384 . S
C3346 C3347 1.372 . S
C3347 C3346 1.372 . S
C3347 C3348 1.400 . S
C3347 C3352 1.490 . S
C3348 H3338 0.930 . S
C3348 C3347 1.400 . S
C3348 C3351 1.386 . S
H3349 C3365 0.930 . S
H3350 C3366 0.931 . S
C3351 H3339 0.929 . S
C3351 C3345 1.390 . S
C3351 C3348 1.386 . S
C3352 C3347 1.490 . S
C3352 C3354 1.395 . S
C3352 C3355 1.403 . S
H3353 C3359 0.930 . S
C3354 H3340 0.930 . S
C3354 C3352 1.395 . S
C3354 C3357 1.403 . S
C3355 C3352 1.403 . S
C3355 C3356 1.524 . S
C3355 C3359 1.400 . S
C3356 H3341 0.960 . S
C3356 H3342 0.960 . S
C3356 H3343 0.960 . S
C3356 C3355 1.524 . S
C3357 C3354 1.403 . S
C3357 C3358 1.392 . S
C3357 C3361 1.495 . S
C3358 C3357 1.392 . S
C3358 C3359 1.385 . S
C3358 C3360 1.478 . S
C3359 H3353 0.930 . S
C3359 C3355 1.400 . S
C3359 C3358 1.385 . S
C3360 C3358 1.478 . S
C3360 C3362 1.381 . S
C3360 C3366 1.383 . S
C3361 C3357 1.495 . S
C3361 H3367 0.959 . S
C3361 H3368 0.961 . S
C3361 H3369 0.960 . S
C3362 C3360 1.381 . S
C3362 C3363 1.394 . S
C3362 H3370 0.930 . S
C3363 C3362 1.394 . S
C3363 C3364 1.383 . S
C3363 H3371 0.929 . S
C3364 C3363 1.383 . S
C3364 C3365 1.377 . S
C3365 H3349 0.930 . S
C3365 C3364 1.377 . S
C3365 C3366 1.379 . S
C3366 H3350 0.931 . S
C3366 C3360 1.383 . S
C3366 C3365 1.379 . S
H3367 C3361 0.959 . S
H3368 C3361 0.961 . S
H3369 C3361 0.960 . S
H3370 C3362 0.930 . S
H3371 C3363 0.929 . S
H3372 C3380 0.929 . S
H3373 C3382 0.930 . S
H3374 C3384 0.930 . S
H3375 C3387 0.929 . S
H3376 C3390 0.930 . S
H3377 C3392 0.960 . S
H3378 C3392 0.960 . S
H3379 C3392 0.960 . S
C3380 H3372 0.929 . S
C3380 C3381 1.377 . S
C3380 C3382 1.384 . S
C3381 C3380 1.377 . S
C3381 C3387 1.390 . S
C3382 H3373 0.930 . S
C3382 C3380 1.384 . S
C3382 C3383 1.372 . S
C3383 C3382 1.372 . S
C3383 C3384 1.400 . S
C3383 C3388 1.490 . S
C3384 H3374 0.930 . S
C3384 C3383 1.400 . S
C3384 C3387 1.386 . S
H3385 C3401 0.930 . S
H3386 C3402 0.931 . S
C3387 H3375 0.929 . S
C3387 C3381 1.390 . S
C3387 C3384 1.386 . S
C3388 C3383 1.490 . S
C3388 C3390 1.395 . S
C3388 C3391 1.403 . S
H3389 C3395 0.930 . S
C3390 H3376 0.930 . S
C3390 C3388 1.395 . S
C3390 C3393 1.403 . S
C3391 C3388 1.403 . S
C3391 C3392 1.524 . S
C3391 C3395 1.400 . S
C3392 H3377 0.960 . S
C3392 H3378 0.960 . S
C3392 H3379 0.960 . S
C3392 C3391 1.524 . S
C3393 C3390 1.403 . S
C3393 C3394 1.392 . S
C3393 C3397 1.495 . S
C3394 C3393 1.392 . S
C3394 C3395 1.385 . S
C3394 C3396 1.478 . S
C3395 H3389 0.930 . S
C3395 C3391 1.400 . S
C3395 C3394 1.385 . S
C3396 C3394 1.478 . S
C3396 C3398 1.381 . S
C3396 C3402 1.383 . S
C3397 C3393 1.495 . S
C3397 H3403 0.959 . S
C3397 H3404 0.961 . S
C3397 H3405 0.960 . S
C3398 C3396 1.381 . S
C3398 C3399 1.394 . S
C3398 H3406 0.930 . S
C3399 C3398 1.394 . S
C3399 C3400 1.383 . S
C3399 H3407 0.929 . S
C3400 C3399 1.383 . S
C3400 C3401 1.377 . S
C3401 H3385 0.930 . S
C3401 C3400 1.377 . S
C3401 C3402 1.379 . S
C3402 H3386 0.931 . S
C3402 C3396 1.383 . S
C3402 C3401 1.379 . S
H3403 C3397 0.959 . S
H3404 C3397 0.961 . S
H3405 C3397 0.960 . S
H3406 C3398 0.930 . S
H3407 C3399 0.929 . S
H3408 C3416 0.929 . S
H3409 C3418 0.930 . S
H3410 C3420 0.930 . S
H3411 C3423 0.929 . S
H3412 C3426 0.930 . S
H3413 C3428 0.960 . S
H3414 C3428 0.960 . S
H3415 C3428 0.960 . S
C3416 H3408 0.929 . S
C3416 C3417 1.377 . S
C3416 C3418 1.384 . S
C3417 C3416 1.377 . S
C3417 C3423 1.390 . S
C3418 H3409 0.930 . S
C3418 C3416 1.384 . S
C3418 C3419 1.372 . S
C3419 C3418 1.372 . S
C3419 C3420 1.400 . S
C3419 C3424 1.490 . S
C3420 H3410 0.930 . S
C3420 C3419 1.400 . S
C3420 C3423 1.386 . S
H3421 C3437 0.930 . S
H3422 C3438 0.931 . S
C3423 H3411 0.929 . S
C3423 C3417 1.390 . S
C3423 C3420 1.386 . S
C3424 C3419 1.490 . S
C3424 C3426 1.395 . S
C3424 C3427 1.403 . S
H3425 C3431 0.930 . S
C3426 H3412 0.930 . S
C3426 C3424 1.395 . S
C3426 C3429 1.403 . S
C3427 C3424 1.403 . S
C3427 C3428 1.524 . S
C3427 C3431 1.400 . S
C3428 H3413 0.960 . S
C3428 H3414 0.960 . S
C3428 H3415 0.960 . S
C3428 C3427 1.524 . S
C3429 C3426 1.403 . S
C3429 C3430 1.392 . S
C3429 C3433 1.495 . S
C3430 C3429 1.392 . S
C3430 C3431 1.385 . S
C3430 C3432 1.478 . S
C3431 H3425 0.930 . S
C3431 C3427 1.400 . S
C3431 C3430 1.385 . S
C3432 C3430 1.478 . S
C3432 C3434 1.381 . S
C3432 C3438 1.383 . S
C3433 C3429 1.495 . S
C3433 H3439 0.959 . S
C3433 H3440 0.961 . S
C3433 H3441 0.960 . S
C3434 C3432 1.381 . S
C3434 C3435 1.394 . S
C3434 H3442 0.930 . S
C3435 C3434 1.394 . S
C3435 C3436 1.383 . S
C3435 H3443 0.929 . S
C3436 C3435 1.383 . S
C3436 C3437 1.377 . S
C3437 H3421 0.930 . S
C3437 C3436 1.377 . S
C3437 C3438 1.379 . S
C3438 H3422 0.931 . S
C3438 C3432 1.383 . S
C3438 C3437 1.379 . S
H3439 C3433 0.959 . S
H3440 C3433 0.961 . S
H3441 C3433 0.960 . S
H3442 C3434 0.930 . S
H3443 C3435 0.929 . S
H3444 C3452 0.929 . S
H3445 C3454 0.930 . S
H3446 C3456 0.930 . S
H3447 C3459 0.929 . S
H3448 C3462 0.930 . S
H3449 C3464 0.960 . S
H3450 C3464 0.960 . S
H3451 C3464 0.960 . S
C3452 H3444 0.929 . S
C3452 C3453 1.377 . S
C3452 C3454 1.384 . S
C3453 C3452 1.377 . S
C3453 C3459 1.390 . S
C3454 H3445 0.930 . S
C3454 C3452 1.384 . S
C3454 C3455 1.372 . S
C3455 C3454 1.372 . S
C3455 C3456 1.400 . S
C3455 C3460 1.490 . S
C3456 H3446 0.930 . S
C3456 C3455 1.400 . S
C3456 C3459 1.386 . S
H3457 C3473 0.930 . S
H3458 C3474 0.931 . S
C3459 H3447 0.929 . S
C3459 C3453 1.390 . S
C3459 C3456 1.386 . S
C3460 C3455 1.490 . S
C3460 C3462 1.395 . S
C3460 C3463 1.403 . S
H3461 C3467 0.930 . S
C3462 H3448 0.930 . S
C3462 C3460 1.395 . S
C3462 C3465 1.403 . S
C3463 C3460 1.403 . S
C3463 C3464 1.524 . S
C3463 C3467 1.400 . S
C3464 H3449 0.960 . S
C3464 H3450 0.960 . S
C3464 H3451 0.960 . S
C3464 C3463 1.524 . S
C3465 C3462 1.403 . S
C3465 C3466 1.392 . S
C3465 C3469 1.495 . S
C3466 C3465 1.392 . S
C3466 C3467 1.385 . S
C3466 C3468 1.478 . S
C3467 H3461 0.930 . S
C3467 C3463 1.400 . S
C3467 C3466 1.385 . S
C3468 C3466 1.478 . S
C3468 C3470 1.381 . S
C3468 C3474 1.383 . S
C3469 C3465 1.495 . S
C3469 H3475 0.959 . S
C3469 H3476 0.961 . S
C3469 H3477 0.960 . S
C3470 C3468 1.381 . S
C3470 C3471 1.394 . S
C3470 H3478 0.930 . S
C3471 C3470 1.394 . S
C3471 C3472 1.383 . S
C3471 H3479 0.929 . S
C3472 C3471 1.383 . S
C3472 C3473 1.377 . S
C3473 H3457 0.930 . S
C3473 C3472 1.377 . S
C3473 C3474 1.379 . S
C3474 H3458 0.931 . S
C3474 C3468 1.383 . S
C3474 C3473 1.379 . S
H3475 C3469 0.959 . S
H3476 C3469 0.961 . S
H3477 C3469 0.960 . S
H3478 C3470 0.930 . S
H3479 C3471 0.929 . S
H3480 C3488 0.929 . S
H3481 C3490 0.930 . S
H3482 C3492 0.930 . S
H3483 C3495 0.929 1_655 S
H3484 C3498 0.930 . S
H3485 C3500 0.938 1_654 S
H3486 C3500 0.934 1_554 S
H3487 C3500 0.984 1_655 S
C3488 H3480 0.929 . S
C3488 C3489 1.377 . S
C3488 C3490 1.384 . S
C3489 C3488 1.377 . S
C3489 C3495 1.390 . S
C3490 H3481 0.930 . S
C3490 C3488 1.384 . S
C3490 C3491 1.372 . S
C3491 C3490 1.372 . S
C3491 C3492 1.400 . S
C3491 C3496 1.490 . S
C3492 H3482 0.930 . S
C3492 C3491 1.400 . S
C3492 C3495 1.386 . S
H3493 C3509 0.930 . S
H3494 C3510 0.931 . S
C3495 H3483 0.929 1_455 S
C3495 C3489 1.390 . S
C3495 C3492 1.386 . S
C3496 C3491 1.490 . S
C3496 C3498 1.395 . S
C3496 C3499 1.403 . S
H3497 C3503 0.930 1_554 S
C3498 H3484 0.930 . S
C3498 C3496 1.395 . S
C3498 C3501 1.403 . S
C3499 C3496 1.403 . S
C3499 C3500 1.550 . S
C3499 C3503 1.400 . S
C3500 H3485 0.938 1_456 S
C3500 H3486 0.934 1_556 S
C3500 H3487 0.984 1_455 S
C3500 C3499 1.550 . S
C3501 C3498 1.403 . S
C3501 C3502 1.392 . S
C3501 C3505 1.495 . S
C3502 C3501 1.392 . S
C3502 C3503 1.385 . S
C3502 C3504 1.478 . S
C3503 H3497 0.930 1_556 S
C3503 C3499 1.400 . S
C3503 C3502 1.385 . S
C3504 C3502 1.478 . S
C3504 C3506 1.381 1_556 S
C3504 C3510 1.383 . S
C3505 C3501 1.495 . S
C3505 H3511 0.959 . S
C3505 H3512 0.961 . S
C3505 H3513 0.960 . S
C3506 C3504 1.381 1_554 S
C3506 C3507 1.394 . S
C3506 H3514 0.930 . S
C3507 C3506 1.394 . S
C3507 C3508 1.383 . S
C3507 H3515 0.929 . S
C3508 C3507 1.383 . S
C3508 C3509 1.377 1_554 S
C3509 H3493 0.930 . S
C3509 C3508 1.377 1_556 S
C3509 C3510 1.379 . S
C3510 H3494 0.931 . S
C3510 C3504 1.383 . S
C3510 C3509 1.379 . S
H3511 C3505 0.959 . S
H3512 C3505 0.961 . S
H3513 C3505 0.960 . S
H3514 C3506 0.930 . S
H3515 C3507 0.929 . S
H3516 C3524 0.929 . S
H3517 C3526 0.930 1_655 S
H3518 C3528 0.930 . S
H3519 C3531 0.929 . S
H3520 C3534 0.930 . S
H3521 C3536 0.960 . S
H3522 C3536 0.960 . S
H3523 C3536 0.960 . S
C3524 H3516 0.929 . S
C3524 C3525 1.377 . S
C3524 C3526 1.384 . S
C3525 C3524 1.377 . S
C3525 C3531 1.390 . S
C3526 H3517 0.930 1_455 S
C3526 C3524 1.384 . S
C3526 C3527 1.380 . S
C3527 C3526 1.380 . S
C3527 C3528 1.453 . S
C3527 C3532 1.433 1_455 S
C3528 H3518 0.930 . S
C3528 C3527 1.453 . S
C3528 C3531 1.386 . S
H3529 C3545 0.930 . S
H3530 C3546 0.931 . S
C3531 H3519 0.929 . S
C3531 C3525 1.390 . S
C3531 C3528 1.386 . S
C3532 C3527 1.433 1_655 S
C3532 C3534 1.395 . S
C3532 C3535 1.403 . S
H3533 C3539 0.930 . S
C3534 H3520 0.930 . S
C3534 C3532 1.395 . S
C3534 C3537 1.403 . S
C3535 C3532 1.403 . S
C3535 C3536 1.524 1_655 S
C3535 C3539 1.400 . S
C3536 H3521 0.960 . S
C3536 H3522 0.960 . S
C3536 H3523 0.960 . S
C3536 C3535 1.524 1_455 S
C3537 C3534 1.403 . S
C3537 C3538 1.392 . S
C3537 C3541 1.495 . S
C3538 C3537 1.392 . S
C3538 C3539 1.385 . S
C3538 C3540 1.478 . S
C3539 H3533 0.930 . S
C3539 C3535 1.400 . S
C3539 C3538 1.385 . S
C3540 C3538 1.478 . S
C3540 C3542 1.381 . S
C3540 C3546 1.383 . S
C3541 C3537 1.495 . S
C3541 H3547 0.959 . S
C3541 H3548 0.961 . S
C3541 H3549 0.960 . S
C3542 C3540 1.381 . S
C3542 C3543 1.394 . S
C3542 H3550 0.930 . S
C3543 C3542 1.394 . S
C3543 C3544 1.383 . S
C3543 H3551 0.929 . S
C3544 C3543 1.383 . S
C3544 C3545 1.377 . S
C3545 H3529 0.930 . S
C3545 C3544 1.377 . S
C3545 C3546 1.379 . S
C3546 H3530 0.931 . S
C3546 C3540 1.383 . S
C3546 C3545 1.379 . S
H3547 C3541 0.959 . S
H3548 C3541 0.961 . S
H3549 C3541 0.960 . S
H3550 C3542 0.930 . S
H3551 C3543 0.929 . S
H3552 C3560 0.929 . S
H3553 C3562 0.930 . S
H3554 C3564 0.930 . S
H3555 C3567 0.929 . S
H3556 C3570 0.930 . S
H3557 C3572 0.960 . S
H3558 C3572 0.960 . S
H3559 C3572 0.960 . S
C3560 H3552 0.929 . S
C3560 C3561 1.377 . S
C3560 C3562 1.384 . S
C3561 C3560 1.377 . S
C3561 C3567 1.390 . S
C3562 H3553 0.930 . S
C3562 C3560 1.384 . S
C3562 C3563 1.372 . S
C3563 C3562 1.372 . S
C3563 C3564 1.400 . S
C3563 C3568 1.490 . S
C3564 H3554 0.930 . S
C3564 C3563 1.400 . S
C3564 C3567 1.386 . S
H3565 C3581 0.930 . S
H3566 C3582 0.931 . S
C3567 H3555 0.929 . S
C3567 C3561 1.390 . S
C3567 C3564 1.386 . S
C3568 C3563 1.490 . S
C3568 C3570 1.395 . S
C3568 C3571 1.403 . S
H3569 C3575 0.930 . S
C3570 H3556 0.930 . S
C3570 C3568 1.395 . S
C3570 C3573 1.403 . S
C3571 C3568 1.403 . S
C3571 C3572 1.524 . S
C3571 C3575 1.400 . S
C3572 H3557 0.960 . S
C3572 H3558 0.960 . S
C3572 H3559 0.960 . S
C3572 C3571 1.524 . S
C3573 C3570 1.403 . S
C3573 C3574 1.392 . S
C3573 C3577 1.495 . S
C3574 C3573 1.392 . S
C3574 C3575 1.385 . S
C3574 C3576 1.478 . S
C3575 H3569 0.930 . S
C3575 C3571 1.400 . S
C3575 C3574 1.385 . S
C3576 C3574 1.478 . S
C3576 C3578 1.381 . S
C3576 C3582 1.383 . S
C3577 C3573 1.495 . S
C3577 H3583 0.959 . S
C3577 H3584 0.961 . S
C3577 H3585 0.960 . S
C3578 C3576 1.381 . S
C3578 C3579 1.394 . S
C3578 H3586 0.930 . S
C3579 C3578 1.394 . S
C3579 C3580 1.383 . S
C3579 H3587 0.929 . S
C3580 C3579 1.383 . S
C3580 C3581 1.377 . S
C3581 H3565 0.930 . S
C3581 C3580 1.377 . S
C3581 C3582 1.379 . S
C3582 H3566 0.931 . S
C3582 C3576 1.383 . S
C3582 C3581 1.379 . S
H3583 C3577 0.959 . S
H3584 C3577 0.961 . S
H3585 C3577 0.960 . S
H3586 C3578 0.930 . S
H3587 C3579 0.929 . S
H3588 C3596 0.929 . S
H3589 C3598 0.930 . S
H3590 C3600 0.930 . S
H3591 C3603 0.929 . S
H3592 C3606 0.930 . S
H3593 C3608 0.960 . S
H3594 C3608 0.960 1_455 S
H3595 C3608 0.960 1_455 S
C3596 H3588 0.929 . S
C3596 C3597 1.377 . S
C3596 C3598 1.384 . S
C3597 C3596 1.377 . S
C3597 C3603 1.390 . S
C3598 H3589 0.930 . S
C3598 C3596 1.384 . S
C3598 C3599 1.372 . S
C3599 C3598 1.372 . S
C3599 C3600 1.400 . S
C3599 C3604 1.490 . S
C3600 H3590 0.930 . S
C3600 C3599 1.400 . S
C3600 C3603 1.386 . S
H3601 C3617 0.930 . S
H3602 C3618 0.931 . S
C3603 H3591 0.929 . S
C3603 C3597 1.390 . S
C3603 C3600 1.386 . S
C3604 C3599 1.490 . S
C3604 C3606 1.395 . S
C3604 C3607 1.403 1_455 S
H3605 C3611 0.930 . S
C3606 H3592 0.930 . S
C3606 C3604 1.395 . S
C3606 C3609 1.403 1_455 S
C3607 C3604 1.403 1_655 S
C3607 C3608 1.524 . S
C3607 C3611 1.400 . S
C3608 H3593 0.960 . S
C3608 H3594 0.960 1_655 S
C3608 H3595 0.960 1_655 S
C3608 C3607 1.524 . S
C3609 C3606 1.403 1_655 S
C3609 C3610 1.392 . S
C3609 C3613 1.495 . S
C3610 C3609 1.392 . S
C3610 C3611 1.385 . S
C3610 C3612 1.478 . S
C3611 H3605 0.930 . S
C3611 C3607 1.400 . S
C3611 C3610 1.385 . S
C3612 C3610 1.478 . S
C3612 C3614 1.381 . S
C3612 C3618 1.383 . S
C3613 C3609 1.495 . S
C3613 H3619 0.959 . S
C3613 H3620 0.961 . S
C3613 H3621 0.960 . S
C3614 C3612 1.381 . S
C3614 C3615 1.394 . S
C3614 H3622 0.930 . S
C3615 C3614 1.394 . S
C3615 C3616 1.383 . S
C3615 H3623 0.929 . S
C3616 C3615 1.383 . S
C3616 C3617 1.377 . S
C3617 H3601 0.930 . S
C3617 C3616 1.377 . S
C3617 C3618 1.379 . S
C3618 H3602 0.931 . S
C3618 C3612 1.383 . S
C3618 C3617 1.379 . S
H3619 C3613 0.959 . S
H3620 C3613 0.961 . S
H3621 C3613 0.960 . S
H3622 C3614 0.930 . S
H3623 C3615 0.929 . S
H3624 C3632 0.929 . S
H3625 C3634 0.930 . S
H3626 C3636 0.930 . S
H3627 C3639 0.929 . S
H3628 C3642 0.930 . S
H3629 C3644 0.960 . S
H3630 C3644 0.960 1_455 S
H3631 C3644 0.960 . S
C3632 H3624 0.929 . S
C3632 C3633 1.377 1_455 S
C3632 C3634 1.384 . S
C3633 C3632 1.377 1_655 S
C3633 C3639 1.390 . S
C3634 H3625 0.930 . S
C3634 C3632 1.384 . S
C3634 C3635 1.372 . S
C3635 C3634 1.372 . S
C3635 C3636 1.400 1_455 S
C3635 C3640 1.490 . S
C3636 H3626 0.930 . S
C3636 C3635 1.400 1_655 S
C3636 C3639 1.386 . S
H3637 C3653 0.930 . S
H3638 C3654 0.931 1_655 S
C3639 H3627 0.929 . S
C3639 C3633 1.390 . S
C3639 C3636 1.386 . S
C3640 C3635 1.490 . S
C3640 C3642 1.395 . S
C3640 C3643 1.403 . S
H3641 C3647 0.930 . S
C3642 H3628 0.930 . S
C3642 C3640 1.395 . S
C3642 C3645 1.403 . S
C3643 C3640 1.403 . S
C3643 C3644 1.524 1_455 S
C3643 C3647 1.400 . S
C3644 H3629 0.960 . S
C3644 H3630 0.960 1_655 S
C3644 H3631 0.960 . S
C3644 C3643 1.524 1_655 S
C3645 C3642 1.403 . S
C3645 C3646 1.392 . S
C3645 C3649 1.495 . S
C3646 C3645 1.392 . S
C3646 C3647 1.385 . S
C3646 C3648 1.478 . S
C3647 H3641 0.930 . S
C3647 C3643 1.400 . S
C3647 C3646 1.385 . S
C3648 C3646 1.478 . S
C3648 C3650 1.381 . S
C3648 C3654 1.383 . S
C3649 C3645 1.495 . S
C3649 H3655 0.959 . S
C3649 H3656 0.961 . S
C3649 H3657 0.960 . S
C3650 C3648 1.381 . S
C3650 C3651 1.394 . S
C3650 H3658 0.930 . S
C3651 C3650 1.394 . S
C3651 C3652 1.383 . S
C3651 H3659 0.929 . S
C3652 C3651 1.383 . S
C3652 C3653 1.377 . S
C3653 H3637 0.930 . S
C3653 C3652 1.377 . S
C3653 C3654 1.379 . S
C3654 H3638 0.931 1_455 S
C3654 C3648 1.383 . S
C3654 C3653 1.379 . S
H3655 C3649 0.959 . S
H3656 C3649 0.961 . S
H3657 C3649 0.960 . S
H3658 C3650 0.930 . S
H3659 C3651 0.929 . S
H3660 C3668 0.929 . S
H3661 C3670 0.930 . S
H3662 C3672 0.930 . S
H3663 C3675 0.929 . S
H3664 C3678 0.930 . S
H3665 C3680 0.960 . S
H3666 C3680 0.960 . S
H3667 C3680 0.960 . S
C3668 H3660 0.929 . S
C3668 C3669 1.377 . S
C3668 C3670 1.384 . S
C3669 C3668 1.377 . S
C3669 C3675 1.390 . S
C3670 H3661 0.930 . S
C3670 C3668 1.384 . S
C3670 C3671 1.372 . S
C3671 C3670 1.372 . S
C3671 C3672 1.400 . S
C3671 C3676 1.490 . S
C3672 H3662 0.930 . S
C3672 C3671 1.400 . S
C3672 C3675 1.386 . S
H3673 C3689 0.930 . S
H3674 C3690 0.931 . S
C3675 H3663 0.929 . S
C3675 C3669 1.390 . S
C3675 C3672 1.386 . S
C3676 C3671 1.490 . S
C3676 C3678 1.395 . S
C3676 C3679 1.403 . S
H3677 C3683 0.930 . S
C3678 H3664 0.930 . S
C3678 C3676 1.395 . S
C3678 C3681 1.403 . S
C3679 C3676 1.403 . S
C3679 C3680 1.524 . S
C3679 C3683 1.400 . S
C3680 H3665 0.960 . S
C3680 H3666 0.960 . S
C3680 H3667 0.960 . S
C3680 C3679 1.524 . S
C3681 C3678 1.403 . S
C3681 C3682 1.392 . S
C3681 C3685 1.495 . S
C3682 C3681 1.392 . S
C3682 C3683 1.385 . S
C3682 C3684 1.478 . S
C3683 H3677 0.930 . S
C3683 C3679 1.400 . S
C3683 C3682 1.385 . S
C3684 C3682 1.478 . S
C3684 C3686 1.381 . S
C3684 C3690 1.383 . S
C3685 C3681 1.495 . S
C3685 H3691 0.959 . S
C3685 H3692 0.961 . S
C3685 H3693 0.960 . S
C3686 C3684 1.381 . S
C3686 C3687 1.394 . S
C3686 H3694 0.930 . S
C3687 C3686 1.394 . S
C3687 C3688 1.383 . S
C3687 H3695 0.929 . S
C3688 C3687 1.383 . S
C3688 C3689 1.377 . S
C3689 H3673 0.930 . S
C3689 C3688 1.377 . S
C3689 C3690 1.379 . S
C3690 H3674 0.931 . S
C3690 C3684 1.383 . S
C3690 C3689 1.379 . S
H3691 C3685 0.959 . S
H3692 C3685 0.961 . S
H3693 C3685 0.960 . S
H3694 C3686 0.930 . S
H3695 C3687 0.929 . S
H3696 C3704 0.929 . S
H3697 C3706 0.930 . S
H3698 C3708 0.930 . S
H3699 C3711 0.929 . S
H3700 C3714 0.930 . S
H3701 C3716 0.960 . S
H3702 C3716 0.960 . S
H3703 C3716 0.960 . S
C3704 H3696 0.929 . S
C3704 C3705 1.377 . S
C3704 C3706 1.384 . S
C3705 C3704 1.377 . S
C3705 C3711 1.390 . S
C3706 H3697 0.930 . S
C3706 C3704 1.384 . S
C3706 C3707 1.372 . S
C3707 C3706 1.372 . S
C3707 C3708 1.400 . S
C3707 C3712 1.490 . S
C3708 H3698 0.930 . S
C3708 C3707 1.400 . S
C3708 C3711 1.386 . S
H3709 C3725 0.930 . S
H3710 C3726 0.931 . S
C3711 H3699 0.929 . S
C3711 C3705 1.390 . S
C3711 C3708 1.386 . S
C3712 C3707 1.490 . S
C3712 C3714 1.395 . S
C3712 C3715 1.403 . S
H3713 C3719 0.930 . S
C3714 H3700 0.930 . S
C3714 C3712 1.395 . S
C3714 C3717 1.403 . S
C3715 C3712 1.403 . S
C3715 C3716 1.524 . S
C3715 C3719 1.400 . S
C3716 H3701 0.960 . S
C3716 H3702 0.960 . S
C3716 H3703 0.960 . S
C3716 C3715 1.524 . S
C3717 C3714 1.403 . S
C3717 C3718 1.392 . S
C3717 C3721 1.495 . S
C3718 C3717 1.392 . S
C3718 C3719 1.385 . S
C3718 C3720 1.478 . S
C3719 H3713 0.930 . S
C3719 C3715 1.400 . S
C3719 C3718 1.385 . S
C3720 C3718 1.478 . S
C3720 C3722 1.381 . S
C3720 C3726 1.383 . S
C3721 C3717 1.495 . S
C3721 H3727 0.959 . S
C3721 H3728 0.961 . S
C3721 H3729 0.960 . S
C3722 C3720 1.381 . S
C3722 C3723 1.394 . S
C3722 H3730 0.930 . S
C3723 C3722 1.394 . S
C3723 C3724 1.383 . S
C3723 H3731 0.929 . S
C3724 C3723 1.383 . S
C3724 C3725 1.377 . S
C3725 H3709 0.930 . S
C3725 C3724 1.377 . S
C3725 C3726 1.379 . S
C3726 H3710 0.931 . S
C3726 C3720 1.383 . S
C3726 C3725 1.379 . S
H3727 C3721 0.959 . S
H3728 C3721 0.961 . S
H3729 C3721 0.960 . S
H3730 C3722 0.930 . S
H3731 C3723 0.929 . S
H3732 C3740 0.929 . S
H3733 C3742 0.930 . S
H3734 C3744 0.930 . S
H3735 C3747 0.929 . S
H3736 C3750 0.930 . S
H3737 C3752 0.960 . S
H3738 C3752 0.960 . S
H3739 C3752 0.960 . S
C3740 H3732 0.929 . S
C3740 C3741 1.377 . S
C3740 C3742 1.384 . S
C3741 C3740 1.377 . S
C3741 C3747 1.390 . S
C3742 H3733 0.930 . S
C3742 C3740 1.384 . S
C3742 C3743 1.372 . S
C3743 C3742 1.372 . S
C3743 C3744 1.400 . S
C3743 C3748 1.490 . S
C3744 H3734 0.930 . S
C3744 C3743 1.400 . S
C3744 C3747 1.386 . S
H3745 C3761 0.930 . S
H3746 C3762 0.931 . S
C3747 H3735 0.929 . S
C3747 C3741 1.390 . S
C3747 C3744 1.386 . S
C3748 C3743 1.490 . S
C3748 C3750 1.395 . S
C3748 C3751 1.403 . S
H3749 C3755 0.930 . S
C3750 H3736 0.930 . S
C3750 C3748 1.395 . S
C3750 C3753 1.403 . S
C3751 C3748 1.403 . S
C3751 C3752 1.524 . S
C3751 C3755 1.400 . S
C3752 H3737 0.960 . S
C3752 H3738 0.960 . S
C3752 H3739 0.960 . S
C3752 C3751 1.524 . S
C3753 C3750 1.403 . S
C3753 C3754 1.392 . S
C3753 C3757 1.495 . S
C3754 C3753 1.392 . S
C3754 C3755 1.385 . S
C3754 C3756 1.478 . S
C3755 H3749 0.930 . S
C3755 C3751 1.400 . S
C3755 C3754 1.385 . S
C3756 C3754 1.478 . S
C3756 C3758 1.381 . S
C3756 C3762 1.383 . S
C3757 C3753 1.495 . S
C3757 H3763 0.959 . S
C3757 H3764 0.961 . S
C3757 H3765 0.960 . S
C3758 C3756 1.381 . S
C3758 C3759 1.394 . S
C3758 H3766 0.930 . S
C3759 C3758 1.394 . S
C3759 C3760 1.383 . S
C3759 H3767 0.929 . S
C3760 C3759 1.383 . S
C3760 C3761 1.377 . S
C3761 H3745 0.930 . S
C3761 C3760 1.377 . S
C3761 C3762 1.379 . S
C3762 H3746 0.931 . S
C3762 C3756 1.383 . S
C3762 C3761 1.379 . S
H3763 C3757 0.959 . S
H3764 C3757 0.961 . S
H3765 C3757 0.960 . S
H3766 C3758 0.930 . S
H3767 C3759 0.929 . S
H3768 C3776 0.929 . S
H3769 C3778 0.930 . S
H3770 C3780 0.930 . S
H3771 C3783 0.929 . S
H3772 C3786 0.930 . S
H3773 C3788 0.960 . S
H3774 C3788 0.960 . S
H3775 C3788 0.960 . S
C3776 H3768 0.929 . S
C3776 C3777 1.377 . S
C3776 C3778 1.384 . S
C3777 C3776 1.377 . S
C3777 C3783 1.390 . S
C3778 H3769 0.930 . S
C3778 C3776 1.384 . S
C3778 C3779 1.372 . S
C3779 C3778 1.372 . S
C3779 C3780 1.400 . S
C3779 C3784 1.490 . S
C3780 H3770 0.930 . S
C3780 C3779 1.400 . S
C3780 C3783 1.386 . S
H3781 C3797 0.930 . S
H3782 C3798 0.931 . S
C3783 H3771 0.929 . S
C3783 C3777 1.390 . S
C3783 C3780 1.386 . S
C3784 C3779 1.490 . S
C3784 C3786 1.395 . S
C3784 C3787 1.403 . S
H3785 C3791 0.930 . S
C3786 H3772 0.930 . S
C3786 C3784 1.395 . S
C3786 C3789 1.403 . S
C3787 C3784 1.403 . S
C3787 C3788 1.524 . S
C3787 C3791 1.400 . S
C3788 H3773 0.960 . S
C3788 H3774 0.960 . S
C3788 H3775 0.960 . S
C3788 C3787 1.524 . S
C3789 C3786 1.403 . S
C3789 C3790 1.392 . S
C3789 C3793 1.495 . S
C3790 C3789 1.392 . S
C3790 C3791 1.385 . S
C3790 C3792 1.478 . S
C3791 H3785 0.930 . S
C3791 C3787 1.400 . S
C3791 C3790 1.385 . S
C3792 C3790 1.478 . S
C3792 C3794 1.381 . S
C3792 C3798 1.383 . S
C3793 C3789 1.495 . S
C3793 H3799 0.959 . S
C3793 H3800 0.961 . S
C3793 H3801 0.960 . S
C3794 C3792 1.381 . S
C3794 C3795 1.394 . S
C3794 H3802 0.930 . S
C3795 C3794 1.394 . S
C3795 C3796 1.383 . S
C3795 H3803 0.929 . S
C3796 C3795 1.383 . S
C3796 C3797 1.377 . S
C3797 H3781 0.930 . S
C3797 C3796 1.377 . S
C3797 C3798 1.379 . S
C3798 H3782 0.931 . S
C3798 C3792 1.383 . S
C3798 C3797 1.379 . S
H3799 C3793 0.959 . S
H3800 C3793 0.961 . S
H3801 C3793 0.960 . S
H3802 C3794 0.930 . S
H3803 C3795 0.929 . S
H3804 C3812 0.929 . S
H3805 C3814 0.930 . S
H3806 C3816 0.930 . S
H3807 C3819 0.929 . S
H3808 C3822 0.930 . S
H3809 C3824 0.960 . S
H3810 C3824 0.960 . S
H3811 C3824 0.960 . S
C3812 H3804 0.929 . S
C3812 C3813 1.377 . S
C3812 C3814 1.384 . S
C3813 C3812 1.377 . S
C3813 C3819 1.390 . S
C3814 H3805 0.930 . S
C3814 C3812 1.384 . S
C3814 C3815 1.372 . S
C3815 C3814 1.372 . S
C3815 C3816 1.400 . S
C3815 C3820 1.490 . S
C3816 H3806 0.930 . S
C3816 C3815 1.400 . S
C3816 C3819 1.386 . S
H3817 C3833 0.930 . S
H3818 C3834 0.931 . S
C3819 H3807 0.929 . S
C3819 C3813 1.390 . S
C3819 C3816 1.386 . S
C3820 C3815 1.490 . S
C3820 C3822 1.395 . S
C3820 C3823 1.403 . S
H3821 C3827 0.930 . S
C3822 H3808 0.930 . S
C3822 C3820 1.395 . S
C3822 C3825 1.403 . S
C3823 C3820 1.403 . S
C3823 C3824 1.524 . S
C3823 C3827 1.400 . S
C3824 H3809 0.960 . S
C3824 H3810 0.960 . S
C3824 H3811 0.960 . S
C3824 C3823 1.524 . S
C3825 C3822 1.403 . S
C3825 C3826 1.392 . S
C3825 C3829 1.495 . S
C3826 C3825 1.392 . S
C3826 C3827 1.385 . S
C3826 C3828 1.478 . S
C3827 H3821 0.930 . S
C3827 C3823 1.400 . S
C3827 C3826 1.385 . S
C3828 C3826 1.478 . S
C3828 C3830 1.381 . S
C3828 C3834 1.383 . S
C3829 C3825 1.495 . S
C3829 H3835 0.959 . S
C3829 H3836 0.961 . S
C3829 H3837 0.960 . S
C3830 C3828 1.381 . S
C3830 C3831 1.394 . S
C3830 H3838 0.930 . S
C3831 C3830 1.394 . S
C3831 C3832 1.383 . S
C3831 H3839 0.929 . S
C3832 C3831 1.383 . S
C3832 C3833 1.377 . S
C3833 H3817 0.930 . S
C3833 C3832 1.377 . S
C3833 C3834 1.379 . S
C3834 H3818 0.931 . S
C3834 C3828 1.383 . S
C3834 C3833 1.379 . S
H3835 C3829 0.959 . S
H3836 C3829 0.961 . S
H3837 C3829 0.960 . S
H3838 C3830 0.930 . S
H3839 C3831 0.929 . S
H3840 C3848 0.929 . S
H3841 C3850 0.930 . S
H3842 C3852 0.930 . S
H3843 C3855 0.929 . S
H3844 C3858 0.930 . S
H3845 C3860 0.960 . S
H3846 C3860 0.960 . S
H3847 C3860 0.960 . S
C3848 H3840 0.929 . S
C3848 C3849 1.377 . S
C3848 C3850 1.384 . S
C3849 C3848 1.377 . S
C3849 C3855 1.390 . S
C3850 H3841 0.930 . S
C3850 C3848 1.384 . S
C3850 C3851 1.372 . S
C3851 C3850 1.372 . S
C3851 C3852 1.400 . S
C3851 C3856 1.490 . S
C3852 H3842 0.930 . S
C3852 C3851 1.400 . S
C3852 C3855 1.386 . S
H3853 C3869 0.930 . S
H3854 C3870 0.931 . S
C3855 H3843 0.929 . S
C3855 C3849 1.390 . S
C3855 C3852 1.386 . S
C3856 C3851 1.490 . S
C3856 C3858 1.395 . S
C3856 C3859 1.403 . S
H3857 C3863 0.930 . S
C3858 H3844 0.930 . S
C3858 C3856 1.395 . S
C3858 C3861 1.403 . S
C3859 C3856 1.403 . S
C3859 C3860 1.524 . S
C3859 C3863 1.400 . S
C3860 H3845 0.960 . S
C3860 H3846 0.960 . S
C3860 H3847 0.960 . S
C3860 C3859 1.524 . S
C3861 C3858 1.403 . S
C3861 C3862 1.392 . S
C3861 C3865 1.495 . S
C3862 C3861 1.392 . S
C3862 C3863 1.385 . S
C3862 C3864 1.478 . S
C3863 H3857 0.930 . S
C3863 C3859 1.400 . S
C3863 C3862 1.385 . S
C3864 C3862 1.478 . S
C3864 C3866 1.381 . S
C3864 C3870 1.383 . S
C3865 C3861 1.495 . S
C3865 H3871 0.959 . S
C3865 H3872 0.961 . S
C3865 H3873 0.960 . S
C3866 C3864 1.381 . S
C3866 C3867 1.394 . S
C3866 H3874 0.930 . S
C3867 C3866 1.394 . S
C3867 C3868 1.383 . S
C3867 H3875 0.929 . S
C3868 C3867 1.383 . S
C3868 C3869 1.377 . S
C3869 H3853 0.930 . S
C3869 C3868 1.377 . S
C3869 C3870 1.379 . S
C3870 H3854 0.931 . S
C3870 C3864 1.383 . S
C3870 C3869 1.379 . S
H3871 C3865 0.959 . S
H3872 C3865 0.961 . S
H3873 C3865 0.960 . S
H3874 C3866 0.930 . S
H3875 C3867 0.929 . S
H3876 C3884 0.929 . S
H3877 C3886 0.930 . S
H3878 C3888 0.930 . S
H3879 C3891 0.929 . S
H3880 C3894 0.930 . S
H3881 C3896 0.960 . S
H3882 C3896 0.960 . S
H3883 C3896 0.960 . S
C3884 H3876 0.929 . S
C3884 C3885 1.377 . S
C3884 C3886 1.384 . S
C3885 C3884 1.377 . S
C3885 C3891 1.390 . S
C3886 H3877 0.930 . S
C3886 C3884 1.384 . S
C3886 C3887 1.372 . S
C3887 C3886 1.372 . S
C3887 C3888 1.400 . S
C3887 C3892 1.490 . S
C3888 H3878 0.930 . S
C3888 C3887 1.400 . S
C3888 C3891 1.386 . S
H3889 C3905 0.930 . S
H3890 C3906 0.931 . S
C3891 H3879 0.929 . S
C3891 C3885 1.390 . S
C3891 C3888 1.386 . S
C3892 C3887 1.490 . S
C3892 C3894 1.395 . S
C3892 C3895 1.403 . S
H3893 C3899 0.930 . S
C3894 H3880 0.930 . S
C3894 C3892 1.395 . S
C3894 C3897 1.403 . S
C3895 C3892 1.403 . S
C3895 C3896 1.524 . S
C3895 C3899 1.400 . S
C3896 H3881 0.960 . S
C3896 H3882 0.960 . S
C3896 H3883 0.960 . S
C3896 C3895 1.524 . S
C3897 C3894 1.403 . S
C3897 C3898 1.392 . S
C3897 C3901 1.495 . S
C3898 C3897 1.392 . S
C3898 C3899 1.385 . S
C3898 C3900 1.478 . S
C3899 H3893 0.930 . S
C3899 C3895 1.400 . S
C3899 C3898 1.385 . S
C3900 C3898 1.478 . S
C3900 C3902 1.381 . S
C3900 C3906 1.383 . S
C3901 C3897 1.495 . S
C3901 H3907 0.959 . S
C3901 H3908 0.961 . S
C3901 H3909 0.960 . S
C3902 C3900 1.381 . S
C3902 C3903 1.394 . S
C3902 H3910 0.930 . S
C3903 C3902 1.394 . S
C3903 C3904 1.383 . S
C3903 H3911 0.929 . S
C3904 C3903 1.383 . S
C3904 C3905 1.377 . S
C3905 H3889 0.930 . S
C3905 C3904 1.377 . S
C3905 C3906 1.379 . S
C3906 H3890 0.931 . S
C3906 C3900 1.383 . S
C3906 C3905 1.379 . S
H3907 C3901 0.959 . S
H3908 C3901 0.961 . S
H3909 C3901 0.960 . S
H3910 C3902 0.930 . S
H3911 C3903 0.929 . S
H3912 C3920 0.929 . S
H3913 C3922 0.930 . S
H3914 C3924 0.930 . S
H3915 C3927 0.929 . S
H3916 C3930 0.930 . S
H3917 C3932 0.960 . S
H3918 C3932 0.960 . S
H3919 C3932 0.960 . S
C3920 H3912 0.929 . S
C3920 C3921 1.377 . S
C3920 C3922 1.384 . S
C3921 C3920 1.377 . S
C3921 C3927 1.390 . S
C3922 H3913 0.930 . S
C3922 C3920 1.384 . S
C3922 C3923 1.372 . S
C3923 C3922 1.372 . S
C3923 C3924 1.400 . S
C3923 C3928 1.490 . S
C3924 H3914 0.930 . S
C3924 C3923 1.400 . S
C3924 C3927 1.386 . S
H3925 C3941 0.930 . S
H3926 C3942 0.931 . S
C3927 H3915 0.929 . S
C3927 C3921 1.390 . S
C3927 C3924 1.386 . S
C3928 C3923 1.490 . S
C3928 C3930 1.395 . S
C3928 C3931 1.403 . S
H3929 C3935 0.930 . S
C3930 H3916 0.930 . S
C3930 C3928 1.395 . S
C3930 C3933 1.403 . S
C3931 C3928 1.403 . S
C3931 C3932 1.524 . S
C3931 C3935 1.400 . S
C3932 H3917 0.960 . S
C3932 H3918 0.960 . S
C3932 H3919 0.960 . S
C3932 C3931 1.524 . S
C3933 C3930 1.403 . S
C3933 C3934 1.392 . S
C3933 C3937 1.495 . S
C3934 C3933 1.392 . S
C3934 C3935 1.385 . S
C3934 C3936 1.478 . S
C3935 H3929 0.930 . S
C3935 C3931 1.400 . S
C3935 C3934 1.385 . S
C3936 C3934 1.478 . S
C3936 C3938 1.381 . S
C3936 C3942 1.383 . S
C3937 C3933 1.495 . S
C3937 H3943 0.959 . S
C3937 H3944 0.961 . S
C3937 H3945 0.960 . S
C3938 C3936 1.381 . S
C3938 C3939 1.394 . S
C3938 H3946 0.930 . S
C3939 C3938 1.394 . S
C3939 C3940 1.383 . S
C3939 H3947 0.929 . S
C3940 C3939 1.383 . S
C3940 C3941 1.377 . S
C3941 H3925 0.930 . S
C3941 C3940 1.377 . S
C3941 C3942 1.379 . S
C3942 H3926 0.931 . S
C3942 C3936 1.383 . S
C3942 C3941 1.379 . S
H3943 C3937 0.959 . S
H3944 C3937 0.961 . S
H3945 C3937 0.960 . S
H3946 C3938 0.930 . S
H3947 C3939 0.929 . S
H3948 C3956 0.929 . S
H3949 C3958 0.930 . S
H3950 C3960 0.930 . S
H3951 C3963 0.929 . S
H3952 C3966 0.930 . S
H3953 C3968 0.960 . S
H3954 C3968 0.960 . S
H3955 C3968 0.960 . S
C3956 H3948 0.929 . S
C3956 C3957 1.377 . S
C3956 C3958 1.384 . S
C3957 C3956 1.377 . S
C3957 C3963 1.390 . S
C3958 H3949 0.930 . S
C3958 C3956 1.384 . S
C3958 C3959 1.372 . S
C3959 C3958 1.372 . S
C3959 C3960 1.400 . S
C3959 C3964 1.490 . S
C3960 H3950 0.930 . S
C3960 C3959 1.400 . S
C3960 C3963 1.386 . S
H3961 C3977 0.930 . S
H3962 C3978 0.931 . S
C3963 H3951 0.929 . S
C3963 C3957 1.390 . S
C3963 C3960 1.386 . S
C3964 C3959 1.490 . S
C3964 C3966 1.395 . S
C3964 C3967 1.403 . S
H3965 C3971 0.930 . S
C3966 H3952 0.930 . S
C3966 C3964 1.395 . S
C3966 C3969 1.403 . S
C3967 C3964 1.403 . S
C3967 C3968 1.524 . S
C3967 C3971 1.400 . S
C3968 H3953 0.960 . S
C3968 H3954 0.960 . S
C3968 H3955 0.960 . S
C3968 C3967 1.524 . S
C3969 C3966 1.403 . S
C3969 C3970 1.392 . S
C3969 C3973 1.495 . S
C3970 C3969 1.392 . S
C3970 C3971 1.385 . S
C3970 C3972 1.478 . S
C3971 H3965 0.930 . S
C3971 C3967 1.400 . S
C3971 C3970 1.385 . S
C3972 C3970 1.478 . S
C3972 C3974 1.381 . S
C3972 C3978 1.383 . S
C3973 C3969 1.495 . S
C3973 H3979 0.959 . S
C3973 H3980 0.961 . S
C3973 H3981 0.960 . S
C3974 C3972 1.381 . S
C3974 C3975 1.394 . S
C3974 H3982 0.930 . S
C3975 C3974 1.394 . S
C3975 C3976 1.383 . S
C3975 H3983 0.929 . S
C3976 C3975 1.383 . S
C3976 C3977 1.377 . S
C3977 H3961 0.930 . S
C3977 C3976 1.377 . S
C3977 C3978 1.379 . S
C3978 H3962 0.931 . S
C3978 C3972 1.383 . S
C3978 C3977 1.379 . S
H3979 C3973 0.959 . S
H3980 C3973 0.961 . S
H3981 C3973 0.960 . S
H3982 C3974 0.930 . S
H3983 C3975 0.929 . S
H3984 C3992 0.929 . S
H3985 C3994 0.930 . S
H3986 C3996 0.930 . S
H3987 C3999 0.929 . S
H3988 C4002 0.930 . S
H3989 C4004 0.960 . S
H3990 C4004 0.960 . S
H3991 C4004 0.960 . S
C3992 H3984 0.929 . S
C3992 C3993 1.377 . S
C3992 C3994 1.384 . S
C3993 C3992 1.377 . S
C3993 C3999 1.390 . S
C3994 H3985 0.930 . S
C3994 C3992 1.384 . S
C3994 C3995 1.372 . S
C3995 C3994 1.372 . S
C3995 C3996 1.400 . S
C3995 C4000 1.490 . S
C3996 H3986 0.930 . S
C3996 C3995 1.400 . S
C3996 C3999 1.386 . S
H3997 C4013 0.930 . S
H3998 C4014 0.931 . S
C3999 H3987 0.929 . S
C3999 C3993 1.390 . S
C3999 C3996 1.386 . S
C4000 C3995 1.490 . S
C4000 C4002 1.395 . S
C4000 C4003 1.403 . S
H4001 C4007 0.930 . S
C4002 H3988 0.930 . S
C4002 C4000 1.395 . S
C4002 C4005 1.403 . S
C4003 C4000 1.403 . S
C4003 C4004 1.524 . S
C4003 C4007 1.400 . S
C4004 H3989 0.960 . S
C4004 H3990 0.960 . S
C4004 H3991 0.960 . S
C4004 C4003 1.524 . S
C4005 C4002 1.403 . S
C4005 C4006 1.392 . S
C4005 C4009 1.495 . S
C4006 C4005 1.392 . S
C4006 C4007 1.385 . S
C4006 C4008 1.478 . S
C4007 H4001 0.930 . S
C4007 C4003 1.400 . S
C4007 C4006 1.385 . S
C4008 C4006 1.478 . S
C4008 C4010 1.381 . S
C4008 C4014 1.383 . S
C4009 C4005 1.495 . S
C4009 H4015 0.959 . S
C4009 H4016 0.961 . S
C4009 H4017 0.960 . S
C4010 C4008 1.381 . S
C4010 C4011 1.394 . S
C4010 H4018 0.930 . S
C4011 C4010 1.394 . S
C4011 C4012 1.383 . S
C4011 H4019 0.929 . S
C4012 C4011 1.383 . S
C4012 C4013 1.377 . S
C4013 H3997 0.930 . S
C4013 C4012 1.377 . S
C4013 C4014 1.379 . S
C4014 H3998 0.931 . S
C4014 C4008 1.383 . S
C4014 C4013 1.379 . S
H4015 C4009 0.959 . S
H4016 C4009 0.961 . S
H4017 C4009 0.960 . S
H4018 C4010 0.930 . S
H4019 C4011 0.929 . S
H4020 C4028 0.929 . S
H4021 C4030 0.930 . S
H4022 C4032 0.930 . S
H4023 C4035 0.929 . S
H4024 C4038 0.930 . S
H4025 C4040 0.960 . S
H4026 C4040 0.960 . S
H4027 C4040 0.960 . S
C4028 H4020 0.929 . S
C4028 C4029 1.377 . S
C4028 C4030 1.384 . S
C4029 C4028 1.377 . S
C4029 C4035 1.390 . S
C4030 H4021 0.930 . S
C4030 C4028 1.384 . S
C4030 C4031 1.372 . S
C4031 C4030 1.372 . S
C4031 C4032 1.400 . S
C4031 C4036 1.490 . S
C4032 H4022 0.930 . S
C4032 C4031 1.400 . S
C4032 C4035 1.386 . S
H4033 C4049 0.930 . S
H4034 C4050 0.931 . S
C4035 H4023 0.929 . S
C4035 C4029 1.390 . S
C4035 C4032 1.386 . S
C4036 C4031 1.490 . S
C4036 C4038 1.395 . S
C4036 C4039 1.403 . S
H4037 C4043 0.930 . S
C4038 H4024 0.930 . S
C4038 C4036 1.395 . S
C4038 C4041 1.403 . S
C4039 C4036 1.403 . S
C4039 C4040 1.524 . S
C4039 C4043 1.400 . S
C4040 H4025 0.960 . S
C4040 H4026 0.960 . S
C4040 H4027 0.960 . S
C4040 C4039 1.524 . S
C4041 C4038 1.403 . S
C4041 C4042 1.392 . S
C4041 C4045 1.495 . S
C4042 C4041 1.392 . S
C4042 C4043 1.385 . S
C4042 C4044 1.478 . S
C4043 H4037 0.930 . S
C4043 C4039 1.400 . S
C4043 C4042 1.385 . S
C4044 C4042 1.478 . S
C4044 C4046 1.381 . S
C4044 C4050 1.383 . S
C4045 C4041 1.495 . S
C4045 H4051 0.959 . S
C4045 H4052 0.961 . S
C4045 H4053 0.960 . S
C4046 C4044 1.381 . S
C4046 C4047 1.394 . S
C4046 H4054 0.930 . S
C4047 C4046 1.394 . S
C4047 C4048 1.383 . S
C4047 H4055 0.929 . S
C4048 C4047 1.383 . S
C4048 C4049 1.377 . S
C4049 H4033 0.930 . S
C4049 C4048 1.377 . S
C4049 C4050 1.379 . S
C4050 H4034 0.931 . S
C4050 C4044 1.383 . S
C4050 C4049 1.379 . S
H4051 C4045 0.959 . S
H4052 C4045 0.961 . S
H4053 C4045 0.960 . S
H4054 C4046 0.930 . S
H4055 C4047 0.929 . S
H4056 C4064 0.929 . S
H4057 C4066 0.930 . S
H4058 C4068 0.930 . S
H4059 C4071 0.929 . S
H4060 C4074 0.930 . S
H4061 C4076 0.960 . S
H4062 C4076 0.960 . S
H4063 C4076 0.960 . S
C4064 H4056 0.929 . S
C4064 C4065 1.377 . S
C4064 C4066 1.384 . S
C4065 C4064 1.377 . S
C4065 C4071 1.390 . S
C4066 H4057 0.930 . S
C4066 C4064 1.384 . S
C4066 C4067 1.372 . S
C4067 C4066 1.372 . S
C4067 C4068 1.400 . S
C4067 C4072 1.490 . S
C4068 H4058 0.930 . S
C4068 C4067 1.400 . S
C4068 C4071 1.386 . S
H4069 C4085 0.930 . S
H4070 C4086 0.931 . S
C4071 H4059 0.929 . S
C4071 C4065 1.390 . S
C4071 C4068 1.386 . S
C4072 C4067 1.490 . S
C4072 C4074 1.395 . S
C4072 C4075 1.403 . S
H4073 C4079 0.930 . S
C4074 H4060 0.930 . S
C4074 C4072 1.395 . S
C4074 C4077 1.403 . S
C4075 C4072 1.403 . S
C4075 C4076 1.524 . S
C4075 C4079 1.400 . S
C4076 H4061 0.960 . S
C4076 H4062 0.960 . S
C4076 H4063 0.960 . S
C4076 C4075 1.524 . S
C4077 C4074 1.403 . S
C4077 C4078 1.392 . S
C4077 C4081 1.495 . S
C4078 C4077 1.392 . S
C4078 C4079 1.385 . S
C4078 C4080 1.478 . S
C4079 H4073 0.930 . S
C4079 C4075 1.400 . S
C4079 C4078 1.385 . S
C4080 C4078 1.478 . S
C4080 C4082 1.381 . S
C4080 C4086 1.383 . S
C4081 C4077 1.495 . S
C4081 H4087 0.959 . S
C4081 H4088 0.961 . S
C4081 H4089 0.960 . S
C4082 C4080 1.381 . S
C4082 C4083 1.394 . S
C4082 H4090 0.930 . S
C4083 C4082 1.394 . S
C4083 C4084 1.383 . S
C4083 H4091 0.929 . S
C4084 C4083 1.383 . S
C4084 C4085 1.377 . S
C4085 H4069 0.930 . S
C4085 C4084 1.377 . S
C4085 C4086 1.379 . S
C4086 H4070 0.931 . S
C4086 C4080 1.383 . S
C4086 C4085 1.379 . S
H4087 C4081 0.959 . S
H4088 C4081 0.961 . S
H4089 C4081 0.960 . S
H4090 C4082 0.930 . S
H4091 C4083 0.929 . S
H4092 C4100 0.929 . S
H4093 C4102 0.930 . S
H4094 C4104 0.930 . S
H4095 C4107 0.929 . S
H4096 C4110 0.930 . S
H4097 C4112 0.948 1_556 S
H4098 C4112 0.932 1_556 S
H4099 C4112 0.992 . S
C4100 H4092 0.929 . S
C4100 C4101 1.377 . S
C4100 C4102 1.384 . S
C4101 C4100 1.377 . S
C4101 C4107 1.390 . S
C4102 H4093 0.930 . S
C4102 C4100 1.384 . S
C4102 C4103 1.372 . S
C4103 C4102 1.372 . S
C4103 C4104 1.400 . S
C4103 C4108 1.490 . S
C4104 H4094 0.930 . S
C4104 C4103 1.400 . S
C4104 C4107 1.386 . S
H4105 C4121 0.930 . S
H4106 C4122 0.931 . S
C4107 H4095 0.929 . S
C4107 C4101 1.390 . S
C4107 C4104 1.386 . S
C4108 C4103 1.490 . S
C4108 C4110 1.395 1_565 S
C4108 C4111 1.403 . S
H4109 C4115 0.930 . S
C4110 H4096 0.930 . S
C4110 C4108 1.395 1_545 S
C4110 C4113 1.403 . S
C4111 C4108 1.403 . S
C4111 C4112 1.533 . S
C4111 C4115 1.400 . S
C4112 H4097 0.948 1_554 S
C4112 H4098 0.932 1_554 S
C4112 H4099 0.992 . S
C4112 C4111 1.533 . S
C4113 C4110 1.403 . S
C4113 C4114 1.392 . S
C4113 C4117 1.495 . S
C4114 C4113 1.392 . S
C4114 C4115 1.385 1_545 S
C4114 C4116 1.478 . S
C4115 H4109 0.930 . S
C4115 C4111 1.400 . S
C4115 C4114 1.385 1_565 S
C4116 C4114 1.478 . S
C4116 C4118 1.381 . S
C4116 C4122 1.383 . S
C4117 C4113 1.495 . S
C4117 H4123 0.959 . S
C4117 H4124 0.961 . S
C4117 H4125 0.960 . S
C4118 C4116 1.381 . S
C4118 C4119 1.394 . S
C4118 H4126 0.930 1_554 S
C4119 C4118 1.394 . S
C4119 C4120 1.383 . S
C4119 H4127 0.929 1_554 S
C4120 C4119 1.383 . S
C4120 C4121 1.377 . S
C4121 H4105 0.930 . S
C4121 C4120 1.377 . S
C4121 C4122 1.379 . S
C4122 H4106 0.931 . S
C4122 C4116 1.383 . S
C4122 C4121 1.379 . S
H4123 C4117 0.959 . S
H4124 C4117 0.961 . S
H4125 C4117 0.960 . S
H4126 C4118 0.930 1_556 S
H4127 C4119 0.929 1_556 S
H4128 C4136 0.929 . S
H4129 C4138 0.930 . S
H4130 C4140 0.930 . S
H4131 C4143 0.929 . S
H4132 C4146 0.930 . S
H4133 C4148 0.960 . S
H4134 C4148 0.960 . S
H4135 C4148 0.960 . S
C4136 H4128 0.929 . S
C4136 C4137 1.377 . S
C4136 C4138 1.384 . S
C4137 C4136 1.377 . S
C4137 C4143 1.390 . S
C4138 H4129 0.930 . S
C4138 C4136 1.384 . S
C4138 C4139 1.372 . S
C4139 C4138 1.372 . S
C4139 C4140 1.400 . S
C4139 C4144 1.490 . S
C4140 H4130 0.930 . S
C4140 C4139 1.400 . S
C4140 C4143 1.386 . S
H4141 C4157 0.930 . S
H4142 C4158 0.931 . S
C4143 H4131 0.929 . S
C4143 C4137 1.390 . S
C4143 C4140 1.386 . S
C4144 C4139 1.490 . S
C4144 C4146 1.395 . S
C4144 C4147 1.403 . S
H4145 C4151 0.930 . S
C4146 H4132 0.930 . S
C4146 C4144 1.395 . S
C4146 C4149 1.403 . S
C4147 C4144 1.403 . S
C4147 C4148 1.524 . S
C4147 C4151 1.400 . S
C4148 H4133 0.960 . S
C4148 H4134 0.960 . S
C4148 H4135 0.960 . S
C4148 C4147 1.524 . S
C4149 C4146 1.403 . S
C4149 C4150 1.392 . S
C4149 C4153 1.495 . S
C4150 C4149 1.392 . S
C4150 C4151 1.385 . S
C4150 C4152 1.478 . S
C4151 H4145 0.930 . S
C4151 C4147 1.400 . S
C4151 C4150 1.385 . S
C4152 C4150 1.478 . S
C4152 C4154 1.381 . S
C4152 C4158 1.383 . S
C4153 C4149 1.495 . S
C4153 H4159 0.959 . S
C4153 H4160 0.961 . S
C4153 H4161 0.960 . S
C4154 C4152 1.381 . S
C4154 C4155 1.394 . S
C4154 H4162 0.930 . S
C4155 C4154 1.394 . S
C4155 C4156 1.383 . S
C4155 H4163 0.929 . S
C4156 C4155 1.383 . S
C4156 C4157 1.377 . S
C4157 H4141 0.930 . S
C4157 C4156 1.377 . S
C4157 C4158 1.379 . S
C4158 H4142 0.931 . S
C4158 C4152 1.383 . S
C4158 C4157 1.379 . S
H4159 C4153 0.959 . S
H4160 C4153 0.961 . S
H4161 C4153 0.960 . S
H4162 C4154 0.930 . S
H4163 C4155 0.929 . S
H4164 C4172 0.929 . S
H4165 C4174 0.930 . S
H4166 C4176 0.930 . S
H4167 C4179 0.929 . S
H4168 C4182 0.930 . S
H4169 C4184 0.960 . S
H4170 C4184 0.960 . S
H4171 C4184 0.960 1_556 S
C4172 H4164 0.929 . S
C4172 C4173 1.401 . S
C4172 C4174 1.384 . S
C4173 C4172 1.401 . S
C4173 C4179 1.372 1_554 S
C4174 H4165 0.930 . S
C4174 C4172 1.384 . S
C4174 C4175 1.372 . S
C4175 C4174 1.372 . S
C4175 C4176 1.400 1_554 S
C4175 C4180 1.490 . S
C4176 H4166 0.930 . S
C4176 C4175 1.400 1_556 S
C4176 C4179 1.386 . S
H4177 C4193 0.889 1_556 S
H4178 C4194 0.931 1_556 S
C4179 H4167 0.929 . S
C4179 C4173 1.372 1_556 S
C4179 C4176 1.386 . S
C4180 C4175 1.490 . S
C4180 C4182 1.395 . S
C4180 C4183 1.403 . S
H4181 C4187 0.930 . S
C4182 H4168 0.930 . S
C4182 C4180 1.395 . S
C4182 C4185 1.403 . S
C4183 C4180 1.403 . S
C4183 C4184 1.524 . S
C4183 C4187 1.400 . S
C4184 H4169 0.960 . S
C4184 H4170 0.960 . S
C4184 H4171 0.960 1_554 S
C4184 C4183 1.524 . S
C4185 C4182 1.403 . S
C4185 C4186 1.392 . S
C4185 C4189 1.495 . S
C4186 C4185 1.392 . S
C4186 C4187 1.385 . S
C4186 C4188 1.478 . S
C4187 H4181 0.930 . S
C4187 C4183 1.400 . S
C4187 C4186 1.385 . S
C4188 C4186 1.478 . S
C4188 C4190 1.381 . S
C4188 C4194 1.383 . S
C4189 C4185 1.495 . S
C4189 H4195 0.959 . S
C4189 H4196 0.961 . S
C4189 H4197 0.960 . S
C4190 C4188 1.381 . S
C4190 C4191 1.394 . S
C4190 H4198 0.930 . S
C4191 C4190 1.394 . S
C4191 C4192 1.383 . S
C4191 H4199 0.929 . S
C4192 C4191 1.383 . S
C4192 C4193 1.377 . S
C4193 H4177 0.889 1_554 S
C4193 C4192 1.377 . S
C4193 C4194 1.379 . S
C4194 H4178 0.931 1_554 S
C4194 C4188 1.383 . S
C4194 C4193 1.379 . S
H4195 C4189 0.959 . S
H4196 C4189 0.961 . S
H4197 C4189 0.960 . S
H4198 C4190 0.930 . S
H4199 C4191 0.929 . S
H4200 C4208 0.929 . S
H4201 C4210 0.930 . S
H4202 C4212 0.930 . S
H4203 C4215 0.929 . S
H4204 C4218 0.930 . S
H4205 C4220 0.960 . S
H4206 C4220 0.960 . S
H4207 C4220 0.960 . S
C4208 H4200 0.929 . S
C4208 C4209 1.377 . S
C4208 C4210 1.384 . S
C4209 C4208 1.377 . S
C4209 C4215 1.390 . S
C4210 H4201 0.930 . S
C4210 C4208 1.384 . S
C4210 C4211 1.372 . S
C4211 C4210 1.372 . S
C4211 C4212 1.400 . S
C4211 C4216 1.490 . S
C4212 H4202 0.930 . S
C4212 C4211 1.400 . S
C4212 C4215 1.386 . S
H4213 C4229 0.930 . S
H4214 C4230 0.931 . S
C4215 H4203 0.929 . S
C4215 C4209 1.390 . S
C4215 C4212 1.386 . S
C4216 C4211 1.490 . S
C4216 C4218 1.395 . S
C4216 C4219 1.403 . S
H4217 C4223 0.930 . S
C4218 H4204 0.930 . S
C4218 C4216 1.395 . S
C4218 C4221 1.403 . S
C4219 C4216 1.403 . S
C4219 C4220 1.524 . S
C4219 C4223 1.400 . S
C4220 H4205 0.960 . S
C4220 H4206 0.960 . S
C4220 H4207 0.960 . S
C4220 C4219 1.524 . S
C4221 C4218 1.403 . S
C4221 C4222 1.392 . S
C4221 C4225 1.495 . S
C4222 C4221 1.392 . S
C4222 C4223 1.385 . S
C4222 C4224 1.478 . S
C4223 H4217 0.930 . S
C4223 C4219 1.400 . S
C4223 C4222 1.385 . S
C4224 C4222 1.478 . S
C4224 C4226 1.381 . S
C4224 C4230 1.383 . S
C4225 C4221 1.495 . S
C4225 H4231 0.959 . S
C4225 H4232 0.961 . S
C4225 H4233 0.960 . S
C4226 C4224 1.381 . S
C4226 C4227 1.394 . S
C4226 H4234 0.930 . S
C4227 C4226 1.394 . S
C4227 C4228 1.383 . S
C4227 H4235 0.929 . S
C4228 C4227 1.383 . S
C4228 C4229 1.377 . S
C4229 H4213 0.930 . S
C4229 C4228 1.377 . S
C4229 C4230 1.379 . S
C4230 H4214 0.931 . S
C4230 C4224 1.383 . S
C4230 C4229 1.379 . S
H4231 C4225 0.959 . S
H4232 C4225 0.961 . S
H4233 C4225 0.960 . S
H4234 C4226 0.930 . S
H4235 C4227 0.929 . S
H4236 C4244 0.929 . S
H4237 C4246 0.930 . S
H4238 C4248 0.930 . S
H4239 C4251 0.929 . S
H4240 C4254 0.930 . S
H4241 C4256 0.960 . S
H4242 C4256 0.960 . S
H4243 C4256 0.960 . S
C4244 H4236 0.929 . S
C4244 C4245 1.377 . S
C4244 C4246 1.384 . S
C4245 C4244 1.377 . S
C4245 C4251 1.390 . S
C4246 H4237 0.930 . S
C4246 C4244 1.384 . S
C4246 C4247 1.372 . S
C4247 C4246 1.372 . S
C4247 C4248 1.400 . S
C4247 C4252 1.490 . S
C4248 H4238 0.930 . S
C4248 C4247 1.400 . S
C4248 C4251 1.386 . S
H4249 C4265 0.930 . S
H4250 C4266 0.931 . S
C4251 H4239 0.929 . S
C4251 C4245 1.390 . S
C4251 C4248 1.386 . S
C4252 C4247 1.490 . S
C4252 C4254 1.395 . S
C4252 C4255 1.403 . S
H4253 C4259 0.930 . S
C4254 H4240 0.930 . S
C4254 C4252 1.395 . S
C4254 C4257 1.403 . S
C4255 C4252 1.403 . S
C4255 C4256 1.524 . S
C4255 C4259 1.400 . S
C4256 H4241 0.960 . S
C4256 H4242 0.960 . S
C4256 H4243 0.960 . S
C4256 C4255 1.524 . S
C4257 C4254 1.403 . S
C4257 C4258 1.392 . S
C4257 C4261 1.495 . S
C4258 C4257 1.392 . S
C4258 C4259 1.385 . S
C4258 C4260 1.478 . S
C4259 H4253 0.930 . S
C4259 C4255 1.400 . S
C4259 C4258 1.385 . S
C4260 C4258 1.478 . S
C4260 C4262 1.381 . S
C4260 C4266 1.383 . S
C4261 C4257 1.495 . S
C4261 H4267 0.959 . S
C4261 H4268 0.961 . S
C4261 H4269 0.960 . S
C4262 C4260 1.381 . S
C4262 C4263 1.394 . S
C4262 H4270 0.930 . S
C4263 C4262 1.394 . S
C4263 C4264 1.383 . S
C4263 H4271 0.929 . S
C4264 C4263 1.383 . S
C4264 C4265 1.377 . S
C4265 H4249 0.930 . S
C4265 C4264 1.377 . S
C4265 C4266 1.379 . S
C4266 H4250 0.931 . S
C4266 C4260 1.383 . S
C4266 C4265 1.379 . S
H4267 C4261 0.959 . S
H4268 C4261 0.961 . S
H4269 C4261 0.960 . S
H4270 C4262 0.930 . S
H4271 C4263 0.929 . S
H4272 C4280 0.929 . S
H4273 C4282 0.930 . S
H4274 C4284 0.930 . S
H4275 C4287 0.929 . S
H4276 C4290 0.930 . S
H4277 C4292 0.960 . S
H4278 C4292 0.960 . S
H4279 C4292 0.960 . S
C4280 H4272 0.929 . S
C4280 C4281 1.377 . S
C4280 C4282 1.384 . S
C4281 C4280 1.377 . S
C4281 C4287 1.390 . S
C4282 H4273 0.930 . S
C4282 C4280 1.384 . S
C4282 C4283 1.372 . S
C4283 C4282 1.372 . S
C4283 C4284 1.400 . S
C4283 C4288 1.490 . S
C4284 H4274 0.930 . S
C4284 C4283 1.400 . S
C4284 C4287 1.386 . S
H4285 C4301 0.930 . S
H4286 C4302 0.931 . S
C4287 H4275 0.929 . S
C4287 C4281 1.390 . S
C4287 C4284 1.386 . S
C4288 C4283 1.490 . S
C4288 C4290 1.395 . S
C4288 C4291 1.403 . S
H4289 C4295 0.930 . S
C4290 H4276 0.930 . S
C4290 C4288 1.395 . S
C4290 C4293 1.403 . S
C4291 C4288 1.403 . S
C4291 C4292 1.524 . S
C4291 C4295 1.400 . S
C4292 H4277 0.960 . S
C4292 H4278 0.960 . S
C4292 H4279 0.960 . S
C4292 C4291 1.524 . S
C4293 C4290 1.403 . S
C4293 C4294 1.392 . S
C4293 C4297 1.495 . S
C4294 C4293 1.392 . S
C4294 C4295 1.385 . S
C4294 C4296 1.478 . S
C4295 H4289 0.930 . S
C4295 C4291 1.400 . S
C4295 C4294 1.385 . S
C4296 C4294 1.478 . S
C4296 C4298 1.381 . S
C4296 C4302 1.383 . S
C4297 C4293 1.495 . S
C4297 H4303 0.959 . S
C4297 H4304 0.961 . S
C4297 H4305 0.960 . S
C4298 C4296 1.381 . S
C4298 C4299 1.394 . S
C4298 H4306 0.930 . S
C4299 C4298 1.394 . S
C4299 C4300 1.383 . S
C4299 H4307 0.929 . S
C4300 C4299 1.383 . S
C4300 C4301 1.377 . S
C4301 H4285 0.930 . S
C4301 C4300 1.377 . S
C4301 C4302 1.379 . S
C4302 H4286 0.931 . S
C4302 C4296 1.383 . S
C4302 C4301 1.379 . S
H4303 C4297 0.959 . S
H4304 C4297 0.961 . S
H4305 C4297 0.960 . S
H4306 C4298 0.930 . S
H4307 C4299 0.929 . S
H4308 C4316 0.929 . S
H4309 C4318 0.930 . S
H4310 C4320 0.930 . S
H4311 C4323 0.929 . S
H4312 C4326 0.930 . S
H4313 C4328 0.960 . S
H4314 C4328 0.960 . S
H4315 C4328 0.960 . S
C4316 H4308 0.929 . S
C4316 C4317 1.377 . S
C4316 C4318 1.384 . S
C4317 C4316 1.377 . S
C4317 C4323 1.390 . S
C4318 H4309 0.930 . S
C4318 C4316 1.384 . S
C4318 C4319 1.372 . S
C4319 C4318 1.372 . S
C4319 C4320 1.400 . S
C4319 C4324 1.490 . S
C4320 H4310 0.930 . S
C4320 C4319 1.400 . S
C4320 C4323 1.386 . S
H4321 C4337 0.930 . S
H4322 C4338 0.931 . S
C4323 H4311 0.929 . S
C4323 C4317 1.390 . S
C4323 C4320 1.386 . S
C4324 C4319 1.490 . S
C4324 C4326 1.395 . S
C4324 C4327 1.403 . S
H4325 C4331 0.930 . S
C4326 H4312 0.930 . S
C4326 C4324 1.395 . S
C4326 C4329 1.403 . S
C4327 C4324 1.403 . S
C4327 C4328 1.524 . S
C4327 C4331 1.400 . S
C4328 H4313 0.960 . S
C4328 H4314 0.960 . S
C4328 H4315 0.960 . S
C4328 C4327 1.524 . S
C4329 C4326 1.403 . S
C4329 C4330 1.392 . S
C4329 C4333 1.495 . S
C4330 C4329 1.392 . S
C4330 C4331 1.385 . S
C4330 C4332 1.478 . S
C4331 H4325 0.930 . S
C4331 C4327 1.400 . S
C4331 C4330 1.385 . S
C4332 C4330 1.478 . S
C4332 C4334 1.381 . S
C4332 C4338 1.383 . S
C4333 C4329 1.495 . S
C4333 H4339 0.959 . S
C4333 H4340 0.961 . S
C4333 H4341 0.960 . S
C4334 C4332 1.381 . S
C4334 C4335 1.394 . S
C4334 H4342 0.930 . S
C4335 C4334 1.394 . S
C4335 C4336 1.383 . S
C4335 H4343 0.929 . S
C4336 C4335 1.383 . S
C4336 C4337 1.377 . S
C4337 H4321 0.930 . S
C4337 C4336 1.377 . S
C4337 C4338 1.379 . S
C4338 H4322 0.931 . S
C4338 C4332 1.383 . S
C4338 C4337 1.379 . S
H4339 C4333 0.959 . S
H4340 C4333 0.961 . S
H4341 C4333 0.960 . S
H4342 C4334 0.930 . S
H4343 C4335 0.929 . S
H4344 C4352 0.929 . S
H4345 C4354 0.930 . S
H4346 C4356 0.930 . S
H4347 C4359 0.929 . S
H4348 C4362 0.930 . S
H4349 C4364 0.960 . S
H4350 C4364 0.960 . S
H4351 C4364 0.960 . S
C4352 H4344 0.929 . S
C4352 C4353 1.377 . S
C4352 C4354 1.384 . S
C4353 C4352 1.377 . S
C4353 C4359 1.390 . S
C4354 H4345 0.930 . S
C4354 C4352 1.384 . S
C4354 C4355 1.372 . S
C4355 C4354 1.372 . S
C4355 C4356 1.400 . S
C4355 C4360 1.490 . S
C4356 H4346 0.930 . S
C4356 C4355 1.400 . S
C4356 C4359 1.386 . S
H4357 C4373 0.930 . S
H4358 C4374 0.931 . S
C4359 H4347 0.929 . S
C4359 C4353 1.390 . S
C4359 C4356 1.386 . S
C4360 C4355 1.490 . S
C4360 C4362 1.395 . S
C4360 C4363 1.403 . S
H4361 C4367 0.930 . S
C4362 H4348 0.930 . S
C4362 C4360 1.395 . S
C4362 C4365 1.403 . S
C4363 C4360 1.403 . S
C4363 C4364 1.524 . S
C4363 C4367 1.400 . S
C4364 H4349 0.960 . S
C4364 H4350 0.960 . S
C4364 H4351 0.960 . S
C4364 C4363 1.524 . S
C4365 C4362 1.403 . S
C4365 C4366 1.392 . S
C4365 C4369 1.495 . S
C4366 C4365 1.392 . S
C4366 C4367 1.385 . S
C4366 C4368 1.478 . S
C4367 H4361 0.930 . S
C4367 C4363 1.400 . S
C4367 C4366 1.385 . S
C4368 C4366 1.478 . S
C4368 C4370 1.381 . S
C4368 C4374 1.383 . S
C4369 C4365 1.495 . S
C4369 H4375 0.959 . S
C4369 H4376 0.961 . S
C4369 H4377 0.960 . S
C4370 C4368 1.381 . S
C4370 C4371 1.394 . S
C4370 H4378 0.930 . S
C4371 C4370 1.394 . S
C4371 C4372 1.383 . S
C4371 H4379 0.929 . S
C4372 C4371 1.383 . S
C4372 C4373 1.377 . S
C4373 H4357 0.930 . S
C4373 C4372 1.377 . S
C4373 C4374 1.379 . S
C4374 H4358 0.931 . S
C4374 C4368 1.383 . S
C4374 C4373 1.379 . S
H4375 C4369 0.959 . S
H4376 C4369 0.961 . S
H4377 C4369 0.960 . S
H4378 C4370 0.930 . S
H4379 C4371 0.929 . S
H4380 C4388 0.929 . S
H4381 C4390 0.930 . S
H4382 C4392 0.930 . S
H4383 C4395 0.929 . S
H4384 C4398 0.930 . S
H4385 C4400 0.960 . S
H4386 C4400 0.960 . S
H4387 C4400 0.960 . S
C4388 H4380 0.929 . S
C4388 C4389 1.377 . S
C4388 C4390 1.384 . S
C4389 C4388 1.377 . S
C4389 C4395 1.390 . S
C4390 H4381 0.930 . S
C4390 C4388 1.384 . S
C4390 C4391 1.372 . S
C4391 C4390 1.372 . S
C4391 C4392 1.400 . S
C4391 C4396 1.490 . S
C4392 H4382 0.930 . S
C4392 C4391 1.400 . S
C4392 C4395 1.386 . S
H4393 C4409 0.930 . S
H4394 C4410 0.931 . S
C4395 H4383 0.929 . S
C4395 C4389 1.390 . S
C4395 C4392 1.386 . S
C4396 C4391 1.490 . S
C4396 C4398 1.395 . S
C4396 C4399 1.403 . S
H4397 C4403 0.930 . S
C4398 H4384 0.930 . S
C4398 C4396 1.395 . S
C4398 C4401 1.403 . S
C4399 C4396 1.403 . S
C4399 C4400 1.524 . S
C4399 C4403 1.400 . S
C4400 H4385 0.960 . S
C4400 H4386 0.960 . S
C4400 H4387 0.960 . S
C4400 C4399 1.524 . S
C4401 C4398 1.403 . S
C4401 C4402 1.392 . S
C4401 C4405 1.495 . S
C4402 C4401 1.392 . S
C4402 C4403 1.385 . S
C4402 C4404 1.478 . S
C4403 H4397 0.930 . S
C4403 C4399 1.400 . S
C4403 C4402 1.385 . S
C4404 C4402 1.478 . S
C4404 C4406 1.381 . S
C4404 C4410 1.383 . S
C4405 C4401 1.495 . S
C4405 H4411 0.959 . S
C4405 H4412 0.961 . S
C4405 H4413 0.960 . S
C4406 C4404 1.381 . S
C4406 C4407 1.394 . S
C4406 H4414 0.930 . S
C4407 C4406 1.394 . S
C4407 C4408 1.383 . S
C4407 H4415 0.929 . S
C4408 C4407 1.383 . S
C4408 C4409 1.377 . S
C4409 H4393 0.930 . S
C4409 C4408 1.377 . S
C4409 C4410 1.379 . S
C4410 H4394 0.931 . S
C4410 C4404 1.383 . S
C4410 C4409 1.379 . S
H4411 C4405 0.959 . S
H4412 C4405 0.961 . S
H4413 C4405 0.960 . S
H4414 C4406 0.930 . S
H4415 C4407 0.929 . S
H4416 C4424 0.929 . S
H4417 C4426 0.930 . S
H4418 C4428 0.930 . S
H4419 C4431 0.929 . S
H4420 C4434 0.930 . S
H4421 C4436 0.960 . S
H4422 C4436 0.960 . S
H4423 C4436 0.960 . S
C4424 H4416 0.929 . S
C4424 C4425 1.377 . S
C4424 C4426 1.384 . S
C4425 C4424 1.377 . S
C4425 C4431 1.390 . S
C4426 H4417 0.930 . S
C4426 C4424 1.384 . S
C4426 C4427 1.372 . S
C4427 C4426 1.372 . S
C4427 C4428 1.400 . S
C4427 C4432 1.490 . S
C4428 H4418 0.930 . S
C4428 C4427 1.400 . S
C4428 C4431 1.386 . S
H4429 C4445 0.950 . S
H4430 C4446 0.931 . S
C4431 H4419 0.929 . S
C4431 C4425 1.390 . S
C4431 C4428 1.386 . S
C4432 C4427 1.490 . S
C4432 C4434 1.395 . S
C4432 C4435 1.403 . S
H4433 C4439 0.930 . S
C4434 H4420 0.930 . S
C4434 C4432 1.395 . S
C4434 C4437 1.403 . S
C4435 C4432 1.403 . S
C4435 C4436 1.524 . S
C4435 C4439 1.400 . S
C4436 H4421 0.960 . S
C4436 H4422 0.960 . S
C4436 H4423 0.960 . S
C4436 C4435 1.524 . S
C4437 C4434 1.403 . S
C4437 C4438 1.392 . S
C4437 C4441 1.495 . S
C4438 C4437 1.392 . S
C4438 C4439 1.385 . S
C4438 C4440 1.478 . S
C4439 H4433 0.930 . S
C4439 C4435 1.400 . S
C4439 C4438 1.385 . S
C4440 C4438 1.478 . S
C4440 C4442 1.381 . S
C4440 C4446 1.383 . S
C4441 C4437 1.495 . S
C4441 H4447 0.959 . S
C4441 H4448 0.961 . S
C4441 H4449 0.960 . S
C4442 C4440 1.381 . S
C4442 C4443 1.394 . S
C4442 H4450 0.930 . S
C4443 C4442 1.394 . S
C4443 C4444 1.383 . S
C4443 H4451 0.929 . S
C4444 C4443 1.383 . S
C4444 C4445 1.377 . S
C4445 H4429 0.950 . S
C4445 C4444 1.377 . S
C4445 C4446 1.379 . S
C4446 H4430 0.931 . S
C4446 C4440 1.383 . S
C4446 C4445 1.379 . S
H4447 C4441 0.959 . S
H4448 C4441 0.961 . S
H4449 C4441 0.960 . S
H4450 C4442 0.930 . S
H4451 C4443 0.929 . S
H4452 C4460 0.929 . S
H4453 C4462 0.930 . S
H4454 C4464 0.930 . S
H4455 C4467 0.929 . S
H4456 C4470 0.930 . S
H4457 C4472 0.960 . S
H4458 C4472 0.960 . S
H4459 C4472 0.960 . S
C4460 H4452 0.929 . S
C4460 C4461 1.377 . S
C4460 C4462 1.384 . S
C4461 C4460 1.377 . S
C4461 C4467 1.390 . S
C4462 H4453 0.930 . S
C4462 C4460 1.384 . S
C4462 C4463 1.372 . S
C4463 C4462 1.372 . S
C4463 C4464 1.400 . S
C4463 C4468 1.490 . S
C4464 H4454 0.930 . S
C4464 C4463 1.400 . S
C4464 C4467 1.386 . S
H4465 C4481 0.930 . S
H4466 C4482 0.931 . S
C4467 H4455 0.929 . S
C4467 C4461 1.390 . S
C4467 C4464 1.386 . S
C4468 C4463 1.490 . S
C4468 C4470 1.395 . S
C4468 C4471 1.403 . S
H4469 C4475 0.930 . S
C4470 H4456 0.930 . S
C4470 C4468 1.395 . S
C4470 C4473 1.403 . S
C4471 C4468 1.403 . S
C4471 C4472 1.524 . S
C4471 C4475 1.400 . S
C4472 H4457 0.960 . S
C4472 H4458 0.960 . S
C4472 H4459 0.960 . S
C4472 C4471 1.524 . S
C4473 C4470 1.403 . S
C4473 C4474 1.392 . S
C4473 C4477 1.495 . S
C4474 C4473 1.392 . S
C4474 C4475 1.385 . S
C4474 C4476 1.478 . S
C4475 H4469 0.930 . S
C4475 C4471 1.400 . S
C4475 C4474 1.385 . S
C4476 C4474 1.478 . S
C4476 C4478 1.381 . S
C4476 C4482 1.383 . S
C4477 C4473 1.495 . S
C4477 H4483 0.959 . S
C4477 H4484 0.961 . S
C4477 H4485 0.960 . S
C4478 C4476 1.381 . S
C4478 C4479 1.394 . S
C4478 H4486 0.930 . S
C4479 C4478 1.394 . S
C4479 C4480 1.383 . S
C4479 H4487 0.929 . S
C4480 C4479 1.383 . S
C4480 C4481 1.377 . S
C4481 H4465 0.930 . S
C4481 C4480 1.377 . S
C4481 C4482 1.379 . S
C4482 H4466 0.931 . S
C4482 C4476 1.383 . S
C4482 C4481 1.379 . S
H4483 C4477 0.959 . S
H4484 C4477 0.961 . S
H4485 C4477 0.960 . S
H4486 C4478 0.930 . S
H4487 C4479 0.929 . S
H4488 C4496 0.929 . S
H4489 C4498 0.930 . S
H4490 C4500 0.930 . S
H4491 C4503 0.929 . S
H4492 C4506 0.930 . S
H4493 C4508 0.960 . S
H4494 C4508 0.960 . S
H4495 C4508 0.960 . S
C4496 H4488 0.929 . S
C4496 C4497 1.377 . S
C4496 C4498 1.384 . S
C4497 C4496 1.377 . S
C4497 C4503 1.390 . S
C4498 H4489 0.930 . S
C4498 C4496 1.384 . S
C4498 C4499 1.372 . S
C4499 C4498 1.372 . S
C4499 C4500 1.400 . S
C4499 C4504 1.490 . S
C4500 H4490 0.930 . S
C4500 C4499 1.400 . S
C4500 C4503 1.386 . S
H4501 C4517 0.930 . S
H4502 C4518 0.931 . S
C4503 H4491 0.929 . S
C4503 C4497 1.390 . S
C4503 C4500 1.386 . S
C4504 C4499 1.490 . S
C4504 C4506 1.395 . S
C4504 C4507 1.403 . S
H4505 C4511 0.930 . S
C4506 H4492 0.930 . S
C4506 C4504 1.395 . S
C4506 C4509 1.403 . S
C4507 C4504 1.403 . S
C4507 C4508 1.524 . S
C4507 C4511 1.400 . S
C4508 H4493 0.960 . S
C4508 H4494 0.960 . S
C4508 H4495 0.960 . S
C4508 C4507 1.524 . S
C4509 C4506 1.403 . S
C4509 C4510 1.392 . S
C4509 C4513 1.495 . S
C4510 C4509 1.392 . S
C4510 C4511 1.385 . S
C4510 C4512 1.478 . S
C4511 H4505 0.930 . S
C4511 C4507 1.400 . S
C4511 C4510 1.385 . S
C4512 C4510 1.478 . S
C4512 C4514 1.381 . S
C4512 C4518 1.383 . S
C4513 C4509 1.495 . S
C4513 H4519 0.959 . S
C4513 H4520 0.961 . S
C4513 H4521 0.960 . S
C4514 C4512 1.381 . S
C4514 C4515 1.394 . S
C4514 H4522 0.930 . S
C4515 C4514 1.394 . S
C4515 C4516 1.383 . S
C4515 H4523 0.929 . S
C4516 C4515 1.383 . S
C4516 C4517 1.377 . S
C4517 H4501 0.930 . S
C4517 C4516 1.377 . S
C4517 C4518 1.379 . S
C4518 H4502 0.931 . S
C4518 C4512 1.383 . S
C4518 C4517 1.379 . S
H4519 C4513 0.959 . S
H4520 C4513 0.961 . S
H4521 C4513 0.960 . S
H4522 C4514 0.930 . S
H4523 C4515 0.929 . S
H4524 C4532 0.929 . S
H4525 C4534 0.930 . S
H4526 C4536 0.930 . S
H4527 C4539 0.929 . S
H4528 C4542 0.930 . S
H4529 C4544 0.960 . S
H4530 C4544 0.960 . S
H4531 C4544 0.960 . S
C4532 H4524 0.929 . S
C4532 C4533 1.377 . S
C4532 C4534 1.384 . S
C4533 C4532 1.377 . S
C4533 C4539 1.390 . S
C4534 H4525 0.930 . S
C4534 C4532 1.384 . S
C4534 C4535 1.372 . S
C4535 C4534 1.372 . S
C4535 C4536 1.400 . S
C4535 C4540 1.490 . S
C4536 H4526 0.930 . S
C4536 C4535 1.400 . S
C4536 C4539 1.386 . S
H4537 C4553 0.930 . S
H4538 C4554 0.931 . S
C4539 H4527 0.929 . S
C4539 C4533 1.390 . S
C4539 C4536 1.386 . S
C4540 C4535 1.490 . S
C4540 C4542 1.395 . S
C4540 C4543 1.403 . S
H4541 C4547 0.930 . S
C4542 H4528 0.930 . S
C4542 C4540 1.395 . S
C4542 C4545 1.403 . S
C4543 C4540 1.403 . S
C4543 C4544 1.524 . S
C4543 C4547 1.400 . S
C4544 H4529 0.960 . S
C4544 H4530 0.960 . S
C4544 H4531 0.960 . S
C4544 C4543 1.524 . S
C4545 C4542 1.403 . S
C4545 C4546 1.392 . S
C4545 C4549 1.495 . S
C4546 C4545 1.392 . S
C4546 C4547 1.385 . S
C4546 C4548 1.478 . S
C4547 H4541 0.930 . S
C4547 C4543 1.400 . S
C4547 C4546 1.385 . S
C4548 C4546 1.478 . S
C4548 C4550 1.381 . S
C4548 C4554 1.383 . S
C4549 C4545 1.495 . S
C4549 H4555 0.959 . S
C4549 H4556 0.961 . S
C4549 H4557 0.960 . S
C4550 C4548 1.381 . S
C4550 C4551 1.394 . S
C4550 H4558 0.930 . S
C4551 C4550 1.394 . S
C4551 C4552 1.383 . S
C4551 H4559 0.929 . S
C4552 C4551 1.383 . S
C4552 C4553 1.377 . S
C4553 H4537 0.930 . S
C4553 C4552 1.377 . S
C4553 C4554 1.379 . S
C4554 H4538 0.931 . S
C4554 C4548 1.383 . S
C4554 C4553 1.379 . S
H4555 C4549 0.959 . S
H4556 C4549 0.961 . S
H4557 C4549 0.960 . S
H4558 C4550 0.930 . S
H4559 C4551 0.929 . S
H4560 C4568 0.929 . S
H4561 C4570 0.930 . S
H4562 C4572 0.930 . S
H4563 C4575 0.929 . S
H4564 C4578 0.930 . S
H4565 C4580 0.960 . S
H4566 C4580 0.960 . S
H4567 C4580 0.960 . S
C4568 H4560 0.929 . S
C4568 C4569 1.377 . S
C4568 C4570 1.384 . S
C4569 C4568 1.377 . S
C4569 C4575 1.390 . S
C4570 H4561 0.930 . S
C4570 C4568 1.384 . S
C4570 C4571 1.372 . S
C4571 C4570 1.372 . S
C4571 C4572 1.400 . S
C4571 C4576 1.490 . S
C4572 H4562 0.930 . S
C4572 C4571 1.400 . S
C4572 C4575 1.386 . S
H4573 C4589 0.930 . S
H4574 C4590 0.931 . S
C4575 H4563 0.929 . S
C4575 C4569 1.390 . S
C4575 C4572 1.386 . S
C4576 C4571 1.490 . S
C4576 C4578 1.395 . S
C4576 C4579 1.403 . S
H4577 C4583 0.930 . S
C4578 H4564 0.930 . S
C4578 C4576 1.395 . S
C4578 C4581 1.403 . S
C4579 C4576 1.403 . S
C4579 C4580 1.524 . S
C4579 C4583 1.400 . S
C4580 H4565 0.960 . S
C4580 H4566 0.960 . S
C4580 H4567 0.960 . S
C4580 C4579 1.524 . S
C4581 C4578 1.403 . S
C4581 C4582 1.392 . S
C4581 C4585 1.495 . S
C4582 C4581 1.392 . S
C4582 C4583 1.385 . S
C4582 C4584 1.478 . S
C4583 H4577 0.930 . S
C4583 C4579 1.400 . S
C4583 C4582 1.385 . S
C4584 C4582 1.478 . S
C4584 C4586 1.381 . S
C4584 C4590 1.383 . S
C4585 C4581 1.495 . S
C4585 H4591 0.959 . S
C4585 H4592 0.961 . S
C4585 H4593 0.960 . S
C4586 C4584 1.381 . S
C4586 C4587 1.394 . S
C4586 H4594 0.930 . S
C4587 C4586 1.394 . S
C4587 C4588 1.383 . S
C4587 H4595 0.929 . S
C4588 C4587 1.383 . S
C4588 C4589 1.377 . S
C4589 H4573 0.930 . S
C4589 C4588 1.377 . S
C4589 C4590 1.379 . S
C4590 H4574 0.931 . S
C4590 C4584 1.383 . S
C4590 C4589 1.379 . S
H4591 C4585 0.959 . S
H4592 C4585 0.961 . S
H4593 C4585 0.960 . S
H4594 C4586 0.930 . S
H4595 C4587 0.929 . S
H4596 C4604 0.929 . S
H4597 C4606 0.930 . S
H4598 C4608 0.930 . S
H4599 C4611 0.929 . S
H4600 C4614 0.930 . S
H4601 C4616 0.960 . S
H4602 C4616 0.960 . S
H4603 C4616 0.960 . S
C4604 H4596 0.929 . S
C4604 C4605 1.377 . S
C4604 C4606 1.384 . S
C4605 C4604 1.377 . S
C4605 C4611 1.390 . S
C4606 H4597 0.930 . S
C4606 C4604 1.384 . S
C4606 C4607 1.372 . S
C4607 C4606 1.372 . S
C4607 C4608 1.400 . S
C4607 C4612 1.490 . S
C4608 H4598 0.930 . S
C4608 C4607 1.400 . S
C4608 C4611 1.386 . S
H4609 C4625 0.930 . S
H4610 C4626 0.931 . S
C4611 H4599 0.929 . S
C4611 C4605 1.390 . S
C4611 C4608 1.386 . S
C4612 C4607 1.490 . S
C4612 C4614 1.395 . S
C4612 C4615 1.403 . S
H4613 C4619 0.930 . S
C4614 H4600 0.930 . S
C4614 C4612 1.395 . S
C4614 C4617 1.403 . S
C4615 C4612 1.403 . S
C4615 C4616 1.524 . S
C4615 C4619 1.400 . S
C4616 H4601 0.960 . S
C4616 H4602 0.960 . S
C4616 H4603 0.960 . S
C4616 C4615 1.524 . S
C4617 C4614 1.403 . S
C4617 C4618 1.392 . S
C4617 C4621 1.495 . S
C4618 C4617 1.392 . S
C4618 C4619 1.385 . S
C4618 C4620 1.478 . S
C4619 H4613 0.930 . S
C4619 C4615 1.400 . S
C4619 C4618 1.385 . S
C4620 C4618 1.478 . S
C4620 C4622 1.381 . S
C4620 C4626 1.383 . S
C4621 C4617 1.495 . S
C4621 H4627 0.959 . S
C4621 H4628 0.961 . S
C4621 H4629 0.960 . S
C4622 C4620 1.381 . S
C4622 C4623 1.394 . S
C4622 H4630 0.930 . S
C4623 C4622 1.394 . S
C4623 C4624 1.383 . S
C4623 H4631 0.929 . S
C4624 C4623 1.383 . S
C4624 C4625 1.377 . S
C4625 H4609 0.930 . S
C4625 C4624 1.377 . S
C4625 C4626 1.379 . S
C4626 H4610 0.931 . S
C4626 C4620 1.383 . S
C4626 C4625 1.379 . S
H4627 C4621 0.959 . S
H4628 C4621 0.961 . S
H4629 C4621 0.960 . S
H4630 C4622 0.930 . S
H4631 C4623 0.929 . S
H4632 C4640 0.929 . S
H4633 C4642 0.930 . S
H4634 C4644 0.930 . S
H4635 C4647 0.929 . S
H4636 C4650 0.930 . S
H4637 C4652 0.960 . S
H4638 C4652 0.960 . S
H4639 C4652 0.960 . S
C4640 H4632 0.929 . S
C4640 C4641 1.377 . S
C4640 C4642 1.384 . S
C4641 C4640 1.377 . S
C4641 C4647 1.390 . S
C4642 H4633 0.930 . S
C4642 C4640 1.384 . S
C4642 C4643 1.372 . S
C4643 C4642 1.372 . S
C4643 C4644 1.400 . S
C4643 C4648 1.490 . S
C4644 H4634 0.930 . S
C4644 C4643 1.400 . S
C4644 C4647 1.386 . S
H4645 C4661 0.930 . S
H4646 C4662 0.931 . S
C4647 H4635 0.929 . S
C4647 C4641 1.390 . S
C4647 C4644 1.386 . S
C4648 C4643 1.490 . S
C4648 C4650 1.395 . S
C4648 C4651 1.403 . S
H4649 C4655 0.930 . S
C4650 H4636 0.930 . S
C4650 C4648 1.395 . S
C4650 C4653 1.403 . S
C4651 C4648 1.403 . S
C4651 C4652 1.524 . S
C4651 C4655 1.400 . S
C4652 H4637 0.960 . S
C4652 H4638 0.960 . S
C4652 H4639 0.960 . S
C4652 C4651 1.524 . S
C4653 C4650 1.403 . S
C4653 C4654 1.392 . S
C4653 C4657 1.495 1_655 S
C4654 C4653 1.392 . S
C4654 C4655 1.385 . S
C4654 C4656 1.478 1_655 S
C4655 H4649 0.930 . S
C4655 C4651 1.400 . S
C4655 C4654 1.385 . S
C4656 C4654 1.478 1_455 S
C4656 C4658 1.385 . S
C4656 C4662 1.383 . S
C4657 C4653 1.495 1_455 S
C4657 H4663 0.960 . S
C4657 H4664 0.961 . S
C4657 H4665 0.958 1_455 S
C4658 C4656 1.385 . S
C4658 C4659 1.415 . S
C4658 H4666 0.908 1_455 S
C4659 C4658 1.415 . S
C4659 C4660 1.383 . S
C4659 H4667 0.929 . S
C4660 C4659 1.383 . S
C4660 C4661 1.377 . S
C4661 H4645 0.930 . S
C4661 C4660 1.377 . S
C4661 C4662 1.379 . S
C4662 H4646 0.931 . S
C4662 C4656 1.383 . S
C4662 C4661 1.379 . S
H4663 C4657 0.960 . S
H4664 C4657 0.961 . S
H4665 C4657 0.958 1_655 S
H4666 C4658 0.908 1_655 S
H4667 C4659 0.929 . S
H4668 C4676 0.929 . S
H4669 C4678 0.930 . S
H4670 C4680 0.930 . S
H4671 C4683 0.929 . S
H4672 C4686 0.930 . S
H4673 C4688 0.960 . S
H4674 C4688 0.960 . S
H4675 C4688 0.960 . S
C4676 H4668 0.929 . S
C4676 C4677 1.377 . S
C4676 C4678 1.384 . S
C4677 C4676 1.377 . S
C4677 C4683 1.390 . S
C4678 H4669 0.930 . S
C4678 C4676 1.384 . S
C4678 C4679 1.372 . S
C4679 C4678 1.372 . S
C4679 C4680 1.400 . S
C4679 C4684 1.490 . S
C4680 H4670 0.930 . S
C4680 C4679 1.400 . S
C4680 C4683 1.386 . S
H4681 C4697 0.930 . S
H4682 C4698 0.931 . S
C4683 H4671 0.929 . S
C4683 C4677 1.390 . S
C4683 C4680 1.386 . S
C4684 C4679 1.490 . S
C4684 C4686 1.395 . S
C4684 C4687 1.403 . S
H4685 C4691 0.930 . S
C4686 H4672 0.930 . S
C4686 C4684 1.395 . S
C4686 C4689 1.403 . S
C4687 C4684 1.403 . S
C4687 C4688 1.524 . S
C4687 C4691 1.400 . S
C4688 H4673 0.960 . S
C4688 H4674 0.960 . S
C4688 H4675 0.960 . S
C4688 C4687 1.524 . S
C4689 C4686 1.403 . S
C4689 C4690 1.392 . S
C4689 C4693 1.495 . S
C4690 C4689 1.392 . S
C4690 C4691 1.385 . S
C4690 C4692 1.478 . S
C4691 H4685 0.930 . S
C4691 C4687 1.400 . S
C4691 C4690 1.385 . S
C4692 C4690 1.478 . S
C4692 C4694 1.381 . S
C4692 C4698 1.383 . S
C4693 C4689 1.495 . S
C4693 H4699 0.959 . S
C4693 H4700 0.961 . S
C4693 H4701 0.960 . S
C4694 C4692 1.381 . S
C4694 C4695 1.394 . S
C4694 H4702 0.930 . S
C4695 C4694 1.394 . S
C4695 C4696 1.383 . S
C4695 H4703 0.929 . S
C4696 C4695 1.383 . S
C4696 C4697 1.377 . S
C4697 H4681 0.930 . S
C4697 C4696 1.377 . S
C4697 C4698 1.379 . S
C4698 H4682 0.931 . S
C4698 C4692 1.383 . S
C4698 C4697 1.379 . S
H4699 C4693 0.959 . S
H4700 C4693 0.961 . S
H4701 C4693 0.960 . S
H4702 C4694 0.930 . S
H4703 C4695 0.929 . S
H4704 C4712 0.929 . S
H4705 C4714 0.930 . S
H4706 C4716 0.930 . S
H4707 C4719 0.929 . S
H4708 C4722 0.930 . S
H4709 C4724 0.960 . S
H4710 C4724 0.960 . S
H4711 C4724 0.960 . S
C4712 H4704 0.929 . S
C4712 C4713 1.377 . S
C4712 C4714 1.384 . S
C4713 C4712 1.377 . S
C4713 C4719 1.390 . S
C4714 H4705 0.930 . S
C4714 C4712 1.384 . S
C4714 C4715 1.372 . S
C4715 C4714 1.372 . S
C4715 C4716 1.400 . S
C4715 C4720 1.490 . S
C4716 H4706 0.930 . S
C4716 C4715 1.400 . S
C4716 C4719 1.386 . S
H4717 C4733 0.930 . S
H4718 C4734 0.931 . S
C4719 H4707 0.929 . S
C4719 C4713 1.390 . S
C4719 C4716 1.386 . S
C4720 C4715 1.490 . S
C4720 C4722 1.395 . S
C4720 C4723 1.403 . S
H4721 C4727 0.930 . S
C4722 H4708 0.930 . S
C4722 C4720 1.395 . S
C4722 C4725 1.403 . S
C4723 C4720 1.403 . S
C4723 C4724 1.524 . S
C4723 C4727 1.400 . S
C4724 H4709 0.960 . S
C4724 H4710 0.960 . S
C4724 H4711 0.960 . S
C4724 C4723 1.524 . S
C4725 C4722 1.403 . S
C4725 C4726 1.392 . S
C4725 C4729 1.495 . S
C4726 C4725 1.392 . S
C4726 C4727 1.385 . S
C4726 C4728 1.478 . S
C4727 H4721 0.930 . S
C4727 C4723 1.400 . S
C4727 C4726 1.385 . S
C4728 C4726 1.478 . S
C4728 C4730 1.381 . S
C4728 C4734 1.383 . S
C4729 C4725 1.495 . S
C4729 H4735 0.959 . S
C4729 H4736 0.961 . S
C4729 H4737 0.960 . S
C4730 C4728 1.381 . S
C4730 C4731 1.394 . S
C4730 H4738 0.930 . S
C4731 C4730 1.394 . S
C4731 C4732 1.383 . S
C4731 H4739 0.929 . S
C4732 C4731 1.383 . S
C4732 C4733 1.377 . S
C4733 H4717 0.930 . S
C4733 C4732 1.377 . S
C4733 C4734 1.379 . S
C4734 H4718 0.931 . S
C4734 C4728 1.383 . S
C4734 C4733 1.379 . S
H4735 C4729 0.959 . S
H4736 C4729 0.961 . S
H4737 C4729 0.960 . S
H4738 C4730 0.930 . S
H4739 C4731 0.929 . S
H4740 C4748 0.929 . S
H4741 C4750 0.930 . S
H4742 C4752 0.930 . S
H4743 C4755 0.929 . S
H4744 C4758 0.930 . S
H4745 C4760 0.960 . S
H4746 C4760 0.960 . S
H4747 C4760 0.960 . S
C4748 H4740 0.929 . S
C4748 C4749 1.377 . S
C4748 C4750 1.384 . S
C4749 C4748 1.377 . S
C4749 C4755 1.390 . S
C4750 H4741 0.930 . S
C4750 C4748 1.384 . S
C4750 C4751 1.372 . S
C4751 C4750 1.372 . S
C4751 C4752 1.400 . S
C4751 C4756 1.490 . S
C4752 H4742 0.930 . S
C4752 C4751 1.400 . S
C4752 C4755 1.386 . S
H4753 C4769 0.930 . S
H4754 C4770 0.931 . S
C4755 H4743 0.929 . S
C4755 C4749 1.390 . S
C4755 C4752 1.386 . S
C4756 C4751 1.490 . S
C4756 C4758 1.395 . S
C4756 C4759 1.403 . S
H4757 C4763 0.930 . S
C4758 H4744 0.930 . S
C4758 C4756 1.395 . S
C4758 C4761 1.403 . S
C4759 C4756 1.403 . S
C4759 C4760 1.524 . S
C4759 C4763 1.400 . S
C4760 H4745 0.960 . S
C4760 H4746 0.960 . S
C4760 H4747 0.960 . S
C4760 C4759 1.524 . S
C4761 C4758 1.403 . S
C4761 C4762 1.392 . S
C4761 C4765 1.495 . S
C4762 C4761 1.392 . S
C4762 C4763 1.385 . S
C4762 C4764 1.478 . S
C4763 H4757 0.930 . S
C4763 C4759 1.400 . S
C4763 C4762 1.385 . S
C4764 C4762 1.478 . S
C4764 C4766 1.381 . S
C4764 C4770 1.383 . S
C4765 C4761 1.495 . S
C4765 H4771 0.959 . S
C4765 H4772 0.961 . S
C4765 H4773 0.960 . S
C4766 C4764 1.381 . S
C4766 C4767 1.394 . S
C4766 H4774 0.930 . S
C4767 C4766 1.394 . S
C4767 C4768 1.383 . S
C4767 H4775 0.929 . S
C4768 C4767 1.383 . S
C4768 C4769 1.377 . S
C4769 H4753 0.930 . S
C4769 C4768 1.377 . S
C4769 C4770 1.379 . S
C4770 H4754 0.931 . S
C4770 C4764 1.383 . S
C4770 C4769 1.379 . S
H4771 C4765 0.959 . S
H4772 C4765 0.961 . S
H4773 C4765 0.960 . S
H4774 C4766 0.930 . S
H4775 C4767 0.929 . S
H4776 C4784 0.929 . S
H4777 C4786 0.930 . S
H4778 C4788 0.930 . S
H4779 C4791 0.929 . S
H4780 C4794 0.930 . S
H4781 C4796 0.960 . S
H4782 C4796 0.960 . S
H4783 C4796 0.960 . S
C4784 H4776 0.929 . S
C4784 C4785 1.377 . S
C4784 C4786 1.384 . S
C4785 C4784 1.377 . S
C4785 C4791 1.390 . S
C4786 H4777 0.930 . S
C4786 C4784 1.384 . S
C4786 C4787 1.372 . S
C4787 C4786 1.372 . S
C4787 C4788 1.400 . S
C4787 C4792 1.490 . S
C4788 H4778 0.930 . S
C4788 C4787 1.400 . S
C4788 C4791 1.386 . S
H4789 C4805 0.930 . S
H4790 C4806 0.924 1_455 S
C4791 H4779 0.929 . S
C4791 C4785 1.390 . S
C4791 C4788 1.386 . S
C4792 C4787 1.490 . S
C4792 C4794 1.395 . S
C4792 C4795 1.403 . S
H4793 C4799 0.930 . S
C4794 H4780 0.930 . S
C4794 C4792 1.395 . S
C4794 C4797 1.403 . S
C4795 C4792 1.403 . S
C4795 C4796 1.524 . S
C4795 C4799 1.400 . S
C4796 H4781 0.960 . S
C4796 H4782 0.960 . S
C4796 H4783 0.960 . S
C4796 C4795 1.524 . S
C4797 C4794 1.403 . S
C4797 C4798 1.392 . S
C4797 C4801 1.495 . S
C4798 C4797 1.392 . S
C4798 C4799 1.385 . S
C4798 C4800 1.478 . S
C4799 H4793 0.930 . S
C4799 C4795 1.400 . S
C4799 C4798 1.385 . S
C4800 C4798 1.478 . S
C4800 C4802 1.381 . S
C4800 C4806 1.402 . S
C4801 C4797 1.495 . S
C4801 H4807 0.959 . S
C4801 H4808 0.961 . S
C4801 H4809 0.960 . S
C4802 C4800 1.381 . S
C4802 C4803 1.394 . S
C4802 H4810 0.930 . S
C4803 C4802 1.394 . S
C4803 C4804 1.441 . S
C4803 H4811 0.929 . S
C4804 C4803 1.441 . S
C4804 C4805 1.357 1_655 S
C4805 H4789 0.930 . S
C4805 C4804 1.357 1_455 S
C4805 C4806 1.368 1_455 S
C4806 H4790 0.924 1_655 S
C4806 C4800 1.402 . S
C4806 C4805 1.368 1_655 S
H4807 C4801 0.959 . S
H4808 C4801 0.961 . S
H4809 C4801 0.960 . S
H4810 C4802 0.930 . S
H4811 C4803 0.929 . S
H4812 C4820 0.929 . S
H4813 C4822 0.930 . S
H4814 C4824 0.930 . S
H4815 C4827 0.929 . S
H4816 C4830 0.930 . S
H4817 C4832 0.960 . S
H4818 C4832 0.960 . S
H4819 C4832 0.960 . S
C4820 H4812 0.929 . S
C4820 C4821 1.377 . S
C4820 C4822 1.384 . S
C4821 C4820 1.377 . S
C4821 C4827 1.390 . S
C4822 H4813 0.930 . S
C4822 C4820 1.384 . S
C4822 C4823 1.372 . S
C4823 C4822 1.372 . S
C4823 C4824 1.400 . S
C4823 C4828 1.490 . S
C4824 H4814 0.930 . S
C4824 C4823 1.400 . S
C4824 C4827 1.386 . S
H4825 C4841 0.930 . S
H4826 C4842 0.931 . S
C4827 H4815 0.929 . S
C4827 C4821 1.390 . S
C4827 C4824 1.386 . S
C4828 C4823 1.490 . S
C4828 C4830 1.395 . S
C4828 C4831 1.403 . S
H4829 C4835 0.930 . S
C4830 H4816 0.930 . S
C4830 C4828 1.395 . S
C4830 C4833 1.403 . S
C4831 C4828 1.403 . S
C4831 C4832 1.524 . S
C4831 C4835 1.400 . S
C4832 H4817 0.960 . S
C4832 H4818 0.960 . S
C4832 H4819 0.960 . S
C4832 C4831 1.524 . S
C4833 C4830 1.403 . S
C4833 C4834 1.392 . S
C4833 C4837 1.495 . S
C4834 C4833 1.392 . S
C4834 C4835 1.385 . S
C4834 C4836 1.478 . S
C4835 H4829 0.930 . S
C4835 C4831 1.400 . S
C4835 C4834 1.385 . S
C4836 C4834 1.478 . S
C4836 C4838 1.381 . S
C4836 C4842 1.383 . S
C4837 C4833 1.495 . S
C4837 H4843 0.959 . S
C4837 H4844 0.961 . S
C4837 H4845 0.960 . S
C4838 C4836 1.381 . S
C4838 C4839 1.394 . S
C4838 H4846 0.930 . S
C4839 C4838 1.394 . S
C4839 C4840 1.383 . S
C4839 H4847 0.929 . S
C4840 C4839 1.383 . S
C4840 C4841 1.377 . S
C4841 H4825 0.930 . S
C4841 C4840 1.377 . S
C4841 C4842 1.379 . S
C4842 H4826 0.931 . S
C4842 C4836 1.383 . S
C4842 C4841 1.379 . S
H4843 C4837 0.959 . S
H4844 C4837 0.961 . S
H4845 C4837 0.960 . S
H4846 C4838 0.930 . S
H4847 C4839 0.929 . S
H4848 C4856 0.929 . S
H4849 C4858 0.930 . S
H4850 C4860 0.930 . S
H4851 C4863 0.929 . S
H4852 C4866 0.930 . S
H4853 C4868 0.960 . S
H4854 C4868 0.960 . S
H4855 C4868 0.960 . S
C4856 H4848 0.929 . S
C4856 C4857 1.377 . S
C4856 C4858 1.384 . S
C4857 C4856 1.377 . S
C4857 C4863 1.390 . S
C4858 H4849 0.930 . S
C4858 C4856 1.384 . S
C4858 C4859 1.372 . S
C4859 C4858 1.372 . S
C4859 C4860 1.400 . S
C4859 C4864 1.490 . S
C4860 H4850 0.930 . S
C4860 C4859 1.400 . S
C4860 C4863 1.386 . S
H4861 C4877 0.930 . S
H4862 C4878 0.931 . S
C4863 H4851 0.929 . S
C4863 C4857 1.390 . S
C4863 C4860 1.386 . S
C4864 C4859 1.490 . S
C4864 C4866 1.395 . S
C4864 C4867 1.403 . S
H4865 C4871 0.930 . S
C4866 H4852 0.930 . S
C4866 C4864 1.395 . S
C4866 C4869 1.403 . S
C4867 C4864 1.403 . S
C4867 C4868 1.524 . S
C4867 C4871 1.400 . S
C4868 H4853 0.960 . S
C4868 H4854 0.960 . S
C4868 H4855 0.960 . S
C4868 C4867 1.524 . S
C4869 C4866 1.403 . S
C4869 C4870 1.392 . S
C4869 C4873 1.495 . S
C4870 C4869 1.392 . S
C4870 C4871 1.385 . S
C4870 C4872 1.478 . S
C4871 H4865 0.930 . S
C4871 C4867 1.400 . S
C4871 C4870 1.385 . S
C4872 C4870 1.478 . S
C4872 C4874 1.381 . S
C4872 C4878 1.383 . S
C4873 C4869 1.495 . S
C4873 H4879 0.959 . S
C4873 H4880 0.961 . S
C4873 H4881 0.960 . S
C4874 C4872 1.381 . S
C4874 C4875 1.394 . S
C4874 H4882 0.930 . S
C4875 C4874 1.394 . S
C4875 C4876 1.383 . S
C4875 H4883 0.929 . S
C4876 C4875 1.383 . S
C4876 C4877 1.377 . S
C4877 H4861 0.930 . S
C4877 C4876 1.377 . S
C4877 C4878 1.379 . S
C4878 H4862 0.931 . S
C4878 C4872 1.383 . S
C4878 C4877 1.379 . S
H4879 C4873 0.959 . S
H4880 C4873 0.961 . S
H4881 C4873 0.960 . S
H4882 C4874 0.930 . S
H4883 C4875 0.929 . S
H4884 C4892 0.929 . S
H4885 C4894 0.930 . S
H4886 C4896 0.930 . S
H4887 C4899 0.929 . S
H4888 C4902 0.930 . S
H4889 C4904 0.960 . S
H4890 C4904 0.960 . S
H4891 C4904 0.960 . S
C4892 H4884 0.929 . S
C4892 C4893 1.377 . S
C4892 C4894 1.384 . S
C4893 C4892 1.377 . S
C4893 C4899 1.390 . S
C4894 H4885 0.930 . S
C4894 C4892 1.384 . S
C4894 C4895 1.372 . S
C4895 C4894 1.372 . S
C4895 C4896 1.400 . S
C4895 C4900 1.490 . S
C4896 H4886 0.930 . S
C4896 C4895 1.400 . S
C4896 C4899 1.386 . S
H4897 C4913 0.930 . S
H4898 C4914 0.931 . S
C4899 H4887 0.929 . S
C4899 C4893 1.390 . S
C4899 C4896 1.386 . S
C4900 C4895 1.490 . S
C4900 C4902 1.395 . S
C4900 C4903 1.403 . S
H4901 C4907 0.930 . S
C4902 H4888 0.930 . S
C4902 C4900 1.395 . S
C4902 C4905 1.403 . S
C4903 C4900 1.403 . S
C4903 C4904 1.524 . S
C4903 C4907 1.400 . S
C4904 H4889 0.960 . S
C4904 H4890 0.960 . S
C4904 H4891 0.960 . S
C4904 C4903 1.524 . S
C4905 C4902 1.403 . S
C4905 C4906 1.392 . S
C4905 C4909 1.495 . S
C4906 C4905 1.392 . S
C4906 C4907 1.385 . S
C4906 C4908 1.478 . S
C4907 H4901 0.930 . S
C4907 C4903 1.400 . S
C4907 C4906 1.385 . S
C4908 C4906 1.478 . S
C4908 C4910 1.333 1_565 S
C4908 C4914 1.383 . S
C4909 C4905 1.495 . S
C4909 H4915 0.959 . S
C4909 H4916 0.961 . S
C4909 H4917 0.960 . S
C4910 C4908 1.333 1_545 S
C4910 C4911 1.419 . S
C4910 H4918 0.958 . S
C4911 C4910 1.419 . S
C4911 C4912 1.383 . S
C4911 H4919 0.929 . S
C4912 C4911 1.383 . S
C4912 C4913 1.377 1_545 S
C4913 H4897 0.930 . S
C4913 C4912 1.377 1_565 S
C4913 C4914 1.379 . S
C4914 H4898 0.931 . S
C4914 C4908 1.383 . S
C4914 C4913 1.379 . S
H4915 C4909 0.959 . S
H4916 C4909 0.961 . S
H4917 C4909 0.960 . S
H4918 C4910 0.958 . S
H4919 C4911 0.929 . S
H4920 C4928 0.929 . S
H4921 C4930 0.930 . S
H4922 C4932 0.930 . S
H4923 C4935 0.929 . S
H4924 C4938 0.930 . S
H4925 C4940 0.960 . S
H4926 C4940 0.960 . S
H4927 C4940 0.960 . S
C4928 H4920 0.929 . S
C4928 C4929 1.377 . S
C4928 C4930 1.384 . S
C4929 C4928 1.377 . S
C4929 C4935 1.390 . S
C4930 H4921 0.930 . S
C4930 C4928 1.384 . S
C4930 C4931 1.372 . S
C4931 C4930 1.372 . S
C4931 C4932 1.400 . S
C4931 C4936 1.490 . S
C4932 H4922 0.930 . S
C4932 C4931 1.400 . S
C4932 C4935 1.386 . S
H4933 C4949 0.930 . S
H4934 C4950 0.931 . S
C4935 H4923 0.929 . S
C4935 C4929 1.390 . S
C4935 C4932 1.386 . S
C4936 C4931 1.490 . S
C4936 C4938 1.395 . S
C4936 C4939 1.403 . S
H4937 C4943 0.930 . S
C4938 H4924 0.930 . S
C4938 C4936 1.395 . S
C4938 C4941 1.403 . S
C4939 C4936 1.403 . S
C4939 C4940 1.524 . S
C4939 C4943 1.400 . S
C4940 H4925 0.960 . S
C4940 H4926 0.960 . S
C4940 H4927 0.960 . S
C4940 C4939 1.524 . S
C4941 C4938 1.403 . S
C4941 C4942 1.392 . S
C4941 C4945 1.495 . S
C4942 C4941 1.392 . S
C4942 C4943 1.385 . S
C4942 C4944 1.478 . S
C4943 H4937 0.930 . S
C4943 C4939 1.400 . S
C4943 C4942 1.385 . S
C4944 C4942 1.478 . S
C4944 C4946 1.381 . S
C4944 C4950 1.383 . S
C4945 C4941 1.495 . S
C4945 H4951 0.959 . S
C4945 H4952 0.961 . S
C4945 H4953 0.960 . S
C4946 C4944 1.381 . S
C4946 C4947 1.394 . S
C4946 H4954 0.930 . S
C4947 C4946 1.394 . S
C4947 C4948 1.383 . S
C4947 H4955 0.929 . S
C4948 C4947 1.383 . S
C4948 C4949 1.377 . S
C4949 H4933 0.930 . S
C4949 C4948 1.377 . S
C4949 C4950 1.379 . S
C4950 H4934 0.931 . S
C4950 C4944 1.383 . S
C4950 C4949 1.379 . S
H4951 C4945 0.959 . S
H4952 C4945 0.961 . S
H4953 C4945 0.960 . S
H4954 C4946 0.930 . S
H4955 C4947 0.929 . S
H4956 C4964 0.929 . S
H4957 C4966 0.930 . S
H4958 C4968 0.934 . S
H4959 C4971 0.943 . S
H4960 C4974 0.930 . S
H4961 C4976 0.960 . S
H4962 C4976 0.960 . S
H4963 C4976 0.960 . S
C4964 H4956 0.929 . S
C4964 C4965 1.377 . S
C4964 C4966 1.384 . S
C4965 C4964 1.377 . S
C4965 C4971 1.390 . S
C4966 H4957 0.930 . S
C4966 C4964 1.384 . S
C4966 C4967 1.372 . S
C4967 C4966 1.372 . S
C4967 C4968 1.400 . S
C4967 C4972 1.490 . S
C4968 H4958 0.934 . S
C4968 C4967 1.400 . S
C4968 C4971 1.386 . S
H4969 C4985 0.915 1_556 S
H4970 C4986 0.905 1_556 S
C4971 H4959 0.943 . S
C4971 C4965 1.390 . S
C4971 C4968 1.386 . S
C4972 C4967 1.490 . S
C4972 C4974 1.395 . S
C4972 C4975 1.403 . S
H4973 C4979 0.930 . S
C4974 H4960 0.930 . S
C4974 C4972 1.395 . S
C4974 C4977 1.403 . S
C4975 C4972 1.403 . S
C4975 C4976 1.524 . S
C4975 C4979 1.400 . S
C4976 H4961 0.960 . S
C4976 H4962 0.960 . S
C4976 H4963 0.960 . S
C4976 C4975 1.524 . S
C4977 C4974 1.403 . S
C4977 C4978 1.392 . S
C4977 C4981 1.500 . S
C4978 C4977 1.392 . S
C4978 C4979 1.385 . S
C4978 C4980 1.478 . S
C4979 H4973 0.930 . S
C4979 C4975 1.400 . S
C4979 C4978 1.385 . S
C4980 C4978 1.478 . S
C4980 C4982 1.381 . S
C4980 C4986 1.403 . S
C4981 C4977 1.500 . S
C4981 H4987 0.955 1_554 S
C4981 H4988 0.954 1_554 S
C4981 H4989 0.967 . S
C4982 C4980 1.381 . S
C4982 C4983 1.394 . S
C4982 H4990 0.930 . S
C4983 C4982 1.394 . S
C4983 C4984 1.383 . S
C4983 H4991 0.929 . S
C4984 C4983 1.383 . S
C4984 C4985 1.398 . S
C4985 H4969 0.915 1_554 S
C4985 C4984 1.398 . S
C4985 C4986 1.381 . S
C4986 H4970 0.905 1_554 S
C4986 C4980 1.403 . S
C4986 C4985 1.381 . S
H4987 C4981 0.955 1_556 S
H4988 C4981 0.954 1_556 S
H4989 C4981 0.967 . S
H4990 C4982 0.930 . S
H4991 C4983 0.929 . S
H4992 C5000 0.929 . S
H4993 C5002 0.930 . S
H4994 C5004 0.930 . S
H4995 C5007 0.929 . S
H4996 C5010 0.930 . S
H4997 C5012 0.960 . S
H4998 C5012 0.960 . S
H4999 C5012 0.960 . S
C5000 H4992 0.929 . S
C5000 C5001 1.377 . S
C5000 C5002 1.384 . S
C5001 C5000 1.377 . S
C5001 C5007 1.390 . S
C5002 H4993 0.930 . S
C5002 C5000 1.384 . S
C5002 C5003 1.372 . S
C5003 C5002 1.372 . S
C5003 C5004 1.400 . S
C5003 C5008 1.490 . S
C5004 H4994 0.930 . S
C5004 C5003 1.400 . S
C5004 C5007 1.386 . S
H5005 C5021 0.930 . S
H5006 C5022 0.931 . S
C5007 H4995 0.929 . S
C5007 C5001 1.390 . S
C5007 C5004 1.386 . S
C5008 C5003 1.490 . S
C5008 C5010 1.395 . S
C5008 C5011 1.403 . S
H5009 C5015 0.930 . S
C5010 H4996 0.930 . S
C5010 C5008 1.395 . S
C5010 C5013 1.403 . S
C5011 C5008 1.403 . S
C5011 C5012 1.524 . S
C5011 C5015 1.400 . S
C5012 H4997 0.960 . S
C5012 H4998 0.960 . S
C5012 H4999 0.960 . S
C5012 C5011 1.524 . S
C5013 C5010 1.403 . S
C5013 C5014 1.392 . S
C5013 C5017 1.495 . S
C5014 C5013 1.392 . S
C5014 C5015 1.385 . S
C5014 C5016 1.478 . S
C5015 H5009 0.930 . S
C5015 C5011 1.400 . S
C5015 C5014 1.385 . S
C5016 C5014 1.478 . S
C5016 C5018 1.381 . S
C5016 C5022 1.383 . S
C5017 C5013 1.495 . S
C5017 H5023 0.959 . S
C5017 H5024 0.961 . S
C5017 H5025 0.960 . S
C5018 C5016 1.381 . S
C5018 C5019 1.394 . S
C5018 H5026 0.930 . S
C5019 C5018 1.394 . S
C5019 C5020 1.383 . S
C5019 H5027 0.929 . S
C5020 C5019 1.383 . S
C5020 C5021 1.377 . S
C5021 H5005 0.930 . S
C5021 C5020 1.377 . S
C5021 C5022 1.379 . S
C5022 H5006 0.931 . S
C5022 C5016 1.383 . S
C5022 C5021 1.379 . S
H5023 C5017 0.959 . S
H5024 C5017 0.961 . S
H5025 C5017 0.960 . S
H5026 C5018 0.930 . S
H5027 C5019 0.929 . S
H5028 C5036 0.929 . S
H5029 C5038 0.930 . S
H5030 C5040 0.930 . S
H5031 C5043 0.929 . S
H5032 C5046 0.930 . S
H5033 C5048 0.960 . S
H5034 C5048 0.960 . S
H5035 C5048 0.960 . S
C5036 H5028 0.929 . S
C5036 C5037 1.377 . S
C5036 C5038 1.384 . S
C5037 C5036 1.377 . S
C5037 C5043 1.390 . S
C5038 H5029 0.930 . S
C5038 C5036 1.384 . S
C5038 C5039 1.372 . S
C5039 C5038 1.372 . S
C5039 C5040 1.400 . S
C5039 C5044 1.490 . S
C5040 H5030 0.930 . S
C5040 C5039 1.400 . S
C5040 C5043 1.386 . S
H5041 C5057 0.930 1_556 S
H5042 C5058 0.931 . S
C5043 H5031 0.929 . S
C5043 C5037 1.390 . S
C5043 C5040 1.386 . S
C5044 C5039 1.490 . S
C5044 C5046 1.395 . S
C5044 C5047 1.403 . S
H5045 C5051 0.930 1_556 S
C5046 H5032 0.930 . S
C5046 C5044 1.395 . S
C5046 C5049 1.403 . S
C5047 C5044 1.403 . S
C5047 C5048 1.524 1_554 S
C5047 C5051 1.400 . S
C5048 H5033 0.960 . S
C5048 H5034 0.960 . S
C5048 H5035 0.960 . S
C5048 C5047 1.524 1_556 S
C5049 C5046 1.403 . S
C5049 C5050 1.392 . S
C5049 C5053 1.495 . S
C5050 C5049 1.392 . S
C5050 C5051 1.385 . S
C5050 C5052 1.478 . S
C5051 H5045 0.930 1_554 S
C5051 C5047 1.400 . S
C5051 C5050 1.385 . S
C5052 C5050 1.478 . S
C5052 C5054 1.381 . S
C5052 C5058 1.383 . S
C5053 C5049 1.495 . S
C5053 H5059 0.959 . S
C5053 H5060 0.961 . S
C5053 H5061 0.960 . S
C5054 C5052 1.381 . S
C5054 C5055 1.394 . S
C5054 H5062 0.930 . S
C5055 C5054 1.394 . S
C5055 C5056 1.383 . S
C5055 H5063 0.929 . S
C5056 C5055 1.383 . S
C5056 C5057 1.377 . S
C5057 H5041 0.930 1_554 S
C5057 C5056 1.377 . S
C5057 C5058 1.379 . S
C5058 H5042 0.931 . S
C5058 C5052 1.383 . S
C5058 C5057 1.379 . S
H5059 C5053 0.959 . S
H5060 C5053 0.961 . S
H5061 C5053 0.960 . S
H5062 C5054 0.930 . S
H5063 C5055 0.929 . S
H5064 C5072 0.933 . S
H5065 C5074 0.930 . S
H5066 C5076 0.930 . S
H5067 C5079 0.929 . S
H5068 C5082 0.930 . S
H5069 C5084 0.960 . S
H5070 C5084 0.960 . S
H5071 C5084 0.960 . S
C5072 H5064 0.933 . S
C5072 C5073 1.377 1_565 S
C5072 C5074 1.384 . S
C5073 C5072 1.377 1_545 S
C5073 C5079 1.390 . S
C5074 H5065 0.930 . S
C5074 C5072 1.384 . S
C5074 C5075 1.372 . S
C5075 C5074 1.372 . S
C5075 C5076 1.400 . S
C5075 C5080 1.490 . S
C5076 H5066 0.930 . S
C5076 C5075 1.400 . S
C5076 C5079 1.386 1_565 S
H5077 C5093 0.930 . S
H5078 C5094 0.931 . S
C5079 H5067 0.929 . S
C5079 C5073 1.390 . S
C5079 C5076 1.386 1_545 S
C5080 C5075 1.490 . S
C5080 C5082 1.395 . S
C5080 C5083 1.403 . S
H5081 C5087 0.930 . S
C5082 H5068 0.930 . S
C5082 C5080 1.395 . S
C5082 C5085 1.403 . S
C5083 C5080 1.403 . S
C5083 C5084 1.524 . S
C5083 C5087 1.400 . S
C5084 H5069 0.960 . S
C5084 H5070 0.960 . S
C5084 H5071 0.960 . S
C5084 C5083 1.524 . S
C5085 C5082 1.403 . S
C5085 C5086 1.392 . S
C5085 C5089 1.495 . S
C5086 C5085 1.392 . S
C5086 C5087 1.385 . S
C5086 C5088 1.478 . S
C5087 H5081 0.930 . S
C5087 C5083 1.400 . S
C5087 C5086 1.385 . S
C5088 C5086 1.478 . S
C5088 C5090 1.381 . S
C5088 C5094 1.383 . S
C5089 C5085 1.495 . S
C5089 H5095 0.959 . S
C5089 H5096 0.961 . S
C5089 H5097 0.960 . S
C5090 C5088 1.381 . S
C5090 C5091 1.394 . S
C5090 H5098 0.930 . S
C5091 C5090 1.394 . S
C5091 C5092 1.383 . S
C5091 H5099 0.929 . S
C5092 C5091 1.383 . S
C5092 C5093 1.377 . S
C5093 H5077 0.930 . S
C5093 C5092 1.377 . S
C5093 C5094 1.379 . S
C5094 H5078 0.931 . S
C5094 C5088 1.383 . S
C5094 C5093 1.379 . S
H5095 C5089 0.959 . S
H5096 C5089 0.961 . S
H5097 C5089 0.960 . S
H5098 C5090 0.930 . S
H5099 C5091 0.929 . S
H5100 C5108 0.929 . S
H5101 C5110 0.930 . S
H5102 C5112 0.930 . S
H5103 C5115 0.929 . S
H5104 C5118 0.930 . S
H5105 C5120 0.960 . S
H5106 C5120 0.960 . S
H5107 C5120 0.960 . S
C5108 H5100 0.929 . S
C5108 C5109 1.377 . S
C5108 C5110 1.384 . S
C5109 C5108 1.377 . S
C5109 C5115 1.390 . S
C5110 H5101 0.930 . S
C5110 C5108 1.384 . S
C5110 C5111 1.372 . S
C5111 C5110 1.372 . S
C5111 C5112 1.400 . S
C5111 C5116 1.490 . S
C5112 H5102 0.930 . S
C5112 C5111 1.400 . S
C5112 C5115 1.386 . S
H5113 C5129 0.930 . S
H5114 C5130 0.931 . S
C5115 H5103 0.929 . S
C5115 C5109 1.390 . S
C5115 C5112 1.386 . S
C5116 C5111 1.490 . S
C5116 C5118 1.395 . S
C5116 C5119 1.403 . S
H5117 C5123 0.930 . S
C5118 H5104 0.930 . S
C5118 C5116 1.395 . S
C5118 C5121 1.403 . S
C5119 C5116 1.403 . S
C5119 C5120 1.524 . S
C5119 C5123 1.400 . S
C5120 H5105 0.960 . S
C5120 H5106 0.960 . S
C5120 H5107 0.960 . S
C5120 C5119 1.524 . S
C5121 C5118 1.403 . S
C5121 C5122 1.392 . S
C5121 C5125 1.495 . S
C5122 C5121 1.392 . S
C5122 C5123 1.385 . S
C5122 C5124 1.478 . S
C5123 H5117 0.930 . S
C5123 C5119 1.400 . S
C5123 C5122 1.385 . S
C5124 C5122 1.478 . S
C5124 C5126 1.381 . S
C5124 C5130 1.383 . S
C5125 C5121 1.495 . S
C5125 H5131 0.959 . S
C5125 H5132 0.961 . S
C5125 H5133 0.960 . S
C5126 C5124 1.381 . S
C5126 C5127 1.394 . S
C5126 H5134 0.930 . S
C5127 C5126 1.394 . S
C5127 C5128 1.383 . S
C5127 H5135 0.929 . S
C5128 C5127 1.383 . S
C5128 C5129 1.377 . S
C5129 H5113 0.930 . S
C5129 C5128 1.377 . S
C5129 C5130 1.379 . S
C5130 H5114 0.931 . S
C5130 C5124 1.383 . S
C5130 C5129 1.379 . S
H5131 C5125 0.959 . S
H5132 C5125 0.961 . S
H5133 C5125 0.960 . S
H5134 C5126 0.930 . S
H5135 C5127 0.929 . S
C1689 C111 1.526 . S
C1708 C392 1.453 . S
C1725 C64 2.163 . S
C1744 C483 2.184 . S
C1761 C77 1.350 . S
C1780 C560 1.231 . S
C1816 C658 1.392 . S
C1797 C95 1.498 . S
C1833 C25 1.383 . S
C1852 C742 1.325 . S
C1888 C814 0.839 . S
C1869 C36 0.935 . S
C1924 C903 0.591 . S
C1905 C50 0.674 . S
C1941 C11 1.174 . S
C1960 C980 1.106 . S
C1996 C399 1.891 . S
C1977 C237 1.864 . S
C2013 C245 0.499 . S
C2032 C490 0.496 . S
C2068 C567 1.076 . S
C2049 C279 1.000 . S
C2104 C644 1.436 . S
C2085 C175 1.497 1_556 S
C2121 C231 1.862 . S
C2140 C728 1.762 . S
C2176 C830 0.928 . S
C2157 C251 0.978 . S
C2212 C910 0.709 . S
C2193 C273 0.674 . S
C2248 C987 1.267 . S
C2229 C181 1.300 . S
C2284 C406 1.278 . S
C2265 C165 1.406 . S
C2301 C288 1.954 . S
C2320 C1071 1.918 . S
C2356 C1159 2.095 . S
C2337 C333 2.253 . S
C2392 C1232 0.525 . S
C2373 C316 0.368 . S
C2409 C123 0.533 . S
C2428 C994 0.582 . S
C2445 C137 1.318 . S
C2464 C574 1.227 . S
C2481 C330 2.272 . S
C2500 C1323 2.246 . S
C2536 C1400 0.631 . S
C2517 C302 0.663 . S
C2572 C403 1.570 1_565 S
C2553 C63 1.699 . S
C2608 C1418 2.193 . S
C2589 C106 2.264 . S
C2625 C97 1.413 . S
C2644 C571 1.346 . S
C2661 C81 1.577 . S
C2680 C1318 1.405 . S
C2716 C730 1.386 . S
C2697 C13 1.406 . S
C2733 C55 0.909 . S
C2752 C1162 0.922 . S
C2788 C914 0.731 . S
C2769 C35 0.698 . S
C2824 C1495 1.226 . S
C2805 C21 1.387 . S
C2860 C410 1.992 . S
C2841 C147 2.117 . S
C2896 C1402 0.577 . S
C2877 C321 0.598 . S
C2913 C119 1.119 . S
C2932 C578 1.116 . S
C2949 C293 1.572 . S
C2968 C1327 1.556 . S
C2985 C153 1.898 . S
C3004 C739 1.952 . S
C3040 C1155 1.077 . S
C3021 C315 1.092 . S
C3057 C125 0.702 . S
C3076 C898 0.724 . S
C3093 C287 1.519 . S
C3112 C1502 1.379 . S
C3129 C193 1.462 . S
C3148 C394 1.405 . S
C3165 C176 2.027 . S
C3184 C1082 1.979 . S
C3201 C263 2.215 . S
C3220 C812 2.053 . S
C3237 C246 0.542 . S
C3256 C1243 0.590 . S
C3292 C1486 0.710 . S
C3273 C277 0.619 . S
C3309 C221 1.333 . S
C3328 C562 1.274 . S
C3364 C662 2.315 . S
C3345 C260 2.359 . S
C3400 C487 0.766 . S
C3381 C204 0.816 . S
C3417 C83 1.518 . S
C3436 C1568 1.380 . S
C3472 C1407 2.193 . S
C3453 C92 2.159 . S
C3489 C105 1.349 . S
C3508 C1652 1.229 . S
C3525 C67 1.498 . S
C3544 C1330 1.374 . S
C3561 C53 1.383 . S
C3580 C1078 1.329 . S
C3616 C1150 0.908 . S
C3597 C8 0.932 . S
C3652 C1239 0.627 . S
C3633 C22 0.659 . S
C3688 C1484 1.015 . S
C3669 C39 1.174 . S
C3724 C1575 1.891 . S
C3705 C265 1.864 . S
C3741 C189 0.491 . S
C3760 C1414 0.630 . S
C3796 C1659 1.024 . S
C3777 C209 0.987 . S
C3832 C1316 1.377 . S
C3813 C217 1.497 . S
C3868 C1064 1.757 . S
C3849 C259 1.861 . S
C3885 C195 0.993 . S
C3904 C1166 1.031 . S
C3940 C1246 0.623 . S
C3921 C203 0.681 . S
C3957 C223 1.312 . S
C3976 C1491 1.273 . S
C4012 C1582 1.267 . S
C3993 C319 1.405 . S
C4029 C134 1.946 . S
C4048 C735 1.952 . S
C4084 C823 2.063 . S
C4065 C151 2.256 . S
C4120 C896 0.544 . S
C4101 C162 0.364 . S
C4156 C1498 0.546 . S
C4137 C305 0.540 . S
C4173 C291 1.313 1_554 S
C4192 C1666 1.219 . S
C4228 C651 2.279 . S
C4209 C148 2.258 . S
C4264 C476 0.665 . S
C4245 C120 0.658 . S
C4281 C91 1.700 . S
C4300 C1579 1.601 . S
C4336 C494 2.210 . S
C4317 C78 2.267 . S
C4353 C69 1.411 . S
C4372 C1663 1.342 . S
C4389 C109 1.577 . S
C4408 C646 1.429 . S
C4425 C41 1.405 . S
C4444 C1066 1.433 . S
C4480 C826 0.822 . S
C4461 C27 0.925 . S
C4497 C7 0.706 . S
C4516 C1250 0.745 . S
C4533 C49 1.393 . S
C4552 C991 1.313 . S
C4588 C1586 2.012 . S
C4569 C329 2.117 . S
C4605 C167 0.596 . S
C4624 C478 0.546 . S
C4660 C1670 1.064 . S
C4641 C301 1.123 . S
C4677 C139 1.574 . S
C4696 C655 1.529 . S
C4713 C335 1.903 . S
C4732 C1075 1.935 . S
C4768 C819 1.005 . S
C4749 C161 1.088 . S
C4785 C307 0.708 . S
C4804 C1234 0.748 1_655 S
C4840 C998 1.444 . S
C4821 C133 1.520 . S
C4876 C1570 1.390 . S
C4857 C249 1.464 . S
C4912 C746 1.999 1_655 S
C4893 C218 2.029 . S
C4929 C235 2.215 . S
C4948 C1148 2.068 . S
C4984 C907 0.442 . S
C4965 C190 0.522 . S
C5001 C207 0.631 . S
C5020 C982 0.628 . S
C5037 C179 1.330 . S
C5056 C1654 1.296 . S
C5092 C1334 2.327 . S
C5073 C232 2.361 . S
C5128 C1411 0.865 . S
C5109 C274 0.820 . S
