# Generated by pormake.
# Topology tbo, (3,4)-cn, num edge types: 1
# Building blocks:
#     Node 0, Type 0, BuildingBlock: WUSLED_clean_sbu_0, # of connection points: 3
#     Node 1, Type 0, BuildingBlock: WUSLED_clean_sbu_0, # of connection points: 3
#     Node 2, Type 0, BuildingBlock: WUSLED_clean_sbu_0, # of connection points: 3
#     Node 3, Type 0, BuildingBlock: WUSLED_clean_sbu_0, # of connection points: 3
#     Node 4, Type 0, BuildingBlock: WUSLED_clean_sbu_0, # of connection points: 3
#     Node 5, Type 0, BuildingBlock: WUSLED_clean_sbu_0, # of connection points: 3
#     Node 6, Type 0, BuildingBlock: WUSLED_clean_sbu_0, # of connection points: 3
#     Node 7, Type 0, BuildingBlock: WUSLED_clean_sbu_0, # of connection points: 3
#     Node 8, Type 0, BuildingBlock: WUSLED_clean_sbu_0, # of connection points: 3
#     Node 9, Type 0, BuildingBlock: WUSLED_clean_sbu_0, # of connection points: 3
#     Node 10, Type 0, BuildingBlock: WUSLED_clean_sbu_0, # of connection points: 3
#     Node 11, Type 0, BuildingBlock: WUSLED_clean_sbu_0, # of connection points: 3
#     Node 12, Type 0, BuildingBlock: WUSLED_clean_sbu_0, # of connection points: 3
#     Node 13, Type 0, BuildingBlock: WUSLED_clean_sbu_0, # of connection points: 3
#     Node 14, Type 0, BuildingBlock: WUSLED_clean_sbu_0, # of connection points: 3
#     Node 15, Type 0, BuildingBlock: WUSLED_clean_sbu_0, # of connection points: 3
#     Node 16, Type 0, BuildingBlock: WUSLED_clean_sbu_0, # of connection points: 3
#     Node 17, Type 0, BuildingBlock: WUSLED_clean_sbu_0, # of connection points: 3
#     Node 18, Type 0, BuildingBlock: WUSLED_clean_sbu_0, # of connection points: 3
#     Node 19, Type 0, BuildingBlock: WUSLED_clean_sbu_0, # of connection points: 3
#     Node 20, Type 0, BuildingBlock: WUSLED_clean_sbu_0, # of connection points: 3
#     Node 21, Type 0, BuildingBlock: WUSLED_clean_sbu_0, # of connection points: 3
#     Node 22, Type 0, BuildingBlock: WUSLED_clean_sbu_0, # of connection points: 3
#     Node 23, Type 0, BuildingBlock: WUSLED_clean_sbu_0, # of connection points: 3
#     Node 24, Type 0, BuildingBlock: WUSLED_clean_sbu_0, # of connection points: 3
#     Node 25, Type 0, BuildingBlock: WUSLED_clean_sbu_0, # of connection points: 3
#     Node 26, Type 0, BuildingBlock: WUSLED_clean_sbu_0, # of connection points: 3
#     Node 27, Type 0, BuildingBlock: WUSLED_clean_sbu_0, # of connection points: 3
#     Node 28, Type 0, BuildingBlock: WUSLED_clean_sbu_0, # of connection points: 3
#     Node 29, Type 0, BuildingBlock: WUSLED_clean_sbu_0, # of connection points: 3
#     Node 30, Type 0, BuildingBlock: WUSLED_clean_sbu_0, # of connection points: 3
#     Node 31, Type 0, BuildingBlock: WUSLED_clean_sbu_0, # of connection points: 3
#     Node 32, Type 1, BuildingBlock: ESEHIV_clean_sbu_0, # of connection points: 4
#     Node 33, Type 1, BuildingBlock: ESEHIV_clean_sbu_0, # of connection points: 4
#     Node 34, Type 1, BuildingBlock: ESEHIV_clean_sbu_0, # of connection points: 4
#     Node 35, Type 1, BuildingBlock: ESEHIV_clean_sbu_0, # of connection points: 4
#     Node 36, Type 1, BuildingBlock: ESEHIV_clean_sbu_0, # of connection points: 4
#     Node 37, Type 1, BuildingBlock: ESEHIV_clean_sbu_0, # of connection points: 4
#     Node 38, Type 1, BuildingBlock: ESEHIV_clean_sbu_0, # of connection points: 4
#     Node 39, Type 1, BuildingBlock: ESEHIV_clean_sbu_0, # of connection points: 4
#     Node 40, Type 1, BuildingBlock: ESEHIV_clean_sbu_0, # of connection points: 4
#     Node 41, Type 1, BuildingBlock: ESEHIV_clean_sbu_0, # of connection points: 4
#     Node 42, Type 1, BuildingBlock: ESEHIV_clean_sbu_0, # of connection points: 4
#     Node 43, Type 1, BuildingBlock: ESEHIV_clean_sbu_0, # of connection points: 4
#     Node 44, Type 1, BuildingBlock: ESEHIV_clean_sbu_0, # of connection points: 4
#     Node 45, Type 1, BuildingBlock: ESEHIV_clean_sbu_0, # of connection points: 4
#     Node 46, Type 1, BuildingBlock: ESEHIV_clean_sbu_0, # of connection points: 4
#     Node 47, Type 1, BuildingBlock: ESEHIV_clean_sbu_0, # of connection points: 4
#     Node 48, Type 1, BuildingBlock: ESEHIV_clean_sbu_0, # of connection points: 4
#     Node 49, Type 1, BuildingBlock: ESEHIV_clean_sbu_0, # of connection points: 4
#     Node 50, Type 1, BuildingBlock: ESEHIV_clean_sbu_0, # of connection points: 4
#     Node 51, Type 1, BuildingBlock: ESEHIV_clean_sbu_0, # of connection points: 4
#     Node 52, Type 1, BuildingBlock: ESEHIV_clean_sbu_0, # of connection points: 4
#     Node 53, Type 1, BuildingBlock: ESEHIV_clean_sbu_0, # of connection points: 4
#     Node 54, Type 1, BuildingBlock: ESEHIV_clean_sbu_0, # of connection points: 4
#     Node 55, Type 1, BuildingBlock: ESEHIV_clean_sbu_0, # of connection points: 4
#     Edge 56, Type (0, 1), BuildingBlock: ZUJKAS_clean_linker_0, # of connection points: 2
#     Edge 57, Type (0, 1), BuildingBlock: ZUJKAS_clean_linker_0, # of connection points: 2
#     Edge 58, Type (0, 1), BuildingBlock: ZUJKAS_clean_linker_0, # of connection points: 2
#     Edge 59, Type (0, 1), BuildingBlock: ZUJKAS_clean_linker_0, # of connection points: 2
#     Edge 60, Type (0, 1), BuildingBlock: ZUJKAS_clean_linker_0, # of connection points: 2
#     Edge 61, Type (0, 1), BuildingBlock: ZUJKAS_clean_linker_0, # of connection points: 2
#     Edge 62, Type (0, 1), BuildingBlock: ZUJKAS_clean_linker_0, # of connection points: 2
#     Edge 63, Type (0, 1), BuildingBlock: ZUJKAS_clean_linker_0, # of connection points: 2
#     Edge 64, Type (0, 1), BuildingBlock: ZUJKAS_clean_linker_0, # of connection points: 2
#     Edge 65, Type (0, 1), BuildingBlock: ZUJKAS_clean_linker_0, # of connection points: 2
#     Edge 66, Type (0, 1), BuildingBlock: ZUJKAS_clean_linker_0, # of connection points: 2
#     Edge 67, Type (0, 1), BuildingBlock: ZUJKAS_clean_linker_0, # of connection points: 2
#     Edge 68, Type (0, 1), BuildingBlock: ZUJKAS_clean_linker_0, # of connection points: 2
#     Edge 69, Type (0, 1), BuildingBlock: ZUJKAS_clean_linker_0, # of connection points: 2
#     Edge 70, Type (0, 1), BuildingBlock: ZUJKAS_clean_linker_0, # of connection points: 2
#     Edge 71, Type (0, 1), BuildingBlock: ZUJKAS_clean_linker_0, # of connection points: 2
#     Edge 72, Type (0, 1), BuildingBlock: ZUJKAS_clean_linker_0, # of connection points: 2
#     Edge 73, Type (0, 1), BuildingBlock: ZUJKAS_clean_linker_0, # of connection points: 2
#     Edge 74, Type (0, 1), BuildingBlock: ZUJKAS_clean_linker_0, # of connection points: 2
#     Edge 75, Type (0, 1), BuildingBlock: ZUJKAS_clean_linker_0, # of connection points: 2
#     Edge 76, Type (0, 1), BuildingBlock: ZUJKAS_clean_linker_0, # of connection points: 2
#     Edge 77, Type (0, 1), BuildingBlock: ZUJKAS_clean_linker_0, # of connection points: 2
#     Edge 78, Type (0, 1), BuildingBlock: ZUJKAS_clean_linker_0, # of connection points: 2
#     Edge 79, Type (0, 1), BuildingBlock: ZUJKAS_clean_linker_0, # of connection points: 2
#     Edge 80, Type (0, 1), BuildingBlock: ZUJKAS_clean_linker_0, # of connection points: 2
#     Edge 81, Type (0, 1), BuildingBlock: ZUJKAS_clean_linker_0, # of connection points: 2
#     Edge 82, Type (0, 1), BuildingBlock: ZUJKAS_clean_linker_0, # of connection points: 2
#     Edge 83, Type (0, 1), BuildingBlock: ZUJKAS_clean_linker_0, # of connection points: 2
#     Edge 84, Type (0, 1), BuildingBlock: ZUJKAS_clean_linker_0, # of connection points: 2
#     Edge 85, Type (0, 1), BuildingBlock: ZUJKAS_clean_linker_0, # of connection points: 2
#     Edge 86, Type (0, 1), BuildingBlock: ZUJKAS_clean_linker_0, # of connection points: 2
#     Edge 87, Type (0, 1), BuildingBlock: ZUJKAS_clean_linker_0, # of connection points: 2
#     Edge 88, Type (0, 1), BuildingBlock: ZUJKAS_clean_linker_0, # of connection points: 2
#     Edge 89, Type (0, 1), BuildingBlock: ZUJKAS_clean_linker_0, # of connection points: 2
#     Edge 90, Type (0, 1), BuildingBlock: ZUJKAS_clean_linker_0, # of connection points: 2
#     Edge 91, Type (0, 1), BuildingBlock: ZUJKAS_clean_linker_0, # of connection points: 2
#     Edge 92, Type (0, 1), BuildingBlock: ZUJKAS_clean_linker_0, # of connection points: 2
#     Edge 93, Type (0, 1), BuildingBlock: ZUJKAS_clean_linker_0, # of connection points: 2
#     Edge 94, Type (0, 1), BuildingBlock: ZUJKAS_clean_linker_0, # of connection points: 2
#     Edge 95, Type (0, 1), BuildingBlock: ZUJKAS_clean_linker_0, # of connection points: 2
#     Edge 96, Type (0, 1), BuildingBlock: ZUJKAS_clean_linker_0, # of connection points: 2
#     Edge 97, Type (0, 1), BuildingBlock: ZUJKAS_clean_linker_0, # of connection points: 2
#     Edge 98, Type (0, 1), BuildingBlock: ZUJKAS_clean_linker_0, # of connection points: 2
#     Edge 99, Type (0, 1), BuildingBlock: ZUJKAS_clean_linker_0, # of connection points: 2
#     Edge 100, Type (0, 1), BuildingBlock: ZUJKAS_clean_linker_0, # of connection points: 2
#     Edge 101, Type (0, 1), BuildingBlock: ZUJKAS_clean_linker_0, # of connection points: 2
#     Edge 102, Type (0, 1), BuildingBlock: ZUJKAS_clean_linker_0, # of connection points: 2
#     Edge 103, Type (0, 1), BuildingBlock: ZUJKAS_clean_linker_0, # of connection points: 2
#     Edge 104, Type (0, 1), BuildingBlock: ZUJKAS_clean_linker_0, # of connection points: 2
#     Edge 105, Type (0, 1), BuildingBlock: ZUJKAS_clean_linker_0, # of connection points: 2
#     Edge 106, Type (0, 1), BuildingBlock: ZUJKAS_clean_linker_0, # of connection points: 2
#     Edge 107, Type (0, 1), BuildingBlock: ZUJKAS_clean_linker_0, # of connection points: 2
#     Edge 108, Type (0, 1), BuildingBlock: ZUJKAS_clean_linker_0, # of connection points: 2
#     Edge 109, Type (0, 1), BuildingBlock: ZUJKAS_clean_linker_0, # of connection points: 2
#     Edge 110, Type (0, 1), BuildingBlock: ZUJKAS_clean_linker_0, # of connection points: 2
#     Edge 111, Type (0, 1), BuildingBlock: ZUJKAS_clean_linker_0, # of connection points: 2
#     Edge 112, Type (0, 1), BuildingBlock: ZUJKAS_clean_linker_0, # of connection points: 2
#     Edge 113, Type (0, 1), BuildingBlock: ZUJKAS_clean_linker_0, # of connection points: 2
#     Edge 114, Type (0, 1), BuildingBlock: ZUJKAS_clean_linker_0, # of connection points: 2
#     Edge 115, Type (0, 1), BuildingBlock: ZUJKAS_clean_linker_0, # of connection points: 2
#     Edge 116, Type (0, 1), BuildingBlock: ZUJKAS_clean_linker_0, # of connection points: 2
#     Edge 117, Type (0, 1), BuildingBlock: ZUJKAS_clean_linker_0, # of connection points: 2
#     Edge 118, Type (0, 1), BuildingBlock: ZUJKAS_clean_linker_0, # of connection points: 2
#     Edge 119, Type (0, 1), BuildingBlock: ZUJKAS_clean_linker_0, # of connection points: 2
#     Edge 120, Type (0, 1), BuildingBlock: ZUJKAS_clean_linker_0, # of connection points: 2
#     Edge 121, Type (0, 1), BuildingBlock: ZUJKAS_clean_linker_0, # of connection points: 2
#     Edge 122, Type (0, 1), BuildingBlock: ZUJKAS_clean_linker_0, # of connection points: 2
#     Edge 123, Type (0, 1), BuildingBlock: ZUJKAS_clean_linker_0, # of connection points: 2
#     Edge 124, Type (0, 1), BuildingBlock: ZUJKAS_clean_linker_0, # of connection points: 2
#     Edge 125, Type (0, 1), BuildingBlock: ZUJKAS_clean_linker_0, # of connection points: 2
#     Edge 126, Type (0, 1), BuildingBlock: ZUJKAS_clean_linker_0, # of connection points: 2
#     Edge 127, Type (0, 1), BuildingBlock: ZUJKAS_clean_linker_0, # of connection points: 2
#     Edge 128, Type (0, 1), BuildingBlock: ZUJKAS_clean_linker_0, # of connection points: 2
#     Edge 129, Type (0, 1), BuildingBlock: ZUJKAS_clean_linker_0, # of connection points: 2
#     Edge 130, Type (0, 1), BuildingBlock: ZUJKAS_clean_linker_0, # of connection points: 2
#     Edge 131, Type (0, 1), BuildingBlock: ZUJKAS_clean_linker_0, # of connection points: 2
#     Edge 132, Type (0, 1), BuildingBlock: ZUJKAS_clean_linker_0, # of connection points: 2
#     Edge 133, Type (0, 1), BuildingBlock: ZUJKAS_clean_linker_0, # of connection points: 2
#     Edge 134, Type (0, 1), BuildingBlock: ZUJKAS_clean_linker_0, # of connection points: 2
#     Edge 135, Type (0, 1), BuildingBlock: ZUJKAS_clean_linker_0, # of connection points: 2
#     Edge 136, Type (0, 1), BuildingBlock: ZUJKAS_clean_linker_0, # of connection points: 2
#     Edge 137, Type (0, 1), BuildingBlock: ZUJKAS_clean_linker_0, # of connection points: 2
#     Edge 138, Type (0, 1), BuildingBlock: ZUJKAS_clean_linker_0, # of connection points: 2
#     Edge 139, Type (0, 1), BuildingBlock: ZUJKAS_clean_linker_0, # of connection points: 2
#     Edge 140, Type (0, 1), BuildingBlock: ZUJKAS_clean_linker_0, # of connection points: 2
#     Edge 141, Type (0, 1), BuildingBlock: ZUJKAS_clean_linker_0, # of connection points: 2
#     Edge 142, Type (0, 1), BuildingBlock: ZUJKAS_clean_linker_0, # of connection points: 2
#     Edge 143, Type (0, 1), BuildingBlock: ZUJKAS_clean_linker_0, # of connection points: 2
#     Edge 144, Type (0, 1), BuildingBlock: ZUJKAS_clean_linker_0, # of connection points: 2
#     Edge 145, Type (0, 1), BuildingBlock: ZUJKAS_clean_linker_0, # of connection points: 2
#     Edge 146, Type (0, 1), BuildingBlock: ZUJKAS_clean_linker_0, # of connection points: 2
#     Edge 147, Type (0, 1), BuildingBlock: ZUJKAS_clean_linker_0, # of connection points: 2
#     Edge 148, Type (0, 1), BuildingBlock: ZUJKAS_clean_linker_0, # of connection points: 2
#     Edge 149, Type (0, 1), BuildingBlock: ZUJKAS_clean_linker_0, # of connection points: 2
#     Edge 150, Type (0, 1), BuildingBlock: ZUJKAS_clean_linker_0, # of connection points: 2
#     Edge 151, Type (0, 1), BuildingBlock: ZUJKAS_clean_linker_0, # of connection points: 2
# Relax obj value: 0.001
# Max RMSD: 0.113
# Mean RMSD: 0.046
data_MOF--net-tbo--node1-WUSLED_clean_sbu_0--node2-ESEHIV_clean_sbu_0--edge1-ZUJKAS_clean_linker_0
_symmetry_space_group_name_H-M    P1
_symmetry_Int_Tables_number       1
_symmetry_cell_setting            triclinic
loop_
_symmetry_equiv_pos_as_xyz
'x, y, z'
_cell_length_a     117.82657
_cell_length_b     118.11468
_cell_length_c     117.85327
_cell_angle_alpha  89.652811
_cell_angle_beta   91.775404
_cell_angle_gamma 91.159261
loop_
_atom_site_label
_atom_site_type_symbol
_atom_site_fract_x
_atom_site_fract_y
_atom_site_fract_z
_atom_type_partial_charge
C0 C 0.19368 0.14548 0.20637 0.0
C1 C 0.20436 0.14586 0.21208 0.0
C2 C 0.20553 0.12522 0.21149 0.0
C3 C 0.21022 0.13587 0.21457 0.0
C4 C 0.19495 0.12489 0.20559 0.0
C5 C 0.1891 0.13487 0.20312 0.0
U6 U 0.18577 0.17358 0.19099 0.0
O7 O 0.16886 0.18028 0.18662 0.0
O8 O 0.18045 0.18975 0.19816 0.0
C9 C 0.17029 0.18913 0.19326 0.0
C10 C 0.18683 0.15587 0.20464 0.0
C11 C 0.16064 0.192 0.20034 0.0
C12 C 0.14812 0.18837 0.2161 0.0
C13 C 0.15734 0.18525 0.20957 0.0
C14 C 0.14544 0.20495 0.20423 0.0
C15 C 0.14208 0.19831 0.21354 0.0
C16 C 0.1546 0.20183 0.19773 0.0
C17 C 0.20348 0.18339 0.16534 0.0
C18 C 0.1999 0.19987 0.1533 0.0
C19 C 0.21627 0.18835 0.15019 0.0
C20 C 0.21319 0.18127 0.15919 0.0
C21 C 0.20969 0.19777 0.14711 0.0
C22 C 0.19683 0.19275 0.16235 0.0
C23 C 0.20052 0.17564 0.17471 0.0
O24 O 0.19184 0.16567 0.20698 0.0
O25 O 0.1802 0.15624 0.19547 0.0
O26 O 0.19082 0.17002 0.17355 0.0
O27 O 0.20245 0.17947 0.18505 0.0
H28 H 0.20812 0.15385 0.21486 0.0
H29 H 0.21826 0.13649 0.21924 0.0
H30 H 0.19112 0.1169 0.20291 0.0
H31 H 0.18085 0.13423 0.19882 0.0
H32 H 0.14585 0.18309 0.22325 0.0
H33 H 0.1619 0.17763 0.21173 0.0
H34 H 0.1409 0.21252 0.20183 0.0
H35 H 0.15697 0.20713 0.19061 0.0
H36 H 0.19469 0.20709 0.15125 0.0
H37 H 0.22373 0.18632 0.14554 0.0
H38 H 0.2184 0.17406 0.16133 0.0
H39 H 0.18929 0.19454 0.16701 0.0
C40 C 0.83662 0.19467 0.15848 0.0
C41 C 0.84412 0.20277 0.15394 0.0
C42 C 0.83019 0.20715 0.13879 0.0
C43 C 0.84092 0.20897 0.14418 0.0
C44 C 0.82271 0.1991 0.14351 0.0
C45 C 0.8259 0.19294 0.15323 0.0
U46 U 0.85536 0.18676 0.18495 0.0
O47 O 0.84971 0.18053 0.20157 0.0
O48 O 0.85996 0.16974 0.19103 0.0
C49 C 0.85402 0.17046 0.20025 0.0
C50 C 0.83972 0.18774 0.16854 0.0
C51 C 0.84646 0.16067 0.20279 0.0
C52 C 0.83175 0.14679 0.19727 0.0
C53 C 0.83864 0.15623 0.19466 0.0
C54 C 0.84031 0.1462 0.21619 0.0
C55 C 0.83249 0.14162 0.20809 0.0
C56 C 0.8472 0.15559 0.21356 0.0
C57 C 0.88234 0.20538 0.19298 0.0
C58 C 0.89219 0.21932 0.20518 0.0
C59 C 0.90268 0.20397 0.19737 0.0
C60 C 0.8927 0.19979 0.19194 0.0
C61 C 0.9026 0.21389 0.20395 0.0
C62 C 0.88222 0.21514 0.19974 0.0
C63 C 0.87202 0.202 0.18607 0.0
O64 O 0.84899 0.18179 0.16791 0.0
O65 O 0.8387 0.19255 0.17847 0.0
O66 O 0.86211 0.2034 0.19065 0.0
O67 O 0.87241 0.19265 0.1801 0.0
H68 H 0.85244 0.20423 0.15788 0.0
H69 H 0.84694 0.21504 0.14075 0.0
H70 H 0.81432 0.1976 0.13976 0.0
H71 H 0.81998 0.18676 0.15663 0.0
H72 H 0.82575 0.1436 0.19086 0.0
H73 H 0.8379 0.16005 0.18629 0.0
H74 H 0.84127 0.14239 0.22454 0.0
H75 H 0.85319 0.15886 0.21995 0.0
H76 H 0.89172 0.22687 0.21029 0.0
H77 H 0.91053 0.19962 0.19609 0.0
H78 H 0.8932 0.19235 0.18666 0.0
H79 H 0.87444 0.21975 0.20061 0.0
C80 C 0.83081 0.85191 0.15158 0.0
C81 C 0.82721 0.84046 0.15193 0.0
C82 C 0.82542 0.83982 0.13118 0.0
C83 C 0.82457 0.83451 0.14188 0.0
C84 C 0.82921 0.85121 0.13088 0.0
C85 C 0.83182 0.85716 0.14091 0.0
U86 U 0.84723 0.85955 0.17964 0.0
O87 O 0.85164 0.87625 0.18694 0.0
O88 O 0.84084 0.86434 0.19633 0.0
C89 C 0.84558 0.8745 0.196 0.0
C90 C 0.8328 0.85871 0.16211 0.0
C91 C 0.83887 0.88406 0.20019 0.0
C92 C 0.83003 0.90248 0.19779 0.0
C93 C 0.83532 0.89306 0.19316 0.0
C94 C 0.8316 0.89396 0.21646 0.0
C95 C 0.82818 0.90312 0.20954 0.0
C96 C 0.83685 0.88459 0.21184 0.0
C97 C 0.87339 0.84136 0.18811 0.0
C98 C 0.88687 0.84455 0.20392 0.0
C99 C 0.88803 0.82765 0.19254 0.0
C100 C 0.87872 0.83116 0.18586 0.0
C101 C 0.89225 0.83427 0.20169 0.0
C102 C 0.8775 0.84806 0.19721 0.0
C103 C 0.86366 0.84474 0.18073 0.0
O104 O 0.83094 0.85364 0.17187 0.0
O105 O 0.84189 0.86536 0.16248 0.0
O106 O 0.86456 0.85459 0.17557 0.0
O107 O 0.85351 0.84275 0.1847 0.0
H108 H 0.82624 0.83613 0.15998 0.0
H109 H 0.82156 0.82581 0.14252 0.0
H110 H 0.83018 0.85557 0.12285 0.0
H111 H 0.83449 0.86597 0.14033 0.0
H112 H 0.8274 0.90927 0.19214 0.0
H113 H 0.8368 0.89292 0.18413 0.0
H114 H 0.83056 0.89415 0.22555 0.0
H115 H 0.83962 0.87784 0.21747 0.0
H116 H 0.88981 0.84983 0.21094 0.0
H117 H 0.89204 0.81981 0.1904 0.0
H118 H 0.87571 0.82589 0.17885 0.0
H119 H 0.87348 0.85596 0.1991 0.0
C120 C 0.14973 0.81755 0.17937 0.0
C121 C 0.14657 0.82202 0.1898 0.0
C122 C 0.12987 0.80934 0.19 0.0
C123 C 0.13674 0.81796 0.19506 0.0
C124 C 0.1331 0.80496 0.17952 0.0
C125 C 0.14291 0.80901 0.17428 0.0
U126 U 0.17516 0.83826 0.17599 0.0
O127 O 0.19285 0.83481 0.17169 0.0
O128 O 0.18236 0.84548 0.16045 0.0
C129 C 0.19218 0.84055 0.16211 0.0
C130 C 0.16006 0.8216 0.17365 0.0
C131 C 0.19724 0.83537 0.1521 0.0
C132 C 0.1964 0.82301 0.13558 0.0
C133 C 0.19137 0.82733 0.14528 0.0
C134 C 0.2132 0.83462 0.1395 0.0
C135 C 0.20735 0.82669 0.13249 0.0
C136 C 0.2082 0.83889 0.14916 0.0
C137 C 0.17868 0.8631 0.19743 0.0
C138 C 0.19389 0.87741 0.19811 0.0
C139 C 0.1787 0.87815 0.21143 0.0
C140 C 0.17369 0.86843 0.20656 0.0
C141 C 0.18885 0.88282 0.20727 0.0
C142 C 0.18883 0.86764 0.19321 0.0
C143 C 0.17306 0.85286 0.19258 0.0
O144 O 0.15926 0.83132 0.16822 0.0
O145 O 0.16969 0.82067 0.17948 0.0
O146 O 0.17858 0.84335 0.19375 0.0
O147 O 0.16811 0.85401 0.1825 0.0
H148 H 0.15172 0.82862 0.19388 0.0
H149 H 0.13463 0.82147 0.20317 0.0
H150 H 0.12797 0.79848 0.17525 0.0
H151 H 0.14516 0.80548 0.16621 0.0
H152 H 0.19161 0.81697 0.13036 0.0
H153 H 0.18288 0.82451 0.14739 0.0
H154 H 0.22171 0.8375 0.13757 0.0
H155 H 0.2129 0.84505 0.15432 0.0
H156 H 0.20165 0.8808 0.19462 0.0
H157 H 0.17467 0.88192 0.21859 0.0
H158 H 0.16589 0.86503 0.20998 0.0
H159 H 0.19282 0.86365 0.18615 0.0
C160 C 0.16001 0.83537 0.84067 0.0
C161 C 0.1584 0.84107 0.83026 0.0
C162 C 0.14039 0.83078 0.82675 0.0
C163 C 0.14869 0.83878 0.82335 0.0
C164 C 0.14213 0.82511 0.83719 0.0
C165 C 0.1518 0.82739 0.84404 0.0
U166 U 0.18705 0.85211 0.85126 0.0
O167 O 0.19282 0.85541 0.86892 0.0
O168 O 0.20327 0.84535 0.85786 0.0
C169 C 0.20195 0.8493 0.86813 0.0
C170 C 0.17012 0.83742 0.84818 0.0
C171 C 0.20447 0.84151 0.87772 0.0
C172 C 0.20167 0.8238 0.88811 0.0
C173 C 0.19899 0.83091 0.87883 0.0
C174 C 0.2153 0.83783 0.89524 0.0
C175 C 0.20983 0.82721 0.89649 0.0
C176 C 0.21264 0.84488 0.88599 0.0
C177 C 0.19619 0.88012 0.83604 0.0
C178 C 0.21466 0.88956 0.83412 0.0
C179 C 0.19746 0.90005 0.83067 0.0
C180 C 0.19096 0.89035 0.83315 0.0
C181 C 0.20941 0.89979 0.83096 0.0
C182 C 0.20812 0.87983 0.83662 0.0
C183 C 0.18893 0.86986 0.83774 0.0
O184 O 0.18009 0.83636 0.84362 0.0
O185 O 0.16972 0.84612 0.85504 0.0
O186 O 0.18269 0.86971 0.84679 0.0
O187 O 0.19337 0.85999 0.83563 0.0
H188 H 0.16463 0.84729 0.8275 0.0
H189 H 0.14761 0.84338 0.81543 0.0
H190 H 0.13608 0.81877 0.84002 0.0
H191 H 0.1529 0.82285 0.852 0.0
H192 H 0.19722 0.81573 0.88883 0.0
H193 H 0.19263 0.82815 0.87254 0.0
H194 H 0.22176 0.84069 0.90136 0.0
H195 H 0.21701 0.853 0.88528 0.0
H196 H 0.22382 0.88899 0.83437 0.0
H197 H 0.19309 0.90778 0.8285 0.0
H198 H 0.18178 0.8908 0.83265 0.0
H199 H 0.2124 0.87205 0.83882 0.0
C200 C 0.16801 0.19285 0.84238 0.0
C201 C 0.16651 0.20313 0.84803 0.0
C202 C 0.14934 0.20674 0.8364 0.0
C203 C 0.15725 0.21 0.84508 0.0
C204 C 0.15088 0.19635 0.83091 0.0
C205 C 0.16009 0.18952 0.83387 0.0
U206 U 0.19436 0.18257 0.86016 0.0
O207 O 0.19946 0.16498 0.86345 0.0
O208 O 0.21055 0.17642 0.85388 0.0
C209 C 0.20882 0.16608 0.85772 0.0
C210 C 0.17779 0.18549 0.84494 0.0
C211 C 0.21144 0.15671 0.84999 0.0
C212 C 0.20664 0.14384 0.83436 0.0
C213 C 0.20382 0.15293 0.84135 0.0
C214 C 0.22468 0.14229 0.84458 0.0
C215 C 0.21715 0.13841 0.83586 0.0
C216 C 0.22186 0.15131 0.85151 0.0
C217 C 0.20403 0.19778 0.88834 0.0
C218 C 0.22039 0.20696 0.89801 0.0
C219 C 0.20631 0.19706 0.90901 0.0
C220 C 0.2002 0.19423 0.899 0.0
C221 C 0.21641 0.20363 0.9087 0.0
C222 C 0.21427 0.20412 0.88798 0.0
C223 C 0.19667 0.19597 0.87794 0.0
O224 O 0.18796 0.19016 0.84414 0.0
O225 O 0.17694 0.17868 0.85374 0.0
O226 O 0.19006 0.18686 0.87768 0.0
O227 O 0.20111 0.19829 0.86806 0.0
H228 H 0.17253 0.20587 0.85463 0.0
H229 H 0.1564 0.21796 0.84945 0.0
H230 H 0.1449 0.19343 0.82436 0.0
H231 H 0.16105 0.1816 0.82943 0.0
H232 H 0.20065 0.14116 0.82771 0.0
H233 H 0.19571 0.15698 0.84002 0.0
H234 H 0.23273 0.13823 0.8462 0.0
H235 H 0.22783 0.15404 0.85817 0.0
H236 H 0.22804 0.21213 0.89739 0.0
H237 H 0.20303 0.19419 0.91704 0.0
H238 H 0.19229 0.18947 0.89965 0.0
H239 H 0.21742 0.20718 0.87996 0.0
C240 C 0.84254 0.16337 0.84436 0.0
C241 C 0.84611 0.15999 0.83366 0.0
C242 C 0.83316 0.14352 0.83407 0.0
C243 C 0.84144 0.15016 0.82854 0.0
C244 C 0.82969 0.14701 0.84481 0.0
C245 C 0.83434 0.15679 0.84987 0.0
U246 U 0.86308 0.18946 0.84886 0.0
O247 O 0.85845 0.20663 0.8541 0.0
O248 O 0.8696 0.19644 0.86512 0.0
C249 C 0.86355 0.20566 0.86413 0.0
C250 C 0.84692 0.17379 0.84998 0.0
C251 C 0.85691 0.20892 0.87412 0.0
C252 C 0.85198 0.20654 0.89399 0.0
C253 C 0.8577 0.2029 0.88446 0.0
C254 C 0.84439 0.22222 0.88309 0.0
C255 C 0.84531 0.2163 0.89347 0.0
C256 C 0.85016 0.21861 0.87357 0.0
C257 C 0.88838 0.19492 0.82886 0.0
C258 C 0.90319 0.20955 0.83082 0.0
C259 C 0.90292 0.19693 0.81471 0.0
C260 C 0.8932 0.19145 0.81876 0.0
C261 C 0.90809 0.20607 0.82066 0.0
C262 C 0.89342 0.20404 0.83487 0.0
C263 C 0.87824 0.18871 0.83291 0.0
O264 O 0.85674 0.17311 0.8555 0.0
O265 O 0.84579 0.18331 0.84426 0.0
O266 O 0.86846 0.19379 0.83158 0.0
O267 O 0.87938 0.18349 0.84275 0.0
H268 H 0.85244 0.16497 0.82926 0.0
H269 H 0.84438 0.1477 0.82032 0.0
H270 H 0.82321 0.14229 0.84925 0.0
H271 H 0.83143 0.15929 0.8581 0.0
H272 H 0.85278 0.20169 0.90179 0.0
H273 H 0.86285 0.19543 0.88526 0.0
H274 H 0.83947 0.22985 0.88239 0.0
H275 H 0.84949 0.22353 0.8658 0.0
H276 H 0.90684 0.21661 0.83559 0.0
H277 H 0.90651 0.19385 0.80699 0.0
H278 H 0.88948 0.1844 0.81401 0.0
H279 H 0.88982 0.20686 0.84269 0.0
C280 C 0.85092 0.88659 0.82066 0.0
C281 C 0.85012 0.89645 0.82721 0.0
C282 C 0.84019 0.90615 0.81153 0.0
C283 C 0.84483 0.90609 0.8227 0.0
C284 C 0.84084 0.89619 0.80509 0.0
C285 C 0.84616 0.88657 0.80958 0.0
U286 U 0.8569 0.86148 0.84134 0.0
O287 O 0.8625 0.84428 0.83753 0.0
O288 O 0.87332 0.85542 0.84827 0.0
C289 C 0.87229 0.84563 0.84307 0.0
C290 C 0.85734 0.87659 0.82482 0.0
C291 C 0.88253 0.84145 0.83757 0.0
C292 C 0.89315 0.83668 0.82087 0.0
C293 C 0.88366 0.84153 0.82573 0.0
C294 C 0.90058 0.83185 0.83961 0.0
C295 C 0.90167 0.83163 0.82776 0.0
C296 C 0.89113 0.83669 0.84444 0.0
C297 C 0.83718 0.85629 0.86695 0.0
C298 C 0.83398 0.85675 0.88731 0.0
C299 C 0.82654 0.84102 0.87615 0.0
C300 C 0.83117 0.84587 0.86639 0.0
C301 C 0.82773 0.84647 0.88673 0.0
C302 C 0.83859 0.8616 0.87756 0.0
C303 C 0.84098 0.86227 0.85652 0.0
O304 O 0.86323 0.87768 0.83443 0.0
O305 O 0.85218 0.86665 0.82381 0.0
O306 O 0.83969 0.85689 0.84681 0.0
O307 O 0.85059 0.86812 0.85737 0.0
H308 H 0.85376 0.89682 0.83575 0.0
H309 H 0.84465 0.91361 0.8279 0.0
H310 H 0.83722 0.8958 0.79653 0.0
H311 H 0.84669 0.87913 0.80431 0.0
H312 H 0.89366 0.83662 0.81172 0.0
H313 H 0.87713 0.84515 0.82024 0.0
H314 H 0.90704 0.82826 0.84521 0.0
H315 H 0.89046 0.83654 0.85359 0.0
H316 H 0.83525 0.86113 0.89531 0.0
H317 H 0.82167 0.83317 0.87532 0.0
H318 H 0.82977 0.84158 0.85835 0.0
H319 H 0.84307 0.86968 0.87829 0.0
C320 C 0.19509 0.66057 0.69621 0.0
C321 C 0.19781 0.65143 0.68926 0.0
C322 C 0.20468 0.64072 0.70584 0.0
C323 C 0.20258 0.64162 0.69403 0.0
C324 C 0.20223 0.65004 0.71268 0.0
C325 C 0.19749 0.65981 0.70792 0.0
U326 U 0.18916 0.68617 0.67572 0.0
O327 O 0.17254 0.69245 0.66973 0.0
O328 O 0.18367 0.70318 0.68056 0.0
C329 C 0.17359 0.70186 0.67561 0.0
C330 C 0.18892 0.67059 0.6918 0.0
C331 C 0.16381 0.70484 0.68253 0.0
C332 C 0.14877 0.69978 0.6955 0.0
C333 C 0.15817 0.69674 0.68921 0.0
C334 C 0.15066 0.71906 0.68866 0.0
C335 C 0.14484 0.71098 0.69527 0.0
C336 C 0.16001 0.71601 0.68237 0.0
C337 C 0.20912 0.69252 0.65037 0.0
C338 C 0.20607 0.70228 0.63224 0.0
C339 C 0.2252 0.69871 0.6392 0.0
C340 C 0.22086 0.69349 0.64889 0.0
C341 C 0.21788 0.70314 0.63067 0.0
C342 C 0.20173 0.69704 0.64199 0.0
C343 C 0.20499 0.68616 0.66039 0.0
O344 O 0.19411 0.68048 0.693 0.0
O345 O 0.18325 0.66956 0.68205 0.0
O346 O 0.19526 0.68058 0.65922 0.0
O347 O 0.20633 0.69114 0.6703 0.0
H348 H 0.19602 0.65176 0.6802 0.0
H349 H 0.20429 0.6346 0.68851 0.0
H350 H 0.20392 0.64977 0.72176 0.0
H351 H 0.19545 0.66671 0.71347 0.0
H352 H 0.14448 0.69329 0.70038 0.0
H353 H 0.16097 0.68806 0.6895 0.0
H354 H 0.14807 0.7278 0.68841 0.0
H355 H 0.16428 0.72241 0.67733 0.0
H356 H 0.20016 0.70569 0.62595 0.0
H357 H 0.23431 0.69901 0.63827 0.0
H358 H 0.22674 0.68999 0.65518 0.0
H359 H 0.19262 0.69641 0.6429 0.0
C360 C 0.83805 0.70016 0.64861 0.0
C361 C 0.84414 0.70116 0.63856 0.0
C362 C 0.82767 0.70922 0.62853 0.0
C363 C 0.83901 0.70564 0.62865 0.0
C364 C 0.82171 0.70843 0.63869 0.0
C365 C 0.82682 0.70393 0.64857 0.0
U366 U 0.85974 0.69584 0.67393 0.0
O367 O 0.85633 0.69038 0.69142 0.0
O368 O 0.86663 0.67984 0.68066 0.0
C369 C 0.86146 0.68068 0.69035 0.0
C370 C 0.84277 0.69433 0.65889 0.0
C371 C 0.85553 0.67029 0.69456 0.0
C372 C 0.85596 0.65003 0.69867 0.0
C373 C 0.86077 0.65975 0.69377 0.0
C374 C 0.84042 0.66109 0.7052 0.0
C375 C 0.8458 0.65057 0.70461 0.0
C376 C 0.84524 0.67083 0.70027 0.0
C377 C 0.88533 0.71668 0.67847 0.0
C378 C 0.90008 0.71523 0.69334 0.0
C379 C 0.9005 0.73094 0.68006 0.0
C380 C 0.8906 0.72668 0.67463 0.0
C381 C 0.9054 0.7253 0.68951 0.0
C382 C 0.89013 0.71097 0.68787 0.0
C383 C 0.87491 0.71245 0.67246 0.0
O384 O 0.85239 0.68902 0.65793 0.0
O385 O 0.84209 0.69966 0.6686 0.0
O386 O 0.8654 0.71331 0.6779 0.0
O387 O 0.87568 0.70276 0.66714 0.0
H388 H 0.85278 0.69826 0.63825 0.0
H389 H 0.84386 0.70598 0.621 0.0
H390 H 0.81304 0.71126 0.63902 0.0
H391 H 0.82189 0.7032 0.65616 0.0
H392 H 0.86027 0.64207 0.69787 0.0
H393 H 0.86876 0.65906 0.68953 0.0
H394 H 0.83267 0.66189 0.70981 0.0
H395 H 0.84101 0.67881 0.70118 0.0
H396 H 0.90351 0.71071 0.70064 0.0
H397 H 0.90441 0.73858 0.67673 0.0
H398 H 0.88706 0.73119 0.66735 0.0
H399 H 0.88618 0.70325 0.69099 0.0
C400 C 0.83773 0.35366 0.66207 0.0
C401 C 0.84628 0.34799 0.65644 0.0
C402 C 0.83215 0.33962 0.64314 0.0
C403 C 0.84351 0.34104 0.64708 0.0
C404 C 0.82364 0.34516 0.64898 0.0
C405 C 0.82641 0.35209 0.6583 0.0
U406 U 0.85498 0.3641 0.68875 0.0
O407 O 0.85999 0.38156 0.69362 0.0
O408 O 0.84864 0.37157 0.70436 0.0
C409 C 0.85366 0.38144 0.7026 0.0
C410 C 0.84033 0.36157 0.67156 0.0
C411 C 0.84687 0.39164 0.7045 0.0
C412 C 0.82941 0.40236 0.70265 0.0
C413 C 0.83565 0.39267 0.70026 0.0
C414 C 0.84554 0.4101 0.71343 0.0
C415 C 0.83427 0.41123 0.70928 0.0
C416 C 0.85173 0.40045 0.71106 0.0
C417 C 0.88077 0.34628 0.69973 0.0
C418 C 0.89805 0.35151 0.71057 0.0
C419 C 0.8926 0.33176 0.70848 0.0
C420 C 0.88294 0.33486 0.70209 0.0
C421 C 0.9004 0.34001 0.71269 0.0
C422 C 0.88835 0.35462 0.70413 0.0
C423 C 0.87098 0.34905 0.69205 0.0
O424 O 0.83846 0.3577 0.68183 0.0
O425 O 0.84976 0.36767 0.67101 0.0
O426 O 0.87208 0.35798 0.68544 0.0
O427 O 0.86082 0.34798 0.69627 0.0
H428 H 0.85509 0.34904 0.65918 0.0
H429 H 0.85032 0.337 0.64277 0.0
H430 H 0.81478 0.34413 0.64638 0.0
H431 H 0.81966 0.35634 0.66252 0.0
H432 H 0.82081 0.40296 0.69921 0.0
H433 H 0.83172 0.38598 0.69517 0.0
H434 H 0.84954 0.41658 0.71872 0.0
H435 H 0.86034 0.39981 0.71448 0.0
H436 H 0.90388 0.3581 0.7136 0.0
H437 H 0.89397 0.32285 0.7101 0.0
H438 H 0.87722 0.32828 0.69879 0.0
H439 H 0.88689 0.3635 0.70242 0.0
C440 C 0.16126 0.33543 0.69563 0.0
C441 C 0.15551 0.34232 0.70313 0.0
C442 C 0.14186 0.32688 0.70681 0.0
C443 C 0.14589 0.33809 0.70867 0.0
C444 C 0.14776 0.32007 0.69932 0.0
C445 C 0.15733 0.32429 0.69383 0.0
U446 U 0.18687 0.35561 0.68772 0.0
O447 O 0.20341 0.35025 0.68162 0.0
O448 O 0.19208 0.36007 0.67044 0.0
C449 C 0.20143 0.35419 0.6713 0.0
C450 C 0.1711 0.33954 0.68917 0.0
C451 C 0.20385 0.34649 0.66174 0.0
C452 C 0.21596 0.33241 0.65344 0.0
C453 C 0.21305 0.33911 0.66264 0.0
C454 C 0.20052 0.34028 0.64216 0.0
C455 C 0.2098 0.33297 0.64302 0.0
C456 C 0.1976 0.34697 0.65137 0.0
C457 C 0.1954 0.38291 0.70425 0.0
C458 C 0.21337 0.39349 0.70351 0.0
C459 C 0.19736 0.40172 0.71258 0.0
C460 C 0.19078 0.392 0.71004 0.0
C461 C 0.20877 0.40261 0.7094 0.0
C462 C 0.20674 0.38376 0.70094 0.0
C463 C 0.18827 0.37261 0.7021 0.0
O464 O 0.1698 0.34882 0.68309 0.0
O465 O 0.18117 0.33894 0.69422 0.0
O466 O 0.19313 0.36283 0.70397 0.0
O467 O 0.18179 0.37268 0.69282 0.0
H468 H 0.1584 0.35096 0.70463 0.0
H469 H 0.14166 0.34357 0.71446 0.0
H470 H 0.14486 0.31151 0.69746 0.0
H471 H 0.16159 0.31885 0.68802 0.0
H472 H 0.22306 0.32678 0.65451 0.0
H473 H 0.21813 0.33861 0.67044 0.0
H474 H 0.19568 0.34109 0.63425 0.0
H475 H 0.19056 0.35267 0.65028 0.0
H476 H 0.22207 0.39391 0.70081 0.0
H477 H 0.19355 0.40844 0.71726 0.0
H478 H 0.18207 0.39152 0.71272 0.0
H479 H 0.21049 0.37688 0.69642 0.0
C480 C 0.15875 0.32766 0.35072 0.0
C481 C 0.15571 0.33408 0.34106 0.0
C482 C 0.13893 0.32188 0.33754 0.0
C483 C 0.14591 0.3312 0.33452 0.0
C484 C 0.14215 0.31545 0.34718 0.0
C485 C 0.15192 0.31832 0.35368 0.0
U486 U 0.18566 0.34565 0.35841 0.0
O487 O 0.19197 0.35171 0.37516 0.0
O488 O 0.20227 0.34026 0.36534 0.0
C489 C 0.20122 0.34568 0.37496 0.0
C490 C 0.16888 0.33056 0.35794 0.0
C491 C 0.20469 0.33977 0.38565 0.0
C492 C 0.21261 0.32353 0.39584 0.0
C493 C 0.2081 0.32842 0.38583 0.0
C494 C 0.21017 0.34116 0.40574 0.0
C495 C 0.21382 0.32988 0.40592 0.0
C496 C 0.2057 0.34602 0.39574 0.0
C497 C 0.19426 0.37076 0.33923 0.0
C498 C 0.21071 0.38317 0.34289 0.0
C499 C 0.19852 0.38627 0.32629 0.0
C500 C 0.19167 0.37702 0.32939 0.0
C501 C 0.20816 0.38947 0.33297 0.0
C502 C 0.20382 0.37389 0.34599 0.0
C503 C 0.18684 0.36107 0.34225 0.0
O504 O 0.17879 0.32882 0.3535 0.0
O505 O 0.16856 0.34016 0.36348 0.0
O506 O 0.18091 0.36228 0.35142 0.0
O507 O 0.1913 0.35101 0.34152 0.0
H508 H 0.16087 0.34134 0.33863 0.0
H509 H 0.14368 0.3364 0.32722 0.0
H510 H 0.13715 0.30811 0.34968 0.0
H511 H 0.15413 0.31323 0.36107 0.0
H512 H 0.21518 0.31479 0.39568 0.0
H513 H 0.20751 0.32336 0.37819 0.0
H514 H 0.21112 0.34638 0.41324 0.0
H515 H 0.20332 0.35484 0.39583 0.0
H516 H 0.21811 0.38531 0.34818 0.0
H517 H 0.19616 0.39101 0.31871 0.0
H518 H 0.18429 0.37478 0.3241 0.0
H519 H 0.20597 0.36914 0.35362 0.0
C520 C 0.1576 0.68085 0.32619 0.0
C521 C 0.15741 0.6876 0.31632 0.0
C522 C 0.13859 0.6945 0.32055 0.0
C523 C 0.14807 0.69436 0.31357 0.0
C524 C 0.13883 0.6878 0.33049 0.0
C525 C 0.1482 0.68106 0.33327 0.0
U526 U 0.18449 0.67164 0.34324 0.0
O527 O 0.19009 0.65457 0.34827 0.0
O528 O 0.20055 0.66506 0.33711 0.0
C529 C 0.19902 0.65505 0.34184 0.0
C530 C 0.1673 0.6732 0.32854 0.0
C531 C 0.20126 0.64486 0.33487 0.0
C532 C 0.20964 0.63605 0.31845 0.0
C533 C 0.2064 0.64576 0.32426 0.0
C534 C 0.20253 0.62428 0.3336 0.0
C535 C 0.20792 0.62516 0.32311 0.0
C536 C 0.1993 0.63397 0.3394 0.0
C537 C 0.19347 0.69141 0.3691 0.0
C538 C 0.19996 0.68987 0.38893 0.0
C539 C 0.20212 0.70769 0.37892 0.0
C540 C 0.19727 0.70276 0.3691 0.0
C541 C 0.2033 0.7014 0.38905 0.0
C542 C 0.19503 0.68494 0.37907 0.0
C543 C 0.18662 0.68721 0.35913 0.0
O544 O 0.17749 0.67742 0.32667 0.0
O545 O 0.16698 0.66694 0.3378 0.0
O546 O 0.18063 0.67778 0.36028 0.0
O547 O 0.19107 0.68832 0.34908 0.0
H548 H 0.16447 0.68757 0.31065 0.0
H549 H 0.14831 0.69951 0.30594 0.0
H550 H 0.13166 0.68754 0.33601 0.0
H551 H 0.14797 0.6759 0.34088 0.0
H552 H 0.21387 0.63712 0.31047 0.0
H553 H 0.2082 0.65399 0.32055 0.0
H554 H 0.20088 0.61607 0.33741 0.0
H555 H 0.19549 0.63294 0.3476 0.0
H556 H 0.20068 0.68479 0.39658 0.0
H557 H 0.20477 0.71651 0.37863 0.0
H558 H 0.19609 0.70798 0.36158 0.0
H559 H 0.19212 0.6762 0.3794 0.0
C560 C 0.83192 0.65724 0.34175 0.0
C561 C 0.83551 0.65363 0.33114 0.0
C562 C 0.82257 0.63716 0.33185 0.0
C563 C 0.83088 0.64367 0.32624 0.0
C564 C 0.81911 0.64084 0.34252 0.0
C565 C 0.82373 0.65075 0.34739 0.0
U566 U 0.85283 0.68306 0.34516 0.0
O567 O 0.84885 0.70058 0.34972 0.0
O568 O 0.85985 0.69052 0.36103 0.0
C569 C 0.85453 0.70011 0.35948 0.0
C570 C 0.83638 0.66777 0.34714 0.0
C571 C 0.84888 0.70471 0.36944 0.0
C572 C 0.83513 0.70342 0.38446 0.0
C573 C 0.84011 0.6988 0.37487 0.0
C574 C 0.8476 0.71989 0.38319 0.0
C575 C 0.83887 0.71401 0.3888 0.0
C576 C 0.85253 0.71529 0.37365 0.0
C577 C 0.87787 0.68773 0.32473 0.0
C578 C 0.89777 0.69382 0.32667 0.0
C579 C 0.88743 0.69687 0.30891 0.0
C580 C 0.8777 0.69186 0.31351 0.0
C581 C 0.89766 0.69782 0.31537 0.0
C582 C 0.88802 0.68885 0.33128 0.0
C583 C 0.8677 0.68157 0.32901 0.0
O584 O 0.84626 0.66713 0.35257 0.0
O585 O 0.83531 0.67716 0.34118 0.0
O586 O 0.85788 0.68657 0.32758 0.0
O587 O 0.86878 0.6764 0.3389 0.0
H588 H 0.84182 0.65853 0.32663 0.0
H589 H 0.83369 0.64118 0.31797 0.0
H590 H 0.81291 0.63598 0.34721 0.0
H591 H 0.82087 0.65336 0.35561 0.0
H592 H 0.8285 0.69861 0.38858 0.0
H593 H 0.83717 0.69061 0.37175 0.0
H594 H 0.85057 0.72813 0.38611 0.0
H595 H 0.85925 0.72002 0.36956 0.0
H596 H 0.90549 0.69425 0.33189 0.0
H597 H 0.88691 0.69999 0.30025 0.0
H598 H 0.87005 0.69106 0.30822 0.0
H599 H 0.88851 0.68569 0.33993 0.0
C600 C 0.85089 0.37716 0.33744 0.0
C601 C 0.83907 0.37856 0.33742 0.0
C602 C 0.84101 0.39663 0.3273 0.0
C603 C 0.83418 0.38821 0.33241 0.0
C604 C 0.85286 0.39525 0.3276 0.0
C605 C 0.85771 0.38565 0.33259 0.0
U606 U 0.85456 0.35143 0.35806 0.0
O607 O 0.85972 0.33414 0.35402 0.0
O608 O 0.87055 0.34467 0.36535 0.0
C609 C 0.8694 0.33507 0.35982 0.0
C610 C 0.85639 0.3668 0.34189 0.0
C611 C 0.87965 0.33091 0.35432 0.0
C612 C 0.89063 0.32707 0.3376 0.0
C613 C 0.88114 0.33183 0.34256 0.0
C614 C 0.89734 0.32064 0.3561 0.0
C615 C 0.89879 0.32127 0.34429 0.0
C616 C 0.88789 0.32538 0.36102 0.0
C617 C 0.83386 0.34612 0.38276 0.0
C618 C 0.83586 0.33996 0.40253 0.0
C619 C 0.81799 0.33692 0.39225 0.0
C620 C 0.8226 0.34197 0.38258 0.0
C621 C 0.8245 0.33595 0.40242 0.0
C622 C 0.84048 0.34498 0.39283 0.0
C623 C 0.83814 0.35235 0.37269 0.0
O624 O 0.86172 0.36764 0.35182 0.0
O625 O 0.85072 0.35716 0.34058 0.0
O626 O 0.83699 0.3472 0.36284 0.0
O627 O 0.84787 0.35792 0.37394 0.0
H628 H 0.83361 0.37213 0.34111 0.0
H629 H 0.82503 0.38892 0.33229 0.0
H630 H 0.85842 0.40162 0.32397 0.0
H631 H 0.86685 0.38478 0.33253 0.0
H632 H 0.8914 0.32767 0.32848 0.0
H633 H 0.8749 0.33606 0.33719 0.0
H634 H 0.90352 0.31646 0.36158 0.0
H635 H 0.88695 0.32459 0.37011 0.0
H636 H 0.84112 0.33952 0.4102 0.0
H637 H 0.80929 0.33378 0.39173 0.0
H638 H 0.81727 0.34278 0.37497 0.0
H639 H 0.84917 0.34815 0.39332 0.0
C640 C 0.70141 0.15821 0.69464 0.0
C641 C 0.71208 0.1589 0.70034 0.0
C642 C 0.71357 0.13828 0.70035 0.0
C643 C 0.7181 0.14907 0.70312 0.0
C644 C 0.70302 0.13763 0.69441 0.0
C645 C 0.69702 0.14744 0.69165 0.0
U646 U 0.69177 0.18563 0.67872 0.0
O647 O 0.67442 0.19164 0.67537 0.0
O648 O 0.6864 0.20185 0.68585 0.0
C649 C 0.67592 0.20063 0.68181 0.0
C650 C 0.6943 0.16843 0.69286 0.0
C651 C 0.66672 0.20323 0.68963 0.0
C652 C 0.65074 0.19758 0.70123 0.0
C653 C 0.65994 0.19472 0.69457 0.0
C654 C 0.65514 0.21746 0.69832 0.0
C655 C 0.64812 0.20901 0.70307 0.0
C656 C 0.6643 0.2146 0.69168 0.0
C657 C 0.7074 0.19488 0.65137 0.0
C658 C 0.70493 0.21226 0.64038 0.0
C659 C 0.71709 0.19765 0.63361 0.0
C660 C 0.71469 0.19101 0.64314 0.0
C661 C 0.71223 0.20836 0.63204 0.0
C662 C 0.70251 0.20557 0.64995 0.0
C663 C 0.70523 0.18757 0.66133 0.0
O664 O 0.69924 0.1784 0.69447 0.0
O665 O 0.68708 0.1683 0.68412 0.0
O666 O 0.69569 0.18161 0.66104 0.0
O667 O 0.70769 0.19191 0.67137 0.0
H668 H 0.71568 0.16702 0.70296 0.0
H669 H 0.72612 0.14994 0.7078 0.0
H670 H 0.69932 0.1295 0.69197 0.0
H671 H 0.68877 0.14655 0.68738 0.0
H672 H 0.6455 0.19084 0.70467 0.0
H673 H 0.66162 0.18587 0.69311 0.0
H674 H 0.65357 0.22634 0.69971 0.0
H675 H 0.66942 0.22131 0.68799 0.0
H676 H 0.70096 0.22042 0.63943 0.0
H677 H 0.72291 0.19442 0.62753 0.0
H678 H 0.7186 0.18283 0.6441 0.0
H679 H 0.69684 0.20871 0.65622 0.0
C680 C 0.34411 0.20046 0.65669 0.0
C681 C 0.34827 0.21154 0.65496 0.0
C682 C 0.33714 0.21294 0.63714 0.0
C683 C 0.3448 0.21774 0.64529 0.0
C684 C 0.33304 0.20181 0.63897 0.0
C685 C 0.33649 0.19566 0.64862 0.0
U686 U 0.36353 0.19414 0.68287 0.0
O687 O 0.35904 0.18785 0.69981 0.0
O688 O 0.36987 0.17772 0.68917 0.0
C689 C 0.36437 0.17827 0.69867 0.0
C690 C 0.34749 0.19372 0.66681 0.0
C691 C 0.35848 0.16775 0.70247 0.0
C692 C 0.34138 0.15684 0.707 0.0
C693 C 0.34658 0.16657 0.70238 0.0
C694 C 0.35989 0.14926 0.71163 0.0
C695 C 0.34798 0.14812 0.71186 0.0
C696 C 0.36505 0.15895 0.70702 0.0
C697 C 0.3894 0.2144 0.68958 0.0
C698 C 0.40947 0.21272 0.69496 0.0
C699 C 0.39938 0.22943 0.70021 0.0
C700 C 0.38945 0.22499 0.69495 0.0
C701 C 0.40958 0.22343 0.70017 0.0
C702 C 0.39952 0.20826 0.68973 0.0
C703 C 0.37908 0.21048 0.68301 0.0
O704 O 0.35704 0.18823 0.66615 0.0
O705 O 0.34634 0.19856 0.67671 0.0
O706 O 0.3693 0.21132 0.68799 0.0
O707 O 0.37983 0.20113 0.67711 0.0
H708 H 0.35421 0.21539 0.66106 0.0
H709 H 0.34822 0.22623 0.64412 0.0
H710 H 0.32701 0.19788 0.63301 0.0
H711 H 0.33315 0.18714 0.64981 0.0
H712 H 0.3322 0.1563 0.70707 0.0
H713 H 0.3413 0.17324 0.69894 0.0
H714 H 0.36526 0.14267 0.71508 0.0
H715 H 0.37424 0.15965 0.70719 0.0
H716 H 0.41716 0.20789 0.69461 0.0
H717 H 0.39905 0.23761 0.70428 0.0
H718 H 0.38182 0.22996 0.69489 0.0
H719 H 0.39985 0.20013 0.68558 0.0
C720 C 0.33098 0.85619 0.65788 0.0
C721 C 0.33657 0.85753 0.64756 0.0
C722 C 0.32282 0.84478 0.63795 0.0
C723 C 0.33256 0.85188 0.63774 0.0
C724 C 0.3174 0.84325 0.64835 0.0
C725 C 0.32139 0.84891 0.65815 0.0
U726 U 0.34913 0.86473 0.68502 0.0
O727 O 0.35424 0.88187 0.69076 0.0
O728 O 0.34309 0.87131 0.70117 0.0
C729 C 0.34778 0.88139 0.69966 0.0
C730 C 0.33416 0.86328 0.66796 0.0
C731 C 0.34068 0.89144 0.70176 0.0
C732 C 0.32415 0.90002 0.71005 0.0
C733 C 0.33019 0.89039 0.70712 0.0
C734 C 0.33886 0.912 0.70222 0.0
C735 C 0.32848 0.91098 0.70778 0.0
C736 C 0.34489 0.90238 0.6993 0.0
C737 C 0.37505 0.84621 0.69427 0.0
C738 C 0.38908 0.84964 0.70959 0.0
C739 C 0.38973 0.83247 0.69855 0.0
C740 C 0.38024 0.83591 0.69209 0.0
C741 C 0.39431 0.83925 0.70742 0.0
C742 C 0.37952 0.85308 0.70308 0.0
C743 C 0.36514 0.8495 0.68705 0.0
O744 O 0.33249 0.85879 0.67803 0.0
O745 O 0.3436 0.86938 0.66761 0.0
O746 O 0.36619 0.85886 0.68106 0.0
O747 O 0.35508 0.84825 0.69148 0.0
H748 H 0.3439 0.86316 0.64696 0.0
H749 H 0.33705 0.85317 0.62994 0.0
H750 H 0.30979 0.83799 0.64884 0.0
H751 H 0.31674 0.84785 0.66588 0.0
H752 H 0.31628 0.89886 0.71445 0.0
H753 H 0.32673 0.88212 0.7093 0.0
H754 H 0.3424 0.92026 0.70016 0.0
H755 H 0.35298 0.90354 0.6953 0.0
H756 H 0.39228 0.85505 0.7164 0.0
H757 H 0.39359 0.82454 0.69644 0.0
H758 H 0.37697 0.83051 0.68529 0.0
H759 H 0.37565 0.86108 0.70491 0.0
C760 C 0.65256 0.82977 0.68264 0.0
C761 C 0.64994 0.83358 0.6935 0.0
C762 C 0.63293 0.82132 0.6935 0.0
C763 C 0.64023 0.8294 0.69888 0.0
C764 C 0.63559 0.81764 0.68257 0.0
C765 C 0.64528 0.82182 0.67723 0.0
U766 U 0.67808 0.85038 0.67815 0.0
O767 O 0.69565 0.84643 0.6738 0.0
O768 O 0.6851 0.8566 0.66213 0.0
C769 C 0.6948 0.85144 0.66383 0.0
C770 C 0.66287 0.83373 0.67683 0.0
C771 C 0.69942 0.84534 0.65407 0.0
C772 C 0.69743 0.83703 0.63518 0.0
C773 C 0.69255 0.84178 0.64473 0.0
C774 C 0.71605 0.83906 0.64425 0.0
C775 C 0.70929 0.83577 0.63473 0.0
C776 C 0.71118 0.8438 0.65376 0.0
C777 C 0.68254 0.87645 0.69784 0.0
C778 C 0.69975 0.88789 0.70124 0.0
C779 C 0.68176 0.89443 0.70776 0.0
C780 C 0.67633 0.88472 0.70329 0.0
C781 C 0.69357 0.89612 0.70692 0.0
C782 C 0.69429 0.87815 0.69674 0.0
C783 C 0.67654 0.86603 0.69382 0.0
O784 O 0.66199 0.8432 0.67098 0.0
O785 O 0.67252 0.83307 0.68268 0.0
O786 O 0.68183 0.85644 0.69551 0.0
O787 O 0.67133 0.86662 0.68382 0.0
H788 H 0.65545 0.83972 0.69784 0.0
H789 H 0.63855 0.83236 0.70733 0.0
H790 H 0.63011 0.81161 0.67806 0.0
H791 H 0.64711 0.81879 0.66883 0.0
H792 H 0.69194 0.83467 0.628 0.0
H793 H 0.68344 0.84288 0.6447 0.0
H794 H 0.72517 0.83803 0.64435 0.0
H795 H 0.71667 0.84648 0.66083 0.0
H796 H 0.70886 0.88884 0.70049 0.0
H797 H 0.67666 0.90064 0.71186 0.0
H798 H 0.66726 0.88361 0.7042 0.0
H799 H 0.69926 0.87189 0.69256 0.0
C800 C 0.6499 0.82542 0.34367 0.0
C801 C 0.64193 0.8326 0.33841 0.0
C802 C 0.63013 0.81624 0.33253 0.0
C803 C 0.63213 0.82805 0.33291 0.0
C804 C 0.63826 0.80914 0.33768 0.0
C805 C 0.648 0.81368 0.34317 0.0
U806 U 0.67498 0.84659 0.35078 0.0
O807 O 0.68107 0.85229 0.36772 0.0
O808 O 0.69219 0.84246 0.35714 0.0
C809 C 0.69076 0.84705 0.36711 0.0
C810 C 0.65992 0.8298 0.35028 0.0
C811 C 0.69414 0.84015 0.37712 0.0
C812 C 0.69276 0.82301 0.38867 0.0
C813 C 0.68935 0.82935 0.37908 0.0
C814 C 0.70575 0.83819 0.39443 0.0
C815 C 0.701 0.82737 0.39651 0.0
C816 C 0.70236 0.84449 0.38486 0.0
C817 C 0.68013 0.87339 0.33181 0.0
C818 C 0.69702 0.88404 0.3261 0.0
C819 C 0.67863 0.89276 0.3247 0.0
C820 C 0.67358 0.88287 0.32902 0.0
C821 C 0.69041 0.89345 0.323 0.0
C822 C 0.69195 0.87411 0.33044 0.0
C823 C 0.67424 0.86271 0.33523 0.0
O824 O 0.66978 0.82933 0.3454 0.0
O825 O 0.65866 0.83919 0.35601 0.0
O826 O 0.66847 0.86298 0.34459 0.0
O827 O 0.67967 0.85319 0.33401 0.0
H828 H 0.6432 0.84171 0.33867 0.0
H829 H 0.62613 0.83379 0.32893 0.0
H830 H 0.63697 0.80004 0.33775 0.0
H831 H 0.65399 0.80798 0.34724 0.0
H832 H 0.68884 0.81476 0.39003 0.0
H833 H 0.68296 0.82585 0.37321 0.0
H834 H 0.71224 0.84177 0.40013 0.0
H835 H 0.7062 0.85278 0.38348 0.0
H836 H 0.70609 0.8842 0.32484 0.0
H837 H 0.67327 0.89986 0.32264 0.0
H838 H 0.66447 0.88254 0.32997 0.0
H839 H 0.69723 0.86694 0.33247 0.0
C840 C 0.65757 0.18624 0.33148 0.0
C841 C 0.65276 0.19313 0.33967 0.0
C842 C 0.63784 0.19888 0.32598 0.0
C843 C 0.64301 0.19941 0.33693 0.0
C844 C 0.64288 0.1921 0.3178 0.0
C845 C 0.65259 0.18588 0.32053 0.0
U846 U 0.6843 0.177 0.34926 0.0
O847 O 0.68994 0.15973 0.35341 0.0
O848 O 0.70064 0.17095 0.3432 0.0
C849 C 0.69919 0.16074 0.34749 0.0
C850 C 0.6675 0.17904 0.33411 0.0
C851 C 0.7024 0.15092 0.34042 0.0
C852 C 0.71616 0.14226 0.32819 0.0
C853 C 0.71198 0.15179 0.33361 0.0
C854 C 0.70118 0.13069 0.33609 0.0
C855 C 0.71094 0.13152 0.32949 0.0
C856 C 0.697 0.14024 0.34151 0.0
C857 C 0.6936 0.19366 0.37658 0.0
C858 C 0.71205 0.19779 0.38581 0.0
C859 C 0.69493 0.19921 0.39648 0.0
C860 C 0.68842 0.19594 0.38687 0.0
C861 C 0.70683 0.20035 0.39607 0.0
C862 C 0.7055 0.1945 0.37617 0.0
C863 C 0.68628 0.19124 0.36636 0.0
O864 O 0.67759 0.18378 0.33295 0.0
O865 O 0.66693 0.17252 0.34316 0.0
O866 O 0.67997 0.18194 0.36662 0.0
O867 O 0.69068 0.19317 0.3564 0.0
H868 H 0.65646 0.19355 0.34819 0.0
H869 H 0.63937 0.20446 0.34348 0.0
H870 H 0.63932 0.19161 0.30923 0.0
H871 H 0.65616 0.18066 0.31406 0.0
H872 H 0.72357 0.14331 0.32306 0.0
H873 H 0.71647 0.15983 0.3327 0.0
H874 H 0.69698 0.12258 0.33743 0.0
H875 H 0.68973 0.13915 0.34685 0.0
H876 H 0.72116 0.19864 0.38511 0.0
H877 H 0.6906 0.20087 0.40425 0.0
H878 H 0.67926 0.19537 0.38742 0.0
H879 H 0.70975 0.19282 0.36835 0.0
C880 C 0.3285 0.15062 0.35229 0.0
C881 C 0.33331 0.1462 0.34254 0.0
C882 C 0.31924 0.13066 0.34215 0.0
C883 C 0.3287 0.13631 0.3375 0.0
C884 C 0.31447 0.13523 0.35187 0.0
C885 C 0.31905 0.14507 0.35687 0.0
U886 U 0.34982 0.17593 0.35676 0.0
O887 O 0.34602 0.1933 0.36187 0.0
O888 O 0.35655 0.18267 0.37308 0.0
C889 C 0.35108 0.19221 0.37191 0.0
C890 C 0.33307 0.16091 0.35795 0.0
C891 C 0.34445 0.19559 0.38175 0.0
C892 C 0.32687 0.19568 0.39211 0.0
C893 C 0.33301 0.19227 0.38275 0.0
C894 C 0.34358 0.20563 0.39967 0.0
C895 C 0.33208 0.20241 0.40071 0.0
C896 C 0.34968 0.20226 0.3903 0.0
C897 C 0.37535 0.18015 0.33677 0.0
C898 C 0.38683 0.19709 0.33295 0.0
C899 C 0.39292 0.17881 0.32657 0.0
C900 C 0.38335 0.17367 0.33129 0.0
C901 C 0.39474 0.19061 0.32719 0.0
C902 C 0.37721 0.19191 0.33768 0.0
C903 C 0.36496 0.17442 0.34089 0.0
O904 O 0.34283 0.15992 0.36353 0.0
O905 O 0.33229 0.17044 0.35219 0.0
O906 O 0.35537 0.17984 0.33949 0.0
O907 O 0.36587 0.16917 0.35073 0.0
H908 H 0.34062 0.15036 0.33889 0.0
H909 H 0.33264 0.133 0.33007 0.0
H910 H 0.30708 0.13127 0.35558 0.0
H911 H 0.31519 0.14838 0.36436 0.0
H912 H 0.31809 0.19293 0.39269 0.0
H913 H 0.32882 0.18704 0.37629 0.0
H914 H 0.34784 0.21091 0.40603 0.0
H915 H 0.3585 0.20492 0.38969 0.0
H916 H 0.3879 0.20619 0.33354 0.0
H917 H 0.39891 0.17351 0.32241 0.0
H918 H 0.38211 0.16459 0.33051 0.0
H919 H 0.37115 0.1971 0.34188 0.0
C920 C 0.34148 0.87312 0.33261 0.0
C921 C 0.33413 0.87922 0.33933 0.0
C922 C 0.33006 0.89221 0.32349 0.0
C923 C 0.32847 0.88868 0.33481 0.0
C924 C 0.33741 0.88596 0.31684 0.0
C925 C 0.34301 0.87655 0.32135 0.0
U926 U 0.34955 0.84824 0.35346 0.0
O927 O 0.35578 0.83153 0.34856 0.0
O928 O 0.36684 0.84312 0.35852 0.0
C929 C 0.36603 0.83355 0.35288 0.0
C930 C 0.34807 0.86344 0.33704 0.0
C931 C 0.37554 0.83104 0.34546 0.0
C932 C 0.3896 0.83681 0.33171 0.0
C933 C 0.38041 0.83938 0.33847 0.0
C934 C 0.38904 0.81749 0.33868 0.0
C935 C 0.39405 0.82582 0.33173 0.0
C936 C 0.37991 0.82009 0.34546 0.0
C937 C 0.33278 0.84074 0.38047 0.0
C938 C 0.33085 0.82278 0.39067 0.0
C939 C 0.32595 0.84022 0.39979 0.0
C940 C 0.32891 0.84632 0.39005 0.0
C941 C 0.32673 0.82834 0.40022 0.0
C942 C 0.33385 0.82891 0.38091 0.0
C943 C 0.33507 0.84745 0.37006 0.0
O944 O 0.3541 0.86501 0.34648 0.0
O945 O 0.34311 0.85338 0.33646 0.0
O946 O 0.33326 0.84233 0.36027 0.0
O947 O 0.34432 0.85388 0.37032 0.0
H948 H 0.33283 0.87672 0.34806 0.0
H949 H 0.3228 0.89319 0.34016 0.0
H950 H 0.33906 0.88848 0.30819 0.0
H951 H 0.34871 0.87202 0.31603 0.0
H952 H 0.39315 0.84339 0.32637 0.0
H953 H 0.37713 0.84789 0.33828 0.0
H954 H 0.39231 0.80899 0.33904 0.0
H955 H 0.37629 0.81353 0.3508 0.0
H956 H 0.3315 0.81365 0.3906 0.0
H957 H 0.32303 0.84486 0.40701 0.0
H958 H 0.32804 0.85544 0.38995 0.0
H959 H 0.33681 0.82437 0.37364 0.0
C960 C 0.69068 0.6591 0.19326 0.0
C961 C 0.70256 0.65944 0.19247 0.0
C962 C 0.70371 0.63993 0.19947 0.0
C963 C 0.70901 0.64996 0.19555 0.0
C964 C 0.69178 0.63959 0.19999 0.0
C965 C 0.68537 0.64905 0.19695 0.0
U966 U 0.68241 0.68607 0.17621 0.0
O967 O 0.66542 0.69225 0.1714 0.0
O968 O 0.67678 0.70255 0.18248 0.0
C969 C 0.66665 0.70146 0.17757 0.0
C970 C 0.68363 0.66915 0.19083 0.0
C971 C 0.65684 0.70501 0.1842 0.0
C972 C 0.63777 0.70187 0.19129 0.0
C973 C 0.64751 0.69773 0.18627 0.0
C974 C 0.64664 0.7205 0.19253 0.0
C975 C 0.63712 0.71338 0.19427 0.0
C976 C 0.65634 0.71636 0.18755 0.0
C977 C 0.69962 0.69579 0.15028 0.0
C978 C 0.71161 0.7106 0.14205 0.0
C979 C 0.69672 0.70163 0.1305 0.0
C980 C 0.6937 0.69482 0.13975 0.0
C981 C 0.70578 0.70956 0.13148 0.0
C982 C 0.7086 0.70378 0.15129 0.0
C983 C 0.6971 0.688 0.1599 0.0
O984 O 0.68847 0.67914 0.19263 0.0
O985 O 0.67722 0.66881 0.1815 0.0
O986 O 0.68773 0.68179 0.15904 0.0
O987 O 0.69903 0.692 0.17019 0.0
H988 H 0.70689 0.66708 0.18964 0.0
H989 H 0.71816 0.65061 0.19511 0.0
H990 H 0.68735 0.63198 0.20274 0.0
H991 H 0.67622 0.64856 0.1976 0.0
H992 H 0.6306 0.69616 0.19245 0.0
H993 H 0.64761 0.68894 0.18373 0.0
H994 H 0.64655 0.72934 0.1949 0.0
H995 H 0.66338 0.72216 0.18602 0.0
H996 H 0.71854 0.71669 0.14319 0.0
H997 H 0.69214 0.70045 0.12247 0.0
H998 H 0.68685 0.68865 0.13858 0.0
H999 H 0.71344 0.70468 0.15922 0.0
C1000 C 0.33589 0.68487 0.1475 0.0
C1001 C 0.33928 0.69595 0.14457 0.0
C1002 C 0.32708 0.69518 0.12734 0.0
C1003 C 0.33491 0.70106 0.13459 0.0
C1004 C 0.32382 0.68406 0.13036 0.0
C1005 C 0.32817 0.67899 0.14029 0.0
U1006 U 0.3558 0.68047 0.17432 0.0
O1007 O 0.35086 0.67496 0.1914 0.0
O1008 O 0.36178 0.66429 0.18143 0.0
C1009 C 0.35596 0.6652 0.19071 0.0
C1010 C 0.3399 0.67925 0.1581 0.0
C1011 C 0.34971 0.65488 0.19461 0.0
C1012 C 0.34914 0.63439 0.19745 0.0
C1013 C 0.35403 0.64409 0.19258 0.0
C1014 C 0.3353 0.64597 0.20637 0.0
C1015 C 0.33983 0.63521 0.20457 0.0
C1016 C 0.3402 0.65568 0.20149 0.0
C1017 C 0.38172 0.69951 0.18184 0.0
C1018 C 0.3922 0.69897 0.19999 0.0
C1019 C 0.39994 0.70945 0.1842 0.0
C1020 C 0.39043 0.70632 0.17742 0.0
C1021 C 0.40097 0.70584 0.1956 0.0
C1022 C 0.3827 0.6958 0.19317 0.0
C1023 C 0.37175 0.69639 0.17449 0.0
O1024 O 0.34956 0.67391 0.15773 0.0
O1025 O 0.33877 0.68482 0.16761 0.0
O1026 O 0.36175 0.69768 0.1789 0.0
O1027 O 0.37248 0.68687 0.16887 0.0
H1028 H 0.34524 0.70065 0.15001 0.0
H1029 H 0.33774 0.70958 0.13252 0.0
H1030 H 0.31769 0.6793 0.12516 0.0
H1031 H 0.32539 0.67046 0.14241 0.0
H1032 H 0.35276 0.62625 0.19574 0.0
H1033 H 0.36143 0.64315 0.18745 0.0
H1034 H 0.32823 0.64696 0.21191 0.0
H1035 H 0.33675 0.66385 0.20341 0.0
H1036 H 0.39275 0.69592 0.20867 0.0
H1037 H 0.40642 0.71486 0.18056 0.0
H1038 H 0.38985 0.70929 0.16871 0.0
H1039 H 0.37611 0.69047 0.19674 0.0
C1040 C 0.34147 0.3393 0.16412 0.0
C1041 C 0.3455 0.34243 0.15341 0.0
C1042 C 0.33555 0.3263 0.14443 0.0
C1043 C 0.34263 0.33602 0.14373 0.0
C1044 C 0.33173 0.323 0.15519 0.0
C1045 C 0.3346 0.32944 0.16489 0.0
U1046 U 0.35698 0.35023 0.19194 0.0
O1047 O 0.36089 0.36789 0.19698 0.0
O1048 O 0.34949 0.35737 0.20718 0.0
C1049 C 0.35418 0.36744 0.20567 0.0
C1050 C 0.34331 0.34701 0.17404 0.0
C1051 C 0.34698 0.37741 0.20743 0.0
C1052 C 0.32912 0.38747 0.20552 0.0
C1053 C 0.33572 0.37799 0.20321 0.0
C1054 C 0.34497 0.39586 0.2162 0.0
C1055 C 0.33366 0.39656 0.21207 0.0
C1056 C 0.35152 0.38644 0.21389 0.0
C1057 C 0.38368 0.33418 0.204 0.0
C1058 C 0.40384 0.33661 0.20917 0.0
C1059 C 0.39264 0.32227 0.21864 0.0
C1060 C 0.38301 0.32544 0.21215 0.0
C1061 C 0.40325 0.32766 0.2171 0.0
C1062 C 0.39422 0.3398 0.2027 0.0
C1063 C 0.37387 0.33628 0.19598 0.0
O1064 O 0.34122 0.34291 0.18419 0.0
O1065 O 0.35233 0.35375 0.17402 0.0
O1066 O 0.37457 0.34515 0.18922 0.0
O1067 O 0.36359 0.33455 0.19976 0.0
H1068 H 0.35068 0.35004 0.15243 0.0
H1069 H 0.34588 0.33876 0.13565 0.0
H1070 H 0.32616 0.31567 0.15608 0.0
H1071 H 0.33116 0.32684 0.17293 0.0
H1072 H 0.32049 0.38771 0.2021 0.0
H1073 H 0.33202 0.37113 0.1982 0.0
H1074 H 0.34875 0.40251 0.22144 0.0
H1075 H 0.36016 0.38615 0.21731 0.0
H1076 H 0.41181 0.34108 0.20784 0.0
H1077 H 0.39184 0.31525 0.22454 0.0
H1078 H 0.37512 0.32077 0.21324 0.0
H1079 H 0.39514 0.34649 0.19644 0.0
C1080 C 0.65886 0.33526 0.18849 0.0
C1081 C 0.65782 0.33534 0.20034 0.0
C1082 C 0.63962 0.32505 0.19859 0.0
C1083 C 0.64829 0.3303 0.20534 0.0
C1084 C 0.64061 0.32528 0.18672 0.0
C1085 C 0.65011 0.33031 0.18175 0.0
U1086 U 0.68457 0.35604 0.18447 0.0
O1087 O 0.70183 0.35199 0.17937 0.0
O1088 O 0.69116 0.3627 0.16837 0.0
C1089 C 0.70071 0.35719 0.16951 0.0
C1090 C 0.66914 0.33964 0.18288 0.0
C1091 C 0.70423 0.35087 0.15944 0.0
C1092 C 0.70592 0.33336 0.14881 0.0
C1093 C 0.70211 0.33917 0.15829 0.0
C1094 C 0.71382 0.35088 0.14142 0.0
C1095 C 0.7119 0.33912 0.14026 0.0
C1096 C 0.71005 0.35665 0.1509 0.0
C1097 C 0.68984 0.38134 0.20515 0.0
C1098 C 0.70112 0.39861 0.20236 0.0
C1099 C 0.6943 0.39397 0.22101 0.0
C1100 C 0.68914 0.38406 0.21667 0.0
C1101 C 0.70029 0.40146 0.21392 0.0
C1102 C 0.69595 0.38866 0.19802 0.0
C1103 C 0.68371 0.37112 0.2008 0.0
O1104 O 0.66821 0.34936 0.17746 0.0
O1105 O 0.67889 0.33865 0.18849 0.0
O1106 O 0.68897 0.36146 0.20199 0.0
O1107 O 0.67826 0.3721 0.19095 0.0
H1108 H 0.66447 0.33911 0.20573 0.0
H1109 H 0.64787 0.33023 0.2145 0.0
H1110 H 0.63403 0.32155 0.18123 0.0
H1111 H 0.6507 0.33016 0.17259 0.0
H1112 H 0.70435 0.32431 0.1483 0.0
H1113 H 0.69762 0.33451 0.16476 0.0
H1114 H 0.71818 0.35567 0.13496 0.0
H1115 H 0.71173 0.36568 0.15158 0.0
H1116 H 0.70556 0.4042 0.1966 0.0
H1117 H 0.69363 0.39571 0.22997 0.0
H1118 H 0.68449 0.37853 0.22233 0.0
H1119 H 0.6966 0.38676 0.18909 0.0
C1120 C 0.66446 0.34019 0.8464 0.0
C1121 C 0.6639 0.34188 0.83458 0.0
C1122 C 0.64473 0.3335 0.83352 0.0
C1123 C 0.65413 0.33857 0.8282 0.0
C1124 C 0.6453 0.33209 0.84541 0.0
C1125 C 0.65505 0.33537 0.85174 0.0
U1126 U 0.6917 0.35792 0.85381 0.0
O1127 O 0.69827 0.36363 0.8706 0.0
O1128 O 0.70832 0.35224 0.86043 0.0
C1129 C 0.70742 0.35748 0.87017 0.0
C1130 C 0.67479 0.34301 0.85338 0.0
C1131 C 0.71069 0.35115 0.88063 0.0
C1132 C 0.71452 0.33362 0.89097 0.0
C1133 C 0.71042 0.33925 0.88119 0.0
C1134 C 0.71894 0.35167 0.89983 0.0
C1135 C 0.719 0.33976 0.90037 0.0
C1136 C 0.71486 0.35727 0.89009 0.0
C1137 C 0.70016 0.38335 0.83493 0.0
C1138 C 0.71637 0.39603 0.83878 0.0
C1139 C 0.70438 0.39888 0.82198 0.0
C1140 C 0.69763 0.38953 0.82502 0.0
C1141 C 0.71385 0.40227 0.8288 0.0
C1142 C 0.70959 0.38664 0.8418 0.0
C1143 C 0.69277 0.37363 0.83792 0.0
O1144 O 0.68462 0.34125 0.84876 0.0
O1145 O 0.67463 0.35251 0.85911 0.0
O1146 O 0.68699 0.37471 0.8472 0.0
O1147 O 0.69717 0.36356 0.83694 0.0
H1148 H 0.67105 0.34563 0.83026 0.0
H1149 H 0.65405 0.33974 0.81908 0.0
H1150 H 0.63819 0.32846 0.84986 0.0
H1151 H 0.65526 0.33403 0.86085 0.0
H1152 H 0.71449 0.32445 0.89104 0.0
H1153 H 0.70725 0.33431 0.87402 0.0
H1154 H 0.7221 0.3567 0.90694 0.0
H1155 H 0.71515 0.36644 0.88987 0.0
H1156 H 0.72365 0.39831 0.84418 0.0
H1157 H 0.70205 0.40356 0.81436 0.0
H1158 H 0.69036 0.38716 0.81963 0.0
H1159 H 0.71168 0.38196 0.84949 0.0
C1160 C 0.66548 0.69327 0.83202 0.0
C1161 C 0.66366 0.70344 0.83773 0.0
C1162 C 0.64624 0.70649 0.8263 0.0
C1163 C 0.65411 0.70998 0.83492 0.0
C1164 C 0.64812 0.69622 0.82072 0.0
C1165 C 0.65761 0.68972 0.82354 0.0
U1166 U 0.69275 0.68452 0.84919 0.0
O1167 O 0.69837 0.66727 0.85351 0.0
O1168 O 0.70871 0.67815 0.84259 0.0
C1169 C 0.70741 0.6681 0.84728 0.0
C1170 C 0.67549 0.68621 0.83453 0.0
C1171 C 0.70989 0.65818 0.84021 0.0
C1172 C 0.70726 0.64671 0.82314 0.0
C1173 C 0.70445 0.65617 0.82961 0.0
C1174 C 0.72091 0.64119 0.8378 0.0
C1175 C 0.71553 0.63905 0.82717 0.0
C1176 C 0.71812 0.65061 0.84421 0.0
C1177 C 0.70321 0.70157 0.87602 0.0
C1178 C 0.70766 0.6999 0.89635 0.0
C1179 C 0.71807 0.71347 0.88507 0.0
C1180 C 0.71173 0.71006 0.87536 0.0
C1181 C 0.71601 0.70857 0.89575 0.0
C1182 C 0.70133 0.69647 0.88665 0.0
C1183 C 0.69551 0.69904 0.86601 0.0
O1184 O 0.68551 0.69097 0.833 0.0
O1185 O 0.67518 0.67994 0.84377 0.0
O1186 O 0.68901 0.68987 0.86652 0.0
O1187 O 0.69958 0.70078 0.85586 0.0
H1188 H 0.66963 0.70635 0.84431 0.0
H1189 H 0.65301 0.71787 0.83935 0.0
H1190 H 0.64218 0.69311 0.81421 0.0
H1191 H 0.65882 0.68187 0.81906 0.0
H1192 H 0.70286 0.64531 0.81506 0.0
H1193 H 0.69806 0.66191 0.82635 0.0
H1194 H 0.72746 0.63567 0.84113 0.0
H1195 H 0.72247 0.65202 0.85233 0.0
H1196 H 0.70591 0.69581 0.90438 0.0
H1197 H 0.72431 0.72026 0.88426 0.0
H1198 H 0.71328 0.71433 0.86738 0.0
H1199 H 0.69477 0.69001 0.88756 0.0
C1200 C 0.34256 0.65268 0.83641 0.0
C1201 C 0.34356 0.65244 0.82455 0.0
C1202 C 0.33563 0.63312 0.82387 0.0
C1203 C 0.34012 0.64277 0.81835 0.0
C1204 C 0.3349 0.63336 0.83577 0.0
C1205 C 0.33831 0.64301 0.84194 0.0
U1206 U 0.36017 0.68006 0.84302 0.0
O1207 O 0.35446 0.69654 0.8491 0.0
O1208 O 0.36646 0.68671 0.85959 0.0
C1209 C 0.36012 0.69574 0.85886 0.0
C1210 C 0.34549 0.66294 0.84318 0.0
C1211 C 0.35423 0.69907 0.86929 0.0
C1212 C 0.33725 0.70431 0.87925 0.0
C1213 C 0.34236 0.69998 0.86961 0.0
C1214 C 0.35574 0.70667 0.88849 0.0
C1215 C 0.34389 0.7079 0.88878 0.0
C1216 C 0.36082 0.70234 0.87889 0.0
C1217 C 0.38468 0.68811 0.82267 0.0
C1218 C 0.40005 0.70204 0.82545 0.0
C1219 C 0.39765 0.69238 0.80746 0.0
C1220 C 0.38825 0.68641 0.81158 0.0
C1221 C 0.40374 0.70026 0.81433 0.0
C1222 C 0.3906 0.69602 0.82958 0.0
C1223 C 0.37506 0.68115 0.82679 0.0
O1224 O 0.35526 0.6629 0.84886 0.0
O1225 O 0.34333 0.67277 0.83836 0.0
O1226 O 0.36493 0.68557 0.82585 0.0
O1227 O 0.37677 0.67565 0.8364 0.0
H1228 H 0.34683 0.65978 0.82007 0.0
H1229 H 0.34073 0.64298 0.80921 0.0
H1230 H 0.33172 0.62606 0.84038 0.0
H1231 H 0.33751 0.64297 0.85107 0.0
H1232 H 0.32811 0.70519 0.87909 0.0
H1233 H 0.33703 0.69758 0.86233 0.0
H1234 H 0.36114 0.70912 0.8957 0.0
H1235 H 0.36999 0.70178 0.87887 0.0
H1236 H 0.40442 0.70812 0.83096 0.0
H1237 H 0.40029 0.69061 0.79895 0.0
H1238 H 0.38385 0.68029 0.80612 0.0
H1239 H 0.38799 0.69747 0.83817 0.0
C1240 C 0.35376 0.37798 0.83981 0.0
C1241 C 0.34231 0.37678 0.83617 0.0
C1242 C 0.341 0.3972 0.83312 0.0
C1243 C 0.33603 0.38627 0.83286 0.0
C1244 C 0.35242 0.39839 0.83687 0.0
C1245 C 0.35873 0.3889 0.84011 0.0
U1246 U 0.3613 0.35239 0.85888 0.0
O1247 O 0.36658 0.3352 0.85442 0.0
O1248 O 0.37798 0.34616 0.86476 0.0
C1249 C 0.3766 0.33641 0.85953 0.0
C1250 C 0.36078 0.36799 0.84285 0.0
C1251 C 0.38645 0.3322 0.85343 0.0
C1252 C 0.40188 0.33457 0.84023 0.0
C1253 C 0.39225 0.3388 0.84543 0.0
C1254 C 0.39989 0.3171 0.85089 0.0
C1255 C 0.4059 0.32369 0.843 0.0
C1256 C 0.39031 0.32131 0.85602 0.0
C1257 C 0.34217 0.34733 0.88507 0.0
C1258 C 0.33698 0.33034 0.89573 0.0
C1259 C 0.33352 0.34884 0.90347 0.0
C1260 C 0.3382 0.35393 0.8939 0.0
C1261 C 0.33266 0.33698 0.90446 0.0
C1262 C 0.34167 0.33546 0.88611 0.0
C1263 C 0.34598 0.35314 0.87464 0.0
O1264 O 0.36721 0.36887 0.85213 0.0
O1265 O 0.3559 0.35793 0.84171 0.0
O1266 O 0.34435 0.34775 0.86498 0.0
O1267 O 0.35575 0.35869 0.87537 0.0
H1268 H 0.33818 0.36851 0.8358 0.0
H1269 H 0.32722 0.38503 0.83015 0.0
H1270 H 0.35659 0.40665 0.83705 0.0
H1271 H 0.36756 0.3901 0.84276 0.0
H1272 H 0.40631 0.33991 0.83425 0.0
H1273 H 0.38942 0.34724 0.84331 0.0
H1274 H 0.40256 0.30863 0.85308 0.0
H1275 H 0.38594 0.31605 0.86214 0.0
H1276 H 0.33641 0.32119 0.89617 0.0
H1277 H 0.3305 0.35423 0.91009 0.0
H1278 H 0.3385 0.36309 0.89329 0.0
H1279 H 0.34466 0.33017 0.8794 0.0
Cu1280 Cu 0.26974 0.26963 0.02697 0.0
N1281 N 0.27022 0.2823 0.01723 0.0
N1282 N 0.27565 0.29313 1.00256 0.0
C1283 C 0.2767 0.28307 1.00801 0.0
C1284 C 0.26815 0.29889 1.00864 0.0
C1285 C 0.26483 0.29221 0.01765 0.0
O1286 O 0.2688 0.25659 0.01662 0.0
C1287 C 0.28306 0.28024 0.04336 0.0
O1288 O 0.27523 0.28772 0.04099 0.0
H1289 H 0.28202 0.27628 1.00534 0.0
H1290 H 0.25905 0.29453 0.02415 0.0
N1291 N 0.25695 0.26892 0.03615 0.0
N1292 N 0.24592 0.2631 0.05034 0.0
C1293 C 0.25607 0.26219 0.04538 0.0
C1294 C 0.24702 0.27433 0.03521 0.0
C1295 C 0.24021 0.27075 0.04392 0.0
C1296 C 0.25953 0.25611 1.01068 0.0
O1297 O 0.25185 0.26376 0.01243 0.0
H1298 H 0.26271 0.25656 0.04825 0.0
H1299 H 0.2448 0.28033 0.02859 0.0
O1300 O 0.28275 0.27094 0.03783 0.0
H1301 H 0.26541 0.30743 1.00689 0.0
H1302 H 0.23173 0.27363 0.04543 0.0
Cu1303 Cu 0.7749 0.2711 0.01836 0.0
N1304 N 0.76189 0.27473 0.02764 0.0
N1305 N 0.75123 0.28142 0.04147 0.0
C1306 C 0.76176 0.28106 0.03715 0.0
C1307 C 0.74456 0.27513 0.03428 0.0
C1308 C 0.75114 0.27103 0.02581 0.0
O1309 O 0.78231 0.26295 0.03201 0.0
C1310 C 0.77079 0.28791 1.00024 0.0
O1311 O 0.77986 0.29293 1.00481 0.0
H1312 H 0.76924 0.28514 0.04092 0.0
H1313 H 0.7483 0.26569 0.01882 0.0
N1314 N 0.78794 0.2675 1.00907 0.0
N1315 N 0.7987 0.26112 0.99522 0.0
C1316 C 0.78804 0.26186 0.99913 0.0
C1317 C 0.79881 0.27051 1.01145 0.0
C1318 C 0.80545 0.26657 1.00298 0.0
C1319 C 0.78859 0.26799 0.03948 0.0
O1320 O 0.79069 0.2789 0.03836 0.0
H1321 H 0.7805 0.25833 0.9949 0.0
H1322 H 0.80171 0.27533 0.01879 0.0
O1323 O 0.76714 0.27869 1.00459 0.0
H1324 H 0.73552 0.27365 0.03499 0.0
H1325 H 0.81454 0.26785 1.00247 0.0
Cu1326 Cu 0.76651 0.78088 1.01106 0.0
N1327 N 0.76645 0.79326 1.00093 0.0
N1328 N 0.77151 0.80399 0.98604 0.0
C1329 C 0.77303 0.79415 0.99177 0.0
C1330 C 0.76361 0.80949 0.99186 0.0
C1331 C 0.76052 0.80287 1.001 0.0
O1332 O 0.76667 0.76749 1.00119 0.0
C1333 C 0.7782 0.79249 0.02788 0.0
O1334 O 0.7697 0.79914 0.02523 0.0
H1335 H 0.77898 0.78774 0.98952 0.0
H1336 H 0.75447 0.80501 1.00732 0.0
N1337 N 0.75349 0.7796 0.01988 0.0
N1338 N 0.74246 0.77334 0.03388 0.0
C1339 C 0.75274 0.77287 0.02912 0.0
C1340 C 0.74333 0.78455 0.01872 0.0
C1341 C 0.73651 0.7807 0.02732 0.0
C1342 C 0.75743 0.76593 0.99537 0.0
O1343 O 0.74905 0.77287 0.99687 0.0
H1344 H 0.75959 0.76757 0.03215 0.0
H1345 H 0.74097 0.79042 1.01203 0.0
O1346 O 0.77905 0.78331 0.02229 0.0
H1347 H 0.76023 0.8177 0.98967 0.0
H1348 H 0.72787 0.7832 0.02864 0.0
Cu1349 Cu 0.27402 0.7659 1.01058 0.0
N1350 N 0.27284 0.77867 0.02001 0.0
N1351 N 0.26669 0.7892 0.03433 0.0
C1352 C 0.26547 0.77937 0.02851 0.0
C1353 C 0.2752 0.7949 0.02919 0.0
C1354 C 0.27897 0.7884 0.02041 0.0
O1355 O 0.27509 0.75303 0.02126 0.0
C1356 C 0.26077 0.77588 0.99414 0.0
O1357 O 0.26852 0.78371 0.99661 0.0
H1358 H 0.25935 0.77272 0.03037 0.0
H1359 H 0.28578 0.79058 0.0148 0.0
N1360 N 0.28707 0.76582 1.00172 0.0
N1361 N 0.2984 0.76094 0.9876 0.0
C1362 C 0.28789 0.76007 0.99192 0.0
C1363 C 0.29742 0.77052 1.00373 0.0
C1364 C 0.30439 0.76756 0.99506 0.0
C1365 C 0.28268 0.75466 0.02913 0.0
O1366 O 0.28896 0.76396 0.02883 0.0
H1367 H 0.28085 0.75531 0.98807 0.0
H1368 H 0.29982 0.77553 1.0111 0.0
O1369 O 0.26118 0.76646 0.99953 0.0
H1370 H 0.27867 0.80308 0.03172 0.0
H1371 H 0.31329 0.76988 0.99451 0.0
Cu1372 Cu 0.02082 0.25988 0.27843 0.0
N1373 N 0.0301 0.24708 0.27813 0.0
N1374 N 0.04431 0.23604 0.27288 0.0
C1375 C 0.03941 0.24627 0.2718 0.0
C1376 C 0.0378 0.2302 0.28023 0.0
C1377 C 0.02908 0.23701 0.28345 0.0
O1378 O 0.03155 0.2728 0.27988 0.0
C1379 C 1.00448 0.25012 0.26445 0.0
O1380 O 1.00613 0.24238 0.27234 0.0
H1381 H 0.04234 0.25302 0.26631 0.0
H1382 H 0.02238 0.23469 0.28912 0.0
N1383 N 1.01113 0.26022 0.29085 0.0
N1384 N 0.99661 0.26556 0.30139 0.0
C1385 C 1.00198 0.26687 0.29146 0.0
C1386 C 1.01159 0.25448 0.30074 0.0
C1387 C 1.00267 0.25774 0.30724 0.0
C1388 C 0.0371 0.27303 0.28937 0.0
O1389 O 0.03483 0.26517 0.29694 0.0
H1390 H 0.99931 0.2725 0.28466 0.0
H1391 H 0.01805 0.2485 0.30319 0.0
O1392 O 1.01049 0.25925 0.26502 0.0
H1393 H 0.03923 0.22163 0.28313 0.0
H1394 H 1.00097 0.25474 0.31572 0.0
Cu1395 Cu 0.76187 0.01618 0.26163 0.0
N1396 N 0.76265 0.0258 0.24887 0.0
N1397 N 0.7687 0.04056 0.23836 0.0
C1398 C 0.76742 0.0363 0.24895 0.0
C1399 C 0.7645 0.03236 0.23136 0.0
C1400 C 0.7609 0.02328 0.23784 0.0
O1401 O 0.76037 0.02655 0.27452 0.0
C1402 C 0.77662 0.99709 0.26539 0.0
O1403 O 0.76977 0.99403 0.27346 0.0
H1404 H 0.77055 0.04041 0.25664 0.0
H1405 H 0.75787 0.01517 0.23465 0.0
N1406 N 0.74916 1.0061 0.26122 0.0
N1407 N 0.73731 0.99205 0.26668 0.0
C1408 C 0.74575 0.99942 0.26988 0.0
C1409 C 0.74242 1.00304 0.25228 0.0
C1410 C 0.73514 0.99442 0.2556 0.0
C1411 C 0.75071 0.03131 0.27464 0.0
O1412 O 0.74299 0.02836 0.26688 0.0
H1413 H 0.74957 0.99982 0.27833 0.0
H1414 H 0.74296 1.00652 0.24383 0.0
O1415 O 0.77544 1.00679 0.2607 0.0
H1416 H 0.76437 0.03269 0.22218 0.0
H1417 H 0.72909 0.98991 0.25012 0.0
Cu1418 Cu 0.01491 0.7672 0.26558 0.0
N1419 N 1.00629 0.78046 0.26547 0.0
N1420 N 0.99223 0.79224 0.26054 0.0
C1421 C 0.99657 0.78181 0.2593 0.0
C1422 C 0.99956 0.79764 0.26781 0.0
C1423 C 1.00819 0.79037 0.27085 0.0
O1424 O 1.00369 0.75472 0.26682 0.0
C1425 C 0.03115 0.77652 0.25212 0.0
O1426 O 0.0305 0.78387 0.26038 0.0
H1427 H 0.9929 0.7753 0.25382 0.0
H1428 H 0.0154 0.79226 0.27646 0.0
N1429 N 0.02521 0.76604 0.27803 0.0
N1430 N 0.04016 0.75977 0.28838 0.0
C1431 C 0.03411 0.75902 0.27845 0.0
C1432 C 0.0256 0.77145 0.28805 0.0
C1433 C 0.03479 0.76761 0.29444 0.0
C1434 C 0.99819 0.75506 0.27599 0.0
O1435 O 1.00082 0.76315 0.28327 0.0
H1436 H 0.03597 0.75336 0.27161 0.0
H1437 H 0.01961 0.77769 0.29059 0.0
O1438 O 0.02454 0.7678 0.25223 0.0
H1439 H 0.99874 0.80623 0.27079 0.0
H1440 H 0.03734 0.77048 0.30286 0.0
Cu1441 Cu 0.25741 1.00628 0.27296 0.0
N1442 N 0.2578 0.01567 0.2858 0.0
N1443 N 0.26324 0.03022 0.29699 0.0
C1444 C 0.26438 0.02511 0.28687 0.0
C1445 C 0.2556 0.02371 0.3025 0.0
C1446 C 0.25225 0.01477 0.29559 0.0
O1447 O 0.25638 0.01693 0.2601 0.0
C1448 C 0.27163 0.99107 0.28354 0.0
O1449 O 0.2643 0.99303 0.29143 0.0
H1450 H 0.27005 0.02802 0.28037 0.0
H1451 H 0.24633 1.00802 0.29765 0.0
N1452 N 0.24473 0.99633 0.27201 0.0
N1453 N 0.2337 0.98172 0.26595 0.0
C1454 C 0.24389 0.98714 0.26526 0.0
C1455 C 0.23474 0.99673 0.27721 0.0
C1456 C 0.22793 0.98777 0.27349 0.0
C1457 C 0.24714 0.02242 0.25971 0.0
O1458 O 0.23949 0.02001 0.26727 0.0
H1459 H 0.25057 0.98466 0.25974 0.0
H1460 H 0.23244 1.00319 0.28313 0.0
O1461 O 0.27061 0.99637 0.27408 0.0
H1462 H 0.25257 0.02529 0.31091 0.0
H1463 H 0.21941 0.98585 0.27618 0.0
Cu1464 Cu 0.02416 0.76968 0.76383 0.0
N1465 N 0.03368 0.75708 0.76327 0.0
N1466 N 0.04803 0.74643 0.75762 0.0
C1467 C 0.04267 0.75642 0.75649 0.0
C1468 C 0.04215 0.74058 0.76546 0.0
C1469 C 0.03331 0.74714 0.76891 0.0
O1470 O 0.03468 0.78273 0.76557 0.0
C1471 C 1.00835 0.75984 0.74929 0.0
O1472 O 1.01043 0.7517 0.75667 0.0
H1473 H 0.04525 0.76323 0.7509 0.0
H1474 H 0.02697 0.74471 0.77494 0.0
N1475 N 0.01431 0.76966 0.77614 0.0
N1476 N 0.99958 0.77479 0.78649 0.0
C1477 C 1.00505 0.77616 0.77663 0.0
C1478 C 0.01473 0.76392 0.78603 0.0
C1479 C 1.00569 0.76706 0.79241 0.0
C1480 C 0.03999 0.78306 0.77519 0.0
O1481 O 0.03761 0.77523 0.78275 0.0
H1482 H 1.0024 0.78177 0.7698 0.0
H1483 H 0.02128 0.75807 0.78858 0.0
O1484 O 0.01391 0.76919 0.75037 0.0
H1485 H 0.04391 0.73207 0.76835 0.0
H1486 H 1.00395 0.76404 0.80088 0.0
Cu1487 Cu 0.27766 0.02535 0.77438 0.0
N1488 N 0.291 0.03441 0.77356 0.0
N1489 N 0.30247 0.04871 0.76799 0.0
C1490 C 0.29212 0.0436 0.76677 0.0
C1491 C 0.30807 0.04242 0.77589 0.0
C1492 C 0.301 0.03365 0.7793 0.0
O1493 O 0.26531 0.03621 0.77578 0.0
C1494 C 0.28654 1.00908 0.76123 0.0
O1495 O 0.29426 1.01065 0.76937 0.0
H1496 H 0.28531 0.04657 0.76121 0.0
H1497 H 0.30305 0.02716 0.7855 0.0
N1498 N 0.27718 0.01567 0.78711 0.0
N1499 N 0.27166 1.00082 0.79776 0.0
C1500 C 0.27066 1.00616 0.78759 0.0
C1501 C 0.28251 0.01643 0.79734 0.0
C1502 C 0.27915 1.00729 0.80391 0.0
C1503 C 0.26734 0.04336 0.78375 0.0
O1504 O 0.27667 0.04229 0.79002 0.0
H1505 H 0.26534 1.0032 0.78053 0.0
H1506 H 0.28831 0.02322 0.79992 0.0
O1507 O 0.2776 0.01505 0.7613 0.0
H1508 H 0.31672 0.04393 0.77895 0.0
H1509 H 0.28185 1.0057 0.81262 0.0
Cu1510 Cu 0.02621 0.27807 0.77737 0.0
N1511 N 0.0167 0.29074 0.77726 0.0
N1512 N 1.00205 0.30172 0.772 0.0
C1513 C 1.00713 0.29163 0.77075 0.0
C1514 C 1.00876 0.30737 0.77967 0.0
C1515 C 0.01775 0.3006 0.78288 0.0
O1516 O 0.01564 0.265 0.77802 0.0
C1517 C 0.04145 0.28877 0.76345 0.0
O1518 O 0.03953 0.29667 0.7709 0.0
H1519 H 1.00397 0.28493 0.76521 0.0
H1520 H 0.02469 0.30287 0.78869 0.0
N1521 N 0.03641 0.27719 0.78997 0.0
N1522 N 0.05129 0.27117 0.80063 0.0
C1523 C 0.04539 0.27026 0.79062 0.0
C1524 C 0.03661 0.28273 0.79992 0.0
C1525 C 0.04574 0.27905 0.80649 0.0
C1526 C 1.01053 0.26405 0.7874 0.0
O1527 O 0.01322 0.27126 0.79553 0.0
H1528 H 0.04739 0.26451 0.7839 0.0
H1529 H 0.0305 0.2889 0.80231 0.0
O1530 O 0.03605 0.27932 0.76422 0.0
H1531 H 1.00749 0.3159 0.78257 0.0
H1532 H 0.04811 0.28203 0.81491 0.0
Cu1533 Cu 0.76648 0.0211 0.76499 0.0
N1534 N 0.7676 0.0305 0.77783 0.0
N1535 N 0.77383 0.04479 0.789 0.0
C1536 C 0.77426 0.03991 0.77867 0.0
C1537 C 0.76657 0.03817 0.79487 0.0
C1538 C 0.76274 0.02939 0.78797 0.0
O1539 O 0.76521 0.03161 0.75203 0.0
C1540 C 0.77971 1.00479 0.7748 0.0
O1541 O 0.77174 1.00616 0.78218 0.0
H1542 H 0.77954 0.04293 0.7719 0.0
H1543 H 0.75698 0.02259 0.79029 0.0
N1544 N 0.75355 1.01144 0.76467 0.0
N1545 N 0.74218 0.99667 0.75976 0.0
C1546 C 0.75231 1.002 0.75831 0.0
C1547 C 0.74386 0.01213 0.77035 0.0
C1548 C 0.73685 1.00306 0.76735 0.0
C1549 C 0.75603 0.03721 0.75175 0.0
O1550 O 0.74857 0.0351 0.75959 0.0
H1551 H 0.75883 0.99906 0.75284 0.0
H1552 H 0.74194 0.01883 0.77616 0.0
O1553 O 0.77947 1.01091 0.76581 0.0
H1554 H 0.76415 0.03955 0.80353 0.0
H1555 H 0.72841 1.00145 0.77041 0.0
Cu1556 Cu 0.26545 0.77061 0.51395 0.0
N1557 N 0.26417 0.78302 0.52373 0.0
N1558 N 0.26855 0.79497 0.53803 0.0
C1559 C 0.27251 0.78745 0.53057 0.0
C1560 C 0.25728 0.79541 0.53562 0.0
C1561 C 0.25461 0.78801 0.52686 0.0
O1562 O 0.26398 0.75704 0.52356 0.0
C1563 C 0.28122 0.76784 0.49624 0.0
O1564 O 0.27512 0.75871 0.49377 0.0
H1565 H 0.28126 0.78485 0.53034 0.0
H1566 H 0.2462 0.78596 0.52344 0.0
N1567 N 0.25352 0.77008 0.50299 0.0
N1568 N 0.24296 0.7637 0.48806 0.0
C1569 C 0.25007 0.76094 0.49687 0.0
C1570 C 0.24833 0.77892 0.49801 0.0
C1571 C 0.2418 0.77503 0.48887 0.0
C1572 C 0.26909 0.75608 0.53321 0.0
O1573 O 0.27744 0.7632 0.53585 0.0
H1574 H 0.25318 0.75253 0.49856 0.0
H1575 H 0.24976 0.78767 0.50042 0.0
O1576 O 0.27931 0.77313 0.50538 0.0
H1577 H 0.25126 0.8002 0.54028 0.0
H1578 H 0.23714 0.7803 0.48289 0.0
Cu1579 Cu 0.77168 0.77407 0.51084 0.0
N1580 N 0.78405 0.77453 0.50107 0.0
N1581 N 0.79488 0.76961 0.4866 0.0
C1582 C 0.785 0.76779 0.49194 0.0
C1583 C 0.80034 0.77787 0.49265 0.0
C1584 C 0.79367 0.78087 0.50154 0.0
O1585 O 0.75817 0.774 0.50064 0.0
C1586 C 0.7832 0.76189 0.52702 0.0
O1587 O 0.79005 0.77056 0.5251 0.0
H1588 H 0.77861 0.7615 0.48945 0.0
H1589 H 0.79581 0.78709 0.50798 0.0
N1590 N 0.77082 0.7867 0.52048 0.0
N1591 N 0.76522 0.79714 0.53508 0.0
C1592 C 0.76437 0.78703 0.52974 0.0
C1593 C 0.77594 0.79697 0.51992 0.0
C1594 C 0.77252 0.8034 0.52889 0.0
C1595 C 0.75685 0.78333 0.49525 0.0
O1596 O 0.76412 0.79169 0.49734 0.0
H1597 H 0.75924 0.77991 0.53253 0.0
H1598 H 0.78158 0.79971 0.51334 0.0
O1599 O 0.77385 0.76118 0.52124 0.0
H1600 H 0.80856 0.78155 0.49081 0.0
H1601 H 0.77504 0.81211 0.53056 0.0
Cu1602 Cu 0.77572 0.26618 0.51882 0.0
N1603 N 0.77543 0.25328 0.50945 0.0
N1604 N 0.76995 0.24195 0.49495 0.0
C1605 C 0.76853 0.25198 0.50016 0.0
C1606 C 0.7781 0.23674 0.50126 0.0
C1607 C 0.78144 0.24372 0.51017 0.0
O1608 O 0.77698 0.27901 0.50821 0.0
C1609 C 0.7614 0.25577 0.53375 0.0
O1610 O 0.76875 0.24784 0.53185 0.0
H1611 H 0.76267 0.25838 0.49726 0.0
H1612 H 0.78768 0.24184 0.5168 0.0
N1613 N 0.78818 0.26722 0.52921 0.0
N1614 N 0.79862 0.2736 0.54422 0.0
C1615 C 0.78861 0.27413 0.53831 0.0
C1616 C 0.79828 0.26211 0.52934 0.0
C1617 C 0.80471 0.266 0.53858 0.0
C1618 C 0.78617 0.27898 0.50272 0.0
O1619 O 0.79347 0.27097 0.50505 0.0
H1620 H 0.78163 0.27943 0.54051 0.0
H1621 H 0.80093 0.25618 0.52305 0.0
O1622 O 0.7624 0.2652 0.52845 0.0
H1623 H 0.78128 0.22838 0.49971 0.0
H1624 H 0.81333 0.26362 0.54075 0.0
Cu1625 Cu 0.2693 0.26497 0.52212 0.0
N1626 N 0.25671 0.2655 0.53157 0.0
N1627 N 0.24567 0.27068 0.54578 0.0
C1628 C 0.25599 0.27168 0.54111 0.0
C1629 C 0.23967 0.26352 0.53888 0.0
C1630 C 0.24647 0.26036 0.53015 0.0
O1631 O 0.28276 0.26282 0.53199 0.0
C1632 C 0.26133 0.28488 0.51069 0.0
O1633 O 0.25398 0.28514 0.51882 0.0
H1634 H 0.26277 0.27715 0.54433 0.0
H1635 H 0.24407 0.25482 0.52316 0.0
N1636 N 0.26863 0.2522 0.51276 0.0
N1637 N 0.27302 0.24089 0.49839 0.0
C1638 C 0.2738 0.25145 0.50275 0.0
C1639 C 0.26441 0.24176 0.51485 0.0
C1640 C 0.26708 0.23477 0.506 0.0
C1641 C 0.28699 0.26946 0.53956 0.0
O1642 O 0.28337 0.27988 0.54012 0.0
H1643 H 0.27851 0.25843 0.49902 0.0
H1644 H 0.26002 0.23931 0.52244 0.0
O1645 O 0.26935 0.27778 0.51138 0.0
H1646 H 0.23097 0.26073 0.54002 0.0
H1647 H 0.26494 0.22585 0.50532 0.0
Cu1648 Cu 0.7808 0.52705 0.77047 0.0
N1649 N 0.79346 0.53699 0.76997 0.0
N1650 N 0.80433 0.5517 0.76436 0.0
C1651 C 0.79421 0.54616 0.76312 0.0
C1652 C 0.81016 0.54575 0.77236 0.0
C1653 C 0.80345 0.53672 0.7758 0.0
O1654 O 0.76763 0.53698 0.77143 0.0
C1655 C 0.79075 0.51171 0.75651 0.0
O1656 O 0.79919 0.51448 0.76356 0.0
H1657 H 0.78748 0.54856 0.75718 0.0
H1658 H 0.8058 0.53032 0.78198 0.0
N1659 N 0.7809 0.51737 0.7832 0.0
N1660 N 0.77591 0.5025 0.79403 0.0
C1661 C 0.77456 0.50776 0.78387 0.0
C1662 C 0.78651 0.51822 0.79329 0.0
C1663 C 0.78344 0.50909 0.79999 0.0
C1664 C 0.76715 0.54229 0.78082 0.0
O1665 O 0.77497 0.54038 0.78874 0.0
H1666 H 0.76886 0.50486 0.77707 0.0
H1667 H 0.79225 0.52509 0.79573 0.0
O1668 O 0.78128 0.51665 0.75749 0.0
H1669 H 0.81865 0.54777 0.77559 0.0
H1670 H 0.78655 0.50745 0.80856 0.0
Cu1671 Cu 0.27121 0.51762 0.76909 0.0
N1672 N 0.27135 0.50759 0.78153 0.0
N1673 N 0.27722 0.49347 0.79296 0.0
C1674 C 0.28018 0.5012 0.78501 0.0
C1675 C 0.26611 0.49524 0.79468 0.0
C1676 C 0.26251 0.5039 0.78759 0.0
O1677 O 0.2682 0.50826 0.75555 0.0
C1678 C 0.28661 0.53615 0.76495 0.0
O1679 O 0.27968 0.53847 0.75635 0.0
H1680 H 0.28851 0.50194 0.78144 0.0
H1681 H 0.25393 0.50688 0.78651 0.0
N1682 N 0.25932 0.52792 0.7698 0.0
N1683 N 0.24827 0.54241 0.76447 0.0
C1684 C 0.25509 0.53408 0.76102 0.0
C1685 C 0.25493 0.53237 0.77913 0.0
C1686 C 0.24809 0.54125 0.77588 0.0
C1687 C 0.27291 0.49878 0.75398 0.0
O1688 O 0.28185 0.49616 0.76031 0.0
H1689 H 0.25744 0.53279 0.75233 0.0
H1690 H 0.25711 0.52981 0.78773 0.0
O1691 O 0.28522 0.52686 0.77035 0.0
H1692 H 0.26078 0.49021 0.80017 0.0
H1693 H 0.24391 0.54685 0.78158 0.0
Cu1694 Cu 0.27674 0.51175 0.2716 0.0
N1695 N 0.27676 0.50237 0.28453 0.0
N1696 N 0.2715 0.48789 0.29574 0.0
C1697 C 0.27026 0.4929 0.28544 0.0
C1698 C 0.27913 0.49451 0.30153 0.0
C1699 C 0.28237 0.5034 0.29461 0.0
O1700 O 0.27731 0.50111 0.25879 0.0
C1701 C 0.26379 0.52775 0.28151 0.0
O1702 O 0.27215 0.52631 0.28897 0.0
H1703 H 0.26449 0.48993 0.27872 0.0
H1704 H 0.28822 0.51024 0.29687 0.0
N1705 N 0.2894 0.52166 0.271 0.0
N1706 N 0.30012 0.53643 0.26533 0.0
C1707 C 0.29001 0.53086 0.26419 0.0
C1708 C 0.29947 0.5214 0.2767 0.0
C1709 C 0.30609 0.53047 0.27321 0.0
C1710 C 0.28685 0.49624 0.25789 0.0
O1711 O 0.29523 0.49912 0.26494 0.0
H1712 H 0.2832 0.53328 0.25836 0.0
H1713 H 0.3019 0.515 0.28285 0.0
O1714 O 0.26362 0.52179 0.27247 0.0
H1715 H 0.28219 0.49305 0.31016 0.0
H1716 H 0.31462 0.53253 0.27633 0.0
Cu1717 Cu 0.77381 0.51889 0.26197 0.0
N1718 N 0.78686 0.50991 0.26314 0.0
N1719 N 0.79799 0.4957 0.2691 0.0
C1720 C 0.78783 0.50073 0.26995 0.0
C1721 C 0.80361 0.50204 0.26142 0.0
C1722 C 0.79675 0.51077 0.25777 0.0
O1723 O 0.76106 0.5079 0.26062 0.0
C1724 C 0.78364 0.53577 0.27467 0.0
O1725 O 0.79082 0.5342 0.26655 0.0
H1726 H 0.78108 0.49771 0.27527 0.0
H1727 H 0.79887 0.5173 0.25168 0.0
N1728 N 0.77299 0.52827 0.249 0.0
N1729 N 0.76708 0.54257 0.23779 0.0
C1730 C 0.76631 0.53738 0.24802 0.0
C1731 C 0.77822 0.52761 0.23905 0.0
C1732 C 0.77461 0.53641 0.23213 0.0
C1733 C 0.76216 0.50123 0.25223 0.0
O1734 O 0.77093 0.50288 0.24577 0.0
H1735 H 0.76104 0.54017 0.25477 0.0
H1736 H 0.78411 0.52112 0.23689 0.0
O1737 O 0.77467 0.52949 0.2748 0.0
H1738 H 0.81215 0.5006 0.25869 0.0
H1739 H 0.77718 0.53797 0.22352 0.0
Cu1740 Cu 0.52846 0.26736 0.77394 0.0
N1741 N 0.51906 0.26698 0.7866 0.0
N1742 N 0.50474 0.27167 0.79772 0.0
C1743 C 0.50992 0.27354 0.78776 0.0
C1744 C 0.51094 0.26357 0.803 0.0
C1745 C 0.51973 0.26071 0.79616 0.0
O1746 O 0.51785 0.26765 0.76076 0.0
C1747 C 0.54586 0.27855 0.78489 0.0
O1748 O 0.54432 0.26932 0.79097 0.0
H1749 H 0.50726 0.27969 0.78144 0.0
H1750 H 0.5262 0.25457 0.79808 0.0
N1751 N 0.53751 0.25448 0.77243 0.0
N1752 N 0.55149 0.24369 0.76614 0.0
C1753 C 0.54658 0.25396 0.76573 0.0
C1754 C 0.53661 0.24416 0.77726 0.0
C1755 C 0.54519 0.23752 0.77342 0.0
C1756 C 0.51162 0.25868 0.76014 0.0
O1757 O 0.51323 0.25075 0.76785 0.0
H1758 H 0.54956 0.26108 0.76075 0.0
H1759 H 0.53008 0.24156 0.78303 0.0
O1760 O 0.53931 0.28005 0.77618 0.0
H1761 H 0.50923 0.25985 0.8112 0.0
H1762 H 0.54652 0.22874 0.77567 0.0
Cu1763 Cu 0.51989 0.77461 0.76962 0.0
N1764 N 0.53025 0.77354 0.78211 0.0
N1765 N 0.54537 0.76765 0.79251 0.0
C1766 C 0.53932 0.76671 0.78259 0.0
C1767 C 0.53982 0.77543 0.7985 0.0
C1768 C 0.53056 0.77903 0.79208 0.0
O1769 O 0.52951 0.77612 0.75634 0.0
C1770 C 0.50464 0.75999 0.77966 0.0
O1771 O 0.5077 0.76665 0.78814 0.0
H1772 H 0.54131 0.76105 0.77577 0.0
H1773 H 0.52444 0.78517 0.79458 0.0
N1774 N 0.51051 0.78736 0.76985 0.0
N1775 N 0.49594 0.7986 0.76502 0.0
C1776 C 0.50068 0.78836 0.76374 0.0
C1777 C 0.51204 0.79731 0.77523 0.0
C1778 C 0.5031 0.80424 0.77228 0.0
C1779 C 0.53586 0.78503 0.75655 0.0
O1780 O 0.53497 0.79204 0.76508 0.0
H1781 H 0.49726 0.78177 0.75821 0.0
H1782 H 0.51924 0.7995 0.78075 0.0
O1783 O 0.50932 0.76155 0.77011 0.0
H1784 H 0.54231 0.77843 0.80688 0.0
H1785 H 0.50199 0.81278 0.77526 0.0
Cu1786 Cu 0.51347 0.76882 0.26082 0.0
N1787 N 0.50326 0.78081 0.26092 0.0
N1788 N 0.48916 0.79164 0.26677 0.0
C1789 C 0.49706 0.78392 0.26977 0.0
C1790 C 0.49062 0.79356 0.25558 0.0
C1791 C 0.49927 0.78685 0.25201 0.0
O1792 O 0.50441 0.75506 0.2576 0.0
C1793 C 0.53184 0.76439 0.27645 0.0
O1794 O 0.53431 0.7564 0.26928 0.0
H1795 H 0.49808 0.78025 0.27817 0.0
H1796 H 0.50206 0.78602 0.2434 0.0
N1797 N 0.52388 0.77055 0.24916 0.0
N1798 N 0.53846 0.76634 0.23821 0.0
C1799 C 0.53009 0.76224 0.2448 0.0
C1800 C 0.52833 0.78026 0.24508 0.0
C1801 C 0.53727 0.7777 0.2383 0.0
C1802 C 0.49494 0.75288 0.26218 0.0
O1803 O 0.49208 0.75883 0.27098 0.0
H1804 H 0.5288 0.75339 0.2469 0.0
H1805 H 0.52572 0.78863 0.24743 0.0
O1806 O 0.52252 0.76958 0.27502 0.0
H1807 H 0.48542 0.79895 0.2502 0.0
H1808 H 0.54288 0.78382 0.23436 0.0
Cu1809 Cu 0.51926 0.25861 0.26729 0.0
N1810 N 0.50898 0.24619 0.26712 0.0
N1811 N 0.49397 0.23545 0.27212 0.0
C1812 C 0.49978 0.24535 0.27365 0.0
C1813 C 0.49978 0.22986 0.26427 0.0
C1814 C 0.50901 0.23648 0.26123 0.0
O1815 O 0.50945 0.27193 0.26778 0.0
C1816 C 0.53619 0.24705 0.27844 0.0
O1817 O 0.53368 0.24075 0.26953 0.0
H1818 H 0.49742 0.25196 0.27939 0.0
H1819 H 0.51539 0.23423 0.25529 0.0
N1820 N 0.52796 0.25994 0.25418 0.0
N1821 N 0.54185 0.26615 0.24294 0.0
C1822 C 0.53722 0.26676 0.25329 0.0
C1823 C 0.52665 0.25481 0.24405 0.0
C1824 C 0.53518 0.25861 0.23712 0.0
C1825 C 0.5038 0.27375 0.25852 0.0
O1826 O 0.50543 0.26716 0.24981 0.0
H1827 H 0.54054 0.27197 0.26019 0.0
H1828 H 0.51987 0.24888 0.24176 0.0
O1829 O 0.53054 0.25607 0.27974 0.0
H1830 H 0.49772 0.22146 0.26112 0.0
H1831 H 0.53622 0.25616 0.22839 0.0
H1832 H 0.19597 0.20763 0.13064 0.0
H1833 H 0.20177 0.21909 0.11432 0.0
H1834 H 0.23684 0.2163 0.1253 0.0
H1835 H 0.23114 0.20497 0.14165 0.0
H1836 H 0.21425 0.23971 0.11312 0.0
H1837 H 0.23695 0.20507 0.09249 0.0
H1838 H 0.2273 0.20254 0.10388 0.0
H1839 H 0.24155 0.20764 0.10693 0.0
C1840 C 0.20491 0.20954 0.12966 0.0
C1841 C 0.21308 0.20524 0.13744 0.0
C1842 C 0.20822 0.21606 0.12028 0.0
C1843 C 0.21976 0.21837 0.11844 0.0
C1844 C 0.2279 0.21439 0.12636 0.0
H1845 H 0.25881 0.25382 0.06741 0.0
H1846 H 0.25215 0.24327 0.0839 0.0
C1847 C 0.22462 0.20789 0.13572 0.0
C1848 C 0.22333 0.22496 0.10827 0.0
H1849 H 0.23936 0.22349 0.08464 0.0
C1850 C 0.21968 0.23615 0.10686 0.0
C1851 C 0.23042 0.22032 0.10008 0.0
C1852 C 0.23421 0.2082 0.10082 0.0
C1853 C 0.22318 0.2429 0.09765 0.0
C1854 C 0.23034 0.23827 0.08951 0.0
C1855 C 0.23391 0.22706 0.09089 0.0
C1856 C 0.2343 0.24491 0.07951 0.0
C1857 C 0.21942 0.25502 0.09692 0.0
C1858 C 0.22651 0.24928 0.07144 0.0
C1859 C 0.2303 0.2553 0.06195 0.0
C1860 C 0.24199 0.25702 0.06024 0.0
C1861 C 0.24976 0.25258 0.06833 0.0
C1862 C 0.24596 0.24657 0.07782 0.0
H1863 H 0.2166 0.25812 0.10524 0.0
H1864 H 0.22637 0.26069 0.09397 0.0
H1865 H 0.21215 0.25562 0.09075 0.0
H1866 H 0.21747 0.24788 0.07238 0.0
H1867 H 0.22405 0.25841 0.05584 0.0
H1868 H 0.81836 0.19912 0.11999 0.0
H1869 H 0.81194 0.20964 0.10316 0.0
H1870 H 0.8277 0.24012 0.11674 0.0
H1871 H 0.83409 0.22966 0.1337 0.0
H1872 H 0.7977 0.22807 0.10204 0.0
H1873 H 0.83966 0.23943 0.08456 0.0
H1874 H 0.83794 0.22872 0.0954 0.0
H1875 H 0.83803 0.24347 0.09908 0.0
C1876 C 0.82045 0.20807 0.11945 0.0
C1877 C 0.82674 0.21352 0.12827 0.0
C1878 C 0.81681 0.21407 0.10977 0.0
C1879 C 0.81943 0.22565 0.10859 0.0
C1880 C 0.82577 0.23113 0.11732 0.0
H1881 H 0.80188 0.27631 0.05715 0.0
H1882 H 0.8092 0.26607 0.07385 0.0
C1883 C 0.82942 0.22513 0.12703 0.0
C1884 C 0.81514 0.23202 0.09842 0.0
H1885 H 0.82355 0.24774 0.07559 0.0
C1886 C 0.80336 0.23233 0.09623 0.0
C1887 C 0.82251 0.23763 0.09086 0.0
C1888 C 0.83524 0.23724 0.0925 0.0
C1889 C 0.79875 0.2382 0.0868 0.0
C1890 C 0.80611 0.24375 0.07919 0.0
C1891 C 0.8179 0.24349 0.0814 0.0
C1892 C 0.80175 0.24988 0.0689 0.0
C1893 C 0.786 0.23862 0.08523 0.0
C1894 C 0.79527 0.24418 0.06042 0.0
C1895 C 0.79105 0.25002 0.05085 0.0
C1896 C 0.79328 0.26169 0.0495 0.0
C1897 C 0.79996 0.26734 0.05791 0.0
C1898 C 0.80417 0.26149 0.06747 0.0
H1899 H 0.78164 0.23668 0.09326 0.0
H1900 H 0.78332 0.24708 0.08212 0.0
H1901 H 0.78313 0.23222 0.07885 0.0
H1902 H 0.79349 0.23518 0.06119 0.0
H1903 H 0.78601 0.24538 0.04453 0.0
H1904 H 0.82865 0.81738 0.1258 0.0
H1905 H 0.82302 0.80749 0.10821 0.0
H1906 H 0.809 0.83831 0.09459 0.0
H1907 H 0.81439 0.84819 0.11212 0.0
H1908 H 0.80144 0.80431 0.09766 0.0
H1909 H 0.82985 0.82854 0.06948 0.0
H1910 H 0.83161 0.82874 0.08475 0.0
H1911 H 0.82118 0.83747 0.07772 0.0
C1912 C 0.82431 0.82206 0.1191 0.0
C1913 C 0.82209 0.83366 0.12043 0.0
C1914 C 0.82115 0.81639 0.109 0.0
C1915 C 0.81577 0.82219 0.09995 0.0
C1916 C 0.81341 0.8337 0.1013 0.0
H1917 H 0.78148 0.81349 0.03657 0.0
H1918 H 0.79186 0.81911 0.05384 0.0
C1919 C 0.81653 0.83936 0.11137 0.0
C1920 C 0.81235 0.81624 0.08917 0.0
H1921 H 0.81466 0.81794 0.06035 0.0
C1922 C 0.80446 0.80716 0.08951 0.0
C1923 C 0.81635 0.81987 0.07851 0.0
C1924 C 0.8253 0.82911 0.07756 0.0
C1925 C 0.79997 0.80211 0.07947 0.0
C1926 C 0.80358 0.80612 0.06879 0.0
C1927 C 0.81185 0.81485 0.0685 0.0
C1928 C 0.79796 0.80237 0.05785 0.0
C1929 C 0.79092 0.79296 0.08036 0.0
C1930 C 0.79813 0.79107 0.05408 0.0
C1931 C 0.79215 0.78778 0.04404 0.0
C1932 C 0.78589 0.79575 0.03765 0.0
C1933 C 0.78613 0.80709 0.04128 0.0
C1934 C 0.7921 0.81035 0.05119 0.0
H1935 H 0.78773 0.79213 0.08911 0.0
H1936 H 0.78364 0.79471 0.07445 0.0
H1937 H 0.79449 0.78472 0.07795 0.0
H1938 H 0.80275 0.78478 0.05896 0.0
H1939 H 0.79212 0.77899 0.0415 0.0
H1940 H 0.21991 0.83879 0.1172 0.0
H1941 H 0.2294 0.83186 0.10055 0.0
H1942 H 0.21661 0.7981 0.10724 0.0
H1943 H 0.20706 0.80499 0.12397 0.0
H1944 H 0.246 0.81623 0.09936 0.0
H1945 H 0.20819 0.80172 0.07381 0.0
H1946 H 0.20713 0.81057 0.08615 0.0
H1947 H 0.20917 0.7956 0.08778 0.0
C1948 C 0.21911 0.82987 0.11517 0.0
C1949 C 0.21271 0.82246 0.122 0.0
C1950 C 0.22452 0.82593 0.10559 0.0
C1951 C 0.22365 0.81447 0.10251 0.0
C1952 C 0.21722 0.80703 0.10925 0.0
H1953 H 0.25464 0.77581 0.04883 0.0
H1954 H 0.24425 0.78181 0.06531 0.0
C1955 C 0.21177 0.81098 0.11885 0.0
C1956 C 0.22982 0.81033 0.09248 0.0
H1957 H 0.22618 0.7972 0.06677 0.0
C1958 C 0.24165 0.81211 0.09222 0.0
C1959 C 0.22418 0.8049 0.08315 0.0
C1960 C 0.21146 0.80316 0.08264 0.0
C1961 C 0.24797 0.80854 0.083 0.0
C1962 C 0.24232 0.80319 0.07364 0.0
C1963 C 0.23052 0.8013 0.07393 0.0
C1964 C 0.24852 0.7996 0.06344 0.0
C1965 C 0.26068 0.81037 0.08344 0.0
C1966 C 0.25426 0.8076 0.05673 0.0
C1967 C 0.26016 0.80421 0.04721 0.0
C1968 C 0.26045 0.79272 0.04411 0.0
C1969 C 0.25456 0.78474 0.0508 0.0
C1970 C 0.24863 0.78815 0.0603 0.0
H1971 H 0.26399 0.81184 0.09225 0.0
H1972 H 0.26503 0.80298 0.07991 0.0
H1973 H 0.26289 0.81793 0.07827 0.0
H1974 H 0.25412 0.81651 0.05882 0.0
H1975 H 0.26438 0.81066 0.04223 0.0
H1976 H 0.21237 0.80403 0.89723 0.0
H1977 H 0.21795 0.79227 0.91363 0.0
H1978 H 0.21985 0.82197 0.93474 0.0
H1979 H 0.21394 0.83365 0.91858 0.0
H1980 H 0.2376 0.79319 0.92654 0.0
H1981 H 0.20152 0.80064 0.95416 0.0
H1982 H 0.20111 0.80427 0.93925 0.0
H1983 H 0.20785 0.81371 0.94947 0.0
C1984 C 0.21377 0.80803 0.90541 0.0
C1985 C 0.2127 0.81983 0.90653 0.0
C1986 C 0.21703 0.80129 0.91478 0.0
C1987 C 0.21917 0.80617 0.92551 0.0
C1988 C 0.21802 0.81792 0.92664 0.0
H1989 H 0.25253 0.79636 0.98848 0.0
H1990 H 0.2411 0.80159 0.97176 0.0
C1991 C 0.21478 0.82464 0.91732 0.0
C1992 C 0.22322 0.7992 0.93541 0.0
H1993 H 0.21873 0.79416 0.96355 0.0
C1994 C 0.23334 0.7932 0.93457 0.0
C1995 C 0.21765 0.79911 0.9459 0.0
C1996 C 0.20636 0.80468 0.94722 0.0
C1997 C 0.23841 0.78778 0.94408 0.0
C1998 C 0.23317 0.78827 0.95471 0.0
C1999 C 0.22276 0.79379 0.95542 0.0
C2000 C 0.23908 0.78451 0.96542 0.0
C2001 C 0.24968 0.78215 0.94286 0.0
C2002 C 0.24148 0.77306 0.96768 0.0
C2003 C 0.24798 0.76999 0.97741 0.0
C2004 C 0.25226 0.77836 0.98493 0.0
C2005 C 0.24941 0.78971 0.98284 0.0
C2006 C 0.24286 0.79273 0.97327 0.0
H2007 H 0.25324 0.78361 0.93435 0.0
H2008 H 0.2559 0.78535 0.94942 0.0
H2009 H 0.24858 0.77289 0.94418 0.0
H2010 H 0.23855 0.76655 0.96179 0.0
H2011 H 0.2501 0.7612 0.97876 0.0
H2012 H 0.23949 0.20551 0.91338 0.0
H2013 H 0.24915 0.21204 0.93095 0.0
H2014 H 0.21672 0.217 0.94592 0.0
H2015 H 0.20704 0.21058 0.92846 0.0
H2016 H 0.2483 0.23247 0.94191 0.0
H2017 H 0.23283 0.1985 0.97032 0.0
H2018 H 0.23161 0.19748 0.95505 0.0
H2019 H 0.2214 0.20531 0.96274 0.0
C2020 C 0.2344 0.20799 0.9204 0.0
C2021 C 0.22245 0.20738 0.91947 0.0
C2022 C 0.23995 0.21169 0.93048 0.0
C2023 C 0.23369 0.2148 0.93989 0.0
C2024 C 0.22178 0.21433 0.93893 0.0
H2025 H 0.23897 0.24885 1.00256 0.0
H2026 H 0.23451 0.23769 0.98565 0.0
C2027 C 0.21623 0.21064 0.9289 0.0
C2028 C 0.23951 0.21898 0.95057 0.0
H2029 H 0.24017 0.21539 0.97942 0.0
C2030 C 0.2467 0.22861 0.9501 0.0
C2031 C 0.23751 0.21393 0.96128 0.0
C2032 C 0.23051 0.20316 0.96239 0.0
C2033 C 0.25134 0.2337 0.96004 0.0
C2034 C 0.24885 0.22896 0.97078 0.0
C2035 C 0.24208 0.21905 0.97121 0.0
C2036 C 0.252 0.23489 0.98162 0.0
C2037 C 0.25835 0.24447 0.95903 0.0
C2038 C 0.26338 0.23679 0.98527 0.0
C2039 C 0.266 0.24317 0.99512 0.0
C2040 C 0.25726 0.24781 1.00139 0.0
C2041 C 0.24592 0.24547 0.99791 0.0
C2042 C 0.24334 0.23906 0.98822 0.0
H2043 H 0.25812 0.24794 0.95025 0.0
H2044 H 0.25528 0.25101 0.96486 0.0
H2045 H 0.26732 0.24274 0.9615 0.0
H2046 H 0.27023 0.23352 0.98041 0.0
H2047 H 0.27481 0.24488 0.99753 0.0
H2048 H 0.85384 0.21723 0.91538 0.0
H2049 H 0.84471 0.22442 0.93218 0.0
H2050 H 0.81491 0.23236 0.91178 0.0
H2051 H 0.8239 0.22498 0.89494 0.0
H2052 H 0.83663 0.24673 0.93519 0.0
H2053 H 0.80194 0.21445 0.93893 0.0
H2054 H 0.81429 0.21218 0.93059 0.0
H2055 H 0.80314 0.22107 0.92523 0.0
C2056 C 0.84527 0.22034 0.91447 0.0
C2057 C 0.8396 0.22046 0.90377 0.0
C2058 C 0.84009 0.22452 0.92409 0.0
C2059 C 0.82907 0.22881 0.92329 0.0
C2060 C 0.82335 0.22893 0.91266 0.0
H2061 H 0.78667 0.25849 0.97524 0.0
H2062 H 0.79359 0.25077 0.95746 0.0
C2063 C 0.82855 0.22481 0.903 0.0
C2064 C 0.8238 0.23358 0.93353 0.0
H2065 H 0.80195 0.22979 0.95172 0.0
C2066 C 0.82905 0.24302 0.93881 0.0
C2067 C 0.81384 0.22881 0.93819 0.0
C2068 C 0.80798 0.21851 0.93303 0.0
C2069 C 0.82464 0.24782 0.94859 0.0
C2070 C 0.81485 0.24288 0.95345 0.0
C2071 C 0.80946 0.23356 0.94805 0.0
C2072 C 0.81036 0.24706 0.96434 0.0
C2073 C 0.83045 0.25826 0.95353 0.0
C2074 C 0.81733 0.24724 0.97422 0.0
C2075 C 0.81341 0.25165 0.98434 0.0
C2076 C 0.80236 0.25589 0.9849 0.0
C2077 C 0.79521 0.25528 0.97512 0.0
C2078 C 0.79917 0.25091 0.96494 0.0
H2079 H 0.83542 0.26292 0.94707 0.0
H2080 H 0.8242 0.26411 0.95704 0.0
H2081 H 0.83643 0.25572 0.9605 0.0
H2082 H 0.82586 0.24402 0.9741 0.0
H2083 H 0.81907 0.25172 0.99175 0.0
H2084 H 0.82559 0.82415 0.89344 0.0
H2085 H 0.81588 0.81649 0.90999 0.0
H2086 H 0.8078 0.85033 0.92008 0.0
H2087 H 0.8171 0.85801 0.90341 0.0
H2088 H 0.82006 0.82025 0.93303 0.0
H2089 H 0.77689 0.83435 0.92033 0.0
H2090 H 0.78842 0.83431 0.91059 0.0
H2091 H 0.78735 0.84562 0.92063 0.0
C2092 C 0.82164 0.82997 0.8991 0.0
C2093 C 0.82213 0.84172 0.89701 0.0
C2094 C 0.81615 0.82557 0.90862 0.0
C2095 C 0.81093 0.83281 0.91621 0.0
C2096 C 0.81155 0.84454 0.91425 0.0
H2097 H 0.77459 0.82576 0.97887 0.0
H2098 H 0.78427 0.8323 0.96193 0.0
C2099 C 0.81703 0.84894 0.90476 0.0
C2100 C 0.80498 0.82814 0.92626 0.0
H2101 H 0.7794 0.8275 0.93925 0.0
C2102 C 0.81115 0.82177 0.93435 0.0
C2103 C 0.79334 0.83009 0.928 0.0
C2104 C 0.78607 0.83637 0.91938 0.0
C2105 C 0.8061 0.81759 0.94426 0.0
C2106 C 0.79449 0.81967 0.94606 0.0
C2107 C 0.7883 0.82594 0.93791 0.0
C2108 C 0.78863 0.81556 0.9564 0.0
C2109 C 0.81333 0.81128 0.95288 0.0
C2110 C 0.78769 0.80394 0.9589 0.0
C2111 C 0.78211 0.80015 0.96859 0.0
C2112 C 0.77724 0.80789 0.97599 0.0
C2113 C 0.7781 0.81952 0.97336 0.0
C2114 C 0.7837 0.82329 0.96368 0.0
H2115 H 0.82254 0.8129 0.95167 0.0
H2116 H 0.81127 0.81369 0.96166 0.0
H2117 H 0.81165 0.80205 0.95193 0.0
H2118 H 0.79118 0.79777 0.95328 0.0
H2119 H 0.78145 0.79113 0.97017 0.0
H2120 H 0.13664 0.21975 0.22009 0.0
H2121 H 0.12017 0.22564 0.23051 0.0
H2122 H 0.10878 0.19085 0.23315 0.0
H2123 H 0.12521 0.18486 0.22262 0.0
H2124 H 0.09734 0.22262 0.22456 0.0
H2125 H 0.10724 0.20174 0.26591 0.0
H2126 H 0.11764 0.2036 0.25509 0.0
H2127 H 0.10708 0.19244 0.2539 0.0
C2128 C 0.13063 0.21332 0.22285 0.0
C2129 C 0.13229 0.20181 0.22046 0.0
C2130 C 0.12123 0.21672 0.22886 0.0
C2131 C 0.11327 0.2087 0.23274 0.0
C2132 C 0.11491 0.19719 0.23046 0.0
H2133 H 0.04973 0.21425 0.26839 0.0
H2134 H 0.06635 0.20768 0.25861 0.0
C2135 C 0.12434 0.19377 0.22443 0.0
C2136 C 0.10306 0.21249 0.23878 0.0
H2137 H 0.08922 0.2102 0.26381 0.0
C2138 C 0.09559 0.21993 0.23316 0.0
C2139 C 0.10073 0.20896 0.24999 0.0
C2140 C 0.10863 0.20132 0.25664 0.0
C2141 C 0.08581 0.22381 0.23835 0.0
C2142 C 0.08351 0.22036 0.2496 0.0
C2143 C 0.09095 0.21287 0.2552 0.0
C2144 C 0.07345 0.22444 0.2557 0.0
C2145 C 0.07788 0.23137 0.23163 0.0
C2146 C 0.07195 0.23605 0.25752 0.0
C2147 C 0.06244 0.23985 0.26314 0.0
C2148 C 0.05423 0.23211 0.26718 0.0
C2149 C 0.05588 0.22047 0.26551 0.0
C2150 C 0.06538 0.21668 0.25986 0.0
H2151 H 0.07907 0.23062 0.22235 0.0
H2152 H 0.06887 0.22932 0.23342 0.0
H2153 H 0.07966 0.24032 0.23402 0.0
H2154 H 0.07819 0.2422 0.25466 0.0
H2155 H 0.06161 0.24885 0.26445 0.0
H2156 H 0.82191 0.13677 0.22807 0.0
H2157 H 0.81087 0.11977 0.233 0.0
H2158 H 0.81531 0.10654 0.19946 0.0
H2159 H 0.82664 0.12337 0.19456 0.0
H2160 H 0.79081 0.11065 0.22324 0.0
H2161 H 0.82608 0.08054 0.2199 0.0
H2162 H 0.82842 0.09568 0.22041 0.0
H2163 H 0.82358 0.08902 0.20741 0.0
C2164 C 0.82064 0.13021 0.22176 0.0
C2165 C 0.82528 0.13145 0.21093 0.0
C2166 C 0.81425 0.12051 0.22458 0.0
C2167 C 0.81239 0.11176 0.21668 0.0
C2168 C 0.81679 0.11306 0.20579 0.0
H2169 H 0.77846 0.04565 0.21821 0.0
H2170 H 0.78844 0.06312 0.21305 0.0
C2171 C 0.82317 0.12277 0.20295 0.0
C2172 C 0.80582 0.10132 0.21985 0.0
H2173 H 0.80776 0.07257 0.22262 0.0
C2174 C 0.79453 0.10232 0.22314 0.0
C2175 C 0.81065 0.09044 0.21974 0.0
C2176 C 0.82288 0.08881 0.21678 0.0
C2177 C 0.78788 0.09276 0.22609 0.0
C2178 C 0.79271 0.08187 0.22597 0.0
C2179 C 0.80402 0.08088 0.2227 0.0
C2180 C 0.7862 0.07138 0.22913 0.0
C2181 C 0.77565 0.09439 0.22902 0.0
C2182 C 0.7816 0.07009 0.23994 0.0
C2183 C 0.77576 0.06008 0.24292 0.0
C2184 C 0.77444 0.05106 0.23519 0.0
C2185 C 0.77909 0.0524 0.22437 0.0
C2186 C 0.78492 0.0624 0.22141 0.0
H2187 H 0.77241 0.10258 0.2257 0.0
H2188 H 0.77013 0.08742 0.22556 0.0
H2189 H 0.77496 0.09441 0.23838 0.0
H2190 H 0.78266 0.07677 0.24615 0.0
H2191 H 0.77227 0.05945 0.25128 0.0
H2192 H 0.89702 0.8127 0.20892 0.0
H2193 H 0.9139 0.80618 0.21939 0.0
H2194 H 0.92714 0.84045 0.2209 0.0
H2195 H 0.9103 0.84705 0.21031 0.0
H2196 H 0.9364 0.80816 0.21293 0.0
H2197 H 0.93064 0.82984 0.25396 0.0
H2198 H 0.91932 0.82829 0.24337 0.0
H2199 H 0.93023 0.83897 0.24171 0.0
C2200 C 0.90351 0.81888 0.21145 0.0
C2201 C 0.90227 0.83043 0.20871 0.0
C2202 C 0.91315 0.81513 0.2175 0.0
C2203 C 0.92176 0.82282 0.22106 0.0
C2204 C 0.92052 0.83437 0.21846 0.0
H2205 H 0.98758 0.81431 0.25598 0.0
H2206 H 0.97057 0.82174 0.24638 0.0
C2207 C 0.91086 0.83814 0.2124 0.0
C2208 C 0.93222 0.81862 0.22703 0.0
H2209 H 0.94801 0.82043 0.25183 0.0
C2210 C 0.93891 0.81081 0.22145 0.0
C2211 C 0.93555 0.82213 0.23813 0.0
C2212 C 0.92853 0.83019 0.24471 0.0
C2213 C 0.94888 0.80651 0.22659 0.0
C2214 C 0.95215 0.80991 0.23774 0.0
C2215 C 0.94551 0.81779 0.24329 0.0
C2216 C 0.96242 0.80535 0.24379 0.0
C2217 C 0.95594 0.79856 0.2199 0.0
C2218 C 0.96345 0.79367 0.24575 0.0
C2219 C 0.97318 0.78938 0.25125 0.0
C2220 C 0.98208 0.79669 0.25504 0.0
C2221 C 0.9809 0.80842 0.25328 0.0
C2222 C 0.97118 0.81269 0.24774 0.0
H2223 H 0.95413 0.79936 0.21062 0.0
H2224 H 0.96515 0.80016 0.22158 0.0
H2225 H 0.95389 0.7897 0.22243 0.0
H2226 H 0.9567 0.78784 0.24308 0.0
H2227 H 0.97366 0.78034 0.25265 0.0
H2228 H 0.2115 0.88781 0.21178 0.0
H2229 H 0.21978 0.90452 0.22141 0.0
H2230 H 0.18637 0.91816 0.22444 0.0
H2231 H 0.17805 0.90162 0.21474 0.0
H2232 H 0.21849 0.92801 0.21608 0.0
H2233 H 0.19901 0.91818 0.25732 0.0
H2234 H 0.19968 0.9079 0.24611 0.0
H2235 H 0.18902 0.91858 0.24551 0.0
C2236 C 0.20592 0.89441 0.21438 0.0
C2237 C 0.19407 0.89326 0.21258 0.0
C2238 C 0.21067 0.90394 0.21994 0.0
C2239 C 0.20368 0.9125 0.22387 0.0
C2240 C 0.19192 0.91154 0.22176 0.0
H2241 H 0.21183 0.97554 0.26067 0.0
H2242 H 0.2051 0.95874 0.2503 0.0
C2243 C 0.18717 0.90205 0.21621 0.0
C2244 C 0.20863 0.92242 0.23019 0.0
H2245 H 0.2078 0.93634 0.2555 0.0
C2246 C 0.21623 0.9298 0.22473 0.0
C2247 C 0.20569 0.92475 0.24149 0.0
C2248 C 0.19798 0.91689 0.24801 0.0
C2249 C 0.22066 0.93962 0.23011 0.0
C2250 C 0.2176 0.94203 0.24137 0.0
C2251 C 0.21013 0.93455 0.24687 0.0
C2252 C 0.22186 0.95234 0.24756 0.0
C2253 C 0.22829 0.94753 0.22356 0.0
C2254 C 0.23354 0.95433 0.24962 0.0
C2255 C 0.23743 0.96396 0.25559 0.0
C2256 C 0.22972 0.97178 0.25975 0.0
C2257 C 0.21802 0.96969 0.25774 0.0
C2258 C 0.21415 0.96008 0.25175 0.0
H2259 H 0.22738 0.9461 0.21426 0.0
H2260 H 0.22641 0.95651 0.22532 0.0
H2261 H 0.23726 0.94603 0.22616 0.0
H2262 H 0.23967 0.94835 0.24675 0.0
H2263 H 0.24647 0.96516 0.25713 0.0
H2264 H 0.13844 0.82869 0.80347 0.0
H2265 H 0.12139 0.82368 0.79193 0.0
H2266 H 0.10182 0.82168 0.82221 0.0
H2267 H 0.11862 0.82703 0.83369 0.0
H2268 H 0.10837 0.80436 0.79256 0.0
H2269 H 0.08153 0.84071 0.80196 0.0
H2270 H 0.0966 0.84077 0.80524 0.0
H2271 H 0.08679 0.83404 0.81472 0.0
C2272 C 0.13046 0.8274 0.80765 0.0
C2273 C 0.12995 0.82827 0.81954 0.0
C2274 C 0.12072 0.82446 0.80104 0.0
C2275 C 0.11023 0.82247 0.80615 0.0
C2276 C 0.10971 0.82342 0.81799 0.0
H2277 H 0.04634 0.79069 0.79604 0.0
H2278 H 0.06336 0.80161 0.80159 0.0
C2279 C 0.1194 0.82633 0.82459 0.0
C2280 C 0.09996 0.81875 0.79928 0.0
H2281 H 0.07167 0.82391 0.795 0.0
C2282 C 0.1004 0.80877 0.79289 0.0
C2283 C 0.08954 0.82451 0.79964 0.0
C2284 C 0.0886 0.83567 0.80566 0.0
C2285 C 0.0906 0.80403 0.78748 0.0
C2286 C 0.08007 0.80947 0.78838 0.0
C2287 C 0.07973 0.81972 0.79432 0.0
C2288 C 0.06915 0.80393 0.78449 0.0
C2289 C 0.09143 0.79289 0.7814 0.0
C2290 C 0.06649 0.80189 0.77294 0.0
C2291 C 0.05659 0.79568 0.76969 0.0
C2292 C 0.04931 0.79135 0.77797 0.0
C2293 C 0.05179 0.79386 0.78945 0.0
C2294 C 0.06153 0.80012 0.79265 0.0
H2295 H 0.09992 0.78907 0.78265 0.0
H2296 H 0.08488 0.78678 0.78441 0.0
H2297 H 0.08984 0.79423 0.77216 0.0
H2298 H 0.07219 0.80485 0.76648 0.0
H2299 H 0.05495 0.79381 0.7608 0.0
H2300 H 0.23805 0.1339 0.8275 0.0
H2301 H 0.24377 0.11724 0.81711 0.0
H2302 H 0.20937 0.10417 0.81695 0.0
H2303 H 0.20356 0.12076 0.82763 0.0
H2304 H 0.24046 0.09402 0.82571 0.0
H2305 H 0.21987 0.10094 0.78312 0.0
H2306 H 0.22291 0.11248 0.79283 0.0
H2307 H 0.21148 0.10268 0.79549 0.0
C2308 C 0.23166 0.1275 0.8253 0.0
C2309 C 0.22034 0.12868 0.82855 0.0
C2310 C 0.23495 0.118 0.81927 0.0
C2311 C 0.227 0.10946 0.81618 0.0
C2312 C 0.21562 0.11072 0.81909 0.0
H2313 H 0.24381 0.04467 0.78279 0.0
H2314 H 0.23252 0.06027 0.7902 0.0
C2315 C 0.21231 0.12023 0.8252 0.0
C2316 C 0.23094 0.09896 0.81068 0.0
H2317 H 0.2311 0.08473 0.78544 0.0
C2318 C 0.23833 0.09195 0.81693 0.0
C2319 C 0.22805 0.09616 0.79927 0.0
C2320 C 0.22018 0.10344 0.7922 0.0
C2321 C 0.24313 0.08242 0.81204 0.0
C2322 C 0.24074 0.07992 0.80045 0.0
C2323 C 0.23298 0.08665 0.7943 0.0
C2324 C 0.2471 0.07101 0.79452 0.0
C2325 C 0.25085 0.07515 0.81934 0.0
C2326 C 0.25895 0.07207 0.79401 0.0
C2327 C 0.26532 0.06324 0.78991 0.0
C2328 C 0.26004 0.05316 0.786 0.0
C2329 C 0.2481 0.05236 0.7857 0.0
C2330 C 0.24167 0.06124 0.78998 0.0
H2331 H 0.24904 0.07598 0.82849 0.0
H2332 H 0.24996 0.06608 0.81696 0.0
H2333 H 0.25979 0.07791 0.81817 0.0
H2334 H 0.26333 0.07961 0.7972 0.0
H2335 H 0.27449 0.06419 0.79012 0.0
H2336 H 0.9269 0.21398 0.83286 0.0
H2337 H 0.94423 0.22279 0.82563 0.0
H2338 H 0.93076 0.2194 0.79137 0.0
H2339 H 0.91325 0.21099 0.79853 0.0
H2340 H 0.95976 0.21391 0.81122 0.0
H2341 H 0.94088 0.25242 0.79182 0.0
H2342 H 0.93327 0.24339 0.80151 0.0
H2343 H 0.93447 0.23935 0.78692 0.0
C2344 C 0.92751 0.21528 0.8238 0.0
C2345 C 0.91859 0.21177 0.81631 0.0
C2346 C 0.93749 0.22024 0.81966 0.0
C2347 C 0.93879 0.2219 0.80794 0.0
C2348 C 0.92992 0.21841 0.80045 0.0
H2349 H 0.99603 0.25365 0.77155 0.0
H2350 H 0.97885 0.24218 0.77546 0.0
C2351 C 0.91994 0.21346 0.80457 0.0
C2352 C 0.94954 0.227 0.8036 0.0
H2353 H 0.96033 0.2495 0.78866 0.0
C2354 C 0.95986 0.22169 0.80627 0.0
C2355 C 0.94973 0.23711 0.79705 0.0
C2356 C 0.93902 0.24347 0.79422 0.0
C2357 C 0.9703 0.22622 0.80268 0.0
C2358 C 0.97051 0.23646 0.79637 0.0
C2359 C 0.96018 0.24162 0.79343 0.0
C2360 C 0.98137 0.2425 0.79373 0.0
C2361 C 0.98105 0.22001 0.80571 0.0
C2362 C 0.98852 0.24643 0.80265 0.0
C2363 C 0.99823 0.25296 0.80044 0.0
C2364 C 1.00109 0.25575 0.78925 0.0
C2365 C 0.99414 0.25153 0.78025 0.0
C2366 C 0.98429 0.24505 0.78248 0.0
H2367 H 0.97929 0.21088 0.80736 0.0
H2368 H 0.98726 0.2208 0.79884 0.0
H2369 H 0.98499 0.22371 0.81356 0.0
H2370 H 0.98638 0.24477 0.81138 0.0
H2371 H 1.00336 0.25608 0.80759 0.0
H2372 H 0.82707 0.92173 0.82209 0.0
H2373 H 0.81875 0.9389 0.81401 0.0
H2374 H 0.8328 0.93147 0.78163 0.0
H2375 H 0.84135 0.91439 0.78966 0.0
H2376 H 0.83006 0.95767 0.80355 0.0
H2377 H 0.79888 0.93666 0.77372 0.0
H2378 H 0.80576 0.92917 0.78535 0.0
H2379 H 0.8134 0.93244 0.77276 0.0
C2380 C 0.82848 0.92375 0.81327 0.0
C2381 C 0.83489 0.91658 0.80656 0.0
C2382 C 0.82365 0.93357 0.80864 0.0
C2383 C 0.82502 0.93643 0.79717 0.0
C2384 C 0.83143 0.92934 0.79044 0.0
H2385 H 0.79354 0.99395 0.75982 0.0
H2386 H 0.80604 0.97786 0.76416 0.0
C2387 C 0.8363 0.91954 0.79507 0.0
C2388 C 0.8199 0.94695 0.79239 0.0
H2389 H 0.79949 0.95662 0.77365 0.0
C2390 C 0.82343 0.95743 0.79697 0.0
C2391 C 0.81132 0.94668 0.78369 0.0
C2392 C 0.80702 0.93565 0.77861 0.0
C2393 C 0.81848 0.9676 0.79326 0.0
C2394 C 0.80958 0.96731 0.7849 0.0
C2395 C 0.80633 0.95687 0.78002 0.0
C2396 C 0.80271 0.97749 0.78212 0.0
C2397 C 0.8228 0.97859 0.79842 0.0
C2398 C 0.7967 0.98261 0.79072 0.0
C2399 C 0.78962 0.99168 0.78828 0.0
C2400 C 0.78828 0.99592 0.77713 0.0
C2401 C 0.79446 0.99096 0.76849 0.0
C2402 C 0.80155 0.98174 0.77096 0.0
H2403 H 0.83174 0.97792 0.80158 0.0
H2404 H 0.82226 0.98567 0.79219 0.0
H2405 H 0.81755 0.98068 0.80575 0.0
H2406 H 0.79724 0.97938 0.79934 0.0
H2407 H 0.785 0.99526 0.79516 0.0
H2408 H 0.22847 0.12084 0.21176 0.0
H2409 H 0.2379 0.10328 0.21744 0.0
H2410 H 0.20541 0.08777 0.22438 0.0
H2411 H 0.19595 0.10523 0.21888 0.0
H2412 H 0.23784 0.0917 0.2381 0.0
H2413 H 0.2194 0.06439 0.20403 0.0
H2414 H 0.21887 0.07965 0.2034 0.0
H2415 H 0.20876 0.07168 0.21154 0.0
C2416 C 0.22332 0.11371 0.21452 0.0
C2417 C 0.2114 0.11448 0.21474 0.0
C2418 C 0.22874 0.10365 0.21772 0.0
C2419 C 0.22237 0.0941 0.22113 0.0
C2420 C 0.21051 0.09489 0.22148 0.0
H2421 H 0.22665 0.03042 0.25303 0.0
H2422 H 0.22248 0.04765 0.24241 0.0
C2423 C 0.2051 0.10492 0.21831 0.0
C2424 C 0.22805 0.08342 0.22474 0.0
H2425 H 0.22742 0.05482 0.22034 0.0
C2426 C 0.23574 0.08366 0.2341 0.0
C2427 C 0.22537 0.07291 0.21947 0.0
C2428 C 0.21774 0.07213 0.20898 0.0
C2429 C 0.24023 0.07362 0.23876 0.0
C2430 C 0.23709 0.06306 0.23383 0.0
C2431 C 0.22983 0.06289 0.22414 0.0
C2432 C 0.24003 0.05207 0.2394 0.0
C2433 C 0.24779 0.07433 0.24931 0.0
C2434 C 0.25133 0.04855 0.24098 0.0
C2435 C 0.25377 0.03855 0.24707 0.0
C2436 C 0.24495 0.03197 0.25171 0.0
C2437 C 0.23367 0.03531 0.24965 0.0
C2438 C 0.23125 0.04518 0.24355 0.0
H2439 H 0.248 0.08294 0.25306 0.0
H2440 H 0.24487 0.06818 0.25582 0.0
H2441 H 0.25658 0.07216 0.24716 0.0
H2442 H 0.25825 0.05364 0.2377 0.0
H2443 H 0.26255 0.03623 0.24855 0.0
H2444 H 0.22965 0.9078 0.84058 0.0
H2445 H 0.24055 0.92485 0.83538 0.0
H2446 H 0.21572 0.93214 0.80887 0.0
H2447 H 0.20486 0.91513 0.8139 0.0
H2448 H 0.25029 0.93119 0.81485 0.0
H2449 H 0.21762 0.96185 0.82638 0.0
H2450 H 0.21706 0.94719 0.8308 0.0
H2451 H 0.21244 0.95116 0.81666 0.0
C2452 C 0.22653 0.91298 0.8336 0.0
C2453 C 0.21627 0.91009 0.82776 0.0
C2454 C 0.23276 0.92277 0.83067 0.0
C2455 C 0.22886 0.92994 0.82187 0.0
C2456 C 0.21877 0.92695 0.81588 0.0
H2457 H 0.25169 0.99198 0.78912 0.0
H2458 H 0.24187 0.97464 0.79507 0.0
C2459 C 0.21254 0.91718 0.81879 0.0
C2460 C 0.23539 0.94044 0.81882 0.0
H2461 H 0.23315 0.96916 0.81599 0.0
C2462 C 0.24658 0.9395 0.81519 0.0
C2463 C 0.23056 0.95131 0.81924 0.0
C2464 C 0.2188 0.95299 0.82358 0.0
C2465 C 0.25292 0.94906 0.81165 0.0
C2466 C 0.24804 0.95992 0.81195 0.0
C2467 C 0.2369 0.96086 0.81571 0.0
C2468 C 0.25426 0.9704 0.80827 0.0
C2469 C 0.26467 0.9474 0.8073 0.0
C2470 C 0.26448 0.97392 0.81375 0.0
C2471 C 0.27018 0.98385 0.81031 0.0
C2472 C 0.26578 0.99054 0.80132 0.0
C2473 C 0.25548 0.98701 0.79593 0.0
C2474 C 0.24979 0.9771 0.79938 0.0
H2475 H 0.26602 0.93847 0.80487 0.0
H2476 H 0.26623 0.95293 0.79983 0.0
H2477 H 0.27105 0.94967 0.81407 0.0
H2478 H 0.26801 0.96904 0.82076 0.0
H2479 H 0.27809 0.98621 0.81465 0.0
H2480 H 0.1407 0.21096 0.81492 0.0
H2481 H 0.1243 0.22226 0.80931 0.0
H2482 H 0.11929 0.23047 0.84436 0.0
H2483 H 0.1357 0.21912 0.85007 0.0
H2484 H 0.10208 0.21946 0.81503 0.0
H2485 H 0.11829 0.26155 0.82947 0.0
H2486 H 0.12739 0.24952 0.82829 0.0
H2487 H 0.11854 0.25085 0.84035 0.0
C2488 C 0.13611 0.21513 0.82147 0.0
C2489 C 0.13957 0.21408 0.83298 0.0
C2490 C 0.12674 0.22165 0.81822 0.0
C2491 C 0.12059 0.22736 0.82637 0.0
C2492 C 0.12402 0.22637 0.83787 0.0
H2493 H 0.05924 0.26774 0.82236 0.0
H2494 H 0.07595 0.25715 0.82853 0.0
C2495 C 0.13342 0.21986 0.84113 0.0
C2496 C 0.11039 0.23399 0.82281 0.0
H2497 H 0.09894 0.26039 0.82328 0.0
C2498 C 0.10143 0.22842 0.8168 0.0
C2499 C 0.10947 0.24569 0.82512 0.0
C2500 C 0.11897 0.2523 0.83107 0.0
C2501 C 0.09159 0.23416 0.8132 0.0
C2502 C 0.09069 0.24586 0.81547 0.0
C2503 C 0.09961 0.25142 0.82153 0.0
C2504 C 0.08059 0.25247 0.81161 0.0
C2505 C 0.08212 0.22757 0.80718 0.0
C2506 C 0.07768 0.25356 0.80001 0.0
C2507 C 0.06814 0.25969 0.79642 0.0
C2508 C 0.06126 0.26494 0.80434 0.0
C2509 C 0.06431 0.26395 0.81596 0.0
C2510 C 0.07388 0.25783 0.81954 0.0
H2511 H 0.08281 0.21831 0.80869 0.0
H2512 H 0.07369 0.23031 0.80997 0.0
H2513 H 0.08255 0.22911 0.7979 0.0
H2514 H 0.08285 0.24973 0.7937 0.0
H2515 H 0.06626 0.2604 0.78741 0.0
H2516 H 0.8269 0.13997 0.81161 0.0
H2517 H 0.81723 0.12327 0.80328 0.0
H2518 H 0.81782 0.10685 0.83603 0.0
H2519 H 0.82763 0.12335 0.84439 0.0
H2520 H 0.82363 0.09971 0.80318 0.0
H2521 H 0.7838 0.10619 0.82602 0.0
H2522 H 0.79458 0.11717 0.82469 0.0
H2523 H 0.79643 0.10599 0.83495 0.0
C2524 C 0.82512 0.13276 0.81703 0.0
C2525 C 0.82795 0.13311 0.82872 0.0
C2526 C 0.81953 0.12323 0.81225 0.0
C2527 C 0.8166 0.11389 0.81907 0.0
C2528 C 0.81975 0.11405 0.83065 0.0
H2529 H 0.78009 0.0499 0.8108 0.0
H2530 H 0.79062 0.06669 0.81756 0.0
C2531 C 0.82535 0.12353 0.83542 0.0
C2532 C 0.81015 0.104 0.81417 0.0
H2533 H 0.78523 0.08889 0.81614 0.0
C2534 C 0.8152 0.09737 0.80595 0.0
C2535 C 0.79915 0.10095 0.81779 0.0
C2536 C 0.7931 0.10799 0.82628 0.0
C2537 C 0.8097 0.08759 0.8015 0.0
C2538 C 0.79873 0.08448 0.80519 0.0
C2539 C 0.79364 0.09122 0.81332 0.0
C2540 C 0.79242 0.0742 0.80091 0.0
C2541 C 0.81587 0.08047 0.79318 0.0
C2542 C 0.78976 0.07282 0.78928 0.0
C2543 C 0.78372 0.06319 0.78537 0.0
C2544 C 0.78007 0.05476 0.79302 0.0
C2545 C 0.78263 0.05624 0.80467 0.0
C2546 C 0.78872 0.06584 0.80855 0.0
H2547 H 0.82518 0.08219 0.79363 0.0
H2548 H 0.8143 0.0713 0.79474 0.0
H2549 H 0.81277 0.0825 0.78443 0.0
H2550 H 0.79223 0.07928 0.78322 0.0
H2551 H 0.78173 0.06246 0.77638 0.0
H2552 H 0.91148 0.81172 0.83448 0.0
H2553 H 0.92794 0.80261 0.82669 0.0
H2554 H 0.93053 0.82908 0.80151 0.0
H2555 H 0.91422 0.83846 0.80947 0.0
H2556 H 0.93104 0.79441 0.80482 0.0
H2557 H 0.9628 0.82838 0.81556 0.0
H2558 H 0.94893 0.82773 0.82164 0.0
H2559 H 0.95056 0.83291 0.80741 0.0
C2560 C 0.91561 0.81571 0.82737 0.0
C2561 C 0.91155 0.82593 0.8227 0.0
C2562 C 0.92499 0.81043 0.82286 0.0
C2563 C 0.93061 0.81523 0.81361 0.0
C2564 C 0.92648 0.82531 0.80878 0.0
H2565 H 0.99114 0.79471 0.77835 0.0
H2566 H 0.97416 0.80427 0.78434 0.0
C2567 C 0.91706 0.8306 0.81327 0.0
C2568 C 0.94069 0.80955 0.80902 0.0
H2569 H 0.96919 0.81294 0.80499 0.0
C2570 C 0.93938 0.79846 0.80486 0.0
C2571 C 0.95159 0.81484 0.80902 0.0
C2572 C 0.95364 0.82658 0.81372 0.0
C2573 C 0.94861 0.79256 0.80066 0.0
C2574 C 0.95955 0.79777 0.80083 0.0
C2575 C 0.96083 0.80892 0.80486 0.0
C2576 C 0.9698 0.79176 0.79705 0.0
C2577 C 0.94649 0.78086 0.79588 0.0
C2578 C 0.97314 0.78157 0.80224 0.0
C2579 C 0.98282 0.776 0.79875 0.0
C2580 C 0.9895 0.78052 0.79004 0.0
C2581 C 0.98618 0.79082 0.78494 0.0
C2582 C 0.97648 0.79637 0.78842 0.0
H2583 H 0.93743 0.77949 0.79324 0.0
H2584 H 0.95183 0.77938 0.78845 0.0
H2585 H 0.94862 0.77447 0.8025 0.0
H2586 H 0.9683 0.77794 0.80908 0.0
H2587 H 0.98499 0.76809 0.80287 0.0
H2588 H 0.83119 0.92564 0.20369 0.0
H2589 H 0.82356 0.94228 0.2129 0.0
H2590 H 0.80612 0.92059 0.23647 0.0
H2591 H 0.81344 0.90393 0.2272 0.0
H2592 H 0.8003 0.94823 0.21676 0.0
H2593 H 0.82506 0.94263 0.25715 0.0
H2594 H 0.8286 0.93563 0.24418 0.0
H2595 H 0.8171 0.93029 0.25248 0.0
C2596 C 0.82561 0.92437 0.21074 0.0
C2597 C 0.82305 0.91335 0.21472 0.0
C2598 C 0.82131 0.93393 0.21605 0.0
C2599 C 0.81444 0.93272 0.22553 0.0
C2600 C 0.81162 0.92177 0.22934 0.0
H2601 H 0.77912 0.97495 0.27182 0.0
H2602 H 0.78889 0.96009 0.26195 0.0
C2603 C 0.81586 0.91222 0.22402 0.0
C2604 C 0.81013 0.94287 0.23143 0.0
H2605 H 0.81059 0.95634 0.25707 0.0
C2606 C 0.80262 0.95007 0.22554 0.0
C2607 C 0.81314 0.94528 0.2429 0.0
C2608 C 0.82149 0.93813 0.24955 0.0
C2609 C 0.79773 0.95935 0.23092 0.0
C2610 C 0.80065 0.9617 0.24245 0.0
C2611 C 0.80833 0.95459 0.24825 0.0
C2612 C 0.79539 0.9711 0.24881 0.0
C2613 C 0.78911 0.96623 0.2243 0.0
C2614 C 0.79606 0.98241 0.24502 0.0
C2615 C 0.7904 0.99099 0.25066 0.0
C2616 C 0.78405 0.98848 0.26032 0.0
C2617 C 0.7839 0.97725 0.26442 0.0
C2618 C 0.78949 0.96869 0.25875 0.0
H2619 H 0.78563 0.9616 0.21674 0.0
H2620 H 0.78194 0.96851 0.22968 0.0
H2621 H 0.79324 0.97417 0.22129 0.0
H2622 H 0.80082 0.98459 0.23757 0.0
H2623 H 0.79076 0.99952 0.24726 0.0
H2624 H 0.12156 0.7874 0.19098 0.0
H2625 H 0.10407 0.78042 0.19952 0.0
H2626 H 0.09703 0.81421 0.21058 0.0
H2627 H 0.11426 0.82134 0.20172 0.0
H2628 H 0.09736 0.78071 0.22159 0.0
H2629 H 0.06727 0.80516 0.19461 0.0
H2630 H 0.082 0.80375 0.19121 0.0
H2631 H 0.07793 0.81398 0.20151 0.0
C2632 C 0.11622 0.7934 0.19509 0.0
C2633 C 0.11934 0.80499 0.19554 0.0
C2634 C 0.10624 0.78936 0.20005 0.0
C2635 C 0.09907 0.7968 0.20553 0.0
C2636 C 0.10225 0.80832 0.20619 0.0
H2637 H 0.04158 0.79647 0.2471 0.0
H2638 H 0.05749 0.79998 0.23481 0.0
C2639 C 0.11222 0.81237 0.20123 0.0
C2640 C 0.08841 0.79251 0.21077 0.0
H2641 H 0.05982 0.79679 0.21143 0.0
C2642 C 0.08913 0.78411 0.21926 0.0
C2643 C 0.07763 0.79685 0.20769 0.0
C2644 C 0.07611 0.80535 0.19818 0.0
C2645 C 0.07948 0.7804 0.22513 0.0
C2646 C 0.06877 0.78508 0.22234 0.0
C2647 C 0.068 0.79318 0.21358 0.0
C2648 C 0.05854 0.78266 0.22919 0.0
C2649 C 0.0809 0.77191 0.23466 0.0
C2650 C 0.05355 0.77175 0.22996 0.0
C2651 C 0.04429 0.76968 0.23702 0.0
C2652 C 0.03994 0.7785 0.24347 0.0
C2653 C 0.04474 0.78944 0.24234 0.0
C2654 C 0.05387 0.79149 0.23528 0.0
H2655 H 0.08998 0.77052 0.23698 0.0
H2656 H 0.07652 0.77475 0.24231 0.0
H2657 H 0.07701 0.76368 0.23199 0.0
H2658 H 0.05689 0.76481 0.2252 0.0
H2659 H 0.04081 0.76116 0.23772 0.0
H2660 H 0.90925 0.2363 0.20589 0.0
H2661 H 0.92695 0.24415 0.21427 0.0
H2662 H 0.93815 0.21044 0.22227 0.0
H2663 H 0.92046 0.20251 0.21401 0.0
H2664 H 0.9361 0.2425 0.23604 0.0
H2665 H 0.96515 0.22371 0.20565 0.0
H2666 H 0.94998 0.22408 0.20305 0.0
H2667 H 0.95604 0.21335 0.21214 0.0
C2668 C 0.91543 0.23053 0.20951 0.0
C2669 C 0.91338 0.21873 0.20921 0.0
C2670 C 0.92559 0.23505 0.21424 0.0
C2671 C 0.93401 0.22791 0.21873 0.0
C2672 C 0.93194 0.21614 0.2186 0.0
H2673 H 0.99558 0.22984 0.25784 0.0
H2674 H 0.97887 0.22599 0.24571 0.0
C2675 C 0.92178 0.21161 0.21387 0.0
C2676 C 0.94483 0.23272 0.22381 0.0
H2677 H 0.97374 0.23116 0.22277 0.0
C2678 C 0.94434 0.24015 0.23304 0.0
C2679 C 0.9556 0.22975 0.21985 0.0
C2680 C 0.95676 0.22238 0.20955 0.0
C2681 C 0.95427 0.24419 0.23878 0.0
C2682 C 0.96502 0.24084 0.23509 0.0
C2683 C 0.96551 0.23374 0.22561 0.0
C2684 C 0.97574 0.24355 0.24169 0.0
C2685 C 0.95318 0.25155 0.24909 0.0
C2686 C 0.97983 0.25475 0.24325 0.0
C2687 C 0.98954 0.25701 0.25021 0.0
C2688 C 0.99525 0.24811 0.25575 0.0
C2689 C 0.99136 0.23693 0.25377 0.0
C2690 C 0.98179 0.23468 0.24681 0.0
H2691 H 0.94428 0.25185 0.25191 0.0
H2692 H 0.95863 0.2484 0.25624 0.0
H2693 H 0.95606 0.26031 0.24706 0.0
H2694 H 0.9754 0.26173 0.23925 0.0
H2695 H 0.9923 0.26571 0.25158 0.0
H2696 H 0.2096 0.70155 0.60857 0.0
H2697 H 0.21801 0.70938 0.59137 0.0
H2698 H 0.2454 0.72432 0.61163 0.0
H2699 H 0.23701 0.71669 0.62883 0.0
H2700 H 0.22341 0.73195 0.58518 0.0
H2701 H 0.2622 0.70618 0.58805 0.0
H2702 H 0.24981 0.70295 0.59621 0.0
H2703 H 0.25963 0.714 0.6007 0.0
C2704 C 0.21735 0.7066 0.6094 0.0
C2705 C 0.22265 0.70837 0.62016 0.0
C2706 C 0.22219 0.71102 0.59953 0.0
C2707 C 0.23248 0.71725 0.60015 0.0
C2708 C 0.23762 0.71929 0.61087 0.0
H2709 H 0.27705 0.75339 0.55511 0.0
H2710 H 0.26789 0.74336 0.57063 0.0
C2711 C 0.23279 0.7149 0.62073 0.0
C2712 C 0.2378 0.72174 0.58964 0.0
H2713 H 0.26216 0.72126 0.57458 0.0
C2714 C 0.23184 0.72953 0.5828 0.0
C2715 C 0.24881 0.7186 0.5865 0.0
C2716 C 0.25547 0.70989 0.59318 0.0
C2717 C 0.23672 0.73457 0.57318 0.0
C2718 C 0.24781 0.73155 0.57013 0.0
C2719 C 0.25368 0.7236 0.57687 0.0
C2720 C 0.25368 0.73696 0.56034 0.0
C2721 C 0.23012 0.74343 0.56665 0.0
C2722 C 0.24899 0.73643 0.54922 0.0
C2723 C 0.25423 0.7422 0.54027 0.0
C2724 C 0.26434 0.74856 0.54221 0.0
C2725 C 0.26928 0.74861 0.55325 0.0
C2726 C 0.26403 0.74287 0.56218 0.0
H2727 H 0.22312 0.7468 0.57166 0.0
H2728 H 0.23575 0.75061 0.56414 0.0
H2729 H 0.22631 0.73959 0.55882 0.0
H2730 H 0.24118 0.73168 0.54749 0.0
H2731 H 0.25019 0.74193 0.53189 0.0
H2732 H 0.83684 0.72262 0.61179 0.0
H2733 H 0.82759 0.72936 0.59422 0.0
H2734 H 0.7964 0.71245 0.60335 0.0
H2735 H 0.80561 0.7055 0.62085 0.0
H2736 H 0.81693 0.71637 0.5764 0.0
H2737 H 0.78644 0.74508 0.59618 0.0
H2738 H 0.7987 0.73969 0.60386 0.0
H2739 H 0.78642 0.73071 0.60132 0.0
C2740 C 0.82803 0.72025 0.61006 0.0
C2741 C 0.82199 0.71353 0.61784 0.0
C2742 C 0.82273 0.72417 0.60002 0.0
C2743 C 0.81125 0.72154 0.59751 0.0
C2744 C 0.8052 0.71479 0.60519 0.0
H2745 H 0.76955 0.74703 0.53911 0.0
H2746 H 0.77535 0.73555 0.55578 0.0
C2747 C 0.81049 0.71084 0.61523 0.0
C2748 C 0.80573 0.72573 0.58677 0.0
H2749 H 0.78546 0.74365 0.57624 0.0
C2750 C 0.81001 0.72228 0.57638 0.0
C2751 C 0.79659 0.73334 0.5867 0.0
C2752 C 0.79178 0.73752 0.59759 0.0
C2753 C 0.80557 0.7264 0.56596 0.0
C2754 C 0.79676 0.73439 0.5659 0.0
C2755 C 0.79219 0.73752 0.57627 0.0
C2756 C 0.79312 0.74052 0.55533 0.0
C2757 C 0.81044 0.7222 0.55511 0.0
C2758 C 0.80113 0.74711 0.54954 0.0
C2759 C 0.79786 0.75361 0.54012 0.0
C2760 C 0.78645 0.75378 0.53621 0.0
C2761 C 0.77841 0.747 0.54183 0.0
C2762 C 0.78171 0.74049 0.55139 0.0
H2763 H 0.81404 0.71363 0.55627 0.0
H2764 H 0.8039 0.72187 0.54812 0.0
H2765 H 0.81742 0.72803 0.55255 0.0
H2766 H 0.80992 0.7475 0.55252 0.0
H2767 H 0.80429 0.75873 0.53603 0.0
H2768 H 0.81618 0.34382 0.62623 0.0
H2769 H 0.8109 0.33216 0.60978 0.0
H2770 H 0.83628 0.30802 0.61991 0.0
H2771 H 0.84135 0.31944 0.63665 0.0
H2772 H 0.82362 0.32569 0.59191 0.0
H2773 H 0.80832 0.28766 0.61522 0.0
H2774 H 0.81093 0.30113 0.62207 0.0
H2775 H 0.82257 0.29212 0.61907 0.0
C2776 C 0.82054 0.33595 0.62509 0.0
C2777 C 0.82913 0.33255 0.6329 0.0
C2778 C 0.81756 0.32932 0.6156 0.0
C2779 C 0.82304 0.31909 0.61366 0.0
C2780 C 0.83174 0.31575 0.62132 0.0
H2781 H 0.81513 0.26836 0.55998 0.0
H2782 H 0.82136 0.27946 0.57657 0.0
C2783 C 0.83474 0.32238 0.63084 0.0
C2784 C 0.81975 0.3121 0.6035 0.0
H2785 H 0.80941 0.28603 0.59526 0.0
C2786 C 0.82049 0.31702 0.59266 0.0
C2787 C 0.81568 0.30077 0.60443 0.0
C2788 C 0.81421 0.29511 0.61582 0.0
C2789 C 0.81741 0.31094 0.58276 0.0
C2790 C 0.81324 0.29964 0.58369 0.0
C2791 C 0.81259 0.29468 0.59452 0.0
C2792 C 0.80941 0.29289 0.57354 0.0
C2793 C 0.81884 0.31661 0.57137 0.0
C2794 C 0.8005 0.29662 0.56635 0.0
C2795 C 0.79695 0.29031 0.55679 0.0
C2796 C 0.80218 0.28005 0.55421 0.0
C2797 C 0.811 0.27627 0.56155 0.0
C2798 C 0.81454 0.28259 0.57111 0.0
H2799 H 0.82499 0.32386 0.57193 0.0
H2800 H 0.82181 0.31053 0.56501 0.0
H2801 H 0.81055 0.31991 0.5683 0.0
H2802 H 0.79624 0.30442 0.56814 0.0
H2803 H 0.7902 0.29359 0.55137 0.0
H2804 H 0.23136 0.32833 0.63631 0.0
H2805 H 0.23692 0.31736 0.61994 0.0
H2806 H 0.20168 0.31128 0.61059 0.0
H2807 H 0.19601 0.32211 0.62705 0.0
H2808 H 0.23172 0.29462 0.61431 0.0
H2809 H 0.21495 0.32404 0.58121 0.0
H2810 H 0.21692 0.32809 0.59589 0.0
H2811 H 0.20483 0.3195 0.59148 0.0
C2812 C 0.22476 0.32458 0.63086 0.0
C2813 C 0.21321 0.32616 0.63305 0.0
C2814 C 0.22797 0.31835 0.62144 0.0
C2815 C 0.21974 0.31362 0.61392 0.0
C2816 C 0.20821 0.31505 0.61613 0.0
H2817 H 0.22387 0.27499 0.55124 0.0
H2818 H 0.21751 0.28484 0.56801 0.0
C2819 C 0.20498 0.32127 0.62555 0.0
C2820 C 0.22324 0.30706 0.60389 0.0
H2821 H 0.22199 0.30664 0.57486 0.0
C2822 C 0.22962 0.29726 0.60569 0.0
C2823 C 0.22046 0.31048 0.59262 0.0
C2824 C 0.214 0.32115 0.59013 0.0
C2825 C 0.23316 0.29071 0.59656 0.0
C2826 C 0.23048 0.29418 0.58528 0.0
C2827 C 0.22404 0.30395 0.58349 0.0
C2828 C 0.2344 0.2879 0.57521 0.0
C2829 C 0.23954 0.27999 0.5991 0.0
C2830 C 0.24602 0.28638 0.57358 0.0
C2831 C 0.2497 0.28065 0.56403 0.0
C2832 C 0.24184 0.27638 0.55579 0.0
C2833 C 0.23019 0.27798 0.55743 0.0
C2834 C 0.22652 0.2837 0.56701 0.0
H2835 H 0.23799 0.27681 0.60782 0.0
H2836 H 0.2371 0.27322 0.59295 0.0
H2837 H 0.24879 0.28177 0.59849 0.0
H2838 H 0.2523 0.28973 0.57964 0.0
H2839 H 0.25872 0.27954 0.56317 0.0
H2840 H 0.23217 0.31586 0.4079 0.0
H2841 H 0.2411 0.30822 0.42528 0.0
H2842 H 0.21687 0.32546 0.4453 0.0
H2843 H 0.20767 0.33281 0.428 0.0
H2844 H 0.25126 0.31952 0.44371 0.0
H2845 H 0.21467 0.29331 0.45763 0.0
H2846 H 0.2154 0.29916 0.44348 0.0
H2847 H 0.21117 0.30783 0.45505 0.0
C2848 C 0.22861 0.31788 0.41598 0.0
C2849 C 0.21913 0.32493 0.41649 0.0
C2850 C 0.2338 0.31358 0.42594 0.0
C2851 C 0.22959 0.31613 0.43662 0.0
C2852 C 0.22017 0.32319 0.43717 0.0
H2853 H 0.24569 0.30134 0.50704 0.0
H2854 H 0.23906 0.30924 0.48889 0.0
C2855 C 0.21498 0.3275 0.42724 0.0
C2856 C 0.23512 0.31159 0.44723 0.0
H2857 H 0.22982 0.29618 0.4712 0.0
C2858 C 0.2466 0.31434 0.44969 0.0
C2859 C 0.22908 0.30479 0.45502 0.0
C2860 C 0.21693 0.30099 0.45264 0.0
C2861 C 0.25206 0.31079 0.45988 0.0
C2862 C 0.24593 0.3042 0.46777 0.0
C2863 C 0.23451 0.3013 0.46521 0.0
C2864 C 0.25103 0.30034 0.47884 0.0
C2865 C 0.26424 0.31441 0.46227 0.0
C2866 C 0.26017 0.29286 0.47932 0.0
C2867 C 0.26405 0.28832 0.48976 0.0
C2868 C 0.25879 0.29112 0.49991 0.0
C2869 C 0.24995 0.29898 0.49942 0.0
C2870 C 0.24611 0.30349 0.48902 0.0
H2871 H 0.2669 0.32156 0.45671 0.0
H2872 H 0.26555 0.317 0.47127 0.0
H2873 H 0.26985 0.30718 0.46072 0.0
H2874 H 0.264 0.29014 0.47159 0.0
H2875 H 0.27078 0.28221 0.48979 0.0
H2876 H 0.21825 0.69336 0.40553 0.0
H2877 H 0.2249 0.70284 0.42308 0.0
H2878 H 0.20454 0.73169 0.41431 0.0
H2879 H 0.19775 0.72227 0.39691 0.0
H2880 H 0.23645 0.72478 0.42523 0.0
H2881 H 0.19542 0.72349 0.44712 0.0
H2882 H 0.19822 0.71448 0.43523 0.0
H2883 H 0.19469 0.72905 0.43289 0.0
C2884 C 0.21512 0.70169 0.40738 0.0
C2885 C 0.20747 0.70705 0.39977 0.0
C2886 C 0.21897 0.70711 0.41739 0.0
C2887 C 0.21513 0.71793 0.42009 0.0
C2888 C 0.20752 0.72329 0.4125 0.0
H2889 H 0.22529 0.76771 0.4732 0.0
H2890 H 0.219 0.75622 0.45697 0.0
C2891 C 0.20374 0.71793 0.40248 0.0
C2892 C 0.21921 0.72378 0.43067 0.0
H2893 H 0.21012 0.73509 0.45536 0.0
C2894 C 0.23073 0.72695 0.43188 0.0
C2895 C 0.21173 0.72666 0.43931 0.0
C2896 C 0.19934 0.72317 0.43867 0.0
C2897 C 0.2349 0.73323 0.4413 0.0
C2898 C 0.22739 0.73619 0.44993 0.0
C2899 C 0.2159 0.73286 0.44878 0.0
C2900 C 0.2312 0.74302 0.46005 0.0
C2901 C 0.24722 0.73701 0.44166 0.0
C2902 C 0.24003 0.73938 0.4674 0.0
C2903 C 0.24377 0.74603 0.47666 0.0
C2904 C 0.23869 0.75646 0.47889 0.0
C2905 C 0.22959 0.75988 0.4717 0.0
C2906 C 0.22591 0.75325 0.46242 0.0
H2907 H 0.25093 0.73682 0.43312 0.0
H2908 H 0.24825 0.74572 0.44509 0.0
H2909 H 0.25214 0.73119 0.44727 0.0
H2910 H 0.24407 0.73139 0.46596 0.0
H2911 H 0.2508 0.74304 0.48189 0.0
H2912 H 0.84985 0.72546 0.40625 0.0
H2913 H 0.84161 0.73437 0.42265 0.0
H2914 H 0.80825 0.72281 0.41131 0.0
H2915 H 0.81644 0.7139 0.39479 0.0
H2916 H 0.82588 0.75131 0.4229 0.0
H2917 H 0.80905 0.71289 0.44451 0.0
H2918 H 0.81906 0.71219 0.43325 0.0
H2919 H 0.80428 0.71446 0.42997 0.0
C2920 C 0.84075 0.72482 0.40719 0.0
C2921 C 0.83382 0.71896 0.39912 0.0
C2922 C 0.83605 0.72989 0.41663 0.0
C2923 C 0.82431 0.72918 0.41832 0.0
C2924 C 0.81736 0.72328 0.41035 0.0
H2925 H 0.7822 0.75815 0.47048 0.0
H2926 H 0.78905 0.74843 0.45382 0.0
C2927 C 0.82206 0.71819 0.40089 0.0
C2928 C 0.8194 0.73501 0.4282 0.0
H2929 H 0.80436 0.73058 0.45227 0.0
C2930 C 0.82119 0.74676 0.42932 0.0
C2931 C 0.81322 0.72912 0.43659 0.0
C2932 C 0.81135 0.71646 0.43612 0.0
C2933 C 0.81697 0.75276 0.43852 0.0
C2934 C 0.81093 0.74684 0.44699 0.0
C2935 C 0.80899 0.73512 0.4458 0.0
C2936 C 0.80677 0.75265 0.45724 0.0
C2937 C 0.81886 0.76542 0.43898 0.0
C2938 C 0.81443 0.75813 0.46485 0.0
C2939 C 0.81055 0.76367 0.47443 0.0
C2940 C 0.79888 0.76382 0.4767 0.0
C2941 C 0.79124 0.75817 0.46912 0.0
C2942 C 0.79514 0.75263 0.45954 0.0
H2943 H 0.82075 0.76901 0.43049 0.0
H2944 H 0.81131 0.76968 0.44224 0.0
H2945 H 0.82622 0.76738 0.44479 0.0
H2946 H 0.82347 0.75806 0.46343 0.0
H2947 H 0.81675 0.76769 0.48013 0.0
H2948 H 0.83463 0.32238 0.41875 0.0
H2949 H 0.82639 0.31466 0.43601 0.0
H2950 H 0.7946 0.33038 0.42723 0.0
H2951 H 0.80281 0.33834 0.41005 0.0
H2952 H 0.8166 0.32677 0.45416 0.0
H2953 H 0.78532 0.297 0.43343 0.0
H2954 H 0.79716 0.30311 0.426 0.0
H2955 H 0.78496 0.31146 0.42862 0.0
C2956 C 0.82591 0.32429 0.42049 0.0
C2957 C 0.81941 0.331 0.4129 0.0
C2958 C 0.82118 0.3198 0.43036 0.0
C2959 C 0.80983 0.32181 0.43287 0.0
C2960 C 0.80331 0.32851 0.42537 0.0
H2961 H 0.77163 0.29309 0.49052 0.0
H2962 H 0.77637 0.30499 0.47398 0.0
C2963 C 0.80804 0.33304 0.41551 0.0
C2964 C 0.80495 0.31707 0.44347 0.0
H2965 H 0.78547 0.29784 0.45341 0.0
C2966 C 0.80976 0.32049 0.45398 0.0
C2967 C 0.79591 0.30898 0.44328 0.0
C2968 C 0.79055 0.30482 0.43225 0.0
C2969 C 0.80594 0.31591 0.46426 0.0
C2970 C 0.79722 0.30746 0.46407 0.0
C2971 C 0.79213 0.30433 0.45358 0.0
C2972 C 0.79422 0.30093 0.47448 0.0
C2973 C 0.81134 0.32013 0.47525 0.0
C2974 C 0.80261 0.29469 0.48024 0.0
C2975 C 0.79994 0.28796 0.48959 0.0
C2976 C 0.78877 0.28719 0.49346 0.0
C2977 C 0.78033 0.29357 0.48783 0.0
C2978 C 0.78303 0.30032 0.47835 0.0
H2979 H 0.81478 0.3289 0.47432 0.0
H2980 H 0.80517 0.31997 0.48219 0.0
H2981 H 0.81852 0.31461 0.47775 0.0
H2982 H 0.81124 0.29478 0.47731 0.0
H2983 H 0.80668 0.28316 0.49367 0.0
H2984 H 0.13861 0.70376 0.71653 0.0
H2985 H 0.122 0.7092 0.72708 0.0
H2986 H 0.11175 0.73145 0.69968 0.0
H2987 H 0.12801 0.72574 0.68889 0.0
H2988 H 0.11596 0.72998 0.7348 0.0
H2989 H 0.08262 0.71371 0.70462 0.0
H2990 H 0.09734 0.70999 0.70369 0.0
H2991 H 0.09249 0.72334 0.69815 0.0
C2992 C 0.13273 0.70968 0.71265 0.0
C2993 C 0.13469 0.71425 0.70179 0.0
C2994 C 0.12327 0.71285 0.71874 0.0
C2995 C 0.11548 0.72061 0.71413 0.0
C2996 C 0.11746 0.72527 0.70336 0.0
H2997 H 0.0551 0.75377 0.73701 0.0
H2998 H 0.07164 0.74752 0.72688 0.0
C2999 C 0.12689 0.72209 0.69725 0.0
C3000 C 0.10547 0.72408 0.72068 0.0
H3001 H 0.07649 0.72569 0.71932 0.0
C3002 C 0.10733 0.72896 0.73144 0.0
C3003 C 0.09417 0.72277 0.71633 0.0
C3004 C 0.0915 0.71707 0.70512 0.0
C3005 C 0.09827 0.7328 0.73782 0.0
C3006 C 0.08699 0.7316 0.73342 0.0
C3007 C 0.08512 0.72666 0.72269 0.0
C3008 C 0.07701 0.73548 0.73975 0.0
C3009 C 0.10088 0.7384 0.74911 0.0
C3010 C 0.07441 0.73073 0.75034 0.0
C3011 C 0.06496 0.73432 0.7562 0.0
C3012 C 0.05784 0.74274 0.75159 0.0
C3013 C 0.06044 0.74741 0.74093 0.0
C3014 C 0.06988 0.74379 0.73507 0.0
H3015 H 0.10992 0.74121 0.74996 0.0
H3016 H 0.09542 0.74584 0.75025 0.0
H3017 H 0.09917 0.73226 0.75604 0.0
H3018 H 0.07966 0.72417 0.75406 0.0
H3019 H 0.0633 0.73056 0.76439 0.0
H3020 H 0.85746 0.63405 0.71626 0.0
H3021 H 0.84981 0.61734 0.72592 0.0
H3022 H 0.81578 0.62731 0.71653 0.0
H3023 H 0.82338 0.64384 0.70646 0.0
H3024 H 0.83557 0.6162 0.74388 0.0
H3025 H 0.81539 0.59441 0.70663 0.0
H3026 H 0.82538 0.60608 0.70521 0.0
H3027 H 0.81086 0.60868 0.70849 0.0
C3028 C 0.84835 0.63261 0.71605 0.0
C3029 C 0.84107 0.6403 0.71046 0.0
C3030 C 0.84398 0.62308 0.72168 0.0
C3031 C 0.83222 0.62094 0.72183 0.0
C3032 C 0.8249 0.62863 0.71635 0.0
H3033 H 0.79132 0.56767 0.75379 0.0
H3034 H 0.79791 0.58456 0.74361 0.0
C3035 C 0.82926 0.63817 0.7107 0.0
C3036 C 0.82767 0.61086 0.72804 0.0
H3037 H 0.8118 0.58645 0.72471 0.0
C3038 C 0.8304 0.60969 0.73967 0.0
C3039 C 0.82088 0.60235 0.72258 0.0
C3040 C 0.81802 0.60285 0.71002 0.0
C3041 C 0.82647 0.60034 0.746 0.0
C3042 C 0.81976 0.59179 0.74052 0.0
C3043 C 0.81693 0.593 0.72891 0.0
C3044 C 0.81577 0.58144 0.74665 0.0
C3045 C 0.82937 0.59981 0.75855 0.0
C3046 C 0.8236 0.57394 0.75162 0.0
C3047 C 0.81986 0.56423 0.75741 0.0
C3048 C 0.80818 0.56173 0.75832 0.0
C3049 C 0.80036 0.56921 0.7532 0.0
C3050 C 0.80412 0.57892 0.7474 0.0
H3051 H 0.83182 0.60828 0.76199 0.0
H3052 H 0.8221 0.59637 0.76336 0.0
H3053 H 0.83667 0.59414 0.76001 0.0
H3054 H 0.83263 0.57554 0.75093 0.0
H3055 H 0.82616 0.55861 0.76101 0.0
H3056 H 0.91422 0.32229 0.70809 0.0
H3057 H 0.93131 0.31629 0.71855 0.0
H3058 H 0.92816 0.34402 0.74177 0.0
H3059 H 0.91083 0.34992 0.73152 0.0
H3060 H 0.95175 0.32815 0.72273 0.0
H3061 H 0.93136 0.31671 0.76319 0.0
H3062 H 0.92329 0.31891 0.75012 0.0
H3063 H 0.92872 0.33082 0.75815 0.0
C3064 C 0.91705 0.32705 0.71551 0.0
C3065 C 0.91102 0.33654 0.719 0.0
C3066 C 0.9269 0.32364 0.72144 0.0
C3067 C 0.93096 0.32958 0.73107 0.0
C3068 C 0.92509 0.33916 0.7345 0.0
H3069 H 0.98866 0.3191 0.77818 0.0
H3070 H 0.97179 0.32612 0.7681 0.0
C3071 C 0.91524 0.3426 0.72854 0.0
C3072 C 0.94144 0.3258 0.73734 0.0
H3073 H 0.95139 0.3159 0.76305 0.0
C3074 C 0.95167 0.32546 0.73154 0.0
C3075 C 0.94137 0.32231 0.74886 0.0
C3076 C 0.93059 0.32209 0.75545 0.0
C3077 C 0.96181 0.32186 0.73694 0.0
C3078 C 0.96172 0.31823 0.74842 0.0
C3079 C 0.9515 0.31866 0.75425 0.0
C3080 C 0.97209 0.3139 0.75452 0.0
C3081 C 0.97258 0.32222 0.73033 0.0
C3082 C 0.97787 0.30457 0.75039 0.0
C3083 C 0.98763 0.30057 0.75609 0.0
C3084 C 0.99184 0.30574 0.76617 0.0
C3085 C 0.98588 0.31497 0.77039 0.0
C3086 C 0.97613 0.31898 0.76465 0.0
H3087 H 0.97197 0.32823 0.72306 0.0
H3088 H 0.98002 0.32474 0.73583 0.0
H3089 H 0.97409 0.31368 0.72688 0.0
H3090 H 0.97481 0.30031 0.74275 0.0
H3091 H 0.99193 0.29351 0.75247 0.0
H3092 H 0.20238 0.42489 0.70898 0.0
H3093 H 0.21359 0.44164 0.7148 0.0
H3094 H 0.24233 0.42063 0.72258 0.0
H3095 H 0.23116 0.40383 0.71682 0.0
H3096 H 0.22331 0.44648 0.73558 0.0
H3097 H 0.25682 0.44547 0.70366 0.0
H3098 H 0.24387 0.43709 0.7023 0.0
H3099 H 0.25534 0.43248 0.71152 0.0
C3100 C 0.21109 0.4238 0.71193 0.0
C3101 C 0.21583 0.41294 0.71241 0.0
C3102 C 0.21752 0.43342 0.71521 0.0
C3103 C 0.22889 0.43248 0.71899 0.0
C3104 C 0.23368 0.42167 0.71943 0.0
H3105 H 0.28001 0.47727 0.74995 0.0
H3106 H 0.26926 0.46176 0.74079 0.0
C3107 C 0.22725 0.41203 0.71614 0.0
C3108 C 0.23551 0.44271 0.723 0.0
H3109 H 0.25997 0.45821 0.7191 0.0
C3110 C 0.23127 0.4491 0.7319 0.0
C3111 C 0.24594 0.44615 0.71824 0.0
C3112 C 0.25073 0.44001 0.70833 0.0
C3113 C 0.23727 0.45858 0.73636 0.0
C3114 C 0.24774 0.46198 0.73166 0.0
C3115 C 0.25195 0.45565 0.7227 0.0
C3116 C 0.25463 0.47179 0.73625 0.0
C3117 C 0.23252 0.46465 0.74634 0.0
C3118 C 0.25021 0.48276 0.7364 0.0
C3119 C 0.25636 0.4917 0.74165 0.0
C3120 C 0.26711 0.48989 0.74682 0.0
C3121 C 0.27176 0.47902 0.7461 0.0
C3122 C 0.2656 0.4701 0.74087 0.0
H3123 H 0.22601 0.4594 0.75067 0.0
H3124 H 0.23936 0.467 0.75263 0.0
H3125 H 0.22843 0.47253 0.7433 0.0
H3126 H 0.24188 0.48436 0.73267 0.0
H3127 H 0.25251 0.49994 0.74199 0.0
H3128 H 0.11835 0.31474 0.34551 0.0
H3129 H 0.10127 0.30893 0.33464 0.0
H3130 H 0.11799 0.31673 0.30345 0.0
H3131 H 0.13531 0.32223 0.31429 0.0
H3132 H 0.08768 0.32107 0.31935 0.0
H3133 H 0.10647 0.28423 0.29813 0.0
H3134 H 0.11342 0.29124 0.31009 0.0
H3135 H 0.11368 0.29763 0.29623 0.0
C3136 C 0.11848 0.31511 0.33634 0.0
C3137 C 0.12832 0.31884 0.33081 0.0
C3138 C 0.10864 0.31187 0.33012 0.0
C3139 C 0.10835 0.31222 0.3182 0.0
C3140 C 0.11804 0.31617 0.31263 0.0
H3141 H 0.05154 0.28425 0.27477 0.0
H3142 H 0.0687 0.29554 0.28018 0.0
C3143 C 0.12792 0.31945 0.31885 0.0
C3144 C 0.09785 0.30838 0.31177 0.0
H3145 H 0.08715 0.28758 0.29414 0.0
C3146 C 0.0876 0.31381 0.31375 0.0
C3147 C 0.09771 0.29897 0.30437 0.0
C3148 C 0.10837 0.29259 0.3021 0.0
C3149 C 0.07723 0.3099 0.30884 0.0
C3150 C 0.077 0.30017 0.30187 0.0
C3151 C 0.08731 0.29505 0.29945 0.0
C3152 C 0.06612 0.29437 0.29826 0.0
C3153 C 0.06654 0.31613 0.31131 0.0
C3154 C 0.05894 0.29002 0.30657 0.0
C3155 C 0.04926 0.2836 0.30352 0.0
C3156 C 0.04644 0.28133 0.29206 0.0
C3157 C 0.0534 0.28598 0.28366 0.0
C3158 C 0.06324 0.29236 0.28675 0.0
H3159 H 0.06843 0.32515 0.31341 0.0
H3160 H 0.06039 0.31578 0.30397 0.0
H3161 H 0.06247 0.31214 0.31874 0.0
H3162 H 0.06105 0.29124 0.3155 0.0
H3163 H 0.04412 0.28012 0.31022 0.0
H3164 H 0.20778 0.62034 0.30018 0.0
H3165 H 0.21489 0.60344 0.29095 0.0
H3166 H 0.22479 0.5897 0.32365 0.0
H3167 H 0.21782 0.60649 0.33291 0.0
H3168 H 0.23636 0.59455 0.29105 0.0
H3169 H 0.20664 0.56342 0.30985 0.0
H3170 H 0.20444 0.57848 0.31039 0.0
H3171 H 0.21402 0.57182 0.32046 0.0
C3172 C 0.21149 0.61373 0.30542 0.0
C3173 C 0.21209 0.6148 0.31734 0.0
C3174 C 0.21551 0.60404 0.30012 0.0
C3175 C 0.22018 0.59514 0.30659 0.0
C3176 C 0.22093 0.59625 0.31846 0.0
H3177 H 0.25848 0.53582 0.30205 0.0
H3178 H 0.24672 0.55183 0.3064 0.0
C3179 C 0.21692 0.60591 0.32376 0.0
C3180 C 0.22462 0.58484 0.30103 0.0
H3181 H 0.22339 0.55587 0.30186 0.0
C3182 C 0.23339 0.5861 0.29325 0.0
C3183 C 0.22071 0.57377 0.30381 0.0
C3184 C 0.21085 0.57177 0.31149 0.0
C3185 C 0.23877 0.57663 0.28876 0.0
C3186 C 0.23523 0.56557 0.29199 0.0
C3187 C 0.22614 0.56432 0.29937 0.0
C3188 C 0.24167 0.5553 0.28896 0.0
C3189 C 0.24863 0.57852 0.28106 0.0
C3190 C 0.24256 0.55164 0.27767 0.0
C3191 C 0.2493 0.54231 0.27511 0.0
C3192 C 0.25531 0.53657 0.28382 0.0
C3193 C 0.25404 0.54006 0.29511 0.0
C3194 C 0.24729 0.54924 0.29763 0.0
H3195 H 0.25138 0.58757 0.28068 0.0
H3196 H 0.25598 0.5734 0.28398 0.0
H3197 H 0.24612 0.57576 0.27234 0.0
H3198 H 0.23817 0.55607 0.27082 0.0
H3199 H 0.25013 0.53987 0.26634 0.0
H3200 H 0.90512 0.69549 0.29357 0.0
H3201 H 0.9224 0.70345 0.2854 0.0
H3202 H 0.93153 0.71918 0.31737 0.0
H3203 H 0.9142 0.71146 0.32557 0.0
H3204 H 0.92988 0.72617 0.28319 0.0
H3205 H 0.96013 0.7017 0.31005 0.0
H3206 H 0.9452 0.69802 0.30877 0.0
H3207 H 0.95004 0.70926 0.31806 0.0
C3208 C 0.91072 0.70073 0.29887 0.0
C3209 C 0.9082 0.70276 0.31029 0.0
C3210 C 0.92066 0.70522 0.29418 0.0
C3211 C 0.92839 0.71176 0.3008 0.0
C3212 C 0.92585 0.71394 0.31215 0.0
H3213 H 0.98853 0.75193 0.29637 0.0
H3214 H 0.97195 0.74046 0.30096 0.0
C3215 C 0.91591 0.70949 0.31684 0.0
C3216 C 0.93902 0.71648 0.29586 0.0
H3217 H 0.9679 0.71735 0.29977 0.0
C3218 C 0.93821 0.72414 0.28671 0.0
C3219 C 0.94991 0.71376 0.30038 0.0
C3220 C 0.95142 0.70515 0.30978 0.0
C3221 C 0.94793 0.7296 0.28238 0.0
C3222 C 0.95879 0.72719 0.28719 0.0
C3223 C 0.95961 0.71921 0.29606 0.0
C3224 C 0.96924 0.73371 0.28406 0.0
C3225 C 0.94645 0.73831 0.27307 0.0
C3226 C 0.97349 0.73363 0.27301 0.0
C3227 C 0.98313 0.74025 0.27031 0.0
C3228 C 0.98864 0.74709 0.27862 0.0
C3229 C 0.9845 0.74686 0.2897 0.0
C3230 C 0.97499 0.74026 0.29238 0.0
H3231 H 0.93742 0.74064 0.27168 0.0
H3232 H 0.95152 0.74611 0.2751 0.0
H3233 H 0.94952 0.73486 0.26502 0.0
H3234 H 0.96933 0.72849 0.26647 0.0
H3235 H 0.98609 0.74023 0.2617 0.0
H3236 H 0.84731 0.40672 0.30736 0.0
H3237 H 0.83941 0.42346 0.29806 0.0
H3238 H 0.81488 0.42593 0.32427 0.0
H3239 H 0.82298 0.40934 0.33386 0.0
H3240 H 0.81758 0.4271 0.28946 0.0
H3241 H 0.82879 0.4579 0.32361 0.0
H3242 H 0.83478 0.44397 0.32322 0.0
H3243 H 0.82063 0.44576 0.32807 0.0
C3244 C 0.84033 0.41088 0.31126 0.0
C3245 C 0.83589 0.4067 0.32147 0.0
C3246 C 0.83576 0.42043 0.30586 0.0
C3247 C 0.82666 0.4261 0.31053 0.0
C3248 C 0.82205 0.42185 0.3206 0.0
H3249 H 0.79031 0.48683 0.28893 0.0
H3250 H 0.79679 0.46976 0.29876 0.0
C3251 C 0.82661 0.41227 0.32602 0.0
C3252 C 0.82196 0.43633 0.30471 0.0
H3253 H 0.8178 0.4647 0.30798 0.0
C3254 C 0.81764 0.43532 0.29351 0.0
C3255 C 0.82199 0.44707 0.30999 0.0
C3256 C 0.82688 0.44882 0.32185 0.0
C3257 C 0.8133 0.44469 0.28748 0.0
C3258 C 0.81348 0.45547 0.2927 0.0
C3259 C 0.81767 0.45646 0.30395 0.0
C3260 C 0.80948 0.46584 0.28659 0.0
C3261 C 0.80837 0.4429 0.27565 0.0
C3262 C 0.81453 0.46947 0.27651 0.0
C3263 C 0.81078 0.47922 0.2708 0.0
C3264 C 0.80193 0.48565 0.27505 0.0
C3265 C 0.797 0.48206 0.28525 0.0
C3266 C 0.80076 0.4723 0.29095 0.0
H3267 H 0.80586 0.43389 0.27418 0.0
H3268 H 0.80083 0.44823 0.27403 0.0
H3269 H 0.81486 0.44527 0.26939 0.0
H3270 H 0.82144 0.4648 0.27308 0.0
H3271 H 0.81477 0.48161 0.26298 0.0
H3272 H 0.22115 0.62669 0.69813 0.0
H3273 H 0.22826 0.60928 0.70704 0.0
H3274 H 0.20545 0.61335 0.73455 0.0
H3275 H 0.19811 0.63051 0.7256 0.0
H3276 H 0.23872 0.60653 0.72861 0.0
H3277 H 0.19906 0.58059 0.725 0.0
H3278 H 0.20113 0.59353 0.71702 0.0
H3279 H 0.19728 0.59405 0.73165 0.0
C3280 C 0.21755 0.62381 0.706 0.0
C3281 C 0.20904 0.63005 0.71113 0.0
C3282 C 0.22167 0.61388 0.71112 0.0
C3283 C 0.21729 0.6099 0.7214 0.0
C3284 C 0.20883 0.61611 0.72653 0.0
H3285 H 0.23042 0.55554 0.7695 0.0
H3286 H 0.22323 0.57176 0.75871 0.0
C3287 C 0.20474 0.62603 0.72145 0.0
C3288 C 0.22178 0.59946 0.72698 0.0
H3289 H 0.21382 0.57337 0.73707 0.0
C3290 C 0.23331 0.59923 0.73036 0.0
C3291 C 0.21471 0.58995 0.72931 0.0
C3292 C 0.20238 0.58946 0.72547 0.0
C3293 C 0.23787 0.58992 0.73632 0.0
C3294 C 0.23077 0.58044 0.73876 0.0
C3295 C 0.21927 0.58062 0.73524 0.0
C3296 C 0.23505 0.57035 0.74514 0.0
C3297 C 0.25017 0.59049 0.74027 0.0
C3298 C 0.24396 0.56396 0.74102 0.0
C3299 C 0.24817 0.55471 0.74723 0.0
C3300 C 0.24351 0.55155 0.75769 0.0
C3301 C 0.23436 0.55779 0.76161 0.0
C3302 C 0.23018 0.56705 0.7554 0.0
H3303 H 0.25356 0.59934 0.7404 0.0
H3304 H 0.2513 0.58679 0.74891 0.0
H3305 H 0.25531 0.58559 0.73437 0.0
H3306 H 0.24771 0.56617 0.73302 0.0
H3307 H 0.25525 0.55023 0.74392 0.0
H3308 H 0.21458 0.39554 0.31155 0.0
H3309 H 0.22579 0.41214 0.30585 0.0
H3310 H 0.22947 0.42246 0.34081 0.0
H3311 H 0.21817 0.40591 0.34661 0.0
H3312 H 0.221 0.43485 0.30908 0.0
H3313 H 0.2622 0.42414 0.3302 0.0
H3314 H 0.2508 0.41385 0.32812 0.0
H3315 H 0.25033 0.42398 0.3394 0.0
C3316 C 0.21773 0.40135 0.31805 0.0
C3317 C 0.21543 0.39936 0.32956 0.0
C3318 C 0.2242 0.41081 0.31477 0.0
C3319 C 0.2286 0.41849 0.3229 0.0
C3320 C 0.22638 0.41653 0.3344 0.0
H3321 H 0.26721 0.48213 0.31762 0.0
H3322 H 0.25679 0.46536 0.32427 0.0
C3323 C 0.21991 0.40705 0.3377 0.0
C3324 C 0.23511 0.42875 0.31924 0.0
H3325 H 0.26095 0.44237 0.32179 0.0
C3326 C 0.22975 0.43647 0.31183 0.0
C3327 C 0.24651 0.43091 0.32288 0.0
C3328 C 0.25286 0.42275 0.33051 0.0
C3329 C 0.23541 0.44631 0.30804 0.0
C3330 C 0.24685 0.44842 0.31157 0.0
C3331 C 0.25219 0.44076 0.31907 0.0
C3332 C 0.25343 0.45848 0.30751 0.0
C3333 C 0.229 0.45449 0.30046 0.0
C3334 C 0.25521 0.46011 0.29588 0.0
C3335 C 0.26119 0.46968 0.29204 0.0
C3336 C 0.26561 0.47783 0.29975 0.0
C3337 C 0.26402 0.47603 0.31143 0.0
C3338 C 0.25802 0.46645 0.31526 0.0
H3339 H 0.21966 0.45331 0.30111 0.0
H3340 H 0.23131 0.4634 0.30262 0.0
H3341 H 0.23118 0.45302 0.29151 0.0
H3342 H 0.25201 0.45394 0.28975 0.0
H3343 H 0.26244 0.47063 0.28303 0.0
H3344 H 0.12498 0.70653 0.33455 0.0
H3345 H 0.10814 0.71739 0.32927 0.0
H3346 H 0.11257 0.70945 0.29405 0.0
H3347 H 0.1291 0.69819 0.29927 0.0
H3348 H 0.10577 0.73604 0.31557 0.0
H3349 H 0.0796 0.70049 0.2978 0.0
H3350 H 0.09249 0.69829 0.30612 0.0
H3351 H 0.09313 0.70207 0.29134 0.0
C3352 C 0.1223 0.70694 0.32569 0.0
C3353 C 0.12843 0.70138 0.31736 0.0
C3354 C 0.1127 0.71324 0.32267 0.0
C3355 C 0.10894 0.7141 0.31127 0.0
C3356 C 0.11513 0.70873 0.30293 0.0
H3357 H 0.05491 0.74935 0.27466 0.0
H3358 H 0.07155 0.73849 0.28046 0.0
C3359 C 0.1247 0.70241 0.30593 0.0
C3360 C 0.09869 0.72079 0.30809 0.0
H3361 H 0.07266 0.71903 0.29443 0.0
C3362 C 0.0985 0.7323 0.31102 0.0
C3363 C 0.08917 0.71593 0.30214 0.0
C3364 C 0.08852 0.70349 0.29926 0.0
C3365 C 0.08922 0.73912 0.30794 0.0
C3366 C 0.07977 0.73427 0.3019 0.0
C3367 C 0.07992 0.72276 0.29902 0.0
C3368 C 0.06964 0.741 0.29846 0.0
C3369 C 0.08973 0.75152 0.31094 0.0
C3370 C 0.06291 0.74595 0.30663 0.0
C3371 C 0.05331 0.75213 0.30335 0.0
C3372 C 0.05015 0.75346 0.29179 0.0
C3373 C 0.05692 0.74843 0.28363 0.0
C3374 C 0.0665 0.74224 0.28693 0.0
H3375 H 0.09856 0.75449 0.31302 0.0
H3376 H 0.08624 0.75676 0.30385 0.0
H3377 H 0.08454 0.75291 0.31848 0.0
H3378 H 0.065 0.74492 0.31559 0.0
H3379 H 0.04826 0.75568 0.3099 0.0
H3380 H 0.80038 0.62946 0.33207 0.0
H3381 H 0.79232 0.61175 0.32437 0.0
H3382 H 0.82506 0.60324 0.31189 0.0
H3383 H 0.83327 0.62075 0.31988 0.0
H3384 H 0.79095 0.60375 0.30235 0.0
H3385 H 0.81636 0.57482 0.32961 0.0
H3386 H 0.81543 0.58975 0.33252 0.0
H3387 H 0.82493 0.58485 0.32203 0.0
C3388 C 0.80592 0.62378 0.3278 0.0
C3389 C 0.81753 0.62654 0.32671 0.0
C3390 C 0.80126 0.61367 0.32333 0.0
C3391 C 0.8081 0.60603 0.31772 0.0
C3392 C 0.81964 0.60886 0.3164 0.0
H3393 H 0.80408 0.5459 0.27905 0.0
H3394 H 0.80853 0.56249 0.29054 0.0
C3395 C 0.8243 0.61897 0.32085 0.0
C3396 C 0.80317 0.59519 0.3131 0.0
H3397 H 0.8066 0.56651 0.31355 0.0
C3398 C 0.79426 0.59559 0.3049 0.0
C3399 C 0.8074 0.58452 0.3165 0.0
C3400 C 0.81648 0.58341 0.32573 0.0
C3401 C 0.78992 0.58568 0.29958 0.0
C3402 C 0.79447 0.57505 0.30266 0.0
C3403 C 0.80308 0.57464 0.31117 0.0
C3404 C 0.79144 0.56448 0.29628 0.0
C3405 C 0.78088 0.58673 0.2903 0.0
C3406 C 0.78033 0.5598 0.29585 0.0
C3407 C 0.77771 0.55015 0.28921 0.0
C3408 C 0.78616 0.54508 0.28289 0.0
C3409 C 0.79731 0.5496 0.28371 0.0
C3410 C 0.7999 0.55912 0.29033 0.0
H3411 H 0.77965 0.59567 0.28762 0.0
H3412 H 0.78311 0.58173 0.28276 0.0
H3413 H 0.7727 0.58333 0.29341 0.0
H3414 H 0.77368 0.56366 0.30053 0.0
H3415 H 0.76905 0.54689 0.28875 0.0
H3416 H 0.91199 0.32904 0.32684 0.0
H3417 H 0.92819 0.31977 0.31852 0.0
H3418 H 0.92436 0.29177 0.3418 0.0
H3419 H 0.90802 0.30075 0.3499 0.0
H3420 H 0.94869 0.31341 0.32889 0.0
H3421 H 0.92568 0.27571 0.31144 0.0
H3422 H 0.91844 0.28812 0.31605 0.0
H3423 H 0.92344 0.27784 0.32626 0.0
C3424 C 0.91449 0.32084 0.33009 0.0
C3425 C 0.90864 0.31567 0.33906 0.0
C3426 C 0.92381 0.31558 0.32536 0.0
C3427 C 0.92743 0.30498 0.32941 0.0
C3428 C 0.92164 0.29984 0.33837 0.0
H3429 H 0.98188 0.2587 0.31754 0.0
H3430 H 0.96535 0.2687 0.324 0.0
C3431 C 0.91235 0.30507 0.3431 0.0
C3432 C 0.93744 0.29943 0.32452 0.0
H3433 H 0.94589 0.27499 0.31215 0.0
C3434 C 0.94806 0.30506 0.32513 0.0
C3435 C 0.93665 0.28851 0.31962 0.0
C3436 C 0.92542 0.28222 0.31819 0.0
C3437 C 0.95794 0.29993 0.32133 0.0
C3438 C 0.95717 0.28894 0.31658 0.0
C3439 C 0.94652 0.28338 0.31582 0.0
C3440 C 0.96733 0.28294 0.31256 0.0
C3441 C 0.96917 0.3062 0.32279 0.0
C3442 C 0.97393 0.28751 0.30386 0.0
C3443 C 0.98348 0.28183 0.30018 0.0
C3444 C 0.98664 0.27139 0.30507 0.0
C3445 C 0.97988 0.26678 0.31367 0.0
C3446 C 0.97035 0.27246 0.31734 0.0
H3447 H 0.96878 0.31309 0.32913 0.0
H3448 H 0.97601 0.30035 0.32551 0.0
H3449 H 0.97148 0.31007 0.31456 0.0
H3450 H 0.97167 0.29546 0.29986 0.0
H3451 H 0.98845 0.28572 0.29359 0.0
H3452 H 0.81168 0.41271 0.71452 0.0
H3453 H 0.80137 0.42961 0.71985 0.0
H3454 H 0.83181 0.44998 0.71615 0.0
H3455 H 0.84201 0.43331 0.7104 0.0
H3456 H 0.80503 0.44341 0.73785 0.0
H3457 H 0.80925 0.46893 0.69875 0.0
H3458 H 0.81236 0.45404 0.69929 0.0
H3459 H 0.82281 0.4644 0.70415 0.0
C3460 C 0.81613 0.42082 0.71461 0.0
C3461 C 0.82772 0.42158 0.71201 0.0
C3462 C 0.81023 0.43048 0.71774 0.0
C3463 C 0.81572 0.44116 0.71825 0.0
C3464 C 0.82726 0.44193 0.71559 0.0
H3465 H 0.81043 0.50602 0.74703 0.0
H3466 H 0.81452 0.48883 0.73667 0.0
C3467 C 0.83315 0.43231 0.71245 0.0
C3468 C 0.80968 0.4514 0.72215 0.0
H3469 H 0.80495 0.47923 0.71566 0.0
C3470 C 0.80481 0.45118 0.7329 0.0
C3471 C 0.8093 0.46156 0.7157 0.0
C3472 C 0.8136 0.46223 0.70378 0.0
C3473 C 0.80023 0.46096 0.73761 0.0
C3474 C 0.8004 0.47125 0.73139 0.0
C3475 C 0.80482 0.47136 0.72046 0.0
C3476 C 0.79728 0.48221 0.73659 0.0
C3477 C 0.79578 0.46039 0.74947 0.0
C3478 C 0.7861 0.48446 0.73969 0.0
C3479 C 0.78368 0.49445 0.74555 0.0
C3480 C 0.79244 0.50226 0.74849 0.0
C3481 C 0.80349 0.50017 0.74492 0.0
C3482 C 0.80586 0.49033 0.73899 0.0
H3483 H 0.79755 0.45216 0.75371 0.0
H3484 H 0.79963 0.46731 0.75474 0.0
H3485 H 0.78645 0.46155 0.74911 0.0
H3486 H 0.77932 0.47837 0.73783 0.0
H3487 H 0.77511 0.49577 0.74827 0.0
H3488 H 0.13793 0.30538 0.71513 0.0
H3489 H 0.12053 0.29752 0.72304 0.0
H3490 H 0.10491 0.33011 0.71972 0.0
H3491 H 0.1221 0.33792 0.71129 0.0
H3492 H 0.10939 0.30238 0.74175 0.0
H3493 H 0.08096 0.31027 0.70441 0.0
H3494 H 0.09621 0.3117 0.70381 0.0
H3495 H 0.08801 0.32296 0.70943 0.0
C3496 C 0.13075 0.31087 0.71592 0.0
C3497 C 0.13144 0.32229 0.7124 0.0
C3498 C 0.12081 0.30636 0.72054 0.0
C3499 C 0.11126 0.31312 0.72176 0.0
C3500 C 0.11202 0.32461 0.7186 0.0
H3501 H 0.04789 0.30908 0.75478 0.0
H3502 H 0.06458 0.31363 0.74376 0.0
C3503 C 0.12196 0.32912 0.71392 0.0
C3504 C 0.10062 0.30821 0.72658 0.0
H3505 H 0.07191 0.30533 0.72171 0.0
C3506 C 0.10123 0.3029 0.73729 0.0
C3507 C 0.08993 0.30877 0.72076 0.0
C3508 C 0.08873 0.31363 0.70892 0.0
C3509 C 0.09143 0.29861 0.74251 0.0
C3510 C 0.08072 0.29954 0.73685 0.0
C3511 C 0.08013 0.3046 0.72604 0.0
C3512 C 0.06996 0.29631 0.74249 0.0
C3513 C 0.09252 0.2935 0.75425 0.0
C3514 C 0.06716 0.28497 0.74514 0.0
C3515 C 0.05745 0.2823 0.75137 0.0
C3516 C 0.05049 0.29095 0.75514 0.0
C3517 C 0.05309 0.30221 0.75204 0.0
C3518 C 0.06265 0.30484 0.74573 0.0
H3519 H 0.10118 0.29478 0.75809 0.0
H3520 H 0.08628 0.29726 0.75992 0.0
H3521 H 0.09066 0.28427 0.75378 0.0
H3522 H 0.07263 0.27823 0.74262 0.0
H3523 H 0.05573 0.27356 0.7537 0.0
H3524 H 0.92372 0.71354 0.69806 0.0
H3525 H 0.94125 0.72115 0.70701 0.0
H3526 H 0.92906 0.75508 0.7024 0.0
H3527 H 0.91135 0.74754 0.69381 0.0
H3528 H 0.95737 0.7358 0.69792 0.0
H3529 H 0.9388 0.75506 0.73583 0.0
H3530 H 0.93098 0.74509 0.72688 0.0
H3531 H 0.93263 0.75962 0.72249 0.0
C3532 C 0.92466 0.72261 0.69911 0.0
C3533 C 0.91605 0.7299 0.69522 0.0
C3534 C 0.93476 0.72697 0.70415 0.0
C3535 C 0.93646 0.7387 0.70552 0.0
C3536 C 0.9279 0.746 0.70164 0.0
H3537 H 0.9947 0.77562 0.73846 0.0
H3538 H 0.97754 0.77166 0.7265 0.0
C3539 C 0.91781 0.74166 0.69659 0.0
C3540 C 0.94731 0.74326 0.71075 0.0
H3541 H 0.95842 0.75831 0.73335 0.0
C3542 C 0.95758 0.74074 0.70565 0.0
C3543 C 0.94763 0.74982 0.72079 0.0
C3544 C 0.93694 0.7525 0.72689 0.0
C3545 C 0.96811 0.74447 0.71037 0.0
C3546 C 0.96845 0.75076 0.72057 0.0
C3547 C 0.95817 0.75356 0.7255 0.0
C3548 C 0.97934 0.75346 0.72687 0.0
C3549 C 0.97881 0.74161 0.7044 0.0
C3550 C 0.98608 0.74459 0.73098 0.0
C3551 C 0.99577 0.74683 0.73778 0.0
C3552 C 0.99903 0.758 0.74067 0.0
C3553 C 0.9925 0.76695 0.73627 0.0
C3554 C 0.98267 0.76468 0.7295 0.0
H3555 H 0.97709 0.74004 0.69521 0.0
H3556 H 0.98532 0.7485 0.70533 0.0
H3557 H 0.98237 0.73377 0.70818 0.0
H3558 H 0.98362 0.73587 0.72926 0.0
H3559 H 1.00057 0.73972 0.74104 0.0
H3560 H 0.71621 0.23142 0.63052 0.0
H3561 H 0.72152 0.24248 0.61374 0.0
H3562 H 0.7201 0.21208 0.59364 0.0
H3563 H 0.71441 0.2011 0.61017 0.0
H3564 H 0.74023 0.24065 0.60107 0.0
H3565 H 0.70225 0.23317 0.57332 0.0
H3566 H 0.7024 0.22998 0.58832 0.0
H3567 H 0.708 0.2201 0.57844 0.0
C3568 C 0.7168 0.22712 0.62248 0.0
C3569 C 0.71488 0.21533 0.62175 0.0
C3570 C 0.71991 0.23346 0.61289 0.0
C3571 C 0.72105 0.22818 0.60234 0.0
C3572 C 0.71904 0.21644 0.60159 0.0
H3573 H 0.75204 0.23556 0.53948 0.0
H3574 H 0.74096 0.23091 0.55607 0.0
C3575 C 0.71593 0.21012 0.61113 0.0
C3576 C 0.72502 0.2347 0.59224 0.0
H3577 H 0.71938 0.23892 0.56389 0.0
C3578 C 0.73555 0.24049 0.593 0.0
C3579 C 0.71891 0.23456 0.58169 0.0
C3580 C 0.70721 0.22922 0.58041 0.0
C3581 C 0.74046 0.24547 0.58338 0.0
C3582 C 0.73463 0.24477 0.57271 0.0
C3583 C 0.72386 0.23946 0.57206 0.0
C3584 C 0.74019 0.24816 0.56198 0.0
C3585 C 0.75214 0.25089 0.58455 0.0
C3586 C 0.74314 0.2595 0.55951 0.0
C3587 C 0.74943 0.26223 0.54986 0.0
C3588 C 0.75294 0.25363 0.54264 0.0
C3589 C 0.7495 0.24239 0.54489 0.0
C3590 C 0.74315 0.2397 0.55438 0.0
H3591 H 0.75609 0.24955 0.59312 0.0
H3592 H 0.7578 0.24744 0.57812 0.0
H3593 H 0.75153 0.26015 0.58302 0.0
H3594 H 0.74084 0.26619 0.56519 0.0
H3595 H 0.75203 0.27095 0.5484 0.0
H3596 H 0.33169 0.23547 0.63547 0.0
H3597 H 0.32446 0.24574 0.6187 0.0
H3598 H 0.32671 0.2155 0.59869 0.0
H3599 H 0.33398 0.20521 0.61533 0.0
H3600 H 0.33352 0.24975 0.59711 0.0
H3601 H 0.29354 0.22424 0.5936 0.0
H3602 H 0.30278 0.22396 0.6061 0.0
H3603 H 0.30613 0.21592 0.59378 0.0
C3604 C 0.33076 0.23103 0.62748 0.0
C3605 C 0.33331 0.21945 0.62682 0.0
C3606 C 0.32658 0.23691 0.61789 0.0
C3607 C 0.32482 0.23135 0.60746 0.0
C3608 C 0.32772 0.21991 0.60669 0.0
H3609 H 0.29607 0.2483 0.54099 0.0
H3610 H 0.30609 0.23971 0.55723 0.0
C3611 C 0.33187 0.21403 0.61625 0.0
C3612 C 0.31983 0.23742 0.59741 0.0
H3613 H 0.29738 0.23671 0.57831 0.0
C3614 C 0.32559 0.24694 0.59303 0.0
C3615 C 0.30946 0.23379 0.59208 0.0
C3616 C 0.30255 0.22399 0.59667 0.0
C3617 C 0.32143 0.25272 0.5833 0.0
C3618 C 0.31112 0.24899 0.57791 0.0
C3619 C 0.30532 0.23954 0.58237 0.0
C3620 C 0.3061 0.25472 0.56765 0.0
C3621 C 0.32826 0.26257 0.57872 0.0
C3622 C 0.30288 0.26611 0.56798 0.0
C3623 C 0.29718 0.27109 0.55865 0.0
C3624 C 0.29447 0.26476 0.54881 0.0
C3625 C 0.29801 0.25346 0.54839 0.0
C3626 C 0.30372 0.24851 0.5577 0.0
H3627 H 0.33725 0.26242 0.58185 0.0
H3628 H 0.32807 0.26257 0.5693 0.0
H3629 H 0.32456 0.27059 0.58157 0.0
H3630 H 0.30439 0.27104 0.57561 0.0
H3631 H 0.2945 0.27977 0.55933 0.0
H3632 H 0.31353 0.82334 0.63532 0.0
H3633 H 0.30505 0.81482 0.6181 0.0
H3634 H 0.31265 0.84532 0.59932 0.0
H3635 H 0.3211 0.85392 0.61648 0.0
H3636 H 0.28688 0.82163 0.60507 0.0
H3637 H 0.32517 0.8213 0.57894 0.0
H3638 H 0.32591 0.82378 0.59404 0.0
H3639 H 0.32214 0.83504 0.58437 0.0
C3640 C 0.31341 0.82826 0.62754 0.0
C3641 C 0.31807 0.83933 0.62733 0.0
C3642 C 0.30859 0.82334 0.61767 0.0
C3643 C 0.30834 0.82934 0.60733 0.0
C3644 C 0.31297 0.84039 0.60709 0.0
H3645 H 0.26324 0.81434 0.54885 0.0
H3646 H 0.27293 0.82269 0.56554 0.0
C3647 C 0.31782 0.84531 0.61695 0.0
C3648 C 0.30284 0.8242 0.59693 0.0
H3649 H 0.30749 0.81717 0.56935 0.0
C3650 C 0.29141 0.82063 0.59727 0.0
C3651 C 0.30876 0.82274 0.58677 0.0
C3652 C 0.3212 0.82581 0.586 0.0
C3653 C 0.28569 0.81584 0.58773 0.0
C3654 C 0.29149 0.81475 0.57745 0.0
C3655 C 0.30299 0.81812 0.57717 0.0
C3656 C 0.28583 0.80993 0.56699 0.0
C3657 C 0.27354 0.8118 0.58883 0.0
C3658 C 0.29004 0.80019 0.56195 0.0
C3659 C 0.28453 0.79541 0.55235 0.0
C3660 C 0.27468 0.80029 0.54752 0.0
C3661 C 0.27067 0.81023 0.55242 0.0
C3662 C 0.2762 0.81501 0.56201 0.0
H3663 H 0.27137 0.81041 0.59785 0.0
H3664 H 0.26779 0.8183 0.58521 0.0
H3665 H 0.27192 0.80378 0.58413 0.0
H3666 H 0.29747 0.79612 0.5656 0.0
H3667 H 0.28783 0.7877 0.54894 0.0
H3668 H 0.72909 0.84307 0.62515 0.0
H3669 H 0.73801 0.83585 0.6083 0.0
H3670 H 0.71069 0.81134 0.60369 0.0
H3671 H 0.70171 0.81847 0.62063 0.0
H3672 H 0.74569 0.81436 0.60397 0.0
H3673 H 0.71199 0.82607 0.57233 0.0
H3674 H 0.71258 0.83159 0.58659 0.0
H3675 H 0.70714 0.8175 0.58393 0.0
C3676 C 0.72498 0.83609 0.62063 0.0
C3677 C 0.71465 0.83136 0.62432 0.0
C3678 C 0.73009 0.832 0.61093 0.0
C3679 C 0.72497 0.82314 0.6046 0.0
C3680 C 0.71469 0.81835 0.60826 0.0
H3681 H 0.74542 0.78849 0.5432 0.0
H3682 H 0.73579 0.79431 0.56025 0.0
C3683 C 0.70956 0.82244 0.61798 0.0
C3684 C 0.73059 0.81881 0.59435 0.0
H3685 H 0.72712 0.81533 0.56563 0.0
C3686 C 0.74163 0.81459 0.59559 0.0
C3687 C 0.7253 0.81906 0.58339 0.0
C3688 C 0.71364 0.82389 0.58141 0.0
C3689 C 0.74747 0.81056 0.58623 0.0
C3690 C 0.74224 0.81095 0.57526 0.0
C3691 C 0.73115 0.81504 0.57403 0.0
C3692 C 0.74821 0.80733 0.56493 0.0
C3693 C 0.75913 0.80575 0.58823 0.0
C3694 C 0.75835 0.81276 0.56177 0.0
C3695 C 0.76392 0.80941 0.55204 0.0
C3696 C 0.75946 0.80057 0.54518 0.0
C3697 C 0.74923 0.7952 0.54833 0.0
C3698 C 0.74365 0.79858 0.55806 0.0
H3699 H 0.76058 0.80314 0.59722 0.0
H3700 H 0.7604 0.79833 0.58271 0.0
H3701 H 0.76564 0.81232 0.58621 0.0
H3702 H 0.76194 0.81968 0.5668 0.0
H3703 H 0.77179 0.81371 0.54998 0.0
H3704 H 0.70493 0.80449 0.3984 0.0
H3705 H 0.71156 0.79395 0.41525 0.0
H3706 H 0.71242 0.82478 0.43468 0.0
H3707 H 0.70547 0.83526 0.41806 0.0
H3708 H 0.73149 0.79665 0.4276 0.0
H3709 H 0.69555 0.80354 0.45559 0.0
H3710 H 0.69464 0.80631 0.44051 0.0
H3711 H 0.70107 0.81663 0.45003 0.0
C3712 C 0.70633 0.80899 0.40631 0.0
C3713 C 0.70464 0.82075 0.40683 0.0
C3714 C 0.71019 0.80295 0.41593 0.0
C3715 C 0.71233 0.8085 0.42632 0.0
C3716 C 0.71061 0.82022 0.42686 0.0
H3717 H 0.74715 0.80307 0.48921 0.0
H3718 H 0.73511 0.80706 0.47255 0.0
C3719 C 0.70677 0.82625 0.41727 0.0
C3720 C 0.71696 0.80228 0.43647 0.0
H3721 H 0.71321 0.79827 0.46489 0.0
C3722 C 0.72738 0.79679 0.4357 0.0
C3723 C 0.71158 0.80238 0.44705 0.0
C3724 C 0.70003 0.80743 0.44833 0.0
C3725 C 0.7329 0.79209 0.44535 0.0
C3726 C 0.7278 0.79276 0.45605 0.0
C3727 C 0.71713 0.79775 0.4567 0.0
C3728 C 0.73406 0.78972 0.46679 0.0
C3729 C 0.74445 0.78702 0.44417 0.0
C3730 C 0.7372 0.77853 0.46937 0.0
C3731 C 0.74407 0.77617 0.47906 0.0
C3732 C 0.74796 0.78501 0.48622 0.0
C3733 C 0.74434 0.79608 0.48385 0.0
C3734 C 0.73744 0.79838 0.47431 0.0
H3735 H 0.74785 0.78843 0.43558 0.0
H3736 H 0.75057 0.79069 0.45056 0.0
H3737 H 0.74385 0.77776 0.44574 0.0
H3738 H 0.73459 0.77167 0.46375 0.0
H3739 H 0.74678 0.76758 0.48063 0.0
H3740 H 0.72786 0.19333 0.40395 0.0
H3741 H 0.73883 0.20007 0.42067 0.0
H3742 H 0.71238 0.2234 0.42791 0.0
H3743 H 0.70144 0.21683 0.41121 0.0
H3744 H 0.74712 0.22182 0.42616 0.0
H3745 H 0.71668 0.2067 0.45812 0.0
H3746 H 0.71594 0.202 0.44357 0.0
H3747 H 0.71042 0.21553 0.44727 0.0
C3748 C 0.72439 0.19994 0.40905 0.0
C3749 C 0.71367 0.20443 0.40623 0.0
C3750 C 0.73066 0.20375 0.41865 0.0
C3751 C 0.72636 0.2121 0.4257 0.0
C3752 C 0.71577 0.21674 0.4228 0.0
H3753 H 0.74913 0.2481 0.48661 0.0
H3754 H 0.73904 0.24089 0.46964 0.0
C3755 C 0.7095 0.21295 0.41322 0.0
C3756 C 0.73298 0.21611 0.43597 0.0
H3757 H 0.73163 0.219 0.46476 0.0
C3758 C 0.74377 0.22113 0.43461 0.0
C3759 C 0.72862 0.21524 0.44701 0.0
C3760 C 0.71733 0.20948 0.44914 0.0
C3761 C 0.75017 0.22555 0.44393 0.0
C3762 C 0.74576 0.22476 0.45496 0.0
C3763 C 0.73501 0.21966 0.45632 0.0
C3764 C 0.75211 0.22925 0.4652 0.0
C3765 C 0.76145 0.23132 0.44181 0.0
C3766 C 0.7628 0.22505 0.46849 0.0
C3767 C 0.76864 0.22922 0.47819 0.0
C3768 C 0.76392 0.23765 0.48489 0.0
C3769 C 0.75316 0.24176 0.48161 0.0
C3770 C 0.74732 0.23758 0.47192 0.0
H3771 H 0.76223 0.23386 0.43277 0.0
H3772 H 0.76268 0.23897 0.44718 0.0
H3773 H 0.76838 0.2254 0.44397 0.0
H3774 H 0.7666 0.21847 0.46359 0.0
H3775 H 0.77691 0.22587 0.48036 0.0
H3776 H 0.31017 0.20995 0.40097 0.0
H3777 H 0.29977 0.21653 0.41726 0.0
H3778 H 0.32875 0.2098 0.43932 0.0
H3779 H 0.33921 0.20327 0.42309 0.0
H3780 H 0.29355 0.20595 0.43679 0.0
H3781 H 0.32234 0.24232 0.44719 0.0
H3782 H 0.32303 0.23463 0.43406 0.0
H3783 H 0.32953 0.22908 0.4469 0.0
C3784 C 0.31432 0.20981 0.40929 0.0
C3785 C 0.32558 0.20615 0.41067 0.0
C3786 C 0.30836 0.21362 0.41861 0.0
C3787 C 0.31353 0.21389 0.42952 0.0
C3788 C 0.32467 0.20999 0.43096 0.0
H3789 H 0.27961 0.21946 0.49392 0.0
H3790 H 0.28896 0.21291 0.47702 0.0
C3791 C 0.33065 0.20623 0.42166 0.0
C3792 C 0.30722 0.21811 0.43938 0.0
H3793 H 0.30852 0.23754 0.46081 0.0
C3794 C 0.2968 0.21288 0.44201 0.0
C3795 C 0.31135 0.22729 0.44612 0.0
C3796 C 0.32212 0.23374 0.44338 0.0
C3797 C 0.29054 0.21641 0.4513 0.0
C3798 C 0.2949 0.22529 0.45831 0.0
C3799 C 0.30521 0.23066 0.45553 0.0
C3800 C 0.28891 0.22919 0.46851 0.0
C3801 C 0.27921 0.21072 0.45338 0.0
C3802 C 0.28595 0.2406 0.46953 0.0
C3803 C 0.28064 0.24439 0.47924 0.0
C3804 C 0.27819 0.23688 0.4882 0.0
C3805 C 0.28116 0.22545 0.48714 0.0
C3806 C 0.28651 0.22168 0.47744 0.0
H3807 H 0.27563 0.20657 0.44559 0.0
H3808 H 0.28033 0.20408 0.46 0.0
H3809 H 0.27299 0.21688 0.45638 0.0
H3810 H 0.28772 0.24658 0.46278 0.0
H3811 H 0.27839 0.25321 0.47968 0.0
H3812 H 0.3085 0.83234 0.41353 0.0
H3813 H 0.30242 0.8219 0.43029 0.0
H3814 H 0.32989 0.79876 0.42675 0.0
H3815 H 0.33631 0.80942 0.41017 0.0
H3816 H 0.2952 0.80004 0.4322 0.0
H3817 H 0.33342 0.80709 0.46011 0.0
H3818 H 0.33092 0.81506 0.44719 0.0
H3819 H 0.33634 0.80096 0.44663 0.0
C3820 C 0.3134 0.82515 0.41639 0.0
C3821 C 0.32299 0.82183 0.41048 0.0
C3822 C 0.30984 0.81912 0.42596 0.0
C3823 C 0.31577 0.80962 0.42995 0.0
C3824 C 0.32528 0.80619 0.42402 0.0
H3825 H 0.28654 0.75907 0.47566 0.0
H3826 H 0.29561 0.76883 0.45989 0.0
C3827 C 0.32887 0.81223 0.41443 0.0
C3828 C 0.3117 0.80313 0.44004 0.0
H3829 H 0.31945 0.7941 0.4668 0.0
C3830 C 0.30052 0.79875 0.43975 0.0
C3831 C 0.31856 0.80154 0.44999 0.0
C3832 C 0.33044 0.80649 0.45109 0.0
C3833 C 0.29606 0.79277 0.44903 0.0
C3834 C 0.30301 0.79091 0.45887 0.0
C3835 C 0.31416 0.7954 0.45923 0.0
C3836 C 0.29871 0.78454 0.46891 0.0
C3837 C 0.28383 0.78873 0.4483 0.0
C3838 C 0.29794 0.78988 0.47948 0.0
C3839 C 0.29283 0.78426 0.4886 0.0
C3840 C 0.2884 0.77315 0.48736 0.0
C3841 C 0.28977 0.76763 0.47695 0.0
C3842 C 0.29489 0.77324 0.46786 0.0
H3843 H 0.2789 0.79327 0.44156 0.0
H3844 H 0.2835 0.77957 0.44625 0.0
H3845 H 0.27963 0.7899 0.45651 0.0
H3846 H 0.30089 0.79856 0.48055 0.0
H3847 H 0.29193 0.78881 0.49647 0.0
H3848 H 0.63996 0.19906 0.72249 0.0
H3849 H 0.62336 0.20439 0.73316 0.0
H3850 H 0.61697 0.23168 0.70953 0.0
H3851 H 0.63326 0.22622 0.69864 0.0
H3852 H 0.61898 0.22475 0.74386 0.0
H3853 H 0.58604 0.21581 0.71034 0.0
H3854 H 0.60036 0.21078 0.70958 0.0
H3855 H 0.59721 0.22518 0.70579 0.0
C3856 C 0.63494 0.2061 0.71947 0.0
C3857 C 0.63799 0.21218 0.70966 0.0
C3858 C 0.62548 0.20919 0.72563 0.0
C3859 C 0.61879 0.21835 0.72208 0.0
C3860 C 0.62185 0.22446 0.71235 0.0
H3861 H 0.55982 0.25272 0.74667 0.0
H3862 H 0.57631 0.24656 0.73644 0.0
C3863 C 0.63129 0.2214 0.7062 0.0
C3864 C 0.60878 0.22171 0.72868 0.0
H3865 H 0.58016 0.22598 0.72642 0.0
C3866 C 0.61047 0.22494 0.74007 0.0
C3867 C 0.59767 0.22199 0.72375 0.0
C3868 C 0.59515 0.21816 0.71173 0.0
C3869 C 0.60145 0.2287 0.74656 0.0
C3870 C 0.59035 0.22905 0.7416 0.0
C3871 C 0.58865 0.22575 0.73023 0.0
C3872 C 0.58039 0.23287 0.74803 0.0
C3873 C 0.60397 0.23257 0.75857 0.0
C3874 C 0.57707 0.22718 0.75793 0.0
C3875 C 0.56766 0.23074 0.76387 0.0
C3876 C 0.56127 0.24005 0.76003 0.0
C3877 C 0.56458 0.24565 0.75003 0.0
C3878 C 0.57399 0.24208 0.7441 0.0
H3879 H 0.61312 0.23467 0.76004 0.0
H3880 H 0.59895 0.24012 0.76059 0.0
H3881 H 0.60165 0.22566 0.76454 0.0
H3882 H 0.58171 0.21991 0.76103 0.0
H3883 H 0.56547 0.22623 0.77153 0.0
H3884 H 0.35477 0.13743 0.73158 0.0
H3885 H 0.34633 0.12067 0.74048 0.0
H3886 H 0.32025 0.11927 0.71404 0.0
H3887 H 0.32883 0.13591 0.70487 0.0
H3888 H 0.32455 0.1174 0.74878 0.0
H3889 H 0.33235 0.08696 0.71427 0.0
H3890 H 0.33928 0.10072 0.71504 0.0
H3891 H 0.32479 0.09939 0.70994 0.0
C3892 C 0.34732 0.13349 0.72754 0.0
C3893 C 0.34258 0.138 0.7174 0.0
C3894 C 0.34245 0.12394 0.73271 0.0
C3895 C 0.33274 0.11857 0.72787 0.0
C3896 C 0.32786 0.12312 0.71785 0.0
H3897 H 0.29438 0.05778 0.74805 0.0
H3898 H 0.30119 0.07492 0.73851 0.0
C3899 C 0.33272 0.13272 0.71267 0.0
C3900 C 0.32771 0.10833 0.73345 0.0
H3901 H 0.32187 0.08007 0.72972 0.0
C3902 C 0.32397 0.10924 0.74461 0.0
C3903 C 0.3269 0.09767 0.72802 0.0
C3904 C 0.33112 0.09604 0.71619 0.0
C3905 C 0.31939 0.09985 0.75043 0.0
C3906 C 0.31876 0.08913 0.74508 0.0
C3907 C 0.32237 0.08825 0.73386 0.0
C3908 C 0.31454 0.07871 0.75101 0.0
C3909 C 0.31508 0.10156 0.76221 0.0
C3910 C 0.31982 0.07498 0.76117 0.0
C3911 C 0.31588 0.0652 0.76672 0.0
C3912 C 0.30659 0.05881 0.76221 0.0
C3913 C 0.30141 0.0625 0.75193 0.0
C3914 C 0.30536 0.0723 0.74639 0.0
H3915 H 0.31302 0.11055 0.7637 0.0
H3916 H 0.30738 0.09624 0.76367 0.0
H3917 H 0.32176 0.09914 0.76855 0.0
H3918 H 0.32708 0.0796 0.7648 0.0
H3919 H 0.32008 0.06275 0.77461 0.0
H3920 H 0.39934 0.81771 0.7147 0.0
H3921 H 0.41646 0.81128 0.7248 0.0
H3922 H 0.42967 0.84556 0.7258 0.0
H3923 H 0.41259 0.85208 0.71555 0.0
H3924 H 0.43892 0.8132 0.71797 0.0
H3925 H 0.43378 0.83522 0.75891 0.0
H3926 H 0.42229 0.83353 0.74853 0.0
H3927 H 0.43311 0.84424 0.74659 0.0
C3928 C 0.40588 0.82392 0.71702 0.0
C3929 C 0.40453 0.83545 0.71423 0.0
C3930 C 0.41567 0.82021 0.72286 0.0
C3931 C 0.42435 0.82792 0.72619 0.0
C3932 C 0.42301 0.83946 0.72354 0.0
H3933 H 0.49062 0.82053 0.76049 0.0
H3934 H 0.47336 0.82751 0.75102 0.0
C3935 C 0.41321 0.84318 0.71767 0.0
C3936 C 0.43493 0.82379 0.73203 0.0
H3937 H 0.45115 0.82589 0.75655 0.0
C3938 C 0.44157 0.81595 0.72642 0.0
C3939 C 0.43845 0.82739 0.74305 0.0
C3940 C 0.43151 0.83548 0.74969 0.0
C3941 C 0.45167 0.81176 0.73142 0.0
C3942 C 0.45514 0.81527 0.74249 0.0
C3943 C 0.44852 0.82316 0.74809 0.0
C3944 C 0.46563 0.81093 0.74839 0.0
C3945 C 0.45866 0.80382 0.72465 0.0
C3946 C 0.46704 0.79926 0.75028 0.0
C3947 C 0.47694 0.79523 0.7557 0.0
C3948 C 0.48565 0.80277 0.75951 0.0
C3949 C 0.4841 0.81446 0.75779 0.0
C3950 C 0.47422 0.81848 0.75232 0.0
H3951 H 0.4567 0.80458 0.71539 0.0
H3952 H 0.46789 0.80547 0.72617 0.0
H3953 H 0.4567 0.79496 0.72723 0.0
H3954 H 0.46043 0.79325 0.74764 0.0
H3955 H 0.4777 0.78621 0.75706 0.0
H3956 H 0.68929 0.90613 0.72726 0.0
H3957 H 0.69826 0.92309 0.73558 0.0
H3958 H 0.72028 0.92601 0.70713 0.0
H3959 H 0.71107 0.90923 0.69853 0.0
H3960 H 0.72064 0.92727 0.74219 0.0
H3961 H 0.70719 0.95765 0.70847 0.0
H3962 H 0.70106 0.94358 0.70957 0.0
H3963 H 0.71476 0.94569 0.70351 0.0
C3964 C 0.69593 0.91044 0.72267 0.0
C3965 C 0.69934 0.90633 0.71213 0.0
C3966 C 0.70112 0.92011 0.7275 0.0
C3967 C 0.70983 0.92597 0.72192 0.0
C3968 C 0.71342 0.92179 0.71151 0.0
H3969 H 0.74868 0.98772 0.73976 0.0
H3970 H 0.74144 0.97033 0.73071 0.0
C3971 C 0.70823 0.9121 0.70666 0.0
C3972 C 0.7152 0.93633 0.72714 0.0
H3973 H 0.71957 0.96477 0.72304 0.0
C3974 C 0.7204 0.93547 0.738 0.0
C3975 C 0.71493 0.94704 0.72168 0.0
C3976 C 0.70911 0.94862 0.71021 0.0
C3977 C 0.72536 0.94497 0.74349 0.0
C3978 C 0.72495 0.95572 0.7381 0.0
C3979 C 0.71989 0.95655 0.72718 0.0
C3980 C 0.72949 0.96622 0.74375 0.0
C3981 C 0.73117 0.94338 0.75497 0.0
C3982 C 0.72513 0.96981 0.75405 0.0
C3983 C 0.7293 0.97972 0.7593 0.0
C3984 C 0.73791 0.98637 0.75434 0.0
C3985 C 0.7422 0.98278 0.74395 0.0
C3986 C 0.738 0.97286 0.73871 0.0
H3987 H 0.73362 0.93444 0.75641 0.0
H3988 H 0.73889 0.94888 0.75589 0.0
H3989 H 0.72525 0.94567 0.76169 0.0
H3990 H 0.71841 0.96498 0.75802 0.0
H3991 H 0.72582 0.98211 0.76731 0.0
H3992 H 0.60831 0.82415 0.33302 0.0
H3993 H 0.59093 0.81541 0.32476 0.0
H3994 H 0.61049 0.78835 0.31146 0.0
H3995 H 0.62789 0.79705 0.31953 0.0
H3996 H 0.585 0.80992 0.30214 0.0
H3997 H 0.586 0.77128 0.32906 0.0
H3998 H 0.59458 0.78375 0.3323 0.0
H3999 H 0.59888 0.77399 0.32168 0.0
C4000 C 0.60895 0.8164 0.32824 0.0
C4001 C 0.61954 0.81128 0.32704 0.0
C4002 C 0.59898 0.81137 0.32358 0.0
C4003 C 0.59935 0.80109 0.31769 0.0
C4004 C 0.60993 0.79612 0.31623 0.0
H4005 H 0.55335 0.75652 0.28011 0.0
H4006 H 0.56905 0.7656 0.29084 0.0
C4007 C 0.61989 0.80113 0.32086 0.0
C4008 C 0.58874 0.79562 0.31291 0.0
H4009 H 0.57279 0.77111 0.31336 0.0
C4010 C 0.58226 0.80148 0.30467 0.0
C4011 C 0.58516 0.7846 0.3162 0.0
C4012 C 0.59145 0.77806 0.32537 0.0
C4013 C 0.57255 0.79648 0.29935 0.0
C4014 C 0.56905 0.78538 0.30253 0.0
C4015 C 0.57544 0.7796 0.31091 0.0
C4016 C 0.55914 0.77943 0.29687 0.0
C4017 C 0.56638 0.80297 0.29006 0.0
C4018 C 0.54818 0.78391 0.297 0.0
C4019 C 0.53914 0.77873 0.29085 0.0
C4020 C 0.54084 0.76889 0.28448 0.0
C4021 C 0.55169 0.76409 0.28488 0.0
C4022 C 0.56072 0.76929 0.29101 0.0
H4023 H 0.57167 0.81008 0.28677 0.0
H4024 H 0.56385 0.79733 0.28288 0.0
H4025 H 0.55858 0.80658 0.29348 0.0
H4026 H 0.54667 0.79157 0.30169 0.0
H4027 H 0.5309 0.78265 0.29078 0.0
H4028 H 0.73345 0.12618 0.32754 0.0
H4029 H 0.74139 0.10941 0.31891 0.0
H4030 H 0.70759 0.09638 0.3114 0.0
H4031 H 0.69956 0.11326 0.31967 0.0
H4032 H 0.739 0.08648 0.32431 0.0
H4033 H 0.72228 0.09471 0.28065 0.0
H4034 H 0.72245 0.10533 0.2916 0.0
H4035 H 0.71147 0.09452 0.29105 0.0
C4036 C 0.72767 0.11984 0.32391 0.0
C4037 C 0.71582 0.1212 0.32425 0.0
C4038 C 0.73225 0.11018 0.31906 0.0
C4039 C 0.72512 0.10166 0.31434 0.0
C4040 C 0.7133 0.1029 0.31479 0.0
H4041 H 0.72987 0.0379 0.28062 0.0
H4042 H 0.7248 0.05477 0.29091 0.0
C4043 C 0.70871 0.11254 0.31965 0.0
C4044 C 0.73 0.09147 0.30896 0.0
H4045 H 0.72977 0.07645 0.28424 0.0
C4046 C 0.73706 0.08433 0.31552 0.0
C4047 C 0.72758 0.08867 0.29746 0.0
C4048 C 0.72063 0.09626 0.28974 0.0
C4049 C 0.74133 0.07426 0.31103 0.0
C4050 C 0.73862 0.07131 0.29962 0.0
C4051 C 0.73182 0.07863 0.29301 0.0
C4052 C 0.74211 0.06041 0.29446 0.0
C4053 C 0.74835 0.06665 0.31866 0.0
C4054 C 0.7536 0.05771 0.29319 0.0
C4055 C 0.75657 0.04789 0.28731 0.0
C4056 C 0.74809 0.04069 0.28249 0.0
C4057 C 0.73664 0.04326 0.28415 0.0
C4058 C 0.73371 0.05295 0.29004 0.0
H4059 H 0.74761 0.06883 0.32777 0.0
H4060 H 0.74575 0.05764 0.31746 0.0
H4061 H 0.75742 0.06758 0.31648 0.0
H4062 H 0.76028 0.0634 0.29635 0.0
H4063 H 0.76545 0.04624 0.28606 0.0
H4064 H 0.40864 0.2081 0.33507 0.0
H4065 H 0.42511 0.21674 0.32586 0.0
H4066 H 0.42015 0.19389 0.29769 0.0
H4067 H 0.40355 0.18547 0.30661 0.0
H4068 H 0.44515 0.20654 0.3195 0.0
H4069 H 0.42263 0.22452 0.28178 0.0
H4070 H 0.41529 0.2197 0.29418 0.0
H4071 H 0.41972 0.20969 0.28384 0.0
C4072 C 0.41096 0.20502 0.32684 0.0
C4073 C 0.40472 0.19607 0.32161 0.0
C4074 C 0.42043 0.20992 0.32162 0.0
C4075 C 0.42381 0.20608 0.31099 0.0
C4076 C 0.41762 0.19715 0.30577 0.0
H4077 H 0.47852 0.21937 0.26493 0.0
H4078 H 0.46176 0.21253 0.27477 0.0
C4079 C 0.40819 0.19224 0.31098 0.0
C4080 C 0.43399 0.21112 0.3055 0.0
H4081 H 0.44281 0.22401 0.28114 0.0
C4082 C 0.44463 0.21046 0.31116 0.0
C4083 C 0.43333 0.21622 0.29459 0.0
C4084 C 0.42212 0.21769 0.28828 0.0
C4085 C 0.45464 0.21441 0.30609 0.0
C4086 C 0.45399 0.21938 0.29511 0.0
C4087 C 0.44333 0.22018 0.28952 0.0
C4088 C 0.46428 0.22362 0.2892 0.0
C4089 C 0.46586 0.21289 0.31238 0.0
C4090 C 0.47127 0.23226 0.29393 0.0
C4091 C 0.48095 0.23615 0.28835 0.0
C4092 C 0.48386 0.23155 0.27784 0.0
C4093 C 0.47672 0.22301 0.27306 0.0
C4094 C 0.46705 0.21913 0.27865 0.0
H4095 H 0.46523 0.20639 0.3192 0.0
H4096 H 0.47254 0.21038 0.3065 0.0
H4097 H 0.46855 0.22102 0.31639 0.0
H4098 H 0.46922 0.23604 0.30194 0.0
H4099 H 0.48621 0.24267 0.29237 0.0
H4100 H 0.32117 0.89531 0.30185 0.0
H4101 H 0.31301 0.91241 0.29351 0.0
H4102 H 0.31724 0.92933 0.32572 0.0
H4103 H 0.32591 0.91243 0.334 0.0
H4104 H 0.29439 0.92387 0.29821 0.0
H4105 H 0.3319 0.95222 0.30508 0.0
H4106 H 0.33259 0.93707 0.30691 0.0
H4107 H 0.32733 0.94576 0.31802 0.0
C4108 C 0.32052 0.9027 0.30715 0.0
C4109 C 0.32436 0.90246 0.3186 0.0
C4110 C 0.31577 0.91248 0.30237 0.0
C4111 C 0.31472 0.9223 0.30888 0.0
C4112 C 0.31822 0.922 0.3204 0.0
H4113 H 0.28107 0.98529 0.30389 0.0
H4114 H 0.29247 0.9688 0.3086 0.0
C4115 C 0.32302 0.91223 0.32519 0.0
C4116 C 0.30972 0.93273 0.3037 0.0
H4117 H 0.31438 0.96121 0.3001 0.0
C4118 C 0.29884 0.932 0.29849 0.0
C4119 C 0.31553 0.94336 0.30395 0.0
C4120 C 0.32753 0.94466 0.30868 0.0
C4121 C 0.29343 0.94165 0.29401 0.0
C4122 C 0.29908 0.95232 0.29465 0.0
C4123 C 0.31006 0.95302 0.29959 0.0
C4124 C 0.29325 0.96297 0.2913 0.0
C4125 C 0.28152 0.94045 0.28903 0.0
C4126 C 0.2902 0.96542 0.27992 0.0
C4127 C 0.28375 0.97501 0.27715 0.0
C4128 C 0.28016 0.98218 0.28577 0.0
C4129 C 0.28367 0.97992 0.29706 0.0
C4130 C 0.29019 0.97049 0.29978 0.0
H4131 H 0.27778 0.93187 0.29046 0.0
H4132 H 0.27594 0.94681 0.29279 0.0
H4133 H 0.28163 0.94206 0.27975 0.0
H4134 H 0.29256 0.95978 0.27322 0.0
H4135 H 0.2811 0.97648 0.2684 0.0
H4136 H 0.7042 0.11848 0.70844 0.0
H4137 H 0.71386 0.10137 0.71476 0.0
H4138 H 0.74617 0.11689 0.70714 0.0
H4139 H 0.73655 0.13409 0.7007 0.0
H4140 H 0.72778 0.087 0.70309 0.0
H4141 H 0.75139 0.10636 0.73993 0.0
H4142 H 0.73983 0.11339 0.73259 0.0
H4143 H 0.75357 0.11306 0.72643 0.0
C4144 C 0.71335 0.11826 0.70798 0.0
C4145 C 0.71956 0.12773 0.70403 0.0
C4146 C 0.71888 0.10845 0.71166 0.0
C4147 C 0.73077 0.10785 0.71158 0.0
C4148 C 0.73702 0.11721 0.70752 0.0
H4149 H 0.77115 0.05112 0.74039 0.0
H4150 H 0.76646 0.06808 0.72897 0.0
C4151 C 0.73148 0.12706 0.70383 0.0
C4152 C 0.73649 0.09735 0.71571 0.0
H4153 H 0.75402 0.08694 0.73683 0.0
C4154 C 0.73359 0.08702 0.71041 0.0
C4155 C 0.74417 0.09734 0.72521 0.0
C4156 C 0.74739 0.1081 0.73146 0.0
C4157 C 0.73789 0.0767 0.71451 0.0
C4158 C 0.74517 0.07662 0.7243 0.0
C4159 C 0.74847 0.08699 0.72931 0.0
C4160 C 0.74826 0.06587 0.73025 0.0
C4161 C 0.73446 0.06591 0.70841 0.0
C4162 C 0.73964 0.05898 0.7347 0.0
C4163 C 0.74228 0.04941 0.74119 0.0
C4164 C 0.75363 0.04643 0.74343 0.0
C4165 C 0.76232 0.05311 0.73869 0.0
C4166 C 0.75965 0.06283 0.73224 0.0
H4167 H 0.73212 0.06758 0.69936 0.0
H4168 H 0.7414 0.05968 0.70883 0.0
H4169 H 0.72693 0.06207 0.71248 0.0
H4170 H 0.73081 0.06122 0.73348 0.0
H4171 H 0.73537 0.04449 0.74474 0.0
H4172 H 0.68169 0.90651 0.30558 0.0
H4173 H 0.69006 0.92345 0.29696 0.0
H4174 H 0.71934 0.92094 0.31961 0.0
H4175 H 0.71098 0.90398 0.32835 0.0
H4176 H 0.69627 0.94401 0.3065 0.0
H4177 H 0.73391 0.92372 0.28882 0.0
H4178 H 0.722 0.91562 0.29406 0.0
H4179 H 0.73244 0.92165 0.30382 0.0
C4180 C 0.68987 0.90958 0.30882 0.0
C4181 C 0.69563 0.90381 0.31771 0.0
C4182 C 0.69468 0.91927 0.30382 0.0
C4183 C 0.70541 0.92344 0.3075 0.0
C4184 C 0.71117 0.91778 0.31642 0.0
H4185 H 0.74704 0.98113 0.28483 0.0
H4186 H 0.7392 0.96498 0.2953 0.0
C4187 C 0.70636 0.90806 0.32143 0.0
C4188 C 0.7104 0.93381 0.3021 0.0
H4189 H 0.73305 0.94366 0.28715 0.0
C4190 C 0.70431 0.94392 0.30226 0.0
C4191 C 0.72092 0.93375 0.29658 0.0
C4192 C 0.72767 0.92309 0.29569 0.0
C4193 C 0.70845 0.95393 0.29715 0.0
C4194 C 0.71889 0.95383 0.29151 0.0
C4195 C 0.72505 0.94377 0.29147 0.0
C4196 C 0.72345 0.96399 0.2854 0.0
C4197 C 0.70167 0.96457 0.29799 0.0
C4198 C 0.71725 0.96886 0.2763 0.0
C4199 C 0.7217 0.97816 0.27032 0.0
C4200 C 0.73248 0.98282 0.27325 0.0
C4201 C 0.73865 0.97794 0.28242 0.0
C4202 C 0.73421 0.96862 0.28837 0.0
H4203 H 0.69578 0.96412 0.30517 0.0
H4204 H 0.70733 0.97214 0.29912 0.0
H4205 H 0.6965 0.9657 0.29005 0.0
H4206 H 0.70903 0.96535 0.27368 0.0
H4207 H 0.71667 0.98168 0.26337 0.0
H4208 H 0.61942 0.19145 0.31308 0.0
H4209 H 0.60224 0.20166 0.30771 0.0
H4210 H 0.61443 0.2305 0.32709 0.0
H4211 H 0.63186 0.22041 0.3323 0.0
H4212 H 0.58578 0.21067 0.32165 0.0
H4213 H 0.60624 0.2446 0.29595 0.0
H4214 H 0.61349 0.23181 0.30001 0.0
H4215 H 0.61172 0.24279 0.31024 0.0
C4216 C 0.61855 0.20002 0.31612 0.0
C4217 C 0.62716 0.20511 0.32305 0.0
C4218 C 0.60865 0.20583 0.3131 0.0
C4219 C 0.60706 0.21693 0.31684 0.0
C4220 C 0.61552 0.22202 0.32391 0.0
H4221 H 0.54896 0.25975 0.29426 0.0
H4222 H 0.56586 0.25353 0.30538 0.0
C4223 C 0.62545 0.21618 0.32698 0.0
C4224 C 0.59645 0.22298 0.31338 0.0
H4225 H 0.58634 0.24486 0.29701 0.0
C4226 C 0.58593 0.21821 0.31636 0.0
C4227 C 0.59657 0.23291 0.30656 0.0
C4228 C 0.60758 0.23833 0.3029 0.0
C4229 C 0.5756 0.22286 0.31246 0.0
C4230 C 0.57571 0.23244 0.30516 0.0
C4231 C 0.58621 0.23754 0.3026 0.0
C4232 C 0.56516 0.23635 0.29905 0.0
C4233 C 0.56463 0.21734 0.3161 0.0
C4234 C 0.55916 0.22884 0.2918 0.0
C4235 C 0.54962 0.23234 0.28551 0.0
C4236 C 0.54575 0.24351 0.2862 0.0
C4237 C 0.55163 0.25107 0.2936 0.0
C4238 C 0.56132 0.24753 0.2999 0.0
H4239 H 0.56575 0.21292 0.3244 0.0
H4240 H 0.55782 0.22364 0.31679 0.0
H4241 H 0.56183 0.21092 0.30971 0.0
H4242 H 0.56203 0.22026 0.29077 0.0
H4243 H 0.54536 0.22626 0.27991 0.0
H4244 H 0.31585 0.12559 0.31949 0.0
H4245 H 0.30665 0.1086 0.31123 0.0
H4246 H 0.30218 0.09482 0.34478 0.0
H4247 H 0.31142 0.11164 0.35308 0.0
H4248 H 0.31202 0.08533 0.31335 0.0
H4249 H 0.26985 0.09382 0.33076 0.0
H4250 H 0.28106 0.10445 0.33034 0.0
H4251 H 0.28122 0.09374 0.34125 0.0
C4252 C 0.31302 0.1189 0.32511 0.0
C4253 C 0.31427 0.12008 0.33697 0.0
C4254 C 0.30771 0.10921 0.32038 0.0
C4255 C 0.3035 0.10053 0.32739 0.0
C4256 C 0.30508 0.10152 0.3392 0.0
H4257 H 0.26759 0.03624 0.31897 0.0
H4258 H 0.27753 0.05333 0.32587 0.0
C4259 C 0.31037 0.11117 0.34393 0.0
C4260 C 0.29744 0.09044 0.32244 0.0
H4261 H 0.27215 0.07574 0.32252 0.0
C4262 C 0.30328 0.08327 0.31528 0.0
C4263 C 0.28602 0.08775 0.32496 0.0
C4264 C 0.27912 0.09539 0.33216 0.0
C4265 C 0.29813 0.0733 0.31086 0.0
C4266 C 0.28674 0.07055 0.31349 0.0
C4267 C 0.28088 0.07781 0.32054 0.0
C4268 C 0.28078 0.06011 0.30916 0.0
C4269 C 0.30504 0.06564 0.3037 0.0
C4270 C 0.27914 0.05826 0.29746 0.0
C4271 C 0.27342 0.04848 0.29347 0.0
C4272 C 0.26911 0.04036 0.3011 0.0
C4273 C 0.27066 0.04232 0.31283 0.0
C4274 C 0.27641 0.05208 0.3168 0.0
H4275 H 0.3143 0.06736 0.30493 0.0
H4276 H 0.30326 0.0566 0.30572 0.0
H4277 H 0.30277 0.06708 0.2946 0.0
H4278 H 0.28217 0.06445 0.29139 0.0
H4279 H 0.27221 0.0474 0.28441 0.0
H4280 H 0.41334 0.83864 0.32809 0.0
H4281 H 0.42963 0.8338 0.31677 0.0
H4282 H 0.4136 0.8017 0.30829 0.0
H4283 H 0.39719 0.80657 0.31936 0.0
H4284 H 0.44419 0.81539 0.31954 0.0
H4285 H 0.42229 0.81445 0.27721 0.0
H4286 H 0.41621 0.82089 0.28942 0.0
H4287 H 0.41553 0.80578 0.2877 0.0
C4288 C 0.4132 0.83062 0.32369 0.0
C4289 C 0.40391 0.82302 0.32463 0.0
C4290 C 0.42256 0.82783 0.31728 0.0
C4291 C 0.42281 0.81744 0.31156 0.0
C4292 C 0.41355 0.80984 0.31247 0.0
H4293 H 0.48035 0.78196 0.28571 0.0
H4294 H 0.46473 0.78879 0.29674 0.0
C4295 C 0.40421 0.8126 0.31891 0.0
C4296 C 0.43285 0.81441 0.30489 0.0
H4297 H 0.44091 0.80698 0.27837 0.0
C4298 C 0.44349 0.81361 0.31053 0.0
C4299 C 0.43197 0.81221 0.2931 0.0
C4300 C 0.42092 0.81347 0.28645 0.0
C4301 C 0.45319 0.8104 0.30475 0.0
C4302 C 0.45223 0.80779 0.29304 0.0
C4303 C 0.44165 0.80888 0.28736 0.0
C4304 C 0.46206 0.80385 0.28655 0.0
C4305 C 0.46442 0.80996 0.31123 0.0
C4306 C 0.46571 0.80993 0.27701 0.0
C4307 C 0.47471 0.80604 0.27066 0.0
C4308 C 0.48022 0.79593 0.27365 0.0
C4309 C 0.47653 0.78988 0.28324 0.0
C4310 C 0.46754 0.79378 0.28958 0.0
H4311 H 0.46439 0.81509 0.3191 0.0
H4312 H 0.46612 0.80106 0.31371 0.0
H4313 H 0.47148 0.81306 0.30592 0.0
H4314 H 0.46161 0.81771 0.27447 0.0
H4315 H 0.47734 0.81099 0.26342 0.0
H4316 H 0.30541 0.91478 0.70769 0.0
H4317 H 0.29574 0.93165 0.71417 0.0
H4318 H 0.32811 0.94737 0.723 0.0
H4319 H 0.33781 0.93059 0.7167 0.0
H4320 H 0.29609 0.94174 0.73542 0.0
H4321 H 0.31301 0.97185 0.70375 0.0
H4322 H 0.3139 0.9567 0.7022 0.0
H4323 H 0.32406 0.9643 0.71116 0.0
C4324 C 0.31049 0.92181 0.71103 0.0
C4325 C 0.32244 0.9213 0.71154 0.0
C4326 C 0.30493 0.93148 0.71469 0.0
C4327 C 0.31118 0.94091 0.71887 0.0
C4328 C 0.32309 0.94037 0.71951 0.0
H4329 H 0.30686 1.00164 0.75484 0.0
H4330 H 0.31087 0.98534 0.74323 0.0
C4331 C 0.32864 0.93073 0.71588 0.0
C4332 C 0.30537 0.95118 0.72294 0.0
H4333 H 0.30532 0.98004 0.7204 0.0
C4334 C 0.29793 0.9501 0.732 0.0
C4335 C 0.30768 0.9621 0.71844 0.0
C4336 C 0.31501 0.96382 0.70827 0.0
C4337 C 0.29335 0.95968 0.73713 0.0
C4338 C 0.29617 0.97064 0.733 0.0
C4339 C 0.30316 0.97166 0.72359 0.0
C4340 C 0.29327 0.98112 0.73922 0.0
C4341 C 0.28609 0.95805 0.74735 0.0
C4342 C 0.28198 0.98446 0.74061 0.0
C4343 C 0.27962 0.99396 0.74727 0.0
C4344 C 0.28853 1.00017 0.75269 0.0
C4345 C 0.29978 0.99702 0.75086 0.0
C4346 C 0.30211 0.98768 0.74419 0.0
H4347 H 0.286 0.94915 0.75044 0.0
H4348 H 0.28918 0.96364 0.75439 0.0
H4349 H 0.27723 0.9604 0.74509 0.0
H4350 H 0.27501 0.97963 0.73672 0.0
H4351 H 0.27087 0.99614 0.74856 0.0
H4352 H 0.6243 0.79949 0.69327 0.0
H4353 H 0.60709 0.79214 0.70206 0.0
H4354 H 0.60114 0.82513 0.71586 0.0
H4355 H 0.6181 0.83265 0.70678 0.0
H4356 H 0.60133 0.79097 0.72444 0.0
H4357 H 0.57066 0.81758 0.70045 0.0
H4358 H 0.5852 0.81621 0.69634 0.0
H4359 H 0.58174 0.82574 0.70752 0.0
C4360 C 0.61926 0.80525 0.69805 0.0
C4361 C 0.62259 0.81673 0.6992 0.0
C4362 C 0.60945 0.80099 0.70314 0.0
C4363 C 0.60266 0.8081 0.70946 0.0
C4364 C 0.60607 0.81951 0.71082 0.0
H4365 H 0.54648 0.80521 0.75287 0.0
H4366 H 0.56213 0.8095 0.74047 0.0
C4367 C 0.61588 0.82377 0.70573 0.0
C4368 C 0.59217 0.80358 0.71483 0.0
H4369 H 0.56372 0.80803 0.71686 0.0
C4370 C 0.59308 0.7946 0.72267 0.0
C4371 C 0.58136 0.80823 0.71247 0.0
C4372 C 0.57963 0.81739 0.70365 0.0
C4373 C 0.58361 0.79056 0.72862 0.0
C4374 C 0.57289 0.79551 0.72657 0.0
C4375 C 0.57192 0.80422 0.71845 0.0
C4376 C 0.56287 0.79263 0.73356 0.0
C4377 C 0.58526 0.78139 0.73745 0.0
C4378 C 0.55782 0.78172 0.73366 0.0
C4379 C 0.54872 0.7792 0.7408 0.0
C4380 C 0.54459 0.78755 0.74797 0.0
C4381 C 0.54947 0.79852 0.74754 0.0
C4382 C 0.55844 0.80102 0.74042 0.0
H4383 H 0.59438 0.77982 0.73938 0.0
H4384 H 0.58113 0.78367 0.74545 0.0
H4385 H 0.58123 0.77339 0.7343 0.0
H4386 H 0.56097 0.77514 0.72831 0.0
H4387 H 0.54516 0.77068 0.74094 0.0
H4388 H 0.41709 0.24567 0.69979 0.0
H4389 H 0.43481 0.2537 0.70796 0.0
H4390 H 0.4443 0.22065 0.72017 0.0
H4391 H 0.42654 0.21256 0.71225 0.0
H4392 H 0.44331 0.2535 0.73075 0.0
H4393 H 0.47205 0.23139 0.70232 0.0
H4394 H 0.45699 0.23246 0.69927 0.0
H4395 H 0.4622 0.22204 0.70922 0.0
C4396 C 0.42288 0.24009 0.70431 0.0
C4397 C 0.42034 0.22842 0.7053 0.0
C4398 C 0.43305 0.24471 0.70891 0.0
C4399 C 0.44099 0.23776 0.71451 0.0
C4400 C 0.43843 0.22615 0.71566 0.0
H4401 H 0.50171 0.23872 0.754 0.0
H4402 H 0.48501 0.23539 0.74179 0.0
C4403 C 0.42825 0.22153 0.7111 0.0
C4404 C 0.45185 0.24261 0.71935 0.0
H4405 H 0.48065 0.23981 0.71894 0.0
C4406 C 0.45149 0.25065 0.72806 0.0
C4407 C 0.46253 0.23897 0.71577 0.0
C4408 C 0.46352 0.23082 0.70606 0.0
C4409 C 0.46148 0.25461 0.73375 0.0
C4410 C 0.47214 0.25057 0.7305 0.0
C4411 C 0.4725 0.24292 0.72144 0.0
C4412 C 0.48281 0.25299 0.73726 0.0
C4413 C 0.46052 0.2626 0.7436 0.0
C4414 C 0.4874 0.26403 0.73861 0.0
C4415 C 0.4971 0.266 0.74566 0.0
C4416 C 0.5023 0.25695 0.75149 0.0
C4417 C 0.49789 0.24592 0.74974 0.0
C4418 C 0.48832 0.24397 0.74271 0.0
H4419 H 0.45159 0.26346 0.74619 0.0
H4420 H 0.46568 0.25962 0.75104 0.0
H4421 H 0.46381 0.2711 0.74115 0.0
H4422 H 0.48341 0.27112 0.73434 0.0
H4423 H 0.50028 0.27459 0.74685 0.0
H4424 H 0.72742 0.71532 0.12523 0.0
H4425 H 0.73323 0.72657 0.10885 0.0
H4426 H 0.69814 0.73031 0.09831 0.0
H4427 H 0.69222 0.71941 0.11491 0.0
H4428 H 0.72948 0.72224 0.08612 0.0
H4429 H 0.70994 0.76287 0.09731 0.0
H4430 H 0.71163 0.7514 0.10738 0.0
H4431 H 0.70018 0.751 0.09693 0.0
C4432 C 0.72091 0.71869 0.11955 0.0
C4433 C 0.70933 0.7165 0.12148 0.0
C4434 C 0.72426 0.72505 0.11012 0.0
C4435 C 0.71613 0.72945 0.10241 0.0
C4436 C 0.70457 0.72722 0.10425 0.0
H4437 H 0.72067 0.76797 0.03923 0.0
H4438 H 0.71431 0.75727 0.05577 0.0
C4439 C 0.7012 0.72085 0.11369 0.0
C4440 C 0.7198 0.73605 0.0923 0.0
H4441 H 0.71759 0.76175 0.07896 0.0
C4442 C 0.72691 0.73089 0.08458 0.0
C4443 C 0.71644 0.74735 0.09026 0.0
C4444 C 0.70921 0.75354 0.09845 0.0
C4445 C 0.73062 0.73664 0.07484 0.0
C4446 C 0.72729 0.74795 0.07282 0.0
C4447 C 0.72013 0.75309 0.0805 0.0
C4448 C 0.7312 0.75459 0.06284 0.0
C4449 C 0.73787 0.73046 0.06667 0.0
C4450 C 0.74282 0.75684 0.06137 0.0
C4451 C 0.74649 0.763 0.05193 0.0
C4452 C 0.73863 0.76714 0.04375 0.0
C4453 C 0.72698 0.76503 0.04536 0.0
C4454 C 0.72331 0.75886 0.05481 0.0
H4455 H 0.73714 0.72113 0.06778 0.0
H4456 H 0.73549 0.73262 0.05773 0.0
H4457 H 0.74691 0.733 0.06822 0.0
H4458 H 0.74906 0.75389 0.06759 0.0
H4459 H 0.7555 0.76464 0.05115 0.0
H4460 H 0.32069 0.7173 0.12407 0.0
H4461 H 0.31224 0.72592 0.10695 0.0
H4462 H 0.31369 0.69402 0.08956 0.0
H4463 H 0.32231 0.68536 0.10655 0.0
H4464 H 0.32121 0.72752 0.08502 0.0
H4465 H 0.28039 0.70309 0.08402 0.0
H4466 H 0.28967 0.70373 0.09649 0.0
H4467 H 0.293 0.69478 0.08484 0.0
C4468 C 0.31932 0.71211 0.1166 0.0
C4469 C 0.32217 0.70059 0.11679 0.0
C4470 C 0.3144 0.71705 0.10682 0.0
C4471 C 0.31211 0.71058 0.09701 0.0
C4472 C 0.31508 0.69913 0.09709 0.0
H4473 H 0.28373 0.73125 0.02971 0.0
H4474 H 0.29054 0.71965 0.04596 0.0
C4475 C 0.32003 0.69419 0.10685 0.0
C4476 C 0.30701 0.71595 0.08659 0.0
H4477 H 0.28358 0.71559 0.06862 0.0
C4478 C 0.31299 0.7249 0.08145 0.0
C4479 C 0.29632 0.71246 0.08181 0.0
C4480 C 0.2894 0.70305 0.08709 0.0
C4481 C 0.30859 0.73047 0.07174 0.0
C4482 C 0.29774 0.72723 0.06716 0.0
C4483 C 0.29186 0.7181 0.07213 0.0
C4484 C 0.29223 0.73372 0.05764 0.0
C4485 C 0.31571 0.73973 0.06643 0.0
C4486 C 0.29037 0.74533 0.05893 0.0
C4487 C 0.2866 0.75189 0.04973 0.0
C4488 C 0.28433 0.74699 0.03903 0.0
C4489 C 0.28533 0.73522 0.03788 0.0
C4490 C 0.28929 0.72862 0.04714 0.0
H4491 H 0.32488 0.73877 0.06861 0.0
H4492 H 0.31456 0.73979 0.05704 0.0
H4493 H 0.3131 0.74805 0.06968 0.0
H4494 H 0.29224 0.74942 0.06699 0.0
H4495 H 0.2858 0.76093 0.05089 0.0
H4496 H 0.33277 0.30321 0.1415 0.0
H4497 H 0.32624 0.29308 0.12433 0.0
H4498 H 0.32302 0.32486 0.10648 0.0
H4499 H 0.32949 0.33501 0.12352 0.0
H4500 H 0.30624 0.29406 0.11214 0.0
H4501 H 0.34118 0.30717 0.08443 0.0
H4502 H 0.34197 0.30912 0.09961 0.0
H4503 H 0.33459 0.31912 0.09061 0.0
C4504 C 0.33068 0.30806 0.13392 0.0
C4505 C 0.33179 0.31997 0.13392 0.0
C4506 C 0.32698 0.30223 0.12408 0.0
C4507 C 0.32435 0.30816 0.11398 0.0
C4508 C 0.32532 0.32004 0.11401 0.0
H4509 H 0.29048 0.30095 0.05021 0.0
H4510 H 0.30165 0.30594 0.06726 0.0
C4511 C 0.32903 0.32585 0.12381 0.0
C4512 C 0.32014 0.30205 0.10353 0.0
H4513 H 0.32413 0.30004 0.07498 0.0
C4514 C 0.31027 0.29519 0.10405 0.0
C4515 C 0.32542 0.30343 0.09295 0.0
C4516 C 0.33644 0.31001 0.09187 0.0
C4517 C 0.30519 0.29027 0.09422 0.0
C4518 C 0.31017 0.29214 0.08357 0.0
C4519 C 0.32029 0.2986 0.08312 0.0
C4520 C 0.3043 0.28866 0.07269 0.0
C4521 C 0.2942 0.28361 0.09519 0.0
C4522 C 0.30233 0.27721 0.06979 0.0
C4523 C 0.29597 0.27429 0.05988 0.0
C4524 C 0.2914 0.28279 0.05278 0.0
C4525 C 0.29381 0.29419 0.05551 0.0
C4526 C 0.30022 0.29707 0.06527 0.0
H4527 H 0.29066 0.28422 0.10379 0.0
H4528 H 0.28779 0.28666 0.08884 0.0
H4529 H 0.29571 0.27456 0.09342 0.0
H4530 H 0.30552 0.27056 0.07531 0.0
H4531 H 0.2942 0.26544 0.05805 0.0
H4532 H 0.73202 0.34257 0.1294 0.0
H4533 H 0.73871 0.33294 0.11265 0.0
H4534 H 0.70855 0.31166 0.11184 0.0
H4535 H 0.70155 0.32157 0.1283 0.0
H4536 H 0.74369 0.31082 0.10918 0.0
H4537 H 0.70868 0.32333 0.07951 0.0
H4538 H 0.71095 0.32977 0.09326 0.0
H4539 H 0.70385 0.31619 0.092 0.0
C4540 C 0.7267 0.33596 0.12558 0.0
C4541 C 0.71615 0.33297 0.1302 0.0
C4542 C 0.7306 0.33038 0.11604 0.0
C4543 C 0.72406 0.32169 0.11082 0.0
C4544 C 0.71365 0.31851 0.11553 0.0
H4545 H 0.73255 0.27675 0.05385 0.0
H4546 H 0.72643 0.2866 0.07064 0.0
C4547 C 0.70972 0.3241 0.12507 0.0
C4548 C 0.72823 0.31589 0.10056 0.0
H4549 H 0.72125 0.30953 0.07289 0.0
C4550 C 0.73881 0.31059 0.10123 0.0
C4551 C 0.72189 0.3156 0.09014 0.0
C4552 C 0.71077 0.32161 0.08861 0.0
C4553 C 0.74309 0.30483 0.0919 0.0
C4554 C 0.7367 0.30445 0.08153 0.0
C4555 C 0.72615 0.30978 0.08084 0.0
C4556 C 0.74068 0.29842 0.07135 0.0
C4557 C 0.75429 0.29893 0.09331 0.0
C4558 C 0.75073 0.3018 0.06604 0.0
C4559 C 0.75425 0.29621 0.05632 0.0
C4560 C 0.74777 0.28713 0.05163 0.0
C4561 C 0.73771 0.28378 0.05702 0.0
C4562 C 0.7342 0.28938 0.06671 0.0
H4563 H 0.75678 0.2977 0.1024 0.0
H4564 H 0.75392 0.29055 0.08909 0.0
H4565 H 0.76101 0.30415 0.08931 0.0
H4566 H 0.75577 0.30889 0.06932 0.0
H4567 H 0.76193 0.29916 0.05237 0.0
H4568 H 0.7113 0.32032 0.91098 0.0
H4569 H 0.71944 0.31106 0.92796 0.0
H4570 H 0.74614 0.33652 0.92982 0.0
H4571 H 0.73817 0.34574 0.91287 0.0
H4572 H 0.74115 0.30213 0.93217 0.0
H4573 H 0.73337 0.33733 0.96166 0.0
H4574 H 0.72666 0.33642 0.9477 0.0
H4575 H 0.74107 0.34162 0.94939 0.0
C4576 C 0.71894 0.32392 0.91496 0.0
C4577 C 0.72398 0.33388 0.91059 0.0
C4578 C 0.72356 0.31864 0.9247 0.0
C4579 C 0.73328 0.32322 0.93032 0.0
C4580 C 0.73847 0.33299 0.92583 0.0
H4581 H 0.77672 0.30716 0.98856 0.0
H4582 H 0.76737 0.31516 0.97161 0.0
C4583 C 0.73387 0.33827 0.91612 0.0
C4584 C 0.73813 0.31775 0.94078 0.0
H4585 H 0.74545 0.32279 0.96863 0.0
C4586 C 0.742 0.30661 0.94017 0.0
C4587 C 0.73925 0.32358 0.95123 0.0
C4588 C 0.73477 0.33536 0.95261 0.0
C4589 C 0.74729 0.30128 0.94961 0.0
C4590 C 0.74856 0.30719 0.96002 0.0
C4591 C 0.74453 0.31827 0.96065 0.0
C4592 C 0.75423 0.30214 0.97029 0.0
C4593 C 0.7518 0.28952 0.94824 0.0
C4594 C 0.7499 0.29219 0.97532 0.0
C4595 C 0.75526 0.28757 0.98503 0.0
C4596 C 0.76502 0.29283 0.98998 0.0
C4597 C 0.76925 0.30285 0.98499 0.0
C4598 C 0.76389 0.30746 0.97529 0.0
H4599 H 0.75277 0.28735 0.93916 0.0
H4600 H 0.76015 0.28866 0.95275 0.0
H4601 H 0.74577 0.28328 0.95193 0.0
H4602 H 0.74232 0.28805 0.97179 0.0
H4603 H 0.75172 0.27988 0.98866 0.0
H4604 H 0.73855 0.71502 0.89861 0.0
H4605 H 0.74827 0.72252 0.91575 0.0
H4606 H 0.71706 0.71954 0.93376 0.0
H4607 H 0.70733 0.71205 0.91676 0.0
H4608 H 0.74453 0.74144 0.92769 0.0
H4609 H 0.73861 0.70447 0.95598 0.0
H4610 H 0.73604 0.70368 0.94082 0.0
H4611 H 0.72536 0.70906 0.94986 0.0
C4612 C 0.73375 0.71593 0.90623 0.0
C4613 C 0.72214 0.71281 0.90627 0.0
C4614 C 0.73934 0.72019 0.91605 0.0
C4615 C 0.73349 0.72139 0.92618 0.0
C4616 C 0.72189 0.71837 0.92621 0.0
H4617 H 0.73779 0.75527 0.98903 0.0
H4618 H 0.73392 0.74345 0.97242 0.0
C4619 C 0.71631 0.71409 0.91643 0.0
C4620 C 0.73928 0.72632 0.93655 0.0
H4621 H 0.74319 0.72222 0.96517 0.0
C4622 C 0.74442 0.73714 0.93585 0.0
C4623 C 0.73925 0.72072 0.94722 0.0
C4624 C 0.73463 0.70879 0.94851 0.0
C4625 C 0.7489 0.74274 0.94557 0.0
C4626 C 0.74834 0.73736 0.95631 0.0
C4627 C 0.74362 0.72636 0.95695 0.0
C4628 C 0.7513 0.74351 0.96707 0.0
C4629 C 0.75365 0.75463 0.94439 0.0
C4630 C 0.76248 0.74719 0.96988 0.0
C4631 C 0.76477 0.75391 0.97955 0.0
C4632 C 0.75588 0.75712 0.98647 0.0
C4633 C 0.74483 0.75298 0.98387 0.0
C4634 C 0.74259 0.7462 0.97435 0.0
H4635 H 0.75214 0.75815 0.93573 0.0
H4636 H 0.7498 0.76031 0.95062 0.0
H4637 H 0.76295 0.75463 0.94622 0.0
H4638 H 0.76938 0.74511 0.96444 0.0
H4639 H 0.77334 0.75706 0.98128 0.0
H4640 H 0.3519 0.72599 0.90141 0.0
H4641 H 0.34354 0.73451 0.91797 0.0
H4642 H 0.3153 0.71081 0.91533 0.0
H4643 H 0.32378 0.702 0.89892 0.0
H4644 H 0.32268 0.74482 0.91986 0.0
H4645 H 0.32548 0.70754 0.94866 0.0
H4646 H 0.33308 0.70849 0.93561 0.0
H4647 H 0.31818 0.70491 0.93531 0.0
C4648 C 0.34399 0.72245 0.90442 0.0
C4649 C 0.33861 0.71319 0.89884 0.0
C4650 C 0.33917 0.72741 0.91387 0.0
C4651 C 0.32886 0.72322 0.91805 0.0
C4652 C 0.32336 0.71408 0.91243 0.0
H4653 H 0.2891 0.74275 0.97619 0.0
H4654 H 0.29601 0.73394 0.9591 0.0
C4655 C 0.32818 0.70912 0.90294 0.0
C4656 C 0.32384 0.72859 0.92816 0.0
H4657 H 0.31598 0.72346 0.95547 0.0
C4658 C 0.32123 0.74014 0.92764 0.0
C4659 C 0.32189 0.72251 0.93834 0.0
C4660 C 0.32488 0.7102 0.93961 0.0
C4661 C 0.31665 0.74574 0.93693 0.0
C4662 C 0.31485 0.73971 0.94718 0.0
C4663 C 0.31735 0.72812 0.94765 0.0
C4664 C 0.31053 0.74528 0.95753 0.0
C4665 C 0.31357 0.75802 0.93558 0.0
C4666 C 0.3164 0.75457 0.96249 0.0
C4667 C 0.3124 0.75972 0.97225 0.0
C4668 C 0.30246 0.75567 0.97741 0.0
C4669 C 0.29666 0.74628 0.97246 0.0
C4670 C 0.30066 0.74115 0.96268 0.0
H4671 H 0.31222 0.76038 0.9265 0.0
H4672 H 0.30576 0.75992 0.94018 0.0
H4673 H 0.32062 0.76342 0.93911 0.0
H4674 H 0.32416 0.7578 0.95888 0.0
H4675 H 0.3171 0.76694 0.97569 0.0
H4676 H 0.31338 0.34377 0.91464 0.0
H4677 H 0.30425 0.33547 0.93115 0.0
H4678 H 0.32953 0.3096 0.93313 0.0
H4679 H 0.33892 0.31804 0.91673 0.0
H4680 H 0.29511 0.31346 0.93399 0.0
H4681 H 0.33012 0.32242 0.96555 0.0
H4682 H 0.32941 0.32917 0.95177 0.0
H4683 H 0.33406 0.31483 0.95315 0.0
C4684 C 0.31711 0.33639 0.91865 0.0
C4685 C 0.32698 0.33166 0.9144 0.0
C4686 C 0.31181 0.33161 0.92805 0.0
C4687 C 0.31627 0.322 0.9335 0.0
C4688 C 0.32603 0.31713 0.9292 0.0
H4689 H 0.29519 0.28503 0.99411 0.0
H4690 H 0.30479 0.29143 0.9771 0.0
C4691 C 0.33133 0.3219 0.91974 0.0
C4692 C 0.31058 0.31709 0.94358 0.0
H4693 H 0.31424 0.31203 0.97204 0.0
C4694 C 0.29929 0.31314 0.94231 0.0
C4695 C 0.31605 0.31663 0.95443 0.0
C4696 C 0.32805 0.32106 0.95639 0.0
C4697 C 0.29335 0.30871 0.95157 0.0
C4698 C 0.29874 0.30844 0.96248 0.0
C4699 C 0.31009 0.31225 0.96371 0.0
C4700 C 0.29271 0.30443 0.97275 0.0
C4701 C 0.28141 0.30416 0.94951 0.0
C4702 C 0.28276 0.30965 0.97611 0.0
C4703 C 0.27716 0.30593 0.9858 0.0
C4704 C 0.28143 0.29695 0.99248 0.0
C4705 C 0.29149 0.29183 0.98915 0.0
C4706 C 0.29707 0.29554 0.97943 0.0
H4707 H 0.27981 0.30184 0.94047 0.0
H4708 H 0.27969 0.2966 0.95488 0.0
H4709 H 0.2753 0.31079 0.95164 0.0
H4710 H 0.27934 0.31669 0.97126 0.0
H4711 H 0.26943 0.31008 0.98799 0.0
H4712 H 0.62272 0.70391 0.20986 0.0
H4713 H 0.60527 0.71187 0.21706 0.0
H4714 H 0.61011 0.74157 0.1962 0.0
H4715 H 0.62733 0.73361 0.1888 0.0
H4716 H 0.60268 0.73261 0.22867 0.0
H4717 H 0.57718 0.73184 0.18834 0.0
H4718 H 0.58999 0.72384 0.1904 0.0
H4719 H 0.59083 0.73874 0.18726 0.0
C4720 C 0.62 0.71208 0.20672 0.0
C4721 C 0.62647 0.7181 0.19874 0.0
C4722 C 0.61006 0.71665 0.21089 0.0
C4723 C 0.60628 0.72726 0.20707 0.0
C4724 C 0.61272 0.73329 0.19915 0.0
H4725 H 0.55182 0.77296 0.22085 0.0
H4726 H 0.56812 0.7631 0.21362 0.0
C4727 C 0.62267 0.72877 0.19502 0.0
C4728 C 0.59579 0.73222 0.21156 0.0
H4729 H 0.56978 0.7424 0.20347 0.0
C4730 C 0.59544 0.73466 0.22319 0.0
C4731 C 0.58636 0.73494 0.2044 0.0
C4732 C 0.58602 0.73212 0.19192 0.0
C4733 C 0.58608 0.74004 0.22778 0.0
C4734 C 0.57667 0.74285 0.2206 0.0
C4735 C 0.57698 0.74028 0.20899 0.0
C4736 C 0.56655 0.74867 0.2249 0.0
C4737 C 0.58654 0.74302 0.24023 0.0
C4738 C 0.56004 0.74378 0.23351 0.0
C4739 C 0.55075 0.74946 0.23774 0.0
C4740 C 0.54765 0.76015 0.2334 0.0
C4741 C 0.55401 0.76486 0.22455 0.0
C4742 C 0.56332 0.75918 0.22034 0.0
H4743 H 0.59539 0.74309 0.24379 0.0
H4744 H 0.58284 0.75144 0.24165 0.0
H4745 H 0.58156 0.7366 0.24499 0.0
H4746 H 0.56218 0.73557 0.237 0.0
H4747 H 0.54618 0.74553 0.24459 0.0
H4748 H 0.35171 0.61778 0.21436 0.0
H4749 H 0.34429 0.60115 0.22432 0.0
H4750 H 0.31017 0.61292 0.21876 0.0
H4751 H 0.3175 0.62946 0.20846 0.0
H4752 H 0.33151 0.60055 0.24387 0.0
H4753 H 0.30771 0.58007 0.20785 0.0
H4754 H 0.31816 0.59123 0.20583 0.0
H4755 H 0.30418 0.59456 0.21031 0.0
C4756 C 0.34261 0.61676 0.21506 0.0
C4757 C 0.33521 0.62496 0.21049 0.0
C4758 C 0.33838 0.60728 0.22086 0.0
C4759 C 0.32666 0.60569 0.22218 0.0
C4760 C 0.31923 0.61385 0.21768 0.0
H4761 H 0.28685 0.5527 0.25571 0.0
H4762 H 0.29314 0.56965 0.24546 0.0
C4763 C 0.32346 0.62337 0.21189 0.0
C4764 C 0.3223 0.59566 0.22856 0.0
H4765 H 0.30559 0.57175 0.22601 0.0
C4766 C 0.32586 0.59424 0.23996 0.0
C4767 C 0.31488 0.58745 0.22348 0.0
C4768 C 0.31106 0.5883 0.21117 0.0
C4769 C 0.32215 0.58491 0.24642 0.0
C4770 C 0.31485 0.57661 0.2413 0.0
C4771 C 0.31119 0.57809 0.22994 0.0
C4772 C 0.31106 0.56626 0.24754 0.0
C4773 C 0.32593 0.58414 0.25875 0.0
C4774 C 0.31901 0.55859 0.252 0.0
C4775 C 0.31544 0.54886 0.25785 0.0
C4776 C 0.30381 0.54651 0.2593 0.0
C4777 C 0.29585 0.55415 0.25469 0.0
C4778 C 0.29944 0.56389 0.24886 0.0
H4779 H 0.32869 0.59254 0.26216 0.0
H4780 H 0.31901 0.58068 0.26403 0.0
H4781 H 0.33325 0.57841 0.25959 0.0
H4782 H 0.328 0.56007 0.25085 0.0
H4783 H 0.3218 0.5431 0.26107 0.0
H4784 H 0.42466 0.32543 0.20889 0.0
H4785 H 0.44158 0.31814 0.2187 0.0
H4786 H 0.42272 0.31335 0.24918 0.0
H4787 H 0.4057 0.32062 0.2394 0.0
H4788 H 0.45381 0.32533 0.23746 0.0
H4789 H 0.43585 0.28227 0.24545 0.0
H4790 H 0.42895 0.29224 0.23601 0.0
H4791 H 0.42785 0.29359 0.25112 0.0
C4792 C 0.42409 0.32294 0.21772 0.0
C4793 C 0.41373 0.32361 0.22331 0.0
C4794 C 0.4338 0.31871 0.22332 0.0
C4795 C 0.43344 0.31499 0.23466 0.0
C4796 C 0.42319 0.31588 0.24036 0.0
H4797 H 0.4882 0.28037 0.27408 0.0
H4798 H 0.47116 0.29172 0.27003 0.0
C4799 C 0.41344 0.32007 0.23474 0.0
C4800 C 0.44382 0.31018 0.24038 0.0
H4801 H 0.45445 0.28605 0.25253 0.0
C4802 C 0.4539 0.31676 0.24081 0.0
C4803 C 0.44401 0.29901 0.24485 0.0
C4804 C 0.43363 0.29131 0.24428 0.0
C4805 C 0.46414 0.31243 0.24535 0.0
C4806 C 0.46441 0.30116 0.24949 0.0
C4807 C 0.45425 0.29471 0.24944 0.0
C4808 C 0.4753 0.29549 0.25262 0.0
C4809 C 0.47465 0.31994 0.24558 0.0
C4810 C 0.48336 0.29395 0.24428 0.0
C4811 C 0.49297 0.28748 0.24656 0.0
C4812 C 0.49486 0.28241 0.25726 0.0
C4813 C 0.48708 0.28434 0.26582 0.0
C4814 C 0.4773 0.29073 0.26348 0.0
H4815 H 0.47246 0.32905 0.24551 0.0
H4816 H 0.48014 0.3182 0.25319 0.0
H4817 H 0.47959 0.3183 0.23792 0.0
H4818 H 0.48195 0.29733 0.2358 0.0
H4819 H 0.49875 0.28607 0.23975 0.0
H4820 H 0.7207 0.41164 0.20864 0.0
H4821 H 0.72918 0.42918 0.21629 0.0
H4822 H 0.70037 0.43324 0.23745 0.0
H4823 H 0.69174 0.41581 0.22973 0.0
H4824 H 0.72001 0.45125 0.2157 0.0
H4825 H 0.72759 0.43645 0.26014 0.0
H4826 H 0.7247 0.42677 0.24855 0.0
H4827 H 0.71337 0.43457 0.25441 0.0
C4828 C 0.71611 0.41628 0.21486 0.0
C4829 C 0.70553 0.41221 0.21857 0.0
C4830 C 0.72101 0.42629 0.21929 0.0
C4831 C 0.71551 0.43246 0.22759 0.0
C4832 C 0.70492 0.42851 0.23125 0.0
H4833 H 0.74148 0.49534 0.26174 0.0
H4834 H 0.72876 0.47926 0.25628 0.0
C4835 C 0.69999 0.4185 0.22682 0.0
C4836 C 0.72077 0.44318 0.23212 0.0
H4837 H 0.7327 0.45541 0.25603 0.0
C4838 C 0.72272 0.45217 0.22454 0.0
C4839 C 0.72418 0.44447 0.24369 0.0
C4840 C 0.72245 0.43505 0.25219 0.0
C4841 C 0.72818 0.46228 0.22812 0.0
C4842 C 0.73207 0.46339 0.23957 0.0
C4843 C 0.72973 0.45458 0.24727 0.0
C4844 C 0.73962 0.47306 0.24329 0.0
C4845 C 0.72981 0.47167 0.21955 0.0
C4846 C 0.75002 0.47476 0.23805 0.0
C4847 C 0.75719 0.48384 0.24109 0.0
C4848 C 0.75426 0.49151 0.24958 0.0
C4849 C 0.74396 0.48966 0.25513 0.0
C4850 C 0.7367 0.48047 0.25202 0.0
H4851 H 0.72328 0.47116 0.21256 0.0
H4852 H 0.72944 0.48013 0.22357 0.0
H4853 H 0.73826 0.47087 0.21574 0.0
H4854 H 0.75264 0.46901 0.23154 0.0
H4855 H 0.7651 0.48482 0.23671 0.0
H4856 H 0.63187 0.31423 0.83687 0.0
H4857 H 0.61461 0.30799 0.82657 0.0
H4858 H 0.61695 0.33705 0.80444 0.0
H4859 H 0.63419 0.34356 0.81489 0.0
H4860 H 0.59397 0.32132 0.82358 0.0
H4861 H 0.61259 0.30905 0.78264 0.0
H4862 H 0.6211 0.31016 0.79562 0.0
H4863 H 0.61636 0.32273 0.78848 0.0
C4864 C 0.62872 0.31939 0.82987 0.0
C4865 C 0.63444 0.32948 0.82681 0.0
C4866 C 0.61886 0.31574 0.82394 0.0
C4867 C 0.61451 0.322 0.81469 0.0
C4868 C 0.62024 0.332 0.81145 0.0
H4869 H 0.55349 0.29821 0.77414 0.0
H4870 H 0.56952 0.31071 0.7804 0.0
C4871 C 0.63011 0.3357 0.81744 0.0
C4872 C 0.60374 0.31815 0.80884 0.0
H4873 H 0.5931 0.3052 0.78477 0.0
C4874 C 0.59376 0.31794 0.81503 0.0
C4875 C 0.60341 0.31387 0.79764 0.0
C4876 C 0.61392 0.31387 0.79065 0.0
C4877 C 0.58358 0.31318 0.81052 0.0
C4878 C 0.58341 0.30822 0.7996 0.0
C4879 C 0.59323 0.30898 0.79314 0.0
C4880 C 0.57365 0.30094 0.79552 0.0
C4881 C 0.57315 0.31325 0.81762 0.0
C4882 C 0.57077 0.29126 0.8018 0.0
C4883 C 0.56173 0.2842 0.7983 0.0
C4884 C 0.55529 0.28654 0.78832 0.0
C4885 C 0.55821 0.2962 0.7819 0.0
C4886 C 0.56738 0.30332 0.78545 0.0
H4887 H 0.5735 0.32042 0.8237 0.0
H4888 H 0.56528 0.31386 0.81224 0.0
H4889 H 0.57269 0.30528 0.82264 0.0
H4890 H 0.57561 0.28908 0.80945 0.0
H4891 H 0.55985 0.27683 0.80347 0.0
H4892 H 0.72029 0.61767 0.835 0.0
H4893 H 0.72674 0.6015 0.82433 0.0
H4894 H 0.72386 0.62085 0.79328 0.0
H4895 H 0.71781 0.63728 0.80399 0.0
H4896 H 0.71676 0.58904 0.80718 0.0
H4897 H 0.75622 0.61 0.79208 0.0
H4898 H 0.74782 0.61605 0.80296 0.0
H4899 H 0.7433 0.6171 0.7883 0.0
C4900 C 0.72113 0.61857 0.82591 0.0
C4901 C 0.71866 0.6289 0.82042 0.0
C4902 C 0.72474 0.60925 0.81979 0.0
C4903 C 0.72601 0.60996 0.808 0.0
C4904 C 0.7232 0.62012 0.8024 0.0
H4905 H 0.75677 0.5572 0.76577 0.0
H4906 H 0.74519 0.57355 0.77069 0.0
C4907 C 0.71959 0.62949 0.80854 0.0
C4908 C 0.73037 0.60004 0.80173 0.0
H4909 H 0.75278 0.59113 0.78649 0.0
C4910 C 0.72459 0.58954 0.80258 0.0
C4911 C 0.74056 0.60063 0.79564 0.0
C4912 C 0.74742 0.61151 0.79473 0.0
C4913 C 0.72884 0.57965 0.79779 0.0
C4914 C 0.73924 0.58017 0.79209 0.0
C4915 C 0.74478 0.59073 0.79081 0.0
C4916 C 0.74517 0.56973 0.78868 0.0
C4917 C 0.72226 0.56866 0.79906 0.0
C4918 C 0.74893 0.56212 0.79709 0.0
C4919 C 0.75555 0.55291 0.79432 0.0
C4920 C 0.75856 0.551 0.78304 0.0
C4921 C 0.75445 0.55835 0.7745 0.0
C4922 C 0.74791 0.56773 0.77732 0.0
H4923 H 0.71312 0.57015 0.80042 0.0
H4924 H 0.72302 0.56325 0.79146 0.0
H4925 H 0.72571 0.56397 0.80655 0.0
H4926 H 0.74712 0.56354 0.80592 0.0
H4927 H 0.75862 0.54744 0.80111 0.0
H4928 H 0.42386 0.70561 0.82575 0.0
H4929 H 0.4408 0.71498 0.8183 0.0
H4930 H 0.42415 0.71754 0.78532 0.0
H4931 H 0.40703 0.70863 0.7928 0.0
H4932 H 0.45447 0.70818 0.80139 0.0
H4933 H 0.4359 0.74961 0.78975 0.0
H4934 H 0.42869 0.7394 0.79857 0.0
H4935 H 0.42851 0.7377 0.78341 0.0
C4936 C 0.4237 0.70836 0.81697 0.0
C4937 C 0.414 0.70636 0.80992 0.0
C4938 C 0.43345 0.71363 0.81268 0.0
C4939 C 0.43376 0.71711 0.80126 0.0
C4940 C 0.4241 0.71515 0.79421 0.0
H4941 H 0.48881 0.75151 0.76397 0.0
H4942 H 0.4717 0.73999 0.76802 0.0
C4943 C 0.41433 0.7099 0.79849 0.0
C4944 C 0.44428 0.7225 0.7967 0.0
H4945 H 0.4547 0.74657 0.78409 0.0
C4946 C 0.4545 0.71657 0.7976 0.0
C4947 C 0.44435 0.73343 0.79167 0.0
C4948 C 0.43381 0.74047 0.79087 0.0
C4949 C 0.46474 0.72128 0.79371 0.0
C4950 C 0.46485 0.73228 0.78886 0.0
C4951 C 0.4546 0.73811 0.78771 0.0
C4952 C 0.47564 0.7383 0.786 0.0
C4953 C 0.47541 0.71446 0.79483 0.0
C4954 C 0.48357 0.74109 0.79471 0.0
C4955 C 0.49323 0.74767 0.79243 0.0
C4956 C 0.49527 0.7516 0.78137 0.0
C4957 C 0.48755 0.74848 0.77254 0.0
C4958 C 0.47774 0.74198 0.77486 0.0
H4959 H 0.47344 0.70526 0.79565 0.0
H4960 H 0.48086 0.71585 0.78741 0.0
H4961 H 0.48031 0.71716 0.80257 0.0
H4962 H 0.48208 0.73851 0.80338 0.0
H4963 H 0.49898 0.74994 0.79944 0.0
H4964 H 0.32622 0.39905 0.81477 0.0
H4965 H 0.31566 0.41566 0.80839 0.0
H4966 H 0.33008 0.43481 0.83653 0.0
H4967 H 0.34074 0.41825 0.84291 0.0
H4968 H 0.29969 0.42783 0.81845 0.0
H4969 H 0.33701 0.45567 0.81027 0.0
H4970 H 0.33823 0.44067 0.81287 0.0
H4971 H 0.33686 0.45026 0.82453 0.0
C4972 C 0.32711 0.40677 0.81964 0.0
C4973 C 0.33439 0.4073 0.82934 0.0
C4974 C 0.32109 0.4163 0.81595 0.0
C4975 C 0.3222 0.42659 0.82184 0.0
C4976 C 0.3293 0.42709 0.83164 0.0
H4977 H 0.27491 0.48263 0.81319 0.0
H4978 H 0.28579 0.46656 0.82048 0.0
C4979 C 0.33538 0.41758 0.83531 0.0
C4980 C 0.31579 0.43671 0.8178 0.0
H4981 H 0.31898 0.46433 0.80936 0.0
C4982 C 0.30391 0.4358 0.81645 0.0
C4983 C 0.32129 0.4471 0.81503 0.0
C4984 C 0.33405 0.44849 0.81563 0.0
C4985 C 0.2974 0.44498 0.81252 0.0
C4986 C 0.30287 0.45547 0.81009 0.0
C4987 C 0.31475 0.45635 0.81134 0.0
C4988 C 0.29645 0.46553 0.80591 0.0
C4989 C 0.28475 0.44322 0.81073 0.0
C4990 C 0.29905 0.47062 0.79547 0.0
C4991 C 0.2929 0.47988 0.79133 0.0
C4992 C 0.284 0.48431 0.79753 0.0
C4993 C 0.28157 0.47935 0.8081 0.0
C4994 C 0.28778 0.47012 0.81227 0.0
H4995 H 0.28239 0.4341 0.80995 0.0
H4996 H 0.28035 0.44662 0.81813 0.0
H4997 H 0.28161 0.44772 0.80299 0.0
H4998 H 0.30572 0.46728 0.79041 0.0
H4999 H 0.29494 0.48335 0.78311 0.0
H5000 H 0.72306 0.63167 0.19014 0.0
H5001 H 0.73404 0.61521 0.19629 0.0
H5002 H 0.7109 0.609 0.22335 0.0
H5003 H 0.7 0.62548 0.21741 0.0
H5004 H 0.74495 0.61058 0.21751 0.0
H5005 H 0.71142 0.57826 0.20736 0.0
H5006 H 0.71084 0.59259 0.20199 0.0
H5007 H 0.70691 0.58946 0.2163 0.0
C5008 C 0.72033 0.62686 0.19745 0.0
C5009 C 0.71054 0.62991 0.20319 0.0
C5010 C 0.7266 0.61741 0.20092 0.0
C5011 C 0.7232 0.61072 0.21017 0.0
C5012 C 0.71356 0.61384 0.21602 0.0
H5013 H 0.74734 0.55078 0.24562 0.0
H5014 H 0.73723 0.56747 0.23889 0.0
C5015 C 0.7073 0.62329 0.21258 0.0
C5016 C 0.72981 0.60062 0.21383 0.0
H5017 H 0.72758 0.57197 0.21795 0.0
C5018 C 0.74118 0.60212 0.21753 0.0
C5019 C 0.72489 0.58957 0.21389 0.0
C5020 C 0.71288 0.58731 0.20958 0.0
C5021 C 0.74767 0.59296 0.22157 0.0
C5022 C 0.74273 0.58192 0.2217 0.0
C5023 C 0.73138 0.58041 0.2179 0.0
C5024 C 0.74912 0.57183 0.22586 0.0
C5025 C 0.75964 0.59527 0.226 0.0
C5026 C 0.75915 0.56858 0.22074 0.0
C5027 C 0.76504 0.55905 0.22464 0.0
C5028 C 0.76101 0.55245 0.23373 0.0
C5029 C 0.75087 0.55568 0.23875 0.0
C5030 C 0.745 0.56522 0.23484 0.0
H5031 H 0.76106 0.60433 0.22819 0.0
H5032 H 0.76161 0.59004 0.23364 0.0
H5033 H 0.76568 0.59311 0.21935 0.0
H5034 H 0.7624 0.57338 0.21364 0.0
H5035 H 0.77281 0.55692 0.22057 0.0
H5036 H 0.72341 0.41885 0.8426 0.0
H5037 H 0.73435 0.43571 0.83696 0.0
H5038 H 0.73133 0.4254 0.80196 0.0
H5039 H 0.72051 0.4085 0.80751 0.0
H5040 H 0.75483 0.4379 0.82521 0.0
H5041 H 0.71923 0.45769 0.80099 0.0
H5042 H 0.71711 0.44603 0.81072 0.0
H5043 H 0.7221 0.4435 0.79671 0.0
C5044 C 0.72516 0.4201 0.83371 0.0
C5045 C 0.72096 0.41233 0.82551 0.0
C5046 C 0.73138 0.42978 0.8305 0.0
C5047 C 0.73348 0.43195 0.81901 0.0
C5048 C 0.72958 0.42407 0.81084 0.0
H5049 H 0.76706 0.48544 0.78089 0.0
H5050 H 0.7571 0.4683 0.78723 0.0
C5051 C 0.72337 0.4144 0.81404 0.0
C5052 C 0.73978 0.44241 0.81555 0.0
H5053 H 0.73744 0.46635 0.79926 0.0
C5054 C 0.75101 0.44416 0.81959 0.0
C5055 C 0.7348 0.45058 0.8082 0.0
C5056 C 0.72262 0.44945 0.80397 0.0
C5057 C 0.75749 0.4537 0.81627 0.0
C5058 C 0.75252 0.46184 0.80887 0.0
C5059 C 0.74126 0.46011 0.80489 0.0
C5060 C 0.75883 0.4722 0.80512 0.0
C5061 C 0.76968 0.45482 0.82047 0.0
C5062 C 0.76306 0.4802 0.81303 0.0
C5063 C 0.76874 0.49005 0.80943 0.0
C5064 C 0.77025 0.4922 0.79779 0.0
C5065 C 0.76596 0.48418 0.78989 0.0
C5066 C 0.7603 0.47432 0.79351 0.0
H5067 H 0.77306 0.44657 0.82346 0.0
H5068 H 0.77518 0.45822 0.81372 0.0
H5069 H 0.77021 0.46077 0.82773 0.0
H5070 H 0.7618 0.47891 0.82202 0.0
H5071 H 0.77173 0.4961 0.81575 0.0
H5072 H 0.63707 0.71046 0.80496 0.0
H5073 H 0.62014 0.72112 0.79967 0.0
H5074 H 0.6154 0.72897 0.83486 0.0
H5075 H 0.63233 0.71825 0.84025 0.0
H5076 H 0.59811 0.71749 0.80577 0.0
H5077 H 0.61303 0.76004 0.82011 0.0
H5078 H 0.62253 0.74837 0.81871 0.0
H5079 H 0.61386 0.74931 0.83094 0.0
C5080 C 0.63243 0.71441 0.81161 0.0
C5081 C 0.63612 0.71344 0.82306 0.0
C5082 C 0.62275 0.72057 0.80855 0.0
C5083 C 0.61652 0.726 0.81683 0.0
C5084 C 0.62017 0.72509 0.82827 0.0
H5085 H 0.55381 0.76433 0.81408 0.0
H5086 H 0.57093 0.75422 0.8199 0.0
C5087 C 0.62988 0.71894 0.83134 0.0
C5088 C 0.60602 0.73226 0.81346 0.0
H5089 H 0.59363 0.7582 0.81424 0.0
C5090 C 0.59716 0.7264 0.80759 0.0
C5091 C 0.60472 0.7439 0.81584 0.0
C5092 C 0.61407 0.75082 0.82165 0.0
C5093 C 0.58705 0.73179 0.80418 0.0
C5094 C 0.58577 0.74343 0.80652 0.0
C5095 C 0.59459 0.74928 0.81244 0.0
C5096 C 0.57536 0.74969 0.80287 0.0
C5097 C 0.57771 0.72489 0.79831 0.0
C5098 C 0.57217 0.7507 0.79132 0.0
C5099 C 0.56238 0.75655 0.78793 0.0
C5100 C 0.55553 0.76162 0.796 0.0
C5101 C 0.55885 0.76068 0.80757 0.0
C5102 C 0.56865 0.75484 0.81094 0.0
H5103 H 0.57875 0.71566 0.7998 0.0
H5104 H 0.56924 0.72733 0.80125 0.0
H5105 H 0.57794 0.72645 0.78902 0.0
H5106 H 0.57733 0.74703 0.7849 0.0
H5107 H 0.56031 0.75723 0.77896 0.0
H5108 H 0.34483 0.62356 0.805 0.0
H5109 H 0.33771 0.60711 0.79416 0.0
H5110 H 0.31019 0.60284 0.81715 0.0
H5111 H 0.31696 0.61946 0.82775 0.0
H5112 H 0.3344 0.58468 0.80047 0.0
H5113 H 0.29344 0.60324 0.78654 0.0
H5114 H 0.30497 0.61165 0.79274 0.0
H5115 H 0.29575 0.60345 0.80166 0.0
C5116 C 0.33718 0.61922 0.80768 0.0
C5117 C 0.33147 0.62294 0.81727 0.0
C5118 C 0.33317 0.60974 0.80151 0.0
C5119 C 0.32331 0.60379 0.80471 0.0
C5120 C 0.31769 0.60738 0.81436 0.0
H5121 H 0.29874 0.5363 0.7853 0.0
H5122 H 0.30854 0.55246 0.79439 0.0
C5123 C 0.32168 0.61684 0.82052 0.0
C5124 C 0.31889 0.59383 0.79803 0.0
H5125 H 0.29529 0.58345 0.78366 0.0
C5126 C 0.32587 0.58444 0.79674 0.0
C5127 C 0.30781 0.59353 0.79299 0.0
C5128 C 0.30009 0.60355 0.79344 0.0
C5129 C 0.32199 0.57469 0.79083 0.0
C5130 C 0.31074 0.57421 0.7862 0.0
C5131 C 0.30387 0.58372 0.78727 0.0
C5132 C 0.30584 0.56399 0.78026 0.0
C5133 C 0.33004 0.56506 0.78947 0.0
C5134 C 0.30102 0.56497 0.76924 0.0
C5135 C 0.29533 0.55575 0.76404 0.0
C5136 C 0.29427 0.54528 0.76973 0.0
C5137 C 0.29947 0.54417 0.7806 0.0
C5138 C 0.30513 0.55343 0.78582 0.0
H5139 H 0.33904 0.56798 0.7904 0.0
H5140 H 0.32849 0.5586 0.79616 0.0
H5141 H 0.32874 0.56095 0.78107 0.0
H5142 H 0.30142 0.57299 0.76475 0.0
H5143 H 0.29143 0.55695 0.75569 0.0
H5144 H 0.42286 0.31155 0.85349 0.0
H5145 H 0.43948 0.30338 0.84506 0.0
H5146 H 0.42939 0.31727 0.81246 0.0
H5147 H 0.41268 0.32551 0.82086 0.0
H5148 H 0.44032 0.28768 0.82829 0.0
H5149 H 0.46255 0.32716 0.81483 0.0
H5150 H 0.4509 0.32719 0.82442 0.0
H5151 H 0.4482 0.32572 0.8094 0.0
C5152 C 0.42414 0.31288 0.84451 0.0
C5153 C 0.41636 0.31918 0.83786 0.0
C5154 C 0.4337 0.30822 0.83971 0.0
C5155 C 0.43582 0.30978 0.82814 0.0
C5156 C 0.42812 0.31614 0.82146 0.0
H5157 H 0.48866 0.2832 0.78538 0.0
H5158 H 0.47192 0.29242 0.79247 0.0
C5159 C 0.41854 0.32084 0.82628 0.0
C5160 C 0.44582 0.30435 0.82307 0.0
H5161 H 0.47033 0.30986 0.80898 0.0
C5162 C 0.44688 0.29255 0.8241 0.0
C5163 C 0.45441 0.31067 0.81754 0.0
C5164 C 0.45405 0.32339 0.81655 0.0
C5165 C 0.4562 0.28691 0.81973 0.0
C5166 C 0.46484 0.29323 0.81432 0.0
C5167 C 0.46372 0.30501 0.81314 0.0
C5168 C 0.47518 0.28777 0.81003 0.0
C5169 C 0.45663 0.27419 0.82082 0.0
C5170 C 0.48272 0.28222 0.81753 0.0
C5171 C 0.49238 0.27699 0.81352 0.0
C5172 C 0.49478 0.27719 0.80187 0.0
C5173 C 0.48724 0.2829 0.7944 0.0
C5174 C 0.47759 0.28817 0.79844 0.0
H5175 H 0.44813 0.27038 0.82245 0.0
H5176 H 0.45992 0.27037 0.81302 0.0
H5177 H 0.46242 0.27196 0.82806 0.0
H5178 H 0.48119 0.28199 0.82654 0.0
H5179 H 0.49802 0.2729 0.81961 0.0
H5180 H 0.34059 0.4189 0.21318 0.0
H5181 H 0.3298 0.43518 0.219 0.0
H5182 H 0.30002 0.41378 0.22241 0.0
H5183 H 0.31092 0.3973 0.21706 0.0
H5184 H 0.31105 0.44527 0.21003 0.0
H5185 H 0.30179 0.42884 0.25312 0.0
H5186 H 0.31189 0.42228 0.24417 0.0
H5187 H 0.29691 0.41986 0.24167 0.0
C5188 C 0.33177 0.41758 0.21528 0.0
C5189 C 0.32672 0.40667 0.21479 0.0
C5190 C 0.32557 0.42696 0.21853 0.0
C5191 C 0.31412 0.42575 0.22138 0.0
C5192 C 0.3089 0.41495 0.22052 0.0
H5193 H 0.27194 0.47917 0.25074 0.0
H5194 H 0.27682 0.46187 0.24045 0.0
C5195 C 0.31513 0.40552 0.2173 0.0
C5196 C 0.30781 0.43582 0.22532 0.0
H5197 H 0.29448 0.44666 0.24816 0.0
C5198 C 0.30736 0.44551 0.21834 0.0
C5199 C 0.3029 0.43621 0.23615 0.0
C5200 C 0.30345 0.42629 0.24427 0.0
C5201 C 0.30242 0.45558 0.22197 0.0
C5202 C 0.29787 0.45608 0.23292 0.0
C5203 C 0.2979 0.44628 0.23974 0.0
C5204 C 0.29431 0.46699 0.23797 0.0
C5205 C 0.30225 0.46568 0.21408 0.0
C5206 C 0.30244 0.47566 0.23989 0.0
C5207 C 0.2997 0.48543 0.24577 0.0
C5208 C 0.28872 0.48686 0.24984 0.0
C5209 C 0.2804 0.47841 0.24753 0.0
C5210 C 0.28321 0.46849 0.24174 0.0
H5211 H 0.30279 0.46308 0.20507 0.0
H5212 H 0.29443 0.47063 0.21504 0.0
H5213 H 0.30969 0.47129 0.21614 0.0
H5214 H 0.31109 0.47467 0.23726 0.0
H5215 H 0.30633 0.49173 0.24748 0.0
H5216 H 0.62742 0.33158 0.21695 0.0
H5217 H 0.61117 0.32171 0.22534 0.0
H5218 H 0.61294 0.29541 0.2003 0.0
H5219 H 0.62933 0.30498 0.19211 0.0
H5220 H 0.59003 0.31595 0.21531 0.0
H5221 H 0.61227 0.27734 0.22984 0.0
H5222 H 0.61978 0.2901 0.22568 0.0
H5223 H 0.61404 0.2805 0.21508 0.0
C5224 C 0.62445 0.32362 0.21332 0.0
C5225 C 0.62973 0.3191 0.20384 0.0
C5226 C 0.61511 0.31802 0.21809 0.0
C5227 C 0.61091 0.30772 0.21357 0.0
C5228 C 0.61613 0.30322 0.20409 0.0
H5229 H 0.55534 0.2604 0.22562 0.0
H5230 H 0.57184 0.2709 0.21873 0.0
C5231 C 0.62544 0.30881 0.19931 0.0
C5232 C 0.60091 0.30179 0.21853 0.0
H5233 H 0.59207 0.27657 0.23 0.0
C5234 C 0.5905 0.30738 0.21862 0.0
C5235 C 0.60149 0.29059 0.22283 0.0
C5236 C 0.61252 0.28431 0.22347 0.0
C5237 C 0.5806 0.30196 0.22256 0.0
C5238 C 0.58116 0.2907 0.22673 0.0
C5239 C 0.59161 0.28518 0.22677 0.0
C5240 C 0.57099 0.28443 0.23094 0.0
C5241 C 0.56957 0.30822 0.22188 0.0
C5242 C 0.56504 0.28845 0.2402 0.0
C5243 C 0.55551 0.28248 0.24413 0.0
C5244 C 0.55174 0.27231 0.23894 0.0
C5245 C 0.55783 0.26826 0.22974 0.0
C5246 C 0.56734 0.27423 0.22583 0.0
H5247 H 0.56995 0.31548 0.21584 0.0
H5248 H 0.5624 0.30249 0.2192 0.0
H5249 H 0.56776 0.31161 0.23038 0.0
H5250 H 0.5678 0.29617 0.24445 0.0
H5251 H 0.55106 0.28594 0.25116 0.0
H5252 H 0.40163 0.71248 0.21795 0.0
H5253 H 0.41816 0.71891 0.22947 0.0
H5254 H 0.43977 0.71347 0.20124 0.0
H5255 H 0.42332 0.70705 0.18968 0.0
H5256 H 0.4382 0.70847 0.23599 0.0
H5257 H 0.4474 0.74617 0.20927 0.0
H5258 H 0.43428 0.7381 0.20785 0.0
H5259 H 0.44696 0.7331 0.20158 0.0
C5260 C 0.40991 0.71256 0.21421 0.0
C5261 C 0.41109 0.70933 0.20282 0.0
C5262 C 0.41936 0.71628 0.2208 0.0
C5263 C 0.43021 0.7169 0.21618 0.0
C5264 C 0.43147 0.71337 0.20493 0.0
H5265 H 0.49643 0.742 0.24173 0.0
H5266 H 0.48114 0.73217 0.23095 0.0
C5267 C 0.42203 0.70969 0.19832 0.0
C5268 C 0.44018 0.72127 0.22309 0.0
H5269 H 0.46095 0.74193 0.22385 0.0
C5270 C 0.44316 0.7158 0.23335 0.0
C5271 C 0.44668 0.73085 0.21966 0.0
C5272 C 0.44363 0.73747 0.20905 0.0
C5273 C 0.45252 0.71954 0.24017 0.0
C5274 C 0.459 0.72912 0.23673 0.0
C5275 C 0.45605 0.73455 0.22645 0.0
C5276 C 0.46861 0.73395 0.24383 0.0
C5277 C 0.45549 0.71308 0.25089 0.0
C5278 C 0.46675 0.73811 0.25474 0.0
C5279 C 0.47548 0.74372 0.26094 0.0
C5280 C 0.48629 0.74537 0.25635 0.0
C5281 C 0.48825 0.74085 0.24558 0.0
C5282 C 0.47949 0.73526 0.23937 0.0
H5283 H 0.45192 0.7043 0.25065 0.0
H5284 H 0.46483 0.7127 0.25233 0.0
H5285 H 0.45186 0.71743 0.25823 0.0
H5286 H 0.4584 0.73743 0.2583 0.0
H5287 H 0.47362 0.74714 0.26917 0.0
loop_
_geom_bond_atom_site_label_1
_geom_bond_atom_site_label_2
_geom_bond_distance
_geom_bond_site_symmetry_2
_ccdc_geom_bond_type
C0 C1 1.264 . S
C0 C5 1.479 . S
C0 C10 1.465 . S
C1 C0 1.264 . S
C1 C3 1.339 . S
C1 H28 0.931 . S
C2 C3 1.395 . S
C2 C4 1.320 . S
C3 C1 1.339 . S
C3 C2 1.395 . S
C3 H29 0.929 . S
C4 C2 1.320 . S
C4 C5 1.405 . S
C4 H30 0.930 . S
C5 C0 1.479 . S
C5 C4 1.405 . S
C5 H31 0.931 . S
U6 O7 2.454 . S
U6 O8 2.458 . S
U6 C9 2.984 . S
U6 C10 2.847 . S
U6 C23 2.882 . S
U6 O24 2.441 . S
U6 O25 2.420 . S
U6 O26 2.455 . S
U6 O27 2.449 . S
O7 U6 2.454 . S
O7 C9 1.353 . S
O8 U6 2.458 . S
O8 C9 1.286 . S
C9 U6 2.984 . S
C9 O7 1.353 . S
C9 O8 1.286 . S
C9 C11 1.363 . S
C10 C0 1.465 . S
C10 U6 2.847 . S
C10 O24 1.249 . S
C10 O25 1.202 . S
C11 C9 1.363 . S
C11 C13 1.408 . S
C11 C16 1.342 . S
C12 C13 1.310 . S
C12 C15 1.461 . S
C12 H32 0.932 . S
C13 C11 1.408 . S
C13 C12 1.310 . S
C13 H33 0.930 . S
C14 C15 1.474 . S
C14 C16 1.285 . S
C14 H34 0.929 . S
C15 C12 1.461 . S
C15 C14 1.474 . S
C16 C11 1.342 . S
C16 C14 1.285 . S
C16 H35 0.930 . S
C17 C20 1.424 . S
C17 C22 1.245 . S
C17 C23 1.428 . S
C18 C21 1.260 . S
C18 C22 1.477 . S
C18 H36 0.932 . S
C19 C20 1.384 . S
C19 C21 1.479 . S
C19 H37 0.929 . S
C20 C17 1.424 . S
C20 C19 1.384 . S
C20 H38 0.928 . S
C21 C18 1.260 . S
C21 C19 1.479 . S
C22 C17 1.245 . S
C22 C18 1.477 . S
C22 H39 0.932 . S
C23 U6 2.882 . S
C23 C17 1.428 . S
C23 O26 1.301 . S
C23 O27 1.282 . S
O24 U6 2.441 . S
O24 C10 1.249 . S
O25 U6 2.420 . S
O25 C10 1.202 . S
O26 U6 2.455 . S
O26 C23 1.301 . S
O27 U6 2.449 . S
O27 C23 1.282 . S
H28 C1 0.931 . S
H29 C3 0.929 . S
H30 C4 0.930 . S
H31 C5 0.931 . S
H32 C12 0.932 . S
H33 C13 0.930 . S
H34 C14 0.929 . S
H35 C16 0.930 . S
H36 C18 0.932 . S
H37 C19 0.929 . S
H38 C20 0.928 . S
H39 C22 0.932 . S
C40 C41 1.264 . S
C40 C45 1.479 . S
C40 C50 1.465 . S
C41 C40 1.264 . S
C41 C43 1.339 . S
C41 H68 0.931 . S
C42 C43 1.395 . S
C42 C44 1.320 . S
C43 C41 1.339 . S
C43 C42 1.395 . S
C43 H69 0.929 . S
C44 C42 1.320 . S
C44 C45 1.405 . S
C44 H70 0.930 . S
C45 C40 1.479 . S
C45 C44 1.405 . S
C45 H71 0.931 . S
U46 O47 2.454 . S
U46 O48 2.458 . S
U46 C49 2.984 . S
U46 C50 2.847 . S
U46 C63 2.882 . S
U46 O64 2.441 . S
U46 O65 2.420 . S
U46 O66 2.455 . S
U46 O67 2.449 . S
O47 U46 2.454 . S
O47 C49 1.353 . S
O48 U46 2.458 . S
O48 C49 1.286 . S
C49 U46 2.984 . S
C49 O47 1.353 . S
C49 O48 1.286 . S
C49 C51 1.363 . S
C50 C40 1.465 . S
C50 U46 2.847 . S
C50 O64 1.249 . S
C50 O65 1.202 . S
C51 C49 1.363 . S
C51 C53 1.408 . S
C51 C56 1.342 . S
C52 C53 1.310 . S
C52 C55 1.461 . S
C52 H72 0.932 . S
C53 C51 1.408 . S
C53 C52 1.310 . S
C53 H73 0.930 . S
C54 C55 1.474 . S
C54 C56 1.285 . S
C54 H74 0.929 . S
C55 C52 1.461 . S
C55 C54 1.474 . S
C56 C51 1.342 . S
C56 C54 1.285 . S
C56 H75 0.930 . S
C57 C60 1.424 . S
C57 C62 1.245 . S
C57 C63 1.428 . S
C58 C61 1.260 . S
C58 C62 1.477 . S
C58 H76 0.932 . S
C59 C60 1.384 . S
C59 C61 1.479 . S
C59 H77 0.929 . S
C60 C57 1.424 . S
C60 C59 1.384 . S
C60 H78 0.928 . S
C61 C58 1.260 . S
C61 C59 1.479 . S
C62 C57 1.245 . S
C62 C58 1.477 . S
C62 H79 0.932 . S
C63 U46 2.882 . S
C63 C57 1.428 . S
C63 O66 1.301 . S
C63 O67 1.282 . S
O64 U46 2.441 . S
O64 C50 1.249 . S
O65 U46 2.420 . S
O65 C50 1.202 . S
O66 U46 2.455 . S
O66 C63 1.301 . S
O67 U46 2.449 . S
O67 C63 1.282 . S
H68 C41 0.931 . S
H69 C43 0.929 . S
H70 C44 0.930 . S
H71 C45 0.931 . S
H72 C52 0.932 . S
H73 C53 0.930 . S
H74 C54 0.929 . S
H75 C56 0.930 . S
H76 C58 0.932 . S
H77 C59 0.929 . S
H78 C60 0.928 . S
H79 C62 0.932 . S
C80 C81 1.264 . S
C80 C85 1.479 . S
C80 C90 1.465 . S
C81 C80 1.264 . S
C81 C83 1.339 . S
C81 H108 0.931 . S
C82 C83 1.395 . S
C82 C84 1.320 . S
C83 C81 1.339 . S
C83 C82 1.395 . S
C83 H109 0.929 . S
C84 C82 1.320 . S
C84 C85 1.405 . S
C84 H110 0.930 . S
C85 C80 1.479 . S
C85 C84 1.405 . S
C85 H111 0.931 . S
U86 O87 2.454 . S
U86 O88 2.458 . S
U86 C89 2.984 . S
U86 C90 2.847 . S
U86 C103 2.882 . S
U86 O104 2.441 . S
U86 O105 2.420 . S
U86 O106 2.455 . S
U86 O107 2.449 . S
O87 U86 2.454 . S
O87 C89 1.353 . S
O88 U86 2.458 . S
O88 C89 1.286 . S
C89 U86 2.984 . S
C89 O87 1.353 . S
C89 O88 1.286 . S
C89 C91 1.363 . S
C90 C80 1.465 . S
C90 U86 2.847 . S
C90 O104 1.249 . S
C90 O105 1.202 . S
C91 C89 1.363 . S
C91 C93 1.408 . S
C91 C96 1.342 . S
C92 C93 1.310 . S
C92 C95 1.461 . S
C92 H112 0.932 . S
C93 C91 1.408 . S
C93 C92 1.310 . S
C93 H113 0.930 . S
C94 C95 1.474 . S
C94 C96 1.285 . S
C94 H114 0.929 . S
C95 C92 1.461 . S
C95 C94 1.474 . S
C96 C91 1.342 . S
C96 C94 1.285 . S
C96 H115 0.930 . S
C97 C100 1.424 . S
C97 C102 1.245 . S
C97 C103 1.428 . S
C98 C101 1.260 . S
C98 C102 1.477 . S
C98 H116 0.932 . S
C99 C100 1.384 . S
C99 C101 1.479 . S
C99 H117 0.929 . S
C100 C97 1.424 . S
C100 C99 1.384 . S
C100 H118 0.928 . S
C101 C98 1.260 . S
C101 C99 1.479 . S
C102 C97 1.245 . S
C102 C98 1.477 . S
C102 H119 0.932 . S
C103 U86 2.882 . S
C103 C97 1.428 . S
C103 O106 1.301 . S
C103 O107 1.282 . S
O104 U86 2.441 . S
O104 C90 1.249 . S
O105 U86 2.420 . S
O105 C90 1.202 . S
O106 U86 2.455 . S
O106 C103 1.301 . S
O107 U86 2.449 . S
O107 C103 1.282 . S
H108 C81 0.931 . S
H109 C83 0.929 . S
H110 C84 0.930 . S
H111 C85 0.931 . S
H112 C92 0.932 . S
H113 C93 0.930 . S
H114 C94 0.929 . S
H115 C96 0.930 . S
H116 C98 0.932 . S
H117 C99 0.929 . S
H118 C100 0.928 . S
H119 C102 0.932 . S
C120 C121 1.264 . S
C120 C125 1.479 . S
C120 C130 1.465 . S
C121 C120 1.264 . S
C121 C123 1.339 . S
C121 H148 0.931 . S
C122 C123 1.395 . S
C122 C124 1.320 . S
C123 C121 1.339 . S
C123 C122 1.395 . S
C123 H149 0.929 . S
C124 C122 1.320 . S
C124 C125 1.405 . S
C124 H150 0.930 . S
C125 C120 1.479 . S
C125 C124 1.405 . S
C125 H151 0.931 . S
U126 O127 2.454 . S
U126 O128 2.458 . S
U126 C129 2.984 . S
U126 C130 2.847 . S
U126 C143 2.882 . S
U126 O144 2.441 . S
U126 O145 2.420 . S
U126 O146 2.455 . S
U126 O147 2.449 . S
O127 U126 2.454 . S
O127 C129 1.353 . S
O128 U126 2.458 . S
O128 C129 1.286 . S
C129 U126 2.984 . S
C129 O127 1.353 . S
C129 O128 1.286 . S
C129 C131 1.363 . S
C130 C120 1.465 . S
C130 U126 2.847 . S
C130 O144 1.249 . S
C130 O145 1.202 . S
C131 C129 1.363 . S
C131 C133 1.408 . S
C131 C136 1.342 . S
C132 C133 1.310 . S
C132 C135 1.461 . S
C132 H152 0.932 . S
C133 C131 1.408 . S
C133 C132 1.310 . S
C133 H153 0.930 . S
C134 C135 1.474 . S
C134 C136 1.285 . S
C134 H154 0.929 . S
C135 C132 1.461 . S
C135 C134 1.474 . S
C136 C131 1.342 . S
C136 C134 1.285 . S
C136 H155 0.930 . S
C137 C140 1.424 . S
C137 C142 1.245 . S
C137 C143 1.428 . S
C138 C141 1.260 . S
C138 C142 1.477 . S
C138 H156 0.932 . S
C139 C140 1.384 . S
C139 C141 1.479 . S
C139 H157 0.929 . S
C140 C137 1.424 . S
C140 C139 1.384 . S
C140 H158 0.928 . S
C141 C138 1.260 . S
C141 C139 1.479 . S
C142 C137 1.245 . S
C142 C138 1.477 . S
C142 H159 0.932 . S
C143 U126 2.882 . S
C143 C137 1.428 . S
C143 O146 1.301 . S
C143 O147 1.282 . S
O144 U126 2.441 . S
O144 C130 1.249 . S
O145 U126 2.420 . S
O145 C130 1.202 . S
O146 U126 2.455 . S
O146 C143 1.301 . S
O147 U126 2.449 . S
O147 C143 1.282 . S
H148 C121 0.931 . S
H149 C123 0.929 . S
H150 C124 0.930 . S
H151 C125 0.931 . S
H152 C132 0.932 . S
H153 C133 0.930 . S
H154 C134 0.929 . S
H155 C136 0.930 . S
H156 C138 0.932 . S
H157 C139 0.929 . S
H158 C140 0.928 . S
H159 C142 0.932 . S
C160 C161 1.264 . S
C160 C165 1.479 . S
C160 C170 1.465 . S
C161 C160 1.264 . S
C161 C163 1.339 . S
C161 H188 0.931 . S
C162 C163 1.395 . S
C162 C164 1.320 . S
C163 C161 1.339 . S
C163 C162 1.395 . S
C163 H189 0.929 . S
C164 C162 1.320 . S
C164 C165 1.405 . S
C164 H190 0.930 . S
C165 C160 1.479 . S
C165 C164 1.405 . S
C165 H191 0.931 . S
U166 O167 2.454 . S
U166 O168 2.458 . S
U166 C169 2.984 . S
U166 C170 2.847 . S
U166 C183 2.882 . S
U166 O184 2.441 . S
U166 O185 2.420 . S
U166 O186 2.455 . S
U166 O187 2.449 . S
O167 U166 2.454 . S
O167 C169 1.353 . S
O168 U166 2.458 . S
O168 C169 1.286 . S
C169 U166 2.984 . S
C169 O167 1.353 . S
C169 O168 1.286 . S
C169 C171 1.363 . S
C170 C160 1.465 . S
C170 U166 2.847 . S
C170 O184 1.249 . S
C170 O185 1.202 . S
C171 C169 1.363 . S
C171 C173 1.408 . S
C171 C176 1.342 . S
C172 C173 1.310 . S
C172 C175 1.461 . S
C172 H192 0.932 . S
C173 C171 1.408 . S
C173 C172 1.310 . S
C173 H193 0.930 . S
C174 C175 1.474 . S
C174 C176 1.285 . S
C174 H194 0.929 . S
C175 C172 1.461 . S
C175 C174 1.474 . S
C176 C171 1.342 . S
C176 C174 1.285 . S
C176 H195 0.930 . S
C177 C180 1.424 . S
C177 C182 1.245 . S
C177 C183 1.428 . S
C178 C181 1.260 . S
C178 C182 1.477 . S
C178 H196 0.932 . S
C179 C180 1.384 . S
C179 C181 1.479 . S
C179 H197 0.929 . S
C180 C177 1.424 . S
C180 C179 1.384 . S
C180 H198 0.928 . S
C181 C178 1.260 . S
C181 C179 1.479 . S
C182 C177 1.245 . S
C182 C178 1.477 . S
C182 H199 0.932 . S
C183 U166 2.882 . S
C183 C177 1.428 . S
C183 O186 1.301 . S
C183 O187 1.282 . S
O184 U166 2.441 . S
O184 C170 1.249 . S
O185 U166 2.420 . S
O185 C170 1.202 . S
O186 U166 2.455 . S
O186 C183 1.301 . S
O187 U166 2.449 . S
O187 C183 1.282 . S
H188 C161 0.931 . S
H189 C163 0.929 . S
H190 C164 0.930 . S
H191 C165 0.931 . S
H192 C172 0.932 . S
H193 C173 0.930 . S
H194 C174 0.929 . S
H195 C176 0.930 . S
H196 C178 0.932 . S
H197 C179 0.929 . S
H198 C180 0.928 . S
H199 C182 0.932 . S
C200 C201 1.264 . S
C200 C205 1.479 . S
C200 C210 1.465 . S
C201 C200 1.264 . S
C201 C203 1.339 . S
C201 H228 0.931 . S
C202 C203 1.395 . S
C202 C204 1.320 . S
C203 C201 1.339 . S
C203 C202 1.395 . S
C203 H229 0.929 . S
C204 C202 1.320 . S
C204 C205 1.405 . S
C204 H230 0.930 . S
C205 C200 1.479 . S
C205 C204 1.405 . S
C205 H231 0.931 . S
U206 O207 2.454 . S
U206 O208 2.458 . S
U206 C209 2.984 . S
U206 C210 2.847 . S
U206 C223 2.882 . S
U206 O224 2.441 . S
U206 O225 2.420 . S
U206 O226 2.455 . S
U206 O227 2.449 . S
O207 U206 2.454 . S
O207 C209 1.353 . S
O208 U206 2.458 . S
O208 C209 1.286 . S
C209 U206 2.984 . S
C209 O207 1.353 . S
C209 O208 1.286 . S
C209 C211 1.363 . S
C210 C200 1.465 . S
C210 U206 2.847 . S
C210 O224 1.249 . S
C210 O225 1.202 . S
C211 C209 1.363 . S
C211 C213 1.408 . S
C211 C216 1.342 . S
C212 C213 1.310 . S
C212 C215 1.461 . S
C212 H232 0.932 . S
C213 C211 1.408 . S
C213 C212 1.310 . S
C213 H233 0.930 . S
C214 C215 1.474 . S
C214 C216 1.285 . S
C214 H234 0.929 . S
C215 C212 1.461 . S
C215 C214 1.474 . S
C216 C211 1.342 . S
C216 C214 1.285 . S
C216 H235 0.930 . S
C217 C220 1.424 . S
C217 C222 1.245 . S
C217 C223 1.428 . S
C218 C221 1.260 . S
C218 C222 1.477 . S
C218 H236 0.932 . S
C219 C220 1.384 . S
C219 C221 1.479 . S
C219 H237 0.929 . S
C220 C217 1.424 . S
C220 C219 1.384 . S
C220 H238 0.928 . S
C221 C218 1.260 . S
C221 C219 1.479 . S
C222 C217 1.245 . S
C222 C218 1.477 . S
C222 H239 0.932 . S
C223 U206 2.882 . S
C223 C217 1.428 . S
C223 O226 1.301 . S
C223 O227 1.282 . S
O224 U206 2.441 . S
O224 C210 1.249 . S
O225 U206 2.420 . S
O225 C210 1.202 . S
O226 U206 2.455 . S
O226 C223 1.301 . S
O227 U206 2.449 . S
O227 C223 1.282 . S
H228 C201 0.931 . S
H229 C203 0.929 . S
H230 C204 0.930 . S
H231 C205 0.931 . S
H232 C212 0.932 . S
H233 C213 0.930 . S
H234 C214 0.929 . S
H235 C216 0.930 . S
H236 C218 0.932 . S
H237 C219 0.929 . S
H238 C220 0.928 . S
H239 C222 0.932 . S
C240 C241 1.264 . S
C240 C245 1.479 . S
C240 C250 1.465 . S
C241 C240 1.264 . S
C241 C243 1.339 . S
C241 H268 0.931 . S
C242 C243 1.395 . S
C242 C244 1.320 . S
C243 C241 1.339 . S
C243 C242 1.395 . S
C243 H269 0.929 . S
C244 C242 1.320 . S
C244 C245 1.405 . S
C244 H270 0.930 . S
C245 C240 1.479 . S
C245 C244 1.405 . S
C245 H271 0.931 . S
U246 O247 2.454 . S
U246 O248 2.458 . S
U246 C249 2.984 . S
U246 C250 2.847 . S
U246 C263 2.882 . S
U246 O264 2.441 . S
U246 O265 2.420 . S
U246 O266 2.455 . S
U246 O267 2.449 . S
O247 U246 2.454 . S
O247 C249 1.353 . S
O248 U246 2.458 . S
O248 C249 1.286 . S
C249 U246 2.984 . S
C249 O247 1.353 . S
C249 O248 1.286 . S
C249 C251 1.363 . S
C250 C240 1.465 . S
C250 U246 2.847 . S
C250 O264 1.249 . S
C250 O265 1.202 . S
C251 C249 1.363 . S
C251 C253 1.408 . S
C251 C256 1.342 . S
C252 C253 1.310 . S
C252 C255 1.461 . S
C252 H272 0.932 . S
C253 C251 1.408 . S
C253 C252 1.310 . S
C253 H273 0.930 . S
C254 C255 1.474 . S
C254 C256 1.285 . S
C254 H274 0.929 . S
C255 C252 1.461 . S
C255 C254 1.474 . S
C256 C251 1.342 . S
C256 C254 1.285 . S
C256 H275 0.930 . S
C257 C260 1.424 . S
C257 C262 1.245 . S
C257 C263 1.428 . S
C258 C261 1.260 . S
C258 C262 1.477 . S
C258 H276 0.932 . S
C259 C260 1.384 . S
C259 C261 1.479 . S
C259 H277 0.929 . S
C260 C257 1.424 . S
C260 C259 1.384 . S
C260 H278 0.928 . S
C261 C258 1.260 . S
C261 C259 1.479 . S
C262 C257 1.245 . S
C262 C258 1.477 . S
C262 H279 0.932 . S
C263 U246 2.882 . S
C263 C257 1.428 . S
C263 O266 1.301 . S
C263 O267 1.282 . S
O264 U246 2.441 . S
O264 C250 1.249 . S
O265 U246 2.420 . S
O265 C250 1.202 . S
O266 U246 2.455 . S
O266 C263 1.301 . S
O267 U246 2.449 . S
O267 C263 1.282 . S
H268 C241 0.931 . S
H269 C243 0.929 . S
H270 C244 0.930 . S
H271 C245 0.931 . S
H272 C252 0.932 . S
H273 C253 0.930 . S
H274 C254 0.929 . S
H275 C256 0.930 . S
H276 C258 0.932 . S
H277 C259 0.929 . S
H278 C260 0.928 . S
H279 C262 0.932 . S
C280 C281 1.264 . S
C280 C285 1.479 . S
C280 C290 1.465 . S
C281 C280 1.264 . S
C281 C283 1.339 . S
C281 H308 0.931 . S
C282 C283 1.395 . S
C282 C284 1.320 . S
C283 C281 1.339 . S
C283 C282 1.395 . S
C283 H309 0.929 . S
C284 C282 1.320 . S
C284 C285 1.405 . S
C284 H310 0.930 . S
C285 C280 1.479 . S
C285 C284 1.405 . S
C285 H311 0.931 . S
U286 O287 2.454 . S
U286 O288 2.458 . S
U286 C289 2.984 . S
U286 C290 2.847 . S
U286 C303 2.882 . S
U286 O304 2.441 . S
U286 O305 2.420 . S
U286 O306 2.455 . S
U286 O307 2.449 . S
O287 U286 2.454 . S
O287 C289 1.353 . S
O288 U286 2.458 . S
O288 C289 1.286 . S
C289 U286 2.984 . S
C289 O287 1.353 . S
C289 O288 1.286 . S
C289 C291 1.363 . S
C290 C280 1.465 . S
C290 U286 2.847 . S
C290 O304 1.249 . S
C290 O305 1.202 . S
C291 C289 1.363 . S
C291 C293 1.408 . S
C291 C296 1.342 . S
C292 C293 1.310 . S
C292 C295 1.461 . S
C292 H312 0.932 . S
C293 C291 1.408 . S
C293 C292 1.310 . S
C293 H313 0.930 . S
C294 C295 1.474 . S
C294 C296 1.285 . S
C294 H314 0.929 . S
C295 C292 1.461 . S
C295 C294 1.474 . S
C296 C291 1.342 . S
C296 C294 1.285 . S
C296 H315 0.930 . S
C297 C300 1.424 . S
C297 C302 1.245 . S
C297 C303 1.428 . S
C298 C301 1.260 . S
C298 C302 1.477 . S
C298 H316 0.932 . S
C299 C300 1.384 . S
C299 C301 1.479 . S
C299 H317 0.929 . S
C300 C297 1.424 . S
C300 C299 1.384 . S
C300 H318 0.928 . S
C301 C298 1.260 . S
C301 C299 1.479 . S
C302 C297 1.245 . S
C302 C298 1.477 . S
C302 H319 0.932 . S
C303 U286 2.882 . S
C303 C297 1.428 . S
C303 O306 1.301 . S
C303 O307 1.282 . S
O304 U286 2.441 . S
O304 C290 1.249 . S
O305 U286 2.420 . S
O305 C290 1.202 . S
O306 U286 2.455 . S
O306 C303 1.301 . S
O307 U286 2.449 . S
O307 C303 1.282 . S
H308 C281 0.931 . S
H309 C283 0.929 . S
H310 C284 0.930 . S
H311 C285 0.931 . S
H312 C292 0.932 . S
H313 C293 0.930 . S
H314 C294 0.929 . S
H315 C296 0.930 . S
H316 C298 0.932 . S
H317 C299 0.929 . S
H318 C300 0.928 . S
H319 C302 0.932 . S
C320 C321 1.264 . S
C320 C325 1.479 . S
C320 C330 1.465 . S
C321 C320 1.264 . S
C321 C323 1.339 . S
C321 H348 0.931 . S
C322 C323 1.395 . S
C322 C324 1.320 . S
C323 C321 1.339 . S
C323 C322 1.395 . S
C323 H349 0.929 . S
C324 C322 1.320 . S
C324 C325 1.405 . S
C324 H350 0.930 . S
C325 C320 1.479 . S
C325 C324 1.405 . S
C325 H351 0.931 . S
U326 O327 2.454 . S
U326 O328 2.458 . S
U326 C329 2.984 . S
U326 C330 2.847 . S
U326 C343 2.882 . S
U326 O344 2.441 . S
U326 O345 2.420 . S
U326 O346 2.455 . S
U326 O347 2.449 . S
O327 U326 2.454 . S
O327 C329 1.353 . S
O328 U326 2.458 . S
O328 C329 1.286 . S
C329 U326 2.984 . S
C329 O327 1.353 . S
C329 O328 1.286 . S
C329 C331 1.363 . S
C330 C320 1.465 . S
C330 U326 2.847 . S
C330 O344 1.249 . S
C330 O345 1.202 . S
C331 C329 1.363 . S
C331 C333 1.408 . S
C331 C336 1.342 . S
C332 C333 1.310 . S
C332 C335 1.461 . S
C332 H352 0.932 . S
C333 C331 1.408 . S
C333 C332 1.310 . S
C333 H353 0.930 . S
C334 C335 1.474 . S
C334 C336 1.285 . S
C334 H354 0.929 . S
C335 C332 1.461 . S
C335 C334 1.474 . S
C336 C331 1.342 . S
C336 C334 1.285 . S
C336 H355 0.930 . S
C337 C340 1.424 . S
C337 C342 1.245 . S
C337 C343 1.428 . S
C338 C341 1.260 . S
C338 C342 1.477 . S
C338 H356 0.932 . S
C339 C340 1.384 . S
C339 C341 1.479 . S
C339 H357 0.929 . S
C340 C337 1.424 . S
C340 C339 1.384 . S
C340 H358 0.928 . S
C341 C338 1.260 . S
C341 C339 1.479 . S
C342 C337 1.245 . S
C342 C338 1.477 . S
C342 H359 0.932 . S
C343 U326 2.882 . S
C343 C337 1.428 . S
C343 O346 1.301 . S
C343 O347 1.282 . S
O344 U326 2.441 . S
O344 C330 1.249 . S
O345 U326 2.420 . S
O345 C330 1.202 . S
O346 U326 2.455 . S
O346 C343 1.301 . S
O347 U326 2.449 . S
O347 C343 1.282 . S
H348 C321 0.931 . S
H349 C323 0.929 . S
H350 C324 0.930 . S
H351 C325 0.931 . S
H352 C332 0.932 . S
H353 C333 0.930 . S
H354 C334 0.929 . S
H355 C336 0.930 . S
H356 C338 0.932 . S
H357 C339 0.929 . S
H358 C340 0.928 . S
H359 C342 0.932 . S
C360 C361 1.264 . S
C360 C365 1.479 . S
C360 C370 1.465 . S
C361 C360 1.264 . S
C361 C363 1.339 . S
C361 H388 0.931 . S
C362 C363 1.395 . S
C362 C364 1.320 . S
C363 C361 1.339 . S
C363 C362 1.395 . S
C363 H389 0.929 . S
C364 C362 1.320 . S
C364 C365 1.405 . S
C364 H390 0.930 . S
C365 C360 1.479 . S
C365 C364 1.405 . S
C365 H391 0.931 . S
U366 O367 2.454 . S
U366 O368 2.458 . S
U366 C369 2.984 . S
U366 C370 2.847 . S
U366 C383 2.882 . S
U366 O384 2.441 . S
U366 O385 2.420 . S
U366 O386 2.455 . S
U366 O387 2.449 . S
O367 U366 2.454 . S
O367 C369 1.353 . S
O368 U366 2.458 . S
O368 C369 1.286 . S
C369 U366 2.984 . S
C369 O367 1.353 . S
C369 O368 1.286 . S
C369 C371 1.363 . S
C370 C360 1.465 . S
C370 U366 2.847 . S
C370 O384 1.249 . S
C370 O385 1.202 . S
C371 C369 1.363 . S
C371 C373 1.408 . S
C371 C376 1.342 . S
C372 C373 1.310 . S
C372 C375 1.461 . S
C372 H392 0.932 . S
C373 C371 1.408 . S
C373 C372 1.310 . S
C373 H393 0.930 . S
C374 C375 1.474 . S
C374 C376 1.285 . S
C374 H394 0.929 . S
C375 C372 1.461 . S
C375 C374 1.474 . S
C376 C371 1.342 . S
C376 C374 1.285 . S
C376 H395 0.930 . S
C377 C380 1.424 . S
C377 C382 1.245 . S
C377 C383 1.428 . S
C378 C381 1.260 . S
C378 C382 1.477 . S
C378 H396 0.932 . S
C379 C380 1.384 . S
C379 C381 1.479 . S
C379 H397 0.929 . S
C380 C377 1.424 . S
C380 C379 1.384 . S
C380 H398 0.928 . S
C381 C378 1.260 . S
C381 C379 1.479 . S
C382 C377 1.245 . S
C382 C378 1.477 . S
C382 H399 0.932 . S
C383 U366 2.882 . S
C383 C377 1.428 . S
C383 O386 1.301 . S
C383 O387 1.282 . S
O384 U366 2.441 . S
O384 C370 1.249 . S
O385 U366 2.420 . S
O385 C370 1.202 . S
O386 U366 2.455 . S
O386 C383 1.301 . S
O387 U366 2.449 . S
O387 C383 1.282 . S
H388 C361 0.931 . S
H389 C363 0.929 . S
H390 C364 0.930 . S
H391 C365 0.931 . S
H392 C372 0.932 . S
H393 C373 0.930 . S
H394 C374 0.929 . S
H395 C376 0.930 . S
H396 C378 0.932 . S
H397 C379 0.929 . S
H398 C380 0.928 . S
H399 C382 0.932 . S
C400 C401 1.264 . S
C400 C405 1.479 . S
C400 C410 1.465 . S
C401 C400 1.264 . S
C401 C403 1.339 . S
C401 H428 0.931 . S
C402 C403 1.395 . S
C402 C404 1.320 . S
C403 C401 1.339 . S
C403 C402 1.395 . S
C403 H429 0.929 . S
C404 C402 1.320 . S
C404 C405 1.405 . S
C404 H430 0.930 . S
C405 C400 1.479 . S
C405 C404 1.405 . S
C405 H431 0.931 . S
U406 O407 2.454 . S
U406 O408 2.458 . S
U406 C409 2.984 . S
U406 C410 2.847 . S
U406 C423 2.882 . S
U406 O424 2.441 . S
U406 O425 2.420 . S
U406 O426 2.455 . S
U406 O427 2.449 . S
O407 U406 2.454 . S
O407 C409 1.353 . S
O408 U406 2.458 . S
O408 C409 1.286 . S
C409 U406 2.984 . S
C409 O407 1.353 . S
C409 O408 1.286 . S
C409 C411 1.363 . S
C410 C400 1.465 . S
C410 U406 2.847 . S
C410 O424 1.249 . S
C410 O425 1.202 . S
C411 C409 1.363 . S
C411 C413 1.408 . S
C411 C416 1.342 . S
C412 C413 1.310 . S
C412 C415 1.461 . S
C412 H432 0.932 . S
C413 C411 1.408 . S
C413 C412 1.310 . S
C413 H433 0.930 . S
C414 C415 1.474 . S
C414 C416 1.285 . S
C414 H434 0.929 . S
C415 C412 1.461 . S
C415 C414 1.474 . S
C416 C411 1.342 . S
C416 C414 1.285 . S
C416 H435 0.930 . S
C417 C420 1.424 . S
C417 C422 1.245 . S
C417 C423 1.428 . S
C418 C421 1.260 . S
C418 C422 1.477 . S
C418 H436 0.932 . S
C419 C420 1.384 . S
C419 C421 1.479 . S
C419 H437 0.929 . S
C420 C417 1.424 . S
C420 C419 1.384 . S
C420 H438 0.928 . S
C421 C418 1.260 . S
C421 C419 1.479 . S
C422 C417 1.245 . S
C422 C418 1.477 . S
C422 H439 0.932 . S
C423 U406 2.882 . S
C423 C417 1.428 . S
C423 O426 1.301 . S
C423 O427 1.282 . S
O424 U406 2.441 . S
O424 C410 1.249 . S
O425 U406 2.420 . S
O425 C410 1.202 . S
O426 U406 2.455 . S
O426 C423 1.301 . S
O427 U406 2.449 . S
O427 C423 1.282 . S
H428 C401 0.931 . S
H429 C403 0.929 . S
H430 C404 0.930 . S
H431 C405 0.931 . S
H432 C412 0.932 . S
H433 C413 0.930 . S
H434 C414 0.929 . S
H435 C416 0.930 . S
H436 C418 0.932 . S
H437 C419 0.929 . S
H438 C420 0.928 . S
H439 C422 0.932 . S
C440 C441 1.264 . S
C440 C445 1.479 . S
C440 C450 1.465 . S
C441 C440 1.264 . S
C441 C443 1.339 . S
C441 H468 0.931 . S
C442 C443 1.395 . S
C442 C444 1.320 . S
C443 C441 1.339 . S
C443 C442 1.395 . S
C443 H469 0.929 . S
C444 C442 1.320 . S
C444 C445 1.405 . S
C444 H470 0.930 . S
C445 C440 1.479 . S
C445 C444 1.405 . S
C445 H471 0.931 . S
U446 O447 2.454 . S
U446 O448 2.458 . S
U446 C449 2.984 . S
U446 C450 2.847 . S
U446 C463 2.882 . S
U446 O464 2.441 . S
U446 O465 2.420 . S
U446 O466 2.455 . S
U446 O467 2.449 . S
O447 U446 2.454 . S
O447 C449 1.353 . S
O448 U446 2.458 . S
O448 C449 1.286 . S
C449 U446 2.984 . S
C449 O447 1.353 . S
C449 O448 1.286 . S
C449 C451 1.363 . S
C450 C440 1.465 . S
C450 U446 2.847 . S
C450 O464 1.249 . S
C450 O465 1.202 . S
C451 C449 1.363 . S
C451 C453 1.408 . S
C451 C456 1.342 . S
C452 C453 1.310 . S
C452 C455 1.461 . S
C452 H472 0.932 . S
C453 C451 1.408 . S
C453 C452 1.310 . S
C453 H473 0.930 . S
C454 C455 1.474 . S
C454 C456 1.285 . S
C454 H474 0.929 . S
C455 C452 1.461 . S
C455 C454 1.474 . S
C456 C451 1.342 . S
C456 C454 1.285 . S
C456 H475 0.930 . S
C457 C460 1.424 . S
C457 C462 1.245 . S
C457 C463 1.428 . S
C458 C461 1.260 . S
C458 C462 1.477 . S
C458 H476 0.932 . S
C459 C460 1.384 . S
C459 C461 1.479 . S
C459 H477 0.929 . S
C460 C457 1.424 . S
C460 C459 1.384 . S
C460 H478 0.928 . S
C461 C458 1.260 . S
C461 C459 1.479 . S
C462 C457 1.245 . S
C462 C458 1.477 . S
C462 H479 0.932 . S
C463 U446 2.882 . S
C463 C457 1.428 . S
C463 O466 1.301 . S
C463 O467 1.282 . S
O464 U446 2.441 . S
O464 C450 1.249 . S
O465 U446 2.420 . S
O465 C450 1.202 . S
O466 U446 2.455 . S
O466 C463 1.301 . S
O467 U446 2.449 . S
O467 C463 1.282 . S
H468 C441 0.931 . S
H469 C443 0.929 . S
H470 C444 0.930 . S
H471 C445 0.931 . S
H472 C452 0.932 . S
H473 C453 0.930 . S
H474 C454 0.929 . S
H475 C456 0.930 . S
H476 C458 0.932 . S
H477 C459 0.929 . S
H478 C460 0.928 . S
H479 C462 0.932 . S
C480 C481 1.264 . S
C480 C485 1.479 . S
C480 C490 1.465 . S
C481 C480 1.264 . S
C481 C483 1.339 . S
C481 H508 0.931 . S
C482 C483 1.395 . S
C482 C484 1.320 . S
C483 C481 1.339 . S
C483 C482 1.395 . S
C483 H509 0.929 . S
C484 C482 1.320 . S
C484 C485 1.405 . S
C484 H510 0.930 . S
C485 C480 1.479 . S
C485 C484 1.405 . S
C485 H511 0.931 . S
U486 O487 2.454 . S
U486 O488 2.458 . S
U486 C489 2.984 . S
U486 C490 2.847 . S
U486 C503 2.882 . S
U486 O504 2.441 . S
U486 O505 2.420 . S
U486 O506 2.455 . S
U486 O507 2.449 . S
O487 U486 2.454 . S
O487 C489 1.353 . S
O488 U486 2.458 . S
O488 C489 1.286 . S
C489 U486 2.984 . S
C489 O487 1.353 . S
C489 O488 1.286 . S
C489 C491 1.363 . S
C490 C480 1.465 . S
C490 U486 2.847 . S
C490 O504 1.249 . S
C490 O505 1.202 . S
C491 C489 1.363 . S
C491 C493 1.408 . S
C491 C496 1.342 . S
C492 C493 1.310 . S
C492 C495 1.461 . S
C492 H512 0.932 . S
C493 C491 1.408 . S
C493 C492 1.310 . S
C493 H513 0.930 . S
C494 C495 1.474 . S
C494 C496 1.285 . S
C494 H514 0.929 . S
C495 C492 1.461 . S
C495 C494 1.474 . S
C496 C491 1.342 . S
C496 C494 1.285 . S
C496 H515 0.930 . S
C497 C500 1.424 . S
C497 C502 1.245 . S
C497 C503 1.428 . S
C498 C501 1.260 . S
C498 C502 1.477 . S
C498 H516 0.932 . S
C499 C500 1.384 . S
C499 C501 1.479 . S
C499 H517 0.929 . S
C500 C497 1.424 . S
C500 C499 1.384 . S
C500 H518 0.928 . S
C501 C498 1.260 . S
C501 C499 1.479 . S
C502 C497 1.245 . S
C502 C498 1.477 . S
C502 H519 0.932 . S
C503 U486 2.882 . S
C503 C497 1.428 . S
C503 O506 1.301 . S
C503 O507 1.282 . S
O504 U486 2.441 . S
O504 C490 1.249 . S
O505 U486 2.420 . S
O505 C490 1.202 . S
O506 U486 2.455 . S
O506 C503 1.301 . S
O507 U486 2.449 . S
O507 C503 1.282 . S
H508 C481 0.931 . S
H509 C483 0.929 . S
H510 C484 0.930 . S
H511 C485 0.931 . S
H512 C492 0.932 . S
H513 C493 0.930 . S
H514 C494 0.929 . S
H515 C496 0.930 . S
H516 C498 0.932 . S
H517 C499 0.929 . S
H518 C500 0.928 . S
H519 C502 0.932 . S
C520 C521 1.264 . S
C520 C525 1.479 . S
C520 C530 1.465 . S
C521 C520 1.264 . S
C521 C523 1.339 . S
C521 H548 0.931 . S
C522 C523 1.395 . S
C522 C524 1.320 . S
C523 C521 1.339 . S
C523 C522 1.395 . S
C523 H549 0.929 . S
C524 C522 1.320 . S
C524 C525 1.405 . S
C524 H550 0.930 . S
C525 C520 1.479 . S
C525 C524 1.405 . S
C525 H551 0.931 . S
U526 O527 2.454 . S
U526 O528 2.458 . S
U526 C529 2.984 . S
U526 C530 2.847 . S
U526 C543 2.882 . S
U526 O544 2.441 . S
U526 O545 2.420 . S
U526 O546 2.455 . S
U526 O547 2.449 . S
O527 U526 2.454 . S
O527 C529 1.353 . S
O528 U526 2.458 . S
O528 C529 1.286 . S
C529 U526 2.984 . S
C529 O527 1.353 . S
C529 O528 1.286 . S
C529 C531 1.363 . S
C530 C520 1.465 . S
C530 U526 2.847 . S
C530 O544 1.249 . S
C530 O545 1.202 . S
C531 C529 1.363 . S
C531 C533 1.408 . S
C531 C536 1.342 . S
C532 C533 1.310 . S
C532 C535 1.461 . S
C532 H552 0.932 . S
C533 C531 1.408 . S
C533 C532 1.310 . S
C533 H553 0.930 . S
C534 C535 1.474 . S
C534 C536 1.285 . S
C534 H554 0.929 . S
C535 C532 1.461 . S
C535 C534 1.474 . S
C536 C531 1.342 . S
C536 C534 1.285 . S
C536 H555 0.930 . S
C537 C540 1.424 . S
C537 C542 1.245 . S
C537 C543 1.428 . S
C538 C541 1.260 . S
C538 C542 1.477 . S
C538 H556 0.932 . S
C539 C540 1.384 . S
C539 C541 1.479 . S
C539 H557 0.929 . S
C540 C537 1.424 . S
C540 C539 1.384 . S
C540 H558 0.928 . S
C541 C538 1.260 . S
C541 C539 1.479 . S
C542 C537 1.245 . S
C542 C538 1.477 . S
C542 H559 0.932 . S
C543 U526 2.882 . S
C543 C537 1.428 . S
C543 O546 1.301 . S
C543 O547 1.282 . S
O544 U526 2.441 . S
O544 C530 1.249 . S
O545 U526 2.420 . S
O545 C530 1.202 . S
O546 U526 2.455 . S
O546 C543 1.301 . S
O547 U526 2.449 . S
O547 C543 1.282 . S
H548 C521 0.931 . S
H549 C523 0.929 . S
H550 C524 0.930 . S
H551 C525 0.931 . S
H552 C532 0.932 . S
H553 C533 0.930 . S
H554 C534 0.929 . S
H555 C536 0.930 . S
H556 C538 0.932 . S
H557 C539 0.929 . S
H558 C540 0.928 . S
H559 C542 0.932 . S
C560 C561 1.264 . S
C560 C565 1.479 . S
C560 C570 1.465 . S
C561 C560 1.264 . S
C561 C563 1.339 . S
C561 H588 0.931 . S
C562 C563 1.395 . S
C562 C564 1.320 . S
C563 C561 1.339 . S
C563 C562 1.395 . S
C563 H589 0.929 . S
C564 C562 1.320 . S
C564 C565 1.405 . S
C564 H590 0.930 . S
C565 C560 1.479 . S
C565 C564 1.405 . S
C565 H591 0.931 . S
U566 O567 2.454 . S
U566 O568 2.458 . S
U566 C569 2.984 . S
U566 C570 2.847 . S
U566 C583 2.882 . S
U566 O584 2.441 . S
U566 O585 2.420 . S
U566 O586 2.455 . S
U566 O587 2.449 . S
O567 U566 2.454 . S
O567 C569 1.353 . S
O568 U566 2.458 . S
O568 C569 1.286 . S
C569 U566 2.984 . S
C569 O567 1.353 . S
C569 O568 1.286 . S
C569 C571 1.363 . S
C570 C560 1.465 . S
C570 U566 2.847 . S
C570 O584 1.249 . S
C570 O585 1.202 . S
C571 C569 1.363 . S
C571 C573 1.408 . S
C571 C576 1.342 . S
C572 C573 1.310 . S
C572 C575 1.461 . S
C572 H592 0.932 . S
C573 C571 1.408 . S
C573 C572 1.310 . S
C573 H593 0.930 . S
C574 C575 1.474 . S
C574 C576 1.285 . S
C574 H594 0.929 . S
C575 C572 1.461 . S
C575 C574 1.474 . S
C576 C571 1.342 . S
C576 C574 1.285 . S
C576 H595 0.930 . S
C577 C580 1.424 . S
C577 C582 1.245 . S
C577 C583 1.428 . S
C578 C581 1.260 . S
C578 C582 1.477 . S
C578 H596 0.932 . S
C579 C580 1.384 . S
C579 C581 1.479 . S
C579 H597 0.929 . S
C580 C577 1.424 . S
C580 C579 1.384 . S
C580 H598 0.928 . S
C581 C578 1.260 . S
C581 C579 1.479 . S
C582 C577 1.245 . S
C582 C578 1.477 . S
C582 H599 0.932 . S
C583 U566 2.882 . S
C583 C577 1.428 . S
C583 O586 1.301 . S
C583 O587 1.282 . S
O584 U566 2.441 . S
O584 C570 1.249 . S
O585 U566 2.420 . S
O585 C570 1.202 . S
O586 U566 2.455 . S
O586 C583 1.301 . S
O587 U566 2.449 . S
O587 C583 1.282 . S
H588 C561 0.931 . S
H589 C563 0.929 . S
H590 C564 0.930 . S
H591 C565 0.931 . S
H592 C572 0.932 . S
H593 C573 0.930 . S
H594 C574 0.929 . S
H595 C576 0.930 . S
H596 C578 0.932 . S
H597 C579 0.929 . S
H598 C580 0.928 . S
H599 C582 0.932 . S
C600 C601 1.264 . S
C600 C605 1.479 . S
C600 C610 1.465 . S
C601 C600 1.264 . S
C601 C603 1.339 . S
C601 H628 0.931 . S
C602 C603 1.395 . S
C602 C604 1.320 . S
C603 C601 1.339 . S
C603 C602 1.395 . S
C603 H629 0.929 . S
C604 C602 1.320 . S
C604 C605 1.405 . S
C604 H630 0.930 . S
C605 C600 1.479 . S
C605 C604 1.405 . S
C605 H631 0.931 . S
U606 O607 2.454 . S
U606 O608 2.458 . S
U606 C609 2.984 . S
U606 C610 2.847 . S
U606 C623 2.882 . S
U606 O624 2.441 . S
U606 O625 2.420 . S
U606 O626 2.455 . S
U606 O627 2.449 . S
O607 U606 2.454 . S
O607 C609 1.353 . S
O608 U606 2.458 . S
O608 C609 1.286 . S
C609 U606 2.984 . S
C609 O607 1.353 . S
C609 O608 1.286 . S
C609 C611 1.363 . S
C610 C600 1.465 . S
C610 U606 2.847 . S
C610 O624 1.249 . S
C610 O625 1.202 . S
C611 C609 1.363 . S
C611 C613 1.408 . S
C611 C616 1.342 . S
C612 C613 1.310 . S
C612 C615 1.461 . S
C612 H632 0.932 . S
C613 C611 1.408 . S
C613 C612 1.310 . S
C613 H633 0.930 . S
C614 C615 1.474 . S
C614 C616 1.285 . S
C614 H634 0.929 . S
C615 C612 1.461 . S
C615 C614 1.474 . S
C616 C611 1.342 . S
C616 C614 1.285 . S
C616 H635 0.930 . S
C617 C620 1.424 . S
C617 C622 1.245 . S
C617 C623 1.428 . S
C618 C621 1.260 . S
C618 C622 1.477 . S
C618 H636 0.932 . S
C619 C620 1.384 . S
C619 C621 1.479 . S
C619 H637 0.929 . S
C620 C617 1.424 . S
C620 C619 1.384 . S
C620 H638 0.928 . S
C621 C618 1.260 . S
C621 C619 1.479 . S
C622 C617 1.245 . S
C622 C618 1.477 . S
C622 H639 0.932 . S
C623 U606 2.882 . S
C623 C617 1.428 . S
C623 O626 1.301 . S
C623 O627 1.282 . S
O624 U606 2.441 . S
O624 C610 1.249 . S
O625 U606 2.420 . S
O625 C610 1.202 . S
O626 U606 2.455 . S
O626 C623 1.301 . S
O627 U606 2.449 . S
O627 C623 1.282 . S
H628 C601 0.931 . S
H629 C603 0.929 . S
H630 C604 0.930 . S
H631 C605 0.931 . S
H632 C612 0.932 . S
H633 C613 0.930 . S
H634 C614 0.929 . S
H635 C616 0.930 . S
H636 C618 0.932 . S
H637 C619 0.929 . S
H638 C620 0.928 . S
H639 C622 0.932 . S
C640 C641 1.264 . S
C640 C645 1.479 . S
C640 C650 1.465 . S
C641 C640 1.264 . S
C641 C643 1.339 . S
C641 H668 0.931 . S
C642 C643 1.395 . S
C642 C644 1.320 . S
C643 C641 1.339 . S
C643 C642 1.395 . S
C643 H669 0.929 . S
C644 C642 1.320 . S
C644 C645 1.405 . S
C644 H670 0.930 . S
C645 C640 1.479 . S
C645 C644 1.405 . S
C645 H671 0.931 . S
U646 O647 2.454 . S
U646 O648 2.458 . S
U646 C649 2.984 . S
U646 C650 2.847 . S
U646 C663 2.882 . S
U646 O664 2.441 . S
U646 O665 2.420 . S
U646 O666 2.455 . S
U646 O667 2.449 . S
O647 U646 2.454 . S
O647 C649 1.353 . S
O648 U646 2.458 . S
O648 C649 1.286 . S
C649 U646 2.984 . S
C649 O647 1.353 . S
C649 O648 1.286 . S
C649 C651 1.363 . S
C650 C640 1.465 . S
C650 U646 2.847 . S
C650 O664 1.249 . S
C650 O665 1.202 . S
C651 C649 1.363 . S
C651 C653 1.408 . S
C651 C656 1.342 . S
C652 C653 1.310 . S
C652 C655 1.461 . S
C652 H672 0.932 . S
C653 C651 1.408 . S
C653 C652 1.310 . S
C653 H673 0.930 . S
C654 C655 1.474 . S
C654 C656 1.285 . S
C654 H674 0.929 . S
C655 C652 1.461 . S
C655 C654 1.474 . S
C656 C651 1.342 . S
C656 C654 1.285 . S
C656 H675 0.930 . S
C657 C660 1.424 . S
C657 C662 1.245 . S
C657 C663 1.428 . S
C658 C661 1.260 . S
C658 C662 1.477 . S
C658 H676 0.932 . S
C659 C660 1.384 . S
C659 C661 1.479 . S
C659 H677 0.929 . S
C660 C657 1.424 . S
C660 C659 1.384 . S
C660 H678 0.928 . S
C661 C658 1.260 . S
C661 C659 1.479 . S
C662 C657 1.245 . S
C662 C658 1.477 . S
C662 H679 0.932 . S
C663 U646 2.882 . S
C663 C657 1.428 . S
C663 O666 1.301 . S
C663 O667 1.282 . S
O664 U646 2.441 . S
O664 C650 1.249 . S
O665 U646 2.420 . S
O665 C650 1.202 . S
O666 U646 2.455 . S
O666 C663 1.301 . S
O667 U646 2.449 . S
O667 C663 1.282 . S
H668 C641 0.931 . S
H669 C643 0.929 . S
H670 C644 0.930 . S
H671 C645 0.931 . S
H672 C652 0.932 . S
H673 C653 0.930 . S
H674 C654 0.929 . S
H675 C656 0.930 . S
H676 C658 0.932 . S
H677 C659 0.929 . S
H678 C660 0.928 . S
H679 C662 0.932 . S
C680 C681 1.264 . S
C680 C685 1.479 . S
C680 C690 1.465 . S
C681 C680 1.264 . S
C681 C683 1.339 . S
C681 H708 0.931 . S
C682 C683 1.395 . S
C682 C684 1.320 . S
C683 C681 1.339 . S
C683 C682 1.395 . S
C683 H709 0.929 . S
C684 C682 1.320 . S
C684 C685 1.405 . S
C684 H710 0.930 . S
C685 C680 1.479 . S
C685 C684 1.405 . S
C685 H711 0.931 . S
U686 O687 2.454 . S
U686 O688 2.458 . S
U686 C689 2.984 . S
U686 C690 2.847 . S
U686 C703 2.882 . S
U686 O704 2.441 . S
U686 O705 2.420 . S
U686 O706 2.455 . S
U686 O707 2.449 . S
O687 U686 2.454 . S
O687 C689 1.353 . S
O688 U686 2.458 . S
O688 C689 1.286 . S
C689 U686 2.984 . S
C689 O687 1.353 . S
C689 O688 1.286 . S
C689 C691 1.363 . S
C690 C680 1.465 . S
C690 U686 2.847 . S
C690 O704 1.249 . S
C690 O705 1.202 . S
C691 C689 1.363 . S
C691 C693 1.408 . S
C691 C696 1.342 . S
C692 C693 1.310 . S
C692 C695 1.461 . S
C692 H712 0.932 . S
C693 C691 1.408 . S
C693 C692 1.310 . S
C693 H713 0.930 . S
C694 C695 1.474 . S
C694 C696 1.285 . S
C694 H714 0.929 . S
C695 C692 1.461 . S
C695 C694 1.474 . S
C696 C691 1.342 . S
C696 C694 1.285 . S
C696 H715 0.930 . S
C697 C700 1.424 . S
C697 C702 1.245 . S
C697 C703 1.428 . S
C698 C701 1.260 . S
C698 C702 1.477 . S
C698 H716 0.932 . S
C699 C700 1.384 . S
C699 C701 1.479 . S
C699 H717 0.929 . S
C700 C697 1.424 . S
C700 C699 1.384 . S
C700 H718 0.928 . S
C701 C698 1.260 . S
C701 C699 1.479 . S
C702 C697 1.245 . S
C702 C698 1.477 . S
C702 H719 0.932 . S
C703 U686 2.882 . S
C703 C697 1.428 . S
C703 O706 1.301 . S
C703 O707 1.282 . S
O704 U686 2.441 . S
O704 C690 1.249 . S
O705 U686 2.420 . S
O705 C690 1.202 . S
O706 U686 2.455 . S
O706 C703 1.301 . S
O707 U686 2.449 . S
O707 C703 1.282 . S
H708 C681 0.931 . S
H709 C683 0.929 . S
H710 C684 0.930 . S
H711 C685 0.931 . S
H712 C692 0.932 . S
H713 C693 0.930 . S
H714 C694 0.929 . S
H715 C696 0.930 . S
H716 C698 0.932 . S
H717 C699 0.929 . S
H718 C700 0.928 . S
H719 C702 0.932 . S
C720 C721 1.264 . S
C720 C725 1.479 . S
C720 C730 1.465 . S
C721 C720 1.264 . S
C721 C723 1.339 . S
C721 H748 0.931 . S
C722 C723 1.395 . S
C722 C724 1.320 . S
C723 C721 1.339 . S
C723 C722 1.395 . S
C723 H749 0.929 . S
C724 C722 1.320 . S
C724 C725 1.405 . S
C724 H750 0.930 . S
C725 C720 1.479 . S
C725 C724 1.405 . S
C725 H751 0.931 . S
U726 O727 2.454 . S
U726 O728 2.458 . S
U726 C729 2.984 . S
U726 C730 2.847 . S
U726 C743 2.882 . S
U726 O744 2.441 . S
U726 O745 2.420 . S
U726 O746 2.455 . S
U726 O747 2.449 . S
O727 U726 2.454 . S
O727 C729 1.353 . S
O728 U726 2.458 . S
O728 C729 1.286 . S
C729 U726 2.984 . S
C729 O727 1.353 . S
C729 O728 1.286 . S
C729 C731 1.363 . S
C730 C720 1.465 . S
C730 U726 2.847 . S
C730 O744 1.249 . S
C730 O745 1.202 . S
C731 C729 1.363 . S
C731 C733 1.408 . S
C731 C736 1.342 . S
C732 C733 1.310 . S
C732 C735 1.461 . S
C732 H752 0.932 . S
C733 C731 1.408 . S
C733 C732 1.310 . S
C733 H753 0.930 . S
C734 C735 1.474 . S
C734 C736 1.285 . S
C734 H754 0.929 . S
C735 C732 1.461 . S
C735 C734 1.474 . S
C736 C731 1.342 . S
C736 C734 1.285 . S
C736 H755 0.930 . S
C737 C740 1.424 . S
C737 C742 1.245 . S
C737 C743 1.428 . S
C738 C741 1.260 . S
C738 C742 1.477 . S
C738 H756 0.932 . S
C739 C740 1.384 . S
C739 C741 1.479 . S
C739 H757 0.929 . S
C740 C737 1.424 . S
C740 C739 1.384 . S
C740 H758 0.928 . S
C741 C738 1.260 . S
C741 C739 1.479 . S
C742 C737 1.245 . S
C742 C738 1.477 . S
C742 H759 0.932 . S
C743 U726 2.882 . S
C743 C737 1.428 . S
C743 O746 1.301 . S
C743 O747 1.282 . S
O744 U726 2.441 . S
O744 C730 1.249 . S
O745 U726 2.420 . S
O745 C730 1.202 . S
O746 U726 2.455 . S
O746 C743 1.301 . S
O747 U726 2.449 . S
O747 C743 1.282 . S
H748 C721 0.931 . S
H749 C723 0.929 . S
H750 C724 0.930 . S
H751 C725 0.931 . S
H752 C732 0.932 . S
H753 C733 0.930 . S
H754 C734 0.929 . S
H755 C736 0.930 . S
H756 C738 0.932 . S
H757 C739 0.929 . S
H758 C740 0.928 . S
H759 C742 0.932 . S
C760 C761 1.264 . S
C760 C765 1.479 . S
C760 C770 1.465 . S
C761 C760 1.264 . S
C761 C763 1.339 . S
C761 H788 0.931 . S
C762 C763 1.395 . S
C762 C764 1.320 . S
C763 C761 1.339 . S
C763 C762 1.395 . S
C763 H789 0.929 . S
C764 C762 1.320 . S
C764 C765 1.405 . S
C764 H790 0.930 . S
C765 C760 1.479 . S
C765 C764 1.405 . S
C765 H791 0.931 . S
U766 O767 2.454 . S
U766 O768 2.458 . S
U766 C769 2.984 . S
U766 C770 2.847 . S
U766 C783 2.882 . S
U766 O784 2.441 . S
U766 O785 2.420 . S
U766 O786 2.455 . S
U766 O787 2.449 . S
O767 U766 2.454 . S
O767 C769 1.353 . S
O768 U766 2.458 . S
O768 C769 1.286 . S
C769 U766 2.984 . S
C769 O767 1.353 . S
C769 O768 1.286 . S
C769 C771 1.363 . S
C770 C760 1.465 . S
C770 U766 2.847 . S
C770 O784 1.249 . S
C770 O785 1.202 . S
C771 C769 1.363 . S
C771 C773 1.408 . S
C771 C776 1.342 . S
C772 C773 1.310 . S
C772 C775 1.461 . S
C772 H792 0.932 . S
C773 C771 1.408 . S
C773 C772 1.310 . S
C773 H793 0.930 . S
C774 C775 1.474 . S
C774 C776 1.285 . S
C774 H794 0.929 . S
C775 C772 1.461 . S
C775 C774 1.474 . S
C776 C771 1.342 . S
C776 C774 1.285 . S
C776 H795 0.930 . S
C777 C780 1.424 . S
C777 C782 1.245 . S
C777 C783 1.428 . S
C778 C781 1.260 . S
C778 C782 1.477 . S
C778 H796 0.932 . S
C779 C780 1.384 . S
C779 C781 1.479 . S
C779 H797 0.929 . S
C780 C777 1.424 . S
C780 C779 1.384 . S
C780 H798 0.928 . S
C781 C778 1.260 . S
C781 C779 1.479 . S
C782 C777 1.245 . S
C782 C778 1.477 . S
C782 H799 0.932 . S
C783 U766 2.882 . S
C783 C777 1.428 . S
C783 O786 1.301 . S
C783 O787 1.282 . S
O784 U766 2.441 . S
O784 C770 1.249 . S
O785 U766 2.420 . S
O785 C770 1.202 . S
O786 U766 2.455 . S
O786 C783 1.301 . S
O787 U766 2.449 . S
O787 C783 1.282 . S
H788 C761 0.931 . S
H789 C763 0.929 . S
H790 C764 0.930 . S
H791 C765 0.931 . S
H792 C772 0.932 . S
H793 C773 0.930 . S
H794 C774 0.929 . S
H795 C776 0.930 . S
H796 C778 0.932 . S
H797 C779 0.929 . S
H798 C780 0.928 . S
H799 C782 0.932 . S
C800 C801 1.264 . S
C800 C805 1.479 . S
C800 C810 1.465 . S
C801 C800 1.264 . S
C801 C803 1.339 . S
C801 H828 0.931 . S
C802 C803 1.395 . S
C802 C804 1.320 . S
C803 C801 1.339 . S
C803 C802 1.395 . S
C803 H829 0.929 . S
C804 C802 1.320 . S
C804 C805 1.405 . S
C804 H830 0.930 . S
C805 C800 1.479 . S
C805 C804 1.405 . S
C805 H831 0.931 . S
U806 O807 2.454 . S
U806 O808 2.458 . S
U806 C809 2.984 . S
U806 C810 2.847 . S
U806 C823 2.882 . S
U806 O824 2.441 . S
U806 O825 2.420 . S
U806 O826 2.455 . S
U806 O827 2.449 . S
O807 U806 2.454 . S
O807 C809 1.353 . S
O808 U806 2.458 . S
O808 C809 1.286 . S
C809 U806 2.984 . S
C809 O807 1.353 . S
C809 O808 1.286 . S
C809 C811 1.363 . S
C810 C800 1.465 . S
C810 U806 2.847 . S
C810 O824 1.249 . S
C810 O825 1.202 . S
C811 C809 1.363 . S
C811 C813 1.408 . S
C811 C816 1.342 . S
C812 C813 1.310 . S
C812 C815 1.461 . S
C812 H832 0.932 . S
C813 C811 1.408 . S
C813 C812 1.310 . S
C813 H833 0.930 . S
C814 C815 1.474 . S
C814 C816 1.285 . S
C814 H834 0.929 . S
C815 C812 1.461 . S
C815 C814 1.474 . S
C816 C811 1.342 . S
C816 C814 1.285 . S
C816 H835 0.930 . S
C817 C820 1.424 . S
C817 C822 1.245 . S
C817 C823 1.428 . S
C818 C821 1.260 . S
C818 C822 1.477 . S
C818 H836 0.932 . S
C819 C820 1.384 . S
C819 C821 1.479 . S
C819 H837 0.929 . S
C820 C817 1.424 . S
C820 C819 1.384 . S
C820 H838 0.928 . S
C821 C818 1.260 . S
C821 C819 1.479 . S
C822 C817 1.245 . S
C822 C818 1.477 . S
C822 H839 0.932 . S
C823 U806 2.882 . S
C823 C817 1.428 . S
C823 O826 1.301 . S
C823 O827 1.282 . S
O824 U806 2.441 . S
O824 C810 1.249 . S
O825 U806 2.420 . S
O825 C810 1.202 . S
O826 U806 2.455 . S
O826 C823 1.301 . S
O827 U806 2.449 . S
O827 C823 1.282 . S
H828 C801 0.931 . S
H829 C803 0.929 . S
H830 C804 0.930 . S
H831 C805 0.931 . S
H832 C812 0.932 . S
H833 C813 0.930 . S
H834 C814 0.929 . S
H835 C816 0.930 . S
H836 C818 0.932 . S
H837 C819 0.929 . S
H838 C820 0.928 . S
H839 C822 0.932 . S
C840 C841 1.264 . S
C840 C845 1.479 . S
C840 C850 1.465 . S
C841 C840 1.264 . S
C841 C843 1.339 . S
C841 H868 0.931 . S
C842 C843 1.395 . S
C842 C844 1.320 . S
C843 C841 1.339 . S
C843 C842 1.395 . S
C843 H869 0.929 . S
C844 C842 1.320 . S
C844 C845 1.405 . S
C844 H870 0.930 . S
C845 C840 1.479 . S
C845 C844 1.405 . S
C845 H871 0.931 . S
U846 O847 2.454 . S
U846 O848 2.458 . S
U846 C849 2.984 . S
U846 C850 2.847 . S
U846 C863 2.882 . S
U846 O864 2.441 . S
U846 O865 2.420 . S
U846 O866 2.455 . S
U846 O867 2.449 . S
O847 U846 2.454 . S
O847 C849 1.353 . S
O848 U846 2.458 . S
O848 C849 1.286 . S
C849 U846 2.984 . S
C849 O847 1.353 . S
C849 O848 1.286 . S
C849 C851 1.363 . S
C850 C840 1.465 . S
C850 U846 2.847 . S
C850 O864 1.249 . S
C850 O865 1.202 . S
C851 C849 1.363 . S
C851 C853 1.408 . S
C851 C856 1.342 . S
C852 C853 1.310 . S
C852 C855 1.461 . S
C852 H872 0.932 . S
C853 C851 1.408 . S
C853 C852 1.310 . S
C853 H873 0.930 . S
C854 C855 1.474 . S
C854 C856 1.285 . S
C854 H874 0.929 . S
C855 C852 1.461 . S
C855 C854 1.474 . S
C856 C851 1.342 . S
C856 C854 1.285 . S
C856 H875 0.930 . S
C857 C860 1.424 . S
C857 C862 1.245 . S
C857 C863 1.428 . S
C858 C861 1.260 . S
C858 C862 1.477 . S
C858 H876 0.932 . S
C859 C860 1.384 . S
C859 C861 1.479 . S
C859 H877 0.929 . S
C860 C857 1.424 . S
C860 C859 1.384 . S
C860 H878 0.928 . S
C861 C858 1.260 . S
C861 C859 1.479 . S
C862 C857 1.245 . S
C862 C858 1.477 . S
C862 H879 0.932 . S
C863 U846 2.882 . S
C863 C857 1.428 . S
C863 O866 1.301 . S
C863 O867 1.282 . S
O864 U846 2.441 . S
O864 C850 1.249 . S
O865 U846 2.420 . S
O865 C850 1.202 . S
O866 U846 2.455 . S
O866 C863 1.301 . S
O867 U846 2.449 . S
O867 C863 1.282 . S
H868 C841 0.931 . S
H869 C843 0.929 . S
H870 C844 0.930 . S
H871 C845 0.931 . S
H872 C852 0.932 . S
H873 C853 0.930 . S
H874 C854 0.929 . S
H875 C856 0.930 . S
H876 C858 0.932 . S
H877 C859 0.929 . S
H878 C860 0.928 . S
H879 C862 0.932 . S
C880 C881 1.264 . S
C880 C885 1.479 . S
C880 C890 1.465 . S
C881 C880 1.264 . S
C881 C883 1.339 . S
C881 H908 0.931 . S
C882 C883 1.395 . S
C882 C884 1.320 . S
C883 C881 1.339 . S
C883 C882 1.395 . S
C883 H909 0.929 . S
C884 C882 1.320 . S
C884 C885 1.405 . S
C884 H910 0.930 . S
C885 C880 1.479 . S
C885 C884 1.405 . S
C885 H911 0.931 . S
U886 O887 2.454 . S
U886 O888 2.458 . S
U886 C889 2.984 . S
U886 C890 2.847 . S
U886 C903 2.882 . S
U886 O904 2.441 . S
U886 O905 2.420 . S
U886 O906 2.455 . S
U886 O907 2.449 . S
O887 U886 2.454 . S
O887 C889 1.353 . S
O888 U886 2.458 . S
O888 C889 1.286 . S
C889 U886 2.984 . S
C889 O887 1.353 . S
C889 O888 1.286 . S
C889 C891 1.363 . S
C890 C880 1.465 . S
C890 U886 2.847 . S
C890 O904 1.249 . S
C890 O905 1.202 . S
C891 C889 1.363 . S
C891 C893 1.408 . S
C891 C896 1.342 . S
C892 C893 1.310 . S
C892 C895 1.461 . S
C892 H912 0.932 . S
C893 C891 1.408 . S
C893 C892 1.310 . S
C893 H913 0.930 . S
C894 C895 1.474 . S
C894 C896 1.285 . S
C894 H914 0.929 . S
C895 C892 1.461 . S
C895 C894 1.474 . S
C896 C891 1.342 . S
C896 C894 1.285 . S
C896 H915 0.930 . S
C897 C900 1.424 . S
C897 C902 1.245 . S
C897 C903 1.428 . S
C898 C901 1.260 . S
C898 C902 1.477 . S
C898 H916 0.932 . S
C899 C900 1.384 . S
C899 C901 1.479 . S
C899 H917 0.929 . S
C900 C897 1.424 . S
C900 C899 1.384 . S
C900 H918 0.928 . S
C901 C898 1.260 . S
C901 C899 1.479 . S
C902 C897 1.245 . S
C902 C898 1.477 . S
C902 H919 0.932 . S
C903 U886 2.882 . S
C903 C897 1.428 . S
C903 O906 1.301 . S
C903 O907 1.282 . S
O904 U886 2.441 . S
O904 C890 1.249 . S
O905 U886 2.420 . S
O905 C890 1.202 . S
O906 U886 2.455 . S
O906 C903 1.301 . S
O907 U886 2.449 . S
O907 C903 1.282 . S
H908 C881 0.931 . S
H909 C883 0.929 . S
H910 C884 0.930 . S
H911 C885 0.931 . S
H912 C892 0.932 . S
H913 C893 0.930 . S
H914 C894 0.929 . S
H915 C896 0.930 . S
H916 C898 0.932 . S
H917 C899 0.929 . S
H918 C900 0.928 . S
H919 C902 0.932 . S
C920 C921 1.264 . S
C920 C925 1.479 . S
C920 C930 1.465 . S
C921 C920 1.264 . S
C921 C923 1.339 . S
C921 H948 0.931 . S
C922 C923 1.395 . S
C922 C924 1.320 . S
C923 C921 1.339 . S
C923 C922 1.395 . S
C923 H949 0.929 . S
C924 C922 1.320 . S
C924 C925 1.405 . S
C924 H950 0.930 . S
C925 C920 1.479 . S
C925 C924 1.405 . S
C925 H951 0.931 . S
U926 O927 2.454 . S
U926 O928 2.458 . S
U926 C929 2.984 . S
U926 C930 2.847 . S
U926 C943 2.882 . S
U926 O944 2.441 . S
U926 O945 2.420 . S
U926 O946 2.455 . S
U926 O947 2.449 . S
O927 U926 2.454 . S
O927 C929 1.353 . S
O928 U926 2.458 . S
O928 C929 1.286 . S
C929 U926 2.984 . S
C929 O927 1.353 . S
C929 O928 1.286 . S
C929 C931 1.363 . S
C930 C920 1.465 . S
C930 U926 2.847 . S
C930 O944 1.249 . S
C930 O945 1.202 . S
C931 C929 1.363 . S
C931 C933 1.408 . S
C931 C936 1.342 . S
C932 C933 1.310 . S
C932 C935 1.461 . S
C932 H952 0.932 . S
C933 C931 1.408 . S
C933 C932 1.310 . S
C933 H953 0.930 . S
C934 C935 1.474 . S
C934 C936 1.285 . S
C934 H954 0.929 . S
C935 C932 1.461 . S
C935 C934 1.474 . S
C936 C931 1.342 . S
C936 C934 1.285 . S
C936 H955 0.930 . S
C937 C940 1.424 . S
C937 C942 1.245 . S
C937 C943 1.428 . S
C938 C941 1.260 . S
C938 C942 1.477 . S
C938 H956 0.932 . S
C939 C940 1.384 . S
C939 C941 1.479 . S
C939 H957 0.929 . S
C940 C937 1.424 . S
C940 C939 1.384 . S
C940 H958 0.928 . S
C941 C938 1.260 . S
C941 C939 1.479 . S
C942 C937 1.245 . S
C942 C938 1.477 . S
C942 H959 0.932 . S
C943 U926 2.882 . S
C943 C937 1.428 . S
C943 O946 1.301 . S
C943 O947 1.282 . S
O944 U926 2.441 . S
O944 C930 1.249 . S
O945 U926 2.420 . S
O945 C930 1.202 . S
O946 U926 2.455 . S
O946 C943 1.301 . S
O947 U926 2.449 . S
O947 C943 1.282 . S
H948 C921 0.931 . S
H949 C923 0.929 . S
H950 C924 0.930 . S
H951 C925 0.931 . S
H952 C932 0.932 . S
H953 C933 0.930 . S
H954 C934 0.929 . S
H955 C936 0.930 . S
H956 C938 0.932 . S
H957 C939 0.929 . S
H958 C940 0.928 . S
H959 C942 0.932 . S
C960 C961 1.264 . S
C960 C965 1.479 . S
C960 C970 1.465 . S
C961 C960 1.264 . S
C961 C963 1.339 . S
C961 H988 0.931 . S
C962 C963 1.395 . S
C962 C964 1.320 . S
C963 C961 1.339 . S
C963 C962 1.395 . S
C963 H989 0.929 . S
C964 C962 1.320 . S
C964 C965 1.405 . S
C964 H990 0.930 . S
C965 C960 1.479 . S
C965 C964 1.405 . S
C965 H991 0.931 . S
U966 O967 2.454 . S
U966 O968 2.458 . S
U966 C969 2.984 . S
U966 C970 2.847 . S
U966 C983 2.882 . S
U966 O984 2.441 . S
U966 O985 2.420 . S
U966 O986 2.455 . S
U966 O987 2.449 . S
O967 U966 2.454 . S
O967 C969 1.353 . S
O968 U966 2.458 . S
O968 C969 1.286 . S
C969 U966 2.984 . S
C969 O967 1.353 . S
C969 O968 1.286 . S
C969 C971 1.363 . S
C970 C960 1.465 . S
C970 U966 2.847 . S
C970 O984 1.249 . S
C970 O985 1.202 . S
C971 C969 1.363 . S
C971 C973 1.408 . S
C971 C976 1.342 . S
C972 C973 1.310 . S
C972 C975 1.461 . S
C972 H992 0.932 . S
C973 C971 1.408 . S
C973 C972 1.310 . S
C973 H993 0.930 . S
C974 C975 1.474 . S
C974 C976 1.285 . S
C974 H994 0.929 . S
C975 C972 1.461 . S
C975 C974 1.474 . S
C976 C971 1.342 . S
C976 C974 1.285 . S
C976 H995 0.930 . S
C977 C980 1.424 . S
C977 C982 1.245 . S
C977 C983 1.428 . S
C978 C981 1.260 . S
C978 C982 1.477 . S
C978 H996 0.932 . S
C979 C980 1.384 . S
C979 C981 1.479 . S
C979 H997 0.929 . S
C980 C977 1.424 . S
C980 C979 1.384 . S
C980 H998 0.928 . S
C981 C978 1.260 . S
C981 C979 1.479 . S
C982 C977 1.245 . S
C982 C978 1.477 . S
C982 H999 0.932 . S
C983 U966 2.882 . S
C983 C977 1.428 . S
C983 O986 1.301 . S
C983 O987 1.282 . S
O984 U966 2.441 . S
O984 C970 1.249 . S
O985 U966 2.420 . S
O985 C970 1.202 . S
O986 U966 2.455 . S
O986 C983 1.301 . S
O987 U966 2.449 . S
O987 C983 1.282 . S
H988 C961 0.931 . S
H989 C963 0.929 . S
H990 C964 0.930 . S
H991 C965 0.931 . S
H992 C972 0.932 . S
H993 C973 0.930 . S
H994 C974 0.929 . S
H995 C976 0.930 . S
H996 C978 0.932 . S
H997 C979 0.929 . S
H998 C980 0.928 . S
H999 C982 0.932 . S
C1000 C1001 1.264 . S
C1000 C1005 1.479 . S
C1000 C1010 1.465 . S
C1001 C1000 1.264 . S
C1001 C1003 1.339 . S
C1001 H1028 0.931 . S
C1002 C1003 1.395 . S
C1002 C1004 1.320 . S
C1003 C1001 1.339 . S
C1003 C1002 1.395 . S
C1003 H1029 0.929 . S
C1004 C1002 1.320 . S
C1004 C1005 1.405 . S
C1004 H1030 0.930 . S
C1005 C1000 1.479 . S
C1005 C1004 1.405 . S
C1005 H1031 0.931 . S
U1006 O1007 2.454 . S
U1006 O1008 2.458 . S
U1006 C1009 2.984 . S
U1006 C1010 2.847 . S
U1006 C1023 2.882 . S
U1006 O1024 2.441 . S
U1006 O1025 2.420 . S
U1006 O1026 2.455 . S
U1006 O1027 2.449 . S
O1007 U1006 2.454 . S
O1007 C1009 1.353 . S
O1008 U1006 2.458 . S
O1008 C1009 1.286 . S
C1009 U1006 2.984 . S
C1009 O1007 1.353 . S
C1009 O1008 1.286 . S
C1009 C1011 1.363 . S
C1010 C1000 1.465 . S
C1010 U1006 2.847 . S
C1010 O1024 1.249 . S
C1010 O1025 1.202 . S
C1011 C1009 1.363 . S
C1011 C1013 1.408 . S
C1011 C1016 1.342 . S
C1012 C1013 1.310 . S
C1012 C1015 1.461 . S
C1012 H1032 0.932 . S
C1013 C1011 1.408 . S
C1013 C1012 1.310 . S
C1013 H1033 0.930 . S
C1014 C1015 1.474 . S
C1014 C1016 1.285 . S
C1014 H1034 0.929 . S
C1015 C1012 1.461 . S
C1015 C1014 1.474 . S
C1016 C1011 1.342 . S
C1016 C1014 1.285 . S
C1016 H1035 0.930 . S
C1017 C1020 1.424 . S
C1017 C1022 1.245 . S
C1017 C1023 1.428 . S
C1018 C1021 1.260 . S
C1018 C1022 1.477 . S
C1018 H1036 0.932 . S
C1019 C1020 1.384 . S
C1019 C1021 1.479 . S
C1019 H1037 0.929 . S
C1020 C1017 1.424 . S
C1020 C1019 1.384 . S
C1020 H1038 0.928 . S
C1021 C1018 1.260 . S
C1021 C1019 1.479 . S
C1022 C1017 1.245 . S
C1022 C1018 1.477 . S
C1022 H1039 0.932 . S
C1023 U1006 2.882 . S
C1023 C1017 1.428 . S
C1023 O1026 1.301 . S
C1023 O1027 1.282 . S
O1024 U1006 2.441 . S
O1024 C1010 1.249 . S
O1025 U1006 2.420 . S
O1025 C1010 1.202 . S
O1026 U1006 2.455 . S
O1026 C1023 1.301 . S
O1027 U1006 2.449 . S
O1027 C1023 1.282 . S
H1028 C1001 0.931 . S
H1029 C1003 0.929 . S
H1030 C1004 0.930 . S
H1031 C1005 0.931 . S
H1032 C1012 0.932 . S
H1033 C1013 0.930 . S
H1034 C1014 0.929 . S
H1035 C1016 0.930 . S
H1036 C1018 0.932 . S
H1037 C1019 0.929 . S
H1038 C1020 0.928 . S
H1039 C1022 0.932 . S
C1040 C1041 1.264 . S
C1040 C1045 1.479 . S
C1040 C1050 1.465 . S
C1041 C1040 1.264 . S
C1041 C1043 1.339 . S
C1041 H1068 0.931 . S
C1042 C1043 1.395 . S
C1042 C1044 1.320 . S
C1043 C1041 1.339 . S
C1043 C1042 1.395 . S
C1043 H1069 0.929 . S
C1044 C1042 1.320 . S
C1044 C1045 1.405 . S
C1044 H1070 0.930 . S
C1045 C1040 1.479 . S
C1045 C1044 1.405 . S
C1045 H1071 0.931 . S
U1046 O1047 2.454 . S
U1046 O1048 2.458 . S
U1046 C1049 2.984 . S
U1046 C1050 2.847 . S
U1046 C1063 2.882 . S
U1046 O1064 2.441 . S
U1046 O1065 2.420 . S
U1046 O1066 2.455 . S
U1046 O1067 2.449 . S
O1047 U1046 2.454 . S
O1047 C1049 1.353 . S
O1048 U1046 2.458 . S
O1048 C1049 1.286 . S
C1049 U1046 2.984 . S
C1049 O1047 1.353 . S
C1049 O1048 1.286 . S
C1049 C1051 1.363 . S
C1050 C1040 1.465 . S
C1050 U1046 2.847 . S
C1050 O1064 1.249 . S
C1050 O1065 1.202 . S
C1051 C1049 1.363 . S
C1051 C1053 1.408 . S
C1051 C1056 1.342 . S
C1052 C1053 1.310 . S
C1052 C1055 1.461 . S
C1052 H1072 0.932 . S
C1053 C1051 1.408 . S
C1053 C1052 1.310 . S
C1053 H1073 0.930 . S
C1054 C1055 1.474 . S
C1054 C1056 1.285 . S
C1054 H1074 0.929 . S
C1055 C1052 1.461 . S
C1055 C1054 1.474 . S
C1056 C1051 1.342 . S
C1056 C1054 1.285 . S
C1056 H1075 0.930 . S
C1057 C1060 1.424 . S
C1057 C1062 1.245 . S
C1057 C1063 1.428 . S
C1058 C1061 1.260 . S
C1058 C1062 1.477 . S
C1058 H1076 0.932 . S
C1059 C1060 1.384 . S
C1059 C1061 1.479 . S
C1059 H1077 0.929 . S
C1060 C1057 1.424 . S
C1060 C1059 1.384 . S
C1060 H1078 0.928 . S
C1061 C1058 1.260 . S
C1061 C1059 1.479 . S
C1062 C1057 1.245 . S
C1062 C1058 1.477 . S
C1062 H1079 0.932 . S
C1063 U1046 2.882 . S
C1063 C1057 1.428 . S
C1063 O1066 1.301 . S
C1063 O1067 1.282 . S
O1064 U1046 2.441 . S
O1064 C1050 1.249 . S
O1065 U1046 2.420 . S
O1065 C1050 1.202 . S
O1066 U1046 2.455 . S
O1066 C1063 1.301 . S
O1067 U1046 2.449 . S
O1067 C1063 1.282 . S
H1068 C1041 0.931 . S
H1069 C1043 0.929 . S
H1070 C1044 0.930 . S
H1071 C1045 0.931 . S
H1072 C1052 0.932 . S
H1073 C1053 0.930 . S
H1074 C1054 0.929 . S
H1075 C1056 0.930 . S
H1076 C1058 0.932 . S
H1077 C1059 0.929 . S
H1078 C1060 0.928 . S
H1079 C1062 0.932 . S
C1080 C1081 1.264 . S
C1080 C1085 1.479 . S
C1080 C1090 1.465 . S
C1081 C1080 1.264 . S
C1081 C1083 1.339 . S
C1081 H1108 0.931 . S
C1082 C1083 1.395 . S
C1082 C1084 1.320 . S
C1083 C1081 1.339 . S
C1083 C1082 1.395 . S
C1083 H1109 0.929 . S
C1084 C1082 1.320 . S
C1084 C1085 1.405 . S
C1084 H1110 0.930 . S
C1085 C1080 1.479 . S
C1085 C1084 1.405 . S
C1085 H1111 0.931 . S
U1086 O1087 2.454 . S
U1086 O1088 2.458 . S
U1086 C1089 2.984 . S
U1086 C1090 2.847 . S
U1086 C1103 2.882 . S
U1086 O1104 2.441 . S
U1086 O1105 2.420 . S
U1086 O1106 2.455 . S
U1086 O1107 2.449 . S
O1087 U1086 2.454 . S
O1087 C1089 1.353 . S
O1088 U1086 2.458 . S
O1088 C1089 1.286 . S
C1089 U1086 2.984 . S
C1089 O1087 1.353 . S
C1089 O1088 1.286 . S
C1089 C1091 1.363 . S
C1090 C1080 1.465 . S
C1090 U1086 2.847 . S
C1090 O1104 1.249 . S
C1090 O1105 1.202 . S
C1091 C1089 1.363 . S
C1091 C1093 1.408 . S
C1091 C1096 1.342 . S
C1092 C1093 1.310 . S
C1092 C1095 1.461 . S
C1092 H1112 0.932 . S
C1093 C1091 1.408 . S
C1093 C1092 1.310 . S
C1093 H1113 0.930 . S
C1094 C1095 1.474 . S
C1094 C1096 1.285 . S
C1094 H1114 0.929 . S
C1095 C1092 1.461 . S
C1095 C1094 1.474 . S
C1096 C1091 1.342 . S
C1096 C1094 1.285 . S
C1096 H1115 0.930 . S
C1097 C1100 1.424 . S
C1097 C1102 1.245 . S
C1097 C1103 1.428 . S
C1098 C1101 1.260 . S
C1098 C1102 1.477 . S
C1098 H1116 0.932 . S
C1099 C1100 1.384 . S
C1099 C1101 1.479 . S
C1099 H1117 0.929 . S
C1100 C1097 1.424 . S
C1100 C1099 1.384 . S
C1100 H1118 0.928 . S
C1101 C1098 1.260 . S
C1101 C1099 1.479 . S
C1102 C1097 1.245 . S
C1102 C1098 1.477 . S
C1102 H1119 0.932 . S
C1103 U1086 2.882 . S
C1103 C1097 1.428 . S
C1103 O1106 1.301 . S
C1103 O1107 1.282 . S
O1104 U1086 2.441 . S
O1104 C1090 1.249 . S
O1105 U1086 2.420 . S
O1105 C1090 1.202 . S
O1106 U1086 2.455 . S
O1106 C1103 1.301 . S
O1107 U1086 2.449 . S
O1107 C1103 1.282 . S
H1108 C1081 0.931 . S
H1109 C1083 0.929 . S
H1110 C1084 0.930 . S
H1111 C1085 0.931 . S
H1112 C1092 0.932 . S
H1113 C1093 0.930 . S
H1114 C1094 0.929 . S
H1115 C1096 0.930 . S
H1116 C1098 0.932 . S
H1117 C1099 0.929 . S
H1118 C1100 0.928 . S
H1119 C1102 0.932 . S
C1120 C1121 1.264 . S
C1120 C1125 1.479 . S
C1120 C1130 1.465 . S
C1121 C1120 1.264 . S
C1121 C1123 1.339 . S
C1121 H1148 0.931 . S
C1122 C1123 1.395 . S
C1122 C1124 1.320 . S
C1123 C1121 1.339 . S
C1123 C1122 1.395 . S
C1123 H1149 0.929 . S
C1124 C1122 1.320 . S
C1124 C1125 1.405 . S
C1124 H1150 0.930 . S
C1125 C1120 1.479 . S
C1125 C1124 1.405 . S
C1125 H1151 0.931 . S
U1126 O1127 2.454 . S
U1126 O1128 2.458 . S
U1126 C1129 2.984 . S
U1126 C1130 2.847 . S
U1126 C1143 2.882 . S
U1126 O1144 2.441 . S
U1126 O1145 2.420 . S
U1126 O1146 2.455 . S
U1126 O1147 2.449 . S
O1127 U1126 2.454 . S
O1127 C1129 1.353 . S
O1128 U1126 2.458 . S
O1128 C1129 1.286 . S
C1129 U1126 2.984 . S
C1129 O1127 1.353 . S
C1129 O1128 1.286 . S
C1129 C1131 1.363 . S
C1130 C1120 1.465 . S
C1130 U1126 2.847 . S
C1130 O1144 1.249 . S
C1130 O1145 1.202 . S
C1131 C1129 1.363 . S
C1131 C1133 1.408 . S
C1131 C1136 1.342 . S
C1132 C1133 1.310 . S
C1132 C1135 1.461 . S
C1132 H1152 0.932 . S
C1133 C1131 1.408 . S
C1133 C1132 1.310 . S
C1133 H1153 0.930 . S
C1134 C1135 1.474 . S
C1134 C1136 1.285 . S
C1134 H1154 0.929 . S
C1135 C1132 1.461 . S
C1135 C1134 1.474 . S
C1136 C1131 1.342 . S
C1136 C1134 1.285 . S
C1136 H1155 0.930 . S
C1137 C1140 1.424 . S
C1137 C1142 1.245 . S
C1137 C1143 1.428 . S
C1138 C1141 1.260 . S
C1138 C1142 1.477 . S
C1138 H1156 0.932 . S
C1139 C1140 1.384 . S
C1139 C1141 1.479 . S
C1139 H1157 0.929 . S
C1140 C1137 1.424 . S
C1140 C1139 1.384 . S
C1140 H1158 0.928 . S
C1141 C1138 1.260 . S
C1141 C1139 1.479 . S
C1142 C1137 1.245 . S
C1142 C1138 1.477 . S
C1142 H1159 0.932 . S
C1143 U1126 2.882 . S
C1143 C1137 1.428 . S
C1143 O1146 1.301 . S
C1143 O1147 1.282 . S
O1144 U1126 2.441 . S
O1144 C1130 1.249 . S
O1145 U1126 2.420 . S
O1145 C1130 1.202 . S
O1146 U1126 2.455 . S
O1146 C1143 1.301 . S
O1147 U1126 2.449 . S
O1147 C1143 1.282 . S
H1148 C1121 0.931 . S
H1149 C1123 0.929 . S
H1150 C1124 0.930 . S
H1151 C1125 0.931 . S
H1152 C1132 0.932 . S
H1153 C1133 0.930 . S
H1154 C1134 0.929 . S
H1155 C1136 0.930 . S
H1156 C1138 0.932 . S
H1157 C1139 0.929 . S
H1158 C1140 0.928 . S
H1159 C1142 0.932 . S
C1160 C1161 1.264 . S
C1160 C1165 1.479 . S
C1160 C1170 1.465 . S
C1161 C1160 1.264 . S
C1161 C1163 1.339 . S
C1161 H1188 0.931 . S
C1162 C1163 1.395 . S
C1162 C1164 1.320 . S
C1163 C1161 1.339 . S
C1163 C1162 1.395 . S
C1163 H1189 0.929 . S
C1164 C1162 1.320 . S
C1164 C1165 1.405 . S
C1164 H1190 0.930 . S
C1165 C1160 1.479 . S
C1165 C1164 1.405 . S
C1165 H1191 0.931 . S
U1166 O1167 2.454 . S
U1166 O1168 2.458 . S
U1166 C1169 2.984 . S
U1166 C1170 2.847 . S
U1166 C1183 2.882 . S
U1166 O1184 2.441 . S
U1166 O1185 2.420 . S
U1166 O1186 2.455 . S
U1166 O1187 2.449 . S
O1167 U1166 2.454 . S
O1167 C1169 1.353 . S
O1168 U1166 2.458 . S
O1168 C1169 1.286 . S
C1169 U1166 2.984 . S
C1169 O1167 1.353 . S
C1169 O1168 1.286 . S
C1169 C1171 1.363 . S
C1170 C1160 1.465 . S
C1170 U1166 2.847 . S
C1170 O1184 1.249 . S
C1170 O1185 1.202 . S
C1171 C1169 1.363 . S
C1171 C1173 1.408 . S
C1171 C1176 1.342 . S
C1172 C1173 1.310 . S
C1172 C1175 1.461 . S
C1172 H1192 0.932 . S
C1173 C1171 1.408 . S
C1173 C1172 1.310 . S
C1173 H1193 0.930 . S
C1174 C1175 1.474 . S
C1174 C1176 1.285 . S
C1174 H1194 0.929 . S
C1175 C1172 1.461 . S
C1175 C1174 1.474 . S
C1176 C1171 1.342 . S
C1176 C1174 1.285 . S
C1176 H1195 0.930 . S
C1177 C1180 1.424 . S
C1177 C1182 1.245 . S
C1177 C1183 1.428 . S
C1178 C1181 1.260 . S
C1178 C1182 1.477 . S
C1178 H1196 0.932 . S
C1179 C1180 1.384 . S
C1179 C1181 1.479 . S
C1179 H1197 0.929 . S
C1180 C1177 1.424 . S
C1180 C1179 1.384 . S
C1180 H1198 0.928 . S
C1181 C1178 1.260 . S
C1181 C1179 1.479 . S
C1182 C1177 1.245 . S
C1182 C1178 1.477 . S
C1182 H1199 0.932 . S
C1183 U1166 2.882 . S
C1183 C1177 1.428 . S
C1183 O1186 1.301 . S
C1183 O1187 1.282 . S
O1184 U1166 2.441 . S
O1184 C1170 1.249 . S
O1185 U1166 2.420 . S
O1185 C1170 1.202 . S
O1186 U1166 2.455 . S
O1186 C1183 1.301 . S
O1187 U1166 2.449 . S
O1187 C1183 1.282 . S
H1188 C1161 0.931 . S
H1189 C1163 0.929 . S
H1190 C1164 0.930 . S
H1191 C1165 0.931 . S
H1192 C1172 0.932 . S
H1193 C1173 0.930 . S
H1194 C1174 0.929 . S
H1195 C1176 0.930 . S
H1196 C1178 0.932 . S
H1197 C1179 0.929 . S
H1198 C1180 0.928 . S
H1199 C1182 0.932 . S
C1200 C1201 1.264 . S
C1200 C1205 1.479 . S
C1200 C1210 1.465 . S
C1201 C1200 1.264 . S
C1201 C1203 1.339 . S
C1201 H1228 0.931 . S
C1202 C1203 1.395 . S
C1202 C1204 1.320 . S
C1203 C1201 1.339 . S
C1203 C1202 1.395 . S
C1203 H1229 0.929 . S
C1204 C1202 1.320 . S
C1204 C1205 1.405 . S
C1204 H1230 0.930 . S
C1205 C1200 1.479 . S
C1205 C1204 1.405 . S
C1205 H1231 0.931 . S
U1206 O1207 2.454 . S
U1206 O1208 2.458 . S
U1206 C1209 2.984 . S
U1206 C1210 2.847 . S
U1206 C1223 2.882 . S
U1206 O1224 2.441 . S
U1206 O1225 2.420 . S
U1206 O1226 2.455 . S
U1206 O1227 2.449 . S
O1207 U1206 2.454 . S
O1207 C1209 1.353 . S
O1208 U1206 2.458 . S
O1208 C1209 1.286 . S
C1209 U1206 2.984 . S
C1209 O1207 1.353 . S
C1209 O1208 1.286 . S
C1209 C1211 1.363 . S
C1210 C1200 1.465 . S
C1210 U1206 2.847 . S
C1210 O1224 1.249 . S
C1210 O1225 1.202 . S
C1211 C1209 1.363 . S
C1211 C1213 1.408 . S
C1211 C1216 1.342 . S
C1212 C1213 1.310 . S
C1212 C1215 1.461 . S
C1212 H1232 0.932 . S
C1213 C1211 1.408 . S
C1213 C1212 1.310 . S
C1213 H1233 0.930 . S
C1214 C1215 1.474 . S
C1214 C1216 1.285 . S
C1214 H1234 0.929 . S
C1215 C1212 1.461 . S
C1215 C1214 1.474 . S
C1216 C1211 1.342 . S
C1216 C1214 1.285 . S
C1216 H1235 0.930 . S
C1217 C1220 1.424 . S
C1217 C1222 1.245 . S
C1217 C1223 1.428 . S
C1218 C1221 1.260 . S
C1218 C1222 1.477 . S
C1218 H1236 0.932 . S
C1219 C1220 1.384 . S
C1219 C1221 1.479 . S
C1219 H1237 0.929 . S
C1220 C1217 1.424 . S
C1220 C1219 1.384 . S
C1220 H1238 0.928 . S
C1221 C1218 1.260 . S
C1221 C1219 1.479 . S
C1222 C1217 1.245 . S
C1222 C1218 1.477 . S
C1222 H1239 0.932 . S
C1223 U1206 2.882 . S
C1223 C1217 1.428 . S
C1223 O1226 1.301 . S
C1223 O1227 1.282 . S
O1224 U1206 2.441 . S
O1224 C1210 1.249 . S
O1225 U1206 2.420 . S
O1225 C1210 1.202 . S
O1226 U1206 2.455 . S
O1226 C1223 1.301 . S
O1227 U1206 2.449 . S
O1227 C1223 1.282 . S
H1228 C1201 0.931 . S
H1229 C1203 0.929 . S
H1230 C1204 0.930 . S
H1231 C1205 0.931 . S
H1232 C1212 0.932 . S
H1233 C1213 0.930 . S
H1234 C1214 0.929 . S
H1235 C1216 0.930 . S
H1236 C1218 0.932 . S
H1237 C1219 0.929 . S
H1238 C1220 0.928 . S
H1239 C1222 0.932 . S
C1240 C1241 1.264 . S
C1240 C1245 1.479 . S
C1240 C1250 1.465 . S
C1241 C1240 1.264 . S
C1241 C1243 1.339 . S
C1241 H1268 0.931 . S
C1242 C1243 1.395 . S
C1242 C1244 1.320 . S
C1243 C1241 1.339 . S
C1243 C1242 1.395 . S
C1243 H1269 0.929 . S
C1244 C1242 1.320 . S
C1244 C1245 1.405 . S
C1244 H1270 0.930 . S
C1245 C1240 1.479 . S
C1245 C1244 1.405 . S
C1245 H1271 0.931 . S
U1246 O1247 2.454 . S
U1246 O1248 2.458 . S
U1246 C1249 2.984 . S
U1246 C1250 2.847 . S
U1246 C1263 2.882 . S
U1246 O1264 2.441 . S
U1246 O1265 2.420 . S
U1246 O1266 2.455 . S
U1246 O1267 2.449 . S
O1247 U1246 2.454 . S
O1247 C1249 1.353 . S
O1248 U1246 2.458 . S
O1248 C1249 1.286 . S
C1249 U1246 2.984 . S
C1249 O1247 1.353 . S
C1249 O1248 1.286 . S
C1249 C1251 1.363 . S
C1250 C1240 1.465 . S
C1250 U1246 2.847 . S
C1250 O1264 1.249 . S
C1250 O1265 1.202 . S
C1251 C1249 1.363 . S
C1251 C1253 1.408 . S
C1251 C1256 1.342 . S
C1252 C1253 1.310 . S
C1252 C1255 1.461 . S
C1252 H1272 0.932 . S
C1253 C1251 1.408 . S
C1253 C1252 1.310 . S
C1253 H1273 0.930 . S
C1254 C1255 1.474 . S
C1254 C1256 1.285 . S
C1254 H1274 0.929 . S
C1255 C1252 1.461 . S
C1255 C1254 1.474 . S
C1256 C1251 1.342 . S
C1256 C1254 1.285 . S
C1256 H1275 0.930 . S
C1257 C1260 1.424 . S
C1257 C1262 1.245 . S
C1257 C1263 1.428 . S
C1258 C1261 1.260 . S
C1258 C1262 1.477 . S
C1258 H1276 0.932 . S
C1259 C1260 1.384 . S
C1259 C1261 1.479 . S
C1259 H1277 0.929 . S
C1260 C1257 1.424 . S
C1260 C1259 1.384 . S
C1260 H1278 0.928 . S
C1261 C1258 1.260 . S
C1261 C1259 1.479 . S
C1262 C1257 1.245 . S
C1262 C1258 1.477 . S
C1262 H1279 0.932 . S
C1263 U1246 2.882 . S
C1263 C1257 1.428 . S
C1263 O1266 1.301 . S
C1263 O1267 1.282 . S
O1264 U1246 2.441 . S
O1264 C1250 1.249 . S
O1265 U1246 2.420 . S
O1265 C1250 1.202 . S
O1266 U1246 2.455 . S
O1266 C1263 1.301 . S
O1267 U1246 2.449 . S
O1267 C1263 1.282 . S
H1268 C1241 0.931 . S
H1269 C1243 0.929 . S
H1270 C1244 0.930 . S
H1271 C1245 0.931 . S
H1272 C1252 0.932 . S
H1273 C1253 0.930 . S
H1274 C1254 0.929 . S
H1275 C1256 0.930 . S
H1276 C1258 0.932 . S
H1277 C1259 0.929 . S
H1278 C1260 0.928 . S
H1279 C1262 0.932 . S
Cu1280 N1281 1.999 . S
Cu1280 O1286 1.974 1_554 S
Cu1280 N1291 1.985 . S
Cu1280 O1300 1.959 . S
N1281 Cu1280 1.999 . S
N1281 C1283 1.263 1_554 S
N1281 C1285 1.389 . S
N1282 C1283 1.358 . S
N1282 C1284 1.400 . S
C1283 N1281 1.263 1_556 S
C1283 N1282 1.358 . S
C1283 H1289 0.930 . S
C1284 N1282 1.400 . S
C1284 C1285 1.351 1_556 S
C1284 H1301 0.930 . S
C1285 N1281 1.389 . S
C1285 C1284 1.351 1_554 S
C1285 H1290 0.930 . S
O1286 Cu1280 1.974 1_556 S
O1286 C1296 1.282 . S
C1287 O1288 1.261 . S
C1287 O1300 1.251 . S
O1288 C1287 1.261 . S
H1289 C1283 0.930 . S
H1290 C1285 0.930 . S
N1291 Cu1280 1.985 . S
N1291 C1293 1.335 . S
N1291 C1294 1.390 . S
N1292 C1293 1.345 . S
N1292 C1295 1.336 . S
C1293 N1291 1.335 . S
C1293 N1292 1.345 . S
C1293 H1298 0.930 . S
C1294 N1291 1.390 . S
C1294 C1295 1.346 . S
C1294 H1299 0.930 . S
C1295 N1292 1.336 . S
C1295 C1294 1.346 . S
C1295 H1302 0.929 . S
C1296 O1286 1.282 . S
C1296 O1297 1.216 . S
O1297 C1296 1.216 . S
H1298 C1293 0.930 . S
H1299 C1294 0.930 . S
O1300 Cu1280 1.959 . S
O1300 C1287 1.251 . S
H1301 C1284 0.930 . S
H1302 C1295 0.929 . S
Cu1303 N1304 1.999 . S
Cu1303 O1309 1.974 . S
Cu1303 N1314 1.985 1_554 S
Cu1303 O1323 1.959 1_554 S
N1304 Cu1303 1.999 . S
N1304 C1306 1.263 . S
N1304 C1308 1.389 . S
N1305 C1306 1.358 . S
N1305 C1307 1.400 . S
C1306 N1304 1.263 . S
C1306 N1305 1.358 . S
C1306 H1312 0.930 . S
C1307 N1305 1.400 . S
C1307 C1308 1.351 . S
C1307 H1324 0.930 . S
C1308 N1304 1.389 . S
C1308 C1307 1.351 . S
C1308 H1313 0.930 . S
O1309 Cu1303 1.974 . S
O1309 C1319 1.282 . S
C1310 O1311 1.261 . S
C1310 O1323 1.251 . S
O1311 C1310 1.261 . S
H1312 C1306 0.930 . S
H1313 C1308 0.930 . S
N1314 Cu1303 1.985 1_556 S
N1314 C1316 1.335 . S
N1314 C1317 1.387 1_556 S
N1315 C1316 1.345 . S
N1315 C1318 1.336 . S
C1316 N1314 1.335 . S
C1316 N1315 1.345 . S
C1316 H1321 0.930 . S
C1317 N1314 1.387 1_554 S
C1317 C1318 1.333 1_554 S
C1317 H1322 0.944 . S
C1318 N1315 1.336 . S
C1318 C1317 1.333 1_556 S
C1318 H1325 0.929 . S
C1319 O1309 1.282 . S
C1319 O1320 1.216 . S
O1320 C1319 1.216 . S
H1321 C1316 0.930 . S
H1322 C1317 0.944 . S
O1323 Cu1303 1.959 1_556 S
O1323 C1310 1.251 . S
H1324 C1307 0.930 . S
H1325 C1318 0.929 . S
Cu1326 N1327 1.960 1_554 S
Cu1326 O1332 1.925 1_554 S
Cu1326 N1337 2.024 . S
Cu1326 O1346 2.007 . S
N1327 Cu1326 1.960 1_556 S
N1327 C1329 1.263 . S
N1327 C1331 1.389 . S
N1328 C1329 1.358 . S
N1328 C1330 1.400 . S
C1329 N1327 1.263 . S
C1329 N1328 1.358 . S
C1329 H1335 0.930 . S
C1330 N1328 1.400 . S
C1330 C1331 1.351 . S
C1330 H1347 0.930 . S
C1331 N1327 1.389 . S
C1331 C1330 1.351 . S
C1331 H1336 0.930 . S
O1332 Cu1326 1.925 1_556 S
O1332 C1342 1.282 . S
C1333 O1334 1.261 . S
C1333 O1346 1.251 . S
O1334 C1333 1.261 . S
H1335 C1329 0.930 . S
H1336 C1331 0.930 . S
N1337 Cu1326 2.024 . S
N1337 C1339 1.335 . S
N1337 C1340 1.390 . S
N1338 C1339 1.345 . S
N1338 C1341 1.336 . S
C1339 N1337 1.335 . S
C1339 N1338 1.345 . S
C1339 H1344 0.930 . S
C1340 N1337 1.390 . S
C1340 C1341 1.346 . S
C1340 H1345 0.994 . S
C1341 N1338 1.336 . S
C1341 C1340 1.346 . S
C1341 H1348 0.929 . S
C1342 O1332 1.282 . S
C1342 O1343 1.216 . S
O1343 C1342 1.216 . S
H1344 C1339 0.930 . S
H1345 C1340 0.994 . S
O1346 Cu1326 2.007 . S
O1346 C1333 1.251 . S
H1347 C1330 0.930 . S
H1348 C1341 0.929 . S
Cu1349 N1350 1.999 . S
Cu1349 O1355 1.974 . S
Cu1349 N1360 1.985 1_554 S
Cu1349 O1369 1.959 1_554 S
N1350 Cu1349 1.999 . S
N1350 C1352 1.263 . S
N1350 C1354 1.389 . S
N1351 C1352 1.358 . S
N1351 C1353 1.400 . S
C1352 N1350 1.263 . S
C1352 N1351 1.358 . S
C1352 H1358 0.930 . S
C1353 N1351 1.400 . S
C1353 C1354 1.351 . S
C1353 H1370 0.930 . S
C1354 N1350 1.389 . S
C1354 C1353 1.351 . S
C1354 H1359 0.930 . S
O1355 Cu1349 1.974 . S
O1355 C1365 1.282 . S
C1356 O1357 1.261 . S
C1356 O1369 1.251 . S
O1357 C1356 1.261 . S
H1358 C1352 0.930 . S
H1359 C1354 0.930 . S
N1360 Cu1349 1.985 1_556 S
N1360 C1362 1.335 . S
N1360 C1363 1.390 . S
N1361 C1362 1.345 . S
N1361 C1364 1.336 . S
C1362 N1360 1.335 . S
C1362 N1361 1.345 . S
C1362 H1367 0.930 . S
C1363 N1360 1.390 . S
C1363 C1364 1.346 . S
C1363 H1368 0.930 1_556 S
C1364 N1361 1.336 . S
C1364 C1363 1.346 . S
C1364 H1371 0.929 . S
C1365 O1355 1.282 . S
C1365 O1366 1.216 . S
O1366 C1365 1.216 . S
H1367 C1362 0.930 . S
H1368 C1363 0.930 1_554 S
O1369 Cu1349 1.959 1_556 S
O1369 C1356 1.251 . S
H1370 C1353 0.930 . S
H1371 C1364 0.929 . S
Cu1372 N1373 1.999 . S
Cu1372 O1378 1.974 . S
Cu1372 N1383 1.920 1_455 S
Cu1372 O1392 1.959 1_455 S
N1373 Cu1372 1.999 . S
N1373 C1375 1.263 . S
N1373 C1377 1.389 . S
N1374 C1375 1.358 . S
N1374 C1376 1.400 . S
C1375 N1373 1.263 . S
C1375 N1374 1.358 . S
C1375 H1381 0.930 . S
C1376 N1374 1.400 . S
C1376 C1377 1.351 . S
C1376 H1393 0.930 . S
C1377 N1373 1.389 . S
C1377 C1376 1.351 . S
C1377 H1382 0.930 . S
O1378 Cu1372 1.974 . S
O1378 C1388 1.282 . S
C1379 O1380 1.261 . S
C1379 O1392 1.251 . S
O1380 C1379 1.261 . S
H1381 C1375 0.930 . S
H1382 C1377 0.930 . S
N1383 Cu1372 1.920 1_655 S
N1383 C1385 1.435 . S
N1383 C1386 1.374 1_655 S
N1384 C1385 1.345 . S
N1384 C1387 1.336 . S
C1385 N1383 1.435 . S
C1385 N1384 1.345 . S
C1385 H1390 0.930 . S
C1386 N1383 1.374 1_455 S
C1386 C1387 1.346 1_455 S
C1386 H1391 0.930 . S
C1387 N1384 1.336 . S
C1387 C1386 1.346 1_655 S
C1387 H1394 0.929 . S
C1388 O1378 1.282 . S
C1388 O1389 1.216 . S
O1389 C1388 1.216 . S
H1390 C1385 0.930 . S
H1391 C1386 0.930 . S
O1392 Cu1372 1.959 1_655 S
O1392 C1379 1.251 . S
H1393 C1376 0.930 . S
H1394 C1387 0.929 . S
Cu1395 N1396 1.999 . S
Cu1395 O1401 1.974 . S
Cu1395 N1406 1.985 1_545 S
Cu1395 O1415 1.959 1_545 S
N1396 Cu1395 1.999 . S
N1396 C1398 1.263 . S
N1396 C1400 1.389 . S
N1397 C1398 1.358 . S
N1397 C1399 1.400 . S
C1398 N1396 1.263 . S
C1398 N1397 1.358 . S
C1398 H1404 0.930 . S
C1399 N1397 1.400 . S
C1399 C1400 1.351 . S
C1399 H1416 0.930 . S
C1400 N1396 1.389 . S
C1400 C1399 1.351 . S
C1400 H1405 0.930 . S
O1401 Cu1395 1.974 . S
O1401 C1411 1.282 . S
C1402 O1403 1.261 . S
C1402 O1415 1.251 . S
O1403 C1402 1.261 . S
H1404 C1398 0.930 . S
H1405 C1400 0.930 . S
N1406 Cu1395 1.985 1_565 S
N1406 C1408 1.335 . S
N1406 C1409 1.390 . S
N1407 C1408 1.345 . S
N1407 C1410 1.336 . S
C1408 N1406 1.335 . S
C1408 N1407 1.345 . S
C1408 H1413 0.930 . S
C1409 N1406 1.390 . S
C1409 C1410 1.346 . S
C1409 H1414 0.930 1_565 S
C1410 N1407 1.336 . S
C1410 C1409 1.346 . S
C1410 H1417 0.929 . S
C1411 O1401 1.282 . S
C1411 O1412 1.216 . S
O1412 C1411 1.216 . S
H1413 C1408 0.930 . S
H1414 C1409 0.930 1_545 S
O1415 Cu1395 1.959 1_565 S
O1415 C1402 1.251 . S
H1416 C1399 0.930 . S
H1417 C1410 0.929 . S
Cu1418 N1419 2.005 1_455 S
Cu1418 O1424 1.981 1_455 S
Cu1418 N1429 1.979 . S
Cu1418 O1438 1.952 . S
N1419 Cu1418 2.005 1_655 S
N1419 C1421 1.263 . S
N1419 C1423 1.389 . S
N1420 C1421 1.358 . S
N1420 C1422 1.400 . S
C1421 N1419 1.263 . S
C1421 N1420 1.358 . S
C1421 H1427 0.930 . S
C1422 N1420 1.400 . S
C1422 C1423 1.351 . S
C1422 H1439 0.930 . S
C1423 N1419 1.389 . S
C1423 C1422 1.351 . S
C1423 H1428 0.930 . S
O1424 Cu1418 1.981 1_655 S
O1424 C1434 1.282 . S
C1425 O1426 1.261 . S
C1425 O1438 1.251 . S
O1426 C1425 1.261 . S
H1427 C1421 0.930 . S
H1428 C1423 0.930 . S
N1429 Cu1418 1.979 . S
N1429 C1431 1.335 . S
N1429 C1432 1.390 . S
N1430 C1431 1.345 . S
N1430 C1433 1.336 . S
C1431 N1429 1.335 . S
C1431 N1430 1.345 . S
C1431 H1436 0.930 . S
C1432 N1429 1.390 . S
C1432 C1433 1.346 . S
C1432 H1437 0.930 . S
C1433 N1430 1.336 . S
C1433 C1432 1.346 . S
C1433 H1440 0.929 . S
C1434 O1424 1.282 . S
C1434 O1435 1.216 . S
O1435 C1434 1.216 . S
H1436 C1431 0.930 . S
H1437 C1432 0.930 . S
O1438 Cu1418 1.952 . S
O1438 C1425 1.251 . S
H1439 C1422 0.930 . S
H1440 C1433 0.929 . S
Cu1441 N1442 2.000 1_565 S
Cu1441 O1447 1.974 1_565 S
Cu1441 N1452 1.984 . S
Cu1441 O1461 1.959 . S
N1442 Cu1441 2.000 1_545 S
N1442 C1444 1.263 . S
N1442 C1446 1.389 . S
N1443 C1444 1.358 . S
N1443 C1445 1.400 . S
C1444 N1442 1.263 . S
C1444 N1443 1.358 . S
C1444 H1450 0.930 . S
C1445 N1443 1.400 . S
C1445 C1446 1.351 . S
C1445 H1462 0.930 . S
C1446 N1442 1.389 . S
C1446 C1445 1.351 . S
C1446 H1451 0.930 . S
O1447 Cu1441 1.974 1_545 S
O1447 C1457 1.282 . S
C1448 O1449 1.261 . S
C1448 O1461 1.251 . S
O1449 C1448 1.261 . S
H1450 C1444 0.930 . S
H1451 C1446 0.930 . S
N1452 Cu1441 1.984 . S
N1452 C1454 1.335 . S
N1452 C1455 1.390 . S
N1453 C1454 1.345 . S
N1453 C1456 1.336 . S
C1454 N1452 1.335 . S
C1454 N1453 1.345 . S
C1454 H1459 0.930 . S
C1455 N1452 1.390 . S
C1455 C1456 1.346 . S
C1455 H1460 0.930 . S
C1456 N1453 1.336 . S
C1456 C1455 1.346 . S
C1456 H1463 0.929 . S
C1457 O1447 1.282 . S
C1457 O1458 1.216 . S
O1458 C1457 1.216 . S
H1459 C1454 0.930 . S
H1460 C1455 0.930 . S
O1461 Cu1441 1.959 . S
O1461 C1448 1.251 . S
H1462 C1445 0.930 . S
H1463 C1456 0.929 . S
Cu1464 N1465 1.999 . S
Cu1464 O1470 1.974 . S
Cu1464 N1475 1.985 1_455 S
Cu1464 O1484 1.959 1_455 S
N1465 Cu1464 1.999 . S
N1465 C1467 1.263 . S
N1465 C1469 1.389 . S
N1466 C1467 1.358 . S
N1466 C1468 1.400 . S
C1467 N1465 1.263 . S
C1467 N1466 1.358 . S
C1467 H1473 0.930 . S
C1468 N1466 1.400 . S
C1468 C1469 1.351 . S
C1468 H1485 0.930 . S
C1469 N1465 1.389 . S
C1469 C1468 1.351 . S
C1469 H1474 0.930 . S
O1470 Cu1464 1.974 . S
O1470 C1480 1.282 . S
C1471 O1472 1.261 . S
C1471 O1484 1.251 . S
O1472 C1471 1.261 . S
H1473 C1467 0.930 . S
H1474 C1469 0.930 . S
N1475 Cu1464 1.985 1_655 S
N1475 C1477 1.335 . S
N1475 C1478 1.390 1_655 S
N1476 C1477 1.345 . S
N1476 C1479 1.336 . S
C1477 N1475 1.335 . S
C1477 N1476 1.345 . S
C1477 H1482 0.930 . S
C1478 N1475 1.390 1_455 S
C1478 C1479 1.346 1_455 S
C1478 H1483 0.930 . S
C1479 N1476 1.336 . S
C1479 C1478 1.346 1_655 S
C1479 H1486 0.929 . S
C1480 O1470 1.282 . S
C1480 O1481 1.216 . S
O1481 C1480 1.216 . S
H1482 C1477 0.930 . S
H1483 C1478 0.930 . S
O1484 Cu1464 1.959 1_655 S
O1484 C1471 1.251 . S
H1485 C1468 0.930 . S
H1486 C1479 0.929 . S
Cu1487 N1488 1.999 . S
Cu1487 O1493 1.974 . S
Cu1487 N1498 1.985 1_545 S
Cu1487 O1507 1.959 1_545 S
N1488 Cu1487 1.999 . S
N1488 C1490 1.263 . S
N1488 C1492 1.389 . S
N1489 C1490 1.358 . S
N1489 C1491 1.400 . S
C1490 N1488 1.263 . S
C1490 N1489 1.358 . S
C1490 H1496 0.930 . S
C1491 N1489 1.400 . S
C1491 C1492 1.351 . S
C1491 H1508 0.930 . S
C1492 N1488 1.389 . S
C1492 C1491 1.351 . S
C1492 H1497 0.930 . S
O1493 Cu1487 1.974 . S
O1493 C1503 1.282 . S
C1494 O1495 1.261 . S
C1494 O1507 1.251 . S
O1495 C1494 1.261 . S
H1496 C1490 0.930 . S
H1497 C1492 0.930 . S
N1498 Cu1487 1.985 1_565 S
N1498 C1500 1.335 . S
N1498 C1501 1.397 . S
N1499 C1500 1.345 . S
N1499 C1502 1.336 . S
C1500 N1498 1.335 . S
C1500 N1499 1.345 . S
C1500 H1505 0.930 . S
C1501 N1498 1.397 . S
C1501 C1502 1.375 . S
C1501 H1506 0.901 1_565 S
C1502 N1499 1.336 . S
C1502 C1501 1.375 . S
C1502 H1509 0.929 . S
C1503 O1493 1.282 . S
C1503 O1504 1.216 . S
O1504 C1503 1.216 . S
H1505 C1500 0.930 . S
H1506 C1501 0.901 1_545 S
O1507 Cu1487 1.959 1_565 S
O1507 C1494 1.251 . S
H1508 C1491 0.930 . S
H1509 C1502 0.929 . S
Cu1510 N1511 1.999 . S
Cu1510 O1516 1.974 . S
Cu1510 N1521 1.985 . S
Cu1510 O1530 1.959 . S
N1511 Cu1510 1.999 . S
N1511 C1513 1.263 1_455 S
N1511 C1515 1.389 . S
N1512 C1513 1.358 . S
N1512 C1514 1.400 . S
C1513 N1511 1.263 1_655 S
C1513 N1512 1.358 . S
C1513 H1519 0.930 . S
C1514 N1512 1.400 . S
C1514 C1515 1.351 1_655 S
C1514 H1531 0.930 . S
C1515 N1511 1.389 . S
C1515 C1514 1.351 1_455 S
C1515 H1520 0.930 . S
O1516 Cu1510 1.974 . S
O1516 C1526 1.282 1_455 S
C1517 O1518 1.261 . S
C1517 O1530 1.251 . S
O1518 C1517 1.261 . S
H1519 C1513 0.930 . S
H1520 C1515 0.930 . S
N1521 Cu1510 1.985 . S
N1521 C1523 1.335 . S
N1521 C1524 1.390 . S
N1522 C1523 1.345 . S
N1522 C1525 1.336 . S
C1523 N1521 1.335 . S
C1523 N1522 1.345 . S
C1523 H1528 0.930 . S
C1524 N1521 1.390 . S
C1524 C1525 1.346 . S
C1524 H1529 0.930 . S
C1525 N1522 1.336 . S
C1525 C1524 1.346 . S
C1525 H1532 0.929 . S
C1526 O1516 1.282 1_655 S
C1526 O1527 1.216 1_655 S
O1527 C1526 1.216 1_455 S
H1528 C1523 0.930 . S
H1529 C1524 0.930 . S
O1530 Cu1510 1.959 . S
O1530 C1517 1.251 . S
H1531 C1514 0.930 . S
H1532 C1525 0.929 . S
Cu1533 N1534 1.999 . S
Cu1533 O1539 1.974 . S
Cu1533 N1544 2.026 . S
Cu1533 O1553 1.959 1_545 S
N1534 Cu1533 1.999 . S
N1534 C1536 1.263 . S
N1534 C1538 1.389 . S
N1535 C1536 1.358 . S
N1535 C1537 1.400 . S
C1536 N1534 1.263 . S
C1536 N1535 1.358 . S
C1536 H1542 0.930 . S
C1537 N1535 1.400 . S
C1537 C1538 1.351 . S
C1537 H1554 0.930 . S
C1538 N1534 1.389 . S
C1538 C1537 1.351 . S
C1538 H1543 0.930 . S
O1539 Cu1533 1.974 . S
O1539 C1549 1.282 . S
C1540 O1541 1.257 . S
C1540 O1553 1.251 . S
O1541 C1540 1.257 . S
H1542 C1536 0.930 . S
H1543 C1538 0.930 . S
N1544 Cu1533 2.026 . S
N1544 C1546 1.272 1_545 S
N1544 C1547 1.406 . S
N1545 C1546 1.345 . S
N1545 C1548 1.336 . S
C1546 N1544 1.272 1_565 S
C1546 N1545 1.345 . S
C1546 H1551 0.930 . S
C1547 N1544 1.406 . S
C1547 C1548 1.346 1_545 S
C1547 H1552 0.930 . S
C1548 N1545 1.336 . S
C1548 C1547 1.346 1_565 S
C1548 H1555 0.929 . S
C1549 O1539 1.282 . S
C1549 O1550 1.216 . S
O1550 C1549 1.216 . S
H1551 C1546 0.930 . S
H1552 C1547 0.930 . S
O1553 Cu1533 1.959 1_565 S
O1553 C1540 1.251 . S
H1554 C1537 0.930 . S
H1555 C1548 0.929 . S
Cu1556 N1557 1.999 . S
Cu1556 O1562 1.974 . S
Cu1556 N1567 1.985 . S
Cu1556 O1576 1.959 . S
N1557 Cu1556 1.999 . S
N1557 C1559 1.263 . S
N1557 C1561 1.389 . S
N1558 C1559 1.358 . S
N1558 C1560 1.400 . S
C1559 N1557 1.263 . S
C1559 N1558 1.358 . S
C1559 H1565 0.930 . S
C1560 N1558 1.400 . S
C1560 C1561 1.351 . S
C1560 H1577 0.930 . S
C1561 N1557 1.389 . S
C1561 C1560 1.351 . S
C1561 H1566 0.930 . S
O1562 Cu1556 1.974 . S
O1562 C1572 1.282 . S
C1563 O1564 1.261 . S
C1563 O1576 1.251 . S
O1564 C1563 1.261 . S
H1565 C1559 0.930 . S
H1566 C1561 0.930 . S
N1567 Cu1556 1.985 . S
N1567 C1569 1.335 . S
N1567 C1570 1.390 . S
N1568 C1569 1.345 . S
N1568 C1571 1.336 . S
C1569 N1567 1.335 . S
C1569 N1568 1.345 . S
C1569 H1574 0.930 . S
C1570 N1567 1.390 . S
C1570 C1571 1.346 . S
C1570 H1575 0.930 . S
C1571 N1568 1.336 . S
C1571 C1570 1.346 . S
C1571 H1578 0.929 . S
C1572 O1562 1.282 . S
C1572 O1573 1.216 . S
O1573 C1572 1.216 . S
H1574 C1569 0.930 . S
H1575 C1570 0.930 . S
O1576 Cu1556 1.959 . S
O1576 C1563 1.251 . S
H1577 C1560 0.930 . S
H1578 C1571 0.929 . S
Cu1579 N1580 1.999 . S
Cu1579 O1585 1.974 . S
Cu1579 N1590 1.985 . S
Cu1579 O1599 1.959 . S
N1580 Cu1579 1.999 . S
N1580 C1582 1.263 . S
N1580 C1584 1.389 . S
N1581 C1582 1.358 . S
N1581 C1583 1.400 . S
C1582 N1580 1.263 . S
C1582 N1581 1.358 . S
C1582 H1588 0.930 . S
C1583 N1581 1.400 . S
C1583 C1584 1.351 . S
C1583 H1600 0.930 . S
C1584 N1580 1.389 . S
C1584 C1583 1.351 . S
C1584 H1589 0.930 . S
O1585 Cu1579 1.974 . S
O1585 C1595 1.282 . S
C1586 O1587 1.261 . S
C1586 O1599 1.251 . S
O1587 C1586 1.261 . S
H1588 C1582 0.930 . S
H1589 C1584 0.930 . S
N1590 Cu1579 1.985 . S
N1590 C1592 1.335 . S
N1590 C1593 1.390 . S
N1591 C1592 1.345 . S
N1591 C1594 1.336 . S
C1592 N1590 1.335 . S
C1592 N1591 1.345 . S
C1592 H1597 0.930 . S
C1593 N1590 1.390 . S
C1593 C1594 1.346 . S
C1593 H1598 0.930 . S
C1594 N1591 1.336 . S
C1594 C1593 1.346 . S
C1594 H1601 0.929 . S
C1595 O1585 1.282 . S
C1595 O1596 1.216 . S
O1596 C1595 1.216 . S
H1597 C1592 0.930 . S
H1598 C1593 0.930 . S
O1599 Cu1579 1.959 . S
O1599 C1586 1.251 . S
H1600 C1583 0.930 . S
H1601 C1594 0.929 . S
Cu1602 N1603 1.999 . S
Cu1602 O1608 1.974 . S
Cu1602 N1613 1.985 . S
Cu1602 O1622 1.959 . S
N1603 Cu1602 1.999 . S
N1603 C1605 1.263 . S
N1603 C1607 1.389 . S
N1604 C1605 1.358 . S
N1604 C1606 1.400 . S
C1605 N1603 1.263 . S
C1605 N1604 1.358 . S
C1605 H1611 0.930 . S
C1606 N1604 1.400 . S
C1606 C1607 1.351 . S
C1606 H1623 0.930 . S
C1607 N1603 1.389 . S
C1607 C1606 1.351 . S
C1607 H1612 0.930 . S
O1608 Cu1602 1.974 . S
O1608 C1618 1.282 . S
C1609 O1610 1.261 . S
C1609 O1622 1.251 . S
O1610 C1609 1.261 . S
H1611 C1605 0.930 . S
H1612 C1607 0.930 . S
N1613 Cu1602 1.985 . S
N1613 C1615 1.335 . S
N1613 C1616 1.390 . S
N1614 C1615 1.345 . S
N1614 C1617 1.336 . S
C1615 N1613 1.335 . S
C1615 N1614 1.345 . S
C1615 H1620 0.930 . S
C1616 N1613 1.390 . S
C1616 C1617 1.346 . S
C1616 H1621 0.930 . S
C1617 N1614 1.336 . S
C1617 C1616 1.346 . S
C1617 H1624 0.929 . S
C1618 O1608 1.282 . S
C1618 O1619 1.216 . S
O1619 C1618 1.216 . S
H1620 C1615 0.930 . S
H1621 C1616 0.930 . S
O1622 Cu1602 1.959 . S
O1622 C1609 1.251 . S
H1623 C1606 0.930 . S
H1624 C1617 0.929 . S
Cu1625 N1626 1.999 . S
Cu1625 O1631 1.974 . S
Cu1625 N1636 1.985 . S
Cu1625 O1645 1.959 . S
N1626 Cu1625 1.999 . S
N1626 C1628 1.263 . S
N1626 C1630 1.389 . S
N1627 C1628 1.358 . S
N1627 C1629 1.400 . S
C1628 N1626 1.263 . S
C1628 N1627 1.358 . S
C1628 H1634 0.930 . S
C1629 N1627 1.400 . S
C1629 C1630 1.351 . S
C1629 H1646 0.930 . S
C1630 N1626 1.389 . S
C1630 C1629 1.351 . S
C1630 H1635 0.930 . S
O1631 Cu1625 1.974 . S
O1631 C1641 1.282 . S
C1632 O1633 1.261 . S
C1632 O1645 1.251 . S
O1633 C1632 1.261 . S
H1634 C1628 0.930 . S
H1635 C1630 0.930 . S
N1636 Cu1625 1.985 . S
N1636 C1638 1.335 . S
N1636 C1639 1.390 . S
N1637 C1638 1.345 . S
N1637 C1640 1.336 . S
C1638 N1636 1.335 . S
C1638 N1637 1.345 . S
C1638 H1643 0.930 . S
C1639 N1636 1.390 . S
C1639 C1640 1.346 . S
C1639 H1644 0.930 . S
C1640 N1637 1.336 . S
C1640 C1639 1.346 . S
C1640 H1647 0.929 . S
C1641 O1631 1.282 . S
C1641 O1642 1.216 . S
O1642 C1641 1.216 . S
H1643 C1638 0.930 . S
H1644 C1639 0.930 . S
O1645 Cu1625 1.959 . S
O1645 C1632 1.251 . S
H1646 C1629 0.930 . S
H1647 C1640 0.929 . S
Cu1648 N1649 1.999 . S
Cu1648 O1654 1.974 . S
Cu1648 N1659 1.985 . S
Cu1648 O1668 1.959 . S
N1649 Cu1648 1.999 . S
N1649 C1651 1.263 . S
N1649 C1653 1.389 . S
N1650 C1651 1.358 . S
N1650 C1652 1.400 . S
C1651 N1649 1.263 . S
C1651 N1650 1.358 . S
C1651 H1657 0.930 . S
C1652 N1650 1.400 . S
C1652 C1653 1.351 . S
C1652 H1669 0.930 . S
C1653 N1649 1.389 . S
C1653 C1652 1.351 . S
C1653 H1658 0.930 . S
O1654 Cu1648 1.974 . S
O1654 C1664 1.282 . S
C1655 O1656 1.261 . S
C1655 O1668 1.251 . S
O1656 C1655 1.261 . S
H1657 C1651 0.930 . S
H1658 C1653 0.930 . S
N1659 Cu1648 1.985 . S
N1659 C1661 1.335 . S
N1659 C1662 1.390 . S
N1660 C1661 1.345 . S
N1660 C1663 1.336 . S
C1661 N1659 1.335 . S
C1661 N1660 1.345 . S
C1661 H1666 0.930 . S
C1662 N1659 1.390 . S
C1662 C1663 1.346 . S
C1662 H1667 0.930 . S
C1663 N1660 1.336 . S
C1663 C1662 1.346 . S
C1663 H1670 0.929 . S
C1664 O1654 1.282 . S
C1664 O1665 1.216 . S
O1665 C1664 1.216 . S
H1666 C1661 0.930 . S
H1667 C1662 0.930 . S
O1668 Cu1648 1.959 . S
O1668 C1655 1.251 . S
H1669 C1652 0.930 . S
H1670 C1663 0.929 . S
Cu1671 N1672 1.999 . S
Cu1671 O1677 1.974 . S
Cu1671 N1682 1.985 . S
Cu1671 O1691 1.959 . S
N1672 Cu1671 1.999 . S
N1672 C1674 1.263 . S
N1672 C1676 1.389 . S
N1673 C1674 1.358 . S
N1673 C1675 1.400 . S
C1674 N1672 1.263 . S
C1674 N1673 1.358 . S
C1674 H1680 0.930 . S
C1675 N1673 1.400 . S
C1675 C1676 1.351 . S
C1675 H1692 0.930 . S
C1676 N1672 1.389 . S
C1676 C1675 1.351 . S
C1676 H1681 0.930 . S
O1677 Cu1671 1.974 . S
O1677 C1687 1.282 . S
C1678 O1679 1.261 . S
C1678 O1691 1.251 . S
O1679 C1678 1.261 . S
H1680 C1674 0.930 . S
H1681 C1676 0.930 . S
N1682 Cu1671 1.985 . S
N1682 C1684 1.335 . S
N1682 C1685 1.390 . S
N1683 C1684 1.345 . S
N1683 C1686 1.336 . S
C1684 N1682 1.335 . S
C1684 N1683 1.345 . S
C1684 H1689 0.930 . S
C1685 N1682 1.390 . S
C1685 C1686 1.346 . S
C1685 H1690 0.930 . S
C1686 N1683 1.336 . S
C1686 C1685 1.346 . S
C1686 H1693 0.929 . S
C1687 O1677 1.282 . S
C1687 O1688 1.216 . S
O1688 C1687 1.216 . S
H1689 C1684 0.930 . S
H1690 C1685 0.930 . S
O1691 Cu1671 1.959 . S
O1691 C1678 1.251 . S
H1692 C1675 0.930 . S
H1693 C1686 0.929 . S
Cu1694 N1695 1.999 . S
Cu1694 O1700 1.974 . S
Cu1694 N1705 1.985 . S
Cu1694 O1714 1.959 . S
N1695 Cu1694 1.999 . S
N1695 C1697 1.263 . S
N1695 C1699 1.389 . S
N1696 C1697 1.358 . S
N1696 C1698 1.400 . S
C1697 N1695 1.263 . S
C1697 N1696 1.358 . S
C1697 H1703 0.930 . S
C1698 N1696 1.400 . S
C1698 C1699 1.351 . S
C1698 H1715 0.930 . S
C1699 N1695 1.389 . S
C1699 C1698 1.351 . S
C1699 H1704 0.930 . S
O1700 Cu1694 1.974 . S
O1700 C1710 1.282 . S
C1701 O1702 1.261 . S
C1701 O1714 1.251 . S
O1702 C1701 1.261 . S
H1703 C1697 0.930 . S
H1704 C1699 0.930 . S
N1705 Cu1694 1.985 . S
N1705 C1707 1.335 . S
N1705 C1708 1.390 . S
N1706 C1707 1.345 . S
N1706 C1709 1.336 . S
C1707 N1705 1.335 . S
C1707 N1706 1.345 . S
C1707 H1712 0.930 . S
C1708 N1705 1.390 . S
C1708 C1709 1.346 . S
C1708 H1713 0.930 . S
C1709 N1706 1.336 . S
C1709 C1708 1.346 . S
C1709 H1716 0.929 . S
C1710 O1700 1.282 . S
C1710 O1711 1.216 . S
O1711 C1710 1.216 . S
H1712 C1707 0.930 . S
H1713 C1708 0.930 . S
O1714 Cu1694 1.959 . S
O1714 C1701 1.251 . S
H1715 C1698 0.930 . S
H1716 C1709 0.929 . S
Cu1717 N1718 1.999 . S
Cu1717 O1723 1.974 . S
Cu1717 N1728 1.985 . S
Cu1717 O1737 1.959 . S
N1718 Cu1717 1.999 . S
N1718 C1720 1.263 . S
N1718 C1722 1.389 . S
N1719 C1720 1.358 . S
N1719 C1721 1.400 . S
C1720 N1718 1.263 . S
C1720 N1719 1.358 . S
C1720 H1726 0.930 . S
C1721 N1719 1.400 . S
C1721 C1722 1.351 . S
C1721 H1738 0.930 . S
C1722 N1718 1.389 . S
C1722 C1721 1.351 . S
C1722 H1727 0.930 . S
O1723 Cu1717 1.974 . S
O1723 C1733 1.282 . S
C1724 O1725 1.261 . S
C1724 O1737 1.251 . S
O1725 C1724 1.261 . S
H1726 C1720 0.930 . S
H1727 C1722 0.930 . S
N1728 Cu1717 1.985 . S
N1728 C1730 1.335 . S
N1728 C1731 1.390 . S
N1729 C1730 1.345 . S
N1729 C1732 1.336 . S
C1730 N1728 1.335 . S
C1730 N1729 1.345 . S
C1730 H1735 0.930 . S
C1731 N1728 1.390 . S
C1731 C1732 1.346 . S
C1731 H1736 0.930 . S
C1732 N1729 1.336 . S
C1732 C1731 1.346 . S
C1732 H1739 0.929 . S
C1733 O1723 1.282 . S
C1733 O1734 1.216 . S
O1734 C1733 1.216 . S
H1735 C1730 0.930 . S
H1736 C1731 0.930 . S
O1737 Cu1717 1.959 . S
O1737 C1724 1.251 . S
H1738 C1721 0.930 . S
H1739 C1732 0.929 . S
Cu1740 N1741 1.999 . S
Cu1740 O1746 1.974 . S
Cu1740 N1751 1.985 . S
Cu1740 O1760 1.959 . S
N1741 Cu1740 1.999 . S
N1741 C1743 1.263 . S
N1741 C1745 1.389 . S
N1742 C1743 1.358 . S
N1742 C1744 1.400 . S
C1743 N1741 1.263 . S
C1743 N1742 1.358 . S
C1743 H1749 0.930 . S
C1744 N1742 1.400 . S
C1744 C1745 1.351 . S
C1744 H1761 0.930 . S
C1745 N1741 1.389 . S
C1745 C1744 1.351 . S
C1745 H1750 0.930 . S
O1746 Cu1740 1.974 . S
O1746 C1756 1.282 . S
C1747 O1748 1.261 . S
C1747 O1760 1.251 . S
O1748 C1747 1.261 . S
H1749 C1743 0.930 . S
H1750 C1745 0.930 . S
N1751 Cu1740 1.985 . S
N1751 C1753 1.335 . S
N1751 C1754 1.390 . S
N1752 C1753 1.345 . S
N1752 C1755 1.336 . S
C1753 N1751 1.335 . S
C1753 N1752 1.345 . S
C1753 H1758 0.930 . S
C1754 N1751 1.390 . S
C1754 C1755 1.346 . S
C1754 H1759 0.930 . S
C1755 N1752 1.336 . S
C1755 C1754 1.346 . S
C1755 H1762 0.929 . S
C1756 O1746 1.282 . S
C1756 O1757 1.216 . S
O1757 C1756 1.216 . S
H1758 C1753 0.930 . S
H1759 C1754 0.930 . S
O1760 Cu1740 1.959 . S
O1760 C1747 1.251 . S
H1761 C1744 0.930 . S
H1762 C1755 0.929 . S
Cu1763 N1764 1.999 . S
Cu1763 O1769 1.974 . S
Cu1763 N1774 1.985 . S
Cu1763 O1783 1.959 . S
N1764 Cu1763 1.999 . S
N1764 C1766 1.263 . S
N1764 C1768 1.389 . S
N1765 C1766 1.358 . S
N1765 C1767 1.400 . S
C1766 N1764 1.263 . S
C1766 N1765 1.358 . S
C1766 H1772 0.930 . S
C1767 N1765 1.400 . S
C1767 C1768 1.351 . S
C1767 H1784 0.930 . S
C1768 N1764 1.389 . S
C1768 C1767 1.351 . S
C1768 H1773 0.930 . S
O1769 Cu1763 1.974 . S
O1769 C1779 1.282 . S
C1770 O1771 1.261 . S
C1770 O1783 1.251 . S
O1771 C1770 1.261 . S
H1772 C1766 0.930 . S
H1773 C1768 0.930 . S
N1774 Cu1763 1.985 . S
N1774 C1776 1.335 . S
N1774 C1777 1.390 . S
N1775 C1776 1.345 . S
N1775 C1778 1.336 . S
C1776 N1774 1.335 . S
C1776 N1775 1.345 . S
C1776 H1781 0.930 . S
C1777 N1774 1.390 . S
C1777 C1778 1.346 . S
C1777 H1782 0.930 . S
C1778 N1775 1.336 . S
C1778 C1777 1.346 . S
C1778 H1785 0.929 . S
C1779 O1769 1.282 . S
C1779 O1780 1.216 . S
O1780 C1779 1.216 . S
H1781 C1776 0.930 . S
H1782 C1777 0.930 . S
O1783 Cu1763 1.959 . S
O1783 C1770 1.251 . S
H1784 C1767 0.930 . S
H1785 C1778 0.929 . S
Cu1786 N1787 1.999 . S
Cu1786 O1792 1.974 . S
Cu1786 N1797 1.985 . S
Cu1786 O1806 1.959 . S
N1787 Cu1786 1.999 . S
N1787 C1789 1.263 . S
N1787 C1791 1.389 . S
N1788 C1789 1.358 . S
N1788 C1790 1.400 . S
C1789 N1787 1.263 . S
C1789 N1788 1.358 . S
C1789 H1795 0.930 . S
C1790 N1788 1.400 . S
C1790 C1791 1.351 . S
C1790 H1807 0.930 . S
C1791 N1787 1.389 . S
C1791 C1790 1.351 . S
C1791 H1796 0.930 . S
O1792 Cu1786 1.974 . S
O1792 C1802 1.282 . S
C1793 O1794 1.261 . S
C1793 O1806 1.251 . S
O1794 C1793 1.261 . S
H1795 C1789 0.930 . S
H1796 C1791 0.930 . S
N1797 Cu1786 1.985 . S
N1797 C1799 1.335 . S
N1797 C1800 1.390 . S
N1798 C1799 1.345 . S
N1798 C1801 1.336 . S
C1799 N1797 1.335 . S
C1799 N1798 1.345 . S
C1799 H1804 0.930 . S
C1800 N1797 1.390 . S
C1800 C1801 1.346 . S
C1800 H1805 0.930 . S
C1801 N1798 1.336 . S
C1801 C1800 1.346 . S
C1801 H1808 0.929 . S
C1802 O1792 1.282 . S
C1802 O1803 1.216 . S
O1803 C1802 1.216 . S
H1804 C1799 0.930 . S
H1805 C1800 0.930 . S
O1806 Cu1786 1.959 . S
O1806 C1793 1.251 . S
H1807 C1790 0.930 . S
H1808 C1801 0.929 . S
Cu1809 N1810 1.999 . S
Cu1809 O1815 1.974 . S
Cu1809 N1820 1.985 . S
Cu1809 O1829 1.959 . S
N1810 Cu1809 1.999 . S
N1810 C1812 1.263 . S
N1810 C1814 1.389 . S
N1811 C1812 1.358 . S
N1811 C1813 1.400 . S
C1812 N1810 1.263 . S
C1812 N1811 1.358 . S
C1812 H1818 0.930 . S
C1813 N1811 1.400 . S
C1813 C1814 1.351 . S
C1813 H1830 0.930 . S
C1814 N1810 1.389 . S
C1814 C1813 1.351 . S
C1814 H1819 0.930 . S
O1815 Cu1809 1.974 . S
O1815 C1825 1.282 . S
C1816 O1817 1.261 . S
C1816 O1829 1.251 . S
O1817 C1816 1.261 . S
H1818 C1812 0.930 . S
H1819 C1814 0.930 . S
N1820 Cu1809 1.985 . S
N1820 C1822 1.335 . S
N1820 C1823 1.390 . S
N1821 C1822 1.345 . S
N1821 C1824 1.336 . S
C1822 N1820 1.335 . S
C1822 N1821 1.345 . S
C1822 H1827 0.930 . S
C1823 N1820 1.390 . S
C1823 C1824 1.346 . S
C1823 H1828 0.930 . S
C1824 N1821 1.336 . S
C1824 C1823 1.346 . S
C1824 H1831 0.929 . S
C1825 O1815 1.282 . S
C1825 O1826 1.216 . S
O1826 C1825 1.216 . S
H1827 C1822 0.930 . S
H1828 C1823 0.930 . S
O1829 Cu1809 1.959 . S
O1829 C1816 1.251 . S
H1830 C1813 0.930 . S
H1831 C1824 0.929 . S
H1832 C1840 0.929 . S
H1833 C1842 0.930 . S
H1834 C1844 0.930 . S
H1835 C1847 0.929 . S
H1836 C1850 0.930 . S
H1837 C1852 0.960 . S
H1838 C1852 0.960 . S
H1839 C1852 0.960 . S
C1840 H1832 0.929 . S
C1840 C1841 1.377 . S
C1840 C1842 1.384 . S
C1841 C1840 1.377 . S
C1841 C1847 1.390 . S
C1842 H1833 0.930 . S
C1842 C1840 1.384 . S
C1842 C1843 1.372 . S
C1843 C1842 1.372 . S
C1843 C1844 1.400 . S
C1843 C1848 1.490 . S
C1844 H1834 0.930 . S
C1844 C1843 1.400 . S
C1844 C1847 1.386 . S
H1845 C1861 0.930 . S
H1846 C1862 0.931 . S
C1847 H1835 0.929 . S
C1847 C1841 1.390 . S
C1847 C1844 1.386 . S
C1848 C1843 1.490 . S
C1848 C1850 1.395 . S
C1848 C1851 1.403 . S
H1849 C1855 0.930 . S
C1850 H1836 0.930 . S
C1850 C1848 1.395 . S
C1850 C1853 1.403 . S
C1851 C1848 1.403 . S
C1851 C1852 1.524 . S
C1851 C1855 1.400 . S
C1852 H1837 0.960 . S
C1852 H1838 0.960 . S
C1852 H1839 0.960 . S
C1852 C1851 1.524 . S
C1853 C1850 1.403 . S
C1853 C1854 1.392 . S
C1853 C1857 1.495 . S
C1854 C1853 1.392 . S
C1854 C1855 1.385 . S
C1854 C1856 1.478 . S
C1855 H1849 0.930 . S
C1855 C1851 1.400 . S
C1855 C1854 1.385 . S
C1856 C1854 1.478 . S
C1856 C1858 1.381 . S
C1856 C1862 1.383 . S
C1857 C1853 1.495 . S
C1857 H1863 0.959 . S
C1857 H1864 0.961 . S
C1857 H1865 0.960 . S
C1858 C1856 1.381 . S
C1858 C1859 1.394 . S
C1858 H1866 0.930 . S
C1859 C1858 1.394 . S
C1859 C1860 1.383 . S
C1859 H1867 0.929 . S
C1860 C1859 1.383 . S
C1860 C1861 1.377 . S
C1861 H1845 0.930 . S
C1861 C1860 1.377 . S
C1861 C1862 1.379 . S
C1862 H1846 0.931 . S
C1862 C1856 1.383 . S
C1862 C1861 1.379 . S
H1863 C1857 0.959 . S
H1864 C1857 0.961 . S
H1865 C1857 0.960 . S
H1866 C1858 0.930 . S
H1867 C1859 0.929 . S
H1868 C1876 0.929 . S
H1869 C1878 0.930 . S
H1870 C1880 0.930 . S
H1871 C1883 0.929 . S
H1872 C1886 0.930 . S
H1873 C1888 0.960 . S
H1874 C1888 0.960 . S
H1875 C1888 0.960 . S
C1876 H1868 0.929 . S
C1876 C1877 1.377 . S
C1876 C1878 1.384 . S
C1877 C1876 1.377 . S
C1877 C1883 1.390 . S
C1878 H1869 0.930 . S
C1878 C1876 1.384 . S
C1878 C1879 1.372 . S
C1879 C1878 1.372 . S
C1879 C1880 1.400 . S
C1879 C1884 1.490 . S
C1880 H1870 0.930 . S
C1880 C1879 1.400 . S
C1880 C1883 1.386 . S
H1881 C1897 0.930 . S
H1882 C1898 0.931 . S
C1883 H1871 0.929 . S
C1883 C1877 1.390 . S
C1883 C1880 1.386 . S
C1884 C1879 1.490 . S
C1884 C1886 1.395 . S
C1884 C1887 1.403 . S
H1885 C1891 0.930 . S
C1886 H1872 0.930 . S
C1886 C1884 1.395 . S
C1886 C1889 1.403 . S
C1887 C1884 1.403 . S
C1887 C1888 1.524 . S
C1887 C1891 1.400 . S
C1888 H1873 0.960 . S
C1888 H1874 0.960 . S
C1888 H1875 0.960 . S
C1888 C1887 1.524 . S
C1889 C1886 1.403 . S
C1889 C1890 1.392 . S
C1889 C1893 1.495 . S
C1890 C1889 1.392 . S
C1890 C1891 1.385 . S
C1890 C1892 1.478 . S
C1891 H1885 0.930 . S
C1891 C1887 1.400 . S
C1891 C1890 1.385 . S
C1892 C1890 1.478 . S
C1892 C1894 1.381 . S
C1892 C1898 1.383 . S
C1893 C1889 1.495 . S
C1893 H1899 0.959 . S
C1893 H1900 0.961 . S
C1893 H1901 0.960 . S
C1894 C1892 1.381 . S
C1894 C1895 1.394 . S
C1894 H1902 0.930 . S
C1895 C1894 1.394 . S
C1895 C1896 1.383 . S
C1895 H1903 0.929 . S
C1896 C1895 1.383 . S
C1896 C1897 1.377 . S
C1897 H1881 0.930 . S
C1897 C1896 1.377 . S
C1897 C1898 1.379 . S
C1898 H1882 0.931 . S
C1898 C1892 1.383 . S
C1898 C1897 1.379 . S
H1899 C1893 0.959 . S
H1900 C1893 0.961 . S
H1901 C1893 0.960 . S
H1902 C1894 0.930 . S
H1903 C1895 0.929 . S
H1904 C1912 0.929 . S
H1905 C1914 0.930 . S
H1906 C1916 0.930 . S
H1907 C1919 0.929 . S
H1908 C1922 0.930 . S
H1909 C1924 0.960 . S
H1910 C1924 0.960 . S
H1911 C1924 0.960 . S
C1912 H1904 0.929 . S
C1912 C1913 1.377 . S
C1912 C1914 1.384 . S
C1913 C1912 1.377 . S
C1913 C1919 1.390 . S
C1914 H1905 0.930 . S
C1914 C1912 1.384 . S
C1914 C1915 1.372 . S
C1915 C1914 1.372 . S
C1915 C1916 1.400 . S
C1915 C1920 1.490 . S
C1916 H1906 0.930 . S
C1916 C1915 1.400 . S
C1916 C1919 1.386 . S
H1917 C1933 0.930 . S
H1918 C1934 0.931 . S
C1919 H1907 0.929 . S
C1919 C1913 1.390 . S
C1919 C1916 1.386 . S
C1920 C1915 1.490 . S
C1920 C1922 1.395 . S
C1920 C1923 1.403 . S
H1921 C1927 0.930 . S
C1922 H1908 0.930 . S
C1922 C1920 1.395 . S
C1922 C1925 1.403 . S
C1923 C1920 1.403 . S
C1923 C1924 1.524 . S
C1923 C1927 1.400 . S
C1924 H1909 0.960 . S
C1924 H1910 0.960 . S
C1924 H1911 0.960 . S
C1924 C1923 1.524 . S
C1925 C1922 1.403 . S
C1925 C1926 1.392 . S
C1925 C1929 1.495 . S
C1926 C1925 1.392 . S
C1926 C1927 1.385 . S
C1926 C1928 1.478 . S
C1927 H1921 0.930 . S
C1927 C1923 1.400 . S
C1927 C1926 1.385 . S
C1928 C1926 1.478 . S
C1928 C1930 1.381 . S
C1928 C1934 1.383 . S
C1929 C1925 1.495 . S
C1929 H1935 0.959 . S
C1929 H1936 0.961 . S
C1929 H1937 0.960 . S
C1930 C1928 1.381 . S
C1930 C1931 1.394 . S
C1930 H1938 0.930 . S
C1931 C1930 1.394 . S
C1931 C1932 1.383 . S
C1931 H1939 0.929 . S
C1932 C1931 1.383 . S
C1932 C1933 1.377 . S
C1933 H1917 0.930 . S
C1933 C1932 1.377 . S
C1933 C1934 1.379 . S
C1934 H1918 0.931 . S
C1934 C1928 1.383 . S
C1934 C1933 1.379 . S
H1935 C1929 0.959 . S
H1936 C1929 0.961 . S
H1937 C1929 0.960 . S
H1938 C1930 0.930 . S
H1939 C1931 0.929 . S
H1940 C1948 0.929 . S
H1941 C1950 0.930 . S
H1942 C1952 0.930 . S
H1943 C1955 0.929 . S
H1944 C1958 0.930 . S
H1945 C1960 0.960 . S
H1946 C1960 0.960 . S
H1947 C1960 0.960 . S
C1948 H1940 0.929 . S
C1948 C1949 1.377 . S
C1948 C1950 1.384 . S
C1949 C1948 1.377 . S
C1949 C1955 1.390 . S
C1950 H1941 0.930 . S
C1950 C1948 1.384 . S
C1950 C1951 1.372 . S
C1951 C1950 1.372 . S
C1951 C1952 1.400 . S
C1951 C1956 1.490 . S
C1952 H1942 0.930 . S
C1952 C1951 1.400 . S
C1952 C1955 1.386 . S
H1953 C1969 0.930 . S
H1954 C1970 0.931 . S
C1955 H1943 0.929 . S
C1955 C1949 1.390 . S
C1955 C1952 1.386 . S
C1956 C1951 1.490 . S
C1956 C1958 1.395 . S
C1956 C1959 1.403 . S
H1957 C1963 0.930 . S
C1958 H1944 0.930 . S
C1958 C1956 1.395 . S
C1958 C1961 1.403 . S
C1959 C1956 1.403 . S
C1959 C1960 1.524 . S
C1959 C1963 1.400 . S
C1960 H1945 0.960 . S
C1960 H1946 0.960 . S
C1960 H1947 0.960 . S
C1960 C1959 1.524 . S
C1961 C1958 1.403 . S
C1961 C1962 1.392 . S
C1961 C1965 1.495 . S
C1962 C1961 1.392 . S
C1962 C1963 1.385 . S
C1962 C1964 1.478 . S
C1963 H1957 0.930 . S
C1963 C1959 1.400 . S
C1963 C1962 1.385 . S
C1964 C1962 1.478 . S
C1964 C1966 1.381 . S
C1964 C1970 1.383 . S
C1965 C1961 1.495 . S
C1965 H1971 0.959 . S
C1965 H1972 0.961 . S
C1965 H1973 0.960 . S
C1966 C1964 1.381 . S
C1966 C1967 1.394 . S
C1966 H1974 0.930 . S
C1967 C1966 1.394 . S
C1967 C1968 1.383 . S
C1967 H1975 0.929 . S
C1968 C1967 1.383 . S
C1968 C1969 1.377 . S
C1969 H1953 0.930 . S
C1969 C1968 1.377 . S
C1969 C1970 1.379 . S
C1970 H1954 0.931 . S
C1970 C1964 1.383 . S
C1970 C1969 1.379 . S
H1971 C1965 0.959 . S
H1972 C1965 0.961 . S
H1973 C1965 0.960 . S
H1974 C1966 0.930 . S
H1975 C1967 0.929 . S
H1976 C1984 0.929 . S
H1977 C1986 0.930 . S
H1978 C1988 0.930 . S
H1979 C1991 0.929 . S
H1980 C1994 0.930 . S
H1981 C1996 0.960 . S
H1982 C1996 0.960 . S
H1983 C1996 0.960 . S
C1984 H1976 0.929 . S
C1984 C1985 1.377 . S
C1984 C1986 1.384 . S
C1985 C1984 1.377 . S
C1985 C1991 1.390 . S
C1986 H1977 0.930 . S
C1986 C1984 1.384 . S
C1986 C1987 1.372 . S
C1987 C1986 1.372 . S
C1987 C1988 1.400 . S
C1987 C1992 1.490 . S
C1988 H1978 0.930 . S
C1988 C1987 1.400 . S
C1988 C1991 1.386 . S
H1989 C2005 0.930 . S
H1990 C2006 0.931 . S
C1991 H1979 0.929 . S
C1991 C1985 1.390 . S
C1991 C1988 1.386 . S
C1992 C1987 1.490 . S
C1992 C1994 1.395 . S
C1992 C1995 1.403 . S
H1993 C1999 0.930 . S
C1994 H1980 0.930 . S
C1994 C1992 1.395 . S
C1994 C1997 1.403 . S
C1995 C1992 1.403 . S
C1995 C1996 1.524 . S
C1995 C1999 1.400 . S
C1996 H1981 0.960 . S
C1996 H1982 0.960 . S
C1996 H1983 0.960 . S
C1996 C1995 1.524 . S
C1997 C1994 1.403 . S
C1997 C1998 1.392 . S
C1997 C2001 1.495 . S
C1998 C1997 1.392 . S
C1998 C1999 1.385 . S
C1998 C2000 1.478 . S
C1999 H1993 0.930 . S
C1999 C1995 1.400 . S
C1999 C1998 1.385 . S
C2000 C1998 1.478 . S
C2000 C2002 1.381 . S
C2000 C2006 1.383 . S
C2001 C1997 1.495 . S
C2001 H2007 0.959 . S
C2001 H2008 0.961 . S
C2001 H2009 0.960 . S
C2002 C2000 1.381 . S
C2002 C2003 1.394 . S
C2002 H2010 0.930 . S
C2003 C2002 1.394 . S
C2003 C2004 1.383 . S
C2003 H2011 0.929 . S
C2004 C2003 1.383 . S
C2004 C2005 1.377 . S
C2005 H1989 0.930 . S
C2005 C2004 1.377 . S
C2005 C2006 1.379 . S
C2006 H1990 0.931 . S
C2006 C2000 1.383 . S
C2006 C2005 1.379 . S
H2007 C2001 0.959 . S
H2008 C2001 0.961 . S
H2009 C2001 0.960 . S
H2010 C2002 0.930 . S
H2011 C2003 0.929 . S
H2012 C2020 0.929 . S
H2013 C2022 0.930 . S
H2014 C2024 0.930 . S
H2015 C2027 0.929 . S
H2016 C2030 0.930 . S
H2017 C2032 0.960 . S
H2018 C2032 0.960 . S
H2019 C2032 0.960 . S
C2020 H2012 0.929 . S
C2020 C2021 1.377 . S
C2020 C2022 1.384 . S
C2021 C2020 1.377 . S
C2021 C2027 1.390 . S
C2022 H2013 0.930 . S
C2022 C2020 1.384 . S
C2022 C2023 1.372 . S
C2023 C2022 1.372 . S
C2023 C2024 1.400 . S
C2023 C2028 1.490 . S
C2024 H2014 0.930 . S
C2024 C2023 1.400 . S
C2024 C2027 1.386 . S
H2025 C2041 0.930 . S
H2026 C2042 0.931 . S
C2027 H2015 0.929 . S
C2027 C2021 1.390 . S
C2027 C2024 1.386 . S
C2028 C2023 1.490 . S
C2028 C2030 1.395 . S
C2028 C2031 1.403 . S
H2029 C2035 0.930 . S
C2030 H2016 0.930 . S
C2030 C2028 1.395 . S
C2030 C2033 1.403 . S
C2031 C2028 1.403 . S
C2031 C2032 1.524 . S
C2031 C2035 1.400 . S
C2032 H2017 0.960 . S
C2032 H2018 0.960 . S
C2032 H2019 0.960 . S
C2032 C2031 1.524 . S
C2033 C2030 1.403 . S
C2033 C2034 1.392 . S
C2033 C2037 1.495 . S
C2034 C2033 1.392 . S
C2034 C2035 1.385 . S
C2034 C2036 1.478 . S
C2035 H2029 0.930 . S
C2035 C2031 1.400 . S
C2035 C2034 1.385 . S
C2036 C2034 1.478 . S
C2036 C2038 1.381 . S
C2036 C2042 1.383 . S
C2037 C2033 1.495 . S
C2037 H2043 0.959 . S
C2037 H2044 0.961 . S
C2037 H2045 0.960 . S
C2038 C2036 1.381 . S
C2038 C2039 1.394 . S
C2038 H2046 0.930 . S
C2039 C2038 1.394 . S
C2039 C2040 1.383 . S
C2039 H2047 0.929 . S
C2040 C2039 1.383 . S
C2040 C2041 1.377 . S
C2041 H2025 0.930 . S
C2041 C2040 1.377 . S
C2041 C2042 1.379 . S
C2042 H2026 0.931 . S
C2042 C2036 1.383 . S
C2042 C2041 1.379 . S
H2043 C2037 0.959 . S
H2044 C2037 0.961 . S
H2045 C2037 0.960 . S
H2046 C2038 0.930 . S
H2047 C2039 0.929 . S
H2048 C2056 0.929 . S
H2049 C2058 0.930 . S
H2050 C2060 0.930 . S
H2051 C2063 0.929 . S
H2052 C2066 0.930 . S
H2053 C2068 0.960 . S
H2054 C2068 0.960 . S
H2055 C2068 0.960 . S
C2056 H2048 0.929 . S
C2056 C2057 1.377 . S
C2056 C2058 1.384 . S
C2057 C2056 1.377 . S
C2057 C2063 1.390 . S
C2058 H2049 0.930 . S
C2058 C2056 1.384 . S
C2058 C2059 1.372 . S
C2059 C2058 1.372 . S
C2059 C2060 1.400 . S
C2059 C2064 1.490 . S
C2060 H2050 0.930 . S
C2060 C2059 1.400 . S
C2060 C2063 1.386 . S
H2061 C2077 0.930 . S
H2062 C2078 0.931 . S
C2063 H2051 0.929 . S
C2063 C2057 1.390 . S
C2063 C2060 1.386 . S
C2064 C2059 1.490 . S
C2064 C2066 1.395 . S
C2064 C2067 1.403 . S
H2065 C2071 0.930 . S
C2066 H2052 0.930 . S
C2066 C2064 1.395 . S
C2066 C2069 1.403 . S
C2067 C2064 1.403 . S
C2067 C2068 1.524 . S
C2067 C2071 1.400 . S
C2068 H2053 0.960 . S
C2068 H2054 0.960 . S
C2068 H2055 0.960 . S
C2068 C2067 1.524 . S
C2069 C2066 1.403 . S
C2069 C2070 1.392 . S
C2069 C2073 1.495 . S
C2070 C2069 1.392 . S
C2070 C2071 1.385 . S
C2070 C2072 1.478 . S
C2071 H2065 0.930 . S
C2071 C2067 1.400 . S
C2071 C2070 1.385 . S
C2072 C2070 1.478 . S
C2072 C2074 1.381 . S
C2072 C2078 1.383 . S
C2073 C2069 1.495 . S
C2073 H2079 0.959 . S
C2073 H2080 0.961 . S
C2073 H2081 0.960 . S
C2074 C2072 1.381 . S
C2074 C2075 1.394 . S
C2074 H2082 0.930 . S
C2075 C2074 1.394 . S
C2075 C2076 1.383 . S
C2075 H2083 0.929 . S
C2076 C2075 1.383 . S
C2076 C2077 1.377 . S
C2077 H2061 0.930 . S
C2077 C2076 1.377 . S
C2077 C2078 1.379 . S
C2078 H2062 0.931 . S
C2078 C2072 1.383 . S
C2078 C2077 1.379 . S
H2079 C2073 0.959 . S
H2080 C2073 0.961 . S
H2081 C2073 0.960 . S
H2082 C2074 0.930 . S
H2083 C2075 0.929 . S
H2084 C2092 0.929 . S
H2085 C2094 0.930 . S
H2086 C2096 0.930 . S
H2087 C2099 0.929 . S
H2088 C2102 0.930 . S
H2089 C2104 0.960 . S
H2090 C2104 0.960 . S
H2091 C2104 0.960 . S
C2092 H2084 0.929 . S
C2092 C2093 1.377 . S
C2092 C2094 1.384 . S
C2093 C2092 1.377 . S
C2093 C2099 1.390 . S
C2094 H2085 0.930 . S
C2094 C2092 1.384 . S
C2094 C2095 1.372 . S
C2095 C2094 1.372 . S
C2095 C2096 1.400 . S
C2095 C2100 1.490 . S
C2096 H2086 0.930 . S
C2096 C2095 1.400 . S
C2096 C2099 1.386 . S
H2097 C2113 0.930 . S
H2098 C2114 0.931 . S
C2099 H2087 0.929 . S
C2099 C2093 1.390 . S
C2099 C2096 1.386 . S
C2100 C2095 1.490 . S
C2100 C2102 1.395 . S
C2100 C2103 1.403 . S
H2101 C2107 0.930 . S
C2102 H2088 0.930 . S
C2102 C2100 1.395 . S
C2102 C2105 1.403 . S
C2103 C2100 1.403 . S
C2103 C2104 1.524 . S
C2103 C2107 1.400 . S
C2104 H2089 0.960 . S
C2104 H2090 0.960 . S
C2104 H2091 0.960 . S
C2104 C2103 1.524 . S
C2105 C2102 1.403 . S
C2105 C2106 1.392 . S
C2105 C2109 1.495 . S
C2106 C2105 1.392 . S
C2106 C2107 1.385 . S
C2106 C2108 1.478 . S
C2107 H2101 0.930 . S
C2107 C2103 1.400 . S
C2107 C2106 1.385 . S
C2108 C2106 1.478 . S
C2108 C2110 1.381 . S
C2108 C2114 1.383 . S
C2109 C2105 1.495 . S
C2109 H2115 0.959 . S
C2109 H2116 0.961 . S
C2109 H2117 0.960 . S
C2110 C2108 1.381 . S
C2110 C2111 1.394 . S
C2110 H2118 0.930 . S
C2111 C2110 1.394 . S
C2111 C2112 1.383 . S
C2111 H2119 0.929 . S
C2112 C2111 1.383 . S
C2112 C2113 1.377 . S
C2113 H2097 0.930 . S
C2113 C2112 1.377 . S
C2113 C2114 1.379 . S
C2114 H2098 0.931 . S
C2114 C2108 1.383 . S
C2114 C2113 1.379 . S
H2115 C2109 0.959 . S
H2116 C2109 0.961 . S
H2117 C2109 0.960 . S
H2118 C2110 0.930 . S
H2119 C2111 0.929 . S
H2120 C2128 0.929 . S
H2121 C2130 0.930 . S
H2122 C2132 0.930 . S
H2123 C2135 0.929 . S
H2124 C2138 0.930 . S
H2125 C2140 0.960 . S
H2126 C2140 0.960 . S
H2127 C2140 0.960 . S
C2128 H2120 0.929 . S
C2128 C2129 1.377 . S
C2128 C2130 1.384 . S
C2129 C2128 1.377 . S
C2129 C2135 1.390 . S
C2130 H2121 0.930 . S
C2130 C2128 1.384 . S
C2130 C2131 1.372 . S
C2131 C2130 1.372 . S
C2131 C2132 1.400 . S
C2131 C2136 1.490 . S
C2132 H2122 0.930 . S
C2132 C2131 1.400 . S
C2132 C2135 1.386 . S
H2133 C2149 0.930 . S
H2134 C2150 0.931 . S
C2135 H2123 0.929 . S
C2135 C2129 1.390 . S
C2135 C2132 1.386 . S
C2136 C2131 1.490 . S
C2136 C2138 1.395 . S
C2136 C2139 1.403 . S
H2137 C2143 0.930 . S
C2138 H2124 0.930 . S
C2138 C2136 1.395 . S
C2138 C2141 1.403 . S
C2139 C2136 1.403 . S
C2139 C2140 1.524 . S
C2139 C2143 1.400 . S
C2140 H2125 0.960 . S
C2140 H2126 0.960 . S
C2140 H2127 0.960 . S
C2140 C2139 1.524 . S
C2141 C2138 1.403 . S
C2141 C2142 1.392 . S
C2141 C2145 1.495 . S
C2142 C2141 1.392 . S
C2142 C2143 1.385 . S
C2142 C2144 1.478 . S
C2143 H2137 0.930 . S
C2143 C2139 1.400 . S
C2143 C2142 1.385 . S
C2144 C2142 1.478 . S
C2144 C2146 1.381 . S
C2144 C2150 1.383 . S
C2145 C2141 1.495 . S
C2145 H2151 0.959 . S
C2145 H2152 0.961 . S
C2145 H2153 0.960 . S
C2146 C2144 1.381 . S
C2146 C2147 1.394 . S
C2146 H2154 0.930 . S
C2147 C2146 1.394 . S
C2147 C2148 1.383 . S
C2147 H2155 0.929 . S
C2148 C2147 1.383 . S
C2148 C2149 1.377 . S
C2149 H2133 0.930 . S
C2149 C2148 1.377 . S
C2149 C2150 1.379 . S
C2150 H2134 0.931 . S
C2150 C2144 1.383 . S
C2150 C2149 1.379 . S
H2151 C2145 0.959 . S
H2152 C2145 0.961 . S
H2153 C2145 0.960 . S
H2154 C2146 0.930 . S
H2155 C2147 0.929 . S
H2156 C2164 0.929 . S
H2157 C2166 0.930 . S
H2158 C2168 0.930 . S
H2159 C2171 0.929 . S
H2160 C2174 0.930 . S
H2161 C2176 0.960 . S
H2162 C2176 0.960 . S
H2163 C2176 0.960 . S
C2164 H2156 0.929 . S
C2164 C2165 1.377 . S
C2164 C2166 1.384 . S
C2165 C2164 1.377 . S
C2165 C2171 1.390 . S
C2166 H2157 0.930 . S
C2166 C2164 1.384 . S
C2166 C2167 1.372 . S
C2167 C2166 1.372 . S
C2167 C2168 1.400 . S
C2167 C2172 1.490 . S
C2168 H2158 0.930 . S
C2168 C2167 1.400 . S
C2168 C2171 1.386 . S
H2169 C2185 0.930 . S
H2170 C2186 0.931 . S
C2171 H2159 0.929 . S
C2171 C2165 1.390 . S
C2171 C2168 1.386 . S
C2172 C2167 1.490 . S
C2172 C2174 1.395 . S
C2172 C2175 1.403 . S
H2173 C2179 0.930 . S
C2174 H2160 0.930 . S
C2174 C2172 1.395 . S
C2174 C2177 1.403 . S
C2175 C2172 1.403 . S
C2175 C2176 1.524 . S
C2175 C2179 1.400 . S
C2176 H2161 0.960 . S
C2176 H2162 0.960 . S
C2176 H2163 0.960 . S
C2176 C2175 1.524 . S
C2177 C2174 1.403 . S
C2177 C2178 1.392 . S
C2177 C2181 1.495 . S
C2178 C2177 1.392 . S
C2178 C2179 1.385 . S
C2178 C2180 1.478 . S
C2179 H2173 0.930 . S
C2179 C2175 1.400 . S
C2179 C2178 1.385 . S
C2180 C2178 1.478 . S
C2180 C2182 1.381 . S
C2180 C2186 1.383 . S
C2181 C2177 1.495 . S
C2181 H2187 0.959 . S
C2181 H2188 0.961 . S
C2181 H2189 0.960 . S
C2182 C2180 1.381 . S
C2182 C2183 1.394 . S
C2182 H2190 0.930 . S
C2183 C2182 1.394 . S
C2183 C2184 1.383 . S
C2183 H2191 0.929 . S
C2184 C2183 1.383 . S
C2184 C2185 1.377 . S
C2185 H2169 0.930 . S
C2185 C2184 1.377 . S
C2185 C2186 1.379 . S
C2186 H2170 0.931 . S
C2186 C2180 1.383 . S
C2186 C2185 1.379 . S
H2187 C2181 0.959 . S
H2188 C2181 0.961 . S
H2189 C2181 0.960 . S
H2190 C2182 0.930 . S
H2191 C2183 0.929 . S
H2192 C2200 0.929 . S
H2193 C2202 0.930 . S
H2194 C2204 0.930 . S
H2195 C2207 0.929 . S
H2196 C2210 0.930 . S
H2197 C2212 0.960 . S
H2198 C2212 0.960 . S
H2199 C2212 0.960 . S
C2200 H2192 0.929 . S
C2200 C2201 1.377 . S
C2200 C2202 1.384 . S
C2201 C2200 1.377 . S
C2201 C2207 1.390 . S
C2202 H2193 0.930 . S
C2202 C2200 1.384 . S
C2202 C2203 1.372 . S
C2203 C2202 1.372 . S
C2203 C2204 1.400 . S
C2203 C2208 1.490 . S
C2204 H2194 0.930 . S
C2204 C2203 1.400 . S
C2204 C2207 1.386 . S
H2205 C2221 0.930 . S
H2206 C2222 0.931 . S
C2207 H2195 0.929 . S
C2207 C2201 1.390 . S
C2207 C2204 1.386 . S
C2208 C2203 1.490 . S
C2208 C2210 1.395 . S
C2208 C2211 1.403 . S
H2209 C2215 0.930 . S
C2210 H2196 0.930 . S
C2210 C2208 1.395 . S
C2210 C2213 1.403 . S
C2211 C2208 1.403 . S
C2211 C2212 1.524 . S
C2211 C2215 1.400 . S
C2212 H2197 0.960 . S
C2212 H2198 0.960 . S
C2212 H2199 0.960 . S
C2212 C2211 1.524 . S
C2213 C2210 1.403 . S
C2213 C2214 1.392 . S
C2213 C2217 1.495 . S
C2214 C2213 1.392 . S
C2214 C2215 1.385 . S
C2214 C2216 1.478 . S
C2215 H2209 0.930 . S
C2215 C2211 1.400 . S
C2215 C2214 1.385 . S
C2216 C2214 1.478 . S
C2216 C2218 1.381 . S
C2216 C2222 1.383 . S
C2217 C2213 1.495 . S
C2217 H2223 0.959 . S
C2217 H2224 0.961 . S
C2217 H2225 0.960 . S
C2218 C2216 1.381 . S
C2218 C2219 1.394 . S
C2218 H2226 0.930 . S
C2219 C2218 1.394 . S
C2219 C2220 1.383 . S
C2219 H2227 0.929 . S
C2220 C2219 1.383 . S
C2220 C2221 1.377 . S
C2221 H2205 0.930 . S
C2221 C2220 1.377 . S
C2221 C2222 1.379 . S
C2222 H2206 0.931 . S
C2222 C2216 1.383 . S
C2222 C2221 1.379 . S
H2223 C2217 0.959 . S
H2224 C2217 0.961 . S
H2225 C2217 0.960 . S
H2226 C2218 0.930 . S
H2227 C2219 0.929 . S
H2228 C2236 0.929 . S
H2229 C2238 0.930 . S
H2230 C2240 0.930 . S
H2231 C2243 0.929 . S
H2232 C2246 0.930 . S
H2233 C2248 0.960 . S
H2234 C2248 0.960 . S
H2235 C2248 0.960 . S
C2236 H2228 0.929 . S
C2236 C2237 1.377 . S
C2236 C2238 1.384 . S
C2237 C2236 1.377 . S
C2237 C2243 1.390 . S
C2238 H2229 0.930 . S
C2238 C2236 1.384 . S
C2238 C2239 1.372 . S
C2239 C2238 1.372 . S
C2239 C2240 1.400 . S
C2239 C2244 1.490 . S
C2240 H2230 0.930 . S
C2240 C2239 1.400 . S
C2240 C2243 1.386 . S
H2241 C2257 0.930 . S
H2242 C2258 0.931 . S
C2243 H2231 0.929 . S
C2243 C2237 1.390 . S
C2243 C2240 1.386 . S
C2244 C2239 1.490 . S
C2244 C2246 1.395 . S
C2244 C2247 1.403 . S
H2245 C2251 0.930 . S
C2246 H2232 0.930 . S
C2246 C2244 1.395 . S
C2246 C2249 1.403 . S
C2247 C2244 1.403 . S
C2247 C2248 1.524 . S
C2247 C2251 1.400 . S
C2248 H2233 0.960 . S
C2248 H2234 0.960 . S
C2248 H2235 0.960 . S
C2248 C2247 1.524 . S
C2249 C2246 1.403 . S
C2249 C2250 1.392 . S
C2249 C2253 1.495 . S
C2250 C2249 1.392 . S
C2250 C2251 1.385 . S
C2250 C2252 1.478 . S
C2251 H2245 0.930 . S
C2251 C2247 1.400 . S
C2251 C2250 1.385 . S
C2252 C2250 1.478 . S
C2252 C2254 1.381 . S
C2252 C2258 1.383 . S
C2253 C2249 1.495 . S
C2253 H2259 0.959 . S
C2253 H2260 0.961 . S
C2253 H2261 0.960 . S
C2254 C2252 1.381 . S
C2254 C2255 1.394 . S
C2254 H2262 0.930 . S
C2255 C2254 1.394 . S
C2255 C2256 1.383 . S
C2255 H2263 0.929 . S
C2256 C2255 1.383 . S
C2256 C2257 1.377 . S
C2257 H2241 0.930 . S
C2257 C2256 1.377 . S
C2257 C2258 1.379 . S
C2258 H2242 0.931 . S
C2258 C2252 1.383 . S
C2258 C2257 1.379 . S
H2259 C2253 0.959 . S
H2260 C2253 0.961 . S
H2261 C2253 0.960 . S
H2262 C2254 0.930 . S
H2263 C2255 0.929 . S
H2264 C2272 0.929 . S
H2265 C2274 0.930 . S
H2266 C2276 0.930 . S
H2267 C2279 0.929 . S
H2268 C2282 0.930 . S
H2269 C2284 0.960 . S
H2270 C2284 0.960 . S
H2271 C2284 0.960 . S
C2272 H2264 0.929 . S
C2272 C2273 1.377 . S
C2272 C2274 1.384 . S
C2273 C2272 1.377 . S
C2273 C2279 1.390 . S
C2274 H2265 0.930 . S
C2274 C2272 1.384 . S
C2274 C2275 1.372 . S
C2275 C2274 1.372 . S
C2275 C2276 1.400 . S
C2275 C2280 1.490 . S
C2276 H2266 0.930 . S
C2276 C2275 1.400 . S
C2276 C2279 1.386 . S
H2277 C2293 0.930 . S
H2278 C2294 0.931 . S
C2279 H2267 0.929 . S
C2279 C2273 1.390 . S
C2279 C2276 1.386 . S
C2280 C2275 1.490 . S
C2280 C2282 1.395 . S
C2280 C2283 1.403 . S
H2281 C2287 0.930 . S
C2282 H2268 0.930 . S
C2282 C2280 1.395 . S
C2282 C2285 1.403 . S
C2283 C2280 1.403 . S
C2283 C2284 1.524 . S
C2283 C2287 1.400 . S
C2284 H2269 0.960 . S
C2284 H2270 0.960 . S
C2284 H2271 0.960 . S
C2284 C2283 1.524 . S
C2285 C2282 1.403 . S
C2285 C2286 1.392 . S
C2285 C2289 1.495 . S
C2286 C2285 1.392 . S
C2286 C2287 1.385 . S
C2286 C2288 1.478 . S
C2287 H2281 0.930 . S
C2287 C2283 1.400 . S
C2287 C2286 1.385 . S
C2288 C2286 1.478 . S
C2288 C2290 1.381 . S
C2288 C2294 1.383 . S
C2289 C2285 1.495 . S
C2289 H2295 0.959 . S
C2289 H2296 0.961 . S
C2289 H2297 0.960 . S
C2290 C2288 1.381 . S
C2290 C2291 1.394 . S
C2290 H2298 0.930 . S
C2291 C2290 1.394 . S
C2291 C2292 1.383 . S
C2291 H2299 0.929 . S
C2292 C2291 1.383 . S
C2292 C2293 1.377 . S
C2293 H2277 0.930 . S
C2293 C2292 1.377 . S
C2293 C2294 1.379 . S
C2294 H2278 0.931 . S
C2294 C2288 1.383 . S
C2294 C2293 1.379 . S
H2295 C2289 0.959 . S
H2296 C2289 0.961 . S
H2297 C2289 0.960 . S
H2298 C2290 0.930 . S
H2299 C2291 0.929 . S
H2300 C2308 0.929 . S
H2301 C2310 0.930 . S
H2302 C2312 0.930 . S
H2303 C2315 0.929 . S
H2304 C2318 0.930 . S
H2305 C2320 0.960 . S
H2306 C2320 0.960 . S
H2307 C2320 0.960 . S
C2308 H2300 0.929 . S
C2308 C2309 1.377 . S
C2308 C2310 1.384 . S
C2309 C2308 1.377 . S
C2309 C2315 1.390 . S
C2310 H2301 0.930 . S
C2310 C2308 1.384 . S
C2310 C2311 1.372 . S
C2311 C2310 1.372 . S
C2311 C2312 1.400 . S
C2311 C2316 1.490 . S
C2312 H2302 0.930 . S
C2312 C2311 1.400 . S
C2312 C2315 1.386 . S
H2313 C2329 0.930 . S
H2314 C2330 0.931 . S
C2315 H2303 0.929 . S
C2315 C2309 1.390 . S
C2315 C2312 1.386 . S
C2316 C2311 1.490 . S
C2316 C2318 1.395 . S
C2316 C2319 1.403 . S
H2317 C2323 0.930 . S
C2318 H2304 0.930 . S
C2318 C2316 1.395 . S
C2318 C2321 1.403 . S
C2319 C2316 1.403 . S
C2319 C2320 1.524 . S
C2319 C2323 1.400 . S
C2320 H2305 0.960 . S
C2320 H2306 0.960 . S
C2320 H2307 0.960 . S
C2320 C2319 1.524 . S
C2321 C2318 1.403 . S
C2321 C2322 1.392 . S
C2321 C2325 1.495 . S
C2322 C2321 1.392 . S
C2322 C2323 1.385 . S
C2322 C2324 1.478 . S
C2323 H2317 0.930 . S
C2323 C2319 1.400 . S
C2323 C2322 1.385 . S
C2324 C2322 1.478 . S
C2324 C2326 1.381 . S
C2324 C2330 1.383 . S
C2325 C2321 1.495 . S
C2325 H2331 0.959 . S
C2325 H2332 0.961 . S
C2325 H2333 0.960 . S
C2326 C2324 1.381 . S
C2326 C2327 1.394 . S
C2326 H2334 0.930 . S
C2327 C2326 1.394 . S
C2327 C2328 1.383 . S
C2327 H2335 0.929 . S
C2328 C2327 1.383 . S
C2328 C2329 1.377 . S
C2329 H2313 0.930 . S
C2329 C2328 1.377 . S
C2329 C2330 1.379 . S
C2330 H2314 0.931 . S
C2330 C2324 1.383 . S
C2330 C2329 1.379 . S
H2331 C2325 0.959 . S
H2332 C2325 0.961 . S
H2333 C2325 0.960 . S
H2334 C2326 0.930 . S
H2335 C2327 0.929 . S
H2336 C2344 0.929 . S
H2337 C2346 0.930 . S
H2338 C2348 0.930 . S
H2339 C2351 0.929 . S
H2340 C2354 0.930 . S
H2341 C2356 0.960 . S
H2342 C2356 0.960 . S
H2343 C2356 0.960 . S
C2344 H2336 0.929 . S
C2344 C2345 1.377 . S
C2344 C2346 1.384 . S
C2345 C2344 1.377 . S
C2345 C2351 1.390 . S
C2346 H2337 0.930 . S
C2346 C2344 1.384 . S
C2346 C2347 1.372 . S
C2347 C2346 1.372 . S
C2347 C2348 1.400 . S
C2347 C2352 1.490 . S
C2348 H2338 0.930 . S
C2348 C2347 1.400 . S
C2348 C2351 1.386 . S
H2349 C2365 0.930 . S
H2350 C2366 0.931 . S
C2351 H2339 0.929 . S
C2351 C2345 1.390 . S
C2351 C2348 1.386 . S
C2352 C2347 1.490 . S
C2352 C2354 1.395 . S
C2352 C2355 1.403 . S
H2353 C2359 0.930 . S
C2354 H2340 0.930 . S
C2354 C2352 1.395 . S
C2354 C2357 1.403 . S
C2355 C2352 1.403 . S
C2355 C2356 1.524 . S
C2355 C2359 1.400 . S
C2356 H2341 0.960 . S
C2356 H2342 0.960 . S
C2356 H2343 0.960 . S
C2356 C2355 1.524 . S
C2357 C2354 1.403 . S
C2357 C2358 1.392 . S
C2357 C2361 1.495 . S
C2358 C2357 1.392 . S
C2358 C2359 1.385 . S
C2358 C2360 1.478 . S
C2359 H2353 0.930 . S
C2359 C2355 1.400 . S
C2359 C2358 1.385 . S
C2360 C2358 1.478 . S
C2360 C2362 1.381 . S
C2360 C2366 1.383 . S
C2361 C2357 1.495 . S
C2361 H2367 0.959 . S
C2361 H2368 0.961 . S
C2361 H2369 0.960 . S
C2362 C2360 1.381 . S
C2362 C2363 1.394 . S
C2362 H2370 0.930 . S
C2363 C2362 1.394 . S
C2363 C2364 1.383 . S
C2363 H2371 0.929 . S
C2364 C2363 1.383 . S
C2364 C2365 1.377 . S
C2365 H2349 0.930 . S
C2365 C2364 1.377 . S
C2365 C2366 1.379 . S
C2366 H2350 0.931 . S
C2366 C2360 1.383 . S
C2366 C2365 1.379 . S
H2367 C2361 0.959 . S
H2368 C2361 0.961 . S
H2369 C2361 0.960 . S
H2370 C2362 0.930 . S
H2371 C2363 0.929 . S
H2372 C2380 0.929 . S
H2373 C2382 0.930 . S
H2374 C2384 0.930 . S
H2375 C2387 0.929 . S
H2376 C2390 0.930 . S
H2377 C2392 0.960 . S
H2378 C2392 0.960 . S
H2379 C2392 0.960 . S
C2380 H2372 0.929 . S
C2380 C2381 1.377 . S
C2380 C2382 1.384 . S
C2381 C2380 1.377 . S
C2381 C2387 1.390 . S
C2382 H2373 0.930 . S
C2382 C2380 1.384 . S
C2382 C2383 1.372 . S
C2383 C2382 1.372 . S
C2383 C2384 1.400 . S
C2383 C2388 1.490 . S
C2384 H2374 0.930 . S
C2384 C2383 1.400 . S
C2384 C2387 1.386 . S
H2385 C2401 0.930 . S
H2386 C2402 0.931 . S
C2387 H2375 0.929 . S
C2387 C2381 1.390 . S
C2387 C2384 1.386 . S
C2388 C2383 1.490 . S
C2388 C2390 1.395 . S
C2388 C2391 1.403 . S
H2389 C2395 0.930 . S
C2390 H2376 0.930 . S
C2390 C2388 1.395 . S
C2390 C2393 1.403 . S
C2391 C2388 1.403 . S
C2391 C2392 1.524 . S
C2391 C2395 1.400 . S
C2392 H2377 0.960 . S
C2392 H2378 0.960 . S
C2392 H2379 0.960 . S
C2392 C2391 1.524 . S
C2393 C2390 1.403 . S
C2393 C2394 1.392 . S
C2393 C2397 1.495 . S
C2394 C2393 1.392 . S
C2394 C2395 1.385 . S
C2394 C2396 1.478 . S
C2395 H2389 0.930 . S
C2395 C2391 1.400 . S
C2395 C2394 1.385 . S
C2396 C2394 1.478 . S
C2396 C2398 1.381 . S
C2396 C2402 1.383 . S
C2397 C2393 1.495 . S
C2397 H2403 0.959 . S
C2397 H2404 0.961 . S
C2397 H2405 0.960 . S
C2398 C2396 1.381 . S
C2398 C2399 1.394 . S
C2398 H2406 0.930 . S
C2399 C2398 1.394 . S
C2399 C2400 1.383 . S
C2399 H2407 0.929 . S
C2400 C2399 1.383 . S
C2400 C2401 1.377 . S
C2401 H2385 0.930 . S
C2401 C2400 1.377 . S
C2401 C2402 1.379 . S
C2402 H2386 0.931 . S
C2402 C2396 1.383 . S
C2402 C2401 1.379 . S
H2403 C2397 0.959 . S
H2404 C2397 0.961 . S
H2405 C2397 0.960 . S
H2406 C2398 0.930 . S
H2407 C2399 0.929 . S
H2408 C2416 0.929 . S
H2409 C2418 0.930 . S
H2410 C2420 0.930 . S
H2411 C2423 0.929 . S
H2412 C2426 0.930 . S
H2413 C2428 0.960 . S
H2414 C2428 0.960 . S
H2415 C2428 0.960 . S
C2416 H2408 0.929 . S
C2416 C2417 1.377 . S
C2416 C2418 1.384 . S
C2417 C2416 1.377 . S
C2417 C2423 1.390 . S
C2418 H2409 0.930 . S
C2418 C2416 1.384 . S
C2418 C2419 1.372 . S
C2419 C2418 1.372 . S
C2419 C2420 1.400 . S
C2419 C2424 1.490 . S
C2420 H2410 0.930 . S
C2420 C2419 1.400 . S
C2420 C2423 1.386 . S
H2421 C2437 0.930 . S
H2422 C2438 0.931 . S
C2423 H2411 0.929 . S
C2423 C2417 1.390 . S
C2423 C2420 1.386 . S
C2424 C2419 1.490 . S
C2424 C2426 1.395 . S
C2424 C2427 1.403 . S
H2425 C2431 0.930 . S
C2426 H2412 0.930 . S
C2426 C2424 1.395 . S
C2426 C2429 1.403 . S
C2427 C2424 1.403 . S
C2427 C2428 1.524 . S
C2427 C2431 1.400 . S
C2428 H2413 0.960 . S
C2428 H2414 0.960 . S
C2428 H2415 0.960 . S
C2428 C2427 1.524 . S
C2429 C2426 1.403 . S
C2429 C2430 1.392 . S
C2429 C2433 1.495 . S
C2430 C2429 1.392 . S
C2430 C2431 1.385 . S
C2430 C2432 1.478 . S
C2431 H2425 0.930 . S
C2431 C2427 1.400 . S
C2431 C2430 1.385 . S
C2432 C2430 1.478 . S
C2432 C2434 1.381 . S
C2432 C2438 1.383 . S
C2433 C2429 1.495 . S
C2433 H2439 0.959 . S
C2433 H2440 0.961 . S
C2433 H2441 0.960 . S
C2434 C2432 1.381 . S
C2434 C2435 1.394 . S
C2434 H2442 0.930 . S
C2435 C2434 1.394 . S
C2435 C2436 1.383 . S
C2435 H2443 0.929 . S
C2436 C2435 1.383 . S
C2436 C2437 1.377 . S
C2437 H2421 0.930 . S
C2437 C2436 1.377 . S
C2437 C2438 1.379 . S
C2438 H2422 0.931 . S
C2438 C2432 1.383 . S
C2438 C2437 1.379 . S
H2439 C2433 0.959 . S
H2440 C2433 0.961 . S
H2441 C2433 0.960 . S
H2442 C2434 0.930 . S
H2443 C2435 0.929 . S
H2444 C2452 0.929 . S
H2445 C2454 0.930 . S
H2446 C2456 0.930 . S
H2447 C2459 0.929 . S
H2448 C2462 0.930 . S
H2449 C2464 0.960 . S
H2450 C2464 0.960 . S
H2451 C2464 0.960 . S
C2452 H2444 0.929 . S
C2452 C2453 1.377 . S
C2452 C2454 1.384 . S
C2453 C2452 1.377 . S
C2453 C2459 1.390 . S
C2454 H2445 0.930 . S
C2454 C2452 1.384 . S
C2454 C2455 1.372 . S
C2455 C2454 1.372 . S
C2455 C2456 1.400 . S
C2455 C2460 1.490 . S
C2456 H2446 0.930 . S
C2456 C2455 1.400 . S
C2456 C2459 1.386 . S
H2457 C2473 0.930 . S
H2458 C2474 0.931 . S
C2459 H2447 0.929 . S
C2459 C2453 1.390 . S
C2459 C2456 1.386 . S
C2460 C2455 1.490 . S
C2460 C2462 1.395 . S
C2460 C2463 1.403 . S
H2461 C2467 0.930 . S
C2462 H2448 0.930 . S
C2462 C2460 1.395 . S
C2462 C2465 1.403 . S
C2463 C2460 1.403 . S
C2463 C2464 1.524 . S
C2463 C2467 1.400 . S
C2464 H2449 0.960 . S
C2464 H2450 0.960 . S
C2464 H2451 0.960 . S
C2464 C2463 1.524 . S
C2465 C2462 1.403 . S
C2465 C2466 1.392 . S
C2465 C2469 1.495 . S
C2466 C2465 1.392 . S
C2466 C2467 1.385 . S
C2466 C2468 1.478 . S
C2467 H2461 0.930 . S
C2467 C2463 1.400 . S
C2467 C2466 1.385 . S
C2468 C2466 1.478 . S
C2468 C2470 1.381 . S
C2468 C2474 1.383 . S
C2469 C2465 1.495 . S
C2469 H2475 0.959 . S
C2469 H2476 0.961 . S
C2469 H2477 0.960 . S
C2470 C2468 1.381 . S
C2470 C2471 1.394 . S
C2470 H2478 0.930 . S
C2471 C2470 1.394 . S
C2471 C2472 1.383 . S
C2471 H2479 0.929 . S
C2472 C2471 1.383 . S
C2472 C2473 1.377 . S
C2473 H2457 0.930 . S
C2473 C2472 1.377 . S
C2473 C2474 1.379 . S
C2474 H2458 0.931 . S
C2474 C2468 1.383 . S
C2474 C2473 1.379 . S
H2475 C2469 0.959 . S
H2476 C2469 0.961 . S
H2477 C2469 0.960 . S
H2478 C2470 0.930 . S
H2479 C2471 0.929 . S
H2480 C2488 0.929 . S
H2481 C2490 0.930 . S
H2482 C2492 0.930 . S
H2483 C2495 0.929 . S
H2484 C2498 0.930 . S
H2485 C2500 0.960 . S
H2486 C2500 0.960 . S
H2487 C2500 0.960 . S
C2488 H2480 0.929 . S
C2488 C2489 1.377 . S
C2488 C2490 1.384 . S
C2489 C2488 1.377 . S
C2489 C2495 1.390 . S
C2490 H2481 0.930 . S
C2490 C2488 1.384 . S
C2490 C2491 1.372 . S
C2491 C2490 1.372 . S
C2491 C2492 1.400 . S
C2491 C2496 1.490 . S
C2492 H2482 0.930 . S
C2492 C2491 1.400 . S
C2492 C2495 1.386 . S
H2493 C2509 0.930 . S
H2494 C2510 0.931 . S
C2495 H2483 0.929 . S
C2495 C2489 1.390 . S
C2495 C2492 1.386 . S
C2496 C2491 1.490 . S
C2496 C2498 1.395 . S
C2496 C2499 1.403 . S
H2497 C2503 0.930 . S
C2498 H2484 0.930 . S
C2498 C2496 1.395 . S
C2498 C2501 1.403 . S
C2499 C2496 1.403 . S
C2499 C2500 1.524 . S
C2499 C2503 1.400 . S
C2500 H2485 0.960 . S
C2500 H2486 0.960 . S
C2500 H2487 0.960 . S
C2500 C2499 1.524 . S
C2501 C2498 1.403 . S
C2501 C2502 1.392 . S
C2501 C2505 1.495 . S
C2502 C2501 1.392 . S
C2502 C2503 1.385 . S
C2502 C2504 1.478 . S
C2503 H2497 0.930 . S
C2503 C2499 1.400 . S
C2503 C2502 1.385 . S
C2504 C2502 1.478 . S
C2504 C2506 1.381 . S
C2504 C2510 1.383 . S
C2505 C2501 1.495 . S
C2505 H2511 0.959 . S
C2505 H2512 0.961 . S
C2505 H2513 0.960 . S
C2506 C2504 1.381 . S
C2506 C2507 1.394 . S
C2506 H2514 0.930 . S
C2507 C2506 1.394 . S
C2507 C2508 1.383 . S
C2507 H2515 0.929 . S
C2508 C2507 1.383 . S
C2508 C2509 1.377 . S
C2509 H2493 0.930 . S
C2509 C2508 1.377 . S
C2509 C2510 1.379 . S
C2510 H2494 0.931 . S
C2510 C2504 1.383 . S
C2510 C2509 1.379 . S
H2511 C2505 0.959 . S
H2512 C2505 0.961 . S
H2513 C2505 0.960 . S
H2514 C2506 0.930 . S
H2515 C2507 0.929 . S
H2516 C2524 0.929 . S
H2517 C2526 0.930 . S
H2518 C2528 0.930 . S
H2519 C2531 0.929 . S
H2520 C2534 0.930 . S
H2521 C2536 0.960 . S
H2522 C2536 0.960 . S
H2523 C2536 0.960 . S
C2524 H2516 0.929 . S
C2524 C2525 1.377 . S
C2524 C2526 1.384 . S
C2525 C2524 1.377 . S
C2525 C2531 1.390 . S
C2526 H2517 0.930 . S
C2526 C2524 1.384 . S
C2526 C2527 1.372 . S
C2527 C2526 1.372 . S
C2527 C2528 1.400 . S
C2527 C2532 1.490 . S
C2528 H2518 0.930 . S
C2528 C2527 1.400 . S
C2528 C2531 1.386 . S
H2529 C2545 0.930 . S
H2530 C2546 0.931 . S
C2531 H2519 0.929 . S
C2531 C2525 1.390 . S
C2531 C2528 1.386 . S
C2532 C2527 1.490 . S
C2532 C2534 1.395 . S
C2532 C2535 1.403 . S
H2533 C2539 0.930 . S
C2534 H2520 0.930 . S
C2534 C2532 1.395 . S
C2534 C2537 1.403 . S
C2535 C2532 1.403 . S
C2535 C2536 1.524 . S
C2535 C2539 1.400 . S
C2536 H2521 0.960 . S
C2536 H2522 0.960 . S
C2536 H2523 0.960 . S
C2536 C2535 1.524 . S
C2537 C2534 1.403 . S
C2537 C2538 1.392 . S
C2537 C2541 1.495 . S
C2538 C2537 1.392 . S
C2538 C2539 1.385 . S
C2538 C2540 1.478 . S
C2539 H2533 0.930 . S
C2539 C2535 1.400 . S
C2539 C2538 1.385 . S
C2540 C2538 1.478 . S
C2540 C2542 1.381 . S
C2540 C2546 1.383 . S
C2541 C2537 1.495 . S
C2541 H2547 0.959 . S
C2541 H2548 0.961 . S
C2541 H2549 0.960 . S
C2542 C2540 1.381 . S
C2542 C2543 1.394 . S
C2542 H2550 0.930 . S
C2543 C2542 1.394 . S
C2543 C2544 1.383 . S
C2543 H2551 0.929 . S
C2544 C2543 1.383 . S
C2544 C2545 1.377 . S
C2545 H2529 0.930 . S
C2545 C2544 1.377 . S
C2545 C2546 1.379 . S
C2546 H2530 0.931 . S
C2546 C2540 1.383 . S
C2546 C2545 1.379 . S
H2547 C2541 0.959 . S
H2548 C2541 0.961 . S
H2549 C2541 0.960 . S
H2550 C2542 0.930 . S
H2551 C2543 0.929 . S
H2552 C2560 0.929 . S
H2553 C2562 0.930 . S
H2554 C2564 0.930 . S
H2555 C2567 0.929 . S
H2556 C2570 0.930 . S
H2557 C2572 0.960 . S
H2558 C2572 0.960 . S
H2559 C2572 0.960 . S
C2560 H2552 0.929 . S
C2560 C2561 1.377 . S
C2560 C2562 1.384 . S
C2561 C2560 1.377 . S
C2561 C2567 1.390 . S
C2562 H2553 0.930 . S
C2562 C2560 1.384 . S
C2562 C2563 1.372 . S
C2563 C2562 1.372 . S
C2563 C2564 1.400 . S
C2563 C2568 1.490 . S
C2564 H2554 0.930 . S
C2564 C2563 1.400 . S
C2564 C2567 1.386 . S
H2565 C2581 0.930 . S
H2566 C2582 0.931 . S
C2567 H2555 0.929 . S
C2567 C2561 1.390 . S
C2567 C2564 1.386 . S
C2568 C2563 1.490 . S
C2568 C2570 1.395 . S
C2568 C2571 1.403 . S
H2569 C2575 0.930 . S
C2570 H2556 0.930 . S
C2570 C2568 1.395 . S
C2570 C2573 1.403 . S
C2571 C2568 1.403 . S
C2571 C2572 1.524 . S
C2571 C2575 1.400 . S
C2572 H2557 0.960 . S
C2572 H2558 0.960 . S
C2572 H2559 0.960 . S
C2572 C2571 1.524 . S
C2573 C2570 1.403 . S
C2573 C2574 1.392 . S
C2573 C2577 1.495 . S
C2574 C2573 1.392 . S
C2574 C2575 1.385 . S
C2574 C2576 1.478 . S
C2575 H2569 0.930 . S
C2575 C2571 1.400 . S
C2575 C2574 1.385 . S
C2576 C2574 1.478 . S
C2576 C2578 1.381 . S
C2576 C2582 1.383 . S
C2577 C2573 1.495 . S
C2577 H2583 0.959 . S
C2577 H2584 0.961 . S
C2577 H2585 0.960 . S
C2578 C2576 1.381 . S
C2578 C2579 1.394 . S
C2578 H2586 0.930 . S
C2579 C2578 1.394 . S
C2579 C2580 1.383 . S
C2579 H2587 0.929 . S
C2580 C2579 1.383 . S
C2580 C2581 1.377 . S
C2581 H2565 0.930 . S
C2581 C2580 1.377 . S
C2581 C2582 1.379 . S
C2582 H2566 0.931 . S
C2582 C2576 1.383 . S
C2582 C2581 1.379 . S
H2583 C2577 0.959 . S
H2584 C2577 0.961 . S
H2585 C2577 0.960 . S
H2586 C2578 0.930 . S
H2587 C2579 0.929 . S
H2588 C2596 0.929 . S
H2589 C2598 0.930 . S
H2590 C2600 0.930 . S
H2591 C2603 0.929 . S
H2592 C2606 0.930 . S
H2593 C2608 0.960 . S
H2594 C2608 0.960 . S
H2595 C2608 0.960 . S
C2596 H2588 0.929 . S
C2596 C2597 1.377 . S
C2596 C2598 1.384 . S
C2597 C2596 1.377 . S
C2597 C2603 1.390 . S
C2598 H2589 0.930 . S
C2598 C2596 1.384 . S
C2598 C2599 1.372 . S
C2599 C2598 1.372 . S
C2599 C2600 1.400 . S
C2599 C2604 1.490 . S
C2600 H2590 0.930 . S
C2600 C2599 1.400 . S
C2600 C2603 1.386 . S
H2601 C2617 0.930 . S
H2602 C2618 0.931 . S
C2603 H2591 0.929 . S
C2603 C2597 1.390 . S
C2603 C2600 1.386 . S
C2604 C2599 1.490 . S
C2604 C2606 1.395 . S
C2604 C2607 1.403 . S
H2605 C2611 0.930 . S
C2606 H2592 0.930 . S
C2606 C2604 1.395 . S
C2606 C2609 1.403 . S
C2607 C2604 1.403 . S
C2607 C2608 1.524 . S
C2607 C2611 1.400 . S
C2608 H2593 0.960 . S
C2608 H2594 0.960 . S
C2608 H2595 0.960 . S
C2608 C2607 1.524 . S
C2609 C2606 1.403 . S
C2609 C2610 1.392 . S
C2609 C2613 1.495 . S
C2610 C2609 1.392 . S
C2610 C2611 1.385 . S
C2610 C2612 1.478 . S
C2611 H2605 0.930 . S
C2611 C2607 1.400 . S
C2611 C2610 1.385 . S
C2612 C2610 1.478 . S
C2612 C2614 1.381 . S
C2612 C2618 1.383 . S
C2613 C2609 1.495 . S
C2613 H2619 0.959 . S
C2613 H2620 0.961 . S
C2613 H2621 0.960 . S
C2614 C2612 1.381 . S
C2614 C2615 1.394 . S
C2614 H2622 0.930 . S
C2615 C2614 1.394 . S
C2615 C2616 1.383 . S
C2615 H2623 0.929 . S
C2616 C2615 1.383 . S
C2616 C2617 1.377 . S
C2617 H2601 0.930 . S
C2617 C2616 1.377 . S
C2617 C2618 1.379 . S
C2618 H2602 0.931 . S
C2618 C2612 1.383 . S
C2618 C2617 1.379 . S
H2619 C2613 0.959 . S
H2620 C2613 0.961 . S
H2621 C2613 0.960 . S
H2622 C2614 0.930 . S
H2623 C2615 0.929 . S
H2624 C2632 0.929 . S
H2625 C2634 0.930 . S
H2626 C2636 0.930 . S
H2627 C2639 0.929 . S
H2628 C2642 0.930 . S
H2629 C2644 0.960 . S
H2630 C2644 0.960 . S
H2631 C2644 0.960 . S
C2632 H2624 0.929 . S
C2632 C2633 1.377 . S
C2632 C2634 1.384 . S
C2633 C2632 1.377 . S
C2633 C2639 1.390 . S
C2634 H2625 0.930 . S
C2634 C2632 1.384 . S
C2634 C2635 1.372 . S
C2635 C2634 1.372 . S
C2635 C2636 1.400 . S
C2635 C2640 1.490 . S
C2636 H2626 0.930 . S
C2636 C2635 1.400 . S
C2636 C2639 1.386 . S
H2637 C2653 0.930 . S
H2638 C2654 0.931 . S
C2639 H2627 0.929 . S
C2639 C2633 1.390 . S
C2639 C2636 1.386 . S
C2640 C2635 1.490 . S
C2640 C2642 1.395 . S
C2640 C2643 1.403 . S
H2641 C2647 0.930 . S
C2642 H2628 0.930 . S
C2642 C2640 1.395 . S
C2642 C2645 1.403 . S
C2643 C2640 1.403 . S
C2643 C2644 1.524 . S
C2643 C2647 1.400 . S
C2644 H2629 0.960 . S
C2644 H2630 0.960 . S
C2644 H2631 0.960 . S
C2644 C2643 1.524 . S
C2645 C2642 1.403 . S
C2645 C2646 1.392 . S
C2645 C2649 1.495 . S
C2646 C2645 1.392 . S
C2646 C2647 1.385 . S
C2646 C2648 1.478 . S
C2647 H2641 0.930 . S
C2647 C2643 1.400 . S
C2647 C2646 1.385 . S
C2648 C2646 1.478 . S
C2648 C2650 1.381 . S
C2648 C2654 1.383 . S
C2649 C2645 1.495 . S
C2649 H2655 0.959 . S
C2649 H2656 0.961 . S
C2649 H2657 0.960 . S
C2650 C2648 1.381 . S
C2650 C2651 1.394 . S
C2650 H2658 0.930 . S
C2651 C2650 1.394 . S
C2651 C2652 1.383 . S
C2651 H2659 0.929 . S
C2652 C2651 1.383 . S
C2652 C2653 1.377 . S
C2653 H2637 0.930 . S
C2653 C2652 1.377 . S
C2653 C2654 1.379 . S
C2654 H2638 0.931 . S
C2654 C2648 1.383 . S
C2654 C2653 1.379 . S
H2655 C2649 0.959 . S
H2656 C2649 0.961 . S
H2657 C2649 0.960 . S
H2658 C2650 0.930 . S
H2659 C2651 0.929 . S
H2660 C2668 0.929 . S
H2661 C2670 0.930 . S
H2662 C2672 0.930 . S
H2663 C2675 0.929 . S
H2664 C2678 0.930 . S
H2665 C2680 0.960 . S
H2666 C2680 0.960 . S
H2667 C2680 0.960 . S
C2668 H2660 0.929 . S
C2668 C2669 1.377 . S
C2668 C2670 1.384 . S
C2669 C2668 1.377 . S
C2669 C2675 1.390 . S
C2670 H2661 0.930 . S
C2670 C2668 1.384 . S
C2670 C2671 1.372 . S
C2671 C2670 1.372 . S
C2671 C2672 1.400 . S
C2671 C2676 1.490 . S
C2672 H2662 0.930 . S
C2672 C2671 1.400 . S
C2672 C2675 1.386 . S
H2673 C2689 0.930 . S
H2674 C2690 0.931 . S
C2675 H2663 0.929 . S
C2675 C2669 1.390 . S
C2675 C2672 1.386 . S
C2676 C2671 1.490 . S
C2676 C2678 1.395 . S
C2676 C2679 1.403 . S
H2677 C2683 0.930 . S
C2678 H2664 0.930 . S
C2678 C2676 1.395 . S
C2678 C2681 1.403 . S
C2679 C2676 1.403 . S
C2679 C2680 1.524 . S
C2679 C2683 1.400 . S
C2680 H2665 0.960 . S
C2680 H2666 0.960 . S
C2680 H2667 0.960 . S
C2680 C2679 1.524 . S
C2681 C2678 1.403 . S
C2681 C2682 1.392 . S
C2681 C2685 1.495 . S
C2682 C2681 1.392 . S
C2682 C2683 1.385 . S
C2682 C2684 1.478 . S
C2683 H2677 0.930 . S
C2683 C2679 1.400 . S
C2683 C2682 1.385 . S
C2684 C2682 1.478 . S
C2684 C2686 1.381 . S
C2684 C2690 1.383 . S
C2685 C2681 1.495 . S
C2685 H2691 0.959 . S
C2685 H2692 0.961 . S
C2685 H2693 0.960 . S
C2686 C2684 1.381 . S
C2686 C2687 1.394 . S
C2686 H2694 0.930 . S
C2687 C2686 1.394 . S
C2687 C2688 1.383 . S
C2687 H2695 0.929 . S
C2688 C2687 1.383 . S
C2688 C2689 1.377 . S
C2689 H2673 0.930 . S
C2689 C2688 1.377 . S
C2689 C2690 1.379 . S
C2690 H2674 0.931 . S
C2690 C2684 1.383 . S
C2690 C2689 1.379 . S
H2691 C2685 0.959 . S
H2692 C2685 0.961 . S
H2693 C2685 0.960 . S
H2694 C2686 0.930 . S
H2695 C2687 0.929 . S
H2696 C2704 0.929 . S
H2697 C2706 0.930 . S
H2698 C2708 0.930 . S
H2699 C2711 0.929 . S
H2700 C2714 0.930 . S
H2701 C2716 0.960 . S
H2702 C2716 0.960 . S
H2703 C2716 0.960 . S
C2704 H2696 0.929 . S
C2704 C2705 1.377 . S
C2704 C2706 1.384 . S
C2705 C2704 1.377 . S
C2705 C2711 1.390 . S
C2706 H2697 0.930 . S
C2706 C2704 1.384 . S
C2706 C2707 1.372 . S
C2707 C2706 1.372 . S
C2707 C2708 1.400 . S
C2707 C2712 1.490 . S
C2708 H2698 0.930 . S
C2708 C2707 1.400 . S
C2708 C2711 1.386 . S
H2709 C2725 0.930 . S
H2710 C2726 0.931 . S
C2711 H2699 0.929 . S
C2711 C2705 1.390 . S
C2711 C2708 1.386 . S
C2712 C2707 1.490 . S
C2712 C2714 1.395 . S
C2712 C2715 1.403 . S
H2713 C2719 0.930 . S
C2714 H2700 0.930 . S
C2714 C2712 1.395 . S
C2714 C2717 1.403 . S
C2715 C2712 1.403 . S
C2715 C2716 1.524 . S
C2715 C2719 1.400 . S
C2716 H2701 0.960 . S
C2716 H2702 0.960 . S
C2716 H2703 0.960 . S
C2716 C2715 1.524 . S
C2717 C2714 1.403 . S
C2717 C2718 1.392 . S
C2717 C2721 1.495 . S
C2718 C2717 1.392 . S
C2718 C2719 1.385 . S
C2718 C2720 1.478 . S
C2719 H2713 0.930 . S
C2719 C2715 1.400 . S
C2719 C2718 1.385 . S
C2720 C2718 1.478 . S
C2720 C2722 1.381 . S
C2720 C2726 1.383 . S
C2721 C2717 1.495 . S
C2721 H2727 0.959 . S
C2721 H2728 0.961 . S
C2721 H2729 0.960 . S
C2722 C2720 1.381 . S
C2722 C2723 1.394 . S
C2722 H2730 0.930 . S
C2723 C2722 1.394 . S
C2723 C2724 1.383 . S
C2723 H2731 0.929 . S
C2724 C2723 1.383 . S
C2724 C2725 1.377 . S
C2725 H2709 0.930 . S
C2725 C2724 1.377 . S
C2725 C2726 1.379 . S
C2726 H2710 0.931 . S
C2726 C2720 1.383 . S
C2726 C2725 1.379 . S
H2727 C2721 0.959 . S
H2728 C2721 0.961 . S
H2729 C2721 0.960 . S
H2730 C2722 0.930 . S
H2731 C2723 0.929 . S
H2732 C2740 0.929 . S
H2733 C2742 0.930 . S
H2734 C2744 0.930 . S
H2735 C2747 0.929 . S
H2736 C2750 0.930 . S
H2737 C2752 0.960 . S
H2738 C2752 0.960 . S
H2739 C2752 0.960 . S
C2740 H2732 0.929 . S
C2740 C2741 1.377 . S
C2740 C2742 1.384 . S
C2741 C2740 1.377 . S
C2741 C2747 1.390 . S
C2742 H2733 0.930 . S
C2742 C2740 1.384 . S
C2742 C2743 1.372 . S
C2743 C2742 1.372 . S
C2743 C2744 1.400 . S
C2743 C2748 1.490 . S
C2744 H2734 0.930 . S
C2744 C2743 1.400 . S
C2744 C2747 1.386 . S
H2745 C2761 0.930 . S
H2746 C2762 0.931 . S
C2747 H2735 0.929 . S
C2747 C2741 1.390 . S
C2747 C2744 1.386 . S
C2748 C2743 1.490 . S
C2748 C2750 1.395 . S
C2748 C2751 1.403 . S
H2749 C2755 0.930 . S
C2750 H2736 0.930 . S
C2750 C2748 1.395 . S
C2750 C2753 1.403 . S
C2751 C2748 1.403 . S
C2751 C2752 1.524 . S
C2751 C2755 1.400 . S
C2752 H2737 0.960 . S
C2752 H2738 0.960 . S
C2752 H2739 0.960 . S
C2752 C2751 1.524 . S
C2753 C2750 1.403 . S
C2753 C2754 1.392 . S
C2753 C2757 1.495 . S
C2754 C2753 1.392 . S
C2754 C2755 1.385 . S
C2754 C2756 1.478 . S
C2755 H2749 0.930 . S
C2755 C2751 1.400 . S
C2755 C2754 1.385 . S
C2756 C2754 1.478 . S
C2756 C2758 1.381 . S
C2756 C2762 1.383 . S
C2757 C2753 1.495 . S
C2757 H2763 0.959 . S
C2757 H2764 0.961 . S
C2757 H2765 0.960 . S
C2758 C2756 1.381 . S
C2758 C2759 1.394 . S
C2758 H2766 0.930 . S
C2759 C2758 1.394 . S
C2759 C2760 1.383 . S
C2759 H2767 0.929 . S
C2760 C2759 1.383 . S
C2760 C2761 1.377 . S
C2761 H2745 0.930 . S
C2761 C2760 1.377 . S
C2761 C2762 1.379 . S
C2762 H2746 0.931 . S
C2762 C2756 1.383 . S
C2762 C2761 1.379 . S
H2763 C2757 0.959 . S
H2764 C2757 0.961 . S
H2765 C2757 0.960 . S
H2766 C2758 0.930 . S
H2767 C2759 0.929 . S
H2768 C2776 0.929 . S
H2769 C2778 0.930 . S
H2770 C2780 0.930 . S
H2771 C2783 0.929 . S
H2772 C2786 0.930 . S
H2773 C2788 0.960 . S
H2774 C2788 0.960 . S
H2775 C2788 0.960 . S
C2776 H2768 0.929 . S
C2776 C2777 1.377 . S
C2776 C2778 1.384 . S
C2777 C2776 1.377 . S
C2777 C2783 1.390 . S
C2778 H2769 0.930 . S
C2778 C2776 1.384 . S
C2778 C2779 1.372 . S
C2779 C2778 1.372 . S
C2779 C2780 1.400 . S
C2779 C2784 1.490 . S
C2780 H2770 0.930 . S
C2780 C2779 1.400 . S
C2780 C2783 1.386 . S
H2781 C2797 0.930 . S
H2782 C2798 0.931 . S
C2783 H2771 0.929 . S
C2783 C2777 1.390 . S
C2783 C2780 1.386 . S
C2784 C2779 1.490 . S
C2784 C2786 1.395 . S
C2784 C2787 1.403 . S
H2785 C2791 0.930 . S
C2786 H2772 0.930 . S
C2786 C2784 1.395 . S
C2786 C2789 1.403 . S
C2787 C2784 1.403 . S
C2787 C2788 1.524 . S
C2787 C2791 1.400 . S
C2788 H2773 0.960 . S
C2788 H2774 0.960 . S
C2788 H2775 0.960 . S
C2788 C2787 1.524 . S
C2789 C2786 1.403 . S
C2789 C2790 1.392 . S
C2789 C2793 1.495 . S
C2790 C2789 1.392 . S
C2790 C2791 1.385 . S
C2790 C2792 1.478 . S
C2791 H2785 0.930 . S
C2791 C2787 1.400 . S
C2791 C2790 1.385 . S
C2792 C2790 1.478 . S
C2792 C2794 1.381 . S
C2792 C2798 1.383 . S
C2793 C2789 1.495 . S
C2793 H2799 0.959 . S
C2793 H2800 0.961 . S
C2793 H2801 0.960 . S
C2794 C2792 1.381 . S
C2794 C2795 1.394 . S
C2794 H2802 0.930 . S
C2795 C2794 1.394 . S
C2795 C2796 1.383 . S
C2795 H2803 0.929 . S
C2796 C2795 1.383 . S
C2796 C2797 1.377 . S
C2797 H2781 0.930 . S
C2797 C2796 1.377 . S
C2797 C2798 1.379 . S
C2798 H2782 0.931 . S
C2798 C2792 1.383 . S
C2798 C2797 1.379 . S
H2799 C2793 0.959 . S
H2800 C2793 0.961 . S
H2801 C2793 0.960 . S
H2802 C2794 0.930 . S
H2803 C2795 0.929 . S
H2804 C2812 0.929 . S
H2805 C2814 0.930 . S
H2806 C2816 0.930 . S
H2807 C2819 0.929 . S
H2808 C2822 0.930 . S
H2809 C2824 0.960 . S
H2810 C2824 0.960 . S
H2811 C2824 0.960 . S
C2812 H2804 0.929 . S
C2812 C2813 1.377 . S
C2812 C2814 1.384 . S
C2813 C2812 1.377 . S
C2813 C2819 1.390 . S
C2814 H2805 0.930 . S
C2814 C2812 1.384 . S
C2814 C2815 1.372 . S
C2815 C2814 1.372 . S
C2815 C2816 1.400 . S
C2815 C2820 1.490 . S
C2816 H2806 0.930 . S
C2816 C2815 1.400 . S
C2816 C2819 1.386 . S
H2817 C2833 0.930 . S
H2818 C2834 0.931 . S
C2819 H2807 0.929 . S
C2819 C2813 1.390 . S
C2819 C2816 1.386 . S
C2820 C2815 1.490 . S
C2820 C2822 1.395 . S
C2820 C2823 1.403 . S
H2821 C2827 0.930 . S
C2822 H2808 0.930 . S
C2822 C2820 1.395 . S
C2822 C2825 1.403 . S
C2823 C2820 1.403 . S
C2823 C2824 1.524 . S
C2823 C2827 1.400 . S
C2824 H2809 0.960 . S
C2824 H2810 0.960 . S
C2824 H2811 0.960 . S
C2824 C2823 1.524 . S
C2825 C2822 1.403 . S
C2825 C2826 1.392 . S
C2825 C2829 1.495 . S
C2826 C2825 1.392 . S
C2826 C2827 1.385 . S
C2826 C2828 1.478 . S
C2827 H2821 0.930 . S
C2827 C2823 1.400 . S
C2827 C2826 1.385 . S
C2828 C2826 1.478 . S
C2828 C2830 1.381 . S
C2828 C2834 1.383 . S
C2829 C2825 1.495 . S
C2829 H2835 0.959 . S
C2829 H2836 0.961 . S
C2829 H2837 0.960 . S
C2830 C2828 1.381 . S
C2830 C2831 1.394 . S
C2830 H2838 0.930 . S
C2831 C2830 1.394 . S
C2831 C2832 1.383 . S
C2831 H2839 0.929 . S
C2832 C2831 1.383 . S
C2832 C2833 1.377 . S
C2833 H2817 0.930 . S
C2833 C2832 1.377 . S
C2833 C2834 1.379 . S
C2834 H2818 0.931 . S
C2834 C2828 1.383 . S
C2834 C2833 1.379 . S
H2835 C2829 0.959 . S
H2836 C2829 0.961 . S
H2837 C2829 0.960 . S
H2838 C2830 0.930 . S
H2839 C2831 0.929 . S
H2840 C2848 0.929 . S
H2841 C2850 0.930 . S
H2842 C2852 0.930 . S
H2843 C2855 0.929 . S
H2844 C2858 0.930 . S
H2845 C2860 0.960 . S
H2846 C2860 0.960 . S
H2847 C2860 0.960 . S
C2848 H2840 0.929 . S
C2848 C2849 1.377 . S
C2848 C2850 1.384 . S
C2849 C2848 1.377 . S
C2849 C2855 1.390 . S
C2850 H2841 0.930 . S
C2850 C2848 1.384 . S
C2850 C2851 1.372 . S
C2851 C2850 1.372 . S
C2851 C2852 1.400 . S
C2851 C2856 1.490 . S
C2852 H2842 0.930 . S
C2852 C2851 1.400 . S
C2852 C2855 1.386 . S
H2853 C2869 0.930 . S
H2854 C2870 0.931 . S
C2855 H2843 0.929 . S
C2855 C2849 1.390 . S
C2855 C2852 1.386 . S
C2856 C2851 1.490 . S
C2856 C2858 1.395 . S
C2856 C2859 1.403 . S
H2857 C2863 0.930 . S
C2858 H2844 0.930 . S
C2858 C2856 1.395 . S
C2858 C2861 1.403 . S
C2859 C2856 1.403 . S
C2859 C2860 1.524 . S
C2859 C2863 1.400 . S
C2860 H2845 0.960 . S
C2860 H2846 0.960 . S
C2860 H2847 0.960 . S
C2860 C2859 1.524 . S
C2861 C2858 1.403 . S
C2861 C2862 1.392 . S
C2861 C2865 1.495 . S
C2862 C2861 1.392 . S
C2862 C2863 1.385 . S
C2862 C2864 1.478 . S
C2863 H2857 0.930 . S
C2863 C2859 1.400 . S
C2863 C2862 1.385 . S
C2864 C2862 1.478 . S
C2864 C2866 1.381 . S
C2864 C2870 1.383 . S
C2865 C2861 1.495 . S
C2865 H2871 0.959 . S
C2865 H2872 0.961 . S
C2865 H2873 0.960 . S
C2866 C2864 1.381 . S
C2866 C2867 1.394 . S
C2866 H2874 0.930 . S
C2867 C2866 1.394 . S
C2867 C2868 1.383 . S
C2867 H2875 0.929 . S
C2868 C2867 1.383 . S
C2868 C2869 1.377 . S
C2869 H2853 0.930 . S
C2869 C2868 1.377 . S
C2869 C2870 1.379 . S
C2870 H2854 0.931 . S
C2870 C2864 1.383 . S
C2870 C2869 1.379 . S
H2871 C2865 0.959 . S
H2872 C2865 0.961 . S
H2873 C2865 0.960 . S
H2874 C2866 0.930 . S
H2875 C2867 0.929 . S
H2876 C2884 0.929 . S
H2877 C2886 0.930 . S
H2878 C2888 0.930 . S
H2879 C2891 0.929 . S
H2880 C2894 0.930 . S
H2881 C2896 0.960 . S
H2882 C2896 0.960 . S
H2883 C2896 0.960 . S
C2884 H2876 0.929 . S
C2884 C2885 1.377 . S
C2884 C2886 1.384 . S
C2885 C2884 1.377 . S
C2885 C2891 1.390 . S
C2886 H2877 0.930 . S
C2886 C2884 1.384 . S
C2886 C2887 1.372 . S
C2887 C2886 1.372 . S
C2887 C2888 1.400 . S
C2887 C2892 1.490 . S
C2888 H2878 0.930 . S
C2888 C2887 1.400 . S
C2888 C2891 1.386 . S
H2889 C2905 0.930 . S
H2890 C2906 0.931 . S
C2891 H2879 0.929 . S
C2891 C2885 1.390 . S
C2891 C2888 1.386 . S
C2892 C2887 1.490 . S
C2892 C2894 1.395 . S
C2892 C2895 1.403 . S
H2893 C2899 0.930 . S
C2894 H2880 0.930 . S
C2894 C2892 1.395 . S
C2894 C2897 1.403 . S
C2895 C2892 1.403 . S
C2895 C2896 1.524 . S
C2895 C2899 1.400 . S
C2896 H2881 0.960 . S
C2896 H2882 0.960 . S
C2896 H2883 0.960 . S
C2896 C2895 1.524 . S
C2897 C2894 1.403 . S
C2897 C2898 1.392 . S
C2897 C2901 1.495 . S
C2898 C2897 1.392 . S
C2898 C2899 1.385 . S
C2898 C2900 1.478 . S
C2899 H2893 0.930 . S
C2899 C2895 1.400 . S
C2899 C2898 1.385 . S
C2900 C2898 1.478 . S
C2900 C2902 1.381 . S
C2900 C2906 1.383 . S
C2901 C2897 1.495 . S
C2901 H2907 0.959 . S
C2901 H2908 0.961 . S
C2901 H2909 0.960 . S
C2902 C2900 1.381 . S
C2902 C2903 1.394 . S
C2902 H2910 0.930 . S
C2903 C2902 1.394 . S
C2903 C2904 1.383 . S
C2903 H2911 0.929 . S
C2904 C2903 1.383 . S
C2904 C2905 1.377 . S
C2905 H2889 0.930 . S
C2905 C2904 1.377 . S
C2905 C2906 1.379 . S
C2906 H2890 0.931 . S
C2906 C2900 1.383 . S
C2906 C2905 1.379 . S
H2907 C2901 0.959 . S
H2908 C2901 0.961 . S
H2909 C2901 0.960 . S
H2910 C2902 0.930 . S
H2911 C2903 0.929 . S
H2912 C2920 0.929 . S
H2913 C2922 0.930 . S
H2914 C2924 0.930 . S
H2915 C2927 0.929 . S
H2916 C2930 0.930 . S
H2917 C2932 0.960 . S
H2918 C2932 0.960 . S
H2919 C2932 0.960 . S
C2920 H2912 0.929 . S
C2920 C2921 1.377 . S
C2920 C2922 1.384 . S
C2921 C2920 1.377 . S
C2921 C2927 1.390 . S
C2922 H2913 0.930 . S
C2922 C2920 1.384 . S
C2922 C2923 1.372 . S
C2923 C2922 1.372 . S
C2923 C2924 1.400 . S
C2923 C2928 1.490 . S
C2924 H2914 0.930 . S
C2924 C2923 1.400 . S
C2924 C2927 1.386 . S
H2925 C2941 0.930 . S
H2926 C2942 0.931 . S
C2927 H2915 0.929 . S
C2927 C2921 1.390 . S
C2927 C2924 1.386 . S
C2928 C2923 1.490 . S
C2928 C2930 1.395 . S
C2928 C2931 1.403 . S
H2929 C2935 0.930 . S
C2930 H2916 0.930 . S
C2930 C2928 1.395 . S
C2930 C2933 1.403 . S
C2931 C2928 1.403 . S
C2931 C2932 1.524 . S
C2931 C2935 1.400 . S
C2932 H2917 0.960 . S
C2932 H2918 0.960 . S
C2932 H2919 0.960 . S
C2932 C2931 1.524 . S
C2933 C2930 1.403 . S
C2933 C2934 1.392 . S
C2933 C2937 1.495 . S
C2934 C2933 1.392 . S
C2934 C2935 1.385 . S
C2934 C2936 1.478 . S
C2935 H2929 0.930 . S
C2935 C2931 1.400 . S
C2935 C2934 1.385 . S
C2936 C2934 1.478 . S
C2936 C2938 1.381 . S
C2936 C2942 1.383 . S
C2937 C2933 1.495 . S
C2937 H2943 0.959 . S
C2937 H2944 0.961 . S
C2937 H2945 0.960 . S
C2938 C2936 1.381 . S
C2938 C2939 1.394 . S
C2938 H2946 0.930 . S
C2939 C2938 1.394 . S
C2939 C2940 1.383 . S
C2939 H2947 0.929 . S
C2940 C2939 1.383 . S
C2940 C2941 1.377 . S
C2941 H2925 0.930 . S
C2941 C2940 1.377 . S
C2941 C2942 1.379 . S
C2942 H2926 0.931 . S
C2942 C2936 1.383 . S
C2942 C2941 1.379 . S
H2943 C2937 0.959 . S
H2944 C2937 0.961 . S
H2945 C2937 0.960 . S
H2946 C2938 0.930 . S
H2947 C2939 0.929 . S
H2948 C2956 0.929 . S
H2949 C2958 0.930 . S
H2950 C2960 0.930 . S
H2951 C2963 0.929 . S
H2952 C2966 0.930 . S
H2953 C2968 0.960 . S
H2954 C2968 0.960 . S
H2955 C2968 0.960 . S
C2956 H2948 0.929 . S
C2956 C2957 1.377 . S
C2956 C2958 1.384 . S
C2957 C2956 1.377 . S
C2957 C2963 1.390 . S
C2958 H2949 0.930 . S
C2958 C2956 1.384 . S
C2958 C2959 1.372 . S
C2959 C2958 1.372 . S
C2959 C2960 1.400 . S
C2959 C2964 1.490 . S
C2960 H2950 0.930 . S
C2960 C2959 1.400 . S
C2960 C2963 1.386 . S
H2961 C2977 0.930 . S
H2962 C2978 0.931 . S
C2963 H2951 0.929 . S
C2963 C2957 1.390 . S
C2963 C2960 1.386 . S
C2964 C2959 1.490 . S
C2964 C2966 1.395 . S
C2964 C2967 1.403 . S
H2965 C2971 0.930 . S
C2966 H2952 0.930 . S
C2966 C2964 1.395 . S
C2966 C2969 1.403 . S
C2967 C2964 1.403 . S
C2967 C2968 1.524 . S
C2967 C2971 1.400 . S
C2968 H2953 0.960 . S
C2968 H2954 0.960 . S
C2968 H2955 0.960 . S
C2968 C2967 1.524 . S
C2969 C2966 1.403 . S
C2969 C2970 1.392 . S
C2969 C2973 1.495 . S
C2970 C2969 1.392 . S
C2970 C2971 1.385 . S
C2970 C2972 1.478 . S
C2971 H2965 0.930 . S
C2971 C2967 1.400 . S
C2971 C2970 1.385 . S
C2972 C2970 1.478 . S
C2972 C2974 1.381 . S
C2972 C2978 1.383 . S
C2973 C2969 1.495 . S
C2973 H2979 0.959 . S
C2973 H2980 0.961 . S
C2973 H2981 0.960 . S
C2974 C2972 1.381 . S
C2974 C2975 1.394 . S
C2974 H2982 0.930 . S
C2975 C2974 1.394 . S
C2975 C2976 1.383 . S
C2975 H2983 0.929 . S
C2976 C2975 1.383 . S
C2976 C2977 1.377 . S
C2977 H2961 0.930 . S
C2977 C2976 1.377 . S
C2977 C2978 1.379 . S
C2978 H2962 0.931 . S
C2978 C2972 1.383 . S
C2978 C2977 1.379 . S
H2979 C2973 0.959 . S
H2980 C2973 0.961 . S
H2981 C2973 0.960 . S
H2982 C2974 0.930 . S
H2983 C2975 0.929 . S
H2984 C2992 0.929 . S
H2985 C2994 0.930 . S
H2986 C2996 0.930 . S
H2987 C2999 0.929 . S
H2988 C3002 0.930 . S
H2989 C3004 0.960 . S
H2990 C3004 0.960 . S
H2991 C3004 0.960 . S
C2992 H2984 0.929 . S
C2992 C2993 1.377 . S
C2992 C2994 1.384 . S
C2993 C2992 1.377 . S
C2993 C2999 1.390 . S
C2994 H2985 0.930 . S
C2994 C2992 1.384 . S
C2994 C2995 1.372 . S
C2995 C2994 1.372 . S
C2995 C2996 1.400 . S
C2995 C3000 1.490 . S
C2996 H2986 0.930 . S
C2996 C2995 1.400 . S
C2996 C2999 1.386 . S
H2997 C3013 0.930 . S
H2998 C3014 0.931 . S
C2999 H2987 0.929 . S
C2999 C2993 1.390 . S
C2999 C2996 1.386 . S
C3000 C2995 1.490 . S
C3000 C3002 1.395 . S
C3000 C3003 1.403 . S
H3001 C3007 0.930 . S
C3002 H2988 0.930 . S
C3002 C3000 1.395 . S
C3002 C3005 1.403 . S
C3003 C3000 1.403 . S
C3003 C3004 1.524 . S
C3003 C3007 1.400 . S
C3004 H2989 0.960 . S
C3004 H2990 0.960 . S
C3004 H2991 0.960 . S
C3004 C3003 1.524 . S
C3005 C3002 1.403 . S
C3005 C3006 1.392 . S
C3005 C3009 1.495 . S
C3006 C3005 1.392 . S
C3006 C3007 1.385 . S
C3006 C3008 1.478 . S
C3007 H3001 0.930 . S
C3007 C3003 1.400 . S
C3007 C3006 1.385 . S
C3008 C3006 1.478 . S
C3008 C3010 1.381 . S
C3008 C3014 1.383 . S
C3009 C3005 1.495 . S
C3009 H3015 0.959 . S
C3009 H3016 0.961 . S
C3009 H3017 0.960 . S
C3010 C3008 1.381 . S
C3010 C3011 1.394 . S
C3010 H3018 0.930 . S
C3011 C3010 1.394 . S
C3011 C3012 1.383 . S
C3011 H3019 0.929 . S
C3012 C3011 1.383 . S
C3012 C3013 1.377 . S
C3013 H2997 0.930 . S
C3013 C3012 1.377 . S
C3013 C3014 1.379 . S
C3014 H2998 0.931 . S
C3014 C3008 1.383 . S
C3014 C3013 1.379 . S
H3015 C3009 0.959 . S
H3016 C3009 0.961 . S
H3017 C3009 0.960 . S
H3018 C3010 0.930 . S
H3019 C3011 0.929 . S
H3020 C3028 0.929 . S
H3021 C3030 0.930 . S
H3022 C3032 0.930 . S
H3023 C3035 0.929 . S
H3024 C3038 0.930 . S
H3025 C3040 0.960 . S
H3026 C3040 0.960 . S
H3027 C3040 0.960 . S
C3028 H3020 0.929 . S
C3028 C3029 1.377 . S
C3028 C3030 1.384 . S
C3029 C3028 1.377 . S
C3029 C3035 1.390 . S
C3030 H3021 0.930 . S
C3030 C3028 1.384 . S
C3030 C3031 1.372 . S
C3031 C3030 1.372 . S
C3031 C3032 1.400 . S
C3031 C3036 1.490 . S
C3032 H3022 0.930 . S
C3032 C3031 1.400 . S
C3032 C3035 1.386 . S
H3033 C3049 0.930 . S
H3034 C3050 0.931 . S
C3035 H3023 0.929 . S
C3035 C3029 1.390 . S
C3035 C3032 1.386 . S
C3036 C3031 1.490 . S
C3036 C3038 1.395 . S
C3036 C3039 1.403 . S
H3037 C3043 0.930 . S
C3038 H3024 0.930 . S
C3038 C3036 1.395 . S
C3038 C3041 1.403 . S
C3039 C3036 1.403 . S
C3039 C3040 1.524 . S
C3039 C3043 1.400 . S
C3040 H3025 0.960 . S
C3040 H3026 0.960 . S
C3040 H3027 0.960 . S
C3040 C3039 1.524 . S
C3041 C3038 1.403 . S
C3041 C3042 1.392 . S
C3041 C3045 1.495 . S
C3042 C3041 1.392 . S
C3042 C3043 1.385 . S
C3042 C3044 1.478 . S
C3043 H3037 0.930 . S
C3043 C3039 1.400 . S
C3043 C3042 1.385 . S
C3044 C3042 1.478 . S
C3044 C3046 1.381 . S
C3044 C3050 1.383 . S
C3045 C3041 1.495 . S
C3045 H3051 0.959 . S
C3045 H3052 0.961 . S
C3045 H3053 0.960 . S
C3046 C3044 1.381 . S
C3046 C3047 1.394 . S
C3046 H3054 0.930 . S
C3047 C3046 1.394 . S
C3047 C3048 1.383 . S
C3047 H3055 0.929 . S
C3048 C3047 1.383 . S
C3048 C3049 1.377 . S
C3049 H3033 0.930 . S
C3049 C3048 1.377 . S
C3049 C3050 1.379 . S
C3050 H3034 0.931 . S
C3050 C3044 1.383 . S
C3050 C3049 1.379 . S
H3051 C3045 0.959 . S
H3052 C3045 0.961 . S
H3053 C3045 0.960 . S
H3054 C3046 0.930 . S
H3055 C3047 0.929 . S
H3056 C3064 0.929 . S
H3057 C3066 0.930 . S
H3058 C3068 0.930 . S
H3059 C3071 0.929 . S
H3060 C3074 0.930 . S
H3061 C3076 0.960 . S
H3062 C3076 0.960 . S
H3063 C3076 0.960 . S
C3064 H3056 0.929 . S
C3064 C3065 1.377 . S
C3064 C3066 1.384 . S
C3065 C3064 1.377 . S
C3065 C3071 1.390 . S
C3066 H3057 0.930 . S
C3066 C3064 1.384 . S
C3066 C3067 1.372 . S
C3067 C3066 1.372 . S
C3067 C3068 1.400 . S
C3067 C3072 1.490 . S
C3068 H3058 0.930 . S
C3068 C3067 1.400 . S
C3068 C3071 1.386 . S
H3069 C3085 0.930 . S
H3070 C3086 0.931 . S
C3071 H3059 0.929 . S
C3071 C3065 1.390 . S
C3071 C3068 1.386 . S
C3072 C3067 1.490 . S
C3072 C3074 1.395 . S
C3072 C3075 1.403 . S
H3073 C3079 0.930 . S
C3074 H3060 0.930 . S
C3074 C3072 1.395 . S
C3074 C3077 1.403 . S
C3075 C3072 1.403 . S
C3075 C3076 1.524 . S
C3075 C3079 1.400 . S
C3076 H3061 0.960 . S
C3076 H3062 0.960 . S
C3076 H3063 0.960 . S
C3076 C3075 1.524 . S
C3077 C3074 1.403 . S
C3077 C3078 1.392 . S
C3077 C3081 1.495 . S
C3078 C3077 1.392 . S
C3078 C3079 1.385 . S
C3078 C3080 1.478 . S
C3079 H3073 0.930 . S
C3079 C3075 1.400 . S
C3079 C3078 1.385 . S
C3080 C3078 1.478 . S
C3080 C3082 1.381 . S
C3080 C3086 1.383 . S
C3081 C3077 1.495 . S
C3081 H3087 0.959 . S
C3081 H3088 0.961 . S
C3081 H3089 0.960 . S
C3082 C3080 1.381 . S
C3082 C3083 1.394 . S
C3082 H3090 0.930 . S
C3083 C3082 1.394 . S
C3083 C3084 1.383 . S
C3083 H3091 0.929 . S
C3084 C3083 1.383 . S
C3084 C3085 1.377 . S
C3085 H3069 0.930 . S
C3085 C3084 1.377 . S
C3085 C3086 1.379 . S
C3086 H3070 0.931 . S
C3086 C3080 1.383 . S
C3086 C3085 1.379 . S
H3087 C3081 0.959 . S
H3088 C3081 0.961 . S
H3089 C3081 0.960 . S
H3090 C3082 0.930 . S
H3091 C3083 0.929 . S
H3092 C3100 0.929 . S
H3093 C3102 0.930 . S
H3094 C3104 0.930 . S
H3095 C3107 0.929 . S
H3096 C3110 0.930 . S
H3097 C3112 0.960 . S
H3098 C3112 0.960 . S
H3099 C3112 0.960 . S
C3100 H3092 0.929 . S
C3100 C3101 1.377 . S
C3100 C3102 1.384 . S
C3101 C3100 1.377 . S
C3101 C3107 1.390 . S
C3102 H3093 0.930 . S
C3102 C3100 1.384 . S
C3102 C3103 1.372 . S
C3103 C3102 1.372 . S
C3103 C3104 1.400 . S
C3103 C3108 1.490 . S
C3104 H3094 0.930 . S
C3104 C3103 1.400 . S
C3104 C3107 1.386 . S
H3105 C3121 0.930 . S
H3106 C3122 0.931 . S
C3107 H3095 0.929 . S
C3107 C3101 1.390 . S
C3107 C3104 1.386 . S
C3108 C3103 1.490 . S
C3108 C3110 1.395 . S
C3108 C3111 1.403 . S
H3109 C3115 0.930 . S
C3110 H3096 0.930 . S
C3110 C3108 1.395 . S
C3110 C3113 1.403 . S
C3111 C3108 1.403 . S
C3111 C3112 1.524 . S
C3111 C3115 1.400 . S
C3112 H3097 0.960 . S
C3112 H3098 0.960 . S
C3112 H3099 0.960 . S
C3112 C3111 1.524 . S
C3113 C3110 1.403 . S
C3113 C3114 1.392 . S
C3113 C3117 1.495 . S
C3114 C3113 1.392 . S
C3114 C3115 1.385 . S
C3114 C3116 1.478 . S
C3115 H3109 0.930 . S
C3115 C3111 1.400 . S
C3115 C3114 1.385 . S
C3116 C3114 1.478 . S
C3116 C3118 1.381 . S
C3116 C3122 1.383 . S
C3117 C3113 1.495 . S
C3117 H3123 0.959 . S
C3117 H3124 0.961 . S
C3117 H3125 0.960 . S
C3118 C3116 1.381 . S
C3118 C3119 1.394 . S
C3118 H3126 0.930 . S
C3119 C3118 1.394 . S
C3119 C3120 1.383 . S
C3119 H3127 0.929 . S
C3120 C3119 1.383 . S
C3120 C3121 1.377 . S
C3121 H3105 0.930 . S
C3121 C3120 1.377 . S
C3121 C3122 1.379 . S
C3122 H3106 0.931 . S
C3122 C3116 1.383 . S
C3122 C3121 1.379 . S
H3123 C3117 0.959 . S
H3124 C3117 0.961 . S
H3125 C3117 0.960 . S
H3126 C3118 0.930 . S
H3127 C3119 0.929 . S
H3128 C3136 0.929 . S
H3129 C3138 0.930 . S
H3130 C3140 0.930 . S
H3131 C3143 0.929 . S
H3132 C3146 0.930 . S
H3133 C3148 0.960 . S
H3134 C3148 0.960 . S
H3135 C3148 0.960 . S
C3136 H3128 0.929 . S
C3136 C3137 1.377 . S
C3136 C3138 1.384 . S
C3137 C3136 1.377 . S
C3137 C3143 1.390 . S
C3138 H3129 0.930 . S
C3138 C3136 1.384 . S
C3138 C3139 1.372 . S
C3139 C3138 1.372 . S
C3139 C3140 1.400 . S
C3139 C3144 1.490 . S
C3140 H3130 0.930 . S
C3140 C3139 1.400 . S
C3140 C3143 1.386 . S
H3141 C3157 0.930 . S
H3142 C3158 0.931 . S
C3143 H3131 0.929 . S
C3143 C3137 1.390 . S
C3143 C3140 1.386 . S
C3144 C3139 1.490 . S
C3144 C3146 1.395 . S
C3144 C3147 1.403 . S
H3145 C3151 0.930 . S
C3146 H3132 0.930 . S
C3146 C3144 1.395 . S
C3146 C3149 1.403 . S
C3147 C3144 1.403 . S
C3147 C3148 1.524 . S
C3147 C3151 1.400 . S
C3148 H3133 0.960 . S
C3148 H3134 0.960 . S
C3148 H3135 0.960 . S
C3148 C3147 1.524 . S
C3149 C3146 1.403 . S
C3149 C3150 1.392 . S
C3149 C3153 1.495 . S
C3150 C3149 1.392 . S
C3150 C3151 1.385 . S
C3150 C3152 1.478 . S
C3151 H3145 0.930 . S
C3151 C3147 1.400 . S
C3151 C3150 1.385 . S
C3152 C3150 1.478 . S
C3152 C3154 1.381 . S
C3152 C3158 1.383 . S
C3153 C3149 1.495 . S
C3153 H3159 0.959 . S
C3153 H3160 0.961 . S
C3153 H3161 0.960 . S
C3154 C3152 1.381 . S
C3154 C3155 1.394 . S
C3154 H3162 0.930 . S
C3155 C3154 1.394 . S
C3155 C3156 1.383 . S
C3155 H3163 0.929 . S
C3156 C3155 1.383 . S
C3156 C3157 1.377 . S
C3157 H3141 0.930 . S
C3157 C3156 1.377 . S
C3157 C3158 1.379 . S
C3158 H3142 0.931 . S
C3158 C3152 1.383 . S
C3158 C3157 1.379 . S
H3159 C3153 0.959 . S
H3160 C3153 0.961 . S
H3161 C3153 0.960 . S
H3162 C3154 0.930 . S
H3163 C3155 0.929 . S
H3164 C3172 0.929 . S
H3165 C3174 0.930 . S
H3166 C3176 0.930 . S
H3167 C3179 0.929 . S
H3168 C3182 0.930 . S
H3169 C3184 0.960 . S
H3170 C3184 0.960 . S
H3171 C3184 0.960 . S
C3172 H3164 0.929 . S
C3172 C3173 1.377 . S
C3172 C3174 1.384 . S
C3173 C3172 1.377 . S
C3173 C3179 1.390 . S
C3174 H3165 0.930 . S
C3174 C3172 1.384 . S
C3174 C3175 1.372 . S
C3175 C3174 1.372 . S
C3175 C3176 1.400 . S
C3175 C3180 1.490 . S
C3176 H3166 0.930 . S
C3176 C3175 1.400 . S
C3176 C3179 1.386 . S
H3177 C3193 0.930 . S
H3178 C3194 0.931 . S
C3179 H3167 0.929 . S
C3179 C3173 1.390 . S
C3179 C3176 1.386 . S
C3180 C3175 1.490 . S
C3180 C3182 1.395 . S
C3180 C3183 1.403 . S
H3181 C3187 0.930 . S
C3182 H3168 0.930 . S
C3182 C3180 1.395 . S
C3182 C3185 1.403 . S
C3183 C3180 1.403 . S
C3183 C3184 1.524 . S
C3183 C3187 1.400 . S
C3184 H3169 0.960 . S
C3184 H3170 0.960 . S
C3184 H3171 0.960 . S
C3184 C3183 1.524 . S
C3185 C3182 1.403 . S
C3185 C3186 1.392 . S
C3185 C3189 1.495 . S
C3186 C3185 1.392 . S
C3186 C3187 1.385 . S
C3186 C3188 1.478 . S
C3187 H3181 0.930 . S
C3187 C3183 1.400 . S
C3187 C3186 1.385 . S
C3188 C3186 1.478 . S
C3188 C3190 1.381 . S
C3188 C3194 1.383 . S
C3189 C3185 1.495 . S
C3189 H3195 0.959 . S
C3189 H3196 0.961 . S
C3189 H3197 0.960 . S
C3190 C3188 1.381 . S
C3190 C3191 1.394 . S
C3190 H3198 0.930 . S
C3191 C3190 1.394 . S
C3191 C3192 1.383 . S
C3191 H3199 0.929 . S
C3192 C3191 1.383 . S
C3192 C3193 1.377 . S
C3193 H3177 0.930 . S
C3193 C3192 1.377 . S
C3193 C3194 1.379 . S
C3194 H3178 0.931 . S
C3194 C3188 1.383 . S
C3194 C3193 1.379 . S
H3195 C3189 0.959 . S
H3196 C3189 0.961 . S
H3197 C3189 0.960 . S
H3198 C3190 0.930 . S
H3199 C3191 0.929 . S
H3200 C3208 0.929 . S
H3201 C3210 0.930 . S
H3202 C3212 0.930 . S
H3203 C3215 0.929 . S
H3204 C3218 0.930 . S
H3205 C3220 0.960 . S
H3206 C3220 0.960 . S
H3207 C3220 0.960 . S
C3208 H3200 0.929 . S
C3208 C3209 1.377 . S
C3208 C3210 1.384 . S
C3209 C3208 1.377 . S
C3209 C3215 1.390 . S
C3210 H3201 0.930 . S
C3210 C3208 1.384 . S
C3210 C3211 1.372 . S
C3211 C3210 1.372 . S
C3211 C3212 1.400 . S
C3211 C3216 1.490 . S
C3212 H3202 0.930 . S
C3212 C3211 1.400 . S
C3212 C3215 1.386 . S
H3213 C3229 0.930 . S
H3214 C3230 0.931 . S
C3215 H3203 0.929 . S
C3215 C3209 1.390 . S
C3215 C3212 1.386 . S
C3216 C3211 1.490 . S
C3216 C3218 1.395 . S
C3216 C3219 1.403 . S
H3217 C3223 0.930 . S
C3218 H3204 0.930 . S
C3218 C3216 1.395 . S
C3218 C3221 1.403 . S
C3219 C3216 1.403 . S
C3219 C3220 1.524 . S
C3219 C3223 1.400 . S
C3220 H3205 0.960 . S
C3220 H3206 0.960 . S
C3220 H3207 0.960 . S
C3220 C3219 1.524 . S
C3221 C3218 1.403 . S
C3221 C3222 1.392 . S
C3221 C3225 1.495 . S
C3222 C3221 1.392 . S
C3222 C3223 1.385 . S
C3222 C3224 1.478 . S
C3223 H3217 0.930 . S
C3223 C3219 1.400 . S
C3223 C3222 1.385 . S
C3224 C3222 1.478 . S
C3224 C3226 1.381 . S
C3224 C3230 1.383 . S
C3225 C3221 1.495 . S
C3225 H3231 0.959 . S
C3225 H3232 0.961 . S
C3225 H3233 0.960 . S
C3226 C3224 1.381 . S
C3226 C3227 1.394 . S
C3226 H3234 0.930 . S
C3227 C3226 1.394 . S
C3227 C3228 1.383 . S
C3227 H3235 0.929 . S
C3228 C3227 1.383 . S
C3228 C3229 1.377 . S
C3229 H3213 0.930 . S
C3229 C3228 1.377 . S
C3229 C3230 1.379 . S
C3230 H3214 0.931 . S
C3230 C3224 1.383 . S
C3230 C3229 1.379 . S
H3231 C3225 0.959 . S
H3232 C3225 0.961 . S
H3233 C3225 0.960 . S
H3234 C3226 0.930 . S
H3235 C3227 0.929 . S
H3236 C3244 0.929 . S
H3237 C3246 0.930 . S
H3238 C3248 0.930 . S
H3239 C3251 0.929 . S
H3240 C3254 0.930 . S
H3241 C3256 0.960 . S
H3242 C3256 0.960 . S
H3243 C3256 0.960 . S
C3244 H3236 0.929 . S
C3244 C3245 1.377 . S
C3244 C3246 1.384 . S
C3245 C3244 1.377 . S
C3245 C3251 1.390 . S
C3246 H3237 0.930 . S
C3246 C3244 1.384 . S
C3246 C3247 1.372 . S
C3247 C3246 1.372 . S
C3247 C3248 1.400 . S
C3247 C3252 1.490 . S
C3248 H3238 0.930 . S
C3248 C3247 1.400 . S
C3248 C3251 1.386 . S
H3249 C3265 0.930 . S
H3250 C3266 0.931 . S
C3251 H3239 0.929 . S
C3251 C3245 1.390 . S
C3251 C3248 1.386 . S
C3252 C3247 1.490 . S
C3252 C3254 1.395 . S
C3252 C3255 1.403 . S
H3253 C3259 0.930 . S
C3254 H3240 0.930 . S
C3254 C3252 1.395 . S
C3254 C3257 1.403 . S
C3255 C3252 1.403 . S
C3255 C3256 1.524 . S
C3255 C3259 1.400 . S
C3256 H3241 0.960 . S
C3256 H3242 0.960 . S
C3256 H3243 0.960 . S
C3256 C3255 1.524 . S
C3257 C3254 1.403 . S
C3257 C3258 1.392 . S
C3257 C3261 1.495 . S
C3258 C3257 1.392 . S
C3258 C3259 1.385 . S
C3258 C3260 1.478 . S
C3259 H3253 0.930 . S
C3259 C3255 1.400 . S
C3259 C3258 1.385 . S
C3260 C3258 1.478 . S
C3260 C3262 1.381 . S
C3260 C3266 1.383 . S
C3261 C3257 1.495 . S
C3261 H3267 0.959 . S
C3261 H3268 0.961 . S
C3261 H3269 0.960 . S
C3262 C3260 1.381 . S
C3262 C3263 1.394 . S
C3262 H3270 0.930 . S
C3263 C3262 1.394 . S
C3263 C3264 1.383 . S
C3263 H3271 0.929 . S
C3264 C3263 1.383 . S
C3264 C3265 1.377 . S
C3265 H3249 0.930 . S
C3265 C3264 1.377 . S
C3265 C3266 1.379 . S
C3266 H3250 0.931 . S
C3266 C3260 1.383 . S
C3266 C3265 1.379 . S
H3267 C3261 0.959 . S
H3268 C3261 0.961 . S
H3269 C3261 0.960 . S
H3270 C3262 0.930 . S
H3271 C3263 0.929 . S
H3272 C3280 0.929 . S
H3273 C3282 0.930 . S
H3274 C3284 0.930 . S
H3275 C3287 0.929 . S
H3276 C3290 0.930 . S
H3277 C3292 0.960 . S
H3278 C3292 0.960 . S
H3279 C3292 0.960 . S
C3280 H3272 0.929 . S
C3280 C3281 1.377 . S
C3280 C3282 1.384 . S
C3281 C3280 1.377 . S
C3281 C3287 1.390 . S
C3282 H3273 0.930 . S
C3282 C3280 1.384 . S
C3282 C3283 1.372 . S
C3283 C3282 1.372 . S
C3283 C3284 1.400 . S
C3283 C3288 1.490 . S
C3284 H3274 0.930 . S
C3284 C3283 1.400 . S
C3284 C3287 1.386 . S
H3285 C3301 0.930 . S
H3286 C3302 0.931 . S
C3287 H3275 0.929 . S
C3287 C3281 1.390 . S
C3287 C3284 1.386 . S
C3288 C3283 1.490 . S
C3288 C3290 1.395 . S
C3288 C3291 1.403 . S
H3289 C3295 0.930 . S
C3290 H3276 0.930 . S
C3290 C3288 1.395 . S
C3290 C3293 1.403 . S
C3291 C3288 1.403 . S
C3291 C3292 1.524 . S
C3291 C3295 1.400 . S
C3292 H3277 0.960 . S
C3292 H3278 0.960 . S
C3292 H3279 0.960 . S
C3292 C3291 1.524 . S
C3293 C3290 1.403 . S
C3293 C3294 1.392 . S
C3293 C3297 1.495 . S
C3294 C3293 1.392 . S
C3294 C3295 1.385 . S
C3294 C3296 1.478 . S
C3295 H3289 0.930 . S
C3295 C3291 1.400 . S
C3295 C3294 1.385 . S
C3296 C3294 1.478 . S
C3296 C3298 1.381 . S
C3296 C3302 1.383 . S
C3297 C3293 1.495 . S
C3297 H3303 0.959 . S
C3297 H3304 0.961 . S
C3297 H3305 0.960 . S
C3298 C3296 1.381 . S
C3298 C3299 1.394 . S
C3298 H3306 0.930 . S
C3299 C3298 1.394 . S
C3299 C3300 1.383 . S
C3299 H3307 0.929 . S
C3300 C3299 1.383 . S
C3300 C3301 1.377 . S
C3301 H3285 0.930 . S
C3301 C3300 1.377 . S
C3301 C3302 1.379 . S
C3302 H3286 0.931 . S
C3302 C3296 1.383 . S
C3302 C3301 1.379 . S
H3303 C3297 0.959 . S
H3304 C3297 0.961 . S
H3305 C3297 0.960 . S
H3306 C3298 0.930 . S
H3307 C3299 0.929 . S
H3308 C3316 0.929 . S
H3309 C3318 0.930 . S
H3310 C3320 0.930 . S
H3311 C3323 0.929 . S
H3312 C3326 0.930 . S
H3313 C3328 0.960 . S
H3314 C3328 0.960 . S
H3315 C3328 0.960 . S
C3316 H3308 0.929 . S
C3316 C3317 1.377 . S
C3316 C3318 1.384 . S
C3317 C3316 1.377 . S
C3317 C3323 1.390 . S
C3318 H3309 0.930 . S
C3318 C3316 1.384 . S
C3318 C3319 1.372 . S
C3319 C3318 1.372 . S
C3319 C3320 1.400 . S
C3319 C3324 1.490 . S
C3320 H3310 0.930 . S
C3320 C3319 1.400 . S
C3320 C3323 1.386 . S
H3321 C3337 0.930 . S
H3322 C3338 0.931 . S
C3323 H3311 0.929 . S
C3323 C3317 1.390 . S
C3323 C3320 1.386 . S
C3324 C3319 1.490 . S
C3324 C3326 1.395 . S
C3324 C3327 1.403 . S
H3325 C3331 0.930 . S
C3326 H3312 0.930 . S
C3326 C3324 1.395 . S
C3326 C3329 1.403 . S
C3327 C3324 1.403 . S
C3327 C3328 1.524 . S
C3327 C3331 1.400 . S
C3328 H3313 0.960 . S
C3328 H3314 0.960 . S
C3328 H3315 0.960 . S
C3328 C3327 1.524 . S
C3329 C3326 1.403 . S
C3329 C3330 1.392 . S
C3329 C3333 1.495 . S
C3330 C3329 1.392 . S
C3330 C3331 1.385 . S
C3330 C3332 1.478 . S
C3331 H3325 0.930 . S
C3331 C3327 1.400 . S
C3331 C3330 1.385 . S
C3332 C3330 1.478 . S
C3332 C3334 1.381 . S
C3332 C3338 1.383 . S
C3333 C3329 1.495 . S
C3333 H3339 0.959 . S
C3333 H3340 0.961 . S
C3333 H3341 0.960 . S
C3334 C3332 1.381 . S
C3334 C3335 1.394 . S
C3334 H3342 0.930 . S
C3335 C3334 1.394 . S
C3335 C3336 1.383 . S
C3335 H3343 0.929 . S
C3336 C3335 1.383 . S
C3336 C3337 1.377 . S
C3337 H3321 0.930 . S
C3337 C3336 1.377 . S
C3337 C3338 1.379 . S
C3338 H3322 0.931 . S
C3338 C3332 1.383 . S
C3338 C3337 1.379 . S
H3339 C3333 0.959 . S
H3340 C3333 0.961 . S
H3341 C3333 0.960 . S
H3342 C3334 0.930 . S
H3343 C3335 0.929 . S
H3344 C3352 0.929 . S
H3345 C3354 0.930 . S
H3346 C3356 0.930 . S
H3347 C3359 0.929 . S
H3348 C3362 0.930 . S
H3349 C3364 0.960 . S
H3350 C3364 0.960 . S
H3351 C3364 0.960 . S
C3352 H3344 0.929 . S
C3352 C3353 1.377 . S
C3352 C3354 1.384 . S
C3353 C3352 1.377 . S
C3353 C3359 1.390 . S
C3354 H3345 0.930 . S
C3354 C3352 1.384 . S
C3354 C3355 1.372 . S
C3355 C3354 1.372 . S
C3355 C3356 1.400 . S
C3355 C3360 1.490 . S
C3356 H3346 0.930 . S
C3356 C3355 1.400 . S
C3356 C3359 1.386 . S
H3357 C3373 0.930 . S
H3358 C3374 0.931 . S
C3359 H3347 0.929 . S
C3359 C3353 1.390 . S
C3359 C3356 1.386 . S
C3360 C3355 1.490 . S
C3360 C3362 1.395 . S
C3360 C3363 1.403 . S
H3361 C3367 0.930 . S
C3362 H3348 0.930 . S
C3362 C3360 1.395 . S
C3362 C3365 1.403 . S
C3363 C3360 1.403 . S
C3363 C3364 1.524 . S
C3363 C3367 1.400 . S
C3364 H3349 0.960 . S
C3364 H3350 0.960 . S
C3364 H3351 0.960 . S
C3364 C3363 1.524 . S
C3365 C3362 1.403 . S
C3365 C3366 1.392 . S
C3365 C3369 1.495 . S
C3366 C3365 1.392 . S
C3366 C3367 1.385 . S
C3366 C3368 1.478 . S
C3367 H3361 0.930 . S
C3367 C3363 1.400 . S
C3367 C3366 1.385 . S
C3368 C3366 1.478 . S
C3368 C3370 1.381 . S
C3368 C3374 1.383 . S
C3369 C3365 1.495 . S
C3369 H3375 0.959 . S
C3369 H3376 0.961 . S
C3369 H3377 0.960 . S
C3370 C3368 1.381 . S
C3370 C3371 1.394 . S
C3370 H3378 0.930 . S
C3371 C3370 1.394 . S
C3371 C3372 1.383 . S
C3371 H3379 0.929 . S
C3372 C3371 1.383 . S
C3372 C3373 1.377 . S
C3373 H3357 0.930 . S
C3373 C3372 1.377 . S
C3373 C3374 1.379 . S
C3374 H3358 0.931 . S
C3374 C3368 1.383 . S
C3374 C3373 1.379 . S
H3375 C3369 0.959 . S
H3376 C3369 0.961 . S
H3377 C3369 0.960 . S
H3378 C3370 0.930 . S
H3379 C3371 0.929 . S
H3380 C3388 0.929 . S
H3381 C3390 0.930 . S
H3382 C3392 0.930 . S
H3383 C3395 0.929 . S
H3384 C3398 0.930 . S
H3385 C3400 0.960 . S
H3386 C3400 0.960 . S
H3387 C3400 0.960 . S
C3388 H3380 0.929 . S
C3388 C3389 1.377 . S
C3388 C3390 1.384 . S
C3389 C3388 1.377 . S
C3389 C3395 1.390 . S
C3390 H3381 0.930 . S
C3390 C3388 1.384 . S
C3390 C3391 1.372 . S
C3391 C3390 1.372 . S
C3391 C3392 1.400 . S
C3391 C3396 1.490 . S
C3392 H3382 0.930 . S
C3392 C3391 1.400 . S
C3392 C3395 1.386 . S
H3393 C3409 0.930 . S
H3394 C3410 0.931 . S
C3395 H3383 0.929 . S
C3395 C3389 1.390 . S
C3395 C3392 1.386 . S
C3396 C3391 1.490 . S
C3396 C3398 1.395 . S
C3396 C3399 1.403 . S
H3397 C3403 0.930 . S
C3398 H3384 0.930 . S
C3398 C3396 1.395 . S
C3398 C3401 1.403 . S
C3399 C3396 1.403 . S
C3399 C3400 1.524 . S
C3399 C3403 1.400 . S
C3400 H3385 0.960 . S
C3400 H3386 0.960 . S
C3400 H3387 0.960 . S
C3400 C3399 1.524 . S
C3401 C3398 1.403 . S
C3401 C3402 1.392 . S
C3401 C3405 1.495 . S
C3402 C3401 1.392 . S
C3402 C3403 1.385 . S
C3402 C3404 1.478 . S
C3403 H3397 0.930 . S
C3403 C3399 1.400 . S
C3403 C3402 1.385 . S
C3404 C3402 1.478 . S
C3404 C3406 1.381 . S
C3404 C3410 1.383 . S
C3405 C3401 1.495 . S
C3405 H3411 0.959 . S
C3405 H3412 0.961 . S
C3405 H3413 0.960 . S
C3406 C3404 1.381 . S
C3406 C3407 1.394 . S
C3406 H3414 0.930 . S
C3407 C3406 1.394 . S
C3407 C3408 1.383 . S
C3407 H3415 0.929 . S
C3408 C3407 1.383 . S
C3408 C3409 1.377 . S
C3409 H3393 0.930 . S
C3409 C3408 1.377 . S
C3409 C3410 1.379 . S
C3410 H3394 0.931 . S
C3410 C3404 1.383 . S
C3410 C3409 1.379 . S
H3411 C3405 0.959 . S
H3412 C3405 0.961 . S
H3413 C3405 0.960 . S
H3414 C3406 0.930 . S
H3415 C3407 0.929 . S
H3416 C3424 0.929 . S
H3417 C3426 0.930 . S
H3418 C3428 0.930 . S
H3419 C3431 0.929 . S
H3420 C3434 0.930 . S
H3421 C3436 0.960 . S
H3422 C3436 0.960 . S
H3423 C3436 0.960 . S
C3424 H3416 0.929 . S
C3424 C3425 1.377 . S
C3424 C3426 1.384 . S
C3425 C3424 1.377 . S
C3425 C3431 1.390 . S
C3426 H3417 0.930 . S
C3426 C3424 1.384 . S
C3426 C3427 1.372 . S
C3427 C3426 1.372 . S
C3427 C3428 1.400 . S
C3427 C3432 1.490 . S
C3428 H3418 0.930 . S
C3428 C3427 1.400 . S
C3428 C3431 1.386 . S
H3429 C3445 0.930 . S
H3430 C3446 0.931 . S
C3431 H3419 0.929 . S
C3431 C3425 1.390 . S
C3431 C3428 1.386 . S
C3432 C3427 1.490 . S
C3432 C3434 1.395 . S
C3432 C3435 1.403 . S
H3433 C3439 0.930 . S
C3434 H3420 0.930 . S
C3434 C3432 1.395 . S
C3434 C3437 1.403 . S
C3435 C3432 1.403 . S
C3435 C3436 1.524 . S
C3435 C3439 1.400 . S
C3436 H3421 0.960 . S
C3436 H3422 0.960 . S
C3436 H3423 0.960 . S
C3436 C3435 1.524 . S
C3437 C3434 1.403 . S
C3437 C3438 1.392 . S
C3437 C3441 1.495 . S
C3438 C3437 1.392 . S
C3438 C3439 1.385 . S
C3438 C3440 1.478 . S
C3439 H3433 0.930 . S
C3439 C3435 1.400 . S
C3439 C3438 1.385 . S
C3440 C3438 1.478 . S
C3440 C3442 1.381 . S
C3440 C3446 1.383 . S
C3441 C3437 1.495 . S
C3441 H3447 0.959 . S
C3441 H3448 0.961 . S
C3441 H3449 0.960 . S
C3442 C3440 1.381 . S
C3442 C3443 1.394 . S
C3442 H3450 0.930 . S
C3443 C3442 1.394 . S
C3443 C3444 1.383 . S
C3443 H3451 0.929 . S
C3444 C3443 1.383 . S
C3444 C3445 1.377 . S
C3445 H3429 0.930 . S
C3445 C3444 1.377 . S
C3445 C3446 1.379 . S
C3446 H3430 0.931 . S
C3446 C3440 1.383 . S
C3446 C3445 1.379 . S
H3447 C3441 0.959 . S
H3448 C3441 0.961 . S
H3449 C3441 0.960 . S
H3450 C3442 0.930 . S
H3451 C3443 0.929 . S
H3452 C3460 0.929 . S
H3453 C3462 0.930 . S
H3454 C3464 0.930 . S
H3455 C3467 0.929 . S
H3456 C3470 0.930 . S
H3457 C3472 0.960 . S
H3458 C3472 0.960 . S
H3459 C3472 0.960 . S
C3460 H3452 0.929 . S
C3460 C3461 1.377 . S
C3460 C3462 1.384 . S
C3461 C3460 1.377 . S
C3461 C3467 1.390 . S
C3462 H3453 0.930 . S
C3462 C3460 1.384 . S
C3462 C3463 1.372 . S
C3463 C3462 1.372 . S
C3463 C3464 1.400 . S
C3463 C3468 1.490 . S
C3464 H3454 0.930 . S
C3464 C3463 1.400 . S
C3464 C3467 1.386 . S
H3465 C3481 0.930 . S
H3466 C3482 0.931 . S
C3467 H3455 0.929 . S
C3467 C3461 1.390 . S
C3467 C3464 1.386 . S
C3468 C3463 1.490 . S
C3468 C3470 1.395 . S
C3468 C3471 1.403 . S
H3469 C3475 0.930 . S
C3470 H3456 0.930 . S
C3470 C3468 1.395 . S
C3470 C3473 1.403 . S
C3471 C3468 1.403 . S
C3471 C3472 1.524 . S
C3471 C3475 1.400 . S
C3472 H3457 0.960 . S
C3472 H3458 0.960 . S
C3472 H3459 0.960 . S
C3472 C3471 1.524 . S
C3473 C3470 1.403 . S
C3473 C3474 1.392 . S
C3473 C3477 1.495 . S
C3474 C3473 1.392 . S
C3474 C3475 1.385 . S
C3474 C3476 1.478 . S
C3475 H3469 0.930 . S
C3475 C3471 1.400 . S
C3475 C3474 1.385 . S
C3476 C3474 1.478 . S
C3476 C3478 1.381 . S
C3476 C3482 1.383 . S
C3477 C3473 1.495 . S
C3477 H3483 0.959 . S
C3477 H3484 0.961 . S
C3477 H3485 0.960 . S
C3478 C3476 1.381 . S
C3478 C3479 1.394 . S
C3478 H3486 0.930 . S
C3479 C3478 1.394 . S
C3479 C3480 1.383 . S
C3479 H3487 0.929 . S
C3480 C3479 1.383 . S
C3480 C3481 1.377 . S
C3481 H3465 0.930 . S
C3481 C3480 1.377 . S
C3481 C3482 1.379 . S
C3482 H3466 0.931 . S
C3482 C3476 1.383 . S
C3482 C3481 1.379 . S
H3483 C3477 0.959 . S
H3484 C3477 0.961 . S
H3485 C3477 0.960 . S
H3486 C3478 0.930 . S
H3487 C3479 0.929 . S
H3488 C3496 0.929 . S
H3489 C3498 0.930 . S
H3490 C3500 0.930 . S
H3491 C3503 0.929 . S
H3492 C3506 0.930 . S
H3493 C3508 0.960 . S
H3494 C3508 0.960 . S
H3495 C3508 0.960 . S
C3496 H3488 0.929 . S
C3496 C3497 1.377 . S
C3496 C3498 1.384 . S
C3497 C3496 1.377 . S
C3497 C3503 1.390 . S
C3498 H3489 0.930 . S
C3498 C3496 1.384 . S
C3498 C3499 1.372 . S
C3499 C3498 1.372 . S
C3499 C3500 1.400 . S
C3499 C3504 1.490 . S
C3500 H3490 0.930 . S
C3500 C3499 1.400 . S
C3500 C3503 1.386 . S
H3501 C3517 0.930 . S
H3502 C3518 0.931 . S
C3503 H3491 0.929 . S
C3503 C3497 1.390 . S
C3503 C3500 1.386 . S
C3504 C3499 1.490 . S
C3504 C3506 1.395 . S
C3504 C3507 1.403 . S
H3505 C3511 0.930 . S
C3506 H3492 0.930 . S
C3506 C3504 1.395 . S
C3506 C3509 1.403 . S
C3507 C3504 1.403 . S
C3507 C3508 1.524 . S
C3507 C3511 1.400 . S
C3508 H3493 0.960 . S
C3508 H3494 0.960 . S
C3508 H3495 0.960 . S
C3508 C3507 1.524 . S
C3509 C3506 1.403 . S
C3509 C3510 1.392 . S
C3509 C3513 1.495 . S
C3510 C3509 1.392 . S
C3510 C3511 1.385 . S
C3510 C3512 1.478 . S
C3511 H3505 0.930 . S
C3511 C3507 1.400 . S
C3511 C3510 1.385 . S
C3512 C3510 1.478 . S
C3512 C3514 1.381 . S
C3512 C3518 1.383 . S
C3513 C3509 1.495 . S
C3513 H3519 0.959 . S
C3513 H3520 0.961 . S
C3513 H3521 0.960 . S
C3514 C3512 1.381 . S
C3514 C3515 1.394 . S
C3514 H3522 0.930 . S
C3515 C3514 1.394 . S
C3515 C3516 1.383 . S
C3515 H3523 0.929 . S
C3516 C3515 1.383 . S
C3516 C3517 1.377 . S
C3517 H3501 0.930 . S
C3517 C3516 1.377 . S
C3517 C3518 1.379 . S
C3518 H3502 0.931 . S
C3518 C3512 1.383 . S
C3518 C3517 1.379 . S
H3519 C3513 0.959 . S
H3520 C3513 0.961 . S
H3521 C3513 0.960 . S
H3522 C3514 0.930 . S
H3523 C3515 0.929 . S
H3524 C3532 0.929 . S
H3525 C3534 0.930 . S
H3526 C3536 0.930 . S
H3527 C3539 0.929 . S
H3528 C3542 0.930 . S
H3529 C3544 0.960 . S
H3530 C3544 0.960 . S
H3531 C3544 0.960 . S
C3532 H3524 0.929 . S
C3532 C3533 1.377 . S
C3532 C3534 1.384 . S
C3533 C3532 1.377 . S
C3533 C3539 1.390 . S
C3534 H3525 0.930 . S
C3534 C3532 1.384 . S
C3534 C3535 1.372 . S
C3535 C3534 1.372 . S
C3535 C3536 1.400 . S
C3535 C3540 1.490 . S
C3536 H3526 0.930 . S
C3536 C3535 1.400 . S
C3536 C3539 1.386 . S
H3537 C3553 0.930 . S
H3538 C3554 0.931 . S
C3539 H3527 0.929 . S
C3539 C3533 1.390 . S
C3539 C3536 1.386 . S
C3540 C3535 1.490 . S
C3540 C3542 1.395 . S
C3540 C3543 1.403 . S
H3541 C3547 0.930 . S
C3542 H3528 0.930 . S
C3542 C3540 1.395 . S
C3542 C3545 1.403 . S
C3543 C3540 1.403 . S
C3543 C3544 1.524 . S
C3543 C3547 1.400 . S
C3544 H3529 0.960 . S
C3544 H3530 0.960 . S
C3544 H3531 0.960 . S
C3544 C3543 1.524 . S
C3545 C3542 1.403 . S
C3545 C3546 1.392 . S
C3545 C3549 1.495 . S
C3546 C3545 1.392 . S
C3546 C3547 1.385 . S
C3546 C3548 1.478 . S
C3547 H3541 0.930 . S
C3547 C3543 1.400 . S
C3547 C3546 1.385 . S
C3548 C3546 1.478 . S
C3548 C3550 1.381 . S
C3548 C3554 1.383 . S
C3549 C3545 1.495 . S
C3549 H3555 0.959 . S
C3549 H3556 0.961 . S
C3549 H3557 0.960 . S
C3550 C3548 1.381 . S
C3550 C3551 1.394 . S
C3550 H3558 0.930 . S
C3551 C3550 1.394 . S
C3551 C3552 1.383 . S
C3551 H3559 0.929 . S
C3552 C3551 1.383 . S
C3552 C3553 1.377 . S
C3553 H3537 0.930 . S
C3553 C3552 1.377 . S
C3553 C3554 1.379 . S
C3554 H3538 0.931 . S
C3554 C3548 1.383 . S
C3554 C3553 1.379 . S
H3555 C3549 0.959 . S
H3556 C3549 0.961 . S
H3557 C3549 0.960 . S
H3558 C3550 0.930 . S
H3559 C3551 0.929 . S
H3560 C3568 0.929 . S
H3561 C3570 0.930 . S
H3562 C3572 0.930 . S
H3563 C3575 0.929 . S
H3564 C3578 0.930 . S
H3565 C3580 0.960 . S
H3566 C3580 0.960 . S
H3567 C3580 0.960 . S
C3568 H3560 0.929 . S
C3568 C3569 1.377 . S
C3568 C3570 1.384 . S
C3569 C3568 1.377 . S
C3569 C3575 1.390 . S
C3570 H3561 0.930 . S
C3570 C3568 1.384 . S
C3570 C3571 1.372 . S
C3571 C3570 1.372 . S
C3571 C3572 1.400 . S
C3571 C3576 1.490 . S
C3572 H3562 0.930 . S
C3572 C3571 1.400 . S
C3572 C3575 1.386 . S
H3573 C3589 0.930 . S
H3574 C3590 0.931 . S
C3575 H3563 0.929 . S
C3575 C3569 1.390 . S
C3575 C3572 1.386 . S
C3576 C3571 1.490 . S
C3576 C3578 1.395 . S
C3576 C3579 1.403 . S
H3577 C3583 0.930 . S
C3578 H3564 0.930 . S
C3578 C3576 1.395 . S
C3578 C3581 1.403 . S
C3579 C3576 1.403 . S
C3579 C3580 1.524 . S
C3579 C3583 1.400 . S
C3580 H3565 0.960 . S
C3580 H3566 0.960 . S
C3580 H3567 0.960 . S
C3580 C3579 1.524 . S
C3581 C3578 1.403 . S
C3581 C3582 1.392 . S
C3581 C3585 1.495 . S
C3582 C3581 1.392 . S
C3582 C3583 1.385 . S
C3582 C3584 1.478 . S
C3583 H3577 0.930 . S
C3583 C3579 1.400 . S
C3583 C3582 1.385 . S
C3584 C3582 1.478 . S
C3584 C3586 1.381 . S
C3584 C3590 1.383 . S
C3585 C3581 1.495 . S
C3585 H3591 0.959 . S
C3585 H3592 0.961 . S
C3585 H3593 0.960 . S
C3586 C3584 1.381 . S
C3586 C3587 1.394 . S
C3586 H3594 0.930 . S
C3587 C3586 1.394 . S
C3587 C3588 1.383 . S
C3587 H3595 0.929 . S
C3588 C3587 1.383 . S
C3588 C3589 1.377 . S
C3589 H3573 0.930 . S
C3589 C3588 1.377 . S
C3589 C3590 1.379 . S
C3590 H3574 0.931 . S
C3590 C3584 1.383 . S
C3590 C3589 1.379 . S
H3591 C3585 0.959 . S
H3592 C3585 0.961 . S
H3593 C3585 0.960 . S
H3594 C3586 0.930 . S
H3595 C3587 0.929 . S
H3596 C3604 0.929 . S
H3597 C3606 0.930 . S
H3598 C3608 0.930 . S
H3599 C3611 0.929 . S
H3600 C3614 0.930 . S
H3601 C3616 0.960 . S
H3602 C3616 0.960 . S
H3603 C3616 0.960 . S
C3604 H3596 0.929 . S
C3604 C3605 1.377 . S
C3604 C3606 1.384 . S
C3605 C3604 1.377 . S
C3605 C3611 1.390 . S
C3606 H3597 0.930 . S
C3606 C3604 1.384 . S
C3606 C3607 1.372 . S
C3607 C3606 1.372 . S
C3607 C3608 1.400 . S
C3607 C3612 1.490 . S
C3608 H3598 0.930 . S
C3608 C3607 1.400 . S
C3608 C3611 1.386 . S
H3609 C3625 0.930 . S
H3610 C3626 0.931 . S
C3611 H3599 0.929 . S
C3611 C3605 1.390 . S
C3611 C3608 1.386 . S
C3612 C3607 1.490 . S
C3612 C3614 1.395 . S
C3612 C3615 1.403 . S
H3613 C3619 0.930 . S
C3614 H3600 0.930 . S
C3614 C3612 1.395 . S
C3614 C3617 1.403 . S
C3615 C3612 1.403 . S
C3615 C3616 1.524 . S
C3615 C3619 1.400 . S
C3616 H3601 0.960 . S
C3616 H3602 0.960 . S
C3616 H3603 0.960 . S
C3616 C3615 1.524 . S
C3617 C3614 1.403 . S
C3617 C3618 1.392 . S
C3617 C3621 1.495 . S
C3618 C3617 1.392 . S
C3618 C3619 1.385 . S
C3618 C3620 1.478 . S
C3619 H3613 0.930 . S
C3619 C3615 1.400 . S
C3619 C3618 1.385 . S
C3620 C3618 1.478 . S
C3620 C3622 1.381 . S
C3620 C3626 1.383 . S
C3621 C3617 1.495 . S
C3621 H3627 0.959 . S
C3621 H3628 0.961 . S
C3621 H3629 0.960 . S
C3622 C3620 1.381 . S
C3622 C3623 1.394 . S
C3622 H3630 0.930 . S
C3623 C3622 1.394 . S
C3623 C3624 1.383 . S
C3623 H3631 0.929 . S
C3624 C3623 1.383 . S
C3624 C3625 1.377 . S
C3625 H3609 0.930 . S
C3625 C3624 1.377 . S
C3625 C3626 1.379 . S
C3626 H3610 0.931 . S
C3626 C3620 1.383 . S
C3626 C3625 1.379 . S
H3627 C3621 0.959 . S
H3628 C3621 0.961 . S
H3629 C3621 0.960 . S
H3630 C3622 0.930 . S
H3631 C3623 0.929 . S
H3632 C3640 0.929 . S
H3633 C3642 0.930 . S
H3634 C3644 0.930 . S
H3635 C3647 0.929 . S
H3636 C3650 0.930 . S
H3637 C3652 0.960 . S
H3638 C3652 0.960 . S
H3639 C3652 0.960 . S
C3640 H3632 0.929 . S
C3640 C3641 1.377 . S
C3640 C3642 1.384 . S
C3641 C3640 1.377 . S
C3641 C3647 1.390 . S
C3642 H3633 0.930 . S
C3642 C3640 1.384 . S
C3642 C3643 1.372 . S
C3643 C3642 1.372 . S
C3643 C3644 1.400 . S
C3643 C3648 1.490 . S
C3644 H3634 0.930 . S
C3644 C3643 1.400 . S
C3644 C3647 1.386 . S
H3645 C3661 0.930 . S
H3646 C3662 0.931 . S
C3647 H3635 0.929 . S
C3647 C3641 1.390 . S
C3647 C3644 1.386 . S
C3648 C3643 1.490 . S
C3648 C3650 1.395 . S
C3648 C3651 1.403 . S
H3649 C3655 0.930 . S
C3650 H3636 0.930 . S
C3650 C3648 1.395 . S
C3650 C3653 1.403 . S
C3651 C3648 1.403 . S
C3651 C3652 1.524 . S
C3651 C3655 1.400 . S
C3652 H3637 0.960 . S
C3652 H3638 0.960 . S
C3652 H3639 0.960 . S
C3652 C3651 1.524 . S
C3653 C3650 1.403 . S
C3653 C3654 1.392 . S
C3653 C3657 1.495 . S
C3654 C3653 1.392 . S
C3654 C3655 1.385 . S
C3654 C3656 1.478 . S
C3655 H3649 0.930 . S
C3655 C3651 1.400 . S
C3655 C3654 1.385 . S
C3656 C3654 1.478 . S
C3656 C3658 1.381 . S
C3656 C3662 1.383 . S
C3657 C3653 1.495 . S
C3657 H3663 0.959 . S
C3657 H3664 0.961 . S
C3657 H3665 0.960 . S
C3658 C3656 1.381 . S
C3658 C3659 1.394 . S
C3658 H3666 0.930 . S
C3659 C3658 1.394 . S
C3659 C3660 1.383 . S
C3659 H3667 0.929 . S
C3660 C3659 1.383 . S
C3660 C3661 1.377 . S
C3661 H3645 0.930 . S
C3661 C3660 1.377 . S
C3661 C3662 1.379 . S
C3662 H3646 0.931 . S
C3662 C3656 1.383 . S
C3662 C3661 1.379 . S
H3663 C3657 0.959 . S
H3664 C3657 0.961 . S
H3665 C3657 0.960 . S
H3666 C3658 0.930 . S
H3667 C3659 0.929 . S
H3668 C3676 0.929 . S
H3669 C3678 0.930 . S
H3670 C3680 0.930 . S
H3671 C3683 0.929 . S
H3672 C3686 0.930 . S
H3673 C3688 0.960 . S
H3674 C3688 0.960 . S
H3675 C3688 0.960 . S
C3676 H3668 0.929 . S
C3676 C3677 1.377 . S
C3676 C3678 1.384 . S
C3677 C3676 1.377 . S
C3677 C3683 1.390 . S
C3678 H3669 0.930 . S
C3678 C3676 1.384 . S
C3678 C3679 1.372 . S
C3679 C3678 1.372 . S
C3679 C3680 1.400 . S
C3679 C3684 1.490 . S
C3680 H3670 0.930 . S
C3680 C3679 1.400 . S
C3680 C3683 1.386 . S
H3681 C3697 0.930 . S
H3682 C3698 0.931 . S
C3683 H3671 0.929 . S
C3683 C3677 1.390 . S
C3683 C3680 1.386 . S
C3684 C3679 1.490 . S
C3684 C3686 1.395 . S
C3684 C3687 1.403 . S
H3685 C3691 0.930 . S
C3686 H3672 0.930 . S
C3686 C3684 1.395 . S
C3686 C3689 1.403 . S
C3687 C3684 1.403 . S
C3687 C3688 1.524 . S
C3687 C3691 1.400 . S
C3688 H3673 0.960 . S
C3688 H3674 0.960 . S
C3688 H3675 0.960 . S
C3688 C3687 1.524 . S
C3689 C3686 1.403 . S
C3689 C3690 1.392 . S
C3689 C3693 1.495 . S
C3690 C3689 1.392 . S
C3690 C3691 1.385 . S
C3690 C3692 1.478 . S
C3691 H3685 0.930 . S
C3691 C3687 1.400 . S
C3691 C3690 1.385 . S
C3692 C3690 1.478 . S
C3692 C3694 1.381 . S
C3692 C3698 1.383 . S
C3693 C3689 1.495 . S
C3693 H3699 0.959 . S
C3693 H3700 0.961 . S
C3693 H3701 0.960 . S
C3694 C3692 1.381 . S
C3694 C3695 1.394 . S
C3694 H3702 0.930 . S
C3695 C3694 1.394 . S
C3695 C3696 1.383 . S
C3695 H3703 0.929 . S
C3696 C3695 1.383 . S
C3696 C3697 1.377 . S
C3697 H3681 0.930 . S
C3697 C3696 1.377 . S
C3697 C3698 1.379 . S
C3698 H3682 0.931 . S
C3698 C3692 1.383 . S
C3698 C3697 1.379 . S
H3699 C3693 0.959 . S
H3700 C3693 0.961 . S
H3701 C3693 0.960 . S
H3702 C3694 0.930 . S
H3703 C3695 0.929 . S
H3704 C3712 0.929 . S
H3705 C3714 0.930 . S
H3706 C3716 0.930 . S
H3707 C3719 0.929 . S
H3708 C3722 0.930 . S
H3709 C3724 0.960 . S
H3710 C3724 0.960 . S
H3711 C3724 0.960 . S
C3712 H3704 0.929 . S
C3712 C3713 1.377 . S
C3712 C3714 1.384 . S
C3713 C3712 1.377 . S
C3713 C3719 1.390 . S
C3714 H3705 0.930 . S
C3714 C3712 1.384 . S
C3714 C3715 1.372 . S
C3715 C3714 1.372 . S
C3715 C3716 1.400 . S
C3715 C3720 1.490 . S
C3716 H3706 0.930 . S
C3716 C3715 1.400 . S
C3716 C3719 1.386 . S
H3717 C3733 0.930 . S
H3718 C3734 0.931 . S
C3719 H3707 0.929 . S
C3719 C3713 1.390 . S
C3719 C3716 1.386 . S
C3720 C3715 1.490 . S
C3720 C3722 1.395 . S
C3720 C3723 1.403 . S
H3721 C3727 0.930 . S
C3722 H3708 0.930 . S
C3722 C3720 1.395 . S
C3722 C3725 1.403 . S
C3723 C3720 1.403 . S
C3723 C3724 1.524 . S
C3723 C3727 1.400 . S
C3724 H3709 0.960 . S
C3724 H3710 0.960 . S
C3724 H3711 0.960 . S
C3724 C3723 1.524 . S
C3725 C3722 1.403 . S
C3725 C3726 1.392 . S
C3725 C3729 1.495 . S
C3726 C3725 1.392 . S
C3726 C3727 1.385 . S
C3726 C3728 1.478 . S
C3727 H3721 0.930 . S
C3727 C3723 1.400 . S
C3727 C3726 1.385 . S
C3728 C3726 1.478 . S
C3728 C3730 1.381 . S
C3728 C3734 1.383 . S
C3729 C3725 1.495 . S
C3729 H3735 0.959 . S
C3729 H3736 0.961 . S
C3729 H3737 0.960 . S
C3730 C3728 1.381 . S
C3730 C3731 1.394 . S
C3730 H3738 0.930 . S
C3731 C3730 1.394 . S
C3731 C3732 1.383 . S
C3731 H3739 0.929 . S
C3732 C3731 1.383 . S
C3732 C3733 1.377 . S
C3733 H3717 0.930 . S
C3733 C3732 1.377 . S
C3733 C3734 1.379 . S
C3734 H3718 0.931 . S
C3734 C3728 1.383 . S
C3734 C3733 1.379 . S
H3735 C3729 0.959 . S
H3736 C3729 0.961 . S
H3737 C3729 0.960 . S
H3738 C3730 0.930 . S
H3739 C3731 0.929 . S
H3740 C3748 0.929 . S
H3741 C3750 0.930 . S
H3742 C3752 0.930 . S
H3743 C3755 0.929 . S
H3744 C3758 0.930 . S
H3745 C3760 0.960 . S
H3746 C3760 0.960 . S
H3747 C3760 0.960 . S
C3748 H3740 0.929 . S
C3748 C3749 1.377 . S
C3748 C3750 1.384 . S
C3749 C3748 1.377 . S
C3749 C3755 1.390 . S
C3750 H3741 0.930 . S
C3750 C3748 1.384 . S
C3750 C3751 1.372 . S
C3751 C3750 1.372 . S
C3751 C3752 1.400 . S
C3751 C3756 1.490 . S
C3752 H3742 0.930 . S
C3752 C3751 1.400 . S
C3752 C3755 1.386 . S
H3753 C3769 0.930 . S
H3754 C3770 0.931 . S
C3755 H3743 0.929 . S
C3755 C3749 1.390 . S
C3755 C3752 1.386 . S
C3756 C3751 1.490 . S
C3756 C3758 1.395 . S
C3756 C3759 1.403 . S
H3757 C3763 0.930 . S
C3758 H3744 0.930 . S
C3758 C3756 1.395 . S
C3758 C3761 1.403 . S
C3759 C3756 1.403 . S
C3759 C3760 1.524 . S
C3759 C3763 1.400 . S
C3760 H3745 0.960 . S
C3760 H3746 0.960 . S
C3760 H3747 0.960 . S
C3760 C3759 1.524 . S
C3761 C3758 1.403 . S
C3761 C3762 1.392 . S
C3761 C3765 1.495 . S
C3762 C3761 1.392 . S
C3762 C3763 1.385 . S
C3762 C3764 1.478 . S
C3763 H3757 0.930 . S
C3763 C3759 1.400 . S
C3763 C3762 1.385 . S
C3764 C3762 1.478 . S
C3764 C3766 1.381 . S
C3764 C3770 1.383 . S
C3765 C3761 1.495 . S
C3765 H3771 0.959 . S
C3765 H3772 0.961 . S
C3765 H3773 0.960 . S
C3766 C3764 1.381 . S
C3766 C3767 1.394 . S
C3766 H3774 0.930 . S
C3767 C3766 1.394 . S
C3767 C3768 1.383 . S
C3767 H3775 0.929 . S
C3768 C3767 1.383 . S
C3768 C3769 1.377 . S
C3769 H3753 0.930 . S
C3769 C3768 1.377 . S
C3769 C3770 1.379 . S
C3770 H3754 0.931 . S
C3770 C3764 1.383 . S
C3770 C3769 1.379 . S
H3771 C3765 0.959 . S
H3772 C3765 0.961 . S
H3773 C3765 0.960 . S
H3774 C3766 0.930 . S
H3775 C3767 0.929 . S
H3776 C3784 0.929 . S
H3777 C3786 0.930 . S
H3778 C3788 0.930 . S
H3779 C3791 0.929 . S
H3780 C3794 0.930 . S
H3781 C3796 0.960 . S
H3782 C3796 0.960 . S
H3783 C3796 0.960 . S
C3784 H3776 0.929 . S
C3784 C3785 1.377 . S
C3784 C3786 1.384 . S
C3785 C3784 1.377 . S
C3785 C3791 1.390 . S
C3786 H3777 0.930 . S
C3786 C3784 1.384 . S
C3786 C3787 1.372 . S
C3787 C3786 1.372 . S
C3787 C3788 1.400 . S
C3787 C3792 1.490 . S
C3788 H3778 0.930 . S
C3788 C3787 1.400 . S
C3788 C3791 1.386 . S
H3789 C3805 0.930 . S
H3790 C3806 0.931 . S
C3791 H3779 0.929 . S
C3791 C3785 1.390 . S
C3791 C3788 1.386 . S
C3792 C3787 1.490 . S
C3792 C3794 1.395 . S
C3792 C3795 1.403 . S
H3793 C3799 0.930 . S
C3794 H3780 0.930 . S
C3794 C3792 1.395 . S
C3794 C3797 1.403 . S
C3795 C3792 1.403 . S
C3795 C3796 1.524 . S
C3795 C3799 1.400 . S
C3796 H3781 0.960 . S
C3796 H3782 0.960 . S
C3796 H3783 0.960 . S
C3796 C3795 1.524 . S
C3797 C3794 1.403 . S
C3797 C3798 1.392 . S
C3797 C3801 1.495 . S
C3798 C3797 1.392 . S
C3798 C3799 1.385 . S
C3798 C3800 1.478 . S
C3799 H3793 0.930 . S
C3799 C3795 1.400 . S
C3799 C3798 1.385 . S
C3800 C3798 1.478 . S
C3800 C3802 1.381 . S
C3800 C3806 1.383 . S
C3801 C3797 1.495 . S
C3801 H3807 0.959 . S
C3801 H3808 0.961 . S
C3801 H3809 0.960 . S
C3802 C3800 1.381 . S
C3802 C3803 1.394 . S
C3802 H3810 0.930 . S
C3803 C3802 1.394 . S
C3803 C3804 1.383 . S
C3803 H3811 0.929 . S
C3804 C3803 1.383 . S
C3804 C3805 1.377 . S
C3805 H3789 0.930 . S
C3805 C3804 1.377 . S
C3805 C3806 1.379 . S
C3806 H3790 0.931 . S
C3806 C3800 1.383 . S
C3806 C3805 1.379 . S
H3807 C3801 0.959 . S
H3808 C3801 0.961 . S
H3809 C3801 0.960 . S
H3810 C3802 0.930 . S
H3811 C3803 0.929 . S
H3812 C3820 0.929 . S
H3813 C3822 0.930 . S
H3814 C3824 0.930 . S
H3815 C3827 0.929 . S
H3816 C3830 0.930 . S
H3817 C3832 0.960 . S
H3818 C3832 0.960 . S
H3819 C3832 0.960 . S
C3820 H3812 0.929 . S
C3820 C3821 1.377 . S
C3820 C3822 1.384 . S
C3821 C3820 1.377 . S
C3821 C3827 1.390 . S
C3822 H3813 0.930 . S
C3822 C3820 1.384 . S
C3822 C3823 1.372 . S
C3823 C3822 1.372 . S
C3823 C3824 1.400 . S
C3823 C3828 1.490 . S
C3824 H3814 0.930 . S
C3824 C3823 1.400 . S
C3824 C3827 1.386 . S
H3825 C3841 0.930 . S
H3826 C3842 0.931 . S
C3827 H3815 0.929 . S
C3827 C3821 1.390 . S
C3827 C3824 1.386 . S
C3828 C3823 1.490 . S
C3828 C3830 1.395 . S
C3828 C3831 1.403 . S
H3829 C3835 0.930 . S
C3830 H3816 0.930 . S
C3830 C3828 1.395 . S
C3830 C3833 1.403 . S
C3831 C3828 1.403 . S
C3831 C3832 1.524 . S
C3831 C3835 1.400 . S
C3832 H3817 0.960 . S
C3832 H3818 0.960 . S
C3832 H3819 0.960 . S
C3832 C3831 1.524 . S
C3833 C3830 1.403 . S
C3833 C3834 1.392 . S
C3833 C3837 1.495 . S
C3834 C3833 1.392 . S
C3834 C3835 1.385 . S
C3834 C3836 1.478 . S
C3835 H3829 0.930 . S
C3835 C3831 1.400 . S
C3835 C3834 1.385 . S
C3836 C3834 1.478 . S
C3836 C3838 1.381 . S
C3836 C3842 1.383 . S
C3837 C3833 1.495 . S
C3837 H3843 0.959 . S
C3837 H3844 0.961 . S
C3837 H3845 0.960 . S
C3838 C3836 1.381 . S
C3838 C3839 1.394 . S
C3838 H3846 0.930 . S
C3839 C3838 1.394 . S
C3839 C3840 1.383 . S
C3839 H3847 0.929 . S
C3840 C3839 1.383 . S
C3840 C3841 1.377 . S
C3841 H3825 0.930 . S
C3841 C3840 1.377 . S
C3841 C3842 1.379 . S
C3842 H3826 0.931 . S
C3842 C3836 1.383 . S
C3842 C3841 1.379 . S
H3843 C3837 0.959 . S
H3844 C3837 0.961 . S
H3845 C3837 0.960 . S
H3846 C3838 0.930 . S
H3847 C3839 0.929 . S
H3848 C3856 0.929 . S
H3849 C3858 0.930 . S
H3850 C3860 0.930 . S
H3851 C3863 0.929 . S
H3852 C3866 0.930 . S
H3853 C3868 0.960 . S
H3854 C3868 0.960 . S
H3855 C3868 0.960 . S
C3856 H3848 0.929 . S
C3856 C3857 1.377 . S
C3856 C3858 1.384 . S
C3857 C3856 1.377 . S
C3857 C3863 1.390 . S
C3858 H3849 0.930 . S
C3858 C3856 1.384 . S
C3858 C3859 1.372 . S
C3859 C3858 1.372 . S
C3859 C3860 1.400 . S
C3859 C3864 1.490 . S
C3860 H3850 0.930 . S
C3860 C3859 1.400 . S
C3860 C3863 1.386 . S
H3861 C3877 0.930 . S
H3862 C3878 0.931 . S
C3863 H3851 0.929 . S
C3863 C3857 1.390 . S
C3863 C3860 1.386 . S
C3864 C3859 1.490 . S
C3864 C3866 1.395 . S
C3864 C3867 1.403 . S
H3865 C3871 0.930 . S
C3866 H3852 0.930 . S
C3866 C3864 1.395 . S
C3866 C3869 1.403 . S
C3867 C3864 1.403 . S
C3867 C3868 1.524 . S
C3867 C3871 1.400 . S
C3868 H3853 0.960 . S
C3868 H3854 0.960 . S
C3868 H3855 0.960 . S
C3868 C3867 1.524 . S
C3869 C3866 1.403 . S
C3869 C3870 1.392 . S
C3869 C3873 1.495 . S
C3870 C3869 1.392 . S
C3870 C3871 1.385 . S
C3870 C3872 1.478 . S
C3871 H3865 0.930 . S
C3871 C3867 1.400 . S
C3871 C3870 1.385 . S
C3872 C3870 1.478 . S
C3872 C3874 1.381 . S
C3872 C3878 1.383 . S
C3873 C3869 1.495 . S
C3873 H3879 0.959 . S
C3873 H3880 0.961 . S
C3873 H3881 0.960 . S
C3874 C3872 1.381 . S
C3874 C3875 1.394 . S
C3874 H3882 0.930 . S
C3875 C3874 1.394 . S
C3875 C3876 1.383 . S
C3875 H3883 0.929 . S
C3876 C3875 1.383 . S
C3876 C3877 1.377 . S
C3877 H3861 0.930 . S
C3877 C3876 1.377 . S
C3877 C3878 1.379 . S
C3878 H3862 0.931 . S
C3878 C3872 1.383 . S
C3878 C3877 1.379 . S
H3879 C3873 0.959 . S
H3880 C3873 0.961 . S
H3881 C3873 0.960 . S
H3882 C3874 0.930 . S
H3883 C3875 0.929 . S
H3884 C3892 0.929 . S
H3885 C3894 0.930 . S
H3886 C3896 0.930 . S
H3887 C3899 0.929 . S
H3888 C3902 0.930 . S
H3889 C3904 0.960 . S
H3890 C3904 0.960 . S
H3891 C3904 0.960 . S
C3892 H3884 0.929 . S
C3892 C3893 1.377 . S
C3892 C3894 1.384 . S
C3893 C3892 1.377 . S
C3893 C3899 1.390 . S
C3894 H3885 0.930 . S
C3894 C3892 1.384 . S
C3894 C3895 1.372 . S
C3895 C3894 1.372 . S
C3895 C3896 1.400 . S
C3895 C3900 1.490 . S
C3896 H3886 0.930 . S
C3896 C3895 1.400 . S
C3896 C3899 1.386 . S
H3897 C3913 0.930 . S
H3898 C3914 0.931 . S
C3899 H3887 0.929 . S
C3899 C3893 1.390 . S
C3899 C3896 1.386 . S
C3900 C3895 1.490 . S
C3900 C3902 1.395 . S
C3900 C3903 1.403 . S
H3901 C3907 0.930 . S
C3902 H3888 0.930 . S
C3902 C3900 1.395 . S
C3902 C3905 1.403 . S
C3903 C3900 1.403 . S
C3903 C3904 1.524 . S
C3903 C3907 1.400 . S
C3904 H3889 0.960 . S
C3904 H3890 0.960 . S
C3904 H3891 0.960 . S
C3904 C3903 1.524 . S
C3905 C3902 1.403 . S
C3905 C3906 1.392 . S
C3905 C3909 1.495 . S
C3906 C3905 1.392 . S
C3906 C3907 1.385 . S
C3906 C3908 1.478 . S
C3907 H3901 0.930 . S
C3907 C3903 1.400 . S
C3907 C3906 1.385 . S
C3908 C3906 1.478 . S
C3908 C3910 1.381 . S
C3908 C3914 1.383 . S
C3909 C3905 1.495 . S
C3909 H3915 0.959 . S
C3909 H3916 0.961 . S
C3909 H3917 0.960 . S
C3910 C3908 1.381 . S
C3910 C3911 1.394 . S
C3910 H3918 0.930 . S
C3911 C3910 1.394 . S
C3911 C3912 1.383 . S
C3911 H3919 0.929 . S
C3912 C3911 1.383 . S
C3912 C3913 1.377 . S
C3913 H3897 0.930 . S
C3913 C3912 1.377 . S
C3913 C3914 1.379 . S
C3914 H3898 0.931 . S
C3914 C3908 1.383 . S
C3914 C3913 1.379 . S
H3915 C3909 0.959 . S
H3916 C3909 0.961 . S
H3917 C3909 0.960 . S
H3918 C3910 0.930 . S
H3919 C3911 0.929 . S
H3920 C3928 0.929 . S
H3921 C3930 0.930 . S
H3922 C3932 0.930 . S
H3923 C3935 0.929 . S
H3924 C3938 0.930 . S
H3925 C3940 0.960 . S
H3926 C3940 0.960 . S
H3927 C3940 0.960 . S
C3928 H3920 0.929 . S
C3928 C3929 1.377 . S
C3928 C3930 1.384 . S
C3929 C3928 1.377 . S
C3929 C3935 1.390 . S
C3930 H3921 0.930 . S
C3930 C3928 1.384 . S
C3930 C3931 1.372 . S
C3931 C3930 1.372 . S
C3931 C3932 1.400 . S
C3931 C3936 1.490 . S
C3932 H3922 0.930 . S
C3932 C3931 1.400 . S
C3932 C3935 1.386 . S
H3933 C3949 0.930 . S
H3934 C3950 0.931 . S
C3935 H3923 0.929 . S
C3935 C3929 1.390 . S
C3935 C3932 1.386 . S
C3936 C3931 1.490 . S
C3936 C3938 1.395 . S
C3936 C3939 1.403 . S
H3937 C3943 0.930 . S
C3938 H3924 0.930 . S
C3938 C3936 1.395 . S
C3938 C3941 1.403 . S
C3939 C3936 1.403 . S
C3939 C3940 1.524 . S
C3939 C3943 1.400 . S
C3940 H3925 0.960 . S
C3940 H3926 0.960 . S
C3940 H3927 0.960 . S
C3940 C3939 1.524 . S
C3941 C3938 1.403 . S
C3941 C3942 1.392 . S
C3941 C3945 1.495 . S
C3942 C3941 1.392 . S
C3942 C3943 1.385 . S
C3942 C3944 1.478 . S
C3943 H3937 0.930 . S
C3943 C3939 1.400 . S
C3943 C3942 1.385 . S
C3944 C3942 1.478 . S
C3944 C3946 1.381 . S
C3944 C3950 1.383 . S
C3945 C3941 1.495 . S
C3945 H3951 0.959 . S
C3945 H3952 0.961 . S
C3945 H3953 0.960 . S
C3946 C3944 1.381 . S
C3946 C3947 1.394 . S
C3946 H3954 0.930 . S
C3947 C3946 1.394 . S
C3947 C3948 1.383 . S
C3947 H3955 0.929 . S
C3948 C3947 1.383 . S
C3948 C3949 1.377 . S
C3949 H3933 0.930 . S
C3949 C3948 1.377 . S
C3949 C3950 1.379 . S
C3950 H3934 0.931 . S
C3950 C3944 1.383 . S
C3950 C3949 1.379 . S
H3951 C3945 0.959 . S
H3952 C3945 0.961 . S
H3953 C3945 0.960 . S
H3954 C3946 0.930 . S
H3955 C3947 0.929 . S
H3956 C3964 0.929 . S
H3957 C3966 0.930 . S
H3958 C3968 0.930 . S
H3959 C3971 0.929 . S
H3960 C3974 0.930 . S
H3961 C3976 0.960 . S
H3962 C3976 0.960 . S
H3963 C3976 0.960 . S
C3964 H3956 0.929 . S
C3964 C3965 1.377 . S
C3964 C3966 1.384 . S
C3965 C3964 1.377 . S
C3965 C3971 1.390 . S
C3966 H3957 0.930 . S
C3966 C3964 1.384 . S
C3966 C3967 1.372 . S
C3967 C3966 1.372 . S
C3967 C3968 1.400 . S
C3967 C3972 1.490 . S
C3968 H3958 0.930 . S
C3968 C3967 1.400 . S
C3968 C3971 1.386 . S
H3969 C3985 0.930 . S
H3970 C3986 0.931 . S
C3971 H3959 0.929 . S
C3971 C3965 1.390 . S
C3971 C3968 1.386 . S
C3972 C3967 1.490 . S
C3972 C3974 1.395 . S
C3972 C3975 1.403 . S
H3973 C3979 0.930 . S
C3974 H3960 0.930 . S
C3974 C3972 1.395 . S
C3974 C3977 1.403 . S
C3975 C3972 1.403 . S
C3975 C3976 1.524 . S
C3975 C3979 1.400 . S
C3976 H3961 0.960 . S
C3976 H3962 0.960 . S
C3976 H3963 0.960 . S
C3976 C3975 1.524 . S
C3977 C3974 1.403 . S
C3977 C3978 1.392 . S
C3977 C3981 1.495 . S
C3978 C3977 1.392 . S
C3978 C3979 1.385 . S
C3978 C3980 1.478 . S
C3979 H3973 0.930 . S
C3979 C3975 1.400 . S
C3979 C3978 1.385 . S
C3980 C3978 1.478 . S
C3980 C3982 1.381 . S
C3980 C3986 1.383 . S
C3981 C3977 1.495 . S
C3981 H3987 0.959 . S
C3981 H3988 0.961 . S
C3981 H3989 0.960 . S
C3982 C3980 1.381 . S
C3982 C3983 1.394 . S
C3982 H3990 0.930 . S
C3983 C3982 1.394 . S
C3983 C3984 1.383 . S
C3983 H3991 0.929 . S
C3984 C3983 1.383 . S
C3984 C3985 1.377 . S
C3985 H3969 0.930 . S
C3985 C3984 1.377 . S
C3985 C3986 1.379 . S
C3986 H3970 0.931 . S
C3986 C3980 1.383 . S
C3986 C3985 1.379 . S
H3987 C3981 0.959 . S
H3988 C3981 0.961 . S
H3989 C3981 0.960 . S
H3990 C3982 0.930 . S
H3991 C3983 0.929 . S
H3992 C4000 0.929 . S
H3993 C4002 0.930 . S
H3994 C4004 0.930 . S
H3995 C4007 0.929 . S
H3996 C4010 0.930 . S
H3997 C4012 0.960 . S
H3998 C4012 0.960 . S
H3999 C4012 0.960 . S
C4000 H3992 0.929 . S
C4000 C4001 1.377 . S
C4000 C4002 1.384 . S
C4001 C4000 1.377 . S
C4001 C4007 1.390 . S
C4002 H3993 0.930 . S
C4002 C4000 1.384 . S
C4002 C4003 1.372 . S
C4003 C4002 1.372 . S
C4003 C4004 1.400 . S
C4003 C4008 1.490 . S
C4004 H3994 0.930 . S
C4004 C4003 1.400 . S
C4004 C4007 1.386 . S
H4005 C4021 0.930 . S
H4006 C4022 0.931 . S
C4007 H3995 0.929 . S
C4007 C4001 1.390 . S
C4007 C4004 1.386 . S
C4008 C4003 1.490 . S
C4008 C4010 1.395 . S
C4008 C4011 1.403 . S
H4009 C4015 0.930 . S
C4010 H3996 0.930 . S
C4010 C4008 1.395 . S
C4010 C4013 1.403 . S
C4011 C4008 1.403 . S
C4011 C4012 1.524 . S
C4011 C4015 1.400 . S
C4012 H3997 0.960 . S
C4012 H3998 0.960 . S
C4012 H3999 0.960 . S
C4012 C4011 1.524 . S
C4013 C4010 1.403 . S
C4013 C4014 1.392 . S
C4013 C4017 1.495 . S
C4014 C4013 1.392 . S
C4014 C4015 1.385 . S
C4014 C4016 1.478 . S
C4015 H4009 0.930 . S
C4015 C4011 1.400 . S
C4015 C4014 1.385 . S
C4016 C4014 1.478 . S
C4016 C4018 1.381 . S
C4016 C4022 1.383 . S
C4017 C4013 1.495 . S
C4017 H4023 0.959 . S
C4017 H4024 0.961 . S
C4017 H4025 0.960 . S
C4018 C4016 1.381 . S
C4018 C4019 1.394 . S
C4018 H4026 0.930 . S
C4019 C4018 1.394 . S
C4019 C4020 1.383 . S
C4019 H4027 0.929 . S
C4020 C4019 1.383 . S
C4020 C4021 1.377 . S
C4021 H4005 0.930 . S
C4021 C4020 1.377 . S
C4021 C4022 1.379 . S
C4022 H4006 0.931 . S
C4022 C4016 1.383 . S
C4022 C4021 1.379 . S
H4023 C4017 0.959 . S
H4024 C4017 0.961 . S
H4025 C4017 0.960 . S
H4026 C4018 0.930 . S
H4027 C4019 0.929 . S
H4028 C4036 0.929 . S
H4029 C4038 0.930 . S
H4030 C4040 0.930 . S
H4031 C4043 0.929 . S
H4032 C4046 0.930 . S
H4033 C4048 0.960 . S
H4034 C4048 0.960 . S
H4035 C4048 0.960 . S
C4036 H4028 0.929 . S
C4036 C4037 1.377 . S
C4036 C4038 1.384 . S
C4037 C4036 1.377 . S
C4037 C4043 1.390 . S
C4038 H4029 0.930 . S
C4038 C4036 1.384 . S
C4038 C4039 1.372 . S
C4039 C4038 1.372 . S
C4039 C4040 1.400 . S
C4039 C4044 1.490 . S
C4040 H4030 0.930 . S
C4040 C4039 1.400 . S
C4040 C4043 1.386 . S
H4041 C4057 0.930 . S
H4042 C4058 0.931 . S
C4043 H4031 0.929 . S
C4043 C4037 1.390 . S
C4043 C4040 1.386 . S
C4044 C4039 1.490 . S
C4044 C4046 1.395 . S
C4044 C4047 1.403 . S
H4045 C4051 0.930 . S
C4046 H4032 0.930 . S
C4046 C4044 1.395 . S
C4046 C4049 1.403 . S
C4047 C4044 1.403 . S
C4047 C4048 1.524 . S
C4047 C4051 1.400 . S
C4048 H4033 0.960 . S
C4048 H4034 0.960 . S
C4048 H4035 0.960 . S
C4048 C4047 1.524 . S
C4049 C4046 1.403 . S
C4049 C4050 1.392 . S
C4049 C4053 1.495 . S
C4050 C4049 1.392 . S
C4050 C4051 1.385 . S
C4050 C4052 1.478 . S
C4051 H4045 0.930 . S
C4051 C4047 1.400 . S
C4051 C4050 1.385 . S
C4052 C4050 1.478 . S
C4052 C4054 1.381 . S
C4052 C4058 1.383 . S
C4053 C4049 1.495 . S
C4053 H4059 0.959 . S
C4053 H4060 0.961 . S
C4053 H4061 0.960 . S
C4054 C4052 1.381 . S
C4054 C4055 1.394 . S
C4054 H4062 0.930 . S
C4055 C4054 1.394 . S
C4055 C4056 1.383 . S
C4055 H4063 0.929 . S
C4056 C4055 1.383 . S
C4056 C4057 1.377 . S
C4057 H4041 0.930 . S
C4057 C4056 1.377 . S
C4057 C4058 1.379 . S
C4058 H4042 0.931 . S
C4058 C4052 1.383 . S
C4058 C4057 1.379 . S
H4059 C4053 0.959 . S
H4060 C4053 0.961 . S
H4061 C4053 0.960 . S
H4062 C4054 0.930 . S
H4063 C4055 0.929 . S
H4064 C4072 0.929 . S
H4065 C4074 0.930 . S
H4066 C4076 0.930 . S
H4067 C4079 0.929 . S
H4068 C4082 0.930 . S
H4069 C4084 0.960 . S
H4070 C4084 0.960 . S
H4071 C4084 0.960 . S
C4072 H4064 0.929 . S
C4072 C4073 1.377 . S
C4072 C4074 1.384 . S
C4073 C4072 1.377 . S
C4073 C4079 1.390 . S
C4074 H4065 0.930 . S
C4074 C4072 1.384 . S
C4074 C4075 1.372 . S
C4075 C4074 1.372 . S
C4075 C4076 1.400 . S
C4075 C4080 1.490 . S
C4076 H4066 0.930 . S
C4076 C4075 1.400 . S
C4076 C4079 1.386 . S
H4077 C4093 0.930 . S
H4078 C4094 0.931 . S
C4079 H4067 0.929 . S
C4079 C4073 1.390 . S
C4079 C4076 1.386 . S
C4080 C4075 1.490 . S
C4080 C4082 1.395 . S
C4080 C4083 1.403 . S
H4081 C4087 0.930 . S
C4082 H4068 0.930 . S
C4082 C4080 1.395 . S
C4082 C4085 1.403 . S
C4083 C4080 1.403 . S
C4083 C4084 1.524 . S
C4083 C4087 1.400 . S
C4084 H4069 0.960 . S
C4084 H4070 0.960 . S
C4084 H4071 0.960 . S
C4084 C4083 1.524 . S
C4085 C4082 1.403 . S
C4085 C4086 1.392 . S
C4085 C4089 1.495 . S
C4086 C4085 1.392 . S
C4086 C4087 1.385 . S
C4086 C4088 1.478 . S
C4087 H4081 0.930 . S
C4087 C4083 1.400 . S
C4087 C4086 1.385 . S
C4088 C4086 1.478 . S
C4088 C4090 1.381 . S
C4088 C4094 1.383 . S
C4089 C4085 1.495 . S
C4089 H4095 0.959 . S
C4089 H4096 0.961 . S
C4089 H4097 0.960 . S
C4090 C4088 1.381 . S
C4090 C4091 1.394 . S
C4090 H4098 0.930 . S
C4091 C4090 1.394 . S
C4091 C4092 1.383 . S
C4091 H4099 0.929 . S
C4092 C4091 1.383 . S
C4092 C4093 1.377 . S
C4093 H4077 0.930 . S
C4093 C4092 1.377 . S
C4093 C4094 1.379 . S
C4094 H4078 0.931 . S
C4094 C4088 1.383 . S
C4094 C4093 1.379 . S
H4095 C4089 0.959 . S
H4096 C4089 0.961 . S
H4097 C4089 0.960 . S
H4098 C4090 0.930 . S
H4099 C4091 0.929 . S
H4100 C4108 0.929 . S
H4101 C4110 0.930 . S
H4102 C4112 0.930 . S
H4103 C4115 0.929 . S
H4104 C4118 0.930 . S
H4105 C4120 0.960 . S
H4106 C4120 0.960 . S
H4107 C4120 0.960 . S
C4108 H4100 0.929 . S
C4108 C4109 1.377 . S
C4108 C4110 1.384 . S
C4109 C4108 1.377 . S
C4109 C4115 1.390 . S
C4110 H4101 0.930 . S
C4110 C4108 1.384 . S
C4110 C4111 1.372 . S
C4111 C4110 1.372 . S
C4111 C4112 1.400 . S
C4111 C4116 1.490 . S
C4112 H4102 0.930 . S
C4112 C4111 1.400 . S
C4112 C4115 1.386 . S
H4113 C4129 0.930 . S
H4114 C4130 0.931 . S
C4115 H4103 0.929 . S
C4115 C4109 1.390 . S
C4115 C4112 1.386 . S
C4116 C4111 1.490 . S
C4116 C4118 1.395 . S
C4116 C4119 1.403 . S
H4117 C4123 0.930 . S
C4118 H4104 0.930 . S
C4118 C4116 1.395 . S
C4118 C4121 1.403 . S
C4119 C4116 1.403 . S
C4119 C4120 1.524 . S
C4119 C4123 1.400 . S
C4120 H4105 0.960 . S
C4120 H4106 0.960 . S
C4120 H4107 0.960 . S
C4120 C4119 1.524 . S
C4121 C4118 1.403 . S
C4121 C4122 1.392 . S
C4121 C4125 1.495 . S
C4122 C4121 1.392 . S
C4122 C4123 1.385 . S
C4122 C4124 1.478 . S
C4123 H4117 0.930 . S
C4123 C4119 1.400 . S
C4123 C4122 1.385 . S
C4124 C4122 1.478 . S
C4124 C4126 1.381 . S
C4124 C4130 1.383 . S
C4125 C4121 1.495 . S
C4125 H4131 0.959 . S
C4125 H4132 0.961 . S
C4125 H4133 0.960 . S
C4126 C4124 1.381 . S
C4126 C4127 1.394 . S
C4126 H4134 0.930 . S
C4127 C4126 1.394 . S
C4127 C4128 1.383 . S
C4127 H4135 0.929 . S
C4128 C4127 1.383 . S
C4128 C4129 1.377 . S
C4129 H4113 0.930 . S
C4129 C4128 1.377 . S
C4129 C4130 1.379 . S
C4130 H4114 0.931 . S
C4130 C4124 1.383 . S
C4130 C4129 1.379 . S
H4131 C4125 0.959 . S
H4132 C4125 0.961 . S
H4133 C4125 0.960 . S
H4134 C4126 0.930 . S
H4135 C4127 0.929 . S
H4136 C4144 0.929 . S
H4137 C4146 0.930 . S
H4138 C4148 0.930 . S
H4139 C4151 0.929 . S
H4140 C4154 0.930 . S
H4141 C4156 0.960 . S
H4142 C4156 0.960 . S
H4143 C4156 0.960 . S
C4144 H4136 0.929 . S
C4144 C4145 1.377 . S
C4144 C4146 1.384 . S
C4145 C4144 1.377 . S
C4145 C4151 1.390 . S
C4146 H4137 0.930 . S
C4146 C4144 1.384 . S
C4146 C4147 1.372 . S
C4147 C4146 1.372 . S
C4147 C4148 1.400 . S
C4147 C4152 1.490 . S
C4148 H4138 0.930 . S
C4148 C4147 1.400 . S
C4148 C4151 1.386 . S
H4149 C4165 0.930 . S
H4150 C4166 0.931 . S
C4151 H4139 0.929 . S
C4151 C4145 1.390 . S
C4151 C4148 1.386 . S
C4152 C4147 1.490 . S
C4152 C4154 1.395 . S
C4152 C4155 1.403 . S
H4153 C4159 0.930 . S
C4154 H4140 0.930 . S
C4154 C4152 1.395 . S
C4154 C4157 1.403 . S
C4155 C4152 1.403 . S
C4155 C4156 1.524 . S
C4155 C4159 1.400 . S
C4156 H4141 0.960 . S
C4156 H4142 0.960 . S
C4156 H4143 0.960 . S
C4156 C4155 1.524 . S
C4157 C4154 1.403 . S
C4157 C4158 1.392 . S
C4157 C4161 1.495 . S
C4158 C4157 1.392 . S
C4158 C4159 1.385 . S
C4158 C4160 1.478 . S
C4159 H4153 0.930 . S
C4159 C4155 1.400 . S
C4159 C4158 1.385 . S
C4160 C4158 1.478 . S
C4160 C4162 1.381 . S
C4160 C4166 1.383 . S
C4161 C4157 1.495 . S
C4161 H4167 0.959 . S
C4161 H4168 0.961 . S
C4161 H4169 0.960 . S
C4162 C4160 1.381 . S
C4162 C4163 1.394 . S
C4162 H4170 0.930 . S
C4163 C4162 1.394 . S
C4163 C4164 1.383 . S
C4163 H4171 0.929 . S
C4164 C4163 1.383 . S
C4164 C4165 1.377 . S
C4165 H4149 0.930 . S
C4165 C4164 1.377 . S
C4165 C4166 1.379 . S
C4166 H4150 0.931 . S
C4166 C4160 1.383 . S
C4166 C4165 1.379 . S
H4167 C4161 0.959 . S
H4168 C4161 0.961 . S
H4169 C4161 0.960 . S
H4170 C4162 0.930 . S
H4171 C4163 0.929 . S
H4172 C4180 0.929 . S
H4173 C4182 0.930 . S
H4174 C4184 0.930 . S
H4175 C4187 0.929 . S
H4176 C4190 0.930 . S
H4177 C4192 0.960 . S
H4178 C4192 0.960 . S
H4179 C4192 0.960 . S
C4180 H4172 0.929 . S
C4180 C4181 1.377 . S
C4180 C4182 1.384 . S
C4181 C4180 1.377 . S
C4181 C4187 1.390 . S
C4182 H4173 0.930 . S
C4182 C4180 1.384 . S
C4182 C4183 1.372 . S
C4183 C4182 1.372 . S
C4183 C4184 1.400 . S
C4183 C4188 1.490 . S
C4184 H4174 0.930 . S
C4184 C4183 1.400 . S
C4184 C4187 1.386 . S
H4185 C4201 0.930 . S
H4186 C4202 0.931 . S
C4187 H4175 0.929 . S
C4187 C4181 1.390 . S
C4187 C4184 1.386 . S
C4188 C4183 1.490 . S
C4188 C4190 1.395 . S
C4188 C4191 1.403 . S
H4189 C4195 0.930 . S
C4190 H4176 0.930 . S
C4190 C4188 1.395 . S
C4190 C4193 1.403 . S
C4191 C4188 1.403 . S
C4191 C4192 1.524 . S
C4191 C4195 1.400 . S
C4192 H4177 0.960 . S
C4192 H4178 0.960 . S
C4192 H4179 0.960 . S
C4192 C4191 1.524 . S
C4193 C4190 1.403 . S
C4193 C4194 1.392 . S
C4193 C4197 1.495 . S
C4194 C4193 1.392 . S
C4194 C4195 1.385 . S
C4194 C4196 1.478 . S
C4195 H4189 0.930 . S
C4195 C4191 1.400 . S
C4195 C4194 1.385 . S
C4196 C4194 1.478 . S
C4196 C4198 1.381 . S
C4196 C4202 1.383 . S
C4197 C4193 1.495 . S
C4197 H4203 0.959 . S
C4197 H4204 0.961 . S
C4197 H4205 0.960 . S
C4198 C4196 1.381 . S
C4198 C4199 1.394 . S
C4198 H4206 0.930 . S
C4199 C4198 1.394 . S
C4199 C4200 1.383 . S
C4199 H4207 0.929 . S
C4200 C4199 1.383 . S
C4200 C4201 1.377 . S
C4201 H4185 0.930 . S
C4201 C4200 1.377 . S
C4201 C4202 1.379 . S
C4202 H4186 0.931 . S
C4202 C4196 1.383 . S
C4202 C4201 1.379 . S
H4203 C4197 0.959 . S
H4204 C4197 0.961 . S
H4205 C4197 0.960 . S
H4206 C4198 0.930 . S
H4207 C4199 0.929 . S
H4208 C4216 0.929 . S
H4209 C4218 0.930 . S
H4210 C4220 0.930 . S
H4211 C4223 0.929 . S
H4212 C4226 0.930 . S
H4213 C4228 0.960 . S
H4214 C4228 0.960 . S
H4215 C4228 0.960 . S
C4216 H4208 0.929 . S
C4216 C4217 1.377 . S
C4216 C4218 1.384 . S
C4217 C4216 1.377 . S
C4217 C4223 1.390 . S
C4218 H4209 0.930 . S
C4218 C4216 1.384 . S
C4218 C4219 1.372 . S
C4219 C4218 1.372 . S
C4219 C4220 1.400 . S
C4219 C4224 1.490 . S
C4220 H4210 0.930 . S
C4220 C4219 1.400 . S
C4220 C4223 1.386 . S
H4221 C4237 0.930 . S
H4222 C4238 0.931 . S
C4223 H4211 0.929 . S
C4223 C4217 1.390 . S
C4223 C4220 1.386 . S
C4224 C4219 1.490 . S
C4224 C4226 1.395 . S
C4224 C4227 1.403 . S
H4225 C4231 0.930 . S
C4226 H4212 0.930 . S
C4226 C4224 1.395 . S
C4226 C4229 1.403 . S
C4227 C4224 1.403 . S
C4227 C4228 1.524 . S
C4227 C4231 1.400 . S
C4228 H4213 0.960 . S
C4228 H4214 0.960 . S
C4228 H4215 0.960 . S
C4228 C4227 1.524 . S
C4229 C4226 1.403 . S
C4229 C4230 1.392 . S
C4229 C4233 1.495 . S
C4230 C4229 1.392 . S
C4230 C4231 1.385 . S
C4230 C4232 1.478 . S
C4231 H4225 0.930 . S
C4231 C4227 1.400 . S
C4231 C4230 1.385 . S
C4232 C4230 1.478 . S
C4232 C4234 1.381 . S
C4232 C4238 1.383 . S
C4233 C4229 1.495 . S
C4233 H4239 0.959 . S
C4233 H4240 0.961 . S
C4233 H4241 0.960 . S
C4234 C4232 1.381 . S
C4234 C4235 1.394 . S
C4234 H4242 0.930 . S
C4235 C4234 1.394 . S
C4235 C4236 1.383 . S
C4235 H4243 0.929 . S
C4236 C4235 1.383 . S
C4236 C4237 1.377 . S
C4237 H4221 0.930 . S
C4237 C4236 1.377 . S
C4237 C4238 1.379 . S
C4238 H4222 0.931 . S
C4238 C4232 1.383 . S
C4238 C4237 1.379 . S
H4239 C4233 0.959 . S
H4240 C4233 0.961 . S
H4241 C4233 0.960 . S
H4242 C4234 0.930 . S
H4243 C4235 0.929 . S
H4244 C4252 0.929 . S
H4245 C4254 0.930 . S
H4246 C4256 0.930 . S
H4247 C4259 0.929 . S
H4248 C4262 0.930 . S
H4249 C4264 0.960 . S
H4250 C4264 0.960 . S
H4251 C4264 0.960 . S
C4252 H4244 0.929 . S
C4252 C4253 1.377 . S
C4252 C4254 1.384 . S
C4253 C4252 1.377 . S
C4253 C4259 1.390 . S
C4254 H4245 0.930 . S
C4254 C4252 1.384 . S
C4254 C4255 1.372 . S
C4255 C4254 1.372 . S
C4255 C4256 1.400 . S
C4255 C4260 1.490 . S
C4256 H4246 0.930 . S
C4256 C4255 1.400 . S
C4256 C4259 1.386 . S
H4257 C4273 0.930 . S
H4258 C4274 0.931 . S
C4259 H4247 0.929 . S
C4259 C4253 1.390 . S
C4259 C4256 1.386 . S
C4260 C4255 1.490 . S
C4260 C4262 1.395 . S
C4260 C4263 1.403 . S
H4261 C4267 0.930 . S
C4262 H4248 0.930 . S
C4262 C4260 1.395 . S
C4262 C4265 1.403 . S
C4263 C4260 1.403 . S
C4263 C4264 1.524 . S
C4263 C4267 1.400 . S
C4264 H4249 0.960 . S
C4264 H4250 0.960 . S
C4264 H4251 0.960 . S
C4264 C4263 1.524 . S
C4265 C4262 1.403 . S
C4265 C4266 1.392 . S
C4265 C4269 1.495 . S
C4266 C4265 1.392 . S
C4266 C4267 1.385 . S
C4266 C4268 1.478 . S
C4267 H4261 0.930 . S
C4267 C4263 1.400 . S
C4267 C4266 1.385 . S
C4268 C4266 1.478 . S
C4268 C4270 1.381 . S
C4268 C4274 1.383 . S
C4269 C4265 1.495 . S
C4269 H4275 0.959 . S
C4269 H4276 0.961 . S
C4269 H4277 0.960 . S
C4270 C4268 1.381 . S
C4270 C4271 1.394 . S
C4270 H4278 0.930 . S
C4271 C4270 1.394 . S
C4271 C4272 1.383 . S
C4271 H4279 0.929 . S
C4272 C4271 1.383 . S
C4272 C4273 1.377 . S
C4273 H4257 0.930 . S
C4273 C4272 1.377 . S
C4273 C4274 1.379 . S
C4274 H4258 0.931 . S
C4274 C4268 1.383 . S
C4274 C4273 1.379 . S
H4275 C4269 0.959 . S
H4276 C4269 0.961 . S
H4277 C4269 0.960 . S
H4278 C4270 0.930 . S
H4279 C4271 0.929 . S
H4280 C4288 0.929 . S
H4281 C4290 0.930 . S
H4282 C4292 0.930 . S
H4283 C4295 0.929 . S
H4284 C4298 0.930 . S
H4285 C4300 0.960 . S
H4286 C4300 0.960 . S
H4287 C4300 0.960 . S
C4288 H4280 0.929 . S
C4288 C4289 1.377 . S
C4288 C4290 1.384 . S
C4289 C4288 1.377 . S
C4289 C4295 1.390 . S
C4290 H4281 0.930 . S
C4290 C4288 1.384 . S
C4290 C4291 1.372 . S
C4291 C4290 1.372 . S
C4291 C4292 1.400 . S
C4291 C4296 1.490 . S
C4292 H4282 0.930 . S
C4292 C4291 1.400 . S
C4292 C4295 1.386 . S
H4293 C4309 0.930 . S
H4294 C4310 0.931 . S
C4295 H4283 0.929 . S
C4295 C4289 1.390 . S
C4295 C4292 1.386 . S
C4296 C4291 1.490 . S
C4296 C4298 1.395 . S
C4296 C4299 1.403 . S
H4297 C4303 0.930 . S
C4298 H4284 0.930 . S
C4298 C4296 1.395 . S
C4298 C4301 1.403 . S
C4299 C4296 1.403 . S
C4299 C4300 1.524 . S
C4299 C4303 1.400 . S
C4300 H4285 0.960 . S
C4300 H4286 0.960 . S
C4300 H4287 0.960 . S
C4300 C4299 1.524 . S
C4301 C4298 1.403 . S
C4301 C4302 1.392 . S
C4301 C4305 1.495 . S
C4302 C4301 1.392 . S
C4302 C4303 1.385 . S
C4302 C4304 1.478 . S
C4303 H4297 0.930 . S
C4303 C4299 1.400 . S
C4303 C4302 1.385 . S
C4304 C4302 1.478 . S
C4304 C4306 1.381 . S
C4304 C4310 1.383 . S
C4305 C4301 1.495 . S
C4305 H4311 0.959 . S
C4305 H4312 0.961 . S
C4305 H4313 0.960 . S
C4306 C4304 1.381 . S
C4306 C4307 1.394 . S
C4306 H4314 0.930 . S
C4307 C4306 1.394 . S
C4307 C4308 1.383 . S
C4307 H4315 0.929 . S
C4308 C4307 1.383 . S
C4308 C4309 1.377 . S
C4309 H4293 0.930 . S
C4309 C4308 1.377 . S
C4309 C4310 1.379 . S
C4310 H4294 0.931 . S
C4310 C4304 1.383 . S
C4310 C4309 1.379 . S
H4311 C4305 0.959 . S
H4312 C4305 0.961 . S
H4313 C4305 0.960 . S
H4314 C4306 0.930 . S
H4315 C4307 0.929 . S
H4316 C4324 0.929 . S
H4317 C4326 0.930 . S
H4318 C4328 0.930 . S
H4319 C4331 0.929 . S
H4320 C4334 0.930 . S
H4321 C4336 0.960 . S
H4322 C4336 0.960 . S
H4323 C4336 0.960 . S
C4324 H4316 0.929 . S
C4324 C4325 1.377 . S
C4324 C4326 1.384 . S
C4325 C4324 1.377 . S
C4325 C4331 1.390 . S
C4326 H4317 0.930 . S
C4326 C4324 1.384 . S
C4326 C4327 1.372 . S
C4327 C4326 1.372 . S
C4327 C4328 1.400 . S
C4327 C4332 1.490 . S
C4328 H4318 0.930 . S
C4328 C4327 1.400 . S
C4328 C4331 1.386 . S
H4329 C4345 0.930 . S
H4330 C4346 0.931 . S
C4331 H4319 0.929 . S
C4331 C4325 1.390 . S
C4331 C4328 1.386 . S
C4332 C4327 1.490 . S
C4332 C4334 1.395 . S
C4332 C4335 1.403 . S
H4333 C4339 0.930 . S
C4334 H4320 0.930 . S
C4334 C4332 1.395 . S
C4334 C4337 1.403 . S
C4335 C4332 1.403 . S
C4335 C4336 1.524 . S
C4335 C4339 1.400 . S
C4336 H4321 0.960 . S
C4336 H4322 0.960 . S
C4336 H4323 0.960 . S
C4336 C4335 1.524 . S
C4337 C4334 1.403 . S
C4337 C4338 1.392 . S
C4337 C4341 1.495 . S
C4338 C4337 1.392 . S
C4338 C4339 1.385 . S
C4338 C4340 1.478 . S
C4339 H4333 0.930 . S
C4339 C4335 1.400 . S
C4339 C4338 1.385 . S
C4340 C4338 1.478 . S
C4340 C4342 1.381 . S
C4340 C4346 1.383 . S
C4341 C4337 1.495 . S
C4341 H4347 0.959 . S
C4341 H4348 0.961 . S
C4341 H4349 0.960 . S
C4342 C4340 1.381 . S
C4342 C4343 1.394 . S
C4342 H4350 0.930 . S
C4343 C4342 1.394 . S
C4343 C4344 1.383 . S
C4343 H4351 0.929 . S
C4344 C4343 1.383 . S
C4344 C4345 1.377 . S
C4345 H4329 0.930 . S
C4345 C4344 1.377 . S
C4345 C4346 1.379 . S
C4346 H4330 0.931 . S
C4346 C4340 1.383 . S
C4346 C4345 1.379 . S
H4347 C4341 0.959 . S
H4348 C4341 0.961 . S
H4349 C4341 0.960 . S
H4350 C4342 0.930 . S
H4351 C4343 0.929 . S
H4352 C4360 0.929 . S
H4353 C4362 0.930 . S
H4354 C4364 0.930 . S
H4355 C4367 0.929 . S
H4356 C4370 0.930 . S
H4357 C4372 0.960 . S
H4358 C4372 0.960 . S
H4359 C4372 0.960 . S
C4360 H4352 0.929 . S
C4360 C4361 1.377 . S
C4360 C4362 1.384 . S
C4361 C4360 1.377 . S
C4361 C4367 1.390 . S
C4362 H4353 0.930 . S
C4362 C4360 1.384 . S
C4362 C4363 1.372 . S
C4363 C4362 1.372 . S
C4363 C4364 1.400 . S
C4363 C4368 1.490 . S
C4364 H4354 0.930 . S
C4364 C4363 1.400 . S
C4364 C4367 1.386 . S
H4365 C4381 0.930 . S
H4366 C4382 0.931 . S
C4367 H4355 0.929 . S
C4367 C4361 1.390 . S
C4367 C4364 1.386 . S
C4368 C4363 1.490 . S
C4368 C4370 1.395 . S
C4368 C4371 1.403 . S
H4369 C4375 0.930 . S
C4370 H4356 0.930 . S
C4370 C4368 1.395 . S
C4370 C4373 1.403 . S
C4371 C4368 1.403 . S
C4371 C4372 1.524 . S
C4371 C4375 1.400 . S
C4372 H4357 0.960 . S
C4372 H4358 0.960 . S
C4372 H4359 0.960 . S
C4372 C4371 1.524 . S
C4373 C4370 1.403 . S
C4373 C4374 1.392 . S
C4373 C4377 1.495 . S
C4374 C4373 1.392 . S
C4374 C4375 1.385 . S
C4374 C4376 1.478 . S
C4375 H4369 0.930 . S
C4375 C4371 1.400 . S
C4375 C4374 1.385 . S
C4376 C4374 1.478 . S
C4376 C4378 1.381 . S
C4376 C4382 1.383 . S
C4377 C4373 1.495 . S
C4377 H4383 0.959 . S
C4377 H4384 0.961 . S
C4377 H4385 0.960 . S
C4378 C4376 1.381 . S
C4378 C4379 1.394 . S
C4378 H4386 0.930 . S
C4379 C4378 1.394 . S
C4379 C4380 1.383 . S
C4379 H4387 0.929 . S
C4380 C4379 1.383 . S
C4380 C4381 1.377 . S
C4381 H4365 0.930 . S
C4381 C4380 1.377 . S
C4381 C4382 1.379 . S
C4382 H4366 0.931 . S
C4382 C4376 1.383 . S
C4382 C4381 1.379 . S
H4383 C4377 0.959 . S
H4384 C4377 0.961 . S
H4385 C4377 0.960 . S
H4386 C4378 0.930 . S
H4387 C4379 0.929 . S
H4388 C4396 0.929 . S
H4389 C4398 0.930 . S
H4390 C4400 0.930 . S
H4391 C4403 0.929 . S
H4392 C4406 0.930 . S
H4393 C4408 0.960 . S
H4394 C4408 0.960 . S
H4395 C4408 0.960 . S
C4396 H4388 0.929 . S
C4396 C4397 1.377 . S
C4396 C4398 1.384 . S
C4397 C4396 1.377 . S
C4397 C4403 1.390 . S
C4398 H4389 0.930 . S
C4398 C4396 1.384 . S
C4398 C4399 1.372 . S
C4399 C4398 1.372 . S
C4399 C4400 1.400 . S
C4399 C4404 1.490 . S
C4400 H4390 0.930 . S
C4400 C4399 1.400 . S
C4400 C4403 1.386 . S
H4401 C4417 0.930 . S
H4402 C4418 0.931 . S
C4403 H4391 0.929 . S
C4403 C4397 1.390 . S
C4403 C4400 1.386 . S
C4404 C4399 1.490 . S
C4404 C4406 1.395 . S
C4404 C4407 1.403 . S
H4405 C4411 0.930 . S
C4406 H4392 0.930 . S
C4406 C4404 1.395 . S
C4406 C4409 1.403 . S
C4407 C4404 1.403 . S
C4407 C4408 1.524 . S
C4407 C4411 1.400 . S
C4408 H4393 0.960 . S
C4408 H4394 0.960 . S
C4408 H4395 0.960 . S
C4408 C4407 1.524 . S
C4409 C4406 1.403 . S
C4409 C4410 1.392 . S
C4409 C4413 1.495 . S
C4410 C4409 1.392 . S
C4410 C4411 1.385 . S
C4410 C4412 1.478 . S
C4411 H4405 0.930 . S
C4411 C4407 1.400 . S
C4411 C4410 1.385 . S
C4412 C4410 1.478 . S
C4412 C4414 1.381 . S
C4412 C4418 1.383 . S
C4413 C4409 1.495 . S
C4413 H4419 0.959 . S
C4413 H4420 0.961 . S
C4413 H4421 0.960 . S
C4414 C4412 1.381 . S
C4414 C4415 1.394 . S
C4414 H4422 0.930 . S
C4415 C4414 1.394 . S
C4415 C4416 1.383 . S
C4415 H4423 0.929 . S
C4416 C4415 1.383 . S
C4416 C4417 1.377 . S
C4417 H4401 0.930 . S
C4417 C4416 1.377 . S
C4417 C4418 1.379 . S
C4418 H4402 0.931 . S
C4418 C4412 1.383 . S
C4418 C4417 1.379 . S
H4419 C4413 0.959 . S
H4420 C4413 0.961 . S
H4421 C4413 0.960 . S
H4422 C4414 0.930 . S
H4423 C4415 0.929 . S
H4424 C4432 0.929 . S
H4425 C4434 0.930 . S
H4426 C4436 0.930 . S
H4427 C4439 0.929 . S
H4428 C4442 0.930 . S
H4429 C4444 0.960 . S
H4430 C4444 0.960 . S
H4431 C4444 0.960 . S
C4432 H4424 0.929 . S
C4432 C4433 1.377 . S
C4432 C4434 1.384 . S
C4433 C4432 1.377 . S
C4433 C4439 1.390 . S
C4434 H4425 0.930 . S
C4434 C4432 1.384 . S
C4434 C4435 1.372 . S
C4435 C4434 1.372 . S
C4435 C4436 1.400 . S
C4435 C4440 1.490 . S
C4436 H4426 0.930 . S
C4436 C4435 1.400 . S
C4436 C4439 1.386 . S
H4437 C4453 0.930 . S
H4438 C4454 0.931 . S
C4439 H4427 0.929 . S
C4439 C4433 1.390 . S
C4439 C4436 1.386 . S
C4440 C4435 1.490 . S
C4440 C4442 1.395 . S
C4440 C4443 1.403 . S
H4441 C4447 0.930 . S
C4442 H4428 0.930 . S
C4442 C4440 1.395 . S
C4442 C4445 1.403 . S
C4443 C4440 1.403 . S
C4443 C4444 1.524 . S
C4443 C4447 1.400 . S
C4444 H4429 0.960 . S
C4444 H4430 0.960 . S
C4444 H4431 0.960 . S
C4444 C4443 1.524 . S
C4445 C4442 1.403 . S
C4445 C4446 1.392 . S
C4445 C4449 1.495 . S
C4446 C4445 1.392 . S
C4446 C4447 1.385 . S
C4446 C4448 1.478 . S
C4447 H4441 0.930 . S
C4447 C4443 1.400 . S
C4447 C4446 1.385 . S
C4448 C4446 1.478 . S
C4448 C4450 1.381 . S
C4448 C4454 1.383 . S
C4449 C4445 1.495 . S
C4449 H4455 0.959 . S
C4449 H4456 0.961 . S
C4449 H4457 0.960 . S
C4450 C4448 1.381 . S
C4450 C4451 1.394 . S
C4450 H4458 0.930 . S
C4451 C4450 1.394 . S
C4451 C4452 1.383 . S
C4451 H4459 0.929 . S
C4452 C4451 1.383 . S
C4452 C4453 1.377 . S
C4453 H4437 0.930 . S
C4453 C4452 1.377 . S
C4453 C4454 1.379 . S
C4454 H4438 0.931 . S
C4454 C4448 1.383 . S
C4454 C4453 1.379 . S
H4455 C4449 0.959 . S
H4456 C4449 0.961 . S
H4457 C4449 0.960 . S
H4458 C4450 0.930 . S
H4459 C4451 0.929 . S
H4460 C4468 0.929 . S
H4461 C4470 0.930 . S
H4462 C4472 0.930 . S
H4463 C4475 0.929 . S
H4464 C4478 0.930 . S
H4465 C4480 0.960 . S
H4466 C4480 0.960 . S
H4467 C4480 0.960 . S
C4468 H4460 0.929 . S
C4468 C4469 1.377 . S
C4468 C4470 1.384 . S
C4469 C4468 1.377 . S
C4469 C4475 1.390 . S
C4470 H4461 0.930 . S
C4470 C4468 1.384 . S
C4470 C4471 1.372 . S
C4471 C4470 1.372 . S
C4471 C4472 1.400 . S
C4471 C4476 1.490 . S
C4472 H4462 0.930 . S
C4472 C4471 1.400 . S
C4472 C4475 1.386 . S
H4473 C4489 0.930 . S
H4474 C4490 0.931 . S
C4475 H4463 0.929 . S
C4475 C4469 1.390 . S
C4475 C4472 1.386 . S
C4476 C4471 1.490 . S
C4476 C4478 1.395 . S
C4476 C4479 1.403 . S
H4477 C4483 0.930 . S
C4478 H4464 0.930 . S
C4478 C4476 1.395 . S
C4478 C4481 1.403 . S
C4479 C4476 1.403 . S
C4479 C4480 1.524 . S
C4479 C4483 1.400 . S
C4480 H4465 0.960 . S
C4480 H4466 0.960 . S
C4480 H4467 0.960 . S
C4480 C4479 1.524 . S
C4481 C4478 1.403 . S
C4481 C4482 1.392 . S
C4481 C4485 1.495 . S
C4482 C4481 1.392 . S
C4482 C4483 1.385 . S
C4482 C4484 1.478 . S
C4483 H4477 0.930 . S
C4483 C4479 1.400 . S
C4483 C4482 1.385 . S
C4484 C4482 1.478 . S
C4484 C4486 1.381 . S
C4484 C4490 1.383 . S
C4485 C4481 1.495 . S
C4485 H4491 0.959 . S
C4485 H4492 0.961 . S
C4485 H4493 0.960 . S
C4486 C4484 1.381 . S
C4486 C4487 1.394 . S
C4486 H4494 0.930 . S
C4487 C4486 1.394 . S
C4487 C4488 1.383 . S
C4487 H4495 0.929 . S
C4488 C4487 1.383 . S
C4488 C4489 1.377 . S
C4489 H4473 0.930 . S
C4489 C4488 1.377 . S
C4489 C4490 1.379 . S
C4490 H4474 0.931 . S
C4490 C4484 1.383 . S
C4490 C4489 1.379 . S
H4491 C4485 0.959 . S
H4492 C4485 0.961 . S
H4493 C4485 0.960 . S
H4494 C4486 0.930 . S
H4495 C4487 0.929 . S
H4496 C4504 0.929 . S
H4497 C4506 0.930 . S
H4498 C4508 0.930 . S
H4499 C4511 0.929 . S
H4500 C4514 0.930 . S
H4501 C4516 0.960 . S
H4502 C4516 0.960 . S
H4503 C4516 0.960 . S
C4504 H4496 0.929 . S
C4504 C4505 1.377 . S
C4504 C4506 1.384 . S
C4505 C4504 1.377 . S
C4505 C4511 1.390 . S
C4506 H4497 0.930 . S
C4506 C4504 1.384 . S
C4506 C4507 1.372 . S
C4507 C4506 1.372 . S
C4507 C4508 1.400 . S
C4507 C4512 1.490 . S
C4508 H4498 0.930 . S
C4508 C4507 1.400 . S
C4508 C4511 1.386 . S
H4509 C4525 0.930 . S
H4510 C4526 0.931 . S
C4511 H4499 0.929 . S
C4511 C4505 1.390 . S
C4511 C4508 1.386 . S
C4512 C4507 1.490 . S
C4512 C4514 1.395 . S
C4512 C4515 1.403 . S
H4513 C4519 0.930 . S
C4514 H4500 0.930 . S
C4514 C4512 1.395 . S
C4514 C4517 1.403 . S
C4515 C4512 1.403 . S
C4515 C4516 1.524 . S
C4515 C4519 1.400 . S
C4516 H4501 0.960 . S
C4516 H4502 0.960 . S
C4516 H4503 0.960 . S
C4516 C4515 1.524 . S
C4517 C4514 1.403 . S
C4517 C4518 1.392 . S
C4517 C4521 1.495 . S
C4518 C4517 1.392 . S
C4518 C4519 1.385 . S
C4518 C4520 1.478 . S
C4519 H4513 0.930 . S
C4519 C4515 1.400 . S
C4519 C4518 1.385 . S
C4520 C4518 1.478 . S
C4520 C4522 1.381 . S
C4520 C4526 1.383 . S
C4521 C4517 1.495 . S
C4521 H4527 0.959 . S
C4521 H4528 0.961 . S
C4521 H4529 0.960 . S
C4522 C4520 1.381 . S
C4522 C4523 1.394 . S
C4522 H4530 0.930 . S
C4523 C4522 1.394 . S
C4523 C4524 1.383 . S
C4523 H4531 0.929 . S
C4524 C4523 1.383 . S
C4524 C4525 1.377 . S
C4525 H4509 0.930 . S
C4525 C4524 1.377 . S
C4525 C4526 1.379 . S
C4526 H4510 0.931 . S
C4526 C4520 1.383 . S
C4526 C4525 1.379 . S
H4527 C4521 0.959 . S
H4528 C4521 0.961 . S
H4529 C4521 0.960 . S
H4530 C4522 0.930 . S
H4531 C4523 0.929 . S
H4532 C4540 0.929 . S
H4533 C4542 0.930 . S
H4534 C4544 0.930 . S
H4535 C4547 0.929 . S
H4536 C4550 0.930 . S
H4537 C4552 0.960 . S
H4538 C4552 0.960 . S
H4539 C4552 0.960 . S
C4540 H4532 0.929 . S
C4540 C4541 1.377 . S
C4540 C4542 1.384 . S
C4541 C4540 1.377 . S
C4541 C4547 1.390 . S
C4542 H4533 0.930 . S
C4542 C4540 1.384 . S
C4542 C4543 1.372 . S
C4543 C4542 1.372 . S
C4543 C4544 1.400 . S
C4543 C4548 1.490 . S
C4544 H4534 0.930 . S
C4544 C4543 1.400 . S
C4544 C4547 1.386 . S
H4545 C4561 0.930 . S
H4546 C4562 0.931 . S
C4547 H4535 0.929 . S
C4547 C4541 1.390 . S
C4547 C4544 1.386 . S
C4548 C4543 1.490 . S
C4548 C4550 1.395 . S
C4548 C4551 1.403 . S
H4549 C4555 0.930 . S
C4550 H4536 0.930 . S
C4550 C4548 1.395 . S
C4550 C4553 1.403 . S
C4551 C4548 1.403 . S
C4551 C4552 1.524 . S
C4551 C4555 1.400 . S
C4552 H4537 0.960 . S
C4552 H4538 0.960 . S
C4552 H4539 0.960 . S
C4552 C4551 1.524 . S
C4553 C4550 1.403 . S
C4553 C4554 1.392 . S
C4553 C4557 1.495 . S
C4554 C4553 1.392 . S
C4554 C4555 1.385 . S
C4554 C4556 1.478 . S
C4555 H4549 0.930 . S
C4555 C4551 1.400 . S
C4555 C4554 1.385 . S
C4556 C4554 1.478 . S
C4556 C4558 1.381 . S
C4556 C4562 1.383 . S
C4557 C4553 1.495 . S
C4557 H4563 0.959 . S
C4557 H4564 0.961 . S
C4557 H4565 0.960 . S
C4558 C4556 1.381 . S
C4558 C4559 1.394 . S
C4558 H4566 0.930 . S
C4559 C4558 1.394 . S
C4559 C4560 1.383 . S
C4559 H4567 0.929 . S
C4560 C4559 1.383 . S
C4560 C4561 1.377 . S
C4561 H4545 0.930 . S
C4561 C4560 1.377 . S
C4561 C4562 1.379 . S
C4562 H4546 0.931 . S
C4562 C4556 1.383 . S
C4562 C4561 1.379 . S
H4563 C4557 0.959 . S
H4564 C4557 0.961 . S
H4565 C4557 0.960 . S
H4566 C4558 0.930 . S
H4567 C4559 0.929 . S
H4568 C4576 0.929 . S
H4569 C4578 0.930 . S
H4570 C4580 0.930 . S
H4571 C4583 0.929 . S
H4572 C4586 0.930 . S
H4573 C4588 0.960 . S
H4574 C4588 0.960 . S
H4575 C4588 0.960 . S
C4576 H4568 0.929 . S
C4576 C4577 1.377 . S
C4576 C4578 1.384 . S
C4577 C4576 1.377 . S
C4577 C4583 1.390 . S
C4578 H4569 0.930 . S
C4578 C4576 1.384 . S
C4578 C4579 1.372 . S
C4579 C4578 1.372 . S
C4579 C4580 1.400 . S
C4579 C4584 1.490 . S
C4580 H4570 0.930 . S
C4580 C4579 1.400 . S
C4580 C4583 1.386 . S
H4581 C4597 0.930 . S
H4582 C4598 0.931 . S
C4583 H4571 0.929 . S
C4583 C4577 1.390 . S
C4583 C4580 1.386 . S
C4584 C4579 1.490 . S
C4584 C4586 1.395 . S
C4584 C4587 1.403 . S
H4585 C4591 0.930 . S
C4586 H4572 0.930 . S
C4586 C4584 1.395 . S
C4586 C4589 1.403 . S
C4587 C4584 1.403 . S
C4587 C4588 1.524 . S
C4587 C4591 1.400 . S
C4588 H4573 0.960 . S
C4588 H4574 0.960 . S
C4588 H4575 0.960 . S
C4588 C4587 1.524 . S
C4589 C4586 1.403 . S
C4589 C4590 1.392 . S
C4589 C4593 1.495 . S
C4590 C4589 1.392 . S
C4590 C4591 1.385 . S
C4590 C4592 1.478 . S
C4591 H4585 0.930 . S
C4591 C4587 1.400 . S
C4591 C4590 1.385 . S
C4592 C4590 1.478 . S
C4592 C4594 1.381 . S
C4592 C4598 1.383 . S
C4593 C4589 1.495 . S
C4593 H4599 0.959 . S
C4593 H4600 0.961 . S
C4593 H4601 0.960 . S
C4594 C4592 1.381 . S
C4594 C4595 1.394 . S
C4594 H4602 0.930 . S
C4595 C4594 1.394 . S
C4595 C4596 1.383 . S
C4595 H4603 0.929 . S
C4596 C4595 1.383 . S
C4596 C4597 1.377 . S
C4597 H4581 0.930 . S
C4597 C4596 1.377 . S
C4597 C4598 1.379 . S
C4598 H4582 0.931 . S
C4598 C4592 1.383 . S
C4598 C4597 1.379 . S
H4599 C4593 0.959 . S
H4600 C4593 0.961 . S
H4601 C4593 0.960 . S
H4602 C4594 0.930 . S
H4603 C4595 0.929 . S
H4604 C4612 0.929 . S
H4605 C4614 0.930 . S
H4606 C4616 0.930 . S
H4607 C4619 0.929 . S
H4608 C4622 0.930 . S
H4609 C4624 0.960 . S
H4610 C4624 0.960 . S
H4611 C4624 0.960 . S
C4612 H4604 0.929 . S
C4612 C4613 1.377 . S
C4612 C4614 1.384 . S
C4613 C4612 1.377 . S
C4613 C4619 1.390 . S
C4614 H4605 0.930 . S
C4614 C4612 1.384 . S
C4614 C4615 1.372 . S
C4615 C4614 1.372 . S
C4615 C4616 1.400 . S
C4615 C4620 1.490 . S
C4616 H4606 0.930 . S
C4616 C4615 1.400 . S
C4616 C4619 1.386 . S
H4617 C4633 0.930 . S
H4618 C4634 0.931 . S
C4619 H4607 0.929 . S
C4619 C4613 1.390 . S
C4619 C4616 1.386 . S
C4620 C4615 1.490 . S
C4620 C4622 1.395 . S
C4620 C4623 1.403 . S
H4621 C4627 0.930 . S
C4622 H4608 0.930 . S
C4622 C4620 1.395 . S
C4622 C4625 1.403 . S
C4623 C4620 1.403 . S
C4623 C4624 1.524 . S
C4623 C4627 1.400 . S
C4624 H4609 0.960 . S
C4624 H4610 0.960 . S
C4624 H4611 0.960 . S
C4624 C4623 1.524 . S
C4625 C4622 1.403 . S
C4625 C4626 1.392 . S
C4625 C4629 1.495 . S
C4626 C4625 1.392 . S
C4626 C4627 1.385 . S
C4626 C4628 1.478 . S
C4627 H4621 0.930 . S
C4627 C4623 1.400 . S
C4627 C4626 1.385 . S
C4628 C4626 1.478 . S
C4628 C4630 1.381 . S
C4628 C4634 1.383 . S
C4629 C4625 1.495 . S
C4629 H4635 0.959 . S
C4629 H4636 0.961 . S
C4629 H4637 0.960 . S
C4630 C4628 1.381 . S
C4630 C4631 1.394 . S
C4630 H4638 0.930 . S
C4631 C4630 1.394 . S
C4631 C4632 1.383 . S
C4631 H4639 0.929 . S
C4632 C4631 1.383 . S
C4632 C4633 1.377 . S
C4633 H4617 0.930 . S
C4633 C4632 1.377 . S
C4633 C4634 1.379 . S
C4634 H4618 0.931 . S
C4634 C4628 1.383 . S
C4634 C4633 1.379 . S
H4635 C4629 0.959 . S
H4636 C4629 0.961 . S
H4637 C4629 0.960 . S
H4638 C4630 0.930 . S
H4639 C4631 0.929 . S
H4640 C4648 0.929 . S
H4641 C4650 0.930 . S
H4642 C4652 0.930 . S
H4643 C4655 0.929 . S
H4644 C4658 0.930 . S
H4645 C4660 0.960 . S
H4646 C4660 0.960 . S
H4647 C4660 0.960 . S
C4648 H4640 0.929 . S
C4648 C4649 1.377 . S
C4648 C4650 1.384 . S
C4649 C4648 1.377 . S
C4649 C4655 1.390 . S
C4650 H4641 0.930 . S
C4650 C4648 1.384 . S
C4650 C4651 1.372 . S
C4651 C4650 1.372 . S
C4651 C4652 1.400 . S
C4651 C4656 1.490 . S
C4652 H4642 0.930 . S
C4652 C4651 1.400 . S
C4652 C4655 1.386 . S
H4653 C4669 0.930 . S
H4654 C4670 0.931 . S
C4655 H4643 0.929 . S
C4655 C4649 1.390 . S
C4655 C4652 1.386 . S
C4656 C4651 1.490 . S
C4656 C4658 1.395 . S
C4656 C4659 1.403 . S
H4657 C4663 0.930 . S
C4658 H4644 0.930 . S
C4658 C4656 1.395 . S
C4658 C4661 1.403 . S
C4659 C4656 1.403 . S
C4659 C4660 1.524 . S
C4659 C4663 1.400 . S
C4660 H4645 0.960 . S
C4660 H4646 0.960 . S
C4660 H4647 0.960 . S
C4660 C4659 1.524 . S
C4661 C4658 1.403 . S
C4661 C4662 1.392 . S
C4661 C4665 1.495 . S
C4662 C4661 1.392 . S
C4662 C4663 1.385 . S
C4662 C4664 1.478 . S
C4663 H4657 0.930 . S
C4663 C4659 1.400 . S
C4663 C4662 1.385 . S
C4664 C4662 1.478 . S
C4664 C4666 1.381 . S
C4664 C4670 1.383 . S
C4665 C4661 1.495 . S
C4665 H4671 0.959 . S
C4665 H4672 0.961 . S
C4665 H4673 0.960 . S
C4666 C4664 1.381 . S
C4666 C4667 1.394 . S
C4666 H4674 0.930 . S
C4667 C4666 1.394 . S
C4667 C4668 1.383 . S
C4667 H4675 0.929 . S
C4668 C4667 1.383 . S
C4668 C4669 1.377 . S
C4669 H4653 0.930 . S
C4669 C4668 1.377 . S
C4669 C4670 1.379 . S
C4670 H4654 0.931 . S
C4670 C4664 1.383 . S
C4670 C4669 1.379 . S
H4671 C4665 0.959 . S
H4672 C4665 0.961 . S
H4673 C4665 0.960 . S
H4674 C4666 0.930 . S
H4675 C4667 0.929 . S
H4676 C4684 0.929 . S
H4677 C4686 0.930 . S
H4678 C4688 0.930 . S
H4679 C4691 0.929 . S
H4680 C4694 0.930 . S
H4681 C4696 0.960 . S
H4682 C4696 0.960 . S
H4683 C4696 0.960 . S
C4684 H4676 0.929 . S
C4684 C4685 1.377 . S
C4684 C4686 1.384 . S
C4685 C4684 1.377 . S
C4685 C4691 1.390 . S
C4686 H4677 0.930 . S
C4686 C4684 1.384 . S
C4686 C4687 1.372 . S
C4687 C4686 1.372 . S
C4687 C4688 1.400 . S
C4687 C4692 1.490 . S
C4688 H4678 0.930 . S
C4688 C4687 1.400 . S
C4688 C4691 1.386 . S
H4689 C4705 0.930 . S
H4690 C4706 0.931 . S
C4691 H4679 0.929 . S
C4691 C4685 1.390 . S
C4691 C4688 1.386 . S
C4692 C4687 1.490 . S
C4692 C4694 1.395 . S
C4692 C4695 1.403 . S
H4693 C4699 0.930 . S
C4694 H4680 0.930 . S
C4694 C4692 1.395 . S
C4694 C4697 1.403 . S
C4695 C4692 1.403 . S
C4695 C4696 1.524 . S
C4695 C4699 1.400 . S
C4696 H4681 0.960 . S
C4696 H4682 0.960 . S
C4696 H4683 0.960 . S
C4696 C4695 1.524 . S
C4697 C4694 1.403 . S
C4697 C4698 1.392 . S
C4697 C4701 1.495 . S
C4698 C4697 1.392 . S
C4698 C4699 1.385 . S
C4698 C4700 1.478 . S
C4699 H4693 0.930 . S
C4699 C4695 1.400 . S
C4699 C4698 1.385 . S
C4700 C4698 1.478 . S
C4700 C4702 1.381 . S
C4700 C4706 1.383 . S
C4701 C4697 1.495 . S
C4701 H4707 0.959 . S
C4701 H4708 0.961 . S
C4701 H4709 0.960 . S
C4702 C4700 1.381 . S
C4702 C4703 1.394 . S
C4702 H4710 0.930 . S
C4703 C4702 1.394 . S
C4703 C4704 1.383 . S
C4703 H4711 0.929 . S
C4704 C4703 1.383 . S
C4704 C4705 1.377 . S
C4705 H4689 0.930 . S
C4705 C4704 1.377 . S
C4705 C4706 1.379 . S
C4706 H4690 0.931 . S
C4706 C4700 1.383 . S
C4706 C4705 1.379 . S
H4707 C4701 0.959 . S
H4708 C4701 0.961 . S
H4709 C4701 0.960 . S
H4710 C4702 0.930 . S
H4711 C4703 0.929 . S
H4712 C4720 0.929 . S
H4713 C4722 0.930 . S
H4714 C4724 0.930 . S
H4715 C4727 0.929 . S
H4716 C4730 0.930 . S
H4717 C4732 0.960 . S
H4718 C4732 0.960 . S
H4719 C4732 0.960 . S
C4720 H4712 0.929 . S
C4720 C4721 1.377 . S
C4720 C4722 1.384 . S
C4721 C4720 1.377 . S
C4721 C4727 1.390 . S
C4722 H4713 0.930 . S
C4722 C4720 1.384 . S
C4722 C4723 1.372 . S
C4723 C4722 1.372 . S
C4723 C4724 1.400 . S
C4723 C4728 1.490 . S
C4724 H4714 0.930 . S
C4724 C4723 1.400 . S
C4724 C4727 1.386 . S
H4725 C4741 0.930 . S
H4726 C4742 0.931 . S
C4727 H4715 0.929 . S
C4727 C4721 1.390 . S
C4727 C4724 1.386 . S
C4728 C4723 1.490 . S
C4728 C4730 1.395 . S
C4728 C4731 1.403 . S
H4729 C4735 0.930 . S
C4730 H4716 0.930 . S
C4730 C4728 1.395 . S
C4730 C4733 1.403 . S
C4731 C4728 1.403 . S
C4731 C4732 1.524 . S
C4731 C4735 1.400 . S
C4732 H4717 0.960 . S
C4732 H4718 0.960 . S
C4732 H4719 0.960 . S
C4732 C4731 1.524 . S
C4733 C4730 1.403 . S
C4733 C4734 1.392 . S
C4733 C4737 1.495 . S
C4734 C4733 1.392 . S
C4734 C4735 1.385 . S
C4734 C4736 1.478 . S
C4735 H4729 0.930 . S
C4735 C4731 1.400 . S
C4735 C4734 1.385 . S
C4736 C4734 1.478 . S
C4736 C4738 1.381 . S
C4736 C4742 1.383 . S
C4737 C4733 1.495 . S
C4737 H4743 0.959 . S
C4737 H4744 0.961 . S
C4737 H4745 0.960 . S
C4738 C4736 1.381 . S
C4738 C4739 1.394 . S
C4738 H4746 0.930 . S
C4739 C4738 1.394 . S
C4739 C4740 1.383 . S
C4739 H4747 0.929 . S
C4740 C4739 1.383 . S
C4740 C4741 1.377 . S
C4741 H4725 0.930 . S
C4741 C4740 1.377 . S
C4741 C4742 1.379 . S
C4742 H4726 0.931 . S
C4742 C4736 1.383 . S
C4742 C4741 1.379 . S
H4743 C4737 0.959 . S
H4744 C4737 0.961 . S
H4745 C4737 0.960 . S
H4746 C4738 0.930 . S
H4747 C4739 0.929 . S
H4748 C4756 0.929 . S
H4749 C4758 0.930 . S
H4750 C4760 0.930 . S
H4751 C4763 0.929 . S
H4752 C4766 0.930 . S
H4753 C4768 0.960 . S
H4754 C4768 0.960 . S
H4755 C4768 0.960 . S
C4756 H4748 0.929 . S
C4756 C4757 1.377 . S
C4756 C4758 1.384 . S
C4757 C4756 1.377 . S
C4757 C4763 1.390 . S
C4758 H4749 0.930 . S
C4758 C4756 1.384 . S
C4758 C4759 1.372 . S
C4759 C4758 1.372 . S
C4759 C4760 1.400 . S
C4759 C4764 1.490 . S
C4760 H4750 0.930 . S
C4760 C4759 1.400 . S
C4760 C4763 1.386 . S
H4761 C4777 0.930 . S
H4762 C4778 0.931 . S
C4763 H4751 0.929 . S
C4763 C4757 1.390 . S
C4763 C4760 1.386 . S
C4764 C4759 1.490 . S
C4764 C4766 1.395 . S
C4764 C4767 1.403 . S
H4765 C4771 0.930 . S
C4766 H4752 0.930 . S
C4766 C4764 1.395 . S
C4766 C4769 1.403 . S
C4767 C4764 1.403 . S
C4767 C4768 1.524 . S
C4767 C4771 1.400 . S
C4768 H4753 0.960 . S
C4768 H4754 0.960 . S
C4768 H4755 0.960 . S
C4768 C4767 1.524 . S
C4769 C4766 1.403 . S
C4769 C4770 1.392 . S
C4769 C4773 1.495 . S
C4770 C4769 1.392 . S
C4770 C4771 1.385 . S
C4770 C4772 1.478 . S
C4771 H4765 0.930 . S
C4771 C4767 1.400 . S
C4771 C4770 1.385 . S
C4772 C4770 1.478 . S
C4772 C4774 1.381 . S
C4772 C4778 1.383 . S
C4773 C4769 1.495 . S
C4773 H4779 0.959 . S
C4773 H4780 0.961 . S
C4773 H4781 0.960 . S
C4774 C4772 1.381 . S
C4774 C4775 1.394 . S
C4774 H4782 0.930 . S
C4775 C4774 1.394 . S
C4775 C4776 1.383 . S
C4775 H4783 0.929 . S
C4776 C4775 1.383 . S
C4776 C4777 1.377 . S
C4777 H4761 0.930 . S
C4777 C4776 1.377 . S
C4777 C4778 1.379 . S
C4778 H4762 0.931 . S
C4778 C4772 1.383 . S
C4778 C4777 1.379 . S
H4779 C4773 0.959 . S
H4780 C4773 0.961 . S
H4781 C4773 0.960 . S
H4782 C4774 0.930 . S
H4783 C4775 0.929 . S
H4784 C4792 0.929 . S
H4785 C4794 0.930 . S
H4786 C4796 0.930 . S
H4787 C4799 0.929 . S
H4788 C4802 0.930 . S
H4789 C4804 0.960 . S
H4790 C4804 0.960 . S
H4791 C4804 0.960 . S
C4792 H4784 0.929 . S
C4792 C4793 1.377 . S
C4792 C4794 1.384 . S
C4793 C4792 1.377 . S
C4793 C4799 1.390 . S
C4794 H4785 0.930 . S
C4794 C4792 1.384 . S
C4794 C4795 1.372 . S
C4795 C4794 1.372 . S
C4795 C4796 1.400 . S
C4795 C4800 1.490 . S
C4796 H4786 0.930 . S
C4796 C4795 1.400 . S
C4796 C4799 1.386 . S
H4797 C4813 0.930 . S
H4798 C4814 0.931 . S
C4799 H4787 0.929 . S
C4799 C4793 1.390 . S
C4799 C4796 1.386 . S
C4800 C4795 1.490 . S
C4800 C4802 1.395 . S
C4800 C4803 1.403 . S
H4801 C4807 0.930 . S
C4802 H4788 0.930 . S
C4802 C4800 1.395 . S
C4802 C4805 1.403 . S
C4803 C4800 1.403 . S
C4803 C4804 1.524 . S
C4803 C4807 1.400 . S
C4804 H4789 0.960 . S
C4804 H4790 0.960 . S
C4804 H4791 0.960 . S
C4804 C4803 1.524 . S
C4805 C4802 1.403 . S
C4805 C4806 1.392 . S
C4805 C4809 1.495 . S
C4806 C4805 1.392 . S
C4806 C4807 1.385 . S
C4806 C4808 1.478 . S
C4807 H4801 0.930 . S
C4807 C4803 1.400 . S
C4807 C4806 1.385 . S
C4808 C4806 1.478 . S
C4808 C4810 1.381 . S
C4808 C4814 1.383 . S
C4809 C4805 1.495 . S
C4809 H4815 0.959 . S
C4809 H4816 0.961 . S
C4809 H4817 0.960 . S
C4810 C4808 1.381 . S
C4810 C4811 1.394 . S
C4810 H4818 0.930 . S
C4811 C4810 1.394 . S
C4811 C4812 1.383 . S
C4811 H4819 0.929 . S
C4812 C4811 1.383 . S
C4812 C4813 1.377 . S
C4813 H4797 0.930 . S
C4813 C4812 1.377 . S
C4813 C4814 1.379 . S
C4814 H4798 0.931 . S
C4814 C4808 1.383 . S
C4814 C4813 1.379 . S
H4815 C4809 0.959 . S
H4816 C4809 0.961 . S
H4817 C4809 0.960 . S
H4818 C4810 0.930 . S
H4819 C4811 0.929 . S
H4820 C4828 0.929 . S
H4821 C4830 0.930 . S
H4822 C4832 0.930 . S
H4823 C4835 0.929 . S
H4824 C4838 0.930 . S
H4825 C4840 0.960 . S
H4826 C4840 0.960 . S
H4827 C4840 0.960 . S
C4828 H4820 0.929 . S
C4828 C4829 1.377 . S
C4828 C4830 1.384 . S
C4829 C4828 1.377 . S
C4829 C4835 1.390 . S
C4830 H4821 0.930 . S
C4830 C4828 1.384 . S
C4830 C4831 1.372 . S
C4831 C4830 1.372 . S
C4831 C4832 1.400 . S
C4831 C4836 1.490 . S
C4832 H4822 0.930 . S
C4832 C4831 1.400 . S
C4832 C4835 1.386 . S
H4833 C4849 0.930 . S
H4834 C4850 0.931 . S
C4835 H4823 0.929 . S
C4835 C4829 1.390 . S
C4835 C4832 1.386 . S
C4836 C4831 1.490 . S
C4836 C4838 1.395 . S
C4836 C4839 1.403 . S
H4837 C4843 0.930 . S
C4838 H4824 0.930 . S
C4838 C4836 1.395 . S
C4838 C4841 1.403 . S
C4839 C4836 1.403 . S
C4839 C4840 1.524 . S
C4839 C4843 1.400 . S
C4840 H4825 0.960 . S
C4840 H4826 0.960 . S
C4840 H4827 0.960 . S
C4840 C4839 1.524 . S
C4841 C4838 1.403 . S
C4841 C4842 1.392 . S
C4841 C4845 1.495 . S
C4842 C4841 1.392 . S
C4842 C4843 1.385 . S
C4842 C4844 1.478 . S
C4843 H4837 0.930 . S
C4843 C4839 1.400 . S
C4843 C4842 1.385 . S
C4844 C4842 1.478 . S
C4844 C4846 1.381 . S
C4844 C4850 1.383 . S
C4845 C4841 1.495 . S
C4845 H4851 0.959 . S
C4845 H4852 0.961 . S
C4845 H4853 0.960 . S
C4846 C4844 1.381 . S
C4846 C4847 1.394 . S
C4846 H4854 0.930 . S
C4847 C4846 1.394 . S
C4847 C4848 1.383 . S
C4847 H4855 0.929 . S
C4848 C4847 1.383 . S
C4848 C4849 1.377 . S
C4849 H4833 0.930 . S
C4849 C4848 1.377 . S
C4849 C4850 1.379 . S
C4850 H4834 0.931 . S
C4850 C4844 1.383 . S
C4850 C4849 1.379 . S
H4851 C4845 0.959 . S
H4852 C4845 0.961 . S
H4853 C4845 0.960 . S
H4854 C4846 0.930 . S
H4855 C4847 0.929 . S
H4856 C4864 0.929 . S
H4857 C4866 0.930 . S
H4858 C4868 0.930 . S
H4859 C4871 0.929 . S
H4860 C4874 0.930 . S
H4861 C4876 0.960 . S
H4862 C4876 0.960 . S
H4863 C4876 0.960 . S
C4864 H4856 0.929 . S
C4864 C4865 1.377 . S
C4864 C4866 1.384 . S
C4865 C4864 1.377 . S
C4865 C4871 1.390 . S
C4866 H4857 0.930 . S
C4866 C4864 1.384 . S
C4866 C4867 1.372 . S
C4867 C4866 1.372 . S
C4867 C4868 1.400 . S
C4867 C4872 1.490 . S
C4868 H4858 0.930 . S
C4868 C4867 1.400 . S
C4868 C4871 1.386 . S
H4869 C4885 0.930 . S
H4870 C4886 0.931 . S
C4871 H4859 0.929 . S
C4871 C4865 1.390 . S
C4871 C4868 1.386 . S
C4872 C4867 1.490 . S
C4872 C4874 1.395 . S
C4872 C4875 1.403 . S
H4873 C4879 0.930 . S
C4874 H4860 0.930 . S
C4874 C4872 1.395 . S
C4874 C4877 1.403 . S
C4875 C4872 1.403 . S
C4875 C4876 1.524 . S
C4875 C4879 1.400 . S
C4876 H4861 0.960 . S
C4876 H4862 0.960 . S
C4876 H4863 0.960 . S
C4876 C4875 1.524 . S
C4877 C4874 1.403 . S
C4877 C4878 1.392 . S
C4877 C4881 1.495 . S
C4878 C4877 1.392 . S
C4878 C4879 1.385 . S
C4878 C4880 1.478 . S
C4879 H4873 0.930 . S
C4879 C4875 1.400 . S
C4879 C4878 1.385 . S
C4880 C4878 1.478 . S
C4880 C4882 1.381 . S
C4880 C4886 1.383 . S
C4881 C4877 1.495 . S
C4881 H4887 0.959 . S
C4881 H4888 0.961 . S
C4881 H4889 0.960 . S
C4882 C4880 1.381 . S
C4882 C4883 1.394 . S
C4882 H4890 0.930 . S
C4883 C4882 1.394 . S
C4883 C4884 1.383 . S
C4883 H4891 0.929 . S
C4884 C4883 1.383 . S
C4884 C4885 1.377 . S
C4885 H4869 0.930 . S
C4885 C4884 1.377 . S
C4885 C4886 1.379 . S
C4886 H4870 0.931 . S
C4886 C4880 1.383 . S
C4886 C4885 1.379 . S
H4887 C4881 0.959 . S
H4888 C4881 0.961 . S
H4889 C4881 0.960 . S
H4890 C4882 0.930 . S
H4891 C4883 0.929 . S
H4892 C4900 0.929 . S
H4893 C4902 0.930 . S
H4894 C4904 0.930 . S
H4895 C4907 0.929 . S
H4896 C4910 0.930 . S
H4897 C4912 0.960 . S
H4898 C4912 0.960 . S
H4899 C4912 0.960 . S
C4900 H4892 0.929 . S
C4900 C4901 1.377 . S
C4900 C4902 1.384 . S
C4901 C4900 1.377 . S
C4901 C4907 1.390 . S
C4902 H4893 0.930 . S
C4902 C4900 1.384 . S
C4902 C4903 1.372 . S
C4903 C4902 1.372 . S
C4903 C4904 1.400 . S
C4903 C4908 1.490 . S
C4904 H4894 0.930 . S
C4904 C4903 1.400 . S
C4904 C4907 1.386 . S
H4905 C4921 0.930 . S
H4906 C4922 0.931 . S
C4907 H4895 0.929 . S
C4907 C4901 1.390 . S
C4907 C4904 1.386 . S
C4908 C4903 1.490 . S
C4908 C4910 1.395 . S
C4908 C4911 1.403 . S
H4909 C4915 0.930 . S
C4910 H4896 0.930 . S
C4910 C4908 1.395 . S
C4910 C4913 1.403 . S
C4911 C4908 1.403 . S
C4911 C4912 1.524 . S
C4911 C4915 1.400 . S
C4912 H4897 0.960 . S
C4912 H4898 0.960 . S
C4912 H4899 0.960 . S
C4912 C4911 1.524 . S
C4913 C4910 1.403 . S
C4913 C4914 1.392 . S
C4913 C4917 1.495 . S
C4914 C4913 1.392 . S
C4914 C4915 1.385 . S
C4914 C4916 1.478 . S
C4915 H4909 0.930 . S
C4915 C4911 1.400 . S
C4915 C4914 1.385 . S
C4916 C4914 1.478 . S
C4916 C4918 1.381 . S
C4916 C4922 1.383 . S
C4917 C4913 1.495 . S
C4917 H4923 0.959 . S
C4917 H4924 0.961 . S
C4917 H4925 0.960 . S
C4918 C4916 1.381 . S
C4918 C4919 1.394 . S
C4918 H4926 0.930 . S
C4919 C4918 1.394 . S
C4919 C4920 1.383 . S
C4919 H4927 0.929 . S
C4920 C4919 1.383 . S
C4920 C4921 1.377 . S
C4921 H4905 0.930 . S
C4921 C4920 1.377 . S
C4921 C4922 1.379 . S
C4922 H4906 0.931 . S
C4922 C4916 1.383 . S
C4922 C4921 1.379 . S
H4923 C4917 0.959 . S
H4924 C4917 0.961 . S
H4925 C4917 0.960 . S
H4926 C4918 0.930 . S
H4927 C4919 0.929 . S
H4928 C4936 0.929 . S
H4929 C4938 0.930 . S
H4930 C4940 0.930 . S
H4931 C4943 0.929 . S
H4932 C4946 0.930 . S
H4933 C4948 0.960 . S
H4934 C4948 0.960 . S
H4935 C4948 0.960 . S
C4936 H4928 0.929 . S
C4936 C4937 1.377 . S
C4936 C4938 1.384 . S
C4937 C4936 1.377 . S
C4937 C4943 1.390 . S
C4938 H4929 0.930 . S
C4938 C4936 1.384 . S
C4938 C4939 1.372 . S
C4939 C4938 1.372 . S
C4939 C4940 1.400 . S
C4939 C4944 1.490 . S
C4940 H4930 0.930 . S
C4940 C4939 1.400 . S
C4940 C4943 1.386 . S
H4941 C4957 0.930 . S
H4942 C4958 0.931 . S
C4943 H4931 0.929 . S
C4943 C4937 1.390 . S
C4943 C4940 1.386 . S
C4944 C4939 1.490 . S
C4944 C4946 1.395 . S
C4944 C4947 1.403 . S
H4945 C4951 0.930 . S
C4946 H4932 0.930 . S
C4946 C4944 1.395 . S
C4946 C4949 1.403 . S
C4947 C4944 1.403 . S
C4947 C4948 1.524 . S
C4947 C4951 1.400 . S
C4948 H4933 0.960 . S
C4948 H4934 0.960 . S
C4948 H4935 0.960 . S
C4948 C4947 1.524 . S
C4949 C4946 1.403 . S
C4949 C4950 1.392 . S
C4949 C4953 1.495 . S
C4950 C4949 1.392 . S
C4950 C4951 1.385 . S
C4950 C4952 1.478 . S
C4951 H4945 0.930 . S
C4951 C4947 1.400 . S
C4951 C4950 1.385 . S
C4952 C4950 1.478 . S
C4952 C4954 1.381 . S
C4952 C4958 1.383 . S
C4953 C4949 1.495 . S
C4953 H4959 0.959 . S
C4953 H4960 0.961 . S
C4953 H4961 0.960 . S
C4954 C4952 1.381 . S
C4954 C4955 1.394 . S
C4954 H4962 0.930 . S
C4955 C4954 1.394 . S
C4955 C4956 1.383 . S
C4955 H4963 0.929 . S
C4956 C4955 1.383 . S
C4956 C4957 1.377 . S
C4957 H4941 0.930 . S
C4957 C4956 1.377 . S
C4957 C4958 1.379 . S
C4958 H4942 0.931 . S
C4958 C4952 1.383 . S
C4958 C4957 1.379 . S
H4959 C4953 0.959 . S
H4960 C4953 0.961 . S
H4961 C4953 0.960 . S
H4962 C4954 0.930 . S
H4963 C4955 0.929 . S
H4964 C4972 0.929 . S
H4965 C4974 0.930 . S
H4966 C4976 0.930 . S
H4967 C4979 0.929 . S
H4968 C4982 0.930 . S
H4969 C4984 0.960 . S
H4970 C4984 0.960 . S
H4971 C4984 0.960 . S
C4972 H4964 0.929 . S
C4972 C4973 1.377 . S
C4972 C4974 1.384 . S
C4973 C4972 1.377 . S
C4973 C4979 1.390 . S
C4974 H4965 0.930 . S
C4974 C4972 1.384 . S
C4974 C4975 1.372 . S
C4975 C4974 1.372 . S
C4975 C4976 1.400 . S
C4975 C4980 1.490 . S
C4976 H4966 0.930 . S
C4976 C4975 1.400 . S
C4976 C4979 1.386 . S
H4977 C4993 0.930 . S
H4978 C4994 0.931 . S
C4979 H4967 0.929 . S
C4979 C4973 1.390 . S
C4979 C4976 1.386 . S
C4980 C4975 1.490 . S
C4980 C4982 1.395 . S
C4980 C4983 1.403 . S
H4981 C4987 0.930 . S
C4982 H4968 0.930 . S
C4982 C4980 1.395 . S
C4982 C4985 1.403 . S
C4983 C4980 1.403 . S
C4983 C4984 1.524 . S
C4983 C4987 1.400 . S
C4984 H4969 0.960 . S
C4984 H4970 0.960 . S
C4984 H4971 0.960 . S
C4984 C4983 1.524 . S
C4985 C4982 1.403 . S
C4985 C4986 1.392 . S
C4985 C4989 1.495 . S
C4986 C4985 1.392 . S
C4986 C4987 1.385 . S
C4986 C4988 1.478 . S
C4987 H4981 0.930 . S
C4987 C4983 1.400 . S
C4987 C4986 1.385 . S
C4988 C4986 1.478 . S
C4988 C4990 1.381 . S
C4988 C4994 1.383 . S
C4989 C4985 1.495 . S
C4989 H4995 0.959 . S
C4989 H4996 0.961 . S
C4989 H4997 0.960 . S
C4990 C4988 1.381 . S
C4990 C4991 1.394 . S
C4990 H4998 0.930 . S
C4991 C4990 1.394 . S
C4991 C4992 1.383 . S
C4991 H4999 0.929 . S
C4992 C4991 1.383 . S
C4992 C4993 1.377 . S
C4993 H4977 0.930 . S
C4993 C4992 1.377 . S
C4993 C4994 1.379 . S
C4994 H4978 0.931 . S
C4994 C4988 1.383 . S
C4994 C4993 1.379 . S
H4995 C4989 0.959 . S
H4996 C4989 0.961 . S
H4997 C4989 0.960 . S
H4998 C4990 0.930 . S
H4999 C4991 0.929 . S
H5000 C5008 0.929 . S
H5001 C5010 0.930 . S
H5002 C5012 0.930 . S
H5003 C5015 0.929 . S
H5004 C5018 0.930 . S
H5005 C5020 0.960 . S
H5006 C5020 0.960 . S
H5007 C5020 0.960 . S
C5008 H5000 0.929 . S
C5008 C5009 1.377 . S
C5008 C5010 1.384 . S
C5009 C5008 1.377 . S
C5009 C5015 1.390 . S
C5010 H5001 0.930 . S
C5010 C5008 1.384 . S
C5010 C5011 1.372 . S
C5011 C5010 1.372 . S
C5011 C5012 1.400 . S
C5011 C5016 1.490 . S
C5012 H5002 0.930 . S
C5012 C5011 1.400 . S
C5012 C5015 1.386 . S
H5013 C5029 0.930 . S
H5014 C5030 0.931 . S
C5015 H5003 0.929 . S
C5015 C5009 1.390 . S
C5015 C5012 1.386 . S
C5016 C5011 1.490 . S
C5016 C5018 1.395 . S
C5016 C5019 1.403 . S
H5017 C5023 0.930 . S
C5018 H5004 0.930 . S
C5018 C5016 1.395 . S
C5018 C5021 1.403 . S
C5019 C5016 1.403 . S
C5019 C5020 1.524 . S
C5019 C5023 1.400 . S
C5020 H5005 0.960 . S
C5020 H5006 0.960 . S
C5020 H5007 0.960 . S
C5020 C5019 1.524 . S
C5021 C5018 1.403 . S
C5021 C5022 1.392 . S
C5021 C5025 1.495 . S
C5022 C5021 1.392 . S
C5022 C5023 1.385 . S
C5022 C5024 1.478 . S
C5023 H5017 0.930 . S
C5023 C5019 1.400 . S
C5023 C5022 1.385 . S
C5024 C5022 1.478 . S
C5024 C5026 1.381 . S
C5024 C5030 1.383 . S
C5025 C5021 1.495 . S
C5025 H5031 0.959 . S
C5025 H5032 0.961 . S
C5025 H5033 0.960 . S
C5026 C5024 1.381 . S
C5026 C5027 1.394 . S
C5026 H5034 0.930 . S
C5027 C5026 1.394 . S
C5027 C5028 1.383 . S
C5027 H5035 0.929 . S
C5028 C5027 1.383 . S
C5028 C5029 1.377 . S
C5029 H5013 0.930 . S
C5029 C5028 1.377 . S
C5029 C5030 1.379 . S
C5030 H5014 0.931 . S
C5030 C5024 1.383 . S
C5030 C5029 1.379 . S
H5031 C5025 0.959 . S
H5032 C5025 0.961 . S
H5033 C5025 0.960 . S
H5034 C5026 0.930 . S
H5035 C5027 0.929 . S
H5036 C5044 0.929 . S
H5037 C5046 0.930 . S
H5038 C5048 0.930 . S
H5039 C5051 0.929 . S
H5040 C5054 0.930 . S
H5041 C5056 0.960 . S
H5042 C5056 0.960 . S
H5043 C5056 0.960 . S
C5044 H5036 0.929 . S
C5044 C5045 1.377 . S
C5044 C5046 1.384 . S
C5045 C5044 1.377 . S
C5045 C5051 1.390 . S
C5046 H5037 0.930 . S
C5046 C5044 1.384 . S
C5046 C5047 1.372 . S
C5047 C5046 1.372 . S
C5047 C5048 1.400 . S
C5047 C5052 1.490 . S
C5048 H5038 0.930 . S
C5048 C5047 1.400 . S
C5048 C5051 1.386 . S
H5049 C5065 0.930 . S
H5050 C5066 0.931 . S
C5051 H5039 0.929 . S
C5051 C5045 1.390 . S
C5051 C5048 1.386 . S
C5052 C5047 1.490 . S
C5052 C5054 1.395 . S
C5052 C5055 1.403 . S
H5053 C5059 0.930 . S
C5054 H5040 0.930 . S
C5054 C5052 1.395 . S
C5054 C5057 1.403 . S
C5055 C5052 1.403 . S
C5055 C5056 1.524 . S
C5055 C5059 1.400 . S
C5056 H5041 0.960 . S
C5056 H5042 0.960 . S
C5056 H5043 0.960 . S
C5056 C5055 1.524 . S
C5057 C5054 1.403 . S
C5057 C5058 1.392 . S
C5057 C5061 1.495 . S
C5058 C5057 1.392 . S
C5058 C5059 1.385 . S
C5058 C5060 1.478 . S
C5059 H5053 0.930 . S
C5059 C5055 1.400 . S
C5059 C5058 1.385 . S
C5060 C5058 1.478 . S
C5060 C5062 1.381 . S
C5060 C5066 1.383 . S
C5061 C5057 1.495 . S
C5061 H5067 0.959 . S
C5061 H5068 0.961 . S
C5061 H5069 0.960 . S
C5062 C5060 1.381 . S
C5062 C5063 1.394 . S
C5062 H5070 0.930 . S
C5063 C5062 1.394 . S
C5063 C5064 1.383 . S
C5063 H5071 0.929 . S
C5064 C5063 1.383 . S
C5064 C5065 1.377 . S
C5065 H5049 0.930 . S
C5065 C5064 1.377 . S
C5065 C5066 1.379 . S
C5066 H5050 0.931 . S
C5066 C5060 1.383 . S
C5066 C5065 1.379 . S
H5067 C5061 0.959 . S
H5068 C5061 0.961 . S
H5069 C5061 0.960 . S
H5070 C5062 0.930 . S
H5071 C5063 0.929 . S
H5072 C5080 0.929 . S
H5073 C5082 0.930 . S
H5074 C5084 0.930 . S
H5075 C5087 0.929 . S
H5076 C5090 0.930 . S
H5077 C5092 0.960 . S
H5078 C5092 0.960 . S
H5079 C5092 0.960 . S
C5080 H5072 0.929 . S
C5080 C5081 1.377 . S
C5080 C5082 1.384 . S
C5081 C5080 1.377 . S
C5081 C5087 1.390 . S
C5082 H5073 0.930 . S
C5082 C5080 1.384 . S
C5082 C5083 1.372 . S
C5083 C5082 1.372 . S
C5083 C5084 1.400 . S
C5083 C5088 1.490 . S
C5084 H5074 0.930 . S
C5084 C5083 1.400 . S
C5084 C5087 1.386 . S
H5085 C5101 0.930 . S
H5086 C5102 0.931 . S
C5087 H5075 0.929 . S
C5087 C5081 1.390 . S
C5087 C5084 1.386 . S
C5088 C5083 1.490 . S
C5088 C5090 1.395 . S
C5088 C5091 1.403 . S
H5089 C5095 0.930 . S
C5090 H5076 0.930 . S
C5090 C5088 1.395 . S
C5090 C5093 1.403 . S
C5091 C5088 1.403 . S
C5091 C5092 1.524 . S
C5091 C5095 1.400 . S
C5092 H5077 0.960 . S
C5092 H5078 0.960 . S
C5092 H5079 0.960 . S
C5092 C5091 1.524 . S
C5093 C5090 1.403 . S
C5093 C5094 1.392 . S
C5093 C5097 1.495 . S
C5094 C5093 1.392 . S
C5094 C5095 1.385 . S
C5094 C5096 1.478 . S
C5095 H5089 0.930 . S
C5095 C5091 1.400 . S
C5095 C5094 1.385 . S
C5096 C5094 1.478 . S
C5096 C5098 1.381 . S
C5096 C5102 1.383 . S
C5097 C5093 1.495 . S
C5097 H5103 0.959 . S
C5097 H5104 0.961 . S
C5097 H5105 0.960 . S
C5098 C5096 1.381 . S
C5098 C5099 1.394 . S
C5098 H5106 0.930 . S
C5099 C5098 1.394 . S
C5099 C5100 1.383 . S
C5099 H5107 0.929 . S
C5100 C5099 1.383 . S
C5100 C5101 1.377 . S
C5101 H5085 0.930 . S
C5101 C5100 1.377 . S
C5101 C5102 1.379 . S
C5102 H5086 0.931 . S
C5102 C5096 1.383 . S
C5102 C5101 1.379 . S
H5103 C5097 0.959 . S
H5104 C5097 0.961 . S
H5105 C5097 0.960 . S
H5106 C5098 0.930 . S
H5107 C5099 0.929 . S
H5108 C5116 0.929 . S
H5109 C5118 0.930 . S
H5110 C5120 0.930 . S
H5111 C5123 0.929 . S
H5112 C5126 0.930 . S
H5113 C5128 0.960 . S
H5114 C5128 0.960 . S
H5115 C5128 0.960 . S
C5116 H5108 0.929 . S
C5116 C5117 1.377 . S
C5116 C5118 1.384 . S
C5117 C5116 1.377 . S
C5117 C5123 1.390 . S
C5118 H5109 0.930 . S
C5118 C5116 1.384 . S
C5118 C5119 1.372 . S
C5119 C5118 1.372 . S
C5119 C5120 1.400 . S
C5119 C5124 1.490 . S
C5120 H5110 0.930 . S
C5120 C5119 1.400 . S
C5120 C5123 1.386 . S
H5121 C5137 0.930 . S
H5122 C5138 0.931 . S
C5123 H5111 0.929 . S
C5123 C5117 1.390 . S
C5123 C5120 1.386 . S
C5124 C5119 1.490 . S
C5124 C5126 1.395 . S
C5124 C5127 1.403 . S
H5125 C5131 0.930 . S
C5126 H5112 0.930 . S
C5126 C5124 1.395 . S
C5126 C5129 1.403 . S
C5127 C5124 1.403 . S
C5127 C5128 1.524 . S
C5127 C5131 1.400 . S
C5128 H5113 0.960 . S
C5128 H5114 0.960 . S
C5128 H5115 0.960 . S
C5128 C5127 1.524 . S
C5129 C5126 1.403 . S
C5129 C5130 1.392 . S
C5129 C5133 1.495 . S
C5130 C5129 1.392 . S
C5130 C5131 1.385 . S
C5130 C5132 1.478 . S
C5131 H5125 0.930 . S
C5131 C5127 1.400 . S
C5131 C5130 1.385 . S
C5132 C5130 1.478 . S
C5132 C5134 1.381 . S
C5132 C5138 1.383 . S
C5133 C5129 1.495 . S
C5133 H5139 0.959 . S
C5133 H5140 0.961 . S
C5133 H5141 0.960 . S
C5134 C5132 1.381 . S
C5134 C5135 1.394 . S
C5134 H5142 0.930 . S
C5135 C5134 1.394 . S
C5135 C5136 1.383 . S
C5135 H5143 0.929 . S
C5136 C5135 1.383 . S
C5136 C5137 1.377 . S
C5137 H5121 0.930 . S
C5137 C5136 1.377 . S
C5137 C5138 1.379 . S
C5138 H5122 0.931 . S
C5138 C5132 1.383 . S
C5138 C5137 1.379 . S
H5139 C5133 0.959 . S
H5140 C5133 0.961 . S
H5141 C5133 0.960 . S
H5142 C5134 0.930 . S
H5143 C5135 0.929 . S
H5144 C5152 0.929 . S
H5145 C5154 0.930 . S
H5146 C5156 0.930 . S
H5147 C5159 0.929 . S
H5148 C5162 0.930 . S
H5149 C5164 0.960 . S
H5150 C5164 0.960 . S
H5151 C5164 0.960 . S
C5152 H5144 0.929 . S
C5152 C5153 1.377 . S
C5152 C5154 1.384 . S
C5153 C5152 1.377 . S
C5153 C5159 1.390 . S
C5154 H5145 0.930 . S
C5154 C5152 1.384 . S
C5154 C5155 1.372 . S
C5155 C5154 1.372 . S
C5155 C5156 1.400 . S
C5155 C5160 1.490 . S
C5156 H5146 0.930 . S
C5156 C5155 1.400 . S
C5156 C5159 1.386 . S
H5157 C5173 0.930 . S
H5158 C5174 0.931 . S
C5159 H5147 0.929 . S
C5159 C5153 1.390 . S
C5159 C5156 1.386 . S
C5160 C5155 1.490 . S
C5160 C5162 1.395 . S
C5160 C5163 1.403 . S
H5161 C5167 0.930 . S
C5162 H5148 0.930 . S
C5162 C5160 1.395 . S
C5162 C5165 1.403 . S
C5163 C5160 1.403 . S
C5163 C5164 1.524 . S
C5163 C5167 1.400 . S
C5164 H5149 0.960 . S
C5164 H5150 0.960 . S
C5164 H5151 0.960 . S
C5164 C5163 1.524 . S
C5165 C5162 1.403 . S
C5165 C5166 1.392 . S
C5165 C5169 1.495 . S
C5166 C5165 1.392 . S
C5166 C5167 1.385 . S
C5166 C5168 1.478 . S
C5167 H5161 0.930 . S
C5167 C5163 1.400 . S
C5167 C5166 1.385 . S
C5168 C5166 1.478 . S
C5168 C5170 1.381 . S
C5168 C5174 1.383 . S
C5169 C5165 1.495 . S
C5169 H5175 0.959 . S
C5169 H5176 0.961 . S
C5169 H5177 0.960 . S
C5170 C5168 1.381 . S
C5170 C5171 1.394 . S
C5170 H5178 0.930 . S
C5171 C5170 1.394 . S
C5171 C5172 1.383 . S
C5171 H5179 0.929 . S
C5172 C5171 1.383 . S
C5172 C5173 1.377 . S
C5173 H5157 0.930 . S
C5173 C5172 1.377 . S
C5173 C5174 1.379 . S
C5174 H5158 0.931 . S
C5174 C5168 1.383 . S
C5174 C5173 1.379 . S
H5175 C5169 0.959 . S
H5176 C5169 0.961 . S
H5177 C5169 0.960 . S
H5178 C5170 0.930 . S
H5179 C5171 0.929 . S
H5180 C5188 0.929 . S
H5181 C5190 0.930 . S
H5182 C5192 0.930 . S
H5183 C5195 0.929 . S
H5184 C5198 0.930 . S
H5185 C5200 0.960 . S
H5186 C5200 0.960 . S
H5187 C5200 0.960 . S
C5188 H5180 0.929 . S
C5188 C5189 1.377 . S
C5188 C5190 1.384 . S
C5189 C5188 1.377 . S
C5189 C5195 1.390 . S
C5190 H5181 0.930 . S
C5190 C5188 1.384 . S
C5190 C5191 1.372 . S
C5191 C5190 1.372 . S
C5191 C5192 1.400 . S
C5191 C5196 1.490 . S
C5192 H5182 0.930 . S
C5192 C5191 1.400 . S
C5192 C5195 1.386 . S
H5193 C5209 0.930 . S
H5194 C5210 0.931 . S
C5195 H5183 0.929 . S
C5195 C5189 1.390 . S
C5195 C5192 1.386 . S
C5196 C5191 1.490 . S
C5196 C5198 1.395 . S
C5196 C5199 1.403 . S
H5197 C5203 0.930 . S
C5198 H5184 0.930 . S
C5198 C5196 1.395 . S
C5198 C5201 1.403 . S
C5199 C5196 1.403 . S
C5199 C5200 1.524 . S
C5199 C5203 1.400 . S
C5200 H5185 0.960 . S
C5200 H5186 0.960 . S
C5200 H5187 0.960 . S
C5200 C5199 1.524 . S
C5201 C5198 1.403 . S
C5201 C5202 1.392 . S
C5201 C5205 1.495 . S
C5202 C5201 1.392 . S
C5202 C5203 1.385 . S
C5202 C5204 1.478 . S
C5203 H5197 0.930 . S
C5203 C5199 1.400 . S
C5203 C5202 1.385 . S
C5204 C5202 1.478 . S
C5204 C5206 1.381 . S
C5204 C5210 1.383 . S
C5205 C5201 1.495 . S
C5205 H5211 0.959 . S
C5205 H5212 0.961 . S
C5205 H5213 0.960 . S
C5206 C5204 1.381 . S
C5206 C5207 1.394 . S
C5206 H5214 0.930 . S
C5207 C5206 1.394 . S
C5207 C5208 1.383 . S
C5207 H5215 0.929 . S
C5208 C5207 1.383 . S
C5208 C5209 1.377 . S
C5209 H5193 0.930 . S
C5209 C5208 1.377 . S
C5209 C5210 1.379 . S
C5210 H5194 0.931 . S
C5210 C5204 1.383 . S
C5210 C5209 1.379 . S
H5211 C5205 0.959 . S
H5212 C5205 0.961 . S
H5213 C5205 0.960 . S
H5214 C5206 0.930 . S
H5215 C5207 0.929 . S
H5216 C5224 0.929 . S
H5217 C5226 0.930 . S
H5218 C5228 0.930 . S
H5219 C5231 0.929 . S
H5220 C5234 0.930 . S
H5221 C5236 0.960 . S
H5222 C5236 0.960 . S
H5223 C5236 0.960 . S
C5224 H5216 0.929 . S
C5224 C5225 1.377 . S
C5224 C5226 1.384 . S
C5225 C5224 1.377 . S
C5225 C5231 1.390 . S
C5226 H5217 0.930 . S
C5226 C5224 1.384 . S
C5226 C5227 1.372 . S
C5227 C5226 1.372 . S
C5227 C5228 1.400 . S
C5227 C5232 1.490 . S
C5228 H5218 0.930 . S
C5228 C5227 1.400 . S
C5228 C5231 1.386 . S
H5229 C5245 0.930 . S
H5230 C5246 0.931 . S
C5231 H5219 0.929 . S
C5231 C5225 1.390 . S
C5231 C5228 1.386 . S
C5232 C5227 1.490 . S
C5232 C5234 1.395 . S
C5232 C5235 1.403 . S
H5233 C5239 0.930 . S
C5234 H5220 0.930 . S
C5234 C5232 1.395 . S
C5234 C5237 1.403 . S
C5235 C5232 1.403 . S
C5235 C5236 1.524 . S
C5235 C5239 1.400 . S
C5236 H5221 0.960 . S
C5236 H5222 0.960 . S
C5236 H5223 0.960 . S
C5236 C5235 1.524 . S
C5237 C5234 1.403 . S
C5237 C5238 1.392 . S
C5237 C5241 1.495 . S
C5238 C5237 1.392 . S
C5238 C5239 1.385 . S
C5238 C5240 1.478 . S
C5239 H5233 0.930 . S
C5239 C5235 1.400 . S
C5239 C5238 1.385 . S
C5240 C5238 1.478 . S
C5240 C5242 1.381 . S
C5240 C5246 1.383 . S
C5241 C5237 1.495 . S
C5241 H5247 0.959 . S
C5241 H5248 0.961 . S
C5241 H5249 0.960 . S
C5242 C5240 1.381 . S
C5242 C5243 1.394 . S
C5242 H5250 0.930 . S
C5243 C5242 1.394 . S
C5243 C5244 1.383 . S
C5243 H5251 0.929 . S
C5244 C5243 1.383 . S
C5244 C5245 1.377 . S
C5245 H5229 0.930 . S
C5245 C5244 1.377 . S
C5245 C5246 1.379 . S
C5246 H5230 0.931 . S
C5246 C5240 1.383 . S
C5246 C5245 1.379 . S
H5247 C5241 0.959 . S
H5248 C5241 0.961 . S
H5249 C5241 0.960 . S
H5250 C5242 0.930 . S
H5251 C5243 0.929 . S
H5252 C5260 0.929 . S
H5253 C5262 0.930 . S
H5254 C5264 0.930 . S
H5255 C5267 0.929 . S
H5256 C5270 0.930 . S
H5257 C5272 0.960 . S
H5258 C5272 0.960 . S
H5259 C5272 0.960 . S
C5260 H5252 0.929 . S
C5260 C5261 1.377 . S
C5260 C5262 1.384 . S
C5261 C5260 1.377 . S
C5261 C5267 1.390 . S
C5262 H5253 0.930 . S
C5262 C5260 1.384 . S
C5262 C5263 1.372 . S
C5263 C5262 1.372 . S
C5263 C5264 1.400 . S
C5263 C5268 1.490 . S
C5264 H5254 0.930 . S
C5264 C5263 1.400 . S
C5264 C5267 1.386 . S
H5265 C5281 0.930 . S
H5266 C5282 0.931 . S
C5267 H5255 0.929 . S
C5267 C5261 1.390 . S
C5267 C5264 1.386 . S
C5268 C5263 1.490 . S
C5268 C5270 1.395 . S
C5268 C5271 1.403 . S
H5269 C5275 0.930 . S
C5270 H5256 0.930 . S
C5270 C5268 1.395 . S
C5270 C5273 1.403 . S
C5271 C5268 1.403 . S
C5271 C5272 1.524 . S
C5271 C5275 1.400 . S
C5272 H5257 0.960 . S
C5272 H5258 0.960 . S
C5272 H5259 0.960 . S
C5272 C5271 1.524 . S
C5273 C5270 1.403 . S
C5273 C5274 1.392 . S
C5273 C5277 1.495 . S
C5274 C5273 1.392 . S
C5274 C5275 1.385 . S
C5274 C5276 1.478 . S
C5275 H5269 0.930 . S
C5275 C5271 1.400 . S
C5275 C5274 1.385 . S
C5276 C5274 1.478 . S
C5276 C5278 1.381 . S
C5276 C5282 1.383 . S
C5277 C5273 1.495 . S
C5277 H5283 0.959 . S
C5277 H5284 0.961 . S
C5277 H5285 0.960 . S
C5278 C5276 1.381 . S
C5278 C5279 1.394 . S
C5278 H5286 0.930 . S
C5279 C5278 1.394 . S
C5279 C5280 1.383 . S
C5279 H5287 0.929 . S
C5280 C5279 1.383 . S
C5280 C5281 1.377 . S
C5281 H5265 0.930 . S
C5281 C5280 1.377 . S
C5281 C5282 1.379 . S
C5282 H5266 0.931 . S
C5282 C5276 1.383 . S
C5282 C5281 1.379 . S
H5283 C5277 0.959 . S
H5284 C5277 0.961 . S
H5285 C5277 0.960 . S
H5286 C5278 0.930 . S
H5287 C5279 0.929 . S
C1860 N1292 1.497 . S
C1841 C21 1.536 . S
C1896 C1319 1.517 . S
C1877 C42 1.505 . S
C1913 C82 1.533 . S
C1932 C1333 1.528 . S
C1968 N1351 1.454 . S
C1949 C135 1.475 . S
C1985 C175 1.484 . S
C2004 C1356 1.485 . S
C2021 C221 1.523 . S
C2040 C1296 1.532 . S
C2057 C255 1.395 . S
C2076 N1315 1.340 . S
C2112 N1328 1.509 . S
C2093 C301 1.540 . S
C2148 N1374 1.400 . S
C2129 C15 1.457 . S
C2165 C55 1.466 . S
C2184 N1397 1.430 . S
C2201 C101 1.602 . S
C2220 N1420 1.569 . S
C2256 N1453 1.433 . S
C2237 C141 1.453 . S
C2273 C162 1.481 . S
C2292 C1480 1.470 . S
C2328 C1503 1.555 . S
C2309 C215 1.571 . S
C2345 C261 1.470 . S
C2364 C1526 1.477 . S
C2400 C1540 1.452 . S
C2381 C282 1.437 . S
C2417 C2 1.454 . S
C2436 C1457 1.457 . S
C2453 C181 1.417 . S
C2472 N1499 1.405 . S
C2508 N1522 1.460 . S
C2489 C202 1.507 . S
C2525 C242 1.452 . S
C2544 N1535 1.410 . S
C2580 N1476 1.445 . S
C2561 C295 1.468 . S
C2616 C1402 1.682 . S
C2597 C95 1.692 . S
C2633 C122 1.495 . S
C2652 C1425 1.503 . S
C2688 C1379 1.519 . S
C2669 C61 1.502 . S
C2724 C1572 1.505 . S
C2705 C341 1.499 . S
C2741 C362 1.510 . S
C2760 C1586 1.526 . S
C2777 C402 1.524 . S
C2796 N1614 1.467 . S
C2832 N1627 1.407 . S
C2813 C455 1.461 . S
C2849 C495 1.499 . S
C2868 C1632 1.499 . S
C2885 C541 1.511 . S
C2904 N1568 1.489 . S
C2921 C575 1.491 . S
C2940 N1581 1.473 . S
C2957 C621 1.484 . S
C2976 C1618 1.484 . S
C3012 N1466 1.440 . S
C2993 C335 1.460 . S
C3029 C375 1.460 . S
C3048 N1650 1.418 . S
C3084 N1512 1.469 . S
C3065 C421 1.525 . S
C3101 C461 1.491 . S
C3120 C1687 1.503 . S
C3137 C482 1.502 . S
C3156 C1388 1.500 . S
C3192 C1701 1.603 . S
C3173 C535 1.608 . S
C3209 C581 1.532 . S
C3228 C1434 1.557 . S
C3264 N1719 1.434 . S
C3245 C602 1.435 . S
C3281 C322 1.485 . S
C3300 N1683 1.468 . S
C3336 N1696 1.399 . S
C3317 C501 1.455 . S
C3353 C522 1.506 . S
C3372 N1430 1.442 . S
C3408 C1724 1.449 . S
C3389 C562 1.430 . S
C3425 C615 1.436 . S
C3444 N1384 1.373 . S
C3461 C415 1.589 . S
C3480 C1655 1.589 . S
C3497 C442 1.527 . S
C3516 C1517 1.548 . S
C3533 C381 1.523 . S
C3552 C1471 1.532 . S
C3569 C661 1.565 . S
C3588 C1609 1.571 . S
C3624 C1641 1.458 . S
C3605 C682 1.453 . S
C3641 C722 1.494 . S
C3660 N1558 1.450 . S
C3677 C775 1.438 . S
C3696 N1591 1.413 . S
C3713 C815 1.499 . S
C3732 C1595 1.487 . S
C3749 C861 1.588 . S
C3768 N1604 1.574 . S
C3804 N1637 1.342 . S
C3785 C895 1.382 . S
C3821 C941 1.552 . S
C3840 C1563 1.568 . S
C3876 N1752 1.461 . S
C3857 C655 1.485 . S
C3893 C695 1.405 . S
C3912 N1489 1.380 . S
C3948 N1775 1.431 . S
C3929 C741 1.465 . S
C3965 C781 1.457 . S
C3984 N1545 1.445 . S
C4001 C802 1.477 . S
C4020 C1793 1.485 . S
C4037 C855 1.673 . S
C4056 C1411 1.664 . S
C4092 N1811 1.377 . S
C4073 C901 1.413 . S
C4109 C922 1.486 . S
C4128 C1448 1.520 . S
C4164 C1549 1.499 . S
C4145 C642 1.506 . S
C4200 N1407 1.415 . S
C4181 C821 1.461 . S
C4217 C842 1.613 . S
C4236 C1816 1.610 . S
C4253 C882 1.388 . S
C4272 N1443 1.338 . S
C4308 N1788 1.470 . S
C4289 C935 1.512 . S
C4344 C1494 1.581 . S
C4325 C735 1.586 . S
C4380 C1779 1.535 . S
C4361 C762 1.520 . S
C4416 C1756 1.489 . S
C4397 C701 1.479 . S
C4433 C981 1.450 . S
C4452 N1338 1.423 . S
C4469 C1002 1.460 . S
C4488 C1365 1.460 . S
C4524 C1287 1.565 . S
C4505 C1042 1.560 . S
C4560 N1305 1.379 . S
C4541 C1095 1.407 . S
C4596 C1310 1.491 . S
C4577 C1135 1.502 . S
C4632 C1342 1.510 . S
C4613 C1181 1.526 . S
C4668 N1361 1.479 . S
C4649 C1215 1.498 . S
C4685 C1261 1.554 . S
C4704 N1282 1.555 . S
C4721 C975 1.394 . S
C4740 N1798 1.377 . S
C4776 N1706 1.364 . S
C4757 C1015 1.420 . S
C4812 C1825 1.627 . S
C4793 C1061 1.619 . S
C4848 C1733 1.368 . S
C4829 C1101 1.368 . S
C4865 C1122 1.520 . S
C4884 C1747 1.521 . S
C4920 C1664 1.588 . S
C4901 C1175 1.600 . S
C4956 C1770 1.629 . S
C4937 C1221 1.622 . S
C4973 C1242 1.481 . S
C4992 N1673 1.449 . S
C5028 N1729 1.383 . S
C5009 C962 1.403 . S
C5064 N1660 1.389 . S
C5045 C1141 1.424 . S
C5100 N1765 1.409 . S
C5081 C1162 1.461 . S
C5117 C1202 1.490 . S
C5136 C1678 1.502 . S
C5153 C1255 1.458 . S
C5172 N1742 1.443 . S
C5189 C1055 1.680 . S
C5208 C1710 1.667 . S
C5225 C1082 1.417 . S
C5244 N1821 1.373 . S
C5280 C1802 1.448 . S
C5261 C1021 1.451 . S
