# Generated by pormake.
# Topology gar, (4,6)-cn, num edge types: 1
# Building blocks:
#     Node 0, Type 0, BuildingBlock: AZAVOO_clean_sbu_0, # of connection points: 4
#     Node 1, Type 0, BuildingBlock: AZAVOO_clean_sbu_0, # of connection points: 4
#     Node 2, Type 0, BuildingBlock: AZAVOO_clean_sbu_0, # of connection points: 4
#     Node 3, Type 0, BuildingBlock: AZAVOO_clean_sbu_0, # of connection points: 4
#     Node 4, Type 0, BuildingBlock: AZAVOO_clean_sbu_0, # of connection points: 4
#     Node 5, Type 0, BuildingBlock: AZAVOO_clean_sbu_0, # of connection points: 4
#     Node 6, Type 0, BuildingBlock: AZAVOO_clean_sbu_0, # of connection points: 4
#     Node 7, Type 0, BuildingBlock: AZAVOO_clean_sbu_0, # of connection points: 4
#     Node 8, Type 0, BuildingBlock: AZAVOO_clean_sbu_0, # of connection points: 4
#     Node 9, Type 0, BuildingBlock: AZAVOO_clean_sbu_0, # of connection points: 4
#     Node 10, Type 0, BuildingBlock: AZAVOO_clean_sbu_0, # of connection points: 4
#     Node 11, Type 0, BuildingBlock: AZAVOO_clean_sbu_0, # of connection points: 4
#     Node 12, Type 0, BuildingBlock: AZAVOO_clean_sbu_0, # of connection points: 4
#     Node 13, Type 0, BuildingBlock: AZAVOO_clean_sbu_0, # of connection points: 4
#     Node 14, Type 0, BuildingBlock: AZAVOO_clean_sbu_0, # of connection points: 4
#     Node 15, Type 0, BuildingBlock: AZAVOO_clean_sbu_0, # of connection points: 4
#     Node 16, Type 0, BuildingBlock: AZAVOO_clean_sbu_0, # of connection points: 4
#     Node 17, Type 0, BuildingBlock: AZAVOO_clean_sbu_0, # of connection points: 4
#     Node 18, Type 0, BuildingBlock: AZAVOO_clean_sbu_0, # of connection points: 4
#     Node 19, Type 0, BuildingBlock: AZAVOO_clean_sbu_0, # of connection points: 4
#     Node 20, Type 0, BuildingBlock: AZAVOO_clean_sbu_0, # of connection points: 4
#     Node 21, Type 0, BuildingBlock: AZAVOO_clean_sbu_0, # of connection points: 4
#     Node 22, Type 0, BuildingBlock: AZAVOO_clean_sbu_0, # of connection points: 4
#     Node 23, Type 0, BuildingBlock: AZAVOO_clean_sbu_0, # of connection points: 4
#     Node 24, Type 1, BuildingBlock: PAMTOO_clean_sbu_0, # of connection points: 6
#     Node 25, Type 1, BuildingBlock: PAMTOO_clean_sbu_0, # of connection points: 6
#     Node 26, Type 1, BuildingBlock: PAMTOO_clean_sbu_0, # of connection points: 6
#     Node 27, Type 1, BuildingBlock: PAMTOO_clean_sbu_0, # of connection points: 6
#     Node 28, Type 1, BuildingBlock: PAMTOO_clean_sbu_0, # of connection points: 6
#     Node 29, Type 1, BuildingBlock: PAMTOO_clean_sbu_0, # of connection points: 6
#     Node 30, Type 1, BuildingBlock: PAMTOO_clean_sbu_0, # of connection points: 6
#     Node 31, Type 1, BuildingBlock: PAMTOO_clean_sbu_0, # of connection points: 6
#     Node 32, Type 1, BuildingBlock: PAMTOO_clean_sbu_0, # of connection points: 6
#     Node 33, Type 1, BuildingBlock: PAMTOO_clean_sbu_0, # of connection points: 6
#     Node 34, Type 1, BuildingBlock: PAMTOO_clean_sbu_0, # of connection points: 6
#     Node 35, Type 1, BuildingBlock: PAMTOO_clean_sbu_0, # of connection points: 6
#     Node 36, Type 1, BuildingBlock: PAMTOO_clean_sbu_0, # of connection points: 6
#     Node 37, Type 1, BuildingBlock: PAMTOO_clean_sbu_0, # of connection points: 6
#     Node 38, Type 1, BuildingBlock: PAMTOO_clean_sbu_0, # of connection points: 6
#     Node 39, Type 1, BuildingBlock: PAMTOO_clean_sbu_0, # of connection points: 6
#     Edge 40, Type (0, 1), None
#     Edge 41, Type (0, 1), None
#     Edge 42, Type (0, 1), None
#     Edge 43, Type (0, 1), None
#     Edge 44, Type (0, 1), None
#     Edge 45, Type (0, 1), None
#     Edge 46, Type (0, 1), None
#     Edge 47, Type (0, 1), None
#     Edge 48, Type (0, 1), None
#     Edge 49, Type (0, 1), None
#     Edge 50, Type (0, 1), None
#     Edge 51, Type (0, 1), None
#     Edge 52, Type (0, 1), None
#     Edge 53, Type (0, 1), None
#     Edge 54, Type (0, 1), None
#     Edge 55, Type (0, 1), None
#     Edge 56, Type (0, 1), None
#     Edge 57, Type (0, 1), None
#     Edge 58, Type (0, 1), None
#     Edge 59, Type (0, 1), None
#     Edge 60, Type (0, 1), None
#     Edge 61, Type (0, 1), None
#     Edge 62, Type (0, 1), None
#     Edge 63, Type (0, 1), None
#     Edge 64, Type (0, 1), None
#     Edge 65, Type (0, 1), None
#     Edge 66, Type (0, 1), None
#     Edge 67, Type (0, 1), None
#     Edge 68, Type (0, 1), None
#     Edge 69, Type (0, 1), None
#     Edge 70, Type (0, 1), None
#     Edge 71, Type (0, 1), None
#     Edge 72, Type (0, 1), None
#     Edge 73, Type (0, 1), None
#     Edge 74, Type (0, 1), None
#     Edge 75, Type (0, 1), None
#     Edge 76, Type (0, 1), None
#     Edge 77, Type (0, 1), None
#     Edge 78, Type (0, 1), None
#     Edge 79, Type (0, 1), None
#     Edge 80, Type (0, 1), None
#     Edge 81, Type (0, 1), None
#     Edge 82, Type (0, 1), None
#     Edge 83, Type (0, 1), None
#     Edge 84, Type (0, 1), None
#     Edge 85, Type (0, 1), None
#     Edge 86, Type (0, 1), None
#     Edge 87, Type (0, 1), None
#     Edge 88, Type (0, 1), None
#     Edge 89, Type (0, 1), None
#     Edge 90, Type (0, 1), None
#     Edge 91, Type (0, 1), None
#     Edge 92, Type (0, 1), None
#     Edge 93, Type (0, 1), None
#     Edge 94, Type (0, 1), None
#     Edge 95, Type (0, 1), None
#     Edge 96, Type (0, 1), None
#     Edge 97, Type (0, 1), None
#     Edge 98, Type (0, 1), None
#     Edge 99, Type (0, 1), None
#     Edge 100, Type (0, 1), None
#     Edge 101, Type (0, 1), None
#     Edge 102, Type (0, 1), None
#     Edge 103, Type (0, 1), None
#     Edge 104, Type (0, 1), None
#     Edge 105, Type (0, 1), None
#     Edge 106, Type (0, 1), None
#     Edge 107, Type (0, 1), None
#     Edge 108, Type (0, 1), None
#     Edge 109, Type (0, 1), None
#     Edge 110, Type (0, 1), None
#     Edge 111, Type (0, 1), None
#     Edge 112, Type (0, 1), None
#     Edge 113, Type (0, 1), None
#     Edge 114, Type (0, 1), None
#     Edge 115, Type (0, 1), None
#     Edge 116, Type (0, 1), None
#     Edge 117, Type (0, 1), None
#     Edge 118, Type (0, 1), None
#     Edge 119, Type (0, 1), None
#     Edge 120, Type (0, 1), None
#     Edge 121, Type (0, 1), None
#     Edge 122, Type (0, 1), None
#     Edge 123, Type (0, 1), None
#     Edge 124, Type (0, 1), None
#     Edge 125, Type (0, 1), None
#     Edge 126, Type (0, 1), None
#     Edge 127, Type (0, 1), None
#     Edge 128, Type (0, 1), None
#     Edge 129, Type (0, 1), None
#     Edge 130, Type (0, 1), None
#     Edge 131, Type (0, 1), None
#     Edge 132, Type (0, 1), None
#     Edge 133, Type (0, 1), None
#     Edge 134, Type (0, 1), None
#     Edge 135, Type (0, 1), None
# Relax obj value: 0.373
# Max RMSD: 0.331
# Mean RMSD: 0.230
data_MOF--net-gar--node1-AZAVOO_clean_sbu_0--node2-PAMTOO_clean_sbu_0--edge1-none
_symmetry_space_group_name_H-M    P1
_symmetry_Int_Tables_number       1
_symmetry_cell_setting            triclinic
loop_
_symmetry_equiv_pos_as_xyz
'x, y, z'
_cell_length_a     29.986694
_cell_length_b     28.852219
_cell_length_c     27.492042
_cell_angle_alpha  102.2371
_cell_angle_beta   99.162803
_cell_angle_gamma 109.88741
loop_
_atom_site_label
_atom_site_type_symbol
_atom_site_fract_x
_atom_site_fract_y
_atom_site_fract_z
_atom_type_partial_charge
Mg0 Mg 0.14058 0.43016 0.36287 0.0
O1 O 0.16265 0.50561 0.43943 0.0
O2 O 0.10323 0.49513 0.48283 0.0
Mg3 Mg 0.05848 0.4124 0.46137 0.0
C4 C 0.14354 0.52234 0.47531 0.0
C5 C 0.23684 0.40478 0.32191 0.0
O6 O 0.19852 0.37005 0.28632 0.0
O7 O 0.12984 0.36186 0.39958 0.0
O8 O 0.13572 0.41905 0.46698 0.0
O9 O 0.05988 0.42986 0.31541 0.0
O10 O 0.06175 0.41119 0.38224 0.0
C11 C 0.13097 0.37397 0.44705 0.0
C12 C 1.03504 0.41669 0.34635 0.0
O13 O 0.22799 0.43585 0.35762 0.0
Mg14 Mg 0.09704 0.83528 0.7754 0.0
O15 O 0.11441 0.77584 0.71079 0.0
O16 O 1.04604 0.72367 0.65245 0.0
Mg17 Mg 1.02762 0.77515 0.70437 0.0
C18 C 0.09147 0.738 0.66988 0.0
C19 C 0.21548 0.83065 0.79817 0.0
O20 O 0.19034 0.78186 0.79259 0.0
O21 O 0.11173 0.89338 0.7307 0.0
O22 O 0.05732 0.83636 0.6619 0.0
O23 O 0.05766 0.88193 0.82792 0.0
O24 O 1.00877 0.82362 0.76007 0.0
C25 C 0.0914 0.88063 0.68317 0.0
C26 C 1.01322 0.85759 0.80028 0.0
O27 O 0.19103 0.86051 0.79809 0.0
Mg28 Mg 0.63961 0.93072 0.856 0.0
O29 O 0.65535 1.01206 0.92183 0.0
O30 O 0.59299 1.00527 0.96084 0.0
Mg31 Mg 0.55336 0.92307 0.95231 0.0
C32 C 0.6327 0.03174 0.95168 0.0
C33 C 0.73836 0.90658 0.8217 0.0
O34 O 0.70051 0.87034 0.7867 0.0
O35 O 0.63091 0.87139 0.90351 0.0
O36 O 0.63093 0.93003 0.96705 0.0
O37 O 0.55766 0.91981 0.80141 0.0
O38 O 0.56046 0.91221 0.87326 0.0
C39 C 0.62887 0.88522 0.94993 0.0
C40 C 0.53319 0.91133 0.83381 0.0
O41 O 0.72855 0.93882 0.85518 0.0
Mg42 Mg 0.59671 0.3382 0.27066 0.0
O43 O 0.61419 0.28659 0.1982 0.0
O44 O 0.54883 0.24733 0.13254 0.0
Mg45 Mg 0.52821 0.28805 0.19296 0.0
C46 C 0.59349 0.25826 0.15142 0.0
C47 C 0.71673 0.33422 0.29277 0.0
O48 O 0.69454 0.28677 0.26296 0.0
O49 O 0.61716 0.40453 0.23522 0.0
O50 O 0.5607 0.35705 0.16356 0.0
O51 O 0.55754 0.38021 0.32793 0.0
O52 O 0.50955 0.32984 0.25521 0.0
C53 C 0.59694 0.39834 0.1888 0.0
C54 C 0.51358 0.35937 0.29862 0.0
O55 O 0.68979 0.36076 0.30315 0.0
Mg56 Mg 0.15619 0.89162 0.12152 0.0
O57 O 0.15041 0.80469 0.11592 0.0
O58 O 0.10635 0.77953 0.03713 0.0
Mg59 Mg 0.10506 0.86161 0.04799 0.0
C60 C 0.12751 0.76836 0.07407 0.0
C61 C 0.22592 0.88621 0.22717 0.0
O62 O 0.18306 0.85385 0.22769 0.0
O63 O 0.15412 0.97903 0.11925 0.0
O64 O 0.0961 0.93888 0.04848 0.0
O65 O 0.12634 0.89769 0.18952 0.0
O66 O 0.07113 0.85488 0.11786 0.0
C67 C 0.12275 0.98133 0.08217 0.0
C68 C 0.08235 0.86954 0.1669 0.0
O69 O 0.2283 0.9096 0.1916 0.0
Mg70 Mg 0.53911 0.85329 0.49987 0.0
O71 O 0.59714 0.93945 0.53197 0.0
O72 O 0.52895 0.93743 0.54917 0.0
Mg73 Mg 0.51275 0.84652 0.53772 0.0
C74 C 0.57141 0.96467 0.5456 0.0
C75 C 0.56087 0.84136 0.38619 0.0
O76 O 0.52055 0.84748 0.36873 0.0
O77 O 0.57825 0.80126 0.53833 0.0
O78 O 0.50396 0.75934 0.53713 0.0
O79 O 0.49786 0.8923 0.45083 0.0
O80 O 0.45335 0.8216 0.46 0.0
C81 C 0.54737 0.76028 0.54357 0.0
C82 C 0.45569 0.85703 0.43841 0.0
O83 O 0.57171 0.83892 0.43194 0.0
Mg84 Mg 0.66923 0.41645 0.63704 0.0
O85 O 0.67209 0.33222 0.6356 0.0
O86 O 0.62501 0.29965 0.55695 0.0
Mg87 Mg 0.61465 0.37693 0.55841 0.0
C88 C 0.64909 0.29298 0.59554 0.0
C89 C 0.72548 0.38227 0.732 0.0
O90 O 0.72075 0.42227 0.76028 0.0
O91 O 0.65344 0.49367 0.62206 0.0
O92 O 0.59631 0.44945 0.55182 0.0
O93 O 0.63666 0.42148 0.70379 0.0
O94 O 0.58585 0.37102 0.63081 0.0
C95 C 0.62123 0.49314 0.58442 0.0
C96 C 0.59463 0.38786 0.67953 0.0
O97 O 0.70696 0.36799 0.68256 0.0
Mg98 Mg 1.03128 0.33007 0.98135 0.0
O99 O 0.08275 0.41813 0.01566 0.0
O100 O 1.01052 0.40977 0.02462 0.0
Mg101 Mg 1.00132 0.3208 0.01621 0.0
C102 C 0.05336 0.44004 0.02509 0.0
C103 C 0.06282 0.32088 0.87287 0.0
O104 O 1.02049 0.31989 0.85005 0.0
O105 O 0.07296 0.28357 0.02614 0.0
O106 O 0.9985 0.2366 0.01915 0.0
O107 O 0.98833 0.36267 0.92573 0.0
O108 O 0.94827 0.2895 0.93356 0.0
C109 C 1.04305 0.24136 0.0301 0.0
C110 C 0.94892 0.32314 0.90993 0.0
O111 O 0.07164 0.32072 0.91958 0.0
Mg112 Mg 0.50893 0.11806 0.33694 0.0
O113 O 0.45641 0.03912 0.33517 0.0
O114 O 0.42905 0.05162 0.40641 0.0
Mg115 Mg 0.4617 0.13554 0.45271 0.0
C116 C 0.42967 1.02276 0.36468 0.0
C117 C 0.59812 0.20843 0.32416 0.0
O118 O 0.62804 0.25662 0.33409 0.0
O119 O 0.44265 0.13518 0.31283 0.0
O120 O 0.41574 0.14593 0.38421 0.0
O121 O 0.57086 0.10833 0.38653 0.0
O122 O 0.52258 0.14239 0.41713 0.0
C123 C 0.41167 0.14335 0.33665 0.0
C124 C 0.55678 0.12617 0.42548 0.0
O125 O 0.56035 0.19856 0.34178 0.0
Mg126 Mg 0.32247 0.29338 0.53923 0.0
O127 O 0.3087 0.28092 0.61637 0.0
O128 O 0.35721 0.36192 0.64735 0.0
Mg129 Mg 0.37406 0.36529 0.57048 0.0
C130 C 0.32959 0.32094 0.65426 0.0
C131 C 0.19734 0.2351 0.5123 0.0
O132 O 0.15883 0.23714 0.48407 0.0
O133 O 0.33611 0.30491 0.45823 0.0
O134 O 0.39649 0.37834 0.49823 0.0
O135 O 0.33574 0.22377 0.52565 0.0
O136 O 0.39967 0.29726 0.56618 0.0
C137 C 0.37052 0.34505 0.4563 0.0
C138 C 0.38103 0.24753 0.54992 0.0
O139 O 0.23919 0.26333 0.50836 0.0
Mg140 Mg 0.16108 0.11362 0.8293 0.0
O141 O 0.21469 0.20309 0.84171 0.0
O142 O 0.2818 0.18947 0.86141 0.0
Mg143 Mg 0.22275 0.14203 0.88795 0.0
C144 C 0.26083 0.21634 0.84512 0.0
C145 C 0.12583 0.15176 0.72537 0.0
O146 O 0.11181 0.18424 0.75368 0.0
O147 O 0.21532 0.08322 0.79418 0.0
O148 O 0.25023 0.08003 0.86844 0.0
O149 O 0.11101 0.12871 0.88368 0.0
O150 O 0.1627 0.0963 0.91152 0.0
C151 C 0.24527 0.06997 0.82035 0.0
C152 C 0.12646 0.10879 0.91738 0.0
O153 O 0.14164 0.12232 0.74536 0.0
Mg154 Mg 0.42571 0.05072 0.06288 0.0
O155 O 0.39969 1.00223 0.97874 0.0
O156 O 0.46138 0.97832 0.96323 0.0
Mg157 Mg 0.52026 1.0017 0.03551 0.0
C158 C 0.41954 0.98 0.94889 0.0
C159 C 0.37023 0.11174 0.08559 0.0
O160 O 0.4169 0.139 0.1078 0.0
O161 O 0.4021 0.97506 0.08255 0.0
O162 O 0.46199 0.95001 0.06375 0.0
O163 O 0.46716 0.11834 0.03959 0.0
O164 O 0.49486 0.06134 0.06179 0.0
C165 C 0.42247 0.9424 0.07826 0.0
C166 C 0.50027 0.09919 0.04287 0.0
O167 O 0.35651 0.06404 0.06267 0.0
Mg168 Mg 0.40095 0.46405 0.08233 0.0
O169 O 0.3685 0.40553 0.99986 0.0
O170 O 0.43433 0.39053 0.99607 0.0
Mg171 Mg 0.43556 0.40601 0.08093 0.0
C172 C 0.39404 0.38988 0.97298 0.0
C173 C 0.33026 0.49766 0.02034 0.0
O174 O 0.35673 0.4896 0.9883 0.0
O175 O 0.36168 0.41256 0.13219 0.0
O176 O 0.43514 0.41965 0.16573 0.0
O177 O 0.44513 0.51854 0.04654 0.0
O178 O 0.48677 0.48694 0.09346 0.0
C179 C 0.39175 0.41129 0.16974 0.0
C180 C 0.48627 0.51909 0.06752 0.0
O181 O 0.33641 0.48656 0.06276 0.0
Mg182 Mg 0.85785 0.19585 0.13845 0.0
O183 O 0.89282 0.23219 0.22116 0.0
O184 O 0.94765 0.29486 0.20386 0.0
Mg185 Mg 0.97625 0.24524 0.14893 0.0
C186 C 0.91514 0.27964 0.22782 0.0
C187 C 0.77513 0.21046 0.10437 0.0
O188 O 0.79676 0.20129 0.06755 0.0
O189 O 0.88074 0.2739 0.12309 0.0
O190 O 0.93818 0.26956 0.08378 0.0
O191 O 0.84821 0.1227 0.15124 0.0
O192 O 0.91096 0.16747 0.12362 0.0
C193 C 0.90441 0.28584 0.09058 0.0
C194 C 0.88747 0.12625 0.13584 0.0
O195 O 0.79142 0.20761 0.14866 0.0
Mg196 Mg 0.25086 0.59165 0.26051 0.0
O197 O 0.26507 0.67863 0.28694 0.0
O198 O 0.29615 0.71376 0.37183 0.0
Mg199 Mg 0.33538 0.66163 0.38626 0.0
C200 C 0.27717 0.71578 0.32778 0.0
C201 C 0.17214 0.59938 0.18283 0.0
O202 O 0.15699 0.60599 0.22494 0.0
O203 O 0.32714 0.60908 0.24287 0.0
O204 O 0.35135 0.67312 0.31098 0.0
O205 O 0.19077 0.57443 0.29807 0.0
O206 O 0.26754 0.59422 0.33938 0.0
C207 C 0.36208 0.64172 0.28045 0.0
C208 C 0.22377 0.5911 0.34087 0.0
O209 O 0.21139 0.59121 0.18308 0.0
Mg210 Mg 0.90161 0.93936 0.5703 0.0
O211 O 0.84575 0.8886 0.49537 0.0
O212 O 0.91926 0.89158 0.49396 0.0
Mg213 Mg 0.93042 0.90968 0.58378 0.0
C214 C 0.87588 0.88227 0.46931 0.0
C215 C 0.85494 1.01245 0.53847 0.0
O216 O 0.86137 0.99078 0.49452 0.0
O217 O 0.86105 0.9044 0.63097 0.0
O218 O 0.9357 0.92022 0.66887 0.0
O219 O 0.94906 0.98882 0.52766 0.0
O220 O 0.97933 0.99624 0.60727 0.0
C221 C 0.8917 0.90892 0.67133 0.0
C222 C 0.9835 1.01315 0.56827 0.0
O223 O 0.86697 0.99893 0.5781 0.0
Mg224 Mg 1.02504 0.0683 0.30331 0.0
O225 O 0.95503 0.99352 0.25838 0.0
O226 O 0.96787 1.01412 0.34004 0.0
Mg227 Mg 0.97343 0.02802 0.42141 0.0
C228 C 0.94177 0.98294 0.29761 0.0
C229 C 0.06601 0.12933 0.2149 0.0
O230 O 0.10199 0.16315 0.25354 0.0
O231 O 0.97739 0.11453 0.33401 0.0
O232 O 0.95543 0.09464 0.40463 0.0
O233 O 0.08894 0.12099 0.37394 0.0
O234 O 1.03267 0.05173 0.37944 0.0
C235 C 0.95717 0.12064 0.37191 0.0
C236 C 0.07164 0.09152 0.40164 0.0
O237 O 1.03208 0.09335 0.22435 0.0
Mg238 Mg 0.31614 0.69828 0.64494 0.0
O239 O 0.39033 0.72566 0.69602 0.0
O240 O 0.4256 0.78697 0.66526 0.0
Mg241 Mg 0.41688 0.72293 0.59352 0.0
C242 C 0.4091 0.77307 0.70147 0.0
C243 C 0.24915 0.70531 0.71625 0.0
O244 O 0.23537 0.71077 0.75937 0.0
O245 O 0.32755 0.7745 0.62274 0.0
O246 O 0.3749 0.7679 0.56797 0.0
O247 O 0.31166 0.61927 0.63958 0.0
O248 O 0.34046 0.66464 0.58704 0.0
C249 C 0.34681 0.7876 0.5867 0.0
C250 C 0.33041 0.62279 0.60049 0.0
O251 O 0.29401 0.72251 0.71742 0.0
Mg252 Mg 0.5329 0.57383 0.80793 0.0
O253 O 0.46455 0.49725 0.76305 0.0
O254 O 0.47792 0.51751 0.84475 0.0
Mg255 Mg 0.4836 0.53188 0.92619 0.0
C256 C 0.45218 0.48595 0.80237 0.0
C257 C 0.56917 0.63756 0.72067 0.0
O258 O 0.60572 0.67074 0.75915 0.0
O259 O 0.48416 0.61718 0.83919 0.0
O260 O 0.46303 0.59751 0.91022 0.0
O261 O 0.59576 0.62912 0.87799 0.0
O262 O 0.5425 0.55789 0.88404 0.0
C263 C 0.46408 0.62303 0.87712 0.0
C264 C 0.57993 0.59942 0.90602 0.0
O265 O 0.53631 0.6004 0.72977 0.0
Mg266 Mg 0.74214 0.05343 0.76277 0.0
O267 O 0.75572 0.1397 0.76585 0.0
O268 O 0.78293 0.19078 0.84733 0.0
Mg269 Mg 0.79773 0.14322 0.89656 0.0
C270 C 0.76839 0.18335 0.79938 0.0
C271 C 0.67367 0.08606 0.6916 0.0
O272 O 0.64453 0.03904 0.68795 0.0
O273 O 0.82515 0.08384 0.76891 0.0
O274 O 0.85071 0.13328 0.85005 0.0
O275 O 0.66789 0.04082 0.78248 0.0
O276 O 0.73692 0.07933 0.83947 0.0
C277 C 0.85966 0.11507 0.80804 0.0
C278 C 0.69196 0.07208 0.82668 0.0
O279 O 0.71843 0.10382 0.71727 0.0
Mg280 Mg 0.81931 0.79085 0.03891 0.0
O281 O 0.80342 0.77642 0.11428 0.0
O282 O 0.85535 0.85583 0.14737 0.0
Mg283 Mg 0.87402 0.85962 0.07129 0.0
C284 C 0.82497 0.81559 0.15279 0.0
C285 C 0.69746 0.74811 0.0219 0.0
O286 O 0.65848 0.75476 1.00105 0.0
O287 O 0.83375 0.80383 0.95894 0.0
O288 O 0.8975 0.87411 0.99989 0.0
O289 O 0.8254 0.71706 0.02131 0.0
O290 O 0.89314 0.7865 0.06277 0.0
C291 C 0.86973 0.84287 0.95763 0.0
C292 C 0.87104 0.73698 0.04479 0.0
O293 O 0.73763 0.77228 0.01172 0.0
Mg294 Mg 0.96304 0.58676 0.81779 0.0
O295 O 0.91966 0.50801 0.82161 0.0
O296 O 0.89845 0.51389 0.89666 0.0
Mg297 Mg 0.92383 0.59887 0.939 0.0
C298 C 0.8996 0.48781 0.85349 0.0
C299 C 1.04105 0.67063 0.79175 0.0
O300 O 0.07164 0.71656 0.79381 0.0
O301 O 0.89348 0.59845 0.79989 0.0
O302 O 0.87112 0.6079 0.87411 0.0
O303 O 1.03044 0.58309 0.86226 0.0
O304 O 0.98239 0.61371 0.89859 0.0
C305 C 0.86396 0.60554 0.82637 0.0
C306 C 1.01852 0.59982 0.90331 0.0
O307 O 1.00735 0.66648 0.81515 0.0
Mg308 Mg 0.92757 0.56839 0.54491 0.0
O309 O 0.87991 0.52848 0.45981 0.0
O310 O 0.94426 0.51336 0.48117 0.0
Mg311 Mg 1.00283 0.48543 0.49636 0.0
C312 C 0.90421 0.50116 0.44944 0.0
C313 C 0.88242 0.64427 0.58363 0.0
O314 O 0.92798 0.67528 0.58984 0.0
O315 O 0.89893 0.48914 0.56305 0.0
O316 O 0.94828 0.44892 0.53848 0.0
O317 O 0.98599 0.63517 0.52852 0.0
O318 O 0.98766 0.5583 0.5218 0.0
C319 C 0.91309 0.45121 0.55852 0.0
C320 C 1.00912 0.60481 0.52118 0.0
O321 O 0.8702 0.59597 0.56697 0.0
Mg322 Mg 0.65621 0.61386 0.33079 0.0
O323 O 0.70872 0.70244 0.3421 0.0
O324 O 0.77551 0.68758 0.35852 0.0
Mg325 Mg 0.71778 0.64186 0.38765 0.0
C326 C 0.7543 0.71479 0.34344 0.0
C327 C 0.61916 0.65206 0.22676 0.0
O328 O 0.59998 0.67985 0.2538 0.0
O329 O 0.71037 0.58158 0.2958 0.0
O330 O 0.74652 0.58034 0.37053 0.0
O331 O 0.60818 0.63256 0.3859 0.0
O332 O 0.65849 0.59874 0.41411 0.0
C333 C 0.74107 0.56928 0.32232 0.0
C334 C 0.62367 0.61362 0.42053 0.0
O335 O 0.63795 0.62475 0.24721 0.0
Dy336 Dy 0.14082 0.15249 0.0862 0.0
Dy337 Dy 1.03464 0.0768 0.03515 0.0
C338 C 0.10864 0.1052 0.96526 0.0
O339 O 0.10558 0.2058 0.0587 0.0
O340 O 1.02498 0.15339 0.04115 0.0
O341 O 0.20471 0.20676 0.07303 0.0
O342 O 0.2088 0.18792 0.14513 0.0
O343 O 1.0401 0.09019 0.12118 0.0
O344 O 0.10822 0.16428 0.15383 0.0
O345 O 0.07784 1.02466 0.03696 0.0
O346 O 0.14025 0.07747 0.10557 0.0
O347 O 0.98151 0.99873 0.01969 0.0
O348 O 0.96032 0.05477 0.99294 0.0
C349 C 0.05868 0.19862 0.04442 0.0
O350 O 0.13959 0.10951 0.00699 0.0
O351 O 0.06324 0.09685 0.96711 0.0
C352 C 0.26897 0.1841 0.10237 0.0
C353 C 0.33522 0.13682 0.08802 0.0
C354 C 0.28499 0.10702 0.07465 0.0
C355 C 0.25223 0.13056 0.08175 0.0
C356 C 0.31872 0.21452 0.11209 0.0
C357 C 0.3519 0.19092 0.1054 0.0
C358 C 0.23328 0.20617 0.1136 0.0
C359 C 0.07035 0.12886 0.16072 0.0
C360 C 0.11383 0.03016 0.07545 0.0
C361 C 0.91088 1.00981 0.03751 0.0
C362 C 0.88759 0.07798 0.10634 0.0
C363 C 0.91989 0.05702 0.12524 0.0
C364 C 0.9302 1.02127 0.09088 0.0
C365 C 0.87103 1.0223 0.02059 0.0
C366 C 0.85987 0.05709 0.055 0.0
C367 C 0.94521 1.01166 1.00473 0.0
H368 H 0.27106 0.06546 0.06033 0.0
H369 H 0.21374 0.10663 0.07205 0.0
H370 H 0.33197 0.25604 0.12626 0.0
H371 H 0.39058 0.21492 0.11491 0.0
H372 H 0.94024 0.0716 0.16521 0.0
H373 H 0.95932 1.00974 0.10528 0.0
H374 H 0.85482 1.01305 0.97982 0.0
H375 H 0.8337 0.07217 0.04026 0.0
Dy376 Dy 0.36351 0.85278 0.28549 0.0
Dy377 Dy 0.3133 0.88081 0.37815 0.0
C378 C 0.3977 0.96866 0.35013 0.0
O379 O 0.42186 0.86761 0.35663 0.0
O380 O 0.37164 0.85272 0.41098 0.0
O381 O 0.41988 0.85523 0.24535 0.0
O382 O 0.34754 0.79366 0.21506 0.0
O383 O 0.2704 0.79734 0.33833 0.0
O384 O 0.33435 0.78472 0.31236 0.0
O385 O 0.27198 0.90047 0.31413 0.0
O386 O 0.29728 0.86482 0.2463 0.0
O387 O 0.25251 0.86874 0.4143 0.0
O388 O 0.32351 0.92726 0.45525 0.0
C389 C 0.4141 0.85793 0.39996 0.0
O390 O 0.39463 0.93784 0.30623 0.0
O391 O 0.37303 0.95369 0.38314 0.0
C392 C 0.38591 0.83128 0.15794 0.0
C393 C 0.40389 0.89694 0.09628 0.0
C394 C 0.36164 0.88682 0.11458 0.0
C395 C 0.3525 0.85372 0.14509 0.0
C396 C 0.42389 0.83531 0.13361 0.0
C397 C 0.43258 0.86767 0.10228 0.0
C398 C 0.38938 0.81752 0.20578 0.0
C399 C 0.29151 0.76675 0.32139 0.0
C400 C 0.26976 0.88797 0.26437 0.0
C401 C 0.28919 0.86583 0.49444 0.0
C402 C 0.32907 0.81779 0.5577 0.0
C403 C 0.32299 0.80268 0.50454 0.0
C404 C 0.30064 0.82411 0.47349 0.0
C405 C 0.2962 0.8828 0.54798 0.0
C406 C 0.31447 0.8573 0.57957 0.0
C407 C 0.28218 0.89592 0.45942 0.0
H408 H 0.33809 0.90763 0.10916 0.0
H409 H 0.32226 0.85005 0.16278 0.0
H410 H 0.44972 0.81791 0.14301 0.0
H411 H 0.46471 0.8735 0.08722 0.0
H412 H 0.33322 0.77208 0.48609 0.0
H413 H 0.29448 0.80921 0.43255 0.0
H414 H 0.28856 0.91579 0.56512 0.0
H415 H 0.31862 0.86923 0.62061 0.0
Dy416 Dy 0.56911 0.12919 0.59182 0.0
Dy417 Dy 0.66833 0.13614 0.55704 0.0
C418 C 0.5769 0.12541 0.47688 0.0
O419 O 0.55672 0.04461 0.56171 0.0
O420 O 0.63411 0.05091 0.55477 0.0
O421 O 0.49031 0.09853 0.57214 0.0
O422 O 0.53164 0.1545 0.64627 0.0
O423 O 0.68493 0.14455 0.64102 0.0
O424 O 0.60783 0.10072 0.64681 0.0
O425 O 0.66084 0.21309 0.5593 0.0
O426 O 0.61962 0.21397 0.62167 0.0
O427 O 0.74731 0.17336 0.57614 0.0
O428 O 0.70786 0.118 0.50182 0.0
C429 C 0.5884 1.02273 0.55423 0.0
O430 O 0.56154 0.14447 0.5153 0.0
O431 O 0.61185 0.10859 0.48387 0.0
C432 C 0.46224 0.16256 0.60072 0.0
C433 C 0.40937 0.21774 0.56494 0.0
C434 C 0.46074 0.23868 0.57707 0.0
C435 C 0.48703 0.21117 0.59462 0.0
C436 C 0.41102 0.14162 0.5886 0.0
C437 C 0.38476 0.16892 0.57074 0.0
C438 C 0.48909 0.13072 0.61265 0.0
C439 C 0.65529 0.11498 0.66192 0.0
C440 C 0.64601 0.23899 0.59446 0.0
C441 C 0.78287 0.11748 0.5395 0.0
C442 C 0.83266 0.05089 0.54073 0.0
C443 C 0.81291 0.06431 0.58203 0.0
C444 C 0.78776 0.09706 0.5812 0.0
C445 C 0.8044 0.10594 0.49945 0.0
C446 C 0.82899 0.07278 0.49994 0.0
C447 C 0.75047 0.14525 0.53394 0.0
H448 H 0.48049 0.27594 0.57239 0.0
H449 H 0.52664 0.22743 0.60247 0.0
H450 H 0.39134 0.10375 0.59207 0.0
H451 H 0.34512 0.15205 0.56218 0.0
H452 H 0.81519 0.04796 0.61391 0.0
H453 H 0.77072 0.10496 0.6122 0.0
H454 H 0.8005 0.12096 0.46677 0.0
H455 H 0.84416 0.06341 0.46776 0.0
Dy456 Dy 0.39096 0.323 0.80508 0.0
Dy457 Dy 0.3091 0.37232 0.81275 0.0
C458 C 0.41327 0.43788 0.80077 0.0
O459 O 0.40746 0.36337 0.88921 0.0
O460 O 0.33574 0.3748 0.89446 0.0
O461 O 0.46562 0.33115 0.83093 0.0
O462 O 0.41541 0.26544 0.76786 0.0
O463 O 0.27081 0.29028 0.81272 0.0
O464 O 0.33746 0.26987 0.8359 0.0
O465 O 0.32186 0.36296 0.7343 0.0
O466 O 0.33642 0.29056 0.72847 0.0
O467 O 0.24158 0.36982 0.76937 0.0
O468 O 0.27754 0.42502 0.84485 0.0
C469 C 0.37801 0.37449 0.91618 0.0
O470 O 0.41705 0.39461 0.78015 0.0
O471 O 0.38015 0.43902 0.82656 0.0
C472 C 0.49472 0.31088 0.75929 0.0
C473 C 0.55995 0.36301 0.7074 0.0
C474 C 0.50936 0.34169 0.68516 0.0
C475 C 0.47691 0.3161 0.71102 0.0
C476 C 0.54538 0.33119 0.78089 0.0
C477 C 0.57774 0.35726 0.75529 0.0
C478 C 0.4612 0.2942 0.79151 0.0
C479 C 0.29075 0.26129 0.83086 0.0
C480 C 0.32375 0.32149 0.70617 0.0
C481 C 0.19222 0.38123 0.82332 0.0
C482 C 0.10482 0.33573 0.85029 0.0
C483 C 0.147 0.32817 0.87041 0.0
C484 C 0.19031 0.35063 0.85691 0.0
C485 C 0.14983 0.3872 0.80134 0.0
C486 C 0.10616 0.36446 0.81472 0.0
C487 C 0.23737 0.40207 0.80768 0.0
H488 H 0.49489 0.34601 0.64847 0.0
H489 H 0.4379 0.3021 0.69405 0.0
H490 H 0.55982 0.32858 0.8185 0.0
H491 H 0.61674 0.37268 0.77286 0.0
H492 H 0.14687 0.30604 0.89773 0.0
H493 H 0.22248 0.34439 0.87299 0.0
H494 H 0.15064 0.40967 0.77426 0.0
H495 H 0.07419 0.37119 0.79901 0.0
Dy496 Dy 0.13837 0.09158 0.56285 0.0
Dy497 Dy 0.0814 0.16861 0.56437 0.0
C498 C 1.02736 0.05534 0.56798 0.0
O499 O 0.09339 0.0725 0.48171 0.0
O500 O 0.09132 0.15107 0.48456 0.0
O501 O 0.13304 1.01459 0.52935 0.0
O502 O 0.19662 0.06794 0.59052 0.0
O503 O 0.16231 0.21407 0.58048 0.0
O504 O 0.18484 0.1557 0.53427 0.0
O505 O 0.08803 0.15948 0.64421 0.0
O506 O 0.15202 0.1325 0.64694 0.0
O507 O 0.07682 0.24153 0.59538 0.0
O508 O 1.02038 0.18437 0.52963 0.0
C509 C 0.08874 0.10655 0.45826 0.0
O510 O 0.07022 0.0559 0.58738 0.0
O511 O 1.02319 0.08998 0.54572 0.0
C512 C 0.15482 0.98386 0.59755 0.0
C513 C 0.11081 0.9159 0.65265 0.0
C514 C 0.13211 0.96926 0.67593 0.0
C515 C 0.15298 1.00285 0.6484 0.0
C516 C 0.13404 0.9304 0.57439 0.0
C517 C 0.11192 0.89671 0.60157 0.0
C518 C 0.16925 1.01955 0.56601 0.0
C519 C 0.1888 0.20378 0.54934 0.0
C520 C 0.12214 0.14835 0.66985 0.0
C521 C 0.05599 0.26877 0.524 0.0
C522 C 0.10598 0.33599 0.47222 0.0
C523 C 0.07882 0.28403 0.44565 0.0
C524 C 0.05419 0.25053 0.4715 0.0
C525 C 0.08122 0.32106 0.54953 0.0
C526 C 0.10651 0.35406 0.52426 0.0
C527 C 1.04226 0.23303 0.55504 0.0
H528 H 0.13195 0.98517 0.71529 0.0
H529 H 0.16699 0.04385 0.66686 0.0
H530 H 0.13362 0.91481 0.53476 0.0
H531 H 0.09633 0.85567 0.58288 0.0
H532 H 0.07713 0.26922 0.40547 0.0
H533 H 1.03576 0.21005 0.45096 0.0
H534 H 0.08384 0.33591 0.59001 0.0
H535 H 0.12694 0.39408 0.54595 0.0
Dy536 Dy 0.37689 0.91064 0.7789 0.0
Dy537 Dy 0.3729 0.83423 0.84943 0.0
C538 C 0.39142 0.948 0.89798 0.0
O539 O 0.45495 0.91309 0.78998 0.0
O540 O 0.45513 0.87812 0.85795 0.0
O541 O 0.40851 0.98456 0.76511 0.0
O542 O 0.33891 0.92799 0.71576 0.0
O543 O 0.39034 0.79594 0.78071 0.0
O544 O 0.38395 0.84448 0.72536 0.0
O545 O 0.29201 0.8156 0.81624 0.0
O546 O 0.29925 0.88903 0.79448 0.0
O547 O 0.34 0.75974 0.86085 0.0
O548 O 0.40102 0.82018 0.92 0.0
C549 C 0.47873 0.90093 0.82701 0.0
O550 O 0.41071 0.9571 0.8601 0.0
O551 O 0.3623 0.90146 0.8945 0.0
C552 C 0.34172 1.00973 0.75412 0.0
C553 C 0.27813 0.04939 0.7968 0.0
C554 C 0.31896 0.0484 0.82872 0.0
C555 C 0.35049 0.02925 0.8077 0.0
C556 C 0.30197 1.0124 0.72185 0.0
C557 C 0.27079 0.03284 0.74312 0.0
C558 C 0.36702 0.97686 0.73442 0.0
C559 C 0.39427 0.8068 0.73747 0.0
C560 C 0.27156 0.84703 0.80424 0.0
C561 C 0.4001 0.73613 0.90016 0.0
C562 C 0.44183 0.66186 0.88447 0.0
C563 C 0.45384 0.70174 0.8611 0.0
C564 C 0.43334 0.73868 0.86911 0.0
C565 C 0.38841 0.69688 0.92405 0.0
C566 C 0.40936 0.66024 0.9166 0.0
C567 C 0.37389 0.77094 0.90258 0.0
H568 H 0.32646 0.06192 0.87021 0.0
H569 H 0.38045 0.02747 0.83394 0.0
H570 H 0.2939 0.9968 0.68051 0.0
H571 H 0.24039 0.03453 0.71771 0.0
H572 H 0.47924 0.70459 0.83685 0.0
H573 H 0.44271 0.76873 0.85021 0.0
H574 H 0.36239 0.69396 0.9476 0.0
H575 H 0.39938 0.6301 0.93534 0.0
Dy576 Dy 0.63325 0.19339 0.0082 0.0
Dy577 Dy 0.6377 0.12546 0.0919 0.0
C578 C 0.6523 0.08627 0.98212 0.0
O579 O 0.55936 0.16406 0.02081 0.0
O580 O 0.57205 0.09295 0.02693 0.0
O581 O 0.5951 0.19409 0.93477 0.0
O582 O 0.66561 0.25572 0.97578 0.0
O583 O 0.6112 0.18473 0.12744 0.0
O584 O 0.63011 0.24434 0.0811 0.0
O585 O 0.69927 0.20022 0.12094 0.0
O586 O 0.70877 0.20242 0.0416 0.0
O587 O 0.67294 0.10147 0.15135 0.0
O588 O 0.59384 0.06825 0.12269 0.0
C589 C 0.54274 0.11727 0.0239 0.0
O590 O 0.62815 0.11372 0.96736 0.0
O591 O 0.67136 0.09546 0.03146 0.0
C592 C 0.65866 0.1998 0.89596 0.0
C593 C 0.67583 0.11184 0.85162 0.0
C594 C 0.70363 0.1445 0.90027 0.0
C595 C 0.69777 0.18964 0.92017 0.0
C596 C 0.63036 0.16728 0.84684 0.0
C597 C 0.63969 0.12419 0.82424 0.0
C598 C 0.63643 0.22601 0.93069 0.0
C599 C 0.61719 0.2303 0.12135 0.0
C600 C 0.72752 0.21146 0.09049 0.0
C601 C 0.62476 0.1 0.21235 0.0
C602 C 0.60763 0.16718 0.29102 0.0
C603 C 0.56862 0.12322 0.25777 0.0
C604 C 0.57718 0.08952 0.2193 0.0
C605 C 0.66425 0.14102 0.24909 0.0
C606 C 0.65568 0.17437 0.28794 0.0
C607 C 0.63088 0.07829 0.16106 0.0
H608 H 0.72979 0.13501 0.92369 0.0
H609 H 0.72078 0.21361 0.95772 0.0
H610 H 0.59918 0.17322 0.82762 0.0
H611 H 0.61826 0.1003 0.78592 0.0
H612 H 0.5311 0.11717 0.25823 0.0
H613 H 0.54591 0.05825 0.19175 0.0
H614 H 0.70145 0.1501 0.24534 0.0
H615 H 0.68652 0.20757 0.31365 0.0
Dy616 Dy 0.34345 0.32606 0.28073 0.0
Dy617 Dy 0.40989 0.43969 0.34468 0.0
C618 C 0.37709 0.3571 0.40704 0.0
O619 O 0.28476 0.35828 0.28708 0.0
O620 O 0.33065 0.43623 0.34565 0.0
O621 O 0.27946 0.2561 0.26615 0.0
O622 O 0.33438 0.25741 0.22404 0.0
O623 O 0.41156 0.43106 0.26151 0.0
O624 O 0.34062 0.36382 0.2177 0.0
O625 O 0.47001 0.40736 0.34698 0.0
O626 O 0.42356 0.33592 0.28001 0.0
O627 O 0.47573 0.50732 0.3567 0.0
O628 O 0.41743 0.51352 0.39052 0.0
C629 C 0.28688 0.40055 0.31913 0.0
O630 O 0.35019 0.32304 0.36302 0.0
O631 O 0.40678 0.4036 0.40918 0.0
C632 C 0.3077 0.18873 0.25789 0.0
C633 C 0.37044 0.15163 0.30859 0.0
C634 C 0.34325 0.17374 0.33558 0.0
C635 C 0.31197 0.19219 0.31034 0.0
C636 C 0.32843 0.15905 0.22957 0.0
C637 C 0.36019 0.14107 0.25482 0.0
C638 C 0.29791 0.22868 0.23829 0.0
C639 C 0.37884 0.40317 0.21821 0.0
C640 C 0.4674 0.36768 0.31057 0.0
C641 C 0.45122 0.57567 0.3511 0.0
C642 C 0.40092 0.62574 0.30206 0.0
C643 C 0.40821 0.58406 0.2729 0.0
C644 C 0.43363 0.55948 0.29728 0.0
C645 C 0.45015 0.62156 0.3792 0.0
C646 C 0.42585 0.64707 0.35462 0.0
C647 C 0.45673 0.53825 0.37772 0.0
H648 H 0.34922 0.18091 0.37687 0.0
H649 H 0.29564 0.21407 0.33321 0.0
H650 H 0.32484 0.15512 0.18909 0.0
H651 H 0.37926 0.12224 0.23269 0.0
H652 H 0.39093 0.56785 0.23208 0.0
H653 H 0.43521 0.52493 0.27452 0.0
H654 H 0.46389 0.63496 0.42068 0.0
H655 H 0.42271 0.68059 0.3779 0.0
Dy656 Dy 0.64553 0.60318 0.06886 0.0
Dy657 Dy 0.58415 0.67663 0.06763 0.0
C658 C 0.53122 0.55963 0.06576 0.0
O659 O 0.60368 0.58266 0.98649 0.0
O660 O 0.59553 0.65878 0.98813 0.0
O661 O 0.64962 0.52978 0.03863 0.0
O662 O 0.7075 0.5879 0.10271 0.0
O663 O 0.66515 0.72196 0.08981 0.0
O664 O 0.69034 0.6687 0.04116 0.0
O665 O 0.58482 0.66247 0.14523 0.0
O666 O 0.65234 0.64148 0.152 0.0
O667 O 0.58036 0.75023 0.09787 0.0
O668 O 0.5236 0.69287 0.03258 0.0
C669 C 0.59639 0.61547 0.96265 0.0
O670 O 0.57403 0.55876 0.08349 0.0
O671 O 0.52698 0.59749 0.0487 0.0
C672 C 0.66956 0.5041 0.11085 0.0
C673 C 0.62044 0.43487 0.16167 0.0
C674 C 0.63313 0.48766 0.18198 0.0
C675 C 0.65709 0.52194 0.15652 0.0
C676 C 0.65729 0.45119 0.09098 0.0
C677 C 0.63275 0.41681 0.11611 0.0
C678 C 0.68447 0.5387 0.07868 0.0
C679 C 0.69203 0.71558 0.05785 0.0
C680 C 0.61872 0.65211 0.17229 0.0
C681 C 0.55767 0.77761 0.027 0.0
C682 C 0.60429 0.84717 0.97538 0.0
C683 C 0.58104 0.7945 0.94949 0.0
C684 C 0.55792 0.75996 0.97513 0.0
C685 C 0.57864 0.83041 0.05182 0.0
C686 C 0.60192 0.86478 0.02642 0.0
C687 C 0.54521 0.74155 0.05806 0.0
H688 H 0.62418 0.50232 0.21718 0.0
H689 H 0.66508 0.56236 0.17226 0.0
H690 H 0.66501 0.43632 0.05506 0.0
H691 H 0.62353 0.37605 0.10005 0.0
H692 H 0.58146 0.77989 0.90995 0.0
H693 H 0.54264 0.71927 0.95509 0.0
H694 H 0.57934 0.84488 0.0918 0.0
H695 H 0.61902 0.90531 0.04734 0.0
Dy696 Dy 0.87877 0.41786 0.28699 0.0
Dy697 Dy 0.87208 0.34096 0.35877 0.0
C698 C 0.88781 0.45596 0.40632 0.0
O699 O 0.96011 0.43228 0.31578 0.0
O700 O 0.95331 0.36959 0.35745 0.0
O701 O 0.91082 0.49313 0.27665 0.0
O702 O 0.84621 0.43486 0.22007 0.0
O703 O 0.86308 0.29844 0.27871 0.0
O704 O 0.90594 0.36102 0.24694 0.0
O705 O 0.79738 0.34945 0.3491 0.0
O706 O 0.79728 0.36751 0.27257 0.0
O707 O 0.83408 0.26506 0.36548 0.0
O708 O 0.89904 0.31854 0.42404 0.0
C709 C 0.98052 0.40674 0.34058 0.0
O710 O 0.86928 0.45755 0.36092 0.0
O711 O 0.89917 0.41778 0.41369 0.0
C712 C 0.84224 0.51473 0.25789 0.0
C713 C 0.77546 0.55065 0.29929 0.0
C714 C 0.82236 0.56278 0.32968 0.0
C715 C 0.85547 0.54567 0.30919 0.0
C716 C 0.79614 0.50466 0.22671 0.0
C717 C 0.76331 0.52293 0.24721 0.0
C718 C 0.87129 0.48422 0.24198 0.0
C719 C 0.89451 0.31475 0.2524 0.0
C720 C 0.77331 0.35581 0.30772 0.0
C721 C 0.89156 0.23284 0.39621 0.0
C722 C 0.93454 0.1594 0.3795 0.0
C723 C 0.93799 0.19327 0.34901 0.0
C724 C 0.91679 0.22974 0.35743 0.0
C725 C 0.88833 0.19957 0.42692 0.0
C726 C 0.90962 0.1633 0.41876 0.0
C727 C 0.86872 0.27072 0.40425 0.0
H728 H 0.8335 0.58525 0.36967 0.0
H729 H 0.89055 0.55449 0.3348 0.0
H730 H 0.78452 0.48051 0.18734 0.0
H731 H 0.72782 0.51349 0.22294 0.0
H732 H 0.95717 0.19181 0.31886 0.0
H733 H 0.92006 0.25559 0.33362 0.0
H734 H 0.86934 0.20162 0.45721 0.0
H735 H 0.90638 0.13823 0.4434 0.0
Dy736 Dy 0.16856 0.68558 0.55756 0.0
Dy737 Dy 0.11464 0.59188 0.60019 0.0
C738 C 0.16802 0.57302 0.51439 0.0
O739 O 0.08851 0.66823 0.53576 0.0
O740 O 0.07794 0.58613 0.52128 0.0
O741 O 0.1638 0.72769 0.50164 0.0
O742 O 0.23404 0.74209 0.55082 0.0
O743 O 0.09282 0.65686 0.63322 0.0
O744 O 0.15075 0.72907 0.62373 0.0
O745 O 0.16967 0.64838 0.66853 0.0
O746 O 0.22302 0.68601 0.62429 0.0
O747 O 0.11164 0.5337 0.63971 0.0
O748 O 1.04458 0.53838 0.60227 0.0
C749 C 0.05917 0.62012 0.51723 0.0
O750 O 0.16098 0.61166 0.5016 0.0
O751 O 0.16924 0.57199 0.56215 0.0
C752 C 0.2209 0.70881 0.4617 0.0
C753 C 0.21787 0.62605 0.38407 0.0
C754 C 0.2492 0.64043 0.43284 0.0
C755 C 0.25059 0.68119 0.47134 0.0
C756 C 0.19033 0.69496 0.41241 0.0
C757 C 0.18807 0.65334 0.37425 0.0
C758 C 0.21046 0.73911 0.50528 0.0
C759 C 0.11522 0.7073 0.64406 0.0
C760 C 0.21297 0.67781 0.66738 0.0
C761 C 0.05731 0.54651 0.69017 0.0
C762 C 1.04569 0.62432 0.76206 0.0
C763 C 1.00442 0.58352 0.72766 0.0
C764 C 1.01018 0.54478 0.69197 0.0
C765 C 0.0977 0.58349 0.72956 0.0
C766 C 0.09204 0.62267 0.76438 0.0
C767 C 0.06602 0.52613 0.63996 0.0
H768 H 0.27304 0.62054 0.44095 0.0
H769 H 0.27363 0.68959 0.50925 0.0
H770 H 0.16627 0.71463 0.40419 0.0
H771 H 0.16443 0.64401 0.33643 0.0
H772 H 0.96817 0.58399 0.72523 0.0
H773 H 0.97843 0.51713 0.66214 0.0
H774 H 0.13462 0.58592 0.73005 0.0
H775 H 0.12427 0.65324 0.79126 0.0
Dy776 Dy 0.8828 0.82217 0.30368 0.0
Dy777 Dy 0.79842 0.86892 0.30762 0.0
C778 C 0.90265 0.93504 0.29597 0.0
O779 O 0.89495 0.86169 0.38752 0.0
O780 O 0.82088 0.86895 0.38917 0.0
O781 O 0.95863 0.83362 0.32812 0.0
O782 O 0.90762 0.76358 0.27017 0.0
O783 O 0.76233 0.7871 0.30924 0.0
O784 O 0.83014 0.76894 0.33447 0.0
O785 O 0.81191 0.85755 0.22946 0.0
O786 O 0.82806 0.78653 0.22758 0.0
O787 O 0.72882 0.86247 0.26498 0.0
O788 O 0.76776 0.92367 0.3363 0.0
C789 C 0.86292 0.86954 0.41262 0.0
O790 O 0.90688 0.89197 0.27594 0.0
O791 O 0.86969 0.93595 0.32211 0.0
C792 C 0.98512 0.80639 0.25624 0.0
C793 C 1.04811 0.84853 0.19718 0.0
C794 C 0.9972 0.82893 0.17735 0.0
C795 C 0.96584 0.80829 0.2068 0.0
C796 C 1.03589 0.82503 0.27549 0.0
C797 C 0.06707 0.84616 0.24644 0.0
C798 C 0.95352 0.7939 0.29128 0.0
C799 C 0.78325 0.75933 0.32853 0.0
C800 C 0.81559 0.81621 0.20332 0.0
C801 C 0.68269 0.8819 0.32024 0.0
C802 C 0.59959 0.84963 0.3584 0.0
C803 C 0.63939 0.83629 0.37376 0.0
C804 C 0.68056 0.8522 0.35471 0.0
C805 C 0.64237 0.89345 0.30291 0.0
C806 C 0.60082 0.87727 0.32183 0.0
C807 C 0.7264 0.89839 0.30105 0.0
H808 H 0.98176 0.83095 0.13988 0.0
H809 H 0.92667 0.79544 0.19159 0.0
H810 H 1.05149 0.82496 0.31384 0.0
H811 H 0.10619 0.86077 0.26281 0.0
H812 H 0.63934 0.81486 0.40171 0.0
H813 H 0.71115 0.84205 0.36754 0.0
H814 H 0.64335 0.9156 0.27553 0.0
H815 H 0.57076 0.88835 0.30961 0.0
Dy816 Dy 0.84994 0.32442 0.76209 0.0
Dy817 Dy 0.80397 0.33415 0.85987 0.0
C818 C 0.8757 0.43233 0.83868 0.0
O819 O 0.91176 0.33889 0.83128 0.0
O820 O 0.86207 0.30274 0.8787 0.0
O821 O 0.9091 0.34128 0.725 0.0
O822 O 0.83682 0.28395 0.68242 0.0
O823 O 0.75729 0.26035 0.8004 0.0
O824 O 0.82069 0.24808 0.77451 0.0
O825 O 0.76286 0.36638 0.80889 0.0
O826 O 0.7796 0.33502 0.73256 0.0
O827 O 0.75585 0.29787 0.90362 0.0
O828 O 0.80625 0.37718 0.93579 0.0
C829 C 0.9058 0.31985 0.87059 0.0
O830 O 0.8652 0.40708 0.7902 0.0
O831 O 0.86508 0.40922 0.87382 0.0
C832 C 0.87848 0.34262 0.64256 0.0
C833 C 0.89238 0.40987 0.58164 0.0
C834 C 0.87171 0.41855 0.62317 0.0
C835 C 0.86473 0.38492 0.65349 0.0
C836 C 0.89465 0.33113 0.59848 0.0
C837 C 0.90121 0.3644 0.56786 0.0
C838 C 0.87972 0.31375 0.67982 0.0
C839 C 0.77753 0.22905 0.78271 0.0
C840 C 0.75579 0.35815 0.75844 0.0
C841 C 0.81061 0.32121 0.98488 0.0
C842 C 0.88077 0.30436 0.05253 0.0
C843 C 0.86051 0.27231 1.00218 0.0
C844 C 0.82524 0.28013 0.9692 0.0
C845 C 0.83152 0.35397 0.03517 0.0
C846 C 0.86566 0.34495 0.06909 0.0
C847 C 0.78174 0.33488 0.94567 0.0
H848 H 0.86448 0.45307 0.63455 0.0
H849 H 0.85137 0.39362 0.68724 0.0
H850 H 0.90459 0.29813 0.58927 0.0
H851 H 0.91635 0.35622 0.53534 0.0
H852 H 0.86964 0.23926 0.98925 0.0
H853 H 0.80977 0.25409 0.93099 0.0
H854 H 0.82164 0.38645 0.04805 0.0
H855 H 0.87945 0.36887 0.10864 0.0
Dy856 Dy 0.84339 0.82423 0.78294 0.0
Dy857 Dy 0.91126 0.93958 0.84691 0.0
C858 C 0.87625 0.85586 0.90886 0.0
O859 O 0.78655 0.85893 0.79088 0.0
O860 O 0.83257 0.9387 0.84669 0.0
O861 O 0.77466 0.7586 0.7628 0.0
O862 O 0.83527 0.75179 0.73322 0.0
O863 O 0.91038 0.93096 0.76314 0.0
O864 O 0.84162 0.86054 0.71893 0.0
O865 O 0.96927 0.90472 0.84829 0.0
O866 O 0.92313 0.83448 0.78003 0.0
O867 O 0.98218 1.002 0.86369 0.0
O868 O 0.92265 1.01646 0.88883 0.0
C869 C 0.78878 0.90237 0.82093 0.0
O870 O 0.85151 0.82087 0.86481 0.0
O871 O 0.90393 0.90332 0.91137 0.0
C872 C 0.78902 0.68289 0.75858 0.0
C873 C 0.82579 0.62075 0.80275 0.0
C874 C 0.81215 0.65647 0.83338 0.0
C875 C 0.79402 0.68776 0.81132 0.0
C876 C 0.79432 0.64126 0.72698 0.0
C877 C 0.8126 0.61011 0.74897 0.0
C878 C 0.79239 0.72733 0.73974 0.0
C879 C 0.87848 0.90133 0.71973 0.0
C880 C 0.96686 0.86601 0.81103 0.0
C881 C 0.97009 0.07612 0.85389 0.0
C882 C 0.91077 0.11975 0.81143 0.0
C883 C 0.91906 0.08068 0.77901 0.0
C884 C 0.94973 0.05921 0.80044 0.0
C885 C 0.97354 0.12433 0.88159 0.0
C886 C 0.94512 0.14753 0.8593 0.0
C887 C 0.96589 0.03685 0.88102 0.0
H888 H 0.82122 0.66487 0.87489 0.0
H889 H 0.78939 0.71928 0.8364 0.0
H890 H 0.79011 0.63664 0.68625 0.0
H891 H 0.82169 0.58177 0.72442 0.0
H892 H 0.89556 0.06055 0.74059 0.0
H893 H 0.95001 1.02411 0.77734 0.0
H894 H 0.99084 0.13937 0.92246 0.0
H895 H 0.94212 0.1805 0.88391 0.0
Dy896 Dy 0.64144 0.66514 0.59061 0.0
Dy897 Dy 0.53312 0.59188 0.54135 0.0
C898 C 0.6077 0.61425 0.46987 0.0
O899 O 0.60733 0.71958 0.56436 0.0
O900 O 0.52687 0.67103 0.55375 0.0
O901 O 0.70543 0.72037 0.57864 0.0
O902 O 0.70901 0.70008 0.64988 0.0
O903 O 0.5393 0.6023 0.62685 0.0
O904 O 0.61005 0.67394 0.65966 0.0
O905 O 0.57264 0.53582 0.54206 0.0
O906 O 0.64055 0.58874 0.60577 0.0
O907 O 0.47325 0.52034 0.53397 0.0
O908 O 0.46313 0.57084 0.48984 0.0
C909 C 0.56107 0.71518 0.55474 0.0
O910 O 0.63983 0.62099 0.51177 0.0
O911 O 0.56288 0.60818 0.47269 0.0
C912 C 0.77274 0.70314 0.61036 0.0
C913 C 0.84509 0.66511 0.59308 0.0
C914 C 0.79587 0.6314 0.58115 0.0
C915 C 0.76009 0.65031 0.58951 0.0
C916 C 0.82149 0.73736 0.62087 0.0
C917 C 0.85769 0.71839 0.61262 0.0
C918 C 0.73391 0.72091 0.61991 0.0
C919 C 0.57184 0.63891 0.66657 0.0
C920 C 0.6112 0.54137 0.57761 0.0
C921 C 0.39992 0.5351 0.52648 0.0
C922 C 0.3451 0.58287 0.57439 0.0
C923 C 0.37429 0.56406 0.60286 0.0
C924 C 0.40198 0.54051 0.57904 0.0
C925 C 0.36498 0.54692 0.49689 0.0
C926 C 0.33821 0.57141 0.5209 0.0
C927 C 0.44159 0.53199 0.50622 0.0
H928 H 0.7848 0.59029 0.56542 0.0
H929 H 0.72244 0.62344 0.58008 0.0
H930 H 0.83158 0.77837 0.63605 0.0
H931 H 0.89536 0.74532 0.62161 0.0
H932 H 0.37987 0.57257 0.64422 0.0
H933 H 0.42847 0.53152 0.60284 0.0
H934 H 0.36257 0.54287 0.45635 0.0
H935 H 0.31524 0.58522 0.49835 0.0
Dy936 Dy 1.04686 0.60336 0.06988 0.0
Dy937 Dy 0.13815 0.60817 0.02084 0.0
C938 C 1.04237 0.59848 0.95287 0.0
O939 O 1.03533 0.51854 0.04263 0.0
O940 O 0.11077 0.52632 0.02843 0.0
O941 O 0.96792 0.57338 0.0545 0.0
O942 O 1.01245 0.62852 0.12776 0.0
O943 O 0.16767 0.61626 0.10238 0.0
O944 O 0.09715 0.59208 0.13079 0.0
O945 O 0.13241 0.68682 0.02998 0.0
O946 O 0.0968 0.68803 0.0971 0.0
O947 O 0.21419 0.64754 0.02316 0.0
O948 O 0.16728 0.5815 0.95875 0.0
C949 C 0.0673 0.49772 0.03291 0.0
O950 O 1.03424 0.62134 0.99489 0.0
O951 O 0.07417 0.57735 0.95486 0.0
C952 C 0.9442 0.64087 0.08562 0.0
C953 C 0.89637 0.70319 0.05615 0.0
C954 C 0.94769 0.72145 0.06896 0.0
C955 C 0.97139 0.69053 0.08338 0.0
C956 C 0.89296 0.62234 0.07239 0.0
C957 C 0.8692 0.6532 0.05771 0.0
C958 C 0.96909 0.60655 0.09565 0.0
C959 C 0.14419 0.6026 0.13641 0.0
C960 C 0.12131 0.71291 0.06866 0.0
C961 C 0.24424 0.58512 0.99362 0.0
C962 C 0.29896 0.52578 0.00993 0.0
C963 C 0.27006 0.53456 0.04331 0.0
C964 C 0.24273 0.56382 0.03503 0.0
C965 C 0.27275 0.57638 0.95998 0.0
C966 C 0.3 0.54676 0.96804 0.0
C967 C 0.21211 0.61197 0.98357 0.0
H968 H 0.9695 0.75942 0.06735 0.0
H969 H 1.01102 0.70524 0.09205 0.0
H970 H 0.87134 0.58381 0.07285 0.0
H971 H 0.82953 0.63818 0.04839 0.0
H972 H 0.26856 0.51893 0.07582 0.0
H973 H 0.21997 0.56936 0.06074 0.0
H974 H 0.27355 0.59196 0.92741 0.0
H975 H 0.32219 0.54078 0.94175 0.0
loop_
_geom_bond_atom_site_label_1
_geom_bond_atom_site_label_2
_geom_bond_distance
_geom_bond_site_symmetry_2
_ccdc_geom_bond_type
Mg0 O1 2.028 . S
Mg0 O7 1.986 . S
Mg0 O9 2.114 . S
Mg0 O10 2.251 1_455 S
Mg0 O13 2.010 . S
O1 Mg0 2.028 . S
O1 C4 1.250 . S
O2 Mg3 2.028 1_455 S
O2 C4 1.248 . S
Mg3 O2 2.028 1_655 S
Mg3 O8 2.032 1_655 S
Mg3 O10 2.079 . S
C4 O1 1.250 . S
C4 O2 1.248 . S
C5 O6 1.264 . S
C5 O13 1.249 . S
O6 C5 1.264 . S
O7 Mg0 1.986 . S
O7 C11 1.246 . S
O8 Mg3 2.032 1_455 S
O8 C11 1.259 . S
O9 Mg0 2.114 . S
O9 C12 1.252 1_455 S
O10 Mg0 2.251 1_655 S
O10 Mg3 2.079 . S
O10 C12 1.273 . S
C11 O7 1.246 . S
C11 O8 1.259 . S
C12 O9 1.252 1_655 S
C12 O10 1.273 . S
O13 Mg0 2.010 . S
O13 C5 1.249 . S
Mg14 O15 2.028 . S
Mg14 O21 1.986 . S
Mg14 O23 2.114 . S
Mg14 O24 2.251 1_455 S
Mg14 O27 2.010 . S
O15 Mg14 2.028 . S
O15 C18 1.250 . S
O16 Mg17 2.028 . S
O16 C18 1.248 1_655 S
Mg17 O16 2.028 . S
Mg17 O22 2.032 1_655 S
Mg17 O24 2.079 . S
C18 O15 1.250 . S
C18 O16 1.248 1_455 S
C19 O20 1.264 . S
C19 O27 1.249 . S
O20 C19 1.264 . S
O21 Mg14 1.986 . S
O21 C25 1.246 . S
O22 Mg17 2.032 1_455 S
O22 C25 1.259 . S
O23 Mg14 2.114 . S
O23 C26 1.252 1_455 S
O24 Mg14 2.251 1_655 S
O24 Mg17 2.079 . S
O24 C26 1.273 . S
C25 O21 1.246 . S
C25 O22 1.259 . S
C26 O23 1.252 1_655 S
C26 O24 1.273 . S
O27 Mg14 2.010 . S
O27 C19 1.249 . S
Mg28 O29 2.028 . S
Mg28 O35 1.986 . S
Mg28 O37 2.114 . S
Mg28 O38 2.251 . S
Mg28 O41 2.010 . S
O29 Mg28 2.028 . S
O29 C32 1.250 . S
O30 Mg31 2.028 . S
O30 C32 1.248 . S
Mg31 O30 2.028 . S
Mg31 O36 2.032 . S
Mg31 O38 2.079 . S
C32 O29 1.250 . S
C32 O30 1.248 . S
C33 O34 1.264 . S
C33 O41 1.249 . S
O34 C33 1.264 . S
O35 Mg28 1.986 . S
O35 C39 1.246 . S
O36 Mg31 2.032 . S
O36 C39 1.259 . S
O37 Mg28 2.114 . S
O37 C40 1.252 . S
O38 Mg28 2.251 . S
O38 Mg31 2.079 . S
O38 C40 1.273 . S
C39 O35 1.246 . S
C39 O36 1.259 . S
C40 O37 1.252 . S
C40 O38 1.273 . S
O41 Mg28 2.010 . S
O41 C33 1.249 . S
Mg42 O43 2.028 . S
Mg42 O49 1.986 . S
Mg42 O51 2.114 . S
Mg42 O52 2.251 . S
Mg42 O55 2.010 . S
O43 Mg42 2.028 . S
O43 C46 1.250 . S
O44 Mg45 2.028 . S
O44 C46 1.248 . S
Mg45 O44 2.028 . S
Mg45 O50 2.032 . S
Mg45 O52 2.079 . S
C46 O43 1.250 . S
C46 O44 1.248 . S
C47 O48 1.264 . S
C47 O55 1.249 . S
O48 C47 1.264 . S
O49 Mg42 1.986 . S
O49 C53 1.246 . S
O50 Mg45 2.032 . S
O50 C53 1.259 . S
O51 Mg42 2.114 . S
O51 C54 1.252 . S
O52 Mg42 2.251 . S
O52 Mg45 2.079 . S
O52 C54 1.273 . S
C53 O49 1.246 . S
C53 O50 1.259 . S
C54 O51 1.252 . S
C54 O52 1.273 . S
O55 Mg42 2.010 . S
O55 C47 1.249 . S
Mg56 O57 2.028 . S
Mg56 O63 1.986 . S
Mg56 O65 2.114 . S
Mg56 O66 2.251 . S
Mg56 O69 2.010 . S
O57 Mg56 2.028 . S
O57 C60 1.250 . S
O58 Mg59 2.028 . S
O58 C60 1.248 . S
Mg59 O58 2.028 . S
Mg59 O64 2.032 . S
Mg59 O66 2.079 . S
C60 O57 1.250 . S
C60 O58 1.248 . S
C61 O62 1.264 . S
C61 O69 1.249 . S
O62 C61 1.264 . S
O63 Mg56 1.986 . S
O63 C67 1.246 . S
O64 Mg59 2.032 . S
O64 C67 1.259 . S
O65 Mg56 2.114 . S
O65 C68 1.252 . S
O66 Mg56 2.251 . S
O66 Mg59 2.079 . S
O66 C68 1.273 . S
C67 O63 1.246 . S
C67 O64 1.259 . S
C68 O65 1.252 . S
C68 O66 1.273 . S
O69 Mg56 2.010 . S
O69 C61 1.249 . S
Mg70 O71 2.028 . S
Mg70 O77 1.986 . S
Mg70 O79 2.114 . S
Mg70 O80 2.251 . S
Mg70 O83 2.010 . S
O71 Mg70 2.028 . S
O71 C74 1.250 . S
O72 Mg73 2.028 . S
O72 C74 1.248 . S
Mg73 O72 2.028 . S
Mg73 O78 2.032 . S
Mg73 O80 2.079 . S
C74 O71 1.250 . S
C74 O72 1.248 . S
C75 O76 1.264 . S
C75 O83 1.249 . S
O76 C75 1.264 . S
O77 Mg70 1.986 . S
O77 C81 1.246 . S
O78 Mg73 2.032 . S
O78 C81 1.259 . S
O79 Mg70 2.114 . S
O79 C82 1.252 . S
O80 Mg70 2.251 . S
O80 Mg73 2.079 . S
O80 C82 1.273 . S
C81 O77 1.246 . S
C81 O78 1.259 . S
C82 O79 1.252 . S
C82 O80 1.273 . S
O83 Mg70 2.010 . S
O83 C75 1.249 . S
Mg84 O85 2.028 . S
Mg84 O91 1.986 . S
Mg84 O93 2.114 . S
Mg84 O94 2.251 . S
Mg84 O97 2.010 . S
O85 Mg84 2.028 . S
O85 C88 1.250 . S
O86 Mg87 2.028 . S
O86 C88 1.248 . S
Mg87 O86 2.028 . S
Mg87 O92 2.032 . S
Mg87 O94 2.079 . S
C88 O85 1.250 . S
C88 O86 1.248 . S
C89 O90 1.264 . S
C89 O97 1.249 . S
O90 C89 1.264 . S
O91 Mg84 1.986 . S
O91 C95 1.246 . S
O92 Mg87 2.032 . S
O92 C95 1.259 . S
O93 Mg84 2.114 . S
O93 C96 1.252 . S
O94 Mg84 2.251 . S
O94 Mg87 2.079 . S
O94 C96 1.273 . S
C95 O91 1.246 . S
C95 O92 1.259 . S
C96 O93 1.252 . S
C96 O94 1.273 . S
O97 Mg84 2.010 . S
O97 C89 1.249 . S
Mg98 O99 2.028 1_656 S
Mg98 O105 1.986 1_656 S
Mg98 O107 2.114 . S
Mg98 O108 2.251 . S
Mg98 O111 2.010 1_655 S
O99 Mg98 2.028 1_454 S
O99 C102 1.250 . S
O100 Mg101 2.028 . S
O100 C102 1.248 1_655 S
Mg101 O100 2.028 . S
Mg101 O106 2.032 . S
Mg101 O108 2.079 1_554 S
C102 O99 1.250 . S
C102 O100 1.248 1_455 S
C103 O104 1.264 . S
C103 O111 1.249 . S
O104 C103 1.264 . S
O105 Mg98 1.986 1_454 S
O105 C109 1.246 1_455 S
O106 Mg101 2.032 . S
O106 C109 1.259 . S
O107 Mg98 2.114 . S
O107 C110 1.252 . S
O108 Mg98 2.251 . S
O108 Mg101 2.079 1_556 S
O108 C110 1.273 . S
C109 O105 1.246 1_655 S
C109 O106 1.259 . S
C110 O107 1.252 . S
C110 O108 1.273 . S
O111 Mg98 2.010 1_455 S
O111 C103 1.249 . S
Mg112 O113 2.028 1_545 S
Mg112 O119 1.986 . S
Mg112 O121 2.114 . S
Mg112 O122 2.251 . S
Mg112 O125 2.010 . S
O113 Mg112 2.028 1_565 S
O113 C116 1.250 . S
O114 Mg115 2.028 1_565 S
O114 C116 1.248 . S
Mg115 O114 2.028 1_545 S
Mg115 O120 2.032 . S
Mg115 O122 2.079 . S
C116 O113 1.250 . S
C116 O114 1.248 . S
C117 O118 1.264 . S
C117 O125 1.249 . S
O118 C117 1.264 . S
O119 Mg112 1.986 . S
O119 C123 1.246 . S
O120 Mg115 2.032 . S
O120 C123 1.259 . S
O121 Mg112 2.114 . S
O121 C124 1.252 . S
O122 Mg112 2.251 . S
O122 Mg115 2.079 . S
O122 C124 1.273 . S
C123 O119 1.246 . S
C123 O120 1.259 . S
C124 O121 1.252 . S
C124 O122 1.273 . S
O125 Mg112 2.010 . S
O125 C117 1.249 . S
Mg126 O127 2.028 . S
Mg126 O133 1.986 . S
Mg126 O135 2.114 . S
Mg126 O136 2.251 . S
Mg126 O139 2.010 . S
O127 Mg126 2.028 . S
O127 C130 1.250 . S
O128 Mg129 2.028 . S
O128 C130 1.248 . S
Mg129 O128 2.028 . S
Mg129 O134 2.032 . S
Mg129 O136 2.079 . S
C130 O127 1.250 . S
C130 O128 1.248 . S
C131 O132 1.264 . S
C131 O139 1.249 . S
O132 C131 1.264 . S
O133 Mg126 1.986 . S
O133 C137 1.246 . S
O134 Mg129 2.032 . S
O134 C137 1.259 . S
O135 Mg126 2.114 . S
O135 C138 1.252 . S
O136 Mg126 2.251 . S
O136 Mg129 2.079 . S
O136 C138 1.273 . S
C137 O133 1.246 . S
C137 O134 1.259 . S
C138 O135 1.252 . S
C138 O136 1.273 . S
O139 Mg126 2.010 . S
O139 C131 1.249 . S
Mg140 O141 2.028 . S
Mg140 O147 1.986 . S
Mg140 O149 2.114 . S
Mg140 O150 2.251 . S
Mg140 O153 2.010 . S
O141 Mg140 2.028 . S
O141 C144 1.250 . S
O142 Mg143 2.028 . S
O142 C144 1.248 . S
Mg143 O142 2.028 . S
Mg143 O148 2.032 . S
Mg143 O150 2.079 . S
C144 O141 1.250 . S
C144 O142 1.248 . S
C145 O146 1.264 . S
C145 O153 1.249 . S
O146 C145 1.264 . S
O147 Mg140 1.986 . S
O147 C151 1.246 . S
O148 Mg143 2.032 . S
O148 C151 1.259 . S
O149 Mg140 2.114 . S
O149 C152 1.252 . S
O150 Mg140 2.251 . S
O150 Mg143 2.079 . S
O150 C152 1.273 . S
C151 O147 1.246 . S
C151 O148 1.259 . S
C152 O149 1.252 . S
C152 O150 1.273 . S
O153 Mg140 2.010 . S
O153 C145 1.249 . S
Mg154 O155 2.028 1_544 S
Mg154 O161 1.986 1_545 S
Mg154 O163 2.114 . S
Mg154 O164 2.251 . S
Mg154 O167 2.010 . S
O155 Mg154 2.028 1_566 S
O155 C158 1.250 . S
O156 Mg157 2.028 1_556 S
O156 C158 1.248 . S
Mg157 O156 2.028 1_554 S
Mg157 O162 2.032 . S
Mg157 O164 2.079 1_565 S
C158 O155 1.250 . S
C158 O156 1.248 . S
C159 O160 1.264 . S
C159 O167 1.249 . S
O160 C159 1.264 . S
O161 Mg154 1.986 1_565 S
O161 C165 1.246 . S
O162 Mg157 2.032 . S
O162 C165 1.259 . S
O163 Mg154 2.114 . S
O163 C166 1.252 . S
O164 Mg154 2.251 . S
O164 Mg157 2.079 1_545 S
O164 C166 1.273 . S
C165 O161 1.246 . S
C165 O162 1.259 . S
C166 O163 1.252 . S
C166 O164 1.273 . S
O167 Mg154 2.010 . S
O167 C159 1.249 . S
Mg168 O169 2.028 . S
Mg168 O175 1.986 . S
Mg168 O177 2.114 . S
Mg168 O178 2.251 . S
Mg168 O181 2.010 . S
O169 Mg168 2.028 . S
O169 C172 1.250 1_554 S
O170 Mg171 2.028 1_556 S
O170 C172 1.248 . S
Mg171 O170 2.028 1_554 S
Mg171 O176 2.032 . S
Mg171 O178 2.079 . S
C172 O169 1.250 1_556 S
C172 O170 1.248 . S
C173 O174 1.264 . S
C173 O181 1.249 . S
O174 C173 1.264 . S
O175 Mg168 1.986 . S
O175 C179 1.246 . S
O176 Mg171 2.032 . S
O176 C179 1.259 . S
O177 Mg168 2.114 . S
O177 C180 1.252 . S
O178 Mg168 2.251 . S
O178 Mg171 2.079 . S
O178 C180 1.273 . S
C179 O175 1.246 . S
C179 O176 1.259 . S
C180 O177 1.252 . S
C180 O178 1.273 . S
O181 Mg168 2.010 . S
O181 C173 1.249 . S
Mg182 O183 2.028 . S
Mg182 O189 1.986 . S
Mg182 O191 2.114 . S
Mg182 O192 2.251 . S
Mg182 O195 2.010 . S
O183 Mg182 2.028 . S
O183 C186 1.250 . S
O184 Mg185 2.028 . S
O184 C186 1.248 . S
Mg185 O184 2.028 . S
Mg185 O190 2.032 . S
Mg185 O192 2.079 . S
C186 O183 1.250 . S
C186 O184 1.248 . S
C187 O188 1.264 . S
C187 O195 1.249 . S
O188 C187 1.264 . S
O189 Mg182 1.986 . S
O189 C193 1.246 . S
O190 Mg185 2.032 . S
O190 C193 1.259 . S
O191 Mg182 2.114 . S
O191 C194 1.252 . S
O192 Mg182 2.251 . S
O192 Mg185 2.079 . S
O192 C194 1.273 . S
C193 O189 1.246 . S
C193 O190 1.259 . S
C194 O191 1.252 . S
C194 O192 1.273 . S
O195 Mg182 2.010 . S
O195 C187 1.249 . S
Mg196 O197 2.028 . S
Mg196 O203 1.986 . S
Mg196 O205 2.114 . S
Mg196 O206 2.251 . S
Mg196 O209 2.010 . S
O197 Mg196 2.028 . S
O197 C200 1.250 . S
O198 Mg199 2.028 . S
O198 C200 1.248 . S
Mg199 O198 2.028 . S
Mg199 O204 2.032 . S
Mg199 O206 2.079 . S
C200 O197 1.250 . S
C200 O198 1.248 . S
C201 O202 1.264 . S
C201 O209 1.249 . S
O202 C201 1.264 . S
O203 Mg196 1.986 . S
O203 C207 1.246 . S
O204 Mg199 2.032 . S
O204 C207 1.259 . S
O205 Mg196 2.114 . S
O205 C208 1.252 . S
O206 Mg196 2.251 . S
O206 Mg199 2.079 . S
O206 C208 1.273 . S
C207 O203 1.246 . S
C207 O204 1.259 . S
C208 O205 1.252 . S
C208 O206 1.273 . S
O209 Mg196 2.010 . S
O209 C201 1.249 . S
Mg210 O211 2.028 . S
Mg210 O217 1.986 . S
Mg210 O219 2.114 . S
Mg210 O220 2.251 . S
Mg210 O223 2.010 . S
O211 Mg210 2.028 . S
O211 C214 1.250 . S
O212 Mg213 2.028 . S
O212 C214 1.248 . S
Mg213 O212 2.028 . S
Mg213 O218 2.032 . S
Mg213 O220 2.079 . S
C214 O211 1.250 . S
C214 O212 1.248 . S
C215 O216 1.264 1_565 S
C215 O223 1.249 . S
O216 C215 1.264 1_545 S
O217 Mg210 1.986 . S
O217 C221 1.246 . S
O218 Mg213 2.032 . S
O218 C221 1.259 . S
O219 Mg210 2.114 . S
O219 C222 1.252 . S
O220 Mg210 2.251 . S
O220 Mg213 2.079 . S
O220 C222 1.273 . S
C221 O217 1.246 . S
C221 O218 1.259 . S
C222 O219 1.252 . S
C222 O220 1.273 . S
O223 Mg210 2.010 . S
O223 C215 1.249 . S
Mg224 O225 2.028 1_545 S
Mg224 O231 1.986 . S
Mg224 O233 2.114 1_655 S
Mg224 O234 2.251 . S
Mg224 O237 2.010 1_655 S
O225 Mg224 2.028 1_565 S
O225 C228 1.250 . S
O226 Mg227 2.028 1_565 S
O226 C228 1.248 . S
Mg227 O226 2.028 1_545 S
Mg227 O232 2.032 . S
Mg227 O234 2.079 . S
C228 O225 1.250 . S
C228 O226 1.248 . S
C229 O230 1.264 . S
C229 O237 1.249 . S
O230 C229 1.264 . S
O231 Mg224 1.986 . S
O231 C235 1.246 . S
O232 Mg227 2.032 . S
O232 C235 1.259 . S
O233 Mg224 2.114 1_455 S
O233 C236 1.252 . S
O234 Mg224 2.251 . S
O234 Mg227 2.079 . S
O234 C236 1.273 1_655 S
C235 O231 1.246 . S
C235 O232 1.259 . S
C236 O233 1.252 . S
C236 O234 1.273 1_455 S
O237 Mg224 2.010 1_455 S
O237 C229 1.249 . S
Mg238 O239 2.028 . S
Mg238 O245 1.986 . S
Mg238 O247 2.114 . S
Mg238 O248 2.251 . S
Mg238 O251 2.010 . S
O239 Mg238 2.028 . S
O239 C242 1.250 . S
O240 Mg241 2.028 . S
O240 C242 1.248 . S
Mg241 O240 2.028 . S
Mg241 O246 2.032 . S
Mg241 O248 2.079 . S
C242 O239 1.250 . S
C242 O240 1.248 . S
C243 O244 1.264 . S
C243 O251 1.249 . S
O244 C243 1.264 . S
O245 Mg238 1.986 . S
O245 C249 1.246 . S
O246 Mg241 2.032 . S
O246 C249 1.259 . S
O247 Mg238 2.114 . S
O247 C250 1.252 . S
O248 Mg238 2.251 . S
O248 Mg241 2.079 . S
O248 C250 1.273 . S
C249 O245 1.246 . S
C249 O246 1.259 . S
C250 O247 1.252 . S
C250 O248 1.273 . S
O251 Mg238 2.010 . S
O251 C243 1.249 . S
Mg252 O253 2.028 . S
Mg252 O259 1.986 . S
Mg252 O261 2.114 . S
Mg252 O262 2.251 . S
Mg252 O265 2.010 . S
O253 Mg252 2.028 . S
O253 C256 1.250 . S
O254 Mg255 2.028 . S
O254 C256 1.248 . S
Mg255 O254 2.028 . S
Mg255 O260 2.032 . S
Mg255 O262 2.079 . S
C256 O253 1.250 . S
C256 O254 1.248 . S
C257 O258 1.264 . S
C257 O265 1.249 . S
O258 C257 1.264 . S
O259 Mg252 1.986 . S
O259 C263 1.246 . S
O260 Mg255 2.032 . S
O260 C263 1.259 . S
O261 Mg252 2.114 . S
O261 C264 1.252 . S
O262 Mg252 2.251 . S
O262 Mg255 2.079 . S
O262 C264 1.273 . S
C263 O259 1.246 . S
C263 O260 1.259 . S
C264 O261 1.252 . S
C264 O262 1.273 . S
O265 Mg252 2.010 . S
O265 C257 1.249 . S
Mg266 O267 2.028 . S
Mg266 O273 1.986 . S
Mg266 O275 2.114 . S
Mg266 O276 2.251 . S
Mg266 O279 2.010 . S
O267 Mg266 2.028 . S
O267 C270 1.250 . S
O268 Mg269 2.028 . S
O268 C270 1.248 . S
Mg269 O268 2.028 . S
Mg269 O274 2.032 . S
Mg269 O276 2.079 . S
C270 O267 1.250 . S
C270 O268 1.248 . S
C271 O272 1.264 . S
C271 O279 1.249 . S
O272 C271 1.264 . S
O273 Mg266 1.986 . S
O273 C277 1.246 . S
O274 Mg269 2.032 . S
O274 C277 1.259 . S
O275 Mg266 2.114 . S
O275 C278 1.252 . S
O276 Mg266 2.251 . S
O276 Mg269 2.079 . S
O276 C278 1.273 . S
C277 O273 1.246 . S
C277 O274 1.259 . S
C278 O275 1.252 . S
C278 O276 1.273 . S
O279 Mg266 2.010 . S
O279 C271 1.249 . S
Mg280 O281 2.028 . S
Mg280 O287 1.998 . S
Mg280 O289 2.114 . S
Mg280 O290 2.251 . S
Mg280 O293 2.010 . S
O281 Mg280 2.028 . S
O281 C284 1.250 . S
O282 Mg283 2.028 . S
O282 C284 1.248 . S
Mg283 O282 2.028 . S
Mg283 O288 2.032 . S
Mg283 O290 2.079 . S
C284 O281 1.250 . S
C284 O282 1.248 . S
C285 O286 1.264 1_554 S
C285 O293 1.249 . S
O286 C285 1.264 1_556 S
O287 Mg280 1.998 . S
O287 C291 1.237 1_554 S
O288 Mg283 2.032 . S
O288 C291 1.259 1_554 S
O289 Mg280 2.114 . S
O289 C292 1.252 . S
O290 Mg280 2.251 . S
O290 Mg283 2.079 . S
O290 C292 1.273 . S
C291 O287 1.237 1_556 S
C291 O288 1.259 1_556 S
C292 O289 1.252 . S
C292 O290 1.273 . S
O293 Mg280 2.010 . S
O293 C285 1.249 . S
Mg294 O295 2.028 . S
Mg294 O301 1.986 . S
Mg294 O303 2.114 . S
Mg294 O304 2.251 . S
Mg294 O307 2.010 . S
O295 Mg294 2.028 . S
O295 C298 1.250 . S
O296 Mg297 2.028 . S
O296 C298 1.248 . S
Mg297 O296 2.028 . S
Mg297 O302 2.032 . S
Mg297 O304 2.079 . S
C298 O295 1.250 . S
C298 O296 1.248 . S
C299 O300 1.264 . S
C299 O307 1.249 . S
O300 C299 1.264 . S
O301 Mg294 1.986 . S
O301 C305 1.246 . S
O302 Mg297 2.032 . S
O302 C305 1.259 . S
O303 Mg294 2.114 . S
O303 C306 1.252 . S
O304 Mg294 2.251 . S
O304 Mg297 2.079 . S
O304 C306 1.273 . S
C305 O301 1.246 . S
C305 O302 1.259 . S
C306 O303 1.252 . S
C306 O304 1.273 . S
O307 Mg294 2.010 . S
O307 C299 1.249 . S
Mg308 O309 2.028 . S
Mg308 O315 1.986 . S
Mg308 O317 2.114 . S
Mg308 O318 2.251 . S
Mg308 O321 2.010 . S
O309 Mg308 2.028 . S
O309 C312 1.250 . S
O310 Mg311 2.028 . S
O310 C312 1.248 . S
Mg311 O310 2.028 . S
Mg311 O316 2.032 . S
Mg311 O318 2.079 . S
C312 O309 1.250 . S
C312 O310 1.248 . S
C313 O314 1.264 . S
C313 O321 1.249 . S
O314 C313 1.264 . S
O315 Mg308 1.986 . S
O315 C319 1.246 . S
O316 Mg311 2.032 . S
O316 C319 1.259 . S
O317 Mg308 2.114 . S
O317 C320 1.252 . S
O318 Mg308 2.251 . S
O318 Mg311 2.079 . S
O318 C320 1.273 . S
C319 O315 1.246 . S
C319 O316 1.259 . S
C320 O317 1.252 . S
C320 O318 1.273 . S
O321 Mg308 2.010 . S
O321 C313 1.249 . S
Mg322 O323 2.028 . S
Mg322 O329 1.986 . S
Mg322 O331 2.114 . S
Mg322 O332 2.251 . S
Mg322 O335 2.010 . S
O323 Mg322 2.028 . S
O323 C326 1.250 . S
O324 Mg325 2.028 . S
O324 C326 1.248 . S
Mg325 O324 2.028 . S
Mg325 O330 2.032 . S
Mg325 O332 2.079 . S
C326 O323 1.250 . S
C326 O324 1.248 . S
C327 O328 1.264 . S
C327 O335 1.249 . S
O328 C327 1.264 . S
O329 Mg322 1.986 . S
O329 C333 1.246 . S
O330 Mg325 2.032 . S
O330 C333 1.259 . S
O331 Mg322 2.114 . S
O331 C334 1.252 . S
O332 Mg322 2.251 . S
O332 Mg325 2.079 . S
O332 C334 1.273 . S
C333 O329 1.246 . S
C333 O330 1.259 . S
C334 O331 1.252 . S
C334 O332 1.273 . S
O335 Mg322 2.010 . S
O335 C327 1.249 . S
Dy336 O339 2.307 . S
Dy336 O341 2.395 . S
Dy336 O342 2.379 . S
Dy336 O344 2.339 . S
Dy336 O346 2.298 . S
Dy336 O350 2.292 . S
Dy336 C358 2.738 . S
Dy337 O340 2.298 1_655 S
Dy337 O343 2.275 1_655 S
Dy337 O345 2.307 1_645 S
Dy337 O347 2.395 . S
Dy337 O348 2.379 1_554 S
Dy337 O351 2.339 1_654 S
Dy337 C367 2.738 . S
C338 O350 1.237 1_556 S
C338 O351 1.257 . S
O339 Dy336 2.307 . S
O339 C349 1.266 . S
O340 Dy337 2.298 1_455 S
O340 C349 1.236 . S
O341 Dy336 2.395 . S
O341 C358 1.255 . S
O342 Dy336 2.379 . S
O342 C358 1.249 . S
O343 Dy337 2.275 1_455 S
O343 C359 1.254 . S
O344 Dy336 2.339 . S
O344 C359 1.257 . S
O345 Dy337 2.307 1_465 S
O345 C360 1.255 . S
O346 Dy336 2.298 . S
O346 C360 1.227 1_545 S
O347 Dy337 2.395 . S
O347 C367 1.255 . S
O348 Dy337 2.379 1_556 S
O348 C367 1.249 1_556 S
C349 O339 1.266 . S
C349 O340 1.236 . S
O350 Dy336 2.292 . S
O350 C338 1.237 1_554 S
O351 Dy337 2.339 1_456 S
O351 C338 1.257 . S
C352 C355 1.344 . S
C352 C356 1.328 . S
C352 C358 1.516 . S
C353 C354 1.304 . S
C353 C357 1.323 . S
C354 C353 1.304 . S
C354 C355 1.371 . S
C354 H368 0.930 . S
C355 C352 1.344 . S
C355 C354 1.371 . S
C355 H369 0.931 . S
C356 C352 1.328 . S
C356 C357 1.433 . S
C356 H370 0.931 . S
C357 C353 1.323 . S
C357 C356 1.433 . S
C357 H371 0.933 . S
C358 Dy336 2.738 . S
C358 O341 1.255 . S
C358 O342 1.249 . S
C358 C352 1.516 . S
C359 O343 1.254 . S
C359 O344 1.257 . S
C360 O345 1.255 . S
C360 O346 1.227 1_565 S
C361 C364 1.344 . S
C361 C365 1.328 1_554 S
C361 C367 1.516 . S
C362 C363 1.304 1_556 S
C362 C366 1.323 . S
C363 C362 1.304 1_554 S
C363 C364 1.371 . S
C363 H372 0.930 . S
C364 C361 1.344 . S
C364 C363 1.371 . S
C364 H373 0.931 . S
C365 C361 1.328 1_556 S
C365 C366 1.433 . S
C365 H374 0.931 . S
C366 C362 1.323 . S
C366 C365 1.433 . S
C366 H375 0.933 . S
C367 Dy337 2.738 . S
C367 O347 1.255 . S
C367 O348 1.249 1_554 S
C367 C361 1.516 . S
H368 C354 0.930 . S
H369 C355 0.931 . S
H370 C356 0.931 . S
H371 C357 0.933 . S
H372 C363 0.930 . S
H373 C364 0.931 . S
H374 C365 0.931 . S
H375 C366 0.933 . S
Dy376 O379 2.307 . S
Dy376 O381 2.395 . S
Dy376 O382 2.379 . S
Dy376 O384 2.339 . S
Dy376 O386 2.298 . S
Dy376 O390 2.275 . S
Dy376 C398 2.738 . S
Dy377 O380 2.298 . S
Dy377 O383 2.275 . S
Dy377 O385 2.307 . S
Dy377 O387 2.395 . S
Dy377 O388 2.379 . S
Dy377 O391 2.339 . S
Dy377 C407 2.738 . S
C378 O390 1.254 . S
C378 O391 1.257 . S
O379 Dy376 2.307 . S
O379 C389 1.266 . S
O380 Dy377 2.298 . S
O380 C389 1.236 . S
O381 Dy376 2.395 . S
O381 C398 1.255 . S
O382 Dy376 2.379 . S
O382 C398 1.249 . S
O383 Dy377 2.275 . S
O383 C399 1.254 . S
O384 Dy376 2.339 . S
O384 C399 1.257 . S
O385 Dy377 2.307 . S
O385 C400 1.266 . S
O386 Dy376 2.298 . S
O386 C400 1.236 . S
O387 Dy377 2.395 . S
O387 C407 1.255 . S
O388 Dy377 2.379 . S
O388 C407 1.249 . S
C389 O379 1.266 . S
C389 O380 1.236 . S
O390 Dy376 2.275 . S
O390 C378 1.254 . S
O391 Dy377 2.339 . S
O391 C378 1.257 . S
C392 C395 1.344 . S
C392 C396 1.328 . S
C392 C398 1.516 . S
C393 C394 1.304 . S
C393 C397 1.323 . S
C394 C393 1.304 . S
C394 C395 1.371 . S
C394 H408 0.930 . S
C395 C392 1.344 . S
C395 C394 1.371 . S
C395 H409 0.931 . S
C396 C392 1.328 . S
C396 C397 1.433 . S
C396 H410 0.931 . S
C397 C393 1.323 . S
C397 C396 1.433 . S
C397 H411 0.933 . S
C398 Dy376 2.738 . S
C398 O381 1.255 . S
C398 O382 1.249 . S
C398 C392 1.516 . S
C399 O383 1.254 . S
C399 O384 1.257 . S
C400 O385 1.266 . S
C400 O386 1.236 . S
C401 C404 1.344 . S
C401 C405 1.328 . S
C401 C407 1.516 . S
C402 C403 1.304 . S
C402 C406 1.323 . S
C403 C402 1.304 . S
C403 C404 1.371 . S
C403 H412 0.930 . S
C404 C401 1.344 . S
C404 C403 1.371 . S
C404 H413 0.931 . S
C405 C401 1.328 . S
C405 C406 1.433 . S
C405 H414 0.931 . S
C406 C402 1.323 . S
C406 C405 1.433 . S
C406 H415 0.933 . S
C407 Dy377 2.738 . S
C407 O387 1.255 . S
C407 O388 1.249 . S
C407 C401 1.516 . S
H408 C394 0.930 . S
H409 C395 0.931 . S
H410 C396 0.931 . S
H411 C397 0.933 . S
H412 C403 0.930 . S
H413 C404 0.931 . S
H414 C405 0.931 . S
H415 C406 0.933 . S
Dy416 O419 2.307 . S
Dy416 O421 2.395 . S
Dy416 O422 2.379 . S
Dy416 O424 2.339 . S
Dy416 O426 2.298 . S
Dy416 O430 2.275 . S
Dy416 C438 2.738 . S
Dy417 O420 2.298 . S
Dy417 O423 2.275 . S
Dy417 O425 2.307 . S
Dy417 O427 2.395 . S
Dy417 O428 2.379 . S
Dy417 O431 2.339 . S
Dy417 C447 2.738 . S
C418 O430 1.254 . S
C418 O431 1.257 . S
O419 Dy416 2.307 . S
O419 C429 1.266 . S
O420 Dy417 2.298 . S
O420 C429 1.236 . S
O421 Dy416 2.395 . S
O421 C438 1.255 . S
O422 Dy416 2.379 . S
O422 C438 1.249 . S
O423 Dy417 2.275 . S
O423 C439 1.254 . S
O424 Dy416 2.339 . S
O424 C439 1.257 . S
O425 Dy417 2.307 . S
O425 C440 1.266 . S
O426 Dy416 2.298 . S
O426 C440 1.236 . S
O427 Dy417 2.395 . S
O427 C447 1.255 . S
O428 Dy417 2.379 . S
O428 C447 1.249 . S
C429 O419 1.266 . S
C429 O420 1.236 . S
O430 Dy416 2.275 . S
O430 C418 1.254 . S
O431 Dy417 2.339 . S
O431 C418 1.257 . S
C432 C435 1.344 . S
C432 C436 1.328 . S
C432 C438 1.516 . S
C433 C434 1.304 . S
C433 C437 1.323 . S
C434 C433 1.304 . S
C434 C435 1.371 . S
C434 H448 0.930 . S
C435 C432 1.344 . S
C435 C434 1.371 . S
C435 H449 0.931 . S
C436 C432 1.328 . S
C436 C437 1.433 . S
C436 H450 0.931 . S
C437 C433 1.323 . S
C437 C436 1.433 . S
C437 H451 0.933 . S
C438 Dy416 2.738 . S
C438 O421 1.255 . S
C438 O422 1.249 . S
C438 C432 1.516 . S
C439 O423 1.254 . S
C439 O424 1.257 . S
C440 O425 1.266 . S
C440 O426 1.236 . S
C441 C444 1.344 . S
C441 C445 1.328 1_545 S
C441 C447 1.516 . S
C442 C443 1.304 . S
C442 C446 1.323 . S
C443 C442 1.304 . S
C443 C444 1.371 1_565 S
C443 H452 0.930 . S
C444 C441 1.344 . S
C444 C443 1.371 1_545 S
C444 H453 0.931 . S
C445 C441 1.328 1_565 S
C445 C446 1.433 . S
C445 H454 0.931 . S
C446 C442 1.323 . S
C446 C445 1.433 . S
C446 H455 0.933 . S
C447 Dy417 2.738 . S
C447 O427 1.255 . S
C447 O428 1.249 . S
C447 C441 1.516 . S
H448 C434 0.930 . S
H449 C435 0.931 . S
H450 C436 0.931 . S
H451 C437 0.933 . S
H452 C443 0.930 . S
H453 C444 0.931 . S
H454 C445 0.931 . S
H455 C446 0.933 . S
Dy456 O459 2.307 . S
Dy456 O461 2.395 . S
Dy456 O462 2.379 . S
Dy456 O464 2.339 . S
Dy456 O466 2.298 . S
Dy456 O470 2.275 . S
Dy456 C478 2.738 . S
Dy457 O460 2.298 . S
Dy457 O463 2.275 . S
Dy457 O465 2.307 . S
Dy457 O467 2.395 . S
Dy457 O468 2.379 . S
Dy457 O471 2.339 . S
Dy457 C487 2.738 . S
C458 O470 1.254 . S
C458 O471 1.257 . S
O459 Dy456 2.307 . S
O459 C469 1.266 . S
O460 Dy457 2.298 . S
O460 C469 1.236 . S
O461 Dy456 2.395 . S
O461 C478 1.255 . S
O462 Dy456 2.379 . S
O462 C478 1.249 . S
O463 Dy457 2.275 . S
O463 C479 1.254 . S
O464 Dy456 2.339 . S
O464 C479 1.257 . S
O465 Dy457 2.307 . S
O465 C480 1.266 . S
O466 Dy456 2.298 . S
O466 C480 1.236 . S
O467 Dy457 2.395 . S
O467 C487 1.255 . S
O468 Dy457 2.379 . S
O468 C487 1.249 . S
C469 O459 1.266 . S
C469 O460 1.236 . S
O470 Dy456 2.275 . S
O470 C458 1.254 . S
O471 Dy457 2.339 . S
O471 C458 1.257 . S
C472 C475 1.344 . S
C472 C476 1.328 . S
C472 C478 1.516 . S
C473 C474 1.304 . S
C473 C477 1.323 . S
C474 C473 1.304 . S
C474 C475 1.371 . S
C474 H488 0.930 . S
C475 C472 1.344 . S
C475 C474 1.371 . S
C475 H489 0.931 . S
C476 C472 1.328 . S
C476 C477 1.433 . S
C476 H490 0.931 . S
C477 C473 1.323 . S
C477 C476 1.433 . S
C477 H491 0.933 . S
C478 Dy456 2.738 . S
C478 O461 1.255 . S
C478 O462 1.249 . S
C478 C472 1.516 . S
C479 O463 1.254 . S
C479 O464 1.257 . S
C480 O465 1.266 . S
C480 O466 1.236 . S
C481 C484 1.344 . S
C481 C485 1.328 . S
C481 C487 1.516 . S
C482 C483 1.304 . S
C482 C486 1.323 . S
C483 C482 1.304 . S
C483 C484 1.371 . S
C483 H492 0.930 . S
C484 C481 1.344 . S
C484 C483 1.371 . S
C484 H493 0.931 . S
C485 C481 1.328 . S
C485 C486 1.433 . S
C485 H494 0.931 . S
C486 C482 1.323 . S
C486 C485 1.433 . S
C486 H495 0.933 . S
C487 Dy457 2.738 . S
C487 O467 1.255 . S
C487 O468 1.249 . S
C487 C481 1.516 . S
H488 C474 0.930 . S
H489 C475 0.931 . S
H490 C476 0.931 . S
H491 C477 0.933 . S
H492 C483 0.930 . S
H493 C484 0.931 . S
H494 C485 0.931 . S
H495 C486 0.933 . S
Dy496 O499 2.307 . S
Dy496 O501 2.395 1_545 S
Dy496 O502 2.379 . S
Dy496 O504 2.339 . S
Dy496 O506 2.298 . S
Dy496 O510 2.275 1_455 S
Dy496 C518 2.738 1_545 S
Dy497 O500 2.298 . S
Dy497 O503 2.275 . S
Dy497 O505 2.307 . S
Dy497 O507 2.395 . S
Dy497 O508 2.379 1_455 S
Dy497 O511 2.339 1_455 S
Dy497 C527 2.738 . S
C498 O510 1.254 . S
C498 O511 1.257 . S
O499 Dy496 2.307 . S
O499 C509 1.266 . S
O500 Dy497 2.298 . S
O500 C509 1.236 . S
O501 Dy496 2.395 1_565 S
O501 C518 1.255 . S
O502 Dy496 2.379 . S
O502 C518 1.249 1_545 S
O503 Dy497 2.275 . S
O503 C519 1.254 . S
O504 Dy496 2.339 . S
O504 C519 1.257 . S
O505 Dy497 2.307 . S
O505 C520 1.266 . S
O506 Dy496 2.298 . S
O506 C520 1.236 . S
O507 Dy497 2.395 . S
O507 C527 1.255 . S
O508 Dy497 2.379 1_655 S
O508 C527 1.249 1_655 S
C509 O499 1.266 . S
C509 O500 1.236 . S
O510 Dy496 2.275 1_655 S
O510 C498 1.254 . S
O511 Dy497 2.339 1_655 S
O511 C498 1.257 . S
C512 C515 1.344 . S
C512 C516 1.328 . S
C512 C518 1.516 . S
C513 C514 1.304 . S
C513 C517 1.323 . S
C514 C513 1.304 . S
C514 C515 1.371 . S
C514 H528 0.930 . S
C515 C512 1.344 . S
C515 C514 1.371 . S
C515 H529 0.931 . S
C516 C512 1.328 . S
C516 C517 1.433 . S
C516 H530 0.931 . S
C517 C513 1.323 . S
C517 C516 1.433 . S
C517 H531 0.933 . S
C518 Dy496 2.738 1_565 S
C518 O501 1.255 . S
C518 O502 1.249 1_565 S
C518 C512 1.516 . S
C519 O503 1.254 . S
C519 O504 1.257 . S
C520 O505 1.266 . S
C520 O506 1.236 . S
C521 C524 1.344 . S
C521 C525 1.328 1_455 S
C521 C527 1.516 . S
C522 C523 1.287 1_655 S
C522 C526 1.335 . S
C523 C522 1.287 1_455 S
C523 C524 1.371 . S
C523 H532 0.930 . S
C524 C521 1.344 . S
C524 C523 1.371 . S
C524 H533 0.931 . S
C525 C521 1.328 1_655 S
C525 C526 1.433 . S
C525 H534 0.931 . S
C526 C522 1.335 . S
C526 C525 1.433 . S
C526 H535 0.933 . S
C527 Dy497 2.738 . S
C527 O507 1.255 . S
C527 O508 1.249 1_455 S
C527 C521 1.516 . S
H528 C514 0.930 . S
H529 C515 0.931 . S
H530 C516 0.931 . S
H531 C517 0.933 . S
H532 C523 0.930 . S
H533 C524 0.931 . S
H534 C525 0.931 . S
H535 C526 0.933 . S
Dy536 O539 2.307 . S
Dy536 O541 2.395 . S
Dy536 O542 2.379 . S
Dy536 O544 2.339 . S
Dy536 O546 2.298 . S
Dy536 O550 2.275 . S
Dy536 C558 2.738 . S
Dy537 O540 2.298 . S
Dy537 O543 2.275 . S
Dy537 O545 2.307 . S
Dy537 O547 2.395 . S
Dy537 O548 2.379 . S
Dy537 O551 2.339 . S
Dy537 C567 2.738 . S
C538 O550 1.254 . S
C538 O551 1.257 . S
O539 Dy536 2.307 . S
O539 C549 1.266 . S
O540 Dy537 2.298 . S
O540 C549 1.236 . S
O541 Dy536 2.395 . S
O541 C558 1.255 . S
O542 Dy536 2.379 . S
O542 C558 1.249 . S
O543 Dy537 2.275 . S
O543 C559 1.254 . S
O544 Dy536 2.339 . S
O544 C559 1.257 . S
O545 Dy537 2.307 . S
O545 C560 1.266 . S
O546 Dy536 2.298 . S
O546 C560 1.236 . S
O547 Dy537 2.395 . S
O547 C567 1.255 . S
O548 Dy537 2.379 . S
O548 C567 1.249 . S
C549 O539 1.266 . S
C549 O540 1.236 . S
O550 Dy536 2.275 . S
O550 C538 1.254 . S
O551 Dy537 2.339 . S
O551 C538 1.257 . S
C552 C555 1.344 1_565 S
C552 C556 1.328 . S
C552 C558 1.516 . S
C553 C554 1.304 . S
C553 C557 1.323 . S
C554 C553 1.304 . S
C554 C555 1.371 . S
C554 H568 0.930 . S
C555 C552 1.344 1_545 S
C555 C554 1.371 . S
C555 H569 0.931 . S
C556 C552 1.328 . S
C556 C557 1.433 1_565 S
C556 H570 0.931 . S
C557 C553 1.323 . S
C557 C556 1.433 1_545 S
C557 H571 0.933 . S
C558 Dy536 2.738 . S
C558 O541 1.255 . S
C558 O542 1.249 . S
C558 C552 1.516 . S
C559 O543 1.254 . S
C559 O544 1.257 . S
C560 O545 1.266 . S
C560 O546 1.236 . S
C561 C564 1.344 . S
C561 C565 1.328 . S
C561 C567 1.516 . S
C562 C563 1.304 . S
C562 C566 1.323 . S
C563 C562 1.304 . S
C563 C564 1.371 . S
C563 H572 0.930 . S
C564 C561 1.344 . S
C564 C563 1.371 . S
C564 H573 0.931 . S
C565 C561 1.328 . S
C565 C566 1.433 . S
C565 H574 0.931 . S
C566 C562 1.323 . S
C566 C565 1.433 . S
C566 H575 0.933 . S
C567 Dy537 2.738 . S
C567 O547 1.255 . S
C567 O548 1.249 . S
C567 C561 1.516 . S
H568 C554 0.930 . S
H569 C555 0.931 . S
H570 C556 0.931 . S
H571 C557 0.933 . S
H572 C563 0.930 . S
H573 C564 0.931 . S
H574 C565 0.931 . S
H575 C566 0.933 . S
Dy576 O579 2.307 . S
Dy576 O581 2.395 1_554 S
Dy576 O582 2.379 1_554 S
Dy576 O584 2.339 . S
Dy576 O586 2.298 . S
Dy576 O590 2.275 . S
Dy576 C598 2.738 1_554 S
Dy577 O580 2.298 . S
Dy577 O583 2.275 . S
Dy577 O585 2.307 . S
Dy577 O587 2.395 . S
Dy577 O588 2.379 1_545 S
Dy577 O591 2.339 1_545 S
Dy577 C607 2.738 . S
C578 O590 1.254 . S
C578 O591 1.257 1_545 S
O579 Dy576 2.307 . S
O579 C589 1.266 . S
O580 Dy577 2.298 . S
O580 C589 1.236 . S
O581 Dy576 2.395 1_556 S
O581 C598 1.255 . S
O582 Dy576 2.379 1_556 S
O582 C598 1.249 . S
O583 Dy577 2.275 . S
O583 C599 1.254 . S
O584 Dy576 2.339 . S
O584 C599 1.257 . S
O585 Dy577 2.307 . S
O585 C600 1.266 . S
O586 Dy576 2.298 . S
O586 C600 1.236 . S
O587 Dy577 2.395 . S
O587 C607 1.255 . S
O588 Dy577 2.379 1_565 S
O588 C607 1.249 1_565 S
C589 O579 1.266 . S
C589 O580 1.236 . S
O590 Dy576 2.275 . S
O590 C578 1.254 . S
O591 Dy577 2.339 1_565 S
O591 C578 1.257 1_565 S
C592 C595 1.344 . S
C592 C596 1.328 . S
C592 C598 1.516 . S
C593 C594 1.304 . S
C593 C597 1.323 . S
C594 C593 1.304 . S
C594 C595 1.371 . S
C594 H608 0.930 . S
C595 C592 1.344 . S
C595 C594 1.371 . S
C595 H609 0.931 . S
C596 C592 1.328 . S
C596 C597 1.433 . S
C596 H610 0.931 . S
C597 C593 1.323 . S
C597 C596 1.433 . S
C597 H611 0.933 . S
C598 Dy576 2.738 1_556 S
C598 O581 1.255 . S
C598 O582 1.249 . S
C598 C592 1.516 . S
C599 O583 1.254 . S
C599 O584 1.257 . S
C600 O585 1.266 . S
C600 O586 1.236 . S
C601 C604 1.344 1_565 S
C601 C605 1.328 . S
C601 C607 1.516 1_565 S
C602 C603 1.304 . S
C602 C606 1.323 . S
C603 C602 1.304 . S
C603 C604 1.371 1_565 S
C603 H612 0.930 1_565 S
C604 C601 1.344 1_545 S
C604 C603 1.371 1_545 S
C604 H613 0.931 . S
C605 C601 1.328 . S
C605 C606 1.433 . S
C605 H614 0.931 . S
C606 C602 1.323 . S
C606 C605 1.433 . S
C606 H615 0.933 . S
C607 Dy577 2.738 . S
C607 O587 1.255 . S
C607 O588 1.249 1_545 S
C607 C601 1.516 1_545 S
H608 C594 0.930 . S
H609 C595 0.931 . S
H610 C596 0.931 . S
H611 C597 0.933 . S
H612 C603 0.930 1_545 S
H613 C604 0.931 . S
H614 C605 0.931 . S
H615 C606 0.933 . S
Dy616 O619 2.307 . S
Dy616 O621 2.395 . S
Dy616 O622 2.379 . S
Dy616 O624 2.339 . S
Dy616 O626 2.298 . S
Dy616 O630 2.275 . S
Dy616 C638 2.738 . S
Dy617 O620 2.298 . S
Dy617 O623 2.275 . S
Dy617 O625 2.307 . S
Dy617 O627 2.395 . S
Dy617 O628 2.379 . S
Dy617 O631 2.339 . S
Dy617 C647 2.738 . S
C618 O630 1.254 . S
C618 O631 1.257 . S
O619 Dy616 2.307 . S
O619 C629 1.266 . S
O620 Dy617 2.298 . S
O620 C629 1.236 . S
O621 Dy616 2.395 . S
O621 C638 1.255 . S
O622 Dy616 2.379 . S
O622 C638 1.249 . S
O623 Dy617 2.275 . S
O623 C639 1.254 . S
O624 Dy616 2.339 . S
O624 C639 1.257 . S
O625 Dy617 2.307 . S
O625 C640 1.266 . S
O626 Dy616 2.298 . S
O626 C640 1.236 . S
O627 Dy617 2.395 . S
O627 C647 1.255 . S
O628 Dy617 2.379 . S
O628 C647 1.249 . S
C629 O619 1.266 . S
C629 O620 1.236 . S
O630 Dy616 2.275 . S
O630 C618 1.254 . S
O631 Dy617 2.339 . S
O631 C618 1.257 . S
C632 C635 1.344 . S
C632 C636 1.328 . S
C632 C638 1.516 . S
C633 C634 1.304 . S
C633 C637 1.323 . S
C634 C633 1.304 . S
C634 C635 1.371 . S
C634 H648 0.930 . S
C635 C632 1.344 . S
C635 C634 1.371 . S
C635 H649 0.931 . S
C636 C632 1.328 . S
C636 C637 1.433 . S
C636 H650 0.931 . S
C637 C633 1.323 . S
C637 C636 1.433 . S
C637 H651 0.933 . S
C638 Dy616 2.738 . S
C638 O621 1.255 . S
C638 O622 1.249 . S
C638 C632 1.516 . S
C639 O623 1.254 . S
C639 O624 1.257 . S
C640 O625 1.266 . S
C640 O626 1.236 . S
C641 C644 1.344 . S
C641 C645 1.328 . S
C641 C647 1.516 . S
C642 C643 1.304 . S
C642 C646 1.323 . S
C643 C642 1.304 . S
C643 C644 1.371 . S
C643 H652 0.930 . S
C644 C641 1.344 . S
C644 C643 1.371 . S
C644 H653 0.931 . S
C645 C641 1.328 . S
C645 C646 1.433 . S
C645 H654 0.931 . S
C646 C642 1.323 . S
C646 C645 1.433 . S
C646 H655 0.933 . S
C647 Dy617 2.738 . S
C647 O627 1.255 . S
C647 O628 1.249 . S
C647 C641 1.516 . S
H648 C634 0.930 . S
H649 C635 0.931 . S
H650 C636 0.931 . S
H651 C637 0.933 . S
H652 C643 0.930 . S
H653 C644 0.931 . S
H654 C645 0.931 . S
H655 C646 0.933 . S
Dy656 O659 2.307 1_554 S
Dy656 O661 2.395 . S
Dy656 O662 2.379 . S
Dy656 O664 2.339 . S
Dy656 O666 2.298 . S
Dy656 O670 2.275 . S
Dy656 C678 2.738 . S
Dy657 O660 2.298 1_554 S
Dy657 O663 2.275 . S
Dy657 O665 2.307 . S
Dy657 O667 2.395 . S
Dy657 O668 2.379 . S
Dy657 O671 2.339 . S
Dy657 C687 2.738 . S
C658 O670 1.254 . S
C658 O671 1.257 . S
O659 Dy656 2.307 1_556 S
O659 C669 1.266 . S
O660 Dy657 2.298 1_556 S
O660 C669 1.236 . S
O661 Dy656 2.395 . S
O661 C678 1.255 . S
O662 Dy656 2.379 . S
O662 C678 1.249 . S
O663 Dy657 2.275 . S
O663 C679 1.254 . S
O664 Dy656 2.339 . S
O664 C679 1.257 . S
O665 Dy657 2.307 . S
O665 C680 1.266 . S
O666 Dy656 2.298 . S
O666 C680 1.236 . S
O667 Dy657 2.395 . S
O667 C687 1.255 . S
O668 Dy657 2.379 . S
O668 C687 1.249 . S
C669 O659 1.266 . S
C669 O660 1.236 . S
O670 Dy656 2.275 . S
O670 C658 1.254 . S
O671 Dy657 2.339 . S
O671 C658 1.257 . S
C672 C675 1.344 . S
C672 C676 1.328 . S
C672 C678 1.516 . S
C673 C674 1.304 . S
C673 C677 1.323 . S
C674 C673 1.304 . S
C674 C675 1.371 . S
C674 H688 0.930 . S
C675 C672 1.344 . S
C675 C674 1.371 . S
C675 H689 0.931 . S
C676 C672 1.328 . S
C676 C677 1.433 . S
C676 H690 0.931 . S
C677 C673 1.323 . S
C677 C676 1.433 . S
C677 H691 0.933 . S
C678 Dy656 2.738 . S
C678 O661 1.255 . S
C678 O662 1.249 . S
C678 C672 1.516 . S
C679 O663 1.254 . S
C679 O664 1.257 . S
C680 O665 1.266 . S
C680 O666 1.236 . S
C681 C684 1.344 . S
C681 C685 1.328 . S
C681 C687 1.516 1_556 S
C682 C683 1.304 . S
C682 C686 1.323 . S
C683 C682 1.304 . S
C683 C684 1.371 . S
C683 H692 0.930 . S
C684 C681 1.344 . S
C684 C683 1.371 . S
C684 H693 0.931 . S
C685 C681 1.328 . S
C685 C686 1.433 . S
C685 H694 0.931 . S
C686 C682 1.323 . S
C686 C685 1.433 . S
C686 H695 0.933 . S
C687 Dy657 2.738 . S
C687 O667 1.255 . S
C687 O668 1.249 . S
C687 C681 1.516 1_554 S
H688 C674 0.930 . S
H689 C675 0.931 . S
H690 C676 0.931 . S
H691 C677 0.933 . S
H692 C683 0.930 . S
H693 C684 0.931 . S
H694 C685 0.931 . S
H695 C686 0.933 . S
Dy696 O699 2.307 . S
Dy696 O701 2.395 . S
Dy696 O702 2.379 . S
Dy696 O704 2.339 . S
Dy696 O706 2.298 . S
Dy696 O710 2.275 . S
Dy696 C718 2.738 . S
Dy697 O700 2.298 . S
Dy697 O703 2.275 . S
Dy697 O705 2.307 . S
Dy697 O707 2.395 . S
Dy697 O708 2.379 . S
Dy697 O711 2.339 . S
Dy697 C727 2.738 . S
C698 O710 1.254 . S
C698 O711 1.257 . S
O699 Dy696 2.307 . S
O699 C709 1.266 . S
O700 Dy697 2.298 . S
O700 C709 1.236 . S
O701 Dy696 2.395 . S
O701 C718 1.255 . S
O702 Dy696 2.379 . S
O702 C718 1.249 . S
O703 Dy697 2.275 . S
O703 C719 1.254 . S
O704 Dy696 2.339 . S
O704 C719 1.257 . S
O705 Dy697 2.307 . S
O705 C720 1.266 . S
O706 Dy696 2.298 . S
O706 C720 1.236 . S
O707 Dy697 2.395 . S
O707 C727 1.255 . S
O708 Dy697 2.379 . S
O708 C727 1.249 . S
C709 O699 1.266 . S
C709 O700 1.236 . S
O710 Dy696 2.275 . S
O710 C698 1.254 . S
O711 Dy697 2.339 . S
O711 C698 1.257 . S
C712 C715 1.344 . S
C712 C716 1.328 . S
C712 C718 1.516 . S
C713 C714 1.304 . S
C713 C717 1.323 . S
C714 C713 1.304 . S
C714 C715 1.371 . S
C714 H728 0.930 . S
C715 C712 1.344 . S
C715 C714 1.371 . S
C715 H729 0.931 . S
C716 C712 1.328 . S
C716 C717 1.433 . S
C716 H730 0.931 . S
C717 C713 1.323 . S
C717 C716 1.433 . S
C717 H731 0.933 . S
C718 Dy696 2.738 . S
C718 O701 1.255 . S
C718 O702 1.249 . S
C718 C712 1.516 . S
C719 O703 1.254 . S
C719 O704 1.257 . S
C720 O705 1.266 . S
C720 O706 1.236 . S
C721 C724 1.344 . S
C721 C725 1.328 . S
C721 C727 1.516 . S
C722 C723 1.304 . S
C722 C726 1.323 . S
C723 C722 1.304 . S
C723 C724 1.371 . S
C723 H732 0.930 . S
C724 C721 1.344 . S
C724 C723 1.371 . S
C724 H733 0.931 . S
C725 C721 1.328 . S
C725 C726 1.433 . S
C725 H734 0.931 . S
C726 C722 1.323 . S
C726 C725 1.433 . S
C726 H735 0.933 . S
C727 Dy697 2.738 . S
C727 O707 1.255 . S
C727 O708 1.249 . S
C727 C721 1.516 . S
H728 C714 0.930 . S
H729 C715 0.931 . S
H730 C716 0.931 . S
H731 C717 0.933 . S
H732 C723 0.930 . S
H733 C724 0.931 . S
H734 C725 0.931 . S
H735 C726 0.933 . S
Dy736 O739 2.307 1_455 S
Dy736 O741 2.395 . S
Dy736 O742 2.379 . S
Dy736 O744 2.339 . S
Dy736 O746 2.298 . S
Dy736 O750 2.275 . S
Dy736 C758 2.738 . S
Dy737 O740 2.298 1_455 S
Dy737 O743 2.275 . S
Dy737 O745 2.307 . S
Dy737 O747 2.395 . S
Dy737 O748 2.379 . S
Dy737 O751 2.339 . S
Dy737 C767 2.738 1_455 S
C738 O750 1.254 . S
C738 O751 1.257 . S
O739 Dy736 2.307 1_655 S
O739 C749 1.266 . S
O740 Dy737 2.298 1_655 S
O740 C749 1.236 . S
O741 Dy736 2.395 . S
O741 C758 1.255 . S
O742 Dy736 2.379 . S
O742 C758 1.249 . S
O743 Dy737 2.275 . S
O743 C759 1.254 . S
O744 Dy736 2.339 . S
O744 C759 1.257 . S
O745 Dy737 2.307 . S
O745 C760 1.266 . S
O746 Dy736 2.298 . S
O746 C760 1.236 . S
O747 Dy737 2.395 . S
O747 C767 1.255 1_455 S
O748 Dy737 2.379 . S
O748 C767 1.249 1_455 S
C749 O739 1.266 . S
C749 O740 1.236 . S
O750 Dy736 2.275 . S
O750 C738 1.254 . S
O751 Dy737 2.339 . S
O751 C738 1.257 . S
C752 C755 1.344 . S
C752 C756 1.328 . S
C752 C758 1.516 . S
C753 C754 1.304 . S
C753 C757 1.323 . S
C754 C753 1.304 . S
C754 C755 1.371 . S
C754 H768 0.930 . S
C755 C752 1.344 . S
C755 C754 1.371 . S
C755 H769 0.931 . S
C756 C752 1.328 . S
C756 C757 1.433 . S
C756 H770 0.931 . S
C757 C753 1.323 . S
C757 C756 1.433 . S
C757 H771 0.933 . S
C758 Dy736 2.738 . S
C758 O741 1.255 . S
C758 O742 1.249 . S
C758 C752 1.516 . S
C759 O743 1.254 . S
C759 O744 1.257 . S
C760 O745 1.266 . S
C760 O746 1.236 . S
C761 C764 1.344 . S
C761 C765 1.328 . S
C761 C767 1.516 . S
C762 C763 1.304 . S
C762 C766 1.323 . S
C763 C762 1.304 . S
C763 C764 1.371 . S
C763 H772 0.930 . S
C764 C761 1.344 . S
C764 C763 1.371 . S
C764 H773 0.931 . S
C765 C761 1.328 . S
C765 C766 1.433 . S
C765 H774 0.931 . S
C766 C762 1.323 . S
C766 C765 1.433 . S
C766 H775 0.933 . S
C767 Dy737 2.738 1_655 S
C767 O747 1.255 1_655 S
C767 O748 1.249 1_655 S
C767 C761 1.516 . S
H768 C754 0.930 . S
H769 C755 0.931 . S
H770 C756 0.931 . S
H771 C757 0.933 . S
H772 C763 0.930 . S
H773 C764 0.931 . S
H774 C765 0.931 . S
H775 C766 0.933 . S
Dy776 O779 2.307 . S
Dy776 O781 2.395 . S
Dy776 O782 2.379 . S
Dy776 O784 2.339 . S
Dy776 O786 2.298 . S
Dy776 O790 2.275 . S
Dy776 C798 2.738 . S
Dy777 O780 2.298 . S
Dy777 O783 2.275 . S
Dy777 O785 2.307 . S
Dy777 O787 2.395 . S
Dy777 O788 2.379 . S
Dy777 O791 2.339 . S
Dy777 C807 2.738 . S
C778 O790 1.254 . S
C778 O791 1.257 . S
O779 Dy776 2.307 . S
O779 C789 1.266 . S
O780 Dy777 2.298 . S
O780 C789 1.236 . S
O781 Dy776 2.395 . S
O781 C798 1.255 . S
O782 Dy776 2.379 . S
O782 C798 1.249 . S
O783 Dy777 2.275 . S
O783 C799 1.254 . S
O784 Dy776 2.339 . S
O784 C799 1.257 . S
O785 Dy777 2.307 . S
O785 C800 1.266 . S
O786 Dy776 2.298 . S
O786 C800 1.236 . S
O787 Dy777 2.395 . S
O787 C807 1.255 . S
O788 Dy777 2.379 . S
O788 C807 1.249 . S
C789 O779 1.266 . S
C789 O780 1.236 . S
O790 Dy776 2.275 . S
O790 C778 1.254 . S
O791 Dy777 2.339 . S
O791 C778 1.257 . S
C792 C795 1.344 . S
C792 C796 1.328 . S
C792 C798 1.516 . S
C793 C794 1.307 . S
C793 C797 1.323 1_455 S
C794 C793 1.307 . S
C794 C795 1.367 1_455 S
C794 H808 0.932 . S
C795 C792 1.344 . S
C795 C794 1.367 1_655 S
C795 H809 0.931 . S
C796 C792 1.328 . S
C796 C797 1.433 . S
C796 H810 0.931 . S
C797 C793 1.323 1_655 S
C797 C796 1.433 . S
C797 H811 0.933 . S
C798 Dy776 2.738 . S
C798 O781 1.255 . S
C798 O782 1.249 . S
C798 C792 1.516 . S
C799 O783 1.254 . S
C799 O784 1.257 . S
C800 O785 1.266 . S
C800 O786 1.236 . S
C801 C804 1.344 . S
C801 C805 1.328 . S
C801 C807 1.516 . S
C802 C803 1.304 . S
C802 C806 1.323 . S
C803 C802 1.304 . S
C803 C804 1.371 . S
C803 H812 0.930 . S
C804 C801 1.344 . S
C804 C803 1.371 . S
C804 H813 0.931 . S
C805 C801 1.328 . S
C805 C806 1.433 . S
C805 H814 0.931 . S
C806 C802 1.323 . S
C806 C805 1.433 . S
C806 H815 0.933 . S
C807 Dy777 2.738 . S
C807 O787 1.255 . S
C807 O788 1.249 . S
C807 C801 1.516 . S
H808 C794 0.932 . S
H809 C795 0.931 . S
H810 C796 0.931 . S
H811 C797 0.933 . S
H812 C803 0.930 . S
H813 C804 0.931 . S
H814 C805 0.931 . S
H815 C806 0.933 . S
Dy816 O819 2.307 . S
Dy816 O821 2.395 . S
Dy816 O822 2.379 . S
Dy816 O824 2.339 . S
Dy816 O826 2.298 . S
Dy816 O830 2.275 . S
Dy816 C838 2.738 . S
Dy817 O820 2.298 . S
Dy817 O823 2.275 . S
Dy817 O825 2.307 . S
Dy817 O827 2.395 . S
Dy817 O828 2.379 . S
Dy817 O831 2.339 . S
Dy817 C847 2.738 . S
C818 O830 1.254 . S
C818 O831 1.257 . S
O819 Dy816 2.307 . S
O819 C829 1.266 . S
O820 Dy817 2.298 . S
O820 C829 1.236 . S
O821 Dy816 2.395 . S
O821 C838 1.255 . S
O822 Dy816 2.379 . S
O822 C838 1.249 . S
O823 Dy817 2.275 . S
O823 C839 1.254 . S
O824 Dy816 2.339 . S
O824 C839 1.257 . S
O825 Dy817 2.307 . S
O825 C840 1.266 . S
O826 Dy816 2.298 . S
O826 C840 1.236 . S
O827 Dy817 2.395 . S
O827 C847 1.255 . S
O828 Dy817 2.379 . S
O828 C847 1.249 . S
C829 O819 1.266 . S
C829 O820 1.236 . S
O830 Dy816 2.275 . S
O830 C818 1.254 . S
O831 Dy817 2.339 . S
O831 C818 1.257 . S
C832 C835 1.344 . S
C832 C836 1.328 . S
C832 C838 1.516 . S
C833 C834 1.304 . S
C833 C837 1.323 . S
C834 C833 1.304 . S
C834 C835 1.371 . S
C834 H848 0.930 . S
C835 C832 1.344 . S
C835 C834 1.371 . S
C835 H849 0.931 . S
C836 C832 1.328 . S
C836 C837 1.433 . S
C836 H850 0.931 . S
C837 C833 1.323 . S
C837 C836 1.433 . S
C837 H851 0.933 . S
C838 Dy816 2.738 . S
C838 O821 1.255 . S
C838 O822 1.249 . S
C838 C832 1.516 . S
C839 O823 1.254 . S
C839 O824 1.257 . S
C840 O825 1.266 . S
C840 O826 1.236 . S
C841 C844 1.344 . S
C841 C845 1.328 1_556 S
C841 C847 1.516 . S
C842 C843 1.304 . S
C842 C846 1.323 . S
C843 C842 1.304 . S
C843 C844 1.371 1_554 S
C843 H852 0.930 . S
C844 C841 1.344 . S
C844 C843 1.371 1_556 S
C844 H853 0.931 . S
C845 C841 1.328 1_554 S
C845 C846 1.433 . S
C845 H854 0.931 . S
C846 C842 1.323 . S
C846 C845 1.433 . S
C846 H855 0.933 . S
C847 Dy817 2.738 . S
C847 O827 1.255 . S
C847 O828 1.249 . S
C847 C841 1.516 . S
H848 C834 0.930 . S
H849 C835 0.931 . S
H850 C836 0.931 . S
H851 C837 0.933 . S
H852 C843 0.930 . S
H853 C844 0.931 . S
H854 C845 0.931 . S
H855 C846 0.933 . S
Dy856 O859 2.307 . S
Dy856 O861 2.395 . S
Dy856 O862 2.379 . S
Dy856 O864 2.339 . S
Dy856 O866 2.298 . S
Dy856 O870 2.275 . S
Dy856 C878 2.738 . S
Dy857 O860 2.298 . S
Dy857 O863 2.275 . S
Dy857 O865 2.307 . S
Dy857 O867 2.395 . S
Dy857 O868 2.376 1_565 S
Dy857 O871 2.339 . S
Dy857 C887 2.738 1_565 S
C858 O870 1.254 . S
C858 O871 1.257 . S
O859 Dy856 2.307 . S
O859 C869 1.266 . S
O860 Dy857 2.298 . S
O860 C869 1.236 . S
O861 Dy856 2.395 . S
O861 C878 1.255 . S
O862 Dy856 2.379 . S
O862 C878 1.249 . S
O863 Dy857 2.275 . S
O863 C879 1.254 . S
O864 Dy856 2.339 . S
O864 C879 1.257 . S
O865 Dy857 2.307 . S
O865 C880 1.266 . S
O866 Dy856 2.298 . S
O866 C880 1.236 . S
O867 Dy857 2.395 . S
O867 C887 1.255 1_565 S
O868 Dy857 2.376 1_545 S
O868 C887 1.251 . S
C869 O859 1.266 . S
C869 O860 1.236 . S
O870 Dy856 2.275 . S
O870 C858 1.254 . S
O871 Dy857 2.339 . S
O871 C858 1.257 . S
C872 C875 1.344 . S
C872 C876 1.328 . S
C872 C878 1.516 . S
C873 C874 1.304 . S
C873 C877 1.323 . S
C874 C873 1.304 . S
C874 C875 1.371 . S
C874 H888 0.930 . S
C875 C872 1.344 . S
C875 C874 1.371 . S
C875 H889 0.931 . S
C876 C872 1.328 . S
C876 C877 1.433 . S
C876 H890 0.931 . S
C877 C873 1.323 . S
C877 C876 1.433 . S
C877 H891 0.933 . S
C878 Dy856 2.738 . S
C878 O861 1.255 . S
C878 O862 1.249 . S
C878 C872 1.516 . S
C879 O863 1.254 . S
C879 O864 1.257 . S
C880 O865 1.266 . S
C880 O866 1.236 . S
C881 C884 1.344 . S
C881 C885 1.328 . S
C881 C887 1.516 . S
C882 C883 1.304 . S
C882 C886 1.323 . S
C883 C882 1.304 . S
C883 C884 1.371 . S
C883 H892 0.930 . S
C884 C881 1.344 . S
C884 C883 1.371 . S
C884 H893 0.931 . S
C885 C881 1.328 . S
C885 C886 1.433 . S
C885 H894 0.931 . S
C886 C882 1.323 . S
C886 C885 1.433 . S
C886 H895 0.933 . S
C887 Dy857 2.738 1_545 S
C887 O867 1.255 1_545 S
C887 O868 1.251 . S
C887 C881 1.516 . S
H888 C874 0.930 . S
H889 C875 0.931 . S
H890 C876 0.931 . S
H891 C877 0.933 . S
H892 C883 0.930 . S
H893 C884 0.931 . S
H894 C885 0.931 . S
H895 C886 0.933 . S
Dy896 O899 2.307 . S
Dy896 O901 2.395 . S
Dy896 O902 2.379 . S
Dy896 O904 2.339 . S
Dy896 O906 2.298 . S
Dy896 O910 2.275 . S
Dy896 C918 2.738 . S
Dy897 O900 2.298 . S
Dy897 O903 2.275 . S
Dy897 O905 2.307 . S
Dy897 O907 2.395 . S
Dy897 O908 2.379 . S
Dy897 O911 2.339 . S
Dy897 C927 2.738 . S
C898 O910 1.254 . S
C898 O911 1.257 . S
O899 Dy896 2.307 . S
O899 C909 1.266 . S
O900 Dy897 2.298 . S
O900 C909 1.236 . S
O901 Dy896 2.395 . S
O901 C918 1.255 . S
O902 Dy896 2.379 . S
O902 C918 1.249 . S
O903 Dy897 2.275 . S
O903 C919 1.254 . S
O904 Dy896 2.339 . S
O904 C919 1.257 . S
O905 Dy897 2.307 . S
O905 C920 1.266 . S
O906 Dy896 2.298 . S
O906 C920 1.236 . S
O907 Dy897 2.395 . S
O907 C927 1.255 . S
O908 Dy897 2.379 . S
O908 C927 1.249 . S
C909 O899 1.266 . S
C909 O900 1.236 . S
O910 Dy896 2.275 . S
O910 C898 1.254 . S
O911 Dy897 2.339 . S
O911 C898 1.257 . S
C912 C915 1.344 . S
C912 C916 1.328 . S
C912 C918 1.516 . S
C913 C914 1.304 . S
C913 C917 1.323 . S
C914 C913 1.304 . S
C914 C915 1.371 . S
C914 H928 0.930 . S
C915 C912 1.344 . S
C915 C914 1.371 . S
C915 H929 0.931 . S
C916 C912 1.328 . S
C916 C917 1.433 . S
C916 H930 0.931 . S
C917 C913 1.323 . S
C917 C916 1.433 . S
C917 H931 0.933 . S
C918 Dy896 2.738 . S
C918 O901 1.255 . S
C918 O902 1.249 . S
C918 C912 1.516 . S
C919 O903 1.254 . S
C919 O904 1.257 . S
C920 O905 1.266 . S
C920 O906 1.236 . S
C921 C924 1.344 . S
C921 C925 1.328 . S
C921 C927 1.516 . S
C922 C923 1.304 . S
C922 C926 1.323 . S
C923 C922 1.304 . S
C923 C924 1.371 . S
C923 H932 0.930 . S
C924 C921 1.344 . S
C924 C923 1.371 . S
C924 H933 0.931 . S
C925 C921 1.328 . S
C925 C926 1.433 . S
C925 H934 0.931 . S
C926 C922 1.323 . S
C926 C925 1.433 . S
C926 H935 0.933 . S
C927 Dy897 2.738 . S
C927 O907 1.255 . S
C927 O908 1.249 . S
C927 C921 1.516 . S
H928 C914 0.930 . S
H929 C915 0.931 . S
H930 C916 0.931 . S
H931 C917 0.933 . S
H932 C923 0.930 . S
H933 C924 0.931 . S
H934 C925 0.931 . S
H935 C926 0.933 . S
Dy936 O939 2.307 . S
Dy936 O941 2.395 1_455 S
Dy936 O942 2.379 1_455 S
Dy936 O944 2.339 . S
Dy936 O946 2.298 . S
Dy936 O950 2.275 . S
Dy936 C958 2.738 1_455 S
Dy937 O940 2.298 . S
Dy937 O943 2.275 . S
Dy937 O945 2.307 . S
Dy937 O947 2.395 . S
Dy937 O948 2.379 1_554 S
Dy937 O951 2.339 1_554 S
Dy937 C967 2.738 1_554 S
C938 O950 1.253 1_656 S
C938 O951 1.260 1_655 S
O939 Dy936 2.307 . S
O939 C949 1.266 . S
O940 Dy937 2.298 . S
O940 C949 1.236 . S
O941 Dy936 2.395 1_655 S
O941 C958 1.255 . S
O942 Dy936 2.379 1_655 S
O942 C958 1.249 . S
O943 Dy937 2.275 . S
O943 C959 1.254 . S
O944 Dy936 2.339 . S
O944 C959 1.257 . S
O945 Dy937 2.307 . S
O945 C960 1.266 . S
O946 Dy936 2.298 . S
O946 C960 1.236 . S
O947 Dy937 2.395 . S
O947 C967 1.255 1_554 S
O948 Dy937 2.379 1_556 S
O948 C967 1.249 . S
C949 O939 1.266 . S
C949 O940 1.236 . S
O950 Dy936 2.275 . S
O950 C938 1.253 1_454 S
O951 Dy937 2.339 1_556 S
O951 C938 1.260 1_455 S
C952 C955 1.344 . S
C952 C956 1.328 . S
C952 C958 1.516 . S
C953 C954 1.304 . S
C953 C957 1.323 . S
C954 C953 1.304 . S
C954 C955 1.371 . S
C954 H968 0.930 . S
C955 C952 1.344 . S
C955 C954 1.371 . S
C955 H969 0.931 . S
C956 C952 1.328 . S
C956 C957 1.433 . S
C956 H970 0.931 . S
C957 C953 1.323 . S
C957 C956 1.433 . S
C957 H971 0.933 . S
C958 Dy936 2.738 1_655 S
C958 O941 1.255 . S
C958 O942 1.249 . S
C958 C952 1.516 . S
C959 O943 1.254 . S
C959 O944 1.257 . S
C960 O945 1.266 . S
C960 O946 1.236 . S
C961 C964 1.344 1_556 S
C961 C965 1.328 . S
C961 C967 1.516 . S
C962 C963 1.304 1_556 S
C962 C966 1.323 . S
C963 C962 1.304 1_554 S
C963 C964 1.371 . S
C963 H972 0.930 . S
C964 C961 1.344 1_554 S
C964 C963 1.371 . S
C964 H973 0.931 . S
C965 C961 1.328 . S
C965 C966 1.433 . S
C965 H974 0.931 . S
C966 C962 1.323 . S
C966 C965 1.433 . S
C966 H975 0.933 . S
C967 Dy937 2.738 1_556 S
C967 O947 1.255 1_556 S
C967 O948 1.249 . S
C967 C961 1.516 . S
H968 C954 0.930 . S
H969 C955 0.931 . S
H970 C956 0.931 . S
H971 C957 0.933 . S
H972 C963 0.930 . S
H973 C964 0.931 . S
H974 C965 0.931 . S
H975 C966 0.933 . S
C109 C349 4.123 1_655 S
C61 C400 2.786 . S
C74 C429 2.895 1_565 S
C473 C96 2.104 . S
C25 C513 1.896 . S
C549 C40 2.741 . S
C599 C46 3.137 . S
C5 C629 3.604 . S
C359 C229 2.602 . S
C249 C402 0.717 . S
C439 C271 1.299 . S
C469 C172 2.354 . S
C236 C509 1.944 . S
C559 C242 1.066 . S
C593 C278 0.867 . S
C639 C179 3.321 . S
C353 C159 2.269 . S
C285 C679 1.986 . S
C713 C333 2.277 . S
C749 C320 0.903 . S
C123 C633 3.230 . S
C138 C433 2.402 . S
C326 C799 2.600 . S
C818 C298 1.089 . S
C360 C67 3.769 . S
C829 C110 2.645 . S
C88 C440 2.774 . S
C75 C802 2.232 . S
C522 C11 1.632 1_655 S
C47 C720 2.682 . S
C578 C32 2.625 1_544 S
C880 C26 4.146 . S
C338 C152 3.386 . S
C833 C319 0.637 . S
C124 C418 1.936 . S
C284 C800 2.350 . S
C145 C520 1.795 . S
C698 C312 1.061 . S
C117 C602 1.575 1_545 S
C291 C858 2.973 . S
C194 C362 3.744 1_554 S
C180 C658 2.201 . S
C263 C562 2.075 . S
C243 C760 0.993 . S
C882 C277 2.781 . S
C215 C442 2.748 . S
C458 C256 2.042 . S
C399 C200 0.693 . S
C81 C909 4.130 . S
C840 C89 2.772 . S
C102 C949 2.889 . S
C68 C793 2.085 . S
C53 C673 1.863 . S
C709 C12 2.755 . S
C759 C18 3.157 . S
C869 C33 3.609 . S
C919 C257 2.590 . S
C193 C842 0.606 . S
C959 C201 1.413 . S
C789 C214 2.329 . S
C669 C264 1.943 . S
C186 C719 1.013 . S
C753 C208 0.930 . S
C221 C879 3.328 . S
C913 C313 2.501 . S
C131 C519 1.999 . S
C553 C151 2.159 . S
C589 C166 0.815 . S
C873 C305 3.171 . S
C292 C953 2.391 . S
C479 C144 2.612 . S
C378 C116 0.995 . S
C95 C920 3.748 . S
C389 C82 2.731 . S
C60 C960 2.779 . S
C103 C482 2.300 . S
C39 C682 1.658 . S
C560 C19 2.666 . S
C4 C738 2.588 . S
C54 C640 4.150 . S
C898 C334 3.347 . S
C165 C393 0.635 . S
C938 C306 2.021 . S
C130 C480 2.334 . S
C327 C680 1.799 . S
C538 C158 1.155 . S
C299 C762 1.595 . S
C618 C137 2.960 . S
C922 C250 3.596 . S
C498 C222 2.206 1_545 S
C235 C722 2.015 . S
C600 C187 0.967 . S
C207 C642 2.756 . S
C173 C962 2.808 1_554 S
C778 C228 2.042 . S
C839 C270 0.951 . S
