# Generated by pormake.
# Topology pyr, (3,6)-cn, num edge types: 1
# Building blocks:
#     Node 0, Type 0, BuildingBlock: OLANEW_clean_sbu_2, # of connection points: 3
#     Node 1, Type 0, BuildingBlock: OLANEW_clean_sbu_2, # of connection points: 3
#     Node 2, Type 0, BuildingBlock: OLANEW_clean_sbu_2, # of connection points: 3
#     Node 3, Type 0, BuildingBlock: OLANEW_clean_sbu_2, # of connection points: 3
#     Node 4, Type 0, BuildingBlock: OLANEW_clean_sbu_2, # of connection points: 3
#     Node 5, Type 0, BuildingBlock: OLANEW_clean_sbu_2, # of connection points: 3
#     Node 6, Type 0, BuildingBlock: OLANEW_clean_sbu_2, # of connection points: 3
#     Node 7, Type 0, BuildingBlock: OLANEW_clean_sbu_2, # of connection points: 3
#     Node 8, Type 1, BuildingBlock: FUNLAD_clean_sbu_0, # of connection points: 6
#     Node 9, Type 1, BuildingBlock: FUNLAD_clean_sbu_0, # of connection points: 6
#     Node 10, Type 1, BuildingBlock: FUNLAD_clean_sbu_0, # of connection points: 6
#     Node 11, Type 1, BuildingBlock: FUNLAD_clean_sbu_0, # of connection points: 6
#     Edge 12, Type (0, 1), BuildingBlock: UVAHIK_clean_linker_0, # of connection points: 2
#     Edge 13, Type (0, 1), BuildingBlock: UVAHIK_clean_linker_0, # of connection points: 2
#     Edge 14, Type (0, 1), BuildingBlock: UVAHIK_clean_linker_0, # of connection points: 2
#     Edge 15, Type (0, 1), BuildingBlock: UVAHIK_clean_linker_0, # of connection points: 2
#     Edge 16, Type (0, 1), BuildingBlock: UVAHIK_clean_linker_0, # of connection points: 2
#     Edge 17, Type (0, 1), BuildingBlock: UVAHIK_clean_linker_0, # of connection points: 2
#     Edge 18, Type (0, 1), BuildingBlock: UVAHIK_clean_linker_0, # of connection points: 2
#     Edge 19, Type (0, 1), BuildingBlock: UVAHIK_clean_linker_0, # of connection points: 2
#     Edge 20, Type (0, 1), BuildingBlock: UVAHIK_clean_linker_0, # of connection points: 2
#     Edge 21, Type (0, 1), BuildingBlock: UVAHIK_clean_linker_0, # of connection points: 2
#     Edge 22, Type (0, 1), BuildingBlock: UVAHIK_clean_linker_0, # of connection points: 2
#     Edge 23, Type (0, 1), BuildingBlock: UVAHIK_clean_linker_0, # of connection points: 2
#     Edge 24, Type (0, 1), BuildingBlock: UVAHIK_clean_linker_0, # of connection points: 2
#     Edge 25, Type (0, 1), BuildingBlock: UVAHIK_clean_linker_0, # of connection points: 2
#     Edge 26, Type (0, 1), BuildingBlock: UVAHIK_clean_linker_0, # of connection points: 2
#     Edge 27, Type (0, 1), BuildingBlock: UVAHIK_clean_linker_0, # of connection points: 2
#     Edge 28, Type (0, 1), BuildingBlock: UVAHIK_clean_linker_0, # of connection points: 2
#     Edge 29, Type (0, 1), BuildingBlock: UVAHIK_clean_linker_0, # of connection points: 2
#     Edge 30, Type (0, 1), BuildingBlock: UVAHIK_clean_linker_0, # of connection points: 2
#     Edge 31, Type (0, 1), BuildingBlock: UVAHIK_clean_linker_0, # of connection points: 2
#     Edge 32, Type (0, 1), BuildingBlock: UVAHIK_clean_linker_0, # of connection points: 2
#     Edge 33, Type (0, 1), BuildingBlock: UVAHIK_clean_linker_0, # of connection points: 2
#     Edge 34, Type (0, 1), BuildingBlock: UVAHIK_clean_linker_0, # of connection points: 2
#     Edge 35, Type (0, 1), BuildingBlock: UVAHIK_clean_linker_0, # of connection points: 2
# Relax obj value: 0.113
# Max RMSD: 0.168
# Mean RMSD: 0.115
data_MOF--net-pry--node1-OLANEW_clean_sbu_2--node2-FUNLAD_clean_sbu_0--edge1-UVAHIK_clean_linker_0
_symmetry_space_group_name_H-M    P1
_symmetry_Int_Tables_number       1
_symmetry_cell_setting            triclinic
loop_
_symmetry_equiv_pos_as_xyz
'x, y, z'
_cell_length_a     48.704185
_cell_length_b     51.549138
_cell_length_c     51.500008
_cell_angle_alpha  93.86062
_cell_angle_beta   89.087651
_cell_angle_gamma 91.927985
loop_
_atom_site_label
_atom_site_type_symbol
_atom_site_fract_x
_atom_site_fract_y
_atom_site_fract_z
_atom_type_partial_charge
O0 O 0.20405 0.16994 0.17331 0.0
Cd1 Cd 0.16334 0.19374 0.18951 0.0
O2 O 0.20448 0.13854 0.20078 0.0
Cd3 Cd 0.16965 0.14469 0.22823 0.0
O4 O 0.1466 0.13431 0.26376 0.0
C5 C 0.14007 0.11045 0.26619 0.0
O6 O 0.14624 0.09335 0.24709 0.0
C7 C 0.21478 0.14975 0.18134 0.0
C8 C 0.14598 0.23291 0.15812 0.0
O9 O 0.16488 0.23756 0.17501 0.0
O10 O 0.13563 0.20969 0.15562 0.0
O11 O 0.40571 0.88771 0.74989 0.0
Cd12 Cd 0.38535 0.8665 0.71036 0.0
O13 O 0.36954 0.91171 0.75753 0.0
Cd14 Cd 0.34681 0.89916 0.72237 0.0
O15 O 0.31467 0.90137 0.69347 0.0
C16 C 0.30683 0.92411 0.68985 0.0
O17 O 0.31894 0.94405 0.70278 0.0
C18 C 0.39306 0.90466 0.76418 0.0
C19 C 0.41356 0.82326 0.68978 0.0
O20 O 0.41801 0.8457 0.68095 0.0
O21 O 0.39607 0.82134 0.70848 0.0
O22 O 0.68043 0.52184 0.99675 0.0
Cd23 Cd 0.63174 0.53145 0.99739 0.0
O24 O 0.66668 0.48244 0.9836 0.0
Cd25 Cd 0.66919 0.44165 0.96954 0.0
O26 O 0.65958 0.40005 0.96435 0.0
C27 C 0.63442 0.39304 0.96643 0.0
O28 O 0.61607 0.411 0.97069 0.0
C29 C 0.68627 0.49862 0.98944 0.0
C30 C 0.61394 0.52899 0.94619 0.0
O31 O 0.61356 0.50858 0.95911 0.0
O32 O 0.62208 0.55063 0.95774 0.0
O33 O 0.02703 0.60119 0.47087 0.0
Cd34 Cd 0.03289 0.55478 0.46116 0.0
O35 O 0.98537 0.59279 0.48526 0.0
Cd36 Cd 0.94353 0.60162 0.49818 0.0
O37 O 0.90022 0.60244 0.50966 0.0
C38 C 0.88236 0.60829 0.4935 0.0
O39 O 0.8905 0.61457 0.47023 0.0
C40 C 0.00426 0.60932 0.47997 0.0
C41 C 0.02592 0.545 0.40781 0.0
O42 O 0.00556 0.54278 0.42368 0.0
O43 O 0.04963 0.55103 0.41729 0.0
O44 O 0.90137 0.8441 0.84242 0.0
Cd45 Cd 0.88107 0.82159 0.87952 0.0
O46 O 0.87888 0.88047 0.85023 0.0
Cd47 Cd 0.85305 0.87222 0.88427 0.0
O48 O 0.8187 0.88356 0.91058 0.0
C49 C 0.81187 0.90719 0.91061 0.0
O50 O 0.82588 0.92276 0.89573 0.0
C51 C 0.896 0.86704 0.83657 0.0
C52 C 0.90919 0.7794 0.89761 0.0
O53 O 0.89349 0.77637 0.87782 0.0
O54 O 0.91236 0.80243 0.90842 0.0
O55 O 0.65358 0.12781 0.37254 0.0
Cd56 Cd 0.66467 0.14134 0.41779 0.0
O57 O 0.64115 0.16654 0.36233 0.0
Cd58 Cd 0.64652 0.18765 0.40037 0.0
O59 O 0.63995 0.22222 0.42671 0.0
C60 C 0.62971 0.24112 0.41599 0.0
O61 O 0.6244 0.23834 0.391 0.0
C62 C 0.64488 0.14264 0.3559 0.0
C63 C 0.71109 0.11758 0.43551 0.0
O64 O 0.68738 0.10603 0.43579 0.0
O65 O 0.71293 0.14025 0.42667 0.0
O66 O 0.44569 0.64073 0.12757 0.0
Cd67 Cd 0.42876 0.5964 0.13441 0.0
O68 O 0.41577 0.65728 0.15606 0.0
Cd69 Cd 0.38849 0.62306 0.15261 0.0
O70 O 0.35277 0.59932 0.1402 0.0
C71 C 0.35064 0.59181 0.11629 0.0
O72 O 0.37085 0.59728 0.10015 0.0
C73 C 0.43683 0.66008 0.14151 0.0
C74 C 0.44152 0.58496 0.18503 0.0
O75 O 0.41913 0.59578 0.18004 0.0
O76 O 0.45778 0.57878 0.16597 0.0
O77 O 0.12323 0.50296 0.62423 0.0
Cd78 Cd 0.14743 0.53734 0.65062 0.0
O79 O 0.10176 0.46506 0.61852 0.0
Cd80 Cd 0.08247 0.42947 0.63196 0.0
O81 O 0.07406 0.38961 0.64199 0.0
C82 C 0.0508 0.37836 0.63784 0.0
O83 O 0.03112 0.39141 0.62809 0.0
C84 C 0.1122 0.483 0.6338 0.0
C85 C 0.20352 0.53447 0.63979 0.0
O86 O 0.18799 0.54775 0.62627 0.0
O87 O 0.19262 0.52291 0.65887 0.0
C88 C 0.02761 0.01353 0.50472 0.0
N89 N 0.01654 0.0517 0.57872 0.0
C90 C 0.04124 0.064 0.57477 0.0
C91 C 0.04609 0.0895 0.58485 0.0
C92 C 0.02524 0.1026 0.599 0.0
C93 C 1.00018 0.08918 0.60337 0.0
C94 C 0.99626 0.0636 0.59303 0.0
Zn95 Zn 0.00951 0.01546 0.56126 0.0
C96 C 0.95449 0.01093 0.53634 0.0
N97 N 0.99509 0.94008 0.5238 0.0
C98 C 0.01583 0.9273 0.51107 0.0
C99 C 0.97037 0.92793 0.52814 0.0
C100 C 0.9662 0.9016 0.52065 0.0
C101 C 0.98776 0.88749 0.50883 0.0
C102 C 0.01262 0.90087 0.50344 0.0
Zn103 Zn 0.00214 0.97663 0.54069 0.0
O104 O 0.02627 0.02833 0.52547 0.0
C105 C 0.05738 0.98189 0.56551 0.0
O106 O 0.01882 0.99002 0.50517 0.0
H107 H 0.95418 0.9384 0.5384 0.0
H108 H 0.05709 0.05419 0.56335 0.0
H109 H 0.03534 0.93731 0.50788 0.0
O110 O 0.04875 0.00436 0.57223 0.0
O111 O 0.04206 0.96597 0.55196 0.0
H112 H 0.97677 0.05344 0.59591 0.0
O113 O 0.98603 0.96362 0.57642 0.0
O114 O 0.9927 0.00192 0.59688 0.0
O115 O 0.96223 0.98806 0.52975 0.0
O116 O 0.97032 0.02633 0.54988 0.0
C117 C 0.98467 0.9782 0.59728 0.0
H118 H 0.06588 0.09892 0.58136 0.0
H119 H 0.98343 0.09858 0.61391 0.0
H120 H 0.94651 0.89225 0.52476 0.0
H121 H 0.02993 0.8908 0.49461 0.0
C122 C 0.57061 0.01139 0.04017 0.0
N123 N 0.53616 0.08429 0.03491 0.0
C124 C 0.56168 0.09482 0.03982 0.0
C125 C 0.56977 0.11857 0.03018 0.0
C126 C 0.55146 0.13166 0.01527 0.0
C127 C 0.52521 0.12035 0.01051 0.0
C128 C 0.51795 0.09652 0.02056 0.0
Zn129 Zn 0.52577 0.04935 0.04935 0.0
C130 C 0.49824 0.01284 0.01001 0.0
N131 N 0.50547 0.97617 0.0797 0.0
C132 C 0.52403 0.96551 0.095 0.0
C133 C 0.48186 0.96299 0.07239 0.0
C134 C 0.47667 0.93769 0.07973 0.0
C135 C 0.49572 0.92617 0.09513 0.0
C136 C 0.51938 0.94049 0.10321 0.0
Zn137 Zn 0.51495 0.01142 0.06552 0.0
O138 O 0.5645 0.03462 0.03643 0.0
C139 C 0.54294 0.04768 0.10478 0.0
O140 O 0.55354 0.99718 0.05218 0.0
H141 H 0.46733 0.97185 0.06033 0.0
H142 H 0.57582 0.0848 0.05131 0.0
H143 H 0.54285 0.97613 0.10029 0.0
O144 O 0.54283 0.0625 0.08603 0.0
O145 O 0.53245 0.02482 0.10158 0.0
H146 H 0.49779 0.08774 0.01684 0.0
O147 O 0.47628 0.02602 0.07865 0.0
O148 O 0.48673 0.06341 0.06233 0.0
O149 O 0.49782 0.99847 0.02912 0.0
O150 O 0.50874 0.03574 0.01292 0.0
C151 C 0.4698 0.04909 0.07448 0.0
H152 H 0.59004 0.12676 0.03472 0.0
H153 H 0.51054 0.12966 0.99892 0.0
H154 H 0.45812 0.92715 0.07329 0.0
H155 H 0.53461 0.93205 0.11491 0.0
C156 C 0.55665 0.4871 0.5433 0.0
N157 N 0.55911 0.52613 0.6176 0.0
C158 C 0.54812 0.50551 0.62979 0.0
C159 C 0.55271 0.50324 0.65627 0.0
C160 C 0.56884 0.52236 0.67025 0.0
C161 C 0.58079 0.54282 0.65683 0.0
C162 C 0.5755 0.54443 0.63049 0.0
Zn163 Zn 0.54899 0.53223 0.58024 0.0
C164 C 0.59711 0.5535 0.55031 0.0
N165 N 0.52761 0.54873 0.50326 0.0
C166 C 0.51367 0.52929 0.48938 0.0
C167 C 0.53463 0.5715 0.49261 0.0
C168 C 0.52758 0.57536 0.46698 0.0
C169 C 0.5134 0.55548 0.45207 0.0
C170 C 0.50655 0.53217 0.46366 0.0
Zn171 Zn 0.53816 0.54244 0.54049 0.0
O172 O 0.55892 0.49354 0.56746 0.0
C173 C 0.48974 0.52212 0.5703 0.0
O174 O 0.54841 0.5037 0.52825 0.0
H175 H 0.54573 0.58671 0.504 0.0
H176 H 0.53509 0.49122 0.61918 0.0
H177 H 0.50818 0.51135 0.4982 0.0
O178 O 0.50763 0.52022 0.58772 0.0
O179 O 0.49718 0.53034 0.54849 0.0
H180 H 0.58394 0.56074 0.62051 0.0
O181 O 0.52818 0.58104 0.55344 0.0
O182 O 0.53866 0.57089 0.59267 0.0
O183 O 0.57904 0.55484 0.53297 0.0
O184 O 0.59019 0.5447 0.57204 0.0
C185 C 0.53024 0.5874 0.57763 0.0
H186 H 0.54293 0.48723 0.66584 0.0
H187 H 0.59381 0.55772 0.66664 0.0
H188 H 0.53297 0.59382 0.45906 0.0
H189 H 0.49612 0.51607 0.45292 0.0
C190 C 0.0118 0.54836 0.00285 0.0
N191 N 0.00919 0.5167 0.07617 0.0
C192 C 0.01823 0.54004 0.08732 0.0
C193 C 0.01473 0.54577 0.11401 0.0
C194 C 0.00184 0.52729 0.12938 0.0
C195 C 0.99142 0.50393 0.11712 0.0
C196 C 0.99538 0.49899 0.09035 0.0
Zn197 Zn 0.02021 0.50673 0.03851 0.0
C198 C 0.97374 0.48157 0.00836 0.0
N199 N 0.04497 0.48449 0.96056 0.0
C200 C 0.06081 0.50302 0.94937 0.0
C201 C 0.03656 0.46231 0.94666 0.0
C202 C 0.04357 0.45853 0.92019 0.0
C203 C 0.05923 0.47783 0.90807 0.0
C204 C 0.06829 0.50002 0.9232 0.0
Zn205 Zn 0.03297 0.49333 0.9983 0.0
O206 O 0.00924 0.54417 0.02685 0.0
C207 C 0.07929 0.51837 0.02932 0.0
O208 O 0.02124 0.5306 0.9872 0.0
H209 H 0.02389 0.44787 0.95592 0.0
H210 H 0.02915 0.55384 0.07569 0.0
H211 H 0.06721 0.52058 0.96062 0.0
O212 O 0.06037 0.52073 0.04643 0.0
O213 O 0.07359 0.50787 0.00695 0.0
H214 H 0.98845 0.48052 0.08109 0.0
O215 O 0.04448 0.45614 0.00996 0.0
O216 O 0.03142 0.46928 0.04953 0.0
O217 O 0.99206 0.47888 0.99054 0.0
O218 O 0.98022 0.49244 0.03038 0.0
C219 C 0.04142 0.45176 0.0339 0.0
H220 H 0.02271 0.56418 0.12263 0.0
H221 H 0.98157 0.48906 0.12826 0.0
H222 H 0.03607 0.44117 0.90918 0.0
H223 H 0.08084 0.51516 0.91483 0.0
C224 C 0.12336 0.11877 0.3126 0.0
C225 C 0.12701 0.10156 0.29054 0.0
C226 C 0.11229 0.10978 0.33581 0.0
C227 C 0.10069 0.04881 0.37001 0.0
H228 H 0.05089 0.09034 0.41354 0.0
C229 C 0.04153 0.00744 0.45743 0.0
C230 C 0.03908 0.02375 0.48031 0.0
C231 C 0.0522 0.01718 0.43446 0.0
C232 C 0.065 0.07859 0.40175 0.0
H233 H 0.12118 0.06144 0.27553 0.0
H234 H 0.10156 0.04596 0.31556 0.0
H235 H 0.06924 0.10703 0.37332 0.0
H236 H 0.04605 0.06322 0.49683 0.0
H237 H 0.06473 0.08012 0.45689 0.0
H238 H 0.09636 0.02034 0.39835 0.0
C239 C 0.10776 0.06631 0.31524 0.0
C240 C 0.07556 0.08819 0.37866 0.0
C241 C 0.11887 0.07527 0.29214 0.0
C242 C 0.04757 0.05007 0.4796 0.0
C243 C 0.05814 0.05983 0.45661 0.0
C244 C 0.09008 0.0392 0.39303 0.0
C245 C 0.10455 0.08335 0.33752 0.0
C246 C 0.0935 0.07339 0.36239 0.0
C247 C 0.06063 0.04353 0.43372 0.0
C248 C 0.07203 0.05391 0.40921 0.0
H249 H 0.12948 0.13913 0.31211 0.0
H250 H 0.11038 0.12346 0.35259 0.0
H251 H 0.11486 0.03704 0.35833 0.0
H252 H 0.03515 0.98709 0.45722 0.0
H253 H 0.05349 0.00411 0.41715 0.0
C254 C 0.43137 0.90918 0.79661 0.0
C255 C 0.40531 0.91622 0.78869 0.0
C256 C 0.44253 0.92008 0.81993 0.0
C257 C 0.43583 0.97606 0.86865 0.0
H258 H 0.47363 0.93218 0.91375 0.0
C259 C 0.48997 0.01738 0.96255 0.0
C260 C 0.48747 0.00257 0.98446 0.0
C261 C 0.48074 0.00718 0.93825 0.0
C262 C 0.46297 0.94468 0.90146 0.0
H263 H 0.37056 0.94029 0.79918 0.0
H264 H 0.38978 0.9589 0.83975 0.0
H265 H 0.4561 0.91374 0.87219 0.0
H266 H 0.4729 0.96554 0.99806 0.0
H267 H 0.45642 0.94798 0.95587 0.0
H268 H 0.44197 0.00681 0.89822 0.0
C269 C 0.40185 0.9453 0.82782 0.0
C270 C 0.45323 0.93417 0.87747 0.0
C271 C 0.39074 0.93445 0.80457 0.0
C272 C 0.47525 0.97745 0.98157 0.0
C273 C 0.46599 0.96729 0.95731 0.0
C274 C 0.44554 0.98656 0.89264 0.0
C275 C 0.42787 0.93828 0.83582 0.0
C276 C 0.43935 0.94969 0.86085 0.0
C277 C 0.46875 0.98195 0.9353 0.0
C278 C 0.45906 0.97096 0.90944 0.0
H279 H 0.44318 0.89525 0.78483 0.0
H280 H 0.46275 0.91444 0.82538 0.0
H281 H 0.42554 0.98866 0.8562 0.0
H282 H 0.49938 0.03675 0.96407 0.0
H283 H 0.48346 0.01891 0.92167 0.0
C284 C 0.60431 0.55027 0.90522 0.0
C285 C 0.60639 0.52747 0.91842 0.0
C286 C 0.59898 0.54889 0.8786 0.0
C287 C 0.57388 0.50454 0.82365 0.0
H288 H 0.61391 0.55381 0.78233 0.0
C289 C 0.57574 0.49818 0.71048 0.0
C290 C 0.57233 0.52176 0.69883 0.0
C291 C 0.57928 0.49797 0.73738 0.0
C292 C 0.60243 0.54005 0.79364 0.0
H293 H 0.60402 0.48531 0.91416 0.0
H294 H 0.59525 0.48287 0.86756 0.0
H295 H 0.62082 0.5552 0.8291 0.0
H296 H 0.56886 0.56346 0.70658 0.0
H297 H 0.57552 0.56307 0.75322 0.0
H298 H 0.5558 0.48923 0.78788 0.0
C299 C 0.5973 0.50185 0.87785 0.0
C300 C 0.60629 0.54089 0.82047 0.0
C301 C 0.60244 0.50324 0.90455 0.0
C302 C 0.57216 0.54502 0.71475 0.0
C303 C 0.57587 0.54482 0.74152 0.0
C304 C 0.57015 0.50359 0.79672 0.0
C305 C 0.59585 0.52467 0.86449 0.0
C306 C 0.59189 0.52332 0.83586 0.0
C307 C 0.57963 0.52134 0.75311 0.0
C308 C 0.58421 0.5215 0.7815 0.0
H309 H 0.60704 0.56925 0.9154 0.0
H310 H 0.59742 0.56686 0.86906 0.0
H311 H 0.56226 0.49088 0.83495 0.0
H312 H 0.57619 0.47994 0.69877 0.0
H313 H 0.58233 0.4796 0.7458 0.0
C314 C 0.99615 0.53444 0.36896 0.0
C315 C 0.02197 0.54194 0.37934 0.0
C316 C 0.99213 0.53315 0.34207 0.0
C317 C 0.02015 0.55974 0.28242 0.0
H318 H 0.98183 0.50099 0.24659 0.0
C319 C 0.02482 0.54161 0.17126 0.0
C320 C 1.00133 0.53143 0.15819 0.0
C321 C 0.02531 0.544 0.19839 0.0
C322 C 0.99218 0.51775 0.25635 0.0
H323 H 0.06393 0.55352 0.36959 0.0
H324 H 0.05688 0.55126 0.32276 0.0
H325 H 0.98672 0.50235 0.2938 0.0
H326 H 0.95966 0.51633 0.16336 0.0
H327 H 0.96039 0.52075 0.21091 0.0
H328 H 0.02564 0.57522 0.24515 0.0
C329 C 0.0397 0.5466 0.33543 0.0
C330 C 0.99504 0.51846 0.28337 0.0
C331 C 0.04377 0.54771 0.36225 0.0
C332 C 0.97815 0.52404 0.17289 0.0
C333 C 0.9786 0.52651 0.20011 0.0
C334 C 0.01715 0.55911 0.25548 0.0
C335 C 0.01378 0.53956 0.32506 0.0
C336 C 0.00943 0.53928 0.29661 0.0
C337 C 0.00228 0.53634 0.21317 0.0
C338 C 0.00351 0.53792 0.24205 0.0
H339 H 0.97893 0.52989 0.38162 0.0
H340 H 0.9719 0.52778 0.33463 0.0
H341 H 0.03086 0.57629 0.29218 0.0
H342 H 0.04323 0.54697 0.16054 0.0
H343 H 0.04408 0.55116 0.20777 0.0
C344 C 0.24996 0.11525 0.17516 0.0
C345 C 0.24009 0.13924 0.1685 0.0
C346 C 0.27428 0.10563 0.16406 0.0
C347 C 0.32396 0.11299 0.10902 0.0
H348 H 0.37189 0.07714 0.15307 0.0
C349 C 0.43473 0.08401 0.07783 0.0
C350 C 0.44301 0.05931 0.08407 0.0
C351 C 0.40975 0.09381 0.08735 0.0
C352 C 0.35863 0.08686 0.14041 0.0
H353 H 0.24817 0.17176 0.14457 0.0
H354 H 0.29092 0.15521 0.12555 0.0
H355 H 0.32914 0.09431 0.17096 0.0
H356 H 0.43124 0.02549 0.10509 0.0
H357 H 0.38781 0.0426 0.12169 0.0
H358 H 0.35384 0.10575 0.07856 0.0
C359 C 0.27957 0.14361 0.1391 0.0
C360 C 0.33401 0.0967 0.15066 0.0
C361 C 0.25507 0.15319 0.15012 0.0
C362 C 0.42559 0.04461 0.09993 0.0
C363 C 0.40073 0.05448 0.10958 0.0
C364 C 0.34872 0.10327 0.0988 0.0
C365 C 0.28965 0.11977 0.14609 0.0
C366 C 0.31619 0.10976 0.13509 0.0
C367 C 0.39252 0.07925 0.10351 0.0
C368 C 0.36629 0.08994 0.11433 0.0
H369 H 0.2389 0.10381 0.18905 0.0
H370 H 0.28095 0.08695 0.16953 0.0
H371 H 0.31067 0.12262 0.0963 0.0
H372 H 0.44761 0.09587 0.06567 0.0
H373 H 0.40419 0.11304 0.08247 0.0
C374 C 0.27462 0.9535 0.66975 0.0
C375 C 0.28352 0.92822 0.6726 0.0
C376 C 0.25181 0.95758 0.65466 0.0
C377 C 0.18866 0.92459 0.62899 0.0
H378 H 0.18616 0.98545 0.58883 0.0
C379 C 0.09301 0.94846 0.57033 0.0
C380 C 0.08474 0.97435 0.57396 0.0
C381 C 0.11845 0.94133 0.57941 0.0
C382 C 0.18652 0.96841 0.60002 0.0
H383 H 0.27575 0.88737 0.6613 0.0
H384 H 0.23597 0.89453 0.63465 0.0
H385 H 0.22879 0.97546 0.60965 0.0
H386 H 0.09695 0.01313 0.58951 0.0
H387 H 0.14116 1.00071 0.60524 0.0
H388 H 0.14623 0.91778 0.61955 0.0
C389 C 0.24649 0.91119 0.64441 0.0
C390 C 0.21093 0.9627 0.61199 0.0
C391 C 0.26937 0.90709 0.65957 0.0
C392 C 0.10266 0.99301 0.5864 0.0
C393 C 0.1281 0.98594 0.59527 0.0
C394 C 0.16425 0.93026 0.6169 0.0
C395 C 0.23731 0.93649 0.64195 0.0
C396 C 0.21216 0.94102 0.62707 0.0
C397 C 0.13622 0.96 0.59206 0.0
C398 C 0.16277 0.95253 0.60273 0.0
H399 H 0.28498 0.97023 0.67956 0.0
H400 H 0.2451 0.97729 0.65357 0.0
H401 H 0.18878 0.9079 0.64068 0.0
H402 H 0.07968 0.93362 0.5608 0.0
H403 H 0.12424 0.92123 0.57649 0.0
C404 C 0.723 0.46571 0.99119 0.0
C405 C 0.7153 0.49117 0.98731 0.0
C406 C 0.75066 0.45919 0.98972 0.0
C407 C 0.81102 0.4568 0.00377 0.0
H408 H 0.86133 0.48895 0.95542 0.0
C409 C 0.92549 0.47473 0.02403 0.0
C410 C 0.94466 0.47396 0.00333 0.0
C411 C 0.8975 0.47084 0.01934 0.0
C412 C 0.84756 0.47939 0.96875 0.0
H413 H 0.73047 0.52979 0.97903 0.0
H414 H 0.77866 0.51861 0.97693 0.0
H415 H 0.81203 0.49376 0.95127 0.0
H416 H 0.94959 0.46714 0.96153 0.0
H417 H 0.90043 0.46023 0.95329 0.0
H418 H 0.84658 0.44268 0.02144 0.0
C419 C 0.76338 0.50347 0.9805 0.0
C420 C 0.81931 0.48245 0.96659 0.0
C421 C 0.73578 0.50996 0.98199 0.0
C422 C 0.93531 0.46794 0.97788 0.0
C423 C 0.90717 0.46413 0.97316 0.0
C424 C 0.83927 0.45371 0.00591 0.0
C425 C 0.77119 0.47804 0.98444 0.0
C426 C 0.80077 0.47182 0.98453 0.0
C427 C 0.88792 0.4661 0.99381 0.0
C428 C 0.85791 0.46561 0.9889 0.0
H429 H 0.70784 0.45102 0.9962 0.0
H430 H 0.75599 0.43944 0.99291 0.0
H431 H 0.79735 0.44843 0.01798 0.0
H432 H 0.932 0.4792 0.04389 0.0
H433 H 0.88328 0.47282 0.03568 0.0
C434 C 0.83287 0.61149 0.4819 0.0
C435 C 0.85272 0.6064 0.50024 0.0
C436 C 0.80489 0.60816 0.48768 0.0
C437 C 0.75504 0.60174 0.54213 0.0
H438 H 0.70959 0.56596 0.48896 0.0
C439 C 0.64626 0.55956 0.56384 0.0
C440 C 0.62595 0.56178 0.5451 0.0
C441 C 0.67361 0.56677 0.5586 0.0
C442 C 0.72188 0.5763 0.50391 0.0
H443 H 0.85871 0.59445 0.5393 0.0
H444 H 0.80994 0.58845 0.54928 0.0
H445 H 0.75779 0.57586 0.47946 0.0
H446 H 0.61837 0.5738 0.50633 0.0
H447 H 0.666 0.5866 0.49734 0.0
H448 H 0.71912 0.60195 0.56665 0.0
C449 C 0.81598 0.59524 0.53051 0.0
C450 C 0.74953 0.58199 0.49845 0.0
C451 C 0.84396 0.59854 0.52472 0.0
C452 C 0.63353 0.5717 0.52115 0.0
C453 C 0.66087 0.57892 0.51593 0.0
C454 C 0.72736 0.59606 0.54759 0.0
C455 C 0.79613 0.59971 0.51194 0.0
C456 C 0.76647 0.59465 0.51753 0.0
C457 C 0.68126 0.57638 0.53452 0.0
C458 C 0.71049 0.58315 0.52858 0.0
H459 H 0.83891 0.61771 0.4629 0.0
H460 H 0.7901 0.61214 0.4731 0.0
H461 H 0.76747 0.61182 0.55713 0.0
H462 H 0.64112 0.55197 0.58248 0.0
H463 H 0.68887 0.56428 0.57323 0.0
C464 C 0.11185 0.24993 0.1278 0.0
C465 C 0.13585 0.25389 0.1426 0.0
C466 C 0.10151 0.2701 0.11425 0.0
C467 C 0.12067 0.33283 0.0868 0.0
H468 H 0.04279 0.34576 0.0931 0.0
C469 C 0.06803 0.41051 0.0293 0.0
C470 C 0.0505 0.42712 0.04404 0.0
C471 C 0.07807 0.38832 0.03982 0.0
C472 C 0.06458 0.34241 0.09113 0.0
H473 H 0.16809 0.28213 0.15421 0.0
H474 H 0.15023 0.31718 0.13034 0.0
H475 H 0.06156 0.30927 0.11415 0.0
H476 H 0.02928 0.43297 0.08123 0.0
H477 H 0.04639 0.3942 0.09932 0.0
H478 H 0.1237 0.36616 0.06397 0.0
C479 C 0.13939 0.29845 0.12924 0.0
C480 C 0.07531 0.32136 0.10303 0.0
C481 C 0.14956 0.27838 0.14304 0.0
C482 C 0.04273 0.42064 0.06929 0.0
C483 C 0.05245 0.39832 0.07966 0.0
C484 C 0.10988 0.35371 0.07463 0.0
C485 C 0.11507 0.29466 0.11489 0.0
C486 C 0.10354 0.31644 0.10124 0.0
C487 C 0.07048 0.38202 0.06519 0.0
C488 C 0.08174 0.35893 0.07687 0.0
H489 H 0.10074 0.23134 0.12701 0.0
H490 H 0.08288 0.26643 0.10319 0.0
H491 H 0.14247 0.32948 0.08486 0.0
H492 H 0.07451 0.41496 0.00983 0.0
H493 H 0.09174 0.37605 0.02809 0.0
C494 C 0.64555 0.34577 0.96186 0.0
C495 C 0.62603 0.36515 0.96593 0.0
C496 C 0.63779 0.31953 0.96318 0.0
C497 C 0.57711 0.2738 0.96303 0.0
H498 H 0.62463 0.23225 1.00202 0.0
C499 C 0.54112 0.17751 0.00595 0.0
C500 C 0.55968 0.15716 0.0052 0.0
C501 C 0.54939 0.20194 0.99787 0.0
C502 C 0.61132 0.24345 0.99074 0.0
H503 H 0.58291 0.37212 0.97384 0.0
H504 H 0.5695 0.32651 0.97655 0.0
H505 H 0.63892 0.27661 0.99352 0.0
H506 H 0.60112 0.14622 0.99426 0.0
H507 H 0.61558 0.18891 0.98035 0.0
H508 H 0.54922 0.24072 0.96086 0.0
C509 C 0.59074 0.33149 0.97199 0.0
C510 C 0.61953 0.26888 0.98582 0.0
C511 C 0.59848 0.35769 0.97061 0.0
C512 C 0.58648 0.16162 0.99557 0.0
C513 C 0.59476 0.18605 0.98755 0.0
C514 C 0.56886 0.24836 0.96803 0.0
C515 C 0.61035 0.31211 0.96864 0.0
C516 C 0.6024 0.28447 0.97215 0.0
C517 C 0.57641 0.20657 0.98892 0.0
C518 C 0.58576 0.23301 0.98216 0.0
H519 H 0.66692 0.35086 0.95804 0.0
H520 H 0.65333 0.30506 0.96011 0.0
H521 H 0.56363 0.28514 0.95209 0.0
H522 H 0.52043 0.17482 0.01356 0.0
H523 H 0.53487 0.21745 0.99947 0.0
C524 C 0.98275 0.6484 0.50259 0.0
C525 C 0.99969 0.63754 0.4827 0.0
C526 C 0.97883 0.67523 0.50493 0.0
C527 C 0.98399 0.73416 0.46802 0.0
H528 H 0.99054 0.7707 0.53603 0.0
C529 C 0.99749 0.846 0.48208 0.0
C530 C 0.98509 0.85873 0.50403 0.0
C531 C 0.99678 0.81884 0.47883 0.0
C532 C 0.98817 0.76079 0.51695 0.0
H533 H 0.02601 0.64612 0.44982 0.0
H534 H 0.01923 0.69289 0.45392 0.0
H535 H 0.99362 0.72354 0.53183 0.0
H536 H 0.96185 0.85268 0.53958 0.0
H537 H 0.95978 0.80554 0.5334 0.0
H538 H 0.9786 0.77137 0.45309 0.0
C539 C 0.00869 0.6807 0.4675 0.0
C540 C 0.98999 0.73375 0.51456 0.0
C541 C 0.01275 0.65397 0.4653 0.0
C542 C 0.97132 0.84363 0.52225 0.0
C543 C 0.97049 0.81652 0.51892 0.0
C544 C 0.98201 0.7612 0.47041 0.0
C545 C 0.99172 0.69164 0.48735 0.0
C546 C 0.9882 0.72017 0.49005 0.0
C547 C 0.98356 0.80376 0.4974 0.0
C548 C 0.98433 0.77488 0.49488 0.0
H549 H 0.97305 0.63632 0.51672 0.0
H550 H 0.96565 0.68313 0.52044 0.0
H551 H 0.98217 0.72416 0.44891 0.0
H552 H 0.00801 0.85701 0.46752 0.0
H553 H 0.00727 0.80967 0.46212 0.0
C554 C 0.44026 0.80021 0.65367 0.0
C555 C 0.42769 0.80008 0.6784 0.0
C556 C 0.45243 0.77786 0.64243 0.0
C557 C 0.45342 0.70615 0.64849 0.0
H558 H 0.51766 0.71086 0.60336 0.0
C559 C 0.51665 0.6172 0.61561 0.0
C560 C 0.52128 0.61308 0.58865 0.0
C561 C 0.50624 0.64061 0.6261 0.0
C562 C 0.49962 0.70932 0.61581 0.0
H563 H 0.41884 0.77672 0.71114 0.0
H564 H 0.44101 0.73819 0.69218 0.0
H565 H 0.49802 0.75059 0.62318 0.0
H566 H 0.51946 0.63065 0.55165 0.0
H567 H 0.50178 0.67198 0.57021 0.0
H568 H 0.45567 0.66483 0.64168 0.0
C569 C 0.44067 0.75516 0.68091 0.0
C570 C 0.48824 0.73207 0.62711 0.0
C571 C 0.42812 0.77735 0.69193 0.0
C572 C 0.51606 0.63323 0.57249 0.0
C573 C 0.50604 0.65688 0.58308 0.0
C574 C 0.46506 0.68348 0.63756 0.0
C575 C 0.45269 0.75494 0.65583 0.0
C576 C 0.46497 0.7308 0.64366 0.0
C577 C 0.50062 0.66059 0.60994 0.0
C578 C 0.48827 0.68483 0.62115 0.0
H579 H 0.44011 0.81741 0.64269 0.0
H580 H 0.46106 0.77844 0.62297 0.0
H581 H 0.43513 0.70427 0.66052 0.0
H582 H 0.52042 0.60209 0.62863 0.0
H583 H 0.50247 0.64307 0.6469 0.0
C584 C 0.91982 0.86214 0.79272 0.0
C585 C 0.90855 0.87818 0.81306 0.0
C586 C 0.92927 0.87269 0.76966 0.0
C587 C 0.95294 0.93396 0.74182 0.0
H588 H 0.92775 0.9007 0.67638 0.0
C589 C 0.97004 0.98309 0.64452 0.0
C590 C 0.97522 0.96706 0.62192 0.0
C591 C 0.96212 0.97224 0.66787 0.0
C592 C 0.93541 0.9101 0.69438 0.0
H593 H 0.89932 0.91807 0.82538 0.0
H594 H 0.9162 0.9364 0.78551 0.0
H595 H 0.91547 0.88132 0.717 0.0
H596 H 0.97629 0.92695 0.60631 0.0
H597 H 0.96342 0.90812 0.64688 0.0
H598 H 0.97331 0.96248 0.71936 0.0
C599 C 0.91761 0.91567 0.78729 0.0
C600 C 0.92828 0.89894 0.71772 0.0
C601 C 0.90781 0.9051 0.81012 0.0
C602 C 0.97223 0.93994 0.62325 0.0
C603 C 0.96466 0.9291 0.6466 0.0
C604 C 0.96038 0.94496 0.71846 0.0
C605 C 0.92808 0.89957 0.76662 0.0
C606 C 0.93682 0.91081 0.74173 0.0
C607 C 0.95949 0.94504 0.66932 0.0
C608 C 0.95162 0.93328 0.69435 0.0
H609 H 0.92063 0.84133 0.79429 0.0
H610 H 0.93744 0.85981 0.75416 0.0
H611 H 0.96006 0.94346 0.76 0.0
H612 H 0.97206 0.00406 0.64417 0.0
H613 H 0.95788 0.98526 0.68472 0.0
C614 C 0.63596 0.10502 0.32314 0.0
C615 C 0.63792 0.13202 0.32923 0.0
C616 C 0.62755 0.09514 0.29844 0.0
C617 C 0.62094 0.11223 0.23044 0.0
H618 H 0.5638 0.05795 0.22683 0.0
C619 C 0.56293 0.08314 0.13529 0.0
C620 C 0.55517 0.05683 0.13007 0.0
C621 C 0.57416 0.09175 0.15931 0.0
C622 C 0.58007 0.07281 0.22737 0.0
H623 H 0.63333 0.16978 0.31383 0.0
H624 H 0.61892 0.15253 0.27079 0.0
H625 H 0.5823 0.07351 0.26893 0.0
H626 H 0.55362 0.01882 0.14584 0.0
H627 H 0.57381 0.03366 0.18737 0.0
H628 H 0.61896 0.11145 0.18893 0.0
C629 C 0.62388 0.13901 0.2851 0.0
C630 C 0.59064 0.08175 0.25156 0.0
C631 C 0.632 0.14888 0.30984 0.0
C632 C 0.55917 0.03928 0.1493 0.0
C633 C 0.57062 0.04783 0.17321 0.0
C634 C 0.61056 0.10313 0.20622 0.0
C635 C 0.62122 0.11204 0.27922 0.0
C636 C 0.61103 0.10169 0.25338 0.0
C637 C 0.57816 0.07422 0.17862 0.0
C638 C 0.58982 0.08343 0.20436 0.0
H639 H 0.64035 0.09148 0.3376 0.0
H640 H 0.62594 0.07426 0.29438 0.0
H641 H 0.63688 0.12741 0.2312 0.0
H642 H 0.56002 0.09719 0.12094 0.0
H643 H 0.57928 0.11227 0.16287 0.0
C644 C 0.43438 0.59357 0.23286 0.0
C645 C 0.44865 0.58071 0.21216 0.0
C646 C 0.44153 0.59051 0.25857 0.0
C647 C 0.49795 0.56854 0.29872 0.0
H648 H 0.44082 0.56953 0.352 0.0
C649 C 0.52341 0.57267 0.40812 0.0
C650 C 0.50586 0.55881 0.4246 0.0
C651 C 0.51647 0.57527 0.38221 0.0
C652 C 0.45705 0.56888 0.33739 0.0
H653 H 0.48134 0.55419 0.20212 0.0
H654 H 0.49321 0.54798 0.24711 0.0
H655 H 0.42854 0.57243 0.3069 0.0
H656 H 0.46687 0.53727 0.42662 0.0
H657 H 0.45555 0.54062 0.38136 0.0
H658 H 0.52632 0.56377 0.32915 0.0
C659 C 0.47697 0.56105 0.24349 0.0
C660 C 0.45003 0.57097 0.31147 0.0
C661 C 0.47005 0.56444 0.2177 0.0
C662 C 0.48117 0.54771 0.41448 0.0
C663 C 0.47443 0.55001 0.38852 0.0
C664 C 0.50494 0.56608 0.32464 0.0
C665 C 0.46287 0.57415 0.26427 0.0
C666 C 0.47039 0.57103 0.29179 0.0
C667 C 0.49195 0.56385 0.37202 0.0
C668 C 0.48459 0.56634 0.34435 0.0
H669 H 0.41798 0.60648 0.22922 0.0
H670 H 0.43058 0.60137 0.27394 0.0
H671 H 0.51425 0.56884 0.28419 0.0
H672 H 0.54275 0.58123 0.41508 0.0
H673 H 0.53031 0.58641 0.37024 0.0
C674 C 0.10525 0.50288 0.67873 0.0
C675 C 0.11116 0.48095 0.66223 0.0
C676 C 0.10247 0.50086 0.70554 0.0
C677 C 0.08613 0.45336 0.7542 0.0
H678 H 0.1122 0.50942 0.80248 0.0
C679 C 0.07372 0.45221 0.86696 0.0
C680 C 0.06544 0.47571 0.87969 0.0
C681 C 0.08101 0.45107 0.84048 0.0
C682 C 0.10467 0.49366 0.78923 0.0
H683 H 0.12046 0.44008 0.66087 0.0
H684 H 0.11525 0.4364 0.70782 0.0
H685 H 0.123 0.51089 0.75625 0.0
H686 H 0.05684 0.51601 0.87425 0.0
H687 H 0.06958 0.51404 0.8284 0.0
H688 H 0.06749 0.43633 0.7873 0.0
C689 C 0.11221 0.45504 0.69996 0.0
C690 C 0.11085 0.49451 0.76275 0.0
C691 C 0.11505 0.4571 0.6731 0.0
C692 C 0.06382 0.49777 0.86522 0.0
C693 C 0.07114 0.49666 0.83892 0.0
C694 C 0.07997 0.45249 0.78077 0.0
C695 C 0.10563 0.47686 0.71646 0.0
C696 C 0.1012 0.47464 0.74485 0.0
C697 C 0.08018 0.47343 0.82631 0.0
C698 C 0.0887 0.47292 0.79848 0.0
H699 H 0.10187 0.52143 0.6708 0.0
H700 H 0.09702 0.51797 0.71764 0.0
H701 H 0.0782 0.43785 0.74088 0.0
H702 H 0.07527 0.43492 0.87761 0.0
H703 H 0.08794 0.4329 0.83126 0.0
C704 C 0.77181 0.90066 0.94143 0.0
C705 C 0.78819 0.91714 0.92642 0.0
C706 C 0.7491 0.91027 0.95566 0.0
C707 C 0.71896 0.9719 0.98273 0.0
H708 H 0.6506 0.93114 0.98218 0.0
C709 C 0.61549 0.01601 0.01586 0.0
C710 C 0.59679 1.00062 0.02975 0.0
C711 C 0.63952 0.00547 0.00498 0.0
C712 C 0.66962 0.94265 0.98285 0.0
H713 H 0.79354 0.95672 0.91481 0.0
H714 H 0.75407 0.97328 0.93929 0.0
H715 H 0.69123 0.91319 0.96032 0.0
H716 H 0.58903 0.96211 0.04344 0.0
H717 H 0.63102 0.94384 0.02467 0.0
H718 H 0.69731 1.00146 0.00502 0.0
C719 C 0.75888 0.95302 0.9404 0.0
C720 C 0.69295 0.93233 0.97031 0.0
C721 C 0.78147 0.94344 0.92619 0.0
C722 C 0.60292 0.97453 0.03281 0.0
C723 C 0.62693 0.96398 0.02189 0.0
C724 C 0.69565 0.98221 0.99525 0.0
C725 C 0.74233 0.93659 0.95528 0.0
C726 C 0.71786 0.94693 0.96986 0.0
C727 C 0.64546 0.97926 0.00768 0.0
C728 C 0.6706 0.96782 0.99528 0.0
H729 H 0.77642 0.88031 0.94207 0.0
H730 H 0.73697 0.89711 0.96711 0.0
H731 H 0.73791 0.98351 0.9832 0.0
H732 H 0.6114 0.03615 0.01306 0.0
H733 H 0.65313 0.01773 0.99391 0.0
C734 C 0.75937 0.12042 0.45183 0.0
C735 C 0.73551 0.10534 0.44558 0.0
C736 C 0.78209 0.1091 0.46222 0.0
C737 C 0.81693 0.04792 0.46569 0.0
H738 H 0.84924 0.08086 0.52838 0.0
C739 C 0.9079 0.00291 0.51628 0.0
C740 C 0.928 0.02025 0.5274 0.0
C741 C 0.88333 0.01219 0.50721 0.0
C742 C 0.84081 0.07156 0.51065 0.0
H743 H 0.717 0.06644 0.44481 0.0
H744 H 0.75706 0.04655 0.46243 0.0
H745 H 0.80919 0.09942 0.50995 0.0
H746 H 0.93815 0.06095 0.53747 0.0
H747 H 0.89614 0.0771 0.52095 0.0
H748 H 0.84903 0.02059 0.46572 0.0
C749 C 0.75799 0.06717 0.45947 0.0
C750 C 0.81774 0.08217 0.50019 0.0
C751 C 0.73506 0.07858 0.4495 0.0
C752 C 0.92299 0.047 0.52926 0.0
C753 C 0.8987 0.05628 0.5199 0.0
C754 C 0.84031 0.0375 0.47592 0.0
C755 C 0.78162 0.08238 0.46617 0.0
C756 C 0.80566 0.07057 0.47754 0.0
C757 C 0.87846 0.03905 0.50876 0.0
C758 C 0.85273 0.04929 0.49846 0.0
H759 H 0.76035 0.14108 0.44908 0.0
H760 H 0.80014 0.12122 0.46702 0.0
H761 H 0.80809 0.03868 0.4481 0.0
H762 H 0.91111 0.98217 0.51465 0.0
H763 H 0.86812 0.99825 0.49913 0.0
C764 C 0.32165 0.57228 0.07976 0.0
C765 C 0.32458 0.57967 0.10637 0.0
C766 C 0.29625 0.56305 0.07005 0.0
C767 C 0.22765 0.53738 0.0904 0.0
H768 H 0.20349 0.56479 0.02655 0.0
C769 C 0.1143 0.53458 0.06192 0.0
C770 C 0.10791 0.52611 0.03614 0.0
C771 C 0.1415 0.53986 0.06911 0.0
C772 C 0.21009 0.55674 0.04423 0.0
H773 H 0.30337 0.58243 0.14378 0.0
H774 H 0.25913 0.56677 0.12685 0.0
H775 H 0.25006 0.57501 0.04181 0.0
H776 H 0.125 0.51732 0.99751 0.0
H777 H 0.17269 0.52686 0.01014 0.0
H778 H 0.18742 0.5197 0.09315 0.0
C779 C 0.27647 0.56773 0.11348 0.0
C780 C 0.23678 0.56251 0.05295 0.0
C781 C 0.30184 0.57686 0.12318 0.0
C782 C 0.12927 0.5238 0.01752 0.0
C783 C 0.15654 0.52929 0.02472 0.0
C784 C 0.20096 0.53177 0.08178 0.0
C785 C 0.27326 0.56105 0.08675 0.0
C786 C 0.24573 0.55318 0.07634 0.0
C787 C 0.16292 0.53697 0.05068 0.0
C788 C 0.19178 0.5417 0.05882 0.0
H789 H 0.33882 0.57408 0.06631 0.0
H790 H 0.29457 0.55769 0.04943 0.0
H791 H 0.23405 0.52945 0.1082 0.0
H792 H 0.09835 0.53665 0.07674 0.0
H793 H 0.14578 0.54619 0.08917 0.0
C794 C 0.25082 0.5204 0.64977 0.0
C795 C 0.23303 0.53208 0.63313 0.0
C796 C 0.2786 0.5178 0.64312 0.0
C797 C 0.33289 0.54373 0.59952 0.0
H798 H 0.37096 0.48183 0.61506 0.0
C799 C 0.45132 0.50998 0.60073 0.0
C800 C 0.46018 0.51763 0.57618 0.0
C801 C 0.42334 0.50931 0.60737 0.0
C802 C 0.36059 0.49925 0.61074 0.0
H803 H 0.23036 0.54989 0.59632 0.0
H804 H 0.27846 0.54481 0.58443 0.0
H805 H 0.32257 0.486 0.62751 0.0
H806 H 0.44647 0.52924 0.53888 0.0
H807 H 0.39783 0.52814 0.55054 0.0
H808 H 0.37076 0.55677 0.58242 0.0
C809 C 0.27123 0.53821 0.60294 0.0
C810 C 0.33292 0.50174 0.61795 0.0
C811 C 0.24357 0.54101 0.60969 0.0
C812 C 0.4404 0.5234 0.55801 0.0
C813 C 0.41253 0.52293 0.56472 0.0
C814 C 0.36039 0.54112 0.5921 0.0
C815 C 0.28915 0.52665 0.61958 0.0
C816 C 0.3187 0.52399 0.61236 0.0
C817 C 0.40376 0.51648 0.58965 0.0
C818 C 0.3745 0.51884 0.59754 0.0
H819 H 0.24332 0.51337 0.66801 0.0
H820 H 0.29185 0.50914 0.65659 0.0
H821 H 0.32286 0.5614 0.59542 0.0
H822 H 0.46604 0.50539 0.61515 0.0
H823 H 0.41714 0.50432 0.62675 0.0
C824 C 0.92341 0.7328 0.89365 0.0
C825 C 0.92234 0.75681 0.90828 0.0
C826 C 0.93474 0.71122 0.90413 0.0
C827 C 0.94758 0.68292 0.96607 0.0
H828 H 0.99923 0.64028 0.92601 0.0
C829 C 0.99766 0.59502 0.00963 0.0
C830 C 0.0031 0.57316 0.99277 0.0
C831 C 0.98913 0.61816 0.99981 0.0
C832 C 0.9845 0.65164 0.93741 0.0
H833 H 0.9324 0.77687 0.94544 0.0
H834 H 0.95169 0.73903 0.96388 0.0
H835 H 0.98166 0.67873 0.90777 0.0
H836 H 0.00343 0.55844 0.95232 0.0
H837 H 0.98767 0.59805 0.93538 0.0
H838 H 0.9495 0.65552 0.99534 0.0
C839 C 0.94388 0.737 0.94424 0.0
C840 C 0.97454 0.67383 0.92692 0.0
C841 C 0.93298 0.75871 0.9336 0.0
C842 C 0.99969 0.57496 0.96589 0.0
C843 C 0.9908 0.59789 0.95613 0.0
C844 C 0.95719 0.6605 0.97642 0.0
C845 C 0.94484 0.71298 0.92965 0.0
C846 C 0.95592 0.68971 0.94109 0.0
C847 C 0.98544 0.61994 0.97287 0.0
C848 C 0.97574 0.6444 0.96221 0.0
H849 H 0.9154 0.73064 0.8741 0.0
H850 H 0.93502 0.69295 0.89245 0.0
H851 H 0.93302 0.69462 0.97737 0.0
H852 H 1.00019 0.59435 0.03043 0.0
H853 H 0.9857 0.63472 0.0134 0.0
C854 C 0.44727 0.70499 0.1605 0.0
C855 C 0.44945 0.68626 0.13957 0.0
C856 C 0.45621 0.73068 0.15778 0.0
C857 C 0.4944 0.77392 0.11296 0.0
H858 H 0.44821 0.82632 0.14686 0.0
C859 C 0.48747 0.87919 0.08184 0.0
C860 C 0.49169 0.89887 0.10169 0.0
C861 C 0.48479 0.8532 0.0878 0.0
C862 C 0.4614 0.81187 0.13749 0.0
H863 H 0.46339 0.67937 0.09964 0.0
H864 H 0.47781 0.72439 0.09435 0.0
H865 H 0.43971 0.78076 0.1549 0.0
H866 H 0.49614 0.90716 0.14323 0.0
H867 H 0.49044 0.86153 0.1538 0.0
H868 H 0.51497 0.80533 0.09444 0.0
C869 C 0.47003 0.71927 0.1132 0.0
C870 C 0.45673 0.78574 0.14221 0.0
C871 C 0.46165 0.69343 0.11614 0.0
C872 C 0.49289 0.89224 0.12764 0.0
C873 C 0.48963 0.86628 0.13365 0.0
C874 C 0.49868 0.80003 0.10785 0.0
C875 C 0.4669 0.73837 0.13383 0.0
C876 C 0.47307 0.76635 0.12991 0.0
C877 C 0.48576 0.84658 0.11375 0.0
C878 C 0.48212 0.81915 0.11999 0.0
H879 H 0.43823 0.69986 0.1789 0.0
H880 H 0.45422 0.74458 0.17436 0.0
H881 H 0.50777 0.75969 0.10352 0.0
H882 H 0.48671 0.88389 0.06168 0.0
H883 H 0.48161 0.8383 0.07218 0.0
C884 C 0.02268 0.33674 0.63342 0.0
C885 C 0.04695 0.35024 0.64144 0.0
C886 C 0.02031 0.3097 0.63419 0.0
C887 C 0.06396 0.25309 0.63116 0.0
H888 H 0.99571 0.21542 0.6454 0.0
C889 C 0.04288 0.1478 0.5918 0.0
C890 C 0.02916 0.13047 0.60793 0.0
C891 C 0.04591 0.17416 0.59959 0.0
C892 C 0.01502 0.22564 0.64168 0.0
H893 H 0.08715 0.34613 0.65803 0.0
H894 H 0.08287 0.29904 0.65958 0.0
H895 H 0.9987 0.26264 0.65396 0.0
H896 H 0.00824 0.12729 0.64515 0.0
H897 H 0.01335 0.17358 0.65866 0.0
H898 H 0.08023 0.21622 0.61868 0.0
C899 C 0.06588 0.30929 0.65224 0.0
C900 C 0.01664 0.25269 0.64634 0.0
C901 C 0.06827 0.33629 0.65144 0.0
C902 C 0.01864 0.14017 0.63214 0.0
C903 C 0.02158 0.16664 0.63989 0.0
C904 C 0.06232 0.22612 0.62646 0.0
C905 C 0.04214 0.29563 0.64304 0.0
C906 C 0.04101 0.26675 0.64071 0.0
C907 C 0.03522 0.1839 0.62365 0.0
C908 C 0.03768 0.21216 0.63119 0.0
H909 H 0.00585 0.34691 0.62568 0.0
H910 H 0.00184 0.29975 0.62674 0.0
H911 H 0.08296 0.26333 0.62636 0.0
H912 H 0.05071 0.14114 0.5728 0.0
H913 H 0.05604 0.18704 0.5864 0.0
C914 C 0.61318 0.28661 0.41828 0.0
C915 C 0.62365 0.26588 0.43103 0.0
C916 C 0.60735 0.31007 0.43204 0.0
C917 C 0.59201 0.33952 0.49762 0.0
H918 H 0.61022 0.40371 0.46513 0.0
C919 C 0.57477 0.4425 0.54817 0.0
C920 C 0.56425 0.46093 0.53235 0.0
C921 C 0.58296 0.41827 0.53728 0.0
C922 C 0.60478 0.38596 0.4744 0.0
H923 H 0.63608 0.25357 0.46842 0.0
H924 H 0.62593 0.29479 0.49256 0.0
H925 H 0.62326 0.36238 0.44362 0.0
H926 H 0.5535 0.46804 0.49275 0.0
H927 H 0.56749 0.42598 0.47396 0.0
H928 H 0.57327 0.36328 0.52834 0.0
C929 C 0.62211 0.29272 0.47185 0.0
C930 C 0.61228 0.36226 0.46206 0.0
C931 C 0.62805 0.26916 0.458 0.0
C932 C 0.56168 0.45442 0.50553 0.0
C933 C 0.56989 0.43033 0.49469 0.0
C934 C 0.58448 0.36332 0.51001 0.0
C935 C 0.61182 0.31348 0.45897 0.0
C936 C 0.60558 0.33871 0.47328 0.0
C937 C 0.5809 0.41205 0.51034 0.0
C938 C 0.59038 0.38679 0.4983 0.0
H939 H 0.60941 0.28477 0.39755 0.0
H940 H 0.59899 0.32547 0.42158 0.0
H941 H 0.58639 0.32171 0.5067 0.0
H942 H 0.57702 0.4469 0.56891 0.0
H943 H 0.59148 0.40466 0.54985 0.0
loop_
_geom_bond_atom_site_label_1
_geom_bond_atom_site_label_2
_geom_bond_distance
_geom_bond_site_symmetry_2
_ccdc_geom_bond_type
O0 Cd1 2.300 . S
O0 C7 1.275 . S
Cd1 O0 2.300 . S
Cd1 O9 2.381 . S
Cd1 O10 2.378 . S
O2 Cd3 2.385 . S
O2 C7 1.255 . S
Cd3 O2 2.385 . S
Cd3 O4 2.317 . S
O4 Cd3 2.317 . S
O4 C5 1.232 . S
C5 O4 1.232 . S
C5 O6 1.218 . S
O6 C5 1.218 . S
C7 O0 1.275 . S
C7 O2 1.255 . S
C8 O9 1.258 . S
C8 O10 1.256 . S
O9 Cd1 2.381 . S
O9 C8 1.258 . S
O10 Cd1 2.378 . S
O10 C8 1.256 . S
O11 Cd12 2.300 . S
O11 C18 1.275 . S
Cd12 O11 2.300 . S
Cd12 O20 2.381 . S
Cd12 O21 2.378 . S
O13 Cd14 2.385 . S
O13 C18 1.255 . S
Cd14 O13 2.385 . S
Cd14 O15 2.317 . S
O15 Cd14 2.317 . S
O15 C16 1.232 . S
C16 O15 1.232 . S
C16 O17 1.218 . S
O17 C16 1.218 . S
C18 O11 1.275 . S
C18 O13 1.255 . S
C19 O20 1.258 . S
C19 O21 1.256 . S
O20 Cd12 2.381 . S
O20 C19 1.258 . S
O21 Cd12 2.378 . S
O21 C19 1.256 . S
O22 Cd23 2.300 . S
O22 C29 1.275 . S
Cd23 O22 2.300 . S
Cd23 O31 2.381 . S
Cd23 O32 2.378 . S
O24 Cd25 2.385 . S
O24 C29 1.255 . S
Cd25 O24 2.385 . S
Cd25 O26 2.317 . S
O26 Cd25 2.317 . S
O26 C27 1.232 . S
C27 O26 1.232 . S
C27 O28 1.218 . S
O28 C27 1.218 . S
C29 O22 1.275 . S
C29 O24 1.255 . S
C30 O31 1.258 . S
C30 O32 1.256 . S
O31 Cd23 2.381 . S
O31 C30 1.258 . S
O32 Cd23 2.378 . S
O32 C30 1.256 . S
O33 Cd34 2.300 . S
O33 C40 1.275 . S
Cd34 O33 2.300 . S
Cd34 O42 2.381 . S
Cd34 O43 2.378 . S
O35 Cd36 2.385 . S
O35 C40 1.255 . S
Cd36 O35 2.385 . S
Cd36 O37 2.317 . S
O37 Cd36 2.317 . S
O37 C38 1.232 . S
C38 O37 1.232 . S
C38 O39 1.218 . S
O39 C38 1.218 . S
C40 O33 1.275 . S
C40 O35 1.255 . S
C41 O42 1.258 . S
C41 O43 1.256 . S
O42 Cd34 2.381 . S
O42 C41 1.258 . S
O43 Cd34 2.378 . S
O43 C41 1.256 . S
O44 Cd45 2.300 . S
O44 C51 1.275 . S
Cd45 O44 2.300 . S
Cd45 O53 2.381 . S
Cd45 O54 2.378 . S
O46 Cd47 2.385 . S
O46 C51 1.255 . S
Cd47 O46 2.385 . S
Cd47 O48 2.317 . S
O48 Cd47 2.317 . S
O48 C49 1.232 . S
C49 O48 1.232 . S
C49 O50 1.218 . S
O50 C49 1.218 . S
C51 O44 1.275 . S
C51 O46 1.255 . S
C52 O53 1.258 . S
C52 O54 1.256 . S
O53 Cd45 2.381 . S
O53 C52 1.258 . S
O54 Cd45 2.378 . S
O54 C52 1.256 . S
O55 Cd56 2.300 . S
O55 C62 1.275 . S
Cd56 O55 2.300 . S
Cd56 O64 2.381 . S
Cd56 O65 2.378 . S
O57 Cd58 2.385 . S
O57 C62 1.255 . S
Cd58 O57 2.385 . S
Cd58 O59 2.317 . S
O59 Cd58 2.317 . S
O59 C60 1.232 . S
C60 O59 1.232 . S
C60 O61 1.218 . S
O61 C60 1.218 . S
C62 O55 1.275 . S
C62 O57 1.255 . S
C63 O64 1.258 . S
C63 O65 1.256 . S
O64 Cd56 2.381 . S
O64 C63 1.258 . S
O65 Cd56 2.378 . S
O65 C63 1.256 . S
O66 Cd67 2.300 . S
O66 C73 1.275 . S
Cd67 O66 2.300 . S
Cd67 O75 2.381 . S
Cd67 O76 2.378 . S
O68 Cd69 2.385 . S
O68 C73 1.255 . S
Cd69 O68 2.385 . S
Cd69 O70 2.317 . S
O70 Cd69 2.317 . S
O70 C71 1.232 . S
C71 O70 1.232 . S
C71 O72 1.218 . S
O72 C71 1.218 . S
C73 O66 1.275 . S
C73 O68 1.255 . S
C74 O75 1.258 . S
C74 O76 1.256 . S
O75 Cd67 2.381 . S
O75 C74 1.258 . S
O76 Cd67 2.378 . S
O76 C74 1.256 . S
O77 Cd78 2.300 . S
O77 C84 1.275 . S
Cd78 O77 2.300 . S
Cd78 O86 2.381 . S
Cd78 O87 2.378 . S
O79 Cd80 2.385 . S
O79 C84 1.255 . S
Cd80 O79 2.385 . S
Cd80 O81 2.317 . S
O81 Cd80 2.317 . S
O81 C82 1.232 . S
C82 O81 1.232 . S
C82 O83 1.218 . S
O83 C82 1.218 . S
C84 O77 1.275 . S
C84 O79 1.255 . S
C85 O86 1.258 . S
C85 O87 1.256 . S
O86 Cd78 2.381 . S
O86 C85 1.258 . S
O87 Cd78 2.378 . S
O87 C85 1.256 . S
C88 O104 1.251 . S
C88 O106 1.254 1_545 S
N89 C90 1.333 . S
N89 C94 1.307 . S
N89 Zn95 2.020 . S
C90 N89 1.333 . S
C90 C91 1.379 . S
C90 H108 0.952 . S
C91 C90 1.379 . S
C91 C92 1.390 . S
C91 H118 0.949 . S
C92 C91 1.390 . S
C92 C93 1.357 . S
C93 C92 1.357 . S
C93 C94 1.370 . S
C93 H119 0.950 . S
C94 N89 1.307 . S
C94 C93 1.370 . S
C94 H112 0.948 . S
Zn95 N89 2.020 . S
Zn95 O104 2.039 . S
Zn95 O110 2.034 . S
Zn95 O114 2.025 . S
Zn95 O116 2.024 1_455 S
C96 O115 1.246 . S
C96 O116 1.249 . S
N97 C98 1.307 1_655 S
N97 C99 1.333 . S
N97 Zn103 2.020 1_655 S
C98 N97 1.307 1_455 S
C98 C102 1.370 1_455 S
C98 H109 0.948 . S
C99 N97 1.333 . S
C99 C100 1.379 . S
C99 H107 0.952 . S
C100 C99 1.379 . S
C100 C101 1.390 . S
C100 H120 0.949 . S
C101 C100 1.390 . S
C101 C102 1.357 . S
C102 C98 1.370 1_655 S
C102 C101 1.357 . S
C102 H121 0.950 1_655 S
Zn103 N97 2.020 1_455 S
Zn103 O106 2.025 . S
Zn103 O111 2.024 . S
Zn103 O113 2.039 1_455 S
Zn103 O115 2.034 1_465 S
O104 C88 1.251 . S
O104 Zn95 2.039 . S
C105 O110 1.246 1_565 S
C105 O111 1.249 . S
O106 C88 1.254 1_565 S
O106 Zn103 2.025 . S
H107 C99 0.952 . S
H108 C90 0.952 . S
H109 C98 0.948 . S
O110 Zn95 2.034 . S
O110 C105 1.246 1_545 S
O111 Zn103 2.024 . S
O111 C105 1.249 . S
H112 C94 0.948 . S
O113 Zn103 2.039 1_655 S
O113 C117 1.251 . S
O114 Zn95 2.025 . S
O114 C117 1.254 1_445 S
O115 C96 1.246 . S
O115 Zn103 2.034 1_645 S
O116 Zn95 2.024 1_655 S
O116 C96 1.249 . S
C117 O113 1.251 . S
C117 O114 1.254 1_665 S
H118 C91 0.949 . S
H119 C93 0.950 . S
H120 C100 0.949 . S
H121 C102 0.950 1_455 S
C122 O138 1.251 . S
C122 O140 1.254 1_545 S
N123 C124 1.333 . S
N123 C128 1.307 . S
N123 Zn129 2.020 . S
C124 N123 1.333 . S
C124 C125 1.379 . S
C124 H142 0.952 . S
C125 C124 1.379 . S
C125 C126 1.390 . S
C125 H152 0.949 . S
C126 C125 1.390 . S
C126 C127 1.357 . S
C127 C126 1.357 . S
C127 C128 1.370 . S
C127 H153 0.950 . S
C128 N123 1.307 . S
C128 C127 1.370 . S
C128 H146 0.948 . S
Zn129 N123 2.020 . S
Zn129 O138 2.039 . S
Zn129 O144 2.034 . S
Zn129 O148 2.025 . S
Zn129 O150 2.024 . S
C130 O149 1.246 1_545 S
C130 O150 1.249 . S
N131 C132 1.307 . S
N131 C133 1.333 . S
N131 Zn137 2.020 . S
C132 N131 1.307 . S
C132 C136 1.370 . S
C132 H143 0.948 . S
C133 N131 1.333 . S
C133 C134 1.379 . S
C133 H141 0.952 . S
C134 C133 1.379 . S
C134 C135 1.390 . S
C134 H154 0.949 . S
C135 C134 1.390 . S
C135 C136 1.357 . S
C136 C132 1.370 . S
C136 C135 1.357 . S
C136 H155 0.950 . S
Zn137 N131 2.020 . S
Zn137 O140 2.025 . S
Zn137 O145 2.024 1_565 S
Zn137 O147 2.039 1_565 S
Zn137 O149 2.034 . S
O138 C122 1.251 . S
O138 Zn129 2.039 . S
C139 O144 1.246 . S
C139 O145 1.249 . S
O140 C122 1.254 1_565 S
O140 Zn137 2.025 . S
H141 C133 0.952 . S
H142 C124 0.952 . S
H143 C132 0.948 . S
O144 Zn129 2.034 . S
O144 C139 1.246 . S
O145 Zn137 2.024 1_545 S
O145 C139 1.249 . S
H146 C128 0.948 . S
O147 Zn137 2.039 1_545 S
O147 C151 1.251 . S
O148 Zn129 2.025 . S
O148 C151 1.254 . S
O149 C130 1.246 1_565 S
O149 Zn137 2.034 . S
O150 Zn129 2.024 . S
O150 C130 1.249 . S
C151 O147 1.251 . S
C151 O148 1.254 . S
H152 C125 0.949 . S
H153 C127 0.950 . S
H154 C134 0.949 . S
H155 C136 0.950 . S
C156 O172 1.251 . S
C156 O174 1.254 . S
N157 C158 1.333 . S
N157 C162 1.307 . S
N157 Zn163 2.020 . S
C158 N157 1.333 . S
C158 C159 1.379 . S
C158 H176 0.952 . S
C159 C158 1.379 . S
C159 C160 1.390 . S
C159 H186 0.949 . S
C160 C159 1.390 . S
C160 C161 1.357 . S
C161 C160 1.357 . S
C161 C162 1.370 . S
C161 H187 0.950 . S
C162 N157 1.307 . S
C162 C161 1.370 . S
C162 H180 0.948 . S
Zn163 N157 2.020 . S
Zn163 O172 2.039 . S
Zn163 O178 2.034 . S
Zn163 O182 2.025 . S
Zn163 O184 2.024 . S
C164 O183 1.246 . S
C164 O184 1.249 . S
N165 C166 1.307 . S
N165 C167 1.333 . S
N165 Zn171 2.020 . S
C166 N165 1.307 . S
C166 C170 1.370 . S
C166 H177 0.948 . S
C167 N165 1.333 . S
C167 C168 1.379 . S
C167 H175 0.952 . S
C168 C167 1.379 . S
C168 C169 1.390 . S
C168 H188 0.949 . S
C169 C168 1.390 . S
C169 C170 1.357 . S
C170 C166 1.370 . S
C170 C169 1.357 . S
C170 H189 0.950 . S
Zn171 N165 2.020 . S
Zn171 O174 2.025 . S
Zn171 O179 2.024 . S
Zn171 O181 2.039 . S
Zn171 O183 2.034 . S
O172 C156 1.251 . S
O172 Zn163 2.039 . S
C173 O178 1.246 . S
C173 O179 1.249 . S
O174 C156 1.254 . S
O174 Zn171 2.025 . S
H175 C167 0.952 . S
H176 C158 0.952 . S
H177 C166 0.948 . S
O178 Zn163 2.034 . S
O178 C173 1.246 . S
O179 Zn171 2.024 . S
O179 C173 1.249 . S
H180 C162 0.948 . S
O181 Zn171 2.039 . S
O181 C185 1.251 . S
O182 Zn163 2.025 . S
O182 C185 1.254 . S
O183 C164 1.246 . S
O183 Zn171 2.034 . S
O184 Zn163 2.024 . S
O184 C164 1.249 . S
C185 O181 1.251 . S
C185 O182 1.254 . S
H186 C159 0.949 . S
H187 C161 0.950 . S
H188 C168 0.949 . S
H189 C170 0.950 . S
C190 O206 1.251 . S
C190 O208 1.254 1_554 S
N191 C192 1.333 . S
N191 C196 1.307 1_455 S
N191 Zn197 2.020 . S
C192 N191 1.333 . S
C192 C193 1.379 1_455 S
C192 H210 0.952 . S
C193 C192 1.379 1_655 S
C193 C194 1.390 . S
C193 H220 0.950 . S
C194 C193 1.390 . S
C194 C195 1.357 . S
C195 C194 1.357 . S
C195 C196 1.370 . S
C195 H221 0.950 . S
C196 N191 1.307 1_655 S
C196 C195 1.370 . S
C196 H214 0.948 . S
Zn197 N191 2.020 . S
Zn197 O206 2.039 . S
Zn197 O212 2.034 . S
Zn197 O216 2.025 . S
Zn197 O218 2.024 1_455 S
C198 O217 1.244 1_554 S
C198 O218 1.249 . S
N199 C200 1.307 . S
N199 C201 1.333 . S
N199 Zn205 2.020 . S
C200 N199 1.307 . S
C200 C204 1.370 . S
C200 H211 0.948 . S
C201 N199 1.333 . S
C201 C202 1.379 . S
C201 H209 0.952 . S
C202 C201 1.379 . S
C202 C203 1.390 . S
C202 H222 0.949 . S
C203 C202 1.390 . S
C203 C204 1.357 . S
C204 C200 1.370 . S
C204 C203 1.357 . S
C204 H223 0.950 . S
Zn205 N199 2.020 . S
Zn205 O208 2.025 . S
Zn205 O213 2.024 1_556 S
Zn205 O215 2.039 1_556 S
Zn205 O217 2.036 1_455 S
O206 C190 1.251 . S
O206 Zn197 2.039 . S
C207 O212 1.246 . S
C207 O213 1.249 . S
O208 C190 1.254 1_556 S
O208 Zn205 2.025 . S
H209 C201 0.952 . S
H210 C192 0.952 . S
H211 C200 0.948 . S
O212 Zn197 2.034 . S
O212 C207 1.246 . S
O213 Zn205 2.024 1_554 S
O213 C207 1.249 . S
H214 C196 0.948 . S
O215 Zn205 2.039 1_554 S
O215 C219 1.251 . S
O216 Zn197 2.025 . S
O216 C219 1.254 . S
O217 C198 1.244 1_556 S
O217 Zn205 2.036 1_655 S
O218 Zn197 2.024 1_655 S
O218 C198 1.249 . S
C219 O215 1.251 . S
C219 O216 1.254 . S
H220 C193 0.950 . S
H221 C195 0.950 . S
H222 C202 0.949 . S
H223 C204 0.950 . S
C224 C225 1.349 . S
C224 C226 1.327 . S
C224 H249 0.950 . S
C225 C224 1.349 . S
C225 C241 1.349 . S
C226 C224 1.327 . S
C226 C245 1.429 . S
C226 H250 0.950 . S
C227 C244 1.574 . S
C227 C246 1.368 . S
C227 H251 0.949 . S
H228 C232 0.949 . S
C229 C230 1.349 . S
C229 C231 1.327 . S
C229 H252 0.950 . S
C230 C229 1.349 . S
C230 C242 1.349 . S
C231 C229 1.327 . S
C231 C247 1.429 . S
C231 H253 0.950 . S
C232 H228 0.949 . S
C232 C240 1.574 . S
C232 C248 1.368 . S
H233 C241 0.950 . S
H234 C239 0.950 . S
H235 C240 0.949 . S
H236 C242 0.950 . S
H237 C243 0.950 . S
H238 C244 0.949 . S
C239 H234 0.950 . S
C239 C241 1.327 . S
C239 C245 1.429 . S
C240 C232 1.574 . S
C240 H235 0.949 . S
C240 C246 1.368 . S
C241 C225 1.349 . S
C241 H233 0.950 . S
C241 C239 1.327 . S
C242 C230 1.349 . S
C242 H236 0.950 . S
C242 C243 1.327 . S
C243 H237 0.950 . S
C243 C242 1.327 . S
C243 C247 1.429 . S
C244 C227 1.574 . S
C244 H238 0.949 . S
C244 C248 1.368 . S
C245 C226 1.429 . S
C245 C239 1.429 . S
C245 C246 1.523 . S
C246 C227 1.368 . S
C246 C240 1.368 . S
C246 C245 1.523 . S
C247 C231 1.429 . S
C247 C243 1.429 . S
C247 C248 1.523 . S
C248 C232 1.368 . S
C248 C244 1.368 . S
C248 C247 1.523 . S
H249 C224 0.950 . S
H250 C226 0.950 . S
H251 C227 0.949 . S
H252 C229 0.950 . S
H253 C231 0.950 . S
C254 C255 1.349 . S
C254 C256 1.327 . S
C254 H279 0.950 . S
C255 C254 1.349 . S
C255 C271 1.349 . S
C256 C254 1.327 . S
C256 C275 1.429 . S
C256 H280 0.950 . S
C257 C274 1.574 . S
C257 C276 1.368 . S
C257 H281 0.949 . S
H258 C262 0.949 . S
C259 C260 1.349 1_545 S
C259 C261 1.327 . S
C259 H282 0.950 . S
C260 C259 1.349 1_565 S
C260 C272 1.349 . S
C261 C259 1.327 . S
C261 C277 1.429 1_545 S
C261 H283 0.950 . S
C262 H258 0.949 . S
C262 C270 1.574 . S
C262 C278 1.368 . S
H263 C271 0.950 . S
H264 C269 0.950 . S
H265 C270 0.949 . S
H266 C272 0.950 . S
H267 C273 0.950 . S
H268 C274 0.949 1_545 S
C269 H264 0.950 . S
C269 C271 1.327 . S
C269 C275 1.429 . S
C270 C262 1.574 . S
C270 H265 0.949 . S
C270 C276 1.368 . S
C271 C255 1.349 . S
C271 H263 0.950 . S
C271 C269 1.327 . S
C272 C260 1.349 . S
C272 H266 0.950 . S
C272 C273 1.327 . S
C273 H267 0.950 . S
C273 C272 1.327 . S
C273 C277 1.429 . S
C274 C257 1.574 . S
C274 H268 0.949 1_565 S
C274 C278 1.368 . S
C275 C256 1.429 . S
C275 C269 1.429 . S
C275 C276 1.523 . S
C276 C257 1.368 . S
C276 C270 1.368 . S
C276 C275 1.523 . S
C277 C261 1.429 1_565 S
C277 C273 1.429 . S
C277 C278 1.523 . S
C278 C262 1.368 . S
C278 C274 1.368 . S
C278 C277 1.523 . S
H279 C254 0.950 . S
H280 C256 0.950 . S
H281 C257 0.949 . S
H282 C259 0.950 . S
H283 C261 0.950 . S
C284 C285 1.349 . S
C284 C286 1.327 . S
C284 H309 0.950 . S
C285 C284 1.349 . S
C285 C301 1.349 . S
C286 C284 1.327 . S
C286 C305 1.429 . S
C286 H310 0.950 . S
C287 C304 1.574 . S
C287 C306 1.368 . S
C287 H311 0.949 . S
H288 C292 0.949 . S
C289 C290 1.349 . S
C289 C291 1.327 . S
C289 H312 0.950 . S
C290 C289 1.349 . S
C290 C302 1.349 . S
C291 C289 1.327 . S
C291 C307 1.429 . S
C291 H313 0.950 . S
C292 H288 0.949 . S
C292 C300 1.574 . S
C292 C308 1.368 . S
H293 C301 0.950 . S
H294 C299 0.950 . S
H295 C300 0.949 . S
H296 C302 0.950 . S
H297 C303 0.950 . S
H298 C304 0.949 . S
C299 H294 0.950 . S
C299 C301 1.327 . S
C299 C305 1.429 . S
C300 C292 1.574 . S
C300 H295 0.949 . S
C300 C306 1.368 . S
C301 C285 1.349 . S
C301 H293 0.950 . S
C301 C299 1.327 . S
C302 C290 1.349 . S
C302 H296 0.950 . S
C302 C303 1.327 . S
C303 H297 0.950 . S
C303 C302 1.327 . S
C303 C307 1.429 . S
C304 C287 1.574 . S
C304 H298 0.949 . S
C304 C308 1.368 . S
C305 C286 1.429 . S
C305 C299 1.429 . S
C305 C306 1.523 . S
C306 C287 1.368 . S
C306 C300 1.368 . S
C306 C305 1.523 . S
C307 C291 1.429 . S
C307 C303 1.429 . S
C307 C308 1.523 . S
C308 C292 1.368 . S
C308 C304 1.368 . S
C308 C307 1.523 . S
H309 C284 0.950 . S
H310 C286 0.950 . S
H311 C287 0.949 . S
H312 C289 0.950 . S
H313 C291 0.950 . S
C314 C315 1.349 . S
C314 C316 1.327 . S
C314 H339 0.950 . S
C315 C314 1.349 . S
C315 C331 1.349 . S
C316 C314 1.327 . S
C316 C335 1.429 . S
C316 H340 0.950 . S
C317 C334 1.574 . S
C317 C336 1.368 . S
C317 H341 0.949 . S
H318 C322 0.949 . S
C319 C320 1.349 . S
C319 C321 1.327 . S
C319 H342 0.950 1_655 S
C320 C319 1.349 . S
C320 C332 1.349 . S
C321 C319 1.327 . S
C321 C337 1.429 . S
C321 H343 0.950 . S
C322 H318 0.949 . S
C322 C330 1.574 . S
C322 C338 1.368 . S
H323 C331 0.950 . S
H324 C329 0.950 . S
H325 C330 0.949 . S
H326 C332 0.950 . S
H327 C333 0.950 . S
H328 C334 0.949 . S
C329 H324 0.950 . S
C329 C331 1.327 . S
C329 C335 1.429 . S
C330 C322 1.574 . S
C330 H325 0.949 . S
C330 C336 1.368 . S
C331 C315 1.349 . S
C331 H323 0.950 . S
C331 C329 1.327 . S
C332 C320 1.349 . S
C332 H326 0.950 . S
C332 C333 1.327 . S
C333 H327 0.950 . S
C333 C332 1.327 . S
C333 C337 1.429 . S
C334 C317 1.574 . S
C334 H328 0.949 . S
C334 C338 1.368 . S
C335 C316 1.429 . S
C335 C329 1.429 . S
C335 C336 1.523 . S
C336 C317 1.368 . S
C336 C330 1.368 . S
C336 C335 1.523 . S
C337 C321 1.429 . S
C337 C333 1.429 . S
C337 C338 1.523 . S
C338 C322 1.368 . S
C338 C334 1.368 . S
C338 C337 1.523 . S
H339 C314 0.950 . S
H340 C316 0.950 . S
H341 C317 0.949 . S
H342 C319 0.950 1_455 S
H343 C321 0.950 . S
C344 C345 1.349 . S
C344 C346 1.327 . S
C344 H369 0.950 . S
C345 C344 1.349 . S
C345 C361 1.349 . S
C346 C344 1.327 . S
C346 C365 1.429 . S
C346 H370 0.950 . S
C347 C364 1.574 . S
C347 C366 1.368 . S
C347 H371 0.949 . S
H348 C352 0.949 . S
C349 C350 1.349 . S
C349 C351 1.327 . S
C349 H372 0.950 . S
C350 C349 1.349 . S
C350 C362 1.349 . S
C351 C349 1.327 . S
C351 C367 1.429 . S
C351 H373 0.950 . S
C352 H348 0.949 . S
C352 C360 1.574 . S
C352 C368 1.368 . S
H353 C361 0.950 . S
H354 C359 0.950 . S
H355 C360 0.949 . S
H356 C362 0.950 . S
H357 C363 0.950 . S
H358 C364 0.949 . S
C359 H354 0.950 . S
C359 C361 1.327 . S
C359 C365 1.429 . S
C360 C352 1.574 . S
C360 H355 0.949 . S
C360 C366 1.368 . S
C361 C345 1.349 . S
C361 H353 0.950 . S
C361 C359 1.327 . S
C362 C350 1.349 . S
C362 H356 0.950 . S
C362 C363 1.327 . S
C363 H357 0.950 . S
C363 C362 1.327 . S
C363 C367 1.429 . S
C364 C347 1.574 . S
C364 H358 0.949 . S
C364 C368 1.368 . S
C365 C346 1.429 . S
C365 C359 1.429 . S
C365 C366 1.523 . S
C366 C347 1.368 . S
C366 C360 1.368 . S
C366 C365 1.523 . S
C367 C351 1.429 . S
C367 C363 1.429 . S
C367 C368 1.523 . S
C368 C352 1.368 . S
C368 C364 1.368 . S
C368 C367 1.523 . S
H369 C344 0.950 . S
H370 C346 0.950 . S
H371 C347 0.949 . S
H372 C349 0.950 . S
H373 C351 0.950 . S
C374 C375 1.349 . S
C374 C376 1.327 . S
C374 H399 0.950 . S
C375 C374 1.349 . S
C375 C391 1.349 . S
C376 C374 1.327 . S
C376 C395 1.429 . S
C376 H400 0.950 . S
C377 C394 1.574 . S
C377 C396 1.368 . S
C377 H401 0.949 . S
H378 C382 0.949 1_545 S
C379 C380 1.349 . S
C379 C381 1.327 . S
C379 H402 0.950 . S
C380 C379 1.349 . S
C380 C392 1.349 1_565 S
C381 C379 1.327 . S
C381 C397 1.429 . S
C381 H403 0.950 . S
C382 H378 0.949 1_565 S
C382 C390 1.574 . S
C382 C398 1.368 . S
H383 C391 0.950 . S
H384 C389 0.950 . S
H385 C390 0.949 . S
H386 C392 0.950 . S
H387 C393 0.950 1_545 S
H388 C394 0.949 . S
C389 H384 0.950 . S
C389 C391 1.327 . S
C389 C395 1.429 . S
C390 C382 1.574 . S
C390 H385 0.949 . S
C390 C396 1.368 . S
C391 C375 1.349 . S
C391 H383 0.950 . S
C391 C389 1.327 . S
C392 C380 1.349 1_545 S
C392 H386 0.950 . S
C392 C393 1.327 1_545 S
C393 H387 0.950 1_565 S
C393 C392 1.327 1_565 S
C393 C397 1.429 . S
C394 C377 1.574 . S
C394 H388 0.949 . S
C394 C398 1.368 . S
C395 C376 1.429 . S
C395 C389 1.429 . S
C395 C396 1.523 . S
C396 C377 1.368 . S
C396 C390 1.368 . S
C396 C395 1.523 . S
C397 C381 1.429 . S
C397 C393 1.429 . S
C397 C398 1.523 . S
C398 C382 1.368 . S
C398 C394 1.368 . S
C398 C397 1.523 . S
H399 C374 0.950 . S
H400 C376 0.950 . S
H401 C377 0.949 . S
H402 C379 0.950 . S
H403 C381 0.950 . S
C404 C405 1.349 . S
C404 C406 1.327 . S
C404 H429 0.950 . S
C405 C404 1.349 . S
C405 C421 1.349 . S
C406 C404 1.327 . S
C406 C425 1.429 . S
C406 H430 0.950 . S
C407 C424 1.574 . S
C407 C426 1.368 . S
C407 H431 0.949 . S
H408 C412 0.949 . S
C409 C410 1.349 1_554 S
C409 C411 1.327 1_554 S
C409 H432 0.950 . S
C410 C409 1.349 1_556 S
C410 C422 1.355 . S
C411 C409 1.327 1_556 S
C411 C427 1.429 . S
C411 H433 0.951 . S
C412 H408 0.949 . S
C412 C420 1.574 . S
C412 C428 1.368 . S
H413 C421 0.950 . S
H414 C419 0.950 . S
H415 C420 0.949 . S
H416 C422 0.950 . S
H417 C423 0.950 . S
H418 C424 0.949 . S
C419 H414 0.950 . S
C419 C421 1.327 . S
C419 C425 1.429 . S
C420 C412 1.574 . S
C420 H415 0.949 . S
C420 C426 1.368 . S
C421 C405 1.349 . S
C421 H413 0.950 . S
C421 C419 1.327 . S
C422 C410 1.355 . S
C422 H416 0.950 . S
C422 C423 1.327 . S
C423 H417 0.950 . S
C423 C422 1.327 . S
C423 C427 1.429 . S
C424 C407 1.574 . S
C424 H418 0.949 . S
C424 C428 1.368 . S
C425 C406 1.429 . S
C425 C419 1.429 . S
C425 C426 1.523 . S
C426 C407 1.368 . S
C426 C420 1.368 . S
C426 C425 1.523 . S
C427 C411 1.429 . S
C427 C423 1.429 . S
C427 C428 1.523 . S
C428 C412 1.368 . S
C428 C424 1.368 . S
C428 C427 1.523 . S
H429 C404 0.950 . S
H430 C406 0.950 . S
H431 C407 0.949 . S
H432 C409 0.950 . S
H433 C411 0.951 . S
C434 C435 1.349 . S
C434 C436 1.327 . S
C434 H459 0.950 . S
C435 C434 1.349 . S
C435 C451 1.349 . S
C436 C434 1.327 . S
C436 C455 1.429 . S
C436 H460 0.950 . S
C437 C454 1.574 . S
C437 C456 1.368 . S
C437 H461 0.949 . S
H438 C442 0.949 . S
C439 C440 1.349 . S
C439 C441 1.327 . S
C439 H462 0.950 . S
C440 C439 1.349 . S
C440 C452 1.349 . S
C441 C439 1.327 . S
C441 C457 1.429 . S
C441 H463 0.950 . S
C442 H438 0.949 . S
C442 C450 1.574 . S
C442 C458 1.368 . S
H443 C451 0.950 . S
H444 C449 0.950 . S
H445 C450 0.949 . S
H446 C452 0.950 . S
H447 C453 0.950 . S
H448 C454 0.949 . S
C449 H444 0.950 . S
C449 C451 1.327 . S
C449 C455 1.429 . S
C450 C442 1.574 . S
C450 H445 0.949 . S
C450 C456 1.368 . S
C451 C435 1.349 . S
C451 H443 0.950 . S
C451 C449 1.327 . S
C452 C440 1.349 . S
C452 H446 0.950 . S
C452 C453 1.327 . S
C453 H447 0.950 . S
C453 C452 1.327 . S
C453 C457 1.429 . S
C454 C437 1.574 . S
C454 H448 0.949 . S
C454 C458 1.368 . S
C455 C436 1.429 . S
C455 C449 1.429 . S
C455 C456 1.523 . S
C456 C437 1.368 . S
C456 C450 1.368 . S
C456 C455 1.523 . S
C457 C441 1.429 . S
C457 C453 1.429 . S
C457 C458 1.523 . S
C458 C442 1.368 . S
C458 C454 1.368 . S
C458 C457 1.523 . S
H459 C434 0.950 . S
H460 C436 0.950 . S
H461 C437 0.949 . S
H462 C439 0.950 . S
H463 C441 0.950 . S
C464 C465 1.349 . S
C464 C466 1.327 . S
C464 H489 0.950 . S
C465 C464 1.349 . S
C465 C481 1.349 . S
C466 C464 1.327 . S
C466 C485 1.429 . S
C466 H490 0.950 . S
C467 C484 1.574 . S
C467 C486 1.368 . S
C467 H491 0.949 . S
H468 C472 0.949 . S
C469 C470 1.349 . S
C469 C471 1.327 . S
C469 H492 0.950 . S
C470 C469 1.349 . S
C470 C482 1.349 . S
C471 C469 1.327 . S
C471 C487 1.429 . S
C471 H493 0.950 . S
C472 H468 0.949 . S
C472 C480 1.574 . S
C472 C488 1.368 . S
H473 C481 0.950 . S
H474 C479 0.950 . S
H475 C480 0.949 . S
H476 C482 0.950 . S
H477 C483 0.950 . S
H478 C484 0.949 . S
C479 H474 0.950 . S
C479 C481 1.327 . S
C479 C485 1.429 . S
C480 C472 1.574 . S
C480 H475 0.949 . S
C480 C486 1.368 . S
C481 C465 1.349 . S
C481 H473 0.950 . S
C481 C479 1.327 . S
C482 C470 1.349 . S
C482 H476 0.950 . S
C482 C483 1.327 . S
C483 H477 0.950 . S
C483 C482 1.327 . S
C483 C487 1.429 . S
C484 C467 1.574 . S
C484 H478 0.949 . S
C484 C488 1.368 . S
C485 C466 1.429 . S
C485 C479 1.429 . S
C485 C486 1.523 . S
C486 C467 1.368 . S
C486 C480 1.368 . S
C486 C485 1.523 . S
C487 C471 1.429 . S
C487 C483 1.429 . S
C487 C488 1.523 . S
C488 C472 1.368 . S
C488 C484 1.368 . S
C488 C487 1.523 . S
H489 C464 0.950 . S
H490 C466 0.950 . S
H491 C467 0.949 . S
H492 C469 0.950 . S
H493 C471 0.950 . S
C494 C495 1.349 . S
C494 C496 1.327 . S
C494 H519 0.950 . S
C495 C494 1.349 . S
C495 C511 1.349 . S
C496 C494 1.327 . S
C496 C515 1.429 . S
C496 H520 0.950 . S
C497 C514 1.574 . S
C497 C516 1.368 1_554 S
C497 H521 0.949 . S
H498 C502 0.949 . S
C499 C500 1.349 . S
C499 C501 1.327 . S
C499 H522 0.950 . S
C500 C499 1.349 . S
C500 C512 1.349 . S
C501 C499 1.327 . S
C501 C517 1.429 . S
C501 H523 0.950 . S
C502 H498 0.949 . S
C502 C510 1.574 . S
C502 C518 1.368 1_556 S
H503 C511 0.957 . S
H504 C509 0.950 1_554 S
H505 C510 0.949 . S
H506 C512 0.950 . S
H507 C513 0.950 1_556 S
H508 C514 0.949 . S
C509 H504 0.950 1_556 S
C509 C511 1.327 . S
C509 C515 1.429 . S
C510 C502 1.574 . S
C510 H505 0.949 . S
C510 C516 1.368 . S
C511 C495 1.349 . S
C511 H503 0.957 . S
C511 C509 1.327 . S
C512 C500 1.349 . S
C512 H506 0.950 . S
C512 C513 1.327 . S
C513 H507 0.950 1_554 S
C513 C512 1.327 . S
C513 C517 1.429 . S
C514 C497 1.574 . S
C514 H508 0.949 . S
C514 C518 1.368 . S
C515 C496 1.429 . S
C515 C509 1.429 . S
C515 C516 1.523 . S
C516 C497 1.368 1_556 S
C516 C510 1.368 . S
C516 C515 1.523 . S
C517 C501 1.429 . S
C517 C513 1.429 . S
C517 C518 1.523 . S
C518 C502 1.368 1_554 S
C518 C514 1.368 . S
C518 C517 1.523 . S
H519 C494 0.950 . S
H520 C496 0.950 . S
H521 C497 0.949 . S
H522 C499 0.950 . S
H523 C501 0.950 . S
C524 C525 1.349 . S
C524 C526 1.327 . S
C524 H549 0.950 . S
C525 C524 1.349 . S
C525 C541 1.349 . S
C526 C524 1.327 . S
C526 C545 1.429 . S
C526 H550 0.950 . S
C527 C544 1.574 . S
C527 C546 1.368 . S
C527 H551 0.949 . S
H528 C532 0.949 . S
C529 C530 1.349 . S
C529 C531 1.327 . S
C529 H552 0.950 . S
C530 C529 1.349 . S
C530 C542 1.349 . S
C531 C529 1.327 . S
C531 C547 1.429 . S
C531 H553 0.950 . S
C532 H528 0.949 . S
C532 C540 1.574 . S
C532 C548 1.368 . S
H533 C541 0.950 . S
H534 C539 0.950 . S
H535 C540 0.949 . S
H536 C542 0.950 . S
H537 C543 0.950 . S
H538 C544 0.949 . S
C539 H534 0.950 . S
C539 C541 1.327 . S
C539 C545 1.429 . S
C540 C532 1.574 . S
C540 H535 0.949 . S
C540 C546 1.368 . S
C541 C525 1.349 . S
C541 H533 0.950 . S
C541 C539 1.327 . S
C542 C530 1.349 . S
C542 H536 0.950 . S
C542 C543 1.327 . S
C543 H537 0.950 . S
C543 C542 1.327 . S
C543 C547 1.429 . S
C544 C527 1.574 . S
C544 H538 0.949 . S
C544 C548 1.368 . S
C545 C526 1.429 . S
C545 C539 1.429 . S
C545 C546 1.523 . S
C546 C527 1.368 . S
C546 C540 1.368 . S
C546 C545 1.523 . S
C547 C531 1.429 . S
C547 C543 1.429 . S
C547 C548 1.523 . S
C548 C532 1.368 . S
C548 C544 1.368 . S
C548 C547 1.523 . S
H549 C524 0.950 . S
H550 C526 0.950 . S
H551 C527 0.949 . S
H552 C529 0.950 . S
H553 C531 0.950 . S
C554 C555 1.349 . S
C554 C556 1.327 . S
C554 H579 0.950 . S
C555 C554 1.349 . S
C555 C571 1.349 . S
C556 C554 1.327 . S
C556 C575 1.429 . S
C556 H580 0.950 . S
C557 C574 1.574 . S
C557 C576 1.368 . S
C557 H581 0.949 . S
H558 C562 0.949 . S
C559 C560 1.349 . S
C559 C561 1.327 . S
C559 H582 0.950 . S
C560 C559 1.349 . S
C560 C572 1.349 . S
C561 C559 1.327 . S
C561 C577 1.429 . S
C561 H583 0.950 . S
C562 H558 0.949 . S
C562 C570 1.574 . S
C562 C578 1.368 . S
H563 C571 0.950 . S
H564 C569 0.950 . S
H565 C570 0.949 . S
H566 C572 0.950 . S
H567 C573 0.950 . S
H568 C574 0.949 . S
C569 H564 0.950 . S
C569 C571 1.327 . S
C569 C575 1.429 . S
C570 C562 1.574 . S
C570 H565 0.949 . S
C570 C576 1.368 . S
C571 C555 1.349 . S
C571 H563 0.950 . S
C571 C569 1.327 . S
C572 C560 1.349 . S
C572 H566 0.950 . S
C572 C573 1.327 . S
C573 H567 0.950 . S
C573 C572 1.327 . S
C573 C577 1.429 . S
C574 C557 1.574 . S
C574 H568 0.949 . S
C574 C578 1.368 . S
C575 C556 1.429 . S
C575 C569 1.429 . S
C575 C576 1.523 . S
C576 C557 1.368 . S
C576 C570 1.368 . S
C576 C575 1.523 . S
C577 C561 1.429 . S
C577 C573 1.429 . S
C577 C578 1.523 . S
C578 C562 1.368 . S
C578 C574 1.368 . S
C578 C577 1.523 . S
H579 C554 0.950 . S
H580 C556 0.950 . S
H581 C557 0.949 . S
H582 C559 0.950 . S
H583 C561 0.950 . S
C584 C585 1.349 . S
C584 C586 1.327 . S
C584 H609 0.950 . S
C585 C584 1.349 . S
C585 C601 1.349 . S
C586 C584 1.327 . S
C586 C605 1.429 . S
C586 H610 0.950 . S
C587 C604 1.574 . S
C587 C606 1.368 . S
C587 H611 0.949 . S
H588 C592 0.949 . S
C589 C590 1.349 . S
C589 C591 1.327 . S
C589 H612 0.950 1_665 S
C590 C589 1.349 . S
C590 C602 1.349 . S
C591 C589 1.327 . S
C591 C607 1.429 . S
C591 H613 0.950 . S
C592 H588 0.949 . S
C592 C600 1.574 . S
C592 C608 1.368 . S
H593 C601 0.950 . S
H594 C599 0.950 . S
H595 C600 0.949 . S
H596 C602 0.950 . S
H597 C603 0.950 . S
H598 C604 0.949 . S
C599 H594 0.950 . S
C599 C601 1.327 . S
C599 C605 1.429 . S
C600 C592 1.574 . S
C600 H595 0.949 . S
C600 C606 1.368 . S
C601 C585 1.349 . S
C601 H593 0.950 . S
C601 C599 1.327 . S
C602 C590 1.349 . S
C602 H596 0.950 . S
C602 C603 1.327 . S
C603 H597 0.950 . S
C603 C602 1.327 . S
C603 C607 1.429 . S
C604 C587 1.574 . S
C604 H598 0.949 . S
C604 C608 1.368 . S
C605 C586 1.429 . S
C605 C599 1.429 . S
C605 C606 1.523 . S
C606 C587 1.368 . S
C606 C600 1.368 . S
C606 C605 1.523 . S
C607 C591 1.429 . S
C607 C603 1.429 . S
C607 C608 1.523 . S
C608 C592 1.368 . S
C608 C604 1.368 . S
C608 C607 1.523 . S
H609 C584 0.950 . S
H610 C586 0.950 . S
H611 C587 0.949 . S
H612 C589 0.950 1_445 S
H613 C591 0.950 . S
C614 C615 1.349 . S
C614 C616 1.327 . S
C614 H639 0.950 . S
C615 C614 1.349 . S
C615 C631 1.349 . S
C616 C614 1.327 . S
C616 C635 1.429 . S
C616 H640 0.950 . S
C617 C634 1.574 . S
C617 C636 1.368 . S
C617 H641 0.949 . S
H618 C622 0.949 . S
C619 C620 1.349 . S
C619 C621 1.327 . S
C619 H642 0.950 . S
C620 C619 1.349 . S
C620 C632 1.349 . S
C621 C619 1.327 . S
C621 C637 1.429 . S
C621 H643 0.950 . S
C622 H618 0.949 . S
C622 C630 1.574 . S
C622 C638 1.368 . S
H623 C631 0.950 . S
H624 C629 0.950 . S
H625 C630 0.949 . S
H626 C632 0.950 . S
H627 C633 0.950 . S
H628 C634 0.949 . S
C629 H624 0.950 . S
C629 C631 1.327 . S
C629 C635 1.429 . S
C630 C622 1.574 . S
C630 H625 0.949 . S
C630 C636 1.368 . S
C631 C615 1.349 . S
C631 H623 0.950 . S
C631 C629 1.327 . S
C632 C620 1.349 . S
C632 H626 0.950 . S
C632 C633 1.327 . S
C633 H627 0.950 . S
C633 C632 1.327 . S
C633 C637 1.429 . S
C634 C617 1.574 . S
C634 H628 0.949 . S
C634 C638 1.368 . S
C635 C616 1.429 . S
C635 C629 1.429 . S
C635 C636 1.523 . S
C636 C617 1.368 . S
C636 C630 1.368 . S
C636 C635 1.523 . S
C637 C621 1.429 . S
C637 C633 1.429 . S
C637 C638 1.523 . S
C638 C622 1.368 . S
C638 C634 1.368 . S
C638 C637 1.523 . S
H639 C614 0.950 . S
H640 C616 0.950 . S
H641 C617 0.949 . S
H642 C619 0.950 . S
H643 C621 0.950 . S
C644 C645 1.349 . S
C644 C646 1.327 . S
C644 H669 0.950 . S
C645 C644 1.349 . S
C645 C661 1.349 . S
C646 C644 1.327 . S
C646 C665 1.429 . S
C646 H670 0.950 . S
C647 C664 1.574 . S
C647 C666 1.368 . S
C647 H671 0.949 . S
H648 C652 0.949 . S
C649 C650 1.349 . S
C649 C651 1.327 . S
C649 H672 0.950 . S
C650 C649 1.349 . S
C650 C662 1.349 . S
C651 C649 1.327 . S
C651 C667 1.429 . S
C651 H673 0.950 . S
C652 H648 0.949 . S
C652 C660 1.574 . S
C652 C668 1.368 . S
H653 C661 0.950 . S
H654 C659 0.950 . S
H655 C660 0.949 . S
H656 C662 0.950 . S
H657 C663 0.950 . S
H658 C664 0.949 . S
C659 H654 0.950 . S
C659 C661 1.327 . S
C659 C665 1.429 . S
C660 C652 1.574 . S
C660 H655 0.949 . S
C660 C666 1.368 . S
C661 C645 1.349 . S
C661 H653 0.950 . S
C661 C659 1.327 . S
C662 C650 1.349 . S
C662 H656 0.950 . S
C662 C663 1.327 . S
C663 H657 0.950 . S
C663 C662 1.327 . S
C663 C667 1.429 . S
C664 C647 1.574 . S
C664 H658 0.949 . S
C664 C668 1.368 . S
C665 C646 1.429 . S
C665 C659 1.429 . S
C665 C666 1.523 . S
C666 C647 1.368 . S
C666 C660 1.368 . S
C666 C665 1.523 . S
C667 C651 1.429 . S
C667 C663 1.429 . S
C667 C668 1.523 . S
C668 C652 1.368 . S
C668 C664 1.368 . S
C668 C667 1.523 . S
H669 C644 0.950 . S
H670 C646 0.950 . S
H671 C647 0.949 . S
H672 C649 0.950 . S
H673 C651 0.950 . S
C674 C675 1.349 . S
C674 C676 1.327 . S
C674 H699 0.950 . S
C675 C674 1.349 . S
C675 C691 1.349 . S
C676 C674 1.327 . S
C676 C695 1.429 . S
C676 H700 0.950 . S
C677 C694 1.574 . S
C677 C696 1.368 . S
C677 H701 0.949 . S
H678 C682 0.949 . S
C679 C680 1.349 . S
C679 C681 1.327 . S
C679 H702 0.950 . S
C680 C679 1.349 . S
C680 C692 1.349 . S
C681 C679 1.327 . S
C681 C697 1.429 . S
C681 H703 0.950 . S
C682 H678 0.949 . S
C682 C690 1.574 . S
C682 C698 1.368 . S
H683 C691 0.950 . S
H684 C689 0.950 . S
H685 C690 0.949 . S
H686 C692 0.950 . S
H687 C693 0.950 . S
H688 C694 0.949 . S
C689 H684 0.950 . S
C689 C691 1.327 . S
C689 C695 1.429 . S
C690 C682 1.574 . S
C690 H685 0.949 . S
C690 C696 1.368 . S
C691 C675 1.349 . S
C691 H683 0.950 . S
C691 C689 1.327 . S
C692 C680 1.349 . S
C692 H686 0.950 . S
C692 C693 1.327 . S
C693 H687 0.950 . S
C693 C692 1.327 . S
C693 C697 1.429 . S
C694 C677 1.574 . S
C694 H688 0.949 . S
C694 C698 1.368 . S
C695 C676 1.429 . S
C695 C689 1.429 . S
C695 C696 1.523 . S
C696 C677 1.368 . S
C696 C690 1.368 . S
C696 C695 1.523 . S
C697 C681 1.429 . S
C697 C693 1.429 . S
C697 C698 1.523 . S
C698 C682 1.368 . S
C698 C694 1.368 . S
C698 C697 1.523 . S
H699 C674 0.950 . S
H700 C676 0.950 . S
H701 C677 0.949 . S
H702 C679 0.950 . S
H703 C681 0.950 . S
C704 C705 1.349 . S
C704 C706 1.327 . S
C704 H729 0.950 . S
C705 C704 1.349 . S
C705 C721 1.349 . S
C706 C704 1.327 . S
C706 C725 1.429 . S
C706 H730 0.950 . S
C707 C724 1.574 . S
C707 C726 1.368 . S
C707 H731 0.949 . S
H708 C712 0.949 1_554 S
C709 C710 1.349 1_545 S
C709 C711 1.327 . S
C709 H732 0.950 . S
C710 C709 1.349 1_565 S
C710 C722 1.349 . S
C711 C709 1.327 . S
C711 C727 1.429 1_545 S
C711 H733 0.950 . S
C712 H708 0.949 1_556 S
C712 C720 1.574 . S
C712 C728 1.368 1_556 S
H713 C721 0.950 . S
H714 C719 0.950 . S
H715 C720 0.949 . S
H716 C722 0.950 . S
H717 C723 0.950 . S
H718 C724 0.949 1_544 S
C719 H714 0.950 . S
C719 C721 1.327 . S
C719 C725 1.429 . S
C720 C712 1.574 . S
C720 H715 0.949 . S
C720 C726 1.368 . S
C721 C705 1.349 . S
C721 H713 0.950 . S
C721 C719 1.327 . S
C722 C710 1.349 . S
C722 H716 0.950 . S
C722 C723 1.327 . S
C723 H717 0.950 . S
C723 C722 1.327 . S
C723 C727 1.429 . S
C724 C707 1.574 . S
C724 H718 0.949 1_566 S
C724 C728 1.368 1_556 S
C725 C706 1.429 . S
C725 C719 1.429 . S
C725 C726 1.523 . S
C726 C707 1.368 . S
C726 C720 1.368 . S
C726 C725 1.523 . S
C727 C711 1.429 1_565 S
C727 C723 1.429 . S
C727 C728 1.523 . S
C728 C712 1.368 1_554 S
C728 C724 1.368 1_554 S
C728 C727 1.523 . S
H729 C704 0.950 . S
H730 C706 0.950 . S
H731 C707 0.949 . S
H732 C709 0.950 . S
H733 C711 0.950 . S
C734 C735 1.349 . S
C734 C736 1.327 . S
C734 H759 0.950 . S
C735 C734 1.349 . S
C735 C751 1.349 . S
C736 C734 1.327 . S
C736 C755 1.429 . S
C736 H760 0.950 . S
C737 C754 1.574 . S
C737 C756 1.368 . S
C737 H761 0.949 . S
H738 C742 0.949 . S
C739 C740 1.349 . S
C739 C741 1.327 . S
C739 H762 0.950 . S
C740 C739 1.349 . S
C740 C752 1.349 . S
C741 C739 1.327 . S
C741 C757 1.429 . S
C741 H763 0.950 . S
C742 H738 0.949 . S
C742 C750 1.574 . S
C742 C758 1.368 . S
H743 C751 0.950 . S
H744 C749 0.950 . S
H745 C750 0.949 . S
H746 C752 0.950 . S
H747 C753 0.950 . S
H748 C754 0.949 . S
C749 H744 0.950 . S
C749 C751 1.327 . S
C749 C755 1.429 . S
C750 C742 1.574 . S
C750 H745 0.949 . S
C750 C756 1.368 . S
C751 C735 1.349 . S
C751 H743 0.950 . S
C751 C749 1.327 . S
C752 C740 1.349 . S
C752 H746 0.950 . S
C752 C753 1.327 . S
C753 H747 0.950 . S
C753 C752 1.327 . S
C753 C757 1.429 . S
C754 C737 1.574 . S
C754 H748 0.949 . S
C754 C758 1.368 . S
C755 C736 1.429 . S
C755 C749 1.429 . S
C755 C756 1.523 . S
C756 C737 1.368 . S
C756 C750 1.368 . S
C756 C755 1.523 . S
C757 C741 1.429 . S
C757 C753 1.429 . S
C757 C758 1.523 . S
C758 C742 1.368 . S
C758 C754 1.368 . S
C758 C757 1.523 . S
H759 C734 0.950 . S
H760 C736 0.950 . S
H761 C737 0.949 . S
H762 C739 0.950 . S
H763 C741 0.950 . S
C764 C765 1.349 . S
C764 C766 1.327 . S
C764 H789 0.950 . S
C765 C764 1.349 . S
C765 C781 1.349 . S
C766 C764 1.327 . S
C766 C785 1.429 . S
C766 H790 0.950 . S
C767 C784 1.574 . S
C767 C786 1.368 . S
C767 H791 0.949 . S
H768 C772 0.949 . S
C769 C770 1.349 . S
C769 C771 1.327 . S
C769 H792 0.950 . S
C770 C769 1.349 . S
C770 C782 1.349 . S
C771 C769 1.327 . S
C771 C787 1.429 . S
C771 H793 0.950 . S
C772 H768 0.949 . S
C772 C780 1.574 . S
C772 C788 1.368 . S
H773 C781 0.950 . S
H774 C779 0.950 . S
H775 C780 0.949 . S
H776 C782 0.950 . S
H777 C783 0.950 . S
H778 C784 0.949 . S
C779 H774 0.950 . S
C779 C781 1.327 . S
C779 C785 1.429 . S
C780 C772 1.574 . S
C780 H775 0.949 . S
C780 C786 1.368 . S
C781 C765 1.349 . S
C781 H773 0.950 . S
C781 C779 1.327 . S
C782 C770 1.349 . S
C782 H776 0.950 . S
C782 C783 1.327 . S
C783 H777 0.950 . S
C783 C782 1.327 . S
C783 C787 1.429 . S
C784 C767 1.574 . S
C784 H778 0.949 . S
C784 C788 1.368 . S
C785 C766 1.429 . S
C785 C779 1.429 . S
C785 C786 1.523 . S
C786 C767 1.368 . S
C786 C780 1.368 . S
C786 C785 1.523 . S
C787 C771 1.429 . S
C787 C783 1.429 . S
C787 C788 1.523 . S
C788 C772 1.368 . S
C788 C784 1.368 . S
C788 C787 1.523 . S
H789 C764 0.950 . S
H790 C766 0.950 . S
H791 C767 0.949 . S
H792 C769 0.950 . S
H793 C771 0.950 . S
C794 C795 1.349 . S
C794 C796 1.327 . S
C794 H819 0.950 . S
C795 C794 1.349 . S
C795 C811 1.349 . S
C796 C794 1.327 . S
C796 C815 1.429 . S
C796 H820 0.950 . S
C797 C814 1.574 . S
C797 C816 1.368 . S
C797 H821 0.949 . S
H798 C802 0.949 . S
C799 C800 1.349 . S
C799 C801 1.327 . S
C799 H822 0.950 . S
C800 C799 1.349 . S
C800 C812 1.349 . S
C801 C799 1.327 . S
C801 C817 1.429 . S
C801 H823 0.950 . S
C802 H798 0.949 . S
C802 C810 1.574 . S
C802 C818 1.368 . S
H803 C811 0.950 . S
H804 C809 0.950 . S
H805 C810 0.949 . S
H806 C812 0.950 . S
H807 C813 0.950 . S
H808 C814 0.949 . S
C809 H804 0.950 . S
C809 C811 1.327 . S
C809 C815 1.429 . S
C810 C802 1.574 . S
C810 H805 0.949 . S
C810 C816 1.368 . S
C811 C795 1.349 . S
C811 H803 0.950 . S
C811 C809 1.327 . S
C812 C800 1.349 . S
C812 H806 0.950 . S
C812 C813 1.327 . S
C813 H807 0.950 . S
C813 C812 1.327 . S
C813 C817 1.429 . S
C814 C797 1.574 . S
C814 H808 0.949 . S
C814 C818 1.368 . S
C815 C796 1.429 . S
C815 C809 1.429 . S
C815 C816 1.523 . S
C816 C797 1.368 . S
C816 C810 1.368 . S
C816 C815 1.523 . S
C817 C801 1.429 . S
C817 C813 1.429 . S
C817 C818 1.523 . S
C818 C802 1.368 . S
C818 C814 1.368 . S
C818 C817 1.523 . S
H819 C794 0.950 . S
H820 C796 0.950 . S
H821 C797 0.949 . S
H822 C799 0.950 . S
H823 C801 0.950 . S
C824 C825 1.349 . S
C824 C826 1.327 . S
C824 H849 0.950 . S
C825 C824 1.349 . S
C825 C841 1.349 . S
C826 C824 1.327 . S
C826 C845 1.429 . S
C826 H850 0.950 . S
C827 C844 1.574 . S
C827 C846 1.368 . S
C827 H851 0.949 1_556 S
H828 C832 0.949 1_455 S
C829 C830 1.349 1_654 S
C829 C831 1.327 . S
C829 H852 0.950 . S
C830 C829 1.349 1_456 S
C830 C842 1.349 . S
C831 C829 1.327 . S
C831 C847 1.429 1_554 S
C831 H853 0.950 . S
C832 H828 0.949 1_655 S
C832 C840 1.574 . S
C832 C848 1.368 . S
H833 C841 0.950 . S
H834 C839 0.950 . S
H835 C840 0.949 . S
H836 C842 0.950 . S
H837 C843 0.950 . S
H838 C844 0.949 1_554 S
C839 H834 0.950 . S
C839 C841 1.327 . S
C839 C845 1.429 . S
C840 C832 1.574 . S
C840 H835 0.949 . S
C840 C846 1.368 . S
C841 C825 1.349 . S
C841 H833 0.950 . S
C841 C839 1.327 . S
C842 C830 1.349 . S
C842 H836 0.950 . S
C842 C843 1.327 . S
C843 H837 0.950 . S
C843 C842 1.327 . S
C843 C847 1.429 1_455 S
C844 C827 1.574 . S
C844 H838 0.949 1_556 S
C844 C848 1.368 . S
C845 C826 1.429 . S
C845 C839 1.429 . S
C845 C846 1.523 . S
C846 C827 1.368 . S
C846 C840 1.368 . S
C846 C845 1.523 . S
C847 C831 1.429 1_556 S
C847 C843 1.429 1_655 S
C847 C848 1.523 . S
C848 C832 1.368 . S
C848 C844 1.368 . S
C848 C847 1.523 . S
H849 C824 0.950 . S
H850 C826 0.950 . S
H851 C827 0.949 1_554 S
H852 C829 0.950 . S
H853 C831 0.950 . S
C854 C855 1.349 . S
C854 C856 1.327 . S
C854 H879 0.950 . S
C855 C854 1.349 . S
C855 C871 1.349 . S
C856 C854 1.327 . S
C856 C875 1.429 . S
C856 H880 0.950 . S
C857 C874 1.574 . S
C857 C876 1.368 . S
C857 H881 0.949 . S
H858 C862 0.949 . S
C859 C860 1.349 . S
C859 C861 1.327 . S
C859 H882 0.950 . S
C860 C859 1.349 . S
C860 C872 1.349 . S
C861 C859 1.327 . S
C861 C877 1.429 . S
C861 H883 0.950 . S
C862 H858 0.949 . S
C862 C870 1.574 . S
C862 C878 1.368 . S
H863 C871 0.950 . S
H864 C869 0.950 . S
H865 C870 0.949 . S
H866 C872 0.950 . S
H867 C873 0.950 . S
H868 C874 0.949 . S
C869 H864 0.950 . S
C869 C871 1.327 . S
C869 C875 1.429 . S
C870 C862 1.574 . S
C870 H865 0.949 . S
C870 C876 1.368 . S
C871 C855 1.349 . S
C871 H863 0.950 . S
C871 C869 1.327 . S
C872 C860 1.349 . S
C872 H866 0.950 . S
C872 C873 1.327 . S
C873 H867 0.950 . S
C873 C872 1.327 . S
C873 C877 1.429 . S
C874 C857 1.574 . S
C874 H868 0.949 . S
C874 C878 1.368 . S
C875 C856 1.429 . S
C875 C869 1.429 . S
C875 C876 1.523 . S
C876 C857 1.368 . S
C876 C870 1.368 . S
C876 C875 1.523 . S
C877 C861 1.429 . S
C877 C873 1.429 . S
C877 C878 1.523 . S
C878 C862 1.368 . S
C878 C874 1.368 . S
C878 C877 1.523 . S
H879 C854 0.950 . S
H880 C856 0.950 . S
H881 C857 0.949 . S
H882 C859 0.950 . S
H883 C861 0.950 . S
C884 C885 1.349 . S
C884 C886 1.327 . S
C884 H909 0.950 . S
C885 C884 1.349 . S
C885 C901 1.349 . S
C886 C884 1.327 . S
C886 C905 1.429 . S
C886 H910 0.950 . S
C887 C904 1.574 . S
C887 C906 1.368 . S
C887 H911 0.949 . S
H888 C892 0.949 . S
C889 C890 1.349 . S
C889 C891 1.327 . S
C889 H912 0.950 . S
C890 C889 1.349 . S
C890 C902 1.349 . S
C891 C889 1.327 . S
C891 C907 1.429 . S
C891 H913 0.950 . S
C892 H888 0.949 . S
C892 C900 1.574 . S
C892 C908 1.368 . S
H893 C901 0.950 . S
H894 C899 0.950 . S
H895 C900 0.949 . S
H896 C902 0.950 . S
H897 C903 0.950 . S
H898 C904 0.949 . S
C899 H894 0.950 . S
C899 C901 1.327 . S
C899 C905 1.429 . S
C900 C892 1.574 . S
C900 H895 0.949 . S
C900 C906 1.368 . S
C901 C885 1.349 . S
C901 H893 0.950 . S
C901 C899 1.327 . S
C902 C890 1.349 . S
C902 H896 0.950 . S
C902 C903 1.327 . S
C903 H897 0.950 . S
C903 C902 1.327 . S
C903 C907 1.429 . S
C904 C887 1.574 . S
C904 H898 0.949 . S
C904 C908 1.368 . S
C905 C886 1.429 . S
C905 C899 1.429 . S
C905 C906 1.523 . S
C906 C887 1.368 . S
C906 C900 1.368 . S
C906 C905 1.523 . S
C907 C891 1.429 . S
C907 C903 1.429 . S
C907 C908 1.523 . S
C908 C892 1.368 . S
C908 C904 1.368 . S
C908 C907 1.523 . S
H909 C884 0.950 . S
H910 C886 0.950 . S
H911 C887 0.949 . S
H912 C889 0.950 . S
H913 C891 0.950 . S
C914 C915 1.349 . S
C914 C916 1.327 . S
C914 H939 0.950 . S
C915 C914 1.349 . S
C915 C931 1.349 . S
C916 C914 1.327 . S
C916 C935 1.429 . S
C916 H940 0.950 . S
C917 C934 1.574 . S
C917 C936 1.368 . S
C917 H941 0.949 . S
H918 C922 0.949 . S
C919 C920 1.349 . S
C919 C921 1.327 . S
C919 H942 0.950 . S
C920 C919 1.349 . S
C920 C932 1.349 . S
C921 C919 1.327 . S
C921 C937 1.429 . S
C921 H943 0.950 . S
C922 H918 0.949 . S
C922 C930 1.574 . S
C922 C938 1.368 . S
H923 C931 0.950 . S
H924 C929 0.950 . S
H925 C930 0.949 . S
H926 C932 0.950 . S
H927 C933 0.950 . S
H928 C934 0.949 . S
C929 H924 0.950 . S
C929 C931 1.327 . S
C929 C935 1.429 . S
C930 C922 1.574 . S
C930 H925 0.949 . S
C930 C936 1.368 . S
C931 C915 1.349 . S
C931 H923 0.950 . S
C931 C929 1.327 . S
C932 C920 1.349 . S
C932 H926 0.950 . S
C932 C933 1.327 . S
C933 H927 0.950 . S
C933 C932 1.327 . S
C933 C937 1.429 . S
C934 C917 1.574 . S
C934 H928 0.949 . S
C934 C938 1.368 . S
C935 C916 1.429 . S
C935 C929 1.429 . S
C935 C936 1.523 . S
C936 C917 1.368 . S
C936 C930 1.368 . S
C936 C935 1.523 . S
C937 C921 1.429 . S
C937 C933 1.429 . S
C937 C938 1.523 . S
C938 C922 1.368 . S
C938 C934 1.368 . S
C938 C937 1.523 . S
H939 C914 0.950 . S
H940 C916 0.950 . S
H941 C917 0.949 . S
H942 C919 0.950 . S
H943 C921 0.950 . S
C225 C5 2.545 . S
C230 C88 2.709 . S
C255 C18 2.273 . S
C260 C130 2.405 1_566 S
C290 C160 0.746 . S
C285 C30 0.746 . S
C315 C41 0.733 . S
C320 C194 0.733 . S
C350 C151 2.169 . S
C345 C7 2.108 . S
C380 C105 2.174 . S
C375 C16 1.844 . S
C410 C198 1.348 1_556 S
C405 C29 1.249 . S
C440 C164 0.811 . S
C435 C38 0.800 . S
C465 C8 2.313 . S
C470 C219 2.309 . S
C500 C126 1.254 . S
C495 C27 1.042 . S
C525 C40 1.038 . S
C530 C101 1.056 . S
C555 C19 1.707 . S
C560 C185 1.745 . S
C590 C117 2.429 . S
C585 C51 2.374 . S
C615 C62 2.364 . S
C620 C139 2.486 . S
C645 C74 0.831 . S
C650 C169 0.839 . S
C675 C84 0.853 . S
C680 C203 0.876 . S
C705 C49 2.147 . S
C710 C122 2.293 1_565 S
C740 C96 1.842 . S
C735 C63 1.800 . S
C770 C207 1.275 . S
C765 C71 1.040 . S
C800 C173 0.932 . S
C795 C85 0.913 . S
C825 C52 2.283 . S
C830 C190 2.282 1_556 S
C860 C135 1.341 . S
C855 C73 1.239 . S
C890 C92 0.914 . S
C885 C82 0.807 . S
C915 C60 1.975 . S
C920 C156 2.323 . S
