# Generated by pormake.
# Topology pts, (4,4)-cn, num edge types: 1
# Building blocks:
#     Node 0, Type 0, BuildingBlock: KOZSID_clean_sbu_0, # of connection points: 4
#     Node 1, Type 0, BuildingBlock: KOZSID_clean_sbu_0, # of connection points: 4
#     Node 2, Type 1, BuildingBlock: AZAVOO_clean_sbu_0, # of connection points: 4
#     Node 3, Type 1, BuildingBlock: AZAVOO_clean_sbu_0, # of connection points: 4
#     Edge 4, Type (0, 1), BuildingBlock: XIVTED_clean_linker_0, # of connection points: 2
#     Edge 5, Type (0, 1), BuildingBlock: XIVTED_clean_linker_0, # of connection points: 2
#     Edge 6, Type (0, 1), BuildingBlock: XIVTED_clean_linker_0, # of connection points: 2
#     Edge 7, Type (0, 1), BuildingBlock: XIVTED_clean_linker_0, # of connection points: 2
#     Edge 8, Type (0, 1), BuildingBlock: XIVTED_clean_linker_0, # of connection points: 2
#     Edge 9, Type (0, 1), BuildingBlock: XIVTED_clean_linker_0, # of connection points: 2
#     Edge 10, Type (0, 1), BuildingBlock: XIVTED_clean_linker_0, # of connection points: 2
#     Edge 11, Type (0, 1), BuildingBlock: XIVTED_clean_linker_0, # of connection points: 2
# Relax obj value: 0.000
# Max RMSD: 0.030
# Mean RMSD: 0.015
data_MOF--net-pts--node1-KOZSID_clean_sbu_0--node2-AZAVOO_clean_sbu_0--edge1-XIVTED_clean_linker_0
_symmetry_space_group_name_H-M    P1
_symmetry_Int_Tables_number       1
_symmetry_cell_setting            triclinic
loop_
_symmetry_equiv_pos_as_xyz
'x, y, z'
_cell_length_a     26.809747
_cell_length_b     27.482846
_cell_length_c     40.120503
_cell_angle_alpha  86.006474
_cell_angle_beta   100.41582
_cell_angle_gamma 90.440024
loop_
_atom_site_label
_atom_site_type_symbol
_atom_site_fract_x
_atom_site_fract_y
_atom_site_fract_z
_atom_type_partial_charge
C0 C 0.65524 0.10746 0.06381 0.0
C1 C 0.67778 0.15113 0.07354 0.0
C2 C 0.65108 0.18736 0.05311 0.0
C3 C 0.61386 0.16388 0.03221 0.0
N4 N 0.61469 0.1148 0.03834 0.0
Co5 Co 0.56908 0.0663 0.01282 0.0
N6 N 0.53156 0.1194 0.98144 0.0
C7 C 0.54005 0.16797 0.98204 0.0
C8 C 0.50666 0.19549 0.95836 0.0
C9 C 0.47443 0.16265 0.94192 0.0
C10 C 0.4902 0.1168 0.95653 0.0
N11 N 0.52414 0.01767 0.98698 0.0
C12 C 0.48405 0.02477 0.96123 0.0
C13 C 0.46301 0.98089 0.95056 0.0
C14 C 0.49016 0.94476 0.97072 0.0
C15 C 0.52617 0.9685 0.99233 0.0
N16 N 0.60587 0.01319 0.0445 0.0
C17 C 0.59639 0.96474 0.04443 0.0
C18 C 0.62869 0.93711 0.06865 0.0
C19 C 0.66115 0.9697 0.08505 0.0
C20 C 0.64656 0.01562 0.06985 0.0
N21 N 0.51943 0.07178 0.04365 0.0
C22 C 0.44419 0.08088 0.08374 0.0
C23 C 0.45743 0.03523 0.07457 0.0
C24 C 0.49505 0.03152 0.05484 0.0
C25 C 0.46994 0.12169 0.07304 0.0
C26 C 0.50704 0.11637 0.05324 0.0
N27 N 0.61876 0.06108 0.98195 0.0
C28 C 0.67242 0.01247 0.95465 0.0
C29 C 0.69323 0.0544 0.94095 0.0
C30 C 0.67563 0.09964 0.94776 0.0
C31 C 0.6386 0.10211 0.96797 0.0
C32 C 0.63557 0.01661 0.97491 0.0
H33 H 0.62684 0.13772 0.97199 0.0
H34 H 0.62159 0.98334 0.98482 0.0
H35 H 0.50347 0.99574 0.04875 0.0
H36 H 0.52465 0.14903 0.04567 0.0
C37 C 0.57855 0.18671 0.00596 0.0
C38 C 0.67419 0.06 0.07921 0.0
C39 C 0.46346 0.07211 0.94686 0.0
C40 C 0.55968 0.9459 0.01952 0.0
H41 H 0.71054 0.15618 0.09312 0.0
H42 H 0.65843 0.22615 0.05311 0.0
H43 H 0.50524 0.23482 0.95409 0.0
H44 H 0.44233 0.17148 0.92188 0.0
H45 H 0.43069 0.97556 0.93071 0.0
H46 H 0.4835 0.90589 0.97034 0.0
H47 H 0.62963 0.89779 0.07307 0.0
H48 H 0.69283 0.96043 0.10528 0.0
H49 H 0.43917 0.00239 0.08279 0.0
H50 H 0.46084 0.15791 0.07928 0.0
H51 H 0.685 0.97652 0.95022 0.0
H52 H 0.68982 0.13318 0.93717 0.0
C53 C 0.09147 0.47313 0.56512 0.0
C54 C 0.13571 0.45448 0.58532 0.0
C55 C 0.17505 0.47763 0.57379 0.0
C56 C 0.15271 0.50913 0.54747 0.0
N57 N 0.10138 0.50782 0.5416 0.0
Co58 Co 0.05363 0.54867 0.50659 0.0
N59 N 0.11158 0.58247 0.48941 0.0
C60 C 0.16171 0.57481 0.50104 0.0
C61 C 0.19245 0.60361 0.48425 0.0
C62 C 0.16012 0.63151 0.46049 0.0
C63 C 0.11129 0.61791 0.46415 0.0
N64 N 0.0058 0.58953 0.47152 0.0
C65 C 0.01567 0.62431 0.44801 0.0
C66 C 0.97143 0.6435 0.42816 0.0
C67 C 0.9321 0.62033 0.43973 0.0
C68 C 0.95446 0.58837 0.46577 0.0
N69 N 0.99562 0.51488 0.52383 0.0
C70 C 0.94549 0.52285 0.51241 0.0
C71 C 0.91478 0.49372 0.52902 0.0
C72 C 0.94712 0.46523 0.5524 0.0
C73 C 0.99591 0.47883 0.54873 0.0
N74 N 0.05332 0.59908 0.5396 0.0
C75 C 0.05264 0.67145 0.5856 0.0
C76 C 0.00791 0.65784 0.56497 0.0
C77 C 0.00901 0.62152 0.54257 0.0
C78 C 0.09764 0.64801 0.58334 0.0
C79 C 0.09721 0.61252 0.56004 0.0
N80 N 0.05401 0.49836 0.47354 0.0
C81 C 0.0093 0.45054 0.42939 0.0
C82 C 0.05439 0.4283 0.42551 0.0
C83 C 0.0994 0.44203 0.44602 0.0
C84 C 0.09836 0.47691 0.46959 0.0
C85 C 0.00991 0.48473 0.45352 0.0
H86 H 0.13388 0.48567 0.48448 0.0
H87 H 0.97416 0.49951 0.45551 0.0
H88 H 0.97359 0.61259 0.52776 0.0
H89 H 0.13297 0.59702 0.55879 0.0
C90 C 0.17883 0.5406 0.52795 0.0
C91 C 0.0412 0.45521 0.56855 0.0
C92 C 0.066 0.64086 0.44376 0.0
C93 C 0.92835 0.55704 0.48545 0.0
H94 H 0.13914 0.42665 0.60609 0.0
H95 H 0.21515 0.47211 0.58339 0.0
H96 H 0.23349 0.60445 0.48889 0.0
H97 H 0.17128 0.65904 0.44269 0.0
H98 H 0.968 0.67149 0.4075 0.0
H99 H 0.89199 0.62617 0.43035 0.0
H100 H 0.87374 0.49287 0.52438 0.0
H101 H 0.93601 0.43724 0.5699 0.0
H102 H 0.97217 0.67527 0.56609 0.0
H103 H 0.13325 0.65814 0.59866 0.0
H104 H 0.9734 0.44174 0.41388 0.0
H105 H 0.13527 0.42525 0.44452 0.0
Mg106 Mg 0.11647 0.03507 0.27752 0.0
O107 O 0.03462 0.02847 0.2476 0.0
O108 O 0.98479 0.01255 0.28611 0.0
Mg109 Mg 0.03195 0.01125 0.33923 0.0
C110 C 0.99095 0.02 0.25536 0.0
C111 C 0.18666 0.08787 0.23514 0.0
O112 O 0.20393 0.10098 0.26597 0.0
O113 O 0.09728 0.11178 0.29055 0.0
O114 O 0.04666 0.09214 0.32812 0.0
O115 O 0.12819 0.95399 0.27976 0.0
O116 O 0.09831 0.9928 0.31831 0.0
C117 C 0.0689 0.12371 0.3111 0.0
C118 C 0.10992 0.95222 0.30755 0.0
O119 O 0.14646 0.06256 0.23011 0.0
Mg120 Mg 0.02628 0.03941 0.74499 0.0
O121 O 0.10759 0.0421 0.77647 0.0
O122 O 0.15949 0.03391 0.73931 0.0
Mg123 Mg 0.11473 0.02457 0.68633 0.0
C124 C 0.15216 0.03997 0.76933 0.0
C125 C 0.94508 0.04112 0.78427 0.0
O126 O 0.93198 0.0149 0.75793 0.0
O127 O 0.03495 0.11799 0.72283 0.0
O128 O 0.0857 0.10203 0.68634 0.0
O129 O 0.02469 0.95702 0.75108 0.0
O130 O 0.05112 -0.00013 0.7093 0.0
C131 C 0.05963 0.13179 0.69936 0.0
C132 C 0.0431 0.95799 0.72339 0.0
O133 O 0.98819 0.06181 0.78812 0.0
H134 H 0.44412 0.13945 0.13629 0.0
H135 H 0.17312 0.04927 0.17281 0.0
H136 H 0.35229 0.03444 0.0779 0.0
H137 H 0.2734 0.14137 0.23739 0.0
H138 H 0.23329 0.05144 0.13358 0.0
H139 H 0.37753 0.14761 0.16978 0.0
C140 C 0.40979 0.11832 0.13036 0.0
C141 C 0.40389 0.08607 0.1043 0.0
C142 C 0.24189 0.07151 0.15619 0.0
C143 C 0.32745 0.09504 0.14274 0.0
C144 C 0.20741 0.07054 0.17851 0.0
C145 C 0.21846 0.0948 0.20863 0.0
C146 C 0.28767 0.09702 0.164 0.0
C147 C 0.26348 0.12177 0.21465 0.0
C148 C 0.37183 0.12287 0.14959 0.0
C149 C 0.35879 0.05919 0.09806 0.0
N150 N 0.29656 0.12186 0.19268 0.0
N151 N 0.32233 0.06424 0.11717 0.0
H152 H 0.06641 0.36686 0.55136 0.0
H153 H 0.99668 0.20724 0.70924 0.0
H154 H 0.00828 0.43706 0.62924 0.0
H155 H 0.11655 0.17282 0.65561 0.0
H156 H 0.98815 0.28819 0.67789 0.0
H157 H 0.06937 0.28941 0.58544 0.0
C158 C 0.05377 0.36556 0.57559 0.0
C159 C 0.03725 0.40784 0.58776 0.0
C160 C 0.01642 0.2627 0.67339 0.0
C161 C 0.04078 0.31997 0.62697 0.0
C162 C 0.02143 0.21673 0.69126 0.0
C163 C 0.05686 0.18285 0.68472 0.0
C164 C 0.0466 0.27407 0.64872 0.0
C165 C 0.08806 0.19715 0.6612 0.0
C166 C 0.05572 0.32165 0.5951 0.0
C167 C 0.02116 0.40478 0.61923 0.0
N168 N 0.08179 0.24129 0.6439 0.0
N169 N 0.02336 0.36132 0.63798 0.0
H170 H 0.77113 0.07052 0.06792 0.0
H171 H 0.89327 0.00014 0.26242 0.0
H172 H 0.68462 0.04079 0.14755 0.0
H173 H 0.98342 0.04549 0.18685 0.0
H174 H 0.81707 0.01053 0.21944 0.0
H175 H 0.84986 0.05911 0.11004 0.0
C176 C 0.769 0.06192 0.0944 0.0
C177 C 0.72187 0.05648 0.10458 0.0
C178 C 0.85345 0.01815 0.21215 0.0
C179 C 0.81087 0.04292 0.15254 0.0
C180 C 0.89719 0.01205 0.23672 0.0
C181 C 0.94506 0.02218 0.22837 0.0
C182 C 0.85722 0.0345 0.17878 0.0
C183 C 0.94741 0.03728 0.1945 0.0
C184 C 0.81369 0.05526 0.11833 0.0
C185 C 0.72051 0.04521 0.13893 0.0
N186 N 0.90405 0.04315 0.17094 0.0
N187 N 0.76439 0.0386 0.16169 0.0
H188 H 0.0166 0.76275 0.56668 0.0
H189 H 0.04361 0.86192 0.74876 0.0
H190 H 0.08905 0.67247 0.65397 0.0
H191 H 0.06059 0.95298 0.65937 0.0
H192 H 0.04886 0.7894 0.71658 0.0
H193 H 0.01827 0.83135 0.60248 0.0
C194 C 0.03256 0.75745 0.5935 0.0
C195 C 0.05271 0.71223 0.60755 0.0
C196 C 0.05204 0.82543 0.7044 0.0
C197 C 0.0546 0.79009 0.64854 0.0
C198 C 0.04902 0.86664 0.72263 0.0
C199 C 0.05169 0.91347 0.7067 0.0
C200 C 0.05647 0.83161 0.67002 0.0
C201 C 0.05859 0.91767 0.67278 0.0
C202 C 0.03382 0.79652 0.61381 0.0
C203 C 0.07338 0.70709 0.64235 0.0
N204 N 0.06008 0.87734 0.65549 0.0
N205 N 0.07349 0.74565 0.6619 0.0
H206 H 0.36683 0.0607 0.9584 0.0
H207 H 0.25085 0.04849 0.76125 0.0
H208 H 0.45306 0.08583 0.87819 0.0
H209 H 0.15698 0.04685 0.83823 0.0
H210 H 0.32505 0.06051 0.8044 0.0
H211 H 0.28915 0.05512 0.91557 0.0
C212 C 0.36901 0.0657 0.93168 0.0
C213 C 0.41581 0.07406 0.9215 0.0
C214 C 0.28828 0.05764 0.81195 0.0
C215 C 0.32811 0.06692 0.87265 0.0
C216 C 0.24571 0.05052 0.78728 0.0
C217 C 0.19734 0.04647 0.79604 0.0
C218 C 0.28292 0.06049 0.84589 0.0
C219 C 0.19344 0.04971 0.83027 0.0
C220 C 0.32494 0.06238 0.90731 0.0
C221 C 0.41737 0.07972 0.88681 0.0
N222 N 0.23573 0.05636 0.854 0.0
N223 N 0.37414 0.07578 0.86358 0.0
H224 H 0.12527 0.40913 0.38597 0.0
H225 H 0.98472 0.16517 0.32513 0.0
H226 H 0.9826 0.358 0.41056 0.0
H227 H 0.1373 0.19895 0.31119 0.0
H228 H 0.97752 0.24535 0.34587 0.0
H229 H 0.12562 0.34064 0.35001 0.0
C230 C 0.09395 0.38374 0.38376 0.0
C231 C 0.05395 0.38933 0.40156 0.0
C232 C 0.0125 0.23565 0.338 0.0
C233 C 0.0538 0.31162 0.36001 0.0
C234 C 0.01655 0.18989 0.32607 0.0
C235 C 0.06196 0.17528 0.31702 0.0
C236 C 0.05445 0.26694 0.34148 0.0
C237 C 0.10174 0.20892 0.31814 0.0
C238 C 0.09405 0.34491 0.36302 0.0
C239 C 0.01395 0.35582 0.39711 0.0
N240 N 0.09742 0.25309 0.33082 0.0
N241 N 0.01509 0.31841 0.37698 0.0
H242 H 0.69609 0.99163 0.8913 0.0
H243 H 0.9545 0.09576 0.8404 0.0
H244 H 0.77903 0.10982 0.94078 0.0
H245 H 0.85604 0.99324 0.78399 0.0
H246 H 0.89463 0.09858 0.88003 0.0
H247 H 0.75901 0.98799 0.85464 0.0
C248 C 0.72779 0.01658 0.89465 0.0
C249 C 0.7322 0.05111 0.91914 0.0
C250 C 0.8863 0.07554 0.85892 0.0
C251 C 0.80437 0.04757 0.87687 0.0
C252 C 0.92043 0.07392 0.83635 0.0
C253 C 0.91025 0.04433 0.80879 0.0
C254 C 0.84203 0.04713 0.85392 0.0
C255 C 0.86553 0.01672 0.80476 0.0
C256 C 0.76358 0.01475 0.87352 0.0
C257 C 0.7738 0.08302 0.92194 0.0
N258 N 0.83328 0.01877 0.82704 0.0
N259 N 0.80831 0.08048 0.90106 0.0
H260 H 0.09343 0.64836 0.3812 0.0
H261 H 0.0819 0.93986 0.3694 0.0
H262 H 0.04966 0.73384 0.45725 0.0
H263 H 0.11948 0.85862 0.28892 0.0
H264 H 0.069 0.86392 0.40107 0.0
H265 H 0.10263 0.72393 0.34616 0.0
C266 C 0.08573 0.68322 0.39032 0.0
C267 C 0.07099 0.68553 0.42191 0.0
C268 C 0.07979 0.86247 0.37641 0.0
C269 C 0.08121 0.77131 0.38252 0.0
C270 C 0.08691 0.90599 0.35815 0.0
C271 C 0.10125 0.90566 0.32624 0.0
C272 C 0.08737 0.81796 0.36291 0.0
C273 C 0.10827 0.86048 0.3134 0.0
C274 C 0.09089 0.72614 0.37046 0.0
C275 C 0.0612 0.73101 0.43294 0.0
N276 N 0.1013 0.81829 0.33184 0.0
N277 N 0.06659 0.77218 0.41328 0.0
loop_
_geom_bond_atom_site_label_1
_geom_bond_atom_site_label_2
_geom_bond_distance
_geom_bond_site_symmetry_2
_ccdc_geom_bond_type
C0 C1 1.443 . S
C0 N4 1.376 . S
C0 C38 1.389 . S
C1 C0 1.443 . S
C1 C2 1.340 . S
C1 H41 0.951 . S
C2 C1 1.340 . S
C2 C3 1.439 . S
C2 H42 0.950 . S
C3 C2 1.439 . S
C3 N4 1.374 . S
C3 C37 1.395 . S
N4 C0 1.376 . S
N4 C3 1.374 . S
N4 Co5 2.008 . S
Co5 N4 2.008 . S
Co5 N6 1.995 1_554 S
Co5 N11 2.008 1_544 S
Co5 N16 1.995 1_545 S
Co5 N21 2.282 . S
Co5 N27 2.282 1_554 S
N6 Co5 1.995 1_556 S
N6 C7 1.376 . S
N6 C10 1.383 . S
C7 N6 1.376 . S
C7 C8 1.446 . S
C7 C37 1.391 1_556 S
C8 C7 1.446 . S
C8 C9 1.339 . S
C8 H43 0.949 . S
C9 C8 1.339 . S
C9 C10 1.439 . S
C9 H44 0.950 . S
C10 N6 1.383 . S
C10 C9 1.439 . S
C10 C39 1.392 . S
N11 Co5 2.008 1_566 S
N11 C12 1.376 1_565 S
N11 C15 1.374 . S
C12 N11 1.376 1_545 S
C12 C13 1.443 1_545 S
C12 C39 1.389 . S
C13 C12 1.443 1_565 S
C13 C14 1.340 . S
C13 H45 0.951 . S
C14 C13 1.340 . S
C14 C15 1.439 . S
C14 H46 0.950 . S
C15 N11 1.374 . S
C15 C14 1.439 . S
C15 C40 1.395 1_556 S
N16 Co5 1.995 1_565 S
N16 C17 1.376 . S
N16 C20 1.380 1_565 S
C17 N16 1.376 . S
C17 C18 1.446 . S
C17 C40 1.391 . S
C18 C17 1.446 . S
C18 C19 1.339 . S
C18 H47 0.949 . S
C19 C18 1.339 . S
C19 C20 1.421 1_565 S
C19 H48 0.950 . S
C20 N16 1.380 1_545 S
C20 C19 1.421 1_545 S
C20 C38 1.410 . S
N21 Co5 2.282 . S
N21 C24 1.332 . S
N21 C26 1.332 . S
C22 C23 1.386 . S
C22 C25 1.388 . S
C23 C22 1.386 . S
C23 C24 1.382 . S
C23 H49 0.950 1_545 S
C24 N21 1.332 . S
C24 C23 1.382 . S
C24 H35 0.952 1_545 S
C25 C22 1.388 . S
C25 C26 1.382 . S
C25 H50 0.950 . S
C26 N21 1.332 . S
C26 C25 1.382 . S
C26 H36 0.948 . S
N27 Co5 2.282 1_556 S
N27 C31 1.332 . S
N27 C32 1.332 . S
C28 C29 1.388 . S
C28 C32 1.382 . S
C28 H51 0.950 1_545 S
C29 C28 1.388 . S
C29 C30 1.386 . S
C30 C29 1.386 . S
C30 C31 1.382 . S
C30 H52 0.950 . S
C31 N27 1.332 . S
C31 C30 1.382 . S
C31 H33 0.952 . S
C32 N27 1.332 . S
C32 C28 1.382 . S
C32 H34 0.948 1_545 S
H33 C31 0.952 . S
H34 C32 0.948 1_565 S
H35 C24 0.952 1_565 S
H36 C26 0.948 . S
C37 C3 1.395 . S
C37 C7 1.391 1_554 S
C38 C0 1.389 . S
C38 C20 1.410 . S
C39 C10 1.392 . S
C39 C12 1.389 . S
C40 C15 1.395 1_554 S
C40 C17 1.391 . S
H41 C1 0.951 . S
H42 C2 0.950 . S
H43 C8 0.949 . S
H44 C9 0.950 . S
H45 C13 0.951 . S
H46 C14 0.950 . S
H47 C18 0.949 . S
H48 C19 0.950 . S
H49 C23 0.950 1_565 S
H50 C25 0.950 . S
H51 C28 0.950 1_565 S
H52 C30 0.950 . S
C53 C54 1.443 . S
C53 N57 1.376 . S
C53 C91 1.389 . S
C54 C53 1.443 . S
C54 C55 1.340 . S
C54 H94 0.951 . S
C55 C54 1.340 . S
C55 C56 1.439 . S
C55 H95 0.950 . S
C56 C55 1.439 . S
C56 N57 1.374 . S
C56 C90 1.395 . S
N57 C53 1.376 . S
N57 C56 1.374 . S
N57 Co58 2.008 . S
Co58 N57 2.008 . S
Co58 N59 1.995 . S
Co58 N64 2.008 . S
Co58 N69 1.995 . S
Co58 N74 2.282 . S
Co58 N80 2.282 . S
N59 Co58 1.995 . S
N59 C60 1.376 . S
N59 C63 1.383 . S
C60 N59 1.376 . S
C60 C61 1.446 . S
C60 C90 1.391 . S
C61 C60 1.446 . S
C61 C62 1.339 . S
C61 H96 0.949 . S
C62 C61 1.339 . S
C62 C63 1.439 . S
C62 H97 0.950 . S
C63 N59 1.383 . S
C63 C62 1.439 . S
C63 C92 1.392 . S
N64 Co58 2.008 . S
N64 C65 1.376 . S
N64 C68 1.374 1_455 S
C65 N64 1.376 . S
C65 C66 1.443 1_455 S
C65 C92 1.389 . S
C66 C65 1.443 1_655 S
C66 C67 1.340 . S
C66 H98 0.951 . S
C67 C66 1.340 . S
C67 C68 1.439 . S
C67 H99 0.950 . S
C68 N64 1.374 1_655 S
C68 C67 1.439 . S
C68 C93 1.395 . S
N69 Co58 1.995 . S
N69 C70 1.376 1_455 S
N69 C73 1.383 . S
C70 N69 1.376 1_655 S
C70 C71 1.446 . S
C70 C93 1.391 . S
C71 C70 1.446 . S
C71 C72 1.339 . S
C71 H100 0.949 . S
C72 C71 1.339 . S
C72 C73 1.439 1_655 S
C72 H101 0.950 . S
C73 N69 1.383 . S
C73 C72 1.439 1_455 S
C73 C91 1.392 . S
N74 Co58 2.282 . S
N74 C77 1.332 . S
N74 C79 1.332 . S
C75 C76 1.386 . S
C75 C78 1.388 . S
C76 C75 1.386 . S
C76 C77 1.382 . S
C76 H102 0.950 1_455 S
C77 N74 1.332 . S
C77 C76 1.382 . S
C77 H88 0.952 1_455 S
C78 C75 1.388 . S
C78 C79 1.382 . S
C78 H103 0.950 . S
C79 N74 1.332 . S
C79 C78 1.382 . S
C79 H89 0.948 . S
N80 Co58 2.282 . S
N80 C84 1.332 . S
N80 C85 1.332 . S
C81 C82 1.388 . S
C81 C85 1.382 . S
C81 H104 0.950 1_455 S
C82 C81 1.388 . S
C82 C83 1.386 . S
C83 C82 1.386 . S
C83 C84 1.382 . S
C83 H105 0.950 . S
C84 N80 1.332 . S
C84 C83 1.382 . S
C84 H86 0.952 . S
C85 N80 1.332 . S
C85 C81 1.382 . S
C85 H87 0.948 1_455 S
H86 C84 0.952 . S
H87 C85 0.948 1_655 S
H88 C77 0.952 1_655 S
H89 C79 0.948 . S
C90 C56 1.395 . S
C90 C60 1.391 . S
C91 C53 1.389 . S
C91 C73 1.392 . S
C92 C63 1.392 . S
C92 C65 1.389 . S
C93 C68 1.395 . S
C93 C70 1.391 . S
H94 C54 0.951 . S
H95 C55 0.950 . S
H96 C61 0.949 . S
H97 C62 0.950 . S
H98 C66 0.951 . S
H99 C67 0.950 . S
H100 C71 0.949 . S
H101 C72 0.950 . S
H102 C76 0.950 1_655 S
H103 C78 0.950 . S
H104 C81 0.950 1_655 S
H105 C83 0.950 . S
Mg106 O107 2.028 . S
Mg106 O113 1.986 . S
Mg106 O115 2.114 1_545 S
Mg106 O116 2.251 . S
Mg106 O119 2.010 . S
O107 Mg106 2.028 . S
O107 C110 1.250 1_455 S
O108 Mg109 2.028 . S
O108 C110 1.248 . S
Mg109 O108 2.028 . S
Mg109 O114 2.032 1_655 S
Mg109 O116 2.079 1_655 S
C110 O107 1.250 1_655 S
C110 O108 1.248 . S
C111 O112 1.264 . S
C111 O119 1.249 . S
O112 C111 1.264 . S
O113 Mg106 1.986 . S
O113 C117 1.246 . S
O114 Mg109 2.032 1_455 S
O114 C117 1.259 . S
O115 Mg106 2.114 1_565 S
O115 C118 1.252 . S
O116 Mg106 2.251 . S
O116 Mg109 2.079 1_455 S
O116 C118 1.273 1_545 S
C117 O113 1.246 . S
C117 O114 1.259 . S
C118 O115 1.252 . S
C118 O116 1.273 1_565 S
O119 Mg106 2.010 . S
O119 C111 1.249 . S
Mg120 O121 2.028 . S
Mg120 O127 1.986 . S
Mg120 O129 2.114 1_545 S
Mg120 O130 2.251 . S
Mg120 O133 2.010 1_455 S
O121 Mg120 2.028 . S
O121 C124 1.250 . S
O122 Mg123 2.028 . S
O122 C124 1.248 . S
Mg123 O122 2.028 . S
Mg123 O128 2.032 . S
Mg123 O130 2.079 . S
C124 O121 1.250 . S
C124 O122 1.248 . S
C125 O126 1.264 . S
C125 O133 1.249 . S
O126 C125 1.264 . S
O127 Mg120 1.986 . S
O127 C131 1.246 . S
O128 Mg123 2.032 . S
O128 C131 1.259 . S
O129 Mg120 2.114 1_565 S
O129 C132 1.252 . S
O130 Mg120 2.251 . S
O130 Mg123 2.079 . S
O130 C132 1.273 1_545 S
C131 O127 1.246 . S
C131 O128 1.259 . S
C132 O129 1.252 . S
C132 O130 1.273 1_565 S
O133 Mg120 2.010 1_655 S
O133 C125 1.249 . S
H134 C140 0.930 . S
H135 C144 0.930 . S
H136 C149 0.929 . S
H137 C147 0.929 . S
H138 C142 0.929 . S
H139 C148 0.929 . S
C140 H134 0.930 . S
C140 C141 1.367 . S
C140 C148 1.378 . S
C141 C140 1.367 . S
C141 C149 1.433 . S
C142 H138 0.929 . S
C142 C144 1.378 . S
C142 C146 1.350 . S
C143 C146 1.463 . S
C143 C148 1.350 . S
C143 N151 1.427 . S
C144 H135 0.930 . S
C144 C142 1.378 . S
C144 C145 1.367 . S
C145 C144 1.367 . S
C145 C147 1.433 . S
C146 C142 1.350 . S
C146 C143 1.463 . S
C146 N150 1.427 . S
C147 H137 0.929 . S
C147 C145 1.433 . S
C147 N150 1.384 . S
C148 H139 0.929 . S
C148 C140 1.378 . S
C148 C143 1.350 . S
C149 H136 0.929 . S
C149 C141 1.433 . S
C149 N151 1.384 . S
N150 C146 1.427 . S
N150 C147 1.384 . S
N151 C143 1.427 . S
N151 C149 1.384 . S
H152 C158 0.930 . S
H153 C162 0.930 . S
H154 C167 0.929 . S
H155 C165 0.929 . S
H156 C160 0.929 . S
H157 C166 0.929 . S
C158 H152 0.930 . S
C158 C159 1.367 . S
C158 C166 1.378 . S
C159 C158 1.367 . S
C159 C167 1.433 . S
C160 H156 0.929 . S
C160 C162 1.378 . S
C160 C164 1.350 . S
C161 C164 1.463 . S
C161 C166 1.350 . S
C161 N169 1.427 . S
C162 H153 0.930 . S
C162 C160 1.378 . S
C162 C163 1.367 . S
C163 C162 1.367 . S
C163 C165 1.433 . S
C164 C160 1.350 . S
C164 C161 1.463 . S
C164 N168 1.427 . S
C165 H155 0.929 . S
C165 C163 1.433 . S
C165 N168 1.384 . S
C166 H157 0.929 . S
C166 C158 1.378 . S
C166 C161 1.350 . S
C167 H154 0.929 . S
C167 C159 1.433 . S
C167 N169 1.384 . S
N168 C164 1.427 . S
N168 C165 1.384 . S
N169 C161 1.427 . S
N169 C167 1.384 . S
H170 C176 0.930 1_565 S
H171 C180 0.930 . S
H172 C185 0.929 . S
H173 C183 0.929 1_565 S
H174 C178 0.929 . S
H175 C184 0.929 1_565 S
C176 H170 0.930 1_545 S
C176 C177 1.367 . S
C176 C184 1.378 . S
C177 C176 1.367 . S
C177 C185 1.433 . S
C178 H174 0.929 . S
C178 C180 1.378 . S
C178 C182 1.350 . S
C179 C182 1.463 . S
C179 C184 1.350 . S
C179 N187 1.427 . S
C180 H171 0.930 . S
C180 C178 1.378 . S
C180 C181 1.367 . S
C181 C180 1.367 . S
C181 C183 1.433 . S
C182 C178 1.350 . S
C182 C179 1.463 . S
C182 N186 1.427 . S
C183 H173 0.929 1_545 S
C183 C181 1.433 . S
C183 N186 1.384 . S
C184 H175 0.929 1_545 S
C184 C176 1.378 . S
C184 C179 1.350 . S
C185 H172 0.929 . S
C185 C177 1.433 . S
C185 N187 1.384 . S
N186 C182 1.427 . S
N186 C183 1.384 . S
N187 C179 1.427 . S
N187 C185 1.384 . S
H188 C194 0.930 . S
H189 C198 0.930 . S
H190 C203 0.929 . S
H191 C201 0.929 . S
H192 C196 0.929 . S
H193 C202 0.929 . S
C194 H188 0.930 . S
C194 C195 1.367 . S
C194 C202 1.378 . S
C195 C194 1.367 . S
C195 C203 1.433 . S
C196 H192 0.929 . S
C196 C198 1.378 . S
C196 C200 1.350 . S
C197 C200 1.463 . S
C197 C202 1.350 . S
C197 N205 1.427 . S
C198 H189 0.930 . S
C198 C196 1.378 . S
C198 C199 1.367 . S
C199 C198 1.367 . S
C199 C201 1.433 . S
C200 C196 1.350 . S
C200 C197 1.463 . S
C200 N204 1.427 . S
C201 H191 0.929 . S
C201 C199 1.433 . S
C201 N204 1.384 . S
C202 H193 0.929 . S
C202 C194 1.378 . S
C202 C197 1.350 . S
C203 H190 0.929 . S
C203 C195 1.433 . S
C203 N205 1.384 . S
N204 C200 1.427 . S
N204 C201 1.384 . S
N205 C197 1.427 . S
N205 C203 1.384 . S
H206 C212 0.930 1_565 S
H207 C216 0.930 . S
H208 C221 0.929 . S
H209 C219 0.929 1_565 S
H210 C214 0.929 . S
H211 C220 0.929 1_565 S
C212 H206 0.930 1_545 S
C212 C213 1.367 . S
C212 C220 1.378 . S
C213 C212 1.367 . S
C213 C221 1.433 . S
C214 H210 0.929 . S
C214 C216 1.378 . S
C214 C218 1.350 . S
C215 C218 1.463 . S
C215 C220 1.350 . S
C215 N223 1.427 . S
C216 H207 0.930 . S
C216 C214 1.378 . S
C216 C217 1.367 . S
C217 C216 1.367 . S
C217 C219 1.433 . S
C218 C214 1.350 . S
C218 C215 1.463 . S
C218 N222 1.427 . S
C219 H209 0.929 1_545 S
C219 C217 1.433 . S
C219 N222 1.384 . S
C220 H211 0.929 1_545 S
C220 C212 1.378 . S
C220 C215 1.350 . S
C221 H208 0.929 . S
C221 C213 1.433 . S
C221 N223 1.384 . S
N222 C218 1.427 . S
N222 C219 1.384 . S
N223 C215 1.427 . S
N223 C221 1.384 . S
H224 C230 0.930 . S
H225 C234 0.930 . S
H226 C239 0.929 . S
H227 C237 0.929 . S
H228 C232 0.929 . S
H229 C238 0.929 . S
C230 H224 0.930 . S
C230 C231 1.367 . S
C230 C238 1.378 . S
C231 C230 1.367 . S
C231 C239 1.433 . S
C232 H228 0.929 . S
C232 C234 1.378 . S
C232 C236 1.350 . S
C233 C236 1.463 . S
C233 C238 1.350 . S
C233 N241 1.427 . S
C234 H225 0.930 . S
C234 C232 1.378 . S
C234 C235 1.367 . S
C235 C234 1.367 . S
C235 C237 1.433 . S
C236 C232 1.350 . S
C236 C233 1.463 . S
C236 N240 1.427 . S
C237 H227 0.929 . S
C237 C235 1.433 . S
C237 N240 1.384 . S
C238 H229 0.929 . S
C238 C230 1.378 . S
C238 C233 1.350 . S
C239 H226 0.929 . S
C239 C231 1.433 . S
C239 N241 1.384 . S
N240 C236 1.427 . S
N240 C237 1.384 . S
N241 C233 1.427 . S
N241 C239 1.384 . S
H242 C248 0.930 1_565 S
H243 C252 0.930 . S
H244 C257 0.929 . S
H245 C255 0.929 1_565 S
H246 C250 0.929 . S
H247 C256 0.929 1_565 S
C248 H242 0.930 1_545 S
C248 C249 1.367 . S
C248 C256 1.378 . S
C249 C248 1.367 . S
C249 C257 1.433 . S
C250 H246 0.929 . S
C250 C252 1.378 . S
C250 C254 1.350 . S
C251 C254 1.463 . S
C251 C256 1.350 . S
C251 N259 1.427 . S
C252 H243 0.930 . S
C252 C250 1.378 . S
C252 C253 1.367 . S
C253 C252 1.367 . S
C253 C255 1.433 . S
C254 C250 1.350 . S
C254 C251 1.463 . S
C254 N258 1.427 . S
C255 H245 0.929 1_545 S
C255 C253 1.433 . S
C255 N258 1.384 . S
C256 H247 0.929 1_545 S
C256 C248 1.378 . S
C256 C251 1.350 . S
C257 H244 0.929 . S
C257 C249 1.433 . S
C257 N259 1.384 . S
N258 C254 1.427 . S
N258 C255 1.384 . S
N259 C251 1.427 . S
N259 C257 1.384 . S
H260 C266 0.930 . S
H261 C270 0.930 . S
H262 C275 0.929 . S
H263 C273 0.929 . S
H264 C268 0.929 . S
H265 C274 0.929 . S
C266 H260 0.930 . S
C266 C267 1.367 . S
C266 C274 1.378 . S
C267 C266 1.367 . S
C267 C275 1.433 . S
C268 H264 0.929 . S
C268 C270 1.378 . S
C268 C272 1.350 . S
C269 C272 1.463 . S
C269 C274 1.350 . S
C269 N277 1.427 . S
C270 H261 0.930 . S
C270 C268 1.378 . S
C270 C271 1.367 . S
C271 C270 1.367 . S
C271 C273 1.433 . S
C272 C268 1.350 . S
C272 C269 1.463 . S
C272 N276 1.427 . S
C273 H263 0.929 . S
C273 C271 1.433 . S
C273 N276 1.384 . S
C274 H265 0.929 . S
C274 C266 1.378 . S
C274 C269 1.350 . S
C275 H262 0.929 . S
C275 C267 1.433 . S
C275 N277 1.384 . S
N276 C272 1.427 . S
N276 C273 1.384 . S
N277 C269 1.427 . S
N277 C275 1.384 . S
C145 C111 1.275 . S
C141 C22 1.500 . S
C163 C131 1.472 . S
C159 C91 1.496 . S
C181 C110 1.456 . S
C177 C38 1.501 . S
C199 C132 1.506 . S
C195 C75 1.506 . S
C217 C124 1.459 . S
C213 C39 1.501 . S
C235 C117 1.464 . S
C231 C82 1.494 . S
C253 C125 1.266 . S
C249 C29 1.502 . S
C267 C92 1.504 . S
C271 C118 1.505 . S
