# Generated by pormake.
# Topology anh, (6,3)-cn, num edge types: 1
# Building blocks:
#     Node 0, Type 0, BuildingBlock: GEDQOX_clean_sbu_0, # of connection points: 6
#     Node 1, Type 0, BuildingBlock: GEDQOX_clean_sbu_0, # of connection points: 6
#     Node 2, Type 0, BuildingBlock: GEDQOX_clean_sbu_0, # of connection points: 6
#     Node 3, Type 1, BuildingBlock: OLANEW_clean_sbu_2, # of connection points: 3
#     Node 4, Type 1, BuildingBlock: OLANEW_clean_sbu_2, # of connection points: 3
#     Node 5, Type 1, BuildingBlock: OLANEW_clean_sbu_2, # of connection points: 3
#     Node 6, Type 1, BuildingBlock: OLANEW_clean_sbu_2, # of connection points: 3
#     Node 7, Type 1, BuildingBlock: OLANEW_clean_sbu_2, # of connection points: 3
#     Node 8, Type 1, BuildingBlock: OLANEW_clean_sbu_2, # of connection points: 3
#     Edge 9, Type (0, 1), BuildingBlock: XIVTED_clean_linker_0, # of connection points: 2
#     Edge 10, Type (0, 1), BuildingBlock: XIVTED_clean_linker_0, # of connection points: 2
#     Edge 11, Type (0, 1), BuildingBlock: XIVTED_clean_linker_0, # of connection points: 2
#     Edge 12, Type (0, 1), BuildingBlock: XIVTED_clean_linker_0, # of connection points: 2
#     Edge 13, Type (0, 1), BuildingBlock: XIVTED_clean_linker_0, # of connection points: 2
#     Edge 14, Type (0, 1), BuildingBlock: XIVTED_clean_linker_0, # of connection points: 2
#     Edge 15, Type (0, 1), BuildingBlock: XIVTED_clean_linker_0, # of connection points: 2
#     Edge 16, Type (0, 1), BuildingBlock: XIVTED_clean_linker_0, # of connection points: 2
#     Edge 17, Type (0, 1), BuildingBlock: XIVTED_clean_linker_0, # of connection points: 2
#     Edge 18, Type (0, 1), BuildingBlock: XIVTED_clean_linker_0, # of connection points: 2
#     Edge 19, Type (0, 1), BuildingBlock: XIVTED_clean_linker_0, # of connection points: 2
#     Edge 20, Type (0, 1), BuildingBlock: XIVTED_clean_linker_0, # of connection points: 2
#     Edge 21, Type (0, 1), BuildingBlock: XIVTED_clean_linker_0, # of connection points: 2
#     Edge 22, Type (0, 1), BuildingBlock: XIVTED_clean_linker_0, # of connection points: 2
#     Edge 23, Type (0, 1), BuildingBlock: XIVTED_clean_linker_0, # of connection points: 2
#     Edge 24, Type (0, 1), BuildingBlock: XIVTED_clean_linker_0, # of connection points: 2
#     Edge 25, Type (0, 1), BuildingBlock: XIVTED_clean_linker_0, # of connection points: 2
#     Edge 26, Type (0, 1), BuildingBlock: XIVTED_clean_linker_0, # of connection points: 2
# Relax obj value: 0.138
# Max RMSD: 0.171
# Mean RMSD: 0.115
data_MOF--net-anh--node1-GEDQOX_clean_sbu_0--node2-OLANEW_clean_sbu_2--edge1-XIVTED_clean_linker_0
_symmetry_space_group_name_H-M    P1
_symmetry_Int_Tables_number       1
_symmetry_cell_setting            triclinic
loop_
_symmetry_equiv_pos_as_xyz
'x, y, z'
_cell_length_a     37.527263
_cell_length_b     33.454447
_cell_length_c     50.733377
_cell_angle_alpha  92.80433
_cell_angle_beta   90.360453
_cell_angle_gamma 108.18565
loop_
_atom_site_label
_atom_site_type_symbol
_atom_site_fract_x
_atom_site_fract_y
_atom_site_fract_z
_atom_type_partial_charge
Nd0 Nd 0.04333 0.57027 0.13259 0.0
Nd1 Nd 0.02 0.47877 0.14665 0.0
C2 C 0.076 0.64412 0.11273 0.0
C3 C 0.11459 0.67297 0.11544 0.0
C4 C 0.1258 0.71013 0.1018 0.0
C5 C 0.16246 0.73781 0.10506 0.0
C6 C 0.18846 0.7286 0.12195 0.0
C7 C 0.17698 0.691 0.13537 0.0
C8 C 0.14043 0.66355 0.13218 0.0
C9 C 0.0404 0.55874 0.18562 0.0
C10 C 0.10806 0.52148 0.13706 0.0
C11 C 0.99074 0.40642 0.16931 0.0
C12 C 0.9535 0.37585 0.17279 0.0
C13 C 0.92158 0.37983 0.16005 0.0
C14 C 0.88628 0.35054 0.1637 0.0
C15 C 0.88237 0.3167 0.18008 0.0
C16 C 0.91457 0.31304 0.1928 0.0
C17 C 0.94978 0.34238 0.18918 0.0
C18 C 0.02157 0.49072 0.09347 0.0
C19 C 0.95481 0.52655 0.13947 0.0
O20 O 0.07209 0.60817 0.09976 0.0
O21 O 0.05663 0.63969 0.13434 0.0
O22 O 0.02989 0.58758 0.17474 0.0
O23 O 0.05366 0.53841 0.16889 0.0
O24 O 0.09781 0.55224 0.12724 0.0
O25 O 0.08371 0.49069 0.14903 0.0
O26 O 0.99723 0.44324 0.18179 0.0
O27 O 1.00344 0.40906 0.1453 0.0
O28 O 0.03134 0.46076 0.10371 0.0
O29 O 0.00936 0.5109 0.1108 0.0
O30 O 0.96454 0.49611 0.1504 0.0
O31 O 0.97983 0.5568 0.12748 0.0
H32 H 0.10619 0.71783 0.08878 0.0
H33 H 0.17048 0.76631 0.09427 0.0
H34 H 0.19597 0.68321 0.14888 0.0
H35 H 0.13217 0.63514 0.14305 0.0
H36 H 0.92403 0.40547 0.14724 0.0
H37 H 0.86216 0.35406 0.15341 0.0
H38 H 0.91253 0.28779 0.20585 0.0
H39 H 0.97414 0.33898 0.19925 0.0
Nd40 Nd 0.47451 0.98699 0.5283 0.0
Nd41 Nd 0.56277 0.01544 0.51622 0.0
C42 C 0.40918 0.95638 0.55076 0.0
C43 C 0.37475 0.92059 0.54441 0.0
C44 C 0.36528 0.88548 0.5601 0.0
C45 C 0.33437 0.85019 0.55334 0.0
C46 C 0.31202 0.84938 0.53084 0.0
C47 C 0.3209 0.88499 0.51555 0.0
C48 C 0.35195 0.92015 0.52221 0.0
C49 C 0.48564 0.98824 0.47445 0.0
C50 C 0.51796 0.91583 0.51519 0.0
C51 C 0.63228 0.04911 0.5004 0.0
C52 C 0.65762 0.09024 0.4935 0.0
C53 C 0.64408 0.12396 0.48892 0.0
C54 C 0.66907 0.16367 0.48415 0.0
C55 C 0.70802 0.17023 0.48391 0.0
C56 C 0.72124 0.13601 0.48814 0.0
C57 C 0.69626 0.09644 0.49294 0.0
C58 C 0.54221 0.9959 0.56692 0.0
C59 C 0.51965 0.08755 0.52696 0.0
O60 O 0.43904 0.94643 0.55753 0.0
O61 O 0.41675 0.98828 0.53537 0.0
O62 O 0.45262 0.97757 0.48469 0.0
O63 O 0.50983 0.99682 0.49276 0.0
O64 O 0.49001 0.92539 0.52698 0.0
O65 O 0.54713 0.94473 0.50575 0.0
O66 O 0.60399 0.03074 0.48414 0.0
O67 O 0.62317 0.04598 0.52523 0.0
O68 O 0.5696 0.98653 0.55538 0.0
O69 O 0.52785 0.0162 0.55212 0.0
O70 O 0.54899 0.07813 0.51729 0.0
O71 O 0.48936 0.0586 0.53504 0.0
H72 H 0.38219 0.88505 0.57741 0.0
H73 H 0.32798 0.82349 0.56572 0.0
H74 H 0.30448 0.88522 0.49796 0.0
H75 H 0.3584 0.9466 0.50963 0.0
H76 H 0.61428 0.11969 0.48939 0.0
H77 H 0.65796 0.18939 0.4812 0.0
H78 H 0.75094 0.13972 0.48763 0.0
H79 H 0.70716 0.07072 0.49648 0.0
Nd80 Nd 0.4753 0.50669 0.85593 0.0
Nd81 Nd 0.55633 0.53502 0.87642 0.0
C82 C 0.41295 0.49338 0.82764 0.0
C83 C 0.38254 0.51148 0.82382 0.0
C84 C 0.3632 0.50417 0.79949 0.0
C85 C 0.33264 0.51881 0.79581 0.0
C86 C 0.32082 0.54089 0.81649 0.0
C87 C 0.34123 0.54948 0.84061 0.0
C88 C 0.37194 0.53495 0.84422 0.0
C89 C 0.48292 0.51293 0.91 0.0
C90 C 0.51962 0.60806 0.86641 0.0
C91 C 0.62134 0.54777 0.9012 0.0
C92 C 0.65367 0.5329 0.89608 0.0
C93 C 0.68994 0.56013 0.90174 0.0
C94 C 0.72116 0.54929 0.89311 0.0
C95 C 0.7166 0.51094 0.87866 0.0
C96 C 0.68012 0.48288 0.87412 0.0
C97 C 0.64892 0.49388 0.8826 0.0
C98 C 0.54867 0.52714 0.82228 0.0
C99 C 0.51081 0.43343 0.86724 0.0
O100 O 0.446 0.51524 0.81959 0.0
O101 O 0.4142 0.47633 0.85016 0.0
O102 O 0.45548 0.48486 0.89733 0.0
O103 O 0.50301 0.53828 0.89446 0.0
O104 O 0.49289 0.57877 0.85293 0.0
O105 O 0.54452 0.59816 0.88106 0.0
O106 O 0.59026 0.51972 0.90807 0.0
O107 O 0.61571 0.57279 0.88378 0.0
O108 O 0.57619 0.55516 0.83474 0.0
O109 O 0.52858 0.50255 0.83814 0.0
O110 O 0.53791 0.46266 0.88053 0.0
O111 O 0.48623 0.44349 0.85243 0.0
H112 H 0.37133 0.48646 0.78345 0.0
H113 H 0.31795 0.51232 0.77686 0.0
H114 H 0.33267 0.56604 0.85701 0.0
H115 H 0.38683 0.54116 0.8631 0.0
H116 H 0.69407 0.5906 0.91182 0.0
H117 H 0.74874 0.57194 0.89666 0.0
H118 H 0.6756 0.45282 0.86343 0.0
H119 H 0.62109 0.47256 0.87778 0.0
O120 O 0.55244 0.03779 0.26971 0.0
Cd121 Cd 0.56103 0.04775 0.22239 0.0
O122 O 0.49464 0.99447 0.26465 0.0
Cd123 Cd 0.48651 0.99032 0.22179 0.0
O124 O 0.44363 0.95745 0.19189 0.0
C125 C 0.43882 0.91861 0.18637 0.0
O126 O 0.46184 0.901 0.19699 0.0
C127 C 0.52247 0.01458 0.27957 0.0
C128 C 0.6302 0.10698 0.21219 0.0
O129 O 0.6009 0.11825 0.216 0.0
O130 O 0.6268 0.06776 0.21317 0.0
O131 O 0.5416 0.48949 0.61049 0.0
Cd132 Cd 0.5344 0.47578 0.56262 0.0
O133 O 0.50145 0.52546 0.61571 0.0
Cd134 Cd 0.49771 0.54322 0.57501 0.0
O135 O 0.49364 0.59605 0.55232 0.0
C136 C 0.52314 0.62531 0.5467 0.0
O137 O 0.55602 0.62166 0.55278 0.0
C138 C 0.52295 0.50687 0.62542 0.0
C139 C 0.52947 0.39134 0.55067 0.0
O140 O 0.56112 0.42063 0.55102 0.0
O141 O 0.50008 0.40199 0.55546 0.0
O142 O 0.9957 0.5565 0.89132 0.0
Cd143 Cd 0.99942 0.57763 0.84568 0.0
O144 O 0.98835 0.48899 0.88305 0.0
Cd145 Cd 0.98158 0.49018 0.8404 0.0
O146 O 0.97344 0.48614 0.7974 0.0
C147 C 0.94274 0.48292 0.78536 0.0
O148 O 0.94106 0.47779 0.75949 0.0
C149 C 0.99281 0.52026 0.89945 0.0
C150 C 0.06993 0.58097 0.82725 0.0
O151 O 0.04136 0.54832 0.82265 0.0
O152 O 0.06501 0.61287 0.83988 0.0
O153 O 0.05138 0.52171 0.39438 0.0
Cd154 Cd 0.05064 0.51964 0.44254 0.0
O155 O 0.99299 0.52247 0.39174 0.0
Cd156 Cd 0.97713 0.5009 0.43118 0.0
O157 O 0.93525 0.45196 0.45146 0.0
C158 C 0.9025 0.44033 0.44097 0.0
O159 O 0.89628 0.4596 0.4203 0.0
C160 C 0.02402 0.52528 0.38082 0.0
C161 C 0.10623 0.58981 0.46529 0.0
O162 O 0.11282 0.55494 0.46005 0.0
O163 O 0.07325 0.59139 0.46006 0.0
O164 O 0.53908 0.98679 0.77728 0.0
Cd165 Cd 0.54274 0.98949 0.82549 0.0
O166 O 0.51695 0.04017 0.77402 0.0
Cd167 Cd 0.52323 0.06361 0.8153 0.0
O168 O 0.52631 0.12111 0.83898 0.0
C169 C 0.49653 0.13155 0.83959 0.0
O170 O 0.46585 0.10575 0.82819 0.0
C171 C 0.52643 0.01002 0.76324 0.0
C172 C 0.53794 0.90922 0.84151 0.0
O173 O 0.50839 0.91977 0.8376 0.0
O174 O 0.56987 0.93694 0.83844 0.0
O175 O 0.57081 0.51854 0.10858 0.0
Cd176 Cd 0.60769 0.51726 0.14923 0.0
O177 O 0.51324 0.51101 0.12242 0.0
Cd178 Cd 0.45279 0.50815 0.11988 0.0
O179 O 0.39203 0.50275 0.12366 0.0
C180 C 0.37936 0.53249 0.11776 0.0
O181 O 0.40278 0.56697 0.10892 0.0
C182 C 0.5366 0.5158 0.1037 0.0
C183 C 0.68299 0.51754 0.14292 0.0
O184 O 0.65594 0.48299 0.14399 0.0
O185 O 0.67458 0.5519 0.14409 0.0
H186 H 0.16634 0.5831 0.11682 0.0
H187 H 0.32195 0.46722 0.13708 0.0
H188 H 0.14144 0.46257 0.15168 0.0
H189 H 0.34428 0.59008 0.10582 0.0
H190 H 0.25595 0.46365 0.14223 0.0
H191 H 0.23139 0.58497 0.11245 0.0
C192 C 0.17445 0.55691 0.12359 0.0
C193 C 0.14803 0.52256 0.13465 0.0
C194 C 0.27534 0.49136 0.13425 0.0
C195 C 0.22333 0.52453 0.12956 0.0
C196 C 0.31307 0.49342 0.13127 0.0
C197 C 0.33895 0.52902 0.12097 0.0
C198 C 0.26324 0.52511 0.12685 0.0
C199 C 0.32559 0.56196 0.11384 0.0
C200 C 0.21182 0.55804 0.12107 0.0
C201 C 0.16066 0.48972 0.14305 0.0
N202 N 0.2889 0.55917 0.11689 0.0
N203 N 0.19731 0.49147 0.14029 0.0
H204 H 0.70114 0.22755 0.44884 0.0
H205 H 0.90652 0.389 0.48084 0.0
H206 H 0.77621 0.20936 0.50857 0.0
H207 H 0.8304 0.40742 0.42194 0.0
H208 H 0.85789 0.3252 0.49314 0.0
H209 H 0.7468 0.29565 0.44058 0.0
C210 C 0.72707 0.238 0.46039 0.0
C211 C 0.73489 0.21247 0.47931 0.0
C212 C 0.85177 0.34335 0.47762 0.0
C213 C 0.78759 0.29036 0.46975 0.0
C214 C 0.87952 0.37984 0.47062 0.0
C215 C 0.87264 0.4035 0.45021 0.0
C216 C 0.81691 0.33038 0.46409 0.0
C217 C 0.83708 0.39009 0.4377 0.0
C218 C 0.75325 0.27683 0.45556 0.0
C219 C 0.76923 0.22756 0.49344 0.0
N220 N 0.81067 0.35436 0.44474 0.0
N221 N 0.79432 0.26539 0.48831 0.0
H222 H 0.46547 0.63878 0.84751 0.0
H223 H 0.59467 0.87896 0.85639 0.0
H224 H 0.57709 0.679 0.88238 0.0
H225 H 0.47501 0.84041 0.84169 0.0
H226 H 0.58974 0.80597 0.86472 0.0
H227 H 0.4693 0.71244 0.84377 0.0
C228 C 0.49078 0.6631 0.85446 0.0
C229 C 0.52107 0.65266 0.86522 0.0
C230 C 0.56454 0.81357 0.85985 0.0
C231 C 0.52569 0.73722 0.86082 0.0
C232 C 0.56733 0.85521 0.85505 0.0
C233 C 0.53521 0.86581 0.84825 0.0
C234 C 0.52945 0.7822 0.85752 0.0
C235 C 0.50052 0.83372 0.84687 0.0
C236 C 0.49288 0.7052 0.85239 0.0
C237 C 0.55305 0.68559 0.874 0.0
N238 N 0.49861 0.79336 0.85125 0.0
N239 N 0.55464 0.7264 0.87142 0.0
H240 H 0.92498 0.58733 0.12411 0.0
H241 H 0.71105 0.45144 0.14762 0.0
H242 H 0.89297 0.46357 0.15514 0.0
H243 H 0.74592 0.58445 0.13466 0.0
H244 H 0.77682 0.45331 0.14658 0.0
H245 H 0.85913 0.58496 0.12423 0.0
C246 C 0.90417 0.5596 0.13093 0.0
C247 C 0.91477 0.5256 0.13964 0.0
C248 C 0.77009 0.48208 0.14393 0.0
C249 C 0.8389 0.5226 0.13966 0.0
C250 C 0.73247 0.48102 0.14442 0.0
C251 C 0.72277 0.51786 0.14125 0.0
C252 C 0.79843 0.52019 0.13999 0.0
C253 C 0.75194 0.55527 0.13725 0.0
C254 C 0.8665 0.55832 0.13103 0.0
C255 C 0.88632 0.49058 0.14828 0.0
N256 N 0.78831 0.55544 0.13668 0.0
N257 N 0.84981 0.48994 0.14797 0.0
H258 H 0.24167 0.84472 0.51268 0.0
H259 H 0.17725 0.59505 0.4819 0.0
H260 H 0.31024 0.76681 0.53048 0.0
H261 H 0.10321 0.67018 0.47422 0.0
H262 H 0.22658 0.65778 0.49917 0.0
H263 H 0.19093 0.78143 0.49782 0.0
C264 C 0.24606 0.8143 0.51346 0.0
C265 C 0.28031 0.81111 0.52282 0.0
C266 C 0.1995 0.66054 0.4938 0.0
C267 C 0.22228 0.73844 0.50587 0.0
C268 C 0.17131 0.62471 0.4839 0.0
C269 C 0.13601 0.62733 0.47655 0.0
C270 C 0.19251 0.69943 0.49623 0.0
C271 C 0.12997 0.66665 0.47964 0.0
C272 C 0.21701 0.77815 0.50509 0.0
C273 C 0.28421 0.77077 0.52368 0.0
N274 N 0.15796 0.70115 0.48913 0.0
N275 N 0.25567 0.73609 0.51519 0.0
H276 H 0.56464 0.39947 0.88396 0.0
H277 H 0.43797 0.16348 0.8424 0.0
H278 H 0.45182 0.365 0.85156 0.0
H279 H 0.557 0.19724 0.85891 0.0
H280 H 0.44075 0.23615 0.85315 0.0
H281 H 0.56061 0.32465 0.88168 0.0
C282 C 0.53896 0.37621 0.87658 0.0
C283 C 0.50864 0.38854 0.86771 0.0
C284 C 0.46626 0.22768 0.85461 0.0
C285 C 0.50379 0.30318 0.86522 0.0
C286 C 0.46468 0.18608 0.84855 0.0
C287 C 0.49738 0.17427 0.84945 0.0
C288 C 0.50081 0.25794 0.86163 0.0
C289 C 0.53112 0.205 0.85777 0.0
C290 C 0.53672 0.33358 0.87523 0.0
C291 C 0.47606 0.35707 0.85835 0.0
N292 N 0.53204 0.24555 0.86334 0.0
N293 N 0.47456 0.31598 0.85731 0.0
H294 H 0.57528 0.88392 0.50256 0.0
H295 H 0.46015 0.64912 0.53967 0.0
H296 H 0.45975 0.84598 0.52636 0.0
H297 H 0.58029 0.69286 0.53096 0.0
H298 H 0.45757 0.71812 0.52772 0.0
H299 H 0.57547 0.81124 0.50586 0.0
C300 C 0.54982 0.86029 0.50818 0.0
C301 C 0.51754 0.87127 0.5144 0.0
C302 C 0.48447 0.71251 0.52822 0.0
C303 C 0.51764 0.78795 0.51827 0.0
C304 C 0.48595 0.67303 0.53495 0.0
C305 C 0.52054 0.66522 0.53656 0.0
C306 C 0.51777 0.74445 0.52294 0.0
C307 C 0.55302 0.69751 0.53018 0.0
C308 C 0.55001 0.81881 0.51016 0.0
C309 C 0.48541 0.83918 0.5216 0.0
N310 N 0.55087 0.73573 0.5238 0.0
N311 N 0.48634 0.79911 0.52344 0.0
H312 H 0.78779 0.52805 0.89988 0.0
H313 H 0.86959 0.44392 0.77076 0.0
H314 H 0.7207 0.4737 0.82987 0.0
H315 H 0.93875 0.52566 0.83224 0.0
H316 H 0.81373 0.44665 0.79451 0.0
H317 H 0.84268 0.51873 0.87796 0.0
C318 C 0.78452 0.51406 0.87995 0.0
C319 C 0.74951 0.50186 0.8667 0.0
C320 C 0.84119 0.46358 0.80295 0.0
C321 C 0.81221 0.49076 0.84159 0.0
C322 C 0.87305 0.46208 0.7894 0.0
C323 C 0.90896 0.48367 0.79992 0.0
C324 C 0.8453 0.487 0.82715 0.0
C325 C 0.91181 0.50701 0.824 0.0
C326 C 0.81586 0.50865 0.86748 0.0
C327 C 0.74692 0.48312 0.84105 0.0
N328 N 0.88043 0.50803 0.83682 0.0
N329 N 0.77786 0.47831 0.82931 0.0
H330 H 0.21044 0.81504 0.12769 0.0
H331 H 0.42092 0.83523 0.17048 0.0
H332 H 0.25453 0.71026 0.12656 0.0
H333 H 0.37918 0.94157 0.16835 0.0
H334 H 0.36175 0.79013 0.15065 0.0
H335 H 0.2733 0.86285 0.13873 0.0
C336 C 0.23339 0.80211 0.1294 0.0
C337 C 0.22704 0.75845 0.12641 0.0
C338 C 0.36561 0.8234 0.15428 0.0
C339 C 0.29909 0.81305 0.13942 0.0
C340 C 0.39947 0.84923 0.16559 0.0
C341 C 0.40496 0.89224 0.17133 0.0
C342 C 0.33681 0.84054 0.14878 0.0
C343 C 0.37615 0.90857 0.1644 0.0
C344 C 0.26928 0.82943 0.13586 0.0
C345 C 0.2579 0.74355 0.12919 0.0
N346 N 0.34319 0.88264 0.15374 0.0
N347 N 0.29245 0.77073 0.1357 0.0
H348 H 0.57935 0.15761 0.51813 0.0
H349 H 0.46732 0.32151 0.55217 0.0
H350 H 0.46352 0.12037 0.54125 0.0
H351 H 0.58615 0.35878 0.53787 0.0
H352 H 0.46447 0.24768 0.5455 0.0
H353 H 0.58142 0.23129 0.52262 0.0
C354 C 0.55427 0.16481 0.52406 0.0
C355 C 0.52119 0.13252 0.52932 0.0
C356 C 0.49116 0.272 0.54377 0.0
C357 C 0.52345 0.2172 0.53455 0.0
C358 C 0.4928 0.31421 0.54752 0.0
C359 C 0.52705 0.34648 0.54563 0.0
C360 C 0.52398 0.26183 0.538 0.0
C361 C 0.55915 0.33501 0.53957 0.0
C362 C 0.55553 0.20701 0.52669 0.0
C363 C 0.4897 0.14406 0.53705 0.0
N364 N 0.55683 0.29369 0.536 0.0
N365 N 0.49161 0.18537 0.53942 0.0
H366 H 0.30679 0.61341 0.83441 0.0
H367 H 0.08827 0.52062 0.79725 0.0
H368 H 0.25484 0.49378 0.79219 0.0
H369 H 0.13773 0.63941 0.84097 0.0
H370 H 0.15077 0.51509 0.79032 0.0
H371 H 0.24676 0.6278 0.83273 0.0
C372 C 0.28284 0.59028 0.82467 0.0
C373 C 0.28583 0.55221 0.81357 0.0
C374 C 0.14806 0.5426 0.80122 0.0
C375 C 0.21721 0.56857 0.81143 0.0
C376 C 0.11234 0.5458 0.80516 0.0
C377 C 0.10777 0.58031 0.81996 0.0
C378 C 0.17951 0.57395 0.81235 0.0
C379 C 0.13998 0.61214 0.82956 0.0
C380 C 0.24866 0.59861 0.82359 0.0
C381 C 0.25404 0.52372 0.8008 0.0
N382 N 0.17452 0.60796 0.82584 0.0
N383 N 0.22106 0.53235 0.80028 0.0
H384 H 0.86489 0.23096 0.18233 0.0
H385 H 0.64659 0.19235 0.20858 0.0
H386 H 0.81446 0.33066 0.18665 0.0
H387 H 0.69751 0.09307 0.20373 0.0
H388 H 0.70755 0.24344 0.20012 0.0
H389 H 0.80365 0.18005 0.18983 0.0
C390 C 0.84097 0.24221 0.18497 0.0
C391 C 0.84496 0.28527 0.18396 0.0
C392 C 0.70539 0.21047 0.20088 0.0
C393 C 0.77445 0.2269 0.19233 0.0
C394 C 0.67057 0.18126 0.20572 0.0
C395 C 0.66689 0.13831 0.2069 0.0
C396 C 0.73685 0.19671 0.1972 0.0
C397 C 0.69898 0.12583 0.20302 0.0
C398 C 0.80593 0.21305 0.18911 0.0
C399 C 0.81272 0.29779 0.18702 0.0
N400 N 0.73256 0.15486 0.19838 0.0
N401 N 0.7789 0.26879 0.19114 0.0
H402 H 1.00315 0.55305 0.06986 0.0
H403 H 0.99893 0.45106 0.92361 0.0
H404 H 0.03265 0.44001 0.05242 0.0
H405 H 0.99452 0.57718 0.94053 0.0
H406 H 1.00666 0.44386 0.97084 0.0
H407 H 0.99581 0.56019 0.0226 0.0
C408 C 1.00817 0.52978 0.05603 0.0
C409 C 0.01847 0.49586 0.06497 0.0
C410 C 1.00401 0.4731 0.9642 0.0
C411 C 0.00986 0.50362 0.01091 0.0
C412 C 0.99941 0.47719 0.93724 0.0
C413 C 0.99608 0.51482 0.92806 0.0
C414 C 1.00497 0.50673 0.98215 0.0
C415 C 0.99705 0.54763 0.94667 0.0
C416 C 1.004 0.53388 0.02907 0.0
C417 C 0.02468 0.46663 0.04627 0.0
N418 N 1.00133 0.54279 0.97281 0.0
N419 N 0.0201 0.47105 0.02008 0.0
H420 H 0.43462 0.95796 0.43465 0.0
H421 H 0.57603 0.04984 0.31876 0.0
H422 H 0.55182 0.02487 0.44945 0.0
H423 H 0.46134 0.97026 0.30649 0.0
H424 H 0.56859 0.04271 0.36652 0.0
H425 H 0.44459 0.96376 0.38742 0.0
C426 C 0.46258 0.97374 0.42789 0.0
C427 C 0.49254 0.99073 0.44592 0.0
C428 C 0.54516 0.02678 0.3533 0.0
C429 C 0.50426 0.99784 0.39174 0.0
C430 C 0.54935 0.03088 0.32605 0.0
C431 C 0.51925 0.01069 0.30852 0.0
C432 C 0.5106 0.00249 0.36303 0.0
C433 C 0.48536 0.98647 0.31913 0.0
C434 C 0.4683 0.97705 0.40089 0.0
C435 C 0.52815 0.01092 0.43613 0.0
N436 N 0.48198 0.98317 0.3456 0.0
N437 N 0.53306 0.0141 0.40964 0.0
H438 H 0.48835 0.47713 0.79309 0.0
H439 H 0.58502 0.5081 0.6543 0.0
H440 H 0.60015 0.56308 0.78567 0.0
H441 H 0.4698 0.50497 0.66224 0.0
H442 H 0.59166 0.51126 0.70267 0.0
H443 H 0.48151 0.47024 0.74474 0.0
C444 C 0.5114 0.49453 0.78129 0.0
C445 C 0.54463 0.52122 0.7933 0.0
C446 C 0.56494 0.50966 0.6937 0.0
C447 C 0.53748 0.51228 0.73836 0.0
C448 C 0.56106 0.50763 0.66623 0.0
C449 C 0.52685 0.50644 0.65436 0.0
C450 C 0.5341 0.50923 0.70928 0.0
C451 C 0.49671 0.50615 0.67068 0.0
C452 C 0.50749 0.49052 0.75381 0.0
C453 C 0.57394 0.54248 0.77714 0.0
N454 N 0.50092 0.5072 0.69736 0.0
N455 N 0.56981 0.53732 0.75042 0.0
H456 H 0.57141 0.95385 0.60142 0.0
H457 H 0.49302 0.04713 0.72788 0.0
H458 H 0.49565 0.02738 0.59672 0.0
H459 H 0.5536 0.957 0.73219 0.0
H460 H 0.49204 0.03851 0.67984 0.0
H461 H 0.56334 0.95231 0.6492 0.0
C462 C 0.55281 0.96937 0.61046 0.0
C463 C 0.53444 0.99112 0.59522 0.0
C464 C 0.50531 0.02037 0.69127 0.0
C465 C 0.52531 0.98984 0.64983 0.0
C466 C 0.50599 0.02536 0.71875 0.0
C467 C 0.52369 0.00299 0.73414 0.0
C468 C 0.52276 0.9931 0.679 0.0
C469 C 0.53976 0.97501 0.72114 0.0
C470 C 0.5482 0.96848 0.63772 0.0
C471 C 0.5105 0.01048 0.60784 0.0
N472 N 0.53919 0.97114 0.69433 0.0
N473 N 0.50692 0.00975 0.63447 0.0
H474 H 0.54118 0.56751 0.93851 0.0
H475 H 0.46833 0.47683 0.07853 0.0
H476 H 0.43857 0.46564 0.94707 0.0
H477 H 0.57968 0.56025 0.06572 0.0
H478 H 0.45303 0.47865 0.03158 0.0
H479 H 0.55208 0.57122 0.98623 0.0
C480 C 0.52085 0.54604 0.9505 0.0
C481 C 0.48899 0.51615 0.93889 0.0
C482 C 0.48068 0.49684 0.03915 0.0
C483 C 0.50121 0.52018 0.99354 0.0
C484 C 0.48927 0.4962 0.066 0.0
C485 C 0.52521 0.51874 0.07608 0.0
C486 C 0.50822 0.52035 0.02239 0.0
C487 C 0.55165 0.54231 0.05875 0.0
C488 C 0.5271 0.5481 0.97773 0.0
C489 C 0.46355 0.48907 0.9553 0.0
N490 N 0.54264 0.54249 0.03282 0.0
N491 N 0.47022 0.49168 0.98183 0.0
H492 H 0.07332 0.51142 0.21412 0.0
H493 H 0.97839 0.55201 0.34875 0.0
H494 H 1.00403 0.59259 0.22201 0.0
H495 H 0.07728 0.51214 0.34755 0.0
H496 H 0.98282 0.5596 0.30121 0.0
H497 H 0.07055 0.50364 0.26212 0.0
C498 C 0.05753 0.52751 0.22596 0.0
C499 C 0.03897 0.55279 0.21422 0.0
C500 C 1.00365 0.54935 0.31135 0.0
C501 C 0.03544 0.54382 0.2687 0.0
C502 C 1.00111 0.54492 0.33849 0.0
C503 C 0.02756 0.53151 0.35217 0.0
C504 C 0.03255 0.53974 0.29761 0.0
C505 C 0.05642 0.52281 0.3378 0.0
C506 C 0.05608 0.52321 0.25327 0.0
C507 C 0.01887 0.57296 0.23033 0.0
N508 N 0.05802 0.52681 0.31122 0.0
N509 N 0.0175 0.56789 0.25672 0.0
loop_
_geom_bond_atom_site_label_1
_geom_bond_atom_site_label_2
_geom_bond_distance
_geom_bond_site_symmetry_2
_ccdc_geom_bond_type
Nd0 C2 2.836 . S
Nd0 O20 2.500 . S
Nd0 O21 2.492 . S
Nd0 O22 2.487 . S
Nd0 O23 2.682 . S
Nd0 O24 2.410 . S
Nd0 O29 2.414 . S
Nd0 O31 2.424 1_455 S
Nd1 C11 2.836 . S
Nd1 O23 2.414 1_655 S
Nd1 O25 2.424 1_655 S
Nd1 O26 2.500 . S
Nd1 O27 2.492 . S
Nd1 O28 2.487 . S
Nd1 O29 2.682 1_655 S
Nd1 O30 2.410 . S
C2 Nd0 2.836 . S
C2 C3 1.498 . S
C2 O20 1.258 . S
C2 O21 1.239 . S
C3 C2 1.498 . S
C3 C4 1.366 . S
C3 C8 1.407 . S
C4 C3 1.366 . S
C4 C5 1.392 . S
C4 H32 0.930 . S
C5 C4 1.392 . S
C5 C6 1.398 . S
C5 H33 0.929 . S
C6 C5 1.398 . S
C6 C7 1.352 . S
C7 C6 1.352 . S
C7 C8 1.384 . S
C7 H34 0.930 . S
C8 C3 1.407 . S
C8 C7 1.384 . S
C8 H35 0.929 . S
C9 O22 1.241 . S
C9 O23 1.273 . S
C10 O24 1.251 . S
C10 O25 1.268 . S
C11 Nd1 2.836 . S
C11 C12 1.498 . S
C11 O26 1.258 . S
C11 O27 1.239 . S
C12 C11 1.498 . S
C12 C13 1.366 . S
C12 C17 1.407 . S
C13 C12 1.366 . S
C13 C14 1.392 . S
C13 H36 0.930 . S
C14 C13 1.392 . S
C14 C15 1.398 . S
C14 H37 0.929 . S
C15 C14 1.398 . S
C15 C16 1.352 . S
C16 C15 1.352 . S
C16 C17 1.384 . S
C16 H38 0.930 . S
C17 C12 1.407 . S
C17 C16 1.384 . S
C17 H39 0.929 . S
C18 O28 1.241 1_455 S
C18 O29 1.273 . S
C19 O30 1.251 . S
C19 O31 1.268 . S
O20 Nd0 2.500 . S
O20 C2 1.258 . S
O21 Nd0 2.492 . S
O21 C2 1.239 . S
O22 Nd0 2.487 . S
O22 C9 1.241 . S
O23 Nd0 2.682 . S
O23 Nd1 2.414 1_455 S
O23 C9 1.273 . S
O24 Nd0 2.410 . S
O24 C10 1.251 . S
O25 Nd1 2.424 1_455 S
O25 C10 1.268 . S
O26 Nd1 2.500 . S
O26 C11 1.258 . S
O27 Nd1 2.492 . S
O27 C11 1.239 . S
O28 Nd1 2.487 . S
O28 C18 1.241 1_655 S
O29 Nd0 2.414 . S
O29 Nd1 2.682 1_455 S
O29 C18 1.273 . S
O30 Nd1 2.410 . S
O30 C19 1.251 . S
O31 Nd0 2.424 1_655 S
O31 C19 1.268 . S
H32 C4 0.930 . S
H33 C5 0.929 . S
H34 C7 0.930 . S
H35 C8 0.929 . S
H36 C13 0.930 . S
H37 C14 0.929 . S
H38 C16 0.930 . S
H39 C17 0.929 . S
Nd40 C42 2.819 1_545 S
Nd40 O60 2.483 1_545 S
Nd40 O61 2.478 1_545 S
Nd40 O62 2.487 . S
Nd40 O63 2.684 . S
Nd40 O64 2.386 1_545 S
Nd40 O69 2.411 . S
Nd40 O71 2.448 . S
Nd41 C51 2.836 . S
Nd41 O63 2.414 . S
Nd41 O65 2.424 1_545 S
Nd41 O66 2.500 . S
Nd41 O67 2.492 . S
Nd41 O68 2.487 . S
Nd41 O69 2.682 . S
Nd41 O70 2.410 . S
C42 Nd40 2.819 1_565 S
C42 C43 1.498 . S
C42 O60 1.258 . S
C42 O61 1.239 . S
C43 C42 1.498 . S
C43 C44 1.366 . S
C43 C48 1.407 . S
C44 C43 1.366 . S
C44 C45 1.392 . S
C44 H72 0.930 . S
C45 C44 1.392 . S
C45 C46 1.398 . S
C45 H73 0.929 . S
C46 C45 1.398 . S
C46 C47 1.352 . S
C47 C46 1.352 . S
C47 C48 1.384 . S
C47 H74 0.930 . S
C48 C43 1.407 . S
C48 C47 1.384 . S
C48 H75 0.929 . S
C49 O62 1.243 . S
C49 O63 1.273 . S
C50 O64 1.251 . S
C50 O65 1.268 . S
C51 Nd41 2.836 . S
C51 C52 1.498 . S
C51 O66 1.258 . S
C51 O67 1.239 . S
C52 C51 1.498 . S
C52 C53 1.366 . S
C52 C57 1.407 . S
C53 C52 1.366 . S
C53 C54 1.392 . S
C53 H76 0.930 . S
C54 C53 1.392 . S
C54 C55 1.398 . S
C54 H77 0.929 . S
C55 C54 1.398 . S
C55 C56 1.352 . S
C56 C55 1.352 . S
C56 C57 1.384 . S
C56 H78 0.930 . S
C57 C52 1.407 . S
C57 C56 1.384 . S
C57 H79 0.929 . S
C58 O68 1.241 . S
C58 O69 1.273 . S
C59 O70 1.251 . S
C59 O71 1.268 . S
O60 Nd40 2.483 1_565 S
O60 C42 1.258 . S
O61 Nd40 2.478 1_565 S
O61 C42 1.239 . S
O62 Nd40 2.487 . S
O62 C49 1.243 . S
O63 Nd40 2.684 . S
O63 Nd41 2.414 . S
O63 C49 1.273 . S
O64 Nd40 2.386 1_565 S
O64 C50 1.251 . S
O65 Nd41 2.424 1_565 S
O65 C50 1.268 . S
O66 Nd41 2.500 . S
O66 C51 1.258 . S
O67 Nd41 2.492 . S
O67 C51 1.239 . S
O68 Nd41 2.487 . S
O68 C58 1.241 . S
O69 Nd40 2.411 . S
O69 Nd41 2.682 . S
O69 C58 1.273 . S
O70 Nd41 2.410 . S
O70 C59 1.251 . S
O71 Nd40 2.448 . S
O71 C59 1.268 . S
H72 C44 0.930 . S
H73 C45 0.929 . S
H74 C47 0.930 . S
H75 C48 0.929 . S
H76 C53 0.930 . S
H77 C54 0.929 . S
H78 C56 0.930 . S
H79 C57 0.929 . S
Nd80 C82 2.836 . S
Nd80 O100 2.500 . S
Nd80 O101 2.492 . S
Nd80 O102 2.487 . S
Nd80 O103 2.682 . S
Nd80 O104 2.410 . S
Nd80 O109 2.414 . S
Nd80 O111 2.424 . S
Nd81 C91 2.836 . S
Nd81 O103 2.414 . S
Nd81 O105 2.424 . S
Nd81 O106 2.500 . S
Nd81 O107 2.492 . S
Nd81 O108 2.487 . S
Nd81 O109 2.682 . S
Nd81 O110 2.410 . S
C82 Nd80 2.836 . S
C82 C83 1.498 . S
C82 O100 1.258 . S
C82 O101 1.239 . S
C83 C82 1.498 . S
C83 C84 1.366 . S
C83 C88 1.407 . S
C84 C83 1.366 . S
C84 C85 1.392 . S
C84 H112 0.930 . S
C85 C84 1.392 . S
C85 C86 1.398 . S
C85 H113 0.929 . S
C86 C85 1.398 . S
C86 C87 1.352 . S
C87 C86 1.352 . S
C87 C88 1.384 . S
C87 H114 0.930 . S
C88 C83 1.407 . S
C88 C87 1.384 . S
C88 H115 0.929 . S
C89 O102 1.241 . S
C89 O103 1.273 . S
C90 O104 1.251 . S
C90 O105 1.268 . S
C91 Nd81 2.836 . S
C91 C92 1.498 . S
C91 O106 1.258 . S
C91 O107 1.239 . S
C92 C91 1.498 . S
C92 C93 1.366 . S
C92 C97 1.407 . S
C93 C92 1.366 . S
C93 C94 1.392 . S
C93 H116 0.930 . S
C94 C93 1.392 . S
C94 C95 1.398 . S
C94 H117 0.929 . S
C95 C94 1.398 . S
C95 C96 1.352 . S
C96 C95 1.352 . S
C96 C97 1.384 . S
C96 H118 0.930 . S
C97 C92 1.407 . S
C97 C96 1.384 . S
C97 H119 0.929 . S
C98 O108 1.241 . S
C98 O109 1.273 . S
C99 O110 1.251 . S
C99 O111 1.268 . S
O100 Nd80 2.500 . S
O100 C82 1.258 . S
O101 Nd80 2.492 . S
O101 C82 1.239 . S
O102 Nd80 2.487 . S
O102 C89 1.241 . S
O103 Nd80 2.682 . S
O103 Nd81 2.414 . S
O103 C89 1.273 . S
O104 Nd80 2.410 . S
O104 C90 1.251 . S
O105 Nd81 2.424 . S
O105 C90 1.268 . S
O106 Nd81 2.500 . S
O106 C91 1.258 . S
O107 Nd81 2.492 . S
O107 C91 1.239 . S
O108 Nd81 2.487 . S
O108 C98 1.241 . S
O109 Nd80 2.414 . S
O109 Nd81 2.682 . S
O109 C98 1.273 . S
O110 Nd81 2.410 . S
O110 C99 1.251 . S
O111 Nd80 2.424 . S
O111 C99 1.268 . S
H112 C84 0.930 . S
H113 C85 0.929 . S
H114 C87 0.930 . S
H115 C88 0.929 . S
H116 C93 0.930 . S
H117 C94 0.929 . S
H118 C96 0.930 . S
H119 C97 0.929 . S
O120 Cd121 2.300 . S
O120 C127 1.275 . S
Cd121 O120 2.300 . S
Cd121 O129 2.381 . S
Cd121 O130 2.378 . S
O122 Cd123 2.385 . S
O122 C127 1.255 1_565 S
Cd123 O122 2.385 . S
Cd123 O124 2.317 . S
O124 Cd123 2.317 . S
O124 C125 1.232 . S
C125 O124 1.232 . S
C125 O126 1.218 . S
O126 C125 1.218 . S
C127 O120 1.275 . S
C127 O122 1.255 1_545 S
C128 O129 1.258 . S
C128 O130 1.256 . S
O129 Cd121 2.381 . S
O129 C128 1.258 . S
O130 Cd121 2.378 . S
O130 C128 1.256 . S
O131 Cd132 2.300 . S
O131 C138 1.275 . S
Cd132 O131 2.300 . S
Cd132 O140 2.381 . S
Cd132 O141 2.378 . S
O133 Cd134 2.385 . S
O133 C138 1.255 . S
Cd134 O133 2.385 . S
Cd134 O135 2.317 . S
O135 Cd134 2.317 . S
O135 C136 1.232 . S
C136 O135 1.232 . S
C136 O137 1.218 . S
O137 C136 1.218 . S
C138 O131 1.275 . S
C138 O133 1.255 . S
C139 O140 1.258 . S
C139 O141 1.256 . S
O140 Cd132 2.381 . S
O140 C139 1.258 . S
O141 Cd132 2.378 . S
O141 C139 1.256 . S
O142 Cd143 2.300 . S
O142 C149 1.275 . S
Cd143 O142 2.300 . S
Cd143 O151 2.381 . S
Cd143 O152 2.378 . S
O144 Cd145 2.385 1_455 S
O144 C149 1.255 . S
Cd145 O144 2.385 1_655 S
Cd145 O146 2.317 . S
O146 Cd145 2.317 . S
O146 C147 1.232 . S
C147 O146 1.232 . S
C147 O148 1.218 . S
O148 C147 1.218 . S
C149 O142 1.275 . S
C149 O144 1.255 . S
C150 O151 1.258 . S
C150 O152 1.256 . S
O151 Cd143 2.381 . S
O151 C150 1.258 . S
O152 Cd143 2.378 . S
O152 C150 1.256 . S
O153 Cd154 2.300 . S
O153 C160 1.275 1_455 S
Cd154 O153 2.300 . S
Cd154 O162 2.381 . S
Cd154 O163 2.378 . S
O155 Cd156 2.385 . S
O155 C160 1.255 . S
Cd156 O155 2.385 . S
Cd156 O157 2.317 . S
O157 Cd156 2.317 . S
O157 C158 1.232 . S
C158 O157 1.232 . S
C158 O159 1.218 . S
O159 C158 1.218 . S
C160 O153 1.275 1_655 S
C160 O155 1.255 . S
C161 O162 1.258 . S
C161 O163 1.256 . S
O162 Cd154 2.381 . S
O162 C161 1.258 . S
O163 Cd154 2.378 . S
O163 C161 1.256 . S
O164 Cd165 2.300 . S
O164 C171 1.275 1_565 S
Cd165 O164 2.300 . S
Cd165 O173 2.381 . S
Cd165 O174 2.378 . S
O166 Cd167 2.385 . S
O166 C171 1.255 . S
Cd167 O166 2.385 . S
Cd167 O168 2.317 . S
O168 Cd167 2.317 . S
O168 C169 1.232 . S
C169 O168 1.232 . S
C169 O170 1.218 . S
O170 C169 1.218 . S
C171 O164 1.275 1_545 S
C171 O166 1.255 . S
C172 O173 1.258 . S
C172 O174 1.256 . S
O173 Cd165 2.381 . S
O173 C172 1.258 . S
O174 Cd165 2.378 . S
O174 C172 1.256 . S
O175 Cd176 2.300 . S
O175 C182 1.275 . S
Cd176 O175 2.300 . S
Cd176 O184 2.381 . S
Cd176 O185 2.378 . S
O177 Cd178 2.385 . S
O177 C182 1.255 . S
Cd178 O177 2.385 . S
Cd178 O179 2.317 . S
O179 Cd178 2.317 . S
O179 C180 1.232 . S
C180 O179 1.232 . S
C180 O181 1.218 . S
O181 C180 1.218 . S
C182 O175 1.275 . S
C182 O177 1.255 . S
C183 O184 1.258 . S
C183 O185 1.256 . S
O184 Cd176 2.381 . S
O184 C183 1.258 . S
O185 Cd176 2.378 . S
O185 C183 1.256 . S
H186 C192 0.930 . S
H187 C196 0.930 . S
H188 C201 0.929 . S
H189 C199 0.929 . S
H190 C194 0.929 . S
H191 C200 0.929 . S
C192 H186 0.930 . S
C192 C193 1.367 . S
C192 C200 1.378 . S
C193 C192 1.367 . S
C193 C201 1.433 . S
C194 H190 0.929 . S
C194 C196 1.378 . S
C194 C198 1.350 . S
C195 C198 1.463 . S
C195 C200 1.350 . S
C195 N203 1.427 . S
C196 H187 0.930 . S
C196 C194 1.378 . S
C196 C197 1.367 . S
C197 C196 1.367 . S
C197 C199 1.433 . S
C198 C194 1.350 . S
C198 C195 1.463 . S
C198 N202 1.427 . S
C199 H189 0.929 . S
C199 C197 1.433 . S
C199 N202 1.384 . S
C200 H191 0.929 . S
C200 C192 1.378 . S
C200 C195 1.350 . S
C201 H188 0.929 . S
C201 C193 1.433 . S
C201 N203 1.384 . S
N202 C198 1.427 . S
N202 C199 1.384 . S
N203 C195 1.427 . S
N203 C201 1.384 . S
H204 C210 0.930 . S
H205 C214 0.930 . S
H206 C219 0.929 . S
H207 C217 0.929 . S
H208 C212 0.929 . S
H209 C218 0.929 . S
C210 H204 0.930 . S
C210 C211 1.367 . S
C210 C218 1.378 . S
C211 C210 1.367 . S
C211 C219 1.433 . S
C212 H208 0.929 . S
C212 C214 1.378 . S
C212 C216 1.350 . S
C213 C216 1.463 . S
C213 C218 1.350 . S
C213 N221 1.427 . S
C214 H205 0.930 . S
C214 C212 1.378 . S
C214 C215 1.367 . S
C215 C214 1.367 . S
C215 C217 1.433 . S
C216 C212 1.350 . S
C216 C213 1.463 . S
C216 N220 1.427 . S
C217 H207 0.929 . S
C217 C215 1.433 . S
C217 N220 1.384 . S
C218 H209 0.929 . S
C218 C210 1.378 . S
C218 C213 1.350 . S
C219 H206 0.929 . S
C219 C211 1.433 . S
C219 N221 1.384 . S
N220 C216 1.427 . S
N220 C217 1.384 . S
N221 C213 1.427 . S
N221 C219 1.384 . S
H222 C228 0.930 . S
H223 C232 0.930 . S
H224 C237 0.929 . S
H225 C235 0.929 . S
H226 C230 0.929 . S
H227 C236 0.929 . S
C228 H222 0.930 . S
C228 C229 1.367 . S
C228 C236 1.378 . S
C229 C228 1.367 . S
C229 C237 1.433 . S
C230 H226 0.929 . S
C230 C232 1.378 . S
C230 C234 1.350 . S
C231 C234 1.463 . S
C231 C236 1.350 . S
C231 N239 1.427 . S
C232 H223 0.930 . S
C232 C230 1.378 . S
C232 C233 1.367 . S
C233 C232 1.367 . S
C233 C235 1.433 . S
C234 C230 1.350 . S
C234 C231 1.463 . S
C234 N238 1.427 . S
C235 H225 0.929 . S
C235 C233 1.433 . S
C235 N238 1.384 . S
C236 H227 0.929 . S
C236 C228 1.378 . S
C236 C231 1.350 . S
C237 H224 0.929 . S
C237 C229 1.433 . S
C237 N239 1.384 . S
N238 C234 1.427 . S
N238 C235 1.384 . S
N239 C231 1.427 . S
N239 C237 1.384 . S
H240 C246 0.930 . S
H241 C250 0.930 . S
H242 C255 0.929 . S
H243 C253 0.929 . S
H244 C248 0.929 . S
H245 C254 0.929 . S
C246 H240 0.930 . S
C246 C247 1.367 . S
C246 C254 1.378 . S
C247 C246 1.367 . S
C247 C255 1.433 . S
C248 H244 0.929 . S
C248 C250 1.378 . S
C248 C252 1.350 . S
C249 C252 1.463 . S
C249 C254 1.350 . S
C249 N257 1.427 . S
C250 H241 0.930 . S
C250 C248 1.378 . S
C250 C251 1.367 . S
C251 C250 1.367 . S
C251 C253 1.433 . S
C252 C248 1.350 . S
C252 C249 1.463 . S
C252 N256 1.427 . S
C253 H243 0.929 . S
C253 C251 1.433 . S
C253 N256 1.384 . S
C254 H245 0.929 . S
C254 C246 1.378 . S
C254 C249 1.350 . S
C255 H242 0.929 . S
C255 C247 1.433 . S
C255 N257 1.384 . S
N256 C252 1.427 . S
N256 C253 1.384 . S
N257 C249 1.427 . S
N257 C255 1.384 . S
H258 C264 0.930 . S
H259 C268 0.930 . S
H260 C273 0.929 . S
H261 C271 0.929 . S
H262 C266 0.929 . S
H263 C272 0.929 . S
C264 H258 0.930 . S
C264 C265 1.367 . S
C264 C272 1.378 . S
C265 C264 1.367 . S
C265 C273 1.433 . S
C266 H262 0.929 . S
C266 C268 1.378 . S
C266 C270 1.350 . S
C267 C270 1.463 . S
C267 C272 1.350 . S
C267 N275 1.427 . S
C268 H259 0.930 . S
C268 C266 1.378 . S
C268 C269 1.367 . S
C269 C268 1.367 . S
C269 C271 1.433 . S
C270 C266 1.350 . S
C270 C267 1.463 . S
C270 N274 1.427 . S
C271 H261 0.929 . S
C271 C269 1.433 . S
C271 N274 1.384 . S
C272 H263 0.929 . S
C272 C264 1.378 . S
C272 C267 1.350 . S
C273 H260 0.929 . S
C273 C265 1.433 . S
C273 N275 1.384 . S
N274 C270 1.427 . S
N274 C271 1.384 . S
N275 C267 1.427 . S
N275 C273 1.384 . S
H276 C282 0.930 . S
H277 C286 0.930 . S
H278 C291 0.929 . S
H279 C289 0.929 . S
H280 C284 0.929 . S
H281 C290 0.929 . S
C282 H276 0.930 . S
C282 C283 1.367 . S
C282 C290 1.378 . S
C283 C282 1.367 . S
C283 C291 1.433 . S
C284 H280 0.929 . S
C284 C286 1.378 . S
C284 C288 1.350 . S
C285 C288 1.463 . S
C285 C290 1.350 . S
C285 N293 1.427 . S
C286 H277 0.930 . S
C286 C284 1.378 . S
C286 C287 1.367 . S
C287 C286 1.367 . S
C287 C289 1.433 . S
C288 C284 1.350 . S
C288 C285 1.463 . S
C288 N292 1.427 . S
C289 H279 0.929 . S
C289 C287 1.433 . S
C289 N292 1.384 . S
C290 H281 0.929 . S
C290 C282 1.378 . S
C290 C285 1.350 . S
C291 H278 0.929 . S
C291 C283 1.433 . S
C291 N293 1.384 . S
N292 C288 1.427 . S
N292 C289 1.384 . S
N293 C285 1.427 . S
N293 C291 1.384 . S
H294 C300 0.930 . S
H295 C304 0.930 . S
H296 C309 0.929 . S
H297 C307 0.929 . S
H298 C302 0.929 . S
H299 C308 0.929 . S
C300 H294 0.930 . S
C300 C301 1.367 . S
C300 C308 1.378 . S
C301 C300 1.367 . S
C301 C309 1.433 . S
C302 H298 0.929 . S
C302 C304 1.378 . S
C302 C306 1.350 . S
C303 C306 1.463 . S
C303 C308 1.350 . S
C303 N311 1.427 . S
C304 H295 0.930 . S
C304 C302 1.378 . S
C304 C305 1.367 . S
C305 C304 1.367 . S
C305 C307 1.433 . S
C306 C302 1.350 . S
C306 C303 1.463 . S
C306 N310 1.427 . S
C307 H297 0.929 . S
C307 C305 1.433 . S
C307 N310 1.384 . S
C308 H299 0.929 . S
C308 C300 1.378 . S
C308 C303 1.350 . S
C309 H296 0.929 . S
C309 C301 1.433 . S
C309 N311 1.384 . S
N310 C306 1.427 . S
N310 C307 1.384 . S
N311 C303 1.427 . S
N311 C309 1.384 . S
H312 C318 0.930 . S
H313 C322 0.930 . S
H314 C327 0.929 . S
H315 C325 0.929 . S
H316 C320 0.929 . S
H317 C326 0.929 . S
C318 H312 0.930 . S
C318 C319 1.367 . S
C318 C326 1.378 . S
C319 C318 1.367 . S
C319 C327 1.433 . S
C320 H316 0.929 . S
C320 C322 1.378 . S
C320 C324 1.350 . S
C321 C324 1.463 . S
C321 C326 1.350 . S
C321 N329 1.427 . S
C322 H313 0.930 . S
C322 C320 1.378 . S
C322 C323 1.367 . S
C323 C322 1.367 . S
C323 C325 1.433 . S
C324 C320 1.350 . S
C324 C321 1.463 . S
C324 N328 1.427 . S
C325 H315 0.929 . S
C325 C323 1.433 . S
C325 N328 1.384 . S
C326 H317 0.929 . S
C326 C318 1.378 . S
C326 C321 1.350 . S
C327 H314 0.929 . S
C327 C319 1.433 . S
C327 N329 1.384 . S
N328 C324 1.427 . S
N328 C325 1.384 . S
N329 C321 1.427 . S
N329 C327 1.384 . S
H330 C336 0.930 . S
H331 C340 0.930 . S
H332 C345 0.929 . S
H333 C343 0.929 . S
H334 C338 0.929 . S
H335 C344 0.929 . S
C336 H330 0.930 . S
C336 C337 1.367 . S
C336 C344 1.378 . S
C337 C336 1.367 . S
C337 C345 1.433 . S
C338 H334 0.929 . S
C338 C340 1.378 . S
C338 C342 1.350 . S
C339 C342 1.463 . S
C339 C344 1.350 . S
C339 N347 1.427 . S
C340 H331 0.930 . S
C340 C338 1.378 . S
C340 C341 1.367 . S
C341 C340 1.367 . S
C341 C343 1.433 . S
C342 C338 1.350 . S
C342 C339 1.463 . S
C342 N346 1.427 . S
C343 H333 0.929 . S
C343 C341 1.433 . S
C343 N346 1.384 . S
C344 H335 0.929 . S
C344 C336 1.378 . S
C344 C339 1.350 . S
C345 H332 0.929 . S
C345 C337 1.433 . S
C345 N347 1.384 . S
N346 C342 1.427 . S
N346 C343 1.384 . S
N347 C339 1.427 . S
N347 C345 1.384 . S
H348 C354 0.930 . S
H349 C358 0.930 . S
H350 C363 0.929 . S
H351 C361 0.929 . S
H352 C356 0.929 . S
H353 C362 0.929 . S
C354 H348 0.930 . S
C354 C355 1.367 . S
C354 C362 1.378 . S
C355 C354 1.367 . S
C355 C363 1.433 . S
C356 H352 0.929 . S
C356 C358 1.378 . S
C356 C360 1.350 . S
C357 C360 1.463 . S
C357 C362 1.350 . S
C357 N365 1.427 . S
C358 H349 0.930 . S
C358 C356 1.378 . S
C358 C359 1.367 . S
C359 C358 1.367 . S
C359 C361 1.433 . S
C360 C356 1.350 . S
C360 C357 1.463 . S
C360 N364 1.427 . S
C361 H351 0.929 . S
C361 C359 1.433 . S
C361 N364 1.384 . S
C362 H353 0.929 . S
C362 C354 1.378 . S
C362 C357 1.350 . S
C363 H350 0.929 . S
C363 C355 1.433 . S
C363 N365 1.384 . S
N364 C360 1.427 . S
N364 C361 1.384 . S
N365 C357 1.427 . S
N365 C363 1.384 . S
H366 C372 0.930 . S
H367 C376 0.930 . S
H368 C381 0.929 . S
H369 C379 0.929 . S
H370 C374 0.929 . S
H371 C380 0.929 . S
C372 H366 0.930 . S
C372 C373 1.367 . S
C372 C380 1.378 . S
C373 C372 1.367 . S
C373 C381 1.433 . S
C374 H370 0.929 . S
C374 C376 1.378 . S
C374 C378 1.350 . S
C375 C378 1.463 . S
C375 C380 1.350 . S
C375 N383 1.427 . S
C376 H367 0.930 . S
C376 C374 1.378 . S
C376 C377 1.367 . S
C377 C376 1.367 . S
C377 C379 1.433 . S
C378 C374 1.350 . S
C378 C375 1.463 . S
C378 N382 1.427 . S
C379 H369 0.929 . S
C379 C377 1.433 . S
C379 N382 1.384 . S
C380 H371 0.929 . S
C380 C372 1.378 . S
C380 C375 1.350 . S
C381 H368 0.929 . S
C381 C373 1.433 . S
C381 N383 1.384 . S
N382 C378 1.427 . S
N382 C379 1.384 . S
N383 C375 1.427 . S
N383 C381 1.384 . S
H384 C390 0.930 . S
H385 C394 0.930 . S
H386 C399 0.929 . S
H387 C397 0.929 . S
H388 C392 0.929 . S
H389 C398 0.929 . S
C390 H384 0.930 . S
C390 C391 1.367 . S
C390 C398 1.378 . S
C391 C390 1.367 . S
C391 C399 1.433 . S
C392 H388 0.929 . S
C392 C394 1.378 . S
C392 C396 1.350 . S
C393 C396 1.463 . S
C393 C398 1.350 . S
C393 N401 1.427 . S
C394 H385 0.930 . S
C394 C392 1.378 . S
C394 C395 1.367 . S
C395 C394 1.367 . S
C395 C397 1.433 . S
C396 C392 1.350 . S
C396 C393 1.463 . S
C396 N400 1.427 . S
C397 H387 0.929 . S
C397 C395 1.433 . S
C397 N400 1.384 . S
C398 H389 0.929 . S
C398 C390 1.378 . S
C398 C393 1.350 . S
C399 H386 0.929 . S
C399 C391 1.433 . S
C399 N401 1.384 . S
N400 C396 1.427 . S
N400 C397 1.384 . S
N401 C393 1.427 . S
N401 C399 1.384 . S
H402 C408 0.930 . S
H403 C412 0.930 . S
H404 C417 0.929 . S
H405 C415 0.929 . S
H406 C410 0.933 . S
H407 C416 0.929 . S
C408 H402 0.930 . S
C408 C409 1.367 . S
C408 C416 1.378 . S
C409 C408 1.367 . S
C409 C417 1.433 1_455 S
C410 H406 0.933 . S
C410 C412 1.378 . S
C410 C414 1.350 1_656 S
C411 C414 1.463 . S
C411 C416 1.350 . S
C411 N419 1.427 1_455 S
C412 H403 0.930 . S
C412 C410 1.378 . S
C412 C413 1.367 1_655 S
C413 C412 1.367 1_455 S
C413 C415 1.433 . S
C414 C410 1.350 1_454 S
C414 C411 1.463 . S
C414 N418 1.417 1_554 S
C415 H405 0.929 . S
C415 C413 1.433 . S
C415 N418 1.411 . S
C416 H407 0.929 . S
C416 C408 1.378 . S
C416 C411 1.350 . S
C417 H404 0.929 . S
C417 C409 1.433 1_655 S
C417 N419 1.384 . S
N418 C414 1.417 1_556 S
N418 C415 1.411 . S
N419 C411 1.427 1_655 S
N419 C417 1.384 . S
H420 C426 0.930 . S
H421 C430 0.930 . S
H422 C435 0.929 . S
H423 C433 0.929 . S
H424 C428 0.929 . S
H425 C434 0.929 . S
C426 H420 0.930 . S
C426 C427 1.367 1_565 S
C426 C434 1.378 . S
C427 C426 1.367 1_545 S
C427 C435 1.433 . S
C428 H424 0.929 . S
C428 C430 1.378 . S
C428 C432 1.350 . S
C429 C432 1.463 . S
C429 C434 1.350 1_545 S
C429 N437 1.427 . S
C430 H421 0.930 . S
C430 C428 1.378 . S
C430 C431 1.367 . S
C431 C430 1.367 . S
C431 C433 1.433 1_545 S
C432 C428 1.350 . S
C432 C429 1.463 . S
C432 N436 1.427 1_545 S
C433 H423 0.929 . S
C433 C431 1.433 1_565 S
C433 N436 1.384 . S
C434 H425 0.929 . S
C434 C426 1.378 . S
C434 C429 1.350 1_565 S
C435 H422 0.929 . S
C435 C427 1.433 . S
C435 N437 1.384 . S
N436 C432 1.427 1_565 S
N436 C433 1.384 . S
N437 C429 1.427 . S
N437 C435 1.384 . S
H438 C444 0.930 . S
H439 C448 0.930 . S
H440 C453 0.929 . S
H441 C451 0.929 . S
H442 C446 0.929 . S
H443 C452 0.929 . S
C444 H438 0.930 . S
C444 C445 1.367 . S
C444 C452 1.378 . S
C445 C444 1.367 . S
C445 C453 1.433 . S
C446 H442 0.929 . S
C446 C448 1.378 . S
C446 C450 1.350 . S
C447 C450 1.463 . S
C447 C452 1.350 . S
C447 N455 1.427 . S
C448 H439 0.930 . S
C448 C446 1.378 . S
C448 C449 1.367 . S
C449 C448 1.367 . S
C449 C451 1.433 . S
C450 C446 1.350 . S
C450 C447 1.463 . S
C450 N454 1.427 . S
C451 H441 0.929 . S
C451 C449 1.433 . S
C451 N454 1.384 . S
C452 H443 0.929 . S
C452 C444 1.378 . S
C452 C447 1.350 . S
C453 H440 0.929 . S
C453 C445 1.433 . S
C453 N455 1.384 . S
N454 C450 1.427 . S
N454 C451 1.384 . S
N455 C447 1.427 . S
N455 C453 1.384 . S
H456 C462 0.930 . S
H457 C466 0.930 . S
H458 C471 0.929 . S
H459 C469 0.929 . S
H460 C464 0.929 . S
H461 C470 0.929 . S
C462 H456 0.930 . S
C462 C463 1.367 1_565 S
C462 C470 1.378 . S
C463 C462 1.367 1_545 S
C463 C471 1.433 . S
C464 H460 0.929 . S
C464 C466 1.378 . S
C464 C468 1.350 . S
C465 C468 1.463 . S
C465 C470 1.350 1_545 S
C465 N473 1.427 . S
C466 H457 0.930 . S
C466 C464 1.378 . S
C466 C467 1.367 . S
C467 C466 1.367 . S
C467 C469 1.433 1_545 S
C468 C464 1.350 . S
C468 C465 1.463 . S
C468 N472 1.427 1_545 S
C469 H459 0.929 . S
C469 C467 1.433 1_565 S
C469 N472 1.384 . S
C470 H461 0.929 . S
C470 C462 1.378 . S
C470 C465 1.350 1_565 S
C471 H458 0.929 . S
C471 C463 1.433 . S
C471 N473 1.384 . S
N472 C468 1.427 1_565 S
N472 C469 1.384 . S
N473 C465 1.427 . S
N473 C471 1.384 . S
H474 C480 0.930 . S
H475 C484 0.930 . S
H476 C489 0.929 . S
H477 C487 0.929 . S
H478 C482 0.929 . S
H479 C488 0.929 . S
C480 H474 0.930 . S
C480 C481 1.367 . S
C480 C488 1.378 . S
C481 C480 1.367 . S
C481 C489 1.433 . S
C482 H478 0.929 . S
C482 C484 1.378 . S
C482 C486 1.350 1_554 S
C483 C486 1.463 . S
C483 C488 1.350 . S
C483 N491 1.427 . S
C484 H475 0.930 . S
C484 C482 1.378 . S
C484 C485 1.367 . S
C485 C484 1.367 . S
C485 C487 1.433 . S
C486 C482 1.350 1_556 S
C486 C483 1.463 . S
C486 N490 1.427 1_556 S
C487 H477 0.929 . S
C487 C485 1.433 . S
C487 N490 1.384 . S
C488 H479 0.929 . S
C488 C480 1.378 . S
C488 C483 1.350 . S
C489 H476 0.929 . S
C489 C481 1.433 . S
C489 N491 1.384 . S
N490 C486 1.427 1_554 S
N490 C487 1.384 . S
N491 C483 1.427 . S
N491 C489 1.384 . S
H492 C498 0.935 1_655 S
H493 C502 0.934 1_455 S
H494 C507 0.929 . S
H495 C505 0.929 . S
H496 C500 0.929 . S
H497 C506 0.929 . S
C498 H492 0.935 1_455 S
C498 C499 1.367 . S
C498 C506 1.378 1_455 S
C499 C498 1.367 . S
C499 C507 1.433 . S
C500 H496 0.929 . S
C500 C502 1.376 1_455 S
C500 C504 1.357 1_455 S
C501 C504 1.460 1_455 S
C501 C506 1.350 1_455 S
C501 N509 1.427 . S
C502 H493 0.934 1_655 S
C502 C500 1.376 1_655 S
C502 C503 1.365 . S
C503 C502 1.365 . S
C503 C505 1.433 . S
C504 C500 1.357 1_655 S
C504 C501 1.460 1_655 S
C504 N508 1.424 . S
C505 H495 0.929 . S
C505 C503 1.433 . S
C505 N508 1.384 . S
C506 H497 0.929 . S
C506 C498 1.378 1_655 S
C506 C501 1.350 1_655 S
C507 H494 0.929 . S
C507 C499 1.433 . S
C507 N509 1.384 . S
N508 C504 1.424 . S
N508 C505 1.384 . S
N509 C501 1.427 . S
N509 C507 1.384 . S
C193 C10 3.279 . S
C197 C180 2.929 . S
C211 C55 1.347 . S
C215 C158 1.168 . S
C229 C90 1.791 . S
C233 C172 1.756 . S
C247 C19 2.880 . S
C251 C183 2.822 . S
C269 C161 1.097 . S
C265 C46 1.100 . S
C287 C169 1.807 . S
C283 C99 2.129 . S
C301 C50 2.047 . S
C305 C136 1.770 . S
C319 C95 0.684 . S
C323 C147 0.763 . S
C337 C6 1.408 . S
C341 C125 1.189 . S
C359 C139 1.820 . S
C355 C59 1.868 . S
C377 C150 0.217 . S
C373 C86 0.374 . S
C391 C15 1.090 . S
C395 C128 1.063 . S
C413 C149 1.196 . S
C409 C18 1.246 . S
C427 C49 1.454 . S
C431 C127 1.441 . S
C445 C98 1.437 . S
C449 C138 1.404 . S
C467 C171 1.399 . S
C463 C58 1.407 . S
C485 C182 1.653 . S
C481 C89 1.659 . S
C499 C9 1.513 . S
C503 C160 1.472 . S
