# Generated by pormake.
# Topology csq, (4,8)-cn, num edge types: 1
# Building blocks:
#     Node 0, Type 0, BuildingBlock: KOZSID_clean_sbu_0, # of connection points: 4
#     Node 1, Type 0, BuildingBlock: KOZSID_clean_sbu_0, # of connection points: 4
#     Node 2, Type 0, BuildingBlock: KOZSID_clean_sbu_0, # of connection points: 4
#     Node 3, Type 0, BuildingBlock: KOZSID_clean_sbu_0, # of connection points: 4
#     Node 4, Type 0, BuildingBlock: KOZSID_clean_sbu_0, # of connection points: 4
#     Node 5, Type 0, BuildingBlock: KOZSID_clean_sbu_0, # of connection points: 4
#     Node 6, Type 1, BuildingBlock: TAGTUT_clean_sbu_3, # of connection points: 8
#     Node 7, Type 1, BuildingBlock: TAGTUT_clean_sbu_3, # of connection points: 8
#     Node 8, Type 1, BuildingBlock: TAGTUT_clean_sbu_3, # of connection points: 8
#     Edge 9, Type (0, 1), BuildingBlock: TEMPAE_clean_linker_10, # of connection points: 2
#     Edge 10, Type (0, 1), BuildingBlock: TEMPAE_clean_linker_10, # of connection points: 2
#     Edge 11, Type (0, 1), BuildingBlock: TEMPAE_clean_linker_10, # of connection points: 2
#     Edge 12, Type (0, 1), BuildingBlock: TEMPAE_clean_linker_10, # of connection points: 2
#     Edge 13, Type (0, 1), BuildingBlock: TEMPAE_clean_linker_10, # of connection points: 2
#     Edge 14, Type (0, 1), BuildingBlock: TEMPAE_clean_linker_10, # of connection points: 2
#     Edge 15, Type (0, 1), BuildingBlock: TEMPAE_clean_linker_10, # of connection points: 2
#     Edge 16, Type (0, 1), BuildingBlock: TEMPAE_clean_linker_10, # of connection points: 2
#     Edge 17, Type (0, 1), BuildingBlock: TEMPAE_clean_linker_10, # of connection points: 2
#     Edge 18, Type (0, 1), BuildingBlock: TEMPAE_clean_linker_10, # of connection points: 2
#     Edge 19, Type (0, 1), BuildingBlock: TEMPAE_clean_linker_10, # of connection points: 2
#     Edge 20, Type (0, 1), BuildingBlock: TEMPAE_clean_linker_10, # of connection points: 2
#     Edge 21, Type (0, 1), BuildingBlock: TEMPAE_clean_linker_10, # of connection points: 2
#     Edge 22, Type (0, 1), BuildingBlock: TEMPAE_clean_linker_10, # of connection points: 2
#     Edge 23, Type (0, 1), BuildingBlock: TEMPAE_clean_linker_10, # of connection points: 2
#     Edge 24, Type (0, 1), BuildingBlock: TEMPAE_clean_linker_10, # of connection points: 2
#     Edge 25, Type (0, 1), BuildingBlock: TEMPAE_clean_linker_10, # of connection points: 2
#     Edge 26, Type (0, 1), BuildingBlock: TEMPAE_clean_linker_10, # of connection points: 2
#     Edge 27, Type (0, 1), BuildingBlock: TEMPAE_clean_linker_10, # of connection points: 2
#     Edge 28, Type (0, 1), BuildingBlock: TEMPAE_clean_linker_10, # of connection points: 2
#     Edge 29, Type (0, 1), BuildingBlock: TEMPAE_clean_linker_10, # of connection points: 2
#     Edge 30, Type (0, 1), BuildingBlock: TEMPAE_clean_linker_10, # of connection points: 2
#     Edge 31, Type (0, 1), BuildingBlock: TEMPAE_clean_linker_10, # of connection points: 2
#     Edge 32, Type (0, 1), BuildingBlock: TEMPAE_clean_linker_10, # of connection points: 2
# Relax obj value: 0.031
# Max RMSD: 0.125
# Mean RMSD: 0.043
data_MOF--net-csq--node1-KOZSID_clean_sbu_0--node2-TAGTUT_clean_sbu_3--edge1-TEMPAE_clean_linker_10
_symmetry_space_group_name_H-M    P1
_symmetry_Int_Tables_number       1
_symmetry_cell_setting            triclinic
loop_
_symmetry_equiv_pos_as_xyz
'x, y, z'
_cell_length_a     57.708061
_cell_length_b     56.906264
_cell_length_c     20.540947
_cell_angle_alpha  87.846238
_cell_angle_beta   97.412685
_cell_angle_gamma 119.91922
loop_
_atom_site_label
_atom_site_type_symbol
_atom_site_fract_x
_atom_site_fract_y
_atom_site_fract_z
_atom_type_partial_charge
C0 C 0.29904 0.52649 0.25276 0.0
C1 C 0.31309 0.55454 0.25775 0.0
C2 C 0.29748 0.56302 0.21917 0.0
C3 C 0.27493 0.53965 0.19314 0.0
N4 N 0.27547 0.5172 0.21333 0.0
Co5 Co 0.24868 0.47924 0.18568 0.0
N6 N 0.23456 0.49098 0.10564 0.0
C7 C 0.23845 0.51623 0.09586 0.0
C8 C 0.22538 0.51835 0.03736 0.0
C9 C 0.21204 0.49283 0.00912 0.0
C10 C 0.21765 0.47627 0.05216 0.0
N11 N 0.22209 0.44108 0.15856 0.0
C12 C 0.20718 0.43052 0.0998 0.0
C13 C 0.19198 0.40241 0.10128 0.0
C14 C 0.19676 0.39534 0.16391 0.0
C15 C 0.21481 0.41936 0.19694 0.0
N16 N 0.2627 0.46778 0.26607 0.0
C17 C 0.2503 0.44378 0.29505 0.0
C18 C 0.26604 0.44191 0.34892 0.0
C19 C 0.2898 0.46621 0.35355 0.0
C20 C 0.28705 0.48152 0.30213 0.0
N21 N 0.22245 0.48117 0.23408 0.0
C22 C 0.18566 0.4864 0.30152 0.0
C23 C 0.1781 0.4748 0.23774 0.0
C24 C 0.19656 0.47204 0.20552 0.0
C25 C 0.21216 0.49505 0.33076 0.0
C26 C 0.2302 0.49253 0.29615 0.0
N27 N 0.27517 0.4777 0.13765 0.0
C28 C 0.30145 0.45713 0.11733 0.0
C29 C 0.31642 0.47833 0.07658 0.0
C30 C 0.30975 0.49888 0.06633 0.0
C31 C 0.28933 0.49828 0.09745 0.0
C32 C 0.28084 0.45707 0.14678 0.0
H33 H 0.28528 0.51478 0.08962 0.0
H34 H 0.26985 0.44058 0.17806 0.0
H35 H 0.18987 0.46282 0.157 0.0
H36 H 0.25054 0.49992 0.31965 0.0
C37 C 0.25668 0.53796 0.13911 0.0
C38 C 0.30763 0.5088 0.28732 0.0
C39 C 0.20301 0.44634 0.04605 0.0
C40 C 0.22766 0.42188 0.26107 0.0
H41 H 0.33257 0.56737 0.28561 0.0
H42 H 0.30279 0.58373 0.20816 0.0
H43 H 0.22564 0.53633 0.0173 0.0
H44 H 0.19896 0.48718 0.96306 0.0
H45 H 0.17795 0.38859 0.06191 0.0
H46 H 0.18833 0.37509 0.18281 0.0
H47 H 0.26164 0.42432 0.37831 0.0
H48 H 0.30725 0.47164 0.38949 0.0
H49 H 0.15815 0.46814 0.21202 0.0
H50 H 0.21905 0.50354 0.38037 0.0
H51 H 0.30586 0.44087 0.12753 0.0
H52 H 0.3201 0.51539 0.03417 0.0
C53 C 0.81801 0.27407 0.03497 0.0
C54 C 0.8378 0.27047 0.01261 0.0
C55 C 0.83471 0.24652 0.03625 0.0
C56 C 0.81318 0.23669 0.07106 0.0
N57 N 0.802 0.25273 0.07037 0.0
Co58 Co 0.77025 0.24582 0.11482 0.0
N59 N 0.76484 0.20979 0.14618 0.0
C60 C 0.77963 0.19824 0.13541 0.0
C61 C 0.77024 0.17275 0.15969 0.0
C62 C 0.74768 0.16739 0.18625 0.0
C63 C 0.74459 0.19 0.17633 0.0
N64 N 0.73916 0.23942 0.16148 0.0
C65 C 0.72166 0.21705 0.19152 0.0
C66 C 0.70212 0.22077 0.21482 0.0
C67 C 0.70742 0.24629 0.19881 0.0
C68 C 0.72968 0.25666 0.16646 0.0
N69 N 0.77481 0.28127 0.08062 0.0
C70 C 0.75947 0.29235 0.09012 0.0
C71 C 0.7676 0.31702 0.06213 0.0
C72 C 0.78944 0.32207 0.03277 0.0
C73 C 0.79332 0.29997 0.04418 0.0
N74 N 0.74507 0.22682 0.03526 0.0
C75 C 0.70304 0.18914 0.94611 0.0
C76 C 0.70008 0.20844 0.97803 0.0
C77 C 0.72157 0.22753 0.02101 0.0
C78 C 0.72805 0.19058 0.95409 0.0
C79 C 0.74877 0.20957 0.99875 0.0
N80 N 0.79521 0.26441 0.19561 0.0
C81 C 0.81306 0.29962 0.28014 0.0
C82 C 0.83078 0.29121 0.30988 0.0
C83 C 0.83007 0.26884 0.28189 0.0
C84 C 0.81241 0.25597 0.22506 0.0
C85 C 0.79555 0.28599 0.22397 0.0
H86 H 0.81331 0.23942 0.20574 0.0
H87 H 0.7828 0.29364 0.20404 0.0
H88 H 0.71828 0.2418 0.04455 0.0
H89 H 0.76708 0.20896 0.00531 0.0
C90 C 0.80189 0.21165 0.10107 0.0
C91 C 0.81547 0.29821 0.02164 0.0
C92 C 0.72168 0.19136 0.19468 0.0
C93 C 0.73933 0.28046 0.13124 0.0
H94 H 0.8529 0.28372 0.98211 0.0
H95 H 0.84652 0.23717 0.0282 0.0
H96 H 0.77849 0.15945 0.15718 0.0
H97 H 0.7347 0.14875 0.20928 0.0
H98 H 0.68506 0.20624 0.23844 0.0
H99 H 0.69548 0.25555 0.20633 0.0
H100 H 0.75923 0.33022 0.06474 0.0
H101 H 0.80148 0.34033 0.0073 0.0
H102 H 0.68106 0.20828 0.97132 0.0
H103 H 0.7311 0.17613 0.92892 0.0
H104 H 0.8132 0.31726 0.29868 0.0
H105 H 0.84327 0.2614 0.3032 0.0
C106 C 0.55215 0.73936 0.12721 0.0
C107 C 0.57684 0.74547 0.16231 0.0
C108 C 0.59527 0.77062 0.14441 0.0
C109 C 0.58092 0.77863 0.10005 0.0
N110 N 0.55436 0.76005 0.08818 0.0
Co111 Co 0.526 0.76432 0.02987 0.0
N112 N 0.55282 0.80243 0.0085 0.0
C113 C 0.57932 0.81645 0.03221 0.0
C114 C 0.59264 0.84219 0.00933 0.0
C115 C 0.57362 0.84476 0.96796 0.0
C116 C 0.5497 0.82022 0.96752 0.0
N117 N 0.49768 0.76842 0.971 0.0
C118 C 0.49986 0.78912 0.93219 0.0
C119 C 0.47531 0.78282 0.89597 0.0
C120 C 0.45698 0.75745 0.91277 0.0
C121 C 0.47128 0.74957 0.95764 0.0
N122 N 0.4991 0.72634 0.05184 0.0
C123 C 0.47253 0.71245 0.02882 0.0
C124 C 0.45915 0.68674 0.05175 0.0
C125 C 0.47818 0.68409 0.09277 0.0
C126 C 0.50216 0.70858 0.09303 0.0
N127 N 0.51819 0.77831 0.10624 0.0
C128 C 0.50787 0.79825 0.21613 0.0
C129 C 0.4867 0.77872 0.17289 0.0
C130 C 0.49228 0.76917 0.11851 0.0
C131 C 0.53419 0.80738 0.20341 0.0
C132 C 0.53882 0.79716 0.14915 0.0
N133 N 0.53394 0.75033 0.95367 0.0
C134 C 0.51899 0.71797 0.86351 0.0
C135 C 0.54549 0.72813 0.85035 0.0
C136 C 0.56593 0.75052 0.88794 0.0
C137 C 0.55979 0.76105 0.9392 0.0
C138 C 0.51372 0.72947 0.91428 0.0
H139 H 0.57642 0.77755 0.96701 0.0
H140 H 0.49316 0.72067 0.92158 0.0
H141 H 0.47534 0.7545 0.087 0.0
H142 H 0.55934 0.80507 0.14278 0.0
C143 C 0.59135 0.80438 0.07347 0.0
C144 C 0.52706 0.71408 0.13432 0.0
C145 C 0.52474 0.81472 0.92657 0.0
C146 C 0.46072 0.72414 0.98564 0.0
H147 H 0.58112 0.73337 0.19841 0.0
H148 H 0.61646 0.78212 0.16329 0.0
H149 H 0.61377 0.85715 0.02058 0.0
H150 H 0.57708 0.86262 0.94066 0.0
H151 H 0.47108 0.79504 0.86011 0.0
H152 H 0.43585 0.74587 0.89341 0.0
H153 H 0.43804 0.67176 0.04024 0.0
H154 H 0.47468 0.66616 0.11979 0.0
H155 H 0.46592 0.7709 0.1806 0.0
H156 H 0.55137 0.82305 0.23405 0.0
H157 H 0.50231 0.70039 0.83686 0.0
H158 H 0.58675 0.75957 0.87913 0.0
C159 C 0.83234 0.569 0.14295 0.0
C160 C 0.85221 0.59613 0.14768 0.0
C161 C 0.84336 0.60933 0.10344 0.0
C162 C 0.81867 0.58958 0.07458 0.0
N163 N 0.81096 0.56464 0.09867 0.0
Co164 Co 0.77733 0.52983 0.06882 0.0
N165 N 0.76572 0.54863 0.99844 0.0
C166 C 0.77911 0.57522 0.98401 0.0
C167 C 0.76535 0.58237 0.93545 0.0
C168 C 0.7415 0.5591 0.91873 0.0
C169 C 0.74215 0.53903 0.95824 0.0
N170 N 0.74368 0.49501 0.03877 0.0
C171 C 0.72217 0.49069 0.99495 0.0
C172 C 0.70223 0.46359 0.9903 0.0
C173 C 0.71123 0.45033 0.03389 0.0
C174 C 0.73603 0.47003 0.06239 0.0
N175 N 0.78885 0.51099 0.13926 0.0
C176 C 0.77543 0.48435 0.15324 0.0
C177 C 0.78915 0.47701 0.20127 0.0
C178 C 0.813 0.50019 0.21824 0.0
C179 C 0.81237 0.52052 0.17963 0.0
N180 N 0.75757 0.53689 0.13078 0.0
C181 C 0.72835 0.54647 0.21651 0.0
C182 C 0.72795 0.52169 0.2152 0.0
C183 C 0.74227 0.51728 0.17188 0.0
C184 C 0.74401 0.56646 0.17452 0.0
C185 C 0.75853 0.5614 0.13312 0.0
N186 N 0.79749 0.52297 0.00749 0.0
C187 C 0.81636 0.49612 0.97581 0.0
C188 C 0.83368 0.51723 0.93894 0.0
C189 C 0.83147 0.54054 0.93349 0.0
C190 C 0.81347 0.54302 0.9681 0.0
C191 C 0.79813 0.49918 0.00832 0.0
H192 H 0.81355 0.56174 0.96387 0.0
H193 H 0.7853 0.48231 0.03527 0.0
H194 H 0.74049 0.49774 0.17229 0.0
H195 H 0.77013 0.57758 0.10291 0.0
C196 C 0.80342 0.59339 0.02109 0.0
C197 C 0.83533 0.54793 0.17888 0.0
C198 C 0.71913 0.51178 0.95958 0.0
C199 C 0.75125 0.46622 0.11579 0.0
H200 H 0.87144 0.60526 0.17856 0.0
H201 H 0.85409 0.63058 0.09192 0.0
H202 H 0.77143 0.60235 0.91653 0.0
H203 H 0.72509 0.55735 0.88324 0.0
H204 H 0.68287 0.45457 0.95998 0.0
H205 H 0.70048 0.42908 0.04547 0.0
H206 H 0.78311 0.45692 0.21947 0.0
H207 H 0.82933 0.5015 0.25319 0.0
H208 H 0.71664 0.5056 0.2474 0.0
H209 H 0.74477 0.58586 0.17232 0.0
H210 H 0.81706 0.47744 0.97998 0.0
H211 H 0.84443 0.55731 0.90488 0.0
C212 C 0.2629 0.83013 0.17524 0.0
C213 C 0.26056 0.8516 0.19673 0.0
C214 C 0.23483 0.84587 0.17539 0.0
C215 C 0.22298 0.82137 0.14209 0.0
N216 N 0.2395 0.81093 0.14147 0.0
Co217 Co 0.23103 0.77645 0.09597 0.0
N218 N 0.19393 0.76916 0.05929 0.0
C219 C 0.18252 0.78424 0.07012 0.0
C220 C 0.15732 0.77485 0.03622 0.0
C221 C 0.15231 0.7525 0.0014 0.0
C222 C 0.17478 0.74941 0.01646 0.0
N223 N 0.22282 0.74221 0.04989 0.0
C224 C 0.20066 0.72458 0.0096 0.0
C225 C 0.20281 0.70263 0.99035 0.0
C226 C 0.22746 0.70699 0.01765 0.0
C227 C 0.23883 0.73103 0.05252 0.0
N228 N 0.26805 0.78359 0.13254 0.0
C229 C 0.27881 0.76759 0.12559 0.0
C230 C 0.30477 0.77801 0.15537 0.0
C231 C 0.31118 0.80231 0.18252 0.0
C232 C 0.28863 0.8053 0.1674 0.0
N233 N 0.21642 0.75571 0.17536 0.0
C234 C 0.19384 0.72523 0.28472 0.0
C235 C 0.21249 0.72185 0.25524 0.0
C236 C 0.22334 0.73707 0.2008 0.0
C237 C 0.18726 0.74458 0.25997 0.0
C238 C 0.19884 0.75959 0.20624 0.0
N239 N 0.24556 0.79729 0.01751 0.0
C240 C 0.27825 0.81308 0.94063 0.0
C241 C 0.27119 0.83245 0.91753 0.0
C242 C 0.24979 0.83249 0.94232 0.0
C243 C 0.23752 0.81505 0.99208 0.0
C244 C 0.26499 0.79556 0.98963 0.0
H245 H 0.22206 0.81689 0.01034 0.0
H246 H 0.27131 0.78134 0.00576 0.0
H247 H 0.23695 0.73307 0.17985 0.0
H248 H 0.19296 0.77401 0.19048 0.0
C249 C 0.19686 0.80828 0.1084 0.0
C250 C 0.28798 0.82933 0.18623 0.0
C251 C 0.1773 0.72782 0.98768 0.0
C252 C 0.26453 0.74359 0.08778 0.0
H253 H 0.27601 0.86974 0.22402 0.0
H254 H 0.226 0.85837 0.18207 0.0
H255 H 0.14445 0.78366 0.03541 0.0
H256 H 0.13433 0.74017 0.9678 0.0
H257 H 0.18815 0.68518 0.9597 0.0
H258 H 0.23609 0.69418 0.01259 0.0
H259 H 0.31768 0.76924 0.15606 0.0
H260 H 0.33041 0.81641 0.20963 0.0
H261 H 0.218 0.70687 0.27265 0.0
H262 H 0.17305 0.74804 0.28181 0.0
H263 H 0.29468 0.8121 0.92324 0.0
H264 H 0.24291 0.84642 0.92474 0.0
C265 C 0.49802 0.21843 0.24659 0.0
C266 C 0.52338 0.22395 0.27591 0.0
C267 C 0.54164 0.24762 0.25097 0.0
C268 C 0.52656 0.25506 0.20745 0.0
N269 N 0.49971 0.23774 0.20346 0.0
Co270 Co 0.47101 0.23939 0.14035 0.0
N271 N 0.4979 0.27476 0.10543 0.0
C272 C 0.52452 0.28946 0.1272 0.0
C273 C 0.53777 0.31334 0.09566 0.0
C274 C 0.51847 0.31399 0.05094 0.0
C275 C 0.49449 0.29019 0.05738 0.0
N276 N 0.44254 0.24018 0.07456 0.0
C277 C 0.44457 0.25806 0.02687 0.0
C278 C 0.41996 0.24992 0.98881 0.0
C279 C 0.40171 0.22614 0.01343 0.0
C280 C 0.41618 0.22103 0.06456 0.0
N281 N 0.44385 0.20504 0.17825 0.0
C282 C 0.41682 0.19188 0.16123 0.0
C283 C 0.40311 0.16977 0.19819 0.0
C284 C 0.42255 0.16866 0.24141 0.0
C285 C 0.44712 0.19006 0.2276 0.0
N286 N 0.46531 0.26005 0.20608 0.0
C287 C 0.45784 0.28919 0.3016 0.0
C288 C 0.43595 0.26995 0.25933 0.0
C289 C 0.44012 0.2558 0.21209 0.0
C290 C 0.48346 0.29346 0.29499 0.0
C291 C 0.48668 0.27876 0.24773 0.0
N292 N 0.4769 0.21857 0.07505 0.0
C293 C 0.46243 0.17654 0.01607 0.0
C294 C 0.48709 0.18745 0.99085 0.0
C295 C 0.50615 0.21458 0.00708 0.0
C296 C 0.50087 0.22947 0.04939 0.0
C297 C 0.4576 0.19243 0.05645 0.0
H298 H 0.51675 0.24971 0.06081 0.0
H299 H 0.43818 0.1829 0.07267 0.0
H300 H 0.42269 0.24161 0.18085 0.0
H301 H 0.50676 0.28312 0.24548 0.0
C302 C 0.53687 0.27888 0.17232 0.0
C303 C 0.47301 0.19437 0.26024 0.0
C304 C 0.46926 0.28285 0.01554 0.0
C305 C 0.40527 0.19948 0.10675 0.0
H306 H 0.52835 0.21209 0.31134 0.0
H307 H 0.56334 0.25817 0.26318 0.0
H308 H 0.55906 0.32817 0.10306 0.0
H309 H 0.52179 0.32995 0.01666 0.0
H310 H 0.41564 0.26014 0.94758 0.0
H311 H 0.38038 0.21416 0.9965 0.0
H312 H 0.38162 0.15576 0.19328 0.0
H313 H 0.41907 0.15344 0.27799 0.0
H314 H 0.41567 0.26582 0.2624 0.0
H315 H 0.50126 0.30866 0.32497 0.0
H316 H 0.44689 0.1556 0.00607 0.0
H317 H 0.52525 0.22451 0.98757 0.0
C318 C 0.05175 0.48359 0.57822 0.0
C319 C 0.04624 0.44745 0.81329 0.0
C320 C 0.96676 0.44025 0.79044 0.0
Mg321 Mg 0.02416 0.51664 0.50378 0.0
Mg322 Mg 0.01369 0.5573 0.59041 0.0
O323 O 0.00531 0.52135 0.57371 0.0
Mg324 Mg 0.01634 0.5036 0.64695 0.0
O325 O 0.02753 0.48435 0.71588 0.0
Mg326 Mg 0.00734 0.44643 0.67635 0.0
Mg327 Mg 0.02442 0.48801 0.80399 0.0
C328 C 0.98183 0.52657 0.71087 0.0
O329 O 0.04722 0.54389 0.70186 0.0
O330 O 0.00054 0.53272 0.4337 0.0
O331 O 0.04574 0.53226 0.80848 0.0
O332 O 0.06015 0.55964 0.51836 0.0
O333 O 0.99501 0.56106 0.49583 0.0
O334 O 0.05655 0.58479 0.59234 0.0
O335 O 0.98568 0.46239 0.59977 0.0
O336 O 0.98878 0.4731 0.49436 0.0
C337 C 0.97834 0.45577 0.53864 0.0
C338 C 0.99191 0.5493 0.44072 0.0
O339 O 0.98619 0.50675 0.70432 0.0
O340 O 0.03288 0.4364 0.75733 0.0
O341 O 0.99248 0.54827 0.67744 0.0
O342 O 0.97343 0.432 0.74284 0.0
O343 O 0.04571 0.46725 0.83949 0.0
O344 O 0.98259 0.46338 0.81892 0.0
O345 O 0.04558 0.50209 0.58393 0.0
O346 O 0.04091 0.46172 0.61026 0.0
C347 C 0.07009 0.58156 0.55262 0.0
C348 C 0.05374 0.55001 0.76367 0.0
C349 C 0.49577 0.04506 0.46936 0.0
C350 C 0.57179 0.03256 0.38842 0.0
C351 C 0.52457 0.95059 0.45966 0.0
Mg352 Mg 0.45896 0.01445 0.58732 0.0
Mg353 Mg 0.48457 0.99336 0.71233 0.0
O354 O 0.47406 0.99053 0.62134 0.0
Mg355 Mg 0.50314 0.00191 0.56502 0.0
O356 O 0.53118 0.0142 0.50477 0.0
Mg357 Mg 0.50718 0.99844 0.41994 0.0
Mg358 Mg 0.55923 0.00632 0.52544 0.0
C359 C 0.51185 0.96086 0.67091 0.0
O360 O 0.537 0.02916 0.644 0.0
O361 O 0.42465 0.98857 0.65326 0.0
O362 O 0.5724 0.02496 0.62434 0.0
O363 O 0.4821 0.04681 0.67127 0.0
O364 O 0.44444 0.97483 0.7359 0.0
O365 O 0.50469 0.03451 0.74776 0.0
O366 O 0.47112 0.97587 0.48092 0.0
O367 O 0.43832 0.98365 0.50169 0.0
C368 C 0.44735 0.97264 0.46647 0.0
C369 C 0.42377 0.97538 0.70627 0.0
O370 O 0.50995 0.96708 0.61018 0.0
O371 O 0.54647 0.0235 0.37085 0.0
O372 O 0.50574 0.97072 0.71672 0.0
O373 O 0.51282 0.96114 0.42288 0.0
O374 O 0.581 0.02798 0.44477 0.0
O375 O 0.54202 0.96341 0.50877 0.0
O376 O 0.49507 0.03588 0.52742 0.0
O377 O 0.50132 0.03522 0.42254 0.0
C378 C 0.49831 0.05181 0.72416 0.0
C379 C 0.56129 0.03394 0.65914 0.0
C380 C 0.53204 0.56256 0.70113 0.0
C381 C 0.44935 0.48161 0.79487 0.0
C382 C 0.48144 0.43334 0.72839 0.0
Mg383 Mg 0.56483 0.56441 0.58194 0.0
Mg384 Mg 0.53278 0.52189 0.45664 0.0
O385 O 0.54323 0.52577 0.54752 0.0
Mg386 Mg 0.51444 0.51041 0.60732 0.0
O387 O 0.48773 0.49724 0.67213 0.0
Mg388 Mg 0.51181 0.50142 0.75566 0.0
Mg389 Mg 0.4552 0.46432 0.65773 0.0
C390 C 0.4984 0.46088 0.50148 0.0
O391 O 0.48151 0.51022 0.53204 0.0
O392 O 0.5968 0.5691 0.51501 0.0
O393 O 0.4436 0.47335 0.55821 0.0
O394 O 0.54636 0.58116 0.49808 0.0
O395 O 0.5727 0.53954 0.42969 0.0
O396 O 0.51796 0.54883 0.42398 0.0
O397 O 0.54482 0.50937 0.68887 0.0
O398 O 0.58164 0.5472 0.66558 0.0
C399 C 0.57012 0.52636 0.70084 0.0
C400 C 0.59511 0.55778 0.4601 0.0
O401 O 0.50023 0.4679 0.56172 0.0
O402 O 0.47506 0.49282 0.81123 0.0
O403 O 0.50726 0.47815 0.45591 0.0
O404 O 0.49843 0.45606 0.7575 0.0
O405 O 0.43782 0.47022 0.73817 0.0
O406 O 0.46334 0.43148 0.68249 0.0
O407 O 0.53005 0.55355 0.64343 0.0
O408 O 0.52521 0.54664 0.74957 0.0
C409 C 0.52931 0.57324 0.44601 0.0
C410 C 0.4561 0.49328 0.52072 0.0
C411 C 0.13835 0.46995 0.32702 0.0
C412 C 0.16604 0.4891 0.33753 0.0
C413 C 0.11985 0.47167 0.36202 0.0
C414 C 0.12919 0.49253 0.41051 0.0
C415 C 0.15692 0.51224 0.42069 0.0
C416 C 0.17489 0.51053 0.38352 0.0
C417 C 0.09036 0.45052 0.34868 0.0
C418 C 0.16781 0.53453 0.47276 0.0
C419 C 0.07762 0.50416 0.48192 0.0
C420 C 0.07234 0.48735 0.53618 0.0
C421 C 0.0963 0.50638 0.44067 0.0
C422 C 0.11039 0.49191 0.45501 0.0
C423 C 0.1058 0.47576 0.51121 0.0
C424 C 0.08668 0.47345 0.55049 0.0
C425 C 0.10028 0.52347 0.38067 0.0
C426 C 0.12091 0.46063 0.5296 0.0
H427 H 0.13105 0.45302 0.29271 0.0
H428 H 0.19599 0.52594 0.39119 0.0
H429 H 0.08433 0.43711 0.39122 0.0
H430 H 0.07779 0.46034 0.34233 0.0
H431 H 0.08587 0.43774 0.30412 0.0
H432 H 0.18958 0.54922 0.47199 0.0
H433 H 0.15653 0.5457 0.46617 0.0
H434 H 0.165 0.5255 0.52197 0.0
H435 H 0.06661 0.51494 0.47059 0.0
H436 H 0.08304 0.46075 0.59296 0.0
H437 H 0.09275 0.51015 0.33584 0.0
H438 H 0.122 0.5379 0.37902 0.0
H439 H 0.08948 0.53511 0.37925 0.0
H440 H 0.11548 0.44494 0.49113 0.0
H441 H 0.11639 0.45053 0.57736 0.0
H442 H 0.14295 0.47476 0.53268 0.0
C443 C 0.6932 0.16505 0.28191 0.0
C444 C 0.69854 0.16658 0.21693 0.0
C445 C 0.67138 0.14187 0.30354 0.0
C446 C 0.65505 0.11934 0.25954 0.0
C447 C 0.66073 0.12064 0.19398 0.0
C448 C 0.68232 0.14441 0.17328 0.0
C449 C 0.66577 0.14154 0.37349 0.0
C450 C 0.64418 0.0969 0.146 0.0
C451 C 0.61686 0.05391 0.34829 0.0
C452 C 0.59145 0.05169 0.34585 0.0
C453 C 0.63723 0.07483 0.31644 0.0
C454 C 0.63232 0.09446 0.28307 0.0
C455 C 0.60633 0.09163 0.27807 0.0
C456 C 0.58608 0.07004 0.30884 0.0
C457 C 0.66443 0.07669 0.3213 0.0
C458 C 0.60041 0.11242 0.24421 0.0
H459 H 0.70605 0.18216 0.31565 0.0
H460 H 0.68669 0.14567 0.12306 0.0
H461 H 0.64471 0.13693 0.37406 0.0
H462 H 0.66797 0.12534 0.40032 0.0
H463 H 0.67959 0.16119 0.40037 0.0
H464 H 0.65182 0.10088 0.09749 0.0
H465 H 0.64433 0.0786 0.16614 0.0
H466 H 0.62291 0.09221 0.13857 0.0
H467 H 0.62102 0.03966 0.37657 0.0
H468 H 0.56655 0.06857 0.30742 0.0
H469 H 0.67939 0.09419 0.35398 0.0
H470 H 0.67157 0.08018 0.27232 0.0
H471 H 0.66394 0.05805 0.34128 0.0
H472 H 0.61213 0.132 0.27249 0.0
H473 H 0.57868 0.10612 0.23985 0.0
H474 H 0.60676 0.11606 0.19439 0.0
C475 C 0.51046 0.68671 0.23407 0.0
C476 C 0.52663 0.69377 0.18325 0.0
C477 C 0.50879 0.66669 0.2786 0.0
C478 C 0.52434 0.65406 0.27345 0.0
C479 C 0.54101 0.66145 0.22269 0.0
C480 C 0.54155 0.68084 0.17751 0.0
C481 C 0.4902 0.65887 0.3307 0.0
C482 C 0.55835 0.64894 0.21619 0.0
C483 C 0.54176 0.62145 0.42271 0.0
C484 C 0.52534 0.59367 0.40624 0.0
C485 C 0.54123 0.64128 0.38069 0.0
C486 C 0.52344 0.63325 0.32122 0.0
C487 C 0.50581 0.60527 0.30588 0.0
C488 C 0.50718 0.58585 0.34814 0.0
C489 C 0.56069 0.67085 0.39849 0.0
C490 C 0.48592 0.59585 0.24404 0.0
H491 H 0.4988 0.69662 0.23823 0.0
H492 H 0.55375 0.68603 0.13768 0.0
H493 H 0.47577 0.63671 0.32712 0.0
H494 H 0.50199 0.66337 0.3802 0.0
H495 H 0.47862 0.66977 0.32637 0.0
H496 H 0.57095 0.65765 0.17564 0.0
H497 H 0.5718 0.6521 0.26276 0.0
H498 H 0.54547 0.62673 0.20693 0.0
H499 H 0.55595 0.62782 0.46727 0.0
H500 H 0.49428 0.56448 0.33503 0.0
H501 H 0.54975 0.6823 0.39729 0.0
H502 H 0.57512 0.67977 0.36178 0.0
H503 H 0.57228 0.67379 0.44799 0.0
H504 H 0.4727 0.60487 0.24286 0.0
H505 H 0.47308 0.57341 0.2401 0.0
H506 H 0.49679 0.60285 0.20026 0.0
C507 C 0.88219 0.55789 0.17188 0.0
C508 C 0.86225 0.5537 0.21051 0.0
C509 C 0.90677 0.56047 0.20086 0.0
C510 C 0.91096 0.5581 0.26968 0.0
C511 C 0.89115 0.55494 0.30892 0.0
C512 C 0.86719 0.55329 0.27879 0.0
C513 C 0.92774 0.56474 0.15767 0.0
C514 C 0.89464 0.55194 0.38238 0.0
C515 C 0.95444 0.53003 0.34928 0.0
C516 C 0.97503 0.5528 0.38567 0.0
C517 C 0.93413 0.53178 0.30771 0.0
C518 C 0.93508 0.55712 0.3011 0.0
C519 C 0.95736 0.58066 0.33274 0.0
C520 C 0.97684 0.57812 0.37586 0.0
C521 C 0.91044 0.50611 0.27581 0.0
C522 C 0.95966 0.60819 0.32461 0.0
H523 H 0.87822 0.5584 0.11892 0.0
H524 H 0.85169 0.55035 0.30822 0.0
H525 H 0.9481 0.58045 0.17986 0.0
H526 H 0.92817 0.54562 0.15284 0.0
H527 H 0.92344 0.57092 0.10766 0.0
H528 H 0.8773 0.54966 0.40556 0.0
H529 H 0.89689 0.53388 0.39338 0.0
H530 H 0.91323 0.56988 0.40542 0.0
H531 H 0.953 0.51042 0.35737 0.0
H532 H 0.99297 0.59577 0.40376 0.0
H533 H 0.90621 0.50891 0.22278 0.0
H534 H 0.89219 0.50122 0.29865 0.0
H535 H 0.91387 0.48854 0.28128 0.0
H536 H 0.95431 0.61128 0.27238 0.0
H537 H 0.98032 0.62483 0.34195 0.0
H538 H 0.94536 0.60956 0.35341 0.0
C539 C 0.33365 0.86997 0.18505 0.0
C540 C 0.31279 0.85223 0.22051 0.0
C541 C 0.35808 0.89054 0.21753 0.0
C542 C 0.36155 0.89312 0.28692 0.0
C543 C 0.34042 0.87499 0.32272 0.0
C544 C 0.31623 0.85474 0.28893 0.0
C545 C 0.38005 0.90954 0.17776 0.0
C546 C 0.34332 0.87707 0.39673 0.0
C547 C 0.42944 0.93169 0.39221 0.0
C548 C 0.4288 0.9548 0.41064 0.0
C549 C 0.40835 0.91194 0.34852 0.0
C550 C 0.38647 0.9157 0.32251 0.0
C551 C 0.38701 0.94009 0.33689 0.0
C552 C 0.4081 0.95926 0.38098 0.0
C553 C 0.40855 0.88624 0.33402 0.0
C554 C 0.36436 0.94514 0.30939 0.0
H555 H 0.33086 0.86756 0.132 0.0
H556 H 0.30006 0.8406 0.31589 0.0
H557 H 0.38457 0.93067 0.18565 0.0
H558 H 0.39886 0.90902 0.1943 0.0
H559 H 0.37441 0.90432 0.12434 0.0
H560 H 0.32539 0.86076 0.4172 0.0
H561 H 0.36135 0.87594 0.41846 0.0
H562 H 0.34631 0.89697 0.41223 0.0
H563 H 0.44545 0.92822 0.41505 0.0
H564 H 0.4078 0.97735 0.39436 0.0
H565 H 0.4029 0.88079 0.2808 0.0
H566 H 0.3934 0.86929 0.36043 0.0
H567 H 0.42859 0.88812 0.34974 0.0
H568 H 0.3694 0.96637 0.31891 0.0
H569 H 0.34598 0.93132 0.33219 0.0
H570 H 0.35943 0.94078 0.25564 0.0
C571 C 0.43739 0.3168 0.33056 0.0
C572 C 0.45479 0.30645 0.34872 0.0
C573 C 0.43898 0.3379 0.36762 0.0
C574 C 0.45887 0.34933 0.42285 0.0
C575 C 0.4741 0.33678 0.44585 0.0
C576 C 0.47169 0.3153 0.4088 0.0
C577 C 0.42134 0.34985 0.34366 0.0
C578 C 0.49507 0.34793 0.50547 0.0
C579 C 0.49654 0.4259 0.4294 0.0
C580 C 0.48766 0.43206 0.48321 0.0
C581 C 0.48744 0.3991 0.41032 0.0
C582 C 0.46839 0.37763 0.44502 0.0
C583 C 0.45907 0.38358 0.49932 0.0
C584 C 0.46917 0.41085 0.51842 0.0
C585 C 0.49846 0.39385 0.35299 0.0
C586 C 0.4388 0.36145 0.53789 0.0
H587 H 0.42397 0.30998 0.2848 0.0
H588 H 0.48437 0.30661 0.4248 0.0
H589 H 0.41453 0.35542 0.38567 0.0
H590 H 0.4331 0.3686 0.31687 0.0
H591 H 0.4034 0.33552 0.30984 0.0
H592 H 0.50248 0.33378 0.52223 0.0
H593 H 0.51249 0.36741 0.4934 0.0
H594 H 0.48677 0.35213 0.54648 0.0
H595 H 0.51116 0.44217 0.40252 0.0
H596 H 0.46225 0.41551 0.56006 0.0
H597 H 0.4819 0.38284 0.31263 0.0
H598 H 0.50747 0.38091 0.36814 0.0
H599 H 0.51409 0.41287 0.33337 0.0
H600 H 0.42458 0.34319 0.50653 0.0
H601 H 0.42706 0.36862 0.56143 0.0
H602 H 0.44961 0.35545 0.57756 0.0
C603 C 0.50966 0.84817 0.8921 0.0
C604 C 0.52445 0.83565 0.88096 0.0
C605 C 0.50909 0.86789 0.84984 0.0
C606 C 0.52422 0.87579 0.79591 0.0
C607 C 0.53932 0.86324 0.78464 0.0
C608 C 0.53908 0.84313 0.82708 0.0
C609 C 0.49243 0.88046 0.86333 0.0
C610 C 0.55615 0.87146 0.7287 0.0
C611 C 0.50302 0.9134 0.66661 0.0
C612 C 0.51949 0.94021 0.69036 0.0
C613 C 0.50536 0.89213 0.69806 0.0
C614 C 0.52495 0.89803 0.75367 0.0
C615 C 0.54313 0.92541 0.77396 0.0
C616 C 0.53988 0.94613 0.74269 0.0
C617 C 0.48545 0.86325 0.67517 0.0
C618 C 0.56474 0.93273 0.83187 0.0
H619 H 0.49849 0.84244 0.93402 0.0
H620 H 0.55054 0.83341 0.81869 0.0
H621 H 0.50579 0.90243 0.87523 0.0
H622 H 0.47833 0.87847 0.81892 0.0
H623 H 0.48057 0.87092 0.90481 0.0
H624 H 0.56618 0.85927 0.72558 0.0
H625 H 0.54343 0.86915 0.68139 0.0
H626 H 0.57185 0.89319 0.73509 0.0
H627 H 0.4869 0.90884 0.62695 0.0
H628 H 0.55249 0.96691 0.76121 0.0
H629 H 0.47246 0.8525 0.71397 0.0
H630 H 0.49621 0.8523 0.66644 0.0
H631 H 0.47235 0.86214 0.62938 0.0
H632 H 0.55532 0.92714 0.87796 0.0
H633 H 0.57967 0.95479 0.83493 0.0
H634 H 0.57551 0.92129 0.82883 0.0
C635 C 0.67514 0.50905 0.96671 0.0
C636 C 0.69222 0.50634 0.92896 0.0
C637 C 0.65146 0.50824 0.93676 0.0
C638 C 0.6451 0.50488 0.86759 0.0
C639 C 0.66153 0.50032 0.83003 0.0
C640 C 0.68499 0.50112 0.86134 0.0
C641 C 0.63439 0.51294 0.97854 0.0
C642 C 0.65544 0.49661 0.75621 0.0
C643 C 0.57921 0.49483 0.77441 0.0
C644 C 0.58731 0.5211 0.75216 0.0
C645 C 0.59746 0.48923 0.81453 0.0
C646 C 0.62415 0.51049 0.83328 0.0
C647 C 0.63179 0.5373 0.81429 0.0
C648 C 0.6133 0.54224 0.774 0.0
C649 C 0.58856 0.46048 0.8347 0.0
C650 C 0.66001 0.56062 0.83345 0.0
H651 H 0.68097 0.51306 0.01921 0.0
H652 H 0.69841 0.49901 0.83267 0.0
H653 H 0.63773 0.53378 0.97142 0.0
H654 H 0.61267 0.4986 0.96365 0.0
H655 H 0.63943 0.51068 0.03161 0.0
H656 H 0.66827 0.49013 0.73532 0.0
H657 H 0.63397 0.48131 0.74162 0.0
H658 H 0.65898 0.51605 0.73414 0.0
H659 H 0.5591 0.47842 0.75792 0.0
H660 H 0.61958 0.56267 0.75775 0.0
H661 H 0.58948 0.45942 0.88894 0.0
H662 H 0.60235 0.45391 0.82002 0.0
H663 H 0.56771 0.44598 0.81246 0.0
H664 H 0.66216 0.58048 0.8182 0.0
H665 H 0.6746 0.55745 0.81018 0.0
H666 H 0.66563 0.56154 0.88739 0.0
C667 C 0.13048 0.68883 0.96213 0.0
C668 C 0.15514 0.70723 0.94068 0.0
C669 C 0.11169 0.66566 0.92378 0.0
C670 C 0.11827 0.66039 0.86391 0.0
C671 C 0.14225 0.68006 0.8397 0.0
C672 C 0.16026 0.70352 0.87813 0.0
C673 C 0.08586 0.64569 0.95012 0.0
C674 C 0.15027 0.67512 0.7767 0.0
C675 C 0.09275 0.58569 0.83465 0.0
C676 C 0.07124 0.57863 0.78486 0.0
C677 C 0.10886 0.61253 0.85855 0.0
C678 C 0.10269 0.63259 0.83357 0.0
C679 C 0.08113 0.6256 0.78251 0.0
C680 C 0.0658 0.59864 0.7581 0.0
C681 C 0.13224 0.61928 0.91146 0.0
C682 C 0.07351 0.64623 0.75578 0.0
H683 H 0.12657 0.69175 0.01056 0.0
H684 H 0.1794 0.7179 0.86176 0.0
H685 H 0.06861 0.63784 0.91036 0.0
H686 H 0.08757 0.62815 0.97008 0.0
H687 H 0.08145 0.65495 0.99004 0.0
H688 H 0.16673 0.69405 0.75898 0.0
H689 H 0.15743 0.66029 0.78538 0.0
H690 H 0.13286 0.66634 0.73748 0.0
H691 H 0.09698 0.57015 0.85486 0.0
H692 H 0.04888 0.59298 0.72009 0.0
H693 H 0.12846 0.62554 0.95762 0.0
H694 H 0.15102 0.63655 0.8967 0.0
H695 H 0.13557 0.60181 0.92173 0.0
H696 H 0.05822 0.63831 0.71154 0.0
H697 H 0.0915 0.665 0.74306 0.0
H698 H 0.06514 0.65192 0.7941 0.0
C699 C 0.51944 0.17536 0.95015 0.0
C700 C 0.49299 0.17062 0.94895 0.0
C701 C 0.52507 0.15927 0.91202 0.0
C702 C 0.50364 0.13714 0.87396 0.0
C703 C 0.47698 0.13222 0.87227 0.0
C704 C 0.47209 0.14933 0.9085 0.0
C705 C 0.55389 0.16571 0.91329 0.0
C706 C 0.45343 0.10847 0.83321 0.0
C707 C 0.50874 0.09978 0.73297 0.0
C708 C 0.50621 0.07635 0.76364 0.0
C709 C 0.51055 0.1211 0.76956 0.0
C710 C 0.50858 0.11827 0.83773 0.0
C711 C 0.50777 0.09538 0.86946 0.0
C712 C 0.5071 0.0749 0.83207 0.0
C713 C 0.51283 0.14581 0.73453 0.0
C714 C 0.50499 0.09122 0.9417 0.0
H715 H 0.53584 0.19134 0.98178 0.0
H716 H 0.45172 0.14581 0.90515 0.0
H717 H 0.5568 0.14992 0.94013 0.0
H718 H 0.55861 0.16568 0.8626 0.0
H719 H 0.56849 0.18572 0.93765 0.0
H720 H 0.43382 0.10683 0.83919 0.0
H721 H 0.45588 0.11048 0.78028 0.0
H722 H 0.45276 0.08929 0.84894 0.0
H723 H 0.50836 0.10103 0.68007 0.0
H724 H 0.50498 0.0567 0.85579 0.0
H725 H 0.52748 0.16458 0.76373 0.0
H726 H 0.493 0.14486 0.72846 0.0
H727 H 0.51922 0.14722 0.68508 0.0
H728 H 0.52019 0.10964 0.97115 0.0
H729 H 0.50723 0.07376 0.96005 0.0
H730 H 0.4848 0.08743 0.95014 0.0
C731 C 0.33647 0.45494 0.02141 0.0
C732 C 0.33853 0.47899 0.04406 0.0
C733 C 0.35626 0.45548 0.9869 0.0
C734 C 0.37847 0.48069 0.9733 0.0
C735 C 0.38117 0.50499 0.99776 0.0
C736 C 0.36141 0.50382 0.0334 0.0
C737 C 0.35283 0.42906 0.96283 0.0
C738 C 0.40433 0.53233 0.98384 0.0
C739 C 0.43887 0.48268 0.90983 0.0
C740 C 0.43208 0.48233 0.84165 0.0
C741 C 0.42162 0.48203 0.95354 0.0
C742 C 0.39739 0.48173 0.92843 0.0
C743 C 0.39087 0.48211 0.85968 0.0
C744 C 0.40808 0.48207 0.8173 0.0
C745 C 0.42899 0.48105 0.0264 0.0
C746 C 0.36563 0.48249 0.8307 0.0
H747 H 0.31891 0.43561 0.02862 0.0
H748 H 0.36376 0.52253 0.05217 0.0
H749 H 0.34811 0.42728 0.90854 0.0
H750 H 0.37183 0.42851 0.97553 0.0
H751 H 0.33636 0.4112 0.98398 0.0
H752 H 0.40449 0.54921 0.00972 0.0
H753 H 0.42383 0.53302 0.99876 0.0
H754 H 0.40291 0.53571 0.93025 0.0
H755 H 0.4573 0.48272 0.92894 0.0
H756 H 0.40282 0.48211 0.76469 0.0
H757 H 0.4132 0.4621 0.04574 0.0
H758 H 0.42988 0.49824 0.05251 0.0
H759 H 0.4487 0.48182 0.0382 0.0
H760 H 0.34757 0.46375 0.84328 0.0
H761 H 0.36409 0.48398 0.7764 0.0
H762 H 0.36525 0.49992 0.85191 0.0
C763 C 0.82893 0.32944 0.92646 0.0
C764 C 0.83614 0.32136 0.9874 0.0
C765 C 0.84846 0.35062 0.89299 0.0
C766 C 0.87597 0.36319 0.91986 0.0
C767 C 0.88328 0.35516 0.98168 0.0
C768 C 0.86321 0.33471 0.01521 0.0
C769 C 0.83973 0.35919 0.82837 0.0
C770 C 0.9124 0.36753 0.01144 0.0
C771 C 0.92957 0.39314 0.80443 0.0
C772 C 0.9415 0.4211 0.81774 0.0
C773 C 0.90793 0.37418 0.83637 0.0
C774 C 0.89737 0.38333 0.8816 0.0
C775 C 0.90841 0.41156 0.89287 0.0
C776 C 0.93054 0.43012 0.86132 0.0
C777 C 0.89729 0.34429 0.82411 0.0
C778 C 0.89706 0.42213 0.93886 0.0
H779 H 0.80799 0.31907 0.90489 0.0
H780 H 0.86873 0.32852 0.06252 0.0
H781 H 0.84867 0.38157 0.82844 0.0
H782 H 0.84711 0.35349 0.78784 0.0
H783 H 0.81745 0.3496 0.81792 0.0
H784 H 0.91467 0.3592 0.06011 0.0
H785 H 0.92388 0.36365 0.97805 0.0
H786 H 0.92166 0.38984 0.01731 0.0
H787 H 0.93794 0.3859 0.77117 0.0
H788 H 0.93946 0.45169 0.87136 0.0
H789 H 0.87529 0.33375 0.80794 0.0
H790 H 0.90052 0.33505 0.87047 0.0
H791 H 0.90729 0.34052 0.78629 0.0
H792 H 0.89651 0.41298 0.98768 0.0
H793 H 0.876 0.41622 0.91903 0.0
H794 H 0.90897 0.44454 0.94558 0.0
C795 C 0.85655 0.52001 0.84136 0.0
C796 C 0.85471 0.51558 0.90845 0.0
C797 C 0.8774 0.52016 0.8126 0.0
C798 C 0.89724 0.51644 0.8523 0.0
C799 C 0.8953 0.51169 0.9201 0.0
C800 C 0.87388 0.51109 0.94728 0.0
C801 C 0.87843 0.52474 0.73988 0.0
C802 C 0.91637 0.50832 0.96443 0.0
C803 C 0.94005 0.4979 0.76334 0.0
C804 C 0.96205 0.52357 0.75441 0.0
C805 C 0.91904 0.49515 0.79651 0.0
C806 C 0.92048 0.51856 0.82293 0.0
C807 C 0.94346 0.54431 0.81745 0.0
C808 C 0.96378 0.54655 0.78245 0.0
C809 C 0.89463 0.46743 0.80004 0.0
C810 C 0.94613 0.56966 0.84653 0.0
H811 H 0.84165 0.52342 0.81144 0.0
H812 H 0.87263 0.50805 0.99943 0.0
H813 H 0.89677 0.54413 0.7319 0.0
H814 H 0.87969 0.50831 0.71603 0.0
H815 H 0.86052 0.52551 0.71524 0.0
H816 H 0.91027 0.50156 0.01395 0.0
H817 H 0.92046 0.49346 0.94246 0.0
H818 H 0.93554 0.52798 0.97014 0.0
H819 H 0.93853 0.48007 0.74142 0.0
H820 H 0.98089 0.56639 0.77619 0.0
H821 H 0.87696 0.46672 0.76945 0.0
H822 H 0.88969 0.46337 0.85112 0.0
H823 H 0.89757 0.45102 0.78228 0.0
H824 H 0.93068 0.57392 0.81996 0.0
H825 H 0.96634 0.58766 0.84359 0.0
H826 H 0.94253 0.56674 0.89875 0.0
C827 C 0.2993 0.84823 0.82425 0.0
C828 C 0.28745 0.85385 0.87248 0.0
C829 C 0.31814 0.86916 0.78909 0.0
C830 C 0.32498 0.89631 0.80176 0.0
C831 C 0.31132 0.90184 0.84597 0.0
C832 C 0.29297 0.88062 0.88135 0.0
C833 C 0.33231 0.86243 0.74238 0.0
C834 C 0.31769 0.93045 0.86002 0.0
C835 C 0.39831 0.94769 0.79552 0.0
C836 C 0.3979 0.95827 0.73281 0.0
C837 C 0.37462 0.92804 0.81874 0.0
C838 C 0.34965 0.91893 0.7788 0.0
C839 C 0.34877 0.93063 0.71706 0.0
C840 C 0.37301 0.95016 0.69452 0.0
C841 C 0.37653 0.91619 0.88506 0.0
C842 C 0.32241 0.9218 0.67388 0.0
H843 H 0.29464 0.82757 0.81568 0.0
H844 H 0.2842 0.88541 0.91874 0.0
H845 H 0.33305 0.87298 0.69555 0.0
H846 H 0.35342 0.86958 0.76446 0.0
H847 H 0.32233 0.84028 0.73149 0.0
H848 H 0.30188 0.9308 0.88497 0.0
H849 H 0.33715 0.94127 0.8924 0.0
H850 H 0.31981 0.9418 0.814 0.0
H851 H 0.41738 0.95409 0.82601 0.0
H852 H 0.3725 0.95824 0.64606 0.0
H853 H 0.36887 0.89412 0.87906 0.0
H854 H 0.36381 0.91867 0.91722 0.0
H855 H 0.39751 0.92587 0.91038 0.0
H856 H 0.31447 0.90098 0.65381 0.0
H857 H 0.32472 0.93546 0.63211 0.0
H858 H 0.30717 0.92121 0.7028 0.0
C859 C 0.4569 0.31717 0.97132 0.0
C860 C 0.46865 0.30133 0.96301 0.0
C861 C 0.4581 0.33638 0.92494 0.0
C862 C 0.47144 0.3398 0.86902 0.0
C863 C 0.48248 0.32304 0.85934 0.0
C864 C 0.48099 0.30399 0.90667 0.0
C865 C 0.44609 0.35382 0.93726 0.0
C866 C 0.49674 0.32594 0.80039 0.0
C867 C 0.45937 0.38255 0.73656 0.0
C868 C 0.48111 0.40852 0.75498 0.0
C869 C 0.45664 0.35958 0.77083 0.0
C870 C 0.47606 0.36271 0.82476 0.0
C871 C 0.49897 0.38857 0.84047 0.0
C872 C 0.50125 0.41107 0.80532 0.0
C873 C 0.43218 0.33228 0.75178 0.0
C874 C 0.52031 0.39283 0.89714 0.0
H875 H 0.4474 0.315 0.01512 0.0
H876 H 0.49003 0.2916 0.90056 0.0
H877 H 0.46239 0.37525 0.9458 0.0
H878 H 0.43224 0.3531 0.89357 0.0
H879 H 0.43481 0.34735 0.98052 0.0
H880 H 0.5014 0.30937 0.7961 0.0
H881 H 0.48426 0.32604 0.75463 0.0
H882 H 0.51591 0.34559 0.80435 0.0
H883 H 0.44379 0.3803 0.69752 0.0
H884 H 0.51832 0.43095 0.81958 0.0
H885 H 0.41806 0.32657 0.78899 0.0
H886 H 0.43794 0.3164 0.75068 0.0
H887 H 0.42139 0.33241 0.70301 0.0
H888 H 0.51141 0.38842 0.94394 0.0
H889 H 0.53762 0.4139 0.90066 0.0
H890 H 0.52795 0.37866 0.892 0.0
C891 C 0.15293 0.42298 0.03409 0.0
C892 C 0.17649 0.43328 0.0041 0.0
C893 C 0.12842 0.41711 0.99744 0.0
C894 C 0.12784 0.42289 0.92991 0.0
C895 C 0.15084 0.43033 0.8981 0.0
C896 C 0.17493 0.435 0.93573 0.0
C897 C 0.10417 0.4083 0.03297 0.0
C898 C 0.15118 0.43695 0.82631 0.0
C899 C 0.06299 0.4143 0.83349 0.0
C900 C 0.06594 0.43987 0.84478 0.0
C901 C 0.08291 0.40816 0.86096 0.0
C902 C 0.10646 0.42837 0.89862 0.0
C903 C 0.10955 0.45427 0.90933 0.0
C904 C 0.08913 0.45953 0.88304 0.0
C905 C 0.07873 0.38016 0.85017 0.0
C906 C 0.1346 0.47668 0.94807 0.0
H907 H 0.15403 0.42146 0.08705 0.0
H908 H 0.19317 0.44269 0.91272 0.0
H909 H 0.10267 0.42634 0.04468 0.0
H910 H 0.0853 0.39399 0.00193 0.0
H911 H 0.10581 0.39849 0.07979 0.0
H912 H 0.16763 0.43598 0.80598 0.0
H913 H 0.13169 0.423 0.797 0.0
H914 H 0.15455 0.45787 0.82064 0.0
H915 H 0.04509 0.39911 0.80367 0.0
H916 H 0.09178 0.4795 0.8909 0.0
H917 H 0.07944 0.37077 0.89817 0.0
H918 H 0.09523 0.38146 0.8251 0.0
H919 H 0.05916 0.36666 0.82025 0.0
H920 H 0.13698 0.47043 0.99917 0.0
H921 H 0.13408 0.49589 0.95001 0.0
H922 H 0.15269 0.48076 0.92562 0.0
C923 C 0.65912 0.14652 0.94199 0.0
C924 C 0.67972 0.16627 0.90881 0.0
C925 C 0.63777 0.12332 0.90832 0.0
C926 C 0.63701 0.12026 0.83989 0.0
C927 C 0.65753 0.14063 0.80607 0.0
C928 C 0.6789 0.1633 0.84127 0.0
C929 C 0.61668 0.10174 0.94629 0.0
C930 C 0.65706 0.13834 0.73283 0.0
C931 C 0.60095 0.05293 0.74621 0.0
C932 C 0.57816 0.05321 0.71417 0.0
C933 C 0.61941 0.07377 0.79125 0.0
C934 C 0.61518 0.09562 0.80311 0.0
C935 C 0.59144 0.09523 0.77366 0.0
C936 C 0.57306 0.07386 0.7299 0.0
C937 C 0.64417 0.07317 0.82325 0.0
C938 C 0.5863 0.11822 0.78506 0.0
H939 H 0.66021 0.14886 0.99466 0.0
H940 H 0.69503 0.1787 0.81619 0.0
H941 H 0.59614 0.09608 0.92246 0.0
H942 H 0.61845 0.08319 0.9465 0.0
H943 H 0.61886 0.10838 0.99798 0.0
H944 H 0.67379 0.15661 0.71364 0.0
H945 H 0.65866 0.12039 0.72086 0.0
H946 H 0.63764 0.13534 0.70682 0.0
H947 H 0.60476 0.03682 0.73461 0.0
H948 H 0.55558 0.07429 0.70478 0.0
H949 H 0.64752 0.07791 0.8767 0.0
H950 H 0.66215 0.08888 0.80189 0.0
H951 H 0.6426 0.05315 0.81606 0.0
H952 H 0.58632 0.12095 0.83825 0.0
H953 H 0.56677 0.11474 0.75855 0.0
H954 H 0.60268 0.13746 0.76842 0.0
C955 C 0.57439 0.71004 0.81915 0.0
C956 C 0.55169 0.71322 0.80374 0.0
C957 C 0.5765 0.69007 0.78685 0.0
C958 C 0.555 0.67237 0.74004 0.0
C959 C 0.53413 0.67802 0.71763 0.0
C960 C 0.53291 0.69869 0.74929 0.0
C961 C 0.60002 0.68572 0.80876 0.0
C962 C 0.51129 0.66011 0.66614 0.0
C963 C 0.55268 0.61083 0.66554 0.0
C964 C 0.53974 0.59118 0.71153 0.0
C965 C 0.55856 0.63772 0.67436 0.0
C966 C 0.55053 0.6447 0.72944 0.0
C967 C 0.5375 0.62486 0.77592 0.0
C968 C 0.53262 0.59853 0.76679 0.0
C969 C 0.57274 0.65815 0.62385 0.0
C970 C 0.52813 0.63122 0.83497 0.0
H971 H 0.58938 0.72133 0.86029 0.0
H972 H 0.51603 0.70196 0.7347 0.0
H973 H 0.59403 0.66924 0.84463 0.0
H974 H 0.60615 0.6795 0.76643 0.0
H975 H 0.61763 0.70433 0.83279 0.0
H976 H 0.49891 0.66945 0.64728 0.0
H977 H 0.51915 0.65583 0.62434 0.0
H978 H 0.49804 0.64043 0.68778 0.0
H979 H 0.55823 0.60525 0.62269 0.0
H980 H 0.52239 0.58341 0.80221 0.0
H981 H 0.58492 0.67907 0.64533 0.0
H982 H 0.55749 0.65775 0.58433 0.0
H983 H 0.5861 0.65303 0.60071 0.0
H984 H 0.5457 0.64681 0.86732 0.0
H985 H 0.51713 0.61307 0.86445 0.0
H986 H 0.51462 0.63954 0.81894 0.0
C987 C 0.48396 0.17712 0.36755 0.0
C988 C 0.47397 0.17253 0.30063 0.0
C989 C 0.48652 0.15707 0.40455 0.0
C990 C 0.4783 0.13173 0.37398 0.0
C991 C 0.46687 0.12661 0.30717 0.0
C992 C 0.46514 0.14721 0.27113 0.0
C993 C 0.49922 0.16346 0.47525 0.0
C994 C 0.45745 0.09975 0.27293 0.0
C995 C 0.51217 0.09041 0.42287 0.0
C996 C 0.49283 0.06905 0.45573 0.0
C997 C 0.50845 0.11192 0.40011 0.0
C998 C 0.48438 0.11164 0.40879 0.0
C999 C 0.46528 0.09068 0.44468 0.0
C1000 C 0.46991 0.06966 0.46854 0.0
C1001 C 0.52966 0.13417 0.36358 0.0
C1002 C 0.43922 0.08948 0.45408 0.0
H1003 H 0.49049 0.19669 0.39029 0.0
H1004 H 0.4573 0.14371 0.21938 0.0
H1005 H 0.48676 0.14697 0.50717 0.0
H1006 H 0.51926 0.16488 0.4799 0.0
H1007 H 0.50192 0.1829 0.49359 0.0
H1008 H 0.44631 0.09798 0.22335 0.0
H1009 H 0.47509 0.09742 0.26753 0.0
H1010 H 0.44417 0.08276 0.30264 0.0
H1011 H 0.53 0.08991 0.41348 0.0
H1012 H 0.45492 0.05295 0.49363 0.0
H1013 H 0.53463 0.15438 0.38245 0.0
H1014 H 0.52179 0.13253 0.31075 0.0
H1015 H 0.54849 0.13308 0.36789 0.0
H1016 H 0.44302 0.10953 0.47092 0.0
H1017 H 0.42823 0.07408 0.49006 0.0
H1018 H 0.42605 0.08422 0.40634 0.0
C1019 C 0.34634 0.5247 0.3748 0.0
C1020 C 0.33617 0.51785 0.3087 0.0
C1021 C 0.37022 0.52514 0.4004 0.0
C1022 C 0.38422 0.51901 0.35819 0.0
C1023 C 0.37559 0.51534 0.28979 0.0
C1024 C 0.3513 0.51447 0.26579 0.0
C1025 C 0.37881 0.5293 0.47363 0.0
C1026 C 0.39061 0.5099 0.243 0.0
C1027 C 0.44908 0.52525 0.44497 0.0
C1028 C 0.43978 0.4988 0.46756 0.0
C1029 C 0.43162 0.532 0.40556 0.0
C1030 C 0.40451 0.51171 0.38765 0.0
C1031 C 0.39566 0.48457 0.40602 0.0
C1032 C 0.41342 0.47847 0.44578 0.0
C1033 C 0.44176 0.56105 0.38606 0.0
C1034 C 0.36678 0.46234 0.38824 0.0
H1035 H 0.33437 0.52731 0.4074 0.0
H1036 H 0.34321 0.5093 0.21444 0.0
H1037 H 0.37516 0.50977 0.49533 0.0
H1038 H 0.40068 0.544 0.48438 0.0
H1039 H 0.36754 0.53677 0.49821 0.0
H1040 H 0.38653 0.48873 0.24794 0.0
H1041 H 0.38432 0.5126 0.19109 0.0
H1042 H 0.41267 0.52357 0.25483 0.0
H1043 H 0.46944 0.54109 0.4616 0.0
H1044 H 0.40624 0.45795 0.46246 0.0
H1045 H 0.42787 0.56813 0.39697 0.0
H1046 H 0.44253 0.56238 0.33232 0.0
H1047 H 0.46213 0.57505 0.41173 0.0
H1048 H 0.35329 0.46644 0.41381 0.0
H1049 H 0.36369 0.44201 0.40216 0.0
H1050 H 0.36053 0.46183 0.33471 0.0
C1051 C 0.84535 0.32037 0.41206 0.0
C1052 C 0.85138 0.30743 0.36556 0.0
C1053 C 0.86591 0.34107 0.4542 0.0
C1054 C 0.89303 0.34856 0.45044 0.0
C1055 C 0.8989 0.33308 0.41013 0.0
C1056 C 0.87801 0.31286 0.36749 0.0
C1057 C 0.85877 0.3569 0.49703 0.0
C1058 C 0.92753 0.33987 0.4065 0.0
C1059 C 0.9428 0.42361 0.45417 0.0
C1060 C 0.95664 0.42811 0.51774 0.0
C1061 C 0.9219 0.39785 0.43251 0.0
C1062 C 0.91485 0.37583 0.47517 0.0
C1063 C 0.92866 0.38013 0.53961 0.0
C1064 C 0.94939 0.40637 0.56036 0.0
C1065 C 0.90733 0.39431 0.36374 0.0
C1066 C 0.92204 0.35706 0.58601 0.0
H1067 H 0.82468 0.31556 0.41261 0.0
H1068 H 0.88299 0.30292 0.33221 0.0
H1069 H 0.87111 0.36192 0.54587 0.0
H1070 H 0.86306 0.3763 0.47349 0.0
H1071 H 0.83711 0.34558 0.50401 0.0
H1072 H 0.92833 0.3228 0.38443 0.0
H1073 H 0.93733 0.35782 0.37569 0.0
H1074 H 0.93935 0.34502 0.45604 0.0
H1075 H 0.94807 0.44038 0.42125 0.0
H1076 H 0.96012 0.40976 0.6095 0.0
H1077 H 0.88537 0.3853 0.36544 0.0
H1078 H 0.91015 0.38019 0.33426 0.0
H1079 H 0.91463 0.41378 0.33795 0.0
H1080 H 0.89994 0.34403 0.58532 0.0
H1081 H 0.93128 0.36443 0.63729 0.0
H1082 H 0.92978 0.34415 0.56991 0.0
C1083 C 0.5212 0.81992 0.32888 0.0
C1084 C 0.50307 0.81113 0.27068 0.0
C1085 C 0.52165 0.8385 0.3726 0.0
C1086 C 0.50316 0.84796 0.35835 0.0
C1087 C 0.48225 0.83599 0.30536 0.0
C1088 C 0.48266 0.81797 0.26139 0.0
C1089 C 0.5436 0.85007 0.43016 0.0
C1090 C 0.46106 0.84429 0.29146 0.0
C1091 C 0.50601 0.90083 0.47268 0.0
C1092 C 0.52041 0.9244 0.43833 0.0
C1093 C 0.49996 0.87546 0.44764 0.0
C1094 C 0.50935 0.87413 0.38813 0.0
C1095 C 0.52475 0.89826 0.35488 0.0
C1096 C 0.52969 0.92303 0.37997 0.0
C1097 C 0.48357 0.85051 0.48529 0.0
C1098 C 0.5358 0.89798 0.29222 0.0
H1099 H 0.53627 0.81372 0.33804 0.0
H1100 H 0.46824 0.81104 0.21727 0.0
H1101 H 0.55846 0.87138 0.42061 0.0
H1102 H 0.53501 0.85023 0.47533 0.0
H1103 H 0.55437 0.83839 0.439 0.0
H1104 H 0.44339 0.82945 0.25779 0.0
H1105 H 0.45412 0.84631 0.33784 0.0
H1106 H 0.46981 0.86434 0.26819 0.0
H1107 H 0.49879 0.90212 0.51782 0.0
H1108 H 0.54084 0.94148 0.35381 0.0
H1109 H 0.47399 0.83154 0.4548 0.0
H1110 H 0.46757 0.85218 0.50599 0.0
H1111 H 0.49692 0.84902 0.52724 0.0
H1112 H 0.54757 0.8873 0.2995 0.0
H1113 H 0.54901 0.91874 0.27544 0.0
H1114 H 0.51894 0.88684 0.25258 0.0
C1115 C 0.72084 0.57705 0.28641 0.0
C1116 C 0.71192 0.5511 0.25956 0.0
C1117 C 0.7047 0.58188 0.32344 0.0
C1118 C 0.67931 0.56013 0.33545 0.0
C1119 C 0.67061 0.53375 0.31071 0.0
C1120 C 0.68677 0.52964 0.27239 0.0
C1121 C 0.71444 0.61038 0.34797 0.0
C1122 C 0.6438 0.50988 0.3232 0.0
C1123 C 0.64078 0.56265 0.46926 0.0
C1124 C 0.61969 0.56436 0.43156 0.0
C1125 C 0.66128 0.56258 0.4391 0.0
C1126 C 0.66086 0.56495 0.37004 0.0
C1127 C 0.64073 0.56891 0.33279 0.0
C1128 C 0.62013 0.56811 0.36389 0.0
C1129 C 0.68205 0.55777 0.48035 0.0
C1130 C 0.63994 0.57228 0.25939 0.0
H1131 H 0.74041 0.59373 0.2782 0.0
H1132 H 0.67926 0.50962 0.25109 0.0
H1133 H 0.70066 0.61747 0.32467 0.0
H1134 H 0.71412 0.61078 0.40177 0.0
H1135 H 0.73518 0.62486 0.33699 0.0
H1136 H 0.64113 0.49032 0.30583 0.0
H1137 H 0.64191 0.50871 0.37646 0.0
H1138 H 0.62717 0.51256 0.29759 0.0
H1139 H 0.64017 0.55938 0.52151 0.0
H1140 H 0.60375 0.56945 0.33489 0.0
H1141 H 0.70258 0.57215 0.46814 0.0
H1142 H 0.67795 0.53698 0.46957 0.0
H1143 H 0.68175 0.55983 0.53377 0.0
H1144 H 0.66019 0.58737 0.24671 0.0
H1145 H 0.62534 0.57887 0.23932 0.0
H1146 H 0.63401 0.5527 0.23481 0.0
C1147 C 0.19421 0.70336 0.39313 0.0
C1148 C 0.17981 0.70743 0.33773 0.0
C1149 C 0.18065 0.68551 0.44189 0.0
C1150 C 0.15211 0.67089 0.43378 0.0
C1151 C 0.13758 0.67543 0.37847 0.0
C1152 C 0.15162 0.6938 0.33152 0.0
C1153 C 0.19683 0.68178 0.50098 0.0
C1154 C 0.10712 0.65999 0.36724 0.0
C1155 C 0.1103 0.60029 0.49296 0.0
C1156 C 0.09613 0.60459 0.53746 0.0
C1157 C 0.13042 0.62203 0.46281 0.0
C1158 C 0.13702 0.64882 0.47863 0.0
C1159 C 0.12526 0.65345 0.52963 0.0
C1160 C 0.10473 0.63121 0.55827 0.0
C1161 C 0.1424 0.61601 0.4089 0.0
C1162 C 0.1326 0.68177 0.54996 0.0
H1163 H 0.21605 0.71413 0.39822 0.0
H1164 H 0.14047 0.69678 0.28843 0.0
H1165 H 0.18849 0.6819 0.54664 0.0
H1166 H 0.19566 0.66184 0.49664 0.0
H1167 H 0.2184 0.69785 0.5057 0.0
H1168 H 0.09892 0.66647 0.32269 0.0
H1169 H 0.09975 0.63795 0.36171 0.0
H1170 H 0.09889 0.66291 0.41021 0.0
H1171 H 0.1043 0.57978 0.47771 0.0
H1172 H 0.09428 0.63476 0.59355 0.0
H1173 H 0.16457 0.62948 0.41416 0.0
H1174 H 0.13402 0.61987 0.3606 0.0
H1175 H 0.13786 0.5946 0.40857 0.0
H1176 H 0.15453 0.69597 0.55049 0.0
H1177 H 0.12692 0.68232 0.59933 0.0
H1178 H 0.12174 0.68913 0.51405 0.0
loop_
_geom_bond_atom_site_label_1
_geom_bond_atom_site_label_2
_geom_bond_distance
_geom_bond_site_symmetry_2
_ccdc_geom_bond_type
C0 C1 1.443 . S
C0 N4 1.376 . S
C0 C38 1.389 . S
C1 C0 1.443 . S
C1 C2 1.340 . S
C1 H41 0.951 . S
C2 C1 1.340 . S
C2 C3 1.439 . S
C2 H42 0.950 . S
C3 C2 1.439 . S
C3 N4 1.374 . S
C3 C37 1.395 . S
N4 C0 1.376 . S
N4 C3 1.374 . S
N4 Co5 2.008 . S
Co5 N4 2.008 . S
Co5 N6 1.995 . S
Co5 N11 2.008 . S
Co5 N16 1.995 . S
Co5 N21 2.282 . S
Co5 N27 2.282 . S
N6 Co5 1.995 . S
N6 C7 1.376 . S
N6 C10 1.383 . S
C7 N6 1.376 . S
C7 C8 1.446 . S
C7 C37 1.391 . S
C8 C7 1.446 . S
C8 C9 1.339 . S
C8 H43 0.949 . S
C9 C8 1.339 . S
C9 C10 1.439 . S
C9 H44 0.950 . S
C10 N6 1.383 . S
C10 C9 1.439 . S
C10 C39 1.392 . S
N11 Co5 2.008 . S
N11 C12 1.376 . S
N11 C15 1.374 . S
C12 N11 1.376 . S
C12 C13 1.443 . S
C12 C39 1.389 . S
C13 C12 1.443 . S
C13 C14 1.340 . S
C13 H45 0.951 . S
C14 C13 1.340 . S
C14 C15 1.439 . S
C14 H46 0.950 . S
C15 N11 1.374 . S
C15 C14 1.439 . S
C15 C40 1.395 . S
N16 Co5 1.995 . S
N16 C17 1.376 . S
N16 C20 1.383 . S
C17 N16 1.376 . S
C17 C18 1.446 . S
C17 C40 1.391 . S
C18 C17 1.446 . S
C18 C19 1.339 . S
C18 H47 0.949 . S
C19 C18 1.339 . S
C19 C20 1.439 . S
C19 H48 0.950 . S
C20 N16 1.383 . S
C20 C19 1.439 . S
C20 C38 1.392 . S
N21 Co5 2.282 . S
N21 C24 1.332 . S
N21 C26 1.332 . S
C22 C23 1.386 . S
C22 C25 1.388 . S
C23 C22 1.386 . S
C23 C24 1.382 . S
C23 H49 0.950 . S
C24 N21 1.332 . S
C24 C23 1.382 . S
C24 H35 0.952 . S
C25 C22 1.388 . S
C25 C26 1.382 . S
C25 H50 0.950 . S
C26 N21 1.332 . S
C26 C25 1.382 . S
C26 H36 0.948 . S
N27 Co5 2.282 . S
N27 C31 1.332 . S
N27 C32 1.332 . S
C28 C29 1.388 . S
C28 C32 1.382 . S
C28 H51 0.950 . S
C29 C28 1.388 . S
C29 C30 1.386 . S
C30 C29 1.386 . S
C30 C31 1.382 . S
C30 H52 0.950 . S
C31 N27 1.332 . S
C31 C30 1.382 . S
C31 H33 0.952 . S
C32 N27 1.332 . S
C32 C28 1.382 . S
C32 H34 0.948 . S
H33 C31 0.952 . S
H34 C32 0.948 . S
H35 C24 0.952 . S
H36 C26 0.948 . S
C37 C3 1.395 . S
C37 C7 1.391 . S
C38 C0 1.389 . S
C38 C20 1.392 . S
C39 C10 1.392 . S
C39 C12 1.389 . S
C40 C15 1.395 . S
C40 C17 1.391 . S
H41 C1 0.951 . S
H42 C2 0.950 . S
H43 C8 0.949 . S
H44 C9 0.950 . S
H45 C13 0.951 . S
H46 C14 0.950 . S
H47 C18 0.949 . S
H48 C19 0.950 . S
H49 C23 0.950 . S
H50 C25 0.950 . S
H51 C28 0.950 . S
H52 C30 0.950 . S
C53 C54 1.443 . S
C53 N57 1.376 . S
C53 C91 1.389 . S
C54 C53 1.443 . S
C54 C55 1.340 . S
C54 H94 0.951 . S
C55 C54 1.340 . S
C55 C56 1.439 . S
C55 H95 0.950 . S
C56 C55 1.439 . S
C56 N57 1.374 . S
C56 C90 1.395 . S
N57 C53 1.376 . S
N57 C56 1.374 . S
N57 Co58 2.008 . S
Co58 N57 2.008 . S
Co58 N59 1.995 . S
Co58 N64 2.008 . S
Co58 N69 1.995 . S
Co58 N74 2.282 . S
Co58 N80 2.282 . S
N59 Co58 1.995 . S
N59 C60 1.376 . S
N59 C63 1.383 . S
C60 N59 1.376 . S
C60 C61 1.446 . S
C60 C90 1.391 . S
C61 C60 1.446 . S
C61 C62 1.339 . S
C61 H96 0.949 . S
C62 C61 1.339 . S
C62 C63 1.439 . S
C62 H97 0.950 . S
C63 N59 1.383 . S
C63 C62 1.439 . S
C63 C92 1.392 . S
N64 Co58 2.008 . S
N64 C65 1.376 . S
N64 C68 1.374 . S
C65 N64 1.376 . S
C65 C66 1.443 . S
C65 C92 1.389 . S
C66 C65 1.443 . S
C66 C67 1.340 . S
C66 H98 0.951 . S
C67 C66 1.340 . S
C67 C68 1.439 . S
C67 H99 0.950 . S
C68 N64 1.374 . S
C68 C67 1.439 . S
C68 C93 1.395 . S
N69 Co58 1.995 . S
N69 C70 1.376 . S
N69 C73 1.383 . S
C70 N69 1.376 . S
C70 C71 1.446 . S
C70 C93 1.391 . S
C71 C70 1.446 . S
C71 C72 1.340 . S
C71 H100 0.949 . S
C72 C71 1.340 . S
C72 C73 1.440 . S
C72 H101 0.947 1_554 S
C73 N69 1.383 . S
C73 C72 1.440 . S
C73 C91 1.392 . S
N74 Co58 2.282 . S
N74 C77 1.324 1_554 S
N74 C79 1.332 . S
C75 C76 1.386 . S
C75 C78 1.388 . S
C76 C75 1.386 . S
C76 C77 1.391 . S
C76 H102 0.950 . S
C77 N74 1.324 1_556 S
C77 C76 1.391 . S
C77 H88 0.951 1_556 S
C78 C75 1.388 . S
C78 C79 1.382 1_556 S
C78 H103 0.950 . S
C79 N74 1.332 . S
C79 C78 1.382 1_554 S
C79 H89 0.948 . S
N80 Co58 2.282 . S
N80 C84 1.332 . S
N80 C85 1.332 . S
C81 C82 1.388 . S
C81 C85 1.382 . S
C81 H104 0.950 . S
C82 C81 1.388 . S
C82 C83 1.386 . S
C83 C82 1.386 . S
C83 C84 1.382 . S
C83 H105 0.950 . S
C84 N80 1.332 . S
C84 C83 1.382 . S
C84 H86 0.952 . S
C85 N80 1.332 . S
C85 C81 1.382 . S
C85 H87 0.948 . S
H86 C84 0.952 . S
H87 C85 0.948 . S
H88 C77 0.951 1_554 S
H89 C79 0.948 . S
C90 C56 1.395 . S
C90 C60 1.391 . S
C91 C53 1.389 . S
C91 C73 1.392 . S
C92 C63 1.392 . S
C92 C65 1.389 . S
C93 C68 1.395 . S
C93 C70 1.391 . S
H94 C54 0.951 . S
H95 C55 0.950 . S
H96 C61 0.949 . S
H97 C62 0.950 . S
H98 C66 0.951 . S
H99 C67 0.950 . S
H100 C71 0.949 . S
H101 C72 0.947 1_556 S
H102 C76 0.950 . S
H103 C78 0.950 . S
H104 C81 0.950 . S
H105 C83 0.950 . S
C106 C107 1.443 . S
C106 N110 1.376 . S
C106 C144 1.389 . S
C107 C106 1.443 . S
C107 C108 1.340 . S
C107 H147 0.951 . S
C108 C107 1.340 . S
C108 C109 1.439 . S
C108 H148 0.950 . S
C109 C108 1.439 . S
C109 N110 1.374 . S
C109 C143 1.395 . S
N110 C106 1.376 . S
N110 C109 1.374 . S
N110 Co111 2.008 . S
Co111 N110 2.008 . S
Co111 N112 1.995 1_554 S
Co111 N117 2.008 1_554 S
Co111 N122 1.995 . S
Co111 N127 2.282 . S
Co111 N133 2.282 1_554 S
N112 Co111 1.995 1_556 S
N112 C113 1.376 . S
N112 C116 1.383 . S
C113 N112 1.376 . S
C113 C114 1.446 . S
C113 C143 1.391 1_556 S
C114 C113 1.446 . S
C114 C115 1.339 . S
C114 H149 0.949 . S
C115 C114 1.339 . S
C115 C116 1.439 . S
C115 H150 0.950 . S
C116 N112 1.383 . S
C116 C115 1.439 . S
C116 C145 1.392 . S
N117 Co111 2.008 1_556 S
N117 C118 1.376 . S
N117 C121 1.374 . S
C118 N117 1.376 . S
C118 C119 1.443 . S
C118 C145 1.389 . S
C119 C118 1.443 . S
C119 C120 1.340 . S
C119 H151 0.951 . S
C120 C119 1.340 . S
C120 C121 1.439 . S
C120 H152 0.950 . S
C121 N117 1.374 . S
C121 C120 1.439 . S
C121 C146 1.395 1_556 S
N122 Co111 1.995 . S
N122 C123 1.376 . S
N122 C126 1.383 . S
C123 N122 1.376 . S
C123 C124 1.446 . S
C123 C146 1.391 . S
C124 C123 1.446 . S
C124 C125 1.339 . S
C124 H153 0.949 . S
C125 C124 1.339 . S
C125 C126 1.439 . S
C125 H154 0.950 . S
C126 N122 1.383 . S
C126 C125 1.439 . S
C126 C144 1.392 . S
N127 Co111 2.282 . S
N127 C130 1.332 . S
N127 C132 1.332 . S
C128 C129 1.386 . S
C128 C131 1.388 . S
C129 C128 1.386 . S
C129 C130 1.382 . S
C129 H155 0.950 . S
C130 N127 1.332 . S
C130 C129 1.382 . S
C130 H141 0.952 . S
C131 C128 1.388 . S
C131 C132 1.382 . S
C131 H156 0.950 . S
C132 N127 1.332 . S
C132 C131 1.382 . S
C132 H142 0.948 . S
N133 Co111 2.282 1_556 S
N133 C137 1.332 . S
N133 C138 1.332 . S
C134 C135 1.388 . S
C134 C138 1.382 . S
C134 H157 0.950 . S
C135 C134 1.388 . S
C135 C136 1.386 . S
C136 C135 1.386 . S
C136 C137 1.382 . S
C136 H158 0.950 . S
C137 N133 1.332 . S
C137 C136 1.382 . S
C137 H139 0.952 . S
C138 N133 1.332 . S
C138 C134 1.382 . S
C138 H140 0.948 . S
H139 C137 0.952 . S
H140 C138 0.948 . S
H141 C130 0.952 . S
H142 C132 0.948 . S
C143 C109 1.395 . S
C143 C113 1.391 1_554 S
C144 C106 1.389 . S
C144 C126 1.392 . S
C145 C116 1.392 . S
C145 C118 1.389 . S
C146 C121 1.395 1_554 S
C146 C123 1.391 . S
H147 C107 0.951 . S
H148 C108 0.950 . S
H149 C114 0.949 . S
H150 C115 0.950 . S
H151 C119 0.951 . S
H152 C120 0.950 . S
H153 C124 0.949 . S
H154 C125 0.950 . S
H155 C129 0.950 . S
H156 C131 0.950 . S
H157 C134 0.950 . S
H158 C136 0.950 . S
C159 C160 1.443 . S
C159 N163 1.376 . S
C159 C197 1.389 . S
C160 C159 1.443 . S
C160 C161 1.340 . S
C160 H200 0.951 . S
C161 C160 1.340 . S
C161 C162 1.439 . S
C161 H201 0.950 . S
C162 C161 1.439 . S
C162 N163 1.374 . S
C162 C196 1.395 . S
N163 C159 1.376 . S
N163 C162 1.374 . S
N163 Co164 2.008 . S
Co164 N163 2.008 . S
Co164 N165 1.995 1_554 S
Co164 N170 2.008 1_554 S
Co164 N175 1.995 . S
Co164 N180 2.282 . S
Co164 N186 2.282 1_554 S
N165 Co164 1.995 1_556 S
N165 C166 1.376 . S
N165 C169 1.383 . S
C166 N165 1.376 . S
C166 C167 1.446 . S
C166 C196 1.391 1_556 S
C167 C166 1.446 . S
C167 C168 1.339 . S
C167 H202 0.949 . S
C168 C167 1.339 . S
C168 C169 1.439 . S
C168 H203 0.950 . S
C169 N165 1.383 . S
C169 C168 1.439 . S
C169 C198 1.392 . S
N170 Co164 2.008 1_556 S
N170 C171 1.376 . S
N170 C174 1.374 . S
C171 N170 1.376 . S
C171 C172 1.443 . S
C171 C198 1.389 . S
C172 C171 1.443 . S
C172 C173 1.340 . S
C172 H204 0.951 . S
C173 C172 1.340 . S
C173 C174 1.439 . S
C173 H205 0.950 . S
C174 N170 1.374 . S
C174 C173 1.439 . S
C174 C199 1.395 1_556 S
N175 Co164 1.995 . S
N175 C176 1.376 . S
N175 C179 1.383 . S
C176 N175 1.376 . S
C176 C177 1.446 . S
C176 C199 1.391 . S
C177 C176 1.446 . S
C177 C178 1.339 . S
C177 H206 0.949 . S
C178 C177 1.339 . S
C178 C179 1.439 . S
C178 H207 0.950 . S
C179 N175 1.383 . S
C179 C178 1.439 . S
C179 C197 1.392 . S
N180 Co164 2.282 . S
N180 C183 1.332 . S
N180 C185 1.332 . S
C181 C182 1.386 . S
C181 C184 1.388 . S
C182 C181 1.386 . S
C182 C183 1.382 . S
C182 H208 0.950 . S
C183 N180 1.332 . S
C183 C182 1.382 . S
C183 H194 0.952 . S
C184 C181 1.388 . S
C184 C185 1.382 . S
C184 H209 0.950 . S
C185 N180 1.332 . S
C185 C184 1.382 . S
C185 H195 0.948 . S
N186 Co164 2.282 1_556 S
N186 C190 1.332 . S
N186 C191 1.332 . S
C187 C188 1.388 . S
C187 C191 1.382 . S
C187 H210 0.950 . S
C188 C187 1.388 . S
C188 C189 1.386 . S
C189 C188 1.386 . S
C189 C190 1.382 . S
C189 H211 0.950 . S
C190 N186 1.332 . S
C190 C189 1.382 . S
C190 H192 0.952 . S
C191 N186 1.332 . S
C191 C187 1.382 . S
C191 H193 0.948 . S
H192 C190 0.952 . S
H193 C191 0.948 . S
H194 C183 0.952 . S
H195 C185 0.948 . S
C196 C162 1.395 . S
C196 C166 1.391 1_554 S
C197 C159 1.389 . S
C197 C179 1.392 . S
C198 C169 1.392 . S
C198 C171 1.389 . S
C199 C174 1.395 1_554 S
C199 C176 1.391 . S
H200 C160 0.951 . S
H201 C161 0.950 . S
H202 C167 0.949 . S
H203 C168 0.950 . S
H204 C172 0.951 . S
H205 C173 0.950 . S
H206 C177 0.949 . S
H207 C178 0.950 . S
H208 C182 0.950 . S
H209 C184 0.950 . S
H210 C187 0.950 . S
H211 C189 0.950 . S
C212 C213 1.443 . S
C212 N216 1.376 . S
C212 C250 1.389 . S
C213 C212 1.443 . S
C213 C214 1.340 . S
C213 H253 0.951 . S
C214 C213 1.340 . S
C214 C215 1.439 . S
C214 H254 0.950 . S
C215 C214 1.439 . S
C215 N216 1.374 . S
C215 C249 1.395 . S
N216 C212 1.376 . S
N216 C215 1.374 . S
N216 Co217 2.008 . S
Co217 N216 2.008 . S
Co217 N218 1.995 . S
Co217 N223 2.008 . S
Co217 N228 1.995 . S
Co217 N233 2.282 . S
Co217 N239 2.282 . S
N218 Co217 1.995 . S
N218 C219 1.376 . S
N218 C222 1.383 . S
C219 N218 1.376 . S
C219 C220 1.446 1_554 S
C219 C249 1.391 . S
C220 C219 1.446 1_556 S
C220 C221 1.339 . S
C220 H255 0.949 . S
C221 C220 1.339 . S
C221 C222 1.439 1_556 S
C221 H256 0.950 . S
C222 N218 1.383 . S
C222 C221 1.439 1_554 S
C222 C251 1.392 1_554 S
N223 Co217 2.008 . S
N223 C224 1.376 . S
N223 C227 1.374 . S
C224 N223 1.376 . S
C224 C225 1.443 . S
C224 C251 1.389 1_554 S
C225 C224 1.443 . S
C225 C226 1.340 . S
C225 H257 0.951 1_554 S
C226 C225 1.340 . S
C226 C227 1.439 . S
C226 H258 0.950 . S
C227 N223 1.374 . S
C227 C226 1.439 . S
C227 C252 1.395 . S
N228 Co217 1.995 . S
N228 C229 1.376 . S
N228 C232 1.383 . S
C229 N228 1.376 . S
C229 C230 1.446 . S
C229 C252 1.391 . S
C230 C229 1.446 . S
C230 C231 1.339 . S
C230 H259 0.949 . S
C231 C230 1.339 . S
C231 C232 1.439 . S
C231 H260 0.950 . S
C232 N228 1.383 . S
C232 C231 1.439 . S
C232 C250 1.392 . S
N233 Co217 2.282 . S
N233 C236 1.332 . S
N233 C238 1.332 . S
C234 C235 1.386 . S
C234 C237 1.388 . S
C235 C234 1.386 . S
C235 C236 1.382 . S
C235 H261 0.950 . S
C236 N233 1.332 . S
C236 C235 1.382 . S
C236 H247 0.952 . S
C237 C234 1.388 . S
C237 C238 1.382 . S
C237 H262 0.950 . S
C238 N233 1.332 . S
C238 C237 1.382 . S
C238 H248 0.948 . S
N239 Co217 2.282 . S
N239 C243 1.332 1_554 S
N239 C244 1.332 . S
C240 C241 1.388 . S
C240 C244 1.382 1_556 S
C240 H263 0.950 . S
C241 C240 1.388 . S
C241 C242 1.386 . S
C242 C241 1.386 . S
C242 C243 1.382 . S
C242 H264 0.950 . S
C243 N239 1.332 1_556 S
C243 C242 1.382 . S
C243 H245 0.952 . S
C244 N239 1.332 . S
C244 C240 1.382 1_554 S
C244 H246 0.948 . S
H245 C243 0.952 . S
H246 C244 0.948 . S
H247 C236 0.952 . S
H248 C238 0.948 . S
C249 C215 1.395 . S
C249 C219 1.391 . S
C250 C212 1.389 . S
C250 C232 1.392 . S
C251 C222 1.392 1_556 S
C251 C224 1.389 1_556 S
C252 C227 1.395 . S
C252 C229 1.391 . S
H253 C213 0.951 . S
H254 C214 0.950 . S
H255 C220 0.949 . S
H256 C221 0.950 . S
H257 C225 0.951 1_556 S
H258 C226 0.950 . S
H259 C230 0.949 . S
H260 C231 0.950 . S
H261 C235 0.950 . S
H262 C237 0.950 . S
H263 C240 0.950 . S
H264 C242 0.950 . S
C265 C266 1.443 . S
C265 N269 1.376 . S
C265 C303 1.389 . S
C266 C265 1.443 . S
C266 C267 1.340 . S
C266 H306 0.951 . S
C267 C266 1.340 . S
C267 C268 1.439 . S
C267 H307 0.950 . S
C268 C267 1.439 . S
C268 N269 1.374 . S
C268 C302 1.395 . S
N269 C265 1.376 . S
N269 C268 1.374 . S
N269 Co270 2.008 . S
Co270 N269 2.008 . S
Co270 N271 1.995 . S
Co270 N276 2.008 . S
Co270 N281 1.995 . S
Co270 N286 2.282 . S
Co270 N292 2.282 . S
N271 Co270 1.995 . S
N271 C272 1.376 . S
N271 C275 1.383 . S
C272 N271 1.376 . S
C272 C273 1.446 . S
C272 C302 1.391 . S
C273 C272 1.446 . S
C273 C274 1.339 . S
C273 H308 0.949 . S
C274 C273 1.339 . S
C274 C275 1.439 . S
C274 H309 0.950 . S
C275 N271 1.383 . S
C275 C274 1.439 . S
C275 C304 1.392 . S
N276 Co270 2.008 . S
N276 C277 1.376 . S
N276 C280 1.374 . S
C277 N276 1.376 . S
C277 C278 1.443 . S
C277 C304 1.389 . S
C278 C277 1.443 . S
C278 C279 1.340 . S
C278 H310 0.951 . S
C279 C278 1.340 . S
C279 C280 1.439 . S
C279 H311 0.950 . S
C280 N276 1.374 . S
C280 C279 1.439 . S
C280 C305 1.395 . S
N281 Co270 1.995 . S
N281 C282 1.376 . S
N281 C285 1.383 . S
C282 N281 1.376 . S
C282 C283 1.446 . S
C282 C305 1.391 . S
C283 C282 1.446 . S
C283 C284 1.339 . S
C283 H312 0.949 . S
C284 C283 1.339 . S
C284 C285 1.439 . S
C284 H313 0.950 . S
C285 N281 1.383 . S
C285 C284 1.439 . S
C285 C303 1.392 . S
N286 Co270 2.282 . S
N286 C289 1.332 . S
N286 C291 1.332 . S
C287 C288 1.386 . S
C287 C290 1.388 . S
C288 C287 1.386 . S
C288 C289 1.382 . S
C288 H314 0.950 . S
C289 N286 1.332 . S
C289 C288 1.382 . S
C289 H300 0.952 . S
C290 C287 1.388 . S
C290 C291 1.382 . S
C290 H315 0.950 . S
C291 N286 1.332 . S
C291 C290 1.382 . S
C291 H301 0.948 . S
N292 Co270 2.282 . S
N292 C296 1.332 . S
N292 C297 1.332 . S
C293 C294 1.388 . S
C293 C297 1.382 . S
C293 H316 0.950 . S
C294 C293 1.388 . S
C294 C295 1.386 . S
C295 C294 1.386 . S
C295 C296 1.382 . S
C295 H317 0.950 . S
C296 N292 1.332 . S
C296 C295 1.382 . S
C296 H298 0.952 . S
C297 N292 1.332 . S
C297 C293 1.382 . S
C297 H299 0.948 . S
H298 C296 0.952 . S
H299 C297 0.948 . S
H300 C289 0.952 . S
H301 C291 0.948 . S
C302 C268 1.395 . S
C302 C272 1.391 . S
C303 C265 1.389 . S
C303 C285 1.392 . S
C304 C275 1.392 . S
C304 C277 1.389 . S
C305 C280 1.395 . S
C305 C282 1.391 . S
H306 C266 0.951 . S
H307 C267 0.950 . S
H308 C273 0.949 . S
H309 C274 0.950 . S
H310 C278 0.951 . S
H311 C279 0.950 . S
H312 C283 0.949 . S
H313 C284 0.950 . S
H314 C288 0.950 . S
H315 C290 0.950 . S
H316 C293 0.950 . S
H317 C295 0.950 . S
C318 O345 1.312 . S
C318 O346 1.208 . S
C319 O340 1.331 . S
C319 O343 1.244 . S
C320 O342 1.264 . S
C320 O344 1.273 . S
Mg321 O323 1.936 1_455 S
Mg321 O330 2.081 1_455 S
Mg321 O332 2.023 . S
Mg321 O336 2.031 1_455 S
Mg321 O345 2.291 . S
Mg322 O323 1.963 . S
Mg322 O333 1.942 . S
Mg322 O334 1.955 1_655 S
Mg322 O341 1.986 . S
O323 Mg321 1.936 1_655 S
O323 Mg322 1.963 . S
O323 Mg324 1.915 1_655 S
Mg324 O323 1.915 1_455 S
Mg324 O325 1.915 . S
Mg324 O329 2.013 . S
Mg324 O335 2.114 1_455 S
Mg324 O339 2.013 1_455 S
Mg324 O345 2.114 . S
O325 Mg324 1.915 . S
O325 Mg326 1.936 . S
O325 Mg327 1.963 . S
Mg326 O325 1.936 . S
Mg326 O335 2.291 1_455 S
Mg326 O340 2.081 . S
Mg326 O342 2.023 1_455 S
Mg326 O346 2.031 . S
Mg327 O325 1.963 . S
Mg327 O331 1.986 . S
Mg327 O343 1.942 . S
Mg327 O344 1.955 1_455 S
C328 O339 1.191 . S
C328 O341 1.307 . S
O329 Mg324 2.013 . S
O329 C348 1.191 . S
O330 Mg321 2.081 1_655 S
O330 C338 1.331 . S
O331 Mg327 1.986 . S
O331 C348 1.307 . S
O332 Mg321 2.023 . S
O332 C347 1.264 . S
O333 Mg322 1.942 . S
O333 C338 1.244 . S
O334 Mg322 1.955 1_455 S
O334 C347 1.273 . S
O335 Mg324 2.114 1_655 S
O335 Mg326 2.291 1_655 S
O335 C337 1.312 . S
O336 Mg321 2.031 1_655 S
O336 C337 1.208 . S
C337 O335 1.312 . S
C337 O336 1.208 . S
C338 O330 1.331 . S
C338 O333 1.244 . S
O339 Mg324 2.013 1_655 S
O339 C328 1.191 . S
O340 C319 1.331 . S
O340 Mg326 2.081 . S
O341 Mg322 1.986 . S
O341 C328 1.307 . S
O342 C320 1.264 . S
O342 Mg326 2.023 1_655 S
O343 C319 1.244 . S
O343 Mg327 1.942 . S
O344 C320 1.273 . S
O344 Mg327 1.955 1_655 S
O345 C318 1.312 . S
O345 Mg321 2.291 . S
O345 Mg324 2.114 . S
O346 C318 1.208 . S
O346 Mg326 2.031 . S
C347 O332 1.264 . S
C347 O334 1.273 . S
C348 O329 1.191 . S
C348 O331 1.307 . S
C349 O376 1.312 . S
C349 O377 1.208 . S
C350 O371 1.331 . S
C350 O374 1.244 . S
C351 O373 1.264 . S
C351 O375 1.273 . S
Mg352 O354 1.936 1_545 S
Mg352 O361 2.081 1_545 S
Mg352 O363 2.023 . S
Mg352 O367 2.031 1_545 S
Mg352 O376 2.291 . S
Mg353 O354 1.963 . S
Mg353 O364 1.942 . S
Mg353 O365 1.955 1_565 S
Mg353 O372 1.986 . S
O354 Mg352 1.936 1_565 S
O354 Mg353 1.963 . S
O354 Mg355 1.915 1_565 S
Mg355 O354 1.915 1_545 S
Mg355 O356 1.915 . S
Mg355 O360 2.013 . S
Mg355 O366 2.114 1_545 S
Mg355 O370 2.013 1_545 S
Mg355 O376 2.114 . S
O356 Mg355 1.915 . S
O356 Mg357 1.936 . S
O356 Mg358 1.963 . S
Mg357 O356 1.936 . S
Mg357 O366 2.291 1_545 S
Mg357 O371 2.081 . S
Mg357 O373 2.023 1_545 S
Mg357 O377 2.031 . S
Mg358 O356 1.963 . S
Mg358 O362 1.986 . S
Mg358 O374 1.942 . S
Mg358 O375 1.955 1_545 S
C359 O370 1.191 . S
C359 O372 1.307 . S
O360 Mg355 2.013 . S
O360 C379 1.191 . S
O361 Mg352 2.081 1_565 S
O361 C369 1.331 . S
O362 Mg358 1.986 . S
O362 C379 1.307 . S
O363 Mg352 2.023 . S
O363 C378 1.264 . S
O364 Mg353 1.942 . S
O364 C369 1.244 . S
O365 Mg353 1.955 1_545 S
O365 C378 1.273 . S
O366 Mg355 2.114 1_565 S
O366 Mg357 2.291 1_565 S
O366 C368 1.312 . S
O367 Mg352 2.031 1_565 S
O367 C368 1.208 . S
C368 O366 1.312 . S
C368 O367 1.208 . S
C369 O361 1.331 . S
C369 O364 1.244 . S
O370 Mg355 2.013 1_565 S
O370 C359 1.191 . S
O371 C350 1.331 . S
O371 Mg357 2.081 . S
O372 Mg353 1.986 . S
O372 C359 1.307 . S
O373 C351 1.264 . S
O373 Mg357 2.023 1_565 S
O374 C350 1.244 . S
O374 Mg358 1.942 . S
O375 C351 1.273 . S
O375 Mg358 1.955 1_565 S
O376 C349 1.312 . S
O376 Mg352 2.291 . S
O376 Mg355 2.114 . S
O377 C349 1.208 . S
O377 Mg357 2.031 . S
C378 O363 1.264 . S
C378 O365 1.273 . S
C379 O360 1.191 . S
C379 O362 1.307 . S
C380 O407 1.312 . S
C380 O408 1.208 . S
C381 O402 1.331 . S
C381 O405 1.244 . S
C382 O404 1.264 . S
C382 O406 1.273 . S
Mg383 O385 1.936 . S
Mg383 O392 2.081 . S
Mg383 O394 2.023 . S
Mg383 O398 2.031 . S
Mg383 O407 2.291 . S
Mg384 O385 1.963 . S
Mg384 O395 1.942 . S
Mg384 O396 1.955 . S
Mg384 O403 1.986 . S
O385 Mg383 1.936 . S
O385 Mg384 1.963 . S
O385 Mg386 1.915 . S
Mg386 O385 1.915 . S
Mg386 O387 1.915 . S
Mg386 O391 2.013 . S
Mg386 O397 2.114 . S
Mg386 O401 2.013 . S
Mg386 O407 2.114 . S
O387 Mg386 1.915 . S
O387 Mg388 1.936 . S
O387 Mg389 1.963 . S
Mg388 O387 1.936 . S
Mg388 O397 2.291 . S
Mg388 O402 2.081 . S
Mg388 O404 2.023 . S
Mg388 O408 2.031 . S
Mg389 O387 1.963 . S
Mg389 O393 1.986 . S
Mg389 O405 1.942 . S
Mg389 O406 1.955 . S
C390 O401 1.191 . S
C390 O403 1.307 . S
O391 Mg386 2.013 . S
O391 C410 1.191 . S
O392 Mg383 2.081 . S
O392 C400 1.331 . S
O393 Mg389 1.986 . S
O393 C410 1.307 . S
O394 Mg383 2.023 . S
O394 C409 1.264 . S
O395 Mg384 1.942 . S
O395 C400 1.244 . S
O396 Mg384 1.955 . S
O396 C409 1.273 . S
O397 Mg386 2.114 . S
O397 Mg388 2.291 . S
O397 C399 1.312 . S
O398 Mg383 2.031 . S
O398 C399 1.208 . S
C399 O397 1.312 . S
C399 O398 1.208 . S
C400 O392 1.331 . S
C400 O395 1.244 . S
O401 Mg386 2.013 . S
O401 C390 1.191 . S
O402 C381 1.331 . S
O402 Mg388 2.081 . S
O403 Mg384 1.986 . S
O403 C390 1.307 . S
O404 C382 1.264 . S
O404 Mg388 2.023 . S
O405 C381 1.244 . S
O405 Mg389 1.942 . S
O406 C382 1.273 . S
O406 Mg389 1.955 . S
O407 C380 1.312 . S
O407 Mg383 2.291 . S
O407 Mg386 2.114 . S
O408 C380 1.208 . S
O408 Mg388 2.031 . S
C409 O394 1.264 . S
C409 O396 1.273 . S
C410 O391 1.191 . S
C410 O393 1.307 . S
C411 C412 1.391 . S
C411 C413 1.394 . S
C411 H427 0.931 . S
C412 C411 1.391 . S
C412 C416 1.376 . S
C413 C411 1.394 . S
C413 C414 1.369 . S
C413 C417 1.531 . S
C414 C413 1.369 . S
C414 C415 1.410 . S
C414 C422 1.503 . S
C415 C414 1.410 . S
C415 C416 1.392 . S
C415 C418 1.511 . S
C416 C412 1.376 . S
C416 C415 1.392 . S
C416 H428 0.929 . S
C417 C413 1.531 . S
C417 H429 0.960 . S
C417 H430 0.962 . S
C417 H431 0.960 . S
C418 C415 1.511 . S
C418 H432 0.961 . S
C418 H433 0.961 . S
C418 H434 0.961 . S
C419 C420 1.370 . S
C419 C421 1.363 . S
C419 H435 0.931 . S
C420 C419 1.370 . S
C420 C424 1.408 . S
C421 C419 1.363 . S
C421 C422 1.370 . S
C421 C425 1.524 . S
C422 C414 1.503 . S
C422 C421 1.370 . S
C422 C423 1.403 . S
C423 C422 1.403 . S
C423 C424 1.404 . S
C423 C426 1.539 . S
C424 C420 1.408 . S
C424 C423 1.404 . S
C424 H436 0.930 . S
C425 C421 1.524 . S
C425 H437 0.956 . S
C425 H438 0.961 . S
C425 H439 0.961 . S
C426 C423 1.539 . S
C426 H440 0.958 . S
C426 H441 0.961 . S
C426 H442 0.960 . S
H427 C411 0.931 . S
H428 C416 0.929 . S
H429 C417 0.960 . S
H430 C417 0.962 . S
H431 C417 0.960 . S
H432 C418 0.961 . S
H433 C418 0.961 . S
H434 C418 0.961 . S
H435 C419 0.931 . S
H436 C424 0.930 . S
H437 C425 0.956 . S
H438 C425 0.961 . S
H439 C425 0.961 . S
H440 C426 0.958 . S
H441 C426 0.961 . S
H442 C426 0.960 . S
C443 C444 1.391 . S
C443 C445 1.394 . S
C443 H459 0.931 . S
C444 C443 1.391 . S
C444 C448 1.376 . S
C445 C443 1.394 . S
C445 C446 1.369 . S
C445 C449 1.531 . S
C446 C445 1.369 . S
C446 C447 1.410 . S
C446 C454 1.503 . S
C447 C446 1.410 . S
C447 C448 1.392 . S
C447 C450 1.511 . S
C448 C444 1.376 . S
C448 C447 1.392 . S
C448 H460 0.929 . S
C449 C445 1.531 . S
C449 H461 0.960 . S
C449 H462 0.962 . S
C449 H463 0.960 . S
C450 C447 1.511 . S
C450 H464 0.961 . S
C450 H465 0.961 . S
C450 H466 0.961 . S
C451 C452 1.370 . S
C451 C453 1.363 . S
C451 H467 0.931 . S
C452 C451 1.370 . S
C452 C456 1.408 . S
C453 C451 1.363 . S
C453 C454 1.370 . S
C453 C457 1.524 . S
C454 C446 1.503 . S
C454 C453 1.370 . S
C454 C455 1.403 . S
C455 C454 1.403 . S
C455 C456 1.404 . S
C455 C458 1.539 . S
C456 C452 1.408 . S
C456 C455 1.404 . S
C456 H468 0.930 . S
C457 C453 1.524 . S
C457 H469 0.956 . S
C457 H470 0.961 . S
C457 H471 0.961 . S
C458 C455 1.539 . S
C458 H472 0.958 . S
C458 H473 0.961 . S
C458 H474 0.960 . S
H459 C443 0.931 . S
H460 C448 0.929 . S
H461 C449 0.960 . S
H462 C449 0.962 . S
H463 C449 0.960 . S
H464 C450 0.961 . S
H465 C450 0.961 . S
H466 C450 0.961 . S
H467 C451 0.931 . S
H468 C456 0.930 . S
H469 C457 0.956 . S
H470 C457 0.961 . S
H471 C457 0.961 . S
H472 C458 0.958 . S
H473 C458 0.961 . S
H474 C458 0.960 . S
C475 C476 1.391 . S
C475 C477 1.394 . S
C475 H491 0.931 . S
C476 C475 1.391 . S
C476 C480 1.376 . S
C477 C475 1.394 . S
C477 C478 1.369 . S
C477 C481 1.531 . S
C478 C477 1.369 . S
C478 C479 1.410 . S
C478 C486 1.503 . S
C479 C478 1.410 . S
C479 C480 1.392 . S
C479 C482 1.511 . S
C480 C476 1.376 . S
C480 C479 1.392 . S
C480 H492 0.929 . S
C481 C477 1.531 . S
C481 H493 0.960 . S
C481 H494 0.962 . S
C481 H495 0.960 . S
C482 C479 1.511 . S
C482 H496 0.961 . S
C482 H497 0.961 . S
C482 H498 0.961 . S
C483 C484 1.370 . S
C483 C485 1.363 . S
C483 H499 0.931 . S
C484 C483 1.370 . S
C484 C488 1.408 . S
C485 C483 1.363 . S
C485 C486 1.370 . S
C485 C489 1.524 . S
C486 C478 1.503 . S
C486 C485 1.370 . S
C486 C487 1.403 . S
C487 C486 1.403 . S
C487 C488 1.404 . S
C487 C490 1.539 . S
C488 C484 1.408 . S
C488 C487 1.404 . S
C488 H500 0.930 . S
C489 C485 1.524 . S
C489 H501 0.956 . S
C489 H502 0.961 . S
C489 H503 0.961 . S
C490 C487 1.539 . S
C490 H504 0.958 . S
C490 H505 0.961 . S
C490 H506 0.960 . S
H491 C475 0.931 . S
H492 C480 0.929 . S
H493 C481 0.960 . S
H494 C481 0.962 . S
H495 C481 0.960 . S
H496 C482 0.961 . S
H497 C482 0.961 . S
H498 C482 0.961 . S
H499 C483 0.931 . S
H500 C488 0.930 . S
H501 C489 0.956 . S
H502 C489 0.961 . S
H503 C489 0.961 . S
H504 C490 0.958 . S
H505 C490 0.961 . S
H506 C490 0.960 . S
C507 C508 1.391 . S
C507 C509 1.394 . S
C507 H523 0.931 . S
C508 C507 1.391 . S
C508 C512 1.376 . S
C509 C507 1.394 . S
C509 C510 1.369 . S
C509 C513 1.531 . S
C510 C509 1.369 . S
C510 C511 1.410 . S
C510 C518 1.503 . S
C511 C510 1.410 . S
C511 C512 1.392 . S
C511 C514 1.511 . S
C512 C508 1.376 . S
C512 C511 1.392 . S
C512 H524 0.929 . S
C513 C509 1.531 . S
C513 H525 0.960 . S
C513 H526 0.962 . S
C513 H527 0.960 . S
C514 C511 1.511 . S
C514 H528 0.961 . S
C514 H529 0.961 . S
C514 H530 0.961 . S
C515 C516 1.370 . S
C515 C517 1.363 . S
C515 H531 0.931 . S
C516 C515 1.370 . S
C516 C520 1.408 . S
C517 C515 1.363 . S
C517 C518 1.370 . S
C517 C521 1.524 . S
C518 C510 1.503 . S
C518 C517 1.370 . S
C518 C519 1.403 . S
C519 C518 1.403 . S
C519 C520 1.404 . S
C519 C522 1.539 . S
C520 C516 1.408 . S
C520 C519 1.404 . S
C520 H532 0.930 . S
C521 C517 1.524 . S
C521 H533 0.956 . S
C521 H534 0.961 . S
C521 H535 0.961 . S
C522 C519 1.539 . S
C522 H536 0.958 . S
C522 H537 0.961 . S
C522 H538 0.960 . S
H523 C507 0.931 . S
H524 C512 0.929 . S
H525 C513 0.960 . S
H526 C513 0.962 . S
H527 C513 0.960 . S
H528 C514 0.961 . S
H529 C514 0.961 . S
H530 C514 0.961 . S
H531 C515 0.931 . S
H532 C520 0.930 . S
H533 C521 0.956 . S
H534 C521 0.961 . S
H535 C521 0.961 . S
H536 C522 0.958 . S
H537 C522 0.961 . S
H538 C522 0.960 . S
C539 C540 1.391 . S
C539 C541 1.394 . S
C539 H555 0.931 . S
C540 C539 1.391 . S
C540 C544 1.376 . S
C541 C539 1.394 . S
C541 C542 1.369 . S
C541 C545 1.531 . S
C542 C541 1.369 . S
C542 C543 1.410 . S
C542 C550 1.503 . S
C543 C542 1.410 . S
C543 C544 1.392 . S
C543 C546 1.511 . S
C544 C540 1.376 . S
C544 C543 1.392 . S
C544 H556 0.929 . S
C545 C541 1.531 . S
C545 H557 0.960 . S
C545 H558 0.962 . S
C545 H559 0.960 . S
C546 C543 1.511 . S
C546 H560 0.961 . S
C546 H561 0.961 . S
C546 H562 0.961 . S
C547 C548 1.370 . S
C547 C549 1.363 . S
C547 H563 0.931 . S
C548 C547 1.370 . S
C548 C552 1.408 . S
C549 C547 1.363 . S
C549 C550 1.370 . S
C549 C553 1.524 . S
C550 C542 1.503 . S
C550 C549 1.370 . S
C550 C551 1.403 . S
C551 C550 1.403 . S
C551 C552 1.404 . S
C551 C554 1.539 . S
C552 C548 1.408 . S
C552 C551 1.404 . S
C552 H564 0.930 . S
C553 C549 1.524 . S
C553 H565 0.956 . S
C553 H566 0.961 . S
C553 H567 0.961 . S
C554 C551 1.539 . S
C554 H568 0.958 . S
C554 H569 0.961 . S
C554 H570 0.960 . S
H555 C539 0.931 . S
H556 C544 0.929 . S
H557 C545 0.960 . S
H558 C545 0.962 . S
H559 C545 0.960 . S
H560 C546 0.961 . S
H561 C546 0.961 . S
H562 C546 0.961 . S
H563 C547 0.931 . S
H564 C552 0.930 . S
H565 C553 0.956 . S
H566 C553 0.961 . S
H567 C553 0.961 . S
H568 C554 0.958 . S
H569 C554 0.961 . S
H570 C554 0.960 . S
C571 C572 1.391 . S
C571 C573 1.394 . S
C571 H587 0.931 . S
C572 C571 1.391 . S
C572 C576 1.376 . S
C573 C571 1.394 . S
C573 C574 1.369 . S
C573 C577 1.531 . S
C574 C573 1.369 . S
C574 C575 1.410 . S
C574 C582 1.503 . S
C575 C574 1.410 . S
C575 C576 1.392 . S
C575 C578 1.511 . S
C576 C572 1.376 . S
C576 C575 1.392 . S
C576 H588 0.929 . S
C577 C573 1.531 . S
C577 H589 0.960 . S
C577 H590 0.962 . S
C577 H591 0.960 . S
C578 C575 1.511 . S
C578 H592 0.961 . S
C578 H593 0.961 . S
C578 H594 0.961 . S
C579 C580 1.370 . S
C579 C581 1.363 . S
C579 H595 0.931 . S
C580 C579 1.370 . S
C580 C584 1.408 . S
C581 C579 1.363 . S
C581 C582 1.370 . S
C581 C585 1.524 . S
C582 C574 1.503 . S
C582 C581 1.370 . S
C582 C583 1.403 . S
C583 C582 1.403 . S
C583 C584 1.404 . S
C583 C586 1.539 . S
C584 C580 1.408 . S
C584 C583 1.404 . S
C584 H596 0.930 . S
C585 C581 1.524 . S
C585 H597 0.956 . S
C585 H598 0.961 . S
C585 H599 0.961 . S
C586 C583 1.539 . S
C586 H600 0.958 . S
C586 H601 0.961 . S
C586 H602 0.960 . S
H587 C571 0.931 . S
H588 C576 0.929 . S
H589 C577 0.960 . S
H590 C577 0.962 . S
H591 C577 0.960 . S
H592 C578 0.961 . S
H593 C578 0.961 . S
H594 C578 0.961 . S
H595 C579 0.931 . S
H596 C584 0.930 . S
H597 C585 0.956 . S
H598 C585 0.961 . S
H599 C585 0.961 . S
H600 C586 0.958 . S
H601 C586 0.961 . S
H602 C586 0.960 . S
C603 C604 1.391 . S
C603 C605 1.394 . S
C603 H619 0.931 . S
C604 C603 1.391 . S
C604 C608 1.376 . S
C605 C603 1.394 . S
C605 C606 1.369 . S
C605 C609 1.531 . S
C606 C605 1.369 . S
C606 C607 1.410 . S
C606 C614 1.503 . S
C607 C606 1.410 . S
C607 C608 1.392 . S
C607 C610 1.511 . S
C608 C604 1.376 . S
C608 C607 1.392 . S
C608 H620 0.929 . S
C609 C605 1.531 . S
C609 H621 0.960 . S
C609 H622 0.962 . S
C609 H623 0.960 . S
C610 C607 1.511 . S
C610 H624 0.961 . S
C610 H625 0.961 . S
C610 H626 0.961 . S
C611 C612 1.370 . S
C611 C613 1.363 . S
C611 H627 0.931 . S
C612 C611 1.370 . S
C612 C616 1.408 . S
C613 C611 1.363 . S
C613 C614 1.370 . S
C613 C617 1.524 . S
C614 C606 1.503 . S
C614 C613 1.370 . S
C614 C615 1.403 . S
C615 C614 1.403 . S
C615 C616 1.404 . S
C615 C618 1.539 . S
C616 C612 1.408 . S
C616 C615 1.404 . S
C616 H628 0.930 . S
C617 C613 1.524 . S
C617 H629 0.956 . S
C617 H630 0.961 . S
C617 H631 0.961 . S
C618 C615 1.539 . S
C618 H632 0.958 . S
C618 H633 0.961 . S
C618 H634 0.960 . S
H619 C603 0.931 . S
H620 C608 0.929 . S
H621 C609 0.960 . S
H622 C609 0.962 . S
H623 C609 0.960 . S
H624 C610 0.961 . S
H625 C610 0.961 . S
H626 C610 0.961 . S
H627 C611 0.931 . S
H628 C616 0.930 . S
H629 C617 0.956 . S
H630 C617 0.961 . S
H631 C617 0.961 . S
H632 C618 0.958 . S
H633 C618 0.961 . S
H634 C618 0.960 . S
C635 C636 1.391 . S
C635 C637 1.394 . S
C635 H651 0.931 . S
C636 C635 1.391 . S
C636 C640 1.376 . S
C637 C635 1.394 . S
C637 C638 1.369 . S
C637 C641 1.531 . S
C638 C637 1.369 . S
C638 C639 1.410 . S
C638 C646 1.503 . S
C639 C638 1.410 . S
C639 C640 1.392 . S
C639 C642 1.511 . S
C640 C636 1.376 . S
C640 C639 1.392 . S
C640 H652 0.929 . S
C641 C637 1.531 . S
C641 H653 0.960 . S
C641 H654 0.962 . S
C641 H655 0.960 . S
C642 C639 1.511 . S
C642 H656 0.961 . S
C642 H657 0.961 . S
C642 H658 0.961 . S
C643 C644 1.370 . S
C643 C645 1.363 . S
C643 H659 0.931 . S
C644 C643 1.370 . S
C644 C648 1.408 . S
C645 C643 1.363 . S
C645 C646 1.370 . S
C645 C649 1.524 . S
C646 C638 1.503 . S
C646 C645 1.370 . S
C646 C647 1.403 . S
C647 C646 1.403 . S
C647 C648 1.404 . S
C647 C650 1.539 . S
C648 C644 1.408 . S
C648 C647 1.404 . S
C648 H660 0.930 . S
C649 C645 1.524 . S
C649 H661 0.956 . S
C649 H662 0.961 . S
C649 H663 0.961 . S
C650 C647 1.539 . S
C650 H664 0.958 . S
C650 H665 0.961 . S
C650 H666 0.960 . S
H651 C635 0.931 . S
H652 C640 0.929 . S
H653 C641 0.960 . S
H654 C641 0.962 . S
H655 C641 0.960 . S
H656 C642 0.961 . S
H657 C642 0.961 . S
H658 C642 0.961 . S
H659 C643 0.931 . S
H660 C648 0.930 . S
H661 C649 0.956 . S
H662 C649 0.961 . S
H663 C649 0.961 . S
H664 C650 0.958 . S
H665 C650 0.961 . S
H666 C650 0.960 . S
C667 C668 1.391 . S
C667 C669 1.394 . S
C667 H683 0.931 . S
C668 C667 1.391 . S
C668 C672 1.376 . S
C669 C667 1.394 . S
C669 C670 1.369 . S
C669 C673 1.531 . S
C670 C669 1.369 . S
C670 C671 1.410 . S
C670 C678 1.503 . S
C671 C670 1.410 . S
C671 C672 1.392 . S
C671 C674 1.511 . S
C672 C668 1.376 . S
C672 C671 1.392 . S
C672 H684 0.929 . S
C673 C669 1.531 . S
C673 H685 0.960 . S
C673 H686 0.962 . S
C673 H687 0.960 . S
C674 C671 1.511 . S
C674 H688 0.961 . S
C674 H689 0.961 . S
C674 H690 0.961 . S
C675 C676 1.370 . S
C675 C677 1.363 . S
C675 H691 0.931 . S
C676 C675 1.370 . S
C676 C680 1.408 . S
C677 C675 1.363 . S
C677 C678 1.370 . S
C677 C681 1.524 . S
C678 C670 1.503 . S
C678 C677 1.370 . S
C678 C679 1.403 . S
C679 C678 1.403 . S
C679 C680 1.404 . S
C679 C682 1.539 . S
C680 C676 1.408 . S
C680 C679 1.404 . S
C680 H692 0.930 . S
C681 C677 1.524 . S
C681 H693 0.956 . S
C681 H694 0.961 . S
C681 H695 0.961 . S
C682 C679 1.539 . S
C682 H696 0.958 . S
C682 H697 0.961 . S
C682 H698 0.960 . S
H683 C667 0.931 . S
H684 C672 0.929 . S
H685 C673 0.960 . S
H686 C673 0.962 . S
H687 C673 0.960 . S
H688 C674 0.961 . S
H689 C674 0.961 . S
H690 C674 0.961 . S
H691 C675 0.931 . S
H692 C680 0.930 . S
H693 C681 0.956 . S
H694 C681 0.961 . S
H695 C681 0.961 . S
H696 C682 0.958 . S
H697 C682 0.961 . S
H698 C682 0.960 . S
C699 C700 1.391 . S
C699 C701 1.394 . S
C699 H715 0.931 1_556 S
C700 C699 1.391 . S
C700 C704 1.376 . S
C701 C699 1.394 . S
C701 C702 1.369 . S
C701 C705 1.531 . S
C702 C701 1.369 . S
C702 C703 1.410 . S
C702 C710 1.503 . S
C703 C702 1.410 . S
C703 C704 1.392 . S
C703 C706 1.511 . S
C704 C700 1.376 . S
C704 C703 1.392 . S
C704 H716 0.929 . S
C705 C701 1.531 . S
C705 H717 0.960 . S
C705 H718 0.962 . S
C705 H719 0.960 1_556 S
C706 C703 1.511 . S
C706 H720 0.961 . S
C706 H721 0.961 . S
C706 H722 0.961 . S
C707 C708 1.370 . S
C707 C709 1.363 . S
C707 H723 0.931 . S
C708 C707 1.370 . S
C708 C712 1.408 . S
C709 C707 1.363 . S
C709 C710 1.370 . S
C709 C713 1.524 . S
C710 C702 1.503 . S
C710 C709 1.370 . S
C710 C711 1.403 . S
C711 C710 1.403 . S
C711 C712 1.404 . S
C711 C714 1.539 . S
C712 C708 1.408 . S
C712 C711 1.404 . S
C712 H724 0.930 . S
C713 C709 1.524 . S
C713 H725 0.956 . S
C713 H726 0.961 . S
C713 H727 0.961 . S
C714 C711 1.539 . S
C714 H728 0.958 . S
C714 H729 0.961 . S
C714 H730 0.960 . S
H715 C699 0.931 1_554 S
H716 C704 0.929 . S
H717 C705 0.960 . S
H718 C705 0.962 . S
H719 C705 0.960 1_554 S
H720 C706 0.961 . S
H721 C706 0.961 . S
H722 C706 0.961 . S
H723 C707 0.931 . S
H724 C712 0.930 . S
H725 C713 0.956 . S
H726 C713 0.961 . S
H727 C713 0.961 . S
H728 C714 0.958 . S
H729 C714 0.961 . S
H730 C714 0.960 . S
C731 C732 1.391 1_556 S
C731 C733 1.394 . S
C731 H747 0.931 . S
C732 C731 1.391 1_554 S
C732 C736 1.376 . S
C733 C731 1.394 . S
C733 C734 1.369 . S
C733 C737 1.531 . S
C734 C733 1.369 . S
C734 C735 1.410 . S
C734 C742 1.503 . S
C735 C734 1.410 . S
C735 C736 1.392 1_556 S
C735 C738 1.511 . S
C736 C732 1.376 . S
C736 C735 1.392 1_554 S
C736 H748 0.929 . S
C737 C733 1.531 . S
C737 H749 0.960 . S
C737 H750 0.962 . S
C737 H751 0.960 . S
C738 C735 1.511 . S
C738 H752 0.961 1_556 S
C738 H753 0.961 . S
C738 H754 0.961 . S
C739 C740 1.370 . S
C739 C741 1.363 . S
C739 H755 0.931 . S
C740 C739 1.370 . S
C740 C744 1.408 . S
C741 C739 1.363 . S
C741 C742 1.370 . S
C741 C745 1.524 . S
C742 C734 1.503 . S
C742 C741 1.370 . S
C742 C743 1.403 . S
C743 C742 1.403 . S
C743 C744 1.404 . S
C743 C746 1.539 . S
C744 C740 1.408 . S
C744 C743 1.404 . S
C744 H756 0.930 . S
C745 C741 1.524 . S
C745 H757 0.956 . S
C745 H758 0.961 1_556 S
C745 H759 0.961 . S
C746 C743 1.539 . S
C746 H760 0.958 . S
C746 H761 0.961 . S
C746 H762 0.960 . S
H747 C731 0.931 . S
H748 C736 0.929 . S
H749 C737 0.960 . S
H750 C737 0.962 . S
H751 C737 0.960 . S
H752 C738 0.961 1_554 S
H753 C738 0.961 . S
H754 C738 0.961 . S
H755 C739 0.931 . S
H756 C744 0.930 . S
H757 C745 0.956 . S
H758 C745 0.961 1_554 S
H759 C745 0.961 . S
H760 C746 0.958 . S
H761 C746 0.961 . S
H762 C746 0.960 . S
C763 C764 1.391 . S
C763 C765 1.394 . S
C763 H779 0.931 . S
C764 C763 1.391 . S
C764 C768 1.376 . S
C765 C763 1.394 . S
C765 C766 1.369 . S
C765 C769 1.531 . S
C766 C765 1.369 . S
C766 C767 1.410 . S
C766 C774 1.503 . S
C767 C766 1.410 . S
C767 C768 1.392 . S
C767 C770 1.511 . S
C768 C764 1.376 . S
C768 C767 1.392 . S
C768 H780 0.929 . S
C769 C765 1.531 . S
C769 H781 0.960 . S
C769 H782 0.962 . S
C769 H783 0.960 . S
C770 C767 1.511 . S
C770 H784 0.961 . S
C770 H785 0.961 . S
C770 H786 0.961 . S
C771 C772 1.370 . S
C771 C773 1.363 . S
C771 H787 0.931 . S
C772 C771 1.370 . S
C772 C776 1.408 . S
C773 C771 1.363 . S
C773 C774 1.370 . S
C773 C777 1.524 . S
C774 C766 1.503 . S
C774 C773 1.370 . S
C774 C775 1.403 . S
C775 C774 1.403 . S
C775 C776 1.404 . S
C775 C778 1.539 . S
C776 C772 1.408 . S
C776 C775 1.404 . S
C776 H788 0.930 . S
C777 C773 1.524 . S
C777 H789 0.956 . S
C777 H790 0.952 1_556 S
C777 H791 0.961 1_556 S
C778 C775 1.539 . S
C778 H792 0.958 . S
C778 H793 0.961 . S
C778 H794 0.960 . S
H779 C763 0.931 . S
H780 C768 0.929 . S
H781 C769 0.960 . S
H782 C769 0.962 . S
H783 C769 0.960 . S
H784 C770 0.961 . S
H785 C770 0.961 . S
H786 C770 0.961 . S
H787 C771 0.931 . S
H788 C776 0.930 . S
H789 C777 0.956 . S
H790 C777 0.952 1_554 S
H791 C777 0.961 1_554 S
H792 C778 0.958 . S
H793 C778 0.961 . S
H794 C778 0.960 . S
C795 C796 1.391 . S
C795 C797 1.394 . S
C795 H811 0.931 . S
C796 C795 1.391 . S
C796 C800 1.376 . S
C797 C795 1.394 . S
C797 C798 1.369 . S
C797 C801 1.531 . S
C798 C797 1.369 . S
C798 C799 1.410 . S
C798 C806 1.503 . S
C799 C798 1.410 . S
C799 C800 1.392 . S
C799 C802 1.511 . S
C800 C796 1.376 . S
C800 C799 1.392 . S
C800 H812 0.929 . S
C801 C797 1.531 . S
C801 H813 0.960 . S
C801 H814 0.962 . S
C801 H815 0.960 . S
C802 C799 1.511 . S
C802 H816 0.961 . S
C802 H817 0.961 . S
C802 H818 0.961 . S
C803 C804 1.370 . S
C803 C805 1.363 . S
C803 H819 0.931 . S
C804 C803 1.370 . S
C804 C808 1.408 . S
C805 C803 1.363 . S
C805 C806 1.370 . S
C805 C809 1.524 . S
C806 C798 1.503 . S
C806 C805 1.370 . S
C806 C807 1.403 . S
C807 C806 1.403 . S
C807 C808 1.404 . S
C807 C810 1.539 . S
C808 C804 1.408 . S
C808 C807 1.404 . S
C808 H820 0.930 . S
C809 C805 1.524 . S
C809 H821 0.956 . S
C809 H822 0.961 . S
C809 H823 0.961 . S
C810 C807 1.539 . S
C810 H824 0.958 . S
C810 H825 0.961 . S
C810 H826 0.960 . S
H811 C795 0.931 . S
H812 C800 0.929 . S
H813 C801 0.960 . S
H814 C801 0.962 . S
H815 C801 0.960 . S
H816 C802 0.961 . S
H817 C802 0.961 . S
H818 C802 0.961 . S
H819 C803 0.931 . S
H820 C808 0.930 . S
H821 C809 0.956 . S
H822 C809 0.961 . S
H823 C809 0.961 . S
H824 C810 0.958 . S
H825 C810 0.961 . S
H826 C810 0.960 . S
C827 C828 1.391 . S
C827 C829 1.394 . S
C827 H843 0.931 . S
C828 C827 1.391 . S
C828 C832 1.376 . S
C829 C827 1.394 . S
C829 C830 1.369 . S
C829 C833 1.531 . S
C830 C829 1.369 . S
C830 C831 1.410 . S
C830 C838 1.503 . S
C831 C830 1.410 . S
C831 C832 1.392 . S
C831 C834 1.511 . S
C832 C828 1.376 . S
C832 C831 1.392 . S
C832 H844 0.929 . S
C833 C829 1.531 . S
C833 H845 0.960 . S
C833 H846 0.962 . S
C833 H847 0.960 . S
C834 C831 1.511 . S
C834 H848 0.961 . S
C834 H849 0.961 . S
C834 H850 0.961 . S
C835 C836 1.370 . S
C835 C837 1.363 . S
C835 H851 0.931 . S
C836 C835 1.370 . S
C836 C840 1.408 . S
C837 C835 1.363 . S
C837 C838 1.370 . S
C837 C841 1.524 . S
C838 C830 1.503 . S
C838 C837 1.370 . S
C838 C839 1.403 . S
C839 C838 1.403 . S
C839 C840 1.404 . S
C839 C842 1.539 . S
C840 C836 1.408 . S
C840 C839 1.404 . S
C840 H852 0.930 . S
C841 C837 1.524 . S
C841 H853 0.956 . S
C841 H854 0.961 . S
C841 H855 0.961 . S
C842 C839 1.539 . S
C842 H856 0.958 . S
C842 H857 0.961 . S
C842 H858 0.960 . S
H843 C827 0.931 . S
H844 C832 0.929 . S
H845 C833 0.960 . S
H846 C833 0.962 . S
H847 C833 0.960 . S
H848 C834 0.961 . S
H849 C834 0.961 . S
H850 C834 0.961 . S
H851 C835 0.931 . S
H852 C840 0.930 . S
H853 C841 0.956 . S
H854 C841 0.961 . S
H855 C841 0.961 . S
H856 C842 0.958 . S
H857 C842 0.961 . S
H858 C842 0.960 . S
C859 C860 1.391 . S
C859 C861 1.394 1_554 S
C859 H875 0.931 . S
C860 C859 1.391 . S
C860 C864 1.376 1_554 S
C861 C859 1.394 1_556 S
C861 C862 1.369 . S
C861 C865 1.531 . S
C862 C861 1.369 . S
C862 C863 1.410 . S
C862 C870 1.503 . S
C863 C862 1.410 . S
C863 C864 1.392 . S
C863 C866 1.511 . S
C864 C860 1.376 1_556 S
C864 C863 1.392 . S
C864 H876 0.929 . S
C865 C861 1.531 . S
C865 H877 0.960 . S
C865 H878 0.962 . S
C865 H879 0.960 1_556 S
C866 C863 1.511 . S
C866 H880 0.961 . S
C866 H881 0.961 . S
C866 H882 0.961 . S
C867 C868 1.370 . S
C867 C869 1.363 . S
C867 H883 0.931 . S
C868 C867 1.370 . S
C868 C872 1.408 . S
C869 C867 1.363 . S
C869 C870 1.370 . S
C869 C873 1.524 . S
C870 C862 1.503 . S
C870 C869 1.370 . S
C870 C871 1.403 . S
C871 C870 1.403 . S
C871 C872 1.404 . S
C871 C874 1.539 . S
C872 C868 1.408 . S
C872 C871 1.404 . S
C872 H884 0.930 . S
C873 C869 1.524 . S
C873 H885 0.956 . S
C873 H886 0.961 . S
C873 H887 0.961 . S
C874 C871 1.539 . S
C874 H888 0.958 . S
C874 H889 0.961 . S
C874 H890 0.960 . S
H875 C859 0.931 . S
H876 C864 0.929 . S
H877 C865 0.960 . S
H878 C865 0.962 . S
H879 C865 0.960 1_554 S
H880 C866 0.961 . S
H881 C866 0.961 . S
H882 C866 0.961 . S
H883 C867 0.931 . S
H884 C872 0.930 . S
H885 C873 0.956 . S
H886 C873 0.961 . S
H887 C873 0.961 . S
H888 C874 0.958 . S
H889 C874 0.961 . S
H890 C874 0.960 . S
C891 C892 1.391 . S
C891 C893 1.394 . S
C891 H907 0.931 . S
C892 C891 1.391 . S
C892 C896 1.376 . S
C893 C891 1.394 . S
C893 C894 1.369 1_554 S
C893 C897 1.531 . S
C894 C893 1.369 1_556 S
C894 C895 1.410 . S
C894 C902 1.503 . S
C895 C894 1.410 . S
C895 C896 1.392 1_556 S
C895 C898 1.511 . S
C896 C892 1.376 . S
C896 C895 1.392 1_554 S
C896 H908 0.929 1_554 S
C897 C893 1.531 . S
C897 H909 0.960 . S
C897 H910 0.962 . S
C897 H911 0.960 . S
C898 C895 1.511 . S
C898 H912 0.961 . S
C898 H913 0.961 . S
C898 H914 0.961 . S
C899 C900 1.370 . S
C899 C901 1.363 . S
C899 H915 0.931 . S
C900 C899 1.370 . S
C900 C904 1.408 . S
C901 C899 1.363 . S
C901 C902 1.370 . S
C901 C905 1.524 . S
C902 C894 1.503 . S
C902 C901 1.370 . S
C902 C903 1.403 . S
C903 C902 1.403 . S
C903 C904 1.404 . S
C903 C906 1.539 . S
C904 C900 1.408 . S
C904 C903 1.404 . S
C904 H916 0.930 . S
C905 C901 1.524 . S
C905 H917 0.956 . S
C905 H918 0.961 . S
C905 H919 0.961 . S
C906 C903 1.539 . S
C906 H920 0.958 . S
C906 H921 0.961 . S
C906 H922 0.960 . S
H907 C891 0.931 . S
H908 C896 0.929 1_556 S
H909 C897 0.960 . S
H910 C897 0.962 . S
H911 C897 0.960 . S
H912 C898 0.961 . S
H913 C898 0.961 . S
H914 C898 0.961 . S
H915 C899 0.931 . S
H916 C904 0.930 . S
H917 C905 0.956 . S
H918 C905 0.961 . S
H919 C905 0.961 . S
H920 C906 0.958 . S
H921 C906 0.961 . S
H922 C906 0.960 . S
C923 C924 1.391 . S
C923 C925 1.394 . S
C923 H939 0.931 . S
C924 C923 1.391 . S
C924 C928 1.376 . S
C925 C923 1.394 . S
C925 C926 1.369 . S
C925 C929 1.531 . S
C926 C925 1.369 . S
C926 C927 1.410 . S
C926 C934 1.503 . S
C927 C926 1.410 . S
C927 C928 1.392 . S
C927 C930 1.511 . S
C928 C924 1.376 . S
C928 C927 1.392 . S
C928 H940 0.929 . S
C929 C925 1.531 . S
C929 H941 0.960 . S
C929 H942 0.962 . S
C929 H943 0.960 . S
C930 C927 1.511 . S
C930 H944 0.961 . S
C930 H945 0.961 . S
C930 H946 0.961 . S
C931 C932 1.370 . S
C931 C933 1.363 . S
C931 H947 0.931 . S
C932 C931 1.370 . S
C932 C936 1.408 . S
C933 C931 1.363 . S
C933 C934 1.370 . S
C933 C937 1.524 . S
C934 C926 1.503 . S
C934 C933 1.370 . S
C934 C935 1.403 . S
C935 C934 1.403 . S
C935 C936 1.404 . S
C935 C938 1.539 . S
C936 C932 1.408 . S
C936 C935 1.404 . S
C936 H948 0.930 . S
C937 C933 1.524 . S
C937 H949 0.956 . S
C937 H950 0.961 . S
C937 H951 0.961 . S
C938 C935 1.539 . S
C938 H952 0.958 . S
C938 H953 0.961 . S
C938 H954 0.960 . S
H939 C923 0.931 . S
H940 C928 0.929 . S
H941 C929 0.960 . S
H942 C929 0.962 . S
H943 C929 0.960 . S
H944 C930 0.961 . S
H945 C930 0.961 . S
H946 C930 0.961 . S
H947 C931 0.931 . S
H948 C936 0.930 . S
H949 C937 0.956 . S
H950 C937 0.961 . S
H951 C937 0.961 . S
H952 C938 0.958 . S
H953 C938 0.961 . S
H954 C938 0.960 . S
C955 C956 1.391 . S
C955 C957 1.394 . S
C955 H971 0.931 . S
C956 C955 1.391 . S
C956 C960 1.376 . S
C957 C955 1.394 . S
C957 C958 1.369 . S
C957 C961 1.531 . S
C958 C957 1.369 . S
C958 C959 1.410 . S
C958 C966 1.503 . S
C959 C958 1.410 . S
C959 C960 1.392 . S
C959 C962 1.511 . S
C960 C956 1.376 . S
C960 C959 1.392 . S
C960 H972 0.929 . S
C961 C957 1.531 . S
C961 H973 0.960 . S
C961 H974 0.962 . S
C961 H975 0.960 . S
C962 C959 1.511 . S
C962 H976 0.961 . S
C962 H977 0.961 . S
C962 H978 0.961 . S
C963 C964 1.370 . S
C963 C965 1.363 . S
C963 H979 0.931 . S
C964 C963 1.370 . S
C964 C968 1.408 . S
C965 C963 1.363 . S
C965 C966 1.370 . S
C965 C969 1.524 . S
C966 C958 1.503 . S
C966 C965 1.370 . S
C966 C967 1.403 . S
C967 C966 1.403 . S
C967 C968 1.404 . S
C967 C970 1.539 . S
C968 C964 1.408 . S
C968 C967 1.404 . S
C968 H980 0.930 . S
C969 C965 1.524 . S
C969 H981 0.956 . S
C969 H982 0.961 . S
C969 H983 0.961 . S
C970 C967 1.539 . S
C970 H984 0.958 . S
C970 H985 0.961 . S
C970 H986 0.960 . S
H971 C955 0.931 . S
H972 C960 0.929 . S
H973 C961 0.960 . S
H974 C961 0.962 . S
H975 C961 0.960 . S
H976 C962 0.961 . S
H977 C962 0.961 . S
H978 C962 0.961 . S
H979 C963 0.931 . S
H980 C968 0.930 . S
H981 C969 0.956 . S
H982 C969 0.961 . S
H983 C969 0.961 . S
H984 C970 0.958 . S
H985 C970 0.961 . S
H986 C970 0.960 . S
C987 C988 1.391 . S
C987 C989 1.394 . S
C987 H1003 0.931 . S
C988 C987 1.391 . S
C988 C992 1.376 . S
C989 C987 1.394 . S
C989 C990 1.369 . S
C989 C993 1.531 . S
C990 C989 1.369 . S
C990 C991 1.410 . S
C990 C998 1.503 . S
C991 C990 1.410 . S
C991 C992 1.392 . S
C991 C994 1.511 . S
C992 C988 1.376 . S
C992 C991 1.392 . S
C992 H1004 0.929 . S
C993 C989 1.531 . S
C993 H1005 0.960 . S
C993 H1006 0.962 . S
C993 H1007 0.960 . S
C994 C991 1.511 . S
C994 H1008 0.961 . S
C994 H1009 0.961 . S
C994 H1010 0.961 . S
C995 C996 1.370 . S
C995 C997 1.363 . S
C995 H1011 0.931 . S
C996 C995 1.370 . S
C996 C1000 1.408 . S
C997 C995 1.363 . S
C997 C998 1.370 . S
C997 C1001 1.524 . S
C998 C990 1.503 . S
C998 C997 1.370 . S
C998 C999 1.403 . S
C999 C998 1.403 . S
C999 C1000 1.404 . S
C999 C1002 1.539 . S
C1000 C996 1.408 . S
C1000 C999 1.404 . S
C1000 H1012 0.930 . S
C1001 C997 1.524 . S
C1001 H1013 0.956 . S
C1001 H1014 0.961 . S
C1001 H1015 0.961 . S
C1002 C999 1.539 . S
C1002 H1016 0.958 . S
C1002 H1017 0.961 . S
C1002 H1018 0.960 . S
H1003 C987 0.931 . S
H1004 C992 0.929 . S
H1005 C993 0.960 . S
H1006 C993 0.962 . S
H1007 C993 0.960 . S
H1008 C994 0.961 . S
H1009 C994 0.961 . S
H1010 C994 0.961 . S
H1011 C995 0.931 . S
H1012 C1000 0.930 . S
H1013 C1001 0.956 . S
H1014 C1001 0.961 . S
H1015 C1001 0.961 . S
H1016 C1002 0.958 . S
H1017 C1002 0.961 . S
H1018 C1002 0.960 . S
C1019 C1020 1.391 . S
C1019 C1021 1.394 . S
C1019 H1035 0.931 . S
C1020 C1019 1.391 . S
C1020 C1024 1.376 . S
C1021 C1019 1.394 . S
C1021 C1022 1.369 . S
C1021 C1025 1.531 . S
C1022 C1021 1.369 . S
C1022 C1023 1.410 . S
C1022 C1030 1.503 . S
C1023 C1022 1.410 . S
C1023 C1024 1.392 . S
C1023 C1026 1.511 . S
C1024 C1020 1.376 . S
C1024 C1023 1.392 . S
C1024 H1036 0.929 . S
C1025 C1021 1.531 . S
C1025 H1037 0.960 . S
C1025 H1038 0.962 . S
C1025 H1039 0.960 . S
C1026 C1023 1.511 . S
C1026 H1040 0.961 . S
C1026 H1041 0.961 . S
C1026 H1042 0.961 . S
C1027 C1028 1.370 . S
C1027 C1029 1.363 . S
C1027 H1043 0.931 . S
C1028 C1027 1.370 . S
C1028 C1032 1.408 . S
C1029 C1027 1.363 . S
C1029 C1030 1.370 . S
C1029 C1033 1.524 . S
C1030 C1022 1.503 . S
C1030 C1029 1.370 . S
C1030 C1031 1.403 . S
C1031 C1030 1.403 . S
C1031 C1032 1.404 . S
C1031 C1034 1.539 . S
C1032 C1028 1.408 . S
C1032 C1031 1.404 . S
C1032 H1044 0.930 . S
C1033 C1029 1.524 . S
C1033 H1045 0.956 . S
C1033 H1046 0.961 . S
C1033 H1047 0.961 . S
C1034 C1031 1.539 . S
C1034 H1048 0.958 . S
C1034 H1049 0.961 . S
C1034 H1050 0.960 . S
H1035 C1019 0.931 . S
H1036 C1024 0.929 . S
H1037 C1025 0.960 . S
H1038 C1025 0.962 . S
H1039 C1025 0.960 . S
H1040 C1026 0.961 . S
H1041 C1026 0.961 . S
H1042 C1026 0.961 . S
H1043 C1027 0.931 . S
H1044 C1032 0.930 . S
H1045 C1033 0.956 . S
H1046 C1033 0.961 . S
H1047 C1033 0.961 . S
H1048 C1034 0.958 . S
H1049 C1034 0.961 . S
H1050 C1034 0.960 . S
C1051 C1052 1.391 . S
C1051 C1053 1.394 . S
C1051 H1067 0.931 . S
C1052 C1051 1.391 . S
C1052 C1056 1.376 . S
C1053 C1051 1.394 . S
C1053 C1054 1.369 . S
C1053 C1057 1.531 . S
C1054 C1053 1.369 . S
C1054 C1055 1.410 . S
C1054 C1062 1.503 . S
C1055 C1054 1.410 . S
C1055 C1056 1.392 . S
C1055 C1058 1.511 . S
C1056 C1052 1.376 . S
C1056 C1055 1.392 . S
C1056 H1068 0.929 . S
C1057 C1053 1.531 . S
C1057 H1069 0.960 . S
C1057 H1070 0.962 . S
C1057 H1071 0.960 . S
C1058 C1055 1.511 . S
C1058 H1072 0.961 . S
C1058 H1073 0.961 . S
C1058 H1074 0.961 . S
C1059 C1060 1.370 . S
C1059 C1061 1.363 . S
C1059 H1075 0.931 . S
C1060 C1059 1.370 . S
C1060 C1064 1.408 . S
C1061 C1059 1.363 . S
C1061 C1062 1.370 . S
C1061 C1065 1.524 . S
C1062 C1054 1.503 . S
C1062 C1061 1.370 . S
C1062 C1063 1.403 . S
C1063 C1062 1.403 . S
C1063 C1064 1.404 . S
C1063 C1066 1.539 . S
C1064 C1060 1.408 . S
C1064 C1063 1.404 . S
C1064 H1076 0.930 . S
C1065 C1061 1.524 . S
C1065 H1077 0.956 . S
C1065 H1078 0.961 . S
C1065 H1079 0.961 . S
C1066 C1063 1.539 . S
C1066 H1080 0.958 . S
C1066 H1081 0.961 . S
C1066 H1082 0.960 . S
H1067 C1051 0.931 . S
H1068 C1056 0.929 . S
H1069 C1057 0.960 . S
H1070 C1057 0.962 . S
H1071 C1057 0.960 . S
H1072 C1058 0.961 . S
H1073 C1058 0.961 . S
H1074 C1058 0.961 . S
H1075 C1059 0.931 . S
H1076 C1064 0.930 . S
H1077 C1065 0.956 . S
H1078 C1065 0.961 . S
H1079 C1065 0.961 . S
H1080 C1066 0.958 . S
H1081 C1066 0.961 . S
H1082 C1066 0.960 . S
C1083 C1084 1.391 . S
C1083 C1085 1.394 . S
C1083 H1099 0.931 . S
C1084 C1083 1.391 . S
C1084 C1088 1.376 . S
C1085 C1083 1.394 . S
C1085 C1086 1.369 . S
C1085 C1089 1.531 . S
C1086 C1085 1.369 . S
C1086 C1087 1.410 . S
C1086 C1094 1.503 . S
C1087 C1086 1.410 . S
C1087 C1088 1.392 . S
C1087 C1090 1.511 . S
C1088 C1084 1.376 . S
C1088 C1087 1.392 . S
C1088 H1100 0.929 . S
C1089 C1085 1.531 . S
C1089 H1101 0.960 . S
C1089 H1102 0.962 . S
C1089 H1103 0.960 . S
C1090 C1087 1.511 . S
C1090 H1104 0.961 . S
C1090 H1105 0.961 . S
C1090 H1106 0.961 . S
C1091 C1092 1.370 . S
C1091 C1093 1.363 . S
C1091 H1107 0.931 . S
C1092 C1091 1.370 . S
C1092 C1096 1.408 . S
C1093 C1091 1.363 . S
C1093 C1094 1.370 . S
C1093 C1097 1.524 . S
C1094 C1086 1.503 . S
C1094 C1093 1.370 . S
C1094 C1095 1.403 . S
C1095 C1094 1.403 . S
C1095 C1096 1.404 . S
C1095 C1098 1.539 . S
C1096 C1092 1.408 . S
C1096 C1095 1.404 . S
C1096 H1108 0.930 . S
C1097 C1093 1.524 . S
C1097 H1109 0.956 . S
C1097 H1110 0.961 . S
C1097 H1111 0.961 . S
C1098 C1095 1.539 . S
C1098 H1112 0.958 . S
C1098 H1113 0.961 . S
C1098 H1114 0.960 . S
H1099 C1083 0.931 . S
H1100 C1088 0.929 . S
H1101 C1089 0.960 . S
H1102 C1089 0.962 . S
H1103 C1089 0.960 . S
H1104 C1090 0.961 . S
H1105 C1090 0.961 . S
H1106 C1090 0.961 . S
H1107 C1091 0.931 . S
H1108 C1096 0.930 . S
H1109 C1097 0.956 . S
H1110 C1097 0.961 . S
H1111 C1097 0.961 . S
H1112 C1098 0.958 . S
H1113 C1098 0.961 . S
H1114 C1098 0.960 . S
C1115 C1116 1.391 . S
C1115 C1117 1.394 . S
C1115 H1131 0.931 . S
C1116 C1115 1.391 . S
C1116 C1120 1.376 . S
C1117 C1115 1.394 . S
C1117 C1118 1.369 . S
C1117 C1121 1.531 . S
C1118 C1117 1.369 . S
C1118 C1119 1.410 . S
C1118 C1126 1.503 . S
C1119 C1118 1.410 . S
C1119 C1120 1.392 . S
C1119 C1122 1.511 . S
C1120 C1116 1.376 . S
C1120 C1119 1.392 . S
C1120 H1132 0.929 . S
C1121 C1117 1.531 . S
C1121 H1133 0.960 . S
C1121 H1134 0.962 . S
C1121 H1135 0.960 . S
C1122 C1119 1.511 . S
C1122 H1136 0.961 . S
C1122 H1137 0.961 . S
C1122 H1138 0.961 . S
C1123 C1124 1.370 . S
C1123 C1125 1.363 . S
C1123 H1139 0.931 . S
C1124 C1123 1.370 . S
C1124 C1128 1.408 . S
C1125 C1123 1.363 . S
C1125 C1126 1.370 . S
C1125 C1129 1.524 . S
C1126 C1118 1.503 . S
C1126 C1125 1.370 . S
C1126 C1127 1.403 . S
C1127 C1126 1.403 . S
C1127 C1128 1.404 . S
C1127 C1130 1.539 . S
C1128 C1124 1.408 . S
C1128 C1127 1.404 . S
C1128 H1140 0.930 . S
C1129 C1125 1.524 . S
C1129 H1141 0.956 . S
C1129 H1142 0.961 . S
C1129 H1143 0.961 . S
C1130 C1127 1.539 . S
C1130 H1144 0.958 . S
C1130 H1145 0.961 . S
C1130 H1146 0.960 . S
H1131 C1115 0.931 . S
H1132 C1120 0.929 . S
H1133 C1121 0.960 . S
H1134 C1121 0.962 . S
H1135 C1121 0.960 . S
H1136 C1122 0.961 . S
H1137 C1122 0.961 . S
H1138 C1122 0.961 . S
H1139 C1123 0.931 . S
H1140 C1128 0.930 . S
H1141 C1129 0.956 . S
H1142 C1129 0.961 . S
H1143 C1129 0.961 . S
H1144 C1130 0.958 . S
H1145 C1130 0.961 . S
H1146 C1130 0.960 . S
C1147 C1148 1.391 . S
C1147 C1149 1.394 . S
C1147 H1163 0.931 . S
C1148 C1147 1.391 . S
C1148 C1152 1.376 . S
C1149 C1147 1.394 . S
C1149 C1150 1.369 . S
C1149 C1153 1.531 . S
C1150 C1149 1.369 . S
C1150 C1151 1.410 . S
C1150 C1158 1.503 . S
C1151 C1150 1.410 . S
C1151 C1152 1.392 . S
C1151 C1154 1.511 . S
C1152 C1148 1.376 . S
C1152 C1151 1.392 . S
C1152 H1164 0.929 . S
C1153 C1149 1.531 . S
C1153 H1165 0.960 . S
C1153 H1166 0.962 . S
C1153 H1167 0.960 . S
C1154 C1151 1.511 . S
C1154 H1168 0.961 . S
C1154 H1169 0.961 . S
C1154 H1170 0.961 . S
C1155 C1156 1.370 . S
C1155 C1157 1.363 . S
C1155 H1171 0.931 . S
C1156 C1155 1.370 . S
C1156 C1160 1.408 . S
C1157 C1155 1.363 . S
C1157 C1158 1.370 . S
C1157 C1161 1.524 . S
C1158 C1150 1.503 . S
C1158 C1157 1.370 . S
C1158 C1159 1.403 . S
C1159 C1158 1.403 . S
C1159 C1160 1.404 . S
C1159 C1162 1.539 . S
C1160 C1156 1.408 . S
C1160 C1159 1.404 . S
C1160 H1172 0.930 . S
C1161 C1157 1.524 . S
C1161 H1173 0.956 . S
C1161 H1174 0.961 . S
C1161 H1175 0.961 . S
C1162 C1159 1.539 . S
C1162 H1176 0.958 . S
C1162 H1177 0.961 . S
C1162 H1178 0.960 . S
H1163 C1147 0.931 . S
H1164 C1152 0.929 . S
H1165 C1153 0.960 . S
H1166 C1153 0.962 . S
H1167 C1153 0.960 . S
H1168 C1154 0.961 . S
H1169 C1154 0.961 . S
H1170 C1154 0.961 . S
H1171 C1155 0.931 . S
H1172 C1160 0.930 . S
H1173 C1161 0.956 . S
H1174 C1161 0.961 . S
H1175 C1161 0.961 . S
H1176 C1162 0.958 . S
H1177 C1162 0.961 . S
H1178 C1162 0.960 . S
C412 C22 1.789 . S
C420 C318 1.685 . S
C444 C92 1.764 . S
C452 C350 1.758 . S
C484 C409 2.028 . S
C476 C144 2.063 . S
C516 C338 1.557 . S
C508 C197 1.607 . S
C540 C250 1.873 . S
C548 C368 1.787 . S
C580 C390 1.276 . S
C572 C287 1.300 . S
C612 C359 1.801 . S
C604 C145 1.839 . S
C636 C198 1.461 . S
C644 C399 1.371 . S
C676 C348 1.808 . S
C668 C251 1.815 . S
C700 C294 1.536 1_556 S
C708 C378 1.476 . S
C732 C29 1.812 . S
C740 C381 1.793 . S
C772 C320 1.846 . S
C764 C91 1.861 1_556 S
C804 C328 1.476 . S
C796 C188 1.512 . S
C836 C369 1.280 . S
C828 C241 1.327 . S
C868 C382 1.870 . S
C860 C304 1.906 . S
C900 C319 1.436 . S
C892 C39 1.437 . S
C932 C379 1.332 . S
C924 C75 1.358 . S
C956 C135 1.105 . S
C964 C380 1.102 . S
C996 C349 1.568 . S
C988 C303 1.642 . S
C1028 C410 1.151 . S
C1020 C38 1.215 . S
C1060 C337 1.332 . S
C1052 C82 1.407 . S
C1092 C351 1.358 . S
C1084 C128 1.407 . S
C1116 C181 1.681 . S
C1124 C400 1.626 . S
C1148 C234 1.419 . S
C1156 C347 1.396 . S
