# Generated by pormake.
# Topology zzz, (3,6)-cn, num edge types: 1
# Building blocks:
#     Node 0, Type 0, BuildingBlock: OLANEW_clean_sbu_2, # of connection points: 3
#     Node 1, Type 0, BuildingBlock: OLANEW_clean_sbu_2, # of connection points: 3
#     Node 2, Type 0, BuildingBlock: OLANEW_clean_sbu_2, # of connection points: 3
#     Node 3, Type 0, BuildingBlock: OLANEW_clean_sbu_2, # of connection points: 3
#     Node 4, Type 0, BuildingBlock: OLANEW_clean_sbu_2, # of connection points: 3
#     Node 5, Type 0, BuildingBlock: OLANEW_clean_sbu_2, # of connection points: 3
#     Node 6, Type 0, BuildingBlock: OLANEW_clean_sbu_2, # of connection points: 3
#     Node 7, Type 0, BuildingBlock: OLANEW_clean_sbu_2, # of connection points: 3
#     Node 8, Type 1, BuildingBlock: PAMTUU_clean_sbu_0, # of connection points: 6
#     Node 9, Type 1, BuildingBlock: PAMTUU_clean_sbu_0, # of connection points: 6
#     Node 10, Type 1, BuildingBlock: PAMTUU_clean_sbu_0, # of connection points: 6
#     Node 11, Type 1, BuildingBlock: PAMTUU_clean_sbu_0, # of connection points: 6
#     Edge 12, Type (0, 1), BuildingBlock: MIFKUJ_clean_linker_0, # of connection points: 2
#     Edge 13, Type (0, 1), BuildingBlock: MIFKUJ_clean_linker_0, # of connection points: 2
#     Edge 14, Type (0, 1), BuildingBlock: MIFKUJ_clean_linker_0, # of connection points: 2
#     Edge 15, Type (0, 1), BuildingBlock: MIFKUJ_clean_linker_0, # of connection points: 2
#     Edge 16, Type (0, 1), BuildingBlock: MIFKUJ_clean_linker_0, # of connection points: 2
#     Edge 17, Type (0, 1), BuildingBlock: MIFKUJ_clean_linker_0, # of connection points: 2
#     Edge 18, Type (0, 1), BuildingBlock: MIFKUJ_clean_linker_0, # of connection points: 2
#     Edge 19, Type (0, 1), BuildingBlock: MIFKUJ_clean_linker_0, # of connection points: 2
#     Edge 20, Type (0, 1), BuildingBlock: MIFKUJ_clean_linker_0, # of connection points: 2
#     Edge 21, Type (0, 1), BuildingBlock: MIFKUJ_clean_linker_0, # of connection points: 2
#     Edge 22, Type (0, 1), BuildingBlock: MIFKUJ_clean_linker_0, # of connection points: 2
#     Edge 23, Type (0, 1), BuildingBlock: MIFKUJ_clean_linker_0, # of connection points: 2
#     Edge 24, Type (0, 1), BuildingBlock: MIFKUJ_clean_linker_0, # of connection points: 2
#     Edge 25, Type (0, 1), BuildingBlock: MIFKUJ_clean_linker_0, # of connection points: 2
#     Edge 26, Type (0, 1), BuildingBlock: MIFKUJ_clean_linker_0, # of connection points: 2
#     Edge 27, Type (0, 1), BuildingBlock: MIFKUJ_clean_linker_0, # of connection points: 2
#     Edge 28, Type (0, 1), BuildingBlock: MIFKUJ_clean_linker_0, # of connection points: 2
#     Edge 29, Type (0, 1), BuildingBlock: MIFKUJ_clean_linker_0, # of connection points: 2
#     Edge 30, Type (0, 1), BuildingBlock: MIFKUJ_clean_linker_0, # of connection points: 2
#     Edge 31, Type (0, 1), BuildingBlock: MIFKUJ_clean_linker_0, # of connection points: 2
#     Edge 32, Type (0, 1), BuildingBlock: MIFKUJ_clean_linker_0, # of connection points: 2
#     Edge 33, Type (0, 1), BuildingBlock: MIFKUJ_clean_linker_0, # of connection points: 2
#     Edge 34, Type (0, 1), BuildingBlock: MIFKUJ_clean_linker_0, # of connection points: 2
#     Edge 35, Type (0, 1), BuildingBlock: MIFKUJ_clean_linker_0, # of connection points: 2
# Relax obj value: 0.180
# Max RMSD: 0.207
# Mean RMSD: 0.130
data_MOF--net-zzz--node1-OLANEW_clean_sbu_2--node2-PAMTUU_clean_sbu_0--edge1-MIFKUJ_clean_linker_0
_symmetry_space_group_name_H-M    P1
_symmetry_Int_Tables_number       1
_symmetry_cell_setting            triclinic
loop_
_symmetry_equiv_pos_as_xyz
'x, y, z'
_cell_length_a     70.636924
_cell_length_b     72.431764
_cell_length_c     21.855671
_cell_angle_alpha  98.521237
_cell_angle_beta   89.95628
_cell_angle_gamma 91.447759
loop_
_atom_site_label
_atom_site_type_symbol
_atom_site_fract_x
_atom_site_fract_y
_atom_site_fract_z
_atom_type_partial_charge
O0 O 0.76238 0.58816 0.25998 0.0
Cd1 Cd 0.73387 0.60375 0.30204 0.0
O2 O 0.76133 0.57152 0.33572 0.0
Cd3 Cd 0.7726 0.55286 0.39574 0.0
O4 O 0.79061 0.53838 0.45278 0.0
C5 C 0.79978 0.5484 0.49598 0.0
O6 O 0.79739 0.56654 0.50488 0.0
C7 C 0.76947 0.57565 0.28738 0.0
C8 C 0.70126 0.58723 0.24411 0.0
O9 O 0.71021 0.60052 0.22282 0.0
O10 O 0.70771 0.58181 0.29311 0.0
O11 O 0.90211 0.75355 0.13641 0.0
Cd12 Cd 0.88469 0.72594 0.16015 0.0
O13 O 0.92367 0.74924 0.20464 0.0
Cd14 Cd 0.95003 0.75657 0.2561 0.0
O15 O 0.96634 0.77928 0.30985 0.0
C16 C 0.9656 0.78169 0.36851 0.0
O17 O 0.95664 0.76918 0.39635 0.0
C18 C 0.91737 0.75885 0.16513 0.0
C19 C 0.90377 0.69321 0.11968 0.0
O20 O 0.89248 0.70017 0.08382 0.0
O21 O 0.90607 0.70175 0.17498 0.0
O22 O 0.76552 0.93668 0.21317 0.0
Cd23 Cd 0.79482 0.92545 0.25178 0.0
O24 O 0.76404 0.95414 0.3035 0.0
Cd25 Cd 0.74963 0.97155 0.37818 0.0
O26 O 0.72875 0.97763 0.45096 0.0
C27 C 0.71938 0.96348 0.46356 0.0
O28 O 0.72326 0.94693 0.43349 0.0
C29 C 0.75692 0.94881 0.25018 0.0
C30 C 0.82595 0.93849 0.19151 0.0
O31 O 0.81845 0.92233 0.17296 0.0
O32 O 0.81879 0.94841 0.23892 0.0
O33 O 0.57636 0.7324 0.91946 0.0
Cd34 Cd 0.59578 0.76126 0.93613 0.0
O35 O 0.58574 0.72601 0.00952 0.0
Cd36 Cd 0.58589 0.70876 0.08394 0.0
O37 O 0.58424 0.68802 0.14706 0.0
C38 C 0.59449 0.6737 0.13791 0.0
O39 O 0.60612 0.67172 0.09059 0.0
C40 C 0.57654 0.72129 0.95934 0.0
C41 C 0.57744 0.79404 0.9214 0.0
O42 O 0.57932 0.78915 0.97505 0.0
O43 O 0.58381 0.78321 0.8746 0.0
O44 O 0.28146 0.55904 0.3228 0.0
Cd45 Cd 0.31369 0.56474 0.28846 0.0
O46 O 0.2782 0.53406 0.25307 0.0
Cd47 Cd 0.26037 0.51274 0.19842 0.0
O48 O 0.23391 0.50351 0.15159 0.0
C49 C 0.22577 0.5161 0.12734 0.0
O50 O 0.23403 0.53269 0.1312 0.0
C51 C 0.27129 0.54537 0.29704 0.0
C52 C 0.34079 0.55029 0.35935 0.0
O53 O 0.3337 0.5663 0.37718 0.0
O54 O 0.33502 0.54102 0.30792 0.0
O55 O 0.02377 0.2381 0.24798 0.0
Cd56 Cd 0.02889 0.26487 0.1938 0.0
O57 O 0.05444 0.23791 0.26232 0.0
Cd58 Cd 0.08052 0.22388 0.27906 0.0
O59 O 0.09403 0.19992 0.22691 0.0
C60 C 0.0939 0.20015 0.1689 0.0
O61 O 0.08797 0.21518 0.14845 0.0
C62 C 0.03807 0.23074 0.26886 0.0
C63 C 0.0307 0.2979 0.27669 0.0
O64 O 0.01495 0.29162 0.25177 0.0
O65 O 0.04564 0.28857 0.26203 0.0
O66 O 0.24354 0.95018 0.18845 0.0
Cd67 Cd 0.21203 0.947 0.14236 0.0
O68 O 0.24426 0.97847 0.16442 0.0
Cd69 Cd 0.25658 0.00618 0.15923 0.0
O70 O 0.27963 0.02187 0.12331 0.0
C71 C 0.29383 0.02747 0.15727 0.0
O72 O 0.29326 0.02586 0.21634 0.0
C73 C 0.25233 0.96568 0.18817 0.0
C74 C 0.18529 0.95762 0.23334 0.0
O75 O 0.18951 0.94043 0.21836 0.0
O76 O 0.19353 0.96974 0.20457 0.0
O77 O 0.45456 0.26533 0.55897 0.0
Cd78 Cd 0.44037 0.24068 0.48306 0.0
O79 O 0.43272 0.28557 0.54606 0.0
Cd80 Cd 0.42228 0.27205 0.45596 0.0
O81 O 0.41892 0.28522 0.37261 0.0
C82 C 0.41873 0.30293 0.38537 0.0
O83 O 0.41983 0.31053 0.44377 0.0
C84 C 0.44695 0.28099 0.57554 0.0
C85 C 0.44674 0.20601 0.51981 0.0
O86 O 0.45761 0.21239 0.48043 0.0
O87 O 0.4327 0.21585 0.54094 0.0
Tb88 Tb 0.00613 0.00552 0.73924 0.0
Tb89 Tb 0.02953 0.98182 0.8321 0.0
C90 C 0.9871 0.99227 0.85406 0.0
C91 C 0.99283 0.04132 0.64259 0.0
C92 C 0.00052 0.07333 0.58652 0.0
C93 C 0.9818 0.06652 0.59113 0.0
C94 C 0.97802 0.05063 0.61882 0.0
C95 C 0.01149 0.04821 0.63933 0.0
C96 C 0.01531 0.06406 0.61138 0.0
C97 C 0.98867 0.02429 0.66964 0.0
O98 O 0.01751 0.02559 0.81515 0.0
O99 O 0.04241 0.00953 0.84768 0.0
O100 O 0.04681 0.98197 0.74953 0.0
O101 O 0.03557 0.00803 0.714 0.0
O102 O 0.03838 0.97858 0.92161 0.0
O103 O 0.04481 0.95803 0.84305 0.0
O104 O 0.00898 0.96271 0.78165 0.0
O105 O 0.00667 0.97662 0.69474 0.0
O106 O 0.98503 0.99378 0.79543 0.0
O107 O 0.0039 0.99188 0.87929 0.0
C108 C 0.03365 0.02516 0.84485 0.0
O109 O 0.99897 0.00998 0.64964 0.0
O110 O 0.98673 0.02646 0.72956 0.0
C111 C 0.04823 0.99506 0.71376 0.0
C112 C 0.03529 0.947 0.93371 0.0
C113 C 0.01796 0.91721 0.9843 0.0
C114 C 0.03754 0.92102 0.99176 0.0
C115 C 0.04616 0.93579 0.96643 0.0
C116 C 0.01571 0.94352 0.92747 0.0
C117 C 0.00712 0.9288 0.95257 0.0
C118 C 0.04422 0.96173 0.90322 0.0
C119 C 0.00526 0.96179 0.72257 0.0
H120 H 0.97005 0.07349 0.57351 0.0
H121 H 0.96353 0.04554 0.62135 0.0
H122 H 0.02311 0.0412 0.65766 0.0
H123 H 0.02989 0.06878 0.60807 0.0
H124 H 0.04628 0.91225 0.01555 0.0
H125 H 0.06131 0.93825 0.9714 0.0
H126 H 0.0071 0.95203 0.90228 0.0
H127 H 0.99198 0.92644 0.94684 0.0
Tb128 Tb 0.49452 0.99582 0.72617 0.0
Tb129 Tb 0.51483 0.01722 0.85405 0.0
C130 C 0.51118 0.97352 0.82628 0.0
C131 C 0.46082 0.98501 0.59366 0.0
C132 C 0.42782 0.98911 0.525 0.0
C133 C 0.44523 0.98566 0.49488 0.0
C134 C 0.46158 0.98352 0.52898 0.0
C135 C 0.4436 0.9894 0.62403 0.0
C136 C 0.42723 0.99131 0.58994 0.0
C137 C 0.47779 0.98109 0.62832 0.0
O138 O 0.47202 0.00941 0.78235 0.0
O139 O 0.4859 0.01048 0.87773 0.0
O140 O 0.49977 0.03844 0.81444 0.0
O141 O 0.50173 0.02439 0.71391 0.0
O142 O 0.51935 0.01932 0.94976 0.0
O143 O 0.53279 0.03886 0.89697 0.0
O144 O 0.53609 0.01446 0.78139 0.0
O145 O 0.52415 0.98874 0.71797 0.0
O146 O 0.49747 0.97473 0.78652 0.0
O147 O 0.52176 0.98804 0.84939 0.0
C148 C 0.47086 0.01105 0.84287 0.0
O149 O 0.49206 0.99288 0.62907 0.0
O150 O 0.47489 0.97606 0.68249 0.0
C151 C 0.49907 0.03925 0.75491 0.0
C152 C 0.55082 0.02801 0.97376 0.0
C153 C 0.58508 0.01724 0.02224 0.0
C154 C 0.57352 0.03024 0.05796 0.0
C155 C 0.55647 0.03555 0.03387 0.0
C156 C 0.56246 0.01532 0.93759 0.0
C157 C 0.57945 0.01001 0.96153 0.0
C158 C 0.53237 0.03238 0.94955 0.0
C159 C 0.53839 0.99989 0.73877 0.0
H160 H 0.44605 0.98382 0.44486 0.0
H161 H 0.47473 0.98022 0.50472 0.0
H162 H 0.44265 0.9909 0.67399 0.0
H163 H 0.41402 0.9942 0.61429 0.0
H164 H 0.5774 0.03592 0.10506 0.0
H165 H 0.54755 0.04526 0.06249 0.0
H166 H 0.55827 0.0093 0.89106 0.0
H167 H 0.58816 0.00021 0.93249 0.0
Tb168 Tb 0.50311 0.493 0.85816 0.0
Tb169 Tb 0.53504 0.49261 0.74739 0.0
C170 C 0.49227 0.49412 0.72201 0.0
C171 C 0.46818 0.47383 0.95899 0.0
C172 C 0.45101 0.44299 0.00448 0.0
C173 C 0.44526 0.46131 0.02577 0.0
C174 C 0.45384 0.47659 0.00339 0.0
C175 C 0.47339 0.45558 0.93551 0.0
C176 C 0.46494 0.4403 0.95813 0.0
C177 C 0.4785 0.48997 0.94031 0.0
O178 O 0.51505 0.46544 0.84436 0.0
O179 O 0.52439 0.46403 0.74347 0.0
O180 O 0.54948 0.48773 0.83119 0.0
O181 O 0.5295 0.50424 0.89999 0.0
O182 O 0.5625 0.49889 0.71861 0.0
O183 O 0.54192 0.48498 0.65357 0.0
O184 O 0.53286 0.52172 0.78738 0.0
O185 O 0.50491 0.52208 0.84298 0.0
O186 O 0.48951 0.48488 0.76862 0.0
O187 O 0.50872 0.50213 0.7142 0.0
C188 C 0.51947 0.45583 0.79095 0.0
O189 O 0.49669 0.49036 0.95011 0.0
O190 O 0.47452 0.49403 0.88569 0.0
C191 C 0.54627 0.49754 0.88561 0.0
C192 C 0.56231 0.50727 0.61844 0.0
C193 C 0.56865 0.53337 0.53603 0.0
C194 C 0.56095 0.539 0.5951 0.0
C195 C 0.55771 0.52606 0.63569 0.0
C196 C 0.57003 0.50156 0.55985 0.0
C197 C 0.57316 0.51447 0.51894 0.0
C198 C 0.55842 0.49351 0.66041 0.0
C199 C 0.51913 0.53069 0.81881 0.0
H200 H 0.43433 0.46389 0.06052 0.0
H201 H 0.44957 0.49058 0.02179 0.0
H202 H 0.48441 0.45317 0.90103 0.0
H203 H 0.46988 0.42646 0.94102 0.0
H204 H 0.55755 0.55344 0.61034 0.0
H205 H 0.55158 0.53074 0.68056 0.0
H206 H 0.57347 0.48707 0.5455 0.0
H207 H 0.57882 0.50956 0.47355 0.0
Tb208 Tb 0.01802 0.50892 0.72545 0.0
Tb209 Tb 0.00149 0.48572 0.83412 0.0
C210 C 0.99862 0.5292 0.84402 0.0
C211 C 0.04967 0.52676 0.60901 0.0
C212 C 0.08414 0.52863 0.54479 0.0
C213 C 0.06962 0.5411 0.53781 0.0
C214 C 0.05254 0.54015 0.56963 0.0
C215 C 0.06401 0.51417 0.616 0.0
C216 C 0.08111 0.51507 0.58402 0.0
C217 C 0.03165 0.52612 0.64223 0.0
O218 O 0.03949 0.51049 0.79778 0.0
O219 O 0.03195 0.48343 0.83594 0.0
O220 O 0.00566 0.46521 0.75227 0.0
O221 O 0.02864 0.4809 0.7045 0.0
O222 O 0.003 0.48023 0.92564 0.0
O223 O 0.98199 0.46625 0.86223 0.0
O224 O 0.97691 0.49602 0.79224 0.0
O225 O 0.98935 0.49947 0.69737 0.0
O226 O 0.00025 0.52811 0.78379 0.0
O227 O 0.003 0.51522 0.87288 0.0
C228 C 0.04393 0.49712 0.82947 0.0
O229 O 0.02189 0.51047 0.63115 0.0
O230 O 0.03208 0.53269 0.70108 0.0
C231 C 0.01918 0.46549 0.71102 0.0
C232 C 0.97184 0.47699 0.96323 0.0
C233 C 0.93991 0.49141 0.03002 0.0
C234 C 0.93972 0.47284 0.99981 0.0
C235 C 0.95557 0.4657 0.9668 0.0
C236 C 0.97231 0.4953 0.99544 0.0
C237 C 0.95658 0.50238 0.02874 0.0
C238 C 0.98715 0.47046 0.91999 0.0
C239 C 0.97478 0.49775 0.73379 0.0
H240 H 0.07141 0.55154 0.50741 0.0
H241 H 0.04157 0.54991 0.56354 0.0
H242 H 0.06201 0.50375 0.64638 0.0
H243 H 0.09209 0.50541 0.59096 0.0
H244 H 0.92707 0.46406 0.99928 0.0
H245 H 0.95481 0.45161 0.94184 0.0
H246 H 0.9846 0.50443 0.99333 0.0
H247 H 0.95735 0.51662 0.05241 0.0
H248 H 0.16086 0.93519 0.28765 0.0
H249 H 0.1382 0.94466 0.37037 0.0
H250 H 0.15609 0.00221 0.37483 0.0
H251 H 0.1787 0.9929 0.29158 0.0
H252 H 0.15319 0.99067 0.49361 0.0
H253 H 0.11651 0.99003 0.30829 0.0
H254 H 0.10371 0.97649 0.20606 0.0
H255 H 0.07663 0.93201 0.28598 0.0
H256 H 0.08951 0.94514 0.38858 0.0
H257 H 0.05149 0.01426 0.61569 0.0
H258 H 0.0759 0.01126 0.53592 0.0
H259 H 0.10488 0.97184 0.62987 0.0
H260 H 0.08041 0.9746 0.70988 0.0
H261 H 0.08432 0.97791 0.45979 0.0
H262 H 0.15312 0.97945 0.60437 0.0
H263 H 0.16553 0.99411 0.70601 0.0
H264 H 0.12771 0.03957 0.70582 0.0
H265 H 0.11524 0.02532 0.60391 0.0
C266 C 0.15997 0.94987 0.30617 0.0
C267 C 0.1715 0.96332 0.28298 0.0
C268 C 0.14701 0.95524 0.35333 0.0
C269 C 0.14548 0.97412 0.37841 0.0
C270 C 0.15712 0.98757 0.35599 0.0
C271 C 0.16993 0.98223 0.30828 0.0
C272 C 0.13154 0.97978 0.42768 0.0
C273 C 0.13812 0.98793 0.48631 0.0
C274 C 0.11191 0.97641 0.41765 0.0
C275 C 0.10412 0.96848 0.35601 0.0
C276 C 0.10796 0.97727 0.30397 0.0
C277 C 0.10067 0.96969 0.24598 0.0
C278 C 0.0894 0.95337 0.2395 0.0
C279 C 0.08538 0.94463 0.29105 0.0
C280 C 0.09266 0.95215 0.34914 0.0
C281 C 0.06317 0.00512 0.61995 0.0
C282 C 0.06397 0.99459 0.66903 0.0
C283 C 0.07705 0.00339 0.57416 0.0
C284 C 0.09214 0.99136 0.57716 0.0
C285 C 0.09337 0.9813 0.62708 0.0
C286 C 0.07936 0.98284 0.67259 0.0
C287 C 0.10598 0.98846 0.5261 0.0
C288 C 0.09937 0.98075 0.4671 0.0
C289 C 0.12555 0.99238 0.53577 0.0
C290 C 0.13313 0.0012 0.59674 0.0
C291 C 0.1475 0.99261 0.62592 0.0
C292 C 0.15453 0.00084 0.68362 0.0
C293 C 0.14736 0.01773 0.71247 0.0
C294 C 0.13318 0.02645 0.68359 0.0
C295 C 0.12611 0.01828 0.6259 0.0
H296 H 0.15282 0.02407 0.75714 0.0
H297 H 0.08375 0.94753 0.19457 0.0
H298 H 0.43301 0.19354 0.62351 0.0
H299 H 0.44107 0.16486 0.66344 0.0
H300 H 0.47712 0.14928 0.50597 0.0
H301 H 0.46945 0.17814 0.46623 0.0
H302 H 0.45126 0.11946 0.54221 0.0
H303 H 0.49856 0.16632 0.6253 0.0
H304 H 0.50888 0.19703 0.68106 0.0
H305 H 0.47944 0.18541 0.84359 0.0
H306 H 0.46871 0.15472 0.78843 0.0
H307 H 0.50429 0.04834 0.63932 0.0
H308 H 0.49461 0.07656 0.60066 0.0
H309 H 0.47255 0.098 0.78071 0.0
H310 H 0.48281 0.06997 0.82034 0.0
H311 H 0.48966 0.12498 0.73449 0.0
H312 H 0.44337 0.07835 0.65918 0.0
H313 H 0.43158 0.04763 0.60756 0.0
H314 H 0.45588 0.05853 0.43598 0.0
H315 H 0.46812 0.0892 0.48681 0.0
C316 C 0.44254 0.18395 0.5971 0.0
C317 C 0.45066 0.18812 0.54183 0.0
C318 C 0.44714 0.1676 0.62003 0.0
C319 C 0.4597 0.15503 0.58765 0.0
C320 C 0.46736 0.15883 0.53148 0.0
C321 C 0.46303 0.17534 0.50904 0.0
C322 C 0.46551 0.13832 0.61385 0.0
C323 C 0.45983 0.12059 0.58384 0.0
C324 C 0.47613 0.13993 0.66926 0.0
C325 C 0.48266 0.15832 0.70253 0.0
C326 C 0.49414 0.17039 0.67274 0.0
C327 C 0.50009 0.18777 0.70427 0.0
C328 C 0.49477 0.19319 0.76577 0.0
C329 C 0.48352 0.18121 0.79592 0.0
C330 C 0.47751 0.16381 0.76456 0.0
C331 C 0.49746 0.05909 0.67084 0.0
C332 C 0.49423 0.05689 0.73284 0.0
C333 C 0.49182 0.07519 0.64854 0.0
C334 C 0.48246 0.08925 0.68736 0.0
C335 C 0.47966 0.08731 0.74978 0.0
C336 C 0.48555 0.07129 0.77239 0.0
C337 C 0.4756 0.10593 0.66265 0.0
C338 C 0.48103 0.12373 0.69297 0.0
C339 C 0.46443 0.10435 0.60811 0.0
C340 C 0.45681 0.08603 0.57699 0.0
C341 C 0.44631 0.07416 0.61052 0.0
C342 C 0.43954 0.05675 0.5814 0.0
C343 C 0.44302 0.05111 0.51857 0.0
C344 C 0.45322 0.06291 0.48468 0.0
C345 C 0.46006 0.08032 0.51361 0.0
H346 H 0.43779 0.03762 0.49615 0.0
H347 H 0.4994 0.20666 0.79012 0.0
H348 H 0.36571 0.52266 0.32183 0.0
H349 H 0.3907 0.51139 0.38311 0.0
H350 H 0.3733 0.54939 0.54322 0.0
H351 H 0.34891 0.56129 0.48136 0.0
H352 H 0.40922 0.55084 0.53764 0.0
H353 H 0.36336 0.50012 0.52125 0.0
H354 H 0.34205 0.47552 0.46703 0.0
H355 H 0.38952 0.44882 0.37176 0.0
H356 H 0.41106 0.47339 0.42472 0.0
H357 H 0.45516 0.48272 0.73019 0.0
H358 H 0.4285 0.49025 0.66753 0.0
H359 H 0.46675 0.51902 0.55764 0.0
H360 H 0.49339 0.51178 0.62011 0.0
H361 H 0.41924 0.48359 0.54406 0.0
H362 H 0.44635 0.55909 0.5322 0.0
H363 H 0.46654 0.58339 0.59322 0.0
H364 H 0.4534 0.56038 0.75876 0.0
H365 H 0.43289 0.53615 0.69896 0.0
C366 C 0.36718 0.52854 0.37018 0.0
C367 C 0.35537 0.54286 0.39685 0.0
C368 C 0.3814 0.52201 0.40529 0.0
C369 C 0.38375 0.52933 0.46814 0.0
C370 C 0.37181 0.54352 0.49485 0.0
C371 C 0.35784 0.5503 0.45949 0.0
C372 C 0.39903 0.52274 0.50568 0.0
C373 C 0.41133 0.53613 0.539 0.0
C374 C 0.40176 0.50354 0.50821 0.0
C375 C 0.3888 0.48869 0.47659 0.0
C376 C 0.36923 0.48907 0.48843 0.0
C377 C 0.35711 0.47512 0.45794 0.0
C378 C 0.36442 0.46064 0.41583 0.0
C379 C 0.38387 0.46005 0.40427 0.0
C380 C 0.39604 0.47398 0.43457 0.0
C381 C 0.45792 0.49047 0.69226 0.0
C382 C 0.47636 0.49683 0.68058 0.0
C383 C 0.44268 0.49471 0.65643 0.0
C384 C 0.44564 0.50541 0.6086 0.0
C385 C 0.46414 0.51099 0.59499 0.0
C386 C 0.47935 0.5068 0.63074 0.0
C387 C 0.42936 0.51168 0.57507 0.0
C388 C 0.41699 0.49828 0.54255 0.0
C389 C 0.42629 0.53087 0.57426 0.0
C390 C 0.43822 0.5457 0.61092 0.0
C391 C 0.44769 0.55928 0.58167 0.0
C392 C 0.4592 0.57304 0.61605 0.0
C393 C 0.46129 0.57339 0.6798 0.0
C394 C 0.45181 0.56005 0.70936 0.0
C395 C 0.44025 0.5463 0.67523 0.0
H396 H 0.47022 0.58403 0.70634 0.0
H397 H 0.35501 0.44986 0.39225 0.0
H398 H 0.00191 0.32157 0.31206 0.0
H399 H 0.00334 0.35037 0.38604 0.0
H400 H 0.06276 0.3426 0.41626 0.0
H401 H 0.06145 0.31365 0.3425 0.0
H402 H 0.04408 0.35256 0.52458 0.0
H403 H 0.05003 0.37427 0.32934 0.0
H404 H 0.04143 0.37692 0.22172 0.0
H405 H 0.98785 0.39949 0.28276 0.0
H406 H 0.99601 0.39673 0.3907 0.0
H407 H 0.04324 0.46144 0.61216 0.0
H408 H 0.04894 0.43309 0.53968 0.0
H409 H 0.01072 0.40195 0.64244 0.0
H410 H 0.00495 0.4302 0.71541 0.0
H411 H 0.02331 0.4124 0.46501 0.0
H412 H 0.02667 0.35729 0.6324 0.0
H413 H 0.0375 0.35533 0.73848 0.0
H414 H 0.07702 0.40091 0.73011 0.0
H415 H 0.06663 0.40296 0.62373 0.0
C416 C 0.0153 0.32598 0.33435 0.0
C417 C 0.03159 0.31537 0.32126 0.0
C418 C 0.0161 0.34247 0.37647 0.0
C419 C 0.0332 0.34868 0.40614 0.0
C420 C 0.04944 0.33803 0.39374 0.0
C421 C 0.04867 0.32155 0.35145 0.0
C422 C 0.03402 0.36628 0.45032 0.0
C423 C 0.03959 0.36566 0.5116 0.0
C424 C 0.02853 0.38342 0.43293 0.0
C425 C 0.02358 0.38515 0.36807 0.0
C426 C 0.03635 0.37967 0.31977 0.0
C427 C 0.03156 0.38121 0.25871 0.0
C428 C 0.01409 0.38833 0.24539 0.0
C429 C 0.00137 0.39396 0.29314 0.0
C430 C 0.00608 0.39243 0.35428 0.0
C431 C 0.03617 0.44853 0.61981 0.0
C432 C 0.02359 0.4481 0.66955 0.0
C433 C 0.03942 0.43237 0.57819 0.0
C434 C 0.03032 0.41544 0.58588 0.0
C435 C 0.01805 0.41485 0.63611 0.0
C436 C 0.01471 0.43103 0.67761 0.0
C437 C 0.03289 0.39858 0.53965 0.0
C438 C 0.02791 0.39933 0.47797 0.0
C439 C 0.03922 0.38165 0.55649 0.0
C440 C 0.04573 0.38038 0.62026 0.0
C441 C 0.03773 0.36684 0.6531 0.0
C442 C 0.04378 0.36572 0.7133 0.0
C443 C 0.0579 0.37802 0.74108 0.0
C444 C 0.06604 0.39143 0.70864 0.0
C445 C 0.06004 0.3926 0.64842 0.0
H446 H 0.06256 0.37714 0.7877 0.0
H447 H 0.01041 0.38952 0.19809 0.0
H448 H 0.83998 0.97431 0.20262 0.0
H449 H 0.86626 0.98616 0.14542 0.0
H450 H 0.87545 0.93042 0.05116 0.0
H451 H 0.84876 0.91864 0.1064 0.0
H452 H 0.90207 0.98068 0.14063 0.0
H453 H 0.8915 0.93094 0.90766 0.0
H454 H 0.86538 0.91462 0.84506 0.0
H455 H 0.82638 0.95523 0.92947 0.0
H456 H 0.85229 0.97193 0.99193 0.0
H457 H 0.98534 0.97783 0.96234 0.0
H458 H 0.95713 0.97149 0.02082 0.0
H459 H 0.9224 0.99496 0.89075 0.0
H460 H 0.95057 0.0006 0.83045 0.0
H461 H 0.90656 0.96466 0.91249 0.0
H462 H 0.93189 0.01812 0.04159 0.0
H463 H 0.95615 0.03796 0.10239 0.0
H464 H 0.96215 0.9966 0.22246 0.0
H465 H 0.9381 0.97638 0.16187 0.0
C466 C 0.84759 0.9646 0.16961 0.0
C467 C 0.84223 0.94557 0.15863 0.0
C468 C 0.86263 0.97138 0.13705 0.0
C469 C 0.87266 0.95925 0.09326 0.0
C470 C 0.86764 0.94014 0.08355 0.0
C471 C 0.85244 0.9334 0.1154 0.0
C472 C 0.88845 0.9665 0.05801 0.0
C473 C 0.90303 0.97723 0.09073 0.0
C474 C 0.88948 0.96244 0.99271 0.0
C475 C 0.87382 0.95258 0.95489 0.0
C476 C 0.87736 0.93643 0.91267 0.0
C477 C 0.86259 0.9271 0.87725 0.0
C478 C 0.84422 0.93385 0.88343 0.0
C479 C 0.8406 0.94997 0.92489 0.0
C480 C 0.85532 0.95936 0.96037 0.0
C481 C 0.97172 0.9818 0.94646 0.0
C482 C 0.97016 0.98973 0.89182 0.0
C483 C 0.95559 0.97826 0.98016 0.0
C484 C 0.93763 0.98299 0.96075 0.0
C485 C 0.93609 0.99118 0.90665 0.0
C486 C 0.9522 0.99444 0.87232 0.0
C487 C 0.92039 0.97852 0.9952 0.0
C488 C 0.90556 0.96826 0.96235 0.0
C489 C 0.91885 0.98354 0.06011 0.0
C490 C 0.93329 0.99567 0.09687 0.0
C491 C 0.93847 0.01319 0.0807 0.0
C492 C 0.95217 0.02452 0.11517 0.0
C493 C 0.96071 0.01853 0.16618 0.0
C494 C 0.95553 0.00122 0.18291 0.0
C495 C 0.94185 0.98983 0.14857 0.0
H496 H 0.97131 0.02732 0.1928 0.0
H497 H 0.83281 0.9266 0.85599 0.0
H498 H 0.57188 0.82406 0.01036 0.0
H499 H 0.55954 0.85438 0.99681 0.0
H500 H 0.55075 0.8348 0.80232 0.0
H501 H 0.56393 0.80471 0.81522 0.0
H502 H 0.5652 0.86772 0.81315 0.0
H503 H 0.51339 0.84076 0.91293 0.0
H504 H 0.49726 0.82544 0.99277 0.0
H505 H 0.51255 0.87193 0.13099 0.0
H506 H 0.52899 0.88743 0.05208 0.0
H507 H 0.50269 0.93953 0.75886 0.0
H508 H 0.51291 0.90894 0.77887 0.0
H509 H 0.54046 0.93474 0.94705 0.0
H510 H 0.53069 0.96553 0.92672 0.0
H511 H 0.51603 0.8993 0.95027 0.0
H512 H 0.56793 0.92579 0.8436 0.0
H513 H 0.58143 0.94079 0.7586 0.0
H514 H 0.56294 0.89384 0.62693 0.0
H515 H 0.54897 0.87873 0.71106 0.0
C516 C 0.56718 0.82617 0.96479 0.0
C517 C 0.56882 0.81198 0.91388 0.0
C518 C 0.56004 0.84351 0.95712 0.0
C519 C 0.55392 0.84687 0.89866 0.0
C520 C 0.55538 0.83261 0.84788 0.0
C521 C 0.56285 0.81538 0.85533 0.0
C522 C 0.54654 0.8654 0.89006 0.0
C523 C 0.55427 0.87445 0.84275 0.0
C524 C 0.53246 0.87445 0.9291 0.0
C525 C 0.52258 0.86517 0.97668 0.0
C526 C 0.51344 0.84766 0.96043 0.0
C527 C 0.50422 0.83895 0.00551 0.0
C528 C 0.50393 0.84769 0.06694 0.0
C529 C 0.51281 0.86517 0.0834 0.0
C530 C 0.52207 0.87393 0.03851 0.0
C531 C 0.51074 0.9387 0.80049 0.0
C532 C 0.51591 0.95493 0.84122 0.0
C533 C 0.51659 0.92123 0.81171 0.0
C534 C 0.52744 0.91967 0.8643 0.0
C535 C 0.53205 0.93573 0.90628 0.0
C536 C 0.52652 0.95327 0.89448 0.0
C537 C 0.53471 0.90134 0.87371 0.0
C538 C 0.52696 0.89243 0.92098 0.0
C539 C 0.54852 0.89228 0.83408 0.0
C540 C 0.55722 0.90122 0.78359 0.0
C541 C 0.56658 0.91874 0.79647 0.0
C542 C 0.57434 0.92726 0.74846 0.0
C543 C 0.57301 0.91829 0.6874 0.0
C544 C 0.56394 0.90078 0.67425 0.0
C545 C 0.5561 0.89223 0.72208 0.0
H546 H 0.57904 0.92487 0.65028 0.0
H547 H 0.49678 0.84092 0.10176 0.0
H548 H 0.6783 0.55984 0.28034 0.0
H549 H 0.65111 0.54387 0.22452 0.0
H550 H 0.65877 0.57787 0.07973 0.0
H551 H 0.6857 0.59413 0.13568 0.0
H552 H 0.62186 0.57371 0.10605 0.0
H553 H 0.6754 0.53362 0.06267 0.0
H554 H 0.70228 0.51537 0.09033 0.0
H555 H 0.66456 0.48184 0.18507 0.0
H556 H 0.63747 0.50006 0.15862 0.0
H557 H 0.58426 0.49352 0.86357 0.0
H558 H 0.61032 0.50744 0.92995 0.0
H559 H 0.57037 0.52834 0.07122 0.0
H560 H 0.54426 0.51472 0.00513 0.0
H561 H 0.62352 0.50491 0.04581 0.0
H562 H 0.58348 0.57216 0.12966 0.0
H563 H 0.55747 0.59032 0.09502 0.0
H564 H 0.57023 0.56952 0.90555 0.0
H565 H 0.59654 0.55161 0.93915 0.0
C566 C 0.67414 0.56399 0.23677 0.0
C567 C 0.68426 0.57814 0.21215 0.0
C568 C 0.65863 0.55482 0.2049 0.0
C569 C 0.65311 0.5595 0.14756 0.0
C570 C 0.66282 0.57401 0.12385 0.0
C571 C 0.67826 0.58324 0.15579 0.0
C572 C 0.63765 0.5489 0.1111 0.0
C573 C 0.62221 0.55867 0.09302 0.0
C574 C 0.63821 0.5293 0.09347 0.0
C575 C 0.65445 0.51829 0.1091 0.0
C576 C 0.67286 0.52243 0.08974 0.0
C577 C 0.68813 0.51208 0.10515 0.0
C578 C 0.68514 0.49748 0.13955 0.0
C579 C 0.66686 0.49316 0.15848 0.0
C580 C 0.65155 0.50348 0.14325 0.0
C581 C 0.58103 0.50079 0.90917 0.0
C582 C 0.56218 0.50322 0.92874 0.0
C583 C 0.59594 0.50873 0.94704 0.0
C584 C 0.59222 0.51919 0.00494 0.0
C585 C 0.5735 0.5206 0.0262 0.0
C586 C 0.55861 0.51276 0.98835 0.0
C587 C 0.60773 0.52971 0.0412 0.0
C588 C 0.62316 0.51994 0.05911 0.0
C589 C 0.60734 0.54935 0.05774 0.0
C590 C 0.5919 0.5605 0.03703 0.0
C591 C 0.58083 0.57163 0.08067 0.0
C592 C 0.56602 0.58184 0.06119 0.0
C593 C 0.56215 0.581 0.9981 0.0
C594 C 0.57319 0.5701 0.95438 0.0
C595 C 0.58806 0.55994 0.97363 0.0
H596 H 0.5506 0.58878 0.98305 0.0
H597 H 0.69698 0.48949 0.15143 0.0
H598 H 0.92497 0.67242 0.18774 0.0
H599 H 0.94121 0.64344 0.15077 0.0
H600 H 0.92187 0.64601 0.96504 0.0
H601 H 0.90521 0.67461 0.00188 0.0
H602 H 0.91752 0.61194 0.9895 0.0
H603 H 0.96811 0.65854 0.01521 0.0
H604 H 0.98797 0.6838 0.07259 0.0
H605 H 0.00415 0.64735 0.2005 0.0
H606 H 0.98418 0.62192 0.14428 0.0
H607 H 0.98117 0.55739 0.79802 0.0
H608 H 0.96509 0.58386 0.85574 0.0
H609 H 0.98026 0.56544 0.02755 0.0
H610 H 0.99636 0.53868 0.97007 0.0
H611 H 0.98632 0.60515 0.02295 0.0
H612 H 0.93746 0.55733 0.98596 0.0
H613 H 0.91848 0.53263 0.92181 0.0
H614 H 0.89995 0.57243 0.8089 0.0
H615 H 0.91892 0.59724 0.87157 0.0
C616 C 0.9242 0.6668 0.13902 0.0
C617 C 0.91383 0.67581 0.0977 0.0
C618 C 0.93355 0.65028 0.11792 0.0
C619 C 0.93292 0.64263 0.055 0.0
C620 C 0.92252 0.65161 0.01382 0.0
C621 C 0.91305 0.668 0.03492 0.0
C622 C 0.94293 0.62523 0.03154 0.0
C623 C 0.93259 0.61054 0.99657 0.0
C624 C 0.9625 0.62314 0.04214 0.0
C625 C 0.97447 0.63841 0.07601 0.0
C626 C 0.97578 0.65596 0.05589 0.0
C627 C 0.98708 0.6703 0.08813 0.0
C628 C 0.99727 0.6672 0.14028 0.0
C629 C 0.99622 0.64974 0.16019 0.0
C630 C 0.98492 0.63536 0.12814 0.0
C631 C 0.98126 0.55899 0.84809 0.0
C632 C 0.99007 0.54591 0.87944 0.0
C633 C 0.97197 0.57408 0.88095 0.0
C634 C 0.97138 0.57647 0.94576 0.0
C635 C 0.98056 0.56377 0.97747 0.0
C636 C 0.98972 0.54851 0.94455 0.0
C637 C 0.96096 0.59223 0.97975 0.0
C638 C 0.9712 0.60653 0.01678 0.0
C639 C 0.94134 0.59407 0.97054 0.0
C640 C 0.92974 0.57912 0.93322 0.0
C641 C 0.92943 0.56077 0.94719 0.0
C642 C 0.91865 0.54675 0.91116 0.0
C643 C 0.90806 0.55094 0.86128 0.0
C644 C 0.90814 0.56917 0.84749 0.0
C645 C 0.91888 0.58322 0.88329 0.0
H646 H 0.89978 0.54008 0.83345 0.0
H647 H 0.00602 0.67832 0.16517 0.0
H648 H 0.05845 0.22055 0.36401 0.0
H649 H 0.05289 0.19338 0.41643 0.0
H650 H 0.00604 0.17557 0.29329 0.0
H651 H 0.01144 0.20292 0.24127 0.0
H652 H 0.99595 0.17367 0.40735 0.0
H653 H 0.04856 0.14994 0.28225 0.0
H654 H 0.08046 0.15122 0.2373 0.0
H655 H 0.10498 0.16004 0.4193 0.0
H656 H 0.0731 0.1588 0.4653 0.0
H657 H 0.98405 0.08187 0.48117 0.0
H658 H 0.99079 0.10882 0.42883 0.0
H659 H 0.03325 0.1288 0.56609 0.0
H660 H 0.02635 0.10203 0.61962 0.0
H661 H 0.04575 0.12978 0.44711 0.0
H662 H 0.99164 0.14971 0.57024 0.0
H663 H 0.95919 0.147 0.61014 0.0
H664 H 0.9368 0.14423 0.42632 0.0
H665 H 0.96916 0.14666 0.38516 0.0
C666 C 0.04727 0.21061 0.34718 0.0
C667 C 0.03556 0.21369 0.29799 0.0
C668 C 0.04405 0.19509 0.3773 0.0
C669 C 0.02918 0.18226 0.35839 0.0
C670 C 0.01758 0.18526 0.3088 0.0
C671 C 0.02069 0.20087 0.27905 0.0
C672 C 0.02513 0.16626 0.39228 0.0
C673 C 0.00678 0.16392 0.41521 0.0
C674 C 0.03933 0.15379 0.4041 0.0
C675 C 0.05849 0.15455 0.37705 0.0
C676 C 0.06076 0.15236 0.31257 0.0
C677 C 0.07883 0.15302 0.28694 0.0
C678 C 0.09476 0.15586 0.32535 0.0
C679 C 0.09263 0.1579 0.38958 0.0
C680 C 0.07457 0.15716 0.41546 0.0
C681 C 0.99464 0.09212 0.50084 0.0
C682 C 0.00459 0.08981 0.55485 0.0
C683 C 0.99852 0.10748 0.47069 0.0
C684 C 0.0124 0.12089 0.4939 0.0
C685 C 0.02249 0.11859 0.54742 0.0
C686 C 0.01857 0.10325 0.57779 0.0
C687 C 0.01656 0.13714 0.46162 0.0
C688 C 0.03494 0.13955 0.43924 0.0
C689 C 0.00233 0.14956 0.44987 0.0
C690 C 0.98284 0.14819 0.47455 0.0
C691 C 0.97981 0.14837 0.53825 0.0
C692 C 0.96143 0.14691 0.56111 0.0
C693 C 0.94595 0.1454 0.52078 0.0
C694 C 0.94881 0.14539 0.4575 0.0
C695 C 0.96717 0.14682 0.43439 0.0
H696 H 0.93172 0.14427 0.53857 0.0
H697 H 0.10875 0.15639 0.30536 0.0
H698 H 0.28251 0.98612 0.15238 0.0
H699 H 0.31269 0.99318 0.20638 0.0
H700 H 0.29611 0.95708 0.33857 0.0
H701 H 0.26537 0.95123 0.28734 0.0
H702 H 0.31048 0.98727 0.39786 0.0
H703 H 0.33025 0.94663 0.20982 0.0
H704 H 0.33321 0.9385 0.09654 0.0
H705 H 0.36326 0.99036 0.08814 0.0
H706 H 0.36037 0.9988 0.20135 0.0
H707 H 0.39522 0.96969 0.53981 0.0
H708 H 0.36627 0.96823 0.47847 0.0
H709 H 0.39125 0.00689 0.36714 0.0
H710 H 0.42067 0.00783 0.42755 0.0
H711 H 0.3731 0.98048 0.29536 0.0
H712 H 0.35674 0.02045 0.47885 0.0
H713 H 0.35423 0.03057 0.59129 0.0
H714 H 0.31777 0.98324 0.60766 0.0
H715 H 0.32026 0.97267 0.49542 0.0
C716 C 0.28509 0.98019 0.19404 0.0
C717 C 0.27128 0.96878 0.21714 0.0
C718 C 0.30256 0.98385 0.2241 0.0
C719 C 0.30677 0.97571 0.27683 0.0
C720 C 0.2932 0.96371 0.29842 0.0
C721 C 0.27566 0.96027 0.26888 0.0
C722 C 0.32496 0.98 0.31109 0.0
C723 C 0.32416 0.98553 0.37543 0.0
C724 C 0.34288 0.97877 0.28166 0.0
C725 C 0.34493 0.97342 0.21388 0.0
C726 C 0.33743 0.95631 0.18375 0.0
C727 C 0.33911 0.95165 0.11959 0.0
C728 C 0.34837 0.96393 0.08516 0.0
C729 C 0.35607 0.98087 0.11485 0.0
C730 C 0.35444 0.98558 0.17898 0.0
C731 C 0.39446 0.97803 0.50269 0.0
C732 C 0.41009 0.98903 0.48882 0.0
C733 C 0.37789 0.97723 0.46767 0.0
C734 C 0.37638 0.98776 0.41891 0.0
C735 C 0.39204 0.9987 0.40469 0.0
C736 C 0.40879 0.99928 0.43922 0.0
C737 C 0.35855 0.98688 0.38232 0.0
C738 C 0.35941 0.98224 0.31769 0.0
C739 C 0.34066 0.98919 0.41128 0.0
C740 C 0.33879 0.9957 0.4787 0.0
C741 C 0.34825 0.01215 0.50646 0.0
C742 C 0.34683 0.01797 0.57017 0.0
C743 C 0.33588 0.00753 0.60661 0.0
C744 C 0.32625 0.9913 0.57937 0.0
C745 C 0.32764 0.9854 0.51568 0.0
H746 H 0.33483 0.01204 0.65595 0.0
H747 H 0.34962 0.96031 0.03549 0.0
H748 H 0.4811 0.27928 0.63406 0.0
H749 H 0.49769 0.30472 0.70077 0.0
H750 H 0.44938 0.33961 0.69311 0.0
H751 H 0.43271 0.31433 0.62755 0.0
H752 H 0.50854 0.33537 0.66419 0.0
H753 H 0.44746 0.37389 0.81309 0.0
H754 H 0.42138 0.36609 0.88044 0.0
H755 H 0.44777 0.31468 0.90186 0.0
H756 H 0.47415 0.32223 0.8352 0.0
H757 H 0.51632 0.43168 0.68302 0.0
H758 H 0.50897 0.39832 0.67057 0.0
H759 H 0.51085 0.39992 0.86877 0.0
H760 H 0.5174 0.43357 0.88158 0.0
H761 H 0.48175 0.38144 0.83004 0.0
H762 H 0.54531 0.37672 0.76859 0.0
H763 H 0.57481 0.38362 0.7151 0.0
H764 H 0.54843 0.36467 0.53933 0.0
H765 H 0.51867 0.3579 0.59164 0.0
C766 C 0.47383 0.2922 0.64796 0.0
C767 C 0.45568 0.29486 0.62477 0.0
C768 C 0.48334 0.30674 0.68608 0.0
C769 C 0.4748 0.3241 0.70211 0.0
C770 C 0.4562 0.3263 0.68234 0.0
C771 C 0.44673 0.31184 0.64423 0.0
C772 C 0.48605 0.34077 0.73067 0.0
C773 C 0.50282 0.34533 0.70109 0.0
C774 C 0.47901 0.35352 0.78032 0.0
C775 C 0.46277 0.34859 0.81865 0.0
C776 C 0.44774 0.36092 0.83214 0.0
C777 C 0.43288 0.35654 0.87021 0.0
C778 C 0.4329 0.33989 0.89532 0.0
C779 C 0.44773 0.32754 0.88217 0.0
C780 C 0.46262 0.33183 0.84404 0.0
C781 C 0.51549 0.42489 0.72393 0.0
C782 C 0.51742 0.43526 0.78324 0.0
C783 C 0.5114 0.40574 0.71677 0.0
C784 C 0.50963 0.39645 0.76869 0.0
C785 C 0.51217 0.40672 0.82798 0.0
C786 C 0.51595 0.42595 0.83521 0.0
C787 C 0.5035 0.37645 0.76076 0.0
C788 C 0.48772 0.3713 0.79417 0.0
C789 C 0.5118 0.36291 0.71609 0.0
C790 C 0.52971 0.36685 0.68414 0.0
C791 C 0.54575 0.37411 0.71851 0.0
C792 C 0.56254 0.37799 0.68838 0.0
C793 C 0.56349 0.37459 0.62386 0.0
C794 C 0.54767 0.36728 0.58932 0.0
C795 C 0.53085 0.36338 0.6192 0.0
H796 H 0.57649 0.37762 0.60062 0.0
H797 H 0.42143 0.33657 0.92506 0.0
H798 H 0.24716 0.57316 0.33776 0.0
H799 H 0.21446 0.57009 0.37283 0.0
H800 H 0.21786 0.51009 0.3365 0.0
H801 H 0.25071 0.51309 0.30285 0.0
H802 H 0.1836 0.52291 0.29709 0.0
H803 H 0.2228 0.53139 0.48 0.0
H804 H 0.24711 0.54736 0.55128 0.0
H805 H 0.21414 0.5969 0.57835 0.0
H806 H 0.18975 0.58129 0.50652 0.0
H807 H 0.10555 0.5003 0.48561 0.0
H808 H 0.13641 0.50302 0.4359 0.0
H809 H 0.13497 0.563 0.48067 0.0
H810 H 0.10443 0.56038 0.5315 0.0
H811 H 0.16804 0.55015 0.51251 0.0
H812 H 0.12756 0.54105 0.33573 0.0
H813 H 0.1038 0.5259 0.26102 0.0
H814 H 0.13887 0.47815 0.21925 0.0
H815 H 0.16272 0.49284 0.29463 0.0
C816 C 0.2409 0.55932 0.33706 0.0
C817 C 0.25137 0.54336 0.31638 0.0
C818 C 0.22223 0.55758 0.35696 0.0
C819 C 0.21375 0.53986 0.35727 0.0
C820 C 0.22408 0.5239 0.33595 0.0
C821 C 0.24279 0.52563 0.31621 0.0
C822 C 0.19443 0.538 0.38266 0.0
C823 C 0.18019 0.52861 0.34445 0.0
C824 C 0.18996 0.54587 0.44392 0.0
C825 C 0.20455 0.55523 0.48743 0.0
C826 C 0.22081 0.54573 0.50079 0.0
C827 C 0.23459 0.55471 0.54135 0.0
C828 C 0.23219 0.57315 0.5692 0.0
C829 C 0.21599 0.58263 0.55668 0.0
C830 C 0.20217 0.57372 0.51609 0.0
C831 C 0.11184 0.51406 0.48491 0.0
C832 C 0.10254 0.53013 0.51254 0.0
C833 C 0.12937 0.5156 0.45595 0.0
C834 C 0.13792 0.53323 0.45413 0.0
C835 C 0.1286 0.54927 0.48132 0.0
C836 C 0.11109 0.54775 0.51003 0.0
C837 C 0.15705 0.535 0.42709 0.0
C838 C 0.17133 0.54438 0.46512 0.0
C839 C 0.16148 0.5271 0.36564 0.0
C840 C 0.14683 0.51794 0.32176 0.0
C841 C 0.13007 0.52716 0.31156 0.0
C842 C 0.11661 0.51869 0.26883 0.0
C843 C 0.11977 0.50103 0.23568 0.0
C844 C 0.1364 0.4918 0.24517 0.0
C845 C 0.1499 0.5002 0.28789 0.0
H846 H 0.10938 0.49453 0.20239 0.0
H847 H 0.24288 0.58007 0.60058 0.0
H848 H 0.93688 0.78507 0.24561 0.0
H849 H 0.95672 0.81094 0.22067 0.0
H850 H 0.93762 0.79922 0.03085 0.0
H851 H 0.91988 0.77175 0.05453 0.0
H852 H 0.9724 0.80682 0.02839 0.0
H853 H 0.92151 0.83773 0.15102 0.0
H854 H 0.90166 0.84437 0.24428 0.0
H855 H 0.95112 0.86164 0.3542 0.0
H856 H 0.97128 0.85489 0.2617 0.0
H857 H 0.99196 0.89245 0.92456 0.0
H858 H 0.97652 0.86581 0.96212 0.0
H859 H 0.00809 0.87787 0.13285 0.0
H860 H 0.02336 0.90497 0.09595 0.0
H861 H 0.97047 0.86991 0.15233 0.0
H862 H 0.02073 0.84209 0.02803 0.0
H863 H 0.04063 0.83588 0.93488 0.0
H864 H 0.99226 0.81301 0.82818 0.0
H865 H 0.972 0.81931 0.92053 0.0
C866 C 0.93769 0.78749 0.1981 0.0
C867 C 0.92774 0.77576 0.15146 0.0
C868 C 0.9485 0.80274 0.18415 0.0
C869 C 0.94865 0.80727 0.1238 0.0
C870 C 0.93796 0.79599 0.07767 0.0
C871 C 0.92767 0.78037 0.09129 0.0
C872 C 0.96016 0.82345 0.10797 0.0
C873 C 0.9717 0.82065 0.05514 0.0
C874 C 0.96002 0.84142 0.14413 0.0
C875 C 0.94789 0.84569 0.19955 0.0
C876 C 0.92814 0.84287 0.19513 0.0
C877 C 0.91685 0.84665 0.24785 0.0
C878 C 0.92514 0.85337 0.30514 0.0
C879 C 0.94473 0.8564 0.30981 0.0
C880 C 0.95609 0.85263 0.25725 0.0
C881 C 0.99553 0.88955 0.97032 0.0
C882 C 0.00886 0.90086 0.00736 0.0
C883 C 0.98682 0.87421 0.9915 0.0
C884 C 0.9913 0.86974 0.05001 0.0
C885 C 0.00449 0.88105 0.08744 0.0
C886 C 0.01329 0.89642 0.06614 0.0
C887 C 0.982 0.8533 0.07176 0.0
C888 C 0.97108 0.85604 0.12581 0.0
C889 C 0.98265 0.83528 0.03671 0.0
C890 C 0.99482 0.8313 0.98115 0.0
C891 C 0.01431 0.83585 0.98462 0.0
C892 C 0.02566 0.83229 0.93197 0.0
C893 C 0.01771 0.82409 0.87563 0.0
C894 C 0.9984 0.81937 0.87186 0.0
C895 C 0.98698 0.82291 0.92436 0.0
H896 H 0.02652 0.82135 0.83491 0.0
H897 H 0.91637 0.85627 0.3459 0.0
H898 H 0.74309 0.98383 0.2827 0.0
H899 H 0.71372 0.99606 0.24761 0.0
H900 H 0.70063 0.94253 0.13883 0.0
H901 H 0.73015 0.93037 0.17324 0.0
H902 H 0.69444 0.96812 0.07239 0.0
H903 H 0.67618 0.95949 0.27808 0.0
H904 H 0.67606 0.96265 0.39193 0.0
H905 H 0.67372 0.02227 0.40431 0.0
H906 H 0.67385 0.01947 0.29043 0.0
H907 H 0.59789 0.98165 0.01064 0.0
H908 H 0.62723 0.97104 0.0513 0.0
H909 H 0.64142 0.02748 0.13436 0.0
H910 H 0.61204 0.03825 0.09345 0.0
H911 H 0.64739 0.00183 0.21286 0.0
H912 H 0.66227 0.00872 0.00267 0.0
H913 H 0.65547 0.00323 0.89078 0.0
H914 H 0.66157 0.94428 0.88759 0.0
H915 H 0.66787 0.94934 0.99993 0.0
C916 C 0.73372 0.97455 0.25252 0.0
C917 C 0.73873 0.95604 0.23165 0.0
C918 C 0.71695 0.98158 0.23225 0.0
C919 C 0.70476 0.97016 0.19117 0.0
C920 C 0.70976 0.95163 0.1705 0.0
C921 C 0.72661 0.94468 0.19027 0.0
C922 C 0.68723 0.9777 0.16758 0.0
C923 C 0.68409 0.9753 0.10331 0.0
C924 C 0.67383 0.98748 0.2075 0.0
C925 C 0.67522 0.98928 0.27579 0.0
C926 C 0.67594 0.97329 0.30509 0.0
C927 C 0.67578 0.97502 0.36964 0.0
C928 C 0.6749 0.99266 0.40529 0.0
C929 C 0.6744 0.00862 0.37658 0.0
C930 C 0.67449 0.00697 0.31207 0.0
C931 C 0.60733 0.99185 0.03707 0.0
C932 C 0.60273 0.01083 0.04833 0.0
C933 C 0.62406 0.98575 0.0604 0.0
C934 C 0.63662 0.99852 0.09505 0.0
C935 C 0.63192 0.01742 0.10755 0.0
C936 C 0.61513 0.02354 0.0843 0.0
C937 C 0.65464 0.99208 0.11826 0.0
C938 C 0.65789 0.99475 0.18221 0.0
C939 C 0.66799 0.98236 0.07813 0.0
C940 C 0.66537 0.9794 0.00991 0.0
C941 C 0.66211 0.99457 0.97818 0.0
C942 C 0.65831 0.99153 0.91468 0.0
C943 C 0.65801 0.97341 0.88217 0.0
C944 C 0.66175 0.9583 0.91292 0.0
C945 C 0.66543 0.96125 0.97653 0.0
H946 H 0.65486 0.97106 0.83317 0.0
H947 H 0.67439 0.99399 0.45511 0.0
H948 H 0.54371 0.71256 0.89436 0.0
H949 H 0.52798 0.6817 0.86995 0.0
H950 H 0.57183 0.65772 0.96814 0.0
H951 H 0.58784 0.68819 0.99045 0.0
H952 H 0.54171 0.64958 0.80443 0.0
H953 H 0.55209 0.62268 0.03911 0.0
H954 H 0.55284 0.63451 0.15062 0.0
H955 H 0.51979 0.68129 0.12008 0.0
H956 H 0.51829 0.66937 0.00846 0.0
H957 H 0.54778 0.55271 0.7836 0.0
H958 H 0.55135 0.58643 0.80491 0.0
H959 H 0.49757 0.58972 0.89902 0.0
H960 H 0.49392 0.55559 0.87856 0.0
H961 H 0.52455 0.61051 0.96539 0.0
H962 H 0.50214 0.60403 0.7571 0.0
H963 H 0.50135 0.59044 0.64672 0.0
H964 H 0.55846 0.61 0.62482 0.0
H965 H 0.55973 0.62351 0.73522 0.0
C966 C 0.54986 0.7007 0.9111 0.0
C967 C 0.56661 0.70291 0.9464 0.0
C968 C 0.54089 0.68312 0.89716 0.0
C969 C 0.54852 0.66751 0.91841 0.0
C970 C 0.56539 0.66967 0.95285 0.0
C971 C 0.5744 0.68716 0.96635 0.0
C972 C 0.5395 0.64871 0.90228 0.0
C973 C 0.5378 0.64107 0.83957 0.0
C974 C 0.53421 0.63771 0.94822 0.0
C975 C 0.53516 0.64515 0.01525 0.0
C976 C 0.54487 0.63542 0.05617 0.0
C977 C 0.54543 0.64215 0.11945 0.0
C978 C 0.53642 0.65869 0.14245 0.0
C979 C 0.52681 0.66851 0.10217 0.0
C980 C 0.52608 0.66175 0.03886 0.0
C981 C 0.53653 0.5605 0.80821 0.0
C982 C 0.5205 0.55137 0.82919 0.0
C983 C 0.53858 0.57987 0.82008 0.0
C984 C 0.52458 0.59063 0.8526 0.0
C985 C 0.50848 0.58165 0.87343 0.0
C986 C 0.50642 0.56216 0.86166 0.0
C987 C 0.52756 0.61113 0.86773 0.0
C988 C 0.52816 0.6191 0.93021 0.0
C989 C 0.53196 0.62238 0.8216 0.0
C990 C 0.53103 0.61476 0.75462 0.0
C991 C 0.51455 0.6054 0.72883 0.0
C992 C 0.51402 0.5977 0.66625 0.0
C993 C 0.52984 0.59935 0.62884 0.0
C994 C 0.54621 0.60876 0.65386 0.0
C995 C 0.54682 0.61648 0.71641 0.0
H996 H 0.52941 0.59334 0.58045 0.0
H997 H 0.53682 0.66386 0.1915 0.0
H998 H 0.78127 0.5402 0.29538 0.0
H999 H 0.81083 0.526 0.25702 0.0
H1000 H 0.8267 0.57611 0.18279 0.0
H1001 H 0.79749 0.59067 0.2233 0.0
H1002 H 0.83127 0.54534 0.09871 0.0
H1003 H 0.84867 0.56622 0.30782 0.0
H1004 H 0.84983 0.57045 0.42173 0.0
H1005 H 0.85491 0.51134 0.41731 0.0
H1006 H 0.85342 0.50667 0.30327 0.0
H1007 H 0.92696 0.52655 0.02812 0.0
H1008 H 0.89804 0.54007 0.07357 0.0
H1009 H 0.88399 0.48861 0.14233 0.0
H1010 H 0.91335 0.4751 0.09846 0.0
H1011 H 0.87832 0.51925 0.22874 0.0
H1012 H 0.86004 0.49922 0.0154 0.0
H1013 H 0.86494 0.49709 0.90276 0.0
H1014 H 0.86545 0.5569 0.91862 0.0
H1015 H 0.86035 0.55936 0.03107 0.0
C1016 C 0.79133 0.54846 0.27297 0.0
C1017 C 0.7873 0.5668 0.26426 0.0
C1018 C 0.80814 0.54023 0.25033 0.0
C1019 C 0.82109 0.55008 0.21772 0.0
C1020 C 0.81695 0.56828 0.20806 0.0
C1021 C 0.80024 0.57657 0.23118 0.0
C1022 C 0.83857 0.54115 0.1914 0.0
C1023 C 0.84161 0.53978 0.12736 0.0
C1024 C 0.85193 0.53358 0.22843 0.0
C1025 C 0.85073 0.53608 0.29691 0.0
C1026 C 0.8496 0.55407 0.33107 0.0
C1027 C 0.85043 0.55656 0.39566 0.0
C1028 C 0.85256 0.54119 0.42654 0.0
C1029 C 0.85333 0.52323 0.39317 0.0
C1030 C 0.85245 0.52065 0.32858 0.0
C1031 C 0.91786 0.51813 0.0534 0.0
C1032 C 0.92248 0.4997 0.05945 0.0
C1033 C 0.9012 0.52583 0.07881 0.0
C1034 C 0.8887 0.51524 0.11043 0.0
C1035 C 0.89338 0.49696 0.11765 0.0
C1036 C 0.91009 0.48923 0.09221 0.0
C1037 C 0.87086 0.52337 0.1365 0.0
C1038 C 0.86778 0.52459 0.20028 0.0
C1039 C 0.85754 0.53093 0.09948 0.0
C1040 C 0.85982 0.52947 0.03153 0.0
C1041 C 0.86113 0.5119 0.99472 0.0
C1042 C 0.8639 0.51063 0.93091 0.0
C1043 C 0.86539 0.52683 0.90344 0.0
C1044 C 0.86408 0.54434 0.93972 0.0
C1045 C 0.86117 0.54569 0.00347 0.0
H1046 H 0.86762 0.52579 0.8541 0.0
H1047 H 0.85386 0.54322 0.47627 0.0
H1048 H 0.08295 0.19334 0.04808 0.0
H1049 H 0.07793 0.1628 0.98587 0.0
H1050 H 0.10336 0.1365 0.12896 0.0
H1051 H 0.10853 0.16718 0.19191 0.0
H1052 H 0.10965 0.119 0.99433 0.0
H1053 H 0.06081 0.14014 0.14487 0.0
H1054 H 0.03915 0.16416 0.19392 0.0
H1055 H 0.01158 0.16489 0.01944 0.0
H1056 H 0.0335 0.14136 0.96895 0.0
H1057 H 0.06271 0.03014 0.92893 0.0
H1058 H 0.07697 0.05968 0.97847 0.0
H1059 H 0.0391 0.08986 0.87665 0.0
H1060 H 0.02444 0.06045 0.82828 0.0
H1061 H 0.04036 0.10545 0.99112 0.0
H1062 H 0.08659 0.08476 0.83877 0.0
H1063 H 0.10877 0.06281 0.78174 0.0
H1064 H 0.14101 0.06218 0.94788 0.0
H1065 H 0.11882 0.08395 0.00619 0.0
C1066 C 0.08805 0.18116 0.06569 0.0
C1067 C 0.09566 0.18258 0.12566 0.0
C1068 C 0.08517 0.16372 0.02995 0.0
C1069 C 0.09 0.14747 0.05342 0.0
C1070 C 0.0995 0.14894 0.11029 0.0
C1071 C 0.1023 0.16643 0.14633 0.0
C1072 C 0.08228 0.12923 0.02357 0.0
C1073 C 0.09455 0.11585 0.99413 0.0
C1074 C 0.06253 0.12546 0.02228 0.0
C1075 C 0.04894 0.13915 0.05305 0.0
C1076 C 0.05025 0.14556 0.11691 0.0
C1077 C 0.03792 0.15906 0.14498 0.0
C1078 C 0.024 0.16602 0.10987 0.0
C1079 C 0.02238 0.15949 0.04659 0.0
C1080 C 0.03477 0.1461 0.0182 0.0
C1081 C 0.05744 0.04307 0.91702 0.0
C1082 C 0.0424 0.04296 0.87482 0.0
C1083 C 0.06568 0.05994 0.94511 0.0
C1084 C 0.05926 0.07699 0.93073 0.0
C1085 C 0.04428 0.07688 0.88852 0.0
C1086 C 0.0359 0.06005 0.86093 0.0
C1087 C 0.06768 0.09499 0.96111 0.0
C1088 C 0.05549 0.10842 0.99109 0.0
C1089 C 0.08747 0.09884 0.9619 0.0
C1090 C 0.10092 0.08584 0.927 0.0
C1091 C 0.09832 0.07983 0.86328 0.0
C1092 C 0.11091 0.06744 0.83069 0.0
C1093 C 0.12627 0.06106 0.86119 0.0
C1094 C 0.12909 0.06711 0.92433 0.0
C1095 C 0.11652 0.07949 0.95718 0.0
H1096 H 0.136 0.05146 0.83587 0.0
H1097 H 0.01447 0.17646 0.13171 0.0
H1098 H 0.32942 0.02742 0.20581 0.0
H1099 H 0.3593 0.02865 0.15052 0.0
H1100 H 0.32917 0.03801 0.98662 0.0
H1101 H 0.29914 0.0363 0.0413 0.0
H1102 H 0.35225 0.01098 0.9582 0.0
H1103 H 0.35878 0.07243 0.07238 0.0
H1104 H 0.35891 0.09642 0.16509 0.0
H1105 H 0.40403 0.06884 0.24357 0.0
H1106 H 0.40401 0.04454 0.15166 0.0
H1107 H 0.43779 0.02029 0.7909 0.0
H1108 H 0.40745 0.0268 0.84257 0.0
H1109 H 0.43155 0.01568 0.01439 0.0
H1110 H 0.46201 0.00969 0.96366 0.0
H1111 H 0.41096 0.04599 0.03378 0.0
H1112 H 0.40216 0.98327 0.92193 0.0
H1113 H 0.40203 0.95963 0.82821 0.0
H1114 H 0.36082 0.99057 0.74395 0.0
H1115 H 0.36087 0.01449 0.83698 0.0
C1116 C 0.32917 0.03021 0.15848 0.0
C1117 C 0.31192 0.03173 0.12783 0.0
C1118 C 0.34629 0.03092 0.12687 0.0
C1119 C 0.34652 0.03347 0.06439 0.0
C1120 C 0.32935 0.03594 0.03471 0.0
C1121 C 0.31221 0.03505 0.06608 0.0
C1122 C 0.36443 0.03191 0.02866 0.0
C1123 C 0.36498 0.01894 0.97414 0.0
C1124 C 0.38117 0.04194 0.05005 0.0
C1125 C 0.3813 0.0566 0.10527 0.0
C1126 C 0.36865 0.07142 0.10957 0.0
C1127 C 0.36871 0.08508 0.16196 0.0
C1128 C 0.38144 0.08414 0.21023 0.0
C1129 C 0.39417 0.06955 0.20615 0.0
C1130 C 0.39416 0.05585 0.15387 0.0
C1131 C 0.43661 0.01917 0.83965 0.0
C1132 C 0.4523 0.01442 0.87315 0.0
C1133 C 0.41925 0.02287 0.86908 0.0
C1134 C 0.41718 0.02155 0.93223 0.0
C1135 C 0.43284 0.01683 0.96568 0.0
C1136 C 0.45022 0.01333 0.93651 0.0
C1137 C 0.39875 0.02499 0.96383 0.0
C1138 C 0.39813 0.03824 0.01759 0.0
C1139 C 0.38191 0.01528 0.94161 0.0
C1140 C 0.38166 0.00075 0.88614 0.0
C1141 C 0.39315 0.98507 0.88328 0.0
C1142 C 0.39308 0.97162 0.83032 0.0
C1143 C 0.38146 0.97362 0.7801 0.0
C1144 C 0.36983 0.98904 0.78285 0.0
C1145 C 0.36986 0.00254 0.83571 0.0
H1146 H 0.38145 0.96321 0.7391 0.0
H1147 H 0.38147 0.09473 0.25076 0.0
H1148 H 0.41785 0.29259 0.25874 0.0
H1149 H 0.41871 0.31335 0.17944 0.0
H1150 H 0.42003 0.36129 0.32258 0.0
H1151 H 0.41879 0.34086 0.40127 0.0
H1152 H 0.39678 0.36699 0.2335 0.0
H1153 H 0.46037 0.34331 0.24477 0.0
H1154 H 0.48428 0.31883 0.23609 0.0
H1155 H 0.46901 0.30159 0.04565 0.0
H1156 H 0.44482 0.32582 0.05348 0.0
H1157 H 0.4432 0.44228 0.1266 0.0
H1158 H 0.43271 0.41581 0.17569 0.0
H1159 H 0.43203 0.38045 0.99864 0.0
H1160 H 0.44227 0.4071 0.94845 0.0
H1161 H 0.45014 0.36442 0.08507 0.0
H1162 H 0.39068 0.39238 0.07022 0.0
H1163 H 0.36772 0.4177 0.07918 0.0
H1164 H 0.3755 0.42752 0.27621 0.0
H1165 H 0.3988 0.40249 0.26844 0.0
C1166 C 0.41818 0.30756 0.27316 0.0
C1167 C 0.41833 0.31506 0.33637 0.0
C1168 C 0.41875 0.3194 0.22782 0.0
C1169 C 0.4196 0.3389 0.24502 0.0
C1170 C 0.41932 0.34632 0.30805 0.0
C1171 C 0.41869 0.33457 0.35312 0.0
C1172 C 0.42133 0.35187 0.19842 0.0
C1173 C 0.40848 0.36646 0.20115 0.0
C1174 C 0.43617 0.35081 0.15449 0.0
C1175 C 0.45059 0.33616 0.15001 0.0
C1176 C 0.46198 0.33417 0.20125 0.0
C1177 C 0.4756 0.32036 0.19644 0.0
C1178 C 0.4781 0.3086 0.14044 0.0
C1179 C 0.46701 0.31066 0.08907 0.0
C1180 C 0.45333 0.32442 0.09367 0.0
C1181 C 0.4404 0.42903 0.09763 0.0
C1182 C 0.44347 0.42693 0.03339 0.0
C1183 C 0.43444 0.41385 0.12591 0.0
C1184 C 0.43132 0.39619 0.09075 0.0
C1185 C 0.43427 0.39398 0.02658 0.0
C1186 C 0.4402 0.40922 0.99808 0.0
C1187 C 0.42609 0.37998 0.12223 0.0
C1188 C 0.4382 0.36476 0.11647 0.0
C1189 C 0.41062 0.3805 0.16359 0.0
C1190 C 0.39658 0.39559 0.16865 0.0
C1191 C 0.38762 0.40003 0.11544 0.0
C1192 C 0.37453 0.41433 0.12032 0.0
C1193 C 0.37019 0.42424 0.17822 0.0
C1194 C 0.37891 0.41985 0.2314 0.0
C1195 C 0.39204 0.40558 0.22678 0.0
H1196 H 0.36005 0.4353 0.1819 0.0
H1197 H 0.48867 0.29794 0.13679 0.0
H1198 H 0.20698 0.53883 0.06086 0.0
H1199 H 0.17568 0.53362 0.01363 0.0
H1200 H 0.17068 0.4803 0.07857 0.0
H1201 H 0.20229 0.48526 0.12524 0.0
H1202 H 0.15808 0.47831 0.96012 0.0
H1203 H 0.14961 0.51737 0.15198 0.0
H1204 H 0.15608 0.54451 0.23202 0.0
H1205 H 0.13778 0.58141 0.10857 0.0
H1206 H 0.13201 0.5546 0.02666 0.0
H1207 H 0.05865 0.47128 0.89445 0.0
H1208 H 0.08907 0.47294 0.94832 0.0
H1209 H 0.10194 0.52601 0.88875 0.0
H1210 H 0.07149 0.52456 0.83496 0.0
H1211 H 0.1093 0.52617 0.0129 0.0
H1212 H 0.1221 0.4872 0.81828 0.0
H1213 H 0.11637 0.46006 0.73741 0.0
H1214 H 0.12567 0.4229 0.86971 0.0
H1215 H 0.13121 0.44984 0.95161 0.0
C1216 C 0.19928 0.52596 0.06501 0.0
C1217 C 0.20707 0.51249 0.09703 0.0
C1218 C 0.18136 0.52303 0.03811 0.0
C1219 C 0.17076 0.5067 0.04338 0.0
C1220 C 0.17864 0.49301 0.07412 0.0
C1221 C 0.19666 0.49589 0.10082 0.0
C1222 C 0.15136 0.50416 0.01725 0.0
C1223 C 0.1473 0.48861 0.97241 0.0
C1224 C 0.13739 0.51773 0.03304 0.0
C1225 C 0.14048 0.53391 0.08285 0.0
C1226 C 0.14709 0.53126 0.14161 0.0
C1227 C 0.15064 0.5466 0.18738 0.0
C1228 C 0.14724 0.56464 0.17552 0.0
C1229 C 0.14038 0.56741 0.11773 0.0
C1230 C 0.13702 0.55214 0.07151 0.0
C1231 C 0.06795 0.48329 0.89257 0.0
C1232 C 0.06263 0.49779 0.86028 0.0
C1233 C 0.08535 0.48419 0.92334 0.0
C1234 C 0.09777 0.49956 0.92227 0.0
C1235 C 0.09251 0.51405 0.8902 0.0
C1236 C 0.07515 0.51314 0.85924 0.0
C1237 C 0.11625 0.50062 0.95468 0.0
C1238 C 0.12007 0.51583 0.00103 0.0
C1239 C 0.12996 0.48672 0.94058 0.0
C1240 C 0.12687 0.47053 0.8912 0.0
C1241 C 0.12279 0.47324 0.83022 0.0
C1242 C 0.1196 0.45789 0.78419 0.0
C1243 C 0.1206 0.43977 0.79845 0.0
C1244 C 0.12487 0.43695 0.85875 0.0
C1245 C 0.12805 0.45225 0.90498 0.0
H1246 H 0.1181 0.4279 0.76277 0.0
H1247 H 0.14996 0.57649 0.21109 0.0
H1248 H 0.97381 0.81433 0.32466 0.0
H1249 H 0.98106 0.84478 0.38465 0.0
H1250 H 0.97968 0.8202 0.55295 0.0
H1251 H 0.97166 0.78973 0.49311 0.0
H1252 H 0.96055 0.8504 0.569 0.0
H1253 H 0.02231 0.83547 0.48617 0.0
H1254 H 0.04554 0.82579 0.40409 0.0
H1255 H 0.03222 0.87308 0.31606 0.0
H1256 H 0.00876 0.88293 0.3973 0.0
H1257 H 0.00151 0.92814 0.76436 0.0
H1258 H 0.99504 0.89761 0.70341 0.0
H1259 H 0.99096 0.92323 0.53799 0.0
H1260 H 0.9977 0.95387 0.59847 0.0
H1261 H 0.01287 0.8928 0.5204 0.0
H1262 H 0.95137 0.90778 0.60503 0.0
H1263 H 0.92859 0.91751 0.68845 0.0
H1264 H 0.94202 0.8699 0.7747 0.0
H1265 H 0.96507 0.86001 0.69217 0.0
C1266 C 0.97531 0.81534 0.37435 0.0
C1267 C 0.97221 0.79961 0.4042 0.0
C1268 C 0.9795 0.83278 0.40866 0.0
C1269 C 0.98111 0.8348 0.47337 0.0
C1270 C 0.97848 0.81901 0.50309 0.0
C1271 C 0.97399 0.80159 0.46886 0.0
C1272 C 0.98462 0.8535 0.51028 0.0
C1273 C 0.97219 0.85953 0.55895 0.0
C1274 C -0.00053 0.86567 0.49618 0.0
C1275 C 0.01369 0.85986 0.44757 0.0
C1276 C 0.02426 0.84374 0.44912 0.0
C1277 C 0.03749 0.83824 0.40278 0.0
C1278 C 0.04033 0.84879 0.35483 0.0
C1279 C 0.03 0.86491 0.35322 0.0
C1280 C 0.01676 0.87048 0.39945 0.0
C1281 C 0.9991 0.92734 0.71509 0.0
C1282 C 0.0001 0.94347 0.68629 0.0
C1283 C 0.99535 0.90987 0.68035 0.0
C1284 C 0.99238 0.90818 0.61626 0.0
C1285 C 0.99321 0.92424 0.58742 0.0
C1286 C 0.99699 0.94175 0.62212 0.0
C1287 C 0.98889 0.88957 0.57914 0.0
C1288 C 0.00128 0.8836 0.53042 0.0
C1289 C 0.97407 0.87743 0.59337 0.0
C1290 C 0.96006 0.88324 0.64268 0.0
C1291 C 0.94955 0.89945 0.642 0.0
C1292 C 0.93658 0.90498 0.68908 0.0
C1293 C 0.93389 0.89435 0.73691 0.0
C1294 C 0.94413 0.87813 0.73764 0.0
C1295 C 0.95713 0.87254 0.69068 0.0
H1296 H 0.92385 0.89867 0.77335 0.0
H1297 H 0.05056 0.8445 0.31898 0.0
H1298 H 0.70958 0.9947 0.54266 0.0
H1299 H 0.68012 0.99942 0.6013 0.0
H1300 H 0.66286 0.9422 0.53853 0.0
H1301 H 0.69217 0.93737 0.4799 0.0
H1302 H 0.63659 0.96659 0.51367 0.0
H1303 H 0.67394 0.95653 0.68884 0.0
H1304 H 0.70101 0.96199 0.76097 0.0
H1305 H 0.68508 0.01897 0.81304 0.0
H1306 H 0.658 0.0139 0.74078 0.0
H1307 H 0.5506 0.9669 0.67626 0.0
H1308 H 0.58261 0.95953 0.6401 0.0
H1309 H 0.60187 0.0154 0.71377 0.0
H1310 H 0.56997 0.02274 0.75172 0.0
H1311 H 0.6275 0.99114 0.73569 0.0
H1312 H 0.59216 0.00256 0.55782 0.0
H1313 H 0.56558 0.99844 0.48355 0.0
H1314 H 0.57847 0.94054 0.43384 0.0
H1315 H 0.605 0.94427 0.50843 0.0
C1316 C 0.69966 0.98303 0.54232 0.0
C1317 C 0.70306 0.96574 0.50604 0.0
C1318 C 0.68289 0.98572 0.5761 0.0
C1319 C 0.6693 0.97116 0.57407 0.0
C1320 C 0.67314 0.95363 0.54045 0.0
C1321 C 0.68993 0.95089 0.50711 0.0
C1322 C 0.65037 0.97463 0.60183 0.0
C1323 C 0.63457 0.97163 0.56247 0.0
C1324 C 0.64786 0.98184 0.66498 0.0
C1325 C 0.66404 0.98488 0.7089 0.0
C1326 C 0.6763 0.97027 0.71524 0.0
C1327 C 0.69163 0.97329 0.75624 0.0
C1328 C 0.69481 0.99084 0.79135 0.0
C1329 C 0.68264 0.0054 0.78565 0.0
C1330 C 0.66726 0.00244 0.74483 0.0
C1331 C 0.56161 0.97766 0.6845 0.0
C1332 C 0.55769 0.99551 0.71594 0.0
C1333 C 0.57992 0.97341 0.66394 0.0
C1334 C 0.59458 0.987 0.67335 0.0
C1335 C 0.59078 0.00471 0.70589 0.0
C1336 C 0.57251 0.00891 0.72717 0.0
C1337 C 0.6137 0.98294 0.64752 0.0
C1338 C 0.62952 0.98594 0.68703 0.0
C1339 C 0.61632 0.9759 0.58422 0.0
C1340 C 0.60045 0.97365 0.5391 0.0
C1341 C 0.58925 0.98892 0.53134 0.0
C1342 C 0.5742 0.98666 0.48915 0.0
C1343 C 0.57031 0.96923 0.45411 0.0
C1344 C 0.58149 0.95403 0.46107 0.0
C1345 C 0.59654 0.95621 0.50324 0.0
H1346 H 0.55865 0.96751 0.42147 0.0
H1347 H 0.70666 0.99313 0.82318 0.0
H1348 H 0.57022 0.67232 0.23467 0.0
H1349 H 0.56717 0.64804 0.30043 0.0
H1350 H 0.61342 0.61879 0.2037 0.0
H1351 H 0.61574 0.64251 0.13522 0.0
H1352 H 0.58859 0.59471 0.22165 0.0
H1353 H 0.61746 0.64507 0.35589 0.0
H1354 H 0.62199 0.67724 0.41009 0.0
H1355 H 0.56849 0.67322 0.50125 0.0
H1356 H 0.56351 0.6411 0.44694 0.0
H1357 H 0.59835 0.5356 0.45591 0.0
H1358 H 0.6038 0.55864 0.38619 0.0
H1359 H 0.55214 0.5857 0.44886 0.0
H1360 H 0.5463 0.5625 0.51753 0.0
H1361 H 0.58234 0.6104 0.44931 0.0
H1362 H 0.55337 0.56024 0.30136 0.0
H1363 H 0.55076 0.52786 0.24708 0.0
H1364 H 0.60846 0.53123 0.18739 0.0
H1365 H 0.61131 0.56377 0.24008 0.0
C1366 C 0.57974 0.66072 0.22733 0.0
C1367 C 0.59319 0.65935 0.17957 0.0
C1368 C 0.57811 0.6469 0.26546 0.0
C1369 C 0.59032 0.63171 0.25811 0.0
C1370 C 0.60384 0.63036 0.21055 0.0
C1371 C 0.60521 0.644 0.17154 0.0
C1372 C 0.58861 0.617 0.29888 0.0
C1373 C 0.58753 0.59818 0.27147 0.0
C1374 C 0.58711 0.6214 0.36408 0.0
C1375 C 0.59004 0.64073 0.39689 0.0
C1376 C 0.60659 0.65109 0.38714 0.0
C1377 C 0.60925 0.66931 0.41794 0.0
C1378 C 0.59552 0.67728 0.45897 0.0
C1379 C 0.57911 0.66703 0.4694 0.0
C1380 C 0.57637 0.64881 0.43866 0.0
C1381 C 0.58797 0.54625 0.4542 0.0
C1382 C 0.57188 0.54716 0.49254 0.0
C1383 C 0.59114 0.55944 0.41435 0.0
C1384 C 0.57831 0.5738 0.41201 0.0
C1385 C 0.56224 0.57474 0.45001 0.0
C1386 C 0.559 0.56152 0.48957 0.0
C1387 C 0.58192 0.5883 0.37174 0.0
C1388 C 0.58347 0.60703 0.3994 0.0
C1389 C 0.58425 0.58381 0.30703 0.0
C1390 C 0.58257 0.56434 0.27495 0.0
C1391 C 0.56549 0.55405 0.27661 0.0
C1392 C 0.56395 0.53572 0.24582 0.0
C1393 C 0.57942 0.52754 0.21349 0.0
C1394 C 0.59646 0.53767 0.21182 0.0
C1395 C 0.59802 0.55607 0.24193 0.0
H1396 H 0.57823 0.51333 0.1898 0.0
H1397 H 0.59761 0.69139 0.48278 0.0
H1398 H 0.80815 0.51147 0.49024 0.0
H1399 H 0.83465 0.49841 0.53992 0.0
H1400 H 0.85152 0.55375 0.62748 0.0
H1401 H 0.82467 0.56669 0.58063 0.0
H1402 H 0.86968 0.50284 0.52156 0.0
H1403 H 0.87609 0.55583 0.74317 0.0
H1404 H 0.85555 0.57326 0.82179 0.0
H1405 H 0.81318 0.5293 0.78965 0.0
H1406 H 0.83351 0.51171 0.71068 0.0
H1407 H 0.96407 0.51036 0.62731 0.0
H1408 H 0.93191 0.51465 0.59219 0.0
H1409 H 0.90941 0.49217 0.75024 0.0
H1410 H 0.94154 0.48848 0.78675 0.0
H1411 H 0.89124 0.52113 0.73832 0.0
H1412 H 0.90753 0.46751 0.59819 0.0
H1413 H 0.92661 0.44776 0.52117 0.0
H1414 H 0.92095 0.48719 0.39414 0.0
H1415 H 0.90207 0.50734 0.47074 0.0
C1416 C 0.81726 0.52078 0.5213 0.0
C1417 C 0.81435 0.54013 0.53133 0.0
C1418 C 0.83244 0.5133 0.54954 0.0
C1419 C 0.84504 0.52502 0.58808 0.0
C1420 C 0.84174 0.54428 0.59963 0.0
C1421 C 0.82644 0.55172 0.57215 0.0
C1422 C 0.86258 0.51752 0.61144 0.0
C1423 C 0.87431 0.50669 0.56913 0.0
C1424 C 0.86855 0.52218 0.67367 0.0
C1425 C 0.85633 0.53249 0.72143 0.0
C1426 C 0.86246 0.54987 0.75338 0.0
C1427 C 0.8508 0.55982 0.79758 0.0
C1428 C 0.83307 0.55238 0.81076 0.0
C1429 C 0.82691 0.53504 0.7794 0.0
C1430 C 0.83846 0.52512 0.73472 0.0
C1431 C 0.95228 0.50615 0.65424 0.0
C1432 C 0.95537 0.49906 0.70977 0.0
C1433 C 0.93387 0.50852 0.63394 0.0
C1434 C 0.91817 0.50349 0.66805 0.0
C1435 C 0.92126 0.49614 0.72305 0.0
C1436 C 0.93965 0.49401 0.7438 0.0
C1437 C 0.8986 0.50685 0.64815 0.0
C1438 C 0.88652 0.51698 0.69104 0.0
C1439 C 0.89213 0.50108 0.5868 0.0
C1440 C 0.90351 0.48902 0.5405 0.0
C1441 C 0.91048 0.47205 0.55403 0.0
C1442 C 0.92124 0.46077 0.5104 0.0
C1443 C 0.92503 0.46624 0.45285 0.0
C1444 C 0.91802 0.48298 0.43876 0.0
C1445 C 0.90727 0.49433 0.48226 0.0
H1446 H 0.93336 0.45748 0.41913 0.0
H1447 H 0.82411 0.56005 0.84528 0.0
loop_
_geom_bond_atom_site_label_1
_geom_bond_atom_site_label_2
_geom_bond_distance
_geom_bond_site_symmetry_2
_ccdc_geom_bond_type
O0 Cd1 2.300 . S
O0 C7 1.275 . S
Cd1 O0 2.300 . S
Cd1 O9 2.381 . S
Cd1 O10 2.378 . S
O2 Cd3 2.385 . S
O2 C7 1.255 . S
Cd3 O2 2.385 . S
Cd3 O4 2.317 . S
O4 Cd3 2.317 . S
O4 C5 1.232 . S
C5 O4 1.232 . S
C5 O6 1.218 . S
O6 C5 1.218 . S
C7 O0 1.275 . S
C7 O2 1.255 . S
C8 O9 1.258 . S
C8 O10 1.256 . S
O9 Cd1 2.381 . S
O9 C8 1.258 . S
O10 Cd1 2.378 . S
O10 C8 1.256 . S
O11 Cd12 2.300 . S
O11 C18 1.275 . S
Cd12 O11 2.300 . S
Cd12 O20 2.381 . S
Cd12 O21 2.378 . S
O13 Cd14 2.385 1_655 S
O13 C18 1.255 . S
Cd14 O13 2.385 1_455 S
Cd14 O15 2.317 1_455 S
O15 Cd14 2.317 1_655 S
O15 C16 1.232 . S
C16 O15 1.232 . S
C16 O17 1.218 . S
O17 C16 1.218 . S
C18 O11 1.275 . S
C18 O13 1.255 . S
C19 O20 1.258 . S
C19 O21 1.256 . S
O20 Cd12 2.381 . S
O20 C19 1.258 . S
O21 Cd12 2.378 . S
O21 C19 1.256 . S
O22 Cd23 2.300 1_565 S
O22 C29 1.275 1_565 S
Cd23 O22 2.300 1_545 S
Cd23 O31 2.381 1_545 S
Cd23 O32 2.378 . S
O24 Cd25 2.385 . S
O24 C29 1.255 . S
Cd25 O24 2.385 . S
Cd25 O26 2.317 . S
O26 Cd25 2.317 . S
O26 C27 1.232 . S
C27 O26 1.232 . S
C27 O28 1.218 . S
O28 C27 1.218 . S
C29 O22 1.275 1_545 S
C29 O24 1.255 . S
C30 O31 1.258 1_545 S
C30 O32 1.256 . S
O31 Cd23 2.381 1_565 S
O31 C30 1.258 1_565 S
O32 Cd23 2.378 . S
O32 C30 1.256 . S
O33 Cd34 2.300 . S
O33 C40 1.275 . S
Cd34 O33 2.300 . S
Cd34 O42 2.381 . S
Cd34 O43 2.378 . S
O35 Cd36 2.385 1_556 S
O35 C40 1.255 . S
Cd36 O35 2.385 1_554 S
Cd36 O37 2.317 . S
O37 Cd36 2.317 . S
O37 C38 1.232 . S
C38 O37 1.232 . S
C38 O39 1.218 . S
O39 C38 1.218 . S
C40 O33 1.275 . S
C40 O35 1.255 . S
C41 O42 1.258 . S
C41 O43 1.256 . S
O42 Cd34 2.381 . S
O42 C41 1.258 . S
O43 Cd34 2.378 . S
O43 C41 1.256 . S
O44 Cd45 2.300 . S
O44 C51 1.275 . S
Cd45 O44 2.300 . S
Cd45 O53 2.381 . S
Cd45 O54 2.378 . S
O46 Cd47 2.385 . S
O46 C51 1.255 . S
Cd47 O46 2.385 . S
Cd47 O48 2.317 . S
O48 Cd47 2.317 . S
O48 C49 1.232 . S
C49 O48 1.232 . S
C49 O50 1.218 . S
O50 C49 1.218 . S
C51 O44 1.275 . S
C51 O46 1.255 . S
C52 O53 1.258 . S
C52 O54 1.256 . S
O53 Cd45 2.381 . S
O53 C52 1.258 . S
O54 Cd45 2.378 . S
O54 C52 1.256 . S
O55 Cd56 2.300 . S
O55 C62 1.275 . S
Cd56 O55 2.300 . S
Cd56 O64 2.381 . S
Cd56 O65 2.378 . S
O57 Cd58 2.385 . S
O57 C62 1.255 . S
Cd58 O57 2.385 . S
Cd58 O59 2.317 . S
O59 Cd58 2.317 . S
O59 C60 1.232 . S
C60 O59 1.232 . S
C60 O61 1.218 . S
O61 C60 1.218 . S
C62 O55 1.275 . S
C62 O57 1.255 . S
C63 O64 1.258 . S
C63 O65 1.256 . S
O64 Cd56 2.381 . S
O64 C63 1.258 . S
O65 Cd56 2.378 . S
O65 C63 1.256 . S
O66 Cd67 2.300 1_565 S
O66 C73 1.275 1_565 S
Cd67 O66 2.300 1_545 S
Cd67 O75 2.381 1_545 S
Cd67 O76 2.378 . S
O68 Cd69 2.385 . S
O68 C73 1.255 . S
Cd69 O68 2.385 . S
Cd69 O70 2.317 . S
O70 Cd69 2.317 . S
O70 C71 1.232 . S
C71 O70 1.232 . S
C71 O72 1.218 . S
O72 C71 1.218 . S
C73 O66 1.275 1_545 S
C73 O68 1.255 . S
C74 O75 1.258 1_545 S
C74 O76 1.256 . S
O75 Cd67 2.381 1_565 S
O75 C74 1.258 1_565 S
O76 Cd67 2.378 . S
O76 C74 1.256 . S
O77 Cd78 2.300 . S
O77 C84 1.275 . S
Cd78 O77 2.300 . S
Cd78 O86 2.381 . S
Cd78 O87 2.378 . S
O79 Cd80 2.385 . S
O79 C84 1.255 . S
Cd80 O79 2.385 . S
Cd80 O81 2.317 . S
O81 Cd80 2.317 . S
O81 C82 1.232 . S
C82 O81 1.232 . S
C82 O83 1.218 . S
O83 C82 1.218 . S
C84 O77 1.275 . S
C84 O79 1.255 . S
C85 O86 1.258 . S
C85 O87 1.256 . S
O86 Cd78 2.381 . S
O86 C85 1.258 . S
O87 Cd78 2.378 . S
O87 C85 1.256 . S
Tb88 C97 2.764 . S
Tb88 O98 2.325 1_655 S
Tb88 O101 2.303 1_655 S
Tb88 O105 2.322 1_545 S
Tb88 O106 2.349 . S
Tb88 O109 2.415 1_655 S
Tb88 O110 2.399 . S
Tb89 O99 2.322 1_565 S
Tb89 O100 2.349 . S
Tb89 O102 2.415 . S
Tb89 O103 2.399 . S
Tb89 O104 2.325 . S
Tb89 O107 2.303 1_455 S
Tb89 C118 2.764 . S
C90 O106 1.261 . S
C90 O107 1.257 1_545 S
C91 C94 1.358 . S
C91 C95 1.332 1_655 S
C91 C97 1.504 . S
C92 C93 1.373 . S
C92 C96 1.308 1_655 S
C93 C92 1.373 . S
C93 C94 1.429 . S
C93 H120 0.932 . S
C94 C91 1.358 . S
C94 C93 1.429 . S
C94 H121 0.930 . S
C95 C91 1.332 1_455 S
C95 C96 1.394 . S
C95 H122 0.932 . S
C96 C92 1.308 1_455 S
C96 C95 1.394 . S
C96 H123 0.929 . S
C97 Tb88 2.764 . S
C97 C91 1.504 . S
C97 O109 1.239 1_655 S
C97 O110 1.263 . S
O98 Tb88 2.325 1_455 S
O98 C108 1.236 . S
O99 Tb89 2.322 1_545 S
O99 C108 1.257 . S
O100 Tb89 2.349 . S
O100 C111 1.261 . S
O101 Tb88 2.303 1_455 S
O101 C111 1.257 1_545 S
O102 Tb89 2.415 . S
O102 C118 1.239 . S
O103 Tb89 2.399 . S
O103 C118 1.263 . S
O104 Tb89 2.325 . S
O104 C119 1.198 1_455 S
O105 Tb88 2.322 1_565 S
O105 C119 1.279 . S
O106 Tb88 2.349 . S
O106 C90 1.261 . S
O107 Tb89 2.303 1_655 S
O107 C90 1.257 1_565 S
C108 O98 1.236 . S
C108 O99 1.257 . S
O109 Tb88 2.415 1_455 S
O109 C97 1.239 1_455 S
O110 Tb88 2.399 . S
O110 C97 1.263 . S
C111 O100 1.261 . S
C111 O101 1.257 1_565 S
C112 C115 1.358 . S
C112 C116 1.332 . S
C112 C118 1.504 . S
C113 C114 1.373 . S
C113 C117 1.308 . S
C114 C113 1.373 . S
C114 C115 1.429 . S
C114 H124 0.932 . S
C115 C112 1.358 . S
C115 C114 1.429 . S
C115 H125 0.930 . S
C116 C112 1.332 . S
C116 C117 1.394 . S
C116 H126 0.932 1_455 S
C117 C113 1.308 . S
C117 C116 1.394 . S
C117 H127 0.929 1_455 S
C118 Tb89 2.764 . S
C118 O102 1.239 . S
C118 O103 1.263 . S
C118 C112 1.504 . S
C119 O104 1.198 1_655 S
C119 O105 1.279 . S
H120 C93 0.932 . S
H121 C94 0.930 . S
H122 C95 0.932 . S
H123 C96 0.929 . S
H124 C114 0.932 . S
H125 C115 0.930 . S
H126 C116 0.932 1_655 S
H127 C117 0.929 1_655 S
Tb128 C137 2.764 . S
Tb128 O138 2.325 . S
Tb128 O141 2.303 1_565 S
Tb128 O145 2.322 . S
Tb128 O146 2.349 . S
Tb128 O149 2.415 1_565 S
Tb128 O150 2.399 . S
Tb129 O139 2.322 . S
Tb129 O140 2.349 . S
Tb129 O142 2.415 1_545 S
Tb129 O143 2.399 . S
Tb129 O144 2.325 . S
Tb129 O147 2.303 1_545 S
Tb129 C158 2.764 . S
C130 O146 1.261 . S
C130 O147 1.257 . S
C131 C134 1.358 . S
C131 C135 1.332 1_565 S
C131 C137 1.504 . S
C132 C133 1.373 . S
C132 C136 1.308 1_565 S
C133 C132 1.373 . S
C133 C134 1.429 . S
C133 H160 0.932 . S
C134 C131 1.358 . S
C134 C133 1.429 . S
C134 H161 0.930 . S
C135 C131 1.332 1_545 S
C135 C136 1.394 . S
C135 H162 0.932 . S
C136 C132 1.308 1_545 S
C136 C135 1.394 . S
C136 H163 0.929 . S
C137 Tb128 2.764 . S
C137 C131 1.504 . S
C137 O149 1.239 1_565 S
C137 O150 1.263 . S
O138 Tb128 2.325 . S
O138 C148 1.236 1_565 S
O139 Tb129 2.322 . S
O139 C148 1.257 . S
O140 Tb129 2.349 . S
O140 C151 1.261 . S
O141 Tb128 2.303 1_545 S
O141 C151 1.257 . S
O142 Tb129 2.415 1_565 S
O142 C158 1.239 1_565 S
O143 Tb129 2.399 . S
O143 C158 1.263 . S
O144 Tb129 2.325 . S
O144 C159 1.236 1_545 S
O145 Tb128 2.322 . S
O145 C159 1.257 . S
O146 Tb128 2.349 . S
O146 C130 1.261 . S
O147 Tb129 2.303 1_565 S
O147 C130 1.257 . S
C148 O138 1.236 1_545 S
C148 O139 1.257 . S
O149 Tb128 2.415 1_545 S
O149 C137 1.239 1_545 S
O150 Tb128 2.399 . S
O150 C137 1.263 . S
C151 O140 1.261 . S
C151 O141 1.257 . S
C152 C155 1.358 . S
C152 C156 1.332 1_545 S
C152 C158 1.504 . S
C153 C154 1.372 . S
C153 C157 1.257 1_544 S
C154 C153 1.372 . S
C154 C155 1.429 1_554 S
C154 H164 0.932 . S
C155 C152 1.358 . S
C155 C154 1.429 1_556 S
C155 H165 0.930 . S
C156 C152 1.332 1_565 S
C156 C157 1.393 . S
C156 H166 0.932 . S
C157 C153 1.257 1_566 S
C157 C156 1.393 . S
C157 H167 0.979 . S
C158 Tb129 2.764 . S
C158 O142 1.239 1_545 S
C158 O143 1.263 . S
C158 C152 1.504 . S
C159 O144 1.236 1_565 S
C159 O145 1.257 . S
H160 C133 0.932 . S
H161 C134 0.930 . S
H162 C135 0.932 . S
H163 C136 0.929 . S
H164 C154 0.932 . S
H165 C155 0.930 . S
H166 C156 0.932 . S
H167 C157 0.979 . S
Tb168 C177 2.764 . S
Tb168 O178 2.325 . S
Tb168 O181 2.303 . S
Tb168 O185 2.322 . S
Tb168 O186 2.349 . S
Tb168 O189 2.415 . S
Tb168 O190 2.399 . S
Tb169 O179 2.322 . S
Tb169 O180 2.349 . S
Tb169 O182 2.415 . S
Tb169 O183 2.399 . S
Tb169 O184 2.325 . S
Tb169 O187 2.303 . S
Tb169 C198 2.764 . S
C170 O186 1.261 . S
C170 O187 1.257 . S
C171 C174 1.358 . S
C171 C175 1.332 . S
C171 C177 1.504 . S
C172 C173 1.373 . S
C172 C176 1.308 . S
C173 C172 1.373 . S
C173 C174 1.429 1_554 S
C173 H200 0.932 . S
C174 C171 1.358 . S
C174 C173 1.429 1_556 S
C174 H201 0.930 . S
C175 C171 1.332 . S
C175 C176 1.394 1_556 S
C175 H202 0.932 . S
C176 C172 1.308 . S
C176 C175 1.394 1_554 S
C176 H203 0.929 . S
C177 Tb168 2.764 . S
C177 C171 1.504 . S
C177 O189 1.239 . S
C177 O190 1.263 . S
O178 Tb168 2.325 . S
O178 C188 1.236 . S
O179 Tb169 2.322 . S
O179 C188 1.257 . S
O180 Tb169 2.349 . S
O180 C191 1.261 . S
O181 Tb168 2.303 . S
O181 C191 1.257 . S
O182 Tb169 2.415 . S
O182 C198 1.239 . S
O183 Tb169 2.399 . S
O183 C198 1.263 . S
O184 Tb169 2.325 . S
O184 C199 1.236 . S
O185 Tb168 2.322 . S
O185 C199 1.257 . S
O186 Tb168 2.349 . S
O186 C170 1.261 . S
O187 Tb169 2.303 . S
O187 C170 1.257 . S
C188 O178 1.236 . S
C188 O179 1.257 . S
O189 Tb168 2.415 . S
O189 C177 1.239 . S
O190 Tb168 2.399 . S
O190 C177 1.263 . S
C191 O180 1.261 . S
C191 O181 1.257 . S
C192 C195 1.358 . S
C192 C196 1.332 . S
C192 C198 1.504 . S
C193 C194 1.373 . S
C193 C197 1.308 . S
C194 C193 1.373 . S
C194 C195 1.429 . S
C194 H204 0.932 . S
C195 C192 1.358 . S
C195 C194 1.429 . S
C195 H205 0.930 . S
C196 C192 1.332 . S
C196 C197 1.394 . S
C196 H206 0.932 . S
C197 C193 1.308 . S
C197 C196 1.394 . S
C197 H207 0.929 . S
C198 Tb169 2.764 . S
C198 O182 1.239 . S
C198 O183 1.263 . S
C198 C192 1.504 . S
C199 O184 1.236 . S
C199 O185 1.257 . S
H200 C173 0.932 . S
H201 C174 0.930 . S
H202 C175 0.932 . S
H203 C176 0.929 . S
H204 C194 0.932 . S
H205 C195 0.930 . S
H206 C196 0.932 . S
H207 C197 0.929 . S
Tb208 C217 2.764 . S
Tb208 O218 2.325 . S
Tb208 O221 2.303 . S
Tb208 O225 2.322 1_455 S
Tb208 O226 2.349 . S
Tb208 O229 2.415 . S
Tb208 O230 2.399 . S
Tb209 O219 2.322 1_655 S
Tb209 O220 2.349 1_655 S
Tb209 O222 2.415 . S
Tb209 O223 2.399 . S
Tb209 O224 2.325 . S
Tb209 O227 2.303 1_655 S
Tb209 C238 2.764 . S
C210 O226 1.261 . S
C210 O227 1.257 . S
C211 C214 1.358 . S
C211 C215 1.332 . S
C211 C217 1.504 . S
C212 C213 1.373 . S
C212 C216 1.308 . S
C213 C212 1.373 . S
C213 C214 1.429 . S
C213 H240 0.932 . S
C214 C211 1.358 . S
C214 C213 1.429 . S
C214 H241 0.930 . S
C215 C211 1.332 . S
C215 C216 1.394 . S
C215 H242 0.932 . S
C216 C212 1.308 . S
C216 C215 1.394 . S
C216 H243 0.929 . S
C217 Tb208 2.764 . S
C217 C211 1.504 . S
C217 O229 1.239 . S
C217 O230 1.263 . S
O218 Tb208 2.325 . S
O218 C228 1.236 . S
O219 Tb209 2.322 1_455 S
O219 C228 1.257 . S
O220 Tb209 2.349 1_455 S
O220 C231 1.261 . S
O221 Tb208 2.303 . S
O221 C231 1.257 . S
O222 Tb209 2.415 . S
O222 C238 1.239 . S
O223 Tb209 2.399 . S
O223 C238 1.263 . S
O224 Tb209 2.325 . S
O224 C239 1.236 . S
O225 Tb208 2.322 1_655 S
O225 C239 1.257 . S
O226 Tb208 2.349 . S
O226 C210 1.261 . S
O227 Tb209 2.303 1_455 S
O227 C210 1.257 . S
C228 O218 1.236 . S
C228 O219 1.257 . S
O229 Tb208 2.415 . S
O229 C217 1.239 . S
O230 Tb208 2.399 . S
O230 C217 1.263 . S
C231 O220 1.261 . S
C231 O221 1.257 . S
C232 C235 1.358 . S
C232 C236 1.332 . S
C232 C238 1.504 . S
C233 C234 1.373 . S
C233 C237 1.308 . S
C234 C233 1.373 . S
C234 C235 1.429 . S
C234 H244 0.932 . S
C235 C232 1.358 . S
C235 C234 1.429 . S
C235 H245 0.930 . S
C236 C232 1.332 . S
C236 C237 1.394 . S
C236 H246 0.932 . S
C237 C233 1.308 . S
C237 C236 1.394 . S
C237 H247 0.929 . S
C238 Tb209 2.764 . S
C238 O222 1.239 . S
C238 O223 1.263 . S
C238 C232 1.504 . S
C239 O224 1.236 . S
C239 O225 1.257 . S
H240 C213 0.932 . S
H241 C214 0.930 . S
H242 C215 0.932 . S
H243 C216 0.929 . S
H244 C234 0.932 . S
H245 C235 0.930 . S
H246 C236 0.932 . S
H247 C237 0.929 . S
H248 C266 0.951 . S
H249 C268 0.951 . S
H250 C270 0.950 . S
H251 C271 0.950 . S
H252 C273 0.950 . S
H253 C276 0.950 . S
H254 C277 0.950 . S
H255 C279 0.950 . S
H256 C280 0.950 1_565 S
H257 C281 0.951 . S
H258 C283 0.951 . S
H259 C285 0.950 . S
H260 C286 0.950 . S
H261 C288 0.950 . S
H262 C291 0.950 . S
H263 C292 0.950 . S
H264 C294 0.950 . S
H265 C295 0.950 1_545 S
C266 H248 0.951 . S
C266 C267 1.365 1_565 S
C266 C268 1.388 . S
C267 C266 1.365 1_545 S
C267 C271 1.385 . S
C268 H249 0.951 . S
C268 C266 1.388 . S
C268 C269 1.366 1_565 S
C269 C268 1.366 1_545 S
C269 C270 1.414 . S
C269 C272 1.499 . S
C270 H250 0.950 . S
C270 C269 1.414 . S
C270 C271 1.374 . S
C271 H251 0.950 . S
C271 C267 1.385 . S
C271 C270 1.374 . S
C272 C269 1.499 . S
C272 C273 1.373 1_545 S
C272 C274 1.389 . S
C273 H252 0.950 . S
C273 C272 1.373 1_565 S
C273 C289 1.377 . S
C274 C272 1.389 . S
C274 C275 1.524 . S
C274 C288 1.377 . S
C275 C274 1.524 . S
C275 C276 1.397 . S
C275 C280 1.363 . S
C276 H253 0.950 . S
C276 C275 1.397 . S
C276 C277 1.334 . S
C277 H254 0.950 . S
C277 C276 1.334 . S
C277 C278 1.287 . S
C278 C277 1.287 . S
C278 C279 1.524 . S
C278 H297 0.913 . S
C279 H255 0.950 . S
C279 C278 1.524 . S
C279 C280 1.415 . S
C280 H256 0.950 1_545 S
C280 C275 1.363 . S
C280 C279 1.415 . S
C281 H257 0.951 . S
C281 C282 1.381 . S
C281 C283 1.388 . S
C282 C281 1.381 . S
C282 C286 1.373 1_545 S
C283 H258 0.951 . S
C283 C281 1.388 . S
C283 C284 1.359 1_545 S
C284 C283 1.359 1_565 S
C284 C285 1.421 . S
C284 C287 1.501 . S
C285 H259 0.950 . S
C285 C284 1.421 . S
C285 C286 1.374 . S
C286 H260 0.950 . S
C286 C282 1.373 1_565 S
C286 C285 1.374 . S
C287 C284 1.501 . S
C287 C288 1.351 1_565 S
C287 C289 1.406 . S
C288 H261 0.950 . S
C288 C274 1.377 . S
C288 C287 1.351 1_545 S
C289 C273 1.377 . S
C289 C287 1.406 . S
C289 C290 1.524 . S
C290 C289 1.524 . S
C290 C291 1.397 . S
C290 C295 1.363 . S
C291 H262 0.950 . S
C291 C290 1.397 . S
C291 C292 1.334 . S
C292 H263 0.950 . S
C292 C291 1.334 . S
C292 C293 1.287 . S
C293 C292 1.287 . S
C293 C294 1.524 . S
C293 H296 0.999 . S
C294 H264 0.950 . S
C294 C293 1.524 . S
C294 C295 1.415 . S
C295 H265 0.950 1_565 S
C295 C290 1.363 . S
C295 C294 1.415 . S
H296 C293 0.999 . S
H297 C278 0.913 . S
H298 C316 0.951 . S
H299 C318 0.951 . S
H300 C320 0.950 . S
H301 C321 0.950 . S
H302 C323 0.950 . S
H303 C326 0.950 . S
H304 C327 0.950 . S
H305 C329 0.950 . S
H306 C330 0.950 . S
H307 C331 0.951 . S
H308 C333 0.951 . S
H309 C335 0.950 . S
H310 C336 0.950 . S
H311 C338 0.950 . S
H312 C341 0.950 . S
H313 C342 0.950 . S
H314 C344 0.950 . S
H315 C345 0.950 . S
C316 H298 0.951 . S
C316 C317 1.366 . S
C316 C318 1.388 . S
C317 C316 1.366 . S
C317 C321 1.385 . S
C318 H299 0.951 . S
C318 C316 1.388 . S
C318 C319 1.366 . S
C319 C318 1.366 . S
C319 C320 1.414 . S
C319 C322 1.499 . S
C320 H300 0.950 . S
C320 C319 1.414 . S
C320 C321 1.374 . S
C321 H301 0.950 . S
C321 C317 1.385 . S
C321 C320 1.374 . S
C322 C319 1.499 . S
C322 C323 1.373 . S
C322 C324 1.389 . S
C323 H302 0.950 . S
C323 C322 1.373 . S
C323 C339 1.377 . S
C324 C322 1.389 . S
C324 C325 1.524 . S
C324 C338 1.377 . S
C325 C324 1.524 . S
C325 C326 1.397 . S
C325 C330 1.363 . S
C326 H303 0.950 . S
C326 C325 1.397 . S
C326 C327 1.334 . S
C327 H304 0.950 . S
C327 C326 1.334 . S
C327 C328 1.287 . S
C328 C327 1.287 . S
C328 C329 1.524 . S
C328 H347 0.913 . S
C329 H305 0.950 . S
C329 C328 1.524 . S
C329 C330 1.415 . S
C330 H306 0.950 . S
C330 C325 1.363 . S
C330 C329 1.415 . S
C331 H307 0.951 . S
C331 C332 1.366 . S
C331 C333 1.388 . S
C332 C331 1.366 . S
C332 C336 1.385 . S
C333 H308 0.951 . S
C333 C331 1.388 . S
C333 C334 1.366 . S
C334 C333 1.366 . S
C334 C335 1.414 . S
C334 C337 1.499 . S
C335 H309 0.950 . S
C335 C334 1.414 . S
C335 C336 1.374 . S
C336 H310 0.950 . S
C336 C332 1.385 . S
C336 C335 1.374 . S
C337 C334 1.499 . S
C337 C338 1.373 . S
C337 C339 1.389 . S
C338 H311 0.950 . S
C338 C324 1.377 . S
C338 C337 1.373 . S
C339 C323 1.377 . S
C339 C337 1.389 . S
C339 C340 1.524 . S
C340 C339 1.524 . S
C340 C341 1.397 . S
C340 C345 1.363 . S
C341 H312 0.950 . S
C341 C340 1.397 . S
C341 C342 1.334 . S
C342 H313 0.950 . S
C342 C341 1.334 . S
C342 C343 1.287 . S
C343 C342 1.287 . S
C343 C344 1.524 . S
C343 H346 0.999 . S
C344 H314 0.950 . S
C344 C343 1.524 . S
C344 C345 1.415 . S
C345 H315 0.950 . S
C345 C340 1.363 . S
C345 C344 1.415 . S
H346 C343 0.999 . S
H347 C328 0.913 . S
H348 C366 0.951 . S
H349 C368 0.951 . S
H350 C370 0.950 . S
H351 C371 0.950 . S
H352 C373 0.950 . S
H353 C376 0.950 . S
H354 C377 0.950 . S
H355 C379 0.950 . S
H356 C380 0.950 . S
H357 C381 0.951 . S
H358 C383 0.951 . S
H359 C385 0.950 . S
H360 C386 0.950 . S
H361 C388 0.950 . S
H362 C391 0.950 . S
H363 C392 0.950 . S
H364 C394 0.950 . S
H365 C395 0.950 . S
C366 H348 0.951 . S
C366 C367 1.366 . S
C366 C368 1.388 . S
C367 C366 1.366 . S
C367 C371 1.385 . S
C368 H349 0.951 . S
C368 C366 1.388 . S
C368 C369 1.366 . S
C369 C368 1.366 . S
C369 C370 1.414 . S
C369 C372 1.499 . S
C370 H350 0.950 . S
C370 C369 1.414 . S
C370 C371 1.374 . S
C371 H351 0.950 . S
C371 C367 1.385 . S
C371 C370 1.374 . S
C372 C369 1.499 . S
C372 C373 1.373 . S
C372 C374 1.389 . S
C373 H352 0.950 . S
C373 C372 1.373 . S
C373 C389 1.377 . S
C374 C372 1.389 . S
C374 C375 1.524 . S
C374 C388 1.377 . S
C375 C374 1.524 . S
C375 C376 1.397 . S
C375 C380 1.363 . S
C376 H353 0.950 . S
C376 C375 1.397 . S
C376 C377 1.334 . S
C377 H354 0.950 . S
C377 C376 1.334 . S
C377 C378 1.287 . S
C378 C377 1.287 . S
C378 C379 1.524 . S
C378 H397 0.913 . S
C379 H355 0.950 . S
C379 C378 1.524 . S
C379 C380 1.415 . S
C380 H356 0.950 . S
C380 C375 1.363 . S
C380 C379 1.415 . S
C381 H357 0.951 . S
C381 C382 1.366 . S
C381 C383 1.388 . S
C382 C381 1.366 . S
C382 C386 1.385 . S
C383 H358 0.951 . S
C383 C381 1.388 . S
C383 C384 1.366 . S
C384 C383 1.366 . S
C384 C385 1.414 . S
C384 C387 1.499 . S
C385 H359 0.950 . S
C385 C384 1.414 . S
C385 C386 1.374 . S
C386 H360 0.950 . S
C386 C382 1.385 . S
C386 C385 1.374 . S
C387 C384 1.499 . S
C387 C388 1.373 . S
C387 C389 1.389 . S
C388 H361 0.950 . S
C388 C374 1.377 . S
C388 C387 1.373 . S
C389 C373 1.377 . S
C389 C387 1.389 . S
C389 C390 1.524 . S
C390 C389 1.524 . S
C390 C391 1.397 . S
C390 C395 1.363 . S
C391 H362 0.950 . S
C391 C390 1.397 . S
C391 C392 1.334 . S
C392 H363 0.950 . S
C392 C391 1.334 . S
C392 C393 1.287 . S
C393 C392 1.287 . S
C393 C394 1.524 . S
C393 H396 0.999 . S
C394 H364 0.950 . S
C394 C393 1.524 . S
C394 C395 1.415 . S
C395 H365 0.950 . S
C395 C390 1.363 . S
C395 C394 1.415 . S
H396 C393 0.999 . S
H397 C378 0.913 . S
H398 C416 0.951 . S
H399 C418 0.951 . S
H400 C420 0.950 . S
H401 C421 0.950 . S
H402 C423 0.950 . S
H403 C426 0.950 . S
H404 C427 0.950 . S
H405 C429 0.950 . S
H406 C430 0.950 . S
H407 C431 0.951 . S
H408 C433 0.951 . S
H409 C435 0.950 . S
H410 C436 0.935 1_655 S
H411 C438 0.950 . S
H412 C441 0.950 1_655 S
H413 C442 0.950 . S
H414 C444 0.950 . S
H415 C445 0.950 . S
C416 H398 0.951 . S
C416 C417 1.366 . S
C416 C418 1.388 . S
C417 C416 1.366 . S
C417 C421 1.385 . S
C418 H399 0.951 . S
C418 C416 1.388 . S
C418 C419 1.366 . S
C419 C418 1.366 . S
C419 C420 1.414 . S
C419 C422 1.499 . S
C420 H400 0.950 . S
C420 C419 1.414 . S
C420 C421 1.374 . S
C421 H401 0.950 . S
C421 C417 1.385 . S
C421 C420 1.374 . S
C422 C419 1.499 . S
C422 C423 1.373 . S
C422 C424 1.389 . S
C423 H402 0.950 . S
C423 C422 1.373 . S
C423 C439 1.377 . S
C424 C422 1.389 . S
C424 C425 1.524 . S
C424 C438 1.377 . S
C425 C424 1.524 . S
C425 C426 1.397 . S
C425 C430 1.363 . S
C426 H403 0.950 . S
C426 C425 1.397 . S
C426 C427 1.334 . S
C427 H404 0.950 . S
C427 C426 1.334 . S
C427 C428 1.287 . S
C428 C427 1.287 . S
C428 C429 1.524 . S
C428 H447 0.913 . S
C429 H405 0.950 . S
C429 C428 1.524 . S
C429 C430 1.415 . S
C430 H406 0.950 . S
C430 C425 1.363 . S
C430 C429 1.415 . S
C431 H407 0.951 . S
C431 C432 1.366 . S
C431 C433 1.388 . S
C432 C431 1.366 . S
C432 C436 1.385 . S
C433 H408 0.951 . S
C433 C431 1.388 . S
C433 C434 1.366 . S
C434 C433 1.366 . S
C434 C435 1.414 . S
C434 C437 1.499 . S
C435 H409 0.950 . S
C435 C434 1.414 . S
C435 C436 1.374 . S
C436 H410 0.935 1_455 S
C436 C432 1.385 . S
C436 C435 1.374 . S
C437 C434 1.499 . S
C437 C438 1.373 . S
C437 C439 1.389 . S
C438 H411 0.950 . S
C438 C424 1.377 . S
C438 C437 1.373 . S
C439 C423 1.377 . S
C439 C437 1.389 . S
C439 C440 1.524 . S
C440 C439 1.524 . S
C440 C441 1.397 . S
C440 C445 1.363 . S
C441 H412 0.950 1_455 S
C441 C440 1.397 . S
C441 C442 1.334 1_455 S
C442 H413 0.950 . S
C442 C441 1.334 1_655 S
C442 C443 1.287 1_655 S
C443 C442 1.287 1_455 S
C443 C444 1.524 . S
C443 H446 0.999 1_455 S
C444 H414 0.950 . S
C444 C443 1.524 . S
C444 C445 1.415 . S
C445 H415 0.950 . S
C445 C440 1.363 . S
C445 C444 1.415 . S
H446 C443 0.999 1_655 S
H447 C428 0.913 . S
H448 C466 0.951 . S
H449 C468 0.951 . S
H450 C470 0.950 . S
H451 C471 0.950 . S
H452 C473 0.950 . S
H453 C476 0.950 . S
H454 C477 0.950 . S
H455 C479 0.950 . S
H456 C480 0.950 1_545 S
H457 C481 0.951 . S
H458 C483 0.951 1_554 S
H459 C485 0.950 . S
H460 C486 0.950 . S
H461 C488 0.950 . S
H462 C491 0.950 . S
H463 C492 0.950 . S
H464 C494 0.950 . S
H465 C495 0.950 1_565 S
C466 H448 0.951 . S
C466 C467 1.365 . S
C466 C468 1.388 . S
C467 C466 1.365 . S
C467 C471 1.385 1_545 S
C468 H449 0.951 . S
C468 C466 1.388 . S
C468 C469 1.336 1_545 S
C469 C468 1.336 1_565 S
C469 C470 1.449 . S
C469 C472 1.496 . S
C470 H450 0.950 . S
C470 C469 1.449 . S
C470 C471 1.374 . S
C471 H451 0.950 . S
C471 C467 1.385 1_565 S
C471 C470 1.374 . S
C472 C469 1.496 . S
C472 C473 1.373 1_565 S
C472 C474 1.389 . S
C473 H452 0.950 . S
C473 C472 1.373 1_545 S
C473 C489 1.377 . S
C474 C472 1.389 . S
C474 C475 1.524 . S
C474 C488 1.377 1_554 S
C475 C474 1.524 . S
C475 C476 1.397 . S
C475 C480 1.363 1_554 S
C476 H453 0.950 . S
C476 C475 1.397 . S
C476 C477 1.334 . S
C477 H454 0.950 . S
C477 C476 1.334 . S
C477 C478 1.287 1_554 S
C478 C477 1.287 1_556 S
C478 C479 1.524 . S
C478 H497 0.913 . S
C479 H455 0.950 . S
C479 C478 1.524 . S
C479 C480 1.415 . S
C480 H456 0.950 1_565 S
C480 C475 1.363 1_556 S
C480 C479 1.415 . S
C481 H457 0.951 . S
C481 C482 1.380 . S
C481 C483 1.388 . S
C482 C481 1.380 . S
C482 C486 1.372 1_565 S
C483 H458 0.951 1_556 S
C483 C481 1.388 . S
C483 C484 1.349 1_565 S
C484 C483 1.349 1_545 S
C484 C485 1.433 . S
C484 C487 1.497 1_556 S
C485 H459 0.950 . S
C485 C484 1.433 . S
C485 C486 1.374 . S
C486 H460 0.950 . S
C486 C482 1.372 1_545 S
C486 C485 1.374 . S
C487 C484 1.497 1_554 S
C487 C488 1.373 1_544 S
C487 C489 1.389 . S
C488 H461 0.950 . S
C488 C474 1.377 1_556 S
C488 C487 1.373 1_566 S
C489 C473 1.377 . S
C489 C487 1.389 . S
C489 C490 1.524 . S
C490 C489 1.524 . S
C490 C491 1.397 . S
C490 C495 1.363 . S
C491 H462 0.950 . S
C491 C490 1.397 . S
C491 C492 1.334 . S
C492 H463 0.950 . S
C492 C491 1.334 . S
C492 C493 1.287 . S
C493 C492 1.287 . S
C493 C494 1.524 . S
C493 H496 0.999 . S
C494 H464 0.950 . S
C494 C493 1.524 . S
C494 C495 1.415 . S
C495 H465 0.950 1_545 S
C495 C490 1.363 . S
C495 C494 1.415 . S
H496 C493 0.999 . S
H497 C478 0.913 . S
H498 C516 0.951 . S
H499 C518 0.951 . S
H500 C520 0.950 . S
H501 C521 0.950 . S
H502 C523 0.950 . S
H503 C526 0.950 . S
H504 C527 0.950 . S
H505 C529 0.950 . S
H506 C530 0.950 . S
H507 C531 0.951 . S
H508 C533 0.951 . S
H509 C535 0.950 . S
H510 C536 0.950 . S
H511 C538 0.950 . S
H512 C541 0.950 . S
H513 C542 0.950 . S
H514 C544 0.950 . S
H515 C545 0.950 . S
C516 H498 0.951 . S
C516 C517 1.366 . S
C516 C518 1.388 . S
C517 C516 1.366 . S
C517 C521 1.385 . S
C518 H499 0.951 . S
C518 C516 1.388 . S
C518 C519 1.366 . S
C519 C518 1.366 . S
C519 C520 1.414 . S
C519 C522 1.499 . S
C520 H500 0.950 . S
C520 C519 1.414 . S
C520 C521 1.374 . S
C521 H501 0.950 . S
C521 C517 1.385 . S
C521 C520 1.374 . S
C522 C519 1.499 . S
C522 C523 1.373 . S
C522 C524 1.389 . S
C523 H502 0.950 . S
C523 C522 1.373 . S
C523 C539 1.377 . S
C524 C522 1.389 . S
C524 C525 1.524 . S
C524 C538 1.377 . S
C525 C524 1.524 . S
C525 C526 1.397 1_556 S
C525 C530 1.363 . S
C526 H503 0.950 . S
C526 C525 1.397 1_554 S
C526 C527 1.334 . S
C527 H504 0.950 . S
C527 C526 1.334 . S
C527 C528 1.287 . S
C528 C527 1.287 . S
C528 C529 1.524 . S
C528 H547 0.913 . S
C529 H505 0.950 . S
C529 C528 1.524 . S
C529 C530 1.415 1_554 S
C530 H506 0.950 . S
C530 C525 1.363 . S
C530 C529 1.415 1_556 S
C531 H507 0.951 . S
C531 C532 1.366 . S
C531 C533 1.388 . S
C532 C531 1.366 . S
C532 C536 1.385 . S
C533 H508 0.951 . S
C533 C531 1.388 . S
C533 C534 1.366 . S
C534 C533 1.366 . S
C534 C535 1.414 . S
C534 C537 1.499 . S
C535 H509 0.950 . S
C535 C534 1.414 . S
C535 C536 1.374 . S
C536 H510 0.950 . S
C536 C532 1.385 . S
C536 C535 1.374 . S
C537 C534 1.499 . S
C537 C538 1.373 . S
C537 C539 1.389 . S
C538 H511 0.950 . S
C538 C524 1.377 . S
C538 C537 1.373 . S
C539 C523 1.377 . S
C539 C537 1.389 . S
C539 C540 1.524 . S
C540 C539 1.524 . S
C540 C541 1.397 . S
C540 C545 1.363 . S
C541 H512 0.950 . S
C541 C540 1.397 . S
C541 C542 1.334 . S
C542 H513 0.950 . S
C542 C541 1.334 . S
C542 C543 1.287 . S
C543 C542 1.287 . S
C543 C544 1.524 . S
C543 H546 0.999 . S
C544 H514 0.950 . S
C544 C543 1.524 . S
C544 C545 1.415 . S
C545 H515 0.950 . S
C545 C540 1.363 . S
C545 C544 1.415 . S
H546 C543 0.999 . S
H547 C528 0.913 . S
H548 C566 0.951 . S
H549 C568 0.951 . S
H550 C570 0.950 . S
H551 C571 0.950 . S
H552 C573 0.950 . S
H553 C576 0.950 . S
H554 C577 0.950 . S
H555 C579 0.950 . S
H556 C580 0.950 . S
H557 C581 0.951 . S
H558 C583 0.951 . S
H559 C585 0.950 1_554 S
H560 C586 0.950 . S
H561 C588 0.950 . S
H562 C591 0.950 . S
H563 C592 0.950 . S
H564 C594 0.950 . S
H565 C595 0.950 . S
C566 H548 0.951 . S
C566 C567 1.366 . S
C566 C568 1.388 . S
C567 C566 1.366 . S
C567 C571 1.385 . S
C568 H549 0.951 . S
C568 C566 1.388 . S
C568 C569 1.366 . S
C569 C568 1.366 . S
C569 C570 1.414 . S
C569 C572 1.499 . S
C570 H550 0.950 . S
C570 C569 1.414 . S
C570 C571 1.374 . S
C571 H551 0.950 . S
C571 C567 1.385 . S
C571 C570 1.374 . S
C572 C569 1.499 . S
C572 C573 1.373 . S
C572 C574 1.389 . S
C573 H552 0.950 . S
C573 C572 1.373 . S
C573 C589 1.377 . S
C574 C572 1.389 . S
C574 C575 1.524 . S
C574 C588 1.377 . S
C575 C574 1.524 . S
C575 C576 1.397 . S
C575 C580 1.363 . S
C576 H553 0.950 . S
C576 C575 1.397 . S
C576 C577 1.334 . S
C577 H554 0.950 . S
C577 C576 1.334 . S
C577 C578 1.287 . S
C578 C577 1.287 . S
C578 C579 1.524 . S
C578 H597 0.913 . S
C579 H555 0.950 . S
C579 C578 1.524 . S
C579 C580 1.415 . S
C580 H556 0.950 . S
C580 C575 1.363 . S
C580 C579 1.415 . S
C581 H557 0.951 . S
C581 C582 1.366 . S
C581 C583 1.388 . S
C582 C581 1.366 . S
C582 C586 1.385 . S
C583 H558 0.951 . S
C583 C581 1.388 . S
C583 C584 1.366 . S
C584 C583 1.366 . S
C584 C585 1.414 . S
C584 C587 1.499 1_556 S
C585 H559 0.950 1_556 S
C585 C584 1.414 . S
C585 C586 1.374 . S
C586 H560 0.950 . S
C586 C582 1.385 . S
C586 C585 1.374 . S
C587 C584 1.499 1_554 S
C587 C588 1.373 . S
C587 C589 1.389 . S
C588 H561 0.950 . S
C588 C574 1.377 . S
C588 C587 1.373 . S
C589 C573 1.377 . S
C589 C587 1.389 . S
C589 C590 1.524 1_554 S
C590 C589 1.524 1_556 S
C590 C591 1.397 1_556 S
C590 C595 1.363 . S
C591 H562 0.950 . S
C591 C590 1.397 1_554 S
C591 C592 1.334 1_554 S
C592 H563 0.950 . S
C592 C591 1.334 1_556 S
C592 C593 1.287 . S
C593 C592 1.287 . S
C593 C594 1.524 . S
C593 H596 0.999 . S
C594 H564 0.950 . S
C594 C593 1.524 . S
C594 C595 1.415 . S
C595 H565 0.950 . S
C595 C590 1.363 . S
C595 C594 1.415 . S
H596 C593 0.999 . S
H597 C578 0.913 . S
H598 C616 0.951 . S
H599 C618 0.951 1_455 S
H600 C620 0.950 . S
H601 C621 0.950 . S
H602 C623 0.950 . S
H603 C626 0.950 . S
H604 C627 0.950 . S
H605 C629 0.950 . S
H606 C630 0.950 . S
H607 C631 0.951 . S
H608 C633 0.951 . S
H609 C635 0.950 . S
H610 C636 0.950 . S
H611 C638 0.950 . S
H612 C641 0.950 . S
H613 C642 0.950 . S
H614 C644 0.950 . S
H615 C645 0.950 . S
C616 H598 0.951 . S
C616 C617 1.366 . S
C616 C618 1.388 . S
C617 C616 1.366 . S
C617 C621 1.385 . S
C618 H599 0.951 1_655 S
C618 C616 1.388 . S
C618 C619 1.366 . S
C619 C618 1.366 . S
C619 C620 1.414 . S
C619 C622 1.499 . S
C620 H600 0.950 . S
C620 C619 1.414 . S
C620 C621 1.374 . S
C621 H601 0.950 . S
C621 C617 1.385 . S
C621 C620 1.374 . S
C622 C619 1.499 . S
C622 C623 1.373 . S
C622 C624 1.389 1_655 S
C623 H602 0.950 . S
C623 C622 1.373 . S
C623 C639 1.377 . S
C624 C622 1.389 1_455 S
C624 C625 1.524 . S
C624 C638 1.377 . S
C625 C624 1.524 . S
C625 C626 1.397 . S
C625 C630 1.363 . S
C626 H603 0.950 . S
C626 C625 1.397 . S
C626 C627 1.334 . S
C627 H604 0.950 . S
C627 C626 1.334 . S
C627 C628 1.287 . S
C628 C627 1.287 . S
C628 C629 1.524 . S
C628 H647 0.913 . S
C629 H605 0.950 . S
C629 C628 1.524 . S
C629 C630 1.415 . S
C630 H606 0.950 . S
C630 C625 1.363 . S
C630 C629 1.415 . S
C631 H607 0.951 . S
C631 C632 1.366 1_655 S
C631 C633 1.388 . S
C632 C631 1.366 1_455 S
C632 C636 1.385 . S
C633 H608 0.951 . S
C633 C631 1.388 . S
C633 C634 1.366 . S
C634 C633 1.366 . S
C634 C635 1.414 1_655 S
C634 C637 1.499 . S
C635 H609 0.950 . S
C635 C634 1.414 1_455 S
C635 C636 1.374 . S
C636 H610 0.950 . S
C636 C632 1.385 . S
C636 C635 1.374 . S
C637 C634 1.499 . S
C637 C638 1.373 1_656 S
C637 C639 1.389 1_556 S
C638 H611 0.950 . S
C638 C624 1.377 . S
C638 C637 1.373 1_454 S
C639 C623 1.377 . S
C639 C637 1.389 1_554 S
C639 C640 1.524 1_554 S
C640 C639 1.524 1_556 S
C640 C641 1.397 1_556 S
C640 C645 1.363 . S
C641 H612 0.950 . S
C641 C640 1.397 1_554 S
C641 C642 1.334 1_554 S
C642 H613 0.950 . S
C642 C641 1.334 1_556 S
C642 C643 1.287 . S
C643 C642 1.287 . S
C643 C644 1.524 . S
C643 H646 0.999 . S
C644 H614 0.950 . S
C644 C643 1.524 . S
C644 C645 1.415 . S
C645 H615 0.950 . S
C645 C640 1.363 . S
C645 C644 1.415 . S
H646 C643 0.999 . S
H647 C628 0.913 . S
H648 C666 0.951 . S
H649 C668 0.951 . S
H650 C670 0.950 . S
H651 C671 0.950 . S
H652 C673 0.950 . S
H653 C676 0.950 . S
H654 C677 0.950 . S
H655 C679 0.950 . S
H656 C680 0.950 . S
H657 C681 0.951 . S
H658 C683 0.951 . S
H659 C685 0.950 . S
H660 C686 0.950 . S
H661 C688 0.950 . S
H662 C691 0.950 1_455 S
H663 C692 0.950 . S
H664 C694 0.950 . S
H665 C695 0.950 . S
C666 H648 0.951 . S
C666 C667 1.366 . S
C666 C668 1.388 . S
C667 C666 1.366 . S
C667 C671 1.385 . S
C668 H649 0.951 . S
C668 C666 1.388 . S
C668 C669 1.366 . S
C669 C668 1.366 . S
C669 C670 1.414 . S
C669 C672 1.499 . S
C670 H650 0.950 . S
C670 C669 1.414 . S
C670 C671 1.374 . S
C671 H651 0.950 . S
C671 C667 1.385 . S
C671 C670 1.374 . S
C672 C669 1.499 . S
C672 C673 1.373 . S
C672 C674 1.389 . S
C673 H652 0.950 . S
C673 C672 1.373 . S
C673 C689 1.377 . S
C674 C672 1.389 . S
C674 C675 1.524 . S
C674 C688 1.377 . S
C675 C674 1.524 . S
C675 C676 1.397 . S
C675 C680 1.363 . S
C676 H653 0.950 . S
C676 C675 1.397 . S
C676 C677 1.334 . S
C677 H654 0.950 . S
C677 C676 1.334 . S
C677 C678 1.287 . S
C678 C677 1.287 . S
C678 C679 1.524 . S
C678 H697 0.913 . S
C679 H655 0.950 . S
C679 C678 1.524 . S
C679 C680 1.415 . S
C680 H656 0.950 . S
C680 C675 1.363 . S
C680 C679 1.415 . S
C681 H657 0.951 . S
C681 C682 1.366 . S
C681 C683 1.388 . S
C682 C681 1.366 . S
C682 C686 1.385 1_655 S
C683 H658 0.951 . S
C683 C681 1.388 . S
C683 C684 1.366 1_655 S
C684 C683 1.366 1_455 S
C684 C685 1.414 . S
C684 C687 1.499 . S
C685 H659 0.950 . S
C685 C684 1.414 . S
C685 C686 1.374 . S
C686 H660 0.950 . S
C686 C682 1.385 1_455 S
C686 C685 1.374 . S
C687 C684 1.499 . S
C687 C688 1.373 . S
C687 C689 1.389 . S
C688 H661 0.950 . S
C688 C674 1.377 . S
C688 C687 1.373 . S
C689 C673 1.377 . S
C689 C687 1.389 . S
C689 C690 1.524 1_455 S
C690 C689 1.524 1_655 S
C690 C691 1.397 . S
C690 C695 1.363 . S
C691 H662 0.950 1_655 S
C691 C690 1.397 . S
C691 C692 1.334 . S
C692 H663 0.950 . S
C692 C691 1.334 . S
C692 C693 1.287 . S
C693 C692 1.287 . S
C693 C694 1.524 . S
C693 H696 0.999 . S
C694 H664 0.950 . S
C694 C693 1.524 . S
C694 C695 1.415 . S
C695 H665 0.950 . S
C695 C690 1.363 . S
C695 C694 1.415 . S
H696 C693 0.999 . S
H697 C678 0.913 . S
H698 C716 0.949 . S
H699 C718 0.951 . S
H700 C720 0.950 . S
H701 C721 0.951 . S
H702 C723 0.950 . S
H703 C726 0.950 . S
H704 C727 0.950 . S
H705 C729 0.950 . S
H706 C730 0.950 . S
H707 C731 0.951 . S
H708 C733 0.951 . S
H709 C735 0.950 . S
H710 C736 0.950 . S
H711 C738 0.950 . S
H712 C741 0.950 . S
H713 C742 0.950 . S
H714 C744 0.950 . S
H715 C745 0.950 . S
C716 H698 0.949 . S
C716 C717 1.367 . S
C716 C718 1.389 1_545 S
C717 C716 1.367 . S
C717 C721 1.365 1_545 S
C718 H699 0.951 . S
C718 C716 1.389 1_565 S
C718 C719 1.366 . S
C719 C718 1.366 . S
C719 C720 1.414 . S
C719 C722 1.499 . S
C720 H700 0.950 . S
C720 C719 1.414 . S
C720 C721 1.384 . S
C721 H701 0.951 . S
C721 C717 1.365 1_565 S
C721 C720 1.384 . S
C722 C719 1.499 . S
C722 C723 1.373 1_565 S
C722 C724 1.389 . S
C723 H702 0.950 . S
C723 C722 1.373 1_545 S
C723 C739 1.377 . S
C724 C722 1.389 . S
C724 C725 1.524 . S
C724 C738 1.377 . S
C725 C724 1.524 . S
C725 C726 1.397 . S
C725 C730 1.363 . S
C726 H703 0.950 . S
C726 C725 1.397 . S
C726 C727 1.334 . S
C727 H704 0.950 . S
C727 C726 1.334 . S
C727 C728 1.287 . S
C728 C727 1.287 . S
C728 C729 1.524 . S
C728 H747 0.913 . S
C729 H705 0.950 . S
C729 C728 1.524 . S
C729 C730 1.415 . S
C730 H706 0.950 . S
C730 C725 1.363 . S
C730 C729 1.415 . S
C731 H707 0.951 . S
C731 C732 1.366 . S
C731 C733 1.388 . S
C732 C731 1.366 . S
C732 C736 1.385 . S
C733 H708 0.951 . S
C733 C731 1.388 . S
C733 C734 1.366 . S
C734 C733 1.366 . S
C734 C735 1.414 . S
C734 C737 1.499 . S
C735 H709 0.950 . S
C735 C734 1.414 . S
C735 C736 1.374 . S
C736 H710 0.950 . S
C736 C732 1.385 . S
C736 C735 1.374 . S
C737 C734 1.499 . S
C737 C738 1.373 . S
C737 C739 1.389 1_565 S
C738 H711 0.950 . S
C738 C724 1.377 . S
C738 C737 1.373 . S
C739 C723 1.377 . S
C739 C737 1.389 1_545 S
C739 C740 1.524 . S
C740 C739 1.524 . S
C740 C741 1.397 . S
C740 C745 1.363 . S
C741 H712 0.950 . S
C741 C740 1.397 . S
C741 C742 1.334 . S
C742 H713 0.950 . S
C742 C741 1.334 . S
C742 C743 1.287 . S
C743 C742 1.287 . S
C743 C744 1.524 . S
C743 H746 0.999 . S
C744 H714 0.950 . S
C744 C743 1.524 . S
C744 C745 1.415 . S
C745 H715 0.950 . S
C745 C740 1.363 . S
C745 C744 1.415 . S
H746 C743 0.999 . S
H747 C728 0.913 . S
H748 C766 0.951 . S
H749 C768 0.951 . S
H750 C770 0.950 . S
H751 C771 0.950 . S
H752 C773 0.950 . S
H753 C776 0.950 . S
H754 C777 0.950 . S
H755 C779 0.950 . S
H756 C780 0.950 . S
H757 C781 0.951 . S
H758 C783 0.951 . S
H759 C785 0.950 . S
H760 C786 0.950 . S
H761 C788 0.950 . S
H762 C791 0.950 . S
H763 C792 0.950 . S
H764 C794 0.950 . S
H765 C795 0.950 . S
C766 H748 0.951 . S
C766 C767 1.366 . S
C766 C768 1.388 . S
C767 C766 1.366 . S
C767 C771 1.385 . S
C768 H749 0.951 . S
C768 C766 1.388 . S
C768 C769 1.366 . S
C769 C768 1.366 . S
C769 C770 1.414 . S
C769 C772 1.499 . S
C770 H750 0.950 . S
C770 C769 1.414 . S
C770 C771 1.374 . S
C771 H751 0.950 . S
C771 C767 1.385 . S
C771 C770 1.374 . S
C772 C769 1.499 . S
C772 C773 1.373 . S
C772 C774 1.389 . S
C773 H752 0.950 . S
C773 C772 1.373 . S
C773 C789 1.377 . S
C774 C772 1.389 . S
C774 C775 1.524 . S
C774 C788 1.377 . S
C775 C774 1.524 . S
C775 C776 1.397 . S
C775 C780 1.363 . S
C776 H753 0.950 . S
C776 C775 1.397 . S
C776 C777 1.334 . S
C777 H754 0.950 . S
C777 C776 1.334 . S
C777 C778 1.287 . S
C778 C777 1.287 . S
C778 C779 1.524 . S
C778 H797 0.913 . S
C779 H755 0.950 . S
C779 C778 1.524 . S
C779 C780 1.415 . S
C780 H756 0.950 . S
C780 C775 1.363 . S
C780 C779 1.415 . S
C781 H757 0.951 . S
C781 C782 1.366 . S
C781 C783 1.388 . S
C782 C781 1.366 . S
C782 C786 1.385 . S
C783 H758 0.951 . S
C783 C781 1.388 . S
C783 C784 1.366 . S
C784 C783 1.366 . S
C784 C785 1.414 . S
C784 C787 1.499 . S
C785 H759 0.950 . S
C785 C784 1.414 . S
C785 C786 1.374 . S
C786 H760 0.950 . S
C786 C782 1.385 . S
C786 C785 1.374 . S
C787 C784 1.499 . S
C787 C788 1.373 . S
C787 C789 1.389 . S
C788 H761 0.950 . S
C788 C774 1.377 . S
C788 C787 1.373 . S
C789 C773 1.377 . S
C789 C787 1.389 . S
C789 C790 1.524 . S
C790 C789 1.524 . S
C790 C791 1.397 . S
C790 C795 1.363 . S
C791 H762 0.950 . S
C791 C790 1.397 . S
C791 C792 1.334 . S
C792 H763 0.950 . S
C792 C791 1.334 . S
C792 C793 1.287 . S
C793 C792 1.287 . S
C793 C794 1.524 . S
C793 H796 0.999 . S
C794 H764 0.950 . S
C794 C793 1.524 . S
C794 C795 1.415 . S
C795 H765 0.950 . S
C795 C790 1.363 . S
C795 C794 1.415 . S
H796 C793 0.999 . S
H797 C778 0.913 . S
H798 C816 0.951 . S
H799 C818 0.951 . S
H800 C820 0.950 . S
H801 C821 0.950 . S
H802 C823 0.950 . S
H803 C826 0.950 . S
H804 C827 0.950 . S
H805 C829 0.950 . S
H806 C830 0.950 . S
H807 C831 0.951 . S
H808 C833 0.951 . S
H809 C835 0.950 . S
H810 C836 0.950 . S
H811 C838 0.950 . S
H812 C841 0.950 . S
H813 C842 0.950 . S
H814 C844 0.950 . S
H815 C845 0.950 . S
C816 H798 0.951 . S
C816 C817 1.366 . S
C816 C818 1.388 . S
C817 C816 1.366 . S
C817 C821 1.385 . S
C818 H799 0.951 . S
C818 C816 1.388 . S
C818 C819 1.366 . S
C819 C818 1.366 . S
C819 C820 1.414 . S
C819 C822 1.499 . S
C820 H800 0.950 . S
C820 C819 1.414 . S
C820 C821 1.374 . S
C821 H801 0.950 . S
C821 C817 1.385 . S
C821 C820 1.374 . S
C822 C819 1.499 . S
C822 C823 1.373 . S
C822 C824 1.389 . S
C823 H802 0.950 . S
C823 C822 1.373 . S
C823 C839 1.377 . S
C824 C822 1.389 . S
C824 C825 1.524 . S
C824 C838 1.377 . S
C825 C824 1.524 . S
C825 C826 1.397 . S
C825 C830 1.363 . S
C826 H803 0.950 . S
C826 C825 1.397 . S
C826 C827 1.334 . S
C827 H804 0.950 . S
C827 C826 1.334 . S
C827 C828 1.287 . S
C828 C827 1.287 . S
C828 C829 1.524 . S
C828 H847 0.913 . S
C829 H805 0.950 . S
C829 C828 1.524 . S
C829 C830 1.415 . S
C830 H806 0.950 . S
C830 C825 1.363 . S
C830 C829 1.415 . S
C831 H807 0.951 . S
C831 C832 1.366 . S
C831 C833 1.388 . S
C832 C831 1.366 . S
C832 C836 1.385 . S
C833 H808 0.951 . S
C833 C831 1.388 . S
C833 C834 1.366 . S
C834 C833 1.366 . S
C834 C835 1.414 . S
C834 C837 1.499 . S
C835 H809 0.950 . S
C835 C834 1.414 . S
C835 C836 1.374 . S
C836 H810 0.950 . S
C836 C832 1.385 . S
C836 C835 1.374 . S
C837 C834 1.499 . S
C837 C838 1.373 . S
C837 C839 1.389 . S
C838 H811 0.950 . S
C838 C824 1.377 . S
C838 C837 1.373 . S
C839 C823 1.377 . S
C839 C837 1.389 . S
C839 C840 1.524 . S
C840 C839 1.524 . S
C840 C841 1.397 . S
C840 C845 1.363 . S
C841 H812 0.950 . S
C841 C840 1.397 . S
C841 C842 1.334 . S
C842 H813 0.950 . S
C842 C841 1.334 . S
C842 C843 1.287 . S
C843 C842 1.287 . S
C843 C844 1.524 . S
C843 H846 0.999 . S
C844 H814 0.950 . S
C844 C843 1.524 . S
C844 C845 1.415 . S
C845 H815 0.950 . S
C845 C840 1.363 . S
C845 C844 1.415 . S
H846 C843 0.999 . S
H847 C828 0.913 . S
H848 C866 0.951 . S
H849 C868 0.951 . S
H850 C870 0.950 . S
H851 C871 0.950 . S
H852 C873 0.950 . S
H853 C876 0.950 . S
H854 C877 0.950 . S
H855 C879 0.950 . S
H856 C880 0.950 . S
H857 C881 0.951 . S
H858 C883 0.951 . S
H859 C885 0.950 . S
H860 C886 0.950 . S
H861 C888 0.950 . S
H862 C891 0.950 . S
H863 C892 0.950 . S
H864 C894 0.950 . S
H865 C895 0.950 . S
C866 H848 0.951 . S
C866 C867 1.366 . S
C866 C868 1.388 . S
C867 C866 1.366 . S
C867 C871 1.385 . S
C868 H849 0.951 . S
C868 C866 1.388 . S
C868 C869 1.366 . S
C869 C868 1.366 . S
C869 C870 1.414 . S
C869 C872 1.499 . S
C870 H850 0.950 . S
C870 C869 1.414 . S
C870 C871 1.374 . S
C871 H851 0.950 . S
C871 C867 1.385 . S
C871 C870 1.374 . S
C872 C869 1.499 . S
C872 C873 1.373 1_655 S
C872 C874 1.389 . S
C873 H852 0.950 . S
C873 C872 1.373 1_455 S
C873 C889 1.377 . S
C874 C872 1.389 . S
C874 C875 1.524 . S
C874 C888 1.377 . S
C875 C874 1.524 . S
C875 C876 1.397 . S
C875 C880 1.363 . S
C876 H853 0.950 . S
C876 C875 1.397 . S
C876 C877 1.334 . S
C877 H854 0.950 . S
C877 C876 1.334 . S
C877 C878 1.287 . S
C878 C877 1.287 . S
C878 C879 1.524 . S
C878 H897 0.913 . S
C879 H855 0.950 . S
C879 C878 1.524 . S
C879 C880 1.415 . S
C880 H856 0.950 . S
C880 C875 1.363 . S
C880 C879 1.415 . S
C881 H857 0.951 . S
C881 C882 1.366 . S
C881 C883 1.388 . S
C882 C881 1.366 . S
C882 C886 1.385 1_556 S
C883 H858 0.951 . S
C883 C881 1.388 . S
C883 C884 1.366 1_556 S
C884 C883 1.366 1_554 S
C884 C885 1.414 . S
C884 C887 1.499 . S
C885 H859 0.950 . S
C885 C884 1.414 . S
C885 C886 1.374 . S
C886 H860 0.950 . S
C886 C882 1.385 1_554 S
C886 C885 1.374 . S
C887 C884 1.499 . S
C887 C888 1.373 1_455 S
C887 C889 1.389 . S
C888 H861 0.950 . S
C888 C874 1.377 . S
C888 C887 1.373 1_655 S
C889 C873 1.377 . S
C889 C887 1.389 . S
C889 C890 1.524 . S
C890 C889 1.524 . S
C890 C891 1.397 . S
C890 C895 1.363 1_554 S
C891 H862 0.950 . S
C891 C890 1.397 . S
C891 C892 1.334 . S
C892 H863 0.950 . S
C892 C891 1.334 . S
C892 C893 1.287 1_554 S
C893 C892 1.287 1_556 S
C893 C894 1.524 . S
C893 H896 0.999 . S
C894 H864 0.950 . S
C894 C893 1.524 . S
C894 C895 1.415 . S
C895 H865 0.950 . S
C895 C890 1.363 1_556 S
C895 C894 1.415 . S
H896 C893 0.999 . S
H897 C878 0.913 . S
H898 C916 0.951 . S
H899 C918 0.951 . S
H900 C920 0.950 . S
H901 C921 0.950 . S
H902 C923 0.950 . S
H903 C926 0.950 . S
H904 C927 0.950 . S
H905 C929 0.950 . S
H906 C930 0.950 . S
H907 C931 0.954 1_565 S
H908 C933 0.951 . S
H909 C935 0.950 . S
H910 C936 0.950 . S
H911 C938 0.950 . S
H912 C941 0.950 1_545 S
H913 C942 0.950 . S
H914 C944 0.950 . S
H915 C945 0.950 . S
C916 H898 0.951 . S
C916 C917 1.323 1_545 S
C916 C918 1.388 . S
C917 C916 1.323 1_565 S
C917 C921 1.418 . S
C918 H899 0.951 . S
C918 C916 1.388 . S
C918 C919 1.366 . S
C919 C918 1.366 . S
C919 C920 1.414 1_545 S
C919 C922 1.499 . S
C920 H900 0.950 . S
C920 C919 1.414 1_565 S
C920 C921 1.374 . S
C921 H901 0.950 . S
C921 C917 1.418 . S
C921 C920 1.374 . S
C922 C919 1.499 . S
C922 C923 1.373 1_545 S
C922 C924 1.389 . S
C923 H902 0.950 . S
C923 C922 1.373 1_565 S
C923 C939 1.377 . S
C924 C922 1.389 . S
C924 C925 1.524 . S
C924 C938 1.377 . S
C925 C924 1.524 . S
C925 C926 1.397 . S
C925 C930 1.363 . S
C926 H903 0.950 . S
C926 C925 1.397 . S
C926 C927 1.334 . S
C927 H904 0.950 . S
C927 C926 1.334 . S
C927 C928 1.287 . S
C928 C927 1.287 . S
C928 C929 1.524 . S
C928 H947 0.913 . S
C929 H905 0.950 . S
C929 C928 1.524 . S
C929 C930 1.415 . S
C930 H906 0.950 . S
C930 C925 1.363 . S
C930 C929 1.415 . S
C931 H907 0.954 1_545 S
C931 C932 1.361 . S
C931 C933 1.389 1_545 S
C932 C931 1.361 . S
C932 C936 1.385 . S
C933 H908 0.951 . S
C933 C931 1.389 1_565 S
C933 C934 1.366 1_565 S
C934 C933 1.366 1_545 S
C934 C935 1.414 . S
C934 C937 1.499 . S
C935 H909 0.950 . S
C935 C934 1.414 . S
C935 C936 1.374 . S
C936 H910 0.950 . S
C936 C932 1.385 . S
C936 C935 1.374 . S
C937 C934 1.499 . S
C937 C938 1.373 . S
C937 C939 1.389 1_545 S
C938 H911 0.950 . S
C938 C924 1.377 . S
C938 C937 1.373 . S
C939 C923 1.377 . S
C939 C937 1.389 1_565 S
C939 C940 1.524 . S
C940 C939 1.524 . S
C940 C941 1.397 1_554 S
C940 C945 1.363 . S
C941 H912 0.950 1_565 S
C941 C940 1.397 1_556 S
C941 C942 1.334 . S
C942 H913 0.950 . S
C942 C941 1.334 . S
C942 C943 1.287 . S
C943 C942 1.287 . S
C943 C944 1.524 . S
C943 H946 0.999 . S
C944 H914 0.950 . S
C944 C943 1.524 . S
C944 C945 1.415 1_556 S
C945 H915 0.950 . S
C945 C940 1.363 . S
C945 C944 1.415 1_554 S
H946 C943 0.999 . S
H947 C928 0.913 . S
H948 C966 0.951 . S
H949 C968 0.951 . S
H950 C970 0.950 . S
H951 C971 0.950 . S
H952 C973 0.950 . S
H953 C976 0.950 1_556 S
H954 C977 0.950 . S
H955 C979 0.950 . S
H956 C980 0.950 1_556 S
H957 C981 0.951 . S
H958 C983 0.951 . S
H959 C985 0.950 . S
H960 C986 0.950 . S
H961 C988 0.950 . S
H962 C991 0.950 . S
H963 C992 0.950 . S
H964 C994 0.950 . S
H965 C995 0.950 . S
C966 H948 0.951 . S
C966 C967 1.366 . S
C966 C968 1.388 . S
C967 C966 1.366 . S
C967 C971 1.385 . S
C968 H949 0.951 . S
C968 C966 1.388 . S
C968 C969 1.366 . S
C969 C968 1.366 . S
C969 C970 1.414 . S
C969 C972 1.499 . S
C970 H950 0.950 . S
C970 C969 1.414 . S
C970 C971 1.374 . S
C971 H951 0.950 . S
C971 C967 1.385 . S
C971 C970 1.374 . S
C972 C969 1.499 . S
C972 C973 1.373 . S
C972 C974 1.389 . S
C973 H952 0.950 . S
C973 C972 1.373 . S
C973 C989 1.377 . S
C974 C972 1.389 . S
C974 C975 1.524 . S
C974 C988 1.377 . S
C975 C974 1.524 . S
C975 C976 1.397 1_556 S
C975 C980 1.363 1_556 S
C976 H953 0.950 1_554 S
C976 C975 1.397 1_554 S
C976 C977 1.334 . S
C977 H954 0.950 . S
C977 C976 1.334 . S
C977 C978 1.287 . S
C978 C977 1.287 . S
C978 C979 1.524 . S
C978 H997 0.913 . S
C979 H955 0.950 . S
C979 C978 1.524 . S
C979 C980 1.415 . S
C980 H956 0.950 1_554 S
C980 C975 1.363 1_554 S
C980 C979 1.415 . S
C981 H957 0.951 . S
C981 C982 1.366 . S
C981 C983 1.388 . S
C982 C981 1.366 . S
C982 C986 1.385 . S
C983 H958 0.951 . S
C983 C981 1.388 . S
C983 C984 1.366 . S
C984 C983 1.366 . S
C984 C985 1.414 . S
C984 C987 1.499 . S
C985 H959 0.950 . S
C985 C984 1.414 . S
C985 C986 1.374 . S
C986 H960 0.950 . S
C986 C982 1.385 . S
C986 C985 1.374 . S
C987 C984 1.499 . S
C987 C988 1.373 . S
C987 C989 1.389 . S
C988 H961 0.950 . S
C988 C974 1.377 . S
C988 C987 1.373 . S
C989 C973 1.377 . S
C989 C987 1.389 . S
C989 C990 1.524 . S
C990 C989 1.524 . S
C990 C991 1.397 . S
C990 C995 1.363 . S
C991 H962 0.950 . S
C991 C990 1.397 . S
C991 C992 1.334 . S
C992 H963 0.950 . S
C992 C991 1.334 . S
C992 C993 1.287 . S
C993 C992 1.287 . S
C993 C994 1.524 . S
C993 H996 0.999 . S
C994 H964 0.950 . S
C994 C993 1.524 . S
C994 C995 1.415 . S
C995 H965 0.950 . S
C995 C990 1.363 . S
C995 C994 1.415 . S
H996 C993 0.999 . S
H997 C978 0.913 . S
H998 C1016 0.951 . S
H999 C1018 0.951 . S
H1000 C1020 0.950 . S
H1001 C1021 0.950 . S
H1002 C1023 0.950 . S
H1003 C1026 0.950 . S
H1004 C1027 0.950 . S
H1005 C1029 0.950 . S
H1006 C1030 0.950 . S
H1007 C1031 0.951 . S
H1008 C1033 0.951 . S
H1009 C1035 0.950 . S
H1010 C1036 0.950 . S
H1011 C1038 0.950 . S
H1012 C1041 0.950 . S
H1013 C1042 0.950 . S
H1014 C1044 0.950 . S
H1015 C1045 0.950 1_554 S
C1016 H998 0.951 . S
C1016 C1017 1.366 . S
C1016 C1018 1.388 . S
C1017 C1016 1.366 . S
C1017 C1021 1.385 . S
C1018 H999 0.951 . S
C1018 C1016 1.388 . S
C1018 C1019 1.366 . S
C1019 C1018 1.366 . S
C1019 C1020 1.414 . S
C1019 C1022 1.499 . S
C1020 H1000 0.950 . S
C1020 C1019 1.414 . S
C1020 C1021 1.374 . S
C1021 H1001 0.950 . S
C1021 C1017 1.385 . S
C1021 C1020 1.374 . S
C1022 C1019 1.499 . S
C1022 C1023 1.373 . S
C1022 C1024 1.389 . S
C1023 H1002 0.950 . S
C1023 C1022 1.373 . S
C1023 C1039 1.377 . S
C1024 C1022 1.389 . S
C1024 C1025 1.524 . S
C1024 C1038 1.377 . S
C1025 C1024 1.524 . S
C1025 C1026 1.397 . S
C1025 C1030 1.363 . S
C1026 H1003 0.950 . S
C1026 C1025 1.397 . S
C1026 C1027 1.334 . S
C1027 H1004 0.950 . S
C1027 C1026 1.334 . S
C1027 C1028 1.287 . S
C1028 C1027 1.287 . S
C1028 C1029 1.524 . S
C1028 H1047 0.913 . S
C1029 H1005 0.950 . S
C1029 C1028 1.524 . S
C1029 C1030 1.415 . S
C1030 H1006 0.950 . S
C1030 C1025 1.363 . S
C1030 C1029 1.415 . S
C1031 H1007 0.951 . S
C1031 C1032 1.366 . S
C1031 C1033 1.388 1_556 S
C1032 C1031 1.366 . S
C1032 C1036 1.385 1_556 S
C1033 H1008 0.951 . S
C1033 C1031 1.388 1_554 S
C1033 C1034 1.366 . S
C1034 C1033 1.366 . S
C1034 C1035 1.414 . S
C1034 C1037 1.499 . S
C1035 H1009 0.950 . S
C1035 C1034 1.414 . S
C1035 C1036 1.374 . S
C1036 H1010 0.950 . S
C1036 C1032 1.385 1_554 S
C1036 C1035 1.374 . S
C1037 C1034 1.499 . S
C1037 C1038 1.373 . S
C1037 C1039 1.389 . S
C1038 H1011 0.950 . S
C1038 C1024 1.377 . S
C1038 C1037 1.373 . S
C1039 C1023 1.377 . S
C1039 C1037 1.389 . S
C1039 C1040 1.524 . S
C1040 C1039 1.524 . S
C1040 C1041 1.397 1_554 S
C1040 C1045 1.363 1_554 S
C1041 H1012 0.950 . S
C1041 C1040 1.397 1_556 S
C1041 C1042 1.334 . S
C1042 H1013 0.950 . S
C1042 C1041 1.334 . S
C1042 C1043 1.287 . S
C1043 C1042 1.287 . S
C1043 C1044 1.524 . S
C1043 H1046 0.999 . S
C1044 H1014 0.950 . S
C1044 C1043 1.524 . S
C1044 C1045 1.415 . S
C1045 H1015 0.950 1_556 S
C1045 C1040 1.363 1_556 S
C1045 C1044 1.415 . S
H1046 C1043 0.999 . S
H1047 C1028 0.913 . S
H1048 C1066 0.951 1_556 S
H1049 C1068 0.951 . S
H1050 C1070 0.950 . S
H1051 C1071 0.950 . S
H1052 C1073 0.950 . S
H1053 C1076 0.950 1_455 S
H1054 C1077 0.950 . S
H1055 C1079 0.950 . S
H1056 C1080 0.950 . S
H1057 C1081 0.951 . S
H1058 C1083 0.951 . S
H1059 C1085 0.950 . S
H1060 C1086 0.950 . S
H1061 C1088 0.950 . S
H1062 C1091 0.950 . S
H1063 C1092 0.950 . S
H1064 C1094 0.950 1_554 S
H1065 C1095 0.950 1_554 S
C1066 H1048 0.951 1_554 S
C1066 C1067 1.366 . S
C1066 C1068 1.388 1_554 S
C1067 C1066 1.366 . S
C1067 C1071 1.385 . S
C1068 H1049 0.951 . S
C1068 C1066 1.388 1_556 S
C1068 C1069 1.366 1_556 S
C1069 C1068 1.366 1_554 S
C1069 C1070 1.414 . S
C1069 C1072 1.499 1_554 S
C1070 H1050 0.950 . S
C1070 C1069 1.414 . S
C1070 C1071 1.374 . S
C1071 H1051 0.950 . S
C1071 C1067 1.385 . S
C1071 C1070 1.374 . S
C1072 C1069 1.499 1_556 S
C1072 C1073 1.373 . S
C1072 C1074 1.389 . S
C1073 H1052 0.950 . S
C1073 C1072 1.373 . S
C1073 C1089 1.377 . S
C1074 C1072 1.389 . S
C1074 C1075 1.556 . S
C1074 C1088 1.377 . S
C1075 C1074 1.556 . S
C1075 C1076 1.391 1_456 S
C1075 C1080 1.338 1_455 S
C1076 H1053 0.950 1_655 S
C1076 C1075 1.391 1_654 S
C1076 C1077 1.334 . S
C1077 H1054 0.950 . S
C1077 C1076 1.334 . S
C1077 C1078 1.287 . S
C1078 C1077 1.287 . S
C1078 C1079 1.524 1_554 S
C1078 H1097 0.913 . S
C1079 H1055 0.950 . S
C1079 C1078 1.524 1_556 S
C1079 C1080 1.415 . S
C1080 H1056 0.950 . S
C1080 C1075 1.338 1_655 S
C1080 C1079 1.415 . S
C1081 H1057 0.951 . S
C1081 C1082 1.366 . S
C1081 C1083 1.388 . S
C1082 C1081 1.366 . S
C1082 C1086 1.385 . S
C1083 H1058 0.951 . S
C1083 C1081 1.388 . S
C1083 C1084 1.366 . S
C1084 C1083 1.366 . S
C1084 C1085 1.414 . S
C1084 C1087 1.499 . S
C1085 H1059 0.950 . S
C1085 C1084 1.414 . S
C1085 C1086 1.374 . S
C1086 H1060 0.950 . S
C1086 C1082 1.385 . S
C1086 C1085 1.374 . S
C1087 C1084 1.499 . S
C1087 C1088 1.373 . S
C1087 C1089 1.389 . S
C1088 H1061 0.950 . S
C1088 C1074 1.377 . S
C1088 C1087 1.373 . S
C1089 C1073 1.377 . S
C1089 C1087 1.389 . S
C1089 C1090 1.524 . S
C1090 C1089 1.524 . S
C1090 C1091 1.397 . S
C1090 C1095 1.363 . S
C1091 H1062 0.950 . S
C1091 C1090 1.397 . S
C1091 C1092 1.334 . S
C1092 H1063 0.950 . S
C1092 C1091 1.334 . S
C1092 C1093 1.287 . S
C1093 C1092 1.287 . S
C1093 C1094 1.524 . S
C1093 H1096 0.999 . S
C1094 H1064 0.950 1_556 S
C1094 C1093 1.524 . S
C1094 C1095 1.415 . S
C1095 H1065 0.950 1_556 S
C1095 C1090 1.363 . S
C1095 C1094 1.415 . S
H1096 C1093 0.999 . S
H1097 C1078 0.913 . S
H1098 C1116 0.951 . S
H1099 C1118 0.951 . S
H1100 C1120 0.950 . S
H1101 C1121 0.950 . S
H1102 C1123 0.950 . S
H1103 C1126 0.950 . S
H1104 C1127 0.950 . S
H1105 C1129 0.950 . S
H1106 C1130 0.950 . S
H1107 C1131 0.951 . S
H1108 C1133 0.951 . S
H1109 C1135 0.950 . S
H1110 C1136 0.950 . S
H1111 C1138 0.950 1_554 S
H1112 C1141 0.950 . S
H1113 C1142 0.950 . S
H1114 C1144 0.950 . S
H1115 C1145 0.950 1_545 S
C1116 H1098 0.951 . S
C1116 C1117 1.349 1_565 S
C1116 C1118 1.388 . S
C1117 C1116 1.349 1_545 S
C1117 C1121 1.404 1_554 S
C1118 H1099 0.951 . S
C1118 C1116 1.388 . S
C1118 C1119 1.366 1_564 S
C1119 C1118 1.366 1_546 S
C1119 C1120 1.414 . S
C1119 C1122 1.499 . S
C1120 H1100 0.950 . S
C1120 C1119 1.414 . S
C1120 C1121 1.374 . S
C1121 H1101 0.950 . S
C1121 C1117 1.404 1_556 S
C1121 C1120 1.374 . S
C1122 C1119 1.499 . S
C1122 C1123 1.373 1_545 S
C1122 C1124 1.389 1_556 S
C1123 H1102 0.950 . S
C1123 C1122 1.373 1_565 S
C1123 C1139 1.377 . S
C1124 C1122 1.389 1_554 S
C1124 C1125 1.524 . S
C1124 C1138 1.377 1_554 S
C1125 C1124 1.524 . S
C1125 C1126 1.397 . S
C1125 C1130 1.363 . S
C1126 H1103 0.950 . S
C1126 C1125 1.397 . S
C1126 C1127 1.334 . S
C1127 H1104 0.950 . S
C1127 C1126 1.334 . S
C1127 C1128 1.287 . S
C1128 C1127 1.287 . S
C1128 C1129 1.524 . S
C1128 H1147 0.913 . S
C1129 H1105 0.950 . S
C1129 C1128 1.524 . S
C1129 C1130 1.415 . S
C1130 H1106 0.950 . S
C1130 C1125 1.363 . S
C1130 C1129 1.415 . S
C1131 H1107 0.951 . S
C1131 C1132 1.366 . S
C1131 C1133 1.388 . S
C1132 C1131 1.366 . S
C1132 C1136 1.385 1_545 S
C1133 H1108 0.951 . S
C1133 C1131 1.388 . S
C1133 C1134 1.366 . S
C1134 C1133 1.366 . S
C1134 C1135 1.414 1_545 S
C1134 C1137 1.499 . S
C1135 H1109 0.950 . S
C1135 C1134 1.414 1_565 S
C1135 C1136 1.374 . S
C1136 H1110 0.950 . S
C1136 C1132 1.385 1_565 S
C1136 C1135 1.374 . S
C1137 C1134 1.499 . S
C1137 C1138 1.373 . S
C1137 C1139 1.389 1_545 S
C1138 H1111 0.950 1_556 S
C1138 C1124 1.377 1_556 S
C1138 C1137 1.373 . S
C1139 C1123 1.377 . S
C1139 C1137 1.389 1_565 S
C1139 C1140 1.524 . S
C1140 C1139 1.524 . S
C1140 C1141 1.397 . S
C1140 C1145 1.363 . S
C1141 H1112 0.950 . S
C1141 C1140 1.397 . S
C1141 C1142 1.334 . S
C1142 H1113 0.950 . S
C1142 C1141 1.334 . S
C1142 C1143 1.287 . S
C1143 C1142 1.287 . S
C1143 C1144 1.524 . S
C1143 H1146 0.999 . S
C1144 H1114 0.950 . S
C1144 C1143 1.524 . S
C1144 C1145 1.415 . S
C1145 H1115 0.950 1_565 S
C1145 C1140 1.363 . S
C1145 C1144 1.415 . S
H1146 C1143 0.999 . S
H1147 C1128 0.913 . S
H1148 C1166 0.951 . S
H1149 C1168 0.951 . S
H1150 C1170 0.950 . S
H1151 C1171 0.950 . S
H1152 C1173 0.950 . S
H1153 C1176 0.950 . S
H1154 C1177 0.950 . S
H1155 C1179 0.950 . S
H1156 C1180 0.950 . S
H1157 C1181 0.951 . S
H1158 C1183 0.951 . S
H1159 C1185 0.950 . S
H1160 C1186 0.950 . S
H1161 C1188 0.950 . S
H1162 C1191 0.950 . S
H1163 C1192 0.950 . S
H1164 C1194 0.950 . S
H1165 C1195 0.950 . S
C1166 H1148 0.951 . S
C1166 C1167 1.366 . S
C1166 C1168 1.388 . S
C1167 C1166 1.366 . S
C1167 C1171 1.385 . S
C1168 H1149 0.951 . S
C1168 C1166 1.388 . S
C1168 C1169 1.366 . S
C1169 C1168 1.366 . S
C1169 C1170 1.414 . S
C1169 C1172 1.499 . S
C1170 H1150 0.950 . S
C1170 C1169 1.414 . S
C1170 C1171 1.374 . S
C1171 H1151 0.950 . S
C1171 C1167 1.385 . S
C1171 C1170 1.374 . S
C1172 C1169 1.499 . S
C1172 C1173 1.373 . S
C1172 C1174 1.389 . S
C1173 H1152 0.950 . S
C1173 C1172 1.373 . S
C1173 C1189 1.377 . S
C1174 C1172 1.389 . S
C1174 C1175 1.524 . S
C1174 C1188 1.377 . S
C1175 C1174 1.524 . S
C1175 C1176 1.397 . S
C1175 C1180 1.363 . S
C1176 H1153 0.950 . S
C1176 C1175 1.397 . S
C1176 C1177 1.334 . S
C1177 H1154 0.950 . S
C1177 C1176 1.334 . S
C1177 C1178 1.287 . S
C1178 C1177 1.287 . S
C1178 C1179 1.524 . S
C1178 H1197 0.913 . S
C1179 H1155 0.950 . S
C1179 C1178 1.524 . S
C1179 C1180 1.415 . S
C1180 H1156 0.950 . S
C1180 C1175 1.363 . S
C1180 C1179 1.415 . S
C1181 H1157 0.951 . S
C1181 C1182 1.366 . S
C1181 C1183 1.388 . S
C1182 C1181 1.366 . S
C1182 C1186 1.385 . S
C1183 H1158 0.951 . S
C1183 C1181 1.388 . S
C1183 C1184 1.366 . S
C1184 C1183 1.366 . S
C1184 C1185 1.414 . S
C1184 C1187 1.499 . S
C1185 H1159 0.950 . S
C1185 C1184 1.414 . S
C1185 C1186 1.374 . S
C1186 H1160 0.950 . S
C1186 C1182 1.385 . S
C1186 C1185 1.374 . S
C1187 C1184 1.499 . S
C1187 C1188 1.373 . S
C1187 C1189 1.389 . S
C1188 H1161 0.950 . S
C1188 C1174 1.377 . S
C1188 C1187 1.373 . S
C1189 C1173 1.377 . S
C1189 C1187 1.389 . S
C1189 C1190 1.524 . S
C1190 C1189 1.524 . S
C1190 C1191 1.397 . S
C1190 C1195 1.363 . S
C1191 H1162 0.950 . S
C1191 C1190 1.397 . S
C1191 C1192 1.334 . S
C1192 H1163 0.950 . S
C1192 C1191 1.334 . S
C1192 C1193 1.287 . S
C1193 C1192 1.287 . S
C1193 C1194 1.524 . S
C1193 H1196 0.999 . S
C1194 H1164 0.950 . S
C1194 C1193 1.524 . S
C1194 C1195 1.415 . S
C1195 H1165 0.950 . S
C1195 C1190 1.363 . S
C1195 C1194 1.415 . S
H1196 C1193 0.999 . S
H1197 C1178 0.913 . S
H1198 C1216 0.951 . S
H1199 C1218 0.951 . S
H1200 C1220 0.950 . S
H1201 C1221 0.950 . S
H1202 C1223 0.950 . S
H1203 C1226 0.950 . S
H1204 C1227 0.950 . S
H1205 C1229 0.950 . S
H1206 C1230 0.950 . S
H1207 C1231 0.951 . S
H1208 C1233 0.951 . S
H1209 C1235 0.950 . S
H1210 C1236 0.950 . S
H1211 C1238 0.950 . S
H1212 C1241 0.950 . S
H1213 C1242 0.950 . S
H1214 C1244 0.950 . S
H1215 C1245 0.950 . S
C1216 H1198 0.951 . S
C1216 C1217 1.366 . S
C1216 C1218 1.388 1_554 S
C1217 C1216 1.366 . S
C1217 C1221 1.385 . S
C1218 H1199 0.951 . S
C1218 C1216 1.388 1_556 S
C1218 C1219 1.366 . S
C1219 C1218 1.366 . S
C1219 C1220 1.414 . S
C1219 C1222 1.499 . S
C1220 H1200 0.950 . S
C1220 C1219 1.414 . S
C1220 C1221 1.374 1_556 S
C1221 H1201 0.950 . S
C1221 C1217 1.385 . S
C1221 C1220 1.374 1_554 S
C1222 C1219 1.499 . S
C1222 C1223 1.373 . S
C1222 C1224 1.389 . S
C1223 H1202 0.950 . S
C1223 C1222 1.373 . S
C1223 C1239 1.377 . S
C1224 C1222 1.389 . S
C1224 C1225 1.524 1_556 S
C1224 C1238 1.377 . S
C1225 C1224 1.524 1_554 S
C1225 C1226 1.397 . S
C1225 C1230 1.363 . S
C1226 H1203 0.950 . S
C1226 C1225 1.397 . S
C1226 C1227 1.334 . S
C1227 H1204 0.950 . S
C1227 C1226 1.334 . S
C1227 C1228 1.287 . S
C1228 C1227 1.287 . S
C1228 C1229 1.524 . S
C1228 H1247 0.913 . S
C1229 H1205 0.950 . S
C1229 C1228 1.524 . S
C1229 C1230 1.415 . S
C1230 H1206 0.950 . S
C1230 C1225 1.363 . S
C1230 C1229 1.415 . S
C1231 H1207 0.951 . S
C1231 C1232 1.366 . S
C1231 C1233 1.388 . S
C1232 C1231 1.366 . S
C1232 C1236 1.385 . S
C1233 H1208 0.951 . S
C1233 C1231 1.388 . S
C1233 C1234 1.366 . S
C1234 C1233 1.366 . S
C1234 C1235 1.414 . S
C1234 C1237 1.499 . S
C1235 H1209 0.950 . S
C1235 C1234 1.414 . S
C1235 C1236 1.374 . S
C1236 H1210 0.950 . S
C1236 C1232 1.385 . S
C1236 C1235 1.374 . S
C1237 C1234 1.499 . S
C1237 C1238 1.373 . S
C1237 C1239 1.389 . S
C1238 H1211 0.950 . S
C1238 C1224 1.377 . S
C1238 C1237 1.373 . S
C1239 C1223 1.377 . S
C1239 C1237 1.389 . S
C1239 C1240 1.524 . S
C1240 C1239 1.524 . S
C1240 C1241 1.397 . S
C1240 C1245 1.363 . S
C1241 H1212 0.950 . S
C1241 C1240 1.397 . S
C1241 C1242 1.334 . S
C1242 H1213 0.950 . S
C1242 C1241 1.334 . S
C1242 C1243 1.287 . S
C1243 C1242 1.287 . S
C1243 C1244 1.524 . S
C1243 H1246 0.999 . S
C1244 H1214 0.950 . S
C1244 C1243 1.524 . S
C1244 C1245 1.415 . S
C1245 H1215 0.950 . S
C1245 C1240 1.363 . S
C1245 C1244 1.415 . S
H1246 C1243 0.999 . S
H1247 C1228 0.913 . S
H1248 C1266 0.951 . S
H1249 C1268 0.951 . S
H1250 C1270 0.950 . S
H1251 C1271 0.950 . S
H1252 C1273 0.950 . S
H1253 C1276 0.950 . S
H1254 C1277 0.950 . S
H1255 C1279 0.950 . S
H1256 C1280 0.950 . S
H1257 C1281 0.951 . S
H1258 C1283 0.951 . S
H1259 C1285 0.950 . S
H1260 C1286 0.950 . S
H1261 C1288 0.913 1_455 S
H1262 C1291 0.950 . S
H1263 C1292 0.950 . S
H1264 C1294 0.950 . S
H1265 C1295 0.950 . S
C1266 H1248 0.951 . S
C1266 C1267 1.366 . S
C1266 C1268 1.388 . S
C1267 C1266 1.366 . S
C1267 C1271 1.385 . S
C1268 H1249 0.951 . S
C1268 C1266 1.388 . S
C1268 C1269 1.366 . S
C1269 C1268 1.366 . S
C1269 C1270 1.414 . S
C1269 C1272 1.499 . S
C1270 H1250 0.950 . S
C1270 C1269 1.414 . S
C1270 C1271 1.374 . S
C1271 H1251 0.950 . S
C1271 C1267 1.385 . S
C1271 C1270 1.374 . S
C1272 C1269 1.499 . S
C1272 C1273 1.373 . S
C1272 C1274 1.389 . S
C1273 H1252 0.950 . S
C1273 C1272 1.373 . S
C1273 C1289 1.377 . S
C1274 C1272 1.389 . S
C1274 C1275 1.524 1_655 S
C1274 C1288 1.379 . S
C1275 C1274 1.524 1_455 S
C1275 C1276 1.397 . S
C1275 C1280 1.363 . S
C1276 H1253 0.950 . S
C1276 C1275 1.397 . S
C1276 C1277 1.334 . S
C1277 H1254 0.950 . S
C1277 C1276 1.334 . S
C1277 C1278 1.287 . S
C1278 C1277 1.287 . S
C1278 C1279 1.524 . S
C1278 H1297 0.913 . S
C1279 H1255 0.950 . S
C1279 C1278 1.524 . S
C1279 C1280 1.415 . S
C1280 H1256 0.950 . S
C1280 C1275 1.363 . S
C1280 C1279 1.415 . S
C1281 H1257 0.951 . S
C1281 C1282 1.366 . S
C1281 C1283 1.388 . S
C1282 C1281 1.366 . S
C1282 C1286 1.385 . S
C1283 H1258 0.951 . S
C1283 C1281 1.388 . S
C1283 C1284 1.366 . S
C1284 C1283 1.366 . S
C1284 C1285 1.414 . S
C1284 C1287 1.499 . S
C1285 H1259 0.950 . S
C1285 C1284 1.414 . S
C1285 C1286 1.374 . S
C1286 H1260 0.950 . S
C1286 C1282 1.385 . S
C1286 C1285 1.374 . S
C1287 C1284 1.499 . S
C1287 C1288 1.410 . S
C1287 C1289 1.389 . S
C1288 H1261 0.913 1_655 S
C1288 C1274 1.379 . S
C1288 C1287 1.410 . S
C1289 C1273 1.377 . S
C1289 C1287 1.389 . S
C1289 C1290 1.524 . S
C1290 C1289 1.524 . S
C1290 C1291 1.397 . S
C1290 C1295 1.363 . S
C1291 H1262 0.950 . S
C1291 C1290 1.397 . S
C1291 C1292 1.334 . S
C1292 H1263 0.950 . S
C1292 C1291 1.334 . S
C1292 C1293 1.287 . S
C1293 C1292 1.287 . S
C1293 C1294 1.524 . S
C1293 H1296 0.999 . S
C1294 H1264 0.950 . S
C1294 C1293 1.524 . S
C1294 C1295 1.415 . S
C1295 H1265 0.950 . S
C1295 C1290 1.363 . S
C1295 C1294 1.415 . S
H1296 C1293 0.999 . S
H1297 C1278 0.913 . S
H1298 C1316 0.951 . S
H1299 C1318 0.951 . S
H1300 C1320 0.950 . S
H1301 C1321 0.950 . S
H1302 C1323 0.950 . S
H1303 C1326 0.950 . S
H1304 C1327 0.950 . S
H1305 C1329 0.950 . S
H1306 C1330 0.950 . S
H1307 C1331 0.951 . S
H1308 C1333 0.951 . S
H1309 C1335 0.950 . S
H1310 C1336 0.950 . S
H1311 C1338 0.950 . S
H1312 C1341 0.950 . S
H1313 C1342 0.950 . S
H1314 C1344 0.950 . S
H1315 C1345 0.950 . S
C1316 H1298 0.951 . S
C1316 C1317 1.363 1_545 S
C1316 C1318 1.388 . S
C1317 C1316 1.363 1_565 S
C1317 C1321 1.389 . S
C1318 H1299 0.951 . S
C1318 C1316 1.388 . S
C1318 C1319 1.366 1_545 S
C1319 C1318 1.366 1_565 S
C1319 C1320 1.414 . S
C1319 C1322 1.499 . S
C1320 H1300 0.950 . S
C1320 C1319 1.414 . S
C1320 C1321 1.374 . S
C1321 H1301 0.950 . S
C1321 C1317 1.389 . S
C1321 C1320 1.374 . S
C1322 C1319 1.499 . S
C1322 C1323 1.373 1_565 S
C1322 C1324 1.389 . S
C1323 H1302 0.950 . S
C1323 C1322 1.373 1_545 S
C1323 C1339 1.377 . S
C1324 C1322 1.389 . S
C1324 C1325 1.524 . S
C1324 C1338 1.377 . S
C1325 C1324 1.524 . S
C1325 C1326 1.397 . S
C1325 C1330 1.363 . S
C1326 H1303 0.950 . S
C1326 C1325 1.397 . S
C1326 C1327 1.334 . S
C1327 H1304 0.950 . S
C1327 C1326 1.334 . S
C1327 C1328 1.287 . S
C1328 C1327 1.287 . S
C1328 C1329 1.524 . S
C1328 H1347 0.913 . S
C1329 H1305 0.950 . S
C1329 C1328 1.524 . S
C1329 C1330 1.415 . S
C1330 H1306 0.950 . S
C1330 C1325 1.363 . S
C1330 C1329 1.415 . S
C1331 H1307 0.951 . S
C1331 C1332 1.366 . S
C1331 C1333 1.388 . S
C1332 C1331 1.366 . S
C1332 C1336 1.385 1_565 S
C1333 H1308 0.951 . S
C1333 C1331 1.388 . S
C1333 C1334 1.366 . S
C1334 C1333 1.366 . S
C1334 C1335 1.414 1_565 S
C1334 C1337 1.499 . S
C1335 H1309 0.950 . S
C1335 C1334 1.414 1_545 S
C1335 C1336 1.374 . S
C1336 H1310 0.950 . S
C1336 C1332 1.385 1_545 S
C1336 C1335 1.374 . S
C1337 C1334 1.499 . S
C1337 C1338 1.373 . S
C1337 C1339 1.389 1_565 S
C1338 H1311 0.950 . S
C1338 C1324 1.377 . S
C1338 C1337 1.373 . S
C1339 C1323 1.377 . S
C1339 C1337 1.389 1_545 S
C1339 C1340 1.524 . S
C1340 C1339 1.524 . S
C1340 C1341 1.397 . S
C1340 C1345 1.363 . S
C1341 H1312 0.950 . S
C1341 C1340 1.397 . S
C1341 C1342 1.334 . S
C1342 H1313 0.950 . S
C1342 C1341 1.334 . S
C1342 C1343 1.287 . S
C1343 C1342 1.287 . S
C1343 C1344 1.524 . S
C1343 H1346 0.999 . S
C1344 H1314 0.950 . S
C1344 C1343 1.524 . S
C1344 C1345 1.415 . S
C1345 H1315 0.950 . S
C1345 C1340 1.363 . S
C1345 C1344 1.415 . S
H1346 C1343 0.999 . S
H1347 C1328 0.913 . S
H1348 C1366 0.951 . S
H1349 C1368 0.951 . S
H1350 C1370 0.950 . S
H1351 C1371 0.950 . S
H1352 C1373 0.950 . S
H1353 C1376 0.950 . S
H1354 C1377 0.950 . S
H1355 C1379 0.950 . S
H1356 C1380 0.950 . S
H1357 C1381 0.951 . S
H1358 C1383 0.951 . S
H1359 C1385 0.950 . S
H1360 C1386 0.950 . S
H1361 C1388 0.950 . S
H1362 C1391 0.950 . S
H1363 C1392 0.950 . S
H1364 C1394 0.950 . S
H1365 C1395 0.950 . S
C1366 H1348 0.951 . S
C1366 C1367 1.366 . S
C1366 C1368 1.388 . S
C1367 C1366 1.366 . S
C1367 C1371 1.385 . S
C1368 H1349 0.951 . S
C1368 C1366 1.388 . S
C1368 C1369 1.366 . S
C1369 C1368 1.366 . S
C1369 C1370 1.414 . S
C1369 C1372 1.499 . S
C1370 H1350 0.950 . S
C1370 C1369 1.414 . S
C1370 C1371 1.374 . S
C1371 H1351 0.950 . S
C1371 C1367 1.385 . S
C1371 C1370 1.374 . S
C1372 C1369 1.499 . S
C1372 C1373 1.373 . S
C1372 C1374 1.389 . S
C1373 H1352 0.950 . S
C1373 C1372 1.373 . S
C1373 C1389 1.377 . S
C1374 C1372 1.389 . S
C1374 C1375 1.524 . S
C1374 C1388 1.377 . S
C1375 C1374 1.524 . S
C1375 C1376 1.397 . S
C1375 C1380 1.363 . S
C1376 H1353 0.950 . S
C1376 C1375 1.397 . S
C1376 C1377 1.334 . S
C1377 H1354 0.950 . S
C1377 C1376 1.334 . S
C1377 C1378 1.287 . S
C1378 C1377 1.287 . S
C1378 C1379 1.524 . S
C1378 H1397 0.913 . S
C1379 H1355 0.950 . S
C1379 C1378 1.524 . S
C1379 C1380 1.415 . S
C1380 H1356 0.950 . S
C1380 C1375 1.363 . S
C1380 C1379 1.415 . S
C1381 H1357 0.951 . S
C1381 C1382 1.366 . S
C1381 C1383 1.388 . S
C1382 C1381 1.366 . S
C1382 C1386 1.385 . S
C1383 H1358 0.951 . S
C1383 C1381 1.388 . S
C1383 C1384 1.366 . S
C1384 C1383 1.366 . S
C1384 C1385 1.414 . S
C1384 C1387 1.499 . S
C1385 H1359 0.950 . S
C1385 C1384 1.414 . S
C1385 C1386 1.374 . S
C1386 H1360 0.950 . S
C1386 C1382 1.385 . S
C1386 C1385 1.374 . S
C1387 C1384 1.499 . S
C1387 C1388 1.373 . S
C1387 C1389 1.389 . S
C1388 H1361 0.950 . S
C1388 C1374 1.377 . S
C1388 C1387 1.373 . S
C1389 C1373 1.377 . S
C1389 C1387 1.389 . S
C1389 C1390 1.524 . S
C1390 C1389 1.524 . S
C1390 C1391 1.397 . S
C1390 C1395 1.363 . S
C1391 H1362 0.950 . S
C1391 C1390 1.397 . S
C1391 C1392 1.334 . S
C1392 H1363 0.950 . S
C1392 C1391 1.334 . S
C1392 C1393 1.287 . S
C1393 C1392 1.287 . S
C1393 C1394 1.524 . S
C1393 H1396 0.999 . S
C1394 H1364 0.950 . S
C1394 C1393 1.524 . S
C1394 C1395 1.415 . S
C1395 H1365 0.950 . S
C1395 C1390 1.363 . S
C1395 C1394 1.415 . S
H1396 C1393 0.999 . S
H1397 C1378 0.913 . S
H1398 C1416 0.951 . S
H1399 C1418 0.951 . S
H1400 C1420 0.950 . S
H1401 C1421 0.950 . S
H1402 C1423 0.950 . S
H1403 C1426 0.950 . S
H1404 C1427 0.950 . S
H1405 C1429 0.950 . S
H1406 C1430 0.950 . S
H1407 C1431 0.951 . S
H1408 C1433 0.951 . S
H1409 C1435 0.950 . S
H1410 C1436 0.950 . S
H1411 C1438 0.950 . S
H1412 C1441 0.950 . S
H1413 C1442 0.950 . S
H1414 C1444 0.950 . S
H1415 C1445 0.950 . S
C1416 H1398 0.951 . S
C1416 C1417 1.366 . S
C1416 C1418 1.388 . S
C1417 C1416 1.366 . S
C1417 C1421 1.385 . S
C1418 H1399 0.951 . S
C1418 C1416 1.388 . S
C1418 C1419 1.366 . S
C1419 C1418 1.366 . S
C1419 C1420 1.414 . S
C1419 C1422 1.499 . S
C1420 H1400 0.950 . S
C1420 C1419 1.414 . S
C1420 C1421 1.374 . S
C1421 H1401 0.950 . S
C1421 C1417 1.385 . S
C1421 C1420 1.374 . S
C1422 C1419 1.499 . S
C1422 C1423 1.373 . S
C1422 C1424 1.389 . S
C1423 H1402 0.950 . S
C1423 C1422 1.373 . S
C1423 C1439 1.377 . S
C1424 C1422 1.389 . S
C1424 C1425 1.524 . S
C1424 C1438 1.377 . S
C1425 C1424 1.524 . S
C1425 C1426 1.397 . S
C1425 C1430 1.363 . S
C1426 H1403 0.950 . S
C1426 C1425 1.397 . S
C1426 C1427 1.334 . S
C1427 H1404 0.950 . S
C1427 C1426 1.334 . S
C1427 C1428 1.287 . S
C1428 C1427 1.287 . S
C1428 C1429 1.524 . S
C1428 H1447 0.913 . S
C1429 H1405 0.950 . S
C1429 C1428 1.524 . S
C1429 C1430 1.415 . S
C1430 H1406 0.950 . S
C1430 C1425 1.363 . S
C1430 C1429 1.415 . S
C1431 H1407 0.951 . S
C1431 C1432 1.366 . S
C1431 C1433 1.388 . S
C1432 C1431 1.366 . S
C1432 C1436 1.385 . S
C1433 H1408 0.951 . S
C1433 C1431 1.388 . S
C1433 C1434 1.366 . S
C1434 C1433 1.366 . S
C1434 C1435 1.414 . S
C1434 C1437 1.499 . S
C1435 H1409 0.950 . S
C1435 C1434 1.414 . S
C1435 C1436 1.374 . S
C1436 H1410 0.950 . S
C1436 C1432 1.385 . S
C1436 C1435 1.374 . S
C1437 C1434 1.499 . S
C1437 C1438 1.373 . S
C1437 C1439 1.389 . S
C1438 H1411 0.950 . S
C1438 C1424 1.377 . S
C1438 C1437 1.373 . S
C1439 C1423 1.377 . S
C1439 C1437 1.389 . S
C1439 C1440 1.524 . S
C1440 C1439 1.524 . S
C1440 C1441 1.397 . S
C1440 C1445 1.363 . S
C1441 H1412 0.950 . S
C1441 C1440 1.397 . S
C1441 C1442 1.334 . S
C1442 H1413 0.950 . S
C1442 C1441 1.334 . S
C1442 C1443 1.287 . S
C1443 C1442 1.287 . S
C1443 C1444 1.524 . S
C1443 H1446 0.999 . S
C1444 H1414 0.950 . S
C1444 C1443 1.524 . S
C1444 C1445 1.415 . S
C1445 H1415 0.950 . S
C1445 C1440 1.363 . S
C1445 C1444 1.415 . S
H1446 C1443 0.999 . S
H1447 C1428 0.913 . S
C267 C74 1.688 . S
C282 C111 1.740 1_545 S
C332 C151 1.634 . S
C317 C85 1.645 . S
C382 C170 1.773 . S
C367 C52 1.718 . S
C432 C231 1.312 . S
C417 C63 1.288 . S
C482 C90 1.742 1_565 S
C467 C30 1.688 . S
C517 C41 1.620 . S
C532 C130 1.642 . S
C567 C8 1.715 . S
C582 C191 1.774 . S
C617 C19 1.266 . S
C632 C210 1.312 . S
C682 C92 0.715 . S
C667 C62 0.706 . S
C732 C132 0.290 . S
C717 C73 0.334 . S
C782 C188 0.693 . S
C767 C84 0.690 . S
C817 C51 0.329 . S
C832 C212 0.338 . S
C867 C18 0.719 . S
C882 C113 0.721 . S
C932 C153 0.297 . S
C917 C29 0.334 1_565 S
C982 C199 0.694 . S
C967 C40 0.703 . S
C1017 C7 0.406 . S
C1032 C233 0.338 . S
C1067 C60 1.279 . S
C1082 C108 1.558 . S
C1117 C71 1.740 . S
C1132 C148 2.169 . S
C1182 C172 1.438 . S
C1167 C82 1.211 . S
C1232 C228 2.170 . S
C1217 C49 1.727 . S
C1267 C16 1.189 . S
C1282 C119 1.583 . S
C1332 C159 2.170 . S
C1317 C27 1.740 1_565 S
C1382 C193 1.440 . S
C1367 C38 1.209 . S
C1417 C5 1.761 . S
C1432 C239 2.168 . S
