# Generated by pormake.
# Topology iac, (4,6)-cn, num edge types: 1
# Building blocks:
#     Node 0, Type 0, BuildingBlock: NAHDIM_clean_sbu_0, # of connection points: 4
#     Node 1, Type 0, BuildingBlock: NAHDIM_clean_sbu_0, # of connection points: 4
#     Node 2, Type 0, BuildingBlock: NAHDIM_clean_sbu_0, # of connection points: 4
#     Node 3, Type 0, BuildingBlock: NAHDIM_clean_sbu_0, # of connection points: 4
#     Node 4, Type 0, BuildingBlock: NAHDIM_clean_sbu_0, # of connection points: 4
#     Node 5, Type 0, BuildingBlock: NAHDIM_clean_sbu_0, # of connection points: 4
#     Node 6, Type 0, BuildingBlock: NAHDIM_clean_sbu_0, # of connection points: 4
#     Node 7, Type 0, BuildingBlock: NAHDIM_clean_sbu_0, # of connection points: 4
#     Node 8, Type 0, BuildingBlock: NAHDIM_clean_sbu_0, # of connection points: 4
#     Node 9, Type 0, BuildingBlock: NAHDIM_clean_sbu_0, # of connection points: 4
#     Node 10, Type 0, BuildingBlock: NAHDIM_clean_sbu_0, # of connection points: 4
#     Node 11, Type 0, BuildingBlock: NAHDIM_clean_sbu_0, # of connection points: 4
#     Node 12, Type 0, BuildingBlock: NAHDIM_clean_sbu_0, # of connection points: 4
#     Node 13, Type 0, BuildingBlock: NAHDIM_clean_sbu_0, # of connection points: 4
#     Node 14, Type 0, BuildingBlock: NAHDIM_clean_sbu_0, # of connection points: 4
#     Node 15, Type 0, BuildingBlock: NAHDIM_clean_sbu_0, # of connection points: 4
#     Node 16, Type 0, BuildingBlock: NAHDIM_clean_sbu_0, # of connection points: 4
#     Node 17, Type 0, BuildingBlock: NAHDIM_clean_sbu_0, # of connection points: 4
#     Node 18, Type 0, BuildingBlock: NAHDIM_clean_sbu_0, # of connection points: 4
#     Node 19, Type 0, BuildingBlock: NAHDIM_clean_sbu_0, # of connection points: 4
#     Node 20, Type 0, BuildingBlock: NAHDIM_clean_sbu_0, # of connection points: 4
#     Node 21, Type 0, BuildingBlock: NAHDIM_clean_sbu_0, # of connection points: 4
#     Node 22, Type 0, BuildingBlock: NAHDIM_clean_sbu_0, # of connection points: 4
#     Node 23, Type 0, BuildingBlock: NAHDIM_clean_sbu_0, # of connection points: 4
#     Node 24, Type 1, BuildingBlock: CIFDUS_clean_sbu_1, # of connection points: 6
#     Node 25, Type 1, BuildingBlock: CIFDUS_clean_sbu_1, # of connection points: 6
#     Node 26, Type 1, BuildingBlock: CIFDUS_clean_sbu_1, # of connection points: 6
#     Node 27, Type 1, BuildingBlock: CIFDUS_clean_sbu_1, # of connection points: 6
#     Node 28, Type 1, BuildingBlock: CIFDUS_clean_sbu_1, # of connection points: 6
#     Node 29, Type 1, BuildingBlock: CIFDUS_clean_sbu_1, # of connection points: 6
#     Node 30, Type 1, BuildingBlock: CIFDUS_clean_sbu_1, # of connection points: 6
#     Node 31, Type 1, BuildingBlock: CIFDUS_clean_sbu_1, # of connection points: 6
#     Node 32, Type 1, BuildingBlock: CIFDUS_clean_sbu_1, # of connection points: 6
#     Node 33, Type 1, BuildingBlock: CIFDUS_clean_sbu_1, # of connection points: 6
#     Node 34, Type 1, BuildingBlock: CIFDUS_clean_sbu_1, # of connection points: 6
#     Node 35, Type 1, BuildingBlock: CIFDUS_clean_sbu_1, # of connection points: 6
#     Node 36, Type 1, BuildingBlock: CIFDUS_clean_sbu_1, # of connection points: 6
#     Node 37, Type 1, BuildingBlock: CIFDUS_clean_sbu_1, # of connection points: 6
#     Node 38, Type 1, BuildingBlock: CIFDUS_clean_sbu_1, # of connection points: 6
#     Node 39, Type 1, BuildingBlock: CIFDUS_clean_sbu_1, # of connection points: 6
#     Edge 40, Type (0, 1), BuildingBlock: XIVTED_clean_linker_0, # of connection points: 2
#     Edge 41, Type (0, 1), BuildingBlock: XIVTED_clean_linker_0, # of connection points: 2
#     Edge 42, Type (0, 1), BuildingBlock: XIVTED_clean_linker_0, # of connection points: 2
#     Edge 43, Type (0, 1), BuildingBlock: XIVTED_clean_linker_0, # of connection points: 2
#     Edge 44, Type (0, 1), BuildingBlock: XIVTED_clean_linker_0, # of connection points: 2
#     Edge 45, Type (0, 1), BuildingBlock: XIVTED_clean_linker_0, # of connection points: 2
#     Edge 46, Type (0, 1), BuildingBlock: XIVTED_clean_linker_0, # of connection points: 2
#     Edge 47, Type (0, 1), BuildingBlock: XIVTED_clean_linker_0, # of connection points: 2
#     Edge 48, Type (0, 1), BuildingBlock: XIVTED_clean_linker_0, # of connection points: 2
#     Edge 49, Type (0, 1), BuildingBlock: XIVTED_clean_linker_0, # of connection points: 2
#     Edge 50, Type (0, 1), BuildingBlock: XIVTED_clean_linker_0, # of connection points: 2
#     Edge 51, Type (0, 1), BuildingBlock: XIVTED_clean_linker_0, # of connection points: 2
#     Edge 52, Type (0, 1), BuildingBlock: XIVTED_clean_linker_0, # of connection points: 2
#     Edge 53, Type (0, 1), BuildingBlock: XIVTED_clean_linker_0, # of connection points: 2
#     Edge 54, Type (0, 1), BuildingBlock: XIVTED_clean_linker_0, # of connection points: 2
#     Edge 55, Type (0, 1), BuildingBlock: XIVTED_clean_linker_0, # of connection points: 2
#     Edge 56, Type (0, 1), BuildingBlock: XIVTED_clean_linker_0, # of connection points: 2
#     Edge 57, Type (0, 1), BuildingBlock: XIVTED_clean_linker_0, # of connection points: 2
#     Edge 58, Type (0, 1), BuildingBlock: XIVTED_clean_linker_0, # of connection points: 2
#     Edge 59, Type (0, 1), BuildingBlock: XIVTED_clean_linker_0, # of connection points: 2
#     Edge 60, Type (0, 1), BuildingBlock: XIVTED_clean_linker_0, # of connection points: 2
#     Edge 61, Type (0, 1), BuildingBlock: XIVTED_clean_linker_0, # of connection points: 2
#     Edge 62, Type (0, 1), BuildingBlock: XIVTED_clean_linker_0, # of connection points: 2
#     Edge 63, Type (0, 1), BuildingBlock: XIVTED_clean_linker_0, # of connection points: 2
#     Edge 64, Type (0, 1), BuildingBlock: XIVTED_clean_linker_0, # of connection points: 2
#     Edge 65, Type (0, 1), BuildingBlock: XIVTED_clean_linker_0, # of connection points: 2
#     Edge 66, Type (0, 1), BuildingBlock: XIVTED_clean_linker_0, # of connection points: 2
#     Edge 67, Type (0, 1), BuildingBlock: XIVTED_clean_linker_0, # of connection points: 2
#     Edge 68, Type (0, 1), BuildingBlock: XIVTED_clean_linker_0, # of connection points: 2
#     Edge 69, Type (0, 1), BuildingBlock: XIVTED_clean_linker_0, # of connection points: 2
#     Edge 70, Type (0, 1), BuildingBlock: XIVTED_clean_linker_0, # of connection points: 2
#     Edge 71, Type (0, 1), BuildingBlock: XIVTED_clean_linker_0, # of connection points: 2
#     Edge 72, Type (0, 1), BuildingBlock: XIVTED_clean_linker_0, # of connection points: 2
#     Edge 73, Type (0, 1), BuildingBlock: XIVTED_clean_linker_0, # of connection points: 2
#     Edge 74, Type (0, 1), BuildingBlock: XIVTED_clean_linker_0, # of connection points: 2
#     Edge 75, Type (0, 1), BuildingBlock: XIVTED_clean_linker_0, # of connection points: 2
#     Edge 76, Type (0, 1), BuildingBlock: XIVTED_clean_linker_0, # of connection points: 2
#     Edge 77, Type (0, 1), BuildingBlock: XIVTED_clean_linker_0, # of connection points: 2
#     Edge 78, Type (0, 1), BuildingBlock: XIVTED_clean_linker_0, # of connection points: 2
#     Edge 79, Type (0, 1), BuildingBlock: XIVTED_clean_linker_0, # of connection points: 2
#     Edge 80, Type (0, 1), BuildingBlock: XIVTED_clean_linker_0, # of connection points: 2
#     Edge 81, Type (0, 1), BuildingBlock: XIVTED_clean_linker_0, # of connection points: 2
#     Edge 82, Type (0, 1), BuildingBlock: XIVTED_clean_linker_0, # of connection points: 2
#     Edge 83, Type (0, 1), BuildingBlock: XIVTED_clean_linker_0, # of connection points: 2
#     Edge 84, Type (0, 1), BuildingBlock: XIVTED_clean_linker_0, # of connection points: 2
#     Edge 85, Type (0, 1), BuildingBlock: XIVTED_clean_linker_0, # of connection points: 2
#     Edge 86, Type (0, 1), BuildingBlock: XIVTED_clean_linker_0, # of connection points: 2
#     Edge 87, Type (0, 1), BuildingBlock: XIVTED_clean_linker_0, # of connection points: 2
#     Edge 88, Type (0, 1), BuildingBlock: XIVTED_clean_linker_0, # of connection points: 2
#     Edge 89, Type (0, 1), BuildingBlock: XIVTED_clean_linker_0, # of connection points: 2
#     Edge 90, Type (0, 1), BuildingBlock: XIVTED_clean_linker_0, # of connection points: 2
#     Edge 91, Type (0, 1), BuildingBlock: XIVTED_clean_linker_0, # of connection points: 2
#     Edge 92, Type (0, 1), BuildingBlock: XIVTED_clean_linker_0, # of connection points: 2
#     Edge 93, Type (0, 1), BuildingBlock: XIVTED_clean_linker_0, # of connection points: 2
#     Edge 94, Type (0, 1), BuildingBlock: XIVTED_clean_linker_0, # of connection points: 2
#     Edge 95, Type (0, 1), BuildingBlock: XIVTED_clean_linker_0, # of connection points: 2
#     Edge 96, Type (0, 1), BuildingBlock: XIVTED_clean_linker_0, # of connection points: 2
#     Edge 97, Type (0, 1), BuildingBlock: XIVTED_clean_linker_0, # of connection points: 2
#     Edge 98, Type (0, 1), BuildingBlock: XIVTED_clean_linker_0, # of connection points: 2
#     Edge 99, Type (0, 1), BuildingBlock: XIVTED_clean_linker_0, # of connection points: 2
#     Edge 100, Type (0, 1), BuildingBlock: XIVTED_clean_linker_0, # of connection points: 2
#     Edge 101, Type (0, 1), BuildingBlock: XIVTED_clean_linker_0, # of connection points: 2
#     Edge 102, Type (0, 1), BuildingBlock: XIVTED_clean_linker_0, # of connection points: 2
#     Edge 103, Type (0, 1), BuildingBlock: XIVTED_clean_linker_0, # of connection points: 2
#     Edge 104, Type (0, 1), BuildingBlock: XIVTED_clean_linker_0, # of connection points: 2
#     Edge 105, Type (0, 1), BuildingBlock: XIVTED_clean_linker_0, # of connection points: 2
#     Edge 106, Type (0, 1), BuildingBlock: XIVTED_clean_linker_0, # of connection points: 2
#     Edge 107, Type (0, 1), BuildingBlock: XIVTED_clean_linker_0, # of connection points: 2
#     Edge 108, Type (0, 1), BuildingBlock: XIVTED_clean_linker_0, # of connection points: 2
#     Edge 109, Type (0, 1), BuildingBlock: XIVTED_clean_linker_0, # of connection points: 2
#     Edge 110, Type (0, 1), BuildingBlock: XIVTED_clean_linker_0, # of connection points: 2
#     Edge 111, Type (0, 1), BuildingBlock: XIVTED_clean_linker_0, # of connection points: 2
#     Edge 112, Type (0, 1), BuildingBlock: XIVTED_clean_linker_0, # of connection points: 2
#     Edge 113, Type (0, 1), BuildingBlock: XIVTED_clean_linker_0, # of connection points: 2
#     Edge 114, Type (0, 1), BuildingBlock: XIVTED_clean_linker_0, # of connection points: 2
#     Edge 115, Type (0, 1), BuildingBlock: XIVTED_clean_linker_0, # of connection points: 2
#     Edge 116, Type (0, 1), BuildingBlock: XIVTED_clean_linker_0, # of connection points: 2
#     Edge 117, Type (0, 1), BuildingBlock: XIVTED_clean_linker_0, # of connection points: 2
#     Edge 118, Type (0, 1), BuildingBlock: XIVTED_clean_linker_0, # of connection points: 2
#     Edge 119, Type (0, 1), BuildingBlock: XIVTED_clean_linker_0, # of connection points: 2
#     Edge 120, Type (0, 1), BuildingBlock: XIVTED_clean_linker_0, # of connection points: 2
#     Edge 121, Type (0, 1), BuildingBlock: XIVTED_clean_linker_0, # of connection points: 2
#     Edge 122, Type (0, 1), BuildingBlock: XIVTED_clean_linker_0, # of connection points: 2
#     Edge 123, Type (0, 1), BuildingBlock: XIVTED_clean_linker_0, # of connection points: 2
#     Edge 124, Type (0, 1), BuildingBlock: XIVTED_clean_linker_0, # of connection points: 2
#     Edge 125, Type (0, 1), BuildingBlock: XIVTED_clean_linker_0, # of connection points: 2
#     Edge 126, Type (0, 1), BuildingBlock: XIVTED_clean_linker_0, # of connection points: 2
#     Edge 127, Type (0, 1), BuildingBlock: XIVTED_clean_linker_0, # of connection points: 2
#     Edge 128, Type (0, 1), BuildingBlock: XIVTED_clean_linker_0, # of connection points: 2
#     Edge 129, Type (0, 1), BuildingBlock: XIVTED_clean_linker_0, # of connection points: 2
#     Edge 130, Type (0, 1), BuildingBlock: XIVTED_clean_linker_0, # of connection points: 2
#     Edge 131, Type (0, 1), BuildingBlock: XIVTED_clean_linker_0, # of connection points: 2
#     Edge 132, Type (0, 1), BuildingBlock: XIVTED_clean_linker_0, # of connection points: 2
#     Edge 133, Type (0, 1), BuildingBlock: XIVTED_clean_linker_0, # of connection points: 2
#     Edge 134, Type (0, 1), BuildingBlock: XIVTED_clean_linker_0, # of connection points: 2
#     Edge 135, Type (0, 1), BuildingBlock: XIVTED_clean_linker_0, # of connection points: 2
# Relax obj value: 0.111
# Max RMSD: 0.169
# Mean RMSD: 0.132
data_MOF--net-iac--node1-NAHDIM_clean_sbu_0--node2-CIFDUS_clean_sbu_1--edge1-XIVTED_clean_linker_0
_symmetry_space_group_name_H-M    P1
_symmetry_Int_Tables_number       1
_symmetry_cell_setting            triclinic
loop_
_symmetry_equiv_pos_as_xyz
'x, y, z'
_cell_length_a     55.776503
_cell_length_b     54.126375
_cell_length_c     53.116834
_cell_angle_alpha  89.987194
_cell_angle_beta   90.218975
_cell_angle_gamma 90.712339
loop_
_atom_site_label
_atom_site_type_symbol
_atom_site_fract_x
_atom_site_fract_y
_atom_site_fract_z
_atom_type_partial_charge
C0 C 0.94327 0.25901 0.1357 0.0
O1 O 0.94389 0.25865 0.11098 0.0
O2 O 0.99264 0.21601 0.11208 0.0
Zn3 Zn -0.00686 0.25016 0.12845 0.0
O4 O -0.00574 0.27801 0.1028 0.0
C5 C 0.03115 0.23482 0.16302 0.0
O6 O 0.02134 0.2128 0.16015 0.0
O7 O 0.96249 0.25509 0.148 0.0
C8 C -0.00581 0.29998 0.1114 0.0
O9 O -0.00536 0.30327 0.1359 0.0
C10 C 0.0104 0.20734 0.1001 0.0
O11 O 0.02966 0.22123 0.0971 0.0
O12 O 0.022 0.2532 0.15171 0.0
C13 C 0.02597 0.72888 0.32514 0.0
O14 O 0.00734 0.71647 0.31638 0.0
O15 O -0.0066 0.70737 0.39242 0.0
Zn16 Zn -0.00352 0.73788 0.37043 0.0
O17 O -0.00011 0.76781 0.39206 0.0
C18 C 0.94637 0.74187 0.36413 0.0
O19 O 0.94728 0.73704 0.38836 0.0
O20 O 0.02514 0.73816 0.34711 0.0
C21 C -0.00345 0.7888 0.3821 0.0
O22 O 0.99139 0.79012 0.35798 0.0
C23 C -0.00422 0.70871 0.41624 0.0
O24 O 0.00213 0.72985 0.42656 0.0
O25 O 0.96569 0.7423 0.3515 0.0
C26 C 0.45589 0.76555 0.67218 0.0
O27 O 0.47336 0.77438 0.68633 0.0
O28 O 0.49543 0.71932 0.61805 0.0
Zn29 Zn 0.49333 0.75289 0.63542 0.0
O30 O 0.49469 0.78202 0.61125 0.0
C31 C 0.52852 0.73741 0.67264 0.0
O32 O 0.5195 0.71534 0.66801 0.0
O33 O 0.46074 0.7552 0.65136 0.0
C34 C 0.49497 0.80356 0.62097 0.0
O35 O 0.49632 0.80566 0.64557 0.0
C36 C 0.51363 0.71123 0.60637 0.0
O37 O 0.53259 0.72563 0.60375 0.0
O38 O 0.51988 0.75605 0.66135 0.0
C39 C 0.53952 0.26778 0.8304 0.0
O40 O 0.5304 0.28967 0.83451 0.0
O41 O 0.4981 0.22242 0.88703 0.0
Zn42 Zn 0.50358 0.25314 0.86625 0.0
O43 O 0.50933 0.28261 0.88851 0.0
C44 C 0.45421 0.26298 0.85773 0.0
O45 O 0.4535 0.26112 0.88236 0.0
O46 O 0.53108 0.24916 0.84218 0.0
C47 C 0.50178 0.28365 0.91102 0.0
O48 O 0.49064 0.26445 0.92084 0.0
C49 C 0.51255 0.21643 0.90447 0.0
O50 O 0.53192 0.23001 0.90827 0.0
O51 O 0.47395 0.25985 0.8464 0.0
C52 C 0.14704 0.95974 0.25929 0.0
O53 O 0.14924 0.97253 0.28019 0.0
O54 O 0.09471 0.00532 0.21654 0.0
Zn55 Zn 0.11956 0.00217 0.24393 0.0
O56 O 0.10261 0.0013 0.27713 0.0
C57 C 0.13234 0.05291 0.23953 0.0
O58 O 0.10886 0.05433 0.24046 0.0
O59 O 0.13618 0.96924 0.24058 0.0
C60 C 0.11005 0.01083 0.29761 0.0
O61 O 0.1301 0.02382 0.29789 0.0
C62 C 0.07467 0.99392 0.21747 0.0
O63 O 0.07013 0.97917 0.23656 0.0
O64 O 0.14199 0.03177 0.24123 0.0
C65 C 0.20082 0.93107 0.47002 0.0
O66 O 0.20771 0.92128 0.44867 0.0
O67 O 0.23083 0.87923 0.52669 0.0
Zn68 Zn 0.23502 0.89744 0.49389 0.0
O69 O 0.23433 0.87364 0.46489 0.0
C70 C 0.28635 0.90413 0.49187 0.0
O71 O 0.28639 0.88008 0.48858 0.0
O72 O 0.20955 0.92328 0.49066 0.0
C73 C 0.24493 0.87878 0.44437 0.0
O74 O 0.25574 0.90034 0.44184 0.0
C75 C 0.23927 0.85786 0.53068 0.0
O76 O 0.25074 0.84656 0.51256 0.0
O77 O 0.26657 0.91513 0.49466 0.0
C78 C 0.33078 0.03792 0.76613 0.0
O79 O 0.33807 0.02875 0.7877 0.0
O80 O 0.38442 0.00116 0.71619 0.0
Zn81 Zn 0.36298 0.00147 0.74658 0.0
O82 O 0.38355 0.00425 0.77728 0.0
C83 C 0.35591 0.94916 0.74085 0.0
O84 O 0.37387 0.95131 0.72505 0.0
O85 O 0.33887 0.02901 0.74572 0.0
C86 C 0.40112 0.98964 0.77906 0.0
O87 O 0.40595 0.97479 0.76025 0.0
C88 C 0.40416 0.01314 0.71602 0.0
O89 O 0.40939 0.02803 0.73484 0.0
O90 O 0.34703 0.96843 0.75059 0.0
C91 C 0.28909 0.07919 0.9721 0.0
O92 O 0.27325 0.07314 0.95476 0.0
O93 O 0.25155 0.12866 0.02597 0.0
Zn94 Zn 0.2517 0.11065 0.9928 0.0
O95 O 0.25238 0.13478 0.96417 0.0
C96 C 0.20219 0.09943 0.98873 0.0
O97 O 0.20186 0.1237 0.9887 0.0
O98 O 0.28299 0.0929 0.99036 0.0
C99 C 0.24656 0.1278 0.94211 0.0
O100 O 0.23778 0.10542 0.93873 0.0
C101 C 0.26738 0.14526 0.03014 0.0
O102 O 0.28296 0.15065 0.0124 0.0
O103 O 0.22229 0.08864 0.99026 0.0
C104 C 0.70562 0.42129 0.97755 0.0
O105 O 0.70962 0.40955 0.95639 0.0
O106 O 0.73811 0.3681 0.02968 0.0
Zn107 Zn 0.7427 0.38935 -0.00111 0.0
O108 O 0.74178 0.36746 0.96856 0.0
C109 C 0.79374 0.39774 0.99246 0.0
O110 O 0.79358 0.37507 0.98366 0.0
O111 O 0.71705 0.41526 -0.00265 0.0
C112 C 0.75046 0.3741 0.94751 0.0
O113 O 0.75949 0.3965 0.94499 0.0
C114 C 0.75194 0.3502 0.03463 0.0
O115 O 0.7699 0.34557 0.01953 0.0
O116 O 0.77439 0.40705 0.0004 0.0
C117 C 0.83634 0.53524 0.24155 0.0
O118 O 0.82938 0.5191 0.25856 0.0
O119 O 0.90071 0.49657 0.21004 0.0
Zn120 Zn 0.87584 0.50183 0.23675 0.0
O121 O 0.89395 0.50711 0.26875 0.0
C122 C 0.86465 0.45215 0.25025 0.0
O123 O 0.88785 0.45165 0.25455 0.0
O124 O 0.85557 0.53151 0.2294 0.0
C125 C 0.88511 0.50158 0.29004 0.0
O126 O 0.86274 0.49385 0.29143 0.0
C127 C 0.90214 0.47753 0.19614 0.0
O128 O 0.88546 0.46025 0.19742 0.0
O129 O 0.85534 0.47169 0.24152 0.0
C130 C 0.80239 0.59791 0.48563 0.0
O131 O 0.80413 0.62117 0.47884 0.0
O132 O 0.75397 0.63082 0.52923 0.0
Zn133 Zn 0.75399 0.61191 0.49634 0.0
O134 O 0.75586 0.63365 0.46574 0.0
C135 C 0.70331 0.60276 0.49234 0.0
O136 O 0.70319 0.62703 0.49165 0.0
O137 O 0.78263 0.5896 0.49435 0.0
C138 C 0.76433 0.65549 0.46414 0.0
O139 O 0.77113 0.66727 0.48461 0.0
C140 C 0.77239 0.6411 0.53901 0.0
O141 O 0.793 0.64033 0.5272 0.0
O142 O 0.72328 0.59178 0.49426 0.0
C143 C 0.64859 0.45458 0.7669 0.0
O144 O 0.65049 0.46629 0.78847 0.0
O145 O 0.59552 0.50124 0.72657 0.0
Zn146 Zn 0.62079 0.49748 0.75342 0.0
O147 O 0.60492 0.49611 0.78727 0.0
C148 C 0.63331 0.54832 0.74985 0.0
O149 O 0.6099 0.54969 0.75204 0.0
O150 O 0.63764 0.46483 0.74867 0.0
C151 C 0.61392 0.50501 0.80738 0.0
O152 O 0.63438 0.51726 0.80646 0.0
C153 C 0.57588 0.4891 0.7264 0.0
O154 O 0.57163 0.47291 0.74432 0.0
O155 O 0.64302 0.52716 0.75051 0.0
C156 C 0.04764 0.73456 0.84967 0.0
O157 O 0.04744 0.72843 0.87356 0.0
O158 O -0.00432 0.71391 0.88089 0.0
Zn159 Zn -0.00128 0.74608 0.86105 0.0
O160 O 0.00082 0.7774 0.88235 0.0
C161 C 0.96614 0.73784 0.81834 0.0
O162 O 0.98182 0.72133 0.81127 0.0
O163 O 0.02871 0.74328 0.83978 0.0
C164 C 0.98199 0.78745 0.89095 0.0
O165 O 0.96122 0.7761 0.888 0.0
C166 C 0.00445 0.71047 0.90274 0.0
O167 O 0.01426 0.72927 0.91477 0.0
O168 O 0.96982 0.74996 0.8385 0.0
C169 C 0.96156 0.2343 0.66436 0.0
O170 O 0.97066 0.21214 0.6621 0.0
O171 O -0.00463 0.21394 0.61202 0.0
Zn172 Zn -0.00126 0.24665 0.629 0.0
O173 O 0.0006 0.27298 0.60208 0.0
C174 C 0.04689 0.23473 0.64366 0.0
O175 O 0.04704 0.22297 0.62203 0.0
O176 O 0.9705 0.25208 0.6517 0.0
C177 C 0.01987 0.28364 0.59496 0.0
O178 O 0.0402 0.27842 0.60619 0.0
C179 C 0.98152 0.21173 0.59314 0.0
O180 O 0.96916 0.2309 0.58563 0.0
O181 O 0.02832 0.24644 0.65018 0.0
C182 C 0.54096 0.23142 0.34077 0.0
O183 O 0.52641 0.21265 0.33625 0.0
O184 O 0.49694 0.22066 0.38973 0.0
Zn185 Zn 0.49992 0.25128 0.36764 0.0
O186 O 0.49704 0.28392 0.38672 0.0
C187 C 0.46341 0.26775 0.33144 0.0
O188 O 0.47041 0.29003 0.33827 0.0
O189 O 0.53315 0.25013 0.35256 0.0
C190 C 0.47856 0.29126 0.39845 0.0
O191 O 0.45972 0.27654 0.40005 0.0
C192 C 0.51484 0.21243 0.40196 0.0
O193 O 0.53489 0.22542 0.40239 0.0
O194 O 0.47388 0.24907 0.34079 0.0
C195 C 0.45663 0.7367 0.16908 0.0
O196 O 0.46281 0.71423 0.16267 0.0
O197 O 0.4881 0.71983 0.11361 0.0
Zn198 Zn 0.49345 0.75127 0.13301 0.0
O199 O 0.49245 0.78004 0.10889 0.0
C200 C 0.53553 0.72892 0.15371 0.0
O201 O 0.52266 0.70863 0.15078 0.0
O202 O 0.4676 0.75507 0.15932 0.0
C203 C 0.51135 0.78994 0.09982 0.0
O204 O 0.53243 0.78179 0.10685 0.0
C205 C 0.49313 0.71842 0.09035 0.0
O206 O 0.50076 0.73822 0.07839 0.0
O207 O 0.5263 0.74966 0.1485 0.0
C208 C 0.86079 0.05145 0.74799 0.0
O209 O 0.88313 0.05278 0.75585 0.0
O210 O 0.88495 -0.00404 0.70602 0.0
Zn211 Zn 0.8724 -0.00033 0.74139 0.0
O212 O 0.89991 0.00339 0.76629 0.0
C213 C 0.85846 0.94802 0.74199 0.0
O214 O 0.87672 0.9466 0.72652 0.0
O215 O 0.85195 0.03051 0.74177 0.0
C216 C 0.912 0.98527 0.77451 0.0
O217 O 0.90717 0.96293 0.76617 0.0
C218 C 0.89025 0.01449 0.69228 0.0
O219 O 0.88845 0.03686 0.70154 0.0
O220 O 0.85266 0.96907 0.7506 0.0
C221 C 0.78632 0.06402 0.51845 0.0
O222 O 0.77838 0.07117 0.54049 0.0
O223 O 0.75741 0.12043 0.53193 0.0
Zn224 Zn 0.75453 0.10154 0.49974 0.0
O225 O 0.75795 0.12472 0.47012 0.0
C226 C 0.70482 0.09362 0.51168 0.0
O227 O 0.70762 0.11394 0.52494 0.0
O228 O 0.77901 0.07475 0.49859 0.0
C229 C 0.74123 0.13928 0.4638 0.0
O230 O 0.72097 0.13873 0.47631 0.0
C231 C 0.76531 0.14249 0.53258 0.0
O232 O 0.77338 0.15282 0.51186 0.0
O233 O 0.7223 0.08533 0.49911 0.0
C234 C 0.64677 0.96181 0.27526 0.0
O235 O 0.64136 0.97377 0.29596 0.0
O236 O 0.59952 -0.00149 0.22002 0.0
Zn237 Zn 0.61853 -0.00012 0.252 0.0
O238 O 0.59573 0.00172 0.28129 0.0
C239 C 0.6316 0.04964 0.23995 0.0
O240 O 0.60913 0.05045 0.23256 0.0
O241 O 0.63894 0.96962 0.25427 0.0
C242 C 0.591 0.02137 0.29333 0.0
O243 O 0.60269 0.04192 0.28809 0.0
C244 C 0.57782 0.00536 0.21942 0.0
O245 O 0.56731 0.01206 0.24037 0.0
O246 O 0.6396 0.02994 0.24974 0.0
C247 C 0.69561 0.91432 0.0295 0.0
O248 O 0.70939 0.91614 0.04955 0.0
O249 O 0.7338 0.86761 0.04464 0.0
Zn250 Zn 0.73409 0.88476 0.01134 0.0
O251 O 0.73436 0.8607 0.9825 0.0
C252 C 0.78366 0.89693 0.0122 0.0
O253 O 0.78448 0.87295 0.0159 0.0
O254 O 0.70325 0.90319 0.01011 0.0
C255 C 0.73199 0.86926 0.96034 0.0
O256 O 0.72974 0.89321 0.95729 0.0
C257 C 0.71611 0.85419 0.0514 0.0
O258 O 0.69872 0.84936 0.03533 0.0
O259 O 0.76333 0.90703 0.00951 0.0
C260 C 0.29163 0.57015 0.02133 0.0
O261 O 0.28548 0.58192 0.0419 0.0
O262 O 0.25614 0.62296 0.02839 0.0
Zn263 Zn 0.25674 0.60198 -0.00272 0.0
O264 O 0.26197 0.62201 0.9656 0.0
C265 C 0.22004 0.56599 0.00736 0.0
O266 O 0.23705 0.55578 0.02081 0.0
O267 O 0.28199 0.57589 0.00043 0.0
C268 C 0.24556 0.63583 0.957 0.0
O269 O 0.22532 0.63755 0.96942 0.0
C270 C 0.25784 0.64635 0.02856 0.0
O271 O 0.26153 0.65826 0.00736 0.0
O272 O 0.22453 0.58566 -0.00484 0.0
C273 C 0.166 0.47416 0.73347 0.0
O274 O 0.16051 0.48203 0.71079 0.0
O275 O 0.11152 0.49919 0.71505 0.0
Zn276 Zn 0.1289 0.50795 0.74654 0.0
O277 O 0.10571 0.50999 0.77571 0.0
C278 C 0.12785 0.55965 0.73908 0.0
O279 O 0.10523 0.55604 0.74491 0.0
O280 O 0.15509 0.48309 0.75235 0.0
C281 C 0.08316 0.51157 0.77234 0.0
O282 O 0.07433 0.51105 0.7494 0.0
C283 C 0.09891 0.47994 0.71109 0.0
O284 O 0.09649 0.46328 0.72892 0.0
O285 O 0.14224 0.54162 0.73963 0.0
C286 C 0.19066 0.39418 0.50385 0.0
O287 O 0.19027 0.3705 0.49849 0.0
O288 O 0.23813 0.36444 0.53869 0.0
Zn289 Zn 0.23944 0.38287 0.506 0.0
O290 O 0.2366 0.35997 0.47627 0.0
C291 C 0.27813 0.41581 0.52145 0.0
O292 O 0.26369 0.42043 0.54031 0.0
O293 O 0.2108 0.40513 0.50677 0.0
C294 C 0.23436 0.36918 0.45437 0.0
O295 O 0.23419 0.39332 0.45181 0.0
C296 C 0.22628 0.34453 0.54207 0.0
O297 O 0.2158 0.33362 0.5228 0.0
O298 O 0.27118 0.40111 0.50418 0.0
C299 C 0.3398 0.54382 0.2316 0.0
O300 O 0.33739 0.52991 0.21146 0.0
O301 O 0.38508 0.50291 0.21364 0.0
Zn302 Zn 0.37102 0.50435 0.24833 0.0
O303 O 0.39777 0.50676 0.27415 0.0
C304 C 0.35744 0.45314 0.24575 0.0
O305 O 0.37676 0.45286 0.2317 0.0
O306 O 0.35212 0.536 0.25012 0.0
C307 C 0.40885 0.48842 0.28339 0.0
O308 O 0.40325 0.46599 0.27584 0.0
C309 C 0.39583 0.52184 0.20486 0.0
O310 O 0.39821 0.54162 0.21904 0.0
O311 O 0.35062 0.47362 0.25491 0.0
O312 O 0.02876 0.01004 0.99291 0.0
Mn313 Mn -0.00691 -0.00211 -0.00404 0.0
O314 O 0.05155 0.97826 0.00548 0.0
Mn315 Mn 0.02658 0.95732 0.01493 0.0
O316 O 0.95746 0.98563 -0.00089 0.0
O317 O 0.98298 0.03353 -0.00115 0.0
Mn318 Mn 0.95882 0.03858 0.97808 0.0
O319 O 0.98992 -0.00173 0.95648 0.0
O320 O 0.93416 0.01762 0.98836 0.0
O321 O -0.00388 -0.00215 0.03539 0.0
O322 O 0.01401 0.96261 0.0465 0.0
O323 O 0.96417 0.06828 0.99403 0.0
O324 O 0.97048 0.03298 0.94617 0.0
C325 C 0.0059 0.93921 0.98663 0.0
C326 C 0.0493 0.00018 -0.003 0.0
C327 C 0.93675 0.99546 -0.00398 0.0
C328 C 0.9809 0.0564 0.00561 0.0
C329 C 0.98196 0.0137 0.94011 0.0
C330 C 0.00309 0.98232 0.05209 0.0
O331 O 0.0032 0.96213 0.99309 0.0
O332 O 0.02223 0.92755 -0.00093 0.0
O333 O 0.27854 0.75196 0.24008 0.0
Mn334 Mn 0.241 0.75073 0.24375 0.0
O335 O 0.28789 0.78587 0.21754 0.0
Mn336 Mn 0.25723 0.79033 0.20519 0.0
O337 O 0.20334 0.74924 0.24753 0.0
O338 O 0.24432 0.71621 0.25732 0.0
Mn339 Mn 0.22543 0.71205 0.28353 0.0
O340 O 0.24422 0.76538 0.27977 0.0
O341 O 0.19474 0.71574 0.27116 0.0
O342 O 0.23802 0.7364 0.20728 0.0
O343 O 0.24721 0.76786 0.18101 0.0
O344 O 0.24131 0.68267 0.27971 0.0
O345 O 0.23511 0.73524 0.30738 0.0
C346 C 0.23081 0.80788 0.22765 0.0
C347 C 0.29395 0.76721 0.23061 0.0
C348 C 0.18833 0.73379 0.25743 0.0
C349 C 0.2513 0.69381 0.26085 0.0
C350 C 0.24176 0.75733 0.30236 0.0
C351 C 0.24048 0.7456 0.18506 0.0
O352 O 0.23784 0.78543 0.23073 0.0
O353 O 0.24133 0.81963 0.2095 0.0
O354 O 0.45795 0.99313 0.49826 0.0
Mn355 Mn 0.49389 0.00242 0.50156 0.0
O356 O 0.43688 0.02484 0.51377 0.0
Mn357 Mn 0.46308 0.04351 0.52492 0.0
O358 O 0.52998 0.0115 0.50481 0.0
O359 O 0.50158 0.96595 0.50005 0.0
Mn360 Mn 0.52352 0.96179 0.47671 0.0
O361 O 0.49599 0.00669 0.46242 0.0
O362 O 0.55009 0.98 0.4874 0.0
O363 O 0.4917 -0.00126 0.54083 0.0
O364 O 0.47608 0.0341 0.55533 0.0
O365 O 0.51741 0.93082 0.48922 0.0
O366 O 0.51012 0.97144 0.44659 0.0
C367 C 0.48531 0.06205 0.49808 0.0
C368 C 0.43806 0.00356 0.50348 0.0
C369 C 0.54954 0.00087 0.49862 0.0
C370 C 0.50269 0.94231 0.50377 0.0
C371 C 0.50101 0.99266 0.44375 0.0
C372 C 0.48602 0.01334 0.55889 0.0
O373 O 0.48596 0.03864 0.50285 0.0
O374 O 0.46998 0.07409 0.51137 0.0
O375 O 0.28368 0.26339 0.76671 0.0
Mn376 Mn 0.24877 0.25694 0.75419 0.0
O377 O 0.3085 0.2539 0.73483 0.0
Mn378 Mn 0.28569 0.23819 0.71478 0.0
O379 O 0.2139 0.25066 0.74189 0.0
O380 O 0.23757 0.2579 0.78972 0.0
Mn381 Mn 0.21295 0.27724 0.79386 0.0
O382 O 0.24399 0.29542 0.75036 0.0
O383 O 0.18946 0.26384 0.77275 0.0
O384 O 0.25368 0.21858 0.75781 0.0
O385 O 0.2765 0.20687 0.72496 0.0
O386 O 0.21965 0.26368 0.82514 0.0
O387 O 0.22433 0.30811 0.78493 0.0
C388 C 0.25992 0.25981 0.69479 0.0
C389 C 0.30467 0.26233 0.7569 0.0
C390 C 0.19295 0.25394 0.75121 0.0
C391 C 0.23637 0.25234 0.81316 0.0
C392 C 0.23566 0.31256 0.76463 0.0
C393 C 0.26386 0.20195 0.74432 0.0
O394 O 0.25982 0.25581 0.71859 0.0
O395 O 0.27749 0.24962 0.68305 0.0
O396 O -0.00467 0.96248 0.47828 0.0
Mn397 Mn 0.99261 -0.00158 0.49106 0.0
O398 O 0.01623 0.94138 0.50745 0.0
Mn399 Mn 0.02247 0.96758 0.52939 0.0
O400 O 0.98961 0.0346 0.50343 0.0
O401 O 0.98757 0.0096 0.45586 0.0
Mn402 Mn 0.96217 0.02783 0.45208 0.0
O403 O 0.95569 0.99314 0.49644 0.0
O404 O 0.96808 0.05441 0.47362 0.0
O405 O 0.02965 0.00337 0.48591 0.0
O406 O 0.04785 0.98794 0.52036 0.0
O407 O 0.97673 0.02579 0.42067 0.0
O408 O 0.93725 0.00709 0.46159 0.0
C409 C 0.99217 0.9824 0.54915 0.0
C410 C 0.00484 0.94258 0.48656 0.0
C411 C 0.97954 0.05404 0.49456 0.0
C412 C 0.99238 0.01275 0.43252 0.0
C413 C 0.9369 -0.00426 0.48263 0.0
C414 C 0.0484 -0.0002 0.4996 0.0
O415 O -0.00229 0.98697 0.52621 0.0
O416 O 0.00737 0.96838 0.56051 0.0
O417 O 0.27079 0.77744 0.75921 0.0
Mn418 Mn 0.24599 0.75117 0.74609 0.0
O419 O 0.24988 0.80882 0.77554 0.0
Mn420 Mn 0.22198 0.80119 0.75824 0.0
O421 O 0.22112 0.72518 0.73262 0.0
O422 O 0.27335 0.73325 0.73061 0.0
Mn423 Mn 0.26985 0.70114 0.73358 0.0
O424 O 0.25009 0.73077 0.7792 0.0
O425 O 0.24204 0.694 0.71596 0.0
O426 O 0.24191 0.77141 0.71293 0.0
O427 O 0.22299 0.80643 0.72364 0.0
O428 O 0.29889 0.70643 0.71756 0.0
O429 O 0.26881 0.69568 0.76818 0.0
C430 C 0.19811 0.77287 0.77175 0.0
C431 C 0.26959 0.79793 0.77135 0.0
C432 C 0.22241 0.70516 0.71975 0.0
C433 C 0.29377 0.7295 0.72024 0.0
C434 C 0.25956 0.70985 0.78468 0.0
C435 C 0.23237 0.79223 0.70727 0.0
O436 O 0.21863 0.7691 0.76158 0.0
O437 O 0.19288 0.79596 0.7741 0.0
O438 O 0.48428 0.99325 0.95975 0.0
Mn439 Mn 0.49383 -0.00017 -0.00314 0.0
O440 O 0.51602 0.00281 0.93536 0.0
Mn441 Mn 0.53417 0.01787 0.96055 0.0
O442 O 0.50323 0.0064 0.03415 0.0
O443 O 0.45913 -0.00078 0.00567 0.0
Mn444 Mn 0.45321 0.98147 0.03258 0.0
O445 O 0.49628 0.96167 0.00318 0.0
O446 O 0.47092 -0.00314 0.05782 0.0
O447 O 0.49156 0.03809 0.99074 0.0
O448 O 0.52495 0.0493 0.96944 0.0
O449 O 0.42395 0.99326 0.0217 0.0
O450 O 0.46288 0.95004 0.0241 0.0
C451 C 0.55096 -0.00442 0.98876 0.0
C452 C 0.49468 0.99452 0.93827 0.0
C453 C 0.49231 0.0052 0.05539 0.0
C454 C 0.43658 0.00346 0.00408 0.0
C455 C 0.48241 0.94508 0.01289 0.0
C456 C 0.50572 0.05448 0.9811 0.0
O457 O 0.52848 0.00032 0.98771 0.0
O458 O 0.56343 0.00558 0.97091 0.0
O459 O 0.28514 0.25262 0.2529 0.0
Mn460 Mn 0.24783 0.25121 0.2459 0.0
O461 O 0.29358 0.22083 0.27869 0.0
Mn462 Mn 0.2622 0.21444 0.2878 0.0
O463 O 0.21052 0.24993 0.2389 0.0
O464 O 0.25043 0.28571 0.23192 0.0
Mn465 Mn 0.23385 0.28804 0.20381 0.0
O466 O 0.25418 0.23588 0.21041 0.0
O467 O 0.20243 0.28143 0.21258 0.0
O468 O 0.24148 0.2665 0.28138 0.0
O469 O 0.24894 0.23685 0.31001 0.0
O470 O 0.24715 0.31893 0.20922 0.0
O471 O 0.24768 0.26583 0.18179 0.0
C472 C 0.23941 0.19376 0.263 0.0
C473 C 0.30012 0.23893 0.2649 0.0
C474 C 0.19573 0.26359 0.22663 0.0
C475 C 0.25626 0.3087 0.22902 0.0
C476 C 0.2542 0.24405 0.18766 0.0
C477 C 0.24208 0.25854 0.3042 0.0
O478 O 0.24521 0.21674 0.25993 0.0
O479 O 0.24872 0.18359 0.28272 0.0
O480 O 0.50128 0.46217 -0.0046 0.0
Mn481 Mn 0.50014 0.49948 0.0038 0.0
O482 O 0.51908 0.44297 0.02811 0.0
Mn483 Mn 0.52803 0.47131 0.04594 0.0
O484 O 0.49883 0.53688 0.01196 0.0
O485 O 0.49556 0.50689 0.96744 0.0
Mn486 Mn 0.47128 0.52627 0.9616 0.0
O487 O 0.46299 0.49676 0.00944 0.0
O488 O 0.47882 0.55478 0.97982 0.0
O489 O 0.53728 0.50189 -0.00168 0.0
O490 O 0.55487 0.48768 0.03371 0.0
O491 O 0.48555 0.52015 0.93068 0.0
O492 O 0.44521 0.50834 0.97327 0.0
C493 C 0.50012 0.49216 0.06369 0.0
C494 C 0.50871 0.44265 0.00658 0.0
C495 C 0.49007 0.55588 0.00085 0.0
C496 C 0.50055 0.50754 0.94392 0.0
C497 C 0.44434 0.49916 -0.00464 0.0
C498 C 0.55591 0.49775 0.012 0.0
O499 O 0.50479 0.49205 0.04011 0.0
O500 O 0.51437 0.47867 0.07693 0.0
O501 O 0.76449 0.28459 0.26202 0.0
Mn502 Mn 0.74938 0.25032 0.25305 0.0
O503 O 0.7349 0.31234 0.26201 0.0
Mn504 Mn 0.71218 0.29159 0.24753 0.0
O505 O 0.7347 0.21585 0.244 0.0
O506 O 0.78272 0.23858 0.24528 0.0
Mn507 Mn 0.78739 0.2099 0.25994 0.0
O508 O 0.75237 0.23963 0.29093 0.0
O509 O 0.7648 0.18857 0.24609 0.0
O510 O 0.74606 0.26109 0.21519 0.0
O511 O 0.71489 0.28706 0.21325 0.0
O512 O 0.81549 0.21713 0.24345 0.0
O513 O 0.78468 0.21541 0.29408 0.0
C514 C 0.69439 0.2641 0.26932 0.0
C515 C 0.75673 0.30655 0.26551 0.0
C516 C 0.74302 0.19394 0.24147 0.0
C517 C 0.80432 0.23691 0.23677 0.0
C518 C 0.76753 0.22723 0.30397 0.0
C519 C 0.7312 0.27446 0.20274 0.0
O520 O 0.71608 0.26219 0.26102 0.0
O521 O 0.68385 0.2845 0.26354 0.0
O522 O 0.98268 0.48934 0.46256 0.0
Mn523 Mn -0.00678 0.49141 0.49989 0.0
O524 O 0.01145 0.50761 0.43917 0.0
Mn525 Mn 0.02942 0.52008 0.46595 0.0
O526 O 0.00354 0.49316 0.5374 0.0
O527 O 0.95905 0.48524 0.50984 0.0
Mn528 Mn 0.95679 0.46187 0.53258 0.0
O529 O 0.00058 0.45336 0.5002 0.0
O530 O 0.97485 0.47328 0.55971 0.0
O531 O 0.98618 0.52955 0.49954 0.0
O532 O 0.01751 0.54827 0.48039 0.0
O533 O 0.92582 0.4718 0.52626 0.0
O534 O 0.96858 0.43405 0.51723 0.0
C535 C 0.05027 0.49592 0.48881 0.0
C536 C 0.99144 0.49605 0.4413 0.0
C537 C -0.00529 0.48523 0.55826 0.0
C538 C 0.93603 0.48683 0.51056 0.0
C539 C 0.98879 0.43364 0.5062 0.0
C540 C -0.00211 0.54901 0.49251 0.0
O541 O 0.0273 0.49763 0.4897 0.0
O542 O 0.06044 0.51039 0.47255 0.0
O543 O 0.77529 0.75756 0.27388 0.0
Mn544 Mn 0.74368 0.7492 0.25398 0.0
O545 O 0.80392 0.76539 0.24498 0.0
Mn546 Mn 0.7872 0.75317 0.21749 0.0
O547 O 0.71225 0.74059 0.23379 0.0
O548 O 0.72959 0.73618 0.28584 0.0
Mn549 Mn 0.69936 0.74408 0.28906 0.0
O550 O 0.73041 0.78422 0.26201 0.0
O551 O 0.68435 0.72889 0.26207 0.0
O552 O 0.75682 0.714 0.24579 0.0
O553 O 0.78484 0.71905 0.21563 0.0
O554 O 0.70758 0.72721 0.31806 0.0
O555 O 0.69956 0.77843 0.28888 0.0
C556 C 0.75886 0.77469 0.20167 0.0
C557 C 0.79672 0.76428 0.26772 0.0
C558 C 0.69164 0.73129 0.23949 0.0
C559 C 0.72856 0.72642 0.30784 0.0
C560 C 0.71355 0.79243 0.27609 0.0
C561 C 0.77194 0.70533 0.22988 0.0
O562 O 0.75767 0.76257 0.22236 0.0
O563 O 0.77931 0.77318 0.19043 0.0
O564 O 0.78672 0.25086 0.74172 0.0
Mn565 Mn 0.74912 0.2511 0.74442 0.0
O566 O 0.79783 0.28595 0.72199 0.0
Mn567 Mn 0.76811 0.29147 0.70779 0.0
O568 O 0.71149 0.25161 0.74696 0.0
O569 O 0.75046 0.21595 0.75704 0.0
Mn570 Mn 0.73025 0.21231 0.78226 0.0
O571 O 0.75195 0.26455 0.78083 0.0
O572 O 0.70021 0.21808 0.76912 0.0
O573 O 0.74669 0.23801 0.70767 0.0
O574 O 0.75904 0.2694 0.68271 0.0
O575 O 0.74425 0.18202 0.77831 0.0
O576 O 0.74037 0.23419 0.80718 0.0
C577 C 0.74055 0.30846 0.72942 0.0
C578 C 0.80285 0.26625 0.73394 0.0
C579 C 0.69528 0.23698 0.7559 0.0
C580 C 0.75587 0.19301 0.76039 0.0
C581 C 0.74837 0.25601 0.80305 0.0
C582 C 0.75104 0.2474 0.68589 0.0
O583 O 0.74764 0.28606 0.73217 0.0
O584 O 0.75192 0.32073 0.71221 0.0
O585 O 0.78273 0.75075 0.75636 0.0
Mn586 Mn 0.7452 0.74958 0.75211 0.0
O587 O 0.79269 0.71877 0.78122 0.0
Mn588 Mn 0.76206 0.71297 0.793 0.0
O589 O 0.70767 0.74855 0.74741 0.0
O590 O 0.7472 0.784 0.73797 0.0
Mn591 Mn 0.72957 0.78637 0.71058 0.0
O592 O 0.74959 0.73411 0.71637 0.0
O593 O 0.69856 0.77952 0.72075 0.0
O594 O 0.74097 0.76501 0.78792 0.0
O595 O 0.75067 0.73565 0.81607 0.0
O596 O 0.74301 0.81729 0.71568 0.0
O597 O 0.74285 0.76427 0.68804 0.0
C598 C 0.73761 0.69219 0.77014 0.0
C599 C 0.79831 0.73667 0.7668 0.0
C600 C 0.69243 0.76202 0.73555 0.0
C601 C 0.75294 0.80698 0.73499 0.0
C602 C 0.74926 0.7424 0.69368 0.0
C603 C 0.74325 0.75724 0.81069 0.0
O604 O 0.74318 0.71515 0.76646 0.0
O605 O 0.74811 0.68219 0.78928 0.0
O606 O 0.53012 0.5129 0.49926 0.0
Mn607 Mn 0.49449 0.50103 0.50367 0.0
O608 O 0.55329 0.48055 0.50906 0.0
Mn609 Mn 0.52861 0.45975 0.51963 0.0
O610 O 0.45879 0.48914 0.50822 0.0
O611 O 0.48526 0.53689 0.50763 0.0
Mn612 Mn 0.45983 0.54245 0.48875 0.0
O613 O 0.48969 0.50226 0.46448 0.0
O614 O 0.43565 0.52227 0.50133 0.0
O615 O 0.49907 0.49994 0.54295 0.0
O616 O 0.51792 0.46462 0.55204 0.0
O617 O 0.46687 0.57208 0.50403 0.0
O618 O 0.46886 0.53656 0.4559 0.0
C619 C 0.50583 0.44227 0.49266 0.0
C620 C 0.55077 0.50281 0.50168 0.0
C621 C 0.43827 0.49975 0.50769 0.0
C622 C 0.48406 0.55985 0.51443 0.0
C623 C 0.48037 0.51761 0.44888 0.0
C624 C 0.50697 0.48398 0.55877 0.0
O625 O 0.50395 0.46518 0.49954 0.0
O626 O 0.52282 0.43025 0.50366 0.0
O627 O 0.9653 0.48662 0.98709 0.0
Mn628 Mn 0.00149 0.49465 0.99035 0.0
O629 O 0.94563 0.5166 0.00751 0.0
Mn630 Mn 0.97266 0.5337 0.01909 0.0
O631 O 0.03784 0.5024 0.99363 0.0
O632 O 0.00834 0.45842 0.98514 0.0
Mn633 Mn 0.0298 0.45523 0.96123 0.0
O634 O 0.00312 0.50236 0.95176 0.0
O635 O 0.05692 0.47165 0.97352 0.0
O636 O -0.00034 0.48705 0.02902 0.0
O637 O 0.98639 0.52127 0.04797 0.0
O638 O 0.02249 0.42359 0.97161 0.0
O639 O 0.0162 0.46822 0.93249 0.0
C640 C -0.00621 0.55467 0.99327 0.0
C641 C 0.9459 0.49663 0.99469 0.0
C642 C 0.057 0.49156 0.98648 0.0
C643 C 0.00867 0.43461 0.98743 0.0
C644 C 0.00747 0.4898 0.93183 0.0
C645 C -0.00498 0.49966 0.04887 0.0
O646 O -0.00556 0.53085 -0.00463 0.0
O647 O 0.97935 0.5654 0.0087 0.0
H648 H 0.97705 0.17079 0.10945 0.0
H649 H 0.02263 0.08237 0.00152 0.0
H650 H 0.0421 0.18525 0.06798 0.0
H651 H 0.96741 0.06161 0.05403 0.0
H652 H 0.03374 0.11731 0.02869 0.0
H653 H 0.9755 0.12913 0.09173 0.0
C654 C 0.99105 0.16521 0.09665 0.0
C655 C 0.00959 0.18171 0.09001 0.0
C656 C 0.01971 0.10467 0.03477 0.0
C657 C 0.00796 0.13383 0.06958 0.0
C658 C 0.01369 0.08445 0.01946 0.0
C659 C -0.0056 0.06888 0.02584 0.0
C660 C 0.00587 0.10965 0.05623 0.0
C661 C 0.98269 0.07298 0.04873 0.0
C662 C 0.99026 0.14131 0.08666 0.0
C663 C 0.02737 0.17326 0.07353 0.0
N664 N 0.98827 0.09322 0.06286 0.0
N665 N 0.02597 0.15005 0.06368 0.0
H666 H 0.03951 0.70285 0.28332 0.0
H667 H 0.16451 0.77602 0.26892 0.0
H668 H 0.06188 0.76329 0.33127 0.0
H669 H 0.1534 0.70056 0.24535 0.0
H670 H 0.12199 0.77791 0.28082 0.0
H671 H 0.07678 0.70784 0.25936 0.0
C672 C 0.05214 0.71729 0.28867 0.0
C673 C 0.04774 0.73242 0.30957 0.0
C674 C 0.12875 0.76118 0.27239 0.0
C675 C 0.09012 0.73851 0.28197 0.0
C676 C 0.15287 0.76023 0.26527 0.0
C677 C 0.16234 0.7381 0.25617 0.0
C678 C 0.11411 0.73994 0.27006 0.0
C679 C 0.14668 0.71796 0.25229 0.0
C680 C 0.07336 0.72015 0.27498 0.0
C681 C 0.0647 0.75095 0.31555 0.0
N682 N 0.12339 0.71926 0.25948 0.0
N683 N 0.08516 0.75342 0.30188 0.0
H684 H 0.50057 0.85196 0.63522 0.0
H685 H 0.47294 0.90342 0.49723 0.0
H686 H 0.48264 0.80648 0.57097 0.0
H687 H 0.50698 0.94768 0.55477 0.0
H688 H 0.46665 0.87032 0.52783 0.0
H689 H 0.49536 0.88887 0.60917 0.0
C690 C 0.49551 0.8497 0.61564 0.0
C691 C 0.49227 0.82601 0.6052 0.0
C692 C 0.47494 0.88748 0.53403 0.0
C693 C 0.48586 0.86828 0.57543 0.0
C694 C 0.47813 0.90654 0.51667 0.0
C695 C 0.49025 0.92833 0.52361 0.0
C696 C 0.48428 0.89008 0.55847 0.0
C697 C 0.49718 0.93129 0.54884 0.0
C698 C 0.49246 0.87081 0.60083 0.0
C699 C 0.48559 0.8243 0.57977 0.0
N700 N 0.49448 0.91215 0.56533 0.0
N701 N 0.48263 0.84511 0.56579 0.0
H702 H 0.45017 0.27128 0.80721 0.0
H703 H 0.30712 0.26861 0.80815 0.0
H704 H 0.40822 0.2662 0.87523 0.0
H705 H 0.35032 0.27145 0.74085 0.0
H706 H 0.34356 0.27376 0.83348 0.0
H707 H 0.41344 0.27696 0.7831 0.0
C708 C 0.43322 0.27145 0.8171 0.0
C709 C 0.43221 0.26793 0.84323 0.0
C710 C 0.34499 0.27355 0.81316 0.0
C711 C 0.39003 0.2744 0.81571 0.0
C712 C 0.32419 0.27073 0.79868 0.0
C713 C 0.32573 0.26923 0.77236 0.0
C714 C 0.36738 0.2749 0.80118 0.0
C715 C 0.34831 0.2721 0.76111 0.0
C716 C 0.41224 0.27477 0.80332 0.0
C717 C 0.40978 0.26863 0.85507 0.0
N718 N 0.36825 0.27455 0.77559 0.0
N719 N 0.38951 0.27156 0.84118 0.0
H720 H 0.00882 0.79259 0.4318 0.0
H721 H 0.98814 0.93835 0.43811 0.0
H722 H 0.98729 0.8363 0.36774 0.0
H723 H 0.01727 0.89546 0.49941 0.0
H724 H 0.98598 0.90095 0.4125 0.0
H725 H 0.01047 0.83001 0.45731 0.0
C726 C 0.00446 0.81007 0.42308 0.0
C727 C -0.00207 0.81135 0.39759 0.0
C728 C -0.00717 0.89975 0.43157 0.0
C729 C -0.00029 0.85424 0.42672 0.0
C730 C -0.00601 0.92107 0.44624 0.0
C731 C 0.00289 0.92005 0.47098 0.0
C732 C 0.00052 0.87723 0.44172 0.0
C733 C 0.01034 0.89717 0.48043 0.0
C734 C 0.00542 0.83144 0.43766 0.0
C735 C 0.99246 0.83449 0.38731 0.0
N736 N 0.00896 0.87667 0.46579 0.0
N737 N -0.00656 0.85505 0.40193 0.0
H738 H 0.43816 0.77746 0.71879 0.0
H739 H 0.30334 0.75037 0.67507 0.0
H740 H 0.41594 0.75994 0.64286 0.0
H741 H 0.32654 0.74872 0.75242 0.0
H742 H 0.34253 0.7675 0.66309 0.0
H743 H 0.39585 0.77889 0.73118 0.0
C744 C 0.42441 0.77413 0.70469 0.0
C745 C 0.43058 0.76808 0.67987 0.0
C746 C 0.33883 0.76415 0.6828 0.0
C747 C 0.38231 0.77009 0.69379 0.0
C748 C 0.31637 0.75475 0.68964 0.0
C749 C 0.31181 0.74852 0.71473 0.0
C750 C 0.35687 0.7668 0.7012 0.0
C751 C 0.32943 0.75368 0.73289 0.0
C752 C 0.4003 0.77502 0.71176 0.0
C753 C 0.41204 0.76419 0.66232 0.0
N754 N 0.3514 0.76219 0.72574 0.0
N755 N 0.38878 0.7651 0.66966 0.0
H756 H 0.47413 0.18433 0.90185 0.0
H757 H 0.53175 0.09227 0.0005 0.0
H758 H 0.5385 0.19983 0.94471 0.0
H759 H 0.4666 0.07577 0.95977 0.0
H760 H 0.52929 0.13527 0.98708 0.0
H761 H 0.46683 0.1478 0.92797 0.0
C762 C 0.48667 0.18014 0.91683 0.0
C763 C 0.5072 0.19494 0.92082 0.0
C764 C 0.51514 0.12249 0.98154 0.0
C765 C 0.49881 0.15327 0.9509 0.0
C766 C 0.5164 0.09803 0.98949 0.0
C767 C 0.49933 0.08065 0.98121 0.0
C768 C 0.497 0.12943 0.96462 0.0
C769 C 0.47998 0.08879 0.96666 0.0
C770 C 0.48241 0.15934 0.93182 0.0
C771 C 0.52264 0.18878 0.94069 0.0
N772 N 0.47962 0.11256 0.9583 0.0
N773 N 0.51824 0.16831 0.95481 0.0
H774 H 0.06002 0.1988 0.18265 0.0
H775 H 0.1596 0.29642 0.22886 0.0
H776 H 0.05328 0.27799 0.17748 0.0
H777 H 0.173 0.21848 0.2225 0.0
H778 H 0.11753 0.28874 0.21844 0.0
H779 H 0.09843 0.20461 0.20456 0.0
C780 C 0.06648 0.21741 0.18632 0.0
C781 C 0.05349 0.23796 0.17798 0.0
C782 C 0.1295 0.27319 0.21977 0.0
C783 C 0.09736 0.24468 0.20317 0.0
C784 C 0.15349 0.27756 0.2259 0.0
C785 C 0.16974 0.25801 0.22668 0.0
C786 C 0.12167 0.2491 0.21399 0.0
C787 C 0.16095 0.23396 0.22257 0.0
C788 C 0.08842 0.22068 0.19882 0.0
C789 C 0.06275 0.26161 0.18333 0.0
N790 N 0.13753 0.23018 0.21603 0.0
N791 N 0.08412 0.2643 0.19546 0.0
H792 H 0.03526 0.96478 0.2076 0.0
H793 H 0.01176 0.02738 0.07364 0.0
H794 H 0.07448 0.02826 0.17961 0.0
H795 H -0.00575 0.95158 0.0915 0.0
H796 H 0.02322 0.03421 0.1178 0.0
H797 H 0.0095 0.96611 0.17023 0.0
C798 C 0.03826 0.97919 0.19378 0.0
C799 C 0.05734 -0.00386 0.19647 0.0
C800 C 0.01624 0.01628 0.11215 0.0
C801 C 0.02779 -0.0021 0.15389 0.0
C802 C 0.00945 0.01246 0.08706 0.0
C803 C 0.00234 0.98881 0.07899 0.0
C804 C 0.0156 -0.00364 0.12912 0.0
C805 C -0.0001 0.97002 0.09702 0.0
C806 C 0.02354 0.97994 0.17249 0.0
C807 C 0.06025 0.01455 0.17806 0.0
N808 N 0.00682 0.9741 0.1212 0.0
N809 N 0.04576 0.01481 0.15742 0.0
H810 H 0.22829 0.83108 0.44509 0.0
H811 H 0.25906 0.80503 0.30077 0.0
H812 H 0.26299 0.88477 0.39686 0.0
H813 H 0.23221 0.74951 0.35224 0.0
H814 H 0.26098 0.83457 0.33554 0.0
H815 H 0.22951 0.80105 0.41095 0.0
C816 C 0.23614 0.83657 0.4273 0.0
C817 C 0.24548 0.8605 0.42379 0.0
C818 C 0.25481 0.81587 0.33922 0.0
C819 C 0.24699 0.82616 0.3846 0.0
C820 C 0.25367 0.799 0.31937 0.0
C821 C 0.24524 0.77479 0.3235 0.0
C822 C 0.24741 0.80849 0.36334 0.0
C823 C 0.23876 0.76796 0.34808 0.0
C824 C 0.23692 0.81938 0.40783 0.0
C825 C 0.25555 0.86653 0.40037 0.0
N826 N 0.23984 0.78477 0.36701 0.0
N827 N 0.25597 0.84949 0.38161 0.0
H828 H 0.44712 0.03696 0.70856 0.0
H829 H 0.46833 0.96999 0.5773 0.0
H830 H 0.40184 0.9789 0.67812 0.0
H831 H 0.50262 0.03833 0.59969 0.0
H832 H 0.45347 0.96469 0.62033 0.0
H833 H 0.47553 0.03025 0.67438 0.0
C834 C 0.44318 0.02275 0.69475 0.0
C835 C 0.42182 0.00885 0.69587 0.0
C836 C 0.46492 0.98044 0.61604 0.0
C837 C 0.45441 0.00083 0.65696 0.0
C838 C 0.47374 0.98322 0.5916 0.0
C839 C 0.48648 0.00473 0.58506 0.0
C840 C 0.46896 -0.00067 0.63378 0.0
C841 C 0.49266 0.02158 0.6041 0.0
C842 C 0.45948 0.01882 0.67535 0.0
C843 C 0.41785 0.99039 0.6777 0.0
N844 N 0.48343 0.0188 0.62752 0.0
N845 N 0.43389 0.98708 0.65886 0.0
H846 H 0.23673 0.11863 0.89241 0.0
H847 H 0.26691 0.25679 0.85241 0.0
H848 H 0.26676 0.17409 0.94217 0.0
H849 H 0.23337 0.20344 0.80311 0.0
H850 H 0.2763 0.22369 0.88202 0.0
H851 H 0.24309 0.1466 0.85688 0.0
C852 C 0.24471 0.13666 0.89587 0.0
C853 C 0.2508 0.14423 0.92036 0.0
C854 C 0.26751 0.21902 0.86441 0.0
C855 C 0.25834 0.17619 0.87977 0.0
C856 C 0.26245 0.23787 0.84742 0.0
C857 C 0.24967 0.2326 0.82534 0.0
C858 C 0.25903 0.19494 0.85949 0.0
C859 C 0.24367 0.20803 0.81982 0.0
C860 C 0.24848 0.15255 0.87554 0.0
C861 C 0.26142 0.16764 0.92367 0.0
N862 N 0.24799 0.19007 0.83706 0.0
N863 N 0.26464 0.18286 0.90364 0.0
H864 H 0.0737 0.97758 0.30507 0.0
H865 H 0.03616 0.03439 0.43669 0.0
H866 H 0.1152 0.03409 0.34335 0.0
H867 H -0.00245 0.97571 0.39901 0.0
H868 H 0.0692 0.02975 0.40678 0.0
H869 H 0.04932 0.97227 0.34258 0.0
C870 C 0.07773 0.98887 0.32142 0.0
C871 C 0.09625 0.00664 0.32093 0.0
C872 C 0.0538 0.01744 0.4054 0.0
C873 C 0.06828 0.00065 0.36409 0.0
C874 C 0.03511 0.01994 0.4226 0.0
C875 C 0.01447 0.00515 0.4203 0.0
C876 C 0.05143 0.00035 0.3856 0.0
C877 C 0.01345 0.98717 0.40146 0.0
C878 C 0.06386 0.98571 0.34293 0.0
C879 C 0.10092 0.02038 0.34284 0.0
N880 N 0.03159 0.98543 0.38462 0.0
N881 N 0.0868 0.01733 0.36346 0.0
H882 H 0.25823 0.81413 0.54731 0.0
H883 H 0.20977 0.83235 0.68759 0.0
H884 H 0.2155 0.87561 0.57164 0.0
H885 H 0.25455 0.77133 0.66619 0.0
H886 H 0.21039 0.84697 0.64443 0.0
H887 H 0.25574 0.79676 0.58983 0.0
C888 C 0.24823 0.82392 0.56153 0.0
C889 C 0.23712 0.84643 0.5559 0.0
C890 C 0.22007 0.83035 0.64907 0.0
C891 C 0.23425 0.82667 0.60454 0.0
C892 C 0.21975 0.82195 0.67382 0.0
C893 C 0.23222 0.80057 0.68068 0.0
C894 C 0.23299 0.81741 0.63082 0.0
C895 C 0.24468 0.78789 0.66181 0.0
C896 C 0.24686 0.814 0.5858 0.0
C897 C 0.22443 0.85828 0.57508 0.0
N898 N 0.24482 0.79655 0.63773 0.0
N899 N 0.2234 0.84829 0.5985 0.0
H900 H 0.44529 0.96953 0.78574 0.0
H901 H 0.44602 0.99074 0.93411 0.0
H902 H 0.38856 0.00627 0.82555 0.0
H903 H 0.51109 0.98496 0.89079 0.0
H904 H 0.4227 0.98695 0.8953 0.0
H905 H 0.46789 0.96665 0.82524 0.0
C906 C 0.43761 0.97696 0.8028 0.0
C907 C 0.41515 0.98831 0.80245 0.0
C908 C 0.44208 0.98629 0.89438 0.0
C909 C 0.44057 0.98469 0.84744 0.0
C910 C 0.45539 0.98827 0.9165 0.0
C911 C 0.48053 0.98846 0.91561 0.0
C912 C 0.454 0.98417 0.87131 0.0
C913 C 0.49174 0.9852 0.89226 0.0
C914 C 0.45048 0.9753 0.82524 0.0
C915 C 0.40594 -0.0024 0.82501 0.0
N916 N 0.47837 0.98329 0.87095 0.0
N917 N 0.41868 0.9955 0.84668 0.0
H918 H 0.29321 0.18688 0.04206 0.0
H919 H 0.24831 0.19367 0.18483 0.0
H920 H 0.24373 0.13354 0.07385 0.0
H921 H 0.27423 0.25675 0.14282 0.0
H922 H 0.25401 0.16777 0.14733 0.0
H923 H 0.29354 0.20919 0.08205 0.0
C924 C 0.2825 0.17978 0.05748 0.0
C925 C 0.26824 0.15844 0.05453 0.0
C926 C 0.25866 0.18724 0.14649 0.0
C927 C 0.26874 0.18379 0.10042 0.0
C928 C 0.2556 0.20195 0.16789 0.0
C929 C 0.26066 0.22739 0.16681 0.0
C930 C 0.26719 0.19805 0.12413 0.0
C931 C 0.26989 0.23725 0.14436 0.0
C932 C 0.28269 0.19255 0.08028 0.0
C933 C 0.25479 0.15007 0.07523 0.0
N934 N 0.27281 0.22258 0.12392 0.0
N935 N 0.25535 0.16278 0.09732 0.0
H936 H 0.15649 0.1171 0.98509 0.0
H937 H 0.09519 0.98324 -0.00427 0.0
H938 H 0.19591 0.04909 0.98971 0.0
H939 H 0.05452 0.05025 0.98837 0.0
H940 H 0.13206 0.00724 0.99168 0.0
H941 H 0.11902 0.0932 0.98463 0.0
C942 C 0.1573 0.09713 0.98593 0.0
C943 C 0.17942 0.08509 0.98756 0.0
C944 C 0.11511 0.01676 0.99083 0.0
C945 C 0.13651 0.05763 0.98704 0.0
C946 C 0.09396 0.00304 0.99316 0.0
C947 C 0.07161 0.01474 0.99258 0.0
C948 C 0.11412 0.04249 0.988 0.0
C949 C 0.0713 0.04044 0.98897 0.0
C950 C 0.13586 0.08351 0.98564 0.0
C951 C 0.17931 0.05918 0.98852 0.0
N952 N 0.09225 0.05349 0.987 0.0
N953 N 0.1582 0.04636 0.98834 0.0
H954 H 0.69737 0.45382 0.0158 0.0
H955 H 0.56901 0.48519 0.96457 0.0
H956 H 0.67195 0.43286 0.94188 0.0
H957 H 0.59744 0.51226 0.035 0.0
H958 H 0.60943 0.4747 0.95138 0.0
H959 H 0.66417 0.48245 0.01935 0.0
C960 C 0.68489 0.45538 0.00022 0.0
C961 C 0.68711 0.44053 0.97874 0.0
C962 C 0.60701 0.48369 0.96939 0.0
C963 C 0.64894 0.47324 0.98271 0.0
C964 C 0.58392 0.49018 0.97669 0.0
C965 C 0.57994 0.49974 0.00081 0.0
C966 C 0.62607 0.48635 0.98662 0.0
C967 C 0.59982 0.50477 0.01628 0.0
C968 C 0.66599 0.47186 0.00219 0.0
C969 C 0.6707 0.44368 0.95894 0.0
N970 N 0.62198 0.49753 0.00914 0.0
N971 N 0.65205 0.45939 0.96158 0.0
H972 H 0.81602 0.45077 0.25423 0.0
H973 H 0.80597 0.30506 0.26471 0.0
H974 H 0.87847 0.40479 0.26048 0.0
H975 H 0.74694 0.35429 0.27789 0.0
H976 H 0.83343 0.34066 0.26518 0.0
H977 H 0.79071 0.41507 0.26376 0.0
C978 C 0.82441 0.43312 0.2576 0.0
C979 C 0.84935 0.43065 0.25634 0.0
C980 C 0.8145 0.34356 0.26837 0.0
C981 C 0.82047 0.38966 0.26732 0.0
C982 C 0.79883 0.32325 0.26819 0.0
C983 C 0.77405 0.32674 0.27079 0.0
C984 C 0.80525 0.36743 0.27102 0.0
C985 C 0.76583 0.35073 0.27535 0.0
C986 C 0.80996 0.41276 0.26324 0.0
C987 C 0.85928 0.40742 0.26117 0.0
N988 N 0.78135 0.37017 0.27495 0.0
N989 N 0.84476 0.38769 0.26621 0.0
H990 H 0.80284 0.54751 0.48489 0.0
H991 H 0.9412 0.53698 0.50697 0.0
H992 H 0.84949 0.61159 0.48066 0.0
H993 H 0.89677 0.47558 0.48332 0.0
H994 H 0.90961 0.56536 0.49386 0.0
H995 H 0.83785 0.52106 0.48242 0.0
C996 C 0.82047 0.55599 0.48339 0.0
C997 C 0.82332 0.58173 0.48326 0.0
C998 C 0.90708 0.54572 0.49076 0.0
C999 C 0.8635 0.55164 0.48047 0.0
C1000 C 0.9253 0.52959 0.49785 0.0
C1001 C 0.92158 0.50406 0.49588 0.0
C1002 C 0.88498 0.53599 0.4823 0.0
C1003 C 0.90021 0.49524 0.48507 0.0
C1004 C 0.84045 0.54091 0.48174 0.0
C1005 C 0.84655 0.59178 0.48095 0.0
N1006 N 0.88252 0.51116 0.47908 0.0
N1007 N 0.86583 0.5767 0.48002 0.0
H1008 H 0.11751 0.10093 0.24116 0.0
H1009 H 0.25082 0.15573 0.23281 0.0
H1010 H 0.18078 0.05693 0.23119 0.0
H1011 H 0.191 0.19729 0.26006 0.0
H1012 H 0.22334 0.12217 0.22069 0.0
H1013 H 0.14236 0.13837 0.23829 0.0
C1014 C 0.13661 0.09911 0.23821 0.0
C1015 C 0.14712 0.07569 0.23674 0.0
C1016 C 0.21607 0.1389 0.22862 0.0
C1017 C 0.17561 0.11857 0.23315 0.0
C1018 C 0.23171 0.15819 0.23514 0.0
C1019 C 0.223 0.17938 0.24696 0.0
C1020 C 0.19161 0.14069 0.23441 0.0
C1021 C 0.19824 0.18145 0.25037 0.0
C1022 C 0.15076 0.12053 0.23651 0.0
C1023 C 0.17194 0.07455 0.23274 0.0
N1024 N 0.18337 0.16215 0.24448 0.0
N1025 N 0.18533 0.09566 0.23121 0.0
H1026 H 0.33199 0.88734 0.48471 0.0
H1027 H 0.39212 0.02033 0.50722 0.0
H1028 H 0.29208 0.95381 0.49862 0.0
H1029 H 0.43261 0.9552 0.489 0.0
H1030 H 0.35519 -0.00369 0.50254 0.0
H1031 H 0.36909 0.9119 0.48502 0.0
C1032 C 0.33103 0.90708 0.48781 0.0
C1033 C 0.30894 0.91853 0.49176 0.0
C1034 C 0.37214 0.98729 0.49941 0.0
C1035 C 0.3512 0.94669 0.49207 0.0
C1036 C 0.39326 0.00101 0.50208 0.0
C1037 C 0.41553 0.98976 0.49864 0.0
C1038 C 0.37325 0.96207 0.4934 0.0
C1039 C 0.41586 0.96467 0.49186 0.0
C1040 C 0.35219 0.92109 0.48792 0.0
C1041 C 0.30872 0.94418 0.49557 0.0
N1042 N 0.39502 0.95163 0.48963 0.0
N1043 N 0.32953 0.95736 0.49571 0.0
H1044 H 0.79913 0.55299 0.26963 0.0
H1045 H 0.79479 0.67991 0.19296 0.0
H1046 H 0.84289 0.57013 0.20492 0.0
H1047 H 0.75899 0.6693 0.26415 0.0
H1048 H 0.80692 0.63698 0.19373 0.0
H1049 H 0.77927 0.59284 0.26478 0.0
C1050 C 0.80442 0.56501 0.25427 0.0
C1051 C 0.82286 0.55831 0.23777 0.0
C1052 C 0.79628 0.64393 0.20914 0.0
C1053 C 0.80017 0.6038 0.23212 0.0
C1054 C 0.78929 0.6685 0.20872 0.0
C1055 C 0.77616 0.6784 0.22876 0.0
C1056 C 0.79024 0.62899 0.2298 0.0
C1057 C 0.76925 0.66251 0.24841 0.0
C1058 C 0.79309 0.58775 0.25156 0.0
C1059 C 0.82893 0.5746 0.21821 0.0
N1060 N 0.77662 0.63862 0.2486 0.0
N1061 N 0.81769 0.59659 0.21601 0.0
H1062 H 0.64164 0.42189 0.72808 0.0
H1063 H 0.74016 0.32867 0.77626 0.0
H1064 H 0.67726 0.42954 0.8 0.0
H1065 H 0.69662 0.31641 0.71029 0.0
H1066 H 0.71319 0.36175 0.78916 0.0
H1067 H 0.65833 0.38063 0.7239 0.0
C1068 C 0.65298 0.4149 0.74301 0.0
C1069 C 0.65831 0.42936 0.76426 0.0
C1070 C 0.70904 0.35132 0.77228 0.0
C1071 C 0.67747 0.38196 0.75966 0.0
C1072 C 0.72422 0.33216 0.76518 0.0
C1073 C 0.72032 0.31973 0.7424 0.0
C1074 C 0.69025 0.35827 0.7561 0.0
C1075 C 0.69998 0.32548 0.72816 0.0
C1076 C 0.66237 0.39122 0.74071 0.0
C1077 C 0.67284 0.41914 0.78317 0.0
N1078 N 0.68592 0.34463 0.73499 0.0
N1079 N 0.68212 0.39619 0.7803 0.0
H1080 H 0.0189 0.82135 0.88919 0.0
H1081 H 0.96365 0.91365 0.98766 0.0
H1082 H 0.94729 0.81101 0.91812 0.0
H1083 H 0.02299 0.93307 0.93976 0.0
H1084 H 0.95486 0.87787 0.96064 0.0
H1085 H 0.01983 0.86298 0.90704 0.0
C1086 C 0.00339 0.82779 0.89937 0.0
C1087 C 0.98307 0.81253 0.90232 0.0
C1088 C 0.96931 0.89041 0.95551 0.0
C1089 C 0.98395 0.86039 0.92277 0.0
C1090 C 0.97402 0.9111 0.97067 0.0
C1091 C -0.00621 0.92652 0.96562 0.0
C1092 C 0.98492 0.88486 0.93561 0.0
C1093 C 0.00731 0.92183 0.94399 0.0
C1094 C 0.00383 0.85169 0.90935 0.0
C1095 C 0.96339 0.82206 0.91547 0.0
N1096 N 0.00297 0.90115 0.93009 0.0
N1097 N 0.96441 0.84525 0.92543 0.0
H1098 H 0.94397 0.27836 0.6806 0.0
H1099 H 0.82227 0.22029 0.73013 0.0
H1100 H 0.93179 0.19963 0.68588 0.0
H1101 H 0.84141 0.29733 0.73759 0.0
H1102 H 0.86386 0.21124 0.71942 0.0
H1103 H 0.90803 0.28501 0.70553 0.0
C1104 C 0.93377 0.26245 0.68711 0.0
C1105 C 0.94071 0.23842 0.68087 0.0
C1106 C 0.85912 0.23003 0.72405 0.0
C1107 C 0.89939 0.24588 0.70942 0.0
C1108 C 0.83543 0.23512 0.73056 0.0
C1109 C 0.82841 0.25956 0.73476 0.0
C1110 C 0.87574 0.24961 0.72145 0.0
C1111 C 0.84606 0.27824 0.73425 0.0
C1112 C 0.9133 0.26625 0.7015 0.0
C1113 C 0.92698 0.21849 0.69011 0.0
N1114 N 0.8688 0.27294 0.72728 0.0
N1115 N 0.90677 0.22267 0.70364 0.0
H1116 H 0.54725 0.19186 0.43447 0.0
H1117 H 0.47202 0.06581 0.44929 0.0
H1118 H 0.48057 0.17603 0.39591 0.0
H1119 H 0.52568 0.09006 0.50253 0.0
H1120 H 0.48242 0.10095 0.42214 0.0
H1121 H 0.54564 0.15055 0.45328 0.0
C1122 C 0.53228 0.17971 0.42993 0.0
C1123 C 0.51385 0.18759 0.41382 0.0
C1124 C 0.49244 0.0982 0.4394 0.0
C1125 C 0.51218 0.14006 0.43492 0.0
C1126 C 0.48682 0.07789 0.45463 0.0
C1127 C 0.49831 0.0749 0.47791 0.0
C1128 C 0.50951 0.11573 0.44771 0.0
C1129 C 0.51675 0.09153 0.48446 0.0
C1130 C 0.53144 0.15609 0.4406 0.0
C1131 C 0.49501 0.17092 0.40848 0.0
N1132 N 0.52159 0.11145 0.4696 0.0
N1133 N 0.49465 0.148 0.41902 0.0
H1134 H 0.56959 0.76576 0.15328 0.0
H1135 H 0.66171 0.69159 0.23601 0.0
H1136 H 0.55907 0.68891 0.17257 0.0
H1137 H 0.68028 0.76016 0.19932 0.0
H1138 H 0.6255 0.68862 0.21012 0.0
H1139 H 0.61104 0.76331 0.16801 0.0
C1140 C 0.576 0.74836 0.1606 0.0
C1141 C 0.56076 0.72759 0.16204 0.0
C1142 C 0.63775 0.70403 0.20723 0.0
C1143 C 0.60819 0.72464 0.1788 0.0
C1144 C 0.65845 0.70564 0.22191 0.0
C1145 C 0.67393 0.72608 0.21962 0.0
C1146 C 0.63221 0.72337 0.19066 0.0
C1147 C 0.66892 0.74393 0.20131 0.0
C1148 C 0.59973 0.74692 0.16879 0.0
C1149 C 0.57013 0.70543 0.17133 0.0
N1150 N 0.64818 0.74244 0.18783 0.0
N1151 N 0.59317 0.70462 0.17963 0.0
H1152 H 0.95627 0.20155 0.5501 0.0
H1153 H 0.00267 0.0626 0.53961 0.0
H1154 H 0.00424 0.16852 0.60414 0.0
H1155 H 0.95855 0.09813 0.48354 0.0
H1156 H 0.00272 0.10074 0.56424 0.0
H1157 H 0.95585 0.16304 0.52627 0.0
C1158 C 0.96664 0.18617 0.55701 0.0
C1159 C 0.98033 0.18826 0.5791 0.0
C1160 C -0.00693 0.10014 0.54652 0.0
C1161 C 0.98002 0.14414 0.55189 0.0
C1162 C -0.00697 0.07838 0.53243 0.0
C1163 C 0.98056 0.07709 0.50945 0.0
C1164 C 0.98054 0.12073 0.53756 0.0
C1165 C 0.96844 0.09818 0.50111 0.0
C1166 C 0.96645 0.16419 0.54337 0.0
C1167 C -0.00655 0.16772 0.58717 0.0
N1168 N 0.96871 0.11908 0.51517 0.0
N1169 N -0.00701 0.14651 0.57354 0.0
H1170 H 0.5783 0.2589 0.35952 0.0
H1171 H 0.66703 0.22622 0.25192 0.0
H1172 H 0.562 0.20095 0.30615 0.0
H1173 H 0.68946 0.26334 0.31978 0.0
H1174 H 0.63087 0.21147 0.27338 0.0
H1175 H 0.62025 0.25773 0.34686 0.0
C1176 C 0.58356 0.2459 0.34512 0.0
C1177 C 0.56655 0.23027 0.33359 0.0
C1178 C 0.64413 0.22198 0.28396 0.0
C1179 C 0.61471 0.22877 0.31898 0.0
C1180 C 0.66504 0.22995 0.27183 0.0
C1181 C 0.68137 0.24563 0.28427 0.0
C1182 C 0.63932 0.23046 0.30841 0.0
C1183 C 0.6774 0.25097 0.30969 0.0
C1184 C 0.6076 0.24504 0.33808 0.0
C1185 C 0.5745 0.21349 0.31536 0.0
N1186 N 0.65647 0.24396 0.32076 0.0
N1187 N 0.59795 0.21345 0.3083 0.0
H1188 H 0.5472 0.82055 0.08246 0.0
H1189 H 0.45509 0.90386 0.00606 0.0
H1190 H 0.47144 0.80504 0.07449 0.0
H1191 H 0.52669 0.92803 0.0254 0.0
H1192 H 0.46444 0.86254 0.02135 0.0
H1193 H 0.54305 0.85537 0.05332 0.0
C1194 C 0.52974 0.82434 0.07444 0.0
C1195 C 0.50955 0.81013 0.08122 0.0
C1196 C 0.47834 0.87669 0.02172 0.0
C1197 C 0.50478 0.84964 0.04773 0.0
C1198 C 0.47307 0.90019 0.01279 0.0
C1199 C 0.4902 0.91927 0.01448 0.0
C1200 C 0.50078 0.87237 0.03283 0.0
C1201 C 0.51317 0.91367 0.02343 0.0
C1202 C 0.52742 0.84416 0.05779 0.0
C1203 C 0.48742 0.81573 0.07012 0.0
N1204 N 0.51769 0.89078 0.03277 0.0
N1205 N 0.48562 0.83512 0.05406 0.0
H1206 H 0.94808 0.70942 0.77981 0.0
H1207 H 0.8227 0.77969 0.7766 0.0
H1208 H 0.93283 0.77416 0.82414 0.0
H1209 H 0.83231 0.70449 0.75247 0.0
H1210 H 0.86623 0.78363 0.7832 0.0
H1211 H 0.90882 0.71305 0.75951 0.0
C1212 C 0.93662 0.72457 0.78507 0.0
C1213 C 0.94359 0.74126 0.80402 0.0
C1214 C 0.85885 0.76649 0.77584 0.0
C1215 C 0.89874 0.7456 0.78074 0.0
C1216 C 0.83411 0.76437 0.77175 0.0
C1217 C 0.8241 0.74178 0.76391 0.0
C1218 C 0.87349 0.74586 0.77192 0.0
C1219 C 0.83948 0.72221 0.75853 0.0
C1220 C 0.91422 0.72662 0.77347 0.0
C1221 C 0.92804 0.76064 0.80991 0.0
N1222 N 0.86339 0.72462 0.76285 0.0
N1223 N 0.90626 0.76216 0.79847 0.0
H1224 H 0.93066 0.0289 0.79228 0.0
H1225 H 0.98108 0.9681 0.91734 0.0
H1226 H 0.93346 0.95004 0.80372 0.0
H1227 H 0.98366 0.04619 0.90118 0.0
H1228 H 0.9705 0.96013 0.87317 0.0
H1229 H 0.95599 0.03486 0.82934 0.0
C1230 C 0.93679 0.01281 0.80247 0.0
C1231 C 0.92962 0.98897 0.79511 0.0
C1232 C 0.97393 0.97897 0.87917 0.0
C1233 C 0.95853 -0.00438 0.83782 0.0
C1234 C 0.98019 0.98349 0.90433 0.0
C1235 C 0.98281 0.00787 0.91297 0.0
C1236 C 0.97028 -0.001 0.86275 0.0
C1237 C 0.98135 0.02713 0.89537 0.0
C1238 C 0.95134 0.0162 0.82363 0.0
C1239 C 0.93838 0.96878 0.80886 0.0
N1240 N 0.97479 0.02232 0.87124 0.0
N1241 N 0.95206 0.97257 0.82979 0.0
H1242 H 0.75209 0.12622 0.57938 0.0
H1243 H 0.75101 0.26234 0.63691 0.0
H1244 H 0.77263 0.19209 0.5385 0.0
H1245 H 0.74626 0.19681 0.68321 0.0
H1246 H 0.75338 0.23642 0.59973 0.0
H1247 H 0.74568 0.15143 0.61692 0.0
C1248 C 0.75536 0.14596 0.57833 0.0
C1249 C 0.76294 0.1571 0.5558 0.0
C1250 C 0.75171 0.22767 0.61799 0.0
C1251 C 0.75534 0.18595 0.59847 0.0
C1252 C 0.75025 0.24247 0.63927 0.0
C1253 C 0.74872 0.23173 0.66327 0.0
C1254 C 0.75165 0.20191 0.62063 0.0
C1255 C 0.74748 0.20587 0.66507 0.0
C1256 C 0.75164 0.1603 0.59974 0.0
C1257 C 0.76687 0.18271 0.55548 0.0
N1258 N 0.74918 0.19178 0.64398 0.0
N1259 N 0.76294 0.19628 0.57648 0.0
H1260 H 0.57905 0.0581 0.32645 0.0
H1261 H 0.49014 0.9687 0.40019 0.0
H1262 H 0.55855 0.98445 0.30289 0.0
H1263 H 0.51479 0.03895 0.4292 0.0
H1264 H 0.50576 0.97994 0.35887 0.0
H1265 H 0.54818 0.05618 0.3591 0.0
C1266 C 0.56796 0.0416 0.32803 0.0
C1267 C 0.57171 0.02119 0.31229 0.0
C1268 C 0.50724 0.99322 0.37407 0.0
C1269 C 0.53623 0.01902 0.34928 0.0
C1270 C 0.49808 0.98689 0.39757 0.0
C1271 C 0.5015 0.00281 0.4181 0.0
C1272 C 0.52035 0.01537 0.37129 0.0
C1273 C 0.51183 0.02617 0.41379 0.0
C1274 C 0.55028 0.04058 0.34657 0.0
C1275 C 0.55663 0.00043 0.31494 0.0
N1276 N 0.52152 0.03152 0.39095 0.0
N1277 N 0.53972 -0.00018 0.33321 0.0
H1278 H 0.73716 0.87502 0.09251 0.0
H1279 H 0.72152 0.75664 0.17441 0.0
H1280 H 0.69098 0.81435 0.07006 0.0
H1281 H 0.75433 0.82411 0.20111 0.0
H1282 H 0.70204 0.77978 0.14058 0.0
H1283 H 0.73699 0.85942 0.13544 0.0
C1284 C 0.72693 0.85838 0.09668 0.0
C1285 C 0.71456 0.84558 0.07765 0.0
C1286 C 0.71272 0.78975 0.15439 0.0
C1287 C 0.71432 0.82745 0.12684 0.0
C1288 C 0.72354 0.77658 0.17388 0.0
C1289 C 0.73938 0.78865 0.1904 0.0
C1290 C 0.71843 0.81494 0.15127 0.0
C1291 C 0.74208 0.81429 0.18868 0.0
C1292 C 0.72661 0.84959 0.12128 0.0
C1293 C 0.70106 0.82451 0.08419 0.0
N1294 N 0.73215 0.82655 0.16906 0.0
N1295 N 0.7017 0.81577 0.1082 0.0
H1296 H 0.89095 0.97159 0.66521 0.0
H1297 H 0.97402 0.02847 0.55761 0.0
H1298 H 0.90929 0.04916 0.66016 0.0
H1299 H 0.96004 0.95085 0.56895 0.0
H1300 H 0.94251 0.03794 0.58837 0.0
H1301 H 0.90858 0.96521 0.62387 0.0
C1302 C 0.89859 0.98732 0.65535 0.0
C1303 C 0.8991 0.01084 0.66638 0.0
C1304 C 0.94594 0.01885 0.58363 0.0
C1305 C 0.91945 0.00367 0.61898 0.0
C1306 C 0.96372 0.01352 0.56596 0.0
C1307 C 0.96955 0.98891 0.56112 0.0
C1308 C 0.93418 -0.00066 0.59628 0.0
C1309 C 0.95605 0.97007 0.57247 0.0
C1310 C 0.90858 0.9837 0.63166 0.0
C1311 C 0.90884 0.03063 0.65249 0.0
N1312 N 0.93918 0.97566 0.58975 0.0
N1313 N 0.91897 0.02654 0.62965 0.0
H1314 H 0.70746 0.16771 0.44024 0.0
H1315 H 0.80158 0.21934 0.33961 0.0
H1316 H 0.78302 0.15137 0.43989 0.0
H1317 H 0.72506 0.22566 0.33001 0.0
H1318 H 0.79515 0.20265 0.38165 0.0
H1319 H 0.7137 0.19571 0.4045 0.0
C1320 C 0.72538 0.17011 0.43276 0.0
C1321 C 0.74472 0.15695 0.44286 0.0
C1322 C 0.77973 0.20799 0.37056 0.0
C1323 C 0.75197 0.18911 0.40227 0.0
C1324 C 0.7834 0.21767 0.3466 0.0
C1325 C 0.7638 0.22354 0.33121 0.0
C1326 C 0.75626 0.20384 0.37915 0.0
C1327 C 0.74065 0.22129 0.34129 0.0
C1328 C 0.72891 0.18612 0.41241 0.0
C1329 C 0.76753 0.16087 0.43252 0.0
N1330 N 0.73747 0.21116 0.36453 0.0
N1331 N 0.77049 0.17651 0.41277 0.0
H1332 H 0.53116 0.01793 0.21145 0.0
H1333 H 0.54094 0.00945 0.06166 0.0
H1334 H 0.59612 -0.00082 0.17219 0.0
H1335 H 0.47405 0.01463 0.10193 0.0
H1336 H 0.56254 0.0128 0.10166 0.0
H1337 H 0.51093 0.0229 0.17101 0.0
C1338 C 0.54116 0.01483 0.19433 0.0
C1339 C 0.56528 0.00791 0.19516 0.0
C1340 C 0.54314 0.01346 0.10167 0.0
C1341 C 0.54233 0.01378 0.14888 0.0
C1342 C 0.53081 0.01173 0.07885 0.0
C1343 C 0.50566 0.01142 0.07854 0.0
C1344 C 0.53018 0.01501 0.12421 0.0
C1345 C 0.49345 0.01442 0.10135 0.0
C1346 C 0.52962 0.01775 0.17125 0.0
C1347 C 0.57743 0.0043 0.17239 0.0
N1348 N 0.50583 0.01589 0.1233 0.0
N1349 N 0.56579 0.00724 0.15014 0.0
H1350 H 0.73463 0.8188 0.95996 0.0
H1351 H 0.73567 0.8075 0.80951 0.0
H1352 H 0.7289 0.8817 0.9104 0.0
H1353 H 0.73978 0.74552 0.86055 0.0
H1354 H 0.73111 0.83503 0.84579 0.0
H1355 H 0.73492 0.79167 0.92332 0.0
C1356 C 0.73341 0.82692 0.94137 0.0
C1357 C 0.73184 0.85258 0.93827 0.0
C1358 C 0.73287 0.81537 0.84897 0.0
C1359 C 0.73215 0.82157 0.8961 0.0
C1360 C 0.73537 0.79963 0.82827 0.0
C1361 C 0.73827 0.77414 0.83195 0.0
C1362 C 0.73325 0.80553 0.87348 0.0
C1363 C 0.73783 0.76504 0.85672 0.0
C1364 C 0.73353 0.8114 0.92041 0.0
C1365 C 0.7302 0.86202 0.91368 0.0
N1366 N 0.7355 0.7807 0.87646 0.0
N1367 N 0.73048 0.84653 0.89353 0.0
H1368 H 0.78877 0.9469 0.00512 0.0
H1369 H 0.93263 0.94575 0.00704 0.0
H1370 H 0.82985 0.88075 0.01669 0.0
H1371 H 0.89034 0.01112 -0.00461 0.0
H1372 H 0.89547 0.92164 0.01217 0.0
H1373 H 0.82612 0.9708 0.0028 0.0
C1374 C 0.80564 0.93739 0.0072 0.0
C1375 C 0.80614 0.91176 0.01105 0.0
C1376 C 0.89438 0.94128 0.00858 0.0
C1377 C 0.84909 0.93904 0.00841 0.0
C1378 C 0.9156 0.95507 0.00571 0.0
C1379 C 0.9147 0.98052 0.00066 0.0
C1380 C 0.87211 0.95303 0.00643 0.0
C1381 C 0.89205 0.99156 -0.00089 0.0
C1382 C 0.827 0.95105 0.00589 0.0
C1383 C 0.82858 0.90047 0.01366 0.0
N1384 N 0.87175 0.97776 0.00191 0.0
N1385 N 0.84914 0.91416 0.01224 0.0
H1386 H 0.3018 0.53572 0.98554 0.0
H1387 H 0.42963 0.51214 0.04226 0.0
H1388 H 0.32407 0.56124 0.05906 0.0
H1389 H 0.40419 0.48136 0.97215 0.0
H1390 H 0.38835 0.52111 0.05394 0.0
H1391 H 0.33586 0.508 0.98478 0.0
C1392 C 0.31378 0.53534 0.00163 0.0
C1393 C 0.31044 0.55122 0.02213 0.0
C1394 C 0.39166 0.51164 0.03635 0.0
C1395 C 0.34966 0.51962 0.02135 0.0
C1396 C 0.41525 0.50612 0.0299 0.0
C1397 C 0.42026 0.4961 0.0062 0.0
C1398 C 0.37317 0.50741 0.01874 0.0
C1399 C 0.40102 0.48937 0.9905 0.0
C1400 C 0.33318 0.51938 0.00127 0.0
C1401 C 0.32621 0.54955 0.0427 0.0
N1402 N 0.37835 0.49562 -0.00318 0.0
N1403 N 0.34543 0.53439 0.04159 0.0
H1404 H 0.1087 0.60465 0.7501 0.0
H1405 H 0.21573 0.67406 0.68016 0.0
H1406 H 0.16548 0.57011 0.70844 0.0
H1407 H 0.17937 0.70481 0.74425 0.0
H1408 H 0.18564 0.64103 0.67826 0.0
H1409 H 0.12456 0.64535 0.73741 0.0
C1410 C 0.12433 0.60566 0.73808 0.0
C1411 C 0.13618 0.58413 0.7307 0.0
C1412 C 0.18387 0.6554 0.6923 0.0
C1413 C 0.15376 0.63018 0.71565 0.0
C1414 C 0.20093 0.6743 0.69331 0.0
C1415 C 0.20033 0.69169 0.71283 0.0
C1416 C 0.16634 0.65382 0.71111 0.0
C1417 C 0.18059 0.69151 0.72911 0.0
C1418 C 0.13324 0.62879 0.73079 0.0
C1419 C 0.15616 0.58631 0.71497 0.0
N1420 N 0.16463 0.67234 0.72835 0.0
N1421 N 0.16439 0.60895 0.70805 0.0
H1422 H 0.14522 0.37612 0.4967 0.0
H1423 H 0.08522 0.50639 0.52239 0.0
H1424 H 0.18411 0.44184 0.51976 0.0
H1425 H 0.04938 0.44612 0.48439 0.0
H1426 H 0.11843 0.47904 0.53281 0.0
H1427 H 0.10763 0.39812 0.50187 0.0
C1428 C 0.14587 0.39517 0.50292 0.0
C1429 C 0.16788 0.40731 0.50741 0.0
C1430 C 0.103 0.47155 0.52285 0.0
C1431 C 0.12486 0.43246 0.51363 0.0
C1432 C 0.08395 0.48704 0.51723 0.0
C1433 C 0.06456 0.47823 0.50291 0.0
C1434 C 0.10274 0.44727 0.51356 0.0
C1435 C 0.06386 0.45332 0.49598 0.0
C1436 C 0.12438 0.40766 0.50598 0.0
C1437 C 0.16758 0.43189 0.51573 0.0
N1438 N 0.08293 0.43872 0.50103 0.0
N1439 N 0.1464 0.44371 0.5184 0.0
H1440 H 0.81678 0.94402 0.76926 0.0
H1441 H 0.80106 0.80049 0.73811 0.0
H1442 H 0.8695 0.9001 0.7311 0.0
H1443 H 0.744 0.84704 0.76344 0.0
H1444 H 0.82997 0.83381 0.74749 0.0
H1445 H 0.79342 0.90634 0.77771 0.0
C1446 C 0.82356 0.92646 0.76284 0.0
C1447 C 0.84492 0.92531 0.74903 0.0
C1448 C 0.81122 0.83648 0.75178 0.0
C1449 C 0.81838 0.88206 0.75884 0.0
C1450 C 0.79481 0.81728 0.74689 0.0
C1451 C 0.77026 0.82108 0.75026 0.0
C1452 C 0.80281 0.85958 0.75984 0.0
C1453 C 0.76288 0.84344 0.76082 0.0
C1454 C 0.81025 0.90493 0.76774 0.0
C1455 C 0.85294 0.90196 0.74144 0.0
N1456 N 0.77903 0.86202 0.76485 0.0
N1457 N 0.83957 0.88133 0.74623 0.0
H1458 H 0.66206 0.10806 0.53192 0.0
H1459 H 0.59459 0.9834 0.49074 0.0
H1460 H 0.69516 0.04836 0.49142 0.0
H1461 H 0.55709 0.04754 0.51774 0.0
H1462 H 0.63235 0.00563 0.49589 0.0
H1463 H 0.62403 0.08493 0.53127 0.0
C1464 C 0.66134 0.09011 0.52294 0.0
C1465 C 0.68175 0.08014 0.51162 0.0
C1466 C 0.61588 0.01485 0.50076 0.0
C1467 C 0.63854 0.05367 0.51097 0.0
C1468 C 0.59426 0.00214 0.49787 0.0
C1469 C 0.57257 0.01368 0.50361 0.0
C1470 C 0.61592 0.03931 0.50945 0.0
C1471 C 0.57338 0.03794 0.51299 0.0
C1472 C 0.63966 0.07695 0.52257 0.0
C1473 C 0.67985 0.05682 0.50026 0.0
N1474 N 0.59474 0.05004 0.51551 0.0
N1475 N 0.65863 0.04438 0.50025 0.0
H1476 H 0.18656 0.45764 0.77713 0.0
H1477 H 0.22675 0.33113 0.71767 0.0
H1478 H 0.184 0.4437 0.69715 0.0
H1479 H 0.24339 0.35299 0.79378 0.0
H1480 H 0.21598 0.37383 0.70801 0.0
H1481 H 0.2112 0.42105 0.78252 0.0
C1482 C 0.19136 0.447 0.76067 0.0
C1483 C 0.18296 0.45358 0.73671 0.0
C1484 C 0.22265 0.36946 0.72663 0.0
C1485 C 0.21105 0.41146 0.74273 0.0
C1486 C 0.22919 0.34513 0.73199 0.0
C1487 C 0.23612 0.3386 0.75646 0.0
C1488 C 0.22273 0.38715 0.74604 0.0
C1489 C 0.23803 0.3573 0.77467 0.0
C1490 C 0.20553 0.42614 0.76373 0.0
C1491 C 0.18995 0.43922 0.71601 0.0
N1492 N 0.23099 0.38061 0.76922 0.0
N1493 N 0.20328 0.41863 0.71954 0.0
H1494 H 0.3498 0.58109 0.26495 0.0
H1495 H 0.24482 0.66645 0.21867 0.0
H1496 H 0.30741 0.56426 0.19887 0.0
H1497 H 0.29808 0.68961 0.2728 0.0
H1498 H 0.2702 0.63177 0.2068 0.0
H1499 H 0.3331 0.62253 0.26549 0.0
C1500 C 0.33694 0.58609 0.25056 0.0
C1501 C 0.32976 0.56903 0.23204 0.0
C1502 C 0.27678 0.64489 0.22065 0.0
C1503 C 0.31058 0.61665 0.23245 0.0
C1504 C 0.26248 0.66496 0.22705 0.0
C1505 C 0.26968 0.68109 0.24632 0.0
C1506 C 0.29805 0.64068 0.2342 0.0
C1507 C 0.29216 0.67774 0.25752 0.0
C1508 C 0.32756 0.60987 0.25072 0.0
C1509 C 0.3133 0.57673 0.21363 0.0
N1510 N 0.30537 0.65764 0.25165 0.0
N1511 N 0.30405 0.59987 0.21448 0.0
H1512 H 0.48251 0.67326 0.61753 0.0
H1513 H 0.52411 0.58757 0.50647 0.0
H1514 H 0.54492 0.69048 0.57279 0.0
H1515 H 0.47557 0.56307 0.56432 0.0
H1516 H 0.53595 0.62279 0.53288 0.0
H1517 H 0.48199 0.6315 0.60011 0.0
C1518 C 0.49615 0.66826 0.60406 0.0
C1519 C 0.51362 0.68556 0.59641 0.0
C1520 C 0.52334 0.60928 0.54024 0.0
C1521 C 0.51315 0.63755 0.57631 0.0
C1522 C 0.51693 0.5889 0.52533 0.0
C1523 C 0.49916 0.57221 0.53345 0.0
C1524 C 0.51136 0.61328 0.5631 0.0
C1525 C 0.48965 0.57533 0.5576 0.0
C1526 C 0.49597 0.6443 0.59426 0.0
C1527 C 0.53101 0.67784 0.57912 0.0
N1528 N 0.49545 0.59577 0.57135 0.0
N1529 N 0.53015 0.65454 0.56941 0.0
H1530 H 0.56761 0.30408 0.80902 0.0
H1531 H 0.65717 0.20578 0.7509 0.0
H1532 H 0.55753 0.22492 0.8115 0.0
H1533 H 0.6755 0.28292 0.75961 0.0
H1534 H 0.61596 0.2147 0.76261 0.0
H1535 H 0.60286 0.29843 0.78228 0.0
C1536 C 0.57266 0.28553 0.80375 0.0
C1537 C 0.55981 0.2649 0.81281 0.0
C1538 C 0.62882 0.22982 0.76149 0.0
C1539 C 0.59988 0.25838 0.78205 0.0
C1540 C 0.65229 0.22475 0.75458 0.0
C1541 C 0.66976 0.2436 0.75459 0.0
C1542 C 0.62282 0.25385 0.76886 0.0
C1543 C 0.66253 0.26788 0.75939 0.0
C1544 C 0.59275 0.28235 0.78847 0.0
C1545 C 0.56708 0.24133 0.80527 0.0
N1546 N 0.63965 0.27226 0.7669 0.0
N1547 N 0.58668 0.23873 0.79048 0.0
H1548 H 0.00053 0.34888 0.12329 0.0
H1549 H 0.97926 0.39509 0.98194 0.0
H1550 H 0.98419 0.30058 0.06074 0.0
H1551 H 0.01512 0.43956 0.03808 0.0
H1552 H 0.97183 0.3631 0.01362 0.0
H1553 H -0.00182 0.38445 0.09492 0.0
C1554 C -0.00361 0.34573 0.10361 0.0
C1555 C -0.00722 0.32164 0.09434 0.0
C1556 C 0.98078 0.38011 0.01923 0.0
C1557 C 0.98973 0.36237 0.06188 0.0
C1558 C 0.98469 0.3985 0.00126 0.0
C1559 C -0.00274 0.42019 0.00764 0.0
C1560 C 0.98985 0.38328 0.04373 0.0
C1561 C 0.00466 0.42343 0.03266 0.0
C1562 C -0.00498 0.36607 0.08746 0.0
C1563 C 0.98736 0.31875 0.06868 0.0
N1564 N 0.00106 0.40503 0.04981 0.0
N1565 N 0.98601 0.33885 0.05338 0.0
H1566 H 0.93949 0.76456 0.31889 0.0
H1567 H 0.79914 0.74292 0.31448 0.0
H1568 H 0.90095 0.73392 0.38218 0.0
H1569 H 0.83707 0.79276 0.26485 0.0
H1570 H 0.83497 0.74079 0.34123 0.0
H1571 H 0.90143 0.77518 0.29929 0.0
C1572 C 0.92299 0.76001 0.32864 0.0
C1573 C 0.92336 0.74817 0.35209 0.0
C1574 C 0.83524 0.75263 0.32479 0.0
C1575 C 0.87964 0.76034 0.32978 0.0
C1576 C 0.8147 0.75406 0.30969 0.0
C1577 C 0.81522 0.76786 0.28735 0.0
C1578 C 0.85637 0.7649 0.31721 0.0
C1579 C 0.83602 0.7816 0.28175 0.0
C1580 C 0.90125 0.76628 0.31755 0.0
C1581 C 0.90143 0.74298 0.36401 0.0
N1582 N 0.85587 0.77945 0.29634 0.0
N1583 N 0.88039 0.74887 0.3526 0.0
H1584 H 0.51319 0.32956 0.89303 0.0
H1585 H 0.51074 0.39605 0.02656 0.0
H1586 H 0.49478 0.29068 0.96142 0.0
H1587 H 0.5019 0.43505 0.95624 0.0
H1588 H 0.50939 0.35691 0.00351 0.0
H1589 H 0.5143 0.36828 0.91662 0.0
C1590 C 0.50953 0.32915 0.91304 0.0
C1591 C 0.50382 0.3069 0.92531 0.0
C1592 C 0.50761 0.37406 0.99321 0.0
C1593 C 0.50506 0.35108 0.95231 0.0
C1594 C 0.50841 0.39638 0.00631 0.0
C1595 C 0.50639 0.41883 0.99329 0.0
C1596 C 0.50517 0.37427 0.96691 0.0
C1597 C 0.50337 0.41818 0.96705 0.0
C1598 C 0.51002 0.35126 0.92643 0.0
C1599 C 0.49915 0.30746 0.95124 0.0
N1600 N 0.50304 0.39624 0.95469 0.0
N1601 N 0.49995 0.32923 0.96393 0.0
H1602 H 0.89795 0.2595 0.11569 0.0
H1603 H 0.83696 0.27152 0.25052 0.0
H1604 H 0.93644 0.26936 0.18569 0.0
H1605 H 0.80162 0.23942 0.18603 0.0
H1606 H 0.87013 0.28491 0.22353 0.0
H1607 H 0.86014 0.26447 0.13829 0.0
C1608 C 0.89849 0.26294 0.13577 0.0
C1609 C 0.9204 0.26358 0.1489 0.0
C1610 C 0.85472 0.27576 0.21507 0.0
C1611 C 0.8772 0.26967 0.17475 0.0
C1612 C 0.83558 0.26856 0.23039 0.0
C1613 C 0.81642 0.25477 0.22032 0.0
C1614 C 0.85474 0.26875 0.18961 0.0
C1615 C 0.81585 0.25055 0.19432 0.0
C1616 C 0.87689 0.26585 0.14862 0.0
C1617 C 0.91997 0.26831 0.17487 0.0
N1618 N 0.83498 0.2571 0.17987 0.0
N1619 N 0.89871 0.27101 0.18696 0.0
H1620 H 0.0077 0.7022 0.4658 0.0
H1621 H 0.95779 0.56346 0.46828 0.0
H1622 H 0.97182 0.66595 0.40359 0.0
H1623 H 0.01511 0.59011 0.51595 0.0
H1624 H 0.95135 0.60572 0.45349 0.0
H1625 H 0.00038 0.66548 0.49173 0.0
C1626 C -0.00186 0.6866 0.45763 0.0
C1627 C 0.99073 0.68696 0.43234 0.0
C1628 C 0.96474 0.60246 0.46789 0.0
C1629 C 0.98188 0.64518 0.46208 0.0
C1630 C 0.96806 0.57843 0.47675 0.0
C1631 C 0.98686 0.57344 0.49349 0.0
C1632 C 0.98037 0.62145 0.47591 0.0
C1633 C 0.0003 0.59335 0.50317 0.0
C1634 C -0.00611 0.66572 0.47249 0.0
C1635 C 0.97822 0.6663 0.42285 0.0
N1636 N -0.00291 0.61648 0.49391 0.0
N1637 N 0.97429 0.64619 0.43769 0.0
H1638 H 0.5482 0.78025 0.69118 0.0
H1639 H 0.66978 0.71688 0.73315 0.0
H1640 H 0.55777 0.70125 0.69123 0.0
H1641 H 0.65637 0.79487 0.73886 0.0
H1642 H 0.62708 0.70963 0.72427 0.0
H1643 H 0.58585 0.78512 0.71422 0.0
C1644 C 0.55813 0.76389 0.69622 0.0
C1645 C 0.54996 0.74034 0.68896 0.0
C1646 C 0.63335 0.72827 0.7281 0.0
C1647 C 0.59334 0.74576 0.71525 0.0
C1648 C 0.65767 0.73232 0.73355 0.0
C1649 C 0.66652 0.75645 0.73688 0.0
C1650 C 0.61796 0.74856 0.72576 0.0
C1651 C 0.65023 0.77597 0.7363 0.0
C1652 C 0.57964 0.76666 0.70946 0.0
C1653 C 0.56347 0.71979 0.69629 0.0
N1654 N 0.62684 0.77164 0.73051 0.0
N1655 N 0.58467 0.72299 0.70872 0.0
H1656 H 0.53761 0.45931 0.71382 0.0
H1657 H 0.51556 0.52801 0.58261 0.0
H1658 H 0.57542 0.52551 0.69063 0.0
H1659 H 0.49869 0.45128 0.59654 0.0
H1660 H 0.52639 0.53288 0.62724 0.0
H1661 H 0.51282 0.46182 0.6758 0.0
C1662 C 0.54049 0.47456 0.70093 0.0
C1663 C 0.55891 0.49196 0.70515 0.0
C1664 C 0.51973 0.51515 0.62061 0.0
C1665 C 0.53051 0.49503 0.66179 0.0
C1666 C 0.51331 0.51245 0.59526 0.0
C1667 C 0.5065 0.48915 0.58597 0.0
C1668 C 0.51901 0.49446 0.63662 0.0
C1669 C 0.50412 0.46948 0.60301 0.0
C1670 C 0.52633 0.47597 0.67925 0.0
C1671 C 0.5617 0.51144 0.68788 0.0
N1672 N 0.51063 0.4725 0.62746 0.0
N1673 N 0.5478 0.51233 0.66684 0.0
H1674 H 0.73559 0.32589 0.94764 0.0
H1675 H 0.7672 0.30306 0.80302 0.0
H1676 H 0.7673 0.38178 0.89972 0.0
H1677 H 0.73781 0.24713 0.85252 0.0
H1678 H 0.76905 0.33177 0.83843 0.0
H1679 H 0.73745 0.29652 0.91304 0.0
C1680 C 0.74292 0.33201 0.9298 0.0
C1681 C 0.75122 0.35636 0.92652 0.0
C1682 C 0.76233 0.31316 0.84154 0.0
C1683 C 0.75348 0.32274 0.88681 0.0
C1684 C 0.76125 0.29676 0.82134 0.0
C1685 C 0.75206 0.27272 0.82471 0.0
C1686 C 0.75417 0.30547 0.86528 0.0
C1687 C 0.74492 0.2655 0.84896 0.0
C1688 C 0.74404 0.31519 0.91006 0.0
C1689 C 0.76063 0.3632 0.90304 0.0
N1690 N 0.74598 0.28186 0.86826 0.0
N1691 N 0.76146 0.34647 0.88402 0.0
H1692 H 0.94258 0.50639 0.19342 0.0
H1693 H 0.97534 0.45488 0.05958 0.0
H1694 H 0.90816 0.44289 0.15908 0.0
H1695 H 0.00964 0.51815 0.09403 0.0
H1696 H 0.95925 0.44283 0.10043 0.0
H1697 H 0.97413 0.50453 0.16193 0.0
C1698 C 0.94172 0.49195 0.17932 0.0
C1699 C 0.92238 0.47515 0.17849 0.0
C1700 C 0.97099 0.45887 0.09931 0.0
C1701 C 0.95852 0.4729 0.1423 0.0
C1702 C 0.98065 0.46544 0.07602 0.0
C1703 C -0.00606 0.48744 0.07352 0.0
C1704 C 0.97431 0.47475 0.11999 0.0
C1705 C -0.00063 0.50108 0.09526 0.0
C1706 C 0.95986 0.49079 0.16142 0.0
C1707 C 0.92251 0.4565 0.16014 0.0
N1708 N 0.98909 0.49483 0.11751 0.0
N1709 N 0.9401 0.45613 0.1425 0.0
H1710 H 0.77693 0.70337 0.45245 0.0
H1711 H 0.7476 0.68068 0.30833 0.0
H1712 H 0.76111 0.63248 0.41859 0.0
H1713 H 0.75327 0.75262 0.34245 0.0
H1714 H 0.76672 0.66278 0.34549 0.0
H1715 H 0.78052 0.72132 0.41025 0.0
C1716 C 0.77439 0.69156 0.43617 0.0
C1717 C 0.76808 0.66655 0.43903 0.0
C1718 C 0.7646 0.68262 0.34454 0.0
C1719 C 0.77249 0.68682 0.39084 0.0
C1720 C 0.75409 0.69284 0.32312 0.0
C1721 C 0.74906 0.71805 0.32249 0.0
C1722 C 0.76944 0.69778 0.36551 0.0
C1723 C 0.75703 0.73304 0.34238 0.0
C1724 C 0.77659 0.70177 0.41211 0.0
C1725 C 0.7654 0.65199 0.4173 0.0
N1726 N 0.76637 0.72261 0.36341 0.0
N1727 N 0.76736 0.66239 0.39417 0.0
H1728 H 0.6235 0.52673 0.8531 0.0
H1729 H 0.50656 0.46681 0.91527 0.0
H1730 H 0.57658 0.4734 0.81696 0.0
H1731 H 0.54371 0.53047 0.9454 0.0
H1732 H 0.5393 0.46099 0.88533 0.0
H1733 H 0.60092 0.52115 0.89224 0.0
C1734 C 0.60859 0.51373 0.85344 0.0
C1735 C 0.60161 0.50088 0.83162 0.0
C1736 C 0.54067 0.47584 0.89894 0.0
C1737 C 0.57597 0.49422 0.87627 0.0
C1738 C 0.52215 0.47893 0.91617 0.0
C1739 C 0.52281 0.4989 0.93284 0.0
C1740 C 0.55957 0.49326 0.8981 0.0
C1741 C 0.54289 0.51466 0.93293 0.0
C1742 C 0.59578 0.5105 0.87578 0.0
C1743 C 0.58232 0.48405 0.8332 0.0
N1744 N 0.5604 0.51173 0.91551 0.0
N1745 N 0.57008 0.48136 0.85506 0.0
H1746 H 0.71172 0.34748 0.06361 0.0
H1747 H 0.77202 0.2714 0.1741 0.0
H1748 H 0.78302 0.31806 0.05718 0.0
H1749 H 0.69627 0.28572 0.16908 0.0
H1750 H 0.77665 0.28572 0.1305 0.0
H1751 H 0.70586 0.32347 0.10193 0.0
C1752 C 0.72614 0.33591 0.07025 0.0
C1753 C 0.74795 0.33492 0.05731 0.0
C1754 C 0.75896 0.28526 0.13882 0.0
C1755 C 0.74142 0.30736 0.10132 0.0
C1756 C 0.75631 0.27688 0.16361 0.0
C1757 C 0.73381 0.27762 0.17527 0.0
C1758 C 0.73896 0.29453 0.12585 0.0
C1759 C 0.71404 0.28522 0.16094 0.0
C1760 C 0.72275 0.32206 0.09207 0.0
C1761 C 0.76593 0.31941 0.06665 0.0
N1762 N 0.71713 0.29367 0.13715 0.0
N1763 N 0.76238 0.30642 0.08829 0.0
H1764 H 0.93249 0.51449 0.29295 0.0
H1765 H 0.94497 0.47921 0.43835 0.0
H1766 H 0.87362 0.48668 0.33781 0.0
H1767 H 0.00365 0.50584 0.39242 0.0
H1768 H 0.91897 0.47967 0.40136 0.0
H1769 H 0.95896 0.51048 0.3292 0.0
C1770 C 0.92508 0.50767 0.31048 0.0
C1771 C 0.90079 0.50093 0.31238 0.0
C1772 C 0.93759 0.4852 0.39935 0.0
C1773 C 0.93109 0.49608 0.35393 0.0
C1774 C 0.95252 0.4848 0.42044 0.0
C1775 C 0.97654 0.49266 0.41854 0.0
C1776 C 0.94674 0.49355 0.37625 0.0
C1777 C 0.98524 0.49979 0.39484 0.0
C1778 C 0.94025 0.50526 0.33116 0.0
C1779 C 0.89222 0.49215 0.33554 0.0
N1780 N 0.97029 0.50022 0.37467 0.0
N1781 N 0.90738 0.48995 0.35545 0.0
H1782 H 0.73869 0.63449 0.5758 0.0
H1783 H 0.7727 0.7551 0.65078 0.0
H1784 H 0.80185 0.67757 0.55738 0.0
H1785 H 0.74052 0.69266 0.68888 0.0
H1786 H 0.78038 0.72881 0.6143 0.0
H1787 H 0.73547 0.65741 0.61548 0.0
C1788 C 0.75188 0.64875 0.58012 0.0
C1789 C 0.77052 0.65424 0.56327 0.0
C1790 C 0.77186 0.72081 0.63074 0.0
C1791 C 0.76677 0.68054 0.6083 0.0
C1792 C 0.76741 0.73578 0.65149 0.0
C1793 C 0.75594 0.72598 0.67278 0.0
C1794 C 0.76421 0.69604 0.63102 0.0
C1795 C 0.74951 0.70084 0.67282 0.0
C1796 C 0.75012 0.66165 0.60279 0.0
C1797 C 0.78722 0.67275 0.56985 0.0
N1798 N 0.75339 0.68675 0.65202 0.0
N1799 N 0.78477 0.68548 0.59172 0.0
H1800 H 0.65748 0.6205 0.48967 0.0
H1801 H 0.59661 0.48608 0.49765 0.0
H1802 H 0.69696 0.55247 0.49297 0.0
H1803 H 0.55563 0.55322 0.49506 0.0
H1804 H 0.63329 0.51039 0.4934 0.0
H1805 H 0.61998 0.59654 0.48943 0.0
C1806 C 0.6583 0.60053 0.49027 0.0
C1807 C 0.68045 0.5885 0.49145 0.0
C1808 C 0.61631 0.51987 0.49364 0.0
C1809 C 0.63754 0.56096 0.49115 0.0
C1810 C 0.59526 0.50597 0.49607 0.0
C1811 C 0.57289 0.51759 0.4969 0.0
C1812 C 0.61519 0.54571 0.49212 0.0
C1813 C 0.57243 0.54344 0.49453 0.0
C1814 C 0.63685 0.58687 0.49012 0.0
C1815 C 0.68034 0.56258 0.49214 0.0
N1816 N 0.59329 0.55665 0.49243 0.0
N1817 N 0.65926 0.54972 0.49204 0.0
H1818 H 0.19001 0.96249 0.50835 0.0
H1819 H 0.06327 0.98954 0.45227 0.0
H1820 H 0.16931 0.94328 0.4324 0.0
H1821 H 0.08815 0.01734 0.52382 0.0
H1822 H 0.10462 0.98186 0.44015 0.0
H1823 H 0.15612 0.99033 0.51065 0.0
C1824 C 0.17841 0.96429 0.49206 0.0
C1825 C 0.18212 0.95012 0.47036 0.0
C1826 C 0.1012 0.99048 0.45816 0.0
C1827 C 0.1431 0.98188 0.4729 0.0
C1828 C 0.07755 0.99538 0.46484 0.0
C1829 C 0.07236 0.00424 0.48898 0.0
C1830 C 0.11958 0.99397 0.47603 0.0
C1831 C 0.09149 0.01038 0.50506 0.0
C1832 C 0.15912 0.98034 0.49331 0.0
C1833 C 0.16686 0.9536 0.44963 0.0
N1834 N 0.11423 0.00461 0.49852 0.0
N1835 N 0.14771 0.96878 0.45159 0.0
H1836 H 0.3276 0.93821 0.78118 0.0
H1837 H 0.30947 0.79937 0.74208 0.0
H1838 H 0.36684 0.90408 0.72081 0.0
H1839 H 0.27851 0.83156 0.80846 0.0
H1840 H 0.33733 0.83424 0.7393 0.0
H1841 H 0.31461 0.89749 0.79542 0.0
C1842 C 0.33344 0.92212 0.77086 0.0
C1843 C 0.34792 0.92454 0.74946 0.0
C1844 C 0.32498 0.83335 0.75496 0.0
C1845 C 0.33325 0.87775 0.7658 0.0
C1846 C 0.30935 0.81313 0.75683 0.0
C1847 C 0.29154 0.81273 0.77539 0.0
C1848 C 0.32242 0.85332 0.77158 0.0
C1849 C 0.29177 0.83143 0.79363 0.0
C1850 C 0.32623 0.89882 0.77917 0.0
C1851 C 0.35538 0.90303 0.73718 0.0
N1852 N 0.30657 0.8513 0.79092 0.0
N1853 N 0.34768 0.88051 0.74533 0.0
H1854 H 0.32814 0.09891 -0.00386 0.0
H1855 H 0.40916 0.98767 0.96535 0.0
H1856 H 0.30767 0.04329 0.94167 0.0
H1857 H 0.4357 0.05339 0.00214 0.0
H1858 H 0.37539 0.01093 0.94878 0.0
H1859 H 0.36959 0.08566 0.99312 0.0
C1860 C 0.33239 0.08389 0.9835 0.0
C1861 C 0.31435 0.07178 0.96957 0.0
C1862 C 0.38901 0.02061 0.95967 0.0
C1863 C 0.3619 0.05656 0.96591 0.0
C1864 C 0.40847 0.00738 0.96881 0.0
C1865 C 0.42506 0.01875 0.98504 0.0
C1866 C 0.38583 0.04507 0.96768 0.0
C1867 C 0.42322 0.0441 0.98954 0.0
C1868 C 0.35614 0.07653 0.98154 0.0
C1869 C 0.32098 0.05286 0.95305 0.0
N1870 N 0.40347 0.05632 0.98152 0.0
N1871 N 0.34418 0.04552 0.95201 0.0
H1872 H 0.68108 0.55243 0.73835 0.0
H1873 H 0.6891 0.69553 0.76898 0.0
H1874 H 0.61878 0.5963 0.75391 0.0
H1875 H 0.7481 0.65368 0.7403 0.0
H1876 H 0.66171 0.66141 0.75782 0.0
H1877 H 0.70503 0.59035 0.73475 0.0
C1878 C 0.67242 0.57004 0.74094 0.0
C1879 C 0.64794 0.57114 0.74673 0.0
C1880 C 0.68052 0.65995 0.75319 0.0
C1881 C 0.67527 0.61476 0.74262 0.0
C1882 C 0.69604 0.67964 0.75913 0.0
C1883 C 0.72069 0.67749 0.75502 0.0
C1884 C 0.68998 0.63784 0.74371 0.0
C1885 C 0.72908 0.65609 0.74336 0.0
C1886 C 0.68607 0.59173 0.73872 0.0
C1887 C 0.63763 0.59454 0.74961 0.0
N1888 N 0.71384 0.63691 0.73848 0.0
N1889 N 0.65139 0.61539 0.74781 0.0
H1890 H 0.79973 0.44565 0.00762 0.0
H1891 H 0.93892 0.45117 0.97293 0.0
H1892 H 0.83789 0.38459 0.97502 0.0
H1893 H 0.90063 0.51159 0.00673 0.0
H1894 H 0.90148 0.42756 0.97055 0.0
H1895 H 0.83615 0.47084 0.0052 0.0
C1896 C 0.81579 0.43751 -1e-05 0.0
C1897 C 0.81582 0.41294 0.99161 0.0
C1898 C 0.90126 0.44606 0.97831 0.0
C1899 C 0.85755 0.44173 0.98867 0.0
C1900 C 0.92262 0.45962 0.97958 0.0
C1901 C 0.92298 0.48337 0.99023 0.0
C1902 C 0.88013 0.45628 0.98778 0.0
C1903 C 0.90127 0.4933 -0.00147 0.0
C1904 C 0.83657 0.45194 -0.00146 0.0
C1905 C 0.83711 0.40342 0.98179 0.0
N1906 N 0.88076 0.47963 -0.00272 0.0
N1907 N 0.85716 0.41784 0.98064 0.0
H1908 H 0.31768 0.0675 0.80554 0.0
H1909 H 0.25155 0.16298 0.71507 0.0
H1910 H 0.30705 0.05735 0.72566 0.0
H1911 H 0.27654 0.1818 0.78953 0.0
H1912 H 0.26197 0.11991 0.72277 0.0
H1913 H 0.29394 0.10523 0.80347 0.0
C1914 C 0.31013 0.07303 0.78762 0.0
C1915 C 0.31464 0.05942 0.76565 0.0
C1916 C 0.26462 0.13329 0.73771 0.0
C1917 C 0.28733 0.10242 0.76325 0.0
C1918 C 0.25846 0.1578 0.7334 0.0
C1919 C 0.26297 0.17581 0.75182 0.0
C1920 C 0.27579 0.12682 0.76046 0.0
C1921 C 0.27226 0.16832 0.77512 0.0
C1922 C 0.29659 0.09456 0.78648 0.0
C1923 C 0.30431 0.06741 0.743 0.0
N1924 N 0.27875 0.14439 0.77866 0.0
N1925 N 0.29128 0.08844 0.74237 0.0
H1926 H 0.13755 0.92466 0.22331 0.0
H1927 H 0.23544 0.83202 0.27216 0.0
H1928 H 0.17626 0.93609 0.29294 0.0
H1929 H 0.185 0.81425 0.21323 0.0
H1930 H 0.21075 0.86717 0.28422 0.0
H1931 H 0.1524 0.88245 0.22176 0.0
C1932 C 0.1492 0.9183 0.23828 0.0
C1933 C 0.15591 0.93407 0.25812 0.0
C1934 C 0.20458 0.85511 0.26921 0.0
C1935 C 0.17293 0.88558 0.25655 0.0
C1936 C 0.21846 0.83476 0.26268 0.0
C1937 C 0.21198 0.82011 0.24196 0.0
C1938 C 0.18447 0.86105 0.25444 0.0
C1939 C 0.19035 0.82499 0.22956 0.0
C1940 C 0.1575 0.89409 0.23752 0.0
C1941 C 0.17078 0.92466 0.27717 0.0
N1942 N 0.17761 0.84535 0.23563 0.0
N1943 N 0.17901 0.90114 0.27577 0.0
H1944 H 0.44588 0.31053 0.43147 0.0
H1945 H 0.51625 0.43989 0.44313 0.0
H1946 H 0.50973 0.32994 0.38993 0.0
H1947 H 0.46607 0.41353 0.49859 0.0
H1948 H 0.50553 0.40472 0.41615 0.0
H1949 H 0.44605 0.3521 0.4499 0.0
C1950 C 0.45986 0.32354 0.42611 0.0
C1951 C 0.47801 0.31657 0.40935 0.0
C1952 C 0.49628 0.407 0.43387 0.0
C1953 C 0.47803 0.36434 0.43006 0.0
C1954 C 0.50204 0.42736 0.44903 0.0
C1955 C 0.49172 0.42979 0.47289 0.0
C1956 C 0.48026 0.38879 0.44282 0.0
C1957 C 0.47407 0.41253 0.48008 0.0
C1958 C 0.4599 0.34729 0.43659 0.0
C1959 C 0.49556 0.33432 0.403 0.0
N1960 N 0.46914 0.39253 0.4653 0.0
N1961 N 0.49516 0.3573 0.41339 0.0
H1962 H 0.44023 0.78042 0.18788 0.0
H1963 H 0.31562 0.72197 0.23344 0.0
H1964 H 0.42476 0.70208 0.18741 0.0
H1965 H 0.3312 0.8001 0.22916 0.0
H1966 H 0.35794 0.71362 0.22472 0.0
H1967 H 0.40294 0.7872 0.2105 0.0
C1968 C 0.4291 0.76459 0.19273 0.0
C1969 C 0.4355 0.74067 0.18538 0.0
C1970 C 0.35217 0.73259 0.22619 0.0
C1971 C 0.39253 0.74833 0.21123 0.0
C1972 C 0.32807 0.73735 0.23142 0.0
C1973 C 0.31986 0.76176 0.23175 0.0
C1974 C 0.36807 0.7524 0.22134 0.0
C1975 C 0.33671 0.781 0.22873 0.0
C1976 C 0.40777 0.76847 0.2057 0.0
C1977 C 0.42045 0.72087 0.19248 0.0
N1978 N 0.35989 0.77591 0.22336 0.0
N1979 N 0.39951 0.72516 0.20472 0.0
H1980 H 0.98572 0.66713 0.88343 0.0
H1981 H 0.03027 0.58698 0.00049 0.0
H1982 H 0.02768 0.69571 0.9456 0.0
H1983 H 0.98222 0.55849 0.94366 0.0
H1984 H 0.03689 0.62403 0.97505 0.0
H1985 H 0.9897 0.62541 0.90079 0.0
C1986 C -0.00425 0.66468 0.90073 0.0
C1987 C 0.00613 0.68508 0.91322 0.0
C1988 C 0.0254 0.60943 0.96771 0.0
C1989 C 0.01109 0.63725 0.93297 0.0
C1990 C 0.02202 0.58806 0.98203 0.0
C1991 C 0.00594 0.5696 0.97397 0.0
C1992 C 0.01219 0.61259 0.94538 0.0
C1993 C -0.00492 0.57219 0.95029 0.0
C1994 C -0.00187 0.64081 0.91054 0.0
C1995 C 0.01912 0.68066 0.93544 0.0
N1996 N -0.00199 0.59355 0.937 0.0
N1997 N 0.02114 0.65731 0.9446 0.0
H1998 H 0.04985 0.25089 0.69213 0.0
H1999 H 0.19153 0.23637 0.70264 0.0
H2000 H 0.09226 0.21897 0.63287 0.0
H2001 H 0.14583 0.25628 0.76477 0.0
H2002 H 0.15579 0.22899 0.67675 0.0
H2003 H 0.08526 0.2525 0.71895 0.0
C2004 C 0.06664 0.24418 0.68476 0.0
C2005 C 0.06816 0.23492 0.66018 0.0
C2006 C 0.15365 0.23477 0.69613 0.0
C2007 C 0.10888 0.23675 0.69083 0.0
C2008 C 0.17403 0.23897 0.71093 0.0
C2009 C 0.17171 0.24718 0.73589 0.0
C2010 C 0.13087 0.23891 0.70634 0.0
C2011 C 0.14857 0.25019 0.7456 0.0
C2012 C 0.08686 0.24501 0.70013 0.0
C2013 C 0.09034 0.2263 0.65171 0.0
N2014 N 0.12909 0.24623 0.73075 0.0
N2015 N 0.10993 0.22758 0.66697 0.0
H2016 H 0.48826 0.67249 0.11132 0.0
H2017 H 0.48396 0.6016 0.98004 0.0
H2018 H 0.4959 0.70969 0.03981 0.0
H2019 H 0.5004 0.56538 0.05035 0.0
H2020 H 0.48464 0.64132 0.0018 0.0
H2021 H 0.48846 0.63278 0.0894 0.0
C2022 C 0.48984 0.67231 0.091 0.0
C2023 C 0.49207 0.6944 0.07733 0.0
C2024 C 0.48822 0.62468 0.01242 0.0
C2025 C 0.49234 0.64913 0.05224 0.0
C2026 C 0.4878 0.60199 4e-05 0.0
C2027 C 0.49208 0.58012 0.01343 0.0
C2028 C 0.49263 0.62547 0.03843 0.0
C2029 C 0.49706 0.58177 0.0393 0.0
C2030 C 0.49011 0.64965 0.07854 0.0
C2031 C 0.49419 0.69309 0.05107 0.0
N2032 N 0.49701 0.60407 0.05102 0.0
N2033 N 0.4942 0.67081 0.03935 0.0
H2034 H 0.05462 0.74346 0.79929 0.0
H2035 H 0.1956 0.74457 0.81385 0.0
H2036 H 0.09158 0.71989 0.86652 0.0
H2037 H 0.15893 0.76083 0.74452 0.0
H2038 H 0.15842 0.72673 0.83066 0.0
H2039 H 0.09261 0.74265 0.77655 0.0
C2040 C 0.07068 0.73795 0.80923 0.0
C2041 C 0.06998 0.73221 0.83497 0.0
C2042 C 0.15862 0.73342 0.81144 0.0
C2043 C 0.11358 0.73122 0.80907 0.0
C2044 C 0.17998 0.74319 0.80175 0.0
C2045 C 0.18024 0.7538 0.77776 0.0
C2046 C 0.13739 0.73493 0.79715 0.0
C2047 C 0.15935 0.75255 0.76308 0.0
C2048 C 0.09237 0.73735 0.7962 0.0
C2049 C 0.09131 0.72483 0.84678 0.0
N2050 N 0.13862 0.74375 0.77317 0.0
N2051 N 0.11227 0.72489 0.83384 0.0
H2052 H 0.98386 0.29159 0.56107 0.0
H2053 H 0.03334 0.42255 0.52314 0.0
H2054 H 0.0544 0.31795 0.58237 0.0
H2055 H 0.96939 0.38976 0.49124 0.0
H2056 H 0.04563 0.3819 0.53784 0.0
H2057 H 0.98144 0.32463 0.53002 0.0
C2058 C -0.00109 0.30427 0.55911 0.0
C2059 C 0.01917 0.3023 0.57466 0.0
C2060 C 0.02933 0.38337 0.52683 0.0
C2061 C 0.01652 0.34033 0.53912 0.0
C2062 C 0.02259 0.40657 0.51792 0.0
C2063 C 0.00047 0.40944 0.50573 0.0
C2064 C 0.01353 0.36312 0.52393 0.0
C2065 C 0.9866 0.38825 0.50059 0.0
C2066 C -0.00239 0.32306 0.54122 0.0
C2067 C 0.03832 0.31898 0.57096 0.0
N2068 N -0.0069 0.36606 0.51019 0.0
N2069 N 0.03636 0.33756 0.55386 0.0
H2070 H 0.44545 0.22468 0.31137 0.0
H2071 H 0.32171 0.28454 0.26884 0.0
H2072 H 0.4322 0.30301 0.31455 0.0
H2073 H 0.33716 0.20694 0.26381 0.0
H2074 H 0.36392 0.29288 0.27932 0.0
H2075 H 0.40781 0.21883 0.28846 0.0
C2076 C 0.43474 0.2407 0.30706 0.0
C2077 C 0.44192 0.26433 0.31517 0.0
C2078 C 0.35821 0.27408 0.27535 0.0
C2079 C 0.39852 0.25775 0.28901 0.0
C2080 C 0.33418 0.26941 0.26896 0.0
C2081 C 0.32601 0.24508 0.2652 0.0
C2082 C 0.37405 0.25422 0.27818 0.0
C2083 C 0.34275 0.22598 0.2666 0.0
C2084 C 0.41321 0.23736 0.29393 0.0
C2085 C 0.42733 0.28442 0.30883 0.0
N2086 N 0.36585 0.23091 0.27321 0.0
N2087 N 0.4062 0.28063 0.29639 0.0
H2088 H 0.42819 0.53207 0.30025 0.0
H2089 H 0.48025 0.47231 0.42562 0.0
H2090 H 0.42939 0.45343 0.3137 0.0
H2091 H 0.47876 0.55053 0.4103 0.0
H2092 H 0.46908 0.46421 0.38165 0.0
H2093 H 0.45341 0.53842 0.33731 0.0
C2094 C 0.43392 0.5161 0.31089 0.0
C2095 C 0.42633 0.49222 0.30409 0.0
C2096 C 0.4717 0.48313 0.38779 0.0
C2097 C 0.45514 0.49935 0.34678 0.0
C2098 C 0.4783 0.48773 0.41283 0.0
C2099 C 0.48007 0.51212 0.42165 0.0
C2100 C 0.46689 0.5031 0.37164 0.0
C2101 C 0.47718 0.53144 0.40434 0.0
C2102 C 0.4484 0.51972 0.33205 0.0
C2103 C 0.43462 0.4722 0.3184 0.0
N2104 N 0.47041 0.52653 0.3803 0.0
N2105 N 0.44829 0.47624 0.33929 0.0
H2106 H 0.25304 0.62755 0.07622 0.0
H2107 H 0.23102 0.7602 0.13713 0.0
H2108 H 0.25313 0.69615 0.03467 0.0
H2109 H 0.24342 0.69499 0.18187 0.0
H2110 H 0.2331 0.73529 0.09918 0.0
H2111 H 0.24493 0.65056 0.11485 0.0
C2112 C 0.25139 0.64745 0.07522 0.0
C2113 C 0.25386 0.65999 0.05219 0.0
C2114 C 0.2352 0.72632 0.11727 0.0
C2115 C 0.24432 0.68627 0.09621 0.0
C2116 C 0.23392 0.74053 0.13899 0.0
C2117 C 0.23737 0.72968 0.16271 0.0
C2118 C 0.24007 0.70104 0.11916 0.0
C2119 C 0.2407 0.70406 0.16396 0.0
C2120 C 0.24671 0.66053 0.09726 0.0
C2121 C 0.25151 0.68573 0.05199 0.0
N2122 N 0.24226 0.69059 0.14241 0.0
N2123 N 0.24684 0.698 0.07366 0.0
H2124 H 0.03563 0.4993 0.77487 0.0
H2125 H 0.02637 0.53478 0.92019 0.0
H2126 H 0.09375 0.53065 0.81872 0.0
H2127 H 0.99048 0.47142 0.88754 0.0
H2128 H 0.04046 0.54675 0.87817 0.0
H2129 H 0.00965 0.50159 0.81197 0.0
C2130 C 0.04281 0.50695 0.79221 0.0
C2131 C 0.06696 0.51437 0.79396 0.0
C2132 C 0.02879 0.53073 0.88016 0.0
C2133 C 0.03728 0.51767 0.83594 0.0
C2134 C 0.02049 0.52409 0.90401 0.0
C2135 C 0.00747 0.502 0.90717 0.0
C2136 C 0.02364 0.51531 0.85953 0.0
C2137 C 0.00063 0.48851 0.88574 0.0
C2138 C 0.02799 0.50833 0.81324 0.0
C2139 C 0.07536 0.52429 0.81677 0.0
N2140 N 0.0091 0.49519 0.86278 0.0
N2141 N 0.06054 0.52557 0.83695 0.0
H2142 H 0.20361 0.30159 0.55642 0.0
H2143 H 0.25839 0.30955 0.69409 0.0
H2144 H 0.24285 0.36442 0.5862 0.0
H2145 H 0.22527 0.24417 0.66283 0.0
H2146 H 0.2419 0.33386 0.65938 0.0
H2147 H 0.20196 0.28396 0.59876 0.0
C2148 C 0.21176 0.31174 0.57187 0.0
C2149 C 0.22388 0.33422 0.56768 0.0
C2150 C 0.23753 0.31434 0.66049 0.0
C2151 C 0.22186 0.3143 0.61616 0.0
C2152 C 0.24658 0.30061 0.68053 0.0
C2153 C 0.24283 0.27506 0.68125 0.0
C2154 C 0.22526 0.30211 0.64084 0.0
C2155 C 0.22828 0.26397 0.66286 0.0
C2156 C 0.21068 0.30174 0.59606 0.0
C2157 C 0.23375 0.34678 0.58846 0.0
N2158 N 0.22035 0.2775 0.64306 0.0
N2159 N 0.23276 0.33651 0.61174 0.0
H2160 H 0.38939 0.48653 0.16856 0.0
H2161 H 0.49783 0.53646 0.08716 0.0
H2162 H 0.42546 0.55619 0.18282 0.0
H2163 H 0.45611 0.47168 0.06807 0.0
H2164 H 0.467 0.5483 0.11741 0.0
H2165 H 0.40929 0.4843 0.12783 0.0
C2166 C 0.4014 0.50144 0.16305 0.0
C2167 C 0.40615 0.52134 0.17931 0.0
C2168 C 0.46416 0.53188 0.1061 0.0
C2169 C 0.42906 0.5189 0.1327 0.0
C2170 C 0.48162 0.52533 0.08866 0.0
C2171 C 0.4791 0.50338 0.07501 0.0
C2172 C 0.44455 0.51585 0.11033 0.0
C2173 C 0.45837 0.48895 0.07815 0.0
C2174 C 0.41266 0.50024 0.13971 0.0
C2175 C 0.42154 0.54034 0.17101 0.0
N2176 N 0.442 0.49523 0.0958 0.0
N2177 N 0.43273 0.53847 0.14843 0.0
H2178 H 0.21696 0.67137 0.9363 0.0
H2179 H 0.28516 0.67197 0.80501 0.0
H2180 H 0.28169 0.63063 0.92273 0.0
H2181 H 0.23395 0.72779 0.82485 0.0
H2182 H 0.28311 0.6559 0.84775 0.0
H2183 H 0.22175 0.69155 0.89533 0.0
C2184 C 0.23223 0.66673 0.92477 0.0
C2185 C 0.24889 0.64917 0.93291 0.0
C2186 C 0.27239 0.67174 0.84283 0.0
C2187 C 0.25436 0.67209 0.88598 0.0
C2188 C 0.27347 0.68092 0.81835 0.0
C2189 C 0.25947 0.70116 0.81116 0.0
C2190 C 0.25699 0.68262 0.86033 0.0
C2191 C 0.24489 0.71206 0.82946 0.0
C2192 C 0.23498 0.67833 0.90142 0.0
C2193 C 0.26838 0.644 0.91722 0.0
N2194 N 0.24383 0.7025 0.85315 0.0
N2195 N 0.27046 0.65524 0.89445 0.0
H2196 H 0.05881 0.45164 0.70166 0.0
H2197 H 0.03926 0.50671 0.56369 0.0
H2198 H 0.10634 0.50566 0.66784 0.0
H2199 H 0.98407 0.46773 0.60527 0.0
H2200 H 0.0654 0.50442 0.60055 0.0
H2201 H 0.03291 0.45389 0.66441 0.0
C2202 C 0.06393 0.46371 0.68627 0.0
C2203 C 0.08462 0.47858 0.68782 0.0
C2204 C 0.04748 0.49656 0.60162 0.0
C2205 C 0.05513 0.48145 0.6455 0.0
C2206 C 0.03249 0.49799 0.58064 0.0
C2207 C 0.00942 0.48736 0.58133 0.0
C2208 C 0.03941 0.48426 0.62333 0.0
C2209 C 0.0017 0.47616 0.6038 0.0
C2210 C 0.04907 0.46518 0.66516 0.0
C2211 C 0.09041 0.49402 0.66745 0.0
N2212 N 0.01674 0.47474 0.62384 0.0
N2213 N 0.07571 0.4951 0.64713 0.0
H2214 H 0.23089 0.31875 0.45327 0.0
H2215 H 0.2376 0.30918 0.30309 0.0
H2216 H 0.23313 0.38262 0.40459 0.0
H2217 H 0.23342 0.24646 0.35323 0.0
H2218 H 0.23276 0.33664 0.33937 0.0
H2219 H 0.22903 0.29219 0.41626 0.0
C2220 C 0.23094 0.32721 0.43479 0.0
C2221 C 0.23236 0.35295 0.43204 0.0
C2222 C 0.23269 0.31685 0.34235 0.0
C2223 C 0.23026 0.32258 0.38944 0.0
C2224 C 0.23534 0.30116 0.32163 0.0
C2225 C 0.23616 0.27546 0.32512 0.0
C2226 C 0.23083 0.30673 0.36666 0.0
C2227 C 0.2332 0.26613 0.34961 0.0
C2228 C 0.22983 0.31201 0.41362 0.0
C2229 C 0.23218 0.36285 0.40759 0.0
N2230 N 0.23084 0.28174 0.36939 0.0
N2231 N 0.23131 0.34764 0.38721 0.0
H2232 H 0.31615 0.40217 0.49218 0.0
H2233 H 0.39818 0.51674 0.53033 0.0
H2234 H 0.2959 0.45434 0.5495 0.0
H2235 H 0.42807 0.45075 0.49828 0.0
H2236 H 0.35992 0.49503 0.53564 0.0
H2237 H 0.35648 0.42066 0.49168 0.0
C2238 C 0.32016 0.41753 0.50463 0.0
C2239 C 0.30257 0.42683 0.52082 0.0
C2240 C 0.37488 0.48517 0.5277 0.0
C2241 C 0.34862 0.44803 0.52027 0.0
C2242 C 0.39672 0.49755 0.52463 0.0
C2243 C 0.41627 0.48552 0.51379 0.0
C2244 C 0.37235 0.46069 0.51937 0.0
C2245 C 0.41344 0.46064 0.50683 0.0
C2246 C 0.34322 0.42793 0.50445 0.0
C2247 C 0.30885 0.44662 0.53668 0.0
N2248 N 0.39172 0.44911 0.50939 0.0
N2249 N 0.33128 0.45669 0.53584 0.0
H2250 H 0.79655 0.0356 0.4777 0.0
H2251 H 0.92237 -2e-05 0.53153 0.0
H2252 H 0.81718 0.04792 0.55509 0.0
H2253 H 0.89688 0.98078 0.45727 0.0
H2254 H 0.88108 0.00771 0.54435 0.0
H2255 H 0.82967 0.0071 0.47317 0.0
C2256 C 0.80799 0.03213 0.49382 0.0
C2257 C 0.80449 0.04454 0.51662 0.0
C2258 C 0.88441 0.00104 0.52547 0.0
C2259 C 0.84271 0.0121 0.51155 0.0
C2260 C 0.90799 -0.00365 0.51824 0.0
C2261 C 0.91301 0.99038 0.49313 0.0
C2262 C 0.86597 -0.0002 0.50735 0.0
C2263 C 0.89374 0.98593 0.47667 0.0
C2264 C 0.82684 0.01571 0.4913 0.0
C2265 C 0.81949 0.03896 0.53707 0.0
N2266 N 0.87112 0.99131 0.48389 0.0
N2267 N 0.83831 0.02352 0.5339 0.0
H2268 H 0.61905 0.09694 0.22782 0.0
H2269 H 0.75449 0.14596 0.2321 0.0
H2270 H 0.68024 0.05162 0.24467 0.0
H2271 H 0.69396 0.1948 0.23615 0.0
H2272 H 0.72706 0.11102 0.22798 0.0
H2273 H 0.64599 0.13276 0.22334 0.0
C2274 C 0.63814 0.09451 0.23048 0.0
C2275 C 0.64745 0.07135 0.23682 0.0
C2276 C 0.71975 0.12939 0.22962 0.0
C2277 C 0.67819 0.11199 0.23144 0.0
C2278 C 0.73541 0.14942 0.23191 0.0
C2279 C 0.72649 0.17337 0.23502 0.0
C2280 C 0.69497 0.13324 0.23043 0.0
C2281 C 0.70158 0.17664 0.23417 0.0
C2282 C 0.65345 0.11493 0.22792 0.0
C2283 C 0.67228 0.06918 0.24 0.0
N2284 N 0.68661 0.15671 0.23223 0.0
N2285 N 0.68678 0.08926 0.23728 0.0
H2286 H 0.67597 0.9479 0.06184 0.0
H2287 H 0.55198 0.94589 0.98686 0.0
H2288 H 0.65849 0.90025 -0.00092 0.0
H2289 H 0.57781 0.00867 0.02914 0.0
H2290 H 0.58458 0.92121 0.0043 0.0
H2291 H 0.63471 0.96324 0.06114 0.0
C2292 C 0.66342 0.94055 0.04806 0.0
C2293 C 0.67074 0.92321 0.03012 0.0
C2294 C 0.58263 0.94014 0.01048 0.0
C2295 C 0.62365 0.9401 0.02968 0.0
C2296 C 0.56384 0.95406 0.00085 0.0
C2297 C 0.56228 0.97913 0.00685 0.0
C2298 C 0.60007 0.95166 0.02579 0.0
C2299 C 0.57842 0.98923 0.02439 0.0
C2300 C 0.63992 0.94919 0.04777 0.0
C2301 C 0.65373 0.91405 0.01288 0.0
N2302 N 0.597 0.97556 0.03296 0.0
N2303 N 0.63102 0.9227 0.01301 0.0
H2304 H 0.31439 0.44671 0.27021 0.0
H2305 H 0.30451 0.30489 0.23067 0.0
H2306 H 0.37037 0.40622 0.23322 0.0
H2307 H 0.24566 0.34651 0.26005 0.0
H2308 H 0.33198 0.33874 0.24217 0.0
H2309 H 0.29185 0.40796 0.2757 0.0
C2310 C 0.32203 0.42968 0.26341 0.0
C2311 C 0.34412 0.4298 0.25084 0.0
C2312 C 0.31317 0.34022 0.24686 0.0
C2313 C 0.31851 0.38536 0.25723 0.0
C2314 C 0.29761 0.32067 0.24076 0.0
C2315 C 0.27298 0.32284 0.24491 0.0
C2316 C 0.30383 0.36225 0.25664 0.0
C2317 C 0.26467 0.34409 0.25696 0.0
C2318 C 0.30919 0.40754 0.26662 0.0
C2319 C 0.35324 0.40711 0.24267 0.0
N2320 N 0.28 0.36318 0.26204 0.0
N2321 N 0.34033 0.38589 0.24581 0.0
H2322 H 0.20648 0.51916 0.02077 0.0
H2323 H 0.0671 0.54021 -0.00381 0.0
H2324 H 0.17848 0.58792 0.99264 0.0
H2325 H 0.09998 0.46857 0.99118 0.0
H2326 H 0.10677 0.55881 0.00375 0.0
H2327 H 0.16606 0.50108 0.01857 0.0
C2328 C 0.19182 0.53046 0.01424 0.0
C2329 C 0.1958 0.55497 0.00667 0.0
C2330 C 0.10519 0.53901 0.00112 0.0
C2331 C 0.14973 0.53459 0.00443 0.0
C2332 C 0.08262 0.52839 -0.00305 0.0
C2333 C 0.08036 0.50286 0.99288 0.0
C2334 C 0.12546 0.5239 0.00163 0.0
C2335 C 0.10102 0.48837 0.99396 0.0
C2336 C 0.16883 0.52014 0.01296 0.0
C2337 C 0.17619 0.56885 -0.0016 0.0
N2338 N 0.12275 0.49911 -0.00173 0.0
N2339 N 0.15394 0.55846 -0.00245 0.0
H2340 H 0.6591 0.93519 0.31703 0.0
H2341 H 0.72286 0.82739 0.23984 0.0
H2342 H 0.66636 0.93606 0.23614 0.0
H2343 H 0.69373 0.81836 0.31446 0.0
H2344 H 0.71025 0.87072 0.24024 0.0
H2345 H 0.67976 0.89564 0.31825 0.0
C2346 C 0.66521 0.92718 0.29954 0.0
C2347 C 0.66076 0.93881 0.27642 0.0
C2348 C 0.70688 0.85926 0.2566 0.0
C2349 C 0.6845 0.89363 0.27771 0.0
C2350 C 0.71419 0.83464 0.25643 0.0
C2351 C 0.70911 0.81925 0.27704 0.0
C2352 C 0.69475 0.86853 0.27766 0.0
C2353 C 0.69773 0.82951 0.29805 0.0
C2354 C 0.67696 0.90459 0.30025 0.0
C2355 C 0.66918 0.92759 0.25436 0.0
N2356 N 0.69088 0.85346 0.29778 0.0
N2357 N 0.68058 0.90556 0.25553 0.0
H2358 H 0.81629 0.05645 0.72656 0.0
H2359 H 0.80393 0.19714 0.76686 0.0
H2360 H 0.87352 0.09873 0.7614 0.0
H2361 H 0.74931 0.15628 0.72669 0.0
H2362 H 0.83229 0.16391 0.75857 0.0
H2363 H 0.79347 0.09437 0.72158 0.0
C2364 C 0.82407 0.0737 0.73318 0.0
C2365 C 0.84674 0.07432 0.74472 0.0
C2366 C 0.81433 0.16249 0.75085 0.0
C2367 C 0.82073 0.11797 0.73892 0.0
C2368 C 0.79831 0.1817 0.75517 0.0
C2369 C 0.77451 0.17958 0.74694 0.0
C2370 C 0.80617 0.14081 0.73878 0.0
C2371 C 0.76771 0.15872 0.73291 0.0
C2372 C 0.81109 0.09541 0.73016 0.0
C2373 C 0.85602 0.09731 0.75261 0.0
N2374 N 0.78333 0.13995 0.72961 0.0
N2375 N 0.8429 0.11815 0.74977 0.0
loop_
_geom_bond_atom_site_label_1
_geom_bond_atom_site_label_2
_geom_bond_distance
_geom_bond_site_symmetry_2
_ccdc_geom_bond_type
C0 O1 1.160 . S
C0 O7 1.185 . S
O1 C0 1.160 . S
O2 Zn3 1.900 . S
O2 C10 1.284 1_655 S
Zn3 O2 1.900 . S
Zn3 O4 2.038 . S
Zn3 O7 2.104 . S
Zn3 O12 1.958 1_655 S
O4 Zn3 2.038 . S
O4 C8 1.278 1_655 S
C5 O6 1.203 . S
C5 O12 1.267 . S
O6 C5 1.203 . S
O7 C0 1.185 . S
O7 Zn3 2.104 . S
C8 O4 1.278 1_455 S
C8 O9 1.211 . S
O9 C8 1.211 . S
C10 O2 1.284 1_455 S
C10 O11 1.273 . S
O11 C10 1.273 . S
O12 Zn3 1.958 1_455 S
O12 C5 1.267 . S
C13 O14 1.160 . S
C13 O20 1.185 . S
O14 C13 1.160 . S
O15 Zn16 1.899 . S
O15 C23 1.284 . S
Zn16 O15 1.899 . S
Zn16 O17 2.032 . S
Zn16 O20 2.086 . S
Zn16 O25 1.977 1_455 S
O17 Zn16 2.032 . S
O17 C21 1.286 . S
C18 O19 1.203 . S
C18 O25 1.267 . S
O19 C18 1.203 . S
O20 C13 1.185 . S
O20 Zn16 2.086 . S
C21 O17 1.286 . S
C21 O22 1.199 1_455 S
O22 C21 1.199 1_655 S
C23 O15 1.284 . S
C23 O24 1.273 1_455 S
O24 C23 1.273 1_655 S
O25 Zn16 1.977 1_655 S
O25 C18 1.267 . S
C26 O27 1.160 . S
C26 O33 1.185 . S
O27 C26 1.160 . S
O28 Zn29 1.899 . S
O28 C36 1.284 . S
Zn29 O28 1.899 . S
Zn29 O30 2.032 . S
Zn29 O33 2.086 . S
Zn29 O38 1.977 . S
O30 Zn29 2.032 . S
O30 C34 1.278 . S
C31 O32 1.203 . S
C31 O38 1.267 . S
O32 C31 1.203 . S
O33 C26 1.185 . S
O33 Zn29 2.086 . S
C34 O30 1.278 . S
C34 O35 1.211 . S
O35 C34 1.211 . S
C36 O28 1.284 . S
C36 O37 1.273 . S
O37 C36 1.273 . S
O38 Zn29 1.977 . S
O38 C31 1.267 . S
C39 O40 1.160 . S
C39 O46 1.185 . S
O40 C39 1.160 . S
O41 Zn42 1.899 . S
O41 C49 1.284 . S
Zn42 O41 1.899 . S
Zn42 O43 2.032 . S
Zn42 O46 2.086 . S
Zn42 O51 1.977 . S
O43 Zn42 2.032 . S
O43 C47 1.278 . S
C44 O45 1.203 . S
C44 O51 1.267 . S
O45 C44 1.203 . S
O46 C39 1.185 . S
O46 Zn42 2.086 . S
C47 O43 1.278 . S
C47 O48 1.211 . S
O48 C47 1.211 . S
C49 O41 1.284 . S
C49 O50 1.273 . S
O50 C49 1.273 . S
O51 Zn42 1.977 . S
O51 C44 1.267 . S
C52 O53 1.160 . S
C52 O59 1.185 . S
O53 C52 1.160 . S
O54 Zn55 1.899 . S
O54 C62 1.284 1_565 S
Zn55 O54 1.899 . S
Zn55 O56 2.032 . S
Zn55 O59 2.087 . S
Zn55 O64 1.977 1_565 S
O56 Zn55 2.032 . S
O56 C60 1.278 1_565 S
C57 O58 1.203 . S
C57 O64 1.267 . S
O58 C57 1.203 . S
O59 C52 1.185 . S
O59 Zn55 2.087 . S
C60 O56 1.278 1_545 S
C60 O61 1.211 . S
O61 C60 1.211 . S
C62 O54 1.284 1_545 S
C62 O63 1.273 . S
O63 C62 1.273 . S
O64 Zn55 1.977 1_545 S
O64 C57 1.267 . S
C65 O66 1.160 . S
C65 O72 1.185 . S
O66 C65 1.160 . S
O67 Zn68 1.899 . S
O67 C75 1.284 . S
Zn68 O67 1.899 . S
Zn68 O69 2.032 . S
Zn68 O72 2.086 . S
Zn68 O77 1.977 . S
O69 Zn68 2.032 . S
O69 C73 1.278 . S
C70 O71 1.203 . S
C70 O77 1.267 . S
O71 C70 1.203 . S
O72 C65 1.185 . S
O72 Zn68 2.086 . S
C73 O69 1.278 . S
C73 O74 1.211 . S
O74 C73 1.211 . S
C75 O67 1.284 . S
C75 O76 1.273 . S
O76 C75 1.273 . S
O77 Zn68 1.977 . S
O77 C70 1.267 . S
C78 O79 1.160 . S
C78 O85 1.185 . S
O79 C78 1.160 . S
O80 Zn81 1.899 . S
O80 C88 1.284 . S
Zn81 O80 1.899 . S
Zn81 O82 2.032 . S
Zn81 O85 2.086 . S
Zn81 O90 1.977 1_545 S
O82 Zn81 2.032 . S
O82 C86 1.278 . S
C83 O84 1.203 . S
C83 O90 1.267 . S
O84 C83 1.203 . S
O85 C78 1.185 . S
O85 Zn81 2.086 . S
C86 O82 1.278 . S
C86 O87 1.211 1_545 S
O87 C86 1.211 1_565 S
C88 O80 1.284 . S
C88 O89 1.273 1_545 S
O89 C88 1.273 1_565 S
O90 Zn81 1.977 1_565 S
O90 C83 1.267 . S
C91 O92 1.160 . S
C91 O98 1.185 . S
O92 C91 1.160 . S
O93 Zn94 1.899 . S
O93 C101 1.284 . S
Zn94 O93 1.899 . S
Zn94 O95 2.032 1_554 S
Zn94 O98 2.086 . S
Zn94 O103 1.977 . S
O95 Zn94 2.032 1_556 S
O95 C99 1.278 . S
C96 O97 1.203 . S
C96 O103 1.267 . S
O97 C96 1.203 . S
O98 C91 1.185 . S
O98 Zn94 2.086 . S
C99 O95 1.278 . S
C99 O100 1.211 . S
O100 C99 1.211 . S
C101 O93 1.284 . S
C101 O102 1.273 . S
O102 C101 1.273 . S
O103 Zn94 1.977 . S
O103 C96 1.267 . S
C104 O105 1.160 . S
C104 O111 1.189 . S
O105 C104 1.160 . S
O106 Zn107 1.899 . S
O106 C114 1.284 . S
Zn107 O106 1.899 . S
Zn107 O108 2.032 1_554 S
Zn107 O111 2.088 . S
Zn107 O116 1.981 . S
O108 Zn107 2.032 1_556 S
O108 C112 1.278 . S
C109 O110 1.203 . S
C109 O116 1.273 . S
O110 C109 1.203 . S
O111 C104 1.189 . S
O111 Zn107 2.088 . S
C112 O108 1.278 . S
C112 O113 1.211 . S
O113 C112 1.211 . S
C114 O106 1.284 . S
C114 O115 1.273 . S
O115 C114 1.273 . S
O116 Zn107 1.981 . S
O116 C109 1.273 . S
C117 O118 1.160 . S
C117 O124 1.185 . S
O118 C117 1.160 . S
O119 Zn120 1.899 . S
O119 C127 1.284 . S
Zn120 O119 1.899 . S
Zn120 O121 2.032 . S
Zn120 O124 2.086 . S
Zn120 O129 1.977 . S
O121 Zn120 2.032 . S
O121 C125 1.278 . S
C122 O123 1.203 . S
C122 O129 1.267 . S
O123 C122 1.203 . S
O124 C117 1.185 . S
O124 Zn120 2.086 . S
C125 O121 1.278 . S
C125 O126 1.211 . S
O126 C125 1.211 . S
C127 O119 1.284 . S
C127 O128 1.273 . S
O128 C127 1.273 . S
O129 Zn120 1.977 . S
O129 C122 1.267 . S
C130 O131 1.160 . S
C130 O137 1.185 . S
O131 C130 1.160 . S
O132 Zn133 1.899 . S
O132 C140 1.284 . S
Zn133 O132 1.899 . S
Zn133 O134 2.032 . S
Zn133 O137 2.086 . S
Zn133 O142 1.977 . S
O134 Zn133 2.032 . S
O134 C138 1.278 . S
C135 O136 1.203 . S
C135 O142 1.267 . S
O136 C135 1.203 . S
O137 C130 1.185 . S
O137 Zn133 2.086 . S
C138 O134 1.278 . S
C138 O139 1.211 . S
O139 C138 1.211 . S
C140 O132 1.284 . S
C140 O141 1.273 . S
O141 C140 1.273 . S
O142 Zn133 1.977 . S
O142 C135 1.267 . S
C143 O144 1.160 . S
C143 O150 1.185 . S
O144 C143 1.160 . S
O145 Zn146 1.899 . S
O145 C153 1.284 . S
Zn146 O145 1.899 . S
Zn146 O147 2.032 . S
Zn146 O150 2.086 . S
Zn146 O155 1.977 . S
O147 Zn146 2.032 . S
O147 C151 1.278 . S
C148 O149 1.203 . S
C148 O155 1.267 . S
O149 C148 1.203 . S
O150 C143 1.185 . S
O150 Zn146 2.086 . S
C151 O147 1.278 . S
C151 O152 1.211 . S
O152 C151 1.211 . S
C153 O145 1.284 . S
C153 O154 1.273 . S
O154 C153 1.273 . S
O155 Zn146 1.977 . S
O155 C148 1.267 . S
C156 O157 1.160 . S
C156 O163 1.185 . S
O157 C156 1.160 . S
O158 Zn159 1.899 . S
O158 C166 1.284 . S
Zn159 O158 1.899 . S
Zn159 O160 2.032 . S
Zn159 O163 2.086 . S
Zn159 O168 1.977 1_455 S
O160 Zn159 2.032 . S
O160 C164 1.298 . S
C161 O162 1.203 . S
C161 O168 1.267 . S
O162 C161 1.203 . S
O163 C156 1.185 . S
O163 Zn159 2.086 . S
C164 O160 1.298 . S
C164 O165 1.183 1_455 S
O165 C164 1.183 1_655 S
C166 O158 1.284 . S
C166 O167 1.273 1_455 S
O167 C166 1.273 1_655 S
O168 Zn159 1.977 1_655 S
O168 C161 1.267 . S
C169 O170 1.160 . S
C169 O176 1.185 . S
O170 C169 1.160 . S
O171 Zn172 1.899 . S
O171 C179 1.286 . S
Zn172 O171 1.899 . S
Zn172 O173 2.032 1_455 S
Zn172 O176 2.086 1_455 S
Zn172 O181 1.977 . S
O173 Zn172 2.032 1_655 S
O173 C177 1.278 1_655 S
C174 O175 1.203 . S
C174 O181 1.267 . S
O175 C174 1.203 . S
O176 C169 1.185 . S
O176 Zn172 2.086 1_655 S
C177 O173 1.278 1_455 S
C177 O178 1.211 . S
O178 C177 1.211 . S
C179 O171 1.286 . S
C179 O180 1.273 . S
O180 C179 1.273 . S
O181 Zn172 1.977 . S
O181 C174 1.267 . S
C182 O183 1.160 . S
C182 O189 1.185 . S
O183 C182 1.160 . S
O184 Zn185 1.899 . S
O184 C192 1.284 . S
Zn185 O184 1.899 . S
Zn185 O186 2.032 . S
Zn185 O189 2.086 . S
Zn185 O194 1.977 . S
O186 Zn185 2.032 . S
O186 C190 1.278 . S
C187 O188 1.203 . S
C187 O194 1.267 . S
O188 C187 1.203 . S
O189 C182 1.185 . S
O189 Zn185 2.086 . S
C190 O186 1.278 . S
C190 O191 1.211 . S
O191 C190 1.211 . S
C192 O184 1.284 . S
C192 O193 1.273 . S
O193 C192 1.273 . S
O194 Zn185 1.977 . S
O194 C187 1.267 . S
C195 O196 1.160 . S
C195 O202 1.185 . S
O196 C195 1.160 . S
O197 Zn198 1.899 . S
O197 C205 1.284 . S
Zn198 O197 1.899 . S
Zn198 O199 2.032 . S
Zn198 O202 2.086 . S
Zn198 O207 1.977 . S
O199 Zn198 2.032 . S
O199 C203 1.278 . S
C200 O201 1.203 . S
C200 O207 1.267 . S
O201 C200 1.203 . S
O202 C195 1.185 . S
O202 Zn198 2.086 . S
C203 O199 1.278 . S
C203 O204 1.211 . S
O204 C203 1.211 . S
C205 O197 1.284 . S
C205 O206 1.273 . S
O206 C205 1.273 . S
O207 Zn198 1.977 . S
O207 C200 1.267 . S
C208 O209 1.160 . S
C208 O215 1.185 . S
O209 C208 1.160 . S
O210 Zn211 1.899 . S
O210 C218 1.278 1_545 S
Zn211 O210 1.899 . S
Zn211 O212 2.032 . S
Zn211 O215 2.086 . S
Zn211 O220 1.977 1_545 S
O212 Zn211 2.032 . S
O212 C216 1.278 1_545 S
C213 O214 1.203 . S
C213 O220 1.267 . S
O214 C213 1.203 . S
O215 C208 1.185 . S
O215 Zn211 2.086 . S
C216 O212 1.278 1_565 S
C216 O217 1.211 . S
O217 C216 1.211 . S
C218 O210 1.278 1_565 S
C218 O219 1.283 . S
O219 C218 1.283 . S
O220 Zn211 1.977 1_565 S
O220 C213 1.267 . S
C221 O222 1.160 . S
C221 O228 1.185 . S
O222 C221 1.160 . S
O223 Zn224 1.899 . S
O223 C231 1.284 . S
Zn224 O223 1.899 . S
Zn224 O225 2.032 . S
Zn224 O228 2.086 . S
Zn224 O233 1.977 . S
O225 Zn224 2.032 . S
O225 C229 1.278 . S
C226 O227 1.203 . S
C226 O233 1.267 . S
O227 C226 1.203 . S
O228 C221 1.185 . S
O228 Zn224 2.086 . S
C229 O225 1.278 . S
C229 O230 1.211 . S
O230 C229 1.211 . S
C231 O223 1.284 . S
C231 O232 1.273 . S
O232 C231 1.273 . S
O233 Zn224 1.977 . S
O233 C226 1.267 . S
C234 O235 1.160 . S
C234 O241 1.185 . S
O235 C234 1.160 . S
O236 Zn237 1.900 . S
O236 C244 1.290 . S
Zn237 O236 1.900 . S
Zn237 O238 2.032 1_545 S
Zn237 O241 2.086 1_545 S
Zn237 O246 1.977 . S
O238 Zn237 2.032 1_565 S
O238 C242 1.278 1_565 S
C239 O240 1.203 . S
C239 O246 1.267 . S
O240 C239 1.203 . S
O241 C234 1.185 . S
O241 Zn237 2.086 1_565 S
C242 O238 1.278 1_545 S
C242 O243 1.211 . S
O243 C242 1.211 . S
C244 O236 1.290 . S
C244 O245 1.273 . S
O245 C244 1.273 . S
O246 Zn237 1.977 . S
O246 C239 1.267 . S
C247 O248 1.160 . S
C247 O254 1.185 . S
O248 C247 1.160 . S
O249 Zn250 1.899 . S
O249 C257 1.284 . S
Zn250 O249 1.899 . S
Zn250 O251 2.032 1_554 S
Zn250 O254 2.086 . S
Zn250 O259 1.977 . S
O251 Zn250 2.032 1_556 S
O251 C255 1.278 . S
C252 O253 1.203 . S
C252 O259 1.267 . S
O253 C252 1.203 . S
O254 C247 1.185 . S
O254 Zn250 2.086 . S
C255 O251 1.278 . S
C255 O256 1.211 . S
O256 C255 1.211 . S
C257 O249 1.284 . S
C257 O258 1.273 . S
O258 C257 1.273 . S
O259 Zn250 1.977 . S
O259 C252 1.267 . S
C260 O261 1.160 . S
C260 O267 1.185 1_554 S
O261 C260 1.160 . S
O262 Zn263 1.899 . S
O262 C270 1.284 . S
Zn263 O262 1.899 . S
Zn263 O264 2.032 1_554 S
Zn263 O267 2.086 1_554 S
Zn263 O272 1.977 1_554 S
O264 Zn263 2.032 1_556 S
O264 C268 1.278 . S
C265 O266 1.203 . S
C265 O272 1.267 1_554 S
O266 C265 1.203 . S
O267 C260 1.185 1_556 S
O267 Zn263 2.086 1_556 S
C268 O264 1.278 . S
C268 O269 1.211 . S
O269 C268 1.211 . S
C270 O262 1.284 . S
C270 O271 1.273 . S
O271 C270 1.273 . S
O272 Zn263 1.977 1_556 S
O272 C265 1.267 1_556 S
C273 O274 1.160 . S
C273 O280 1.185 . S
O274 C273 1.160 . S
O275 Zn276 1.899 . S
O275 C283 1.284 . S
Zn276 O275 1.899 . S
Zn276 O277 2.032 . S
Zn276 O280 2.086 . S
Zn276 O285 1.977 . S
O277 Zn276 2.032 . S
O277 C281 1.278 . S
C278 O279 1.203 . S
C278 O285 1.267 . S
O279 C278 1.203 . S
O280 C273 1.185 . S
O280 Zn276 2.086 . S
C281 O277 1.278 . S
C281 O282 1.211 . S
O282 C281 1.211 . S
C283 O275 1.284 . S
C283 O284 1.273 . S
O284 C283 1.273 . S
O285 Zn276 1.977 . S
O285 C278 1.267 . S
C286 O287 1.160 . S
C286 O293 1.185 . S
O287 C286 1.160 . S
O288 Zn289 1.899 . S
O288 C296 1.284 . S
Zn289 O288 1.899 . S
Zn289 O290 2.032 . S
Zn289 O293 2.086 . S
Zn289 O298 1.977 . S
O290 Zn289 2.032 . S
O290 C294 1.278 . S
C291 O292 1.203 . S
C291 O298 1.267 . S
O292 C291 1.203 . S
O293 C286 1.185 . S
O293 Zn289 2.086 . S
C294 O290 1.278 . S
C294 O295 1.211 . S
O295 C294 1.211 . S
C296 O288 1.284 . S
C296 O297 1.273 . S
O297 C296 1.273 . S
O298 Zn289 1.977 . S
O298 C291 1.267 . S
C299 O300 1.160 . S
C299 O306 1.185 . S
O300 C299 1.160 . S
O301 Zn302 1.899 . S
O301 C309 1.284 . S
Zn302 O301 1.899 . S
Zn302 O303 2.032 . S
Zn302 O306 2.086 . S
Zn302 O311 1.977 . S
O303 Zn302 2.032 . S
O303 C307 1.278 . S
C304 O305 1.203 . S
C304 O311 1.267 . S
O305 C304 1.203 . S
O306 C299 1.185 . S
O306 Zn302 2.086 . S
C307 O303 1.278 . S
C307 O308 1.211 . S
O308 C307 1.211 . S
C309 O301 1.284 . S
C309 O310 1.273 . S
O310 C309 1.273 . S
O311 Zn302 1.977 . S
O311 C304 1.267 . S
O312 Mn313 2.170 . S
O312 C326 1.240 1_554 S
Mn313 O312 2.170 . S
Mn313 O316 2.160 1_445 S
Mn313 O317 2.221 1_455 S
Mn313 O319 2.163 1_454 S
Mn313 O321 2.160 1_545 S
Mn313 O331 2.220 1_544 S
O314 Mn315 2.103 1_556 S
O314 C326 1.239 1_565 S
Mn315 O314 2.103 1_554 S
Mn315 O322 2.089 . S
Mn315 O331 2.289 1_554 S
Mn315 O332 2.251 1_554 S
O316 Mn313 2.160 1_665 S
O316 C327 1.239 . S
O317 Mn313 2.221 1_655 S
O317 Mn318 2.290 1_554 S
O317 C328 1.278 . S
Mn318 O317 2.290 1_556 S
Mn318 O320 2.089 1_556 S
Mn318 O323 2.251 1_556 S
Mn318 O324 2.087 . S
O319 Mn313 2.163 1_656 S
O319 C329 1.244 . S
O320 Mn318 2.089 1_554 S
O320 C327 1.256 1_545 S
O321 Mn313 2.160 1_565 S
O321 C330 1.239 . S
O322 Mn315 2.089 . S
O322 C330 1.256 . S
O323 Mn318 2.251 1_554 S
O323 C328 1.241 . S
O324 Mn318 2.087 . S
O324 C329 1.256 . S
C325 O331 1.281 . S
C325 O332 1.241 . S
C326 O312 1.240 1_556 S
C326 O314 1.239 1_545 S
C327 O316 1.239 . S
C327 O320 1.256 1_565 S
C328 O317 1.278 . S
C328 O323 1.241 . S
C329 O319 1.244 . S
C329 O324 1.256 . S
C330 O321 1.239 . S
C330 O322 1.256 . S
O331 Mn313 2.220 1_566 S
O331 Mn315 2.289 1_556 S
O331 C325 1.281 . S
O332 Mn315 2.251 1_556 S
O332 C325 1.241 . S
O333 Mn334 2.163 . S
O333 C347 1.244 . S
Mn334 O333 2.163 . S
Mn334 O337 2.160 . S
Mn334 O338 2.221 . S
Mn334 O340 2.163 . S
Mn334 O342 2.160 . S
Mn334 O352 2.221 . S
O335 Mn336 2.087 . S
O335 C347 1.256 . S
Mn336 O335 2.087 . S
Mn336 O343 2.089 . S
Mn336 O352 2.290 . S
Mn336 O353 2.251 . S
O337 Mn334 2.160 . S
O337 C348 1.239 . S
O338 Mn334 2.221 . S
O338 Mn339 2.290 . S
O338 C349 1.278 . S
Mn339 O338 2.290 . S
Mn339 O341 2.089 . S
Mn339 O344 2.251 . S
Mn339 O345 2.087 . S
O340 Mn334 2.163 . S
O340 C350 1.244 . S
O341 Mn339 2.089 . S
O341 C348 1.256 . S
O342 Mn334 2.160 . S
O342 C351 1.239 . S
O343 Mn336 2.089 . S
O343 C351 1.256 . S
O344 Mn339 2.251 . S
O344 C349 1.241 . S
O345 Mn339 2.087 . S
O345 C350 1.256 . S
C346 O352 1.278 . S
C346 O353 1.241 . S
C347 O333 1.244 . S
C347 O335 1.256 . S
C348 O337 1.239 . S
C348 O341 1.256 . S
C349 O338 1.278 . S
C349 O344 1.241 . S
C350 O340 1.244 . S
C350 O345 1.256 . S
C351 O342 1.239 . S
C351 O343 1.256 . S
O352 Mn334 2.221 . S
O352 Mn336 2.290 . S
O352 C346 1.278 . S
O353 Mn336 2.251 . S
O353 C346 1.241 . S
O354 Mn355 2.163 1_565 S
O354 C368 1.244 . S
Mn355 O354 2.163 1_545 S
Mn355 O358 2.160 . S
Mn355 O359 2.221 1_545 S
Mn355 O361 2.163 . S
Mn355 O363 2.160 . S
Mn355 O373 2.221 . S
O356 Mn357 2.087 . S
O356 C368 1.256 1_545 S
Mn357 O356 2.087 . S
Mn357 O364 2.089 . S
Mn357 O373 2.290 . S
Mn357 O374 2.251 . S
O358 Mn355 2.160 . S
O358 C369 1.239 . S
O359 Mn355 2.221 1_565 S
O359 Mn360 2.290 . S
O359 C370 1.278 . S
Mn360 O359 2.290 . S
Mn360 O362 2.089 1_565 S
Mn360 O365 2.251 . S
Mn360 O366 2.087 . S
O361 Mn355 2.163 . S
O361 C371 1.244 1_545 S
O362 Mn360 2.089 1_545 S
O362 C369 1.256 . S
O363 Mn355 2.160 . S
O363 C372 1.239 . S
O364 Mn357 2.089 . S
O364 C372 1.256 . S
O365 Mn360 2.251 . S
O365 C370 1.241 . S
O366 Mn360 2.087 . S
O366 C371 1.256 . S
C367 O373 1.278 . S
C367 O374 1.241 . S
C368 O354 1.244 . S
C368 O356 1.256 1_565 S
C369 O358 1.239 . S
C369 O362 1.256 . S
C370 O359 1.278 . S
C370 O365 1.241 . S
C371 O361 1.244 1_565 S
C371 O366 1.256 . S
C372 O363 1.239 . S
C372 O364 1.256 . S
O373 Mn355 2.221 . S
O373 Mn357 2.290 . S
O373 C367 1.278 . S
O374 Mn357 2.251 . S
O374 C367 1.241 . S
O375 Mn376 2.163 . S
O375 C389 1.244 . S
Mn376 O375 2.163 . S
Mn376 O379 2.160 . S
Mn376 O380 2.221 . S
Mn376 O382 2.163 . S
Mn376 O384 2.160 . S
Mn376 O394 2.221 . S
O377 Mn378 2.087 . S
O377 C389 1.256 . S
Mn378 O377 2.087 . S
Mn378 O385 2.089 . S
Mn378 O394 2.290 . S
Mn378 O395 2.251 . S
O379 Mn376 2.160 . S
O379 C390 1.239 . S
O380 Mn376 2.221 . S
O380 Mn381 2.290 . S
O380 C391 1.278 . S
Mn381 O380 2.290 . S
Mn381 O383 2.089 . S
Mn381 O386 2.251 . S
Mn381 O387 2.087 . S
O382 Mn376 2.163 . S
O382 C392 1.244 . S
O383 Mn381 2.089 . S
O383 C390 1.256 . S
O384 Mn376 2.160 . S
O384 C393 1.239 . S
O385 Mn378 2.089 . S
O385 C393 1.256 . S
O386 Mn381 2.251 . S
O386 C391 1.241 . S
O387 Mn381 2.087 . S
O387 C392 1.256 . S
C388 O394 1.278 . S
C388 O395 1.241 . S
C389 O375 1.244 . S
C389 O377 1.256 . S
C390 O379 1.239 . S
C390 O383 1.256 . S
C391 O380 1.278 . S
C391 O386 1.241 . S
C392 O382 1.244 . S
C392 O387 1.256 . S
C393 O384 1.239 . S
C393 O385 1.256 . S
O394 Mn376 2.221 . S
O394 Mn378 2.290 . S
O394 C388 1.278 . S
O395 Mn378 2.251 . S
O395 C388 1.241 . S
O396 Mn397 2.163 1_565 S
O396 C410 1.241 1_455 S
Mn397 O396 2.163 1_545 S
Mn397 O400 2.160 . S
Mn397 O401 2.221 . S
Mn397 O403 2.163 1_455 S
Mn397 O405 2.160 1_545 S
Mn397 O415 2.222 1_545 S
O398 Mn399 2.087 1_655 S
O398 C410 1.258 . S
Mn399 O398 2.087 1_455 S
Mn399 O406 2.089 . S
Mn399 O415 2.291 . S
Mn399 O416 2.251 1_455 S
O400 Mn397 2.160 . S
O400 C411 1.239 . S
O401 Mn397 2.221 . S
O401 Mn402 2.290 1_455 S
O401 C412 1.278 . S
Mn402 O401 2.290 1_655 S
Mn402 O404 2.089 1_655 S
Mn402 O407 2.251 1_655 S
Mn402 O408 2.087 . S
O403 Mn397 2.163 1_655 S
O403 C413 1.244 . S
O404 Mn402 2.089 1_455 S
O404 C411 1.256 . S
O405 Mn397 2.160 1_565 S
O405 C414 1.239 . S
O406 Mn399 2.089 . S
O406 C414 1.256 . S
O407 Mn402 2.251 1_455 S
O407 C412 1.241 . S
O408 Mn402 2.087 . S
O408 C413 1.256 . S
C409 O415 1.275 1_655 S
C409 O416 1.241 . S
C410 O396 1.241 1_655 S
C410 O398 1.258 . S
C411 O400 1.239 . S
C411 O404 1.256 . S
C412 O401 1.278 . S
C412 O407 1.241 . S
C413 O403 1.244 . S
C413 O408 1.256 . S
C414 O405 1.239 . S
C414 O406 1.256 . S
O415 Mn397 2.222 1_565 S
O415 Mn399 2.291 . S
O415 C409 1.275 1_455 S
O416 Mn399 2.251 1_655 S
O416 C409 1.241 . S
O417 Mn418 2.163 . S
O417 C431 1.244 . S
Mn418 O417 2.163 . S
Mn418 O421 2.160 . S
Mn418 O422 2.221 . S
Mn418 O424 2.163 . S
Mn418 O426 2.160 . S
Mn418 O436 2.221 . S
O419 Mn420 2.087 . S
O419 C431 1.256 . S
Mn420 O419 2.087 . S
Mn420 O427 2.089 . S
Mn420 O436 2.290 . S
Mn420 O437 2.251 . S
O421 Mn418 2.160 . S
O421 C432 1.239 . S
O422 Mn418 2.221 . S
O422 Mn423 2.290 . S
O422 C433 1.278 . S
Mn423 O422 2.290 . S
Mn423 O425 2.089 . S
Mn423 O428 2.251 . S
Mn423 O429 2.087 . S
O424 Mn418 2.163 . S
O424 C434 1.244 . S
O425 Mn423 2.089 . S
O425 C432 1.256 . S
O426 Mn418 2.160 . S
O426 C435 1.239 . S
O427 Mn420 2.089 . S
O427 C435 1.256 . S
O428 Mn423 2.251 . S
O428 C433 1.241 . S
O429 Mn423 2.087 . S
O429 C434 1.256 . S
C430 O436 1.278 . S
C430 O437 1.241 . S
C431 O417 1.244 . S
C431 O419 1.256 . S
C432 O421 1.239 . S
C432 O425 1.256 . S
C433 O422 1.278 . S
C433 O428 1.241 . S
C434 O424 1.244 . S
C434 O429 1.256 . S
C435 O426 1.239 . S
C435 O427 1.256 . S
O436 Mn418 2.221 . S
O436 Mn420 2.290 . S
O436 C430 1.278 . S
O437 Mn420 2.251 . S
O437 C430 1.241 . S
O438 Mn439 2.169 1_556 S
O438 C452 1.241 1_545 S
Mn439 O438 2.169 1_554 S
Mn439 O442 2.160 . S
Mn439 O443 2.221 . S
Mn439 O445 2.163 1_545 S
Mn439 O447 2.160 1_554 S
Mn439 O457 2.220 1_554 S
O440 Mn441 2.087 1_565 S
O440 C452 1.256 . S
Mn441 O440 2.087 1_545 S
Mn441 O448 2.089 . S
Mn441 O457 2.288 . S
Mn441 O458 2.251 1_545 S
O442 Mn439 2.160 . S
O442 C453 1.239 . S
O443 Mn439 2.221 . S
O443 Mn444 2.290 1_545 S
O443 C454 1.278 . S
Mn444 O443 2.290 1_565 S
Mn444 O446 2.089 1_565 S
Mn444 O449 2.251 1_565 S
Mn444 O450 2.087 . S
O445 Mn439 2.163 1_565 S
O445 C455 1.244 . S
O446 Mn444 2.089 1_545 S
O446 C453 1.256 . S
O447 Mn439 2.160 1_556 S
O447 C456 1.239 . S
O448 Mn441 2.089 . S
O448 C456 1.256 . S
O449 Mn444 2.251 1_545 S
O449 C454 1.241 . S
O450 Mn444 2.087 . S
O450 C455 1.256 . S
C451 O457 1.282 1_565 S
C451 O458 1.241 . S
C452 O438 1.241 1_565 S
C452 O440 1.256 . S
C453 O442 1.239 . S
C453 O446 1.256 . S
C454 O443 1.278 . S
C454 O449 1.241 . S
C455 O445 1.244 . S
C455 O450 1.256 . S
C456 O447 1.239 . S
C456 O448 1.256 . S
O457 Mn439 2.220 1_556 S
O457 Mn441 2.288 . S
O457 C451 1.282 1_545 S
O458 Mn441 2.251 1_565 S
O458 C451 1.241 . S
O459 Mn460 2.163 . S
O459 C473 1.244 . S
Mn460 O459 2.163 . S
Mn460 O463 2.160 . S
Mn460 O464 2.221 . S
Mn460 O466 2.163 . S
Mn460 O468 2.160 . S
Mn460 O478 2.221 . S
O461 Mn462 2.087 . S
O461 C473 1.256 . S
Mn462 O461 2.087 . S
Mn462 O469 2.089 . S
Mn462 O478 2.290 . S
Mn462 O479 2.251 . S
O463 Mn460 2.160 . S
O463 C474 1.239 . S
O464 Mn460 2.221 . S
O464 Mn465 2.290 . S
O464 C475 1.278 . S
Mn465 O464 2.290 . S
Mn465 O467 2.089 . S
Mn465 O470 2.251 . S
Mn465 O471 2.087 . S
O466 Mn460 2.163 . S
O466 C476 1.244 . S
O467 Mn465 2.089 . S
O467 C474 1.256 . S
O468 Mn460 2.160 . S
O468 C477 1.239 . S
O469 Mn462 2.089 . S
O469 C477 1.256 . S
O470 Mn465 2.251 . S
O470 C475 1.241 . S
O471 Mn465 2.087 . S
O471 C476 1.256 . S
C472 O478 1.278 . S
C472 O479 1.241 . S
C473 O459 1.244 . S
C473 O461 1.256 . S
C474 O463 1.239 . S
C474 O467 1.256 . S
C475 O464 1.278 . S
C475 O470 1.241 . S
C476 O466 1.244 . S
C476 O471 1.256 . S
C477 O468 1.239 . S
C477 O469 1.256 . S
O478 Mn460 2.221 . S
O478 Mn462 2.290 . S
O478 C472 1.278 . S
O479 Mn462 2.251 . S
O479 C472 1.241 . S
O480 Mn481 2.163 1_556 S
O480 C494 1.244 . S
Mn481 O480 2.163 1_554 S
Mn481 O484 2.160 . S
Mn481 O485 2.221 1_554 S
Mn481 O487 2.164 . S
Mn481 O489 2.160 . S
Mn481 O499 2.221 . S
O482 Mn483 2.087 . S
O482 C494 1.256 1_554 S
Mn483 O482 2.087 . S
Mn483 O490 2.089 . S
Mn483 O499 2.290 . S
Mn483 O500 2.251 . S
O484 Mn481 2.160 . S
O484 C495 1.239 . S
O485 Mn481 2.221 1_556 S
O485 Mn486 2.290 . S
O485 C496 1.278 . S
Mn486 O485 2.290 . S
Mn486 O488 2.118 . S
Mn486 O491 2.251 . S
Mn486 O492 2.087 . S
O487 Mn481 2.164 . S
O487 C497 1.233 1_554 S
O488 Mn486 2.118 . S
O488 C495 1.231 1_556 S
O489 Mn481 2.160 . S
O489 C498 1.239 . S
O490 Mn483 2.089 . S
O490 C498 1.256 . S
O491 Mn486 2.251 . S
O491 C496 1.241 . S
O492 Mn486 2.087 . S
O492 C497 1.256 . S
C493 O499 1.278 . S
C493 O500 1.241 . S
C494 O480 1.244 . S
C494 O482 1.256 1_556 S
C495 O484 1.239 . S
C495 O488 1.231 1_554 S
C496 O485 1.278 . S
C496 O491 1.241 . S
C497 O487 1.233 1_556 S
C497 O492 1.256 . S
C498 O489 1.239 . S
C498 O490 1.256 . S
O499 Mn481 2.221 . S
O499 Mn483 2.290 . S
O499 C493 1.278 . S
O500 Mn483 2.251 . S
O500 C493 1.241 . S
O501 Mn502 2.163 . S
O501 C515 1.244 . S
Mn502 O501 2.163 . S
Mn502 O505 2.160 . S
Mn502 O506 2.221 . S
Mn502 O508 2.163 . S
Mn502 O510 2.160 . S
Mn502 O520 2.221 . S
O503 Mn504 2.087 . S
O503 C515 1.256 . S
Mn504 O503 2.087 . S
Mn504 O511 2.089 . S
Mn504 O520 2.290 . S
Mn504 O521 2.251 . S
O505 Mn502 2.160 . S
O505 C516 1.239 . S
O506 Mn502 2.221 . S
O506 Mn507 2.290 . S
O506 C517 1.278 . S
Mn507 O506 2.290 . S
Mn507 O509 2.089 . S
Mn507 O512 2.251 . S
Mn507 O513 2.087 . S
O508 Mn502 2.163 . S
O508 C518 1.244 . S
O509 Mn507 2.089 . S
O509 C516 1.256 . S
O510 Mn502 2.160 . S
O510 C519 1.239 . S
O511 Mn504 2.089 . S
O511 C519 1.256 . S
O512 Mn507 2.251 . S
O512 C517 1.241 . S
O513 Mn507 2.087 . S
O513 C518 1.256 . S
C514 O520 1.278 . S
C514 O521 1.241 . S
C515 O501 1.244 . S
C515 O503 1.256 . S
C516 O505 1.239 . S
C516 O509 1.256 . S
C517 O506 1.278 . S
C517 O512 1.241 . S
C518 O508 1.244 . S
C518 O513 1.256 . S
C519 O510 1.239 . S
C519 O511 1.256 . S
O520 Mn502 2.221 . S
O520 Mn504 2.290 . S
O520 C514 1.278 . S
O521 Mn504 2.251 . S
O521 C514 1.241 . S
O522 Mn523 2.163 1_655 S
O522 C536 1.244 . S
Mn523 O522 2.163 1_455 S
Mn523 O526 2.160 . S
Mn523 O527 2.221 1_455 S
Mn523 O529 2.163 . S
Mn523 O531 2.160 . S
Mn523 O541 2.221 . S
O524 Mn525 2.087 . S
O524 C536 1.256 1_455 S
Mn525 O524 2.087 . S
Mn525 O532 2.089 . S
Mn525 O541 2.290 . S
Mn525 O542 2.251 . S
O526 Mn523 2.160 . S
O526 C537 1.239 . S
O527 Mn523 2.221 1_655 S
O527 Mn528 2.290 . S
O527 C538 1.278 . S
Mn528 O527 2.290 . S
Mn528 O530 2.091 . S
Mn528 O533 2.251 . S
Mn528 O534 2.087 . S
O529 Mn523 2.163 . S
O529 C539 1.244 1_455 S
O530 Mn528 2.091 . S
O530 C537 1.254 1_655 S
O531 Mn523 2.160 . S
O531 C540 1.239 . S
O532 Mn525 2.089 . S
O532 C540 1.256 . S
O533 Mn528 2.251 . S
O533 C538 1.241 . S
O534 Mn528 2.087 . S
O534 C539 1.256 . S
C535 O541 1.278 . S
C535 O542 1.241 . S
C536 O522 1.244 . S
C536 O524 1.256 1_655 S
C537 O526 1.239 . S
C537 O530 1.254 1_455 S
C538 O527 1.278 . S
C538 O533 1.241 . S
C539 O529 1.244 1_655 S
C539 O534 1.256 . S
C540 O531 1.239 . S
C540 O532 1.256 . S
O541 Mn523 2.221 . S
O541 Mn525 2.290 . S
O541 C535 1.278 . S
O542 Mn525 2.251 . S
O542 C535 1.241 . S
O543 Mn544 2.163 . S
O543 C557 1.244 . S
Mn544 O543 2.163 . S
Mn544 O547 2.160 . S
Mn544 O548 2.221 . S
Mn544 O550 2.163 . S
Mn544 O552 2.160 . S
Mn544 O562 2.221 . S
O545 Mn546 2.087 . S
O545 C557 1.256 . S
Mn546 O545 2.087 . S
Mn546 O553 2.089 . S
Mn546 O562 2.290 . S
Mn546 O563 2.251 . S
O547 Mn544 2.160 . S
O547 C558 1.239 . S
O548 Mn544 2.221 . S
O548 Mn549 2.290 . S
O548 C559 1.278 . S
Mn549 O548 2.290 . S
Mn549 O551 2.089 . S
Mn549 O554 2.251 . S
Mn549 O555 2.087 . S
O550 Mn544 2.163 . S
O550 C560 1.244 . S
O551 Mn549 2.089 . S
O551 C558 1.256 . S
O552 Mn544 2.160 . S
O552 C561 1.239 . S
O553 Mn546 2.089 . S
O553 C561 1.256 . S
O554 Mn549 2.251 . S
O554 C559 1.241 . S
O555 Mn549 2.087 . S
O555 C560 1.256 . S
C556 O562 1.278 . S
C556 O563 1.241 . S
C557 O543 1.244 . S
C557 O545 1.256 . S
C558 O547 1.239 . S
C558 O551 1.256 . S
C559 O548 1.278 . S
C559 O554 1.241 . S
C560 O550 1.244 . S
C560 O555 1.256 . S
C561 O552 1.239 . S
C561 O553 1.256 . S
O562 Mn544 2.221 . S
O562 Mn546 2.290 . S
O562 C556 1.278 . S
O563 Mn546 2.251 . S
O563 C556 1.241 . S
O564 Mn565 2.163 . S
O564 C578 1.244 . S
Mn565 O564 2.163 . S
Mn565 O568 2.160 . S
Mn565 O569 2.221 . S
Mn565 O571 2.163 . S
Mn565 O573 2.160 . S
Mn565 O583 2.221 . S
O566 Mn567 2.087 . S
O566 C578 1.256 . S
Mn567 O566 2.087 . S
Mn567 O574 2.089 . S
Mn567 O583 2.290 . S
Mn567 O584 2.251 . S
O568 Mn565 2.160 . S
O568 C579 1.239 . S
O569 Mn565 2.221 . S
O569 Mn570 2.290 . S
O569 C580 1.278 . S
Mn570 O569 2.290 . S
Mn570 O572 2.089 . S
Mn570 O575 2.251 . S
Mn570 O576 2.087 . S
O571 Mn565 2.163 . S
O571 C581 1.244 . S
O572 Mn570 2.089 . S
O572 C579 1.256 . S
O573 Mn565 2.160 . S
O573 C582 1.239 . S
O574 Mn567 2.089 . S
O574 C582 1.256 . S
O575 Mn570 2.251 . S
O575 C580 1.241 . S
O576 Mn570 2.087 . S
O576 C581 1.256 . S
C577 O583 1.278 . S
C577 O584 1.241 . S
C578 O564 1.244 . S
C578 O566 1.256 . S
C579 O568 1.239 . S
C579 O572 1.256 . S
C580 O569 1.278 . S
C580 O575 1.241 . S
C581 O571 1.244 . S
C581 O576 1.256 . S
C582 O573 1.239 . S
C582 O574 1.256 . S
O583 Mn565 2.221 . S
O583 Mn567 2.290 . S
O583 C577 1.278 . S
O584 Mn567 2.251 . S
O584 C577 1.241 . S
O585 Mn586 2.163 . S
O585 C599 1.244 . S
Mn586 O585 2.163 . S
Mn586 O589 2.160 . S
Mn586 O590 2.221 . S
Mn586 O592 2.163 . S
Mn586 O594 2.160 . S
Mn586 O604 2.221 . S
O587 Mn588 2.087 . S
O587 C599 1.256 . S
Mn588 O587 2.087 . S
Mn588 O595 2.089 . S
Mn588 O604 2.290 . S
Mn588 O605 2.251 . S
O589 Mn586 2.160 . S
O589 C600 1.239 . S
O590 Mn586 2.221 . S
O590 Mn591 2.290 . S
O590 C601 1.278 . S
Mn591 O590 2.290 . S
Mn591 O593 2.089 . S
Mn591 O596 2.251 . S
Mn591 O597 2.087 . S
O592 Mn586 2.163 . S
O592 C602 1.244 . S
O593 Mn591 2.089 . S
O593 C600 1.256 . S
O594 Mn586 2.160 . S
O594 C603 1.239 . S
O595 Mn588 2.089 . S
O595 C603 1.256 . S
O596 Mn591 2.251 . S
O596 C601 1.241 . S
O597 Mn591 2.087 . S
O597 C602 1.256 . S
C598 O604 1.278 . S
C598 O605 1.241 . S
C599 O585 1.244 . S
C599 O587 1.256 . S
C600 O589 1.239 . S
C600 O593 1.256 . S
C601 O590 1.278 . S
C601 O596 1.241 . S
C602 O592 1.244 . S
C602 O597 1.256 . S
C603 O594 1.239 . S
C603 O595 1.256 . S
O604 Mn586 2.221 . S
O604 Mn588 2.290 . S
O604 C598 1.278 . S
O605 Mn588 2.251 . S
O605 C598 1.241 . S
O606 Mn607 2.163 . S
O606 C620 1.244 . S
Mn607 O606 2.163 . S
Mn607 O610 2.160 . S
Mn607 O611 2.221 . S
Mn607 O613 2.163 . S
Mn607 O615 2.160 . S
Mn607 O625 2.221 . S
O608 Mn609 2.087 . S
O608 C620 1.256 . S
Mn609 O608 2.087 . S
Mn609 O616 2.089 . S
Mn609 O625 2.290 . S
Mn609 O626 2.251 . S
O610 Mn607 2.160 . S
O610 C621 1.239 . S
O611 Mn607 2.221 . S
O611 Mn612 2.290 . S
O611 C622 1.278 . S
Mn612 O611 2.290 . S
Mn612 O614 2.089 . S
Mn612 O617 2.251 . S
Mn612 O618 2.087 . S
O613 Mn607 2.163 . S
O613 C623 1.244 . S
O614 Mn612 2.089 . S
O614 C621 1.256 . S
O615 Mn607 2.160 . S
O615 C624 1.239 . S
O616 Mn609 2.089 . S
O616 C624 1.256 . S
O617 Mn612 2.251 . S
O617 C622 1.241 . S
O618 Mn612 2.087 . S
O618 C623 1.256 . S
C619 O625 1.278 . S
C619 O626 1.241 . S
C620 O606 1.244 . S
C620 O608 1.256 . S
C621 O610 1.239 . S
C621 O614 1.256 . S
C622 O611 1.278 . S
C622 O617 1.241 . S
C623 O613 1.244 . S
C623 O618 1.256 . S
C624 O615 1.239 . S
C624 O616 1.256 . S
O625 Mn607 2.221 . S
O625 Mn609 2.290 . S
O625 C619 1.278 . S
O626 Mn609 2.251 . S
O626 C619 1.241 . S
O627 Mn628 2.160 1_656 S
O627 C641 1.246 . S
Mn628 O627 2.160 1_454 S
Mn628 O631 2.160 . S
Mn628 O632 2.221 . S
Mn628 O634 2.163 1_554 S
Mn628 O636 2.160 1_455 S
Mn628 O646 2.221 1_454 S
O629 Mn630 2.087 1_556 S
O629 C641 1.256 . S
Mn630 O629 2.087 1_554 S
Mn630 O637 2.089 . S
Mn630 O646 2.290 1_554 S
Mn630 O647 2.251 1_554 S
O631 Mn628 2.160 . S
O631 C642 1.239 . S
O632 Mn628 2.221 . S
O632 Mn633 2.290 1_554 S
O632 C643 1.278 . S
Mn633 O632 2.290 1_556 S
Mn633 O635 2.089 1_556 S
Mn633 O638 2.251 1_556 S
Mn633 O639 2.087 . S
O634 Mn628 2.163 1_556 S
O634 C644 1.244 . S
O635 Mn633 2.089 1_554 S
O635 C642 1.256 . S
O636 Mn628 2.160 1_655 S
O636 C645 1.239 . S
O637 Mn630 2.089 . S
O637 C645 1.256 . S
O638 Mn633 2.251 1_554 S
O638 C643 1.241 . S
O639 Mn633 2.087 . S
O639 C644 1.256 . S
C640 O646 1.278 . S
C640 O647 1.241 . S
C641 O627 1.246 . S
C641 O629 1.256 . S
C642 O631 1.239 . S
C642 O635 1.256 . S
C643 O632 1.278 . S
C643 O638 1.241 . S
C644 O634 1.244 . S
C644 O639 1.256 . S
C645 O636 1.239 . S
C645 O637 1.256 . S
O646 Mn628 2.221 1_656 S
O646 Mn630 2.290 1_556 S
O646 C640 1.278 . S
O647 Mn630 2.251 1_556 S
O647 C640 1.241 . S
H648 C654 0.930 . S
H649 C658 0.930 . S
H650 C663 0.929 . S
H651 C661 0.929 . S
H652 C656 0.929 . S
H653 C662 0.929 . S
C654 H648 0.930 . S
C654 C655 1.367 . S
C654 C662 1.378 . S
C655 C654 1.367 . S
C655 C663 1.433 1_455 S
C656 H652 0.929 . S
C656 C658 1.378 . S
C656 C660 1.359 . S
C657 C660 1.462 1_455 S
C657 C662 1.350 . S
C657 N665 1.427 1_455 S
C658 H649 0.930 . S
C658 C656 1.378 . S
C658 C659 1.367 . S
C659 C658 1.367 . S
C659 C661 1.433 1_655 S
C660 C656 1.359 . S
C660 C657 1.462 1_655 S
C660 N664 1.419 1_655 S
C661 H651 0.929 . S
C661 C659 1.433 1_455 S
C661 N664 1.384 . S
C662 H653 0.929 . S
C662 C654 1.378 . S
C662 C657 1.350 . S
C663 H650 0.929 . S
C663 C655 1.433 1_655 S
C663 N665 1.384 . S
N664 C660 1.419 1_455 S
N664 C661 1.384 . S
N665 C657 1.427 1_655 S
N665 C663 1.384 . S
H666 C672 0.930 . S
H667 C676 0.930 . S
H668 C681 0.929 . S
H669 C679 0.929 . S
H670 C674 0.929 . S
H671 C680 0.929 . S
C672 H666 0.930 . S
C672 C673 1.367 . S
C672 C680 1.378 . S
C673 C672 1.367 . S
C673 C681 1.433 . S
C674 H670 0.929 . S
C674 C676 1.378 . S
C674 C678 1.350 . S
C675 C678 1.463 . S
C675 C680 1.350 . S
C675 N683 1.427 . S
C676 H667 0.930 . S
C676 C674 1.378 . S
C676 C677 1.367 . S
C677 C676 1.367 . S
C677 C679 1.433 . S
C678 C674 1.350 . S
C678 C675 1.463 . S
C678 N682 1.427 . S
C679 H669 0.929 . S
C679 C677 1.433 . S
C679 N682 1.384 . S
C680 H671 0.929 . S
C680 C672 1.378 . S
C680 C675 1.350 . S
C681 H668 0.929 . S
C681 C673 1.433 . S
C681 N683 1.384 . S
N682 C678 1.427 . S
N682 C679 1.384 . S
N683 C675 1.427 . S
N683 C681 1.384 . S
H684 C690 0.930 . S
H685 C694 0.930 . S
H686 C699 0.929 . S
H687 C697 0.929 . S
H688 C692 0.929 . S
H689 C698 0.929 . S
C690 H684 0.930 . S
C690 C691 1.367 . S
C690 C698 1.378 . S
C691 C690 1.367 . S
C691 C699 1.433 . S
C692 H688 0.929 . S
C692 C694 1.378 . S
C692 C696 1.350 . S
C693 C696 1.463 . S
C693 C698 1.350 . S
C693 N701 1.427 . S
C694 H685 0.930 . S
C694 C692 1.378 . S
C694 C695 1.367 . S
C695 C694 1.367 . S
C695 C697 1.433 . S
C696 C692 1.350 . S
C696 C693 1.463 . S
C696 N700 1.427 . S
C697 H687 0.929 . S
C697 C695 1.433 . S
C697 N700 1.384 . S
C698 H689 0.929 . S
C698 C690 1.378 . S
C698 C693 1.350 . S
C699 H686 0.929 . S
C699 C691 1.433 . S
C699 N701 1.384 . S
N700 C696 1.427 . S
N700 C697 1.384 . S
N701 C693 1.427 . S
N701 C699 1.384 . S
H702 C708 0.930 . S
H703 C712 0.930 . S
H704 C717 0.929 . S
H705 C715 0.929 . S
H706 C710 0.929 . S
H707 C716 0.929 . S
C708 H702 0.930 . S
C708 C709 1.367 . S
C708 C716 1.378 . S
C709 C708 1.367 . S
C709 C717 1.433 . S
C710 H706 0.929 . S
C710 C712 1.378 . S
C710 C714 1.350 . S
C711 C714 1.463 . S
C711 C716 1.350 . S
C711 N719 1.427 . S
C712 H703 0.930 . S
C712 C710 1.378 . S
C712 C713 1.367 . S
C713 C712 1.367 . S
C713 C715 1.433 . S
C714 C710 1.350 . S
C714 C711 1.463 . S
C714 N718 1.427 . S
C715 H705 0.929 . S
C715 C713 1.433 . S
C715 N718 1.384 . S
C716 H707 0.929 . S
C716 C708 1.378 . S
C716 C711 1.350 . S
C717 H704 0.929 . S
C717 C709 1.433 . S
C717 N719 1.384 . S
N718 C714 1.427 . S
N718 C715 1.384 . S
N719 C711 1.427 . S
N719 C717 1.384 . S
H720 C726 0.930 . S
H721 C730 0.930 . S
H722 C735 0.929 . S
H723 C733 0.929 . S
H724 C728 0.929 . S
H725 C734 0.929 . S
C726 H720 0.930 . S
C726 C727 1.367 . S
C726 C734 1.378 . S
C727 C726 1.367 . S
C727 C735 1.433 1_455 S
C728 H724 0.929 . S
C728 C730 1.378 . S
C728 C732 1.320 1_655 S
C729 C732 1.467 . S
C729 C734 1.350 . S
C729 N737 1.427 1_455 S
C730 H721 0.930 . S
C730 C728 1.378 . S
C730 C731 1.367 . S
C731 C730 1.367 . S
C731 C733 1.433 1_655 S
C732 C728 1.320 1_455 S
C732 C729 1.467 . S
C732 N736 1.456 . S
C733 H723 0.929 . S
C733 C731 1.433 1_455 S
C733 N736 1.384 . S
C734 H725 0.929 . S
C734 C726 1.378 . S
C734 C729 1.350 . S
C735 H722 0.929 . S
C735 C727 1.433 1_655 S
C735 N737 1.384 . S
N736 C732 1.456 . S
N736 C733 1.384 . S
N737 C729 1.427 1_655 S
N737 C735 1.384 . S
H738 C744 0.930 . S
H739 C748 0.930 . S
H740 C753 0.929 . S
H741 C751 0.929 . S
H742 C746 0.929 . S
H743 C752 0.929 . S
C744 H738 0.930 . S
C744 C745 1.367 . S
C744 C752 1.378 . S
C745 C744 1.367 . S
C745 C753 1.433 . S
C746 H742 0.929 . S
C746 C748 1.378 . S
C746 C750 1.350 . S
C747 C750 1.463 . S
C747 C752 1.350 . S
C747 N755 1.427 . S
C748 H739 0.930 . S
C748 C746 1.378 . S
C748 C749 1.367 . S
C749 C748 1.367 . S
C749 C751 1.433 . S
C750 C746 1.350 . S
C750 C747 1.463 . S
C750 N754 1.427 . S
C751 H741 0.929 . S
C751 C749 1.433 . S
C751 N754 1.384 . S
C752 H743 0.929 . S
C752 C744 1.378 . S
C752 C747 1.350 . S
C753 H740 0.929 . S
C753 C745 1.433 . S
C753 N755 1.384 . S
N754 C750 1.427 . S
N754 C751 1.384 . S
N755 C747 1.427 . S
N755 C753 1.384 . S
H756 C762 0.930 . S
H757 C766 0.930 1_554 S
H758 C771 0.929 . S
H759 C769 0.929 . S
H760 C764 0.929 . S
H761 C770 0.929 . S
C762 H756 0.930 . S
C762 C763 1.367 . S
C762 C770 1.378 . S
C763 C762 1.367 . S
C763 C771 1.433 . S
C764 H760 0.929 . S
C764 C766 1.378 . S
C764 C768 1.350 . S
C765 C768 1.463 . S
C765 C770 1.350 . S
C765 N773 1.427 . S
C766 H757 0.930 1_556 S
C766 C764 1.378 . S
C766 C767 1.367 . S
C767 C766 1.367 . S
C767 C769 1.433 . S
C768 C764 1.350 . S
C768 C765 1.463 . S
C768 N772 1.427 . S
C769 H759 0.929 . S
C769 C767 1.433 . S
C769 N772 1.384 . S
C770 H761 0.929 . S
C770 C762 1.378 . S
C770 C765 1.350 . S
C771 H758 0.929 . S
C771 C763 1.433 . S
C771 N773 1.384 . S
N772 C768 1.427 . S
N772 C769 1.384 . S
N773 C765 1.427 . S
N773 C771 1.384 . S
H774 C780 0.930 . S
H775 C784 0.930 . S
H776 C789 0.929 . S
H777 C787 0.929 . S
H778 C782 0.929 . S
H779 C788 0.929 . S
C780 H774 0.930 . S
C780 C781 1.367 . S
C780 C788 1.378 . S
C781 C780 1.367 . S
C781 C789 1.433 . S
C782 H778 0.929 . S
C782 C784 1.378 . S
C782 C786 1.350 . S
C783 C786 1.463 . S
C783 C788 1.350 . S
C783 N791 1.427 . S
C784 H775 0.930 . S
C784 C782 1.378 . S
C784 C785 1.367 . S
C785 C784 1.367 . S
C785 C787 1.433 . S
C786 C782 1.350 . S
C786 C783 1.463 . S
C786 N790 1.427 . S
C787 H777 0.929 . S
C787 C785 1.433 . S
C787 N790 1.384 . S
C788 H779 0.929 . S
C788 C780 1.378 . S
C788 C783 1.350 . S
C789 H776 0.929 . S
C789 C781 1.433 . S
C789 N791 1.384 . S
N790 C786 1.427 . S
N790 C787 1.384 . S
N791 C783 1.427 . S
N791 C789 1.384 . S
H792 C798 0.930 . S
H793 C802 0.930 . S
H794 C807 0.929 . S
H795 C805 0.929 . S
H796 C800 0.929 . S
H797 C806 0.929 . S
C798 H792 0.930 . S
C798 C799 1.367 1_565 S
C798 C806 1.378 . S
C799 C798 1.367 1_545 S
C799 C807 1.433 . S
C800 H796 0.929 . S
C800 C802 1.378 . S
C800 C804 1.321 1_545 S
C801 C804 1.462 . S
C801 C806 1.354 . S
C801 N809 1.423 1_565 S
C802 H793 0.930 . S
C802 C800 1.378 . S
C802 C803 1.367 1_545 S
C803 C802 1.367 1_565 S
C803 C805 1.433 . S
C804 C800 1.321 1_565 S
C804 C801 1.462 . S
C804 N808 1.461 . S
C805 H795 0.929 . S
C805 C803 1.433 . S
C805 N808 1.384 . S
C806 H797 0.929 . S
C806 C798 1.378 . S
C806 C801 1.354 . S
C807 H794 0.929 . S
C807 C799 1.433 . S
C807 N809 1.384 . S
N808 C804 1.461 . S
N808 C805 1.384 . S
N809 C801 1.423 1_545 S
N809 C807 1.384 . S
H810 C816 0.930 . S
H811 C820 0.930 . S
H812 C825 0.929 . S
H813 C823 0.929 . S
H814 C818 0.929 . S
H815 C824 0.929 . S
C816 H810 0.930 . S
C816 C817 1.367 . S
C816 C824 1.378 . S
C817 C816 1.367 . S
C817 C825 1.433 . S
C818 H814 0.929 . S
C818 C820 1.378 . S
C818 C822 1.350 . S
C819 C822 1.463 . S
C819 C824 1.350 . S
C819 N827 1.427 . S
C820 H811 0.930 . S
C820 C818 1.378 . S
C820 C821 1.367 . S
C821 C820 1.367 . S
C821 C823 1.433 . S
C822 C818 1.350 . S
C822 C819 1.463 . S
C822 N826 1.427 . S
C823 H813 0.929 . S
C823 C821 1.433 . S
C823 N826 1.384 . S
C824 H815 0.929 . S
C824 C816 1.378 . S
C824 C819 1.350 . S
C825 H812 0.929 . S
C825 C817 1.433 . S
C825 N827 1.384 . S
N826 C822 1.427 . S
N826 C823 1.384 . S
N827 C819 1.427 . S
N827 C825 1.384 . S
H828 C834 0.930 . S
H829 C838 0.930 . S
H830 C843 0.929 . S
H831 C841 0.929 . S
H832 C836 0.929 . S
H833 C842 0.929 . S
C834 H828 0.930 . S
C834 C835 1.367 . S
C834 C842 1.378 . S
C835 C834 1.367 . S
C835 C843 1.433 1_545 S
C836 H832 0.929 . S
C836 C838 1.378 . S
C836 C840 1.350 1_565 S
C837 C840 1.463 . S
C837 C842 1.350 . S
C837 N845 1.427 1_545 S
C838 H829 0.930 . S
C838 C836 1.378 . S
C838 C839 1.367 1_565 S
C839 C838 1.367 1_545 S
C839 C841 1.433 . S
C840 C836 1.350 1_545 S
C840 C837 1.463 . S
C840 N844 1.427 . S
C841 H831 0.929 . S
C841 C839 1.433 . S
C841 N844 1.384 . S
C842 H833 0.929 . S
C842 C834 1.378 . S
C842 C837 1.350 . S
C843 H830 0.929 . S
C843 C835 1.433 1_565 S
C843 N845 1.384 . S
N844 C840 1.427 . S
N844 C841 1.384 . S
N845 C837 1.427 1_565 S
N845 C843 1.384 . S
H846 C852 0.930 . S
H847 C856 0.930 . S
H848 C861 0.929 . S
H849 C859 0.929 . S
H850 C854 0.929 . S
H851 C860 0.929 . S
C852 H846 0.930 . S
C852 C853 1.367 . S
C852 C860 1.378 . S
C853 C852 1.367 . S
C853 C861 1.433 . S
C854 H850 0.929 . S
C854 C856 1.378 . S
C854 C858 1.350 . S
C855 C858 1.463 . S
C855 C860 1.350 . S
C855 N863 1.427 . S
C856 H847 0.930 . S
C856 C854 1.378 . S
C856 C857 1.367 . S
C857 C856 1.367 . S
C857 C859 1.433 . S
C858 C854 1.350 . S
C858 C855 1.463 . S
C858 N862 1.427 . S
C859 H849 0.929 . S
C859 C857 1.433 . S
C859 N862 1.384 . S
C860 H851 0.929 . S
C860 C852 1.378 . S
C860 C855 1.350 . S
C861 H848 0.929 . S
C861 C853 1.433 . S
C861 N863 1.384 . S
N862 C858 1.427 . S
N862 C859 1.384 . S
N863 C855 1.427 . S
N863 C861 1.384 . S
H864 C870 0.930 . S
H865 C874 0.930 . S
H866 C879 0.929 . S
H867 C877 0.929 . S
H868 C872 0.929 . S
H869 C878 0.929 . S
C870 H864 0.930 . S
C870 C871 1.367 1_565 S
C870 C878 1.378 . S
C871 C870 1.367 1_545 S
C871 C879 1.433 . S
C872 H868 0.929 . S
C872 C874 1.378 . S
C872 C876 1.350 . S
C873 C876 1.463 . S
C873 C878 1.350 1_545 S
C873 N881 1.427 . S
C874 H865 0.930 . S
C874 C872 1.378 . S
C874 C875 1.367 . S
C875 C874 1.367 . S
C875 C877 1.433 1_545 S
C876 C872 1.350 . S
C876 C873 1.463 . S
C876 N880 1.427 1_545 S
C877 H867 0.929 . S
C877 C875 1.433 1_565 S
C877 N880 1.384 . S
C878 H869 0.929 . S
C878 C870 1.378 . S
C878 C873 1.350 1_565 S
C879 H866 0.929 . S
C879 C871 1.433 . S
C879 N881 1.384 . S
N880 C876 1.427 1_565 S
N880 C877 1.384 . S
N881 C873 1.427 . S
N881 C879 1.384 . S
H882 C888 0.930 . S
H883 C892 0.930 . S
H884 C897 0.929 . S
H885 C895 0.929 . S
H886 C890 0.929 . S
H887 C896 0.929 . S
C888 H882 0.930 . S
C888 C889 1.367 . S
C888 C896 1.378 . S
C889 C888 1.367 . S
C889 C897 1.433 . S
C890 H886 0.929 . S
C890 C892 1.378 . S
C890 C894 1.350 . S
C891 C894 1.463 . S
C891 C896 1.350 . S
C891 N899 1.427 . S
C892 H883 0.930 . S
C892 C890 1.378 . S
C892 C893 1.367 . S
C893 C892 1.367 . S
C893 C895 1.433 . S
C894 C890 1.350 . S
C894 C891 1.463 . S
C894 N898 1.427 . S
C895 H885 0.929 . S
C895 C893 1.433 . S
C895 N898 1.384 . S
C896 H887 0.929 . S
C896 C888 1.378 . S
C896 C891 1.350 . S
C897 H884 0.929 . S
C897 C889 1.433 . S
C897 N899 1.384 . S
N898 C894 1.427 . S
N898 C895 1.384 . S
N899 C891 1.427 . S
N899 C897 1.384 . S
H900 C906 0.930 . S
H901 C910 0.930 . S
H902 C915 0.929 . S
H903 C913 0.929 . S
H904 C908 0.929 . S
H905 C914 0.929 . S
C906 H900 0.930 . S
C906 C907 1.367 1_565 S
C906 C914 1.378 . S
C907 C906 1.367 1_545 S
C907 C915 1.433 . S
C908 H904 0.929 . S
C908 C910 1.378 . S
C908 C912 1.350 . S
C909 C912 1.463 . S
C909 C914 1.350 1_545 S
C909 N917 1.427 . S
C910 H901 0.930 . S
C910 C908 1.378 . S
C910 C911 1.367 1_545 S
C911 C910 1.367 1_565 S
C911 C913 1.433 . S
C912 C908 1.350 . S
C912 C909 1.463 . S
C912 N916 1.427 1_545 S
C913 H903 0.929 . S
C913 C911 1.433 . S
C913 N916 1.384 . S
C914 H905 0.929 . S
C914 C906 1.378 . S
C914 C909 1.350 1_565 S
C915 H902 0.929 . S
C915 C907 1.433 . S
C915 N917 1.384 . S
N916 C912 1.427 1_565 S
N916 C913 1.384 . S
N917 C909 1.427 . S
N917 C915 1.384 . S
H918 C924 0.930 . S
H919 C928 0.930 . S
H920 C933 0.929 . S
H921 C931 0.929 . S
H922 C926 0.929 . S
H923 C932 0.929 . S
C924 H918 0.930 . S
C924 C925 1.367 . S
C924 C932 1.378 . S
C925 C924 1.367 . S
C925 C933 1.433 . S
C926 H922 0.929 . S
C926 C928 1.378 . S
C926 C930 1.350 . S
C927 C930 1.463 . S
C927 C932 1.350 . S
C927 N935 1.427 . S
C928 H919 0.930 . S
C928 C926 1.378 . S
C928 C929 1.367 . S
C929 C928 1.367 . S
C929 C931 1.433 . S
C930 C926 1.350 . S
C930 C927 1.463 . S
C930 N934 1.427 . S
C931 H921 0.929 . S
C931 C929 1.433 . S
C931 N934 1.384 . S
C932 H923 0.929 . S
C932 C924 1.378 . S
C932 C927 1.350 . S
C933 H920 0.929 . S
C933 C925 1.433 . S
C933 N935 1.384 . S
N934 C930 1.427 . S
N934 C931 1.384 . S
N935 C927 1.427 . S
N935 C933 1.384 . S
H936 C942 0.930 . S
H937 C946 0.930 . S
H938 C951 0.929 . S
H939 C949 0.929 . S
H940 C944 0.929 . S
H941 C950 0.929 . S
C942 H936 0.930 . S
C942 C943 1.367 . S
C942 C950 1.378 . S
C943 C942 1.367 . S
C943 C951 1.433 1_554 S
C944 H940 0.929 . S
C944 C946 1.378 . S
C944 C948 1.353 . S
C945 C948 1.462 1_554 S
C945 C950 1.350 . S
C945 N953 1.427 1_554 S
C946 H937 0.930 . S
C946 C944 1.378 . S
C946 C947 1.367 . S
C947 C946 1.367 . S
C947 C949 1.433 1_556 S
C948 C944 1.353 . S
C948 C945 1.462 1_556 S
C948 N952 1.424 1_556 S
C949 H939 0.929 . S
C949 C947 1.433 1_554 S
C949 N952 1.384 . S
C950 H941 0.929 . S
C950 C942 1.378 . S
C950 C945 1.350 . S
C951 H938 0.929 . S
C951 C943 1.433 1_556 S
C951 N953 1.384 . S
N952 C948 1.424 1_554 S
N952 C949 1.384 . S
N953 C945 1.427 1_556 S
N953 C951 1.384 . S
H954 C960 0.930 . S
H955 C964 0.930 . S
H956 C969 0.929 . S
H957 C967 0.929 . S
H958 C962 0.929 1_556 S
H959 C968 0.929 . S
C960 H954 0.930 . S
C960 C961 1.367 . S
C960 C968 1.378 . S
C961 C960 1.367 . S
C961 C969 1.433 1_554 S
C962 H958 0.929 1_554 S
C962 C964 1.378 . S
C962 C966 1.350 . S
C963 C966 1.463 . S
C963 C968 1.350 . S
C963 N971 1.415 1_554 S
C964 H955 0.930 . S
C964 C962 1.378 . S
C964 C965 1.367 . S
C965 C964 1.367 . S
C965 C967 1.433 . S
C966 C962 1.350 . S
C966 C963 1.463 . S
C966 N970 1.427 . S
C967 H957 0.929 . S
C967 C965 1.433 . S
C967 N970 1.384 . S
C968 H959 0.929 . S
C968 C960 1.378 . S
C968 C963 1.350 . S
C969 H956 0.929 . S
C969 C961 1.433 1_556 S
C969 N971 1.389 . S
N970 C966 1.427 . S
N970 C967 1.384 . S
N971 C963 1.415 1_556 S
N971 C969 1.389 . S
H972 C978 0.930 . S
H973 C982 0.930 . S
H974 C987 0.929 . S
H975 C985 0.929 . S
H976 C980 0.929 . S
H977 C986 0.929 . S
C978 H972 0.930 . S
C978 C979 1.367 . S
C978 C986 1.378 . S
C979 C978 1.367 . S
C979 C987 1.433 . S
C980 H976 0.929 . S
C980 C982 1.378 . S
C980 C984 1.350 . S
C981 C984 1.463 . S
C981 C986 1.350 . S
C981 N989 1.427 . S
C982 H973 0.930 . S
C982 C980 1.378 . S
C982 C983 1.367 . S
C983 C982 1.367 . S
C983 C985 1.433 . S
C984 C980 1.350 . S
C984 C981 1.463 . S
C984 N988 1.427 . S
C985 H975 0.929 . S
C985 C983 1.433 . S
C985 N988 1.384 . S
C986 H977 0.929 . S
C986 C978 1.378 . S
C986 C981 1.350 . S
C987 H974 0.929 . S
C987 C979 1.433 . S
C987 N989 1.384 . S
N988 C984 1.427 . S
N988 C985 1.384 . S
N989 C981 1.427 . S
N989 C987 1.384 . S
H990 C996 0.930 . S
H991 C1000 0.930 . S
H992 C1005 0.929 . S
H993 C1003 0.929 . S
H994 C998 0.929 . S
H995 C1004 0.929 . S
C996 H990 0.930 . S
C996 C997 1.367 . S
C996 C1004 1.378 . S
C997 C996 1.367 . S
C997 C1005 1.433 . S
C998 H994 0.929 . S
C998 C1000 1.378 . S
C998 C1002 1.350 . S
C999 C1002 1.463 . S
C999 C1004 1.350 . S
C999 N1007 1.427 . S
C1000 H991 0.930 . S
C1000 C998 1.378 . S
C1000 C1001 1.367 . S
C1001 C1000 1.367 . S
C1001 C1003 1.433 . S
C1002 C998 1.350 . S
C1002 C999 1.463 . S
C1002 N1006 1.427 . S
C1003 H993 0.929 . S
C1003 C1001 1.433 . S
C1003 N1006 1.384 . S
C1004 H995 0.929 . S
C1004 C996 1.378 . S
C1004 C999 1.350 . S
C1005 H992 0.929 . S
C1005 C997 1.433 . S
C1005 N1007 1.384 . S
N1006 C1002 1.427 . S
N1006 C1003 1.384 . S
N1007 C999 1.427 . S
N1007 C1005 1.384 . S
H1008 C1014 0.930 . S
H1009 C1018 0.930 . S
H1010 C1023 0.929 . S
H1011 C1021 0.929 . S
H1012 C1016 0.929 . S
H1013 C1022 0.929 . S
C1014 H1008 0.930 . S
C1014 C1015 1.367 . S
C1014 C1022 1.378 . S
C1015 C1014 1.367 . S
C1015 C1023 1.433 . S
C1016 H1012 0.929 . S
C1016 C1018 1.378 . S
C1016 C1020 1.350 . S
C1017 C1020 1.463 . S
C1017 C1022 1.350 . S
C1017 N1025 1.427 . S
C1018 H1009 0.930 . S
C1018 C1016 1.378 . S
C1018 C1019 1.367 . S
C1019 C1018 1.367 . S
C1019 C1021 1.433 . S
C1020 C1016 1.350 . S
C1020 C1017 1.463 . S
C1020 N1024 1.427 . S
C1021 H1011 0.929 . S
C1021 C1019 1.433 . S
C1021 N1024 1.384 . S
C1022 H1013 0.929 . S
C1022 C1014 1.378 . S
C1022 C1017 1.350 . S
C1023 H1010 0.929 . S
C1023 C1015 1.433 . S
C1023 N1025 1.384 . S
N1024 C1020 1.427 . S
N1024 C1021 1.384 . S
N1025 C1017 1.427 . S
N1025 C1023 1.384 . S
H1026 C1032 0.930 . S
H1027 C1036 0.930 . S
H1028 C1041 0.929 . S
H1029 C1039 0.929 . S
H1030 C1034 0.929 . S
H1031 C1040 0.929 . S
C1032 H1026 0.930 . S
C1032 C1033 1.367 . S
C1032 C1040 1.378 . S
C1033 C1032 1.367 . S
C1033 C1041 1.433 . S
C1034 H1030 0.929 . S
C1034 C1036 1.378 . S
C1034 C1038 1.350 . S
C1035 C1038 1.463 . S
C1035 C1040 1.350 . S
C1035 N1043 1.427 . S
C1036 H1027 0.930 . S
C1036 C1034 1.378 . S
C1036 C1037 1.367 . S
C1037 C1036 1.367 . S
C1037 C1039 1.433 . S
C1038 C1034 1.350 . S
C1038 C1035 1.463 . S
C1038 N1042 1.427 . S
C1039 H1029 0.929 . S
C1039 C1037 1.433 . S
C1039 N1042 1.384 . S
C1040 H1031 0.929 . S
C1040 C1032 1.378 . S
C1040 C1035 1.350 . S
C1041 H1028 0.929 . S
C1041 C1033 1.433 . S
C1041 N1043 1.384 . S
N1042 C1038 1.427 . S
N1042 C1039 1.384 . S
N1043 C1035 1.427 . S
N1043 C1041 1.384 . S
H1044 C1050 0.930 . S
H1045 C1054 0.930 . S
H1046 C1059 0.929 . S
H1047 C1057 0.929 . S
H1048 C1052 0.929 . S
H1049 C1058 0.929 . S
C1050 H1044 0.930 . S
C1050 C1051 1.367 . S
C1050 C1058 1.378 . S
C1051 C1050 1.367 . S
C1051 C1059 1.433 . S
C1052 H1048 0.929 . S
C1052 C1054 1.378 . S
C1052 C1056 1.350 . S
C1053 C1056 1.463 . S
C1053 C1058 1.350 . S
C1053 N1061 1.427 . S
C1054 H1045 0.930 . S
C1054 C1052 1.378 . S
C1054 C1055 1.367 . S
C1055 C1054 1.367 . S
C1055 C1057 1.433 . S
C1056 C1052 1.350 . S
C1056 C1053 1.463 . S
C1056 N1060 1.427 . S
C1057 H1047 0.929 . S
C1057 C1055 1.433 . S
C1057 N1060 1.384 . S
C1058 H1049 0.929 . S
C1058 C1050 1.378 . S
C1058 C1053 1.350 . S
C1059 H1046 0.929 . S
C1059 C1051 1.433 . S
C1059 N1061 1.384 . S
N1060 C1056 1.427 . S
N1060 C1057 1.384 . S
N1061 C1053 1.427 . S
N1061 C1059 1.384 . S
H1062 C1068 0.930 . S
H1063 C1072 0.930 . S
H1064 C1077 0.929 . S
H1065 C1075 0.929 . S
H1066 C1070 0.929 . S
H1067 C1076 0.929 . S
C1068 H1062 0.930 . S
C1068 C1069 1.367 . S
C1068 C1076 1.378 . S
C1069 C1068 1.367 . S
C1069 C1077 1.433 . S
C1070 H1066 0.929 . S
C1070 C1072 1.378 . S
C1070 C1074 1.350 . S
C1071 C1074 1.463 . S
C1071 C1076 1.350 . S
C1071 N1079 1.427 . S
C1072 H1063 0.930 . S
C1072 C1070 1.378 . S
C1072 C1073 1.367 . S
C1073 C1072 1.367 . S
C1073 C1075 1.433 . S
C1074 C1070 1.350 . S
C1074 C1071 1.463 . S
C1074 N1078 1.427 . S
C1075 H1065 0.929 . S
C1075 C1073 1.433 . S
C1075 N1078 1.384 . S
C1076 H1067 0.929 . S
C1076 C1068 1.378 . S
C1076 C1071 1.350 . S
C1077 H1064 0.929 . S
C1077 C1069 1.433 . S
C1077 N1079 1.384 . S
N1078 C1074 1.427 . S
N1078 C1075 1.384 . S
N1079 C1071 1.427 . S
N1079 C1077 1.384 . S
H1080 C1086 0.930 . S
H1081 C1090 0.930 . S
H1082 C1095 0.929 . S
H1083 C1093 0.929 . S
H1084 C1088 0.929 . S
H1085 C1094 0.929 . S
C1086 H1080 0.930 . S
C1086 C1087 1.367 . S
C1086 C1094 1.378 . S
C1087 C1086 1.367 . S
C1087 C1095 1.433 1_455 S
C1088 H1084 0.929 . S
C1088 C1090 1.378 . S
C1088 C1092 1.350 1_655 S
C1089 C1092 1.463 . S
C1089 C1094 1.350 . S
C1089 N1097 1.427 1_455 S
C1090 H1081 0.930 . S
C1090 C1088 1.378 . S
C1090 C1091 1.367 1_655 S
C1091 C1090 1.367 1_455 S
C1091 C1093 1.433 . S
C1092 C1088 1.350 1_455 S
C1092 C1089 1.463 . S
C1092 N1096 1.427 . S
C1093 H1083 0.929 . S
C1093 C1091 1.433 . S
C1093 N1096 1.384 . S
C1094 H1085 0.929 . S
C1094 C1086 1.378 . S
C1094 C1089 1.350 . S
C1095 H1082 0.929 . S
C1095 C1087 1.433 1_655 S
C1095 N1097 1.384 . S
N1096 C1092 1.427 . S
N1096 C1093 1.384 . S
N1097 C1089 1.427 1_655 S
N1097 C1095 1.384 . S
H1098 C1104 0.930 . S
H1099 C1108 0.930 . S
H1100 C1113 0.929 . S
H1101 C1111 0.929 . S
H1102 C1106 0.929 . S
H1103 C1112 0.929 . S
C1104 H1098 0.930 . S
C1104 C1105 1.367 . S
C1104 C1112 1.378 . S
C1105 C1104 1.367 . S
C1105 C1113 1.433 . S
C1106 H1102 0.929 . S
C1106 C1108 1.378 . S
C1106 C1110 1.350 . S
C1107 C1110 1.463 . S
C1107 C1112 1.350 . S
C1107 N1115 1.427 . S
C1108 H1099 0.930 . S
C1108 C1106 1.378 . S
C1108 C1109 1.367 . S
C1109 C1108 1.367 . S
C1109 C1111 1.433 . S
C1110 C1106 1.350 . S
C1110 C1107 1.463 . S
C1110 N1114 1.427 . S
C1111 H1101 0.929 . S
C1111 C1109 1.433 . S
C1111 N1114 1.384 . S
C1112 H1103 0.929 . S
C1112 C1104 1.378 . S
C1112 C1107 1.350 . S
C1113 H1100 0.929 . S
C1113 C1105 1.433 . S
C1113 N1115 1.384 . S
N1114 C1110 1.427 . S
N1114 C1111 1.384 . S
N1115 C1107 1.427 . S
N1115 C1113 1.384 . S
H1116 C1122 0.930 . S
H1117 C1126 0.930 . S
H1118 C1131 0.929 . S
H1119 C1129 0.929 . S
H1120 C1124 0.929 . S
H1121 C1130 0.929 . S
C1122 H1116 0.930 . S
C1122 C1123 1.367 . S
C1122 C1130 1.378 . S
C1123 C1122 1.367 . S
C1123 C1131 1.433 . S
C1124 H1120 0.929 . S
C1124 C1126 1.378 . S
C1124 C1128 1.350 . S
C1125 C1128 1.463 . S
C1125 C1130 1.350 . S
C1125 N1133 1.427 . S
C1126 H1117 0.930 . S
C1126 C1124 1.378 . S
C1126 C1127 1.367 . S
C1127 C1126 1.367 . S
C1127 C1129 1.433 . S
C1128 C1124 1.350 . S
C1128 C1125 1.463 . S
C1128 N1132 1.427 . S
C1129 H1119 0.929 . S
C1129 C1127 1.433 . S
C1129 N1132 1.384 . S
C1130 H1121 0.929 . S
C1130 C1122 1.378 . S
C1130 C1125 1.350 . S
C1131 H1118 0.929 . S
C1131 C1123 1.433 . S
C1131 N1133 1.384 . S
N1132 C1128 1.427 . S
N1132 C1129 1.384 . S
N1133 C1125 1.427 . S
N1133 C1131 1.384 . S
H1134 C1140 0.930 . S
H1135 C1144 0.930 . S
H1136 C1149 0.929 . S
H1137 C1147 0.929 . S
H1138 C1142 0.929 . S
H1139 C1148 0.929 . S
C1140 H1134 0.930 . S
C1140 C1141 1.367 . S
C1140 C1148 1.378 . S
C1141 C1140 1.367 . S
C1141 C1149 1.433 . S
C1142 H1138 0.929 . S
C1142 C1144 1.378 . S
C1142 C1146 1.350 . S
C1143 C1146 1.463 . S
C1143 C1148 1.350 . S
C1143 N1151 1.427 . S
C1144 H1135 0.930 . S
C1144 C1142 1.378 . S
C1144 C1145 1.367 . S
C1145 C1144 1.367 . S
C1145 C1147 1.433 . S
C1146 C1142 1.350 . S
C1146 C1143 1.463 . S
C1146 N1150 1.427 . S
C1147 H1137 0.929 . S
C1147 C1145 1.433 . S
C1147 N1150 1.384 . S
C1148 H1139 0.929 . S
C1148 C1140 1.378 . S
C1148 C1143 1.350 . S
C1149 H1136 0.929 . S
C1149 C1141 1.433 . S
C1149 N1151 1.384 . S
N1150 C1146 1.427 . S
N1150 C1147 1.384 . S
N1151 C1143 1.427 . S
N1151 C1149 1.384 . S
H1152 C1158 0.930 . S
H1153 C1162 0.930 . S
H1154 C1167 0.929 . S
H1155 C1165 0.929 . S
H1156 C1160 0.929 . S
H1157 C1166 0.929 . S
C1158 H1152 0.930 . S
C1158 C1159 1.367 . S
C1158 C1166 1.378 . S
C1159 C1158 1.367 . S
C1159 C1167 1.433 1_455 S
C1160 H1156 0.929 . S
C1160 C1162 1.378 . S
C1160 C1164 1.350 1_655 S
C1161 C1164 1.463 . S
C1161 C1166 1.350 . S
C1161 N1169 1.427 1_455 S
C1162 H1153 0.930 . S
C1162 C1160 1.378 . S
C1162 C1163 1.367 1_655 S
C1163 C1162 1.367 1_455 S
C1163 C1165 1.433 . S
C1164 C1160 1.350 1_455 S
C1164 C1161 1.463 . S
C1164 N1168 1.427 . S
C1165 H1155 0.929 . S
C1165 C1163 1.433 . S
C1165 N1168 1.384 . S
C1166 H1157 0.929 . S
C1166 C1158 1.378 . S
C1166 C1161 1.350 . S
C1167 H1154 0.929 . S
C1167 C1159 1.433 1_655 S
C1167 N1169 1.384 . S
N1168 C1164 1.427 . S
N1168 C1165 1.384 . S
N1169 C1161 1.427 1_655 S
N1169 C1167 1.384 . S
H1170 C1176 0.930 . S
H1171 C1180 0.930 . S
H1172 C1185 0.929 . S
H1173 C1183 0.929 . S
H1174 C1178 0.929 . S
H1175 C1184 0.929 . S
C1176 H1170 0.930 . S
C1176 C1177 1.367 . S
C1176 C1184 1.378 . S
C1177 C1176 1.367 . S
C1177 C1185 1.433 . S
C1178 H1174 0.929 . S
C1178 C1180 1.378 . S
C1178 C1182 1.350 . S
C1179 C1182 1.463 . S
C1179 C1184 1.350 . S
C1179 N1187 1.427 . S
C1180 H1171 0.930 . S
C1180 C1178 1.378 . S
C1180 C1181 1.367 . S
C1181 C1180 1.367 . S
C1181 C1183 1.433 . S
C1182 C1178 1.350 . S
C1182 C1179 1.463 . S
C1182 N1186 1.427 . S
C1183 H1173 0.929 . S
C1183 C1181 1.433 . S
C1183 N1186 1.384 . S
C1184 H1175 0.929 . S
C1184 C1176 1.378 . S
C1184 C1179 1.350 . S
C1185 H1172 0.929 . S
C1185 C1177 1.433 . S
C1185 N1187 1.384 . S
N1186 C1182 1.427 . S
N1186 C1183 1.384 . S
N1187 C1179 1.427 . S
N1187 C1185 1.384 . S
H1188 C1194 0.930 . S
H1189 C1198 0.930 . S
H1190 C1203 0.929 . S
H1191 C1201 0.929 . S
H1192 C1196 0.929 . S
H1193 C1202 0.929 . S
C1194 H1188 0.930 . S
C1194 C1195 1.367 . S
C1194 C1202 1.378 . S
C1195 C1194 1.367 . S
C1195 C1203 1.433 . S
C1196 H1192 0.929 . S
C1196 C1198 1.378 . S
C1196 C1200 1.350 . S
C1197 C1200 1.463 . S
C1197 C1202 1.350 . S
C1197 N1205 1.427 . S
C1198 H1189 0.930 . S
C1198 C1196 1.378 . S
C1198 C1199 1.367 . S
C1199 C1198 1.367 . S
C1199 C1201 1.433 . S
C1200 C1196 1.350 . S
C1200 C1197 1.463 . S
C1200 N1204 1.427 . S
C1201 H1191 0.929 . S
C1201 C1199 1.433 . S
C1201 N1204 1.384 . S
C1202 H1193 0.929 . S
C1202 C1194 1.378 . S
C1202 C1197 1.350 . S
C1203 H1190 0.929 . S
C1203 C1195 1.433 . S
C1203 N1205 1.384 . S
N1204 C1200 1.427 . S
N1204 C1201 1.384 . S
N1205 C1197 1.427 . S
N1205 C1203 1.384 . S
H1206 C1212 0.930 . S
H1207 C1216 0.930 . S
H1208 C1221 0.929 . S
H1209 C1219 0.929 . S
H1210 C1214 0.929 . S
H1211 C1220 0.929 . S
C1212 H1206 0.930 . S
C1212 C1213 1.367 . S
C1212 C1220 1.378 . S
C1213 C1212 1.367 . S
C1213 C1221 1.433 . S
C1214 H1210 0.929 . S
C1214 C1216 1.378 . S
C1214 C1218 1.350 . S
C1215 C1218 1.463 . S
C1215 C1220 1.350 . S
C1215 N1223 1.427 . S
C1216 H1207 0.930 . S
C1216 C1214 1.378 . S
C1216 C1217 1.367 . S
C1217 C1216 1.367 . S
C1217 C1219 1.433 . S
C1218 C1214 1.350 . S
C1218 C1215 1.463 . S
C1218 N1222 1.427 . S
C1219 H1209 0.929 . S
C1219 C1217 1.433 . S
C1219 N1222 1.384 . S
C1220 H1211 0.929 . S
C1220 C1212 1.378 . S
C1220 C1215 1.350 . S
C1221 H1208 0.929 . S
C1221 C1213 1.433 . S
C1221 N1223 1.384 . S
N1222 C1218 1.427 . S
N1222 C1219 1.384 . S
N1223 C1215 1.427 . S
N1223 C1221 1.384 . S
H1224 C1230 0.930 . S
H1225 C1234 0.930 . S
H1226 C1239 0.929 . S
H1227 C1237 0.929 . S
H1228 C1232 0.929 . S
H1229 C1238 0.929 . S
C1230 H1224 0.930 . S
C1230 C1231 1.367 . S
C1230 C1238 1.378 . S
C1231 C1230 1.367 . S
C1231 C1239 1.433 1_545 S
C1232 H1228 0.929 . S
C1232 C1234 1.378 . S
C1232 C1236 1.350 1_565 S
C1233 C1236 1.463 . S
C1233 C1238 1.350 . S
C1233 N1241 1.427 1_545 S
C1234 H1225 0.930 . S
C1234 C1232 1.378 . S
C1234 C1235 1.367 1_565 S
C1235 C1234 1.367 1_545 S
C1235 C1237 1.433 . S
C1236 C1232 1.350 1_545 S
C1236 C1233 1.463 . S
C1236 N1240 1.427 . S
C1237 H1227 0.929 . S
C1237 C1235 1.433 . S
C1237 N1240 1.384 . S
C1238 H1229 0.929 . S
C1238 C1230 1.378 . S
C1238 C1233 1.350 . S
C1239 H1226 0.929 . S
C1239 C1231 1.433 1_565 S
C1239 N1241 1.384 . S
N1240 C1236 1.427 . S
N1240 C1237 1.384 . S
N1241 C1233 1.427 1_565 S
N1241 C1239 1.384 . S
H1242 C1248 0.930 . S
H1243 C1252 0.930 . S
H1244 C1257 0.929 . S
H1245 C1255 0.929 . S
H1246 C1250 0.929 . S
H1247 C1256 0.929 . S
C1248 H1242 0.930 . S
C1248 C1249 1.367 . S
C1248 C1256 1.378 . S
C1249 C1248 1.367 . S
C1249 C1257 1.433 . S
C1250 H1246 0.929 . S
C1250 C1252 1.378 . S
C1250 C1254 1.350 . S
C1251 C1254 1.463 . S
C1251 C1256 1.350 . S
C1251 N1259 1.427 . S
C1252 H1243 0.930 . S
C1252 C1250 1.378 . S
C1252 C1253 1.367 . S
C1253 C1252 1.367 . S
C1253 C1255 1.433 . S
C1254 C1250 1.350 . S
C1254 C1251 1.463 . S
C1254 N1258 1.427 . S
C1255 H1245 0.929 . S
C1255 C1253 1.433 . S
C1255 N1258 1.384 . S
C1256 H1247 0.929 . S
C1256 C1248 1.378 . S
C1256 C1251 1.350 . S
C1257 H1244 0.929 . S
C1257 C1249 1.433 . S
C1257 N1259 1.384 . S
N1258 C1254 1.427 . S
N1258 C1255 1.384 . S
N1259 C1251 1.427 . S
N1259 C1257 1.384 . S
H1260 C1266 0.930 . S
H1261 C1270 0.930 . S
H1262 C1275 0.929 . S
H1263 C1273 0.929 . S
H1264 C1268 0.929 . S
H1265 C1274 0.929 . S
C1266 H1260 0.930 . S
C1266 C1267 1.367 . S
C1266 C1274 1.378 . S
C1267 C1266 1.367 . S
C1267 C1275 1.433 1_545 S
C1268 H1264 0.929 . S
C1268 C1270 1.378 . S
C1268 C1272 1.350 . S
C1269 C1272 1.463 1_545 S
C1269 C1274 1.350 . S
C1269 N1277 1.427 1_545 S
C1270 H1261 0.930 . S
C1270 C1268 1.378 . S
C1270 C1271 1.367 . S
C1271 C1270 1.367 . S
C1271 C1273 1.433 1_565 S
C1272 C1268 1.350 . S
C1272 C1269 1.463 1_565 S
C1272 N1276 1.427 1_565 S
C1273 H1263 0.929 . S
C1273 C1271 1.433 1_545 S
C1273 N1276 1.384 . S
C1274 H1265 0.929 . S
C1274 C1266 1.378 . S
C1274 C1269 1.350 . S
C1275 H1262 0.929 . S
C1275 C1267 1.433 1_565 S
C1275 N1277 1.384 . S
N1276 C1272 1.427 1_545 S
N1276 C1273 1.384 . S
N1277 C1269 1.427 1_565 S
N1277 C1275 1.384 . S
H1278 C1284 0.930 . S
H1279 C1288 0.930 . S
H1280 C1293 0.929 . S
H1281 C1291 0.929 . S
H1282 C1286 0.929 . S
H1283 C1292 0.929 . S
C1284 H1278 0.930 . S
C1284 C1285 1.367 . S
C1284 C1292 1.378 . S
C1285 C1284 1.367 . S
C1285 C1293 1.433 . S
C1286 H1282 0.929 . S
C1286 C1288 1.378 . S
C1286 C1290 1.350 . S
C1287 C1290 1.463 . S
C1287 C1292 1.350 . S
C1287 N1295 1.427 . S
C1288 H1279 0.930 . S
C1288 C1286 1.378 . S
C1288 C1289 1.367 . S
C1289 C1288 1.367 . S
C1289 C1291 1.433 . S
C1290 C1286 1.350 . S
C1290 C1287 1.463 . S
C1290 N1294 1.427 . S
C1291 H1281 0.929 . S
C1291 C1289 1.433 . S
C1291 N1294 1.384 . S
C1292 H1283 0.929 . S
C1292 C1284 1.378 . S
C1292 C1287 1.350 . S
C1293 H1280 0.929 . S
C1293 C1285 1.433 . S
C1293 N1295 1.384 . S
N1294 C1290 1.427 . S
N1294 C1291 1.384 . S
N1295 C1287 1.427 . S
N1295 C1293 1.384 . S
H1296 C1302 0.930 . S
H1297 C1306 0.930 . S
H1298 C1311 0.929 . S
H1299 C1309 0.929 . S
H1300 C1304 0.929 . S
H1301 C1310 0.929 . S
C1302 H1296 0.930 . S
C1302 C1303 1.367 . S
C1302 C1310 1.378 . S
C1303 C1302 1.367 . S
C1303 C1311 1.433 1_565 S
C1304 H1300 0.929 . S
C1304 C1306 1.378 . S
C1304 C1308 1.350 1_545 S
C1305 C1308 1.463 . S
C1305 C1310 1.350 . S
C1305 N1313 1.427 1_565 S
C1306 H1297 0.930 . S
C1306 C1304 1.378 . S
C1306 C1307 1.367 1_545 S
C1307 C1306 1.367 1_565 S
C1307 C1309 1.433 . S
C1308 C1304 1.350 1_565 S
C1308 C1305 1.463 . S
C1308 N1312 1.427 . S
C1309 H1299 0.929 . S
C1309 C1307 1.433 . S
C1309 N1312 1.384 . S
C1310 H1301 0.929 . S
C1310 C1302 1.378 . S
C1310 C1305 1.350 . S
C1311 H1298 0.929 . S
C1311 C1303 1.433 1_545 S
C1311 N1313 1.384 . S
N1312 C1308 1.427 . S
N1312 C1309 1.384 . S
N1313 C1305 1.427 1_545 S
N1313 C1311 1.384 . S
H1314 C1320 0.930 . S
H1315 C1324 0.930 . S
H1316 C1329 0.929 . S
H1317 C1327 0.929 . S
H1318 C1322 0.929 . S
H1319 C1328 0.929 . S
C1320 H1314 0.930 . S
C1320 C1321 1.367 . S
C1320 C1328 1.378 . S
C1321 C1320 1.367 . S
C1321 C1329 1.433 . S
C1322 H1318 0.929 . S
C1322 C1324 1.378 . S
C1322 C1326 1.350 . S
C1323 C1326 1.463 . S
C1323 C1328 1.350 . S
C1323 N1331 1.427 . S
C1324 H1315 0.930 . S
C1324 C1322 1.378 . S
C1324 C1325 1.367 . S
C1325 C1324 1.367 . S
C1325 C1327 1.433 . S
C1326 C1322 1.350 . S
C1326 C1323 1.463 . S
C1326 N1330 1.427 . S
C1327 H1317 0.929 . S
C1327 C1325 1.433 . S
C1327 N1330 1.384 . S
C1328 H1319 0.929 . S
C1328 C1320 1.378 . S
C1328 C1323 1.350 . S
C1329 H1316 0.929 . S
C1329 C1321 1.433 . S
C1329 N1331 1.384 . S
N1330 C1326 1.427 . S
N1330 C1327 1.384 . S
N1331 C1323 1.427 . S
N1331 C1329 1.384 . S
H1332 C1338 0.930 . S
H1333 C1342 0.930 . S
H1334 C1347 0.929 . S
H1335 C1345 0.929 . S
H1336 C1340 0.929 . S
H1337 C1346 0.929 . S
C1338 H1332 0.930 . S
C1338 C1339 1.367 . S
C1338 C1346 1.378 . S
C1339 C1338 1.367 . S
C1339 C1347 1.433 1_545 S
C1340 H1336 0.929 . S
C1340 C1342 1.378 . S
C1340 C1344 1.350 1_565 S
C1341 C1344 1.463 . S
C1341 C1346 1.350 . S
C1341 N1349 1.427 1_545 S
C1342 H1333 0.930 . S
C1342 C1340 1.378 . S
C1342 C1343 1.367 1_565 S
C1343 C1342 1.367 1_545 S
C1343 C1345 1.433 . S
C1344 C1340 1.350 1_545 S
C1344 C1341 1.463 . S
C1344 N1348 1.427 . S
C1345 H1335 0.929 . S
C1345 C1343 1.433 . S
C1345 N1348 1.384 . S
C1346 H1337 0.929 . S
C1346 C1338 1.378 . S
C1346 C1341 1.350 . S
C1347 H1334 0.929 . S
C1347 C1339 1.433 1_565 S
C1347 N1349 1.384 . S
N1348 C1344 1.427 . S
N1348 C1345 1.384 . S
N1349 C1341 1.427 1_565 S
N1349 C1347 1.384 . S
H1350 C1356 0.930 . S
H1351 C1360 0.930 . S
H1352 C1365 0.929 . S
H1353 C1363 0.929 . S
H1354 C1358 0.929 . S
H1355 C1364 0.929 . S
C1356 H1350 0.930 . S
C1356 C1357 1.367 . S
C1356 C1364 1.378 . S
C1357 C1356 1.367 . S
C1357 C1365 1.433 . S
C1358 H1354 0.929 . S
C1358 C1360 1.378 . S
C1358 C1362 1.350 . S
C1359 C1362 1.463 . S
C1359 C1364 1.350 . S
C1359 N1367 1.427 . S
C1360 H1351 0.930 . S
C1360 C1358 1.378 . S
C1360 C1361 1.367 . S
C1361 C1360 1.367 . S
C1361 C1363 1.433 . S
C1362 C1358 1.350 . S
C1362 C1359 1.463 . S
C1362 N1366 1.427 . S
C1363 H1353 0.929 . S
C1363 C1361 1.433 . S
C1363 N1366 1.384 . S
C1364 H1355 0.929 . S
C1364 C1356 1.378 . S
C1364 C1359 1.350 . S
C1365 H1352 0.929 . S
C1365 C1357 1.433 . S
C1365 N1367 1.384 . S
N1366 C1362 1.427 . S
N1366 C1363 1.384 . S
N1367 C1359 1.427 . S
N1367 C1365 1.384 . S
H1368 C1374 0.930 . S
H1369 C1378 0.930 . S
H1370 C1383 0.929 . S
H1371 C1381 0.956 . S
H1372 C1376 0.929 . S
H1373 C1382 0.929 . S
C1374 H1368 0.930 . S
C1374 C1375 1.367 1_556 S
C1374 C1382 1.378 . S
C1375 C1374 1.367 1_554 S
C1375 C1383 1.433 . S
C1376 H1372 0.929 . S
C1376 C1378 1.378 . S
C1376 C1380 1.350 . S
C1377 C1380 1.463 . S
C1377 C1382 1.350 1_554 S
C1377 N1385 1.427 . S
C1378 H1369 0.930 . S
C1378 C1376 1.378 . S
C1378 C1379 1.367 . S
C1379 C1378 1.367 . S
C1379 C1381 1.405 1_554 S
C1380 C1376 1.350 . S
C1380 C1377 1.463 . S
C1380 N1384 1.427 1_554 S
C1381 H1371 0.956 . S
C1381 C1379 1.405 1_556 S
C1381 N1384 1.386 . S
C1382 H1373 0.929 . S
C1382 C1374 1.378 . S
C1382 C1377 1.350 1_556 S
C1383 H1370 0.929 . S
C1383 C1375 1.433 . S
C1383 N1385 1.384 . S
N1384 C1380 1.427 1_556 S
N1384 C1381 1.386 . S
N1385 C1377 1.427 . S
N1385 C1383 1.384 . S
H1386 C1392 0.930 . S
H1387 C1396 0.930 . S
H1388 C1401 0.929 . S
H1389 C1399 0.929 . S
H1390 C1394 0.929 . S
H1391 C1400 0.929 . S
C1392 H1386 0.930 . S
C1392 C1393 1.367 . S
C1392 C1400 1.378 . S
C1393 C1392 1.367 . S
C1393 C1401 1.433 1_556 S
C1394 H1390 0.929 . S
C1394 C1396 1.378 . S
C1394 C1398 1.350 1_554 S
C1395 C1398 1.463 . S
C1395 C1400 1.350 . S
C1395 N1403 1.427 1_556 S
C1396 H1387 0.930 . S
C1396 C1394 1.378 . S
C1396 C1397 1.367 1_554 S
C1397 C1396 1.367 1_556 S
C1397 C1399 1.433 . S
C1398 C1394 1.350 1_556 S
C1398 C1395 1.463 . S
C1398 N1402 1.427 . S
C1399 H1389 0.929 . S
C1399 C1397 1.433 . S
C1399 N1402 1.384 . S
C1400 H1391 0.929 . S
C1400 C1392 1.378 . S
C1400 C1395 1.350 . S
C1401 H1388 0.929 . S
C1401 C1393 1.433 1_554 S
C1401 N1403 1.384 . S
N1402 C1398 1.427 . S
N1402 C1399 1.384 . S
N1403 C1395 1.427 1_554 S
N1403 C1401 1.384 . S
H1404 C1410 0.930 . S
H1405 C1414 0.930 . S
H1406 C1419 0.929 . S
H1407 C1417 0.929 . S
H1408 C1412 0.929 . S
H1409 C1418 0.929 . S
C1410 H1404 0.930 . S
C1410 C1411 1.367 . S
C1410 C1418 1.378 . S
C1411 C1410 1.367 . S
C1411 C1419 1.433 . S
C1412 H1408 0.929 . S
C1412 C1414 1.378 . S
C1412 C1416 1.350 . S
C1413 C1416 1.463 . S
C1413 C1418 1.350 . S
C1413 N1421 1.427 . S
C1414 H1405 0.930 . S
C1414 C1412 1.378 . S
C1414 C1415 1.367 . S
C1415 C1414 1.367 . S
C1415 C1417 1.433 . S
C1416 C1412 1.350 . S
C1416 C1413 1.463 . S
C1416 N1420 1.427 . S
C1417 H1407 0.929 . S
C1417 C1415 1.433 . S
C1417 N1420 1.384 . S
C1418 H1409 0.929 . S
C1418 C1410 1.378 . S
C1418 C1413 1.350 . S
C1419 H1406 0.929 . S
C1419 C1411 1.433 . S
C1419 N1421 1.384 . S
N1420 C1416 1.427 . S
N1420 C1417 1.384 . S
N1421 C1413 1.427 . S
N1421 C1419 1.384 . S
H1422 C1428 0.930 . S
H1423 C1432 0.930 . S
H1424 C1437 0.929 . S
H1425 C1435 0.929 . S
H1426 C1430 0.929 . S
H1427 C1436 0.929 . S
C1428 H1422 0.930 . S
C1428 C1429 1.367 . S
C1428 C1436 1.378 . S
C1429 C1428 1.367 . S
C1429 C1437 1.433 . S
C1430 H1426 0.929 . S
C1430 C1432 1.378 . S
C1430 C1434 1.350 . S
C1431 C1434 1.463 . S
C1431 C1436 1.350 . S
C1431 N1439 1.427 . S
C1432 H1423 0.930 . S
C1432 C1430 1.378 . S
C1432 C1433 1.367 . S
C1433 C1432 1.367 . S
C1433 C1435 1.433 . S
C1434 C1430 1.350 . S
C1434 C1431 1.463 . S
C1434 N1438 1.427 . S
C1435 H1425 0.929 . S
C1435 C1433 1.433 . S
C1435 N1438 1.384 . S
C1436 H1427 0.929 . S
C1436 C1428 1.378 . S
C1436 C1431 1.350 . S
C1437 H1424 0.929 . S
C1437 C1429 1.433 . S
C1437 N1439 1.384 . S
N1438 C1434 1.427 . S
N1438 C1435 1.384 . S
N1439 C1431 1.427 . S
N1439 C1437 1.384 . S
H1440 C1446 0.930 . S
H1441 C1450 0.930 . S
H1442 C1455 0.929 . S
H1443 C1453 0.929 . S
H1444 C1448 0.929 . S
H1445 C1454 0.929 . S
C1446 H1440 0.930 . S
C1446 C1447 1.367 . S
C1446 C1454 1.378 . S
C1447 C1446 1.367 . S
C1447 C1455 1.433 . S
C1448 H1444 0.929 . S
C1448 C1450 1.378 . S
C1448 C1452 1.350 . S
C1449 C1452 1.463 . S
C1449 C1454 1.350 . S
C1449 N1457 1.427 . S
C1450 H1441 0.930 . S
C1450 C1448 1.378 . S
C1450 C1451 1.367 . S
C1451 C1450 1.367 . S
C1451 C1453 1.433 . S
C1452 C1448 1.350 . S
C1452 C1449 1.463 . S
C1452 N1456 1.427 . S
C1453 H1443 0.929 . S
C1453 C1451 1.433 . S
C1453 N1456 1.384 . S
C1454 H1445 0.929 . S
C1454 C1446 1.378 . S
C1454 C1449 1.350 . S
C1455 H1442 0.929 . S
C1455 C1447 1.433 . S
C1455 N1457 1.384 . S
N1456 C1452 1.427 . S
N1456 C1453 1.384 . S
N1457 C1449 1.427 . S
N1457 C1455 1.384 . S
H1458 C1464 0.930 . S
H1459 C1468 0.930 . S
H1460 C1473 0.929 . S
H1461 C1471 0.929 . S
H1462 C1466 0.929 . S
H1463 C1472 0.929 . S
C1464 H1458 0.930 . S
C1464 C1465 1.367 . S
C1464 C1472 1.378 . S
C1465 C1464 1.367 . S
C1465 C1473 1.433 . S
C1466 H1462 0.929 . S
C1466 C1468 1.378 . S
C1466 C1470 1.350 . S
C1467 C1470 1.463 . S
C1467 C1472 1.350 . S
C1467 N1475 1.427 . S
C1468 H1459 0.930 . S
C1468 C1466 1.378 . S
C1468 C1469 1.367 . S
C1469 C1468 1.367 . S
C1469 C1471 1.433 . S
C1470 C1466 1.350 . S
C1470 C1467 1.463 . S
C1470 N1474 1.427 . S
C1471 H1461 0.929 . S
C1471 C1469 1.433 . S
C1471 N1474 1.384 . S
C1472 H1463 0.929 . S
C1472 C1464 1.378 . S
C1472 C1467 1.350 . S
C1473 H1460 0.929 . S
C1473 C1465 1.433 . S
C1473 N1475 1.384 . S
N1474 C1470 1.427 . S
N1474 C1471 1.384 . S
N1475 C1467 1.427 . S
N1475 C1473 1.384 . S
H1476 C1482 0.930 . S
H1477 C1486 0.930 . S
H1478 C1491 0.929 . S
H1479 C1489 0.929 . S
H1480 C1484 0.929 . S
H1481 C1490 0.929 . S
C1482 H1476 0.930 . S
C1482 C1483 1.367 . S
C1482 C1490 1.378 . S
C1483 C1482 1.367 . S
C1483 C1491 1.433 . S
C1484 H1480 0.929 . S
C1484 C1486 1.378 . S
C1484 C1488 1.350 . S
C1485 C1488 1.463 . S
C1485 C1490 1.350 . S
C1485 N1493 1.427 . S
C1486 H1477 0.930 . S
C1486 C1484 1.378 . S
C1486 C1487 1.367 . S
C1487 C1486 1.367 . S
C1487 C1489 1.433 . S
C1488 C1484 1.350 . S
C1488 C1485 1.463 . S
C1488 N1492 1.427 . S
C1489 H1479 0.929 . S
C1489 C1487 1.433 . S
C1489 N1492 1.384 . S
C1490 H1481 0.929 . S
C1490 C1482 1.378 . S
C1490 C1485 1.350 . S
C1491 H1478 0.929 . S
C1491 C1483 1.433 . S
C1491 N1493 1.384 . S
N1492 C1488 1.427 . S
N1492 C1489 1.384 . S
N1493 C1485 1.427 . S
N1493 C1491 1.384 . S
H1494 C1500 0.930 . S
H1495 C1504 0.930 . S
H1496 C1509 0.929 . S
H1497 C1507 0.929 . S
H1498 C1502 0.929 . S
H1499 C1508 0.929 . S
C1500 H1494 0.930 . S
C1500 C1501 1.367 . S
C1500 C1508 1.378 . S
C1501 C1500 1.367 . S
C1501 C1509 1.433 . S
C1502 H1498 0.929 . S
C1502 C1504 1.378 . S
C1502 C1506 1.350 . S
C1503 C1506 1.463 . S
C1503 C1508 1.350 . S
C1503 N1511 1.427 . S
C1504 H1495 0.930 . S
C1504 C1502 1.378 . S
C1504 C1505 1.367 . S
C1505 C1504 1.367 . S
C1505 C1507 1.433 . S
C1506 C1502 1.350 . S
C1506 C1503 1.463 . S
C1506 N1510 1.427 . S
C1507 H1497 0.929 . S
C1507 C1505 1.433 . S
C1507 N1510 1.384 . S
C1508 H1499 0.929 . S
C1508 C1500 1.378 . S
C1508 C1503 1.350 . S
C1509 H1496 0.929 . S
C1509 C1501 1.433 . S
C1509 N1511 1.384 . S
N1510 C1506 1.427 . S
N1510 C1507 1.384 . S
N1511 C1503 1.427 . S
N1511 C1509 1.384 . S
H1512 C1518 0.930 . S
H1513 C1522 0.930 . S
H1514 C1527 0.929 . S
H1515 C1525 0.929 . S
H1516 C1520 0.929 . S
H1517 C1526 0.929 . S
C1518 H1512 0.930 . S
C1518 C1519 1.367 . S
C1518 C1526 1.378 . S
C1519 C1518 1.367 . S
C1519 C1527 1.433 . S
C1520 H1516 0.929 . S
C1520 C1522 1.378 . S
C1520 C1524 1.350 . S
C1521 C1524 1.463 . S
C1521 C1526 1.350 . S
C1521 N1529 1.427 . S
C1522 H1513 0.930 . S
C1522 C1520 1.378 . S
C1522 C1523 1.367 . S
C1523 C1522 1.367 . S
C1523 C1525 1.433 . S
C1524 C1520 1.350 . S
C1524 C1521 1.463 . S
C1524 N1528 1.427 . S
C1525 H1515 0.929 . S
C1525 C1523 1.433 . S
C1525 N1528 1.384 . S
C1526 H1517 0.929 . S
C1526 C1518 1.378 . S
C1526 C1521 1.350 . S
C1527 H1514 0.929 . S
C1527 C1519 1.433 . S
C1527 N1529 1.384 . S
N1528 C1524 1.427 . S
N1528 C1525 1.384 . S
N1529 C1521 1.427 . S
N1529 C1527 1.384 . S
H1530 C1536 0.930 . S
H1531 C1540 0.930 . S
H1532 C1545 0.929 . S
H1533 C1543 0.929 . S
H1534 C1538 0.929 . S
H1535 C1544 0.929 . S
C1536 H1530 0.930 . S
C1536 C1537 1.367 . S
C1536 C1544 1.378 . S
C1537 C1536 1.367 . S
C1537 C1545 1.433 . S
C1538 H1534 0.929 . S
C1538 C1540 1.378 . S
C1538 C1542 1.350 . S
C1539 C1542 1.463 . S
C1539 C1544 1.350 . S
C1539 N1547 1.427 . S
C1540 H1531 0.930 . S
C1540 C1538 1.378 . S
C1540 C1541 1.367 . S
C1541 C1540 1.367 . S
C1541 C1543 1.433 . S
C1542 C1538 1.350 . S
C1542 C1539 1.463 . S
C1542 N1546 1.427 . S
C1543 H1533 0.929 . S
C1543 C1541 1.433 . S
C1543 N1546 1.384 . S
C1544 H1535 0.929 . S
C1544 C1536 1.378 . S
C1544 C1539 1.350 . S
C1545 H1532 0.929 . S
C1545 C1537 1.433 . S
C1545 N1547 1.384 . S
N1546 C1542 1.427 . S
N1546 C1543 1.384 . S
N1547 C1539 1.427 . S
N1547 C1545 1.384 . S
H1548 C1554 0.930 . S
H1549 C1558 0.930 . S
H1550 C1563 0.929 . S
H1551 C1561 0.929 . S
H1552 C1556 0.929 . S
H1553 C1562 0.929 . S
C1554 H1548 0.930 . S
C1554 C1555 1.367 . S
C1554 C1562 1.378 . S
C1555 C1554 1.367 . S
C1555 C1563 1.433 1_455 S
C1556 H1552 0.929 . S
C1556 C1558 1.378 . S
C1556 C1560 1.350 1_655 S
C1557 C1560 1.463 . S
C1557 C1562 1.350 . S
C1557 N1565 1.427 1_455 S
C1558 H1549 0.930 . S
C1558 C1556 1.378 . S
C1558 C1559 1.367 1_655 S
C1559 C1558 1.367 1_455 S
C1559 C1561 1.433 . S
C1560 C1556 1.350 1_455 S
C1560 C1557 1.463 . S
C1560 N1564 1.427 . S
C1561 H1551 0.929 . S
C1561 C1559 1.433 . S
C1561 N1564 1.384 . S
C1562 H1553 0.929 . S
C1562 C1554 1.378 . S
C1562 C1557 1.350 . S
C1563 H1550 0.929 . S
C1563 C1555 1.433 1_655 S
C1563 N1565 1.384 . S
N1564 C1560 1.427 . S
N1564 C1561 1.384 . S
N1565 C1557 1.427 1_655 S
N1565 C1563 1.384 . S
H1566 C1572 0.930 . S
H1567 C1576 0.930 . S
H1568 C1581 0.929 . S
H1569 C1579 0.929 . S
H1570 C1574 0.929 . S
H1571 C1580 0.929 . S
C1572 H1566 0.930 . S
C1572 C1573 1.367 . S
C1572 C1580 1.378 . S
C1573 C1572 1.367 . S
C1573 C1581 1.433 . S
C1574 H1570 0.929 . S
C1574 C1576 1.378 . S
C1574 C1578 1.350 . S
C1575 C1578 1.463 . S
C1575 C1580 1.350 . S
C1575 N1583 1.427 . S
C1576 H1567 0.930 . S
C1576 C1574 1.378 . S
C1576 C1577 1.367 . S
C1577 C1576 1.367 . S
C1577 C1579 1.433 . S
C1578 C1574 1.350 . S
C1578 C1575 1.463 . S
C1578 N1582 1.427 . S
C1579 H1569 0.929 . S
C1579 C1577 1.433 . S
C1579 N1582 1.384 . S
C1580 H1571 0.929 . S
C1580 C1572 1.378 . S
C1580 C1575 1.350 . S
C1581 H1568 0.929 . S
C1581 C1573 1.433 . S
C1581 N1583 1.384 . S
N1582 C1578 1.427 . S
N1582 C1579 1.384 . S
N1583 C1575 1.427 . S
N1583 C1581 1.384 . S
H1584 C1590 0.930 . S
H1585 C1594 0.930 . S
H1586 C1599 0.929 . S
H1587 C1597 0.929 . S
H1588 C1592 0.929 . S
H1589 C1598 0.929 . S
C1590 H1584 0.930 . S
C1590 C1591 1.367 . S
C1590 C1598 1.378 . S
C1591 C1590 1.367 . S
C1591 C1599 1.433 . S
C1592 H1588 0.929 . S
C1592 C1594 1.378 . S
C1592 C1596 1.350 . S
C1593 C1596 1.463 . S
C1593 C1598 1.350 . S
C1593 N1601 1.427 . S
C1594 H1585 0.930 . S
C1594 C1592 1.378 . S
C1594 C1595 1.367 . S
C1595 C1594 1.367 . S
C1595 C1597 1.433 . S
C1596 C1592 1.350 . S
C1596 C1593 1.463 . S
C1596 N1600 1.427 . S
C1597 H1587 0.929 . S
C1597 C1595 1.433 . S
C1597 N1600 1.384 . S
C1598 H1589 0.929 . S
C1598 C1590 1.378 . S
C1598 C1593 1.350 . S
C1599 H1586 0.929 . S
C1599 C1591 1.433 . S
C1599 N1601 1.384 . S
N1600 C1596 1.427 . S
N1600 C1597 1.384 . S
N1601 C1593 1.427 . S
N1601 C1599 1.384 . S
H1602 C1608 0.930 . S
H1603 C1612 0.930 . S
H1604 C1617 0.929 . S
H1605 C1615 0.929 . S
H1606 C1610 0.929 . S
H1607 C1616 0.929 . S
C1608 H1602 0.930 . S
C1608 C1609 1.367 . S
C1608 C1616 1.378 . S
C1609 C1608 1.367 . S
C1609 C1617 1.433 . S
C1610 H1606 0.929 . S
C1610 C1612 1.378 . S
C1610 C1614 1.350 . S
C1611 C1614 1.463 . S
C1611 C1616 1.350 . S
C1611 N1619 1.427 . S
C1612 H1603 0.930 . S
C1612 C1610 1.378 . S
C1612 C1613 1.367 . S
C1613 C1612 1.367 . S
C1613 C1615 1.433 . S
C1614 C1610 1.350 . S
C1614 C1611 1.463 . S
C1614 N1618 1.427 . S
C1615 H1605 0.929 . S
C1615 C1613 1.433 . S
C1615 N1618 1.384 . S
C1616 H1607 0.929 . S
C1616 C1608 1.378 . S
C1616 C1611 1.350 . S
C1617 H1604 0.929 . S
C1617 C1609 1.433 . S
C1617 N1619 1.384 . S
N1618 C1614 1.427 . S
N1618 C1615 1.384 . S
N1619 C1611 1.427 . S
N1619 C1617 1.384 . S
H1620 C1626 0.930 . S
H1621 C1630 0.930 . S
H1622 C1635 0.929 . S
H1623 C1633 0.929 . S
H1624 C1628 0.929 . S
H1625 C1634 0.938 . S
C1626 H1620 0.930 . S
C1626 C1627 1.367 1_655 S
C1626 C1634 1.382 . S
C1627 C1626 1.367 1_455 S
C1627 C1635 1.433 . S
C1628 H1624 0.929 . S
C1628 C1630 1.378 . S
C1628 C1632 1.350 . S
C1629 C1632 1.463 . S
C1629 C1634 1.339 1_455 S
C1629 N1637 1.427 . S
C1630 H1621 0.930 . S
C1630 C1628 1.378 . S
C1630 C1631 1.367 . S
C1631 C1630 1.367 . S
C1631 C1633 1.433 . S
C1632 C1628 1.350 . S
C1632 C1629 1.463 . S
C1632 N1636 1.427 . S
C1633 H1623 0.929 . S
C1633 C1631 1.433 . S
C1633 N1636 1.384 . S
C1634 H1625 0.938 . S
C1634 C1626 1.382 . S
C1634 C1629 1.339 1_655 S
C1635 H1622 0.929 . S
C1635 C1627 1.433 . S
C1635 N1637 1.384 . S
N1636 C1632 1.427 . S
N1636 C1633 1.384 . S
N1637 C1629 1.427 . S
N1637 C1635 1.384 . S
H1638 C1644 0.930 . S
H1639 C1648 0.930 . S
H1640 C1653 0.929 . S
H1641 C1651 0.929 . S
H1642 C1646 0.929 . S
H1643 C1652 0.929 . S
C1644 H1638 0.930 . S
C1644 C1645 1.367 . S
C1644 C1652 1.378 . S
C1645 C1644 1.367 . S
C1645 C1653 1.433 . S
C1646 H1642 0.929 . S
C1646 C1648 1.378 . S
C1646 C1650 1.350 . S
C1647 C1650 1.463 . S
C1647 C1652 1.350 . S
C1647 N1655 1.427 . S
C1648 H1639 0.930 . S
C1648 C1646 1.378 . S
C1648 C1649 1.367 . S
C1649 C1648 1.367 . S
C1649 C1651 1.433 . S
C1650 C1646 1.350 . S
C1650 C1647 1.463 . S
C1650 N1654 1.427 . S
C1651 H1641 0.929 . S
C1651 C1649 1.433 . S
C1651 N1654 1.384 . S
C1652 H1643 0.929 . S
C1652 C1644 1.378 . S
C1652 C1647 1.350 . S
C1653 H1640 0.929 . S
C1653 C1645 1.433 . S
C1653 N1655 1.384 . S
N1654 C1650 1.427 . S
N1654 C1651 1.384 . S
N1655 C1647 1.427 . S
N1655 C1653 1.384 . S
H1656 C1662 0.930 . S
H1657 C1666 0.930 . S
H1658 C1671 0.929 . S
H1659 C1669 0.929 . S
H1660 C1664 0.929 . S
H1661 C1670 0.929 . S
C1662 H1656 0.930 . S
C1662 C1663 1.367 . S
C1662 C1670 1.378 . S
C1663 C1662 1.367 . S
C1663 C1671 1.433 . S
C1664 H1660 0.929 . S
C1664 C1666 1.378 . S
C1664 C1668 1.350 . S
C1665 C1668 1.463 . S
C1665 C1670 1.350 . S
C1665 N1673 1.427 . S
C1666 H1657 0.930 . S
C1666 C1664 1.378 . S
C1666 C1667 1.367 . S
C1667 C1666 1.367 . S
C1667 C1669 1.433 . S
C1668 C1664 1.350 . S
C1668 C1665 1.463 . S
C1668 N1672 1.427 . S
C1669 H1659 0.929 . S
C1669 C1667 1.433 . S
C1669 N1672 1.384 . S
C1670 H1661 0.929 . S
C1670 C1662 1.378 . S
C1670 C1665 1.350 . S
C1671 H1658 0.929 . S
C1671 C1663 1.433 . S
C1671 N1673 1.384 . S
N1672 C1668 1.427 . S
N1672 C1669 1.384 . S
N1673 C1665 1.427 . S
N1673 C1671 1.384 . S
H1674 C1680 0.930 . S
H1675 C1684 0.930 . S
H1676 C1689 0.929 . S
H1677 C1687 0.929 . S
H1678 C1682 0.929 . S
H1679 C1688 0.929 . S
C1680 H1674 0.930 . S
C1680 C1681 1.367 . S
C1680 C1688 1.378 . S
C1681 C1680 1.367 . S
C1681 C1689 1.433 . S
C1682 H1678 0.929 . S
C1682 C1684 1.378 . S
C1682 C1686 1.350 . S
C1683 C1686 1.463 . S
C1683 C1688 1.350 . S
C1683 N1691 1.427 . S
C1684 H1675 0.930 . S
C1684 C1682 1.378 . S
C1684 C1685 1.367 . S
C1685 C1684 1.367 . S
C1685 C1687 1.433 . S
C1686 C1682 1.350 . S
C1686 C1683 1.463 . S
C1686 N1690 1.427 . S
C1687 H1677 0.929 . S
C1687 C1685 1.433 . S
C1687 N1690 1.384 . S
C1688 H1679 0.929 . S
C1688 C1680 1.378 . S
C1688 C1683 1.350 . S
C1689 H1676 0.929 . S
C1689 C1681 1.433 . S
C1689 N1691 1.384 . S
N1690 C1686 1.427 . S
N1690 C1687 1.384 . S
N1691 C1683 1.427 . S
N1691 C1689 1.384 . S
H1692 C1698 0.930 . S
H1693 C1702 0.930 . S
H1694 C1707 0.929 . S
H1695 C1705 0.929 . S
H1696 C1700 0.929 . S
H1697 C1706 0.929 . S
C1698 H1692 0.930 . S
C1698 C1699 1.367 . S
C1698 C1706 1.378 . S
C1699 C1698 1.367 . S
C1699 C1707 1.433 . S
C1700 H1696 0.929 . S
C1700 C1702 1.378 . S
C1700 C1704 1.350 . S
C1701 C1704 1.463 . S
C1701 C1706 1.350 . S
C1701 N1709 1.427 . S
C1702 H1693 0.930 . S
C1702 C1700 1.378 . S
C1702 C1703 1.367 . S
C1703 C1702 1.367 . S
C1703 C1705 1.433 . S
C1704 C1700 1.350 . S
C1704 C1701 1.463 . S
C1704 N1708 1.427 . S
C1705 H1695 0.929 . S
C1705 C1703 1.433 . S
C1705 N1708 1.384 . S
C1706 H1697 0.929 . S
C1706 C1698 1.378 . S
C1706 C1701 1.350 . S
C1707 H1694 0.929 . S
C1707 C1699 1.433 . S
C1707 N1709 1.384 . S
N1708 C1704 1.427 . S
N1708 C1705 1.384 . S
N1709 C1701 1.427 . S
N1709 C1707 1.384 . S
H1710 C1716 0.930 . S
H1711 C1720 0.930 . S
H1712 C1725 0.929 . S
H1713 C1723 0.929 . S
H1714 C1718 0.929 . S
H1715 C1724 0.929 . S
C1716 H1710 0.930 . S
C1716 C1717 1.367 . S
C1716 C1724 1.378 . S
C1717 C1716 1.367 . S
C1717 C1725 1.433 . S
C1718 H1714 0.929 . S
C1718 C1720 1.378 . S
C1718 C1722 1.350 . S
C1719 C1722 1.463 . S
C1719 C1724 1.350 . S
C1719 N1727 1.427 . S
C1720 H1711 0.930 . S
C1720 C1718 1.378 . S
C1720 C1721 1.367 . S
C1721 C1720 1.367 . S
C1721 C1723 1.433 . S
C1722 C1718 1.350 . S
C1722 C1719 1.463 . S
C1722 N1726 1.427 . S
C1723 H1713 0.929 . S
C1723 C1721 1.433 . S
C1723 N1726 1.384 . S
C1724 H1715 0.929 . S
C1724 C1716 1.378 . S
C1724 C1719 1.350 . S
C1725 H1712 0.929 . S
C1725 C1717 1.433 . S
C1725 N1727 1.384 . S
N1726 C1722 1.427 . S
N1726 C1723 1.384 . S
N1727 C1719 1.427 . S
N1727 C1725 1.384 . S
H1728 C1734 0.930 . S
H1729 C1738 0.930 . S
H1730 C1743 0.929 . S
H1731 C1741 0.929 . S
H1732 C1736 0.929 . S
H1733 C1742 0.929 . S
C1734 H1728 0.930 . S
C1734 C1735 1.367 . S
C1734 C1742 1.378 . S
C1735 C1734 1.367 . S
C1735 C1743 1.433 . S
C1736 H1732 0.929 . S
C1736 C1738 1.378 . S
C1736 C1740 1.350 . S
C1737 C1740 1.463 . S
C1737 C1742 1.350 . S
C1737 N1745 1.427 . S
C1738 H1729 0.930 . S
C1738 C1736 1.378 . S
C1738 C1739 1.367 . S
C1739 C1738 1.367 . S
C1739 C1741 1.433 . S
C1740 C1736 1.350 . S
C1740 C1737 1.463 . S
C1740 N1744 1.427 . S
C1741 H1731 0.929 . S
C1741 C1739 1.433 . S
C1741 N1744 1.384 . S
C1742 H1733 0.929 . S
C1742 C1734 1.378 . S
C1742 C1737 1.350 . S
C1743 H1730 0.929 . S
C1743 C1735 1.433 . S
C1743 N1745 1.384 . S
N1744 C1740 1.427 . S
N1744 C1741 1.384 . S
N1745 C1737 1.427 . S
N1745 C1743 1.384 . S
H1746 C1752 0.930 . S
H1747 C1756 0.930 . S
H1748 C1761 0.929 . S
H1749 C1759 0.929 . S
H1750 C1754 0.929 . S
H1751 C1760 0.929 . S
C1752 H1746 0.930 . S
C1752 C1753 1.367 . S
C1752 C1760 1.378 . S
C1753 C1752 1.367 . S
C1753 C1761 1.433 . S
C1754 H1750 0.929 . S
C1754 C1756 1.378 . S
C1754 C1758 1.350 . S
C1755 C1758 1.463 . S
C1755 C1760 1.350 . S
C1755 N1763 1.427 . S
C1756 H1747 0.930 . S
C1756 C1754 1.378 . S
C1756 C1757 1.367 . S
C1757 C1756 1.367 . S
C1757 C1759 1.433 . S
C1758 C1754 1.350 . S
C1758 C1755 1.463 . S
C1758 N1762 1.427 . S
C1759 H1749 0.929 . S
C1759 C1757 1.433 . S
C1759 N1762 1.384 . S
C1760 H1751 0.929 . S
C1760 C1752 1.378 . S
C1760 C1755 1.350 . S
C1761 H1748 0.929 . S
C1761 C1753 1.433 . S
C1761 N1763 1.384 . S
N1762 C1758 1.427 . S
N1762 C1759 1.384 . S
N1763 C1755 1.427 . S
N1763 C1761 1.384 . S
H1764 C1770 0.930 . S
H1765 C1774 0.930 . S
H1766 C1779 0.929 . S
H1767 C1777 0.929 1_455 S
H1768 C1772 0.929 . S
H1769 C1778 0.929 . S
C1770 H1764 0.930 . S
C1770 C1771 1.367 . S
C1770 C1778 1.378 . S
C1771 C1770 1.367 . S
C1771 C1779 1.433 . S
C1772 H1768 0.929 . S
C1772 C1774 1.378 . S
C1772 C1776 1.350 . S
C1773 C1776 1.463 . S
C1773 C1778 1.350 . S
C1773 N1781 1.427 . S
C1774 H1765 0.930 . S
C1774 C1772 1.378 . S
C1774 C1775 1.367 . S
C1775 C1774 1.367 . S
C1775 C1777 1.433 . S
C1776 C1772 1.350 . S
C1776 C1773 1.463 . S
C1776 N1780 1.427 . S
C1777 H1767 0.929 1_655 S
C1777 C1775 1.433 . S
C1777 N1780 1.384 . S
C1778 H1769 0.929 . S
C1778 C1770 1.378 . S
C1778 C1773 1.350 . S
C1779 H1766 0.929 . S
C1779 C1771 1.433 . S
C1779 N1781 1.384 . S
N1780 C1776 1.427 . S
N1780 C1777 1.384 . S
N1781 C1773 1.427 . S
N1781 C1779 1.384 . S
H1782 C1788 0.930 . S
H1783 C1792 0.930 . S
H1784 C1797 0.929 . S
H1785 C1795 0.929 . S
H1786 C1790 0.929 . S
H1787 C1796 0.929 . S
C1788 H1782 0.930 . S
C1788 C1789 1.367 . S
C1788 C1796 1.378 . S
C1789 C1788 1.367 . S
C1789 C1797 1.433 . S
C1790 H1786 0.929 . S
C1790 C1792 1.378 . S
C1790 C1794 1.350 . S
C1791 C1794 1.463 . S
C1791 C1796 1.350 . S
C1791 N1799 1.427 . S
C1792 H1783 0.930 . S
C1792 C1790 1.378 . S
C1792 C1793 1.367 . S
C1793 C1792 1.367 . S
C1793 C1795 1.433 . S
C1794 C1790 1.350 . S
C1794 C1791 1.463 . S
C1794 N1798 1.427 . S
C1795 H1785 0.929 . S
C1795 C1793 1.433 . S
C1795 N1798 1.384 . S
C1796 H1787 0.929 . S
C1796 C1788 1.378 . S
C1796 C1791 1.350 . S
C1797 H1784 0.929 . S
C1797 C1789 1.433 . S
C1797 N1799 1.384 . S
N1798 C1794 1.427 . S
N1798 C1795 1.384 . S
N1799 C1791 1.427 . S
N1799 C1797 1.384 . S
H1800 C1806 0.930 . S
H1801 C1810 0.930 . S
H1802 C1815 0.929 . S
H1803 C1813 0.929 . S
H1804 C1808 0.929 . S
H1805 C1814 0.929 . S
C1806 H1800 0.930 . S
C1806 C1807 1.367 . S
C1806 C1814 1.378 . S
C1807 C1806 1.367 . S
C1807 C1815 1.433 . S
C1808 H1804 0.929 . S
C1808 C1810 1.378 . S
C1808 C1812 1.350 . S
C1809 C1812 1.463 . S
C1809 C1814 1.350 . S
C1809 N1817 1.427 . S
C1810 H1801 0.930 . S
C1810 C1808 1.378 . S
C1810 C1811 1.367 . S
C1811 C1810 1.367 . S
C1811 C1813 1.433 . S
C1812 C1808 1.350 . S
C1812 C1809 1.463 . S
C1812 N1816 1.427 . S
C1813 H1803 0.929 . S
C1813 C1811 1.433 . S
C1813 N1816 1.384 . S
C1814 H1805 0.929 . S
C1814 C1806 1.378 . S
C1814 C1809 1.350 . S
C1815 H1802 0.929 . S
C1815 C1807 1.433 . S
C1815 N1817 1.384 . S
N1816 C1812 1.427 . S
N1816 C1813 1.384 . S
N1817 C1809 1.427 . S
N1817 C1815 1.384 . S
H1818 C1824 0.930 . S
H1819 C1828 0.930 . S
H1820 C1833 0.929 . S
H1821 C1831 0.929 1_545 S
H1822 C1826 0.929 . S
H1823 C1832 0.929 . S
C1824 H1818 0.930 . S
C1824 C1825 1.367 . S
C1824 C1832 1.378 . S
C1825 C1824 1.367 . S
C1825 C1833 1.433 . S
C1826 H1822 0.929 . S
C1826 C1828 1.378 . S
C1826 C1830 1.350 . S
C1827 C1830 1.463 . S
C1827 C1832 1.350 . S
C1827 N1835 1.427 . S
C1828 H1819 0.930 . S
C1828 C1826 1.378 . S
C1828 C1829 1.367 . S
C1829 C1828 1.367 . S
C1829 C1831 1.433 . S
C1830 C1826 1.350 . S
C1830 C1827 1.463 . S
C1830 N1834 1.427 . S
C1831 H1821 0.929 1_565 S
C1831 C1829 1.433 . S
C1831 N1834 1.384 . S
C1832 H1823 0.929 . S
C1832 C1824 1.378 . S
C1832 C1827 1.350 . S
C1833 H1820 0.929 . S
C1833 C1825 1.433 . S
C1833 N1835 1.384 . S
N1834 C1830 1.427 . S
N1834 C1831 1.384 . S
N1835 C1827 1.427 . S
N1835 C1833 1.384 . S
H1836 C1842 0.930 . S
H1837 C1846 0.930 . S
H1838 C1851 0.929 . S
H1839 C1849 0.929 . S
H1840 C1844 0.929 . S
H1841 C1850 0.929 . S
C1842 H1836 0.930 . S
C1842 C1843 1.367 . S
C1842 C1850 1.378 . S
C1843 C1842 1.367 . S
C1843 C1851 1.433 . S
C1844 H1840 0.929 . S
C1844 C1846 1.378 . S
C1844 C1848 1.350 . S
C1845 C1848 1.463 . S
C1845 C1850 1.350 . S
C1845 N1853 1.427 . S
C1846 H1837 0.930 . S
C1846 C1844 1.378 . S
C1846 C1847 1.367 . S
C1847 C1846 1.367 . S
C1847 C1849 1.433 . S
C1848 C1844 1.350 . S
C1848 C1845 1.463 . S
C1848 N1852 1.427 . S
C1849 H1839 0.929 . S
C1849 C1847 1.433 . S
C1849 N1852 1.384 . S
C1850 H1841 0.929 . S
C1850 C1842 1.378 . S
C1850 C1845 1.350 . S
C1851 H1838 0.929 . S
C1851 C1843 1.433 . S
C1851 N1853 1.384 . S
N1852 C1848 1.427 . S
N1852 C1849 1.384 . S
N1853 C1845 1.427 . S
N1853 C1851 1.384 . S
H1854 C1860 0.930 . S
H1855 C1864 0.930 . S
H1856 C1869 0.929 . S
H1857 C1867 0.929 . S
H1858 C1862 0.929 . S
H1859 C1868 0.929 . S
C1860 H1854 0.930 . S
C1860 C1861 1.367 . S
C1860 C1868 1.378 . S
C1861 C1860 1.367 . S
C1861 C1869 1.433 1_554 S
C1862 H1858 0.929 . S
C1862 C1864 1.378 . S
C1862 C1866 1.350 1_556 S
C1863 C1866 1.463 . S
C1863 C1868 1.350 . S
C1863 N1871 1.427 1_554 S
C1864 H1855 0.930 . S
C1864 C1862 1.378 . S
C1864 C1865 1.367 1_556 S
C1865 C1864 1.367 1_554 S
C1865 C1867 1.433 . S
C1866 C1862 1.350 1_554 S
C1866 C1863 1.463 . S
C1866 N1870 1.427 . S
C1867 H1857 0.929 . S
C1867 C1865 1.433 . S
C1867 N1870 1.384 . S
C1868 H1859 0.929 . S
C1868 C1860 1.378 . S
C1868 C1863 1.350 . S
C1869 H1856 0.929 . S
C1869 C1861 1.433 1_556 S
C1869 N1871 1.384 . S
N1870 C1866 1.427 . S
N1870 C1867 1.384 . S
N1871 C1863 1.427 1_556 S
N1871 C1869 1.384 . S
H1872 C1878 0.930 . S
H1873 C1882 0.930 . S
H1874 C1887 0.929 . S
H1875 C1885 0.929 . S
H1876 C1880 0.929 . S
H1877 C1886 0.929 . S
C1878 H1872 0.930 . S
C1878 C1879 1.367 . S
C1878 C1886 1.378 . S
C1879 C1878 1.367 . S
C1879 C1887 1.433 . S
C1880 H1876 0.929 . S
C1880 C1882 1.378 . S
C1880 C1884 1.350 . S
C1881 C1884 1.463 . S
C1881 C1886 1.350 . S
C1881 N1889 1.427 . S
C1882 H1873 0.930 . S
C1882 C1880 1.378 . S
C1882 C1883 1.367 . S
C1883 C1882 1.367 . S
C1883 C1885 1.433 . S
C1884 C1880 1.350 . S
C1884 C1881 1.463 . S
C1884 N1888 1.427 . S
C1885 H1875 0.929 . S
C1885 C1883 1.433 . S
C1885 N1888 1.384 . S
C1886 H1877 0.929 . S
C1886 C1878 1.378 . S
C1886 C1881 1.350 . S
C1887 H1874 0.929 . S
C1887 C1879 1.433 . S
C1887 N1889 1.384 . S
N1888 C1884 1.427 . S
N1888 C1885 1.384 . S
N1889 C1881 1.427 . S
N1889 C1887 1.384 . S
H1890 C1896 0.930 . S
H1891 C1900 0.930 . S
H1892 C1905 0.929 . S
H1893 C1903 0.929 . S
H1894 C1898 0.929 . S
H1895 C1904 0.929 . S
C1896 H1890 0.930 . S
C1896 C1897 1.367 . S
C1896 C1904 1.378 . S
C1897 C1896 1.367 . S
C1897 C1905 1.433 1_554 S
C1898 H1894 0.929 . S
C1898 C1900 1.378 . S
C1898 C1902 1.367 . S
C1899 C1902 1.459 1_554 S
C1899 C1904 1.350 . S
C1899 N1907 1.427 1_554 S
C1900 H1891 0.930 . S
C1900 C1898 1.378 . S
C1900 C1901 1.367 . S
C1901 C1900 1.367 . S
C1901 C1903 1.433 1_556 S
C1902 C1898 1.367 . S
C1902 C1899 1.459 1_556 S
C1902 N1906 1.413 1_556 S
C1903 H1893 0.929 . S
C1903 C1901 1.433 1_554 S
C1903 N1906 1.384 . S
C1904 H1895 0.929 . S
C1904 C1896 1.378 . S
C1904 C1899 1.350 . S
C1905 H1892 0.929 . S
C1905 C1897 1.433 1_556 S
C1905 N1907 1.384 . S
N1906 C1902 1.413 1_554 S
N1906 C1903 1.384 . S
N1907 C1899 1.427 1_556 S
N1907 C1905 1.384 . S
H1908 C1914 0.930 . S
H1909 C1918 0.930 . S
H1910 C1923 0.929 . S
H1911 C1921 0.929 . S
H1912 C1916 0.929 . S
H1913 C1922 0.929 . S
C1914 H1908 0.930 . S
C1914 C1915 1.367 . S
C1914 C1922 1.378 . S
C1915 C1914 1.367 . S
C1915 C1923 1.433 . S
C1916 H1912 0.929 . S
C1916 C1918 1.378 . S
C1916 C1920 1.350 . S
C1917 C1920 1.463 . S
C1917 C1922 1.350 . S
C1917 N1925 1.427 . S
C1918 H1909 0.930 . S
C1918 C1916 1.378 . S
C1918 C1919 1.367 . S
C1919 C1918 1.367 . S
C1919 C1921 1.433 . S
C1920 C1916 1.350 . S
C1920 C1917 1.463 . S
C1920 N1924 1.427 . S
C1921 H1911 0.929 . S
C1921 C1919 1.433 . S
C1921 N1924 1.384 . S
C1922 H1913 0.929 . S
C1922 C1914 1.378 . S
C1922 C1917 1.350 . S
C1923 H1910 0.929 . S
C1923 C1915 1.433 . S
C1923 N1925 1.384 . S
N1924 C1920 1.427 . S
N1924 C1921 1.384 . S
N1925 C1917 1.427 . S
N1925 C1923 1.384 . S
H1926 C1932 0.930 . S
H1927 C1936 0.930 . S
H1928 C1941 0.929 . S
H1929 C1939 0.929 . S
H1930 C1934 0.929 . S
H1931 C1940 0.929 . S
C1932 H1926 0.930 . S
C1932 C1933 1.367 . S
C1932 C1940 1.378 . S
C1933 C1932 1.367 . S
C1933 C1941 1.433 . S
C1934 H1930 0.929 . S
C1934 C1936 1.378 . S
C1934 C1938 1.350 . S
C1935 C1938 1.463 . S
C1935 C1940 1.350 . S
C1935 N1943 1.427 . S
C1936 H1927 0.930 . S
C1936 C1934 1.378 . S
C1936 C1937 1.367 . S
C1937 C1936 1.367 . S
C1937 C1939 1.433 . S
C1938 C1934 1.350 . S
C1938 C1935 1.463 . S
C1938 N1942 1.427 . S
C1939 H1929 0.929 . S
C1939 C1937 1.433 . S
C1939 N1942 1.384 . S
C1940 H1931 0.929 . S
C1940 C1932 1.378 . S
C1940 C1935 1.350 . S
C1941 H1928 0.929 . S
C1941 C1933 1.433 . S
C1941 N1943 1.384 . S
N1942 C1938 1.427 . S
N1942 C1939 1.384 . S
N1943 C1935 1.427 . S
N1943 C1941 1.384 . S
H1944 C1950 0.930 . S
H1945 C1954 0.930 . S
H1946 C1959 0.929 . S
H1947 C1957 0.929 . S
H1948 C1952 0.929 . S
H1949 C1958 0.929 . S
C1950 H1944 0.930 . S
C1950 C1951 1.367 . S
C1950 C1958 1.378 . S
C1951 C1950 1.367 . S
C1951 C1959 1.433 . S
C1952 H1948 0.929 . S
C1952 C1954 1.378 . S
C1952 C1956 1.350 . S
C1953 C1956 1.463 . S
C1953 C1958 1.350 . S
C1953 N1961 1.427 . S
C1954 H1945 0.930 . S
C1954 C1952 1.378 . S
C1954 C1955 1.367 . S
C1955 C1954 1.367 . S
C1955 C1957 1.433 . S
C1956 C1952 1.350 . S
C1956 C1953 1.463 . S
C1956 N1960 1.427 . S
C1957 H1947 0.929 . S
C1957 C1955 1.433 . S
C1957 N1960 1.384 . S
C1958 H1949 0.929 . S
C1958 C1950 1.378 . S
C1958 C1953 1.350 . S
C1959 H1946 0.929 . S
C1959 C1951 1.433 . S
C1959 N1961 1.384 . S
N1960 C1956 1.427 . S
N1960 C1957 1.384 . S
N1961 C1953 1.427 . S
N1961 C1959 1.384 . S
H1962 C1968 0.930 . S
H1963 C1972 0.930 . S
H1964 C1977 0.929 . S
H1965 C1975 0.929 . S
H1966 C1970 0.929 . S
H1967 C1976 0.929 . S
C1968 H1962 0.930 . S
C1968 C1969 1.367 . S
C1968 C1976 1.378 . S
C1969 C1968 1.367 . S
C1969 C1977 1.433 . S
C1970 H1966 0.929 . S
C1970 C1972 1.378 . S
C1970 C1974 1.350 . S
C1971 C1974 1.463 . S
C1971 C1976 1.350 . S
C1971 N1979 1.427 . S
C1972 H1963 0.930 . S
C1972 C1970 1.378 . S
C1972 C1973 1.367 . S
C1973 C1972 1.367 . S
C1973 C1975 1.433 . S
C1974 C1970 1.350 . S
C1974 C1971 1.463 . S
C1974 N1978 1.427 . S
C1975 H1965 0.929 . S
C1975 C1973 1.433 . S
C1975 N1978 1.384 . S
C1976 H1967 0.929 . S
C1976 C1968 1.378 . S
C1976 C1971 1.350 . S
C1977 H1964 0.929 . S
C1977 C1969 1.433 . S
C1977 N1979 1.384 . S
N1978 C1974 1.427 . S
N1978 C1975 1.384 . S
N1979 C1971 1.427 . S
N1979 C1977 1.384 . S
H1980 C1986 0.930 . S
H1981 C1990 0.930 . S
H1982 C1995 0.929 . S
H1983 C1993 0.929 . S
H1984 C1988 0.929 . S
H1985 C1994 0.929 . S
C1986 H1980 0.930 . S
C1986 C1987 1.367 . S
C1986 C1994 1.378 . S
C1987 C1986 1.367 . S
C1987 C1995 1.433 1_455 S
C1988 H1984 0.929 . S
C1988 C1990 1.378 . S
C1988 C1992 1.350 . S
C1989 C1992 1.463 . S
C1989 C1994 1.350 1_655 S
C1989 N1997 1.427 . S
C1990 H1981 0.930 . S
C1990 C1988 1.378 . S
C1990 C1991 1.367 . S
C1991 C1990 1.367 . S
C1991 C1993 1.433 1_655 S
C1992 C1988 1.350 . S
C1992 C1989 1.463 . S
C1992 N1996 1.427 1_655 S
C1993 H1983 0.929 . S
C1993 C1991 1.433 1_455 S
C1993 N1996 1.384 . S
C1994 H1985 0.929 . S
C1994 C1986 1.378 . S
C1994 C1989 1.350 1_455 S
C1995 H1982 0.929 . S
C1995 C1987 1.433 1_655 S
C1995 N1997 1.384 . S
N1996 C1992 1.427 1_455 S
N1996 C1993 1.384 . S
N1997 C1989 1.427 . S
N1997 C1995 1.384 . S
H1998 C2004 0.930 . S
H1999 C2008 0.930 . S
H2000 C2013 0.929 . S
H2001 C2011 0.929 . S
H2002 C2006 0.929 . S
H2003 C2012 0.929 . S
C2004 H1998 0.930 . S
C2004 C2005 1.367 . S
C2004 C2012 1.378 . S
C2005 C2004 1.367 . S
C2005 C2013 1.433 . S
C2006 H2002 0.929 . S
C2006 C2008 1.378 . S
C2006 C2010 1.350 . S
C2007 C2010 1.463 . S
C2007 C2012 1.350 . S
C2007 N2015 1.427 . S
C2008 H1999 0.930 . S
C2008 C2006 1.378 . S
C2008 C2009 1.367 . S
C2009 C2008 1.367 . S
C2009 C2011 1.433 . S
C2010 C2006 1.350 . S
C2010 C2007 1.463 . S
C2010 N2014 1.427 . S
C2011 H2001 0.929 . S
C2011 C2009 1.433 . S
C2011 N2014 1.384 . S
C2012 H2003 0.929 . S
C2012 C2004 1.378 . S
C2012 C2007 1.350 . S
C2013 H2000 0.929 . S
C2013 C2005 1.433 . S
C2013 N2015 1.384 . S
N2014 C2010 1.427 . S
N2014 C2011 1.384 . S
N2015 C2007 1.427 . S
N2015 C2013 1.384 . S
H2016 C2022 0.930 . S
H2017 C2026 0.930 . S
H2018 C2031 0.929 . S
H2019 C2029 0.929 . S
H2020 C2024 0.929 . S
H2021 C2030 0.929 . S
C2022 H2016 0.930 . S
C2022 C2023 1.367 . S
C2022 C2030 1.378 . S
C2023 C2022 1.367 . S
C2023 C2031 1.433 . S
C2024 H2020 0.929 . S
C2024 C2026 1.378 . S
C2024 C2028 1.350 . S
C2025 C2028 1.463 . S
C2025 C2030 1.350 . S
C2025 N2033 1.427 . S
C2026 H2017 0.930 . S
C2026 C2024 1.378 . S
C2026 C2027 1.367 . S
C2027 C2026 1.367 . S
C2027 C2029 1.433 . S
C2028 C2024 1.350 . S
C2028 C2025 1.463 . S
C2028 N2032 1.427 . S
C2029 H2019 0.929 . S
C2029 C2027 1.433 . S
C2029 N2032 1.384 . S
C2030 H2021 0.929 . S
C2030 C2022 1.378 . S
C2030 C2025 1.350 . S
C2031 H2018 0.929 . S
C2031 C2023 1.433 . S
C2031 N2033 1.384 . S
N2032 C2028 1.427 . S
N2032 C2029 1.384 . S
N2033 C2025 1.427 . S
N2033 C2031 1.384 . S
H2034 C2040 0.930 . S
H2035 C2044 0.930 . S
H2036 C2049 0.929 . S
H2037 C2047 0.929 . S
H2038 C2042 0.929 . S
H2039 C2048 0.929 . S
C2040 H2034 0.930 . S
C2040 C2041 1.367 . S
C2040 C2048 1.378 . S
C2041 C2040 1.367 . S
C2041 C2049 1.433 . S
C2042 H2038 0.929 . S
C2042 C2044 1.378 . S
C2042 C2046 1.350 . S
C2043 C2046 1.463 . S
C2043 C2048 1.350 . S
C2043 N2051 1.427 . S
C2044 H2035 0.930 . S
C2044 C2042 1.378 . S
C2044 C2045 1.367 . S
C2045 C2044 1.367 . S
C2045 C2047 1.433 . S
C2046 C2042 1.350 . S
C2046 C2043 1.463 . S
C2046 N2050 1.427 . S
C2047 H2037 0.929 . S
C2047 C2045 1.433 . S
C2047 N2050 1.384 . S
C2048 H2039 0.929 . S
C2048 C2040 1.378 . S
C2048 C2043 1.350 . S
C2049 H2036 0.929 . S
C2049 C2041 1.433 . S
C2049 N2051 1.384 . S
N2050 C2046 1.427 . S
N2050 C2047 1.384 . S
N2051 C2043 1.427 . S
N2051 C2049 1.384 . S
H2052 C2058 0.930 . S
H2053 C2062 0.930 . S
H2054 C2067 0.929 . S
H2055 C2065 0.929 . S
H2056 C2060 0.929 . S
H2057 C2066 0.929 . S
C2058 H2052 0.930 . S
C2058 C2059 1.367 1_655 S
C2058 C2066 1.378 . S
C2059 C2058 1.367 1_455 S
C2059 C2067 1.433 . S
C2060 H2056 0.929 . S
C2060 C2062 1.378 . S
C2060 C2064 1.350 1_455 S
C2061 C2064 1.463 . S
C2061 C2066 1.350 . S
C2061 N2069 1.427 1_655 S
C2062 H2053 0.930 . S
C2062 C2060 1.378 . S
C2062 C2063 1.367 1_455 S
C2063 C2062 1.367 1_655 S
C2063 C2065 1.433 . S
C2064 C2060 1.350 1_655 S
C2064 C2061 1.463 . S
C2064 N2068 1.427 . S
C2065 H2055 0.929 . S
C2065 C2063 1.433 . S
C2065 N2068 1.384 . S
C2066 H2057 0.929 . S
C2066 C2058 1.378 . S
C2066 C2061 1.350 . S
C2067 H2054 0.929 . S
C2067 C2059 1.433 . S
C2067 N2069 1.384 . S
N2068 C2064 1.427 . S
N2068 C2065 1.384 . S
N2069 C2061 1.427 1_455 S
N2069 C2067 1.384 . S
H2070 C2076 0.930 . S
H2071 C2080 0.930 . S
H2072 C2085 0.929 . S
H2073 C2083 0.929 . S
H2074 C2078 0.929 . S
H2075 C2084 0.929 . S
C2076 H2070 0.930 . S
C2076 C2077 1.367 . S
C2076 C2084 1.378 . S
C2077 C2076 1.367 . S
C2077 C2085 1.433 . S
C2078 H2074 0.929 . S
C2078 C2080 1.378 . S
C2078 C2082 1.350 . S
C2079 C2082 1.463 . S
C2079 C2084 1.350 . S
C2079 N2087 1.427 . S
C2080 H2071 0.930 . S
C2080 C2078 1.378 . S
C2080 C2081 1.367 . S
C2081 C2080 1.367 . S
C2081 C2083 1.433 . S
C2082 C2078 1.350 . S
C2082 C2079 1.463 . S
C2082 N2086 1.427 . S
C2083 H2073 0.929 . S
C2083 C2081 1.433 . S
C2083 N2086 1.384 . S
C2084 H2075 0.929 . S
C2084 C2076 1.378 . S
C2084 C2079 1.350 . S
C2085 H2072 0.929 . S
C2085 C2077 1.433 . S
C2085 N2087 1.384 . S
N2086 C2082 1.427 . S
N2086 C2083 1.384 . S
N2087 C2079 1.427 . S
N2087 C2085 1.384 . S
H2088 C2094 0.930 . S
H2089 C2098 0.930 . S
H2090 C2103 0.929 . S
H2091 C2101 0.929 . S
H2092 C2096 0.929 . S
H2093 C2102 0.929 . S
C2094 H2088 0.930 . S
C2094 C2095 1.367 . S
C2094 C2102 1.378 . S
C2095 C2094 1.367 . S
C2095 C2103 1.433 . S
C2096 H2092 0.929 . S
C2096 C2098 1.378 . S
C2096 C2100 1.350 . S
C2097 C2100 1.463 . S
C2097 C2102 1.350 . S
C2097 N2105 1.427 . S
C2098 H2089 0.930 . S
C2098 C2096 1.378 . S
C2098 C2099 1.367 . S
C2099 C2098 1.367 . S
C2099 C2101 1.433 . S
C2100 C2096 1.350 . S
C2100 C2097 1.463 . S
C2100 N2104 1.427 . S
C2101 H2091 0.929 . S
C2101 C2099 1.433 . S
C2101 N2104 1.384 . S
C2102 H2093 0.929 . S
C2102 C2094 1.378 . S
C2102 C2097 1.350 . S
C2103 H2090 0.929 . S
C2103 C2095 1.433 . S
C2103 N2105 1.384 . S
N2104 C2100 1.427 . S
N2104 C2101 1.384 . S
N2105 C2097 1.427 . S
N2105 C2103 1.384 . S
H2106 C2112 0.930 . S
H2107 C2116 0.930 . S
H2108 C2121 0.929 . S
H2109 C2119 0.929 . S
H2110 C2114 0.929 . S
H2111 C2120 0.929 . S
C2112 H2106 0.930 . S
C2112 C2113 1.367 . S
C2112 C2120 1.378 . S
C2113 C2112 1.367 . S
C2113 C2121 1.433 . S
C2114 H2110 0.929 . S
C2114 C2116 1.378 . S
C2114 C2118 1.350 . S
C2115 C2118 1.463 . S
C2115 C2120 1.350 . S
C2115 N2123 1.427 . S
C2116 H2107 0.930 . S
C2116 C2114 1.378 . S
C2116 C2117 1.367 . S
C2117 C2116 1.367 . S
C2117 C2119 1.433 . S
C2118 C2114 1.350 . S
C2118 C2115 1.463 . S
C2118 N2122 1.427 . S
C2119 H2109 0.929 . S
C2119 C2117 1.433 . S
C2119 N2122 1.384 . S
C2120 H2111 0.929 . S
C2120 C2112 1.378 . S
C2120 C2115 1.350 . S
C2121 H2108 0.929 . S
C2121 C2113 1.433 . S
C2121 N2123 1.384 . S
N2122 C2118 1.427 . S
N2122 C2119 1.384 . S
N2123 C2115 1.427 . S
N2123 C2121 1.384 . S
H2124 C2130 0.930 . S
H2125 C2134 0.930 . S
H2126 C2139 0.929 . S
H2127 C2137 0.929 . S
H2128 C2132 0.929 . S
H2129 C2138 0.929 . S
C2130 H2124 0.930 . S
C2130 C2131 1.367 . S
C2130 C2138 1.378 . S
C2131 C2130 1.367 . S
C2131 C2139 1.433 . S
C2132 H2128 0.929 . S
C2132 C2134 1.378 . S
C2132 C2136 1.350 . S
C2133 C2136 1.463 . S
C2133 C2138 1.350 . S
C2133 N2141 1.427 . S
C2134 H2125 0.930 . S
C2134 C2132 1.378 . S
C2134 C2135 1.367 . S
C2135 C2134 1.367 . S
C2135 C2137 1.433 . S
C2136 C2132 1.350 . S
C2136 C2133 1.463 . S
C2136 N2140 1.427 . S
C2137 H2127 0.929 . S
C2137 C2135 1.433 . S
C2137 N2140 1.384 . S
C2138 H2129 0.929 . S
C2138 C2130 1.378 . S
C2138 C2133 1.350 . S
C2139 H2126 0.929 . S
C2139 C2131 1.433 . S
C2139 N2141 1.384 . S
N2140 C2136 1.427 . S
N2140 C2137 1.384 . S
N2141 C2133 1.427 . S
N2141 C2139 1.384 . S
H2142 C2148 0.930 . S
H2143 C2152 0.930 . S
H2144 C2157 0.929 . S
H2145 C2155 0.929 . S
H2146 C2150 0.929 . S
H2147 C2156 0.929 . S
C2148 H2142 0.930 . S
C2148 C2149 1.367 . S
C2148 C2156 1.378 . S
C2149 C2148 1.367 . S
C2149 C2157 1.433 . S
C2150 H2146 0.929 . S
C2150 C2152 1.378 . S
C2150 C2154 1.350 . S
C2151 C2154 1.463 . S
C2151 C2156 1.350 . S
C2151 N2159 1.427 . S
C2152 H2143 0.930 . S
C2152 C2150 1.378 . S
C2152 C2153 1.367 . S
C2153 C2152 1.367 . S
C2153 C2155 1.433 . S
C2154 C2150 1.350 . S
C2154 C2151 1.463 . S
C2154 N2158 1.427 . S
C2155 H2145 0.929 . S
C2155 C2153 1.433 . S
C2155 N2158 1.384 . S
C2156 H2147 0.929 . S
C2156 C2148 1.378 . S
C2156 C2151 1.350 . S
C2157 H2144 0.929 . S
C2157 C2149 1.433 . S
C2157 N2159 1.384 . S
N2158 C2154 1.427 . S
N2158 C2155 1.384 . S
N2159 C2151 1.427 . S
N2159 C2157 1.384 . S
H2160 C2166 0.930 . S
H2161 C2170 0.930 . S
H2162 C2175 0.929 . S
H2163 C2173 0.929 . S
H2164 C2168 0.929 . S
H2165 C2174 0.929 . S
C2166 H2160 0.930 . S
C2166 C2167 1.367 . S
C2166 C2174 1.378 . S
C2167 C2166 1.367 . S
C2167 C2175 1.433 . S
C2168 H2164 0.929 . S
C2168 C2170 1.378 . S
C2168 C2172 1.350 . S
C2169 C2172 1.463 . S
C2169 C2174 1.350 . S
C2169 N2177 1.427 . S
C2170 H2161 0.930 . S
C2170 C2168 1.378 . S
C2170 C2171 1.367 . S
C2171 C2170 1.367 . S
C2171 C2173 1.433 . S
C2172 C2168 1.350 . S
C2172 C2169 1.463 . S
C2172 N2176 1.427 . S
C2173 H2163 0.929 . S
C2173 C2171 1.433 . S
C2173 N2176 1.384 . S
C2174 H2165 0.929 . S
C2174 C2166 1.378 . S
C2174 C2169 1.350 . S
C2175 H2162 0.929 . S
C2175 C2167 1.433 . S
C2175 N2177 1.384 . S
N2176 C2172 1.427 . S
N2176 C2173 1.384 . S
N2177 C2169 1.427 . S
N2177 C2175 1.384 . S
H2178 C2184 0.930 . S
H2179 C2188 0.930 . S
H2180 C2193 0.929 . S
H2181 C2191 0.929 . S
H2182 C2186 0.929 . S
H2183 C2192 0.929 . S
C2184 H2178 0.930 . S
C2184 C2185 1.367 . S
C2184 C2192 1.378 . S
C2185 C2184 1.367 . S
C2185 C2193 1.433 . S
C2186 H2182 0.929 . S
C2186 C2188 1.378 . S
C2186 C2190 1.350 . S
C2187 C2190 1.463 . S
C2187 C2192 1.350 . S
C2187 N2195 1.427 . S
C2188 H2179 0.930 . S
C2188 C2186 1.378 . S
C2188 C2189 1.367 . S
C2189 C2188 1.367 . S
C2189 C2191 1.433 . S
C2190 C2186 1.350 . S
C2190 C2187 1.463 . S
C2190 N2194 1.427 . S
C2191 H2181 0.929 . S
C2191 C2189 1.433 . S
C2191 N2194 1.384 . S
C2192 H2183 0.929 . S
C2192 C2184 1.378 . S
C2192 C2187 1.350 . S
C2193 H2180 0.929 . S
C2193 C2185 1.433 . S
C2193 N2195 1.384 . S
N2194 C2190 1.427 . S
N2194 C2191 1.384 . S
N2195 C2187 1.427 . S
N2195 C2193 1.384 . S
H2196 C2202 0.930 . S
H2197 C2206 0.930 . S
H2198 C2211 0.929 . S
H2199 C2209 0.929 . S
H2200 C2204 0.929 . S
H2201 C2210 0.929 . S
C2202 H2196 0.930 . S
C2202 C2203 1.367 . S
C2202 C2210 1.378 . S
C2203 C2202 1.367 . S
C2203 C2211 1.433 . S
C2204 H2200 0.929 . S
C2204 C2206 1.378 . S
C2204 C2208 1.350 . S
C2205 C2208 1.463 . S
C2205 C2210 1.350 . S
C2205 N2213 1.427 . S
C2206 H2197 0.930 . S
C2206 C2204 1.378 . S
C2206 C2207 1.367 . S
C2207 C2206 1.367 . S
C2207 C2209 1.433 . S
C2208 C2204 1.350 . S
C2208 C2205 1.463 . S
C2208 N2212 1.427 . S
C2209 H2199 0.929 . S
C2209 C2207 1.433 . S
C2209 N2212 1.384 . S
C2210 H2201 0.929 . S
C2210 C2202 1.378 . S
C2210 C2205 1.350 . S
C2211 H2198 0.929 . S
C2211 C2203 1.433 . S
C2211 N2213 1.384 . S
N2212 C2208 1.427 . S
N2212 C2209 1.384 . S
N2213 C2205 1.427 . S
N2213 C2211 1.384 . S
H2214 C2220 0.930 . S
H2215 C2224 0.930 . S
H2216 C2229 0.929 . S
H2217 C2227 0.929 . S
H2218 C2222 0.929 . S
H2219 C2228 0.929 . S
C2220 H2214 0.930 . S
C2220 C2221 1.367 . S
C2220 C2228 1.378 . S
C2221 C2220 1.367 . S
C2221 C2229 1.433 . S
C2222 H2218 0.929 . S
C2222 C2224 1.378 . S
C2222 C2226 1.350 . S
C2223 C2226 1.463 . S
C2223 C2228 1.350 . S
C2223 N2231 1.427 . S
C2224 H2215 0.930 . S
C2224 C2222 1.378 . S
C2224 C2225 1.367 . S
C2225 C2224 1.367 . S
C2225 C2227 1.433 . S
C2226 C2222 1.350 . S
C2226 C2223 1.463 . S
C2226 N2230 1.427 . S
C2227 H2217 0.929 . S
C2227 C2225 1.433 . S
C2227 N2230 1.384 . S
C2228 H2219 0.929 . S
C2228 C2220 1.378 . S
C2228 C2223 1.350 . S
C2229 H2216 0.929 . S
C2229 C2221 1.433 . S
C2229 N2231 1.384 . S
N2230 C2226 1.427 . S
N2230 C2227 1.384 . S
N2231 C2223 1.427 . S
N2231 C2229 1.384 . S
H2232 C2238 0.930 . S
H2233 C2242 0.930 . S
H2234 C2247 0.929 . S
H2235 C2245 0.929 . S
H2236 C2240 0.929 . S
H2237 C2246 0.929 . S
C2238 H2232 0.930 . S
C2238 C2239 1.367 . S
C2238 C2246 1.378 . S
C2239 C2238 1.367 . S
C2239 C2247 1.433 . S
C2240 H2236 0.929 . S
C2240 C2242 1.378 . S
C2240 C2244 1.350 . S
C2241 C2244 1.463 . S
C2241 C2246 1.350 . S
C2241 N2249 1.427 . S
C2242 H2233 0.930 . S
C2242 C2240 1.378 . S
C2242 C2243 1.367 . S
C2243 C2242 1.367 . S
C2243 C2245 1.433 . S
C2244 C2240 1.350 . S
C2244 C2241 1.463 . S
C2244 N2248 1.427 . S
C2245 H2235 0.929 . S
C2245 C2243 1.433 . S
C2245 N2248 1.384 . S
C2246 H2237 0.929 . S
C2246 C2238 1.378 . S
C2246 C2241 1.350 . S
C2247 H2234 0.929 . S
C2247 C2239 1.433 . S
C2247 N2249 1.384 . S
N2248 C2244 1.427 . S
N2248 C2245 1.384 . S
N2249 C2241 1.427 . S
N2249 C2247 1.384 . S
H2250 C2256 0.930 . S
H2251 C2260 0.930 . S
H2252 C2265 0.929 . S
H2253 C2263 0.929 . S
H2254 C2258 0.929 . S
H2255 C2264 0.929 . S
C2256 H2250 0.930 . S
C2256 C2257 1.367 . S
C2256 C2264 1.378 . S
C2257 C2256 1.367 . S
C2257 C2265 1.433 . S
C2258 H2254 0.929 . S
C2258 C2260 1.378 . S
C2258 C2262 1.350 . S
C2259 C2262 1.463 . S
C2259 C2264 1.350 . S
C2259 N2267 1.427 . S
C2260 H2251 0.930 . S
C2260 C2258 1.378 . S
C2260 C2261 1.367 . S
C2261 C2260 1.367 . S
C2261 C2263 1.433 . S
C2262 C2258 1.350 . S
C2262 C2259 1.463 . S
C2262 N2266 1.427 . S
C2263 H2253 0.929 . S
C2263 C2261 1.433 . S
C2263 N2266 1.384 . S
C2264 H2255 0.929 . S
C2264 C2256 1.378 . S
C2264 C2259 1.350 . S
C2265 H2252 0.929 . S
C2265 C2257 1.433 . S
C2265 N2267 1.384 . S
N2266 C2262 1.427 . S
N2266 C2263 1.384 . S
N2267 C2259 1.427 . S
N2267 C2265 1.384 . S
H2268 C2274 0.930 . S
H2269 C2278 0.930 . S
H2270 C2283 0.929 . S
H2271 C2281 0.929 . S
H2272 C2276 0.929 . S
H2273 C2282 0.929 . S
C2274 H2268 0.930 . S
C2274 C2275 1.367 . S
C2274 C2282 1.378 . S
C2275 C2274 1.367 . S
C2275 C2283 1.433 . S
C2276 H2272 0.929 . S
C2276 C2278 1.378 . S
C2276 C2280 1.350 . S
C2277 C2280 1.463 . S
C2277 C2282 1.350 . S
C2277 N2285 1.427 . S
C2278 H2269 0.930 . S
C2278 C2276 1.378 . S
C2278 C2279 1.367 . S
C2279 C2278 1.367 . S
C2279 C2281 1.433 . S
C2280 C2276 1.350 . S
C2280 C2277 1.463 . S
C2280 N2284 1.427 . S
C2281 H2271 0.929 . S
C2281 C2279 1.433 . S
C2281 N2284 1.384 . S
C2282 H2273 0.929 . S
C2282 C2274 1.378 . S
C2282 C2277 1.350 . S
C2283 H2270 0.929 . S
C2283 C2275 1.433 . S
C2283 N2285 1.384 . S
N2284 C2280 1.427 . S
N2284 C2281 1.384 . S
N2285 C2277 1.427 . S
N2285 C2283 1.384 . S
H2286 C2292 0.930 . S
H2287 C2296 0.930 . S
H2288 C2301 0.929 . S
H2289 C2299 0.929 . S
H2290 C2294 0.929 . S
H2291 C2300 0.929 . S
C2292 H2286 0.930 . S
C2292 C2293 1.367 . S
C2292 C2300 1.378 . S
C2293 C2292 1.367 . S
C2293 C2301 1.433 1_554 S
C2294 H2290 0.929 . S
C2294 C2296 1.378 . S
C2294 C2298 1.350 . S
C2295 C2298 1.462 1_554 S
C2295 C2300 1.353 . S
C2295 N2303 1.425 1_554 S
C2296 H2287 0.930 . S
C2296 C2294 1.378 . S
C2296 C2297 1.367 . S
C2297 C2296 1.367 . S
C2297 C2299 1.433 1_556 S
C2298 C2294 1.350 . S
C2298 C2295 1.462 1_556 S
C2298 N2302 1.427 1_556 S
C2299 H2289 0.929 . S
C2299 C2297 1.433 1_554 S
C2299 N2302 1.384 . S
C2300 H2291 0.929 . S
C2300 C2292 1.378 . S
C2300 C2295 1.353 . S
C2301 H2288 0.929 . S
C2301 C2293 1.433 1_556 S
C2301 N2303 1.384 . S
N2302 C2298 1.427 1_554 S
N2302 C2299 1.384 . S
N2303 C2295 1.425 1_556 S
N2303 C2301 1.384 . S
H2304 C2310 0.930 . S
H2305 C2314 0.930 . S
H2306 C2319 0.929 . S
H2307 C2317 0.929 . S
H2308 C2312 0.929 . S
H2309 C2318 0.929 . S
C2310 H2304 0.930 . S
C2310 C2311 1.367 . S
C2310 C2318 1.378 . S
C2311 C2310 1.367 . S
C2311 C2319 1.433 . S
C2312 H2308 0.929 . S
C2312 C2314 1.378 . S
C2312 C2316 1.350 . S
C2313 C2316 1.463 . S
C2313 C2318 1.350 . S
C2313 N2321 1.427 . S
C2314 H2305 0.930 . S
C2314 C2312 1.378 . S
C2314 C2315 1.367 . S
C2315 C2314 1.367 . S
C2315 C2317 1.433 . S
C2316 C2312 1.350 . S
C2316 C2313 1.463 . S
C2316 N2320 1.427 . S
C2317 H2307 0.929 . S
C2317 C2315 1.433 . S
C2317 N2320 1.384 . S
C2318 H2309 0.929 . S
C2318 C2310 1.378 . S
C2318 C2313 1.350 . S
C2319 H2306 0.929 . S
C2319 C2311 1.433 . S
C2319 N2321 1.384 . S
N2320 C2316 1.427 . S
N2320 C2317 1.384 . S
N2321 C2313 1.427 . S
N2321 C2319 1.384 . S
H2322 C2328 0.930 . S
H2323 C2332 0.930 . S
H2324 C2337 0.929 . S
H2325 C2335 0.929 . S
H2326 C2330 0.929 . S
H2327 C2336 0.929 . S
C2328 H2322 0.930 . S
C2328 C2329 1.367 . S
C2328 C2336 1.378 . S
C2329 C2328 1.367 . S
C2329 C2337 1.433 1_554 S
C2330 H2326 0.929 . S
C2330 C2332 1.378 . S
C2330 C2334 1.350 1_556 S
C2331 C2334 1.463 . S
C2331 C2336 1.350 . S
C2331 N2339 1.427 1_554 S
C2332 H2323 0.930 . S
C2332 C2330 1.378 . S
C2332 C2333 1.367 1_556 S
C2333 C2332 1.367 1_554 S
C2333 C2335 1.433 . S
C2334 C2330 1.350 1_554 S
C2334 C2331 1.463 . S
C2334 N2338 1.427 . S
C2335 H2325 0.929 . S
C2335 C2333 1.433 . S
C2335 N2338 1.384 . S
C2336 H2327 0.929 . S
C2336 C2328 1.378 . S
C2336 C2331 1.350 . S
C2337 H2324 0.929 . S
C2337 C2329 1.433 1_556 S
C2337 N2339 1.384 . S
N2338 C2334 1.427 . S
N2338 C2335 1.384 . S
N2339 C2331 1.427 1_556 S
N2339 C2337 1.384 . S
H2340 C2346 0.930 . S
H2341 C2350 0.930 . S
H2342 C2355 0.929 . S
H2343 C2353 0.929 . S
H2344 C2348 0.929 . S
H2345 C2354 0.929 . S
C2346 H2340 0.930 . S
C2346 C2347 1.367 . S
C2346 C2354 1.378 . S
C2347 C2346 1.367 . S
C2347 C2355 1.433 . S
C2348 H2344 0.929 . S
C2348 C2350 1.378 . S
C2348 C2352 1.350 . S
C2349 C2352 1.463 . S
C2349 C2354 1.350 . S
C2349 N2357 1.427 . S
C2350 H2341 0.930 . S
C2350 C2348 1.378 . S
C2350 C2351 1.367 . S
C2351 C2350 1.367 . S
C2351 C2353 1.433 . S
C2352 C2348 1.350 . S
C2352 C2349 1.463 . S
C2352 N2356 1.427 . S
C2353 H2343 0.929 . S
C2353 C2351 1.433 . S
C2353 N2356 1.384 . S
C2354 H2345 0.929 . S
C2354 C2346 1.378 . S
C2354 C2349 1.350 . S
C2355 H2342 0.929 . S
C2355 C2347 1.433 . S
C2355 N2357 1.384 . S
N2356 C2352 1.427 . S
N2356 C2353 1.384 . S
N2357 C2349 1.427 . S
N2357 C2355 1.384 . S
H2358 C2364 0.930 . S
H2359 C2368 0.930 . S
H2360 C2373 0.929 . S
H2361 C2371 0.929 . S
H2362 C2366 0.929 . S
H2363 C2372 0.929 . S
C2364 H2358 0.930 . S
C2364 C2365 1.367 . S
C2364 C2372 1.378 . S
C2365 C2364 1.367 . S
C2365 C2373 1.433 . S
C2366 H2362 0.929 . S
C2366 C2368 1.378 . S
C2366 C2370 1.350 . S
C2367 C2370 1.463 . S
C2367 C2372 1.350 . S
C2367 N2375 1.427 . S
C2368 H2359 0.930 . S
C2368 C2366 1.378 . S
C2368 C2369 1.367 . S
C2369 C2368 1.367 . S
C2369 C2371 1.433 . S
C2370 C2366 1.350 . S
C2370 C2367 1.463 . S
C2370 N2374 1.427 . S
C2371 H2361 0.929 . S
C2371 C2369 1.433 . S
C2371 N2374 1.384 . S
C2372 H2363 0.929 . S
C2372 C2364 1.378 . S
C2372 C2367 1.350 . S
C2373 H2360 0.929 . S
C2373 C2365 1.433 . S
C2373 N2375 1.384 . S
N2374 C2370 1.427 . S
N2374 C2371 1.384 . S
N2375 C2367 1.427 . S
N2375 C2373 1.384 . S
C659 C328 1.191 . S
C655 C10 1.319 . S
C673 C13 1.060 . S
C677 C348 1.088 . S
C691 C34 1.257 . S
C695 C370 1.191 . S
C713 C389 1.259 . S
C709 C44 1.266 . S
C727 C21 1.286 . S
C731 C410 1.284 . S
C749 C433 1.155 . S
C745 C26 1.233 . S
C767 C456 1.152 . S
C763 C49 1.170 . S
C781 C5 1.228 . S
C785 C474 1.211 . S
C799 C62 1.211 . S
C803 C330 1.179 . S
C817 C73 1.238 . S
C821 C350 1.246 . S
C839 C372 1.101 . S
C835 C88 1.127 . S
C857 C391 1.191 . S
C853 C99 1.254 . S
C871 C60 1.278 . S
C875 C412 1.202 . S
C893 C435 1.057 . S
C889 C75 1.085 . S
C911 C452 1.233 . S
C907 C86 1.223 . S
C929 C476 1.204 . S
C925 C101 1.223 . S
C947 C326 1.212 . S
C943 C96 1.216 . S
C965 C498 1.061 . S
C961 C104 1.059 . S
C979 C122 1.179 . S
C983 C515 1.168 . S
C1001 C538 1.174 . S
C997 C130 1.248 . S
C1015 C57 1.173 . S
C1019 C472 1.103 . S
C1037 C368 1.261 . S
C1033 C70 1.264 . S
C1051 C117 1.015 . S
C1055 C561 1.010 . S
C1073 C577 1.086 . S
C1069 C143 1.110 . S
C1087 C164 1.349 . S
C1091 C325 1.260 . S
C1109 C578 1.222 . S
C1105 C169 1.226 . S
C1123 C192 1.446 . S
C1127 C367 1.325 . S
C1141 C200 1.213 . S
C1145 C558 1.204 . S
C1163 C411 1.235 . S
C1159 C179 1.275 . S
C1181 C514 1.221 . S
C1177 C182 1.295 . S
C1199 C455 1.357 . S
C1195 C203 1.346 . S
C1217 C599 1.373 . S
C1213 C161 1.342 . S
C1235 C329 1.334 . S
C1231 C216 1.325 1_545 S
C1249 C231 1.216 . S
C1253 C582 1.173 . S
C1271 C371 1.256 . S
C1267 C242 1.252 . S
C1285 C257 1.316 . S
C1289 C556 1.198 . S
C1303 C218 1.370 . S
C1307 C409 1.261 . S
C1321 C229 1.272 . S
C1325 C518 1.280 . S
C1343 C453 1.159 . S
C1339 C244 1.190 . S
C1357 C255 1.241 . S
C1361 C603 1.224 . S
C1375 C252 1.258 . S
C1379 C327 1.248 . S
C1393 C260 1.270 1_556 S
C1397 C497 1.268 . S
C1411 C278 1.138 . S
C1415 C432 1.125 . S
C1429 C286 1.280 . S
C1433 C535 1.213 . S
C1451 C601 1.161 . S
C1447 C213 1.223 . S
C1469 C369 1.190 . S
C1465 C226 1.201 . S
C1487 C392 1.184 . S
C1483 C273 1.192 . S
C1505 C349 1.218 . S
C1501 C299 1.284 . S
C1519 C36 1.318 . S
C1523 C622 1.202 . S
C1541 C579 1.085 . S
C1537 C39 1.077 . S
C1559 C643 1.194 . S
C1555 C8 1.257 . S
C1573 C18 1.262 . S
C1577 C557 1.250 . S
C1591 C47 1.281 . S
C1595 C494 1.280 . S
C1613 C517 1.178 . S
C1609 C0 1.220 . S
C1631 C540 1.136 . S
C1627 C23 1.168 . S
C1649 C600 1.222 . S
C1645 C31 1.224 . S
C1667 C624 1.180 . S
C1663 C153 1.212 . S
C1681 C112 1.239 . S
C1685 C581 1.246 . S
C1699 C127 1.128 . S
C1703 C645 1.104 . S
C1721 C559 1.192 . S
C1717 C138 1.264 . S
C1739 C496 1.215 . S
C1735 C151 1.264 . S
C1753 C114 1.084 . S
C1757 C519 1.068 . S
C1775 C536 1.236 . S
C1771 C125 1.228 . S
C1789 C140 1.227 . S
C1793 C602 1.190 . S
C1811 C620 1.218 . S
C1807 C135 1.221 . S
C1829 C414 1.060 . S
C1825 C65 1.060 . S
C1847 C431 1.174 . S
C1843 C83 1.181 . S
C1861 C91 1.235 . S
C1865 C454 1.191 . S
C1883 C598 1.119 . S
C1879 C148 1.187 . S
C1897 C109 1.267 . S
C1901 C641 1.263 . S
C1919 C393 1.017 . S
C1915 C78 1.009 . S
C1937 C346 1.086 . S
C1933 C52 1.112 . S
C1951 C190 1.340 . S
C1955 C619 1.253 . S
C1973 C347 1.231 . S
C1969 C195 1.225 . S
C1991 C640 1.307 . S
C1987 C166 1.448 . S
C2005 C174 1.220 . S
C2009 C390 1.211 . S
C2023 C205 1.279 . S
C2027 C495 1.230 . S
C2041 C156 1.291 . S
C2045 C430 1.208 . S
C2059 C177 1.358 . S
C2063 C539 1.356 . S
C2077 C187 1.355 . S
C2081 C473 1.364 . S
C2099 C623 1.334 . S
C2095 C307 1.326 . S
C2113 C270 1.216 . S
C2117 C351 1.179 . S
C2135 C644 1.253 . S
C2131 C281 1.264 . S
C2149 C296 1.312 . S
C2153 C388 1.223 . S
C2167 C309 1.368 . S
C2171 C493 1.264 . S
C2189 C434 1.272 . S
C2185 C268 1.281 . S
C2203 C283 1.191 . S
C2207 C537 1.168 . S
C2225 C477 1.212 . S
C2221 C294 1.238 . S
C2243 C621 1.244 . S
C2239 C291 1.254 . S
C2261 C413 1.274 . S
C2257 C221 1.268 . S
C2275 C239 1.139 . S
C2279 C516 1.126 . S
C2297 C451 1.196 . S
C2293 C247 1.274 . S
C2315 C475 1.154 . S
C2311 C304 1.225 . S
C2329 C265 1.206 . S
C2333 C642 1.194 . S
C2351 C560 1.194 . S
C2347 C234 1.186 . S
C2369 C580 1.203 . S
C2365 C208 1.279 . S
