# Generated by pormake.
# Topology rtl, (3,6)-cn, num edge types: 1
# Building blocks:
#     Node 0, Type 0, BuildingBlock: WUSLED_clean_sbu_0, # of connection points: 3
#     Node 1, Type 0, BuildingBlock: WUSLED_clean_sbu_0, # of connection points: 3
#     Node 2, Type 0, BuildingBlock: WUSLED_clean_sbu_0, # of connection points: 3
#     Node 3, Type 0, BuildingBlock: WUSLED_clean_sbu_0, # of connection points: 3
#     Node 4, Type 1, BuildingBlock: FUNLAD_clean_sbu_0, # of connection points: 6
#     Node 5, Type 1, BuildingBlock: FUNLAD_clean_sbu_0, # of connection points: 6
#     Edge 6, Type (0, 1), BuildingBlock: EZIPEK_clean_linker_0, # of connection points: 2
#     Edge 7, Type (0, 1), BuildingBlock: EZIPEK_clean_linker_0, # of connection points: 2
#     Edge 8, Type (0, 1), BuildingBlock: EZIPEK_clean_linker_0, # of connection points: 2
#     Edge 9, Type (0, 1), BuildingBlock: EZIPEK_clean_linker_0, # of connection points: 2
#     Edge 10, Type (0, 1), BuildingBlock: EZIPEK_clean_linker_0, # of connection points: 2
#     Edge 11, Type (0, 1), BuildingBlock: EZIPEK_clean_linker_0, # of connection points: 2
#     Edge 12, Type (0, 1), BuildingBlock: EZIPEK_clean_linker_0, # of connection points: 2
#     Edge 13, Type (0, 1), BuildingBlock: EZIPEK_clean_linker_0, # of connection points: 2
#     Edge 14, Type (0, 1), BuildingBlock: EZIPEK_clean_linker_0, # of connection points: 2
#     Edge 15, Type (0, 1), BuildingBlock: EZIPEK_clean_linker_0, # of connection points: 2
#     Edge 16, Type (0, 1), BuildingBlock: EZIPEK_clean_linker_0, # of connection points: 2
#     Edge 17, Type (0, 1), BuildingBlock: EZIPEK_clean_linker_0, # of connection points: 2
# Relax obj value: 0.023
# Max RMSD: 0.098
# Mean RMSD: 0.081
data_MOF--net-rtl--node1-WUSLED_clean_sbu_0--node2-FUNLAD_clean_sbu_0--edge1-EZIPEK_clean_linker_0
_symmetry_space_group_name_H-M    P1
_symmetry_Int_Tables_number       1
_symmetry_cell_setting            triclinic
loop_
_symmetry_equiv_pos_as_xyz
'x, y, z'
_cell_length_a     41.930467
_cell_length_b     34.596153
_cell_length_c     23.593149
_cell_angle_alpha  90.324054
_cell_angle_beta   91.063297
_cell_angle_gamma 90.299128
loop_
_atom_site_label
_atom_site_type_symbol
_atom_site_fract_x
_atom_site_fract_y
_atom_site_fract_z
_atom_type_partial_charge
C0 C 0.14847 0.83934 0.18112 0.0
C1 C 0.11786 0.85281 0.16651 0.0
C2 C 0.11098 0.8764 0.26274 0.0
C3 C 0.09917 0.87104 0.20715 0.0
C4 C 0.14143 0.86256 0.27745 0.0
C5 C 0.16004 0.84411 0.23688 0.0
U6 U 0.16991 0.82562 0.02698 0.0
O7 O 0.21664 0.82605 0.98584 0.0
O8 O 0.18574 0.77468 0.97927 0.0
C9 C 0.21392 0.78983 0.96928 0.0
C10 C 0.16903 0.82206 0.138 0.0
C11 C 0.24193 0.76519 0.98066 0.0
C12 C 0.26729 0.70995 0.02594 0.0
C13 C 0.24076 0.73392 0.01845 0.0
C14 C 0.29676 0.74877 0.95939 0.0
C15 C 0.29539 0.71709 0.99615 0.0
C16 C 0.27021 0.77253 0.9516 0.0
C17 C 0.11768 0.8781 0.91556 0.0
C18 C 0.10491 0.86192 0.81711 0.0
C19 C 0.09885 0.92773 0.85086 0.0
C20 C 0.10951 0.91665 0.90474 0.0
C21 C 0.09609 0.90038 0.8069 0.0
C22 C 0.11578 0.85084 0.8711 0.0
C23 C 0.12653 0.86707 0.97406 0.0
O24 O 0.15538 0.79597 0.10469 0.0
O25 O 0.18674 0.84685 0.11048 0.0
O26 O 0.15342 0.88174 0.99428 0.0
O27 O 0.12217 0.83067 0.98783 0.0
H28 H 0.10862 0.8497 0.12351 0.0
H29 H 0.07576 0.88164 0.19506 0.0
H30 H 0.15094 0.86657 0.3201 0.0
H31 H 0.18366 0.83411 0.24879 0.0
H32 H 0.26585 0.6856 0.05446 0.0
H33 H 0.21928 0.72772 0.04161 0.0
H34 H 0.31824 0.75468 0.93607 0.0
H35 H 0.27162 0.79645 0.92228 0.0
H36 H 0.10275 0.84044 0.78367 0.0
H37 H 0.09199 0.95749 0.84373 0.0
H38 H 0.11075 0.93809 0.93839 0.0
H39 H 0.12206 0.82091 0.87831 0.0
C40 C 0.64689 0.68435 0.69278 0.0
C41 C 0.61982 0.66197 0.67874 0.0
C42 C 0.61331 0.64585 0.77794 0.0
C43 C 0.60311 0.64288 0.72108 0.0
C44 C 0.64002 0.66882 0.79211 0.0
C45 C 0.65674 0.68797 0.7497 0.0
U46 U 0.66229 0.6975 0.53691 0.0
O47 O 0.67695 0.74792 0.48728 0.0
O48 O 0.70717 0.69626 0.48986 0.0
C49 C 0.7044 0.73242 0.47382 0.0
C50 C 0.66585 0.70198 0.64789 0.0
C51 C 0.73305 0.75681 0.48254 0.0
C52 C 0.7617 0.80935 0.53037 0.0
C53 C 0.73454 0.78584 0.5245 0.0
C54 C 0.78649 0.7745 0.45356 0.0
C55 C 0.78779 0.8039 0.49476 0.0
C56 C 0.75929 0.75123 0.44742 0.0
C57 C 0.60576 0.64419 0.43257 0.0
C58 C 0.61662 0.63097 0.3335 0.0
C59 C 0.56434 0.61698 0.37088 0.0
C60 C 0.57445 0.63067 0.42409 0.0
C61 C 0.58547 0.61656 0.32547 0.0
C62 C 0.6267 0.64482 0.38679 0.0
C63 C 0.61634 0.65581 0.48994 0.0
O64 O 0.68245 0.6773 0.61806 0.0
O65 O 0.65088 0.72763 0.6164 0.0
O66 O 0.61316 0.69259 0.50271 0.0
O67 O 0.64366 0.64129 0.50754 0.0
H68 H 0.61201 0.6587 0.63493 0.0
H69 H 0.58262 0.62514 0.70946 0.0
H70 H 0.64827 0.67124 0.83578 0.0
H71 H 0.67768 0.70496 0.76116 0.0
H72 H 0.76233 0.83191 0.56239 0.0
H73 H 0.71467 0.79055 0.55237 0.0
H74 H 0.80641 0.76991 0.42576 0.0
H75 H 0.75863 0.72898 0.41489 0.0
H76 H 0.63322 0.63073 0.29886 0.0
H77 H 0.54027 0.60589 0.36537 0.0
H78 H 0.55799 0.63001 0.45896 0.0
H79 H 0.65095 0.65527 0.39258 0.0
C80 C 0.87945 0.17358 0.17496 0.0
C81 C 0.90979 0.15922 0.16224 0.0
C82 C 0.91612 0.13562 0.25862 0.0
C83 C 0.92808 0.14053 0.20391 0.0
C84 C 0.88588 0.15018 0.27136 0.0
C85 C 0.86768 0.16909 0.22978 0.0
U86 U 0.85889 0.19017 0.01974 0.0
O87 O 0.81266 0.19239 0.97462 0.0
O88 O 0.84444 0.24307 0.9745 0.0
C89 C 0.81598 0.22908 0.96158 0.0
C90 C 0.85951 0.19203 0.13096 0.0
C91 C 0.78874 0.2545 0.974 0.0
C92 C 0.73891 0.26759 0.02176 0.0
C93 C 0.76538 0.24392 0.01316 0.0
C94 C 0.75921 0.3133 0.95365 0.0
C95 C 0.73557 0.30232 0.99181 0.0
C96 C 0.78551 0.28949 0.94468 0.0
C97 C 0.91023 0.13668 0.91001 0.0
C98 C 0.9241 0.15262 0.81309 0.0
C99 C 0.92821 0.08651 0.84579 0.0
C100 C 0.91748 0.09785 0.89897 0.0
C101 C 0.93198 0.11384 0.80273 0.0
C102 C 0.91318 0.16399 0.86641 0.0
C103 C 0.90131 0.14778 0.96804 0.0
O104 O 0.87397 0.21801 0.09993 0.0
O105 O 0.84133 0.16826 0.10092 0.0
O106 O 0.874 0.13393 0.98562 0.0
O107 O 0.9065 0.18391 0.9834 0.0
H108 H 0.91918 0.16215 0.11999 0.0
H109 H 0.95133 0.12937 0.19335 0.0
H110 H 0.87627 0.14651 0.31332 0.0
H111 H 0.84427 0.17982 0.24023 0.0
H112 H 0.72089 0.25869 0.05138 0.0
H113 H 0.76732 0.21718 0.03661 0.0
H114 H 0.757 0.34001 0.9302 0.0
H115 H 0.80319 0.2982 0.9143 0.0
H116 H 0.92704 0.17409 0.78033 0.0
H117 H 0.93433 0.05651 0.83856 0.0
H118 H 0.91545 0.07637 0.93198 0.0
H119 H 0.90766 0.19413 0.87381 0.0
C120 C 0.38056 0.33439 0.3487 0.0
C121 C 0.41045 0.3509 0.36213 0.0
C122 C 0.41552 0.37256 0.26485 0.0
C123 C 0.42788 0.36972 0.32039 0.0
C124 C 0.38581 0.35565 0.25131 0.0
C125 C 0.36846 0.33665 0.29301 0.0
U126 U 0.36235 0.32081 0.50417 0.0
O127 O 0.3164 0.3206 0.54791 0.0
O128 O 0.34752 0.26977 0.55231 0.0
C129 C 0.31951 0.28449 0.56401 0.0
C130 C 0.36116 0.31669 0.39303 0.0
C131 C 0.29143 0.25937 0.55374 0.0
C132 C 0.26492 0.20504 0.50639 0.0
C133 C 0.29156 0.22931 0.51336 0.0
C134 C 0.23745 0.24117 0.57886 0.0
C135 C 0.23776 0.21074 0.53931 0.0
C136 C 0.26412 0.2652 0.5861 0.0
C137 C 0.41549 0.37544 0.61406 0.0
C138 C 0.44428 0.364 0.70311 0.0
C139 C 0.41951 0.42604 0.68603 0.0
C140 C 0.40863 0.41307 0.6329 0.0
C141 C 0.43771 0.40178 0.72118 0.0
C142 C 0.43328 0.3509 0.64995 0.0
C143 C 0.40615 0.36354 0.55555 0.0
O144 O 0.37583 0.29126 0.42537 0.0
O145 O 0.34376 0.34111 0.42183 0.0
O146 O 0.37908 0.37746 0.53565 0.0
O147 O 0.41061 0.32715 0.54144 0.0
H148 H 0.42004 0.34974 0.40504 0.0
H149 H 0.4507 0.38274 0.33159 0.0
H150 H 0.37588 0.35774 0.20872 0.0
H151 H 0.34534 0.32429 0.28203 0.0
H152 H 0.26554 0.18167 0.47569 0.0
H153 H 0.31229 0.22434 0.48764 0.0
H154 H 0.21669 0.24596 0.60459 0.0
H155 H 0.26353 0.28821 0.61742 0.0
H156 H 0.45852 0.34502 0.72962 0.0
H157 H 0.41443 0.45539 0.6992 0.0
H158 H 0.39542 0.43285 0.60601 0.0
H159 H 0.43931 0.3219 0.63659 0.0
C160 C 0.04203 0.9619 0.4328 0.0
N161 N 0.07338 0.06243 0.51749 0.0
C162 C 0.103 0.04647 0.5178 0.0
C163 C 0.13017 0.07 0.51967 0.0
C164 C 0.12676 0.11026 0.52172 0.0
C165 C 0.09603 0.12608 0.52115 0.0
C166 C 0.06948 0.10148 0.51882 0.0
Zn167 Zn 0.03431 0.02654 0.51604 0.0
C168 C 0.98477 0.05018 0.43221 0.0
N169 N 0.95379 0.94974 0.5136 0.0
C170 C 0.9575 0.91076 0.5094 0.0
C171 C 0.92426 0.96578 0.51646 0.0
C172 C 0.897 0.94241 0.51492 0.0
C173 C 0.9002 0.90224 0.50997 0.0
C174 C 0.93082 0.88632 0.50732 0.0
Zn175 Zn 0.99291 0.98558 0.51484 0.0
O176 O 0.05591 0.99154 0.45384 0.0
C177 C 0.04152 0.96255 0.60023 0.0
O178 O 0.01452 0.95228 0.44986 0.0
H179 H 0.92181 0.99682 0.51959 0.0
H180 H 0.10559 0.01539 0.51695 0.0
H181 H 0.98116 0.89861 0.50732 0.0
O182 O 0.05514 0.99281 0.58191 0.0
O183 O 0.01522 0.95132 0.57791 0.0
H184 H 0.04573 0.11355 0.51847 0.0
O185 O 0.97243 0.01936 0.58031 0.0
O186 O 0.01232 0.06079 0.57869 0.0
O187 O 0.97097 0.02061 0.45225 0.0
O188 O 0.01239 0.05982 0.45068 0.0
C189 C 0.98613 0.04968 0.59958 0.0
H190 H 0.15361 0.05698 0.52015 0.0
H191 H 0.0927 0.15709 0.52277 0.0
H192 H 0.87364 0.95551 0.51697 0.0
H193 H 0.93399 0.85537 0.50342 0.0
C194 C 0.4882 0.46973 0.92901 0.0
N195 N 0.57344 0.45062 0.02267 0.0
C196 C 0.5682 0.41187 0.01749 0.0
C197 C 0.5939 0.38637 0.01471 0.0
C198 C 0.62515 0.40103 0.01676 0.0
C199 C 0.62994 0.44096 0.02279 0.0
C200 C 0.6036 0.46537 0.02592 0.0
Zn201 Zn 0.53558 0.48793 0.02293 0.0
C202 C 0.54737 0.5554 0.94713 0.0
N203 N 0.45642 0.56573 0.01935 0.0
C204 C 0.42634 0.55077 0.01592 0.0
C205 C 0.46151 0.60463 0.02139 0.0
C206 C 0.43574 0.63012 0.01914 0.0
C207 C 0.40457 0.6153 0.01515 0.0
C208 C 0.39993 0.57517 0.01396 0.0
Zn209 Zn 0.49428 0.52842 0.01991 0.0
O210 O 0.51484 0.45908 0.95025 0.0
C211 C 0.48286 0.46088 0.09564 0.0
O212 O 0.47361 0.49811 0.95051 0.0
H213 H 0.48559 0.61591 0.02429 0.0
H214 H 0.54406 0.40076 0.0148 0.0
H215 H 0.42279 0.5198 0.01416 0.0
O216 O 0.51036 0.4512 0.07887 0.0
O217 O 0.47025 0.49181 0.0772 0.0
H218 H 0.60727 0.49622 0.03022 0.0
O219 O 0.51556 0.55837 0.09083 0.0
O220 O 0.55525 0.51708 0.09419 0.0
O221 O 0.51909 0.56393 0.96116 0.0
O222 O 0.56044 0.52571 0.9686 0.0
C223 C 0.54114 0.54632 0.11451 0.0
H224 H 0.5895 0.35562 0.01004 0.0
H225 H 0.65381 0.4531 0.0245 0.0
H226 H 0.44002 0.66102 0.02006 0.0
H227 H 0.37613 0.56292 0.01079 0.0
C228 C 0.18958 0.18578 0.48486 0.0
C229 C 0.2098 0.18424 0.53372 0.0
C230 C 0.17405 0.13677 0.57652 0.0
C231 C 0.1554 0.13575 0.5257 0.0
N232 N 0.14849 0.15393 0.4277 0.0
N233 N 0.22488 0.15294 0.62125 0.0
C234 C 0.16404 0.15876 0.47871 0.0
C235 C 0.20307 0.15816 0.57821 0.0
N236 N 0.1941 0.2139 0.44529 0.0
N237 N 0.16346 0.11845 0.62386 0.0
H238 H 0.24657 0.1678 0.62372 0.0
H239 H 0.22283 0.13135 0.65158 0.0
H240 H 0.14216 0.10277 0.62457 0.0
H241 H 0.17427 0.12167 0.66371 0.0
H242 H 0.17806 0.21913 0.41201 0.0
H243 H 0.21251 0.23423 0.44832 0.0
H244 H 0.15592 0.16684 0.39039 0.0
H245 H 0.12975 0.13432 0.42149 0.0
C246 C 0.3309 0.66601 0.95579 0.0
C247 C 0.32314 0.69066 1.00175 0.0
C248 C 0.36714 0.66342 0.05846 0.0
C249 C 0.37675 0.64168 0.01056 0.0
N250 N 0.37134 0.62748 0.91058 0.0
N251 N 0.33666 0.71759 0.09365 0.0
C252 C 0.35961 0.64442 0.95831 0.0
C253 C 0.34203 0.69069 0.0523 0.0
N254 N 0.31028 0.66222 0.91048 0.0
N255 N 0.38129 0.65711 0.11022 0.0
H256 H 0.31852 0.73803 0.09066 0.0
H257 H 0.3518 0.72179 0.12867 0.0
H258 H 0.39972 0.63735 0.11641 0.0
H259 H 0.37301 0.66898 0.14781 0.0
H260 H 0.31298 0.64159 0.87864 0.0
H261 H 0.28883 0.67725 0.90725 0.0
H262 H 0.36175 0.632 0.87015 0.0
H263 H 0.39247 0.6117 0.91052 0.0
C264 C 0.82238 0.85668 0.45604 0.0
C265 C 0.81632 0.82956 0.49951 0.0
C266 C 0.86358 0.85281 0.55257 0.0
C267 C 0.87138 0.87701 0.5064 0.0
N268 N 0.86137 0.89705 0.40992 0.0
N269 N 0.8337 0.79721 0.58488 0.0
C270 C 0.85164 0.87759 0.45689 0.0
C271 C 0.83763 0.82636 0.5467 0.0
N272 N 0.79972 0.86338 0.4149 0.0
N273 N 0.88033 0.85599 0.60267 0.0
H274 H 0.81504 0.77721 0.58195 0.0
H275 H 0.85041 0.79082 0.61662 0.0
H276 H 0.89942 0.87512 0.60866 0.0
H277 H 0.8736 0.84217 0.63971 0.0
H278 H 0.80135 0.88572 0.38568 0.0
H279 H 0.77783 0.84892 0.41311 0.0
H280 H 0.84967 0.89506 0.37068 0.0
H281 H 0.88279 0.91246 0.40863 0.0
C282 C 0.70246 0.34753 0.05039 0.0
C283 C 0.70681 0.32678 0.99905 0.0
C284 C 0.65886 0.35677 0.95809 0.0
C285 C 0.65294 0.37479 0.01104 0.0
N286 N 0.66574 0.38177 0.11067 0.0
N287 N 0.68581 0.30545 0.90816 0.0
C288 C 0.67379 0.36856 0.05816 0.0
C289 C 0.68401 0.32959 0.95405 0.0
N290 N 0.72621 0.34831 0.09088 0.0
N291 N 0.64127 0.36672 0.91107 0.0
H292 H 0.70368 0.28482 0.90387 0.0
H293 H 0.66797 0.30335 0.87696 0.0
H294 H 0.62284 0.38683 0.912 0.0
H295 H 0.64681 0.35771 0.87024 0.0
H296 H 0.72586 0.36629 0.12642 0.0
H297 H 0.74763 0.33347 0.08662 0.0
H298 H 0.67829 0.37465 0.14763 0.0
H299 H 0.64482 0.39703 0.11807 0.0
C300 C 0.07845 0.87789 0.35136 0.0
C301 C 0.09198 0.89785 0.30516 0.0
C302 C 0.06813 0.95828 0.33822 0.0
C303 C 0.05793 0.93927 0.38795 0.0
N304 N 0.058 0.88225 0.44654 0.0
N305 N 0.10429 0.95823 0.25943 0.0
C306 C 0.06416 0.89932 0.39575 0.0
C307 C 0.08803 0.9384 0.29982 0.0
N308 N 0.07863 0.83839 0.35219 0.0
N309 N 0.05791 0.99491 0.32661 0.0
H310 H 0.11933 0.94486 0.23067 0.0
H311 H 0.10512 0.9883 0.25769 0.0
H312 H 0.04284 0.0103 0.35311 0.0
H313 H 0.06177 0.00859 0.28812 0.0
H314 H 0.0662 0.82214 0.38162 0.0
H315 H 0.08885 0.82174 0.32037 0.0
H316 H 0.06527 0.85435 0.45672 0.0
H317 H 0.04824 0.89704 0.48066 0.0
C318 C 0.57677 0.64169 0.86119 0.0
C319 C 0.59697 0.6231 0.82219 0.0
C320 C 0.58237 0.5601 0.86115 0.0
C321 C 0.56466 0.57885 0.90435 0.0
N322 N 0.55136 0.63863 0.95212 0.0
N323 N 0.62449 0.56558 0.79281 0.0
C324 C 0.56352 0.62 0.90616 0.0
C325 C 0.60145 0.5826 0.8246 0.0
N326 N 0.56963 0.67993 0.85461 0.0
N327 N 0.57982 0.52106 0.85255 0.0
H328 H 0.63897 0.58102 0.76536 0.0
H329 H 0.63129 0.53685 0.79776 0.0
H330 H 0.56539 0.50296 0.87616 0.0
H331 H 0.5894 0.50702 0.81764 0.0
H332 H 0.5522 0.69393 0.87786 0.0
H333 H 0.57913 0.69685 0.82252 0.0
H334 H 0.55301 0.66843 0.95815 0.0
H335 H 0.54269 0.62424 0.98724 0.0
C336 C 0.93839 0.07348 0.29688 0.0
C337 C 0.93484 0.1141 0.30221 0.0
C338 C 0.96276 0.11272 0.3945 0.0
C339 C 0.9687 0.07268 0.38676 0.0
N340 N 0.96812 0.01674 0.32503 0.0
N341 N 0.94877 0.17363 0.35048 0.0
C342 C 0.95821 0.05354 0.33632 0.0
C343 C 0.94859 0.13412 0.34939 0.0
N344 N 0.92188 0.05366 0.25539 0.0
N345 N 0.96911 0.12994 0.44581 0.0
H346 H 0.93867 0.19027 0.31814 0.0
H347 H 0.96138 0.18985 0.38079 0.0
H348 H 0.97879 0.11517 0.48043 0.0
H349 H 0.96207 0.15796 0.45575 0.0
H350 H 0.92077 0.0236 0.25342 0.0
H351 H 0.90689 0.06709 0.22583 0.0
H352 H 0.96404 1.00293 0.28621 0.0
H353 H 0.98314 1.00129 0.35226 0.0
C354 C 0.43835 0.40654 0.82796 0.0
C355 C 0.45157 0.41717 0.77525 0.0
C356 C 0.48642 0.46446 0.82337 0.0
C357 C 0.47543 0.45144 0.87643 0.0
N358 N 0.44302 0.40819 0.9308 0.0
N359 N 0.4925 0.45038 0.7236 0.0
C360 C 0.45202 0.42179 0.8792 0.0
C361 C 0.47695 0.44436 0.77324 0.0
N362 N 0.41198 0.38315 0.82883 0.0
N363 N 0.50466 0.49722 0.82058 0.0
H364 H 0.48638 0.436 0.68592 0.0
H365 H 0.5133 0.4668 0.72101 0.0
H366 H 0.5109 0.51364 0.85629 0.0
H367 H 0.5108 0.51029 0.78262 0.0
H368 H 0.3991 0.37762 0.8652 0.0
H369 H 0.40152 0.37129 0.79219 0.0
H370 H 0.4288 0.38376 0.93595 0.0
H371 H 0.45139 0.42016 0.96895 0.0
C372 C 0.57207 0.55807 0.26645 0.0
C373 C 0.57536 0.59881 0.27049 0.0
C374 C 0.56007 0.60475 0.1701 0.0
C375 C 0.5533 0.56449 0.16789 0.0
N376 N 0.54706 0.504 0.21757 0.0
N377 N 0.56828 0.66176 0.22896 0.0
C378 C 0.55781 0.54139 0.217 0.0
C379 C 0.56819 0.62244 0.22305 0.0
N380 N 0.5833 0.53518 0.30938 0.0
N381 N 0.56008 0.62576 0.12126 0.0
H382 H 0.5744 0.67574 0.26696 0.0
H383 H 0.55985 0.68039 0.19763 0.0
H384 H 0.55519 0.61347 0.08164 0.0
H385 H 0.56794 0.65432 0.11928 0.0
H386 H 0.58474 0.5052 0.30609 0.0
H387 H 0.594 0.54627 0.34633 0.0
H388 H 0.54641 0.48738 0.25422 0.0
H389 H 0.53581 0.4906 0.18291 0.0
C390 C 0.92703 0.09672 0.69879 0.0
C391 C 0.94636 0.10179 0.74833 0.0
C392 C 0.99176 0.07287 0.7003 0.0
C393 C 0.97304 0.06978 0.64961 0.0
N394 N 0.92515 0.0859 0.59702 0.0
N395 N 0.99872 0.10349 0.79225 0.0
C396 C 0.9413 0.08385 0.64777 0.0
C397 C 0.97927 0.0927 0.74771 0.0
N398 N 0.89491 0.10282 0.70104 0.0
N399 N 0.02066 0.05486 0.70461 0.0
H400 H 0.99042 0.11819 0.82774 0.0
H401 H 0.02348 0.10125 0.79154 0.0
H402 H 0.03061 0.03908 0.67169 0.0
H403 H 0.03345 0.05233 0.74268 0.0
H404 H 0.87904 0.09542 0.66822 0.0
H405 H 0.88372 0.11275 0.73742 0.0
H406 H 0.90314 0.09937 0.59199 0.0
H407 H 0.9351 0.0773 0.55877 0.0
C408 C 0.44808 0.37529 0.17626 0.0
C409 C 0.43307 0.39483 0.22148 0.0
C410 C 0.4545 0.45652 0.18829 0.0
C411 C 0.46631 0.43771 0.13926 0.0
N412 N 0.46998 0.37967 0.08224 0.0
N413 N 0.41687 0.45479 0.26475 0.0
C414 C 0.46203 0.39715 0.13209 0.0
C415 C 0.4348 0.43568 0.22582 0.0
N416 N 0.44979 0.33585 0.17631 0.0
N417 N 0.46334 0.49377 0.20076 0.0
H418 H 0.40194 0.44065 0.2929 0.0
H419 H 0.41451 0.48475 0.26551 0.0
H420 H 0.47871 0.50989 0.17587 0.0
H421 H 0.45821 0.50731 0.23904 0.0
H422 H 0.46345 0.32016 0.14791 0.0
H423 H 0.4398 0.31888 0.20787 0.0
H424 H 0.46403 0.35113 0.07227 0.0
H425 H 0.48001 0.39445 0.04857 0.0
C426 C 0.04865 0.92029 0.74853 0.0
C427 C 0.08169 0.91196 0.75155 0.0
C428 C 0.08667 0.92939 0.65142 0.0
C429 C 0.05474 0.94284 0.65103 0.0
N430 N 1.00693 0.95732 0.70292 0.0
N431 N 0.13326 0.91194 0.708 0.0
C432 C 0.036 0.9397 0.70041 0.0
C433 C 0.10104 0.9172 0.70344 0.0
N434 N 0.02921 0.90917 0.79146 0.0
N435 N 0.10293 0.9273 0.60181 0.0
H436 H 0.14455 0.90262 0.74521 0.0
H437 H 0.14906 0.9195 0.67632 0.0
H438 H 0.09289 0.93536 0.56285 0.0
H439 H 0.12514 0.91426 0.59836 0.0
H440 H 1.00443 0.91086 0.78886 0.0
H441 H 0.03761 0.89469 0.82739 0.0
H442 H 0.99411 0.95977 0.74017 0.0
H443 H 0.99687 0.97293 0.66955 0.0
loop_
_geom_bond_atom_site_label_1
_geom_bond_atom_site_label_2
_geom_bond_distance
_geom_bond_site_symmetry_2
_ccdc_geom_bond_type
C0 C1 1.264 . S
C0 C5 1.479 . S
C0 C10 1.465 . S
C1 C0 1.264 . S
C1 C3 1.339 . S
C1 H28 0.931 . S
C2 C3 1.395 . S
C2 C4 1.320 . S
C3 C1 1.339 . S
C3 C2 1.395 . S
C3 H29 0.929 . S
C4 C2 1.320 . S
C4 C5 1.405 . S
C4 H30 0.930 . S
C5 C0 1.479 . S
C5 C4 1.405 . S
C5 H31 0.931 . S
U6 O7 2.454 . S
U6 O8 2.458 1_554 S
U6 C9 2.984 . S
U6 C10 2.847 . S
U6 C23 2.882 1_554 S
U6 O24 2.441 . S
U6 O25 2.420 . S
U6 O26 2.455 1_554 S
U6 O27 2.449 1_554 S
O7 U6 2.454 . S
O7 C9 1.353 . S
O8 U6 2.458 1_556 S
O8 C9 1.286 1_556 S
C9 U6 2.984 . S
C9 O7 1.353 . S
C9 O8 1.286 1_554 S
C9 C11 1.363 . S
C10 C0 1.465 . S
C10 U6 2.847 . S
C10 O24 1.249 . S
C10 O25 1.202 . S
C11 C9 1.363 . S
C11 C13 1.408 . S
C11 C16 1.342 1_554 S
C12 C13 1.310 . S
C12 C15 1.461 . S
C12 H32 0.932 . S
C13 C11 1.408 . S
C13 C12 1.310 . S
C13 H33 0.930 . S
C14 C15 1.474 1_556 S
C14 C16 1.285 . S
C14 H34 0.929 . S
C15 C12 1.461 . S
C15 C14 1.474 1_554 S
C16 C11 1.342 1_556 S
C16 C14 1.285 . S
C16 H35 0.930 . S
C17 C20 1.424 . S
C17 C22 1.245 . S
C17 C23 1.428 . S
C18 C21 1.260 . S
C18 C22 1.477 . S
C18 H36 0.932 . S
C19 C20 1.384 . S
C19 C21 1.479 . S
C19 H37 0.929 . S
C20 C17 1.424 . S
C20 C19 1.384 . S
C20 H38 0.928 . S
C21 C18 1.260 . S
C21 C19 1.479 . S
C22 C17 1.245 . S
C22 C18 1.477 . S
C22 H39 0.932 . S
C23 U6 2.882 1_556 S
C23 C17 1.428 . S
C23 O26 1.301 . S
C23 O27 1.282 . S
O24 U6 2.441 . S
O24 C10 1.249 . S
O25 U6 2.420 . S
O25 C10 1.202 . S
O26 U6 2.455 1_556 S
O26 C23 1.301 . S
O27 U6 2.449 1_556 S
O27 C23 1.282 . S
H28 C1 0.931 . S
H29 C3 0.929 . S
H30 C4 0.930 . S
H31 C5 0.931 . S
H32 C12 0.932 . S
H33 C13 0.930 . S
H34 C14 0.929 . S
H35 C16 0.930 . S
H36 C18 0.932 . S
H37 C19 0.929 . S
H38 C20 0.928 . S
H39 C22 0.932 . S
C40 C41 1.264 . S
C40 C45 1.479 . S
C40 C50 1.465 . S
C41 C40 1.264 . S
C41 C43 1.339 . S
C41 H68 0.931 . S
C42 C43 1.395 . S
C42 C44 1.320 . S
C43 C41 1.339 . S
C43 C42 1.395 . S
C43 H69 0.929 . S
C44 C42 1.320 . S
C44 C45 1.405 . S
C44 H70 0.930 . S
C45 C40 1.479 . S
C45 C44 1.405 . S
C45 H71 0.931 . S
U46 O47 2.454 . S
U46 O48 2.458 . S
U46 C49 2.984 . S
U46 C50 2.847 . S
U46 C63 2.882 . S
U46 O64 2.441 . S
U46 O65 2.420 . S
U46 O66 2.455 . S
U46 O67 2.449 . S
O47 U46 2.454 . S
O47 C49 1.353 . S
O48 U46 2.458 . S
O48 C49 1.286 . S
C49 U46 2.984 . S
C49 O47 1.353 . S
C49 O48 1.286 . S
C49 C51 1.363 . S
C50 C40 1.465 . S
C50 U46 2.847 . S
C50 O64 1.249 . S
C50 O65 1.202 . S
C51 C49 1.363 . S
C51 C53 1.408 . S
C51 C56 1.342 . S
C52 C53 1.310 . S
C52 C55 1.461 . S
C52 H72 0.932 . S
C53 C51 1.408 . S
C53 C52 1.310 . S
C53 H73 0.930 . S
C54 C55 1.474 . S
C54 C56 1.285 . S
C54 H74 0.929 . S
C55 C52 1.461 . S
C55 C54 1.474 . S
C56 C51 1.342 . S
C56 C54 1.285 . S
C56 H75 0.930 . S
C57 C60 1.424 . S
C57 C62 1.245 . S
C57 C63 1.428 . S
C58 C61 1.260 . S
C58 C62 1.477 . S
C58 H76 0.932 . S
C59 C60 1.384 . S
C59 C61 1.479 . S
C59 H77 0.929 . S
C60 C57 1.424 . S
C60 C59 1.384 . S
C60 H78 0.928 . S
C61 C58 1.260 . S
C61 C59 1.479 . S
C62 C57 1.245 . S
C62 C58 1.477 . S
C62 H79 0.932 . S
C63 U46 2.882 . S
C63 C57 1.428 . S
C63 O66 1.301 . S
C63 O67 1.282 . S
O64 U46 2.441 . S
O64 C50 1.249 . S
O65 U46 2.420 . S
O65 C50 1.202 . S
O66 U46 2.455 . S
O66 C63 1.301 . S
O67 U46 2.449 . S
O67 C63 1.282 . S
H68 C41 0.931 . S
H69 C43 0.929 . S
H70 C44 0.930 . S
H71 C45 0.931 . S
H72 C52 0.932 . S
H73 C53 0.930 . S
H74 C54 0.929 . S
H75 C56 0.930 . S
H76 C58 0.932 . S
H77 C59 0.929 . S
H78 C60 0.928 . S
H79 C62 0.932 . S
C80 C81 1.264 . S
C80 C85 1.479 . S
C80 C90 1.465 . S
C81 C80 1.264 . S
C81 C83 1.339 . S
C81 H108 0.931 . S
C82 C83 1.395 . S
C82 C84 1.320 . S
C83 C81 1.339 . S
C83 C82 1.395 . S
C83 H109 0.929 . S
C84 C82 1.320 . S
C84 C85 1.405 . S
C84 H110 0.930 . S
C85 C80 1.479 . S
C85 C84 1.405 . S
C85 H111 0.931 . S
U86 O87 2.454 . S
U86 O88 2.458 1_554 S
U86 C89 2.984 . S
U86 C90 2.847 . S
U86 C103 2.882 1_554 S
U86 O104 2.441 . S
U86 O105 2.420 . S
U86 O106 2.455 1_554 S
U86 O107 2.449 1_554 S
O87 U86 2.454 . S
O87 C89 1.353 . S
O88 U86 2.458 1_556 S
O88 C89 1.286 1_556 S
C89 U86 2.984 . S
C89 O87 1.353 . S
C89 O88 1.286 1_554 S
C89 C91 1.363 . S
C90 C80 1.465 . S
C90 U86 2.847 . S
C90 O104 1.249 . S
C90 O105 1.202 . S
C91 C89 1.363 . S
C91 C93 1.408 . S
C91 C96 1.342 1_554 S
C92 C93 1.310 . S
C92 C95 1.461 . S
C92 H112 0.932 . S
C93 C91 1.408 . S
C93 C92 1.310 . S
C93 H113 0.930 . S
C94 C95 1.474 1_556 S
C94 C96 1.285 . S
C94 H114 0.929 . S
C95 C92 1.461 . S
C95 C94 1.474 1_554 S
C96 C91 1.342 1_556 S
C96 C94 1.285 . S
C96 H115 0.930 . S
C97 C100 1.424 . S
C97 C102 1.245 . S
C97 C103 1.428 . S
C98 C101 1.260 . S
C98 C102 1.477 . S
C98 H116 0.932 . S
C99 C100 1.384 . S
C99 C101 1.479 . S
C99 H117 0.929 . S
C100 C97 1.424 . S
C100 C99 1.384 . S
C100 H118 0.928 . S
C101 C98 1.260 . S
C101 C99 1.479 . S
C102 C97 1.245 . S
C102 C98 1.477 . S
C102 H119 0.932 . S
C103 U86 2.882 1_556 S
C103 C97 1.428 . S
C103 O106 1.301 . S
C103 O107 1.282 . S
O104 U86 2.441 . S
O104 C90 1.249 . S
O105 U86 2.420 . S
O105 C90 1.202 . S
O106 U86 2.455 1_556 S
O106 C103 1.301 . S
O107 U86 2.449 1_556 S
O107 C103 1.282 . S
H108 C81 0.931 . S
H109 C83 0.929 . S
H110 C84 0.930 . S
H111 C85 0.931 . S
H112 C92 0.932 . S
H113 C93 0.930 . S
H114 C94 0.929 . S
H115 C96 0.930 . S
H116 C98 0.932 . S
H117 C99 0.929 . S
H118 C100 0.928 . S
H119 C102 0.932 . S
C120 C121 1.264 . S
C120 C125 1.479 . S
C120 C130 1.465 . S
C121 C120 1.264 . S
C121 C123 1.339 . S
C121 H148 0.931 . S
C122 C123 1.395 . S
C122 C124 1.320 . S
C123 C121 1.339 . S
C123 C122 1.395 . S
C123 H149 0.929 . S
C124 C122 1.320 . S
C124 C125 1.405 . S
C124 H150 0.930 . S
C125 C120 1.479 . S
C125 C124 1.405 . S
C125 H151 0.931 . S
U126 O127 2.454 . S
U126 O128 2.458 . S
U126 C129 2.984 . S
U126 C130 2.847 . S
U126 C143 2.882 . S
U126 O144 2.441 . S
U126 O145 2.420 . S
U126 O146 2.455 . S
U126 O147 2.449 . S
O127 U126 2.454 . S
O127 C129 1.353 . S
O128 U126 2.458 . S
O128 C129 1.286 . S
C129 U126 2.984 . S
C129 O127 1.353 . S
C129 O128 1.286 . S
C129 C131 1.363 . S
C130 C120 1.465 . S
C130 U126 2.847 . S
C130 O144 1.249 . S
C130 O145 1.202 . S
C131 C129 1.363 . S
C131 C133 1.408 . S
C131 C136 1.342 . S
C132 C133 1.310 . S
C132 C135 1.461 . S
C132 H152 0.932 . S
C133 C131 1.408 . S
C133 C132 1.310 . S
C133 H153 0.930 . S
C134 C135 1.474 . S
C134 C136 1.285 . S
C134 H154 0.929 . S
C135 C132 1.461 . S
C135 C134 1.474 . S
C136 C131 1.342 . S
C136 C134 1.285 . S
C136 H155 0.930 . S
C137 C140 1.424 . S
C137 C142 1.245 . S
C137 C143 1.428 . S
C138 C141 1.260 . S
C138 C142 1.477 . S
C138 H156 0.932 . S
C139 C140 1.384 . S
C139 C141 1.479 . S
C139 H157 0.929 . S
C140 C137 1.424 . S
C140 C139 1.384 . S
C140 H158 0.928 . S
C141 C138 1.260 . S
C141 C139 1.479 . S
C142 C137 1.245 . S
C142 C138 1.477 . S
C142 H159 0.932 . S
C143 U126 2.882 . S
C143 C137 1.428 . S
C143 O146 1.301 . S
C143 O147 1.282 . S
O144 U126 2.441 . S
O144 C130 1.249 . S
O145 U126 2.420 . S
O145 C130 1.202 . S
O146 U126 2.455 . S
O146 C143 1.301 . S
O147 U126 2.449 . S
O147 C143 1.282 . S
H148 C121 0.931 . S
H149 C123 0.929 . S
H150 C124 0.930 . S
H151 C125 0.931 . S
H152 C132 0.932 . S
H153 C133 0.930 . S
H154 C134 0.929 . S
H155 C136 0.930 . S
H156 C138 0.932 . S
H157 C139 0.929 . S
H158 C140 0.928 . S
H159 C142 0.932 . S
C160 O176 1.251 . S
C160 O178 1.254 1_455 S
N161 C162 1.333 . S
N161 C166 1.307 . S
N161 Zn167 2.020 . S
C162 N161 1.333 . S
C162 C163 1.379 . S
C162 H180 0.952 . S
C163 C162 1.379 . S
C163 C164 1.390 . S
C163 H190 0.949 . S
C164 C163 1.390 . S
C164 C165 1.357 . S
C165 C164 1.357 . S
C165 C166 1.370 . S
C165 H191 0.950 . S
C166 N161 1.307 . S
C166 C165 1.370 . S
C166 H184 0.948 . S
Zn167 N161 2.020 . S
Zn167 O176 2.039 1_545 S
Zn167 O182 2.034 1_545 S
Zn167 O186 2.025 . S
Zn167 O188 2.024 . S
C168 O187 1.246 . S
C168 O188 1.249 1_655 S
N169 C170 1.307 . S
N169 C171 1.333 . S
N169 Zn175 2.020 . S
C170 N169 1.307 . S
C170 C174 1.370 . S
C170 H181 0.948 . S
C171 N169 1.333 . S
C171 C172 1.379 . S
C171 H179 0.952 . S
C172 C171 1.379 . S
C172 C173 1.390 . S
C172 H192 0.949 . S
C173 C172 1.390 . S
C173 C174 1.357 . S
C174 C170 1.370 . S
C174 C173 1.357 . S
C174 H193 0.950 . S
Zn175 N169 2.020 . S
Zn175 O178 2.025 . S
Zn175 O183 2.024 . S
Zn175 O185 2.039 1_565 S
Zn175 O187 2.034 1_565 S
O176 C160 1.251 . S
O176 Zn167 2.039 1_565 S
C177 O182 1.246 . S
C177 O183 1.249 1_455 S
O178 C160 1.254 1_655 S
O178 Zn175 2.025 . S
H179 C171 0.952 . S
H180 C162 0.952 . S
H181 C170 0.948 . S
O182 Zn167 2.034 1_565 S
O182 C177 1.246 . S
O183 Zn175 2.024 . S
O183 C177 1.249 1_655 S
H184 C166 0.948 . S
O185 Zn175 2.039 1_545 S
O185 C189 1.251 . S
O186 Zn167 2.025 . S
O186 C189 1.254 1_455 S
O187 C168 1.246 . S
O187 Zn175 2.034 1_545 S
O188 Zn167 2.024 . S
O188 C168 1.249 1_455 S
C189 O185 1.251 . S
C189 O186 1.254 1_655 S
H190 C163 0.949 . S
H191 C165 0.950 . S
H192 C172 0.949 . S
H193 C174 0.950 . S
C194 O210 1.251 . S
C194 O212 1.254 . S
N195 C196 1.333 1_554 S
N195 C200 1.307 . S
N195 Zn201 2.020 . S
C196 N195 1.333 1_556 S
C196 C197 1.379 . S
C196 H214 0.952 . S
C197 C196 1.379 . S
C197 C198 1.390 1_556 S
C197 H224 0.949 . S
C198 C197 1.390 1_554 S
C198 C199 1.357 . S
C199 C198 1.357 . S
C199 C200 1.370 . S
C199 H225 0.950 . S
C200 N195 1.307 . S
C200 C199 1.370 . S
C200 H218 0.948 . S
Zn201 N195 2.020 . S
Zn201 O210 2.039 1_554 S
Zn201 O216 2.034 . S
Zn201 O220 2.025 . S
Zn201 O222 2.024 1_554 S
C202 O221 1.246 . S
C202 O222 1.249 . S
N203 C204 1.307 1_554 S
N203 C205 1.333 . S
N203 Zn209 2.020 . S
C204 N203 1.307 1_556 S
C204 C208 1.370 . S
C204 H215 0.948 . S
C205 N203 1.333 . S
C205 C206 1.379 . S
C205 H213 0.952 . S
C206 C205 1.379 . S
C206 C207 1.390 . S
C206 H226 0.949 . S
C207 C206 1.390 . S
C207 C208 1.357 1_554 S
C208 C204 1.370 . S
C208 C207 1.357 1_556 S
C208 H227 0.950 . S
Zn209 N203 2.020 . S
Zn209 O212 2.025 1_554 S
Zn209 O217 2.024 . S
Zn209 O219 2.039 . S
Zn209 O221 2.034 1_554 S
O210 C194 1.251 . S
O210 Zn201 2.039 1_556 S
C211 O216 1.246 . S
C211 O217 1.249 . S
O212 C194 1.254 . S
O212 Zn209 2.025 1_556 S
H213 C205 0.952 . S
H214 C196 0.952 . S
H215 C204 0.948 . S
O216 Zn201 2.034 . S
O216 C211 1.246 . S
O217 Zn209 2.024 . S
O217 C211 1.249 . S
H218 C200 0.948 . S
O219 Zn209 2.039 . S
O219 C223 1.251 . S
O220 Zn201 2.025 . S
O220 C223 1.254 . S
O221 C202 1.246 . S
O221 Zn209 2.034 1_556 S
O222 Zn201 2.024 1_556 S
O222 C202 1.249 . S
C223 O219 1.251 . S
C223 O220 1.254 . S
H224 C197 0.949 . S
H225 C199 0.950 . S
H226 C206 0.949 . S
H227 C208 0.950 . S
C228 C229 1.363 . S
C228 C234 1.379 . S
C228 N236 1.356 . S
C229 C228 1.363 . S
C229 C235 1.363 . S
C230 C231 1.363 . S
C230 C235 1.379 . S
C230 N237 1.356 . S
C231 C230 1.363 . S
C231 C234 1.363 . S
N232 C234 1.356 . S
N232 H244 0.984 . S
N232 H245 0.985 . S
N233 C235 1.356 . S
N233 H238 0.984 . S
N233 H239 0.985 . S
C234 C228 1.379 . S
C234 C231 1.363 . S
C234 N232 1.356 . S
C235 C229 1.363 . S
C235 C230 1.379 . S
C235 N233 1.356 . S
N236 C228 1.356 . S
N236 H242 0.984 . S
N236 H243 0.984 . S
N237 C230 1.356 . S
N237 H240 0.984 . S
N237 H241 0.985 . S
H238 N233 0.984 . S
H239 N233 0.985 . S
H240 N237 0.984 . S
H241 N237 0.985 . S
H242 N236 0.984 . S
H243 N236 0.984 . S
H244 N232 0.984 . S
H245 N232 0.985 . S
C246 C247 1.363 1_556 S
C246 C252 1.379 . S
C246 N254 1.356 . S
C247 C246 1.363 1_554 S
C247 C253 1.363 . S
C248 C249 1.363 . S
C248 C253 1.379 . S
C248 N255 1.356 . S
C249 C248 1.363 . S
C249 C252 1.363 1_554 S
N250 C252 1.356 . S
N250 H262 0.984 . S
N250 H263 0.985 . S
N251 C253 1.356 . S
N251 H256 0.984 . S
N251 H257 0.985 . S
C252 C246 1.379 . S
C252 C249 1.363 1_556 S
C252 N250 1.356 . S
C253 C247 1.363 . S
C253 C248 1.379 . S
C253 N251 1.356 . S
N254 C246 1.356 . S
N254 H260 0.984 . S
N254 H261 0.984 . S
N255 C248 1.356 . S
N255 H258 0.984 . S
N255 H259 0.985 . S
H256 N251 0.984 . S
H257 N251 0.985 . S
H258 N255 0.984 . S
H259 N255 0.985 . S
H260 N254 0.984 . S
H261 N254 0.984 . S
H262 N250 0.984 . S
H263 N250 0.985 . S
C264 C265 1.363 . S
C264 C270 1.379 . S
C264 N272 1.356 . S
C265 C264 1.363 . S
C265 C271 1.363 . S
C266 C267 1.363 . S
C266 C271 1.379 . S
C266 N273 1.356 . S
C267 C266 1.363 . S
C267 C270 1.363 . S
N268 C270 1.356 . S
N268 H280 0.984 . S
N268 H281 0.985 . S
N269 C271 1.356 . S
N269 H274 0.984 . S
N269 H275 0.985 . S
C270 C264 1.379 . S
C270 C267 1.363 . S
C270 N268 1.356 . S
C271 C265 1.363 . S
C271 C266 1.379 . S
C271 N269 1.356 . S
N272 C264 1.356 . S
N272 H278 0.984 . S
N272 H279 0.984 . S
N273 C266 1.356 . S
N273 H276 0.984 . S
N273 H277 0.985 . S
H274 N269 0.984 . S
H275 N269 0.985 . S
H276 N273 0.984 . S
H277 N273 0.985 . S
H278 N272 0.984 . S
H279 N272 0.984 . S
H280 N268 0.984 . S
H281 N268 0.985 . S
C282 C283 1.363 . S
C282 C288 1.379 . S
C282 N290 1.356 . S
C283 C282 1.363 . S
C283 C289 1.363 1_554 S
C284 C285 1.363 1_556 S
C284 C289 1.379 . S
C284 N291 1.356 . S
C285 C284 1.363 1_554 S
C285 C288 1.363 . S
N286 C288 1.356 . S
N286 H298 0.984 . S
N286 H299 0.985 . S
N287 C289 1.356 . S
N287 H292 0.984 . S
N287 H293 0.985 . S
C288 C282 1.379 . S
C288 C285 1.363 . S
C288 N286 1.356 . S
C289 C283 1.363 1_556 S
C289 C284 1.379 . S
C289 N287 1.356 . S
N290 C282 1.356 . S
N290 H296 0.984 . S
N290 H297 0.984 . S
N291 C284 1.356 . S
N291 H294 0.984 . S
N291 H295 0.985 . S
H292 N287 0.984 . S
H293 N287 0.985 . S
H294 N291 0.984 . S
H295 N291 0.985 . S
H296 N290 0.984 . S
H297 N290 0.984 . S
H298 N286 0.984 . S
H299 N286 0.985 . S
C300 C301 1.363 . S
C300 C306 1.379 . S
C300 N308 1.358 1_455 S
C301 C300 1.363 . S
C301 C307 1.363 . S
C302 C303 1.363 . S
C302 C307 1.379 . S
C302 N309 1.356 . S
C303 C302 1.363 . S
C303 C306 1.363 . S
N304 C306 1.356 1_655 S
N304 H316 0.984 . S
N304 H317 0.985 . S
N305 C307 1.356 . S
N305 H310 0.984 . S
N305 H311 0.985 . S
C306 C300 1.379 . S
C306 C303 1.363 . S
C306 N304 1.356 1_455 S
C307 C301 1.363 . S
C307 C302 1.379 . S
C307 N305 1.356 . S
N308 C300 1.358 1_655 S
N308 H314 0.982 . S
N308 H315 0.986 1_655 S
N309 C302 1.356 . S
N309 H312 0.984 . S
N309 H313 0.985 . S
H310 N305 0.984 . S
H311 N305 0.985 . S
H312 N309 0.984 . S
H313 N309 0.985 . S
H314 N308 0.982 . S
H315 N308 0.986 1_455 S
H316 N304 0.984 . S
H317 N304 0.985 . S
C318 C319 1.363 . S
C318 C324 1.379 . S
C318 N326 1.356 . S
C319 C318 1.363 . S
C319 C325 1.363 . S
C320 C321 1.363 . S
C320 C325 1.379 . S
C320 N327 1.356 . S
C321 C320 1.363 . S
C321 C324 1.363 . S
N322 C324 1.356 . S
N322 H334 0.984 . S
N322 H335 0.985 . S
N323 C325 1.356 . S
N323 H328 0.984 . S
N323 H329 0.985 . S
C324 C318 1.379 . S
C324 C321 1.363 . S
C324 N322 1.356 . S
C325 C319 1.363 . S
C325 C320 1.379 . S
C325 N323 1.356 . S
N326 C318 1.356 . S
N326 H332 0.984 . S
N326 H333 0.984 . S
N327 C320 1.356 . S
N327 H330 0.984 . S
N327 H331 0.985 . S
H328 N323 0.984 . S
H329 N323 0.985 . S
H330 N327 0.984 . S
H331 N327 0.985 . S
H332 N326 0.984 . S
H333 N326 0.984 . S
H334 N322 0.984 . S
H335 N322 0.985 . S
C336 C337 1.363 . S
C336 C342 1.379 . S
C336 N344 1.356 . S
C337 C336 1.363 . S
C337 C343 1.363 . S
C338 C339 1.363 . S
C338 C343 1.379 . S
C338 N345 1.356 . S
C339 C338 1.363 . S
C339 C342 1.363 . S
N340 C342 1.356 . S
N340 H352 0.984 . S
N340 H353 0.985 . S
N341 C343 1.356 . S
N341 H346 0.984 . S
N341 H347 0.972 1_655 S
C342 C336 1.379 . S
C342 C339 1.363 . S
C342 N340 1.356 . S
C343 C337 1.363 . S
C343 C338 1.379 . S
C343 N341 1.356 . S
N344 C336 1.356 . S
N344 H350 0.984 . S
N344 H351 0.984 . S
N345 C338 1.356 . S
N345 H348 0.984 . S
N345 H349 0.985 1_655 S
H346 N341 0.984 . S
H347 N341 0.972 1_455 S
H348 N345 0.984 . S
H349 N345 0.985 1_455 S
H350 N344 0.984 . S
H351 N344 0.984 . S
H352 N340 0.984 . S
H353 N340 0.985 . S
C354 C355 1.363 . S
C354 C360 1.379 . S
C354 N362 1.356 . S
C355 C354 1.363 . S
C355 C361 1.363 . S
C356 C357 1.363 . S
C356 C361 1.379 . S
C356 N363 1.356 . S
C357 C356 1.363 . S
C357 C360 1.363 . S
N358 C360 1.356 . S
N358 H370 0.984 . S
N358 H371 0.985 . S
N359 C361 1.356 . S
N359 H364 0.984 . S
N359 H365 0.985 . S
C360 C354 1.379 . S
C360 C357 1.363 . S
C360 N358 1.356 . S
C361 C355 1.363 . S
C361 C356 1.379 . S
C361 N359 1.356 . S
N362 C354 1.356 . S
N362 H368 0.984 . S
N362 H369 0.984 . S
N363 C356 1.356 . S
N363 H366 0.984 . S
N363 H367 0.985 . S
H364 N359 0.984 . S
H365 N359 0.985 . S
H366 N363 0.984 . S
H367 N363 0.985 . S
H368 N362 0.984 . S
H369 N362 0.984 . S
H370 N358 0.984 . S
H371 N358 0.985 . S
C372 C373 1.363 . S
C372 C378 1.379 . S
C372 N380 1.356 . S
C373 C372 1.363 . S
C373 C379 1.363 . S
C374 C375 1.363 . S
C374 C379 1.379 . S
C374 N381 1.356 . S
C375 C374 1.363 . S
C375 C378 1.363 . S
N376 C378 1.356 . S
N376 H388 0.984 . S
N376 H389 0.985 . S
N377 C379 1.356 . S
N377 H382 0.984 . S
N377 H383 0.985 . S
C378 C372 1.379 . S
C378 C375 1.363 . S
C378 N376 1.356 . S
C379 C373 1.363 . S
C379 C374 1.379 . S
C379 N377 1.356 . S
N380 C372 1.356 . S
N380 H386 0.984 . S
N380 H387 0.984 . S
N381 C374 1.356 . S
N381 H384 0.984 . S
N381 H385 0.985 . S
H382 N377 0.984 . S
H383 N377 0.985 . S
H384 N381 0.984 . S
H385 N381 0.985 . S
H386 N380 0.984 . S
H387 N380 0.984 . S
H388 N376 0.984 . S
H389 N376 0.985 . S
C390 C391 1.363 . S
C390 C396 1.379 . S
C390 N398 1.356 . S
C391 C390 1.363 . S
C391 C397 1.363 . S
C392 C393 1.363 . S
C392 C397 1.379 . S
C392 N399 1.353 1_655 S
C393 C392 1.363 . S
C393 C396 1.363 . S
N394 C396 1.356 . S
N394 H406 0.984 . S
N394 H407 0.985 . S
N395 C397 1.356 . S
N395 H400 0.984 . S
N395 H401 0.985 1_655 S
C396 C390 1.379 . S
C396 C393 1.363 . S
C396 N394 1.356 . S
C397 C391 1.363 . S
C397 C392 1.379 . S
C397 N395 1.356 . S
N398 C390 1.356 . S
N398 H404 0.984 . S
N398 H405 0.984 . S
N399 C392 1.353 1_455 S
N399 H402 0.985 1_455 S
N399 H403 0.988 . S
H400 N395 0.984 . S
H401 N395 0.985 1_455 S
H402 N399 0.985 1_655 S
H403 N399 0.988 . S
H404 N398 0.984 . S
H405 N398 0.984 . S
H406 N394 0.984 . S
H407 N394 0.985 . S
C408 C409 1.363 . S
C408 C414 1.379 . S
C408 N416 1.356 . S
C409 C408 1.363 . S
C409 C415 1.363 . S
C410 C411 1.363 . S
C410 C415 1.379 . S
C410 N417 1.356 . S
C411 C410 1.363 . S
C411 C414 1.363 . S
N412 C414 1.356 . S
N412 H424 0.984 . S
N412 H425 0.985 . S
N413 C415 1.356 . S
N413 H418 0.984 . S
N413 H419 0.985 . S
C414 C408 1.379 . S
C414 C411 1.363 . S
C414 N412 1.356 . S
C415 C409 1.363 . S
C415 C410 1.379 . S
C415 N413 1.356 . S
N416 C408 1.356 . S
N416 H422 0.984 . S
N416 H423 0.984 . S
N417 C410 1.356 . S
N417 H420 0.984 . S
N417 H421 0.985 . S
H418 N413 0.984 . S
H419 N413 0.985 . S
H420 N417 0.984 . S
H421 N417 0.985 . S
H422 N416 0.984 . S
H423 N416 0.984 . S
H424 N412 0.984 . S
H425 N412 0.985 . S
C426 C427 1.363 . S
C426 C432 1.379 . S
C426 N434 1.356 . S
C427 C426 1.363 . S
C427 C433 1.363 . S
C428 C429 1.363 . S
C428 C433 1.379 . S
C428 N435 1.356 . S
C429 C428 1.363 . S
C429 C432 1.363 . S
N430 C432 1.360 . S
N430 H442 0.980 1_455 S
N430 H443 0.985 . S
N431 C433 1.356 . S
N431 H436 0.984 . S
N431 H437 0.985 . S
C432 C426 1.379 . S
C432 C429 1.363 . S
C432 N430 1.360 . S
C433 C427 1.363 . S
C433 C428 1.379 . S
C433 N431 1.356 . S
N434 C426 1.356 . S
N434 H440 0.984 1_455 S
N434 H441 0.984 . S
N435 C428 1.356 . S
N435 H438 0.984 . S
N435 H439 0.985 . S
H436 N431 0.984 . S
H437 N431 0.985 . S
H438 N435 0.984 . S
H439 N435 0.985 . S
H440 N434 0.984 1_655 S
H441 N434 0.984 . S
H442 N430 0.980 1_655 S
H443 N430 0.985 . S
C231 C164 1.735 . S
C229 C135 1.679 . S
C247 C15 1.604 . S
C249 C207 1.626 . S
C265 C55 1.689 . S
C267 C173 1.733 . S
C283 C95 1.605 . S
C285 C198 1.628 . S
C303 C160 1.712 . S
C301 C2 1.605 . S
C321 C202 1.847 . S
C319 C42 1.840 . S
C337 C82 1.595 . S
C339 C168 1.690 . S
C355 C141 1.677 . S
C357 C194 1.840 . S
C375 C223 1.860 . S
C373 C61 1.841 . S
C393 C189 1.753 . S
C391 C101 1.625 . S
C411 C211 1.866 . S
C409 C122 1.724 . S
C427 C21 1.617 . S
C429 C177 1.730 . S
