# Generated by pormake.
# Topology pyr, (3,6)-cn, num edge types: 1
# Building blocks:
#     Node 0, Type 0, BuildingBlock: WUSLED_clean_sbu_0, # of connection points: 3
#     Node 1, Type 0, BuildingBlock: WUSLED_clean_sbu_0, # of connection points: 3
#     Node 2, Type 0, BuildingBlock: WUSLED_clean_sbu_0, # of connection points: 3
#     Node 3, Type 0, BuildingBlock: WUSLED_clean_sbu_0, # of connection points: 3
#     Node 4, Type 0, BuildingBlock: WUSLED_clean_sbu_0, # of connection points: 3
#     Node 5, Type 0, BuildingBlock: WUSLED_clean_sbu_0, # of connection points: 3
#     Node 6, Type 0, BuildingBlock: WUSLED_clean_sbu_0, # of connection points: 3
#     Node 7, Type 0, BuildingBlock: WUSLED_clean_sbu_0, # of connection points: 3
#     Node 8, Type 1, BuildingBlock: FUNLAD_clean_sbu_0, # of connection points: 6
#     Node 9, Type 1, BuildingBlock: FUNLAD_clean_sbu_0, # of connection points: 6
#     Node 10, Type 1, BuildingBlock: FUNLAD_clean_sbu_0, # of connection points: 6
#     Node 11, Type 1, BuildingBlock: FUNLAD_clean_sbu_0, # of connection points: 6
#     Edge 12, Type (0, 1), BuildingBlock: UVAHIK_clean_linker_0, # of connection points: 2
#     Edge 13, Type (0, 1), BuildingBlock: UVAHIK_clean_linker_0, # of connection points: 2
#     Edge 14, Type (0, 1), BuildingBlock: UVAHIK_clean_linker_0, # of connection points: 2
#     Edge 15, Type (0, 1), BuildingBlock: UVAHIK_clean_linker_0, # of connection points: 2
#     Edge 16, Type (0, 1), BuildingBlock: UVAHIK_clean_linker_0, # of connection points: 2
#     Edge 17, Type (0, 1), BuildingBlock: UVAHIK_clean_linker_0, # of connection points: 2
#     Edge 18, Type (0, 1), BuildingBlock: UVAHIK_clean_linker_0, # of connection points: 2
#     Edge 19, Type (0, 1), BuildingBlock: UVAHIK_clean_linker_0, # of connection points: 2
#     Edge 20, Type (0, 1), BuildingBlock: UVAHIK_clean_linker_0, # of connection points: 2
#     Edge 21, Type (0, 1), BuildingBlock: UVAHIK_clean_linker_0, # of connection points: 2
#     Edge 22, Type (0, 1), BuildingBlock: UVAHIK_clean_linker_0, # of connection points: 2
#     Edge 23, Type (0, 1), BuildingBlock: UVAHIK_clean_linker_0, # of connection points: 2
#     Edge 24, Type (0, 1), BuildingBlock: UVAHIK_clean_linker_0, # of connection points: 2
#     Edge 25, Type (0, 1), BuildingBlock: UVAHIK_clean_linker_0, # of connection points: 2
#     Edge 26, Type (0, 1), BuildingBlock: UVAHIK_clean_linker_0, # of connection points: 2
#     Edge 27, Type (0, 1), BuildingBlock: UVAHIK_clean_linker_0, # of connection points: 2
#     Edge 28, Type (0, 1), BuildingBlock: UVAHIK_clean_linker_0, # of connection points: 2
#     Edge 29, Type (0, 1), BuildingBlock: UVAHIK_clean_linker_0, # of connection points: 2
#     Edge 30, Type (0, 1), BuildingBlock: UVAHIK_clean_linker_0, # of connection points: 2
#     Edge 31, Type (0, 1), BuildingBlock: UVAHIK_clean_linker_0, # of connection points: 2
#     Edge 32, Type (0, 1), BuildingBlock: UVAHIK_clean_linker_0, # of connection points: 2
#     Edge 33, Type (0, 1), BuildingBlock: UVAHIK_clean_linker_0, # of connection points: 2
#     Edge 34, Type (0, 1), BuildingBlock: UVAHIK_clean_linker_0, # of connection points: 2
#     Edge 35, Type (0, 1), BuildingBlock: UVAHIK_clean_linker_0, # of connection points: 2
# Relax obj value: 0.038
# Max RMSD: 0.055
# Mean RMSD: 0.025
data_MOF--net-pry--node1-WUSLED_clean_sbu_0--node2-FUNLAD_clean_sbu_0--edge1-UVAHIK_clean_linker_0
_symmetry_space_group_name_H-M    P1
_symmetry_Int_Tables_number       1
_symmetry_cell_setting            triclinic
loop_
_symmetry_equiv_pos_as_xyz
'x, y, z'
_cell_length_a     57.19818
_cell_length_b     59.772931
_cell_length_c     60.205512
_cell_angle_alpha  89.922806
_cell_angle_beta   90.195443
_cell_angle_gamma 85.806653
loop_
_atom_site_label
_atom_site_type_symbol
_atom_site_fract_x
_atom_site_fract_y
_atom_site_fract_z
_atom_type_partial_charge
C0 C 0.14993 0.23037 0.14762 0.0
C1 C 0.12982 0.23994 0.15828 0.0
C2 C 0.12545 0.26944 0.1299 0.0
C3 C 0.1177 0.25934 0.14951 0.0
C4 C 0.14571 0.25969 0.1195 0.0
C5 C 0.15772 0.24043 0.12823 0.0
U6 U 0.1652 0.1795 0.18774 0.0
O7 O 0.17928 0.14563 0.1782 0.0
O8 O 0.2006 0.16679 0.19853 0.0
C9 C 0.1998 0.14791 0.1875 0.0
C10 C 0.16344 0.21007 0.15605 0.0
C11 C 0.22058 0.14109 0.17392 0.0
C12 C 0.24331 0.1424 0.13984 0.0
C13 C 0.22366 0.14975 0.15252 0.0
C14 C 0.25711 0.11794 0.16994 0.0
C15 C 0.26024 0.12624 0.14833 0.0
C16 C 0.23752 0.12527 0.18254 0.0
C17 C 0.12818 0.16702 0.23954 0.0
C18 C 0.12928 0.13216 0.2608 0.0
C19 C 0.10918 0.16586 0.27564 0.0
C20 C 0.11515 0.17774 0.25666 0.0
C21 C 0.11609 0.14287 0.27802 0.0
C22 C 0.13532 0.14412 0.24179 0.0
C23 C 0.13353 0.18007 0.21946 0.0
O24 O 0.17493 0.21205 0.1748 0.0
O25 O 0.15353 0.19098 0.15441 0.0
O26 O 0.13109 0.17015 0.2002 0.0
O27 O 0.15234 0.19141 0.22049 0.0
H28 H 0.12351 0.23243 0.17328 0.0
H29 H 0.1021 0.26624 0.15791 0.0
H30 H 0.15256 0.26712 0.10469 0.0
H31 H 0.17328 0.23339 0.11981 0.0
H32 H 0.245 0.14905 0.12323 0.0
H33 H 0.21077 0.16201 0.14555 0.0
H34 H 0.26992 0.10583 0.17724 0.0
H35 H 0.23554 0.11846 0.19906 0.0
H36 H 0.13515 0.11456 0.26211 0.0
H37 H 0.09873 0.17467 0.28829 0.0
H38 H 0.10936 0.19536 0.25527 0.0
H39 H 0.14547 0.13547 0.22883 0.0
C40 C 0.30832 0.87425 0.64781 0.0
C41 C 0.29307 0.88722 0.66177 0.0
C42 C 0.26744 0.89758 0.63021 0.0
C43 C 0.27283 0.89882 0.65303 0.0
C44 C 0.28317 0.88502 0.61632 0.0
C45 C 0.30331 0.87351 0.62503 0.0
U46 U 0.36071 0.85901 0.68813 0.0
O47 O 0.37287 0.82539 0.70061 0.0
O48 O 0.39581 0.84407 0.67951 0.0
C49 C 0.39244 0.82482 0.68915 0.0
C50 C 0.32883 0.86033 0.65641 0.0
C51 C 0.39847 0.80405 0.67611 0.0
C52 C 0.4122 0.78505 0.64218 0.0
C53 C 0.40521 0.80482 0.65367 0.0
C54 C 0.40549 0.7633 0.67513 0.0
C55 C 0.41263 0.76399 0.65278 0.0
C56 C 0.39861 0.78305 0.68663 0.0
C57 C 0.37346 0.89923 0.73723 0.0
C58 C 0.39659 0.89223 0.77097 0.0
C59 C 0.38349 0.93027 0.76074 0.0
C60 C 0.37262 0.92227 0.74179 0.0
C61 C 0.39558 0.91541 0.77571 0.0
C62 C 0.38566 0.88422 0.7519 0.0
C63 C 0.36057 0.89162 0.71758 0.0
O64 O 0.34941 0.86847 0.6541 0.0
O65 O 0.32636 0.85027 0.67561 0.0
O66 O 0.34876 0.87371 0.72003 0.0
O67 O 0.37136 0.89223 0.69837 0.0
H68 H 0.29657 0.88805 0.67943 0.0
H69 H 0.26108 0.90822 0.66425 0.0
H70 H 0.27988 0.88401 0.59864 0.0
H71 H 0.31485 0.86366 0.61395 0.0
H72 H 0.41783 0.78638 0.62511 0.0
H73 H 0.40543 0.82069 0.64502 0.0
H74 H 0.40517 0.74745 0.68382 0.0
H75 H 0.39358 0.78192 0.70391 0.0
H76 H 0.40593 0.88028 0.78194 0.0
H77 H 0.38192 0.94814 0.76391 0.0
H78 H 0.36318 0.93415 0.73079 0.0
H79 H 0.38658 0.86634 0.74873 0.0
C80 C 0.58948 0.41686 0.88502 0.0
C81 C 0.59791 0.43603 0.87534 0.0
C82 C 0.57537 0.4299 0.84184 0.0
C83 C 0.59081 0.44258 0.85392 0.0
C84 C 0.56649 0.41106 0.85191 0.0
C85 C 0.57351 0.40461 0.87336 0.0
U86 U 0.63532 0.4162 0.93078 0.0
O87 O 0.63243 0.41037 0.96676 0.0
O88 O 0.65493 0.38733 0.94636 0.0
C89 C 0.64458 0.39083 0.96561 0.0
C90 C 0.5989 0.40826 0.90627 0.0
C91 C 0.63277 0.37147 0.97376 0.0
C92 C 0.59923 0.34887 0.97196 0.0
C93 C 0.60931 0.36903 0.96792 0.0
C94 C 0.63569 0.33354 0.98843 0.0
C95 C 0.61251 0.3307 0.98169 0.0
C96 C 0.64574 0.3538 0.98447 0.0
C97 C 0.68564 0.45376 0.9273 0.0
C98 C 0.71685 0.4505 0.95478 0.0
C99 C 0.72142 0.47224 0.92125 0.0
C100 C 0.69907 0.46732 0.91423 0.0
C101 C 0.73067 0.46364 0.94146 0.0
C102 C 0.69453 0.44553 0.94771 0.0
C103 C 0.6633 0.44681 0.91874 0.0
O104 O 0.61926 0.39674 0.90472 0.0
O105 O 0.59778 0.42248 0.92296 0.0
O106 O 0.64497 0.45118 0.93159 0.0
O107 O 0.66447 0.42645 0.91044 0.0
H108 H 0.61051 0.44551 0.88407 0.0
H109 H 0.59814 0.45701 0.84649 0.0
H110 H 0.55439 0.40113 0.84307 0.0
H111 H 0.56697 0.38968 0.88059 0.0
H112 H 0.58147 0.34711 0.9663 0.0
H113 H 0.59912 0.38233 0.95923 0.0
H114 H 0.64627 0.31987 0.99613 0.0
H115 H 0.66395 0.35532 0.98885 0.0
H116 H 0.72359 0.44342 0.9703 0.0
H117 H 0.73156 0.48262 0.91077 0.0
H118 H 0.69247 0.4737 0.89838 0.0
H119 H 0.68443 0.43481 0.95788 0.0
C120 C 0.83037 0.58855 0.42976 0.0
C121 C 0.8157 0.60649 0.43801 0.0
C122 C 0.78672 0.58071 0.44849 0.0
C123 C 0.79398 0.60261 0.44715 0.0
C124 C 0.80167 0.56272 0.44073 0.0
C125 C 0.82332 0.56665 0.43133 0.0
U126 U 0.88403 0.62189 0.42606 0.0
O127 O 0.92074 0.61129 0.41782 0.0
O128 O 0.90083 0.6366 0.39745 0.0
C129 C 0.92008 0.62336 0.39952 0.0
C130 C 0.85292 0.59256 0.4194 0.0
C131 C 0.92753 0.61147 0.37914 0.0
C132 C 0.91771 0.59344 0.34462 0.0
C133 C 0.91096 0.60245 0.36517 0.0
C134 C 0.95796 0.60108 0.35235 0.0
C135 C 0.94124 0.593 0.33775 0.0
C136 C 0.95112 0.61035 0.37283 0.0
C137 C 0.89131 0.671 0.46348 0.0
C138 C 0.92559 0.69204 0.4582 0.0
C139 C 0.89127 0.70931 0.47666 0.0
C140 C 0.88001 0.68947 0.4743 0.0
C141 C 0.91398 0.71094 0.4682 0.0
C142 C 0.91429 0.67226 0.45574 0.0
C143 C 0.87811 0.65169 0.45772 0.0
O144 O 0.85324 0.61141 0.40816 0.0
O145 O 0.87154 0.58838 0.43202 0.0
O146 O 0.88912 0.63182 0.46084 0.0
O147 O 0.86738 0.65368 0.43843 0.0
H148 H 0.82095 0.62353 0.43723 0.0
H149 H 0.78289 0.61672 0.45327 0.0
H150 H 0.7964 0.54569 0.44147 0.0
H151 H 0.83446 0.55262 0.42512 0.0
H152 H 0.90426 0.58768 0.33377 0.0
H153 H 0.89263 0.6031 0.36983 0.0
H154 H 0.9763 0.6006 0.34781 0.0
H155 H 0.96415 0.61712 0.38351 0.0
H156 H 0.94297 0.69287 0.45128 0.0
H157 H 0.882 0.72356 0.48462 0.0
H158 H 0.86219 0.68882 0.48016 0.0
H159 H 0.92313 0.65826 0.44699 0.0
C160 C 0.8749 0.80884 0.87932 0.0
C161 C 0.87517 0.78841 0.86769 0.0
C162 C 0.8979 0.76906 0.8974 0.0
C163 C 0.88659 0.76879 0.87658 0.0
C164 C 0.89817 0.78967 0.90866 0.0
C165 C 0.88677 0.80923 0.89979 0.0
U166 U 0.85742 0.86095 0.8415 0.0
O167 O 0.82194 0.87358 0.83086 0.0
O168 O 0.84281 0.89431 0.8521 0.0
C169 C 0.8224 0.89209 0.84255 0.0
C170 C 0.8602 0.82911 0.87193 0.0
C171 C 0.80141 0.89826 0.8561 0.0
C172 C 0.77905 0.89696 0.89042 0.0
C173 C 0.79899 0.89024 0.87785 0.0
C174 C 0.76368 0.91956 0.85956 0.0
C175 C 0.76111 0.91174 0.88143 0.0
C176 C 0.78358 0.91289 0.84708 0.0
C177 C 0.89557 0.87524 0.79077 0.0
C178 C 0.88631 0.90454 0.76323 0.0
C179 C 0.9237 0.88287 0.76196 0.0
C180 C 0.91741 0.87069 0.78061 0.0
C181 C 0.90829 0.90001 0.75296 0.0
C182 C 0.88002 0.89229 0.78198 0.0
C183 C 0.88958 0.86172 0.81029 0.0
O184 O 0.86902 0.84865 0.87459 0.0
O185 O 0.8483 0.8278 0.8533 0.0
O186 O 0.87074 0.8505 0.80852 0.0
O187 O 0.89156 0.8712 0.82982 0.0
H188 H 0.86598 0.78736 0.85201 0.0
H189 H 0.88578 0.75325 0.8675 0.0
H190 H 0.90699 0.79067 0.92453 0.0
H191 H 0.8867 0.82461 0.9093 0.0
H192 H 0.77759 0.89041 0.9071 0.0
H193 H 0.81253 0.87886 0.88512 0.0
H194 H 0.7505 0.93121 0.85216 0.0
H195 H 0.78514 0.91936 0.83037 0.0
H196 H 0.87405 0.91773 0.75694 0.0
H197 H 0.94057 0.87856 0.75439 0.0
H198 H 0.92963 0.85753 0.78706 0.0
H199 H 0.86307 0.89612 0.78959 0.0
C200 C 0.62657 0.16716 0.29148 0.0
C201 C 0.63427 0.14436 0.28966 0.0
C202 C 0.61506 0.14217 0.2534 0.0
C203 C 0.62851 0.13198 0.27084 0.0
C204 C 0.60754 0.16505 0.25536 0.0
C205 C 0.61323 0.17735 0.27416 0.0
U206 U 0.66291 0.17986 0.34371 0.0
O207 O 0.67353 0.21232 0.35612 0.0
O208 O 0.65099 0.19239 0.37647 0.0
C209 C 0.66165 0.21105 0.37467 0.0
C210 C 0.63183 0.18064 0.31127 0.0
C211 C 0.64877 0.23185 0.38255 0.0
C212 C 0.6164 0.2607 0.38084 0.0
C213 C 0.62818 0.24108 0.37229 0.0
C214 C 0.64577 0.26196 0.40976 0.0
C215 C 0.62497 0.27129 0.39983 0.0
C216 C 0.65746 0.24252 0.40122 0.0
C217 C 0.71673 0.14029 0.36037 0.0
C218 C 0.75394 0.14714 0.37813 0.0
C219 C 0.73895 0.11042 0.3806 0.0
C220 C 0.71927 0.11809 0.36812 0.0
C221 C 0.75676 0.12473 0.38555 0.0
C222 C 0.73416 0.15484 0.3657 0.0
C223 C 0.69643 0.14735 0.34591 0.0
O224 O 0.62863 0.17134 0.33073 0.0
O225 O 0.65109 0.19132 0.31039 0.0
O226 O 0.69797 0.16566 0.33403 0.0
O227 O 0.67554 0.14579 0.35454 0.0
H228 H 0.64468 0.13615 0.30279 0.0
H229 H 0.63484 0.11449 0.26984 0.0
H230 H 0.59688 0.17343 0.24251 0.0
H231 H 0.60703 0.19488 0.27523 0.0
H232 H 0.60038 0.26732 0.37283 0.0
H233 H 0.62117 0.23308 0.35784 0.0
H234 H 0.6532 0.26981 0.42409 0.0
H235 H 0.67339 0.23573 0.40933 0.0
H236 H 0.76733 0.15862 0.38138 0.0
H237 H 0.7402 0.0932 0.38634 0.0
H238 H 0.70609 0.10653 0.36427 0.0
H239 H 0.73274 0.17207 0.35997 0.0
C240 C 0.32917 0.59214 0.10981 0.0
C241 C 0.32144 0.60034 0.08901 0.0
C242 C 0.28524 0.58178 0.09321 0.0
C243 C 0.29963 0.59512 0.08071 0.0
C244 C 0.29343 0.57314 0.11378 0.0
C245 C 0.31523 0.5783 0.12199 0.0
U246 U 0.38196 0.62761 0.10979 0.0
O247 O 0.3958 0.6474 0.13679 0.0
O248 O 0.41786 0.61955 0.12233 0.0
C249 C 0.41536 0.63449 0.13831 0.0
C250 C 0.35083 0.59917 0.11978 0.0
C251 C 0.42142 0.62628 0.16074 0.0
C252 C 0.40979 0.61503 0.1976 0.0
C253 C 0.40385 0.62166 0.17596 0.0
C254 C 0.45098 0.61659 0.18883 0.0
C255 C 0.43339 0.6126 0.20427 0.0
C256 C 0.44501 0.62349 0.16723 0.0
C257 C 0.39429 0.66913 0.06626 0.0
C258 C 0.42226 0.69602 0.07633 0.0
C259 C 0.40527 0.69672 0.03938 0.0
C260 C 0.39238 0.67849 0.04494 0.0
C261 C 0.4201 0.70594 0.05515 0.0
C262 C 0.40962 0.67775 0.08175 0.0
C263 C 0.37972 0.65117 0.0731 0.0
O264 O 0.37033 0.59331 0.10907 0.0
O265 O 0.34959 0.62004 0.12673 0.0
O266 O 0.36659 0.65624 0.09052 0.0
O267 O 0.3907 0.63109 0.07438 0.0
H268 H 0.332 0.61121 0.07949 0.0
H269 H 0.29369 0.60215 0.06491 0.0
H270 H 0.28287 0.56256 0.12362 0.0
H271 H 0.32097 0.57189 0.13811 0.0
H272 H 0.39594 0.61177 0.20914 0.0
H273 H 0.38552 0.62344 0.17121 0.0
H274 H 0.4693 0.61491 0.19362 0.0
H275 H 0.45878 0.62693 0.15566 0.0
H276 H 0.43306 0.70283 0.08909 0.0
H277 H 0.40343 0.70373 0.02282 0.0
H278 H 0.38067 0.67195 0.03277 0.0
H279 H 0.41129 0.67071 0.09833 0.0
C280 C 0.09776 0.37506 0.61406 0.0
C281 C 0.11112 0.3611 0.59947 0.0
C282 C 0.08273 0.3329 0.60242 0.0
C283 C 0.10368 0.34015 0.59372 0.0
C284 C 0.06901 0.3473 0.61645 0.0
C285 C 0.07655 0.36822 0.62229 0.0
U286 U 0.14243 0.41885 0.61129 0.0
O287 O 0.13819 0.45537 0.61669 0.0
O288 O 0.16153 0.43418 0.63829 0.0
C289 C 0.15045 0.45398 0.63525 0.0
C290 C 0.10659 0.39607 0.6218 0.0
C291 C 0.13817 0.46266 0.6551 0.0
C292 C 0.10791 0.45821 0.68253 0.0
C293 C 0.11769 0.45306 0.66184 0.0
C294 C 0.13829 0.48358 0.6896 0.0
C295 C 0.11845 0.47307 0.69684 0.0
C296 C 0.14819 0.47827 0.66886 0.0
C297 C 0.19314 0.41236 0.5708 0.0
C298 C 0.21912 0.44181 0.56321 0.0
C299 C 0.23322 0.40279 0.55918 0.0
C300 C 0.2112 0.39622 0.56531 0.0
C301 C 0.23745 0.42563 0.5583 0.0
C302 C 0.19718 0.43522 0.56958 0.0
C303 C 0.17097 0.40496 0.57944 0.0
O304 O 0.12694 0.39367 0.63203 0.0
O305 O 0.10511 0.41273 0.60748 0.0
O306 O 0.15209 0.41847 0.57594 0.0
O307 O 0.17234 0.39683 0.59972 0.0
H308 H 0.12755 0.36621 0.59295 0.0
H309 H 0.11443 0.32952 0.58264 0.0
H310 H 0.05288 0.34207 0.6235 0.0
H311 H 0.06611 0.37883 0.63363 0.0
H312 H 0.09247 0.45008 0.68762 0.0
H313 H 0.10983 0.44082 0.65146 0.0
H314 H 0.1468 0.495 0.7004 0.0
H315 H 0.16416 0.48562 0.66398 0.0
H316 H 0.22201 0.45951 0.5629 0.0
H317 H 0.24701 0.39 0.55533 0.0
H318 H 0.20844 0.3785 0.56629 0.0
H319 H 0.18358 0.44798 0.57405 0.0
C320 C 0.03314 0.03362 0.47544 0.0
N321 N 0.01951 0.06498 0.53674 0.0
C322 C 0.04077 0.0732 0.53344 0.0
C323 C 0.0448 0.09483 0.54024 0.0
C324 C 0.02682 0.10814 0.55061 0.0
C325 C 1.00535 0.09895 0.55472 0.0
C326 C 1.002 0.07719 0.54749 0.0
Zn327 Zn 0.01399 0.03487 0.52273 0.0
C328 C 0.96888 0.03639 0.49736 0.0
N329 N 1.00425 0.9727 0.49119 0.0
C330 C 0.02181 0.96023 0.4808 0.0
C331 C 0.98266 0.96495 0.49374 0.0
C332 C 0.97816 0.9437 0.48616 0.0
C333 C 0.99607 0.93017 0.47589 0.0
C334 C 0.01809 0.93874 0.47302 0.0
Zn335 Zn 1.00984 1.00278 0.5053 0.0
O336 O 0.03042 0.04549 0.4929 0.0
C337 C 0.05493 1.00113 0.53063 0.0
O338 O 0.02616 1.01388 0.47552 0.0
H339 H 0.96902 0.97503 0.50224 0.0
H340 H 0.05446 0.0632 0.52491 0.0
H341 H 0.03885 0.96675 0.47899 0.0
O342 O 0.04709 0.021 0.53542 0.0
O343 O 0.04294 0.98946 0.51784 0.0
H344 H 0.98521 0.07031 0.54984 0.0
O345 O 0.99358 0.99203 0.53535 0.0
O346 O 0.99746 0.02397 0.55228 0.0
O347 O 0.97683 0.01649 0.49288 0.0
O348 O 0.98083 0.04833 0.50993 0.0
C349 C 0.99067 1.00417 0.55262 0.0
H350 H 0.06173 0.10122 0.53709 0.0
H351 H 0.99104 0.10876 0.56262 0.0
H352 H 0.96106 0.93763 0.48909 0.0
H353 H 0.03232 0.92887 0.46507 0.0
C354 C 0.55465 1.00247 0.99902 0.0
N355 N 0.52101 0.06716 0.99511 0.0
C356 C 0.54296 0.07401 0.99805 0.0
C357 C 0.54815 0.09547 0.99168 0.0
C358 C 0.53059 0.11017 0.98224 0.0
C359 C 0.50819 0.10251 0.97886 0.0
C360 C 0.50377 0.08077 0.98541 0.0
Zn361 Zn 0.51449 0.03672 1.00801 0.0
C362 C 0.49018 1.00776 0.97734 0.0
N363 N 0.50324 0.97347 0.03715 0.0
C364 C 0.52101 0.95846 0.04362 0.0
C365 C 0.48082 0.96742 0.03566 0.0
C366 C 0.47573 0.94538 0.03969 0.0
C367 C 0.49394 0.92909 0.04471 0.0
C368 C 0.51675 0.93602 0.0474 0.0
Zn369 Zn 0.5098 1.00421 0.02467 0.0
O370 O 0.54716 0.02264 0.99511 0.0
C371 C 0.53406 0.0332 0.05538 0.0
O372 O 0.54251 0.99048 1.0113 0.0
H373 H 0.46694 0.97941 0.03019 0.0
H374 H 0.55633 0.06306 1.00603 0.0
H375 H 0.53873 0.96357 0.04468 0.0
O376 O 0.5312 0.04571 0.03831 0.0
O377 O 0.52691 1.01351 0.05474 0.0
H378 H 0.48643 0.07496 0.98328 0.0
O379 O 0.47729 0.01854 0.03776 0.0
O380 O 0.48166 0.0505 0.02099 0.0
O381 O 0.49271 0.9953 0.99446 0.0
O382 O 0.4977 0.02728 0.97793 0.0
C383 C 0.46964 0.03861 0.03351 0.0
H384 H 0.56552 0.10079 0.99499 0.0
H385 H 0.49421 0.1133 0.97152 0.0
H386 H 0.45777 0.941 0.03801 0.0
H387 H 0.53138 0.92409 0.05116 0.0
C388 C 0.5275 0.47709 0.50169 0.0
N389 N 0.52606 0.49891 0.56802 0.0
C390 C 0.51938 0.47865 0.57487 0.0
C391 C 0.52414 0.47124 0.59653 0.0
C392 C 0.53602 0.48478 0.61118 0.0
C393 C 0.54322 0.50534 0.60347 0.0
C394 C 0.53797 0.51215 0.58176 0.0
Zn395 Zn 0.51676 0.51064 0.53724 0.0
C396 C 0.55523 0.53315 0.51539 0.0
N397 N 0.49657 0.53664 0.47372 0.0
C398 C 0.48696 0.52233 0.45932 0.0
C399 C 0.50073 0.55789 0.46755 0.0
C400 C 0.49549 0.56537 0.44599 0.0
C401 C 0.48622 0.55068 0.43067 0.0
C402 C 0.48178 0.529 0.43757 0.0
Zn403 Zn 0.50592 0.52499 0.5045 0.0
O404 O 0.52873 0.4793 0.52267 0.0
C405 C 0.46746 0.50232 0.52601 0.0
O406 O 0.51888 0.49354 0.49014 0.0
H407 H 0.50849 0.56893 0.47925 0.0
H408 H 0.50998 0.46838 0.56365 0.0
H409 H 0.48361 0.50558 0.46462 0.0
O410 O 0.48286 0.49904 0.54116 0.0
O411 O 0.47248 0.51283 0.50852 0.0
H412 H 0.54297 0.52826 0.57601 0.0
O413 O 0.49326 0.5561 0.51929 0.0
O414 O 0.50465 0.54225 0.55159 0.0
O415 O 0.53942 0.53712 0.50074 0.0
O416 O 0.55058 0.52217 0.53271 0.0
C417 C 0.49532 0.5585 0.54018 0.0
H418 H 0.51851 0.45516 0.60179 0.0
H419 H 0.55218 0.51638 0.61433 0.0
H420 H 0.49924 0.58219 0.44116 0.0
H421 H 0.47438 0.51732 0.42625 0.0
C422 C 0.99372 0.56106 0.99818 0.0
N423 N 0.99163 0.53348 0.06246 0.0
C424 C 0.99511 0.55433 0.07024 0.0
C425 C 0.98949 0.56005 0.09214 0.0
C426 C 0.98053 0.54406 0.10631 0.0
C427 C 0.97653 0.52286 0.0976 0.0
C428 C 0.98211 0.51795 0.07551 0.0
Zn429 Zn 1.00308 0.52467 0.03147 0.0
C430 C 0.96667 0.50363 1.00493 0.0
N431 N 0.02821 0.50546 0.96733 0.0
C432 C 0.04129 0.52051 0.95709 0.0
C433 C 0.02219 0.48664 0.9567 0.0
C434 C 0.02893 0.48271 0.93464 0.0
C435 C 0.04204 0.49828 0.92355 0.0
C436 C 0.04856 0.51715 0.93525 0.0
Zn437 Zn 0.01633 0.51351 0.99841 0.0
O438 O 0.99047 0.55683 0.01861 0.0
C439 C 0.05267 0.53462 0.02516 0.0
O440 O 1.00432 0.54608 0.98618 0.0
H441 H 0.0117 0.47494 0.96514 0.0
H442 H 1.00276 0.5664 0.05961 0.0
H443 H 0.04575 0.53547 0.96573 0.0
O444 O 0.0359 0.53701 0.03892 0.0
O445 O 0.04935 0.52517 1.00667 0.0
H446 H 0.97946 0.50148 0.06897 0.0
O447 O 0.02812 0.48094 1.01094 0.0
O448 O 0.01594 0.49239 0.04378 0.0
O449 O 0.98313 0.50199 0.99075 0.0
O450 O 0.97035 0.51223 0.02381 0.0
C451 C 0.0257 0.47707 0.03159 0.0
H452 H 0.99244 0.57675 0.09794 0.0
H453 H 0.96993 0.50987 0.10789 0.0
H454 H 0.02335 0.46801 0.92622 0.0
H455 H 0.05908 0.52937 0.92759 0.0
C456 C 0.10219 0.10827 0.29677 0.0
C457 C 0.1093 0.13029 0.2983 0.0
C458 C 0.09479 0.09699 0.31569 0.0
C459 C 0.07186 0.10795 0.37277 0.0
H460 H 0.08745 0.04438 0.38182 0.0
C461 C 0.05175 0.06488 0.45575 0.0
C462 C 0.04346 0.04329 0.45515 0.0
C463 C 0.06035 0.07468 0.43658 0.0
C464 C 0.08269 0.06209 0.37946 0.0
H465 H 0.11504 0.15721 0.32135 0.0
H466 H 0.10226 0.13766 0.35413 0.0
H467 H 0.10139 0.06281 0.34865 0.0
H468 H 0.03816 0.01497 0.43372 0.0
H469 H 0.05298 0.03216 0.40018 0.0
H470 H 0.0531 0.10731 0.40342 0.0
C471 C 0.10187 0.12923 0.33824 0.0
C472 C 0.09072 0.07269 0.36039 0.0
C473 C 0.10925 0.14048 0.31937 0.0
C474 C 0.04444 0.0316 0.43485 0.0
C475 C 0.05304 0.04145 0.4156 0.0
C476 C 0.06384 0.09737 0.39177 0.0
C477 C 0.09428 0.1074 0.33668 0.0
C478 C 0.08554 0.09583 0.35683 0.0
C479 C 0.06089 0.06326 0.41613 0.0
C480 C 0.06923 0.07431 0.39552 0.0
H481 H 0.10172 0.09993 0.28084 0.0
H482 H 0.08887 0.0803 0.31374 0.0
H483 H 0.06703 0.12566 0.37044 0.0
H484 H 0.05145 0.07438 0.47107 0.0
H485 H 0.06665 0.09128 0.43785 0.0
C486 C 0.41737 0.94464 0.79588 0.0
C487 C 0.40657 0.9242 0.79628 0.0
C488 C 0.42654 0.95355 0.8153 0.0
C489 C 0.44675 0.93855 0.87251 0.0
H490 H 0.43645 1.00249 0.88301 0.0
C491 C 0.46995 0.97796 0.95686 0.0
C492 C 0.47947 0.99902 0.95677 0.0
C493 C 0.46088 0.96908 0.93739 0.0
C494 C 0.43978 0.98464 0.88027 0.0
H495 H 0.39726 0.89712 0.81778 0.0
H496 H 0.41341 0.91255 0.85156 0.0
H497 H 0.42161 0.98636 0.84906 0.0
H498 H 0.48669 0.02729 0.93593 0.0
H499 H 0.4712 1.01169 0.90191 0.0
H500 H 0.46507 0.93681 0.90361 0.0
C501 C 0.41493 0.92162 0.83611 0.0
C502 C 0.43122 0.97536 0.86074 0.0
C503 C 0.40569 0.91272 0.81667 0.0
C504 C 0.4794 1.01108 0.93668 0.0
C505 C 0.4704 1.00214 0.91714 0.0
C506 C 0.45539 0.94784 0.892 0.0
C507 C 0.4253 0.94228 0.83574 0.0
C508 C 0.43455 0.95217 0.85658 0.0
C509 C 0.46114 0.98091 0.91716 0.0
C510 C 0.452 0.97103 0.89623 0.0
H511 H 0.41885 0.95379 0.78047 0.0
H512 H 0.43479 0.96926 0.81423 0.0
H513 H 0.44998 0.92069 0.86976 0.0
H514 H 0.46957 0.96821 0.97201 0.0
H515 H 0.45353 0.95292 0.93827 0.0
C516 C 0.57035 0.41851 0.80225 0.0
C517 C 0.56966 0.43551 0.81837 0.0
C518 C 0.56606 0.42375 0.77995 0.0
C519 C 0.56612 0.47072 0.74009 0.0
H520 H 0.53179 0.43134 0.70303 0.0
C521 C 0.56171 0.48083 0.64497 0.0
C522 C 0.5401 0.47796 0.63462 0.0
C523 C 0.56517 0.47531 0.66735 0.0
C524 C 0.54124 0.44262 0.71318 0.0
H525 H 0.56345 0.47126 0.82389 0.0
H526 H 0.55559 0.48044 0.78491 0.0
H527 H 0.5369 0.42303 0.74241 0.0
H528 H 0.50511 0.46719 0.63956 0.0
H529 H 0.51102 0.45776 0.67866 0.0
H530 H 0.56992 0.49064 0.71098 0.0
C531 C 0.5599 0.46309 0.78945 0.0
C532 C 0.54441 0.43771 0.73571 0.0
C533 C 0.56432 0.45785 0.81177 0.0
C534 C 0.52208 0.46926 0.64702 0.0
C535 C 0.52548 0.46386 0.66942 0.0
C536 C 0.56286 0.47568 0.71758 0.0
C537 C 0.56088 0.4461 0.77326 0.0
C538 C 0.55696 0.45166 0.74942 0.0
C539 C 0.54702 0.46693 0.67988 0.0
C540 C 0.55045 0.46165 0.70384 0.0
H541 H 0.57482 0.40118 0.80679 0.0
H542 H 0.56738 0.4103 0.76788 0.0
H543 H 0.57612 0.48167 0.75011 0.0
H544 H 0.57601 0.48725 0.63573 0.0
H545 H 0.58211 0.47748 0.67478 0.0
C546 C 0.96427 0.59695 0.30271 0.0
C547 C 0.94786 0.58558 0.3149 0.0
C548 C 0.96893 0.59143 0.28056 0.0
C549 C 0.96053 0.5481 0.23744 0.0
H550 H 0.96886 0.59765 0.19725 0.0
C551 C 0.95767 0.54031 0.14163 0.0
C552 C 0.9764 0.5491 0.13022 0.0
C553 C 0.95447 0.54434 0.16431 0.0
C554 C 0.9667 0.58366 0.20832 0.0
H555 H 0.92434 0.55872 0.31353 0.0
H556 H 0.93165 0.54981 0.27468 0.0
H557 H 0.9633 0.60495 0.23673 0.0
H558 H 1.00656 0.56888 0.13398 0.0
H559 H 1.00041 0.57649 0.17332 0.0
H560 H 0.96328 0.52696 0.20869 0.0
C561 C 0.94123 0.56276 0.28232 0.0
C562 C 0.96367 0.58778 0.23097 0.0
C563 C 0.93678 0.5681 0.30456 0.0
C564 C 0.99164 0.56225 0.14203 0.0
C565 C 0.98825 0.56651 0.16462 0.0
C566 C 0.96326 0.54403 0.21471 0.0
C567 C 0.9571 0.57461 0.26994 0.0
C568 C 0.96064 0.57005 0.24585 0.0
C569 C 0.96974 0.55748 0.17598 0.0
C570 C 0.96645 0.56177 0.19999 0.0
H571 H 0.97298 0.61067 0.30998 0.0
H572 H 0.98163 0.6006 0.2717 0.0
H573 H 0.9586 0.534 0.24842 0.0
H574 H 0.94535 0.53043 0.13304 0.0
H575 H 0.9399 0.53741 0.17269 0.0
C576 C 0.2891 0.09502 0.13554 0.0
C577 C 0.28094 0.1178 0.13478 0.0
C578 C 0.30878 0.08706 0.12335 0.0
C579 C 0.36185 0.10577 0.09548 0.0
H580 H 0.36356 0.04674 0.06866 0.0
C581 C 0.43941 0.07073 0.04033 0.0
C582 C 0.44728 0.04809 0.04351 0.0
C583 C 0.41869 0.0797 0.05035 0.0
C584 C 0.36349 0.06318 0.07621 0.0
H585 H 0.28731 0.15004 0.12032 0.0
H586 H 0.32137 0.13608 0.09871 0.0
H587 H 0.32834 0.06153 0.08787 0.0
H588 H 0.43926 0.01712 0.05967 0.0
H589 H 0.40335 0.03271 0.07714 0.0
H590 H 0.39708 0.10734 0.08384 0.0
C591 C 0.31267 0.12439 0.10901 0.0
C592 C 0.34325 0.07169 0.08727 0.0
C593 C 0.29293 0.13236 0.12123 0.0
C594 C 0.43376 0.03461 0.05679 0.0
C595 C 0.41303 0.04354 0.06673 0.0
C596 C 0.38211 0.09727 0.08437 0.0
C597 C 0.32091 0.10162 0.10994 0.0
C598 C 0.34219 0.09302 0.09726 0.0
C599 C 0.40522 0.06623 0.06373 0.0
C600 C 0.38329 0.07576 0.07476 0.0
H601 H 0.2802 0.0832 0.14552 0.0
H602 H 0.31469 0.06949 0.12474 0.0
H603 H 0.36186 0.12213 0.10318 0.0
H604 H 0.44935 0.08161 0.03019 0.0
H605 H 0.41312 0.09717 0.04745 0.0
C606 C 0.23239 0.89778 0.60476 0.0
C607 C 0.2453 0.90875 0.62086 0.0
C608 C 0.21184 0.90817 0.59561 0.0
C609 C 0.18017 0.96377 0.58646 0.0
H610 H 0.12727 0.92837 0.57504 0.0
C611 C 0.08982 1.00351 0.55598 0.0
C612 C 0.07733 0.99136 0.54048 0.0
C613 C 0.11035 0.99389 0.56597 0.0
C614 C 0.14195 0.93849 0.57783 0.0
H615 H 0.24647 0.93939 0.63992 0.0
H616 H 0.2104 0.95745 0.62412 0.0
H617 H 0.16251 0.91088 0.59243 0.0
H618 H 0.07704 0.95963 0.52308 0.0
H619 H 0.11291 0.94305 0.54017 0.0
H620 H 0.15962 0.99136 0.57172 0.0
C621 C 0.21636 0.94083 0.61843 0.0
C622 C 0.16221 0.92843 0.58787 0.0
C623 C 0.23693 0.93038 0.62768 0.0
C624 C 0.08611 0.96947 0.53501 0.0
C625 C 0.10664 0.95988 0.54496 0.0
C626 C 0.1599 0.97384 0.57636 0.0
C627 C 0.20354 0.92985 0.60226 0.0
C628 C 0.18166 0.94088 0.59222 0.0
C629 C 0.11897 0.97186 0.56072 0.0
C630 C 0.14054 0.9613 0.57178 0.0
H631 H 0.23807 0.88101 0.5993 0.0
H632 H 0.20262 0.89926 0.58305 0.0
H633 H 0.19489 0.97383 0.58928 0.0
H634 H 0.08356 0.02038 0.56066 0.0
H635 H 0.11918 1.00358 0.57818 0.0
C636 C 0.76035 0.47271 0.9703 0.0
C637 C 0.75501 0.46755 0.94817 0.0
C638 C 0.78341 0.47583 0.97663 0.0
C639 C 0.84084 0.48856 0.95369 0.0
H640 H 0.86481 0.46465 1.0099 0.0
C641 C 0.93832 0.48936 0.97752 0.0
C642 C 0.94311 0.49676 0.9991 0.0
C643 C 0.91562 0.48454 0.97152 0.0
C644 C 0.8583 0.47156 0.99423 0.0
H645 H 0.76972 0.46121 0.91544 0.0
H646 H 0.80993 0.46654 0.92647 0.0
H647 H 0.82449 0.45918 0.99897 0.0
H648 H 0.92799 0.50422 0.0315 0.0
H649 H 0.88838 0.49583 0.02098 0.0
H650 H 0.87463 0.50092 0.94893 0.0
C651 C 0.79626 0.46862 0.93886 0.0
C652 C 0.8352 0.46848 0.98799 0.0
C653 C 0.77321 0.46558 0.93252 0.0
C654 C 0.92488 0.49858 0.01473 0.0
C655 C 0.9022 0.49367 1.00875 0.0
C656 C 0.86393 0.49157 0.95989 0.0
C657 C 0.80164 0.47377 0.96098 0.0
C658 C 0.82619 0.47698 0.96766 0.0
C659 C 0.89727 0.48691 0.98699 0.0
C660 C 0.8729 0.48314 0.98024 0.0
H661 H 0.74665 0.47457 0.98267 0.0
H662 H 0.78691 0.48013 0.99373 0.0
H663 H 0.83434 0.49565 0.93809 0.0
H664 H 0.95199 0.4877 0.9651 0.0
H665 H 0.91241 0.47905 0.95472 0.0
C666 C 0.74343 0.58984 0.45029 0.0
C667 C 0.76337 0.57674 0.45756 0.0
C668 C 0.7213 0.58596 0.4585 0.0
C669 C 0.68907 0.54259 0.48682 0.0
H670 H 0.64231 0.5922 0.49514 0.0
C671 C 0.59805 0.53112 0.52451 0.0
C672 C 0.57908 0.5403 0.51172 0.0
C673 C 0.62087 0.53654 0.51984 0.0
C674 C 0.65522 0.57821 0.49285 0.0
H675 H 0.77598 0.54965 0.4794 0.0
H676 H 0.73739 0.54319 0.49427 0.0
H677 H 0.68185 0.59969 0.48361 0.0
H678 H 0.56904 0.56297 0.48459 0.0
H679 H 0.6089 0.57265 0.47669 0.0
H680 H 0.66237 0.52118 0.49631 0.0
C681 C 0.7387 0.5561 0.4818 0.0
C682 C 0.67783 0.58245 0.48614 0.0
C683 C 0.76082 0.55982 0.47336 0.0
C684 C 0.5833 0.55558 0.49469 0.0
C685 C 0.60608 0.56121 0.49023 0.0
C686 C 0.66655 0.53839 0.49379 0.0
C687 C 0.71864 0.56905 0.47438 0.0
C688 C 0.69496 0.56466 0.48275 0.0
C689 C 0.6251 0.55147 0.50254 0.0
C690 C 0.64935 0.55613 0.49661 0.0
H691 H 0.7449 0.60281 0.43789 0.0
H692 H 0.70623 0.59595 0.45204 0.0
H693 H 0.70164 0.52844 0.48403 0.0
H694 H 0.59535 0.51929 0.53774 0.0
H695 H 0.63524 0.52894 0.52967 0.0
C696 C 0.10345 0.30758 0.13391 0.0
C697 C 0.11281 0.29008 0.12024 0.0
C698 C 0.09282 0.32738 0.12465 0.0
C699 C 0.06738 0.35161 0.07168 0.0
H700 H 0.07861 0.40837 0.09933 0.0
C701 C 0.04425 0.43753 0.02838 0.0
C702 C 0.03454 0.45522 0.04162 0.0
C703 C 0.05293 0.41719 0.03805 0.0
C704 C 0.07507 0.39267 0.0915 0.0
H705 H 0.11736 0.27962 0.08593 0.0
H706 H 0.09951 0.31411 0.0699 0.0
H707 H 0.09481 0.37347 0.11614 0.0
H708 H 0.02629 0.46515 0.07552 0.0
H709 H 0.04136 0.42984 0.09227 0.0
H710 H 0.0479 0.37092 0.04686 0.0
C711 C 0.10016 0.31256 0.08781 0.0
C712 C 0.08433 0.37258 0.1012 0.0
C713 C 0.11073 0.2928 0.09705 0.0
C714 C 0.03367 0.45196 0.06476 0.0
C715 C 0.04246 0.43171 0.07442 0.0
C716 C 0.05821 0.37172 0.06192 0.0
C717 C 0.0912 0.33026 0.10144 0.0
C718 C 0.08069 0.35172 0.09142 0.0
C719 C 0.05228 0.41404 0.06123 0.0
C720 C 0.06195 0.39255 0.07167 0.0
H721 H 0.10482 0.30622 0.15181 0.0
H722 H 0.08585 0.34044 0.13574 0.0
H723 H 0.0638 0.33595 0.06381 0.0
H724 H 0.04525 0.43942 1.01052 0.0
H725 H 0.06056 0.40406 0.02738 0.0
C726 C 0.5795 0.30622 0.98904 0.0
C727 C 0.60288 0.30836 0.98276 0.0
C728 C 0.56989 0.28541 0.98796 0.0
C729 C 0.57767 0.231 0.95946 0.0
H730 H 0.54001 0.2096 1.00736 0.0
C731 C 0.55712 0.13868 0.96851 0.0
C732 C 0.53547 0.13373 0.97752 0.0
C733 C 0.56315 0.16083 0.96697 0.0
C734 C 0.55012 0.2155 0.99364 0.0
H735 H 0.63456 0.29033 0.9706 0.0
H736 H 0.6179 0.25399 0.96905 0.0
H737 H 0.55525 0.24655 1.01001 0.0
H738 H 0.50268 0.14823 0.99102 0.0
H739 H 0.51298 0.18701 0.98784 0.0
H740 H 0.57272 0.19992 0.94314 0.0
C741 C 0.60695 0.26843 0.97463 0.0
C742 C 0.55892 0.23663 0.99522 0.0
C743 C 0.61658 0.28918 0.97582 0.0
C744 C 0.51945 0.1515 0.98389 0.0
C745 C 0.52547 0.17369 0.98233 0.0
C746 C 0.5688 0.20992 0.95784 0.0
C747 C 0.58343 0.26638 0.98041 0.0
C748 C 0.57307 0.24445 0.9783 0.0
C749 C 0.54762 0.17856 0.97435 0.0
C750 C 0.5552 0.20178 0.97505 0.0
H751 H 0.56856 0.32069 0.99455 0.0
H752 H 0.55169 0.28433 0.99246 0.0
H753 H 0.58815 0.23678 0.94595 0.0
H754 H 0.56972 0.12536 0.9632 0.0
H755 H 0.58041 0.16394 0.96087 0.0
C756 C 0.94867 0.73385 0.47348 0.0
C757 C 0.92483 0.7327 0.46821 0.0
C758 C 0.95906 0.75427 0.47225 0.0
C759 C 0.95178 0.80993 0.4458 0.0
H760 H 0.99015 0.82896 0.49447 0.0
C761 C 0.9704 0.90187 0.46017 0.0
C762 C 0.99192 0.90681 0.4696 0.0
C763 C 0.96509 0.87967 0.45712 0.0
C764 C 0.97989 0.82373 0.48051 0.0
H765 H 0.89324 0.75196 0.45736 0.0
H766 H 0.91127 0.7876 0.45547 0.0
H767 H 0.97514 0.79184 0.49542 0.0
H768 H 0.02524 0.89234 0.48221 0.0
H769 H 0.01617 0.8535 0.47641 0.0
H770 H 0.95624 0.84189 0.43101 0.0
C771 C 0.92197 0.77272 0.46042 0.0
C772 C 0.97123 0.80249 0.48112 0.0
C773 C 0.91157 0.75237 0.4618 0.0
C774 C 1.00855 0.88908 0.47481 0.0
C775 C 1.00324 0.86683 0.47173 0.0
C776 C 0.96053 0.83111 0.44514 0.0
C777 C 0.94583 0.77386 0.46551 0.0
C778 C 0.95669 0.79557 0.46399 0.0
C779 C 0.98123 0.86189 0.46337 0.0
C780 C 0.97429 0.83844 0.46271 0.0
H781 H 0.95929 0.71895 0.47855 0.0
H782 H 0.97751 0.75467 0.47621 0.0
H783 H 0.94097 0.80485 0.43216 0.0
H784 H 0.95735 0.91519 0.45572 0.0
H785 H 0.9479 0.8765 0.4508 0.0
C786 C 0.4158 0.74 0.6181 0.0
C787 C 0.4209 0.74291 0.64077 0.0
C788 C 0.42382 0.72037 0.60689 0.0
C789 C 0.46806 0.67138 0.61097 0.0
H790 H 0.42887 0.6455 0.56661 0.0
C791 C 0.49056 0.58294 0.57413 0.0
C792 C 0.48691 0.57989 0.55123 0.0
C793 C 0.48264 0.60297 0.58462 0.0
C794 C 0.44017 0.65262 0.57878 0.0
H795 H 0.4388 0.72718 0.66922 0.0
H796 H 0.45207 0.69287 0.64996 0.0
H797 H 0.41476 0.67984 0.58567 0.0
H798 H 0.47198 0.59574 0.52148 0.0
H799 H 0.45819 0.63069 0.53979 0.0
H800 H 0.49336 0.64404 0.60422 0.0
C801 C 0.44215 0.7059 0.64069 0.0
C802 C 0.43207 0.67239 0.58973 0.0
C803 C 0.4342 0.72554 0.65187 0.0
C804 C 0.47508 0.59745 0.53913 0.0
C805 C 0.46704 0.61747 0.54967 0.0
C806 C 0.4761 0.65159 0.6001 0.0
C807 C 0.43715 0.70301 0.618 0.0
C808 C 0.44586 0.68205 0.60605 0.0
C809 C 0.47074 0.62053 0.57257 0.0
C810 C 0.46225 0.64187 0.58389 0.0
H811 H 0.40541 0.75283 0.60898 0.0
H812 H 0.41978 0.71895 0.58938 0.0
H813 H 0.47944 0.67847 0.62308 0.0
H814 H 0.49955 0.5698 0.58402 0.0
H815 H 0.48556 0.60457 0.60232 0.0
C816 C 0.93851 0.9186 0.73021 0.0
C817 C 0.91524 0.91285 0.73289 0.0
C818 C 0.94539 0.92969 0.71105 0.0
C819 C 0.92794 0.94098 0.65222 0.0
H820 H 0.9748 0.98455 0.65571 0.0
C821 C 0.97427 0.97252 0.5738 0.0
C822 C 0.98019 0.99495 0.57306 0.0
C823 C 0.96527 0.96349 0.59322 0.0
C824 C 0.96151 0.97261 0.65437 0.0
H825 H 0.88094 0.91466 0.71727 0.0
H826 H 0.89278 0.93442 0.68412 0.0
H827 H 0.96079 0.96787 0.68963 0.0
H828 H 0.98083 0.02555 0.59228 0.0
H829 H 0.96479 1.00995 0.62599 0.0
H830 H 0.92836 0.94603 0.617 0.0
C831 C 0.90585 0.93004 0.69675 0.0
C832 C 0.95367 0.96278 0.67389 0.0
C833 C 0.89896 0.91892 0.71595 0.0
C834 C 0.97656 1.00819 0.59222 0.0
C835 C 0.96749 0.99917 0.61165 0.0
C836 C 0.93576 0.95084 0.6327 0.0
C837 C 0.92922 0.93547 0.69393 0.0
C838 C 0.93689 0.94667 0.67312 0.0
C839 C 0.96183 0.97662 0.6125 0.0
C840 C 0.95281 0.9667 0.63344 0.0
H841 H 0.95153 0.91453 0.74296 0.0
H842 H 0.96358 0.93332 0.70949 0.0
H843 H 0.9152 0.92852 0.65084 0.0
H844 H 0.97689 0.96175 0.55943 0.0
H845 H 0.9615 0.946 0.59321 0.0
C846 C 0.60872 0.13899 0.21201 0.0
C847 C 0.60873 0.12913 0.23326 0.0
C848 C 0.60211 0.12716 0.1932 0.0
C849 C 0.5687 0.07904 0.17574 0.0
H850 H 0.60068 0.08644 0.11984 0.0
C851 C 0.54572 0.02992 0.09591 0.0
C852 C 0.54474 0.04213 0.07589 0.0
C853 C 0.55469 0.03913 0.11536 0.0
C854 C 0.59138 0.08431 0.13525 0.0
H855 H 0.60174 0.09884 0.25116 0.0
H856 H 0.59055 0.07809 0.21832 0.0
H857 H 0.61407 0.10498 0.15306 0.0
H858 H 0.55279 0.07361 0.06072 0.0
H859 H 0.5682 0.08956 0.09437 0.0
H860 H 0.54589 0.05851 0.15783 0.0
C861 C 0.59546 0.09512 0.21624 0.0
C862 C 0.59908 0.09498 0.15437 0.0
C863 C 0.60216 0.10696 0.23509 0.0
C864 C 0.55329 0.06362 0.07577 0.0
C865 C 0.5623 0.07277 0.09512 0.0
C866 C 0.56099 0.06835 0.1566 0.0
C867 C 0.59527 0.10508 0.19502 0.0
C868 C 0.58771 0.09273 0.17486 0.0
C869 C 0.56304 0.06074 0.11525 0.0
C870 C 0.57206 0.07103 0.136 0.0
H871 H 0.61392 0.15591 0.20985 0.0
H872 H 0.60196 0.13554 0.17724 0.0
H873 H 0.55929 0.07709 0.19112 0.0
H874 H 0.53928 1.01334 0.09665 0.0
H875 H 0.55519 0.02925 0.13046 0.0
C876 C 0.4569 0.58918 0.23204 0.0
C877 C 0.43955 0.60643 0.22745 0.0
C878 C 0.46247 0.58328 0.25399 0.0
C879 C 0.46135 0.60504 0.31057 0.0
H880 H 0.4622 0.54263 0.3284 0.0
C881 C 0.46894 0.578 0.40251 0.0
C882 C 0.4817 0.55765 0.40741 0.0
C883 C 0.46418 0.58417 0.38047 0.0
C884 C 0.46244 0.56009 0.32366 0.0
H885 H 0.41477 0.63134 0.242 0.0
H886 H 0.42473 0.62118 0.28042 0.0
H887 H 0.45378 0.55298 0.28988 0.0
H888 H 0.50019 0.52812 0.39332 0.0
H889 H 0.49262 0.53914 0.35486 0.0
H890 H 0.4705 0.61222 0.34412 0.0
C891 C 0.43388 0.61218 0.26706 0.0
C892 C 0.45751 0.56599 0.30161 0.0
C893 C 0.42808 0.61786 0.24514 0.0
C894 C 0.49001 0.54376 0.38994 0.0
C895 C 0.48555 0.55005 0.36792 0.0
C896 C 0.46659 0.59912 0.33257 0.0
C897 C 0.45105 0.59478 0.27167 0.0
C898 C 0.45682 0.58851 0.29491 0.0
C899 C 0.4724 0.57024 0.36289 0.0
C900 C 0.4671 0.57658 0.33942 0.0
H901 H 0.46591 0.58008 0.21866 0.0
H902 H 0.47586 0.56988 0.25716 0.0
H903 H 0.46113 0.62251 0.30571 0.0
H904 H 0.46219 0.58889 0.41574 0.0
H905 H 0.45368 0.59966 0.37726 0.0
C906 C 0.10615 0.49763 0.72915 0.0
C907 C 0.10973 0.47616 0.71982 0.0
C908 C 0.098 0.50023 0.75094 0.0
C909 C 0.06893 0.46971 0.79581 0.0
H910 H 0.09337 0.51518 0.83347 0.0
C911 C 0.05522 0.47402 0.89111 0.0
C912 C 0.0485 0.49536 0.89978 0.0
C913 C 0.06195 0.4716 0.86888 0.0
C914 C 0.08628 0.50252 0.82307 0.0
H915 H 0.10833 0.44056 0.72604 0.0
H916 H 0.09472 0.44498 0.7641 0.0
H917 H 0.10672 0.51133 0.79516 0.0
H918 H 0.04267 0.53073 0.89155 0.0
H919 H 0.05496 0.52649 0.85305 0.0
H920 H 0.04892 0.46063 0.82403 0.0
C921 C 0.09741 0.4599 0.7545 0.0
C922 C 0.09383 0.50037 0.8011 0.0
C923 C 0.10528 0.45735 0.7327 0.0
C924 C 0.04831 0.51412 0.88562 0.0
C925 C 0.05526 0.51172 0.86353 0.0
C926 C 0.06159 0.47171 0.81787 0.0
C927 C 0.09357 0.48137 0.76389 0.0
C928 C 0.08524 0.48394 0.78718 0.0
C929 C 0.06227 0.49048 0.85498 0.0
C930 C 0.07017 0.48816 0.83167 0.0
H931 H 0.10934 0.5124 0.7195 0.0
H932 H 0.09494 0.51703 0.75753 0.0
H933 H 0.06161 0.45714 0.78548 0.0
H934 H 0.05579 0.45925 0.90159 0.0
H935 H 0.06744 0.45504 0.8627 0.0
C936 C 0.71764 0.92185 0.88456 0.0
C937 C 0.73989 0.91928 0.89469 0.0
C938 C 0.69792 0.93004 0.89656 0.0
C939 C 0.67494 0.93973 0.95378 0.0
H940 H 0.63061 0.98194 0.924 0.0
C941 C 0.5848 0.97032 0.99204 0.0
C942 C 0.5768 0.99291 0.98867 0.0
C943 C 0.60508 0.96116 0.98139 0.0
C944 C 0.64287 0.97031 0.93267 0.0
H945 H 0.75857 0.92316 0.92569 0.0
H946 H 0.72416 0.93743 0.94664 0.0
H947 H 0.66501 0.96631 0.90416 0.0
H948 H 0.58429 0.02364 0.97177 0.0
H949 H 0.6196 1.00777 0.95345 0.0
H950 H 0.6529 0.94409 0.98244 0.0
C951 C 0.72194 0.93288 0.9294 0.0
C952 C 0.66251 0.9611 0.92117 0.0
C953 C 0.74172 0.92466 0.91736 0.0
C954 C 0.58982 1.00616 0.97469 0.0
C955 C 0.61003 0.997 0.96404 0.0
C956 C 0.65522 0.94893 0.9653 0.0
C957 C 0.6998 0.93593 0.91909 0.0
C958 C 0.67884 0.94566 0.93153 0.0
C959 C 0.61786 0.97431 0.96705 0.0
C960 C 0.63893 0.96439 0.95491 0.0
H961 H 0.71541 0.91745 0.86727 0.0
H962 H 0.68111 0.93168 0.88815 0.0
H963 H 0.687 0.92777 0.96227 0.0
H964 H 0.57522 0.9596 1.00266 0.0
H965 H 0.61041 0.94358 0.98398 0.0
C966 C 0.78926 0.12953 0.41342 0.0
C967 C 0.77838 0.1161 0.39784 0.0
C968 C 0.80967 0.12139 0.42467 0.0
C969 C 0.85897 0.07723 0.42111 0.0
H970 H 0.86822 0.09114 0.48326 0.0
C971 C 0.93392 0.03261 0.47264 0.0
C972 C 0.94641 0.04568 0.4873 0.0
C973 C 0.91335 0.04153 0.46229 0.0
C974 C 0.86603 0.08728 0.46584 0.0
H975 H 0.7809 0.08351 0.38181 0.0
H976 H 0.81587 0.0692 0.40175 0.0
H977 H 0.83269 0.10608 0.46417 0.0
H978 H 0.9467 0.07839 0.5028 0.0
H979 H 0.91079 0.09398 0.48468 0.0
H980 H 0.8922 0.05834 0.42278 0.0
C981 C 0.80884 0.08616 0.40513 0.0
C982 C 0.84564 0.09588 0.45485 0.0
C983 C 0.7885 0.09429 0.39388 0.0
C984 C 0.93754 0.06782 0.49163 0.0
C985 C 0.91687 0.07674 0.4813 0.0
C986 C 0.87928 0.0686 0.43209 0.0
C987 C 0.81981 0.0996 0.42063 0.0
C988 C 0.84175 0.09088 0.43234 0.0
C989 C 0.90463 0.06377 0.46632 0.0
C990 C 0.88306 0.07339 0.45463 0.0
H991 H 0.78191 0.14632 0.41711 0.0
H992 H 0.81769 0.13233 0.43631 0.0
H993 H 0.85691 0.07337 0.40367 0.0
H994 H 0.94013 0.01547 0.46895 0.0
H995 H 0.9042 0.03092 0.45115 0.0
C996 C 0.24242 0.57949 0.10025 0.0
C997 C 0.26134 0.57764 0.08539 0.0
C998 C 0.21985 0.57563 0.0931 0.0
C999 C 0.18295 0.57281 0.04282 0.0
H1000 H 0.14378 0.54004 0.08186 0.0
C1001 C 0.09458 0.53962 0.01567 0.0
C1002 C 0.07609 0.5418 0.03103 0.0
C1003 C 0.11707 0.54507 0.02172 0.0
C1004 C 0.15441 0.54944 0.07088 0.0
H1005 H 0.27146 0.57034 0.05136 0.0
H1006 H 0.23196 0.56331 0.03885 0.0
H1007 H 0.18344 0.54693 0.09338 0.0
H1008 H 0.06656 0.552 0.06458 0.0
H1009 H 0.10581 0.56154 0.07508 0.0
H1010 H 0.15384 0.57503 0.0202 0.0
C1011 C 0.23456 0.56807 0.05599 0.0
C1012 C 0.17714 0.5534 0.07747 0.0
C1013 C 0.25717 0.57204 0.06314 0.0
C1014 C 0.08044 0.55004 0.05239 0.0
C1015 C 0.10294 0.55538 0.05845 0.0
C1016 C 0.1602 0.56875 0.03617 0.0
C1017 C 0.21566 0.56975 0.07093 0.0
C1018 C 0.19164 0.56522 0.06359 0.0
C1019 C 0.12154 0.5527 0.04328 0.0
C1020 C 0.14567 0.55712 0.05019 0.0
H1021 H 0.245 0.58423 0.1174 0.0
H1022 H 0.20563 0.57753 0.10494 0.0
H1023 H 0.19356 0.58221 0.03185 0.0
H1024 H 0.09178 0.53335 0.99907 0.0
H1025 H 0.1311 0.54268 1.00973 0.0
C1026 C 0.26437 0.45 0.53829 0.0
C1027 C 0.2612 0.43255 0.55336 0.0
C1028 C 0.28675 0.45699 0.53429 0.0
C1029 C 0.35012 0.43964 0.54184 0.0
H1030 H 0.35714 0.50324 0.53429 0.0
C1031 C 0.43953 0.4788 0.54568 0.0
C1032 C 0.44393 0.49404 0.52867 0.0
C1033 C 0.41728 0.4709 0.54806 0.0
C1034 C 0.3554 0.48542 0.5362 0.0
H1035 H 0.27882 0.40888 0.57626 0.0
H1036 H 0.31779 0.42139 0.56976 0.0
H1037 H 0.31819 0.49011 0.53953 0.0
H1038 H 0.42845 0.51303 0.50087 0.0
H1039 H 0.38951 0.49942 0.50526 0.0
H1040 H 0.38751 0.43515 0.53909 0.0
C1041 C 0.30316 0.4293 0.56051 0.0
C1042 C 0.33308 0.47785 0.5391 0.0
C1043 C 0.28083 0.42216 0.5643 0.0
C1044 C 0.42561 0.50129 0.51414 0.0
C1045 C 0.40331 0.4936 0.5167 0.0
C1046 C 0.37246 0.44725 0.5392 0.0
C1047 C 0.30642 0.44687 0.54551 0.0
C1048 C 0.33015 0.45486 0.54197 0.0
C1049 C 0.39895 0.4783 0.53364 0.0
C1050 C 0.37529 0.4702 0.53635 0.0
H1051 H 0.24953 0.45814 0.52949 0.0
H1052 H 0.28864 0.47028 0.52233 0.0
H1053 H 0.34852 0.42178 0.5436 0.0
H1054 H 0.45331 0.47287 0.5571 0.0
H1055 H 0.41432 0.45924 0.56137 0.0
C1056 C 0.92069 0.73119 0.89488 0.0
C1057 C 0.90854 0.74787 0.90776 0.0
C1058 C 0.93029 0.71125 0.90468 0.0
C1059 C 0.9256 0.6754 0.95486 0.0
H1060 H 0.98633 0.64915 0.93622 0.0
C1061 C 0.9728 0.5996 1.00114 0.0
C1062 C 0.98481 0.5829 0.98821 0.0
C1063 C 0.9639 0.61986 0.9915 0.0
C1064 C 0.96923 0.65608 0.94148 0.0
H1065 H 0.89679 0.75624 0.94116 0.0
H1066 H 0.91383 0.72185 0.9582 0.0
H1067 H 0.97006 0.68384 0.91899 0.0
H1068 H 0.99692 0.57464 0.9549 0.0
H1069 H 0.98125 0.60971 0.93813 0.0
H1070 H 0.9247 0.64762 0.97729 0.0
C1071 C 0.91581 0.72407 0.94047 0.0
C1072 C 0.95987 0.67603 0.93156 0.0
C1073 C 0.90628 0.74399 0.93071 0.0
C1074 C 0.98784 0.5871 0.96543 0.0
C1075 C 0.97894 0.60734 0.9558 0.0
C1076 C 0.93494 0.65544 0.96476 0.0
C1077 C 0.92793 0.70736 0.92762 0.0
C1078 C 0.93792 0.686 0.93811 0.0
C1079 C 0.96676 0.62401 0.96866 0.0
C1080 C 0.9569 0.64547 0.95823 0.0
H1081 H 0.92297 0.7336 0.87722 0.0
H1082 H 0.93929 0.69872 0.89418 0.0
H1083 H 0.90849 0.68231 0.96011 0.0
H1084 H 0.97018 0.597 0.01874 0.0
H1085 H 0.95493 0.63238 1.00204 0.0
C1086 C 0.45431 0.72977 0.0596 0.0
C1087 C 0.43216 0.72662 0.0503 0.0
C1088 C 0.46424 0.75032 0.05754 0.0
C1089 C 0.46322 0.80215 0.02522 0.0
H1090 H 0.47835 0.8306 0.0808 0.0
C1091 C 0.47307 0.89662 0.03032 0.0
C1092 C 0.48931 0.90492 0.04525 0.0
C1093 C 0.46868 0.87401 0.03035 0.0
C1094 C 0.47471 0.82279 0.06507 0.0
H1095 H 0.40364 0.74254 0.03068 0.0
H1096 H 0.42146 0.77809 0.02643 0.0
H1097 H 0.46683 0.79212 0.08091 0.0
H1098 H 0.51386 0.89564 0.07182 0.0
H1099 H 0.50684 0.85587 0.07129 0.0
H1100 H 0.47125 0.83256 1.00925 0.0
C1101 C 0.43096 0.7646 0.03546 0.0
C1102 C 0.46803 0.80076 0.06518 0.0
C1103 C 0.42083 0.74417 0.03782 0.0
C1104 C 0.50132 0.88985 0.06002 0.0
C1105 C 0.4971 0.86707 0.05988 0.0
C1106 C 0.47024 0.82403 0.02506 0.0
C1107 C 0.45247 0.76802 0.04575 0.0
C1108 C 0.46179 0.79043 0.0453 0.0
C1109 C 0.48069 0.85888 0.04503 0.0
C1110 C 0.47554 0.83483 0.04504 0.0
H1111 H 0.46382 0.71648 0.06888 0.0
H1112 H 0.481 0.7525 0.06538 0.0
H1113 H 0.45874 0.79442 1.00966 0.0
H1114 H 0.46385 0.90754 0.01832 0.0
H1115 H 0.45561 0.86849 0.01894 0.0
C1116 C 0.05251 0.30631 0.59202 0.0
C1117 C 0.07578 0.31003 0.59759 0.0
C1118 C 0.04619 0.28465 0.58738 0.0
C1119 C 0.07206 0.2289 0.57043 0.0
H1120 H 0.01275 0.20843 0.59014 0.0
C1121 C 0.04051 0.14543 0.54037 0.0
C1122 C 0.0303 0.13179 0.55607 0.0
C1123 C 0.04474 0.16749 0.5455 0.0
C1124 C 0.02945 0.21385 0.58467 0.0
H1125 H 0.11047 0.29397 0.60346 0.0
H1126 H 0.09945 0.25622 0.59563 0.0
H1127 H 0.02305 0.24619 0.59964 0.0
H1128 H 0.01601 0.13061 0.58929 0.0
H1129 H 0.0238 0.16924 0.59852 0.0
H1130 H 0.07884 0.19648 0.55603 0.0
C1131 C 0.08618 0.27004 0.59427 0.0
C1132 C 0.03523 0.23557 0.58988 0.0
C1133 C 0.09251 0.29166 0.59877 0.0
C1134 C 0.02384 0.14082 0.57687 0.0
C1135 C 0.02824 0.16293 0.5821 0.0
C1136 C 0.06634 0.20723 0.56532 0.0
C1137 C 0.063 0.26628 0.58835 0.0
C1138 C 0.05662 0.24331 0.58283 0.0
C1139 C 0.03901 0.1764 0.56654 0.0
C1140 C 0.04495 0.19946 0.57229 0.0
H1141 H 0.0393 0.32021 0.59086 0.0
H1142 H 0.02825 0.28236 0.58261 0.0
H1143 H 0.08854 0.23441 0.56448 0.0
H1144 H 0.04519 0.13903 0.52402 0.0
H1145 H 0.05252 0.17757 0.53295 0.0
C1146 C 0.61098 0.29463 0.43271 0.0
C1147 C 0.61249 0.2919 0.40952 0.0
C1148 C 0.60046 0.31431 0.44199 0.0
C1149 C 0.58427 0.37422 0.429 0.0
H1150 H 0.54803 0.37177 0.48314 0.0
C1151 C 0.53551 0.45354 0.4675 0.0
C1152 C 0.53618 0.45572 0.49077 0.0
C1153 C 0.54391 0.43354 0.45718 0.0
C1154 C 0.5583 0.37281 0.46815 0.0
H1155 H 0.60363 0.30789 0.37796 0.0
H1156 H 0.58487 0.34212 0.39415 0.0
H1157 H 0.56364 0.33706 0.46575 0.0
H1158 H 0.54623 0.43836 0.52137 0.0
H1159 H 0.56096 0.40361 0.50341 0.0
H1160 H 0.57897 0.41 0.43146 0.0
C1161 C 0.59217 0.32907 0.40518 0.0
C1162 C 0.56727 0.35285 0.45813 0.0
C1163 C 0.60269 0.30931 0.39587 0.0
C1164 C 0.54537 0.43731 0.50343 0.0
C1165 C 0.55371 0.41729 0.49311 0.0
C1166 C 0.57526 0.3942 0.439 0.0
C1167 C 0.59104 0.33192 0.42839 0.0
C1168 C 0.58055 0.35324 0.4385 0.0
C1169 C 0.55315 0.41511 0.46982 0.0
C1170 C 0.56228 0.39379 0.45881 0.0
H1171 H 0.61801 0.28151 0.44379 0.0
H1172 H 0.60019 0.31589 0.4599 0.0
H1173 H 0.59469 0.37527 0.4141 0.0
H1174 H 0.52851 0.46733 0.45719 0.0
H1175 H 0.5429 0.43245 0.43925 0.0
loop_
_geom_bond_atom_site_label_1
_geom_bond_atom_site_label_2
_geom_bond_distance
_geom_bond_site_symmetry_2
_ccdc_geom_bond_type
C0 C1 1.264 . S
C0 C5 1.479 . S
C0 C10 1.465 . S
C1 C0 1.264 . S
C1 C3 1.339 . S
C1 H28 0.931 . S
C2 C3 1.395 . S
C2 C4 1.320 . S
C3 C1 1.339 . S
C3 C2 1.395 . S
C3 H29 0.929 . S
C4 C2 1.320 . S
C4 C5 1.405 . S
C4 H30 0.930 . S
C5 C0 1.479 . S
C5 C4 1.405 . S
C5 H31 0.931 . S
U6 O7 2.454 . S
U6 O8 2.458 . S
U6 C9 2.984 . S
U6 C10 2.847 . S
U6 C23 2.882 . S
U6 O24 2.441 . S
U6 O25 2.420 . S
U6 O26 2.455 . S
U6 O27 2.449 . S
O7 U6 2.454 . S
O7 C9 1.353 . S
O8 U6 2.458 . S
O8 C9 1.286 . S
C9 U6 2.984 . S
C9 O7 1.353 . S
C9 O8 1.286 . S
C9 C11 1.363 . S
C10 C0 1.465 . S
C10 U6 2.847 . S
C10 O24 1.249 . S
C10 O25 1.202 . S
C11 C9 1.363 . S
C11 C13 1.408 . S
C11 C16 1.342 . S
C12 C13 1.310 . S
C12 C15 1.461 . S
C12 H32 0.932 . S
C13 C11 1.408 . S
C13 C12 1.310 . S
C13 H33 0.930 . S
C14 C15 1.474 . S
C14 C16 1.285 . S
C14 H34 0.929 . S
C15 C12 1.461 . S
C15 C14 1.474 . S
C16 C11 1.342 . S
C16 C14 1.285 . S
C16 H35 0.930 . S
C17 C20 1.424 . S
C17 C22 1.245 . S
C17 C23 1.428 . S
C18 C21 1.260 . S
C18 C22 1.477 . S
C18 H36 0.932 . S
C19 C20 1.384 . S
C19 C21 1.479 . S
C19 H37 0.929 . S
C20 C17 1.424 . S
C20 C19 1.384 . S
C20 H38 0.928 . S
C21 C18 1.260 . S
C21 C19 1.479 . S
C22 C17 1.245 . S
C22 C18 1.477 . S
C22 H39 0.932 . S
C23 U6 2.882 . S
C23 C17 1.428 . S
C23 O26 1.301 . S
C23 O27 1.282 . S
O24 U6 2.441 . S
O24 C10 1.249 . S
O25 U6 2.420 . S
O25 C10 1.202 . S
O26 U6 2.455 . S
O26 C23 1.301 . S
O27 U6 2.449 . S
O27 C23 1.282 . S
H28 C1 0.931 . S
H29 C3 0.929 . S
H30 C4 0.930 . S
H31 C5 0.931 . S
H32 C12 0.932 . S
H33 C13 0.930 . S
H34 C14 0.929 . S
H35 C16 0.930 . S
H36 C18 0.932 . S
H37 C19 0.929 . S
H38 C20 0.928 . S
H39 C22 0.932 . S
C40 C41 1.264 . S
C40 C45 1.479 . S
C40 C50 1.465 . S
C41 C40 1.264 . S
C41 C43 1.339 . S
C41 H68 0.931 . S
C42 C43 1.395 . S
C42 C44 1.320 . S
C43 C41 1.339 . S
C43 C42 1.395 . S
C43 H69 0.929 . S
C44 C42 1.320 . S
C44 C45 1.405 . S
C44 H70 0.930 . S
C45 C40 1.479 . S
C45 C44 1.405 . S
C45 H71 0.931 . S
U46 O47 2.454 . S
U46 O48 2.458 . S
U46 C49 2.984 . S
U46 C50 2.847 . S
U46 C63 2.882 . S
U46 O64 2.441 . S
U46 O65 2.420 . S
U46 O66 2.455 . S
U46 O67 2.449 . S
O47 U46 2.454 . S
O47 C49 1.353 . S
O48 U46 2.458 . S
O48 C49 1.286 . S
C49 U46 2.984 . S
C49 O47 1.353 . S
C49 O48 1.286 . S
C49 C51 1.363 . S
C50 C40 1.465 . S
C50 U46 2.847 . S
C50 O64 1.249 . S
C50 O65 1.202 . S
C51 C49 1.363 . S
C51 C53 1.408 . S
C51 C56 1.342 . S
C52 C53 1.310 . S
C52 C55 1.461 . S
C52 H72 0.932 . S
C53 C51 1.408 . S
C53 C52 1.310 . S
C53 H73 0.930 . S
C54 C55 1.474 . S
C54 C56 1.285 . S
C54 H74 0.929 . S
C55 C52 1.461 . S
C55 C54 1.474 . S
C56 C51 1.342 . S
C56 C54 1.285 . S
C56 H75 0.930 . S
C57 C60 1.424 . S
C57 C62 1.245 . S
C57 C63 1.428 . S
C58 C61 1.260 . S
C58 C62 1.477 . S
C58 H76 0.932 . S
C59 C60 1.384 . S
C59 C61 1.479 . S
C59 H77 0.929 . S
C60 C57 1.424 . S
C60 C59 1.384 . S
C60 H78 0.928 . S
C61 C58 1.260 . S
C61 C59 1.479 . S
C62 C57 1.245 . S
C62 C58 1.477 . S
C62 H79 0.932 . S
C63 U46 2.882 . S
C63 C57 1.428 . S
C63 O66 1.301 . S
C63 O67 1.282 . S
O64 U46 2.441 . S
O64 C50 1.249 . S
O65 U46 2.420 . S
O65 C50 1.202 . S
O66 U46 2.455 . S
O66 C63 1.301 . S
O67 U46 2.449 . S
O67 C63 1.282 . S
H68 C41 0.931 . S
H69 C43 0.929 . S
H70 C44 0.930 . S
H71 C45 0.931 . S
H72 C52 0.932 . S
H73 C53 0.930 . S
H74 C54 0.929 . S
H75 C56 0.930 . S
H76 C58 0.932 . S
H77 C59 0.929 . S
H78 C60 0.928 . S
H79 C62 0.932 . S
C80 C81 1.264 . S
C80 C85 1.479 . S
C80 C90 1.465 . S
C81 C80 1.264 . S
C81 C83 1.339 . S
C81 H108 0.931 . S
C82 C83 1.395 . S
C82 C84 1.320 . S
C83 C81 1.339 . S
C83 C82 1.395 . S
C83 H109 0.929 . S
C84 C82 1.320 . S
C84 C85 1.405 . S
C84 H110 0.930 . S
C85 C80 1.479 . S
C85 C84 1.405 . S
C85 H111 0.931 . S
U86 O87 2.454 . S
U86 O88 2.458 . S
U86 C89 2.984 . S
U86 C90 2.847 . S
U86 C103 2.882 . S
U86 O104 2.441 . S
U86 O105 2.420 . S
U86 O106 2.455 . S
U86 O107 2.449 . S
O87 U86 2.454 . S
O87 C89 1.353 . S
O88 U86 2.458 . S
O88 C89 1.286 . S
C89 U86 2.984 . S
C89 O87 1.353 . S
C89 O88 1.286 . S
C89 C91 1.363 . S
C90 C80 1.465 . S
C90 U86 2.847 . S
C90 O104 1.249 . S
C90 O105 1.202 . S
C91 C89 1.363 . S
C91 C93 1.408 . S
C91 C96 1.342 . S
C92 C93 1.310 . S
C92 C95 1.461 . S
C92 H112 0.932 . S
C93 C91 1.408 . S
C93 C92 1.310 . S
C93 H113 0.930 . S
C94 C95 1.474 . S
C94 C96 1.285 . S
C94 H114 0.929 . S
C95 C92 1.461 . S
C95 C94 1.474 . S
C96 C91 1.342 . S
C96 C94 1.285 . S
C96 H115 0.930 . S
C97 C100 1.424 . S
C97 C102 1.245 . S
C97 C103 1.428 . S
C98 C101 1.260 . S
C98 C102 1.477 . S
C98 H116 0.932 . S
C99 C100 1.384 . S
C99 C101 1.479 . S
C99 H117 0.929 . S
C100 C97 1.424 . S
C100 C99 1.384 . S
C100 H118 0.928 . S
C101 C98 1.260 . S
C101 C99 1.479 . S
C102 C97 1.245 . S
C102 C98 1.477 . S
C102 H119 0.932 . S
C103 U86 2.882 . S
C103 C97 1.428 . S
C103 O106 1.301 . S
C103 O107 1.282 . S
O104 U86 2.441 . S
O104 C90 1.249 . S
O105 U86 2.420 . S
O105 C90 1.202 . S
O106 U86 2.455 . S
O106 C103 1.301 . S
O107 U86 2.449 . S
O107 C103 1.282 . S
H108 C81 0.931 . S
H109 C83 0.929 . S
H110 C84 0.930 . S
H111 C85 0.931 . S
H112 C92 0.932 . S
H113 C93 0.930 . S
H114 C94 0.929 . S
H115 C96 0.930 . S
H116 C98 0.932 . S
H117 C99 0.929 . S
H118 C100 0.928 . S
H119 C102 0.932 . S
C120 C121 1.264 . S
C120 C125 1.479 . S
C120 C130 1.465 . S
C121 C120 1.264 . S
C121 C123 1.339 . S
C121 H148 0.931 . S
C122 C123 1.395 . S
C122 C124 1.320 . S
C123 C121 1.339 . S
C123 C122 1.395 . S
C123 H149 0.929 . S
C124 C122 1.320 . S
C124 C125 1.405 . S
C124 H150 0.930 . S
C125 C120 1.479 . S
C125 C124 1.405 . S
C125 H151 0.931 . S
U126 O127 2.454 . S
U126 O128 2.458 . S
U126 C129 2.984 . S
U126 C130 2.847 . S
U126 C143 2.882 . S
U126 O144 2.441 . S
U126 O145 2.420 . S
U126 O146 2.455 . S
U126 O147 2.449 . S
O127 U126 2.454 . S
O127 C129 1.353 . S
O128 U126 2.458 . S
O128 C129 1.286 . S
C129 U126 2.984 . S
C129 O127 1.353 . S
C129 O128 1.286 . S
C129 C131 1.363 . S
C130 C120 1.465 . S
C130 U126 2.847 . S
C130 O144 1.249 . S
C130 O145 1.202 . S
C131 C129 1.363 . S
C131 C133 1.408 . S
C131 C136 1.342 . S
C132 C133 1.310 . S
C132 C135 1.461 . S
C132 H152 0.932 . S
C133 C131 1.408 . S
C133 C132 1.310 . S
C133 H153 0.930 . S
C134 C135 1.474 . S
C134 C136 1.285 . S
C134 H154 0.929 . S
C135 C132 1.461 . S
C135 C134 1.474 . S
C136 C131 1.342 . S
C136 C134 1.285 . S
C136 H155 0.930 . S
C137 C140 1.424 . S
C137 C142 1.245 . S
C137 C143 1.428 . S
C138 C141 1.260 . S
C138 C142 1.477 . S
C138 H156 0.932 . S
C139 C140 1.384 . S
C139 C141 1.479 . S
C139 H157 0.929 . S
C140 C137 1.424 . S
C140 C139 1.384 . S
C140 H158 0.928 . S
C141 C138 1.260 . S
C141 C139 1.479 . S
C142 C137 1.245 . S
C142 C138 1.477 . S
C142 H159 0.932 . S
C143 U126 2.882 . S
C143 C137 1.428 . S
C143 O146 1.301 . S
C143 O147 1.282 . S
O144 U126 2.441 . S
O144 C130 1.249 . S
O145 U126 2.420 . S
O145 C130 1.202 . S
O146 U126 2.455 . S
O146 C143 1.301 . S
O147 U126 2.449 . S
O147 C143 1.282 . S
H148 C121 0.931 . S
H149 C123 0.929 . S
H150 C124 0.930 . S
H151 C125 0.931 . S
H152 C132 0.932 . S
H153 C133 0.930 . S
H154 C134 0.929 . S
H155 C136 0.930 . S
H156 C138 0.932 . S
H157 C139 0.929 . S
H158 C140 0.928 . S
H159 C142 0.932 . S
C160 C161 1.264 . S
C160 C165 1.479 . S
C160 C170 1.465 . S
C161 C160 1.264 . S
C161 C163 1.339 . S
C161 H188 0.931 . S
C162 C163 1.395 . S
C162 C164 1.320 . S
C163 C161 1.339 . S
C163 C162 1.395 . S
C163 H189 0.929 . S
C164 C162 1.320 . S
C164 C165 1.405 . S
C164 H190 0.930 . S
C165 C160 1.479 . S
C165 C164 1.405 . S
C165 H191 0.931 . S
U166 O167 2.454 . S
U166 O168 2.458 . S
U166 C169 2.984 . S
U166 C170 2.847 . S
U166 C183 2.882 . S
U166 O184 2.441 . S
U166 O185 2.420 . S
U166 O186 2.455 . S
U166 O187 2.449 . S
O167 U166 2.454 . S
O167 C169 1.353 . S
O168 U166 2.458 . S
O168 C169 1.286 . S
C169 U166 2.984 . S
C169 O167 1.353 . S
C169 O168 1.286 . S
C169 C171 1.363 . S
C170 C160 1.465 . S
C170 U166 2.847 . S
C170 O184 1.249 . S
C170 O185 1.202 . S
C171 C169 1.363 . S
C171 C173 1.408 . S
C171 C176 1.342 . S
C172 C173 1.310 . S
C172 C175 1.461 . S
C172 H192 0.932 . S
C173 C171 1.408 . S
C173 C172 1.310 . S
C173 H193 0.930 . S
C174 C175 1.474 . S
C174 C176 1.285 . S
C174 H194 0.929 . S
C175 C172 1.461 . S
C175 C174 1.474 . S
C176 C171 1.342 . S
C176 C174 1.285 . S
C176 H195 0.930 . S
C177 C180 1.424 . S
C177 C182 1.245 . S
C177 C183 1.428 . S
C178 C181 1.260 . S
C178 C182 1.477 . S
C178 H196 0.932 . S
C179 C180 1.384 . S
C179 C181 1.479 . S
C179 H197 0.929 . S
C180 C177 1.424 . S
C180 C179 1.384 . S
C180 H198 0.928 . S
C181 C178 1.260 . S
C181 C179 1.479 . S
C182 C177 1.245 . S
C182 C178 1.477 . S
C182 H199 0.932 . S
C183 U166 2.882 . S
C183 C177 1.428 . S
C183 O186 1.301 . S
C183 O187 1.282 . S
O184 U166 2.441 . S
O184 C170 1.249 . S
O185 U166 2.420 . S
O185 C170 1.202 . S
O186 U166 2.455 . S
O186 C183 1.301 . S
O187 U166 2.449 . S
O187 C183 1.282 . S
H188 C161 0.931 . S
H189 C163 0.929 . S
H190 C164 0.930 . S
H191 C165 0.931 . S
H192 C172 0.932 . S
H193 C173 0.930 . S
H194 C174 0.929 . S
H195 C176 0.930 . S
H196 C178 0.932 . S
H197 C179 0.929 . S
H198 C180 0.928 . S
H199 C182 0.932 . S
C200 C201 1.264 . S
C200 C205 1.479 . S
C200 C210 1.465 . S
C201 C200 1.264 . S
C201 C203 1.339 . S
C201 H228 0.931 . S
C202 C203 1.395 . S
C202 C204 1.320 . S
C203 C201 1.339 . S
C203 C202 1.395 . S
C203 H229 0.929 . S
C204 C202 1.320 . S
C204 C205 1.405 . S
C204 H230 0.930 . S
C205 C200 1.479 . S
C205 C204 1.405 . S
C205 H231 0.931 . S
U206 O207 2.454 . S
U206 O208 2.458 . S
U206 C209 2.984 . S
U206 C210 2.847 . S
U206 C223 2.882 . S
U206 O224 2.441 . S
U206 O225 2.420 . S
U206 O226 2.455 . S
U206 O227 2.449 . S
O207 U206 2.454 . S
O207 C209 1.353 . S
O208 U206 2.458 . S
O208 C209 1.286 . S
C209 U206 2.984 . S
C209 O207 1.353 . S
C209 O208 1.286 . S
C209 C211 1.363 . S
C210 C200 1.465 . S
C210 U206 2.847 . S
C210 O224 1.249 . S
C210 O225 1.202 . S
C211 C209 1.363 . S
C211 C213 1.408 . S
C211 C216 1.342 . S
C212 C213 1.310 . S
C212 C215 1.461 . S
C212 H232 0.932 . S
C213 C211 1.408 . S
C213 C212 1.310 . S
C213 H233 0.930 . S
C214 C215 1.474 . S
C214 C216 1.285 . S
C214 H234 0.929 . S
C215 C212 1.461 . S
C215 C214 1.474 . S
C216 C211 1.342 . S
C216 C214 1.285 . S
C216 H235 0.930 . S
C217 C220 1.424 . S
C217 C222 1.245 . S
C217 C223 1.428 . S
C218 C221 1.260 . S
C218 C222 1.477 . S
C218 H236 0.932 . S
C219 C220 1.384 . S
C219 C221 1.479 . S
C219 H237 0.929 . S
C220 C217 1.424 . S
C220 C219 1.384 . S
C220 H238 0.928 . S
C221 C218 1.260 . S
C221 C219 1.479 . S
C222 C217 1.245 . S
C222 C218 1.477 . S
C222 H239 0.932 . S
C223 U206 2.882 . S
C223 C217 1.428 . S
C223 O226 1.301 . S
C223 O227 1.282 . S
O224 U206 2.441 . S
O224 C210 1.249 . S
O225 U206 2.420 . S
O225 C210 1.202 . S
O226 U206 2.455 . S
O226 C223 1.301 . S
O227 U206 2.449 . S
O227 C223 1.282 . S
H228 C201 0.931 . S
H229 C203 0.929 . S
H230 C204 0.930 . S
H231 C205 0.931 . S
H232 C212 0.932 . S
H233 C213 0.930 . S
H234 C214 0.929 . S
H235 C216 0.930 . S
H236 C218 0.932 . S
H237 C219 0.929 . S
H238 C220 0.928 . S
H239 C222 0.932 . S
C240 C241 1.264 . S
C240 C245 1.479 . S
C240 C250 1.465 . S
C241 C240 1.264 . S
C241 C243 1.339 . S
C241 H268 0.931 . S
C242 C243 1.395 . S
C242 C244 1.320 . S
C243 C241 1.339 . S
C243 C242 1.395 . S
C243 H269 0.929 . S
C244 C242 1.320 . S
C244 C245 1.405 . S
C244 H270 0.930 . S
C245 C240 1.479 . S
C245 C244 1.405 . S
C245 H271 0.931 . S
U246 O247 2.454 . S
U246 O248 2.458 . S
U246 C249 2.984 . S
U246 C250 2.847 . S
U246 C263 2.882 . S
U246 O264 2.441 . S
U246 O265 2.420 . S
U246 O266 2.455 . S
U246 O267 2.449 . S
O247 U246 2.454 . S
O247 C249 1.353 . S
O248 U246 2.458 . S
O248 C249 1.286 . S
C249 U246 2.984 . S
C249 O247 1.353 . S
C249 O248 1.286 . S
C249 C251 1.363 . S
C250 C240 1.465 . S
C250 U246 2.847 . S
C250 O264 1.249 . S
C250 O265 1.202 . S
C251 C249 1.363 . S
C251 C253 1.408 . S
C251 C256 1.342 . S
C252 C253 1.310 . S
C252 C255 1.461 . S
C252 H272 0.932 . S
C253 C251 1.408 . S
C253 C252 1.310 . S
C253 H273 0.930 . S
C254 C255 1.474 . S
C254 C256 1.285 . S
C254 H274 0.929 . S
C255 C252 1.461 . S
C255 C254 1.474 . S
C256 C251 1.342 . S
C256 C254 1.285 . S
C256 H275 0.930 . S
C257 C260 1.424 . S
C257 C262 1.245 . S
C257 C263 1.428 . S
C258 C261 1.260 . S
C258 C262 1.477 . S
C258 H276 0.932 . S
C259 C260 1.384 . S
C259 C261 1.479 . S
C259 H277 0.929 . S
C260 C257 1.424 . S
C260 C259 1.384 . S
C260 H278 0.928 . S
C261 C258 1.260 . S
C261 C259 1.479 . S
C262 C257 1.245 . S
C262 C258 1.477 . S
C262 H279 0.932 . S
C263 U246 2.882 . S
C263 C257 1.428 . S
C263 O266 1.301 . S
C263 O267 1.282 . S
O264 U246 2.441 . S
O264 C250 1.249 . S
O265 U246 2.420 . S
O265 C250 1.202 . S
O266 U246 2.455 . S
O266 C263 1.301 . S
O267 U246 2.449 . S
O267 C263 1.282 . S
H268 C241 0.931 . S
H269 C243 0.929 . S
H270 C244 0.930 . S
H271 C245 0.931 . S
H272 C252 0.932 . S
H273 C253 0.930 . S
H274 C254 0.929 . S
H275 C256 0.930 . S
H276 C258 0.932 . S
H277 C259 0.929 . S
H278 C260 0.928 . S
H279 C262 0.932 . S
C280 C281 1.264 . S
C280 C285 1.479 . S
C280 C290 1.465 . S
C281 C280 1.264 . S
C281 C283 1.339 . S
C281 H308 0.931 . S
C282 C283 1.395 . S
C282 C284 1.320 . S
C283 C281 1.339 . S
C283 C282 1.395 . S
C283 H309 0.929 . S
C284 C282 1.320 . S
C284 C285 1.405 . S
C284 H310 0.930 . S
C285 C280 1.479 . S
C285 C284 1.405 . S
C285 H311 0.931 . S
U286 O287 2.454 . S
U286 O288 2.458 . S
U286 C289 2.984 . S
U286 C290 2.847 . S
U286 C303 2.882 . S
U286 O304 2.441 . S
U286 O305 2.420 . S
U286 O306 2.455 . S
U286 O307 2.449 . S
O287 U286 2.454 . S
O287 C289 1.353 . S
O288 U286 2.458 . S
O288 C289 1.286 . S
C289 U286 2.984 . S
C289 O287 1.353 . S
C289 O288 1.286 . S
C289 C291 1.363 . S
C290 C280 1.465 . S
C290 U286 2.847 . S
C290 O304 1.249 . S
C290 O305 1.202 . S
C291 C289 1.363 . S
C291 C293 1.408 . S
C291 C296 1.342 . S
C292 C293 1.310 . S
C292 C295 1.461 . S
C292 H312 0.932 . S
C293 C291 1.408 . S
C293 C292 1.310 . S
C293 H313 0.930 . S
C294 C295 1.474 . S
C294 C296 1.285 . S
C294 H314 0.929 . S
C295 C292 1.461 . S
C295 C294 1.474 . S
C296 C291 1.342 . S
C296 C294 1.285 . S
C296 H315 0.930 . S
C297 C300 1.424 . S
C297 C302 1.245 . S
C297 C303 1.428 . S
C298 C301 1.260 . S
C298 C302 1.477 . S
C298 H316 0.932 . S
C299 C300 1.384 . S
C299 C301 1.479 . S
C299 H317 0.929 . S
C300 C297 1.424 . S
C300 C299 1.384 . S
C300 H318 0.928 . S
C301 C298 1.260 . S
C301 C299 1.479 . S
C302 C297 1.245 . S
C302 C298 1.477 . S
C302 H319 0.932 . S
C303 U286 2.882 . S
C303 C297 1.428 . S
C303 O306 1.301 . S
C303 O307 1.282 . S
O304 U286 2.441 . S
O304 C290 1.249 . S
O305 U286 2.420 . S
O305 C290 1.202 . S
O306 U286 2.455 . S
O306 C303 1.301 . S
O307 U286 2.449 . S
O307 C303 1.282 . S
H308 C281 0.931 . S
H309 C283 0.929 . S
H310 C284 0.930 . S
H311 C285 0.931 . S
H312 C292 0.932 . S
H313 C293 0.930 . S
H314 C294 0.929 . S
H315 C296 0.930 . S
H316 C298 0.932 . S
H317 C299 0.929 . S
H318 C300 0.928 . S
H319 C302 0.932 . S
C320 O336 1.251 . S
C320 O338 1.254 1_545 S
N321 C322 1.333 . S
N321 C326 1.307 . S
N321 Zn327 2.020 . S
C322 N321 1.333 . S
C322 C323 1.379 . S
C322 H340 0.952 . S
C323 C322 1.379 . S
C323 C324 1.390 . S
C323 H350 0.949 . S
C324 C323 1.390 . S
C324 C325 1.357 . S
C325 C324 1.357 . S
C325 C326 1.370 . S
C325 H351 0.950 . S
C326 N321 1.307 . S
C326 C325 1.370 . S
C326 H344 0.948 1_455 S
Zn327 N321 2.020 . S
Zn327 O336 2.039 . S
Zn327 O342 2.034 . S
Zn327 O346 2.025 1_455 S
Zn327 O348 2.024 1_455 S
C328 O347 1.269 . S
C328 O348 1.249 . S
N329 C330 1.307 . S
N329 C331 1.333 . S
N329 Zn335 2.020 . S
C330 N329 1.307 . S
C330 C334 1.370 . S
C330 H341 0.948 1_655 S
C331 N329 1.333 . S
C331 C332 1.379 . S
C331 H339 0.952 . S
C332 C331 1.379 . S
C332 C333 1.390 . S
C332 H352 0.949 . S
C333 C332 1.390 . S
C333 C334 1.357 . S
C334 C330 1.370 . S
C334 C333 1.357 . S
C334 H353 0.964 . S
Zn335 N329 2.020 . S
Zn335 O338 2.025 1_655 S
Zn335 O343 2.024 1_655 S
Zn335 O345 2.039 . S
Zn335 O347 2.022 1_565 S
O336 C320 1.251 . S
O336 Zn327 2.039 . S
C337 O342 1.246 1_565 S
C337 O343 1.249 . S
O338 C320 1.254 1_565 S
O338 Zn335 2.025 1_455 S
H339 C331 0.952 . S
H340 C322 0.952 . S
H341 C330 0.948 1_455 S
O342 Zn327 2.034 . S
O342 C337 1.246 1_545 S
O343 Zn335 2.024 1_455 S
O343 C337 1.249 . S
H344 C326 0.948 1_655 S
O345 Zn335 2.039 . S
O345 C349 1.251 . S
O346 Zn327 2.025 1_655 S
O346 C349 1.254 1_545 S
O347 C328 1.269 . S
O347 Zn335 2.022 1_545 S
O348 Zn327 2.024 1_655 S
O348 C328 1.249 . S
C349 O345 1.251 . S
C349 O346 1.254 1_565 S
H350 C323 0.949 . S
H351 C325 0.950 . S
H352 C332 0.949 . S
H353 C334 0.964 . S
C354 O370 1.251 1_565 S
C354 O372 1.254 1_556 S
N355 C356 1.333 . S
N355 C360 1.307 . S
N355 Zn361 2.020 . S
C356 N355 1.333 . S
C356 C357 1.379 . S
C356 H374 0.952 . S
C357 C356 1.379 . S
C357 C358 1.390 . S
C357 H384 0.949 . S
C358 C357 1.390 . S
C358 C359 1.357 . S
C359 C358 1.357 . S
C359 C360 1.370 . S
C359 H385 0.950 . S
C360 N355 1.307 . S
C360 C359 1.370 . S
C360 H378 0.948 . S
Zn361 N355 2.020 . S
Zn361 O370 2.039 . S
Zn361 O376 2.034 1_556 S
Zn361 O380 2.025 1_556 S
Zn361 O382 2.024 . S
C362 O381 1.246 . S
C362 O382 1.249 1_565 S
N363 C364 1.307 . S
N363 C365 1.333 . S
N363 Zn369 2.020 . S
C364 N363 1.307 . S
C364 C368 1.370 . S
C364 H375 0.948 . S
C365 N363 1.333 . S
C365 C366 1.379 . S
C365 H373 0.952 . S
C366 C365 1.379 . S
C366 C367 1.390 . S
C366 H386 0.949 . S
C367 C366 1.390 . S
C367 C368 1.357 . S
C368 C364 1.370 . S
C368 C367 1.357 . S
C368 H387 0.950 . S
Zn369 N363 2.020 . S
Zn369 O372 2.025 . S
Zn369 O377 2.024 . S
Zn369 O379 2.039 . S
Zn369 O381 2.034 1_554 S
O370 C354 1.251 1_545 S
O370 Zn361 2.039 . S
C371 O376 1.246 . S
C371 O377 1.249 1_545 S
O372 C354 1.254 1_554 S
O372 Zn369 2.025 . S
H373 C365 0.952 . S
H374 C356 0.952 . S
H375 C364 0.948 . S
O376 Zn361 2.034 1_554 S
O376 C371 1.246 . S
O377 Zn369 2.024 . S
O377 C371 1.249 1_565 S
H378 C360 0.948 . S
O379 Zn369 2.039 . S
O379 C383 1.251 1_565 S
O380 Zn361 2.025 1_554 S
O380 C383 1.254 . S
O381 C362 1.246 . S
O381 Zn369 2.034 1_556 S
O382 Zn361 2.024 . S
O382 C362 1.249 1_545 S
C383 O379 1.251 1_545 S
C383 O380 1.254 . S
H384 C357 0.949 . S
H385 C359 0.950 . S
H386 C366 0.949 . S
H387 C368 0.950 . S
C388 O404 1.251 . S
C388 O406 1.254 . S
N389 C390 1.333 . S
N389 C394 1.307 . S
N389 Zn395 2.020 . S
C390 N389 1.333 . S
C390 C391 1.379 . S
C390 H408 0.952 . S
C391 C390 1.379 . S
C391 C392 1.390 . S
C391 H418 0.949 . S
C392 C391 1.390 . S
C392 C393 1.357 . S
C393 C392 1.357 . S
C393 C394 1.370 . S
C393 H419 0.950 . S
C394 N389 1.307 . S
C394 C393 1.370 . S
C394 H412 0.948 . S
Zn395 N389 2.020 . S
Zn395 O404 2.039 . S
Zn395 O410 2.034 . S
Zn395 O414 2.025 . S
Zn395 O416 2.024 . S
C396 O415 1.246 . S
C396 O416 1.249 . S
N397 C398 1.307 . S
N397 C399 1.333 . S
N397 Zn403 2.020 . S
C398 N397 1.307 . S
C398 C402 1.370 . S
C398 H409 0.948 . S
C399 N397 1.333 . S
C399 C400 1.379 . S
C399 H407 0.952 . S
C400 C399 1.379 . S
C400 C401 1.390 . S
C400 H420 0.949 . S
C401 C400 1.390 . S
C401 C402 1.357 . S
C402 C398 1.370 . S
C402 C401 1.357 . S
C402 H421 0.950 . S
Zn403 N397 2.020 . S
Zn403 O406 2.025 . S
Zn403 O411 2.024 . S
Zn403 O413 2.039 . S
Zn403 O415 2.034 . S
O404 C388 1.251 . S
O404 Zn395 2.039 . S
C405 O410 1.246 . S
C405 O411 1.249 . S
O406 C388 1.254 . S
O406 Zn403 2.025 . S
H407 C399 0.952 . S
H408 C390 0.952 . S
H409 C398 0.948 . S
O410 Zn395 2.034 . S
O410 C405 1.246 . S
O411 Zn403 2.024 . S
O411 C405 1.249 . S
H412 C394 0.948 . S
O413 Zn403 2.039 . S
O413 C417 1.251 . S
O414 Zn395 2.025 . S
O414 C417 1.254 . S
O415 C396 1.246 . S
O415 Zn403 2.034 . S
O416 Zn395 2.024 . S
O416 C396 1.249 . S
C417 O413 1.251 . S
C417 O414 1.254 . S
H418 C391 0.949 . S
H419 C393 0.950 . S
H420 C400 0.949 . S
H421 C402 0.950 . S
C422 O438 1.251 1_556 S
C422 O440 1.263 . S
N423 C424 1.333 . S
N423 C428 1.307 . S
N423 Zn429 2.020 . S
C424 N423 1.333 . S
C424 C425 1.379 . S
C424 H442 0.952 . S
C425 C424 1.379 . S
C425 C426 1.390 . S
C425 H452 0.949 . S
C426 C425 1.390 . S
C426 C427 1.357 . S
C427 C426 1.357 . S
C427 C428 1.370 . S
C427 H453 0.950 . S
C428 N423 1.307 . S
C428 C427 1.370 . S
C428 H446 0.948 . S
Zn429 N423 2.020 . S
Zn429 O438 2.039 . S
Zn429 O444 2.034 1_655 S
Zn429 O448 2.025 1_655 S
Zn429 O450 2.024 . S
C430 O449 1.246 . S
C430 O450 1.249 1_556 S
N431 C432 1.307 . S
N431 C433 1.333 . S
N431 Zn437 2.020 . S
C432 N431 1.307 . S
C432 C436 1.370 . S
C432 H443 0.948 . S
C433 N431 1.333 . S
C433 C434 1.379 . S
C433 H441 0.952 . S
C434 C433 1.379 . S
C434 C435 1.390 . S
C434 H454 0.949 . S
C435 C434 1.390 . S
C435 C436 1.357 . S
C436 C432 1.370 . S
C436 C435 1.357 . S
C436 H455 0.950 . S
Zn437 N431 2.020 . S
Zn437 O440 2.020 1_455 S
Zn437 O445 2.024 . S
Zn437 O447 2.039 . S
Zn437 O449 2.034 1_455 S
O438 C422 1.251 1_554 S
O438 Zn429 2.039 . S
C439 O444 1.246 . S
C439 O445 1.249 1_554 S
O440 C422 1.263 . S
O440 Zn437 2.020 1_655 S
H441 C433 0.952 . S
H442 C424 0.952 . S
H443 C432 0.948 . S
O444 Zn429 2.034 1_455 S
O444 C439 1.246 . S
O445 Zn437 2.024 . S
O445 C439 1.249 1_556 S
H446 C428 0.948 . S
O447 Zn437 2.039 . S
O447 C451 1.251 1_556 S
O448 Zn429 2.025 1_455 S
O448 C451 1.254 . S
O449 C430 1.246 . S
O449 Zn437 2.034 1_655 S
O450 Zn429 2.024 . S
O450 C430 1.249 1_554 S
C451 O447 1.251 1_554 S
C451 O448 1.254 . S
H452 C425 0.949 . S
H453 C427 0.950 . S
H454 C434 0.949 . S
H455 C436 0.950 . S
C456 C457 1.349 . S
C456 C458 1.327 . S
C456 H481 0.950 . S
C457 C456 1.349 . S
C457 C473 1.349 . S
C458 C456 1.327 . S
C458 C477 1.429 . S
C458 H482 0.950 . S
C459 C476 1.574 . S
C459 C478 1.368 . S
C459 H483 0.949 . S
H460 C464 0.949 . S
C461 C462 1.349 . S
C461 C463 1.327 . S
C461 H484 0.950 . S
C462 C461 1.349 . S
C462 C474 1.349 . S
C463 C461 1.327 . S
C463 C479 1.429 . S
C463 H485 0.950 . S
C464 H460 0.949 . S
C464 C472 1.574 . S
C464 C480 1.368 . S
H465 C473 0.950 . S
H466 C471 0.950 . S
H467 C472 0.949 . S
H468 C474 0.955 1_565 S
H469 C475 0.950 . S
H470 C476 0.949 . S
C471 H466 0.950 . S
C471 C473 1.327 . S
C471 C477 1.429 . S
C472 C464 1.574 . S
C472 H467 0.949 . S
C472 C478 1.368 . S
C473 C457 1.349 . S
C473 H465 0.950 . S
C473 C471 1.327 . S
C474 C462 1.349 . S
C474 H468 0.955 1_545 S
C474 C475 1.327 . S
C475 H469 0.950 . S
C475 C474 1.327 . S
C475 C479 1.429 . S
C476 C459 1.574 . S
C476 H470 0.949 . S
C476 C480 1.368 . S
C477 C458 1.429 . S
C477 C471 1.429 . S
C477 C478 1.523 . S
C478 C459 1.368 . S
C478 C472 1.368 . S
C478 C477 1.523 . S
C479 C463 1.429 . S
C479 C475 1.429 . S
C479 C480 1.523 . S
C480 C464 1.368 . S
C480 C476 1.368 . S
C480 C479 1.523 . S
H481 C456 0.950 . S
H482 C458 0.950 . S
H483 C459 0.949 . S
H484 C461 0.950 . S
H485 C463 0.950 . S
C486 C487 1.349 . S
C486 C488 1.327 . S
C486 H511 0.950 . S
C487 C486 1.349 . S
C487 C503 1.349 . S
C488 C486 1.327 . S
C488 C507 1.429 . S
C488 H512 0.950 . S
C489 C506 1.574 . S
C489 C508 1.368 . S
C489 H513 0.949 . S
H490 C494 0.949 . S
C491 C492 1.349 . S
C491 C493 1.327 . S
C491 H514 0.950 . S
C492 C491 1.349 . S
C492 C504 1.375 . S
C493 C491 1.327 . S
C493 C509 1.429 . S
C493 H515 0.950 . S
C494 H490 0.949 . S
C494 C502 1.574 . S
C494 C510 1.368 . S
H495 C503 0.950 . S
H496 C501 0.950 . S
H497 C502 0.949 . S
H498 C504 0.915 1_545 S
H499 C505 0.950 1_545 S
H500 C506 0.949 . S
C501 H496 0.950 . S
C501 C503 1.327 . S
C501 C507 1.429 . S
C502 C494 1.574 . S
C502 H497 0.949 . S
C502 C508 1.368 . S
C503 C487 1.349 . S
C503 H495 0.950 . S
C503 C501 1.327 . S
C504 C492 1.375 . S
C504 H498 0.915 1_565 S
C504 C505 1.336 . S
C505 H499 0.950 1_565 S
C505 C504 1.336 . S
C505 C509 1.429 . S
C506 C489 1.574 . S
C506 H500 0.949 . S
C506 C510 1.368 . S
C507 C488 1.429 . S
C507 C501 1.429 . S
C507 C508 1.523 . S
C508 C489 1.368 . S
C508 C502 1.368 . S
C508 C507 1.523 . S
C509 C493 1.429 . S
C509 C505 1.429 . S
C509 C510 1.523 . S
C510 C494 1.368 . S
C510 C506 1.368 . S
C510 C509 1.523 . S
H511 C486 0.950 . S
H512 C488 0.950 . S
H513 C489 0.949 . S
H514 C491 0.950 . S
H515 C493 0.950 . S
C516 C517 1.349 . S
C516 C518 1.327 . S
C516 H541 0.950 . S
C517 C516 1.349 . S
C517 C533 1.349 . S
C518 C516 1.327 . S
C518 C537 1.429 . S
C518 H542 0.950 . S
C519 C536 1.574 . S
C519 C538 1.368 . S
C519 H543 0.949 . S
H520 C524 0.949 . S
C521 C522 1.349 . S
C521 C523 1.327 . S
C521 H544 0.950 . S
C522 C521 1.349 . S
C522 C534 1.349 . S
C523 C521 1.327 . S
C523 C539 1.429 . S
C523 H545 0.950 . S
C524 H520 0.949 . S
C524 C532 1.574 . S
C524 C540 1.368 . S
H525 C533 0.950 . S
H526 C531 0.950 . S
H527 C532 0.949 . S
H528 C534 0.950 . S
H529 C535 0.950 . S
H530 C536 0.949 . S
C531 H526 0.950 . S
C531 C533 1.327 . S
C531 C537 1.429 . S
C532 C524 1.574 . S
C532 H527 0.949 . S
C532 C538 1.368 . S
C533 C517 1.349 . S
C533 H525 0.950 . S
C533 C531 1.327 . S
C534 C522 1.349 . S
C534 H528 0.950 . S
C534 C535 1.327 . S
C535 H529 0.950 . S
C535 C534 1.327 . S
C535 C539 1.429 . S
C536 C519 1.574 . S
C536 H530 0.949 . S
C536 C540 1.368 . S
C537 C518 1.429 . S
C537 C531 1.429 . S
C537 C538 1.523 . S
C538 C519 1.368 . S
C538 C532 1.368 . S
C538 C537 1.523 . S
C539 C523 1.429 . S
C539 C535 1.429 . S
C539 C540 1.523 . S
C540 C524 1.368 . S
C540 C536 1.368 . S
C540 C539 1.523 . S
H541 C516 0.950 . S
H542 C518 0.950 . S
H543 C519 0.949 . S
H544 C521 0.950 . S
H545 C523 0.950 . S
C546 C547 1.349 . S
C546 C548 1.327 . S
C546 H571 0.950 . S
C547 C546 1.349 . S
C547 C563 1.349 . S
C548 C546 1.327 . S
C548 C567 1.429 . S
C548 H572 0.950 . S
C549 C566 1.574 . S
C549 C568 1.368 . S
C549 H573 0.949 . S
H550 C554 0.949 . S
C551 C552 1.349 . S
C551 C553 1.327 . S
C551 H574 0.950 . S
C552 C551 1.349 . S
C552 C564 1.349 . S
C553 C551 1.327 . S
C553 C569 1.429 . S
C553 H575 0.950 . S
C554 H550 0.949 . S
C554 C562 1.574 . S
C554 C570 1.368 . S
H555 C563 0.950 . S
H556 C561 0.950 . S
H557 C562 0.949 . S
H558 C564 0.950 . S
H559 C565 0.950 . S
H560 C566 0.949 . S
C561 H556 0.950 . S
C561 C563 1.327 . S
C561 C567 1.429 . S
C562 C554 1.574 . S
C562 H557 0.949 . S
C562 C568 1.368 . S
C563 C547 1.349 . S
C563 H555 0.950 . S
C563 C561 1.327 . S
C564 C552 1.349 . S
C564 H558 0.950 . S
C564 C565 1.327 . S
C565 H559 0.950 . S
C565 C564 1.327 . S
C565 C569 1.429 . S
C566 C549 1.574 . S
C566 H560 0.949 . S
C566 C570 1.368 . S
C567 C548 1.429 . S
C567 C561 1.429 . S
C567 C568 1.523 . S
C568 C549 1.368 . S
C568 C562 1.368 . S
C568 C567 1.523 . S
C569 C553 1.429 . S
C569 C565 1.429 . S
C569 C570 1.523 . S
C570 C554 1.368 . S
C570 C566 1.368 . S
C570 C569 1.523 . S
H571 C546 0.950 . S
H572 C548 0.950 . S
H573 C549 0.949 . S
H574 C551 0.950 . S
H575 C553 0.950 . S
C576 C577 1.349 . S
C576 C578 1.327 . S
C576 H601 0.950 . S
C577 C576 1.349 . S
C577 C593 1.349 . S
C578 C576 1.327 . S
C578 C597 1.429 . S
C578 H602 0.950 . S
C579 C596 1.574 . S
C579 C598 1.368 . S
C579 H603 0.949 . S
H580 C584 0.949 . S
C581 C582 1.349 . S
C581 C583 1.327 . S
C581 H604 0.950 . S
C582 C581 1.349 . S
C582 C594 1.349 . S
C583 C581 1.327 . S
C583 C599 1.429 . S
C583 H605 0.950 . S
C584 H580 0.949 . S
C584 C592 1.574 . S
C584 C600 1.368 . S
H585 C593 0.950 . S
H586 C591 0.950 . S
H587 C592 0.949 . S
H588 C594 0.950 1_565 S
H589 C595 0.950 . S
H590 C596 0.949 . S
C591 H586 0.950 . S
C591 C593 1.327 . S
C591 C597 1.429 . S
C592 C584 1.574 . S
C592 H587 0.949 . S
C592 C598 1.368 . S
C593 C577 1.349 . S
C593 H585 0.950 . S
C593 C591 1.327 . S
C594 C582 1.349 . S
C594 H588 0.950 1_545 S
C594 C595 1.327 . S
C595 H589 0.950 . S
C595 C594 1.327 . S
C595 C599 1.429 . S
C596 C579 1.574 . S
C596 H590 0.949 . S
C596 C600 1.368 . S
C597 C578 1.429 . S
C597 C591 1.429 . S
C597 C598 1.523 . S
C598 C579 1.368 . S
C598 C592 1.368 . S
C598 C597 1.523 . S
C599 C583 1.429 . S
C599 C595 1.429 . S
C599 C600 1.523 . S
C600 C584 1.368 . S
C600 C596 1.368 . S
C600 C599 1.523 . S
H601 C576 0.950 . S
H602 C578 0.950 . S
H603 C579 0.949 . S
H604 C581 0.950 . S
H605 C583 0.950 . S
C606 C607 1.349 . S
C606 C608 1.327 . S
C606 H631 0.950 . S
C607 C606 1.349 . S
C607 C623 1.349 . S
C608 C606 1.327 . S
C608 C627 1.429 . S
C608 H632 0.950 . S
C609 C626 1.574 . S
C609 C628 1.368 . S
C609 H633 0.949 . S
H610 C614 0.949 . S
C611 C612 1.349 . S
C611 C613 1.327 . S
C611 H634 0.950 1_565 S
C612 C611 1.349 . S
C612 C624 1.349 . S
C613 C611 1.327 . S
C613 C629 1.429 . S
C613 H635 0.950 1_565 S
C614 H610 0.949 . S
C614 C622 1.574 . S
C614 C630 1.368 . S
H615 C623 0.950 . S
H616 C621 0.950 . S
H617 C622 0.949 . S
H618 C624 0.950 . S
H619 C625 0.950 . S
H620 C626 0.949 . S
C621 H616 0.950 . S
C621 C623 1.327 . S
C621 C627 1.429 . S
C622 C614 1.574 . S
C622 H617 0.949 . S
C622 C628 1.368 . S
C623 C607 1.349 . S
C623 H615 0.950 . S
C623 C621 1.327 . S
C624 C612 1.349 . S
C624 H618 0.950 . S
C624 C625 1.327 . S
C625 H619 0.950 . S
C625 C624 1.327 . S
C625 C629 1.429 . S
C626 C609 1.574 . S
C626 H620 0.949 . S
C626 C630 1.368 . S
C627 C608 1.429 . S
C627 C621 1.429 . S
C627 C628 1.523 . S
C628 C609 1.368 . S
C628 C622 1.368 . S
C628 C627 1.523 . S
C629 C613 1.429 . S
C629 C625 1.429 . S
C629 C630 1.523 . S
C630 C614 1.368 . S
C630 C626 1.368 . S
C630 C629 1.523 . S
H631 C606 0.950 . S
H632 C608 0.950 . S
H633 C609 0.949 . S
H634 C611 0.950 1_545 S
H635 C613 0.950 1_545 S
C636 C637 1.349 . S
C636 C638 1.327 . S
C636 H661 0.950 . S
C637 C636 1.349 . S
C637 C653 1.349 . S
C638 C636 1.327 . S
C638 C657 1.429 . S
C638 H662 0.950 . S
C639 C656 1.574 . S
C639 C658 1.368 . S
C639 H663 0.949 . S
H640 C644 0.927 1_554 S
C641 C642 1.349 . S
C641 C643 1.327 . S
C641 H664 0.950 . S
C642 C641 1.349 . S
C642 C654 1.353 . S
C643 C641 1.327 . S
C643 C659 1.429 . S
C643 H665 0.950 . S
C644 H640 0.927 1_556 S
C644 C652 1.574 . S
C644 C660 1.368 . S
H645 C653 0.950 . S
H646 C651 0.950 . S
H647 C652 0.949 . S
H648 C654 0.945 1_554 S
H649 C655 0.950 1_554 S
H650 C656 0.949 . S
C651 H646 0.950 . S
C651 C653 1.327 . S
C651 C657 1.429 . S
C652 C644 1.574 . S
C652 H647 0.949 . S
C652 C658 1.368 . S
C653 C637 1.349 . S
C653 H645 0.950 . S
C653 C651 1.327 . S
C654 C642 1.353 . S
C654 H648 0.945 1_556 S
C654 C655 1.328 . S
C655 H649 0.950 1_556 S
C655 C654 1.328 . S
C655 C659 1.429 . S
C656 C639 1.574 . S
C656 H650 0.949 . S
C656 C660 1.368 . S
C657 C638 1.429 . S
C657 C651 1.429 . S
C657 C658 1.523 . S
C658 C639 1.368 . S
C658 C652 1.368 . S
C658 C657 1.523 . S
C659 C643 1.429 . S
C659 C655 1.429 . S
C659 C660 1.523 . S
C660 C644 1.368 . S
C660 C656 1.368 . S
C660 C659 1.523 . S
H661 C636 0.950 . S
H662 C638 0.950 . S
H663 C639 0.949 . S
H664 C641 0.950 . S
H665 C643 0.950 . S
C666 C667 1.349 . S
C666 C668 1.327 . S
C666 H691 0.950 . S
C667 C666 1.349 . S
C667 C683 1.349 . S
C668 C666 1.327 . S
C668 C687 1.429 . S
C668 H692 0.950 . S
C669 C686 1.574 . S
C669 C688 1.368 . S
C669 H693 0.949 . S
H670 C674 0.949 . S
C671 C672 1.349 . S
C671 C673 1.327 . S
C671 H694 0.950 . S
C672 C671 1.349 . S
C672 C684 1.349 . S
C673 C671 1.327 . S
C673 C689 1.429 . S
C673 H695 0.950 . S
C674 H670 0.949 . S
C674 C682 1.574 . S
C674 C690 1.368 . S
H675 C683 0.950 . S
H676 C681 0.950 . S
H677 C682 0.949 . S
H678 C684 0.950 . S
H679 C685 0.950 . S
H680 C686 0.949 . S
C681 H676 0.950 . S
C681 C683 1.327 . S
C681 C687 1.429 . S
C682 C674 1.574 . S
C682 H677 0.949 . S
C682 C688 1.368 . S
C683 C667 1.349 . S
C683 H675 0.950 . S
C683 C681 1.327 . S
C684 C672 1.349 . S
C684 H678 0.950 . S
C684 C685 1.327 . S
C685 H679 0.950 . S
C685 C684 1.327 . S
C685 C689 1.429 . S
C686 C669 1.574 . S
C686 H680 0.949 . S
C686 C690 1.368 . S
C687 C668 1.429 . S
C687 C681 1.429 . S
C687 C688 1.523 . S
C688 C669 1.368 . S
C688 C682 1.368 . S
C688 C687 1.523 . S
C689 C673 1.429 . S
C689 C685 1.429 . S
C689 C690 1.523 . S
C690 C674 1.368 . S
C690 C686 1.368 . S
C690 C689 1.523 . S
H691 C666 0.950 . S
H692 C668 0.950 . S
H693 C669 0.949 . S
H694 C671 0.950 . S
H695 C673 0.950 . S
C696 C697 1.349 . S
C696 C698 1.327 . S
C696 H721 0.950 . S
C697 C696 1.349 . S
C697 C713 1.349 . S
C698 C696 1.327 . S
C698 C717 1.429 . S
C698 H722 0.950 . S
C699 C716 1.574 . S
C699 C718 1.368 . S
C699 H723 0.949 . S
H700 C704 0.949 . S
C701 C702 1.349 . S
C701 C703 1.327 . S
C701 H724 0.950 . S
C702 C701 1.349 . S
C702 C714 1.349 . S
C703 C701 1.327 . S
C703 C719 1.429 . S
C703 H725 0.950 . S
C704 H700 0.949 . S
C704 C712 1.574 . S
C704 C720 1.368 . S
H705 C713 0.950 . S
H706 C711 0.950 . S
H707 C712 0.949 . S
H708 C714 0.950 . S
H709 C715 0.950 . S
H710 C716 0.949 . S
C711 H706 0.950 . S
C711 C713 1.327 . S
C711 C717 1.429 . S
C712 C704 1.574 . S
C712 H707 0.949 . S
C712 C718 1.368 . S
C713 C697 1.349 . S
C713 H705 0.950 . S
C713 C711 1.327 . S
C714 C702 1.349 . S
C714 H708 0.950 . S
C714 C715 1.327 . S
C715 H709 0.950 . S
C715 C714 1.327 . S
C715 C719 1.429 . S
C716 C699 1.574 . S
C716 H710 0.949 . S
C716 C720 1.368 . S
C717 C698 1.429 . S
C717 C711 1.429 . S
C717 C718 1.523 . S
C718 C699 1.368 . S
C718 C712 1.368 . S
C718 C717 1.523 . S
C719 C703 1.429 . S
C719 C715 1.429 . S
C719 C720 1.523 . S
C720 C704 1.368 . S
C720 C716 1.368 . S
C720 C719 1.523 . S
H721 C696 0.950 . S
H722 C698 0.950 . S
H723 C699 0.949 . S
H724 C701 0.950 . S
H725 C703 0.950 . S
C726 C727 1.349 . S
C726 C728 1.327 . S
C726 H751 0.950 . S
C727 C726 1.349 . S
C727 C743 1.349 . S
C728 C726 1.327 . S
C728 C747 1.429 . S
C728 H752 0.950 . S
C729 C746 1.574 . S
C729 C748 1.368 . S
C729 H753 0.949 . S
H730 C734 0.949 . S
C731 C732 1.349 . S
C731 C733 1.327 . S
C731 H754 0.950 . S
C732 C731 1.349 . S
C732 C744 1.349 . S
C733 C731 1.327 . S
C733 C749 1.429 . S
C733 H755 0.950 . S
C734 H730 0.949 . S
C734 C742 1.574 . S
C734 C750 1.368 . S
H735 C743 0.950 . S
H736 C741 0.950 . S
H737 C742 0.949 . S
H738 C744 0.950 . S
H739 C745 0.950 . S
H740 C746 0.949 . S
C741 H736 0.950 . S
C741 C743 1.327 . S
C741 C747 1.429 . S
C742 C734 1.574 . S
C742 H737 0.949 . S
C742 C748 1.368 . S
C743 C727 1.349 . S
C743 H735 0.950 . S
C743 C741 1.327 . S
C744 C732 1.349 . S
C744 H738 0.950 . S
C744 C745 1.327 . S
C745 H739 0.950 . S
C745 C744 1.327 . S
C745 C749 1.429 . S
C746 C729 1.574 . S
C746 H740 0.949 . S
C746 C750 1.368 . S
C747 C728 1.429 . S
C747 C741 1.429 . S
C747 C748 1.523 . S
C748 C729 1.368 . S
C748 C742 1.368 . S
C748 C747 1.523 . S
C749 C733 1.429 . S
C749 C745 1.429 . S
C749 C750 1.523 . S
C750 C734 1.368 . S
C750 C746 1.368 . S
C750 C749 1.523 . S
H751 C726 0.950 . S
H752 C728 0.950 . S
H753 C729 0.949 . S
H754 C731 0.950 . S
H755 C733 0.950 . S
C756 C757 1.349 . S
C756 C758 1.327 . S
C756 H781 0.950 . S
C757 C756 1.349 . S
C757 C773 1.349 . S
C758 C756 1.327 . S
C758 C777 1.429 . S
C758 H782 0.950 . S
C759 C776 1.574 . S
C759 C778 1.368 . S
C759 H783 0.949 . S
H760 C764 0.949 . S
C761 C762 1.349 . S
C761 C763 1.327 . S
C761 H784 0.950 . S
C762 C761 1.349 . S
C762 C774 1.349 . S
C763 C761 1.327 . S
C763 C779 1.429 . S
C763 H785 0.950 . S
C764 H760 0.949 . S
C764 C772 1.574 . S
C764 C780 1.368 . S
H765 C773 0.950 . S
H766 C771 0.950 . S
H767 C772 0.949 . S
H768 C774 0.950 . S
H769 C775 0.950 . S
H770 C776 0.949 . S
C771 H766 0.950 . S
C771 C773 1.327 . S
C771 C777 1.429 . S
C772 C764 1.574 . S
C772 H767 0.949 . S
C772 C778 1.368 . S
C773 C757 1.349 . S
C773 H765 0.950 . S
C773 C771 1.327 . S
C774 C762 1.349 . S
C774 H768 0.950 . S
C774 C775 1.327 . S
C775 H769 0.950 . S
C775 C774 1.327 . S
C775 C779 1.429 . S
C776 C759 1.574 . S
C776 H770 0.949 . S
C776 C780 1.368 . S
C777 C758 1.429 . S
C777 C771 1.429 . S
C777 C778 1.523 . S
C778 C759 1.368 . S
C778 C772 1.368 . S
C778 C777 1.523 . S
C779 C763 1.429 . S
C779 C775 1.429 . S
C779 C780 1.523 . S
C780 C764 1.368 . S
C780 C776 1.368 . S
C780 C779 1.523 . S
H781 C756 0.950 . S
H782 C758 0.950 . S
H783 C759 0.949 . S
H784 C761 0.950 . S
H785 C763 0.950 . S
C786 C787 1.349 . S
C786 C788 1.327 . S
C786 H811 0.950 . S
C787 C786 1.349 . S
C787 C803 1.349 . S
C788 C786 1.327 . S
C788 C807 1.429 . S
C788 H812 0.950 . S
C789 C806 1.574 . S
C789 C808 1.368 . S
C789 H813 0.949 . S
H790 C794 0.949 . S
C791 C792 1.349 . S
C791 C793 1.327 . S
C791 H814 0.950 . S
C792 C791 1.349 . S
C792 C804 1.349 . S
C793 C791 1.327 . S
C793 C809 1.429 . S
C793 H815 0.950 . S
C794 H790 0.949 . S
C794 C802 1.574 . S
C794 C810 1.368 . S
H795 C803 0.950 . S
H796 C801 0.950 . S
H797 C802 0.949 . S
H798 C804 0.950 . S
H799 C805 0.950 . S
H800 C806 0.949 . S
C801 H796 0.950 . S
C801 C803 1.327 . S
C801 C807 1.429 . S
C802 C794 1.574 . S
C802 H797 0.949 . S
C802 C808 1.368 . S
C803 C787 1.349 . S
C803 H795 0.950 . S
C803 C801 1.327 . S
C804 C792 1.349 . S
C804 H798 0.950 . S
C804 C805 1.327 . S
C805 H799 0.950 . S
C805 C804 1.327 . S
C805 C809 1.429 . S
C806 C789 1.574 . S
C806 H800 0.949 . S
C806 C810 1.368 . S
C807 C788 1.429 . S
C807 C801 1.429 . S
C807 C808 1.523 . S
C808 C789 1.368 . S
C808 C802 1.368 . S
C808 C807 1.523 . S
C809 C793 1.429 . S
C809 C805 1.429 . S
C809 C810 1.523 . S
C810 C794 1.368 . S
C810 C806 1.368 . S
C810 C809 1.523 . S
H811 C786 0.950 . S
H812 C788 0.950 . S
H813 C789 0.949 . S
H814 C791 0.950 . S
H815 C793 0.950 . S
C816 C817 1.349 . S
C816 C818 1.327 . S
C816 H841 0.950 . S
C817 C816 1.349 . S
C817 C833 1.349 . S
C818 C816 1.327 . S
C818 C837 1.429 . S
C818 H842 0.950 . S
C819 C836 1.574 . S
C819 C838 1.368 . S
C819 H843 0.949 . S
H820 C824 0.949 . S
C821 C822 1.349 . S
C821 C823 1.327 . S
C821 H844 0.950 . S
C822 C821 1.349 . S
C822 C834 1.349 . S
C823 C821 1.327 . S
C823 C839 1.429 . S
C823 H845 0.950 . S
C824 H820 0.949 . S
C824 C832 1.574 . S
C824 C840 1.368 . S
H825 C833 0.950 . S
H826 C831 0.950 . S
H827 C832 0.949 . S
H828 C834 0.948 1_445 S
H829 C835 0.950 . S
H830 C836 0.949 . S
C831 H826 0.950 . S
C831 C833 1.327 . S
C831 C837 1.429 . S
C832 C824 1.574 . S
C832 H827 0.949 . S
C832 C838 1.368 . S
C833 C817 1.349 . S
C833 H825 0.950 . S
C833 C831 1.327 . S
C834 C822 1.349 . S
C834 H828 0.948 1_665 S
C834 C835 1.327 . S
C835 H829 0.950 . S
C835 C834 1.327 . S
C835 C839 1.429 . S
C836 C819 1.574 . S
C836 H830 0.949 . S
C836 C840 1.368 . S
C837 C818 1.429 . S
C837 C831 1.429 . S
C837 C838 1.523 . S
C838 C819 1.368 . S
C838 C832 1.368 . S
C838 C837 1.523 . S
C839 C823 1.429 . S
C839 C835 1.429 . S
C839 C840 1.523 . S
C840 C824 1.368 . S
C840 C836 1.368 . S
C840 C839 1.523 . S
H841 C816 0.950 . S
H842 C818 0.950 . S
H843 C819 0.949 . S
H844 C821 0.950 . S
H845 C823 0.950 . S
C846 C847 1.349 . S
C846 C848 1.327 . S
C846 H871 0.950 . S
C847 C846 1.349 . S
C847 C863 1.349 . S
C848 C846 1.327 . S
C848 C867 1.429 . S
C848 H872 0.950 . S
C849 C866 1.574 . S
C849 C868 1.368 . S
C849 H873 0.949 . S
H850 C854 0.949 . S
C851 C852 1.349 . S
C851 C853 1.327 . S
C851 H874 0.950 1_545 S
C852 C851 1.349 . S
C852 C864 1.349 . S
C853 C851 1.327 . S
C853 C869 1.429 . S
C853 H875 0.950 . S
C854 H850 0.949 . S
C854 C862 1.574 . S
C854 C870 1.368 . S
H855 C863 0.950 . S
H856 C861 0.950 . S
H857 C862 0.949 . S
H858 C864 0.950 . S
H859 C865 0.950 . S
H860 C866 0.949 . S
C861 H856 0.950 . S
C861 C863 1.327 . S
C861 C867 1.429 . S
C862 C854 1.574 . S
C862 H857 0.949 . S
C862 C868 1.368 . S
C863 C847 1.349 . S
C863 H855 0.950 . S
C863 C861 1.327 . S
C864 C852 1.349 . S
C864 H858 0.950 . S
C864 C865 1.327 . S
C865 H859 0.950 . S
C865 C864 1.327 . S
C865 C869 1.429 . S
C866 C849 1.574 . S
C866 H860 0.949 . S
C866 C870 1.368 . S
C867 C848 1.429 . S
C867 C861 1.429 . S
C867 C868 1.523 . S
C868 C849 1.368 . S
C868 C862 1.368 . S
C868 C867 1.523 . S
C869 C853 1.429 . S
C869 C865 1.429 . S
C869 C870 1.523 . S
C870 C854 1.368 . S
C870 C866 1.368 . S
C870 C869 1.523 . S
H871 C846 0.950 . S
H872 C848 0.950 . S
H873 C849 0.949 . S
H874 C851 0.950 1_565 S
H875 C853 0.950 . S
C876 C877 1.349 . S
C876 C878 1.327 . S
C876 H901 0.950 . S
C877 C876 1.349 . S
C877 C893 1.349 . S
C878 C876 1.327 . S
C878 C897 1.429 . S
C878 H902 0.950 . S
C879 C896 1.574 . S
C879 C898 1.368 . S
C879 H903 0.949 . S
H880 C884 0.949 . S
C881 C882 1.349 . S
C881 C883 1.327 . S
C881 H904 0.950 . S
C882 C881 1.349 . S
C882 C894 1.349 . S
C883 C881 1.327 . S
C883 C899 1.429 . S
C883 H905 0.950 . S
C884 H880 0.949 . S
C884 C892 1.574 . S
C884 C900 1.368 . S
H885 C893 0.950 . S
H886 C891 0.950 . S
H887 C892 0.949 . S
H888 C894 0.950 . S
H889 C895 0.950 . S
H890 C896 0.949 . S
C891 H886 0.950 . S
C891 C893 1.327 . S
C891 C897 1.429 . S
C892 C884 1.574 . S
C892 H887 0.949 . S
C892 C898 1.368 . S
C893 C877 1.349 . S
C893 H885 0.950 . S
C893 C891 1.327 . S
C894 C882 1.349 . S
C894 H888 0.950 . S
C894 C895 1.327 . S
C895 H889 0.950 . S
C895 C894 1.327 . S
C895 C899 1.429 . S
C896 C879 1.574 . S
C896 H890 0.949 . S
C896 C900 1.368 . S
C897 C878 1.429 . S
C897 C891 1.429 . S
C897 C898 1.523 . S
C898 C879 1.368 . S
C898 C892 1.368 . S
C898 C897 1.523 . S
C899 C883 1.429 . S
C899 C895 1.429 . S
C899 C900 1.523 . S
C900 C884 1.368 . S
C900 C896 1.368 . S
C900 C899 1.523 . S
H901 C876 0.950 . S
H902 C878 0.950 . S
H903 C879 0.949 . S
H904 C881 0.950 . S
H905 C883 0.950 . S
C906 C907 1.349 . S
C906 C908 1.327 . S
C906 H931 0.950 . S
C907 C906 1.349 . S
C907 C923 1.349 . S
C908 C906 1.327 . S
C908 C927 1.429 . S
C908 H932 0.950 . S
C909 C926 1.574 . S
C909 C928 1.368 . S
C909 H933 0.949 . S
H910 C914 0.949 . S
C911 C912 1.349 . S
C911 C913 1.327 . S
C911 H934 0.950 . S
C912 C911 1.349 . S
C912 C924 1.349 . S
C913 C911 1.327 . S
C913 C929 1.429 . S
C913 H935 0.950 . S
C914 H910 0.949 . S
C914 C922 1.574 . S
C914 C930 1.368 . S
H915 C923 0.950 . S
H916 C921 0.950 . S
H917 C922 0.949 . S
H918 C924 0.950 . S
H919 C925 0.950 . S
H920 C926 0.949 . S
C921 H916 0.950 . S
C921 C923 1.327 . S
C921 C927 1.429 . S
C922 C914 1.574 . S
C922 H917 0.949 . S
C922 C928 1.368 . S
C923 C907 1.349 . S
C923 H915 0.950 . S
C923 C921 1.327 . S
C924 C912 1.349 . S
C924 H918 0.950 . S
C924 C925 1.327 . S
C925 H919 0.950 . S
C925 C924 1.327 . S
C925 C929 1.429 . S
C926 C909 1.574 . S
C926 H920 0.949 . S
C926 C930 1.368 . S
C927 C908 1.429 . S
C927 C921 1.429 . S
C927 C928 1.523 . S
C928 C909 1.368 . S
C928 C922 1.368 . S
C928 C927 1.523 . S
C929 C913 1.429 . S
C929 C925 1.429 . S
C929 C930 1.523 . S
C930 C914 1.368 . S
C930 C926 1.368 . S
C930 C929 1.523 . S
H931 C906 0.950 . S
H932 C908 0.950 . S
H933 C909 0.949 . S
H934 C911 0.950 . S
H935 C913 0.950 . S
C936 C937 1.349 . S
C936 C938 1.327 . S
C936 H961 0.950 . S
C937 C936 1.349 . S
C937 C953 1.349 . S
C938 C936 1.327 . S
C938 C957 1.429 . S
C938 H962 0.950 . S
C939 C956 1.574 . S
C939 C958 1.368 . S
C939 H963 0.949 . S
H940 C944 0.949 . S
C941 C942 1.349 . S
C941 C943 1.327 . S
C941 H964 0.950 1_556 S
C942 C941 1.349 . S
C942 C954 1.349 . S
C943 C941 1.327 . S
C943 C959 1.429 . S
C943 H965 0.970 . S
C944 H940 0.949 . S
C944 C952 1.574 . S
C944 C960 1.368 . S
H945 C953 0.950 . S
H946 C951 0.950 . S
H947 C952 0.949 . S
H948 C954 0.950 . S
H949 C955 0.950 . S
H950 C956 0.949 . S
C951 H946 0.950 . S
C951 C953 1.327 . S
C951 C957 1.429 . S
C952 C944 1.574 . S
C952 H947 0.949 . S
C952 C958 1.368 . S
C953 C937 1.349 . S
C953 H945 0.950 . S
C953 C951 1.327 . S
C954 C942 1.349 . S
C954 H948 0.950 . S
C954 C955 1.327 . S
C955 H949 0.950 . S
C955 C954 1.327 . S
C955 C959 1.429 . S
C956 C939 1.574 . S
C956 H950 0.949 . S
C956 C960 1.368 . S
C957 C938 1.429 . S
C957 C951 1.429 . S
C957 C958 1.523 . S
C958 C939 1.368 . S
C958 C952 1.368 . S
C958 C957 1.523 . S
C959 C943 1.429 . S
C959 C955 1.429 . S
C959 C960 1.523 . S
C960 C944 1.368 . S
C960 C956 1.368 . S
C960 C959 1.523 . S
H961 C936 0.950 . S
H962 C938 0.950 . S
H963 C939 0.949 . S
H964 C941 0.950 1_554 S
H965 C943 0.970 . S
C966 C967 1.349 . S
C966 C968 1.327 . S
C966 H991 0.950 . S
C967 C966 1.349 . S
C967 C983 1.349 . S
C968 C966 1.327 . S
C968 C987 1.429 . S
C968 H992 0.950 . S
C969 C986 1.574 . S
C969 C988 1.368 . S
C969 H993 0.949 . S
H970 C974 0.949 . S
C971 C972 1.349 . S
C971 C973 1.327 . S
C971 H994 0.950 . S
C972 C971 1.349 . S
C972 C984 1.349 . S
C973 C971 1.327 . S
C973 C989 1.429 . S
C973 H995 0.950 . S
C974 H970 0.949 . S
C974 C982 1.574 . S
C974 C990 1.368 . S
H975 C983 0.950 . S
H976 C981 0.950 . S
H977 C982 0.949 . S
H978 C984 0.950 . S
H979 C985 0.950 . S
H980 C986 0.949 . S
C981 H976 0.950 . S
C981 C983 1.327 . S
C981 C987 1.429 . S
C982 C974 1.574 . S
C982 H977 0.949 . S
C982 C988 1.368 . S
C983 C967 1.349 . S
C983 H975 0.950 . S
C983 C981 1.327 . S
C984 C972 1.349 . S
C984 H978 0.950 . S
C984 C985 1.327 . S
C985 H979 0.950 . S
C985 C984 1.327 . S
C985 C989 1.429 . S
C986 C969 1.574 . S
C986 H980 0.949 . S
C986 C990 1.368 . S
C987 C968 1.429 . S
C987 C981 1.429 . S
C987 C988 1.523 . S
C988 C969 1.368 . S
C988 C982 1.368 . S
C988 C987 1.523 . S
C989 C973 1.429 . S
C989 C985 1.429 . S
C989 C990 1.523 . S
C990 C974 1.368 . S
C990 C986 1.368 . S
C990 C989 1.523 . S
H991 C966 0.950 . S
H992 C968 0.950 . S
H993 C969 0.949 . S
H994 C971 0.950 . S
H995 C973 0.950 . S
C996 C997 1.349 . S
C996 C998 1.327 . S
C996 H1021 0.950 . S
C997 C996 1.349 . S
C997 C1013 1.349 . S
C998 C996 1.327 . S
C998 C1017 1.429 . S
C998 H1022 0.950 . S
C999 C1016 1.574 . S
C999 C1018 1.368 . S
C999 H1023 0.949 . S
H1000 C1004 0.949 . S
C1001 C1002 1.349 . S
C1001 C1003 1.327 . S
C1001 H1024 0.950 1_554 S
C1002 C1001 1.349 . S
C1002 C1014 1.349 . S
C1003 C1001 1.327 . S
C1003 C1019 1.429 . S
C1003 H1025 0.950 1_554 S
C1004 H1000 0.949 . S
C1004 C1012 1.574 . S
C1004 C1020 1.368 . S
H1005 C1013 0.950 . S
H1006 C1011 0.950 . S
H1007 C1012 0.949 . S
H1008 C1014 0.950 . S
H1009 C1015 0.950 . S
H1010 C1016 0.984 . S
C1011 H1006 0.950 . S
C1011 C1013 1.327 . S
C1011 C1017 1.429 . S
C1012 C1004 1.574 . S
C1012 H1007 0.949 . S
C1012 C1018 1.368 . S
C1013 C997 1.349 . S
C1013 H1005 0.950 . S
C1013 C1011 1.327 . S
C1014 C1002 1.349 . S
C1014 H1008 0.950 . S
C1014 C1015 1.327 . S
C1015 H1009 0.950 . S
C1015 C1014 1.327 . S
C1015 C1019 1.429 . S
C1016 C999 1.574 . S
C1016 H1010 0.984 . S
C1016 C1020 1.368 . S
C1017 C998 1.429 . S
C1017 C1011 1.429 . S
C1017 C1018 1.523 . S
C1018 C999 1.368 . S
C1018 C1012 1.368 . S
C1018 C1017 1.523 . S
C1019 C1003 1.429 . S
C1019 C1015 1.429 . S
C1019 C1020 1.523 . S
C1020 C1004 1.368 . S
C1020 C1016 1.368 . S
C1020 C1019 1.523 . S
H1021 C996 0.950 . S
H1022 C998 0.950 . S
H1023 C999 0.949 . S
H1024 C1001 0.950 1_556 S
H1025 C1003 0.950 1_556 S
C1026 C1027 1.349 . S
C1026 C1028 1.327 . S
C1026 H1051 0.950 . S
C1027 C1026 1.349 . S
C1027 C1043 1.349 . S
C1028 C1026 1.327 . S
C1028 C1047 1.429 . S
C1028 H1052 0.950 . S
C1029 C1046 1.574 . S
C1029 C1048 1.368 . S
C1029 H1053 0.949 . S
H1030 C1034 0.949 . S
C1031 C1032 1.349 . S
C1031 C1033 1.327 . S
C1031 H1054 0.950 . S
C1032 C1031 1.349 . S
C1032 C1044 1.349 . S
C1033 C1031 1.327 . S
C1033 C1049 1.429 . S
C1033 H1055 0.950 . S
C1034 H1030 0.949 . S
C1034 C1042 1.574 . S
C1034 C1050 1.368 . S
H1035 C1043 0.950 . S
H1036 C1041 0.950 . S
H1037 C1042 0.949 . S
H1038 C1044 0.950 . S
H1039 C1045 0.950 . S
H1040 C1046 0.949 . S
C1041 H1036 0.950 . S
C1041 C1043 1.327 . S
C1041 C1047 1.429 . S
C1042 C1034 1.574 . S
C1042 H1037 0.949 . S
C1042 C1048 1.368 . S
C1043 C1027 1.349 . S
C1043 H1035 0.950 . S
C1043 C1041 1.327 . S
C1044 C1032 1.349 . S
C1044 H1038 0.950 . S
C1044 C1045 1.327 . S
C1045 H1039 0.950 . S
C1045 C1044 1.327 . S
C1045 C1049 1.429 . S
C1046 C1029 1.574 . S
C1046 H1040 0.949 . S
C1046 C1050 1.368 . S
C1047 C1028 1.429 . S
C1047 C1041 1.429 . S
C1047 C1048 1.523 . S
C1048 C1029 1.368 . S
C1048 C1042 1.368 . S
C1048 C1047 1.523 . S
C1049 C1033 1.429 . S
C1049 C1045 1.429 . S
C1049 C1050 1.523 . S
C1050 C1034 1.368 . S
C1050 C1046 1.368 . S
C1050 C1049 1.523 . S
H1051 C1026 0.950 . S
H1052 C1028 0.950 . S
H1053 C1029 0.949 . S
H1054 C1031 0.950 . S
H1055 C1033 0.950 . S
C1056 C1057 1.349 . S
C1056 C1058 1.327 . S
C1056 H1081 0.950 . S
C1057 C1056 1.349 . S
C1057 C1073 1.349 . S
C1058 C1056 1.327 . S
C1058 C1077 1.429 . S
C1058 H1082 0.950 . S
C1059 C1076 1.574 . S
C1059 C1078 1.368 . S
C1059 H1083 0.949 . S
H1060 C1064 0.949 . S
C1061 C1062 1.349 . S
C1061 C1063 1.327 . S
C1061 H1084 0.950 . S
C1062 C1061 1.349 . S
C1062 C1074 1.349 . S
C1063 C1061 1.327 . S
C1063 C1079 1.429 . S
C1063 H1085 0.950 . S
C1064 H1060 0.949 . S
C1064 C1072 1.574 . S
C1064 C1080 1.368 . S
H1065 C1073 0.950 . S
H1066 C1071 0.950 . S
H1067 C1072 0.949 . S
H1068 C1074 0.950 1_455 S
H1069 C1075 0.939 1_455 S
H1070 C1076 0.949 . S
C1071 H1066 0.950 . S
C1071 C1073 1.327 . S
C1071 C1077 1.429 . S
C1072 C1064 1.574 . S
C1072 H1067 0.949 . S
C1072 C1078 1.368 . S
C1073 C1057 1.349 . S
C1073 H1065 0.950 . S
C1073 C1071 1.327 . S
C1074 C1062 1.349 . S
C1074 H1068 0.950 1_655 S
C1074 C1075 1.327 . S
C1075 H1069 0.939 1_655 S
C1075 C1074 1.327 . S
C1075 C1079 1.429 . S
C1076 C1059 1.574 . S
C1076 H1070 0.949 . S
C1076 C1080 1.368 . S
C1077 C1058 1.429 . S
C1077 C1071 1.429 . S
C1077 C1078 1.523 . S
C1078 C1059 1.368 . S
C1078 C1072 1.368 . S
C1078 C1077 1.523 . S
C1079 C1063 1.429 . S
C1079 C1075 1.429 . S
C1079 C1080 1.523 . S
C1080 C1064 1.368 . S
C1080 C1076 1.368 . S
C1080 C1079 1.523 . S
H1081 C1056 0.950 . S
H1082 C1058 0.950 . S
H1083 C1059 0.949 . S
H1084 C1061 0.950 . S
H1085 C1063 0.950 . S
C1086 C1087 1.349 . S
C1086 C1088 1.327 . S
C1086 H1111 0.950 . S
C1087 C1086 1.349 . S
C1087 C1103 1.349 . S
C1088 C1086 1.327 . S
C1088 C1107 1.429 . S
C1088 H1112 0.950 . S
C1089 C1106 1.574 . S
C1089 C1108 1.368 . S
C1089 H1113 0.949 . S
H1090 C1094 0.949 . S
C1091 C1092 1.349 . S
C1091 C1093 1.327 . S
C1091 H1114 0.950 . S
C1092 C1091 1.349 . S
C1092 C1104 1.349 . S
C1093 C1091 1.327 . S
C1093 C1109 1.429 . S
C1093 H1115 0.950 . S
C1094 H1090 0.949 . S
C1094 C1102 1.574 . S
C1094 C1110 1.368 . S
H1095 C1103 0.950 . S
H1096 C1101 0.950 . S
H1097 C1102 0.949 . S
H1098 C1104 0.950 . S
H1099 C1105 0.950 . S
H1100 C1106 0.949 . S
C1101 H1096 0.950 . S
C1101 C1103 1.327 . S
C1101 C1107 1.429 . S
C1102 C1094 1.574 . S
C1102 H1097 0.949 . S
C1102 C1108 1.368 . S
C1103 C1087 1.349 . S
C1103 H1095 0.950 . S
C1103 C1101 1.327 . S
C1104 C1092 1.349 . S
C1104 H1098 0.950 . S
C1104 C1105 1.327 . S
C1105 H1099 0.950 . S
C1105 C1104 1.327 . S
C1105 C1109 1.429 . S
C1106 C1089 1.574 . S
C1106 H1100 0.949 . S
C1106 C1110 1.368 . S
C1107 C1088 1.429 . S
C1107 C1101 1.429 . S
C1107 C1108 1.523 . S
C1108 C1089 1.368 . S
C1108 C1102 1.368 . S
C1108 C1107 1.523 . S
C1109 C1093 1.429 . S
C1109 C1105 1.429 . S
C1109 C1110 1.523 . S
C1110 C1094 1.368 . S
C1110 C1106 1.368 . S
C1110 C1109 1.523 . S
H1111 C1086 0.950 . S
H1112 C1088 0.950 . S
H1113 C1089 0.949 . S
H1114 C1091 0.950 . S
H1115 C1093 0.950 . S
C1116 C1117 1.349 . S
C1116 C1118 1.327 . S
C1116 H1141 0.950 . S
C1117 C1116 1.349 . S
C1117 C1133 1.349 . S
C1118 C1116 1.327 . S
C1118 C1137 1.429 . S
C1118 H1142 0.950 . S
C1119 C1136 1.574 . S
C1119 C1138 1.368 . S
C1119 H1143 0.949 . S
H1120 C1124 0.949 . S
C1121 C1122 1.349 . S
C1121 C1123 1.327 . S
C1121 H1144 0.950 . S
C1122 C1121 1.349 . S
C1122 C1134 1.349 . S
C1123 C1121 1.327 . S
C1123 C1139 1.429 . S
C1123 H1145 0.950 . S
C1124 H1120 0.949 . S
C1124 C1132 1.574 . S
C1124 C1140 1.368 . S
H1125 C1133 0.950 . S
H1126 C1131 0.950 . S
H1127 C1132 0.949 . S
H1128 C1134 0.950 . S
H1129 C1135 0.950 . S
H1130 C1136 0.949 . S
C1131 H1126 0.950 . S
C1131 C1133 1.327 . S
C1131 C1137 1.429 . S
C1132 C1124 1.574 . S
C1132 H1127 0.949 . S
C1132 C1138 1.368 . S
C1133 C1117 1.349 . S
C1133 H1125 0.950 . S
C1133 C1131 1.327 . S
C1134 C1122 1.349 . S
C1134 H1128 0.950 . S
C1134 C1135 1.327 . S
C1135 H1129 0.950 . S
C1135 C1134 1.327 . S
C1135 C1139 1.429 . S
C1136 C1119 1.574 . S
C1136 H1130 0.949 . S
C1136 C1140 1.368 . S
C1137 C1118 1.429 . S
C1137 C1131 1.429 . S
C1137 C1138 1.523 . S
C1138 C1119 1.368 . S
C1138 C1132 1.368 . S
C1138 C1137 1.523 . S
C1139 C1123 1.429 . S
C1139 C1135 1.429 . S
C1139 C1140 1.523 . S
C1140 C1124 1.368 . S
C1140 C1136 1.368 . S
C1140 C1139 1.523 . S
H1141 C1116 0.950 . S
H1142 C1118 0.950 . S
H1143 C1119 0.949 . S
H1144 C1121 0.950 . S
H1145 C1123 0.950 . S
C1146 C1147 1.349 . S
C1146 C1148 1.327 . S
C1146 H1171 0.950 . S
C1147 C1146 1.349 . S
C1147 C1163 1.349 . S
C1148 C1146 1.327 . S
C1148 C1167 1.429 . S
C1148 H1172 0.950 . S
C1149 C1166 1.574 . S
C1149 C1168 1.368 . S
C1149 H1173 0.949 . S
H1150 C1154 0.949 . S
C1151 C1152 1.349 . S
C1151 C1153 1.327 . S
C1151 H1174 0.950 . S
C1152 C1151 1.349 . S
C1152 C1164 1.349 . S
C1153 C1151 1.327 . S
C1153 C1169 1.429 . S
C1153 H1175 0.950 . S
C1154 H1150 0.949 . S
C1154 C1162 1.574 . S
C1154 C1170 1.368 . S
H1155 C1163 0.950 . S
H1156 C1161 0.950 . S
H1157 C1162 0.949 . S
H1158 C1164 0.950 . S
H1159 C1165 0.950 . S
H1160 C1166 0.949 . S
C1161 H1156 0.950 . S
C1161 C1163 1.327 . S
C1161 C1167 1.429 . S
C1162 C1154 1.574 . S
C1162 H1157 0.949 . S
C1162 C1168 1.368 . S
C1163 C1147 1.349 . S
C1163 H1155 0.950 . S
C1163 C1161 1.327 . S
C1164 C1152 1.349 . S
C1164 H1158 0.950 . S
C1164 C1165 1.327 . S
C1165 H1159 0.950 . S
C1165 C1164 1.327 . S
C1165 C1169 1.429 . S
C1166 C1149 1.574 . S
C1166 H1160 0.949 . S
C1166 C1170 1.368 . S
C1167 C1148 1.429 . S
C1167 C1161 1.429 . S
C1167 C1168 1.523 . S
C1168 C1149 1.368 . S
C1168 C1162 1.368 . S
C1168 C1167 1.523 . S
C1169 C1153 1.429 . S
C1169 C1165 1.429 . S
C1169 C1170 1.523 . S
C1170 C1154 1.368 . S
C1170 C1166 1.368 . S
C1170 C1169 1.523 . S
H1171 C1146 0.950 . S
H1172 C1148 0.950 . S
H1173 C1149 0.949 . S
H1174 C1151 0.950 . S
H1175 C1153 0.950 . S
C457 C21 2.393 . S
C462 C320 2.392 . S
C487 C61 2.280 . S
C492 C362 2.341 . S
C522 C392 0.951 . S
C517 C82 0.952 . S
C547 C135 1.073 . S
C552 C426 1.076 . S
C582 C383 1.906 . S
C577 C15 1.894 . S
C612 C337 1.929 . S
C607 C42 1.870 . S
C642 C430 1.384 . S
C637 C101 1.386 . S
C672 C396 1.411 . S
C667 C122 1.407 . S
C697 C2 2.286 . S
C702 C451 2.293 . S
C732 C358 1.098 . S
C727 C95 1.093 . S
C757 C141 1.166 . S
C762 C333 1.168 . S
C787 C55 2.184 . S
C792 C417 2.201 . S
C822 C349 2.403 . S
C817 C181 2.342 . S
C847 C202 2.255 . S
C852 C371 2.315 . S
C877 C255 0.964 . S
C882 C401 0.969 . S
C907 C295 1.046 . S
C912 C435 1.050 . S
C937 C175 1.885 . S
C942 C354 1.902 . S
C972 C328 1.939 . S
C967 C221 1.885 . S
C1002 C439 1.325 . S
C997 C242 1.271 . S
C1032 C405 1.491 . S
C1027 C301 1.493 . S
C1057 C162 2.171 . S
C1062 C422 2.236 . S
C1092 C367 1.123 . S
C1087 C261 1.091 . S
C1122 C324 1.157 . S
C1117 C282 1.146 . S
C1147 C215 2.227 . S
C1152 C388 2.244 . S
