# Generated by pormake.
# Topology ocu, (6,8)-cn, num edge types: 1
# Building blocks:
#     Node 0, Type 0, BuildingBlock: BETDEL_clean_sbu_0, # of connection points: 6
#     Node 1, Type 0, BuildingBlock: BETDEL_clean_sbu_0, # of connection points: 6
#     Node 2, Type 0, BuildingBlock: BETDEL_clean_sbu_0, # of connection points: 6
#     Node 3, Type 0, BuildingBlock: BETDEL_clean_sbu_0, # of connection points: 6
#     Node 4, Type 0, BuildingBlock: BETDEL_clean_sbu_0, # of connection points: 6
#     Node 5, Type 0, BuildingBlock: BETDEL_clean_sbu_0, # of connection points: 6
#     Node 6, Type 0, BuildingBlock: BETDEL_clean_sbu_0, # of connection points: 6
#     Node 7, Type 0, BuildingBlock: BETDEL_clean_sbu_0, # of connection points: 6
#     Node 8, Type 1, BuildingBlock: GIZVER_clean_sbu_0, # of connection points: 8
#     Node 9, Type 1, BuildingBlock: GIZVER_clean_sbu_0, # of connection points: 8
#     Node 10, Type 1, BuildingBlock: GIZVER_clean_sbu_0, # of connection points: 8
#     Node 11, Type 1, BuildingBlock: GIZVER_clean_sbu_0, # of connection points: 8
#     Node 12, Type 1, BuildingBlock: GIZVER_clean_sbu_0, # of connection points: 8
#     Node 13, Type 1, BuildingBlock: GIZVER_clean_sbu_0, # of connection points: 8
#     Edge 14, Type (0, 1), BuildingBlock: ZUJKAS_clean_linker_0, # of connection points: 2
#     Edge 15, Type (0, 1), BuildingBlock: ZUJKAS_clean_linker_0, # of connection points: 2
#     Edge 16, Type (0, 1), BuildingBlock: ZUJKAS_clean_linker_0, # of connection points: 2
#     Edge 17, Type (0, 1), BuildingBlock: ZUJKAS_clean_linker_0, # of connection points: 2
#     Edge 18, Type (0, 1), BuildingBlock: ZUJKAS_clean_linker_0, # of connection points: 2
#     Edge 19, Type (0, 1), BuildingBlock: ZUJKAS_clean_linker_0, # of connection points: 2
#     Edge 20, Type (0, 1), BuildingBlock: ZUJKAS_clean_linker_0, # of connection points: 2
#     Edge 21, Type (0, 1), BuildingBlock: ZUJKAS_clean_linker_0, # of connection points: 2
#     Edge 22, Type (0, 1), BuildingBlock: ZUJKAS_clean_linker_0, # of connection points: 2
#     Edge 23, Type (0, 1), BuildingBlock: ZUJKAS_clean_linker_0, # of connection points: 2
#     Edge 24, Type (0, 1), BuildingBlock: ZUJKAS_clean_linker_0, # of connection points: 2
#     Edge 25, Type (0, 1), BuildingBlock: ZUJKAS_clean_linker_0, # of connection points: 2
#     Edge 26, Type (0, 1), BuildingBlock: ZUJKAS_clean_linker_0, # of connection points: 2
#     Edge 27, Type (0, 1), BuildingBlock: ZUJKAS_clean_linker_0, # of connection points: 2
#     Edge 28, Type (0, 1), BuildingBlock: ZUJKAS_clean_linker_0, # of connection points: 2
#     Edge 29, Type (0, 1), BuildingBlock: ZUJKAS_clean_linker_0, # of connection points: 2
#     Edge 30, Type (0, 1), BuildingBlock: ZUJKAS_clean_linker_0, # of connection points: 2
#     Edge 31, Type (0, 1), BuildingBlock: ZUJKAS_clean_linker_0, # of connection points: 2
#     Edge 32, Type (0, 1), BuildingBlock: ZUJKAS_clean_linker_0, # of connection points: 2
#     Edge 33, Type (0, 1), BuildingBlock: ZUJKAS_clean_linker_0, # of connection points: 2
#     Edge 34, Type (0, 1), BuildingBlock: ZUJKAS_clean_linker_0, # of connection points: 2
#     Edge 35, Type (0, 1), BuildingBlock: ZUJKAS_clean_linker_0, # of connection points: 2
#     Edge 36, Type (0, 1), BuildingBlock: ZUJKAS_clean_linker_0, # of connection points: 2
#     Edge 37, Type (0, 1), BuildingBlock: ZUJKAS_clean_linker_0, # of connection points: 2
#     Edge 38, Type (0, 1), BuildingBlock: ZUJKAS_clean_linker_0, # of connection points: 2
#     Edge 39, Type (0, 1), BuildingBlock: ZUJKAS_clean_linker_0, # of connection points: 2
#     Edge 40, Type (0, 1), BuildingBlock: ZUJKAS_clean_linker_0, # of connection points: 2
#     Edge 41, Type (0, 1), BuildingBlock: ZUJKAS_clean_linker_0, # of connection points: 2
#     Edge 42, Type (0, 1), BuildingBlock: ZUJKAS_clean_linker_0, # of connection points: 2
#     Edge 43, Type (0, 1), BuildingBlock: ZUJKAS_clean_linker_0, # of connection points: 2
#     Edge 44, Type (0, 1), BuildingBlock: ZUJKAS_clean_linker_0, # of connection points: 2
#     Edge 45, Type (0, 1), BuildingBlock: ZUJKAS_clean_linker_0, # of connection points: 2
#     Edge 46, Type (0, 1), BuildingBlock: ZUJKAS_clean_linker_0, # of connection points: 2
#     Edge 47, Type (0, 1), BuildingBlock: ZUJKAS_clean_linker_0, # of connection points: 2
#     Edge 48, Type (0, 1), BuildingBlock: ZUJKAS_clean_linker_0, # of connection points: 2
#     Edge 49, Type (0, 1), BuildingBlock: ZUJKAS_clean_linker_0, # of connection points: 2
#     Edge 50, Type (0, 1), BuildingBlock: ZUJKAS_clean_linker_0, # of connection points: 2
#     Edge 51, Type (0, 1), BuildingBlock: ZUJKAS_clean_linker_0, # of connection points: 2
#     Edge 52, Type (0, 1), BuildingBlock: ZUJKAS_clean_linker_0, # of connection points: 2
#     Edge 53, Type (0, 1), BuildingBlock: ZUJKAS_clean_linker_0, # of connection points: 2
#     Edge 54, Type (0, 1), BuildingBlock: ZUJKAS_clean_linker_0, # of connection points: 2
#     Edge 55, Type (0, 1), BuildingBlock: ZUJKAS_clean_linker_0, # of connection points: 2
#     Edge 56, Type (0, 1), BuildingBlock: ZUJKAS_clean_linker_0, # of connection points: 2
#     Edge 57, Type (0, 1), BuildingBlock: ZUJKAS_clean_linker_0, # of connection points: 2
#     Edge 58, Type (0, 1), BuildingBlock: ZUJKAS_clean_linker_0, # of connection points: 2
#     Edge 59, Type (0, 1), BuildingBlock: ZUJKAS_clean_linker_0, # of connection points: 2
#     Edge 60, Type (0, 1), BuildingBlock: ZUJKAS_clean_linker_0, # of connection points: 2
#     Edge 61, Type (0, 1), BuildingBlock: ZUJKAS_clean_linker_0, # of connection points: 2
# Relax obj value: 0.135
# Max RMSD: 0.281
# Mean RMSD: 0.185
data_MOF--net-ocu--node1-BETDEL_clean_sbu_0--node2-GIZVER_clean_sbu_0--edge1-ZUJKAS_clean_linker_0
_symmetry_space_group_name_H-M    P1
_symmetry_Int_Tables_number       1
_symmetry_cell_setting            triclinic
loop_
_symmetry_equiv_pos_as_xyz
'x, y, z'
_cell_length_a     51.817522
_cell_length_b     54.737939
_cell_length_c     37.706947
_cell_angle_alpha  90.75388
_cell_angle_beta   92.081597
_cell_angle_gamma 103.07972
loop_
_atom_site_label
_atom_site_type_symbol
_atom_site_fract_x
_atom_site_fract_y
_atom_site_fract_z
_atom_type_partial_charge
Dy0 Dy 0.27715 0.25518 0.28751 0.0
C1 C 0.22824 0.28437 0.16391 0.0
C2 C 0.29904 0.2354 0.34415 0.0
Dy3 Dy 0.24644 0.26021 0.21903 0.0
O4 O 0.30951 0.25649 0.32952 0.0
O5 O 0.27639 0.22544 0.32825 0.0
O6 O 0.30024 0.29496 0.28313 0.0
O7 O 0.28756 0.27288 0.23701 0.0
C8 C 0.29871 0.29457 0.2486 0.0
C9 C 0.2243 0.22073 0.25755 0.0
O10 O 0.27429 0.23832 0.19592 0.0
O11 O 0.29022 0.2273 0.25028 0.0
O12 O 0.21873 0.261 0.17154 0.0
O13 O 0.24781 0.29408 0.18588 0.0
O14 O 0.2219 0.22091 0.22303 0.0
O15 O 0.23597 0.24224 0.26936 0.0
O16 O 0.24977 0.27747 0.31099 0.0
O17 O 0.23147 0.2864 0.25692 0.0
C18 C 0.28839 0.22522 0.21492 0.0
C19 C 0.23436 0.28938 0.29213 0.0
Dy20 Dy 0.78381 0.24432 0.26526 0.0
C21 C 0.71092 0.29052 0.19126 0.0
C22 C 0.81795 0.2243 0.30547 0.0
Dy23 Dy 0.74428 0.27359 0.23658 0.0
O24 O 0.81397 0.22109 0.27139 0.0
O25 O 0.8031 0.23836 0.31783 0.0
O26 O 0.77965 0.22188 0.21383 0.0
O27 O 0.74771 0.23508 0.23196 0.0
C28 C 0.75578 0.22445 0.20631 0.0
C29 C 0.77148 0.2934 0.29597 0.0
O30 O 0.71699 0.2445 0.2665 0.0
O31 O 0.74926 0.23108 0.30032 0.0
O32 O 0.71338 0.29546 0.2252 0.0
O33 O 0.72687 0.27661 0.18206 0.0
O34 O 0.74784 0.29639 0.28747 0.0
O35 O 0.77996 0.28276 0.27059 0.0
O36 O 0.81143 0.27454 0.23718 0.0
O37 O 0.77953 0.28848 0.20351 0.0
C38 C 0.72413 0.23185 0.29343 0.0
C39 C 0.80464 0.28803 0.21097 0.0
Dy40 Dy 0.75272 0.76686 0.28413 0.0
C41 C 0.79381 0.72904 0.16013 0.0
C42 C 0.73418 0.79158 0.3376 0.0
Dy43 Dy 0.77733 0.75443 0.21462 0.0
O44 O 0.72246 0.76974 0.32423 0.0
O45 O 0.75657 0.79962 0.32247 0.0
O46 O 0.72898 0.72722 0.28524 0.0
O47 O 0.73832 0.74465 0.2364 0.0
C48 C 0.72806 0.72434 0.25088 0.0
C49 C 0.80246 0.79664 0.24867 0.0
O50 O 0.7482 0.77498 0.19031 0.0
O51 O 0.73839 0.79197 0.24367 0.0
O52 O 0.80608 0.75102 0.1725 0.0
O53 O 0.77222 0.72116 0.17707 0.0
O54 O 0.80205 0.79394 0.21429 0.0
O55 O 0.79165 0.77628 0.26244 0.0
O56 O 0.78237 0.7468 0.30849 0.0
O57 O 0.79213 0.72961 0.25516 0.0
C58 C 0.7368 0.79051 0.20828 0.0
C59 C 0.79384 0.73125 0.29057 0.0
Dy60 Dy 0.28159 0.74123 0.23391 0.0
C61 C 0.23352 0.81217 0.30273 0.0
C62 C 0.2983 0.70923 0.18943 0.0
Dy63 Dy 0.24998 0.77921 0.25997 0.0
O64 O 0.30495 0.71219 0.22311 0.0
O65 O 0.28278 0.72381 0.1802 0.0
O66 O 0.30811 0.74794 0.28391 0.0
O67 O 0.29072 0.77609 0.2641 0.0
C68 C 0.3036 0.77006 0.29003 0.0
C69 C 0.22801 0.75072 0.20364 0.0
O70 O 0.27974 0.80438 0.22796 0.0
O71 O 0.29536 0.77379 0.19765 0.0
O72 O 0.23025 0.81114 0.26835 0.0
O73 O 0.24517 0.79488 0.31374 0.0
O74 O 0.22356 0.7728 0.21015 0.0
O75 O 0.24073 0.74442 0.22956 0.0
O76 O 0.25206 0.71605 0.26682 0.0
O77 O 0.23634 0.74696 0.2964 0.0
C78 C 0.29348 0.79744 0.20223 0.0
C79 C 0.23797 0.72324 0.29206 0.0
Dy80 Dy 0.28489 0.73906 0.76854 0.0
C81 C 0.21388 0.7888 0.6961 0.0
C82 C 0.31748 0.72058 0.81312 0.0
Dy83 Dy 0.24688 0.76924 0.73888 0.0
O84 O 0.3119 0.71337 0.78023 0.0
O85 O 0.30519 0.73782 0.82177 0.0
O86 O 0.28072 0.71598 0.71817 0.0
O87 O 0.24873 0.7301 0.73508 0.0
C88 C 0.25702 0.71891 0.71004 0.0
C89 C 0.27625 0.78976 0.79651 0.0
O90 O 0.21859 0.74101 0.76917 0.0
O91 O 0.25008 0.72682 0.8032 0.0
O92 O 0.21769 0.79326 0.73002 0.0
O93 O 0.22826 0.77379 0.6854 0.0
O94 O 0.2526 0.79312 0.78927 0.0
O95 O 0.28333 0.7781 0.77116 0.0
O96 O 0.31312 0.76569 0.73649 0.0
O97 O 0.28158 0.78073 0.70344 0.0
C98 C 0.22517 0.72805 0.79612 0.0
C99 C 0.30636 0.77848 0.70949 0.0
Dy100 Dy 0.25492 0.26398 0.78552 0.0
C101 C 0.28999 0.21911 0.6632 0.0
C102 C 0.23821 0.28924 0.84003 0.0
Dy103 Dy 0.27742 0.24917 0.71526 0.0
O104 O 0.22503 0.26827 0.82557 0.0
O105 O 0.2609 0.29612 0.82528 0.0
O106 O 0.23028 0.22457 0.78819 0.0
O107 O 0.23918 0.24119 0.73889 0.0
C108 C 0.22861 0.22125 0.75389 0.0
C109 C 0.30387 0.29234 0.74506 0.0
O110 O 0.24715 0.26906 0.69198 0.0
O111 O 0.24055 0.28885 0.74481 0.0
O112 O 0.29998 0.24309 0.66703 0.0
O113 O 0.27271 0.21187 0.68718 0.0
O114 O 0.30416 0.28739 0.71124 0.0
O115 O 0.2931 0.27287 0.76116 0.0
O116 O 0.28416 0.24347 0.8098 0.0
O117 O 0.29439 0.22645 0.75661 0.0
C118 C 0.23722 0.28589 0.70963 0.0
C119 C 0.29596 0.22816 0.79199 0.0
Dy120 Dy 0.78332 0.23559 0.73689 0.0
C121 C 0.7334 0.30746 0.7995 0.0
C122 C 0.80349 0.20148 0.70087 0.0
Dy123 Dy 0.75066 0.27343 0.75949 0.0
O124 O 0.81682 0.22379 0.71045 0.0
O125 O 0.77949 0.19773 0.71158 0.0
O126 O 0.80718 0.24229 0.78886 0.0
O127 O 0.79152 0.27083 0.7665 0.0
C128 C 0.8031 0.26469 0.79363 0.0
C129 C 0.72982 0.24488 0.70269 0.0
O130 O 0.7816 0.297 0.72718 0.0
O131 O 0.79084 0.26429 0.69422 0.0
O132 O 0.7318 0.30624 0.76501 0.0
O133 O 0.74395 0.28986 0.81208 0.0
O134 O 0.72431 0.26644 0.70974 0.0
O135 O 0.74243 0.23865 0.72891 0.0
O136 O 0.75659 0.21138 0.7733 0.0
O137 O 0.73585 0.24144 0.79596 0.0
C138 C 0.79226 0.28855 0.69948 0.0
C139 C 0.74009 0.21839 0.79518 0.0
Dy140 Dy 0.77966 0.75093 0.78775 0.0
C141 C 0.72946 0.77778 0.6623 0.0
C142 C 0.79765 0.72744 0.84383 0.0
Dy143 Dy 0.74997 0.75672 0.71886 0.0
O144 O 0.80711 0.75069 0.83563 0.0
O145 O 0.77827 0.71738 0.82175 0.0
O146 O 0.80449 0.79017 0.78426 0.0
O147 O 0.79102 0.76892 0.73765 0.0
C148 C 0.80276 0.79033 0.74971 0.0
C149 C 0.72697 0.71741 0.75729 0.0
O150 O 0.77753 0.73448 0.6957 0.0
O151 O 0.79459 0.72454 0.75001 0.0
O152 O 0.7196 0.75559 0.6742 0.0
O153 O 0.75082 0.78815 0.68083 0.0
O154 O 0.72553 0.71736 0.72277 0.0
O155 O 0.73859 0.73891 0.76909 0.0
O156 O 0.75163 0.77287 0.81043 0.0
O157 O 0.73709 0.78483 0.75586 0.0
C158 C 0.79234 0.72205 0.7147 0.0
C159 C 0.7383 0.78657 0.79123 0.0
Co160 Co 0.04875 0.96017 0.49909 0.0
Co161 Co 0.04502 0.97972 0.56277 0.0
Co162 Co 0.0153 1.00561 0.50609 0.0
O163 O 0.0466 0.99218 0.51691 0.0
H164 H 0.06291 1.00469 0.51472 0.0
O165 O 0.98397 0.01877 0.4948 0.0
Co166 Co 0.98088 0.0508 0.51052 0.0
Co167 Co 0.98651 0.03025 0.44832 0.0
H168 H 0.96774 1.00615 0.49677 0.0
O169 O 0.0738 0.97078 0.58681 0.0
O170 O 0.04467 0.94736 0.5476 0.0
O171 O 1.01255 0.97813 0.58642 0.0
O172 O 0.99043 0.97961 0.5352 0.0
O173 O 0.02477 0.02781 0.54856 0.0
O174 O 0.97373 0.0795 0.52422 0.0
O175 O 0.94571 0.0441 0.50325 0.0
O176 O 0.01794 0.06174 0.52228 0.0
O177 O 0.04022 0.0317 0.47735 0.0
O178 O 0.01918 0.03122 0.42506 0.0
O179 O 0.98644 0.0629 0.46154 0.0
O180 O 0.95833 0.03816 0.42232 0.0
C181 C 0.07932 0.94392 0.49003 0.0
C182 C 0.99985 0.95999 0.46601 0.0
C183 C 0.99095 0.97372 0.56803 0.0
C184 C 0.06451 0.94951 0.57021 0.0
C185 C 0.94971 0.06694 0.51597 0.0
C186 C 0.02987 0.0515 0.54596 0.0
C187 C 0.04036 0.03663 0.44421 0.0
C188 C 0.96734 0.05999 0.43753 0.0
O189 O 0.05498 0.93162 0.48337 0.0
O190 O 0.08412 0.9665 0.50387 0.0
O191 O 1.00573 0.98364 0.46344 0.0
O192 O 1.01142 0.94949 0.48967 0.0
Co193 Co 0.54841 0.95903 0.98227 0.0
Co194 Co 0.55461 0.9785 0.04498 0.0
Co195 Co 0.51603 0.00919 1.00095 0.0
O196 O 0.54817 0.99279 0.00186 0.0
H197 H 0.56403 1.00479 0.99569 0.0
O198 O 0.48372 0.02544 1.00007 0.0
Co199 Co 0.48243 0.05847 0.02141 0.0
Co200 Co 0.4778 0.04096 0.95792 0.0
H201 H 0.46782 0.01312 0.00515 0.0
O202 O 0.58846 0.97649 0.06044 0.0
O203 O 0.55819 0.94678 0.03016 0.0
O204 O 0.52643 0.97421 0.07745 0.0
O205 O 0.49939 0.99153 0.0437 0.0
O206 O 0.53718 0.03759 0.03087 0.0
O207 O 0.47865 0.08719 0.04254 0.0
O208 O 0.44682 0.05233 0.03255 0.0
O209 O 0.51961 0.06981 0.01454 0.0
O210 O 0.53269 0.02685 0.95818 0.0
O211 O 0.50638 0.04607 0.92614 0.0
O212 O 0.47331 0.07207 0.97403 0.0
O213 O 0.44407 0.04265 0.94171 0.0
C214 C 0.57603 0.94075 0.95901 0.0
C215 C 0.49227 0.95748 0.97721 0.0
C216 C 0.50414 0.97954 0.07112 0.0
C217 C 0.58088 0.95357 0.04821 0.0
C218 C 0.45401 0.07543 0.04522 0.0
C219 C 0.53923 0.06097 0.02551 0.0
C220 C 0.52828 0.03979 0.9316 0.0
C221 C 0.4511 0.06536 0.95486 0.0
O222 O 0.55135 0.92947 0.96279 0.0
O223 O 0.58371 0.96423 0.97 0.0
O224 O 0.49505 0.98082 0.97092 0.0
O225 O 0.51121 0.94859 0.99053 0.0
Co226 Co 0.04764 0.46126 0.98752 0.0
Co227 Co 0.05645 0.48507 0.04924 0.0
Co228 Co 1.01443 0.50751 0.00209 0.0
O229 O 0.0474 0.49447 0.00381 0.0
H230 H 0.06223 0.50665 0.99517 0.0
O231 O 0.98141 0.52049 1.00012 0.0
Co232 Co 0.98114 0.5538 0.0157 0.0
Co233 Co 0.97253 0.52947 0.95416 0.0
H234 H 0.96659 0.50836 0.00891 0.0
O235 O 0.09057 0.48105 0.06237 0.0
O236 O 0.0572 0.45245 0.0362 0.0
O237 O 0.0296 0.48241 0.08351 0.0
O238 O 0.99846 0.48793 0.04397 0.0
O239 O 0.03356 0.53594 0.03373 0.0
O240 O 0.97754 0.58353 0.03124 0.0
O241 O 0.94661 0.54725 0.02676 0.0
O242 O 0.01749 0.56518 0.00664 0.0
O243 O 0.03042 0.52706 0.96036 0.0
O244 O 0.99971 0.53254 0.92021 0.0
O245 O 0.97179 0.56213 0.96678 0.0
O246 O 0.93843 0.53357 0.94065 0.0
C247 C 0.07554 0.44422 0.96749 0.0
C248 C 0.99311 0.45637 0.97817 0.0
C249 C 1.00549 0.48108 0.07443 0.0
C250 C 0.08101 0.45828 0.05064 0.0
C251 C 0.9532 0.5712 0.03481 0.0
C252 C 0.03589 0.55868 0.02472 0.0
C253 C 0.02374 0.53406 0.92987 0.0
C254 C 0.94803 0.55634 0.95228 0.0
O255 O 0.05129 0.43172 0.97126 0.0
O256 O 0.08208 0.46807 0.97617 0.0
O257 O 0.99538 0.47928 0.97027 0.0
O258 O 1.01122 0.44961 0.99655 0.0
Co259 Co 0.54588 0.45913 0.99268 0.0
Co260 Co 0.54489 0.47704 0.05797 0.0
Co261 Co 0.51429 0.50547 0.00509 0.0
O262 O 0.54507 0.49069 0.01297 0.0
H263 H 0.56156 0.50291 0.01051 0.0
O264 O 0.48359 0.52032 0.99686 0.0
Co265 Co 0.48336 0.55286 0.01427 0.0
Co266 Co 0.48501 0.53229 0.95051 0.0
H267 H 0.46698 0.5084 0.99981 0.0
O268 O 0.57434 0.46736 0.07904 0.0
O269 O 0.54378 0.44511 0.04049 0.0
O270 O 0.51329 0.47494 0.08379 0.0
O271 O 0.48967 0.48016 0.0352 0.0
O272 O 0.52668 0.52719 0.04762 0.0
O273 O 0.47917 0.58222 0.03002 0.0
O274 O 0.44801 0.54851 0.01044 0.0
O275 O 0.52073 0.56161 0.02215 0.0
O276 O 0.53896 0.53086 0.97526 0.0
O277 O 0.5164 0.53223 0.92458 0.0
O278 O 0.48709 0.56507 0.96522 0.0
O279 O 0.45658 0.54177 0.92733 0.0
C280 C 0.57548 0.44257 0.9794 0.0
C281 C 0.496 0.46007 0.96444 0.0
C282 C 0.49113 0.47266 0.06715 0.0
C283 C 0.5644 0.4466 0.06151 0.0
C284 C 0.45436 0.57134 0.02358 0.0
C285 C 0.5326 0.5509 0.04522 0.0
C286 C 0.53821 0.53634 0.94238 0.0
C287 C 0.46698 0.56316 0.94304 0.0
O288 O 0.55081 0.43076 0.97421 0.0
O289 O 0.58129 0.46485 0.9943 0.0
O290 O 0.50176 0.4838 0.96247 0.0
O291 O 0.50841 0.44928 0.98671 0.0
Co292 Co 0.06474 0.47378 0.51508 0.0
Co293 Co 0.04557 0.47238 0.45232 0.0
Co294 Co 0.01449 0.50771 0.50008 0.0
O295 O 0.02982 0.47622 0.49491 0.0
H296 H 0.01652 0.46118 0.49921 0.0
O297 O 0.99893 0.53908 0.50554 0.0
Co298 Co 0.96406 0.54164 0.48496 0.0
Co299 Co 0.98247 0.54232 0.54801 0.0
H300 H 1.01225 0.55421 0.50168 0.0
O301 O 0.04569 0.44121 0.43237 0.0
O302 O 0.07801 0.46529 0.46734 0.0
O303 O 0.05208 0.50172 0.42423 0.0
O304 O 0.0338 0.52602 0.4591 0.0
O305 O 0.98372 0.49119 0.46827 0.0
O306 O 0.9339 0.54629 0.46432 0.0
O307 O 0.97156 0.57544 0.47495 0.0
O308 O 0.95122 0.50641 0.49102 0.0
O309 O 0.99525 0.48934 0.54085 0.0
O310 O 0.97537 0.51252 0.57527 0.0
O311 O 0.95018 0.54951 0.53261 0.0
O312 O 0.98193 0.57321 0.56876 0.0
C313 C 0.08208 0.44621 0.53812 0.0
C314 C 0.06958 0.52641 0.52422 0.0
C315 C 0.04699 0.52273 0.43205 0.0
C316 C 0.0697 0.44559 0.44615 0.0
C317 C 0.94696 0.56947 0.46232 0.0
C318 C 0.95945 0.4887 0.47599 0.0
C319 C 0.98127 0.49189 0.56736 0.0
C320 C 0.95806 0.56886 0.55453 0.0
O321 O 0.0951 0.46935 0.5354 0.0
O322 O 0.05737 0.4401 0.52594 0.0
O323 O 0.04533 0.52423 0.53187 0.0
O324 O 0.07739 0.50885 0.50814 0.0
Co325 Co 0.56463 0.97626 0.51466 0.0
Co326 Co 0.54391 0.97654 0.45085 0.0
Co327 Co 0.51325 1.00566 0.50454 0.0
O328 O 0.53033 0.9773 0.49548 0.0
H329 H 0.51793 0.96148 0.49866 0.0
O330 O 0.4959 0.03392 0.51346 0.0
Co331 Co 0.46146 0.0348 0.49386 0.0
Co332 Co 0.4817 0.03442 0.55776 0.0
H333 H 0.50827 0.0498 0.51049 0.0
O334 O 0.54764 0.94661 0.43025 0.0
O335 O 0.57726 0.97313 0.46595 0.0
O336 O 0.54732 1.00655 0.4243 0.0
O337 O 0.53219 0.02776 0.46684 0.0
O338 O 0.48464 0.98938 0.46971 0.0
O339 O 0.43083 0.03922 0.47548 0.0
O340 O 0.4681 0.0684 0.48974 0.0
O341 O 0.45003 0.99902 0.49456 0.0
O342 O 0.49456 0.98354 0.54247 0.0
O343 O 0.47814 1.00442 0.58409 0.0
O344 O 0.44844 0.03761 0.54235 0.0
O345 O 0.47767 0.06421 0.57844 0.0
C346 C 0.58235 0.94839 0.53131 0.0
C347 C 0.56641 0.0272 0.53166 0.0
C348 C 0.54321 0.02678 0.43724 0.0
C349 C 0.57096 0.95282 0.44608 0.0
C350 C 0.44352 0.06266 0.47761 0.0
C351 C 0.46023 0.98381 0.47694 0.0
C352 C 0.48314 0.98438 0.5718 0.0
C353 C 0.45445 0.05786 0.56235 0.0
O354 O 0.59528 0.97175 0.53294 0.0
O355 O 0.5578 0.94276 0.51908 0.0
O356 O 0.54204 0.02199 0.53922 0.0
O357 O 0.57614 0.01188 0.51357 0.0
H358 H 0.22182 0.21994 0.32998 0.0
H359 H 0.19605 0.1869 0.36609 0.0
H360 H 0.16651 0.1433 0.27104 0.0
H361 H 0.1929 0.17584 0.23506 0.0
H362 H 0.14369 0.16985 0.3671 0.0
H363 H 0.18766 0.09042 0.33056 0.0
H364 H 0.20275 0.12239 0.3199 0.0
H365 H 0.17597 0.10428 0.29215 0.0
C366 C 0.21018 0.20311 0.31686 0.0
C367 C 0.20958 0.2004 0.27968 0.0
C368 C 0.19537 0.18425 0.33752 0.0
C369 C 0.17963 0.16229 0.32146 0.0
C370 C 0.17902 0.15965 0.28427 0.0
H371 H 0.05077 0.0426 0.37403 0.0
H372 H 0.08696 0.07248 0.3477 0.0
C373 C 0.19397 0.1784 0.26365 0.0
C374 C 0.16263 0.14287 0.34324 0.0
H375 H 0.14531 0.07974 0.35755 0.0
C376 C 0.14437 0.15021 0.36543 0.0
C377 C 0.16348 0.11718 0.34126 0.0
C378 C 0.18372 0.10814 0.31997 0.0
C379 C 0.12626 0.13253 0.38433 0.0
C380 C 0.12646 0.10679 0.38123 0.0
C381 C 0.14514 0.09948 0.35985 0.0
C382 C 0.10613 0.08712 0.39788 0.0
C383 C 0.10627 0.14136 0.40639 0.0
C384 C 0.10528 0.08486 0.43495 0.0
C385 C 0.08463 0.06756 0.4502 0.0
C386 C 0.06435 0.05237 0.42861 0.0
C387 C 0.06594 0.05407 0.39148 0.0
C388 C 0.08665 0.07114 0.37634 0.0
H389 H 0.10623 0.16138 0.40199 0.0
H390 H 0.08602 0.12981 0.40017 0.0
H391 H 0.11101 0.13915 0.43493 0.0
H392 H 0.12027 0.09685 0.45208 0.0
H393 H 0.08398 0.06682 0.47886 0.0
H394 H 0.84952 0.19528 0.28121 0.0
H395 H 0.87837 0.17438 0.31604 0.0
H396 H 0.85692 0.20701 0.4123 0.0
H397 H 0.82755 0.22795 0.37732 0.0
H398 H 0.92177 0.19499 0.36487 0.0
H399 H 0.83757 0.12978 0.42674 0.0
H400 H 0.83254 0.1479 0.38852 0.0
H401 H 0.84002 0.163 0.43135 0.0
C402 C 0.85103 0.19812 0.30977 0.0
C403 C 0.83624 0.213 0.32672 0.0
C404 C 0.86758 0.18629 0.32958 0.0
C405 C 0.86958 0.18911 0.36664 0.0
C406 C 0.85538 0.20451 0.3837 0.0
H407 H 0.98251 0.10832 0.46282 0.0
H408 H 0.95976 0.14229 0.45288 0.0
C409 C 0.83872 0.21642 0.36378 0.0
C410 C 0.88561 0.17461 0.38677 0.0
H411 H 0.87943 0.12051 0.43257 0.0
C412 C 0.91277 0.17904 0.38052 0.0
C413 C 0.87354 0.15382 0.40685 0.0
C414 C 0.8443 0.14811 0.41378 0.0
C415 C 0.92793 0.16221 0.39184 0.0
C416 C 0.91552 0.14072 0.41039 0.0
C417 C 0.88876 0.13715 0.41854 0.0
C418 C 0.92898 0.12025 0.41783 0.0
C419 C 0.95648 0.16661 0.3816 0.0
C420 C 0.91881 0.09652 0.402 0.0
C421 C 0.93147 0.07699 0.40802 0.0
C422 C 0.95454 0.08089 0.42997 0.0
C423 C 0.96476 0.10474 0.44571 0.0
C424 C 0.9519 0.12421 0.43997 0.0
H425 H 0.96148 0.18155 0.36168 0.0
H426 H 0.96965 0.17243 0.40553 0.0
H427 H 0.9608 0.14912 0.37055 0.0
H428 H 0.90112 0.09318 0.38474 0.0
H429 H 0.92306 0.05882 0.39564 0.0
H430 H 0.80954 0.80108 0.32023 0.0
H431 H 0.84073 0.83369 0.35443 0.0
H432 H 0.86535 0.87199 0.25787 0.0
H433 H 0.83387 0.83927 0.22325 0.0
H434 H 0.90698 0.86169 0.30172 0.0
H435 H 0.84087 0.90737 0.37842 0.0
H436 H 0.83263 0.87374 0.38026 0.0
H437 H 0.82965 0.88867 0.3386 0.0
C438 C 0.82114 0.81673 0.30631 0.0
C439 C 0.81927 0.81775 0.26913 0.0
C440 C 0.83889 0.83538 0.32591 0.0
C441 C 0.85505 0.85536 0.30868 0.0
C442 C 0.85283 0.85677 0.27159 0.0
H443 H 0.96654 0.97749 0.42031 0.0
H444 H 0.9315 0.953 0.38079 0.0
C445 C 0.83491 0.83813 0.25191 0.0
C446 C 0.87593 0.87328 0.32932 0.0
H447 H 0.88612 0.91444 0.39988 0.0
C448 C 0.90247 0.87349 0.32289 0.0
C449 C 0.86989 0.88865 0.35677 0.0
C450 C 0.84171 0.88983 0.36378 0.0
C451 C 0.9232 0.88803 0.34414 0.0
C452 C 0.91709 0.90247 0.37264 0.0
C453 C 0.89062 0.90304 0.37823 0.0
C454 C 0.938 0.91707 0.39702 0.0
C455 C 0.95145 0.88775 0.33612 0.0
C456 C 0.95292 0.90484 0.41953 0.0
C457 C 0.97295 0.91873 0.44227 0.0
C458 C 0.97833 0.94508 0.44274 0.0
C459 C 0.96303 0.95721 0.42043 0.0
C460 C 0.94296 0.9433 0.39789 0.0
H461 H 0.95301 0.88032 0.30891 0.0
H462 H 0.96438 0.90691 0.33889 0.0
H463 H 0.95901 0.87558 0.35531 0.0
H464 H 0.94906 0.88454 0.41949 0.0
H465 H 0.98432 0.90886 0.4592 0.0
H466 H 0.22196 0.85625 0.28409 0.0
H467 H 0.2055 0.88531 0.32236 0.0
H468 H 0.20895 0.83709 0.41135 0.0
H469 H 0.22679 0.80881 0.37356 0.0
H470 H 0.16022 0.87329 0.35034 0.0
H471 H 0.23469 0.90361 0.45994 0.0
H472 H 0.24207 0.88839 0.42 0.0
H473 H 0.22598 0.87008 0.45569 0.0
C474 C 0.21964 0.8522 0.31199 0.0
C475 C 0.2253 0.83033 0.326 0.0
C476 C 0.21043 0.86881 0.33384 0.0
C477 C 0.20632 0.86353 0.36982 0.0
C478 C 0.21272 0.84197 0.38398 0.0
H479 H 0.07678 0.89433 0.4786 0.0
H480 H 0.11117 0.87574 0.45453 0.0
C481 C 0.22252 0.82564 0.36229 0.0
C482 C 0.19154 0.87829 0.39089 0.0
H483 H 0.18958 0.90623 0.47195 0.0
C484 C 0.16695 0.88087 0.37666 0.0
C485 C 0.20035 0.8883 0.42517 0.0
C486 C 0.22737 0.88768 0.44088 0.0
C487 C 0.15047 0.89238 0.39616 0.0
C488 C 0.1584 0.90072 0.43132 0.0
C489 C 0.18342 0.89921 0.44521 0.0
C490 C 0.14045 0.91084 0.45362 0.0
C491 C 0.12458 0.8953 0.37894 0.0
C492 C 0.14637 0.93636 0.46326 0.0
C493 C 0.12685 0.947 0.47745 0.0
C494 C 0.10125 0.9322 0.48168 0.0
C495 C 0.09619 0.90625 0.47484 0.0
C496 C 0.11578 0.89561 0.46121 0.0
H497 H 0.12491 0.89435 0.34951 0.0
H498 H 0.10828 0.87988 0.3874 0.0
H499 H 0.12003 0.91342 0.38696 0.0
H500 H 0.16545 0.94829 0.45771 0.0
H501 H 0.13129 0.96703 0.48289 0.0
H502 H 0.18124 0.81784 0.71701 0.0
H503 H 0.15178 0.83645 0.67965 0.0
H504 H 0.17609 0.80224 0.5866 0.0
H505 H 0.20592 0.78345 0.62416 0.0
H506 H 0.17811 0.85409 0.58112 0.0
H507 H 0.08125 0.80344 0.6277 0.0
H508 H 0.10394 0.81468 0.66449 0.0
H509 H 0.11105 0.79178 0.63381 0.0
C510 C 0.18015 0.81409 0.68864 0.0
C511 C 0.19574 0.79926 0.67336 0.0
C512 C 0.16318 0.82454 0.66739 0.0
C513 C 0.16143 0.82024 0.63054 0.0
C514 C 0.177 0.80544 0.61508 0.0
H515 H 0.04619 0.90121 0.5468 0.0
H516 H 0.06925 0.86696 0.55009 0.0
C517 C 0.19398 0.79482 0.63646 0.0
C518 C 0.14475 0.83312 0.60865 0.0
H519 H 0.08367 0.84628 0.60834 0.0
C520 C 0.15725 0.85197 0.58613 0.0
C521 C 0.11743 0.82985 0.61448 0.0
C522 C 0.10259 0.80862 0.63614 0.0
C523 C 0.14372 0.86944 0.57245 0.0
C524 C 0.11738 0.86812 0.5823 0.0
C525 C 0.10408 0.84759 0.60147 0.0
C526 C 0.10442 0.88925 0.57719 0.0
C527 C 0.15817 0.88976 0.54903 0.0
C528 C 0.11644 0.91297 0.5919 0.0
C529 C 0.10333 0.93255 0.59016 0.0
C530 C 0.07792 0.92863 0.57387 0.0
C531 C 0.06581 0.90478 0.55948 0.0
C532 C 0.07897 0.88524 0.56114 0.0
H533 H 0.17228 0.88264 0.53242 0.0
H534 H 0.14426 0.89717 0.53139 0.0
H535 H 0.16986 0.90544 0.56592 0.0
H536 H 0.13575 0.91621 0.60542 0.0
H537 H 0.11315 0.95072 0.60141 0.0
H538 H 0.21981 0.21512 0.6827 0.0
H539 H 0.18771 0.18184 0.65086 0.0
H540 H 0.16581 0.14571 0.74982 0.0
H541 H 0.19813 0.17915 0.78208 0.0
H542 H 0.18084 0.12797 0.64945 0.0
H543 H 0.09628 0.16093 0.70531 0.0
H544 H 0.12972 0.17985 0.70749 0.0
H545 H 0.12048 0.15396 0.73667 0.0
C546 C 0.20847 0.1999 0.69768 0.0
C547 C 0.21129 0.19972 0.73485 0.0
C548 C 0.19016 0.18092 0.67945 0.0
C549 C 0.17427 0.16157 0.69809 0.0
C550 C 0.17776 0.16072 0.7351 0.0
H551 H 0.06253 0.03518 0.59415 0.0
H552 H 0.09798 0.0607 0.6321 0.0
C553 C 0.19621 0.17972 0.75342 0.0
C554 C 0.15301 0.1433 0.67862 0.0
H555 H 0.08585 0.127 0.6644 0.0
C556 C 0.16004 0.1275 0.65291 0.0
C557 C 0.12599 0.14315 0.68298 0.0
C558 C 0.1175 0.16046 0.70939 0.0
C559 C 0.14066 0.11164 0.63107 0.0
C560 C 0.11367 0.11157 0.63538 0.0
C561 C 0.10663 0.12714 0.66137 0.0
C562 C 0.09243 0.09612 0.61229 0.0
C563 C 0.14918 0.09571 0.60278 0.0
C564 C 0.0774 0.10771 0.58903 0.0
C565 C 0.05709 0.09324 0.56733 0.0
C566 C 0.05137 0.06693 0.56878 0.0
C567 C 0.06643 0.05541 0.59234 0.0
C568 C 0.08678 0.06991 0.61393 0.0
H569 H 0.17081 0.10144 0.59856 0.0
H570 H 0.14451 0.07582 0.61087 0.0
H571 H 0.13824 0.09685 0.5772 0.0
H572 H 0.0815 0.12798 0.58758 0.0
H573 H 0.04583 0.10267 0.54954 0.0
H574 H 0.77574 0.15621 0.67531 0.0
H575 H 0.79046 0.12855 0.63266 0.0
H576 H 0.86673 0.18033 0.63068 0.0
H577 H 0.85212 0.20814 0.6731 0.0
H578 H 0.83971 0.16242 0.56111 0.0
H579 H 0.84729 0.08665 0.65593 0.0
H580 H 0.81713 0.09775 0.65359 0.0
H581 H 0.84717 0.11805 0.67107 0.0
C582 C 0.79573 0.16153 0.66598 0.0
C583 C 0.81295 0.18413 0.6775 0.0
C584 C 0.80401 0.1458 0.64164 0.0
C585 C 0.82959 0.15253 0.62875 0.0
C586 C 0.84686 0.175 0.6404 0.0
H587 H 0.95164 0.11636 0.52826 0.0
H588 H 0.91528 0.13487 0.5452 0.0
C589 C 0.8386 0.19072 0.66471 0.0
C590 C 0.83882 0.13615 0.60336 0.0
H591 H 0.86374 0.08383 0.59945 0.0
C592 C 0.84455 0.14498 0.56914 0.0
C593 C 0.84461 0.11329 0.61396 0.0
C594 C 0.83889 0.10327 0.65065 0.0
C595 C 0.85758 0.1322 0.54585 0.0
C596 C 0.86531 0.11042 0.5575 0.0
C597 C 0.8577 0.10057 0.59067 0.0
C598 C 0.88527 0.10025 0.53913 0.0
C599 C 0.8638 0.14246 0.50948 0.0
C600 C 0.88031 0.07472 0.52966 0.0
C601 C 0.90116 0.06402 0.52015 0.0
C602 C 0.92721 0.0787 0.52069 0.0
C603 C 0.9318 0.10454 0.52809 0.0
C604 C 0.91097 0.11523 0.53724 0.0
H605 H 0.84992 0.15416 0.50065 0.0
H606 H 0.8842 0.15441 0.51009 0.0
H607 H 0.86266 0.12695 0.48984 0.0
H608 H 0.8606 0.06287 0.53137 0.0
H609 H 0.89707 0.04406 0.51431 0.0
H610 H 0.8087 0.78966 0.67795 0.0
H611 H 0.83626 0.822 0.6425 0.0
H612 H 0.85888 0.86882 0.73643 0.0
H613 H 0.83127 0.83658 0.77201 0.0
H614 H 0.84586 0.89479 0.67342 0.0
H615 H 0.91879 0.83638 0.64925 0.0
H616 H 0.88466 0.82194 0.63813 0.0
H617 H 0.89502 0.82957 0.68366 0.0
C618 C 0.8194 0.80692 0.691 0.0
C619 C 0.818 0.81051 0.72783 0.0
C620 C 0.83521 0.82535 0.67073 0.0
C621 C 0.84989 0.84772 0.68687 0.0
C622 C 0.84779 0.85168 0.72343 0.0
H623 H 0.98474 0.96126 0.63758 0.0
H624 H 0.94822 0.93157 0.66328 0.0
C625 C 0.83207 0.83322 0.74374 0.0
C626 C 0.86827 0.86656 0.66606 0.0
H627 H 0.92658 0.87607 0.62301 0.0
C628 C 0.86338 0.89064 0.66212 0.0
C629 C 0.89124 0.86119 0.65153 0.0
C630 C 0.89799 0.83596 0.65596 0.0
C631 C 0.88095 0.90945 0.64418 0.0
C632 C 0.90397 0.90409 0.63004 0.0
C633 C 0.90872 0.88 0.6336 0.0
C634 C 0.92464 0.92382 0.61431 0.0
C635 C 0.87532 0.93519 0.64114 0.0
C636 C 0.92329 0.92963 0.57821 0.0
C637 C 0.94428 0.94672 0.5632 0.0
C638 C 0.96701 0.95815 0.5841 0.0
C639 C 0.96769 0.95281 0.62054 0.0
C640 C 0.94681 0.93581 0.63539 0.0
H641 H 0.85629 0.93632 0.65298 0.0
H642 H 0.89165 0.94925 0.65471 0.0
H643 H 0.8746 0.94026 0.61276 0.0
H644 H 0.90633 0.92047 0.56149 0.0
H645 H 0.94311 0.95027 0.53506 0.0
H646 H 0.32258 0.19814 0.24424 0.0
H647 H 0.34824 0.17218 0.21421 0.0
H648 H 0.31413 0.18737 0.11328 0.0
H649 H 0.28891 0.2139 0.1431 0.0
H650 H 0.33654 0.13015 0.17522 0.0
H651 H 0.39042 0.20446 0.08968 0.0
H652 H 0.3706 0.21115 0.12528 0.0
H653 H 0.35512 0.19909 0.08315 0.0
C654 C 0.3205 0.1961 0.2156 0.0
C655 C 0.30359 0.20852 0.19632 0.0
C656 C 0.33528 0.18107 0.19833 0.0
C657 C 0.33384 0.17791 0.16108 0.0
C658 C 0.31648 0.18983 0.14183 0.0
H659 H 0.39925 0.0599 0.05197 0.0
H660 H 0.36918 0.08335 0.07852 0.0
C661 C 0.30177 0.20497 0.15908 0.0
C662 C 0.35034 0.16214 0.14275 0.0
H663 H 0.39566 0.16326 0.07812 0.0
C664 C 0.34943 0.13748 0.15396 0.0
C665 C 0.36765 0.17141 0.11513 0.0
C666 C 0.37127 0.19804 0.1028 0.0
C667 C 0.36494 0.12211 0.13859 0.0
C668 C 0.38178 0.1312 0.11043 0.0
C669 C 0.38272 0.15587 0.0993 0.0
C670 C 0.39978 0.11625 0.09364 0.0
C671 C 0.36374 0.09651 0.15366 0.0
C672 C 0.42713 0.12674 0.09197 0.0
C673 C 0.44429 0.11343 0.07649 0.0
C674 C 0.43488 0.089 0.06188 0.0
C675 C 0.40745 0.07847 0.06318 0.0
C676 C 0.39017 0.09192 0.07868 0.0
H677 H 0.35583 0.095 0.18074 0.0
H678 H 0.35037 0.08215 0.13635 0.0
H679 H 0.38366 0.09214 0.1549 0.0
H680 H 0.4354 0.14536 0.103 0.0
H681 H 0.46515 0.12245 0.07609 0.0
H682 H 0.8582 0.29543 0.22301 0.0
H683 H 0.89244 0.33011 0.20254 0.0
H684 H 0.83337 0.35728 0.14106 0.0
H685 H 0.79883 0.32279 0.16155 0.0
H686 H 0.90704 0.34536 0.13267 0.0
H687 H 0.86933 0.41732 0.20755 0.0
H688 H 0.85947 0.38423 0.21636 0.0
H689 H 0.84515 0.39694 0.17875 0.0
C690 C 0.85246 0.30857 0.20479 0.0
C691 C 0.82572 0.30649 0.19421 0.0
C692 C 0.87206 0.3284 0.19322 0.0
C693 C 0.86525 0.34648 0.17102 0.0
C694 C 0.83884 0.34376 0.15887 0.0
H695 H 0.95183 0.47481 0.06484 0.0
H696 H 0.91779 0.44353 0.09267 0.0
C697 C 0.8192 0.32392 0.17038 0.0
C698 C 0.88576 0.3684 0.16104 0.0
H699 H 0.90421 0.43227 0.16867 0.0
C700 C 0.90655 0.36435 0.14067 0.0
C701 C 0.885 0.39308 0.17178 0.0
C702 C 0.86369 0.39826 0.19508 0.0
C703 C 0.92636 0.38449 0.12994 0.0
C704 C 0.92545 0.40918 0.14038 0.0
C705 C 0.90478 0.41325 0.16094 0.0
C706 C 0.94531 0.43096 0.12861 0.0
C707 C 0.94777 0.37932 0.10679 0.0
C708 C 0.97179 0.43495 0.141 0.0
C709 C 0.99134 0.45285 0.12527 0.0
C710 C 0.98463 0.46688 0.09677 0.0
C711 C 0.95773 0.46418 0.0865 0.0
C712 C 0.93822 0.44633 0.10234 0.0
H713 H 0.9431 0.35971 0.09621 0.0
H714 H 0.95069 0.39229 0.08413 0.0
H715 H 0.96677 0.3825 0.12259 0.0
H716 H 0.97747 0.42336 0.16161 0.0
H717 H 1.01183 0.45452 0.13397 0.0
H718 H 0.71081 0.82468 0.23582 0.0
H719 H 0.6842 0.84974 0.20443 0.0
H720 H 0.69929 0.81738 0.10468 0.0
H721 H 0.7264 0.7924 0.13595 0.0
H722 H 0.70359 0.86756 0.09905 0.0
H723 H 0.60961 0.82699 0.16304 0.0
H724 H 0.63603 0.83959 0.19481 0.0
H725 H 0.63809 0.81324 0.16685 0.0
C726 C 0.70852 0.82275 0.20719 0.0
C727 C 0.72083 0.80624 0.18863 0.0
C728 C 0.69301 0.83706 0.18919 0.0
C729 C 0.68906 0.83524 0.15203 0.0
C730 C 0.70172 0.81913 0.13332 0.0
H731 H 0.56835 0.90171 0.03963 0.0
H732 H 0.59419 0.87188 0.06121 0.0
C733 C 0.71728 0.80477 0.15133 0.0
C734 C 0.67222 0.85048 0.13286 0.0
H735 H 0.61102 0.86477 0.13123 0.0
C736 C 0.6833 0.86676 0.10601 0.0
C737 C 0.64544 0.84932 0.1411 0.0
C738 C 0.63147 0.83116 0.16775 0.0
C739 C 0.66887 0.88241 0.08843 0.0
C740 C 0.64262 0.88224 0.0981 0.0
C741 C 0.63118 0.86527 0.12392 0.0
C742 C 0.62723 0.90028 0.08303 0.0
C743 C 0.68189 0.89895 0.0594 0.0
C744 C 0.63696 0.92628 0.08789 0.0
C745 C 0.6222 0.94331 0.07576 0.0
C746 C 0.59712 0.93498 0.05834 0.0
C747 C 0.58754 0.90892 0.05283 0.0
C748 C 0.60231 0.8918 0.06529 0.0
H749 H 0.69815 0.89164 0.04785 0.0
H750 H 0.66728 0.90061 0.03778 0.0
H751 H 0.69057 0.918 0.07063 0.0
H752 H 0.65581 0.93348 0.10195 0.0
H753 H 0.63038 0.96315 0.08064 0.0
H754 H 0.19459 0.75929 0.14986 0.0
H755 H 0.16593 0.72779 0.11024 0.0
H756 H 0.19869 0.66979 0.1583 0.0
H757 H 0.22774 0.70115 0.19717 0.0
H758 H 0.18976 0.66246 0.08556 0.0
H759 H 0.10122 0.68135 0.14999 0.0
H760 H 0.12171 0.70823 0.13032 0.0
H761 H 0.13451 0.69379 0.16755 0.0
C762 C 0.19589 0.73987 0.15157 0.0
C763 C 0.21306 0.73258 0.17687 0.0
C764 C 0.17946 0.7219 0.12909 0.0
C765 C 0.17978 0.69639 0.13192 0.0
C766 C 0.19802 0.68934 0.15581 0.0
H767 H 0.07797 0.5538 0.06842 0.0
H768 H 0.11527 0.58735 0.09012 0.0
C769 C 0.21454 0.70728 0.17808 0.0
C770 C 0.15991 0.6768 0.11201 0.0
H771 H 0.09341 0.6515 0.10301 0.0
C772 C 0.16868 0.66009 0.08924 0.0
C773 C 0.13244 0.67362 0.11717 0.0
C774 C 0.12184 0.69002 0.14281 0.0
C775 C 0.15062 0.64036 0.07132 0.0
C776 C 0.12324 0.63726 0.07659 0.0
C777 C 0.11447 0.65408 0.09899 0.0
C778 C 0.10311 0.61642 0.05983 0.0
C779 C 0.16078 0.62306 0.04671 0.0
C780 C 0.08417 0.6217 0.03547 0.0
C781 C 0.06287 0.6027 0.02321 0.0
C782 C 0.05995 0.57804 0.03534 0.0
C783 C 0.07958 0.57259 0.0587 0.0
C784 C 0.10097 0.59169 0.07093 0.0
H785 H 0.18185 0.63062 0.04054 0.0
H786 H 0.15917 0.60463 0.05941 0.0
H787 H 0.1486 0.61985 0.0215 0.0
H788 H 0.08549 0.6407 0.02668 0.0
H789 H 0.0483 0.60755 0.00492 0.0
H790 H 0.32775 0.78806 0.80763 0.0
H791 H 0.36106 0.81533 0.84648 0.0
H792 H 0.30167 0.85216 0.88409 0.0
H793 H 0.26791 0.82456 0.84525 0.0
H794 H 0.37217 0.86847 0.83876 0.0
H795 H 0.34478 0.83975 0.97599 0.0
H796 H 0.33409 0.81925 0.93771 0.0
H797 H 0.31864 0.84482 0.9462 0.0
C798 C 0.32161 0.80161 0.82466 0.0
C799 C 0.29525 0.80427 0.82335 0.0
C800 C 0.34069 0.81718 0.84683 0.0
C801 C 0.3338 0.83565 0.86825 0.0
C802 C 0.30728 0.83776 0.86811 0.0
H803 H 0.44786 0.969 0.94677 0.0
H804 H 0.4077 0.93991 0.92353 0.0
C805 C 0.28808 0.8221 0.84583 0.0
C806 C 0.35503 0.85422 0.88761 0.0
H807 H 0.38078 0.87468 0.97026 0.0
C808 C 0.374 0.8699 0.86751 0.0
C809 C 0.35737 0.85588 0.92507 0.0
C810 C 0.33779 0.83896 0.9477 0.0
C811 C 0.3954 0.88715 0.88384 0.0
C812 C 0.39772 0.88896 0.9213 0.0
C813 C 0.37876 0.87332 0.94153 0.0
C814 C 0.42036 0.90654 0.93952 0.0
C815 C 0.41574 0.90295 0.86089 0.0
C816 C 0.44037 0.89736 0.9572 0.0
C817 C 0.46346 0.91392 0.97044 0.0
C818 C 0.46687 0.93996 0.96627 0.0
C819 C 0.4461 0.94908 0.95009 0.0
C820 C 0.42308 0.9325 0.93683 0.0
H821 H 0.41376 0.89596 0.8329 0.0
H822 H 0.41313 0.92252 0.86118 0.0
H823 H 0.43613 0.90328 0.87135 0.0
H824 H 0.43856 0.87734 0.95953 0.0
H825 H 0.47892 0.90624 0.98302 0.0
H826 H 0.26125 0.33622 0.86608 0.0
H827 H 0.23947 0.36486 0.8979 0.0
H828 H 0.16741 0.30703 0.89807 0.0
H829 H 0.18919 0.27833 0.86713 0.0
H830 H 0.19779 0.38071 0.87045 0.0
H831 H 0.16896 0.33499 0.99739 0.0
H832 H 0.19389 0.32659 0.97046 0.0
H833 H 0.1592 0.31366 0.96034 0.0
C834 C 0.241 0.32945 0.87385 0.0
C835 C 0.22688 0.30508 0.86421 0.0
C836 C 0.22857 0.34582 0.89194 0.0
C837 C 0.20189 0.33803 0.90081 0.0
C838 C 0.18818 0.31331 0.89241 0.0
H839 H 0.06758 0.39509 0.94703 0.0
H840 H 0.10086 0.37164 0.93328 0.0
C841 C 0.2006 0.29695 0.87448 0.0
C842 C 0.18732 0.35636 0.91461 0.0
H843 H 0.14356 0.36431 0.97692 0.0
C844 C 0.1864 0.37746 0.89419 0.0
C845 C 0.17241 0.35207 0.94554 0.0
C846 C 0.17387 0.33074 0.96988 0.0
C847 C 0.16985 0.39357 0.90271 0.0
C848 C 0.15401 0.38857 0.93266 0.0
C849 C 0.15565 0.36802 0.95384 0.0
C850 C 0.13422 0.40334 0.94103 0.0
C851 C 0.16837 0.41499 0.8785 0.0
C852 C 0.14195 0.42901 0.95001 0.0
C853 C 0.12289 0.44258 0.95782 0.0
C854 C 0.09581 0.43066 0.95679 0.0
C855 C 0.08823 0.40495 0.94777 0.0
C856 C 0.10724 0.39144 0.94009 0.0
H857 H 0.17786 0.41331 0.8529 0.0
H858 H 0.14743 0.4159 0.87285 0.0
H859 H 0.17875 0.43293 0.89174 0.0
H860 H 0.16273 0.43844 0.95151 0.0
H861 H 0.12941 0.46225 0.96525 0.0
H862 H 0.74313 0.16941 0.8007 0.0
H863 H 0.71014 0.1352 0.82462 0.0
H864 H 0.66526 0.18788 0.85921 0.0
H865 H 0.69815 0.22242 0.83536 0.0
H866 H 0.6702 0.14723 0.90849 0.0
H867 H 0.63544 0.11488 0.77064 0.0
H868 H 0.67037 0.11931 0.781 0.0
H869 H 0.65549 0.14588 0.78074 0.0
C870 C 0.7265 0.17387 0.8139 0.0
C871 C 0.72306 0.19864 0.81564 0.0
C872 C 0.70766 0.15425 0.82743 0.0
C873 C 0.68514 0.15908 0.84294 0.0
C874 C 0.68251 0.18389 0.84702 0.0
H875 H 0.52991 0.07447 0.87955 0.0
H876 H 0.56969 0.10068 0.85558 0.0
C877 C 0.70134 0.20357 0.83344 0.0
C878 C 0.66346 0.13817 0.85277 0.0
H879 H 0.61375 0.09142 0.81731 0.0
C880 C 0.65796 0.13485 0.8887 0.0
C881 C 0.64751 0.12235 0.82662 0.0
C882 C 0.65226 0.12576 0.78753 0.0
C883 C 0.63662 0.11609 0.89927 0.0
C884 C 0.62064 0.10025 0.87311 0.0
C885 C 0.62628 0.10347 0.83718 0.0
C886 C 0.59674 0.08159 0.88256 0.0
C887 C 0.63076 0.11395 0.93819 0.0
C888 C 0.59883 0.06138 0.90401 0.0
C889 C 0.57616 0.04634 0.91778 0.0
C890 C 0.55105 0.05131 0.91022 0.0
C891 C 0.54891 0.07021 0.88612 0.0
C892 C 0.57162 0.08525 0.87243 0.0
H893 H 0.64243 0.13021 0.95409 0.0
H894 H 0.60934 0.11254 0.94211 0.0
H895 H 0.63587 0.0967 0.94861 0.0
H896 H 0.61809 0.05799 0.91145 0.0
H897 H 0.57854 0.03175 0.93593 0.0
H898 H 0.78095 0.6782 0.85891 0.0
H899 H 0.80566 0.65228 0.89182 0.0
H900 H 0.86699 0.71795 0.9197 0.0
H901 H 0.84248 0.744 0.88592 0.0
H902 H 0.88576 0.68265 0.88592 0.0
H903 H 0.82325 0.63721 0.99299 0.0
H904 H 0.80532 0.63385 0.95099 0.0
H905 H 0.81735 0.66462 0.97084 0.0
C906 C 0.79935 0.68723 0.87286 0.0
C907 C 0.80994 0.71306 0.86966 0.0
C908 C 0.81336 0.67239 0.89198 0.0
C909 C 0.83807 0.68316 0.90859 0.0
C910 C 0.84788 0.70926 0.90727 0.0
H911 H 0.96392 0.60645 0.96857 0.0
H912 H 0.93761 0.63816 0.96444 0.0
C913 C 0.83388 0.72412 0.888 0.0
C914 C 0.85538 0.66676 0.92185 0.0
H915 H 0.85669 0.61617 0.97347 0.0
C916 C 0.87965 0.66845 0.90563 0.0
C917 C 0.84723 0.64803 0.94722 0.0
C918 C 0.82197 0.64596 0.96675 0.0
C919 C 0.89539 0.65123 0.91268 0.0
C920 C 0.88693 0.63208 0.93733 0.0
C921 C 0.86306 0.63081 0.95447 0.0
C922 C 0.90197 0.61244 0.94394 0.0
C923 C 0.92023 0.65293 0.89219 0.0
C924 C 0.89034 0.58726 0.93521 0.0
C925 C 0.90522 0.56896 0.93806 0.0
C926 C 0.93202 0.57555 0.9497 0.0
C927 C 0.94339 0.60073 0.95927 0.0
C928 C 0.92841 0.61892 0.95685 0.0
H929 H 0.92047 0.66479 0.86846 0.0
H930 H 0.93779 0.66145 0.90955 0.0
H931 H 0.92222 0.63403 0.88337 0.0
H932 H 0.86992 0.58186 0.92528 0.0
H933 H 0.89579 0.54972 0.9308 0.0
H934 H 0.24308 0.33444 0.15408 0.0
H935 H 0.21816 0.36066 0.12221 0.0
H936 H 0.1607 0.29455 0.08496 0.0
H937 H 0.18516 0.26813 0.11826 0.0
H938 H 0.2011 0.36621 0.05512 0.0
H939 H 0.11506 0.33113 0.13927 0.0
H940 H 0.14683 0.32373 0.1478 0.0
H941 H 0.12472 0.30742 0.11292 0.0
C942 C 0.22533 0.32543 0.13871 0.0
C943 C 0.21577 0.29929 0.13908 0.0
C944 C 0.21113 0.34045 0.12041 0.0
C945 C 0.18719 0.32963 0.10193 0.0
C946 C 0.17873 0.30335 0.09988 0.0
H947 H 0.06562 0.40831 0.033 0.0
H948 H 0.09185 0.37659 0.03816 0.0
C949 C 0.1928 0.28826 0.11864 0.0
C950 C 0.17033 0.34616 0.08769 0.0
H951 H 0.11117 0.36223 0.09882 0.0
C952 C 0.18132 0.3652 0.0644 0.0
C953 C 0.14457 0.34494 0.09997 0.0
C954 C 0.13212 0.32588 0.1266 0.0
C955 C 0.16749 0.38331 0.05358 0.0
C956 C 0.14199 0.38239 0.06652 0.0
C957 C 0.13064 0.36283 0.08875 0.0
C958 C 0.12725 0.40226 0.05949 0.0
C959 C 0.18056 0.40339 0.02883 0.0
C960 C 0.13842 0.42731 0.06965 0.0
C961 C 0.12354 0.44558 0.06639 0.0
C962 C 0.09706 0.4391 0.05335 0.0
C963 C 0.08598 0.41401 0.04305 0.0
C964 C 0.10096 0.39582 0.04594 0.0
H965 H 0.19437 0.39647 0.01145 0.0
H966 H 0.16574 0.41009 0.01192 0.0
H967 H 0.19233 0.41956 0.04475 0.0
H968 H 0.15843 0.43263 0.08107 0.0
H969 H 0.13268 0.46471 0.07461 0.0
H970 H 0.23046 0.69524 0.84856 0.0
H971 H 0.19558 0.66182 0.87076 0.0
H972 H 0.13695 0.68842 0.8076 0.0
H973 H 0.17162 0.72178 0.78489 0.0
H974 H 0.14709 0.66185 0.9053 0.0
H975 H 0.13072 0.61525 0.77181 0.0
H976 H 0.15953 0.63981 0.78351 0.0
H977 H 0.12823 0.64746 0.77306 0.0
C978 C 0.21012 0.69427 0.83977 0.0
C979 C 0.20387 0.71095 0.81452 0.0
C980 C 0.19024 0.67514 0.85248 0.0
C981 C 0.16389 0.6724 0.84011 0.0
C982 C 0.15732 0.69 0.81682 0.0
H983 H 0.01838 0.56415 0.87387 0.0
H984 H 0.05345 0.59666 0.85008 0.0
C985 C 0.17716 0.70912 0.80406 0.0
C986 C 0.14353 0.6504 0.85019 0.0
H987 H 0.10184 0.59712 0.81635 0.0
C988 C 0.13721 0.64765 0.88595 0.0
C989 C 0.13085 0.63194 0.82474 0.0
C990 C 0.13777 0.63354 0.78616 0.0
C991 C 0.11805 0.62704 0.89693 0.0
C992 C 0.10539 0.60857 0.87145 0.0
C993 C 0.11171 0.61133 0.8357 0.0
C994 C 0.08505 0.58653 0.88149 0.0
C995 C 0.11112 0.62548 0.93555 0.0
C996 C 0.09157 0.56927 0.90536 0.0
C997 C 0.07165 0.55066 0.91896 0.0
C998 C 0.0449 0.549 0.90875 0.0
C999 C 0.03875 0.56494 0.88236 0.0
C1000 C 0.05873 0.58361 0.86887 0.0
H1001 H 0.11791 0.64386 0.94976 0.0
H1002 H 0.08939 0.61895 0.93827 0.0
H1003 H 0.12093 0.61182 0.94883 0.0
H1004 H 0.11193 0.5709 0.91468 0.0
H1005 H 0.0771 0.53849 0.93894 0.0
H1006 H 0.30664 0.22681 0.86437 0.0
H1007 H 0.33373 0.20193 0.89591 0.0
H1008 H 0.34881 0.16917 0.79645 0.0
H1009 H 0.32223 0.19411 0.76481 0.0
H1010 H 0.32901 0.15163 0.90164 0.0
H1011 H 0.42338 0.19149 0.83803 0.0
H1012 H 0.39506 0.20546 0.83397 0.0
H1013 H 0.39695 0.17894 0.80625 0.0
C1014 C 0.31579 0.21441 0.84911 0.0
C1015 C 0.31223 0.21278 0.81182 0.0
C1016 C 0.33134 0.2001 0.86727 0.0
C1017 C 0.34395 0.18387 0.84872 0.0
C1018 C 0.34004 0.18194 0.81157 0.0
H1019 H 0.40184 0.05572 0.92175 0.0
H1020 H 0.37663 0.08536 0.89964 0.0
C1021 C 0.32456 0.1962 0.79342 0.0
C1022 C 0.36061 0.16853 0.86807 0.0
H1023 H 0.42164 0.15386 0.87029 0.0
C1024 C 0.34932 0.15232 0.89487 0.0
C1025 C 0.38738 0.16949 0.86 0.0
C1026 C 0.40152 0.18746 0.83326 0.0
C1027 C 0.36355 0.13657 0.91263 0.0
C1028 C 0.38984 0.13662 0.90326 0.0
C1029 C 0.40147 0.15349 0.87742 0.0
C1030 C 0.40508 0.11859 0.91873 0.0
C1031 C 0.35027 0.12006 0.9415 0.0
C1032 C 0.42985 0.12709 0.93687 0.0
C1033 C 0.44447 0.10999 0.94982 0.0
C1034 C 0.43491 0.08392 0.94441 0.0
C1035 C 0.40999 0.07556 0.92658 0.0
C1036 C 0.39536 0.09258 0.91397 0.0
H1037 H 0.33388 0.12736 0.95271 0.0
H1038 H 0.34171 0.101 0.93023 0.0
H1039 H 0.36469 0.11844 0.96337 0.0
H1040 H 0.43796 0.14702 0.94088 0.0
H1041 H 0.46356 0.11722 0.96326 0.0
H1042 H 0.83915 0.25843 0.84567 0.0
H1043 H 0.86672 0.29133 0.88434 0.0
H1044 H 0.8261 0.34545 0.84075 0.0
H1045 H 0.79883 0.31287 0.80192 0.0
H1046 H 0.8812 0.3583 0.8355 0.0
H1047 H 0.85332 0.33142 0.97281 0.0
H1048 H 0.86047 0.30673 0.94565 0.0
H1049 H 0.83227 0.31944 0.93427 0.0
C1050 C 0.83577 0.27724 0.84494 0.0
C1051 C 0.81703 0.28317 0.82068 0.0
C1052 C 0.8514 0.29597 0.86715 0.0
C1053 C 0.8483 0.32078 0.86554 0.0
C1054 C 0.82872 0.32641 0.84247 0.0
H1055 H 0.94881 0.46364 0.94171 0.0
H1056 H 0.91162 0.43146 0.91675 0.0
C1057 C 0.81318 0.30777 0.82031 0.0
C1058 C 0.86742 0.34139 0.88459 0.0
H1059 H 0.89234 0.36363 0.9668 0.0
C1060 C 0.88346 0.35963 0.86423 0.0
C1061 C 0.87039 0.34292 0.92201 0.0
C1062 C 0.85307 0.32422 0.94508 0.0
C1063 C 0.90293 0.37905 0.8802 0.0
C1064 C 0.90603 0.38058 0.91766 0.0
C1065 C 0.88981 0.36246 0.9381 0.0
C1066 C 0.92694 0.40018 0.93582 0.0
C1067 C 0.92064 0.39719 0.85674 0.0
C1068 C 0.94726 0.39325 0.95605 0.0
C1069 C 0.96841 0.41156 0.97056 0.0
C1070 C 0.96964 0.43717 0.96507 0.0
C1071 C 0.94865 0.44408 0.94602 0.0
C1072 C 0.92742 0.42573 0.93167 0.0
H1073 H 0.91991 0.38985 0.82901 0.0
H1074 H 0.91399 0.41508 0.85613 0.0
H1075 H 0.94154 0.40129 0.86711 0.0
H1076 H 0.94719 0.37364 0.9597 0.0
H1077 H 0.98413 0.40556 0.9853 0.0
H1078 H 0.72784 0.79009 0.86256 0.0
H1079 H 0.70193 0.81668 0.89113 0.0
H1080 H 0.68966 0.8493 0.79031 0.0
H1081 H 0.71465 0.82226 0.76155 0.0
H1082 H 0.70597 0.86507 0.90178 0.0
H1083 H 0.61488 0.83133 0.81795 0.0
H1084 H 0.64258 0.81656 0.81671 0.0
H1085 H 0.64263 0.84446 0.79182 0.0
C1086 C 0.71958 0.80286 0.84636 0.0
C1087 C 0.72331 0.80362 0.80945 0.0
C1088 C 0.70469 0.81821 0.86285 0.0
C1089 C 0.69298 0.83489 0.84308 0.0
C1090 C 0.69746 0.83619 0.8064 0.0
H1091 H 0.62876 0.95743 0.94078 0.0
H1092 H 0.65766 0.93302 0.91363 0.0
C1093 C 0.71209 0.82072 0.78987 0.0
C1094 C 0.67626 0.85082 0.86065 0.0
H1095 H 0.61622 0.8675 0.85411 0.0
C1096 C 0.68632 0.86549 0.89128 0.0
C1097 C 0.65025 0.85139 0.84783 0.0
C1098 C 0.63682 0.8349 0.81703 0.0
C1099 C 0.67156 0.88066 0.90877 0.0
C1100 C 0.64598 0.88197 0.89506 0.0
C1101 C 0.63585 0.86707 0.86471 0.0
C1102 C 0.62878 0.89749 0.91243 0.0
C1103 C 0.68328 0.89451 0.94254 0.0
C1104 C 0.60246 0.8863 0.92042 0.0
C1105 C 0.58581 0.90034 0.93551 0.0
C1106 C 0.59469 0.92626 0.94325 0.0
C1107 C 0.62108 0.93758 0.93545 0.0
C1108 C 0.63779 0.92346 0.92009 0.0
H1109 H 0.69884 0.88602 0.95501 0.0
H1110 H 0.69262 0.91421 0.93635 0.0
H1111 H 0.6678 0.89463 0.9621 0.0
H1112 H 0.59466 0.86646 0.91507 0.0
H1113 H 0.56577 0.89069 0.9411 0.0
H1114 H 0.84352 0.7394 0.13503 0.0
H1115 H 0.86482 0.71081 0.1031 0.0
H1116 H 0.79109 0.65496 0.0974 0.0
H1117 H 0.76994 0.68329 0.13082 0.0
H1118 H 0.82959 0.63596 0.12356 0.0
H1119 H 0.86713 0.68706 0.00358 0.0
H1120 H 0.8762 0.70615 0.0429 0.0
H1121 H 0.84169 0.69554 0.02945 0.0
C1122 C 0.83168 0.72126 0.12621 0.0
C1123 C 0.80511 0.71352 0.13541 0.0
C1124 C 0.84383 0.70497 0.10761 0.0
C1125 C 0.82949 0.68083 0.09718 0.0
C1126 C 0.80253 0.67354 0.10493 0.0
H1127 H 0.899 0.55504 0.02938 0.0
H1128 H 0.866 0.57989 0.04003 0.0
C1129 C 0.79045 0.68973 0.12396 0.0
C1130 C 0.84352 0.66226 0.08264 0.0
H1131 H 0.8893 0.65496 0.02282 0.0
C1132 C 0.84215 0.63985 0.10098 0.0
C1133 C 0.86 0.66732 0.05323 0.0
C1134 C 0.86113 0.6902 0.03095 0.0
C1135 C 0.85795 0.62313 0.09213 0.0
C1136 C 0.87538 0.62884 0.0639 0.0
C1137 C 0.87595 0.65068 0.04454 0.0
C1138 C 0.89492 0.61364 0.05629 0.0
C1139 C 0.85699 0.60023 0.11437 0.0
C1140 C 0.92204 0.62447 0.06144 0.0
C1141 C 0.94084 0.61039 0.05544 0.0
C1142 C 0.93292 0.58514 0.0441 0.0
C1143 C 0.9057 0.57428 0.03885 0.0
C1144 C 0.88684 0.58847 0.04474 0.0
H1145 H 0.84593 0.60087 0.13893 0.0
H1146 H 0.84696 0.58323 0.09866 0.0
H1147 H 0.87734 0.59832 0.12192 0.0
H1148 H 0.92868 0.64386 0.07035 0.0
H1149 H 0.96163 0.61942 0.05942 0.0
H1150 H 0.29167 0.84672 0.20051 0.0
H1151 H 0.32438 0.88109 0.17658 0.0
H1152 H 0.36704 0.82832 0.13595 0.0
H1153 H 0.33426 0.79362 0.15968 0.0
H1154 H 0.37807 0.89044 0.19953 0.0
H1155 H 0.36525 0.87667 0.05312 0.0
H1156 H 0.33993 0.86261 0.0831 0.0
H1157 H 0.36808 0.84916 0.07703 0.0
C1158 C 0.30771 0.84231 0.1859 0.0
C1159 C 0.31051 0.81744 0.18226 0.0
C1160 C 0.32636 0.862 0.17226 0.0
C1161 C 0.34802 0.85719 0.15453 0.0
C1162 C 0.35021 0.83233 0.14919 0.0
H1163 H 0.50338 0.94649 0.12527 0.0
H1164 H 0.46406 0.91956 0.1493 0.0
C1165 C 0.3315 0.81254 0.16282 0.0
C1166 C 0.36962 0.8783 0.14487 0.0
H1167 H 0.40417 0.90567 0.07508 0.0
C1168 C 0.38366 0.89396 0.17229 0.0
C1169 C 0.37665 0.88283 0.10934 0.0
C1170 C 0.36158 0.86709 0.07886 0.0
C1171 C 0.40508 0.91374 0.16516 0.0
C1172 C 0.41268 0.91773 0.12977 0.0
C1173 C 0.39823 0.90247 0.10224 0.0
C1174 C 0.43626 0.93689 0.12057 0.0
C1175 C 0.41945 0.93016 0.19545 0.0
C1176 C 0.43356 0.95598 0.09732 0.0
C1177 C 0.45596 0.97143 0.08355 0.0
C1178 C 0.48143 0.9678 0.09247 0.0
C1179 C 0.4841 0.94981 0.11782 0.0
C1180 C 0.46164 0.9344 0.13164 0.0
H1181 H 0.40722 0.92878 0.21926 0.0
H1182 H 0.43792 0.9241 0.20287 0.0
H1183 H 0.42501 0.9501 0.1876 0.0
H1184 H 0.41407 0.95816 0.08857 0.0
H1185 H 0.45314 0.98518 0.06426 0.0
H1186 H 0.7046 0.22617 0.19137 0.0
H1187 H 0.67288 0.19909 0.1501 0.0
H1188 H 0.73387 0.16242 0.11779 0.0
H1189 H 0.766 0.1898 0.15893 0.0
H1190 H 0.67652 0.18778 0.07072 0.0
H1191 H 0.67151 0.10742 0.16159 0.0
H1192 H 0.68346 0.13954 0.17689 0.0
H1193 H 0.70363 0.12504 0.14959 0.0
C1194 C 0.71142 0.21267 0.17502 0.0
C1195 C 0.73774 0.21001 0.17842 0.0
C1196 C 0.69327 0.19724 0.15146 0.0
C1197 C 0.70104 0.17871 0.13115 0.0
C1198 C 0.72755 0.17659 0.13341 0.0
H1199 H 0.58857 0.05098 0.0306 0.0
H1200 H 0.63026 0.07975 0.04985 0.0
C1201 C 0.74583 0.19223 0.15683 0.0
C1202 C 0.68075 0.16053 0.10983 0.0
H1203 H 0.64195 0.10133 0.11219 0.0
C1204 C 0.66914 0.16875 0.07941 0.0
C1205 C 0.67129 0.13577 0.12129 0.0
C1206 C 0.68292 0.12626 0.15419 0.0
C1207 C 0.64786 0.1529 0.06041 0.0
C1208 C 0.63751 0.12844 0.07283 0.0
C1209 C 0.64984 0.12003 0.1026 0.0
C1210 C 0.61289 0.11182 0.05715 0.0
C1211 C 0.63674 0.16267 0.02737 0.0
C1212 C 0.58925 0.12027 0.05453 0.0
C1213 C 0.56549 0.10397 0.04309 0.0
C1214 C 0.56475 0.07869 0.03489 0.0
C1215 C 0.58847 0.07031 0.03703 0.0
C1216 C 0.61232 0.08675 0.04794 0.0
H1217 H 0.65246 0.1761 0.01381 0.0
H1218 H 0.62745 0.1473 0.00834 0.0
H1219 H 0.6215 0.17292 0.03491 0.0
H1220 H 0.58894 0.13929 0.06245 0.0
H1221 H 0.54752 0.11096 0.04198 0.0
H1222 H 0.69377 0.67363 0.73411 0.0
H1223 H 0.66569 0.64186 0.76959 0.0
H1224 H 0.69747 0.68366 0.86528 0.0
H1225 H 0.72476 0.71604 0.82971 0.0
H1226 H 0.67574 0.61093 0.8198 0.0
H1227 H 0.6197 0.67568 0.87842 0.0
H1228 H 0.64177 0.68467 0.8426 0.0
H1229 H 0.65479 0.68505 0.88757 0.0
C1230 C 0.69475 0.67606 0.76272 0.0
C1231 C 0.71133 0.69743 0.77909 0.0
C1232 C 0.67873 0.65785 0.78301 0.0
C1233 C 0.67898 0.66053 0.82016 0.0
C1234 C 0.6963 0.68144 0.83665 0.0
H1235 H 0.58316 0.56501 0.97572 0.0
H1236 H 0.6198 0.594 0.94808 0.0
C1237 C 0.71211 0.69983 0.81631 0.0
C1238 C 0.66089 0.64152 0.84129 0.0
H1239 H 0.61051 0.63419 0.89926 0.0
C1240 C 0.66154 0.61608 0.83721 0.0
C1241 C 0.64223 0.64811 0.86407 0.0
C1242 C 0.63933 0.67481 0.86823 0.0
C1243 C 0.64403 0.59718 0.855 0.0
C1244 C 0.62534 0.6038 0.87746 0.0
C1245 C 0.62503 0.6292 0.88222 0.0
C1246 C 0.60465 0.58459 0.89423 0.0
C1247 C 0.64552 0.5702 0.84958 0.0
C1248 C 0.5841 0.56956 0.87313 0.0
C1249 C 0.56308 0.55319 0.88879 0.0
C1250 C 0.5622 0.55135 0.92595 0.0
C1251 C 0.58332 0.56579 0.94703 0.0
C1252 C 0.60421 0.58245 0.9313 0.0
H1253 H 0.66446 0.5686 0.83789 0.0
H1254 H 0.64345 0.56019 0.87512 0.0
H1255 H 0.62896 0.56066 0.83124 0.0
H1256 H 0.58387 0.57112 0.84451 0.0
H1257 H 0.54716 0.54238 0.87176 0.0
H1258 H 0.34367 0.6848 0.7972 0.0
H1259 H 0.37291 0.66734 0.83656 0.0
H1260 H 0.36075 0.71617 0.92206 0.0
H1261 H 0.3311 0.73384 0.88251 0.0
H1262 H 0.42083 0.6977 0.87809 0.0
H1263 H 0.34164 0.64039 0.95817 0.0
H1264 H 0.33335 0.65037 0.91457 0.0
H1265 H 0.34289 0.67305 0.95014 0.0
C1266 C 0.34723 0.69186 0.82434 0.0
C1267 C 0.3352 0.71054 0.83699 0.0
C1268 C 0.36393 0.68195 0.8467 0.0
C1269 C 0.36883 0.69056 0.88201 0.0
C1270 C 0.35702 0.70936 0.89484 0.0
H1271 H 0.48542 0.61102 0.96877 0.0
H1272 H 0.46306 0.64575 0.96507 0.0
C1273 C 0.3402 0.71935 0.87232 0.0
C1274 C 0.38608 0.67899 0.9047 0.0
H1275 H 0.38193 0.6276 0.9558 0.0
C1276 C 0.41277 0.68292 0.89621 0.0
C1277 C 0.37519 0.65989 0.92816 0.0
C1278 C 0.3467 0.65552 0.93853 0.0
C1279 C 0.42825 0.66644 0.90762 0.0
C1280 C 0.41659 0.64587 0.92844 0.0
C1281 C 0.39062 0.64337 0.93963 0.0
C1282 C 0.42931 0.62471 0.9338 0.0
C1283 C 0.45598 0.66976 0.89443 0.0
C1284 C 0.41732 0.60133 0.91814 0.0
C1285 C 0.42976 0.58137 0.92065 0.0
C1286 C 0.45443 0.58455 0.93881 0.0
C1287 C 0.46641 0.60804 0.95451 0.0
C1288 C 0.45374 0.62791 0.95243 0.0
H1289 H 0.46044 0.68457 0.87424 0.0
H1290 H 0.47055 0.67517 0.91705 0.0
H1291 H 0.45883 0.65192 0.88261 0.0
H1292 H 0.39847 0.59862 0.9035 0.0
H1293 H 0.41997 0.56347 0.90851 0.0
H1294 H 0.29055 0.32747 0.78745 0.0
H1295 H 0.32084 0.36052 0.82293 0.0
H1296 H 0.38769 0.33823 0.77801 0.0
H1297 H 0.3573 0.30526 0.74263 0.0
H1298 H 0.35658 0.35335 0.87347 0.0
H1299 H 0.40824 0.41366 0.76923 0.0
H1300 H 0.37795 0.39027 0.76007 0.0
H1301 H 0.40936 0.38139 0.7628 0.0
C1302 C 0.31171 0.32972 0.78535 0.0
C1303 C 0.32179 0.31381 0.76299 0.0
C1304 C 0.32896 0.34867 0.80526 0.0
C1305 C 0.35651 0.35198 0.80285 0.0
C1306 C 0.36652 0.33639 0.77969 0.0
H1307 H 0.48048 0.40903 0.95852 0.0
H1308 H 0.44497 0.38427 0.92 0.0
C1309 C 0.34923 0.31754 0.75965 0.0
C1310 C 0.37479 0.37031 0.82659 0.0
H1311 H 0.42959 0.41857 0.82737 0.0
C1312 C 0.37235 0.36782 0.8634 0.0
C1313 C 0.3951 0.3894 0.81341 0.0
C1314 C 0.39768 0.39404 0.7742 0.0
C1315 C 0.39034 0.38326 0.8874 0.0
C1316 C 0.41163 0.40128 0.87418 0.0
C1317 C 0.41344 0.40449 0.83742 0.0
C1318 C 0.43274 0.41639 0.898 0.0
C1319 C 0.38638 0.38008 0.92667 0.0
C1320 C 0.43803 0.44268 0.89775 0.0
C1321 C 0.4585 0.45692 0.91951 0.0
C1322 C 0.47408 0.44508 0.94179 0.0
C1323 C 0.46873 0.41873 0.94189 0.0
C1324 C 0.44834 0.40454 0.92004 0.0
H1325 H 0.3654 0.37139 0.93211 0.0
H1326 H 0.39881 0.36755 0.93719 0.0
H1327 H 0.39227 0.39836 0.9413 0.0
H1328 H 0.42629 0.45216 0.88075 0.0
H1329 H 0.46211 0.47719 0.9188 0.0
H1330 H 0.72183 0.35101 0.77806 0.0
H1331 H 0.70342 0.38019 0.81362 0.0
H1332 H 0.70442 0.33346 0.90482 0.0
H1333 H 0.72407 0.30501 0.86979 0.0
H1334 H 0.65714 0.36856 0.83955 0.0
H1335 H 0.729 0.40083 0.95154 0.0
H1336 H 0.73738 0.38498 0.91279 0.0
H1337 H 0.72034 0.36726 0.94834 0.0
C1338 C 0.71856 0.34731 0.80588 0.0
C1339 C 0.72411 0.32581 0.82129 0.0
C1340 C 0.70818 0.36398 0.82618 0.0
C1341 C 0.70287 0.35919 0.86201 0.0
C1342 C 0.70908 0.33797 0.87758 0.0
H1343 H 0.57123 0.39312 0.96414 0.0
H1344 H 0.60493 0.37392 0.93938 0.0
C1345 C 0.71996 0.32156 0.85745 0.0
C1346 C 0.68748 0.37427 0.88148 0.0
H1347 H 0.68377 0.40401 0.96066 0.0
C1348 C 0.66324 0.37665 0.86579 0.0
C1349 C 0.6955 0.385 0.91561 0.0
C1350 C 0.72213 0.38461 0.93283 0.0
C1351 C 0.64635 0.38866 0.88372 0.0
C1352 C 0.65348 0.39777 0.91877 0.0
C1353 C 0.67818 0.39642 0.93405 0.0
C1354 C 0.63513 0.40846 0.93968 0.0
C1355 C 0.62094 0.3914 0.86491 0.0
C1356 C 0.64167 0.43385 0.9501 0.0
C1357 C 0.62255 0.44483 0.96474 0.0
C1358 C 0.59669 0.43051 0.96877 0.0
C1359 C 0.59084 0.40471 0.96057 0.0
C1360 C 0.61002 0.39372 0.94647 0.0
H1361 H 0.62214 0.3901 0.8356 0.0
H1362 H 0.60439 0.37606 0.87292 0.0
H1363 H 0.61617 0.4096 0.87194 0.0
H1364 H 0.66109 0.44541 0.94528 0.0
H1365 H 0.62763 0.46472 0.97121 0.0
H1366 H 0.67573 0.31812 0.20794 0.0
H1367 H 0.64621 0.33419 0.16726 0.0
H1368 H 0.67517 0.29891 0.07873 0.0
H1369 H 0.70509 0.28279 0.1196 0.0
H1370 H 0.67562 0.34913 0.06865 0.0
H1371 H 0.57798 0.29934 0.11303 0.0
H1372 H 0.59915 0.31189 0.1507 0.0
H1373 H 0.60786 0.28838 0.12251 0.0
C1374 C 0.67561 0.31357 0.17987 0.0
C1375 C 0.69259 0.29931 0.16677 0.0
C1376 C 0.65859 0.32252 0.15671 0.0
C1377 C 0.65815 0.31721 0.12016 0.0
C1378 C 0.67503 0.30285 0.10694 0.0
H1379 H 0.54491 0.3991 0.03556 0.0
H1380 H 0.56709 0.36421 0.03589 0.0
C1381 C 0.69208 0.29378 0.13022 0.0
C1382 C 0.64177 0.32898 0.09614 0.0
H1383 H 0.58086 0.34243 0.09295 0.0
C1384 C 0.65466 0.34717 0.07294 0.0
C1385 C 0.61432 0.32582 0.10082 0.0
C1386 C 0.599 0.30505 0.12283 0.0
C1387 C 0.64146 0.36444 0.05795 0.0
C1388 C 0.61512 0.36364 0.06725 0.0
C1389 C 0.60131 0.34343 0.08657 0.0
C1390 C 0.60304 0.38535 0.06258 0.0
C1391 C 0.65629 0.38419 0.034 0.0
C1392 C 0.61584 0.40868 0.07786 0.0
C1393 C 0.60325 0.42863 0.07779 0.0
C1394 C 0.57756 0.42546 0.06268 0.0
C1395 C 0.56477 0.40208 0.04739 0.0
C1396 C 0.57743 0.38218 0.04733 0.0
H1397 H 0.67037 0.37655 0.01801 0.0
H1398 H 0.64259 0.39143 0.01577 0.0
H1399 H 0.66806 0.40008 0.05045 0.0
H1400 H 0.63529 0.41127 0.09086 0.0
H1401 H 0.6136 0.44644 0.08967 0.0
H1402 H 0.7183 0.71895 0.17958 0.0
H1403 H 0.68782 0.68436 0.14764 0.0
H1404 H 0.67053 0.6459 0.24607 0.0
H1405 H 0.70115 0.68051 0.27831 0.0
H1406 H 0.68445 0.63018 0.14507 0.0
H1407 H 0.59835 0.65795 0.2051 0.0
H1408 H 0.631 0.67844 0.20601 0.0
H1409 H 0.62399 0.6524 0.2353 0.0
C1410 C 0.70835 0.70294 0.19434 0.0
C1411 C 0.71189 0.7024 0.2314 0.0
C1412 C 0.691 0.68322 0.17608 0.0
C1413 C 0.67683 0.6628 0.19463 0.0
C1414 C 0.68117 0.66168 0.23144 0.0
H1415 H 0.56614 0.53403 0.09182 0.0
H1416 H 0.60218 0.55943 0.12935 0.0
C1417 C 0.69862 0.68139 0.24975 0.0
C1418 C 0.65609 0.64377 0.17559 0.0
H1419 H 0.58895 0.62418 0.16399 0.0
C1420 C 0.66356 0.62859 0.1494 0.0
C1421 C 0.62893 0.64211 0.18119 0.0
C1422 C 0.61992 0.65866 0.20822 0.0
C1423 C 0.64442 0.61192 0.1282 0.0
C1424 C 0.61729 0.61048 0.1336 0.0
C1425 C 0.60985 0.62534 0.16018 0.0
C1426 C 0.59622 0.59494 0.1104 0.0
C1427 C 0.65322 0.59665 0.09933 0.0
C1428 C 0.58095 0.60663 0.08769 0.0
C1429 C 0.5604 0.59228 0.06632 0.0
C1430 C 0.55466 0.56596 0.06751 0.0
C1431 C 0.57007 0.55428 0.09032 0.0
C1432 C 0.59072 0.56871 0.11162 0.0
H1433 H 0.67486 0.60258 0.09535 0.0
H1434 H 0.64852 0.57657 0.1065 0.0
H1435 H 0.64237 0.59831 0.07385 0.0
H1436 H 0.58493 0.62691 0.08657 0.0
H1437 H 0.5489 0.60186 0.04911 0.0
H1438 H 0.28842 0.70439 0.11813 0.0
H1439 H 0.30608 0.67816 0.07642 0.0
H1440 H 0.34668 0.6503 0.16349 0.0
H1441 H 0.32915 0.67646 0.20525 0.0
H1442 H 0.36112 0.68219 0.06824 0.0
H1443 H 0.31001 0.5864 0.1052 0.0
H1444 H 0.29772 0.61386 0.11606 0.0
H1445 H 0.32386 0.60588 0.14301 0.0
C1446 C 0.30088 0.69243 0.12834 0.0
C1447 C 0.30756 0.69241 0.16479 0.0
C1448 C 0.31085 0.67748 0.10455 0.0
C1449 C 0.32729 0.6621 0.11703 0.0
C1450 C 0.33354 0.6617 0.15352 0.0
H1451 H 0.46026 0.61581 0.05921 0.0
H1452 H 0.42611 0.63838 0.07173 0.0
C1453 C 0.32372 0.67675 0.17727 0.0
C1454 C 0.34013 0.6482 0.09198 0.0
H1455 H 0.35186 0.59031 0.07713 0.0
C1456 C 0.35869 0.66201 0.06945 0.0
C1457 C 0.33652 0.6219 0.09316 0.0
C1458 C 0.31574 0.6061 0.1154 0.0
C1459 C 0.37557 0.65043 0.05052 0.0
C1460 C 0.37371 0.62441 0.0544 0.0
C1461 C 0.35344 0.61029 0.07436 0.0
C1462 C 0.39463 0.61213 0.04268 0.0
C1463 C 0.39594 0.66663 0.0281 0.0
C1464 C 0.3882 0.58965 0.02261 0.0
C1465 C 0.40766 0.57638 0.01601 0.0
C1466 C 0.43379 0.58544 0.02944 0.0
C1467 C 0.44028 0.60831 0.04861 0.0
C1468 C 0.42084 0.62139 0.05544 0.0
H1469 H 0.38665 0.67955 0.01223 0.0
H1470 H 0.41163 0.67839 0.04578 0.0
H1471 H 0.40537 0.65557 0.00985 0.0
H1472 H 0.36802 0.58213 0.01275 0.0
H1473 H 0.4022 0.55897 1.00071 0.0
H1474 H 0.32622 0.34128 0.27016 0.0
H1475 H 0.35358 0.37338 0.2343 0.0
H1476 H 0.33219 0.32551 0.14113 0.0
H1477 H 0.30493 0.29324 0.17696 0.0
H1478 H 0.3865 0.34393 0.15128 0.0
H1479 H 0.33421 0.42146 0.16075 0.0
H1480 H 0.34128 0.4092 0.20304 0.0
H1481 H 0.31886 0.38951 0.17141 0.0
C1482 C 0.32709 0.33774 0.24195 0.0
C1483 C 0.31348 0.31474 0.22638 0.0
C1484 C 0.34258 0.35617 0.22142 0.0
C1485 C 0.3447 0.35202 0.1849 0.0
C1486 C 0.33073 0.32921 0.16919 0.0
H1487 H 0.4406 0.45618 0.03743 0.0
H1488 H 0.40287 0.42753 0.06358 0.0
C1489 C 0.31516 0.31079 0.18969 0.0
C1490 C 0.36317 0.37059 0.16385 0.0
H1491 H 0.37867 0.43226 0.1405 0.0
C1492 C 0.38455 0.36314 0.14854 0.0
C1493 C 0.36058 0.39565 0.16003 0.0
C1494 C 0.33736 0.40443 0.17437 0.0
C1495 C 0.40396 0.38028 0.13088 0.0
C1496 C 0.40203 0.40556 0.12852 0.0
C1497 C 0.38015 0.41287 0.14255 0.0
C1498 C 0.42362 0.42477 0.11363 0.0
C1499 C 0.42681 0.37144 0.11545 0.0
C1500 C 0.44746 0.43312 0.13346 0.0
C1501 C 0.46891 0.44948 0.11879 0.0
C1502 C 0.46707 0.45784 0.0838 0.0
C1503 C 0.44274 0.45018 0.06442 0.0
C1504 C 0.42116 0.43379 0.07928 0.0
H1505 H 0.42315 0.35065 0.11411 0.0
H1506 H 0.43054 0.37883 0.08836 0.0
H1507 H 0.44503 0.37873 0.13227 0.0
H1508 H 0.44968 0.42646 0.16008 0.0
H1509 H 0.48721 0.45501 0.13466 0.0
H1510 H 0.7869 0.70376 0.64515 0.0
H1511 H 0.81209 0.67676 0.616 0.0
H1512 H 0.85978 0.67758 0.71225 0.0
H1513 H 0.83392 0.70339 0.74179 0.0
H1514 H 0.86002 0.68024 0.59746 0.0
H1515 H 0.84375 0.60492 0.69529 0.0
H1516 H 0.82641 0.62994 0.69664 0.0
H1517 H 0.85938 0.63421 0.71657 0.0
C1518 C 0.80259 0.69801 0.66027 0.0
C1519 C 0.80794 0.70568 0.6962 0.0
C1520 C 0.81716 0.6825 0.64345 0.0
C1521 C 0.83771 0.6742 0.66183 0.0
C1522 C 0.84352 0.68255 0.69741 0.0
H1523 H 0.9649 0.60113 0.6121 0.0
H1524 H 0.93479 0.62544 0.635 0.0
C1525 C 0.82873 0.69767 0.71437 0.0
C1526 C 0.85337 0.65742 0.64383 0.0
H1527 H 0.87904 0.60524 0.65574 0.0
C1528 C 0.8638 0.66369 0.61018 0.0
C1529 C 0.85844 0.63539 0.65965 0.0
C1530 C 0.84614 0.62557 0.6938 0.0
C1531 C 0.87964 0.64942 0.59302 0.0
C1532 C 0.88561 0.62817 0.60968 0.0
C1533 C 0.87482 0.62158 0.64287 0.0
C1534 C 0.90405 0.61331 0.59418 0.0
C1535 C 0.89061 0.65756 0.55749 0.0
C1536 C 0.8971 0.59799 0.56331 0.0
C1537 C 0.91437 0.58358 0.55016 0.0
C1538 C 0.93924 0.58431 0.56727 0.0
C1539 C 0.94611 0.59995 0.59787 0.0
C1540 C 0.92878 0.61395 0.6112 0.0
H1541 H 0.88703 0.6761 0.54995 0.0
H1542 H 0.91226 0.65857 0.55784 0.0
H1543 H 0.88106 0.64348 0.53679 0.0
H1544 H 0.87812 0.59686 0.54962 0.0
H1545 H 0.90824 0.57189 0.52659 0.0
H1546 H 0.35832 0.77573 0.71009 0.0
H1547 H 0.39495 0.80517 0.6839 0.0
H1548 H 0.33974 0.84502 0.63721 0.0
H1549 H 0.30291 0.81548 0.66274 0.0
H1550 H 0.38098 0.84044 0.59292 0.0
H1551 H 0.41828 0.87597 0.72861 0.0
H1552 H 0.41524 0.84304 0.72014 0.0
H1553 H 0.38602 0.8555 0.72025 0.0
C1554 C 0.3539 0.79054 0.6938 0.0
C1555 C 0.32775 0.79355 0.68895 0.0
C1556 C 0.37488 0.80736 0.67899 0.0
C1557 C 0.37002 0.82752 0.65939 0.0
C1558 C 0.34383 0.82961 0.65251 0.0
H1559 H 0.44842 0.97614 0.62548 0.0
H1560 H 0.42531 0.93571 0.64739 0.0
C1561 C 0.32281 0.81271 0.66712 0.0
C1562 C 0.39213 0.8476 0.64821 0.0
H1563 H 0.4406 0.89661 0.68062 0.0
C1564 C 0.39432 0.85257 0.61195 0.0
C1565 C 0.40924 0.86339 0.67335 0.0
C1566 C 0.40708 0.85943 0.71279 0.0
C1567 C 0.41254 0.87356 0.60011 0.0
C1568 C 0.42928 0.88966 0.62531 0.0
C1569 C 0.42782 0.88409 0.66146 0.0
C1570 C 0.446 0.91394 0.61511 0.0
C1571 C 0.41257 0.87909 0.561 0.0
C1572 C 0.46603 0.91509 0.59078 0.0
C1573 C 0.47915 0.9382 0.57792 0.0
C1574 C 0.47263 0.96052 0.58958 0.0
C1575 C 0.45387 0.95935 0.61586 0.0
C1576 C 0.44063 0.93624 0.62842 0.0
H1577 H 0.39521 0.86716 0.54623 0.0
H1578 H 0.41243 0.89909 0.55667 0.0
H1579 H 0.43078 0.87538 0.5496 0.0
H1580 H 0.47092 0.89809 0.58091 0.0
H1581 H 0.49376 0.93849 0.558 0.0
H1582 H 0.21612 0.32396 0.73594 0.0
H1583 H 0.18852 0.34827 0.70495 0.0
H1584 H 0.19245 0.30698 0.60797 0.0
H1585 H 0.22066 0.28283 0.63874 0.0
H1586 H 0.19815 0.35551 0.59424 0.0
H1587 H 0.11114 0.3282 0.6775 0.0
H1588 H 0.1406 0.34208 0.70349 0.0
H1589 H 0.13844 0.31278 0.67996 0.0
C1590 C 0.21114 0.31991 0.70801 0.0
C1591 C 0.22071 0.30117 0.69007 0.0
C1592 C 0.19504 0.33378 0.69028 0.0
C1593 C 0.18763 0.32925 0.65408 0.0
C1594 C 0.19754 0.31087 0.63591 0.0
H1595 H 0.06334 0.39502 0.54814 0.0
H1596 H 0.08782 0.36534 0.57395 0.0
C1597 C 0.21377 0.297 0.65362 0.0
C1598 C 0.17026 0.34413 0.63513 0.0
H1599 H 0.11176 0.36329 0.63999 0.0
C1600 C 0.17919 0.357 0.60423 0.0
C1601 C 0.1451 0.34592 0.64734 0.0
C1602 C 0.1331 0.33129 0.67866 0.0
C1603 C 0.16437 0.37212 0.58622 0.0
C1604 C 0.13997 0.37508 0.59965 0.0
C1605 C 0.13054 0.36147 0.62974 0.0
C1606 C 0.12466 0.39293 0.5837 0.0
C1607 C 0.17499 0.38464 0.55266 0.0
C1608 C 0.13678 0.41849 0.58093 0.0
C1609 C 0.12286 0.4354 0.56626 0.0
C1610 C 0.09616 0.42748 0.55403 0.0
C1611 C 0.08381 0.4019 0.55716 0.0
C1612 C 0.09785 0.38488 0.57198 0.0
H1613 H 0.18851 0.37439 0.53983 0.0
H1614 H 0.15869 0.38584 0.53328 0.0
H1615 H 0.18649 0.40394 0.55926 0.0
H1616 H 0.15711 0.42553 0.59046 0.0
H1617 H 0.1332 0.45487 0.56462 0.0
H1618 H 0.67872 0.24044 0.67796 0.0
H1619 H 0.65136 0.20509 0.6431 0.0
H1620 H 0.71924 0.1724 0.63418 0.0
H1621 H 0.74645 0.20771 0.66875 0.0
H1622 H 0.65498 0.18308 0.57533 0.0
H1623 H 0.66541 0.11855 0.68465 0.0
H1624 H 0.67462 0.15222 0.69027 0.0
H1625 H 0.69642 0.13584 0.66894 0.0
C1626 C 0.68783 0.2259 0.668 0.0
C1627 C 0.71451 0.22631 0.67678 0.0
C1628 C 0.67221 0.20572 0.64822 0.0
C1629 C 0.68312 0.18581 0.63691 0.0
C1630 C 0.71024 0.1872 0.64353 0.0
H1631 H 0.62062 0.0411 0.53304 0.0
H1632 H 0.64894 0.08058 0.55609 0.0
C1633 C 0.72575 0.20726 0.66341 0.0
C1634 C 0.66597 0.16296 0.62 0.0
H1635 H 0.64429 0.09988 0.63096 0.0
C1636 C 0.65256 0.16489 0.58749 0.0
C1637 C 0.6627 0.13929 0.63614 0.0
C1638 C 0.67532 0.13628 0.67208 0.0
C1639 C 0.63637 0.14362 0.57032 0.0
C1640 C 0.63351 0.11999 0.58624 0.0
C1641 C 0.64679 0.11807 0.61876 0.0
C1642 C 0.61633 0.09697 0.57004 0.0
C1643 C 0.62266 0.14637 0.53512 0.0
C1644 C 0.58867 0.09322 0.57038 0.0
C1645 C 0.57244 0.07062 0.55761 0.0
C1646 C 0.58362 0.05141 0.54416 0.0
C1647 C 0.61138 0.05549 0.54322 0.0
C1648 C 0.62759 0.07801 0.55633 0.0
H1649 H 0.63012 0.16514 0.5237 0.0
H1650 H 0.62544 0.13174 0.51586 0.0
H1651 H 0.60105 0.14373 0.53876 0.0
H1652 H 0.57967 0.10758 0.58121 0.0
H1653 H 0.55113 0.06815 0.55851 0.0
H1654 H 0.76055 0.32856 0.34177 0.0
H1655 H 0.79256 0.35811 0.38031 0.0
H1656 H 0.85449 0.32179 0.35058 0.0
H1657 H 0.8228 0.29248 0.3118 0.0
H1658 H 0.83072 0.35216 0.43788 0.0
H1659 H 0.87773 0.39533 0.31651 0.0
H1660 H 0.84535 0.37435 0.31523 0.0
H1661 H 0.87463 0.36207 0.31952 0.0
C1662 C 0.7809 0.32664 0.34396 0.0
C1663 C 0.78932 0.30851 0.32346 0.0
C1664 C 0.79912 0.34347 0.36599 0.0
C1665 C 0.82591 0.34232 0.36777 0.0
C1666 C 0.83395 0.32317 0.34913 0.0
H1667 H 0.96935 0.44667 0.44432 0.0
H1668 H 0.93704 0.40935 0.42248 0.0
C1669 C 0.81582 0.30643 0.32708 0.0
C1670 C 0.8459 0.36241 0.38645 0.0
H1671 H 0.89826 0.41099 0.37151 0.0
C1672 C 0.84553 0.36505 0.42349 0.0
C1673 C 0.86508 0.37919 0.36746 0.0
C1674 C 0.86571 0.37783 0.32746 0.0
C1675 C 0.86423 0.38391 0.44216 0.0
C1676 C 0.88337 0.40071 0.42309 0.0
C1677 C 0.88368 0.39797 0.38608 0.0
C1678 C 0.90291 0.42183 0.44052 0.0
C1679 C 0.8636 0.38547 0.48207 0.0
C1680 C 0.89444 0.44112 0.45829 0.0
C1681 C 0.91286 0.46255 0.47078 0.0
C1682 C 0.94008 0.46518 0.46541 0.0
C1683 C 0.94853 0.44541 0.44864 0.0
C1684 C 0.93011 0.424 0.43622 0.0
H1685 H 0.85285 0.3675 0.49322 0.0
H1686 H 0.88398 0.39049 0.49431 0.0
H1687 H 0.85317 0.40025 0.48967 0.0
H1688 H 0.87351 0.44005 0.46131 0.0
H1689 H 0.90565 0.47735 0.48369 0.0
H1690 H 0.68238 0.782 0.35394 0.0
H1691 H 0.65897 0.81071 0.38161 0.0
H1692 H 0.73315 0.86464 0.40108 0.0
H1693 H 0.75653 0.83637 0.37132 0.0
H1694 H 0.65814 0.83231 0.4428 0.0
H1695 H 0.69392 0.9068 0.34599 0.0
H1696 H 0.70006 0.87583 0.3417 0.0
H1697 H 0.72011 0.89859 0.37221 0.0
C1698 C 0.69376 0.79986 0.36447 0.0
C1699 C 0.72121 0.80711 0.36014 0.0
C1700 C 0.68034 0.8163 0.38031 0.0
C1701 C 0.69414 0.84021 0.39259 0.0
C1702 C 0.72191 0.8467 0.39069 0.0
H1703 H 0.62378 0.96296 0.46644 0.0
H1704 H 0.65507 0.93592 0.45845 0.0
C1705 C 0.7353 0.83043 0.37409 0.0
C1706 C 0.67901 0.85843 0.40558 0.0
H1707 H 0.66615 0.91601 0.38979 0.0
C1708 C 0.66006 0.85066 0.4313 0.0
C1709 C 0.68127 0.88239 0.39043 0.0
C1710 C 0.69973 0.89134 0.36083 0.0
C1711 C 0.64294 0.86579 0.44153 0.0
C1712 C 0.64517 0.88959 0.42629 0.0
C1713 C 0.66473 0.89784 0.40168 0.0
C1714 C 0.62605 0.90538 0.43321 0.0
C1715 C 0.62207 0.85584 0.46778 0.0
C1716 C 0.59944 0.89718 0.42156 0.0
C1717 C 0.5816 0.91258 0.42585 0.0
C1718 C 0.59002 0.93655 0.4419 0.0
C1719 C 0.61667 0.94464 0.4539 0.0
C1720 C 0.63456 0.92922 0.44942 0.0
H1721 H 0.62785 0.84142 0.48487 0.0
H1722 H 0.61827 0.87119 0.4848 0.0
H1723 H 0.60327 0.84698 0.45308 0.0
H1724 H 0.59256 0.87899 0.40852 0.0
H1725 H 0.56122 0.9057 0.41645 0.0
H1726 H 0.20332 0.72984 0.34261 0.0
H1727 H 0.16979 0.69737 0.36943 0.0
H1728 H 0.19795 0.64026 0.31269 0.0
H1729 H 0.23171 0.6724 0.28615 0.0
H1730 H 0.12978 0.66352 0.33197 0.0
H1731 H 0.19193 0.61349 0.41297 0.0
H1732 H 0.20469 0.64435 0.3959 0.0
H1733 H 0.20164 0.61695 0.36778 0.0
C1734 C 0.20274 0.71035 0.33633 0.0
C1735 C 0.22022 0.70374 0.31217 0.0
C1736 C 0.18349 0.69185 0.35161 0.0
C1737 C 0.18153 0.66644 0.34324 0.0
C1738 C 0.19944 0.65974 0.32001 0.0
H1739 H 0.0773 0.52392 0.3739 0.0
H1740 H 0.10762 0.56051 0.35091 0.0
C1741 C 0.21869 0.67819 0.30476 0.0
C1742 C 0.15968 0.64696 0.35672 0.0
H1743 H 0.14682 0.59189 0.40104 0.0
C1744 C 0.13345 0.648 0.34745 0.0
C1745 C 0.16458 0.6268 0.37692 0.0
C1746 C 0.19223 0.62541 0.38929 0.0
C1747 C 0.11198 0.62884 0.3568 0.0
C1748 C 0.11701 0.60833 0.37595 0.0
C1749 C 0.14315 0.60759 0.38595 0.0
C1750 C 0.09554 0.58715 0.38581 0.0
C1751 C 0.08417 0.63021 0.34529 0.0
C1752 C 0.07815 0.59024 0.41224 0.0
C1753 C 0.06073 0.56936 0.42553 0.0
C1754 C 0.06061 0.54504 0.41269 0.0
C1755 C 0.0769 0.54231 0.38453 0.0
C1756 C 0.09431 0.56318 0.37137 0.0
H1757 H 0.08396 0.64528 0.3259 0.0
H1758 H 0.07328 0.61201 0.33321 0.0
H1759 H 0.07337 0.63403 0.36887 0.0
H1760 H 0.07904 0.60862 0.42391 0.0
H1761 H 0.04854 0.57218 0.44726 0.0
H1762 H 0.2794 0.19096 0.37535 0.0
H1763 H 0.30477 0.16499 0.4074 0.0
H1764 H 0.37592 0.22323 0.4002 0.0
H1765 H 0.35051 0.24949 0.36869 0.0
H1766 H 0.34593 0.15069 0.37242 0.0
H1767 H 0.38349 0.19831 0.50152 0.0
H1768 H 0.35504 0.20458 0.47718 0.0
H1769 H 0.38791 0.21749 0.46293 0.0
C1770 C 0.30029 0.19851 0.38156 0.0
C1771 C 0.31306 0.22214 0.36945 0.0
C1772 C 0.31475 0.18368 0.39984 0.0
C1773 C 0.34219 0.19223 0.40635 0.0
C1774 C 0.35469 0.21645 0.3961 0.0
H1775 H 0.46444 0.11299 0.47026 0.0
H1776 H 0.44039 0.14538 0.45451 0.0
C1777 C 0.34018 0.23138 0.37793 0.0
C1778 C 0.35807 0.17444 0.4188 0.0
H1779 H 0.39988 0.16282 0.48536 0.0
C1780 C 0.35761 0.15327 0.39723 0.0
C1781 C 0.37379 0.17823 0.45069 0.0
C1782 C 0.37506 0.20078 0.47464 0.0
C1783 C 0.37233 0.13568 0.40666 0.0
C1784 C 0.38731 0.13889 0.4392 0.0
C1785 C 0.38822 0.16032 0.46057 0.0
C1786 C 0.40176 0.11988 0.45137 0.0
C1787 C 0.37211 0.11409 0.3812 0.0
C1788 C 0.38794 0.09499 0.45563 0.0
C1789 C 0.40161 0.07646 0.46381 0.0
C1790 C 0.42936 0.08253 0.46875 0.0
C1791 C 0.4431 0.10769 0.46614 0.0
C1792 C 0.42938 0.12622 0.4574 0.0
H1793 H 0.3666 0.11847 0.35365 0.0
H1794 H 0.39178 0.10921 0.38117 0.0
H1795 H 0.35721 0.09739 0.38935 0.0
H1796 H 0.36655 0.08982 0.45211 0.0
H1797 H 0.39034 0.05738 0.46648 0.0
H1798 H 0.68105 0.76066 0.62887 0.0
H1799 H 0.65488 0.78566 0.59603 0.0
H1800 H 0.7201 0.85044 0.60749 0.0
H1801 H 0.74638 0.82551 0.63986 0.0
H1802 H 0.64118 0.82583 0.62739 0.0
H1803 H 0.6944 0.85603 0.50532 0.0
H1804 H 0.70033 0.83014 0.53116 0.0
H1805 H 0.716 0.86193 0.54428 0.0
C1806 C 0.69004 0.78005 0.62346 0.0
C1807 C 0.71568 0.79121 0.63694 0.0
C1808 C 0.67507 0.7943 0.60477 0.0
C1809 C 0.6856 0.81986 0.59905 0.0
C1810 C 0.71175 0.83065 0.6109 0.0
H1811 H 0.63429 0.95389 0.55238 0.0
H1812 H 0.65753 0.92099 0.56693 0.0
C1813 C 0.7267 0.81642 0.62959 0.0
C1814 C 0.6683 0.83605 0.58527 0.0
H1815 H 0.66471 0.8811 0.52477 0.0
C1816 C 0.64599 0.83756 0.60451 0.0
C1817 C 0.67472 0.85143 0.55557 0.0
C1818 C 0.69752 0.84964 0.53268 0.0
C1819 C 0.63062 0.85485 0.59586 0.0
C1820 C 0.63757 0.87082 0.56689 0.0
C1821 C 0.65947 0.86887 0.54706 0.0
C1822 C 0.62313 0.89049 0.55778 0.0
C1823 C 0.60786 0.85669 0.61886 0.0
C1824 C 0.59608 0.88421 0.54749 0.0
C1825 C 0.58269 0.90301 0.53911 0.0
C1826 C 0.59613 0.92839 0.54099 0.0
C1827 C 0.62327 0.93455 0.55103 0.0
C1828 C 0.63663 0.91577 0.5592 0.0
H1829 H 0.60895 0.84725 0.6446 0.0
H1830 H 0.6075 0.8766 0.62431 0.0
H1831 H 0.58889 0.84751 0.60481 0.0
H1832 H 0.58544 0.86476 0.54546 0.0
H1833 H 0.56188 0.89763 0.531 0.0
H1834 H 0.7295 0.20591 0.35388 0.0
H1835 H 0.69511 0.17431 0.38092 0.0
H1836 H 0.63722 0.18813 0.30318 0.0
H1837 H 0.67108 0.22016 0.27673 0.0
H1838 H 0.61654 0.17997 0.36832 0.0
H1839 H 0.66955 0.10631 0.33199 0.0
H1840 H 0.68895 0.13072 0.3604 0.0
H1841 H 0.67898 0.13793 0.31628 0.0
C1842 C 0.70937 0.20246 0.34286 0.0
C1843 C 0.7031 0.21527 0.31287 0.0
C1844 C 0.6898 0.18434 0.35822 0.0
C1845 C 0.66382 0.17849 0.34344 0.0
C1846 C 0.6572 0.19227 0.31482 0.0
H1847 H 0.55736 0.03395 0.36835 0.0
H1848 H 0.58323 0.07245 0.34345 0.0
C1849 C 0.67664 0.21056 0.29972 0.0
C1850 C 0.64388 0.15699 0.35612 0.0
H1851 H 0.63172 0.0937 0.36627 0.0
C1852 C 0.61977 0.16107 0.36787 0.0
C1853 C 0.64796 0.13231 0.3546 0.0
C1854 C 0.67263 0.12644 0.33981 0.0
C1855 C 0.59973 0.14111 0.37871 0.0
C1856 C 0.60428 0.11658 0.37853 0.0
C1857 C 0.62828 0.11253 0.36642 0.0
C1858 C 0.58493 0.09477 0.3917 0.0
C1859 C 0.57377 0.14646 0.38954 0.0
C1860 C 0.57675 0.09477 0.42674 0.0
C1861 C 0.5616 0.07297 0.44078 0.0
C1862 C 0.55492 0.05061 0.42025 0.0
C1863 C 0.56227 0.05088 0.38477 0.0
C1864 C 0.57705 0.07283 0.37056 0.0
H1865 H 0.57023 0.16378 0.37717 0.0
H1866 H 0.55682 0.13063 0.38205 0.0
H1867 H 0.57437 0.14935 0.41876 0.0
H1868 H 0.58319 0.11123 0.44386 0.0
H1869 H 0.55654 0.07329 0.46838 0.0
H1870 H 0.80893 0.73334 0.36191 0.0
H1871 H 0.83686 0.70908 0.39298 0.0
H1872 H 0.84318 0.66941 0.29535 0.0
H1873 H 0.81597 0.69395 0.26407 0.0
H1874 H 0.83176 0.66106 0.4061 0.0
H1875 H 0.91981 0.6891 0.32502 0.0
H1876 H 0.89238 0.70431 0.32178 0.0
H1877 H 0.89087 0.67518 0.29809 0.0
C1878 C 0.8163 0.71951 0.34696 0.0
C1879 C 0.81018 0.71588 0.31024 0.0
C1880 C 0.83238 0.70558 0.36484 0.0
C1881 C 0.84289 0.68762 0.3466 0.0
C1882 C 0.83624 0.68359 0.31012 0.0
H1883 H 0.89594 0.56127 0.43556 0.0
H1884 H 0.87239 0.59099 0.41001 0.0
C1885 C 0.82035 0.69759 0.2922 0.0
C1886 C 0.86008 0.67266 0.36575 0.0
H1887 H 0.91859 0.65345 0.36171 0.0
C1888 C 0.85082 0.65962 0.39641 0.0
C1889 C 0.88539 0.67095 0.35401 0.0
C1890 C 0.89784 0.68585 0.32316 0.0
C1891 C 0.86545 0.6444 0.41455 0.0
C1892 C 0.88994 0.64145 0.40146 0.0
C1893 C 0.89972 0.65524 0.37167 0.0
C1894 C 0.905 0.6234 0.41738 0.0
C1895 C 0.85454 0.6318 0.44793 0.0
C1896 C 0.93176 0.63123 0.42938 0.0
C1897 C 0.94559 0.614 0.44403 0.0
C1898 C 0.93307 0.58843 0.4467 0.0
C1899 C 0.90641 0.58073 0.43425 0.0
C1900 C 0.89269 0.59785 0.41976 0.0
H1901 H 0.84113 0.64217 0.46077 0.0
H1902 H 0.84284 0.61261 0.44107 0.0
H1903 H 0.87069 0.63031 0.46739 0.0
H1904 H 0.94192 0.65075 0.42773 0.0
H1905 H 0.96604 0.62071 0.45324 0.0
H1906 H 0.29741 0.8174 0.30049 0.0
H1907 H 0.32379 0.85013 0.33982 0.0
H1908 H 0.36871 0.79814 0.37914 0.0
H1909 H 0.34206 0.76489 0.33971 0.0
H1910 H 0.34385 0.84048 0.42978 0.0
H1911 H 0.41246 0.87092 0.32009 0.0
H1912 H 0.37739 0.86049 0.30974 0.0
H1913 H 0.39587 0.83844 0.32507 0.0
C1914 C 0.31256 0.81272 0.31794 0.0
C1915 C 0.31775 0.78859 0.31698 0.0
C1916 C 0.32758 0.83146 0.34039 0.0
C1917 C 0.34811 0.82649 0.36224 0.0
C1918 C 0.3528 0.80221 0.36247 0.0
H1919 H 0.47703 0.94314 0.45256 0.0
H1920 H 0.45004 0.90349 0.42886 0.0
C1921 C 0.33764 0.7833 0.33998 0.0
C1922 C 0.36591 0.84741 0.38229 0.0
H1923 H 0.41824 0.89677 0.37137 0.0
C1924 C 0.36034 0.85268 0.4173 0.0
C1925 C 0.38726 0.8632 0.36576 0.0
C1926 C 0.39384 0.85811 0.32811 0.0
C1927 C 0.37551 0.87373 0.43617 0.0
C1928 C 0.39644 0.89005 0.41923 0.0
C1929 C 0.40224 0.88432 0.3844 0.0
C1930 C 0.41247 0.91338 0.43663 0.0
C1931 C 0.36896 0.87816 0.47401 0.0
C1932 C 0.40036 0.93218 0.44915 0.0
C1933 C 0.41579 0.95488 0.46308 0.0
C1934 C 0.44362 0.95937 0.46411 0.0
C1935 C 0.45565 0.9404 0.45191 0.0
C1936 C 0.44024 0.91767 0.43839 0.0
H1937 H 0.35968 0.86028 0.48672 0.0
H1938 H 0.38688 0.88754 0.49012 0.0
H1939 H 0.35454 0.89038 0.47422 0.0
H1940 H 0.37901 0.92958 0.44732 0.0
H1941 H 0.40593 0.96915 0.47211 0.0
H1942 H 0.19401 0.30961 0.26445 0.0
H1943 H 0.16831 0.33571 0.29428 0.0
H1944 H 0.21347 0.33316 0.3917 0.0
H1945 H 0.23912 0.30662 0.36216 0.0
H1946 H 0.13862 0.32181 0.36605 0.0
H1947 H 0.21477 0.4117 0.36859 0.0
H1948 H 0.21405 0.38764 0.33502 0.0
H1949 H 0.22465 0.38308 0.3797 0.0
C1950 C 0.19864 0.31456 0.29222 0.0
C1951 C 0.21887 0.3058 0.31068 0.0
C1952 C 0.1838 0.32956 0.30933 0.0
C1953 C 0.18887 0.33669 0.34535 0.0
C1954 C 0.20913 0.32815 0.36388 0.0
H1955 H 0.11978 0.44273 0.4734 0.0
H1956 H 0.14864 0.41599 0.45199 0.0
C1957 C 0.22381 0.31285 0.34689 0.0
C1958 C 0.17259 0.35253 0.36344 0.0
H1959 H 0.17365 0.41251 0.3925 0.0
C1960 C 0.14634 0.34163 0.37188 0.0
C1961 C 0.18254 0.37837 0.37173 0.0
C1962 C 0.21051 0.39113 0.36332 0.0
C1963 C 0.12992 0.35567 0.38806 0.0
C1964 C 0.13943 0.38186 0.39501 0.0
C1965 C 0.16597 0.39262 0.38723 0.0
C1966 C 0.12185 0.39839 0.40881 0.0
C1967 C 0.10266 0.34192 0.39828 0.0
C1968 C 0.09714 0.39809 0.39181 0.0
C1969 C 0.0805 0.41308 0.40432 0.0
C1970 C 0.08805 0.42952 0.43395 0.0
C1971 C 0.11308 0.43035 0.45064 0.0
C1972 C 0.1297 0.41501 0.43827 0.0
H1973 H 0.10207 0.32187 0.4035 0.0
H1974 H 0.09624 0.3505 0.4223 0.0
H1975 H 0.08822 0.34249 0.37601 0.0
H1976 H 0.09067 0.38637 0.36837 0.0
H1977 H 0.06168 0.41197 0.3902 0.0
H1978 H 0.33098 0.23063 0.61815 0.0
H1979 H 0.35408 0.20115 0.59081 0.0
H1980 H 0.29688 0.13903 0.63134 0.0
H1981 H 0.27372 0.16833 0.65863 0.0
H1982 H 0.35192 0.1435 0.65396 0.0
H1983 H 0.33896 0.14762 0.50702 0.0
H1984 H 0.34223 0.17622 0.53284 0.0
H1985 H 0.31347 0.15138 0.53675 0.0
C1986 C 0.32289 0.21067 0.62029 0.0
C1987 C 0.30066 0.20175 0.64065 0.0
C1988 C 0.33604 0.19386 0.60455 0.0
C1989 C 0.32707 0.16791 0.60887 0.0
C1990 C 0.30398 0.15897 0.62747 0.0
H1991 H 0.40179 0.04753 0.54098 0.0
H1992 H 0.37004 0.07405 0.54938 0.0
C1993 C 0.2908 0.17573 0.64306 0.0
C1994 C 0.34394 0.15053 0.59907 0.0
H1995 H 0.37069 0.12596 0.52919 0.0
C1996 C 0.35588 0.13954 0.62667 0.0
C1997 C 0.34884 0.14524 0.56348 0.0
C1998 C 0.33519 0.15554 0.53309 0.0
C1999 C 0.37316 0.12388 0.61972 0.0
C2000 C 0.37901 0.1194 0.5842 0.0
C2001 C 0.36645 0.12975 0.55642 0.0
C2002 C 0.39856 0.10434 0.57595 0.0
C2003 C 0.385 0.11221 0.65054 0.0
C2004 C 0.42517 0.11285 0.58744 0.0
C2005 C 0.44328 0.09778 0.58283 0.0
C2006 C 0.43517 0.07392 0.56642 0.0
C2007 C 0.40864 0.06574 0.55393 0.0
C2008 C 0.3905 0.0809 0.55853 0.0
H2009 H 0.37356 0.11236 0.67487 0.0
H2010 H 0.38576 0.09255 0.64402 0.0
H2011 H 0.40557 0.12305 0.65651 0.0
H2012 H 0.43184 0.13104 0.60055 0.0
H2013 H 0.46361 0.10482 0.59234 0.0
H2014 H 0.82778 0.27971 0.65151 0.0
H2015 H 0.86177 0.31118 0.62344 0.0
H2016 H 0.83061 0.37019 0.67036 0.0
H2017 H 0.79653 0.33905 0.69828 0.0
H2018 H 0.84585 0.37735 0.59719 0.0
H2019 H 0.92398 0.35377 0.6873 0.0
H2020 H 0.90316 0.3284 0.66166 0.0
H2021 H 0.88912 0.34393 0.6957 0.0
C2022 C 0.82781 0.29937 0.65528 0.0
C2023 C 0.80965 0.30692 0.67746 0.0
C2024 C 0.84735 0.31728 0.63943 0.0
C2025 C 0.84889 0.34291 0.64545 0.0
C2026 C 0.82978 0.35045 0.66564 0.0
H2027 H 0.9461 0.48818 0.62056 0.0
H2028 H 0.91585 0.45 0.63925 0.0
C2029 C 0.81035 0.33262 0.68159 0.0
C2030 C 0.87127 0.36209 0.63279 0.0
H2031 H 0.93724 0.38752 0.64902 0.0
C2032 C 0.86589 0.37944 0.60819 0.0
C2033 C 0.89733 0.36471 0.64739 0.0
C2034 C 0.90389 0.34687 0.67466 0.0
C2035 C 0.88586 0.39973 0.59831 0.0
C2036 C 0.91166 0.4028 0.61382 0.0
C2037 C 0.91732 0.38502 0.63744 0.0
C2038 C 0.93256 0.42511 0.60677 0.0
C2039 C 0.87926 0.41804 0.57179 0.0
C2040 C 0.9527 0.42341 0.58375 0.0
C2041 C 0.97012 0.44518 0.57303 0.0
C2042 C 0.96757 0.46894 0.58521 0.0
C2043 C 0.94859 0.47027 0.61049 0.0
C2044 C 0.93119 0.4485 0.6211 0.0
H2045 H 0.85963 0.41082 0.55803 0.0
H2046 H 0.87885 0.43592 0.58574 0.0
H2047 H 0.89468 0.42224 0.55164 0.0
H2048 H 0.95406 0.4054 0.57268 0.0
H2049 H 0.98454 0.44341 0.55363 0.0
H2050 H 0.27009 0.68841 0.65935 0.0
H2051 H 0.23972 0.65965 0.61819 0.0
H2052 H 0.17384 0.68645 0.65779 0.0
H2053 H 0.20413 0.71553 0.69841 0.0
H2054 H 0.20028 0.6221 0.64083 0.0
H2055 H 0.15732 0.68343 0.55156 0.0
H2056 H 0.18715 0.69493 0.57874 0.0
H2057 H 0.15512 0.69079 0.59771 0.0
C2058 C 0.2492 0.6885 0.65871 0.0
C2059 C 0.2394 0.70403 0.68217 0.0
C2060 C 0.23189 0.6721 0.63521 0.0
C2061 C 0.20455 0.67107 0.63468 0.0
C2062 C 0.1949 0.6873 0.65717 0.0
H2063 H 0.06173 0.56639 0.56351 0.0
H2064 H 0.09538 0.6024 0.58676 0.0
C2065 C 0.21221 0.70377 0.68057 0.0
C2066 C 0.18588 0.65109 0.61379 0.0
H2067 H 0.13405 0.64025 0.55268 0.0
C2068 C 0.18605 0.62607 0.62117 0.0
C2069 C 0.16721 0.65634 0.58839 0.0
C2070 C 0.1668 0.68284 0.57835 0.0
C2071 C 0.16755 0.60612 0.60468 0.0
C2072 C 0.14862 0.61135 0.57969 0.0
C2073 C 0.14862 0.63635 0.57186 0.0
C2074 C 0.1281 0.59097 0.56252 0.0
C2075 C 0.1678 0.57964 0.61511 0.0
C2076 C 0.13531 0.57303 0.54041 0.0
C2077 C 0.1162 0.55235 0.52727 0.0
C2078 C 0.08947 0.54931 0.53587 0.0
C2079 C 0.08215 0.568 0.55665 0.0
C2080 C 0.10133 0.58865 0.56985 0.0
H2081 H 0.1797 0.57915 0.6401 0.0
H2082 H 0.14734 0.5685 0.61861 0.0
H2083 H 0.17664 0.57044 0.59377 0.0
H2084 H 0.15584 0.57476 0.53396 0.0
H2085 H 0.1225 0.53852 0.51093 0.0
loop_
_geom_bond_atom_site_label_1
_geom_bond_atom_site_label_2
_geom_bond_distance
_geom_bond_site_symmetry_2
_ccdc_geom_bond_type
Dy0 O4 2.398 . S
Dy0 O5 2.491 . S
Dy0 O6 2.403 . S
Dy0 O7 2.664 . S
Dy0 O11 2.326 . S
Dy0 O15 2.310 . S
Dy0 O16 2.351 . S
C1 O12 1.185 . S
C1 O13 1.355 . S
C2 O4 1.185 . S
C2 O5 1.355 . S
Dy3 O7 2.310 . S
Dy3 O10 2.351 . S
Dy3 O12 2.398 . S
Dy3 O13 2.491 . S
Dy3 O14 2.403 . S
Dy3 O15 2.664 . S
Dy3 O17 2.326 . S
O4 Dy0 2.398 . S
O4 C2 1.185 . S
O5 Dy0 2.491 . S
O5 C2 1.355 . S
O6 Dy0 2.403 . S
O6 C8 1.254 . S
O7 Dy0 2.664 . S
O7 Dy3 2.310 . S
O7 C8 1.268 . S
C8 O6 1.254 . S
C8 O7 1.268 . S
C9 O14 1.254 . S
C9 O15 1.268 . S
O10 Dy3 2.351 . S
O10 C18 1.249 . S
O11 Dy0 2.326 . S
O11 C18 1.267 . S
O12 C1 1.185 . S
O12 Dy3 2.398 . S
O13 C1 1.355 . S
O13 Dy3 2.491 . S
O14 Dy3 2.403 . S
O14 C9 1.254 . S
O15 Dy0 2.310 . S
O15 Dy3 2.664 . S
O15 C9 1.268 . S
O16 Dy0 2.351 . S
O16 C19 1.249 . S
O17 Dy3 2.326 . S
O17 C19 1.267 . S
C18 O10 1.249 . S
C18 O11 1.267 . S
C19 O16 1.249 . S
C19 O17 1.267 . S
Dy20 O24 2.398 . S
Dy20 O25 2.491 . S
Dy20 O26 2.403 . S
Dy20 O27 2.664 . S
Dy20 O31 2.326 . S
Dy20 O35 2.310 . S
Dy20 O36 2.351 . S
C21 O32 1.185 . S
C21 O33 1.355 . S
C22 O24 1.185 . S
C22 O25 1.355 . S
Dy23 O27 2.310 . S
Dy23 O30 2.351 . S
Dy23 O32 2.398 . S
Dy23 O33 2.491 . S
Dy23 O34 2.403 . S
Dy23 O35 2.664 . S
Dy23 O37 2.326 . S
O24 Dy20 2.398 . S
O24 C22 1.185 . S
O25 Dy20 2.491 . S
O25 C22 1.355 . S
O26 Dy20 2.403 . S
O26 C28 1.254 . S
O27 Dy20 2.664 . S
O27 Dy23 2.310 . S
O27 C28 1.268 . S
C28 O26 1.254 . S
C28 O27 1.268 . S
C29 O34 1.254 . S
C29 O35 1.268 . S
O30 Dy23 2.351 . S
O30 C38 1.249 . S
O31 Dy20 2.326 . S
O31 C38 1.267 . S
O32 C21 1.185 . S
O32 Dy23 2.398 . S
O33 C21 1.355 . S
O33 Dy23 2.491 . S
O34 Dy23 2.403 . S
O34 C29 1.254 . S
O35 Dy20 2.310 . S
O35 Dy23 2.664 . S
O35 C29 1.268 . S
O36 Dy20 2.351 . S
O36 C39 1.249 . S
O37 Dy23 2.326 . S
O37 C39 1.267 . S
C38 O30 1.249 . S
C38 O31 1.267 . S
C39 O36 1.249 . S
C39 O37 1.267 . S
Dy40 O44 2.398 . S
Dy40 O45 2.491 . S
Dy40 O46 2.403 . S
Dy40 O47 2.664 . S
Dy40 O51 2.326 . S
Dy40 O55 2.310 . S
Dy40 O56 2.351 . S
C41 O52 1.185 . S
C41 O53 1.355 . S
C42 O44 1.185 . S
C42 O45 1.355 . S
Dy43 O47 2.310 . S
Dy43 O50 2.351 . S
Dy43 O52 2.398 . S
Dy43 O53 2.491 . S
Dy43 O54 2.403 . S
Dy43 O55 2.664 . S
Dy43 O57 2.326 . S
O44 Dy40 2.398 . S
O44 C42 1.185 . S
O45 Dy40 2.491 . S
O45 C42 1.355 . S
O46 Dy40 2.403 . S
O46 C48 1.254 . S
O47 Dy40 2.664 . S
O47 Dy43 2.310 . S
O47 C48 1.268 . S
C48 O46 1.254 . S
C48 O47 1.268 . S
C49 O54 1.254 . S
C49 O55 1.268 . S
O50 Dy43 2.351 . S
O50 C58 1.249 . S
O51 Dy40 2.326 . S
O51 C58 1.267 . S
O52 C41 1.185 . S
O52 Dy43 2.398 . S
O53 C41 1.355 . S
O53 Dy43 2.491 . S
O54 Dy43 2.403 . S
O54 C49 1.254 . S
O55 Dy40 2.310 . S
O55 Dy43 2.664 . S
O55 C49 1.268 . S
O56 Dy40 2.351 . S
O56 C59 1.249 . S
O57 Dy43 2.326 . S
O57 C59 1.267 . S
C58 O50 1.249 . S
C58 O51 1.267 . S
C59 O56 1.249 . S
C59 O57 1.267 . S
Dy60 O64 2.398 . S
Dy60 O65 2.491 . S
Dy60 O66 2.403 . S
Dy60 O67 2.664 . S
Dy60 O71 2.326 . S
Dy60 O75 2.310 . S
Dy60 O76 2.351 . S
C61 O72 1.185 . S
C61 O73 1.355 . S
C62 O64 1.185 . S
C62 O65 1.355 . S
Dy63 O67 2.310 . S
Dy63 O70 2.351 . S
Dy63 O72 2.398 . S
Dy63 O73 2.491 . S
Dy63 O74 2.403 . S
Dy63 O75 2.664 . S
Dy63 O77 2.326 . S
O64 Dy60 2.398 . S
O64 C62 1.185 . S
O65 Dy60 2.491 . S
O65 C62 1.355 . S
O66 Dy60 2.403 . S
O66 C68 1.254 . S
O67 Dy60 2.664 . S
O67 Dy63 2.310 . S
O67 C68 1.268 . S
C68 O66 1.254 . S
C68 O67 1.268 . S
C69 O74 1.254 . S
C69 O75 1.268 . S
O70 Dy63 2.351 . S
O70 C78 1.249 . S
O71 Dy60 2.326 . S
O71 C78 1.267 . S
O72 C61 1.185 . S
O72 Dy63 2.398 . S
O73 C61 1.355 . S
O73 Dy63 2.491 . S
O74 Dy63 2.403 . S
O74 C69 1.254 . S
O75 Dy60 2.310 . S
O75 Dy63 2.664 . S
O75 C69 1.268 . S
O76 Dy60 2.351 . S
O76 C79 1.249 . S
O77 Dy63 2.326 . S
O77 C79 1.267 . S
C78 O70 1.249 . S
C78 O71 1.267 . S
C79 O76 1.249 . S
C79 O77 1.267 . S
Dy80 O84 2.398 . S
Dy80 O85 2.491 . S
Dy80 O86 2.403 . S
Dy80 O87 2.664 . S
Dy80 O91 2.326 . S
Dy80 O95 2.310 . S
Dy80 O96 2.351 . S
C81 O92 1.185 . S
C81 O93 1.355 . S
C82 O84 1.185 . S
C82 O85 1.355 . S
Dy83 O87 2.310 . S
Dy83 O90 2.351 . S
Dy83 O92 2.398 . S
Dy83 O93 2.491 . S
Dy83 O94 2.403 . S
Dy83 O95 2.664 . S
Dy83 O97 2.326 . S
O84 Dy80 2.398 . S
O84 C82 1.185 . S
O85 Dy80 2.491 . S
O85 C82 1.355 . S
O86 Dy80 2.403 . S
O86 C88 1.254 . S
O87 Dy80 2.664 . S
O87 Dy83 2.310 . S
O87 C88 1.268 . S
C88 O86 1.254 . S
C88 O87 1.268 . S
C89 O94 1.254 . S
C89 O95 1.268 . S
O90 Dy83 2.351 . S
O90 C98 1.249 . S
O91 Dy80 2.326 . S
O91 C98 1.267 . S
O92 C81 1.185 . S
O92 Dy83 2.398 . S
O93 C81 1.355 . S
O93 Dy83 2.491 . S
O94 Dy83 2.403 . S
O94 C89 1.254 . S
O95 Dy80 2.310 . S
O95 Dy83 2.664 . S
O95 C89 1.268 . S
O96 Dy80 2.351 . S
O96 C99 1.249 . S
O97 Dy83 2.326 . S
O97 C99 1.267 . S
C98 O90 1.249 . S
C98 O91 1.267 . S
C99 O96 1.249 . S
C99 O97 1.267 . S
Dy100 O104 2.398 . S
Dy100 O105 2.491 . S
Dy100 O106 2.403 . S
Dy100 O107 2.664 . S
Dy100 O111 2.326 . S
Dy100 O115 2.310 . S
Dy100 O116 2.351 . S
C101 O112 1.185 . S
C101 O113 1.355 . S
C102 O104 1.185 . S
C102 O105 1.355 . S
Dy103 O107 2.310 . S
Dy103 O110 2.351 . S
Dy103 O112 2.398 . S
Dy103 O113 2.491 . S
Dy103 O114 2.403 . S
Dy103 O115 2.664 . S
Dy103 O117 2.326 . S
O104 Dy100 2.398 . S
O104 C102 1.185 . S
O105 Dy100 2.491 . S
O105 C102 1.355 . S
O106 Dy100 2.403 . S
O106 C108 1.254 . S
O107 Dy100 2.664 . S
O107 Dy103 2.310 . S
O107 C108 1.268 . S
C108 O106 1.254 . S
C108 O107 1.268 . S
C109 O114 1.254 . S
C109 O115 1.268 . S
O110 Dy103 2.351 . S
O110 C118 1.249 . S
O111 Dy100 2.326 . S
O111 C118 1.267 . S
O112 C101 1.185 . S
O112 Dy103 2.398 . S
O113 C101 1.355 . S
O113 Dy103 2.491 . S
O114 Dy103 2.403 . S
O114 C109 1.254 . S
O115 Dy100 2.310 . S
O115 Dy103 2.664 . S
O115 C109 1.268 . S
O116 Dy100 2.351 . S
O116 C119 1.249 . S
O117 Dy103 2.326 . S
O117 C119 1.267 . S
C118 O110 1.249 . S
C118 O111 1.267 . S
C119 O116 1.249 . S
C119 O117 1.267 . S
Dy120 O124 2.398 . S
Dy120 O125 2.491 . S
Dy120 O126 2.403 . S
Dy120 O127 2.664 . S
Dy120 O131 2.326 . S
Dy120 O135 2.310 . S
Dy120 O136 2.351 . S
C121 O132 1.185 . S
C121 O133 1.355 . S
C122 O124 1.185 . S
C122 O125 1.355 . S
Dy123 O127 2.310 . S
Dy123 O130 2.351 . S
Dy123 O132 2.398 . S
Dy123 O133 2.491 . S
Dy123 O134 2.403 . S
Dy123 O135 2.664 . S
Dy123 O137 2.326 . S
O124 Dy120 2.398 . S
O124 C122 1.185 . S
O125 Dy120 2.491 . S
O125 C122 1.355 . S
O126 Dy120 2.403 . S
O126 C128 1.254 . S
O127 Dy120 2.664 . S
O127 Dy123 2.310 . S
O127 C128 1.268 . S
C128 O126 1.254 . S
C128 O127 1.268 . S
C129 O134 1.254 . S
C129 O135 1.268 . S
O130 Dy123 2.351 . S
O130 C138 1.249 . S
O131 Dy120 2.326 . S
O131 C138 1.267 . S
O132 C121 1.185 . S
O132 Dy123 2.398 . S
O133 C121 1.355 . S
O133 Dy123 2.491 . S
O134 Dy123 2.403 . S
O134 C129 1.254 . S
O135 Dy120 2.310 . S
O135 Dy123 2.664 . S
O135 C129 1.268 . S
O136 Dy120 2.351 . S
O136 C139 1.249 . S
O137 Dy123 2.326 . S
O137 C139 1.267 . S
C138 O130 1.249 . S
C138 O131 1.267 . S
C139 O136 1.249 . S
C139 O137 1.267 . S
Dy140 O144 2.398 . S
Dy140 O145 2.491 . S
Dy140 O146 2.403 . S
Dy140 O147 2.664 . S
Dy140 O151 2.326 . S
Dy140 O155 2.310 . S
Dy140 O156 2.351 . S
C141 O152 1.185 . S
C141 O153 1.355 . S
C142 O144 1.185 . S
C142 O145 1.355 . S
Dy143 O147 2.310 . S
Dy143 O150 2.351 . S
Dy143 O152 2.398 . S
Dy143 O153 2.491 . S
Dy143 O154 2.403 . S
Dy143 O155 2.664 . S
Dy143 O157 2.326 . S
O144 Dy140 2.398 . S
O144 C142 1.185 . S
O145 Dy140 2.491 . S
O145 C142 1.355 . S
O146 Dy140 2.403 . S
O146 C148 1.254 . S
O147 Dy140 2.664 . S
O147 Dy143 2.310 . S
O147 C148 1.268 . S
C148 O146 1.254 . S
C148 O147 1.268 . S
C149 O154 1.254 . S
C149 O155 1.268 . S
O150 Dy143 2.351 . S
O150 C158 1.249 . S
O151 Dy140 2.326 . S
O151 C158 1.267 . S
O152 C141 1.185 . S
O152 Dy143 2.398 . S
O153 C141 1.355 . S
O153 Dy143 2.491 . S
O154 Dy143 2.403 . S
O154 C149 1.254 . S
O155 Dy140 2.310 . S
O155 Dy143 2.664 . S
O155 C149 1.268 . S
O156 Dy140 2.351 . S
O156 C159 1.249 . S
O157 Dy143 2.326 . S
O157 C159 1.267 . S
C158 O150 1.249 . S
C158 O151 1.267 . S
C159 O156 1.249 . S
C159 O157 1.267 . S
Co160 O163 2.042 . S
Co160 O170 2.264 . S
Co160 O189 2.286 . S
Co160 O190 2.069 . S
Co160 O192 2.015 1_455 S
Co161 O163 2.122 . S
Co161 O169 2.073 . S
Co161 O170 2.327 . S
Co161 O171 1.976 1_455 S
Co162 O163 2.093 1_545 S
Co162 O165 2.080 1_455 S
Co162 O172 2.106 1_445 S
Co162 O173 2.148 . S
Co162 O177 2.117 . S
Co162 O191 2.139 1_445 S
O163 Co160 2.042 . S
O163 Co161 2.122 . S
O163 Co162 2.093 1_565 S
O163 H164 0.980 . S
H164 O163 0.980 . S
O165 Co162 2.080 1_655 S
O165 Co166 2.042 . S
O165 Co167 2.122 . S
O165 H168 0.980 . S
Co166 O165 2.042 . S
Co166 O174 2.286 . S
Co166 O175 2.069 . S
Co166 O176 2.015 1_655 S
Co166 O179 2.264 . S
Co167 O165 2.122 . S
Co167 O178 1.976 1_655 S
Co167 O179 2.327 . S
Co167 O180 2.073 . S
H168 O165 0.980 . S
O169 Co161 2.073 . S
O169 C184 1.245 . S
O170 Co160 2.264 . S
O170 Co161 2.327 . S
O170 C184 1.257 . S
O171 Co161 1.976 1_655 S
O171 C183 1.251 . S
O172 Co162 2.106 1_665 S
O172 C183 1.274 . S
O173 Co162 2.148 . S
O173 C186 1.246 . S
O174 Co166 2.286 . S
O174 C185 1.259 . S
O175 Co166 2.069 . S
O175 C185 1.289 . S
O176 Co166 2.015 1_455 S
O176 C186 1.257 . S
O177 Co162 2.117 . S
O177 C187 1.274 . S
O178 Co167 1.976 1_455 S
O178 C187 1.251 . S
O179 Co166 2.264 . S
O179 Co167 2.327 . S
O179 C188 1.257 . S
O180 Co167 2.073 . S
O180 C188 1.245 . S
C181 O189 1.259 . S
C181 O190 1.289 . S
C182 O191 1.246 . S
C182 O192 1.257 . S
C183 O171 1.251 . S
C183 O172 1.274 . S
C184 O169 1.245 . S
C184 O170 1.257 . S
C185 O174 1.259 . S
C185 O175 1.289 . S
C186 O173 1.246 . S
C186 O176 1.257 . S
C187 O177 1.274 . S
C187 O178 1.251 . S
C188 O179 1.257 . S
C188 O180 1.245 . S
O189 Co160 2.286 . S
O189 C181 1.259 . S
O190 Co160 2.069 . S
O190 C181 1.289 . S
O191 Co162 2.139 1_665 S
O191 C182 1.246 . S
O192 Co160 2.015 1_655 S
O192 C182 1.257 . S
Co193 O196 2.042 1_556 S
Co193 O203 2.264 1_556 S
Co193 O222 2.286 . S
Co193 O223 2.069 . S
Co193 O225 2.015 . S
Co194 O196 2.122 . S
Co194 O202 2.073 . S
Co194 O203 2.327 . S
Co194 O204 1.976 . S
Co195 O196 2.086 1_545 S
Co195 O198 2.088 1_554 S
Co195 O205 2.111 1_545 S
Co195 O206 2.144 . S
Co195 O210 2.112 1_554 S
Co195 O224 2.143 1_544 S
O196 Co193 2.042 1_554 S
O196 Co194 2.122 . S
O196 Co195 2.086 1_565 S
O196 H197 0.980 . S
H197 O196 0.980 . S
O198 Co195 2.088 1_556 S
O198 Co199 2.042 1_556 S
O198 Co200 2.122 . S
O198 H201 0.980 . S
Co199 O198 2.042 1_554 S
Co199 O207 2.286 . S
Co199 O208 2.069 . S
Co199 O209 2.015 . S
Co199 O212 2.264 1_554 S
Co200 O198 2.122 . S
Co200 O211 1.976 . S
Co200 O212 2.327 . S
Co200 O213 2.073 . S
H201 O198 0.980 . S
O202 Co194 2.073 . S
O202 C217 1.245 . S
O203 Co193 2.264 1_554 S
O203 Co194 2.327 . S
O203 C217 1.257 . S
O204 Co194 1.976 . S
O204 C216 1.251 . S
O205 Co195 2.111 1_565 S
O205 C216 1.274 . S
O206 Co195 2.144 . S
O206 C219 1.246 . S
O207 Co199 2.286 . S
O207 C218 1.259 . S
O208 Co199 2.069 . S
O208 C218 1.289 . S
O209 Co199 2.015 . S
O209 C219 1.257 . S
O210 Co195 2.112 1_556 S
O210 C220 1.274 . S
O211 Co200 1.976 . S
O211 C220 1.251 . S
O212 Co199 2.264 1_556 S
O212 Co200 2.327 . S
O212 C221 1.257 . S
O213 Co200 2.073 . S
O213 C221 1.245 . S
C214 O222 1.259 . S
C214 O223 1.289 . S
C215 O224 1.246 . S
C215 O225 1.257 . S
C216 O204 1.251 . S
C216 O205 1.274 . S
C217 O202 1.245 . S
C217 O203 1.257 . S
C218 O207 1.259 . S
C218 O208 1.289 . S
C219 O206 1.246 . S
C219 O209 1.257 . S
C220 O210 1.274 . S
C220 O211 1.251 . S
C221 O212 1.257 . S
C221 O213 1.245 . S
O222 Co193 2.286 . S
O222 C214 1.259 . S
O223 Co193 2.069 . S
O223 C214 1.289 . S
O224 Co195 2.143 1_566 S
O224 C215 1.246 . S
O225 Co193 2.015 . S
O225 C215 1.257 . S
Co226 O229 2.042 1_556 S
Co226 O236 2.264 1_556 S
Co226 O255 2.286 . S
Co226 O256 2.069 . S
Co226 O258 2.015 1_455 S
Co227 O229 2.122 . S
Co227 O235 2.073 . S
Co227 O236 2.327 . S
Co227 O237 1.976 1_455 S
Co228 O229 2.094 . S
Co228 O231 2.080 1_454 S
Co228 O238 2.106 1_455 S
Co228 O239 2.147 . S
Co228 O243 2.116 1_554 S
Co228 O257 2.140 1_454 S
O229 Co226 2.042 1_554 S
O229 Co227 2.122 . S
O229 Co228 2.094 . S
O229 H230 0.980 . S
H230 O229 0.980 . S
O231 Co228 2.080 1_656 S
O231 Co232 2.042 1_556 S
O231 Co233 2.122 . S
O231 H234 0.980 . S
Co232 O231 2.042 1_554 S
Co232 O240 2.286 . S
Co232 O241 2.069 . S
Co232 O242 2.015 1_655 S
Co232 O245 2.264 1_554 S
Co233 O231 2.122 . S
Co233 O244 1.976 1_655 S
Co233 O245 2.327 . S
Co233 O246 2.073 . S
H234 O231 0.980 . S
O235 Co227 2.073 . S
O235 C250 1.245 . S
O236 Co226 2.264 1_554 S
O236 Co227 2.327 . S
O236 C250 1.257 . S
O237 Co227 1.976 1_655 S
O237 C249 1.251 . S
O238 Co228 2.106 1_655 S
O238 C249 1.274 . S
O239 Co228 2.147 . S
O239 C252 1.246 . S
O240 Co232 2.286 . S
O240 C251 1.259 . S
O241 Co232 2.069 . S
O241 C251 1.289 . S
O242 Co232 2.015 1_455 S
O242 C252 1.257 . S
O243 Co228 2.116 1_556 S
O243 C253 1.274 . S
O244 Co233 1.976 1_455 S
O244 C253 1.251 . S
O245 Co232 2.264 1_556 S
O245 Co233 2.327 . S
O245 C254 1.257 . S
O246 Co233 2.073 . S
O246 C254 1.245 . S
C247 O255 1.259 . S
C247 O256 1.289 . S
C248 O257 1.246 . S
C248 O258 1.257 . S
C249 O237 1.251 . S
C249 O238 1.274 . S
C250 O235 1.245 . S
C250 O236 1.257 . S
C251 O240 1.259 . S
C251 O241 1.289 . S
C252 O239 1.246 . S
C252 O242 1.257 . S
C253 O243 1.274 . S
C253 O244 1.251 . S
C254 O245 1.257 . S
C254 O246 1.245 . S
O255 Co226 2.286 . S
O255 C247 1.259 . S
O256 Co226 2.069 . S
O256 C247 1.289 . S
O257 Co228 2.140 1_656 S
O257 C248 1.246 . S
O258 Co226 2.015 1_655 S
O258 C248 1.257 . S
Co259 O262 2.042 1_556 S
Co259 O269 2.264 1_556 S
Co259 O288 2.286 . S
Co259 O289 2.069 . S
Co259 O291 2.015 . S
Co260 O262 2.122 . S
Co260 O268 2.073 . S
Co260 O269 2.327 . S
Co260 O270 1.976 . S
Co261 O262 2.087 . S
Co261 O264 2.087 1_554 S
Co261 O271 2.111 . S
Co261 O272 2.143 . S
Co261 O276 2.111 1_554 S
Co261 O290 2.143 1_554 S
O262 Co259 2.042 1_554 S
O262 Co260 2.122 . S
O262 Co261 2.087 . S
O262 H263 0.980 . S
H263 O262 0.980 . S
O264 Co261 2.087 1_556 S
O264 Co265 2.042 1_556 S
O264 Co266 2.122 . S
O264 H267 0.980 . S
Co265 O264 2.042 1_554 S
Co265 O273 2.286 . S
Co265 O274 2.069 . S
Co265 O275 2.015 . S
Co265 O278 2.264 1_554 S
Co266 O264 2.122 . S
Co266 O277 1.976 . S
Co266 O278 2.327 . S
Co266 O279 2.073 . S
H267 O264 0.980 . S
O268 Co260 2.073 . S
O268 C283 1.245 . S
O269 Co259 2.264 1_554 S
O269 Co260 2.327 . S
O269 C283 1.257 . S
O270 Co260 1.976 . S
O270 C282 1.251 . S
O271 Co261 2.111 . S
O271 C282 1.274 . S
O272 Co261 2.143 . S
O272 C285 1.246 . S
O273 Co265 2.286 . S
O273 C284 1.259 . S
O274 Co265 2.069 . S
O274 C284 1.289 . S
O275 Co265 2.015 . S
O275 C285 1.257 . S
O276 Co261 2.111 1_556 S
O276 C286 1.274 . S
O277 Co266 1.976 . S
O277 C286 1.251 . S
O278 Co265 2.264 1_556 S
O278 Co266 2.327 . S
O278 C287 1.257 . S
O279 Co266 2.073 . S
O279 C287 1.245 . S
C280 O288 1.259 . S
C280 O289 1.289 . S
C281 O290 1.246 . S
C281 O291 1.257 . S
C282 O270 1.251 . S
C282 O271 1.274 . S
C283 O268 1.245 . S
C283 O269 1.257 . S
C284 O273 1.259 . S
C284 O274 1.289 . S
C285 O272 1.246 . S
C285 O275 1.257 . S
C286 O276 1.274 . S
C286 O277 1.251 . S
C287 O278 1.257 . S
C287 O279 1.245 . S
O288 Co259 2.286 . S
O288 C280 1.259 . S
O289 Co259 2.069 . S
O289 C280 1.289 . S
O290 Co261 2.143 1_556 S
O290 C281 1.246 . S
O291 Co259 2.015 . S
O291 C281 1.257 . S
Co292 O295 2.042 . S
Co292 O302 2.264 . S
Co292 O321 2.286 . S
Co292 O322 2.069 . S
Co292 O324 2.015 . S
Co293 O295 2.122 . S
Co293 O301 2.073 . S
Co293 O302 2.327 . S
Co293 O303 1.976 . S
Co294 O295 2.094 . S
Co294 O297 2.080 1_455 S
Co294 O304 2.114 . S
Co294 O305 2.138 1_455 S
Co294 O309 2.109 1_455 S
Co294 O323 2.149 . S
O295 Co292 2.042 . S
O295 Co293 2.122 . S
O295 Co294 2.094 . S
O295 H296 0.980 . S
H296 O295 0.980 . S
O297 Co294 2.080 1_655 S
O297 Co298 2.042 . S
O297 Co299 2.122 . S
O297 H300 0.980 . S
Co298 O297 2.042 . S
Co298 O306 2.286 . S
Co298 O307 2.069 . S
Co298 O308 2.015 . S
Co298 O311 2.264 . S
Co299 O297 2.122 . S
Co299 O310 1.976 . S
Co299 O311 2.327 . S
Co299 O312 2.073 . S
H300 O297 0.980 . S
O301 Co293 2.073 . S
O301 C316 1.245 . S
O302 Co292 2.264 . S
O302 Co293 2.327 . S
O302 C316 1.257 . S
O303 Co293 1.976 . S
O303 C315 1.251 . S
O304 Co294 2.114 . S
O304 C315 1.274 . S
O305 Co294 2.138 1_655 S
O305 C318 1.246 . S
O306 Co298 2.286 . S
O306 C317 1.259 . S
O307 Co298 2.069 . S
O307 C317 1.289 . S
O308 Co298 2.015 . S
O308 C318 1.257 . S
O309 Co294 2.109 1_655 S
O309 C319 1.274 . S
O310 Co299 1.976 . S
O310 C319 1.251 . S
O311 Co298 2.264 . S
O311 Co299 2.327 . S
O311 C320 1.257 . S
O312 Co299 2.073 . S
O312 C320 1.245 . S
C313 O321 1.259 . S
C313 O322 1.289 . S
C314 O323 1.246 . S
C314 O324 1.257 . S
C315 O303 1.251 . S
C315 O304 1.274 . S
C316 O301 1.245 . S
C316 O302 1.257 . S
C317 O306 1.259 . S
C317 O307 1.289 . S
C318 O305 1.246 . S
C318 O308 1.257 . S
C319 O309 1.274 . S
C319 O310 1.251 . S
C320 O311 1.257 . S
C320 O312 1.245 . S
O321 Co292 2.286 . S
O321 C313 1.259 . S
O322 Co292 2.069 . S
O322 C313 1.289 . S
O323 Co294 2.149 . S
O323 C314 1.246 . S
O324 Co292 2.015 . S
O324 C314 1.257 . S
Co325 O328 2.042 . S
Co325 O335 2.264 . S
Co325 O354 2.286 . S
Co325 O355 2.069 . S
Co325 O357 2.015 1_565 S
Co326 O328 2.122 . S
Co326 O334 2.073 . S
Co326 O335 2.327 . S
Co326 O336 1.976 1_565 S
Co327 O328 2.086 1_545 S
Co327 O330 2.088 . S
Co327 O337 2.112 . S
Co327 O338 2.143 1_545 S
Co327 O342 2.111 1_545 S
Co327 O356 2.144 . S
O328 Co325 2.042 . S
O328 Co326 2.122 . S
O328 Co327 2.086 1_565 S
O328 H329 0.980 . S
H329 O328 0.980 . S
O330 Co327 2.088 . S
O330 Co331 2.042 . S
O330 Co332 2.122 . S
O330 H333 0.980 . S
Co331 O330 2.042 . S
Co331 O339 2.286 . S
Co331 O340 2.069 . S
Co331 O341 2.015 1_545 S
Co331 O344 2.264 . S
Co332 O330 2.122 . S
Co332 O343 1.976 1_545 S
Co332 O344 2.327 . S
Co332 O345 2.073 . S
H333 O330 0.980 . S
O334 Co326 2.073 . S
O334 C349 1.245 . S
O335 Co325 2.264 . S
O335 Co326 2.327 . S
O335 C349 1.257 . S
O336 Co326 1.976 1_545 S
O336 C348 1.251 . S
O337 Co327 2.112 . S
O337 C348 1.274 . S
O338 Co327 2.143 1_565 S
O338 C351 1.246 . S
O339 Co331 2.286 . S
O339 C350 1.259 . S
O340 Co331 2.069 . S
O340 C350 1.289 . S
O341 Co331 2.015 1_565 S
O341 C351 1.257 . S
O342 Co327 2.111 1_565 S
O342 C352 1.274 . S
O343 Co332 1.976 1_565 S
O343 C352 1.251 . S
O344 Co331 2.264 . S
O344 Co332 2.327 . S
O344 C353 1.257 . S
O345 Co332 2.073 . S
O345 C353 1.245 . S
C346 O354 1.259 . S
C346 O355 1.289 . S
C347 O356 1.246 . S
C347 O357 1.257 . S
C348 O336 1.251 . S
C348 O337 1.274 . S
C349 O334 1.245 . S
C349 O335 1.257 . S
C350 O339 1.259 . S
C350 O340 1.289 . S
C351 O338 1.246 . S
C351 O341 1.257 . S
C352 O342 1.274 . S
C352 O343 1.251 . S
C353 O344 1.257 . S
C353 O345 1.245 . S
O354 Co325 2.286 . S
O354 C346 1.259 . S
O355 Co325 2.069 . S
O355 C346 1.289 . S
O356 Co327 2.144 . S
O356 C347 1.246 . S
O357 Co325 2.015 1_545 S
O357 C347 1.257 . S
H358 C366 0.929 . S
H359 C368 0.930 . S
H360 C370 0.930 . S
H361 C373 0.929 . S
H362 C376 0.930 . S
H363 C378 0.960 . S
H364 C378 0.960 . S
H365 C378 0.960 . S
C366 H358 0.929 . S
C366 C367 1.377 . S
C366 C368 1.384 . S
C367 C366 1.377 . S
C367 C373 1.390 . S
C368 H359 0.930 . S
C368 C366 1.384 . S
C368 C369 1.372 . S
C369 C368 1.372 . S
C369 C370 1.400 . S
C369 C374 1.490 . S
C370 H360 0.930 . S
C370 C369 1.400 . S
C370 C373 1.386 . S
H371 C387 0.930 . S
H372 C388 0.931 . S
C373 H361 0.929 . S
C373 C367 1.390 . S
C373 C370 1.386 . S
C374 C369 1.490 . S
C374 C376 1.395 . S
C374 C377 1.403 . S
H375 C381 0.930 . S
C376 H362 0.930 . S
C376 C374 1.395 . S
C376 C379 1.403 . S
C377 C374 1.403 . S
C377 C378 1.524 . S
C377 C381 1.400 . S
C378 H363 0.960 . S
C378 H364 0.960 . S
C378 H365 0.960 . S
C378 C377 1.524 . S
C379 C376 1.403 . S
C379 C380 1.392 . S
C379 C383 1.495 . S
C380 C379 1.392 . S
C380 C381 1.385 . S
C380 C382 1.478 . S
C381 H375 0.930 . S
C381 C377 1.400 . S
C381 C380 1.385 . S
C382 C380 1.478 . S
C382 C384 1.381 . S
C382 C388 1.383 . S
C383 C379 1.495 . S
C383 H389 0.959 . S
C383 H390 0.961 . S
C383 H391 0.960 . S
C384 C382 1.381 . S
C384 C385 1.394 . S
C384 H392 0.930 . S
C385 C384 1.394 . S
C385 C386 1.383 . S
C385 H393 0.929 . S
C386 C385 1.383 . S
C386 C387 1.377 . S
C387 H371 0.930 . S
C387 C386 1.377 . S
C387 C388 1.379 . S
C388 H372 0.931 . S
C388 C382 1.383 . S
C388 C387 1.379 . S
H389 C383 0.959 . S
H390 C383 0.961 . S
H391 C383 0.960 . S
H392 C384 0.930 . S
H393 C385 0.929 . S
H394 C402 0.929 . S
H395 C404 0.930 . S
H396 C406 0.930 . S
H397 C409 0.929 . S
H398 C412 0.930 . S
H399 C414 0.960 . S
H400 C414 0.960 . S
H401 C414 0.960 . S
C402 H394 0.929 . S
C402 C403 1.377 . S
C402 C404 1.384 . S
C403 C402 1.377 . S
C403 C409 1.390 . S
C404 H395 0.930 . S
C404 C402 1.384 . S
C404 C405 1.372 . S
C405 C404 1.372 . S
C405 C406 1.400 . S
C405 C410 1.490 . S
C406 H396 0.930 . S
C406 C405 1.400 . S
C406 C409 1.386 . S
H407 C423 0.930 . S
H408 C424 0.931 . S
C409 H397 0.929 . S
C409 C403 1.390 . S
C409 C406 1.386 . S
C410 C405 1.490 . S
C410 C412 1.395 . S
C410 C413 1.403 . S
H411 C417 0.930 . S
C412 H398 0.930 . S
C412 C410 1.395 . S
C412 C415 1.403 . S
C413 C410 1.403 . S
C413 C414 1.524 . S
C413 C417 1.400 . S
C414 H399 0.960 . S
C414 H400 0.960 . S
C414 H401 0.960 . S
C414 C413 1.524 . S
C415 C412 1.403 . S
C415 C416 1.392 . S
C415 C419 1.495 . S
C416 C415 1.392 . S
C416 C417 1.385 . S
C416 C418 1.478 . S
C417 H411 0.930 . S
C417 C413 1.400 . S
C417 C416 1.385 . S
C418 C416 1.478 . S
C418 C420 1.381 . S
C418 C424 1.383 . S
C419 C415 1.495 . S
C419 H425 0.959 . S
C419 H426 0.961 . S
C419 H427 0.960 . S
C420 C418 1.381 . S
C420 C421 1.394 . S
C420 H428 0.930 . S
C421 C420 1.394 . S
C421 C422 1.383 . S
C421 H429 0.929 . S
C422 C421 1.383 . S
C422 C423 1.377 . S
C423 H407 0.930 . S
C423 C422 1.377 . S
C423 C424 1.379 . S
C424 H408 0.931 . S
C424 C418 1.383 . S
C424 C423 1.379 . S
H425 C419 0.959 . S
H426 C419 0.961 . S
H427 C419 0.960 . S
H428 C420 0.930 . S
H429 C421 0.929 . S
H430 C438 0.929 . S
H431 C440 0.930 . S
H432 C442 0.930 . S
H433 C445 0.929 . S
H434 C448 0.930 . S
H435 C450 0.960 . S
H436 C450 0.960 . S
H437 C450 0.960 . S
C438 H430 0.929 . S
C438 C439 1.377 . S
C438 C440 1.384 . S
C439 C438 1.377 . S
C439 C445 1.390 . S
C440 H431 0.930 . S
C440 C438 1.384 . S
C440 C441 1.372 . S
C441 C440 1.372 . S
C441 C442 1.400 . S
C441 C446 1.490 . S
C442 H432 0.930 . S
C442 C441 1.400 . S
C442 C445 1.386 . S
H443 C459 0.930 . S
H444 C460 0.931 . S
C445 H433 0.929 . S
C445 C439 1.390 . S
C445 C442 1.386 . S
C446 C441 1.490 . S
C446 C448 1.395 . S
C446 C449 1.403 . S
H447 C453 0.930 . S
C448 H434 0.930 . S
C448 C446 1.395 . S
C448 C451 1.403 . S
C449 C446 1.403 . S
C449 C450 1.524 . S
C449 C453 1.400 . S
C450 H435 0.960 . S
C450 H436 0.960 . S
C450 H437 0.960 . S
C450 C449 1.524 . S
C451 C448 1.403 . S
C451 C452 1.392 . S
C451 C455 1.495 . S
C452 C451 1.392 . S
C452 C453 1.385 . S
C452 C454 1.478 . S
C453 H447 0.930 . S
C453 C449 1.400 . S
C453 C452 1.385 . S
C454 C452 1.478 . S
C454 C456 1.381 . S
C454 C460 1.383 . S
C455 C451 1.495 . S
C455 H461 0.959 . S
C455 H462 0.961 . S
C455 H463 0.960 . S
C456 C454 1.381 . S
C456 C457 1.394 . S
C456 H464 0.930 . S
C457 C456 1.394 . S
C457 C458 1.383 . S
C457 H465 0.929 . S
C458 C457 1.383 . S
C458 C459 1.377 . S
C459 H443 0.930 . S
C459 C458 1.377 . S
C459 C460 1.379 . S
C460 H444 0.931 . S
C460 C454 1.383 . S
C460 C459 1.379 . S
H461 C455 0.959 . S
H462 C455 0.961 . S
H463 C455 0.960 . S
H464 C456 0.930 . S
H465 C457 0.929 . S
H466 C474 0.929 . S
H467 C476 0.930 . S
H468 C478 0.930 . S
H469 C481 0.929 . S
H470 C484 0.930 . S
H471 C486 0.960 . S
H472 C486 0.960 . S
H473 C486 0.960 . S
C474 H466 0.929 . S
C474 C475 1.377 . S
C474 C476 1.384 . S
C475 C474 1.377 . S
C475 C481 1.390 . S
C476 H467 0.930 . S
C476 C474 1.384 . S
C476 C477 1.372 . S
C477 C476 1.372 . S
C477 C478 1.400 . S
C477 C482 1.490 . S
C478 H468 0.930 . S
C478 C477 1.400 . S
C478 C481 1.386 . S
H479 C495 0.930 . S
H480 C496 0.931 . S
C481 H469 0.929 . S
C481 C475 1.390 . S
C481 C478 1.386 . S
C482 C477 1.490 . S
C482 C484 1.395 . S
C482 C485 1.403 . S
H483 C489 0.930 . S
C484 H470 0.930 . S
C484 C482 1.395 . S
C484 C487 1.403 . S
C485 C482 1.403 . S
C485 C486 1.524 . S
C485 C489 1.400 . S
C486 H471 0.960 . S
C486 H472 0.960 . S
C486 H473 0.960 . S
C486 C485 1.524 . S
C487 C484 1.403 . S
C487 C488 1.392 . S
C487 C491 1.495 . S
C488 C487 1.392 . S
C488 C489 1.385 . S
C488 C490 1.478 . S
C489 H483 0.930 . S
C489 C485 1.400 . S
C489 C488 1.385 . S
C490 C488 1.478 . S
C490 C492 1.381 . S
C490 C496 1.383 . S
C491 C487 1.495 . S
C491 H497 0.959 . S
C491 H498 0.961 . S
C491 H499 0.960 . S
C492 C490 1.381 . S
C492 C493 1.394 . S
C492 H500 0.930 . S
C493 C492 1.394 . S
C493 C494 1.383 . S
C493 H501 0.929 . S
C494 C493 1.383 . S
C494 C495 1.377 . S
C495 H479 0.930 . S
C495 C494 1.377 . S
C495 C496 1.379 . S
C496 H480 0.931 . S
C496 C490 1.383 . S
C496 C495 1.379 . S
H497 C491 0.959 . S
H498 C491 0.961 . S
H499 C491 0.960 . S
H500 C492 0.930 . S
H501 C493 0.929 . S
H502 C510 0.929 . S
H503 C512 0.930 . S
H504 C514 0.930 . S
H505 C517 0.929 . S
H506 C520 0.930 . S
H507 C522 0.960 . S
H508 C522 0.960 . S
H509 C522 0.960 . S
C510 H502 0.929 . S
C510 C511 1.377 . S
C510 C512 1.384 . S
C511 C510 1.377 . S
C511 C517 1.390 . S
C512 H503 0.930 . S
C512 C510 1.384 . S
C512 C513 1.372 . S
C513 C512 1.372 . S
C513 C514 1.400 . S
C513 C518 1.490 . S
C514 H504 0.930 . S
C514 C513 1.400 . S
C514 C517 1.386 . S
H515 C531 0.930 . S
H516 C532 0.931 . S
C517 H505 0.929 . S
C517 C511 1.390 . S
C517 C514 1.386 . S
C518 C513 1.490 . S
C518 C520 1.395 . S
C518 C521 1.403 . S
H519 C525 0.930 . S
C520 H506 0.930 . S
C520 C518 1.395 . S
C520 C523 1.403 . S
C521 C518 1.403 . S
C521 C522 1.524 . S
C521 C525 1.400 . S
C522 H507 0.960 . S
C522 H508 0.960 . S
C522 H509 0.960 . S
C522 C521 1.524 . S
C523 C520 1.403 . S
C523 C524 1.392 . S
C523 C527 1.495 . S
C524 C523 1.392 . S
C524 C525 1.385 . S
C524 C526 1.478 . S
C525 H519 0.930 . S
C525 C521 1.400 . S
C525 C524 1.385 . S
C526 C524 1.478 . S
C526 C528 1.381 . S
C526 C532 1.383 . S
C527 C523 1.495 . S
C527 H533 0.959 . S
C527 H534 0.961 . S
C527 H535 0.960 . S
C528 C526 1.381 . S
C528 C529 1.394 . S
C528 H536 0.930 . S
C529 C528 1.394 . S
C529 C530 1.383 . S
C529 H537 0.929 . S
C530 C529 1.383 . S
C530 C531 1.377 . S
C531 H515 0.930 . S
C531 C530 1.377 . S
C531 C532 1.379 . S
C532 H516 0.931 . S
C532 C526 1.383 . S
C532 C531 1.379 . S
H533 C527 0.959 . S
H534 C527 0.961 . S
H535 C527 0.960 . S
H536 C528 0.930 . S
H537 C529 0.929 . S
H538 C546 0.929 . S
H539 C548 0.930 . S
H540 C550 0.930 . S
H541 C553 0.929 . S
H542 C556 0.930 . S
H543 C558 0.960 . S
H544 C558 0.960 . S
H545 C558 0.960 . S
C546 H538 0.929 . S
C546 C547 1.377 . S
C546 C548 1.384 . S
C547 C546 1.377 . S
C547 C553 1.390 . S
C548 H539 0.930 . S
C548 C546 1.384 . S
C548 C549 1.372 . S
C549 C548 1.372 . S
C549 C550 1.400 . S
C549 C554 1.490 . S
C550 H540 0.930 . S
C550 C549 1.400 . S
C550 C553 1.386 . S
H551 C567 0.930 . S
H552 C568 0.931 . S
C553 H541 0.929 . S
C553 C547 1.390 . S
C553 C550 1.386 . S
C554 C549 1.490 . S
C554 C556 1.395 . S
C554 C557 1.403 . S
H555 C561 0.930 . S
C556 H542 0.930 . S
C556 C554 1.395 . S
C556 C559 1.403 . S
C557 C554 1.403 . S
C557 C558 1.524 . S
C557 C561 1.400 . S
C558 H543 0.960 . S
C558 H544 0.960 . S
C558 H545 0.960 . S
C558 C557 1.524 . S
C559 C556 1.403 . S
C559 C560 1.392 . S
C559 C563 1.495 . S
C560 C559 1.392 . S
C560 C561 1.385 . S
C560 C562 1.478 . S
C561 H555 0.930 . S
C561 C557 1.400 . S
C561 C560 1.385 . S
C562 C560 1.478 . S
C562 C564 1.381 . S
C562 C568 1.383 . S
C563 C559 1.495 . S
C563 H569 0.959 . S
C563 H570 0.961 . S
C563 H571 0.960 . S
C564 C562 1.381 . S
C564 C565 1.394 . S
C564 H572 0.930 . S
C565 C564 1.394 . S
C565 C566 1.383 . S
C565 H573 0.929 . S
C566 C565 1.383 . S
C566 C567 1.377 . S
C567 H551 0.930 . S
C567 C566 1.377 . S
C567 C568 1.379 . S
C568 H552 0.931 . S
C568 C562 1.383 . S
C568 C567 1.379 . S
H569 C563 0.959 . S
H570 C563 0.961 . S
H571 C563 0.960 . S
H572 C564 0.930 . S
H573 C565 0.929 . S
H574 C582 0.929 . S
H575 C584 0.930 . S
H576 C586 0.930 . S
H577 C589 0.929 . S
H578 C592 0.930 . S
H579 C594 0.960 . S
H580 C594 0.960 . S
H581 C594 0.960 . S
C582 H574 0.929 . S
C582 C583 1.377 . S
C582 C584 1.384 . S
C583 C582 1.377 . S
C583 C589 1.390 . S
C584 H575 0.930 . S
C584 C582 1.384 . S
C584 C585 1.372 . S
C585 C584 1.372 . S
C585 C586 1.400 . S
C585 C590 1.490 . S
C586 H576 0.930 . S
C586 C585 1.400 . S
C586 C589 1.386 . S
H587 C603 0.930 . S
H588 C604 0.931 . S
C589 H577 0.929 . S
C589 C583 1.390 . S
C589 C586 1.386 . S
C590 C585 1.490 . S
C590 C592 1.395 . S
C590 C593 1.403 . S
H591 C597 0.930 . S
C592 H578 0.930 . S
C592 C590 1.395 . S
C592 C595 1.403 . S
C593 C590 1.403 . S
C593 C594 1.524 . S
C593 C597 1.400 . S
C594 H579 0.960 . S
C594 H580 0.960 . S
C594 H581 0.960 . S
C594 C593 1.524 . S
C595 C592 1.403 . S
C595 C596 1.392 . S
C595 C599 1.495 . S
C596 C595 1.392 . S
C596 C597 1.385 . S
C596 C598 1.478 . S
C597 H591 0.930 . S
C597 C593 1.400 . S
C597 C596 1.385 . S
C598 C596 1.478 . S
C598 C600 1.381 . S
C598 C604 1.383 . S
C599 C595 1.495 . S
C599 H605 0.959 . S
C599 H606 0.961 . S
C599 H607 0.960 . S
C600 C598 1.381 . S
C600 C601 1.394 . S
C600 H608 0.930 . S
C601 C600 1.394 . S
C601 C602 1.383 . S
C601 H609 0.929 . S
C602 C601 1.383 . S
C602 C603 1.377 . S
C603 H587 0.930 . S
C603 C602 1.377 . S
C603 C604 1.379 . S
C604 H588 0.931 . S
C604 C598 1.383 . S
C604 C603 1.379 . S
H605 C599 0.959 . S
H606 C599 0.961 . S
H607 C599 0.960 . S
H608 C600 0.930 . S
H609 C601 0.929 . S
H610 C618 0.929 . S
H611 C620 0.930 . S
H612 C622 0.930 . S
H613 C625 0.929 . S
H614 C628 0.930 . S
H615 C630 0.960 . S
H616 C630 0.960 . S
H617 C630 0.960 . S
C618 H610 0.929 . S
C618 C619 1.377 . S
C618 C620 1.384 . S
C619 C618 1.377 . S
C619 C625 1.390 . S
C620 H611 0.930 . S
C620 C618 1.384 . S
C620 C621 1.372 . S
C621 C620 1.372 . S
C621 C622 1.400 . S
C621 C626 1.490 . S
C622 H612 0.930 . S
C622 C621 1.400 . S
C622 C625 1.386 . S
H623 C639 0.930 . S
H624 C640 0.931 . S
C625 H613 0.929 . S
C625 C619 1.390 . S
C625 C622 1.386 . S
C626 C621 1.490 . S
C626 C628 1.395 . S
C626 C629 1.403 . S
H627 C633 0.930 . S
C628 H614 0.930 . S
C628 C626 1.395 . S
C628 C631 1.403 . S
C629 C626 1.403 . S
C629 C630 1.524 . S
C629 C633 1.400 . S
C630 H615 0.960 . S
C630 H616 0.960 . S
C630 H617 0.960 . S
C630 C629 1.524 . S
C631 C628 1.403 . S
C631 C632 1.392 . S
C631 C635 1.495 . S
C632 C631 1.392 . S
C632 C633 1.385 . S
C632 C634 1.478 . S
C633 H627 0.930 . S
C633 C629 1.400 . S
C633 C632 1.385 . S
C634 C632 1.478 . S
C634 C636 1.381 . S
C634 C640 1.383 . S
C635 C631 1.495 . S
C635 H641 0.959 . S
C635 H642 0.961 . S
C635 H643 0.960 . S
C636 C634 1.381 . S
C636 C637 1.394 . S
C636 H644 0.930 . S
C637 C636 1.394 . S
C637 C638 1.383 . S
C637 H645 0.929 . S
C638 C637 1.383 . S
C638 C639 1.377 . S
C639 H623 0.930 . S
C639 C638 1.377 . S
C639 C640 1.379 . S
C640 H624 0.931 . S
C640 C634 1.383 . S
C640 C639 1.379 . S
H641 C635 0.959 . S
H642 C635 0.961 . S
H643 C635 0.960 . S
H644 C636 0.930 . S
H645 C637 0.929 . S
H646 C654 0.929 . S
H647 C656 0.930 . S
H648 C658 0.930 . S
H649 C661 0.929 . S
H650 C664 0.930 . S
H651 C666 0.960 . S
H652 C666 0.960 . S
H653 C666 0.960 . S
C654 H646 0.929 . S
C654 C655 1.377 . S
C654 C656 1.384 . S
C655 C654 1.377 . S
C655 C661 1.390 . S
C656 H647 0.930 . S
C656 C654 1.384 . S
C656 C657 1.372 . S
C657 C656 1.372 . S
C657 C658 1.400 . S
C657 C662 1.490 . S
C658 H648 0.930 . S
C658 C657 1.400 . S
C658 C661 1.386 . S
H659 C675 0.930 . S
H660 C676 0.931 . S
C661 H649 0.929 . S
C661 C655 1.390 . S
C661 C658 1.386 . S
C662 C657 1.490 . S
C662 C664 1.395 . S
C662 C665 1.403 . S
H663 C669 0.930 . S
C664 H650 0.930 . S
C664 C662 1.395 . S
C664 C667 1.403 . S
C665 C662 1.403 . S
C665 C666 1.524 . S
C665 C669 1.400 . S
C666 H651 0.960 . S
C666 H652 0.960 . S
C666 H653 0.960 . S
C666 C665 1.524 . S
C667 C664 1.403 . S
C667 C668 1.392 . S
C667 C671 1.495 . S
C668 C667 1.392 . S
C668 C669 1.385 . S
C668 C670 1.478 . S
C669 H663 0.930 . S
C669 C665 1.400 . S
C669 C668 1.385 . S
C670 C668 1.478 . S
C670 C672 1.381 . S
C670 C676 1.383 . S
C671 C667 1.495 . S
C671 H677 0.959 . S
C671 H678 0.961 . S
C671 H679 0.960 . S
C672 C670 1.381 . S
C672 C673 1.394 . S
C672 H680 0.930 . S
C673 C672 1.394 . S
C673 C674 1.383 . S
C673 H681 0.929 . S
C674 C673 1.383 . S
C674 C675 1.377 . S
C675 H659 0.930 . S
C675 C674 1.377 . S
C675 C676 1.379 . S
C676 H660 0.931 . S
C676 C670 1.383 . S
C676 C675 1.379 . S
H677 C671 0.959 . S
H678 C671 0.961 . S
H679 C671 0.960 . S
H680 C672 0.930 . S
H681 C673 0.929 . S
H682 C690 0.929 . S
H683 C692 0.930 . S
H684 C694 0.930 . S
H685 C697 0.929 . S
H686 C700 0.930 . S
H687 C702 0.960 . S
H688 C702 0.960 . S
H689 C702 0.960 . S
C690 H682 0.929 . S
C690 C691 1.377 . S
C690 C692 1.384 . S
C691 C690 1.377 . S
C691 C697 1.390 . S
C692 H683 0.930 . S
C692 C690 1.384 . S
C692 C693 1.372 . S
C693 C692 1.372 . S
C693 C694 1.400 . S
C693 C698 1.490 . S
C694 H684 0.930 . S
C694 C693 1.400 . S
C694 C697 1.386 . S
H695 C711 0.930 . S
H696 C712 0.931 . S
C697 H685 0.929 . S
C697 C691 1.390 . S
C697 C694 1.386 . S
C698 C693 1.490 . S
C698 C700 1.395 . S
C698 C701 1.403 . S
H699 C705 0.930 . S
C700 H686 0.930 . S
C700 C698 1.395 . S
C700 C703 1.403 . S
C701 C698 1.403 . S
C701 C702 1.524 . S
C701 C705 1.400 . S
C702 H687 0.960 . S
C702 H688 0.960 . S
C702 H689 0.960 . S
C702 C701 1.524 . S
C703 C700 1.403 . S
C703 C704 1.392 . S
C703 C707 1.495 . S
C704 C703 1.392 . S
C704 C705 1.385 . S
C704 C706 1.478 . S
C705 H699 0.930 . S
C705 C701 1.400 . S
C705 C704 1.385 . S
C706 C704 1.478 . S
C706 C708 1.381 . S
C706 C712 1.383 . S
C707 C703 1.495 . S
C707 H713 0.959 . S
C707 H714 0.961 . S
C707 H715 0.960 . S
C708 C706 1.381 . S
C708 C709 1.394 . S
C708 H716 0.930 . S
C709 C708 1.394 . S
C709 C710 1.383 . S
C709 H717 0.929 . S
C710 C709 1.383 . S
C710 C711 1.377 . S
C711 H695 0.930 . S
C711 C710 1.377 . S
C711 C712 1.379 . S
C712 H696 0.931 . S
C712 C706 1.383 . S
C712 C711 1.379 . S
H713 C707 0.959 . S
H714 C707 0.961 . S
H715 C707 0.960 . S
H716 C708 0.930 . S
H717 C709 0.929 . S
H718 C726 0.929 . S
H719 C728 0.930 . S
H720 C730 0.930 . S
H721 C733 0.929 . S
H722 C736 0.930 . S
H723 C738 0.960 . S
H724 C738 0.960 . S
H725 C738 0.960 . S
C726 H718 0.929 . S
C726 C727 1.377 . S
C726 C728 1.384 . S
C727 C726 1.377 . S
C727 C733 1.390 . S
C728 H719 0.930 . S
C728 C726 1.384 . S
C728 C729 1.372 . S
C729 C728 1.372 . S
C729 C730 1.400 . S
C729 C734 1.490 . S
C730 H720 0.930 . S
C730 C729 1.400 . S
C730 C733 1.386 . S
H731 C747 0.930 . S
H732 C748 0.931 . S
C733 H721 0.929 . S
C733 C727 1.390 . S
C733 C730 1.386 . S
C734 C729 1.490 . S
C734 C736 1.395 . S
C734 C737 1.403 . S
H735 C741 0.930 . S
C736 H722 0.930 . S
C736 C734 1.395 . S
C736 C739 1.403 . S
C737 C734 1.403 . S
C737 C738 1.524 . S
C737 C741 1.400 . S
C738 H723 0.960 . S
C738 H724 0.960 . S
C738 H725 0.960 . S
C738 C737 1.524 . S
C739 C736 1.403 . S
C739 C740 1.392 . S
C739 C743 1.495 . S
C740 C739 1.392 . S
C740 C741 1.385 . S
C740 C742 1.478 . S
C741 H735 0.930 . S
C741 C737 1.400 . S
C741 C740 1.385 . S
C742 C740 1.478 . S
C742 C744 1.381 . S
C742 C748 1.383 . S
C743 C739 1.495 . S
C743 H749 0.959 . S
C743 H750 0.961 . S
C743 H751 0.960 . S
C744 C742 1.381 . S
C744 C745 1.394 . S
C744 H752 0.930 . S
C745 C744 1.394 . S
C745 C746 1.383 . S
C745 H753 0.929 . S
C746 C745 1.383 . S
C746 C747 1.377 . S
C747 H731 0.930 . S
C747 C746 1.377 . S
C747 C748 1.379 . S
C748 H732 0.931 . S
C748 C742 1.383 . S
C748 C747 1.379 . S
H749 C743 0.959 . S
H750 C743 0.961 . S
H751 C743 0.960 . S
H752 C744 0.930 . S
H753 C745 0.929 . S
H754 C762 0.929 . S
H755 C764 0.930 . S
H756 C766 0.930 . S
H757 C769 0.929 . S
H758 C772 0.930 . S
H759 C774 0.960 . S
H760 C774 0.960 . S
H761 C774 0.960 . S
C762 H754 0.929 . S
C762 C763 1.377 . S
C762 C764 1.384 . S
C763 C762 1.377 . S
C763 C769 1.390 . S
C764 H755 0.930 . S
C764 C762 1.384 . S
C764 C765 1.372 . S
C765 C764 1.372 . S
C765 C766 1.400 . S
C765 C770 1.490 . S
C766 H756 0.930 . S
C766 C765 1.400 . S
C766 C769 1.386 . S
H767 C783 0.930 . S
H768 C784 0.931 . S
C769 H757 0.929 . S
C769 C763 1.390 . S
C769 C766 1.386 . S
C770 C765 1.490 . S
C770 C772 1.395 . S
C770 C773 1.403 . S
H771 C777 0.930 . S
C772 H758 0.930 . S
C772 C770 1.395 . S
C772 C775 1.403 . S
C773 C770 1.403 . S
C773 C774 1.524 . S
C773 C777 1.400 . S
C774 H759 0.960 . S
C774 H760 0.960 . S
C774 H761 0.960 . S
C774 C773 1.524 . S
C775 C772 1.403 . S
C775 C776 1.392 . S
C775 C779 1.495 . S
C776 C775 1.392 . S
C776 C777 1.385 . S
C776 C778 1.478 . S
C777 H771 0.930 . S
C777 C773 1.400 . S
C777 C776 1.385 . S
C778 C776 1.478 . S
C778 C780 1.381 . S
C778 C784 1.383 . S
C779 C775 1.495 . S
C779 H785 0.959 . S
C779 H786 0.961 . S
C779 H787 0.960 . S
C780 C778 1.381 . S
C780 C781 1.394 . S
C780 H788 0.930 . S
C781 C780 1.394 . S
C781 C782 1.383 . S
C781 H789 0.958 . S
C782 C781 1.383 . S
C782 C783 1.377 . S
C783 H767 0.930 . S
C783 C782 1.377 . S
C783 C784 1.379 . S
C784 H768 0.931 . S
C784 C778 1.383 . S
C784 C783 1.379 . S
H785 C779 0.959 . S
H786 C779 0.961 . S
H787 C779 0.960 . S
H788 C780 0.930 . S
H789 C781 0.958 . S
H790 C798 0.929 . S
H791 C800 0.930 . S
H792 C802 0.930 . S
H793 C805 0.929 . S
H794 C808 0.930 . S
H795 C810 0.960 . S
H796 C810 0.960 . S
H797 C810 0.960 . S
C798 H790 0.929 . S
C798 C799 1.377 . S
C798 C800 1.384 . S
C799 C798 1.377 . S
C799 C805 1.390 . S
C800 H791 0.930 . S
C800 C798 1.384 . S
C800 C801 1.372 . S
C801 C800 1.372 . S
C801 C802 1.400 . S
C801 C806 1.490 . S
C802 H792 0.930 . S
C802 C801 1.400 . S
C802 C805 1.386 . S
H803 C819 0.930 . S
H804 C820 0.931 . S
C805 H793 0.929 . S
C805 C799 1.390 . S
C805 C802 1.386 . S
C806 C801 1.490 . S
C806 C808 1.395 . S
C806 C809 1.403 . S
H807 C813 0.930 . S
C808 H794 0.930 . S
C808 C806 1.395 . S
C808 C811 1.403 . S
C809 C806 1.403 . S
C809 C810 1.524 . S
C809 C813 1.400 . S
C810 H795 0.960 . S
C810 H796 0.960 . S
C810 H797 0.960 . S
C810 C809 1.524 . S
C811 C808 1.403 . S
C811 C812 1.392 . S
C811 C815 1.495 . S
C812 C811 1.392 . S
C812 C813 1.385 . S
C812 C814 1.478 . S
C813 H807 0.930 . S
C813 C809 1.400 . S
C813 C812 1.385 . S
C814 C812 1.478 . S
C814 C816 1.381 . S
C814 C820 1.383 . S
C815 C811 1.495 . S
C815 H821 0.959 . S
C815 H822 0.961 . S
C815 H823 0.960 . S
C816 C814 1.381 . S
C816 C817 1.394 . S
C816 H824 0.930 . S
C817 C816 1.394 . S
C817 C818 1.383 . S
C817 H825 0.929 . S
C818 C817 1.383 . S
C818 C819 1.377 . S
C819 H803 0.930 . S
C819 C818 1.377 . S
C819 C820 1.379 . S
C820 H804 0.931 . S
C820 C814 1.383 . S
C820 C819 1.379 . S
H821 C815 0.959 . S
H822 C815 0.961 . S
H823 C815 0.960 . S
H824 C816 0.930 . S
H825 C817 0.929 . S
H826 C834 0.929 . S
H827 C836 0.930 . S
H828 C838 0.930 . S
H829 C841 0.929 . S
H830 C844 0.930 . S
H831 C846 0.960 . S
H832 C846 0.960 . S
H833 C846 0.960 . S
C834 H826 0.929 . S
C834 C835 1.377 . S
C834 C836 1.384 . S
C835 C834 1.377 . S
C835 C841 1.390 . S
C836 H827 0.930 . S
C836 C834 1.384 . S
C836 C837 1.372 . S
C837 C836 1.372 . S
C837 C838 1.400 . S
C837 C842 1.490 . S
C838 H828 0.930 . S
C838 C837 1.400 . S
C838 C841 1.386 . S
H839 C855 0.930 . S
H840 C856 0.931 . S
C841 H829 0.929 . S
C841 C835 1.390 . S
C841 C838 1.386 . S
C842 C837 1.490 . S
C842 C844 1.395 . S
C842 C845 1.403 . S
H843 C849 0.930 . S
C844 H830 0.930 . S
C844 C842 1.395 . S
C844 C847 1.403 . S
C845 C842 1.403 . S
C845 C846 1.524 . S
C845 C849 1.400 . S
C846 H831 0.960 . S
C846 H832 0.960 . S
C846 H833 0.960 . S
C846 C845 1.524 . S
C847 C844 1.403 . S
C847 C848 1.392 . S
C847 C851 1.495 . S
C848 C847 1.392 . S
C848 C849 1.385 . S
C848 C850 1.478 . S
C849 H843 0.930 . S
C849 C845 1.400 . S
C849 C848 1.385 . S
C850 C848 1.478 . S
C850 C852 1.381 . S
C850 C856 1.383 . S
C851 C847 1.495 . S
C851 H857 0.959 . S
C851 H858 0.961 . S
C851 H859 0.960 . S
C852 C850 1.381 . S
C852 C853 1.394 . S
C852 H860 0.930 . S
C853 C852 1.394 . S
C853 C854 1.383 . S
C853 H861 0.929 . S
C854 C853 1.383 . S
C854 C855 1.377 . S
C855 H839 0.930 . S
C855 C854 1.377 . S
C855 C856 1.379 . S
C856 H840 0.931 . S
C856 C850 1.383 . S
C856 C855 1.379 . S
H857 C851 0.959 . S
H858 C851 0.961 . S
H859 C851 0.960 . S
H860 C852 0.930 . S
H861 C853 0.929 . S
H862 C870 0.929 . S
H863 C872 0.930 . S
H864 C874 0.930 . S
H865 C877 0.929 . S
H866 C880 0.930 . S
H867 C882 0.960 . S
H868 C882 0.960 . S
H869 C882 0.960 . S
C870 H862 0.929 . S
C870 C871 1.377 . S
C870 C872 1.384 . S
C871 C870 1.377 . S
C871 C877 1.390 . S
C872 H863 0.930 . S
C872 C870 1.384 . S
C872 C873 1.372 . S
C873 C872 1.372 . S
C873 C874 1.400 . S
C873 C878 1.490 . S
C874 H864 0.930 . S
C874 C873 1.400 . S
C874 C877 1.386 . S
H875 C891 0.930 . S
H876 C892 0.931 . S
C877 H865 0.929 . S
C877 C871 1.390 . S
C877 C874 1.386 . S
C878 C873 1.490 . S
C878 C880 1.395 . S
C878 C881 1.403 . S
H879 C885 0.930 . S
C880 H866 0.930 . S
C880 C878 1.395 . S
C880 C883 1.403 . S
C881 C878 1.403 . S
C881 C882 1.524 . S
C881 C885 1.400 . S
C882 H867 0.960 . S
C882 H868 0.960 . S
C882 H869 0.960 . S
C882 C881 1.524 . S
C883 C880 1.403 . S
C883 C884 1.392 . S
C883 C887 1.495 . S
C884 C883 1.392 . S
C884 C885 1.385 . S
C884 C886 1.478 . S
C885 H879 0.930 . S
C885 C881 1.400 . S
C885 C884 1.385 . S
C886 C884 1.478 . S
C886 C888 1.381 . S
C886 C892 1.383 . S
C887 C883 1.495 . S
C887 H893 0.959 . S
C887 H894 0.961 . S
C887 H895 0.960 . S
C888 C886 1.381 . S
C888 C889 1.394 . S
C888 H896 0.930 . S
C889 C888 1.394 . S
C889 C890 1.383 . S
C889 H897 0.929 . S
C890 C889 1.383 . S
C890 C891 1.377 . S
C891 H875 0.930 . S
C891 C890 1.377 . S
C891 C892 1.379 . S
C892 H876 0.931 . S
C892 C886 1.383 . S
C892 C891 1.379 . S
H893 C887 0.959 . S
H894 C887 0.961 . S
H895 C887 0.960 . S
H896 C888 0.930 . S
H897 C889 0.929 . S
H898 C906 0.929 . S
H899 C908 0.930 . S
H900 C910 0.930 . S
H901 C913 0.929 . S
H902 C916 0.930 . S
H903 C918 0.960 . S
H904 C918 0.960 . S
H905 C918 0.960 . S
C906 H898 0.929 . S
C906 C907 1.377 . S
C906 C908 1.384 . S
C907 C906 1.377 . S
C907 C913 1.390 . S
C908 H899 0.930 . S
C908 C906 1.384 . S
C908 C909 1.372 . S
C909 C908 1.372 . S
C909 C910 1.400 . S
C909 C914 1.490 . S
C910 H900 0.930 . S
C910 C909 1.400 . S
C910 C913 1.386 . S
H911 C927 0.930 . S
H912 C928 0.931 . S
C913 H901 0.929 . S
C913 C907 1.390 . S
C913 C910 1.386 . S
C914 C909 1.490 . S
C914 C916 1.395 . S
C914 C917 1.403 . S
H915 C921 0.930 . S
C916 H902 0.930 . S
C916 C914 1.395 . S
C916 C919 1.403 . S
C917 C914 1.403 . S
C917 C918 1.524 . S
C917 C921 1.400 . S
C918 H903 0.960 . S
C918 H904 0.960 . S
C918 H905 0.960 . S
C918 C917 1.524 . S
C919 C916 1.403 . S
C919 C920 1.392 . S
C919 C923 1.495 . S
C920 C919 1.392 . S
C920 C921 1.385 . S
C920 C922 1.478 . S
C921 H915 0.930 . S
C921 C917 1.400 . S
C921 C920 1.385 . S
C922 C920 1.478 . S
C922 C924 1.381 . S
C922 C928 1.383 . S
C923 C919 1.495 . S
C923 H929 0.959 . S
C923 H930 0.961 . S
C923 H931 0.960 . S
C924 C922 1.381 . S
C924 C925 1.394 . S
C924 H932 0.930 . S
C925 C924 1.394 . S
C925 C926 1.383 . S
C925 H933 0.929 . S
C926 C925 1.383 . S
C926 C927 1.377 . S
C927 H911 0.930 . S
C927 C926 1.377 . S
C927 C928 1.379 . S
C928 H912 0.931 . S
C928 C922 1.383 . S
C928 C927 1.379 . S
H929 C923 0.959 . S
H930 C923 0.961 . S
H931 C923 0.960 . S
H932 C924 0.930 . S
H933 C925 0.929 . S
H934 C942 0.929 . S
H935 C944 0.930 . S
H936 C946 0.930 . S
H937 C949 0.929 . S
H938 C952 0.930 . S
H939 C954 0.960 . S
H940 C954 0.960 . S
H941 C954 0.960 . S
C942 H934 0.929 . S
C942 C943 1.377 . S
C942 C944 1.384 . S
C943 C942 1.377 . S
C943 C949 1.390 . S
C944 H935 0.930 . S
C944 C942 1.384 . S
C944 C945 1.372 . S
C945 C944 1.372 . S
C945 C946 1.400 . S
C945 C950 1.490 . S
C946 H936 0.930 . S
C946 C945 1.400 . S
C946 C949 1.386 . S
H947 C963 0.930 . S
H948 C964 0.931 . S
C949 H937 0.929 . S
C949 C943 1.390 . S
C949 C946 1.386 . S
C950 C945 1.490 . S
C950 C952 1.395 . S
C950 C953 1.403 . S
H951 C957 0.930 . S
C952 H938 0.930 . S
C952 C950 1.395 . S
C952 C955 1.403 . S
C953 C950 1.403 . S
C953 C954 1.524 . S
C953 C957 1.400 . S
C954 H939 0.960 . S
C954 H940 0.960 . S
C954 H941 0.960 . S
C954 C953 1.524 . S
C955 C952 1.403 . S
C955 C956 1.392 . S
C955 C959 1.495 . S
C956 C955 1.392 . S
C956 C957 1.385 . S
C956 C958 1.478 . S
C957 H951 0.930 . S
C957 C953 1.400 . S
C957 C956 1.385 . S
C958 C956 1.478 . S
C958 C960 1.381 . S
C958 C964 1.383 . S
C959 C955 1.495 . S
C959 H965 0.959 . S
C959 H966 0.961 . S
C959 H967 0.960 . S
C960 C958 1.381 . S
C960 C961 1.394 . S
C960 H968 0.930 . S
C961 C960 1.394 . S
C961 C962 1.383 . S
C961 H969 0.929 . S
C962 C961 1.383 . S
C962 C963 1.377 . S
C963 H947 0.930 . S
C963 C962 1.377 . S
C963 C964 1.379 . S
C964 H948 0.931 . S
C964 C958 1.383 . S
C964 C963 1.379 . S
H965 C959 0.959 . S
H966 C959 0.961 . S
H967 C959 0.960 . S
H968 C960 0.930 . S
H969 C961 0.929 . S
H970 C978 0.929 . S
H971 C980 0.930 . S
H972 C982 0.930 . S
H973 C985 0.929 . S
H974 C988 0.930 . S
H975 C990 0.960 . S
H976 C990 0.960 . S
H977 C990 0.960 . S
C978 H970 0.929 . S
C978 C979 1.377 . S
C978 C980 1.384 . S
C979 C978 1.377 . S
C979 C985 1.390 . S
C980 H971 0.930 . S
C980 C978 1.384 . S
C980 C981 1.372 . S
C981 C980 1.372 . S
C981 C982 1.400 . S
C981 C986 1.490 . S
C982 H972 0.930 . S
C982 C981 1.400 . S
C982 C985 1.386 . S
H983 C999 0.930 . S
H984 C1000 0.931 . S
C985 H973 0.929 . S
C985 C979 1.390 . S
C985 C982 1.386 . S
C986 C981 1.490 . S
C986 C988 1.395 . S
C986 C989 1.403 . S
H987 C993 0.930 . S
C988 H974 0.930 . S
C988 C986 1.395 . S
C988 C991 1.403 . S
C989 C986 1.403 . S
C989 C990 1.524 . S
C989 C993 1.400 . S
C990 H975 0.960 . S
C990 H976 0.960 . S
C990 H977 0.960 . S
C990 C989 1.524 . S
C991 C988 1.403 . S
C991 C992 1.392 . S
C991 C995 1.495 . S
C992 C991 1.392 . S
C992 C993 1.385 . S
C992 C994 1.478 . S
C993 H987 0.930 . S
C993 C989 1.400 . S
C993 C992 1.385 . S
C994 C992 1.478 . S
C994 C996 1.381 . S
C994 C1000 1.383 . S
C995 C991 1.495 . S
C995 H1001 0.959 . S
C995 H1002 0.961 . S
C995 H1003 0.960 . S
C996 C994 1.381 . S
C996 C997 1.394 . S
C996 H1004 0.930 . S
C997 C996 1.394 . S
C997 C998 1.383 . S
C997 H1005 0.929 . S
C998 C997 1.383 . S
C998 C999 1.377 . S
C999 H983 0.930 . S
C999 C998 1.377 . S
C999 C1000 1.379 . S
C1000 H984 0.931 . S
C1000 C994 1.383 . S
C1000 C999 1.379 . S
H1001 C995 0.959 . S
H1002 C995 0.961 . S
H1003 C995 0.960 . S
H1004 C996 0.930 . S
H1005 C997 0.929 . S
H1006 C1014 0.929 . S
H1007 C1016 0.930 . S
H1008 C1018 0.930 . S
H1009 C1021 0.929 . S
H1010 C1024 0.930 . S
H1011 C1026 0.960 . S
H1012 C1026 0.960 . S
H1013 C1026 0.960 . S
C1014 H1006 0.929 . S
C1014 C1015 1.377 . S
C1014 C1016 1.384 . S
C1015 C1014 1.377 . S
C1015 C1021 1.390 . S
C1016 H1007 0.930 . S
C1016 C1014 1.384 . S
C1016 C1017 1.372 . S
C1017 C1016 1.372 . S
C1017 C1018 1.400 . S
C1017 C1022 1.490 . S
C1018 H1008 0.930 . S
C1018 C1017 1.400 . S
C1018 C1021 1.386 . S
H1019 C1035 0.930 . S
H1020 C1036 0.931 . S
C1021 H1009 0.929 . S
C1021 C1015 1.390 . S
C1021 C1018 1.386 . S
C1022 C1017 1.490 . S
C1022 C1024 1.395 . S
C1022 C1025 1.403 . S
H1023 C1029 0.930 . S
C1024 H1010 0.930 . S
C1024 C1022 1.395 . S
C1024 C1027 1.403 . S
C1025 C1022 1.403 . S
C1025 C1026 1.524 . S
C1025 C1029 1.400 . S
C1026 H1011 0.960 . S
C1026 H1012 0.960 . S
C1026 H1013 0.960 . S
C1026 C1025 1.524 . S
C1027 C1024 1.403 . S
C1027 C1028 1.392 . S
C1027 C1031 1.495 . S
C1028 C1027 1.392 . S
C1028 C1029 1.385 . S
C1028 C1030 1.478 . S
C1029 H1023 0.930 . S
C1029 C1025 1.400 . S
C1029 C1028 1.385 . S
C1030 C1028 1.478 . S
C1030 C1032 1.381 . S
C1030 C1036 1.383 . S
C1031 C1027 1.495 . S
C1031 H1037 0.959 . S
C1031 H1038 0.961 . S
C1031 H1039 0.960 . S
C1032 C1030 1.381 . S
C1032 C1033 1.394 . S
C1032 H1040 0.930 . S
C1033 C1032 1.394 . S
C1033 C1034 1.383 . S
C1033 H1041 0.929 . S
C1034 C1033 1.383 . S
C1034 C1035 1.377 . S
C1035 H1019 0.930 . S
C1035 C1034 1.377 . S
C1035 C1036 1.379 . S
C1036 H1020 0.931 . S
C1036 C1030 1.383 . S
C1036 C1035 1.379 . S
H1037 C1031 0.959 . S
H1038 C1031 0.961 . S
H1039 C1031 0.960 . S
H1040 C1032 0.930 . S
H1041 C1033 0.929 . S
H1042 C1050 0.929 . S
H1043 C1052 0.930 . S
H1044 C1054 0.930 . S
H1045 C1057 0.929 . S
H1046 C1060 0.930 . S
H1047 C1062 0.960 . S
H1048 C1062 0.960 . S
H1049 C1062 0.960 . S
C1050 H1042 0.929 . S
C1050 C1051 1.377 . S
C1050 C1052 1.384 . S
C1051 C1050 1.377 . S
C1051 C1057 1.390 . S
C1052 H1043 0.930 . S
C1052 C1050 1.384 . S
C1052 C1053 1.372 . S
C1053 C1052 1.372 . S
C1053 C1054 1.400 . S
C1053 C1058 1.490 . S
C1054 H1044 0.930 . S
C1054 C1053 1.400 . S
C1054 C1057 1.386 . S
H1055 C1071 0.930 . S
H1056 C1072 0.931 . S
C1057 H1045 0.929 . S
C1057 C1051 1.390 . S
C1057 C1054 1.386 . S
C1058 C1053 1.490 . S
C1058 C1060 1.395 . S
C1058 C1061 1.403 . S
H1059 C1065 0.930 . S
C1060 H1046 0.930 . S
C1060 C1058 1.395 . S
C1060 C1063 1.403 . S
C1061 C1058 1.403 . S
C1061 C1062 1.524 . S
C1061 C1065 1.400 . S
C1062 H1047 0.960 . S
C1062 H1048 0.960 . S
C1062 H1049 0.960 . S
C1062 C1061 1.524 . S
C1063 C1060 1.403 . S
C1063 C1064 1.392 . S
C1063 C1067 1.495 . S
C1064 C1063 1.392 . S
C1064 C1065 1.385 . S
C1064 C1066 1.478 . S
C1065 H1059 0.930 . S
C1065 C1061 1.400 . S
C1065 C1064 1.385 . S
C1066 C1064 1.478 . S
C1066 C1068 1.381 . S
C1066 C1072 1.383 . S
C1067 C1063 1.495 . S
C1067 H1073 0.959 . S
C1067 H1074 0.961 . S
C1067 H1075 0.960 . S
C1068 C1066 1.381 . S
C1068 C1069 1.394 . S
C1068 H1076 0.930 . S
C1069 C1068 1.394 . S
C1069 C1070 1.383 . S
C1069 H1077 0.929 . S
C1070 C1069 1.383 . S
C1070 C1071 1.377 . S
C1071 H1055 0.930 . S
C1071 C1070 1.377 . S
C1071 C1072 1.379 . S
C1072 H1056 0.931 . S
C1072 C1066 1.383 . S
C1072 C1071 1.379 . S
H1073 C1067 0.959 . S
H1074 C1067 0.961 . S
H1075 C1067 0.960 . S
H1076 C1068 0.930 . S
H1077 C1069 0.929 . S
H1078 C1086 0.929 . S
H1079 C1088 0.930 . S
H1080 C1090 0.930 . S
H1081 C1093 0.929 . S
H1082 C1096 0.930 . S
H1083 C1098 0.960 . S
H1084 C1098 0.960 . S
H1085 C1098 0.960 . S
C1086 H1078 0.929 . S
C1086 C1087 1.377 . S
C1086 C1088 1.384 . S
C1087 C1086 1.377 . S
C1087 C1093 1.390 . S
C1088 H1079 0.930 . S
C1088 C1086 1.384 . S
C1088 C1089 1.372 . S
C1089 C1088 1.372 . S
C1089 C1090 1.400 . S
C1089 C1094 1.490 . S
C1090 H1080 0.930 . S
C1090 C1089 1.400 . S
C1090 C1093 1.386 . S
H1091 C1107 0.930 . S
H1092 C1108 0.931 . S
C1093 H1081 0.929 . S
C1093 C1087 1.390 . S
C1093 C1090 1.386 . S
C1094 C1089 1.490 . S
C1094 C1096 1.395 . S
C1094 C1097 1.403 . S
H1095 C1101 0.930 . S
C1096 H1082 0.930 . S
C1096 C1094 1.395 . S
C1096 C1099 1.403 . S
C1097 C1094 1.403 . S
C1097 C1098 1.524 . S
C1097 C1101 1.400 . S
C1098 H1083 0.960 . S
C1098 H1084 0.960 . S
C1098 H1085 0.960 . S
C1098 C1097 1.524 . S
C1099 C1096 1.403 . S
C1099 C1100 1.392 . S
C1099 C1103 1.495 . S
C1100 C1099 1.392 . S
C1100 C1101 1.385 . S
C1100 C1102 1.478 . S
C1101 H1095 0.930 . S
C1101 C1097 1.400 . S
C1101 C1100 1.385 . S
C1102 C1100 1.478 . S
C1102 C1104 1.381 . S
C1102 C1108 1.383 . S
C1103 C1099 1.495 . S
C1103 H1109 0.959 . S
C1103 H1110 0.961 . S
C1103 H1111 0.960 . S
C1104 C1102 1.381 . S
C1104 C1105 1.394 . S
C1104 H1112 0.930 . S
C1105 C1104 1.394 . S
C1105 C1106 1.383 . S
C1105 H1113 0.929 . S
C1106 C1105 1.383 . S
C1106 C1107 1.377 . S
C1107 H1091 0.930 . S
C1107 C1106 1.377 . S
C1107 C1108 1.379 . S
C1108 H1092 0.931 . S
C1108 C1102 1.383 . S
C1108 C1107 1.379 . S
H1109 C1103 0.959 . S
H1110 C1103 0.961 . S
H1111 C1103 0.960 . S
H1112 C1104 0.930 . S
H1113 C1105 0.929 . S
H1114 C1122 0.929 . S
H1115 C1124 0.930 . S
H1116 C1126 0.930 . S
H1117 C1129 0.929 . S
H1118 C1132 0.930 . S
H1119 C1134 0.960 . S
H1120 C1134 0.960 . S
H1121 C1134 0.960 . S
C1122 H1114 0.929 . S
C1122 C1123 1.377 . S
C1122 C1124 1.384 . S
C1123 C1122 1.377 . S
C1123 C1129 1.390 . S
C1124 H1115 0.930 . S
C1124 C1122 1.384 . S
C1124 C1125 1.372 . S
C1125 C1124 1.372 . S
C1125 C1126 1.400 . S
C1125 C1130 1.490 . S
C1126 H1116 0.930 . S
C1126 C1125 1.400 . S
C1126 C1129 1.386 . S
H1127 C1143 0.930 . S
H1128 C1144 0.931 . S
C1129 H1117 0.929 . S
C1129 C1123 1.390 . S
C1129 C1126 1.386 . S
C1130 C1125 1.490 . S
C1130 C1132 1.395 . S
C1130 C1133 1.403 . S
H1131 C1137 0.930 . S
C1132 H1118 0.930 . S
C1132 C1130 1.395 . S
C1132 C1135 1.403 . S
C1133 C1130 1.403 . S
C1133 C1134 1.524 . S
C1133 C1137 1.400 . S
C1134 H1119 0.960 . S
C1134 H1120 0.960 . S
C1134 H1121 0.960 . S
C1134 C1133 1.524 . S
C1135 C1132 1.403 . S
C1135 C1136 1.392 . S
C1135 C1139 1.495 . S
C1136 C1135 1.392 . S
C1136 C1137 1.385 . S
C1136 C1138 1.478 . S
C1137 H1131 0.930 . S
C1137 C1133 1.400 . S
C1137 C1136 1.385 . S
C1138 C1136 1.478 . S
C1138 C1140 1.381 . S
C1138 C1144 1.383 . S
C1139 C1135 1.495 . S
C1139 H1145 0.959 . S
C1139 H1146 0.961 . S
C1139 H1147 0.960 . S
C1140 C1138 1.381 . S
C1140 C1141 1.394 . S
C1140 H1148 0.930 . S
C1141 C1140 1.394 . S
C1141 C1142 1.383 . S
C1141 H1149 0.929 . S
C1142 C1141 1.383 . S
C1142 C1143 1.377 . S
C1143 H1127 0.930 . S
C1143 C1142 1.377 . S
C1143 C1144 1.379 . S
C1144 H1128 0.931 . S
C1144 C1138 1.383 . S
C1144 C1143 1.379 . S
H1145 C1139 0.959 . S
H1146 C1139 0.961 . S
H1147 C1139 0.960 . S
H1148 C1140 0.930 . S
H1149 C1141 0.929 . S
H1150 C1158 0.929 . S
H1151 C1160 0.930 . S
H1152 C1162 0.930 . S
H1153 C1165 0.929 . S
H1154 C1168 0.930 . S
H1155 C1170 0.960 . S
H1156 C1170 0.960 . S
H1157 C1170 0.960 . S
C1158 H1150 0.929 . S
C1158 C1159 1.377 . S
C1158 C1160 1.384 . S
C1159 C1158 1.377 . S
C1159 C1165 1.390 . S
C1160 H1151 0.930 . S
C1160 C1158 1.384 . S
C1160 C1161 1.372 . S
C1161 C1160 1.372 . S
C1161 C1162 1.400 . S
C1161 C1166 1.490 . S
C1162 H1152 0.930 . S
C1162 C1161 1.400 . S
C1162 C1165 1.386 . S
H1163 C1179 0.930 . S
H1164 C1180 0.931 . S
C1165 H1153 0.929 . S
C1165 C1159 1.390 . S
C1165 C1162 1.386 . S
C1166 C1161 1.490 . S
C1166 C1168 1.395 . S
C1166 C1169 1.403 . S
H1167 C1173 0.930 . S
C1168 H1154 0.930 . S
C1168 C1166 1.395 . S
C1168 C1171 1.403 . S
C1169 C1166 1.403 . S
C1169 C1170 1.524 . S
C1169 C1173 1.400 . S
C1170 H1155 0.960 . S
C1170 H1156 0.960 . S
C1170 H1157 0.960 . S
C1170 C1169 1.524 . S
C1171 C1168 1.403 . S
C1171 C1172 1.392 . S
C1171 C1175 1.495 . S
C1172 C1171 1.392 . S
C1172 C1173 1.385 . S
C1172 C1174 1.478 . S
C1173 H1167 0.930 . S
C1173 C1169 1.400 . S
C1173 C1172 1.385 . S
C1174 C1172 1.478 . S
C1174 C1176 1.381 . S
C1174 C1180 1.383 . S
C1175 C1171 1.495 . S
C1175 H1181 0.959 . S
C1175 H1182 0.961 . S
C1175 H1183 0.960 . S
C1176 C1174 1.381 . S
C1176 C1177 1.394 . S
C1176 H1184 0.930 . S
C1177 C1176 1.394 . S
C1177 C1178 1.383 . S
C1177 H1185 0.929 . S
C1178 C1177 1.383 . S
C1178 C1179 1.377 . S
C1179 H1163 0.930 . S
C1179 C1178 1.377 . S
C1179 C1180 1.379 . S
C1180 H1164 0.931 . S
C1180 C1174 1.383 . S
C1180 C1179 1.379 . S
H1181 C1175 0.959 . S
H1182 C1175 0.961 . S
H1183 C1175 0.960 . S
H1184 C1176 0.930 . S
H1185 C1177 0.929 . S
H1186 C1194 0.929 . S
H1187 C1196 0.930 . S
H1188 C1198 0.930 . S
H1189 C1201 0.929 . S
H1190 C1204 0.930 . S
H1191 C1206 0.960 . S
H1192 C1206 0.960 . S
H1193 C1206 0.960 . S
C1194 H1186 0.929 . S
C1194 C1195 1.377 . S
C1194 C1196 1.384 . S
C1195 C1194 1.377 . S
C1195 C1201 1.390 . S
C1196 H1187 0.930 . S
C1196 C1194 1.384 . S
C1196 C1197 1.372 . S
C1197 C1196 1.372 . S
C1197 C1198 1.400 . S
C1197 C1202 1.490 . S
C1198 H1188 0.930 . S
C1198 C1197 1.400 . S
C1198 C1201 1.386 . S
H1199 C1215 0.930 . S
H1200 C1216 0.931 . S
C1201 H1189 0.929 . S
C1201 C1195 1.390 . S
C1201 C1198 1.386 . S
C1202 C1197 1.490 . S
C1202 C1204 1.395 . S
C1202 C1205 1.403 . S
H1203 C1209 0.930 . S
C1204 H1190 0.930 . S
C1204 C1202 1.395 . S
C1204 C1207 1.403 . S
C1205 C1202 1.403 . S
C1205 C1206 1.524 . S
C1205 C1209 1.400 . S
C1206 H1191 0.960 . S
C1206 H1192 0.960 . S
C1206 H1193 0.960 . S
C1206 C1205 1.524 . S
C1207 C1204 1.403 . S
C1207 C1208 1.392 . S
C1207 C1211 1.495 . S
C1208 C1207 1.392 . S
C1208 C1209 1.385 . S
C1208 C1210 1.478 . S
C1209 H1203 0.930 . S
C1209 C1205 1.400 . S
C1209 C1208 1.385 . S
C1210 C1208 1.478 . S
C1210 C1212 1.381 . S
C1210 C1216 1.383 . S
C1211 C1207 1.495 . S
C1211 H1217 0.959 . S
C1211 H1218 0.961 . S
C1211 H1219 0.960 . S
C1212 C1210 1.381 . S
C1212 C1213 1.394 . S
C1212 H1220 0.930 . S
C1213 C1212 1.394 . S
C1213 C1214 1.383 . S
C1213 H1221 0.929 . S
C1214 C1213 1.383 . S
C1214 C1215 1.377 . S
C1215 H1199 0.930 . S
C1215 C1214 1.377 . S
C1215 C1216 1.379 . S
C1216 H1200 0.931 . S
C1216 C1210 1.383 . S
C1216 C1215 1.379 . S
H1217 C1211 0.959 . S
H1218 C1211 0.961 . S
H1219 C1211 0.960 . S
H1220 C1212 0.930 . S
H1221 C1213 0.929 . S
H1222 C1230 0.929 . S
H1223 C1232 0.930 . S
H1224 C1234 0.930 . S
H1225 C1237 0.929 . S
H1226 C1240 0.930 . S
H1227 C1242 0.960 . S
H1228 C1242 0.960 . S
H1229 C1242 0.960 . S
C1230 H1222 0.929 . S
C1230 C1231 1.377 . S
C1230 C1232 1.384 . S
C1231 C1230 1.377 . S
C1231 C1237 1.390 . S
C1232 H1223 0.930 . S
C1232 C1230 1.384 . S
C1232 C1233 1.372 . S
C1233 C1232 1.372 . S
C1233 C1234 1.400 . S
C1233 C1238 1.490 . S
C1234 H1224 0.930 . S
C1234 C1233 1.400 . S
C1234 C1237 1.386 . S
H1235 C1251 0.930 . S
H1236 C1252 0.931 . S
C1237 H1225 0.929 . S
C1237 C1231 1.390 . S
C1237 C1234 1.386 . S
C1238 C1233 1.490 . S
C1238 C1240 1.395 . S
C1238 C1241 1.403 . S
H1239 C1245 0.930 . S
C1240 H1226 0.930 . S
C1240 C1238 1.395 . S
C1240 C1243 1.403 . S
C1241 C1238 1.403 . S
C1241 C1242 1.524 . S
C1241 C1245 1.400 . S
C1242 H1227 0.960 . S
C1242 H1228 0.960 . S
C1242 H1229 0.960 . S
C1242 C1241 1.524 . S
C1243 C1240 1.403 . S
C1243 C1244 1.392 . S
C1243 C1247 1.495 . S
C1244 C1243 1.392 . S
C1244 C1245 1.385 . S
C1244 C1246 1.478 . S
C1245 H1239 0.930 . S
C1245 C1241 1.400 . S
C1245 C1244 1.385 . S
C1246 C1244 1.478 . S
C1246 C1248 1.381 . S
C1246 C1252 1.383 . S
C1247 C1243 1.495 . S
C1247 H1253 0.959 . S
C1247 H1254 0.961 . S
C1247 H1255 0.960 . S
C1248 C1246 1.381 . S
C1248 C1249 1.394 . S
C1248 H1256 0.930 . S
C1249 C1248 1.394 . S
C1249 C1250 1.383 . S
C1249 H1257 0.929 . S
C1250 C1249 1.383 . S
C1250 C1251 1.377 . S
C1251 H1235 0.930 . S
C1251 C1250 1.377 . S
C1251 C1252 1.379 . S
C1252 H1236 0.931 . S
C1252 C1246 1.383 . S
C1252 C1251 1.379 . S
H1253 C1247 0.959 . S
H1254 C1247 0.961 . S
H1255 C1247 0.960 . S
H1256 C1248 0.930 . S
H1257 C1249 0.929 . S
H1258 C1266 0.929 . S
H1259 C1268 0.930 . S
H1260 C1270 0.930 . S
H1261 C1273 0.929 . S
H1262 C1276 0.930 . S
H1263 C1278 0.960 . S
H1264 C1278 0.960 . S
H1265 C1278 0.960 . S
C1266 H1258 0.929 . S
C1266 C1267 1.377 . S
C1266 C1268 1.384 . S
C1267 C1266 1.377 . S
C1267 C1273 1.390 . S
C1268 H1259 0.930 . S
C1268 C1266 1.384 . S
C1268 C1269 1.372 . S
C1269 C1268 1.372 . S
C1269 C1270 1.400 . S
C1269 C1274 1.490 . S
C1270 H1260 0.930 . S
C1270 C1269 1.400 . S
C1270 C1273 1.386 . S
H1271 C1287 0.930 . S
H1272 C1288 0.931 . S
C1273 H1261 0.929 . S
C1273 C1267 1.390 . S
C1273 C1270 1.386 . S
C1274 C1269 1.490 . S
C1274 C1276 1.395 . S
C1274 C1277 1.403 . S
H1275 C1281 0.930 . S
C1276 H1262 0.930 . S
C1276 C1274 1.395 . S
C1276 C1279 1.403 . S
C1277 C1274 1.403 . S
C1277 C1278 1.524 . S
C1277 C1281 1.400 . S
C1278 H1263 0.960 . S
C1278 H1264 0.960 . S
C1278 H1265 0.960 . S
C1278 C1277 1.524 . S
C1279 C1276 1.403 . S
C1279 C1280 1.392 . S
C1279 C1283 1.495 . S
C1280 C1279 1.392 . S
C1280 C1281 1.385 . S
C1280 C1282 1.478 . S
C1281 H1275 0.930 . S
C1281 C1277 1.400 . S
C1281 C1280 1.385 . S
C1282 C1280 1.478 . S
C1282 C1284 1.381 . S
C1282 C1288 1.383 . S
C1283 C1279 1.495 . S
C1283 H1289 0.959 . S
C1283 H1290 0.961 . S
C1283 H1291 0.960 . S
C1284 C1282 1.381 . S
C1284 C1285 1.394 . S
C1284 H1292 0.930 . S
C1285 C1284 1.394 . S
C1285 C1286 1.383 . S
C1285 H1293 0.929 . S
C1286 C1285 1.383 . S
C1286 C1287 1.377 . S
C1287 H1271 0.930 . S
C1287 C1286 1.377 . S
C1287 C1288 1.379 . S
C1288 H1272 0.931 . S
C1288 C1282 1.383 . S
C1288 C1287 1.379 . S
H1289 C1283 0.959 . S
H1290 C1283 0.961 . S
H1291 C1283 0.960 . S
H1292 C1284 0.930 . S
H1293 C1285 0.929 . S
H1294 C1302 0.929 . S
H1295 C1304 0.930 . S
H1296 C1306 0.930 . S
H1297 C1309 0.929 . S
H1298 C1312 0.930 . S
H1299 C1314 0.960 . S
H1300 C1314 0.960 . S
H1301 C1314 0.960 . S
C1302 H1294 0.929 . S
C1302 C1303 1.377 . S
C1302 C1304 1.384 . S
C1303 C1302 1.377 . S
C1303 C1309 1.390 . S
C1304 H1295 0.930 . S
C1304 C1302 1.384 . S
C1304 C1305 1.372 . S
C1305 C1304 1.372 . S
C1305 C1306 1.400 . S
C1305 C1310 1.490 . S
C1306 H1296 0.930 . S
C1306 C1305 1.400 . S
C1306 C1309 1.386 . S
H1307 C1323 0.930 . S
H1308 C1324 0.931 . S
C1309 H1297 0.929 . S
C1309 C1303 1.390 . S
C1309 C1306 1.386 . S
C1310 C1305 1.490 . S
C1310 C1312 1.395 . S
C1310 C1313 1.403 . S
H1311 C1317 0.930 . S
C1312 H1298 0.930 . S
C1312 C1310 1.395 . S
C1312 C1315 1.403 . S
C1313 C1310 1.403 . S
C1313 C1314 1.524 . S
C1313 C1317 1.400 . S
C1314 H1299 0.960 . S
C1314 H1300 0.960 . S
C1314 H1301 0.960 . S
C1314 C1313 1.524 . S
C1315 C1312 1.403 . S
C1315 C1316 1.392 . S
C1315 C1319 1.495 . S
C1316 C1315 1.392 . S
C1316 C1317 1.385 . S
C1316 C1318 1.478 . S
C1317 H1311 0.930 . S
C1317 C1313 1.400 . S
C1317 C1316 1.385 . S
C1318 C1316 1.478 . S
C1318 C1320 1.381 . S
C1318 C1324 1.383 . S
C1319 C1315 1.495 . S
C1319 H1325 0.959 . S
C1319 H1326 0.961 . S
C1319 H1327 0.960 . S
C1320 C1318 1.381 . S
C1320 C1321 1.394 . S
C1320 H1328 0.930 . S
C1321 C1320 1.394 . S
C1321 C1322 1.383 . S
C1321 H1329 0.929 . S
C1322 C1321 1.383 . S
C1322 C1323 1.377 . S
C1323 H1307 0.930 . S
C1323 C1322 1.377 . S
C1323 C1324 1.379 . S
C1324 H1308 0.931 . S
C1324 C1318 1.383 . S
C1324 C1323 1.379 . S
H1325 C1319 0.959 . S
H1326 C1319 0.961 . S
H1327 C1319 0.960 . S
H1328 C1320 0.930 . S
H1329 C1321 0.929 . S
H1330 C1338 0.929 . S
H1331 C1340 0.930 . S
H1332 C1342 0.930 . S
H1333 C1345 0.929 . S
H1334 C1348 0.930 . S
H1335 C1350 0.960 . S
H1336 C1350 0.960 . S
H1337 C1350 0.960 . S
C1338 H1330 0.929 . S
C1338 C1339 1.377 . S
C1338 C1340 1.384 . S
C1339 C1338 1.377 . S
C1339 C1345 1.390 . S
C1340 H1331 0.930 . S
C1340 C1338 1.384 . S
C1340 C1341 1.372 . S
C1341 C1340 1.372 . S
C1341 C1342 1.400 . S
C1341 C1346 1.490 . S
C1342 H1332 0.930 . S
C1342 C1341 1.400 . S
C1342 C1345 1.386 . S
H1343 C1359 0.930 . S
H1344 C1360 0.931 . S
C1345 H1333 0.929 . S
C1345 C1339 1.390 . S
C1345 C1342 1.386 . S
C1346 C1341 1.490 . S
C1346 C1348 1.395 . S
C1346 C1349 1.403 . S
H1347 C1353 0.930 . S
C1348 H1334 0.930 . S
C1348 C1346 1.395 . S
C1348 C1351 1.403 . S
C1349 C1346 1.403 . S
C1349 C1350 1.524 . S
C1349 C1353 1.400 . S
C1350 H1335 0.960 . S
C1350 H1336 0.960 . S
C1350 H1337 0.960 . S
C1350 C1349 1.524 . S
C1351 C1348 1.403 . S
C1351 C1352 1.392 . S
C1351 C1355 1.495 . S
C1352 C1351 1.392 . S
C1352 C1353 1.385 . S
C1352 C1354 1.478 . S
C1353 H1347 0.930 . S
C1353 C1349 1.400 . S
C1353 C1352 1.385 . S
C1354 C1352 1.478 . S
C1354 C1356 1.381 . S
C1354 C1360 1.383 . S
C1355 C1351 1.495 . S
C1355 H1361 0.959 . S
C1355 H1362 0.961 . S
C1355 H1363 0.960 . S
C1356 C1354 1.381 . S
C1356 C1357 1.394 . S
C1356 H1364 0.930 . S
C1357 C1356 1.394 . S
C1357 C1358 1.383 . S
C1357 H1365 0.929 . S
C1358 C1357 1.383 . S
C1358 C1359 1.377 . S
C1359 H1343 0.930 . S
C1359 C1358 1.377 . S
C1359 C1360 1.379 . S
C1360 H1344 0.931 . S
C1360 C1354 1.383 . S
C1360 C1359 1.379 . S
H1361 C1355 0.959 . S
H1362 C1355 0.961 . S
H1363 C1355 0.960 . S
H1364 C1356 0.930 . S
H1365 C1357 0.929 . S
H1366 C1374 0.929 . S
H1367 C1376 0.930 . S
H1368 C1378 0.930 . S
H1369 C1381 0.929 . S
H1370 C1384 0.930 . S
H1371 C1386 0.960 . S
H1372 C1386 0.960 . S
H1373 C1386 0.960 . S
C1374 H1366 0.929 . S
C1374 C1375 1.377 . S
C1374 C1376 1.384 . S
C1375 C1374 1.377 . S
C1375 C1381 1.390 . S
C1376 H1367 0.930 . S
C1376 C1374 1.384 . S
C1376 C1377 1.372 . S
C1377 C1376 1.372 . S
C1377 C1378 1.400 . S
C1377 C1382 1.490 . S
C1378 H1368 0.930 . S
C1378 C1377 1.400 . S
C1378 C1381 1.386 . S
H1379 C1395 0.930 . S
H1380 C1396 0.931 . S
C1381 H1369 0.929 . S
C1381 C1375 1.390 . S
C1381 C1378 1.386 . S
C1382 C1377 1.490 . S
C1382 C1384 1.395 . S
C1382 C1385 1.403 . S
H1383 C1389 0.930 . S
C1384 H1370 0.930 . S
C1384 C1382 1.395 . S
C1384 C1387 1.403 . S
C1385 C1382 1.403 . S
C1385 C1386 1.524 . S
C1385 C1389 1.400 . S
C1386 H1371 0.960 . S
C1386 H1372 0.960 . S
C1386 H1373 0.960 . S
C1386 C1385 1.524 . S
C1387 C1384 1.403 . S
C1387 C1388 1.392 . S
C1387 C1391 1.495 . S
C1388 C1387 1.392 . S
C1388 C1389 1.385 . S
C1388 C1390 1.478 . S
C1389 H1383 0.930 . S
C1389 C1385 1.400 . S
C1389 C1388 1.385 . S
C1390 C1388 1.478 . S
C1390 C1392 1.381 . S
C1390 C1396 1.383 . S
C1391 C1387 1.495 . S
C1391 H1397 0.959 . S
C1391 H1398 0.961 . S
C1391 H1399 0.960 . S
C1392 C1390 1.381 . S
C1392 C1393 1.394 . S
C1392 H1400 0.930 . S
C1393 C1392 1.394 . S
C1393 C1394 1.383 . S
C1393 H1401 0.929 . S
C1394 C1393 1.383 . S
C1394 C1395 1.377 . S
C1395 H1379 0.930 . S
C1395 C1394 1.377 . S
C1395 C1396 1.379 . S
C1396 H1380 0.931 . S
C1396 C1390 1.383 . S
C1396 C1395 1.379 . S
H1397 C1391 0.959 . S
H1398 C1391 0.961 . S
H1399 C1391 0.960 . S
H1400 C1392 0.930 . S
H1401 C1393 0.929 . S
H1402 C1410 0.929 . S
H1403 C1412 0.930 . S
H1404 C1414 0.930 . S
H1405 C1417 0.929 . S
H1406 C1420 0.930 . S
H1407 C1422 0.960 . S
H1408 C1422 0.960 . S
H1409 C1422 0.960 . S
C1410 H1402 0.929 . S
C1410 C1411 1.377 . S
C1410 C1412 1.384 . S
C1411 C1410 1.377 . S
C1411 C1417 1.390 . S
C1412 H1403 0.930 . S
C1412 C1410 1.384 . S
C1412 C1413 1.372 . S
C1413 C1412 1.372 . S
C1413 C1414 1.400 . S
C1413 C1418 1.490 . S
C1414 H1404 0.930 . S
C1414 C1413 1.400 . S
C1414 C1417 1.386 . S
H1415 C1431 0.930 . S
H1416 C1432 0.931 . S
C1417 H1405 0.929 . S
C1417 C1411 1.390 . S
C1417 C1414 1.386 . S
C1418 C1413 1.490 . S
C1418 C1420 1.395 . S
C1418 C1421 1.403 . S
H1419 C1425 0.930 . S
C1420 H1406 0.930 . S
C1420 C1418 1.395 . S
C1420 C1423 1.403 . S
C1421 C1418 1.403 . S
C1421 C1422 1.524 . S
C1421 C1425 1.400 . S
C1422 H1407 0.960 . S
C1422 H1408 0.960 . S
C1422 H1409 0.960 . S
C1422 C1421 1.524 . S
C1423 C1420 1.403 . S
C1423 C1424 1.392 . S
C1423 C1427 1.495 . S
C1424 C1423 1.392 . S
C1424 C1425 1.385 . S
C1424 C1426 1.478 . S
C1425 H1419 0.930 . S
C1425 C1421 1.400 . S
C1425 C1424 1.385 . S
C1426 C1424 1.478 . S
C1426 C1428 1.381 . S
C1426 C1432 1.383 . S
C1427 C1423 1.495 . S
C1427 H1433 0.959 . S
C1427 H1434 0.961 . S
C1427 H1435 0.960 . S
C1428 C1426 1.381 . S
C1428 C1429 1.394 . S
C1428 H1436 0.930 . S
C1429 C1428 1.394 . S
C1429 C1430 1.383 . S
C1429 H1437 0.929 . S
C1430 C1429 1.383 . S
C1430 C1431 1.377 . S
C1431 H1415 0.930 . S
C1431 C1430 1.377 . S
C1431 C1432 1.379 . S
C1432 H1416 0.931 . S
C1432 C1426 1.383 . S
C1432 C1431 1.379 . S
H1433 C1427 0.959 . S
H1434 C1427 0.961 . S
H1435 C1427 0.960 . S
H1436 C1428 0.930 . S
H1437 C1429 0.929 . S
H1438 C1446 0.929 . S
H1439 C1448 0.930 . S
H1440 C1450 0.930 . S
H1441 C1453 0.929 . S
H1442 C1456 0.930 . S
H1443 C1458 0.960 . S
H1444 C1458 0.960 . S
H1445 C1458 0.960 . S
C1446 H1438 0.929 . S
C1446 C1447 1.377 . S
C1446 C1448 1.384 . S
C1447 C1446 1.377 . S
C1447 C1453 1.390 . S
C1448 H1439 0.930 . S
C1448 C1446 1.384 . S
C1448 C1449 1.372 . S
C1449 C1448 1.372 . S
C1449 C1450 1.400 . S
C1449 C1454 1.490 . S
C1450 H1440 0.930 . S
C1450 C1449 1.400 . S
C1450 C1453 1.386 . S
H1451 C1467 0.930 . S
H1452 C1468 0.931 . S
C1453 H1441 0.929 . S
C1453 C1447 1.390 . S
C1453 C1450 1.386 . S
C1454 C1449 1.490 . S
C1454 C1456 1.395 . S
C1454 C1457 1.403 . S
H1455 C1461 0.930 . S
C1456 H1442 0.930 . S
C1456 C1454 1.395 . S
C1456 C1459 1.403 . S
C1457 C1454 1.403 . S
C1457 C1458 1.524 . S
C1457 C1461 1.400 . S
C1458 H1443 0.960 . S
C1458 H1444 0.960 . S
C1458 H1445 0.960 . S
C1458 C1457 1.524 . S
C1459 C1456 1.403 . S
C1459 C1460 1.392 . S
C1459 C1463 1.495 . S
C1460 C1459 1.392 . S
C1460 C1461 1.385 . S
C1460 C1462 1.478 . S
C1461 H1455 0.930 . S
C1461 C1457 1.400 . S
C1461 C1460 1.385 . S
C1462 C1460 1.478 . S
C1462 C1464 1.381 . S
C1462 C1468 1.383 . S
C1463 C1459 1.495 . S
C1463 H1469 0.959 . S
C1463 H1470 0.961 . S
C1463 H1471 0.960 . S
C1464 C1462 1.381 . S
C1464 C1465 1.394 . S
C1464 H1472 0.930 . S
C1465 C1464 1.394 . S
C1465 C1466 1.383 . S
C1465 H1473 0.929 . S
C1466 C1465 1.383 . S
C1466 C1467 1.377 . S
C1467 H1451 0.930 . S
C1467 C1466 1.377 . S
C1467 C1468 1.379 . S
C1468 H1452 0.931 . S
C1468 C1462 1.383 . S
C1468 C1467 1.379 . S
H1469 C1463 0.959 . S
H1470 C1463 0.961 . S
H1471 C1463 0.960 . S
H1472 C1464 0.930 . S
H1473 C1465 0.929 . S
H1474 C1482 0.929 . S
H1475 C1484 0.930 . S
H1476 C1486 0.930 . S
H1477 C1489 0.929 . S
H1478 C1492 0.930 . S
H1479 C1494 0.960 . S
H1480 C1494 0.960 . S
H1481 C1494 0.960 . S
C1482 H1474 0.929 . S
C1482 C1483 1.377 . S
C1482 C1484 1.384 . S
C1483 C1482 1.377 . S
C1483 C1489 1.390 . S
C1484 H1475 0.930 . S
C1484 C1482 1.384 . S
C1484 C1485 1.372 . S
C1485 C1484 1.372 . S
C1485 C1486 1.400 . S
C1485 C1490 1.490 . S
C1486 H1476 0.930 . S
C1486 C1485 1.400 . S
C1486 C1489 1.386 . S
H1487 C1503 0.930 . S
H1488 C1504 0.931 . S
C1489 H1477 0.929 . S
C1489 C1483 1.390 . S
C1489 C1486 1.386 . S
C1490 C1485 1.490 . S
C1490 C1492 1.395 . S
C1490 C1493 1.403 . S
H1491 C1497 0.930 . S
C1492 H1478 0.930 . S
C1492 C1490 1.395 . S
C1492 C1495 1.403 . S
C1493 C1490 1.403 . S
C1493 C1494 1.524 . S
C1493 C1497 1.400 . S
C1494 H1479 0.960 . S
C1494 H1480 0.960 . S
C1494 H1481 0.960 . S
C1494 C1493 1.524 . S
C1495 C1492 1.403 . S
C1495 C1496 1.392 . S
C1495 C1499 1.495 . S
C1496 C1495 1.392 . S
C1496 C1497 1.385 . S
C1496 C1498 1.478 . S
C1497 H1491 0.930 . S
C1497 C1493 1.400 . S
C1497 C1496 1.385 . S
C1498 C1496 1.478 . S
C1498 C1500 1.381 . S
C1498 C1504 1.383 . S
C1499 C1495 1.495 . S
C1499 H1505 0.959 . S
C1499 H1506 0.961 . S
C1499 H1507 0.960 . S
C1500 C1498 1.381 . S
C1500 C1501 1.394 . S
C1500 H1508 0.930 . S
C1501 C1500 1.394 . S
C1501 C1502 1.383 . S
C1501 H1509 0.929 . S
C1502 C1501 1.383 . S
C1502 C1503 1.377 . S
C1503 H1487 0.930 . S
C1503 C1502 1.377 . S
C1503 C1504 1.379 . S
C1504 H1488 0.931 . S
C1504 C1498 1.383 . S
C1504 C1503 1.379 . S
H1505 C1499 0.959 . S
H1506 C1499 0.961 . S
H1507 C1499 0.960 . S
H1508 C1500 0.930 . S
H1509 C1501 0.929 . S
H1510 C1518 0.929 . S
H1511 C1520 0.930 . S
H1512 C1522 0.930 . S
H1513 C1525 0.929 . S
H1514 C1528 0.930 . S
H1515 C1530 0.960 . S
H1516 C1530 0.960 . S
H1517 C1530 0.960 . S
C1518 H1510 0.929 . S
C1518 C1519 1.377 . S
C1518 C1520 1.384 . S
C1519 C1518 1.377 . S
C1519 C1525 1.390 . S
C1520 H1511 0.930 . S
C1520 C1518 1.384 . S
C1520 C1521 1.372 . S
C1521 C1520 1.372 . S
C1521 C1522 1.400 . S
C1521 C1526 1.490 . S
C1522 H1512 0.930 . S
C1522 C1521 1.400 . S
C1522 C1525 1.386 . S
H1523 C1539 0.930 . S
H1524 C1540 0.931 . S
C1525 H1513 0.929 . S
C1525 C1519 1.390 . S
C1525 C1522 1.386 . S
C1526 C1521 1.490 . S
C1526 C1528 1.395 . S
C1526 C1529 1.403 . S
H1527 C1533 0.930 . S
C1528 H1514 0.930 . S
C1528 C1526 1.395 . S
C1528 C1531 1.403 . S
C1529 C1526 1.403 . S
C1529 C1530 1.524 . S
C1529 C1533 1.400 . S
C1530 H1515 0.960 . S
C1530 H1516 0.960 . S
C1530 H1517 0.960 . S
C1530 C1529 1.524 . S
C1531 C1528 1.403 . S
C1531 C1532 1.392 . S
C1531 C1535 1.495 . S
C1532 C1531 1.392 . S
C1532 C1533 1.385 . S
C1532 C1534 1.478 . S
C1533 H1527 0.930 . S
C1533 C1529 1.400 . S
C1533 C1532 1.385 . S
C1534 C1532 1.478 . S
C1534 C1536 1.381 . S
C1534 C1540 1.383 . S
C1535 C1531 1.495 . S
C1535 H1541 0.959 . S
C1535 H1542 0.961 . S
C1535 H1543 0.960 . S
C1536 C1534 1.381 . S
C1536 C1537 1.394 . S
C1536 H1544 0.930 . S
C1537 C1536 1.394 . S
C1537 C1538 1.383 . S
C1537 H1545 0.929 . S
C1538 C1537 1.383 . S
C1538 C1539 1.377 . S
C1539 H1523 0.930 . S
C1539 C1538 1.377 . S
C1539 C1540 1.379 . S
C1540 H1524 0.931 . S
C1540 C1534 1.383 . S
C1540 C1539 1.379 . S
H1541 C1535 0.959 . S
H1542 C1535 0.961 . S
H1543 C1535 0.960 . S
H1544 C1536 0.930 . S
H1545 C1537 0.929 . S
H1546 C1554 0.929 . S
H1547 C1556 0.930 . S
H1548 C1558 0.930 . S
H1549 C1561 0.929 . S
H1550 C1564 0.930 . S
H1551 C1566 0.960 . S
H1552 C1566 0.960 . S
H1553 C1566 0.960 . S
C1554 H1546 0.929 . S
C1554 C1555 1.377 . S
C1554 C1556 1.384 . S
C1555 C1554 1.377 . S
C1555 C1561 1.390 . S
C1556 H1547 0.930 . S
C1556 C1554 1.384 . S
C1556 C1557 1.372 . S
C1557 C1556 1.372 . S
C1557 C1558 1.400 . S
C1557 C1562 1.490 . S
C1558 H1548 0.930 . S
C1558 C1557 1.400 . S
C1558 C1561 1.386 . S
H1559 C1575 0.930 . S
H1560 C1576 0.931 . S
C1561 H1549 0.929 . S
C1561 C1555 1.390 . S
C1561 C1558 1.386 . S
C1562 C1557 1.490 . S
C1562 C1564 1.395 . S
C1562 C1565 1.403 . S
H1563 C1569 0.930 . S
C1564 H1550 0.930 . S
C1564 C1562 1.395 . S
C1564 C1567 1.403 . S
C1565 C1562 1.403 . S
C1565 C1566 1.524 . S
C1565 C1569 1.400 . S
C1566 H1551 0.960 . S
C1566 H1552 0.960 . S
C1566 H1553 0.960 . S
C1566 C1565 1.524 . S
C1567 C1564 1.403 . S
C1567 C1568 1.392 . S
C1567 C1571 1.495 . S
C1568 C1567 1.392 . S
C1568 C1569 1.385 . S
C1568 C1570 1.478 . S
C1569 H1563 0.930 . S
C1569 C1565 1.400 . S
C1569 C1568 1.385 . S
C1570 C1568 1.478 . S
C1570 C1572 1.381 . S
C1570 C1576 1.383 . S
C1571 C1567 1.495 . S
C1571 H1577 0.959 . S
C1571 H1578 0.961 . S
C1571 H1579 0.960 . S
C1572 C1570 1.381 . S
C1572 C1573 1.394 . S
C1572 H1580 0.930 . S
C1573 C1572 1.394 . S
C1573 C1574 1.383 . S
C1573 H1581 0.929 . S
C1574 C1573 1.383 . S
C1574 C1575 1.377 . S
C1575 H1559 0.930 . S
C1575 C1574 1.377 . S
C1575 C1576 1.379 . S
C1576 H1560 0.931 . S
C1576 C1570 1.383 . S
C1576 C1575 1.379 . S
H1577 C1571 0.959 . S
H1578 C1571 0.961 . S
H1579 C1571 0.960 . S
H1580 C1572 0.930 . S
H1581 C1573 0.929 . S
H1582 C1590 0.929 . S
H1583 C1592 0.930 . S
H1584 C1594 0.930 . S
H1585 C1597 0.929 . S
H1586 C1600 0.930 . S
H1587 C1602 0.960 . S
H1588 C1602 0.960 . S
H1589 C1602 0.960 . S
C1590 H1582 0.929 . S
C1590 C1591 1.377 . S
C1590 C1592 1.384 . S
C1591 C1590 1.377 . S
C1591 C1597 1.390 . S
C1592 H1583 0.930 . S
C1592 C1590 1.384 . S
C1592 C1593 1.372 . S
C1593 C1592 1.372 . S
C1593 C1594 1.400 . S
C1593 C1598 1.490 . S
C1594 H1584 0.930 . S
C1594 C1593 1.400 . S
C1594 C1597 1.386 . S
H1595 C1611 0.930 . S
H1596 C1612 0.931 . S
C1597 H1585 0.929 . S
C1597 C1591 1.390 . S
C1597 C1594 1.386 . S
C1598 C1593 1.490 . S
C1598 C1600 1.395 . S
C1598 C1601 1.403 . S
H1599 C1605 0.930 . S
C1600 H1586 0.930 . S
C1600 C1598 1.395 . S
C1600 C1603 1.403 . S
C1601 C1598 1.403 . S
C1601 C1602 1.524 . S
C1601 C1605 1.400 . S
C1602 H1587 0.960 . S
C1602 H1588 0.960 . S
C1602 H1589 0.960 . S
C1602 C1601 1.524 . S
C1603 C1600 1.403 . S
C1603 C1604 1.392 . S
C1603 C1607 1.495 . S
C1604 C1603 1.392 . S
C1604 C1605 1.385 . S
C1604 C1606 1.478 . S
C1605 H1599 0.930 . S
C1605 C1601 1.400 . S
C1605 C1604 1.385 . S
C1606 C1604 1.478 . S
C1606 C1608 1.381 . S
C1606 C1612 1.383 . S
C1607 C1603 1.495 . S
C1607 H1613 0.959 . S
C1607 H1614 0.961 . S
C1607 H1615 0.960 . S
C1608 C1606 1.381 . S
C1608 C1609 1.394 . S
C1608 H1616 0.930 . S
C1609 C1608 1.394 . S
C1609 C1610 1.383 . S
C1609 H1617 0.929 . S
C1610 C1609 1.383 . S
C1610 C1611 1.377 . S
C1611 H1595 0.930 . S
C1611 C1610 1.377 . S
C1611 C1612 1.379 . S
C1612 H1596 0.931 . S
C1612 C1606 1.383 . S
C1612 C1611 1.379 . S
H1613 C1607 0.959 . S
H1614 C1607 0.961 . S
H1615 C1607 0.960 . S
H1616 C1608 0.930 . S
H1617 C1609 0.929 . S
H1618 C1626 0.929 . S
H1619 C1628 0.930 . S
H1620 C1630 0.930 . S
H1621 C1633 0.929 . S
H1622 C1636 0.930 . S
H1623 C1638 0.960 . S
H1624 C1638 0.960 . S
H1625 C1638 0.960 . S
C1626 H1618 0.929 . S
C1626 C1627 1.377 . S
C1626 C1628 1.384 . S
C1627 C1626 1.377 . S
C1627 C1633 1.390 . S
C1628 H1619 0.930 . S
C1628 C1626 1.384 . S
C1628 C1629 1.372 . S
C1629 C1628 1.372 . S
C1629 C1630 1.400 . S
C1629 C1634 1.490 . S
C1630 H1620 0.930 . S
C1630 C1629 1.400 . S
C1630 C1633 1.386 . S
H1631 C1647 0.930 . S
H1632 C1648 0.931 . S
C1633 H1621 0.929 . S
C1633 C1627 1.390 . S
C1633 C1630 1.386 . S
C1634 C1629 1.490 . S
C1634 C1636 1.395 . S
C1634 C1637 1.403 . S
H1635 C1641 0.930 . S
C1636 H1622 0.930 . S
C1636 C1634 1.395 . S
C1636 C1639 1.403 . S
C1637 C1634 1.403 . S
C1637 C1638 1.524 . S
C1637 C1641 1.400 . S
C1638 H1623 0.960 . S
C1638 H1624 0.960 . S
C1638 H1625 0.960 . S
C1638 C1637 1.524 . S
C1639 C1636 1.403 . S
C1639 C1640 1.392 . S
C1639 C1643 1.495 . S
C1640 C1639 1.392 . S
C1640 C1641 1.385 . S
C1640 C1642 1.478 . S
C1641 H1635 0.930 . S
C1641 C1637 1.400 . S
C1641 C1640 1.385 . S
C1642 C1640 1.478 . S
C1642 C1644 1.381 . S
C1642 C1648 1.383 . S
C1643 C1639 1.495 . S
C1643 H1649 0.959 . S
C1643 H1650 0.961 . S
C1643 H1651 0.960 . S
C1644 C1642 1.381 . S
C1644 C1645 1.394 . S
C1644 H1652 0.930 . S
C1645 C1644 1.394 . S
C1645 C1646 1.383 . S
C1645 H1653 0.929 . S
C1646 C1645 1.383 . S
C1646 C1647 1.377 . S
C1647 H1631 0.930 . S
C1647 C1646 1.377 . S
C1647 C1648 1.379 . S
C1648 H1632 0.931 . S
C1648 C1642 1.383 . S
C1648 C1647 1.379 . S
H1649 C1643 0.959 . S
H1650 C1643 0.961 . S
H1651 C1643 0.960 . S
H1652 C1644 0.930 . S
H1653 C1645 0.929 . S
H1654 C1662 0.929 . S
H1655 C1664 0.930 . S
H1656 C1666 0.930 . S
H1657 C1669 0.929 . S
H1658 C1672 0.930 . S
H1659 C1674 0.960 . S
H1660 C1674 0.960 . S
H1661 C1674 0.960 . S
C1662 H1654 0.929 . S
C1662 C1663 1.377 . S
C1662 C1664 1.384 . S
C1663 C1662 1.377 . S
C1663 C1669 1.390 . S
C1664 H1655 0.930 . S
C1664 C1662 1.384 . S
C1664 C1665 1.372 . S
C1665 C1664 1.372 . S
C1665 C1666 1.400 . S
C1665 C1670 1.490 . S
C1666 H1656 0.930 . S
C1666 C1665 1.400 . S
C1666 C1669 1.386 . S
H1667 C1683 0.930 . S
H1668 C1684 0.931 . S
C1669 H1657 0.929 . S
C1669 C1663 1.390 . S
C1669 C1666 1.386 . S
C1670 C1665 1.490 . S
C1670 C1672 1.395 . S
C1670 C1673 1.403 . S
H1671 C1677 0.930 . S
C1672 H1658 0.930 . S
C1672 C1670 1.395 . S
C1672 C1675 1.403 . S
C1673 C1670 1.403 . S
C1673 C1674 1.524 . S
C1673 C1677 1.400 . S
C1674 H1659 0.960 . S
C1674 H1660 0.960 . S
C1674 H1661 0.960 . S
C1674 C1673 1.524 . S
C1675 C1672 1.403 . S
C1675 C1676 1.392 . S
C1675 C1679 1.495 . S
C1676 C1675 1.392 . S
C1676 C1677 1.385 . S
C1676 C1678 1.478 . S
C1677 H1671 0.930 . S
C1677 C1673 1.400 . S
C1677 C1676 1.385 . S
C1678 C1676 1.478 . S
C1678 C1680 1.381 . S
C1678 C1684 1.383 . S
C1679 C1675 1.495 . S
C1679 H1685 0.959 . S
C1679 H1686 0.961 . S
C1679 H1687 0.960 . S
C1680 C1678 1.381 . S
C1680 C1681 1.394 . S
C1680 H1688 0.930 . S
C1681 C1680 1.394 . S
C1681 C1682 1.383 . S
C1681 H1689 0.929 . S
C1682 C1681 1.383 . S
C1682 C1683 1.377 . S
C1683 H1667 0.930 . S
C1683 C1682 1.377 . S
C1683 C1684 1.379 . S
C1684 H1668 0.931 . S
C1684 C1678 1.383 . S
C1684 C1683 1.379 . S
H1685 C1679 0.959 . S
H1686 C1679 0.961 . S
H1687 C1679 0.960 . S
H1688 C1680 0.930 . S
H1689 C1681 0.929 . S
H1690 C1698 0.929 . S
H1691 C1700 0.930 . S
H1692 C1702 0.930 . S
H1693 C1705 0.929 . S
H1694 C1708 0.930 . S
H1695 C1710 0.960 . S
H1696 C1710 0.960 . S
H1697 C1710 0.960 . S
C1698 H1690 0.929 . S
C1698 C1699 1.377 . S
C1698 C1700 1.384 . S
C1699 C1698 1.377 . S
C1699 C1705 1.390 . S
C1700 H1691 0.930 . S
C1700 C1698 1.384 . S
C1700 C1701 1.372 . S
C1701 C1700 1.372 . S
C1701 C1702 1.400 . S
C1701 C1706 1.490 . S
C1702 H1692 0.930 . S
C1702 C1701 1.400 . S
C1702 C1705 1.386 . S
H1703 C1719 0.930 . S
H1704 C1720 0.931 . S
C1705 H1693 0.929 . S
C1705 C1699 1.390 . S
C1705 C1702 1.386 . S
C1706 C1701 1.490 . S
C1706 C1708 1.395 . S
C1706 C1709 1.403 . S
H1707 C1713 0.930 . S
C1708 H1694 0.930 . S
C1708 C1706 1.395 . S
C1708 C1711 1.403 . S
C1709 C1706 1.403 . S
C1709 C1710 1.524 . S
C1709 C1713 1.400 . S
C1710 H1695 0.960 . S
C1710 H1696 0.960 . S
C1710 H1697 0.960 . S
C1710 C1709 1.524 . S
C1711 C1708 1.403 . S
C1711 C1712 1.392 . S
C1711 C1715 1.495 . S
C1712 C1711 1.392 . S
C1712 C1713 1.385 . S
C1712 C1714 1.478 . S
C1713 H1707 0.930 . S
C1713 C1709 1.400 . S
C1713 C1712 1.385 . S
C1714 C1712 1.478 . S
C1714 C1716 1.381 . S
C1714 C1720 1.383 . S
C1715 C1711 1.495 . S
C1715 H1721 0.959 . S
C1715 H1722 0.961 . S
C1715 H1723 0.960 . S
C1716 C1714 1.381 . S
C1716 C1717 1.394 . S
C1716 H1724 0.930 . S
C1717 C1716 1.394 . S
C1717 C1718 1.383 . S
C1717 H1725 0.929 . S
C1718 C1717 1.383 . S
C1718 C1719 1.377 . S
C1719 H1703 0.930 . S
C1719 C1718 1.377 . S
C1719 C1720 1.379 . S
C1720 H1704 0.931 . S
C1720 C1714 1.383 . S
C1720 C1719 1.379 . S
H1721 C1715 0.959 . S
H1722 C1715 0.961 . S
H1723 C1715 0.960 . S
H1724 C1716 0.930 . S
H1725 C1717 0.929 . S
H1726 C1734 0.929 . S
H1727 C1736 0.930 . S
H1728 C1738 0.930 . S
H1729 C1741 0.929 . S
H1730 C1744 0.930 . S
H1731 C1746 0.960 . S
H1732 C1746 0.960 . S
H1733 C1746 0.960 . S
C1734 H1726 0.929 . S
C1734 C1735 1.377 . S
C1734 C1736 1.384 . S
C1735 C1734 1.377 . S
C1735 C1741 1.390 . S
C1736 H1727 0.930 . S
C1736 C1734 1.384 . S
C1736 C1737 1.372 . S
C1737 C1736 1.372 . S
C1737 C1738 1.400 . S
C1737 C1742 1.490 . S
C1738 H1728 0.930 . S
C1738 C1737 1.400 . S
C1738 C1741 1.386 . S
H1739 C1755 0.930 . S
H1740 C1756 0.931 . S
C1741 H1729 0.929 . S
C1741 C1735 1.390 . S
C1741 C1738 1.386 . S
C1742 C1737 1.490 . S
C1742 C1744 1.395 . S
C1742 C1745 1.403 . S
H1743 C1749 0.930 . S
C1744 H1730 0.930 . S
C1744 C1742 1.395 . S
C1744 C1747 1.403 . S
C1745 C1742 1.403 . S
C1745 C1746 1.524 . S
C1745 C1749 1.400 . S
C1746 H1731 0.960 . S
C1746 H1732 0.960 . S
C1746 H1733 0.960 . S
C1746 C1745 1.524 . S
C1747 C1744 1.403 . S
C1747 C1748 1.392 . S
C1747 C1751 1.495 . S
C1748 C1747 1.392 . S
C1748 C1749 1.385 . S
C1748 C1750 1.478 . S
C1749 H1743 0.930 . S
C1749 C1745 1.400 . S
C1749 C1748 1.385 . S
C1750 C1748 1.478 . S
C1750 C1752 1.381 . S
C1750 C1756 1.383 . S
C1751 C1747 1.495 . S
C1751 H1757 0.959 . S
C1751 H1758 0.961 . S
C1751 H1759 0.960 . S
C1752 C1750 1.381 . S
C1752 C1753 1.394 . S
C1752 H1760 0.930 . S
C1753 C1752 1.394 . S
C1753 C1754 1.383 . S
C1753 H1761 0.929 . S
C1754 C1753 1.383 . S
C1754 C1755 1.377 . S
C1755 H1739 0.930 . S
C1755 C1754 1.377 . S
C1755 C1756 1.379 . S
C1756 H1740 0.931 . S
C1756 C1750 1.383 . S
C1756 C1755 1.379 . S
H1757 C1751 0.959 . S
H1758 C1751 0.961 . S
H1759 C1751 0.960 . S
H1760 C1752 0.930 . S
H1761 C1753 0.929 . S
H1762 C1770 0.929 . S
H1763 C1772 0.930 . S
H1764 C1774 0.930 . S
H1765 C1777 0.929 . S
H1766 C1780 0.930 . S
H1767 C1782 0.960 . S
H1768 C1782 0.960 . S
H1769 C1782 0.960 . S
C1770 H1762 0.929 . S
C1770 C1771 1.377 . S
C1770 C1772 1.384 . S
C1771 C1770 1.377 . S
C1771 C1777 1.390 . S
C1772 H1763 0.930 . S
C1772 C1770 1.384 . S
C1772 C1773 1.372 . S
C1773 C1772 1.372 . S
C1773 C1774 1.400 . S
C1773 C1778 1.490 . S
C1774 H1764 0.930 . S
C1774 C1773 1.400 . S
C1774 C1777 1.386 . S
H1775 C1791 0.930 . S
H1776 C1792 0.931 . S
C1777 H1765 0.929 . S
C1777 C1771 1.390 . S
C1777 C1774 1.386 . S
C1778 C1773 1.490 . S
C1778 C1780 1.395 . S
C1778 C1781 1.403 . S
H1779 C1785 0.930 . S
C1780 H1766 0.930 . S
C1780 C1778 1.395 . S
C1780 C1783 1.403 . S
C1781 C1778 1.403 . S
C1781 C1782 1.524 . S
C1781 C1785 1.400 . S
C1782 H1767 0.960 . S
C1782 H1768 0.960 . S
C1782 H1769 0.960 . S
C1782 C1781 1.524 . S
C1783 C1780 1.403 . S
C1783 C1784 1.392 . S
C1783 C1787 1.495 . S
C1784 C1783 1.392 . S
C1784 C1785 1.385 . S
C1784 C1786 1.478 . S
C1785 H1779 0.930 . S
C1785 C1781 1.400 . S
C1785 C1784 1.385 . S
C1786 C1784 1.478 . S
C1786 C1788 1.381 . S
C1786 C1792 1.383 . S
C1787 C1783 1.495 . S
C1787 H1793 0.959 . S
C1787 H1794 0.961 . S
C1787 H1795 0.960 . S
C1788 C1786 1.381 . S
C1788 C1789 1.394 . S
C1788 H1796 0.930 . S
C1789 C1788 1.394 . S
C1789 C1790 1.383 . S
C1789 H1797 0.929 . S
C1790 C1789 1.383 . S
C1790 C1791 1.377 . S
C1791 H1775 0.930 . S
C1791 C1790 1.377 . S
C1791 C1792 1.379 . S
C1792 H1776 0.931 . S
C1792 C1786 1.383 . S
C1792 C1791 1.379 . S
H1793 C1787 0.959 . S
H1794 C1787 0.961 . S
H1795 C1787 0.960 . S
H1796 C1788 0.930 . S
H1797 C1789 0.929 . S
H1798 C1806 0.929 . S
H1799 C1808 0.930 . S
H1800 C1810 0.930 . S
H1801 C1813 0.929 . S
H1802 C1816 0.930 . S
H1803 C1818 0.960 . S
H1804 C1818 0.960 . S
H1805 C1818 0.960 . S
C1806 H1798 0.929 . S
C1806 C1807 1.377 . S
C1806 C1808 1.384 . S
C1807 C1806 1.377 . S
C1807 C1813 1.390 . S
C1808 H1799 0.930 . S
C1808 C1806 1.384 . S
C1808 C1809 1.372 . S
C1809 C1808 1.372 . S
C1809 C1810 1.400 . S
C1809 C1814 1.490 . S
C1810 H1800 0.930 . S
C1810 C1809 1.400 . S
C1810 C1813 1.386 . S
H1811 C1827 0.930 . S
H1812 C1828 0.931 . S
C1813 H1801 0.929 . S
C1813 C1807 1.390 . S
C1813 C1810 1.386 . S
C1814 C1809 1.490 . S
C1814 C1816 1.395 . S
C1814 C1817 1.403 . S
H1815 C1821 0.930 . S
C1816 H1802 0.930 . S
C1816 C1814 1.395 . S
C1816 C1819 1.403 . S
C1817 C1814 1.403 . S
C1817 C1818 1.524 . S
C1817 C1821 1.400 . S
C1818 H1803 0.960 . S
C1818 H1804 0.960 . S
C1818 H1805 0.960 . S
C1818 C1817 1.524 . S
C1819 C1816 1.403 . S
C1819 C1820 1.392 . S
C1819 C1823 1.495 . S
C1820 C1819 1.392 . S
C1820 C1821 1.385 . S
C1820 C1822 1.478 . S
C1821 H1815 0.930 . S
C1821 C1817 1.400 . S
C1821 C1820 1.385 . S
C1822 C1820 1.478 . S
C1822 C1824 1.381 . S
C1822 C1828 1.383 . S
C1823 C1819 1.495 . S
C1823 H1829 0.959 . S
C1823 H1830 0.961 . S
C1823 H1831 0.960 . S
C1824 C1822 1.381 . S
C1824 C1825 1.394 . S
C1824 H1832 0.930 . S
C1825 C1824 1.394 . S
C1825 C1826 1.383 . S
C1825 H1833 0.929 . S
C1826 C1825 1.383 . S
C1826 C1827 1.377 . S
C1827 H1811 0.930 . S
C1827 C1826 1.377 . S
C1827 C1828 1.379 . S
C1828 H1812 0.931 . S
C1828 C1822 1.383 . S
C1828 C1827 1.379 . S
H1829 C1823 0.959 . S
H1830 C1823 0.961 . S
H1831 C1823 0.960 . S
H1832 C1824 0.930 . S
H1833 C1825 0.929 . S
H1834 C1842 0.929 . S
H1835 C1844 0.930 . S
H1836 C1846 0.930 . S
H1837 C1849 0.929 . S
H1838 C1852 0.930 . S
H1839 C1854 0.960 . S
H1840 C1854 0.960 . S
H1841 C1854 0.960 . S
C1842 H1834 0.929 . S
C1842 C1843 1.377 . S
C1842 C1844 1.384 . S
C1843 C1842 1.377 . S
C1843 C1849 1.390 . S
C1844 H1835 0.930 . S
C1844 C1842 1.384 . S
C1844 C1845 1.372 . S
C1845 C1844 1.372 . S
C1845 C1846 1.400 . S
C1845 C1850 1.490 . S
C1846 H1836 0.930 . S
C1846 C1845 1.400 . S
C1846 C1849 1.386 . S
H1847 C1863 0.930 . S
H1848 C1864 0.931 . S
C1849 H1837 0.929 . S
C1849 C1843 1.390 . S
C1849 C1846 1.386 . S
C1850 C1845 1.490 . S
C1850 C1852 1.395 . S
C1850 C1853 1.403 . S
H1851 C1857 0.930 . S
C1852 H1838 0.930 . S
C1852 C1850 1.395 . S
C1852 C1855 1.403 . S
C1853 C1850 1.403 . S
C1853 C1854 1.524 . S
C1853 C1857 1.400 . S
C1854 H1839 0.960 . S
C1854 H1840 0.960 . S
C1854 H1841 0.960 . S
C1854 C1853 1.524 . S
C1855 C1852 1.403 . S
C1855 C1856 1.392 . S
C1855 C1859 1.495 . S
C1856 C1855 1.392 . S
C1856 C1857 1.385 . S
C1856 C1858 1.478 . S
C1857 H1851 0.930 . S
C1857 C1853 1.400 . S
C1857 C1856 1.385 . S
C1858 C1856 1.478 . S
C1858 C1860 1.381 . S
C1858 C1864 1.383 . S
C1859 C1855 1.495 . S
C1859 H1865 0.959 . S
C1859 H1866 0.961 . S
C1859 H1867 0.960 . S
C1860 C1858 1.381 . S
C1860 C1861 1.394 . S
C1860 H1868 0.930 . S
C1861 C1860 1.394 . S
C1861 C1862 1.383 . S
C1861 H1869 0.929 . S
C1862 C1861 1.383 . S
C1862 C1863 1.377 . S
C1863 H1847 0.930 . S
C1863 C1862 1.377 . S
C1863 C1864 1.379 . S
C1864 H1848 0.931 . S
C1864 C1858 1.383 . S
C1864 C1863 1.379 . S
H1865 C1859 0.959 . S
H1866 C1859 0.961 . S
H1867 C1859 0.960 . S
H1868 C1860 0.930 . S
H1869 C1861 0.929 . S
H1870 C1878 0.929 . S
H1871 C1880 0.930 . S
H1872 C1882 0.930 . S
H1873 C1885 0.929 . S
H1874 C1888 0.930 . S
H1875 C1890 0.960 . S
H1876 C1890 0.960 . S
H1877 C1890 0.960 . S
C1878 H1870 0.929 . S
C1878 C1879 1.377 . S
C1878 C1880 1.384 . S
C1879 C1878 1.377 . S
C1879 C1885 1.390 . S
C1880 H1871 0.930 . S
C1880 C1878 1.384 . S
C1880 C1881 1.372 . S
C1881 C1880 1.372 . S
C1881 C1882 1.400 . S
C1881 C1886 1.490 . S
C1882 H1872 0.930 . S
C1882 C1881 1.400 . S
C1882 C1885 1.386 . S
H1883 C1899 0.930 . S
H1884 C1900 0.931 . S
C1885 H1873 0.929 . S
C1885 C1879 1.390 . S
C1885 C1882 1.386 . S
C1886 C1881 1.490 . S
C1886 C1888 1.395 . S
C1886 C1889 1.403 . S
H1887 C1893 0.930 . S
C1888 H1874 0.930 . S
C1888 C1886 1.395 . S
C1888 C1891 1.403 . S
C1889 C1886 1.403 . S
C1889 C1890 1.524 . S
C1889 C1893 1.400 . S
C1890 H1875 0.960 . S
C1890 H1876 0.960 . S
C1890 H1877 0.960 . S
C1890 C1889 1.524 . S
C1891 C1888 1.403 . S
C1891 C1892 1.392 . S
C1891 C1895 1.495 . S
C1892 C1891 1.392 . S
C1892 C1893 1.385 . S
C1892 C1894 1.478 . S
C1893 H1887 0.930 . S
C1893 C1889 1.400 . S
C1893 C1892 1.385 . S
C1894 C1892 1.478 . S
C1894 C1896 1.381 . S
C1894 C1900 1.383 . S
C1895 C1891 1.495 . S
C1895 H1901 0.959 . S
C1895 H1902 0.961 . S
C1895 H1903 0.960 . S
C1896 C1894 1.381 . S
C1896 C1897 1.394 . S
C1896 H1904 0.930 . S
C1897 C1896 1.394 . S
C1897 C1898 1.383 . S
C1897 H1905 0.929 . S
C1898 C1897 1.383 . S
C1898 C1899 1.377 . S
C1899 H1883 0.930 . S
C1899 C1898 1.377 . S
C1899 C1900 1.379 . S
C1900 H1884 0.931 . S
C1900 C1894 1.383 . S
C1900 C1899 1.379 . S
H1901 C1895 0.959 . S
H1902 C1895 0.961 . S
H1903 C1895 0.960 . S
H1904 C1896 0.930 . S
H1905 C1897 0.929 . S
H1906 C1914 0.929 . S
H1907 C1916 0.930 . S
H1908 C1918 0.930 . S
H1909 C1921 0.929 . S
H1910 C1924 0.930 . S
H1911 C1926 0.960 . S
H1912 C1926 0.960 . S
H1913 C1926 0.960 . S
C1914 H1906 0.929 . S
C1914 C1915 1.377 . S
C1914 C1916 1.384 . S
C1915 C1914 1.377 . S
C1915 C1921 1.390 . S
C1916 H1907 0.930 . S
C1916 C1914 1.384 . S
C1916 C1917 1.372 . S
C1917 C1916 1.372 . S
C1917 C1918 1.400 . S
C1917 C1922 1.490 . S
C1918 H1908 0.930 . S
C1918 C1917 1.400 . S
C1918 C1921 1.386 . S
H1919 C1935 0.930 . S
H1920 C1936 0.931 . S
C1921 H1909 0.929 . S
C1921 C1915 1.390 . S
C1921 C1918 1.386 . S
C1922 C1917 1.490 . S
C1922 C1924 1.395 . S
C1922 C1925 1.403 . S
H1923 C1929 0.930 . S
C1924 H1910 0.930 . S
C1924 C1922 1.395 . S
C1924 C1927 1.403 . S
C1925 C1922 1.403 . S
C1925 C1926 1.524 . S
C1925 C1929 1.400 . S
C1926 H1911 0.960 . S
C1926 H1912 0.960 . S
C1926 H1913 0.960 . S
C1926 C1925 1.524 . S
C1927 C1924 1.403 . S
C1927 C1928 1.392 . S
C1927 C1931 1.495 . S
C1928 C1927 1.392 . S
C1928 C1929 1.385 . S
C1928 C1930 1.478 . S
C1929 H1923 0.930 . S
C1929 C1925 1.400 . S
C1929 C1928 1.385 . S
C1930 C1928 1.478 . S
C1930 C1932 1.381 . S
C1930 C1936 1.383 . S
C1931 C1927 1.495 . S
C1931 H1937 0.959 . S
C1931 H1938 0.961 . S
C1931 H1939 0.960 . S
C1932 C1930 1.381 . S
C1932 C1933 1.394 . S
C1932 H1940 0.930 . S
C1933 C1932 1.394 . S
C1933 C1934 1.383 . S
C1933 H1941 0.929 . S
C1934 C1933 1.383 . S
C1934 C1935 1.377 . S
C1935 H1919 0.930 . S
C1935 C1934 1.377 . S
C1935 C1936 1.379 . S
C1936 H1920 0.931 . S
C1936 C1930 1.383 . S
C1936 C1935 1.379 . S
H1937 C1931 0.959 . S
H1938 C1931 0.961 . S
H1939 C1931 0.960 . S
H1940 C1932 0.930 . S
H1941 C1933 0.929 . S
H1942 C1950 0.929 . S
H1943 C1952 0.930 . S
H1944 C1954 0.930 . S
H1945 C1957 0.929 . S
H1946 C1960 0.930 . S
H1947 C1962 0.960 . S
H1948 C1962 0.960 . S
H1949 C1962 0.960 . S
C1950 H1942 0.929 . S
C1950 C1951 1.377 . S
C1950 C1952 1.384 . S
C1951 C1950 1.377 . S
C1951 C1957 1.390 . S
C1952 H1943 0.930 . S
C1952 C1950 1.384 . S
C1952 C1953 1.372 . S
C1953 C1952 1.372 . S
C1953 C1954 1.400 . S
C1953 C1958 1.490 . S
C1954 H1944 0.930 . S
C1954 C1953 1.400 . S
C1954 C1957 1.386 . S
H1955 C1971 0.930 . S
H1956 C1972 0.931 . S
C1957 H1945 0.929 . S
C1957 C1951 1.390 . S
C1957 C1954 1.386 . S
C1958 C1953 1.490 . S
C1958 C1960 1.395 . S
C1958 C1961 1.403 . S
H1959 C1965 0.930 . S
C1960 H1946 0.930 . S
C1960 C1958 1.395 . S
C1960 C1963 1.403 . S
C1961 C1958 1.403 . S
C1961 C1962 1.524 . S
C1961 C1965 1.400 . S
C1962 H1947 0.960 . S
C1962 H1948 0.960 . S
C1962 H1949 0.960 . S
C1962 C1961 1.524 . S
C1963 C1960 1.403 . S
C1963 C1964 1.392 . S
C1963 C1967 1.495 . S
C1964 C1963 1.392 . S
C1964 C1965 1.385 . S
C1964 C1966 1.478 . S
C1965 H1959 0.930 . S
C1965 C1961 1.400 . S
C1965 C1964 1.385 . S
C1966 C1964 1.478 . S
C1966 C1968 1.381 . S
C1966 C1972 1.383 . S
C1967 C1963 1.495 . S
C1967 H1973 0.959 . S
C1967 H1974 0.961 . S
C1967 H1975 0.960 . S
C1968 C1966 1.381 . S
C1968 C1969 1.394 . S
C1968 H1976 0.930 . S
C1969 C1968 1.394 . S
C1969 C1970 1.383 . S
C1969 H1977 0.929 . S
C1970 C1969 1.383 . S
C1970 C1971 1.377 . S
C1971 H1955 0.930 . S
C1971 C1970 1.377 . S
C1971 C1972 1.379 . S
C1972 H1956 0.931 . S
C1972 C1966 1.383 . S
C1972 C1971 1.379 . S
H1973 C1967 0.959 . S
H1974 C1967 0.961 . S
H1975 C1967 0.960 . S
H1976 C1968 0.930 . S
H1977 C1969 0.929 . S
H1978 C1986 0.929 . S
H1979 C1988 0.930 . S
H1980 C1990 0.930 . S
H1981 C1993 0.929 . S
H1982 C1996 0.930 . S
H1983 C1998 0.960 . S
H1984 C1998 0.960 . S
H1985 C1998 0.960 . S
C1986 H1978 0.929 . S
C1986 C1987 1.377 . S
C1986 C1988 1.384 . S
C1987 C1986 1.377 . S
C1987 C1993 1.390 . S
C1988 H1979 0.930 . S
C1988 C1986 1.384 . S
C1988 C1989 1.372 . S
C1989 C1988 1.372 . S
C1989 C1990 1.400 . S
C1989 C1994 1.490 . S
C1990 H1980 0.930 . S
C1990 C1989 1.400 . S
C1990 C1993 1.386 . S
H1991 C2007 0.930 . S
H1992 C2008 0.931 . S
C1993 H1981 0.929 . S
C1993 C1987 1.390 . S
C1993 C1990 1.386 . S
C1994 C1989 1.490 . S
C1994 C1996 1.395 . S
C1994 C1997 1.403 . S
H1995 C2001 0.930 . S
C1996 H1982 0.930 . S
C1996 C1994 1.395 . S
C1996 C1999 1.403 . S
C1997 C1994 1.403 . S
C1997 C1998 1.524 . S
C1997 C2001 1.400 . S
C1998 H1983 0.960 . S
C1998 H1984 0.960 . S
C1998 H1985 0.960 . S
C1998 C1997 1.524 . S
C1999 C1996 1.403 . S
C1999 C2000 1.392 . S
C1999 C2003 1.495 . S
C2000 C1999 1.392 . S
C2000 C2001 1.385 . S
C2000 C2002 1.478 . S
C2001 H1995 0.930 . S
C2001 C1997 1.400 . S
C2001 C2000 1.385 . S
C2002 C2000 1.478 . S
C2002 C2004 1.381 . S
C2002 C2008 1.383 . S
C2003 C1999 1.495 . S
C2003 H2009 0.959 . S
C2003 H2010 0.961 . S
C2003 H2011 0.960 . S
C2004 C2002 1.381 . S
C2004 C2005 1.394 . S
C2004 H2012 0.930 . S
C2005 C2004 1.394 . S
C2005 C2006 1.383 . S
C2005 H2013 0.929 . S
C2006 C2005 1.383 . S
C2006 C2007 1.377 . S
C2007 H1991 0.930 . S
C2007 C2006 1.377 . S
C2007 C2008 1.379 . S
C2008 H1992 0.931 . S
C2008 C2002 1.383 . S
C2008 C2007 1.379 . S
H2009 C2003 0.959 . S
H2010 C2003 0.961 . S
H2011 C2003 0.960 . S
H2012 C2004 0.930 . S
H2013 C2005 0.929 . S
H2014 C2022 0.929 . S
H2015 C2024 0.930 . S
H2016 C2026 0.930 . S
H2017 C2029 0.929 . S
H2018 C2032 0.930 . S
H2019 C2034 0.960 . S
H2020 C2034 0.960 . S
H2021 C2034 0.960 . S
C2022 H2014 0.929 . S
C2022 C2023 1.377 . S
C2022 C2024 1.384 . S
C2023 C2022 1.377 . S
C2023 C2029 1.390 . S
C2024 H2015 0.930 . S
C2024 C2022 1.384 . S
C2024 C2025 1.372 . S
C2025 C2024 1.372 . S
C2025 C2026 1.400 . S
C2025 C2030 1.490 . S
C2026 H2016 0.930 . S
C2026 C2025 1.400 . S
C2026 C2029 1.386 . S
H2027 C2043 0.930 . S
H2028 C2044 0.931 . S
C2029 H2017 0.929 . S
C2029 C2023 1.390 . S
C2029 C2026 1.386 . S
C2030 C2025 1.490 . S
C2030 C2032 1.395 . S
C2030 C2033 1.403 . S
H2031 C2037 0.930 . S
C2032 H2018 0.930 . S
C2032 C2030 1.395 . S
C2032 C2035 1.403 . S
C2033 C2030 1.403 . S
C2033 C2034 1.524 . S
C2033 C2037 1.400 . S
C2034 H2019 0.960 . S
C2034 H2020 0.960 . S
C2034 H2021 0.960 . S
C2034 C2033 1.524 . S
C2035 C2032 1.403 . S
C2035 C2036 1.392 . S
C2035 C2039 1.495 . S
C2036 C2035 1.392 . S
C2036 C2037 1.385 . S
C2036 C2038 1.478 . S
C2037 H2031 0.930 . S
C2037 C2033 1.400 . S
C2037 C2036 1.385 . S
C2038 C2036 1.478 . S
C2038 C2040 1.381 . S
C2038 C2044 1.383 . S
C2039 C2035 1.495 . S
C2039 H2045 0.959 . S
C2039 H2046 0.961 . S
C2039 H2047 0.960 . S
C2040 C2038 1.381 . S
C2040 C2041 1.394 . S
C2040 H2048 0.930 . S
C2041 C2040 1.394 . S
C2041 C2042 1.383 . S
C2041 H2049 0.929 . S
C2042 C2041 1.383 . S
C2042 C2043 1.377 . S
C2043 H2027 0.930 . S
C2043 C2042 1.377 . S
C2043 C2044 1.379 . S
C2044 H2028 0.931 . S
C2044 C2038 1.383 . S
C2044 C2043 1.379 . S
H2045 C2039 0.959 . S
H2046 C2039 0.961 . S
H2047 C2039 0.960 . S
H2048 C2040 0.930 . S
H2049 C2041 0.929 . S
H2050 C2058 0.929 . S
H2051 C2060 0.930 . S
H2052 C2062 0.930 . S
H2053 C2065 0.929 . S
H2054 C2068 0.930 . S
H2055 C2070 0.960 . S
H2056 C2070 0.960 . S
H2057 C2070 0.960 . S
C2058 H2050 0.929 . S
C2058 C2059 1.377 . S
C2058 C2060 1.384 . S
C2059 C2058 1.377 . S
C2059 C2065 1.390 . S
C2060 H2051 0.930 . S
C2060 C2058 1.384 . S
C2060 C2061 1.372 . S
C2061 C2060 1.372 . S
C2061 C2062 1.400 . S
C2061 C2066 1.490 . S
C2062 H2052 0.930 . S
C2062 C2061 1.400 . S
C2062 C2065 1.386 . S
H2063 C2079 0.930 . S
H2064 C2080 0.931 . S
C2065 H2053 0.929 . S
C2065 C2059 1.390 . S
C2065 C2062 1.386 . S
C2066 C2061 1.490 . S
C2066 C2068 1.395 . S
C2066 C2069 1.403 . S
H2067 C2073 0.930 . S
C2068 H2054 0.930 . S
C2068 C2066 1.395 . S
C2068 C2071 1.403 . S
C2069 C2066 1.403 . S
C2069 C2070 1.524 . S
C2069 C2073 1.400 . S
C2070 H2055 0.960 . S
C2070 H2056 0.960 . S
C2070 H2057 0.960 . S
C2070 C2069 1.524 . S
C2071 C2068 1.403 . S
C2071 C2072 1.392 . S
C2071 C2075 1.495 . S
C2072 C2071 1.392 . S
C2072 C2073 1.385 . S
C2072 C2074 1.478 . S
C2073 H2067 0.930 . S
C2073 C2069 1.400 . S
C2073 C2072 1.385 . S
C2074 C2072 1.478 . S
C2074 C2076 1.381 . S
C2074 C2080 1.383 . S
C2075 C2071 1.495 . S
C2075 H2081 0.959 . S
C2075 H2082 0.961 . S
C2075 H2083 0.960 . S
C2076 C2074 1.381 . S
C2076 C2077 1.394 . S
C2076 H2084 0.930 . S
C2077 C2076 1.394 . S
C2077 C2078 1.383 . S
C2077 H2085 0.929 . S
C2078 C2077 1.383 . S
C2078 C2079 1.377 . S
C2079 H2063 0.930 . S
C2079 C2078 1.377 . S
C2079 C2080 1.379 . S
C2080 H2064 0.931 . S
C2080 C2074 1.383 . S
C2080 C2079 1.379 . S
H2081 C2075 0.959 . S
H2082 C2075 0.961 . S
H2083 C2075 0.960 . S
H2084 C2076 0.930 . S
H2085 C2077 0.929 . S
C386 C187 1.287 . S
C367 C9 1.349 . S
C422 C188 1.573 . S
C403 C22 1.643 . S
C458 C182 0.883 . S
C439 C49 0.926 . S
C475 C61 0.980 . S
C494 C181 0.967 . S
C511 C81 1.638 . S
C530 C184 1.625 . S
C566 C186 0.947 . S
C547 C108 0.920 . S
C583 C122 0.982 . S
C602 C185 1.015 . S
C619 C148 1.347 . S
C638 C183 1.295 . S
C674 C218 2.248 . S
C655 C18 2.216 . S
C691 C39 1.440 . S
C710 C249 1.422 . S
C746 C217 2.102 . S
C727 C58 2.131 . S
C782 C252 0.890 . S
C763 C69 0.851 . S
C799 C89 1.133 . S
C818 C215 1.096 . S
C854 C247 1.382 . S
C835 C102 1.381 . S
C871 C139 1.155 . S
C890 C220 1.202 . S
C907 C142 1.271 . S
C926 C254 1.188 . S
C943 C1 1.275 . S
C962 C250 1.252 . S
C979 C98 1.440 . S
C998 C253 1.464 . S
C1034 C221 2.105 . S
C1015 C119 2.129 . S
C1070 C248 0.843 . S
C1051 C128 0.851 . S
C1087 C159 2.217 . S
C1106 C214 2.263 . S
C1123 C41 1.383 . S
C1142 C251 1.378 . S
C1178 C216 1.150 . S
C1159 C78 1.166 . S
C1195 C28 1.127 . S
C1214 C219 1.101 . S
C1231 C149 1.350 . S
C1250 C286 1.247 . S
C1267 C82 1.177 . S
C1286 C287 1.103 . S
C1322 C281 0.977 . S
C1303 C109 0.970 . S
C1358 C280 1.510 . S
C1339 C121 1.497 . S
C1375 C21 1.167 . S
C1394 C283 1.113 . S
C1430 C285 0.989 . S
C1411 C48 0.963 . S
C1447 C62 1.498 . S
C1466 C284 1.511 . S
C1483 C8 1.350 . S
C1502 C282 1.260 . S
C1519 C158 2.375 . S
C1538 C320 2.329 . S
C1574 C352 1.182 . S
C1555 C99 1.153 . S
C1591 C118 2.035 . S
C1610 C313 2.045 . S
C1627 C129 1.168 . S
C1646 C347 1.192 . S
C1682 C318 0.842 . S
C1663 C29 0.863 . S
C1699 C42 1.545 . S
C1718 C349 1.513 . S
C1754 C315 1.482 . S
C1735 C79 1.473 . S
C1790 C350 1.234 . S
C1771 C2 1.234 . S
C1826 C346 1.239 . S
C1807 C141 1.233 . S
C1843 C38 1.167 . S
C1862 C348 1.189 . S
C1879 C59 2.032 . S
C1898 C317 2.041 . S
C1934 C351 1.145 . S
C1915 C68 1.167 . S
C1951 C19 2.375 . S
C1970 C316 2.309 . S
C1987 C101 1.541 . S
C2006 C353 1.468 . S
C2042 C319 1.469 . S
C2023 C138 1.473 . S
C2078 C314 0.851 . S
C2059 C88 0.876 . S
