# Generated by pormake.
# Topology gar, (4,6)-cn, num edge types: 1
# Building blocks:
#     Node 0, Type 0, BuildingBlock: QUQFOY_clean_sbu_3, # of connection points: 4
#     Node 1, Type 0, BuildingBlock: QUQFOY_clean_sbu_3, # of connection points: 4
#     Node 2, Type 0, BuildingBlock: QUQFOY_clean_sbu_3, # of connection points: 4
#     Node 3, Type 0, BuildingBlock: QUQFOY_clean_sbu_3, # of connection points: 4
#     Node 4, Type 0, BuildingBlock: QUQFOY_clean_sbu_3, # of connection points: 4
#     Node 5, Type 0, BuildingBlock: QUQFOY_clean_sbu_3, # of connection points: 4
#     Node 6, Type 0, BuildingBlock: QUQFOY_clean_sbu_3, # of connection points: 4
#     Node 7, Type 0, BuildingBlock: QUQFOY_clean_sbu_3, # of connection points: 4
#     Node 8, Type 0, BuildingBlock: QUQFOY_clean_sbu_3, # of connection points: 4
#     Node 9, Type 0, BuildingBlock: QUQFOY_clean_sbu_3, # of connection points: 4
#     Node 10, Type 0, BuildingBlock: QUQFOY_clean_sbu_3, # of connection points: 4
#     Node 11, Type 0, BuildingBlock: QUQFOY_clean_sbu_3, # of connection points: 4
#     Node 12, Type 0, BuildingBlock: QUQFOY_clean_sbu_3, # of connection points: 4
#     Node 13, Type 0, BuildingBlock: QUQFOY_clean_sbu_3, # of connection points: 4
#     Node 14, Type 0, BuildingBlock: QUQFOY_clean_sbu_3, # of connection points: 4
#     Node 15, Type 0, BuildingBlock: QUQFOY_clean_sbu_3, # of connection points: 4
#     Node 16, Type 0, BuildingBlock: QUQFOY_clean_sbu_3, # of connection points: 4
#     Node 17, Type 0, BuildingBlock: QUQFOY_clean_sbu_3, # of connection points: 4
#     Node 18, Type 0, BuildingBlock: QUQFOY_clean_sbu_3, # of connection points: 4
#     Node 19, Type 0, BuildingBlock: QUQFOY_clean_sbu_3, # of connection points: 4
#     Node 20, Type 0, BuildingBlock: QUQFOY_clean_sbu_3, # of connection points: 4
#     Node 21, Type 0, BuildingBlock: QUQFOY_clean_sbu_3, # of connection points: 4
#     Node 22, Type 0, BuildingBlock: QUQFOY_clean_sbu_3, # of connection points: 4
#     Node 23, Type 0, BuildingBlock: QUQFOY_clean_sbu_3, # of connection points: 4
#     Node 24, Type 1, BuildingBlock: BETDAH_clean_sbu_0, # of connection points: 6
#     Node 25, Type 1, BuildingBlock: BETDAH_clean_sbu_0, # of connection points: 6
#     Node 26, Type 1, BuildingBlock: BETDAH_clean_sbu_0, # of connection points: 6
#     Node 27, Type 1, BuildingBlock: BETDAH_clean_sbu_0, # of connection points: 6
#     Node 28, Type 1, BuildingBlock: BETDAH_clean_sbu_0, # of connection points: 6
#     Node 29, Type 1, BuildingBlock: BETDAH_clean_sbu_0, # of connection points: 6
#     Node 30, Type 1, BuildingBlock: BETDAH_clean_sbu_0, # of connection points: 6
#     Node 31, Type 1, BuildingBlock: BETDAH_clean_sbu_0, # of connection points: 6
#     Node 32, Type 1, BuildingBlock: BETDAH_clean_sbu_0, # of connection points: 6
#     Node 33, Type 1, BuildingBlock: BETDAH_clean_sbu_0, # of connection points: 6
#     Node 34, Type 1, BuildingBlock: BETDAH_clean_sbu_0, # of connection points: 6
#     Node 35, Type 1, BuildingBlock: BETDAH_clean_sbu_0, # of connection points: 6
#     Node 36, Type 1, BuildingBlock: BETDAH_clean_sbu_0, # of connection points: 6
#     Node 37, Type 1, BuildingBlock: BETDAH_clean_sbu_0, # of connection points: 6
#     Node 38, Type 1, BuildingBlock: BETDAH_clean_sbu_0, # of connection points: 6
#     Node 39, Type 1, BuildingBlock: BETDAH_clean_sbu_0, # of connection points: 6
#     Edge 40, Type (0, 1), BuildingBlock: TEMPAE_clean_linker_10, # of connection points: 2
#     Edge 41, Type (0, 1), BuildingBlock: TEMPAE_clean_linker_10, # of connection points: 2
#     Edge 42, Type (0, 1), BuildingBlock: TEMPAE_clean_linker_10, # of connection points: 2
#     Edge 43, Type (0, 1), BuildingBlock: TEMPAE_clean_linker_10, # of connection points: 2
#     Edge 44, Type (0, 1), BuildingBlock: TEMPAE_clean_linker_10, # of connection points: 2
#     Edge 45, Type (0, 1), BuildingBlock: TEMPAE_clean_linker_10, # of connection points: 2
#     Edge 46, Type (0, 1), BuildingBlock: TEMPAE_clean_linker_10, # of connection points: 2
#     Edge 47, Type (0, 1), BuildingBlock: TEMPAE_clean_linker_10, # of connection points: 2
#     Edge 48, Type (0, 1), BuildingBlock: TEMPAE_clean_linker_10, # of connection points: 2
#     Edge 49, Type (0, 1), BuildingBlock: TEMPAE_clean_linker_10, # of connection points: 2
#     Edge 50, Type (0, 1), BuildingBlock: TEMPAE_clean_linker_10, # of connection points: 2
#     Edge 51, Type (0, 1), BuildingBlock: TEMPAE_clean_linker_10, # of connection points: 2
#     Edge 52, Type (0, 1), BuildingBlock: TEMPAE_clean_linker_10, # of connection points: 2
#     Edge 53, Type (0, 1), BuildingBlock: TEMPAE_clean_linker_10, # of connection points: 2
#     Edge 54, Type (0, 1), BuildingBlock: TEMPAE_clean_linker_10, # of connection points: 2
#     Edge 55, Type (0, 1), BuildingBlock: TEMPAE_clean_linker_10, # of connection points: 2
#     Edge 56, Type (0, 1), BuildingBlock: TEMPAE_clean_linker_10, # of connection points: 2
#     Edge 57, Type (0, 1), BuildingBlock: TEMPAE_clean_linker_10, # of connection points: 2
#     Edge 58, Type (0, 1), BuildingBlock: TEMPAE_clean_linker_10, # of connection points: 2
#     Edge 59, Type (0, 1), BuildingBlock: TEMPAE_clean_linker_10, # of connection points: 2
#     Edge 60, Type (0, 1), BuildingBlock: TEMPAE_clean_linker_10, # of connection points: 2
#     Edge 61, Type (0, 1), BuildingBlock: TEMPAE_clean_linker_10, # of connection points: 2
#     Edge 62, Type (0, 1), BuildingBlock: TEMPAE_clean_linker_10, # of connection points: 2
#     Edge 63, Type (0, 1), BuildingBlock: TEMPAE_clean_linker_10, # of connection points: 2
#     Edge 64, Type (0, 1), BuildingBlock: TEMPAE_clean_linker_10, # of connection points: 2
#     Edge 65, Type (0, 1), BuildingBlock: TEMPAE_clean_linker_10, # of connection points: 2
#     Edge 66, Type (0, 1), BuildingBlock: TEMPAE_clean_linker_10, # of connection points: 2
#     Edge 67, Type (0, 1), BuildingBlock: TEMPAE_clean_linker_10, # of connection points: 2
#     Edge 68, Type (0, 1), BuildingBlock: TEMPAE_clean_linker_10, # of connection points: 2
#     Edge 69, Type (0, 1), BuildingBlock: TEMPAE_clean_linker_10, # of connection points: 2
#     Edge 70, Type (0, 1), BuildingBlock: TEMPAE_clean_linker_10, # of connection points: 2
#     Edge 71, Type (0, 1), BuildingBlock: TEMPAE_clean_linker_10, # of connection points: 2
#     Edge 72, Type (0, 1), BuildingBlock: TEMPAE_clean_linker_10, # of connection points: 2
#     Edge 73, Type (0, 1), BuildingBlock: TEMPAE_clean_linker_10, # of connection points: 2
#     Edge 74, Type (0, 1), BuildingBlock: TEMPAE_clean_linker_10, # of connection points: 2
#     Edge 75, Type (0, 1), BuildingBlock: TEMPAE_clean_linker_10, # of connection points: 2
#     Edge 76, Type (0, 1), BuildingBlock: TEMPAE_clean_linker_10, # of connection points: 2
#     Edge 77, Type (0, 1), BuildingBlock: TEMPAE_clean_linker_10, # of connection points: 2
#     Edge 78, Type (0, 1), BuildingBlock: TEMPAE_clean_linker_10, # of connection points: 2
#     Edge 79, Type (0, 1), BuildingBlock: TEMPAE_clean_linker_10, # of connection points: 2
#     Edge 80, Type (0, 1), BuildingBlock: TEMPAE_clean_linker_10, # of connection points: 2
#     Edge 81, Type (0, 1), BuildingBlock: TEMPAE_clean_linker_10, # of connection points: 2
#     Edge 82, Type (0, 1), BuildingBlock: TEMPAE_clean_linker_10, # of connection points: 2
#     Edge 83, Type (0, 1), BuildingBlock: TEMPAE_clean_linker_10, # of connection points: 2
#     Edge 84, Type (0, 1), BuildingBlock: TEMPAE_clean_linker_10, # of connection points: 2
#     Edge 85, Type (0, 1), BuildingBlock: TEMPAE_clean_linker_10, # of connection points: 2
#     Edge 86, Type (0, 1), BuildingBlock: TEMPAE_clean_linker_10, # of connection points: 2
#     Edge 87, Type (0, 1), BuildingBlock: TEMPAE_clean_linker_10, # of connection points: 2
#     Edge 88, Type (0, 1), BuildingBlock: TEMPAE_clean_linker_10, # of connection points: 2
#     Edge 89, Type (0, 1), BuildingBlock: TEMPAE_clean_linker_10, # of connection points: 2
#     Edge 90, Type (0, 1), BuildingBlock: TEMPAE_clean_linker_10, # of connection points: 2
#     Edge 91, Type (0, 1), BuildingBlock: TEMPAE_clean_linker_10, # of connection points: 2
#     Edge 92, Type (0, 1), BuildingBlock: TEMPAE_clean_linker_10, # of connection points: 2
#     Edge 93, Type (0, 1), BuildingBlock: TEMPAE_clean_linker_10, # of connection points: 2
#     Edge 94, Type (0, 1), BuildingBlock: TEMPAE_clean_linker_10, # of connection points: 2
#     Edge 95, Type (0, 1), BuildingBlock: TEMPAE_clean_linker_10, # of connection points: 2
#     Edge 96, Type (0, 1), BuildingBlock: TEMPAE_clean_linker_10, # of connection points: 2
#     Edge 97, Type (0, 1), BuildingBlock: TEMPAE_clean_linker_10, # of connection points: 2
#     Edge 98, Type (0, 1), BuildingBlock: TEMPAE_clean_linker_10, # of connection points: 2
#     Edge 99, Type (0, 1), BuildingBlock: TEMPAE_clean_linker_10, # of connection points: 2
#     Edge 100, Type (0, 1), BuildingBlock: TEMPAE_clean_linker_10, # of connection points: 2
#     Edge 101, Type (0, 1), BuildingBlock: TEMPAE_clean_linker_10, # of connection points: 2
#     Edge 102, Type (0, 1), BuildingBlock: TEMPAE_clean_linker_10, # of connection points: 2
#     Edge 103, Type (0, 1), BuildingBlock: TEMPAE_clean_linker_10, # of connection points: 2
#     Edge 104, Type (0, 1), BuildingBlock: TEMPAE_clean_linker_10, # of connection points: 2
#     Edge 105, Type (0, 1), BuildingBlock: TEMPAE_clean_linker_10, # of connection points: 2
#     Edge 106, Type (0, 1), BuildingBlock: TEMPAE_clean_linker_10, # of connection points: 2
#     Edge 107, Type (0, 1), BuildingBlock: TEMPAE_clean_linker_10, # of connection points: 2
#     Edge 108, Type (0, 1), BuildingBlock: TEMPAE_clean_linker_10, # of connection points: 2
#     Edge 109, Type (0, 1), BuildingBlock: TEMPAE_clean_linker_10, # of connection points: 2
#     Edge 110, Type (0, 1), BuildingBlock: TEMPAE_clean_linker_10, # of connection points: 2
#     Edge 111, Type (0, 1), BuildingBlock: TEMPAE_clean_linker_10, # of connection points: 2
#     Edge 112, Type (0, 1), BuildingBlock: TEMPAE_clean_linker_10, # of connection points: 2
#     Edge 113, Type (0, 1), BuildingBlock: TEMPAE_clean_linker_10, # of connection points: 2
#     Edge 114, Type (0, 1), BuildingBlock: TEMPAE_clean_linker_10, # of connection points: 2
#     Edge 115, Type (0, 1), BuildingBlock: TEMPAE_clean_linker_10, # of connection points: 2
#     Edge 116, Type (0, 1), BuildingBlock: TEMPAE_clean_linker_10, # of connection points: 2
#     Edge 117, Type (0, 1), BuildingBlock: TEMPAE_clean_linker_10, # of connection points: 2
#     Edge 118, Type (0, 1), BuildingBlock: TEMPAE_clean_linker_10, # of connection points: 2
#     Edge 119, Type (0, 1), BuildingBlock: TEMPAE_clean_linker_10, # of connection points: 2
#     Edge 120, Type (0, 1), BuildingBlock: TEMPAE_clean_linker_10, # of connection points: 2
#     Edge 121, Type (0, 1), BuildingBlock: TEMPAE_clean_linker_10, # of connection points: 2
#     Edge 122, Type (0, 1), BuildingBlock: TEMPAE_clean_linker_10, # of connection points: 2
#     Edge 123, Type (0, 1), BuildingBlock: TEMPAE_clean_linker_10, # of connection points: 2
#     Edge 124, Type (0, 1), BuildingBlock: TEMPAE_clean_linker_10, # of connection points: 2
#     Edge 125, Type (0, 1), BuildingBlock: TEMPAE_clean_linker_10, # of connection points: 2
#     Edge 126, Type (0, 1), BuildingBlock: TEMPAE_clean_linker_10, # of connection points: 2
#     Edge 127, Type (0, 1), BuildingBlock: TEMPAE_clean_linker_10, # of connection points: 2
#     Edge 128, Type (0, 1), BuildingBlock: TEMPAE_clean_linker_10, # of connection points: 2
#     Edge 129, Type (0, 1), BuildingBlock: TEMPAE_clean_linker_10, # of connection points: 2
#     Edge 130, Type (0, 1), BuildingBlock: TEMPAE_clean_linker_10, # of connection points: 2
#     Edge 131, Type (0, 1), BuildingBlock: TEMPAE_clean_linker_10, # of connection points: 2
#     Edge 132, Type (0, 1), BuildingBlock: TEMPAE_clean_linker_10, # of connection points: 2
#     Edge 133, Type (0, 1), BuildingBlock: TEMPAE_clean_linker_10, # of connection points: 2
#     Edge 134, Type (0, 1), BuildingBlock: TEMPAE_clean_linker_10, # of connection points: 2
#     Edge 135, Type (0, 1), BuildingBlock: TEMPAE_clean_linker_10, # of connection points: 2
# Relax obj value: 0.188
# Max RMSD: 0.312
# Mean RMSD: 0.155
data_MOF--net-gar--node1-QUQFOY_clean_sbu_3--node2-BETDAH_clean_sbu_0--edge1-TEMPAE_clean_linker_10
_symmetry_space_group_name_H-M    P1
_symmetry_Int_Tables_number       1
_symmetry_cell_setting            triclinic
loop_
_symmetry_equiv_pos_as_xyz
'x, y, z'
_cell_length_a     63.578961
_cell_length_b     58.781338
_cell_length_c     58.607928
_cell_angle_alpha  99.615593
_cell_angle_beta   95.322567
_cell_angle_gamma 103.10736
loop_
_atom_site_label
_atom_site_type_symbol
_atom_site_fract_x
_atom_site_fract_y
_atom_site_fract_z
_atom_type_partial_charge
C0 C 0.07449 0.33375 0.34539 0.0
O1 O 0.08743 0.34555 0.33387 0.0
Cd2 Cd 0.12435 0.36144 0.34721 0.0
O3 O 0.0813 0.32879 0.3647 0.0
Cd4 Cd 0.11429 0.33135 0.39211 0.0
C5 C 0.11694 0.38897 0.4022 0.0
O6 O 0.12866 0.32662 0.3589 0.0
O7 O 0.15332 0.33158 0.38824 0.0
O8 O 0.08937 0.29485 0.39208 0.0
C9 C 0.14803 0.32772 0.36627 0.0
O10 O 0.12022 0.3892 0.38113 0.0
C11 C 0.09761 0.29188 0.41151 0.0
O12 O 0.11501 0.3703 0.41085 0.0
O13 O 0.11433 0.30752 0.42244 0.0
C14 C 0.95583 0.73814 0.6789 0.0
O15 O 0.96865 0.72856 0.68961 0.0
Cd16 Cd 0.00427 0.72687 0.68538 0.0
O17 O 0.96091 0.74819 0.66191 0.0
Cd18 Cd 0.99266 0.75407 0.64212 0.0
C19 C 0.99324 0.69843 0.62792 0.0
O20 O 0.01855 0.76396 0.67647 0.0
O21 O 0.0306 0.75388 0.64411 0.0
O22 O 0.99308 0.79468 0.63933 0.0
C23 C 0.03459 0.76167 0.66592 0.0
O24 O 0.00181 0.70094 0.64895 0.0
C25 C 0.9987 0.79225 0.61901 0.0
O26 O 0.9846 0.71394 0.62085 0.0
O27 O 0.99778 0.77131 0.60835 0.0
C28 C 0.57455 0.83759 0.84754 0.0
O29 O 0.58764 0.84858 0.8356 0.0
Cd30 Cd 0.62457 0.86411 0.85076 0.0
O31 O 0.58108 0.83228 0.86674 0.0
Cd32 Cd 0.6134 0.83219 0.89337 0.0
C33 C 0.6146 0.88936 0.90547 0.0
O34 O 0.62813 0.82764 0.85984 0.0
O35 O 0.65183 0.83058 0.88961 0.0
O36 O 0.58717 0.79595 0.89303 0.0
C37 C 0.647 0.82705 0.86759 0.0
O38 O 0.6184 0.89072 0.88472 0.0
C39 C 0.59567 0.79225 0.91204 0.0
O40 O 0.61389 0.8704 0.91337 0.0
O41 O 0.61282 0.80732 0.92274 0.0
C42 C 0.45354 0.23651 0.17741 0.0
O43 O 0.46519 0.22562 0.18795 0.0
Cd44 Cd 0.50067 0.22353 0.18418 0.0
O45 O 0.45988 0.2472 0.16121 0.0
Cd46 Cd 0.49238 0.25114 0.14249 0.0
C47 C 0.4907 0.19524 0.12705 0.0
O48 O 0.51705 0.26174 0.17814 0.0
O49 O 0.52919 0.24709 0.14721 0.0
O50 O 0.49682 0.29236 0.13979 0.0
C51 C 0.53309 0.25804 0.16826 0.0
O52 O 0.49921 0.19744 0.14803 0.0
C53 C 0.50151 0.28953 0.1191 0.0
O54 O 0.48262 0.21125 0.12028 0.0
O55 O 0.49876 0.26828 0.10819 0.0
C56 C 0.04902 0.79985 0.14737 0.0
O57 O 0.0607 0.79339 0.16262 0.0
Cd58 Cd 0.09623 0.78747 0.15885 0.0
O59 O 0.05704 0.80765 0.13012 0.0
Cd60 Cd 0.09377 0.81864 0.11509 0.0
C61 C 0.0849 0.75884 0.09997 0.0
O62 O 0.11792 0.82286 0.15165 0.0
O63 O 0.13467 0.82149 0.12161 0.0
O64 O 0.08897 0.85912 0.11379 0.0
C65 C 0.13557 0.822 0.14346 0.0
O66 O 0.08858 0.75954 0.12186 0.0
C67 C 0.08729 0.8572 0.09171 0.0
O68 O 0.08552 0.77781 0.09186 0.0
O69 O 0.08979 0.8378 0.08028 0.0
C70 C 0.47261 0.77207 0.37476 0.0
O71 O 0.48685 0.78312 0.36406 0.0
Cd72 Cd 0.5252 0.79667 0.37524 0.0
O73 O 0.47833 0.76443 0.39307 0.0
Cd74 Cd 0.51591 0.76462 0.4148 0.0
C75 C 0.52431 0.82322 0.43225 0.0
O76 O 0.53965 0.76543 0.38383 0.0
O77 O 0.55572 0.78097 0.41863 0.0
O78 O 0.50784 0.72187 0.41848 0.0
C79 C 0.5574 0.77516 0.39721 0.0
O80 O 0.52979 0.82436 0.41204 0.0
C81 C 0.51647 0.72589 0.43969 0.0
O82 O 0.51601 0.8034 0.43788 0.0
O83 O 0.52316 0.74762 0.44969 0.0
C84 C 0.54785 0.29377 0.64558 0.0
O85 O 0.55993 0.28328 0.65617 0.0
Cd86 Cd 0.59664 0.28223 0.65329 0.0
O87 O 0.55539 0.30701 0.63146 0.0
Cd88 Cd 0.59111 0.31882 0.61465 0.0
C89 C 0.58744 0.26024 0.59378 0.0
O90 O 0.61616 0.31995 0.6496 0.0
O91 O 0.632 0.32166 0.61902 0.0
O92 O 0.59137 0.36125 0.61336 0.0
C93 C 0.63355 0.32036 0.64052 0.0
O94 O 0.59294 0.2587 0.61481 0.0
C95 C 0.58546 0.35782 0.59146 0.0
O96 O 0.58395 0.27937 0.58845 0.0
O97 O 0.58295 0.33674 0.58021 0.0
C98 C 0.97015 0.27038 0.87465 0.0
O99 O 0.98436 0.27941 0.86274 0.0
Cd100 Cd 0.02265 0.29271 0.87424 0.0
O101 O 0.97603 0.26431 0.89392 0.0
Cd102 Cd 0.01396 0.26376 0.91602 0.0
C103 C 0.02234 0.32278 0.9306 0.0
O104 O 0.03719 0.26189 0.88429 0.0
O105 O 0.05392 0.2787 0.91857 0.0
O106 O 0.00452 0.22168 0.9227 0.0
C107 C 0.05522 0.27147 0.89729 0.0
O108 O 0.02652 0.32228 0.90969 0.0
C109 C 0.01441 0.22661 0.94348 0.0
O110 O 0.01539 0.30356 0.93795 0.0
O111 O 0.02244 0.24855 0.95196 0.0
C112 C 0.46256 0.02369 0.33092 0.0
O113 O 0.47318 0.01357 0.31681 0.0
Cd114 Cd 0.47136 0.00755 0.27569 0.0
O115 O 0.44901 0.03498 0.32477 0.0
Cd116 Cd 0.43324 0.04074 0.28966 0.0
C117 C 0.4198 0.98002 0.2729 0.0
O118 O 0.4628 0.04321 0.26892 0.0
O119 O 0.43285 0.04493 0.24968 0.0
O120 O 0.4271 0.07841 0.30244 0.0
C121 C 0.45211 0.0425 0.2494 0.0
O122 O 0.438 0.97696 0.26746 0.0
C123 C 0.40662 0.07087 0.29606 0.0
O124 O 0.41707 1.00038 0.28088 0.0
O125 O 0.39856 0.04853 0.29021 0.0
C126 C 0.31454 0.15727 0.50919 0.0
O127 O 0.29831 0.14208 0.51308 0.0
Cd128 Cd 0.26337 0.1489 0.51582 0.0
O129 O 0.3118 0.1761 0.50233 0.0
Cd130 Cd 0.27868 0.19203 0.49076 0.0
C131 C 0.28113 0.20732 0.54772 0.0
O132 O 0.24746 0.1561 0.48073 0.0
O133 O 0.23995 0.18791 0.49779 0.0
O134 O 0.29194 0.19666 0.45275 0.0
C135 C 0.23298 0.16625 0.48777 0.0
O136 O 0.27155 0.18534 0.54521 0.0
C137 C 0.28677 0.21609 0.45152 0.0
O138 O 0.28803 0.21606 0.5305 0.0
O139 O 0.27811 0.22477 0.46853 0.0
C140 C 0.13575 0.02589 0.81836 0.0
O141 O 0.12899 0.03999 0.80687 0.0
Cd142 Cd 0.13641 0.04729 0.76815 0.0
O143 O 0.14889 0.01391 0.809 0.0
Cd144 Cd 0.16909 0.01089 0.76669 0.0
C145 C 0.19 0.07733 0.77098 0.0
O146 O 0.13368 0.01107 0.74011 0.0
O147 O 0.16053 0.00866 0.72167 0.0
O148 O 0.17256 0.96558 0.76579 0.0
C149 C 0.14097 0.01049 0.72055 0.0
O150 O 0.17009 0.07804 0.77018 0.0
C151 C 0.19257 0.96767 0.76307 0.0
O152 O 0.19487 0.05693 0.77082 0.0
O153 O 0.20212 0.98909 0.76233 0.0
C154 C 0.35129 0.96469 0.01348 0.0
O155 O 0.33982 0.97958 0.01424 0.0
Cd156 Cd 0.31903 0.96746 0.9765 0.0
O157 O 0.34432 0.94509 0.99935 0.0
Cd158 Cd 0.30514 0.93079 0.99371 0.0
C159 C 0.3208 0.91348 0.94664 0.0
O160 O 0.28633 0.96237 0.99212 0.0
O161 O 0.2672 0.92579 0.98975 0.0
O162 O 0.31456 0.93623 0.0347 0.0
C163 C 0.26882 0.94805 0.99445 0.0
O164 O 0.32858 0.9358 0.94898 0.0
C165 C 0.31024 0.91401 0.03443 0.0
O166 O 0.30787 0.90544 0.96015 0.0
O167 O 0.30128 0.8999 0.01536 0.0
C168 C 0.36045 0.43234 0.02661 0.0
O169 O 0.34704 0.44121 0.01583 0.0
Cd170 Cd 0.3085 0.42878 0.00758 0.0
O171 O 0.35337 0.41447 0.03621 0.0
Cd172 Cd 0.31421 0.38981 0.03905 0.0
C173 C 0.30523 0.3707 0.98077 0.0
O174 O 0.29344 0.42056 0.04115 0.0
O175 O 0.27472 0.38492 0.02725 0.0
O176 O 0.32239 0.38852 0.08126 0.0
C177 C 0.27488 0.40667 0.03336 0.0
O178 O 0.30183 0.39121 0.98059 0.0
C179 C 0.31216 0.36695 0.07968 0.0
O180 O 0.31241 0.36525 0.99972 0.0
O181 O 0.3041 0.35551 0.05921 0.0
C182 C 0.81354 0.11285 0.02713 0.0
O183 O 0.79932 0.09836 0.03502 0.0
Cd184 Cd 0.76445 0.10683 0.0404 0.0
O185 O 0.81036 0.13239 0.02329 0.0
Cd186 Cd 0.78798 0.15838 0.0227 0.0
C187 C 0.77889 0.16129 0.07776 0.0
O188 O 0.75893 0.12567 0.00846 0.0
O189 O 0.75065 0.15955 0.0135 0.0
O190 O 0.80146 0.16493 0.98748 0.0
C191 C 0.74436 0.13709 0.00819 0.0
O192 O 0.76834 0.13952 0.07334 0.0
C193 C 0.79907 0.18602 0.99069 0.0
O194 O 0.78917 0.17131 0.06308 0.0
O195 O 0.79751 0.19572 0.01136 0.0
C196 C 0.1394 0.55319 0.27446 0.0
O197 O 0.12163 0.54763 0.26066 0.0
Cd198 Cd 0.12538 0.55739 0.22254 0.0
O199 O 0.15749 0.55601 0.26673 0.0
Cd200 Cd 0.1752 0.55181 0.23335 0.0
C201 C 0.16722 0.60486 0.24899 0.0
O202 O 0.14923 0.53837 0.20182 0.0
O203 O 0.17994 0.56137 0.19624 0.0
O204 O 0.175 0.51497 0.24004 0.0
C205 C 0.16066 0.54914 0.18832 0.0
O206 O 0.14832 0.59739 0.23707 0.0
C207 C 0.19566 0.51908 0.24331 0.0
O208 O 0.17998 0.59138 0.25137 0.0
O209 O 0.20731 0.53896 0.24054 0.0
C210 C 0.86341 0.92882 0.52785 0.0
O211 O 0.85164 0.93811 0.51538 0.0
Cd212 Cd 0.81258 0.92931 0.50765 0.0
O213 O 0.85465 0.91257 0.53859 0.0
Cd214 Cd 0.81484 0.89042 0.53957 0.0
C215 C 0.80762 0.87187 0.48101 0.0
O216 O 0.79478 0.92187 0.54029 0.0
O217 O 0.7761 0.88601 0.52637 0.0
O218 O 0.82115 0.88897 0.58171 0.0
C219 C 0.77627 0.90778 0.53228 0.0
O220 O 0.80365 0.89197 0.48001 0.0
C221 C 0.81134 0.8672 0.5797 0.0
O222 O 0.81484 0.86704 0.50026 0.0
O223 O 0.80409 0.85577 0.55903 0.0
C224 C 0.96761 0.06124 0.30661 0.0
O225 O 0.97541 0.04725 0.2928 0.0
Cd226 Cd 0.96336 0.03386 0.25111 0.0
O227 O 0.9528 0.07077 0.29812 0.0
Cd228 Cd 0.9308 0.0696 0.25458 0.0
C229 C 0.91085 1.00344 0.25262 0.0
O230 O 0.96471 0.06756 0.23144 0.0
O231 O 0.93552 0.06425 0.20923 0.0
O232 O 0.92769 0.11546 0.26114 0.0
C233 C 0.95583 0.06517 0.21047 0.0
O234 O 0.92976 1.00199 0.2481 0.0
C235 C 0.90703 0.11264 0.25925 0.0
O236 O 0.90665 0.02432 0.25626 0.0
O237 O 0.897 0.09063 0.25551 0.0
C238 C 0.31684 0.61441 0.53036 0.0
O239 O 0.30115 0.5983 0.53391 0.0
Cd240 Cd 0.26856 0.60594 0.54706 0.0
O241 O 0.31549 0.6357 0.53185 0.0
Cd242 Cd 0.28521 0.64983 0.52159 0.0
C243 C 0.28211 0.66436 0.57729 0.0
O244 O 0.25554 0.61524 0.51175 0.0
O245 O 0.24845 0.64966 0.52176 0.0
O246 O 0.29057 0.65122 0.48215 0.0
C247 C 0.24161 0.62743 0.51434 0.0
O248 O 0.27417 0.64234 0.57708 0.0
C249 C 0.29064 0.6731 0.4847 0.0
O250 O 0.28874 0.67145 0.55934 0.0
O251 O 0.29152 0.68457 0.50528 0.0
C252 C 0.46791 0.5613 0.80397 0.0
O253 O 0.47819 0.55136 0.78942 0.0
Cd254 Cd 0.46175 0.53827 0.74944 0.0
O255 O 0.45078 0.56776 0.79603 0.0
Cd256 Cd 0.42884 0.56812 0.75211 0.0
C257 C 0.41016 0.50365 0.75174 0.0
O258 O 0.46267 0.57113 0.72822 0.0
O259 O 0.43253 0.55642 0.70651 0.0
O260 O 0.426 0.61417 0.76007 0.0
C261 C 0.45309 0.56399 0.70732 0.0
O262 O 0.43001 0.50431 0.74935 0.0
C263 C 0.40538 0.6116 0.75685 0.0
O264 O 0.40409 0.52341 0.75309 0.0
O265 O 0.3952 0.58962 0.75159 0.0
C266 C 0.63966 0.05121 0.77294 0.0
O267 O 0.62198 0.04805 0.75949 0.0
Cd268 Cd 0.62576 0.05591 0.72128 0.0
O269 O 0.65756 0.05192 0.76496 0.0
Cd270 Cd 0.67552 0.04703 0.7313 0.0
C271 C 0.67053 0.1014 0.74503 0.0
O272 O 0.64708 0.03162 0.70355 0.0
O273 O 0.67508 0.05336 0.69193 0.0
O274 O 0.6815 0.01249 0.73982 0.0
C275 C 0.65542 0.04106 0.68754 0.0
O276 O 0.65124 0.09545 0.73397 0.0
C277 C 0.7021 0.01984 0.74197 0.0
O278 O 0.68199 0.08662 0.74697 0.0
O279 O 0.71068 0.04013 0.73751 0.0
C280 C 0.81886 0.66281 0.01026 0.0
O281 O 0.80443 0.64733 0.01669 0.0
Cd282 Cd 0.76704 0.64646 0.01765 0.0
O283 O 0.81374 0.67925 1.00075 0.0
Cd284 Cd 0.77901 0.6922 0.98925 0.0
C285 C 0.78042 0.70555 0.04784 0.0
O286 O 0.7518 0.65383 0.98249 0.0
O287 O 0.73861 0.68444 0.98856 0.0
O288 O 0.79213 0.69676 0.95126 0.0
C289 C 0.73508 0.66193 0.98484 0.0
O290 O 0.77342 0.68311 0.04582 0.0
C291 C 0.78716 0.71635 0.95022 0.0
O292 O 0.78486 0.71485 0.03007 0.0
O293 O 0.77865 0.72507 0.96736 0.0
C294 C 0.96967 0.53404 0.82397 0.0
O295 O 0.98066 0.52763 0.8081 0.0
Cd296 Cd 0.97072 0.51871 0.76659 0.0
O297 O 0.95156 0.53884 0.8193 0.0
Cd298 Cd 0.92836 0.53886 0.78614 0.0
C299 C 0.92627 0.48013 0.77582 0.0
O300 O 0.95077 0.54618 0.75777 0.0
O301 O 0.91668 0.52986 0.74519 0.0
O302 O 0.92154 0.57598 0.79943 0.0
C303 C 0.93595 0.53651 0.74064 0.0
O304 O 0.94318 0.48216 0.76548 0.0
C305 C 0.90105 0.56748 0.79429 0.0
O306 O 0.91964 0.49799 0.78478 0.0
O307 O 0.89365 0.54497 0.79054 0.0
C308 C 0.85882 0.46872 0.50196 0.0
O309 O 0.8511 0.48678 0.50315 0.0
Cd310 Cd 0.81924 0.47365 0.47445 0.0
O311 O 0.84796 0.44922 0.48956 0.0
Cd312 Cd 0.81264 0.43616 0.49984 0.0
C313 C 0.81578 0.41479 0.44813 0.0
O314 O 0.79415 0.46764 0.50123 0.0
O315 O 0.77476 0.43085 0.49041 0.0
O316 O 0.82982 0.44476 0.53928 0.0
C317 C 0.77571 0.45281 0.49697 0.0
O318 O 0.81802 0.43653 0.44639 0.0
C319 C 0.82189 0.42397 0.54275 0.0
O320 O 0.81301 0.4081 0.46729 0.0
O321 O 0.80882 0.40915 0.52635 0.0
C322 C 0.63357 0.52324 0.31696 0.0
O323 O 0.62467 0.53512 0.30452 0.0
Cd324 Cd 0.63718 0.54302 0.26775 0.0
O325 O 0.64902 0.5142 0.3088 0.0
Cd326 Cd 0.67048 0.51202 0.26747 0.0
C327 C 0.68978 0.57738 0.27176 0.0
O328 O 0.63551 0.50819 0.23782 0.0
O329 O 0.66565 0.5183 0.22462 0.0
O330 O 0.67673 0.46813 0.25183 0.0
C331 C 0.64495 0.51304 0.2203 0.0
O332 O 0.66953 0.57672 0.27082 0.0
C333 C 0.69464 0.46914 0.26416 0.0
O334 O 0.69572 0.55762 0.27161 0.0
O335 O 0.70181 0.48926 0.27798 0.0
Ho336 Ho 0.02876 0.0292 0.00325 0.0
Ho337 Ho 0.07113 0.05367 0.03136 0.0
C338 C 0.0457 0.08649 0.00817 0.0
C339 C 0.98738 0.01603 0.98969 0.0
C340 C 0.97108 0.03008 0.98845 0.0
C341 C 0.96749 0.04471 0.00846 0.0
C342 C 0.95286 0.0589 0.00662 0.0
C343 C 0.94182 0.05906 0.9847 0.0
C344 C 0.94604 0.04502 0.96463 0.0
C345 C 0.96038 0.03049 0.96654 0.0
C346 C 0.05846 0.02749 0.9712 0.0
C347 C 0.05446 0.99618 0.02538 0.0
C348 C 0.11226 0.06694 0.04622 0.0
C349 C 0.12867 0.05314 0.04582 0.0
C350 C 0.12625 0.03306 0.02816 0.0
C351 C 0.14096 0.01886 0.02888 0.0
C352 C 0.15818 0.02453 0.0473 0.0
C353 C 0.16001 0.04392 0.0655 0.0
C354 C 0.14529 0.0582 0.06474 0.0
C355 C 0.0413 0.05555 0.06322 0.0
O356 O 0.02916 0.06754 1.00239 0.0
O357 O 0.06464 0.08567 0.01869 0.0
O358 O 0.0018 0.01976 0.97549 0.0
O359 O 0.99606 0.0148 0.01044 0.0
O360 O 0.03785 0.01752 0.96758 0.0
O361 O 0.06307 0.03704 0.99318 0.0
O362 O 0.07118 0.01501 0.02995 0.0
O363 O 0.03512 0.99741 0.01635 0.0
O364 O 0.09749 0.06049 0.05938 0.0
O365 O 0.10397 0.07022 0.02608 0.0
O366 O 0.06186 0.06563 0.06695 0.0
O367 O 0.03691 0.04599 0.04128 0.0
H368 H 0.97586 0.04515 0.02556 0.0
H369 H 0.94972 0.06914 0.02253 0.0
H370 H 0.93808 0.04502 0.94748 0.0
H371 H 0.96329 0.0197 0.95083 0.0
H372 H 0.11303 0.02838 0.01383 0.0
H373 H 0.13927 1.0038 0.01476 0.0
H374 H 0.1733 0.04855 0.07975 0.0
H375 H 0.14687 0.0732 0.07887 0.0
Ho376 Ho 0.31127 0.7882 0.2465 0.0
Ho377 Ho 0.29021 0.79362 0.28623 0.0
C378 C 0.30805 0.83911 0.27018 0.0
C379 C 0.33442 0.79085 0.21239 0.0
C380 C 0.34047 0.80814 0.19758 0.0
C381 C 0.33459 0.82974 0.20229 0.0
C382 C 0.33812 0.84549 0.18717 0.0
C383 C 0.34748 0.83979 0.16694 0.0
C384 C 0.35503 0.81896 0.1631 0.0
C385 C 0.3515 0.80311 0.17848 0.0
C386 C 0.33449 0.78353 0.28597 0.0
C387 C 0.28549 0.74187 0.25723 0.0
C388 C 0.27706 0.79301 0.3264 0.0
C389 C 0.26424 0.77488 0.33706 0.0
C390 C 0.26937 0.75287 0.33665 0.0
C391 C 0.25777 0.73651 0.34826 0.0
C392 C 0.24089 0.74193 0.36037 0.0
C393 C 0.23478 0.76323 0.35929 0.0
C394 C 0.24649 0.77968 0.34774 0.0
C395 C 0.26343 0.79782 0.24878 0.0
O396 O 0.30624 0.82497 0.24986 0.0
O397 O 0.30767 0.83047 0.28924 0.0
O398 O 0.34231 0.79858 0.23431 0.0
O399 O 0.31379 0.77981 0.20956 0.0
O400 O 0.33009 0.76811 0.26669 0.0
O401 O 0.3252 0.80009 0.28406 0.0
O402 O 0.288 0.75474 0.27829 0.0
O403 O 0.2908 0.75164 0.23945 0.0
O404 O 0.26638 0.79881 0.30916 0.0
O405 O 0.29637 0.79069 0.32228 0.0
O406 O 0.2658 0.8098 0.26981 0.0
O407 O 0.27523 0.78279 0.24807 0.0
H408 H 0.32649 0.83394 0.21717 0.0
H409 H 0.33227 0.86146 0.19047 0.0
H410 H 0.3623 0.81423 0.14756 0.0
H411 H 0.35653 0.78659 0.17497 0.0
H412 H 0.28286 0.74866 0.32822 0.0
H413 H 0.26321 0.72047 0.3493 0.0
H414 H 0.22193 0.76777 0.36865 0.0
H415 H 0.24221 0.79652 0.34782 0.0
Ho416 Ho 0.57434 0.04164 0.51405 0.0
Ho417 Ho 0.52421 0.03904 0.52056 0.0
C418 C 0.53847 0.99102 0.5084 0.0
C419 C 0.61288 0.03488 0.51022 0.0
C420 C 0.62446 0.01543 0.50818 0.0
C421 C 0.63097 1.00661 0.52777 0.0
C422 C 0.64412 0.99043 0.52611 0.0
C423 C 0.65086 0.98217 0.50466 0.0
C424 C 0.64346 0.99021 0.48478 0.0
C425 C 0.63063 1.00677 0.48658 0.0
C426 C 0.54763 0.04538 0.47865 0.0
C427 C 0.56025 0.09024 0.52615 0.0
C428 C 0.48526 0.04548 0.51888 0.0
C429 C 0.47493 0.06557 0.5248 0.0
C430 C 0.47939 0.08554 0.51414 0.0
C431 C 0.46719 0.10261 0.51738 0.0
C432 C 0.45041 0.10022 0.53154 0.0
C433 C 0.44718 0.08124 0.54367 0.0
C434 C 0.45925 0.06404 0.54023 0.0
C435 C 0.55032 0.03696 0.55752 0.0
O436 O 0.55893 1.00329 0.5157 0.0
O437 O 0.52216 1.0012 0.50506 0.0
O438 O 0.59855 0.03409 0.49242 0.0
O439 O 0.60665 0.04217 0.53032 0.0
O440 O 0.56806 0.05632 0.48186 0.0
O441 O 0.54307 0.0317 0.49251 0.0
O442 O 0.53959 0.07798 0.52287 0.0
O443 O 0.57713 0.08045 0.52637 0.0
O444 O 0.49466 0.03854 0.53639 0.0
O445 O 0.49628 0.04538 0.50105 0.0
O446 O 0.52956 0.0272 0.5545 0.0
O447 O 0.5555 0.04928 0.54251 0.0
H448 H 0.6264 0.01262 0.54458 0.0
H449 H 0.64964 0.98518 0.542 0.0
H450 H 0.64778 0.98401 0.46782 0.0
H451 H 0.62589 0.01319 0.47107 0.0
H452 H 0.4918 0.08761 0.50267 0.0
H453 H 0.47036 0.11725 0.50813 0.0
H454 H 0.43439 0.07882 0.55468 0.0
H455 H 0.45567 0.04898 0.54889 0.0
Ho456 Ho 0.27706 0.29839 0.7643 0.0
Ho457 Ho 0.32381 0.28475 0.76768 0.0
C458 C 0.30539 0.3012 0.81456 0.0
C459 C 0.23689 0.29957 0.7682 0.0
C460 C 0.22213 0.30036 0.78643 0.0
C461 C 0.22098 0.28556 0.80303 0.0
C462 C 0.20584 0.28591 0.81904 0.0
C463 C 0.19147 0.30103 0.81882 0.0
C464 C 0.19344 0.31656 0.80284 0.0
C465 C 0.20856 0.31621 0.7869 0.0
C466 C 0.31122 0.33783 0.76334 0.0
C467 C 0.29465 0.27863 0.71712 0.0
C468 C 0.36409 0.28654 0.76237 0.0
C469 C 0.37658 0.28217 0.74252 0.0
C470 C 0.38004 0.29786 0.72674 0.0
C471 C 0.39435 0.29539 0.71021 0.0
C472 C 0.40532 0.27714 0.70902 0.0
C473 C 0.40096 0.26063 0.72377 0.0
C474 C 0.3867 0.26311 0.74036 0.0
C475 C 0.29047 0.24492 0.76873 0.0
O476 O 0.28613 0.29853 0.80227 0.0
O477 O 0.32335 0.29981 0.8052 0.0
O478 O 0.25276 0.31851 0.76993 0.0
O479 O 0.24292 0.27985 0.76165 0.0
O480 O 0.29073 0.33768 0.76211 0.0
O481 O 0.31169 0.31655 0.76497 0.0
O482 O 0.31315 0.27865 0.72943 0.0
O483 O 0.27785 0.28462 0.72628 0.0
O484 O 0.35094 0.26802 0.76737 0.0
O485 O 0.35583 0.30514 0.76421 0.0
O486 O 0.31123 0.24608 0.77111 0.0
O487 O 0.28901 0.26596 0.76672 0.0
H488 H 0.23152 0.27347 0.80342 0.0
H489 H 0.20522 0.27407 0.8314 0.0
H490 H 0.1827 0.32837 0.80192 0.0
H491 H 0.20927 0.328 0.77446 0.0
H492 H 0.37247 0.31269 0.72778 0.0
H493 H 0.39774 0.3085 0.69919 0.0
H494 H 0.4095 0.2466 0.72333 0.0
H495 H 0.38435 0.25072 0.75221 0.0
Ho496 Ho 0.04873 0.06686 0.52769 0.0
Ho497 Ho 0.05645 0.01547 0.50488 0.0
C498 C 0.03471 0.04509 0.47015 0.0
C499 C 0.05161 0.11165 0.53525 0.0
C500 C 0.04793 0.12646 0.51814 0.0
C501 C 0.05694 0.12427 0.49711 0.0
C502 C 0.05392 0.13882 0.48129 0.0
C503 C 0.0414 0.15545 0.48597 0.0
C504 C 0.03075 0.15608 0.50596 0.0
C505 C 0.03412 0.14178 0.52202 0.0
C506 C 0.01306 0.03035 0.52702 0.0
C507 C 0.069 0.03683 0.56263 0.0
C508 C 0.05435 0.9708 0.49695 0.0
C509 C 0.05701 0.9555 0.51388 0.0
C510 C 0.04745 0.95772 0.53457 0.0
C511 C 0.04989 0.94306 0.55046 0.0
C512 C 0.06223 0.92628 0.54608 0.0
C513 C 0.07303 0.9251 0.52628 0.0
C514 C 0.07052 0.93976 0.5103 0.0
C515 C 0.0921 0.05205 0.50519 0.0
O516 O 0.0381 0.06318 0.48838 0.0
O517 O 0.03974 0.0245 0.47223 0.0
O518 O 0.03421 0.09617 0.53807 0.0
O519 O 0.06877 0.10285 0.53414 0.0
O520 O 0.01427 0.05255 0.53537 0.0
O521 O 0.03129 0.02956 0.52048 0.0
O522 O 0.06477 0.01837 0.54465 0.0
O523 O 0.06568 0.05802 0.56014 0.0
O524 O 0.07205 0.98681 0.49596 0.0
O525 O 0.03688 0.97917 0.49671 0.0
O526 O 0.09085 0.02984 0.49699 0.0
O527 O 0.07398 0.0528 0.51208 0.0
H528 H 0.06667 0.11168 0.49301 0.0
H529 H 0.06238 0.13793 0.46607 0.0
H530 H 0.02062 0.16842 0.50968 0.0
H531 H 0.02626 0.14299 0.53765 0.0
H532 H 0.03779 0.97046 0.53832 0.0
H533 H 0.04114 0.94387 0.56548 0.0
H534 H 0.08246 0.91202 0.52263 0.0
H535 H 0.07869 0.93843 0.49489 0.0
Ho536 Ho 0.32074 0.81001 0.76352 0.0
Ho537 Ho 0.27976 0.77218 0.76142 0.0
C538 C 0.32402 0.753 0.76424 0.0
C539 C 0.35932 0.83656 0.77604 0.0
C540 C 0.38021 0.83006 0.77958 0.0
C541 C 0.38608 0.82175 0.79982 0.0
C542 C 0.40575 0.81538 0.803 0.0
C543 C 0.41993 0.81742 0.78613 0.0
C544 C 0.4138 0.82483 0.76552 0.0
C545 C 0.39406 0.83114 0.76227 0.0
C546 C 0.30167 0.7873 0.72079 0.0
C547 C 0.27624 0.82873 0.75935 0.0
C548 C 0.24117 0.74567 0.75005 0.0
C549 C 0.22034 0.75237 0.7476 0.0
C550 C 0.21457 0.76274 0.72874 0.0
C551 C 0.19476 0.76892 0.7265 0.0
C552 C 0.18048 0.76467 0.74296 0.0
C553 C 0.18659 0.75547 0.76239 0.0
C554 C 0.20647 0.74939 0.76473 0.0
C555 C 0.29941 0.79435 0.80403 0.0
O556 O 0.33404 0.77643 0.76909 0.0
O557 O 0.30243 0.7466 0.75839 0.0
O558 O 0.34971 0.83184 0.75444 0.0
O559 O 0.3458 0.83107 0.79096 0.0
O560 O 0.31158 0.80977 0.72536 0.0
O561 O 0.30405 0.77833 0.73843 0.0
O562 O 0.26635 0.80531 0.7549 0.0
O563 O 0.29782 0.83537 0.76535 0.0
O564 O 0.25139 0.75026 0.77138 0.0
O565 O 0.25411 0.75114 0.73459 0.0
O566 O 0.28954 0.77191 0.79933 0.0
O567 O 0.29659 0.80375 0.78675 0.0
H568 H 0.3757 0.82052 0.81344 0.0
H569 H 0.41039 0.81007 0.8192 0.0
H570 H 0.42462 0.82651 0.75233 0.0
H571 H 0.3898 0.83719 0.74639 0.0
H572 H 0.22505 0.76561 0.7154 0.0
H573 H 0.19003 0.77565 0.71119 0.0
H574 H 0.17554 0.75202 0.77512 0.0
H575 H 0.21077 0.74186 0.77963 0.0
Ho576 Ho 0.54997 0.03966 0.03702 0.0
Ho577 Ho 0.54457 0.04264 0.98601 0.0
C578 C 0.50333 0.02978 0.00901 0.0
C579 C 0.54389 0.03236 0.07789 0.0
C580 C 0.5278 0.01248 0.08335 0.0
C581 C 0.50537 0.01003 0.07726 0.0
C582 C 0.49019 0.99344 0.08549 0.0
C583 C 0.49754 0.98073 0.10144 0.0
C584 C 0.5193 0.97916 0.10304 0.0
C585 C 0.53459 0.99556 0.09453 0.0
C586 C 0.55179 1.00031 0.00695 0.0
C587 C 0.59217 0.05725 0.01738 0.0
C588 C 0.54803 0.04085 0.94273 0.0
C589 C 0.5648 0.05571 0.9324 0.0
C590 C 0.57921 0.04487 0.92075 0.0
C591 C 0.59734 0.05866 0.91394 0.0
C592 C 0.60132 0.08365 0.9183 0.0
C593 C 0.58662 0.09463 0.92943 0.0
C594 C 0.56855 0.08073 0.93672 0.0
C595 C 0.54365 0.08316 0.01429 0.0
O596 O 0.51608 0.04187 0.02803 0.0
O597 O 0.51137 0.0232 0.98982 0.0
O598 O 0.55984 0.02661 0.06772 0.0
O599 O 0.53598 0.04787 0.06861 0.0
O600 O 0.56338 0.00815 0.02707 0.0
O601 O 0.53872 0.01301 0.00419 0.0
O602 O 0.58045 0.04759 0.99672 0.0
O603 O 0.58305 0.06083 0.03652 0.0
O604 O 0.53457 0.05152 0.9531 0.0
O605 O 0.5552 0.02665 0.95478 0.0
O606 O 0.53272 0.07575 0.99365 0.0
O607 O 0.55573 0.06969 0.0185 0.0
H608 H 0.49959 0.02225 0.06795 0.0
H609 H 0.47332 0.99447 0.08358 0.0
H610 H 0.52512 0.96875 0.1147 0.0
H611 H 0.55175 0.99625 0.09835 0.0
H612 H 0.57674 0.02568 0.91743 0.0
H613 H 0.60799 0.04958 0.90471 0.0
H614 H 0.58912 0.1138 0.93245 0.0
H615 H 0.55777 0.0896 0.94599 0.0
Ho616 Ho 0.30634 0.31655 0.27261 0.0
Ho617 Ho 0.28812 0.26132 0.25399 0.0
C618 C 0.25503 0.2936 0.26709 0.0
C619 C 0.31759 0.36193 0.27754 0.0
C620 C 0.30353 0.37855 0.27947 0.0
C621 C 0.28977 0.37985 0.25986 0.0
C622 C 0.27387 0.39243 0.26249 0.0
C623 C 0.27132 0.40377 0.28478 0.0
C624 C 0.28532 0.40289 0.30435 0.0
C625 C 0.30146 0.39056 0.30168 0.0
C626 C 0.30612 0.29251 0.30899 0.0
C627 C 0.33851 0.28446 0.26073 0.0
C628 C 0.27623 0.21579 0.24616 0.0
C629 C 0.29083 0.19955 0.2445 0.0
C630 C 0.30668 0.20103 0.26342 0.0
C631 C 0.32223 0.18792 0.26103 0.0
C632 C 0.32252 0.17317 0.23961 0.0
C633 C 0.30671 0.17164 0.22064 0.0
C634 C 0.29096 0.18473 0.22309 0.0
C635 C 0.29613 0.28844 0.22107 0.0
O636 O 0.27081 0.3132 0.26978 0.0
O637 O 0.25779 0.27177 0.26235 0.0
O638 O 0.31835 0.35087 0.29502 0.0
O639 O 0.31568 0.34774 0.25726 0.0
O640 O 0.3124 0.31534 0.3112 0.0
O641 O 0.30073 0.28432 0.28747 0.0
O642 O 0.32363 0.26605 0.26401 0.0
O643 O 0.33455 0.30532 0.26003 0.0
O644 O 0.27598 0.22793 0.22941 0.0
O645 O 0.27704 0.22887 0.26679 0.0
O646 O 0.29953 0.26739 0.21986 0.0
O647 O 0.288 0.29386 0.23952 0.0
H648 H 0.29092 0.37077 0.24253 0.0
H649 H 0.26376 0.39348 0.24697 0.0
H650 H 0.2837 0.41155 0.32169 0.0
H651 H 0.31182 0.38969 0.31711 0.0
H652 H 0.30736 0.21257 0.28008 0.0
H653 H 0.33383 0.18908 0.27619 0.0
H654 H 0.30662 0.16049 0.20392 0.0
H655 H 0.27918 0.18368 0.20813 0.0
Ho656 Ho 0.54995 0.56172 0.02482 0.0
Ho657 Ho 0.55676 0.51689 0.00334 0.0
C658 C 0.53529 0.54321 0.96726 0.0
C659 C 0.5492 0.60589 0.03219 0.0
C660 C 0.54681 0.62164 0.01561 0.0
C661 C 0.5581 0.62134 0.99606 0.0
C662 C 0.55625 0.63692 0.98088 0.0
C663 C 0.54305 0.65296 0.98498 0.0
C664 C 0.53081 0.65223 0.00372 0.0
C665 C 0.5327 0.63668 0.01894 0.0
C666 C 0.51705 0.5248 0.02891 0.0
C667 C 0.57025 0.53496 0.06109 0.0
C668 C 0.55913 0.4732 0.99606 0.0
C669 C 0.55972 0.45771 0.01322 0.0
C670 C 0.54861 0.46066 0.0327 0.0
C671 C 0.5485 0.44568 0.04872 0.0
C672 C 0.55926 0.42726 0.04541 0.0
C673 C 0.57159 0.42526 0.02681 0.0
C674 C 0.57183 0.44047 0.01078 0.0
C675 C 0.58927 0.55412 0.99949 0.0
O676 O 0.53987 0.56099 0.9857 0.0
O677 O 0.5393 0.5225 0.96973 0.0
O678 O 0.53204 0.58876 0.03207 0.0
O679 O 0.56727 0.59879 0.03319 0.0
O680 O 0.5253 0.54351 0.04513 0.0
O681 O 0.52637 0.52686 0.01087 0.0
O682 O 0.56546 0.51722 0.04263 0.0
O683 O 0.56694 0.55592 0.05855 0.0
O684 O 0.57619 0.49101 0.99847 0.0
O685 O 0.54084 0.4795 0.99241 0.0
O686 O 0.58078 0.5359 0.98284 0.0
O687 O 0.58024 0.55153 0.01758 0.0
H688 H 0.56876 0.60951 0.99279 0.0
H689 H 0.56601 0.63726 0.96668 0.0
H690 H 0.52034 0.66428 0.00705 0.0
H691 H 0.52347 0.63673 0.03358 0.0
H692 H 0.53945 0.47413 0.03523 0.0
H693 H 0.5391 0.44773 0.06311 0.0
H694 H 0.57997 0.41113 0.02393 0.0
H695 H 0.5809 0.43832 0.99614 0.0
Ho696 Ho 0.82136 0.30847 0.26057 0.0
Ho697 Ho 0.7799 0.2725 0.2627 0.0
C698 C 0.82382 0.25235 0.2649 0.0
C699 C 0.86084 0.33341 0.26683 0.0
C700 C 0.88091 0.32651 0.27369 0.0
C701 C 0.88331 0.31705 0.29402 0.0
C702 C 0.90235 0.31045 0.30035 0.0
C703 C 0.91901 0.31287 0.2863 0.0
C704 C 0.91629 0.32112 0.2654 0.0
C705 C 0.89728 0.32796 0.25913 0.0
C706 C 0.79956 0.2837 0.21962 0.0
C707 C 0.77768 0.32929 0.25922 0.0
C708 C 0.74083 0.24621 0.25206 0.0
C709 C 0.7195 0.25171 0.24885 0.0
C710 C 0.7091 0.24885 0.22602 0.0
C711 C 0.68983 0.25573 0.22212 0.0
C712 C 0.68042 0.26532 0.241 0.0
C713 C 0.6906 0.26797 0.2639 0.0
C714 C 0.71013 0.2613 0.26783 0.0
C715 C 0.80184 0.29446 0.30439 0.0
O716 O 0.83416 0.27563 0.26904 0.0
O717 O 0.80213 0.24629 0.25953 0.0
O718 O 0.85057 0.3226 0.24618 0.0
O719 O 0.84775 0.33484 0.28266 0.0
O720 O 0.80934 0.30609 0.22248 0.0
O721 O 0.80275 0.27613 0.23797 0.0
O722 O 0.76715 0.30645 0.25831 0.0
O723 O 0.79944 0.33489 0.26116 0.0
O724 O 0.75133 0.25115 0.2733 0.0
O725 O 0.75336 0.25257 0.23663 0.0
O726 O 0.79054 0.27245 0.30002 0.0
O727 O 0.79939 0.30405 0.28694 0.0
H728 H 0.87071 0.31513 0.3053 0.0
H729 H 0.90445 0.30433 0.31667 0.0
H730 H 0.92926 0.32336 0.2546 0.0
H731 H 0.8955 0.33474 0.24315 0.0
H732 H 0.71601 0.24151 0.2111 0.0
H733 H 0.68201 0.25301 0.20431 0.0
H734 H 0.68348 0.27523 0.27867 0.0
H735 H 0.7179 0.26382 0.28562 0.0
Ho736 Ho 0.0528 0.53983 0.53554 0.0
Ho737 Ho 0.04096 0.54157 0.48293 0.0
C738 C 0.00766 0.50731 0.5063 0.0
C739 C 0.04996 0.53514 0.57791 0.0
C740 C 0.03271 0.52033 0.58806 0.0
C741 C 0.01412 0.52819 0.59316 0.0
C742 C 0.9983 0.51467 0.60358 0.0
C743 C 1.0007 0.49295 0.60913 0.0
C744 C 0.01866 0.48441 0.60293 0.0
C745 C 0.03456 0.498 0.59246 0.0
C746 C 0.0712 0.51516 0.50463 0.0
C747 C 0.08495 0.57416 0.51365 0.0
C748 C 0.04028 0.5375 0.43911 0.0
C749 C 0.05711 0.55228 0.42848 0.0
C750 C 0.07309 0.54207 0.41914 0.0
C751 C 0.09179 0.55633 0.4137 0.0
C752 C 0.09486 0.58117 0.41702 0.0
C753 C 0.07873 0.59151 0.42587 0.0
C754 C 0.06007 0.5772 0.43178 0.0
C755 C 0.03399 0.57688 0.51359 0.0
O756 O 0.0225 0.51143 0.52468 0.0
O757 O 0.01044 0.51723 0.48781 0.0
O758 O 0.06083 0.5235 0.56439 0.0
O759 O 0.04518 0.55303 0.56965 0.0
O760 O 0.08149 0.52605 0.52508 0.0
O761 O 0.052 0.51709 0.50228 0.0
O762 O 0.07579 0.56092 0.49312 0.0
O763 O 0.07605 0.57289 0.53292 0.0
O764 O 0.02725 0.5484 0.45029 0.0
O765 O 0.04758 0.52291 0.45063 0.0
O766 O 0.04025 0.57973 0.49359 0.0
O767 O 0.03074 0.55548 0.51568 0.0
H768 H 0.01204 0.54509 0.58973 0.0
H769 H 0.98484 0.522 0.60855 0.0
H770 H 0.02081 0.4677 0.60701 0.0
H771 H 0.04856 0.49129 0.58836 0.0
H772 H 0.07146 0.52304 0.41677 0.0
H773 H 0.1036 0.5477 0.40621 0.0
H774 H 0.08054 0.61056 0.42812 0.0
H775 H 0.04826 0.58572 0.4394 0.0
Ho776 Ho 0.77718 0.79786 0.26439 0.0
Ho777 Ho 0.82379 0.78415 0.2662 0.0
C778 C 0.80781 0.80388 0.31406 0.0
C779 C 0.73671 0.79602 0.26941 0.0
C780 C 0.72345 0.80075 0.28849 0.0
C781 C 0.72206 0.78773 0.30661 0.0
C782 C 0.70726 0.79016 0.3226 0.0
C783 C 0.69336 0.80554 0.32085 0.0
C784 C 0.69574 0.81963 0.3036 0.0
C785 C 0.71057 0.81721 0.2876 0.0
C786 C 0.8104 0.83796 0.26324 0.0
C787 C 0.79446 0.78112 0.21642 0.0
C788 C 0.86335 0.78235 0.26015 0.0
C789 C 0.87664 0.78085 0.24054 0.0
C790 C 0.88609 0.80111 0.23186 0.0
C791 C 0.90024 0.79975 0.21497 0.0
C792 C 0.90526 0.77804 0.2061 0.0
C793 C 0.89496 0.75757 0.21414 0.0
C794 C 0.88106 0.75902 0.23125 0.0
C795 C 0.78996 0.74467 0.26799 0.0
O796 O 0.78861 0.8031 0.30267 0.0
O797 O 0.82454 0.79893 0.30407 0.0
O798 O 0.74983 0.81436 0.2641 0.0
O799 O 0.74532 0.77773 0.26875 0.0
O800 O 0.78968 0.83685 0.2622 0.0
O801 O 0.81196 0.81678 0.26457 0.0
O802 O 0.81368 0.7829 0.22834 0.0
O803 O 0.77702 0.78366 0.22641 0.0
O804 O 0.84762 0.76365 0.25995 0.0
O805 O 0.85779 0.80228 0.26705 0.0
O806 O 0.81062 0.74558 0.27069 0.0
O807 O 0.78926 0.7657 0.26546 0.0
H808 H 0.73191 0.77509 0.30805 0.0
H809 H 0.70629 0.77942 0.33597 0.0
H810 H 0.68533 0.83162 0.30163 0.0
H811 H 0.71135 0.82756 0.2739 0.0
H812 H 0.8831 0.81823 0.2386 0.0
H813 H 0.90794 0.81607 0.20969 0.0
H814 H 0.89784 0.74038 0.20754 0.0
H815 H 0.87407 0.74303 0.23754 0.0
Ho816 Ho 0.80835 0.28758 0.74511 0.0
Ho817 Ho 0.78518 0.29313 0.78312 0.0
C818 C 0.8093 0.33943 0.77189 0.0
C819 C 0.8273 0.2895 0.70814 0.0
C820 C 0.83421 0.30823 0.69501 0.0
C821 C 0.82106 0.32375 0.69115 0.0
C822 C 0.8283 0.34218 0.67954 0.0
C823 C 0.84889 0.34553 0.67186 0.0
C824 C 0.86222 0.33028 0.67618 0.0
C825 C 0.8549 0.31171 0.68774 0.0
C826 C 0.83231 0.28425 0.78486 0.0
C827 C 0.78754 0.24212 0.76062 0.0
C828 C 0.76188 0.28945 0.81676 0.0
C829 C 0.7535 0.27128 0.82989 0.0
C830 C 0.7621 0.25131 0.82958 0.0
C831 C 0.7546 0.23488 0.84337 0.0
C832 C 0.73861 0.23849 0.85759 0.0
C833 C 0.72888 0.25746 0.85644 0.0
C834 C 0.73626 0.27376 0.84251 0.0
C835 C 0.76246 0.29878 0.74365 0.0
O836 O 0.8078 0.32609 0.75115 0.0
O837 O 0.80404 0.33001 0.78988 0.0
O838 O 0.83779 0.29358 0.72911 0.0
O839 O 0.80633 0.28121 0.70746 0.0
O840 O 0.83036 0.2704 0.76481 0.0
O841 O 0.82116 0.29948 0.78335 0.0
O842 O 0.79042 0.25683 0.78058 0.0
O843 O 0.79012 0.2503 0.74143 0.0
O844 O 0.75383 0.28421 0.7948 0.0
O845 O 0.78293 0.29867 0.8202 0.0
O846 O 0.76596 0.31284 0.76373 0.0
O847 O 0.77249 0.28241 0.74473 0.0
H848 H 0.80517 0.32159 0.69698 0.0
H849 H 0.81747 0.35333 0.67591 0.0
H850 H 0.87813 0.33256 0.67038 0.0
H851 H 0.86536 0.30008 0.69104 0.0
H852 H 0.77523 0.24903 0.81962 0.0
H853 H 0.76267 0.22065 0.8446 0.0
H854 H 0.71688 0.26068 0.86774 0.0
H855 H 0.72922 0.2889 0.84242 0.0
Ho856 Ho 0.80591 0.81626 0.77083 0.0
Ho857 Ho 0.78867 0.76079 0.75341 0.0
C858 C 0.75484 0.79177 0.76721 0.0
C859 C 0.81492 0.86132 0.77371 0.0
C860 C 0.80064 0.87715 0.77956 0.0
C861 C 0.78139 0.87512 0.7647 0.0
C862 C 0.76714 0.88898 0.77122 0.0
C863 C 0.77182 0.90498 0.79275 0.0
C864 C 0.79053 0.90621 0.80805 0.0
C865 C 0.80494 0.89253 0.80141 0.0
C866 C 0.80517 0.79347 0.80804 0.0
C867 C 0.83872 0.78454 0.76067 0.0
C868 C 0.77836 0.71535 0.74515 0.0
C869 C 0.79354 0.70006 0.74098 0.0
C870 C 0.81181 0.70265 0.75757 0.0
C871 C 0.82662 0.68886 0.75322 0.0
C872 C 0.82345 0.67235 0.73227 0.0
C873 C 0.80584 0.67036 0.71524 0.0
C874 C 0.791 0.6843 0.71952 0.0
C875 C 0.79683 0.78733 0.7201 0.0
O876 O 0.77028 0.8117 0.76995 0.0
O877 O 0.75801 0.77016 0.76188 0.0
O878 O 0.82088 0.85143 0.79077 0.0
O879 O 0.80932 0.84639 0.75366 0.0
O880 O 0.81138 0.8163 0.80983 0.0
O881 O 0.80005 0.78473 0.7866 0.0
O882 O 0.82395 0.76677 0.76516 0.0
O883 O 0.83454 0.80509 0.7587 0.0
O884 O 0.77546 0.72753 0.72889 0.0
O885 O 0.7808 0.728 0.76627 0.0
O886 O 0.80115 0.76677 0.71959 0.0
O887 O 0.78818 0.79259 0.73814 0.0
H888 H 0.77734 0.86302 0.74794 0.0
H889 H 0.75305 0.88799 0.75884 0.0
H890 H 0.79439 0.91837 0.82477 0.0
H891 H 0.81943 0.89392 0.81337 0.0
H892 H 0.81458 0.71503 0.7741 0.0
H893 H 0.83986 0.69007 0.7668 0.0
H894 H 0.80298 0.65721 0.69923 0.0
H895 H 0.77732 0.68246 0.70629 0.0
Ho896 Ho 0.5278 0.52943 0.50101 0.0
Ho897 Ho 0.57112 0.55374 0.53072 0.0
C898 C 0.54603 0.58665 0.50701 0.0
C899 C 0.48668 0.51673 0.48632 0.0
C900 C 0.4711 0.53149 0.4859 0.0
C901 C 0.47505 0.55307 0.50195 0.0
C902 C 0.46084 0.56777 0.5008 0.0
C903 C 0.44244 0.561 0.4837 0.0
C904 C 0.43912 0.54002 0.46694 0.0
C905 C 0.45345 0.52534 0.46803 0.0
C906 C 0.55915 0.52863 0.47069 0.0
C907 C 0.55345 0.49642 0.52396 0.0
C908 C 0.61221 0.56714 0.54549 0.0
C909 C 0.6291 0.5538 0.54417 0.0
C910 C 0.63277 0.5419 0.52266 0.0
C911 C 0.64694 0.52698 0.52202 0.0
C912 C 0.65727 0.52318 0.54287 0.0
C913 C 0.65345 0.53506 0.56435 0.0
C914 C 0.63969 0.55044 0.56496 0.0
C915 C 0.53976 0.55497 0.56112 0.0
O916 O 0.52898 0.5682 0.50182 0.0
O917 O 0.565 0.58538 0.51709 0.0
O918 O 0.50147 0.5213 0.47267 0.0
O919 O 0.49482 0.51452 0.50694 0.0
O920 O 0.53854 0.51885 0.46553 0.0
O921 O 0.56231 0.53735 0.49278 0.0
O922 O 0.57055 0.51487 0.52849 0.0
O923 O 0.53417 0.49785 0.51478 0.0
O924 O 0.59754 0.55975 0.55848 0.0
O925 O 0.60375 0.57157 0.52597 0.0
O926 O 0.56047 0.56414 0.56617 0.0
O927 O 0.53651 0.54608 0.53904 0.0
H928 H 0.48896 0.55842 0.51552 0.0
H929 H 0.46371 0.58397 0.51382 0.0
H930 H 0.42489 0.5344 0.45376 0.0
H931 H 0.45061 0.50906 0.45514 0.0
H932 H 0.62452 0.54381 0.50633 0.0
H933 H 0.64989 0.51863 0.5051 0.0
H934 H 0.66084 0.53229 0.58073 0.0
H935 H 0.63674 0.55914 0.58175 0.0
Ho936 Ho 0.07317 0.54079 0.01306 0.0
Ho937 Ho 0.02384 0.53917 0.0191 0.0
C938 C 0.03768 0.49022 0.01162 0.0
C939 C 0.11239 0.53495 0.01404 0.0
C940 C 0.1238 0.51557 0.0095 0.0
C941 C 0.11967 0.49581 0.02046 0.0
C942 C 0.13241 0.47919 0.01779 0.0
C943 C 0.1499 0.4821 0.00445 0.0
C944 C 0.15306 0.50124 0.99244 0.0
C945 C 0.14013 0.51764 0.99488 0.0
C946 C 0.04571 0.53746 0.97516 0.0
C947 C 0.05946 0.58987 0.02002 0.0
C948 C 0.98502 0.54593 0.01623 0.0
C949 C 0.9746 0.56595 0.02244 0.0
C950 C 0.97461 0.58312 0.0083 0.0
C951 C 0.96231 0.59998 0.01262 0.0
C952 C 0.94967 0.5999 0.03101 0.0
C953 C 0.95046 0.58359 0.04584 0.0
C954 C 0.96288 0.56684 0.04166 0.0
C955 C 0.05133 0.54419 0.0577 0.0
O956 O 0.05828 0.50285 0.01677 0.0
O957 O 0.02126 0.50026 0.00821 0.0
O958 O 0.10171 0.5395 0.99586 0.0
O959 O 0.10214 0.53631 0.03247 0.0
O960 O 0.06573 0.54984 0.97793 0.0
O961 O 0.04172 0.52697 0.9916 0.0
O962 O 0.03882 0.57725 0.01588 0.0
O963 O 0.07599 0.57987 0.02299 0.0
O964 O 0.99361 0.53803 0.03358 0.0
O965 O 0.99677 0.54656 0.99899 0.0
O966 O 0.03103 0.53271 0.05563 0.0
O967 O 0.05516 0.55327 0.04034 0.0
H968 H 0.10693 0.49347 0.03155 0.0
H969 H 0.12875 0.46433 0.02668 0.0
H970 H 0.16625 0.50442 0.98205 0.0
H971 H 0.14349 0.53257 0.986 0.0
H972 H 0.98339 0.58297 0.99331 0.0
H973 H 0.96163 0.61217 1.00075 0.0
H974 H 0.94068 0.58312 0.06002 0.0
H975 H 0.96253 0.55391 0.05289 0.0
C976 C 0.03954 0.21033 0.96817 0.0
C977 C 0.0187 0.20777 0.95617 0.0
C978 C 0.04487 0.1918 0.97819 0.0
C979 C 0.02875 0.17039 0.97699 0.0
C980 C 0.00735 0.16824 0.96593 0.0
C981 C 0.00272 0.1867 0.95521 0.0
C982 C 0.06804 0.1947 0.98901 0.0
C983 C 0.98937 0.14631 0.9653 0.0
C984 C 0.04443 0.11146 0.97792 0.0
C985 C 0.04303 0.10882 1.00107 0.0
C986 C 0.04049 0.13171 0.97014 0.0
C987 C 0.03451 0.14962 0.98576 0.0
C988 C 0.03338 0.1471 0.00934 0.0
C989 C 0.03783 0.1268 0.01675 0.0
C990 C 0.04236 0.13371 0.94503 0.0
C991 C 0.02718 0.16564 0.02669 0.0
H992 H 0.05204 0.22648 0.96877 0.0
H993 H 0.98656 0.18469 0.94616 0.0
H994 H 0.06843 0.19046 0.00675 0.0
H995 H 0.07546 0.18199 0.97831 0.0
H996 H 0.07824 0.21302 0.99021 0.0
H997 H 0.97361 0.1473 0.95612 0.0
H998 H 0.99386 0.13023 0.95646 0.0
H999 H 0.98711 0.14402 0.98341 0.0
H1000 H 0.04844 0.09749 0.96581 0.0
H1001 H 0.03673 0.12469 0.03467 0.0
H1002 H 0.05345 0.15103 0.94422 0.0
H1003 H 0.02615 0.13317 0.93581 0.0
H1004 H 0.04858 0.11914 0.93556 0.0
H1005 H 0.0403 0.18233 0.03031 0.0
H1006 H 0.02456 0.15978 0.04349 0.0
H1007 H 0.0121 0.16986 0.01939 0.0
C1008 C 0.17584 0.82363 0.15214 0.0
C1009 C 0.15448 0.81701 0.15751 0.0
C1010 C 0.19367 0.81918 0.16558 0.0
C1011 C 0.19014 0.80679 0.1843 0.0
C1012 C 0.16844 0.79938 0.18921 0.0
C1013 C 0.15111 0.80503 0.17621 0.0
C1014 C 0.21642 0.82836 0.16012 0.0
C1015 C 0.16335 0.78594 0.20863 0.0
C1016 C 0.2365 0.78181 0.21061 0.0
C1017 C 0.24519 0.79906 0.231 0.0
C1018 C 0.21856 0.78391 0.19525 0.0
C1019 C 0.20922 0.80378 0.20017 0.0
C1020 C 0.21804 0.82103 0.22072 0.0
C1021 C 0.23562 0.81843 0.23566 0.0
C1022 C 0.20926 0.76465 0.17398 0.0
C1023 C 0.20899 0.84256 0.22702 0.0
H1024 H 0.17871 0.83293 0.1378 0.0
H1025 H 0.13475 0.79969 0.18056 0.0
H1026 H 0.22684 0.83992 0.17594 0.0
H1027 H 0.22379 0.81323 0.15487 0.0
H1028 H 0.21666 0.8387 0.14588 0.0
H1029 H 0.14601 0.77577 0.20598 0.0
H1030 H 0.17385 0.77338 0.21005 0.0
H1031 H 0.16635 0.79876 0.22548 0.0
H1032 H 0.2434 0.76656 0.20686 0.0
H1033 H 0.242 0.83192 0.25129 0.0
H1034 H 0.21041 0.77232 0.15795 0.0
H1035 H 0.1917 0.75704 0.17455 0.0
H1036 H 0.21782 0.75007 0.17268 0.0
H1037 H 0.21031 0.85297 0.21285 0.0
H1038 H 0.21765 0.8544 0.24362 0.0
H1039 H 0.19147 0.83689 0.22884 0.0
C1040 C 0.54662 0.86319 0.45115 0.0
C1041 C 0.52709 0.8457 0.4487 0.0
C1042 C 0.54853 0.88633 0.4633 0.0
C1043 C 0.53028 0.89204 0.47279 0.0
C1044 C 0.51079 0.87413 0.47118 0.0
C1045 C 0.5095 0.85095 0.45931 0.0
C1046 C 0.5697 0.90487 0.465 0.0
C1047 C 0.49089 0.87982 0.48062 0.0
C1048 C 0.5408 0.95103 0.51493 0.0
C1049 C 0.53458 0.96541 0.50018 0.0
C1050 C 0.53871 0.92676 0.50646 0.0
C1051 C 0.53104 0.91715 0.48255 0.0
C1052 C 0.52483 0.9318 0.4676 0.0
C1053 C 0.52636 0.95577 0.47675 0.0
C1054 C 0.54509 0.91152 0.52291 0.0
C1055 C 0.51755 0.92251 0.44177 0.0
H1056 H 0.56019 0.8589 0.44292 0.0
H1057 H 0.49433 0.83738 0.45703 0.0
H1058 H 0.56684 0.91985 0.45688 0.0
H1059 H 0.57634 0.91231 0.4836 0.0
H1060 H 0.58219 0.89751 0.4563 0.0
H1061 H 0.47784 0.86352 0.48015 0.0
H1062 H 0.49526 0.88992 0.49886 0.0
H1063 H 0.48432 0.89126 0.47002 0.0
H1064 H 0.54731 0.95881 0.53303 0.0
H1065 H 0.52206 0.96726 0.46535 0.0
H1066 H 0.55942 0.90523 0.51765 0.0
H1067 H 0.53159 0.89552 0.52196 0.0
H1068 H 0.54919 0.92133 0.5413 0.0
H1069 H 0.53147 0.91826 0.4333 0.0
H1070 H 0.51152 0.93565 0.43304 0.0
H1071 H 0.50447 0.90583 0.4388 0.0
C1072 C 0.51557 0.26965 0.65922 0.0
C1073 C 0.52457 0.28934 0.64946 0.0
C1074 C 0.4944 0.26581 0.66523 0.0
C1075 C 0.4817 0.28205 0.66143 0.0
C1076 C 0.49006 0.30105 0.6501 0.0
C1077 C 0.51143 0.30449 0.64421 0.0
C1078 C 0.48607 0.24498 0.67675 0.0
C1079 C 0.47693 0.31859 0.64546 0.0
C1080 C 0.42234 0.26603 0.67292 0.0
C1081 C 0.42426 0.27822 0.696 0.0
C1082 C 0.4408 0.2674 0.66105 0.0
C1083 C 0.46146 0.28124 0.67268 0.0
C1084 C 0.46322 0.29355 0.696 0.0
C1085 C 0.44462 0.29189 0.7073 0.0
C1086 C 0.43825 0.254 0.63624 0.0
C1087 C 0.48491 0.30807 0.70929 0.0
H1088 H 0.52531 0.25737 0.66271 0.0
H1089 H 0.51809 0.31953 0.63636 0.0
H1090 H 0.48225 0.25145 0.69441 0.0
H1091 H 0.47076 0.23342 0.66641 0.0
H1092 H 0.49803 0.23402 0.6785 0.0
H1093 H 0.4838 0.32949 0.6329 0.0
H1094 H 0.45975 0.30924 0.63852 0.0
H1095 H 0.47684 0.33074 0.66211 0.0
H1096 H 0.4065 0.25544 0.66425 0.0
H1097 H 0.44598 0.3012 0.7252 0.0
H1098 H 0.44813 0.24065 0.63523 0.0
H1099 H 0.44442 0.26646 0.62471 0.0
H1100 H 0.42101 0.24469 0.62943 0.0
H1101 H 0.49609 0.29629 0.71122 0.0
H1102 H 0.48334 0.3173 0.72697 0.0
H1103 H 0.49258 0.3216 0.69947 0.0
C1104 C 0.00568 0.83483 0.61546 0.0
C1105 C 0.01093 0.81285 0.61082 0.0
C1106 C 0.01817 0.85466 0.60837 0.0
C1107 C 0.03656 0.85235 0.59708 0.0
C1108 C 0.04299 0.8307 0.59435 0.0
C1109 C 0.02982 0.81102 0.60082 0.0
C1110 C 0.01088 0.87756 0.61159 0.0
C1111 C 0.06337 0.82817 0.58388 0.0
C1112 C 0.04379 0.88556 0.54778 0.0
C1113 C 0.05905 0.90652 0.55861 0.0
C1114 C 0.03685 0.86758 0.56012 0.0
C1115 C 0.04591 0.87047 0.58371 0.0
C1116 C 0.06254 0.89099 0.59433 0.0
C1117 C 0.06858 0.90923 0.58172 0.0
C1118 C 0.019 0.84603 0.54816 0.0
C1119 C 0.07331 0.89419 0.6191 0.0
H1120 H 0.99148 0.83631 0.62396 0.0
H1121 H 0.0345 0.79423 0.59841 0.0
H1122 H 0.02484 0.89291 0.61917 0.0
H1123 H 0.00445 0.88044 0.59432 0.0
H1124 H 0.99793 0.87732 0.62311 0.0
H1125 H 0.06692 0.81062 0.58457 0.0
H1126 H 0.06163 0.83025 0.56538 0.0
H1127 H 0.07753 0.84245 0.59336 0.0
H1128 H 0.03639 0.88384 0.52994 0.0
H1129 H 0.08034 0.92568 0.58997 0.0
H1130 H 0.00476 0.84443 0.55793 0.0
H1131 H 0.02483 0.8296 0.54795 0.0
H1132 H 0.01345 0.84691 0.52986 0.0
H1133 H 0.06324 0.90177 0.63133 0.0
H1134 H 0.08973 0.90667 0.62202 0.0
H1135 H 0.07492 0.87696 0.62348 0.0
C1136 C 0.53609 0.83443 0.85342 0.0
C1137 C 0.55142 0.83016 0.83868 0.0
C1138 C 0.51401 0.8293 0.84448 0.0
C1139 C 0.50737 0.81893 0.82055 0.0
C1140 C 0.52272 0.81314 0.80607 0.0
C1141 C 0.54474 0.8193 0.81525 0.0
C1142 C 0.49805 0.83618 0.86025 0.0
C1143 C 0.51608 0.80171 0.78059 0.0
C1144 C 0.44679 0.7964 0.80076 0.0
C1145 C 0.44239 0.81581 0.79196 0.0
C1146 C 0.46813 0.79675 0.80959 0.0
C1147 C 0.48503 0.81719 0.80994 0.0
C1148 C 0.48065 0.83653 0.80053 0.0
C1149 C 0.45935 0.83549 0.79144 0.0
C1150 C 0.47249 0.77567 0.81907 0.0
C1151 C 0.4982 0.85891 0.80118 0.0
H1152 H 0.54153 0.84284 0.87159 0.0
H1153 H 0.55679 0.81577 0.8041 0.0
H1154 H 0.49059 0.84953 0.85355 0.0
H1155 H 0.48464 0.82041 0.86034 0.0
H1156 H 0.5059 0.8438 0.87852 0.0
H1157 H 0.52921 0.79463 0.77296 0.0
H1158 H 0.50118 0.78697 0.77824 0.0
H1159 H 0.51228 0.81511 0.77065 0.0
H1160 H 0.43351 0.78125 0.80115 0.0
H1161 H 0.45574 0.85067 0.78507 0.0
H1162 H 0.47731 0.7808 0.83826 0.0
H1163 H 0.48624 0.76997 0.81144 0.0
H1164 H 0.45797 0.7603 0.81537 0.0
H1165 H 0.50387 0.86811 0.8196 0.0
H1166 H 0.49232 0.87147 0.79147 0.0
H1167 H 0.51248 0.85451 0.79364 0.0
C1168 C 0.48287 0.161 0.09368 0.0
C1169 C 0.49767 0.17903 0.10971 0.0
C1170 C 0.49057 0.14545 0.07761 0.0
C1171 C 0.51338 0.14888 0.07755 0.0
C1172 C 0.5282 0.16769 0.09334 0.0
C1173 C 0.5201 0.18239 0.10946 0.0
C1174 C 0.47447 0.12498 0.06139 0.0
C1175 C 0.55257 0.17244 0.09312 0.0
C1176 C 0.53912 0.09979 0.05443 0.0
C1177 C 0.53923 0.10202 0.03117 0.0
C1178 C 0.5293 0.11395 0.06938 0.0
C1179 C 0.52204 0.13262 0.0614 0.0
C1180 C 0.52442 0.13666 0.03857 0.0
C1181 C 0.5322 0.12058 0.02332 0.0
C1182 C 0.52606 0.10848 0.09331 0.0
C1183 C 0.51849 0.15762 0.0302 0.0
H1184 H 0.46552 0.15876 0.09413 0.0
H1185 H 0.53134 0.19682 0.12183 0.0
H1186 H 0.47777 0.12438 0.04308 0.0
H1187 H 0.47628 0.10796 0.06617 0.0
H1188 H 0.45735 0.12613 0.06226 0.0
H1189 H 0.56169 0.18831 0.10631 0.0
H1190 H 0.5585 0.15687 0.09669 0.0
H1191 H 0.55649 0.17524 0.07558 0.0
H1192 H 0.54569 0.08625 0.06053 0.0
H1193 H 0.53276 0.12246 0.00527 0.0
H1194 H 0.50867 0.10635 0.09579 0.0
H1195 H 0.53574 0.12345 0.10707 0.0
H1196 H 0.53089 0.09198 0.09589 0.0
H1197 H 0.50055 0.15512 0.02826 0.0
H1198 H 0.52409 0.15987 0.01313 0.0
H1199 H 0.52579 0.17429 0.04317 0.0
C1200 C 0.15447 0.31635 0.32607 0.0
C1201 C 0.16323 0.32667 0.34933 0.0
C1202 C 0.1679 0.31356 0.30907 0.0
C1203 C 0.19058 0.32137 0.31563 0.0
C1204 C 0.19959 0.33368 0.3386 0.0
C1205 C 0.18566 0.33595 0.3555 0.0
C1206 C 0.15779 0.30014 0.28479 0.0
C1207 C 0.2239 0.34312 0.34549 0.0
C1208 C 0.22416 0.28264 0.28817 0.0
C1209 C 0.2344 0.29686 0.27361 0.0
C1210 C 0.20936 0.29035 0.30171 0.0
C1211 C 0.20459 0.31241 0.29993 0.0
C1212 C 0.21318 0.32556 0.28344 0.0
C1213 C 0.22824 0.31761 0.27042 0.0
C1214 C 0.2001 0.2758 0.31908 0.0
C1215 C 0.20765 0.34866 0.28061 0.0
H1216 H 0.13702 0.30938 0.32122 0.0
H1217 H 0.19223 0.34458 0.37338 0.0
H1218 H 0.16654 0.3077 0.27121 0.0
H1219 H 0.15882 0.28135 0.28311 0.0
H1220 H 0.14034 0.30023 0.28123 0.0
H1221 H 0.22807 0.35427 0.36334 0.0
H1222 H 0.23175 0.32803 0.34494 0.0
H1223 H 0.23088 0.35387 0.33289 0.0
H1224 H 0.22924 0.2667 0.29069 0.0
H1225 H 0.2363 0.32842 0.25895 0.0
H1226 H 0.18206 0.2722 0.31674 0.0
H1227 H 0.20614 0.28597 0.33713 0.0
H1228 H 0.20473 0.25853 0.31737 0.0
H1229 H 0.18988 0.34706 0.28006 0.0
H1230 H 0.21277 0.35421 0.26437 0.0
H1231 H 0.21603 0.36284 0.29577 0.0
C1232 C 0.96285 0.07332 0.16906 0.0
C1233 C 0.96835 0.06373 0.18877 0.0
C1234 C 0.97437 0.0724 0.14902 0.0
C1235 C 0.99151 0.06037 0.14713 0.0
C1236 C 0.99703 0.05045 0.16695 0.0
C1237 C 0.98597 0.05272 0.18729 0.0
C1238 C 0.96834 0.08489 0.12986 0.0
C1239 C 0.01487 0.03737 0.16694 0.0
C1240 C 0.00696 0.04035 0.08383 0.0
C1241 C 0.02694 0.05669 0.08334 0.0
C1242 C 0.99567 0.04108 0.10416 0.0
C1243 C 0.00383 0.05886 0.12501 0.0
C1244 C 0.0239 0.07541 0.12435 0.0
C1245 C 0.03496 0.07399 0.10413 0.0
C1246 C 0.97512 0.02217 0.10357 0.0
C1247 C 0.03376 0.09525 0.14502 0.0
H1248 H 0.94971 0.08226 0.16949 0.0
H1249 H 0.99088 0.0452 0.20199 0.0
H1250 H 0.9832 0.09634 0.12534 0.0
H1251 H 0.96047 0.07154 0.11392 0.0
H1252 H 0.95698 0.09611 0.13488 0.0
H1253 H 0.01336 0.02535 0.17978 0.0
H1254 H 0.0147 0.0267 0.14938 0.0
H1255 H 0.03092 0.05043 0.17179 0.0
H1256 H 1.00039 0.02646 0.06857 0.0
H1257 H 0.0503 0.08684 0.10468 0.0
H1258 H 0.96123 0.03048 0.10565 0.0
H1259 H 0.97684 0.01293 0.11844 0.0
H1260 H 0.97124 0.00879 0.08701 0.0
H1261 H 0.02336 0.1081 0.1467 0.0
H1262 H 0.0505 0.10497 0.14324 0.0
H1263 H 0.0344 0.08828 0.16144 0.0
C1264 C 0.25683 0.67695 0.46484 0.0
C1265 C 0.27947 0.68073 0.46591 0.0
C1266 C 0.24488 0.68459 0.44784 0.0
C1267 C 0.25602 0.69608 0.43163 0.0
C1268 C 0.27896 0.69947 0.43236 0.0
C1269 C 0.29053 0.69166 0.44972 0.0
C1270 C 0.22054 0.68085 0.44756 0.0
C1271 C 0.29133 0.71209 0.41541 0.0
C1272 C 0.23128 0.7038 0.37399 0.0
C1273 C 0.23432 0.72854 0.37857 0.0
C1274 C 0.23637 0.69217 0.39187 0.0
C1275 C 0.24404 0.70578 0.41459 0.0
C1276 C 0.2435 0.72996 0.41991 0.0
C1277 C 0.23839 0.74111 0.40169 0.0
C1278 C 0.23652 0.66622 0.38578 0.0
C1279 C 0.251 0.74474 0.44423 0.0
H1280 H 0.24853 0.66823 0.47759 0.0
H1281 H 0.30808 0.6944 0.45088 0.0
H1282 H 0.21621 0.69826 0.44997 0.0
H1283 H 0.21189 0.67041 0.43039 0.0
H1284 H 0.21446 0.6714 0.46146 0.0
H1285 H 0.30856 0.7108 0.41671 0.0
H1286 H 0.2834 0.70457 0.3972 0.0
H1287 H 0.29123 0.7312 0.41911 0.0
H1288 H 0.22774 0.69416 0.35605 0.0
H1289 H 0.24052 0.76026 0.40526 0.0
H1290 H 0.22953 0.6564 0.399 0.0
H1291 H 0.25361 0.66473 0.38569 0.0
H1292 H 0.22724 0.65754 0.36829 0.0
H1293 H 0.24168 0.73628 0.45698 0.0
H1294 H 0.249 0.76319 0.44547 0.0
H1295 H 0.26846 0.74572 0.44945 0.0
C1296 C 0.62142 0.02719 0.66158 0.0
C1297 C 0.64045 0.04504 0.66952 0.0
C1298 C 0.60464 0.03119 0.64727 0.0
C1299 C 0.60743 0.05347 0.64037 0.0
C1300 C 0.6261 0.07216 0.64937 0.0
C1301 C 0.64272 0.06764 0.66391 0.0
C1302 C 0.58485 0.01079 0.63799 0.0
C1303 C 0.62892 0.09621 0.64251 0.0
C1304 C 0.58504 0.03748 0.57813 0.0
C1305 C 0.56422 0.04082 0.57911 0.0
C1306 C 0.60042 0.04471 0.59786 0.0
C1307 C 0.59408 0.05418 0.61918 0.0
C1308 C 0.5731 0.05827 0.62015 0.0
C1309 C 0.55818 0.05141 0.59978 0.0
C1310 C 0.62282 0.04031 0.59618 0.0
C1311 C 0.56603 0.06854 0.64267 0.0
H1312 H 0.61966 0.01 0.66668 0.0
H1313 H 0.65716 0.08176 0.67115 0.0
H1314 H 0.56965 0.017 0.63822 0.0
H1315 H 0.58587 1.00309 0.61962 0.0
H1316 H 0.58366 0.99639 0.64827 0.0
H1317 H 0.64294 0.10968 0.6534 0.0
H1318 H 0.63166 0.09468 0.62395 0.0
H1319 H 0.6139 0.10262 0.64411 0.0
H1320 H 0.58908 0.02874 0.562 0.0
H1321 H 0.542 0.05448 0.59994 0.0
H1322 H 0.62374 0.02392 0.60285 0.0
H1323 H 0.63573 0.05528 0.60673 0.0
H1324 H 0.62642 0.03808 0.57794 0.0
H1325 H 0.55958 0.05392 0.65183 0.0
H1326 H 0.55287 0.07766 0.63932 0.0
H1327 H 0.57987 0.08131 0.65447 0.0
C1328 C 0.31335 0.33636 0.95423 0.0
C1329 C 0.30197 0.35417 0.958 0.0
C1330 C 0.31312 0.32381 0.93149 0.0
C1331 C 0.30136 0.32939 0.91233 0.0
C1332 C 0.28849 0.346 0.91634 0.0
C1333 C 0.28887 0.35806 0.93912 0.0
C1334 C 0.32635 0.30554 0.92782 0.0
C1335 C 0.27519 0.35199 0.89645 0.0
C1336 C 0.32226 0.32529 0.85363 0.0
C1337 C 0.30637 0.3062 0.84007 0.0
C1338 C 0.32113 0.33259 0.87745 0.0
C1339 C 0.30412 0.31992 0.88795 0.0
C1340 C 0.28867 0.29983 0.87445 0.0
C1341 C 0.28987 0.29337 0.85056 0.0
C1342 C 0.3373 0.35477 0.89098 0.0
C1343 C 0.27071 0.28537 0.88505 0.0
H1344 H 0.32331 0.33309 0.96878 0.0
H1345 H 0.27953 0.37134 0.942 0.0
H1346 H 0.31655 0.28906 0.91594 0.0
H1347 H 0.34073 0.31256 0.9194 0.0
H1348 H 0.33216 0.30094 0.94452 0.0
H1349 H 0.26633 0.36562 0.90258 0.0
H1350 H 0.28597 0.35874 0.88394 0.0
H1351 H 0.2631 0.33574 0.88676 0.0
H1352 H 0.33478 0.33537 0.84532 0.0
H1353 H 0.27767 0.27848 0.83992 0.0
H1354 H 0.34548 0.35092 0.90694 0.0
H1355 H 0.32857 0.36864 0.89668 0.0
H1356 H 0.34994 0.3621 0.88048 0.0
H1357 H 0.27789 0.2752 0.89666 0.0
H1358 H 0.25826 0.27256 0.87153 0.0
H1359 H 0.26247 0.29704 0.89591 0.0
C1360 C 0.99572 0.07795 0.34337 0.0
C1361 C 0.97501 0.0638 0.3327 0.0
C1362 C 0.00514 0.07628 0.36598 0.0
C1363 C 0.99418 0.05936 0.37849 0.0
C1364 C 0.97307 0.04539 0.36795 0.0
C1365 C 0.96392 0.04773 0.34552 0.0
C1366 C 0.02736 0.09206 0.37604 0.0
C1367 C 0.96027 0.02735 0.38019 0.0
C1368 C 0.02675 0.03503 0.42497 0.0
C1369 C 0.02446 0.04847 0.44652 0.0
C1370 C 0.01749 0.03869 0.40308 0.0
C1371 C 0.00484 0.05578 0.40207 0.0
C1372 C 0.00229 0.06918 0.42382 0.0
C1373 C 0.01225 0.06567 0.44537 0.0
C1374 C 0.02151 0.02431 0.38082 0.0
C1375 C 0.98917 0.08762 0.42449 0.0
H1376 H 0.00499 0.08993 0.33366 0.0
H1377 H 0.9483 0.03606 0.33747 0.0
H1378 H 0.02769 0.09997 0.39468 0.0
H1379 H 0.03957 0.08123 0.37522 0.0
H1380 H 0.03232 0.10669 0.36635 0.0
H1381 H 0.94406 0.01799 0.37013 0.0
H1382 H 0.96953 0.01393 0.38298 0.0
H1383 H 0.95789 0.03629 0.39765 0.0
H1384 H 0.0362 0.02185 0.42515 0.0
H1385 H 0.01016 0.07638 0.46154 0.0
H1386 H 0.02994 0.03646 0.37009 0.0
H1387 H 0.00575 0.01405 0.37037 0.0
H1388 H 0.03158 0.01175 0.38417 0.0
H1389 H 0.99882 0.10367 0.41922 0.0
H1390 H 0.98497 0.09304 0.44224 0.0
H1391 H 0.97388 0.08088 0.41205 0.0
C1392 C 0.27369 0.67622 0.61773 0.0
C1393 C 0.28288 0.68242 0.59812 0.0
C1394 C 0.27458 0.69368 0.63746 0.0
C1395 C 0.28479 0.71768 0.63728 0.0
C1396 C 0.29344 0.72409 0.6173 0.0
C1397 C 0.2924 0.70637 0.59796 0.0
C1398 C 0.26506 0.68647 0.65861 0.0
C1399 C 0.30478 0.74951 0.61673 0.0
C1400 C 0.27911 0.7686 0.68296 0.0
C1401 C 0.29849 0.77238 0.6979 0.0
C1402 C 0.27405 0.75032 0.66317 0.0
C1403 C 0.2888 0.73585 0.65871 0.0
C1404 C 0.30844 0.7398 0.6739 0.0
C1405 C 0.31303 0.75812 0.69338 0.0
C1406 C 0.25294 0.7463 0.64724 0.0
C1407 C 0.3244 0.72448 0.6698 0.0
H1408 H 0.26599 0.65777 0.61773 0.0
H1409 H 0.2994 0.71137 0.5828 0.0
H1410 H 0.2778 0.69188 0.6741 0.0
H1411 H 0.2521 0.69576 0.66264 0.0
H1412 H 0.25801 0.66696 0.656 0.0
H1413 H 0.30829 0.75188 0.59893 0.0
H1414 H 0.29473 0.76182 0.62298 0.0
H1415 H 0.32044 0.75482 0.62861 0.0
H1416 H 0.26766 0.77929 0.68723 0.0
H1417 H 0.32769 0.76086 0.70562 0.0
H1418 H 0.24332 0.72766 0.64539 0.0
H1419 H 0.25644 0.74902 0.62956 0.0
H1420 H 0.24286 0.75849 0.6538 0.0
H1421 H 0.31634 0.70565 0.66983 0.0
H1422 H 0.33898 0.73017 0.68334 0.0
H1423 H 0.32988 0.72514 0.65244 0.0
C1424 C 0.62377 0.05081 0.80982 0.0
C1425 C 0.64062 0.05994 0.79785 0.0
C1426 C 0.62361 0.06111 0.83303 0.0
C1427 C 0.64022 0.0817 0.84389 0.0
C1428 C 0.65741 0.09084 0.83184 0.0
C1429 C 0.65766 0.07945 0.80901 0.0
C1430 C 0.60519 0.05039 0.84552 0.0
C1431 C 0.67484 0.1132 0.84258 0.0
C1432 C 0.61302 0.10889 0.89013 0.0
C1433 C 0.61892 0.09703 0.90758 0.0
C1434 C 0.62306 0.10773 0.86988 0.0
C1435 C 0.63862 0.09399 0.86743 0.0
C1436 C 0.64772 0.0867 0.88707 0.0
C1437 C 0.63834 0.0896 0.90761 0.0
C1438 C 0.61413 0.11723 0.84966 0.0
C1439 C 0.6638 0.07134 0.8852 0.0
H1440 H 0.61067 0.03578 0.80096 0.0
H1441 H 0.67057 0.08666 0.79942 0.0
H1442 H 0.61145 0.04921 0.86345 0.0
H1443 H 0.59352 0.06185 0.84686 0.0
H1444 H 0.59614 0.03227 0.83614 0.0
H1445 H 0.68648 0.11858 0.8303 0.0
H1446 H 0.6672 0.12807 0.8481 0.0
H1447 H 0.68416 0.11056 0.85845 0.0
H1448 H 0.59845 0.11554 0.89048 0.0
H1449 H 0.64331 0.08132 0.9217 0.0
H1450 H 0.60127 0.10284 0.83815 0.0
H1451 H 0.6271 0.1234 0.83906 0.0
H1452 H 0.60675 0.13216 0.85583 0.0
H1453 H 0.65467 0.05248 0.87895 0.0
H1454 H 0.67332 0.07267 0.90247 0.0
H1455 H 0.67522 0.07604 0.87261 0.0
C1456 C 0.32435 0.36353 0.1208 0.0
C1457 C 0.30879 0.35609 0.10075 0.0
C1458 C 0.32131 0.35348 0.14085 0.0
C1459 C 0.30189 0.33607 0.14128 0.0
C1460 C 0.28577 0.32908 0.12132 0.0
C1461 C 0.28956 0.33887 0.10122 0.0
C1462 C 0.33923 0.36094 0.16134 0.0
C1463 C 0.26441 0.31143 0.12127 0.0
C1464 C 0.30538 0.29158 0.18112 0.0
C1465 C 0.29726 0.3011 0.20105 0.0
C1466 C 0.30655 0.30256 0.16158 0.0
C1467 C 0.29943 0.32374 0.16175 0.0
C1468 C 0.29077 0.33325 0.18169 0.0
C1469 C 0.28986 0.32186 0.20114 0.0
C1470 C 0.3156 0.29149 0.14074 0.0
C1471 C 0.28268 0.35556 0.18261 0.0
H1472 H 0.33921 0.37684 0.1206 0.0
H1473 H 0.27723 0.33339 0.08598 0.0
H1474 H 0.3327 0.36693 0.17758 0.0
H1475 H 0.3458 0.34545 0.16389 0.0
H1476 H 0.35284 0.37552 0.15884 0.0
H1477 H 0.25407 0.30681 0.104 0.0
H1478 H 0.26731 0.29483 0.12611 0.0
H1479 H 0.25528 0.31907 0.13456 0.0
H1480 H 0.31092 0.27541 0.18076 0.0
H1481 H 0.28327 0.32912 0.21634 0.0
H1482 H 0.32979 0.30452 0.13694 0.0
H1483 H 0.30309 0.28664 0.12507 0.0
H1484 H 0.32081 0.27523 0.1435 0.0
H1485 H 0.29676 0.37116 0.18449 0.0
H1486 H 0.27339 0.35855 0.19752 0.0
H1487 H 0.27211 0.35468 0.16615 0.0
C1488 C 0.23293 0.94368 0.00851 0.0
C1489 C 0.25395 0.95732 0.00864 0.0
C1490 C 0.21873 0.95284 0.02204 0.0
C1491 C 0.22595 0.97611 0.03572 0.0
C1492 C 0.24802 0.98864 0.03816 0.0
C1493 C 0.26177 0.97918 0.02429 0.0
C1494 C 0.19536 0.93876 0.01939 0.0
C1495 C 0.25658 0.01289 0.05378 0.0
C1496 C 0.1859 0.01215 0.02528 0.0
C1497 C 0.17588 0.01246 0.04548 0.0
C1498 C 0.20281 1.00105 0.02245 0.0
C1499 C 0.20968 0.98978 0.04031 0.0
C1500 C 0.20028 0.99078 0.06126 0.0
C1501 C 0.1833 1.00226 0.06366 0.0
C1502 C 0.21323 1.0014 1.00026 0.0
C1503 C 0.20794 0.97954 0.08079 0.0
H1504 H 0.22728 0.92635 0.99708 0.0
H1505 H 0.27856 0.98913 0.02545 0.0
H1506 H 0.18844 0.94154 0.036 0.0
H1507 H 0.18552 0.94483 0.00607 0.0
H1508 H 0.19383 0.91941 0.01352 0.0
H1509 H 0.27423 0.02027 0.05343 0.0
H1510 H 0.24754 0.02562 0.04838 0.0
H1511 H 0.25404 0.01164 0.07204 0.0
H1512 H 0.18051 0.0208 0.01165 0.0
H1513 H 0.17561 1.00295 0.07943 0.0
H1514 H 0.21197 0.98296 0.99101 0.0
H1515 H 0.2308 0.01057 0.00458 0.0
H1516 H 0.20557 0.01071 0.98808 0.0
H1517 H 0.20405 0.95992 0.07501 0.0
H1518 H 0.20023 0.98372 0.09671 0.0
H1519 H 0.22589 0.98573 0.08539 0.0
C1520 C 0.69517 0.6556 0.989 0.0
C1521 C 0.71386 0.64667 0.98839 0.0
C1522 C 0.67507 0.64145 0.9925 0.0
C1523 C 0.67356 0.61784 0.99593 0.0
C1524 C 0.6926 0.60905 0.99619 0.0
C1525 C 0.71236 0.62341 0.99214 0.0
C1526 C 0.65533 0.65167 0.99216 0.0
C1527 C 0.69205 0.58425 1.00024 0.0
C1528 C 0.62301 0.58557 0.01952 0.0
C1529 C 0.61048 0.57117 0.99901 0.0
C1530 C 0.64364 0.60069 0.01894 0.0
C1531 C 0.6518 0.60176 0.99728 0.0
C1532 C 0.63904 0.58738 0.97657 0.0
C1533 C 0.61869 0.57228 0.97771 0.0
C1534 C 0.65683 0.61525 0.04151 0.0
C1535 C 0.64685 0.58804 0.95308 0.0
H1536 H 0.69617 0.67363 0.9864 0.0
H1537 H 0.72674 0.61641 0.99209 0.0
H1538 H 0.64203 0.64013 0.97875 0.0
H1539 H 0.64918 0.6522 0.00929 0.0
H1540 H 0.65895 0.66997 0.98841 0.0
H1541 H 0.70869 0.58171 0.00429 0.0
H1542 H 0.68273 0.58032 0.0148 0.0
H1543 H 0.68373 0.5711 0.98431 0.0
H1544 H 0.61688 0.58471 0.03609 0.0
H1545 H 0.60914 0.56126 0.96178 0.0
H1546 H 0.65942 0.63449 0.0412 0.0
H1547 H 0.67316 0.61146 0.04352 0.0
H1548 H 0.64876 0.61155 0.05698 0.0
H1549 H 0.64899 0.60626 0.94935 0.0
H1550 H 0.63531 0.57534 0.93868 0.0
H1551 H 0.66295 0.5837 0.95325 0.0
C1552 C 0.70617 0.43229 0.24145 0.0
C1553 C 0.70637 0.44815 0.26265 0.0
C1554 C 0.71746 0.41341 0.23983 0.0
C1555 C 0.72881 0.40848 0.26006 0.0
C1556 C 0.72846 0.42403 0.28158 0.0
C1557 C 0.71802 0.44352 0.28249 0.0
C1558 C 0.71724 0.39878 0.21606 0.0
C1559 C 0.73911 0.41997 0.3041 0.0
C1560 C 0.74203 0.3451 0.25906 0.0
C1561 C 0.76488 0.34928 0.25868 0.0
C1562 C 0.73035 0.36357 0.2593 0.0
C1563 C 0.74114 0.38773 0.25892 0.0
C1564 C 0.76409 0.39188 0.25793 0.0
C1565 C 0.7754 0.37317 0.25801 0.0
C1566 C 0.70615 0.35706 0.26011 0.0
C1567 C 0.77688 0.41632 0.25614 0.0
H1568 H 0.69756 0.43501 0.22568 0.0
H1569 H 0.71856 0.45494 0.29919 0.0
H1570 H 0.73327 0.39468 0.2142 0.0
H1571 H 0.7048 0.38167 0.21373 0.0
H1572 H 0.71311 0.40805 0.20185 0.0
H1573 H 0.73474 0.43061 0.31964 0.0
H1574 H 0.73427 0.40084 0.30515 0.0
H1575 H 0.75708 0.42498 0.30467 0.0
H1576 H 0.73307 0.32716 0.25941 0.0
H1577 H 0.79281 0.37741 0.25741 0.0
H1578 H 0.69741 0.35931 0.2437 0.0
H1579 H 0.70199 0.36915 0.27472 0.0
H1580 H 0.70014 0.33836 0.26227 0.0
H1581 H 0.77048 0.42105 0.23976 0.0
H1582 H 0.79455 0.41737 0.25617 0.0
H1583 H 0.77483 0.42981 0.27085 0.0
C1584 C 0.88957 0.48732 0.53374 0.0
C1585 C 0.88025 0.47 0.51375 0.0
C1586 C 0.9115 0.4907 0.54237 0.0
C1587 C 0.9239 0.47733 0.52964 0.0
C1588 C 0.91366 0.45739 0.51191 0.0
C1589 C 0.89166 0.45378 0.50438 0.0
C1590 C 0.92188 0.51066 0.56279 0.0
C1591 C 0.92643 0.44276 0.49771 0.0
C1592 C 0.96939 0.50713 0.50218 0.0
C1593 C 0.98584 0.49727 0.51044 0.0
C1594 C 0.9497 0.50341 0.511 0.0
C1595 C 0.94633 0.48864 0.52781 0.0
C1596 C 0.96322 0.47955 0.53702 0.0
C1597 C 0.98283 0.48365 0.52789 0.0
C1598 C 0.93223 0.51426 0.50127 0.0
C1599 C 0.96031 0.46471 0.55566 0.0
H1600 H 0.88016 0.4989 0.54183 0.0
H1601 H 0.88403 0.43977 0.48948 0.0
H1602 H 0.93764 0.50851 0.57086 0.0
H1603 H 0.92487 0.52792 0.55683 0.0
H1604 H 0.91074 0.51148 0.57626 0.0
H1605 H 0.91568 0.42648 0.48632 0.0
H1606 H 0.93558 0.45361 0.48635 0.0
H1607 H 0.9384 0.43728 0.50918 0.0
H1608 H 0.97219 0.51867 0.48954 0.0
H1609 H 0.99603 0.47682 0.53489 0.0
H1610 H 0.92576 0.52416 0.51565 0.0
H1611 H 0.91852 0.49999 0.49095 0.0
H1612 H 0.9384 0.5268 0.48977 0.0
H1613 H 0.94837 0.46968 0.56693 0.0
H1614 H 0.97606 0.46656 0.56655 0.0
H1615 H 0.95408 0.44565 0.54744 0.0
C1616 C 0.3773 0.09197 0.29243 0.0
C1617 C 0.39571 0.08586 0.28483 0.0
C1618 C 0.36635 0.10507 0.27987 0.0
C1619 C 0.37369 0.11099 0.25893 0.0
C1620 C 0.39157 0.10344 0.2506 0.0
C1621 C 0.40268 0.09136 0.26401 0.0
C1622 C 0.34721 0.11288 0.28917 0.0
C1623 C 0.39941 0.10848 0.22798 0.0
C1624 C 0.33132 0.13394 0.2278 0.0
C1625 C 0.33828 0.15816 0.23815 0.0
C1626 C 0.34412 0.11826 0.23219 0.0
C1627 C 0.36395 0.12719 0.24738 0.0
C1628 C 0.37237 0.15193 0.25515 0.0
C1629 C 0.35934 0.16714 0.25042 0.0
C1630 C 0.33545 0.09196 0.22251 0.0
C1631 C 0.39383 0.16213 0.27092 0.0
H1632 H 0.37174 0.08683 0.3082 0.0
H1633 H 0.41663 0.08569 0.25794 0.0
H1634 H 0.34995 0.13249 0.29132 0.0
H1635 H 0.33223 0.10468 0.27653 0.0
H1636 H 0.34438 0.10779 0.30626 0.0
H1637 H 0.40812 0.09517 0.22055 0.0
H1638 H 0.38574 0.10848 0.21477 0.0
H1639 H 0.411 0.12627 0.23132 0.0
H1640 H 0.31516 0.12686 0.21803 0.0
H1641 H 0.36489 0.18582 0.25814 0.0
H1642 H 0.32834 0.08301 0.23625 0.0
H1643 H 0.34877 0.08378 0.2171 0.0
H1644 H 0.32258 0.08853 0.20731 0.0
H1645 H 0.3919 0.15831 0.28864 0.0
H1646 H 0.39948 0.18171 0.27244 0.0
H1647 H 0.40666 0.15379 0.26441 0.0
C1648 C 0.35573 0.17143 0.51801 0.0
C1649 C 0.33659 0.15297 0.51403 0.0
C1650 C 0.37629 0.16702 0.52402 0.0
C1651 C 0.37774 0.14359 0.52558 0.0
C1652 C 0.35843 0.12513 0.52208 0.0
C1653 C 0.33824 0.13004 0.51643 0.0
C1654 C 0.39644 0.18734 0.52863 0.0
C1655 C 0.35904 0.09995 0.52402 0.0
C1656 C 0.42579 0.11919 0.50964 0.0
C1657 C 0.43449 0.11534 0.53113 0.0
C1658 C 0.4083 0.12996 0.50795 0.0
C1659 C 0.39925 0.13734 0.52827 0.0
C1660 C 0.40887 0.13496 0.5503 0.0
C1661 C 0.42632 0.12388 0.55146 0.0
C1662 C 0.39836 0.13164 0.48405 0.0
C1663 C 0.40035 0.14348 0.57255 0.0
H1664 H 0.35461 0.18932 0.5168 0.0
H1665 H 0.32361 0.11567 0.5137 0.0
H1666 H 0.40607 0.18772 0.54555 0.0
H1667 H 0.40697 0.18472 0.51484 0.0
H1668 H 0.39246 0.20484 0.52906 0.0
H1669 H 0.34259 0.08751 0.52018 0.0
H1670 H 0.36956 0.09328 0.51175 0.0
H1671 H 0.36619 0.09966 0.54194 0.0
H1672 H 0.43176 0.11241 0.49381 0.0
H1673 H 0.43323 0.12134 0.56819 0.0
H1674 H 0.39651 0.14993 0.48391 0.0
H1675 H 0.38184 0.1194 0.47966 0.0
H1676 H 0.4083 0.12687 0.47022 0.0
H1677 H 0.4036 0.16319 0.5758 0.0
H1678 H 0.40815 0.13821 0.58793 0.0
H1679 H 0.38245 0.13637 0.57095 0.0
C1680 C 0.69975 0.62296 0.2823 0.0
C1681 C 0.70552 0.60186 0.27264 0.0
C1682 C 0.71252 0.64623 0.28195 0.0
C1683 C 0.7317 0.64946 0.27088 0.0
C1684 C 0.73763 0.62823 0.2609 0.0
C1685 C 0.72485 0.60503 0.26217 0.0
C1686 C 0.7052 0.66749 0.29347 0.0
C1687 C 0.75754 0.62993 0.24857 0.0
C1688 C 0.7543 0.71145 0.25317 0.0
C1689 C 0.77251 0.72254 0.27028 0.0
C1690 C 0.74115 0.688 0.253 0.0
C1691 C 0.7457 0.67484 0.27054 0.0
C1692 C 0.76367 0.68639 0.28816 0.0
C1693 C 0.77679 0.70943 0.28756 0.0
C1694 C 0.72276 0.67686 0.23338 0.0
C1695 C 0.76917 0.67432 0.30789 0.0
H1696 H 0.68497 0.62132 0.29039 0.0
H1697 H 0.72965 0.58932 0.25421 0.0
H1698 H 0.71905 0.68057 0.305 0.0
H1699 H 0.69928 0.67651 0.27992 0.0
H1700 H 0.69185 0.66242 0.30401 0.0
H1701 H 0.75809 0.61241 0.23836 0.0
H1702 H 0.75797 0.64278 0.23663 0.0
H1703 H 0.7724 0.63656 0.26164 0.0
H1704 H 0.75094 0.72057 0.23916 0.0
H1705 H 0.79088 0.7172 0.30072 0.0
H1706 H 0.70707 0.67276 0.24051 0.0
H1707 H 0.72517 0.65975 0.22412 0.0
H1708 H 0.72152 0.68862 0.22058 0.0
H1709 H 0.75522 0.6712 0.31801 0.0
H1710 H 0.78389 0.68504 0.31996 0.0
H1711 H 0.77195 0.65668 0.30087 0.0
C1712 C 0.91077 0.43712 0.7593 0.0
C1713 C 0.91298 0.45693 0.7771 0.0
C1714 C 0.89436 0.41653 0.7585 0.0
C1715 C 0.88 0.41663 0.77553 0.0
C1716 C 0.883 0.43612 0.79414 0.0
C1717 C 0.89995 0.45581 0.79504 0.0
C1718 C 0.89178 0.39534 0.73897 0.0
C1719 C 0.86772 0.43669 0.81247 0.0
C1720 C 0.82322 0.37802 0.76168 0.0
C1721 C 0.82483 0.36184 0.77617 0.0
C1722 C 0.84139 0.39613 0.76098 0.0
C1723 C 0.8614 0.39672 0.77416 0.0
C1724 C 0.86293 0.38011 0.78863 0.0
C1725 C 0.84427 0.36327 0.7901 0.0
C1726 C 0.83926 0.41433 0.74608 0.0
C1727 C 0.88439 0.37942 0.80165 0.0
H1728 H 0.921 0.43811 0.74552 0.0
H1729 H 0.90218 0.47102 0.80915 0.0
H1730 H 0.8868 0.37834 0.74522 0.0
H1731 H 0.8789 0.39557 0.72494 0.0
H1732 H 0.90711 0.39572 0.73121 0.0
H1733 H 0.87142 0.45424 0.82454 0.0
H1734 H 0.85059 0.43267 0.80399 0.0
H1735 H 0.86888 0.42291 0.82302 0.0
H1736 H 0.80806 0.37603 0.75051 0.0
H1737 H 0.84535 0.34985 0.80053 0.0
H1738 H 0.84927 0.41267 0.73167 0.0
H1739 H 0.84539 0.4326 0.75667 0.0
H1740 H 0.82211 0.41213 0.73833 0.0
H1741 H 0.89557 0.37558 0.78888 0.0
H1742 H 0.88241 0.36561 0.81265 0.0
H1743 H 0.89234 0.39691 0.81301 0.0
C1744 C 0.07392 0.87179 0.05609 0.0
C1745 C 0.08184 0.87634 0.08004 0.0
C1746 C 0.06785 0.88959 0.04532 0.0
C1747 C 0.07018 0.91272 0.05865 0.0
C1748 C 0.07812 0.91734 0.08281 0.0
C1749 C 0.08366 0.89914 0.09319 0.0
C1750 C 0.05912 0.88368 0.01963 0.0
C1751 C 0.08074 0.9416 0.09781 0.0
C1752 C 0.07812 0.96829 0.03149 0.0
C1753 C 0.05763 0.97342 0.03141 0.0
C1754 C 0.08202 0.94792 0.03907 0.0
C1755 C 0.06521 0.93251 0.04746 0.0
C1756 C 0.04427 0.93729 0.04684 0.0
C1757 C 0.04066 0.95747 0.03852 0.0
C1758 C 0.10442 0.94335 0.03881 0.0
C1759 C 0.02581 0.92145 0.05555 0.0
H1760 H 0.07215 0.85418 0.04578 0.0
H1761 H 0.0896 0.90287 0.1117 0.0
H1762 H 0.04396 0.88971 0.01653 0.0
H1763 H 0.07123 0.89323 0.00984 0.0
H1764 H 0.05561 0.86428 0.01241 0.0
H1765 H 0.08775 0.9426 0.11614 0.0
H1766 H 0.0915 0.95541 0.09047 0.0
H1767 H 0.06465 0.94597 0.09787 0.0
H1768 H 0.09125 0.98037 0.02578 0.0
H1769 H 0.02477 0.96131 0.03853 0.0
H1770 H 0.10317 0.92505 0.0292 0.0
H1771 H 0.11201 0.94462 0.05696 0.0
H1772 H 0.11535 0.9562 0.03054 0.0
H1773 H 0.02153 0.90342 0.04438 0.0
H1774 H 0.011 0.92849 0.05544 0.0
H1775 H 0.03088 0.91948 0.0736 0.0
C1776 C 0.93971 0.26018 0.84175 0.0
C1777 C 0.94691 0.26863 0.8657 0.0
C1778 C 0.91997 0.26312 0.83107 0.0
C1779 C 0.90701 0.27538 0.84445 0.0
C1780 C 0.91382 0.28333 0.86887 0.0
C1781 C 0.93359 0.27972 0.87923 0.0
C1782 C 0.91361 0.25408 0.80511 0.0
C1783 C 0.90059 0.29637 0.88387 0.0
C1784 C 0.86933 0.30289 0.80832 0.0
C1785 C 0.84976 0.28509 0.80401 0.0
C1786 C 0.88781 0.30055 0.82235 0.0
C1787 C 0.88667 0.28004 0.83255 0.0
C1788 C 0.8665 0.26272 0.82915 0.0
C1789 C 0.8485 0.2653 0.81471 0.0
C1790 C 0.90891 0.31937 0.82516 0.0
C1791 C 0.86426 0.2406 0.8395 0.0
H1792 H 0.95003 0.25192 0.83109 0.0
H1793 H 0.93923 0.28684 0.89762 0.0
H1794 H 0.89624 0.24412 0.80111 0.0
H1795 H 0.91563 0.26942 0.79606 0.0
H1796 H 0.92375 0.24227 0.79784 0.0
H1797 H 0.90834 0.30219 0.90236 0.0
H1798 H 0.8984 0.31226 0.87694 0.0
H1799 H 0.8841 0.28468 0.88331 0.0
H1800 H 0.87059 0.31792 0.79958 0.0
H1801 H 0.83355 0.25128 0.81103 0.0
H1802 H 0.92123 0.31162 0.81658 0.0
H1803 H 0.91546 0.3257 0.84393 0.0
H1804 H 0.90691 0.33487 0.81739 0.0
H1805 H 0.87335 0.22874 0.83021 0.0
H1806 H 0.84696 0.2306 0.83803 0.0
H1807 H 0.87138 0.24522 0.85817 0.0
C1808 C 0.56553 0.22935 0.56026 0.0
C1809 C 0.58478 0.2387 0.57595 0.0
C1810 C 0.56077 0.20575 0.54778 0.0
C1811 C 0.57564 0.19157 0.55134 0.0
C1812 C 0.59582 0.20174 0.56577 0.0
C1813 C 0.60013 0.22521 0.57783 0.0
C1814 C 0.5392 0.19555 0.53231 0.0
C1815 C 0.61207 0.18723 0.57017 0.0
C1816 C 0.55598 0.12611 0.55152 0.0
C1817 C 0.56408 0.11606 0.53198 0.0
C1818 C 0.55874 0.15074 0.55744 0.0
C1819 C 0.56931 0.16545 0.54296 0.0
C1820 C 0.5765 0.15513 0.52244 0.0
C1821 C 0.5741 0.13041 0.51735 0.0
C1822 C 0.55114 0.161 0.57967 0.0
C1823 C 0.58675 0.17024 0.50604 0.0
H1824 H 0.55357 0.23978 0.55903 0.0
H1825 H 0.61503 0.23261 0.58996 0.0
H1826 H 0.5408 0.1828 0.51671 0.0
H1827 H 0.52732 0.18577 0.54218 0.0
H1828 H 0.53241 0.2098 0.52652 0.0
H1829 H 0.62737 0.19817 0.5811 0.0
H1830 H 0.60478 0.17278 0.57919 0.0
H1831 H 0.61621 0.17873 0.55339 0.0
H1832 H 0.54791 0.11468 0.56249 0.0
H1833 H 0.57968 0.12225 0.50181 0.0
H1834 H 0.53938 0.17161 0.57572 0.0
H1835 H 0.5652 0.17315 0.5917 0.0
H1836 H 0.54318 0.14698 0.58887 0.0
H1837 H 0.57505 0.17987 0.4995 0.0
H1838 H 0.59153 0.15946 0.49086 0.0
H1839 H 0.60139 0.18386 0.51542 0.0
C1840 C 0.57774 0.78588 0.36437 0.0
C1841 C 0.57798 0.78429 0.38799 0.0
C1842 C 0.59714 0.79399 0.35527 0.0
C1843 C 0.61738 0.80002 0.36995 0.0
C1844 C 0.6176 0.7998 0.39411 0.0
C1845 C 0.59788 0.7921 0.40287 0.0
C1846 C 0.596 0.79497 0.32963 0.0
C1847 C 0.63874 0.80687 0.41053 0.0
C1848 C 0.6632 0.78314 0.33925 0.0
C1849 C 0.67509 0.80502 0.33532 0.0
C1850 C 0.64493 0.78161 0.35113 0.0
C1851 C 0.63806 0.80244 0.3593 0.0
C1852 C 0.65027 0.82477 0.35605 0.0
C1853 C 0.66859 0.82579 0.34401 0.0
C1854 C 0.63254 0.75744 0.35436 0.0
C1855 C 0.64358 0.84747 0.36439 0.0
H1856 H 0.56236 0.7806 0.35289 0.0
H1857 H 0.59812 0.7915 0.42128 0.0
H1858 H 0.60706 0.81155 0.32695 0.0
H1859 H 0.60137 0.77971 0.32027 0.0
H1860 H 0.5792 0.79409 0.32169 0.0
H1861 H 0.63618 0.80539 0.42878 0.0
H1862 H 0.64967 0.79544 0.40463 0.0
H1863 H 0.64727 0.82551 0.41036 0.0
H1864 H 0.66769 0.76691 0.33229 0.0
H1865 H 0.67771 0.84283 0.34126 0.0
H1866 H 0.61586 0.75291 0.34459 0.0
H1867 H 0.63087 0.75774 0.37308 0.0
H1868 H 0.64064 0.74314 0.34814 0.0
H1869 H 0.62991 0.84875 0.35184 0.0
H1870 H 0.65719 0.86346 0.3656 0.0
H1871 H 0.63779 0.84767 0.38168 0.0
C1872 C 0.0997 0.25792 0.43089 0.0
C1873 C 0.08727 0.27151 0.4211 0.0
C1874 C 0.08946 0.23771 0.43903 0.0
C1875 C 0.06644 0.23171 0.43793 0.0
C1876 C 0.05391 0.24551 0.428 0.0
C1877 C 0.06454 0.26516 0.41942 0.0
C1878 C 0.10321 0.22288 0.44894 0.0
C1879 C 0.02946 0.2402 0.42728 0.0
C1880 C 0.0426 0.16995 0.44815 0.0
C1881 C 0.04282 0.17465 0.47246 0.0
C1882 C 0.049 0.18861 0.43622 0.0
C1883 C 0.05582 0.21224 0.44905 0.0
C1884 C 0.05444 0.21715 0.47321 0.0
C1885 C 0.04793 0.19826 0.48462 0.0
C1886 C 0.04974 0.18299 0.41025 0.0
C1887 C 0.06154 0.24219 0.48742 0.0
H1888 H 0.1173 0.26282 0.43173 0.0
H1889 H 0.05509 0.27594 0.41184 0.0
H1890 H 0.10113 0.22283 0.46752 0.0
H1891 H 0.09774 0.20415 0.43937 0.0
H1892 H 0.12081 0.22957 0.44782 0.0
H1893 H 0.02192 0.24966 0.41515 0.0
H1894 H 0.02196 0.22082 0.42192 0.0
H1895 H 0.0255 0.24603 0.44502 0.0
H1896 H 0.03839 0.15167 0.43869 0.0
H1897 H 0.04843 0.20198 0.50344 0.0
H1898 H 0.06695 0.18677 0.40687 0.0
H1899 H 0.04161 0.19449 0.40122 0.0
H1900 H 0.04178 0.16405 0.40249 0.0
H1901 H 0.07954 0.24848 0.48914 0.0
H1902 H 0.0567 0.24323 0.50523 0.0
H1903 H 0.05445 0.25455 0.47858 0.0
C1904 C 0.56172 0.2801 0.20056 0.0
C1905 C 0.55384 0.26062 0.18217 0.0
C1906 C 0.5819 0.28307 0.21381 0.0
C1907 C 0.59394 0.26586 0.20858 0.0
C1908 C 0.58545 0.24553 0.19067 0.0
C1909 C 0.56548 0.24329 0.17743 0.0
C1910 C 0.59071 0.30506 0.2326 0.0
C1911 C 0.59762 0.22641 0.18518 0.0
C1912 C 0.65497 0.28184 0.21792 0.0
C1913 C 0.65905 0.27043 0.2364 0.0
C1914 C 0.63369 0.28161 0.20944 0.0
C1915 C 0.61633 0.27009 0.2201 0.0
C1916 C 0.62047 0.26036 0.24003 0.0
C1917 C 0.64195 0.26064 0.24801 0.0
C1918 C 0.62967 0.29183 0.18788 0.0
C1919 C 0.60216 0.24827 0.25187 0.0
H1920 H 0.5524 0.29332 0.2041 0.0
H1921 H 0.55888 0.22794 0.16348 0.0
H1922 H 0.59723 0.30031 0.2489 0.0
H1923 H 0.60439 0.31711 0.22679 0.0
H1924 H 0.57809 0.31493 0.23656 0.0
H1925 H 0.58873 0.21194 0.17043 0.0
H1926 H 0.61392 0.23425 0.18067 0.0
H1927 H 0.6002 0.21847 0.20078 0.0
H1928 H 0.66834 0.28969 0.20922 0.0
H1929 H 0.64518 0.25175 0.26225 0.0
H1930 H 0.61862 0.30387 0.19071 0.0
H1931 H 0.62154 0.27717 0.17301 0.0
H1932 H 0.64501 0.30184 0.18288 0.0
H1933 H 0.59178 0.26058 0.257 0.0
H1934 H 0.60827 0.2423 0.26766 0.0
H1935 H 0.59162 0.23255 0.23955 0.0
C1936 C 0.6068 0.92947 0.91139 0.0
C1937 C 0.60563 0.90766 0.91849 0.0
C1938 C 0.59566 0.94553 0.92184 0.0
C1939 C 0.58318 0.93944 0.93965 0.0
C1940 C 0.58138 0.91716 0.94634 0.0
C1941 C 0.59287 0.90167 0.93589 0.0
C1942 C 0.59789 0.96929 0.91449 0.0
C1943 C 0.56786 0.90995 0.96507 0.0
C1944 C 0.58142 0.98521 0.9913 0.0
C1945 C 0.55967 0.98646 0.9881 0.0
C1946 C 0.58957 0.97105 0.97472 0.0
C1947 C 0.57551 0.95771 0.95451 0.0
C1948 C 0.55374 0.9597 0.95055 0.0
C1949 C 0.54603 0.97437 0.9675 0.0
C1950 C 0.61285 0.96919 0.97966 0.0
C1951 C 0.53854 0.94579 0.92891 0.0
H1952 H 0.61635 0.93395 0.89765 0.0
H1953 H 0.59136 0.88456 0.94105 0.0
H1954 H 0.58188 0.97382 0.91264 0.0
H1955 H 0.60892 0.98341 0.92814 0.0
H1956 H 0.60471 0.96952 0.89773 0.0
H1957 H 0.56707 0.89131 0.96706 0.0
H1958 H 0.57488 0.92192 0.9821 0.0
H1959 H 0.551 0.91172 0.96088 0.0
H1960 H 0.5921 0.99501 0.00707 0.0
H1961 H 0.52929 0.97578 0.96507 0.0
H1962 H 0.62157 0.9719 0.96444 0.0
H1963 H 0.6129 0.9511 0.98282 0.0
H1964 H 0.62207 0.98238 0.99521 0.0
H1965 H 0.54487 0.95152 0.91323 0.0
H1966 H 0.52177 0.94832 0.92917 0.0
H1967 H 0.53777 0.92651 0.92708 0.0
C1968 C 0.91839 0.74396 0.67741 0.0
C1969 C 0.93771 0.74309 0.69028 0.0
C1970 C 0.90212 0.75133 0.68896 0.0
C1971 C 0.9061 0.75879 0.71352 0.0
C1972 C 0.92574 0.75823 0.72642 0.0
C1973 C 0.94119 0.7499 0.71462 0.0
C1974 C 0.8808 0.75105 0.67508 0.0
C1975 C 0.93029 0.76605 0.7527 0.0
C1976 C 0.87265 0.79636 0.74348 0.0
C1977 C 0.85817 0.7792 0.75217 0.0
C1978 C 0.8884 0.78989 0.73054 0.0
C1979 C 0.88932 0.7658 0.72628 0.0
C1980 C 0.87539 0.74865 0.73583 0.0
C1981 C 0.8601 0.75568 0.74895 0.0
C1982 C 0.90383 0.80866 0.72125 0.0
C1983 C 0.87556 0.7226 0.73135 0.0
H1984 H 0.91605 0.73885 0.65852 0.0
H1985 H 0.95645 0.74966 0.72442 0.0
H1986 H 0.86697 0.74073 0.68229 0.0
H1987 H 0.87879 0.76948 0.67652 0.0
H1988 H 0.87983 0.74316 0.6563 0.0
H1989 H 0.94738 0.76692 0.75966 0.0
H1990 H 0.92709 0.78384 0.75807 0.0
H1991 H 0.91923 0.7533 0.76091 0.0
H1992 H 0.87118 0.8146 0.74601 0.0
H1993 H 0.84894 0.74233 0.75561 0.0
H1994 H 0.90175 0.8042 0.70189 0.0
H1995 H 0.92095 0.80908 0.72756 0.0
H1996 H 0.90117 0.82671 0.72665 0.0
H1997 H 0.86357 0.71326 0.71575 0.0
H1998 H 0.87059 0.71429 0.74632 0.0
H1999 H 0.89166 0.71952 0.72806 0.0
C2000 C 0.12423 1.00515 0.85382 0.0
C2001 C 0.12774 0.02514 0.84279 0.0
C2002 C 0.11444 1.00496 0.87517 0.0
C2003 C 0.10783 0.02524 0.88671 0.0
C2004 C 0.11168 0.04542 0.87575 0.0
C2005 C 0.12124 0.04507 0.85452 0.0
C2006 C 0.11049 0.98252 0.88501 0.0
C2007 C 0.10534 0.06769 0.88635 0.0
C2008 C 0.06159 0.01918 0.92734 0.0
C2009 C 0.0724 0.02741 0.95059 0.0
C2010 C 0.07265 0.01817 0.90711 0.0
C2011 C 0.09583 0.02524 0.90907 0.0
C2012 C 0.10701 0.03349 0.9325 0.0
C2013 C 0.09541 0.03457 0.95264 0.0
C2014 C 0.05922 0.00965 0.88332 0.0
C2015 C 0.13152 0.04102 0.93638 0.0
H2016 H 0.12845 0.98925 0.84539 0.0
H2017 H 0.12348 0.06085 0.84686 0.0
H2018 H 0.11562 0.9867 0.90418 0.0
H2019 H 0.09278 0.97384 0.88193 0.0
H2020 H 0.11927 0.96968 0.87678 0.0
H2021 H 0.1084 0.08165 0.87557 0.0
H2022 H 0.08781 0.06346 0.88849 0.0
H2023 H 0.11473 0.07502 0.90399 0.0
H2024 H 0.04395 0.01355 0.92475 0.0
H2025 H 0.10448 0.04085 0.97 0.0
H2026 H 0.06388 0.99393 0.87389 0.0
H2027 H 0.06254 0.02377 0.87278 0.0
H2028 H 0.04145 1.00472 0.88432 0.0
H2029 H 0.13811 0.02545 0.9303 0.0
H2030 H 0.13809 0.04831 0.95506 0.0
H2031 H 0.13743 0.05467 0.92592 0.0
C2032 C 0.84997 0.42737 0.57615 0.0
C2033 C 0.82899 0.41672 0.5642 0.0
C2034 C 0.85794 0.41887 0.59524 0.0
C2035 C 0.84431 0.39977 0.60265 0.0
C2036 C 0.82282 0.38947 0.59105 0.0
C2037 C 0.8155 0.39796 0.57171 0.0
C2038 C 0.88114 0.42962 0.60678 0.0
C2039 C 0.8076 0.36944 0.59896 0.0
C2040 C 0.86117 0.35584 0.63518 0.0
C2041 C 0.85485 0.36308 0.65694 0.0
C2042 C 0.86008 0.36923 0.61773 0.0
C2043 C 0.85227 0.39 0.62233 0.0
C2044 C 0.84831 0.39876 0.64507 0.0
C2045 C 0.85002 0.38528 0.66232 0.0
C2046 C 0.86473 0.35961 0.59367 0.0
C2047 C 0.84002 0.42094 0.6505 0.0
H2048 H 0.86047 0.44169 0.56997 0.0
H2049 H 0.79925 0.38989 0.56241 0.0
H2050 H 0.8817 0.4349 0.62593 0.0
H2051 H 0.89079 0.41612 0.60382 0.0
H2052 H 0.88908 0.44544 0.59987 0.0
H2053 H 0.79153 0.3633 0.58774 0.0
H2054 H 0.81496 0.35402 0.59875 0.0
H2055 H 0.80489 0.37542 0.6172 0.0
H2056 H 0.86496 0.33866 0.63102 0.0
H2057 H 0.8457 0.39106 0.67944 0.0
H2058 H 0.87363 0.37418 0.58576 0.0
H2059 H 0.8491 0.35105 0.58215 0.0
H2060 H 0.87442 0.34612 0.59409 0.0
H2061 H 0.85168 0.43635 0.64641 0.0
H2062 H 0.83759 0.42519 0.66912 0.0
H2063 H 0.82425 0.41862 0.63943 0.0
C2064 C 0.48963 0.04436 0.36314 0.0
C2065 C 0.46998 0.02773 0.35519 0.0
C2066 C 0.49812 0.04894 0.38641 0.0
C2067 C 0.48651 0.03608 0.40157 0.0
C2068 C 0.46577 0.02036 0.39388 0.0
C2069 C 0.45749 0.0164 0.3703 0.0
C2070 C 0.52049 0.06569 0.39403 0.0
C2071 C 0.45318 1.00691 0.41015 0.0
C2072 C 0.52941 0.02428 0.44095 0.0
C2073 C 0.53267 0.04407 0.45874 0.0
C2074 C 0.51235 0.01975 0.42306 0.0
C2075 C 0.49855 0.03557 0.42352 0.0
C2076 C 0.50095 0.05468 0.44243 0.0
C2077 C 0.51848 0.05899 0.45994 0.0
C2078 C 0.51033 0.99933 0.40283 0.0
C2079 C 0.48601 0.07135 0.44322 0.0
H2080 H 0.49861 0.05334 0.35095 0.0
H2081 H 0.44186 1.004 0.36356 0.0
H2082 H 0.52077 0.07829 0.41045 0.0
H2083 H 0.53259 0.05525 0.39731 0.0
H2084 H 0.52579 0.07621 0.38058 0.0
H2085 H 0.43695 0.9959 0.4014 0.0
H2086 H 0.46252 0.99507 0.41695 0.0
H2087 H 0.4509 0.01959 0.42545 0.0
H2088 H 0.54022 0.0124 0.44112 0.0
H2089 H 0.52092 0.07368 0.47463 0.0
H2090 H 0.51549 1.00649 0.38731 0.0
H2091 H 0.49319 0.98882 0.3981 0.0
H2092 H 0.52064 0.98717 0.40683 0.0
H2093 H 0.48982 0.08316 0.43045 0.0
H2094 H 0.48781 0.0827 0.46077 0.0
H2095 H 0.46877 0.06114 0.43824 0.0
C2096 C 0.78669 0.74491 0.07575 0.0
C2097 C 0.7842 0.72019 0.07171 0.0
C2098 C 0.78898 0.75802 0.09867 0.0
C2099 C 0.78901 0.74608 0.11778 0.0
C2100 C 0.78735 0.72132 0.11376 0.0
C2101 C 0.78491 0.70874 0.09087 0.0
C2102 C 0.79109 0.78451 0.10248 0.0
C2103 C 0.78764 0.70788 0.13362 0.0
C2104 C 0.81191 0.77593 0.18015 0.0
C2105 C 0.79283 0.7753 0.19063 0.0
C2106 C 0.81097 0.76782 0.15613 0.0
C2107 C 0.79043 0.75901 0.14215 0.0
C2108 C 0.77114 0.75952 0.15234 0.0
C2109 C 0.77256 0.76772 0.17651 0.0
C2110 C 0.83192 0.76723 0.14607 0.0
C2111 C 0.74896 0.75028 0.13788 0.0
H2112 H 0.78637 0.75389 0.06105 0.0
H2113 H 0.78345 0.68972 0.08803 0.0
H2114 H 0.77798 0.78908 0.11222 0.0
H2115 H 0.80685 0.7941 0.11329 0.0
H2116 H 0.7902 0.79105 0.08578 0.0
H2117 H 0.78799 0.68903 0.12759 0.0
H2118 H 0.80205 0.71655 0.14693 0.0
H2119 H 0.7729 0.70812 0.14232 0.0
H2120 H 0.82772 0.78206 0.19082 0.0
H2121 H 0.75777 0.76729 0.18443 0.0
H2122 H 0.83256 0.77569 0.13051 0.0
H2123 H 0.83259 0.74848 0.14027 0.0
H2124 H 0.84658 0.77643 0.15894 0.0
H2125 H 0.74796 0.75992 0.12323 0.0
H2126 H 0.73555 0.75233 0.14832 0.0
H2127 H 0.74642 0.73114 0.13013 0.0
C2128 C 0.12947 0.99962 0.67598 0.0
C2129 C 0.12813 0.01305 0.69793 0.0
C2130 C 0.11846 1.00251 0.65464 0.0
C2131 C 0.10639 0.02019 0.65442 0.0
C2132 C 0.10485 0.03368 0.67657 0.0
C2133 C 0.11526 0.02971 0.69777 0.0
C2134 C 0.11987 0.98659 0.63212 0.0
C2135 C 0.09228 0.05262 0.67788 0.0
C2136 C 0.09917 0.0458 0.59749 0.0
C2137 C 0.07805 0.03335 0.58658 0.0
C2138 C 0.10838 0.04164 0.61913 0.0
C2139 C 0.09621 0.02506 0.63118 0.0
C2140 C 0.07456 0.01295 0.62047 0.0
C2141 C 0.06607 0.01681 0.59837 0.0
C2142 C 0.13151 0.05481 0.62896 0.0
C2143 C 0.06028 0.99536 0.63201 0.0
H2144 H 0.13904 0.9865 0.67548 0.0
H2145 H 0.11392 0.04035 0.7143 0.0
H2146 H 0.10334 0.97855 0.62227 0.0
H2147 H 0.12946 0.9973 0.62099 0.0
H2148 H 0.12765 0.97203 0.63514 0.0
H2149 H 0.09324 0.06241 0.69603 0.0
H2150 H 0.09861 0.06558 0.66687 0.0
H2151 H 0.0749 0.04435 0.67087 0.0
H2152 H 0.10884 0.05843 0.58869 0.0
H2153 H 0.0498 1.00691 0.59035 0.0
H2154 H 0.14169 0.04188 0.62998 0.0
H2155 H 0.13208 0.06465 0.64699 0.0
H2156 H 0.13878 0.0676 0.61817 0.0
H2157 H 0.06455 0.97797 0.62807 0.0
H2158 H 0.04274 0.99261 0.62545 0.0
H2159 H 0.06273 1.00128 0.65126 0.0
C2160 C 0.82606 0.37856 0.43016 0.0
C2161 C 0.81583 0.39692 0.42777 0.0
C2162 C 0.82502 0.36036 0.41114 0.0
C2163 C 0.81303 0.36047 0.38967 0.0
C2164 C 0.80257 0.37897 0.38726 0.0
C2165 C 0.80443 0.39729 0.40639 0.0
C2166 C 0.83685 0.3412 0.41391 0.0
C2167 C 0.78903 0.37908 0.36471 0.0
C2168 C 0.82428 0.32895 0.33273 0.0
C2169 C 0.80699 0.30869 0.32791 0.0
C2170 C 0.82706 0.34553 0.35343 0.0
C2171 C 0.81189 0.34166 0.36937 0.0
C2172 C 0.79486 0.32064 0.36508 0.0
C2173 C 0.79277 0.30411 0.34435 0.0
C2174 C 0.84549 0.36774 0.35765 0.0
C2175 C 0.77836 0.31614 0.3818 0.0
H2176 H 0.83496 0.37856 0.44688 0.0
H2177 H 0.7963 0.41144 0.40491 0.0
H2178 H 0.82539 0.32335 0.40877 0.0
H2179 H 0.84958 0.34179 0.40213 0.0
H2180 H 0.84473 0.34324 0.43212 0.0
H2181 H 0.78247 0.39516 0.36568 0.0
H2182 H 0.79888 0.37829 0.35008 0.0
H2183 H 0.77513 0.36307 0.36053 0.0
H2184 H 0.83527 0.33218 0.32004 0.0
H2185 H 0.77924 0.28842 0.34037 0.0
H2186 H 0.85506 0.37015 0.37508 0.0
H2187 H 0.83877 0.38358 0.35754 0.0
H2188 H 0.85666 0.36719 0.34417 0.0
H2189 H 0.78653 0.31384 0.39852 0.0
H2190 H 0.76496 0.29999 0.37474 0.0
H2191 H 0.77116 0.33164 0.38579 0.0
C2192 C 0.44361 0.02561 0.20712 0.0
C2193 C 0.45767 0.02994 0.22805 0.0
C2194 C 0.44768 0.01191 0.18699 0.0
C2195 C 0.46591 1.00195 0.18817 0.0
C2196 C 0.4793 1.00495 0.2096 0.0
C2197 C 0.47554 0.01979 0.2291 0.0
C2198 C 0.43361 0.00987 0.16415 0.0
C2199 C 0.49865 0.99418 0.2117 0.0
C2200 C 0.47501 0.96635 0.13157 0.0
C2201 C 0.48925 0.9843 0.12376 0.0
C2202 C 0.46762 0.97147 0.15325 0.0
C2203 C 0.4745 0.99497 0.1665 0.0
C2204 C 0.48922 0.01288 0.15864 0.0
C2205 C 0.49652 1.0072 0.13745 0.0
C2206 C 0.45265 0.95199 0.16203 0.0
C2207 C 0.497 0.03822 0.17229 0.0
H2208 H 0.42967 0.03334 0.20632 0.0
H2209 H 0.48672 0.0234 0.24511 0.0
H2210 H 0.44324 0.02019 0.15274 0.0
H2211 H 0.42831 0.99108 0.15482 0.0
H2212 H 0.41893 0.01677 0.16666 0.0
H2213 H 0.50154 0.99007 0.22939 0.0
H2214 H 0.49641 0.97763 0.19849 0.0
H2215 H 0.51346 1.00717 0.20915 0.0
H2216 H 0.46974 0.94864 0.12086 0.0
H2217 H 0.50781 0.02088 0.13125 0.0
H2218 H 0.4365 0.95598 0.16309 0.0
H2219 H 0.45936 0.95111 0.17995 0.0
H2220 H 0.45032 0.9343 0.15055 0.0
H2221 H 0.48289 0.04577 0.17589 0.0
H2222 H 0.50768 0.05008 0.16287 0.0
H2223 H 0.50633 0.03853 0.18933 0.0
C2224 C 0.77542 0.73976 0.92139 0.0
C2225 C 0.79057 0.72803 0.92971 0.0
C2226 C 0.77782 0.74979 0.90124 0.0
C2227 C 0.7962 0.74876 0.88947 0.0
C2228 C 0.81188 0.7375 0.89824 0.0
C2229 C 0.80868 0.72693 0.91796 0.0
C2230 C 0.76046 0.76111 0.89229 0.0
C2231 C 0.83225 0.737 0.88702 0.0
C2232 C 0.79326 0.75705 0.82584 0.0
C2233 C 0.80347 0.78125 0.82834 0.0
C2234 C 0.79101 0.74616 0.8455 0.0
C2235 C 0.79917 0.75979 0.86827 0.0
C2236 C 0.80982 0.78418 0.87078 0.0
C2237 C 0.81173 0.79457 0.85088 0.0
C2238 C 0.7796 0.72011 0.84194 0.0
C2239 C 0.81885 0.79953 0.89455 0.0
H2240 H 0.76131 0.74051 0.93027 0.0
H2241 H 0.82058 0.71813 0.92447 0.0
H2242 H 0.7678 0.77974 0.89087 0.0
H2243 H 0.75285 0.75131 0.8745 0.0
H2244 H 0.74748 0.7611 0.90375 0.0
H2245 H 0.84223 0.72639 0.89502 0.0
H2246 H 0.82798 0.7295 0.86805 0.0
H2247 H 0.84234 0.75546 0.88889 0.0
H2248 H 0.78668 0.74674 0.8086 0.0
H2249 H 0.81964 0.81333 0.85303 0.0
H2250 H 0.76486 0.71798 0.85092 0.0
H2251 H 0.79044 0.71031 0.84983 0.0
H2252 H 0.77465 0.71183 0.82316 0.0
H2253 H 0.8052 0.80234 0.90428 0.0
H2254 H 0.82905 0.81723 0.89335 0.0
H2255 H 0.8288 0.79058 0.9049 0.0
C2256 C 0.83974 0.08713 0.0244 0.0
C2257 C 0.83214 0.10586 0.01784 0.0
C2258 C 0.85727 0.08055 0.01469 0.0
C2259 C 0.867 0.09297 0.99803 0.0
C2260 C 0.85877 0.11123 0.99069 0.0
C2261 C 0.8415 0.11754 1.0008 0.0
C2262 C 0.86577 0.06083 0.02275 0.0
C2263 C 0.86784 0.12392 0.97197 0.0
C2264 C 0.92585 0.09289 0.99921 0.0
C2265 C 0.92423 0.07164 0.9834 0.0
C2266 C 0.90731 0.10112 0.00305 0.0
C2267 C 0.88705 0.08822 0.99009 0.0
C2268 C 0.88589 0.06901 0.97166 0.0
C2269 C 0.90451 0.0606 0.96876 0.0
C2270 C 0.90905 0.12238 0.02227 0.0
C2271 C 0.86468 0.05606 0.95641 0.0
H2272 H 0.83224 0.07792 0.03727 0.0
H2273 H 0.83513 0.13154 0.99498 0.0
H2274 H 0.86642 0.04709 0.00753 0.0
H2275 H 0.88264 0.06818 0.03195 0.0
H2276 H 0.85553 0.05209 0.03473 0.0
H2277 H 0.86243 0.14057 0.97165 0.0
H2278 H 0.88591 0.12838 0.97436 0.0
H2279 H 0.86206 0.112 0.95467 0.0
H2280 H 0.9413 0.10213 0.00975 0.0
H2281 H 0.90307 0.04434 0.95626 0.0
H2282 H 0.89967 0.1167 0.03628 0.0
H2283 H 0.90185 0.13582 0.0154 0.0
H2284 H 0.92619 0.13098 0.0301 0.0
H2285 H 0.85468 0.04378 0.96595 0.0
H2286 H 0.86746 0.04542 0.93994 0.0
H2287 H 0.85515 0.06875 0.95201 0.0
C2288 C 0.39052 0.46157 0.01438 0.0
C2289 C 0.38431 0.44324 0.02696 0.0
C2290 C 0.41247 0.47298 0.01436 0.0
C2291 C 0.42913 0.46598 0.02708 0.0
C2292 C 0.42317 0.44707 0.03937 0.0
C2293 C 0.40087 0.43598 0.03924 0.0
C2294 C 0.41774 0.49286 1.00086 0.0
C2295 C 0.44035 0.4389 0.05309 0.0
C2296 C 0.4866 0.48833 0.01138 0.0
C2297 C 0.4952 0.50861 0.02896 0.0
C2298 C 0.46554 0.47366 0.01108 0.0
C2299 C 0.45253 0.4796 0.02852 0.0
C2300 C 0.46129 0.49997 0.04638 0.0
C2301 C 0.48248 0.51398 0.04651 0.0
C2302 C 0.45709 0.45198 0.9919 0.0
C2303 C 0.44792 0.50758 0.06487 0.0
H2304 H 0.3781 0.46731 0.0045 0.0
H2305 H 0.39644 0.42181 0.04891 0.0
H2306 H 0.42827 0.50917 0.01238 0.0
H2307 H 0.42691 0.48764 0.98648 0.0
H2308 H 0.40288 0.49729 0.99319 0.0
H2309 H 0.43354 0.4218 0.05852 0.0
H2310 H 0.45372 0.43673 0.04265 0.0
H2311 H 0.44759 0.45259 0.069 0.0
H2312 H 0.49629 0.48398 0.99778 0.0
H2313 H 0.48885 0.52967 0.06011 0.0
H2314 H 0.44281 0.45412 0.98085 0.0
H2315 H 0.45151 0.43598 0.99957 0.0
H2316 H 0.46964 0.44885 0.98059 0.0
H2317 H 0.43362 0.51252 0.05656 0.0
H2318 H 0.45742 0.52305 0.07829 0.0
H2319 H 0.4416 0.49263 0.07368 0.0
C2320 C 0.40516 0.65668 0.75866 0.0
C2321 C 0.39393 0.63291 0.75894 0.0
C2322 C 0.39468 0.67621 0.7598 0.0
C2323 C 0.37199 0.67309 0.76214 0.0
C2324 C 0.36078 0.64929 0.76331 0.0
C2325 C 0.37148 0.62994 0.76127 0.0
C2326 C 0.40825 0.70044 0.75849 0.0
C2327 C 0.33716 0.6441 0.76703 0.0
C2328 C 0.34968 0.73025 0.78392 0.0
C2329 C 0.33708 0.73327 0.76388 0.0
C2330 C 0.3605 0.71107 0.7838 0.0
C2331 C 0.36002 0.69415 0.76289 0.0
C2332 C 0.34774 0.6976 0.74252 0.0
C2333 C 0.33633 0.71629 0.74337 0.0
C2334 C 0.37231 0.70881 0.80649 0.0
C2335 C 0.3471 0.68178 0.7193 0.0
H2336 H 0.42239 0.66012 0.75709 0.0
H2337 H 0.3621 0.61225 0.76188 0.0
H2338 H 0.39905 0.70954 0.74747 0.0
H2339 H 0.41253 0.7116 0.77628 0.0
H2340 H 0.42366 0.69936 0.75135 0.0
H2341 H 0.33164 0.62644 0.77187 0.0
H2342 H 0.33444 0.658 0.78098 0.0
H2343 H 0.32689 0.64433 0.75076 0.0
H2344 H 0.35062 0.74263 0.80013 0.0
H2345 H 0.32699 0.71787 0.72753 0.0
H2346 H 0.39014 0.71455 0.80632 0.0
H2347 H 0.36842 0.68999 0.80872 0.0
H2348 H 0.36806 0.71997 0.82177 0.0
H2349 H 0.36391 0.68389 0.71473 0.0
H2350 H 0.33674 0.68601 0.70505 0.0
H2351 H 0.34085 0.66284 0.72035 0.0
C2352 C 0.2093 0.59393 0.50041 0.0
C2353 C 0.21916 0.61592 0.51494 0.0
C2354 C 0.18734 0.58346 0.50058 0.0
C2355 C 0.17563 0.59558 0.51564 0.0
C2356 C 0.18599 0.61696 0.53142 0.0
C2357 C 0.20775 0.62699 0.53075 0.0
C2358 C 0.17655 0.56023 0.48406 0.0
C2359 C 0.1739 0.6298 0.5483 0.0
C2360 C 0.11743 0.59432 0.49934 0.0
C2361 C 0.10816 0.58259 0.51609 0.0
C2362 C 0.13957 0.59751 0.49804 0.0
C2363 C 0.1521 0.58793 0.5134 0.0
C2364 C 0.14255 0.57514 0.52966 0.0
C2365 C 0.12063 0.57328 0.53135 0.0
C2366 C 0.14963 0.61174 0.48083 0.0
C2367 C 0.15543 0.56346 0.54511 0.0
H2368 H 0.21854 0.58538 0.48851 0.0
H2369 H 0.2158 0.64363 0.54252 0.0
H2370 H 0.16498 0.54837 0.49261 0.0
H2371 H 0.16709 0.5638 0.46876 0.0
H2372 H 0.18872 0.55072 0.47759 0.0
H2373 H 0.18463 0.64632 0.55932 0.0
H2374 H 0.16025 0.63458 0.53855 0.0
H2375 H 0.16681 0.61799 0.56 0.0
H2376 H 0.10727 0.60066 0.48717 0.0
H2377 H 0.11301 0.56339 0.5437 0.0
H2378 H 0.15912 0.60163 0.46999 0.0
H2379 H 0.16109 0.62849 0.49048 0.0
H2380 H 0.13719 0.61635 0.46904 0.0
H2381 H 0.16274 0.55086 0.53413 0.0
H2382 H 0.14518 0.55356 0.55637 0.0
H2383 H 0.16905 0.57701 0.55646 0.0
C2384 C 0.7263 0.99293 0.74197 0.0
C2385 C 0.71486 1.00734 0.7541 0.0
C2386 C 0.73473 0.97703 0.75299 0.0
C2387 C 0.73139 0.976 0.77645 0.0
C2388 C 0.72027 0.99117 0.78882 0.0
C2389 C 0.71216 1.00688 0.77739 0.0
C2390 C 0.74635 0.96074 0.73929 0.0
C2391 C 0.7166 0.9906 0.81384 0.0
C2392 C 0.73713 0.91765 0.78948 0.0
C2393 C 0.75963 0.92336 0.79676 0.0
C2394 C 0.72693 0.93531 0.78474 0.0
C2395 C 0.73967 0.95893 0.78783 0.0
C2396 C 0.76157 0.96525 0.79833 0.0
C2397 C 0.77138 0.94725 0.80269 0.0
C2398 C 0.70328 0.92833 0.77399 0.0
C2399 C 0.77537 0.99047 0.80203 0.0
H2400 H 0.72773 0.99333 0.72373 0.0
H2401 H 0.70294 0.0182 0.78633 0.0
H2402 H 0.76281 0.9626 0.74867 0.0
H2403 H 0.73715 0.94194 0.73754 0.0
H2404 H 0.74812 0.96451 0.72151 0.0
H2405 H 0.70408 1.00013 0.81917 0.0
H2406 H 0.71146 0.97203 0.81658 0.0
H2407 H 0.7321 0.9993 0.82552 0.0
H2408 H 0.72801 0.89918 0.78543 0.0
H2409 H 0.7888 0.95176 0.8083 0.0
H2410 H 0.70223 0.92918 0.75515 0.0
H2411 H 0.69433 0.94093 0.7823 0.0
H2412 H 0.69503 0.90999 0.77564 0.0
H2413 H 0.77955 0.99461 0.78495 0.0
H2414 H 0.79079 0.99309 0.81384 0.0
H2415 H 0.76632 1.00338 0.80943 0.0
C2416 C 0.73921 0.9018 0.50973 0.0
C2417 C 0.75696 0.91665 0.52546 0.0
C2418 C 0.72096 0.91009 0.50284 0.0
C2419 C 0.7203 0.93372 0.51217 0.0
C2420 C 0.73832 0.94883 0.52781 0.0
C2421 C 0.75645 0.94017 0.53411 0.0
C2422 C 0.70266 0.89371 0.48525 0.0
C2423 C 0.73821 0.97404 0.53842 0.0
C2424 C 0.68257 0.96864 0.48846 0.0
C2425 C 0.66659 0.96655 0.50362 0.0
C2426 C 0.69918 0.95642 0.48968 0.0
C2427 C 0.7004 0.94247 0.50702 0.0
C2428 C 0.68363 0.93906 0.52131 0.0
C2429 C 0.66675 0.95069 0.51909 0.0
C2430 C 0.71597 0.95927 0.47309 0.0
C2431 C 0.684 0.92392 0.53971 0.0
H2432 H 0.73965 0.88371 0.50255 0.0
H2433 H 0.77013 0.95176 0.54615 0.0
H2434 H 0.68658 0.89399 0.491 0.0
H2435 H 0.70283 0.89996 0.4684 0.0
H2436 H 0.70424 0.87504 0.48214 0.0
H2437 H 0.75371 0.98371 0.54975 0.0
H2438 H 0.73546 0.9841 0.52448 0.0
H2439 H 0.7246 0.97381 0.54902 0.0
H2440 H 0.68278 0.98063 0.47627 0.0
H2441 H 0.65401 0.94788 0.53011 0.0
H2442 H 0.71815 0.94161 0.46512 0.0
H2443 H 0.73194 0.96986 0.48279 0.0
H2444 H 0.71134 0.96833 0.4589 0.0
H2445 H 0.68293 0.90526 0.53131 0.0
H2446 H 0.67035 0.92404 0.55023 0.0
H2447 H 0.6996 0.93039 0.5517 0.0
C2448 C 0.37227 0.4736 0.74983 0.0
C2449 C 0.39529 0.47946 0.75395 0.0
C2450 C 0.35928 0.45046 0.75108 0.0
C2451 C 0.36906 0.43225 0.75728 0.0
C2452 C 0.39223 0.43837 0.76194 0.0
C2453 C 0.40476 0.46124 0.75993 0.0
C2454 C 0.33486 0.44545 0.74558 0.0
C2455 C 0.40407 0.42059 0.76904 0.0
C2456 C 0.33406 0.37983 0.7817 0.0
C2457 C 0.32924 0.36014 0.76291 0.0
C2458 C 0.34711 0.40274 0.78029 0.0
C2459 C 0.35536 0.40717 0.7592 0.0
C2460 C 0.35065 0.38726 0.74017 0.0
C2461 C 0.33784 0.36437 0.74222 0.0
C2462 C 0.35185 0.42244 0.80153 0.0
C2463 C 0.35839 0.39035 0.71709 0.0
H2464 H 0.36432 0.48695 0.74514 0.0
H2465 H 0.42237 0.46493 0.76337 0.0
H2466 H 0.32842 0.42837 0.73295 0.0
H2467 H 0.32739 0.44363 0.76176 0.0
H2468 H 0.32967 0.45985 0.73822 0.0
H2469 H 0.42162 0.42881 0.77537 0.0
H2470 H 0.39653 0.4124 0.78301 0.0
H2471 H 0.40282 0.40606 0.75384 0.0
H2472 H 0.32716 0.37744 0.79762 0.0
H2473 H 0.33374 0.34996 0.72713 0.0
H2474 H 0.34433 0.43694 0.79781 0.0
H2475 H 0.3697 0.43015 0.80584 0.0
H2476 H 0.34554 0.41616 0.81702 0.0
H2477 H 0.34994 0.40238 0.7093 0.0
H2478 H 0.35516 0.37315 0.70455 0.0
H2479 H 0.37611 0.39881 0.71962 0.0
C2480 C 0.18419 0.63833 0.2336 0.0
C2481 C 0.17771 0.62975 0.25325 0.0
C2482 C 0.20282 0.65652 0.23576 0.0
C2483 C 0.21381 0.66751 0.25834 0.0
C2484 C 0.20597 0.66062 0.27856 0.0
C2485 C 0.18806 0.64111 0.27569 0.0
C2486 C 0.21155 0.66281 0.21383 0.0
C2487 C 0.21665 0.67332 0.30289 0.0
C2488 C 0.2715 0.69976 0.2575 0.0
C2489 C 0.26795 0.72123 0.25325 0.0
C2490 C 0.2539 0.68194 0.26042 0.0
C2491 C 0.23304 0.68679 0.26015 0.0
C2492 C 0.22987 0.70905 0.25699 0.0
C2493 C 0.24729 0.7257 0.25247 0.0
C2494 C 0.25752 0.65802 0.2633 0.0
C2495 C 0.20809 0.71517 0.25802 0.0
H2496 H 0.17634 0.62879 0.21632 0.0
H2497 H 0.18299 0.63384 0.2907 0.0
H2498 H 0.2106 0.68114 0.21241 0.0
H2499 H 0.22895 0.66232 0.21453 0.0
H2500 H 0.20234 0.65048 0.19774 0.0
H2501 H 0.21142 0.66273 0.31631 0.0
H2502 H 0.23468 0.6775 0.30426 0.0
H2503 H 0.21206 0.69053 0.30701 0.0
H2504 H 0.2879 0.6972 0.25898 0.0
H2505 H 0.24511 0.74297 0.25006 0.0
H2506 H 0.24912 0.64441 0.24771 0.0
H2507 H 0.25044 0.65249 0.2787 0.0
H2508 H 0.2751 0.65813 0.2654 0.0
H2509 H 0.19722 0.70672 0.24141 0.0
H2510 H 0.20976 0.7347 0.26065 0.0
H2511 H 0.20007 0.70835 0.27241 0.0
C2512 C 0.50659 0.68356 0.44582 0.0
C2513 C 0.52059 0.70644 0.4515 0.0
C2514 C 0.51117 0.66482 0.45604 0.0
C2515 C 0.53058 0.66881 0.47178 0.0
C2516 C 0.54484 0.69189 0.47745 0.0
C2517 C 0.53951 0.71046 0.46754 0.0
C2518 C 0.49521 0.64069 0.44998 0.0
C2519 C 0.56606 0.69683 0.49344 0.0
C2520 C 0.53272 0.62385 0.51165 0.0
C2521 C 0.54395 0.6089 0.4995 0.0
C2522 C 0.52894 0.6439 0.50327 0.0
C2523 C 0.53607 0.64872 0.48194 0.0
C2524 C 0.54779 0.63376 0.46988 0.0
C2525 C 0.55167 0.61412 0.47889 0.0
C2526 C 0.51687 0.65961 0.51699 0.0
C2527 C 0.55554 0.63796 0.44701 0.0
H2528 H 0.49195 0.68035 0.43348 0.0
H2529 H 0.55062 0.728 0.47171 0.0
H2530 H 0.50355 0.62683 0.44316 0.0
H2531 H 0.4887 0.63601 0.46597 0.0
H2532 H 0.48131 0.64016 0.43677 0.0
H2533 H 0.57467 0.71601 0.49737 0.0
H2534 H 0.56313 0.69087 0.51012 0.0
H2535 H 0.57693 0.68656 0.48514 0.0
H2536 H 0.5267 0.61969 0.52756 0.0
H2537 H 0.56014 0.60232 0.4694 0.0
H2538 H 0.50112 0.65873 0.50657 0.0
H2539 H 0.52644 0.67842 0.52055 0.0
H2540 H 0.51356 0.6543 0.53389 0.0
H2541 H 0.54125 0.63448 0.43338 0.0
H2542 H 0.56622 0.62623 0.44103 0.0
H2543 H 0.56459 0.65678 0.4486 0.0
C2544 C 0.64954 0.29681 0.66671 0.0
C2545 C 0.65271 0.31416 0.65267 0.0
C2546 C 0.66722 0.29085 0.67865 0.0
C2547 C 0.68888 0.30336 0.67766 0.0
C2548 C 0.69223 0.32061 0.66313 0.0
C2549 C 0.67418 0.3254 0.65045 0.0
C2550 C 0.66249 0.27174 0.69308 0.0
C2551 C 0.7149 0.33475 0.66179 0.0
C2552 C 0.7301 0.31392 0.73237 0.0
C2553 C 0.74355 0.29852 0.72614 0.0
C2554 C 0.7123 0.31522 0.71696 0.0
C2555 C 0.70758 0.30098 0.69426 0.0
C2556 C 0.7208 0.285 0.68781 0.0
C2557 C 0.73856 0.28385 0.70386 0.0
C2558 C 0.69859 0.33212 0.72507 0.0
C2559 C 0.71596 0.26884 0.66413 0.0
H2560 H 0.63316 0.28767 0.6684 0.0
H2561 H 0.67686 0.33872 0.63957 0.0
H2562 H 0.67487 0.26113 0.69243 0.0
H2563 H 0.66289 0.28017 0.71157 0.0
H2564 H 0.64611 0.25948 0.68703 0.0
H2565 H 0.71495 0.34716 0.64942 0.0
H2566 H 0.72246 0.34524 0.67935 0.0
H2567 H 0.72525 0.32252 0.65624 0.0
H2568 H 0.73344 0.32518 0.74959 0.0
H2569 H 0.74861 0.27171 0.69889 0.0
H2570 H 0.68149 0.32205 0.72457 0.0
H2571 H 0.69848 0.34493 0.71316 0.0
H2572 H 0.7046 0.3423 0.74313 0.0
H2573 H 0.70046 0.25522 0.66315 0.0
H2574 H 0.72909 0.25959 0.66063 0.0
H2575 H 0.71376 0.27905 0.65017 0.0
C2576 C 0.03669 0.36677 0.93894 0.0
C2577 C 0.02532 0.34627 0.94596 0.0
C2578 C 0.03856 0.38947 0.95204 0.0
C2579 C 0.02895 0.39179 0.97285 0.0
C2580 C 0.01805 0.37122 0.98052 0.0
C2581 C 0.01637 0.34861 0.96697 0.0
C2582 C 0.05048 0.41097 0.94332 0.0
C2583 C 0.00762 0.37318 0.00264 0.0
C2584 C 0.04957 0.45264 0.01186 0.0
C2585 C 0.03363 0.46412 0.00507 0.0
C2586 C 0.04765 0.42859 1.0025 0.0
C2587 C 0.02951 0.41591 0.98578 0.0
C2588 C 0.01291 0.42714 0.97964 0.0
C2589 C 0.01509 0.45109 0.98953 0.0
C2590 C 0.06561 0.41715 0.00956 0.0
C2591 C 0.99368 0.41445 0.96128 0.0
H2592 H 0.04397 0.36514 0.92293 0.0
H2593 H 0.00759 0.33285 0.97251 0.0
H2594 H 0.0399 0.42343 0.94181 0.0
H2595 H 0.06509 0.4207 0.95599 0.0
H2596 H 0.05582 0.40607 0.92604 0.0
H2597 H 0.00146 0.35555 0.00733 0.0
H2598 H 0.01948 0.38482 0.0174 0.0
H2599 H 0.99377 0.38155 1.00039 0.0
H2600 H 0.06391 0.46267 0.02391 0.0
H2601 H 0.00286 0.45994 0.98395 0.0
H2602 H 0.07459 0.4135 0.99457 0.0
H2603 H 0.05862 0.39984 0.01446 0.0
H2604 H 0.07743 0.42867 0.02445 0.0
H2605 H 0.99933 0.41188 0.94389 0.0
H2606 H 0.98098 0.42464 0.96055 0.0
H2607 H 0.9862 0.39656 0.96464 0.0
C2608 C 0.02066 0.80771 0.17173 0.0
C2609 C 0.02582 0.79795 0.15017 0.0
C2610 C 0.99906 0.80339 0.17653 0.0
C2611 C 0.98212 0.78818 0.15963 0.0
C2612 C 0.98717 0.77854 0.13752 0.0
C2613 C 0.00899 0.7839 0.1329 0.0
C2614 C 0.99458 0.81432 0.20022 0.0
C2615 C 0.96974 0.76189 0.11915 0.0
C2616 C 0.93628 0.76182 0.19159 0.0
C2617 C 0.92245 0.77729 0.19016 0.0
C2618 C 0.95451 0.76346 0.1795 0.0
C2619 C 0.95964 0.78153 0.16622 0.0
C2620 C 0.94486 0.79586 0.1631 0.0
C2621 C 0.92636 0.79337 0.17483 0.0
C2622 C 0.96919 0.74693 0.18235 0.0
C2623 C 0.9495 0.81526 0.14902 0.0
H2624 H 0.0337 0.81843 0.18511 0.0
H2625 H 0.01304 0.77604 0.11631 0.0
H2626 H 0.9807 0.82272 0.19838 0.0
H2627 H 0.99005 0.8002 0.21056 0.0
H2628 H 0.00897 0.82798 0.21019 0.0
H2629 H 0.97668 0.75375 0.10405 0.0
H2630 H 0.96014 0.74745 0.12674 0.0
H2631 H 0.95826 0.77176 0.11265 0.0
H2632 H 0.93373 0.74922 0.20319 0.0
H2633 H 0.91543 0.80478 0.17265 0.0
H2634 H 0.9843 0.75679 0.19421 0.0
H2635 H 0.97403 0.74018 0.16529 0.0
H2636 H 0.96122 0.73149 0.18978 0.0
H2637 H 0.96254 0.8304 0.15922 0.0
H2638 H 0.93486 0.82189 0.14478 0.0
H2639 H 0.95544 0.8089 0.13252 0.0
C2640 C 0.51933 0.3327 0.12381 0.0
C2641 C 0.51277 0.30994 0.10958 0.0
C2642 C 0.53141 0.35201 0.11567 0.0
C2643 C 0.53663 0.34853 0.09263 0.0
C2644 C 0.53115 0.32539 0.07866 0.0
C2645 C 0.51923 0.30633 0.08731 0.0
C2646 C 0.53763 0.37633 0.1313 0.0
C2647 C 0.53719 0.32095 0.05428 0.0
C2648 C 0.53254 0.39759 0.05999 0.0
C2649 C 0.55439 0.40804 0.05883 0.0
C2650 C 0.52678 0.37837 0.07112 0.0
C2651 C 0.54333 0.36937 0.08153 0.0
C2652 C 0.56555 0.37993 0.08069 0.0
C2653 C 0.57085 0.39923 0.06919 0.0
C2654 C 0.50287 0.36733 0.07121 0.0
C2655 C 0.58365 0.37116 0.0921 0.0
H2656 H 0.51503 0.33548 0.14135 0.0
H2657 H 0.51486 0.28862 0.07655 0.0
H2658 H 0.55471 0.38552 0.1303 0.0
H2659 H 0.52699 0.38737 0.12534 0.0
H2660 H 0.53586 0.37535 0.14982 0.0
H2661 H 0.53199 0.30182 0.04582 0.0
H2662 H 0.52955 0.33129 0.04324 0.0
H2663 H 0.55511 0.32711 0.05488 0.0
H2664 H 0.5198 0.40409 0.05154 0.0
H2665 H 0.58777 0.40745 0.06833 0.0
H2666 H 0.49929 0.3678 0.08943 0.0
H2667 H 0.49871 0.34837 0.06226 0.0
H2668 H 0.49209 0.3766 0.06235 0.0
H2669 H 0.58581 0.37776 0.11125 0.0
H2670 H 0.59939 0.37766 0.08566 0.0
H2671 H 0.57965 0.35143 0.08904 0.0
C2672 C 0.04384 0.33206 0.31532 0.0
C2673 C 0.05118 0.32598 0.33621 0.0
C2674 C 0.02169 0.32649 0.30694 0.0
C2675 C 0.00654 0.31441 0.31974 0.0
C2676 C 0.0138 0.30727 0.34033 0.0
C2677 C 0.03616 0.31316 0.34839 0.0
C2678 C 0.01451 0.33492 0.28519 0.0
C2679 C 0.99792 0.29411 0.35416 0.0
C2680 C 0.95266 0.33026 0.31333 0.0
C2681 C 0.94061 0.31154 0.29581 0.0
C2682 C 0.97398 0.33089 0.32195 0.0
C2683 C 0.98317 0.31206 0.31297 0.0
C2684 C 0.97071 0.29255 0.29585 0.0
C2685 C 0.94943 0.29265 0.28717 0.0
C2686 C 0.98693 0.35221 0.33989 0.0
C2687 C 0.98014 0.27217 0.28618 0.0
H2688 H 0.05535 0.34185 0.30574 0.0
H2689 H 0.0418 0.30819 0.36444 0.0
H2690 H 0.00246 0.32036 0.27295 0.0
H2691 H 0.00645 0.34959 0.29005 0.0
H2692 H 0.02841 0.34157 0.27589 0.0
H2693 H 0.00623 0.29015 0.37001 0.0
H2694 H 0.98624 0.30475 0.35958 0.0
H2695 H 0.98826 0.27711 0.34302 0.0
H2696 H 0.94555 0.34482 0.31973 0.0
H2697 H 0.93982 0.27823 0.27358 0.0
H2698 H 1.00111 0.36171 0.33259 0.0
H2699 H 0.99337 0.34636 0.35557 0.0
H2700 H 0.97703 0.36498 0.34542 0.0
H2701 H 0.99331 0.27854 0.2759 0.0
H2702 H 0.96765 0.25731 0.27473 0.0
H2703 H 0.98755 0.26529 0.30065 0.0
C2704 C 0.98338 0.66742 0.59177 0.0
C2705 C 0.99856 0.68055 0.6108 0.0
C2706 C 0.98935 0.65094 0.57512 0.0
C2707 C 0.01098 0.64831 0.57766 0.0
C2708 C 0.02644 0.66203 0.59662 0.0
C2709 C 0.01995 0.67796 0.61309 0.0
C2710 C 0.97254 0.63608 0.55513 0.0
C2711 C 0.04974 0.65985 0.59957 0.0
C2712 C 0.01936 0.5895 0.54975 0.0
C2713 C 0.02867 0.59532 0.53015 0.0
C2714 C 0.01398 0.60689 0.56573 0.0
C2715 C 0.01721 0.6302 0.56127 0.0
C2716 C 0.02652 0.6362 0.54144 0.0
C2717 C 0.03233 0.61857 0.52607 0.0
C2718 C 0.00481 0.60035 0.58731 0.0
C2719 C 0.02983 0.66097 0.53618 0.0
H2720 H 0.96692 0.6698 0.59015 0.0
H2721 H 0.03178 0.68881 0.62759 0.0
H2722 H 0.97896 0.63703 0.53826 0.0
H2723 H 0.96891 0.61715 0.55696 0.0
H2724 H 0.95707 0.64188 0.55453 0.0
H2725 H 0.05926 0.67092 0.61615 0.0
H2726 H 0.05014 0.64103 0.59926 0.0
H2727 H 0.05794 0.66553 0.58483 0.0
H2728 H 0.01606 0.57133 0.5525 0.0
H2729 H 0.03944 0.62289 0.51074 0.0
H2730 H 0.98769 0.60185 0.58658 0.0
H2731 H 0.01421 0.6128 0.60321 0.0
H2732 H 0.00513 0.58197 0.58913 0.0
H2733 H 0.01371 0.6644 0.5313 0.0
H2734 H 0.03962 0.66333 0.52162 0.0
H2735 H 0.03804 0.67458 0.55182 0.0
C2736 C 0.68458 0.82883 0.85798 0.0
C2737 C 0.6621 0.82298 0.85108 0.0
C2738 C 0.69852 0.82438 0.84159 0.0
C2739 C 0.68943 0.81361 0.81823 0.0
C2740 C 0.66682 0.80823 0.81117 0.0
C2741 C 0.6534 0.81305 0.82773 0.0
C2742 C 0.72282 0.83077 0.84926 0.0
C2743 C 0.65669 0.79641 0.78642 0.0
C2744 C 0.72824 0.81573 0.77391 0.0
C2745 C 0.73409 0.79424 0.77429 0.0
C2746 C 0.71289 0.822 0.78754 0.0
C2747 C 0.70337 0.80622 0.80153 0.0
C2748 C 0.70768 0.78351 0.8002 0.0
C2749 C 0.72301 0.77766 0.78632 0.0
C2750 C 0.70818 0.84615 0.78827 0.0
C2751 C 0.69752 0.76627 0.81492 0.0
H2752 H 0.69119 0.83682 0.87601 0.0
H2753 H 0.63592 0.80844 0.8224 0.0
H2754 H 0.72911 0.81454 0.84627 0.0
H2755 H 0.7312 0.84309 0.83865 0.0
H2756 H 0.7272 0.83936 0.86801 0.0
H2757 H 0.63921 0.79643 0.78315 0.0
H2758 H 0.66547 0.80541 0.77363 0.0
H2759 H 0.65799 0.77766 0.78312 0.0
H2760 H 0.7368 0.82835 0.7643 0.0
H2761 H 0.72771 0.76108 0.78663 0.0
H2762 H 0.71564 0.85787 0.80531 0.0
H2763 H 0.69038 0.84466 0.78669 0.0
H2764 H 0.71483 0.85481 0.77412 0.0
H2765 H 0.70407 0.77351 0.83359 0.0
H2766 H 0.70096 0.74852 0.81004 0.0
H2767 H 0.6796 0.76397 0.81318 0.0
C2768 C 0.45992 0.54215 0.66717 0.0
C2769 C 0.46533 0.56247 0.6854 0.0
C2770 C 0.47138 0.54015 0.64714 0.0
C2771 C 0.48848 0.55928 0.64374 0.0
C2772 C 0.49386 0.58 0.66203 0.0
C2773 C 0.48274 0.58111 0.68239 0.0
C2774 C 0.46561 0.5169 0.62986 0.0
C2775 C 0.511 0.60164 0.65984 0.0
C2776 C 0.53273 0.54946 0.60255 0.0
C2777 C 0.52468 0.55352 0.58058 0.0
C2778 C 0.52122 0.55072 0.62248 0.0
C2779 C 0.50092 0.55728 0.62172 0.0
C2780 C 0.49277 0.56178 0.59964 0.0
C2781 C 0.50433 0.5595 0.57959 0.0
C2782 C 0.53109 0.54506 0.64462 0.0
C2783 C 0.47191 0.56973 0.59728 0.0
H2784 H 0.44695 0.52726 0.66889 0.0
H2785 H 0.48741 0.5971 0.69584 0.0
H2786 H 0.46119 0.51985 0.61204 0.0
H2787 H 0.48005 0.50925 0.62943 0.0
H2788 H 0.45188 0.50371 0.63431 0.0
H2789 H 0.5161 0.61463 0.67664 0.0
H2790 H 0.52562 0.59666 0.65371 0.0
H2791 H 0.50427 0.61054 0.64663 0.0
H2792 H 0.54847 0.54524 0.60427 0.0
H2793 H 0.49781 0.56348 0.56339 0.0
H2794 H 0.51904 0.53129 0.65066 0.0
H2795 H 0.53542 0.56118 0.65866 0.0
H2796 H 0.54601 0.53859 0.64226 0.0
H2797 H 0.45794 0.55473 0.59789 0.0
H2798 H 0.46916 0.57597 0.58063 0.0
H2799 H 0.47215 0.58435 0.61208 0.0
C2800 C 0.76667 0.19685 0.97451 0.0
C2801 C 0.78706 0.19235 0.97137 0.0
C2802 C 0.7525 0.19856 0.95563 0.0
C2803 C 0.75948 0.19706 0.93343 0.0
C2804 C 0.77956 0.19126 0.92989 0.0
C2805 C 0.79303 0.18856 0.949 0.0
C2806 C 0.73058 0.20314 0.95971 0.0
C2807 C 0.78771 0.18976 0.90642 0.0
C2808 C 0.72985 0.20369 0.87722 0.0
C2809 C 0.73806 0.22809 0.87846 0.0
C2810 C 0.73472 0.19332 0.89629 0.0
C2811 C 0.7491 0.20769 0.91594 0.0
C2812 C 0.75615 0.23261 0.91766 0.0
C2813 C 0.75007 0.24255 0.89899 0.0
C2814 C 0.72572 0.16698 0.89482 0.0
C2815 C 0.77175 0.24854 0.93823 0.0
H2816 H 0.76144 0.19833 0.99167 0.0
H2817 H 0.80833 0.18387 0.94657 0.0
H2818 H 0.73141 0.22237 0.96095 0.0
H2819 H 0.71785 0.19319 0.94496 0.0
H2820 H 0.72554 0.19801 0.97617 0.0
H2821 H 0.80082 0.18008 0.90543 0.0
H2822 H 0.77437 0.18077 0.89201 0.0
H2823 H 0.7944 0.20807 0.90357 0.0
H2824 H 0.72054 0.19272 0.86113 0.0
H2825 H 0.75647 0.26143 0.89956 0.0
H2826 H 0.72011 0.16347 0.91156 0.0
H2827 H 0.73868 0.15748 0.89158 0.0
H2828 H 0.71192 0.15942 0.88048 0.0
H2829 H 0.7644 0.24769 0.95459 0.0
H2830 H 0.77614 0.26745 0.93627 0.0
H2831 H 0.78699 0.24243 0.94026 0.0
C2832 C 0.13756 0.57055 0.17019 0.0
C2833 C 0.14968 0.55348 0.16766 0.0
C2834 C 0.12209 0.57096 0.15199 0.0
C2835 C 0.11912 0.55387 0.13121 0.0
C2836 C 0.13253 0.53771 0.12809 0.0
C2837 C 0.14784 0.5377 0.14666 0.0
C2838 C 0.10794 0.58839 0.15562 0.0
C2839 C 0.12987 0.51969 0.10572 0.0
C2840 C 0.06401 0.53435 0.09511 0.0
C2841 C 0.06791 0.54716 0.07731 0.0
C2842 C 0.08065 0.53669 0.11325 0.0
C2843 C 0.10128 0.55206 0.11307 0.0
C2844 C 0.10508 0.5653 0.09533 0.0
C2845 C 0.08818 0.56283 0.07768 0.0
C2846 C 0.07633 0.52255 0.13235 0.0
C2847 C 0.12693 0.58198 0.09493 0.0
H2848 H 0.13924 0.58252 0.18686 0.0
H2849 H 0.15741 0.52454 0.14527 0.0
H2850 H 0.10682 0.59728 0.14044 0.0
H2851 H 0.09117 0.57867 0.15717 0.0
H2852 H 0.11419 0.60226 0.17168 0.0
H2853 H 0.14138 0.50808 0.1065 0.0
H2854 H 0.11298 0.50827 0.10202 0.0
H2855 H 0.13261 0.52899 0.09087 0.0
H2856 H 0.0482 0.52236 0.09465 0.0
H2857 H 0.09099 0.57302 0.064 0.0
H2858 H 0.07893 0.53484 0.14949 0.0
H2859 H 0.08795 0.51112 0.13331 0.0
H2860 H 0.05946 0.51108 0.12954 0.0
H2861 H 0.13041 0.59691 0.11017 0.0
H2862 H 0.12751 0.58951 0.07876 0.0
H2863 H 0.14014 0.57257 0.09634 0.0
C2864 C 0.78759 0.85065 0.44224 0.0
C2865 C 0.80624 0.85559 0.45872 0.0
C2866 C 0.78764 0.83983 0.41903 0.0
C2867 C 0.80704 0.83452 0.41216 0.0
C2868 C 0.82567 0.83873 0.42901 0.0
C2869 C 0.82493 0.84894 0.45225 0.0
C2870 C 0.76726 0.835 0.40171 0.0
C2871 C 0.84684 0.83413 0.42213 0.0
C2872 C 0.80473 0.79458 0.35344 0.0
C2873 C 0.81038 0.81143 0.3394 0.0
C2874 C 0.8037 0.80182 0.3773 0.0
C2875 C 0.80846 0.82643 0.38708 0.0
C2876 C 0.81445 0.84347 0.37284 0.0
C2877 C 0.81522 0.83571 0.34906 0.0
C2878 C 0.79687 0.78321 0.39184 0.0
C2879 C 0.81926 0.86988 0.38247 0.0
H2880 H 0.77322 0.85604 0.44736 0.0
H2881 H 0.83948 0.85335 0.46495 0.0
H2882 H 0.77068 0.84433 0.387 0.0
H2883 H 0.76179 0.81567 0.39422 0.0
H2884 H 0.75373 0.84076 0.4098 0.0
H2885 H 0.85932 0.83668 0.43753 0.0
H2886 H 0.84412 0.81574 0.41203 0.0
H2887 H 0.85338 0.84651 0.41066 0.0
H2888 H 0.80045 0.7758 0.34559 0.0
H2889 H 0.819 0.84859 0.33784 0.0
H2890 H 0.78143 0.78497 0.39852 0.0
H2891 H 0.80936 0.78595 0.40723 0.0
H2892 H 0.7944 0.76483 0.38175 0.0
H2893 H 0.80401 0.87468 0.38686 0.0
H2894 H 0.82604 0.88068 0.36979 0.0
H2895 H 0.83097 0.87476 0.39879 0.0
C2896 C 0.46336 0.55103 0.84462 0.0
C2897 C 0.47606 0.5633 0.82989 0.0
C2898 C 0.47256 0.54802 0.86686 0.0
C2899 C 0.49516 0.55775 0.87538 0.0
C2900 C 0.50785 0.57082 0.86086 0.0
C2901 C 0.49838 0.57299 0.8385 0.0
C2902 C 0.45811 0.5336 0.88099 0.0
C2903 C 0.53186 0.58181 0.86845 0.0
C2904 C 0.51669 0.56679 0.94189 0.0
C2905 C 0.52526 0.54686 0.9436 0.0
C2906 C 0.50689 0.57037 0.92026 0.0
C2907 C 0.50558 0.55393 0.89901 0.0
C2908 C 0.51463 0.53403 0.90055 0.0
C2909 C 0.52397 0.53062 0.92252 0.0
C2910 C 0.4979 0.59199 0.92019 0.0
C2911 C 0.51445 0.51611 0.87884 0.0
H2912 H 0.44636 0.54259 0.8382 0.0
H2913 H 0.50874 0.58193 0.82735 0.0
H2914 H 0.46441 0.51801 0.8838 0.0
H2915 H 0.45838 0.5445 0.89845 0.0
H2916 H 0.44098 0.52712 0.87233 0.0
H2917 H 0.53874 0.59453 0.85741 0.0
H2918 H 0.53489 0.59129 0.88692 0.0
H2919 H 0.54074 0.56753 0.86719 0.0
H2920 H 0.5174 0.57967 0.95768 0.0
H2921 H 0.5305 0.5152 0.9231 0.0
H2922 H 0.4803 0.58637 0.91319 0.0
H2923 H 0.50624 0.60306 0.90853 0.0
H2924 H 0.49994 0.60313 0.93792 0.0
H2925 H 0.4974 0.50625 0.87188 0.0
H2926 H 0.524 0.50308 0.88223 0.0
H2927 H 0.52122 0.52527 0.86507 0.0
C2928 C 0.76068 0.18755 0.10103 0.0
C2929 C 0.77781 0.17632 0.09949 0.0
C2930 C 0.76172 0.20614 0.11969 0.0
C2931 C 0.7804 0.2134 0.1367 0.0
C2932 C 0.79742 0.2015 0.13542 0.0
C2933 C 0.79589 0.18299 0.11663 0.0
C2934 C 0.74323 0.21834 0.12098 0.0
C2935 C 0.81735 0.20846 0.15368 0.0
C2936 C 0.79644 0.27381 0.17626 0.0
C2937 C 0.79162 0.26727 0.19739 0.0
C2938 C 0.79212 0.25644 0.15577 0.0
C2939 C 0.78186 0.23259 0.15666 0.0
C2940 C 0.77559 0.22641 0.17764 0.0
C2941 C 0.78138 0.24364 0.1979 0.0
C2942 C 0.79991 0.26314 0.13368 0.0
C2943 C 0.76401 0.20128 0.17904 0.0
H2944 H 0.74697 0.18243 0.08717 0.0
H2945 H 0.80912 0.17426 0.11483 0.0
H2946 H 0.73729 0.21846 0.13821 0.0
H2947 H 0.74911 0.23718 0.11932 0.0
H2948 H 0.72933 0.20958 0.10703 0.0
H2949 H 0.83013 0.19927 0.14848 0.0
H2950 H 0.82444 0.22797 0.15693 0.0
H2951 H 0.81269 0.2038 0.1704 0.0
H2952 H 0.80486 0.292 0.17606 0.0
H2953 H 0.77884 0.23817 0.21433 0.0
H2954 H 0.78627 0.25743 0.11909 0.0
H2955 H 0.81259 0.25374 0.12869 0.0
H2956 H 0.8069 0.28261 0.13573 0.0
H2957 H 0.74943 0.19472 0.16558 0.0
H2958 H 0.75875 0.20005 0.19645 0.0
H2959 H 0.77492 0.18919 0.1755 0.0
C2960 C 0.12429 0.55038 0.31169 0.0
C2961 C 0.13988 0.56164 0.2994 0.0
C2962 C 0.12396 0.55992 0.33511 0.0
C2963 C 0.139 0.58178 0.34591 0.0
C2964 C 0.15521 0.59282 0.33367 0.0
C2965 C 0.15568 0.58232 0.31059 0.0
C2966 C 0.10675 0.54716 0.34785 0.0
C2967 C 0.17117 0.61628 0.34441 0.0
C2968 C 0.10729 0.60622 0.38891 0.0
C2969 C 0.11284 0.59487 0.40692 0.0
C2970 C 0.11869 0.60591 0.36963 0.0
C2971 C 0.1357 0.59402 0.36889 0.0
C2972 C 0.14439 0.58778 0.38938 0.0
C2973 C 0.13299 0.58891 0.40867 0.0
C2974 C 0.10968 0.61389 0.3484 0.0
C2975 C 0.16278 0.57548 0.38956 0.0
H2976 H 0.11231 0.53429 0.30293 0.0
H2977 H 0.16775 0.59104 0.30086 0.0
H2978 H 0.11397 0.54612 0.36549 0.0
H2979 H 0.09398 0.55716 0.34998 0.0
H2980 H 0.09882 0.52878 0.33825 0.0
H2981 H 0.18278 0.62244 0.33238 0.0
H2982 H 0.16222 0.63014 0.34924 0.0
H2983 H 0.18062 0.61471 0.36069 0.0
H2984 H 0.09209 0.61165 0.38789 0.0
H2985 H 0.13772 0.5811 0.42325 0.0
H2986 H 0.09828 0.59836 0.3366 0.0
H2987 H 0.12287 0.62118 0.33855 0.0
H2988 H 0.10054 0.62758 0.35332 0.0
H2989 H 0.1559 0.556 0.3838 0.0
H2990 H 0.17177 0.57866 0.40744 0.0
H2991 H 0.1744 0.58139 0.37751 0.0
C2992 C 0.82256 0.86465 0.62126 0.0
C2993 C 0.80797 0.85596 0.60052 0.0
C2994 C 0.8197 0.85418 0.64106 0.0
C2995 C 0.80147 0.83492 0.64044 0.0
C2996 C 0.78625 0.82659 0.61978 0.0
C2997 C 0.78984 0.83698 0.59999 0.0
C2998 C 0.83662 0.86328 0.66244 0.0
C2999 C 0.76605 0.80688 0.61864 0.0
C3000 C 0.8078 0.79175 0.68097 0.0
C3001 C 0.79783 0.79983 0.70003 0.0
C3002 C 0.80871 0.80276 0.66144 0.0
C3003 C 0.79938 0.8224 0.66076 0.0
C3004 C 0.78889 0.83039 0.67982 0.0
C3005 C 0.78831 0.81906 0.69926 0.0
C3006 C 0.81982 0.79339 0.64151 0.0
C3007 C 0.77844 0.85102 0.67981 0.0
H3008 H 0.83656 0.87934 0.62183 0.0
H3009 H 0.77822 0.83049 0.5842 0.0
H3010 H 0.82878 0.86802 0.67809 0.0
H3011 H 0.84475 0.84903 0.66556 0.0
H3012 H 0.84925 0.87913 0.66064 0.0
H3013 H 0.75653 0.80137 0.6009 0.0
H3014 H 0.77041 0.7911 0.62391 0.0
H3015 H 0.75545 0.81301 0.63113 0.0
H3016 H 0.815 0.77675 0.68134 0.0
H3017 H 0.78025 0.82514 0.71375 0.0
H3018 H 0.8333 0.80778 0.63848 0.0
H3019 H 0.80806 0.78743 0.62521 0.0
H3020 H 0.82655 0.7782 0.64485 0.0
H3021 H 0.79129 0.86777 0.68179 0.0
H3022 H 0.76843 0.85293 0.69426 0.0
H3023 H 0.76796 0.84878 0.66296 0.0
C3024 C 0.75476 0.4828 0.50345 0.0
C3025 C 0.75735 0.4603 0.50555 0.0
C3026 C 0.73857 0.49151 0.5137 0.0
C3027 C 0.72534 0.47749 0.52693 0.0
C3028 C 0.72887 0.45533 0.53026 0.0
C3029 C 0.74459 0.44665 0.51893 0.0
C3030 C 0.73574 0.51562 0.51025 0.0
C3031 C 0.71607 0.44071 0.54554 0.0
C3032 C 0.69204 0.5143 0.55802 0.0
C3033 C 0.67286 0.50792 0.54197 0.0
C3034 C 0.70862 0.50251 0.55481 0.0
C3035 C 0.70622 0.48485 0.5346 0.0
C3036 C 0.68634 0.47702 0.51937 0.0
C3037 C 0.66961 0.48825 0.52367 0.0
C3038 C 0.72927 0.51024 0.57206 0.0
C3039 C 0.68355 0.45856 0.49726 0.0
H3040 H 0.76536 0.49351 0.49367 0.0
H3041 H 0.74747 0.42963 0.52127 0.0
H3042 H 0.71828 0.51529 0.50614 0.0
H3043 H 0.74244 0.52888 0.52657 0.0
H3044 H 0.74447 0.52183 0.496 0.0
H3045 H 0.72512 0.42841 0.55196 0.0
H3046 H 0.71227 0.45226 0.56081 0.0
H3047 H 0.70046 0.42981 0.53531 0.0
H3048 H 0.69478 0.52938 0.57231 0.0
H3049 H 0.65447 0.48252 0.51182 0.0
H3050 H 0.74163 0.52332 0.56561 0.0
H3051 H 0.7362 0.49489 0.57419 0.0
H3052 H 0.72632 0.51889 0.58942 0.0
H3053 H 0.69507 0.46548 0.48546 0.0
H3054 H 0.66674 0.45386 0.48774 0.0
H3055 H 0.68744 0.4421 0.50132 0.0
C3056 C 0.20504 0.15362 0.51377 0.0
C3057 C 0.2114 0.15201 0.49135 0.0
C3058 C 0.18542 0.13891 0.51784 0.0
C3059 C 0.17137 0.12267 0.49891 0.0
C3060 C 0.17749 0.12165 0.47612 0.0
C3061 C 0.19757 0.13595 0.47271 0.0
C3062 C 0.18028 0.14 0.54256 0.0
C3063 C 0.16282 0.10531 0.45527 0.0
C3064 C 0.13249 0.06557 0.50722 0.0
C3065 C 0.11224 0.07146 0.5065 0.0
C3066 C 0.15184 0.08232 0.50585 0.0
C3067 C 0.15107 0.10559 0.50296 0.0
C3068 C 0.13073 0.11185 0.50275 0.0
C3069 C 0.11166 0.0948 0.50484 0.0
C3070 C 0.17308 0.07487 0.50694 0.0
C3071 C 0.12898 0.13637 0.49972 0.0
H3072 H 0.21587 0.16576 0.52833 0.0
H3073 H 0.20242 0.1347 0.45538 0.0
H3074 H 0.16332 0.14154 0.54358 0.0
H3075 H 0.18162 0.12325 0.54827 0.0
H3076 H 0.19156 0.15518 0.55496 0.0
H3077 H 0.1696 0.10701 0.43865 0.0
H3078 H 0.16031 0.08653 0.45744 0.0
H3079 H 0.14659 0.10939 0.45397 0.0
H3080 H 0.13319 0.04759 0.50862 0.0
H3081 H 0.09618 0.0994 0.50408 0.0
H3082 H 0.18537 0.08755 0.52065 0.0
H3083 H 0.17961 0.07527 0.49007 0.0
H3084 H 0.17119 0.05666 0.51072 0.0
H3085 H 0.13789 0.14969 0.51528 0.0
H3086 H 0.11179 0.1377 0.49743 0.0
H3087 H 0.13667 0.14113 0.48435 0.0
C3088 C 0.19405 0.92355 0.76489 0.0
C3089 C 0.20413 0.94648 0.76098 0.0
C3090 C 0.20473 0.9042 0.76357 0.0
C3091 C 0.22651 0.90677 0.75797 0.0
C3092 C 0.23643 0.92958 0.7531 0.0
C3093 C 0.2255 0.94872 0.75486 0.0
C3094 C 0.19258 0.88079 0.76854 0.0
C3095 C 0.25865 0.93367 0.74525 0.0
C3096 C 0.26547 0.86737 0.7778 0.0
C3097 C 0.26298 0.84818 0.75875 0.0
C3098 C 0.25358 0.88558 0.77786 0.0
C3099 C 0.23902 0.88627 0.75796 0.0
C3100 C 0.23685 0.86719 0.73836 0.0
C3101 C 0.24814 0.84849 0.73923 0.0
C3102 C 0.25642 0.90413 0.79976 0.0
C3103 C 0.22257 0.86625 0.71605 0.0
H3104 H 0.17762 0.92067 0.76934 0.0
H3105 H 0.23383 0.96567 0.75116 0.0
H3106 H 0.19222 0.86613 0.75377 0.0
H3107 H 0.20122 0.87701 0.78428 0.0
H3108 H 0.17555 0.8807 0.77145 0.0
H3109 H 0.26474 0.95218 0.74262 0.0
H3110 H 0.27056 0.92984 0.75823 0.0
H3111 H 0.25789 0.9212 0.72855 0.0
H3112 H 0.27655 0.86793 0.7932 0.0
H3113 H 0.24573 0.83431 0.7241 0.0
H3114 H 0.24028 0.90426 0.80553 0.0
H3115 H 0.26338 0.92206 0.79616 0.0
H3116 H 0.26725 0.90095 0.81424 0.0
H3117 H 0.20568 0.85644 0.71703 0.0
H3118 H 0.22821 0.85666 0.70072 0.0
H3119 H 0.22221 0.88433 0.71312 0.0
C3120 C 0.38409 0.99388 0.01226 0.0
C3121 C 0.37436 0.97361 0.02032 0.0
C3122 C 0.4064 1.00065 0.0132 0.0
C3123 C 0.41915 0.98746 0.0238 0.0
C3124 C 0.40958 0.96793 0.03368 0.0
C3125 C 0.38684 0.96067 0.03123 0.0
C3126 C 0.41604 0.02115 1.00167 0.0
C3127 C 0.42329 0.95486 0.04645 0.0
C3128 C 0.4702 0.99725 0.99768 0.0
C3129 C 0.48134 0.01885 0.01203 0.0
C3130 C 0.45051 0.98476 0.00297 0.0
C3131 C 0.44241 0.99419 0.0232 0.0
C3132 C 0.45441 0.0151 0.03854 0.0
C3133 C 0.47324 0.02789 0.03209 0.0
C3134 C 0.43756 0.96278 0.9859 0.0
C3135 C 0.44641 0.02512 0.06062 0.0
H3136 H 0.37412 1.00343 0.00351 0.0
H3137 H 0.37887 0.94495 0.03741 0.0
H3138 H 0.42645 0.03612 0.01493 0.0
H3139 H 0.42636 0.0155 0.98865 0.0
H3140 H 0.40333 0.02797 0.99259 0.0
H3141 H 0.41324 0.93863 0.05107 0.0
H3142 H 0.43564 0.94975 0.03583 0.0
H3143 H 0.43234 0.96687 0.06277 0.0
H3144 H 0.47682 0.99014 0.98243 0.0
H3145 H 0.48197 0.0447 0.0432 0.0
H3146 H 0.42351 0.96705 0.97632 0.0
H3147 H 0.43095 0.94835 0.99521 0.0
H3148 H 0.44752 0.95607 0.97294 0.0
H3149 H 0.43474 0.03574 0.05634 0.0
H3150 H 0.46007 0.03699 0.07344 0.0
H3151 H 0.43785 0.01066 0.06889 0.0
C3152 C 0.89233 0.60562 0.79108 0.0
C3153 C 0.88902 0.58133 0.78249 0.0
C3154 C 0.88431 0.61995 0.77746 0.0
C3155 C 0.87324 0.60958 0.75467 0.0
C3156 C 0.87136 0.58539 0.74533 0.0
C3157 C 0.87882 0.57136 0.7596 0.0
C3158 C 0.88671 0.64582 0.78795 0.0
C3159 C 0.8612 0.57435 0.72046 0.0
C3160 C 0.82543 0.63447 0.74229 0.0
C3161 C 0.83457 0.65321 0.73169 0.0
C3162 C 0.83762 0.6191 0.74855 0.0
C3163 C 0.85925 0.6223 0.74333 0.0
C3164 C 0.86776 0.63957 0.73021 0.0
C3165 C 0.85537 0.65542 0.72496 0.0
C3166 C 0.82796 0.60086 0.76257 0.0
C3167 C 0.89028 0.64233 0.72308 0.0
H3168 H 0.90119 0.61334 0.80839 0.0
H3169 H 0.87755 0.55277 0.75245 0.0
H3170 H 0.89269 0.65733 0.77557 0.0
H3171 H 0.87055 0.64857 0.79156 0.0
H3172 H 0.89815 0.65168 0.80453 0.0
H3173 H 0.86208 0.55552 0.71555 0.0
H3174 H 0.84385 0.57498 0.71796 0.0
H3175 H 0.86966 0.5847 0.70832 0.0
H3176 H 0.80929 0.63311 0.74744 0.0
H3177 H 0.86222 0.66997 0.7166 0.0
H3178 H 0.83785 0.60446 0.78 0.0
H3179 H 0.82815 0.58274 0.75364 0.0
H3180 H 0.81089 0.60093 0.76516 0.0
H3181 H 0.90246 0.65416 0.73743 0.0
H3182 H 0.89155 0.65053 0.70734 0.0
H3183 H 0.8946 0.62494 0.71944 0.0
C3184 C 0.85633 0.66272 0.99967 0.0
C3185 C 0.84188 0.6624 0.0163 0.0
C3186 C 0.87656 0.65721 0.0045 0.0
C3187 C 0.88239 0.65155 0.02647 0.0
C3188 C 0.8688 0.65384 0.04407 0.0
C3189 C 0.84863 0.65896 0.03868 0.0
C3190 C 0.89086 0.65547 0.98546 0.0
C3191 C 0.87487 0.64921 0.06809 0.0
C3192 C 0.91103 0.6014 0.02497 0.0
C3193 C 0.93284 0.61364 0.03203 0.0
C3194 C 0.89461 0.61364 0.02336 0.0
C3195 C 0.90004 0.63885 0.02942 0.0
C3196 C 0.92201 0.65131 0.03772 0.0
C3197 C 0.93828 0.63853 0.03848 0.0
C3198 C 0.87145 0.59952 0.01462 0.0
C3199 C 0.92854 0.67805 0.0452 0.0
H3200 H 0.85123 0.6656 0.98243 0.0
H3201 H 0.83765 0.65931 0.05176 0.0
H3202 H 0.90814 0.66422 0.99252 0.0
H3203 H 0.88987 0.63644 0.97851 0.0
H3204 H 0.88585 0.66375 0.97081 0.0
H3205 H 0.86333 0.65347 0.08031 0.0
H3206 H 0.87501 0.63021 0.0669 0.0
H3207 H 0.89153 0.66001 0.0755 0.0
H3208 H 0.90693 0.58214 0.01994 0.0
H3209 H 0.95521 0.64796 0.04402 0.0
H3210 H 0.86547 0.60485 0.99842 0.0
H3211 H 0.86063 0.60336 0.02779 0.0
H3212 H 0.86997 0.58002 0.01085 0.0
H3213 H 0.931 0.68618 0.02957 0.0
H3214 H 0.94405 0.68405 0.0574 0.0
H3215 H 0.91573 0.68485 0.05376 0.0
C3216 C 0.203 0.12235 0.78515 0.0
C3217 C 0.20657 0.10131 0.77221 0.0
C3218 C 0.21578 0.14558 0.78476 0.0
C3219 C 0.23261 0.14892 0.77033 0.0
C3220 C 0.23632 0.12774 0.75705 0.0
C3221 C 0.22364 0.1045 0.75835 0.0
C3222 C 0.21094 0.16672 0.79981 0.0
C3223 C 0.25363 0.12959 0.74108 0.0
C3224 C 0.25349 0.21282 0.75576 0.0
C3225 C 0.27356 0.22212 0.7705 0.0
C3226 C 0.24027 0.18929 0.75526 0.0
C3227 C 0.2467 0.17427 0.77007 0.0
C3228 C 0.26664 0.184 0.78532 0.0
C3229 C 0.27966 0.20715 0.78509 0.0
C3230 C 0.2196 0.18016 0.73823 0.0
C3231 C 0.27434 0.16989 0.80222 0.0
H3232 H 0.18984 0.12066 0.79575 0.0
H3233 H 0.22654 0.08887 0.74772 0.0
H3234 H 0.22621 0.17884 0.80974 0.0
H3235 H 0.2034 0.17694 0.78857 0.0
H3236 H 0.19962 0.16132 0.81238 0.0
H3237 H 0.25228 0.11242 0.72907 0.0
H3238 H 0.25255 0.14343 0.73055 0.0
H3239 H 0.26997 0.13501 0.75168 0.0
H3240 H 0.24853 0.22347 0.74385 0.0
H3241 H 0.29507 0.21358 0.79647 0.0
H3242 H 0.20539 0.17627 0.74784 0.0
H3243 H 0.22004 0.16322 0.72684 0.0
H3244 H 0.21711 0.19312 0.72707 0.0
H3245 H 0.26229 0.16642 0.81455 0.0
H3246 H 0.29046 0.1793 0.81244 0.0
H3247 H 0.27552 0.15236 0.7927 0.0
C3248 C 0.40489 0.93764 0.27446 0.0
C3249 C 0.40159 0.95998 0.27246 0.0
C3250 C 0.38745 0.9196 0.27736 0.0
C3251 C 0.36672 0.92449 0.27812 0.0
C3252 C 0.36352 0.94711 0.27678 0.0
C3253 C 0.38094 0.96449 0.27341 0.0
C3254 C 0.39106 0.89531 0.27888 0.0
C3255 C 0.34142 0.95253 0.27763 0.0
C3256 C 0.31991 0.8734 0.25204 0.0
C3257 C 0.3151 0.86455 0.27207 0.0
C3258 C 0.33684 0.89342 0.25384 0.0
C3259 C 0.34758 0.90525 0.27631 0.0
C3260 C 0.3398 0.89888 0.29668 0.0
C3261 C 0.32309 0.87852 0.29426 0.0
C3262 C 0.34464 0.89992 0.23163 0.0
C3263 C 0.35058 0.91174 0.32089 0.0
H3264 H 0.42102 0.93444 0.27422 0.0
H3265 H 0.3784 0.98181 0.2718 0.0
H3266 H 0.38186 0.88749 0.29206 0.0
H3267 H 0.38505 0.88318 0.26171 0.0
H3268 H 0.40859 0.89605 0.28342 0.0
H3269 H 0.34237 0.97184 0.27919 0.0
H3270 H 0.3304 0.94281 0.26143 0.0
H3271 H 0.33395 0.94636 0.29259 0.0
H3272 H 0.31236 0.86327 0.23493 0.0
H3273 H 0.31833 0.87209 0.30979 0.0
H3274 H 0.35668 0.88965 0.22648 0.0
H3275 H 0.35263 0.91908 0.23357 0.0
H3276 H 0.33087 0.8953 0.21721 0.0
H3277 H 0.36573 0.90602 0.32507 0.0
H3278 H 0.33984 0.90762 0.33434 0.0
H3279 H 0.35516 0.93129 0.32198 0.0
C3280 C 0.56208 0.37261 0.56319 0.0
C3281 C 0.58067 0.37714 0.57979 0.0
C3282 C 0.55649 0.39098 0.55307 0.0
C3283 C 0.5703 0.41433 0.55888 0.0
C3284 C 0.58952 0.41875 0.57505 0.0
C3285 C 0.59419 0.40028 0.58567 0.0
C3286 C 0.53561 0.38546 0.53641 0.0
C3287 C 0.60502 0.44314 0.58144 0.0
C3288 C 0.56767 0.45967 0.5193 0.0
C3289 C 0.55589 0.47411 0.53129 0.0
C3290 C 0.57177 0.43965 0.52756 0.0
C3291 C 0.56445 0.43433 0.54869 0.0
C3292 C 0.55231 0.44884 0.56065 0.0
C3293 C 0.548 0.46837 0.55167 0.0
C3294 C 0.58447 0.42459 0.51402 0.0
C3295 C 0.54419 0.44402 0.58319 0.0
H3296 H 0.55148 0.35479 0.55869 0.0
H3297 H 0.60862 0.40387 0.5984 0.0
H3298 H 0.52551 0.39789 0.5422 0.0
H3299 H 0.53941 0.38802 0.51879 0.0
H3300 H 0.52583 0.36693 0.53504 0.0
H3301 H 0.62054 0.44296 0.59173 0.0
H3302 H 0.60882 0.45022 0.56549 0.0
H3303 H 0.59723 0.4556 0.59194 0.0
H3304 H 0.57385 0.46419 0.50358 0.0
H3305 H 0.53906 0.47971 0.56106 0.0
H3306 H 0.57513 0.40568 0.50984 0.0
H3307 H 0.60002 0.42547 0.52484 0.0
H3308 H 0.58822 0.43044 0.49746 0.0
H3309 H 0.53266 0.4262 0.58003 0.0
H3310 H 0.53581 0.45753 0.59088 0.0
H3311 H 0.55799 0.44383 0.59616 0.0
C3312 C 0.4431 0.76323 0.34129 0.0
C3313 C 0.44939 0.76943 0.36553 0.0
C3314 C 0.42296 0.76534 0.33098 0.0
C3315 C 0.40867 0.77439 0.34516 0.0
C3316 C 0.41456 0.77994 0.3698 0.0
C3317 C 0.43481 0.77724 0.37973 0.0
C3318 C 0.41754 0.75901 0.3047 0.0
C3319 C 0.39979 0.78947 0.38556 0.0
C3320 C 0.36965 0.80264 0.3124 0.0
C3321 C 0.35147 0.78331 0.30499 0.0
C3322 C 0.38807 0.80038 0.32645 0.0
C3323 C 0.38801 0.77852 0.33382 0.0
C3324 C 0.36892 0.75963 0.32773 0.0
C3325 C 0.3511 0.76211 0.31305 0.0
C3326 C 0.40813 0.82085 0.33205 0.0
C3327 C 0.36782 0.73617 0.33538 0.0
H3328 H 0.45439 0.75743 0.33022 0.0
H3329 H 0.43975 0.78253 0.39844 0.0
H3330 H 0.40078 0.74752 0.29947 0.0
H3331 H 0.41822 0.77552 0.29766 0.0
H3332 H 0.42906 0.74962 0.29646 0.0
H3333 H 0.4069 0.7936 0.40426 0.0
H3334 H 0.3965 0.80588 0.38063 0.0
H3335 H 0.38387 0.77624 0.38334 0.0
H3336 H 0.37008 0.81893 0.30589 0.0
H3337 H 0.33704 0.74713 0.30724 0.0
H3338 H 0.42149 0.81566 0.32317 0.0
H3339 H 0.41382 0.82516 0.3511 0.0
H3340 H 0.40517 0.8371 0.32637 0.0
H3341 H 0.37809 0.72639 0.32536 0.0
H3342 H 0.3509 0.7248 0.33245 0.0
H3343 H 0.37427 0.73909 0.35416 0.0
C3344 C 0.08226 0.73252 0.06067 0.0
C3345 C 0.07931 0.73522 0.0843 0.0
C3346 C 0.0786 0.70967 0.0467 0.0
C3347 C 0.07162 0.68932 0.05663 0.0
C3348 C 0.06767 0.69207 0.08016 0.0
C3349 C 0.07163 0.71493 0.09367 0.0
C3350 C 0.08277 0.70725 0.02159 0.0
C3351 C 0.06015 0.67087 0.09149 0.0
C3352 C 0.04637 0.62703 0.02235 0.0
C3353 C 0.06363 0.6161 0.02533 0.0
C3354 C 0.04907 0.65134 0.03119 0.0
C3355 C 0.06955 0.66501 0.04316 0.0
C3356 C 0.08738 0.65441 0.04496 0.0
C3357 C 0.08423 0.63007 0.0359 0.0
C3358 C 0.0296 0.66193 0.02919 0.0
C3359 C 0.10946 0.66844 0.05768 0.0
H3360 H 0.08809 0.74815 0.05332 0.0
H3361 H 0.06895 0.71687 0.11182 0.0
H3362 H 0.09604 0.69804 0.01901 0.0
H3363 H 0.06801 0.69613 0.00989 0.0
H3364 H 0.08742 0.72477 0.01623 0.0
H3365 H 0.05537 0.67608 0.109 0.0
H3366 H 0.04607 0.65778 0.08038 0.0
H3367 H 0.07353 0.66179 0.09352 0.0
H3368 H 0.03042 0.6164 0.01402 0.0
H3369 H 0.09768 0.6218 0.03822 0.0
H3370 H 0.03377 0.67851 0.02211 0.0
H3371 H 0.02489 0.66677 0.04679 0.0
H3372 H 0.01529 0.6494 0.01781 0.0
H3373 H 0.11569 0.68382 0.04939 0.0
H3374 H 0.12159 0.65749 0.0577 0.0
H3375 H 0.10806 0.67567 0.07607 0.0
C3376 C 0.09609 0.2853 0.90215 0.0
C3377 C 0.07601 0.27853 0.88756 0.0
C3378 C 0.11591 0.29162 0.89307 0.0
C3379 C 0.11566 0.2917 0.86886 0.0
C3380 C 0.09534 0.28615 0.85434 0.0
C3381 C 0.07584 0.27932 0.86377 0.0
C3382 C 0.1371 0.29777 0.90933 0.0
C3383 C 0.09417 0.28673 0.82862 0.0
C3384 C 0.16646 0.31958 0.8433 0.0
C3385 C 0.17341 0.29934 0.83378 0.0
C3386 C 0.14809 0.31761 0.85534 0.0
C3387 C 0.13641 0.29487 0.85813 0.0
C3388 C 0.14383 0.27457 0.84938 0.0
C3389 C 0.16208 0.27702 0.83731 0.0
C3390 C 0.14088 0.33976 0.86455 0.0
C3391 C 0.1321 0.25004 0.85223 0.0
H3392 H 0.09635 0.28514 0.92064 0.0
H3393 H 0.0604 0.27467 0.85246 0.0
H3394 H 0.14816 0.28694 0.90247 0.0
H3395 H 0.14544 0.31674 0.91047 0.0
H3396 H 0.13459 0.29486 0.92723 0.0
H3397 H 0.07735 0.2856 0.82055 0.0
H3398 H 0.10512 0.3033 0.82574 0.0
H3399 H 0.09972 0.27149 0.81948 0.0
H3400 H 0.17524 0.337 0.84112 0.0
H3401 H 0.16696 0.26119 0.82988 0.0
H3402 H 0.14118 0.34203 0.88375 0.0
H3403 H 0.12383 0.33802 0.85688 0.0
H3404 H 0.15141 0.35606 0.86054 0.0
H3405 H 0.13119 0.24978 0.87101 0.0
H3406 H 0.14026 0.23611 0.84507 0.0
H3407 H 0.11513 0.24543 0.84319 0.0
C3408 C 0.59859 0.75812 0.93078 0.0
C3409 C 0.58565 0.77138 0.92122 0.0
C3410 C 0.58897 0.73769 0.93894 0.0
C3411 C 0.56601 0.73105 0.93817 0.0
C3412 C 0.55292 0.74447 0.92846 0.0
C3413 C 0.56295 0.76438 0.91979 0.0
C3414 C 0.60337 0.72334 0.94857 0.0
C3415 C 0.52849 0.73849 0.92809 0.0
C3416 C 0.54446 0.66842 0.94766 0.0
C3417 C 0.54471 0.6726 0.97196 0.0
C3418 C 0.54994 0.68749 0.936 0.0
C3419 C 0.55608 0.71104 0.94911 0.0
C3420 C 0.55496 0.71534 0.97336 0.0
C3421 C 0.54924 0.69603 0.9845 0.0
C3422 C 0.55033 0.68245 0.90994 0.0
C3423 C 0.56137 0.74023 0.9879 0.0
H3424 H 0.61615 0.7635 0.93146 0.0
H3425 H 0.55307 0.77489 0.91242 0.0
H3426 H 0.60163 0.72318 0.96721 0.0
H3427 H 0.59823 0.70459 0.93899 0.0
H3428 H 0.62085 0.73051 0.94718 0.0
H3429 H 0.52046 0.74756 0.91594 0.0
H3430 H 0.52139 0.71902 0.92297 0.0
H3431 H 0.52467 0.74434 0.94589 0.0
H3432 H 0.54069 0.65027 0.93794 0.0
H3433 H 0.5497 0.6993 0.00332 0.0
H3434 H 0.56744 0.68696 0.90628 0.0
H3435 H 0.54157 0.69374 0.90135 0.0
H3436 H 0.54281 0.66346 0.90198 0.0
H3437 H 0.5793 0.74721 0.98955 0.0
H3438 H 0.55667 0.74071 0.00574 0.0
H3439 H 0.5537 0.75237 0.97936 0.0
C3440 C 0.05741 0.76425 0.70321 0.0
C3441 C 0.05531 0.76175 0.67887 0.0
C3442 C 0.07696 0.76383 0.71583 0.0
C3443 C 0.09468 0.7612 0.70369 0.0
C3444 C 0.09251 0.75808 0.67906 0.0
C3445 C 0.07272 0.75839 0.66688 0.0
C3446 C 0.07877 0.76684 0.74209 0.0
C3447 C 0.11107 0.75454 0.66563 0.0
C3448 C 0.15244 0.78586 0.73284 0.0
C3449 C 0.15783 0.76504 0.73706 0.0
C3450 C 0.13135 0.78502 0.72299 0.0
C3451 C 0.11589 0.76276 0.71676 0.0
C3452 C 0.12117 0.74184 0.72163 0.0
C3453 C 0.14213 0.74334 0.7321 0.0
C3454 C 0.12589 0.80762 0.71814 0.0
C3455 C 0.10506 0.7178 0.71484 0.0
H3456 H 0.04379 0.76649 0.71245 0.0
H3457 H 0.07092 0.75614 0.64799 0.0
H3458 H 0.08678 0.7537 0.74836 0.0
H3459 H 0.08902 0.78485 0.75015 0.0
H3460 H 0.06259 0.76483 0.74833 0.0
H3461 H 0.10656 0.75238 0.64647 0.0
H3462 H 0.12535 0.76999 0.67146 0.0
H3463 H 0.11621 0.73851 0.66918 0.0
H3464 H 0.16488 0.80251 0.73656 0.0
H3465 H 0.14669 0.72727 0.73509 0.0
H3466 H 0.11086 0.80983 0.72553 0.0
H3467 H 0.12263 0.80649 0.69899 0.0
H3468 H 0.13929 0.82366 0.72557 0.0
H3469 H 0.09085 0.71776 0.72449 0.0
H3470 H 0.11235 0.70312 0.71863 0.0
H3471 H 0.09883 0.71408 0.69593 0.0
C3472 C 0.11728 0.41468 0.44008 0.0
C3473 C 0.11186 0.40959 0.41583 0.0
C3474 C 0.11024 0.43259 0.45364 0.0
C3475 C 0.09717 0.44514 0.44251 0.0
C3476 C 0.09135 0.43984 0.41802 0.0
C3477 C 0.09913 0.42224 0.40484 0.0
C3478 C 0.11631 0.43767 0.47986 0.0
C3479 C 0.07668 0.45238 0.40588 0.0
C3480 C 0.06452 0.47475 0.48249 0.0
C3481 C 0.0782 0.49764 0.48896 0.0
C3482 C 0.07009 0.45749 0.46658 0.0
C3483 C 0.08958 0.46375 0.45681 0.0
C3484 C 0.10293 0.48727 0.46253 0.0
C3485 C 0.09722 0.50403 0.47904 0.0
C3486 C 0.05548 0.43254 0.46083 0.0
C3487 C 0.12347 0.49448 0.45171 0.0
H3488 H 0.12683 0.40447 0.44843 0.0
H3489 H 0.09444 0.41765 0.38606 0.0
H3490 H 0.12403 0.4569 0.48627 0.0
H3491 H 0.1014 0.43325 0.48833 0.0
H3492 H 0.12769 0.42725 0.48553 0.0
H3493 H 0.07208 0.44447 0.38698 0.0
H3494 H 0.06155 0.4516 0.41408 0.0
H3495 H 0.08505 0.47145 0.40775 0.0
H3496 H 0.04962 0.47029 0.49022 0.0
H3497 H 0.10729 0.52212 0.48387 0.0
H3498 H 0.06389 0.42026 0.46821 0.0
H3499 H 0.05192 0.42608 0.44166 0.0
H3500 H 0.0398 0.43149 0.46803 0.0
H3501 H 0.13594 0.48596 0.45861 0.0
H3502 H 0.13026 0.51409 0.45555 0.0
H3503 H 0.12027 0.48824 0.43248 0.0
C3504 C 0.41538 0.23916 0.17853 0.0
C3505 C 0.43669 0.24355 0.18948 0.0
C3506 C 0.39971 0.24669 0.19103 0.0
C3507 C 0.40622 0.2595 0.21427 0.0
C3508 C 0.42793 0.26444 0.225 0.0
C3509 C 0.44293 0.25606 0.21246 0.0
C3510 C 0.37633 0.24077 0.17963 0.0
C3511 C 0.43516 0.27795 0.24985 0.0
C3512 C 0.36991 0.29579 0.23985 0.0
C3513 C 0.35841 0.28022 0.25269 0.0
C3514 C 0.38581 0.28929 0.22728 0.0
C3515 C 0.39022 0.26696 0.22797 0.0
C3516 C 0.37985 0.25202 0.24226 0.0
C3517 C 0.36386 0.25883 0.25443 0.0
C3518 C 0.39738 0.30589 0.21275 0.0
C3519 C 0.38454 0.22829 0.24396 0.0
H3520 H 0.41099 0.22957 0.16061 0.0
H3521 H 0.45972 0.2596 0.22052 0.0
H3522 H 0.36538 0.23166 0.1908 0.0
H3523 H 0.37148 0.25741 0.17777 0.0
H3524 H 0.37379 0.22915 0.16209 0.0
H3525 H 0.45313 0.28216 0.25467 0.0
H3526 H 0.42988 0.29484 0.25239 0.0
H3527 H 0.4274 0.26713 0.26203 0.0
H3528 H 0.3657 0.31242 0.23849 0.0
H3529 H 0.35501 0.24689 0.2645 0.0
H3530 H 0.39347 0.29739 0.19398 0.0
H3531 H 0.4153 0.30945 0.21745 0.0
H3532 H 0.3927 0.32315 0.21511 0.0
H3533 H 0.37224 0.21414 0.23151 0.0
H3534 H 0.3832 0.2248 0.26187 0.0
H3535 H 0.40094 0.22705 0.23982 0.0
C3536 C 0.63755 0.53177 0.3626 0.0
C3537 C 0.62497 0.52076 0.3407 0.0
C3538 C 0.62825 0.53378 0.38417 0.0
C3539 C 0.60554 0.52422 0.38487 0.0
C3540 C 0.59288 0.51267 0.36281 0.0
C3541 C 0.60245 0.5116 0.34149 0.0
C3542 C 0.6428 0.54696 0.4064 0.0
C3543 C 0.56878 0.50189 0.36142 0.0
C3544 C 0.58418 0.5111 0.44395 0.0
C3545 C 0.57461 0.53001 0.45169 0.0
C3546 C 0.59431 0.50924 0.42295 0.0
C3547 C 0.59512 0.5265 0.40826 0.0
C3548 C 0.5853 0.54556 0.41595 0.0
C3549 C 0.57526 0.54695 0.43701 0.0
C3550 C 0.60342 0.48798 0.41591 0.0
C3551 C 0.58503 0.56456 0.40163 0.0
H3552 H 0.65467 0.53992 0.36281 0.0
H3553 H 0.592 0.50371 0.32507 0.0
H3554 H 0.63588 0.56134 0.41507 0.0
H3555 H 0.64361 0.5346 0.41865 0.0
H3556 H 0.6596 0.55493 0.40325 0.0
H3557 H 0.56208 0.48945 0.34453 0.0
H3558 H 0.56534 0.49217 0.37587 0.0
H3559 H 0.56004 0.51629 0.36308 0.0
H3560 H 0.58307 0.49706 0.45397 0.0
H3561 H 0.56721 0.56113 0.44165 0.0
H3562 H 0.62087 0.49396 0.41386 0.0
H3563 H 0.59469 0.4776 0.39872 0.0
H3564 H 0.60192 0.4761 0.42887 0.0
H3565 H 0.602 0.57456 0.40124 0.0
H3566 H 0.57566 0.57733 0.40871 0.0
H3567 H 0.57781 0.55636 0.38332 0.0
C3568 C 0.32901 0.92079 0.07493 0.0
C3569 C 0.31816 0.90497 0.05444 0.0
C3570 C 0.33805 0.91234 0.09347 0.0
C3571 C 0.33618 0.88763 0.09119 0.0
C3572 C 0.32614 0.87178 0.07014 0.0
C3573 C 0.317 0.88064 0.05207 0.0
C3574 C 0.34887 0.92964 0.11572 0.0
C3575 C 0.32391 0.84527 0.06714 0.0
C3576 C 0.36329 0.8605 0.13613 0.0
C3577 C 0.34584 0.85358 0.14845 0.0
C3578 C 0.36081 0.87259 0.11774 0.0
C3579 C 0.3405 0.87769 0.11196 0.0
C3580 C 0.32308 0.87121 0.12476 0.0
C3581 C 0.32591 0.859 0.14267 0.0
C3582 C 0.37961 0.87942 0.10425 0.0
C3583 C 0.30114 0.87641 0.11903 0.0
H3584 H 0.33036 0.93972 0.07653 0.0
H3585 H 0.30902 0.86845 0.03604 0.0
H3586 H 0.34041 0.9249 0.13064 0.0
H3587 H 0.36598 0.92855 0.11958 0.0
H3588 H 0.34885 0.94832 0.11464 0.0
H3589 H 0.31931 0.83615 0.04855 0.0
H3590 H 0.33937 0.84149 0.07397 0.0
H3591 H 0.31109 0.8375 0.07721 0.0
H3592 H 0.37869 0.85631 0.14075 0.0
H3593 H 0.31223 0.8531 0.15181 0.0
H3594 H 0.38487 0.89908 0.10663 0.0
H3595 H 0.37445 0.87234 0.08529 0.0
H3596 H 0.39381 0.8727 0.10999 0.0
H3597 H 0.3032 0.8957 0.11923 0.0
H3598 H 0.28971 0.87112 0.13153 0.0
H3599 H 0.29356 0.86669 0.10122 0.0
C3600 C 0.99906 0.53623 0.8552 0.0
C3601 C 0.97711 0.5344 0.84824 0.0
C3602 C 0.0064 0.53646 0.87831 0.0
C3603 C 0.99122 0.53455 0.89455 0.0
C3604 C 0.9689 0.53218 0.8876 0.0
C3605 C 0.96205 0.53225 0.86434 0.0
C3606 C 0.03042 0.53882 0.8853 0.0
C3607 C 0.95246 0.53006 0.90467 0.0
C3608 C 0.01679 0.51482 0.94439 0.0
C3609 C 0.0291 0.53691 0.9567 0.0
C3610 C 0.00199 0.51355 0.92497 0.0
C3611 C 0.99929 0.53501 0.91872 0.0
C3612 C 0.0095 0.55728 0.93323 0.0
C3613 C 0.02498 0.55803 0.95194 0.0
C3614 C 0.99141 0.48953 0.9097 0.0
C3615 C 0.00584 0.58032 0.92757 0.0
H3616 H 0.01054 0.53775 0.84263 0.0
H3617 H 0.94491 0.5304 0.85873 0.0
H3618 H 0.0374 0.55523 0.89867 0.0
H3619 H 0.03274 0.52347 0.89311 0.0
H3620 H 0.03981 0.53966 0.87026 0.0
H3621 H 0.93543 0.52406 0.89564 0.0
H3622 H 0.95509 0.51746 0.91614 0.0
H3623 H 0.95444 0.54766 0.91612 0.0
H3624 H 0.01986 0.49861 0.94899 0.0
H3625 H 0.03409 0.57499 0.96251 0.0
H3626 H 0.99972 0.48735 0.89392 0.0
H3627 H 0.97402 0.48813 0.90375 0.0
H3628 H 0.99252 0.47469 0.91891 0.0
H3629 H 0.01585 0.5855 0.91386 0.0
H3630 H 0.01059 0.59496 0.94316 0.0
H3631 H 0.98851 0.57825 0.92073 0.0
C3632 C 0.2682 0.21599 0.58586 0.0
C3633 C 0.28388 0.22217 0.57123 0.0
C3634 C 0.27103 0.22746 0.60918 0.0
C3635 C 0.29007 0.24569 0.61822 0.0
C3636 C 0.30585 0.25255 0.60345 0.0
C3637 C 0.3025 0.24072 0.57993 0.0
C3638 C 0.25394 0.21938 0.62437 0.0
C3639 C 0.32666 0.27145 0.61273 0.0
C3640 C 0.28385 0.28209 0.67589 0.0
C3641 C 0.2933 0.27073 0.69174 0.0
C3642 C 0.28417 0.27528 0.65178 0.0
C3643 C 0.29357 0.25632 0.64351 0.0
C3644 C 0.30351 0.24518 0.6596 0.0
C3645 C 0.3033 0.2526 0.6835 0.0
C3646 C 0.27415 0.28805 0.63507 0.0
C3647 C 0.31339 0.22461 0.65169 0.0
H3648 H 0.25374 0.20172 0.57912 0.0
H3649 H 0.3148 0.24527 0.56871 0.0
H3650 H 0.26125 0.21242 0.63884 0.0
H3651 H 0.24779 0.23467 0.63233 0.0
H3652 H 0.23988 0.20523 0.61445 0.0
H3653 H 0.33542 0.27748 0.59843 0.0
H3654 H 0.32327 0.28707 0.62387 0.0
H3655 H 0.33761 0.26417 0.62377 0.0
H3656 H 0.27662 0.2965 0.68235 0.0
H3657 H 0.31067 0.24382 0.69581 0.0
H3658 H 0.2596 0.27562 0.62405 0.0
H3659 H 0.28592 0.29415 0.62319 0.0
H3660 H 0.26917 0.30368 0.6443 0.0
H3661 H 0.30013 0.20819 0.64547 0.0
H3662 H 0.32435 0.22145 0.6661 0.0
H3663 H 0.32276 0.22769 0.63699 0.0
C3664 C 0.64409 0.52769 0.18129 0.0
C3665 C 0.6329 0.51523 0.19697 0.0
C3666 C 0.63342 0.53058 0.1598 0.0
C3667 C 0.61067 0.52055 0.15284 0.0
C3668 C 0.59926 0.50765 0.16842 0.0
C3669 C 0.61031 0.50536 0.19008 0.0
C3670 C 0.64664 0.5447 0.14448 0.0
C3671 C 0.57527 0.49591 0.16206 0.0
C3672 C 0.58099 0.54715 0.10593 0.0
C3673 C 0.57975 0.53098 0.08482 0.0
C3674 C 0.59021 0.54363 0.1279 0.0
C3675 C 0.5991 0.52362 0.12943 0.0
C3676 C 0.59758 0.50708 0.10819 0.0
C3677 C 0.58799 0.51085 0.08654 0.0
C3678 C 0.59047 0.56152 0.14966 0.0
C3679 C 0.60667 0.4855 0.10804 0.0
H3680 H 0.66141 0.53563 0.18599 0.0
H3681 H 0.60118 0.49553 0.20156 0.0
H3682 H 0.64491 0.53378 0.12671 0.0
H3683 H 0.64038 0.56055 0.14265 0.0
H3684 H 0.66421 0.55076 0.15162 0.0
H3685 H 0.56821 0.48789 0.17638 0.0
H3686 H 0.56623 0.50903 0.15767 0.0
H3687 H 0.57273 0.48169 0.1463 0.0
H3688 H 0.57462 0.56268 0.10535 0.0
H3689 H 0.58735 0.49803 0.07072 0.0
H3690 H 0.60754 0.57004 0.15771 0.0
H3691 H 0.58216 0.55239 0.16267 0.0
H3692 H 0.58232 0.57562 0.14604 0.0
H3693 H 0.62474 0.49119 0.11019 0.0
H3694 H 0.60099 0.47228 0.09145 0.0
H3695 H 0.60204 0.47671 0.12279 0.0
C3696 C 0.33217 0.90368 0.90743 0.0
C3697 C 0.3258 0.8966 0.92788 0.0
C3698 C 0.33228 0.88657 0.88775 0.0
C3699 C 0.32594 0.86215 0.88895 0.0
C3700 C 0.32186 0.85517 0.91034 0.0
C3701 C 0.32192 0.87257 0.92965 0.0
C3702 C 0.33692 0.89462 0.86519 0.0
C3703 C 0.31519 0.82926 0.91223 0.0
C3704 C 0.29083 0.82089 0.83645 0.0
C3705 C 0.3055 0.80867 0.82729 0.0
C3706 C 0.29744 0.83856 0.85651 0.0
C3707 C 0.31931 0.84404 0.86736 0.0
C3708 C 0.33419 0.83157 0.85816 0.0
C3709 C 0.32703 0.81387 0.83802 0.0
C3710 C 0.28111 0.85155 0.86586 0.0
C3711 C 0.35769 0.83746 0.86914 0.0
H3712 H 0.33549 0.92234 0.90624 0.0
H3713 H 0.31763 0.86719 0.94578 0.0
H3714 H 0.3455 0.88296 0.8548 0.0
H3715 H 0.32127 0.89372 0.85456 0.0
H3716 H 0.3469 0.91329 0.86844 0.0
H3717 H 0.31473 0.82695 0.93063 0.0
H3718 H 0.29872 0.821 0.90232 0.0
H3719 H 0.32659 0.81943 0.90445 0.0
H3720 H 0.27435 0.8171 0.82743 0.0
H3721 H 0.33839 0.80474 0.83015 0.0
H3722 H 0.2871 0.87095 0.86656 0.0
H3723 H 0.27911 0.84898 0.88394 0.0
H3724 H 0.26487 0.8453 0.85499 0.0
H3725 H 0.3658 0.85598 0.86802 0.0
H3726 H 0.36685 0.82528 0.86044 0.0
H3727 H 0.35865 0.83651 0.88794 0.0
C3728 C 0.93416 0.4987 0.71423 0.0
C3729 C 0.94203 0.52351 0.72011 0.0
C3730 C 0.94241 0.48536 0.69684 0.0
C3731 C 0.95807 0.49741 0.68461 0.0
C3732 C 0.96605 0.52256 0.69065 0.0
C3733 C 0.9581 0.53526 0.7087 0.0
C3734 C 0.93467 0.45853 0.69183 0.0
C3735 C 0.98235 0.53634 0.67761 0.0
C3736 C 0.9964 0.47846 0.64609 0.0
C3737 C 0.98661 0.4821 0.62501 0.0
C3738 C 0.98562 0.47962 0.66583 0.0
C3739 C 0.96483 0.48451 0.664 0.0
C3740 C 0.95342 0.48359 0.64187 0.0
C3741 C 0.96451 0.48216 0.62245 0.0
C3742 C 0.99799 0.47995 0.6892 0.0
C3743 C 0.93088 0.48804 0.63925 0.0
H3744 H 0.92218 0.48967 0.72385 0.0
H3745 H 0.9643 0.55442 0.71386 0.0
H3746 H 0.92533 0.4522 0.67409 0.0
H3747 H 0.94884 0.45046 0.69221 0.0
H3748 H 0.92413 0.45192 0.70462 0.0
H3749 H 0.98908 0.55511 0.68682 0.0
H3750 H 0.99616 0.52801 0.67516 0.0
H3751 H 0.97419 0.53642 0.66005 0.0
H3752 H 0.01343 0.47806 0.64809 0.0
H3753 H 0.95684 0.48449 0.60604 0.0
H3754 H 0.98693 0.47172 0.70076 0.0
H3755 H 0.00559 0.49867 0.69797 0.0
H3756 H 0.01118 0.47048 0.68719 0.0
H3757 H 0.91944 0.47497 0.6467 0.0
H3758 H 0.92434 0.48673 0.6207 0.0
H3759 H 0.93127 0.50606 0.64899 0.0
C3760 C 0.27317 0.23554 0.4201 0.0
C3761 C 0.29 0.22752 0.43085 0.0
C3762 C 0.27549 0.24506 0.39965 0.0
C3763 C 0.29543 0.24747 0.39014 0.0
C3764 C 0.31271 0.24006 0.40142 0.0
C3765 C 0.30964 0.22973 0.42131 0.0
C3766 C 0.25645 0.25218 0.388 0.0
C3767 C 0.33466 0.24357 0.39281 0.0
C3768 C 0.29682 0.25535 0.32649 0.0
C3769 C 0.30359 0.28015 0.32916 0.0
C3770 C 0.29415 0.24441 0.34612 0.0
C3771 C 0.29847 0.25861 0.36899 0.0
C3772 C 0.30563 0.28365 0.37167 0.0
C3773 C 0.30801 0.29402 0.35183 0.0
C3774 C 0.28657 0.21767 0.34242 0.0
C3775 C 0.31055 0.29965 0.39552 0.0
H3776 H 0.25791 0.23368 0.42731 0.0
H3777 H 0.32277 0.22381 0.42973 0.0
H3778 H 0.26123 0.27118 0.38652 0.0
H3779 H 0.25151 0.24155 0.36999 0.0
H3780 H 0.24215 0.24946 0.39768 0.0
H3781 H 0.34599 0.23556 0.40254 0.0
H3782 H 0.33279 0.23568 0.37395 0.0
H3783 H 0.34215 0.26291 0.39482 0.0
H3784 H 0.29364 0.24452 0.30914 0.0
H3785 H 0.31326 0.31324 0.35415 0.0
H3786 H 0.27111 0.21262 0.34982 0.0
H3787 H 0.29879 0.21048 0.35179 0.0
H3788 H 0.28392 0.20912 0.32364 0.0
H3789 H 0.2952 0.29936 0.40317 0.0
H3790 H 0.31842 0.31839 0.39481 0.0
H3791 H 0.3214 0.29319 0.4075 0.0
C3792 C 0.33192 0.58508 0.50601 0.0
C3793 C 0.33453 0.60814 0.51867 0.0
C3794 C 0.34808 0.57956 0.49312 0.0
C3795 C 0.3673 0.59744 0.49359 0.0
C3796 C 0.36889 0.62125 0.5042 0.0
C3797 C 0.35255 0.62628 0.51692 0.0
C3798 C 0.34543 0.55411 0.48109 0.0
C3799 C 0.3888 0.64092 0.50407 0.0
C3800 C 0.41736 0.5766 0.50771 0.0
C3801 C 0.42486 0.57325 0.48603 0.0
C3802 C 0.39877 0.58486 0.51025 0.0
C3803 C 0.38757 0.59017 0.49059 0.0
C3804 C 0.39548 0.58788 0.46879 0.0
C3805 C 0.4141 0.5791 0.46667 0.0
C3806 C 0.39075 0.58708 0.53389 0.0
C3807 C 0.38388 0.59366 0.44764 0.0
H3808 H 0.31738 0.57132 0.50625 0.0
H3809 H 0.35412 0.64441 0.52589 0.0
H3810 H 0.35397 0.55304 0.46545 0.0
H3811 H 0.35251 0.54452 0.49341 0.0
H3812 H 0.32794 0.54483 0.47576 0.0
H3813 H 0.3864 0.6588 0.51101 0.0
H3814 H 0.40294 0.63824 0.51496 0.0
H3815 H 0.39294 0.64051 0.48606 0.0
H3816 H 0.42547 0.5716 0.52252 0.0
H3817 H 0.42 0.5764 0.44991 0.0
H3818 H 0.37423 0.57517 0.53248 0.0
H3819 H 0.3896 0.60558 0.54013 0.0
H3820 H 0.40163 0.58236 0.54731 0.0
H3821 H 0.36906 0.57916 0.44063 0.0
H3822 H 0.39436 0.59548 0.43358 0.0
H3823 H 0.37853 0.61034 0.45229 0.0
C3824 C 0.90109 0.94896 0.54896 0.0
C3825 C 0.88745 0.93662 0.52838 0.0
C3826 C 0.92292 0.96103 0.54836 0.0
C3827 C 0.93139 0.96053 0.52671 0.0
C3828 C 0.91805 0.94647 0.50619 0.0
C3829 C 0.89624 0.93499 0.50724 0.0
C3830 C 0.93637 0.97576 0.5707 0.0
C3831 C 0.9264 0.94469 0.48284 0.0
C3832 C 0.97254 0.01725 0.52158 0.0
C3833 C 0.9926 0.01112 0.5243 0.0
C3834 C 0.95269 1.00074 0.52158 0.0
C3835 C 0.95266 0.97743 0.525 0.0
C3836 C 0.97286 0.97087 0.52714 0.0
C3837 C 0.99255 0.98776 0.52657 0.0
C3838 C 0.93169 0.00849 0.51835 0.0
C3839 C 0.97384 0.94642 0.53109 0.0
H3840 H 0.89431 0.9505 0.56529 0.0
H3841 H 0.88573 0.9254 0.49128 0.0
H3842 H 0.95318 0.9732 0.57202 0.0
H3843 H 0.93758 0.99489 0.5707 0.0
H3844 H 0.92905 0.97125 0.58636 0.0
H3845 H 0.91447 0.93197 0.46878 0.0
H3846 H 0.93003 0.96245 0.4779 0.0
H3847 H 0.94183 0.93888 0.48398 0.0
H3848 H 0.97238 0.03524 0.51966 0.0
H3849 H 0.00791 0.98301 0.52893 0.0
H3850 H 0.92348 0.00759 0.53419 0.0
H3851 H 0.92042 0.99627 0.50346 0.0
H3852 H 0.93439 0.02691 0.515 0.0
H3853 H 0.97116 0.94512 0.54932 0.0
H3854 H 0.98989 0.9427 0.52833 0.0
H3855 H 0.96082 0.93246 0.51934 0.0
C3856 C 0.90482 0.15614 0.25569 0.0
C3857 C 0.89532 0.1337 0.26108 0.0
C3858 C 0.89388 0.17526 0.25639 0.0
C3859 C 0.87274 0.1733 0.26374 0.0
C3860 C 0.86351 0.15102 0.27019 0.0
C3861 C 0.87436 0.1318 0.26821 0.0
C3862 C 0.90531 0.19774 0.24904 0.0
C3863 C 0.84202 0.14734 0.27969 0.0
C3864 C 0.85374 0.23327 0.28262 0.0
C3865 C 0.83666 0.23245 0.26487 0.0
C3866 C 0.86491 0.21442 0.28288 0.0
C3867 C 0.86029 0.19394 0.26429 0.0
C3868 C 0.84347 0.19349 0.24603 0.0
C3869 C 0.83181 0.21194 0.24684 0.0
C3870 C 0.88166 0.21648 0.30355 0.0
C3871 C 0.83825 0.17375 0.22481 0.0
H3872 H 0.92088 0.1587 0.25025 0.0
H3873 H 0.86641 0.11518 0.27285 0.0
H3874 H 0.89358 0.20552 0.23963 0.0
H3875 H 0.91375 0.21106 0.26479 0.0
H3876 H 0.91776 0.19449 0.23765 0.0
H3877 H 0.83972 0.13263 0.28961 0.0
H3878 H 0.84078 0.16382 0.29133 0.0
H3879 H 0.8285 0.14273 0.26504 0.0
H3880 H 0.85806 0.24853 0.29689 0.0
H3881 H 0.81907 0.21058 0.23268 0.0
H3882 H 0.8982 0.2223 0.29873 0.0
H3883 H 0.88029 0.19902 0.30892 0.0
H3884 H 0.87995 0.22972 0.31874 0.0
H3885 H 0.85303 0.17407 0.21602 0.0
H3886 H 0.82485 0.17537 0.21209 0.0
H3887 H 0.83358 0.1562 0.22999 0.0
C3888 C 0.71705 0.10168 0.01259 0.0
C3889 C 0.72199 0.12535 0.00961 0.0
C3890 C 0.69647 0.09099 0.01711 0.0
C3891 C 0.68046 0.10409 0.01762 0.0
C3892 C 0.68521 0.12795 0.01454 0.0
C3893 C 0.70614 0.13843 0.01062 0.0
C3894 C 0.6917 0.06556 0.02078 0.0
C3895 C 0.66815 0.14216 0.0151 0.0
C3896 C 0.62397 0.06728 0.99701 0.0
C3897 C 0.61526 0.06745 0.01806 0.0
C3898 C 0.64526 0.07952 0.99675 0.0
C3899 C 0.65805 0.09172 0.01811 0.0
C3900 C 0.64964 0.09148 0.03955 0.0
C3901 C 0.62813 0.07913 0.03927 0.0
C3902 C 0.65386 0.0798 0.97356 0.0
C3903 C 0.66324 0.10393 0.06267 0.0
H3904 H 0.72936 0.09159 0.01187 0.0
H3905 H 0.71012 0.15681 0.00846 0.0
H3906 H 0.6836 0.06401 0.03662 0.0
H3907 H 0.68037 0.0538 0.00569 0.0
H3908 H 0.70671 0.05898 0.02266 0.0
H3909 H 0.67476 0.16074 0.01291 0.0
H3910 H 0.6544 0.13344 1.00098 0.0
H3911 H 0.66142 0.14265 0.03194 0.0
H3912 H 0.61401 0.05819 0.98058 0.0
H3913 H 0.62135 0.07902 0.05557 0.0
H3914 H 0.66849 0.07251 0.97345 0.0
H3915 H 0.65882 0.09839 0.9708 0.0
H3916 H 0.64156 0.06918 0.95867 0.0
H3917 H 0.67392 0.09268 0.06803 0.0
H3918 H 0.65292 0.10696 0.07663 0.0
H3919 H 0.67388 0.12131 0.06135 0.0
C3920 C 0.19566 0.49205 0.2704 0.0
C3921 C 0.2053 0.50227 0.25285 0.0
C3922 C 0.2041 0.47547 0.28005 0.0
C3923 C 0.22227 0.46892 0.27145 0.0
C3924 C 0.23206 0.47924 0.25357 0.0
C3925 C 0.22355 0.49628 0.24465 0.0
C3926 C 0.19383 0.46545 0.29964 0.0
C3927 C 0.25109 0.47186 0.24351 0.0
C3928 C 0.26169 0.44134 0.30052 0.0
C3929 C 0.2554 0.4183 0.28695 0.0
C3930 C 0.24941 0.45774 0.29752 0.0
C3931 C 0.23087 0.45071 0.28041 0.0
C3932 C 0.22297 0.42679 0.26883 0.0
C3933 C 0.23534 0.41069 0.27246 0.0
C3934 C 0.25766 0.48316 0.31058 0.0
C3935 C 0.2029 0.41886 0.25071 0.0
H3936 H 0.18166 0.49732 0.27681 0.0
H3937 H 0.23066 0.50437 0.23091 0.0
H3938 H 0.19226 0.44601 0.29738 0.0
H3939 H 0.20441 0.474 0.31641 0.0
H3940 H 0.17745 0.46887 0.30097 0.0
H3941 H 0.25675 0.48183 0.22979 0.0
H3942 H 0.26496 0.47483 0.25752 0.0
H3943 H 0.24634 0.45255 0.23577 0.0
H3944 H 0.27715 0.44727 0.31184 0.0
H3945 H 0.23031 0.39273 0.26237 0.0
H3946 H 0.24397 0.49044 0.31638 0.0
H3947 H 0.2656 0.49436 0.29879 0.0
H3948 H 0.26976 0.48469 0.32605 0.0
H3949 H 0.18897 0.42455 0.25788 0.0
H3950 H 0.19815 0.39924 0.24455 0.0
H3951 H 0.20605 0.42741 0.23542 0.0
C3952 C 0.23646 0.40027 0.01391 0.0
C3953 C 0.25584 0.41583 0.02615 0.0
C3954 C 0.2184 0.40885 0.00693 0.0
C3955 C 0.21977 0.4336 0.01225 0.0
C3956 C 0.23961 0.44942 0.02376 0.0
C3957 C 0.25731 0.44035 0.03064 0.0
C3958 C 0.19782 0.3914 0.99413 0.0
C3959 C 0.24193 0.47595 0.02953 0.0
C3960 C 0.17775 0.46262 0.986 0.0
C3961 C 0.1659 0.46677 0.0048 0.0
C3962 C 0.1949 0.45115 0.98771 0.0
C3963 C 0.19998 0.44294 0.00844 0.0
C3964 C 0.18718 0.44556 0.02675 0.0
C3965 C 0.17064 0.45769 0.02488 0.0
C3966 C 0.20811 0.44865 0.96773 0.0
C3967 C 0.19153 0.4363 0.04881 0.0
H3968 H 0.23531 0.38131 0.0099 0.0
H3969 H 0.27229 0.45254 0.03975 0.0
H3970 H 0.18354 0.39406 0.00281 0.0
H3971 H 0.19491 0.39451 0.97608 0.0
H3972 H 0.19873 0.37262 0.99313 0.0
H3973 H 0.25906 0.486 0.03595 0.0
H3974 H 0.23613 0.48239 0.01394 0.0
H3975 H 0.23169 0.48002 0.04325 0.0
H3976 H 0.17398 0.46876 0.97005 0.0
H3977 H 0.16209 0.46087 0.03976 0.0
H3978 H 0.20763 0.42964 0.96153 0.0
H3979 H 0.22543 0.45813 0.97375 0.0
H3980 H 0.20208 0.4559 0.95277 0.0
H3981 H 0.19096 0.41704 0.0444 0.0
H3982 H 0.17954 0.4388 0.06104 0.0
H3983 H 0.20811 0.4456 0.05791 0.0
C3984 C 0.89131 0.95975 0.23619 0.0
C3985 C 0.8947 0.98 0.25418 0.0
C3986 C 0.87908 0.93666 0.23808 0.0
C3987 C 0.87019 0.9326 0.25892 0.0
C3988 C 0.874 0.95291 0.27745 0.0
C3989 C 0.88585 0.97604 0.27483 0.0
C3990 C 0.87551 0.91648 0.21742 0.0
C3991 C 0.8662 0.95004 0.30056 0.0
C3992 C 0.81902 0.88009 0.25532 0.0
C3993 C 0.8271 0.86119 0.26181 0.0
C3994 C 0.83262 0.90272 0.25442 0.0
C3995 C 0.8556 0.90784 0.26048 0.0
C3996 C 0.86409 0.88896 0.26729 0.0
C3997 C 0.84996 0.86606 0.26767 0.0
C3998 C 0.82216 0.92134 0.24682 0.0
C3999 C 0.88823 0.8929 0.2743 0.0
H4000 H 0.89838 0.96197 0.22033 0.0
H4001 H 0.88896 0.99089 0.28943 0.0
H4002 H 0.88068 0.90114 0.22278 0.0
H4003 H 0.85786 0.91035 0.21067 0.0
H4004 H 0.88455 0.92176 0.20303 0.0
H4005 H 0.86927 0.96733 0.31292 0.0
H4006 H 0.84851 0.9414 0.29798 0.0
H4007 H 0.87475 0.93822 0.30859 0.0
H4008 H 0.80159 0.8772 0.25075 0.0
H4009 H 0.85685 0.85221 0.27297 0.0
H4010 H 0.82914 0.92706 0.23142 0.0
H4011 H 0.82571 0.9373 0.261 0.0
H4012 H 0.8042 0.91479 0.24221 0.0
H4013 H 0.89658 0.8929 0.2585 0.0
H4014 H 0.89205 0.87877 0.2832 0.0
H4015 H 0.89499 0.91047 0.28606 0.0
C4016 C 0.69422 0.13389 0.77346 0.0
C4017 C 0.68261 0.12581 0.75096 0.0
C4018 C 0.71377 0.15133 0.77726 0.0
C4019 C 0.72143 0.16043 0.75799 0.0
C4020 C 0.70939 0.15281 0.7354 0.0
C4021 C 0.68964 0.13593 0.73229 0.0
C4022 C 0.72635 0.15968 0.80158 0.0
C4023 C 0.71767 0.16205 0.71447 0.0
C4024 C 0.75103 0.22293 0.7632 0.0
C4025 C 0.77175 0.22047 0.75943 0.0
C4026 C 0.73498 0.20346 0.7649 0.0
C4027 C 0.73978 0.18098 0.76173 0.0
C4028 C 0.76098 0.17839 0.75838 0.0
C4029 C 0.77713 0.19865 0.75753 0.0
C4030 C 0.7126 0.20685 0.76876 0.0
C4031 C 0.76648 0.1545 0.75554 0.0
H4032 H 0.68886 0.12524 0.7876 0.0
H4033 H 0.68091 0.12879 0.71482 0.0
H4034 H 0.74379 0.15983 0.80118 0.0
H4035 H 0.72563 0.17822 0.80846 0.0
H4036 H 0.71975 0.14831 0.81389 0.0
H4037 H 0.70713 0.1527 0.69784 0.0
H4038 H 0.71844 0.18135 0.71658 0.0
H4039 H 0.73443 0.15988 0.71316 0.0
H4040 H 0.74747 0.24031 0.76499 0.0
H4041 H 0.79365 0.19751 0.75538 0.0
H4042 H 0.70656 0.19794 0.78297 0.0
H4043 H 0.70095 0.19868 0.75262 0.0
H4044 H 0.71254 0.22596 0.77337 0.0
H4045 H 0.76657 0.14851 0.77251 0.0
H4046 H 0.78275 0.15527 0.74976 0.0
H4047 H 0.75404 0.14091 0.74272 0.0
loop_
_geom_bond_atom_site_label_1
_geom_bond_atom_site_label_2
_geom_bond_distance
_geom_bond_site_symmetry_2
_ccdc_geom_bond_type
C0 O1 1.306 . S
C0 O3 1.160 . S
O1 C0 1.306 . S
O1 Cd2 2.228 . S
Cd2 O1 2.228 . S
Cd2 O6 2.273 . S
Cd2 O10 2.277 . S
O3 C0 1.160 . S
O3 Cd4 2.203 . S
Cd4 O3 2.203 . S
Cd4 O6 2.411 . S
Cd4 O7 2.333 . S
Cd4 O8 2.352 . S
Cd4 O12 2.277 . S
Cd4 O13 2.356 . S
C5 O10 1.209 . S
C5 O12 1.226 . S
O6 Cd2 2.273 . S
O6 Cd4 2.411 . S
O6 C9 1.320 . S
O7 Cd4 2.333 . S
O7 C9 1.214 . S
O8 Cd4 2.352 . S
O8 C11 1.258 . S
C9 O6 1.320 . S
C9 O7 1.214 . S
O10 Cd2 2.277 . S
O10 C5 1.209 . S
C11 O8 1.258 . S
C11 O13 1.282 . S
O12 Cd4 2.277 . S
O12 C5 1.226 . S
O13 Cd4 2.356 . S
O13 C11 1.282 . S
C14 O15 1.306 . S
C14 O17 1.160 . S
O15 C14 1.306 . S
O15 Cd16 2.228 1_655 S
Cd16 O15 2.228 1_455 S
Cd16 O20 2.273 . S
Cd16 O24 2.277 1_455 S
O17 C14 1.160 . S
O17 Cd18 2.150 1_655 S
Cd18 O17 2.150 1_455 S
Cd18 O20 2.437 . S
Cd18 O21 2.387 . S
Cd18 O22 2.343 . S
Cd18 O26 2.281 1_455 S
Cd18 O27 2.360 . S
C19 O24 1.209 . S
C19 O26 1.226 . S
O20 Cd16 2.273 . S
O20 Cd18 2.437 . S
O20 C23 1.320 . S
O21 Cd18 2.387 . S
O21 C23 1.214 . S
O22 Cd18 2.343 . S
O22 C25 1.258 . S
C23 O20 1.320 . S
C23 O21 1.214 . S
O24 Cd16 2.277 1_655 S
O24 C19 1.209 . S
C25 O22 1.258 . S
C25 O27 1.282 . S
O26 Cd18 2.281 1_655 S
O26 C19 1.226 . S
O27 Cd18 2.360 . S
O27 C25 1.282 . S
C28 O29 1.306 . S
C28 O31 1.160 . S
O29 C28 1.306 . S
O29 Cd30 2.228 . S
Cd30 O29 2.228 . S
Cd30 O34 2.273 . S
Cd30 O38 2.277 . S
O31 C28 1.160 . S
O31 Cd32 2.203 . S
Cd32 O31 2.203 . S
Cd32 O34 2.411 . S
Cd32 O35 2.333 . S
Cd32 O36 2.352 . S
Cd32 O40 2.277 . S
Cd32 O41 2.356 . S
C33 O38 1.209 . S
C33 O40 1.226 . S
O34 Cd30 2.273 . S
O34 Cd32 2.411 . S
O34 C37 1.320 . S
O35 Cd32 2.333 . S
O35 C37 1.214 . S
O36 Cd32 2.352 . S
O36 C39 1.258 . S
C37 O34 1.320 . S
C37 O35 1.214 . S
O38 Cd30 2.277 . S
O38 C33 1.209 . S
C39 O36 1.258 . S
C39 O41 1.282 . S
O40 Cd32 2.277 . S
O40 C33 1.226 . S
O41 Cd32 2.356 . S
O41 C39 1.282 . S
C42 O43 1.306 . S
C42 O45 1.160 . S
O43 C42 1.306 . S
O43 Cd44 2.228 . S
Cd44 O43 2.228 . S
Cd44 O48 2.273 . S
Cd44 O52 2.277 . S
O45 C42 1.160 . S
O45 Cd46 2.203 . S
Cd46 O45 2.203 . S
Cd46 O48 2.411 . S
Cd46 O49 2.333 . S
Cd46 O50 2.352 . S
Cd46 O54 2.277 . S
Cd46 O55 2.356 . S
C47 O52 1.209 . S
C47 O54 1.226 . S
O48 Cd44 2.273 . S
O48 Cd46 2.411 . S
O48 C51 1.320 . S
O49 Cd46 2.333 . S
O49 C51 1.214 . S
O50 Cd46 2.352 . S
O50 C53 1.258 . S
C51 O48 1.320 . S
C51 O49 1.214 . S
O52 Cd44 2.277 . S
O52 C47 1.209 . S
C53 O50 1.258 . S
C53 O55 1.282 . S
O54 Cd46 2.277 . S
O54 C47 1.226 . S
O55 Cd46 2.356 . S
O55 C53 1.282 . S
C56 O57 1.306 . S
C56 O59 1.160 . S
O57 C56 1.306 . S
O57 Cd58 2.228 . S
Cd58 O57 2.228 . S
Cd58 O62 2.273 . S
Cd58 O66 2.277 . S
O59 C56 1.160 . S
O59 Cd60 2.203 . S
Cd60 O59 2.203 . S
Cd60 O62 2.411 . S
Cd60 O63 2.333 . S
Cd60 O64 2.352 . S
Cd60 O68 2.277 . S
Cd60 O69 2.356 . S
C61 O66 1.209 . S
C61 O68 1.226 . S
O62 Cd58 2.273 . S
O62 Cd60 2.411 . S
O62 C65 1.320 . S
O63 Cd60 2.333 . S
O63 C65 1.214 . S
O64 Cd60 2.352 . S
O64 C67 1.258 . S
C65 O62 1.320 . S
C65 O63 1.214 . S
O66 Cd58 2.277 . S
O66 C61 1.209 . S
C67 O64 1.258 . S
C67 O69 1.282 . S
O68 Cd60 2.277 . S
O68 C61 1.226 . S
O69 Cd60 2.356 . S
O69 C67 1.282 . S
C70 O71 1.306 . S
C70 O73 1.160 . S
O71 C70 1.306 . S
O71 Cd72 2.228 . S
Cd72 O71 2.228 . S
Cd72 O76 2.273 . S
Cd72 O80 2.277 . S
O73 C70 1.160 . S
O73 Cd74 2.203 . S
Cd74 O73 2.203 . S
Cd74 O76 2.411 . S
Cd74 O77 2.333 . S
Cd74 O78 2.352 . S
Cd74 O82 2.277 . S
Cd74 O83 2.356 . S
C75 O80 1.209 . S
C75 O82 1.226 . S
O76 Cd72 2.273 . S
O76 Cd74 2.411 . S
O76 C79 1.320 . S
O77 Cd74 2.333 . S
O77 C79 1.214 . S
O78 Cd74 2.352 . S
O78 C81 1.258 . S
C79 O76 1.320 . S
C79 O77 1.214 . S
O80 Cd72 2.277 . S
O80 C75 1.209 . S
C81 O78 1.258 . S
C81 O83 1.282 . S
O82 Cd74 2.277 . S
O82 C75 1.226 . S
O83 Cd74 2.356 . S
O83 C81 1.282 . S
C84 O85 1.306 . S
C84 O87 1.160 . S
O85 C84 1.306 . S
O85 Cd86 2.228 . S
Cd86 O85 2.228 . S
Cd86 O90 2.273 . S
Cd86 O94 2.277 . S
O87 C84 1.160 . S
O87 Cd88 2.203 . S
Cd88 O87 2.203 . S
Cd88 O90 2.411 . S
Cd88 O91 2.333 . S
Cd88 O92 2.352 . S
Cd88 O96 2.277 . S
Cd88 O97 2.356 . S
C89 O94 1.209 . S
C89 O96 1.226 . S
O90 Cd86 2.273 . S
O90 Cd88 2.411 . S
O90 C93 1.320 . S
O91 Cd88 2.333 . S
O91 C93 1.214 . S
O92 Cd88 2.352 . S
O92 C95 1.258 . S
C93 O90 1.320 . S
C93 O91 1.214 . S
O94 Cd86 2.277 . S
O94 C89 1.209 . S
C95 O92 1.258 . S
C95 O97 1.282 . S
O96 Cd88 2.277 . S
O96 C89 1.226 . S
O97 Cd88 2.356 . S
O97 C95 1.282 . S
C98 O99 1.306 . S
C98 O101 1.160 . S
O99 C98 1.306 . S
O99 Cd100 2.228 1_655 S
Cd100 O99 2.228 1_455 S
Cd100 O104 2.273 . S
Cd100 O108 2.277 . S
O101 C98 1.160 . S
O101 Cd102 2.203 1_655 S
Cd102 O101 2.203 1_455 S
Cd102 O104 2.411 . S
Cd102 O105 2.333 . S
Cd102 O106 2.352 . S
Cd102 O110 2.277 . S
Cd102 O111 2.356 . S
C103 O108 1.209 . S
C103 O110 1.226 . S
O104 Cd100 2.273 . S
O104 Cd102 2.411 . S
O104 C107 1.320 . S
O105 Cd102 2.333 . S
O105 C107 1.214 . S
O106 Cd102 2.352 . S
O106 C109 1.258 . S
C107 O104 1.320 . S
C107 O105 1.214 . S
O108 Cd100 2.277 . S
O108 C103 1.209 . S
C109 O106 1.258 . S
C109 O111 1.282 . S
O110 Cd102 2.277 . S
O110 C103 1.226 . S
O111 Cd102 2.356 . S
O111 C109 1.282 . S
C112 O113 1.306 1_545 S
C112 O115 1.160 . S
O113 C112 1.306 1_565 S
O113 Cd114 2.228 . S
Cd114 O113 2.228 . S
Cd114 O118 2.273 1_565 S
Cd114 O122 2.277 . S
O115 C112 1.160 . S
O115 Cd116 2.203 . S
Cd116 O115 2.203 . S
Cd116 O118 2.411 . S
Cd116 O119 2.331 . S
Cd116 O120 2.352 . S
Cd116 O124 2.277 1_545 S
Cd116 O125 2.356 . S
C117 O122 1.209 . S
C117 O124 1.226 . S
O118 Cd114 2.273 1_545 S
O118 Cd116 2.411 . S
O118 C121 1.311 . S
O119 Cd116 2.331 . S
O119 C121 1.219 . S
O120 Cd116 2.352 . S
O120 C123 1.258 . S
C121 O118 1.311 . S
C121 O119 1.219 . S
O122 Cd114 2.277 . S
O122 C117 1.209 . S
C123 O120 1.258 . S
C123 O125 1.282 . S
O124 Cd116 2.277 1_565 S
O124 C117 1.226 . S
O125 Cd116 2.356 . S
O125 C123 1.282 . S
C126 O127 1.306 . S
C126 O129 1.160 . S
O127 C126 1.306 . S
O127 Cd128 2.228 . S
Cd128 O127 2.228 . S
Cd128 O132 2.273 . S
Cd128 O136 2.277 . S
O129 C126 1.160 . S
O129 Cd130 2.203 . S
Cd130 O129 2.203 . S
Cd130 O132 2.411 . S
Cd130 O133 2.333 . S
Cd130 O134 2.352 . S
Cd130 O138 2.277 . S
Cd130 O139 2.356 . S
C131 O136 1.209 . S
C131 O138 1.226 . S
O132 Cd128 2.273 . S
O132 Cd130 2.411 . S
O132 C135 1.320 . S
O133 Cd130 2.333 . S
O133 C135 1.214 . S
O134 Cd130 2.352 . S
O134 C137 1.258 . S
C135 O132 1.320 . S
C135 O133 1.214 . S
O136 Cd128 2.277 . S
O136 C131 1.209 . S
C137 O134 1.258 . S
C137 O139 1.282 . S
O138 Cd130 2.277 . S
O138 C131 1.226 . S
O139 Cd130 2.356 . S
O139 C137 1.282 . S
C140 O141 1.306 . S
C140 O143 1.160 . S
O141 C140 1.306 . S
O141 Cd142 2.228 . S
Cd142 O141 2.228 . S
Cd142 O146 2.281 . S
Cd142 O150 2.277 . S
O143 C140 1.160 . S
O143 Cd144 2.203 . S
Cd144 O143 2.203 . S
Cd144 O146 2.409 . S
Cd144 O147 2.333 1_545 S
Cd144 O148 2.352 1_545 S
Cd144 O152 2.277 . S
Cd144 O153 2.356 1_545 S
C145 O150 1.209 . S
C145 O152 1.226 . S
O146 Cd142 2.281 . S
O146 Cd144 2.409 . S
O146 C149 1.320 1_545 S
O147 Cd144 2.333 1_565 S
O147 C149 1.214 . S
O148 Cd144 2.352 1_565 S
O148 C151 1.258 . S
C149 O146 1.320 1_565 S
C149 O147 1.214 . S
O150 Cd142 2.277 . S
O150 C145 1.209 . S
C151 O148 1.258 . S
C151 O153 1.282 . S
O152 Cd144 2.277 . S
O152 C145 1.226 . S
O153 Cd144 2.356 1_565 S
O153 C151 1.282 . S
C154 O155 1.292 1_554 S
C154 O157 1.160 . S
O155 C154 1.292 1_556 S
O155 Cd156 2.244 . S
Cd156 O155 2.244 . S
Cd156 O160 2.273 1_556 S
Cd156 O164 2.277 . S
O157 C154 1.160 . S
O157 Cd158 2.203 . S
Cd158 O157 2.203 . S
Cd158 O160 2.411 . S
Cd158 O161 2.333 . S
Cd158 O162 2.352 . S
Cd158 O166 2.277 1_554 S
Cd158 O167 2.356 . S
C159 O164 1.209 . S
C159 O166 1.226 . S
O160 Cd156 2.273 1_554 S
O160 Cd158 2.411 . S
O160 C163 1.320 . S
O161 Cd158 2.333 . S
O161 C163 1.214 . S
O162 Cd158 2.352 . S
O162 C165 1.258 . S
C163 O160 1.320 . S
C163 O161 1.214 . S
O164 Cd156 2.277 . S
O164 C159 1.209 . S
C165 O162 1.258 . S
C165 O167 1.282 . S
O166 Cd158 2.277 1_556 S
O166 C159 1.226 . S
O167 Cd158 2.356 . S
O167 C165 1.282 . S
C168 O169 1.306 . S
C168 O171 1.160 . S
O169 C168 1.306 . S
O169 Cd170 2.228 1_554 S
Cd170 O169 2.228 1_556 S
Cd170 O174 2.273 1_556 S
Cd170 O178 2.277 . S
O171 C168 1.160 . S
O171 Cd172 2.203 . S
Cd172 O171 2.203 . S
Cd172 O174 2.411 . S
Cd172 O175 2.333 . S
Cd172 O176 2.352 . S
Cd172 O180 2.277 1_554 S
Cd172 O181 2.356 . S
C173 O178 1.209 . S
C173 O180 1.226 . S
O174 Cd170 2.273 1_554 S
O174 Cd172 2.411 . S
O174 C177 1.320 . S
O175 Cd172 2.333 . S
O175 C177 1.214 . S
O176 Cd172 2.352 . S
O176 C179 1.258 . S
C177 O174 1.320 . S
C177 O175 1.214 . S
O178 Cd170 2.277 . S
O178 C173 1.209 . S
C179 O176 1.258 . S
C179 O181 1.282 . S
O180 Cd172 2.277 1_556 S
O180 C173 1.226 . S
O181 Cd172 2.356 . S
O181 C179 1.282 . S
C182 O183 1.306 . S
C182 O185 1.160 . S
O183 C182 1.306 . S
O183 Cd184 2.228 . S
Cd184 O183 2.228 . S
Cd184 O188 2.273 . S
Cd184 O192 2.277 . S
O185 C182 1.160 . S
O185 Cd186 2.203 . S
Cd186 O185 2.203 . S
Cd186 O188 2.411 . S
Cd186 O189 2.333 . S
Cd186 O190 2.352 1_554 S
Cd186 O194 2.277 . S
Cd186 O195 2.356 1_554 S
C187 O192 1.209 . S
C187 O194 1.226 . S
O188 Cd184 2.273 . S
O188 Cd186 2.411 . S
O188 C191 1.320 . S
O189 Cd186 2.333 . S
O189 C191 1.214 . S
O190 Cd186 2.352 1_556 S
O190 C193 1.258 . S
C191 O188 1.320 . S
C191 O189 1.214 . S
O192 Cd184 2.277 . S
O192 C187 1.209 . S
C193 O190 1.258 . S
C193 O195 1.282 . S
O194 Cd186 2.277 . S
O194 C187 1.226 . S
O195 Cd186 2.356 1_556 S
O195 C193 1.282 . S
C196 O197 1.306 . S
C196 O199 1.160 . S
O197 C196 1.306 . S
O197 Cd198 2.228 . S
Cd198 O197 2.228 . S
Cd198 O202 2.273 . S
Cd198 O206 2.277 . S
O199 C196 1.160 . S
O199 Cd200 2.203 . S
Cd200 O199 2.203 . S
Cd200 O202 2.411 . S
Cd200 O203 2.333 . S
Cd200 O204 2.352 . S
Cd200 O208 2.277 . S
Cd200 O209 2.356 . S
C201 O206 1.209 . S
C201 O208 1.226 . S
O202 Cd198 2.273 . S
O202 Cd200 2.411 . S
O202 C205 1.320 . S
O203 Cd200 2.333 . S
O203 C205 1.214 . S
O204 Cd200 2.352 . S
O204 C207 1.258 . S
C205 O202 1.320 . S
C205 O203 1.214 . S
O206 Cd198 2.277 . S
O206 C201 1.209 . S
C207 O204 1.258 . S
C207 O209 1.282 . S
O208 Cd200 2.277 . S
O208 C201 1.226 . S
O209 Cd200 2.356 . S
O209 C207 1.282 . S
C210 O211 1.306 . S
C210 O213 1.160 . S
O211 C210 1.306 . S
O211 Cd212 2.228 . S
Cd212 O211 2.228 . S
Cd212 O216 2.273 . S
Cd212 O220 2.277 . S
O213 C210 1.160 . S
O213 Cd214 2.203 . S
Cd214 O213 2.203 . S
Cd214 O216 2.411 . S
Cd214 O217 2.333 . S
Cd214 O218 2.352 . S
Cd214 O222 2.277 . S
Cd214 O223 2.356 . S
C215 O220 1.209 . S
C215 O222 1.226 . S
O216 Cd212 2.273 . S
O216 Cd214 2.411 . S
O216 C219 1.320 . S
O217 Cd214 2.333 . S
O217 C219 1.214 . S
O218 Cd214 2.352 . S
O218 C221 1.258 . S
C219 O216 1.320 . S
C219 O217 1.214 . S
O220 Cd212 2.277 . S
O220 C215 1.209 . S
C221 O218 1.258 . S
C221 O223 1.282 . S
O222 Cd214 2.277 . S
O222 C215 1.226 . S
O223 Cd214 2.356 . S
O223 C221 1.282 . S
C224 O225 1.306 . S
C224 O227 1.160 . S
O225 C224 1.306 . S
O225 Cd226 2.228 . S
Cd226 O225 2.228 . S
Cd226 O230 2.273 . S
Cd226 O234 2.277 . S
O227 C224 1.160 . S
O227 Cd228 2.203 . S
Cd228 O227 2.203 . S
Cd228 O230 2.411 . S
Cd228 O231 2.333 . S
Cd228 O232 2.352 . S
Cd228 O236 2.277 . S
Cd228 O237 2.356 . S
C229 O234 1.209 . S
C229 O236 1.226 . S
O230 Cd226 2.273 . S
O230 Cd228 2.411 . S
O230 C233 1.320 . S
O231 Cd228 2.333 . S
O231 C233 1.214 . S
O232 Cd228 2.352 . S
O232 C235 1.258 . S
C233 O230 1.320 . S
C233 O231 1.214 . S
O234 Cd226 2.277 . S
O234 C229 1.209 . S
C235 O232 1.258 . S
C235 O237 1.282 . S
O236 Cd228 2.277 . S
O236 C229 1.226 . S
O237 Cd228 2.356 . S
O237 C235 1.282 . S
C238 O239 1.306 . S
C238 O241 1.160 . S
O239 C238 1.306 . S
O239 Cd240 2.228 . S
Cd240 O239 2.228 . S
Cd240 O244 2.273 . S
Cd240 O248 2.277 . S
O241 C238 1.160 . S
O241 Cd242 2.203 . S
Cd242 O241 2.203 . S
Cd242 O244 2.411 . S
Cd242 O245 2.333 . S
Cd242 O246 2.352 . S
Cd242 O250 2.277 . S
Cd242 O251 2.356 . S
C243 O248 1.209 . S
C243 O250 1.226 . S
O244 Cd240 2.273 . S
O244 Cd242 2.411 . S
O244 C247 1.320 . S
O245 Cd242 2.333 . S
O245 C247 1.214 . S
O246 Cd242 2.352 . S
O246 C249 1.258 . S
C247 O244 1.320 . S
C247 O245 1.214 . S
O248 Cd240 2.277 . S
O248 C243 1.209 . S
C249 O246 1.258 . S
C249 O251 1.282 . S
O250 Cd242 2.277 . S
O250 C243 1.226 . S
O251 Cd242 2.356 . S
O251 C249 1.282 . S
C252 O253 1.306 . S
C252 O255 1.160 . S
O253 C252 1.306 . S
O253 Cd254 2.228 . S
Cd254 O253 2.228 . S
Cd254 O258 2.273 . S
Cd254 O262 2.277 . S
O255 C252 1.160 . S
O255 Cd256 2.203 . S
Cd256 O255 2.203 . S
Cd256 O258 2.411 . S
Cd256 O259 2.333 . S
Cd256 O260 2.352 . S
Cd256 O264 2.277 . S
Cd256 O265 2.356 . S
C257 O262 1.209 . S
C257 O264 1.226 . S
O258 Cd254 2.273 . S
O258 Cd256 2.411 . S
O258 C261 1.320 . S
O259 Cd256 2.333 . S
O259 C261 1.214 . S
O260 Cd256 2.352 . S
O260 C263 1.258 . S
C261 O258 1.320 . S
C261 O259 1.214 . S
O262 Cd254 2.277 . S
O262 C257 1.209 . S
C263 O260 1.258 . S
C263 O265 1.282 . S
O264 Cd256 2.277 . S
O264 C257 1.226 . S
O265 Cd256 2.356 . S
O265 C263 1.282 . S
C266 O267 1.306 . S
C266 O269 1.160 . S
O267 C266 1.306 . S
O267 Cd268 2.228 . S
Cd268 O267 2.228 . S
Cd268 O272 2.273 . S
Cd268 O276 2.277 . S
O269 C266 1.160 . S
O269 Cd270 2.203 . S
Cd270 O269 2.203 . S
Cd270 O272 2.411 . S
Cd270 O273 2.333 . S
Cd270 O274 2.352 . S
Cd270 O278 2.277 . S
Cd270 O279 2.356 . S
C271 O276 1.209 . S
C271 O278 1.226 . S
O272 Cd268 2.273 . S
O272 Cd270 2.411 . S
O272 C275 1.320 . S
O273 Cd270 2.333 . S
O273 C275 1.214 . S
O274 Cd270 2.352 . S
O274 C277 1.258 . S
C275 O272 1.320 . S
C275 O273 1.214 . S
O276 Cd268 2.277 . S
O276 C271 1.209 . S
C277 O274 1.258 . S
C277 O279 1.282 . S
O278 Cd270 2.277 . S
O278 C271 1.226 . S
O279 Cd270 2.356 . S
O279 C277 1.282 . S
C280 O281 1.306 . S
C280 O283 1.160 . S
O281 C280 1.306 . S
O281 Cd282 2.228 . S
Cd282 O281 2.228 . S
Cd282 O286 2.273 . S
Cd282 O290 2.277 . S
O283 C280 1.160 . S
O283 Cd284 2.203 . S
Cd284 O283 2.203 . S
Cd284 O286 2.411 . S
Cd284 O287 2.335 1_554 S
Cd284 O288 2.352 1_554 S
Cd284 O292 2.277 . S
Cd284 O293 2.356 1_554 S
C285 O290 1.209 . S
C285 O292 1.226 . S
O286 Cd282 2.273 . S
O286 Cd284 2.411 . S
O286 C289 1.318 1_554 S
O287 Cd284 2.335 1_556 S
O287 C289 1.210 . S
O288 Cd284 2.352 1_556 S
O288 C291 1.258 . S
C289 O286 1.318 1_556 S
C289 O287 1.210 . S
O290 Cd282 2.277 . S
O290 C285 1.209 . S
C291 O288 1.258 . S
C291 O293 1.282 . S
O292 Cd284 2.277 . S
O292 C285 1.226 . S
O293 Cd284 2.356 1_556 S
O293 C291 1.282 . S
C294 O295 1.306 . S
C294 O297 1.160 . S
O295 C294 1.306 . S
O295 Cd296 2.228 . S
Cd296 O295 2.228 . S
Cd296 O300 2.273 . S
Cd296 O304 2.277 . S
O297 C294 1.160 . S
O297 Cd298 2.203 . S
Cd298 O297 2.203 . S
Cd298 O300 2.411 . S
Cd298 O301 2.333 . S
Cd298 O302 2.352 . S
Cd298 O306 2.277 . S
Cd298 O307 2.356 . S
C299 O304 1.209 . S
C299 O306 1.226 . S
O300 Cd296 2.273 . S
O300 Cd298 2.411 . S
O300 C303 1.320 . S
O301 Cd298 2.333 . S
O301 C303 1.214 . S
O302 Cd298 2.352 . S
O302 C305 1.258 . S
C303 O300 1.320 . S
C303 O301 1.214 . S
O304 Cd296 2.277 . S
O304 C299 1.209 . S
C305 O302 1.258 . S
C305 O307 1.282 . S
O306 Cd298 2.277 . S
O306 C299 1.226 . S
O307 Cd298 2.356 . S
O307 C305 1.282 . S
C308 O309 1.306 . S
C308 O311 1.160 . S
O309 C308 1.306 . S
O309 Cd310 2.228 . S
Cd310 O309 2.228 . S
Cd310 O314 2.273 . S
Cd310 O318 2.277 . S
O311 C308 1.160 . S
O311 Cd312 2.203 . S
Cd312 O311 2.203 . S
Cd312 O314 2.411 . S
Cd312 O315 2.333 . S
Cd312 O316 2.352 . S
Cd312 O320 2.277 . S
Cd312 O321 2.356 . S
C313 O318 1.209 . S
C313 O320 1.226 . S
O314 Cd310 2.273 . S
O314 Cd312 2.411 . S
O314 C317 1.320 . S
O315 Cd312 2.333 . S
O315 C317 1.214 . S
O316 Cd312 2.352 . S
O316 C319 1.258 . S
C317 O314 1.320 . S
C317 O315 1.214 . S
O318 Cd310 2.277 . S
O318 C313 1.209 . S
C319 O316 1.258 . S
C319 O321 1.282 . S
O320 Cd312 2.277 . S
O320 C313 1.226 . S
O321 Cd312 2.356 . S
O321 C319 1.282 . S
C322 O323 1.306 . S
C322 O325 1.160 . S
O323 C322 1.306 . S
O323 Cd324 2.228 . S
Cd324 O323 2.228 . S
Cd324 O328 2.273 . S
Cd324 O332 2.277 . S
O325 C322 1.160 . S
O325 Cd326 2.203 . S
Cd326 O325 2.203 . S
Cd326 O328 2.411 . S
Cd326 O329 2.333 . S
Cd326 O330 2.352 . S
Cd326 O334 2.277 . S
Cd326 O335 2.356 . S
C327 O332 1.209 . S
C327 O334 1.226 . S
O328 Cd324 2.273 . S
O328 Cd326 2.411 . S
O328 C331 1.320 . S
O329 Cd326 2.333 . S
O329 C331 1.214 . S
O330 Cd326 2.352 . S
O330 C333 1.258 . S
C331 O328 1.320 . S
C331 O329 1.214 . S
O332 Cd324 2.277 . S
O332 C327 1.209 . S
C333 O330 1.258 . S
C333 O335 1.282 . S
O334 Cd326 2.277 . S
O334 C327 1.226 . S
O335 Cd326 2.356 . S
O335 C333 1.282 . S
Ho336 C339 2.814 1_455 S
Ho336 O356 2.329 . S
Ho336 O358 2.389 1_455 S
Ho336 O359 2.518 1_456 S
Ho336 O360 2.401 . S
Ho336 O361 2.676 . S
Ho336 O363 2.339 1_546 S
Ho336 O367 2.288 1_556 S
Ho337 C348 2.811 . S
Ho337 O357 2.346 . S
Ho337 O361 2.305 1_554 S
Ho337 O362 2.322 . S
Ho337 O364 2.378 . S
Ho337 O365 2.524 . S
Ho337 O366 2.381 . S
Ho337 O367 2.669 . S
C338 O356 1.259 1_554 S
C338 O357 1.268 . S
C339 Ho336 2.814 1_655 S
C339 C340 1.488 . S
C339 O358 1.215 . S
C339 O359 1.289 1_556 S
C340 C339 1.488 . S
C340 C341 1.348 1_556 S
C340 C345 1.413 . S
C341 C340 1.348 1_554 S
C341 C342 1.442 1_554 S
C341 H368 0.930 . S
C342 C341 1.442 1_556 S
C342 C343 1.381 . S
C342 H369 0.931 1_556 S
C343 C342 1.381 . S
C343 C344 1.321 . S
C344 C343 1.321 . S
C344 C345 1.403 . S
C344 H370 0.934 . S
C345 C340 1.413 . S
C345 C344 1.403 . S
C345 H371 0.930 . S
C346 O360 1.275 . S
C346 O361 1.256 . S
C347 O362 1.259 1_565 S
C347 O363 1.268 . S
C348 Ho337 2.811 . S
C348 C349 1.488 . S
C348 O364 1.215 . S
C348 O365 1.289 . S
C349 C348 1.488 . S
C349 C350 1.348 . S
C349 C354 1.413 . S
C350 C349 1.348 . S
C350 C351 1.442 1_545 S
C350 H372 0.931 1_545 S
C351 C350 1.442 1_565 S
C351 C352 1.381 1_565 S
C351 H373 0.931 . S
C352 C351 1.381 1_545 S
C352 C353 1.321 . S
C353 C352 1.321 . S
C353 C354 1.403 . S
C353 H374 0.934 . S
C354 C349 1.413 . S
C354 C353 1.403 . S
C354 H375 0.930 . S
C355 O366 1.275 . S
C355 O367 1.256 . S
O356 Ho336 2.329 . S
O356 C338 1.259 1_556 S
O357 Ho337 2.346 . S
O357 C338 1.268 . S
O358 Ho336 2.389 1_655 S
O358 C339 1.215 . S
O359 Ho336 2.518 1_654 S
O359 C339 1.289 1_554 S
O360 Ho336 2.401 . S
O360 C346 1.275 . S
O361 Ho336 2.676 . S
O361 Ho337 2.305 1_556 S
O361 C346 1.256 . S
O362 Ho337 2.322 . S
O362 C347 1.259 1_545 S
O363 Ho336 2.339 1_564 S
O363 C347 1.268 . S
O364 Ho337 2.378 . S
O364 C348 1.215 . S
O365 Ho337 2.524 . S
O365 C348 1.289 . S
O366 Ho337 2.381 . S
O366 C355 1.275 . S
O367 Ho336 2.288 1_554 S
O367 Ho337 2.669 . S
O367 C355 1.256 . S
H368 C341 0.930 . S
H369 C342 0.931 1_554 S
H370 C344 0.934 . S
H371 C345 0.930 . S
H372 C350 0.931 1_565 S
H373 C351 0.931 . S
H374 C353 0.934 . S
H375 C354 0.930 . S
Ho376 C379 2.811 . S
Ho376 O396 2.322 . S
Ho376 O398 2.378 . S
Ho376 O399 2.524 . S
Ho376 O400 2.381 . S
Ho376 O401 2.669 . S
Ho376 O403 2.346 . S
Ho376 O407 2.305 . S
Ho377 C388 2.811 . S
Ho377 O397 2.346 . S
Ho377 O401 2.305 . S
Ho377 O402 2.322 . S
Ho377 O404 2.378 . S
Ho377 O405 2.524 . S
Ho377 O406 2.381 . S
Ho377 O407 2.669 . S
C378 O396 1.259 . S
C378 O397 1.268 . S
C379 Ho376 2.811 . S
C379 C380 1.488 . S
C379 O398 1.215 . S
C379 O399 1.289 . S
C380 C379 1.488 . S
C380 C381 1.348 . S
C380 C385 1.413 . S
C381 C380 1.348 . S
C381 C382 1.442 . S
C381 H408 0.930 . S
C382 C381 1.442 . S
C382 C383 1.381 . S
C382 H409 0.931 . S
C383 C382 1.381 . S
C383 C384 1.321 . S
C384 C383 1.321 . S
C384 C385 1.403 . S
C384 H410 0.934 . S
C385 C380 1.413 . S
C385 C384 1.403 . S
C385 H411 0.930 . S
C386 O400 1.275 . S
C386 O401 1.256 . S
C387 O402 1.259 . S
C387 O403 1.268 . S
C388 Ho377 2.811 . S
C388 C389 1.488 . S
C388 O404 1.215 . S
C388 O405 1.289 . S
C389 C388 1.488 . S
C389 C390 1.348 . S
C389 C394 1.413 . S
C390 C389 1.348 . S
C390 C391 1.442 . S
C390 H412 0.930 . S
C391 C390 1.442 . S
C391 C392 1.381 . S
C391 H413 0.931 . S
C392 C391 1.381 . S
C392 C393 1.321 . S
C393 C392 1.321 . S
C393 C394 1.403 . S
C393 H414 0.934 . S
C394 C389 1.413 . S
C394 C393 1.403 . S
C394 H415 0.930 . S
C395 O406 1.275 . S
C395 O407 1.256 . S
O396 Ho376 2.322 . S
O396 C378 1.259 . S
O397 Ho377 2.346 . S
O397 C378 1.268 . S
O398 Ho376 2.378 . S
O398 C379 1.215 . S
O399 Ho376 2.524 . S
O399 C379 1.289 . S
O400 Ho376 2.381 . S
O400 C386 1.275 . S
O401 Ho376 2.669 . S
O401 Ho377 2.305 . S
O401 C386 1.256 . S
O402 Ho377 2.322 . S
O402 C387 1.259 . S
O403 Ho376 2.346 . S
O403 C387 1.268 . S
O404 Ho377 2.378 . S
O404 C388 1.215 . S
O405 Ho377 2.524 . S
O405 C388 1.289 . S
O406 Ho377 2.381 . S
O406 C395 1.275 . S
O407 Ho376 2.305 . S
O407 Ho377 2.669 . S
O407 C395 1.256 . S
H408 C381 0.930 . S
H409 C382 0.931 . S
H410 C384 0.934 . S
H411 C385 0.930 . S
H412 C390 0.930 . S
H413 C391 0.931 . S
H414 C393 0.934 . S
H415 C394 0.930 . S
Ho416 C419 2.811 . S
Ho416 O436 2.322 1_545 S
Ho416 O438 2.378 . S
Ho416 O439 2.524 . S
Ho416 O440 2.381 . S
Ho416 O441 2.669 . S
Ho416 O443 2.346 . S
Ho416 O447 2.305 . S
Ho417 C428 2.811 . S
Ho417 O437 2.346 1_545 S
Ho417 O441 2.305 . S
Ho417 O442 2.322 . S
Ho417 O444 2.378 . S
Ho417 O445 2.524 . S
Ho417 O446 2.381 . S
Ho417 O447 2.669 . S
C418 O436 1.259 . S
C418 O437 1.268 . S
C419 Ho416 2.811 . S
C419 C420 1.488 1_545 S
C419 O438 1.215 . S
C419 O439 1.289 . S
C420 C419 1.488 1_565 S
C420 C421 1.348 . S
C420 C425 1.413 . S
C421 C420 1.348 . S
C421 C422 1.442 . S
C421 H448 0.930 . S
C422 C421 1.442 . S
C422 C423 1.381 . S
C422 H449 0.931 . S
C423 C422 1.381 . S
C423 C424 1.321 . S
C424 C423 1.321 . S
C424 C425 1.403 . S
C424 H450 0.934 . S
C425 C420 1.413 . S
C425 C424 1.403 . S
C425 H451 0.930 . S
C426 O440 1.275 . S
C426 O441 1.256 . S
C427 O442 1.259 . S
C427 O443 1.268 . S
C428 Ho417 2.811 . S
C428 C429 1.488 . S
C428 O444 1.215 . S
C428 O445 1.289 . S
C429 C428 1.488 . S
C429 C430 1.348 . S
C429 C434 1.413 . S
C430 C429 1.348 . S
C430 C431 1.442 . S
C430 H452 0.930 . S
C431 C430 1.442 . S
C431 C432 1.381 . S
C431 H453 0.931 . S
C432 C431 1.381 . S
C432 C433 1.321 . S
C433 C432 1.321 . S
C433 C434 1.403 . S
C433 H454 0.934 . S
C434 C429 1.413 . S
C434 C433 1.403 . S
C434 H455 0.930 . S
C435 O446 1.275 . S
C435 O447 1.256 . S
O436 Ho416 2.322 1_565 S
O436 C418 1.259 . S
O437 Ho417 2.346 1_565 S
O437 C418 1.268 . S
O438 Ho416 2.378 . S
O438 C419 1.215 . S
O439 Ho416 2.524 . S
O439 C419 1.289 . S
O440 Ho416 2.381 . S
O440 C426 1.275 . S
O441 Ho416 2.669 . S
O441 Ho417 2.305 . S
O441 C426 1.256 . S
O442 Ho417 2.322 . S
O442 C427 1.259 . S
O443 Ho416 2.346 . S
O443 C427 1.268 . S
O444 Ho417 2.378 . S
O444 C428 1.215 . S
O445 Ho417 2.524 . S
O445 C428 1.289 . S
O446 Ho417 2.381 . S
O446 C435 1.275 . S
O447 Ho416 2.305 . S
O447 Ho417 2.669 . S
O447 C435 1.256 . S
H448 C421 0.930 . S
H449 C422 0.931 . S
H450 C424 0.934 . S
H451 C425 0.930 . S
H452 C430 0.930 . S
H453 C431 0.931 . S
H454 C433 0.934 . S
H455 C434 0.930 . S
Ho456 C459 2.811 . S
Ho456 O476 2.322 . S
Ho456 O478 2.378 . S
Ho456 O479 2.524 . S
Ho456 O480 2.381 . S
Ho456 O481 2.669 . S
Ho456 O483 2.346 . S
Ho456 O487 2.305 . S
Ho457 C468 2.811 . S
Ho457 O477 2.346 . S
Ho457 O481 2.305 . S
Ho457 O482 2.322 . S
Ho457 O484 2.378 . S
Ho457 O485 2.524 . S
Ho457 O486 2.381 . S
Ho457 O487 2.669 . S
C458 O476 1.259 . S
C458 O477 1.268 . S
C459 Ho456 2.811 . S
C459 C460 1.488 . S
C459 O478 1.215 . S
C459 O479 1.289 . S
C460 C459 1.488 . S
C460 C461 1.348 . S
C460 C465 1.413 . S
C461 C460 1.348 . S
C461 C462 1.442 . S
C461 H488 0.930 . S
C462 C461 1.442 . S
C462 C463 1.381 . S
C462 H489 0.931 . S
C463 C462 1.381 . S
C463 C464 1.321 . S
C464 C463 1.321 . S
C464 C465 1.403 . S
C464 H490 0.934 . S
C465 C460 1.413 . S
C465 C464 1.403 . S
C465 H491 0.930 . S
C466 O480 1.275 . S
C466 O481 1.256 . S
C467 O482 1.259 . S
C467 O483 1.268 . S
C468 Ho457 2.811 . S
C468 C469 1.488 . S
C468 O484 1.215 . S
C468 O485 1.289 . S
C469 C468 1.488 . S
C469 C470 1.348 . S
C469 C474 1.413 . S
C470 C469 1.348 . S
C470 C471 1.442 . S
C470 H492 0.930 . S
C471 C470 1.442 . S
C471 C472 1.381 . S
C471 H493 0.931 . S
C472 C471 1.381 . S
C472 C473 1.321 . S
C473 C472 1.321 . S
C473 C474 1.403 . S
C473 H494 0.934 . S
C474 C469 1.413 . S
C474 C473 1.403 . S
C474 H495 0.930 . S
C475 O486 1.275 . S
C475 O487 1.256 . S
O476 Ho456 2.322 . S
O476 C458 1.259 . S
O477 Ho457 2.346 . S
O477 C458 1.268 . S
O478 Ho456 2.378 . S
O478 C459 1.215 . S
O479 Ho456 2.524 . S
O479 C459 1.289 . S
O480 Ho456 2.381 . S
O480 C466 1.275 . S
O481 Ho456 2.669 . S
O481 Ho457 2.305 . S
O481 C466 1.256 . S
O482 Ho457 2.322 . S
O482 C467 1.259 . S
O483 Ho456 2.346 . S
O483 C467 1.268 . S
O484 Ho457 2.378 . S
O484 C468 1.215 . S
O485 Ho457 2.524 . S
O485 C468 1.289 . S
O486 Ho457 2.381 . S
O486 C475 1.275 . S
O487 Ho456 2.305 . S
O487 Ho457 2.669 . S
O487 C475 1.256 . S
H488 C461 0.930 . S
H489 C462 0.931 . S
H490 C464 0.934 . S
H491 C465 0.930 . S
H492 C470 0.930 . S
H493 C471 0.931 . S
H494 C473 0.934 . S
H495 C474 0.930 . S
Ho496 C499 2.811 . S
Ho496 O516 2.322 . S
Ho496 O518 2.378 . S
Ho496 O519 2.524 . S
Ho496 O520 2.381 . S
Ho496 O521 2.669 . S
Ho496 O523 2.346 . S
Ho496 O527 2.305 . S
Ho497 C508 2.764 1_545 S
Ho497 O517 2.378 . S
Ho497 O521 2.333 . S
Ho497 O522 2.329 . S
Ho497 O524 2.333 1_545 S
Ho497 O525 2.486 1_545 S
Ho497 O526 2.396 . S
Ho497 O527 2.716 . S
C498 O516 1.259 . S
C498 O517 1.268 . S
C499 Ho496 2.811 . S
C499 C500 1.488 . S
C499 O518 1.215 . S
C499 O519 1.289 . S
C500 C499 1.488 . S
C500 C501 1.348 . S
C500 C505 1.413 . S
C501 C500 1.348 . S
C501 C502 1.442 . S
C501 H528 0.930 . S
C502 C501 1.442 . S
C502 C503 1.381 . S
C502 H529 0.931 . S
C503 C502 1.381 . S
C503 C504 1.321 . S
C504 C503 1.321 . S
C504 C505 1.403 . S
C504 H530 0.934 . S
C505 C500 1.413 . S
C505 C504 1.403 . S
C505 H531 0.930 . S
C506 O520 1.275 . S
C506 O521 1.256 . S
C507 O522 1.259 . S
C507 O523 1.268 . S
C508 Ho497 2.764 1_565 S
C508 C509 1.488 . S
C508 O524 1.215 . S
C508 O525 1.289 . S
C509 C508 1.488 . S
C509 C510 1.348 . S
C509 C514 1.413 . S
C510 C509 1.348 . S
C510 C511 1.442 . S
C510 H532 0.930 . S
C511 C510 1.442 . S
C511 C512 1.381 . S
C511 H533 0.931 . S
C512 C511 1.381 . S
C512 C513 1.321 . S
C513 C512 1.321 . S
C513 C514 1.403 . S
C513 H534 0.934 . S
C514 C509 1.413 . S
C514 C513 1.403 . S
C514 H535 0.930 . S
C515 O526 1.275 . S
C515 O527 1.256 . S
O516 Ho496 2.322 . S
O516 C498 1.259 . S
O517 Ho497 2.378 . S
O517 C498 1.268 . S
O518 Ho496 2.378 . S
O518 C499 1.215 . S
O519 Ho496 2.524 . S
O519 C499 1.289 . S
O520 Ho496 2.381 . S
O520 C506 1.275 . S
O521 Ho496 2.669 . S
O521 Ho497 2.333 . S
O521 C506 1.256 . S
O522 Ho497 2.329 . S
O522 C507 1.259 . S
O523 Ho496 2.346 . S
O523 C507 1.268 . S
O524 Ho497 2.333 1_565 S
O524 C508 1.215 . S
O525 Ho497 2.486 1_565 S
O525 C508 1.289 . S
O526 Ho497 2.396 . S
O526 C515 1.275 . S
O527 Ho496 2.305 . S
O527 Ho497 2.716 . S
O527 C515 1.256 . S
H528 C501 0.930 . S
H529 C502 0.931 . S
H530 C504 0.934 . S
H531 C505 0.930 . S
H532 C510 0.930 . S
H533 C511 0.931 . S
H534 C513 0.934 . S
H535 C514 0.930 . S
Ho536 C539 2.811 . S
Ho536 O556 2.322 . S
Ho536 O558 2.378 . S
Ho536 O559 2.524 . S
Ho536 O560 2.381 . S
Ho536 O561 2.669 . S
Ho536 O563 2.346 . S
Ho536 O567 2.305 . S
Ho537 C548 2.811 . S
Ho537 O557 2.346 . S
Ho537 O561 2.305 . S
Ho537 O562 2.322 . S
Ho537 O564 2.378 . S
Ho537 O565 2.524 . S
Ho537 O566 2.381 . S
Ho537 O567 2.669 . S
C538 O556 1.259 . S
C538 O557 1.268 . S
C539 Ho536 2.811 . S
C539 C540 1.488 . S
C539 O558 1.215 . S
C539 O559 1.289 . S
C540 C539 1.488 . S
C540 C541 1.348 . S
C540 C545 1.413 . S
C541 C540 1.348 . S
C541 C542 1.442 . S
C541 H568 0.930 . S
C542 C541 1.442 . S
C542 C543 1.381 . S
C542 H569 0.931 . S
C543 C542 1.381 . S
C543 C544 1.321 . S
C544 C543 1.321 . S
C544 C545 1.403 . S
C544 H570 0.934 . S
C545 C540 1.413 . S
C545 C544 1.403 . S
C545 H571 0.930 . S
C546 O560 1.275 . S
C546 O561 1.256 . S
C547 O562 1.259 . S
C547 O563 1.268 . S
C548 Ho537 2.811 . S
C548 C549 1.488 . S
C548 O564 1.215 . S
C548 O565 1.289 . S
C549 C548 1.488 . S
C549 C550 1.348 . S
C549 C554 1.413 . S
C550 C549 1.348 . S
C550 C551 1.442 . S
C550 H572 0.930 . S
C551 C550 1.442 . S
C551 C552 1.381 . S
C551 H573 0.931 . S
C552 C551 1.381 . S
C552 C553 1.321 . S
C553 C552 1.321 . S
C553 C554 1.403 . S
C553 H574 0.934 . S
C554 C549 1.413 . S
C554 C553 1.403 . S
C554 H575 0.930 . S
C555 O566 1.275 . S
C555 O567 1.256 . S
O556 Ho536 2.322 . S
O556 C538 1.259 . S
O557 Ho537 2.346 . S
O557 C538 1.268 . S
O558 Ho536 2.378 . S
O558 C539 1.215 . S
O559 Ho536 2.524 . S
O559 C539 1.289 . S
O560 Ho536 2.381 . S
O560 C546 1.275 . S
O561 Ho536 2.669 . S
O561 Ho537 2.305 . S
O561 C546 1.256 . S
O562 Ho537 2.322 . S
O562 C547 1.259 . S
O563 Ho536 2.346 . S
O563 C547 1.268 . S
O564 Ho537 2.378 . S
O564 C548 1.215 . S
O565 Ho537 2.524 . S
O565 C548 1.289 . S
O566 Ho537 2.381 . S
O566 C555 1.275 . S
O567 Ho536 2.305 . S
O567 Ho537 2.669 . S
O567 C555 1.256 . S
H568 C541 0.930 . S
H569 C542 0.931 . S
H570 C544 0.934 . S
H571 C545 0.930 . S
H572 C550 0.930 . S
H573 C551 0.931 . S
H574 C553 0.934 . S
H575 C554 0.930 . S
Ho576 C579 2.811 . S
Ho576 O596 2.322 . S
Ho576 O598 2.378 . S
Ho576 O599 2.524 . S
Ho576 O600 2.381 1_545 S
Ho576 O601 2.669 1_554 S
Ho576 O603 2.346 . S
Ho576 O607 2.305 . S
Ho577 C588 2.811 . S
Ho577 O597 2.346 . S
Ho577 O601 2.305 . S
Ho577 O602 2.322 . S
Ho577 O604 2.378 . S
Ho577 O605 2.524 . S
Ho577 O606 2.381 1_556 S
Ho577 O607 2.669 1_556 S
C578 O596 1.259 . S
C578 O597 1.268 1_554 S
C579 Ho576 2.811 . S
C579 C580 1.488 . S
C579 O598 1.215 . S
C579 O599 1.289 . S
C580 C579 1.488 . S
C580 C581 1.348 . S
C580 C585 1.413 1_545 S
C581 C580 1.348 . S
C581 C582 1.442 . S
C581 H608 0.930 . S
C582 C581 1.442 . S
C582 C583 1.381 1_545 S
C582 H609 0.931 . S
C583 C582 1.381 1_565 S
C583 C584 1.321 . S
C584 C583 1.321 . S
C584 C585 1.403 . S
C584 H610 0.934 . S
C585 C580 1.413 1_565 S
C585 C584 1.403 . S
C585 H611 0.930 . S
C586 O600 1.243 1_556 S
C586 O601 1.267 1_565 S
C587 O602 1.259 1_554 S
C587 O603 1.268 . S
C588 Ho577 2.811 . S
C588 C589 1.488 . S
C588 O604 1.215 . S
C588 O605 1.289 . S
C589 C588 1.488 . S
C589 C590 1.348 . S
C589 C594 1.413 . S
C590 C589 1.348 . S
C590 C591 1.442 . S
C590 H612 0.930 . S
C591 C590 1.442 . S
C591 C592 1.381 . S
C591 H613 0.931 . S
C592 C591 1.381 . S
C592 C593 1.321 . S
C593 C592 1.321 . S
C593 C594 1.403 . S
C593 H614 0.934 . S
C594 C589 1.413 . S
C594 C593 1.403 . S
C594 H615 0.930 . S
C595 O606 1.275 . S
C595 O607 1.256 . S
O596 Ho576 2.322 . S
O596 C578 1.259 . S
O597 Ho577 2.346 . S
O597 C578 1.268 1_556 S
O598 Ho576 2.378 . S
O598 C579 1.215 . S
O599 Ho576 2.524 . S
O599 C579 1.289 . S
O600 Ho576 2.381 1_565 S
O600 C586 1.243 1_554 S
O601 Ho576 2.669 1_556 S
O601 Ho577 2.305 . S
O601 C586 1.267 1_545 S
O602 Ho577 2.322 . S
O602 C587 1.259 1_556 S
O603 Ho576 2.346 . S
O603 C587 1.268 . S
O604 Ho577 2.378 . S
O604 C588 1.215 . S
O605 Ho577 2.524 . S
O605 C588 1.289 . S
O606 Ho577 2.381 1_554 S
O606 C595 1.275 . S
O607 Ho576 2.305 . S
O607 Ho577 2.669 1_554 S
O607 C595 1.256 . S
H608 C581 0.930 . S
H609 C582 0.931 . S
H610 C584 0.934 . S
H611 C585 0.930 . S
H612 C590 0.930 . S
H613 C591 0.931 . S
H614 C593 0.934 . S
H615 C594 0.930 . S
Ho616 C619 2.811 . S
Ho616 O636 2.322 . S
Ho616 O638 2.378 . S
Ho616 O639 2.524 . S
Ho616 O640 2.381 . S
Ho616 O641 2.669 . S
Ho616 O643 2.346 . S
Ho616 O647 2.305 . S
Ho617 C628 2.811 . S
Ho617 O637 2.346 . S
Ho617 O641 2.305 . S
Ho617 O642 2.322 . S
Ho617 O644 2.378 . S
Ho617 O645 2.524 . S
Ho617 O646 2.381 . S
Ho617 O647 2.669 . S
C618 O636 1.259 . S
C618 O637 1.268 . S
C619 Ho616 2.811 . S
C619 C620 1.488 . S
C619 O638 1.215 . S
C619 O639 1.289 . S
C620 C619 1.488 . S
C620 C621 1.348 . S
C620 C625 1.413 . S
C621 C620 1.348 . S
C621 C622 1.442 . S
C621 H648 0.930 . S
C622 C621 1.442 . S
C622 C623 1.381 . S
C622 H649 0.931 . S
C623 C622 1.381 . S
C623 C624 1.321 . S
C624 C623 1.321 . S
C624 C625 1.403 . S
C624 H650 0.934 . S
C625 C620 1.413 . S
C625 C624 1.403 . S
C625 H651 0.930 . S
C626 O640 1.275 . S
C626 O641 1.256 . S
C627 O642 1.259 . S
C627 O643 1.268 . S
C628 Ho617 2.811 . S
C628 C629 1.488 . S
C628 O644 1.215 . S
C628 O645 1.289 . S
C629 C628 1.488 . S
C629 C630 1.348 . S
C629 C634 1.413 . S
C630 C629 1.348 . S
C630 C631 1.442 . S
C630 H652 0.930 . S
C631 C630 1.442 . S
C631 C632 1.381 . S
C631 H653 0.931 . S
C632 C631 1.381 . S
C632 C633 1.321 . S
C633 C632 1.321 . S
C633 C634 1.403 . S
C633 H654 0.934 . S
C634 C629 1.413 . S
C634 C633 1.403 . S
C634 H655 0.930 . S
C635 O646 1.275 . S
C635 O647 1.256 . S
O636 Ho616 2.322 . S
O636 C618 1.259 . S
O637 Ho617 2.346 . S
O637 C618 1.268 . S
O638 Ho616 2.378 . S
O638 C619 1.215 . S
O639 Ho616 2.524 . S
O639 C619 1.289 . S
O640 Ho616 2.381 . S
O640 C626 1.275 . S
O641 Ho616 2.669 . S
O641 Ho617 2.305 . S
O641 C626 1.256 . S
O642 Ho617 2.322 . S
O642 C627 1.259 . S
O643 Ho616 2.346 . S
O643 C627 1.268 . S
O644 Ho617 2.378 . S
O644 C628 1.215 . S
O645 Ho617 2.524 . S
O645 C628 1.289 . S
O646 Ho617 2.381 . S
O646 C635 1.275 . S
O647 Ho616 2.305 . S
O647 Ho617 2.669 . S
O647 C635 1.256 . S
H648 C621 0.930 . S
H649 C622 0.931 . S
H650 C624 0.934 . S
H651 C625 0.930 . S
H652 C630 0.930 . S
H653 C631 0.931 . S
H654 C633 0.934 . S
H655 C634 0.930 . S
Ho656 C659 2.831 . S
Ho656 O676 2.322 1_554 S
Ho656 O678 2.378 . S
Ho656 O679 2.524 1_554 S
Ho656 O680 2.381 . S
Ho656 O681 2.669 . S
Ho656 O683 2.346 . S
Ho656 O687 2.305 . S
Ho657 C668 2.815 . S
Ho657 O677 2.340 1_554 S
Ho657 O681 2.307 . S
Ho657 O682 2.327 . S
Ho657 O684 2.380 . S
Ho657 O685 2.528 . S
Ho657 O686 2.379 1_554 S
Ho657 O687 2.669 . S
C658 O676 1.259 . S
C658 O677 1.268 . S
C659 Ho656 2.831 . S
C659 C660 1.468 1_554 S
C659 O678 1.239 . S
C659 O679 1.284 1_554 S
C660 C659 1.468 1_556 S
C660 C661 1.348 . S
C660 C665 1.413 . S
C661 C660 1.348 . S
C661 C662 1.442 . S
C661 H688 0.930 . S
C662 C661 1.442 . S
C662 C663 1.381 . S
C662 H689 0.931 . S
C663 C662 1.381 . S
C663 C664 1.321 . S
C664 C663 1.321 . S
C664 C665 1.403 . S
C664 H690 0.934 . S
C665 C660 1.413 . S
C665 C664 1.403 . S
C665 H691 0.930 . S
C666 O680 1.275 . S
C666 O681 1.256 . S
C667 O682 1.259 . S
C667 O683 1.268 . S
C668 Ho657 2.815 . S
C668 C669 1.488 . S
C668 O684 1.215 . S
C668 O685 1.289 . S
C669 C668 1.488 . S
C669 C670 1.348 . S
C669 C674 1.413 . S
C670 C669 1.348 . S
C670 C671 1.442 . S
C670 H692 0.930 . S
C671 C670 1.442 . S
C671 C672 1.381 . S
C671 H693 0.931 . S
C672 C671 1.381 . S
C672 C673 1.321 . S
C673 C672 1.321 . S
C673 C674 1.403 . S
C673 H694 0.934 . S
C674 C669 1.413 . S
C674 C673 1.403 . S
C674 H695 0.930 . S
C675 O686 1.275 1_554 S
C675 O687 1.256 . S
O676 Ho656 2.322 1_556 S
O676 C658 1.259 . S
O677 Ho657 2.340 1_556 S
O677 C658 1.268 . S
O678 Ho656 2.378 . S
O678 C659 1.239 . S
O679 Ho656 2.524 1_556 S
O679 C659 1.284 1_556 S
O680 Ho656 2.381 . S
O680 C666 1.275 . S
O681 Ho656 2.669 . S
O681 Ho657 2.307 . S
O681 C666 1.256 . S
O682 Ho657 2.327 . S
O682 C667 1.259 . S
O683 Ho656 2.346 . S
O683 C667 1.268 . S
O684 Ho657 2.380 . S
O684 C668 1.215 . S
O685 Ho657 2.528 . S
O685 C668 1.289 . S
O686 Ho657 2.379 1_556 S
O686 C675 1.275 1_556 S
O687 Ho656 2.305 . S
O687 Ho657 2.669 . S
O687 C675 1.256 . S
H688 C661 0.930 . S
H689 C662 0.931 . S
H690 C664 0.934 . S
H691 C665 0.930 . S
H692 C670 0.930 . S
H693 C671 0.931 . S
H694 C673 0.934 . S
H695 C674 0.930 . S
Ho696 C699 2.811 . S
Ho696 O716 2.322 . S
Ho696 O718 2.378 . S
Ho696 O719 2.524 . S
Ho696 O720 2.381 . S
Ho696 O721 2.669 . S
Ho696 O723 2.346 . S
Ho696 O727 2.305 . S
Ho697 C708 2.811 . S
Ho697 O717 2.346 . S
Ho697 O721 2.305 . S
Ho697 O722 2.322 . S
Ho697 O724 2.378 . S
Ho697 O725 2.524 . S
Ho697 O726 2.381 . S
Ho697 O727 2.669 . S
C698 O716 1.259 . S
C698 O717 1.268 . S
C699 Ho696 2.811 . S
C699 C700 1.488 . S
C699 O718 1.215 . S
C699 O719 1.289 . S
C700 C699 1.488 . S
C700 C701 1.348 . S
C700 C705 1.413 . S
C701 C700 1.348 . S
C701 C702 1.442 . S
C701 H728 0.930 . S
C702 C701 1.442 . S
C702 C703 1.381 . S
C702 H729 0.931 . S
C703 C702 1.381 . S
C703 C704 1.321 . S
C704 C703 1.321 . S
C704 C705 1.403 . S
C704 H730 0.934 . S
C705 C700 1.413 . S
C705 C704 1.403 . S
C705 H731 0.930 . S
C706 O720 1.275 . S
C706 O721 1.256 . S
C707 O722 1.259 . S
C707 O723 1.268 . S
C708 Ho697 2.811 . S
C708 C709 1.488 . S
C708 O724 1.215 . S
C708 O725 1.289 . S
C709 C708 1.488 . S
C709 C710 1.348 . S
C709 C714 1.413 . S
C710 C709 1.348 . S
C710 C711 1.442 . S
C710 H732 0.930 . S
C711 C710 1.442 . S
C711 C712 1.381 . S
C711 H733 0.931 . S
C712 C711 1.381 . S
C712 C713 1.321 . S
C713 C712 1.321 . S
C713 C714 1.403 . S
C713 H734 0.934 . S
C714 C709 1.413 . S
C714 C713 1.403 . S
C714 H735 0.930 . S
C715 O726 1.275 . S
C715 O727 1.256 . S
O716 Ho696 2.322 . S
O716 C698 1.259 . S
O717 Ho697 2.346 . S
O717 C698 1.268 . S
O718 Ho696 2.378 . S
O718 C699 1.215 . S
O719 Ho696 2.524 . S
O719 C699 1.289 . S
O720 Ho696 2.381 . S
O720 C706 1.275 . S
O721 Ho696 2.669 . S
O721 Ho697 2.305 . S
O721 C706 1.256 . S
O722 Ho697 2.322 . S
O722 C707 1.259 . S
O723 Ho696 2.346 . S
O723 C707 1.268 . S
O724 Ho697 2.378 . S
O724 C708 1.215 . S
O725 Ho697 2.524 . S
O725 C708 1.289 . S
O726 Ho697 2.381 . S
O726 C715 1.275 . S
O727 Ho696 2.305 . S
O727 Ho697 2.669 . S
O727 C715 1.256 . S
H728 C701 0.930 . S
H729 C702 0.931 . S
H730 C704 0.934 . S
H731 C705 0.930 . S
H732 C710 0.930 . S
H733 C711 0.931 . S
H734 C713 0.934 . S
H735 C714 0.930 . S
Ho736 C739 2.811 . S
Ho736 O756 2.322 . S
Ho736 O758 2.378 . S
Ho736 O759 2.524 . S
Ho736 O760 2.381 . S
Ho736 O761 2.669 . S
Ho736 O763 2.346 . S
Ho736 O767 2.305 . S
Ho737 C748 2.811 . S
Ho737 O757 2.346 . S
Ho737 O761 2.305 . S
Ho737 O762 2.322 . S
Ho737 O764 2.378 . S
Ho737 O765 2.524 . S
Ho737 O766 2.381 . S
Ho737 O767 2.669 . S
C738 O756 1.259 . S
C738 O757 1.268 . S
C739 Ho736 2.811 . S
C739 C740 1.488 . S
C739 O758 1.215 . S
C739 O759 1.289 . S
C740 C739 1.488 . S
C740 C741 1.372 . S
C740 C745 1.413 . S
C741 C740 1.372 . S
C741 C742 1.427 1_455 S
C741 H768 0.922 1_455 S
C742 C741 1.427 1_655 S
C742 C743 1.381 . S
C742 H769 0.931 . S
C743 C742 1.381 . S
C743 C744 1.321 1_655 S
C744 C743 1.321 1_455 S
C744 C745 1.403 . S
C744 H770 0.934 . S
C745 C740 1.413 . S
C745 C744 1.403 . S
C745 H771 0.930 . S
C746 O760 1.275 . S
C746 O761 1.256 . S
C747 O762 1.259 . S
C747 O763 1.268 . S
C748 Ho737 2.811 . S
C748 C749 1.488 . S
C748 O764 1.215 . S
C748 O765 1.289 . S
C749 C748 1.488 . S
C749 C750 1.348 . S
C749 C754 1.413 . S
C750 C749 1.348 . S
C750 C751 1.442 . S
C750 H772 0.930 . S
C751 C750 1.442 . S
C751 C752 1.381 . S
C751 H773 0.931 . S
C752 C751 1.381 . S
C752 C753 1.321 . S
C753 C752 1.321 . S
C753 C754 1.403 . S
C753 H774 0.934 . S
C754 C749 1.413 . S
C754 C753 1.403 . S
C754 H775 0.930 . S
C755 O766 1.275 . S
C755 O767 1.256 . S
O756 Ho736 2.322 . S
O756 C738 1.259 . S
O757 Ho737 2.346 . S
O757 C738 1.268 . S
O758 Ho736 2.378 . S
O758 C739 1.215 . S
O759 Ho736 2.524 . S
O759 C739 1.289 . S
O760 Ho736 2.381 . S
O760 C746 1.275 . S
O761 Ho736 2.669 . S
O761 Ho737 2.305 . S
O761 C746 1.256 . S
O762 Ho737 2.322 . S
O762 C747 1.259 . S
O763 Ho736 2.346 . S
O763 C747 1.268 . S
O764 Ho737 2.378 . S
O764 C748 1.215 . S
O765 Ho737 2.524 . S
O765 C748 1.289 . S
O766 Ho737 2.381 . S
O766 C755 1.275 . S
O767 Ho736 2.305 . S
O767 Ho737 2.669 . S
O767 C755 1.256 . S
H768 C741 0.922 1_655 S
H769 C742 0.931 . S
H770 C744 0.934 . S
H771 C745 0.930 . S
H772 C750 0.930 . S
H773 C751 0.931 . S
H774 C753 0.934 . S
H775 C754 0.930 . S
Ho776 C779 2.811 . S
Ho776 O796 2.322 . S
Ho776 O798 2.378 . S
Ho776 O799 2.524 . S
Ho776 O800 2.381 . S
Ho776 O801 2.669 . S
Ho776 O803 2.346 . S
Ho776 O807 2.305 . S
Ho777 C788 2.811 . S
Ho777 O797 2.346 . S
Ho777 O801 2.305 . S
Ho777 O802 2.322 . S
Ho777 O804 2.378 . S
Ho777 O805 2.524 . S
Ho777 O806 2.381 . S
Ho777 O807 2.669 . S
C778 O796 1.259 . S
C778 O797 1.268 . S
C779 Ho776 2.811 . S
C779 C780 1.488 . S
C779 O798 1.215 . S
C779 O799 1.289 . S
C780 C779 1.488 . S
C780 C781 1.348 . S
C780 C785 1.413 . S
C781 C780 1.348 . S
C781 C782 1.442 . S
C781 H808 0.930 . S
C782 C781 1.442 . S
C782 C783 1.381 . S
C782 H809 0.931 . S
C783 C782 1.381 . S
C783 C784 1.321 . S
C784 C783 1.321 . S
C784 C785 1.403 . S
C784 H810 0.934 . S
C785 C780 1.413 . S
C785 C784 1.403 . S
C785 H811 0.930 . S
C786 O800 1.275 . S
C786 O801 1.256 . S
C787 O802 1.259 . S
C787 O803 1.268 . S
C788 Ho777 2.811 . S
C788 C789 1.488 . S
C788 O804 1.215 . S
C788 O805 1.289 . S
C789 C788 1.488 . S
C789 C790 1.348 . S
C789 C794 1.413 . S
C790 C789 1.348 . S
C790 C791 1.442 . S
C790 H812 0.930 . S
C791 C790 1.442 . S
C791 C792 1.381 . S
C791 H813 0.931 . S
C792 C791 1.381 . S
C792 C793 1.321 . S
C793 C792 1.321 . S
C793 C794 1.403 . S
C793 H814 0.934 . S
C794 C789 1.413 . S
C794 C793 1.403 . S
C794 H815 0.930 . S
C795 O806 1.275 . S
C795 O807 1.256 . S
O796 Ho776 2.322 . S
O796 C778 1.259 . S
O797 Ho777 2.346 . S
O797 C778 1.268 . S
O798 Ho776 2.378 . S
O798 C779 1.215 . S
O799 Ho776 2.524 . S
O799 C779 1.289 . S
O800 Ho776 2.381 . S
O800 C786 1.275 . S
O801 Ho776 2.669 . S
O801 Ho777 2.305 . S
O801 C786 1.256 . S
O802 Ho777 2.322 . S
O802 C787 1.259 . S
O803 Ho776 2.346 . S
O803 C787 1.268 . S
O804 Ho777 2.378 . S
O804 C788 1.215 . S
O805 Ho777 2.524 . S
O805 C788 1.289 . S
O806 Ho777 2.381 . S
O806 C795 1.275 . S
O807 Ho776 2.305 . S
O807 Ho777 2.669 . S
O807 C795 1.256 . S
H808 C781 0.930 . S
H809 C782 0.931 . S
H810 C784 0.934 . S
H811 C785 0.930 . S
H812 C790 0.930 . S
H813 C791 0.931 . S
H814 C793 0.934 . S
H815 C794 0.930 . S
Ho816 C819 2.811 . S
Ho816 O836 2.322 . S
Ho816 O838 2.378 . S
Ho816 O839 2.524 . S
Ho816 O840 2.381 . S
Ho816 O841 2.669 . S
Ho816 O843 2.346 . S
Ho816 O847 2.305 . S
Ho817 C828 2.811 . S
Ho817 O837 2.346 . S
Ho817 O841 2.305 . S
Ho817 O842 2.322 . S
Ho817 O844 2.378 . S
Ho817 O845 2.524 . S
Ho817 O846 2.381 . S
Ho817 O847 2.669 . S
C818 O836 1.259 . S
C818 O837 1.268 . S
C819 Ho816 2.811 . S
C819 C820 1.488 . S
C819 O838 1.215 . S
C819 O839 1.289 . S
C820 C819 1.488 . S
C820 C821 1.348 . S
C820 C825 1.413 . S
C821 C820 1.348 . S
C821 C822 1.442 . S
C821 H848 0.930 . S
C822 C821 1.442 . S
C822 C823 1.381 . S
C822 H849 0.931 . S
C823 C822 1.381 . S
C823 C824 1.321 . S
C824 C823 1.321 . S
C824 C825 1.403 . S
C824 H850 0.934 . S
C825 C820 1.413 . S
C825 C824 1.403 . S
C825 H851 0.930 . S
C826 O840 1.275 . S
C826 O841 1.256 . S
C827 O842 1.259 . S
C827 O843 1.268 . S
C828 Ho817 2.811 . S
C828 C829 1.488 . S
C828 O844 1.215 . S
C828 O845 1.289 . S
C829 C828 1.488 . S
C829 C830 1.348 . S
C829 C834 1.413 . S
C830 C829 1.348 . S
C830 C831 1.442 . S
C830 H852 0.930 . S
C831 C830 1.442 . S
C831 C832 1.381 . S
C831 H853 0.931 . S
C832 C831 1.381 . S
C832 C833 1.321 . S
C833 C832 1.321 . S
C833 C834 1.403 . S
C833 H854 0.934 . S
C834 C829 1.413 . S
C834 C833 1.403 . S
C834 H855 0.930 . S
C835 O846 1.275 . S
C835 O847 1.256 . S
O836 Ho816 2.322 . S
O836 C818 1.259 . S
O837 Ho817 2.346 . S
O837 C818 1.268 . S
O838 Ho816 2.378 . S
O838 C819 1.215 . S
O839 Ho816 2.524 . S
O839 C819 1.289 . S
O840 Ho816 2.381 . S
O840 C826 1.275 . S
O841 Ho816 2.669 . S
O841 Ho817 2.305 . S
O841 C826 1.256 . S
O842 Ho817 2.322 . S
O842 C827 1.259 . S
O843 Ho816 2.346 . S
O843 C827 1.268 . S
O844 Ho817 2.378 . S
O844 C828 1.215 . S
O845 Ho817 2.524 . S
O845 C828 1.289 . S
O846 Ho817 2.381 . S
O846 C835 1.275 . S
O847 Ho816 2.305 . S
O847 Ho817 2.669 . S
O847 C835 1.256 . S
H848 C821 0.930 . S
H849 C822 0.931 . S
H850 C824 0.934 . S
H851 C825 0.930 . S
H852 C830 0.930 . S
H853 C831 0.931 . S
H854 C833 0.934 . S
H855 C834 0.930 . S
Ho856 C859 2.811 . S
Ho856 O876 2.322 . S
Ho856 O878 2.378 . S
Ho856 O879 2.524 . S
Ho856 O880 2.381 . S
Ho856 O881 2.669 . S
Ho856 O883 2.346 . S
Ho856 O887 2.305 . S
Ho857 C868 2.811 . S
Ho857 O877 2.346 . S
Ho857 O881 2.305 . S
Ho857 O882 2.322 . S
Ho857 O884 2.378 . S
Ho857 O885 2.524 . S
Ho857 O886 2.381 . S
Ho857 O887 2.669 . S
C858 O876 1.259 . S
C858 O877 1.268 . S
C859 Ho856 2.811 . S
C859 C860 1.488 . S
C859 O878 1.215 . S
C859 O879 1.289 . S
C860 C859 1.488 . S
C860 C861 1.348 . S
C860 C865 1.413 . S
C861 C860 1.348 . S
C861 C862 1.442 . S
C861 H888 0.930 . S
C862 C861 1.442 . S
C862 C863 1.381 . S
C862 H889 0.931 . S
C863 C862 1.381 . S
C863 C864 1.321 . S
C864 C863 1.321 . S
C864 C865 1.403 . S
C864 H890 0.934 . S
C865 C860 1.413 . S
C865 C864 1.403 . S
C865 H891 0.930 . S
C866 O880 1.275 . S
C866 O881 1.256 . S
C867 O882 1.259 . S
C867 O883 1.268 . S
C868 Ho857 2.811 . S
C868 C869 1.488 . S
C868 O884 1.215 . S
C868 O885 1.289 . S
C869 C868 1.488 . S
C869 C870 1.348 . S
C869 C874 1.413 . S
C870 C869 1.348 . S
C870 C871 1.442 . S
C870 H892 0.930 . S
C871 C870 1.442 . S
C871 C872 1.381 . S
C871 H893 0.931 . S
C872 C871 1.381 . S
C872 C873 1.321 . S
C873 C872 1.321 . S
C873 C874 1.403 . S
C873 H894 0.934 . S
C874 C869 1.413 . S
C874 C873 1.403 . S
C874 H895 0.930 . S
C875 O886 1.275 . S
C875 O887 1.256 . S
O876 Ho856 2.322 . S
O876 C858 1.259 . S
O877 Ho857 2.346 . S
O877 C858 1.268 . S
O878 Ho856 2.378 . S
O878 C859 1.215 . S
O879 Ho856 2.524 . S
O879 C859 1.289 . S
O880 Ho856 2.381 . S
O880 C866 1.275 . S
O881 Ho856 2.669 . S
O881 Ho857 2.305 . S
O881 C866 1.256 . S
O882 Ho857 2.322 . S
O882 C867 1.259 . S
O883 Ho856 2.346 . S
O883 C867 1.268 . S
O884 Ho857 2.378 . S
O884 C868 1.215 . S
O885 Ho857 2.524 . S
O885 C868 1.289 . S
O886 Ho857 2.381 . S
O886 C875 1.275 . S
O887 Ho856 2.305 . S
O887 Ho857 2.669 . S
O887 C875 1.256 . S
H888 C861 0.930 . S
H889 C862 0.931 . S
H890 C864 0.934 . S
H891 C865 0.930 . S
H892 C870 0.930 . S
H893 C871 0.931 . S
H894 C873 0.934 . S
H895 C874 0.930 . S
Ho896 C899 2.811 . S
Ho896 O916 2.322 . S
Ho896 O918 2.378 . S
Ho896 O919 2.524 . S
Ho896 O920 2.381 . S
Ho896 O921 2.669 . S
Ho896 O923 2.346 . S
Ho896 O927 2.305 . S
Ho897 C908 2.811 . S
Ho897 O917 2.346 . S
Ho897 O921 2.305 . S
Ho897 O922 2.322 . S
Ho897 O924 2.378 . S
Ho897 O925 2.524 . S
Ho897 O926 2.381 . S
Ho897 O927 2.669 . S
C898 O916 1.259 . S
C898 O917 1.268 . S
C899 Ho896 2.811 . S
C899 C900 1.488 . S
C899 O918 1.215 . S
C899 O919 1.289 . S
C900 C899 1.488 . S
C900 C901 1.348 . S
C900 C905 1.413 . S
C901 C900 1.348 . S
C901 C902 1.442 . S
C901 H928 0.930 . S
C902 C901 1.442 . S
C902 C903 1.381 . S
C902 H929 0.931 . S
C903 C902 1.381 . S
C903 C904 1.321 . S
C904 C903 1.321 . S
C904 C905 1.403 . S
C904 H930 0.934 . S
C905 C900 1.413 . S
C905 C904 1.403 . S
C905 H931 0.930 . S
C906 O920 1.275 . S
C906 O921 1.256 . S
C907 O922 1.259 . S
C907 O923 1.268 . S
C908 Ho897 2.811 . S
C908 C909 1.488 . S
C908 O924 1.215 . S
C908 O925 1.289 . S
C909 C908 1.488 . S
C909 C910 1.348 . S
C909 C914 1.413 . S
C910 C909 1.348 . S
C910 C911 1.442 . S
C910 H932 0.930 . S
C911 C910 1.442 . S
C911 C912 1.381 . S
C911 H933 0.931 . S
C912 C911 1.381 . S
C912 C913 1.321 . S
C913 C912 1.321 . S
C913 C914 1.403 . S
C913 H934 0.934 . S
C914 C909 1.413 . S
C914 C913 1.403 . S
C914 H935 0.930 . S
C915 O926 1.275 . S
C915 O927 1.256 . S
O916 Ho896 2.322 . S
O916 C898 1.259 . S
O917 Ho897 2.346 . S
O917 C898 1.268 . S
O918 Ho896 2.378 . S
O918 C899 1.215 . S
O919 Ho896 2.524 . S
O919 C899 1.289 . S
O920 Ho896 2.381 . S
O920 C906 1.275 . S
O921 Ho896 2.669 . S
O921 Ho897 2.305 . S
O921 C906 1.256 . S
O922 Ho897 2.322 . S
O922 C907 1.259 . S
O923 Ho896 2.346 . S
O923 C907 1.268 . S
O924 Ho897 2.378 . S
O924 C908 1.215 . S
O925 Ho897 2.524 . S
O925 C908 1.289 . S
O926 Ho897 2.381 . S
O926 C915 1.275 . S
O927 Ho896 2.305 . S
O927 Ho897 2.669 . S
O927 C915 1.256 . S
H928 C901 0.930 . S
H929 C902 0.931 . S
H930 C904 0.934 . S
H931 C905 0.930 . S
H932 C910 0.930 . S
H933 C911 0.931 . S
H934 C913 0.934 . S
H935 C914 0.930 . S
Ho936 C939 2.811 1_554 S
Ho936 O956 2.322 1_554 S
Ho936 O958 2.378 1_554 S
Ho936 O959 2.524 . S
Ho936 O960 2.381 1_554 S
Ho936 O961 2.669 1_554 S
Ho936 O963 2.346 . S
Ho936 O967 2.305 . S
Ho937 C948 2.811 1_455 S
Ho937 O957 2.346 . S
Ho937 O961 2.305 1_554 S
Ho937 O962 2.322 . S
Ho937 O964 2.378 1_455 S
Ho937 O965 2.524 1_455 S
Ho937 O966 2.381 . S
Ho937 O967 2.669 . S
C938 O956 1.259 1_554 S
C938 O957 1.268 . S
C939 Ho936 2.811 1_556 S
C939 C940 1.488 . S
C939 O958 1.215 . S
C939 O959 1.289 1_556 S
C940 C939 1.488 . S
C940 C941 1.348 1_556 S
C940 C945 1.413 . S
C941 C940 1.348 1_554 S
C941 C942 1.442 . S
C941 H968 0.930 . S
C942 C941 1.442 . S
C942 C943 1.381 1_554 S
C942 H969 0.931 . S
C943 C942 1.381 1_556 S
C943 C944 1.321 . S
C944 C943 1.321 . S
C944 C945 1.403 . S
C944 H970 0.934 . S
C945 C940 1.413 . S
C945 C944 1.403 . S
C945 H971 0.930 . S
C946 O960 1.275 . S
C946 O961 1.256 . S
C947 O962 1.259 . S
C947 O963 1.268 . S
C948 Ho937 2.811 1_655 S
C948 C949 1.488 . S
C948 O964 1.215 . S
C948 O965 1.289 . S
C949 C948 1.488 . S
C949 C950 1.348 . S
C949 C954 1.413 . S
C950 C949 1.348 . S
C950 C951 1.442 . S
C950 H972 0.930 . S
C951 C950 1.442 . S
C951 C952 1.381 . S
C951 H973 0.931 . S
C952 C951 1.381 . S
C952 C953 1.321 . S
C953 C952 1.321 . S
C953 C954 1.403 . S
C953 H974 0.934 . S
C954 C949 1.413 . S
C954 C953 1.403 . S
C954 H975 0.930 . S
C955 O966 1.275 . S
C955 O967 1.256 . S
O956 Ho936 2.322 1_556 S
O956 C938 1.259 1_556 S
O957 Ho937 2.346 . S
O957 C938 1.268 . S
O958 Ho936 2.378 1_556 S
O958 C939 1.215 . S
O959 Ho936 2.524 . S
O959 C939 1.289 1_554 S
O960 Ho936 2.381 1_556 S
O960 C946 1.275 . S
O961 Ho936 2.669 1_556 S
O961 Ho937 2.305 1_556 S
O961 C946 1.256 . S
O962 Ho937 2.322 . S
O962 C947 1.259 . S
O963 Ho936 2.346 . S
O963 C947 1.268 . S
O964 Ho937 2.378 1_655 S
O964 C948 1.215 . S
O965 Ho937 2.524 1_655 S
O965 C948 1.289 . S
O966 Ho937 2.381 . S
O966 C955 1.275 . S
O967 Ho936 2.305 . S
O967 Ho937 2.669 . S
O967 C955 1.256 . S
H968 C941 0.930 . S
H969 C942 0.931 . S
H970 C944 0.934 . S
H971 C945 0.930 . S
H972 C950 0.930 . S
H973 C951 0.931 . S
H974 C953 0.934 . S
H975 C954 0.930 . S
C976 C977 1.391 . S
C976 C978 1.394 . S
C976 H992 0.931 . S
C977 C976 1.391 . S
C977 C981 1.406 . S
C978 C976 1.394 . S
C978 C979 1.369 . S
C978 C982 1.531 . S
C979 C978 1.369 . S
C979 C980 1.410 . S
C979 C987 1.503 . S
C980 C979 1.410 . S
C980 C981 1.408 . S
C980 C983 1.511 1_455 S
C981 C977 1.406 . S
C981 C980 1.408 . S
C981 H993 0.884 1_455 S
C982 C978 1.531 . S
C982 H994 0.960 . S
C982 H995 0.962 . S
C982 H996 0.960 . S
C983 C980 1.511 1_655 S
C983 H997 0.961 . S
C983 H998 0.961 . S
C983 H999 0.961 . S
C984 C985 1.370 . S
C984 C986 1.363 . S
C984 H1000 0.931 . S
C985 C984 1.370 . S
C985 C989 1.408 1_556 S
C986 C984 1.363 . S
C986 C987 1.370 . S
C986 C990 1.524 . S
C987 C979 1.503 . S
C987 C986 1.370 . S
C987 C988 1.403 1_556 S
C988 C987 1.403 1_554 S
C988 C989 1.404 . S
C988 C991 1.539 . S
C989 C985 1.408 1_554 S
C989 C988 1.404 . S
C989 H1001 0.930 . S
C990 C986 1.524 . S
C990 H1002 0.956 . S
C990 H1003 0.961 . S
C990 H1004 0.961 . S
C991 C988 1.539 . S
C991 H1005 0.958 . S
C991 H1006 0.961 . S
C991 H1007 0.960 . S
H992 C976 0.931 . S
H993 C981 0.884 1_655 S
H994 C982 0.960 . S
H995 C982 0.962 . S
H996 C982 0.960 . S
H997 C983 0.961 . S
H998 C983 0.961 . S
H999 C983 0.961 . S
H1000 C984 0.931 . S
H1001 C989 0.930 . S
H1002 C990 0.956 . S
H1003 C990 0.961 . S
H1004 C990 0.961 . S
H1005 C991 0.958 . S
H1006 C991 0.961 . S
H1007 C991 0.960 . S
C1008 C1009 1.391 . S
C1008 C1010 1.394 . S
C1008 H1024 0.931 . S
C1009 C1008 1.391 . S
C1009 C1013 1.376 . S
C1010 C1008 1.394 . S
C1010 C1011 1.369 . S
C1010 C1014 1.531 . S
C1011 C1010 1.369 . S
C1011 C1012 1.410 . S
C1011 C1019 1.503 . S
C1012 C1011 1.410 . S
C1012 C1013 1.392 . S
C1012 C1015 1.511 . S
C1013 C1009 1.376 . S
C1013 C1012 1.392 . S
C1013 H1025 0.929 . S
C1014 C1010 1.531 . S
C1014 H1026 0.960 . S
C1014 H1027 0.962 . S
C1014 H1028 0.960 . S
C1015 C1012 1.511 . S
C1015 H1029 0.961 . S
C1015 H1030 0.961 . S
C1015 H1031 0.961 . S
C1016 C1017 1.370 . S
C1016 C1018 1.363 . S
C1016 H1032 0.931 . S
C1017 C1016 1.370 . S
C1017 C1021 1.408 . S
C1018 C1016 1.363 . S
C1018 C1019 1.370 . S
C1018 C1022 1.524 . S
C1019 C1011 1.503 . S
C1019 C1018 1.370 . S
C1019 C1020 1.403 . S
C1020 C1019 1.403 . S
C1020 C1021 1.404 . S
C1020 C1023 1.539 . S
C1021 C1017 1.408 . S
C1021 C1020 1.404 . S
C1021 H1033 0.930 . S
C1022 C1018 1.524 . S
C1022 H1034 0.956 . S
C1022 H1035 0.961 . S
C1022 H1036 0.961 . S
C1023 C1020 1.539 . S
C1023 H1037 0.958 . S
C1023 H1038 0.961 . S
C1023 H1039 0.960 . S
H1024 C1008 0.931 . S
H1025 C1013 0.929 . S
H1026 C1014 0.960 . S
H1027 C1014 0.962 . S
H1028 C1014 0.960 . S
H1029 C1015 0.961 . S
H1030 C1015 0.961 . S
H1031 C1015 0.961 . S
H1032 C1016 0.931 . S
H1033 C1021 0.930 . S
H1034 C1022 0.956 . S
H1035 C1022 0.961 . S
H1036 C1022 0.961 . S
H1037 C1023 0.958 . S
H1038 C1023 0.961 . S
H1039 C1023 0.960 . S
C1040 C1041 1.391 . S
C1040 C1042 1.394 . S
C1040 H1056 0.931 . S
C1041 C1040 1.391 . S
C1041 C1045 1.376 . S
C1042 C1040 1.394 . S
C1042 C1043 1.369 . S
C1042 C1046 1.531 . S
C1043 C1042 1.369 . S
C1043 C1044 1.410 . S
C1043 C1051 1.503 . S
C1044 C1043 1.410 . S
C1044 C1045 1.392 . S
C1044 C1047 1.511 . S
C1045 C1041 1.376 . S
C1045 C1044 1.392 . S
C1045 H1057 0.929 . S
C1046 C1042 1.531 . S
C1046 H1058 0.960 . S
C1046 H1059 0.962 . S
C1046 H1060 0.960 . S
C1047 C1044 1.511 . S
C1047 H1061 0.961 . S
C1047 H1062 0.961 . S
C1047 H1063 0.961 . S
C1048 C1049 1.370 . S
C1048 C1050 1.363 . S
C1048 H1064 0.931 . S
C1049 C1048 1.370 . S
C1049 C1053 1.408 . S
C1050 C1048 1.363 . S
C1050 C1051 1.370 . S
C1050 C1054 1.524 . S
C1051 C1043 1.503 . S
C1051 C1050 1.370 . S
C1051 C1052 1.403 . S
C1052 C1051 1.403 . S
C1052 C1053 1.404 . S
C1052 C1055 1.539 . S
C1053 C1049 1.408 . S
C1053 C1052 1.404 . S
C1053 H1065 0.930 . S
C1054 C1050 1.524 . S
C1054 H1066 0.956 . S
C1054 H1067 0.961 . S
C1054 H1068 0.961 . S
C1055 C1052 1.539 . S
C1055 H1069 0.958 . S
C1055 H1070 0.961 . S
C1055 H1071 0.960 . S
H1056 C1040 0.931 . S
H1057 C1045 0.929 . S
H1058 C1046 0.960 . S
H1059 C1046 0.962 . S
H1060 C1046 0.960 . S
H1061 C1047 0.961 . S
H1062 C1047 0.961 . S
H1063 C1047 0.961 . S
H1064 C1048 0.931 . S
H1065 C1053 0.930 . S
H1066 C1054 0.956 . S
H1067 C1054 0.961 . S
H1068 C1054 0.961 . S
H1069 C1055 0.958 . S
H1070 C1055 0.961 . S
H1071 C1055 0.960 . S
C1072 C1073 1.391 . S
C1072 C1074 1.394 . S
C1072 H1088 0.931 . S
C1073 C1072 1.391 . S
C1073 C1077 1.376 . S
C1074 C1072 1.394 . S
C1074 C1075 1.369 . S
C1074 C1078 1.531 . S
C1075 C1074 1.369 . S
C1075 C1076 1.410 . S
C1075 C1083 1.503 . S
C1076 C1075 1.410 . S
C1076 C1077 1.392 . S
C1076 C1079 1.511 . S
C1077 C1073 1.376 . S
C1077 C1076 1.392 . S
C1077 H1089 0.929 . S
C1078 C1074 1.531 . S
C1078 H1090 0.960 . S
C1078 H1091 0.962 . S
C1078 H1092 0.960 . S
C1079 C1076 1.511 . S
C1079 H1093 0.961 . S
C1079 H1094 0.961 . S
C1079 H1095 0.961 . S
C1080 C1081 1.370 . S
C1080 C1082 1.363 . S
C1080 H1096 0.931 . S
C1081 C1080 1.370 . S
C1081 C1085 1.408 . S
C1082 C1080 1.363 . S
C1082 C1083 1.370 . S
C1082 C1086 1.524 . S
C1083 C1075 1.503 . S
C1083 C1082 1.370 . S
C1083 C1084 1.403 . S
C1084 C1083 1.403 . S
C1084 C1085 1.404 . S
C1084 C1087 1.539 . S
C1085 C1081 1.408 . S
C1085 C1084 1.404 . S
C1085 H1097 0.930 . S
C1086 C1082 1.524 . S
C1086 H1098 0.956 . S
C1086 H1099 0.961 . S
C1086 H1100 0.961 . S
C1087 C1084 1.539 . S
C1087 H1101 0.958 . S
C1087 H1102 0.961 . S
C1087 H1103 0.960 . S
H1088 C1072 0.931 . S
H1089 C1077 0.929 . S
H1090 C1078 0.960 . S
H1091 C1078 0.962 . S
H1092 C1078 0.960 . S
H1093 C1079 0.961 . S
H1094 C1079 0.961 . S
H1095 C1079 0.961 . S
H1096 C1080 0.931 . S
H1097 C1085 0.930 . S
H1098 C1086 0.956 . S
H1099 C1086 0.961 . S
H1100 C1086 0.961 . S
H1101 C1087 0.958 . S
H1102 C1087 0.961 . S
H1103 C1087 0.960 . S
C1104 C1105 1.391 . S
C1104 C1106 1.394 . S
C1104 H1120 0.931 1_455 S
C1105 C1104 1.391 . S
C1105 C1109 1.376 . S
C1106 C1104 1.394 . S
C1106 C1107 1.369 . S
C1106 C1110 1.531 . S
C1107 C1106 1.369 . S
C1107 C1108 1.410 . S
C1107 C1115 1.503 . S
C1108 C1107 1.410 . S
C1108 C1109 1.392 . S
C1108 C1111 1.511 . S
C1109 C1105 1.376 . S
C1109 C1108 1.392 . S
C1109 H1121 0.929 . S
C1110 C1106 1.531 . S
C1110 H1122 0.960 . S
C1110 H1123 0.963 1_455 S
C1110 H1124 0.960 . S
C1111 C1108 1.511 . S
C1111 H1125 0.961 . S
C1111 H1126 0.961 . S
C1111 H1127 0.961 . S
C1112 C1113 1.370 . S
C1112 C1114 1.363 . S
C1112 H1128 0.931 . S
C1113 C1112 1.370 . S
C1113 C1117 1.408 . S
C1114 C1112 1.363 . S
C1114 C1115 1.370 . S
C1114 C1118 1.524 . S
C1115 C1107 1.503 . S
C1115 C1114 1.370 . S
C1115 C1116 1.403 . S
C1116 C1115 1.403 . S
C1116 C1117 1.404 . S
C1116 C1119 1.539 . S
C1117 C1113 1.408 . S
C1117 C1116 1.404 . S
C1117 H1129 0.930 . S
C1118 C1114 1.524 . S
C1118 H1130 0.956 . S
C1118 H1131 0.961 . S
C1118 H1132 0.961 . S
C1119 C1116 1.539 . S
C1119 H1133 0.958 . S
C1119 H1134 0.961 . S
C1119 H1135 0.960 . S
H1120 C1104 0.931 1_655 S
H1121 C1109 0.929 . S
H1122 C1110 0.960 . S
H1123 C1110 0.963 1_655 S
H1124 C1110 0.960 . S
H1125 C1111 0.961 . S
H1126 C1111 0.961 . S
H1127 C1111 0.961 . S
H1128 C1112 0.931 . S
H1129 C1117 0.930 . S
H1130 C1118 0.956 . S
H1131 C1118 0.961 . S
H1132 C1118 0.961 . S
H1133 C1119 0.958 . S
H1134 C1119 0.961 . S
H1135 C1119 0.960 . S
C1136 C1137 1.391 . S
C1136 C1138 1.394 . S
C1136 H1152 0.931 . S
C1137 C1136 1.391 . S
C1137 C1141 1.376 . S
C1138 C1136 1.394 . S
C1138 C1139 1.369 . S
C1138 C1142 1.531 . S
C1139 C1138 1.369 . S
C1139 C1140 1.410 . S
C1139 C1147 1.503 . S
C1140 C1139 1.410 . S
C1140 C1141 1.392 . S
C1140 C1143 1.511 . S
C1141 C1137 1.376 . S
C1141 C1140 1.392 . S
C1141 H1153 0.929 . S
C1142 C1138 1.531 . S
C1142 H1154 0.960 . S
C1142 H1155 0.962 . S
C1142 H1156 0.960 . S
C1143 C1140 1.511 . S
C1143 H1157 0.961 . S
C1143 H1158 0.961 . S
C1143 H1159 0.961 . S
C1144 C1145 1.370 . S
C1144 C1146 1.363 . S
C1144 H1160 0.931 . S
C1145 C1144 1.370 . S
C1145 C1149 1.408 . S
C1146 C1144 1.363 . S
C1146 C1147 1.370 . S
C1146 C1150 1.524 . S
C1147 C1139 1.503 . S
C1147 C1146 1.370 . S
C1147 C1148 1.403 . S
C1148 C1147 1.403 . S
C1148 C1149 1.404 . S
C1148 C1151 1.539 . S
C1149 C1145 1.408 . S
C1149 C1148 1.404 . S
C1149 H1161 0.930 . S
C1150 C1146 1.524 . S
C1150 H1162 0.956 . S
C1150 H1163 0.961 . S
C1150 H1164 0.961 . S
C1151 C1148 1.539 . S
C1151 H1165 0.958 . S
C1151 H1166 0.961 . S
C1151 H1167 0.960 . S
H1152 C1136 0.931 . S
H1153 C1141 0.929 . S
H1154 C1142 0.960 . S
H1155 C1142 0.962 . S
H1156 C1142 0.960 . S
H1157 C1143 0.961 . S
H1158 C1143 0.961 . S
H1159 C1143 0.961 . S
H1160 C1144 0.931 . S
H1161 C1149 0.930 . S
H1162 C1150 0.956 . S
H1163 C1150 0.961 . S
H1164 C1150 0.961 . S
H1165 C1151 0.958 . S
H1166 C1151 0.961 . S
H1167 C1151 0.960 . S
C1168 C1169 1.391 . S
C1168 C1170 1.394 . S
C1168 H1184 0.931 . S
C1169 C1168 1.391 . S
C1169 C1173 1.376 . S
C1170 C1168 1.394 . S
C1170 C1171 1.369 . S
C1170 C1174 1.531 . S
C1171 C1170 1.369 . S
C1171 C1172 1.410 . S
C1171 C1179 1.503 . S
C1172 C1171 1.410 . S
C1172 C1173 1.392 . S
C1172 C1175 1.511 . S
C1173 C1169 1.376 . S
C1173 C1172 1.392 . S
C1173 H1185 0.929 . S
C1174 C1170 1.531 . S
C1174 H1186 0.960 . S
C1174 H1187 0.962 . S
C1174 H1188 0.960 . S
C1175 C1172 1.511 . S
C1175 H1189 0.961 . S
C1175 H1190 0.961 . S
C1175 H1191 0.961 . S
C1176 C1177 1.370 . S
C1176 C1178 1.363 . S
C1176 H1192 0.931 . S
C1177 C1176 1.370 . S
C1177 C1181 1.408 . S
C1178 C1176 1.363 . S
C1178 C1179 1.370 . S
C1178 C1182 1.524 . S
C1179 C1171 1.503 . S
C1179 C1178 1.370 . S
C1179 C1180 1.403 . S
C1180 C1179 1.403 . S
C1180 C1181 1.404 . S
C1180 C1183 1.539 . S
C1181 C1177 1.408 . S
C1181 C1180 1.404 . S
C1181 H1193 0.930 . S
C1182 C1178 1.524 . S
C1182 H1194 0.956 . S
C1182 H1195 0.961 . S
C1182 H1196 0.961 . S
C1183 C1180 1.539 . S
C1183 H1197 0.958 . S
C1183 H1198 0.961 . S
C1183 H1199 0.960 . S
H1184 C1168 0.931 . S
H1185 C1173 0.929 . S
H1186 C1174 0.960 . S
H1187 C1174 0.962 . S
H1188 C1174 0.960 . S
H1189 C1175 0.961 . S
H1190 C1175 0.961 . S
H1191 C1175 0.961 . S
H1192 C1176 0.931 . S
H1193 C1181 0.930 . S
H1194 C1182 0.956 . S
H1195 C1182 0.961 . S
H1196 C1182 0.961 . S
H1197 C1183 0.958 . S
H1198 C1183 0.961 . S
H1199 C1183 0.960 . S
C1200 C1201 1.391 . S
C1200 C1202 1.394 . S
C1200 H1216 0.931 . S
C1201 C1200 1.391 . S
C1201 C1205 1.376 . S
C1202 C1200 1.394 . S
C1202 C1203 1.369 . S
C1202 C1206 1.531 . S
C1203 C1202 1.369 . S
C1203 C1204 1.410 . S
C1203 C1211 1.503 . S
C1204 C1203 1.410 . S
C1204 C1205 1.392 . S
C1204 C1207 1.511 . S
C1205 C1201 1.376 . S
C1205 C1204 1.392 . S
C1205 H1217 0.929 . S
C1206 C1202 1.531 . S
C1206 H1218 0.960 . S
C1206 H1219 0.962 . S
C1206 H1220 0.960 . S
C1207 C1204 1.511 . S
C1207 H1221 0.961 . S
C1207 H1222 0.961 . S
C1207 H1223 0.961 . S
C1208 C1209 1.370 . S
C1208 C1210 1.363 . S
C1208 H1224 0.931 . S
C1209 C1208 1.370 . S
C1209 C1213 1.408 . S
C1210 C1208 1.363 . S
C1210 C1211 1.370 . S
C1210 C1214 1.524 . S
C1211 C1203 1.503 . S
C1211 C1210 1.370 . S
C1211 C1212 1.403 . S
C1212 C1211 1.403 . S
C1212 C1213 1.404 . S
C1212 C1215 1.539 . S
C1213 C1209 1.408 . S
C1213 C1212 1.404 . S
C1213 H1225 0.930 . S
C1214 C1210 1.524 . S
C1214 H1226 0.956 . S
C1214 H1227 0.961 . S
C1214 H1228 0.961 . S
C1215 C1212 1.539 . S
C1215 H1229 0.958 . S
C1215 H1230 0.961 . S
C1215 H1231 0.960 . S
H1216 C1200 0.931 . S
H1217 C1205 0.929 . S
H1218 C1206 0.960 . S
H1219 C1206 0.962 . S
H1220 C1206 0.960 . S
H1221 C1207 0.961 . S
H1222 C1207 0.961 . S
H1223 C1207 0.961 . S
H1224 C1208 0.931 . S
H1225 C1213 0.930 . S
H1226 C1214 0.956 . S
H1227 C1214 0.961 . S
H1228 C1214 0.961 . S
H1229 C1215 0.958 . S
H1230 C1215 0.961 . S
H1231 C1215 0.960 . S
C1232 C1233 1.391 . S
C1232 C1234 1.394 . S
C1232 H1248 0.931 . S
C1233 C1232 1.391 . S
C1233 C1237 1.376 . S
C1234 C1232 1.394 . S
C1234 C1235 1.369 . S
C1234 C1238 1.531 . S
C1235 C1234 1.369 . S
C1235 C1236 1.410 1_655 S
C1235 C1243 1.503 1_655 S
C1236 C1235 1.410 1_455 S
C1236 C1237 1.392 1_455 S
C1236 C1239 1.511 . S
C1237 C1233 1.376 . S
C1237 C1236 1.392 1_655 S
C1237 H1249 0.929 . S
C1238 C1234 1.531 . S
C1238 H1250 0.960 . S
C1238 H1251 0.962 . S
C1238 H1252 0.960 . S
C1239 C1236 1.511 . S
C1239 H1253 0.961 . S
C1239 H1254 0.961 . S
C1239 H1255 0.961 . S
C1240 C1241 1.370 . S
C1240 C1242 1.363 1_455 S
C1240 H1256 0.932 . S
C1241 C1240 1.370 . S
C1241 C1245 1.408 . S
C1242 C1240 1.363 1_655 S
C1242 C1243 1.370 1_655 S
C1242 C1246 1.524 . S
C1243 C1235 1.503 1_455 S
C1243 C1242 1.370 1_455 S
C1243 C1244 1.403 . S
C1244 C1243 1.403 . S
C1244 C1245 1.404 . S
C1244 C1247 1.539 . S
C1245 C1241 1.408 . S
C1245 C1244 1.404 . S
C1245 H1257 0.930 . S
C1246 C1242 1.524 . S
C1246 H1258 0.956 . S
C1246 H1259 0.961 . S
C1246 H1260 0.961 . S
C1247 C1244 1.539 . S
C1247 H1261 0.958 . S
C1247 H1262 0.961 . S
C1247 H1263 0.960 . S
H1248 C1232 0.931 . S
H1249 C1237 0.929 . S
H1250 C1238 0.960 . S
H1251 C1238 0.962 . S
H1252 C1238 0.960 . S
H1253 C1239 0.961 . S
H1254 C1239 0.961 . S
H1255 C1239 0.961 . S
H1256 C1240 0.932 . S
H1257 C1245 0.930 . S
H1258 C1246 0.956 . S
H1259 C1246 0.961 . S
H1260 C1246 0.961 . S
H1261 C1247 0.958 . S
H1262 C1247 0.961 . S
H1263 C1247 0.960 . S
C1264 C1265 1.391 . S
C1264 C1266 1.394 . S
C1264 H1280 0.931 . S
C1265 C1264 1.391 . S
C1265 C1269 1.376 . S
C1266 C1264 1.394 . S
C1266 C1267 1.369 . S
C1266 C1270 1.531 . S
C1267 C1266 1.369 . S
C1267 C1268 1.410 . S
C1267 C1275 1.503 . S
C1268 C1267 1.410 . S
C1268 C1269 1.392 . S
C1268 C1271 1.511 . S
C1269 C1265 1.376 . S
C1269 C1268 1.392 . S
C1269 H1281 0.929 . S
C1270 C1266 1.531 . S
C1270 H1282 0.960 . S
C1270 H1283 0.962 . S
C1270 H1284 0.960 . S
C1271 C1268 1.511 . S
C1271 H1285 0.961 . S
C1271 H1286 0.961 . S
C1271 H1287 0.961 . S
C1272 C1273 1.370 . S
C1272 C1274 1.363 . S
C1272 H1288 0.931 . S
C1273 C1272 1.370 . S
C1273 C1277 1.408 . S
C1274 C1272 1.363 . S
C1274 C1275 1.370 . S
C1274 C1278 1.524 . S
C1275 C1267 1.503 . S
C1275 C1274 1.370 . S
C1275 C1276 1.403 . S
C1276 C1275 1.403 . S
C1276 C1277 1.404 . S
C1276 C1279 1.539 . S
C1277 C1273 1.408 . S
C1277 C1276 1.404 . S
C1277 H1289 0.930 . S
C1278 C1274 1.524 . S
C1278 H1290 0.956 . S
C1278 H1291 0.961 . S
C1278 H1292 0.961 . S
C1279 C1276 1.539 . S
C1279 H1293 0.958 . S
C1279 H1294 0.961 . S
C1279 H1295 0.960 . S
H1280 C1264 0.931 . S
H1281 C1269 0.929 . S
H1282 C1270 0.960 . S
H1283 C1270 0.962 . S
H1284 C1270 0.960 . S
H1285 C1271 0.961 . S
H1286 C1271 0.961 . S
H1287 C1271 0.961 . S
H1288 C1272 0.931 . S
H1289 C1277 0.930 . S
H1290 C1278 0.956 . S
H1291 C1278 0.961 . S
H1292 C1278 0.961 . S
H1293 C1279 0.958 . S
H1294 C1279 0.961 . S
H1295 C1279 0.960 . S
C1296 C1297 1.391 . S
C1296 C1298 1.394 . S
C1296 H1312 0.931 . S
C1297 C1296 1.391 . S
C1297 C1301 1.376 . S
C1298 C1296 1.394 . S
C1298 C1299 1.369 . S
C1298 C1302 1.531 . S
C1299 C1298 1.369 . S
C1299 C1300 1.410 . S
C1299 C1307 1.503 . S
C1300 C1299 1.410 . S
C1300 C1301 1.392 . S
C1300 C1303 1.511 . S
C1301 C1297 1.376 . S
C1301 C1300 1.392 . S
C1301 H1313 0.929 . S
C1302 C1298 1.531 . S
C1302 H1314 0.960 . S
C1302 H1315 0.962 1_545 S
C1302 H1316 0.960 1_545 S
C1303 C1300 1.511 . S
C1303 H1317 0.961 . S
C1303 H1318 0.961 . S
C1303 H1319 0.961 . S
C1304 C1305 1.370 . S
C1304 C1306 1.363 . S
C1304 H1320 0.931 . S
C1305 C1304 1.370 . S
C1305 C1309 1.408 . S
C1306 C1304 1.363 . S
C1306 C1307 1.370 . S
C1306 C1310 1.524 . S
C1307 C1299 1.503 . S
C1307 C1306 1.370 . S
C1307 C1308 1.403 . S
C1308 C1307 1.403 . S
C1308 C1309 1.404 . S
C1308 C1311 1.539 . S
C1309 C1305 1.408 . S
C1309 C1308 1.404 . S
C1309 H1321 0.930 . S
C1310 C1306 1.524 . S
C1310 H1322 0.956 . S
C1310 H1323 0.961 . S
C1310 H1324 0.961 . S
C1311 C1308 1.539 . S
C1311 H1325 0.958 . S
C1311 H1326 0.961 . S
C1311 H1327 0.960 . S
H1312 C1296 0.931 . S
H1313 C1301 0.929 . S
H1314 C1302 0.960 . S
H1315 C1302 0.962 1_565 S
H1316 C1302 0.960 1_565 S
H1317 C1303 0.961 . S
H1318 C1303 0.961 . S
H1319 C1303 0.961 . S
H1320 C1304 0.931 . S
H1321 C1309 0.930 . S
H1322 C1310 0.956 . S
H1323 C1310 0.961 . S
H1324 C1310 0.961 . S
H1325 C1311 0.958 . S
H1326 C1311 0.961 . S
H1327 C1311 0.960 . S
C1328 C1329 1.391 . S
C1328 C1330 1.394 . S
C1328 H1344 0.931 . S
C1329 C1328 1.391 . S
C1329 C1333 1.376 . S
C1330 C1328 1.394 . S
C1330 C1331 1.369 . S
C1330 C1334 1.531 . S
C1331 C1330 1.369 . S
C1331 C1332 1.410 . S
C1331 C1339 1.503 . S
C1332 C1331 1.410 . S
C1332 C1333 1.392 . S
C1332 C1335 1.511 . S
C1333 C1329 1.376 . S
C1333 C1332 1.392 . S
C1333 H1345 0.929 . S
C1334 C1330 1.531 . S
C1334 H1346 0.960 . S
C1334 H1347 0.962 . S
C1334 H1348 0.960 . S
C1335 C1332 1.511 . S
C1335 H1349 0.961 . S
C1335 H1350 0.961 . S
C1335 H1351 0.961 . S
C1336 C1337 1.370 . S
C1336 C1338 1.363 . S
C1336 H1352 0.931 . S
C1337 C1336 1.370 . S
C1337 C1341 1.408 . S
C1338 C1336 1.363 . S
C1338 C1339 1.370 . S
C1338 C1342 1.524 . S
C1339 C1331 1.503 . S
C1339 C1338 1.370 . S
C1339 C1340 1.403 . S
C1340 C1339 1.403 . S
C1340 C1341 1.404 . S
C1340 C1343 1.539 . S
C1341 C1337 1.408 . S
C1341 C1340 1.404 . S
C1341 H1353 0.930 . S
C1342 C1338 1.524 . S
C1342 H1354 0.956 . S
C1342 H1355 0.961 . S
C1342 H1356 0.961 . S
C1343 C1340 1.539 . S
C1343 H1357 0.958 . S
C1343 H1358 0.961 . S
C1343 H1359 0.960 . S
H1344 C1328 0.931 . S
H1345 C1333 0.929 . S
H1346 C1334 0.960 . S
H1347 C1334 0.962 . S
H1348 C1334 0.960 . S
H1349 C1335 0.961 . S
H1350 C1335 0.961 . S
H1351 C1335 0.961 . S
H1352 C1336 0.931 . S
H1353 C1341 0.930 . S
H1354 C1342 0.956 . S
H1355 C1342 0.961 . S
H1356 C1342 0.961 . S
H1357 C1343 0.958 . S
H1358 C1343 0.961 . S
H1359 C1343 0.960 . S
C1360 C1361 1.391 . S
C1360 C1362 1.394 1_655 S
C1360 H1376 0.931 1_655 S
C1361 C1360 1.391 . S
C1361 C1365 1.376 . S
C1362 C1360 1.394 1_455 S
C1362 C1363 1.369 1_455 S
C1362 C1366 1.531 . S
C1363 C1362 1.369 1_655 S
C1363 C1364 1.410 . S
C1363 C1371 1.503 1_655 S
C1364 C1363 1.410 . S
C1364 C1365 1.392 . S
C1364 C1367 1.511 . S
C1365 C1361 1.376 . S
C1365 C1364 1.392 . S
C1365 H1377 0.929 . S
C1366 C1362 1.531 . S
C1366 H1378 0.960 . S
C1366 H1379 0.962 . S
C1366 H1380 0.960 . S
C1367 C1364 1.511 . S
C1367 H1381 0.961 . S
C1367 H1382 0.961 . S
C1367 H1383 0.961 . S
C1368 C1369 1.370 . S
C1368 C1370 1.363 . S
C1368 H1384 0.931 . S
C1369 C1368 1.370 . S
C1369 C1373 1.408 . S
C1370 C1368 1.363 . S
C1370 C1371 1.370 . S
C1370 C1374 1.524 . S
C1371 C1363 1.503 1_455 S
C1371 C1370 1.370 . S
C1371 C1372 1.403 . S
C1372 C1371 1.403 . S
C1372 C1373 1.404 . S
C1372 C1375 1.539 1_455 S
C1373 C1369 1.408 . S
C1373 C1372 1.404 . S
C1373 H1385 0.930 . S
C1374 C1370 1.524 . S
C1374 H1386 0.956 . S
C1374 H1387 0.961 . S
C1374 H1388 0.961 . S
C1375 C1372 1.539 1_655 S
C1375 H1389 0.958 . S
C1375 H1390 0.961 . S
C1375 H1391 0.960 . S
H1376 C1360 0.931 1_455 S
H1377 C1365 0.929 . S
H1378 C1366 0.960 . S
H1379 C1366 0.962 . S
H1380 C1366 0.960 . S
H1381 C1367 0.961 . S
H1382 C1367 0.961 . S
H1383 C1367 0.961 . S
H1384 C1368 0.931 . S
H1385 C1373 0.930 . S
H1386 C1374 0.956 . S
H1387 C1374 0.961 . S
H1388 C1374 0.961 . S
H1389 C1375 0.958 . S
H1390 C1375 0.961 . S
H1391 C1375 0.960 . S
C1392 C1393 1.391 . S
C1392 C1394 1.394 . S
C1392 H1408 0.931 . S
C1393 C1392 1.391 . S
C1393 C1397 1.376 . S
C1394 C1392 1.394 . S
C1394 C1395 1.369 . S
C1394 C1398 1.531 . S
C1395 C1394 1.369 . S
C1395 C1396 1.410 . S
C1395 C1403 1.503 . S
C1396 C1395 1.410 . S
C1396 C1397 1.392 . S
C1396 C1399 1.511 . S
C1397 C1393 1.376 . S
C1397 C1396 1.392 . S
C1397 H1409 0.929 . S
C1398 C1394 1.531 . S
C1398 H1410 0.960 . S
C1398 H1411 0.962 . S
C1398 H1412 0.960 . S
C1399 C1396 1.511 . S
C1399 H1413 0.961 . S
C1399 H1414 0.961 . S
C1399 H1415 0.961 . S
C1400 C1401 1.370 . S
C1400 C1402 1.363 . S
C1400 H1416 0.931 . S
C1401 C1400 1.370 . S
C1401 C1405 1.408 . S
C1402 C1400 1.363 . S
C1402 C1403 1.370 . S
C1402 C1406 1.524 . S
C1403 C1395 1.503 . S
C1403 C1402 1.370 . S
C1403 C1404 1.403 . S
C1404 C1403 1.403 . S
C1404 C1405 1.404 . S
C1404 C1407 1.539 . S
C1405 C1401 1.408 . S
C1405 C1404 1.404 . S
C1405 H1417 0.930 . S
C1406 C1402 1.524 . S
C1406 H1418 0.956 . S
C1406 H1419 0.961 . S
C1406 H1420 0.961 . S
C1407 C1404 1.539 . S
C1407 H1421 0.958 . S
C1407 H1422 0.961 . S
C1407 H1423 0.960 . S
H1408 C1392 0.931 . S
H1409 C1397 0.929 . S
H1410 C1398 0.960 . S
H1411 C1398 0.962 . S
H1412 C1398 0.960 . S
H1413 C1399 0.961 . S
H1414 C1399 0.961 . S
H1415 C1399 0.961 . S
H1416 C1400 0.931 . S
H1417 C1405 0.930 . S
H1418 C1406 0.956 . S
H1419 C1406 0.961 . S
H1420 C1406 0.961 . S
H1421 C1407 0.958 . S
H1422 C1407 0.961 . S
H1423 C1407 0.960 . S
C1424 C1425 1.391 . S
C1424 C1426 1.394 . S
C1424 H1440 0.931 . S
C1425 C1424 1.391 . S
C1425 C1429 1.376 . S
C1426 C1424 1.394 . S
C1426 C1427 1.369 . S
C1426 C1430 1.531 . S
C1427 C1426 1.369 . S
C1427 C1428 1.410 . S
C1427 C1435 1.503 . S
C1428 C1427 1.410 . S
C1428 C1429 1.392 . S
C1428 C1431 1.511 . S
C1429 C1425 1.376 . S
C1429 C1428 1.392 . S
C1429 H1441 0.929 . S
C1430 C1426 1.531 . S
C1430 H1442 0.960 . S
C1430 H1443 0.962 . S
C1430 H1444 0.960 . S
C1431 C1428 1.511 . S
C1431 H1445 0.961 . S
C1431 H1446 0.961 . S
C1431 H1447 0.961 . S
C1432 C1433 1.370 . S
C1432 C1434 1.363 . S
C1432 H1448 0.931 . S
C1433 C1432 1.370 . S
C1433 C1437 1.408 . S
C1434 C1432 1.363 . S
C1434 C1435 1.370 . S
C1434 C1438 1.524 . S
C1435 C1427 1.503 . S
C1435 C1434 1.370 . S
C1435 C1436 1.403 . S
C1436 C1435 1.403 . S
C1436 C1437 1.404 . S
C1436 C1439 1.539 . S
C1437 C1433 1.408 . S
C1437 C1436 1.404 . S
C1437 H1449 0.930 . S
C1438 C1434 1.524 . S
C1438 H1450 0.956 . S
C1438 H1451 0.961 . S
C1438 H1452 0.961 . S
C1439 C1436 1.539 . S
C1439 H1453 0.958 . S
C1439 H1454 0.961 . S
C1439 H1455 0.960 . S
H1440 C1424 0.931 . S
H1441 C1429 0.929 . S
H1442 C1430 0.960 . S
H1443 C1430 0.962 . S
H1444 C1430 0.960 . S
H1445 C1431 0.961 . S
H1446 C1431 0.961 . S
H1447 C1431 0.961 . S
H1448 C1432 0.931 . S
H1449 C1437 0.930 . S
H1450 C1438 0.956 . S
H1451 C1438 0.961 . S
H1452 C1438 0.961 . S
H1453 C1439 0.958 . S
H1454 C1439 0.961 . S
H1455 C1439 0.960 . S
C1456 C1457 1.391 . S
C1456 C1458 1.394 . S
C1456 H1472 0.931 . S
C1457 C1456 1.391 . S
C1457 C1461 1.376 . S
C1458 C1456 1.394 . S
C1458 C1459 1.369 . S
C1458 C1462 1.531 . S
C1459 C1458 1.369 . S
C1459 C1460 1.410 . S
C1459 C1467 1.503 . S
C1460 C1459 1.410 . S
C1460 C1461 1.392 . S
C1460 C1463 1.511 . S
C1461 C1457 1.376 . S
C1461 C1460 1.392 . S
C1461 H1473 0.929 . S
C1462 C1458 1.531 . S
C1462 H1474 0.960 . S
C1462 H1475 0.962 . S
C1462 H1476 0.960 . S
C1463 C1460 1.511 . S
C1463 H1477 0.961 . S
C1463 H1478 0.961 . S
C1463 H1479 0.961 . S
C1464 C1465 1.370 . S
C1464 C1466 1.363 . S
C1464 H1480 0.931 . S
C1465 C1464 1.370 . S
C1465 C1469 1.408 . S
C1466 C1464 1.363 . S
C1466 C1467 1.370 . S
C1466 C1470 1.524 . S
C1467 C1459 1.503 . S
C1467 C1466 1.370 . S
C1467 C1468 1.403 . S
C1468 C1467 1.403 . S
C1468 C1469 1.404 . S
C1468 C1471 1.539 . S
C1469 C1465 1.408 . S
C1469 C1468 1.404 . S
C1469 H1481 0.930 . S
C1470 C1466 1.524 . S
C1470 H1482 0.956 . S
C1470 H1483 0.961 . S
C1470 H1484 0.961 . S
C1471 C1468 1.539 . S
C1471 H1485 0.958 . S
C1471 H1486 0.961 . S
C1471 H1487 0.960 . S
H1472 C1456 0.931 . S
H1473 C1461 0.929 . S
H1474 C1462 0.960 . S
H1475 C1462 0.962 . S
H1476 C1462 0.960 . S
H1477 C1463 0.961 . S
H1478 C1463 0.961 . S
H1479 C1463 0.961 . S
H1480 C1464 0.931 . S
H1481 C1469 0.930 . S
H1482 C1470 0.956 . S
H1483 C1470 0.961 . S
H1484 C1470 0.961 . S
H1485 C1471 0.958 . S
H1486 C1471 0.961 . S
H1487 C1471 0.960 . S
C1488 C1489 1.391 . S
C1488 C1490 1.394 . S
C1488 H1504 0.931 1_554 S
C1489 C1488 1.391 . S
C1489 C1493 1.376 . S
C1490 C1488 1.394 . S
C1490 C1491 1.369 . S
C1490 C1494 1.531 . S
C1491 C1490 1.369 . S
C1491 C1492 1.410 . S
C1491 C1499 1.503 . S
C1492 C1491 1.410 . S
C1492 C1493 1.392 . S
C1492 C1495 1.511 1_565 S
C1493 C1489 1.376 . S
C1493 C1492 1.392 . S
C1493 H1505 0.929 . S
C1494 C1490 1.531 . S
C1494 H1506 0.960 . S
C1494 H1507 0.962 1_554 S
C1494 H1508 0.960 . S
C1495 C1492 1.511 1_545 S
C1495 H1509 0.961 . S
C1495 H1510 0.961 . S
C1495 H1511 0.961 . S
C1496 C1497 1.370 . S
C1496 C1498 1.363 . S
C1496 H1512 0.931 1_565 S
C1497 C1496 1.370 . S
C1497 C1501 1.408 . S
C1498 C1496 1.363 . S
C1498 C1499 1.370 . S
C1498 C1502 1.501 1_554 S
C1499 C1491 1.503 . S
C1499 C1498 1.370 . S
C1499 C1500 1.403 . S
C1500 C1499 1.403 . S
C1500 C1501 1.404 . S
C1500 C1503 1.539 . S
C1501 C1497 1.408 . S
C1501 C1500 1.404 . S
C1501 H1513 0.930 . S
C1502 C1498 1.501 1_556 S
C1502 H1514 0.967 . S
C1502 H1515 0.961 1_556 S
C1502 H1516 0.959 1_565 S
C1503 C1500 1.539 . S
C1503 H1517 0.958 . S
C1503 H1518 0.961 . S
C1503 H1519 0.960 . S
H1504 C1488 0.931 1_556 S
H1505 C1493 0.929 . S
H1506 C1494 0.960 . S
H1507 C1494 0.962 1_556 S
H1508 C1494 0.960 . S
H1509 C1495 0.961 . S
H1510 C1495 0.961 . S
H1511 C1495 0.961 . S
H1512 C1496 0.931 1_545 S
H1513 C1501 0.930 . S
H1514 C1502 0.967 . S
H1515 C1502 0.961 1_554 S
H1516 C1502 0.959 1_545 S
H1517 C1503 0.958 . S
H1518 C1503 0.961 . S
H1519 C1503 0.960 . S
C1520 C1521 1.391 . S
C1520 C1522 1.394 . S
C1520 H1536 0.931 . S
C1521 C1520 1.391 . S
C1521 C1525 1.376 . S
C1522 C1520 1.394 . S
C1522 C1523 1.369 . S
C1522 C1526 1.531 . S
C1523 C1522 1.369 . S
C1523 C1524 1.410 . S
C1523 C1531 1.503 . S
C1524 C1523 1.410 . S
C1524 C1525 1.392 . S
C1524 C1527 1.511 . S
C1525 C1521 1.376 . S
C1525 C1524 1.392 . S
C1525 H1537 0.929 . S
C1526 C1522 1.531 . S
C1526 H1538 0.960 . S
C1526 H1539 0.962 1_556 S
C1526 H1540 0.960 . S
C1527 C1524 1.511 . S
C1527 H1541 0.961 1_556 S
C1527 H1542 0.961 1_556 S
C1527 H1543 0.961 . S
C1528 C1529 1.370 . S
C1528 C1530 1.363 . S
C1528 H1544 0.931 . S
C1529 C1528 1.370 . S
C1529 C1533 1.408 1_554 S
C1530 C1528 1.363 . S
C1530 C1531 1.370 1_554 S
C1530 C1534 1.524 . S
C1531 C1523 1.503 . S
C1531 C1530 1.370 1_556 S
C1531 C1532 1.403 . S
C1532 C1531 1.403 . S
C1532 C1533 1.404 . S
C1532 C1535 1.539 . S
C1533 C1529 1.408 1_556 S
C1533 C1532 1.404 . S
C1533 H1545 0.930 . S
C1534 C1530 1.524 . S
C1534 H1546 0.956 . S
C1534 H1547 0.961 . S
C1534 H1548 0.961 . S
C1535 C1532 1.539 . S
C1535 H1549 0.958 . S
C1535 H1550 0.961 . S
C1535 H1551 0.960 . S
H1536 C1520 0.931 . S
H1537 C1525 0.929 . S
H1538 C1526 0.960 . S
H1539 C1526 0.962 1_554 S
H1540 C1526 0.960 . S
H1541 C1527 0.961 1_554 S
H1542 C1527 0.961 1_554 S
H1543 C1527 0.961 . S
H1544 C1528 0.931 . S
H1545 C1533 0.930 . S
H1546 C1534 0.956 . S
H1547 C1534 0.961 . S
H1548 C1534 0.961 . S
H1549 C1535 0.958 . S
H1550 C1535 0.961 . S
H1551 C1535 0.960 . S
C1552 C1553 1.391 . S
C1552 C1554 1.394 . S
C1552 H1568 0.931 . S
C1553 C1552 1.391 . S
C1553 C1557 1.376 . S
C1554 C1552 1.394 . S
C1554 C1555 1.369 . S
C1554 C1558 1.531 . S
C1555 C1554 1.369 . S
C1555 C1556 1.410 . S
C1555 C1563 1.503 . S
C1556 C1555 1.410 . S
C1556 C1557 1.392 . S
C1556 C1559 1.511 . S
C1557 C1553 1.376 . S
C1557 C1556 1.392 . S
C1557 H1569 0.929 . S
C1558 C1554 1.531 . S
C1558 H1570 0.960 . S
C1558 H1571 0.962 . S
C1558 H1572 0.960 . S
C1559 C1556 1.511 . S
C1559 H1573 0.961 . S
C1559 H1574 0.961 . S
C1559 H1575 0.961 . S
C1560 C1561 1.370 . S
C1560 C1562 1.363 . S
C1560 H1576 0.931 . S
C1561 C1560 1.370 . S
C1561 C1565 1.408 . S
C1562 C1560 1.363 . S
C1562 C1563 1.370 . S
C1562 C1566 1.524 . S
C1563 C1555 1.503 . S
C1563 C1562 1.370 . S
C1563 C1564 1.403 . S
C1564 C1563 1.403 . S
C1564 C1565 1.404 . S
C1564 C1567 1.539 . S
C1565 C1561 1.408 . S
C1565 C1564 1.404 . S
C1565 H1577 0.930 . S
C1566 C1562 1.524 . S
C1566 H1578 0.956 . S
C1566 H1579 0.961 . S
C1566 H1580 0.961 . S
C1567 C1564 1.539 . S
C1567 H1581 0.958 . S
C1567 H1582 0.961 . S
C1567 H1583 0.960 . S
H1568 C1552 0.931 . S
H1569 C1557 0.929 . S
H1570 C1558 0.960 . S
H1571 C1558 0.962 . S
H1572 C1558 0.960 . S
H1573 C1559 0.961 . S
H1574 C1559 0.961 . S
H1575 C1559 0.961 . S
H1576 C1560 0.931 . S
H1577 C1565 0.930 . S
H1578 C1566 0.956 . S
H1579 C1566 0.961 . S
H1580 C1566 0.961 . S
H1581 C1567 0.958 . S
H1582 C1567 0.961 . S
H1583 C1567 0.960 . S
C1584 C1585 1.391 . S
C1584 C1586 1.394 . S
C1584 H1600 0.931 . S
C1585 C1584 1.391 . S
C1585 C1589 1.376 . S
C1586 C1584 1.394 . S
C1586 C1587 1.369 . S
C1586 C1590 1.531 . S
C1587 C1586 1.369 . S
C1587 C1588 1.410 . S
C1587 C1595 1.503 . S
C1588 C1587 1.410 . S
C1588 C1589 1.392 . S
C1588 C1591 1.511 . S
C1589 C1585 1.376 . S
C1589 C1588 1.392 . S
C1589 H1601 0.929 . S
C1590 C1586 1.531 . S
C1590 H1602 0.960 . S
C1590 H1603 0.962 . S
C1590 H1604 0.960 . S
C1591 C1588 1.511 . S
C1591 H1605 0.961 . S
C1591 H1606 0.961 . S
C1591 H1607 0.961 . S
C1592 C1593 1.370 . S
C1592 C1594 1.363 . S
C1592 H1608 0.931 . S
C1593 C1592 1.370 . S
C1593 C1597 1.408 . S
C1594 C1592 1.363 . S
C1594 C1595 1.370 . S
C1594 C1598 1.524 . S
C1595 C1587 1.503 . S
C1595 C1594 1.370 . S
C1595 C1596 1.403 . S
C1596 C1595 1.403 . S
C1596 C1597 1.404 . S
C1596 C1599 1.539 . S
C1597 C1593 1.408 . S
C1597 C1596 1.404 . S
C1597 H1609 0.930 1_655 S
C1598 C1594 1.524 . S
C1598 H1610 0.956 . S
C1598 H1611 0.961 . S
C1598 H1612 0.961 . S
C1599 C1596 1.539 . S
C1599 H1613 0.958 . S
C1599 H1614 0.961 . S
C1599 H1615 0.960 . S
H1600 C1584 0.931 . S
H1601 C1589 0.929 . S
H1602 C1590 0.960 . S
H1603 C1590 0.962 . S
H1604 C1590 0.960 . S
H1605 C1591 0.961 . S
H1606 C1591 0.961 . S
H1607 C1591 0.961 . S
H1608 C1592 0.931 . S
H1609 C1597 0.930 1_455 S
H1610 C1598 0.956 . S
H1611 C1598 0.961 . S
H1612 C1598 0.961 . S
H1613 C1599 0.958 . S
H1614 C1599 0.961 . S
H1615 C1599 0.960 . S
C1616 C1617 1.391 . S
C1616 C1618 1.394 . S
C1616 H1632 0.931 . S
C1617 C1616 1.391 . S
C1617 C1621 1.376 . S
C1618 C1616 1.394 . S
C1618 C1619 1.369 . S
C1618 C1622 1.531 . S
C1619 C1618 1.369 . S
C1619 C1620 1.410 . S
C1619 C1627 1.503 . S
C1620 C1619 1.410 . S
C1620 C1621 1.392 . S
C1620 C1623 1.511 . S
C1621 C1617 1.376 . S
C1621 C1620 1.392 . S
C1621 H1633 0.929 . S
C1622 C1618 1.531 . S
C1622 H1634 0.960 . S
C1622 H1635 0.962 . S
C1622 H1636 0.960 . S
C1623 C1620 1.511 . S
C1623 H1637 0.961 . S
C1623 H1638 0.961 . S
C1623 H1639 0.961 . S
C1624 C1625 1.370 . S
C1624 C1626 1.363 . S
C1624 H1640 0.931 . S
C1625 C1624 1.370 . S
C1625 C1629 1.408 . S
C1626 C1624 1.363 . S
C1626 C1627 1.370 . S
C1626 C1630 1.524 . S
C1627 C1619 1.503 . S
C1627 C1626 1.370 . S
C1627 C1628 1.403 . S
C1628 C1627 1.403 . S
C1628 C1629 1.404 . S
C1628 C1631 1.539 . S
C1629 C1625 1.408 . S
C1629 C1628 1.404 . S
C1629 H1641 0.930 . S
C1630 C1626 1.524 . S
C1630 H1642 0.956 . S
C1630 H1643 0.961 . S
C1630 H1644 0.961 . S
C1631 C1628 1.539 . S
C1631 H1645 0.958 . S
C1631 H1646 0.961 . S
C1631 H1647 0.960 . S
H1632 C1616 0.931 . S
H1633 C1621 0.929 . S
H1634 C1622 0.960 . S
H1635 C1622 0.962 . S
H1636 C1622 0.960 . S
H1637 C1623 0.961 . S
H1638 C1623 0.961 . S
H1639 C1623 0.961 . S
H1640 C1624 0.931 . S
H1641 C1629 0.930 . S
H1642 C1630 0.956 . S
H1643 C1630 0.961 . S
H1644 C1630 0.961 . S
H1645 C1631 0.958 . S
H1646 C1631 0.961 . S
H1647 C1631 0.960 . S
C1648 C1649 1.391 . S
C1648 C1650 1.394 . S
C1648 H1664 0.931 . S
C1649 C1648 1.391 . S
C1649 C1653 1.376 . S
C1650 C1648 1.394 . S
C1650 C1651 1.369 . S
C1650 C1654 1.531 . S
C1651 C1650 1.369 . S
C1651 C1652 1.410 . S
C1651 C1659 1.503 . S
C1652 C1651 1.410 . S
C1652 C1653 1.392 . S
C1652 C1655 1.511 . S
C1653 C1649 1.376 . S
C1653 C1652 1.392 . S
C1653 H1665 0.929 . S
C1654 C1650 1.531 . S
C1654 H1666 0.960 . S
C1654 H1667 0.962 . S
C1654 H1668 0.960 . S
C1655 C1652 1.511 . S
C1655 H1669 0.961 . S
C1655 H1670 0.961 . S
C1655 H1671 0.961 . S
C1656 C1657 1.370 . S
C1656 C1658 1.363 . S
C1656 H1672 0.931 . S
C1657 C1656 1.370 . S
C1657 C1661 1.408 . S
C1658 C1656 1.363 . S
C1658 C1659 1.370 . S
C1658 C1662 1.524 . S
C1659 C1651 1.503 . S
C1659 C1658 1.370 . S
C1659 C1660 1.403 . S
C1660 C1659 1.403 . S
C1660 C1661 1.404 . S
C1660 C1663 1.539 . S
C1661 C1657 1.408 . S
C1661 C1660 1.404 . S
C1661 H1673 0.930 . S
C1662 C1658 1.524 . S
C1662 H1674 0.956 . S
C1662 H1675 0.961 . S
C1662 H1676 0.961 . S
C1663 C1660 1.539 . S
C1663 H1677 0.958 . S
C1663 H1678 0.961 . S
C1663 H1679 0.960 . S
H1664 C1648 0.931 . S
H1665 C1653 0.929 . S
H1666 C1654 0.960 . S
H1667 C1654 0.962 . S
H1668 C1654 0.960 . S
H1669 C1655 0.961 . S
H1670 C1655 0.961 . S
H1671 C1655 0.961 . S
H1672 C1656 0.931 . S
H1673 C1661 0.930 . S
H1674 C1662 0.956 . S
H1675 C1662 0.961 . S
H1676 C1662 0.961 . S
H1677 C1663 0.958 . S
H1678 C1663 0.961 . S
H1679 C1663 0.960 . S
C1680 C1681 1.391 . S
C1680 C1682 1.394 . S
C1680 H1696 0.931 . S
C1681 C1680 1.391 . S
C1681 C1685 1.376 . S
C1682 C1680 1.394 . S
C1682 C1683 1.369 . S
C1682 C1686 1.531 . S
C1683 C1682 1.369 . S
C1683 C1684 1.410 . S
C1683 C1691 1.503 . S
C1684 C1683 1.410 . S
C1684 C1685 1.392 . S
C1684 C1687 1.511 . S
C1685 C1681 1.376 . S
C1685 C1684 1.392 . S
C1685 H1697 0.929 . S
C1686 C1682 1.531 . S
C1686 H1698 0.960 . S
C1686 H1699 0.962 . S
C1686 H1700 0.960 . S
C1687 C1684 1.511 . S
C1687 H1701 0.961 . S
C1687 H1702 0.961 . S
C1687 H1703 0.961 . S
C1688 C1689 1.370 . S
C1688 C1690 1.363 . S
C1688 H1704 0.931 . S
C1689 C1688 1.370 . S
C1689 C1693 1.408 . S
C1690 C1688 1.363 . S
C1690 C1691 1.370 . S
C1690 C1694 1.524 . S
C1691 C1683 1.503 . S
C1691 C1690 1.370 . S
C1691 C1692 1.403 . S
C1692 C1691 1.403 . S
C1692 C1693 1.404 . S
C1692 C1695 1.539 . S
C1693 C1689 1.408 . S
C1693 C1692 1.404 . S
C1693 H1705 0.930 . S
C1694 C1690 1.524 . S
C1694 H1706 0.956 . S
C1694 H1707 0.961 . S
C1694 H1708 0.961 . S
C1695 C1692 1.539 . S
C1695 H1709 0.958 . S
C1695 H1710 0.961 . S
C1695 H1711 0.960 . S
H1696 C1680 0.931 . S
H1697 C1685 0.929 . S
H1698 C1686 0.960 . S
H1699 C1686 0.962 . S
H1700 C1686 0.960 . S
H1701 C1687 0.961 . S
H1702 C1687 0.961 . S
H1703 C1687 0.961 . S
H1704 C1688 0.931 . S
H1705 C1693 0.930 . S
H1706 C1694 0.956 . S
H1707 C1694 0.961 . S
H1708 C1694 0.961 . S
H1709 C1695 0.958 . S
H1710 C1695 0.961 . S
H1711 C1695 0.960 . S
C1712 C1713 1.391 . S
C1712 C1714 1.394 . S
C1712 H1728 0.931 . S
C1713 C1712 1.391 . S
C1713 C1717 1.376 . S
C1714 C1712 1.394 . S
C1714 C1715 1.369 . S
C1714 C1718 1.531 . S
C1715 C1714 1.369 . S
C1715 C1716 1.410 . S
C1715 C1723 1.503 . S
C1716 C1715 1.410 . S
C1716 C1717 1.392 . S
C1716 C1719 1.511 . S
C1717 C1713 1.376 . S
C1717 C1716 1.392 . S
C1717 H1729 0.929 . S
C1718 C1714 1.531 . S
C1718 H1730 0.960 . S
C1718 H1731 0.962 . S
C1718 H1732 0.960 . S
C1719 C1716 1.511 . S
C1719 H1733 0.961 . S
C1719 H1734 0.961 . S
C1719 H1735 0.961 . S
C1720 C1721 1.370 . S
C1720 C1722 1.363 . S
C1720 H1736 0.931 . S
C1721 C1720 1.370 . S
C1721 C1725 1.408 . S
C1722 C1720 1.363 . S
C1722 C1723 1.370 . S
C1722 C1726 1.524 . S
C1723 C1715 1.503 . S
C1723 C1722 1.370 . S
C1723 C1724 1.403 . S
C1724 C1723 1.403 . S
C1724 C1725 1.404 . S
C1724 C1727 1.539 . S
C1725 C1721 1.408 . S
C1725 C1724 1.404 . S
C1725 H1737 0.930 . S
C1726 C1722 1.524 . S
C1726 H1738 0.956 . S
C1726 H1739 0.961 . S
C1726 H1740 0.961 . S
C1727 C1724 1.539 . S
C1727 H1741 0.958 . S
C1727 H1742 0.961 . S
C1727 H1743 0.960 . S
H1728 C1712 0.931 . S
H1729 C1717 0.929 . S
H1730 C1718 0.960 . S
H1731 C1718 0.962 . S
H1732 C1718 0.960 . S
H1733 C1719 0.961 . S
H1734 C1719 0.961 . S
H1735 C1719 0.961 . S
H1736 C1720 0.931 . S
H1737 C1725 0.930 . S
H1738 C1726 0.956 . S
H1739 C1726 0.961 . S
H1740 C1726 0.961 . S
H1741 C1727 0.958 . S
H1742 C1727 0.961 . S
H1743 C1727 0.960 . S
C1744 C1745 1.391 . S
C1744 C1746 1.394 . S
C1744 H1760 0.931 . S
C1745 C1744 1.391 . S
C1745 C1749 1.376 . S
C1746 C1744 1.394 . S
C1746 C1747 1.369 . S
C1746 C1750 1.531 . S
C1747 C1746 1.369 . S
C1747 C1748 1.410 . S
C1747 C1755 1.503 . S
C1748 C1747 1.410 . S
C1748 C1749 1.392 . S
C1748 C1751 1.511 . S
C1749 C1745 1.376 . S
C1749 C1748 1.392 . S
C1749 H1761 0.929 . S
C1750 C1746 1.531 . S
C1750 H1762 0.960 . S
C1750 H1763 0.962 . S
C1750 H1764 0.960 . S
C1751 C1748 1.511 . S
C1751 H1765 0.961 . S
C1751 H1766 0.961 . S
C1751 H1767 0.961 . S
C1752 C1753 1.370 . S
C1752 C1754 1.363 . S
C1752 H1768 0.931 . S
C1753 C1752 1.370 . S
C1753 C1757 1.408 . S
C1754 C1752 1.363 . S
C1754 C1755 1.370 . S
C1754 C1758 1.524 . S
C1755 C1747 1.503 . S
C1755 C1754 1.370 . S
C1755 C1756 1.403 . S
C1756 C1755 1.403 . S
C1756 C1757 1.404 . S
C1756 C1759 1.539 . S
C1757 C1753 1.408 . S
C1757 C1756 1.404 . S
C1757 H1769 0.930 . S
C1758 C1754 1.524 . S
C1758 H1770 0.956 . S
C1758 H1771 0.961 . S
C1758 H1772 0.961 . S
C1759 C1756 1.539 . S
C1759 H1773 0.958 . S
C1759 H1774 0.961 . S
C1759 H1775 0.960 . S
H1760 C1744 0.931 . S
H1761 C1749 0.929 . S
H1762 C1750 0.960 . S
H1763 C1750 0.962 . S
H1764 C1750 0.960 . S
H1765 C1751 0.961 . S
H1766 C1751 0.961 . S
H1767 C1751 0.961 . S
H1768 C1752 0.931 . S
H1769 C1757 0.930 . S
H1770 C1758 0.956 . S
H1771 C1758 0.961 . S
H1772 C1758 0.961 . S
H1773 C1759 0.958 . S
H1774 C1759 0.961 . S
H1775 C1759 0.960 . S
C1776 C1777 1.391 . S
C1776 C1778 1.394 . S
C1776 H1792 0.931 . S
C1777 C1776 1.391 . S
C1777 C1781 1.376 . S
C1778 C1776 1.394 . S
C1778 C1779 1.369 . S
C1778 C1782 1.531 . S
C1779 C1778 1.369 . S
C1779 C1780 1.410 . S
C1779 C1787 1.503 . S
C1780 C1779 1.410 . S
C1780 C1781 1.392 . S
C1780 C1783 1.511 . S
C1781 C1777 1.376 . S
C1781 C1780 1.392 . S
C1781 H1793 0.929 . S
C1782 C1778 1.531 . S
C1782 H1794 0.960 . S
C1782 H1795 0.962 . S
C1782 H1796 0.960 . S
C1783 C1780 1.511 . S
C1783 H1797 0.961 . S
C1783 H1798 0.961 . S
C1783 H1799 0.961 . S
C1784 C1785 1.370 . S
C1784 C1786 1.363 . S
C1784 H1800 0.931 . S
C1785 C1784 1.370 . S
C1785 C1789 1.408 . S
C1786 C1784 1.363 . S
C1786 C1787 1.370 . S
C1786 C1790 1.524 . S
C1787 C1779 1.503 . S
C1787 C1786 1.370 . S
C1787 C1788 1.403 . S
C1788 C1787 1.403 . S
C1788 C1789 1.404 . S
C1788 C1791 1.539 . S
C1789 C1785 1.408 . S
C1789 C1788 1.404 . S
C1789 H1801 0.930 . S
C1790 C1786 1.524 . S
C1790 H1802 0.956 . S
C1790 H1803 0.961 . S
C1790 H1804 0.961 . S
C1791 C1788 1.539 . S
C1791 H1805 0.958 . S
C1791 H1806 0.961 . S
C1791 H1807 0.960 . S
H1792 C1776 0.931 . S
H1793 C1781 0.929 . S
H1794 C1782 0.960 . S
H1795 C1782 0.962 . S
H1796 C1782 0.960 . S
H1797 C1783 0.961 . S
H1798 C1783 0.961 . S
H1799 C1783 0.961 . S
H1800 C1784 0.931 . S
H1801 C1789 0.930 . S
H1802 C1790 0.956 . S
H1803 C1790 0.961 . S
H1804 C1790 0.961 . S
H1805 C1791 0.958 . S
H1806 C1791 0.961 . S
H1807 C1791 0.960 . S
C1808 C1809 1.391 . S
C1808 C1810 1.394 . S
C1808 H1824 0.931 . S
C1809 C1808 1.391 . S
C1809 C1813 1.376 . S
C1810 C1808 1.394 . S
C1810 C1811 1.369 . S
C1810 C1814 1.531 . S
C1811 C1810 1.369 . S
C1811 C1812 1.410 . S
C1811 C1819 1.503 . S
C1812 C1811 1.410 . S
C1812 C1813 1.392 . S
C1812 C1815 1.511 . S
C1813 C1809 1.376 . S
C1813 C1812 1.392 . S
C1813 H1825 0.929 . S
C1814 C1810 1.531 . S
C1814 H1826 0.960 . S
C1814 H1827 0.962 . S
C1814 H1828 0.960 . S
C1815 C1812 1.511 . S
C1815 H1829 0.961 . S
C1815 H1830 0.961 . S
C1815 H1831 0.961 . S
C1816 C1817 1.370 . S
C1816 C1818 1.363 . S
C1816 H1832 0.931 . S
C1817 C1816 1.370 . S
C1817 C1821 1.408 . S
C1818 C1816 1.363 . S
C1818 C1819 1.370 . S
C1818 C1822 1.524 . S
C1819 C1811 1.503 . S
C1819 C1818 1.370 . S
C1819 C1820 1.403 . S
C1820 C1819 1.403 . S
C1820 C1821 1.404 . S
C1820 C1823 1.539 . S
C1821 C1817 1.408 . S
C1821 C1820 1.404 . S
C1821 H1833 0.930 . S
C1822 C1818 1.524 . S
C1822 H1834 0.956 . S
C1822 H1835 0.961 . S
C1822 H1836 0.961 . S
C1823 C1820 1.539 . S
C1823 H1837 0.958 . S
C1823 H1838 0.961 . S
C1823 H1839 0.960 . S
H1824 C1808 0.931 . S
H1825 C1813 0.929 . S
H1826 C1814 0.960 . S
H1827 C1814 0.962 . S
H1828 C1814 0.960 . S
H1829 C1815 0.961 . S
H1830 C1815 0.961 . S
H1831 C1815 0.961 . S
H1832 C1816 0.931 . S
H1833 C1821 0.930 . S
H1834 C1822 0.956 . S
H1835 C1822 0.961 . S
H1836 C1822 0.961 . S
H1837 C1823 0.958 . S
H1838 C1823 0.961 . S
H1839 C1823 0.960 . S
C1840 C1841 1.391 . S
C1840 C1842 1.394 . S
C1840 H1856 0.931 . S
C1841 C1840 1.391 . S
C1841 C1845 1.376 . S
C1842 C1840 1.394 . S
C1842 C1843 1.369 . S
C1842 C1846 1.531 . S
C1843 C1842 1.369 . S
C1843 C1844 1.410 . S
C1843 C1851 1.503 . S
C1844 C1843 1.410 . S
C1844 C1845 1.392 . S
C1844 C1847 1.511 . S
C1845 C1841 1.376 . S
C1845 C1844 1.392 . S
C1845 H1857 0.929 . S
C1846 C1842 1.531 . S
C1846 H1858 0.960 . S
C1846 H1859 0.962 . S
C1846 H1860 0.960 . S
C1847 C1844 1.511 . S
C1847 H1861 0.961 . S
C1847 H1862 0.961 . S
C1847 H1863 0.961 . S
C1848 C1849 1.370 . S
C1848 C1850 1.363 . S
C1848 H1864 0.931 . S
C1849 C1848 1.370 . S
C1849 C1853 1.408 . S
C1850 C1848 1.363 . S
C1850 C1851 1.370 . S
C1850 C1854 1.524 . S
C1851 C1843 1.503 . S
C1851 C1850 1.370 . S
C1851 C1852 1.403 . S
C1852 C1851 1.403 . S
C1852 C1853 1.404 . S
C1852 C1855 1.539 . S
C1853 C1849 1.408 . S
C1853 C1852 1.404 . S
C1853 H1865 0.930 . S
C1854 C1850 1.524 . S
C1854 H1866 0.956 . S
C1854 H1867 0.961 . S
C1854 H1868 0.961 . S
C1855 C1852 1.539 . S
C1855 H1869 0.958 . S
C1855 H1870 0.961 . S
C1855 H1871 0.960 . S
H1856 C1840 0.931 . S
H1857 C1845 0.929 . S
H1858 C1846 0.960 . S
H1859 C1846 0.962 . S
H1860 C1846 0.960 . S
H1861 C1847 0.961 . S
H1862 C1847 0.961 . S
H1863 C1847 0.961 . S
H1864 C1848 0.931 . S
H1865 C1853 0.930 . S
H1866 C1854 0.956 . S
H1867 C1854 0.961 . S
H1868 C1854 0.961 . S
H1869 C1855 0.958 . S
H1870 C1855 0.961 . S
H1871 C1855 0.960 . S
C1872 C1873 1.391 . S
C1872 C1874 1.394 . S
C1872 H1888 0.931 . S
C1873 C1872 1.391 . S
C1873 C1877 1.376 . S
C1874 C1872 1.394 . S
C1874 C1875 1.369 . S
C1874 C1878 1.531 . S
C1875 C1874 1.369 . S
C1875 C1876 1.410 . S
C1875 C1883 1.503 . S
C1876 C1875 1.410 . S
C1876 C1877 1.392 . S
C1876 C1879 1.511 . S
C1877 C1873 1.376 . S
C1877 C1876 1.392 . S
C1877 H1889 0.929 . S
C1878 C1874 1.531 . S
C1878 H1890 0.960 . S
C1878 H1891 0.962 . S
C1878 H1892 0.960 . S
C1879 C1876 1.511 . S
C1879 H1893 0.961 . S
C1879 H1894 0.961 . S
C1879 H1895 0.961 . S
C1880 C1881 1.370 . S
C1880 C1882 1.363 . S
C1880 H1896 0.931 . S
C1881 C1880 1.370 . S
C1881 C1885 1.408 . S
C1882 C1880 1.363 . S
C1882 C1883 1.370 . S
C1882 C1886 1.524 . S
C1883 C1875 1.503 . S
C1883 C1882 1.370 . S
C1883 C1884 1.403 . S
C1884 C1883 1.403 . S
C1884 C1885 1.404 . S
C1884 C1887 1.539 . S
C1885 C1881 1.408 . S
C1885 C1884 1.404 . S
C1885 H1897 0.930 . S
C1886 C1882 1.524 . S
C1886 H1898 0.956 . S
C1886 H1899 0.961 . S
C1886 H1900 0.961 . S
C1887 C1884 1.539 . S
C1887 H1901 0.958 . S
C1887 H1902 0.961 . S
C1887 H1903 0.960 . S
H1888 C1872 0.931 . S
H1889 C1877 0.929 . S
H1890 C1878 0.960 . S
H1891 C1878 0.962 . S
H1892 C1878 0.960 . S
H1893 C1879 0.961 . S
H1894 C1879 0.961 . S
H1895 C1879 0.961 . S
H1896 C1880 0.931 . S
H1897 C1885 0.930 . S
H1898 C1886 0.956 . S
H1899 C1886 0.961 . S
H1900 C1886 0.961 . S
H1901 C1887 0.958 . S
H1902 C1887 0.961 . S
H1903 C1887 0.960 . S
C1904 C1905 1.391 . S
C1904 C1906 1.394 . S
C1904 H1920 0.931 . S
C1905 C1904 1.391 . S
C1905 C1909 1.376 . S
C1906 C1904 1.394 . S
C1906 C1907 1.369 . S
C1906 C1910 1.531 . S
C1907 C1906 1.369 . S
C1907 C1908 1.410 . S
C1907 C1915 1.503 . S
C1908 C1907 1.410 . S
C1908 C1909 1.392 . S
C1908 C1911 1.511 . S
C1909 C1905 1.376 . S
C1909 C1908 1.392 . S
C1909 H1921 0.929 . S
C1910 C1906 1.531 . S
C1910 H1922 0.960 . S
C1910 H1923 0.962 . S
C1910 H1924 0.960 . S
C1911 C1908 1.511 . S
C1911 H1925 0.961 . S
C1911 H1926 0.961 . S
C1911 H1927 0.961 . S
C1912 C1913 1.370 . S
C1912 C1914 1.363 . S
C1912 H1928 0.931 . S
C1913 C1912 1.370 . S
C1913 C1917 1.408 . S
C1914 C1912 1.363 . S
C1914 C1915 1.370 . S
C1914 C1918 1.524 . S
C1915 C1907 1.503 . S
C1915 C1914 1.370 . S
C1915 C1916 1.403 . S
C1916 C1915 1.403 . S
C1916 C1917 1.404 . S
C1916 C1919 1.539 . S
C1917 C1913 1.408 . S
C1917 C1916 1.404 . S
C1917 H1929 0.930 . S
C1918 C1914 1.524 . S
C1918 H1930 0.956 . S
C1918 H1931 0.961 . S
C1918 H1932 0.961 . S
C1919 C1916 1.539 . S
C1919 H1933 0.958 . S
C1919 H1934 0.961 . S
C1919 H1935 0.960 . S
H1920 C1904 0.931 . S
H1921 C1909 0.929 . S
H1922 C1910 0.960 . S
H1923 C1910 0.962 . S
H1924 C1910 0.960 . S
H1925 C1911 0.961 . S
H1926 C1911 0.961 . S
H1927 C1911 0.961 . S
H1928 C1912 0.931 . S
H1929 C1917 0.930 . S
H1930 C1918 0.956 . S
H1931 C1918 0.961 . S
H1932 C1918 0.961 . S
H1933 C1919 0.958 . S
H1934 C1919 0.961 . S
H1935 C1919 0.960 . S
C1936 C1937 1.391 . S
C1936 C1938 1.394 . S
C1936 H1952 0.931 . S
C1937 C1936 1.391 . S
C1937 C1941 1.376 . S
C1938 C1936 1.394 . S
C1938 C1939 1.369 . S
C1938 C1942 1.531 . S
C1939 C1938 1.369 . S
C1939 C1940 1.410 . S
C1939 C1947 1.503 . S
C1940 C1939 1.410 . S
C1940 C1941 1.392 . S
C1940 C1943 1.511 . S
C1941 C1937 1.376 . S
C1941 C1940 1.392 . S
C1941 H1953 0.929 . S
C1942 C1938 1.531 . S
C1942 H1954 0.960 . S
C1942 H1955 0.962 . S
C1942 H1956 0.960 . S
C1943 C1940 1.511 . S
C1943 H1957 0.961 . S
C1943 H1958 0.961 . S
C1943 H1959 0.961 . S
C1944 C1945 1.370 . S
C1944 C1946 1.363 . S
C1944 H1960 0.952 . S
C1945 C1944 1.370 . S
C1945 C1949 1.408 . S
C1946 C1944 1.363 . S
C1946 C1947 1.370 . S
C1946 C1950 1.524 . S
C1947 C1939 1.503 . S
C1947 C1946 1.370 . S
C1947 C1948 1.403 . S
C1948 C1947 1.403 . S
C1948 C1949 1.404 . S
C1948 C1951 1.539 . S
C1949 C1945 1.408 . S
C1949 C1948 1.404 . S
C1949 H1961 0.930 . S
C1950 C1946 1.524 . S
C1950 H1962 0.956 . S
C1950 H1963 0.961 . S
C1950 H1964 0.961 . S
C1951 C1948 1.539 . S
C1951 H1965 0.958 . S
C1951 H1966 0.961 . S
C1951 H1967 0.960 . S
H1952 C1936 0.931 . S
H1953 C1941 0.929 . S
H1954 C1942 0.960 . S
H1955 C1942 0.962 . S
H1956 C1942 0.960 . S
H1957 C1943 0.961 . S
H1958 C1943 0.961 . S
H1959 C1943 0.961 . S
H1960 C1944 0.952 . S
H1961 C1949 0.930 . S
H1962 C1950 0.956 . S
H1963 C1950 0.961 . S
H1964 C1950 0.961 . S
H1965 C1951 0.958 . S
H1966 C1951 0.961 . S
H1967 C1951 0.960 . S
C1968 C1969 1.391 . S
C1968 C1970 1.394 . S
C1968 H1984 0.931 . S
C1969 C1968 1.391 . S
C1969 C1973 1.376 . S
C1970 C1968 1.394 . S
C1970 C1971 1.369 . S
C1970 C1974 1.531 . S
C1971 C1970 1.369 . S
C1971 C1972 1.410 . S
C1971 C1979 1.503 . S
C1972 C1971 1.410 . S
C1972 C1973 1.392 . S
C1972 C1975 1.511 . S
C1973 C1969 1.376 . S
C1973 C1972 1.392 . S
C1973 H1985 0.929 . S
C1974 C1970 1.531 . S
C1974 H1986 0.960 . S
C1974 H1987 0.962 . S
C1974 H1988 0.960 . S
C1975 C1972 1.511 . S
C1975 H1989 0.961 . S
C1975 H1990 0.961 . S
C1975 H1991 0.961 . S
C1976 C1977 1.370 . S
C1976 C1978 1.363 . S
C1976 H1992 0.931 . S
C1977 C1976 1.370 . S
C1977 C1981 1.408 . S
C1978 C1976 1.363 . S
C1978 C1979 1.370 . S
C1978 C1982 1.524 . S
C1979 C1971 1.503 . S
C1979 C1978 1.370 . S
C1979 C1980 1.403 . S
C1980 C1979 1.403 . S
C1980 C1981 1.404 . S
C1980 C1983 1.539 . S
C1981 C1977 1.408 . S
C1981 C1980 1.404 . S
C1981 H1993 0.930 . S
C1982 C1978 1.524 . S
C1982 H1994 0.956 . S
C1982 H1995 0.961 . S
C1982 H1996 0.961 . S
C1983 C1980 1.539 . S
C1983 H1997 0.958 . S
C1983 H1998 0.961 . S
C1983 H1999 0.960 . S
H1984 C1968 0.931 . S
H1985 C1973 0.929 . S
H1986 C1974 0.960 . S
H1987 C1974 0.962 . S
H1988 C1974 0.960 . S
H1989 C1975 0.961 . S
H1990 C1975 0.961 . S
H1991 C1975 0.961 . S
H1992 C1976 0.931 . S
H1993 C1981 0.930 . S
H1994 C1982 0.956 . S
H1995 C1982 0.961 . S
H1996 C1982 0.961 . S
H1997 C1983 0.958 . S
H1998 C1983 0.961 . S
H1999 C1983 0.960 . S
C2000 C2001 1.391 1_565 S
C2000 C2002 1.394 . S
C2000 H2016 0.931 . S
C2001 C2000 1.391 1_545 S
C2001 C2005 1.376 . S
C2002 C2000 1.394 . S
C2002 C2003 1.369 1_565 S
C2002 C2006 1.531 . S
C2003 C2002 1.369 1_545 S
C2003 C2004 1.410 . S
C2003 C2011 1.503 . S
C2004 C2003 1.410 . S
C2004 C2005 1.392 . S
C2004 C2007 1.511 . S
C2005 C2001 1.376 . S
C2005 C2004 1.392 . S
C2005 H2017 0.929 . S
C2006 C2002 1.531 . S
C2006 H2018 0.960 . S
C2006 H2019 0.962 . S
C2006 H2020 0.960 . S
C2007 C2004 1.511 . S
C2007 H2021 0.961 . S
C2007 H2022 0.961 . S
C2007 H2023 0.961 . S
C2008 C2009 1.370 . S
C2008 C2010 1.363 . S
C2008 H2024 0.931 . S
C2009 C2008 1.370 . S
C2009 C2013 1.408 . S
C2010 C2008 1.363 . S
C2010 C2011 1.370 . S
C2010 C2014 1.524 . S
C2011 C2003 1.503 . S
C2011 C2010 1.370 . S
C2011 C2012 1.403 . S
C2012 C2011 1.403 . S
C2012 C2013 1.404 . S
C2012 C2015 1.539 . S
C2013 C2009 1.408 . S
C2013 C2012 1.404 . S
C2013 H2025 0.930 . S
C2014 C2010 1.524 . S
C2014 H2026 0.956 1_545 S
C2014 H2027 0.961 . S
C2014 H2028 0.957 . S
C2015 C2012 1.539 . S
C2015 H2029 0.958 . S
C2015 H2030 0.961 . S
C2015 H2031 0.960 . S
H2016 C2000 0.931 . S
H2017 C2005 0.929 . S
H2018 C2006 0.960 . S
H2019 C2006 0.962 . S
H2020 C2006 0.960 . S
H2021 C2007 0.961 . S
H2022 C2007 0.961 . S
H2023 C2007 0.961 . S
H2024 C2008 0.931 . S
H2025 C2013 0.930 . S
H2026 C2014 0.956 1_565 S
H2027 C2014 0.961 . S
H2028 C2014 0.957 . S
H2029 C2015 0.958 . S
H2030 C2015 0.961 . S
H2031 C2015 0.960 . S
C2032 C2033 1.391 . S
C2032 C2034 1.394 . S
C2032 H2048 0.931 . S
C2033 C2032 1.391 . S
C2033 C2037 1.376 . S
C2034 C2032 1.394 . S
C2034 C2035 1.369 . S
C2034 C2038 1.531 . S
C2035 C2034 1.369 . S
C2035 C2036 1.410 . S
C2035 C2043 1.503 . S
C2036 C2035 1.410 . S
C2036 C2037 1.392 . S
C2036 C2039 1.511 . S
C2037 C2033 1.376 . S
C2037 C2036 1.392 . S
C2037 H2049 0.929 . S
C2038 C2034 1.531 . S
C2038 H2050 0.960 . S
C2038 H2051 0.962 . S
C2038 H2052 0.960 . S
C2039 C2036 1.511 . S
C2039 H2053 0.961 . S
C2039 H2054 0.961 . S
C2039 H2055 0.961 . S
C2040 C2041 1.370 . S
C2040 C2042 1.363 . S
C2040 H2056 0.931 . S
C2041 C2040 1.370 . S
C2041 C2045 1.408 . S
C2042 C2040 1.363 . S
C2042 C2043 1.370 . S
C2042 C2046 1.524 . S
C2043 C2035 1.503 . S
C2043 C2042 1.370 . S
C2043 C2044 1.403 . S
C2044 C2043 1.403 . S
C2044 C2045 1.404 . S
C2044 C2047 1.539 . S
C2045 C2041 1.408 . S
C2045 C2044 1.404 . S
C2045 H2057 0.930 . S
C2046 C2042 1.524 . S
C2046 H2058 0.956 . S
C2046 H2059 0.961 . S
C2046 H2060 0.961 . S
C2047 C2044 1.539 . S
C2047 H2061 0.958 . S
C2047 H2062 0.961 . S
C2047 H2063 0.960 . S
H2048 C2032 0.931 . S
H2049 C2037 0.929 . S
H2050 C2038 0.960 . S
H2051 C2038 0.962 . S
H2052 C2038 0.960 . S
H2053 C2039 0.961 . S
H2054 C2039 0.961 . S
H2055 C2039 0.961 . S
H2056 C2040 0.931 . S
H2057 C2045 0.930 . S
H2058 C2046 0.956 . S
H2059 C2046 0.961 . S
H2060 C2046 0.961 . S
H2061 C2047 0.958 . S
H2062 C2047 0.961 . S
H2063 C2047 0.960 . S
C2064 C2065 1.391 . S
C2064 C2066 1.394 . S
C2064 H2080 0.931 . S
C2065 C2064 1.391 . S
C2065 C2069 1.376 . S
C2066 C2064 1.394 . S
C2066 C2067 1.369 . S
C2066 C2070 1.531 . S
C2067 C2066 1.369 . S
C2067 C2068 1.410 . S
C2067 C2075 1.503 . S
C2068 C2067 1.410 . S
C2068 C2069 1.392 . S
C2068 C2071 1.511 1_545 S
C2069 C2065 1.376 . S
C2069 C2068 1.392 . S
C2069 H2081 0.929 1_545 S
C2070 C2066 1.531 . S
C2070 H2082 0.960 . S
C2070 H2083 0.962 . S
C2070 H2084 0.960 . S
C2071 C2068 1.511 1_565 S
C2071 H2085 0.961 . S
C2071 H2086 0.961 . S
C2071 H2087 0.961 1_565 S
C2072 C2073 1.370 . S
C2072 C2074 1.363 . S
C2072 H2088 0.931 . S
C2073 C2072 1.370 . S
C2073 C2077 1.408 . S
C2074 C2072 1.363 . S
C2074 C2075 1.370 . S
C2074 C2078 1.524 1_545 S
C2075 C2067 1.503 . S
C2075 C2074 1.370 . S
C2075 C2076 1.403 . S
C2076 C2075 1.403 . S
C2076 C2077 1.404 . S
C2076 C2079 1.539 . S
C2077 C2073 1.408 . S
C2077 C2076 1.404 . S
C2077 H2089 0.930 . S
C2078 C2074 1.524 1_565 S
C2078 H2090 0.956 . S
C2078 H2091 0.961 . S
C2078 H2092 0.961 . S
C2079 C2076 1.539 . S
C2079 H2093 0.958 . S
C2079 H2094 0.961 . S
C2079 H2095 0.960 . S
H2080 C2064 0.931 . S
H2081 C2069 0.929 1_565 S
H2082 C2070 0.960 . S
H2083 C2070 0.962 . S
H2084 C2070 0.960 . S
H2085 C2071 0.961 . S
H2086 C2071 0.961 . S
H2087 C2071 0.961 1_545 S
H2088 C2072 0.931 . S
H2089 C2077 0.930 . S
H2090 C2078 0.956 . S
H2091 C2078 0.961 . S
H2092 C2078 0.961 . S
H2093 C2079 0.958 . S
H2094 C2079 0.961 . S
H2095 C2079 0.960 . S
C2096 C2097 1.391 . S
C2096 C2098 1.394 . S
C2096 H2112 0.931 . S
C2097 C2096 1.391 . S
C2097 C2101 1.376 . S
C2098 C2096 1.394 . S
C2098 C2099 1.369 . S
C2098 C2102 1.531 . S
C2099 C2098 1.369 . S
C2099 C2100 1.410 . S
C2099 C2107 1.503 . S
C2100 C2099 1.410 . S
C2100 C2101 1.392 . S
C2100 C2103 1.511 . S
C2101 C2097 1.376 . S
C2101 C2100 1.392 . S
C2101 H2113 0.929 . S
C2102 C2098 1.531 . S
C2102 H2114 0.960 . S
C2102 H2115 0.962 . S
C2102 H2116 0.960 . S
C2103 C2100 1.511 . S
C2103 H2117 0.961 . S
C2103 H2118 0.961 . S
C2103 H2119 0.961 . S
C2104 C2105 1.370 . S
C2104 C2106 1.363 . S
C2104 H2120 0.931 . S
C2105 C2104 1.370 . S
C2105 C2109 1.408 . S
C2106 C2104 1.363 . S
C2106 C2107 1.370 . S
C2106 C2110 1.524 . S
C2107 C2099 1.503 . S
C2107 C2106 1.370 . S
C2107 C2108 1.403 . S
C2108 C2107 1.403 . S
C2108 C2109 1.404 . S
C2108 C2111 1.539 . S
C2109 C2105 1.408 . S
C2109 C2108 1.404 . S
C2109 H2121 0.930 . S
C2110 C2106 1.524 . S
C2110 H2122 0.956 . S
C2110 H2123 0.961 . S
C2110 H2124 0.961 . S
C2111 C2108 1.539 . S
C2111 H2125 0.958 . S
C2111 H2126 0.961 . S
C2111 H2127 0.960 . S
H2112 C2096 0.931 . S
H2113 C2101 0.929 . S
H2114 C2102 0.960 . S
H2115 C2102 0.962 . S
H2116 C2102 0.960 . S
H2117 C2103 0.961 . S
H2118 C2103 0.961 . S
H2119 C2103 0.961 . S
H2120 C2104 0.931 . S
H2121 C2109 0.930 . S
H2122 C2110 0.956 . S
H2123 C2110 0.961 . S
H2124 C2110 0.961 . S
H2125 C2111 0.958 . S
H2126 C2111 0.961 . S
H2127 C2111 0.960 . S
C2128 C2129 1.391 . S
C2128 C2130 1.394 . S
C2128 H2144 0.931 . S
C2129 C2128 1.391 . S
C2129 C2133 1.376 1_565 S
C2130 C2128 1.394 . S
C2130 C2131 1.369 1_565 S
C2130 C2134 1.531 . S
C2131 C2130 1.369 1_545 S
C2131 C2132 1.410 . S
C2131 C2139 1.503 . S
C2132 C2131 1.410 . S
C2132 C2133 1.392 . S
C2132 C2135 1.511 . S
C2133 C2129 1.376 1_545 S
C2133 C2132 1.392 . S
C2133 H2145 0.929 . S
C2134 C2130 1.531 . S
C2134 H2146 0.960 . S
C2134 H2147 0.962 . S
C2134 H2148 0.960 . S
C2135 C2132 1.511 . S
C2135 H2149 0.961 . S
C2135 H2150 0.961 . S
C2135 H2151 0.961 . S
C2136 C2137 1.370 . S
C2136 C2138 1.363 . S
C2136 H2152 0.931 . S
C2137 C2136 1.370 . S
C2137 C2141 1.408 . S
C2138 C2136 1.363 . S
C2138 C2139 1.370 . S
C2138 C2142 1.524 . S
C2139 C2131 1.503 . S
C2139 C2138 1.370 . S
C2139 C2140 1.403 . S
C2140 C2139 1.403 . S
C2140 C2141 1.404 . S
C2140 C2143 1.539 1_545 S
C2141 C2137 1.408 . S
C2141 C2140 1.404 . S
C2141 H2153 0.930 . S
C2142 C2138 1.524 . S
C2142 H2154 0.956 . S
C2142 H2155 0.961 . S
C2142 H2156 0.961 . S
C2143 C2140 1.539 1_565 S
C2143 H2157 0.958 . S
C2143 H2158 0.961 . S
C2143 H2159 0.960 . S
H2144 C2128 0.931 . S
H2145 C2133 0.929 . S
H2146 C2134 0.960 . S
H2147 C2134 0.962 . S
H2148 C2134 0.960 . S
H2149 C2135 0.961 . S
H2150 C2135 0.961 . S
H2151 C2135 0.961 . S
H2152 C2136 0.931 . S
H2153 C2141 0.930 . S
H2154 C2142 0.956 . S
H2155 C2142 0.961 . S
H2156 C2142 0.961 . S
H2157 C2143 0.958 . S
H2158 C2143 0.961 . S
H2159 C2143 0.960 . S
C2160 C2161 1.391 . S
C2160 C2162 1.394 . S
C2160 H2176 0.931 . S
C2161 C2160 1.391 . S
C2161 C2165 1.376 . S
C2162 C2160 1.394 . S
C2162 C2163 1.369 . S
C2162 C2166 1.531 . S
C2163 C2162 1.369 . S
C2163 C2164 1.410 . S
C2163 C2171 1.503 . S
C2164 C2163 1.410 . S
C2164 C2165 1.392 . S
C2164 C2167 1.511 . S
C2165 C2161 1.376 . S
C2165 C2164 1.392 . S
C2165 H2177 0.929 . S
C2166 C2162 1.531 . S
C2166 H2178 0.960 . S
C2166 H2179 0.962 . S
C2166 H2180 0.960 . S
C2167 C2164 1.511 . S
C2167 H2181 0.961 . S
C2167 H2182 0.961 . S
C2167 H2183 0.961 . S
C2168 C2169 1.370 . S
C2168 C2170 1.363 . S
C2168 H2184 0.931 . S
C2169 C2168 1.370 . S
C2169 C2173 1.408 . S
C2170 C2168 1.363 . S
C2170 C2171 1.370 . S
C2170 C2174 1.524 . S
C2171 C2163 1.503 . S
C2171 C2170 1.370 . S
C2171 C2172 1.403 . S
C2172 C2171 1.403 . S
C2172 C2173 1.404 . S
C2172 C2175 1.539 . S
C2173 C2169 1.408 . S
C2173 C2172 1.404 . S
C2173 H2185 0.930 . S
C2174 C2170 1.524 . S
C2174 H2186 0.956 . S
C2174 H2187 0.961 . S
C2174 H2188 0.961 . S
C2175 C2172 1.539 . S
C2175 H2189 0.958 . S
C2175 H2190 0.961 . S
C2175 H2191 0.960 . S
H2176 C2160 0.931 . S
H2177 C2165 0.929 . S
H2178 C2166 0.960 . S
H2179 C2166 0.962 . S
H2180 C2166 0.960 . S
H2181 C2167 0.961 . S
H2182 C2167 0.961 . S
H2183 C2167 0.961 . S
H2184 C2168 0.931 . S
H2185 C2173 0.930 . S
H2186 C2174 0.956 . S
H2187 C2174 0.961 . S
H2188 C2174 0.961 . S
H2189 C2175 0.958 . S
H2190 C2175 0.961 . S
H2191 C2175 0.960 . S
C2192 C2193 1.391 . S
C2192 C2194 1.394 . S
C2192 H2208 0.931 . S
C2193 C2192 1.391 . S
C2193 C2197 1.376 1_545 S
C2194 C2192 1.394 . S
C2194 C2195 1.369 1_545 S
C2194 C2198 1.531 . S
C2195 C2194 1.369 1_565 S
C2195 C2196 1.409 . S
C2195 C2203 1.503 . S
C2196 C2195 1.409 . S
C2196 C2197 1.392 . S
C2196 C2199 1.511 . S
C2197 C2193 1.376 1_565 S
C2197 C2196 1.392 . S
C2197 H2209 0.929 . S
C2198 C2194 1.531 . S
C2198 H2210 0.960 . S
C2198 H2211 0.962 1_545 S
C2198 H2212 0.960 . S
C2199 C2196 1.511 . S
C2199 H2213 0.961 . S
C2199 H2214 0.961 . S
C2199 H2215 0.961 1_565 S
C2200 C2201 1.370 . S
C2200 C2202 1.363 . S
C2200 H2216 0.931 . S
C2201 C2200 1.370 . S
C2201 C2205 1.408 1_565 S
C2202 C2200 1.363 . S
C2202 C2203 1.370 . S
C2202 C2206 1.524 . S
C2203 C2195 1.503 . S
C2203 C2202 1.370 . S
C2203 C2204 1.403 1_565 S
C2204 C2203 1.403 1_545 S
C2204 C2205 1.404 . S
C2204 C2207 1.539 . S
C2205 C2201 1.408 1_545 S
C2205 C2204 1.404 . S
C2205 H2217 0.930 . S
C2206 C2202 1.524 . S
C2206 H2218 0.956 . S
C2206 H2219 0.961 . S
C2206 H2220 0.961 . S
C2207 C2204 1.539 . S
C2207 H2221 0.958 . S
C2207 H2222 0.961 . S
C2207 H2223 0.960 . S
H2208 C2192 0.931 . S
H2209 C2197 0.929 . S
H2210 C2198 0.960 . S
H2211 C2198 0.962 1_565 S
H2212 C2198 0.960 . S
H2213 C2199 0.961 . S
H2214 C2199 0.961 . S
H2215 C2199 0.961 1_545 S
H2216 C2200 0.931 . S
H2217 C2205 0.930 . S
H2218 C2206 0.956 . S
H2219 C2206 0.961 . S
H2220 C2206 0.961 . S
H2221 C2207 0.958 . S
H2222 C2207 0.961 . S
H2223 C2207 0.960 . S
C2224 C2225 1.391 . S
C2224 C2226 1.394 . S
C2224 H2240 0.931 . S
C2225 C2224 1.391 . S
C2225 C2229 1.376 . S
C2226 C2224 1.394 . S
C2226 C2227 1.369 . S
C2226 C2230 1.531 . S
C2227 C2226 1.369 . S
C2227 C2228 1.410 . S
C2227 C2235 1.503 . S
C2228 C2227 1.410 . S
C2228 C2229 1.392 . S
C2228 C2231 1.511 . S
C2229 C2225 1.376 . S
C2229 C2228 1.392 . S
C2229 H2241 0.929 . S
C2230 C2226 1.531 . S
C2230 H2242 0.960 . S
C2230 H2243 0.962 . S
C2230 H2244 0.960 . S
C2231 C2228 1.511 . S
C2231 H2245 0.961 . S
C2231 H2246 0.961 . S
C2231 H2247 0.961 . S
C2232 C2233 1.370 . S
C2232 C2234 1.363 . S
C2232 H2248 0.931 . S
C2233 C2232 1.370 . S
C2233 C2237 1.408 . S
C2234 C2232 1.363 . S
C2234 C2235 1.370 . S
C2234 C2238 1.524 . S
C2235 C2227 1.503 . S
C2235 C2234 1.370 . S
C2235 C2236 1.403 . S
C2236 C2235 1.403 . S
C2236 C2237 1.404 . S
C2236 C2239 1.539 . S
C2237 C2233 1.408 . S
C2237 C2236 1.404 . S
C2237 H2249 0.930 . S
C2238 C2234 1.524 . S
C2238 H2250 0.956 . S
C2238 H2251 0.961 . S
C2238 H2252 0.961 . S
C2239 C2236 1.539 . S
C2239 H2253 0.958 . S
C2239 H2254 0.961 . S
C2239 H2255 0.960 . S
H2240 C2224 0.931 . S
H2241 C2229 0.929 . S
H2242 C2230 0.960 . S
H2243 C2230 0.962 . S
H2244 C2230 0.960 . S
H2245 C2231 0.961 . S
H2246 C2231 0.961 . S
H2247 C2231 0.961 . S
H2248 C2232 0.931 . S
H2249 C2237 0.930 . S
H2250 C2238 0.956 . S
H2251 C2238 0.961 . S
H2252 C2238 0.961 . S
H2253 C2239 0.958 . S
H2254 C2239 0.961 . S
H2255 C2239 0.960 . S
C2256 C2257 1.391 . S
C2256 C2258 1.394 . S
C2256 H2272 0.931 . S
C2257 C2256 1.391 . S
C2257 C2261 1.376 1_554 S
C2258 C2256 1.394 . S
C2258 C2259 1.369 1_554 S
C2258 C2262 1.531 . S
C2259 C2258 1.369 1_556 S
C2259 C2260 1.410 . S
C2259 C2267 1.503 . S
C2260 C2259 1.410 . S
C2260 C2261 1.392 . S
C2260 C2263 1.511 . S
C2261 C2257 1.376 1_556 S
C2261 C2260 1.392 . S
C2261 H2273 0.929 . S
C2262 C2258 1.531 . S
C2262 H2274 0.960 . S
C2262 H2275 0.962 . S
C2262 H2276 0.960 . S
C2263 C2260 1.511 . S
C2263 H2277 0.961 . S
C2263 H2278 0.961 . S
C2263 H2279 0.961 . S
C2264 C2265 1.370 . S
C2264 C2266 1.363 1_556 S
C2264 H2280 0.931 1_556 S
C2265 C2264 1.370 . S
C2265 C2269 1.408 . S
C2266 C2264 1.363 1_554 S
C2266 C2267 1.370 1_554 S
C2266 C2270 1.524 . S
C2267 C2259 1.503 . S
C2267 C2266 1.370 1_556 S
C2267 C2268 1.403 . S
C2268 C2267 1.403 . S
C2268 C2269 1.404 . S
C2268 C2271 1.539 . S
C2269 C2265 1.408 . S
C2269 C2268 1.404 . S
C2269 H2281 0.930 . S
C2270 C2266 1.524 . S
C2270 H2282 0.956 . S
C2270 H2283 0.961 . S
C2270 H2284 0.961 . S
C2271 C2268 1.539 . S
C2271 H2285 0.958 . S
C2271 H2286 0.961 . S
C2271 H2287 0.960 . S
H2272 C2256 0.931 . S
H2273 C2261 0.929 . S
H2274 C2262 0.960 . S
H2275 C2262 0.962 . S
H2276 C2262 0.960 . S
H2277 C2263 0.961 . S
H2278 C2263 0.961 . S
H2279 C2263 0.961 . S
H2280 C2264 0.931 1_554 S
H2281 C2269 0.930 . S
H2282 C2270 0.956 . S
H2283 C2270 0.961 . S
H2284 C2270 0.961 . S
H2285 C2271 0.958 . S
H2286 C2271 0.961 . S
H2287 C2271 0.960 . S
C2288 C2289 1.391 . S
C2288 C2290 1.394 . S
C2288 H2304 0.931 . S
C2289 C2288 1.391 . S
C2289 C2293 1.376 . S
C2290 C2288 1.394 . S
C2290 C2291 1.369 . S
C2290 C2294 1.527 1_554 S
C2291 C2290 1.369 . S
C2291 C2292 1.410 . S
C2291 C2299 1.503 . S
C2292 C2291 1.410 . S
C2292 C2293 1.392 . S
C2292 C2295 1.511 . S
C2293 C2289 1.376 . S
C2293 C2292 1.392 . S
C2293 H2305 0.929 . S
C2294 C2290 1.527 1_556 S
C2294 H2306 0.959 1_556 S
C2294 H2307 0.967 . S
C2294 H2308 0.961 . S
C2295 C2292 1.511 . S
C2295 H2309 0.961 . S
C2295 H2310 0.961 . S
C2295 H2311 0.961 . S
C2296 C2297 1.370 . S
C2296 C2298 1.363 . S
C2296 H2312 0.931 1_554 S
C2297 C2296 1.370 . S
C2297 C2301 1.408 . S
C2298 C2296 1.363 . S
C2298 C2299 1.370 . S
C2298 C2302 1.524 1_554 S
C2299 C2291 1.503 . S
C2299 C2298 1.370 . S
C2299 C2300 1.403 . S
C2300 C2299 1.403 . S
C2300 C2301 1.404 . S
C2300 C2303 1.539 . S
C2301 C2297 1.408 . S
C2301 C2300 1.404 . S
C2301 H2313 0.930 . S
C2302 C2298 1.524 1_556 S
C2302 H2314 0.956 . S
C2302 H2315 0.961 . S
C2302 H2316 0.961 . S
C2303 C2300 1.539 . S
C2303 H2317 0.958 . S
C2303 H2318 0.961 . S
C2303 H2319 0.960 . S
H2304 C2288 0.931 . S
H2305 C2293 0.929 . S
H2306 C2294 0.959 1_554 S
H2307 C2294 0.967 . S
H2308 C2294 0.961 . S
H2309 C2295 0.961 . S
H2310 C2295 0.961 . S
H2311 C2295 0.961 . S
H2312 C2296 0.931 1_556 S
H2313 C2301 0.930 . S
H2314 C2302 0.956 . S
H2315 C2302 0.961 . S
H2316 C2302 0.961 . S
H2317 C2303 0.958 . S
H2318 C2303 0.961 . S
H2319 C2303 0.960 . S
C2320 C2321 1.391 . S
C2320 C2322 1.394 . S
C2320 H2336 0.931 . S
C2321 C2320 1.391 . S
C2321 C2325 1.376 . S
C2322 C2320 1.394 . S
C2322 C2323 1.369 . S
C2322 C2326 1.531 . S
C2323 C2322 1.369 . S
C2323 C2324 1.410 . S
C2323 C2331 1.503 . S
C2324 C2323 1.410 . S
C2324 C2325 1.392 . S
C2324 C2327 1.511 . S
C2325 C2321 1.376 . S
C2325 C2324 1.392 . S
C2325 H2337 0.929 . S
C2326 C2322 1.531 . S
C2326 H2338 0.960 . S
C2326 H2339 0.962 . S
C2326 H2340 0.960 . S
C2327 C2324 1.511 . S
C2327 H2341 0.961 . S
C2327 H2342 0.961 . S
C2327 H2343 0.961 . S
C2328 C2329 1.370 . S
C2328 C2330 1.363 . S
C2328 H2344 0.931 . S
C2329 C2328 1.370 . S
C2329 C2333 1.408 . S
C2330 C2328 1.363 . S
C2330 C2331 1.370 . S
C2330 C2334 1.524 . S
C2331 C2323 1.503 . S
C2331 C2330 1.370 . S
C2331 C2332 1.403 . S
C2332 C2331 1.403 . S
C2332 C2333 1.404 . S
C2332 C2335 1.539 . S
C2333 C2329 1.408 . S
C2333 C2332 1.404 . S
C2333 H2345 0.930 . S
C2334 C2330 1.524 . S
C2334 H2346 0.956 . S
C2334 H2347 0.961 . S
C2334 H2348 0.961 . S
C2335 C2332 1.539 . S
C2335 H2349 0.958 . S
C2335 H2350 0.961 . S
C2335 H2351 0.960 . S
H2336 C2320 0.931 . S
H2337 C2325 0.929 . S
H2338 C2326 0.960 . S
H2339 C2326 0.962 . S
H2340 C2326 0.960 . S
H2341 C2327 0.961 . S
H2342 C2327 0.961 . S
H2343 C2327 0.961 . S
H2344 C2328 0.931 . S
H2345 C2333 0.930 . S
H2346 C2334 0.956 . S
H2347 C2334 0.961 . S
H2348 C2334 0.961 . S
H2349 C2335 0.958 . S
H2350 C2335 0.961 . S
H2351 C2335 0.960 . S
C2352 C2353 1.391 . S
C2352 C2354 1.394 . S
C2352 H2368 0.931 . S
C2353 C2352 1.391 . S
C2353 C2357 1.376 . S
C2354 C2352 1.394 . S
C2354 C2355 1.369 . S
C2354 C2358 1.531 . S
C2355 C2354 1.369 . S
C2355 C2356 1.410 . S
C2355 C2363 1.503 . S
C2356 C2355 1.410 . S
C2356 C2357 1.392 . S
C2356 C2359 1.511 . S
C2357 C2353 1.376 . S
C2357 C2356 1.392 . S
C2357 H2369 0.929 . S
C2358 C2354 1.531 . S
C2358 H2370 0.960 . S
C2358 H2371 0.962 . S
C2358 H2372 0.960 . S
C2359 C2356 1.511 . S
C2359 H2373 0.961 . S
C2359 H2374 0.961 . S
C2359 H2375 0.961 . S
C2360 C2361 1.370 . S
C2360 C2362 1.363 . S
C2360 H2376 0.931 . S
C2361 C2360 1.370 . S
C2361 C2365 1.408 . S
C2362 C2360 1.363 . S
C2362 C2363 1.370 . S
C2362 C2366 1.524 . S
C2363 C2355 1.503 . S
C2363 C2362 1.370 . S
C2363 C2364 1.403 . S
C2364 C2363 1.403 . S
C2364 C2365 1.404 . S
C2364 C2367 1.539 . S
C2365 C2361 1.408 . S
C2365 C2364 1.404 . S
C2365 H2377 0.930 . S
C2366 C2362 1.524 . S
C2366 H2378 0.956 . S
C2366 H2379 0.961 . S
C2366 H2380 0.961 . S
C2367 C2364 1.539 . S
C2367 H2381 0.958 . S
C2367 H2382 0.961 . S
C2367 H2383 0.960 . S
H2368 C2352 0.931 . S
H2369 C2357 0.929 . S
H2370 C2358 0.960 . S
H2371 C2358 0.962 . S
H2372 C2358 0.960 . S
H2373 C2359 0.961 . S
H2374 C2359 0.961 . S
H2375 C2359 0.961 . S
H2376 C2360 0.931 . S
H2377 C2365 0.930 . S
H2378 C2366 0.956 . S
H2379 C2366 0.961 . S
H2380 C2366 0.961 . S
H2381 C2367 0.958 . S
H2382 C2367 0.961 . S
H2383 C2367 0.960 . S
C2384 C2385 1.391 1_565 S
C2384 C2386 1.394 . S
C2384 H2400 0.931 . S
C2385 C2384 1.391 1_545 S
C2385 C2389 1.376 . S
C2386 C2384 1.394 . S
C2386 C2387 1.369 . S
C2386 C2390 1.531 . S
C2387 C2386 1.369 . S
C2387 C2388 1.410 . S
C2387 C2395 1.503 . S
C2388 C2387 1.410 . S
C2388 C2389 1.392 1_565 S
C2388 C2391 1.511 . S
C2389 C2385 1.376 . S
C2389 C2388 1.392 1_545 S
C2389 H2401 0.929 . S
C2390 C2386 1.531 . S
C2390 H2402 0.960 . S
C2390 H2403 0.962 . S
C2390 H2404 0.960 . S
C2391 C2388 1.511 . S
C2391 H2405 0.961 . S
C2391 H2406 0.961 . S
C2391 H2407 0.961 1_565 S
C2392 C2393 1.370 . S
C2392 C2394 1.363 . S
C2392 H2408 0.931 . S
C2393 C2392 1.370 . S
C2393 C2397 1.408 . S
C2394 C2392 1.363 . S
C2394 C2395 1.370 . S
C2394 C2398 1.524 . S
C2395 C2387 1.503 . S
C2395 C2394 1.370 . S
C2395 C2396 1.403 . S
C2396 C2395 1.403 . S
C2396 C2397 1.404 . S
C2396 C2399 1.539 . S
C2397 C2393 1.408 . S
C2397 C2396 1.404 . S
C2397 H2409 0.930 . S
C2398 C2394 1.524 . S
C2398 H2410 0.956 . S
C2398 H2411 0.961 . S
C2398 H2412 0.961 . S
C2399 C2396 1.539 . S
C2399 H2413 0.958 . S
C2399 H2414 0.962 1_565 S
C2399 H2415 0.960 1_565 S
H2400 C2384 0.931 . S
H2401 C2389 0.929 . S
H2402 C2390 0.960 . S
H2403 C2390 0.962 . S
H2404 C2390 0.960 . S
H2405 C2391 0.961 . S
H2406 C2391 0.961 . S
H2407 C2391 0.961 1_545 S
H2408 C2392 0.931 . S
H2409 C2397 0.930 . S
H2410 C2398 0.956 . S
H2411 C2398 0.961 . S
H2412 C2398 0.961 . S
H2413 C2399 0.958 . S
H2414 C2399 0.962 1_545 S
H2415 C2399 0.960 1_545 S
C2416 C2417 1.391 . S
C2416 C2418 1.394 . S
C2416 H2432 0.931 . S
C2417 C2416 1.391 . S
C2417 C2421 1.376 . S
C2418 C2416 1.394 . S
C2418 C2419 1.369 . S
C2418 C2422 1.531 . S
C2419 C2418 1.369 . S
C2419 C2420 1.410 . S
C2419 C2427 1.503 . S
C2420 C2419 1.410 . S
C2420 C2421 1.392 . S
C2420 C2423 1.511 . S
C2421 C2417 1.376 . S
C2421 C2420 1.392 . S
C2421 H2433 0.929 . S
C2422 C2418 1.531 . S
C2422 H2434 0.960 . S
C2422 H2435 0.962 . S
C2422 H2436 0.960 . S
C2423 C2420 1.511 . S
C2423 H2437 0.961 . S
C2423 H2438 0.961 . S
C2423 H2439 0.961 . S
C2424 C2425 1.370 . S
C2424 C2426 1.363 . S
C2424 H2440 0.931 . S
C2425 C2424 1.370 . S
C2425 C2429 1.408 . S
C2426 C2424 1.363 . S
C2426 C2427 1.370 . S
C2426 C2430 1.524 . S
C2427 C2419 1.503 . S
C2427 C2426 1.370 . S
C2427 C2428 1.403 . S
C2428 C2427 1.403 . S
C2428 C2429 1.404 . S
C2428 C2431 1.539 . S
C2429 C2425 1.408 . S
C2429 C2428 1.404 . S
C2429 H2441 0.930 . S
C2430 C2426 1.524 . S
C2430 H2442 0.956 . S
C2430 H2443 0.961 . S
C2430 H2444 0.961 . S
C2431 C2428 1.539 . S
C2431 H2445 0.958 . S
C2431 H2446 0.961 . S
C2431 H2447 0.960 . S
H2432 C2416 0.931 . S
H2433 C2421 0.929 . S
H2434 C2422 0.960 . S
H2435 C2422 0.962 . S
H2436 C2422 0.960 . S
H2437 C2423 0.961 . S
H2438 C2423 0.961 . S
H2439 C2423 0.961 . S
H2440 C2424 0.931 . S
H2441 C2429 0.930 . S
H2442 C2430 0.956 . S
H2443 C2430 0.961 . S
H2444 C2430 0.961 . S
H2445 C2431 0.958 . S
H2446 C2431 0.961 . S
H2447 C2431 0.960 . S
C2448 C2449 1.391 . S
C2448 C2450 1.394 . S
C2448 H2464 0.931 . S
C2449 C2448 1.391 . S
C2449 C2453 1.376 . S
C2450 C2448 1.394 . S
C2450 C2451 1.369 . S
C2450 C2454 1.531 . S
C2451 C2450 1.369 . S
C2451 C2452 1.410 . S
C2451 C2459 1.503 . S
C2452 C2451 1.410 . S
C2452 C2453 1.392 . S
C2452 C2455 1.511 . S
C2453 C2449 1.376 . S
C2453 C2452 1.392 . S
C2453 H2465 0.929 . S
C2454 C2450 1.531 . S
C2454 H2466 0.960 . S
C2454 H2467 0.962 . S
C2454 H2468 0.960 . S
C2455 C2452 1.511 . S
C2455 H2469 0.961 . S
C2455 H2470 0.961 . S
C2455 H2471 0.961 . S
C2456 C2457 1.370 . S
C2456 C2458 1.363 . S
C2456 H2472 0.931 . S
C2457 C2456 1.370 . S
C2457 C2461 1.408 . S
C2458 C2456 1.363 . S
C2458 C2459 1.370 . S
C2458 C2462 1.524 . S
C2459 C2451 1.503 . S
C2459 C2458 1.370 . S
C2459 C2460 1.403 . S
C2460 C2459 1.403 . S
C2460 C2461 1.404 . S
C2460 C2463 1.539 . S
C2461 C2457 1.408 . S
C2461 C2460 1.404 . S
C2461 H2473 0.930 . S
C2462 C2458 1.524 . S
C2462 H2474 0.956 . S
C2462 H2475 0.961 . S
C2462 H2476 0.961 . S
C2463 C2460 1.539 . S
C2463 H2477 0.958 . S
C2463 H2478 0.961 . S
C2463 H2479 0.960 . S
H2464 C2448 0.931 . S
H2465 C2453 0.929 . S
H2466 C2454 0.960 . S
H2467 C2454 0.962 . S
H2468 C2454 0.960 . S
H2469 C2455 0.961 . S
H2470 C2455 0.961 . S
H2471 C2455 0.961 . S
H2472 C2456 0.931 . S
H2473 C2461 0.930 . S
H2474 C2462 0.956 . S
H2475 C2462 0.961 . S
H2476 C2462 0.961 . S
H2477 C2463 0.958 . S
H2478 C2463 0.961 . S
H2479 C2463 0.960 . S
C2480 C2481 1.391 . S
C2480 C2482 1.394 . S
C2480 H2496 0.931 . S
C2481 C2480 1.391 . S
C2481 C2485 1.376 . S
C2482 C2480 1.394 . S
C2482 C2483 1.369 . S
C2482 C2486 1.531 . S
C2483 C2482 1.369 . S
C2483 C2484 1.410 . S
C2483 C2491 1.503 . S
C2484 C2483 1.410 . S
C2484 C2485 1.392 . S
C2484 C2487 1.511 . S
C2485 C2481 1.376 . S
C2485 C2484 1.392 . S
C2485 H2497 0.929 . S
C2486 C2482 1.531 . S
C2486 H2498 0.960 . S
C2486 H2499 0.962 . S
C2486 H2500 0.960 . S
C2487 C2484 1.511 . S
C2487 H2501 0.961 . S
C2487 H2502 0.961 . S
C2487 H2503 0.961 . S
C2488 C2489 1.370 . S
C2488 C2490 1.363 . S
C2488 H2504 0.931 . S
C2489 C2488 1.370 . S
C2489 C2493 1.408 . S
C2490 C2488 1.363 . S
C2490 C2491 1.370 . S
C2490 C2494 1.524 . S
C2491 C2483 1.503 . S
C2491 C2490 1.370 . S
C2491 C2492 1.403 . S
C2492 C2491 1.403 . S
C2492 C2493 1.404 . S
C2492 C2495 1.539 . S
C2493 C2489 1.408 . S
C2493 C2492 1.404 . S
C2493 H2505 0.930 . S
C2494 C2490 1.524 . S
C2494 H2506 0.956 . S
C2494 H2507 0.961 . S
C2494 H2508 0.961 . S
C2495 C2492 1.539 . S
C2495 H2509 0.958 . S
C2495 H2510 0.961 . S
C2495 H2511 0.960 . S
H2496 C2480 0.931 . S
H2497 C2485 0.929 . S
H2498 C2486 0.960 . S
H2499 C2486 0.962 . S
H2500 C2486 0.960 . S
H2501 C2487 0.961 . S
H2502 C2487 0.961 . S
H2503 C2487 0.961 . S
H2504 C2488 0.931 . S
H2505 C2493 0.930 . S
H2506 C2494 0.956 . S
H2507 C2494 0.961 . S
H2508 C2494 0.961 . S
H2509 C2495 0.958 . S
H2510 C2495 0.961 . S
H2511 C2495 0.960 . S
C2512 C2513 1.391 . S
C2512 C2514 1.394 . S
C2512 H2528 0.931 . S
C2513 C2512 1.391 . S
C2513 C2517 1.376 . S
C2514 C2512 1.394 . S
C2514 C2515 1.369 . S
C2514 C2518 1.531 . S
C2515 C2514 1.369 . S
C2515 C2516 1.410 . S
C2515 C2523 1.503 . S
C2516 C2515 1.410 . S
C2516 C2517 1.392 . S
C2516 C2519 1.511 . S
C2517 C2513 1.376 . S
C2517 C2516 1.392 . S
C2517 H2529 0.929 . S
C2518 C2514 1.531 . S
C2518 H2530 0.960 . S
C2518 H2531 0.962 . S
C2518 H2532 0.960 . S
C2519 C2516 1.511 . S
C2519 H2533 0.961 . S
C2519 H2534 0.961 . S
C2519 H2535 0.961 . S
C2520 C2521 1.370 . S
C2520 C2522 1.363 . S
C2520 H2536 0.931 . S
C2521 C2520 1.370 . S
C2521 C2525 1.408 . S
C2522 C2520 1.363 . S
C2522 C2523 1.370 . S
C2522 C2526 1.524 . S
C2523 C2515 1.503 . S
C2523 C2522 1.370 . S
C2523 C2524 1.403 . S
C2524 C2523 1.403 . S
C2524 C2525 1.404 . S
C2524 C2527 1.539 . S
C2525 C2521 1.408 . S
C2525 C2524 1.404 . S
C2525 H2537 0.930 . S
C2526 C2522 1.524 . S
C2526 H2538 0.956 . S
C2526 H2539 0.961 . S
C2526 H2540 0.961 . S
C2527 C2524 1.539 . S
C2527 H2541 0.958 . S
C2527 H2542 0.961 . S
C2527 H2543 0.960 . S
H2528 C2512 0.931 . S
H2529 C2517 0.929 . S
H2530 C2518 0.960 . S
H2531 C2518 0.962 . S
H2532 C2518 0.960 . S
H2533 C2519 0.961 . S
H2534 C2519 0.961 . S
H2535 C2519 0.961 . S
H2536 C2520 0.931 . S
H2537 C2525 0.930 . S
H2538 C2526 0.956 . S
H2539 C2526 0.961 . S
H2540 C2526 0.961 . S
H2541 C2527 0.958 . S
H2542 C2527 0.961 . S
H2543 C2527 0.960 . S
C2544 C2545 1.391 . S
C2544 C2546 1.394 . S
C2544 H2560 0.931 . S
C2545 C2544 1.391 . S
C2545 C2549 1.376 . S
C2546 C2544 1.394 . S
C2546 C2547 1.369 . S
C2546 C2550 1.531 . S
C2547 C2546 1.369 . S
C2547 C2548 1.410 . S
C2547 C2555 1.503 . S
C2548 C2547 1.410 . S
C2548 C2549 1.392 . S
C2548 C2551 1.511 . S
C2549 C2545 1.376 . S
C2549 C2548 1.392 . S
C2549 H2561 0.929 . S
C2550 C2546 1.531 . S
C2550 H2562 0.960 . S
C2550 H2563 0.962 . S
C2550 H2564 0.960 . S
C2551 C2548 1.511 . S
C2551 H2565 0.961 . S
C2551 H2566 0.961 . S
C2551 H2567 0.961 . S
C2552 C2553 1.370 . S
C2552 C2554 1.363 . S
C2552 H2568 0.931 . S
C2553 C2552 1.370 . S
C2553 C2557 1.408 . S
C2554 C2552 1.363 . S
C2554 C2555 1.370 . S
C2554 C2558 1.524 . S
C2555 C2547 1.503 . S
C2555 C2554 1.370 . S
C2555 C2556 1.403 . S
C2556 C2555 1.403 . S
C2556 C2557 1.404 . S
C2556 C2559 1.539 . S
C2557 C2553 1.408 . S
C2557 C2556 1.404 . S
C2557 H2569 0.930 . S
C2558 C2554 1.524 . S
C2558 H2570 0.956 . S
C2558 H2571 0.961 . S
C2558 H2572 0.961 . S
C2559 C2556 1.539 . S
C2559 H2573 0.958 . S
C2559 H2574 0.961 . S
C2559 H2575 0.960 . S
H2560 C2544 0.931 . S
H2561 C2549 0.929 . S
H2562 C2550 0.960 . S
H2563 C2550 0.962 . S
H2564 C2550 0.960 . S
H2565 C2551 0.961 . S
H2566 C2551 0.961 . S
H2567 C2551 0.961 . S
H2568 C2552 0.931 . S
H2569 C2557 0.930 . S
H2570 C2558 0.956 . S
H2571 C2558 0.961 . S
H2572 C2558 0.961 . S
H2573 C2559 0.958 . S
H2574 C2559 0.961 . S
H2575 C2559 0.960 . S
C2576 C2577 1.391 . S
C2576 C2578 1.394 . S
C2576 H2592 0.931 . S
C2577 C2576 1.391 . S
C2577 C2581 1.376 . S
C2578 C2576 1.394 . S
C2578 C2579 1.369 . S
C2578 C2582 1.531 . S
C2579 C2578 1.369 . S
C2579 C2580 1.410 . S
C2579 C2587 1.503 . S
C2580 C2579 1.410 . S
C2580 C2581 1.392 . S
C2580 C2583 1.514 1_556 S
C2581 C2577 1.376 . S
C2581 C2580 1.392 . S
C2581 H2593 0.929 . S
C2582 C2578 1.531 . S
C2582 H2594 0.960 . S
C2582 H2595 0.962 . S
C2582 H2596 0.960 . S
C2583 C2580 1.514 1_554 S
C2583 H2597 0.958 . S
C2583 H2598 0.960 . S
C2583 H2599 0.961 1_454 S
C2584 C2585 1.370 1_554 S
C2584 C2586 1.363 1_554 S
C2584 H2600 0.931 . S
C2585 C2584 1.370 1_556 S
C2585 C2589 1.409 . S
C2586 C2584 1.363 1_556 S
C2586 C2587 1.370 . S
C2586 C2590 1.524 1_556 S
C2587 C2579 1.503 . S
C2587 C2586 1.370 . S
C2587 C2588 1.403 . S
C2588 C2587 1.403 . S
C2588 C2589 1.404 . S
C2588 C2591 1.539 1_455 S
C2589 C2585 1.409 . S
C2589 C2588 1.404 . S
C2589 H2601 0.930 . S
C2590 C2586 1.524 1_554 S
C2590 H2602 0.956 1_554 S
C2590 H2603 0.961 . S
C2590 H2604 0.961 . S
C2591 C2588 1.539 1_655 S
C2591 H2605 0.957 . S
C2591 H2606 0.961 . S
C2591 H2607 0.960 . S
H2592 C2576 0.931 . S
H2593 C2581 0.929 . S
H2594 C2582 0.960 . S
H2595 C2582 0.962 . S
H2596 C2582 0.960 . S
H2597 C2583 0.958 . S
H2598 C2583 0.960 . S
H2599 C2583 0.961 1_656 S
H2600 C2584 0.931 . S
H2601 C2589 0.930 . S
H2602 C2590 0.956 1_556 S
H2603 C2590 0.961 . S
H2604 C2590 0.961 . S
H2605 C2591 0.957 . S
H2606 C2591 0.961 . S
H2607 C2591 0.960 . S
C2608 C2609 1.391 . S
C2608 C2610 1.394 . S
C2608 H2624 0.931 . S
C2609 C2608 1.391 . S
C2609 C2613 1.414 . S
C2610 C2608 1.394 . S
C2610 C2611 1.369 1_455 S
C2610 C2614 1.531 . S
C2611 C2610 1.369 1_655 S
C2611 C2612 1.410 . S
C2611 C2619 1.503 . S
C2612 C2611 1.410 . S
C2612 C2613 1.345 1_655 S
C2612 C2615 1.511 . S
C2613 C2609 1.414 . S
C2613 C2612 1.345 1_455 S
C2613 H2625 0.933 . S
C2614 C2610 1.531 . S
C2614 H2626 0.960 1_455 S
C2614 H2627 0.962 . S
C2614 H2628 0.960 . S
C2615 C2612 1.511 . S
C2615 H2629 0.961 . S
C2615 H2630 0.961 . S
C2615 H2631 0.961 . S
C2616 C2617 1.370 . S
C2616 C2618 1.363 . S
C2616 H2632 0.931 . S
C2617 C2616 1.370 . S
C2617 C2621 1.408 . S
C2618 C2616 1.363 . S
C2618 C2619 1.370 . S
C2618 C2622 1.524 . S
C2619 C2611 1.503 . S
C2619 C2618 1.370 . S
C2619 C2620 1.403 . S
C2620 C2619 1.403 . S
C2620 C2621 1.404 . S
C2620 C2623 1.539 . S
C2621 C2617 1.408 . S
C2621 C2620 1.404 . S
C2621 H2633 0.930 . S
C2622 C2618 1.524 . S
C2622 H2634 0.956 . S
C2622 H2635 0.961 . S
C2622 H2636 0.961 . S
C2623 C2620 1.539 . S
C2623 H2637 0.958 . S
C2623 H2638 0.961 . S
C2623 H2639 0.960 . S
H2624 C2608 0.931 . S
H2625 C2613 0.933 . S
H2626 C2614 0.960 1_655 S
H2627 C2614 0.962 . S
H2628 C2614 0.960 . S
H2629 C2615 0.961 . S
H2630 C2615 0.961 . S
H2631 C2615 0.961 . S
H2632 C2616 0.931 . S
H2633 C2621 0.930 . S
H2634 C2622 0.956 . S
H2635 C2622 0.961 . S
H2636 C2622 0.961 . S
H2637 C2623 0.958 . S
H2638 C2623 0.961 . S
H2639 C2623 0.960 . S
C2640 C2641 1.391 . S
C2640 C2642 1.394 . S
C2640 H2656 0.931 . S
C2641 C2640 1.391 . S
C2641 C2645 1.376 . S
C2642 C2640 1.394 . S
C2642 C2643 1.369 . S
C2642 C2646 1.531 . S
C2643 C2642 1.369 . S
C2643 C2644 1.410 . S
C2643 C2651 1.503 . S
C2644 C2643 1.410 . S
C2644 C2645 1.392 . S
C2644 C2647 1.511 . S
C2645 C2641 1.376 . S
C2645 C2644 1.392 . S
C2645 H2657 0.929 . S
C2646 C2642 1.531 . S
C2646 H2658 0.960 . S
C2646 H2659 0.962 . S
C2646 H2660 0.960 . S
C2647 C2644 1.511 . S
C2647 H2661 0.961 . S
C2647 H2662 0.961 . S
C2647 H2663 0.961 . S
C2648 C2649 1.370 . S
C2648 C2650 1.363 . S
C2648 H2664 0.931 . S
C2649 C2648 1.370 . S
C2649 C2653 1.408 . S
C2650 C2648 1.363 . S
C2650 C2651 1.370 . S
C2650 C2654 1.524 . S
C2651 C2643 1.503 . S
C2651 C2650 1.370 . S
C2651 C2652 1.403 . S
C2652 C2651 1.403 . S
C2652 C2653 1.404 . S
C2652 C2655 1.539 . S
C2653 C2649 1.408 . S
C2653 C2652 1.404 . S
C2653 H2665 0.930 . S
C2654 C2650 1.524 . S
C2654 H2666 0.956 . S
C2654 H2667 0.961 . S
C2654 H2668 0.961 . S
C2655 C2652 1.539 . S
C2655 H2669 0.958 . S
C2655 H2670 0.961 . S
C2655 H2671 0.960 . S
H2656 C2640 0.931 . S
H2657 C2645 0.929 . S
H2658 C2646 0.960 . S
H2659 C2646 0.962 . S
H2660 C2646 0.960 . S
H2661 C2647 0.961 . S
H2662 C2647 0.961 . S
H2663 C2647 0.961 . S
H2664 C2648 0.931 . S
H2665 C2653 0.930 . S
H2666 C2654 0.956 . S
H2667 C2654 0.961 . S
H2668 C2654 0.961 . S
H2669 C2655 0.958 . S
H2670 C2655 0.961 . S
H2671 C2655 0.960 . S
C2672 C2673 1.391 . S
C2672 C2674 1.394 . S
C2672 H2688 0.931 . S
C2673 C2672 1.391 . S
C2673 C2677 1.376 . S
C2674 C2672 1.394 . S
C2674 C2675 1.369 . S
C2674 C2678 1.531 . S
C2675 C2674 1.369 . S
C2675 C2676 1.410 . S
C2675 C2683 1.503 1_455 S
C2676 C2675 1.410 . S
C2676 C2677 1.392 . S
C2676 C2679 1.511 1_455 S
C2677 C2673 1.376 . S
C2677 C2676 1.392 . S
C2677 H2689 0.929 . S
C2678 C2674 1.531 . S
C2678 H2690 0.960 . S
C2678 H2691 0.962 . S
C2678 H2692 0.960 . S
C2679 C2676 1.511 1_655 S
C2679 H2693 0.961 . S
C2679 H2694 0.961 . S
C2679 H2695 0.961 . S
C2680 C2681 1.370 . S
C2680 C2682 1.363 . S
C2680 H2696 0.931 . S
C2681 C2680 1.370 . S
C2681 C2685 1.408 . S
C2682 C2680 1.363 . S
C2682 C2683 1.370 . S
C2682 C2686 1.524 . S
C2683 C2675 1.503 1_655 S
C2683 C2682 1.370 . S
C2683 C2684 1.403 . S
C2684 C2683 1.403 . S
C2684 C2685 1.404 . S
C2684 C2687 1.539 . S
C2685 C2681 1.408 . S
C2685 C2684 1.404 . S
C2685 H2697 0.930 . S
C2686 C2682 1.524 . S
C2686 H2698 0.956 . S
C2686 H2699 0.961 . S
C2686 H2700 0.961 . S
C2687 C2684 1.539 . S
C2687 H2701 0.958 . S
C2687 H2702 0.961 . S
C2687 H2703 0.960 . S
H2688 C2672 0.931 . S
H2689 C2677 0.929 . S
H2690 C2678 0.960 . S
H2691 C2678 0.962 . S
H2692 C2678 0.960 . S
H2693 C2679 0.961 . S
H2694 C2679 0.961 . S
H2695 C2679 0.961 . S
H2696 C2680 0.931 . S
H2697 C2685 0.930 . S
H2698 C2686 0.956 . S
H2699 C2686 0.961 . S
H2700 C2686 0.961 . S
H2701 C2687 0.958 . S
H2702 C2687 0.961 . S
H2703 C2687 0.960 . S
C2704 C2705 1.391 . S
C2704 C2706 1.394 . S
C2704 H2720 0.931 . S
C2705 C2704 1.391 . S
C2705 C2709 1.376 1_655 S
C2706 C2704 1.394 . S
C2706 C2707 1.369 1_655 S
C2706 C2710 1.531 . S
C2707 C2706 1.369 1_455 S
C2707 C2708 1.410 . S
C2707 C2715 1.503 . S
C2708 C2707 1.410 . S
C2708 C2709 1.392 . S
C2708 C2711 1.511 . S
C2709 C2705 1.376 1_455 S
C2709 C2708 1.392 . S
C2709 H2721 0.929 . S
C2710 C2706 1.531 . S
C2710 H2722 0.960 . S
C2710 H2723 0.962 . S
C2710 H2724 0.960 . S
C2711 C2708 1.511 . S
C2711 H2725 0.961 . S
C2711 H2726 0.961 . S
C2711 H2727 0.961 . S
C2712 C2713 1.370 . S
C2712 C2714 1.363 . S
C2712 H2728 0.931 . S
C2713 C2712 1.370 . S
C2713 C2717 1.408 . S
C2714 C2712 1.363 . S
C2714 C2715 1.370 . S
C2714 C2718 1.524 . S
C2715 C2707 1.503 . S
C2715 C2714 1.370 . S
C2715 C2716 1.403 . S
C2716 C2715 1.403 . S
C2716 C2717 1.404 . S
C2716 C2719 1.539 . S
C2717 C2713 1.408 . S
C2717 C2716 1.404 . S
C2717 H2729 0.930 . S
C2718 C2714 1.524 . S
C2718 H2730 0.956 1_455 S
C2718 H2731 0.961 . S
C2718 H2732 0.961 . S
C2719 C2716 1.539 . S
C2719 H2733 0.958 . S
C2719 H2734 0.961 . S
C2719 H2735 0.960 . S
H2720 C2704 0.931 . S
H2721 C2709 0.929 . S
H2722 C2710 0.960 . S
H2723 C2710 0.962 . S
H2724 C2710 0.960 . S
H2725 C2711 0.961 . S
H2726 C2711 0.961 . S
H2727 C2711 0.961 . S
H2728 C2712 0.931 . S
H2729 C2717 0.930 . S
H2730 C2718 0.956 1_655 S
H2731 C2718 0.961 . S
H2732 C2718 0.961 . S
H2733 C2719 0.958 . S
H2734 C2719 0.961 . S
H2735 C2719 0.960 . S
C2736 C2737 1.391 . S
C2736 C2738 1.394 . S
C2736 H2752 0.931 . S
C2737 C2736 1.391 . S
C2737 C2741 1.376 . S
C2738 C2736 1.394 . S
C2738 C2739 1.369 . S
C2738 C2742 1.531 . S
C2739 C2738 1.369 . S
C2739 C2740 1.410 . S
C2739 C2747 1.503 . S
C2740 C2739 1.410 . S
C2740 C2741 1.392 . S
C2740 C2743 1.511 . S
C2741 C2737 1.376 . S
C2741 C2740 1.392 . S
C2741 H2753 0.929 . S
C2742 C2738 1.531 . S
C2742 H2754 0.960 . S
C2742 H2755 0.962 . S
C2742 H2756 0.960 . S
C2743 C2740 1.511 . S
C2743 H2757 0.961 . S
C2743 H2758 0.961 . S
C2743 H2759 0.961 . S
C2744 C2745 1.370 . S
C2744 C2746 1.363 . S
C2744 H2760 0.931 . S
C2745 C2744 1.370 . S
C2745 C2749 1.408 . S
C2746 C2744 1.363 . S
C2746 C2747 1.370 . S
C2746 C2750 1.524 . S
C2747 C2739 1.503 . S
C2747 C2746 1.370 . S
C2747 C2748 1.403 . S
C2748 C2747 1.403 . S
C2748 C2749 1.404 . S
C2748 C2751 1.539 . S
C2749 C2745 1.408 . S
C2749 C2748 1.404 . S
C2749 H2761 0.930 . S
C2750 C2746 1.524 . S
C2750 H2762 0.956 . S
C2750 H2763 0.961 . S
C2750 H2764 0.961 . S
C2751 C2748 1.539 . S
C2751 H2765 0.958 . S
C2751 H2766 0.961 . S
C2751 H2767 0.960 . S
H2752 C2736 0.931 . S
H2753 C2741 0.929 . S
H2754 C2742 0.960 . S
H2755 C2742 0.962 . S
H2756 C2742 0.960 . S
H2757 C2743 0.961 . S
H2758 C2743 0.961 . S
H2759 C2743 0.961 . S
H2760 C2744 0.931 . S
H2761 C2749 0.930 . S
H2762 C2750 0.956 . S
H2763 C2750 0.961 . S
H2764 C2750 0.961 . S
H2765 C2751 0.958 . S
H2766 C2751 0.961 . S
H2767 C2751 0.960 . S
C2768 C2769 1.391 . S
C2768 C2770 1.394 . S
C2768 H2784 0.931 . S
C2769 C2768 1.391 . S
C2769 C2773 1.376 . S
C2770 C2768 1.394 . S
C2770 C2771 1.369 . S
C2770 C2774 1.531 . S
C2771 C2770 1.369 . S
C2771 C2772 1.410 . S
C2771 C2779 1.503 . S
C2772 C2771 1.410 . S
C2772 C2773 1.392 . S
C2772 C2775 1.511 . S
C2773 C2769 1.376 . S
C2773 C2772 1.392 . S
C2773 H2785 0.929 . S
C2774 C2770 1.531 . S
C2774 H2786 0.960 . S
C2774 H2787 0.962 . S
C2774 H2788 0.960 . S
C2775 C2772 1.511 . S
C2775 H2789 0.961 . S
C2775 H2790 0.961 . S
C2775 H2791 0.961 . S
C2776 C2777 1.370 . S
C2776 C2778 1.363 . S
C2776 H2792 0.931 . S
C2777 C2776 1.370 . S
C2777 C2781 1.408 . S
C2778 C2776 1.363 . S
C2778 C2779 1.370 . S
C2778 C2782 1.524 . S
C2779 C2771 1.503 . S
C2779 C2778 1.370 . S
C2779 C2780 1.403 . S
C2780 C2779 1.403 . S
C2780 C2781 1.404 . S
C2780 C2783 1.539 . S
C2781 C2777 1.408 . S
C2781 C2780 1.404 . S
C2781 H2793 0.930 . S
C2782 C2778 1.524 . S
C2782 H2794 0.956 . S
C2782 H2795 0.961 . S
C2782 H2796 0.961 . S
C2783 C2780 1.539 . S
C2783 H2797 0.958 . S
C2783 H2798 0.961 . S
C2783 H2799 0.960 . S
H2784 C2768 0.931 . S
H2785 C2773 0.929 . S
H2786 C2774 0.960 . S
H2787 C2774 0.962 . S
H2788 C2774 0.960 . S
H2789 C2775 0.961 . S
H2790 C2775 0.961 . S
H2791 C2775 0.961 . S
H2792 C2776 0.931 . S
H2793 C2781 0.930 . S
H2794 C2782 0.956 . S
H2795 C2782 0.961 . S
H2796 C2782 0.961 . S
H2797 C2783 0.958 . S
H2798 C2783 0.961 . S
H2799 C2783 0.960 . S
C2800 C2801 1.391 . S
C2800 C2802 1.394 . S
C2800 H2816 0.931 . S
C2801 C2800 1.391 . S
C2801 C2805 1.376 . S
C2802 C2800 1.394 . S
C2802 C2803 1.369 . S
C2802 C2806 1.531 . S
C2803 C2802 1.369 . S
C2803 C2804 1.410 . S
C2803 C2811 1.503 . S
C2804 C2803 1.410 . S
C2804 C2805 1.392 . S
C2804 C2807 1.511 . S
C2805 C2801 1.376 . S
C2805 C2804 1.392 . S
C2805 H2817 0.929 . S
C2806 C2802 1.531 . S
C2806 H2818 0.960 . S
C2806 H2819 0.962 . S
C2806 H2820 0.960 . S
C2807 C2804 1.511 . S
C2807 H2821 0.961 . S
C2807 H2822 0.961 . S
C2807 H2823 0.961 . S
C2808 C2809 1.370 . S
C2808 C2810 1.363 . S
C2808 H2824 0.931 . S
C2809 C2808 1.370 . S
C2809 C2813 1.408 . S
C2810 C2808 1.363 . S
C2810 C2811 1.370 . S
C2810 C2814 1.524 . S
C2811 C2803 1.503 . S
C2811 C2810 1.370 . S
C2811 C2812 1.403 . S
C2812 C2811 1.403 . S
C2812 C2813 1.404 . S
C2812 C2815 1.539 . S
C2813 C2809 1.408 . S
C2813 C2812 1.404 . S
C2813 H2825 0.930 . S
C2814 C2810 1.524 . S
C2814 H2826 0.956 . S
C2814 H2827 0.961 . S
C2814 H2828 0.961 . S
C2815 C2812 1.539 . S
C2815 H2829 0.958 . S
C2815 H2830 0.961 . S
C2815 H2831 0.960 . S
H2816 C2800 0.931 . S
H2817 C2805 0.929 . S
H2818 C2806 0.960 . S
H2819 C2806 0.962 . S
H2820 C2806 0.960 . S
H2821 C2807 0.961 . S
H2822 C2807 0.961 . S
H2823 C2807 0.961 . S
H2824 C2808 0.931 . S
H2825 C2813 0.930 . S
H2826 C2814 0.956 . S
H2827 C2814 0.961 . S
H2828 C2814 0.961 . S
H2829 C2815 0.958 . S
H2830 C2815 0.961 . S
H2831 C2815 0.960 . S
C2832 C2833 1.391 . S
C2832 C2834 1.394 . S
C2832 H2848 0.931 . S
C2833 C2832 1.391 . S
C2833 C2837 1.376 . S
C2834 C2832 1.394 . S
C2834 C2835 1.369 . S
C2834 C2838 1.531 . S
C2835 C2834 1.369 . S
C2835 C2836 1.410 . S
C2835 C2843 1.503 . S
C2836 C2835 1.410 . S
C2836 C2837 1.392 . S
C2836 C2839 1.511 . S
C2837 C2833 1.376 . S
C2837 C2836 1.392 . S
C2837 H2849 0.929 . S
C2838 C2834 1.531 . S
C2838 H2850 0.960 . S
C2838 H2851 0.962 . S
C2838 H2852 0.960 . S
C2839 C2836 1.511 . S
C2839 H2853 0.961 . S
C2839 H2854 0.961 . S
C2839 H2855 0.961 . S
C2840 C2841 1.370 . S
C2840 C2842 1.363 . S
C2840 H2856 0.931 . S
C2841 C2840 1.370 . S
C2841 C2845 1.408 . S
C2842 C2840 1.363 . S
C2842 C2843 1.370 . S
C2842 C2846 1.524 . S
C2843 C2835 1.503 . S
C2843 C2842 1.370 . S
C2843 C2844 1.403 . S
C2844 C2843 1.403 . S
C2844 C2845 1.404 . S
C2844 C2847 1.539 . S
C2845 C2841 1.408 . S
C2845 C2844 1.404 . S
C2845 H2857 0.930 . S
C2846 C2842 1.524 . S
C2846 H2858 0.956 . S
C2846 H2859 0.961 . S
C2846 H2860 0.961 . S
C2847 C2844 1.539 . S
C2847 H2861 0.958 . S
C2847 H2862 0.961 . S
C2847 H2863 0.960 . S
H2848 C2832 0.931 . S
H2849 C2837 0.929 . S
H2850 C2838 0.960 . S
H2851 C2838 0.962 . S
H2852 C2838 0.960 . S
H2853 C2839 0.961 . S
H2854 C2839 0.961 . S
H2855 C2839 0.961 . S
H2856 C2840 0.931 . S
H2857 C2845 0.930 . S
H2858 C2846 0.956 . S
H2859 C2846 0.961 . S
H2860 C2846 0.961 . S
H2861 C2847 0.958 . S
H2862 C2847 0.961 . S
H2863 C2847 0.960 . S
C2864 C2865 1.391 . S
C2864 C2866 1.394 . S
C2864 H2880 0.931 . S
C2865 C2864 1.391 . S
C2865 C2869 1.376 . S
C2866 C2864 1.394 . S
C2866 C2867 1.369 . S
C2866 C2870 1.531 . S
C2867 C2866 1.369 . S
C2867 C2868 1.410 . S
C2867 C2875 1.503 . S
C2868 C2867 1.410 . S
C2868 C2869 1.392 . S
C2868 C2871 1.511 . S
C2869 C2865 1.376 . S
C2869 C2868 1.392 . S
C2869 H2881 0.929 . S
C2870 C2866 1.531 . S
C2870 H2882 0.960 . S
C2870 H2883 0.962 . S
C2870 H2884 0.960 . S
C2871 C2868 1.511 . S
C2871 H2885 0.961 . S
C2871 H2886 0.961 . S
C2871 H2887 0.961 . S
C2872 C2873 1.370 . S
C2872 C2874 1.363 . S
C2872 H2888 0.931 . S
C2873 C2872 1.370 . S
C2873 C2877 1.408 . S
C2874 C2872 1.363 . S
C2874 C2875 1.370 . S
C2874 C2878 1.524 . S
C2875 C2867 1.503 . S
C2875 C2874 1.370 . S
C2875 C2876 1.403 . S
C2876 C2875 1.403 . S
C2876 C2877 1.404 . S
C2876 C2879 1.539 . S
C2877 C2873 1.408 . S
C2877 C2876 1.404 . S
C2877 H2889 0.930 . S
C2878 C2874 1.524 . S
C2878 H2890 0.956 . S
C2878 H2891 0.961 . S
C2878 H2892 0.961 . S
C2879 C2876 1.539 . S
C2879 H2893 0.958 . S
C2879 H2894 0.961 . S
C2879 H2895 0.960 . S
H2880 C2864 0.931 . S
H2881 C2869 0.929 . S
H2882 C2870 0.960 . S
H2883 C2870 0.962 . S
H2884 C2870 0.960 . S
H2885 C2871 0.961 . S
H2886 C2871 0.961 . S
H2887 C2871 0.961 . S
H2888 C2872 0.931 . S
H2889 C2877 0.930 . S
H2890 C2878 0.956 . S
H2891 C2878 0.961 . S
H2892 C2878 0.961 . S
H2893 C2879 0.958 . S
H2894 C2879 0.961 . S
H2895 C2879 0.960 . S
C2896 C2897 1.391 . S
C2896 C2898 1.394 . S
C2896 H2912 0.931 . S
C2897 C2896 1.391 . S
C2897 C2901 1.376 . S
C2898 C2896 1.394 . S
C2898 C2899 1.369 . S
C2898 C2902 1.531 . S
C2899 C2898 1.369 . S
C2899 C2900 1.410 . S
C2899 C2907 1.503 . S
C2900 C2899 1.410 . S
C2900 C2901 1.392 . S
C2900 C2903 1.511 . S
C2901 C2897 1.376 . S
C2901 C2900 1.392 . S
C2901 H2913 0.929 . S
C2902 C2898 1.531 . S
C2902 H2914 0.960 . S
C2902 H2915 0.962 . S
C2902 H2916 0.960 . S
C2903 C2900 1.511 . S
C2903 H2917 0.961 . S
C2903 H2918 0.961 . S
C2903 H2919 0.961 . S
C2904 C2905 1.370 . S
C2904 C2906 1.363 . S
C2904 H2920 0.931 . S
C2905 C2904 1.370 . S
C2905 C2909 1.408 . S
C2906 C2904 1.363 . S
C2906 C2907 1.370 . S
C2906 C2910 1.524 . S
C2907 C2899 1.503 . S
C2907 C2906 1.370 . S
C2907 C2908 1.403 . S
C2908 C2907 1.403 . S
C2908 C2909 1.404 . S
C2908 C2911 1.539 . S
C2909 C2905 1.408 . S
C2909 C2908 1.404 . S
C2909 H2921 0.930 . S
C2910 C2906 1.524 . S
C2910 H2922 0.956 . S
C2910 H2923 0.961 . S
C2910 H2924 0.961 . S
C2911 C2908 1.539 . S
C2911 H2925 0.958 . S
C2911 H2926 0.961 . S
C2911 H2927 0.960 . S
H2912 C2896 0.931 . S
H2913 C2901 0.929 . S
H2914 C2902 0.960 . S
H2915 C2902 0.962 . S
H2916 C2902 0.960 . S
H2917 C2903 0.961 . S
H2918 C2903 0.961 . S
H2919 C2903 0.961 . S
H2920 C2904 0.931 . S
H2921 C2909 0.930 . S
H2922 C2910 0.956 . S
H2923 C2910 0.961 . S
H2924 C2910 0.961 . S
H2925 C2911 0.958 . S
H2926 C2911 0.961 . S
H2927 C2911 0.960 . S
C2928 C2929 1.391 . S
C2928 C2930 1.394 . S
C2928 H2944 0.931 . S
C2929 C2928 1.391 . S
C2929 C2933 1.376 . S
C2930 C2928 1.394 . S
C2930 C2931 1.369 . S
C2930 C2934 1.531 . S
C2931 C2930 1.369 . S
C2931 C2932 1.410 . S
C2931 C2939 1.503 . S
C2932 C2931 1.410 . S
C2932 C2933 1.392 . S
C2932 C2935 1.511 . S
C2933 C2929 1.376 . S
C2933 C2932 1.392 . S
C2933 H2945 0.929 . S
C2934 C2930 1.531 . S
C2934 H2946 0.960 . S
C2934 H2947 0.962 . S
C2934 H2948 0.960 . S
C2935 C2932 1.511 . S
C2935 H2949 0.961 . S
C2935 H2950 0.961 . S
C2935 H2951 0.961 . S
C2936 C2937 1.370 . S
C2936 C2938 1.363 . S
C2936 H2952 0.931 . S
C2937 C2936 1.370 . S
C2937 C2941 1.408 . S
C2938 C2936 1.363 . S
C2938 C2939 1.370 . S
C2938 C2942 1.524 . S
C2939 C2931 1.503 . S
C2939 C2938 1.370 . S
C2939 C2940 1.403 . S
C2940 C2939 1.403 . S
C2940 C2941 1.404 . S
C2940 C2943 1.539 . S
C2941 C2937 1.408 . S
C2941 C2940 1.404 . S
C2941 H2953 0.930 . S
C2942 C2938 1.524 . S
C2942 H2954 0.956 . S
C2942 H2955 0.961 . S
C2942 H2956 0.961 . S
C2943 C2940 1.539 . S
C2943 H2957 0.958 . S
C2943 H2958 0.961 . S
C2943 H2959 0.960 . S
H2944 C2928 0.931 . S
H2945 C2933 0.929 . S
H2946 C2934 0.960 . S
H2947 C2934 0.962 . S
H2948 C2934 0.960 . S
H2949 C2935 0.961 . S
H2950 C2935 0.961 . S
H2951 C2935 0.961 . S
H2952 C2936 0.931 . S
H2953 C2941 0.930 . S
H2954 C2942 0.956 . S
H2955 C2942 0.961 . S
H2956 C2942 0.961 . S
H2957 C2943 0.958 . S
H2958 C2943 0.961 . S
H2959 C2943 0.960 . S
C2960 C2961 1.391 . S
C2960 C2962 1.394 . S
C2960 H2976 0.931 . S
C2961 C2960 1.391 . S
C2961 C2965 1.376 . S
C2962 C2960 1.394 . S
C2962 C2963 1.369 . S
C2962 C2966 1.531 . S
C2963 C2962 1.369 . S
C2963 C2964 1.410 . S
C2963 C2971 1.503 . S
C2964 C2963 1.410 . S
C2964 C2965 1.392 . S
C2964 C2967 1.511 . S
C2965 C2961 1.376 . S
C2965 C2964 1.392 . S
C2965 H2977 0.929 . S
C2966 C2962 1.531 . S
C2966 H2978 0.960 . S
C2966 H2979 0.962 . S
C2966 H2980 0.960 . S
C2967 C2964 1.511 . S
C2967 H2981 0.961 . S
C2967 H2982 0.961 . S
C2967 H2983 0.961 . S
C2968 C2969 1.370 . S
C2968 C2970 1.363 . S
C2968 H2984 0.931 . S
C2969 C2968 1.370 . S
C2969 C2973 1.408 . S
C2970 C2968 1.363 . S
C2970 C2971 1.370 . S
C2970 C2974 1.524 . S
C2971 C2963 1.503 . S
C2971 C2970 1.370 . S
C2971 C2972 1.403 . S
C2972 C2971 1.403 . S
C2972 C2973 1.404 . S
C2972 C2975 1.539 . S
C2973 C2969 1.408 . S
C2973 C2972 1.404 . S
C2973 H2985 0.930 . S
C2974 C2970 1.524 . S
C2974 H2986 0.956 . S
C2974 H2987 0.961 . S
C2974 H2988 0.961 . S
C2975 C2972 1.539 . S
C2975 H2989 0.958 . S
C2975 H2990 0.961 . S
C2975 H2991 0.960 . S
H2976 C2960 0.931 . S
H2977 C2965 0.929 . S
H2978 C2966 0.960 . S
H2979 C2966 0.962 . S
H2980 C2966 0.960 . S
H2981 C2967 0.961 . S
H2982 C2967 0.961 . S
H2983 C2967 0.961 . S
H2984 C2968 0.931 . S
H2985 C2973 0.930 . S
H2986 C2974 0.956 . S
H2987 C2974 0.961 . S
H2988 C2974 0.961 . S
H2989 C2975 0.958 . S
H2990 C2975 0.961 . S
H2991 C2975 0.960 . S
C2992 C2993 1.391 . S
C2992 C2994 1.394 . S
C2992 H3008 0.931 . S
C2993 C2992 1.391 . S
C2993 C2997 1.376 . S
C2994 C2992 1.394 . S
C2994 C2995 1.369 . S
C2994 C2998 1.531 . S
C2995 C2994 1.369 . S
C2995 C2996 1.410 . S
C2995 C3003 1.503 . S
C2996 C2995 1.410 . S
C2996 C2997 1.392 . S
C2996 C2999 1.511 . S
C2997 C2993 1.376 . S
C2997 C2996 1.392 . S
C2997 H3009 0.929 . S
C2998 C2994 1.531 . S
C2998 H3010 0.960 . S
C2998 H3011 0.962 . S
C2998 H3012 0.960 . S
C2999 C2996 1.511 . S
C2999 H3013 0.961 . S
C2999 H3014 0.961 . S
C2999 H3015 0.961 . S
C3000 C3001 1.370 . S
C3000 C3002 1.363 . S
C3000 H3016 0.931 . S
C3001 C3000 1.370 . S
C3001 C3005 1.408 . S
C3002 C3000 1.363 . S
C3002 C3003 1.370 . S
C3002 C3006 1.524 . S
C3003 C2995 1.503 . S
C3003 C3002 1.370 . S
C3003 C3004 1.403 . S
C3004 C3003 1.403 . S
C3004 C3005 1.404 . S
C3004 C3007 1.539 . S
C3005 C3001 1.408 . S
C3005 C3004 1.404 . S
C3005 H3017 0.930 . S
C3006 C3002 1.524 . S
C3006 H3018 0.956 . S
C3006 H3019 0.961 . S
C3006 H3020 0.961 . S
C3007 C3004 1.539 . S
C3007 H3021 0.958 . S
C3007 H3022 0.961 . S
C3007 H3023 0.960 . S
H3008 C2992 0.931 . S
H3009 C2997 0.929 . S
H3010 C2998 0.960 . S
H3011 C2998 0.962 . S
H3012 C2998 0.960 . S
H3013 C2999 0.961 . S
H3014 C2999 0.961 . S
H3015 C2999 0.961 . S
H3016 C3000 0.931 . S
H3017 C3005 0.930 . S
H3018 C3006 0.956 . S
H3019 C3006 0.961 . S
H3020 C3006 0.961 . S
H3021 C3007 0.958 . S
H3022 C3007 0.961 . S
H3023 C3007 0.960 . S
C3024 C3025 1.391 . S
C3024 C3026 1.394 . S
C3024 H3040 0.931 . S
C3025 C3024 1.391 . S
C3025 C3029 1.376 . S
C3026 C3024 1.394 . S
C3026 C3027 1.369 . S
C3026 C3030 1.531 . S
C3027 C3026 1.369 . S
C3027 C3028 1.410 . S
C3027 C3035 1.503 . S
C3028 C3027 1.410 . S
C3028 C3029 1.392 . S
C3028 C3031 1.511 . S
C3029 C3025 1.376 . S
C3029 C3028 1.392 . S
C3029 H3041 0.929 . S
C3030 C3026 1.531 . S
C3030 H3042 0.960 . S
C3030 H3043 0.962 . S
C3030 H3044 0.960 . S
C3031 C3028 1.511 . S
C3031 H3045 0.961 . S
C3031 H3046 0.961 . S
C3031 H3047 0.961 . S
C3032 C3033 1.370 . S
C3032 C3034 1.363 . S
C3032 H3048 0.931 . S
C3033 C3032 1.370 . S
C3033 C3037 1.408 . S
C3034 C3032 1.363 . S
C3034 C3035 1.370 . S
C3034 C3038 1.524 . S
C3035 C3027 1.503 . S
C3035 C3034 1.370 . S
C3035 C3036 1.403 . S
C3036 C3035 1.403 . S
C3036 C3037 1.404 . S
C3036 C3039 1.539 . S
C3037 C3033 1.408 . S
C3037 C3036 1.404 . S
C3037 H3049 0.930 . S
C3038 C3034 1.524 . S
C3038 H3050 0.956 . S
C3038 H3051 0.961 . S
C3038 H3052 0.961 . S
C3039 C3036 1.539 . S
C3039 H3053 0.958 . S
C3039 H3054 0.961 . S
C3039 H3055 0.960 . S
H3040 C3024 0.931 . S
H3041 C3029 0.929 . S
H3042 C3030 0.960 . S
H3043 C3030 0.962 . S
H3044 C3030 0.960 . S
H3045 C3031 0.961 . S
H3046 C3031 0.961 . S
H3047 C3031 0.961 . S
H3048 C3032 0.931 . S
H3049 C3037 0.930 . S
H3050 C3038 0.956 . S
H3051 C3038 0.961 . S
H3052 C3038 0.961 . S
H3053 C3039 0.958 . S
H3054 C3039 0.961 . S
H3055 C3039 0.960 . S
C3056 C3057 1.391 . S
C3056 C3058 1.394 . S
C3056 H3072 0.931 . S
C3057 C3056 1.391 . S
C3057 C3061 1.376 . S
C3058 C3056 1.394 . S
C3058 C3059 1.369 . S
C3058 C3062 1.531 . S
C3059 C3058 1.369 . S
C3059 C3060 1.410 . S
C3059 C3067 1.503 . S
C3060 C3059 1.410 . S
C3060 C3061 1.392 . S
C3060 C3063 1.511 . S
C3061 C3057 1.376 . S
C3061 C3060 1.392 . S
C3061 H3073 0.929 . S
C3062 C3058 1.531 . S
C3062 H3074 0.960 . S
C3062 H3075 0.962 . S
C3062 H3076 0.960 . S
C3063 C3060 1.511 . S
C3063 H3077 0.961 . S
C3063 H3078 0.961 . S
C3063 H3079 0.961 . S
C3064 C3065 1.370 . S
C3064 C3066 1.363 . S
C3064 H3080 0.931 . S
C3065 C3064 1.370 . S
C3065 C3069 1.408 . S
C3066 C3064 1.363 . S
C3066 C3067 1.370 . S
C3066 C3070 1.524 . S
C3067 C3059 1.503 . S
C3067 C3066 1.370 . S
C3067 C3068 1.403 . S
C3068 C3067 1.403 . S
C3068 C3069 1.404 . S
C3068 C3071 1.539 . S
C3069 C3065 1.408 . S
C3069 C3068 1.404 . S
C3069 H3081 0.930 . S
C3070 C3066 1.524 . S
C3070 H3082 0.956 . S
C3070 H3083 0.961 . S
C3070 H3084 0.961 . S
C3071 C3068 1.539 . S
C3071 H3085 0.958 . S
C3071 H3086 0.961 . S
C3071 H3087 0.960 . S
H3072 C3056 0.931 . S
H3073 C3061 0.929 . S
H3074 C3062 0.960 . S
H3075 C3062 0.962 . S
H3076 C3062 0.960 . S
H3077 C3063 0.961 . S
H3078 C3063 0.961 . S
H3079 C3063 0.961 . S
H3080 C3064 0.931 . S
H3081 C3069 0.930 . S
H3082 C3070 0.956 . S
H3083 C3070 0.961 . S
H3084 C3070 0.961 . S
H3085 C3071 0.958 . S
H3086 C3071 0.961 . S
H3087 C3071 0.960 . S
C3088 C3089 1.391 . S
C3088 C3090 1.394 . S
C3088 H3104 0.931 . S
C3089 C3088 1.391 . S
C3089 C3093 1.376 . S
C3090 C3088 1.394 . S
C3090 C3091 1.369 . S
C3090 C3094 1.531 . S
C3091 C3090 1.369 . S
C3091 C3092 1.410 . S
C3091 C3099 1.503 . S
C3092 C3091 1.410 . S
C3092 C3093 1.392 . S
C3092 C3095 1.511 . S
C3093 C3089 1.376 . S
C3093 C3092 1.392 . S
C3093 H3105 0.929 . S
C3094 C3090 1.531 . S
C3094 H3106 0.960 . S
C3094 H3107 0.962 . S
C3094 H3108 0.960 . S
C3095 C3092 1.511 . S
C3095 H3109 0.961 . S
C3095 H3110 0.961 . S
C3095 H3111 0.961 . S
C3096 C3097 1.370 . S
C3096 C3098 1.363 . S
C3096 H3112 0.931 . S
C3097 C3096 1.370 . S
C3097 C3101 1.408 . S
C3098 C3096 1.363 . S
C3098 C3099 1.370 . S
C3098 C3102 1.524 . S
C3099 C3091 1.503 . S
C3099 C3098 1.370 . S
C3099 C3100 1.403 . S
C3100 C3099 1.403 . S
C3100 C3101 1.404 . S
C3100 C3103 1.539 . S
C3101 C3097 1.408 . S
C3101 C3100 1.404 . S
C3101 H3113 0.930 . S
C3102 C3098 1.524 . S
C3102 H3114 0.956 . S
C3102 H3115 0.961 . S
C3102 H3116 0.961 . S
C3103 C3100 1.539 . S
C3103 H3117 0.958 . S
C3103 H3118 0.961 . S
C3103 H3119 0.960 . S
H3104 C3088 0.931 . S
H3105 C3093 0.929 . S
H3106 C3094 0.960 . S
H3107 C3094 0.962 . S
H3108 C3094 0.960 . S
H3109 C3095 0.961 . S
H3110 C3095 0.961 . S
H3111 C3095 0.961 . S
H3112 C3096 0.931 . S
H3113 C3101 0.930 . S
H3114 C3102 0.956 . S
H3115 C3102 0.961 . S
H3116 C3102 0.961 . S
H3117 C3103 0.958 . S
H3118 C3103 0.961 . S
H3119 C3103 0.960 . S
C3120 C3121 1.391 . S
C3120 C3122 1.394 . S
C3120 H3136 0.931 1_554 S
C3121 C3120 1.391 . S
C3121 C3125 1.376 . S
C3122 C3120 1.394 . S
C3122 C3123 1.369 . S
C3122 C3126 1.531 1_564 S
C3123 C3122 1.369 . S
C3123 C3124 1.410 . S
C3123 C3131 1.503 . S
C3124 C3123 1.410 . S
C3124 C3125 1.392 . S
C3124 C3127 1.511 . S
C3125 C3121 1.376 . S
C3125 C3124 1.392 . S
C3125 H3137 0.929 . S
C3126 C3122 1.531 1_546 S
C3126 H3138 0.960 1_556 S
C3126 H3139 0.962 . S
C3126 H3140 0.960 . S
C3127 C3124 1.511 . S
C3127 H3141 0.961 . S
C3127 H3142 0.961 . S
C3127 H3143 0.961 . S
C3128 C3129 1.370 1_566 S
C3128 C3130 1.363 . S
C3128 H3144 0.931 . S
C3129 C3128 1.370 1_544 S
C3129 C3133 1.408 . S
C3130 C3128 1.363 . S
C3130 C3131 1.370 1_556 S
C3130 C3134 1.524 . S
C3131 C3123 1.503 . S
C3131 C3130 1.370 1_554 S
C3131 C3132 1.403 1_565 S
C3132 C3131 1.403 1_545 S
C3132 C3133 1.404 . S
C3132 C3135 1.539 . S
C3133 C3129 1.408 . S
C3133 C3132 1.404 . S
C3133 H3145 0.930 . S
C3134 C3130 1.524 . S
C3134 H3146 0.956 . S
C3134 H3147 0.961 . S
C3134 H3148 0.961 . S
C3135 C3132 1.539 . S
C3135 H3149 0.958 . S
C3135 H3150 0.961 . S
C3135 H3151 0.960 . S
H3136 C3120 0.931 1_556 S
H3137 C3125 0.929 . S
H3138 C3126 0.960 1_554 S
H3139 C3126 0.962 . S
H3140 C3126 0.960 . S
H3141 C3127 0.961 . S
H3142 C3127 0.961 . S
H3143 C3127 0.961 . S
H3144 C3128 0.931 . S
H3145 C3133 0.930 . S
H3146 C3134 0.956 . S
H3147 C3134 0.961 . S
H3148 C3134 0.961 . S
H3149 C3135 0.958 . S
H3150 C3135 0.961 . S
H3151 C3135 0.960 . S
C3152 C3153 1.391 . S
C3152 C3154 1.394 . S
C3152 H3168 0.931 . S
C3153 C3152 1.391 . S
C3153 C3157 1.376 . S
C3154 C3152 1.394 . S
C3154 C3155 1.369 . S
C3154 C3158 1.531 . S
C3155 C3154 1.369 . S
C3155 C3156 1.410 . S
C3155 C3163 1.503 . S
C3156 C3155 1.410 . S
C3156 C3157 1.392 . S
C3156 C3159 1.511 . S
C3157 C3153 1.376 . S
C3157 C3156 1.392 . S
C3157 H3169 0.929 . S
C3158 C3154 1.531 . S
C3158 H3170 0.960 . S
C3158 H3171 0.962 . S
C3158 H3172 0.960 . S
C3159 C3156 1.511 . S
C3159 H3173 0.961 . S
C3159 H3174 0.961 . S
C3159 H3175 0.961 . S
C3160 C3161 1.370 . S
C3160 C3162 1.363 . S
C3160 H3176 0.931 . S
C3161 C3160 1.370 . S
C3161 C3165 1.408 . S
C3162 C3160 1.363 . S
C3162 C3163 1.370 . S
C3162 C3166 1.524 . S
C3163 C3155 1.503 . S
C3163 C3162 1.370 . S
C3163 C3164 1.403 . S
C3164 C3163 1.403 . S
C3164 C3165 1.404 . S
C3164 C3167 1.539 . S
C3165 C3161 1.408 . S
C3165 C3164 1.404 . S
C3165 H3177 0.930 . S
C3166 C3162 1.524 . S
C3166 H3178 0.956 . S
C3166 H3179 0.961 . S
C3166 H3180 0.961 . S
C3167 C3164 1.539 . S
C3167 H3181 0.958 . S
C3167 H3182 0.961 . S
C3167 H3183 0.960 . S
H3168 C3152 0.931 . S
H3169 C3157 0.929 . S
H3170 C3158 0.960 . S
H3171 C3158 0.962 . S
H3172 C3158 0.960 . S
H3173 C3159 0.961 . S
H3174 C3159 0.961 . S
H3175 C3159 0.961 . S
H3176 C3160 0.931 . S
H3177 C3165 0.930 . S
H3178 C3166 0.956 . S
H3179 C3166 0.961 . S
H3180 C3166 0.961 . S
H3181 C3167 0.958 . S
H3182 C3167 0.961 . S
H3183 C3167 0.960 . S
C3184 C3185 1.391 1_556 S
C3184 C3186 1.394 1_556 S
C3184 H3200 0.931 . S
C3185 C3184 1.391 1_554 S
C3185 C3189 1.376 . S
C3186 C3184 1.394 1_554 S
C3186 C3187 1.369 . S
C3186 C3190 1.531 1_554 S
C3187 C3186 1.369 . S
C3187 C3188 1.410 . S
C3187 C3195 1.503 . S
C3188 C3187 1.410 . S
C3188 C3189 1.392 . S
C3188 C3191 1.511 . S
C3189 C3185 1.376 . S
C3189 C3188 1.392 . S
C3189 H3201 0.929 . S
C3190 C3186 1.531 1_556 S
C3190 H3202 0.960 . S
C3190 H3203 0.962 . S
C3190 H3204 0.960 . S
C3191 C3188 1.511 . S
C3191 H3205 0.961 . S
C3191 H3206 0.961 . S
C3191 H3207 0.961 . S
C3192 C3193 1.370 . S
C3192 C3194 1.363 . S
C3192 H3208 0.931 . S
C3193 C3192 1.370 . S
C3193 C3197 1.408 . S
C3194 C3192 1.363 . S
C3194 C3195 1.370 . S
C3194 C3198 1.524 . S
C3195 C3187 1.503 . S
C3195 C3194 1.370 . S
C3195 C3196 1.403 . S
C3196 C3195 1.403 . S
C3196 C3197 1.404 . S
C3196 C3199 1.539 . S
C3197 C3193 1.408 . S
C3197 C3196 1.404 . S
C3197 H3209 0.930 . S
C3198 C3194 1.524 . S
C3198 H3210 0.956 1_554 S
C3198 H3211 0.961 . S
C3198 H3212 0.961 . S
C3199 C3196 1.539 . S
C3199 H3213 0.958 . S
C3199 H3214 0.961 . S
C3199 H3215 0.960 . S
H3200 C3184 0.931 . S
H3201 C3189 0.929 . S
H3202 C3190 0.960 . S
H3203 C3190 0.962 . S
H3204 C3190 0.960 . S
H3205 C3191 0.961 . S
H3206 C3191 0.961 . S
H3207 C3191 0.961 . S
H3208 C3192 0.931 . S
H3209 C3197 0.930 . S
H3210 C3198 0.956 1_556 S
H3211 C3198 0.961 . S
H3212 C3198 0.961 . S
H3213 C3199 0.958 . S
H3214 C3199 0.961 . S
H3215 C3199 0.960 . S
C3216 C3217 1.391 . S
C3216 C3218 1.394 . S
C3216 H3232 0.931 . S
C3217 C3216 1.391 . S
C3217 C3221 1.376 . S
C3218 C3216 1.394 . S
C3218 C3219 1.369 . S
C3218 C3222 1.531 . S
C3219 C3218 1.369 . S
C3219 C3220 1.410 . S
C3219 C3227 1.503 . S
C3220 C3219 1.410 . S
C3220 C3221 1.392 . S
C3220 C3223 1.511 . S
C3221 C3217 1.376 . S
C3221 C3220 1.392 . S
C3221 H3233 0.929 . S
C3222 C3218 1.531 . S
C3222 H3234 0.960 . S
C3222 H3235 0.962 . S
C3222 H3236 0.960 . S
C3223 C3220 1.511 . S
C3223 H3237 0.961 . S
C3223 H3238 0.961 . S
C3223 H3239 0.961 . S
C3224 C3225 1.370 . S
C3224 C3226 1.363 . S
C3224 H3240 0.931 . S
C3225 C3224 1.370 . S
C3225 C3229 1.408 . S
C3226 C3224 1.363 . S
C3226 C3227 1.370 . S
C3226 C3230 1.524 . S
C3227 C3219 1.503 . S
C3227 C3226 1.370 . S
C3227 C3228 1.403 . S
C3228 C3227 1.403 . S
C3228 C3229 1.404 . S
C3228 C3231 1.539 . S
C3229 C3225 1.408 . S
C3229 C3228 1.404 . S
C3229 H3241 0.930 . S
C3230 C3226 1.524 . S
C3230 H3242 0.956 . S
C3230 H3243 0.961 . S
C3230 H3244 0.961 . S
C3231 C3228 1.539 . S
C3231 H3245 0.958 . S
C3231 H3246 0.961 . S
C3231 H3247 0.960 . S
H3232 C3216 0.931 . S
H3233 C3221 0.929 . S
H3234 C3222 0.960 . S
H3235 C3222 0.962 . S
H3236 C3222 0.960 . S
H3237 C3223 0.961 . S
H3238 C3223 0.961 . S
H3239 C3223 0.961 . S
H3240 C3224 0.931 . S
H3241 C3229 0.930 . S
H3242 C3230 0.956 . S
H3243 C3230 0.961 . S
H3244 C3230 0.961 . S
H3245 C3231 0.958 . S
H3246 C3231 0.961 . S
H3247 C3231 0.960 . S
C3248 C3249 1.391 . S
C3248 C3250 1.394 . S
C3248 H3264 0.931 . S
C3249 C3248 1.391 . S
C3249 C3253 1.376 . S
C3250 C3248 1.394 . S
C3250 C3251 1.369 . S
C3250 C3254 1.531 . S
C3251 C3250 1.369 . S
C3251 C3252 1.410 . S
C3251 C3259 1.503 . S
C3252 C3251 1.410 . S
C3252 C3253 1.392 . S
C3252 C3255 1.511 . S
C3253 C3249 1.376 . S
C3253 C3252 1.392 . S
C3253 H3265 0.929 . S
C3254 C3250 1.531 . S
C3254 H3266 0.960 . S
C3254 H3267 0.962 . S
C3254 H3268 0.960 . S
C3255 C3252 1.511 . S
C3255 H3269 0.961 . S
C3255 H3270 0.961 . S
C3255 H3271 0.961 . S
C3256 C3257 1.370 . S
C3256 C3258 1.363 . S
C3256 H3272 0.931 . S
C3257 C3256 1.370 . S
C3257 C3261 1.408 . S
C3258 C3256 1.363 . S
C3258 C3259 1.370 . S
C3258 C3262 1.524 . S
C3259 C3251 1.503 . S
C3259 C3258 1.370 . S
C3259 C3260 1.403 . S
C3260 C3259 1.403 . S
C3260 C3261 1.404 . S
C3260 C3263 1.539 . S
C3261 C3257 1.408 . S
C3261 C3260 1.404 . S
C3261 H3273 0.930 . S
C3262 C3258 1.524 . S
C3262 H3274 0.956 . S
C3262 H3275 0.961 . S
C3262 H3276 0.961 . S
C3263 C3260 1.539 . S
C3263 H3277 0.958 . S
C3263 H3278 0.961 . S
C3263 H3279 0.960 . S
H3264 C3248 0.931 . S
H3265 C3253 0.929 . S
H3266 C3254 0.960 . S
H3267 C3254 0.962 . S
H3268 C3254 0.960 . S
H3269 C3255 0.961 . S
H3270 C3255 0.961 . S
H3271 C3255 0.961 . S
H3272 C3256 0.931 . S
H3273 C3261 0.930 . S
H3274 C3262 0.956 . S
H3275 C3262 0.961 . S
H3276 C3262 0.961 . S
H3277 C3263 0.958 . S
H3278 C3263 0.961 . S
H3279 C3263 0.960 . S
C3280 C3281 1.391 . S
C3280 C3282 1.394 . S
C3280 H3296 0.931 . S
C3281 C3280 1.391 . S
C3281 C3285 1.376 . S
C3282 C3280 1.394 . S
C3282 C3283 1.369 . S
C3282 C3286 1.531 . S
C3283 C3282 1.369 . S
C3283 C3284 1.410 . S
C3283 C3291 1.503 . S
C3284 C3283 1.410 . S
C3284 C3285 1.392 . S
C3284 C3287 1.511 . S
C3285 C3281 1.376 . S
C3285 C3284 1.392 . S
C3285 H3297 0.929 . S
C3286 C3282 1.531 . S
C3286 H3298 0.960 . S
C3286 H3299 0.962 . S
C3286 H3300 0.960 . S
C3287 C3284 1.511 . S
C3287 H3301 0.961 . S
C3287 H3302 0.961 . S
C3287 H3303 0.961 . S
C3288 C3289 1.370 . S
C3288 C3290 1.363 . S
C3288 H3304 0.931 . S
C3289 C3288 1.370 . S
C3289 C3293 1.408 . S
C3290 C3288 1.363 . S
C3290 C3291 1.370 . S
C3290 C3294 1.524 . S
C3291 C3283 1.503 . S
C3291 C3290 1.370 . S
C3291 C3292 1.403 . S
C3292 C3291 1.403 . S
C3292 C3293 1.404 . S
C3292 C3295 1.539 . S
C3293 C3289 1.408 . S
C3293 C3292 1.404 . S
C3293 H3305 0.930 . S
C3294 C3290 1.524 . S
C3294 H3306 0.956 . S
C3294 H3307 0.961 . S
C3294 H3308 0.961 . S
C3295 C3292 1.539 . S
C3295 H3309 0.958 . S
C3295 H3310 0.961 . S
C3295 H3311 0.960 . S
H3296 C3280 0.931 . S
H3297 C3285 0.929 . S
H3298 C3286 0.960 . S
H3299 C3286 0.962 . S
H3300 C3286 0.960 . S
H3301 C3287 0.961 . S
H3302 C3287 0.961 . S
H3303 C3287 0.961 . S
H3304 C3288 0.931 . S
H3305 C3293 0.930 . S
H3306 C3294 0.956 . S
H3307 C3294 0.961 . S
H3308 C3294 0.961 . S
H3309 C3295 0.958 . S
H3310 C3295 0.961 . S
H3311 C3295 0.960 . S
C3312 C3313 1.391 . S
C3312 C3314 1.394 . S
C3312 H3328 0.931 . S
C3313 C3312 1.391 . S
C3313 C3317 1.376 . S
C3314 C3312 1.394 . S
C3314 C3315 1.369 . S
C3314 C3318 1.531 . S
C3315 C3314 1.369 . S
C3315 C3316 1.410 . S
C3315 C3323 1.503 . S
C3316 C3315 1.410 . S
C3316 C3317 1.392 . S
C3316 C3319 1.511 . S
C3317 C3313 1.376 . S
C3317 C3316 1.392 . S
C3317 H3329 0.929 . S
C3318 C3314 1.531 . S
C3318 H3330 0.960 . S
C3318 H3331 0.962 . S
C3318 H3332 0.960 . S
C3319 C3316 1.511 . S
C3319 H3333 0.961 . S
C3319 H3334 0.961 . S
C3319 H3335 0.961 . S
C3320 C3321 1.370 . S
C3320 C3322 1.363 . S
C3320 H3336 0.931 . S
C3321 C3320 1.370 . S
C3321 C3325 1.408 . S
C3322 C3320 1.363 . S
C3322 C3323 1.370 . S
C3322 C3326 1.524 . S
C3323 C3315 1.503 . S
C3323 C3322 1.370 . S
C3323 C3324 1.403 . S
C3324 C3323 1.403 . S
C3324 C3325 1.404 . S
C3324 C3327 1.539 . S
C3325 C3321 1.408 . S
C3325 C3324 1.404 . S
C3325 H3337 0.930 . S
C3326 C3322 1.524 . S
C3326 H3338 0.956 . S
C3326 H3339 0.961 . S
C3326 H3340 0.961 . S
C3327 C3324 1.539 . S
C3327 H3341 0.958 . S
C3327 H3342 0.961 . S
C3327 H3343 0.960 . S
H3328 C3312 0.931 . S
H3329 C3317 0.929 . S
H3330 C3318 0.960 . S
H3331 C3318 0.962 . S
H3332 C3318 0.960 . S
H3333 C3319 0.961 . S
H3334 C3319 0.961 . S
H3335 C3319 0.961 . S
H3336 C3320 0.931 . S
H3337 C3325 0.930 . S
H3338 C3326 0.956 . S
H3339 C3326 0.961 . S
H3340 C3326 0.961 . S
H3341 C3327 0.958 . S
H3342 C3327 0.961 . S
H3343 C3327 0.960 . S
C3344 C3345 1.391 . S
C3344 C3346 1.394 . S
C3344 H3360 0.931 . S
C3345 C3344 1.391 . S
C3345 C3349 1.376 . S
C3346 C3344 1.394 . S
C3346 C3347 1.369 . S
C3346 C3350 1.531 . S
C3347 C3346 1.369 . S
C3347 C3348 1.410 . S
C3347 C3355 1.503 . S
C3348 C3347 1.410 . S
C3348 C3349 1.392 . S
C3348 C3351 1.511 . S
C3349 C3345 1.376 . S
C3349 C3348 1.392 . S
C3349 H3361 0.929 . S
C3350 C3346 1.531 . S
C3350 H3362 0.960 . S
C3350 H3363 0.962 . S
C3350 H3364 0.960 . S
C3351 C3348 1.511 . S
C3351 H3365 0.961 . S
C3351 H3366 0.961 . S
C3351 H3367 0.961 . S
C3352 C3353 1.370 . S
C3352 C3354 1.363 . S
C3352 H3368 0.931 . S
C3353 C3352 1.370 . S
C3353 C3357 1.408 . S
C3354 C3352 1.363 . S
C3354 C3355 1.370 . S
C3354 C3358 1.524 . S
C3355 C3347 1.503 . S
C3355 C3354 1.370 . S
C3355 C3356 1.403 . S
C3356 C3355 1.403 . S
C3356 C3357 1.404 . S
C3356 C3359 1.539 . S
C3357 C3353 1.408 . S
C3357 C3356 1.404 . S
C3357 H3369 0.930 . S
C3358 C3354 1.524 . S
C3358 H3370 0.956 . S
C3358 H3371 0.961 . S
C3358 H3372 0.961 . S
C3359 C3356 1.539 . S
C3359 H3373 0.958 . S
C3359 H3374 0.961 . S
C3359 H3375 0.960 . S
H3360 C3344 0.931 . S
H3361 C3349 0.929 . S
H3362 C3350 0.960 . S
H3363 C3350 0.962 . S
H3364 C3350 0.960 . S
H3365 C3351 0.961 . S
H3366 C3351 0.961 . S
H3367 C3351 0.961 . S
H3368 C3352 0.931 . S
H3369 C3357 0.930 . S
H3370 C3358 0.956 . S
H3371 C3358 0.961 . S
H3372 C3358 0.961 . S
H3373 C3359 0.958 . S
H3374 C3359 0.961 . S
H3375 C3359 0.960 . S
C3376 C3377 1.391 . S
C3376 C3378 1.394 . S
C3376 H3392 0.931 . S
C3377 C3376 1.391 . S
C3377 C3381 1.376 . S
C3378 C3376 1.394 . S
C3378 C3379 1.369 . S
C3378 C3382 1.531 . S
C3379 C3378 1.369 . S
C3379 C3380 1.410 . S
C3379 C3387 1.503 . S
C3380 C3379 1.410 . S
C3380 C3381 1.392 . S
C3380 C3383 1.511 . S
C3381 C3377 1.376 . S
C3381 C3380 1.392 . S
C3381 H3393 0.929 . S
C3382 C3378 1.531 . S
C3382 H3394 0.960 . S
C3382 H3395 0.962 . S
C3382 H3396 0.960 . S
C3383 C3380 1.511 . S
C3383 H3397 0.961 . S
C3383 H3398 0.961 . S
C3383 H3399 0.961 . S
C3384 C3385 1.370 . S
C3384 C3386 1.363 . S
C3384 H3400 0.931 . S
C3385 C3384 1.370 . S
C3385 C3389 1.408 . S
C3386 C3384 1.363 . S
C3386 C3387 1.370 . S
C3386 C3390 1.524 . S
C3387 C3379 1.503 . S
C3387 C3386 1.370 . S
C3387 C3388 1.403 . S
C3388 C3387 1.403 . S
C3388 C3389 1.404 . S
C3388 C3391 1.539 . S
C3389 C3385 1.408 . S
C3389 C3388 1.404 . S
C3389 H3401 0.930 . S
C3390 C3386 1.524 . S
C3390 H3402 0.956 . S
C3390 H3403 0.961 . S
C3390 H3404 0.961 . S
C3391 C3388 1.539 . S
C3391 H3405 0.958 . S
C3391 H3406 0.961 . S
C3391 H3407 0.960 . S
H3392 C3376 0.931 . S
H3393 C3381 0.929 . S
H3394 C3382 0.960 . S
H3395 C3382 0.962 . S
H3396 C3382 0.960 . S
H3397 C3383 0.961 . S
H3398 C3383 0.961 . S
H3399 C3383 0.961 . S
H3400 C3384 0.931 . S
H3401 C3389 0.930 . S
H3402 C3390 0.956 . S
H3403 C3390 0.961 . S
H3404 C3390 0.961 . S
H3405 C3391 0.958 . S
H3406 C3391 0.961 . S
H3407 C3391 0.960 . S
C3408 C3409 1.391 . S
C3408 C3410 1.394 . S
C3408 H3424 0.931 . S
C3409 C3408 1.391 . S
C3409 C3413 1.376 . S
C3410 C3408 1.394 . S
C3410 C3411 1.369 . S
C3410 C3414 1.531 . S
C3411 C3410 1.369 . S
C3411 C3412 1.410 . S
C3411 C3419 1.503 . S
C3412 C3411 1.410 . S
C3412 C3413 1.392 . S
C3412 C3415 1.511 . S
C3413 C3409 1.376 . S
C3413 C3412 1.392 . S
C3413 H3425 0.929 . S
C3414 C3410 1.531 . S
C3414 H3426 0.960 . S
C3414 H3427 0.962 . S
C3414 H3428 0.960 . S
C3415 C3412 1.511 . S
C3415 H3429 0.961 . S
C3415 H3430 0.961 . S
C3415 H3431 0.961 . S
C3416 C3417 1.370 . S
C3416 C3418 1.363 . S
C3416 H3432 0.931 . S
C3417 C3416 1.370 . S
C3417 C3421 1.408 . S
C3418 C3416 1.363 . S
C3418 C3419 1.370 . S
C3418 C3422 1.524 . S
C3419 C3411 1.503 . S
C3419 C3418 1.370 . S
C3419 C3420 1.403 . S
C3420 C3419 1.403 . S
C3420 C3421 1.404 . S
C3420 C3423 1.539 . S
C3421 C3417 1.408 . S
C3421 C3420 1.404 . S
C3421 H3433 0.930 . S
C3422 C3418 1.524 . S
C3422 H3434 0.956 . S
C3422 H3435 0.961 . S
C3422 H3436 0.961 . S
C3423 C3420 1.539 . S
C3423 H3437 0.958 . S
C3423 H3438 0.961 . S
C3423 H3439 0.960 . S
H3424 C3408 0.931 . S
H3425 C3413 0.929 . S
H3426 C3414 0.960 . S
H3427 C3414 0.962 . S
H3428 C3414 0.960 . S
H3429 C3415 0.961 . S
H3430 C3415 0.961 . S
H3431 C3415 0.961 . S
H3432 C3416 0.931 . S
H3433 C3421 0.930 . S
H3434 C3422 0.956 . S
H3435 C3422 0.961 . S
H3436 C3422 0.961 . S
H3437 C3423 0.958 . S
H3438 C3423 0.961 . S
H3439 C3423 0.960 . S
C3440 C3441 1.391 . S
C3440 C3442 1.394 . S
C3440 H3456 0.931 . S
C3441 C3440 1.391 . S
C3441 C3445 1.376 . S
C3442 C3440 1.394 . S
C3442 C3443 1.369 . S
C3442 C3446 1.531 . S
C3443 C3442 1.369 . S
C3443 C3444 1.410 . S
C3443 C3451 1.503 . S
C3444 C3443 1.410 . S
C3444 C3445 1.392 . S
C3444 C3447 1.511 . S
C3445 C3441 1.376 . S
C3445 C3444 1.392 . S
C3445 H3457 0.929 . S
C3446 C3442 1.531 . S
C3446 H3458 0.960 . S
C3446 H3459 0.962 . S
C3446 H3460 0.960 . S
C3447 C3444 1.511 . S
C3447 H3461 0.961 . S
C3447 H3462 0.961 . S
C3447 H3463 0.961 . S
C3448 C3449 1.370 . S
C3448 C3450 1.363 . S
C3448 H3464 0.931 . S
C3449 C3448 1.370 . S
C3449 C3453 1.408 . S
C3450 C3448 1.363 . S
C3450 C3451 1.370 . S
C3450 C3454 1.524 . S
C3451 C3443 1.503 . S
C3451 C3450 1.370 . S
C3451 C3452 1.403 . S
C3452 C3451 1.403 . S
C3452 C3453 1.404 . S
C3452 C3455 1.539 . S
C3453 C3449 1.408 . S
C3453 C3452 1.404 . S
C3453 H3465 0.930 . S
C3454 C3450 1.524 . S
C3454 H3466 0.956 . S
C3454 H3467 0.961 . S
C3454 H3468 0.961 . S
C3455 C3452 1.539 . S
C3455 H3469 0.958 . S
C3455 H3470 0.961 . S
C3455 H3471 0.960 . S
H3456 C3440 0.931 . S
H3457 C3445 0.929 . S
H3458 C3446 0.960 . S
H3459 C3446 0.962 . S
H3460 C3446 0.960 . S
H3461 C3447 0.961 . S
H3462 C3447 0.961 . S
H3463 C3447 0.961 . S
H3464 C3448 0.931 . S
H3465 C3453 0.930 . S
H3466 C3454 0.956 . S
H3467 C3454 0.961 . S
H3468 C3454 0.961 . S
H3469 C3455 0.958 . S
H3470 C3455 0.961 . S
H3471 C3455 0.960 . S
C3472 C3473 1.391 . S
C3472 C3474 1.394 . S
C3472 H3488 0.931 . S
C3473 C3472 1.391 . S
C3473 C3477 1.376 . S
C3474 C3472 1.394 . S
C3474 C3475 1.369 . S
C3474 C3478 1.531 . S
C3475 C3474 1.369 . S
C3475 C3476 1.410 . S
C3475 C3483 1.503 . S
C3476 C3475 1.410 . S
C3476 C3477 1.392 . S
C3476 C3479 1.511 . S
C3477 C3473 1.376 . S
C3477 C3476 1.392 . S
C3477 H3489 0.929 . S
C3478 C3474 1.531 . S
C3478 H3490 0.960 . S
C3478 H3491 0.962 . S
C3478 H3492 0.960 . S
C3479 C3476 1.511 . S
C3479 H3493 0.961 . S
C3479 H3494 0.961 . S
C3479 H3495 0.961 . S
C3480 C3481 1.370 . S
C3480 C3482 1.363 . S
C3480 H3496 0.931 . S
C3481 C3480 1.370 . S
C3481 C3485 1.408 . S
C3482 C3480 1.363 . S
C3482 C3483 1.370 . S
C3482 C3486 1.524 . S
C3483 C3475 1.503 . S
C3483 C3482 1.370 . S
C3483 C3484 1.403 . S
C3484 C3483 1.403 . S
C3484 C3485 1.404 . S
C3484 C3487 1.539 . S
C3485 C3481 1.408 . S
C3485 C3484 1.404 . S
C3485 H3497 0.930 . S
C3486 C3482 1.524 . S
C3486 H3498 0.956 . S
C3486 H3499 0.961 . S
C3486 H3500 0.961 . S
C3487 C3484 1.539 . S
C3487 H3501 0.958 . S
C3487 H3502 0.961 . S
C3487 H3503 0.960 . S
H3488 C3472 0.931 . S
H3489 C3477 0.929 . S
H3490 C3478 0.960 . S
H3491 C3478 0.962 . S
H3492 C3478 0.960 . S
H3493 C3479 0.961 . S
H3494 C3479 0.961 . S
H3495 C3479 0.961 . S
H3496 C3480 0.931 . S
H3497 C3485 0.930 . S
H3498 C3486 0.956 . S
H3499 C3486 0.961 . S
H3500 C3486 0.961 . S
H3501 C3487 0.958 . S
H3502 C3487 0.961 . S
H3503 C3487 0.960 . S
C3504 C3505 1.391 . S
C3504 C3506 1.394 . S
C3504 H3520 0.931 . S
C3505 C3504 1.391 . S
C3505 C3509 1.376 . S
C3506 C3504 1.394 . S
C3506 C3507 1.369 . S
C3506 C3510 1.531 . S
C3507 C3506 1.369 . S
C3507 C3508 1.410 . S
C3507 C3515 1.503 . S
C3508 C3507 1.410 . S
C3508 C3509 1.392 . S
C3508 C3511 1.511 . S
C3509 C3505 1.376 . S
C3509 C3508 1.392 . S
C3509 H3521 0.929 . S
C3510 C3506 1.531 . S
C3510 H3522 0.960 . S
C3510 H3523 0.962 . S
C3510 H3524 0.960 . S
C3511 C3508 1.511 . S
C3511 H3525 0.961 . S
C3511 H3526 0.961 . S
C3511 H3527 0.961 . S
C3512 C3513 1.370 . S
C3512 C3514 1.363 . S
C3512 H3528 0.931 . S
C3513 C3512 1.370 . S
C3513 C3517 1.408 . S
C3514 C3512 1.363 . S
C3514 C3515 1.370 . S
C3514 C3518 1.524 . S
C3515 C3507 1.503 . S
C3515 C3514 1.370 . S
C3515 C3516 1.403 . S
C3516 C3515 1.403 . S
C3516 C3517 1.404 . S
C3516 C3519 1.539 . S
C3517 C3513 1.408 . S
C3517 C3516 1.404 . S
C3517 H3529 0.930 . S
C3518 C3514 1.524 . S
C3518 H3530 0.956 . S
C3518 H3531 0.961 . S
C3518 H3532 0.961 . S
C3519 C3516 1.539 . S
C3519 H3533 0.958 . S
C3519 H3534 0.961 . S
C3519 H3535 0.960 . S
H3520 C3504 0.931 . S
H3521 C3509 0.929 . S
H3522 C3510 0.960 . S
H3523 C3510 0.962 . S
H3524 C3510 0.960 . S
H3525 C3511 0.961 . S
H3526 C3511 0.961 . S
H3527 C3511 0.961 . S
H3528 C3512 0.931 . S
H3529 C3517 0.930 . S
H3530 C3518 0.956 . S
H3531 C3518 0.961 . S
H3532 C3518 0.961 . S
H3533 C3519 0.958 . S
H3534 C3519 0.961 . S
H3535 C3519 0.960 . S
C3536 C3537 1.391 . S
C3536 C3538 1.394 . S
C3536 H3552 0.931 . S
C3537 C3536 1.391 . S
C3537 C3541 1.376 . S
C3538 C3536 1.394 . S
C3538 C3539 1.369 . S
C3538 C3542 1.531 . S
C3539 C3538 1.369 . S
C3539 C3540 1.410 . S
C3539 C3547 1.503 . S
C3540 C3539 1.410 . S
C3540 C3541 1.392 . S
C3540 C3543 1.511 . S
C3541 C3537 1.376 . S
C3541 C3540 1.392 . S
C3541 H3553 0.929 . S
C3542 C3538 1.531 . S
C3542 H3554 0.960 . S
C3542 H3555 0.962 . S
C3542 H3556 0.960 . S
C3543 C3540 1.511 . S
C3543 H3557 0.961 . S
C3543 H3558 0.961 . S
C3543 H3559 0.961 . S
C3544 C3545 1.370 . S
C3544 C3546 1.363 . S
C3544 H3560 0.931 . S
C3545 C3544 1.370 . S
C3545 C3549 1.408 . S
C3546 C3544 1.363 . S
C3546 C3547 1.370 . S
C3546 C3550 1.524 . S
C3547 C3539 1.503 . S
C3547 C3546 1.370 . S
C3547 C3548 1.403 . S
C3548 C3547 1.403 . S
C3548 C3549 1.404 . S
C3548 C3551 1.539 . S
C3549 C3545 1.408 . S
C3549 C3548 1.404 . S
C3549 H3561 0.930 . S
C3550 C3546 1.524 . S
C3550 H3562 0.956 . S
C3550 H3563 0.961 . S
C3550 H3564 0.961 . S
C3551 C3548 1.539 . S
C3551 H3565 0.958 . S
C3551 H3566 0.961 . S
C3551 H3567 0.960 . S
H3552 C3536 0.931 . S
H3553 C3541 0.929 . S
H3554 C3542 0.960 . S
H3555 C3542 0.962 . S
H3556 C3542 0.960 . S
H3557 C3543 0.961 . S
H3558 C3543 0.961 . S
H3559 C3543 0.961 . S
H3560 C3544 0.931 . S
H3561 C3549 0.930 . S
H3562 C3550 0.956 . S
H3563 C3550 0.961 . S
H3564 C3550 0.961 . S
H3565 C3551 0.958 . S
H3566 C3551 0.961 . S
H3567 C3551 0.960 . S
C3568 C3569 1.391 . S
C3568 C3570 1.394 . S
C3568 H3584 0.931 . S
C3569 C3568 1.391 . S
C3569 C3573 1.376 . S
C3570 C3568 1.394 . S
C3570 C3571 1.369 . S
C3570 C3574 1.531 . S
C3571 C3570 1.369 . S
C3571 C3572 1.410 . S
C3571 C3579 1.503 . S
C3572 C3571 1.410 . S
C3572 C3573 1.392 . S
C3572 C3575 1.511 . S
C3573 C3569 1.376 . S
C3573 C3572 1.392 . S
C3573 H3585 0.929 . S
C3574 C3570 1.531 . S
C3574 H3586 0.960 . S
C3574 H3587 0.962 . S
C3574 H3588 0.960 . S
C3575 C3572 1.511 . S
C3575 H3589 0.961 . S
C3575 H3590 0.961 . S
C3575 H3591 0.961 . S
C3576 C3577 1.370 . S
C3576 C3578 1.363 . S
C3576 H3592 0.931 . S
C3577 C3576 1.370 . S
C3577 C3581 1.408 . S
C3578 C3576 1.363 . S
C3578 C3579 1.370 . S
C3578 C3582 1.524 . S
C3579 C3571 1.503 . S
C3579 C3578 1.370 . S
C3579 C3580 1.403 . S
C3580 C3579 1.403 . S
C3580 C3581 1.404 . S
C3580 C3583 1.539 . S
C3581 C3577 1.408 . S
C3581 C3580 1.404 . S
C3581 H3593 0.930 . S
C3582 C3578 1.524 . S
C3582 H3594 0.956 . S
C3582 H3595 0.961 . S
C3582 H3596 0.961 . S
C3583 C3580 1.539 . S
C3583 H3597 0.958 . S
C3583 H3598 0.961 . S
C3583 H3599 0.960 . S
H3584 C3568 0.931 . S
H3585 C3573 0.929 . S
H3586 C3574 0.960 . S
H3587 C3574 0.962 . S
H3588 C3574 0.960 . S
H3589 C3575 0.961 . S
H3590 C3575 0.961 . S
H3591 C3575 0.961 . S
H3592 C3576 0.931 . S
H3593 C3581 0.930 . S
H3594 C3582 0.956 . S
H3595 C3582 0.961 . S
H3596 C3582 0.961 . S
H3597 C3583 0.958 . S
H3598 C3583 0.961 . S
H3599 C3583 0.960 . S
C3600 C3601 1.391 . S
C3600 C3602 1.394 . S
C3600 H3616 0.931 . S
C3601 C3600 1.391 . S
C3601 C3605 1.376 . S
C3602 C3600 1.394 . S
C3602 C3603 1.369 . S
C3602 C3606 1.531 1_655 S
C3603 C3602 1.369 . S
C3603 C3604 1.410 . S
C3603 C3611 1.504 . S
C3604 C3603 1.410 . S
C3604 C3605 1.392 . S
C3604 C3607 1.511 . S
C3605 C3601 1.376 . S
C3605 C3604 1.392 . S
C3605 H3617 0.929 . S
C3606 C3602 1.531 1_455 S
C3606 H3618 0.960 . S
C3606 H3619 0.962 . S
C3606 H3620 0.960 . S
C3607 C3604 1.511 . S
C3607 H3621 0.961 . S
C3607 H3622 0.961 . S
C3607 H3623 0.961 . S
C3608 C3609 1.370 . S
C3608 C3610 1.363 . S
C3608 H3624 0.931 . S
C3609 C3608 1.370 . S
C3609 C3613 1.408 . S
C3610 C3608 1.363 . S
C3610 C3611 1.370 1_455 S
C3610 C3614 1.524 1_455 S
C3611 C3603 1.504 . S
C3611 C3610 1.370 1_655 S
C3611 C3612 1.402 1_655 S
C3612 C3611 1.402 1_455 S
C3612 C3613 1.404 . S
C3612 C3615 1.539 . S
C3613 C3609 1.408 . S
C3613 C3612 1.404 . S
C3613 H3625 0.930 . S
C3614 C3610 1.524 1_655 S
C3614 H3626 0.937 1_655 S
C3614 H3627 0.961 . S
C3614 H3628 0.961 . S
C3615 C3612 1.539 . S
C3615 H3629 0.958 . S
C3615 H3630 0.961 . S
C3615 H3631 0.960 1_455 S
H3616 C3600 0.931 . S
H3617 C3605 0.929 . S
H3618 C3606 0.960 . S
H3619 C3606 0.962 . S
H3620 C3606 0.960 . S
H3621 C3607 0.961 . S
H3622 C3607 0.961 . S
H3623 C3607 0.961 . S
H3624 C3608 0.931 . S
H3625 C3613 0.930 . S
H3626 C3614 0.937 1_455 S
H3627 C3614 0.961 . S
H3628 C3614 0.961 . S
H3629 C3615 0.958 . S
H3630 C3615 0.961 . S
H3631 C3615 0.960 1_655 S
C3632 C3633 1.391 . S
C3632 C3634 1.394 . S
C3632 H3648 0.931 . S
C3633 C3632 1.391 . S
C3633 C3637 1.376 . S
C3634 C3632 1.394 . S
C3634 C3635 1.369 . S
C3634 C3638 1.531 . S
C3635 C3634 1.369 . S
C3635 C3636 1.410 . S
C3635 C3643 1.503 . S
C3636 C3635 1.410 . S
C3636 C3637 1.392 . S
C3636 C3639 1.511 . S
C3637 C3633 1.376 . S
C3637 C3636 1.392 . S
C3637 H3649 0.929 . S
C3638 C3634 1.531 . S
C3638 H3650 0.960 . S
C3638 H3651 0.962 . S
C3638 H3652 0.960 . S
C3639 C3636 1.511 . S
C3639 H3653 0.961 . S
C3639 H3654 0.961 . S
C3639 H3655 0.961 . S
C3640 C3641 1.370 . S
C3640 C3642 1.363 . S
C3640 H3656 0.931 . S
C3641 C3640 1.370 . S
C3641 C3645 1.408 . S
C3642 C3640 1.363 . S
C3642 C3643 1.370 . S
C3642 C3646 1.524 . S
C3643 C3635 1.503 . S
C3643 C3642 1.370 . S
C3643 C3644 1.403 . S
C3644 C3643 1.403 . S
C3644 C3645 1.404 . S
C3644 C3647 1.539 . S
C3645 C3641 1.408 . S
C3645 C3644 1.404 . S
C3645 H3657 0.930 . S
C3646 C3642 1.524 . S
C3646 H3658 0.956 . S
C3646 H3659 0.961 . S
C3646 H3660 0.961 . S
C3647 C3644 1.539 . S
C3647 H3661 0.958 . S
C3647 H3662 0.961 . S
C3647 H3663 0.960 . S
H3648 C3632 0.931 . S
H3649 C3637 0.929 . S
H3650 C3638 0.960 . S
H3651 C3638 0.962 . S
H3652 C3638 0.960 . S
H3653 C3639 0.961 . S
H3654 C3639 0.961 . S
H3655 C3639 0.961 . S
H3656 C3640 0.931 . S
H3657 C3645 0.930 . S
H3658 C3646 0.956 . S
H3659 C3646 0.961 . S
H3660 C3646 0.961 . S
H3661 C3647 0.958 . S
H3662 C3647 0.961 . S
H3663 C3647 0.960 . S
C3664 C3665 1.391 . S
C3664 C3666 1.394 . S
C3664 H3680 0.931 . S
C3665 C3664 1.391 . S
C3665 C3669 1.376 . S
C3666 C3664 1.394 . S
C3666 C3667 1.369 . S
C3666 C3670 1.531 . S
C3667 C3666 1.369 . S
C3667 C3668 1.410 . S
C3667 C3675 1.503 . S
C3668 C3667 1.410 . S
C3668 C3669 1.392 . S
C3668 C3671 1.511 . S
C3669 C3665 1.376 . S
C3669 C3668 1.392 . S
C3669 H3681 0.929 . S
C3670 C3666 1.531 . S
C3670 H3682 0.960 . S
C3670 H3683 0.962 . S
C3670 H3684 0.960 . S
C3671 C3668 1.511 . S
C3671 H3685 0.961 . S
C3671 H3686 0.961 . S
C3671 H3687 0.961 . S
C3672 C3673 1.370 . S
C3672 C3674 1.363 . S
C3672 H3688 0.931 . S
C3673 C3672 1.370 . S
C3673 C3677 1.408 . S
C3674 C3672 1.363 . S
C3674 C3675 1.370 . S
C3674 C3678 1.524 . S
C3675 C3667 1.503 . S
C3675 C3674 1.370 . S
C3675 C3676 1.403 . S
C3676 C3675 1.403 . S
C3676 C3677 1.404 . S
C3676 C3679 1.539 . S
C3677 C3673 1.408 . S
C3677 C3676 1.404 . S
C3677 H3689 0.930 . S
C3678 C3674 1.524 . S
C3678 H3690 0.956 . S
C3678 H3691 0.961 . S
C3678 H3692 0.961 . S
C3679 C3676 1.539 . S
C3679 H3693 0.958 . S
C3679 H3694 0.961 . S
C3679 H3695 0.960 . S
H3680 C3664 0.931 . S
H3681 C3669 0.929 . S
H3682 C3670 0.960 . S
H3683 C3670 0.962 . S
H3684 C3670 0.960 . S
H3685 C3671 0.961 . S
H3686 C3671 0.961 . S
H3687 C3671 0.961 . S
H3688 C3672 0.931 . S
H3689 C3677 0.930 . S
H3690 C3678 0.956 . S
H3691 C3678 0.961 . S
H3692 C3678 0.961 . S
H3693 C3679 0.958 . S
H3694 C3679 0.961 . S
H3695 C3679 0.960 . S
C3696 C3697 1.391 . S
C3696 C3698 1.394 . S
C3696 H3712 0.931 . S
C3697 C3696 1.391 . S
C3697 C3701 1.376 . S
C3698 C3696 1.394 . S
C3698 C3699 1.369 . S
C3698 C3702 1.531 . S
C3699 C3698 1.369 . S
C3699 C3700 1.410 . S
C3699 C3707 1.503 . S
C3700 C3699 1.410 . S
C3700 C3701 1.392 . S
C3700 C3703 1.511 . S
C3701 C3697 1.376 . S
C3701 C3700 1.392 . S
C3701 H3713 0.929 . S
C3702 C3698 1.531 . S
C3702 H3714 0.960 . S
C3702 H3715 0.962 . S
C3702 H3716 0.960 . S
C3703 C3700 1.511 . S
C3703 H3717 0.961 . S
C3703 H3718 0.961 . S
C3703 H3719 0.961 . S
C3704 C3705 1.370 . S
C3704 C3706 1.363 . S
C3704 H3720 0.931 . S
C3705 C3704 1.370 . S
C3705 C3709 1.408 . S
C3706 C3704 1.363 . S
C3706 C3707 1.370 . S
C3706 C3710 1.524 . S
C3707 C3699 1.503 . S
C3707 C3706 1.370 . S
C3707 C3708 1.403 . S
C3708 C3707 1.403 . S
C3708 C3709 1.404 . S
C3708 C3711 1.539 . S
C3709 C3705 1.408 . S
C3709 C3708 1.404 . S
C3709 H3721 0.930 . S
C3710 C3706 1.524 . S
C3710 H3722 0.956 . S
C3710 H3723 0.961 . S
C3710 H3724 0.961 . S
C3711 C3708 1.539 . S
C3711 H3725 0.958 . S
C3711 H3726 0.961 . S
C3711 H3727 0.960 . S
H3712 C3696 0.931 . S
H3713 C3701 0.929 . S
H3714 C3702 0.960 . S
H3715 C3702 0.962 . S
H3716 C3702 0.960 . S
H3717 C3703 0.961 . S
H3718 C3703 0.961 . S
H3719 C3703 0.961 . S
H3720 C3704 0.931 . S
H3721 C3709 0.930 . S
H3722 C3710 0.956 . S
H3723 C3710 0.961 . S
H3724 C3710 0.961 . S
H3725 C3711 0.958 . S
H3726 C3711 0.961 . S
H3727 C3711 0.960 . S
C3728 C3729 1.391 . S
C3728 C3730 1.394 . S
C3728 H3744 0.931 . S
C3729 C3728 1.391 . S
C3729 C3733 1.376 . S
C3730 C3728 1.394 . S
C3730 C3731 1.369 . S
C3730 C3734 1.531 . S
C3731 C3730 1.369 . S
C3731 C3732 1.410 . S
C3731 C3739 1.503 . S
C3732 C3731 1.410 . S
C3732 C3733 1.392 . S
C3732 C3735 1.511 . S
C3733 C3729 1.376 . S
C3733 C3732 1.392 . S
C3733 H3745 0.929 . S
C3734 C3730 1.531 . S
C3734 H3746 0.960 . S
C3734 H3747 0.962 . S
C3734 H3748 0.960 . S
C3735 C3732 1.511 . S
C3735 H3749 0.961 . S
C3735 H3750 0.961 . S
C3735 H3751 0.961 . S
C3736 C3737 1.370 . S
C3736 C3738 1.363 . S
C3736 H3752 0.931 1_655 S
C3737 C3736 1.370 . S
C3737 C3741 1.408 . S
C3738 C3736 1.363 . S
C3738 C3739 1.370 . S
C3738 C3742 1.524 1_655 S
C3739 C3731 1.503 . S
C3739 C3738 1.370 . S
C3739 C3740 1.403 . S
C3740 C3739 1.403 . S
C3740 C3741 1.404 . S
C3740 C3743 1.539 . S
C3741 C3737 1.408 . S
C3741 C3740 1.404 . S
C3741 H3753 0.930 . S
C3742 C3738 1.524 1_455 S
C3742 H3754 0.956 1_455 S
C3742 H3755 0.961 . S
C3742 H3756 0.961 . S
C3743 C3740 1.539 . S
C3743 H3757 0.958 . S
C3743 H3758 0.961 . S
C3743 H3759 0.960 . S
H3744 C3728 0.931 . S
H3745 C3733 0.929 . S
H3746 C3734 0.960 . S
H3747 C3734 0.962 . S
H3748 C3734 0.960 . S
H3749 C3735 0.961 . S
H3750 C3735 0.961 . S
H3751 C3735 0.961 . S
H3752 C3736 0.931 1_455 S
H3753 C3741 0.930 . S
H3754 C3742 0.956 1_655 S
H3755 C3742 0.961 . S
H3756 C3742 0.961 . S
H3757 C3743 0.958 . S
H3758 C3743 0.961 . S
H3759 C3743 0.960 . S
C3760 C3761 1.391 . S
C3760 C3762 1.394 . S
C3760 H3776 0.931 . S
C3761 C3760 1.391 . S
C3761 C3765 1.376 . S
C3762 C3760 1.394 . S
C3762 C3763 1.369 . S
C3762 C3766 1.531 . S
C3763 C3762 1.369 . S
C3763 C3764 1.410 . S
C3763 C3771 1.503 . S
C3764 C3763 1.410 . S
C3764 C3765 1.392 . S
C3764 C3767 1.511 . S
C3765 C3761 1.376 . S
C3765 C3764 1.392 . S
C3765 H3777 0.929 . S
C3766 C3762 1.531 . S
C3766 H3778 0.960 . S
C3766 H3779 0.962 . S
C3766 H3780 0.960 . S
C3767 C3764 1.511 . S
C3767 H3781 0.961 . S
C3767 H3782 0.961 . S
C3767 H3783 0.961 . S
C3768 C3769 1.370 . S
C3768 C3770 1.363 . S
C3768 H3784 0.931 . S
C3769 C3768 1.370 . S
C3769 C3773 1.408 . S
C3770 C3768 1.363 . S
C3770 C3771 1.370 . S
C3770 C3774 1.524 . S
C3771 C3763 1.503 . S
C3771 C3770 1.370 . S
C3771 C3772 1.403 . S
C3772 C3771 1.403 . S
C3772 C3773 1.404 . S
C3772 C3775 1.539 . S
C3773 C3769 1.408 . S
C3773 C3772 1.404 . S
C3773 H3785 0.930 . S
C3774 C3770 1.524 . S
C3774 H3786 0.956 . S
C3774 H3787 0.961 . S
C3774 H3788 0.961 . S
C3775 C3772 1.539 . S
C3775 H3789 0.958 . S
C3775 H3790 0.961 . S
C3775 H3791 0.960 . S
H3776 C3760 0.931 . S
H3777 C3765 0.929 . S
H3778 C3766 0.960 . S
H3779 C3766 0.962 . S
H3780 C3766 0.960 . S
H3781 C3767 0.961 . S
H3782 C3767 0.961 . S
H3783 C3767 0.961 . S
H3784 C3768 0.931 . S
H3785 C3773 0.930 . S
H3786 C3774 0.956 . S
H3787 C3774 0.961 . S
H3788 C3774 0.961 . S
H3789 C3775 0.958 . S
H3790 C3775 0.961 . S
H3791 C3775 0.960 . S
C3792 C3793 1.391 . S
C3792 C3794 1.394 . S
C3792 H3808 0.931 . S
C3793 C3792 1.391 . S
C3793 C3797 1.376 . S
C3794 C3792 1.394 . S
C3794 C3795 1.369 . S
C3794 C3798 1.531 . S
C3795 C3794 1.369 . S
C3795 C3796 1.410 . S
C3795 C3803 1.503 . S
C3796 C3795 1.410 . S
C3796 C3797 1.392 . S
C3796 C3799 1.511 . S
C3797 C3793 1.376 . S
C3797 C3796 1.392 . S
C3797 H3809 0.929 . S
C3798 C3794 1.531 . S
C3798 H3810 0.960 . S
C3798 H3811 0.962 . S
C3798 H3812 0.960 . S
C3799 C3796 1.511 . S
C3799 H3813 0.961 . S
C3799 H3814 0.961 . S
C3799 H3815 0.961 . S
C3800 C3801 1.370 . S
C3800 C3802 1.363 . S
C3800 H3816 0.931 . S
C3801 C3800 1.370 . S
C3801 C3805 1.408 . S
C3802 C3800 1.363 . S
C3802 C3803 1.370 . S
C3802 C3806 1.524 . S
C3803 C3795 1.503 . S
C3803 C3802 1.370 . S
C3803 C3804 1.403 . S
C3804 C3803 1.403 . S
C3804 C3805 1.404 . S
C3804 C3807 1.539 . S
C3805 C3801 1.408 . S
C3805 C3804 1.404 . S
C3805 H3817 0.930 . S
C3806 C3802 1.524 . S
C3806 H3818 0.956 . S
C3806 H3819 0.961 . S
C3806 H3820 0.961 . S
C3807 C3804 1.539 . S
C3807 H3821 0.958 . S
C3807 H3822 0.961 . S
C3807 H3823 0.960 . S
H3808 C3792 0.931 . S
H3809 C3797 0.929 . S
H3810 C3798 0.960 . S
H3811 C3798 0.962 . S
H3812 C3798 0.960 . S
H3813 C3799 0.961 . S
H3814 C3799 0.961 . S
H3815 C3799 0.961 . S
H3816 C3800 0.931 . S
H3817 C3805 0.930 . S
H3818 C3806 0.956 . S
H3819 C3806 0.961 . S
H3820 C3806 0.961 . S
H3821 C3807 0.958 . S
H3822 C3807 0.961 . S
H3823 C3807 0.960 . S
C3824 C3825 1.391 . S
C3824 C3826 1.394 . S
C3824 H3840 0.931 . S
C3825 C3824 1.391 . S
C3825 C3829 1.376 . S
C3826 C3824 1.394 . S
C3826 C3827 1.369 . S
C3826 C3830 1.531 . S
C3827 C3826 1.369 . S
C3827 C3828 1.410 . S
C3827 C3835 1.503 . S
C3828 C3827 1.410 . S
C3828 C3829 1.392 . S
C3828 C3831 1.511 . S
C3829 C3825 1.376 . S
C3829 C3828 1.392 . S
C3829 H3841 0.929 . S
C3830 C3826 1.531 . S
C3830 H3842 0.960 . S
C3830 H3843 0.962 . S
C3830 H3844 0.960 . S
C3831 C3828 1.511 . S
C3831 H3845 0.961 . S
C3831 H3846 0.961 . S
C3831 H3847 0.961 . S
C3832 C3833 1.370 1_545 S
C3832 C3834 1.363 1_545 S
C3832 H3848 0.931 . S
C3833 C3832 1.370 1_565 S
C3833 C3837 1.408 . S
C3834 C3832 1.363 1_565 S
C3834 C3835 1.370 . S
C3834 C3838 1.524 . S
C3835 C3827 1.503 . S
C3835 C3834 1.370 . S
C3835 C3836 1.403 . S
C3836 C3835 1.403 . S
C3836 C3837 1.404 . S
C3836 C3839 1.539 . S
C3837 C3833 1.408 . S
C3837 C3836 1.404 . S
C3837 H3849 0.930 . S
C3838 C3834 1.524 . S
C3838 H3850 0.956 . S
C3838 H3851 0.961 . S
C3838 H3852 0.961 1_565 S
C3839 C3836 1.539 . S
C3839 H3853 0.958 . S
C3839 H3854 0.961 . S
C3839 H3855 0.960 . S
H3840 C3824 0.931 . S
H3841 C3829 0.929 . S
H3842 C3830 0.960 . S
H3843 C3830 0.962 . S
H3844 C3830 0.960 . S
H3845 C3831 0.961 . S
H3846 C3831 0.961 . S
H3847 C3831 0.961 . S
H3848 C3832 0.931 . S
H3849 C3837 0.930 . S
H3850 C3838 0.956 . S
H3851 C3838 0.961 . S
H3852 C3838 0.961 1_545 S
H3853 C3839 0.958 . S
H3854 C3839 0.961 . S
H3855 C3839 0.960 . S
C3856 C3857 1.391 . S
C3856 C3858 1.394 . S
C3856 H3872 0.931 . S
C3857 C3856 1.391 . S
C3857 C3861 1.376 . S
C3858 C3856 1.394 . S
C3858 C3859 1.369 . S
C3858 C3862 1.531 . S
C3859 C3858 1.369 . S
C3859 C3860 1.410 . S
C3859 C3867 1.503 . S
C3860 C3859 1.410 . S
C3860 C3861 1.392 . S
C3860 C3863 1.511 . S
C3861 C3857 1.376 . S
C3861 C3860 1.392 . S
C3861 H3873 0.929 . S
C3862 C3858 1.531 . S
C3862 H3874 0.960 . S
C3862 H3875 0.962 . S
C3862 H3876 0.960 . S
C3863 C3860 1.511 . S
C3863 H3877 0.961 . S
C3863 H3878 0.961 . S
C3863 H3879 0.961 . S
C3864 C3865 1.370 . S
C3864 C3866 1.363 . S
C3864 H3880 0.931 . S
C3865 C3864 1.370 . S
C3865 C3869 1.408 . S
C3866 C3864 1.363 . S
C3866 C3867 1.370 . S
C3866 C3870 1.524 . S
C3867 C3859 1.503 . S
C3867 C3866 1.370 . S
C3867 C3868 1.403 . S
C3868 C3867 1.403 . S
C3868 C3869 1.404 . S
C3868 C3871 1.539 . S
C3869 C3865 1.408 . S
C3869 C3868 1.404 . S
C3869 H3881 0.930 . S
C3870 C3866 1.524 . S
C3870 H3882 0.956 . S
C3870 H3883 0.961 . S
C3870 H3884 0.961 . S
C3871 C3868 1.539 . S
C3871 H3885 0.958 . S
C3871 H3886 0.961 . S
C3871 H3887 0.960 . S
H3872 C3856 0.931 . S
H3873 C3861 0.929 . S
H3874 C3862 0.960 . S
H3875 C3862 0.962 . S
H3876 C3862 0.960 . S
H3877 C3863 0.961 . S
H3878 C3863 0.961 . S
H3879 C3863 0.961 . S
H3880 C3864 0.931 . S
H3881 C3869 0.930 . S
H3882 C3870 0.956 . S
H3883 C3870 0.961 . S
H3884 C3870 0.961 . S
H3885 C3871 0.958 . S
H3886 C3871 0.961 . S
H3887 C3871 0.960 . S
C3888 C3889 1.391 . S
C3888 C3890 1.394 . S
C3888 H3904 0.931 . S
C3889 C3888 1.391 . S
C3889 C3893 1.376 . S
C3890 C3888 1.394 . S
C3890 C3891 1.369 . S
C3890 C3894 1.531 . S
C3891 C3890 1.369 . S
C3891 C3892 1.410 . S
C3891 C3899 1.503 . S
C3892 C3891 1.410 . S
C3892 C3893 1.392 . S
C3892 C3895 1.511 . S
C3893 C3889 1.376 . S
C3893 C3892 1.392 . S
C3893 H3905 0.929 . S
C3894 C3890 1.531 . S
C3894 H3906 0.960 . S
C3894 H3907 0.962 . S
C3894 H3908 0.960 . S
C3895 C3892 1.511 . S
C3895 H3909 0.961 . S
C3895 H3910 0.961 . S
C3895 H3911 0.961 . S
C3896 C3897 1.370 1_556 S
C3896 C3898 1.363 . S
C3896 H3912 0.931 . S
C3897 C3896 1.370 1_554 S
C3897 C3901 1.408 . S
C3898 C3896 1.363 . S
C3898 C3899 1.370 1_556 S
C3898 C3902 1.524 . S
C3899 C3891 1.503 . S
C3899 C3898 1.370 1_554 S
C3899 C3900 1.403 . S
C3900 C3899 1.403 . S
C3900 C3901 1.404 . S
C3900 C3903 1.539 . S
C3901 C3897 1.408 . S
C3901 C3900 1.404 . S
C3901 H3913 0.930 . S
C3902 C3898 1.524 . S
C3902 H3914 0.956 . S
C3902 H3915 0.961 . S
C3902 H3916 0.961 . S
C3903 C3900 1.539 . S
C3903 H3917 0.958 . S
C3903 H3918 0.961 . S
C3903 H3919 0.960 . S
H3904 C3888 0.931 . S
H3905 C3893 0.929 . S
H3906 C3894 0.960 . S
H3907 C3894 0.962 . S
H3908 C3894 0.960 . S
H3909 C3895 0.961 . S
H3910 C3895 0.961 . S
H3911 C3895 0.961 . S
H3912 C3896 0.931 . S
H3913 C3901 0.930 . S
H3914 C3902 0.956 . S
H3915 C3902 0.961 . S
H3916 C3902 0.961 . S
H3917 C3903 0.958 . S
H3918 C3903 0.961 . S
H3919 C3903 0.960 . S
C3920 C3921 1.391 . S
C3920 C3922 1.394 . S
C3920 H3936 0.931 . S
C3921 C3920 1.391 . S
C3921 C3925 1.376 . S
C3922 C3920 1.394 . S
C3922 C3923 1.369 . S
C3922 C3926 1.531 . S
C3923 C3922 1.369 . S
C3923 C3924 1.410 . S
C3923 C3931 1.503 . S
C3924 C3923 1.410 . S
C3924 C3925 1.392 . S
C3924 C3927 1.511 . S
C3925 C3921 1.376 . S
C3925 C3924 1.392 . S
C3925 H3937 0.929 . S
C3926 C3922 1.531 . S
C3926 H3938 0.960 . S
C3926 H3939 0.962 . S
C3926 H3940 0.960 . S
C3927 C3924 1.511 . S
C3927 H3941 0.961 . S
C3927 H3942 0.961 . S
C3927 H3943 0.961 . S
C3928 C3929 1.370 . S
C3928 C3930 1.363 . S
C3928 H3944 0.931 . S
C3929 C3928 1.370 . S
C3929 C3933 1.408 . S
C3930 C3928 1.363 . S
C3930 C3931 1.370 . S
C3930 C3934 1.524 . S
C3931 C3923 1.503 . S
C3931 C3930 1.370 . S
C3931 C3932 1.403 . S
C3932 C3931 1.403 . S
C3932 C3933 1.404 . S
C3932 C3935 1.539 . S
C3933 C3929 1.408 . S
C3933 C3932 1.404 . S
C3933 H3945 0.930 . S
C3934 C3930 1.524 . S
C3934 H3946 0.956 . S
C3934 H3947 0.961 . S
C3934 H3948 0.961 . S
C3935 C3932 1.539 . S
C3935 H3949 0.958 . S
C3935 H3950 0.961 . S
C3935 H3951 0.960 . S
H3936 C3920 0.931 . S
H3937 C3925 0.929 . S
H3938 C3926 0.960 . S
H3939 C3926 0.962 . S
H3940 C3926 0.960 . S
H3941 C3927 0.961 . S
H3942 C3927 0.961 . S
H3943 C3927 0.961 . S
H3944 C3928 0.931 . S
H3945 C3933 0.930 . S
H3946 C3934 0.956 . S
H3947 C3934 0.961 . S
H3948 C3934 0.961 . S
H3949 C3935 0.958 . S
H3950 C3935 0.961 . S
H3951 C3935 0.960 . S
C3952 C3953 1.391 . S
C3952 C3954 1.396 . S
C3952 H3968 0.934 . S
C3953 C3952 1.391 . S
C3953 C3957 1.376 . S
C3954 C3952 1.396 . S
C3954 C3955 1.370 . S
C3954 C3958 1.527 1_554 S
C3955 C3954 1.370 . S
C3955 C3956 1.410 . S
C3955 C3963 1.503 1_554 S
C3956 C3955 1.410 . S
C3956 C3957 1.392 . S
C3956 C3959 1.511 . S
C3957 C3953 1.376 . S
C3957 C3956 1.392 . S
C3957 H3969 0.929 . S
C3958 C3954 1.527 1_556 S
C3958 H3970 0.960 . S
C3958 H3971 0.962 . S
C3958 H3972 0.960 . S
C3959 C3956 1.511 . S
C3959 H3973 0.961 . S
C3959 H3974 0.961 . S
C3959 H3975 0.961 . S
C3960 C3961 1.370 . S
C3960 C3962 1.363 . S
C3960 H3976 0.931 . S
C3961 C3960 1.370 . S
C3961 C3965 1.408 1_556 S
C3962 C3960 1.363 . S
C3962 C3963 1.370 . S
C3962 C3966 1.524 . S
C3963 C3955 1.503 1_556 S
C3963 C3962 1.370 . S
C3963 C3964 1.403 1_556 S
C3964 C3963 1.403 1_554 S
C3964 C3965 1.404 . S
C3964 C3967 1.539 . S
C3965 C3961 1.408 1_554 S
C3965 C3964 1.404 . S
C3965 H3977 0.930 . S
C3966 C3962 1.524 . S
C3966 H3978 0.956 . S
C3966 H3979 0.961 . S
C3966 H3980 0.961 . S
C3967 C3964 1.539 . S
C3967 H3981 0.958 . S
C3967 H3982 0.961 . S
C3967 H3983 0.960 . S
H3968 C3952 0.934 . S
H3969 C3957 0.929 . S
H3970 C3958 0.960 . S
H3971 C3958 0.962 . S
H3972 C3958 0.960 . S
H3973 C3959 0.961 . S
H3974 C3959 0.961 . S
H3975 C3959 0.961 . S
H3976 C3960 0.931 . S
H3977 C3965 0.930 . S
H3978 C3966 0.956 . S
H3979 C3966 0.961 . S
H3980 C3966 0.961 . S
H3981 C3967 0.958 . S
H3982 C3967 0.961 . S
H3983 C3967 0.960 . S
C3984 C3985 1.391 . S
C3984 C3986 1.394 . S
C3984 H4000 0.931 . S
C3985 C3984 1.391 . S
C3985 C3989 1.376 . S
C3986 C3984 1.394 . S
C3986 C3987 1.369 . S
C3986 C3990 1.531 . S
C3987 C3986 1.369 . S
C3987 C3988 1.410 . S
C3987 C3995 1.503 . S
C3988 C3987 1.410 . S
C3988 C3989 1.392 . S
C3988 C3991 1.511 . S
C3989 C3985 1.376 . S
C3989 C3988 1.392 . S
C3989 H4001 0.929 . S
C3990 C3986 1.531 . S
C3990 H4002 0.960 . S
C3990 H4003 0.962 . S
C3990 H4004 0.960 . S
C3991 C3988 1.511 . S
C3991 H4005 0.961 . S
C3991 H4006 0.961 . S
C3991 H4007 0.961 . S
C3992 C3993 1.370 . S
C3992 C3994 1.363 . S
C3992 H4008 0.931 . S
C3993 C3992 1.370 . S
C3993 C3997 1.408 . S
C3994 C3992 1.363 . S
C3994 C3995 1.370 . S
C3994 C3998 1.524 . S
C3995 C3987 1.503 . S
C3995 C3994 1.370 . S
C3995 C3996 1.403 . S
C3996 C3995 1.403 . S
C3996 C3997 1.404 . S
C3996 C3999 1.539 . S
C3997 C3993 1.408 . S
C3997 C3996 1.404 . S
C3997 H4009 0.930 . S
C3998 C3994 1.524 . S
C3998 H4010 0.956 . S
C3998 H4011 0.961 . S
C3998 H4012 0.961 . S
C3999 C3996 1.539 . S
C3999 H4013 0.958 . S
C3999 H4014 0.961 . S
C3999 H4015 0.960 . S
H4000 C3984 0.931 . S
H4001 C3989 0.929 . S
H4002 C3990 0.960 . S
H4003 C3990 0.962 . S
H4004 C3990 0.960 . S
H4005 C3991 0.961 . S
H4006 C3991 0.961 . S
H4007 C3991 0.961 . S
H4008 C3992 0.931 . S
H4009 C3997 0.930 . S
H4010 C3998 0.956 . S
H4011 C3998 0.961 . S
H4012 C3998 0.961 . S
H4013 C3999 0.958 . S
H4014 C3999 0.961 . S
H4015 C3999 0.960 . S
C4016 C4017 1.391 . S
C4016 C4018 1.394 . S
C4016 H4032 0.931 . S
C4017 C4016 1.391 . S
C4017 C4021 1.376 . S
C4018 C4016 1.394 . S
C4018 C4019 1.369 . S
C4018 C4022 1.531 . S
C4019 C4018 1.369 . S
C4019 C4020 1.410 . S
C4019 C4027 1.503 . S
C4020 C4019 1.410 . S
C4020 C4021 1.392 . S
C4020 C4023 1.511 . S
C4021 C4017 1.376 . S
C4021 C4020 1.392 . S
C4021 H4033 0.929 . S
C4022 C4018 1.531 . S
C4022 H4034 0.960 . S
C4022 H4035 0.962 . S
C4022 H4036 0.960 . S
C4023 C4020 1.511 . S
C4023 H4037 0.961 . S
C4023 H4038 0.961 . S
C4023 H4039 0.961 . S
C4024 C4025 1.370 . S
C4024 C4026 1.363 . S
C4024 H4040 0.931 . S
C4025 C4024 1.370 . S
C4025 C4029 1.408 . S
C4026 C4024 1.363 . S
C4026 C4027 1.370 . S
C4026 C4030 1.524 . S
C4027 C4019 1.503 . S
C4027 C4026 1.370 . S
C4027 C4028 1.403 . S
C4028 C4027 1.403 . S
C4028 C4029 1.404 . S
C4028 C4031 1.539 . S
C4029 C4025 1.408 . S
C4029 C4028 1.404 . S
C4029 H4041 0.930 . S
C4030 C4026 1.524 . S
C4030 H4042 0.956 . S
C4030 H4043 0.961 . S
C4030 H4044 0.961 . S
C4031 C4028 1.539 . S
C4031 H4045 0.958 . S
C4031 H4046 0.961 . S
C4031 H4047 0.960 . S
H4032 C4016 0.931 . S
H4033 C4021 0.929 . S
H4034 C4022 0.960 . S
H4035 C4022 0.962 . S
H4036 C4022 0.960 . S
H4037 C4023 0.961 . S
H4038 C4023 0.961 . S
H4039 C4023 0.961 . S
H4040 C4024 0.931 . S
H4041 C4029 0.930 . S
H4042 C4030 0.956 . S
H4043 C4030 0.961 . S
H4044 C4030 0.961 . S
H4045 C4031 0.958 . S
H4046 C4031 0.961 . S
H4047 C4031 0.960 . S
C977 C109 2.225 . S
C985 C338 2.210 1_556 S
C1009 C65 2.133 . S
C1017 C395 2.139 . S
C1041 C75 1.212 . S
C1049 C418 1.182 . S
C1081 C472 1.398 . S
C1073 C84 1.402 . S
C1105 C25 1.342 . S
C1113 C512 1.333 . S
C1145 C543 0.507 . S
C1137 C28 0.447 . S
C1177 C595 1.351 . S
C1169 C47 1.289 . S
C1201 C9 1.857 . S
C1209 C618 1.793 . S
C1241 C355 2.539 . S
C1233 C233 2.544 . S
C1265 C249 0.474 . S
C1273 C392 0.553 . S
C1305 C435 1.332 . S
C1297 C275 1.343 . S
C1337 C458 1.336 . S
C1329 C173 1.351 . S
C1361 C224 1.948 . S
C1369 C498 1.938 . S
C1401 C546 1.439 . S
C1393 C243 1.465 . S
C1433 C592 0.355 . S
C1425 C266 0.400 . S
C1465 C635 2.019 . S
C1457 C179 2.020 . S
C1497 C352 1.542 1_565 S
C1489 C163 1.519 . S
C1521 C289 1.960 . S
C1529 C675 1.964 . S
C1561 C707 2.583 . S
C1553 C333 2.603 . S
C1593 C738 0.579 1_655 S
C1585 C308 0.611 . S
C1617 C123 1.523 . S
C1625 C632 1.468 . S
C1649 C126 1.554 . S
C1657 C432 1.591 . S
C1681 C327 2.298 . S
C1689 C795 2.287 . S
C1721 C818 0.625 . S
C1713 C299 0.663 . S
C1753 C347 2.207 . S
C1745 C67 2.238 . S
C1785 C826 2.171 . S
C1777 C98 2.132 . S
C1809 C89 1.259 . S
C1817 C427 1.236 . S
C1841 C79 1.457 . S
C1849 C783 1.453 . S
C1881 C503 1.325 . S
C1873 C11 1.335 . S
C1905 C51 0.516 . S
C1913 C712 0.528 . S
C1945 C586 1.448 . S
C1937 C33 1.355 . S
C1977 C867 1.772 . S
C1969 C14 1.844 . S
C2009 C346 2.527 . S
C2001 C140 2.520 . S
C2041 C823 0.510 . S
C2033 C319 0.559 . S
C2065 C112 1.367 . S
C2073 C426 1.363 . S
C2097 C285 1.357 . S
C2105 C787 1.346 . S
C2129 C149 1.995 . S
C2137 C507 1.973 . S
C2169 C715 1.469 . S
C2161 C313 1.484 . S
C2193 C121 0.367 . S
C2201 C583 0.363 . S
C2225 C291 2.048 . S
C2233 C866 2.038 . S
C2257 C182 1.553 . S
C2265 C343 1.528 . S
C2289 C168 1.948 . S
C2297 C666 1.982 . S
C2321 C263 2.656 . S
C2329 C538 2.622 . S
C2353 C247 0.672 . S
C2361 C747 0.650 . S
C2393 C863 1.464 . S
C2385 C277 1.464 . S
C2417 C219 1.630 . S
C2425 C423 1.586 . S
C2457 C466 2.332 . S
C2449 C257 2.343 . S
C2489 C387 0.620 . S
C2481 C201 0.662 . S
C2513 C81 2.223 . S
C2521 C898 2.196 . S
C2553 C835 2.142 . S
C2545 C93 2.133 . S
C2577 C103 1.215 . S
C2585 C938 1.186 1_556 S
C2609 C56 1.421 . S
C2617 C792 1.398 . S
C2641 C53 1.316 . S
C2649 C672 1.342 . S
C2681 C703 0.507 . S
C2673 C0 0.501 . S
C2713 C755 1.352 . S
C2705 C19 1.282 . S
C2745 C858 1.784 . S
C2737 C37 1.823 . S
C2777 C915 2.544 . S
C2769 C261 2.542 . S
C2801 C193 0.509 . S
C2809 C832 0.534 . S
C2841 C955 1.341 . S
C2833 C205 1.344 . S
C2873 C778 1.317 . S
C2865 C215 1.332 . S
C2905 C658 1.950 . S
C2897 C252 1.907 . S
C2929 C187 1.471 . S
C2937 C706 1.449 . S
C2969 C752 0.362 . S
C2961 C196 0.396 . S
C2993 C221 2.019 . S
C3001 C875 2.019 . S
C3033 C912 1.519 . S
C3025 C317 1.561 . S
C3057 C135 1.966 . S
C3065 C515 1.967 . S
C3097 C547 2.590 . S
C3089 C151 2.616 . S
C3129 C578 0.599 . S
C3121 C154 0.607 . S
C3161 C872 1.485 . S
C3153 C305 1.492 . S
C3185 C280 1.581 . S
C3193 C952 1.586 . S
C3225 C475 2.286 . S
C3217 C145 2.297 . S
C3257 C378 0.654 . S
C3249 C117 0.624 . S
C3281 C95 2.244 . S
C3289 C907 2.205 . S
C3321 C386 2.170 . S
C3313 C70 2.131 . S
C3345 C61 1.248 . S
C3353 C947 1.221 . S
C3377 C107 1.462 . S
C3385 C463 1.437 . S
C3409 C39 1.335 . S
C3417 C663 1.325 . S
C3449 C552 0.507 . S
C3441 C23 0.504 . S
C3473 C5 1.412 . S
C3481 C746 1.417 . S
C3505 C42 1.834 . S
C3513 C627 1.775 . S
C3545 C906 2.522 . S
C3537 C322 2.508 . S
C3569 C165 0.547 . S
C3577 C383 0.501 . S
C3609 C946 1.361 . S
C3601 C294 1.363 . S
C3633 C131 1.358 . S
C3641 C467 1.348 . S
C3665 C331 1.993 . S
C3673 C667 1.963 . S
C3705 C555 1.485 . S
C3697 C159 1.491 . S
C3729 C303 0.309 . S
C3737 C743 0.388 . S
C3769 C626 2.037 . S
C3761 C137 2.048 . S
C3801 C903 1.529 . S
C3793 C238 1.552 . S
C3833 C506 1.986 1_665 S
C3825 C210 1.962 . S
C3857 C235 2.654 . S
C3865 C698 2.623 . S
C3897 C587 0.639 . S
C3889 C191 0.649 . S
C3921 C207 1.512 . S
C3929 C623 1.440 . S
C3953 C177 1.631 . S
C3961 C943 1.585 . S
C3993 C786 2.334 . S
C3985 C229 2.338 1_565 S
C4025 C827 0.671 . S
C4017 C271 0.596 . S
