# Generated by pormake.
# Topology ocu, (6,8)-cn, num edge types: 1
# Building blocks:
#     Node 0, Type 0, BuildingBlock: KUMBUR_clean_sbu_0, # of connection points: 6
#     Node 1, Type 0, BuildingBlock: KUMBUR_clean_sbu_0, # of connection points: 6
#     Node 2, Type 0, BuildingBlock: KUMBUR_clean_sbu_0, # of connection points: 6
#     Node 3, Type 0, BuildingBlock: KUMBUR_clean_sbu_0, # of connection points: 6
#     Node 4, Type 0, BuildingBlock: KUMBUR_clean_sbu_0, # of connection points: 6
#     Node 5, Type 0, BuildingBlock: KUMBUR_clean_sbu_0, # of connection points: 6
#     Node 6, Type 0, BuildingBlock: KUMBUR_clean_sbu_0, # of connection points: 6
#     Node 7, Type 0, BuildingBlock: KUMBUR_clean_sbu_0, # of connection points: 6
#     Node 8, Type 1, BuildingBlock: AJUNOK_clean_sbu_0, # of connection points: 8
#     Node 9, Type 1, BuildingBlock: AJUNOK_clean_sbu_0, # of connection points: 8
#     Node 10, Type 1, BuildingBlock: AJUNOK_clean_sbu_0, # of connection points: 8
#     Node 11, Type 1, BuildingBlock: AJUNOK_clean_sbu_0, # of connection points: 8
#     Node 12, Type 1, BuildingBlock: AJUNOK_clean_sbu_0, # of connection points: 8
#     Node 13, Type 1, BuildingBlock: AJUNOK_clean_sbu_0, # of connection points: 8
#     Edge 14, Type (0, 1), BuildingBlock: XIVTED_clean_linker_0, # of connection points: 2
#     Edge 15, Type (0, 1), BuildingBlock: XIVTED_clean_linker_0, # of connection points: 2
#     Edge 16, Type (0, 1), BuildingBlock: XIVTED_clean_linker_0, # of connection points: 2
#     Edge 17, Type (0, 1), BuildingBlock: XIVTED_clean_linker_0, # of connection points: 2
#     Edge 18, Type (0, 1), BuildingBlock: XIVTED_clean_linker_0, # of connection points: 2
#     Edge 19, Type (0, 1), BuildingBlock: XIVTED_clean_linker_0, # of connection points: 2
#     Edge 20, Type (0, 1), BuildingBlock: XIVTED_clean_linker_0, # of connection points: 2
#     Edge 21, Type (0, 1), BuildingBlock: XIVTED_clean_linker_0, # of connection points: 2
#     Edge 22, Type (0, 1), BuildingBlock: XIVTED_clean_linker_0, # of connection points: 2
#     Edge 23, Type (0, 1), BuildingBlock: XIVTED_clean_linker_0, # of connection points: 2
#     Edge 24, Type (0, 1), BuildingBlock: XIVTED_clean_linker_0, # of connection points: 2
#     Edge 25, Type (0, 1), BuildingBlock: XIVTED_clean_linker_0, # of connection points: 2
#     Edge 26, Type (0, 1), BuildingBlock: XIVTED_clean_linker_0, # of connection points: 2
#     Edge 27, Type (0, 1), BuildingBlock: XIVTED_clean_linker_0, # of connection points: 2
#     Edge 28, Type (0, 1), BuildingBlock: XIVTED_clean_linker_0, # of connection points: 2
#     Edge 29, Type (0, 1), BuildingBlock: XIVTED_clean_linker_0, # of connection points: 2
#     Edge 30, Type (0, 1), BuildingBlock: XIVTED_clean_linker_0, # of connection points: 2
#     Edge 31, Type (0, 1), BuildingBlock: XIVTED_clean_linker_0, # of connection points: 2
#     Edge 32, Type (0, 1), BuildingBlock: XIVTED_clean_linker_0, # of connection points: 2
#     Edge 33, Type (0, 1), BuildingBlock: XIVTED_clean_linker_0, # of connection points: 2
#     Edge 34, Type (0, 1), BuildingBlock: XIVTED_clean_linker_0, # of connection points: 2
#     Edge 35, Type (0, 1), BuildingBlock: XIVTED_clean_linker_0, # of connection points: 2
#     Edge 36, Type (0, 1), BuildingBlock: XIVTED_clean_linker_0, # of connection points: 2
#     Edge 37, Type (0, 1), BuildingBlock: XIVTED_clean_linker_0, # of connection points: 2
#     Edge 38, Type (0, 1), BuildingBlock: XIVTED_clean_linker_0, # of connection points: 2
#     Edge 39, Type (0, 1), BuildingBlock: XIVTED_clean_linker_0, # of connection points: 2
#     Edge 40, Type (0, 1), BuildingBlock: XIVTED_clean_linker_0, # of connection points: 2
#     Edge 41, Type (0, 1), BuildingBlock: XIVTED_clean_linker_0, # of connection points: 2
#     Edge 42, Type (0, 1), BuildingBlock: XIVTED_clean_linker_0, # of connection points: 2
#     Edge 43, Type (0, 1), BuildingBlock: XIVTED_clean_linker_0, # of connection points: 2
#     Edge 44, Type (0, 1), BuildingBlock: XIVTED_clean_linker_0, # of connection points: 2
#     Edge 45, Type (0, 1), BuildingBlock: XIVTED_clean_linker_0, # of connection points: 2
#     Edge 46, Type (0, 1), BuildingBlock: XIVTED_clean_linker_0, # of connection points: 2
#     Edge 47, Type (0, 1), BuildingBlock: XIVTED_clean_linker_0, # of connection points: 2
#     Edge 48, Type (0, 1), BuildingBlock: XIVTED_clean_linker_0, # of connection points: 2
#     Edge 49, Type (0, 1), BuildingBlock: XIVTED_clean_linker_0, # of connection points: 2
#     Edge 50, Type (0, 1), BuildingBlock: XIVTED_clean_linker_0, # of connection points: 2
#     Edge 51, Type (0, 1), BuildingBlock: XIVTED_clean_linker_0, # of connection points: 2
#     Edge 52, Type (0, 1), BuildingBlock: XIVTED_clean_linker_0, # of connection points: 2
#     Edge 53, Type (0, 1), BuildingBlock: XIVTED_clean_linker_0, # of connection points: 2
#     Edge 54, Type (0, 1), BuildingBlock: XIVTED_clean_linker_0, # of connection points: 2
#     Edge 55, Type (0, 1), BuildingBlock: XIVTED_clean_linker_0, # of connection points: 2
#     Edge 56, Type (0, 1), BuildingBlock: XIVTED_clean_linker_0, # of connection points: 2
#     Edge 57, Type (0, 1), BuildingBlock: XIVTED_clean_linker_0, # of connection points: 2
#     Edge 58, Type (0, 1), BuildingBlock: XIVTED_clean_linker_0, # of connection points: 2
#     Edge 59, Type (0, 1), BuildingBlock: XIVTED_clean_linker_0, # of connection points: 2
#     Edge 60, Type (0, 1), BuildingBlock: XIVTED_clean_linker_0, # of connection points: 2
#     Edge 61, Type (0, 1), BuildingBlock: XIVTED_clean_linker_0, # of connection points: 2
# Relax obj value: 0.159
# Max RMSD: 0.262
# Mean RMSD: 0.204
data_MOF--net-ocu--node1-KUMBUR_clean_sbu_0--node2-AJUNOK_clean_sbu_0--edge1-XIVTED_clean_linker_0
_symmetry_space_group_name_H-M    P1
_symmetry_Int_Tables_number       1
_symmetry_cell_setting            triclinic
loop_
_symmetry_equiv_pos_as_xyz
'x, y, z'
_cell_length_a     43.893059
_cell_length_b     43.196379
_cell_length_c     39.669683
_cell_angle_alpha  86.996999
_cell_angle_beta   105.3677
_cell_angle_gamma 113.65353
loop_
_atom_site_label
_atom_site_type_symbol
_atom_site_fract_x
_atom_site_fract_y
_atom_site_fract_z
_atom_type_partial_charge
Tb0 Tb 0.25053 0.21564 0.20405 0.0
C1 C 0.35043 0.30818 0.33458 0.0
C2 C 0.35542 0.26884 0.37912 0.0
C3 C 0.4025 0.32408 0.38274 0.0
C4 C 0.33682 0.27698 0.34771 0.0
C5 C 0.38301 0.33255 0.3524 0.0
C6 C 0.38873 0.29221 0.39605 0.0
C7 C 0.37281 0.37277 0.31124 0.0
N8 N 0.33051 0.31543 0.30558 0.0
C9 C 0.34066 0.34768 0.2945 0.0
C10 C 0.39436 0.36503 0.33998 0.0
Tb11 Tb 0.27826 0.27275 0.27978 0.0
N12 N 0.30426 0.2556 0.33102 0.0
C13 C 0.28775 0.22662 0.3461 0.0
C14 C 0.33944 0.23807 0.39326 0.0
C15 C 0.30525 0.21713 0.37694 0.0
H16 H 0.32442 0.35422 0.27239 0.0
H17 H 0.2923 0.19366 0.38812 0.0
H18 H 0.40357 0.28631 0.42004 0.0
H19 H 0.38096 0.39805 0.30191 0.0
H20 H 0.26132 0.21007 0.33409 0.0
H21 H 0.24058 0.29621 0.09633 0.0
H22 H 0.35285 0.23079 0.41729 0.0
H23 H 0.20064 0.13556 0.21249 0.0
H24 H 0.27015 0.27847 0.15055 0.0
H25 H 0.14243 0.09385 0.18349 0.0
H26 H 0.42775 0.34231 0.39664 0.0
H27 H 0.17949 0.26098 0.06691 0.0
H28 H 0.12701 0.20702 0.0641 0.0
H29 H 0.41919 0.38453 0.35297 0.0
H30 H 0.10027 0.15169 0.08775 0.0
N31 N 0.22592 0.23412 0.15309 0.0
C32 C 0.24347 0.2628 0.13826 0.0
C33 C 0.1923 0.25312 0.09092 0.0
C34 C 0.17515 0.22269 0.10495 0.0
C35 C 0.22679 0.27301 0.10738 0.0
C36 C 0.19299 0.21374 0.13632 0.0
H37 H 0.10602 0.10902 0.13201 0.0
N38 N 0.197 0.17471 0.17869 0.0
C39 C 0.15202 0.11889 0.1738 0.0
C40 C 0.17798 0.18284 0.14956 0.0
C41 C 0.18507 0.14266 0.19018 0.0
C42 C 0.13153 0.12756 0.1448 0.0
C43 C 0.14465 0.15969 0.13194 0.0
O44 O 0.26666 0.17655 0.19982 0.0
O45 O 0.28205 0.22995 0.25766 0.0
O46 O 0.32466 0.2835 0.26285 0.0
O47 O 0.29764 0.26095 0.20511 0.0
O48 O 0.2556 0.17963 0.2436 0.0
O49 O 0.27598 0.21724 0.16529 0.0
O50 O 0.26147 0.31137 0.28434 0.0
O51 O 0.24672 0.25828 0.22616 0.0
O52 O 0.20498 0.20414 0.22263 0.0
O53 O 0.23307 0.22609 0.28029 0.0
O54 O 0.27411 0.30845 0.23944 0.0
O55 O 0.24999 0.26881 0.3164 0.0
C56 C 0.27745 0.20082 0.26897 0.0
C57 C 0.27109 0.16445 0.14471 0.0
C58 C 0.28962 0.13035 0.11378 0.0
C59 C 0.29718 0.15545 0.13977 0.0
C60 C 0.25531 0.11447 0.09304 0.0
C61 C 0.23741 0.14871 0.12323 0.0
C62 C 0.22961 0.12382 0.09759 0.0
C63 C 0.32536 0.27858 0.23047 0.0
C64 C 0.27922 0.18895 0.17355 0.0
C65 C 0.12605 0.16899 0.10153 0.0
C66 C 0.14127 0.20048 0.08807 0.0
C67 C 0.25186 0.28724 0.21436 0.0
C68 C 0.25521 0.32057 0.3396 0.0
C69 C 0.23022 0.33195 0.34304 0.0
C70 C 0.23699 0.35386 0.37175 0.0
C71 C 0.26938 0.36459 0.39654 0.0
C72 C 0.28712 0.33137 0.36483 0.0
C73 C 0.29418 0.3534 0.39304 0.0
C74 C 0.20563 0.20666 0.25582 0.0
C75 C 0.24759 0.29766 0.30947 0.0
H76 H 0.32327 0.16813 0.15617 0.0
H77 H 0.24803 0.09437 0.07354 0.0
H78 H 0.21707 0.15531 0.12651 0.0
H79 H 0.20342 0.11141 0.0814 0.0
H80 H 0.20539 0.32329 0.32371 0.0
H81 H 0.27571 0.38192 0.41855 0.0
H82 H 0.30655 0.32278 0.36281 0.0
H83 H 0.31898 0.36181 0.41231 0.0
Tb84 Tb 0.78826 0.2219 0.22973 0.0
C85 C 0.72268 0.26805 0.32601 0.0
C86 C 0.66493 0.22505 0.31795 0.0
C87 C 0.69528 0.25753 0.37372 0.0
C88 C 0.69404 0.24295 0.30524 0.0
C89 C 0.72338 0.27642 0.36017 0.0
C90 C 0.66608 0.23181 0.35262 0.0
C91 C 0.77781 0.32352 0.36348 0.0
N92 N 0.74916 0.28559 0.31192 0.0
C93 C 0.77603 0.31398 0.3296 0.0
C94 C 0.75172 0.30424 0.37914 0.0
Tb95 Tb 0.74436 0.26823 0.25632 0.0
N96 N 0.69413 0.2372 0.27199 0.0
C97 C 0.66456 0.21543 0.24922 0.0
C98 C 0.6353 0.20155 0.29517 0.0
C99 C 0.63496 0.19714 0.26049 0.0
H100 H 0.79666 0.32871 0.31796 0.0
H101 H 0.61201 0.17937 0.24245 0.0
H102 H 0.64419 0.21796 0.36302 0.0
H103 H 0.79945 0.34555 0.3776 0.0
H104 H 0.66355 0.21115 0.2225 0.0
H105 H 0.9194 0.31126 0.23894 0.0
H106 H 0.61243 0.18718 0.30389 0.0
H107 H 0.7347 0.15993 0.16987 0.0
H108 H 0.86884 0.27992 0.26077 0.0
H109 H 0.73015 0.14174 0.11021 0.0
H110 H 0.69548 0.26325 0.40007 0.0
H111 H 0.91743 0.30163 0.17736 0.0
H112 H 0.8845 0.2691 0.11921 0.0
H113 H 0.75323 0.31158 0.40543 0.0
H114 H 0.83275 0.22289 0.08394 0.0
N115 N 0.83745 0.25246 0.21218 0.0
C116 C 0.86726 0.27491 0.234 0.0
C117 C 0.89504 0.28748 0.18691 0.0
C118 C 0.86517 0.26329 0.16513 0.0
C119 C 0.89625 0.29292 0.22167 0.0
C120 C 0.83671 0.24574 0.17889 0.0
H121 H 0.77531 0.17468 0.08064 0.0
N122 N 0.78208 0.20289 0.17431 0.0
C123 C 0.7521 0.16394 0.12361 0.0
C124 C 0.80789 0.22001 0.15918 0.0
C125 C 0.75488 0.17427 0.15754 0.0
C126 C 0.77758 0.18265 0.10697 0.0
C127 C 0.80623 0.21079 0.12497 0.0
O128 O 0.78348 0.17171 0.23355 0.0
O129 O 0.75181 0.22222 0.25656 0.0
O130 O 0.77711 0.25753 0.30328 0.0
O131 O 0.81843 0.25229 0.28 0.0
O132 O 0.73997 0.17805 0.23038 0.0
O133 O 0.82773 0.21237 0.26578 0.0
O134 O 0.74944 0.3185 0.25536 0.0
O135 O 0.78079 0.26791 0.22961 0.0
O136 O 0.75588 0.23259 0.18258 0.0
O137 O 0.71463 0.23871 0.20541 0.0
O138 O 0.79273 0.31213 0.25562 0.0
O139 O 0.7067 0.27967 0.2194 0.0
C140 C 0.72992 0.19222 0.25025 0.0
C141 C 0.80339 0.16103 0.29243 0.0
C142 C 0.82216 0.15496 0.35532 0.0
C143 C 0.82649 0.17362 0.32548 0.0
C144 C 0.7928 0.12424 0.35165 0.0
C145 C 0.77435 0.13038 0.2896 0.0
C146 C 0.76893 0.11244 0.31916 0.0
C147 C 0.80834 0.25846 0.3068 0.0
C148 C 0.80983 0.17968 0.26102 0.0
C149 C 0.83367 0.22928 0.11035 0.0
C150 C 0.86313 0.25554 0.13043 0.0
C151 C 0.80258 0.29796 0.23553 0.0
C152 C 0.7336 0.33316 0.19736 0.0
C153 C 0.71339 0.32222 0.16291 0.0
C154 C 0.71981 0.34327 0.13506 0.0
C155 C 0.74878 0.37455 0.14214 0.0
C156 C 0.76221 0.36448 0.20366 0.0
C157 C 0.77002 0.38469 0.17607 0.0
C158 C 0.72487 0.23234 0.17878 0.0
C159 C 0.72461 0.31216 0.22668 0.0
H160 H 0.8482 0.19775 0.32763 0.0
H161 H 0.7887 0.10836 0.37341 0.0
H162 H 0.75589 0.12009 0.26454 0.0
H163 H 0.74664 0.08871 0.3167 0.0
H164 H 0.69204 0.29764 0.15811 0.0
H165 H 0.75439 0.39218 0.122 0.0
H166 H 0.77847 0.37355 0.22993 0.0
H167 H 0.79193 0.4089 0.18119 0.0
Tb168 Tb 0.74431 0.73903 0.27451 0.0
C169 C 0.82094 0.82539 0.17076 0.0
C170 C 0.77531 0.82026 0.1185 0.0
C171 C 0.82918 0.8704 0.13029 0.0
C172 C 0.78816 0.80737 0.14991 0.0
C173 C 0.84222 0.85675 0.16086 0.0
C174 C 0.79573 0.8522 0.10918 0.0
C175 C 0.88845 0.85724 0.21039 0.0
N176 N 0.83261 0.81118 0.19989 0.0
C177 C 0.8663 0.82608 0.21915 0.0
C178 C 0.87623 0.87288 0.18138 0.0
Tb179 Tb 0.79466 0.7599 0.21157 0.0
N180 N 0.7696 0.77637 0.15951 0.0
C181 C 0.73873 0.75592 0.13748 0.0
C182 C 0.74282 0.80021 0.09692 0.0
C183 C 0.72466 0.76771 0.10626 0.0
H184 H 0.87615 0.81435 0.24162 0.0
H185 H 0.69982 0.75169 0.08941 0.0
H186 H 0.78624 0.86265 0.08526 0.0
H187 H 0.9149 0.86919 0.22607 0.0
H188 H 0.72431 0.73068 0.14411 0.0
H189 H 0.84182 0.74747 0.39466 0.0
H190 H 0.73196 0.80921 0.07261 0.0
H191 H 0.66151 0.68814 0.25124 0.0
H192 H 0.81553 0.76859 0.34094 0.0
H193 H 0.62316 0.63328 0.26751 0.0
H194 H 0.84501 0.8946 0.12234 0.0
H195 H 0.81104 0.6895 0.41137 0.0
H196 H 0.75697 0.63578 0.39968 0.0
H197 H 0.89346 0.89698 0.17462 0.0
H198 H 0.69709 0.6044 0.36481 0.0
N199 N 0.77073 0.72247 0.32593 0.0
C200 C 0.80175 0.74315 0.34757 0.0
C201 C 0.79943 0.69854 0.38751 0.0
C202 C 0.76662 0.67839 0.36662 0.0
C203 C 0.81682 0.7313 0.37822 0.0
C204 C 0.75281 0.69137 0.33577 0.0
H205 H 0.64662 0.60353 0.31569 0.0
N206 N 0.70676 0.68857 0.28832 0.0
C207 C 0.65031 0.64418 0.28122 0.0
C208 C 0.7195 0.67368 0.31617 0.0
C209 C 0.6722 0.67526 0.272 0.0
C210 C 0.66367 0.62742 0.30836 0.0
C211 C 0.69852 0.64257 0.32681 0.0
O212 O 0.70438 0.75446 0.27431 0.0
O213 O 0.75193 0.76308 0.22643 0.0
O214 O 0.80295 0.808 0.23493 0.0
O215 O 0.7893 0.78792 0.28695 0.0
O216 O 0.70251 0.73662 0.22832 0.0
O217 O 0.74995 0.7695 0.31733 0.0
O218 O 0.83584 0.74658 0.21165 0.0
O219 O 0.78627 0.73464 0.25904 0.0
O220 O 0.73057 0.69079 0.24734 0.0
O221 O 0.75016 0.71159 0.19784 0.0
O222 O 0.83577 0.76284 0.25838 0.0
O223 O 0.7892 0.72817 0.16975 0.0
C224 C 0.72097 0.7558 0.20899 0.0
C225 C 0.69821 0.76436 0.32935 0.0
C226 C 0.66242 0.782 0.35499 0.0
C227 C 0.68426 0.7878 0.33286 0.0
C228 C 0.6549 0.75247 0.37368 0.0
C229 C 0.69069 0.73528 0.34853 0.0
C230 C 0.66906 0.72938 0.37051 0.0
C231 C 0.80171 0.813 0.26703 0.0
C232 C 0.71977 0.77038 0.30493 0.0
C233 C 0.71263 0.62849 0.3564 0.0
C234 C 0.74671 0.64637 0.37627 0.0
C235 C 0.81717 0.74224 0.2767 0.0
C236 C 0.84085 0.73376 0.15693 0.0
C237 C 0.84847 0.707 0.1481 0.0
C238 C 0.87051 0.71191 0.12617 0.0
C239 C 0.88458 0.74427 0.1134 0.0
C240 C 0.85457 0.76531 0.14311 0.0
C241 C 0.87633 0.77048 0.1215 0.0
C242 C 0.7332 0.68679 0.21549 0.0
C243 C 0.82005 0.72878 0.18198 0.0
H244 H 0.68994 0.81022 0.31791 0.0
H245 H 0.63846 0.74748 0.39117 0.0
H246 H 0.70147 0.71718 0.34658 0.0
H247 H 0.66329 0.70685 0.38519 0.0
H248 H 0.83719 0.68252 0.15843 0.0
H249 H 0.90257 0.74976 0.09758 0.0
H250 H 0.84896 0.78609 0.14939 0.0
H251 H 0.88729 0.79512 0.11138 0.0
Tb252 Tb 0.2898 0.72571 0.25327 0.0
C253 C 0.22962 0.81635 0.15919 0.0
C254 C 0.27875 0.86996 0.16658 0.0
C255 C 0.23249 0.85549 0.11268 0.0
C256 C 0.2611 0.83841 0.17906 0.0
C257 C 0.21428 0.82498 0.12623 0.0
C258 C 0.26477 0.87795 0.13283 0.0
C259 C 0.16259 0.77499 0.12485 0.0
N260 N 0.2127 0.78763 0.17361 0.0
C261 C 0.17895 0.76772 0.15774 0.0
C262 C 0.18055 0.80344 0.10872 0.0
Tb263 Tb 0.24107 0.77709 0.22724 0.0
N264 N 0.27299 0.83002 0.2118 0.0
C265 C 0.30116 0.8536 0.23458 0.0
C266 C 0.30902 0.89308 0.18896 0.0
C267 C 0.31992 0.88507 0.22333 0.0
H268 H 0.16489 0.74558 0.16994 0.0
H269 H 0.34278 0.90312 0.24123 0.0
H270 H 0.27807 0.90194 0.12263 0.0
H271 H 0.13617 0.75861 0.112 0.0
H272 H 0.31023 0.84812 0.26126 0.0
H273 H 0.19187 0.59833 0.24374 0.0
H274 H 0.32342 0.91757 0.18039 0.0
H275 H 0.36571 0.76322 0.3111 0.0
H276 H 0.22136 0.65375 0.22224 0.0
H277 H 0.39675 0.75207 0.36858 0.0
H278 H 0.22133 0.86247 0.08724 0.0
H279 H 0.2149 0.58501 0.30405 0.0
H280 H 0.26222 0.60246 0.36034 0.0
H281 H 0.16776 0.80916 0.08336 0.0
H282 H 0.31835 0.64423 0.39427 0.0
N283 N 0.26029 0.67296 0.27041 0.0
C284 C 0.23187 0.64868 0.24869 0.0
C285 C 0.22792 0.60964 0.29484 0.0
C286 C 0.25832 0.63367 0.31613 0.0
C287 C 0.21492 0.61702 0.26077 0.0
C288 C 0.27413 0.66538 0.30288 0.0
H289 H 0.36905 0.69987 0.39728 0.0
N290 N 0.32029 0.71806 0.30722 0.0
C291 C 0.37098 0.73409 0.35583 0.0
C292 C 0.3054 0.68873 0.32194 0.0
C293 C 0.35322 0.7403 0.32315 0.0
C294 C 0.35522 0.70466 0.372 0.0
C295 C 0.3222 0.68129 0.35484 0.0
O296 O 0.33673 0.73167 0.24391 0.0
O297 O 0.28566 0.76872 0.22562 0.0
O298 O 0.23565 0.75135 0.17849 0.0
O299 O 0.25186 0.70758 0.20186 0.0
O300 O 0.3331 0.77463 0.2559 0.0
O301 O 0.28895 0.69021 0.21867 0.0
O302 O 0.19407 0.77231 0.23571 0.0
O303 O 0.24487 0.73373 0.25385 0.0
O304 O 0.29147 0.74838 0.30209 0.0
O305 O 0.27897 0.79396 0.2789 0.0
O306 O 0.19716 0.72848 0.22513 0.0
O307 O 0.24236 0.81155 0.2633 0.0
C308 C 0.31675 0.7894 0.23423 0.0
C309 C 0.33945 0.68098 0.22874 0.0
C310 C 0.35505 0.64169 0.20285 0.0
C311 C 0.33983 0.66505 0.19918 0.0
C312 C 0.37013 0.63453 0.2366 0.0
C313 C 0.35458 0.67375 0.26231 0.0
C314 C 0.36994 0.65061 0.26615 0.0
C315 C 0.23819 0.72212 0.17526 0.0
C316 C 0.32222 0.70423 0.22337 0.0
C317 C 0.306 0.65036 0.36891 0.0
C318 C 0.27405 0.62659 0.3496 0.0
C319 C 0.21373 0.71321 0.24581 0.0
C320 C 0.19349 0.82344 0.2529 0.0
C321 C 0.19021 0.83643 0.28263 0.0
C322 C 0.17738 0.86162 0.27985 0.0
C323 C 0.16753 0.87353 0.24682 0.0
C324 C 0.18357 0.83539 0.22002 0.0
C325 C 0.1705 0.8603 0.21704 0.0
C326 C 0.29021 0.7781 0.30577 0.0
C327 C 0.20902 0.7988 0.25757 0.0
H328 H 0.32765 0.67041 0.17328 0.0
H329 H 0.38234 0.61679 0.24009 0.0
H330 H 0.35451 0.68581 0.28544 0.0
H331 H 0.38168 0.6451 0.29207 0.0
H332 H 0.19841 0.82747 0.3081 0.0
H333 H 0.15724 0.89279 0.24403 0.0
H334 H 0.18609 0.82576 0.19681 0.0
H335 H 0.16281 0.86947 0.19165 0.0
Tb336 Tb 0.28954 0.72306 0.73783 0.0
C337 C 0.19928 0.76069 0.80362 0.0
C338 C 0.14308 0.71502 0.78204 0.0
C339 C 0.15696 0.74524 0.83756 0.0
C340 C 0.17613 0.73591 0.77791 0.0
C341 C 0.18959 0.76609 0.83336 0.0
C342 C 0.13376 0.71975 0.81197 0.0
C343 C 0.24368 0.81446 0.85125 0.0
N344 N 0.23095 0.78003 0.79922 0.0
C345 C 0.25204 0.80822 0.82142 0.0
C346 C 0.21258 0.79289 0.85763 0.0
Tb347 Tb 0.24084 0.77018 0.74728 0.0
N348 N 0.1863 0.73145 0.74958 0.0
C349 C 0.16458 0.70481 0.72564 0.0
C350 C 0.12049 0.68942 0.7564 0.0
C351 C 0.13142 0.68416 0.72823 0.0
H352 H 0.2762 0.82567 0.81697 0.0
H353 H 0.11474 0.66336 0.70903 0.0
H354 H 0.10866 0.70376 0.81559 0.0
H355 H 0.26123 0.83602 0.86921 0.0
H356 H 0.17267 0.69723 0.70548 0.0
H357 H 0.41613 0.82909 0.77106 0.0
H358 H 0.09504 0.67287 0.75871 0.0
H359 H 0.25221 0.66439 0.67113 0.0
H360 H 0.35905 0.79568 0.77764 0.0
H361 H 0.26487 0.65199 0.61799 0.0
H362 H 0.14927 0.74886 0.86035 0.0
H363 H 0.43289 0.81855 0.7196 0.0
H364 H 0.41663 0.78646 0.66275 0.0
H365 H 0.20608 0.79781 0.88074 0.0
H366 H 0.37465 0.74016 0.6199 0.0
N367 N 0.34301 0.76142 0.73292 0.0
C368 C 0.36585 0.788 0.75646 0.0
C369 C 0.40779 0.80237 0.72309 0.0
C370 C 0.38414 0.77649 0.69815 0.0
C371 C 0.39851 0.80824 0.75225 0.0
C372 C 0.35163 0.7561 0.70382 0.0
H373 H 0.31815 0.69026 0.60285 0.0
N374 N 0.29669 0.71114 0.68528 0.0
C375 C 0.28258 0.67444 0.63466 0.0
C376 C 0.32763 0.73051 0.67915 0.0
C377 C 0.2755 0.68179 0.66487 0.0
C378 C 0.31262 0.69607 0.62623 0.0
C379 C 0.33603 0.72397 0.64899 0.0
O380 O 0.26915 0.66978 0.73599 0.0
O381 O 0.24296 0.72145 0.74906 0.0
O382 O 0.28119 0.77503 0.7967 0.0
O383 O 0.31661 0.74842 0.78967 0.0
O384 O 0.27114 0.69852 0.78245 0.0
O385 O 0.32436 0.70002 0.75295 0.0
O386 O 0.26458 0.82327 0.75344 0.0
O387 O 0.28749 0.77193 0.73599 0.0
O388 O 0.24852 0.71728 0.68868 0.0
O389 O 0.21449 0.74606 0.69467 0.0
O390 O 0.25827 0.79382 0.70207 0.0
O391 O 0.20918 0.79678 0.73177 0.0
C392 C 0.24411 0.7047 0.77611 0.0
C393 C 0.30204 0.65004 0.78199 0.0
C394 C 0.33087 0.64593 0.84275 0.0
C395 C 0.32717 0.66501 0.8134 0.0
C396 C 0.30742 0.61189 0.84094 0.0
C397 C 0.27896 0.61612 0.78065 0.0
C398 C 0.28143 0.5973 0.81018 0.0
C399 C 0.30796 0.76651 0.80841 0.0
C400 C 0.29956 0.66986 0.75079 0.0
C401 C 0.36799 0.74462 0.64307 0.0
C402 C 0.39198 0.7708 0.66759 0.0
C403 C 0.28582 0.78848 0.70871 0.0
C404 C 0.23771 0.84919 0.70892 0.0
C405 C 0.21742 0.83734 0.67464 0.0
C406 C 0.21809 0.85965 0.6475 0.0
C407 C 0.24135 0.89387 0.65492 0.0
C408 C 0.26067 0.88325 0.71569 0.0
C409 C 0.26275 0.90536 0.68867 0.0
C410 C 0.22257 0.72697 0.6764 0.0
C411 C 0.23574 0.82607 0.73761 0.0
H412 H 0.34427 0.69153 0.8149 0.0
H413 H 0.30977 0.59613 0.86277 0.0
H414 H 0.25909 0.60424 0.7568 0.0
H415 H 0.26367 0.57106 0.80897 0.0
H416 H 0.20077 0.8107 0.66928 0.0
H417 H 0.24227 0.9122 0.63515 0.0
H418 H 0.27695 0.89272 0.74189 0.0
H419 H 0.28037 0.93172 0.69408 0.0
Tb420 Tb 0.2375 0.23437 0.76179 0.0
C421 C 0.32609 0.32555 0.66752 0.0
C422 C 0.28346 0.32872 0.61613 0.0
C423 C 0.34041 0.37466 0.63249 0.0
C424 C 0.29326 0.31183 0.64572 0.0
C425 C 0.35046 0.35672 0.66075 0.0
C426 C 0.3069 0.36066 0.61018 0.0
C427 C 0.39356 0.34804 0.70771 0.0
N428 N 0.33476 0.30707 0.69408 0.0
C429 C 0.36843 0.31716 0.71318 0.0
C430 C 0.38442 0.36821 0.68175 0.0
Tb431 Tb 0.29166 0.25741 0.70219 0.0
N432 N 0.27184 0.28066 0.65205 0.0
C433 C 0.24112 0.26373 0.62785 0.0
C434 C 0.25099 0.31238 0.59269 0.0
C435 C 0.22998 0.27948 0.59828 0.0
H436 H 0.37618 0.30192 0.73318 0.0
H437 H 0.20513 0.26619 0.57987 0.0
H438 H 0.29975 0.3742 0.5878 0.0
H439 H 0.41998 0.35622 0.7235 0.0
H440 H 0.22434 0.23844 0.63162 0.0
H441 H 0.32847 0.24173 0.88674 0.0
H442 H 0.24241 0.32446 0.56966 0.0
H443 H 0.15761 0.17886 0.72809 0.0
H444 H 0.30548 0.26331 0.83179 0.0
H445 H 0.11892 0.12234 0.74076 0.0
H446 H 0.35863 0.39882 0.62702 0.0
H447 H 0.29657 0.18329 0.90147 0.0
H448 H 0.2433 0.12899 0.8861 0.0
H449 H 0.40396 0.39201 0.67743 0.0
H450 H 0.186 0.09651 0.84647 0.0
N451 N 0.26122 0.21714 0.81415 0.0
C452 C 0.2911 0.23771 0.83747 0.0
C453 C 0.28635 0.19256 0.87704 0.0
C454 C 0.25478 0.17231 0.8541 0.0
C455 C 0.30436 0.22557 0.86886 0.0
C456 C 0.24275 0.1856 0.8226 0.0
H457 H 0.13917 0.094 0.79237 0.0
N458 N 0.19973 0.18212 0.77152 0.0
C459 C 0.14476 0.13468 0.75772 0.0
C460 C 0.21076 0.16742 0.80049 0.0
C461 C 0.16674 0.16674 0.75067 0.0
C462 C 0.15631 0.11872 0.78682 0.0
C463 C 0.18953 0.1353 0.80893 0.0
O464 O 0.19421 0.24387 0.76306 0.0
O465 O 0.24871 0.26162 0.71626 0.0
O466 O 0.30427 0.30482 0.72972 0.0
O467 O 0.28224 0.28278 0.77764 0.0
O468 O 0.19811 0.23559 0.71508 0.0
O469 O 0.2428 0.26822 0.80137 0.0
O470 O 0.32885 0.23787 0.70299 0.0
O471 O 0.28031 0.23021 0.74817 0.0
O472 O 0.22745 0.18794 0.73267 0.0
O473 O 0.24375 0.21318 0.68348 0.0
O474 O 0.33061 0.25714 0.7499 0.0
O475 O 0.28486 0.22683 0.6588 0.0
C476 C 0.21832 0.25601 0.69803 0.0
C477 C 0.19268 0.26169 0.81791 0.0
C478 C 0.16536 0.28523 0.8502 0.0
C479 C 0.18209 0.2874 0.82366 0.0
C480 C 0.15918 0.25666 0.87044 0.0
C481 C 0.18635 0.23373 0.83865 0.0
C482 C 0.16962 0.23126 0.86469 0.0
C483 C 0.3002 0.30805 0.761 0.0
C484 C 0.21082 0.26475 0.79065 0.0
C485 C 0.20181 0.12126 0.83958 0.0
C486 C 0.23443 0.13974 0.86213 0.0
C487 C 0.31061 0.23687 0.76719 0.0
C488 C 0.33554 0.22684 0.64849 0.0
C489 C 0.34496 0.20028 0.64297 0.0
C490 C 0.36624 0.20378 0.62059 0.0
C491 C 0.37825 0.23455 0.6044 0.0
C492 C 0.34758 0.257 0.63172 0.0
C493 C 0.36892 0.26081 0.60991 0.0
C494 C 0.22786 0.18644 0.69954 0.0
C495 C 0.31341 0.22281 0.67198 0.0
H496 H 0.1874 0.30924 0.80789 0.0
H497 H 0.14583 0.25366 0.89055 0.0
H498 H 0.19436 0.21386 0.83474 0.0
H499 H 0.16466 0.20949 0.88051 0.0
H500 H 0.3353 0.17682 0.65566 0.0
H501 H 0.39524 0.23854 0.58769 0.0
H502 H 0.34053 0.27759 0.63549 0.0
H503 H 0.37833 0.28428 0.59723 0.0
Tb504 Tb 0.79265 0.22668 0.75874 0.0
C505 C 0.73875 0.32126 0.66651 0.0
C506 C 0.78914 0.37388 0.67402 0.0
C507 C 0.74383 0.35967 0.61934 0.0
C508 C 0.77033 0.34291 0.68671 0.0
C509 C 0.72455 0.32969 0.63295 0.0
C510 C 0.77612 0.38174 0.63987 0.0
C511 C 0.67188 0.28058 0.63087 0.0
N512 N 0.72083 0.29299 0.68092 0.0
C513 C 0.68703 0.27368 0.66448 0.0
C514 C 0.69094 0.30843 0.61476 0.0
Tb515 Tb 0.74814 0.28239 0.73516 0.0
N516 N 0.78157 0.3345 0.71965 0.0
C517 C 0.8104 0.3574 0.74234 0.0
C518 C 0.81978 0.39643 0.69646 0.0
C519 C 0.83015 0.38837 0.73095 0.0
H520 H 0.67184 0.25275 0.67716 0.0
H521 H 0.85342 0.40595 0.74878 0.0
H522 H 0.79032 0.40527 0.6295 0.0
H523 H 0.64544 0.26464 0.61761 0.0
H524 H 0.81901 0.35165 0.76904 0.0
H525 H 0.69094 0.10128 0.74976 0.0
H526 H 0.83505 0.42047 0.68774 0.0
H527 H 0.87038 0.25986 0.81422 0.0
H528 H 0.72203 0.15582 0.72804 0.0
H529 H 0.90132 0.24723 0.87091 0.0
H530 H 0.73354 0.3665 0.59346 0.0
H531 H 0.71348 0.08735 0.80993 0.0
H532 H 0.76131 0.10339 0.86578 0.0
H533 H 0.67905 0.31397 0.58888 0.0
H534 H 0.81896 0.14318 0.89886 0.0
N535 N 0.76171 0.1743 0.77594 0.0
C536 C 0.73249 0.15065 0.75443 0.0
C537 C 0.72726 0.11169 0.80064 0.0
C538 C 0.75838 0.13492 0.82169 0.0
C539 C 0.71456 0.1194 0.76664 0.0
C540 C 0.77518 0.16627 0.80833 0.0
H541 H 0.87176 0.1966 0.90064 0.0
N542 N 0.82316 0.21721 0.81181 0.0
C543 C 0.87476 0.23058 0.85895 0.0
C544 C 0.80722 0.18854 0.82697 0.0
C545 C 0.85703 0.23765 0.8267 0.0
C546 C 0.85795 0.20208 0.87572 0.0
C547 C 0.82393 0.18028 0.85945 0.0
O548 O 0.838 0.23071 0.74696 0.0
O549 O 0.7908 0.27114 0.73272 0.0
O550 O 0.74199 0.2567 0.68644 0.0
O551 O 0.75162 0.20948 0.70909 0.0
O552 O 0.83775 0.27426 0.76123 0.0
O553 O 0.78881 0.191 0.72221 0.0
O554 O 0.70203 0.27889 0.74454 0.0
O555 O 0.74977 0.23787 0.76086 0.0
O556 O 0.79684 0.24997 0.80845 0.0
O557 O 0.78613 0.29709 0.78688 0.0
O558 O 0.70243 0.23582 0.73428 0.0
O559 O 0.75079 0.31944 0.76918 0.0
C560 C 0.82231 0.29052 0.74074 0.0
C561 C 0.83775 0.17936 0.73013 0.0
C562 C 0.85779 0.14447 0.70371 0.0
C563 C 0.84451 0.16927 0.70099 0.0
C564 C 0.86482 0.13016 0.73593 0.0
C565 C 0.84507 0.16518 0.76232 0.0
C566 C 0.85871 0.14073 0.76519 0.0
C567 C 0.73955 0.22546 0.68296 0.0
C568 C 0.82192 0.20371 0.72582 0.0
C569 C 0.80671 0.14989 0.87379 0.0
C570 C 0.7739 0.12724 0.85495 0.0
C571 C 0.71806 0.21903 0.75367 0.0
C572 C 0.70123 0.33053 0.7589 0.0
C573 C 0.69632 0.34308 0.78783 0.0
C574 C 0.68129 0.3666 0.78371 0.0
C575 C 0.67094 0.37731 0.75014 0.0
C576 C 0.6909 0.34131 0.72548 0.0
C577 C 0.67566 0.36457 0.72117 0.0
C578 C 0.79636 0.27995 0.81306 0.0
C579 C 0.71754 0.30655 0.76475 0.0
H580 H 0.83861 0.18004 0.676 0.0
H581 H 0.87516 0.11095 0.73842 0.0
H582 H 0.84009 0.17274 0.78506 0.0
H583 H 0.86427 0.12978 0.79003 0.0
H584 H 0.70479 0.33496 0.81369 0.0
H585 H 0.65899 0.39528 0.74632 0.0
H586 H 0.69457 0.3319 0.70286 0.0
H587 H 0.66757 0.37279 0.69535 0.0
Tb588 Tb 0.74909 0.71335 0.70768 0.0
C589 C 0.85038 0.80643 0.83664 0.0
C590 C 0.8538 0.76694 0.88144 0.0
C591 C 0.90223 0.82118 0.8849 0.0
C592 C 0.83582 0.77548 0.84989 0.0
C593 C 0.88333 0.83014 0.85446 0.0
C594 C 0.88749 0.78956 0.89834 0.0
C595 C 0.87457 0.87087 0.81322 0.0
N596 N 0.83102 0.81418 0.80752 0.0
C597 C 0.842 0.84642 0.79649 0.0
C598 C 0.89561 0.86253 0.84197 0.0
Tb599 Tb 0.77813 0.77252 0.78178 0.0
N600 N 0.80296 0.75484 0.83322 0.0
C601 C 0.78552 0.72643 0.84844 0.0
C602 C 0.83686 0.7366 0.89573 0.0
C603 C 0.80236 0.71655 0.87945 0.0
H604 H 0.8261 0.85335 0.77436 0.0
H605 H 0.78867 0.69348 0.89078 0.0
H606 H 0.90189 0.78333 0.92243 0.0
H607 H 0.88343 0.89612 0.80388 0.0
H608 H 0.75881 0.71067 0.83633 0.0
H609 H 0.74015 0.79288 0.5987 0.0
H610 H 0.84976 0.72903 0.91988 0.0
H611 H 0.70043 0.63297 0.7152 0.0
H612 H 0.76924 0.77569 0.65356 0.0
H613 H 0.64328 0.59025 0.68497 0.0
H614 H 0.92776 0.83889 0.8988 0.0
H615 H 0.67937 0.75723 0.56865 0.0
H616 H 0.62712 0.70295 0.56543 0.0
H617 H 0.92076 0.88154 0.85496 0.0
H618 H 0.60065 0.64746 0.58891 0.0
N619 N 0.72493 0.73136 0.65605 0.0
C620 C 0.74264 0.75988 0.6411 0.0
C621 C 0.69193 0.74965 0.593 0.0
C622 C 0.6747 0.71929 0.60709 0.0
C623 C 0.72625 0.76977 0.60982 0.0
C624 C 0.69222 0.71073 0.63893 0.0
H625 H 0.60678 0.60486 0.63314 0.0
N626 N 0.69612 0.67208 0.68169 0.0
C627 C 0.65239 0.61547 0.67563 0.0
C628 C 0.67726 0.67986 0.65219 0.0
C629 C 0.68483 0.63987 0.69276 0.0
C630 C 0.63182 0.62384 0.64645 0.0
C631 C 0.64445 0.6562 0.63396 0.0
O632 O 0.76498 0.67385 0.7044 0.0
O633 O 0.78062 0.72837 0.76114 0.0
O634 O 0.82429 0.78189 0.76484 0.0
O635 O 0.7964 0.75778 0.70784 0.0
O636 O 0.75256 0.67813 0.7488 0.0
O637 O 0.77541 0.71451 0.66992 0.0
O638 O 0.76265 0.81235 0.78521 0.0
O639 O 0.7465 0.75755 0.72827 0.0
O640 O 0.70301 0.70366 0.72478 0.0
O641 O 0.73061 0.72805 0.78183 0.0
O642 O 0.77514 0.80773 0.74066 0.0
O643 O 0.7515 0.77132 0.8192 0.0
C644 C 0.77526 0.69959 0.77354 0.0
C645 C 0.77027 0.66164 0.64959 0.0
C646 C 0.78956 0.62917 0.61758 0.0
C647 C 0.79675 0.65368 0.64403 0.0
C648 C 0.75524 0.61272 0.59709 0.0
C649 C 0.73657 0.64544 0.62827 0.0
C650 C 0.72913 0.62104 0.60227 0.0
C651 C 0.8245 0.77557 0.73265 0.0
C652 C 0.77815 0.68607 0.67843 0.0
C653 C 0.62606 0.66514 0.60314 0.0
C654 C 0.64114 0.69671 0.58976 0.0
C655 C 0.75222 0.78643 0.71594 0.0
C656 C 0.7571 0.82416 0.8401 0.0
C657 C 0.73176 0.83508 0.84347 0.0
C658 C 0.73868 0.85799 0.87134 0.0
C659 C 0.77156 0.87017 0.89534 0.0
C660 C 0.78953 0.83643 0.86453 0.0
C661 C 0.79671 0.85944 0.89189 0.0
C662 C 0.7027 0.70969 0.75701 0.0
C663 C 0.74919 0.8 0.81096 0.0
H664 H 0.82288 0.66677 0.6602 0.0
H665 H 0.74829 0.59302 0.57724 0.0
H666 H 0.71596 0.65137 0.63183 0.0
H667 H 0.70293 0.60828 0.58621 0.0
H668 H 0.70655 0.82527 0.82479 0.0
H669 H 0.77799 0.88826 0.91669 0.0
H670 H 0.80923 0.82823 0.86256 0.0
H671 H 0.82188 0.86898 0.91056 0.0
Cd672 Cd 0.97433 0.95568 0.52648 0.0
Cd673 Cd 0.04787 0.03177 0.46698 0.0
C674 C 1.00617 0.90322 0.53976 0.0
N675 N 0.99654 0.92016 0.51206 0.0
C676 C 0.01836 0.89638 0.47606 0.0
C677 C 0.02999 0.87994 0.50481 0.0
C678 C 0.023 0.88278 0.5367 0.0
C679 C 1.0012 0.91645 0.48023 0.0
H680 H 1.00189 0.90673 0.56465 0.0
H681 H 0.99262 0.92978 0.45855 0.0
C682 C 0.96174 0.979 0.4349 0.0
C683 C 1.01323 0.07973 0.4554 0.0
C684 C 0.99686 0.10063 0.45791 0.0
C685 C 1.00098 0.11429 0.49076 0.0
C686 C 0.02268 0.10774 0.52055 0.0
C687 C 0.03882 0.08638 0.51679 0.0
N688 N 0.03321 0.07257 0.48448 0.0
H689 H 1.00888 0.068 0.43021 0.0
H690 H 0.0544 0.07978 0.53958 0.0
C691 C 0.05977 0.97219 0.44183 0.0
N692 N 0.07759 -0.00136 0.466 0.0
C693 C 0.12928 0.98986 0.47362 0.0
C694 C 0.11153 0.9628 0.4481 0.0
C695 C 0.07621 0.95368 0.4326 0.0
C696 C 0.1117 0.00779 0.48206 0.0
H697 H 0.03318 0.96677 0.42822 0.0
H698 H 0.12575 0.0301 0.49974 0.0
C699 C 0.05024 -0.00117 0.54848 0.0
C700 C 0.93643 0.91568 0.57046 0.0
N701 N 0.96191 0.00207 0.52865 0.0
C702 C 0.98222 0.02748 0.55365 0.0
C703 C 0.96965 0.05017 0.56206 0.0
C704 C 0.93582 0.04622 0.54477 0.0
C705 C 0.91633 0.02093 0.51761 0.0
C706 C 0.92983 -0.00124 0.51023 0.0
C707 C 0.0806 0.07228 0.42014 0.0
O708 O 0.95811 0.96637 0.46409 0.0
O709 O 0.99065 -0.0001 0.43114 0.0
O710 O 0.03635 0.00181 0.51694 0.0
O711 O 0.03083 0.97915 0.56564 0.0
O712 O 0.92691 0.90616 0.53813 0.0
O713 O 0.96103 0.94421 0.58022 0.0
O714 O 0.09612 0.0767 0.45283 0.0
O715 O 0.05036 0.04905 0.41015 0.0
H716 H 1.00712 0.02865 0.56879 0.0
H717 H 0.91376 0.97735 0.49172 0.0
H718 H 0.02346 0.89449 0.45117 0.0
H719 H 0.03227 0.87094 0.5596 0.0
H720 H 0.97992 0.10499 0.43455 0.0
H721 H 0.02583 0.11775 0.5463 0.0
H722 H 0.15664 -0.00214 0.48583 0.0
H723 H 0.0618 0.93369 0.41204 0.0
H724 H 0.98534 0.06898 0.58353 0.0
H725 H 0.89025 0.01723 0.50344 0.0
Cd726 Cd 0.51547 0.96498 0.04698 0.0
Cd727 Cd 0.51899 0.03186 0.9351 0.0
C728 C 0.58433 0.95121 0.09124 0.0
N729 N 0.55676 0.9391 0.06253 0.0
C730 C 0.56915 0.8903 0.05731 0.0
C731 C 0.59728 0.90158 0.08753 0.0
C732 C 0.60497 0.93297 0.10406 0.0
C733 C 0.5492 0.90932 0.04541 0.0
H734 H 0.58955 0.97444 0.10515 0.0
H735 H 0.52685 0.89963 0.02309 0.0
C736 C 0.4745 0.95451 0.95362 0.0
C737 C 0.45039 0.04469 0.88825 0.0
C738 C 0.42906 0.06214 0.87483 0.0
C739 C 0.43481 0.09265 0.89182 0.0
C740 C 0.46173 0.1038 0.92307 0.0
C741 C 0.48242 0.08559 0.93555 0.0
N742 N 0.47679 0.05671 0.91797 0.0
H743 H 0.44663 0.02215 0.87408 0.0
H744 H 0.50379 0.09519 0.95879 0.0
C745 C 0.53051 0.976 0.89174 0.0
N746 N 0.54253 0.99505 0.92241 0.0
C747 C 0.58978 0.97817 0.94058 0.0
C748 C 0.57835 0.95843 0.90906 0.0
C749 C 0.54804 0.95729 0.88457 0.0
C750 C 0.57146 0.99629 0.94669 0.0
H751 H 0.50772 0.97582 0.87259 0.0
H752 H 0.58091 0.01223 0.97049 0.0
C753 C 0.56052 0.04334 0.02989 0.0
C754 C 0.46883 0.92017 0.08327 0.0
N755 N 0.49282 0.00263 0.06035 0.0
C756 C 0.49488 0.01063 0.09385 0.0
C757 C 0.47601 0.02812 0.10045 0.0
C758 C 0.45513 0.03791 0.07231 0.0
C759 C 0.45522 0.0309 0.0381 0.0
C760 C 0.47388 0.01286 0.03272 0.0
C761 C 0.56558 0.07621 0.89859 0.0
O762 O 0.49541 0.96759 0.98304 0.0
O763 O 0.47443 0.9731 0.92755 0.0
O764 O 0.5411 0.03104 -0.00043 0.0
O765 O 0.55949 0.024 0.05544 0.0
O766 O 0.46037 0.91863 0.04985 0.0
O767 O 0.4992 0.94074 0.09877 0.0
O768 O 0.57249 0.08 0.93183 0.0
O769 O 0.5366 0.05326 0.88302 0.0
H770 H 0.51003 0.00227 0.11552 0.0
H771 H 0.4724 0.00617 0.00631 0.0
H772 H 0.56216 0.86668 0.04308 0.0
H773 H 0.62586 0.94279 0.12765 0.0
H774 H 0.40918 0.05244 0.8505 0.0
H775 H 0.4672 0.12672 0.93771 0.0
H776 H 0.61332 0.98054 0.95998 0.0
H777 H 0.53802 0.94224 0.86005 0.0
H778 H 0.47672 0.03256 0.12729 0.0
H779 H 0.44044 0.03863 0.01548 0.0
Cd780 Cd 1.01133 0.46185 0.0518 0.0
Cd781 Cd 0.02177 0.52997 0.93932 0.0
C782 C 0.08146 0.44941 0.09046 0.0
N783 N 0.05019 0.43359 0.06699 0.0
C784 C 0.06048 0.38281 0.06723 0.0
C785 C 0.0929 0.39843 0.09167 0.0
C786 C 0.10321 0.4324 0.10299 0.0
C787 C 0.03953 0.40085 0.05525 0.0
H788 H 0.08925 0.47508 0.10032 0.0
H789 H 1.01436 0.38841 0.03709 0.0
C790 C 0.96697 0.45788 0.96012 0.0
C791 C 0.94903 0.53963 0.90108 0.0
C792 C 0.92676 0.55609 0.88797 0.0
C793 C 0.93724 0.5907 0.897 0.0
C794 C 0.97037 0.60747 0.91991 0.0
C795 C 0.9918 0.58998 0.93253 0.0
N796 N 0.98101 0.55661 0.92299 0.0
H797 H 0.94101 0.51344 0.89283 0.0
H798 H 0.01748 0.60338 0.94939 0.0
C799 C 0.02314 0.46875 0.8928 0.0
N800 N 0.03989 0.48995 0.92216 0.0
C801 C 0.08458 0.4692 0.93553 0.0
C802 C 0.068 0.44685 0.90549 0.0
C803 C 0.03679 0.44688 0.88396 0.0
C804 C 0.07007 0.49051 0.94334 0.0
H805 H 0.99931 0.46893 0.87613 0.0
H806 H 0.0832 0.50796 0.96621 0.0
C807 C 0.06794 0.53346 0.03185 0.0
C808 C 0.9665 0.42009 0.09112 0.0
N809 N 0.99193 0.50216 0.065 0.0
C810 C 1.01238 0.53194 0.0842 0.0
C811 C 0.99807 0.55399 0.09068 0.0
C812 C 0.96234 0.54476 0.07826 0.0
C813 C 0.9418 0.5137 0.05912 0.0
C814 C 0.95727 0.49287 0.05243 0.0
C815 C 0.06817 0.57706 0.90482 0.0
O816 O 0.99055 0.46714 0.98867 0.0
O817 O 0.97051 0.47647 0.93415 0.0
O818 O 0.04483 0.52507 0.00279 0.0
O819 O 0.06364 0.51407 0.05714 0.0
O820 O 0.95921 0.41378 0.05815 0.0
O821 O 0.99496 0.44455 0.10515 0.0
O822 O 0.07404 0.58014 0.93802 0.0
O823 O 0.04066 0.55276 0.88846 0.0
H824 H 0.03972 0.53864 0.09474 0.0
H825 H 0.94156 0.46904 0.03734 0.0
H826 H 0.0513 0.35685 0.05738 0.0
H827 H 0.12751 0.44556 0.12226 0.0
H828 H 0.90192 0.54193 0.86995 0.0
H829 H 0.97979 0.63393 0.92808 0.0
H830 H 0.10895 0.47075 0.95264 0.0
H831 H 0.02284 0.42996 0.8607 0.0
H832 H 1.01461 0.57773 0.10577 0.0
H833 H 0.91417 0.50587 0.04902 0.0
Cd834 Cd 0.48622 0.46755 0.03996 0.0
Cd835 Cd 0.54572 0.53346 0.95911 0.0
C836 C 0.55033 0.44981 0.04584 0.0
N837 N 0.51736 0.44067 0.02599 0.0
C838 C 0.52137 0.39764 -0.00571 0.0
C839 C 0.55571 0.40705 0.01413 0.0
C840 C 0.57019 0.43359 0.04004 0.0
C841 C 0.50246 0.415 0.00076 0.0
H842 H 0.561 0.46901 0.06698 0.0
H843 H 0.47572 0.40754 0.98639 0.0
C844 C 0.46651 0.47439 0.94415 0.0
C845 C 0.50561 0.56786 0.98372 0.0
C846 C 0.49425 0.59229 0.98935 0.0
C847 C 0.51667 0.62665 -0.00782 0.0
C848 C 0.55104 0.63539 -0.00825 0.0
C849 C 0.56147 0.60986 0.98633 0.0
N850 N 0.53833 0.57702 0.98152 0.0
H851 H 0.48765 0.54165 0.97871 0.0
H852 H 0.58728 0.61643 0.98397 0.0
C853 C 0.56001 0.47031 0.95021 0.0
N854 N 0.5778 0.5018 0.9662 0.0
C855 C 0.63139 0.4974 0.97269 0.0
C856 C 0.61384 0.46595 0.95334 0.0
C857 C 0.57757 0.45181 0.94345 0.0
C858 C 0.6127 0.51529 0.97843 0.0
H859 H 0.53225 0.46069 0.94025 0.0
H860 H 0.62606 0.54077 0.9904 0.0
C861 C 0.55126 0.52697 0.04482 0.0
C862 C 0.46149 0.42275 0.08875 0.0
N863 N 0.45175 0.49708 0.03218 0.0
C864 C 0.46662 0.52955 0.04572 0.0
C865 C 0.44621 0.54664 0.04778 0.0
C866 C 0.41014 0.52988 0.03632 0.0
C867 C 0.39556 0.49699 0.02046 0.0
C868 C 0.41709 0.4809 0.01866 0.0
C869 C 0.56878 0.57122 0.9055 0.0
O870 O 0.47336 0.47213 0.97701 0.0
O871 O 0.48848 0.4953 0.92978 0.0
O872 O 0.5358 0.51496 0.01378 0.0
O873 O 0.53753 0.51323 0.06894 0.0
O874 O 0.44781 0.41477 0.05613 0.0
O875 O 0.48541 0.45194 0.09785 0.0
O876 O 0.58781 0.57719 0.93692 0.0
O877 O 0.53928 0.5466 0.89908 0.0
H878 H 0.49422 0.54164 0.05662 0.0
H879 H 0.40611 0.45488 0.0084 0.0
H880 H 0.50927 0.37698 0.9744 0.0
H881 H 0.59616 0.44081 0.05679 0.0
H882 H 0.46722 0.58441 0.98813 0.0
H883 H 0.56887 0.66166 -0.00668 0.0
H884 H 0.65929 0.50897 0.98139 0.0
H885 H 0.56281 0.42792 0.92821 0.0
H886 H 0.45852 0.57175 0.06074 0.0
H887 H 0.36784 0.48325 0.01145 0.0
Cd888 Cd 1.01351 0.46542 0.54563 0.0
Cd889 Cd 0.01927 0.5301 0.43387 0.0
C890 C 0.08881 0.4569 0.57285 0.0
N891 N 0.05423 0.4394 0.55907 0.0
C892 C 0.06095 0.38676 0.56823 0.0
C893 C 0.09678 0.40391 0.58309 0.0
C894 C 0.11058 0.43966 0.58484 0.0
C895 C 0.04027 0.40495 0.55639 0.0
H896 H 0.0995 0.48426 0.57542 0.0
H897 H 1.01266 0.39143 0.54612 0.0
C898 C 0.97122 0.45245 0.45056 0.0
C899 C 0.96939 0.56029 0.38035 0.0
C900 C 0.94936 0.5788 0.3671 0.0
C901 C 0.93662 0.59156 0.38951 0.0
C902 C 0.94396 0.58446 0.4251 0.0
C903 C 0.96486 0.56635 0.4375 0.0
N904 N 0.97744 0.55489 0.41513 0.0
H905 H 0.97935 0.55105 0.36279 0.0
H906 H 0.97189 0.5624 0.46513 0.0
C907 C 0.03041 0.47338 0.39218 0.0
N908 N 0.04257 0.49275 0.42264 0.0
C909 C 0.08972 0.4758 0.44114 0.0
C910 C 0.07821 0.45588 0.40974 0.0
C911 C 0.04786 0.45455 0.38522 0.0
C912 C 0.07149 0.49411 0.44701 0.0
H913 H 1.00765 0.47317 0.37295 0.0
H914 H 0.08106 0.51034 0.47062 0.0
C915 C 0.05985 0.54106 0.52701 0.0
C916 C 0.97045 0.42228 0.58625 0.0
N917 N 0.99202 0.50419 0.55833 0.0
C918 C 0.99476 0.5126 0.59192 0.0
C919 C 0.97648 0.53058 0.59881 0.0
C920 C 0.95553 0.54049 0.57088 0.0
C921 C 0.955 0.53312 0.53652 0.0
C922 C 0.97309 0.51455 0.53085 0.0
C923 C 0.06641 0.5734 0.39712 0.0
O924 O 0.99035 0.46406 0.48117 0.0
O925 O 0.9734 0.47222 0.4254 0.0
O926 O 0.03894 0.52762 0.4977 0.0
O927 O 0.05916 0.52316 0.55361 0.0
O928 O 0.95991 0.41984 0.55291 0.0
O929 O 1.00123 0.44313 0.59985 0.0
O930 O 0.07245 0.57914 0.42999 0.0
O931 O 0.03848 0.54887 0.38227 0.0
H932 H 1.00994 0.50416 0.61346 0.0
H933 H 0.9711 0.50749 0.50437 0.0
H934 H 0.0485 0.35941 0.5668 0.0
H935 H 0.13792 0.45433 0.59558 0.0
H936 H 0.94424 0.58348 0.33949 0.0
H937 H 0.9349 0.59406 0.44339 0.0
H938 H 0.11329 0.47823 0.46053 0.0
H939 H 0.03782 0.43933 0.36081 0.0
H940 H 0.97765 0.53523 0.62575 0.0
H941 H 0.94011 0.54089 0.51404 0.0
Cd942 Cd 0.5056 0.95286 0.53945 0.0
Cd943 Cd 0.51972 0.02828 0.43321 0.0
C944 C 0.58133 0.94415 0.56282 0.0
N945 N 0.54655 0.92676 0.5566 0.0
C946 C 0.55476 0.87652 0.57756 0.0
C947 C 0.59093 0.89376 0.585 0.0
C948 C 0.6039 0.9281 0.5767 0.0
C949 C 0.53319 0.89338 0.56329 0.0
H950 H 0.59172 0.9707 0.55766 0.0
H951 H 0.50556 0.8799 0.55854 0.0
C952 C 0.46621 0.95559 0.45052 0.0
C953 C 0.44857 0.04424 0.41891 0.0
C954 C 0.4271 0.06176 0.40694 0.0
C955 C 0.4401 0.0942 0.39385 0.0
C956 C 0.47528 0.10824 0.3944 0.0
C957 C 0.49583 0.08997 0.4068 0.0
N958 N 0.4823 0.05835 0.41837 0.0
H959 H 0.43804 0.01916 0.42818 0.0
H960 H 0.52259 0.1009 0.40637 0.0
C961 C 0.51855 0.96564 0.38915 0.0
N962 N 0.53547 0.98601 0.41904 0.0
C963 C 0.57771 0.96232 0.43327 0.0
C964 C 0.56102 0.94108 0.40249 0.0
C965 C 0.53084 0.94269 0.38044 0.0
C966 C 0.56443 0.98469 0.44104 0.0
H967 H 0.49594 0.96769 0.37176 0.0
H968 H 0.5776 0.00154 0.46437 0.0
C969 C 0.55809 0.0331 0.53028 0.0
C970 C 0.45735 0.90627 0.57242 0.0
N971 N 0.48466 0.99103 0.55536 0.0
C972 C 0.49561 0.00609 0.58816 0.0
C973 C 0.48195 0.02819 0.59627 0.0
C974 C 0.45653 0.03466 0.57049 0.0
C975 C 0.44542 0.01816 0.53708 0.0
C976 C 0.45985 0.99648 0.5301 0.0
C977 C 0.56656 0.06935 0.39501 0.0
O978 O 0.492 0.96361 0.47717 0.0
O979 O 0.46772 0.97528 0.42538 0.0
O980 O 0.54253 0.0269 0.49779 0.0
O981 O 0.55134 0.00982 0.5518 0.0
O982 O 0.45043 0.905 0.53901 0.0
O983 O 0.48648 0.92815 0.58918 0.0
O984 O 0.57405 0.07396 0.4282 0.0
O985 O 0.53711 0.04674 0.3801 0.0
H986 H 0.51519 0.0012 0.60795 0.0
H987 H 0.45099 0.98374 0.50447 0.0
H988 H 0.54292 0.85041 0.5837 0.0
H989 H 0.63132 0.94276 0.58099 0.0
H990 H 0.4005 0.04977 0.40795 0.0
H991 H 0.48684 0.13275 0.38433 0.0
H992 H 0.60081 0.96167 0.45119 0.0
H993 H 0.51741 0.92707 0.35625 0.0
H994 H 0.49168 0.04048 0.62229 0.0
H995 H 0.42539 0.02156 0.51649 0.0
H996 H 0.1444 0.20628 0.25963 0.0
H997 H 0.14896 0.0997 0.42328 0.0
H998 H 0.20874 0.15027 0.28389 0.0
H999 H 0.04923 0.08959 0.35805 0.0
H1000 H 0.17501 0.12863 0.3767 0.0
H1001 H 0.10992 0.17081 0.29815 0.0
C1002 C 0.15033 0.1857 0.27209 0.0
C1003 C 0.1789 0.18061 0.2687 0.0
C1004 C 0.14742 0.12003 0.37275 0.0
C1005 C 0.14152 0.14192 0.31333 0.0
C1006 C 0.13272 0.10397 0.39931 0.0
C1007 C 0.09707 0.09233 0.39417 0.0
C1008 C 0.12633 0.12505 0.34143 0.0
C1009 C 0.07688 0.09814 0.36265 0.0
C1010 C 0.13105 0.16584 0.29415 0.0
C1011 C 0.18658 0.1545 0.28589 0.0
N1012 N 0.09187 0.11444 0.33736 0.0
N1013 N 0.16837 0.13645 0.30813 0.0
H1014 H 0.81693 0.14125 0.42319 0.0
H1015 H 0.01677 0.18203 0.48965 0.0
H1016 H 0.89225 0.19237 0.36512 0.0
H1017 H 0.93444 0.08517 0.49013 0.0
H1018 H 0.9737 0.20674 0.47009 0.0
H1019 H 0.86399 0.14296 0.47346 0.0
C1020 C 0.84313 0.15345 0.42095 0.0
C1021 C 0.8501 0.16508 0.38886 0.0
C1022 C 0.96545 0.18053 0.47675 0.0
C1023 C 0.90394 0.16911 0.44724 0.0
C1024 C 0.98989 0.16654 0.48797 0.0
C1025 C 0.97897 0.1318 0.49277 0.0
C1026 C 0.93024 0.15949 0.4707 0.0
C1027 C 0.94384 0.11226 0.48869 0.0
C1028 C 0.86994 0.15496 0.44999 0.0
C1029 C 0.88493 0.18246 0.38868 0.0
N1030 N 0.92062 0.12628 0.47762 0.0
N1031 N 0.91047 0.18335 0.41719 0.0
H1032 H 0.84553 0.87142 0.24522 0.0
H1033 H 0.89387 0.95156 0.4341 0.0
H1034 H 0.78811 0.83428 0.32231 0.0
H1035 H 0.96159 0.9823 0.36589 0.0
H1036 H 0.84517 0.92451 0.38384 0.0
H1037 H 0.87733 0.92583 0.27908 0.0
C1038 C 0.83942 0.87475 0.26905 0.0
C1039 C 0.81593 0.84768 0.28233 0.0
C1040 C 0.87058 0.9377 0.37969 0.0
C1041 C 0.85095 0.90971 0.32023 0.0
C1042 C 0.89842 0.95295 0.40845 0.0
C1043 C 0.93185 0.96794 0.40423 0.0
C1044 C 0.8765 0.93636 0.34681 0.0
C1045 C 0.93621 0.97005 0.3703 0.0
C1046 C 0.85723 0.9059 0.28811 0.0
C1047 C 0.80741 0.85389 0.31214 0.0
N1048 N 0.90887 0.95346 0.34286 0.0
N1049 N 0.82538 0.88409 0.33046 0.0
H1050 H 0.14883 0.82645 0.33078 0.0
H1051 H 0.17332 0.99313 0.43199 0.0
H1052 H 0.19957 0.92792 0.30078 0.0
H1053 H 0.09081 0.89538 0.43145 0.0
H1054 H 0.1969 0.96728 0.39786 0.0
H1055 H 0.14078 0.84995 0.38108 0.0
C1056 C 0.15859 0.85368 0.33507 0.0
C1057 C 0.17433 0.87539 0.31143 0.0
C1058 C 0.17408 0.95144 0.40597 0.0
C1059 C 0.16561 0.90221 0.36872 0.0
C1060 C 0.16078 0.96607 0.4257 0.0
C1061 C 0.12996 0.94638 0.43443 0.0
C1062 C 0.15653 0.91694 0.39523 0.0
C1063 C 0.11453 0.91151 0.42515 0.0
C1064 C 0.154 0.86701 0.36366 0.0
C1065 C 0.18665 0.91042 0.31808 0.0
N1066 N 0.1278 0.89793 0.40573 0.0
N1067 N 0.18186 0.9228 0.34608 0.0
H1068 H 0.15201 0.80996 0.63371 0.0
H1069 H 0.09266 0.91132 0.49334 0.0
H1070 H 0.22316 0.88283 0.5819 0.0
H1071 H 0.02338 0.81543 0.51871 0.0
H1072 H 0.14007 0.89326 0.51251 0.0
H1073 H 0.10582 0.80145 0.58168 0.0
C1074 C 0.15845 0.82362 0.61121 0.0
C1075 C 0.19177 0.84829 0.61307 0.0
C1076 C 0.11432 0.87544 0.51255 0.0
C1077 C 0.13772 0.83958 0.55332 0.0
C1078 C 0.08719 0.8857 0.50115 0.0
C1079 C 0.05432 0.86472 0.5043 0.0
C1080 C 0.10854 0.84455 0.52856 0.0
C1081 C 0.04858 0.83226 0.51603 0.0
C1082 C 0.13164 0.81876 0.58123 0.0
C1083 C 0.19767 0.8649 0.58253 0.0
N1084 N 0.07568 0.82343 0.52861 0.0
N1085 N 0.17069 0.86108 0.55428 0.0
H1086 H 0.20534 0.12068 0.71975 0.0
H1087 H 0.09468 0.05487 0.5253 0.0
H1088 H 0.20566 0.18059 0.62904 0.0
H1089 H 0.08699 0.9909 0.61265 0.0
H1090 H 0.14814 0.09664 0.5613 0.0
H1091 H 0.17219 0.06926 0.68023 0.0
C1092 C 0.19845 0.123 0.6917 0.0
C1093 C 0.20784 0.15486 0.67766 0.0
C1094 C 0.13511 0.07323 0.57254 0.0
C1095 C 0.17083 0.09697 0.63279 0.0
C1096 C 0.1047 0.0493 0.55182 0.0
C1097 C 0.08606 0.02002 0.56639 0.0
C1098 C 0.14609 0.06812 0.60828 0.0
C1099 C 0.10025 0.01382 0.60084 0.0
C1100 C 0.17999 0.09381 0.66921 0.0
C1101 C 0.19898 0.15666 0.64117 0.0
N1102 N 0.12908 0.03817 0.62104 0.0
N1103 N 0.18078 0.12821 0.62013 0.0
H1104 H 0.82847 0.08073 0.6742 0.0
H1105 H 0.9642 0.11338 0.56782 0.0
H1106 H 0.89948 0.18183 0.66324 0.0
H1107 H 0.87051 0.02249 0.55229 0.0
H1108 H 0.93959 0.141 0.5988 0.0
H1109 H 0.8417 0.06012 0.62606 0.0
C1110 C 0.84672 0.09853 0.66134 0.0
C1111 C 0.86342 0.13274 0.67276 0.0
C1112 C 0.9242 0.11525 0.58791 0.0
C1113 C 0.87897 0.10962 0.61812 0.0
C1114 C 0.9383 0.09943 0.57046 0.0
C1115 C 0.91957 0.06545 0.55788 0.0
C1116 C 0.89154 0.09665 0.59339 0.0
C1117 C 0.88591 0.04873 0.56144 0.0
C1118 C 0.85411 0.08691 0.63376 0.0
C1119 C 0.88644 0.15513 0.65514 0.0
N1120 N 0.87323 0.06431 0.57941 0.0
N1121 N 0.89411 0.14305 0.62897 0.0
H1122 H 0.87644 0.83847 0.75379 0.0
H1123 H 0.9011 0.84705 0.56401 0.0
H1124 H 0.84413 0.75067 0.68504 0.0
H1125 H 0.94496 0.93371 0.63775 0.0
H1126 H 0.88724 0.8101 0.61139 0.0
H1127 H 0.91333 0.87224 0.71763 0.0
C1128 C 0.87784 0.82612 0.7317 0.0
C1129 C 0.8559 0.79238 0.72112 0.0
C1130 C 0.90007 0.83721 0.61723 0.0
C1131 C 0.89707 0.83048 0.67937 0.0
C1132 C 0.90732 0.85824 0.59007 0.0
C1133 C 0.92355 0.89333 0.59699 0.0
C1134 C 0.90881 0.85155 0.65129 0.0
C1135 C 0.932 0.90668 0.63132 0.0
C1136 C 0.89873 0.84539 0.71084 0.0
C1137 C 0.85952 0.77719 0.69294 0.0
N1138 N 0.92431 0.88575 0.6572 0.0
N1139 N 0.87893 0.7966 0.67229 0.0
H1140 H 0.34628 0.12707 0.16298 0.0
H1141 H 0.391 0.03011 0.03106 0.0
H1142 H 0.29574 0.11035 0.05206 0.0
H1143 H 0.4656 0.08098 0.12762 0.0
H1144 H 0.35329 0.05518 0.041 0.0
H1145 H 0.38827 0.10701 0.15312 0.0
C1146 C 0.34404 0.11953 0.13653 0.0
C1147 C 0.31688 0.12012 0.1084 0.0
C1148 C 0.37801 0.06102 0.05993 0.0
C1149 C 0.36456 0.09632 0.09724 0.0
C1150 C 0.39984 0.04689 0.05416 0.0
C1151 C 0.43202 0.0536 0.07829 0.0
C1152 C 0.3879 0.0817 0.09036 0.0
C1153 C 0.44103 0.07468 0.10838 0.0
C1154 C 0.36798 0.10788 0.13102 0.0
C1155 C 0.3154 0.10953 0.07483 0.0
N1156 N 0.41905 0.08784 0.11363 0.0
N1157 N 0.33859 0.09783 0.0703 0.0
H1158 H 0.7903 0.28946 0.16447 0.0
H1159 H 0.97627 0.4291 0.16133 0.0
H1160 H 0.86417 0.35213 0.25503 0.0
H1161 H 0.90131 0.36942 0.06923 0.0
H1162 H 0.93522 0.4014 0.19568 0.0
H1163 H 0.82934 0.31959 0.12863 0.0
C1164 C 0.81495 0.30931 0.1769 0.0
C1165 C 0.82489 0.31721 0.21308 0.0
C1166 C 0.92767 0.39431 0.16797 0.0
C1167 C 0.86933 0.35261 0.17204 0.0
C1168 C 0.95119 0.41001 0.14831 0.0
C1169 C 0.94227 0.40155 0.11229 0.0
C1170 C 0.89481 0.36987 0.15162 0.0
C1171 C 0.90934 0.37666 0.09693 0.0
C1172 C 0.83711 0.3268 0.15633 0.0
C1173 C 0.85612 0.34466 0.22738 0.0
N1174 N 0.88679 0.3617 0.11668 0.0
N1175 N 0.87751 0.36106 0.20693 0.0
H1176 H 0.75246 0.82513 0.2004 0.0
H1177 H 0.57354 0.83173 0.08717 0.0
H1178 H 0.65691 0.73759 0.16549 0.0
H1179 H 0.66688 0.92177 0.12279 0.0
H1180 H 0.60541 0.79734 0.11229 0.0
H1181 H 0.72394 0.86094 0.16859 0.0
C1182 C 0.72576 0.81329 0.18546 0.0
C1183 C 0.7072 0.7781 0.18537 0.0
C1184 C 0.61908 0.82462 0.11455 0.0
C1185 C 0.67396 0.81919 0.14959 0.0
C1186 C 0.60082 0.84448 0.09987 0.0
C1187 C 0.61724 0.8801 0.10246 0.0
C1188 C 0.65434 0.84011 0.13232 0.0
C1189 C 0.65271 0.89457 0.12027 0.0
C1190 C 0.70932 0.83384 0.16755 0.0
C1191 C 0.67233 0.7645 0.16613 0.0
N1192 N 0.66993 0.87465 0.13446 0.0
N1193 N 0.65695 0.78492 0.14929 0.0
H1194 H 0.26015 0.68059 0.14827 0.0
H1195 H 0.13186 0.53762 0.06433 0.0
H1196 H 0.1804 0.71856 0.12414 0.0
H1197 H 0.07724 0.5976 0.01204 0.0
H1198 H 0.18236 0.58888 0.08755 0.0
H1199 H 0.22735 0.63885 0.09899 0.0
C1200 C 0.23576 0.68029 0.13249 0.0
C1201 C 0.2224 0.70242 0.14115 0.0
C1202 C 0.1601 0.59132 0.0699 0.0
C1203 C 0.18382 0.65363 0.08564 0.0
C1204 C 0.13106 0.56182 0.0568 0.0
C1205 C 0.10043 0.56358 0.03668 0.0
C1206 C 0.15824 0.62292 0.06346 0.0
C1207 C 0.10052 0.59538 0.02759 0.0
C1208 C 0.21686 0.65623 0.10445 0.0
C1209 C 0.19142 0.70177 0.11896 0.0
N1210 N 0.12875 0.62395 0.04193 0.0
N1211 N 0.17274 0.67721 0.09272 0.0
H1212 H 0.29133 0.78294 0.86499 0.0
H1213 H 0.48808 0.89837 0.9571 0.0
H1214 H 0.37693 0.77919 0.83448 0.0
H1215 H 0.40482 0.93126 0.93858 0.0
H1216 H 0.44596 0.84094 0.93417 0.0
H1217 H 0.33189 0.82261 0.9143 0.0
C1218 C 0.31863 0.79072 0.86847 0.0
C1219 C 0.3309 0.78049 0.84373 0.0
C1220 C 0.43691 0.8605 0.93628 0.0
C1221 C 0.37723 0.82361 0.90129 0.0
C1222 C 0.46079 0.89306 0.94944 0.0
C1223 C 0.44959 0.9192 0.94941 0.0
C1224 C 0.40181 0.85432 0.92361 0.0
C1225 C 0.41421 0.91155 0.93881 0.0
C1226 C 0.34169 0.81271 0.897 0.0
C1227 C 0.36638 0.78813 0.85171 0.0
N1228 N 0.39149 0.87977 0.92603 0.0
N1229 N 0.38849 0.81002 0.8794 0.0
H1230 H 0.13569 0.32117 0.80273 0.0
H1231 H 0.10219 0.41375 0.95098 0.0
H1232 H 0.1692 0.31103 0.91371 0.0
H1233 H 0.06897 0.42706 0.84066 0.0
H1234 H 0.12819 0.37738 0.9372 0.0
H1235 H 0.1132 0.36168 0.81543 0.0
C1236 C 0.13864 0.32763 0.82975 0.0
C1237 C 0.15405 0.31219 0.85713 0.0
C1238 C 0.11526 0.38824 0.91592 0.0
C1239 C 0.12796 0.35837 0.87185 0.0
C1240 C 0.10049 0.40927 0.92381 0.0
C1241 C 0.08332 0.4238 0.89701 0.0
C1242 C 0.11294 0.38135 0.88088 0.0
C1243 C 0.08151 0.41622 0.86224 0.0
C1244 C 0.12555 0.35061 0.83697 0.0
C1245 C 0.15689 0.32157 0.89163 0.0
N1246 N 0.09611 0.39558 0.85521 0.0
N1247 N 0.14388 0.3438 0.89792 0.0
H1248 H 0.65632 0.16702 0.73142 0.0
H1249 H 0.63157 0.125 0.92347 0.0
H1250 H 0.73808 0.21295 0.82486 0.0
H1251 H 0.55665 0.07206 0.82812 0.0
H1252 H 0.67221 0.15609 0.88895 0.0
H1253 H 0.62115 0.12944 0.76727 0.0
C1254 C 0.66701 0.16874 0.75956 0.0
C1255 C 0.70013 0.19284 0.77522 0.0
C1256 C 0.64691 0.13757 0.87568 0.0
C1257 C 0.65965 0.15078 0.81674 0.0
C1258 C 0.62363 0.11999 0.89532 0.0
C1259 C 0.5905 0.09615 0.87863 0.0
C1260 C 0.63688 0.13128 0.83912 0.0
C1261 C 0.58174 0.0904 0.84215 0.0
C1262 C 0.64693 0.1474 0.78007 0.0
C1263 C 0.7128 0.19436 0.81177 0.0
N1264 N 0.60468 0.10789 0.8237 0.0
N1265 N 0.69235 0.17384 0.83141 0.0
H1266 H 0.84718 0.73298 0.79639 0.0
H1267 H 0.86618 0.5661 0.88207 0.0
H1268 H 0.76219 0.64072 0.80535 0.0
H1269 H 0.95457 0.65739 0.87794 0.0
H1270 H 0.82861 0.59485 0.85607 0.0
H1271 H 0.88759 0.70848 0.82925 0.0
C1272 C 0.837 0.70791 0.80586 0.0
C1273 C 0.80112 0.68898 0.79832 0.0
C1274 C 0.85623 0.60877 0.86092 0.0
C1275 C 0.84723 0.66036 0.83511 0.0
C1276 C 0.87787 0.59217 0.87563 0.0
C1277 C 0.91395 0.60897 0.88222 0.0
C1278 C 0.87034 0.64274 0.85238 0.0
C1279 C 0.92708 0.64321 0.87378 0.0
C1280 C 0.86009 0.69377 0.82436 0.0
C1281 C 0.78956 0.65631 0.81067 0.0
N1282 N 0.9054 0.65881 0.85921 0.0
N1283 N 0.81234 0.64311 0.82813 0.0
H1284 H 0.18012 0.25395 0.19023 0.0
H1285 H 0.16384 0.42281 0.10814 0.0
H1286 H 0.26592 0.34617 0.18292 0.0
H1287 H 0.07443 0.33089 0.10746 0.0
H1288 H 0.20076 0.3933 0.13353 0.0
H1289 H 0.14027 0.27891 0.1569 0.0
C1290 C 0.19057 0.2791 0.18099 0.0
C1291 C 0.22647 0.29792 0.18914 0.0
C1292 C 0.17306 0.37939 0.12773 0.0
C1293 C 0.18113 0.32703 0.15195 0.0
C1294 C 0.15182 0.39642 0.11338 0.0
C1295 C 0.11569 0.37964 0.10572 0.0
C1296 C 0.15846 0.34503 0.13483 0.0
C1297 C 0.10203 0.34502 0.11258 0.0
C1298 C 0.16783 0.29349 0.16224 0.0
C1299 C 0.23849 0.33068 0.17712 0.0
N1300 N 0.12334 0.32899 0.1269 0.0
N1301 N 0.21605 0.34414 0.15947 0.0
H1302 H 0.24663 0.72199 0.8422 0.0
H1303 H 0.06075 0.57588 0.83448 0.0
H1304 H 0.18421 0.64986 0.75468 0.0
H1305 H 0.13183 0.62881 0.93162 0.0
H1306 H 0.10309 0.60904 0.80337 0.0
H1307 H 0.20304 0.69328 0.87448 0.0
C1308 C 0.22341 0.70041 0.82969 0.0
C1309 C 0.21768 0.68933 0.79512 0.0
C1310 C 0.10949 0.61347 0.8315 0.0
C1311 C 0.16874 0.65575 0.83193 0.0
C1312 C 0.08524 0.59462 0.84931 0.0
C1313 C 0.09286 0.59934 0.8858 0.0
C1314 C 0.14176 0.63728 0.8502 0.0
C1315 C 0.12497 0.62423 0.9035 0.0
C1316 C 0.19874 0.68395 0.84809 0.0
C1317 C 0.18842 0.66019 0.78061 0.0
N1318 N 0.14837 0.64222 0.88553 0.0
N1319 N 0.16481 0.64461 0.79891 0.0
H1320 H 0.27916 0.16688 0.77276 0.0
H1321 H 0.45639 0.16231 0.89426 0.0
H1322 H 0.37252 0.25489 0.81443 0.0
H1323 H 0.36589 0.07116 0.85318 0.0
H1324 H 0.42375 0.19575 0.86835 0.0
H1325 H 0.30744 0.1309 0.80531 0.0
C1326 C 0.30527 0.17869 0.78933 0.0
C1327 C 0.32338 0.21408 0.79108 0.0
C1328 C 0.41084 0.16842 0.86505 0.0
C1329 C 0.35631 0.17301 0.82768 0.0
C1330 C 0.42954 0.14909 0.8802 0.0
C1331 C 0.4142 0.11346 0.87635 0.0
C1332 C 0.37617 0.15242 0.84549 0.0
C1333 C 0.37927 0.09842 0.85676 0.0
C1334 C 0.32157 0.15812 0.80765 0.0
C1335 C 0.35747 0.22781 0.81241 0.0
N1336 N 0.36158 0.11786 0.84212 0.0
N1337 N 0.37271 0.20742 0.82957 0.0
H1338 H 0.78142 0.32887 0.83662 0.0
H1339 H 0.9589 0.39413 0.98021 0.0
H1340 H 0.84111 0.2692 0.87149 0.0
H1341 H 0.90227 0.45373 0.93199 0.0
H1342 H 0.90674 0.34233 0.95791 0.0
H1343 H 0.81414 0.36654 0.88871 0.0
C1344 C 0.80141 0.32355 0.85528 0.0
C1345 C 0.81018 0.29711 0.84846 0.0
C1346 C 0.90546 0.36676 0.9532 0.0
C1347 C 0.84823 0.3406 0.90809 0.0
C1348 C 0.93512 0.39622 0.966 0.0
C1349 C 0.93477 0.42788 0.95693 0.0
C1350 C 0.87566 0.36946 0.93153 0.0
C1351 C 0.90357 0.42957 0.9387 0.0
C1352 C 0.82001 0.34502 0.88523 0.0
C1353 C 0.83494 0.29041 0.87464 0.0
N1354 N 0.87538 0.40074 0.92613 0.0
N1355 N 0.85402 0.31272 0.90285 0.0
H1356 H 0.72326 0.86501 0.93217 0.0
H1357 H 0.59007 0.94884 0.84617 0.0
H1358 H 0.69312 0.87655 0.82112 0.0
H1359 H 0.6134 0.92642 0.95503 0.0
H1360 H 0.62622 0.92152 0.8357 0.0
H1361 H 0.6824 0.88703 0.94038 0.0
C1362 C 0.70804 0.87221 0.90946 0.0
C1363 C 0.71195 0.86921 0.87593 0.0
C1364 C 0.62328 0.92248 0.86183 0.0
C1365 C 0.66464 0.89435 0.88514 0.0
C1366 C 0.60243 0.9379 0.86783 0.0
C1367 C 0.59868 0.94019 0.90164 0.0
C1368 C 0.6407 0.90932 0.88983 0.0
C1369 C 0.61591 0.92593 0.92867 0.0
C1370 C 0.68452 0.88464 0.91414 0.0
C1371 C 0.69092 0.87831 0.84742 0.0
N1372 N 0.63621 0.91133 0.92221 0.0
N1373 N 0.66836 0.8907 0.85269 0.0
H1374 H 0.88543 0.70091 0.06568 0.0
H1375 H 0.91179 0.53129 0.1118 0.0
H1376 H 0.87658 0.65855 0.16564 0.0
H1377 H 0.97701 0.60969 0.05964 0.0
H1378 H 0.8865 0.57014 0.12304 0.0
H1379 H 0.90677 0.65963 0.0541 0.0
C1380 C 0.88804 0.68318 0.08539 0.0
C1381 C 0.87986 0.68414 0.11723 0.0
C1382 C 0.90634 0.57871 0.10915 0.0
C1383 C 0.90297 0.63557 0.103 0.0
C1384 C 0.92063 0.55665 0.10266 0.0
C1385 C 0.94659 0.56754 0.08499 0.0
C1386 C 0.91748 0.61143 0.09697 0.0
C1387 C 0.95724 0.60054 0.07359 0.0
C1388 C 0.9 0.65941 0.07848 0.0
C1389 C 0.88237 0.65906 0.14071 0.0
N1390 N 0.94243 0.62125 0.07952 0.0
N1391 N 0.89369 0.63581 0.13312 0.0
H1392 H 0.37881 0.8415 0.25397 0.0
H1393 H 0.40074 0.8752 0.05942 0.0
H1394 H 0.29655 0.7911 0.16228 0.0
H1395 H 0.48046 0.92253 0.1541 0.0
H1396 H 0.36043 0.84668 0.09514 0.0
H1397 H 0.41407 0.87551 0.2164 0.0
C1398 C 0.36805 0.83802 0.22581 0.0
C1399 C 0.33481 0.81363 0.21118 0.0
C1400 C 0.38676 0.86335 0.10799 0.0
C1401 C 0.37537 0.85166 0.16773 0.0
C1402 C 0.40981 0.87945 0.08765 0.0
C1403 C 0.44414 0.90105 0.10379 0.0
C1404 C 0.39816 0.86903 0.14465 0.0
C1405 C 0.45438 0.90592 0.14044 0.0
C1406 C 0.3882 0.85729 0.20431 0.0
C1407 C 0.32201 0.8099 0.17455 0.0
N1408 N 0.43158 0.89007 0.1595 0.0
N1409 N 0.34249 0.8285 0.15399 0.0
H1410 H 0.73724 0.22762 0.11546 0.0
H1411 H 0.63011 0.06885 0.04238 0.0
H1412 H 0.65389 0.20645 0.16311 0.0
H1413 H 0.54524 0.09761 0.03392 0.0
H1414 H 0.67045 0.12608 0.06658 0.0
H1415 H 0.69663 0.1883 0.06586 0.0
C1416 C 0.7103 0.21515 0.11529 0.0
C1417 C 0.69932 0.21863 0.14455 0.0
C1418 C 0.6431 0.12035 0.05819 0.0
C1419 C 0.65286 0.17445 0.08771 0.0
C1420 C 0.62017 0.08772 0.04454 0.0
C1421 C 0.58461 0.07898 0.03601 0.0
C1422 C 0.63015 0.14386 0.06438 0.0
C1423 C 0.57267 0.10381 0.03998 0.0
C1424 C 0.68723 0.19279 0.08696 0.0
C1425 C 0.66385 0.20338 0.14197 0.0
N1426 N 0.59541 0.13499 0.05487 0.0
N1427 N 0.64192 0.18132 0.11436 0.0
H1428 H 0.68259 0.73577 0.80318 0.0
H1429 H 0.54774 0.55572 0.83484 0.0
H1430 H 0.64988 0.64714 0.73541 0.0
H1431 H 0.61457 0.63648 0.91372 0.0
H1432 H 0.56932 0.59301 0.78982 0.0
H1433 H 0.63908 0.70404 0.83346 0.0
C1434 C 0.66585 0.7097 0.79431 0.0
C1435 C 0.67073 0.69348 0.76781 0.0
C1436 C 0.57876 0.60253 0.81696 0.0
C1437 C 0.62132 0.65711 0.8024 0.0
C1438 C 0.56667 0.58137 0.84254 0.0
C1439 C 0.58001 0.59305 0.87791 0.0
C1440 C 0.60366 0.63555 0.82706 0.0
C1441 C 0.60421 0.62638 0.88676 0.0
C1442 C 0.64101 0.69167 0.81152 0.0
C1443 C 0.64753 0.66019 0.75634 0.0
N1444 N 0.61535 0.64646 0.86146 0.0
N1445 N 0.62422 0.64261 0.77439 0.0
H1446 H 0.39639 0.69105 0.84332 0.0
H1447 H 0.47055 0.63213 0.02388 0.0
H1448 H 0.33532 0.63432 0.91266 0.0
H1449 H 0.52673 0.67765 0.9475 0.0
H1450 H 0.42705 0.65377 -0.00476 0.0
H1451 H 0.44783 0.70657 0.8916 0.0
C1452 C 0.39347 0.68248 0.86885 0.0
C1453 C 0.36126 0.66051 0.87354 0.0
C1454 C 0.44956 0.66011 0.98552 0.0
C1455 C 0.42087 0.6774 0.92895 0.0
C1456 C 0.47443 0.64791 0.00196 0.0
C1457 C 0.50138 0.65196 0.98713 0.0
C1458 C 0.45198 0.67647 0.95421 0.0
C1459 C 0.50595 0.67333 0.9594 0.0
C1460 C 0.42313 0.69129 0.89651 0.0
C1461 C 0.35967 0.65023 0.90743 0.0
N1462 N 0.48086 0.68396 0.94314 0.0
N1463 N 0.38917 0.6581 0.93367 0.0
H1464 H 0.27777 0.33905 0.80065 0.0
H1465 H 0.4599 0.41371 0.92423 0.0
H1466 H 0.36734 0.34852 0.76843 0.0
H1467 H 0.40607 0.47967 0.91223 0.0
H1468 H 0.41465 0.37653 0.87577 0.0
H1469 H 0.31535 0.38306 0.84778 0.0
C1470 C 0.30519 0.3512 0.80287 0.0
C1471 C 0.31986 0.34026 0.78108 0.0
C1472 C 0.41252 0.39887 0.88423 0.0
C1473 C 0.36203 0.38885 0.83444 0.0
C1474 C 0.43781 0.41957 0.91204 0.0
C1475 C 0.43594 0.44911 0.92191 0.0
C1476 C 0.38563 0.40813 0.86644 0.0
C1477 C 0.40767 0.45665 0.90498 0.0
C1478 C 0.32636 0.37605 0.82956 0.0
C1479 C 0.35521 0.35648 0.78454 0.0
N1480 N 0.38324 0.43612 0.87753 0.0
N1481 N 0.3754 0.37951 0.81151 0.0
H1482 H 0.65457 0.33152 0.83586 0.0
H1483 H 0.67187 0.49824 0.93057 0.0
H1484 H 0.69887 0.43258 0.80188 0.0
H1485 H 0.59807 0.39808 0.94147 0.0
H1486 H 0.69525 0.47321 0.89597 0.0
H1487 H 0.6459 0.35495 0.88583 0.0
C1488 C 0.66269 0.35865 0.83913 0.0
C1489 C 0.67694 0.38023 0.81456 0.0
C1490 C 0.67435 0.45672 0.90655 0.0
C1491 C 0.66754 0.40698 0.87146 0.0
C1492 C 0.66118 0.47093 0.92674 0.0
C1493 C 0.63271 0.45035 0.93897 0.0
C1494 C 0.65895 0.42171 0.89841 0.0
C1495 C 0.61973 0.41509 0.93236 0.0
C1496 C 0.65775 0.37193 0.86754 0.0
C1497 C 0.68715 0.41512 0.8199 0.0
N1498 N 0.6327 0.4019 0.91216 0.0
N1499 N 0.68213 0.42743 0.84775 0.0
H1500 H 0.72936 0.36333 0.06964 0.0
H1501 H 0.53443 0.33829 0.00881 0.0
H1502 H 0.64947 0.30438 0.11985 0.0
H1503 H 0.62328 0.4319 0.01389 0.0
H1504 H 0.57234 0.3078 0.01992 0.0
H1505 H 0.68484 0.36794 0.02013 0.0
C1506 C 0.70266 0.35066 0.07018 0.0
C1507 C 0.69369 0.33536 0.10033 0.0
C1508 C 0.58309 0.33481 0.01682 0.0
C1509 C 0.64281 0.33881 0.04278 0.0
C1510 C 0.56159 0.35223 0.01058 0.0
C1511 C 0.57589 0.38769 0.01078 0.0
C1512 C 0.61882 0.35309 0.02281 0.0
C1513 C 0.6113 0.4046 0.01379 0.0
C1514 C 0.67728 0.35281 0.04153 0.0
C1515 C 0.65834 0.31739 0.09807 0.0
N1516 N 0.63165 0.38717 0.0201 0.0
N1517 N 0.63426 0.32033 0.07016 0.0
H1518 H 0.66603 0.64863 0.21147 0.0
H1519 H 0.61394 0.52654 0.05295 0.0
H1520 H 0.74997 0.65533 0.17043 0.0
H1521 H 0.56145 0.59021 0.06117 0.0
H1522 H 0.6653 0.56483 0.09643 0.0
H1523 H 0.62545 0.61129 0.1614 0.0
C1524 C 0.67602 0.64107 0.19282 0.0
C1525 C 0.71115 0.65516 0.1948 0.0
C1526 C 0.64301 0.57107 0.08743 0.0
C1527 C 0.66518 0.61409 0.13689 0.0
C1528 C 0.61411 0.54974 0.06233 0.0
C1529 C 0.58398 0.55573 0.0538 0.0
C1530 C 0.64063 0.59751 0.10399 0.0
C1531 C 0.58453 0.58518 0.06721 0.0
C1532 C 0.65287 0.62051 0.16377 0.0
C1533 C 0.72276 0.64502 0.16929 0.0
N1534 N 0.61228 0.6047 0.09253 0.0
N1535 N 0.69963 0.62525 0.14075 0.0
H1536 H 0.37143 0.6704 0.14341 0.0
H1537 H 0.35741 0.49732 0.06614 0.0
H1538 H 0.33785 0.5745 0.19077 0.0
H1539 H 0.41507 0.59532 0.03318 0.0
H1540 H 0.33456 0.52397 0.0999 0.0
H1541 H 0.37391 0.64194 0.09297 0.0
C1542 C 0.36424 0.6433 0.14297 0.0
C1543 C 0.35496 0.62475 0.17144 0.0
C1544 C 0.35168 0.5396 0.08472 0.0
C1545 C 0.35743 0.5922 0.114 0.0
C1546 C 0.36439 0.52434 0.06503 0.0
C1547 C 0.3887 0.54429 0.04738 0.0
C1548 C 0.36351 0.575 0.08687 0.0
C1549 C 0.39701 0.57922 0.04716 0.0
C1550 C 0.36565 0.62713 0.11425 0.0
C1551 C 0.34586 0.58977 0.16965 0.0
N1552 N 0.38494 0.59364 0.06724 0.0
N1553 N 0.34751 0.57464 0.14149 0.0
H1554 H 0.34536 0.25367 0.18326 0.0
H1555 H 0.47772 0.43666 0.15904 0.0
H1556 H 0.37923 0.33965 0.25514 0.0
H1557 H 0.42157 0.35518 0.07877 0.0
H1558 H 0.45681 0.39733 0.20245 0.0
H1559 H 0.39033 0.28591 0.15493 0.0
C1560 C 0.36262 0.27928 0.19338 0.0
C1561 C 0.35769 0.29475 0.22044 0.0
C1562 C 0.44955 0.38804 0.17543 0.0
C1563 C 0.40869 0.33174 0.18803 0.0
C1564 C 0.46123 0.41041 0.15064 0.0
C1565 C 0.45061 0.39914 0.11524 0.0
C1566 C 0.42734 0.3543 0.16459 0.0
C1567 C 0.42969 0.36496 0.10572 0.0
C1568 C 0.38832 0.29761 0.17729 0.0
C1569 C 0.38156 0.32732 0.23362 0.0
N1570 N 0.41846 0.34375 0.13028 0.0
N1571 N 0.40563 0.34528 0.21659 0.0
H1572 H 0.84695 0.62629 0.66572 0.0
H1573 H 0.89146 0.5335 0.5301 0.0
H1574 H 0.79587 0.61167 0.55493 0.0
H1575 H 0.96674 0.58334 0.62674 0.0
H1576 H 0.85401 0.55827 0.54118 0.0
H1577 H 0.88946 0.60775 0.6544 0.0
C1578 C 0.84472 0.61954 0.63901 0.0
C1579 C 0.81725 0.62017 0.61133 0.0
C1580 C 0.87883 0.56397 0.55987 0.0
C1581 C 0.86549 0.59817 0.59847 0.0
C1582 C 0.90054 0.55002 0.55344 0.0
C1583 C 0.93279 0.55643 0.57729 0.0
C1584 C 0.8889 0.58414 0.59071 0.0
C1585 C 0.94208 0.5772 0.6077 0.0
C1586 C 0.86895 0.60877 0.63265 0.0
C1587 C 0.81579 0.61071 0.57735 0.0
N1588 N 0.92017 0.59013 0.61364 0.0
N1589 N 0.83925 0.59982 0.57199 0.0
H1590 H 0.27918 0.76955 0.64182 0.0
H1591 H 0.46783 0.90419 0.64296 0.0
H1592 H 0.34669 0.84269 0.72708 0.0
H1593 H 0.39017 0.86 0.54604 0.0
H1594 H 0.42581 0.87379 0.67527 0.0
H1595 H 0.3208 0.79596 0.60687 0.0
C1596 C 0.30311 0.7908 0.65329 0.0
C1597 C 0.31096 0.80263 0.68808 0.0
C1598 C 0.41789 0.8707 0.64694 0.0
C1599 C 0.3576 0.83369 0.64821 0.0
C1600 C 0.44193 0.88793 0.6284 0.0
C1601 C 0.43242 0.88494 0.59165 0.0
C1602 C 0.38393 0.85018 0.62876 0.0
C1603 C 0.39852 0.86317 0.57435 0.0
C1604 C 0.32661 0.80601 0.63333 0.0
C1605 C 0.34096 0.83159 0.70111 0.0
N1606 N 0.37535 0.84664 0.59309 0.0
N1607 N 0.36348 0.84586 0.68137 0.0
H1608 H 0.16032 0.23928 0.6453 0.0
H1609 H 0.15601 0.42206 0.63885 0.0
H1610 H 0.24753 0.32638 0.70113 0.0
H1611 H 0.08889 0.34085 0.56042 0.0
H1612 H 0.18957 0.38852 0.66298 0.0
H1613 H 0.13366 0.27652 0.61488 0.0
C1614 C 0.17417 0.26642 0.65061 0.0
C1615 C 0.20642 0.27973 0.67535 0.0
C1616 C 0.16761 0.37821 0.64034 0.0
C1617 C 0.17531 0.32282 0.6415 0.0
C1618 C 0.14837 0.39745 0.6263 0.0
C1619 C 0.11902 0.38451 0.5974 0.0
C1620 C 0.15743 0.34547 0.62578 0.0
C1621 C 0.11054 0.35197 0.5831 0.0
C1622 C 0.15887 0.28772 0.63334 0.0
C1623 C 0.22294 0.31509 0.68174 0.0
N1624 N 0.12934 0.33367 0.59753 0.0
N1625 N 0.207 0.3354 0.66527 0.0
H1626 H 0.74754 0.20079 0.62466 0.0
H1627 H 0.5546 0.0663 0.58298 0.0
H1628 H 0.67173 0.19992 0.67523 0.0
H1629 H 0.61541 0.07692 0.51044 0.0
H1630 H 0.59754 0.11885 0.61394 0.0
H1631 H 0.70081 0.15866 0.5795 0.0
C1632 C 0.721 0.1924 0.62561 0.0
C1633 C 0.71305 0.20424 0.65298 0.0
C1634 C 0.60161 0.11024 0.591 0.0
C1635 C 0.6603 0.15648 0.60258 0.0
C1636 C 0.57701 0.08015 0.57338 0.0
C1637 C 0.58182 0.0674 0.54452 0.0
C1638 C 0.63187 0.12746 0.58027 0.0
C1639 C 0.61109 0.08622 0.53281 0.0
C1640 C 0.69447 0.16857 0.59999 0.0
C1641 C 0.67869 0.19235 0.65387 0.0
N1642 N 0.63561 0.11524 0.55124 0.0
N1643 N 0.65368 0.1691 0.6292 0.0
H1644 H 0.79702 0.26324 0.37065 0.0
H1645 H 0.90293 0.43081 0.41901 0.0
H1646 H 0.87919 0.28717 0.32063 0.0
H1647 H 0.9825 0.39488 0.46436 0.0
H1648 H 0.86334 0.37295 0.39614 0.0
H1649 H 0.83718 0.3051 0.41856 0.0
C1650 C 0.82369 0.27661 0.37012 0.0
C1651 C 0.8343 0.27325 0.34056 0.0
C1652 C 0.88911 0.37758 0.41211 0.0
C1653 C 0.88034 0.31959 0.39583 0.0
C1654 C 0.91164 0.41047 0.42498 0.0
C1655 C 0.94571 0.41727 0.44373 0.0
C1656 C 0.90115 0.35168 0.417 0.0
C1657 C 0.95616 0.39029 0.45029 0.0
C1658 C 0.84651 0.30022 0.39757 0.0
C1659 C 0.8695 0.28992 0.34213 0.0
N1660 N 0.9342 0.35863 0.43592 0.0
N1661 N 0.89119 0.31309 0.36894 0.0
H1662 H 0.69496 0.85126 0.36452 0.0
H1663 H 0.52598 0.87527 0.37563 0.0
H1664 H 0.59582 0.76852 0.35434 0.0
H1665 H 0.62875 0.95386 0.40828 0.0
H1666 H 0.55026 0.83722 0.36138 0.0
H1667 H 0.67017 0.89073 0.37415 0.0
C1668 C 0.66791 0.84145 0.36401 0.0
C1669 C 0.64746 0.80654 0.35886 0.0
C1670 C 0.56751 0.86279 0.37167 0.0
C1671 C 0.61899 0.85144 0.36993 0.0
C1672 C 0.55363 0.88459 0.37961 0.0
C1673 C 0.57536 0.91778 0.3933 0.0
C1674 C 0.60337 0.87429 0.37717 0.0
C1675 C 0.61107 0.92834 0.39826 0.0
C1676 C 0.65385 0.86393 0.36973 0.0
C1677 C 0.61263 0.79518 0.3587 0.0
N1678 N 0.62395 0.90669 0.39017 0.0
N1679 N 0.59951 0.81754 0.36416 0.0
H1680 H 0.15257 0.65977 0.22595 0.0
H1681 H 0.13122 0.62499 0.42017 0.0
H1682 H 0.23447 0.71088 0.31762 0.0
H1683 H 0.05728 0.56631 0.32703 0.0
H1684 H 0.17058 0.656 0.38427 0.0
H1685 H 0.11876 0.62342 0.26359 0.0
C1686 C 0.16359 0.66294 0.25408 0.0
C1687 C 0.19638 0.68811 0.26868 0.0
C1688 C 0.14577 0.63622 0.37183 0.0
C1689 C 0.15748 0.64739 0.31221 0.0
C1690 C 0.12324 0.61868 0.39225 0.0
C1691 C 0.09078 0.59321 0.37656 0.0
C1692 C 0.13561 0.62826 0.33551 0.0
C1693 C 0.08191 0.58586 0.34032 0.0
C1694 C 0.14429 0.64229 0.27562 0.0
C1695 C 0.20948 0.69146 0.30529 0.0
N1696 N 0.10407 0.60334 0.32112 0.0
N1697 N 0.18981 0.67154 0.32587 0.0
H1698 H 0.26286 0.14121 0.29866 0.0
H1699 H 0.45677 0.16372 0.39234 0.0
H1700 H 0.34915 0.23463 0.29576 0.0
H1701 H 0.37028 0.06743 0.36004 0.0
H1702 H 0.41887 0.19244 0.36554 0.0
H1703 H 0.30256 0.11706 0.33126 0.0
C1704 C 0.29027 0.15696 0.30556 0.0
C1705 C 0.30253 0.19012 0.29465 0.0
C1706 C 0.4083 0.16504 0.36449 0.0
C1707 C 0.34875 0.16212 0.33178 0.0
C1708 C 0.42998 0.14842 0.37965 0.0
C1709 C 0.4171 0.11269 0.37878 0.0
C1710 C 0.37319 0.14599 0.34861 0.0
C1711 C 0.38174 0.0948 0.36236 0.0
C1712 C 0.31301 0.14299 0.32396 0.0
C1713 C 0.33847 0.20912 0.30403 0.0
N1714 N 0.36128 0.11154 0.34816 0.0
N1715 N 0.36036 0.19481 0.32198 0.0
H1716 H 0.68078 0.75194 0.6877 0.0
H1717 H 0.65771 0.92225 0.62824 0.0
H1718 H 0.76589 0.84767 0.68923 0.0
H1719 H 0.57906 0.82513 0.5823 0.0
H1720 H 0.69544 0.89429 0.65596 0.0
H1721 H 0.64091 0.77647 0.65333 0.0
C1722 C 0.69117 0.77781 0.68027 0.0
C1723 C 0.72691 0.7976 0.69099 0.0
C1724 C 0.66993 0.87908 0.63969 0.0
C1725 C 0.68133 0.8263 0.65323 0.0
C1726 C 0.64821 0.89515 0.62343 0.0
C1727 C 0.6147 0.87648 0.60221 0.0
C1728 C 0.65831 0.84373 0.63555 0.0
C1729 C 0.60423 0.84098 0.59859 0.0
C1730 C 0.66838 0.79191 0.66092 0.0
C1731 C 0.73865 0.83134 0.6814 0.0
N1732 N 0.62576 0.82585 0.61516 0.0
N1733 N 0.71608 0.8446 0.66357 0.0
H1734 H 0.66862 0.13815 0.2291 0.0
H1735 H 0.63095 0.12077 0.41809 0.0
H1736 H 0.74004 0.20047 0.32094 0.0
H1737 H 0.55851 0.06074 0.32502 0.0
H1738 H 0.67195 0.14957 0.38346 0.0
H1739 H 0.62919 0.10721 0.26471 0.0
C1740 C 0.67589 0.14531 0.25678 0.0
C1741 C 0.70676 0.17285 0.27184 0.0
C1742 C 0.64709 0.13005 0.37065 0.0
C1743 C 0.66235 0.13744 0.31288 0.0
C1744 C 0.62364 0.1137 0.39039 0.0
C1745 C 0.59125 0.08829 0.37446 0.0
C1746 C 0.63817 0.12077 0.33477 0.0
C1747 C 0.58316 0.08018 0.33845 0.0
C1748 C 0.65345 0.12774 0.2771 0.0
C1749 C 0.71569 0.1805 0.30799 0.0
N1750 N 0.60645 0.09629 0.31989 0.0
N1751 N 0.69343 0.16311 0.32724 0.0
H1752 H 0.78387 0.67378 0.28831 0.0
H1753 H 0.958 0.64828 0.35346 0.0
H1754 H 0.88323 0.75787 0.31337 0.0
H1755 H 0.87245 0.5856 0.39381 0.0
H1756 H 0.92723 0.68426 0.32932 0.0
H1757 H 0.81158 0.63678 0.31936 0.0
C1758 C 0.81128 0.68464 0.30093 0.0
C1759 C 0.83114 0.71924 0.29874 0.0
C1760 C 0.91517 0.66269 0.34354 0.0
C1761 C 0.86318 0.67669 0.33245 0.0
C1762 C 0.93268 0.64207 0.35723 0.0
C1763 C 0.91787 0.61389 0.37579 0.0
C1764 C 0.88207 0.65487 0.34757 0.0
C1765 C 0.88491 0.60719 0.37987 0.0
C1766 C 0.82711 0.66345 0.31838 0.0
C1767 C 0.86682 0.73151 0.31458 0.0
N1768 N 0.86791 0.62728 0.36554 0.0
N1769 N 0.88164 0.71031 0.33019 0.0
H1770 H 0.3266 0.762 0.36756 0.0
H1771 H 0.4017 0.95399 0.43321 0.0
H1772 H 0.28694 0.83636 0.32457 0.0
H1773 H 0.45777 0.8904 0.4633 0.0
H1774 H 0.3485 0.9037 0.41238 0.0
H1775 H 0.36346 0.80125 0.41862 0.0
C1776 C 0.32553 0.78642 0.3688 0.0
C1777 C 0.30554 0.79683 0.34052 0.0
C1778 C 0.37223 0.90054 0.4243 0.0
C1779 C 0.34589 0.84091 0.39953 0.0
C1780 C 0.40251 0.92923 0.43626 0.0
C1781 C 0.43397 0.92609 0.44908 0.0
C1782 C 0.37377 0.86869 0.42395 0.0
C1783 C 0.43384 0.89363 0.45305 0.0
C1784 C 0.34616 0.8086 0.3982 0.0
C1785 C 0.30314 0.82774 0.34482 0.0
N1786 N 0.40425 0.86603 0.43947 0.0
N1787 N 0.32351 0.84885 0.3734 0.0
H1788 H 0.2203 0.35926 0.43224 0.0
H1789 H 0.09038 0.44691 0.34703 0.0
H1790 H 0.19345 0.375 0.32186 0.0
H1791 H 0.11277 0.42347 0.45563 0.0
H1792 H 0.1263 0.41938 0.33647 0.0
H1793 H 0.17994 0.38187 0.44058 0.0
C1794 C 0.20592 0.36752 0.40971 0.0
C1795 C 0.2106 0.36552 0.37635 0.0
C1796 C 0.12321 0.42015 0.36257 0.0
C1797 C 0.16385 0.39129 0.38568 0.0
C1798 C 0.10249 0.43568 0.3686 0.0
C1799 C 0.09852 0.43768 0.40235 0.0
C1800 C 0.14022 0.40656 0.39047 0.0
C1801 C 0.11543 0.42312 0.42932 0.0
C1802 C 0.18269 0.38029 0.41447 0.0
C1803 C 0.19062 0.37595 0.34803 0.0
N1804 N 0.13557 0.40836 0.42281 0.0
N1805 N 0.16829 0.38861 0.35337 0.0
H1806 H 0.38419 0.15994 0.66702 0.0
H1807 H 0.43706 0.07863 0.52641 0.0
H1808 H 0.37094 0.18368 0.55845 0.0
H1809 H 0.44256 0.04582 0.63176 0.0
H1810 H 0.41249 0.11691 0.53839 0.0
H1811 H 0.40459 0.11737 0.65527 0.0
C1812 C 0.38525 0.15606 0.64067 0.0
C1813 C 0.37621 0.17587 0.6138 0.0
C1814 C 0.41898 0.10132 0.55894 0.0
C1815 C 0.39994 0.12742 0.60029 0.0
C1816 C 0.43289 0.07918 0.55203 0.0
C1817 C 0.44188 0.05861 0.578 0.0
C1818 C 0.41406 0.10335 0.59221 0.0
C1819 C 0.43649 0.06136 0.61098 0.0
C1820 C 0.39712 0.13188 0.63404 0.0
C1821 C 0.37835 0.16971 0.58024 0.0
N1822 N 0.42299 0.0833 0.61714 0.0
N1823 N 0.39011 0.14629 0.57455 0.0
H1824 H 0.79982 0.29368 0.66939 0.0
H1825 H 0.98638 0.42584 0.65755 0.0
H1826 H 0.88663 0.33989 0.75885 0.0
H1827 H 0.90233 0.3772 0.5663 0.0
H1828 H 0.94841 0.39757 0.69469 0.0
H1829 H 0.8345 0.32797 0.63103 0.0
C1830 C 0.82594 0.31155 0.68099 0.0
C1831 C 0.84036 0.31428 0.71735 0.0
C1832 C 0.93817 0.39296 0.66656 0.0
C1833 C 0.88049 0.35271 0.67366 0.0
C1834 C 0.95994 0.40901 0.64528 0.0
C1835 C 0.94763 0.40365 0.6087 0.0
C1836 C 0.90369 0.37123 0.65133 0.0
C1837 C 0.91298 0.38183 0.59437 0.0
C1838 C 0.84585 0.33089 0.65907 0.0
C1839 C 0.87458 0.3372 0.73094 0.0
N1840 N 0.89221 0.36633 0.61573 0.0
N1841 N 0.89351 0.35542 0.70912 0.0
H1842 H 0.15404 0.71558 0.64938 0.0
H1843 H 0.12925 0.56362 0.54015 0.0
H1844 H 0.2397 0.7103 0.62033 0.0
H1845 H 0.04695 0.59744 0.52507 0.0
H1846 H 0.17104 0.62063 0.56318 0.0
H1847 H 0.11471 0.67825 0.59812 0.0
C1848 C 0.1647 0.70673 0.63218 0.0
C1849 C 0.2 0.71347 0.64084 0.0
C1850 C 0.14397 0.61601 0.5538 0.0
C1851 C 0.15528 0.67124 0.58202 0.0
C1852 C 0.12023 0.58352 0.54066 0.0
C1853 C 0.08494 0.57623 0.53087 0.0
C1854 C 0.13202 0.6408 0.55846 0.0
C1855 C 0.07417 0.60245 0.53235 0.0
C1856 C 0.14221 0.68559 0.6027 0.0
C1857 C 0.21241 0.70298 0.61642 0.0
N1858 N 0.0976 0.6335 0.5469 0.0
N1859 N 0.19005 0.68146 0.58867 0.0
loop_
_geom_bond_atom_site_label_1
_geom_bond_atom_site_label_2
_geom_bond_distance
_geom_bond_site_symmetry_2
_ccdc_geom_bond_type
Tb0 N31 2.660 . S
Tb0 N38 2.600 . S
Tb0 O44 2.546 . S
Tb0 O45 2.610 . S
Tb0 O47 2.320 . S
Tb0 O48 2.552 . S
Tb0 O49 2.413 . S
Tb0 O51 2.362 . S
Tb0 O52 2.421 . S
Tb0 C64 2.833 . S
C1 C4 1.432 . S
C1 C5 1.414 . S
C1 N8 1.359 . S
C2 C4 1.417 . S
C2 C6 1.432 . S
C2 C14 1.410 . S
C3 C5 1.444 . S
C3 C6 1.317 . S
C3 H26 0.929 . S
C4 C1 1.432 . S
C4 C2 1.417 . S
C4 N12 1.360 . S
C5 C1 1.414 . S
C5 C3 1.444 . S
C5 C10 1.385 . S
C6 C2 1.432 . S
C6 C3 1.317 . S
C6 H18 0.930 . S
C7 C9 1.392 . S
C7 C10 1.370 . S
C7 H19 0.931 . S
N8 C1 1.359 . S
N8 C9 1.327 . S
N8 Tb11 2.600 . S
C9 C7 1.392 . S
C9 N8 1.327 . S
C9 H16 0.930 . S
C10 C5 1.385 . S
C10 C7 1.370 . S
C10 H29 0.930 . S
Tb11 N8 2.600 . S
Tb11 N12 2.660 . S
Tb11 O45 2.362 . S
Tb11 O46 2.421 . S
Tb11 O50 2.546 . S
Tb11 O51 2.610 . S
Tb11 O53 2.320 . S
Tb11 O54 2.552 . S
Tb11 O55 2.413 . S
Tb11 C75 2.833 . S
N12 C4 1.360 . S
N12 Tb11 2.660 . S
N12 C13 1.305 . S
C13 N12 1.305 . S
C13 C15 1.407 . S
C13 H20 0.930 . S
C14 C2 1.410 . S
C14 C15 1.345 . S
C14 H22 0.930 . S
C15 C13 1.407 . S
C15 C14 1.345 . S
C15 H17 0.930 . S
H16 C9 0.930 . S
H17 C15 0.930 . S
H18 C6 0.930 . S
H19 C7 0.931 . S
H20 C13 0.930 . S
H21 C35 0.930 . S
H22 C14 0.930 . S
H23 C41 0.930 . S
H24 C32 0.930 . S
H25 C39 0.931 . S
H26 C3 0.929 . S
H27 C33 0.930 . S
H28 C66 0.930 . S
H29 C10 0.930 . S
H30 C65 0.929 . S
N31 Tb0 2.660 . S
N31 C32 1.305 . S
N31 C36 1.360 . S
C32 H24 0.930 . S
C32 N31 1.305 . S
C32 C35 1.407 . S
C33 H27 0.930 . S
C33 C34 1.410 . S
C33 C35 1.345 . S
C34 C33 1.410 . S
C34 C36 1.417 . S
C34 C66 1.432 . S
C35 H21 0.930 . S
C35 C32 1.407 . S
C35 C33 1.345 . S
C36 N31 1.360 . S
C36 C34 1.417 . S
C36 C40 1.432 . S
H37 C42 0.930 . S
N38 Tb0 2.600 . S
N38 C40 1.359 . S
N38 C41 1.327 . S
C39 H25 0.931 . S
C39 C41 1.392 . S
C39 C42 1.370 . S
C40 C36 1.432 . S
C40 N38 1.359 . S
C40 C43 1.414 . S
C41 H23 0.930 . S
C41 N38 1.327 . S
C41 C39 1.392 . S
C42 H37 0.930 . S
C42 C39 1.370 . S
C42 C43 1.385 . S
C43 C40 1.414 . S
C43 C42 1.385 . S
C43 C65 1.444 . S
O44 Tb0 2.546 . S
O44 C64 1.251 . S
O45 Tb0 2.610 . S
O45 Tb11 2.362 . S
O45 C56 1.283 . S
O46 Tb11 2.421 . S
O46 C63 1.262 . S
O47 Tb0 2.320 . S
O47 C63 1.260 . S
O48 Tb0 2.552 . S
O48 C56 1.243 . S
O49 Tb0 2.413 . S
O49 C64 1.256 . S
O50 Tb11 2.546 . S
O50 C75 1.251 . S
O51 Tb0 2.362 . S
O51 Tb11 2.610 . S
O51 C67 1.283 . S
O52 Tb0 2.421 . S
O52 C74 1.262 . S
O53 Tb11 2.320 . S
O53 C74 1.260 . S
O54 Tb11 2.552 . S
O54 C67 1.243 . S
O55 Tb11 2.413 . S
O55 C75 1.256 . S
C56 O45 1.283 . S
C56 O48 1.243 . S
C57 C59 1.382 . S
C57 C61 1.393 . S
C57 C64 1.500 . S
C58 C59 1.400 . S
C58 C60 1.384 . S
C59 C57 1.382 . S
C59 C58 1.400 . S
C59 H76 0.930 . S
C60 C58 1.384 . S
C60 C62 1.392 . S
C60 H77 0.931 . S
C61 C57 1.393 . S
C61 C62 1.401 . S
C61 H78 0.930 . S
C62 C60 1.392 . S
C62 C61 1.401 . S
C62 H79 0.930 . S
C63 O46 1.262 . S
C63 O47 1.260 . S
C64 Tb0 2.833 . S
C64 O44 1.251 . S
C64 O49 1.256 . S
C64 C57 1.500 . S
C65 H30 0.929 . S
C65 C43 1.444 . S
C65 C66 1.317 . S
C66 H28 0.930 . S
C66 C34 1.432 . S
C66 C65 1.317 . S
C67 O51 1.283 . S
C67 O54 1.243 . S
C68 C69 1.382 . S
C68 C72 1.393 . S
C68 C75 1.500 . S
C69 C68 1.382 . S
C69 C70 1.400 . S
C69 H80 0.930 . S
C70 C69 1.400 . S
C70 C71 1.384 . S
C71 C70 1.384 . S
C71 C73 1.392 . S
C71 H81 0.931 . S
C72 C68 1.393 . S
C72 C73 1.401 . S
C72 H82 0.930 . S
C73 C71 1.392 . S
C73 C72 1.401 . S
C73 H83 0.930 . S
C74 O52 1.262 . S
C74 O53 1.260 . S
C75 Tb11 2.833 . S
C75 O50 1.251 . S
C75 O55 1.256 . S
C75 C68 1.500 . S
H76 C59 0.930 . S
H77 C60 0.931 . S
H78 C61 0.930 . S
H79 C62 0.930 . S
H80 C69 0.930 . S
H81 C71 0.931 . S
H82 C72 0.930 . S
H83 C73 0.930 . S
Tb84 N115 2.660 . S
Tb84 N122 2.600 . S
Tb84 O128 2.546 . S
Tb84 O129 2.610 . S
Tb84 O131 2.320 . S
Tb84 O132 2.552 . S
Tb84 O133 2.413 . S
Tb84 O135 2.362 . S
Tb84 O136 2.421 . S
Tb84 C148 2.833 . S
C85 C88 1.432 . S
C85 C89 1.414 . S
C85 N92 1.359 . S
C86 C88 1.417 . S
C86 C90 1.432 . S
C86 C98 1.410 . S
C87 C89 1.444 . S
C87 C90 1.317 . S
C87 H110 0.929 . S
C88 C85 1.432 . S
C88 C86 1.417 . S
C88 N96 1.360 . S
C89 C85 1.414 . S
C89 C87 1.444 . S
C89 C94 1.385 . S
C90 C86 1.432 . S
C90 C87 1.317 . S
C90 H102 0.930 . S
C91 C93 1.392 . S
C91 C94 1.370 . S
C91 H103 0.931 . S
N92 C85 1.359 . S
N92 C93 1.327 . S
N92 Tb95 2.600 . S
C93 C91 1.392 . S
C93 N92 1.327 . S
C93 H100 0.930 . S
C94 C89 1.385 . S
C94 C91 1.370 . S
C94 H113 0.930 . S
Tb95 N92 2.600 . S
Tb95 N96 2.660 . S
Tb95 O129 2.362 . S
Tb95 O130 2.421 . S
Tb95 O134 2.546 . S
Tb95 O135 2.610 . S
Tb95 O137 2.320 . S
Tb95 O138 2.552 . S
Tb95 O139 2.413 . S
Tb95 C159 2.833 . S
N96 C88 1.360 . S
N96 Tb95 2.660 . S
N96 C97 1.305 . S
C97 N96 1.305 . S
C97 C99 1.407 . S
C97 H104 0.930 . S
C98 C86 1.410 . S
C98 C99 1.345 . S
C98 H106 0.930 . S
C99 C97 1.407 . S
C99 C98 1.345 . S
C99 H101 0.930 . S
H100 C93 0.930 . S
H101 C99 0.930 . S
H102 C90 0.930 . S
H103 C91 0.931 . S
H104 C97 0.930 . S
H105 C119 0.930 . S
H106 C98 0.930 . S
H107 C125 0.930 . S
H108 C116 0.930 . S
H109 C123 0.931 . S
H110 C87 0.929 . S
H111 C117 0.930 . S
H112 C150 0.930 . S
H113 C94 0.930 . S
H114 C149 0.929 . S
N115 Tb84 2.660 . S
N115 C116 1.305 . S
N115 C120 1.360 . S
C116 H108 0.930 . S
C116 N115 1.305 . S
C116 C119 1.407 . S
C117 H111 0.930 . S
C117 C118 1.410 . S
C117 C119 1.345 . S
C118 C117 1.410 . S
C118 C120 1.417 . S
C118 C150 1.432 . S
C119 H105 0.930 . S
C119 C116 1.407 . S
C119 C117 1.345 . S
C120 N115 1.360 . S
C120 C118 1.417 . S
C120 C124 1.432 . S
H121 C126 0.930 . S
N122 Tb84 2.600 . S
N122 C124 1.359 . S
N122 C125 1.327 . S
C123 H109 0.931 . S
C123 C125 1.392 . S
C123 C126 1.370 . S
C124 C120 1.432 . S
C124 N122 1.359 . S
C124 C127 1.414 . S
C125 H107 0.930 . S
C125 N122 1.327 . S
C125 C123 1.392 . S
C126 H121 0.930 . S
C126 C123 1.370 . S
C126 C127 1.385 . S
C127 C124 1.414 . S
C127 C126 1.385 . S
C127 C149 1.444 . S
O128 Tb84 2.546 . S
O128 C148 1.251 . S
O129 Tb84 2.610 . S
O129 Tb95 2.362 . S
O129 C140 1.283 . S
O130 Tb95 2.421 . S
O130 C147 1.262 . S
O131 Tb84 2.320 . S
O131 C147 1.260 . S
O132 Tb84 2.552 . S
O132 C140 1.243 . S
O133 Tb84 2.413 . S
O133 C148 1.256 . S
O134 Tb95 2.546 . S
O134 C159 1.251 . S
O135 Tb84 2.362 . S
O135 Tb95 2.610 . S
O135 C151 1.283 . S
O136 Tb84 2.421 . S
O136 C158 1.262 . S
O137 Tb95 2.320 . S
O137 C158 1.260 . S
O138 Tb95 2.552 . S
O138 C151 1.243 . S
O139 Tb95 2.413 . S
O139 C159 1.256 . S
C140 O129 1.283 . S
C140 O132 1.243 . S
C141 C143 1.382 . S
C141 C145 1.393 . S
C141 C148 1.500 . S
C142 C143 1.400 . S
C142 C144 1.384 . S
C143 C141 1.382 . S
C143 C142 1.400 . S
C143 H160 0.930 . S
C144 C142 1.384 . S
C144 C146 1.392 . S
C144 H161 0.931 . S
C145 C141 1.393 . S
C145 C146 1.401 . S
C145 H162 0.930 . S
C146 C144 1.392 . S
C146 C145 1.401 . S
C146 H163 0.930 . S
C147 O130 1.262 . S
C147 O131 1.260 . S
C148 Tb84 2.833 . S
C148 O128 1.251 . S
C148 O133 1.256 . S
C148 C141 1.500 . S
C149 H114 0.929 . S
C149 C127 1.444 . S
C149 C150 1.317 . S
C150 H112 0.930 . S
C150 C118 1.432 . S
C150 C149 1.317 . S
C151 O135 1.283 . S
C151 O138 1.243 . S
C152 C153 1.382 . S
C152 C156 1.393 . S
C152 C159 1.500 . S
C153 C152 1.382 . S
C153 C154 1.400 . S
C153 H164 0.930 . S
C154 C153 1.400 . S
C154 C155 1.384 . S
C155 C154 1.384 . S
C155 C157 1.392 . S
C155 H165 0.931 . S
C156 C152 1.393 . S
C156 C157 1.401 . S
C156 H166 0.930 . S
C157 C155 1.392 . S
C157 C156 1.401 . S
C157 H167 0.930 . S
C158 O136 1.262 . S
C158 O137 1.260 . S
C159 Tb95 2.833 . S
C159 O134 1.251 . S
C159 O139 1.256 . S
C159 C152 1.500 . S
H160 C143 0.930 . S
H161 C144 0.931 . S
H162 C145 0.930 . S
H163 C146 0.930 . S
H164 C153 0.930 . S
H165 C155 0.931 . S
H166 C156 0.930 . S
H167 C157 0.930 . S
Tb168 N199 2.660 . S
Tb168 N206 2.600 . S
Tb168 O212 2.546 . S
Tb168 O213 2.610 . S
Tb168 O215 2.320 . S
Tb168 O216 2.552 . S
Tb168 O217 2.413 . S
Tb168 O219 2.362 . S
Tb168 O220 2.421 . S
Tb168 C232 2.833 . S
C169 C172 1.432 . S
C169 C173 1.414 . S
C169 N176 1.359 . S
C170 C172 1.417 . S
C170 C174 1.432 . S
C170 C182 1.410 . S
C171 C173 1.444 . S
C171 C174 1.317 . S
C171 H194 0.929 . S
C172 C169 1.432 . S
C172 C170 1.417 . S
C172 N180 1.360 . S
C173 C169 1.414 . S
C173 C171 1.444 . S
C173 C178 1.385 . S
C174 C170 1.432 . S
C174 C171 1.317 . S
C174 H186 0.930 . S
C175 C177 1.392 . S
C175 C178 1.370 . S
C175 H187 0.931 . S
N176 C169 1.359 . S
N176 C177 1.327 . S
N176 Tb179 2.600 . S
C177 C175 1.392 . S
C177 N176 1.327 . S
C177 H184 0.930 . S
C178 C173 1.385 . S
C178 C175 1.370 . S
C178 H197 0.930 . S
Tb179 N176 2.600 . S
Tb179 N180 2.660 . S
Tb179 O213 2.362 . S
Tb179 O214 2.421 . S
Tb179 O218 2.546 . S
Tb179 O219 2.610 . S
Tb179 O221 2.320 . S
Tb179 O222 2.552 . S
Tb179 O223 2.413 . S
Tb179 C243 2.833 . S
N180 C172 1.360 . S
N180 Tb179 2.660 . S
N180 C181 1.305 . S
C181 N180 1.305 . S
C181 C183 1.407 . S
C181 H188 0.930 . S
C182 C170 1.410 . S
C182 C183 1.345 . S
C182 H190 0.930 . S
C183 C181 1.407 . S
C183 C182 1.345 . S
C183 H185 0.930 . S
H184 C177 0.930 . S
H185 C183 0.930 . S
H186 C174 0.930 . S
H187 C175 0.931 . S
H188 C181 0.930 . S
H189 C203 0.930 . S
H190 C182 0.930 . S
H191 C209 0.930 . S
H192 C200 0.930 . S
H193 C207 0.931 . S
H194 C171 0.929 . S
H195 C201 0.930 . S
H196 C234 0.930 . S
H197 C178 0.930 . S
H198 C233 0.929 . S
N199 Tb168 2.660 . S
N199 C200 1.305 . S
N199 C204 1.360 . S
C200 H192 0.930 . S
C200 N199 1.305 . S
C200 C203 1.407 . S
C201 H195 0.930 . S
C201 C202 1.410 . S
C201 C203 1.345 . S
C202 C201 1.410 . S
C202 C204 1.417 . S
C202 C234 1.432 . S
C203 H189 0.930 . S
C203 C200 1.407 . S
C203 C201 1.345 . S
C204 N199 1.360 . S
C204 C202 1.417 . S
C204 C208 1.432 . S
H205 C210 0.930 . S
N206 Tb168 2.600 . S
N206 C208 1.359 . S
N206 C209 1.327 . S
C207 H193 0.931 . S
C207 C209 1.392 . S
C207 C210 1.370 . S
C208 C204 1.432 . S
C208 N206 1.359 . S
C208 C211 1.414 . S
C209 H191 0.930 . S
C209 N206 1.327 . S
C209 C207 1.392 . S
C210 H205 0.930 . S
C210 C207 1.370 . S
C210 C211 1.385 . S
C211 C208 1.414 . S
C211 C210 1.385 . S
C211 C233 1.444 . S
O212 Tb168 2.546 . S
O212 C232 1.251 . S
O213 Tb168 2.610 . S
O213 Tb179 2.362 . S
O213 C224 1.283 . S
O214 Tb179 2.421 . S
O214 C231 1.262 . S
O215 Tb168 2.320 . S
O215 C231 1.260 . S
O216 Tb168 2.552 . S
O216 C224 1.243 . S
O217 Tb168 2.413 . S
O217 C232 1.256 . S
O218 Tb179 2.546 . S
O218 C243 1.251 . S
O219 Tb168 2.362 . S
O219 Tb179 2.610 . S
O219 C235 1.283 . S
O220 Tb168 2.421 . S
O220 C242 1.262 . S
O221 Tb179 2.320 . S
O221 C242 1.260 . S
O222 Tb179 2.552 . S
O222 C235 1.243 . S
O223 Tb179 2.413 . S
O223 C243 1.256 . S
C224 O213 1.283 . S
C224 O216 1.243 . S
C225 C227 1.382 . S
C225 C229 1.393 . S
C225 C232 1.500 . S
C226 C227 1.400 . S
C226 C228 1.384 . S
C227 C225 1.382 . S
C227 C226 1.400 . S
C227 H244 0.930 . S
C228 C226 1.384 . S
C228 C230 1.392 . S
C228 H245 0.931 . S
C229 C225 1.393 . S
C229 C230 1.401 . S
C229 H246 0.930 . S
C230 C228 1.392 . S
C230 C229 1.401 . S
C230 H247 0.930 . S
C231 O214 1.262 . S
C231 O215 1.260 . S
C232 Tb168 2.833 . S
C232 O212 1.251 . S
C232 O217 1.256 . S
C232 C225 1.500 . S
C233 H198 0.929 . S
C233 C211 1.444 . S
C233 C234 1.317 . S
C234 H196 0.930 . S
C234 C202 1.432 . S
C234 C233 1.317 . S
C235 O219 1.283 . S
C235 O222 1.243 . S
C236 C237 1.382 . S
C236 C240 1.393 . S
C236 C243 1.500 . S
C237 C236 1.382 . S
C237 C238 1.400 . S
C237 H248 0.930 . S
C238 C237 1.400 . S
C238 C239 1.384 . S
C239 C238 1.384 . S
C239 C241 1.392 . S
C239 H249 0.931 . S
C240 C236 1.393 . S
C240 C241 1.401 . S
C240 H250 0.930 . S
C241 C239 1.392 . S
C241 C240 1.401 . S
C241 H251 0.930 . S
C242 O220 1.262 . S
C242 O221 1.260 . S
C243 Tb179 2.833 . S
C243 O218 1.251 . S
C243 O223 1.256 . S
C243 C236 1.500 . S
H244 C227 0.930 . S
H245 C228 0.931 . S
H246 C229 0.930 . S
H247 C230 0.930 . S
H248 C237 0.930 . S
H249 C239 0.931 . S
H250 C240 0.930 . S
H251 C241 0.930 . S
Tb252 N283 2.660 . S
Tb252 N290 2.600 . S
Tb252 O296 2.546 . S
Tb252 O297 2.610 . S
Tb252 O299 2.320 . S
Tb252 O300 2.552 . S
Tb252 O301 2.413 . S
Tb252 O303 2.362 . S
Tb252 O304 2.421 . S
Tb252 C316 2.833 . S
C253 C256 1.432 . S
C253 C257 1.414 . S
C253 N260 1.359 . S
C254 C256 1.417 . S
C254 C258 1.432 . S
C254 C266 1.410 . S
C255 C257 1.444 . S
C255 C258 1.317 . S
C255 H278 0.929 . S
C256 C253 1.432 . S
C256 C254 1.417 . S
C256 N264 1.360 . S
C257 C253 1.414 . S
C257 C255 1.444 . S
C257 C262 1.385 . S
C258 C254 1.432 . S
C258 C255 1.317 . S
C258 H270 0.930 . S
C259 C261 1.392 . S
C259 C262 1.370 . S
C259 H271 0.931 . S
N260 C253 1.359 . S
N260 C261 1.327 . S
N260 Tb263 2.600 . S
C261 C259 1.392 . S
C261 N260 1.327 . S
C261 H268 0.930 . S
C262 C257 1.385 . S
C262 C259 1.370 . S
C262 H281 0.930 . S
Tb263 N260 2.600 . S
Tb263 N264 2.660 . S
Tb263 O297 2.362 . S
Tb263 O298 2.421 . S
Tb263 O302 2.546 . S
Tb263 O303 2.610 . S
Tb263 O305 2.320 . S
Tb263 O306 2.552 . S
Tb263 O307 2.413 . S
Tb263 C327 2.833 . S
N264 C256 1.360 . S
N264 Tb263 2.660 . S
N264 C265 1.305 . S
C265 N264 1.305 . S
C265 C267 1.407 . S
C265 H272 0.930 . S
C266 C254 1.410 . S
C266 C267 1.345 . S
C266 H274 0.930 . S
C267 C265 1.407 . S
C267 C266 1.345 . S
C267 H269 0.930 . S
H268 C261 0.930 . S
H269 C267 0.930 . S
H270 C258 0.930 . S
H271 C259 0.931 . S
H272 C265 0.930 . S
H273 C287 0.930 . S
H274 C266 0.930 . S
H275 C293 0.930 . S
H276 C284 0.930 . S
H277 C291 0.931 . S
H278 C255 0.929 . S
H279 C285 0.930 . S
H280 C318 0.930 . S
H281 C262 0.930 . S
H282 C317 0.929 . S
N283 Tb252 2.660 . S
N283 C284 1.305 . S
N283 C288 1.360 . S
C284 H276 0.930 . S
C284 N283 1.305 . S
C284 C287 1.407 . S
C285 H279 0.930 . S
C285 C286 1.410 . S
C285 C287 1.345 . S
C286 C285 1.410 . S
C286 C288 1.417 . S
C286 C318 1.432 . S
C287 H273 0.930 . S
C287 C284 1.407 . S
C287 C285 1.345 . S
C288 N283 1.360 . S
C288 C286 1.417 . S
C288 C292 1.432 . S
H289 C294 0.930 . S
N290 Tb252 2.600 . S
N290 C292 1.359 . S
N290 C293 1.327 . S
C291 H277 0.931 . S
C291 C293 1.392 . S
C291 C294 1.370 . S
C292 C288 1.432 . S
C292 N290 1.359 . S
C292 C295 1.414 . S
C293 H275 0.930 . S
C293 N290 1.327 . S
C293 C291 1.392 . S
C294 H289 0.930 . S
C294 C291 1.370 . S
C294 C295 1.385 . S
C295 C292 1.414 . S
C295 C294 1.385 . S
C295 C317 1.444 . S
O296 Tb252 2.546 . S
O296 C316 1.251 . S
O297 Tb252 2.610 . S
O297 Tb263 2.362 . S
O297 C308 1.283 . S
O298 Tb263 2.421 . S
O298 C315 1.262 . S
O299 Tb252 2.320 . S
O299 C315 1.260 . S
O300 Tb252 2.552 . S
O300 C308 1.243 . S
O301 Tb252 2.413 . S
O301 C316 1.256 . S
O302 Tb263 2.546 . S
O302 C327 1.251 . S
O303 Tb252 2.362 . S
O303 Tb263 2.610 . S
O303 C319 1.283 . S
O304 Tb252 2.421 . S
O304 C326 1.262 . S
O305 Tb263 2.320 . S
O305 C326 1.260 . S
O306 Tb263 2.552 . S
O306 C319 1.243 . S
O307 Tb263 2.413 . S
O307 C327 1.256 . S
C308 O297 1.283 . S
C308 O300 1.243 . S
C309 C311 1.382 . S
C309 C313 1.393 . S
C309 C316 1.500 . S
C310 C311 1.400 . S
C310 C312 1.384 . S
C311 C309 1.382 . S
C311 C310 1.400 . S
C311 H328 0.930 . S
C312 C310 1.384 . S
C312 C314 1.392 . S
C312 H329 0.931 . S
C313 C309 1.393 . S
C313 C314 1.401 . S
C313 H330 0.930 . S
C314 C312 1.392 . S
C314 C313 1.401 . S
C314 H331 0.930 . S
C315 O298 1.262 . S
C315 O299 1.260 . S
C316 Tb252 2.833 . S
C316 O296 1.251 . S
C316 O301 1.256 . S
C316 C309 1.500 . S
C317 H282 0.929 . S
C317 C295 1.444 . S
C317 C318 1.317 . S
C318 H280 0.930 . S
C318 C286 1.432 . S
C318 C317 1.317 . S
C319 O303 1.283 . S
C319 O306 1.243 . S
C320 C321 1.382 . S
C320 C324 1.393 . S
C320 C327 1.500 . S
C321 C320 1.382 . S
C321 C322 1.400 . S
C321 H332 0.930 . S
C322 C321 1.400 . S
C322 C323 1.384 . S
C323 C322 1.384 . S
C323 C325 1.392 . S
C323 H333 0.931 . S
C324 C320 1.393 . S
C324 C325 1.401 . S
C324 H334 0.930 . S
C325 C323 1.392 . S
C325 C324 1.401 . S
C325 H335 0.930 . S
C326 O304 1.262 . S
C326 O305 1.260 . S
C327 Tb263 2.833 . S
C327 O302 1.251 . S
C327 O307 1.256 . S
C327 C320 1.500 . S
H328 C311 0.930 . S
H329 C312 0.931 . S
H330 C313 0.930 . S
H331 C314 0.930 . S
H332 C321 0.930 . S
H333 C323 0.931 . S
H334 C324 0.930 . S
H335 C325 0.930 . S
Tb336 N367 2.660 . S
Tb336 N374 2.600 . S
Tb336 O380 2.546 . S
Tb336 O381 2.610 . S
Tb336 O383 2.320 . S
Tb336 O384 2.552 . S
Tb336 O385 2.413 . S
Tb336 O387 2.362 . S
Tb336 O388 2.421 . S
Tb336 C400 2.833 . S
C337 C340 1.432 . S
C337 C341 1.414 . S
C337 N344 1.359 . S
C338 C340 1.417 . S
C338 C342 1.432 . S
C338 C350 1.410 . S
C339 C341 1.444 . S
C339 C342 1.317 . S
C339 H362 0.929 . S
C340 C337 1.432 . S
C340 C338 1.417 . S
C340 N348 1.360 . S
C341 C337 1.414 . S
C341 C339 1.444 . S
C341 C346 1.385 . S
C342 C338 1.432 . S
C342 C339 1.317 . S
C342 H354 0.930 . S
C343 C345 1.392 . S
C343 C346 1.370 . S
C343 H355 0.931 . S
N344 C337 1.359 . S
N344 C345 1.327 . S
N344 Tb347 2.600 . S
C345 C343 1.392 . S
C345 N344 1.327 . S
C345 H352 0.930 . S
C346 C341 1.385 . S
C346 C343 1.370 . S
C346 H365 0.930 . S
Tb347 N344 2.600 . S
Tb347 N348 2.660 . S
Tb347 O381 2.362 . S
Tb347 O382 2.421 . S
Tb347 O386 2.546 . S
Tb347 O387 2.610 . S
Tb347 O389 2.320 . S
Tb347 O390 2.552 . S
Tb347 O391 2.413 . S
Tb347 C411 2.833 . S
N348 C340 1.360 . S
N348 Tb347 2.660 . S
N348 C349 1.305 . S
C349 N348 1.305 . S
C349 C351 1.407 . S
C349 H356 0.930 . S
C350 C338 1.410 . S
C350 C351 1.345 . S
C350 H358 0.930 . S
C351 C349 1.407 . S
C351 C350 1.345 . S
C351 H353 0.930 . S
H352 C345 0.930 . S
H353 C351 0.930 . S
H354 C342 0.930 . S
H355 C343 0.931 . S
H356 C349 0.930 . S
H357 C371 0.930 . S
H358 C350 0.930 . S
H359 C377 0.930 . S
H360 C368 0.930 . S
H361 C375 0.931 . S
H362 C339 0.929 . S
H363 C369 0.930 . S
H364 C402 0.930 . S
H365 C346 0.930 . S
H366 C401 0.929 . S
N367 Tb336 2.660 . S
N367 C368 1.305 . S
N367 C372 1.360 . S
C368 H360 0.930 . S
C368 N367 1.305 . S
C368 C371 1.407 . S
C369 H363 0.930 . S
C369 C370 1.410 . S
C369 C371 1.345 . S
C370 C369 1.410 . S
C370 C372 1.417 . S
C370 C402 1.432 . S
C371 H357 0.930 . S
C371 C368 1.407 . S
C371 C369 1.345 . S
C372 N367 1.360 . S
C372 C370 1.417 . S
C372 C376 1.432 . S
H373 C378 0.930 . S
N374 Tb336 2.600 . S
N374 C376 1.359 . S
N374 C377 1.327 . S
C375 H361 0.931 . S
C375 C377 1.392 . S
C375 C378 1.370 . S
C376 C372 1.432 . S
C376 N374 1.359 . S
C376 C379 1.414 . S
C377 H359 0.930 . S
C377 N374 1.327 . S
C377 C375 1.392 . S
C378 H373 0.930 . S
C378 C375 1.370 . S
C378 C379 1.385 . S
C379 C376 1.414 . S
C379 C378 1.385 . S
C379 C401 1.444 . S
O380 Tb336 2.546 . S
O380 C400 1.251 . S
O381 Tb336 2.610 . S
O381 Tb347 2.362 . S
O381 C392 1.283 . S
O382 Tb347 2.421 . S
O382 C399 1.262 . S
O383 Tb336 2.320 . S
O383 C399 1.260 . S
O384 Tb336 2.552 . S
O384 C392 1.243 . S
O385 Tb336 2.413 . S
O385 C400 1.256 . S
O386 Tb347 2.546 . S
O386 C411 1.251 . S
O387 Tb336 2.362 . S
O387 Tb347 2.610 . S
O387 C403 1.283 . S
O388 Tb336 2.421 . S
O388 C410 1.262 . S
O389 Tb347 2.320 . S
O389 C410 1.260 . S
O390 Tb347 2.552 . S
O390 C403 1.243 . S
O391 Tb347 2.413 . S
O391 C411 1.256 . S
C392 O381 1.283 . S
C392 O384 1.243 . S
C393 C395 1.382 . S
C393 C397 1.393 . S
C393 C400 1.500 . S
C394 C395 1.400 . S
C394 C396 1.384 . S
C395 C393 1.382 . S
C395 C394 1.400 . S
C395 H412 0.930 . S
C396 C394 1.384 . S
C396 C398 1.392 . S
C396 H413 0.931 . S
C397 C393 1.393 . S
C397 C398 1.401 . S
C397 H414 0.930 . S
C398 C396 1.392 . S
C398 C397 1.401 . S
C398 H415 0.930 . S
C399 O382 1.262 . S
C399 O383 1.260 . S
C400 Tb336 2.833 . S
C400 O380 1.251 . S
C400 O385 1.256 . S
C400 C393 1.500 . S
C401 H366 0.929 . S
C401 C379 1.444 . S
C401 C402 1.317 . S
C402 H364 0.930 . S
C402 C370 1.432 . S
C402 C401 1.317 . S
C403 O387 1.283 . S
C403 O390 1.243 . S
C404 C405 1.382 . S
C404 C408 1.393 . S
C404 C411 1.500 . S
C405 C404 1.382 . S
C405 C406 1.400 . S
C405 H416 0.930 . S
C406 C405 1.400 . S
C406 C407 1.384 . S
C407 C406 1.384 . S
C407 C409 1.392 . S
C407 H417 0.931 . S
C408 C404 1.393 . S
C408 C409 1.401 . S
C408 H418 0.930 . S
C409 C407 1.392 . S
C409 C408 1.401 . S
C409 H419 0.930 . S
C410 O388 1.262 . S
C410 O389 1.260 . S
C411 Tb347 2.833 . S
C411 O386 1.251 . S
C411 O391 1.256 . S
C411 C404 1.500 . S
H412 C395 0.930 . S
H413 C396 0.931 . S
H414 C397 0.930 . S
H415 C398 0.930 . S
H416 C405 0.930 . S
H417 C407 0.931 . S
H418 C408 0.930 . S
H419 C409 0.930 . S
Tb420 N451 2.660 . S
Tb420 N458 2.600 . S
Tb420 O464 2.546 . S
Tb420 O465 2.610 . S
Tb420 O467 2.320 . S
Tb420 O468 2.552 . S
Tb420 O469 2.413 . S
Tb420 O471 2.362 . S
Tb420 O472 2.421 . S
Tb420 C484 2.833 . S
C421 C424 1.432 . S
C421 C425 1.414 . S
C421 N428 1.359 . S
C422 C424 1.417 . S
C422 C426 1.432 . S
C422 C434 1.410 . S
C423 C425 1.444 . S
C423 C426 1.317 . S
C423 H446 0.929 . S
C424 C421 1.432 . S
C424 C422 1.417 . S
C424 N432 1.360 . S
C425 C421 1.414 . S
C425 C423 1.444 . S
C425 C430 1.385 . S
C426 C422 1.432 . S
C426 C423 1.317 . S
C426 H438 0.930 . S
C427 C429 1.392 . S
C427 C430 1.370 . S
C427 H439 0.931 . S
N428 C421 1.359 . S
N428 C429 1.327 . S
N428 Tb431 2.600 . S
C429 C427 1.392 . S
C429 N428 1.327 . S
C429 H436 0.930 . S
C430 C425 1.385 . S
C430 C427 1.370 . S
C430 H449 0.930 . S
Tb431 N428 2.600 . S
Tb431 N432 2.660 . S
Tb431 O465 2.362 . S
Tb431 O466 2.421 . S
Tb431 O470 2.546 . S
Tb431 O471 2.610 . S
Tb431 O473 2.320 . S
Tb431 O474 2.552 . S
Tb431 O475 2.413 . S
Tb431 C495 2.833 . S
N432 C424 1.360 . S
N432 Tb431 2.660 . S
N432 C433 1.305 . S
C433 N432 1.305 . S
C433 C435 1.407 . S
C433 H440 0.930 . S
C434 C422 1.410 . S
C434 C435 1.345 . S
C434 H442 0.930 . S
C435 C433 1.407 . S
C435 C434 1.345 . S
C435 H437 0.930 . S
H436 C429 0.930 . S
H437 C435 0.930 . S
H438 C426 0.930 . S
H439 C427 0.931 . S
H440 C433 0.930 . S
H441 C455 0.930 . S
H442 C434 0.930 . S
H443 C461 0.930 . S
H444 C452 0.930 . S
H445 C459 0.931 . S
H446 C423 0.929 . S
H447 C453 0.930 . S
H448 C486 0.930 . S
H449 C430 0.930 . S
H450 C485 0.929 . S
N451 Tb420 2.660 . S
N451 C452 1.305 . S
N451 C456 1.360 . S
C452 H444 0.930 . S
C452 N451 1.305 . S
C452 C455 1.407 . S
C453 H447 0.930 . S
C453 C454 1.410 . S
C453 C455 1.345 . S
C454 C453 1.410 . S
C454 C456 1.417 . S
C454 C486 1.432 . S
C455 H441 0.930 . S
C455 C452 1.407 . S
C455 C453 1.345 . S
C456 N451 1.360 . S
C456 C454 1.417 . S
C456 C460 1.432 . S
H457 C462 0.930 . S
N458 Tb420 2.600 . S
N458 C460 1.359 . S
N458 C461 1.327 . S
C459 H445 0.931 . S
C459 C461 1.392 . S
C459 C462 1.370 . S
C460 C456 1.432 . S
C460 N458 1.359 . S
C460 C463 1.414 . S
C461 H443 0.930 . S
C461 N458 1.327 . S
C461 C459 1.392 . S
C462 H457 0.930 . S
C462 C459 1.370 . S
C462 C463 1.385 . S
C463 C460 1.414 . S
C463 C462 1.385 . S
C463 C485 1.444 . S
O464 Tb420 2.546 . S
O464 C484 1.251 . S
O465 Tb420 2.610 . S
O465 Tb431 2.362 . S
O465 C476 1.283 . S
O466 Tb431 2.421 . S
O466 C483 1.262 . S
O467 Tb420 2.320 . S
O467 C483 1.260 . S
O468 Tb420 2.552 . S
O468 C476 1.243 . S
O469 Tb420 2.413 . S
O469 C484 1.256 . S
O470 Tb431 2.546 . S
O470 C495 1.251 . S
O471 Tb420 2.362 . S
O471 Tb431 2.610 . S
O471 C487 1.283 . S
O472 Tb420 2.421 . S
O472 C494 1.262 . S
O473 Tb431 2.320 . S
O473 C494 1.260 . S
O474 Tb431 2.552 . S
O474 C487 1.243 . S
O475 Tb431 2.413 . S
O475 C495 1.256 . S
C476 O465 1.283 . S
C476 O468 1.243 . S
C477 C479 1.382 . S
C477 C481 1.393 . S
C477 C484 1.500 . S
C478 C479 1.400 . S
C478 C480 1.384 . S
C479 C477 1.382 . S
C479 C478 1.400 . S
C479 H496 0.930 . S
C480 C478 1.384 . S
C480 C482 1.392 . S
C480 H497 0.931 . S
C481 C477 1.393 . S
C481 C482 1.401 . S
C481 H498 0.930 . S
C482 C480 1.392 . S
C482 C481 1.401 . S
C482 H499 0.930 . S
C483 O466 1.262 . S
C483 O467 1.260 . S
C484 Tb420 2.833 . S
C484 O464 1.251 . S
C484 O469 1.256 . S
C484 C477 1.500 . S
C485 H450 0.929 . S
C485 C463 1.444 . S
C485 C486 1.317 . S
C486 H448 0.930 . S
C486 C454 1.432 . S
C486 C485 1.317 . S
C487 O471 1.283 . S
C487 O474 1.243 . S
C488 C489 1.382 . S
C488 C492 1.393 . S
C488 C495 1.500 . S
C489 C488 1.382 . S
C489 C490 1.400 . S
C489 H500 0.930 . S
C490 C489 1.400 . S
C490 C491 1.384 . S
C491 C490 1.384 . S
C491 C493 1.392 . S
C491 H501 0.931 . S
C492 C488 1.393 . S
C492 C493 1.401 . S
C492 H502 0.930 . S
C493 C491 1.392 . S
C493 C492 1.401 . S
C493 H503 0.930 . S
C494 O472 1.262 . S
C494 O473 1.260 . S
C495 Tb431 2.833 . S
C495 O470 1.251 . S
C495 O475 1.256 . S
C495 C488 1.500 . S
H496 C479 0.930 . S
H497 C480 0.931 . S
H498 C481 0.930 . S
H499 C482 0.930 . S
H500 C489 0.930 . S
H501 C491 0.931 . S
H502 C492 0.930 . S
H503 C493 0.930 . S
Tb504 N535 2.660 . S
Tb504 N542 2.600 . S
Tb504 O548 2.546 . S
Tb504 O549 2.610 . S
Tb504 O551 2.320 . S
Tb504 O552 2.552 . S
Tb504 O553 2.413 . S
Tb504 O555 2.362 . S
Tb504 O556 2.421 . S
Tb504 C568 2.833 . S
C505 C508 1.432 . S
C505 C509 1.414 . S
C505 N512 1.359 . S
C506 C508 1.417 . S
C506 C510 1.432 . S
C506 C518 1.410 . S
C507 C509 1.444 . S
C507 C510 1.317 . S
C507 H530 0.929 . S
C508 C505 1.432 . S
C508 C506 1.417 . S
C508 N516 1.360 . S
C509 C505 1.414 . S
C509 C507 1.444 . S
C509 C514 1.385 . S
C510 C506 1.432 . S
C510 C507 1.317 . S
C510 H522 0.930 . S
C511 C513 1.392 . S
C511 C514 1.370 . S
C511 H523 0.931 . S
N512 C505 1.359 . S
N512 C513 1.327 . S
N512 Tb515 2.600 . S
C513 C511 1.392 . S
C513 N512 1.327 . S
C513 H520 0.930 . S
C514 C509 1.385 . S
C514 C511 1.370 . S
C514 H533 0.930 . S
Tb515 N512 2.600 . S
Tb515 N516 2.660 . S
Tb515 O549 2.362 . S
Tb515 O550 2.421 . S
Tb515 O554 2.546 . S
Tb515 O555 2.610 . S
Tb515 O557 2.320 . S
Tb515 O558 2.552 . S
Tb515 O559 2.413 . S
Tb515 C579 2.833 . S
N516 C508 1.360 . S
N516 Tb515 2.660 . S
N516 C517 1.305 . S
C517 N516 1.305 . S
C517 C519 1.407 . S
C517 H524 0.930 . S
C518 C506 1.410 . S
C518 C519 1.345 . S
C518 H526 0.930 . S
C519 C517 1.407 . S
C519 C518 1.345 . S
C519 H521 0.930 . S
H520 C513 0.930 . S
H521 C519 0.930 . S
H522 C510 0.930 . S
H523 C511 0.931 . S
H524 C517 0.930 . S
H525 C539 0.930 . S
H526 C518 0.930 . S
H527 C545 0.930 . S
H528 C536 0.930 . S
H529 C543 0.931 . S
H530 C507 0.929 . S
H531 C537 0.930 . S
H532 C570 0.930 . S
H533 C514 0.930 . S
H534 C569 0.929 . S
N535 Tb504 2.660 . S
N535 C536 1.305 . S
N535 C540 1.360 . S
C536 H528 0.930 . S
C536 N535 1.305 . S
C536 C539 1.407 . S
C537 H531 0.930 . S
C537 C538 1.410 . S
C537 C539 1.345 . S
C538 C537 1.410 . S
C538 C540 1.417 . S
C538 C570 1.432 . S
C539 H525 0.930 . S
C539 C536 1.407 . S
C539 C537 1.345 . S
C540 N535 1.360 . S
C540 C538 1.417 . S
C540 C544 1.432 . S
H541 C546 0.930 . S
N542 Tb504 2.600 . S
N542 C544 1.359 . S
N542 C545 1.327 . S
C543 H529 0.931 . S
C543 C545 1.392 . S
C543 C546 1.370 . S
C544 C540 1.432 . S
C544 N542 1.359 . S
C544 C547 1.414 . S
C545 H527 0.930 . S
C545 N542 1.327 . S
C545 C543 1.392 . S
C546 H541 0.930 . S
C546 C543 1.370 . S
C546 C547 1.385 . S
C547 C544 1.414 . S
C547 C546 1.385 . S
C547 C569 1.444 . S
O548 Tb504 2.546 . S
O548 C568 1.251 . S
O549 Tb504 2.610 . S
O549 Tb515 2.362 . S
O549 C560 1.283 . S
O550 Tb515 2.421 . S
O550 C567 1.262 . S
O551 Tb504 2.320 . S
O551 C567 1.260 . S
O552 Tb504 2.552 . S
O552 C560 1.243 . S
O553 Tb504 2.413 . S
O553 C568 1.256 . S
O554 Tb515 2.546 . S
O554 C579 1.251 . S
O555 Tb504 2.362 . S
O555 Tb515 2.610 . S
O555 C571 1.283 . S
O556 Tb504 2.421 . S
O556 C578 1.262 . S
O557 Tb515 2.320 . S
O557 C578 1.260 . S
O558 Tb515 2.552 . S
O558 C571 1.243 . S
O559 Tb515 2.413 . S
O559 C579 1.256 . S
C560 O549 1.283 . S
C560 O552 1.243 . S
C561 C563 1.382 . S
C561 C565 1.393 . S
C561 C568 1.500 . S
C562 C563 1.400 . S
C562 C564 1.384 . S
C563 C561 1.382 . S
C563 C562 1.400 . S
C563 H580 0.930 . S
C564 C562 1.384 . S
C564 C566 1.392 . S
C564 H581 0.931 . S
C565 C561 1.393 . S
C565 C566 1.401 . S
C565 H582 0.930 . S
C566 C564 1.392 . S
C566 C565 1.401 . S
C566 H583 0.930 . S
C567 O550 1.262 . S
C567 O551 1.260 . S
C568 Tb504 2.833 . S
C568 O548 1.251 . S
C568 O553 1.256 . S
C568 C561 1.500 . S
C569 H534 0.929 . S
C569 C547 1.444 . S
C569 C570 1.317 . S
C570 H532 0.930 . S
C570 C538 1.432 . S
C570 C569 1.317 . S
C571 O555 1.283 . S
C571 O558 1.243 . S
C572 C573 1.382 . S
C572 C576 1.393 . S
C572 C579 1.500 . S
C573 C572 1.382 . S
C573 C574 1.400 . S
C573 H584 0.930 . S
C574 C573 1.400 . S
C574 C575 1.384 . S
C575 C574 1.384 . S
C575 C577 1.392 . S
C575 H585 0.931 . S
C576 C572 1.393 . S
C576 C577 1.401 . S
C576 H586 0.930 . S
C577 C575 1.392 . S
C577 C576 1.401 . S
C577 H587 0.930 . S
C578 O556 1.262 . S
C578 O557 1.260 . S
C579 Tb515 2.833 . S
C579 O554 1.251 . S
C579 O559 1.256 . S
C579 C572 1.500 . S
H580 C563 0.930 . S
H581 C564 0.931 . S
H582 C565 0.930 . S
H583 C566 0.930 . S
H584 C573 0.930 . S
H585 C575 0.931 . S
H586 C576 0.930 . S
H587 C577 0.930 . S
Tb588 N619 2.660 . S
Tb588 N626 2.600 . S
Tb588 O632 2.546 . S
Tb588 O633 2.610 . S
Tb588 O635 2.320 . S
Tb588 O636 2.552 . S
Tb588 O637 2.413 . S
Tb588 O639 2.362 . S
Tb588 O640 2.421 . S
Tb588 C652 2.833 . S
C589 C592 1.432 . S
C589 C593 1.414 . S
C589 N596 1.359 . S
C590 C592 1.417 . S
C590 C594 1.432 . S
C590 C602 1.410 . S
C591 C593 1.444 . S
C591 C594 1.317 . S
C591 H614 0.929 . S
C592 C589 1.432 . S
C592 C590 1.417 . S
C592 N600 1.360 . S
C593 C589 1.414 . S
C593 C591 1.444 . S
C593 C598 1.385 . S
C594 C590 1.432 . S
C594 C591 1.317 . S
C594 H606 0.930 . S
C595 C597 1.392 . S
C595 C598 1.370 . S
C595 H607 0.931 . S
N596 C589 1.359 . S
N596 C597 1.327 . S
N596 Tb599 2.600 . S
C597 C595 1.392 . S
C597 N596 1.327 . S
C597 H604 0.930 . S
C598 C593 1.385 . S
C598 C595 1.370 . S
C598 H617 0.930 . S
Tb599 N596 2.600 . S
Tb599 N600 2.660 . S
Tb599 O633 2.362 . S
Tb599 O634 2.421 . S
Tb599 O638 2.546 . S
Tb599 O639 2.610 . S
Tb599 O641 2.320 . S
Tb599 O642 2.552 . S
Tb599 O643 2.413 . S
Tb599 C663 2.833 . S
N600 C592 1.360 . S
N600 Tb599 2.660 . S
N600 C601 1.305 . S
C601 N600 1.305 . S
C601 C603 1.407 . S
C601 H608 0.930 . S
C602 C590 1.410 . S
C602 C603 1.345 . S
C602 H610 0.930 . S
C603 C601 1.407 . S
C603 C602 1.345 . S
C603 H605 0.930 . S
H604 C597 0.930 . S
H605 C603 0.930 . S
H606 C594 0.930 . S
H607 C595 0.931 . S
H608 C601 0.930 . S
H609 C623 0.930 . S
H610 C602 0.930 . S
H611 C629 0.930 . S
H612 C620 0.930 . S
H613 C627 0.931 . S
H614 C591 0.929 . S
H615 C621 0.930 . S
H616 C654 0.930 . S
H617 C598 0.930 . S
H618 C653 0.929 . S
N619 Tb588 2.660 . S
N619 C620 1.305 . S
N619 C624 1.360 . S
C620 H612 0.930 . S
C620 N619 1.305 . S
C620 C623 1.407 . S
C621 H615 0.930 . S
C621 C622 1.410 . S
C621 C623 1.345 . S
C622 C621 1.410 . S
C622 C624 1.417 . S
C622 C654 1.432 . S
C623 H609 0.930 . S
C623 C620 1.407 . S
C623 C621 1.345 . S
C624 N619 1.360 . S
C624 C622 1.417 . S
C624 C628 1.432 . S
H625 C630 0.930 . S
N626 Tb588 2.600 . S
N626 C628 1.359 . S
N626 C629 1.327 . S
C627 H613 0.931 . S
C627 C629 1.392 . S
C627 C630 1.370 . S
C628 C624 1.432 . S
C628 N626 1.359 . S
C628 C631 1.414 . S
C629 H611 0.930 . S
C629 N626 1.327 . S
C629 C627 1.392 . S
C630 H625 0.930 . S
C630 C627 1.370 . S
C630 C631 1.385 . S
C631 C628 1.414 . S
C631 C630 1.385 . S
C631 C653 1.444 . S
O632 Tb588 2.546 . S
O632 C652 1.251 . S
O633 Tb588 2.610 . S
O633 Tb599 2.362 . S
O633 C644 1.283 . S
O634 Tb599 2.421 . S
O634 C651 1.262 . S
O635 Tb588 2.320 . S
O635 C651 1.260 . S
O636 Tb588 2.552 . S
O636 C644 1.243 . S
O637 Tb588 2.413 . S
O637 C652 1.256 . S
O638 Tb599 2.546 . S
O638 C663 1.251 . S
O639 Tb588 2.362 . S
O639 Tb599 2.610 . S
O639 C655 1.283 . S
O640 Tb588 2.421 . S
O640 C662 1.262 . S
O641 Tb599 2.320 . S
O641 C662 1.260 . S
O642 Tb599 2.552 . S
O642 C655 1.243 . S
O643 Tb599 2.413 . S
O643 C663 1.256 . S
C644 O633 1.283 . S
C644 O636 1.243 . S
C645 C647 1.382 . S
C645 C649 1.393 . S
C645 C652 1.500 . S
C646 C647 1.400 . S
C646 C648 1.384 . S
C647 C645 1.382 . S
C647 C646 1.400 . S
C647 H664 0.930 . S
C648 C646 1.384 . S
C648 C650 1.392 . S
C648 H665 0.931 . S
C649 C645 1.393 . S
C649 C650 1.401 . S
C649 H666 0.930 . S
C650 C648 1.392 . S
C650 C649 1.401 . S
C650 H667 0.930 . S
C651 O634 1.262 . S
C651 O635 1.260 . S
C652 Tb588 2.833 . S
C652 O632 1.251 . S
C652 O637 1.256 . S
C652 C645 1.500 . S
C653 H618 0.929 . S
C653 C631 1.444 . S
C653 C654 1.317 . S
C654 H616 0.930 . S
C654 C622 1.432 . S
C654 C653 1.317 . S
C655 O639 1.283 . S
C655 O642 1.243 . S
C656 C657 1.382 . S
C656 C660 1.393 . S
C656 C663 1.500 . S
C657 C656 1.382 . S
C657 C658 1.400 . S
C657 H668 0.930 . S
C658 C657 1.400 . S
C658 C659 1.384 . S
C659 C658 1.384 . S
C659 C661 1.392 . S
C659 H669 0.931 . S
C660 C656 1.393 . S
C660 C661 1.401 . S
C660 H670 0.930 . S
C661 C659 1.392 . S
C661 C660 1.401 . S
C661 H671 0.930 . S
C662 O640 1.262 . S
C662 O641 1.260 . S
C663 Tb599 2.833 . S
C663 O638 1.251 . S
C663 O643 1.256 . S
C663 C656 1.500 . S
H664 C647 0.930 . S
H665 C648 0.931 . S
H666 C649 0.930 . S
H667 C650 0.930 . S
H668 C657 0.930 . S
H669 C659 0.931 . S
H670 C660 0.930 . S
H671 C661 0.930 . S
Cd672 N675 2.334 1_655 S
Cd672 N701 2.304 1_565 S
Cd672 O708 2.268 . S
Cd672 O711 2.273 1_665 S
Cd672 O712 2.417 . S
Cd672 O713 2.330 . S
Cd673 N688 2.304 1_455 S
Cd673 N692 2.334 1_545 S
Cd673 O709 2.273 1_445 S
Cd673 O710 2.268 . S
Cd673 O714 2.417 . S
Cd673 O715 2.330 . S
C674 N675 1.332 . S
C674 C678 1.381 . S
C674 H680 0.931 . S
N675 Cd672 2.334 1_455 S
N675 C674 1.332 . S
N675 C679 1.328 . S
C676 C677 1.396 . S
C676 C679 1.378 . S
C676 H718 0.931 . S
C677 C676 1.396 . S
C677 C678 1.382 . S
C678 C674 1.381 . S
C678 C677 1.382 . S
C678 H719 0.930 . S
C679 N675 1.328 . S
C679 C676 1.378 . S
C679 H681 0.930 1_455 S
H680 C674 0.931 . S
H681 C679 0.930 1_655 S
C682 O708 1.238 . S
C682 O709 1.253 . S
C683 C684 1.379 . S
C683 N688 1.337 . S
C683 H689 0.929 . S
C684 C683 1.379 . S
C684 C685 1.380 . S
C684 H720 0.929 . S
C685 C684 1.380 . S
C685 C686 1.399 . S
C686 C685 1.399 . S
C686 C687 1.376 . S
C686 H721 0.931 . S
C687 C686 1.376 . S
C687 N688 1.338 . S
C687 H690 0.930 1_655 S
N688 Cd673 2.304 1_655 S
N688 C683 1.337 . S
N688 C687 1.338 . S
H689 C683 0.929 . S
H690 C687 0.930 1_455 S
C691 N692 1.332 . S
C691 C695 1.381 . S
C691 H697 0.931 . S
N692 Cd673 2.334 1_565 S
N692 C691 1.332 . S
N692 C696 1.328 . S
C693 C694 1.396 . S
C693 C696 1.378 . S
C693 H722 0.931 . S
C694 C693 1.396 . S
C694 C695 1.382 . S
C695 C691 1.381 . S
C695 C694 1.382 . S
C695 H723 0.930 . S
C696 N692 1.328 . S
C696 C693 1.378 . S
C696 H698 0.930 1_565 S
H697 C691 0.931 . S
H698 C696 0.930 1_545 S
C699 O710 1.238 . S
C699 O711 1.253 . S
C700 O712 1.239 . S
C700 O713 1.230 . S
N701 Cd672 2.304 1_545 S
N701 C702 1.337 . S
N701 C706 1.338 . S
C702 N701 1.337 . S
C702 C703 1.379 . S
C702 H716 0.929 . S
C703 C702 1.379 . S
C703 C704 1.380 . S
C703 H724 0.929 . S
C704 C703 1.380 . S
C704 C705 1.399 . S
C705 C704 1.399 . S
C705 C706 1.376 . S
C705 H725 0.931 . S
C706 N701 1.338 . S
C706 C705 1.376 . S
C706 H717 0.930 1_545 S
C707 O714 1.239 . S
C707 O715 1.230 . S
O708 Cd672 2.268 . S
O708 C682 1.238 . S
O709 Cd673 2.273 1_665 S
O709 C682 1.253 . S
O710 Cd673 2.268 . S
O710 C699 1.238 . S
O711 Cd672 2.273 1_445 S
O711 C699 1.253 . S
O712 Cd672 2.417 . S
O712 C700 1.239 . S
O713 Cd672 2.330 . S
O713 C700 1.230 . S
O714 Cd673 2.417 . S
O714 C707 1.239 . S
O715 Cd673 2.330 . S
O715 C707 1.230 . S
H716 C702 0.929 . S
H717 C706 0.930 1_565 S
H718 C676 0.931 . S
H719 C678 0.930 . S
H720 C684 0.929 . S
H721 C686 0.931 . S
H722 C693 0.931 . S
H723 C695 0.930 . S
H724 C703 0.929 . S
H725 C705 0.931 . S
Cd726 N729 2.334 . S
Cd726 N755 2.304 1_565 S
Cd726 O762 2.268 1_554 S
Cd726 O765 2.273 1_565 S
Cd726 O766 2.417 . S
Cd726 O767 2.330 . S
Cd727 N742 2.304 . S
Cd727 N746 2.334 1_545 S
Cd727 O763 2.273 1_545 S
Cd727 O764 2.268 1_556 S
Cd727 O768 2.417 . S
Cd727 O769 2.330 . S
C728 N729 1.332 . S
C728 C732 1.381 . S
C728 H734 0.931 . S
N729 Cd726 2.334 . S
N729 C728 1.332 . S
N729 C733 1.328 . S
C730 C731 1.396 . S
C730 C733 1.378 . S
C730 H772 0.931 . S
C731 C730 1.396 . S
C731 C732 1.382 . S
C732 C728 1.381 . S
C732 C731 1.382 . S
C732 H773 0.930 . S
C733 N729 1.328 . S
C733 C730 1.378 . S
C733 H735 0.928 . S
H734 C728 0.931 . S
H735 C733 0.928 . S
C736 O762 1.238 . S
C736 O763 1.253 . S
C737 C738 1.379 . S
C737 N742 1.337 . S
C737 H743 0.929 . S
C738 C737 1.379 . S
C738 C739 1.380 . S
C738 H774 0.929 . S
C739 C738 1.380 . S
C739 C740 1.399 . S
C740 C739 1.399 . S
C740 C741 1.376 . S
C740 H775 0.950 . S
C741 C740 1.376 . S
C741 N742 1.338 . S
C741 H744 0.930 1_556 S
N742 Cd727 2.304 . S
N742 C737 1.337 . S
N742 C741 1.338 . S
H743 C737 0.929 . S
H744 C741 0.930 1_554 S
C745 N746 1.332 . S
C745 C749 1.381 . S
C745 H751 0.931 . S
N746 Cd727 2.334 1_565 S
N746 C745 1.332 . S
N746 C750 1.328 . S
C747 C748 1.396 . S
C747 C750 1.378 . S
C747 H776 0.931 1_556 S
C748 C747 1.396 . S
C748 C749 1.382 . S
C749 C745 1.381 . S
C749 C748 1.382 . S
C749 H777 0.930 . S
C750 N746 1.328 . S
C750 C747 1.378 . S
C750 H752 0.930 1_566 S
H751 C745 0.931 . S
H752 C750 0.930 1_544 S
C753 O764 1.238 . S
C753 O765 1.253 . S
C754 O766 1.239 . S
C754 O767 1.230 . S
N755 Cd726 2.304 1_545 S
N755 C756 1.337 . S
N755 C760 1.338 . S
C756 N755 1.337 . S
C756 C757 1.379 . S
C756 H770 0.929 . S
C757 C756 1.379 . S
C757 C758 1.380 . S
C757 H778 0.929 . S
C758 C757 1.380 . S
C758 C759 1.399 . S
C759 C758 1.399 . S
C759 C760 1.376 . S
C759 H779 0.931 1_554 S
C760 N755 1.338 . S
C760 C759 1.376 . S
C760 H771 0.930 1_544 S
C761 O768 1.239 . S
C761 O769 1.230 . S
O762 Cd726 2.268 1_556 S
O762 C736 1.238 . S
O763 Cd727 2.273 1_565 S
O763 C736 1.253 . S
O764 Cd727 2.268 1_554 S
O764 C753 1.238 . S
O765 Cd726 2.273 1_545 S
O765 C753 1.253 . S
O766 Cd726 2.417 . S
O766 C754 1.239 . S
O767 Cd726 2.330 . S
O767 C754 1.230 . S
O768 Cd727 2.417 . S
O768 C761 1.239 . S
O769 Cd727 2.330 . S
O769 C761 1.230 . S
H770 C756 0.929 . S
H771 C760 0.930 1_566 S
H772 C730 0.931 . S
H773 C732 0.930 . S
H774 C738 0.929 . S
H775 C740 0.950 . S
H776 C747 0.931 1_554 S
H777 C749 0.930 . S
H778 C757 0.929 . S
H779 C759 0.931 1_556 S
Cd780 N783 2.334 1_655 S
Cd780 N809 2.304 . S
Cd780 O816 2.268 1_554 S
Cd780 O819 2.273 1_655 S
Cd780 O820 2.417 . S
Cd780 O821 2.330 . S
Cd781 N796 2.304 1_455 S
Cd781 N800 2.334 . S
Cd781 O817 2.273 1_455 S
Cd781 O818 2.268 1_556 S
Cd781 O822 2.417 . S
Cd781 O823 2.330 . S
C782 N783 1.332 . S
C782 C786 1.381 . S
C782 H788 0.931 . S
N783 Cd780 2.334 1_455 S
N783 C782 1.332 . S
N783 C787 1.328 . S
C784 C785 1.396 . S
C784 C787 1.378 . S
C784 H826 0.931 . S
C785 C784 1.396 . S
C785 C786 1.382 . S
C786 C782 1.381 . S
C786 C785 1.382 . S
C786 H827 0.930 . S
C787 N783 1.328 . S
C787 C784 1.378 . S
C787 H789 0.928 1_455 S
H788 C782 0.931 . S
H789 C787 0.928 1_655 S
C790 O816 1.238 . S
C790 O817 1.253 . S
C791 C792 1.379 . S
C791 N796 1.337 . S
C791 H797 0.929 . S
C792 C791 1.379 . S
C792 C793 1.380 . S
C792 H828 0.929 . S
C793 C792 1.380 . S
C793 C794 1.399 . S
C794 C793 1.399 . S
C794 C795 1.376 . S
C794 H829 0.950 . S
C795 C794 1.376 . S
C795 N796 1.338 . S
C795 H798 0.930 1_656 S
N796 Cd781 2.304 1_655 S
N796 C791 1.337 . S
N796 C795 1.338 . S
H797 C791 0.929 . S
H798 C795 0.930 1_454 S
C799 N800 1.332 . S
C799 C803 1.381 . S
C799 H805 0.931 . S
N800 Cd781 2.334 . S
N800 C799 1.332 . S
N800 C804 1.328 . S
C801 C802 1.396 . S
C801 C804 1.378 . S
C801 H830 0.931 1_556 S
C802 C801 1.396 . S
C802 C803 1.382 . S
C803 C799 1.381 . S
C803 C802 1.382 . S
C803 H831 0.930 . S
C804 N800 1.328 . S
C804 C801 1.378 . S
C804 H806 0.930 1_556 S
H805 C799 0.931 . S
H806 C804 0.930 1_554 S
C807 O818 1.238 . S
C807 O819 1.253 . S
C808 O820 1.239 . S
C808 O821 1.230 . S
N809 Cd780 2.304 . S
N809 C810 1.337 . S
N809 C814 1.338 . S
C810 N809 1.337 . S
C810 C811 1.379 . S
C810 H824 0.929 . S
C811 C810 1.379 . S
C811 C812 1.380 . S
C811 H832 0.929 . S
C812 C811 1.380 . S
C812 C813 1.399 . S
C813 C812 1.399 . S
C813 C814 1.376 . S
C813 H833 0.931 1_554 S
C814 N809 1.338 . S
C814 C813 1.376 . S
C814 H825 0.930 1_554 S
C815 O822 1.239 . S
C815 O823 1.230 . S
O816 Cd780 2.268 1_556 S
O816 C790 1.238 . S
O817 Cd781 2.273 1_655 S
O817 C790 1.253 . S
O818 Cd781 2.268 1_554 S
O818 C807 1.238 . S
O819 Cd780 2.273 1_455 S
O819 C807 1.253 . S
O820 Cd780 2.417 . S
O820 C808 1.239 . S
O821 Cd780 2.330 . S
O821 C808 1.230 . S
O822 Cd781 2.417 . S
O822 C815 1.239 . S
O823 Cd781 2.330 . S
O823 C815 1.230 . S
H824 C810 0.929 . S
H825 C814 0.930 1_556 S
H826 C784 0.931 . S
H827 C786 0.930 . S
H828 C792 0.929 . S
H829 C794 0.950 . S
H830 C801 0.931 1_554 S
H831 C803 0.930 . S
H832 C811 0.929 . S
H833 C813 0.931 1_556 S
Cd834 N837 2.334 . S
Cd834 N863 2.304 . S
Cd834 O870 2.268 1_554 S
Cd834 O873 2.273 . S
Cd834 O874 2.417 . S
Cd834 O875 2.330 . S
Cd835 N850 2.304 . S
Cd835 N854 2.334 . S
Cd835 O871 2.273 . S
Cd835 O872 2.268 1_556 S
Cd835 O876 2.417 . S
Cd835 O877 2.330 . S
C836 N837 1.332 . S
C836 C840 1.381 . S
C836 H842 0.931 . S
N837 Cd834 2.334 . S
N837 C836 1.332 . S
N837 C841 1.328 . S
C838 C839 1.396 . S
C838 C841 1.378 . S
C838 H880 0.931 . S
C839 C838 1.396 . S
C839 C840 1.382 . S
C840 C836 1.381 . S
C840 C839 1.382 . S
C840 H881 0.930 . S
C841 N837 1.328 . S
C841 C838 1.378 . S
C841 H843 0.927 . S
H842 C836 0.931 . S
H843 C841 0.927 . S
C844 O870 1.238 . S
C844 O871 1.253 . S
C845 C846 1.379 . S
C845 N850 1.337 . S
C845 H851 0.929 . S
C846 C845 1.379 . S
C846 C847 1.380 . S
C846 H882 0.929 . S
C847 C846 1.380 . S
C847 C848 1.399 . S
C848 C847 1.399 . S
C848 C849 1.376 . S
C848 H883 0.951 . S
C849 C848 1.376 . S
C849 N850 1.338 . S
C849 H852 0.930 1_556 S
N850 Cd835 2.304 . S
N850 C845 1.337 . S
N850 C849 1.338 . S
H851 C845 0.929 . S
H852 C849 0.930 1_554 S
C853 N854 1.332 . S
C853 C857 1.381 . S
C853 H859 0.931 . S
N854 Cd835 2.334 . S
N854 C853 1.332 . S
N854 C858 1.328 . S
C855 C856 1.396 . S
C855 C858 1.378 . S
C855 H884 0.931 1_556 S
C856 C855 1.396 . S
C856 C857 1.382 . S
C857 C853 1.381 . S
C857 C856 1.382 . S
C857 H885 0.930 . S
C858 N854 1.328 . S
C858 C855 1.378 . S
C858 H860 0.930 1_556 S
H859 C853 0.931 . S
H860 C858 0.930 1_554 S
C861 O872 1.238 . S
C861 O873 1.253 . S
C862 O874 1.239 . S
C862 O875 1.230 . S
N863 Cd834 2.304 . S
N863 C864 1.337 . S
N863 C868 1.338 . S
C864 N863 1.337 . S
C864 C865 1.379 . S
C864 H878 0.929 . S
C865 C864 1.379 . S
C865 C866 1.380 . S
C865 H886 0.929 . S
C866 C865 1.380 . S
C866 C867 1.399 . S
C867 C866 1.399 . S
C867 C868 1.376 . S
C867 H887 0.931 1_554 S
C868 N863 1.338 . S
C868 C867 1.376 . S
C868 H879 0.930 1_554 S
C869 O876 1.239 . S
C869 O877 1.230 . S
O870 Cd834 2.268 1_556 S
O870 C844 1.238 . S
O871 Cd835 2.273 . S
O871 C844 1.253 . S
O872 Cd835 2.268 1_554 S
O872 C861 1.238 . S
O873 Cd834 2.273 . S
O873 C861 1.253 . S
O874 Cd834 2.417 . S
O874 C862 1.239 . S
O875 Cd834 2.330 . S
O875 C862 1.230 . S
O876 Cd835 2.417 . S
O876 C869 1.239 . S
O877 Cd835 2.330 . S
O877 C869 1.230 . S
H878 C864 0.929 . S
H879 C868 0.930 1_556 S
H880 C838 0.931 . S
H881 C840 0.930 . S
H882 C846 0.929 . S
H883 C848 0.951 . S
H884 C855 0.931 1_554 S
H885 C857 0.930 . S
H886 C865 0.929 . S
H887 C867 0.931 1_556 S
Cd888 N891 2.334 1_655 S
Cd888 N917 2.304 . S
Cd888 O924 2.268 . S
Cd888 O927 2.273 1_655 S
Cd888 O928 2.417 . S
Cd888 O929 2.330 . S
Cd889 N904 2.304 1_455 S
Cd889 N908 2.334 . S
Cd889 O925 2.273 1_455 S
Cd889 O926 2.268 . S
Cd889 O930 2.417 . S
Cd889 O931 2.330 . S
C890 N891 1.332 . S
C890 C894 1.381 . S
C890 H896 0.931 . S
N891 Cd888 2.334 1_455 S
N891 C890 1.332 . S
N891 C895 1.328 . S
C892 C893 1.396 . S
C892 C895 1.378 . S
C892 H934 0.931 . S
C893 C892 1.396 . S
C893 C894 1.382 . S
C894 C890 1.381 . S
C894 C893 1.382 . S
C894 H935 0.930 . S
C895 N891 1.328 . S
C895 C892 1.378 . S
C895 H897 0.930 1_455 S
H896 C890 0.931 . S
H897 C895 0.930 1_655 S
C898 O924 1.238 . S
C898 O925 1.253 . S
C899 C900 1.379 . S
C899 N904 1.337 . S
C899 H905 0.929 . S
C900 C899 1.379 . S
C900 C901 1.380 . S
C900 H936 0.929 . S
C901 C900 1.380 . S
C901 C902 1.399 . S
C902 C901 1.399 . S
C902 C903 1.376 . S
C902 H937 0.931 . S
C903 C902 1.376 . S
C903 N904 1.338 . S
C903 H906 0.930 1_655 S
N904 Cd889 2.304 1_655 S
N904 C899 1.337 . S
N904 C903 1.338 . S
H905 C899 0.929 . S
H906 C903 0.930 1_455 S
C907 N908 1.332 . S
C907 C911 1.381 . S
C907 H913 0.931 . S
N908 Cd889 2.334 . S
N908 C907 1.332 . S
N908 C912 1.328 . S
C909 C910 1.396 . S
C909 C912 1.378 . S
C909 H938 0.931 . S
C910 C909 1.396 . S
C910 C911 1.382 . S
C911 C907 1.381 . S
C911 C910 1.382 . S
C911 H939 0.930 . S
C912 N908 1.328 . S
C912 C909 1.378 . S
C912 H914 0.930 . S
H913 C907 0.931 . S
H914 C912 0.930 . S
C915 O926 1.238 . S
C915 O927 1.253 . S
C916 O928 1.239 . S
C916 O929 1.230 . S
N917 Cd888 2.304 . S
N917 C918 1.337 . S
N917 C922 1.338 . S
C918 N917 1.337 . S
C918 C919 1.379 . S
C918 H932 0.929 . S
C919 C918 1.379 . S
C919 C920 1.380 . S
C919 H940 0.929 . S
C920 C919 1.380 . S
C920 C921 1.399 . S
C921 C920 1.399 . S
C921 C922 1.376 . S
C921 H941 0.931 . S
C922 N917 1.338 . S
C922 C921 1.376 . S
C922 H933 0.930 . S
C923 O930 1.239 . S
C923 O931 1.230 . S
O924 Cd888 2.268 . S
O924 C898 1.238 . S
O925 Cd889 2.273 1_655 S
O925 C898 1.253 . S
O926 Cd889 2.268 . S
O926 C915 1.238 . S
O927 Cd888 2.273 1_455 S
O927 C915 1.253 . S
O928 Cd888 2.417 . S
O928 C916 1.239 . S
O929 Cd888 2.330 . S
O929 C916 1.230 . S
O930 Cd889 2.417 . S
O930 C923 1.239 . S
O931 Cd889 2.330 . S
O931 C923 1.230 . S
H932 C918 0.929 . S
H933 C922 0.930 . S
H934 C892 0.931 . S
H935 C894 0.930 . S
H936 C900 0.929 . S
H937 C902 0.931 . S
H938 C909 0.931 . S
H939 C911 0.930 . S
H940 C919 0.929 . S
H941 C921 0.931 . S
Cd942 N945 2.334 . S
Cd942 N971 2.304 1_565 S
Cd942 O978 2.268 . S
Cd942 O981 2.273 1_565 S
Cd942 O982 2.417 . S
Cd942 O983 2.330 . S
Cd943 N958 2.304 . S
Cd943 N962 2.334 1_545 S
Cd943 O979 2.273 1_545 S
Cd943 O980 2.268 . S
Cd943 O984 2.417 . S
Cd943 O985 2.330 . S
C944 N945 1.332 . S
C944 C948 1.381 . S
C944 H950 0.931 . S
N945 Cd942 2.334 . S
N945 C944 1.332 . S
N945 C949 1.328 . S
C946 C947 1.396 . S
C946 C949 1.378 . S
C946 H988 0.931 . S
C947 C946 1.396 . S
C947 C948 1.382 . S
C948 C944 1.381 . S
C948 C947 1.382 . S
C948 H989 0.930 . S
C949 N945 1.328 . S
C949 C946 1.378 . S
C949 H951 0.930 . S
H950 C944 0.931 . S
H951 C949 0.930 . S
C952 O978 1.238 . S
C952 O979 1.253 . S
C953 C954 1.379 . S
C953 N958 1.337 . S
C953 H959 0.929 . S
C954 C953 1.379 . S
C954 C955 1.380 . S
C954 H990 0.929 . S
C955 C954 1.380 . S
C955 C956 1.399 . S
C956 C955 1.399 . S
C956 C957 1.376 . S
C956 H991 0.931 . S
C957 C956 1.376 . S
C957 N958 1.338 . S
C957 H960 0.930 . S
N958 Cd943 2.304 . S
N958 C953 1.337 . S
N958 C957 1.338 . S
H959 C953 0.929 . S
H960 C957 0.930 . S
C961 N962 1.332 . S
C961 C965 1.381 . S
C961 H967 0.931 . S
N962 Cd943 2.334 1_565 S
N962 C961 1.332 . S
N962 C966 1.328 . S
C963 C964 1.396 . S
C963 C966 1.378 . S
C963 H992 0.931 . S
C964 C963 1.396 . S
C964 C965 1.382 . S
C965 C961 1.381 . S
C965 C964 1.382 . S
C965 H993 0.930 . S
C966 N962 1.328 . S
C966 C963 1.378 . S
C966 H968 0.930 1_565 S
H967 C961 0.931 . S
H968 C966 0.930 1_545 S
C969 O980 1.238 . S
C969 O981 1.253 . S
C970 O982 1.239 . S
C970 O983 1.230 . S
N971 Cd942 2.304 1_545 S
N971 C972 1.337 . S
N971 C976 1.338 . S
C972 N971 1.337 . S
C972 C973 1.379 . S
C972 H986 0.929 . S
C973 C972 1.379 . S
C973 C974 1.380 . S
C973 H994 0.929 . S
C974 C973 1.380 . S
C974 C975 1.399 . S
C975 C974 1.399 . S
C975 C976 1.376 . S
C975 H995 0.931 . S
C976 N971 1.338 . S
C976 C975 1.376 . S
C976 H987 0.930 1_545 S
C977 O984 1.239 . S
C977 O985 1.230 . S
O978 Cd942 2.268 . S
O978 C952 1.238 . S
O979 Cd943 2.273 1_565 S
O979 C952 1.253 . S
O980 Cd943 2.268 . S
O980 C969 1.238 . S
O981 Cd942 2.273 1_545 S
O981 C969 1.253 . S
O982 Cd942 2.417 . S
O982 C970 1.239 . S
O983 Cd942 2.330 . S
O983 C970 1.230 . S
O984 Cd943 2.417 . S
O984 C977 1.239 . S
O985 Cd943 2.330 . S
O985 C977 1.230 . S
H986 C972 0.929 . S
H987 C976 0.930 1_565 S
H988 C946 0.931 . S
H989 C948 0.930 . S
H990 C954 0.929 . S
H991 C956 0.931 . S
H992 C963 0.931 . S
H993 C965 0.930 . S
H994 C973 0.929 . S
H995 C975 0.931 . S
H996 C1002 0.930 . S
H997 C1006 0.930 . S
H998 C1011 0.929 . S
H999 C1009 0.929 . S
H1000 C1004 0.929 . S
H1001 C1010 0.929 . S
C1002 H996 0.930 . S
C1002 C1003 1.367 . S
C1002 C1010 1.378 . S
C1003 C1002 1.367 . S
C1003 C1011 1.433 . S
C1004 H1000 0.929 . S
C1004 C1006 1.378 . S
C1004 C1008 1.350 . S
C1005 C1008 1.463 . S
C1005 C1010 1.350 . S
C1005 N1013 1.427 . S
C1006 H997 0.930 . S
C1006 C1004 1.378 . S
C1006 C1007 1.367 . S
C1007 C1006 1.367 . S
C1007 C1009 1.433 . S
C1008 C1004 1.350 . S
C1008 C1005 1.463 . S
C1008 N1012 1.427 . S
C1009 H999 0.929 . S
C1009 C1007 1.433 . S
C1009 N1012 1.384 . S
C1010 H1001 0.929 . S
C1010 C1002 1.378 . S
C1010 C1005 1.350 . S
C1011 H998 0.929 . S
C1011 C1003 1.433 . S
C1011 N1013 1.384 . S
N1012 C1008 1.427 . S
N1012 C1009 1.384 . S
N1013 C1005 1.427 . S
N1013 C1011 1.384 . S
H1014 C1020 0.930 . S
H1015 C1024 0.930 . S
H1016 C1029 0.929 . S
H1017 C1027 0.929 . S
H1018 C1022 0.929 . S
H1019 C1028 0.929 . S
C1020 H1014 0.930 . S
C1020 C1021 1.367 . S
C1020 C1028 1.378 . S
C1021 C1020 1.367 . S
C1021 C1029 1.433 . S
C1022 H1018 0.929 . S
C1022 C1024 1.378 . S
C1022 C1026 1.350 . S
C1023 C1026 1.463 . S
C1023 C1028 1.350 . S
C1023 N1031 1.427 . S
C1024 H1015 0.930 . S
C1024 C1022 1.378 . S
C1024 C1025 1.367 . S
C1025 C1024 1.367 . S
C1025 C1027 1.433 . S
C1026 C1022 1.350 . S
C1026 C1023 1.463 . S
C1026 N1030 1.427 . S
C1027 H1017 0.929 . S
C1027 C1025 1.433 . S
C1027 N1030 1.384 . S
C1028 H1019 0.929 . S
C1028 C1020 1.378 . S
C1028 C1023 1.350 . S
C1029 H1016 0.929 . S
C1029 C1021 1.433 . S
C1029 N1031 1.384 . S
N1030 C1026 1.427 . S
N1030 C1027 1.384 . S
N1031 C1023 1.427 . S
N1031 C1029 1.384 . S
H1032 C1038 0.930 . S
H1033 C1042 0.930 . S
H1034 C1047 0.929 . S
H1035 C1045 0.929 . S
H1036 C1040 0.929 . S
H1037 C1046 0.929 . S
C1038 H1032 0.930 . S
C1038 C1039 1.367 . S
C1038 C1046 1.378 . S
C1039 C1038 1.367 . S
C1039 C1047 1.433 . S
C1040 H1036 0.929 . S
C1040 C1042 1.378 . S
C1040 C1044 1.350 . S
C1041 C1044 1.463 . S
C1041 C1046 1.350 . S
C1041 N1049 1.427 . S
C1042 H1033 0.930 . S
C1042 C1040 1.378 . S
C1042 C1043 1.367 . S
C1043 C1042 1.367 . S
C1043 C1045 1.433 . S
C1044 C1040 1.350 . S
C1044 C1041 1.463 . S
C1044 N1048 1.427 . S
C1045 H1035 0.929 . S
C1045 C1043 1.433 . S
C1045 N1048 1.384 . S
C1046 H1037 0.929 . S
C1046 C1038 1.378 . S
C1046 C1041 1.350 . S
C1047 H1034 0.929 . S
C1047 C1039 1.433 . S
C1047 N1049 1.384 . S
N1048 C1044 1.427 . S
N1048 C1045 1.384 . S
N1049 C1041 1.427 . S
N1049 C1047 1.384 . S
H1050 C1056 0.930 . S
H1051 C1060 0.930 . S
H1052 C1065 0.929 . S
H1053 C1063 0.929 . S
H1054 C1058 0.929 . S
H1055 C1064 0.929 . S
C1056 H1050 0.930 . S
C1056 C1057 1.367 . S
C1056 C1064 1.378 . S
C1057 C1056 1.367 . S
C1057 C1065 1.433 . S
C1058 H1054 0.929 . S
C1058 C1060 1.378 . S
C1058 C1062 1.350 . S
C1059 C1062 1.463 . S
C1059 C1064 1.350 . S
C1059 N1067 1.427 . S
C1060 H1051 0.930 . S
C1060 C1058 1.378 . S
C1060 C1061 1.367 . S
C1061 C1060 1.367 . S
C1061 C1063 1.433 . S
C1062 C1058 1.350 . S
C1062 C1059 1.463 . S
C1062 N1066 1.427 . S
C1063 H1053 0.929 . S
C1063 C1061 1.433 . S
C1063 N1066 1.384 . S
C1064 H1055 0.929 . S
C1064 C1056 1.378 . S
C1064 C1059 1.350 . S
C1065 H1052 0.929 . S
C1065 C1057 1.433 . S
C1065 N1067 1.384 . S
N1066 C1062 1.427 . S
N1066 C1063 1.384 . S
N1067 C1059 1.427 . S
N1067 C1065 1.384 . S
H1068 C1074 0.930 . S
H1069 C1078 0.930 . S
H1070 C1083 0.929 . S
H1071 C1081 0.929 . S
H1072 C1076 0.929 . S
H1073 C1082 0.929 . S
C1074 H1068 0.930 . S
C1074 C1075 1.367 . S
C1074 C1082 1.378 . S
C1075 C1074 1.367 . S
C1075 C1083 1.433 . S
C1076 H1072 0.929 . S
C1076 C1078 1.378 . S
C1076 C1080 1.350 . S
C1077 C1080 1.463 . S
C1077 C1082 1.350 . S
C1077 N1085 1.427 . S
C1078 H1069 0.930 . S
C1078 C1076 1.378 . S
C1078 C1079 1.367 . S
C1079 C1078 1.367 . S
C1079 C1081 1.433 . S
C1080 C1076 1.350 . S
C1080 C1077 1.463 . S
C1080 N1084 1.427 . S
C1081 H1071 0.929 . S
C1081 C1079 1.433 . S
C1081 N1084 1.384 . S
C1082 H1073 0.929 . S
C1082 C1074 1.378 . S
C1082 C1077 1.350 . S
C1083 H1070 0.929 . S
C1083 C1075 1.433 . S
C1083 N1085 1.384 . S
N1084 C1080 1.427 . S
N1084 C1081 1.384 . S
N1085 C1077 1.427 . S
N1085 C1083 1.384 . S
H1086 C1092 0.930 . S
H1087 C1096 0.930 . S
H1088 C1101 0.929 . S
H1089 C1099 0.929 . S
H1090 C1094 0.929 . S
H1091 C1100 0.929 . S
C1092 H1086 0.930 . S
C1092 C1093 1.367 . S
C1092 C1100 1.378 . S
C1093 C1092 1.367 . S
C1093 C1101 1.433 . S
C1094 H1090 0.929 . S
C1094 C1096 1.378 . S
C1094 C1098 1.350 . S
C1095 C1098 1.463 . S
C1095 C1100 1.350 . S
C1095 N1103 1.427 . S
C1096 H1087 0.930 . S
C1096 C1094 1.378 . S
C1096 C1097 1.367 . S
C1097 C1096 1.367 . S
C1097 C1099 1.433 . S
C1098 C1094 1.350 . S
C1098 C1095 1.463 . S
C1098 N1102 1.427 . S
C1099 H1089 0.929 . S
C1099 C1097 1.433 . S
C1099 N1102 1.384 . S
C1100 H1091 0.929 . S
C1100 C1092 1.378 . S
C1100 C1095 1.350 . S
C1101 H1088 0.929 . S
C1101 C1093 1.433 . S
C1101 N1103 1.384 . S
N1102 C1098 1.427 . S
N1102 C1099 1.384 . S
N1103 C1095 1.427 . S
N1103 C1101 1.384 . S
H1104 C1110 0.930 . S
H1105 C1114 0.930 . S
H1106 C1119 0.929 . S
H1107 C1117 0.929 . S
H1108 C1112 0.929 . S
H1109 C1118 0.929 . S
C1110 H1104 0.930 . S
C1110 C1111 1.367 . S
C1110 C1118 1.378 . S
C1111 C1110 1.367 . S
C1111 C1119 1.433 . S
C1112 H1108 0.929 . S
C1112 C1114 1.378 . S
C1112 C1116 1.350 . S
C1113 C1116 1.463 . S
C1113 C1118 1.350 . S
C1113 N1121 1.427 . S
C1114 H1105 0.930 . S
C1114 C1112 1.378 . S
C1114 C1115 1.367 . S
C1115 C1114 1.367 . S
C1115 C1117 1.433 . S
C1116 C1112 1.350 . S
C1116 C1113 1.463 . S
C1116 N1120 1.427 . S
C1117 H1107 0.929 . S
C1117 C1115 1.433 . S
C1117 N1120 1.384 . S
C1118 H1109 0.929 . S
C1118 C1110 1.378 . S
C1118 C1113 1.350 . S
C1119 H1106 0.929 . S
C1119 C1111 1.433 . S
C1119 N1121 1.384 . S
N1120 C1116 1.427 . S
N1120 C1117 1.384 . S
N1121 C1113 1.427 . S
N1121 C1119 1.384 . S
H1122 C1128 0.930 . S
H1123 C1132 0.930 . S
H1124 C1137 0.929 . S
H1125 C1135 0.929 . S
H1126 C1130 0.929 . S
H1127 C1136 0.929 . S
C1128 H1122 0.930 . S
C1128 C1129 1.367 . S
C1128 C1136 1.378 . S
C1129 C1128 1.367 . S
C1129 C1137 1.433 . S
C1130 H1126 0.929 . S
C1130 C1132 1.378 . S
C1130 C1134 1.350 . S
C1131 C1134 1.463 . S
C1131 C1136 1.350 . S
C1131 N1139 1.427 . S
C1132 H1123 0.930 . S
C1132 C1130 1.378 . S
C1132 C1133 1.367 . S
C1133 C1132 1.367 . S
C1133 C1135 1.433 . S
C1134 C1130 1.350 . S
C1134 C1131 1.463 . S
C1134 N1138 1.427 . S
C1135 H1125 0.929 . S
C1135 C1133 1.433 . S
C1135 N1138 1.384 . S
C1136 H1127 0.929 . S
C1136 C1128 1.378 . S
C1136 C1131 1.350 . S
C1137 H1124 0.929 . S
C1137 C1129 1.433 . S
C1137 N1139 1.384 . S
N1138 C1134 1.427 . S
N1138 C1135 1.384 . S
N1139 C1131 1.427 . S
N1139 C1137 1.384 . S
H1140 C1146 0.930 . S
H1141 C1150 0.930 . S
H1142 C1155 0.929 . S
H1143 C1153 0.929 . S
H1144 C1148 0.929 . S
H1145 C1154 0.929 . S
C1146 H1140 0.930 . S
C1146 C1147 1.367 . S
C1146 C1154 1.378 . S
C1147 C1146 1.367 . S
C1147 C1155 1.433 . S
C1148 H1144 0.929 . S
C1148 C1150 1.378 . S
C1148 C1152 1.350 . S
C1149 C1152 1.463 . S
C1149 C1154 1.350 . S
C1149 N1157 1.427 . S
C1150 H1141 0.930 . S
C1150 C1148 1.378 . S
C1150 C1151 1.367 . S
C1151 C1150 1.367 . S
C1151 C1153 1.433 . S
C1152 C1148 1.350 . S
C1152 C1149 1.463 . S
C1152 N1156 1.427 . S
C1153 H1143 0.929 . S
C1153 C1151 1.433 . S
C1153 N1156 1.384 . S
C1154 H1145 0.929 . S
C1154 C1146 1.378 . S
C1154 C1149 1.350 . S
C1155 H1142 0.929 . S
C1155 C1147 1.433 . S
C1155 N1157 1.384 . S
N1156 C1152 1.427 . S
N1156 C1153 1.384 . S
N1157 C1149 1.427 . S
N1157 C1155 1.384 . S
H1158 C1164 0.930 . S
H1159 C1168 0.930 . S
H1160 C1173 0.929 . S
H1161 C1171 0.929 . S
H1162 C1166 0.929 . S
H1163 C1172 0.929 . S
C1164 H1158 0.930 . S
C1164 C1165 1.367 . S
C1164 C1172 1.378 . S
C1165 C1164 1.367 . S
C1165 C1173 1.433 . S
C1166 H1162 0.929 . S
C1166 C1168 1.378 . S
C1166 C1170 1.350 . S
C1167 C1170 1.463 . S
C1167 C1172 1.350 . S
C1167 N1175 1.427 . S
C1168 H1159 0.930 . S
C1168 C1166 1.378 . S
C1168 C1169 1.367 . S
C1169 C1168 1.367 . S
C1169 C1171 1.433 . S
C1170 C1166 1.350 . S
C1170 C1167 1.463 . S
C1170 N1174 1.427 . S
C1171 H1161 0.929 . S
C1171 C1169 1.433 . S
C1171 N1174 1.384 . S
C1172 H1163 0.929 . S
C1172 C1164 1.378 . S
C1172 C1167 1.350 . S
C1173 H1160 0.929 . S
C1173 C1165 1.433 . S
C1173 N1175 1.384 . S
N1174 C1170 1.427 . S
N1174 C1171 1.384 . S
N1175 C1167 1.427 . S
N1175 C1173 1.384 . S
H1176 C1182 0.930 . S
H1177 C1186 0.930 . S
H1178 C1191 0.929 . S
H1179 C1189 0.929 . S
H1180 C1184 0.929 . S
H1181 C1190 0.929 . S
C1182 H1176 0.930 . S
C1182 C1183 1.367 . S
C1182 C1190 1.378 . S
C1183 C1182 1.367 . S
C1183 C1191 1.433 . S
C1184 H1180 0.929 . S
C1184 C1186 1.378 . S
C1184 C1188 1.350 . S
C1185 C1188 1.463 . S
C1185 C1190 1.350 . S
C1185 N1193 1.427 . S
C1186 H1177 0.930 . S
C1186 C1184 1.378 . S
C1186 C1187 1.367 . S
C1187 C1186 1.367 . S
C1187 C1189 1.433 . S
C1188 C1184 1.350 . S
C1188 C1185 1.463 . S
C1188 N1192 1.427 . S
C1189 H1179 0.929 . S
C1189 C1187 1.433 . S
C1189 N1192 1.384 . S
C1190 H1181 0.929 . S
C1190 C1182 1.378 . S
C1190 C1185 1.350 . S
C1191 H1178 0.929 . S
C1191 C1183 1.433 . S
C1191 N1193 1.384 . S
N1192 C1188 1.427 . S
N1192 C1189 1.384 . S
N1193 C1185 1.427 . S
N1193 C1191 1.384 . S
H1194 C1200 0.930 . S
H1195 C1204 0.930 . S
H1196 C1209 0.929 . S
H1197 C1207 0.929 . S
H1198 C1202 0.929 . S
H1199 C1208 0.929 . S
C1200 H1194 0.930 . S
C1200 C1201 1.367 . S
C1200 C1208 1.378 . S
C1201 C1200 1.367 . S
C1201 C1209 1.433 . S
C1202 H1198 0.929 . S
C1202 C1204 1.378 . S
C1202 C1206 1.350 . S
C1203 C1206 1.463 . S
C1203 C1208 1.350 . S
C1203 N1211 1.427 . S
C1204 H1195 0.930 . S
C1204 C1202 1.378 . S
C1204 C1205 1.367 . S
C1205 C1204 1.367 . S
C1205 C1207 1.433 . S
C1206 C1202 1.350 . S
C1206 C1203 1.463 . S
C1206 N1210 1.427 . S
C1207 H1197 0.929 . S
C1207 C1205 1.433 . S
C1207 N1210 1.384 . S
C1208 H1199 0.929 . S
C1208 C1200 1.378 . S
C1208 C1203 1.350 . S
C1209 H1196 0.929 . S
C1209 C1201 1.433 . S
C1209 N1211 1.384 . S
N1210 C1206 1.427 . S
N1210 C1207 1.384 . S
N1211 C1203 1.427 . S
N1211 C1209 1.384 . S
H1212 C1218 0.930 . S
H1213 C1222 0.930 . S
H1214 C1227 0.929 . S
H1215 C1225 0.929 . S
H1216 C1220 0.929 . S
H1217 C1226 0.929 . S
C1218 H1212 0.930 . S
C1218 C1219 1.367 . S
C1218 C1226 1.378 . S
C1219 C1218 1.367 . S
C1219 C1227 1.433 . S
C1220 H1216 0.929 . S
C1220 C1222 1.378 . S
C1220 C1224 1.350 . S
C1221 C1224 1.463 . S
C1221 C1226 1.350 . S
C1221 N1229 1.427 . S
C1222 H1213 0.930 . S
C1222 C1220 1.378 . S
C1222 C1223 1.367 . S
C1223 C1222 1.367 . S
C1223 C1225 1.433 . S
C1224 C1220 1.350 . S
C1224 C1221 1.463 . S
C1224 N1228 1.427 . S
C1225 H1215 0.929 . S
C1225 C1223 1.433 . S
C1225 N1228 1.384 . S
C1226 H1217 0.929 . S
C1226 C1218 1.378 . S
C1226 C1221 1.350 . S
C1227 H1214 0.929 . S
C1227 C1219 1.433 . S
C1227 N1229 1.384 . S
N1228 C1224 1.427 . S
N1228 C1225 1.384 . S
N1229 C1221 1.427 . S
N1229 C1227 1.384 . S
H1230 C1236 0.930 . S
H1231 C1240 0.930 1_554 S
H1232 C1245 0.929 . S
H1233 C1243 0.929 . S
H1234 C1238 0.929 . S
H1235 C1244 0.929 . S
C1236 H1230 0.930 . S
C1236 C1237 1.367 . S
C1236 C1244 1.378 . S
C1237 C1236 1.367 . S
C1237 C1245 1.433 . S
C1238 H1234 0.929 . S
C1238 C1240 1.378 . S
C1238 C1242 1.350 . S
C1239 C1242 1.463 . S
C1239 C1244 1.350 . S
C1239 N1247 1.427 . S
C1240 H1231 0.930 1_556 S
C1240 C1238 1.378 . S
C1240 C1241 1.367 . S
C1241 C1240 1.367 . S
C1241 C1243 1.433 . S
C1242 C1238 1.350 . S
C1242 C1239 1.463 . S
C1242 N1246 1.427 . S
C1243 H1233 0.929 . S
C1243 C1241 1.433 . S
C1243 N1246 1.384 . S
C1244 H1235 0.929 . S
C1244 C1236 1.378 . S
C1244 C1239 1.350 . S
C1245 H1232 0.929 . S
C1245 C1237 1.433 . S
C1245 N1247 1.384 . S
N1246 C1242 1.427 . S
N1246 C1243 1.384 . S
N1247 C1239 1.427 . S
N1247 C1245 1.384 . S
H1248 C1254 0.930 . S
H1249 C1258 0.930 . S
H1250 C1263 0.929 . S
H1251 C1261 0.929 . S
H1252 C1256 0.929 . S
H1253 C1262 0.929 . S
C1254 H1248 0.930 . S
C1254 C1255 1.367 . S
C1254 C1262 1.378 . S
C1255 C1254 1.367 . S
C1255 C1263 1.433 . S
C1256 H1252 0.929 . S
C1256 C1258 1.378 . S
C1256 C1260 1.350 . S
C1257 C1260 1.463 . S
C1257 C1262 1.350 . S
C1257 N1265 1.427 . S
C1258 H1249 0.930 . S
C1258 C1256 1.378 . S
C1258 C1259 1.367 . S
C1259 C1258 1.367 . S
C1259 C1261 1.433 . S
C1260 C1256 1.350 . S
C1260 C1257 1.463 . S
C1260 N1264 1.427 . S
C1261 H1251 0.929 . S
C1261 C1259 1.433 . S
C1261 N1264 1.384 . S
C1262 H1253 0.929 . S
C1262 C1254 1.378 . S
C1262 C1257 1.350 . S
C1263 H1250 0.929 . S
C1263 C1255 1.433 . S
C1263 N1265 1.384 . S
N1264 C1260 1.427 . S
N1264 C1261 1.384 . S
N1265 C1257 1.427 . S
N1265 C1263 1.384 . S
H1266 C1272 0.930 . S
H1267 C1276 0.930 . S
H1268 C1281 0.929 . S
H1269 C1279 0.929 . S
H1270 C1274 0.929 . S
H1271 C1280 0.929 . S
C1272 H1266 0.930 . S
C1272 C1273 1.367 . S
C1272 C1280 1.378 . S
C1273 C1272 1.367 . S
C1273 C1281 1.433 . S
C1274 H1270 0.929 . S
C1274 C1276 1.378 . S
C1274 C1278 1.350 . S
C1275 C1278 1.463 . S
C1275 C1280 1.350 . S
C1275 N1283 1.427 . S
C1276 H1267 0.930 . S
C1276 C1274 1.378 . S
C1276 C1277 1.367 . S
C1277 C1276 1.367 . S
C1277 C1279 1.433 . S
C1278 C1274 1.350 . S
C1278 C1275 1.463 . S
C1278 N1282 1.427 . S
C1279 H1269 0.929 . S
C1279 C1277 1.433 . S
C1279 N1282 1.384 . S
C1280 H1271 0.929 . S
C1280 C1272 1.378 . S
C1280 C1275 1.350 . S
C1281 H1268 0.929 . S
C1281 C1273 1.433 . S
C1281 N1283 1.384 . S
N1282 C1278 1.427 . S
N1282 C1279 1.384 . S
N1283 C1275 1.427 . S
N1283 C1281 1.384 . S
H1284 C1290 0.930 . S
H1285 C1294 0.930 . S
H1286 C1299 0.929 . S
H1287 C1297 0.929 . S
H1288 C1292 0.929 . S
H1289 C1298 0.929 . S
C1290 H1284 0.930 . S
C1290 C1291 1.367 . S
C1290 C1298 1.378 . S
C1291 C1290 1.367 . S
C1291 C1299 1.433 . S
C1292 H1288 0.929 . S
C1292 C1294 1.378 . S
C1292 C1296 1.350 . S
C1293 C1296 1.463 . S
C1293 C1298 1.350 . S
C1293 N1301 1.427 . S
C1294 H1285 0.930 . S
C1294 C1292 1.378 . S
C1294 C1295 1.367 . S
C1295 C1294 1.367 . S
C1295 C1297 1.433 . S
C1296 C1292 1.350 . S
C1296 C1293 1.463 . S
C1296 N1300 1.427 . S
C1297 H1287 0.929 . S
C1297 C1295 1.433 . S
C1297 N1300 1.384 . S
C1298 H1289 0.929 . S
C1298 C1290 1.378 . S
C1298 C1293 1.350 . S
C1299 H1286 0.929 . S
C1299 C1291 1.433 . S
C1299 N1301 1.384 . S
N1300 C1296 1.427 . S
N1300 C1297 1.384 . S
N1301 C1293 1.427 . S
N1301 C1299 1.384 . S
H1302 C1308 0.930 . S
H1303 C1312 0.930 . S
H1304 C1317 0.929 . S
H1305 C1315 0.929 . S
H1306 C1310 0.929 . S
H1307 C1316 0.929 . S
C1308 H1302 0.930 . S
C1308 C1309 1.367 . S
C1308 C1316 1.378 . S
C1309 C1308 1.367 . S
C1309 C1317 1.433 . S
C1310 H1306 0.929 . S
C1310 C1312 1.378 . S
C1310 C1314 1.350 . S
C1311 C1314 1.463 . S
C1311 C1316 1.350 . S
C1311 N1319 1.427 . S
C1312 H1303 0.930 . S
C1312 C1310 1.378 . S
C1312 C1313 1.367 . S
C1313 C1312 1.367 . S
C1313 C1315 1.433 . S
C1314 C1310 1.350 . S
C1314 C1311 1.463 . S
C1314 N1318 1.427 . S
C1315 H1305 0.929 . S
C1315 C1313 1.433 . S
C1315 N1318 1.384 . S
C1316 H1307 0.929 . S
C1316 C1308 1.378 . S
C1316 C1311 1.350 . S
C1317 H1304 0.929 . S
C1317 C1309 1.433 . S
C1317 N1319 1.384 . S
N1318 C1314 1.427 . S
N1318 C1315 1.384 . S
N1319 C1311 1.427 . S
N1319 C1317 1.384 . S
H1320 C1326 0.930 . S
H1321 C1330 0.930 . S
H1322 C1335 0.929 . S
H1323 C1333 0.929 . S
H1324 C1328 0.929 . S
H1325 C1334 0.929 . S
C1326 H1320 0.930 . S
C1326 C1327 1.367 . S
C1326 C1334 1.378 . S
C1327 C1326 1.367 . S
C1327 C1335 1.433 . S
C1328 H1324 0.929 . S
C1328 C1330 1.378 . S
C1328 C1332 1.350 . S
C1329 C1332 1.463 . S
C1329 C1334 1.350 . S
C1329 N1337 1.427 . S
C1330 H1321 0.930 . S
C1330 C1328 1.378 . S
C1330 C1331 1.367 . S
C1331 C1330 1.367 . S
C1331 C1333 1.433 . S
C1332 C1328 1.350 . S
C1332 C1329 1.463 . S
C1332 N1336 1.427 . S
C1333 H1323 0.929 . S
C1333 C1331 1.433 . S
C1333 N1336 1.384 . S
C1334 H1325 0.929 . S
C1334 C1326 1.378 . S
C1334 C1329 1.350 . S
C1335 H1322 0.929 . S
C1335 C1327 1.433 . S
C1335 N1337 1.384 . S
N1336 C1332 1.427 . S
N1336 C1333 1.384 . S
N1337 C1329 1.427 . S
N1337 C1335 1.384 . S
H1338 C1344 0.930 . S
H1339 C1348 0.930 . S
H1340 C1353 0.929 . S
H1341 C1351 0.929 . S
H1342 C1346 0.929 . S
H1343 C1352 0.929 . S
C1344 H1338 0.930 . S
C1344 C1345 1.367 . S
C1344 C1352 1.378 . S
C1345 C1344 1.367 . S
C1345 C1353 1.433 . S
C1346 H1342 0.929 . S
C1346 C1348 1.378 . S
C1346 C1350 1.350 . S
C1347 C1350 1.463 . S
C1347 C1352 1.350 . S
C1347 N1355 1.427 . S
C1348 H1339 0.930 . S
C1348 C1346 1.378 . S
C1348 C1349 1.367 . S
C1349 C1348 1.367 . S
C1349 C1351 1.433 . S
C1350 C1346 1.350 . S
C1350 C1347 1.463 . S
C1350 N1354 1.427 . S
C1351 H1341 0.929 . S
C1351 C1349 1.433 . S
C1351 N1354 1.384 . S
C1352 H1343 0.929 . S
C1352 C1344 1.378 . S
C1352 C1347 1.350 . S
C1353 H1340 0.929 . S
C1353 C1345 1.433 . S
C1353 N1355 1.384 . S
N1354 C1350 1.427 . S
N1354 C1351 1.384 . S
N1355 C1347 1.427 . S
N1355 C1353 1.384 . S
H1356 C1362 0.930 . S
H1357 C1366 0.930 . S
H1358 C1371 0.929 . S
H1359 C1369 0.929 1_554 S
H1360 C1364 0.929 . S
H1361 C1370 0.929 . S
C1362 H1356 0.930 . S
C1362 C1363 1.367 . S
C1362 C1370 1.378 . S
C1363 C1362 1.367 . S
C1363 C1371 1.433 . S
C1364 H1360 0.929 . S
C1364 C1366 1.378 . S
C1364 C1368 1.350 . S
C1365 C1368 1.463 . S
C1365 C1370 1.350 . S
C1365 N1373 1.427 . S
C1366 H1357 0.930 . S
C1366 C1364 1.378 . S
C1366 C1367 1.367 . S
C1367 C1366 1.367 . S
C1367 C1369 1.433 . S
C1368 C1364 1.350 . S
C1368 C1365 1.463 . S
C1368 N1372 1.427 . S
C1369 H1359 0.929 1_556 S
C1369 C1367 1.433 . S
C1369 N1372 1.384 . S
C1370 H1361 0.929 . S
C1370 C1362 1.378 . S
C1370 C1365 1.350 . S
C1371 H1358 0.929 . S
C1371 C1363 1.433 . S
C1371 N1373 1.384 . S
N1372 C1368 1.427 . S
N1372 C1369 1.384 . S
N1373 C1365 1.427 . S
N1373 C1371 1.384 . S
H1374 C1380 0.930 . S
H1375 C1384 0.930 . S
H1376 C1389 0.929 . S
H1377 C1387 0.929 . S
H1378 C1382 0.929 . S
H1379 C1388 0.929 . S
C1380 H1374 0.930 . S
C1380 C1381 1.367 . S
C1380 C1388 1.378 . S
C1381 C1380 1.367 . S
C1381 C1389 1.433 . S
C1382 H1378 0.929 . S
C1382 C1384 1.378 . S
C1382 C1386 1.350 . S
C1383 C1386 1.463 . S
C1383 C1388 1.350 . S
C1383 N1391 1.427 . S
C1384 H1375 0.930 . S
C1384 C1382 1.378 . S
C1384 C1385 1.367 . S
C1385 C1384 1.367 . S
C1385 C1387 1.433 . S
C1386 C1382 1.350 . S
C1386 C1383 1.463 . S
C1386 N1390 1.427 . S
C1387 H1377 0.929 . S
C1387 C1385 1.433 . S
C1387 N1390 1.384 . S
C1388 H1379 0.929 . S
C1388 C1380 1.378 . S
C1388 C1383 1.350 . S
C1389 H1376 0.929 . S
C1389 C1381 1.433 . S
C1389 N1391 1.384 . S
N1390 C1386 1.427 . S
N1390 C1387 1.384 . S
N1391 C1383 1.427 . S
N1391 C1389 1.384 . S
H1392 C1398 0.930 . S
H1393 C1402 0.930 . S
H1394 C1407 0.929 . S
H1395 C1405 0.929 . S
H1396 C1400 0.929 . S
H1397 C1406 0.929 . S
C1398 H1392 0.930 . S
C1398 C1399 1.367 . S
C1398 C1406 1.378 . S
C1399 C1398 1.367 . S
C1399 C1407 1.433 . S
C1400 H1396 0.929 . S
C1400 C1402 1.378 . S
C1400 C1404 1.350 . S
C1401 C1404 1.463 . S
C1401 C1406 1.350 . S
C1401 N1409 1.427 . S
C1402 H1393 0.930 . S
C1402 C1400 1.378 . S
C1402 C1403 1.367 . S
C1403 C1402 1.367 . S
C1403 C1405 1.433 . S
C1404 C1400 1.350 . S
C1404 C1401 1.463 . S
C1404 N1408 1.427 . S
C1405 H1395 0.929 . S
C1405 C1403 1.433 . S
C1405 N1408 1.384 . S
C1406 H1397 0.929 . S
C1406 C1398 1.378 . S
C1406 C1401 1.350 . S
C1407 H1394 0.929 . S
C1407 C1399 1.433 . S
C1407 N1409 1.384 . S
N1408 C1404 1.427 . S
N1408 C1405 1.384 . S
N1409 C1401 1.427 . S
N1409 C1407 1.384 . S
H1410 C1416 0.930 . S
H1411 C1420 0.930 . S
H1412 C1425 0.929 . S
H1413 C1423 0.929 . S
H1414 C1418 0.929 . S
H1415 C1424 0.929 . S
C1416 H1410 0.930 . S
C1416 C1417 1.367 . S
C1416 C1424 1.378 . S
C1417 C1416 1.367 . S
C1417 C1425 1.433 . S
C1418 H1414 0.929 . S
C1418 C1420 1.378 . S
C1418 C1422 1.350 . S
C1419 C1422 1.463 . S
C1419 C1424 1.350 . S
C1419 N1427 1.427 . S
C1420 H1411 0.930 . S
C1420 C1418 1.378 . S
C1420 C1421 1.367 . S
C1421 C1420 1.367 . S
C1421 C1423 1.433 . S
C1422 C1418 1.350 . S
C1422 C1419 1.463 . S
C1422 N1426 1.427 . S
C1423 H1413 0.929 . S
C1423 C1421 1.433 . S
C1423 N1426 1.384 . S
C1424 H1415 0.929 . S
C1424 C1416 1.378 . S
C1424 C1419 1.350 . S
C1425 H1412 0.929 . S
C1425 C1417 1.433 . S
C1425 N1427 1.384 . S
N1426 C1422 1.427 . S
N1426 C1423 1.384 . S
N1427 C1419 1.427 . S
N1427 C1425 1.384 . S
H1428 C1434 0.930 . S
H1429 C1438 0.930 . S
H1430 C1443 0.929 . S
H1431 C1441 0.929 . S
H1432 C1436 0.929 . S
H1433 C1442 0.929 . S
C1434 H1428 0.930 . S
C1434 C1435 1.367 . S
C1434 C1442 1.378 . S
C1435 C1434 1.367 . S
C1435 C1443 1.433 . S
C1436 H1432 0.929 . S
C1436 C1438 1.378 . S
C1436 C1440 1.350 . S
C1437 C1440 1.463 . S
C1437 C1442 1.350 . S
C1437 N1445 1.427 . S
C1438 H1429 0.930 . S
C1438 C1436 1.378 . S
C1438 C1439 1.367 . S
C1439 C1438 1.367 . S
C1439 C1441 1.433 . S
C1440 C1436 1.350 . S
C1440 C1437 1.463 . S
C1440 N1444 1.427 . S
C1441 H1431 0.929 . S
C1441 C1439 1.433 . S
C1441 N1444 1.384 . S
C1442 H1433 0.929 . S
C1442 C1434 1.378 . S
C1442 C1437 1.350 . S
C1443 H1430 0.929 . S
C1443 C1435 1.433 . S
C1443 N1445 1.384 . S
N1444 C1440 1.427 . S
N1444 C1441 1.384 . S
N1445 C1437 1.427 . S
N1445 C1443 1.384 . S
H1446 C1452 0.930 . S
H1447 C1456 0.930 1_554 S
H1448 C1461 0.929 . S
H1449 C1459 0.929 . S
H1450 C1454 0.929 . S
H1451 C1460 0.929 . S
C1452 H1446 0.930 . S
C1452 C1453 1.367 . S
C1452 C1460 1.378 . S
C1453 C1452 1.367 . S
C1453 C1461 1.433 . S
C1454 H1450 0.929 . S
C1454 C1456 1.378 . S
C1454 C1458 1.350 . S
C1455 C1458 1.463 . S
C1455 C1460 1.350 . S
C1455 N1463 1.427 . S
C1456 H1447 0.930 1_556 S
C1456 C1454 1.378 . S
C1456 C1457 1.367 . S
C1457 C1456 1.367 . S
C1457 C1459 1.433 . S
C1458 C1454 1.350 . S
C1458 C1455 1.463 . S
C1458 N1462 1.427 . S
C1459 H1449 0.929 . S
C1459 C1457 1.433 . S
C1459 N1462 1.384 . S
C1460 H1451 0.929 . S
C1460 C1452 1.378 . S
C1460 C1455 1.350 . S
C1461 H1448 0.929 . S
C1461 C1453 1.433 . S
C1461 N1463 1.384 . S
N1462 C1458 1.427 . S
N1462 C1459 1.384 . S
N1463 C1455 1.427 . S
N1463 C1461 1.384 . S
H1464 C1470 0.930 . S
H1465 C1474 0.930 . S
H1466 C1479 0.929 . S
H1467 C1477 0.929 . S
H1468 C1472 0.929 . S
H1469 C1478 0.929 . S
C1470 H1464 0.930 . S
C1470 C1471 1.367 . S
C1470 C1478 1.378 . S
C1471 C1470 1.367 . S
C1471 C1479 1.433 . S
C1472 H1468 0.929 . S
C1472 C1474 1.378 . S
C1472 C1476 1.350 . S
C1473 C1476 1.463 . S
C1473 C1478 1.350 . S
C1473 N1481 1.427 . S
C1474 H1465 0.930 . S
C1474 C1472 1.378 . S
C1474 C1475 1.367 . S
C1475 C1474 1.367 . S
C1475 C1477 1.433 . S
C1476 C1472 1.350 . S
C1476 C1473 1.463 . S
C1476 N1480 1.427 . S
C1477 H1467 0.929 . S
C1477 C1475 1.433 . S
C1477 N1480 1.384 . S
C1478 H1469 0.929 . S
C1478 C1470 1.378 . S
C1478 C1473 1.350 . S
C1479 H1466 0.929 . S
C1479 C1471 1.433 . S
C1479 N1481 1.384 . S
N1480 C1476 1.427 . S
N1480 C1477 1.384 . S
N1481 C1473 1.427 . S
N1481 C1479 1.384 . S
H1482 C1488 0.930 . S
H1483 C1492 0.930 . S
H1484 C1497 0.929 . S
H1485 C1495 0.929 1_554 S
H1486 C1490 0.929 . S
H1487 C1496 0.929 . S
C1488 H1482 0.930 . S
C1488 C1489 1.367 . S
C1488 C1496 1.378 . S
C1489 C1488 1.367 . S
C1489 C1497 1.433 . S
C1490 H1486 0.929 . S
C1490 C1492 1.378 . S
C1490 C1494 1.350 . S
C1491 C1494 1.463 . S
C1491 C1496 1.350 . S
C1491 N1499 1.427 . S
C1492 H1483 0.930 . S
C1492 C1490 1.378 . S
C1492 C1493 1.367 . S
C1493 C1492 1.367 . S
C1493 C1495 1.433 . S
C1494 C1490 1.350 . S
C1494 C1491 1.463 . S
C1494 N1498 1.427 . S
C1495 H1485 0.929 1_556 S
C1495 C1493 1.433 . S
C1495 N1498 1.384 . S
C1496 H1487 0.929 . S
C1496 C1488 1.378 . S
C1496 C1491 1.350 . S
C1497 H1484 0.929 . S
C1497 C1489 1.433 . S
C1497 N1499 1.384 . S
N1498 C1494 1.427 . S
N1498 C1495 1.384 . S
N1499 C1491 1.427 . S
N1499 C1497 1.384 . S
H1500 C1506 0.930 . S
H1501 C1510 0.930 . S
H1502 C1515 0.929 . S
H1503 C1513 0.929 . S
H1504 C1508 0.929 . S
H1505 C1514 0.929 . S
C1506 H1500 0.930 . S
C1506 C1507 1.367 . S
C1506 C1514 1.378 . S
C1507 C1506 1.367 . S
C1507 C1515 1.433 . S
C1508 H1504 0.929 . S
C1508 C1510 1.378 . S
C1508 C1512 1.350 . S
C1509 C1512 1.463 . S
C1509 C1514 1.350 . S
C1509 N1517 1.427 . S
C1510 H1501 0.930 . S
C1510 C1508 1.378 . S
C1510 C1511 1.367 . S
C1511 C1510 1.367 . S
C1511 C1513 1.433 . S
C1512 C1508 1.350 . S
C1512 C1509 1.463 . S
C1512 N1516 1.427 . S
C1513 H1503 0.929 . S
C1513 C1511 1.433 . S
C1513 N1516 1.384 . S
C1514 H1505 0.929 . S
C1514 C1506 1.378 . S
C1514 C1509 1.350 . S
C1515 H1502 0.929 . S
C1515 C1507 1.433 . S
C1515 N1517 1.384 . S
N1516 C1512 1.427 . S
N1516 C1513 1.384 . S
N1517 C1509 1.427 . S
N1517 C1515 1.384 . S
H1518 C1524 0.930 . S
H1519 C1528 0.930 . S
H1520 C1533 0.929 . S
H1521 C1531 0.929 . S
H1522 C1526 0.929 . S
H1523 C1532 0.929 . S
C1524 H1518 0.930 . S
C1524 C1525 1.367 . S
C1524 C1532 1.378 . S
C1525 C1524 1.367 . S
C1525 C1533 1.433 . S
C1526 H1522 0.929 . S
C1526 C1528 1.378 . S
C1526 C1530 1.350 . S
C1527 C1530 1.463 . S
C1527 C1532 1.350 . S
C1527 N1535 1.427 . S
C1528 H1519 0.930 . S
C1528 C1526 1.378 . S
C1528 C1529 1.367 . S
C1529 C1528 1.367 . S
C1529 C1531 1.433 . S
C1530 C1526 1.350 . S
C1530 C1527 1.463 . S
C1530 N1534 1.427 . S
C1531 H1521 0.929 . S
C1531 C1529 1.433 . S
C1531 N1534 1.384 . S
C1532 H1523 0.929 . S
C1532 C1524 1.378 . S
C1532 C1527 1.350 . S
C1533 H1520 0.929 . S
C1533 C1525 1.433 . S
C1533 N1535 1.384 . S
N1534 C1530 1.427 . S
N1534 C1531 1.384 . S
N1535 C1527 1.427 . S
N1535 C1533 1.384 . S
H1536 C1542 0.930 . S
H1537 C1546 0.930 . S
H1538 C1551 0.929 . S
H1539 C1549 0.929 1_556 S
H1540 C1544 0.929 . S
H1541 C1550 0.929 . S
C1542 H1536 0.930 . S
C1542 C1543 1.367 . S
C1542 C1550 1.378 . S
C1543 C1542 1.367 . S
C1543 C1551 1.433 . S
C1544 H1540 0.929 . S
C1544 C1546 1.378 . S
C1544 C1548 1.350 . S
C1545 C1548 1.463 . S
C1545 C1550 1.350 . S
C1545 N1553 1.427 . S
C1546 H1537 0.930 . S
C1546 C1544 1.378 . S
C1546 C1547 1.367 . S
C1547 C1546 1.367 . S
C1547 C1549 1.433 . S
C1548 C1544 1.350 . S
C1548 C1545 1.463 . S
C1548 N1552 1.427 . S
C1549 H1539 0.929 1_554 S
C1549 C1547 1.433 . S
C1549 N1552 1.384 . S
C1550 H1541 0.929 . S
C1550 C1542 1.378 . S
C1550 C1545 1.350 . S
C1551 H1538 0.929 . S
C1551 C1543 1.433 . S
C1551 N1553 1.384 . S
N1552 C1548 1.427 . S
N1552 C1549 1.384 . S
N1553 C1545 1.427 . S
N1553 C1551 1.384 . S
H1554 C1560 0.930 . S
H1555 C1564 0.930 . S
H1556 C1569 0.929 . S
H1557 C1567 0.929 . S
H1558 C1562 0.929 . S
H1559 C1568 0.929 . S
C1560 H1554 0.930 . S
C1560 C1561 1.367 . S
C1560 C1568 1.378 . S
C1561 C1560 1.367 . S
C1561 C1569 1.433 . S
C1562 H1558 0.929 . S
C1562 C1564 1.378 . S
C1562 C1566 1.350 . S
C1563 C1566 1.463 . S
C1563 C1568 1.350 . S
C1563 N1571 1.427 . S
C1564 H1555 0.930 . S
C1564 C1562 1.378 . S
C1564 C1565 1.367 . S
C1565 C1564 1.367 . S
C1565 C1567 1.433 . S
C1566 C1562 1.350 . S
C1566 C1563 1.463 . S
C1566 N1570 1.427 . S
C1567 H1557 0.929 . S
C1567 C1565 1.433 . S
C1567 N1570 1.384 . S
C1568 H1559 0.929 . S
C1568 C1560 1.378 . S
C1568 C1563 1.350 . S
C1569 H1556 0.929 . S
C1569 C1561 1.433 . S
C1569 N1571 1.384 . S
N1570 C1566 1.427 . S
N1570 C1567 1.384 . S
N1571 C1563 1.427 . S
N1571 C1569 1.384 . S
H1572 C1578 0.930 . S
H1573 C1582 0.930 . S
H1574 C1587 0.929 . S
H1575 C1585 0.929 . S
H1576 C1580 0.929 . S
H1577 C1586 0.929 . S
C1578 H1572 0.930 . S
C1578 C1579 1.367 . S
C1578 C1586 1.378 . S
C1579 C1578 1.367 . S
C1579 C1587 1.433 . S
C1580 H1576 0.929 . S
C1580 C1582 1.378 . S
C1580 C1584 1.350 . S
C1581 C1584 1.463 . S
C1581 C1586 1.350 . S
C1581 N1589 1.427 . S
C1582 H1573 0.930 . S
C1582 C1580 1.378 . S
C1582 C1583 1.367 . S
C1583 C1582 1.367 . S
C1583 C1585 1.433 . S
C1584 C1580 1.350 . S
C1584 C1581 1.463 . S
C1584 N1588 1.427 . S
C1585 H1575 0.929 . S
C1585 C1583 1.433 . S
C1585 N1588 1.384 . S
C1586 H1577 0.929 . S
C1586 C1578 1.378 . S
C1586 C1581 1.350 . S
C1587 H1574 0.929 . S
C1587 C1579 1.433 . S
C1587 N1589 1.384 . S
N1588 C1584 1.427 . S
N1588 C1585 1.384 . S
N1589 C1581 1.427 . S
N1589 C1587 1.384 . S
H1590 C1596 0.930 . S
H1591 C1600 0.930 . S
H1592 C1605 0.929 . S
H1593 C1603 0.929 . S
H1594 C1598 0.929 . S
H1595 C1604 0.929 . S
C1596 H1590 0.930 . S
C1596 C1597 1.367 . S
C1596 C1604 1.378 . S
C1597 C1596 1.367 . S
C1597 C1605 1.433 . S
C1598 H1594 0.929 . S
C1598 C1600 1.378 . S
C1598 C1602 1.350 . S
C1599 C1602 1.463 . S
C1599 C1604 1.350 . S
C1599 N1607 1.427 . S
C1600 H1591 0.930 . S
C1600 C1598 1.378 . S
C1600 C1601 1.367 . S
C1601 C1600 1.367 . S
C1601 C1603 1.433 . S
C1602 C1598 1.350 . S
C1602 C1599 1.463 . S
C1602 N1606 1.427 . S
C1603 H1593 0.929 . S
C1603 C1601 1.433 . S
C1603 N1606 1.384 . S
C1604 H1595 0.929 . S
C1604 C1596 1.378 . S
C1604 C1599 1.350 . S
C1605 H1592 0.929 . S
C1605 C1597 1.433 . S
C1605 N1607 1.384 . S
N1606 C1602 1.427 . S
N1606 C1603 1.384 . S
N1607 C1599 1.427 . S
N1607 C1605 1.384 . S
H1608 C1614 0.930 . S
H1609 C1618 0.930 . S
H1610 C1623 0.929 . S
H1611 C1621 0.929 . S
H1612 C1616 0.929 . S
H1613 C1622 0.929 . S
C1614 H1608 0.930 . S
C1614 C1615 1.367 . S
C1614 C1622 1.378 . S
C1615 C1614 1.367 . S
C1615 C1623 1.433 . S
C1616 H1612 0.929 . S
C1616 C1618 1.378 . S
C1616 C1620 1.350 . S
C1617 C1620 1.463 . S
C1617 C1622 1.350 . S
C1617 N1625 1.427 . S
C1618 H1609 0.930 . S
C1618 C1616 1.378 . S
C1618 C1619 1.367 . S
C1619 C1618 1.367 . S
C1619 C1621 1.433 . S
C1620 C1616 1.350 . S
C1620 C1617 1.463 . S
C1620 N1624 1.427 . S
C1621 H1611 0.929 . S
C1621 C1619 1.433 . S
C1621 N1624 1.384 . S
C1622 H1613 0.929 . S
C1622 C1614 1.378 . S
C1622 C1617 1.350 . S
C1623 H1610 0.929 . S
C1623 C1615 1.433 . S
C1623 N1625 1.384 . S
N1624 C1620 1.427 . S
N1624 C1621 1.384 . S
N1625 C1617 1.427 . S
N1625 C1623 1.384 . S
H1626 C1632 0.930 . S
H1627 C1636 0.930 . S
H1628 C1641 0.929 . S
H1629 C1639 0.929 . S
H1630 C1634 0.929 . S
H1631 C1640 0.929 . S
C1632 H1626 0.930 . S
C1632 C1633 1.367 . S
C1632 C1640 1.378 . S
C1633 C1632 1.367 . S
C1633 C1641 1.433 . S
C1634 H1630 0.929 . S
C1634 C1636 1.378 . S
C1634 C1638 1.350 . S
C1635 C1638 1.463 . S
C1635 C1640 1.350 . S
C1635 N1643 1.427 . S
C1636 H1627 0.930 . S
C1636 C1634 1.378 . S
C1636 C1637 1.367 . S
C1637 C1636 1.367 . S
C1637 C1639 1.433 . S
C1638 C1634 1.350 . S
C1638 C1635 1.463 . S
C1638 N1642 1.427 . S
C1639 H1629 0.929 . S
C1639 C1637 1.433 . S
C1639 N1642 1.384 . S
C1640 H1631 0.929 . S
C1640 C1632 1.378 . S
C1640 C1635 1.350 . S
C1641 H1628 0.929 . S
C1641 C1633 1.433 . S
C1641 N1643 1.384 . S
N1642 C1638 1.427 . S
N1642 C1639 1.384 . S
N1643 C1635 1.427 . S
N1643 C1641 1.384 . S
H1644 C1650 0.930 . S
H1645 C1654 0.930 . S
H1646 C1659 0.929 . S
H1647 C1657 0.929 . S
H1648 C1652 0.929 . S
H1649 C1658 0.929 . S
C1650 H1644 0.930 . S
C1650 C1651 1.367 . S
C1650 C1658 1.378 . S
C1651 C1650 1.367 . S
C1651 C1659 1.433 . S
C1652 H1648 0.929 . S
C1652 C1654 1.378 . S
C1652 C1656 1.350 . S
C1653 C1656 1.463 . S
C1653 C1658 1.350 . S
C1653 N1661 1.427 . S
C1654 H1645 0.930 . S
C1654 C1652 1.378 . S
C1654 C1655 1.367 . S
C1655 C1654 1.367 . S
C1655 C1657 1.433 . S
C1656 C1652 1.350 . S
C1656 C1653 1.463 . S
C1656 N1660 1.427 . S
C1657 H1647 0.929 . S
C1657 C1655 1.433 . S
C1657 N1660 1.384 . S
C1658 H1649 0.929 . S
C1658 C1650 1.378 . S
C1658 C1653 1.350 . S
C1659 H1646 0.929 . S
C1659 C1651 1.433 . S
C1659 N1661 1.384 . S
N1660 C1656 1.427 . S
N1660 C1657 1.384 . S
N1661 C1653 1.427 . S
N1661 C1659 1.384 . S
H1662 C1668 0.930 . S
H1663 C1672 0.930 . S
H1664 C1677 0.929 . S
H1665 C1675 0.929 . S
H1666 C1670 0.929 . S
H1667 C1676 0.929 . S
C1668 H1662 0.930 . S
C1668 C1669 1.367 . S
C1668 C1676 1.378 . S
C1669 C1668 1.367 . S
C1669 C1677 1.433 . S
C1670 H1666 0.929 . S
C1670 C1672 1.378 . S
C1670 C1674 1.350 . S
C1671 C1674 1.463 . S
C1671 C1676 1.350 . S
C1671 N1679 1.427 . S
C1672 H1663 0.930 . S
C1672 C1670 1.378 . S
C1672 C1673 1.367 . S
C1673 C1672 1.367 . S
C1673 C1675 1.433 . S
C1674 C1670 1.350 . S
C1674 C1671 1.463 . S
C1674 N1678 1.427 . S
C1675 H1665 0.929 . S
C1675 C1673 1.433 . S
C1675 N1678 1.384 . S
C1676 H1667 0.929 . S
C1676 C1668 1.378 . S
C1676 C1671 1.350 . S
C1677 H1664 0.929 . S
C1677 C1669 1.433 . S
C1677 N1679 1.384 . S
N1678 C1674 1.427 . S
N1678 C1675 1.384 . S
N1679 C1671 1.427 . S
N1679 C1677 1.384 . S
H1680 C1686 0.930 . S
H1681 C1690 0.930 . S
H1682 C1695 0.929 . S
H1683 C1693 0.929 . S
H1684 C1688 0.929 . S
H1685 C1694 0.929 . S
C1686 H1680 0.930 . S
C1686 C1687 1.367 . S
C1686 C1694 1.378 . S
C1687 C1686 1.367 . S
C1687 C1695 1.433 . S
C1688 H1684 0.929 . S
C1688 C1690 1.378 . S
C1688 C1692 1.350 . S
C1689 C1692 1.463 . S
C1689 C1694 1.350 . S
C1689 N1697 1.427 . S
C1690 H1681 0.930 . S
C1690 C1688 1.378 . S
C1690 C1691 1.367 . S
C1691 C1690 1.367 . S
C1691 C1693 1.433 . S
C1692 C1688 1.350 . S
C1692 C1689 1.463 . S
C1692 N1696 1.427 . S
C1693 H1683 0.929 . S
C1693 C1691 1.433 . S
C1693 N1696 1.384 . S
C1694 H1685 0.929 . S
C1694 C1686 1.378 . S
C1694 C1689 1.350 . S
C1695 H1682 0.929 . S
C1695 C1687 1.433 . S
C1695 N1697 1.384 . S
N1696 C1692 1.427 . S
N1696 C1693 1.384 . S
N1697 C1689 1.427 . S
N1697 C1695 1.384 . S
H1698 C1704 0.930 . S
H1699 C1708 0.930 . S
H1700 C1713 0.929 . S
H1701 C1711 0.929 . S
H1702 C1706 0.929 . S
H1703 C1712 0.929 . S
C1704 H1698 0.930 . S
C1704 C1705 1.367 . S
C1704 C1712 1.378 . S
C1705 C1704 1.367 . S
C1705 C1713 1.433 . S
C1706 H1702 0.929 . S
C1706 C1708 1.378 . S
C1706 C1710 1.350 . S
C1707 C1710 1.463 . S
C1707 C1712 1.350 . S
C1707 N1715 1.427 . S
C1708 H1699 0.930 . S
C1708 C1706 1.378 . S
C1708 C1709 1.367 . S
C1709 C1708 1.367 . S
C1709 C1711 1.433 . S
C1710 C1706 1.350 . S
C1710 C1707 1.463 . S
C1710 N1714 1.427 . S
C1711 H1701 0.929 . S
C1711 C1709 1.433 . S
C1711 N1714 1.384 . S
C1712 H1703 0.929 . S
C1712 C1704 1.378 . S
C1712 C1707 1.350 . S
C1713 H1700 0.929 . S
C1713 C1705 1.433 . S
C1713 N1715 1.384 . S
N1714 C1710 1.427 . S
N1714 C1711 1.384 . S
N1715 C1707 1.427 . S
N1715 C1713 1.384 . S
H1716 C1722 0.930 . S
H1717 C1726 0.930 . S
H1718 C1731 0.929 . S
H1719 C1729 0.929 . S
H1720 C1724 0.929 . S
H1721 C1730 0.929 . S
C1722 H1716 0.930 . S
C1722 C1723 1.367 . S
C1722 C1730 1.378 . S
C1723 C1722 1.367 . S
C1723 C1731 1.433 . S
C1724 H1720 0.929 . S
C1724 C1726 1.378 . S
C1724 C1728 1.350 . S
C1725 C1728 1.463 . S
C1725 C1730 1.350 . S
C1725 N1733 1.427 . S
C1726 H1717 0.930 . S
C1726 C1724 1.378 . S
C1726 C1727 1.367 . S
C1727 C1726 1.367 . S
C1727 C1729 1.433 . S
C1728 C1724 1.350 . S
C1728 C1725 1.463 . S
C1728 N1732 1.427 . S
C1729 H1719 0.929 . S
C1729 C1727 1.433 . S
C1729 N1732 1.384 . S
C1730 H1721 0.929 . S
C1730 C1722 1.378 . S
C1730 C1725 1.350 . S
C1731 H1718 0.929 . S
C1731 C1723 1.433 . S
C1731 N1733 1.384 . S
N1732 C1728 1.427 . S
N1732 C1729 1.384 . S
N1733 C1725 1.427 . S
N1733 C1731 1.384 . S
H1734 C1740 0.930 . S
H1735 C1744 0.930 . S
H1736 C1749 0.929 . S
H1737 C1747 0.929 . S
H1738 C1742 0.929 . S
H1739 C1748 0.929 . S
C1740 H1734 0.930 . S
C1740 C1741 1.367 . S
C1740 C1748 1.378 . S
C1741 C1740 1.367 . S
C1741 C1749 1.433 . S
C1742 H1738 0.929 . S
C1742 C1744 1.378 . S
C1742 C1746 1.350 . S
C1743 C1746 1.463 . S
C1743 C1748 1.350 . S
C1743 N1751 1.427 . S
C1744 H1735 0.930 . S
C1744 C1742 1.378 . S
C1744 C1745 1.367 . S
C1745 C1744 1.367 . S
C1745 C1747 1.433 . S
C1746 C1742 1.350 . S
C1746 C1743 1.463 . S
C1746 N1750 1.427 . S
C1747 H1737 0.929 . S
C1747 C1745 1.433 . S
C1747 N1750 1.384 . S
C1748 H1739 0.929 . S
C1748 C1740 1.378 . S
C1748 C1743 1.350 . S
C1749 H1736 0.929 . S
C1749 C1741 1.433 . S
C1749 N1751 1.384 . S
N1750 C1746 1.427 . S
N1750 C1747 1.384 . S
N1751 C1743 1.427 . S
N1751 C1749 1.384 . S
H1752 C1758 0.930 . S
H1753 C1762 0.930 . S
H1754 C1767 0.929 . S
H1755 C1765 0.929 . S
H1756 C1760 0.929 . S
H1757 C1766 0.929 . S
C1758 H1752 0.930 . S
C1758 C1759 1.367 . S
C1758 C1766 1.378 . S
C1759 C1758 1.367 . S
C1759 C1767 1.433 . S
C1760 H1756 0.929 . S
C1760 C1762 1.378 . S
C1760 C1764 1.350 . S
C1761 C1764 1.463 . S
C1761 C1766 1.350 . S
C1761 N1769 1.427 . S
C1762 H1753 0.930 . S
C1762 C1760 1.378 . S
C1762 C1763 1.367 . S
C1763 C1762 1.367 . S
C1763 C1765 1.433 . S
C1764 C1760 1.350 . S
C1764 C1761 1.463 . S
C1764 N1768 1.427 . S
C1765 H1755 0.929 . S
C1765 C1763 1.433 . S
C1765 N1768 1.384 . S
C1766 H1757 0.929 . S
C1766 C1758 1.378 . S
C1766 C1761 1.350 . S
C1767 H1754 0.929 . S
C1767 C1759 1.433 . S
C1767 N1769 1.384 . S
N1768 C1764 1.427 . S
N1768 C1765 1.384 . S
N1769 C1761 1.427 . S
N1769 C1767 1.384 . S
H1770 C1776 0.930 . S
H1771 C1780 0.930 . S
H1772 C1785 0.929 . S
H1773 C1783 0.929 . S
H1774 C1778 0.929 . S
H1775 C1784 0.929 . S
C1776 H1770 0.930 . S
C1776 C1777 1.367 . S
C1776 C1784 1.378 . S
C1777 C1776 1.367 . S
C1777 C1785 1.433 . S
C1778 H1774 0.929 . S
C1778 C1780 1.378 . S
C1778 C1782 1.350 . S
C1779 C1782 1.463 . S
C1779 C1784 1.350 . S
C1779 N1787 1.427 . S
C1780 H1771 0.930 . S
C1780 C1778 1.378 . S
C1780 C1781 1.367 . S
C1781 C1780 1.367 . S
C1781 C1783 1.433 . S
C1782 C1778 1.350 . S
C1782 C1779 1.463 . S
C1782 N1786 1.427 . S
C1783 H1773 0.929 . S
C1783 C1781 1.433 . S
C1783 N1786 1.384 . S
C1784 H1775 0.929 . S
C1784 C1776 1.378 . S
C1784 C1779 1.350 . S
C1785 H1772 0.929 . S
C1785 C1777 1.433 . S
C1785 N1787 1.384 . S
N1786 C1782 1.427 . S
N1786 C1783 1.384 . S
N1787 C1779 1.427 . S
N1787 C1785 1.384 . S
H1788 C1794 0.930 . S
H1789 C1798 0.930 . S
H1790 C1803 0.929 . S
H1791 C1801 0.929 . S
H1792 C1796 0.929 . S
H1793 C1802 0.929 . S
C1794 H1788 0.930 . S
C1794 C1795 1.367 . S
C1794 C1802 1.378 . S
C1795 C1794 1.367 . S
C1795 C1803 1.433 . S
C1796 H1792 0.929 . S
C1796 C1798 1.378 . S
C1796 C1800 1.350 . S
C1797 C1800 1.463 . S
C1797 C1802 1.350 . S
C1797 N1805 1.427 . S
C1798 H1789 0.930 . S
C1798 C1796 1.378 . S
C1798 C1799 1.367 . S
C1799 C1798 1.367 . S
C1799 C1801 1.433 . S
C1800 C1796 1.350 . S
C1800 C1797 1.463 . S
C1800 N1804 1.427 . S
C1801 H1791 0.929 . S
C1801 C1799 1.433 . S
C1801 N1804 1.384 . S
C1802 H1793 0.929 . S
C1802 C1794 1.378 . S
C1802 C1797 1.350 . S
C1803 H1790 0.929 . S
C1803 C1795 1.433 . S
C1803 N1805 1.384 . S
N1804 C1800 1.427 . S
N1804 C1801 1.384 . S
N1805 C1797 1.427 . S
N1805 C1803 1.384 . S
H1806 C1812 0.930 . S
H1807 C1816 0.930 . S
H1808 C1821 0.929 . S
H1809 C1819 0.929 . S
H1810 C1814 0.929 . S
H1811 C1820 0.929 . S
C1812 H1806 0.930 . S
C1812 C1813 1.367 . S
C1812 C1820 1.378 . S
C1813 C1812 1.367 . S
C1813 C1821 1.433 . S
C1814 H1810 0.929 . S
C1814 C1816 1.378 . S
C1814 C1818 1.350 . S
C1815 C1818 1.463 . S
C1815 C1820 1.350 . S
C1815 N1823 1.427 . S
C1816 H1807 0.930 . S
C1816 C1814 1.378 . S
C1816 C1817 1.367 . S
C1817 C1816 1.367 . S
C1817 C1819 1.433 . S
C1818 C1814 1.350 . S
C1818 C1815 1.463 . S
C1818 N1822 1.427 . S
C1819 H1809 0.929 . S
C1819 C1817 1.433 . S
C1819 N1822 1.384 . S
C1820 H1811 0.929 . S
C1820 C1812 1.378 . S
C1820 C1815 1.350 . S
C1821 H1808 0.929 . S
C1821 C1813 1.433 . S
C1821 N1823 1.384 . S
N1822 C1818 1.427 . S
N1822 C1819 1.384 . S
N1823 C1815 1.427 . S
N1823 C1821 1.384 . S
H1824 C1830 0.930 . S
H1825 C1834 0.930 . S
H1826 C1839 0.929 . S
H1827 C1837 0.929 . S
H1828 C1832 0.929 . S
H1829 C1838 0.929 . S
C1830 H1824 0.930 . S
C1830 C1831 1.367 . S
C1830 C1838 1.378 . S
C1831 C1830 1.367 . S
C1831 C1839 1.433 . S
C1832 H1828 0.929 . S
C1832 C1834 1.378 . S
C1832 C1836 1.350 . S
C1833 C1836 1.463 . S
C1833 C1838 1.350 . S
C1833 N1841 1.427 . S
C1834 H1825 0.930 . S
C1834 C1832 1.378 . S
C1834 C1835 1.367 . S
C1835 C1834 1.367 . S
C1835 C1837 1.433 . S
C1836 C1832 1.350 . S
C1836 C1833 1.463 . S
C1836 N1840 1.427 . S
C1837 H1827 0.929 . S
C1837 C1835 1.433 . S
C1837 N1840 1.384 . S
C1838 H1829 0.929 . S
C1838 C1830 1.378 . S
C1838 C1833 1.350 . S
C1839 H1826 0.929 . S
C1839 C1831 1.433 . S
C1839 N1841 1.384 . S
N1840 C1836 1.427 . S
N1840 C1837 1.384 . S
N1841 C1833 1.427 . S
N1841 C1839 1.384 . S
H1842 C1848 0.930 . S
H1843 C1852 0.930 . S
H1844 C1857 0.929 . S
H1845 C1855 0.929 . S
H1846 C1850 0.929 . S
H1847 C1856 0.929 . S
C1848 H1842 0.930 . S
C1848 C1849 1.367 . S
C1848 C1856 1.378 . S
C1849 C1848 1.367 . S
C1849 C1857 1.433 . S
C1850 H1846 0.929 . S
C1850 C1852 1.378 . S
C1850 C1854 1.350 . S
C1851 C1854 1.463 . S
C1851 C1856 1.350 . S
C1851 N1859 1.427 . S
C1852 H1843 0.930 . S
C1852 C1850 1.378 . S
C1852 C1853 1.367 . S
C1853 C1852 1.367 . S
C1853 C1855 1.433 . S
C1854 C1850 1.350 . S
C1854 C1851 1.463 . S
C1854 N1858 1.427 . S
C1855 H1845 0.929 . S
C1855 C1853 1.433 . S
C1855 N1858 1.384 . S
C1856 H1847 0.929 . S
C1856 C1848 1.378 . S
C1856 C1851 1.350 . S
C1857 H1844 0.929 . S
C1857 C1849 1.433 . S
C1857 N1859 1.384 . S
N1858 C1854 1.427 . S
N1858 C1855 1.384 . S
N1859 C1851 1.427 . S
N1859 C1857 1.384 . S
C1007 C707 1.243 . S
C1003 C74 1.182 . S
C1025 C685 0.274 . S
C1021 C142 0.752 . S
C1043 C682 0.805 . S
C1039 C231 0.790 . S
C1057 C322 1.611 . S
C1061 C694 1.644 . S
C1075 C406 0.726 . S
C1079 C677 0.313 . S
C1097 C699 0.803 . S
C1093 C494 0.802 . S
C1111 C562 1.610 . S
C1115 C704 1.661 . S
C1129 C651 1.171 . S
C1133 C700 1.245 . S
C1151 C758 1.685 . S
C1147 C58 1.623 . S
C1165 C151 1.324 . S
C1169 C808 1.376 . S
C1187 C731 2.793 . S
C1183 C224 2.689 . S
C1205 C807 0.785 . S
C1201 C315 0.799 . S
C1219 C399 0.792 . S
C1223 C736 0.809 . S
C1241 C802 1.685 . S
C1237 C478 1.615 . S
C1255 C571 1.265 . S
C1259 C761 1.352 . S
C1273 C644 2.698 . S
C1277 C793 2.784 . S
C1291 C67 2.698 . S
C1295 C785 2.784 . S
C1309 C392 1.332 . S
C1313 C815 1.380 . S
C1331 C739 2.810 . S
C1327 C487 2.702 . S
C1349 C790 0.808 . S
C1345 C578 0.780 . S
C1363 C658 1.616 . S
C1367 C748 1.680 . S
C1381 C238 1.622 . S
C1385 C812 1.693 . S
C1403 C754 1.360 . S
C1399 C308 1.259 . S
C1417 C158 0.823 . S
C1421 C753 0.822 . S
C1435 C662 1.174 . S
C1439 C869 1.245 . S
C1453 C394 0.717 . S
C1457 C847 0.311 . S
C1475 C844 0.793 . S
C1471 C483 0.800 . S
C1493 C856 1.643 . S
C1489 C574 1.614 . S
C1507 C154 0.730 . S
C1511 C839 0.305 . S
C1529 C861 0.791 . S
C1525 C242 0.769 . S
C1543 C310 1.619 . S
C1547 C866 1.651 . S
C1561 C63 1.170 . S
C1565 C862 1.247 . S
C1579 C646 1.623 . S
C1583 C920 1.684 . S
C1601 C970 1.376 . S
C1597 C403 1.327 . S
C1615 C476 2.685 . S
C1619 C893 2.789 . S
C1633 C567 0.799 . S
C1637 C969 0.785 . S
C1655 C898 0.809 . S
C1651 C147 0.816 . S
C1669 C226 1.623 . S
C1673 C964 1.674 . S
C1691 C923 1.349 . S
C1687 C319 1.254 . S
C1709 C955 2.788 . S
C1705 C56 2.688 . S
C1727 C947 2.783 . S
C1723 C655 2.696 . S
C1741 C140 1.318 . S
C1745 C977 1.374 . S
C1759 C235 2.699 . S
C1763 C901 2.808 . S
C1781 C952 0.804 . S
C1777 C326 0.798 . S
C1795 C70 1.617 . S
C1799 C910 1.680 . S
C1813 C490 1.635 . S
C1817 C974 1.701 . S
C1835 C916 1.368 . S
C1831 C560 1.281 . S
C1853 C915 0.827 . S
C1849 C410 0.812 . S
