# Generated by pormake.
# Topology nia, (6,6)-cn, num edge types: 1
# Building blocks:
#     Node 0, Type 0, BuildingBlock: JUFBIX_clean_sbu_0, # of connection points: 6
#     Node 1, Type 0, BuildingBlock: JUFBIX_clean_sbu_0, # of connection points: 6
#     Node 2, Type 1, BuildingBlock: MIDCAF_clean_sbu_0, # of connection points: 6
#     Node 3, Type 1, BuildingBlock: MIDCAF_clean_sbu_0, # of connection points: 6
#     Edge 4, Type (0, 1), BuildingBlock: FUNLAD_clean_linker_1, # of connection points: 2
#     Edge 5, Type (0, 1), BuildingBlock: FUNLAD_clean_linker_1, # of connection points: 2
#     Edge 6, Type (0, 1), BuildingBlock: FUNLAD_clean_linker_1, # of connection points: 2
#     Edge 7, Type (0, 1), BuildingBlock: FUNLAD_clean_linker_1, # of connection points: 2
#     Edge 8, Type (0, 1), BuildingBlock: FUNLAD_clean_linker_1, # of connection points: 2
#     Edge 9, Type (0, 1), BuildingBlock: FUNLAD_clean_linker_1, # of connection points: 2
#     Edge 10, Type (0, 1), BuildingBlock: FUNLAD_clean_linker_1, # of connection points: 2
#     Edge 11, Type (0, 1), BuildingBlock: FUNLAD_clean_linker_1, # of connection points: 2
#     Edge 12, Type (0, 1), BuildingBlock: FUNLAD_clean_linker_1, # of connection points: 2
#     Edge 13, Type (0, 1), BuildingBlock: FUNLAD_clean_linker_1, # of connection points: 2
#     Edge 14, Type (0, 1), BuildingBlock: FUNLAD_clean_linker_1, # of connection points: 2
#     Edge 15, Type (0, 1), BuildingBlock: FUNLAD_clean_linker_1, # of connection points: 2
# Relax obj value: 0.147
# Max RMSD: 0.238
# Mean RMSD: 0.154
data_MOF--net-nia--node1-JUFBIX_clean_sbu_0--node2-MIDCAF_clean_sbu_0--edge1-FUNLAD_clean_linker_1
_symmetry_space_group_name_H-M    P1
_symmetry_Int_Tables_number       1
_symmetry_cell_setting            triclinic
loop_
_symmetry_equiv_pos_as_xyz
'x, y, z'
_cell_length_a     24.686406
_cell_length_b     24.545494
_cell_length_c     35.188577
_cell_angle_alpha  84.712301
_cell_angle_beta   84.20772
_cell_angle_gamma 120.07868
loop_
_atom_site_label
_atom_site_type_symbol
_atom_site_fract_x
_atom_site_fract_y
_atom_site_fract_z
_atom_type_partial_charge
Co0 Co 0.95943 0.93948 0.03794 0.0
C1 C 0.88772 0.95217 0.09751 0.0
Co2 Co 0.00865 0.03528 0.05444 0.0
C3 C 0.92282 0.84862 0.98594 0.0
C4 C 0.88604 0.80224 0.04498 0.0
N5 N 0.92068 0.8603 1.02264 0.0
N6 N 0.89125 0.78573 0.98435 0.0
C7 C 0.86779 0.75618 1.02152 0.0
H8 H 0.94765 0.88568 0.96073 0.0
H9 H 0.87526 0.79399 0.07627 0.0
C10 C 0.08058 0.02225 0.99513 0.0
N11 N 0.04798 0.11466 0.06928 0.0
C12 C 0.05068 0.12777 0.1057 0.0
C13 C 0.08016 0.17207 0.04612 0.0
N14 N 0.0834 0.19099 0.10625 0.0
C15 C 0.10199 0.21918 0.06875 0.0
C16 C 0.03029 0.94907 0.09609 0.0
O17 O 0.03343 0.96555 1.0009 0.0
O18 O 0.07982 0.06199 1.01554 0.0
O19 O 0.04564 0.00715 0.09007 0.0
O20 O -0.00726 0.91022 0.07632 0.0
O21 O 0.9367 0.00754 0.09368 0.0
H22 H 0.087 0.17915 1.01481 0.0
H23 H 0.02894 0.09155 0.13141 0.0
O24 O 0.88643 0.91413 0.07495 0.0
O25 O 0.92574 0.96914 1.00029 0.0
O26 O 0.97188 0.06327 1.01833 0.0
C27 C 0.93757 0.02617 0.99663 0.0
H28 H 0.83988 0.70518 1.03134 0.0
H29 H 0.12865 0.27 0.05819 0.0
Co30 Co 0.02791 0.0227 0.54909 0.0
C31 C 0.0179 0.08658 0.48309 0.0
Co32 Co 0.93878 0.96724 0.52683 0.0
C33 C 0.13948 0.05916 0.5857 0.0
C34 C 0.11964 0.13409 0.57431 0.0
N35 N 0.10007 0.07352 0.56924 0.0
N36 N 0.1817 0.108 0.60151 0.0
C37 C 0.16976 0.15541 0.59404 0.0
H38 H 0.13589 0.01317 0.58728 0.0
H39 H 0.09764 0.16055 0.56516 0.0
C40 C 0.94931 0.9038 0.59305 0.0
N41 N 0.86555 0.91696 0.50706 0.0
C42 C 0.83634 0.93565 0.48305 0.0
C43 C 0.83398 0.85278 0.51043 0.0
N44 N 0.78821 0.88585 0.4712 0.0
C45 C 0.78643 0.83349 0.48853 0.0
C46 C 0.03948 0.95319 0.49613 0.0
O47 O 0.00499 0.95232 0.5882 0.0
O48 O 0.91191 0.90135 0.57003 0.0
O49 O -0.01953 0.9325 0.49841 0.0
O50 O 0.07222 -0.00413 0.51569 0.0
O51 O 0.96709 0.03391 0.48384 0.0
H52 H 0.84644 0.82204 0.5264 0.0
H53 H 0.85133 -0.01497 0.47331 0.0
O54 O 0.05045 0.09265 0.50982 0.0
O55 O -0.01706 0.04855 0.58223 0.0
O56 O 0.89741 0.00211 0.55572 0.0
C57 C 0.92677 0.03562 0.58037 0.0
H58 H 0.19547 0.20225 0.60215 0.0
H59 H 0.75518 0.78489 0.48448 0.0
Zn60 Zn 0.30664 0.70895 0.21629 0.0
Zn61 Zn 0.28567 0.65864 0.36263 0.0
Zn62 Zn 0.30063 0.68029 0.28894 0.0
C63 C 0.41499 0.70933 0.33441 0.0
C64 C 0.21361 0.54119 0.34368 0.0
O65 O 0.25076 0.73441 0.27676 0.0
O66 O 0.26835 0.76132 0.21317 0.0
C67 C 0.43027 0.75528 0.22544 0.0
O68 O 0.3984 0.71931 0.30211 0.0
O69 O 0.37371 0.6787 0.36448 0.0
O70 O 0.21852 0.56849 0.3728 0.0
O71 O 0.2431 0.57417 0.3097 0.0
O72 O 0.39819 0.75268 0.19932 0.0
O73 O 0.40278 0.73111 0.26102 0.0
O74 O 0.24845 0.5875 0.26843 0.0
O75 O 0.25363 0.62084 0.2068 0.0
C76 C 0.23504 0.57578 0.23452 0.0
O77 O 0.26029 0.73449 0.31518 0.0
O78 O 0.26194 0.72001 0.37784 0.0
C79 C 0.24353 0.76179 0.24613 0.0
C80 C 0.25118 0.74625 0.34946 0.0
Zn81 Zn 0.64642 0.27553 0.8705 0.0
Zn82 Zn 0.70506 0.33125 0.71893 0.0
Zn83 Zn 0.67727 0.30793 0.79509 0.0
C84 C 0.75155 0.44913 0.74345 0.0
C85 C 0.57296 0.25758 0.73833 0.0
O86 O 0.72742 0.25955 0.81583 0.0
O87 O 0.69845 0.23735 0.87951 0.0
C88 C 0.709 0.41002 0.85208 0.0
O89 O 0.72633 0.41272 0.7767 0.0
O90 O 0.75037 0.42533 0.71299 0.0
O91 O 0.61655 0.28399 0.70903 0.0
O92 O 0.58683 0.26237 0.77264 0.0
O93 O 0.67793 0.36455 0.88012 0.0
O94 O 0.71575 0.39883 0.81742 0.0
O95 O 0.57164 0.25138 0.81309 0.0
O96 O 0.55437 0.21765 0.876 0.0
C97 C 0.53308 0.21923 0.84508 0.0
O98 O 0.73457 0.26524 0.77547 0.0
O99 O 0.75455 0.28986 0.7116 0.0
C100 C 0.73024 0.2363 0.84946 0.0
C101 C 0.75944 0.26263 0.74214 0.0
H102 H 0.10533 0.96249 0.12961 0.0
C103 C 0.05781 0.9282 0.12512 0.0
H104 H -0.022 0.83562 0.14213 0.0
H105 H 0.14438 0.71837 0.18733 0.0
H106 H 0.08592 0.65342 0.14131 0.0
H107 H 0.01395 0.67631 0.10866 0.0
H108 H -0.00024 0.76378 0.12192 0.0
C109 C 0.02595 0.86931 0.14621 0.0
C110 C 0.05799 0.84712 0.1719 0.0
C111 C 0.06451 0.79484 0.16416 0.0
C112 C 0.10664 0.78219 0.18251 0.0
C113 C 0.1136 0.73058 0.17377 0.0
C114 C 0.08016 0.69278 0.14753 0.0
C115 C 0.0396 0.70563 0.1292 0.0
C116 C 0.03186 0.75611 0.13715 0.0
H117 H 0.16199 0.76806 0.2731 0.0
C118 C 0.19986 0.78653 0.24826 0.0
H119 H 0.23767 0.83893 0.19175 0.0
H120 H 0.04022 0.93664 0.20248 0.0
H121 H 0.09461 -0.00254 0.25143 0.0
H122 H 0.17214 0.97901 0.28053 0.0
H123 H 0.19474 0.89855 0.26149 0.0
C124 C 0.1998 0.82149 0.21652 0.0
C125 C 0.14241 0.82206 0.20816 0.0
C126 C 0.13027 0.86922 0.21936 0.0
C127 C 0.08707 0.88114 0.20166 0.0
C128 C 0.07439 0.92745 0.21403 0.0
C129 C 0.10492 0.96226 0.24223 0.0
C130 C 0.14859 0.95186 0.25864 0.0
C131 C 0.16133 0.90586 0.24742 0.0
H132 H 0.25108 0.0813 0.61375 0.0
C133 C 0.2305 0.10976 0.62141 0.0
H134 H 0.23145 0.17585 0.65595 0.0
H135 H 0.42037 0.09479 0.7349 0.0
H136 H 0.32646 -0.01058 0.75588 0.0
H137 H 0.2248 0.96289 0.73492 0.0
H138 H 0.21647 0.04144 0.69268 0.0
C139 C 0.25259 0.14806 0.64798 0.0
C140 C 0.31254 0.16306 0.66197 0.0
C141 C 0.31599 0.11704 0.68744 0.0
C142 C 0.37428 0.13273 0.70017 0.0
C143 C 0.37707 0.08555 0.72476 0.0
C144 C 0.32358 0.02488 0.73693 0.0
C145 C 0.26635 0.00991 0.72508 0.0
C146 C 0.26224 0.05535 0.70075 0.0
H147 H 0.46934 0.21567 0.75645 0.0
C148 C 0.50606 0.2247 0.7327 0.0
H149 H 0.52811 0.22063 0.67393 0.0
H150 H 0.32199 0.26262 0.61321 0.0
H151 H 0.41509 0.36825 0.59347 0.0
H152 H 0.51526 0.39623 0.61696 0.0
H153 H 0.52286 0.31857 0.6602 0.0
C154 C 0.49114 0.21071 0.69778 0.0
C155 C 0.42845 0.19456 0.68773 0.0
C156 C 0.42452 0.24094 0.66298 0.0
C157 C 0.36659 0.22515 0.65 0.0
C158 C 0.36447 0.27212 0.62457 0.0
C159 C 0.41768 0.33304 0.61286 0.0
C160 C 0.47407 0.34875 0.62602 0.0
C161 C 0.47777 0.30352 0.65076 0.0
H162 H 0.06959 0.19017 0.16866 0.0
C163 C 0.09349 0.22026 0.14055 0.0
H164 H 0.15788 0.3142 0.11134 0.0
H165 H 0.07535 0.41231 0.25794 0.0
H166 H 0.96934 0.3606 0.24142 0.0
H167 H 0.94142 0.28813 0.19313 0.0
H168 H 0.01878 0.26619 0.16157 0.0
C169 C 0.13117 0.28348 0.13877 0.0
C170 C 0.14149 0.31434 0.17385 0.0
C171 C 0.09542 0.32636 0.19188 0.0
C172 C 0.11188 0.36927 0.219 0.0
C173 C 0.06536 0.38084 0.23666 0.0
C174 C 0.00443 0.3514 0.22751 0.0
C175 C -0.01131 0.31052 0.20037 0.0
C176 C 0.03357 0.29825 0.1825 0.0
H177 H 0.17757 0.50545 0.19978 0.0
C178 C 0.19871 0.51065 0.22589 0.0
H179 H 0.22495 0.46699 0.26801 0.0
H180 H 0.23503 0.28996 0.15081 0.0
H181 H 0.33841 0.33569 0.1709 0.0
H182 H 0.36762 0.41119 0.21739 0.0
H183 H 0.294 0.44134 0.24411 0.0
C184 C 0.19861 0.46051 0.24451 0.0
C185 C 0.17463 0.40102 0.22722 0.0
C186 C 0.2178 0.38253 0.21303 0.0
C187 C 0.20121 0.33934 0.18606 0.0
C188 C 0.24572 0.32311 0.17111 0.0
C189 C 0.30502 0.34881 0.18249 0.0
C190 C 0.32144 0.39129 0.20868 0.0
C191 C 0.27867 0.40834 0.22375 0.0
H192 H 0.85334 0.05785 0.60062 0.0
C193 C 0.89656 0.05983 0.60666 0.0
H194 H 0.96565 0.08743 0.64323 0.0
H195 H 0.92861 0.31022 0.69036 0.0
H196 H 0.03785 0.36827 0.65642 0.0
H197 H 0.08386 0.31195 0.62419 0.0
H198 H 0.02134 0.19762 0.62574 0.0
C199 C 0.92226 0.08513 0.63726 0.0
C200 C 0.89715 0.11721 0.66099 0.0
C201 C 0.93501 0.18395 0.66016 0.0
C202 C 0.90834 0.21659 0.67819 0.0
C203 C 0.94654 0.28344 0.67652 0.0
C204 C 0.00926 0.31719 0.65732 0.0
C205 C 0.03519 0.28547 0.63924 0.0
C206 C -0.00129 0.2197 0.64042 0.0
H207 H 0.79776 0.20332 0.76476 0.0
C208 C 0.79193 0.22604 0.7388 0.0
H209 H 0.80692 0.24258 0.67762 0.0
H210 H 0.81801 -0.0125 0.6764 0.0
H211 H 0.7103 0.92927 0.7126 0.0
H212 H 0.66231 -0.01351 0.7414 0.0
H213 H 0.72191 0.102 0.7347 0.0
C214 C 0.81184 0.21893 0.70357 0.0
C215 C 0.84406 0.18262 0.69672 0.0
C216 C 0.80821 0.11514 0.70084 0.0
C217 C 0.83517 0.08227 0.68328 0.0
C218 C 0.79899 0.01482 0.68822 0.0
C219 C 0.73733 0.98087 0.7091 0.0
C220 C 0.71036 0.01309 0.72537 0.0
C221 C 0.74508 0.07946 0.72128 0.0
H222 H 0.84235 0.95826 0.15297 0.0
C223 C 0.834 0.93188 0.12891 0.0
H224 H 0.76806 0.85602 0.10417 0.0
H225 H 0.55175 0.67817 0.23874 0.0
H226 H 0.5946 0.61229 0.22157 0.0
H227 H 0.69706 0.65879 0.17761 0.0
H228 H 0.75657 0.77124 0.14988 0.0
C229 C 0.7757 0.88269 0.12809 0.0
C230 C 0.72101 0.85896 0.16029 0.0
C231 C 0.68819 0.79364 0.17768 0.0
C232 C 0.63004 0.76715 0.20397 0.0
C233 C 0.59644 0.70103 0.219 0.0
C234 C 0.6206 0.66261 0.20947 0.0
C235 C 0.67826 0.68877 0.1847 0.0
C236 C 0.71179 0.7534 0.16885 0.0
H237 H 0.51845 0.81876 0.18508 0.0
C238 C 0.49929 0.78792 0.21321 0.0
H239 H 0.51845 0.74197 0.25839 0.0
H240 H 0.76802 -0.01397 0.13139 0.0
H241 H 0.73325 0.05395 0.15632 0.0
H242 H 0.64318 0.01074 0.21032 0.0
H243 H 0.5856 0.89797 0.23835 0.0
C244 C 0.53816 0.77723 0.23228 0.0
C245 C 0.60608 0.80661 0.2139 0.0
C246 C 0.64352 0.87341 0.20085 0.0
C247 C 0.6989 0.89923 0.17224 0.0
C248 C 0.72909 0.96447 0.15545 0.0
C249 C 0.70899 0.00403 0.16916 0.0
C250 C 0.65807 0.97966 0.19938 0.0
C251 C 0.62529 0.91502 0.21502 0.0
H252 H 0.96696 0.84205 0.63313 0.0
C253 C 0.93005 0.8487 0.62321 0.0
H254 H 0.83196 0.81178 0.62618 0.0
H255 H 0.75463 0.52406 0.65289 0.0
H256 H 0.72238 0.53596 0.59145 0.0
H257 H 0.74867 0.64176 0.559 0.0
H258 H 0.80644 0.73582 0.58802 0.0
C259 C 0.86857 0.80464 0.63614 0.0
C260 C 0.84913 0.74072 0.65764 0.0
C261 C 0.81576 0.68622 0.63989 0.0
C262 C 0.80231 0.62562 0.65799 0.0
C263 C 0.7678 0.57168 0.63997 0.0
C264 C 0.74863 0.57771 0.60473 0.0
C265 C 0.76328 0.63719 0.58653 0.0
C266 C 0.79647 0.69092 0.60368 0.0
H267 H 0.75362 0.53498 0.75979 0.0
C268 C 0.7758 0.51819 0.73954 0.0
H269 H 0.83845 0.53965 0.68792 0.0
H270 H 0.90141 0.83256 0.70315 0.0
H271 H 0.93209 0.82015 0.76544 0.0
H272 H 0.91552 0.71647 0.79466 0.0
H273 H 0.86727 0.62436 0.76217 0.0
C274 C 0.81744 0.55786 0.70798 0.0
C275 C 0.82347 0.61974 0.69334 0.0
C276 C 0.85366 0.67341 0.7122 0.0
C277 C 0.86547 0.73384 0.69461 0.0
C278 C 0.89339 0.78621 0.71465 0.0
C279 C 0.91085 0.77961 0.75047 0.0
C280 C 0.90138 0.72118 0.76698 0.0
C281 C 0.8734 0.66859 0.7481 0.0
H282 H 0.03653 0.87738 0.4662 0.0
C283 C 0.06791 0.92527 0.47184 0.0
H284 H 0.16108 0.00491 0.46119 0.0
H285 H 0.29083 0.84281 0.4325 0.0
H286 H 0.34004 0.89789 0.48425 0.0
H287 H 0.30549 0.96491 0.51413 0.0
H288 H 0.22239 0.97806 0.49207 0.0
C289 C 0.1297 0.9568 0.45594 0.0
C290 C 0.15703 0.92442 0.43399 0.0
C291 C 0.20559 0.91715 0.44747 0.0
C292 C 0.22417 0.877 0.43104 0.0
C293 C 0.27353 0.87127 0.44466 0.0
C294 C 0.30248 0.90291 0.47423 0.0
C295 C 0.28312 0.94073 0.49099 0.0
C296 C 0.23525 0.94787 0.47796 0.0
H297 H 0.23834 0.82755 0.33158 0.0
C298 C 0.2303 0.79201 0.35577 0.0
H299 H 0.19719 0.75582 0.41527 0.0
H300 H 0.07796 0.94425 0.39335 0.0
H301 H 0.02835 0.8893 0.34142 0.0
H302 H 0.0505 0.80942 0.31828 0.0
H303 H 0.12379 0.78569 0.34577 0.0
C304 C 0.20431 0.79148 0.3914 0.0
C305 C 0.193 0.84274 0.40195 0.0
C306 C 0.1475 0.85343 0.38659 0.0
C307 C 0.13137 0.89626 0.40171 0.0
C308 C 0.0891 0.90953 0.3843 0.0
C309 C 0.06069 0.87869 0.35434 0.0
C310 C 0.07338 0.83392 0.3412 0.0
C311 C 0.1161 0.82112 0.35707 0.0
H312 H 0.14083 0.00219 0.95527 0.0
C313 C 0.13691 0.04014 0.96646 0.0
H314 H 0.18131 0.13907 0.96723 0.0
H315 H 0.45801 0.18584 0.93891 0.0
H316 H 0.44742 0.20452 1.00475 0.0
H317 H 0.3447 0.18242 0.0393 0.0
H318 H 0.25225 0.1422 1.00793 0.0
C319 C 0.18447 0.10099 0.95567 0.0
C320 C 0.24648 0.11658 0.93365 0.0
C321 C 0.29991 0.13943 0.95262 0.0
C322 C 0.35856 0.15045 0.93305 0.0
C323 C 0.41162 0.17473 0.95255 0.0
C324 C 0.40638 0.1861 0.9904 0.0
C325 C 0.34863 0.17381 1.00981 0.0
C326 C 0.2959 0.15076 0.99134 0.0
H327 H 0.44765 0.21792 0.8305 0.0
C328 C 0.46407 0.19175 0.84766 0.0
H329 H 0.44191 0.11893 0.89339 0.0
H330 H 0.15598 0.08241 0.88723 0.0
H331 H 0.16665 0.06506 0.8207 0.0
H332 H 0.26684 0.07921 0.78771 0.0
H333 H 0.35702 0.11014 0.82091 0.0
C334 C 0.42394 0.14402 0.87662 0.0
C335 C 0.36344 0.13753 0.8947 0.0
C336 C 0.31068 0.117 0.87518 0.0
C337 C 0.25227 0.10731 0.89458 0.0
C338 C 0.20081 0.0888 0.87416 0.0
C339 C 0.2064 0.07898 0.83595 0.0
C340 C 0.26288 0.08692 0.81735 0.0
C341 C 0.31443 0.10518 0.83667 0.0
H342 H 0.02992 0.12762 0.42213 0.0
C343 C 0.04073 0.13922 0.45052 0.0
H344 H 0.08557 0.21058 0.4842 0.0
H345 H 0.29889 0.44254 0.37119 0.0
H346 H 0.35658 0.41519 0.41271 0.0
H347 H 0.30267 0.31318 0.458 0.0
H348 H 0.19017 0.23857 0.46249 0.0
C349 C 0.07544 0.20032 0.45546 0.0
C350 C 0.1081 0.25522 0.42272 0.0
C351 C 0.1748 0.297 0.41883 0.0
C352 C 0.20636 0.35475 0.39161 0.0
C353 C 0.27223 0.3973 0.39045 0.0
C354 C 0.30624 0.38224 0.41425 0.0
C355 C 0.27589 0.32492 0.4398 0.0
C356 C 0.21107 0.28266 0.44221 0.0
H357 H 0.13022 0.44993 0.3706 0.0
C358 C 0.1752 0.47118 0.35091 0.0
H359 H 0.24905 0.4583 0.32836 0.0
H360 H -0.02123 0.18916 0.42319 0.0
H361 H 0.92407 0.20914 0.37547 0.0
H362 H -0.0172 0.29976 0.32147 0.0
H363 H 0.09656 0.37255 0.31628 0.0
C364 C 0.20122 0.43542 0.34465 0.0
C365 C 0.17154 0.36941 0.36706 0.0
C366 C 0.10654 0.32387 0.36778 0.0
C367 C 0.07387 0.2685 0.39692 0.0
C368 C 0.00718 0.22899 0.39998 0.0
C369 C 0.97491 0.24041 0.37298 0.0
C370 C 0.00786 0.29162 0.34272 0.0
C371 C 0.07287 0.33319 0.34017 0.0
H372 H 0.86455 0.01216 0.96091 0.0
C373 C 0.90863 0.04778 0.96891 0.0
H374 H -0.02174 0.14518 0.96279 0.0
H375 H 0.78199 0.11269 0.83433 0.0
H376 H 0.82031 0.05119 0.8034 0.0
H377 H 0.89645 0.0285 0.83087 0.0
H378 H 0.93396 0.06646 0.8898 0.0
C379 C 0.93388 0.10993 0.95489 0.0
C380 C 0.8978 0.13287 0.93378 0.0
C381 C 0.87849 0.11262 0.89841 0.0
C382 C 0.83657 0.12789 0.88168 0.0
C383 C 0.81516 0.10404 0.84765 0.0
C384 C 0.83666 0.0685 0.82966 0.0
C385 C 0.8794 0.05559 0.84518 0.0
C386 C 0.90021 0.07723 0.87916 0.0
H387 H 0.81612 0.23081 0.83217 0.0
C388 C 0.77394 0.21249 0.85395 0.0
H389 H 0.72296 0.15702 0.90842 0.0
H390 H 0.9305 0.18483 0.99985 0.0
H391 H 0.90058 0.25489 1.02688 0.0
H392 H 0.83341 0.28671 0.99556 0.0
H393 H 0.79521 0.24783 0.9372 0.0
C394 C 0.76519 0.17426 0.88679 0.0
C395 C 0.81626 0.1655 0.89959 0.0
C396 C 0.84025 0.1905 0.93294 0.0
C397 C 0.88044 0.17365 0.95032 0.0
C398 C 0.90104 0.19701 0.98473 0.0
C399 C 0.88406 0.23727 1.00073 0.0
C400 C 0.84615 0.25506 0.98317 0.0
C401 C 0.82429 0.23207 0.94974 0.0
H402 H 0.76646 0.93686 0.42682 0.0
C403 C 0.75197 0.89015 0.44261 0.0
H404 H 0.68695 0.79103 0.44951 0.0
H405 H 0.51212 0.87573 0.36273 0.0
H406 H 0.51243 0.93209 0.41583 0.0
H407 H 0.58267 0.94634 0.4639 0.0
H408 H 0.65332 0.90483 0.45899 0.0
C409 C 0.70154 0.83811 0.43456 0.0
C410 C 0.66738 0.84064 0.40255 0.0
C411 C 0.6267 0.86576 0.40581 0.0
C412 C 0.58526 0.85646 0.37847 0.0
C413 C 0.54431 0.88105 0.38272 0.0
C414 C 0.544 0.91355 0.41308 0.0
C415 C 0.5836 0.92164 0.44012 0.0
C416 C 0.62424 0.89779 0.43683 0.0
H417 H 0.48951 0.70254 0.35886 0.0
C418 C 0.48148 0.73305 0.33865 0.0
H419 H 0.51832 0.82749 0.31113 0.0
H420 H 0.74796 0.79756 0.38389 0.0
H421 H 0.74963 0.7437 0.32961 0.0
H422 H 0.67485 0.72394 0.28381 0.0
H423 H 0.59823 0.75822 0.29222 0.0
C424 C 0.52742 0.79461 0.32817 0.0
C425 C 0.58303 0.82015 0.34888 0.0
C426 C 0.62738 0.79971 0.34391 0.0
C427 C 0.66993 0.81047 0.37055 0.0
C428 C 0.7139 0.78971 0.36478 0.0
C429 C 0.71555 0.75899 0.33369 0.0
C430 C 0.67348 0.74791 0.3079 0.0
C431 C 0.62972 0.76774 0.31296 0.0
H432 H 0.90896 0.79015 0.92172 0.0
C433 C 0.88623 0.75835 0.94939 0.0
H434 H 0.83368 0.66223 0.97714 0.0
H435 H 0.74261 0.59082 0.81324 0.0
H436 H 0.69402 0.65574 0.81872 0.0
H437 H 0.71653 0.72536 0.86851 0.0
H438 H 0.78791 0.7311 0.91275 0.0
C439 C 0.8548 0.69502 0.94991 0.0
C440 C 0.85188 0.66635 0.91418 0.0
C441 C 0.81014 0.66415 0.88864 0.0
C442 C 0.79602 0.62312 0.86044 0.0
C443 C 0.75377 0.62068 0.83546 0.0
C444 C 0.72592 0.65775 0.83825 0.0
C445 C 0.73872 0.69705 0.86625 0.0
C446 C 0.77993 0.70005 0.89143 0.0
H447 H 0.71595 0.48087 0.88772 0.0
C448 C 0.73686 0.47527 0.8607 0.0
H449 H 0.8164 0.52 0.81553 0.0
H450 H 0.94424 0.67053 0.95277 0.0
H451 H -0.00221 0.61105 0.94366 0.0
H452 H 0.97235 0.53939 0.89493 0.0
H453 H 0.89325 0.52689 0.85493 0.0
C454 C 0.79113 0.52528 0.84067 0.0
C455 C 0.82271 0.58399 0.85838 0.0
C456 C 0.87049 0.59249 0.88036 0.0
C457 C 0.88485 0.63348 0.90852 0.0
C458 C 0.93117 0.63945 0.9312 0.0
C459 C 0.96234 0.60579 0.92616 0.0
C460 C 0.94803 0.56545 0.89871 0.0
C461 C 0.9025 0.55854 0.87606 0.0
loop_
_geom_bond_atom_site_label_1
_geom_bond_atom_site_label_2
_geom_bond_distance
_geom_bond_site_symmetry_2
_ccdc_geom_bond_type
Co0 N5 2.057 . S
Co0 O17 2.021 1_665 S
Co0 O20 2.062 1_656 S
Co0 O24 2.117 1_556 S
Co0 O25 2.020 1_565 S
C1 O21 1.259 1_565 S
C1 O24 1.258 . S
Co2 N11 2.057 . S
Co2 O18 2.117 1_554 S
Co2 O19 2.020 . S
Co2 O21 2.021 1_455 S
Co2 O26 2.066 1_554 S
C3 N5 1.316 . S
C3 N6 1.347 . S
C3 H8 0.931 1_655 S
C4 N5 1.375 . S
C4 C7 1.350 . S
C4 H9 0.930 . S
N5 Co0 2.057 . S
N5 C3 1.316 . S
N5 C4 1.375 . S
N6 C3 1.347 . S
N6 C7 1.373 . S
C7 C4 1.350 . S
C7 N6 1.373 . S
C7 H28 0.931 . S
H8 C3 0.931 1_455 S
H9 C4 0.930 . S
C10 O17 1.259 . S
C10 O18 1.258 . S
N11 Co2 2.057 . S
N11 C12 1.316 . S
N11 C13 1.375 . S
C12 N11 1.316 . S
C12 N14 1.347 . S
C12 H23 0.931 . S
C13 N11 1.375 . S
C13 C15 1.350 . S
C13 H22 0.930 . S
N14 C12 1.347 . S
N14 C15 1.373 . S
C15 C13 1.350 . S
C15 N14 1.373 . S
C15 H29 0.931 . S
C16 O19 1.256 1_565 S
C16 O20 1.255 . S
O17 Co0 2.021 1_445 S
O17 C10 1.259 . S
O18 Co2 2.117 1_556 S
O18 C10 1.258 . S
O19 Co2 2.020 . S
O19 C16 1.256 1_545 S
O20 Co0 2.062 1_454 S
O20 C16 1.255 . S
O21 C1 1.259 1_545 S
O21 Co2 2.021 1_655 S
H22 C13 0.930 . S
H23 C12 0.931 . S
O24 Co0 2.117 1_554 S
O24 C1 1.258 . S
O25 Co0 2.020 1_545 S
O25 C27 1.256 . S
O26 Co2 2.066 1_556 S
O26 C27 1.253 1_455 S
C27 O25 1.256 . S
C27 O26 1.253 1_655 S
H28 C7 0.931 . S
H29 C15 0.931 . S
Co30 N35 2.057 . S
Co30 O47 2.021 1_545 S
Co30 O50 2.062 1_545 S
Co30 O54 2.117 . S
Co30 O55 2.020 . S
C31 O51 1.259 . S
C31 O54 1.258 . S
Co32 N41 2.057 . S
Co32 O48 2.117 . S
Co32 O49 2.020 1_655 S
Co32 O51 2.021 1_665 S
Co32 O56 2.062 1_565 S
C33 N35 1.316 . S
C33 N36 1.347 . S
C33 H38 0.931 . S
C34 N35 1.375 . S
C34 C37 1.350 . S
C34 H39 0.930 . S
N35 Co30 2.057 . S
N35 C33 1.316 . S
N35 C34 1.375 . S
N36 C33 1.347 . S
N36 C37 1.373 . S
C37 C34 1.350 . S
C37 N36 1.373 . S
C37 H58 0.931 . S
H38 C33 0.931 . S
H39 C34 0.930 . S
C40 O47 1.259 1_655 S
C40 O48 1.258 . S
N41 Co32 2.057 . S
N41 C42 1.316 . S
N41 C43 1.375 . S
C42 N41 1.316 . S
C42 N44 1.347 . S
C42 H53 0.931 . S
C43 N41 1.375 . S
C43 C45 1.350 . S
C43 H52 0.930 . S
N44 C42 1.347 . S
N44 C45 1.373 . S
C45 C43 1.350 . S
C45 N44 1.373 . S
C45 H59 0.931 . S
C46 O49 1.256 . S
C46 O50 1.255 . S
O47 Co30 2.021 1_565 S
O47 C40 1.259 1_455 S
O48 Co32 2.117 . S
O48 C40 1.258 . S
O49 Co32 2.020 1_455 S
O49 C46 1.256 . S
O50 Co30 2.062 1_565 S
O50 C46 1.255 . S
O51 C31 1.259 . S
O51 Co32 2.021 1_445 S
H52 C43 0.930 . S
H53 C42 0.931 . S
O54 Co30 2.117 . S
O54 C31 1.258 . S
O55 Co30 2.020 . S
O55 C57 1.256 1_455 S
O56 Co32 2.062 1_545 S
O56 C57 1.255 . S
C57 O55 1.256 1_655 S
C57 O56 1.255 . S
H58 C37 0.931 . S
H59 C45 0.931 . S
Zn60 O66 1.920 . S
Zn60 O72 1.898 . S
Zn60 O75 1.905 . S
Zn61 O69 1.905 . S
Zn61 O70 1.898 . S
Zn61 O78 1.920 . S
Zn62 O65 2.080 . S
Zn62 O68 2.114 . S
Zn62 O71 2.120 . S
Zn62 O73 2.120 . S
Zn62 O74 2.114 . S
Zn62 O77 2.080 . S
C63 O68 1.166 . S
C63 O69 1.182 . S
C64 O70 1.167 . S
C64 O71 1.299 . S
O65 Zn62 2.080 . S
O65 C79 1.305 . S
O66 Zn60 1.920 . S
O66 C79 1.234 . S
C67 O72 1.167 . S
C67 O73 1.299 . S
O68 Zn62 2.114 . S
O68 C63 1.166 . S
O69 Zn61 1.905 . S
O69 C63 1.182 . S
O70 Zn61 1.898 . S
O70 C64 1.167 . S
O71 Zn62 2.120 . S
O71 C64 1.299 . S
O72 Zn60 1.898 . S
O72 C67 1.167 . S
O73 Zn62 2.120 . S
O73 C67 1.299 . S
O74 Zn62 2.114 . S
O74 C76 1.166 . S
O75 Zn60 1.905 . S
O75 C76 1.182 . S
C76 O74 1.166 . S
C76 O75 1.182 . S
O77 Zn62 2.080 . S
O77 C80 1.305 . S
O78 Zn61 1.920 . S
O78 C80 1.234 . S
C79 O65 1.305 . S
C79 O66 1.234 . S
C80 O77 1.305 . S
C80 O78 1.234 . S
Zn81 O87 1.920 . S
Zn81 O93 1.898 . S
Zn81 O96 1.905 . S
Zn82 O90 1.905 . S
Zn82 O91 1.898 . S
Zn82 O99 1.920 . S
Zn83 O86 2.080 . S
Zn83 O89 2.114 . S
Zn83 O92 2.120 . S
Zn83 O94 2.120 . S
Zn83 O95 2.114 . S
Zn83 O98 2.080 . S
C84 O89 1.166 . S
C84 O90 1.182 . S
C85 O91 1.167 . S
C85 O92 1.299 . S
O86 Zn83 2.080 . S
O86 C100 1.305 . S
O87 Zn81 1.920 . S
O87 C100 1.234 . S
C88 O93 1.167 . S
C88 O94 1.299 . S
O89 Zn83 2.114 . S
O89 C84 1.166 . S
O90 Zn82 1.905 . S
O90 C84 1.182 . S
O91 Zn82 1.898 . S
O91 C85 1.167 . S
O92 Zn83 2.120 . S
O92 C85 1.299 . S
O93 Zn81 1.898 . S
O93 C88 1.167 . S
O94 Zn83 2.120 . S
O94 C88 1.299 . S
O95 Zn83 2.114 . S
O95 C97 1.166 . S
O96 Zn81 1.905 . S
O96 C97 1.182 . S
C97 O95 1.166 . S
C97 O96 1.182 . S
O98 Zn83 2.080 . S
O98 C101 1.305 . S
O99 Zn82 1.920 . S
O99 C101 1.234 . S
C100 O86 1.305 . S
C100 O87 1.234 . S
C101 O98 1.305 . S
C101 O99 1.234 . S
H102 C103 0.951 . S
C103 H102 0.951 . S
C103 C109 1.265 . S
H104 C109 0.950 . S
H105 C113 0.949 . S
H106 C114 0.950 . S
H107 C115 0.951 1_655 S
H108 C116 0.951 . S
C109 C103 1.265 . S
C109 H104 0.950 . S
C109 C110 1.478 . S
C110 C109 1.478 . S
C110 C111 1.397 . S
C110 C127 1.394 . S
C111 C110 1.397 . S
C111 C112 1.438 . S
C111 C116 1.429 . S
C112 C111 1.438 . S
C112 C113 1.428 . S
C112 C125 1.394 . S
C113 H105 0.949 . S
C113 C112 1.428 . S
C113 C114 1.345 . S
C114 H106 0.950 . S
C114 C113 1.345 . S
C114 C115 1.424 . S
C115 H107 0.951 1_455 S
C115 C114 1.424 . S
C115 C116 1.347 . S
C116 H108 0.951 . S
C116 C111 1.429 . S
C116 C115 1.347 . S
H117 C118 0.951 . S
C118 H117 0.951 . S
C118 C124 1.265 . S
H119 C124 0.950 . S
H120 C128 0.949 . S
H121 C129 0.950 . S
H122 C130 0.951 1_545 S
H123 C131 0.951 . S
C124 C118 1.265 . S
C124 H119 0.950 . S
C124 C125 1.478 . S
C125 C112 1.394 . S
C125 C124 1.478 . S
C125 C126 1.397 . S
C126 C125 1.397 . S
C126 C127 1.438 . S
C126 C131 1.429 . S
C127 C110 1.394 . S
C127 C126 1.438 . S
C127 C128 1.428 . S
C128 H120 0.949 . S
C128 C127 1.428 . S
C128 C129 1.345 1_565 S
C129 H121 0.950 . S
C129 C128 1.345 1_545 S
C129 C130 1.424 1_545 S
C130 H122 0.951 1_565 S
C130 C129 1.424 1_565 S
C130 C131 1.347 . S
C131 H123 0.951 . S
C131 C126 1.429 . S
C131 C130 1.347 . S
H132 C133 0.951 . S
C133 H132 0.951 . S
C133 C139 1.265 . S
H134 C139 0.950 . S
H135 C143 0.949 . S
H136 C144 0.950 . S
H137 C145 0.951 1_565 S
H138 C146 0.951 . S
C139 C133 1.265 . S
C139 H134 0.950 . S
C139 C140 1.478 . S
C140 C139 1.478 . S
C140 C141 1.397 . S
C140 C157 1.394 . S
C141 C140 1.397 . S
C141 C142 1.438 . S
C141 C146 1.429 . S
C142 C141 1.438 . S
C142 C143 1.428 . S
C142 C155 1.394 . S
C143 H135 0.949 . S
C143 C142 1.428 . S
C143 C144 1.345 . S
C144 H136 0.950 . S
C144 C143 1.345 . S
C144 C145 1.424 . S
C145 H137 0.951 1_545 S
C145 C144 1.424 . S
C145 C146 1.347 . S
C146 H138 0.951 . S
C146 C141 1.429 . S
C146 C145 1.347 . S
H147 C148 0.951 . S
C148 H147 0.951 . S
C148 C154 1.265 . S
H149 C154 0.950 . S
H150 C158 0.949 . S
H151 C159 0.950 . S
H152 C160 0.951 . S
H153 C161 0.951 . S
C154 C148 1.265 . S
C154 H149 0.950 . S
C154 C155 1.478 . S
C155 C142 1.394 . S
C155 C154 1.478 . S
C155 C156 1.397 . S
C156 C155 1.397 . S
C156 C157 1.438 . S
C156 C161 1.429 . S
C157 C140 1.394 . S
C157 C156 1.438 . S
C157 C158 1.428 . S
C158 H150 0.949 . S
C158 C157 1.428 . S
C158 C159 1.345 . S
C159 H151 0.950 . S
C159 C158 1.345 . S
C159 C160 1.424 . S
C160 H152 0.951 . S
C160 C159 1.424 . S
C160 C161 1.347 . S
C161 H153 0.951 . S
C161 C156 1.429 . S
C161 C160 1.347 . S
H162 C163 0.951 . S
C163 H162 0.951 . S
C163 C169 1.265 . S
H164 C169 0.950 . S
H165 C173 0.949 . S
H166 C174 0.950 . S
H167 C175 0.951 . S
H168 C176 0.951 . S
C169 C163 1.265 . S
C169 H164 0.950 . S
C169 C170 1.478 . S
C170 C169 1.478 . S
C170 C171 1.397 . S
C170 C187 1.394 . S
C171 C170 1.397 . S
C171 C172 1.438 . S
C171 C176 1.429 . S
C172 C171 1.438 . S
C172 C173 1.428 . S
C172 C185 1.394 . S
C173 H165 0.949 . S
C173 C172 1.428 . S
C173 C174 1.345 . S
C174 H166 0.950 . S
C174 C173 1.345 . S
C174 C175 1.424 . S
C175 H167 0.951 . S
C175 C174 1.424 . S
C175 C176 1.347 . S
C176 H168 0.951 . S
C176 C171 1.429 . S
C176 C175 1.347 . S
H177 C178 0.951 . S
C178 H177 0.951 . S
C178 C184 1.265 . S
H179 C184 0.950 . S
H180 C188 0.949 . S
H181 C189 0.950 . S
H182 C190 0.951 . S
H183 C191 0.951 . S
C184 C178 1.265 . S
C184 H179 0.950 . S
C184 C185 1.478 . S
C185 C172 1.394 . S
C185 C184 1.478 . S
C185 C186 1.397 . S
C186 C185 1.397 . S
C186 C187 1.438 . S
C186 C191 1.429 . S
C187 C170 1.394 . S
C187 C186 1.438 . S
C187 C188 1.428 . S
C188 H180 0.949 . S
C188 C187 1.428 . S
C188 C189 1.345 . S
C189 H181 0.950 . S
C189 C188 1.345 . S
C189 C190 1.424 . S
C190 H182 0.951 . S
C190 C189 1.424 . S
C190 C191 1.347 . S
C191 H183 0.951 . S
C191 C186 1.429 . S
C191 C190 1.347 . S
H192 C193 0.951 . S
C193 H192 0.951 . S
C193 C199 1.265 . S
H194 C199 0.950 . S
H195 C203 0.949 . S
H196 C204 0.950 1_455 S
H197 C205 0.951 . S
H198 C206 0.951 1_455 S
C199 C193 1.265 . S
C199 H194 0.950 . S
C199 C200 1.478 . S
C200 C199 1.478 . S
C200 C201 1.397 . S
C200 C217 1.394 . S
C201 C200 1.397 . S
C201 C202 1.438 . S
C201 C206 1.429 . S
C202 C201 1.438 . S
C202 C203 1.428 . S
C202 C215 1.394 . S
C203 H195 0.949 . S
C203 C202 1.428 . S
C203 C204 1.345 . S
C204 H196 0.950 1_655 S
C204 C203 1.345 . S
C204 C205 1.424 1_655 S
C205 H197 0.951 . S
C205 C204 1.424 1_455 S
C205 C206 1.347 1_455 S
C206 H198 0.951 1_655 S
C206 C201 1.429 . S
C206 C205 1.347 1_655 S
H207 C208 0.951 . S
C208 H207 0.951 . S
C208 C214 1.265 . S
H209 C214 0.950 . S
H210 C218 0.949 . S
H211 C219 0.950 1_565 S
H212 C220 0.951 . S
H213 C221 0.951 . S
C214 C208 1.265 . S
C214 H209 0.950 . S
C214 C215 1.478 . S
C215 C202 1.394 . S
C215 C214 1.478 . S
C215 C216 1.397 . S
C216 C215 1.397 . S
C216 C217 1.438 . S
C216 C221 1.429 . S
C217 C200 1.394 . S
C217 C216 1.438 . S
C217 C218 1.428 . S
C218 H210 0.949 . S
C218 C217 1.428 . S
C218 C219 1.345 . S
C219 H211 0.950 1_545 S
C219 C218 1.345 . S
C219 C220 1.424 . S
C220 H212 0.951 . S
C220 C219 1.424 . S
C220 C221 1.347 . S
C221 H213 0.951 . S
C221 C216 1.429 . S
C221 C220 1.347 . S
H222 C223 0.951 . S
C223 H222 0.951 . S
C223 C229 1.265 . S
H224 C229 0.950 . S
H225 C233 0.949 . S
H226 C234 0.950 . S
H227 C235 0.951 . S
H228 C236 0.951 . S
C229 C223 1.265 . S
C229 H224 0.950 . S
C229 C230 1.478 . S
C230 C229 1.478 . S
C230 C231 1.397 . S
C230 C247 1.394 . S
C231 C230 1.397 . S
C231 C232 1.438 . S
C231 C236 1.429 . S
C232 C231 1.438 . S
C232 C233 1.428 . S
C232 C245 1.394 . S
C233 H225 0.949 . S
C233 C232 1.428 . S
C233 C234 1.345 . S
C234 H226 0.950 . S
C234 C233 1.345 . S
C234 C235 1.424 . S
C235 H227 0.951 . S
C235 C234 1.424 . S
C235 C236 1.347 . S
C236 H228 0.951 . S
C236 C231 1.429 . S
C236 C235 1.347 . S
H237 C238 0.951 . S
C238 H237 0.951 . S
C238 C244 1.265 . S
H239 C244 0.950 . S
H240 C248 0.949 1_545 S
H241 C249 0.950 . S
H242 C250 0.951 1_545 S
H243 C251 0.951 . S
C244 C238 1.265 . S
C244 H239 0.950 . S
C244 C245 1.478 . S
C245 C232 1.394 . S
C245 C244 1.478 . S
C245 C246 1.397 . S
C246 C245 1.397 . S
C246 C247 1.438 . S
C246 C251 1.429 . S
C247 C230 1.394 . S
C247 C246 1.438 . S
C247 C248 1.428 . S
C248 H240 0.949 1_565 S
C248 C247 1.428 . S
C248 C249 1.345 1_565 S
C249 H241 0.950 . S
C249 C248 1.345 1_545 S
C249 C250 1.424 1_545 S
C250 H242 0.951 1_565 S
C250 C249 1.424 1_565 S
C250 C251 1.347 . S
C251 H243 0.951 . S
C251 C246 1.429 . S
C251 C250 1.347 . S
H252 C253 0.951 . S
C253 H252 0.951 . S
C253 C259 1.265 . S
H254 C259 0.950 . S
H255 C263 0.949 . S
H256 C264 0.950 . S
H257 C265 0.951 . S
H258 C266 0.951 . S
C259 C253 1.265 . S
C259 H254 0.950 . S
C259 C260 1.478 . S
C260 C259 1.478 . S
C260 C261 1.397 . S
C260 C277 1.394 . S
C261 C260 1.397 . S
C261 C262 1.438 . S
C261 C266 1.429 . S
C262 C261 1.438 . S
C262 C263 1.428 . S
C262 C275 1.394 . S
C263 H255 0.949 . S
C263 C262 1.428 . S
C263 C264 1.345 . S
C264 H256 0.950 . S
C264 C263 1.345 . S
C264 C265 1.424 . S
C265 H257 0.951 . S
C265 C264 1.424 . S
C265 C266 1.347 . S
C266 H258 0.951 . S
C266 C261 1.429 . S
C266 C265 1.347 . S
H267 C268 0.951 . S
C268 H267 0.951 . S
C268 C274 1.265 . S
H269 C274 0.950 . S
H270 C278 0.949 . S
H271 C279 0.950 . S
H272 C280 0.951 . S
H273 C281 0.951 . S
C274 C268 1.265 . S
C274 H269 0.950 . S
C274 C275 1.478 . S
C275 C262 1.394 . S
C275 C274 1.478 . S
C275 C276 1.397 . S
C276 C275 1.397 . S
C276 C277 1.438 . S
C276 C281 1.429 . S
C277 C260 1.394 . S
C277 C276 1.438 . S
C277 C278 1.428 . S
C278 H270 0.949 . S
C278 C277 1.428 . S
C278 C279 1.345 . S
C279 H271 0.950 . S
C279 C278 1.345 . S
C279 C280 1.424 . S
C280 H272 0.951 . S
C280 C279 1.424 . S
C280 C281 1.347 . S
C281 H273 0.951 . S
C281 C276 1.429 . S
C281 C280 1.347 . S
H282 C283 0.951 . S
C283 H282 0.951 . S
C283 C289 1.265 . S
H284 C289 0.950 . S
H285 C293 0.949 . S
H286 C294 0.950 . S
H287 C295 0.951 . S
H288 C296 0.951 . S
C289 C283 1.265 . S
C289 H284 0.950 . S
C289 C290 1.478 . S
C290 C289 1.478 . S
C290 C291 1.397 . S
C290 C307 1.394 . S
C291 C290 1.397 . S
C291 C292 1.438 . S
C291 C296 1.429 . S
C292 C291 1.438 . S
C292 C293 1.428 . S
C292 C305 1.394 . S
C293 H285 0.949 . S
C293 C292 1.428 . S
C293 C294 1.345 . S
C294 H286 0.950 . S
C294 C293 1.345 . S
C294 C295 1.424 . S
C295 H287 0.951 . S
C295 C294 1.424 . S
C295 C296 1.347 . S
C296 H288 0.951 . S
C296 C291 1.429 . S
C296 C295 1.347 . S
H297 C298 0.951 . S
C298 H297 0.951 . S
C298 C304 1.265 . S
H299 C304 0.950 . S
H300 C308 0.949 . S
H301 C309 0.950 . S
H302 C310 0.951 . S
H303 C311 0.951 . S
C304 C298 1.265 . S
C304 H299 0.950 . S
C304 C305 1.478 . S
C305 C292 1.394 . S
C305 C304 1.478 . S
C305 C306 1.397 . S
C306 C305 1.397 . S
C306 C307 1.438 . S
C306 C311 1.429 . S
C307 C290 1.394 . S
C307 C306 1.438 . S
C307 C308 1.428 . S
C308 H300 0.949 . S
C308 C307 1.428 . S
C308 C309 1.345 . S
C309 H301 0.950 . S
C309 C308 1.345 . S
C309 C310 1.424 . S
C310 H302 0.951 . S
C310 C309 1.424 . S
C310 C311 1.347 . S
C311 H303 0.951 . S
C311 C306 1.429 . S
C311 C310 1.347 . S
H312 C313 0.951 . S
C313 H312 0.951 . S
C313 C319 1.265 . S
H314 C319 0.950 . S
H315 C323 0.949 . S
H316 C324 0.950 . S
H317 C325 0.951 . S
H318 C326 0.951 . S
C319 C313 1.265 . S
C319 H314 0.950 . S
C319 C320 1.478 . S
C320 C319 1.478 . S
C320 C321 1.397 . S
C320 C337 1.394 . S
C321 C320 1.397 . S
C321 C322 1.438 . S
C321 C326 1.429 . S
C322 C321 1.438 . S
C322 C323 1.428 . S
C322 C335 1.394 . S
C323 H315 0.949 . S
C323 C322 1.428 . S
C323 C324 1.345 . S
C324 H316 0.950 . S
C324 C323 1.345 . S
C324 C325 1.424 . S
C325 H317 0.951 . S
C325 C324 1.424 . S
C325 C326 1.347 . S
C326 H318 0.951 . S
C326 C321 1.429 . S
C326 C325 1.347 . S
H327 C328 0.951 . S
C328 H327 0.951 . S
C328 C334 1.265 . S
H329 C334 0.950 . S
H330 C338 0.949 . S
H331 C339 0.950 . S
H332 C340 0.951 . S
H333 C341 0.951 . S
C334 C328 1.265 . S
C334 H329 0.950 . S
C334 C335 1.478 . S
C335 C322 1.394 . S
C335 C334 1.478 . S
C335 C336 1.397 . S
C336 C335 1.397 . S
C336 C337 1.438 . S
C336 C341 1.429 . S
C337 C320 1.394 . S
C337 C336 1.438 . S
C337 C338 1.428 . S
C338 H330 0.949 . S
C338 C337 1.428 . S
C338 C339 1.345 . S
C339 H331 0.950 . S
C339 C338 1.345 . S
C339 C340 1.424 . S
C340 H332 0.951 . S
C340 C339 1.424 . S
C340 C341 1.347 . S
C341 H333 0.951 . S
C341 C336 1.429 . S
C341 C340 1.347 . S
H342 C343 0.951 . S
C343 H342 0.951 . S
C343 C349 1.265 . S
H344 C349 0.950 . S
H345 C353 0.949 . S
H346 C354 0.950 . S
H347 C355 0.951 . S
H348 C356 0.951 . S
C349 C343 1.265 . S
C349 H344 0.950 . S
C349 C350 1.478 . S
C350 C349 1.478 . S
C350 C351 1.397 . S
C350 C367 1.394 . S
C351 C350 1.397 . S
C351 C352 1.438 . S
C351 C356 1.429 . S
C352 C351 1.438 . S
C352 C353 1.428 . S
C352 C365 1.394 . S
C353 H345 0.949 . S
C353 C352 1.428 . S
C353 C354 1.345 . S
C354 H346 0.950 . S
C354 C353 1.345 . S
C354 C355 1.424 . S
C355 H347 0.951 . S
C355 C354 1.424 . S
C355 C356 1.347 . S
C356 H348 0.951 . S
C356 C351 1.429 . S
C356 C355 1.347 . S
H357 C358 0.951 . S
C358 H357 0.951 . S
C358 C364 1.265 . S
H359 C364 0.950 . S
H360 C368 0.949 . S
H361 C369 0.950 1_655 S
H362 C370 0.951 . S
H363 C371 0.951 . S
C364 C358 1.265 . S
C364 H359 0.950 . S
C364 C365 1.478 . S
C365 C352 1.394 . S
C365 C364 1.478 . S
C365 C366 1.397 . S
C366 C365 1.397 . S
C366 C367 1.438 . S
C366 C371 1.429 . S
C367 C350 1.394 . S
C367 C366 1.438 . S
C367 C368 1.428 . S
C368 H360 0.949 . S
C368 C367 1.428 . S
C368 C369 1.345 . S
C369 H361 0.950 1_455 S
C369 C368 1.345 . S
C369 C370 1.424 . S
C370 H362 0.951 . S
C370 C369 1.424 . S
C370 C371 1.347 . S
C371 H363 0.951 . S
C371 C366 1.429 . S
C371 C370 1.347 . S
H372 C373 0.951 . S
C373 H372 0.951 . S
C373 C379 1.265 . S
H374 C379 0.950 . S
H375 C383 0.949 . S
H376 C384 0.950 . S
H377 C385 0.951 . S
H378 C386 0.951 . S
C379 C373 1.265 . S
C379 H374 0.950 . S
C379 C380 1.478 . S
C380 C379 1.478 . S
C380 C381 1.397 . S
C380 C397 1.394 . S
C381 C380 1.397 . S
C381 C382 1.438 . S
C381 C386 1.429 . S
C382 C381 1.438 . S
C382 C383 1.428 . S
C382 C395 1.394 . S
C383 H375 0.949 . S
C383 C382 1.428 . S
C383 C384 1.345 . S
C384 H376 0.950 . S
C384 C383 1.345 . S
C384 C385 1.424 . S
C385 H377 0.951 . S
C385 C384 1.424 . S
C385 C386 1.347 . S
C386 H378 0.951 . S
C386 C381 1.429 . S
C386 C385 1.347 . S
H387 C388 0.951 . S
C388 H387 0.951 . S
C388 C394 1.265 . S
H389 C394 0.950 . S
H390 C398 0.949 . S
H391 C399 0.950 1_554 S
H392 C400 0.951 . S
H393 C401 0.951 . S
C394 C388 1.265 . S
C394 H389 0.950 . S
C394 C395 1.478 . S
C395 C382 1.394 . S
C395 C394 1.478 . S
C395 C396 1.397 . S
C396 C395 1.397 . S
C396 C397 1.438 . S
C396 C401 1.429 . S
C397 C380 1.394 . S
C397 C396 1.438 . S
C397 C398 1.428 . S
C398 H390 0.949 . S
C398 C397 1.428 . S
C398 C399 1.345 . S
C399 H391 0.950 1_556 S
C399 C398 1.345 . S
C399 C400 1.424 . S
C400 H392 0.951 . S
C400 C399 1.424 . S
C400 C401 1.347 . S
C401 H393 0.951 . S
C401 C396 1.429 . S
C401 C400 1.347 . S
H402 C403 0.951 . S
C403 H402 0.951 . S
C403 C409 1.265 . S
H404 C409 0.950 . S
H405 C413 0.949 . S
H406 C414 0.950 . S
H407 C415 0.951 . S
H408 C416 0.951 . S
C409 C403 1.265 . S
C409 H404 0.950 . S
C409 C410 1.478 . S
C410 C409 1.478 . S
C410 C411 1.397 . S
C410 C427 1.394 . S
C411 C410 1.397 . S
C411 C412 1.438 . S
C411 C416 1.429 . S
C412 C411 1.438 . S
C412 C413 1.428 . S
C412 C425 1.394 . S
C413 H405 0.949 . S
C413 C412 1.428 . S
C413 C414 1.345 . S
C414 H406 0.950 . S
C414 C413 1.345 . S
C414 C415 1.424 . S
C415 H407 0.951 . S
C415 C414 1.424 . S
C415 C416 1.347 . S
C416 H408 0.951 . S
C416 C411 1.429 . S
C416 C415 1.347 . S
H417 C418 0.951 . S
C418 H417 0.951 . S
C418 C424 1.265 . S
H419 C424 0.950 . S
H420 C428 0.949 . S
H421 C429 0.950 . S
H422 C430 0.951 . S
H423 C431 0.951 . S
C424 C418 1.265 . S
C424 H419 0.950 . S
C424 C425 1.478 . S
C425 C412 1.394 . S
C425 C424 1.478 . S
C425 C426 1.397 . S
C426 C425 1.397 . S
C426 C427 1.438 . S
C426 C431 1.429 . S
C427 C410 1.394 . S
C427 C426 1.438 . S
C427 C428 1.428 . S
C428 H420 0.949 . S
C428 C427 1.428 . S
C428 C429 1.345 . S
C429 H421 0.950 . S
C429 C428 1.345 . S
C429 C430 1.424 . S
C430 H422 0.951 . S
C430 C429 1.424 . S
C430 C431 1.347 . S
C431 H423 0.951 . S
C431 C426 1.429 . S
C431 C430 1.347 . S
H432 C433 0.951 . S
C433 H432 0.951 . S
C433 C439 1.265 . S
H434 C439 0.950 . S
H435 C443 0.949 . S
H436 C444 0.950 . S
H437 C445 0.951 . S
H438 C446 0.951 . S
C439 C433 1.265 . S
C439 H434 0.950 . S
C439 C440 1.478 . S
C440 C439 1.478 . S
C440 C441 1.397 . S
C440 C457 1.394 . S
C441 C440 1.397 . S
C441 C442 1.438 . S
C441 C446 1.429 . S
C442 C441 1.438 . S
C442 C443 1.428 . S
C442 C455 1.394 . S
C443 H435 0.949 . S
C443 C442 1.428 . S
C443 C444 1.345 . S
C444 H436 0.950 . S
C444 C443 1.345 . S
C444 C445 1.424 . S
C445 H437 0.951 . S
C445 C444 1.424 . S
C445 C446 1.347 . S
C446 H438 0.951 . S
C446 C441 1.429 . S
C446 C445 1.347 . S
H447 C448 0.951 . S
C448 H447 0.951 . S
C448 C454 1.265 . S
H449 C454 0.950 . S
H450 C458 0.949 . S
H451 C459 0.950 . S
H452 C460 0.951 . S
H453 C461 0.951 . S
C454 C448 1.265 . S
C454 H449 0.950 . S
C454 C455 1.478 . S
C455 C442 1.394 . S
C455 C454 1.478 . S
C455 C456 1.397 . S
C456 C455 1.397 . S
C456 C457 1.438 . S
C456 C461 1.429 . S
C457 C440 1.394 . S
C457 C456 1.438 . S
C457 C458 1.428 . S
C458 H450 0.949 . S
C458 C457 1.428 . S
C458 C459 1.345 . S
C459 H451 0.950 . S
C459 C458 1.345 . S
C459 C460 1.424 . S
C460 H452 0.951 . S
C460 C459 1.424 . S
C460 C461 1.347 . S
C461 H453 0.951 . S
C461 C456 1.429 . S
C461 C460 1.347 . S
C103 C16 1.493 . S
C118 C79 1.409 . S
C133 N36 1.216 . S
C148 C85 1.151 . S
C163 N14 1.130 . S
C178 C76 1.069 . S
C193 C57 1.640 . S
C208 C101 1.514 . S
C223 C1 1.790 . S
C238 C67 1.595 . S
C268 C84 1.545 . S
C253 C40 1.666 . S
C283 C46 1.490 . S
C298 C80 1.376 . S
C328 C97 1.520 . S
C313 C10 1.664 . S
C358 C64 1.600 . S
C343 C31 1.791 . S
C388 C100 1.441 . S
C373 C27 1.605 . S
C418 C63 1.039 . S
C403 N44 1.197 . S
C448 C88 1.033 . S
C433 N6 1.234 . S
