# Generated by pormake.
# Topology ssa, (4,4)-cn, num edge types: 1
# Building blocks:
#     Node 0, Type 0, BuildingBlock: KOZSID_clean_sbu_0, # of connection points: 4
#     Node 1, Type 0, BuildingBlock: KOZSID_clean_sbu_0, # of connection points: 4
#     Node 2, Type 0, BuildingBlock: KOZSID_clean_sbu_0, # of connection points: 4
#     Node 3, Type 0, BuildingBlock: KOZSID_clean_sbu_0, # of connection points: 4
#     Node 4, Type 0, BuildingBlock: KOZSID_clean_sbu_0, # of connection points: 4
#     Node 5, Type 0, BuildingBlock: KOZSID_clean_sbu_0, # of connection points: 4
#     Node 6, Type 1, BuildingBlock: NAWXER_clean_sbu_0, # of connection points: 4
#     Node 7, Type 1, BuildingBlock: NAWXER_clean_sbu_0, # of connection points: 4
#     Node 8, Type 1, BuildingBlock: NAWXER_clean_sbu_0, # of connection points: 4
#     Node 9, Type 1, BuildingBlock: NAWXER_clean_sbu_0, # of connection points: 4
#     Node 10, Type 1, BuildingBlock: NAWXER_clean_sbu_0, # of connection points: 4
#     Node 11, Type 1, BuildingBlock: NAWXER_clean_sbu_0, # of connection points: 4
#     Edge 12, Type (0, 1), BuildingBlock: UVAHIK_clean_linker_0, # of connection points: 2
#     Edge 13, Type (0, 1), BuildingBlock: UVAHIK_clean_linker_0, # of connection points: 2
#     Edge 14, Type (0, 1), BuildingBlock: UVAHIK_clean_linker_0, # of connection points: 2
#     Edge 15, Type (0, 1), BuildingBlock: UVAHIK_clean_linker_0, # of connection points: 2
#     Edge 16, Type (0, 1), BuildingBlock: UVAHIK_clean_linker_0, # of connection points: 2
#     Edge 17, Type (0, 1), BuildingBlock: UVAHIK_clean_linker_0, # of connection points: 2
#     Edge 18, Type (0, 1), BuildingBlock: UVAHIK_clean_linker_0, # of connection points: 2
#     Edge 19, Type (0, 1), BuildingBlock: UVAHIK_clean_linker_0, # of connection points: 2
#     Edge 20, Type (0, 1), BuildingBlock: UVAHIK_clean_linker_0, # of connection points: 2
#     Edge 21, Type (0, 1), BuildingBlock: UVAHIK_clean_linker_0, # of connection points: 2
#     Edge 22, Type (0, 1), BuildingBlock: UVAHIK_clean_linker_0, # of connection points: 2
#     Edge 23, Type (0, 1), BuildingBlock: UVAHIK_clean_linker_0, # of connection points: 2
#     Edge 24, Type (0, 1), BuildingBlock: UVAHIK_clean_linker_0, # of connection points: 2
#     Edge 25, Type (0, 1), BuildingBlock: UVAHIK_clean_linker_0, # of connection points: 2
#     Edge 26, Type (0, 1), BuildingBlock: UVAHIK_clean_linker_0, # of connection points: 2
#     Edge 27, Type (0, 1), BuildingBlock: UVAHIK_clean_linker_0, # of connection points: 2
#     Edge 28, Type (0, 1), BuildingBlock: UVAHIK_clean_linker_0, # of connection points: 2
#     Edge 29, Type (0, 1), BuildingBlock: UVAHIK_clean_linker_0, # of connection points: 2
#     Edge 30, Type (0, 1), BuildingBlock: UVAHIK_clean_linker_0, # of connection points: 2
#     Edge 31, Type (0, 1), BuildingBlock: UVAHIK_clean_linker_0, # of connection points: 2
#     Edge 32, Type (0, 1), BuildingBlock: UVAHIK_clean_linker_0, # of connection points: 2
#     Edge 33, Type (0, 1), BuildingBlock: UVAHIK_clean_linker_0, # of connection points: 2
#     Edge 34, Type (0, 1), BuildingBlock: UVAHIK_clean_linker_0, # of connection points: 2
#     Edge 35, Type (0, 1), BuildingBlock: UVAHIK_clean_linker_0, # of connection points: 2
# Relax obj value: 0.010
# Max RMSD: 0.027
# Mean RMSD: 0.017
data_MOF--net-ssa--node1-KOZSID_clean_sbu_0--node2-NAWXER_clean_sbu_0--edge1-UVAHIK_clean_linker_0
_symmetry_space_group_name_H-M    P1
_symmetry_Int_Tables_number       1
_symmetry_cell_setting            triclinic
loop_
_symmetry_equiv_pos_as_xyz
'x, y, z'
_cell_length_a     62.468805
_cell_length_b     63.826545
_cell_length_c     53.314103
_cell_angle_alpha  87.691567
_cell_angle_beta   90.147334
_cell_angle_gamma 122.20764
loop_
_atom_site_label
_atom_site_type_symbol
_atom_site_fract_x
_atom_site_fract_y
_atom_site_fract_z
_atom_type_partial_charge
C0 C 0.96345 0.52414 0.99163 0.0
C1 C 0.94121 0.51901 0.00337 0.0
C2 C 0.93643 0.50256 0.02293 0.0
C3 C 0.95601 0.49874 0.02217 0.0
N4 N 0.97315 0.5119 0.00339 0.0
Co5 Co 0.00496 0.51255 0.99592 0.0
N6 N 0.99846 0.48921 0.02542 0.0
C7 C 0.97817 0.47825 0.04137 0.0
C8 C 0.97986 0.4644 0.06068 0.0
C9 C 0.00283 0.46705 0.05718 0.0
C10 C 0.01379 0.48237 0.03578 0.0
N11 N 0.03673 0.51317 0.9885 0.0
C12 C 0.04814 0.50375 0.00231 0.0
C13 C 0.07045 0.5088 0.99092 0.0
C14 C 0.0736 0.52249 0.96936 0.0
C15 C 0.05308 0.52491 0.96884 0.0
N16 N 0.0117 0.53616 0.96662 0.0
C17 C 0.03145 0.54605 0.95002 0.0
C18 C 0.03078 0.56128 0.93163 0.0
C19 C 0.00933 0.56113 0.9367 0.0
C20 C 0.99814 0.54584 0.95811 0.0
N21 N 0.02414 0.54099 0.01786 0.0
C22 C 0.05222 0.58013 0.05023 0.0
C23 C 0.06209 0.5801 0.02673 0.0
C24 C 0.04776 0.5606 0.01087 0.0
C25 C 0.0279 0.56045 0.05703 0.0
C26 C 0.01437 0.5412 0.04078 0.0
N27 N 0.98564 0.48388 0.97391 0.0
C28 C 0.98112 0.4639 0.93475 0.0
C29 C 0.9576 0.44348 0.94262 0.0
C30 C 0.94851 0.44354 0.9665 0.0
C31 C 0.96268 0.46365 0.98166 0.0
C32 C 0.99462 0.48374 0.95049 0.0
H33 H 0.95452 0.46233 -0.00047 0.0
H34 H 0.01216 0.49879 0.94312 0.0
H35 H 0.05623 0.5616 0.99315 0.0
H36 H 0.9962 0.52648 0.04735 0.0
C37 C 0.95912 0.48339 0.03919 0.0
C38 C 0.97417 0.5403 0.96903 0.0
C39 C 0.03948 0.49148 0.02703 0.0
C40 C 0.04998 0.54018 0.95174 0.0
H41 H 0.92958 0.52633 0.99826 0.0
H42 H 0.92064 0.49445 0.0362 0.0
H43 H 0.96652 0.4545 0.07612 0.0
H44 H 0.01092 0.45931 0.0695 0.0
H45 H 0.08349 0.5038 0.99796 0.0
H46 H 0.08952 0.53065 0.95623 0.0
H47 H 0.04412 0.57105 0.91616 0.0
H48 H 0.00259 0.57093 0.92559 0.0
H49 H 0.08079 0.59509 0.02057 0.0
H50 H 0.01957 0.55949 0.07517 0.0
H51 H 0.98889 0.46489 0.91629 0.0
H52 H 0.93054 0.42801 0.97365 0.0
C53 C 0.53982 0.00711 0.54474 0.0
C54 C 0.53857 0.99649 0.56836 0.0
C55 C 0.51399 0.97768 0.57246 0.0
C56 C 0.50167 0.97787 0.55122 0.0
N57 N 0.517 0.99543 0.53362 0.0
Co58 Co 0.50682 0.0026 0.50017 0.0
N59 N 0.47014 0.97769 0.50789 0.0
C60 C 0.45998 0.9645 0.52978 0.0
C61 C 0.43416 0.94903 0.52958 0.0
C62 C 0.42746 0.95232 0.50605 0.0
C63 C 0.4497 0.96955 0.49317 0.0
N64 N 0.49675 0.0089 0.46622 0.0
C65 C 0.47392 0.99695 0.45506 0.0
C66 C 0.47561 0.0058 0.43046 0.0
C67 C 0.50038 0.02384 0.42584 0.0
C68 C 0.51241 0.02487 0.4477 0.0
N69 N 0.54341 0.02838 0.49299 0.0
C70 C 0.55344 0.04305 0.47188 0.0
C71 C 0.57885 0.06033 0.47316 0.0
C72 C 0.58534 0.05692 0.49675 0.0
C73 C 0.56342 0.03767 0.50847 0.0
N74 N 0.51058 0.9766 0.48559 0.0
C75 C 0.51125 0.93863 0.46131 0.0
C76 C 0.52577 0.96318 0.45205 0.0
C77 C 0.52527 0.98173 0.46444 0.0
C78 C 0.4974 0.93355 0.48365 0.0
C79 C 0.49738 0.95269 0.49544 0.0
N80 N 0.50305 0.0286 0.51467 0.0
C81 C 0.5085 0.06907 0.51119 0.0
C82 C 0.50179 0.06726 0.53642 0.0
C83 C 0.49495 0.04561 0.55046 0.0
C84 C 0.49535 0.02648 0.53919 0.0
C85 C 0.5092 0.04972 0.50079 0.0
H86 H 0.48966 0.01031 0.55082 0.0
H87 H 0.51522 0.05254 0.48163 0.0
H88 H 0.53653 -2e-05 0.45622 0.0
H89 H 0.48605 0.94756 0.51214 0.0
C90 C 0.4754 0.96468 0.54891 0.0
C91 C 0.56236 0.02968 0.53469 0.0
C92 C 0.45055 0.97633 0.46657 0.0
C93 C 0.53835 0.04049 0.45142 0.0
H94 H 0.55358 0.00239 0.58172 0.0
H95 H 0.50579 0.96622 0.5895 0.0
H96 H 0.42181 0.93609 0.54439 0.0
H97 H 0.40846 0.94256 0.49888 0.0
H98 H 0.46064 0.99957 0.41701 0.0
H99 H 0.50872 0.03459 0.40845 0.0
H100 H 0.59105 0.07415 0.45887 0.0
H101 H 0.60395 0.0677 0.50467 0.0
H102 H 0.53733 0.96809 0.43511 0.0
H103 H 0.4859 0.91478 0.49158 0.0
H104 H 0.51392 0.08563 0.49971 0.0
H105 H 0.48925 0.04343 0.57005 0.0
C106 C 0.53519 0.51743 0.96945 0.0
C107 C 0.54025 0.53109 0.94693 0.0
C108 C 0.51862 0.53037 0.94092 0.0
C109 C 0.50168 0.51633 0.96 0.0
N110 N 0.51139 0.50858 0.9782 0.0
Co111 Co 0.49296 0.48597 0.0083 0.0
N112 N 0.45994 0.48093 0.99711 0.0
C113 C 0.45589 0.49092 0.97614 0.0
C114 C 0.43119 0.48407 0.9735 0.0
C115 C 0.41874 0.46909 0.99417 0.0
C116 C 0.4367 0.4678 0.00838 0.0
N117 N 0.47456 0.46328 0.03838 0.0
C118 C 0.44999 0.45211 0.04593 0.0
C119 C 0.44535 0.43885 0.06869 0.0
C120 C 0.46773 0.44175 0.07578 0.0
C121 C 0.48476 0.45666 0.05715 0.0
N122 N 0.52599 0.49089 0.0193 0.0
C123 C 0.53045 0.48185 0.04069 0.0
C124 C 0.55472 0.48699 0.04205 0.0
C125 C 0.56625 0.49951 0.01992 0.0
C126 C 0.54824 0.50123 0.00636 0.0
N127 N 0.4993 0.51478 0.02748 0.0
C128 C 0.5053 0.55394 0.05547 0.0
C129 C 0.509 0.53596 0.06642 0.0
C130 C 0.50625 0.51688 0.05211 0.0
C131 C 0.49912 0.55245 0.03022 0.0
C132 C 0.49602 0.53275 0.01674 0.0
N133 N 0.48678 0.45739 0.98919 0.0
C134 C 0.48955 0.42128 0.98566 0.0
C135 C 0.48484 0.42087 0.96008 0.0
C136 C 0.47983 0.43809 0.94951 0.0
C137 C 0.48049 0.45584 0.96441 0.0
C138 C 0.49056 0.43972 -0.00021 0.0
H139 H 0.47648 0.46849 0.95533 0.0
H140 H 0.49515 0.43974 0.01904 0.0
H141 H 0.50961 0.50397 0.06153 0.0
H142 H 0.49058 0.53234 0.99782 0.0
C143 C 0.47581 0.50737 0.95973 0.0
C144 C 0.55251 0.51118 0.98057 0.0
C145 C 0.4309 0.45484 0.03299 0.0
C146 C 0.5107 0.46587 0.05743 0.0
H147 H 0.55736 0.53969 0.93544 0.0
H148 H 0.5152 0.53792 0.92393 0.0
H149 H 0.42325 0.48967 0.95855 0.0
H150 H 0.39879 0.46047 0.99857 0.0
H151 H 0.42781 0.42863 0.0795 0.0
H152 H 0.47131 0.43445 0.09285 0.0
H153 H 0.56265 0.48111 0.05673 0.0
H154 H 0.58538 0.50579 0.01394 0.0
H155 H 0.51411 0.53667 0.08595 0.0
H156 H 0.49598 0.56604 0.02109 0.0
H157 H 0.49338 0.40806 0.99449 0.0
H158 H 0.47563 0.43798 0.92976 0.0
C159 C 0.93936 0.43988 0.49028 0.0
C160 C 0.91711 0.42841 0.47699 0.0
C161 C 0.9198 0.4451 0.45847 0.0
C162 C 0.94341 0.46569 0.46164 0.0
N163 N 0.95625 0.46291 0.48058 0.0
Co164 Co 0.98981 0.48878 0.4938 0.0
N165 N 0.99268 0.5144 0.46863 0.0
C166 C 0.97608 0.51115 0.45053 0.0
C167 C 0.98417 0.53165 0.43484 0.0
C168 C 0.00763 0.54884 0.44297 0.0
C169 C 0.01243 0.53778 0.46333 0.0
N170 N 0.02284 0.51488 0.50775 0.0
C171 C 0.0393 0.53843 0.49907 0.0
C172 C 0.06038 0.55046 0.51399 0.0
C173 C 0.05741 0.53363 0.53249 0.0
C174 C 0.03471 0.51243 0.52786 0.0
N175 N 0.98752 0.46297 0.51822 0.0
C176 C 0.00507 0.46564 0.5349 0.0
C177 C 0.99767 0.44459 0.54949 0.0
C178 C 0.97379 0.42766 0.54201 0.0
C179 C 0.96803 0.43947 0.52324 0.0
N180 N 0.00789 0.48029 0.46958 0.0
C181 C 0.03395 0.46859 0.43539 0.0
C182 C 0.04269 0.47538 0.45964 0.0
C183 C 0.02946 0.481 0.47629 0.0
C184 C 0.01187 0.46763 0.42853 0.0
C185 C 0.99933 0.47368 0.44572 0.0
N186 N 0.97155 0.49697 0.51813 0.0
C187 C 0.95978 0.49801 0.56106 0.0
C188 C 0.94157 0.50295 0.55301 0.0
C189 C 0.93922 0.50575 0.52724 0.0
C190 C 0.95419 0.50259 0.51024 0.0
C191 C 0.97466 0.49543 0.54347 0.0
H192 H 0.95099 0.50427 0.49083 0.0
H193 H 0.98825 0.49178 0.55087 0.0
H194 H 0.03716 0.48594 0.49448 0.0
H195 H 0.98289 0.47305 0.43918 0.0
C196 C 0.95348 0.48834 0.4482 0.0
C197 C 0.94288 0.429 0.51309 0.0
C198 C 0.03671 0.54938 0.47573 0.0
C199 C 0.02618 0.48909 0.53929 0.0
H200 H 0.90043 0.41018 0.48089 0.0
H201 H 0.90584 0.44286 0.44496 0.0
H202 H 0.97452 0.5336 0.41888 0.0
H203 H 0.02009 0.56713 0.43436 0.0
H204 H 0.07668 0.56911 0.51109 0.0
H205 H 0.07088 0.5361 0.5467 0.0
H206 H 0.00773 0.44232 0.56486 0.0
H207 H 0.96154 0.40921 0.55037 0.0
H208 H 0.05962 0.47617 0.46588 0.0
H209 H 0.00457 0.46275 0.40979 0.0
H210 H 0.96259 0.49618 0.5809 0.0
H211 H 0.92534 0.50963 0.52018 0.0
C212 C 0.45088 0.98277 0.04263 0.0
C213 C 0.4451 0.99132 0.06349 0.0
C214 C 0.46371 0.01573 0.06484 0.0
C215 C 0.47973 0.02064 0.04486 0.0
N216 N 0.47214 0.00097 0.03047 0.0
Co217 Co 0.49053 0.99905 0.00074 0.0
N218 N 0.5199 0.03367 0.0051 0.0
C219 C 0.5227 0.04919 0.02319 0.0
C220 C 0.54464 0.07205 0.02071 0.0
C221 C 0.55631 0.07128 -0.00051 0.0
C222 C 0.54067 0.04791 0.99023 0.0
N223 N 0.50887 0.99711 0.971 0.0
C224 C 0.53067 0.01502 0.95937 0.0
C225 C 0.5363 0.00644 0.93842 0.0
C226 C 0.51714 0.98232 0.93654 0.0
C227 C 0.50095 0.97759 0.9563 0.0
N228 N 0.46119 0.96439 0.99651 0.0
C229 C 0.45818 0.94892 0.9783 0.0
C230 C 0.43662 0.92581 0.9813 0.0
C231 C 0.42551 0.92634 0.00307 0.0
C232 C 0.44106 0.94983 0.01206 0.0
N233 N 0.47473 0.01242 0.97813 0.0
C234 C 0.45914 0.03552 0.94292 0.0
C235 C 0.45646 0.01292 0.93815 0.0
C236 C 0.46439 0.00181 0.95585 0.0
C237 C 0.46833 0.04563 0.96616 0.0
C238 C 0.47563 0.0337 0.98347 0.0
N239 N 0.50643 0.9858 0.02323 0.0
C240 C 0.51602 0.95449 0.03385 0.0
C241 C 0.52606 0.96509 0.05679 0.0
C242 C 0.52673 0.98668 0.06222 0.0
C243 C 0.5168 0.99653 0.04542 0.0
C244 C 0.50657 0.96515 0.01745 0.0
H245 H 0.51742 0.01265 0.05101 0.0
H246 H 0.49902 0.95606 0.0004 0.0
H247 H 0.46266 0.98506 0.9507 0.0
H248 H 0.48257 0.04246 0.00074 0.0
C249 C 0.50343 0.04243 0.04097 0.0
C250 C 0.4371 0.95682 0.0364 0.0
C251 C 0.5454 0.04076 0.96632 0.0
C252 C 0.47726 0.9558 0.96026 0.0
H253 H 0.42967 0.98078 0.07695 0.0
H254 H 0.46603 0.02805 0.07944 0.0
H255 H 0.55091 0.08772 0.03237 0.0
H256 H 0.5739 0.08644 0.99124 0.0
H257 H 0.55214 0.01677 0.92536 0.0
H258 H 0.51476 0.97001 0.9219 0.0
H259 H 0.43039 0.91008 0.96973 0.0
H260 H 0.40845 0.91094 0.01191 0.0
H261 H 0.44937 0.0044 0.92036 0.0
H262 H 0.47028 0.06293 0.97082 0.0
H263 H 0.51473 0.93761 0.02877 0.0
H264 H 0.53475 0.99597 0.07946 0.0
C265 C 0.52708 0.5637 0.48478 0.0
C266 C 0.52444 0.58278 0.49234 0.0
C267 C 0.5089 0.5739 0.51312 0.0
C268 C 0.50289 0.54999 0.51702 0.0
N269 N 0.51387 0.5431 0.50014 0.0
Co270 Co 0.50931 0.50961 0.49815 0.0
N271 N 0.48569 0.49629 0.52824 0.0
C272 C 0.47801 0.50863 0.54192 0.0
C273 C 0.46227 0.49481 0.56183 0.0
C274 C 0.45998 0.47237 0.56107 0.0
C275 C 0.47457 0.47386 0.54068 0.0
N276 N 0.50452 0.47603 0.49599 0.0
C277 C 0.4913 0.45541 0.51133 0.0
C278 C 0.49329 0.43608 0.50329 0.0
C279 C 0.50842 0.44482 0.48222 0.0
C280 C 0.51483 0.46889 0.47861 0.0
N281 N 0.5332 0.52298 0.4683 0.0
C282 C 0.54119 0.51074 0.45488 0.0
C283 C 0.55759 0.52479 0.43546 0.0
C284 C 0.56007 0.5473 0.43633 0.0
C285 C 0.54486 0.5456 0.45625 0.0
N286 N 0.53832 0.5199 0.52058 0.0
C287 C 0.57992 0.53508 0.55214 0.0
C288 C 0.57767 0.52292 0.53015 0.0
C289 C 0.55679 0.51532 0.51496 0.0
C290 C 0.56094 0.53956 0.55797 0.0
C291 C 0.54061 0.53204 0.54199 0.0
N292 N 0.4804 0.49955 0.47556 0.0
C293 C 0.46136 0.48594 0.43516 0.0
C294 C 0.44254 0.49046 0.44117 0.0
C295 C 0.44221 0.49854 0.46497 0.0
C296 C 0.46129 0.5031 0.4817 0.0
C297 C 0.47974 0.49019 0.45267 0.0
H298 H 0.46043 0.51001 0.49923 0.0
H299 H 0.49347 0.4862 0.44704 0.0
H300 H 0.55603 0.50573 0.49881 0.0
H301 H 0.5269 0.53611 0.54747 0.0
C302 C 0.48647 0.53341 0.53593 0.0
C303 C 0.54134 0.56565 0.46225 0.0
C304 C 0.47777 0.45367 0.53435 0.0
C305 C 0.53186 0.48566 0.46019 0.0
H306 H 0.53252 0.60109 0.48349 0.0
H307 H 0.50237 0.58357 0.52384 0.0
H308 H 0.45379 0.50051 0.57549 0.0
H309 H 0.44907 0.45676 0.57422 0.0
H310 H 0.48513 0.41773 0.51206 0.0
H311 H 0.51462 0.43503 0.47125 0.0
H312 H 0.56628 0.51917 0.42196 0.0
H313 H 0.57141 0.56308 0.42348 0.0
H314 H 0.59196 0.51924 0.52451 0.0
H315 H 0.5614 0.54844 0.57502 0.0
H316 H 0.46197 0.47925 0.41698 0.0
H317 H 0.42783 0.50223 0.47031 0.0
C318 C 0.26419 0.47117 0.25837 0.0
C319 C 0.20915 0.47339 0.19518 0.0
O320 O 0.24547 0.44946 0.25377 0.0
Zn321 Zn 0.21382 0.43315 0.22909 0.0
O322 O 0.2669 0.49007 0.24635 0.0
Zn323 Zn 0.23716 0.47275 0.22652 0.0
O324 O 0.20714 0.45752 0.25397 0.0
O325 O 0.18498 0.41671 0.25254 0.0
O326 O 0.22876 0.4917 0.20422 0.0
O327 O 0.20205 0.45125 0.20283 0.0
O328 O 0.22151 0.4139 0.2074 0.0
O329 O 0.24722 0.45433 0.2012 0.0
C330 C 0.18864 0.4363 0.26205 0.0
C331 C 0.24018 0.43226 0.19557 0.0
C332 C 0.77137 0.26835 0.70806 0.0
C333 C 0.7184 0.21555 0.77862 0.0
O334 O 0.75418 0.26964 0.71924 0.0
Zn335 Zn 0.74492 0.24277 0.74374 0.0
O336 O 0.77692 0.25263 0.71602 0.0
Zn337 Zn 0.76541 0.22439 0.74492 0.0
O338 O 0.75401 0.19525 0.72512 0.0
O339 O 0.73061 0.21152 0.72064 0.0
O340 O 0.73538 0.21116 0.77222 0.0
O341 O 0.71692 0.2324 0.76676 0.0
O342 O 0.77647 0.25832 0.76805 0.0
O343 O 0.79552 0.23765 0.76554 0.0
C344 C 0.73544 0.19509 0.71499 0.0
C345 C 0.79422 0.25503 0.77478 0.0
C346 C 0.52543 0.77726 0.29496 0.0
C347 C 0.52636 0.73288 0.22358 0.0
O348 O 0.54791 0.78613 0.28618 0.0
Zn349 Zn 0.56585 0.77875 0.2565 0.0
O350 O 0.50683 0.75891 0.28481 0.0
Zn351 Zn 0.52576 0.75497 0.25911 0.0
O352 O 0.54622 0.74204 0.2795 0.0
O353 O 0.58711 0.76993 0.27502 0.0
O354 O 0.50741 0.72891 0.23655 0.0
O355 O 0.54871 0.75062 0.22891 0.0
O356 O 0.58128 0.8093 0.23575 0.0
O357 O 0.53956 0.78753 0.23517 0.0
C358 C 0.56919 0.74916 0.28416 0.0
C359 C 0.5608 0.80667 0.2278 0.0
C360 C 0.8135 0.56718 0.80328 0.0
C361 C 0.75673 0.56708 0.74074 0.0
O362 O 0.79559 0.54536 0.79795 0.0
Zn363 Zn 0.76429 0.52825 0.77352 0.0
O364 O 0.81541 0.58595 0.79175 0.0
Zn365 Zn 0.78606 0.56772 0.77101 0.0
O366 O 0.75511 0.55082 0.79846 0.0
O367 O 0.73622 0.51018 0.79699 0.0
O368 O 0.77678 0.58594 0.7484 0.0
O369 O 0.75044 0.54525 0.74861 0.0
O370 O 0.77268 0.50993 0.75179 0.0
O371 O 0.79766 0.55038 0.74527 0.0
C372 C 0.7377 0.5289 0.80639 0.0
C373 C 0.79109 0.52836 0.73985 0.0
C374 C 0.28079 0.78947 0.2369 0.0
C375 C 0.22495 0.73444 0.30532 0.0
O376 O 0.26353 0.79352 0.24306 0.0
Zn377 Zn 0.23282 0.77988 0.2695 0.0
O378 O 0.28234 0.77266 0.24881 0.0
Zn379 Zn 0.2535 0.76159 0.27122 0.0
O380 O 0.22306 0.74693 0.24562 0.0
O381 O 0.20378 0.76745 0.24738 0.0
O382 O 0.24299 0.7339 0.29505 0.0
O383 O 0.21976 0.75044 0.29739 0.0
O384 O 0.24374 0.80864 0.2898 0.0
O385 O 0.26678 0.79205 0.29498 0.0
C386 C 0.20568 0.75044 0.23805 0.0
C387 C 0.26187 0.80843 0.30053 0.0
C388 C 0.48037 0.2689 0.76948 0.0
C389 C 0.4854 0.23109 0.69456 0.0
O390 O 0.50012 0.27387 0.75731 0.0
Zn391 Zn 0.48313 0.2504 0.73196 0.0
O392 O 0.45841 0.25244 0.7618 0.0
Zn393 Zn 0.44284 0.2277 0.7312 0.0
O394 O 0.4251 0.19529 0.74907 0.0
O395 O 0.46653 0.21592 0.75308 0.0
O396 O 0.46244 0.22252 0.70153 0.0
O397 O 0.50348 0.2475 0.7071 0.0
O398 O 0.46537 0.2663 0.71153 0.0
O399 O 0.42406 0.23963 0.71276 0.0
C400 C 0.44461 0.19666 0.75827 0.0
C401 C 0.44307 0.26062 0.70556 0.0
C402 C 0.07706 0.51246 0.05423 0.0
C403 C 0.05773 0.49059 0.04402 0.0
C404 C 0.09492 0.51201 0.06963 0.0
C405 C 0.12261 0.4746 0.08542 0.0
H406 H 0.14319 0.51159 0.14609 0.0
C407 C 0.17418 0.45669 0.16452 0.0
C408 C 0.19411 0.47719 0.1762 0.0
C409 C 0.15929 0.45984 0.14716 0.0
C410 C 0.1379 0.50146 0.12902 0.0
H411 H 0.04171 0.45128 0.04126 0.0
H412 H 0.07266 0.45021 0.06868 0.0
H413 H 0.11327 0.51389 0.11839 0.0
H414 H 0.21424 0.51713 0.17863 0.0
H415 H 0.18803 0.52261 0.14817 0.0
H416 H 0.1469 0.46183 0.0963 0.0
C417 C 0.07427 0.46777 0.06466 0.0
C418 C 0.12076 0.50275 0.11317 0.0
C419 C 0.05645 0.46827 0.04921 0.0
C420 C 0.19901 0.50098 0.16994 0.0
C421 C 0.18395 0.50411 0.15263 0.0
C422 C 0.13968 0.47326 0.1013 0.0
C423 C 0.09375 0.48966 0.07499 0.0
C424 C 0.11272 0.48911 0.09133 0.0
C425 C 0.1639 0.48353 0.14113 0.0
C426 C 0.14727 0.48645 0.1234 0.0
H427 H 0.07837 0.52988 0.05014 0.0
H428 H 0.10986 0.52921 0.07703 0.0
H429 H 0.11719 0.46427 0.06848 0.0
H430 H 0.16989 0.4381 0.16889 0.0
H431 H 0.14377 0.44359 0.13886 0.0
C432 C 0.58407 0.06797 0.55913 0.0
C433 C 0.58255 0.04636 0.55189 0.0
C434 C 0.60268 0.08367 0.5756 0.0
C435 C 0.64577 0.08524 0.62421 0.0
H436 H 0.67749 0.15631 0.61384 0.0
C437 C 0.72325 0.15786 0.68944 0.0
C438 C 0.71962 0.17688 0.69609 0.0
C439 C 0.70833 0.14137 0.67101 0.0
C440 C 0.66874 0.1365 0.61707 0.0
H441 H 0.59919 0.02417 0.55561 0.0
H442 H 0.63205 0.05175 0.58449 0.0
H443 H 0.64825 0.12879 0.58298 0.0
H444 H 0.6972 0.19321 0.68867 0.0
H445 H 0.67152 0.16474 0.65696 0.0
H446 H 0.66619 0.09314 0.65856 0.0
C447 C 0.6187 0.05645 0.57771 0.0
C448 C 0.65192 0.12071 0.5994 0.0
C449 C 0.60004 0.04074 0.56115 0.0
C450 C 0.70068 0.17889 0.68405 0.0
C451 C 0.686 0.16264 0.66566 0.0
C452 C 0.66269 0.10111 0.64194 0.0
C453 C 0.62024 0.07813 0.58514 0.0
C454 C 0.63979 0.09486 0.60298 0.0
C455 C 0.68972 0.14379 0.65874 0.0
C456 C 0.67393 0.1269 0.63882 0.0
H457 H 0.57064 0.07253 0.55221 0.0
H458 H 0.60303 0.09997 0.58121 0.0
H459 H 0.63665 0.06542 0.62764 0.0
H460 H 0.73766 0.15579 0.69835 0.0
H461 H 0.71165 0.12703 0.66604 0.0
C462 C 0.49297 0.56764 0.09294 0.0
C463 C 0.50717 0.57374 0.07051 0.0
C464 C 0.49442 0.58625 0.10711 0.0
C465 C 0.53627 0.64963 0.12303 0.0
H466 H 0.47547 0.64717 0.14372 0.0
C467 C 0.54177 0.72448 0.18434 0.0
C468 C 0.52296 0.71655 0.20312 0.0
C469 C 0.53926 0.70852 0.1658 0.0
C470 C 0.49263 0.648 0.1384 0.0
H471 H 0.53413 0.60382 0.04526 0.0
H472 H 0.5373 0.63661 0.07061 0.0
H473 H 0.47232 0.61605 0.11621 0.0
H474 H 0.48668 0.68583 0.21718 0.0
H475 H 0.48273 0.65762 0.18559 0.0
H476 H 0.55659 0.68065 0.1461 0.0
C477 C 0.52483 0.61741 0.07696 0.0
C478 C 0.49079 0.63027 0.12252 0.0
C479 C 0.52297 0.59874 0.06249 0.0
C480 C 0.5014 0.69251 0.20281 0.0
C481 C 0.49908 0.67638 0.18455 0.0
C482 C 0.53811 0.6671 0.13929 0.0
C483 C 0.51047 0.61126 0.09931 0.0
C484 C 0.51257 0.63085 0.11488 0.0
C485 C 0.51808 0.68409 0.16591 0.0
C486 C 0.51628 0.6664 0.14738 0.0
H487 H 0.48054 0.54844 0.09936 0.0
H488 H 0.48333 0.58113 0.1244 0.0
H489 H 0.5533 0.65026 0.11752 0.0
H490 H 0.5585 0.74304 0.184 0.0
H491 H 0.55401 0.71533 0.15146 0.0
C492 C 0.92157 0.52491 0.56977 0.0
C493 C 0.92502 0.50488 0.57144 0.0
C494 C 0.90646 0.52698 0.58757 0.0
C495 C 0.85434 0.49113 0.63337 0.0
H496 H 0.88147 0.5538 0.66503 0.0
C497 C 0.80335 0.502 0.71791 0.0
C498 C 0.80514 0.52476 0.71987 0.0
C499 C 0.81747 0.49914 0.69952 0.0
C500 C 0.87334 0.53626 0.65613 0.0
H501 H 0.91483 0.47095 0.59254 0.0
H502 H 0.88812 0.47442 0.62349 0.0
H503 H 0.90658 0.54968 0.63304 0.0
H504 H 0.8225 0.56213 0.70353 0.0
H505 H 0.84628 0.55693 0.67105 0.0
H506 H 0.82087 0.47777 0.65596 0.0
C507 C 0.89725 0.48859 0.60853 0.0
C508 C 0.88784 0.53391 0.63784 0.0
C509 C 0.91267 0.48671 0.59097 0.0
C510 C 0.82091 0.54441 0.70273 0.0
C511 C 0.83471 0.54147 0.68416 0.0
C512 C 0.83966 0.49355 0.65144 0.0
C513 C 0.89416 0.50886 0.60714 0.0
C514 C 0.87852 0.51132 0.62631 0.0
C515 C 0.83345 0.51889 0.68244 0.0
C516 C 0.84897 0.51616 0.66311 0.0
H517 H 0.93093 0.53919 0.55495 0.0
H518 H 0.90425 0.5427 0.58594 0.0
H519 H 0.8466 0.47355 0.62462 0.0
H520 H 0.79146 0.48653 0.73093 0.0
H521 H 0.81621 0.48157 0.69907 0.0
C522 C 0.43096 0.92397 0.06777 0.0
C523 C 0.42152 0.93729 0.05582 0.0
C524 C 0.41636 0.90546 0.08616 0.0
C525 C 0.35041 0.8646 0.10973 0.0
H526 H 0.38128 0.8621 0.1721 0.0
C527 C 0.29271 0.81915 0.20014 0.0
C528 C 0.29797 0.80402 0.21541 0.0
C529 C 0.30831 0.83287 0.1796 0.0
C530 C 0.3725 0.8623 0.15462 0.0
H531 H 0.38976 0.94192 0.05297 0.0
H532 H 0.36417 0.90978 0.08543 0.0
H533 H 0.40768 0.89125 0.13789 0.0
H534 H 0.32389 0.79154 0.22113 0.0
H535 H 0.3516 0.81602 0.18502 0.0
H536 H 0.31517 0.83622 0.1267 0.0
C537 C 0.38266 0.91332 0.08052 0.0
C538 C 0.38758 0.87898 0.13505 0.0
C539 C 0.39727 0.9318 0.06215 0.0
C540 C 0.31935 0.80302 0.20969 0.0
C541 C 0.33521 0.81704 0.18913 0.0
C542 C 0.33538 0.84803 0.12927 0.0
C543 C 0.39204 0.89995 0.09274 0.0
C544 C 0.37658 0.88069 0.11261 0.0
C545 C 0.32968 0.83195 0.17382 0.0
C546 C 0.34618 0.84713 0.15211 0.0
H547 H 0.44965 0.92798 0.06289 0.0
H548 H 0.424 0.89534 0.09505 0.0
H549 H 0.34145 0.86506 0.09247 0.0
H550 H 0.27639 0.82038 0.20395 0.0
H551 H 0.30381 0.84452 0.16841 0.0
C552 C 0.4477 0.40928 0.54873 0.0
C553 C 0.46948 0.4325 0.5527 0.0
C554 C 0.44011 0.38945 0.5662 0.0
C555 C 0.44951 0.37544 0.63225 0.0
H556 H 0.42888 0.31078 0.60849 0.0
C557 C 0.45956 0.30407 0.69035 0.0
C558 C 0.44023 0.27887 0.69036 0.0
C559 C 0.45839 0.32155 0.67492 0.0
C560 C 0.43414 0.3286 0.61543 0.0
H561 H 0.50035 0.45361 0.57767 0.0
H562 H 0.48749 0.41904 0.60807 0.0
H563 H 0.43622 0.34401 0.57841 0.0
H564 H 0.40421 0.25227 0.67449 0.0
H565 H 0.40238 0.28307 0.64687 0.0
H566 H 0.44842 0.36031 0.66914 0.0
C567 C 0.47594 0.41603 0.5918 0.0
C568 C 0.43837 0.34766 0.59821 0.0
C569 C 0.48346 0.43578 0.57437 0.0
C570 C 0.41934 0.27158 0.67491 0.0
C571 C 0.41836 0.28914 0.65905 0.0
C572 C 0.44542 0.35647 0.6494 0.0
C573 C 0.45416 0.39259 0.58797 0.0
C574 C 0.44677 0.37151 0.60636 0.0
C575 C 0.43799 0.3143 0.65884 0.0
C576 C 0.43833 0.33303 0.64112 0.0
H577 H 0.43662 0.40652 0.53213 0.0
H578 H 0.42315 0.37174 0.56277 0.0
H579 H 0.45534 0.39338 0.63926 0.0
H580 H 0.47586 0.31031 0.70213 0.0
H581 H 0.47395 0.34071 0.67498 0.0
C582 C 0.51083 0.89911 0.45954 0.0
C583 C 0.50986 0.91844 0.44716 0.0
C584 C 0.50971 0.8803 0.44589 0.0
C585 C 0.49064 0.85095 0.38469 0.0
H586 H 0.54005 0.83297 0.39779 0.0
C587 C 0.49682 0.7811 0.32478 0.0
C588 C 0.52138 0.789 0.31625 0.0
C589 C 0.49317 0.79342 0.3438 0.0
C590 C 0.5261 0.83776 0.39396 0.0
H591 H 0.50623 0.93285 0.41093 0.0
H592 H 0.5047 0.90036 0.38715 0.0
H593 H 0.53755 0.8615 0.42498 0.0
H594 H 0.56138 0.81545 0.32161 0.0
H595 H 0.55499 0.83699 0.35448 0.0
H596 H 0.4799 0.8281 0.35306 0.0
C597 C 0.50615 0.89959 0.40738 0.0
C598 C 0.5245 0.85389 0.40967 0.0
C599 C 0.50738 0.91839 0.42096 0.0
C600 C 0.5422 0.80892 0.32768 0.0
C601 C 0.53855 0.82116 0.3467 0.0
C602 C 0.4922 0.83479 0.36902 0.0
C603 C 0.50739 0.88038 0.41966 0.0
C604 C 0.50714 0.8611 0.40483 0.0
C605 C 0.514 0.81379 0.35472 0.0
C606 C 0.51032 0.82845 0.37316 0.0
H607 H 0.51283 0.89874 0.47971 0.0
H608 H 0.51059 0.86566 0.45586 0.0
H609 H 0.47684 0.85592 0.38071 0.0
H610 H 0.48039 0.76573 0.31644 0.0
H611 H 0.47403 0.78716 0.34978 0.0
C612 C 0.56863 0.49002 0.95552 0.0
C613 C 0.57244 0.51198 0.96478 0.0
C614 C 0.58689 0.49067 0.93983 0.0
C615 C 0.65444 0.53025 0.91968 0.0
H616 H 0.63211 0.49001 0.86127 0.0
C617 C 0.72195 0.54653 0.83722 0.0
C618 C 0.71932 0.5257 0.82606 0.0
C619 C 0.70439 0.54378 0.85532 0.0
C620 C 0.63867 0.5011 0.87768 0.0
H621 H 0.59806 0.55167 0.96563 0.0
H622 H 0.63003 0.55305 0.9379 0.0
H623 H 0.60086 0.48725 0.89079 0.0
H624 H 0.69621 0.4856 0.82539 0.0
H625 H 0.66553 0.48082 0.85709 0.0
H626 H 0.69225 0.54437 0.90633 0.0
C627 C 0.61316 0.53525 0.94288 0.0
C628 C 0.62075 0.49952 0.89462 0.0
C629 C 0.59488 0.53456 0.95859 0.0
C630 C 0.69878 0.50203 0.83359 0.0
C631 C 0.68113 0.49929 0.85165 0.0
C632 C 0.67235 0.53187 0.90271 0.0
C633 C 0.60933 0.51333 0.93316 0.0
C634 C 0.62841 0.51423 0.91572 0.0
C635 C 0.68371 0.52016 0.86267 0.0
C636 C 0.66468 0.51748 0.88139 0.0
H637 H 0.55138 0.47241 0.96022 0.0
H638 H 0.58347 0.47342 0.93298 0.0
H639 H 0.66103 0.54151 0.93596 0.0
H640 H 0.73751 0.56505 0.83187 0.0
H641 H 0.70676 0.56026 0.86318 0.0
C642 C 0.06418 0.59392 0.46143 0.0
C643 C 0.05955 0.56989 0.46254 0.0
C644 C 0.0845 0.6127 0.44698 0.0
C645 C 0.14459 0.63053 0.41464 0.0
H646 H 0.12776 0.66937 0.37075 0.0
C647 C 0.20886 0.69465 0.33093 0.0
C648 C 0.20949 0.71679 0.32617 0.0
C649 C 0.19239 0.67729 0.34945 0.0
C650 C 0.13295 0.65899 0.38313 0.0
H651 H 0.07262 0.54646 0.45075 0.0
H652 H 0.10829 0.57933 0.42531 0.0
H653 H 0.09609 0.63857 0.40037 0.0
H654 H 0.19458 0.73879 0.33808 0.0
H655 H 0.16652 0.70899 0.37052 0.0
H656 H 0.18154 0.65102 0.39717 0.0
C657 C 0.0964 0.58378 0.43561 0.0
C658 C 0.11477 0.64132 0.40012 0.0
C659 C 0.07602 0.565 0.45001 0.0
C660 C 0.19424 0.72172 0.34098 0.0
C661 C 0.17804 0.70456 0.35953 0.0
C662 C 0.16291 0.64836 0.39764 0.0
C663 C 0.10052 0.6077 0.43352 0.0
C664 C 0.12036 0.62692 0.4161 0.0
C665 C 0.17644 0.68189 0.36361 0.0
C666 C 0.15728 0.66284 0.38175 0.0
H667 H 0.05169 0.59796 0.47119 0.0
H668 H 0.08745 0.63104 0.44602 0.0
H669 H 0.14946 0.61975 0.42682 0.0
H670 H 0.22043 0.69039 0.31981 0.0
H671 H 0.19152 0.65994 0.35207 0.0
C672 C 0.47263 0.07437 0.91731 0.0
C673 C 0.4542 0.04938 0.9232 0.0
C674 C 0.4689 0.08737 0.89793 0.0
C675 C 0.42183 0.09153 0.86206 0.0
H676 H 0.47647 0.12775 0.81282 0.0
C677 C 0.41974 0.15417 0.78024 0.0
C678 C 0.44274 0.17683 0.77542 0.0
C679 C 0.41876 0.13587 0.79663 0.0
C680 C 0.46109 0.11793 0.8265 0.0
H681 H 0.41721 0.0185 0.9138 0.0
H682 H 0.4104 0.04162 0.88003 0.0
H683 H 0.47916 0.10129 0.84518 0.0
H684 H 0.48259 0.19814 0.78452 0.0
H685 H 0.48076 0.16689 0.81309 0.0
H686 H 0.40426 0.10907 0.84402 0.0
C687 C 0.42778 0.05095 0.89039 0.0
C688 C 0.46262 0.10269 0.84495 0.0
C689 C 0.43172 0.03775 0.90957 0.0
C690 C 0.46457 0.18083 0.78748 0.0
C691 C 0.46357 0.16275 0.80382 0.0
C692 C 0.42043 0.1071 0.84371 0.0
C693 C 0.44652 0.07579 0.88421 0.0
C694 C 0.4433 0.08977 0.86324 0.0
C695 C 0.44077 0.13994 0.8085 0.0
C696 C 0.44038 0.12098 0.82609 0.0
H697 H 0.49023 0.08371 0.92734 0.0
H698 H 0.48356 0.10656 0.89365 0.0
H699 H 0.40669 0.08174 0.876 0.0
H700 H 0.40257 0.15053 0.77127 0.0
H701 H 0.40089 0.11847 0.79977 0.0
C702 C 0.43245 0.50062 0.39889 0.0
C703 C 0.42402 0.48783 0.42234 0.0
C704 C 0.41508 0.49907 0.38136 0.0
C705 C 0.35142 0.45957 0.36031 0.0
H706 H 0.3566 0.51974 0.33419 0.0
C707 C 0.2749 0.45556 0.29692 0.0
C708 C 0.28237 0.4739 0.27763 0.0
C709 C 0.29207 0.45766 0.31497 0.0
C710 C 0.35509 0.50276 0.34091 0.0
H711 H 0.3911 0.46315 0.4459 0.0
H712 H 0.36051 0.45977 0.41475 0.0
H713 H 0.38717 0.52231 0.36448 0.0
H714 H 0.3136 0.50876 0.26191 0.0
H715 H 0.34401 0.51196 0.2927 0.0
H716 H 0.32012 0.43992 0.3362 0.0
C717 C 0.38056 0.47119 0.41015 0.0
C718 C 0.37251 0.50428 0.35838 0.0
C719 C 0.39796 0.47316 0.4279 0.0
C720 C 0.30732 0.49444 0.27672 0.0
C721 C 0.32469 0.49631 0.29449 0.0
C722 C 0.3343 0.45804 0.34248 0.0
C723 C 0.38902 0.48431 0.38684 0.0
C724 C 0.37071 0.48269 0.36828 0.0
C725 C 0.3173 0.4779 0.31384 0.0
C726 C 0.33579 0.47961 0.33264 0.0
H727 H 0.4525 0.51219 0.39433 0.0
H728 H 0.42197 0.50924 0.36343 0.0
H729 H 0.34989 0.4427 0.36755 0.0
H730 H 0.25567 0.43965 0.29824 0.0
H731 H 0.28543 0.44343 0.32989 0.0
C732 C 0.9161 0.41176 0.92449 0.0
C733 C 0.94236 0.42246 0.92599 0.0
C734 C 0.90158 0.39192 0.90914 0.0
C735 C 0.90581 0.35983 0.85463 0.0
H736 H 0.83778 0.30906 0.87714 0.0
C737 C 0.83641 0.27456 0.79612 0.0
C738 C 0.81247 0.27145 0.79351 0.0
C739 C 0.85367 0.2912 0.81324 0.0
C740 C 0.85675 0.32309 0.87059 0.0
H741 H 0.97396 0.42056 0.91248 0.0
H742 H 0.94854 0.38568 0.88576 0.0
H743 H 0.86539 0.34155 0.90515 0.0
H744 H 0.7877 0.28285 0.80727 0.0
H745 H 0.81741 0.31128 0.8371 0.0
H746 H 0.89687 0.34117 0.81994 0.0
C747 C 0.93922 0.39289 0.89625 0.0
C748 C 0.87256 0.34182 0.88659 0.0
C749 C 0.95379 0.41289 0.91157 0.0
C750 C 0.806 0.28484 0.8087 0.0
C751 C 0.82297 0.30105 0.82596 0.0
C752 C 0.89 0.34091 0.83865 0.0
C753 C 0.91287 0.38208 0.89491 0.0
C754 C 0.89708 0.36083 0.87862 0.0
C755 C 0.84705 0.30457 0.82836 0.0
C756 C 0.86508 0.32269 0.84627 0.0
H757 H 0.90674 0.41898 0.93494 0.0
H758 H 0.88148 0.38454 0.90815 0.0
H759 H 0.92451 0.37421 0.84777 0.0
H760 H 0.84196 0.26455 0.78463 0.0
H761 H 0.8721 0.29352 0.81476 0.0
C762 C 0.96663 0.57319 0.95245 0.0
C763 C 0.95876 0.54809 0.95517 0.0
C764 C 0.95198 0.58021 0.93901 0.0
C765 C 0.88734 0.55662 0.91947 0.0
H766 H 0.91598 0.60042 0.85999 0.0
C767 C 0.82701 0.54864 0.83672 0.0
C768 C 0.83121 0.56989 0.82318 0.0
C769 C 0.84322 0.5505 0.85562 0.0
C770 C 0.90783 0.58864 0.87686 0.0
H771 H 0.92973 0.51065 0.94649 0.0
H772 H 0.90374 0.52277 0.92358 0.0
H773 H 0.94376 0.59547 0.88883 0.0
H774 H 0.85584 0.6099 0.81892 0.0
H775 H 0.88455 0.61314 0.85225 0.0
H776 H 0.85141 0.54918 0.90737 0.0
C777 C 0.92118 0.53702 0.93169 0.0
C778 C 0.9237 0.58578 0.89329 0.0
C779 C 0.936 0.53009 0.94466 0.0
C780 C 0.85212 0.59319 0.82904 0.0
C781 C 0.86854 0.59505 0.84804 0.0
C782 C 0.87157 0.55963 0.90325 0.0
C783 C 0.92906 0.56211 0.92869 0.0
C784 C 0.91339 0.56898 0.91415 0.0
C785 C 0.86411 0.57367 0.86158 0.0
C786 C 0.88149 0.57481 0.88121 0.0
H787 H 0.98414 0.58729 0.96056 0.0
H788 H 0.95838 0.59965 0.9369 0.0
H789 H 0.87906 0.54386 0.93567 0.0
H790 H 0.81116 0.53037 0.83272 0.0
H791 H 0.8396 0.53362 0.86527 0.0
C792 C 0.42245 0.9361 0.4465 0.0
C793 C 0.42861 0.9602 0.45075 0.0
C794 C 0.40175 0.92058 0.43192 0.0
C795 C 0.36055 0.92092 0.38262 0.0
H796 H 0.3186 0.85116 0.40275 0.0
C797 C 0.27709 0.84806 0.32293 0.0
C798 C 0.27748 0.82652 0.31954 0.0
C799 C 0.29294 0.86523 0.34046 0.0
C800 C 0.33015 0.87059 0.39684 0.0
H801 H 0.41808 0.9871 0.44358 0.0
H802 H 0.3817 0.95993 0.41776 0.0
H803 H 0.35148 0.87969 0.43047 0.0
H804 H 0.29445 0.80595 0.33231 0.0
H805 H 0.32167 0.83552 0.3625 0.0
H806 H 0.33947 0.91155 0.34864 0.0
C807 C 0.39299 0.95309 0.42553 0.0
C808 C 0.34903 0.88693 0.4127 0.0
C809 C 0.4137 0.96859 0.44029 0.0
C810 C 0.29364 0.82234 0.33432 0.0
C811 C 0.30916 0.83924 0.35185 0.0
C812 C 0.34159 0.9045 0.36668 0.0
C813 C 0.38674 0.92885 0.42126 0.0
C814 C 0.36491 0.91217 0.40551 0.0
C815 C 0.30912 0.86092 0.35513 0.0
C816 C 0.32665 0.87903 0.37334 0.0
H817 H 0.43377 0.92933 0.45442 0.0
H818 H 0.39772 0.90218 0.42868 0.0
H819 H 0.37252 0.94024 0.37649 0.0
H820 H 0.26488 0.85183 0.3118 0.0
H821 H 0.29245 0.88177 0.34263 0.0
C822 C 0.4703 0.37758 0.94933 0.0
C823 C 0.48604 0.4032 0.94417 0.0
C824 C 0.47062 0.36098 0.93328 0.0
C825 C 0.5087 0.35439 0.88631 0.0
H826 H 0.44492 0.30815 0.85592 0.0
C827 C 0.50377 0.30565 0.796 0.0
C828 C 0.48242 0.28206 0.7923 0.0
C829 C 0.50489 0.31865 0.81693 0.0
C830 C 0.46283 0.32049 0.86457 0.0
H831 H 0.51512 0.43179 0.91916 0.0
H832 H 0.51608 0.4027 0.89131 0.0
H833 H 0.4459 0.33369 0.88911 0.0
H834 H 0.44608 0.25295 0.80805 0.0
H835 H 0.44845 0.2751 0.84508 0.0
H836 H 0.52572 0.34114 0.86208 0.0
C837 C 0.50338 0.39548 0.90757 0.0
C838 C 0.46334 0.33518 0.88352 0.0
C839 C 0.50271 0.41205 0.92331 0.0
C840 C 0.46262 0.2713 0.81029 0.0
C841 C 0.46394 0.28407 0.83145 0.0
C842 C 0.50816 0.33938 0.86765 0.0
C843 C 0.48709 0.36983 0.91222 0.0
C844 C 0.48633 0.35254 0.8942 0.0
C845 C 0.48487 0.30811 0.83481 0.0
C846 C 0.48527 0.32258 0.85619 0.0
H847 H 0.45733 0.37047 0.96537 0.0
H848 H 0.45793 0.34124 0.93719 0.0
H849 H 0.52663 0.36758 0.89447 0.0
H850 H 0.51924 0.31441 0.78232 0.0
H851 H 0.52112 0.33727 0.81861 0.0
C852 C 0.07463 0.47877 0.41499 0.0
C853 C 0.04819 0.46315 0.41731 0.0
C854 C 0.08822 0.47389 0.398 0.0
C855 C 0.08665 0.42488 0.36297 0.0
H856 H 0.1382 0.48019 0.32143 0.0
C857 C 0.14625 0.41583 0.28451 0.0
C858 C 0.17165 0.43547 0.28186 0.0
C859 C 0.1298 0.41719 0.3013 0.0
C860 C 0.1241 0.46457 0.33309 0.0
H861 H 0.01528 0.42995 0.40392 0.0
H862 H 0.03919 0.42133 0.37411 0.0
H863 H 0.11203 0.48655 0.34986 0.0
H864 H 0.20016 0.47102 0.29592 0.0
H865 H 0.17194 0.47304 0.32545 0.0
H866 H 0.09915 0.40299 0.34641 0.0
C867 C 0.0493 0.43736 0.3855 0.0
C868 C 0.10905 0.46823 0.34932 0.0
C869 C 0.03563 0.4424 0.40237 0.0
C870 C 0.18058 0.45576 0.29721 0.0
C871 C 0.16433 0.457 0.31404 0.0
C872 C 0.1019 0.42122 0.34677 0.0
C873 C 0.07573 0.45318 0.38304 0.0
C874 C 0.09043 0.44855 0.36472 0.0
C875 C 0.13858 0.43814 0.31578 0.0
C876 C 0.12111 0.44117 0.33197 0.0
H877 H 0.08481 0.495 0.4261 0.0
H878 H 0.10859 0.48629 0.39668 0.0
H879 H 0.07245 0.40939 0.3747 0.0
H880 H 0.13887 0.39997 0.27287 0.0
H881 H 0.11006 0.40232 0.30221 0.0
C882 C 0.58684 0.06425 0.94296 0.0
C883 C 0.56292 0.0603 0.9478 0.0
C884 C 0.60349 0.08311 0.92582 0.0
C885 C 0.60536 0.12219 0.87212 0.0
H886 H 0.67694 0.16136 0.88636 0.0
C887 C 0.67923 0.20168 0.80471 0.0
C888 C 0.70075 0.2007 0.79967 0.0
C889 C 0.66223 0.18667 0.82413 0.0
C890 C 0.657 0.15053 0.88212 0.0
H891 H 0.53736 0.0726 0.93925 0.0
H892 H 0.56658 0.10588 0.90928 0.0
H893 H 0.64734 0.13065 0.91772 0.0
H894 H 0.72159 0.18366 0.81137 0.0
H895 H 0.69206 0.15765 0.84499 0.0
H896 H 0.61515 0.14191 0.83634 0.0
C897 C 0.57242 0.09429 0.91837 0.0
C898 C 0.64008 0.1329 0.90002 0.0
C899 C 0.55578 0.07541 0.9355 0.0
C900 C 0.70517 0.18484 0.8147 0.0
C901 C 0.68835 0.17005 0.83412 0.0
C902 C 0.62231 0.13989 0.85421 0.0
C903 C 0.59647 0.09836 0.91337 0.0
C904 C 0.61414 0.11823 0.89503 0.0
C905 C 0.66663 0.17068 0.83896 0.0
C906 C 0.64834 0.15389 0.85888 0.0
H907 H 0.59258 0.05274 0.95245 0.0
H908 H 0.62175 0.08556 0.9221 0.0
H909 H 0.5855 0.11102 0.86764 0.0
H910 H 0.67534 0.21373 0.79345 0.0
H911 H 0.64567 0.18759 0.82757 0.0
C912 C 0.57069 0.61016 0.44781 0.0
C913 C 0.54954 0.58657 0.44363 0.0
C914 C 0.57846 0.6296 0.42981 0.0
C915 C 0.5717 0.64167 0.36249 0.0
H916 H 0.5872 0.70574 0.38338 0.0
C917 C 0.55623 0.707 0.30054 0.0
C918 C 0.57405 0.73263 0.29992 0.0
C919 C 0.55903 0.69099 0.31672 0.0
C920 C 0.58346 0.68813 0.37727 0.0
H921 H 0.51993 0.56443 0.41781 0.0
H922 H 0.53315 0.5983 0.38644 0.0
H923 H 0.58058 0.67391 0.41504 0.0
H924 H 0.60912 0.76164 0.31533 0.0
H925 H 0.61376 0.73339 0.3444 0.0
H926 H 0.57343 0.65549 0.32481 0.0
C927 C 0.54406 0.60189 0.40332 0.0
C928 C 0.57962 0.66988 0.39539 0.0
C929 C 0.53632 0.58255 0.42129 0.0
C930 C 0.59517 0.74193 0.31541 0.0
C931 C 0.59775 0.72583 0.33206 0.0
C932 C 0.57542 0.65983 0.34445 0.0
C933 C 0.56526 0.62564 0.40731 0.0
C934 C 0.57288 0.64617 0.3882 0.0
C935 C 0.57955 0.70022 0.33295 0.0
C936 C 0.58054 0.68296 0.35168 0.0
H937 H 0.58118 0.61346 0.46495 0.0
H938 H 0.59493 0.64762 0.43338 0.0
H939 H 0.56718 0.62382 0.3563 0.0
H940 H 0.53982 0.69928 0.28871 0.0
H941 H 0.54453 0.6714 0.31719 0.0
C942 C 0.51663 0.09794 0.56982 0.0
C943 C 0.50239 0.08804 0.54824 0.0
C944 C 0.5169 0.1173 0.58139 0.0
C945 C 0.47758 0.14097 0.59336 0.0
H946 H 0.5393 0.2009 0.61193 0.0
C947 C 0.4726 0.21041 0.65381 0.0
C948 C 0.49044 0.22072 0.67282 0.0
C949 C 0.47587 0.1981 0.63459 0.0
C950 C 0.52187 0.18418 0.60711 0.0
H951 H 0.47746 0.09042 0.5216 0.0
H952 H 0.47724 0.12392 0.54248 0.0
H953 H 0.54167 0.17141 0.58611 0.0
H954 H 0.52606 0.22707 0.68634 0.0
H955 H 0.53123 0.20454 0.65359 0.0
H956 H 0.45767 0.1525 0.61551 0.0
C957 C 0.48844 0.11691 0.55012 0.0
C958 C 0.52329 0.16744 0.59219 0.0
C959 C 0.48859 0.09787 0.53823 0.0
C960 C 0.51209 0.21936 0.6718 0.0
C961 C 0.51509 0.20655 0.65289 0.0
C962 C 0.47615 0.15741 0.60866 0.0
C963 C 0.50256 0.1267 0.57182 0.0
C964 C 0.50115 0.14558 0.58547 0.0
C965 C 0.49673 0.19528 0.63432 0.0
C966 C 0.4983 0.1791 0.61604 0.0
H967 H 0.52754 0.09069 0.57771 0.0
H968 H 0.52772 0.12443 0.59825 0.0
H969 H 0.46027 0.12405 0.58862 0.0
H970 H 0.45589 0.21153 0.65402 0.0
H971 H 0.4617 0.19033 0.62026 0.0
C972 C 0.38839 0.42283 0.05222 0.0
C973 C 0.40695 0.44778 0.04636 0.0
C974 C 0.36628 0.41658 0.06549 0.0
C975 C 0.32594 0.44038 0.08059 0.0
H976 H 0.30859 0.40027 0.14262 0.0
C977 C 0.27181 0.44974 0.16027 0.0
C978 C 0.25422 0.42898 0.17534 0.0
C979 C 0.28624 0.44769 0.14185 0.0
C980 C 0.31278 0.41102 0.12508 0.0
H981 H 0.417 0.48569 0.049 0.0
H982 H 0.3782 0.47485 0.07171 0.0
H983 H 0.34208 0.40477 0.11484 0.0
H984 H 0.2377 0.38955 0.1825 0.0
H985 H 0.26327 0.38595 0.15001 0.0
H986 H 0.29716 0.44713 0.09088 0.0
C987 C 0.38068 0.46011 0.06621 0.0
C988 C 0.332 0.41365 0.10922 0.0
C989 C 0.40287 0.46633 0.05334 0.0
C990 C 0.2511 0.40589 0.17119 0.0
C991 C 0.26578 0.40385 0.15269 0.0
C992 C 0.30666 0.4376 0.09627 0.0
C993 C 0.36223 0.43519 0.07257 0.0
C994 C 0.33933 0.42907 0.08728 0.0
C995 C 0.28358 0.42481 0.13787 0.0
C996 C 0.30051 0.42368 0.11916 0.0
H997 H 0.39115 0.40825 0.04676 0.0
H998 H 0.3523 0.39724 0.07007 0.0
H999 H 0.33089 0.45199 0.06354 0.0
H1000 H 0.27472 0.46783 0.16284 0.0
H1001 H 0.30008 0.46432 0.13118 0.0
C1002 C 0.91274 0.38631 0.53095 0.0
C1003 C 0.92069 0.41137 0.52897 0.0
C1004 C 0.89367 0.37032 0.54824 0.0
C1005 C 0.84184 0.362 0.58878 0.0
H1006 H 0.86015 0.32345 0.63128 0.0
C1007 C 0.78679 0.30695 0.68066 0.0
C1008 C 0.78488 0.28423 0.68559 0.0
C1009 C 0.80144 0.32245 0.66016 0.0
C1010 C 0.85452 0.33378 0.61938 0.0
H1011 H 0.91469 0.43953 0.5421 0.0
H1012 H 0.8811 0.41146 0.57251 0.0
H1013 H 0.88843 0.34983 0.59704 0.0
H1014 H 0.79522 0.25908 0.67211 0.0
H1015 H 0.81997 0.28557 0.63628 0.0
H1016 H 0.80776 0.34573 0.61125 0.0
C1017 C 0.88945 0.40412 0.56071 0.0
C1018 C 0.87075 0.3489 0.59976 0.0
C1019 C 0.90862 0.42013 0.54348 0.0
C1020 C 0.79678 0.27674 0.6691 0.0
C1021 C 0.81106 0.29198 0.64859 0.0
C1022 C 0.8254 0.34664 0.6084 0.0
C1023 C 0.88227 0.37921 0.56368 0.0
C1024 C 0.86453 0.36302 0.58417 0.0
C1025 C 0.81413 0.31528 0.64423 0.0
C1026 C 0.83152 0.33221 0.62376 0.0
H1027 H 0.92187 0.37935 0.51972 0.0
H1028 H 0.88823 0.35111 0.54997 0.0
H1029 H 0.83666 0.37277 0.577 0.0
H1030 H 0.77772 0.3131 0.69308 0.0
H1031 H 0.80351 0.34035 0.6573 0.0
C1032 C 0.54644 0.94082 0.06739 0.0
C1033 C 0.53468 0.95314 0.07533 0.0
C1034 C 0.55277 0.92808 0.08478 0.0
C1035 C 0.53422 0.89829 0.14843 0.0
H1036 H 0.59194 0.89161 0.1401 0.0
C1037 C 0.58313 0.84817 0.20399 0.0
C1038 C 0.56084 0.82529 0.21025 0.0
C1039 C 0.58234 0.86578 0.18805 0.0
C1040 C 0.5759 0.89353 0.14285 0.0
H1041 H 0.52106 0.96216 0.10808 0.0
H1042 H 0.533 0.94093 0.1383 0.0
H1043 H 0.58725 0.92 0.11182 0.0
H1044 H 0.52043 0.8027 0.20398 0.0
H1045 H 0.51918 0.83294 0.17619 0.0
H1046 H 0.52297 0.87217 0.17953 0.0
C1047 C 0.53683 0.94062 0.11856 0.0
C1048 C 0.57304 0.90957 0.12647 0.0
C1049 C 0.53029 0.95314 0.10119 0.0
C1050 C 0.53794 0.82022 0.19985 0.0
C1051 C 0.53718 0.83767 0.18398 0.0
C1052 C 0.53712 0.88241 0.16477 0.0
C1053 C 0.54765 0.92747 0.11057 0.0
C1054 C 0.55196 0.91189 0.12887 0.0
C1055 C 0.55925 0.86079 0.17813 0.0
C1056 C 0.5577 0.87944 0.16191 0.0
H1057 H 0.55052 0.94076 0.04768 0.0
H1058 H 0.5609 0.91802 0.07789 0.0
H1059 H 0.51757 0.89929 0.15073 0.0
H1060 H 0.60107 0.85262 0.21168 0.0
H1061 H 0.59967 0.88346 0.18395 0.0
C1062 C 0.61148 0.56364 0.58322 0.0
C1063 C 0.60129 0.54215 0.56935 0.0
C1064 C 0.63026 0.56915 0.60075 0.0
C1065 C 0.65492 0.53752 0.63918 0.0
H1066 H 0.70811 0.60429 0.65449 0.0
C1067 C 0.7139 0.55289 0.7255 0.0
C1068 C 0.7401 0.5696 0.72302 0.0
C1069 C 0.69782 0.55256 0.70722 0.0
C1070 C 0.69348 0.58553 0.65029 0.0
H1071 H 0.60366 0.51008 0.56262 0.0
H1072 H 0.63715 0.5204 0.59196 0.0
H1073 H 0.67982 0.59788 0.61982 0.0
H1074 H 0.77016 0.5999 0.70031 0.0
H1075 H 0.742 0.59871 0.66747 0.0
H1076 H 0.66891 0.52497 0.66875 0.0
C1077 C 0.63012 0.53263 0.5899 0.0
C1078 C 0.6771 0.58187 0.6306 0.0
C1079 C 0.61112 0.52691 0.5727 0.0
C1080 C 0.74995 0.58687 0.70255 0.0
C1081 C 0.73382 0.5862 0.68385 0.0
C1082 C 0.67134 0.54115 0.65855 0.0
C1083 C 0.63948 0.55346 0.60461 0.0
C1084 C 0.65757 0.55777 0.62489 0.0
C1085 C 0.70763 0.56849 0.68566 0.0
C1086 C 0.69064 0.56517 0.66459 0.0
H1087 H 0.60477 0.5761 0.58078 0.0
H1088 H 0.63693 0.58529 0.61182 0.0
H1089 H 0.63986 0.51872 0.63569 0.0
H1090 H 0.70585 0.53968 0.74139 0.0
H1091 H 0.67768 0.53927 0.70968 0.0
C1092 C 0.05658 0.61034 0.08186 0.0
C1093 C 0.06748 0.59985 0.06806 0.0
C1094 C 0.07058 0.62776 0.09981 0.0
C1095 C 0.12349 0.64592 0.1418 0.0
H1096 H 0.12615 0.70771 0.14694 0.0
C1097 C 0.19571 0.72104 0.20415 0.0
C1098 C 0.18872 0.73477 0.21813 0.0
C1099 C 0.17991 0.70538 0.18593 0.0
C1100 C 0.1253 0.69037 0.146 0.0
H1101 H 0.10165 0.59962 0.06211 0.0
H1102 H 0.12602 0.62991 0.09348 0.0
H1103 H 0.10051 0.67903 0.11458 0.0
H1104 H 0.15975 0.74318 0.22347 0.0
H1105 H 0.13159 0.71513 0.19173 0.0
H1106 H 0.14776 0.65673 0.17325 0.0
C1107 C 0.10666 0.62466 0.0904 0.0
C1108 C 0.1107 0.67401 0.12741 0.0
C1109 C 0.09279 0.60749 0.07228 0.0
C1110 C 0.16564 0.73281 0.21303 0.0
C1111 C 0.14958 0.71681 0.19479 0.0
C1112 C 0.1378 0.66206 0.16045 0.0
C1113 C 0.09563 0.63478 0.10456 0.0
C1114 C 0.11004 0.65182 0.12486 0.0
C1115 C 0.15642 0.70264 0.18126 0.0
C1116 C 0.13936 0.68475 0.16252 0.0
H1117 H 0.03716 0.60494 0.07888 0.0
H1118 H 0.06156 0.63519 0.11049 0.0
H1119 H 0.12287 0.62869 0.14069 0.0
H1120 H 0.21354 0.72239 0.20722 0.0
H1121 H 0.18623 0.6954 0.17542 0.0
loop_
_geom_bond_atom_site_label_1
_geom_bond_atom_site_label_2
_geom_bond_distance
_geom_bond_site_symmetry_2
_ccdc_geom_bond_type
C0 C1 1.443 . S
C0 N4 1.376 1_556 S
C0 C38 1.389 . S
C1 C0 1.443 . S
C1 C2 1.340 1_556 S
C1 H41 0.951 . S
C2 C1 1.340 1_554 S
C2 C3 1.439 . S
C2 H42 0.950 . S
C3 C2 1.439 . S
C3 N4 1.374 . S
C3 C37 1.395 . S
N4 C0 1.376 1_554 S
N4 C3 1.374 . S
N4 Co5 1.986 1_655 S
Co5 N4 1.986 1_455 S
Co5 N6 2.017 1_455 S
Co5 N11 2.031 1_554 S
Co5 N16 1.972 1_554 S
Co5 N21 2.299 . S
Co5 N27 2.266 1_454 S
N6 Co5 2.017 1_655 S
N6 C7 1.376 . S
N6 C10 1.383 1_655 S
C7 N6 1.376 . S
C7 C8 1.446 . S
C7 C37 1.391 . S
C8 C7 1.446 . S
C8 C9 1.339 . S
C8 H43 0.949 . S
C9 C8 1.339 . S
C9 C10 1.439 1_655 S
C9 H44 0.950 1_655 S
C10 N6 1.383 1_455 S
C10 C9 1.439 1_455 S
C10 C39 1.392 . S
N11 Co5 2.031 1_556 S
N11 C12 1.376 1_556 S
N11 C15 1.374 . S
C12 N11 1.376 1_554 S
C12 C13 1.443 . S
C12 C39 1.389 . S
C13 C12 1.443 . S
C13 C14 1.340 1_554 S
C13 H45 0.951 . S
C14 C13 1.340 1_556 S
C14 C15 1.439 . S
C14 H46 0.950 . S
C15 N11 1.374 . S
C15 C14 1.439 . S
C15 C40 1.395 . S
N16 Co5 1.972 1_556 S
N16 C17 1.376 . S
N16 C20 1.383 1_455 S
C17 N16 1.376 . S
C17 C18 1.446 . S
C17 C40 1.391 . S
C18 C17 1.446 . S
C18 C19 1.339 . S
C18 H47 0.949 . S
C19 C18 1.339 . S
C19 C20 1.439 1_455 S
C19 H48 0.950 1_455 S
C20 N16 1.383 1_655 S
C20 C19 1.439 1_655 S
C20 C38 1.392 . S
N21 Co5 2.299 . S
N21 C24 1.332 . S
N21 C26 1.332 . S
C22 C23 1.386 . S
C22 C25 1.388 . S
C23 C22 1.386 . S
C23 C24 1.382 . S
C23 H49 0.950 . S
C24 N21 1.332 . S
C24 C23 1.382 . S
C24 H35 0.952 . S
C25 C22 1.388 . S
C25 C26 1.382 . S
C25 H50 0.950 . S
C26 N21 1.332 . S
C26 C25 1.382 . S
C26 H36 0.948 1_455 S
N27 Co5 2.266 1_656 S
N27 C31 1.332 . S
N27 C32 1.332 . S
C28 C29 1.388 . S
C28 C32 1.382 . S
C28 H51 0.950 . S
C29 C28 1.388 . S
C29 C30 1.386 . S
C30 C29 1.386 . S
C30 C31 1.382 . S
C30 H52 0.950 . S
C31 N27 1.332 . S
C31 C30 1.382 . S
C31 H33 0.954 . S
C32 N27 1.332 . S
C32 C28 1.382 . S
C32 H34 0.948 1_655 S
H33 C31 0.954 . S
H34 C32 0.948 1_455 S
H35 C24 0.952 . S
H36 C26 0.948 1_655 S
C37 C3 1.395 . S
C37 C7 1.391 . S
C38 C0 1.389 . S
C38 C20 1.392 . S
C39 C10 1.392 . S
C39 C12 1.389 . S
C40 C15 1.395 . S
C40 C17 1.391 . S
H41 C1 0.951 . S
H42 C2 0.950 . S
H43 C8 0.949 . S
H44 C9 0.950 1_455 S
H45 C13 0.951 . S
H46 C14 0.950 . S
H47 C18 0.949 . S
H48 C19 0.950 1_655 S
H49 C23 0.950 . S
H50 C25 0.950 . S
H51 C28 0.950 . S
H52 C30 0.950 . S
C53 C54 1.442 . S
C53 N57 1.376 1_545 S
C53 C91 1.389 . S
C54 C53 1.442 . S
C54 C55 1.343 1_545 S
C54 H94 0.951 . S
C55 C54 1.343 1_565 S
C55 C56 1.439 . S
C55 H95 0.950 . S
C56 C55 1.439 . S
C56 N57 1.374 . S
C56 C90 1.395 . S
N57 C53 1.376 1_565 S
N57 C56 1.374 . S
N57 Co58 1.991 1_565 S
Co58 N57 1.991 1_545 S
Co58 N59 1.969 1_545 S
Co58 N64 2.027 . S
Co58 N69 2.022 . S
Co58 N74 2.238 1_545 S
Co58 N80 2.327 . S
N59 Co58 1.969 1_565 S
N59 C60 1.376 . S
N59 C63 1.383 . S
C60 N59 1.376 . S
C60 C61 1.446 . S
C60 C90 1.391 . S
C61 C60 1.446 . S
C61 C62 1.339 . S
C61 H96 0.949 . S
C62 C61 1.339 . S
C62 C63 1.439 . S
C62 H97 0.950 . S
C63 N59 1.383 . S
C63 C62 1.439 . S
C63 C92 1.392 . S
N64 Co58 2.027 . S
N64 C65 1.376 1_545 S
N64 C68 1.374 . S
C65 N64 1.376 1_565 S
C65 C66 1.443 1_565 S
C65 C92 1.389 . S
C66 C65 1.443 1_545 S
C66 C67 1.340 . S
C66 H98 0.951 1_545 S
C67 C66 1.340 . S
C67 C68 1.439 . S
C67 H99 0.950 . S
C68 N64 1.374 . S
C68 C67 1.439 . S
C68 C93 1.395 . S
N69 Co58 2.022 . S
N69 C70 1.376 . S
N69 C73 1.383 . S
C70 N69 1.376 . S
C70 C71 1.446 . S
C70 C93 1.391 . S
C71 C70 1.446 . S
C71 C72 1.339 . S
C71 H100 0.949 . S
C72 C71 1.339 . S
C72 C73 1.439 . S
C72 H101 0.950 . S
C73 N69 1.383 . S
C73 C72 1.439 . S
C73 C91 1.392 . S
N74 Co58 2.238 1_565 S
N74 C77 1.332 . S
N74 C79 1.332 . S
C75 C76 1.386 . S
C75 C78 1.388 . S
C76 C75 1.386 . S
C76 C77 1.382 . S
C76 H102 0.950 . S
C77 N74 1.332 . S
C77 C76 1.382 . S
C77 H88 0.952 1_565 S
C78 C75 1.388 . S
C78 C79 1.382 . S
C78 H103 0.950 . S
C79 N74 1.332 . S
C79 C78 1.382 . S
C79 H89 0.948 . S
N80 Co58 2.327 . S
N80 C84 1.332 . S
N80 C85 1.332 . S
C81 C82 1.388 . S
C81 C85 1.382 . S
C81 H104 0.950 . S
C82 C81 1.388 . S
C82 C83 1.386 . S
C83 C82 1.386 . S
C83 C84 1.382 . S
C83 H105 0.950 . S
C84 N80 1.332 . S
C84 C83 1.382 . S
C84 H86 0.952 1_545 S
C85 N80 1.332 . S
C85 C81 1.382 . S
C85 H87 0.948 . S
H86 C84 0.952 1_565 S
H87 C85 0.948 . S
H88 C77 0.952 1_545 S
H89 C79 0.948 . S
C90 C56 1.395 . S
C90 C60 1.391 . S
C91 C53 1.389 . S
C91 C73 1.392 . S
C92 C63 1.392 . S
C92 C65 1.389 . S
C93 C68 1.395 . S
C93 C70 1.391 . S
H94 C54 0.951 . S
H95 C55 0.950 . S
H96 C61 0.949 . S
H97 C62 0.950 . S
H98 C66 0.951 1_565 S
H99 C67 0.950 . S
H100 C71 0.949 . S
H101 C72 0.950 . S
H102 C76 0.950 . S
H103 C78 0.950 . S
H104 C81 0.950 . S
H105 C83 0.950 . S
C106 C107 1.443 . S
C106 N110 1.376 . S
C106 C144 1.389 . S
C107 C106 1.443 . S
C107 C108 1.340 . S
C107 H147 0.951 . S
C108 C107 1.340 . S
C108 C109 1.439 . S
C108 H148 0.950 . S
C109 C108 1.439 . S
C109 N110 1.374 . S
C109 C143 1.395 . S
N110 C106 1.376 . S
N110 C109 1.374 . S
N110 Co111 1.986 1_556 S
Co111 N110 1.986 1_554 S
Co111 N112 1.992 1_554 S
Co111 N117 2.030 . S
Co111 N122 1.997 . S
Co111 N127 2.297 . S
Co111 N133 2.268 1_554 S
N112 Co111 1.992 1_556 S
N112 C113 1.376 . S
N112 C116 1.383 1_556 S
C113 N112 1.376 . S
C113 C114 1.446 . S
C113 C143 1.391 . S
C114 C113 1.446 . S
C114 C115 1.339 1_556 S
C114 H149 0.949 . S
C115 C114 1.339 1_554 S
C115 C116 1.439 . S
C115 H150 0.950 . S
C116 N112 1.383 1_554 S
C116 C115 1.439 . S
C116 C145 1.392 . S
N117 Co111 2.030 . S
N117 C118 1.376 . S
N117 C121 1.374 . S
C118 N117 1.376 . S
C118 C119 1.443 . S
C118 C145 1.389 . S
C119 C118 1.443 . S
C119 C120 1.340 . S
C119 H151 0.951 . S
C120 C119 1.340 . S
C120 C121 1.439 . S
C120 H152 0.950 . S
C121 N117 1.374 . S
C121 C120 1.439 . S
C121 C146 1.395 . S
N122 Co111 1.997 . S
N122 C123 1.376 . S
N122 C126 1.383 1_554 S
C123 N122 1.376 . S
C123 C124 1.446 . S
C123 C146 1.391 . S
C124 C123 1.446 . S
C124 C125 1.339 1_554 S
C124 H153 0.949 . S
C125 C124 1.339 1_556 S
C125 C126 1.439 . S
C125 H154 0.950 . S
C126 N122 1.383 1_556 S
C126 C125 1.439 . S
C126 C144 1.392 . S
N127 Co111 2.297 . S
N127 C130 1.332 . S
N127 C132 1.332 . S
C128 C129 1.386 . S
C128 C131 1.388 . S
C129 C128 1.386 . S
C129 C130 1.382 . S
C129 H155 0.950 . S
C130 N127 1.332 . S
C130 C129 1.382 . S
C130 H141 0.952 . S
C131 C128 1.388 . S
C131 C132 1.382 . S
C131 H156 0.950 . S
C132 N127 1.332 . S
C132 C131 1.382 . S
C132 H142 0.948 . S
N133 Co111 2.268 1_556 S
N133 C137 1.332 . S
N133 C138 1.332 . S
C134 C135 1.388 . S
C134 C138 1.382 . S
C134 H157 0.950 . S
C135 C134 1.388 . S
C135 C136 1.386 . S
C136 C135 1.386 . S
C136 C137 1.382 . S
C136 H158 0.950 . S
C137 N133 1.332 . S
C137 C136 1.382 . S
C137 H139 0.952 . S
C138 N133 1.332 . S
C138 C134 1.382 . S
C138 H140 0.948 . S
H139 C137 0.952 . S
H140 C138 0.948 . S
H141 C130 0.952 . S
H142 C132 0.948 . S
C143 C109 1.395 . S
C143 C113 1.391 . S
C144 C106 1.389 . S
C144 C126 1.392 . S
C145 C116 1.392 . S
C145 C118 1.389 . S
C146 C121 1.395 . S
C146 C123 1.391 . S
H147 C107 0.951 . S
H148 C108 0.950 . S
H149 C114 0.949 . S
H150 C115 0.950 . S
H151 C119 0.951 . S
H152 C120 0.950 . S
H153 C124 0.949 . S
H154 C125 0.950 . S
H155 C129 0.950 . S
H156 C131 0.950 . S
H157 C134 0.950 . S
H158 C136 0.950 . S
C159 C160 1.443 . S
C159 N163 1.376 . S
C159 C197 1.389 . S
C160 C159 1.443 . S
C160 C161 1.340 . S
C160 H200 0.951 . S
C161 C160 1.340 . S
C161 C162 1.439 . S
C161 H201 0.950 . S
C162 C161 1.439 . S
C162 N163 1.374 . S
C162 C196 1.395 . S
N163 C159 1.376 . S
N163 C162 1.374 . S
N163 Co164 1.994 1_655 S
Co164 N163 1.994 1_455 S
Co164 N165 1.984 1_455 S
Co164 N170 2.022 . S
Co164 N175 2.006 . S
Co164 N180 2.299 . S
Co164 N186 2.266 1_455 S
N165 Co164 1.984 1_655 S
N165 C166 1.376 . S
N165 C169 1.383 1_655 S
C166 N165 1.376 . S
C166 C167 1.446 . S
C166 C196 1.391 . S
C167 C166 1.446 . S
C167 C168 1.339 . S
C167 H202 0.949 . S
C168 C167 1.339 . S
C168 C169 1.439 1_655 S
C168 H203 0.950 1_655 S
C169 N165 1.383 1_455 S
C169 C168 1.439 1_455 S
C169 C198 1.392 . S
N170 Co164 2.022 . S
N170 C171 1.376 . S
N170 C174 1.374 . S
C171 N170 1.376 . S
C171 C172 1.443 . S
C171 C198 1.389 . S
C172 C171 1.443 . S
C172 C173 1.340 . S
C172 H204 0.951 . S
C173 C172 1.340 . S
C173 C174 1.439 . S
C173 H205 0.950 . S
C174 N170 1.374 . S
C174 C173 1.439 . S
C174 C199 1.395 . S
N175 Co164 2.006 . S
N175 C176 1.376 . S
N175 C179 1.383 1_455 S
C176 N175 1.376 . S
C176 C177 1.446 . S
C176 C199 1.391 . S
C177 C176 1.446 . S
C177 C178 1.339 . S
C177 H206 0.949 . S
C178 C177 1.339 . S
C178 C179 1.439 1_455 S
C178 H207 0.950 1_455 S
C179 N175 1.383 1_655 S
C179 C178 1.439 1_655 S
C179 C197 1.392 . S
N180 Co164 2.299 . S
N180 C183 1.332 . S
N180 C185 1.332 . S
C181 C182 1.386 . S
C181 C184 1.388 . S
C182 C181 1.386 . S
C182 C183 1.382 . S
C182 H208 0.950 . S
C183 N180 1.332 . S
C183 C182 1.382 . S
C183 H194 0.952 . S
C184 C181 1.388 . S
C184 C185 1.382 . S
C184 H209 0.950 . S
C185 N180 1.332 . S
C185 C184 1.382 . S
C185 H195 0.948 1_455 S
N186 Co164 2.266 1_655 S
N186 C190 1.332 . S
N186 C191 1.332 . S
C187 C188 1.388 . S
C187 C191 1.382 . S
C187 H210 0.950 . S
C188 C187 1.388 . S
C188 C189 1.386 . S
C189 C188 1.386 . S
C189 C190 1.382 . S
C189 H211 0.950 . S
C190 N186 1.332 . S
C190 C189 1.382 . S
C190 H192 0.952 . S
C191 N186 1.332 . S
C191 C187 1.382 . S
C191 H193 0.948 1_655 S
H192 C190 0.952 . S
H193 C191 0.948 1_455 S
H194 C183 0.952 . S
H195 C185 0.948 1_655 S
C196 C162 1.395 . S
C196 C166 1.391 . S
C197 C159 1.389 . S
C197 C179 1.392 . S
C198 C169 1.392 . S
C198 C171 1.389 . S
C199 C174 1.395 . S
C199 C176 1.391 . S
H200 C160 0.951 . S
H201 C161 0.950 . S
H202 C167 0.949 . S
H203 C168 0.950 1_455 S
H204 C172 0.951 . S
H205 C173 0.950 . S
H206 C177 0.949 . S
H207 C178 0.950 1_655 S
H208 C182 0.950 . S
H209 C184 0.950 . S
H210 C187 0.950 . S
H211 C189 0.950 . S
C212 C213 1.443 1_565 S
C212 N216 1.376 1_565 S
C212 C250 1.389 . S
C213 C212 1.443 1_545 S
C213 C214 1.340 . S
C213 H253 0.951 1_545 S
C214 C213 1.340 . S
C214 C215 1.439 . S
C214 H254 0.950 . S
C215 C214 1.439 . S
C215 N216 1.374 . S
C215 C249 1.395 . S
N216 C212 1.376 1_545 S
N216 C215 1.374 . S
N216 Co217 2.053 . S
Co217 N216 2.053 . S
Co217 N218 2.023 . S
Co217 N223 1.964 1_544 S
Co217 N228 1.968 1_545 S
Co217 N233 2.312 1_554 S
Co217 N239 2.254 1_545 S
N218 Co217 2.023 . S
N218 C219 1.376 . S
N218 C222 1.383 1_554 S
C219 N218 1.376 . S
C219 C220 1.446 . S
C219 C249 1.391 . S
C220 C219 1.446 . S
C220 C221 1.339 1_554 S
C220 H255 0.949 . S
C221 C220 1.339 1_556 S
C221 C222 1.439 . S
C221 H256 0.950 . S
C222 N218 1.383 1_556 S
C222 C221 1.439 . S
C222 C251 1.392 . S
N223 Co217 1.964 1_566 S
N223 C224 1.376 1_565 S
N223 C227 1.374 . S
C224 N223 1.376 1_545 S
C224 C225 1.458 . S
C224 C251 1.389 . S
C225 C224 1.458 . S
C225 C226 1.323 1_545 S
C225 H257 0.955 . S
C226 C225 1.323 1_565 S
C226 C227 1.439 . S
C226 H258 0.950 . S
C227 N223 1.374 . S
C227 C226 1.439 . S
C227 C252 1.395 . S
N228 Co217 1.968 1_565 S
N228 C229 1.378 1_554 S
N228 C232 1.382 . S
C229 N228 1.378 1_556 S
C229 C230 1.446 . S
C229 C252 1.391 . S
C230 C229 1.446 . S
C230 C231 1.339 1_556 S
C230 H259 0.949 . S
C231 C230 1.339 1_554 S
C231 C232 1.439 . S
C231 H260 0.950 . S
C232 N228 1.382 . S
C232 C231 1.439 . S
C232 C250 1.392 . S
N233 Co217 2.312 1_556 S
N233 C236 1.332 . S
N233 C238 1.332 . S
C234 C235 1.386 . S
C234 C237 1.388 . S
C235 C234 1.386 . S
C235 C236 1.382 . S
C235 H261 0.950 . S
C236 N233 1.332 . S
C236 C235 1.382 . S
C236 H247 0.952 1_545 S
C237 C234 1.388 . S
C237 C238 1.382 . S
C237 H262 0.950 . S
C238 N233 1.332 . S
C238 C237 1.382 . S
C238 H248 0.948 . S
N239 Co217 2.254 1_565 S
N239 C243 1.332 . S
N239 C244 1.332 . S
C240 C241 1.388 . S
C240 C244 1.382 . S
C240 H263 0.950 . S
C241 C240 1.388 . S
C241 C242 1.386 . S
C242 C241 1.386 . S
C242 C243 1.382 . S
C242 H264 0.950 . S
C243 N239 1.332 . S
C243 C242 1.382 . S
C243 H245 0.952 1_565 S
C244 N239 1.332 . S
C244 C240 1.382 . S
C244 H246 0.948 . S
H245 C243 0.952 1_545 S
H246 C244 0.948 . S
H247 C236 0.952 1_565 S
H248 C238 0.948 . S
C249 C215 1.395 . S
C249 C219 1.391 . S
C250 C212 1.389 . S
C250 C232 1.392 . S
C251 C222 1.392 . S
C251 C224 1.389 . S
C252 C227 1.395 . S
C252 C229 1.391 . S
H253 C213 0.951 1_565 S
H254 C214 0.950 . S
H255 C220 0.949 . S
H256 C221 0.950 . S
H257 C225 0.955 . S
H258 C226 0.950 . S
H259 C230 0.949 . S
H260 C231 0.950 . S
H261 C235 0.950 . S
H262 C237 0.950 . S
H263 C240 0.950 . S
H264 C242 0.950 . S
C265 C266 1.443 . S
C265 N269 1.376 . S
C265 C303 1.389 . S
C266 C265 1.443 . S
C266 C267 1.340 . S
C266 H306 0.951 . S
C267 C266 1.340 . S
C267 C268 1.439 . S
C267 H307 0.950 . S
C268 C267 1.439 . S
C268 N269 1.374 . S
C268 C302 1.395 . S
N269 C265 1.376 . S
N269 C268 1.374 . S
N269 Co270 2.008 . S
Co270 N269 2.008 . S
Co270 N271 1.995 . S
Co270 N276 2.008 . S
Co270 N281 1.995 . S
Co270 N286 2.282 . S
Co270 N292 2.282 . S
N271 Co270 1.995 . S
N271 C272 1.376 . S
N271 C275 1.383 . S
C272 N271 1.376 . S
C272 C273 1.446 . S
C272 C302 1.391 . S
C273 C272 1.446 . S
C273 C274 1.339 . S
C273 H308 0.949 . S
C274 C273 1.339 . S
C274 C275 1.439 . S
C274 H309 0.950 . S
C275 N271 1.383 . S
C275 C274 1.439 . S
C275 C304 1.392 . S
N276 Co270 2.008 . S
N276 C277 1.376 . S
N276 C280 1.374 . S
C277 N276 1.376 . S
C277 C278 1.443 . S
C277 C304 1.389 . S
C278 C277 1.443 . S
C278 C279 1.340 . S
C278 H310 0.951 . S
C279 C278 1.340 . S
C279 C280 1.439 . S
C279 H311 0.950 . S
C280 N276 1.374 . S
C280 C279 1.439 . S
C280 C305 1.395 . S
N281 Co270 1.995 . S
N281 C282 1.376 . S
N281 C285 1.383 . S
C282 N281 1.376 . S
C282 C283 1.446 . S
C282 C305 1.391 . S
C283 C282 1.446 . S
C283 C284 1.339 . S
C283 H312 0.949 . S
C284 C283 1.339 . S
C284 C285 1.439 . S
C284 H313 0.950 . S
C285 N281 1.383 . S
C285 C284 1.439 . S
C285 C303 1.392 . S
N286 Co270 2.282 . S
N286 C289 1.332 . S
N286 C291 1.332 . S
C287 C288 1.386 . S
C287 C290 1.388 . S
C288 C287 1.386 . S
C288 C289 1.382 . S
C288 H314 0.950 . S
C289 N286 1.332 . S
C289 C288 1.382 . S
C289 H300 0.952 . S
C290 C287 1.388 . S
C290 C291 1.382 . S
C290 H315 0.950 . S
C291 N286 1.332 . S
C291 C290 1.382 . S
C291 H301 0.948 . S
N292 Co270 2.282 . S
N292 C296 1.332 . S
N292 C297 1.332 . S
C293 C294 1.388 . S
C293 C297 1.382 . S
C293 H316 0.950 . S
C294 C293 1.388 . S
C294 C295 1.386 . S
C295 C294 1.386 . S
C295 C296 1.382 . S
C295 H317 0.950 . S
C296 N292 1.332 . S
C296 C295 1.382 . S
C296 H298 0.952 . S
C297 N292 1.332 . S
C297 C293 1.382 . S
C297 H299 0.948 . S
H298 C296 0.952 . S
H299 C297 0.948 . S
H300 C289 0.952 . S
H301 C291 0.948 . S
C302 C268 1.395 . S
C302 C272 1.391 . S
C303 C265 1.389 . S
C303 C285 1.392 . S
C304 C275 1.392 . S
C304 C277 1.389 . S
C305 C280 1.395 . S
C305 C282 1.391 . S
H306 C266 0.951 . S
H307 C267 0.950 . S
H308 C273 0.949 . S
H309 C274 0.950 . S
H310 C278 0.951 . S
H311 C279 0.950 . S
H312 C283 0.949 . S
H313 C284 0.950 . S
H314 C288 0.950 . S
H315 C290 0.950 . S
H316 C293 0.950 . S
H317 C295 0.950 . S
C318 O320 1.247 . S
C318 O322 1.258 . S
C319 O326 1.247 . S
C319 O327 1.258 . S
O320 C318 1.247 . S
O320 Zn321 2.028 . S
Zn321 O320 2.028 . S
Zn321 O325 2.035 . S
Zn321 O327 2.035 . S
Zn321 O328 2.028 . S
O322 C318 1.258 . S
O322 Zn323 2.035 . S
Zn323 O322 2.035 . S
Zn323 O324 2.028 . S
Zn323 O326 2.028 . S
Zn323 O329 2.035 . S
O324 Zn323 2.028 . S
O324 C330 1.247 . S
O325 Zn321 2.035 . S
O325 C330 1.258 . S
O326 C319 1.247 . S
O326 Zn323 2.028 . S
O327 C319 1.258 . S
O327 Zn321 2.035 . S
O328 Zn321 2.028 . S
O328 C331 1.247 . S
O329 Zn323 2.035 . S
O329 C331 1.258 . S
C330 O324 1.247 . S
C330 O325 1.258 . S
C331 O328 1.247 . S
C331 O329 1.258 . S
C332 O334 1.247 . S
C332 O336 1.258 . S
C333 O340 1.247 . S
C333 O341 1.258 . S
O334 C332 1.247 . S
O334 Zn335 2.028 . S
Zn335 O334 2.028 . S
Zn335 O339 2.035 . S
Zn335 O341 2.035 . S
Zn335 O342 2.028 . S
O336 C332 1.258 . S
O336 Zn337 2.035 . S
Zn337 O336 2.035 . S
Zn337 O338 2.028 . S
Zn337 O340 2.028 . S
Zn337 O343 2.035 . S
O338 Zn337 2.028 . S
O338 C344 1.247 . S
O339 Zn335 2.035 . S
O339 C344 1.258 . S
O340 C333 1.247 . S
O340 Zn337 2.028 . S
O341 C333 1.258 . S
O341 Zn335 2.035 . S
O342 Zn335 2.028 . S
O342 C345 1.247 . S
O343 Zn337 2.035 . S
O343 C345 1.258 . S
C344 O338 1.247 . S
C344 O339 1.258 . S
C345 O342 1.247 . S
C345 O343 1.258 . S
C346 O348 1.247 . S
C346 O350 1.258 . S
C347 O354 1.247 . S
C347 O355 1.258 . S
O348 C346 1.247 . S
O348 Zn349 2.028 . S
Zn349 O348 2.028 . S
Zn349 O353 2.035 . S
Zn349 O355 2.035 . S
Zn349 O356 2.028 . S
O350 C346 1.258 . S
O350 Zn351 2.035 . S
Zn351 O350 2.035 . S
Zn351 O352 2.028 . S
Zn351 O354 2.028 . S
Zn351 O357 2.035 . S
O352 Zn351 2.028 . S
O352 C358 1.247 . S
O353 Zn349 2.035 . S
O353 C358 1.258 . S
O354 C347 1.247 . S
O354 Zn351 2.028 . S
O355 C347 1.258 . S
O355 Zn349 2.035 . S
O356 Zn349 2.028 . S
O356 C359 1.247 . S
O357 Zn351 2.035 . S
O357 C359 1.258 . S
C358 O352 1.247 . S
C358 O353 1.258 . S
C359 O356 1.247 . S
C359 O357 1.258 . S
C360 O362 1.247 . S
C360 O364 1.258 . S
C361 O368 1.247 . S
C361 O369 1.258 . S
O362 C360 1.247 . S
O362 Zn363 2.028 . S
Zn363 O362 2.028 . S
Zn363 O367 2.035 . S
Zn363 O369 2.035 . S
Zn363 O370 2.028 . S
O364 C360 1.258 . S
O364 Zn365 2.035 . S
Zn365 O364 2.035 . S
Zn365 O366 2.028 . S
Zn365 O368 2.028 . S
Zn365 O371 2.035 . S
O366 Zn365 2.028 . S
O366 C372 1.247 . S
O367 Zn363 2.035 . S
O367 C372 1.258 . S
O368 C361 1.247 . S
O368 Zn365 2.028 . S
O369 C361 1.258 . S
O369 Zn363 2.035 . S
O370 Zn363 2.028 . S
O370 C373 1.247 . S
O371 Zn365 2.035 . S
O371 C373 1.258 . S
C372 O366 1.247 . S
C372 O367 1.258 . S
C373 O370 1.247 . S
C373 O371 1.258 . S
C374 O376 1.247 . S
C374 O378 1.258 . S
C375 O382 1.247 . S
C375 O383 1.258 . S
O376 C374 1.247 . S
O376 Zn377 2.028 . S
Zn377 O376 2.028 . S
Zn377 O381 2.035 . S
Zn377 O383 2.035 . S
Zn377 O384 2.028 . S
O378 C374 1.258 . S
O378 Zn379 2.035 . S
Zn379 O378 2.035 . S
Zn379 O380 2.028 . S
Zn379 O382 2.028 . S
Zn379 O385 2.035 . S
O380 Zn379 2.028 . S
O380 C386 1.247 . S
O381 Zn377 2.035 . S
O381 C386 1.258 . S
O382 C375 1.247 . S
O382 Zn379 2.028 . S
O383 C375 1.258 . S
O383 Zn377 2.035 . S
O384 Zn377 2.028 . S
O384 C387 1.247 . S
O385 Zn379 2.035 . S
O385 C387 1.258 . S
C386 O380 1.247 . S
C386 O381 1.258 . S
C387 O384 1.247 . S
C387 O385 1.258 . S
C388 O390 1.247 . S
C388 O392 1.258 . S
C389 O396 1.247 . S
C389 O397 1.258 . S
O390 C388 1.247 . S
O390 Zn391 2.028 . S
Zn391 O390 2.028 . S
Zn391 O395 2.035 . S
Zn391 O397 2.035 . S
Zn391 O398 2.028 . S
O392 C388 1.258 . S
O392 Zn393 2.035 . S
Zn393 O392 2.035 . S
Zn393 O394 2.028 . S
Zn393 O396 2.028 . S
Zn393 O399 2.035 . S
O394 Zn393 2.028 . S
O394 C400 1.247 . S
O395 Zn391 2.035 . S
O395 C400 1.258 . S
O396 C389 1.247 . S
O396 Zn393 2.028 . S
O397 C389 1.258 . S
O397 Zn391 2.035 . S
O398 Zn391 2.028 . S
O398 C401 1.247 . S
O399 Zn393 2.035 . S
O399 C401 1.258 . S
C400 O394 1.247 . S
C400 O395 1.258 . S
C401 O398 1.247 . S
C401 O399 1.258 . S
C402 C403 1.349 . S
C402 C404 1.327 . S
C402 H427 0.950 . S
C403 C402 1.349 . S
C403 C419 1.349 . S
C404 C402 1.327 . S
C404 C423 1.429 . S
C404 H428 0.950 . S
C405 C422 1.574 . S
C405 C424 1.368 . S
C405 H429 0.949 . S
H406 C410 0.949 . S
C407 C408 1.349 . S
C407 C409 1.327 . S
C407 H430 0.950 . S
C408 C407 1.349 . S
C408 C420 1.349 . S
C409 C407 1.327 . S
C409 C425 1.429 . S
C409 H431 0.950 . S
C410 H406 0.949 . S
C410 C418 1.574 . S
C410 C426 1.368 . S
H411 C419 0.950 . S
H412 C417 0.950 . S
H413 C418 0.949 . S
H414 C420 0.950 . S
H415 C421 0.950 . S
H416 C422 0.949 . S
C417 H412 0.950 . S
C417 C419 1.327 . S
C417 C423 1.429 . S
C418 C410 1.574 . S
C418 H413 0.949 . S
C418 C424 1.368 . S
C419 C403 1.349 . S
C419 H411 0.950 . S
C419 C417 1.327 . S
C420 C408 1.349 . S
C420 H414 0.950 . S
C420 C421 1.327 . S
C421 H415 0.950 . S
C421 C420 1.327 . S
C421 C425 1.429 . S
C422 C405 1.574 . S
C422 H416 0.949 . S
C422 C426 1.368 . S
C423 C404 1.429 . S
C423 C417 1.429 . S
C423 C424 1.523 . S
C424 C405 1.368 . S
C424 C418 1.368 . S
C424 C423 1.523 . S
C425 C409 1.429 . S
C425 C421 1.429 . S
C425 C426 1.523 . S
C426 C410 1.368 . S
C426 C422 1.368 . S
C426 C425 1.523 . S
H427 C402 0.950 . S
H428 C404 0.950 . S
H429 C405 0.949 . S
H430 C407 0.950 . S
H431 C409 0.950 . S
C432 C433 1.349 . S
C432 C434 1.327 . S
C432 H457 0.950 . S
C433 C432 1.349 . S
C433 C449 1.349 . S
C434 C432 1.327 . S
C434 C453 1.429 . S
C434 H458 0.950 . S
C435 C452 1.574 . S
C435 C454 1.368 . S
C435 H459 0.949 . S
H436 C440 0.949 . S
C437 C438 1.349 . S
C437 C439 1.327 . S
C437 H460 0.950 . S
C438 C437 1.349 . S
C438 C450 1.349 . S
C439 C437 1.327 . S
C439 C455 1.429 . S
C439 H461 0.950 . S
C440 H436 0.949 . S
C440 C448 1.574 . S
C440 C456 1.368 . S
H441 C449 0.950 . S
H442 C447 0.950 . S
H443 C448 0.949 . S
H444 C450 0.950 . S
H445 C451 0.950 . S
H446 C452 0.949 . S
C447 H442 0.950 . S
C447 C449 1.327 . S
C447 C453 1.429 . S
C448 C440 1.574 . S
C448 H443 0.949 . S
C448 C454 1.368 . S
C449 C433 1.349 . S
C449 H441 0.950 . S
C449 C447 1.327 . S
C450 C438 1.349 . S
C450 H444 0.950 . S
C450 C451 1.327 . S
C451 H445 0.950 . S
C451 C450 1.327 . S
C451 C455 1.429 . S
C452 C435 1.574 . S
C452 H446 0.949 . S
C452 C456 1.368 . S
C453 C434 1.429 . S
C453 C447 1.429 . S
C453 C454 1.523 . S
C454 C435 1.368 . S
C454 C448 1.368 . S
C454 C453 1.523 . S
C455 C439 1.429 . S
C455 C451 1.429 . S
C455 C456 1.523 . S
C456 C440 1.368 . S
C456 C452 1.368 . S
C456 C455 1.523 . S
H457 C432 0.950 . S
H458 C434 0.950 . S
H459 C435 0.949 . S
H460 C437 0.950 . S
H461 C439 0.950 . S
C462 C463 1.349 . S
C462 C464 1.327 . S
C462 H487 0.950 . S
C463 C462 1.349 . S
C463 C479 1.349 . S
C464 C462 1.327 . S
C464 C483 1.429 . S
C464 H488 0.950 . S
C465 C482 1.574 . S
C465 C484 1.368 . S
C465 H489 0.949 . S
H466 C470 0.949 . S
C467 C468 1.349 . S
C467 C469 1.327 . S
C467 H490 0.950 . S
C468 C467 1.349 . S
C468 C480 1.349 . S
C469 C467 1.327 . S
C469 C485 1.429 . S
C469 H491 0.950 . S
C470 H466 0.949 . S
C470 C478 1.574 . S
C470 C486 1.368 . S
H471 C479 0.950 . S
H472 C477 0.950 . S
H473 C478 0.949 . S
H474 C480 0.950 . S
H475 C481 0.950 . S
H476 C482 0.949 . S
C477 H472 0.950 . S
C477 C479 1.327 . S
C477 C483 1.429 . S
C478 C470 1.574 . S
C478 H473 0.949 . S
C478 C484 1.368 . S
C479 C463 1.349 . S
C479 H471 0.950 . S
C479 C477 1.327 . S
C480 C468 1.349 . S
C480 H474 0.950 . S
C480 C481 1.327 . S
C481 H475 0.950 . S
C481 C480 1.327 . S
C481 C485 1.429 . S
C482 C465 1.574 . S
C482 H476 0.949 . S
C482 C486 1.368 . S
C483 C464 1.429 . S
C483 C477 1.429 . S
C483 C484 1.523 . S
C484 C465 1.368 . S
C484 C478 1.368 . S
C484 C483 1.523 . S
C485 C469 1.429 . S
C485 C481 1.429 . S
C485 C486 1.523 . S
C486 C470 1.368 . S
C486 C482 1.368 . S
C486 C485 1.523 . S
H487 C462 0.950 . S
H488 C464 0.950 . S
H489 C465 0.949 . S
H490 C467 0.950 . S
H491 C469 0.950 . S
C492 C493 1.349 . S
C492 C494 1.327 . S
C492 H517 0.950 . S
C493 C492 1.349 . S
C493 C509 1.349 . S
C494 C492 1.327 . S
C494 C513 1.429 . S
C494 H518 0.950 . S
C495 C512 1.574 . S
C495 C514 1.368 . S
C495 H519 0.949 . S
H496 C500 0.949 . S
C497 C498 1.349 . S
C497 C499 1.327 . S
C497 H520 0.950 . S
C498 C497 1.349 . S
C498 C510 1.349 . S
C499 C497 1.327 . S
C499 C515 1.429 . S
C499 H521 0.950 . S
C500 H496 0.949 . S
C500 C508 1.574 . S
C500 C516 1.368 . S
H501 C509 0.950 . S
H502 C507 0.950 . S
H503 C508 0.949 . S
H504 C510 0.950 . S
H505 C511 0.950 . S
H506 C512 0.949 . S
C507 H502 0.950 . S
C507 C509 1.327 . S
C507 C513 1.429 . S
C508 C500 1.574 . S
C508 H503 0.949 . S
C508 C514 1.368 . S
C509 C493 1.349 . S
C509 H501 0.950 . S
C509 C507 1.327 . S
C510 C498 1.349 . S
C510 H504 0.950 . S
C510 C511 1.327 . S
C511 H505 0.950 . S
C511 C510 1.327 . S
C511 C515 1.429 . S
C512 C495 1.574 . S
C512 H506 0.949 . S
C512 C516 1.368 . S
C513 C494 1.429 . S
C513 C507 1.429 . S
C513 C514 1.523 . S
C514 C495 1.368 . S
C514 C508 1.368 . S
C514 C513 1.523 . S
C515 C499 1.429 . S
C515 C511 1.429 . S
C515 C516 1.523 . S
C516 C500 1.368 . S
C516 C512 1.368 . S
C516 C515 1.523 . S
H517 C492 0.950 . S
H518 C494 0.950 . S
H519 C495 0.949 . S
H520 C497 0.950 . S
H521 C499 0.950 . S
C522 C523 1.349 . S
C522 C524 1.327 . S
C522 H547 0.950 . S
C523 C522 1.349 . S
C523 C539 1.349 . S
C524 C522 1.327 . S
C524 C543 1.429 . S
C524 H548 0.950 . S
C525 C542 1.574 . S
C525 C544 1.368 . S
C525 H549 0.949 . S
H526 C530 0.949 . S
C527 C528 1.349 . S
C527 C529 1.327 . S
C527 H550 0.950 . S
C528 C527 1.349 . S
C528 C540 1.349 . S
C529 C527 1.327 . S
C529 C545 1.429 . S
C529 H551 0.950 . S
C530 H526 0.949 . S
C530 C538 1.574 . S
C530 C546 1.368 . S
H531 C539 0.950 . S
H532 C537 0.950 . S
H533 C538 0.949 . S
H534 C540 0.950 . S
H535 C541 0.950 . S
H536 C542 0.949 . S
C537 H532 0.950 . S
C537 C539 1.327 . S
C537 C543 1.429 . S
C538 C530 1.574 . S
C538 H533 0.949 . S
C538 C544 1.368 . S
C539 C523 1.349 . S
C539 H531 0.950 . S
C539 C537 1.327 . S
C540 C528 1.349 . S
C540 H534 0.950 . S
C540 C541 1.327 . S
C541 H535 0.950 . S
C541 C540 1.327 . S
C541 C545 1.429 . S
C542 C525 1.574 . S
C542 H536 0.949 . S
C542 C546 1.368 . S
C543 C524 1.429 . S
C543 C537 1.429 . S
C543 C544 1.523 . S
C544 C525 1.368 . S
C544 C538 1.368 . S
C544 C543 1.523 . S
C545 C529 1.429 . S
C545 C541 1.429 . S
C545 C546 1.523 . S
C546 C530 1.368 . S
C546 C542 1.368 . S
C546 C545 1.523 . S
H547 C522 0.950 . S
H548 C524 0.950 . S
H549 C525 0.949 . S
H550 C527 0.950 . S
H551 C529 0.950 . S
C552 C553 1.349 . S
C552 C554 1.327 . S
C552 H577 0.950 . S
C553 C552 1.349 . S
C553 C569 1.349 . S
C554 C552 1.327 . S
C554 C573 1.429 . S
C554 H578 0.950 . S
C555 C572 1.574 . S
C555 C574 1.368 . S
C555 H579 0.949 . S
H556 C560 0.949 . S
C557 C558 1.349 . S
C557 C559 1.327 . S
C557 H580 0.950 . S
C558 C557 1.349 . S
C558 C570 1.349 . S
C559 C557 1.327 . S
C559 C575 1.429 . S
C559 H581 0.950 . S
C560 H556 0.949 . S
C560 C568 1.574 . S
C560 C576 1.368 . S
H561 C569 0.950 . S
H562 C567 0.950 . S
H563 C568 0.949 . S
H564 C570 0.950 . S
H565 C571 0.950 . S
H566 C572 0.949 . S
C567 H562 0.950 . S
C567 C569 1.327 . S
C567 C573 1.429 . S
C568 C560 1.574 . S
C568 H563 0.949 . S
C568 C574 1.368 . S
C569 C553 1.349 . S
C569 H561 0.950 . S
C569 C567 1.327 . S
C570 C558 1.349 . S
C570 H564 0.950 . S
C570 C571 1.327 . S
C571 H565 0.950 . S
C571 C570 1.327 . S
C571 C575 1.429 . S
C572 C555 1.574 . S
C572 H566 0.949 . S
C572 C576 1.368 . S
C573 C554 1.429 . S
C573 C567 1.429 . S
C573 C574 1.523 . S
C574 C555 1.368 . S
C574 C568 1.368 . S
C574 C573 1.523 . S
C575 C559 1.429 . S
C575 C571 1.429 . S
C575 C576 1.523 . S
C576 C560 1.368 . S
C576 C572 1.368 . S
C576 C575 1.523 . S
H577 C552 0.950 . S
H578 C554 0.950 . S
H579 C555 0.949 . S
H580 C557 0.950 . S
H581 C559 0.950 . S
C582 C583 1.349 . S
C582 C584 1.327 . S
C582 H607 0.950 . S
C583 C582 1.349 . S
C583 C599 1.349 . S
C584 C582 1.327 . S
C584 C603 1.429 . S
C584 H608 0.950 . S
C585 C602 1.574 . S
C585 C604 1.368 . S
C585 H609 0.949 . S
H586 C590 0.949 . S
C587 C588 1.349 . S
C587 C589 1.327 . S
C587 H610 0.950 . S
C588 C587 1.349 . S
C588 C600 1.349 . S
C589 C587 1.327 . S
C589 C605 1.429 . S
C589 H611 0.950 . S
C590 H586 0.949 . S
C590 C598 1.574 . S
C590 C606 1.368 . S
H591 C599 0.950 . S
H592 C597 0.950 . S
H593 C598 0.949 . S
H594 C600 0.950 . S
H595 C601 0.950 . S
H596 C602 0.949 . S
C597 H592 0.950 . S
C597 C599 1.327 . S
C597 C603 1.429 . S
C598 C590 1.574 . S
C598 H593 0.949 . S
C598 C604 1.368 . S
C599 C583 1.349 . S
C599 H591 0.950 . S
C599 C597 1.327 . S
C600 C588 1.349 . S
C600 H594 0.950 . S
C600 C601 1.327 . S
C601 H595 0.950 . S
C601 C600 1.327 . S
C601 C605 1.429 . S
C602 C585 1.574 . S
C602 H596 0.949 . S
C602 C606 1.368 . S
C603 C584 1.429 . S
C603 C597 1.429 . S
C603 C604 1.523 . S
C604 C585 1.368 . S
C604 C598 1.368 . S
C604 C603 1.523 . S
C605 C589 1.429 . S
C605 C601 1.429 . S
C605 C606 1.523 . S
C606 C590 1.368 . S
C606 C602 1.368 . S
C606 C605 1.523 . S
H607 C582 0.950 . S
H608 C584 0.950 . S
H609 C585 0.949 . S
H610 C587 0.950 . S
H611 C589 0.950 . S
C612 C613 1.349 . S
C612 C614 1.327 . S
C612 H637 0.950 . S
C613 C612 1.349 . S
C613 C629 1.349 . S
C614 C612 1.327 . S
C614 C633 1.429 . S
C614 H638 0.950 . S
C615 C632 1.574 . S
C615 C634 1.368 . S
C615 H639 0.949 . S
H616 C620 0.949 . S
C617 C618 1.349 . S
C617 C619 1.327 . S
C617 H640 0.950 . S
C618 C617 1.349 . S
C618 C630 1.349 . S
C619 C617 1.327 . S
C619 C635 1.429 . S
C619 H641 0.950 . S
C620 H616 0.949 . S
C620 C628 1.574 . S
C620 C636 1.368 . S
H621 C629 0.950 . S
H622 C627 0.950 . S
H623 C628 0.949 . S
H624 C630 0.950 . S
H625 C631 0.950 . S
H626 C632 0.949 . S
C627 H622 0.950 . S
C627 C629 1.327 . S
C627 C633 1.429 . S
C628 C620 1.574 . S
C628 H623 0.949 . S
C628 C634 1.368 . S
C629 C613 1.349 . S
C629 H621 0.950 . S
C629 C627 1.327 . S
C630 C618 1.349 . S
C630 H624 0.950 . S
C630 C631 1.327 . S
C631 H625 0.950 . S
C631 C630 1.327 . S
C631 C635 1.429 . S
C632 C615 1.574 . S
C632 H626 0.949 . S
C632 C636 1.368 . S
C633 C614 1.429 . S
C633 C627 1.429 . S
C633 C634 1.523 . S
C634 C615 1.368 . S
C634 C628 1.368 . S
C634 C633 1.523 . S
C635 C619 1.429 . S
C635 C631 1.429 . S
C635 C636 1.523 . S
C636 C620 1.368 . S
C636 C632 1.368 . S
C636 C635 1.523 . S
H637 C612 0.950 . S
H638 C614 0.950 . S
H639 C615 0.949 . S
H640 C617 0.950 . S
H641 C619 0.950 . S
C642 C643 1.349 . S
C642 C644 1.327 . S
C642 H667 0.950 . S
C643 C642 1.349 . S
C643 C659 1.349 . S
C644 C642 1.327 . S
C644 C663 1.429 . S
C644 H668 0.950 . S
C645 C662 1.574 . S
C645 C664 1.368 . S
C645 H669 0.949 . S
H646 C650 0.949 . S
C647 C648 1.349 . S
C647 C649 1.327 . S
C647 H670 0.950 . S
C648 C647 1.349 . S
C648 C660 1.349 . S
C649 C647 1.327 . S
C649 C665 1.429 . S
C649 H671 0.950 . S
C650 H646 0.949 . S
C650 C658 1.574 . S
C650 C666 1.368 . S
H651 C659 0.950 . S
H652 C657 0.950 . S
H653 C658 0.949 . S
H654 C660 0.950 . S
H655 C661 0.950 . S
H656 C662 0.949 . S
C657 H652 0.950 . S
C657 C659 1.327 . S
C657 C663 1.429 . S
C658 C650 1.574 . S
C658 H653 0.949 . S
C658 C664 1.368 . S
C659 C643 1.349 . S
C659 H651 0.950 . S
C659 C657 1.327 . S
C660 C648 1.349 . S
C660 H654 0.950 . S
C660 C661 1.327 . S
C661 H655 0.950 . S
C661 C660 1.327 . S
C661 C665 1.429 . S
C662 C645 1.574 . S
C662 H656 0.949 . S
C662 C666 1.368 . S
C663 C644 1.429 . S
C663 C657 1.429 . S
C663 C664 1.523 . S
C664 C645 1.368 . S
C664 C658 1.368 . S
C664 C663 1.523 . S
C665 C649 1.429 . S
C665 C661 1.429 . S
C665 C666 1.523 . S
C666 C650 1.368 . S
C666 C662 1.368 . S
C666 C665 1.523 . S
H667 C642 0.950 . S
H668 C644 0.950 . S
H669 C645 0.949 . S
H670 C647 0.950 . S
H671 C649 0.950 . S
C672 C673 1.349 . S
C672 C674 1.327 . S
C672 H697 0.950 . S
C673 C672 1.349 . S
C673 C689 1.349 . S
C674 C672 1.327 . S
C674 C693 1.429 . S
C674 H698 0.950 . S
C675 C692 1.574 . S
C675 C694 1.368 . S
C675 H699 0.949 . S
H676 C680 0.949 . S
C677 C678 1.349 . S
C677 C679 1.327 . S
C677 H700 0.950 . S
C678 C677 1.349 . S
C678 C690 1.349 . S
C679 C677 1.327 . S
C679 C695 1.429 . S
C679 H701 0.950 . S
C680 H676 0.949 . S
C680 C688 1.574 . S
C680 C696 1.368 . S
H681 C689 0.950 . S
H682 C687 0.950 . S
H683 C688 0.949 . S
H684 C690 0.950 . S
H685 C691 0.950 . S
H686 C692 0.949 . S
C687 H682 0.950 . S
C687 C689 1.327 . S
C687 C693 1.429 . S
C688 C680 1.574 . S
C688 H683 0.949 . S
C688 C694 1.368 . S
C689 C673 1.349 . S
C689 H681 0.950 . S
C689 C687 1.327 . S
C690 C678 1.349 . S
C690 H684 0.950 . S
C690 C691 1.327 . S
C691 H685 0.950 . S
C691 C690 1.327 . S
C691 C695 1.429 . S
C692 C675 1.574 . S
C692 H686 0.949 . S
C692 C696 1.368 . S
C693 C674 1.429 . S
C693 C687 1.429 . S
C693 C694 1.523 . S
C694 C675 1.368 . S
C694 C688 1.368 . S
C694 C693 1.523 . S
C695 C679 1.429 . S
C695 C691 1.429 . S
C695 C696 1.523 . S
C696 C680 1.368 . S
C696 C692 1.368 . S
C696 C695 1.523 . S
H697 C672 0.950 . S
H698 C674 0.950 . S
H699 C675 0.949 . S
H700 C677 0.950 . S
H701 C679 0.950 . S
C702 C703 1.349 . S
C702 C704 1.327 . S
C702 H727 0.950 . S
C703 C702 1.349 . S
C703 C719 1.349 . S
C704 C702 1.327 . S
C704 C723 1.429 . S
C704 H728 0.950 . S
C705 C722 1.574 . S
C705 C724 1.368 . S
C705 H729 0.949 . S
H706 C710 0.949 . S
C707 C708 1.349 . S
C707 C709 1.327 . S
C707 H730 0.950 . S
C708 C707 1.349 . S
C708 C720 1.349 . S
C709 C707 1.327 . S
C709 C725 1.429 . S
C709 H731 0.950 . S
C710 H706 0.949 . S
C710 C718 1.574 . S
C710 C726 1.368 . S
H711 C719 0.950 . S
H712 C717 0.950 . S
H713 C718 0.949 . S
H714 C720 0.950 . S
H715 C721 0.950 . S
H716 C722 0.949 . S
C717 H712 0.950 . S
C717 C719 1.327 . S
C717 C723 1.429 . S
C718 C710 1.574 . S
C718 H713 0.949 . S
C718 C724 1.368 . S
C719 C703 1.349 . S
C719 H711 0.950 . S
C719 C717 1.327 . S
C720 C708 1.349 . S
C720 H714 0.950 . S
C720 C721 1.327 . S
C721 H715 0.950 . S
C721 C720 1.327 . S
C721 C725 1.429 . S
C722 C705 1.574 . S
C722 H716 0.949 . S
C722 C726 1.368 . S
C723 C704 1.429 . S
C723 C717 1.429 . S
C723 C724 1.523 . S
C724 C705 1.368 . S
C724 C718 1.368 . S
C724 C723 1.523 . S
C725 C709 1.429 . S
C725 C721 1.429 . S
C725 C726 1.523 . S
C726 C710 1.368 . S
C726 C722 1.368 . S
C726 C725 1.523 . S
H727 C702 0.950 . S
H728 C704 0.950 . S
H729 C705 0.949 . S
H730 C707 0.950 . S
H731 C709 0.950 . S
C732 C733 1.349 . S
C732 C734 1.327 . S
C732 H757 0.950 . S
C733 C732 1.349 . S
C733 C749 1.349 . S
C734 C732 1.327 . S
C734 C753 1.429 . S
C734 H758 0.950 . S
C735 C752 1.574 . S
C735 C754 1.368 . S
C735 H759 0.949 . S
H736 C740 0.949 . S
C737 C738 1.349 . S
C737 C739 1.327 . S
C737 H760 0.950 . S
C738 C737 1.349 . S
C738 C750 1.349 . S
C739 C737 1.327 . S
C739 C755 1.429 . S
C739 H761 0.950 . S
C740 H736 0.949 . S
C740 C748 1.574 . S
C740 C756 1.368 . S
H741 C749 0.950 . S
H742 C747 0.950 . S
H743 C748 0.949 . S
H744 C750 0.950 . S
H745 C751 0.950 . S
H746 C752 0.949 . S
C747 H742 0.950 . S
C747 C749 1.327 . S
C747 C753 1.429 . S
C748 C740 1.574 . S
C748 H743 0.949 . S
C748 C754 1.368 . S
C749 C733 1.349 . S
C749 H741 0.950 . S
C749 C747 1.327 . S
C750 C738 1.349 . S
C750 H744 0.950 . S
C750 C751 1.327 . S
C751 H745 0.950 . S
C751 C750 1.327 . S
C751 C755 1.429 . S
C752 C735 1.574 . S
C752 H746 0.949 . S
C752 C756 1.368 . S
C753 C734 1.429 . S
C753 C747 1.429 . S
C753 C754 1.523 . S
C754 C735 1.368 . S
C754 C748 1.368 . S
C754 C753 1.523 . S
C755 C739 1.429 . S
C755 C751 1.429 . S
C755 C756 1.523 . S
C756 C740 1.368 . S
C756 C752 1.368 . S
C756 C755 1.523 . S
H757 C732 0.950 . S
H758 C734 0.950 . S
H759 C735 0.949 . S
H760 C737 0.950 . S
H761 C739 0.950 . S
C762 C763 1.349 . S
C762 C764 1.327 . S
C762 H787 0.950 . S
C763 C762 1.349 . S
C763 C779 1.349 . S
C764 C762 1.327 . S
C764 C783 1.429 . S
C764 H788 0.950 . S
C765 C782 1.574 . S
C765 C784 1.368 . S
C765 H789 0.949 . S
H766 C770 0.949 . S
C767 C768 1.349 . S
C767 C769 1.327 . S
C767 H790 0.950 . S
C768 C767 1.349 . S
C768 C780 1.349 . S
C769 C767 1.327 . S
C769 C785 1.429 . S
C769 H791 0.950 . S
C770 H766 0.949 . S
C770 C778 1.574 . S
C770 C786 1.368 . S
H771 C779 0.950 . S
H772 C777 0.950 . S
H773 C778 0.949 . S
H774 C780 0.950 . S
H775 C781 0.950 . S
H776 C782 0.949 . S
C777 H772 0.950 . S
C777 C779 1.327 . S
C777 C783 1.429 . S
C778 C770 1.574 . S
C778 H773 0.949 . S
C778 C784 1.368 . S
C779 C763 1.349 . S
C779 H771 0.950 . S
C779 C777 1.327 . S
C780 C768 1.349 . S
C780 H774 0.950 . S
C780 C781 1.327 . S
C781 H775 0.950 . S
C781 C780 1.327 . S
C781 C785 1.429 . S
C782 C765 1.574 . S
C782 H776 0.949 . S
C782 C786 1.368 . S
C783 C764 1.429 . S
C783 C777 1.429 . S
C783 C784 1.523 . S
C784 C765 1.368 . S
C784 C778 1.368 . S
C784 C783 1.523 . S
C785 C769 1.429 . S
C785 C781 1.429 . S
C785 C786 1.523 . S
C786 C770 1.368 . S
C786 C782 1.368 . S
C786 C785 1.523 . S
H787 C762 0.950 . S
H788 C764 0.950 . S
H789 C765 0.949 . S
H790 C767 0.950 . S
H791 C769 0.950 . S
C792 C793 1.349 . S
C792 C794 1.327 . S
C792 H817 0.950 . S
C793 C792 1.349 . S
C793 C809 1.349 . S
C794 C792 1.327 . S
C794 C813 1.429 . S
C794 H818 0.950 . S
C795 C812 1.574 . S
C795 C814 1.368 . S
C795 H819 0.949 . S
H796 C800 0.949 . S
C797 C798 1.349 . S
C797 C799 1.327 . S
C797 H820 0.950 . S
C798 C797 1.349 . S
C798 C810 1.349 . S
C799 C797 1.327 . S
C799 C815 1.429 . S
C799 H821 0.950 . S
C800 H796 0.949 . S
C800 C808 1.574 . S
C800 C816 1.368 . S
H801 C809 0.950 . S
H802 C807 0.950 . S
H803 C808 0.949 . S
H804 C810 0.950 . S
H805 C811 0.950 . S
H806 C812 0.949 . S
C807 H802 0.950 . S
C807 C809 1.327 . S
C807 C813 1.429 . S
C808 C800 1.574 . S
C808 H803 0.949 . S
C808 C814 1.368 . S
C809 C793 1.349 . S
C809 H801 0.950 . S
C809 C807 1.327 . S
C810 C798 1.349 . S
C810 H804 0.950 . S
C810 C811 1.327 . S
C811 H805 0.950 . S
C811 C810 1.327 . S
C811 C815 1.429 . S
C812 C795 1.574 . S
C812 H806 0.949 . S
C812 C816 1.368 . S
C813 C794 1.429 . S
C813 C807 1.429 . S
C813 C814 1.523 . S
C814 C795 1.368 . S
C814 C808 1.368 . S
C814 C813 1.523 . S
C815 C799 1.429 . S
C815 C811 1.429 . S
C815 C816 1.523 . S
C816 C800 1.368 . S
C816 C812 1.368 . S
C816 C815 1.523 . S
H817 C792 0.950 . S
H818 C794 0.950 . S
H819 C795 0.949 . S
H820 C797 0.950 . S
H821 C799 0.950 . S
C822 C823 1.349 . S
C822 C824 1.327 . S
C822 H847 0.950 . S
C823 C822 1.349 . S
C823 C839 1.349 . S
C824 C822 1.327 . S
C824 C843 1.429 . S
C824 H848 0.950 . S
C825 C842 1.574 . S
C825 C844 1.368 . S
C825 H849 0.949 . S
H826 C830 0.949 . S
C827 C828 1.349 . S
C827 C829 1.327 . S
C827 H850 0.950 . S
C828 C827 1.349 . S
C828 C840 1.349 . S
C829 C827 1.327 . S
C829 C845 1.429 . S
C829 H851 0.950 . S
C830 H826 0.949 . S
C830 C838 1.574 . S
C830 C846 1.368 . S
H831 C839 0.950 . S
H832 C837 0.950 . S
H833 C838 0.949 . S
H834 C840 0.950 . S
H835 C841 0.950 . S
H836 C842 0.949 . S
C837 H832 0.950 . S
C837 C839 1.327 . S
C837 C843 1.429 . S
C838 C830 1.574 . S
C838 H833 0.949 . S
C838 C844 1.368 . S
C839 C823 1.349 . S
C839 H831 0.950 . S
C839 C837 1.327 . S
C840 C828 1.349 . S
C840 H834 0.950 . S
C840 C841 1.327 . S
C841 H835 0.950 . S
C841 C840 1.327 . S
C841 C845 1.429 . S
C842 C825 1.574 . S
C842 H836 0.949 . S
C842 C846 1.368 . S
C843 C824 1.429 . S
C843 C837 1.429 . S
C843 C844 1.523 . S
C844 C825 1.368 . S
C844 C838 1.368 . S
C844 C843 1.523 . S
C845 C829 1.429 . S
C845 C841 1.429 . S
C845 C846 1.523 . S
C846 C830 1.368 . S
C846 C842 1.368 . S
C846 C845 1.523 . S
H847 C822 0.950 . S
H848 C824 0.950 . S
H849 C825 0.949 . S
H850 C827 0.950 . S
H851 C829 0.950 . S
C852 C853 1.349 . S
C852 C854 1.327 . S
C852 H877 0.950 . S
C853 C852 1.349 . S
C853 C869 1.349 . S
C854 C852 1.327 . S
C854 C873 1.429 . S
C854 H878 0.950 . S
C855 C872 1.574 . S
C855 C874 1.368 . S
C855 H879 0.949 . S
H856 C860 0.949 . S
C857 C858 1.349 . S
C857 C859 1.327 . S
C857 H880 0.950 . S
C858 C857 1.349 . S
C858 C870 1.349 . S
C859 C857 1.327 . S
C859 C875 1.429 . S
C859 H881 0.950 . S
C860 H856 0.949 . S
C860 C868 1.574 . S
C860 C876 1.368 . S
H861 C869 0.950 . S
H862 C867 0.950 . S
H863 C868 0.949 . S
H864 C870 0.950 . S
H865 C871 0.950 . S
H866 C872 0.949 . S
C867 H862 0.950 . S
C867 C869 1.327 . S
C867 C873 1.429 . S
C868 C860 1.574 . S
C868 H863 0.949 . S
C868 C874 1.368 . S
C869 C853 1.349 . S
C869 H861 0.950 . S
C869 C867 1.327 . S
C870 C858 1.349 . S
C870 H864 0.950 . S
C870 C871 1.327 . S
C871 H865 0.950 . S
C871 C870 1.327 . S
C871 C875 1.429 . S
C872 C855 1.574 . S
C872 H866 0.949 . S
C872 C876 1.368 . S
C873 C854 1.429 . S
C873 C867 1.429 . S
C873 C874 1.523 . S
C874 C855 1.368 . S
C874 C868 1.368 . S
C874 C873 1.523 . S
C875 C859 1.429 . S
C875 C871 1.429 . S
C875 C876 1.523 . S
C876 C860 1.368 . S
C876 C872 1.368 . S
C876 C875 1.523 . S
H877 C852 0.950 . S
H878 C854 0.950 . S
H879 C855 0.949 . S
H880 C857 0.950 . S
H881 C859 0.950 . S
C882 C883 1.349 . S
C882 C884 1.327 . S
C882 H907 0.950 . S
C883 C882 1.349 . S
C883 C899 1.349 . S
C884 C882 1.327 . S
C884 C903 1.429 . S
C884 H908 0.950 . S
C885 C902 1.574 . S
C885 C904 1.368 . S
C885 H909 0.949 . S
H886 C890 0.949 . S
C887 C888 1.349 . S
C887 C889 1.327 . S
C887 H910 0.950 . S
C888 C887 1.349 . S
C888 C900 1.349 . S
C889 C887 1.327 . S
C889 C905 1.429 . S
C889 H911 0.950 . S
C890 H886 0.949 . S
C890 C898 1.574 . S
C890 C906 1.368 . S
H891 C899 0.950 . S
H892 C897 0.950 . S
H893 C898 0.949 . S
H894 C900 0.950 . S
H895 C901 0.950 . S
H896 C902 0.949 . S
C897 H892 0.950 . S
C897 C899 1.327 . S
C897 C903 1.429 . S
C898 C890 1.574 . S
C898 H893 0.949 . S
C898 C904 1.368 . S
C899 C883 1.349 . S
C899 H891 0.950 . S
C899 C897 1.327 . S
C900 C888 1.349 . S
C900 H894 0.950 . S
C900 C901 1.327 . S
C901 H895 0.950 . S
C901 C900 1.327 . S
C901 C905 1.429 . S
C902 C885 1.574 . S
C902 H896 0.949 . S
C902 C906 1.368 . S
C903 C884 1.429 . S
C903 C897 1.429 . S
C903 C904 1.523 . S
C904 C885 1.368 . S
C904 C898 1.368 . S
C904 C903 1.523 . S
C905 C889 1.429 . S
C905 C901 1.429 . S
C905 C906 1.523 . S
C906 C890 1.368 . S
C906 C902 1.368 . S
C906 C905 1.523 . S
H907 C882 0.950 . S
H908 C884 0.950 . S
H909 C885 0.949 . S
H910 C887 0.950 . S
H911 C889 0.950 . S
C912 C913 1.349 . S
C912 C914 1.327 . S
C912 H937 0.950 . S
C913 C912 1.349 . S
C913 C929 1.349 . S
C914 C912 1.327 . S
C914 C933 1.429 . S
C914 H938 0.950 . S
C915 C932 1.574 . S
C915 C934 1.368 . S
C915 H939 0.949 . S
H916 C920 0.949 . S
C917 C918 1.349 . S
C917 C919 1.327 . S
C917 H940 0.950 . S
C918 C917 1.349 . S
C918 C930 1.349 . S
C919 C917 1.327 . S
C919 C935 1.429 . S
C919 H941 0.950 . S
C920 H916 0.949 . S
C920 C928 1.574 . S
C920 C936 1.368 . S
H921 C929 0.950 . S
H922 C927 0.950 . S
H923 C928 0.949 . S
H924 C930 0.950 . S
H925 C931 0.950 . S
H926 C932 0.949 . S
C927 H922 0.950 . S
C927 C929 1.327 . S
C927 C933 1.429 . S
C928 C920 1.574 . S
C928 H923 0.949 . S
C928 C934 1.368 . S
C929 C913 1.349 . S
C929 H921 0.950 . S
C929 C927 1.327 . S
C930 C918 1.349 . S
C930 H924 0.950 . S
C930 C931 1.327 . S
C931 H925 0.950 . S
C931 C930 1.327 . S
C931 C935 1.429 . S
C932 C915 1.574 . S
C932 H926 0.949 . S
C932 C936 1.368 . S
C933 C914 1.429 . S
C933 C927 1.429 . S
C933 C934 1.523 . S
C934 C915 1.368 . S
C934 C928 1.368 . S
C934 C933 1.523 . S
C935 C919 1.429 . S
C935 C931 1.429 . S
C935 C936 1.523 . S
C936 C920 1.368 . S
C936 C932 1.368 . S
C936 C935 1.523 . S
H937 C912 0.950 . S
H938 C914 0.950 . S
H939 C915 0.949 . S
H940 C917 0.950 . S
H941 C919 0.950 . S
C942 C943 1.349 . S
C942 C944 1.327 . S
C942 H967 0.950 . S
C943 C942 1.349 . S
C943 C959 1.349 . S
C944 C942 1.327 . S
C944 C963 1.429 . S
C944 H968 0.950 . S
C945 C962 1.574 . S
C945 C964 1.368 . S
C945 H969 0.949 . S
H946 C950 0.949 . S
C947 C948 1.349 . S
C947 C949 1.327 . S
C947 H970 0.950 . S
C948 C947 1.349 . S
C948 C960 1.349 . S
C949 C947 1.327 . S
C949 C965 1.429 . S
C949 H971 0.950 . S
C950 H946 0.949 . S
C950 C958 1.574 . S
C950 C966 1.368 . S
H951 C959 0.950 . S
H952 C957 0.950 . S
H953 C958 0.949 . S
H954 C960 0.950 . S
H955 C961 0.950 . S
H956 C962 0.949 . S
C957 H952 0.950 . S
C957 C959 1.327 . S
C957 C963 1.429 . S
C958 C950 1.574 . S
C958 H953 0.949 . S
C958 C964 1.368 . S
C959 C943 1.349 . S
C959 H951 0.950 . S
C959 C957 1.327 . S
C960 C948 1.349 . S
C960 H954 0.950 . S
C960 C961 1.327 . S
C961 H955 0.950 . S
C961 C960 1.327 . S
C961 C965 1.429 . S
C962 C945 1.574 . S
C962 H956 0.949 . S
C962 C966 1.368 . S
C963 C944 1.429 . S
C963 C957 1.429 . S
C963 C964 1.523 . S
C964 C945 1.368 . S
C964 C958 1.368 . S
C964 C963 1.523 . S
C965 C949 1.429 . S
C965 C961 1.429 . S
C965 C966 1.523 . S
C966 C950 1.368 . S
C966 C962 1.368 . S
C966 C965 1.523 . S
H967 C942 0.950 . S
H968 C944 0.950 . S
H969 C945 0.949 . S
H970 C947 0.950 . S
H971 C949 0.950 . S
C972 C973 1.349 . S
C972 C974 1.327 . S
C972 H997 0.950 . S
C973 C972 1.349 . S
C973 C989 1.349 . S
C974 C972 1.327 . S
C974 C993 1.429 . S
C974 H998 0.950 . S
C975 C992 1.574 . S
C975 C994 1.368 . S
C975 H999 0.949 . S
H976 C980 0.949 . S
C977 C978 1.349 . S
C977 C979 1.327 . S
C977 H1000 0.950 . S
C978 C977 1.349 . S
C978 C990 1.349 . S
C979 C977 1.327 . S
C979 C995 1.429 . S
C979 H1001 0.950 . S
C980 H976 0.949 . S
C980 C988 1.574 . S
C980 C996 1.368 . S
H981 C989 0.950 . S
H982 C987 0.950 . S
H983 C988 0.949 . S
H984 C990 0.950 . S
H985 C991 0.950 . S
H986 C992 0.949 . S
C987 H982 0.950 . S
C987 C989 1.327 . S
C987 C993 1.429 . S
C988 C980 1.574 . S
C988 H983 0.949 . S
C988 C994 1.368 . S
C989 C973 1.349 . S
C989 H981 0.950 . S
C989 C987 1.327 . S
C990 C978 1.349 . S
C990 H984 0.950 . S
C990 C991 1.327 . S
C991 H985 0.950 . S
C991 C990 1.327 . S
C991 C995 1.429 . S
C992 C975 1.574 . S
C992 H986 0.949 . S
C992 C996 1.368 . S
C993 C974 1.429 . S
C993 C987 1.429 . S
C993 C994 1.523 . S
C994 C975 1.368 . S
C994 C988 1.368 . S
C994 C993 1.523 . S
C995 C979 1.429 . S
C995 C991 1.429 . S
C995 C996 1.523 . S
C996 C980 1.368 . S
C996 C992 1.368 . S
C996 C995 1.523 . S
H997 C972 0.950 . S
H998 C974 0.950 . S
H999 C975 0.949 . S
H1000 C977 0.950 . S
H1001 C979 0.950 . S
C1002 C1003 1.349 . S
C1002 C1004 1.327 . S
C1002 H1027 0.950 . S
C1003 C1002 1.349 . S
C1003 C1019 1.349 . S
C1004 C1002 1.327 . S
C1004 C1023 1.429 . S
C1004 H1028 0.950 . S
C1005 C1022 1.574 . S
C1005 C1024 1.368 . S
C1005 H1029 0.949 . S
H1006 C1010 0.949 . S
C1007 C1008 1.349 . S
C1007 C1009 1.327 . S
C1007 H1030 0.950 . S
C1008 C1007 1.349 . S
C1008 C1020 1.349 . S
C1009 C1007 1.327 . S
C1009 C1025 1.429 . S
C1009 H1031 0.950 . S
C1010 H1006 0.949 . S
C1010 C1018 1.574 . S
C1010 C1026 1.368 . S
H1011 C1019 0.950 . S
H1012 C1017 0.950 . S
H1013 C1018 0.949 . S
H1014 C1020 0.950 . S
H1015 C1021 0.950 . S
H1016 C1022 0.949 . S
C1017 H1012 0.950 . S
C1017 C1019 1.327 . S
C1017 C1023 1.429 . S
C1018 C1010 1.574 . S
C1018 H1013 0.949 . S
C1018 C1024 1.368 . S
C1019 C1003 1.349 . S
C1019 H1011 0.950 . S
C1019 C1017 1.327 . S
C1020 C1008 1.349 . S
C1020 H1014 0.950 . S
C1020 C1021 1.327 . S
C1021 H1015 0.950 . S
C1021 C1020 1.327 . S
C1021 C1025 1.429 . S
C1022 C1005 1.574 . S
C1022 H1016 0.949 . S
C1022 C1026 1.368 . S
C1023 C1004 1.429 . S
C1023 C1017 1.429 . S
C1023 C1024 1.523 . S
C1024 C1005 1.368 . S
C1024 C1018 1.368 . S
C1024 C1023 1.523 . S
C1025 C1009 1.429 . S
C1025 C1021 1.429 . S
C1025 C1026 1.523 . S
C1026 C1010 1.368 . S
C1026 C1022 1.368 . S
C1026 C1025 1.523 . S
H1027 C1002 0.950 . S
H1028 C1004 0.950 . S
H1029 C1005 0.949 . S
H1030 C1007 0.950 . S
H1031 C1009 0.950 . S
C1032 C1033 1.349 . S
C1032 C1034 1.327 . S
C1032 H1057 0.950 . S
C1033 C1032 1.349 . S
C1033 C1049 1.349 . S
C1034 C1032 1.327 . S
C1034 C1053 1.429 . S
C1034 H1058 0.950 . S
C1035 C1052 1.574 . S
C1035 C1054 1.368 . S
C1035 H1059 0.949 . S
H1036 C1040 0.949 . S
C1037 C1038 1.349 . S
C1037 C1039 1.327 . S
C1037 H1060 0.950 . S
C1038 C1037 1.349 . S
C1038 C1050 1.349 . S
C1039 C1037 1.327 . S
C1039 C1055 1.429 . S
C1039 H1061 0.950 . S
C1040 H1036 0.949 . S
C1040 C1048 1.574 . S
C1040 C1056 1.368 . S
H1041 C1049 0.950 . S
H1042 C1047 0.950 . S
H1043 C1048 0.949 . S
H1044 C1050 0.950 . S
H1045 C1051 0.950 . S
H1046 C1052 0.949 . S
C1047 H1042 0.950 . S
C1047 C1049 1.327 . S
C1047 C1053 1.429 . S
C1048 C1040 1.574 . S
C1048 H1043 0.949 . S
C1048 C1054 1.368 . S
C1049 C1033 1.349 . S
C1049 H1041 0.950 . S
C1049 C1047 1.327 . S
C1050 C1038 1.349 . S
C1050 H1044 0.950 . S
C1050 C1051 1.327 . S
C1051 H1045 0.950 . S
C1051 C1050 1.327 . S
C1051 C1055 1.429 . S
C1052 C1035 1.574 . S
C1052 H1046 0.949 . S
C1052 C1056 1.368 . S
C1053 C1034 1.429 . S
C1053 C1047 1.429 . S
C1053 C1054 1.523 . S
C1054 C1035 1.368 . S
C1054 C1048 1.368 . S
C1054 C1053 1.523 . S
C1055 C1039 1.429 . S
C1055 C1051 1.429 . S
C1055 C1056 1.523 . S
C1056 C1040 1.368 . S
C1056 C1052 1.368 . S
C1056 C1055 1.523 . S
H1057 C1032 0.950 . S
H1058 C1034 0.950 . S
H1059 C1035 0.949 . S
H1060 C1037 0.950 . S
H1061 C1039 0.950 . S
C1062 C1063 1.349 . S
C1062 C1064 1.327 . S
C1062 H1087 0.950 . S
C1063 C1062 1.349 . S
C1063 C1079 1.349 . S
C1064 C1062 1.327 . S
C1064 C1083 1.429 . S
C1064 H1088 0.950 . S
C1065 C1082 1.574 . S
C1065 C1084 1.368 . S
C1065 H1089 0.949 . S
H1066 C1070 0.949 . S
C1067 C1068 1.349 . S
C1067 C1069 1.327 . S
C1067 H1090 0.950 . S
C1068 C1067 1.349 . S
C1068 C1080 1.349 . S
C1069 C1067 1.327 . S
C1069 C1085 1.429 . S
C1069 H1091 0.950 . S
C1070 H1066 0.949 . S
C1070 C1078 1.574 . S
C1070 C1086 1.368 . S
H1071 C1079 0.950 . S
H1072 C1077 0.950 . S
H1073 C1078 0.949 . S
H1074 C1080 0.950 . S
H1075 C1081 0.950 . S
H1076 C1082 0.949 . S
C1077 H1072 0.950 . S
C1077 C1079 1.327 . S
C1077 C1083 1.429 . S
C1078 C1070 1.574 . S
C1078 H1073 0.949 . S
C1078 C1084 1.368 . S
C1079 C1063 1.349 . S
C1079 H1071 0.950 . S
C1079 C1077 1.327 . S
C1080 C1068 1.349 . S
C1080 H1074 0.950 . S
C1080 C1081 1.327 . S
C1081 H1075 0.950 . S
C1081 C1080 1.327 . S
C1081 C1085 1.429 . S
C1082 C1065 1.574 . S
C1082 H1076 0.949 . S
C1082 C1086 1.368 . S
C1083 C1064 1.429 . S
C1083 C1077 1.429 . S
C1083 C1084 1.523 . S
C1084 C1065 1.368 . S
C1084 C1078 1.368 . S
C1084 C1083 1.523 . S
C1085 C1069 1.429 . S
C1085 C1081 1.429 . S
C1085 C1086 1.523 . S
C1086 C1070 1.368 . S
C1086 C1082 1.368 . S
C1086 C1085 1.523 . S
H1087 C1062 0.950 . S
H1088 C1064 0.950 . S
H1089 C1065 0.949 . S
H1090 C1067 0.950 . S
H1091 C1069 0.950 . S
C1092 C1093 1.349 . S
C1092 C1094 1.327 . S
C1092 H1117 0.950 . S
C1093 C1092 1.349 . S
C1093 C1109 1.349 . S
C1094 C1092 1.327 . S
C1094 C1113 1.429 . S
C1094 H1118 0.950 . S
C1095 C1112 1.574 . S
C1095 C1114 1.368 . S
C1095 H1119 0.949 . S
H1096 C1100 0.949 . S
C1097 C1098 1.349 . S
C1097 C1099 1.327 . S
C1097 H1120 0.950 . S
C1098 C1097 1.349 . S
C1098 C1110 1.349 . S
C1099 C1097 1.327 . S
C1099 C1115 1.429 . S
C1099 H1121 0.950 . S
C1100 H1096 0.949 . S
C1100 C1108 1.574 . S
C1100 C1116 1.368 . S
H1101 C1109 0.950 . S
H1102 C1107 0.950 . S
H1103 C1108 0.949 . S
H1104 C1110 0.950 . S
H1105 C1111 0.950 . S
H1106 C1112 0.949 . S
C1107 H1102 0.950 . S
C1107 C1109 1.327 . S
C1107 C1113 1.429 . S
C1108 C1100 1.574 . S
C1108 H1103 0.949 . S
C1108 C1114 1.368 . S
C1109 C1093 1.349 . S
C1109 H1101 0.950 . S
C1109 C1107 1.327 . S
C1110 C1098 1.349 . S
C1110 H1104 0.950 . S
C1110 C1111 1.327 . S
C1111 H1105 0.950 . S
C1111 C1110 1.327 . S
C1111 C1115 1.429 . S
C1112 C1095 1.574 . S
C1112 H1106 0.949 . S
C1112 C1116 1.368 . S
C1113 C1094 1.429 . S
C1113 C1107 1.429 . S
C1113 C1114 1.523 . S
C1114 C1095 1.368 . S
C1114 C1108 1.368 . S
C1114 C1113 1.523 . S
C1115 C1099 1.429 . S
C1115 C1111 1.429 . S
C1115 C1116 1.523 . S
C1116 C1100 1.368 . S
C1116 C1112 1.368 . S
C1116 C1115 1.523 . S
H1117 C1092 0.950 . S
H1118 C1094 0.950 . S
H1119 C1095 0.949 . S
H1120 C1097 0.950 . S
H1121 C1099 0.950 . S
C403 C39 1.712 . S
C408 C319 1.694 . S
C433 C91 1.721 . S
C438 C344 1.705 . S
C468 C347 1.543 . S
C463 C128 1.563 . S
C498 C373 1.512 . S
C493 C188 1.530 . S
C528 C374 1.630 . S
C523 C250 1.648 . S
C558 C401 1.650 . S
C553 C304 1.672 . S
C583 C75 1.582 . S
C588 C346 1.566 . S
C613 C144 1.702 . S
C618 C372 1.686 . S
C648 C375 1.649 . S
C643 C198 1.666 . S
C678 C400 1.494 . S
C673 C234 1.511 . S
C703 C294 1.520 . S
C708 C318 1.503 . S
C738 C345 1.541 . S
C733 C29 1.556 . S
C768 C360 1.693 . S
C763 C38 1.712 . S
C793 C92 1.721 . S
C798 C387 1.705 . S
C828 C388 1.543 . S
C823 C135 1.563 . S
C853 C181 1.530 . S
C858 C330 1.513 . S
C883 C251 1.648 . S
C888 C333 1.630 . S
C913 C303 1.672 . S
C918 C358 1.650 . S
C943 C82 1.583 . S
C948 C389 1.566 . S
C978 C331 1.686 . S
C973 C145 1.702 . S
C1003 C197 1.666 . S
C1008 C332 1.649 . S
C1033 C241 1.510 . S
C1038 C359 1.493 . S
C1063 C287 1.520 . S
C1068 C361 1.504 . S
C1093 C22 1.556 . S
C1098 C386 1.541 . S
