# Generated by pormake.
# Topology gar, (4,6)-cn, num edge types: 1
# Building blocks:
#     Node 0, Type 0, BuildingBlock: NAHDIM_clean_sbu_0, # of connection points: 4
#     Node 1, Type 0, BuildingBlock: NAHDIM_clean_sbu_0, # of connection points: 4
#     Node 2, Type 0, BuildingBlock: NAHDIM_clean_sbu_0, # of connection points: 4
#     Node 3, Type 0, BuildingBlock: NAHDIM_clean_sbu_0, # of connection points: 4
#     Node 4, Type 0, BuildingBlock: NAHDIM_clean_sbu_0, # of connection points: 4
#     Node 5, Type 0, BuildingBlock: NAHDIM_clean_sbu_0, # of connection points: 4
#     Node 6, Type 0, BuildingBlock: NAHDIM_clean_sbu_0, # of connection points: 4
#     Node 7, Type 0, BuildingBlock: NAHDIM_clean_sbu_0, # of connection points: 4
#     Node 8, Type 0, BuildingBlock: NAHDIM_clean_sbu_0, # of connection points: 4
#     Node 9, Type 0, BuildingBlock: NAHDIM_clean_sbu_0, # of connection points: 4
#     Node 10, Type 0, BuildingBlock: NAHDIM_clean_sbu_0, # of connection points: 4
#     Node 11, Type 0, BuildingBlock: NAHDIM_clean_sbu_0, # of connection points: 4
#     Node 12, Type 0, BuildingBlock: NAHDIM_clean_sbu_0, # of connection points: 4
#     Node 13, Type 0, BuildingBlock: NAHDIM_clean_sbu_0, # of connection points: 4
#     Node 14, Type 0, BuildingBlock: NAHDIM_clean_sbu_0, # of connection points: 4
#     Node 15, Type 0, BuildingBlock: NAHDIM_clean_sbu_0, # of connection points: 4
#     Node 16, Type 0, BuildingBlock: NAHDIM_clean_sbu_0, # of connection points: 4
#     Node 17, Type 0, BuildingBlock: NAHDIM_clean_sbu_0, # of connection points: 4
#     Node 18, Type 0, BuildingBlock: NAHDIM_clean_sbu_0, # of connection points: 4
#     Node 19, Type 0, BuildingBlock: NAHDIM_clean_sbu_0, # of connection points: 4
#     Node 20, Type 0, BuildingBlock: NAHDIM_clean_sbu_0, # of connection points: 4
#     Node 21, Type 0, BuildingBlock: NAHDIM_clean_sbu_0, # of connection points: 4
#     Node 22, Type 0, BuildingBlock: NAHDIM_clean_sbu_0, # of connection points: 4
#     Node 23, Type 0, BuildingBlock: NAHDIM_clean_sbu_0, # of connection points: 4
#     Node 24, Type 1, BuildingBlock: KUMBOL_clean_sbu_0, # of connection points: 6
#     Node 25, Type 1, BuildingBlock: KUMBOL_clean_sbu_0, # of connection points: 6
#     Node 26, Type 1, BuildingBlock: KUMBOL_clean_sbu_0, # of connection points: 6
#     Node 27, Type 1, BuildingBlock: KUMBOL_clean_sbu_0, # of connection points: 6
#     Node 28, Type 1, BuildingBlock: KUMBOL_clean_sbu_0, # of connection points: 6
#     Node 29, Type 1, BuildingBlock: KUMBOL_clean_sbu_0, # of connection points: 6
#     Node 30, Type 1, BuildingBlock: KUMBOL_clean_sbu_0, # of connection points: 6
#     Node 31, Type 1, BuildingBlock: KUMBOL_clean_sbu_0, # of connection points: 6
#     Node 32, Type 1, BuildingBlock: KUMBOL_clean_sbu_0, # of connection points: 6
#     Node 33, Type 1, BuildingBlock: KUMBOL_clean_sbu_0, # of connection points: 6
#     Node 34, Type 1, BuildingBlock: KUMBOL_clean_sbu_0, # of connection points: 6
#     Node 35, Type 1, BuildingBlock: KUMBOL_clean_sbu_0, # of connection points: 6
#     Node 36, Type 1, BuildingBlock: KUMBOL_clean_sbu_0, # of connection points: 6
#     Node 37, Type 1, BuildingBlock: KUMBOL_clean_sbu_0, # of connection points: 6
#     Node 38, Type 1, BuildingBlock: KUMBOL_clean_sbu_0, # of connection points: 6
#     Node 39, Type 1, BuildingBlock: KUMBOL_clean_sbu_0, # of connection points: 6
#     Edge 40, Type (0, 1), BuildingBlock: XIVTED_clean_linker_0, # of connection points: 2
#     Edge 41, Type (0, 1), BuildingBlock: XIVTED_clean_linker_0, # of connection points: 2
#     Edge 42, Type (0, 1), BuildingBlock: XIVTED_clean_linker_0, # of connection points: 2
#     Edge 43, Type (0, 1), BuildingBlock: XIVTED_clean_linker_0, # of connection points: 2
#     Edge 44, Type (0, 1), BuildingBlock: XIVTED_clean_linker_0, # of connection points: 2
#     Edge 45, Type (0, 1), BuildingBlock: XIVTED_clean_linker_0, # of connection points: 2
#     Edge 46, Type (0, 1), BuildingBlock: XIVTED_clean_linker_0, # of connection points: 2
#     Edge 47, Type (0, 1), BuildingBlock: XIVTED_clean_linker_0, # of connection points: 2
#     Edge 48, Type (0, 1), BuildingBlock: XIVTED_clean_linker_0, # of connection points: 2
#     Edge 49, Type (0, 1), BuildingBlock: XIVTED_clean_linker_0, # of connection points: 2
#     Edge 50, Type (0, 1), BuildingBlock: XIVTED_clean_linker_0, # of connection points: 2
#     Edge 51, Type (0, 1), BuildingBlock: XIVTED_clean_linker_0, # of connection points: 2
#     Edge 52, Type (0, 1), BuildingBlock: XIVTED_clean_linker_0, # of connection points: 2
#     Edge 53, Type (0, 1), BuildingBlock: XIVTED_clean_linker_0, # of connection points: 2
#     Edge 54, Type (0, 1), BuildingBlock: XIVTED_clean_linker_0, # of connection points: 2
#     Edge 55, Type (0, 1), BuildingBlock: XIVTED_clean_linker_0, # of connection points: 2
#     Edge 56, Type (0, 1), BuildingBlock: XIVTED_clean_linker_0, # of connection points: 2
#     Edge 57, Type (0, 1), BuildingBlock: XIVTED_clean_linker_0, # of connection points: 2
#     Edge 58, Type (0, 1), BuildingBlock: XIVTED_clean_linker_0, # of connection points: 2
#     Edge 59, Type (0, 1), BuildingBlock: XIVTED_clean_linker_0, # of connection points: 2
#     Edge 60, Type (0, 1), BuildingBlock: XIVTED_clean_linker_0, # of connection points: 2
#     Edge 61, Type (0, 1), BuildingBlock: XIVTED_clean_linker_0, # of connection points: 2
#     Edge 62, Type (0, 1), BuildingBlock: XIVTED_clean_linker_0, # of connection points: 2
#     Edge 63, Type (0, 1), BuildingBlock: XIVTED_clean_linker_0, # of connection points: 2
#     Edge 64, Type (0, 1), BuildingBlock: XIVTED_clean_linker_0, # of connection points: 2
#     Edge 65, Type (0, 1), BuildingBlock: XIVTED_clean_linker_0, # of connection points: 2
#     Edge 66, Type (0, 1), BuildingBlock: XIVTED_clean_linker_0, # of connection points: 2
#     Edge 67, Type (0, 1), BuildingBlock: XIVTED_clean_linker_0, # of connection points: 2
#     Edge 68, Type (0, 1), BuildingBlock: XIVTED_clean_linker_0, # of connection points: 2
#     Edge 69, Type (0, 1), BuildingBlock: XIVTED_clean_linker_0, # of connection points: 2
#     Edge 70, Type (0, 1), BuildingBlock: XIVTED_clean_linker_0, # of connection points: 2
#     Edge 71, Type (0, 1), BuildingBlock: XIVTED_clean_linker_0, # of connection points: 2
#     Edge 72, Type (0, 1), BuildingBlock: XIVTED_clean_linker_0, # of connection points: 2
#     Edge 73, Type (0, 1), BuildingBlock: XIVTED_clean_linker_0, # of connection points: 2
#     Edge 74, Type (0, 1), BuildingBlock: XIVTED_clean_linker_0, # of connection points: 2
#     Edge 75, Type (0, 1), BuildingBlock: XIVTED_clean_linker_0, # of connection points: 2
#     Edge 76, Type (0, 1), BuildingBlock: XIVTED_clean_linker_0, # of connection points: 2
#     Edge 77, Type (0, 1), BuildingBlock: XIVTED_clean_linker_0, # of connection points: 2
#     Edge 78, Type (0, 1), BuildingBlock: XIVTED_clean_linker_0, # of connection points: 2
#     Edge 79, Type (0, 1), BuildingBlock: XIVTED_clean_linker_0, # of connection points: 2
#     Edge 80, Type (0, 1), BuildingBlock: XIVTED_clean_linker_0, # of connection points: 2
#     Edge 81, Type (0, 1), BuildingBlock: XIVTED_clean_linker_0, # of connection points: 2
#     Edge 82, Type (0, 1), BuildingBlock: XIVTED_clean_linker_0, # of connection points: 2
#     Edge 83, Type (0, 1), BuildingBlock: XIVTED_clean_linker_0, # of connection points: 2
#     Edge 84, Type (0, 1), BuildingBlock: XIVTED_clean_linker_0, # of connection points: 2
#     Edge 85, Type (0, 1), BuildingBlock: XIVTED_clean_linker_0, # of connection points: 2
#     Edge 86, Type (0, 1), BuildingBlock: XIVTED_clean_linker_0, # of connection points: 2
#     Edge 87, Type (0, 1), BuildingBlock: XIVTED_clean_linker_0, # of connection points: 2
#     Edge 88, Type (0, 1), BuildingBlock: XIVTED_clean_linker_0, # of connection points: 2
#     Edge 89, Type (0, 1), BuildingBlock: XIVTED_clean_linker_0, # of connection points: 2
#     Edge 90, Type (0, 1), BuildingBlock: XIVTED_clean_linker_0, # of connection points: 2
#     Edge 91, Type (0, 1), BuildingBlock: XIVTED_clean_linker_0, # of connection points: 2
#     Edge 92, Type (0, 1), BuildingBlock: XIVTED_clean_linker_0, # of connection points: 2
#     Edge 93, Type (0, 1), BuildingBlock: XIVTED_clean_linker_0, # of connection points: 2
#     Edge 94, Type (0, 1), BuildingBlock: XIVTED_clean_linker_0, # of connection points: 2
#     Edge 95, Type (0, 1), BuildingBlock: XIVTED_clean_linker_0, # of connection points: 2
#     Edge 96, Type (0, 1), BuildingBlock: XIVTED_clean_linker_0, # of connection points: 2
#     Edge 97, Type (0, 1), BuildingBlock: XIVTED_clean_linker_0, # of connection points: 2
#     Edge 98, Type (0, 1), BuildingBlock: XIVTED_clean_linker_0, # of connection points: 2
#     Edge 99, Type (0, 1), BuildingBlock: XIVTED_clean_linker_0, # of connection points: 2
#     Edge 100, Type (0, 1), BuildingBlock: XIVTED_clean_linker_0, # of connection points: 2
#     Edge 101, Type (0, 1), BuildingBlock: XIVTED_clean_linker_0, # of connection points: 2
#     Edge 102, Type (0, 1), BuildingBlock: XIVTED_clean_linker_0, # of connection points: 2
#     Edge 103, Type (0, 1), BuildingBlock: XIVTED_clean_linker_0, # of connection points: 2
#     Edge 104, Type (0, 1), BuildingBlock: XIVTED_clean_linker_0, # of connection points: 2
#     Edge 105, Type (0, 1), BuildingBlock: XIVTED_clean_linker_0, # of connection points: 2
#     Edge 106, Type (0, 1), BuildingBlock: XIVTED_clean_linker_0, # of connection points: 2
#     Edge 107, Type (0, 1), BuildingBlock: XIVTED_clean_linker_0, # of connection points: 2
#     Edge 108, Type (0, 1), BuildingBlock: XIVTED_clean_linker_0, # of connection points: 2
#     Edge 109, Type (0, 1), BuildingBlock: XIVTED_clean_linker_0, # of connection points: 2
#     Edge 110, Type (0, 1), BuildingBlock: XIVTED_clean_linker_0, # of connection points: 2
#     Edge 111, Type (0, 1), BuildingBlock: XIVTED_clean_linker_0, # of connection points: 2
#     Edge 112, Type (0, 1), BuildingBlock: XIVTED_clean_linker_0, # of connection points: 2
#     Edge 113, Type (0, 1), BuildingBlock: XIVTED_clean_linker_0, # of connection points: 2
#     Edge 114, Type (0, 1), BuildingBlock: XIVTED_clean_linker_0, # of connection points: 2
#     Edge 115, Type (0, 1), BuildingBlock: XIVTED_clean_linker_0, # of connection points: 2
#     Edge 116, Type (0, 1), BuildingBlock: XIVTED_clean_linker_0, # of connection points: 2
#     Edge 117, Type (0, 1), BuildingBlock: XIVTED_clean_linker_0, # of connection points: 2
#     Edge 118, Type (0, 1), BuildingBlock: XIVTED_clean_linker_0, # of connection points: 2
#     Edge 119, Type (0, 1), BuildingBlock: XIVTED_clean_linker_0, # of connection points: 2
#     Edge 120, Type (0, 1), BuildingBlock: XIVTED_clean_linker_0, # of connection points: 2
#     Edge 121, Type (0, 1), BuildingBlock: XIVTED_clean_linker_0, # of connection points: 2
#     Edge 122, Type (0, 1), BuildingBlock: XIVTED_clean_linker_0, # of connection points: 2
#     Edge 123, Type (0, 1), BuildingBlock: XIVTED_clean_linker_0, # of connection points: 2
#     Edge 124, Type (0, 1), BuildingBlock: XIVTED_clean_linker_0, # of connection points: 2
#     Edge 125, Type (0, 1), BuildingBlock: XIVTED_clean_linker_0, # of connection points: 2
#     Edge 126, Type (0, 1), BuildingBlock: XIVTED_clean_linker_0, # of connection points: 2
#     Edge 127, Type (0, 1), BuildingBlock: XIVTED_clean_linker_0, # of connection points: 2
#     Edge 128, Type (0, 1), BuildingBlock: XIVTED_clean_linker_0, # of connection points: 2
#     Edge 129, Type (0, 1), BuildingBlock: XIVTED_clean_linker_0, # of connection points: 2
#     Edge 130, Type (0, 1), BuildingBlock: XIVTED_clean_linker_0, # of connection points: 2
#     Edge 131, Type (0, 1), BuildingBlock: XIVTED_clean_linker_0, # of connection points: 2
#     Edge 132, Type (0, 1), BuildingBlock: XIVTED_clean_linker_0, # of connection points: 2
#     Edge 133, Type (0, 1), BuildingBlock: XIVTED_clean_linker_0, # of connection points: 2
#     Edge 134, Type (0, 1), BuildingBlock: XIVTED_clean_linker_0, # of connection points: 2
#     Edge 135, Type (0, 1), BuildingBlock: XIVTED_clean_linker_0, # of connection points: 2
# Relax obj value: 0.134
# Max RMSD: 0.318
# Mean RMSD: 0.176
data_MOF--net-gar--node1-NAHDIM_clean_sbu_0--node2-KUMBOL_clean_sbu_0--edge1-XIVTED_clean_linker_0
_symmetry_space_group_name_H-M    P1
_symmetry_Int_Tables_number       1
_symmetry_cell_setting            triclinic
loop_
_symmetry_equiv_pos_as_xyz
'x, y, z'
_cell_length_a     62.26034
_cell_length_b     56.155164
_cell_length_c     55.078261
_cell_angle_alpha  100.89724
_cell_angle_beta   93.669969
_cell_angle_gamma 102.64898
loop_
_atom_site_label
_atom_site_type_symbol
_atom_site_fract_x
_atom_site_fract_y
_atom_site_fract_z
_atom_type_partial_charge
C0 C 0.14331 0.31626 0.34535 0.0
O1 O 0.12793 0.32311 0.33273 0.0
O2 O 0.10394 0.28888 0.40187 0.0
Zn3 Zn 0.11214 0.31374 0.38089 0.0
O4 O 0.11739 0.34692 0.40306 0.0
C5 C 0.0677 0.30183 0.35727 0.0
O6 O 0.0634 0.28949 0.37509 0.0
O7 O 0.13978 0.31062 0.36619 0.0
C8 C 0.12041 0.36662 0.39444 0.0
O9 O 0.12086 0.36506 0.37039 0.0
C10 C 0.11456 0.29409 0.42338 0.0
O11 O 0.1308 0.31423 0.42965 0.0
O12 O 0.08755 0.31237 0.35542 0.0
C13 C 0.9806 0.76518 0.70612 0.0
O14 O 0.98866 0.74634 0.71012 0.0
O15 O 1.00304 0.73329 0.65623 0.0
Zn16 Zn 0.01335 0.76915 0.67282 0.0
O17 O 0.02038 0.79098 0.64825 0.0
C18 C 0.05307 0.75795 0.68461 0.0
O19 O 0.04769 0.74624 0.6613 0.0
O20 O 0.9895 0.77853 0.69162 0.0
C21 C 0.0269 0.78404 0.62725 0.0
O22 O 0.02941 0.76119 0.62054 0.0
C23 C 0.99156 0.72351 0.63548 0.0
O24 O 0.9834 0.73762 0.62265 0.0
O25 O 0.04076 0.77129 0.69486 0.0
C26 C 0.63871 0.81379 0.84243 0.0
O27 O 0.62518 0.82393 0.83078 0.0
O28 O 0.60231 0.79333 0.90459 0.0
Zn29 Zn 0.60979 0.81587 0.88101 0.0
O30 O 0.62044 0.85038 0.9007 0.0
C31 C 0.56833 0.8237 0.87019 0.0
O32 O 0.57138 0.8302 0.89455 0.0
O33 O 0.63432 0.80776 0.86292 0.0
C34 C 0.62086 0.86852 0.89 0.0
O35 O 0.61601 0.86405 0.86577 0.0
C36 C 0.59836 0.80204 0.92642 0.0
O37 O 0.59897 0.82589 0.93329 0.0
O38 O 0.58302 0.81525 0.85871 0.0
C39 C 0.47105 0.2511 0.19227 0.0
O40 O 0.47264 0.23005 0.17833 0.0
O41 O 0.5077 0.23533 0.15421 0.0
Zn42 Zn 0.51204 0.26968 0.17407 0.0
O43 O 0.51579 0.29402 0.15132 0.0
C44 C 0.55486 0.26569 0.185 0.0
O45 O 0.55134 0.25715 0.16086 0.0
O46 O 0.4861 0.2709 0.19386 0.0
C47 C 0.52176 0.28779 0.12983 0.0
O48 O 0.52552 0.26558 0.1227 0.0
C49 C 0.49478 0.22372 0.13487 0.0
O50 O 0.48113 0.23469 0.12454 0.0
O51 O 0.54018 0.27457 0.19614 0.0
C52 C 0.05847 0.82679 0.14055 0.0
O53 O 0.05521 0.83563 0.12054 0.0
O54 O 0.09112 0.78645 0.09748 0.0
Zn55 Zn 0.09997 0.82209 0.12015 0.0
O56 O 0.09939 0.85365 0.10459 0.0
C57 C 0.13466 0.80649 0.14668 0.0
O58 O 0.11917 0.78565 0.14148 0.0
O59 O 0.07663 0.82055 0.14478 0.0
C60 C 0.09269 0.85491 0.08251 0.0
O61 O 0.08582 0.83408 0.06574 0.0
C62 C 0.10259 0.77463 0.08342 0.0
O63 O 0.12211 0.78659 0.07911 0.0
O64 O 0.13061 0.82564 0.13968 0.0
C65 C 0.56425 0.7613 0.40516 0.0
O66 O 0.56575 0.74889 0.42291 0.0
O67 O 0.52334 0.73801 0.4428 0.0
Zn68 Zn 0.52252 0.7682 0.42522 0.0
O69 O 0.52833 0.80458 0.44562 0.0
C70 C 0.47753 0.77277 0.41047 0.0
O71 O 0.48052 0.78614 0.43325 0.0
O72 O 0.54733 0.77025 0.40239 0.0
C73 C 0.5269 0.8167 0.4673 0.0
O74 O 0.52043 0.80448 0.48468 0.0
C75 C 0.53204 0.73717 0.46425 0.0
O76 O 0.54132 0.7582 0.47991 0.0
O77 O 0.49277 0.76219 0.40286 0.0
C78 C 0.55729 0.32578 0.64118 0.0
O79 O 0.55498 0.33705 0.62267 0.0
O80 O 0.5919 0.2836 0.59955 0.0
Zn81 Zn 0.59897 0.31958 0.621 0.0
O82 O 0.5985 0.35084 0.60478 0.0
C83 C 0.64384 0.31362 0.6347 0.0
O84 O 0.64175 0.30324 0.61095 0.0
O85 O 0.57463 0.31766 0.64424 0.0
C86 C 0.58977 0.35217 0.58351 0.0
O87 O 0.58065 0.33137 0.56743 0.0
C88 C 0.59636 0.27205 0.57892 0.0
O89 O 0.6076 0.28475 0.56424 0.0
O90 O 0.62835 0.32326 0.64316 0.0
C91 C 0.06843 0.27885 0.91133 0.0
O92 O 0.07383 0.28515 0.93553 0.0
O93 O 0.02755 0.24149 0.94362 0.0
Zn94 Zn 0.02453 0.27149 0.92688 0.0
O95 O 0.03165 0.30796 0.94729 0.0
C96 C 0.97862 0.27465 0.91308 0.0
O97 O 0.98053 0.28631 0.93643 0.0
O98 O 0.04801 0.27219 0.9029 0.0
C99 C 0.02692 0.31939 0.96784 0.0
O100 O 0.01563 0.30651 0.98236 0.0
C101 C 0.02744 0.23763 0.96577 0.0
O102 O 0.02417 0.25509 0.98369 0.0
O103 O 0.99461 0.26563 0.90519 0.0
C104 C 0.39913 0.10323 0.3164 0.0
O105 O 0.42015 0.11074 0.32519 0.0
O106 O 0.42375 0.05225 0.27813 0.0
Zn107 Zn 0.40903 0.05605 0.30898 0.0
O108 O 0.43306 0.06697 0.33645 0.0
C109 C 0.40359 1.00731 0.31143 0.0
O110 O 0.42522 0.01527 0.31299 0.0
O111 O 0.39048 0.08012 0.30909 0.0
C112 C 0.43073 0.07433 0.35906 0.0
O113 O 0.41102 0.07568 0.36557 0.0
C114 C 0.441 0.06835 0.27619 0.0
O115 O 0.44769 0.08866 0.29363 0.0
O116 O 0.39154 0.02265 0.3103 0.0
C117 C 0.33925 0.17197 0.51354 0.0
O118 O 0.34615 0.19622 0.52162 0.0
O119 O 0.29902 0.20215 0.54274 0.0
Zn120 Zn 0.29719 0.18396 0.50745 0.0
O121 O 0.30354 0.2063 0.4832 0.0
C122 C 0.25034 0.171 0.50197 0.0
O123 O 0.25392 0.19526 0.50992 0.0
O124 O 0.3189 0.16261 0.5061 0.0
C125 C 0.30116 0.19438 0.46082 0.0
O126 O 0.29479 0.1699 0.4562 0.0
C127 C 0.29971 0.22487 0.55187 0.0
O128 O 0.29987 0.24076 0.53714 0.0
O129 O 0.26681 0.16136 0.49856 0.0
C130 C 0.21237 0.9692 0.75973 0.0
O131 O 0.21052 0.97301 0.73697 0.0
O132 O 0.16633 1.01018 0.73773 0.0
Zn133 Zn 0.18512 0.01356 0.7749 0.0
O134 O 0.16344 0.01452 0.80584 0.0
C135 C 0.20737 0.06509 0.76599 0.0
O136 O 0.19388 0.05641 0.74539 0.0
O137 O 0.2038 0.98286 0.77647 0.0
C138 C 0.17059 0.0236 0.82911 0.0
O139 O 0.19204 0.03277 0.8345 0.0
C140 C 0.14972 0.01974 0.73306 0.0
O141 O 0.14158 0.03101 0.7522 0.0
O142 O 0.20769 0.05049 0.78142 0.0
C143 C 0.28079 0.96736 0.02028 0.0
O144 O 0.27847 0.94367 0.01011 0.0
O145 O 0.32419 0.94093 0.04681 0.0
Zn146 Zn 0.32468 0.96399 0.02335 0.0
O147 O 0.32027 0.94179 0.98954 0.0
C148 C 0.36903 0.98748 0.04568 0.0
O149 O 0.36273 0.97663 0.06401 0.0
O150 O 0.30009 0.98097 0.02767 0.0
C151 C 0.33582 0.9431 0.97569 0.0
O152 O 0.35385 0.96105 0.98239 0.0
C153 C 0.33607 0.9253 0.04177 0.0
O154 O 0.34739 0.9257 0.02248 0.0
O155 O 0.35474 0.9874 0.02812 0.0
C156 C 0.29305 0.43167 0.0524 0.0
O157 O 0.30033 0.4333 0.07571 0.0
O158 O 0.32334 0.38659 0.06902 0.0
Zn159 Zn 0.32651 0.40354 0.04038 0.0
O160 O 0.32733 0.37924 0.00856 0.0
C161 C 0.37243 0.42162 0.05298 0.0
O162 O 0.3701 0.39787 0.05339 0.0
O163 O 0.30172 0.42 0.03511 0.0
C164 C 0.33863 0.38834 0.99266 0.0
O165 O 0.34889 0.41206 0.99811 0.0
C166 C 0.30532 0.37693 0.07663 0.0
O167 O 0.28635 0.37676 0.06462 0.0
O168 O 0.3553 0.42945 0.04822 0.0
C169 C 0.83195 0.12675 0.00773 0.0
O170 O 0.83789 0.15094 0.00895 0.0
O171 O 0.80607 0.16509 0.05132 0.0
Zn172 Zn 0.79343 0.14056 0.01999 0.0
O173 O 0.79204 0.15845 0.99241 0.0
C174 C 0.75294 0.13036 0.04208 0.0
O175 O 0.76345 0.1499 0.05899 0.0
O176 O 0.81259 0.11717 0.01217 0.0
C177 C 0.78208 0.14698 0.97127 0.0
O178 O 0.77294 0.12299 0.96767 0.0
C179 C 0.80502 0.18774 0.05391 0.0
O180 O 0.79767 0.19564 0.03474 0.0
O181 O 0.76268 0.12238 0.02374 0.0
C182 C 0.22114 0.50526 0.27835 0.0
O183 O 0.20763 0.51213 0.29417 0.0
O184 O 0.18708 0.52241 0.21581 0.0
Zn185 Zn 0.20197 0.53327 0.24991 0.0
O186 O 0.1798 0.53605 0.27391 0.0
C187 C 0.21774 0.58216 0.24082 0.0
O188 O 0.20164 0.57459 0.22249 0.0
O189 O 0.22057 0.51107 0.25724 0.0
C190 C 0.16628 0.54938 0.27077 0.0
O191 O 0.16653 0.55957 0.25117 0.0
C192 C 0.16746 0.50908 0.21113 0.0
O193 O 0.15758 0.50005 0.22893 0.0
O194 O 0.2214 0.56722 0.25432 0.0
C195 C 0.78753 0.92649 0.54856 0.0
O196 O 0.78908 0.92041 0.57038 0.0
O197 O 0.82071 0.88858 0.56911 0.0
Zn198 Zn 0.82348 0.90155 0.53761 0.0
O199 O 0.82009 0.87449 0.50651 0.0
C200 C 0.86623 0.93618 0.55916 0.0
O201 O 0.85988 0.93408 0.58111 0.0
O202 O 0.80036 0.92044 0.5327 0.0
C203 C 0.8373 0.87142 0.49626 0.0
O204 O 0.85686 0.88371 0.50764 0.0
C205 C 0.81654 0.86557 0.56972 0.0
O206 O 0.81374 0.84894 0.54881 0.0
O207 O 0.85332 0.92486 0.53964 0.0
C208 C 0.91257 0.11825 0.26762 0.0
O209 O 0.91561 0.10892 0.24472 0.0
O210 O 0.95518 0.07325 0.24674 0.0
Zn211 Zn 0.93777 0.07652 0.28118 0.0
O212 O 0.95723 0.07752 0.31727 0.0
C213 C 0.92081 0.02147 0.27768 0.0
O214 O 0.94231 0.02386 0.28105 0.0
O215 O 0.92003 0.1084 0.285 0.0
C216 C 0.97435 0.06895 0.32236 0.0
O217 O 0.9839 0.05927 0.30361 0.0
C218 C 0.97591 0.07812 0.24322 0.0
O219 O 0.99044 0.08732 0.26297 0.0
O220 O 0.91393 0.04124 0.2764 0.0
C221 C 0.3269 0.60974 0.53002 0.0
O222 O 0.31946 0.61541 0.55165 0.0
O223 O 0.31327 0.66872 0.54999 0.0
Zn224 Zn 0.30343 0.64401 0.51838 0.0
O225 O 0.30353 0.66139 0.49054 0.0
C226 C 0.26398 0.62538 0.54008 0.0
O227 O 0.27573 0.63791 0.56105 0.0
O228 O 0.32246 0.62043 0.51271 0.0
C229 C 0.29371 0.64915 0.46959 0.0
O230 O 0.28461 0.62523 0.46689 0.0
C231 C 0.30573 0.68818 0.55274 0.0
O232 O 0.29396 0.6922 0.53392 0.0
O233 O 0.27256 0.62505 0.51974 0.0
C234 C 0.41373 0.61801 0.76551 0.0
O235 O 0.41744 0.60882 0.74282 0.0
O236 O 0.45653 0.57191 0.74585 0.0
Zn237 Zn 0.43845 0.5762 0.77987 0.0
O238 O 0.45772 0.57748 0.81629 0.0
C239 C 0.42166 0.52153 0.77853 0.0
O240 O 0.44311 0.52457 0.78355 0.0
O241 O 0.42069 0.60808 0.78308 0.0
C242 C 0.47557 0.57017 0.82133 0.0
O243 O 0.4859 0.56218 0.80251 0.0
C244 C 0.4702 0.58778 0.73653 0.0
O245 O 0.47561 0.61106 0.74886 0.0
O246 O 0.41465 0.54079 0.7754 0.0
C247 C 0.7342 1.00036 0.75885 0.0
O248 O 0.71941 1.00403 0.77422 0.0
O249 O 0.69611 0.02137 0.70254 0.0
Zn250 Zn 0.71471 0.03117 0.73461 0.0
O251 O 0.69541 0.03462 0.76171 0.0
C252 C 0.73205 0.07947 0.72359 0.0
O253 O 0.71718 0.07176 0.70404 0.0
O254 O 0.73391 1.0085 0.73892 0.0
C255 C 0.68644 0.05301 0.76453 0.0
O256 O 0.68971 0.06846 0.74924 0.0
C257 C 0.67576 0.0107 0.70114 0.0
O258 O 0.66769 1.0031 0.72055 0.0
O259 O 0.7343 0.06477 0.73792 0.0
C260 C 0.84086 0.67219 0.01375 0.0
O261 O 0.84785 0.69654 0.02085 0.0
O262 O 0.80164 0.70415 0.04205 0.0
Zn263 Zn 0.79909 0.68447 0.00699 0.0
O264 O 0.80557 0.70473 0.98071 0.0
C265 C 0.75195 0.67162 1.00121 0.0
O266 O 0.75535 0.69602 0.00742 0.0
O267 O 0.82046 0.66275 0.00664 0.0
C268 C 0.80228 0.69124 0.95889 0.0
O269 O 0.79498 0.66698 0.95615 0.0
C270 C 0.8 0.72623 0.05078 0.0
O271 O 0.79672 0.74083 0.03558 0.0
O272 O 0.76853 0.66195 0.99917 0.0
C273 C 0.91544 0.60034 0.81807 0.0
O274 O 0.93715 0.60533 0.82174 0.0
O275 O 0.93201 0.5569 0.76397 0.0
Zn276 Zn 0.92093 0.55291 0.79607 0.0
O277 O 0.94596 0.55611 0.82117 0.0
C278 C 0.91117 0.50146 0.78867 0.0
O279 O 0.93291 0.50648 0.79082 0.0
O280 O 0.9047 0.57856 0.80739 0.0
C281 C 0.94132 0.55762 0.84335 0.0
O282 O 0.92073 0.55655 0.84803 0.0
C283 C 0.9502 0.57169 0.76245 0.0
O284 O 0.96196 0.58574 0.78283 0.0
O285 O 0.90143 0.51922 0.79089 0.0
C286 C 0.7932 0.47051 0.52204 0.0
O287 O 0.78576 0.44646 0.51306 0.0
O288 O 0.82775 0.44104 0.56373 0.0
Zn289 Zn 0.8316 0.45502 0.53359 0.0
O290 O 0.82486 0.42809 0.5032 0.0
C291 C 0.87639 0.45805 0.53155 0.0
O292 O 0.86869 0.4338 0.52831 0.0
O293 O 0.813 0.4788 0.53199 0.0
C294 C 0.83188 0.43483 0.48391 0.0
O295 O 0.84105 0.45849 0.48508 0.0
C296 C 0.81924 0.41813 0.56258 0.0
O297 O 0.81152 0.40336 0.54087 0.0
O298 O 0.86312 0.47226 0.53516 0.0
C299 C 0.71329 0.47055 0.26022 0.0
O300 O 0.71416 0.47669 0.23838 0.0
O301 O 0.6667 0.51193 0.23784 0.0
Zn302 Zn 0.68541 0.51422 0.27477 0.0
O303 O 0.66665 0.51956 0.30804 0.0
C304 C 0.70241 0.56874 0.27597 0.0
O305 O 0.68091 0.56595 0.2717 0.0
O306 O 0.70294 0.48265 0.27627 0.0
C307 C 0.65088 0.50463 0.3158 0.0
O308 O 0.64322 0.48222 0.30185 0.0
C309 C 0.64925 0.51991 0.23265 0.0
O310 O 0.63923 0.52877 0.25139 0.0
O311 O 0.70938 0.54937 0.27873 0.0
Gd312 Gd 0.08751 0.069 0.04494 0.0
Gd313 Gd 0.03716 0.02877 0.01296 0.0
C314 C 0.02983 0.94483 1.0024 0.0
C315 C 0.02525 0.93164 0.95736 0.0
C316 C 0.03024 0.97544 0.97668 0.0
C317 C 0.03215 0.9698 0.99998 0.0
C318 C 0.02602 0.95631 0.95512 0.0
C319 C 0.02714 0.9259 0.98098 0.0
C320 C 0.02924 0.9395 0.02621 0.0
C321 C 0.03007 0.95871 0.04672 0.0
N322 N 0.03437 0.98844 0.02027 0.0
C323 C 0.03237 0.98317 0.04335 0.0
H324 H 0.03309 0.99787 0.05934 0.0
C325 C 0.02436 1.00494 0.95308 0.0
N326 N 0.0305 0.99933 0.97522 0.0
C327 C 0.02027 0.98668 0.93113 0.0
C328 C 0.02156 0.96234 0.93209 0.0
H329 H 0.02306 0.02365 0.9523 0.0
H330 H 0.02564 0.90666 0.98247 0.0
H331 H 0.13294 0.07782 0.01443 0.0
H332 H 0.02746 0.92057 0.02886 0.0
H333 H 0.02906 0.95472 0.06513 0.0
H334 H 0.02229 0.91672 0.941 0.0
H335 H 0.05639 0.10041 0.08244 0.0
H336 H 0.1425 0.14876 0.99387 0.0
H337 H 0.15307 0.10858 0.99234 0.0
H338 H 0.09231 0.18744 0.04002 0.0
H339 H 0.01602 0.99134 0.91354 0.0
H340 H 0.01817 0.94817 0.91509 0.0
H341 H 0.11976 0.17805 0.0118 0.0
H342 H 0.0489 0.14146 0.09194 0.0
N343 N 0.10927 0.09876 0.02558 0.0
C344 C 0.13322 0.13498 1.00299 0.0
C345 C 0.1392 0.11234 1.00203 0.0
C346 C 0.11622 0.14014 0.01701 0.0
C347 C 0.10456 0.1215 0.02846 0.0
C348 C 0.12745 0.09474 0.01414 0.0
N349 N 0.07841 0.10842 0.05519 0.0
C350 C 0.08908 0.12671 0.04423 0.0
C351 C 0.06011 0.13755 0.0783 0.0
C352 C 0.07018 0.15605 0.06632 0.0
C353 C 0.06445 0.11386 0.07257 0.0
C354 C 0.08491 0.15082 0.04911 0.0
H355 H 0.06661 0.17433 0.07064 0.0
O356 O 0.09688 0.07276 0.08445 0.0
O357 O 0.06659 0.03027 0.03887 0.0
O358 O 0.03067 0.03999 0.05383 0.0
O359 O 0.06461 0.06187 0.07544 0.0
O360 O 0.09974 0.0339 0.03398 0.0
O361 O 0.12204 0.0808 0.06035 0.0
O362 O 0.00911 0.04399 1.0038 0.0
O363 O 0.05495 0.06901 0.02627 0.0
O364 O 0.09396 0.0548 1.00395 0.0
O365 O 0.06236 0.02504 0.98407 0.0
O366 O 0.0421 0.05735 0.989 0.0
O367 O 1.00396 0.0105 0.01855 0.0
C368 C 0.08133 0.01805 0.03412 0.0
C369 C 0.09564 0.16902 0.03683 0.0
C370 C 0.1112 0.16365 0.0207 0.0
C371 C 0.11788 0.0763 0.08202 0.0
C372 C 0.12946 0.05899 0.09139 0.0
C373 C 0.12253 0.04893 0.11188 0.0
C374 C 0.1464 0.05094 0.07885 0.0
C375 C 0.1557 0.03242 0.08606 0.0
C376 C 0.13189 0.03062 0.1192 0.0
C377 C 0.14826 0.02222 0.10625 0.0
C378 C 0.04309 0.05178 0.07501 0.0
C379 C 0.05255 0.07625 0.00587 0.0
C380 C 0.99474 0.02586 0.00928 0.0
C381 C 0.97489 0.01507 0.9916 0.0
C382 C 0.97148 0.99159 0.97563 0.0
C383 C 0.95867 0.02866 0.9914 0.0
C384 C 0.93893 0.01911 0.97552 0.0
C385 C 0.95181 0.98193 0.9597 0.0
C386 C 0.93548 0.99554 0.9597 0.0
C387 C 0.08305 0.03807 0.98391 0.0
H388 H 0.10954 0.05482 0.1219 0.0
H389 H 0.1519 0.0584 0.06294 0.0
H390 H 0.1263 0.02275 0.13482 0.0
H391 H 0.1553 1.00796 0.11217 0.0
H392 H 0.9838 0.98068 0.97564 0.0
H393 H 0.96127 0.04658 1.00415 0.0
H394 H 0.94915 0.96381 0.94743 0.0
H395 H 0.92032 0.98779 0.94729 0.0
Gd396 Gd 0.30135 0.81145 0.2993 0.0
Gd397 Gd 0.31887 0.77653 0.24416 0.0
C398 C 0.31206 0.69251 0.22862 0.0
C399 C 0.35036 0.68955 0.2335 0.0
C400 C 0.34151 0.73024 0.23918 0.0
C401 C 0.31908 0.71879 0.23491 0.0
C402 C 0.35737 0.71564 0.23768 0.0
C403 C 0.32774 0.678 0.22893 0.0
C404 C 0.28965 0.68159 0.22079 0.0
C405 C 0.27502 0.69679 0.21838 0.0
N406 N 0.30425 0.73324 0.23438 0.0
C407 C 0.28267 0.72271 0.2251 0.0
H408 H 0.27116 0.73411 0.22283 0.0
C409 C 0.36958 0.76701 0.24214 0.0
N410 N 0.34782 0.7555 0.24261 0.0
C411 C 0.38584 0.75331 0.24079 0.0
C412 C 0.37977 0.72758 0.23911 0.0
H413 H 0.37466 0.78678 0.243 0.0
H414 H 0.32261 0.65781 0.22457 0.0
H415 H 0.35964 0.8299 0.31796 0.0
H416 H 0.28364 0.6615 0.21565 0.0
H417 H 0.25781 0.68857 0.21147 0.0
H418 H 0.36231 0.67808 0.23263 0.0
H419 H 0.25923 0.8362 0.28498 0.0
H420 H 0.37395 0.90191 0.36361 0.0
H421 H 0.3852 0.86342 0.34602 0.0
H422 H 0.30884 0.93084 0.34931 0.0
H423 H 0.40304 0.76261 0.24099 0.0
H424 H 0.39241 0.717 0.23793 0.0
H425 H 0.34562 0.92694 0.36431 0.0
H426 H 0.2478 0.87547 0.29527 0.0
N427 N 0.33101 0.84534 0.3224 0.0
C428 C 0.36185 0.88629 0.35217 0.0
C429 C 0.3682 0.86458 0.34245 0.0
C430 C 0.34043 0.88823 0.34555 0.0
C431 C 0.32525 0.86733 0.33041 0.0
C432 C 0.35285 0.84468 0.3271 0.0
N433 N 0.29124 0.85015 0.30565 0.0
C434 C 0.3048 0.86981 0.32158 0.0
C435 C 0.26398 0.87428 0.30264 0.0
C436 C 0.27799 0.89481 0.3185 0.0
C437 C 0.27079 0.85202 0.29659 0.0
C438 C 0.29865 0.89279 0.32819 0.0
H439 H 0.27268 0.91209 0.32319 0.0
O440 O 0.26581 0.79905 0.29783 0.0
O441 O 0.29566 0.77489 0.27277 0.0
O442 O 0.28261 0.77772 0.23933 0.0
O443 O 0.28577 0.81698 0.2625 0.0
O444 O 0.29943 0.7747 0.31073 0.0
O445 O 0.28562 0.81354 0.33358 0.0
O446 O 0.32113 0.79922 0.21607 0.0
O447 O 0.31826 0.81352 0.26601 0.0
O448 O 0.33041 0.79693 0.31323 0.0
O449 O 0.3415 0.77389 0.27768 0.0
O450 O 0.34806 0.80991 0.25264 0.0
O451 O 0.31466 0.7593 0.20486 0.0
C452 C 0.29532 0.76116 0.28848 0.0
C453 C 0.31332 0.91313 0.34402 0.0
C454 C 0.33419 0.91086 0.35266 0.0
C455 C 0.26594 0.80277 0.32186 0.0
C456 C 0.25235 0.78204 0.33086 0.0
C457 C 0.22948 0.77506 0.32346 0.0
C458 C 0.26191 0.76808 0.34516 0.0
C459 C 0.24877 0.74702 0.35166 0.0
C460 C 0.21634 0.75427 0.33006 0.0
C461 C 0.2259 0.74023 0.34402 0.0
C462 C 0.27556 0.79853 0.24388 0.0
C463 C 0.33788 0.82483 0.26531 0.0
C464 C 0.31952 0.78041 0.19784 0.0
C465 C 0.33649 0.78342 0.18075 0.0
C466 C 0.35327 0.77024 0.17985 0.0
C467 C 0.33627 0.8008 0.16577 0.0
C468 C 0.35287 0.80559 0.15014 0.0
C469 C 0.3698 0.7748 0.16419 0.0
C470 C 0.36968 0.79243 0.1494 0.0
C471 C 0.3436 0.78332 0.30209 0.0
H472 H 0.22184 0.78553 0.31227 0.0
H473 H 0.27958 0.77322 0.35076 0.0
H474 H 0.19871 0.74896 0.32426 0.0
H475 H 0.21535 0.72428 0.34913 0.0
H476 H 0.35364 0.75653 0.19117 0.0
H477 H 0.32299 0.81052 0.16628 0.0
H478 H 0.38279 0.76473 0.1636 0.0
H479 H 0.38279 0.79592 0.1376 0.0
Gd480 Gd 0.53361 0.0372 0.53329 0.0
Gd481 Gd 0.58806 0.05127 0.50998 0.0
C482 C 0.62808 0.12899 0.50698 0.0
C483 C 0.62799 0.12671 0.46247 0.0
C484 C 0.60925 0.09087 0.47811 0.0
C485 C 0.61527 0.10422 0.50225 0.0
C486 C 0.61587 0.10179 0.45792 0.0
C487 C 0.63406 0.1403 0.48696 0.0
C488 C 0.63496 0.14142 0.53168 0.0
C489 C 0.62963 0.12888 0.55087 0.0
N490 N 0.60949 0.09258 0.52112 0.0
C491 C 0.61709 0.10423 0.54521 0.0
H492 H 0.61312 0.09487 0.56027 0.0
C493 C 0.59334 0.05208 0.45103 0.0
N494 N 0.5978 0.06676 0.47442 0.0
C495 C 0.59942 0.0621 0.4304 0.0
C496 C 0.61057 0.08713 0.43383 0.0
H497 H 0.5847 0.03272 0.44815 0.0
H498 H 0.64377 0.15936 0.49022 0.0
H499 H 0.50875 0.99513 0.48206 0.0
H500 H 0.64475 0.16049 0.53611 0.0
H501 H 0.63515 0.13818 0.57003 0.0
H502 H 0.63311 0.13549 0.4472 0.0
H503 H 0.53643 0.05397 0.59512 0.0
H504 H 0.4781 0.92767 0.50385 0.0
H505 H 0.48713 0.95155 0.47093 0.0
H506 H 0.48979 0.94975 0.59293 0.0
H507 H 0.59553 0.0505 0.41189 0.0
H508 H 0.61536 0.09482 0.41783 0.0
H509 H 0.47934 0.92711 0.54945 0.0
H510 H 0.52586 0.03467 0.63069 0.0
N511 N 0.51269 0.99582 0.52089 0.0
C512 C 0.48769 0.94681 0.50886 0.0
C513 C 0.49271 0.96024 0.49023 0.0
C514 C 0.49458 0.95849 0.53378 0.0
C515 C 0.50712 0.98339 0.53927 0.0
C516 C 0.50501 0.98498 0.49665 0.0
N517 N 0.5241 0.02034 0.56811 0.0
C518 C 0.51302 0.99605 0.56367 0.0
C519 C 0.52224 0.02356 0.61195 0.0
C520 C 0.51157 0.9983 0.60776 0.0
C521 C 0.52817 0.03444 0.59177 0.0
C522 C 0.50655 0.98428 0.58337 0.0
H523 H 0.50688 0.98994 0.62341 0.0
O524 O 0.51329 0.06153 0.54944 0.0
O525 O 0.56149 0.06702 0.52725 0.0
O526 O 0.58954 0.0533 0.5514 0.0
O527 O 0.55775 0.02576 0.55796 0.0
O528 O 0.54728 0.07459 0.55961 0.0
O529 O 0.50292 0.03758 0.51279 0.0
O530 O 0.60796 0.02597 0.4949 0.0
O531 O 0.56018 0.02149 0.51631 0.0
O532 O 0.53218 0.03754 0.4921 0.0
O533 O 0.5647 0.06442 0.48601 0.0
O534 O 0.57354 0.01418 0.48344 0.0
O535 O 0.6183 0.05039 0.53122 0.0
C536 C 0.56204 0.08374 0.54639 0.0
C537 C 0.49478 0.95919 0.57806 0.0
C538 C 0.48883 0.9463 0.5533 0.0
C539 C 0.49793 0.05361 0.53062 0.0
C540 C 0.47509 0.04813 0.53653 0.0
C541 C 0.46654 0.02758 0.54692 0.0
C542 C 0.46161 0.06384 0.53139 0.0
C543 C 0.43953 0.05931 0.53671 0.0
C544 C 0.44455 0.02284 0.55215 0.0
C545 C 0.43107 0.03859 0.5471 0.0
C546 C 0.57859 0.03803 0.56437 0.0
C547 C 0.55909 1.00497 0.49692 0.0
C548 C 0.62323 0.03392 0.51379 0.0
C549 C 0.6461 0.03909 0.50783 0.0
C550 C 0.65444 0.05899 0.49645 0.0
C551 C 0.65971 0.02365 0.51347 0.0
C552 C 0.68171 0.02794 0.50778 0.0
C553 C 0.67628 0.06339 0.49074 0.0
C554 C 0.68989 0.04797 0.49634 0.0
C555 C 0.54342 0.05386 0.48032 0.0
H556 H 0.47678 0.01527 0.55095 0.0
H557 H 0.46832 0.07946 0.52296 0.0
H558 H 0.43796 1.00699 0.56022 0.0
H559 H 0.41416 0.03478 0.55167 0.0
H560 H 0.64413 0.07105 0.49199 0.0
H561 H 0.65303 1.00808 0.52198 0.0
H562 H 0.6827 0.0788 0.48201 0.0
H563 H 0.70686 0.05192 0.49201 0.0
Gd564 Gd 0.33982 0.2875 0.7811 0.0
Gd565 Gd 0.28491 0.30138 0.76897 0.0
C566 C 0.25464 0.29869 0.69035 0.0
C567 C 0.25491 0.34225 0.69165 0.0
C568 C 0.26848 0.32942 0.7283 0.0
C569 C 0.26433 0.30512 0.71526 0.0
C570 C 0.26313 0.34817 0.71695 0.0
C571 C 0.25068 0.31752 0.67835 0.0
C572 C 0.24825 0.27345 0.67866 0.0
C573 C 0.25057 0.25537 0.69221 0.0
N574 N 0.26791 0.28744 0.72767 0.0
C575 C 0.2601 0.26273 0.71696 0.0
H576 H 0.26185 0.2485 0.72706 0.0
C577 C 0.27653 0.35695 0.76757 0.0
N578 N 0.27586 0.33425 0.75278 0.0
C579 C 0.27154 0.37624 0.75718 0.0
C580 C 0.26521 0.37196 0.73165 0.0
H581 H 0.28156 0.36043 0.78729 0.0
H582 H 0.24354 0.31301 0.65911 0.0
H583 H 0.3666 0.34072 0.82075 0.0
H584 H 0.24079 0.26772 0.65952 0.0
H585 H 0.24511 0.23576 0.68361 0.0
H586 H 0.25096 0.35645 0.68248 0.0
H587 H 0.34089 0.22746 0.76421 0.0
H588 H 0.38761 0.32282 0.88897 0.0
H589 H 0.38474 0.35413 0.86357 0.0
H590 H 0.37281 0.23356 0.8691 0.0
H591 H 0.27265 0.39437 0.76886 0.0
H592 H 0.26124 0.38688 0.72365 0.0
H593 H 0.38255 0.27759 0.89107 0.0
H594 H 0.34843 0.19355 0.78369 0.0
N595 N 0.35827 0.30207 0.82177 0.0
C596 C 0.37953 0.31678 0.8701 0.0
C597 C 0.37802 0.33448 0.8558 0.0
C598 C 0.37163 0.29142 0.8594 0.0
C599 C 0.36123 0.2846 0.83476 0.0
C600 C 0.36763 0.32673 0.83141 0.0
N601 N 0.34814 0.25469 0.79807 0.0
C602 C 0.35596 0.26 0.82245 0.0
C603 C 0.35051 0.21213 0.79486 0.0
C604 C 0.3573 0.21699 0.82033 0.0
C605 C 0.34634 0.2314 0.78388 0.0
C606 C 0.36062 0.2413 0.83436 0.0
H607 H 0.36067 0.20208 0.82879 0.0
O608 O 0.36183 0.27423 0.75532 0.0
O609 O 0.314 0.29057 0.75277 0.0
O610 O 0.28187 0.25958 0.76795 0.0
O611 O 0.31357 0.25572 0.79042 0.0
O612 O 0.32828 0.26026 0.7449 0.0
O613 O 0.37061 0.31222 0.77609 0.0
O614 O 0.26276 0.31273 0.79555 0.0
O615 O 0.31096 0.29873 0.79702 0.0
O616 O 0.34304 0.32941 0.78228 0.0
O617 O 0.31089 0.33436 0.76137 0.0
O618 O 0.29555 0.32808 0.80572 0.0
O619 O 0.25345 0.27631 0.77133 0.0
C620 C 0.31435 0.27146 0.73664 0.0
C621 C 0.36938 0.2477 0.85949 0.0
C622 C 0.3749 0.27276 0.87201 0.0
C623 C 0.37693 0.29506 0.76079 0.0
C624 C 0.39986 0.29294 0.76608 0.0
C625 C 0.40661 0.28755 0.78877 0.0
C626 C 0.41511 0.29627 0.74845 0.0
C627 C 0.43709 0.29416 0.75351 0.0
C628 C 0.42827 0.28561 0.79398 0.0
C629 C 0.44342 0.28893 0.77659 0.0
C630 C 0.29277 0.24649 0.7799 0.0
C631 C 0.31015 0.31741 0.81345 0.0
C632 C 0.24729 0.2924 0.78808 0.0
C633 C 0.22472 0.29579 0.78333 0.0
C634 C 0.21863 0.30368 0.76179 0.0
C635 C 0.20918 0.29133 0.80043 0.0
C636 C 0.18754 0.29469 0.79596 0.0
C637 C 0.19739 0.30725 0.75734 0.0
C638 C 0.18197 0.30285 0.77425 0.0
C639 C 0.33194 0.34305 0.77133 0.0
H640 H 0.39516 0.28492 0.8025 0.0
H641 H 0.40977 0.30015 0.73079 0.0
H642 H 0.43339 0.2816 0.81163 0.0
H643 H 0.46022 0.28772 0.78143 0.0
H644 H 0.23028 0.30713 0.74844 0.0
H645 H 0.21386 0.28499 0.81696 0.0
H646 H 0.19288 0.31352 0.74074 0.0
H647 H 0.16573 0.30619 0.77043 0.0
Gd648 Gd 0.06527 0.01533 0.51088 0.0
Gd649 Gd 0.05713 0.07219 0.54504 0.0
C650 C 0.06947 0.09643 0.62965 0.0
C651 C 0.03251 0.09737 0.6409 0.0
C652 C 0.03861 0.08622 0.59747 0.0
C653 C 0.06087 0.08887 0.60436 0.0
C654 C 0.02421 0.09081 0.61562 0.0
C655 C 0.05511 0.10019 0.6479 0.0
C656 C 0.09233 0.10062 0.63581 0.0
C657 C 0.10605 0.09807 0.6169 0.0
N658 N 0.07429 0.08527 0.58625 0.0
C659 C 0.09674 0.09067 0.59209 0.0
H660 H 0.10764 0.08882 0.57778 0.0
C661 C 0.00975 0.07955 0.5651 0.0
N662 N 0.03119 0.08008 0.5729 0.0
C663 C 0.99481 0.08379 0.5824 0.0
C664 C 1.00201 0.0892 0.60779 0.0
H665 H 1.00394 0.07526 0.54555 0.0
H666 H 0.06138 0.10579 0.66744 0.0
H667 H 0.01594 1.00044 0.47608 0.0
H668 H 0.09959 0.10639 0.65502 0.0
H669 H 0.1238 0.10172 0.62141 0.0
H670 H 0.02169 0.10081 0.65513 0.0
H671 H 0.11738 1.00736 0.51249 0.0
H672 H 0.02648 0.98364 0.3995 0.0
H673 H 1.00117 0.98852 0.43194 0.0
H674 H 0.10392 0.98557 0.40275 0.0
H675 H 0.97775 0.08283 0.57613 0.0
H676 H 0.99042 0.09255 0.62116 0.0
H677 H 0.06498 0.98298 0.38877 0.0
H678 H 0.14411 0.99834 0.48323 0.0
N679 N 0.04956 1.00325 0.46905 0.0
C680 C 0.03311 0.98898 0.41893 0.0
C681 C 0.01877 0.99163 0.43717 0.0
C682 C 0.05573 0.99235 0.42603 0.0
C683 C 0.06351 0.99934 0.45159 0.0
C684 C 0.02728 0.99846 0.46227 0.0
N685 N 0.09175 1.00585 0.48422 0.0
C686 C 0.08532 1.00069 0.45943 0.0
C687 C 0.12767 0.9991 0.47627 0.0
C688 C 0.12161 0.99492 0.45072 0.0
C689 C 0.11239 1.00428 0.49284 0.0
C690 C 0.10011 0.99526 0.44198 0.0
H691 H 0.13346 0.99082 0.43791 0.0
O692 O 0.07365 0.98575 0.52684 0.0
O693 O 0.06769 0.03767 0.55018 0.0
O694 O 0.09227 0.07565 0.53508 0.0
O695 O 0.09159 0.04486 0.50028 0.0
O696 O 0.09398 0.02273 0.54095 0.0
O697 O 0.04217 0.97915 0.50444 0.0
O698 O 0.04573 0.10232 0.53308 0.0
O699 O 0.05494 0.05011 0.50582 0.0
O700 O 0.0298 0.01293 0.51979 0.0
O701 O 0.0325 0.04185 0.55631 0.0
O702 O 0.02865 0.06518 0.51467 0.0
O703 O 0.08004 0.10783 0.54817 0.0
C704 C 0.08638 0.03508 0.55917 0.0
C705 C 0.09276 0.98956 0.41645 0.0
C706 C 0.0706 0.9881 0.40849 0.0
C707 C 0.05538 0.96972 0.51698 0.0
C708 C 0.0576 0.94477 0.50631 0.0
C709 C 0.06546 0.93897 0.48319 0.0
C710 C 0.05291 0.92678 0.52072 0.0
C711 C 0.05668 0.90299 0.51274 0.0
C712 C 0.06876 0.91511 0.47473 0.0
C713 C 0.06453 0.89719 0.48946 0.0
C714 C 0.10092 0.06661 0.51506 0.0
C715 C 0.03651 0.05306 0.49651 0.0
C716 C 0.06511 0.11766 0.53903 0.0
C717 C 0.06556 0.14333 0.55024 0.0
C718 C 0.06282 0.15105 0.57532 0.0
C719 C 0.06916 0.16053 0.53492 0.0
C720 C 0.07003 0.18569 0.54424 0.0
C721 C 0.06384 0.17625 0.58489 0.0
C722 C 0.06752 0.19359 0.56946 0.0
C723 C 0.02179 0.02144 0.54048 0.0
H724 H 0.06919 0.95284 0.47189 0.0
H725 H 0.04646 0.93155 0.53837 0.0
H726 H 0.07493 0.9106 0.45692 0.0
H727 H 0.06781 0.87906 0.48284 0.0
H728 H 0.06003 0.13775 0.58736 0.0
H729 H 0.0717 0.15428 0.51565 0.0
H730 H 0.0618 0.18235 0.60427 0.0
H731 H 0.0682 0.21302 0.57711 0.0
Gd732 Gd 0.28887 0.77595 0.78289 0.0
Gd733 Gd 0.33579 0.81399 0.76459 0.0
C734 C 0.33315 0.88452 0.73603 0.0
C735 C 0.34064 0.87328 0.69313 0.0
C736 C 0.33989 0.84381 0.72039 0.0
C737 C 0.33487 0.86076 0.73958 0.0
C738 C 0.34327 0.85006 0.69708 0.0
C739 C 0.33559 0.89048 0.71257 0.0
C740 C 0.3297 0.90185 0.75637 0.0
C741 C 0.32878 0.89558 0.77967 0.0
N742 N 0.33289 0.85453 0.76209 0.0
C743 C 0.33069 0.87183 0.78228 0.0
H744 H 0.32992 0.86732 0.80043 0.0
C745 C 0.3499 0.80549 0.7074 0.0
N746 N 0.34255 0.82165 0.72491 0.0
C747 C 0.35334 0.81079 0.68397 0.0
C748 C 0.34976 0.83305 0.67867 0.0
H749 H 0.35268 0.78819 0.7112 0.0
H750 H 0.33413 0.90856 0.70943 0.0
H751 H 0.29708 0.72234 0.75077 0.0
H752 H 0.32824 0.92029 0.7544 0.0
H753 H 0.32651 0.90898 0.79563 0.0
H754 H 0.34299 0.87835 0.67529 0.0
H755 H 0.26362 0.79927 0.83101 0.0
H756 H 0.29943 0.67264 0.80027 0.0
H757 H 0.30194 0.68192 0.75825 0.0
H758 H 0.27733 0.715 0.87498 0.0
H759 H 0.35871 0.79769 0.67 0.0
H760 H 0.3525 0.83715 0.66052 0.0
H761 H 0.29064 0.6854 0.84407 0.0
H762 H 0.2542 0.79049 0.87152 0.0
N763 N 0.29306 0.73656 0.78839 0.0
C764 C 0.29747 0.69055 0.79712 0.0
C765 C 0.2988 0.69567 0.77337 0.0
C766 C 0.29248 0.70812 0.81619 0.0
C767 C 0.29011 0.73115 0.81107 0.0
C768 C 0.29613 0.71871 0.76923 0.0
N769 N 0.27861 0.7685 0.82175 0.0
C770 C 0.28251 0.74763 0.82833 0.0
C771 C 0.26234 0.77838 0.85966 0.0
C772 C 0.26746 0.75777 0.8673 0.0
C773 C 0.26783 0.78334 0.8366 0.0
C774 C 0.27725 0.74179 0.85136 0.0
H775 H 0.26311 0.7539 0.88513 0.0
O776 O 0.25473 0.77921 0.77953 0.0
O777 O 0.2996 0.81152 0.76837 0.0
O778 O 0.3322 0.82609 0.80507 0.0
O779 O 0.31075 0.79294 0.81868 0.0
O780 O 0.28024 0.81308 0.7969 0.0
O781 O 0.26379 0.74718 0.75808 0.0
O782 O 0.36945 0.8098 0.76313 0.0
O783 O 0.32544 0.77866 0.77975 0.0
O784 O 0.29454 0.76332 0.74278 0.0
O785 O 0.31096 0.79964 0.73107 0.0
O786 O 0.344 0.77684 0.75027 0.0
O787 O 0.36275 0.84147 0.78818 0.0
C788 C 0.28973 0.82606 0.78203 0.0
C789 C 0.28103 0.71968 0.85726 0.0
C790 C 0.28863 0.70286 0.83968 0.0
C791 C 0.24773 0.75745 0.76483 0.0
C792 C 0.22806 0.74127 0.7713 0.0
C793 C 0.22954 0.72192 0.78369 0.0
C794 C 0.20734 0.74541 0.76481 0.0
C795 C 0.18799 0.73009 0.77016 0.0
C796 C 0.21031 0.70669 0.7892 0.0
C797 C 0.18957 0.7106 0.78231 0.0
C798 C 0.3251 0.81476 0.82293 0.0
C799 C 0.33535 0.76424 0.76589 0.0
C800 C 0.37776 0.83042 0.77931 0.0
C801 C 0.39802 0.84609 0.77361 0.0
C802 C 0.39796 0.86098 0.75586 0.0
C803 C 0.41806 0.84489 0.78558 0.0
C804 C 0.43821 0.85832 0.77997 0.0
C805 C 0.41802 0.87438 0.75007 0.0
C806 C 0.43813 0.87297 0.76195 0.0
C807 C 0.29956 0.77635 0.7255 0.0
H808 H 0.24543 0.71844 0.7889 0.0
H809 H 0.20624 0.76021 0.75499 0.0
H810 H 0.21148 0.69172 0.79866 0.0
H811 H 0.1748 0.6985 0.78649 0.0
H812 H 0.38257 0.86206 0.7464 0.0
H813 H 0.41795 0.83295 0.79897 0.0
H814 H 0.41799 0.8858 0.7363 0.0
H815 H 0.45353 0.88347 0.7573 0.0
Gd816 Gd 0.55197 0.05226 0.99158 0.0
Gd817 Gd 0.56582 0.0316 0.04928 0.0
C818 C 0.63566 0.05219 0.08982 0.0
C819 C 0.64516 0.0119 0.08415 0.0
C820 C 0.60914 0.01512 0.06722 0.0
C821 C 0.61479 0.04061 0.0763 0.0
C822 C 0.62402 1.00037 0.07155 0.0
C823 C 0.65099 0.03778 0.09322 0.0
C824 C 0.64026 0.07777 0.10012 0.0
C825 C 0.62395 0.09092 0.09756 0.0
N826 N 0.5995 0.0539 0.07289 0.0
C827 C 0.60345 0.07857 0.08409 0.0
H828 H 0.59112 0.08909 0.0822 0.0
C829 C 0.5812 0.97922 0.04861 0.0
N830 N 0.58859 1.00457 0.05523 0.0
C831 C 0.59536 0.96377 0.05246 0.0
C832 C 0.61698 0.97441 0.06369 0.0
H833 H 0.56452 0.971 0.03981 0.0
H834 H 0.66718 0.04638 0.10337 0.0
H835 H 0.52298 0.99469 0.96319 0.0
H836 H 0.65613 0.08739 0.11056 0.0
H837 H 0.62717 0.11061 0.10584 0.0
H838 H 0.65693 1.00092 0.08746 0.0
H839 H 0.55639 0.1135 0.99832 0.0
H840 H 0.45849 0.99963 0.93642 0.0
H841 H 0.48563 0.97437 0.94217 0.0
H842 H 0.4629 0.08764 0.95466 0.0
H843 H 0.58961 0.94371 0.04673 0.0
H844 H 0.62791 0.96241 0.06671 0.0
H845 H 0.4501 0.042 0.9413 0.0
H846 H 0.5328 0.14219 0.99124 0.0
N847 N 0.51708 0.03122 0.97006 0.0
C848 C 0.4749 1.0087 0.94574 0.0
C849 C 0.49018 0.99439 0.94892 0.0
C850 C 0.48116 0.03462 0.95414 0.0
C851 C 0.50268 0.04546 0.96628 0.0
C852 C 0.5114 1.00604 0.96089 0.0
N853 N 0.53078 0.08073 0.98496 0.0
C854 C 0.50974 0.07105 0.97404 0.0
C855 C 0.52607 0.12222 0.98642 0.0
C856 C 0.50404 0.11255 0.97622 0.0
C857 C 0.53939 0.10594 0.99038 0.0
C858 C 0.49569 0.08666 0.96956 0.0
H859 H 0.49377 0.12519 0.9731 0.0
O860 O 0.57475 0.07357 0.97121 0.0
O861 O 0.57769 0.05239 0.0209 0.0
O862 O 0.55667 0.06921 0.05708 0.0
O863 O 0.53628 0.07249 0.02117 0.0
O864 O 0.58041 0.08527 0.00891 0.0
O865 O 0.5571 0.03548 0.95436 0.0
O866 O 0.5458 1.00718 0.06939 0.0
O867 O 0.53978 0.03198 0.02049 0.0
O868 O 0.55937 0.01403 0.98495 0.0
O869 O 0.58308 0.01356 0.01914 0.0
O870 O 0.53746 0.99883 0.03147 0.0
O871 O 0.55744 0.04696 0.08552 0.0
C872 C 0.58943 0.07414 0.02373 0.0
C873 C 0.47402 0.07597 0.95809 0.0
C874 C 0.46675 0.04999 0.95045 0.0
C875 C 0.57036 0.05589 0.95131 0.0
C876 C 0.56613 0.06369 0.92812 0.0
C877 C 0.54697 0.07175 0.92251 0.0
C878 C 0.582 0.06344 0.9115 0.0
C879 C 0.57886 0.07091 0.88896 0.0
C880 C 0.54388 0.07963 0.90025 0.0
C881 C 0.55976 0.07925 0.88346 0.0
C882 C 0.54244 0.0788 0.04529 0.0
C883 C 0.52751 0.01049 0.01801 0.0
C884 C 0.5473 0.02506 0.08881 0.0
C885 C 0.5526 0.01944 0.11293 0.0
C886 C 0.56813 1.0054 0.11671 0.0
C887 C 0.54123 0.02795 0.13245 0.0
C888 C 0.54477 0.02206 0.15569 0.0
C889 C 0.5718 0.99956 0.13996 0.0
C890 C 0.55999 1.00764 0.1594 0.0
C891 C 0.57555 1.00621 0.99532 0.0
H892 H 0.53452 0.07197 0.93521 0.0
H893 H 0.59692 0.05753 0.91624 0.0
H894 H 0.5291 0.08589 0.89594 0.0
H895 H 0.55694 0.085 0.86608 0.0
H896 H 0.57715 0.99874 0.10177 0.0
H897 H 0.52907 0.03859 0.12933 0.0
H898 H 0.58364 0.98857 0.14284 0.0
H899 H 0.56276 1.00275 0.17725 0.0
Gd900 Gd 0.29161 0.27569 0.26164 0.0
Gd901 Gd 0.33923 0.32661 0.29132 0.0
C902 C 0.40974 0.31667 0.30075 0.0
C903 C 0.41688 0.32212 0.34555 0.0
C904 C 0.38117 0.32475 0.32689 0.0
C905 C 0.38792 0.31931 0.30336 0.0
C906 C 0.39587 0.32692 0.34824 0.0
C907 C 0.42385 0.31715 0.32185 0.0
C908 C 0.41722 0.31519 0.27724 0.0
C909 C 0.4032 0.31664 0.25708 0.0
N910 N 0.37406 0.31928 0.28325 0.0
C911 C 0.38163 0.31891 0.26046 0.0
H912 H 0.37124 0.32051 0.24475 0.0
C913 C 0.35583 0.34068 0.35171 0.0
N914 N 0.36112 0.33032 0.32897 0.0
C915 C 0.36968 0.34273 0.37337 0.0
C916 C 0.38957 0.33531 0.37167 0.0
H917 H 0.34076 0.34702 0.3534 0.0
H918 H 0.44053 0.31474 0.32012 0.0
H919 H 0.27739 0.27189 0.32322 0.0
H920 H 0.43407 0.31395 0.27466 0.0
H921 H 0.40902 0.31613 0.23893 0.0
H922 H 0.42827 0.32343 0.36173 0.0
H923 H 0.27189 0.28594 0.20776 0.0
H924 H 0.2079 0.25206 0.31987 0.0
H925 H 0.24484 0.25957 0.34266 0.0
H926 H 0.18273 0.26105 0.23949 0.0
H927 H 0.36508 0.35026 0.39134 0.0
H928 H 0.40042 0.33725 0.38848 0.0
H929 H 0.18506 0.25309 0.28174 0.0
H930 H 0.23648 0.2841 0.1848 0.0
N931 N 0.26091 0.2682 0.28649 0.0
C932 C 0.22251 0.25648 0.31037 0.0
C933 C 0.24329 0.26059 0.32321 0.0
C934 C 0.22085 0.25952 0.28586 0.0
C935 C 0.24047 0.26553 0.27429 0.0
C936 C 0.26221 0.26688 0.31128 0.0
N937 N 0.25803 0.27771 0.24055 0.0
C938 C 0.23905 0.27059 0.25074 0.0
C939 C 0.23691 0.28055 0.20345 0.0
C940 C 0.21734 0.27416 0.21405 0.0
C941 C 0.25709 0.28194 0.21685 0.0
C942 C 0.21819 0.26899 0.23788 0.0
H943 H 0.20167 0.27304 0.20361 0.0
O944 O 0.29759 0.26425 0.2234 0.0
O945 O 0.32824 0.29082 0.264 0.0
O946 O 0.33385 0.32132 0.24955 0.0
O947 O 0.29599 0.31079 0.2459 0.0
O948 O 0.31732 0.25406 0.2675 0.0
O949 O 0.27705 0.23779 0.24123 0.0
O950 O 0.33095 0.36161 0.28829 0.0
O951 O 0.30296 0.3142 0.28256 0.0
O952 O 0.30307 0.26657 0.29772 0.0
O953 O 0.33339 0.29954 0.31742 0.0
O954 O 0.31432 0.33605 0.31771 0.0
O955 O 0.36514 0.35993 0.2926 0.0
C956 C 0.33447 0.27139 0.26633 0.0
C957 C 0.19882 0.26234 0.24909 0.0
C958 C 0.20015 0.25767 0.27306 0.0
C959 C 0.28713 0.24115 0.2216 0.0
C960 C 0.29961 0.22289 0.21144 0.0
C961 C 0.30605 0.22216 0.1874 0.0
C962 C 0.30799 0.209 0.2267 0.0
C963 C 0.32415 0.1963 0.21898 0.0
C964 C 0.32143 0.20854 0.17919 0.0
C965 C 0.33081 0.19603 0.19509 0.0
C966 C 0.31462 0.32101 0.23782 0.0
C967 C 0.29703 0.32389 0.30266 0.0
C968 C 0.35139 0.3742 0.29253 0.0
C969 C 0.35583 0.39697 0.31193 0.0
C970 C 0.36966 0.40031 0.33412 0.0
C971 C 0.34442 0.41503 0.30867 0.0
C972 C 0.34597 0.43602 0.32752 0.0
C973 C 0.37147 0.42146 0.35296 0.0
C974 C 0.35942 0.43918 0.34984 0.0
C975 C 0.31874 0.27815 0.31648 0.0
H976 H 0.29983 0.2329 0.17536 0.0
H977 H 0.30312 0.2094 0.24529 0.0
H978 H 0.32663 0.20835 0.16079 0.0
H979 H 0.34329 0.18625 0.18882 0.0
H980 H 0.37871 0.38651 0.33708 0.0
H981 H 0.33338 0.4121 0.29173 0.0
H982 H 0.38192 0.4239 0.37015 0.0
H983 H 0.3605 0.45519 0.36474 0.0
Gd984 Gd 0.56607 0.51759 0.01082 0.0
Gd985 Gd 0.5584 0.5749 0.04442 0.0
C986 C 0.57244 0.59868 0.12909 0.0
C987 C 0.53627 0.60242 0.14114 0.0
C988 C 0.5414 0.59053 0.0975 0.0
C989 C 0.5634 0.5915 0.10392 0.0
C990 C 0.52771 0.59666 0.11597 0.0
C991 C 0.55862 0.60342 0.1477 0.0
C992 C 0.59525 0.60186 0.13473 0.0
C993 C 0.60854 0.59897 0.11544 0.0
N994 N 0.57632 0.58726 0.08543 0.0
C995 C 0.5988 0.59206 0.09078 0.0
H996 H 0.6094 0.58998 0.07619 0.0
C997 C 0.51318 0.58781 0.06563 0.0
N998 N 0.53381 0.58534 0.07302 0.0
C999 C 0.49892 0.5937 0.08323 0.0
C1000 C 0.50608 0.59774 0.10853 0.0
H1001 H 0.50745 0.58465 0.04612 0.0
H1002 H 0.56521 0.60868 0.16714 0.0
H1003 H 0.51551 0.50241 0.97835 0.0
H1004 H 0.60284 0.60731 0.15382 0.0
H1005 H 0.62628 0.60202 0.11953 0.0
H1006 H 0.52595 0.60692 0.15563 0.0
H1007 H 0.61761 0.50897 0.01023 0.0
H1008 H 0.52303 0.4843 0.90098 0.0
H1009 H 0.49913 0.48997 0.93477 0.0
H1010 H 0.6001 0.48502 0.90062 0.0
H1011 H 0.48241 0.59507 0.07726 0.0
H1012 H 0.49504 0.6024 0.12214 0.0
H1013 H 0.56088 0.48285 0.88839 0.0
H1014 H 0.64306 0.4986 0.97964 0.0
N1015 N 0.54871 0.50496 0.96965 0.0
C1016 C 0.53039 0.48992 0.92016 0.0
C1017 C 0.51684 0.49303 0.93916 0.0
C1018 C 0.55315 0.49315 0.9262 0.0
C1019 C 0.56189 0.50055 0.95147 0.0
C1020 C 0.52628 0.50017 0.96394 0.0
N1021 N 0.59125 0.50732 0.98288 0.0
C1022 C 0.58388 0.50173 0.95831 0.0
C1023 C 0.6265 0.49956 0.97337 0.0
C1024 C 0.61952 0.495 0.94797 0.0
C1025 C 0.612 0.50546 0.99067 0.0
C1026 C 0.59786 0.49563 0.94014 0.0
H1027 H 0.63077 0.49036 0.9346 0.0
O1028 O 0.57597 0.48809 0.02559 0.0
O1029 O 0.56857 0.54019 0.04994 0.0
O1030 O 0.59333 0.57803 0.03378 0.0
O1031 O 0.59236 0.54661 0.99947 0.0
O1032 O 0.595 0.52537 0.04069 0.0
O1033 O 0.54305 0.48165 0.00624 0.0
O1034 O 0.54784 0.60499 0.0313 0.0
O1035 O 0.5557 0.55223 1.00534 0.0
O1036 O 0.53105 0.51428 0.0213 0.0
O1037 O 0.53191 0.54605 0.05536 0.0
O1038 O 0.52946 0.56733 0.01454 0.0
O1039 O 0.58166 0.61026 0.04771 0.0
C1040 C 0.58722 0.5375 0.05893 0.0
C1041 C 0.58956 0.48953 0.91487 0.0
C1042 C 0.56724 0.4883 0.90791 0.0
C1043 C 0.55709 0.47232 0.01768 0.0
C1044 C 0.55802 0.44686 0.0073 0.0
C1045 C 0.5655 0.44 0.98416 0.0
C1046 C 0.5521 0.42932 0.02194 0.0
C1047 C 0.55427 0.40484 0.01422 0.0
C1048 C 0.56719 0.41543 0.97593 0.0
C1049 C 0.56175 0.39791 0.99091 0.0
C1050 C 0.60177 0.56857 0.01378 0.0
C1051 C 0.53707 0.55494 0.99633 0.0
C1052 C 0.56712 0.6203 0.03816 0.0
C1053 C 0.56729 0.6457 0.05004 0.0
C1054 C 0.56396 0.65256 0.07506 0.0
C1055 C 0.57161 0.66359 0.03559 0.0
C1056 C 0.57326 0.68873 0.0459 0.0
C1057 C 0.56504 0.67759 0.08543 0.0
C1058 C 0.56972 0.69569 0.07095 0.0
C1059 C 0.52254 0.52409 0.04109 0.0
H1060 H 0.57013 0.45354 0.97267 0.0
H1061 H 0.54589 0.43496 0.03957 0.0
H1062 H 0.57305 0.41004 0.9581 0.0
H1063 H 0.56378 0.37917 0.98448 0.0
H1064 H 0.56067 0.63874 0.08647 0.0
H1065 H 0.57369 0.65778 0.01611 0.0
H1066 H 0.56248 0.683 0.10475 0.0
H1067 H 0.5709 0.71505 0.07939 0.0
Gd1068 Gd 0.78886 0.27686 0.28373 0.0
Gd1069 Gd 0.83679 0.31566 0.26795 0.0
C1070 C 0.83561 0.38547 0.23748 0.0
C1071 C 0.84616 0.37434 0.19588 0.0
C1072 C 0.84386 0.34516 0.22365 0.0
C1073 C 0.83726 0.36192 0.24176 0.0
C1074 C 0.84879 0.3514 0.20067 0.0
C1075 C 0.8396 0.39135 0.21426 0.0
C1076 C 0.83071 0.40273 0.25692 0.0
C1077 C 0.82836 0.39664 0.28018 0.0
N1078 N 0.83374 0.3558 0.26409 0.0
C1079 C 0.8302 0.37309 0.28353 0.0
H1080 H 0.82838 0.3687 0.30164 0.0
C1081 C 0.85536 0.30747 0.21268 0.0
N1082 N 0.84646 0.32325 0.22895 0.0
C1083 C 0.86034 0.31278 0.18961 0.0
C1084 C 0.85678 0.33469 0.18343 0.0
H1085 H 0.85835 0.29051 0.21706 0.0
H1086 H 0.8382 0.40925 0.21054 0.0
H1087 H 0.797 0.22371 0.25058 0.0
H1088 H 0.82929 0.42101 0.25437 0.0
H1089 H 0.82504 0.41003 0.29551 0.0
H1090 H 0.84968 0.37936 0.17825 0.0
H1091 H 0.76505 0.30068 0.333 0.0
H1092 H 0.79723 0.17201 0.29834 0.0
H1093 H 0.80091 0.18261 0.25696 0.0
H1094 H 0.77524 0.2133 0.37367 0.0
H1095 H 0.86694 0.29997 0.17661 0.0
H1096 H 0.86074 0.33879 0.16557 0.0
H1097 H 0.78795 0.18382 0.34207 0.0
H1098 H 0.75529 0.29104 0.37311 0.0
N1099 N 0.79227 0.23694 0.28818 0.0
C1100 C 0.79567 0.1902 0.29567 0.0
C1101 C 0.79767 0.19607 0.27228 0.0
C1102 C 0.79066 0.20747 0.31501 0.0
C1103 C 0.78884 0.23091 0.31054 0.0
C1104 C 0.7955 0.21948 0.26876 0.0
N1105 N 0.77845 0.26885 0.32237 0.0
C1106 C 0.78156 0.24735 0.32819 0.0
C1107 C 0.7628 0.27865 0.36072 0.0
C1108 C 0.76697 0.25724 0.3675 0.0
C1109 C 0.76845 0.28407 0.33788 0.0
C1110 C 0.77609 0.24104 0.35099 0.0
H1111 H 0.76251 0.25304 0.38519 0.0
O1112 O 0.7547 0.28001 0.28089 0.0
O1113 O 0.80023 0.31284 0.27012 0.0
O1114 O 0.83055 0.32746 0.30755 0.0
O1115 O 0.81071 0.29267 0.31977 0.0
O1116 O 0.77968 0.31364 0.29758 0.0
O1117 O 0.76398 0.24897 0.25778 0.0
O1118 O 0.86985 0.30995 0.27407 0.0
O1119 O 0.82547 0.27963 0.28172 0.0
O1120 O 0.79523 0.26526 0.2436 0.0
O1121 O 0.81419 0.30124 0.23272 0.0
O1122 O 0.84527 0.27874 0.2533 0.0
O1123 O 0.86323 0.34562 0.28954 0.0
C1124 C 0.78968 0.32698 0.2833 0.0
C1125 C 0.77914 0.21838 0.35616 0.0
C1126 C 0.78641 0.20161 0.33819 0.0
C1127 C 0.74784 0.25892 0.26502 0.0
C1128 C 0.72792 0.24216 0.27025 0.0
C1129 C 0.729 0.22195 0.28149 0.0
C1130 C 0.70733 0.24661 0.26365 0.0
C1131 C 0.68776 0.23072 0.26766 0.0
C1132 C 0.70953 0.20616 0.28571 0.0
C1133 C 0.68894 0.21036 0.27864 0.0
C1134 C 0.82409 0.31511 0.32491 0.0
C1135 C 0.83566 0.26546 0.26792 0.0
C1136 C 0.87818 0.33279 0.28581 0.0
C1137 C 0.89916 0.34486 0.27803 0.0
C1138 C 0.90033 0.36156 0.2619 0.0
C1139 C 0.91829 0.33807 0.28593 0.0
C1140 C 0.93866 0.34727 0.27749 0.0
C1141 C 0.92061 0.37125 0.25378 0.0
C1142 C 0.9397 0.36413 0.26144 0.0
C1143 C 0.80189 0.27832 0.22673 0.0
H1144 H 0.74477 0.21824 0.28678 0.0
H1145 H 0.70654 0.26211 0.25474 0.0
H1146 H 0.71039 0.19051 0.29427 0.0
H1147 H 0.67398 0.1978 0.28177 0.0
H1148 H 0.88566 0.36694 0.25548 0.0
H1149 H 0.91719 0.32539 0.29866 0.0
H1150 H 0.9215 0.38407 0.24127 0.0
H1151 H 0.95513 0.37145 0.25447 0.0
Gd1152 Gd 0.0569 0.55396 0.501 0.0
Gd1153 Gd 0.08135 0.54158 0.55973 0.0
C1154 C 0.14683 0.59483 0.59946 0.0
C1155 C 0.17338 0.56961 0.5899 0.0
C1156 C 0.13429 0.55303 0.57445 0.0
C1157 C 0.12951 0.57512 0.58581 0.0
C1158 C 0.15624 0.54988 0.57693 0.0
C1159 C 0.16869 0.59204 0.60112 0.0
C1160 C 0.14183 0.61691 0.6111 0.0
C1161 C 0.11998 0.61877 0.60986 0.0
N1162 N 0.1081 0.57734 0.58386 0.0
C1163 C 0.10333 0.59877 0.59668 0.0
H1164 H 0.08688 0.60129 0.59798 0.0
C1165 C 0.1212 0.51077 0.55486 0.0
N1166 N 0.11748 0.53417 0.56194 0.0
C1167 C 0.14257 0.50688 0.55642 0.0
C1168 C 0.16029 0.5267 0.56702 0.0
H1169 H 0.1077 0.49471 0.54822 0.0
H1170 H 0.18208 0.60707 0.61129 0.0
H1171 H 0.04755 0.48985 0.47677 0.0
H1172 H 0.15466 0.63243 0.62153 0.0
H1173 H 0.11581 0.63556 0.61948 0.0
H1174 H 0.19028 0.56756 0.5917 0.0
H1175 H 0.03286 0.60308 0.51084 0.0
H1176 H 0.97959 0.46203 0.45106 0.0
H1177 H 0.01737 0.45578 0.45683 0.0
H1178 H 0.94792 0.53201 0.47258 0.0
H1179 H 0.14527 0.48844 0.54995 0.0
H1180 H 0.17686 0.52361 0.56852 0.0
H1181 H 0.95394 0.49029 0.45741 0.0
H1182 H 0.99603 0.61133 0.50827 0.0
N1183 N 0.02841 0.5176 0.48257 0.0
C1184 C 0.99308 0.47769 0.45978 0.0
C1185 C 0.01434 0.47411 0.46302 0.0
C1186 C 0.98938 0.50133 0.46816 0.0
C1187 C 0.00753 0.52121 0.47952 0.0
C1188 C 0.03176 0.49414 0.4745 0.0
N1189 N 0.02155 0.56343 0.49949 0.0
C1190 C 1.00402 0.54466 0.48841 0.0
C1191 C 0.9979 0.59238 0.50309 0.0
C1192 C 0.97953 0.57294 0.49369 0.0
C1193 C 0.01885 0.58739 0.50515 0.0
C1194 C 0.98246 0.54886 0.48565 0.0
H1195 H 0.96329 0.57686 0.49191 0.0
O1196 O 0.06376 0.58966 0.48989 0.0
O1197 O 0.08492 0.56484 0.53146 0.0
O1198 O 0.06287 0.57118 0.5717 0.0
O1199 O 0.05334 0.58239 0.53424 0.0
O1200 O 0.093 0.56461 0.4954 0.0
O1201 O 0.05579 0.55432 0.46166 0.0
O1202 O 0.07313 0.50357 0.5651 0.0
O1203 O 0.05316 0.53042 0.52927 0.0
O1204 O 0.07515 0.52521 0.48767 0.0
O1205 O 0.08788 0.51618 0.52515 0.0
O1206 O 0.0456 0.5349 0.5662 0.0
O1207 O 0.08159 0.53452 0.59708 0.0
C1208 C 0.10068 0.56937 0.51849 0.0
C1209 C 0.96452 0.5291 0.47461 0.0
C1210 C 0.96797 0.5054 0.46588 0.0
C1211 C 0.06081 0.57875 0.46643 0.0
C1212 C 0.06302 0.59294 0.44674 0.0
C1213 C 0.05708 0.61591 0.44959 0.0
C1214 C 0.07313 0.58454 0.42597 0.0
C1215 C 0.07818 0.59936 0.40835 0.0
C1216 C 0.06131 0.63035 0.43162 0.0
C1217 C 0.07194 0.62224 0.41114 0.0
C1218 C 0.05479 0.58541 0.55869 0.0
C1219 C 0.0377 0.52843 0.5431 0.0
C1220 C 0.07339 0.51054 0.58909 0.0
C1221 C 0.05332 0.49912 0.59935 0.0
C1222 C 0.04478 0.47319 0.59282 0.0
C1223 C 0.04167 0.51399 0.61411 0.0
C1224 C 0.0217 0.50318 0.62236 0.0
C1225 C 0.02482 0.46234 0.60079 0.0
C1226 C 0.01329 0.47721 0.61547 0.0
C1227 C 0.08544 0.5127 0.50059 0.0
H1228 H 0.04941 0.62274 0.46576 0.0
H1229 H 0.07775 0.56678 0.42399 0.0
H1230 H 0.05678 0.64812 0.43386 0.0
H1231 H 0.0758 0.63415 0.3979 0.0
H1232 H 0.05341 0.4614 0.58123 0.0
H1233 H 0.04786 0.53408 0.6188 0.0
H1234 H 0.01829 0.44235 0.59561 0.0
H1235 H 0.99807 0.46832 0.62186 0.0
Gd1236 Gd 0.83988 0.78723 0.27999 0.0
Gd1237 Gd 0.78497 0.8012 0.26931 0.0
C1238 C 0.75383 0.79594 0.19038 0.0
C1239 C 0.75342 0.83914 0.19055 0.0
C1240 C 0.76758 0.82759 0.2277 0.0
C1241 C 0.76369 0.80311 0.21524 0.0
C1242 C 0.76175 0.84577 0.21583 0.0
C1243 C 0.74949 0.81423 0.17782 0.0
C1244 C 0.74758 0.77053 0.17935 0.0
C1245 C 0.7501 0.75299 0.19353 0.0
N1246 N 0.76756 0.78596 0.22822 0.0
C1247 C 0.75977 0.76107 0.2182 0.0
H1248 H 0.76163 0.7472 0.22873 0.0
C1249 C 0.77531 0.8559 0.26651 0.0
N1250 N 0.77508 0.8331 0.25218 0.0
C1251 C 0.76981 0.87464 0.2556 0.0
C1252 C 0.76342 0.8697 0.23003 0.0
H1253 H 0.78043 0.85986 0.28626 0.0
H1254 H 0.74222 0.80915 0.15861 0.0
H1255 H 0.86487 0.84164 0.3194 0.0
H1256 H 0.74001 0.76423 0.16028 0.0
H1257 H 0.74469 0.73325 0.18546 0.0
H1258 H 0.74912 0.8529 0.18098 0.0
H1259 H 0.84339 0.72807 0.26401 0.0
H1260 H 0.88694 0.8256 0.38811 0.0
H1261 H 0.88271 0.8561 0.3622 0.0
H1262 H 0.87575 0.73667 0.36929 0.0
H1263 H 0.77058 0.89287 0.2669 0.0
H1264 H 0.75905 0.88419 0.22163 0.0
H1265 H 0.88373 0.78078 0.39079 0.0
H1266 H 0.85277 0.69524 0.284 0.0
N1267 N 0.85807 0.80302 0.32074 0.0
C1268 C 0.879 0.81906 0.36921 0.0
C1269 C 0.87673 0.83631 0.35461 0.0
C1270 C 0.87205 0.79355 0.35876 0.0
C1271 C 0.86178 0.78607 0.33407 0.0
C1272 C 0.8665 0.82793 0.33019 0.0
N1273 N 0.84963 0.75554 0.29764 0.0
C1274 C 0.8574 0.76141 0.32205 0.0
C1275 C 0.85402 0.71374 0.29498 0.0
C1276 C 0.86073 0.7191 0.3205 0.0
C1277 C 0.84881 0.73238 0.28371 0.0
C1278 C 0.86299 0.74334 0.33427 0.0
H1279 H 0.86487 0.70468 0.32918 0.0
O1280 O 0.862 0.77384 0.25431 0.0
O1281 O 0.81365 0.79023 0.25198 0.0
O1282 O 0.78165 0.75956 0.26912 0.0
O1283 O 0.81429 0.75452 0.28869 0.0
O1284 O 0.82757 0.75959 0.24428 0.0
O1285 O 0.8703 0.81209 0.27417 0.0
O1286 O 0.76298 0.8136 0.29566 0.0
O1287 O 0.81121 0.79808 0.29698 0.0
O1288 O 0.84316 0.82886 0.28041 0.0
O1289 O 0.81043 0.83466 0.26175 0.0
O1290 O 0.7969 0.82829 0.30565 0.0
O1291 O 0.75385 0.77637 0.27327 0.0
C1292 C 0.81363 0.7708 0.23603 0.0
C1293 C 0.87164 0.75033 0.35945 0.0
C1294 C 0.87616 0.77544 0.37169 0.0
C1295 C 0.87684 0.79487 0.25921 0.0
C1296 C 0.89999 0.7934 0.26461 0.0
C1297 C 0.90701 0.78898 0.28767 0.0
C1298 C 0.91524 0.79662 0.2469 0.0
C1299 C 0.93745 0.79533 0.25227 0.0
C1300 C 0.92887 0.78787 0.29318 0.0
C1301 C 0.94397 0.79108 0.27575 0.0
C1302 C 0.79302 0.74594 0.27964 0.0
C1303 C 0.81113 0.81712 0.31334 0.0
C1304 C 0.74765 0.79302 0.28932 0.0
C1305 C 0.72484 0.79573 0.28434 0.0
C1306 C 0.71827 0.80178 0.26192 0.0
C1307 C 0.70949 0.79229 0.3019 0.0
C1308 C 0.68767 0.79507 0.29706 0.0
C1309 C 0.6968 0.80442 0.25696 0.0
C1310 C 0.68161 0.80107 0.27428 0.0
C1311 C 0.83177 0.84291 0.27059 0.0
H1312 H 0.89563 0.78653 0.30149 0.0
H1313 H 0.90973 0.79981 0.22898 0.0
H1314 H 0.93417 0.78463 0.31112 0.0
H1315 H 0.96092 0.79057 0.28088 0.0
H1316 H 0.72971 0.80436 0.24818 0.0
H1317 H 0.71462 0.78779 0.31933 0.0
H1318 H 0.69186 0.80897 0.23952 0.0
H1319 H 0.66495 0.80282 0.26961 0.0
Gd1320 Gd 0.80153 0.31097 0.80136 0.0
Gd1321 Gd 0.82214 0.27753 0.74546 0.0
C1322 C 0.79037 0.21051 0.68274 0.0
C1323 C 0.79588 0.1754 0.70004 0.0
C1324 C 0.80944 0.21789 0.72423 0.0
C1325 C 0.80114 0.22697 0.70494 0.0
C1326 C 0.80726 0.1919 0.7217 0.0
C1327 C 0.78738 0.18468 0.68063 0.0
C1328 C 0.78344 0.22052 0.66303 0.0
C1329 C 0.78815 0.24634 0.66532 0.0
N1330 N 0.80445 0.25197 0.70738 0.0
C1331 C 0.79914 0.26184 0.68754 0.0
H1332 H 0.80311 0.28184 0.68909 0.0
C1333 C 0.82935 0.22559 0.76392 0.0
N1334 N 0.81987 0.23437 0.74526 0.0
C1335 C 0.82785 0.20011 0.76201 0.0
C1336 C 0.81662 0.18316 0.74093 0.0
H1337 H 0.83755 0.2375 0.78103 0.0
H1338 H 0.77897 0.17176 0.66383 0.0
H1339 H 0.83145 0.32029 0.85749 0.0
H1340 H 0.77505 0.2085 0.64574 0.0
H1341 H 0.78345 0.25432 0.64996 0.0
H1342 H 0.7938 0.15543 0.69801 0.0
H1343 H 0.77117 0.34313 0.77123 0.0
H1344 H 0.87214 0.39446 0.87429 0.0
H1345 H 0.86134 0.35255 0.8841 0.0
H1346 H 0.83917 0.43388 0.81709 0.0
H1347 H 0.83513 0.19354 0.77708 0.0
H1348 H 0.81528 0.16339 0.73969 0.0
H1349 H 0.86376 0.42473 0.84903 0.0
H1350 H 0.7742 0.38512 0.76451 0.0
N1351 N 0.82754 0.34227 0.83067 0.0
C1352 C 0.85946 0.38007 0.86212 0.0
C1353 C 0.85344 0.35647 0.8677 0.0
C1354 C 0.84782 0.38531 0.84201 0.0
C1355 C 0.83152 0.36582 0.82664 0.0
C1356 C 0.83678 0.33806 0.85226 0.0
N1357 N 0.80151 0.35191 0.79533 0.0
C1358 C 0.81777 0.37092 0.80872 0.0
C1359 C 0.78681 0.38137 0.77673 0.0
C1360 C 0.80436 0.40069 0.78901 0.0
C1361 C 0.78545 0.35715 0.78036 0.0
C1362 C 0.81988 0.39572 0.80561 0.0
H1363 H 0.80539 0.41945 0.78613 0.0
O1364 O 0.7668 0.30983 0.80511 0.0
O1365 O 0.79956 0.27592 0.77456 0.0
O1366 O 0.78782 0.28172 0.73239 0.0
O1367 O 0.77599 0.30371 0.76759 0.0
O1368 O 0.79596 0.27257 0.81083 0.0
O1369 O 0.78944 0.31264 0.83751 0.0
O1370 O 0.85796 0.29092 0.75217 0.0
O1371 O 0.82279 0.31338 0.77073 0.0
O1372 O 0.83268 0.30018 0.81471 0.0
O1373 O 0.84456 0.27813 0.77967 0.0
O1374 O 0.81977 0.31276 0.73289 0.0
O1375 O 0.84217 0.27858 0.71461 0.0
C1376 C 0.79563 0.26055 0.78838 0.0
C1377 C 0.83704 0.41486 0.81962 0.0
C1378 C 0.85108 0.40964 0.83772 0.0
C1379 C 0.76881 0.30848 0.82844 0.0
C1380 C 0.75302 0.28789 0.83551 0.0
C1381 C 0.7303 0.28367 0.828 0.0
C1382 C 0.76046 0.27198 0.84922 0.0
C1383 C 0.74545 0.25204 0.85541 0.0
C1384 C 0.7153 0.26378 0.83399 0.0
C1385 C 0.72277 0.24802 0.84761 0.0
C1386 C 0.7733 0.29299 0.74358 0.0
C1387 C 0.82225 0.32672 0.75483 0.0
C1388 C 0.86016 0.29081 0.72889 0.0
C1389 C 0.87158 0.31482 0.72344 0.0
C1390 C 0.89137 0.32883 0.73768 0.0
C1391 C 0.86176 0.32493 0.70546 0.0
C1392 C 0.87134 0.34875 0.70166 0.0
C1393 C 0.90098 0.35268 0.7341 0.0
C1394 C 0.89101 0.36269 0.71625 0.0
C1395 C 0.84655 0.28784 0.80381 0.0
H1396 H 0.72419 0.29567 0.81739 0.0
H1397 H 0.77798 0.27486 0.85486 0.0
H1398 H 0.69779 0.26064 0.82816 0.0
H1399 H 0.71078 0.23301 0.85242 0.0
H1400 H 0.89913 0.32154 0.75189 0.0
H1401 H 0.84619 0.31454 0.69482 0.0
H1402 H 0.91614 0.36348 0.74527 0.0
H1403 H 0.89885 0.3811 0.71362 0.0
Gd1404 Gd 0.78598 0.76613 0.75763 0.0
Gd1405 Gd 0.83352 0.81948 0.78933 0.0
C1406 C 0.90853 0.82691 0.79267 0.0
C1407 C 0.91887 0.83056 0.83671 0.0
C1408 C 0.88038 0.82565 0.82098 0.0
C1409 C 0.88611 0.82422 0.79709 0.0
C1410 C 0.8968 0.82967 0.8412 0.0
C1411 C 0.92474 0.82918 0.81246 0.0
C1412 C 0.91419 0.8287 0.76883 0.0
C1413 C 0.89783 0.82885 0.75041 0.0
N1414 N 0.87009 0.82257 0.77854 0.0
C1415 C 0.87584 0.82595 0.75563 0.0
H1416 H 0.86362 0.82628 0.74105 0.0
C1417 C 0.85338 0.83122 0.84831 0.0
N1418 N 0.85905 0.82542 0.82469 0.0
C1419 C 0.86902 0.83524 0.86894 0.0
C1420 C 0.89074 0.83398 0.86537 0.0
H1421 H 0.83667 0.83228 0.85144 0.0
H1422 H 0.94198 0.83095 0.80935 0.0
H1423 H 0.77034 0.75229 0.81324 0.0
H1424 H 0.93121 0.83091 0.7647 0.0
H1425 H 0.9021 0.83109 0.7321 0.0
H1426 H 0.93166 0.83335 0.85196 0.0
H1427 H 0.76658 0.76709 0.69981 0.0
H1428 H 0.70213 0.75103 0.81515 0.0
H1429 H 0.73735 0.74616 0.83444 0.0
H1430 H 0.68008 0.76783 0.73674 0.0
H1431 H 0.86428 0.8393 0.88757 0.0
H1432 H 0.90287 0.83726 0.88139 0.0
H1433 H 0.68117 0.75995 0.77912 0.0
H1434 H 0.73253 0.77051 0.67693 0.0
N1435 N 0.7551 0.7613 0.78122 0.0
C1436 C 0.71677 0.75373 0.80541 0.0
C1437 C 0.7366 0.75102 0.81635 0.0
C1438 C 0.716 0.75967 0.78193 0.0
C1439 C 0.73557 0.76307 0.77 0.0
C1440 C 0.75557 0.75471 0.80397 0.0
N1441 N 0.75368 0.76949 0.73476 0.0
C1442 C 0.73496 0.76774 0.74626 0.0
C1443 C 0.73305 0.77032 0.69657 0.0
C1444 C 0.7142 0.77088 0.70877 0.0
C1445 C 0.75249 0.76889 0.70973 0.0
C1446 C 0.71478 0.76883 0.7337 0.0
H1447 H 0.69903 0.77167 0.69849 0.0
O1448 O 0.77909 0.736 0.72518 0.0
O1449 O 0.82215 0.78121 0.76609 0.0
O1450 O 0.82624 0.81958 0.74862 0.0
O1451 O 0.78951 0.79726 0.73646 0.0
O1452 O 0.81115 0.75949 0.7308 0.0
O1453 O 0.77885 0.72781 0.76216 0.0
O1454 O 0.82862 0.85431 0.81004 0.0
O1455 O 0.79706 0.80414 0.78071 0.0
O1456 O 0.80141 0.76017 0.79404 0.0
O1457 O 0.83529 0.7888 0.80986 0.0
O1458 O 0.80868 0.82364 0.81675 0.0
O1459 O 0.84257 0.85315 0.77478 0.0
C1460 C 0.8283 0.7712 0.74617 0.0
C1461 C 0.69561 0.7667 0.74598 0.0
C1462 C 0.69621 0.76208 0.77004 0.0
C1463 C 0.7794 0.71918 0.73847 0.0
C1464 C 0.79522 0.70368 0.73197 0.0
C1465 C 0.79748 0.69474 0.70688 0.0
C1466 C 0.80998 0.70032 0.75059 0.0
C1467 C 0.82707 0.68864 0.74434 0.0
C1468 C 0.81463 0.68314 0.70058 0.0
C1469 C 0.82951 0.68023 0.71922 0.0
C1470 C 0.80776 0.81306 0.73326 0.0
C1471 C 0.7914 0.81186 0.80169 0.0
C1472 C 0.83715 0.86694 0.79408 0.0
C1473 C 0.85229 0.89101 0.80433 0.0
C1474 C 0.87164 0.89385 0.8202 0.0
C1475 C 0.84593 0.9119 0.79927 0.0
C1476 C 0.85817 0.93583 0.81053 0.0
C1477 C 0.8842 0.91787 0.83125 0.0
C1478 C 0.8773 0.93894 0.82674 0.0
C1479 C 0.81951 0.76875 0.81032 0.0
H1480 H 0.78638 0.69737 0.69217 0.0
H1481 H 0.80865 0.70732 0.77004 0.0
H1482 H 0.81645 0.67653 0.68123 0.0
H1483 H 0.84257 0.67094 0.71407 0.0
H1484 H 0.87675 0.87771 0.82436 0.0
H1485 H 0.83068 0.90956 0.78737 0.0
H1486 H 0.89899 0.92015 0.84373 0.0
H1487 H 0.88663 0.95744 0.83597 0.0
Gd1488 Gd 0.58427 0.56639 0.54051 0.0
Gd1489 Gd 0.5339 0.5231 0.51006 0.0
C1490 C 0.52198 0.43848 0.50137 0.0
C1491 C 0.51919 0.42444 0.45652 0.0
C1492 C 0.52542 0.46863 0.47492 0.0
C1493 C 0.52566 0.46341 0.49839 0.0
C1494 C 0.52149 0.44917 0.45365 0.0
C1495 C 0.51945 0.41911 0.48036 0.0
C1496 C 0.51997 0.43368 0.52524 0.0
C1497 C 0.52061 0.45338 0.54517 0.0
N1498 N 0.52771 0.48254 0.51818 0.0
C1499 C 0.52411 0.47774 0.54121 0.0
H1500 H 0.52459 0.49267 0.55687 0.0
C1501 C 0.52336 0.49822 0.45007 0.0
N1502 N 0.52714 0.49261 0.47286 0.0
C1503 C 0.51957 0.47961 0.42843 0.0
C1504 C 0.519 0.45501 0.43018 0.0
H1505 H 0.52381 0.51719 0.4485 0.0
H1506 H 0.51688 0.39987 0.48231 0.0
H1507 H 0.59398 0.5958 0.4928 0.0
H1508 H 0.51719 0.41481 0.52833 0.0
H1509 H 0.51849 0.44984 0.56362 0.0
H1510 H 0.51641 0.40925 0.44042 0.0
H1511 H 0.59377 0.57317 0.60216 0.0
H1512 H 0.60347 0.67408 0.52019 0.0
H1513 H 0.60111 0.63832 0.48535 0.0
H1514 H 0.60435 0.68134 0.60831 0.0
H1515 H 0.5171 0.48426 0.41042 0.0
H1516 H 0.51591 0.44059 0.4134 0.0
H1517 H 0.60425 0.68994 0.56611 0.0
H1518 H 0.60101 0.6067 0.63981 0.0
N1519 N 0.59136 0.60672 0.53157 0.0
C1520 C 0.60026 0.65532 0.52363 0.0
C1521 C 0.59901 0.63521 0.50395 0.0
C1522 C 0.59826 0.65104 0.54767 0.0
C1523 C 0.59402 0.62623 0.5511 0.0
C1524 C 0.59494 0.61098 0.50834 0.0
N1525 N 0.59165 0.59751 0.57723 0.0
C1526 C 0.59412 0.62145 0.57474 0.0
C1527 C 0.59896 0.61111 0.62163 0.0
C1528 C 0.60038 0.63574 0.61941 0.0
C1529 C 0.59489 0.59217 0.60024 0.0
C1530 C 0.59837 0.64125 0.59574 0.0
H1531 H 0.60367 0.65042 0.636 0.0
O1532 O 0.61333 0.55951 0.55904 0.0
O1533 O 0.56702 0.52592 0.5292 0.0
O1534 O 0.53125 0.53516 0.55242 0.0
O1535 O 0.55789 0.57217 0.56716 0.0
O1536 O 0.58286 0.53821 0.56492 0.0
O1537 O 0.61501 0.57136 0.52368 0.0
O1538 O 0.50457 0.53002 0.49201 0.0
O1539 O 0.55114 0.56351 0.52147 0.0
O1540 O 0.58705 0.55419 0.49825 0.0
O1541 O 0.56026 0.51735 0.48339 0.0
O1542 O 0.53507 0.55141 0.48587 0.0
O1543 O 0.50291 0.51645 0.52634 0.0
C1544 C 0.57183 0.51888 0.54907 0.0
C1545 C 0.60131 0.66589 0.59242 0.0
C1546 C 0.60125 0.67079 0.5684 0.0
C1547 C 0.62564 0.56542 0.54188 0.0
C1548 C 0.64822 0.57973 0.5501 0.0
C1549 C 0.65344 0.60396 0.56467 0.0
C1550 C 0.66493 0.5676 0.544 0.0
C1551 C 0.68699 0.57865 0.55344 0.0
C1552 C 0.67561 0.61572 0.57325 0.0
C1553 C 0.69237 0.60308 0.56784 0.0
C1554 C 0.53983 0.55556 0.57006 0.0
C1555 C 0.54632 0.57063 0.50168 0.0
C1556 C 0.49203 0.52233 0.5083 0.0
C1557 C 0.47042 0.50588 0.49855 0.0
C1558 C 0.46805 0.4822 0.48337 0.0
C1559 C 0.45171 0.51469 0.50419 0.0
C1560 C 0.43053 0.50027 0.49452 0.0
C1561 C 0.44693 0.46769 0.47364 0.0
C1562 C 0.42817 0.47674 0.479 0.0
C1563 C 0.57846 0.53383 0.4806 0.0
H1564 H 0.64052 0.61356 0.56954 0.0
H1565 H 0.66053 0.54903 0.53225 0.0
H1566 H 0.67975 0.63442 0.58457 0.0
H1567 H 0.70931 0.6121 0.57541 0.0
H1568 H 0.4824 0.47508 0.4789 0.0
H1569 H 0.45371 0.5332 0.51565 0.0
H1570 H 0.4451 0.44948 0.46178 0.0
H1571 H 0.41191 0.46542 0.47119 0.0
Gd1572 Gd 0.03657 0.53963 0.03583 0.0
Gd1573 Gd 0.09159 0.55405 0.01415 0.0
C1574 C 0.13137 0.63259 0.01382 0.0
C1575 C 0.13289 0.63127 0.96961 0.0
C1576 C 0.11381 0.59472 0.98391 0.0
C1577 C 0.11889 0.60766 0.00828 0.0
C1578 C 0.12118 0.60616 0.9643 0.0
C1579 C 0.13794 0.64448 0.99433 0.0
C1580 C 0.13738 0.64459 0.03878 0.0
C1581 C 0.13162 0.63144 0.05744 0.0
N1582 N 0.11258 0.59547 0.02662 0.0
C1583 C 0.11944 0.60665 0.05098 0.0
H1584 H 0.11515 0.59678 0.06564 0.0
C1585 C 0.09968 0.556 0.95604 0.0
N1586 N 0.10277 0.57042 0.97951 0.0
C1587 C 0.10654 0.56653 0.93594 0.0
C1588 C 0.11712 0.59181 0.94004 0.0
H1589 H 0.09153 0.53645 0.95267 0.0
H1590 H 0.1474 0.66369 0.99821 0.0
H1591 H 0.01205 0.49774 0.98426 0.0
H1592 H 0.14688 0.66377 0.04383 0.0
H1593 H 0.13653 0.64038 0.0768 0.0
H1594 H 0.13854 0.64047 0.95479 0.0
H1595 H 0.03878 0.55614 0.0977 0.0
H1596 H 0.98086 0.4302 1.00554 0.0
H1597 H 0.9904 0.4542 0.97283 0.0
H1598 H 0.9915 0.45197 0.09465 0.0
H1599 H 0.10369 0.55514 0.91732 0.0
H1600 H 0.12253 0.59989 0.92446 0.0
H1601 H 0.9815 0.42949 0.05108 0.0
H1602 H 0.02763 0.53671 0.13298 0.0
N1603 N 0.01554 0.49831 0.02311 0.0
C1604 C 0.99048 0.44933 0.01069 0.0
C1605 C 0.99577 0.46283 0.99218 0.0
C1606 C 0.9971 0.46092 0.03568 0.0
C1607 C 0.00969 0.4858 0.04136 0.0
C1608 C 0.00809 0.48755 0.99878 0.0
N1609 N 0.02649 0.52266 0.07045 0.0
C1610 C 0.01534 0.49838 0.06583 0.0
C1611 C 0.02415 0.52569 0.1142 0.0
C1612 C 0.01336 0.50045 0.10982 0.0
C1613 C 0.03041 0.53664 0.09416 0.0
C1614 C 0.00856 0.48654 0.08538 0.0
H1615 H 0.00843 0.49204 0.12537 0.0
O1616 O 0.01597 0.56375 0.05172 0.0
O1617 O 0.06456 0.56985 0.03037 0.0
O1618 O 0.092 0.5549 0.05541 0.0
O1619 O 0.05992 0.52682 0.06011 0.0
O1620 O 0.05021 0.57656 0.06277 0.0
O1621 O 0.0063 0.54039 0.01471 0.0
O1622 O 0.11134 0.52832 0.99973 0.0
O1623 O 0.06337 0.52405 0.01931 0.0
O1624 O 0.03558 0.53991 0.99479 0.0
O1625 O 0.06862 0.56595 0.98846 0.0
O1626 O 0.07768 0.51725 0.98695 0.0
O1627 O 0.12186 0.55351 0.03557 0.0
C1628 C 0.06493 0.58619 0.04978 0.0
C1629 C 0.99673 0.46146 0.07988 0.0
C1630 C 0.99103 0.44867 0.05507 0.0
C1631 C 1.00093 0.55607 0.03258 0.0
C1632 C 0.97795 0.55015 0.03799 0.0
C1633 C 0.96945 0.52936 0.04808 0.0
C1634 C 0.96431 0.56568 0.03281 0.0
C1635 C 0.94212 0.56073 0.0378 0.0
C1636 C 0.94738 0.5242 0.05296 0.0
C1637 C 0.93374 0.53977 0.04789 0.0
C1638 C 0.08078 0.53864 0.06721 0.0
C1639 C 0.06273 0.50781 0.99978 0.0
C1640 C 0.12668 0.53664 0.0185 0.0
C1641 C 0.14948 0.54151 0.01229 0.0
C1642 C 0.15779 0.56106 1.00044 0.0
C1643 C 0.16297 0.52595 0.01791 0.0
C1644 C 0.18476 0.52969 0.0116 0.0
C1645 C 0.17944 0.5649 0.99412 0.0
C1646 C 0.19289 0.54929 0.9996 0.0
C1647 C 0.04738 0.55525 0.98246 0.0
H1648 H 0.9798 0.5172 0.05215 0.0
H1649 H 0.97097 0.5815 0.02465 0.0
H1650 H 0.94086 0.50816 0.0608 0.0
H1651 H 0.91677 0.53564 0.05221 0.0
H1652 H 0.14759 0.57324 0.99603 0.0
H1653 H 0.15636 0.51068 0.02684 0.0
H1654 H 0.18582 0.58002 0.98498 0.0
H1655 H 0.20972 0.55273 0.99474 0.0
H1656 H 0.04194 0.20027 0.93568 0.0
H1657 H 0.03062 0.10856 0.03201 0.0
H1658 H 0.02266 0.22041 0.0092 0.0
H1659 H 0.06938 0.10039 0.97037 0.0
H1660 H 0.02521 0.14811 0.02265 0.0
H1661 H 0.04935 0.162 0.94622 0.0
C1662 C 0.03919 0.19669 0.95401 0.0
C1663 C 0.03162 0.21381 0.97154 0.0
C1664 C 0.03518 0.13789 0.01136 0.0
C1665 C 0.04006 0.1697 0.98375 0.0
C1666 C 0.03852 0.11547 0.01694 0.0
C1667 C 0.0514 0.10177 1.00271 0.0
C1668 C 0.04411 0.14634 0.99081 0.0
C1669 C 0.05998 0.11081 0.98233 0.0
C1670 C 0.04354 0.17483 0.96006 0.0
C1671 C 0.02848 0.20795 0.99503 0.0
N1672 N 0.05621 0.13243 0.97699 0.0
N1673 N 0.03258 0.18647 1.00035 0.0
H1674 H 0.16864 0.84712 0.16966 0.0
H1675 H 0.24524 0.76093 0.21239 0.0
H1676 H 0.15024 0.76666 0.15494 0.0
H1677 H 0.25985 0.84044 0.24076 0.0
H1678 H 0.21194 0.7637 0.18837 0.0
H1679 H 0.20345 0.84609 0.19305 0.0
C1680 C 0.17191 0.82927 0.17122 0.0
C1681 C 0.15634 0.80695 0.16034 0.0
C1682 C 0.22235 0.78059 0.19987 0.0
C1683 C 0.19619 0.80564 0.18695 0.0
C1684 C 0.2415 0.77903 0.21359 0.0
C1685 C 0.25539 0.80044 0.22889 0.0
C1686 C 0.21691 0.80379 0.20115 0.0
C1687 C 0.2495 0.82336 0.22955 0.0
C1688 C 0.19175 0.8287 0.18465 0.0
C1689 C 0.16155 0.78439 0.16307 0.0
N1690 N 0.23075 0.82445 0.2159 0.0
N1691 N 0.18091 0.78434 0.17597 0.0
H1692 H 0.53501 0.84735 0.4339 0.0
H1693 H 0.55291 0.97668 0.53327 0.0
H1694 H 0.52835 0.84997 0.51179 0.0
H1695 H 0.54921 0.97049 0.45388 0.0
H1696 H 0.54398 0.93081 0.52668 0.0
H1697 H 0.54105 0.89266 0.44164 0.0
C1698 C 0.53488 0.85741 0.4527 0.0
C1699 C 0.53117 0.84459 0.4722 0.0
C1700 C 0.54493 0.93949 0.5107 0.0
C1701 C 0.53812 0.89706 0.48127 0.0
C1702 C 0.54984 0.96569 0.51447 0.0
C1703 C 0.55138 0.97744 0.49405 0.0
C1704 C 0.54203 0.92496 0.48636 0.0
C1705 C 0.54795 0.96223 0.47013 0.0
C1706 C 0.53826 0.88341 0.4571 0.0
C1707 C 0.53113 0.85892 0.49614 0.0
N1708 N 0.54352 0.93694 0.46697 0.0
N1709 N 0.5346 0.88431 0.5 0.0
H1710 H 0.52074 0.3456 0.64373 0.0
H1711 H 0.46881 0.26789 0.7425 0.0
H1712 H 0.5527 0.29608 0.67572 0.0
H1713 H 0.44326 0.32791 0.7225 0.0
H1714 H 0.49778 0.27564 0.71529 0.0
H1715 H 0.49073 0.33737 0.66988 0.0
C1716 C 0.52148 0.33301 0.65626 0.0
C1717 C 0.53934 0.32155 0.65752 0.0
C1718 C 0.48585 0.28714 0.71682 0.0
C1719 C 0.50485 0.31186 0.68738 0.0
C1720 C 0.46929 0.28278 0.73246 0.0
C1721 C 0.45364 0.29749 0.73518 0.0
C1722 C 0.48684 0.30626 0.7035 0.0
C1723 C 0.45485 0.31602 0.721 0.0
C1724 C 0.50433 0.32834 0.6712 0.0
C1725 C 0.53936 0.30543 0.67416 0.0
N1726 N 0.4712 0.31993 0.70587 0.0
N1727 N 0.52238 0.30102 0.68833 0.0
H1728 H 0.03182 0.83448 0.63865 0.0
H1729 H 0.03949 0.85238 0.49943 0.0
H1730 H 0.0319 0.77349 0.57772 0.0
H1731 H 0.06481 0.91205 0.56355 0.0
H1732 H 0.03219 0.82305 0.52724 0.0
H1733 H 0.03901 0.86337 0.61049 0.0
C1734 C 0.03333 0.82717 0.61934 0.0
C1735 C 0.03134 0.80159 0.61047 0.0
C1736 C 0.03937 0.84259 0.53511 0.0
C1737 C 0.03942 0.83444 0.57826 0.0
C1738 C 0.04367 0.8593 0.51928 0.0
C1739 C 0.05271 0.88473 0.52912 0.0
C1740 C 0.04394 0.85145 0.56092 0.0
C1741 C 0.05741 0.89271 0.55508 0.0
C1742 C 0.0375 0.84366 0.60333 0.0
C1743 C 0.03347 0.79311 0.58531 0.0
N1744 N 0.05284 0.87614 0.57008 0.0
N1745 N 0.03731 0.80953 0.57 0.0
H1746 H 0.53349 0.83906 0.88977 0.0
H1747 H 0.47544 0.84934 0.75963 0.0
H1748 H 0.55979 0.8198 0.81993 0.0
H1749 H 0.44795 0.86218 0.82955 0.0
H1750 H 0.50794 0.84129 0.78134 0.0
H1751 H 0.50293 0.84952 0.86778 0.0
C1752 C 0.53278 0.83692 0.86975 0.0
C1753 C 0.54916 0.8285 0.85662 0.0
C1754 C 0.49483 0.84601 0.7919 0.0
C1755 C 0.51423 0.84064 0.8313 0.0
C1756 C 0.47644 0.85081 0.77958 0.0
C1757 C 0.45904 0.85629 0.79286 0.0
C1758 C 0.49573 0.84683 0.81761 0.0
C1759 C 0.46094 0.85773 0.81862 0.0
C1760 C 0.51532 0.84296 0.85719 0.0
C1761 C 0.54741 0.82612 0.83071 0.0
N1762 N 0.4789 0.85292 0.83012 0.0
N1763 N 0.53022 0.83222 0.81884 0.0
H1764 H 0.51692 0.19485 0.15579 0.0
H1765 H 0.50767 0.09618 0.02949 0.0
H1766 H 0.47799 0.19595 0.08833 0.0
H1767 H 0.55387 0.10299 0.0939 0.0
H1768 H 0.49214 0.1283 0.05271 0.0
H1769 H 0.52544 0.15641 0.13536 0.0
C1770 C 0.50993 0.18683 0.1367 0.0
C1771 C 0.49699 0.19875 0.12352 0.0
C1772 C 0.50561 0.12271 0.06178 0.0
C1773 C 0.50681 0.15482 0.10009 0.0
C1774 C 0.51465 0.10452 0.04851 0.0
C1775 C 0.53249 0.09738 0.05965 0.0
C1776 C 0.51439 0.13373 0.08638 0.0
C1777 C 0.54033 0.10821 0.08453 0.0
C1778 C 0.51484 0.16487 0.12508 0.0
C1779 C 0.48815 0.18738 0.09903 0.0
N1780 N 0.5313 0.12606 0.09706 0.0
N1781 N 0.49347 0.16607 0.08792 0.0
H1782 H 0.1575 0.32896 0.3025 0.0
H1783 H 0.26337 0.32529 0.26942 0.0
H1784 H 0.17912 0.30596 0.36862 0.0
H1785 H 0.27988 0.3258 0.3467 0.0
H1786 H 0.225 0.32335 0.2769 0.0
H1787 H 0.19467 0.33301 0.29003 0.0
C1788 C 0.17003 0.32444 0.31422 0.0
C1789 C 0.16522 0.31707 0.33658 0.0
C1790 C 0.23692 0.32438 0.29243 0.0
C1791 C 0.20782 0.32131 0.32234 0.0
C1792 C 0.25879 0.32503 0.28801 0.0
C1793 C 0.27438 0.32474 0.30732 0.0
C1794 C 0.23086 0.32383 0.31649 0.0
C1795 C 0.26806 0.32555 0.33128 0.0
C1796 C 0.1913 0.32662 0.30702 0.0
C1797 C 0.18208 0.31165 0.35118 0.0
N1798 N 0.24664 0.32466 0.33514 0.0
N1799 N 0.20265 0.31399 0.34383 0.0
H1800 H 0.01914 0.08845 0.23247 0.0
H1801 H 0.99848 0.03765 0.08287 0.0
H1802 H 0.9534 0.05754 0.19448 0.0
H1803 H 0.06249 0.07259 0.1237 0.0
H1804 H 0.98149 0.04352 0.12217 0.0
H1805 H 0.0344 0.08176 0.19275 0.0
C1806 C 0.0077 0.08023 0.21584 0.0
C1807 C 0.98464 0.0737 0.21755 0.0
C1808 C 0.99925 0.04988 0.12261 0.0
C1809 C 1.00271 0.0657 0.17051 0.0
C1810 C 0.00911 0.04647 0.09999 0.0
C1811 C 0.03224 0.05451 0.0994 0.0
C1812 C 0.01242 0.06144 0.14539 0.0
C1813 C 0.04471 0.06593 0.12268 0.0
C1814 C 0.01662 0.07638 0.19286 0.0
C1815 C 0.9712 0.06304 0.19464 0.0
N1816 N 0.03477 0.06895 0.14431 0.0
N1817 N 0.98035 0.05941 0.17236 0.0
H1818 H 0.27087 0.62992 0.42344 0.0
H1819 H 0.27975 0.7645 0.39224 0.0
H1820 H 0.3093 0.69859 0.47034 0.0
H1821 H 0.24084 0.69625 0.34521 0.0
H1822 H 0.29426 0.74004 0.4186 0.0
H1823 H 0.26294 0.65333 0.3922 0.0
C1824 C 0.27783 0.64986 0.42704 0.0
C1825 C 0.29061 0.66237 0.44954 0.0
C1826 C 0.28265 0.73038 0.40243 0.0
C1827 C 0.28154 0.6892 0.41408 0.0
C1828 C 0.27445 0.74433 0.38732 0.0
C1829 C 0.25885 0.73235 0.36673 0.0
C1830 C 0.27511 0.7043 0.39695 0.0
C1831 C 0.25245 0.70621 0.36127 0.0
C1832 C 0.27328 0.66321 0.40923 0.0
C1833 C 0.29926 0.68821 0.45327 0.0
N1834 N 0.26048 0.69303 0.37644 0.0
N1835 N 0.29441 0.70081 0.43578 0.0
H1836 H 0.6869 0.0331 0.66269 0.0
H1837 H 0.56541 1.00399 0.59355 0.0
H1838 H 0.63084 0.99155 0.69152 0.0
H1839 H 0.61961 0.06397 0.5855 0.0
H1840 H 0.58851 0.99584 0.62742 0.0
H1841 H 0.66199 0.03986 0.63053 0.0
C1842 C 0.66933 0.02509 0.66208 0.0
C1843 C 0.66089 0.01177 0.67984 0.0
C1844 C 0.59513 0.01087 0.61824 0.0
C1845 C 0.63222 0.01974 0.64313 0.0
C1846 C 0.582 0.01558 0.59905 0.0
C1847 C 0.59073 0.03446 0.58652 0.0
C1848 C 0.61701 0.02502 0.62453 0.0
C1849 C 0.61227 0.04897 0.59434 0.0
C1850 C 0.65509 0.02917 0.64381 0.0
C1851 C 0.63796 1.00194 0.67814 0.0
N1852 N 0.62471 0.04378 0.6127 0.0
N1853 N 0.6243 1.00617 0.66003 0.0
H1854 H 0.31352 0.34125 0.97092 0.0
H1855 H 0.32941 0.36376 0.83768 0.0
H1856 H 0.36389 0.4019 0.95695 0.0
H1857 H 0.31151 0.28796 0.84781 0.0
H1858 H 0.34015 0.37812 0.88228 0.0
H1859 H 0.31072 0.32051 0.92689 0.0
C1860 C 0.32423 0.34998 0.95875 0.0
C1861 C 0.33868 0.37356 0.96748 0.0
C1862 C 0.3343 0.35829 0.87479 0.0
C1863 C 0.33548 0.35012 0.91752 0.0
C1864 C 0.3282 0.35013 0.8494 0.0
C1865 C 0.32022 0.32469 0.83923 0.0
C1866 C 0.3315 0.34096 0.89031 0.0
C1867 C 0.31826 0.3077 0.85511 0.0
C1868 C 0.32267 0.33811 0.93372 0.0
C1869 C 0.35223 0.38399 0.95096 0.0
N1870 N 0.32361 0.31619 0.88011 0.0
N1871 N 0.35005 0.37239 0.92673 0.0
H1872 H 0.95584 0.07607 0.36808 0.0
H1873 H 0.05868 0.05245 0.45274 0.0
H1874 H 0.01418 0.05934 0.33772 0.0
H1875 H 0.99556 0.05629 0.47879 0.0
H1876 H 0.04382 0.05657 0.41126 0.0
H1877 H 0.97102 0.07149 0.40911 0.0
C1878 C 0.97188 0.07168 0.36989 0.0
C1879 C 0.98352 0.06821 0.34881 0.0
C1880 C 0.03316 0.05645 0.42604 0.0
C1881 C 1.00136 0.06277 0.39663 0.0
C1882 C 0.04169 0.0539 0.44985 0.0
C1883 C 0.02842 0.05359 0.4697 0.0
C1884 C 0.01123 0.0593 0.42178 0.0
C1885 C 0.00657 0.05617 0.46436 0.0
C1886 C 0.98058 0.0689 0.39349 0.0
C1887 C 1.0043 0.06226 0.35299 0.0
N1888 N 0.99885 0.05895 0.44138 0.0
N1889 N 0.0124 0.05984 0.37601 0.0
H1890 H 0.29525 0.73336 0.56561 0.0
H1891 H 0.29515 0.72661 0.70834 0.0
H1892 H 0.3168 0.6764 0.59688 0.0
H1893 H 0.29935 0.79591 0.68371 0.0
H1894 H 0.29698 0.70576 0.66586 0.0
H1895 H 0.29207 0.75517 0.60769 0.0
C1896 C 0.29952 0.72561 0.58132 0.0
C1897 C 0.30632 0.70311 0.57782 0.0
C1898 C 0.29738 0.7255 0.66974 0.0
C1899 C 0.30226 0.72751 0.62558 0.0
C1900 C 0.29608 0.73737 0.69393 0.0
C1901 C 0.2972 0.76304 0.69951 0.0
C1902 C 0.29956 0.73936 0.651 0.0
C1903 C 0.29856 0.77609 0.68011 0.0
C1904 C 0.29765 0.738 0.60524 0.0
C1905 C 0.31161 0.69378 0.59875 0.0
N1906 N 0.29978 0.76408 0.65661 0.0
N1907 N 0.30927 0.70593 0.62176 0.0
H1908 H 0.67468 0.02314 0.79754 0.0
H1909 H 0.59608 0.10537 0.86203 0.0
H1910 H 0.66586 0.09113 0.77678 0.0
H1911 H 0.59955 0.03312 0.87603 0.0
H1912 H 0.62404 0.10235 0.83309 0.0
H1913 H 0.64977 0.02864 0.82939 0.0
C1914 C 0.66753 0.03926 0.79973 0.0
C1915 C 0.67213 0.0566 0.78437 0.0
C1916 C 0.61868 0.08719 0.84255 0.0
C1917 C 0.64367 0.06297 0.82068 0.0
C1918 C 0.60264 0.08884 0.85887 0.0
C1919 C 0.59547 0.06943 0.87125 0.0
C1920 C 0.62747 0.06596 0.83864 0.0
C1921 C 0.60478 0.04861 0.86697 0.0
C1922 C 0.65332 0.04238 0.8179 0.0
C1923 C 0.66258 0.07721 0.7881 0.0
N1924 N 0.62029 0.0474 0.85096 0.0
N1925 N 0.64869 0.07979 0.80587 0.0
H1926 H 0.2707 0.35995 0.10214 0.0
H1927 H 0.34823 0.33158 0.2092 0.0
H1928 H 0.34188 0.37313 0.10424 0.0
H1929 H 0.27937 0.33199 0.21407 0.0
H1930 H 0.34595 0.34483 0.16957 0.0
H1931 H 0.27304 0.3466 0.1418 0.0
C1932 C 0.28678 0.35991 0.11086 0.0
C1933 C 0.3061 0.36765 0.09989 0.0
C1934 C 0.33132 0.34196 0.17929 0.0
C1935 C 0.30892 0.3526 0.14518 0.0
C1936 C 0.33264 0.33449 0.20194 0.0
C1937 C 0.31384 0.33029 0.21467 0.0
C1938 C 0.31105 0.34517 0.16935 0.0
C1939 C 0.2941 0.33442 0.20451 0.0
C1940 C 0.28813 0.35242 0.13353 0.0
C1941 C 0.32654 0.36732 0.11204 0.0
N1942 N 0.29317 0.34148 0.18233 0.0
N1943 N 0.3274 0.35993 0.13404 0.0
H1944 H 0.23726 0.9422 0.01179 0.0
H1945 H 0.1932 0.06055 0.07325 0.0
H1946 H 0.27984 0.01556 0.03968 0.0
H1947 H 0.15726 0.98436 0.06746 0.0
H1948 H 0.22278 0.04534 0.05258 0.0
H1949 H 0.20539 0.9587 0.02372 0.0
C1950 C 0.23989 0.96181 0.02021 0.0
C1951 C 0.26124 0.97749 0.02505 0.0
C1952 C 0.20835 0.03199 0.05573 0.0
C1953 C 0.22495 0.99637 0.03867 0.0
C1954 C 0.1915 0.04063 0.06742 0.0
C1955 C 0.17302 0.02361 0.07235 0.0
C1956 C 0.20652 1.0062 0.04873 0.0
C1957 C 0.17151 0.99802 0.06441 0.0
C1958 C 0.22171 0.97117 0.02705 0.0
C1959 C 0.26367 1.00278 0.03583 0.0
N1960 N 0.18811 0.99006 0.05304 0.0
N1961 N 0.24573 0.01143 0.04244 0.0
H1962 H 0.73849 0.62043 0.98741 0.0
H1963 H 0.61903 0.61832 0.03014 0.0
H1964 H 0.71379 0.68641 0.01006 0.0
H1965 H 0.63324 0.55305 0.9852 0.0
H1966 H 0.65462 0.64275 0.02406 0.0
H1967 H 0.70114 0.59461 0.98729 0.0
C1968 C 0.72521 0.6295 0.99214 0.0
C1969 C 0.72931 0.65565 0.99892 0.0
C1970 C 0.65001 0.62309 0.01541 0.0
C1971 C 0.68674 0.62626 0.99898 0.0
C1972 C 0.62962 0.60899 0.01898 0.0
C1973 C 0.62311 0.58336 0.00847 0.0
C1974 C 0.6644 0.61157 1.00148 0.0
C1975 C 0.63762 0.57262 0.99388 0.0
C1976 C 0.70392 0.61474 0.99201 0.0
C1977 C 0.71148 0.66636 1.00481 0.0
N1978 N 0.65776 0.58672 0.99104 0.0
N1979 N 0.69108 0.65164 1.00492 0.0
H1980 H 0.719 0.45016 0.30328 0.0
H1981 H 0.78552 0.3475 0.2398 0.0
H1982 H 0.73454 0.44208 0.22752 0.0
H1983 H 0.7724 0.35834 0.31637 0.0
H1984 H 0.7676 0.38194 0.23481 0.0
H1985 H 0.73818 0.41684 0.30833 0.0
C1986 C 0.72631 0.44157 0.28764 0.0
C1987 C 0.72477 0.44959 0.26486 0.0
C1988 C 0.76871 0.37689 0.25279 0.0
C1989 C 0.74733 0.4105 0.27062 0.0
C1990 C 0.77921 0.35716 0.25568 0.0
C1991 C 0.78104 0.34974 0.27873 0.0
C1992 C 0.75949 0.3895 0.27291 0.0
C1993 C 0.7718 0.36316 0.29825 0.0
C1994 C 0.73742 0.42234 0.29055 0.0
C1995 C 0.73497 0.43708 0.24554 0.0
N1996 N 0.76162 0.38192 0.29494 0.0
N1997 N 0.74554 0.41858 0.24882 0.0
H1998 H 0.90811 0.43276 0.51881 0.0
H1999 H 0.00663 0.55486 0.55175 0.0
H2000 H 0.89811 0.50722 0.54074 0.0
H2001 H 0.01556 0.48169 0.5211 0.0
H2002 H 0.96648 0.53815 0.54581 0.0
H2003 H 0.94731 0.45055 0.51747 0.0
C2004 C 0.91417 0.45286 0.52335 0.0
C2005 C 0.89994 0.46855 0.53019 0.0
C2006 C 0.97715 0.52579 0.53993 0.0
C2007 C 0.94468 0.489 0.52868 0.0
C2008 C 0.99997 0.53536 0.54319 0.0
C2009 C 0.01404 0.51974 0.53571 0.0
C2010 C 0.96857 0.50023 0.53006 0.0
C2011 C 1.00498 0.49442 0.5259 0.0
C2012 C 0.93652 0.463 0.52246 0.0
C2013 C 0.90858 0.49445 0.53558 0.0
N2014 N 0.98272 0.48538 0.52335 0.0
N2015 N 0.93047 0.50388 0.53488 0.0
H2016 H 0.35468 0.09527 0.30523 0.0
H2017 H 0.36837 0.20261 0.23094 0.0
H2018 H 0.41593 0.1511 0.31195 0.0
H2019 H 0.30456 0.16526 0.24784 0.0
H2020 H 0.38626 0.18435 0.26118 0.0
H2021 H 0.33562 0.12139 0.28558 0.0
C2022 C 0.364 0.11331 0.30307 0.0
C2023 C 0.3869 0.121 0.30992 0.0
C2024 C 0.36834 0.18033 0.25843 0.0
C2025 C 0.36537 0.15066 0.28718 0.0
C2026 C 0.35819 0.19048 0.241 0.0
C2027 C 0.33506 0.18503 0.23674 0.0
C2028 C 0.3552 0.1643 0.27124 0.0
C2029 C 0.32249 0.16966 0.25053 0.0
C2030 C 0.35313 0.1282 0.29187 0.0
C2031 C 0.39824 0.14451 0.30682 0.0
N2032 N 0.33274 0.15953 0.267 0.0
N2033 N 0.38739 0.15838 0.29518 0.0
H2034 H 0.32957 0.12116 0.50011 0.0
H2035 H 0.45111 0.11037 0.54451 0.0
H2036 H 0.38374 0.18505 0.52928 0.0
H2037 H 0.39609 0.04702 0.51701 0.0
H2038 H 0.42749 0.13808 0.5365 0.0
H2039 H 0.35446 0.09383 0.50387 0.0
C2040 C 0.34675 0.12947 0.50718 0.0
C2041 C 0.35458 0.15544 0.51449 0.0
C2042 C 0.4206 0.11812 0.53219 0.0
C2043 C 0.38319 0.12418 0.5189 0.0
C2044 C 0.43409 0.10227 0.53664 0.0
C2045 C 0.4255 0.07632 0.53157 0.0
C2046 C 0.39834 0.10796 0.52266 0.0
C2047 C 0.40328 0.06691 0.52163 0.0
C2048 C 0.36096 0.11383 0.50935 0.0
C2049 C 0.377 0.16513 0.5235 0.0
N2050 N 0.39046 0.08273 0.51756 0.0
N2051 N 0.39053 0.14946 0.52555 0.0
H2052 H 0.69044 0.60897 0.26309 0.0
H2053 H 0.80784 0.70925 0.29971 0.0
H2054 H 0.74841 0.58776 0.29049 0.0
H2055 H 0.7501 0.72134 0.26096 0.0
H2056 H 0.78749 0.66603 0.29867 0.0
H2057 H 0.71267 0.65057 0.26445 0.0
C2058 C 0.70792 0.61293 0.26947 0.0
C2059 C 0.7173 0.59431 0.27672 0.0
C2060 C 0.77934 0.67815 0.29032 0.0
C2061 C 0.74348 0.64328 0.27842 0.0
C2062 C 0.79103 0.70295 0.29081 0.0
C2063 C 0.78103 0.71938 0.28012 0.0
C2064 C 0.75722 0.66949 0.2793 0.0
C2065 C 0.75887 0.7098 0.26938 0.0
C2066 C 0.72073 0.63698 0.27019 0.0
C2067 C 0.74026 0.60121 0.28466 0.0
N2068 N 0.74792 0.68586 0.26932 0.0
N2069 N 0.75248 0.62504 0.28539 0.0
H2070 H 0.86732 0.48448 0.77165 0.0
H2071 H 0.8605 0.34612 0.78511 0.0
H2072 H 0.92561 0.45962 0.79198 0.0
H2073 H 0.81545 0.3638 0.73226 0.0
H2074 H 0.88336 0.38859 0.79156 0.0
H2075 H 0.84617 0.44106 0.76129 0.0
C2076 C 0.87565 0.46988 0.77393 0.0
C2077 C 0.89822 0.47554 0.78268 0.0
C2078 C 0.86852 0.38316 0.77851 0.0
C2079 C 0.87424 0.4262 0.77085 0.0
C2080 C 0.85539 0.35913 0.77505 0.0
C2081 C 0.83574 0.3521 0.75889 0.0
C2082 C 0.86177 0.40012 0.76581 0.0
C2083 C 0.83021 0.36903 0.74542 0.0
C2084 C 0.86364 0.44519 0.76781 0.0
C2085 C 0.90825 0.45599 0.78523 0.0
N2086 N 0.843 0.3926 0.74952 0.0
N2087 N 0.89611 0.43209 0.7795 0.0
H2088 H 0.08553 0.86445 0.03596 0.0
H2089 H 0.08116 1.00806 0.08094 0.0
H2090 H 0.09736 0.90157 0.11328 0.0
H2091 H 0.08481 0.97413 1.0049 0.0
H2092 H 0.08476 0.9691 0.0935 0.0
H2093 H 0.08275 0.90378 0.02464 0.0
C2094 C 0.08761 0.88086 0.05064 0.0
C2095 C 0.09177 0.87944 0.07569 0.0
C2096 C 0.08466 0.97008 0.07405 0.0
C2097 C 0.0884 0.92509 0.06265 0.0
C2098 C 0.08246 0.99226 0.06686 0.0
C2099 C 0.08204 0.99406 0.04172 0.0
C2100 C 0.08648 0.94943 0.05596 0.0
C2101 C 0.08455 0.97335 0.02437 0.0
C2102 C 0.08604 0.90344 0.0441 0.0
C2103 C 0.09426 0.90162 0.09372 0.0
N2104 N 0.0864 0.95191 0.03174 0.0
N2105 N 0.09244 0.92339 0.08689 0.0
H2106 H 0.97183 0.26139 0.86162 0.0
H2107 H 0.85106 0.29048 0.85432 0.0
H2108 H 0.93998 0.28682 0.92556 0.0
H2109 H 0.88533 0.27616 0.78949 0.0
H2110 H 0.88273 0.2864 0.88016 0.0
H2111 H 0.93963 0.26346 0.83447 0.0
C2112 C 0.95803 0.26718 0.86998 0.0
C2113 C 0.95872 0.27394 0.89601 0.0
C2114 C 0.88343 0.28423 0.86029 0.0
C2115 C 0.92176 0.27641 0.86497 0.0
C2116 C 0.86534 0.28686 0.84548 0.0
C2117 C 0.86556 0.28433 0.81966 0.0
C2118 C 0.90203 0.27873 0.84932 0.0
C2119 C 0.88435 0.27843 0.80931 0.0
C2120 C 0.93968 0.26848 0.85445 0.0
C2121 C 0.94033 0.28147 0.90568 0.0
N2122 N 0.90181 0.27591 0.82414 0.0
N2123 N 0.92274 0.28248 0.89024 0.0
H2124 H 0.5809 0.24019 0.60937 0.0
H2125 H 0.57028 0.11247 0.51055 0.0
H2126 H 0.60012 0.23988 0.53544 0.0
H2127 H 0.57099 0.11773 0.58966 0.0
H2128 H 0.57948 0.1584 0.51769 0.0
H2129 H 0.57432 0.19481 0.60084 0.0
C2130 C 0.58362 0.23062 0.59124 0.0
C2131 C 0.5911 0.2441 0.57313 0.0
C2132 C 0.57784 0.14948 0.53348 0.0
C2133 C 0.58356 0.19159 0.56318 0.0
C2134 C 0.57281 0.12325 0.52942 0.0
C2135 C 0.57034 0.11122 0.5496 0.0
C2136 C 0.57978 0.16372 0.55783 0.0
C2137 C 0.57301 0.12619 0.57359 0.0
C2138 C 0.57997 0.2046 0.58643 0.0
C2139 C 0.59438 0.23038 0.55002 0.0
N2140 N 0.57743 0.1515 0.577 0.0
N2141 N 0.59053 0.20494 0.54568 0.0
H2142 H 0.59996 0.74006 0.40201 0.0
H2143 H 0.65692 0.82241 0.30913 0.0
H2144 H 0.57087 0.79325 0.37272 0.0
H2145 H 0.68007 0.75991 0.32652 0.0
H2146 H 0.62723 0.81421 0.33539 0.0
H2147 H 0.63086 0.74889 0.37716 0.0
C2148 C 0.60003 0.75357 0.39033 0.0
C2149 C 0.5827 0.76588 0.38946 0.0
C2150 C 0.63879 0.80227 0.33352 0.0
C2151 C 0.61826 0.77627 0.36109 0.0
C2152 C 0.65578 0.80689 0.31843 0.0
C2153 C 0.67094 0.79161 0.31521 0.0
C2154 C 0.63685 0.78226 0.34576 0.0
C2155 C 0.66887 0.77224 0.32842 0.0
C2156 C 0.61771 0.7586 0.37614 0.0
C2157 C 0.58375 0.7832 0.37394 0.0
N2158 N 0.65209 0.76805 0.343 0.0
N2159 N 0.60123 0.78792 0.36049 0.0
H2160 H 0.13214 0.30157 0.47166 0.0
H2161 H 0.05108 0.17952 0.49676 0.0
H2162 H 0.08155 0.25169 0.4166 0.0
H2163 H 0.09912 0.23131 0.55311 0.0
H2164 H 0.06167 0.20614 0.46726 0.0
H2165 H 0.12012 0.27623 0.5019 0.0
C2166 C 0.11855 0.28523 0.46591 0.0
C2167 C 0.10789 0.27862 0.44158 0.0
C2168 C 0.06976 0.21185 0.48613 0.0
C2169 C 0.09399 0.24972 0.47606 0.0
C2170 C 0.06373 0.19667 0.50296 0.0
C2171 C 0.07429 0.20329 0.52738 0.0
C2172 C 0.08645 0.23383 0.49378 0.0
C2173 C 0.09042 0.22573 0.53454 0.0
C2174 C 0.11165 0.27084 0.4832 0.0
C2175 C 0.0903 0.25738 0.43515 0.0
N2176 N 0.09613 0.24017 0.51772 0.0
N2177 N 0.08391 0.24365 0.45232 0.0
H2178 H 0.57484 0.2902 0.23157 0.0
H2179 H 0.65383 0.19705 0.23769 0.0
H2180 H 0.57786 0.23078 0.17034 0.0
H2181 H 0.67336 0.27379 0.27724 0.0
H2182 H 0.62013 0.20541 0.21916 0.0
H2183 H 0.60628 0.28104 0.25448 0.0
C2184 C 0.58213 0.2753 0.22301 0.0
C2185 C 0.57398 0.26137 0.19903 0.0
C2186 C 0.63172 0.22033 0.2321 0.0
C2187 C 0.60915 0.2505 0.22509 0.0
C2188 C 0.65077 0.21552 0.24279 0.0
C2189 C 0.66626 0.23479 0.25891 0.0
C2190 C 0.62809 0.24446 0.23787 0.0
C2191 C 0.66176 0.25852 0.26475 0.0
C2192 C 0.59996 0.27011 0.23602 0.0
C2193 C 0.58386 0.24218 0.18869 0.0
N2194 N 0.64301 0.26274 0.25419 0.0
N2195 N 0.60085 0.2372 0.20186 0.0
H2196 H 0.63224 0.88456 0.9401 0.0
H2197 H 0.56534 0.98784 0.9455 0.0
H2198 H 0.60991 0.90805 0.87455 0.0
H2199 H 0.6092 0.98536 0.00861 0.0
H2200 H 0.58185 0.95852 0.9193 0.0
H2201 H 0.62509 0.9218 0.96589 0.0
C2202 C 0.62631 0.89784 0.93111 0.0
C2203 C 0.62139 0.89313 0.90518 0.0
C2204 C 0.58796 0.96452 0.93886 0.0
C2205 C 0.61292 0.93532 0.93448 0.0
C2206 C 0.57843 0.98113 0.9539 0.0
C2207 C 0.58559 0.98865 0.97941 0.0
C2208 C 0.60454 0.95511 0.94946 0.0
C2209 C 0.60279 0.97955 0.98916 0.0
C2210 C 0.62224 0.91905 0.94583 0.0
C2211 C 0.61381 0.91091 0.89447 0.0
N2212 N 0.61153 0.96293 0.97418 0.0
N2213 N 0.60941 0.93106 0.90924 0.0
H2214 H 0.95657 0.79728 0.69433 0.0
H2215 H 0.845 0.77405 0.70271 0.0
H2216 H 0.95624 0.74057 0.73763 0.0
H2217 H 0.86186 0.76526 0.77713 0.0
H2218 H 0.88271 0.77288 0.69343 0.0
H2219 H 0.9194 0.79894 0.70437 0.0
C2220 C 0.94875 0.78527 0.7061 0.0
C2221 C 0.95938 0.76847 0.71487 0.0
C2222 C 0.87823 0.77152 0.71188 0.0
C2223 C 0.91669 0.77001 0.72597 0.0
C2224 C 0.8568 0.77206 0.7171 0.0
C2225 C 0.85089 0.77082 0.74095 0.0
C2226 C 0.89361 0.76923 0.73057 0.0
C2227 C 0.8663 0.76728 0.75881 0.0
C2228 C 0.92744 0.78606 0.71157 0.0
C2229 C 0.94849 0.75358 0.73027 0.0
N2230 N 0.88716 0.76666 0.75327 0.0
N2231 N 0.92761 0.75467 0.73536 0.0
H2232 H 0.18407 0.04196 0.87886 0.0
H2233 H 0.06538 0.01684 0.93417 0.0
H2234 H 0.12373 1.00759 0.83035 0.0
H2235 H 0.12814 0.04968 0.97816 0.0
H2236 H 0.08482 0.01245 0.89646 0.0
H2237 H 0.1629 0.0444 0.91444 0.0
C2238 C 0.16629 0.03482 0.87542 0.0
C2239 C 0.15608 0.02449 0.85084 0.0
C2240 C 0.09437 0.02071 0.91435 0.0
C2241 C 0.13089 0.02737 0.89315 0.0
C2242 C 0.0832 0.02316 0.93617 0.0
C2243 C 0.09477 0.03409 0.96009 0.0
C2244 C 0.11764 0.02911 0.91595 0.0
C2245 C 0.11804 0.04181 0.96064 0.0
C2246 C 0.15407 0.03627 0.89614 0.0
C2247 C 0.13271 0.01572 0.84857 0.0
N2248 N 0.12843 0.03923 0.93932 0.0
N2249 N 0.12107 0.01737 0.86922 0.0
H2250 H 0.83357 0.44385 0.61004 0.0
H2251 H 0.85196 0.32332 0.65543 0.0
H2252 H 0.81075 0.36903 0.56589 0.0
H2253 H 0.86632 0.39645 0.70358 0.0
H2254 H 0.83447 0.33945 0.62346 0.0
H2255 H 0.84308 0.42664 0.64553 0.0
C2256 C 0.83024 0.42376 0.60791 0.0
C2257 C 0.82159 0.40781 0.58492 0.0
C2258 C 0.8413 0.35196 0.64106 0.0
C2259 C 0.83261 0.38807 0.62539 0.0
C2260 C 0.85126 0.34276 0.65938 0.0
C2261 C 0.8607 0.3586 0.68221 0.0
C2262 C 0.84102 0.37729 0.6454 0.0
C2263 C 0.85961 0.3837 0.68609 0.0
C2264 C 0.83569 0.41397 0.6282 0.0
C2265 C 0.81751 0.38199 0.58325 0.0
N2266 N 0.85006 0.39233 0.66776 0.0
N2267 N 0.82332 0.3729 0.60319 0.0
H2268 H 0.43233 0.08759 0.40969 0.0
H2269 H 0.54876 0.05386 0.43148 0.0
H2270 H 0.47249 0.07011 0.3507 0.0
H2271 H 0.50972 0.07535 0.48995 0.0
H2272 H 0.52364 0.06531 0.40186 0.0
H2273 H 0.46303 0.08871 0.44003 0.0
C2274 C 0.44768 0.0843 0.40316 0.0
C2275 C 0.44977 0.07839 0.37772 0.0
C2276 C 0.5207 0.06772 0.42124 0.0
C2277 C 0.4848 0.07941 0.41211 0.0
C2278 C 0.53502 0.06124 0.43801 0.0
C2279 C 0.53066 0.06304 0.46275 0.0
C2280 C 0.50217 0.07604 0.42961 0.0
C2281 C 0.51292 0.07282 0.47069 0.0
C2282 C 0.46521 0.08493 0.42043 0.0
C2283 C 0.47008 0.07446 0.3702 0.0
N2284 N 0.49913 0.07873 0.45409 0.0
N2285 N 0.48674 0.07471 0.38734 0.0
H2286 H 0.79952 0.77281 0.07801 0.0
H2287 H 0.80067 0.72562 0.20637 0.0
H2288 H 0.80148 0.69821 0.08584 0.0
H2289 H 0.81235 0.80381 0.20475 0.0
H2290 H 0.7953 0.7154 0.16118 0.0
H2291 H 0.79981 0.78483 0.12344 0.0
C2292 C 0.8 0.75899 0.08921 0.0
C2293 C 0.80052 0.73448 0.07806 0.0
C2294 C 0.79883 0.73483 0.17054 0.0
C2295 C 0.80062 0.748 0.12973 0.0
C2296 C 0.80177 0.74063 0.19635 0.0
C2297 C 0.8067 0.76551 0.20916 0.0
C2298 C 0.80127 0.75408 0.15724 0.0
C2299 C 0.8082 0.78435 0.19541 0.0
C2300 C 0.80015 0.76587 0.11508 0.0
C2301 C 0.80113 0.71734 0.09348 0.0
N2302 N 0.80562 0.77825 0.17004 0.0
N2303 N 0.80112 0.72443 0.11839 0.0
H2304 H 0.10956 0.02921 0.71921 0.0
H2305 H 0.12785 0.0329 0.57577 0.0
H2306 H 0.16688 0.01255 0.68634 0.0
H2307 H 0.06537 0.03574 0.60397 0.0
H2308 H 0.14275 0.02821 0.61635 0.0
H2309 H 0.09406 0.03366 0.67872 0.0
C2310 C 0.11899 0.02628 0.70352 0.0
C2311 C 0.13979 0.02025 0.70684 0.0
C2312 C 0.12582 0.02999 0.61392 0.0
C2313 C 0.12169 0.0259 0.65922 0.0
C2314 C 0.11718 0.03282 0.59055 0.0
C2315 C 0.09516 0.03504 0.58589 0.0
C2316 C 0.11263 0.02936 0.63369 0.0
C2317 C 0.08245 0.0345 0.60627 0.0
C2318 C 0.10997 0.02891 0.68016 0.0
C2319 C 0.15081 0.01692 0.68521 0.0
N2320 N 0.09133 0.03183 0.62902 0.0
N2321 N 0.14178 0.01991 0.6627 0.0
H2322 H 0.85352 0.44194 0.4437 0.0
H2323 H 0.8092 0.3017 0.36779 0.0
H2324 H 0.8114 0.38503 0.47353 0.0
H2325 H 0.8513 0.36107 0.34115 0.0
H2326 H 0.81247 0.32995 0.40839 0.0
H2327 H 0.85501 0.41077 0.4072 0.0
C2328 C 0.84445 0.42286 0.44247 0.0
C2329 C 0.83213 0.41608 0.46148 0.0
C2330 C 0.82106 0.33662 0.3936 0.0
C2331 C 0.83382 0.38013 0.41974 0.0
C2332 C 0.8191 0.32056 0.37044 0.0
C2333 C 0.82914 0.32935 0.35074 0.0
C2334 C 0.83339 0.36139 0.39693 0.0
C2335 C 0.84266 0.35361 0.35551 0.0
C2336 C 0.84542 0.40499 0.42168 0.0
C2337 C 0.82098 0.39101 0.45912 0.0
N2338 N 0.84415 0.36882 0.37799 0.0
N2339 N 0.82197 0.37388 0.43847 0.0
H2340 H 0.4382 0.02311 0.246 0.0
H2341 H 0.54014 0.06906 0.17327 0.0
H2342 H 0.47644 0.0995 0.26283 0.0
H2343 H 0.51837 0.99285 0.18129 0.0
H2344 H 0.51413 0.08114 0.2021 0.0
H2345 H 0.46426 0.01221 0.21709 0.0
C2346 C 0.45194 0.03766 0.24339 0.0
C2347 C 0.45523 0.06226 0.25683 0.0
C2348 C 0.51525 0.06185 0.19776 0.0
C2349 C 0.48508 0.04982 0.224 0.0
C2350 C 0.53005 0.055 0.18145 0.0
C2351 C 0.53142 0.03003 0.1753 0.0
C2352 C 0.50155 0.04347 0.20752 0.0
C2353 C 0.51796 0.01235 0.186 0.0
C2354 C 0.46689 0.03136 0.22708 0.0
C2355 C 0.47337 0.08031 0.25286 0.0
N2356 N 0.50337 0.01938 0.2015 0.0
N2357 N 0.48768 0.07372 0.23672 0.0
H2358 H 0.79021 0.66818 0.91035 0.0
H2359 H 0.84691 0.78459 0.85446 0.0
H2360 H 0.82403 0.73906 0.957 0.0
H2361 H 0.79565 0.72267 0.81365 0.0
H2362 H 0.84391 0.76597 0.89112 0.0
H2363 H 0.79701 0.68593 0.87374 0.0
C2364 C 0.79912 0.6875 0.91292 0.0
C2365 C 0.80648 0.7022 0.93679 0.0
C2366 C 0.83338 0.7565 0.87408 0.0
C2367 C 0.81446 0.72259 0.89481 0.0
C2368 C 0.83507 0.76714 0.85312 0.0
C2369 C 0.82101 0.75572 0.83113 0.0
C2370 C 0.81789 0.7339 0.87277 0.0
C2371 C 0.80651 0.73253 0.83031 0.0
C2372 C 0.80298 0.69762 0.89197 0.0
C2373 C 0.81795 0.72713 0.93892 0.0
N2374 N 0.80526 0.72247 0.85086 0.0
N2375 N 0.82164 0.73657 0.91814 0.0
H2376 H 0.87489 0.14121 0.99839 0.0
H2377 H 0.89449 1.00308 0.97779 0.0
H2378 H 0.82421 0.07618 1.0022 0.0
H2379 H 0.94512 0.06866 0.97579 0.0
H2380 H 0.86763 0.02906 0.98394 0.0
H2381 H 0.90038 0.11445 0.98796 0.0
C2382 C 0.86912 0.1213 0.99698 0.0
C2383 C 0.84746 0.11088 1.00121 0.0
C2384 C 0.88459 0.03772 0.98196 0.0
C2385 C 0.87644 0.08017 0.98923 0.0
C2386 C 0.89982 0.02287 0.97824 0.0
C2387 C 0.92198 0.03381 0.97635 0.0
C2388 C 0.89165 0.06359 0.98375 0.0
C2389 C 0.9282 0.05958 0.97743 0.0
C2390 C 0.88366 0.10602 0.991 0.0
C2391 C 0.84082 0.08497 0.99914 0.0
N2392 N 0.91313 0.07363 0.98119 0.0
N2393 N 0.8553 0.07048 0.99332 0.0
H2394 H 0.38361 0.47209 0.05472 0.0
H2395 H 0.50865 0.4738 0.0338 0.0
H2396 H 0.41212 0.40877 0.05603 0.0
H2397 H 0.48772 0.54148 0.06012 0.0
H2398 H 0.47249 0.44958 0.03965 0.0
H2399 H 0.42083 0.4981 0.05486 0.0
C2400 C 0.39769 0.46371 0.05526 0.0
C2401 C 0.39476 0.43818 0.05523 0.0
C2402 C 0.47585 0.46976 0.04436 0.0
C2403 C 0.43717 0.4677 0.05516 0.0
C2404 C 0.49645 0.4836 0.0409 0.0
C2405 C 0.50119 0.50974 0.04644 0.0
C2406 C 0.45965 0.48212 0.05301 0.0
C2407 C 0.48483 0.52144 0.05582 0.0
C2408 C 0.41889 0.47857 0.05539 0.0
C2409 C 0.41357 0.42831 0.05596 0.0
N2410 N 0.46463 0.50754 0.05854 0.0
N2411 N 0.43393 0.44303 0.05564 0.0
H2412 H 0.3987 0.63982 0.72938 0.0
H2413 H 0.34484 0.74515 0.80964 0.0
H2414 H 0.3999 0.6466 0.80872 0.0
H2415 H 0.34762 0.7309 0.7305 0.0
H2416 H 0.36319 0.71019 0.81196 0.0
H2417 H 0.37942 0.67309 0.73169 0.0
C2418 C 0.395 0.64816 0.74754 0.0
C2419 C 0.40142 0.63957 0.76882 0.0
C2420 C 0.35968 0.71464 0.79407 0.0
C2421 C 0.37825 0.67953 0.77164 0.0
C2422 C 0.34897 0.73467 0.7927 0.0
C2423 C 0.34419 0.74134 0.76969 0.0
C2424 C 0.366 0.70099 0.77233 0.0
C2425 C 0.35059 0.72685 0.7487 0.0
C2426 C 0.38375 0.66756 0.7488 0.0
C2427 C 0.3956 0.65206 0.79157 0.0
N2428 N 0.36089 0.70791 0.75056 0.0
N2429 N 0.38451 0.67116 0.79234 0.0
H2430 H 0.23811 0.58771 0.50473 0.0
H2431 H 0.12535 0.61205 0.54784 0.0
H2432 H 0.23617 0.63748 0.57421 0.0
H2433 H 0.12958 0.54138 0.50406 0.0
H2434 H 0.16601 0.62419 0.55542 0.0
H2435 H 0.19799 0.572 0.50209 0.0
C2436 C 0.22923 0.59515 0.51952 0.0
C2437 C 0.24034 0.61397 0.53965 0.0
C2438 C 0.15796 0.60583 0.54458 0.0
C2439 C 0.19465 0.59651 0.53651 0.0
C2440 C 0.1349 0.59892 0.54042 0.0
C2441 C 0.12435 0.57531 0.52636 0.0
C2442 C 0.17031 0.58919 0.53398 0.0
C2443 C 0.13722 0.55934 0.51587 0.0
C2444 C 0.20641 0.58616 0.51804 0.0
C2445 C 0.22815 0.62293 0.5584 0.0
N2446 N 0.15961 0.56655 0.51992 0.0
N2447 N 0.20582 0.61437 0.5562 0.0
H2448 H 0.74297 0.98666 0.80266 0.0
H2449 H 0.8564 0.9547 0.76902 0.0
H2450 H 0.77013 0.99626 0.73393 0.0
H2451 H 0.83563 0.96054 0.84257 0.0
H2452 H 0.82686 0.97376 0.75674 0.0
H2453 H 0.7775 0.97804 0.81791 0.0
C2454 C 0.75613 0.98676 0.79072 0.0
C2455 C 0.7537 0.9921 0.76701 0.0
C2456 C 0.8292 0.9717 0.77583 0.0
C2457 C 0.79332 0.98283 0.78448 0.0
C2458 C 0.8463 0.96129 0.78291 0.0
C2459 C 0.8485 0.95653 0.80688 0.0
C2460 C 0.8141 0.97688 0.79279 0.0
C2461 C 0.83461 0.96445 0.82407 0.0
C2462 C 0.77593 0.98216 0.79954 0.0
C2463 C 0.77129 0.99211 0.75231 0.0
N2464 N 0.81761 0.9738 0.81653 0.0
N2465 N 0.7904 0.98753 0.76131 0.0
H2466 H 0.78016 0.94119 0.50493 0.0
H2467 H 0.68533 1.00942 0.55014 0.0
H2468 H 0.75745 0.94332 0.57761 0.0
H2469 H 0.71066 1.00901 0.47894 0.0
H2470 H 0.70999 0.98327 0.55989 0.0
H2471 H 0.75342 0.96445 0.49463 0.0
C2472 C 0.76952 0.94653 0.51876 0.0
C2473 C 0.7711 0.94035 0.54222 0.0
C2474 C 0.71013 0.9889 0.54214 0.0
C2475 C 0.74035 0.96707 0.53048 0.0
C2476 C 0.69599 1.00371 0.5365 0.0
C2477 C 0.6961 0.01157 0.51376 0.0
C2478 C 0.72444 0.9819 0.52489 0.0
C2479 C 0.71034 1.00378 0.49688 0.0
C2480 C 0.75422 0.95982 0.51283 0.0
C2481 C 0.75683 0.94773 0.55932 0.0
N2482 N 0.72397 0.98943 0.50281 0.0
N2483 N 0.74205 0.96077 0.55312 0.0
H2484 H 0.43334 0.48181 0.79292 0.0
H2485 H 0.31748 0.37962 0.75075 0.0
H2486 H 0.37613 0.50164 0.76156 0.0
H2487 H 0.37439 0.36818 0.79166 0.0
H2488 H 0.33755 0.42312 0.75267 0.0
H2489 H 0.41136 0.43992 0.79076 0.0
C2490 C 0.41608 0.47749 0.7855 0.0
C2491 C 0.40685 0.49581 0.77738 0.0
C2492 C 0.34558 0.4111 0.76133 0.0
C2493 C 0.38095 0.44648 0.77472 0.0
C2494 C 0.33403 0.38613 0.76034 0.0
C2495 C 0.34387 0.3698 0.7714 0.0
C2496 C 0.36738 0.42004 0.77324 0.0
C2497 C 0.36573 0.37965 0.78299 0.0
C2498 C 0.40341 0.45326 0.78432 0.0
C2499 C 0.38416 0.48844 0.76812 0.0
N2500 N 0.37654 0.40376 0.78354 0.0
N2501 N 0.37209 0.46445 0.76695 0.0
H2502 H 0.20774 0.62139 0.22373 0.0
H2503 H 0.31232 0.7227 0.29725 0.0
H2504 H 0.25475 0.60282 0.27385 0.0
H2505 H 0.2527 0.74113 0.27061 0.0
H2506 H 0.29303 0.67828 0.28723 0.0
H2507 H 0.2262 0.66541 0.23782 0.0
C2508 C 0.22203 0.62656 0.23757 0.0
C2509 C 0.22973 0.6085 0.24767 0.0
C2510 C 0.28413 0.69208 0.28384 0.0
C2511 C 0.25071 0.65868 0.26401 0.0
C2512 C 0.29512 0.71722 0.28941 0.0
C2513 C 0.2841 0.73497 0.28378 0.0
C2514 C 0.26209 0.68509 0.27277 0.0
C2515 C 0.26175 0.72755 0.27434 0.0
C2516 C 0.2324 0.65168 0.24578 0.0
C2517 C 0.24826 0.61622 0.26564 0.0
N2518 N 0.25147 0.703 0.26879 0.0
N2519 N 0.25821 0.64081 0.27322 0.0
H2520 H 0.54332 0.72793 0.51028 0.0
H2521 H 0.54518 0.58521 0.45791 0.0
H2522 H 0.52416 0.69038 0.4336 0.0
H2523 H 0.54511 0.61393 0.53618 0.0
H2524 H 0.54109 0.62512 0.44927 0.0
H2525 H 0.54722 0.68825 0.52055 0.0
C2526 C 0.53982 0.71137 0.49557 0.0
C2527 C 0.5333 0.71271 0.47096 0.0
C2528 C 0.54209 0.6229 0.46839 0.0
C2529 C 0.53807 0.66699 0.48271 0.0
C2530 C 0.54452 0.60007 0.47338 0.0
C2531 C 0.54591 0.59623 0.49787 0.0
C2532 C 0.54098 0.64246 0.48798 0.0
C2533 C 0.54461 0.61617 0.51707 0.0
C2534 C 0.54205 0.68867 0.50152 0.0
C2535 C 0.52908 0.69044 0.45283 0.0
N2536 N 0.54236 0.63845 0.51174 0.0
N2537 N 0.53167 0.66871 0.45902 0.0
H2538 H 0.68099 0.29864 0.62096 0.0
H2539 H 0.73584 0.30724 0.75939 0.0
H2540 H 0.65111 0.32463 0.68632 0.0
H2541 H 0.76478 0.28394 0.69252 0.0
H2542 H 0.70455 0.31327 0.73378 0.0
H2543 H 0.71165 0.29332 0.6475 0.0
C2544 C 0.68087 0.30336 0.64094 0.0
C2545 C 0.66329 0.31213 0.6513 0.0
C2546 C 0.71774 0.30676 0.72473 0.0
C2547 C 0.69869 0.30578 0.68215 0.0
C2548 C 0.73568 0.30325 0.73935 0.0
C2549 C 0.75323 0.29496 0.72822 0.0
C2550 C 0.71723 0.30198 0.69868 0.0
C2551 C 0.75179 0.29006 0.70212 0.0
C2552 C 0.69846 0.30025 0.65616 0.0
C2553 C 0.66428 0.31792 0.67743 0.0
N2554 N 0.73427 0.29369 0.68836 0.0
N2555 N 0.6816 0.31456 0.69193 0.0
H2556 H 0.02342 0.3509 0.01175 0.0
H2557 H 0.0534 0.47467 0.95597 0.0
H2558 H 0.04224 0.35188 0.93784 0.0
H2559 H 0.05498 0.47805 0.03487 0.0
H2560 H 0.04446 0.42913 0.94871 0.0
H2561 H 0.03069 0.39672 0.02037 0.0
C2562 C 0.02915 0.36068 0.99735 0.0
C2563 C 0.03225 0.34733 0.97401 0.0
C2564 C 0.04654 0.43973 0.96763 0.0
C2565 C 0.04031 0.3999 0.98372 0.0
C2566 C 0.05153 0.46577 0.97178 0.0
C2567 C 0.05455 0.48024 0.99602 0.0
C2568 C 0.04459 0.42777 0.98787 0.0
C2569 C 0.05228 0.46766 0.01584 0.0
C2570 C 0.03329 0.38687 1.00232 0.0
C2571 C 0.03967 0.36118 0.95614 0.0
N2572 N 0.04737 0.44215 0.01134 0.0
N2573 N 0.0433 0.38654 0.96131 0.0
H2574 H 0.0207 0.84438 0.14091 0.0
H2575 H 0.97024 0.77023 0.24284 0.0
H2576 H 0.05512 0.79989 0.1776 0.0
H2577 H 0.94283 0.82767 0.21968 0.0
H2578 H 0.9995 0.77817 0.21604 0.0
H2579 H 0.99056 0.83622 0.1669 0.0
C2580 C 0.02197 0.83293 0.15446 0.0
C2581 C 0.04056 0.82284 0.15706 0.0
C2582 C 0.98711 0.78906 0.21679 0.0
C2583 C 1.00587 0.81319 0.18674 0.0
C2584 C 0.97036 0.7846 0.23219 0.0
C2585 C 0.95409 0.79856 0.23396 0.0
C2586 C 0.98768 0.8075 0.20267 0.0
C2587 C 0.95489 0.81637 0.21897 0.0
C2588 C 1.00472 0.82829 0.16931 0.0
C2589 C 0.04122 0.80817 0.17499 0.0
N2590 N 0.97143 0.82038 0.20406 0.0
N2591 N 0.02411 0.8037 0.18901 0.0
H2592 H 0.5273 0.33845 0.14159 0.0
H2593 H 0.534 0.35496 1.00152 0.0
H2594 H 0.52364 0.2769 0.07992 0.0
H2595 H 0.56248 0.41425 0.06505 0.0
H2596 H 0.5248 0.32638 0.02973 0.0
H2597 H 0.53441 0.36726 0.11315 0.0
C2598 C 0.52784 0.33102 0.12206 0.0
C2599 C 0.52499 0.30535 0.11304 0.0
C2600 C 0.53305 0.34569 0.0374 0.0
C2601 C 0.53296 0.33794 0.08062 0.0
C2602 C 0.53845 0.36195 0.02132 0.0
C2603 C 0.54901 0.38704 0.03087 0.0
C2604 C 0.53805 0.35468 0.06316 0.0
C2605 C 0.55397 0.39518 0.05681 0.0
C2606 C 0.53199 0.34742 0.10591 0.0
C2607 C 0.52591 0.29662 0.08762 0.0
N2608 N 0.54836 0.37905 0.07206 0.0
N2609 N 0.52979 0.31291 0.07225 0.0
H2610 H 0.07001 0.33783 0.32985 0.0
H2611 H 0.94103 0.30049 0.28328 0.0
H2612 H 0.02415 0.27681 0.34985 0.0
H2613 H 0.98154 0.37495 0.28988 0.0
H2614 H 0.97296 0.288 0.30026 0.0
H2615 H 0.03914 0.34787 0.30744 0.0
C2616 C 0.05348 0.32632 0.32923 0.0
C2617 C 0.04957 0.30645 0.34174 0.0
C2618 C 0.97485 0.30703 0.29787 0.0
C2619 C 0.01435 0.31787 0.31618 0.0
C2620 C 0.95663 0.31425 0.28831 0.0
C2621 C 0.9585 0.33897 0.28552 0.0
C2622 C 0.9952 0.32451 0.30437 0.0
C2623 C 0.97933 0.35571 0.29161 0.0
C2624 C 0.03591 0.33218 0.31658 0.0
C2625 C 0.02784 0.29232 0.34052 0.0
N2626 N 0.99689 0.34819 0.30086 0.0
N2627 N 0.011 0.29831 0.32794 0.0
H2628 H 0.99847 0.68648 0.65823 0.0
H2629 H 0.05475 0.62957 0.54592 0.0
H2630 H 0.9905 0.70445 0.58587 0.0
H2631 H 0.03357 0.58635 0.60073 0.0
H2632 H 0.03389 0.65955 0.56301 0.0
H2633 H 0.01226 0.65047 0.63952 0.0
C2634 C 0.999 0.68239 0.63828 0.0
C2635 C 0.99349 0.69849 0.62355 0.0
C2636 C 0.03367 0.64344 0.57121 0.0
C2637 C 0.00973 0.65797 0.60235 0.0
C2638 C 0.0456 0.6264 0.56155 0.0
C2639 C 0.04539 0.60529 0.57166 0.0
C2640 C 0.0219 0.63964 0.59153 0.0
C2641 C 0.03407 0.60248 0.59249 0.0
C2642 C 0.00694 0.66194 0.62769 0.0
C2643 C 0.99454 0.69248 0.59786 0.0
N2644 N 0.0227 0.61958 0.60185 0.0
N2645 N 1.00301 0.67292 0.58811 0.0
H2646 H 0.65585 0.82688 0.80071 0.0
H2647 H 0.77503 0.80941 0.84517 0.0
H2648 H 0.67161 0.79921 0.8661 0.0
H2649 H 0.75886 0.8213 0.77183 0.0
H2650 H 0.73787 0.81179 0.85503 0.0
H2651 H 0.69395 0.82887 0.79052 0.0
C2652 C 0.66723 0.82109 0.81279 0.0
C2653 C 0.6606 0.81292 0.83429 0.0
C2654 C 0.74234 0.81387 0.83674 0.0
C2655 C 0.70395 0.81576 0.82317 0.0
C2656 C 0.76349 0.81251 0.83117 0.0
C2657 C 0.76931 0.81393 0.80736 0.0
C2658 C 0.72712 0.81712 0.81842 0.0
C2659 C 0.75436 0.81899 0.79006 0.0
C2660 C 0.68893 0.82238 0.80706 0.0
C2661 C 0.67595 0.80566 0.84934 0.0
N2662 N 0.73366 0.82012 0.79583 0.0
N2663 N 0.69691 0.80739 0.84355 0.0
H2664 H 0.50341 0.61746 0.71746 0.0
H2665 H 0.50502 0.52369 0.58626 0.0
H2666 H 0.46072 0.54357 0.69838 0.0
H2667 H 0.54936 0.59621 0.61056 0.0
H2668 H 0.48825 0.52995 0.62566 0.0
H2669 H 0.51954 0.60935 0.6784 0.0
C2670 C 0.49728 0.59938 0.70518 0.0
C2671 C 0.48037 0.5813 0.71197 0.0
C2672 C 0.50168 0.54452 0.62248 0.0
C2673 C 0.49937 0.57172 0.6656 0.0
C2674 C 0.51137 0.54098 0.59974 0.0
C2675 C 0.52901 0.55934 0.59449 0.0
C2676 C 0.50937 0.56674 0.64067 0.0
C2677 C 0.5361 0.58126 0.61329 0.0
C2678 C 0.50668 0.59476 0.68255 0.0
C2679 C 0.47363 0.55827 0.69453 0.0
N2680 N 0.52638 0.58424 0.6351 0.0
N2681 N 0.48299 0.55426 0.67241 0.0
H2682 H 0.75796 0.12997 0.92552 0.0
H2683 H 0.77708 0.26625 0.89555 0.0
H2684 H 0.8001 0.19615 0.97273 0.0
H2685 H 0.73223 0.20121 0.84971 0.0
H2686 H 0.78896 0.2398 0.9214 0.0
H2687 H 0.75142 0.15481 0.89506 0.0
C2688 C 0.76599 0.14966 0.92937 0.0
C2689 C 0.77942 0.16107 0.95175 0.0
C2690 C 0.77658 0.23128 0.90563 0.0
C2691 C 0.77198 0.18954 0.91714 0.0
C2692 C 0.76987 0.24635 0.89076 0.0
C2693 C 0.75347 0.23594 0.87055 0.0
C2694 C 0.76676 0.2056 0.90036 0.0
C2695 C 0.74458 0.21008 0.86541 0.0
C2696 C 0.76223 0.16383 0.91202 0.0
C2697 C 0.78947 0.18662 0.95579 0.0
N2698 N 0.75124 0.1958 0.88033 0.0
N2699 N 0.78542 0.20003 0.93871 0.0
H2700 H 0.18314 0.5278 0.17203 0.0
H2701 H 0.06482 0.50543 0.09616 0.0
H2702 H 0.12298 0.49023 0.19709 0.0
H2703 H 0.12346 0.55923 0.08689 0.0
H2704 H 0.08582 0.49517 0.13022 0.0
H2705 H 0.16147 0.53355 0.13637 0.0
C2706 C 0.16536 0.52041 0.16984 0.0
C2707 C 0.15479 0.50866 0.18763 0.0
C2708 C 0.09397 0.50922 0.12066 0.0
C2709 C 0.12988 0.51549 0.14697 0.0
C2710 C 0.08201 0.51519 0.10137 0.0
C2711 C 0.09242 0.53321 0.0887 0.0
C2712 C 0.11643 0.52117 0.12696 0.0
C2713 C 0.11475 0.54514 0.09603 0.0
C2714 C 0.15299 0.52387 0.14955 0.0
C2715 C 0.13174 0.49942 0.18379 0.0
N2716 N 0.12603 0.5388 0.11462 0.0
N2717 N 0.11995 0.50321 0.16386 0.0
H2718 H 0.80237 0.83523 0.46919 0.0
H2719 H 0.82813 0.86204 0.34275 0.0
H2720 H 0.86752 0.87868 0.46335 0.0
H2721 H 0.80986 0.78375 0.34421 0.0
H2722 H 0.83654 0.87179 0.3881 0.0
H2723 H 0.7984 0.81807 0.42403 0.0
C2724 C 0.81592 0.84083 0.45852 0.0
C2725 C 0.83532 0.85834 0.47 0.0
C2726 C 0.83094 0.85248 0.37842 0.0
C2727 C 0.83067 0.83934 0.41884 0.0
C2728 C 0.82619 0.84692 0.3527 0.0
C2729 C 0.81893 0.82208 0.3399 0.0
C2730 C 0.82738 0.83313 0.3915 0.0
C2731 C 0.81606 0.80309 0.35354 0.0
C2732 C 0.81368 0.83097 0.43292 0.0
C2733 C 0.85235 0.8651 0.45532 0.0
N2734 N 0.82001 0.80903 0.37885 0.0
N2735 N 0.84944 0.85601 0.4304 0.0
H2736 H 0.51616 0.5623 0.8364 0.0
H2737 H 0.49564 0.55707 0.97921 0.0
H2738 H 0.45675 0.57479 0.86722 0.0
H2739 H 0.55849 0.5546 0.95183 0.0
H2740 H 0.48098 0.56138 0.93834 0.0
H2741 H 0.53112 0.55791 0.87713 0.0
C2742 C 0.50612 0.56428 0.85167 0.0
C2743 C 0.4849 0.56912 0.84767 0.0
C2744 C 0.49795 0.55978 0.94102 0.0
C2745 C 0.50245 0.56364 0.89565 0.0
C2746 C 0.50646 0.5572 0.96457 0.0
C2747 C 0.52849 0.55517 0.96954 0.0
C2748 C 0.51133 0.56043 0.9214 0.0
C2749 C 0.54139 0.55574 0.94931 0.0
C2750 C 0.51485 0.56169 0.87518 0.0
C2751 C 0.47314 0.57129 0.86884 0.0
N2752 N 0.53267 0.55822 0.92642 0.0
N2753 N 0.48194 0.56845 0.89152 0.0
H2754 H 0.80331 0.23675 0.0674 0.0
H2755 H 0.79182 0.22809 0.20858 0.0
H2756 H 0.81052 0.17307 0.09784 0.0
H2757 H 0.80717 0.29872 0.18552 0.0
H2758 H 0.79355 0.20681 0.16628 0.0
H2759 H 0.80128 0.2595 0.10944 0.0
C2760 C 0.80475 0.22768 0.08292 0.0
C2761 C 0.80704 0.20299 0.07914 0.0
C2762 C 0.79648 0.22696 0.17046 0.0
C2763 C 0.80426 0.22858 0.12688 0.0
C2764 C 0.79529 0.23913 0.19458 0.0
C2765 C 0.7996 0.26524 0.20062 0.0
C2766 C 0.80178 0.24099 0.15222 0.0
C2767 C 0.80398 0.27855 0.18165 0.0
C2768 C 0.8035 0.24062 0.10683 0.0
C2769 C 0.80877 0.19209 0.09987 0.0
N2770 N 0.80504 0.26626 0.15821 0.0
N2771 N 0.80712 0.20489 0.12283 0.0
H2772 H 0.13419 0.57542 0.2692 0.0
H2773 H 0.11345 0.57789 0.41063 0.0
H2774 H 0.16558 0.5363 0.31602 0.0
H2775 H 0.07182 0.60253 0.35954 0.0
H2776 H 0.13376 0.56394 0.37651 0.0
H2777 H 0.11202 0.58692 0.30249 0.0
C2778 C 0.1363 0.56911 0.28642 0.0
C2779 C 0.15174 0.55495 0.28992 0.0
C2780 C 0.12013 0.5723 0.37274 0.0
C2781 C 0.12661 0.56813 0.328 0.0
C2782 C 0.10846 0.58018 0.39217 0.0
C2783 C 0.09081 0.59126 0.38783 0.0
C2784 C 0.11425 0.57573 0.34886 0.0
C2785 C 0.08544 0.59431 0.3637 0.0
C2786 C 0.12365 0.57567 0.30539 0.0
C2787 C 0.15384 0.54725 0.31256 0.0
N2788 N 0.09716 0.5866 0.34508 0.0
N2789 N 0.14148 0.55409 0.33084 0.0
H2790 H 0.80641 0.81805 0.57794 0.0
H2791 H 0.82177 0.86059 0.72652 0.0
H2792 H 0.82343 0.89528 0.61644 0.0
H2793 H 0.79805 0.78448 0.68671 0.0
H2794 H 0.82417 0.87397 0.68659 0.0
H2795 H 0.80437 0.80553 0.61794 0.0
C2796 C 0.80971 0.83238 0.5948 0.0
C2797 C 0.8151 0.85774 0.59382 0.0
C2798 C 0.81806 0.85437 0.68661 0.0
C2799 C 0.81283 0.84354 0.63975 0.0
C2800 C 0.81669 0.8468 0.70932 0.0
C2801 C 0.80864 0.82158 0.70971 0.0
C2802 C 0.81168 0.83645 0.66427 0.0
C2803 C 0.80294 0.80424 0.68711 0.0
C2804 C 0.80853 0.82523 0.61766 0.0
C2805 C 0.81921 0.8755 0.61631 0.0
N2806 N 0.80451 0.81199 0.66529 0.0
N2807 N 0.81802 0.86806 0.63837 0.0
H2808 H 0.80425 0.5213 0.5357 0.0
H2809 H 0.68193 0.52933 0.5539 0.0
H2810 H 0.74832 0.45831 0.51096 0.0
H2811 H 0.73004 0.59368 0.54311 0.0
H2812 H 0.70771 0.50353 0.54261 0.0
H2813 H 0.77875 0.54883 0.54203 0.0
C2814 C 0.78662 0.51331 0.53134 0.0
C2815 C 0.77829 0.48748 0.52306 0.0
C2816 C 0.71259 0.52327 0.54257 0.0
C2817 C 0.74933 0.51872 0.53043 0.0
C2818 C 0.6979 0.53806 0.54897 0.0
C2819 C 0.70367 0.56367 0.54891 0.0
C2820 C 0.7335 0.53418 0.53669 0.0
C2821 C 0.72494 0.57404 0.54338 0.0
C2822 C 0.77216 0.52903 0.53489 0.0
C2823 C 0.75539 0.47809 0.51753 0.0
N2824 N 0.73921 0.55919 0.53751 0.0
N2825 N 0.74164 0.49372 0.52163 0.0
H2826 H 0.23654 0.12012 0.48521 0.0
H2827 H 0.11995 0.11519 0.53593 0.0
H2828 H 0.21262 0.1854 0.51377 0.0
H2829 H 0.13089 0.05274 0.48319 0.0
H2830 H 0.15525 0.13999 0.52969 0.0
H2831 H 0.19937 0.09398 0.48549 0.0
C2832 C 0.22346 0.12898 0.4913 0.0
C2833 C 0.22772 0.155 0.49965 0.0
C2834 C 0.14998 0.12088 0.51936 0.0
C2835 C 0.18544 0.12526 0.50019 0.0
C2836 C 0.12973 0.10655 0.52298 0.0
C2837 C 0.12235 0.0816 0.51023 0.0
C2838 C 0.16336 0.11028 0.50311 0.0
C2839 C 0.13596 0.07176 0.49359 0.0
C2840 C 0.20228 0.11405 0.49139 0.0
C2841 C 0.21017 0.16546 0.50728 0.0
N2842 N 0.15599 0.08607 0.49069 0.0
N2843 N 0.1899 0.15055 0.50759 0.0
H2844 H 0.22118 0.95126 0.8037 0.0
H2845 H 0.2842 0.84581 0.73829 0.0
H2846 H 0.23193 0.93937 0.72631 0.0
H2847 H 0.27382 0.85838 0.8157 0.0
H2848 H 0.26632 0.88034 0.7336 0.0
H2849 H 0.24067 0.91813 0.80859 0.0
C2850 C 0.22755 0.94191 0.78768 0.0
C2851 C 0.22452 0.94878 0.76448 0.0
C2852 C 0.26804 0.87567 0.7517 0.0
C2853 C 0.24743 0.90988 0.77005 0.0
C2854 C 0.27852 0.85589 0.75442 0.0
C2855 C 0.28109 0.84889 0.7776 0.0
C2856 C 0.2596 0.88882 0.77216 0.0
C2857 C 0.27262 0.86284 0.79745 0.0
C2858 C 0.23881 0.92277 0.7905 0.0
C2859 C 0.23351 0.93528 0.74468 0.0
N2860 N 0.26247 0.88168 0.79432 0.0
N2861 N 0.24429 0.91692 0.74788 0.0
H2862 H 0.38991 0.01911 0.01786 0.0
H2863 H 0.49826 0.96638 0.01667 0.0
H2864 H 0.40106 0.96676 0.06268 0.0
H2865 H 0.50113 0.04375 0.0165 0.0
H2866 H 0.45871 0.96037 0.02206 0.0
H2867 H 0.42799 0.02334 0.00681 0.0
C2868 C 0.40046 1.00878 0.02558 0.0
C2869 C 0.39253 0.9929 0.0415 0.0
C2870 C 0.46809 0.97852 0.02032 0.0
C2871 C 0.43534 0.99678 0.02814 0.0
C2872 C 0.49052 0.98193 0.01708 0.0
C2873 C 0.50309 1.00559 0.01587 0.0
C2874 C 0.45819 0.99885 0.02197 0.0
C2875 C 0.49227 0.02516 0.01684 0.0
C2876 C 0.422 0.01105 0.01914 0.0
C2877 C 0.40668 0.97957 0.05072 0.0
N2878 N 0.47043 0.02138 0.0198 0.0
N2879 N 0.42739 0.98163 0.04371 0.0
H2880 H 0.87195 0.59682 0.82355 0.0
H2881 H 0.87225 0.69937 0.75028 0.0
H2882 H 0.93252 0.64933 0.81802 0.0
H2883 H 0.81461 0.6681 0.78353 0.0
H2884 H 0.89547 0.68595 0.78006 0.0
H2885 H 0.85106 0.62687 0.81539 0.0
C2886 C 0.88087 0.61503 0.82136 0.0
C2887 C 0.90385 0.62051 0.82084 0.0
C2888 C 0.8778 0.68257 0.78125 0.0
C2889 C 0.88018 0.65465 0.81098 0.0
C2890 C 0.8646 0.68994 0.7641 0.0
C2891 C 0.84159 0.68415 0.76419 0.0
C2892 C 0.86773 0.66887 0.79806 0.0
C2893 C 0.83235 0.67255 0.78275 0.0
C2894 C 0.86897 0.63221 0.81675 0.0
C2895 C 0.91473 0.64435 0.81821 0.0
N2896 N 0.84543 0.66476 0.79865 0.0
N2897 N 0.9027 0.66039 0.81262 0.0
H2898 H 0.83121 0.6213 1.00163 0.0
H2899 H 0.95316 0.61182 0.04606 0.0
H2900 H 0.88538 0.68559 0.02923 0.0
H2901 H 0.89877 0.54797 0.01773 0.0
H2902 H 0.92921 0.6392 0.0381 0.0
H2903 H 0.85628 0.59423 0.00581 0.0
C2904 C 0.84842 0.62975 0.00846 0.0
C2905 C 0.8562 0.65576 0.01517 0.0
C2906 C 0.92253 0.6192 0.0336 0.0
C2907 C 0.88502 0.62482 0.02004 0.0
C2908 C 0.93621 0.60354 0.03801 0.0
C2909 C 0.9279 0.57755 0.03268 0.0
C2910 C 0.90035 0.60881 0.02386 0.0
C2911 C 0.90575 0.5679 0.02255 0.0
C2912 C 0.86273 0.61426 0.01085 0.0
C2913 C 0.87867 0.66563 0.0239 0.0
N2914 N 0.89273 0.58354 0.01853 0.0
N2915 N 0.89229 0.65012 0.02617 0.0
H2916 H 0.20157 0.1004 0.7401 0.0
H2917 H 0.30482 0.2127 0.80669 0.0
H2918 H 0.24387 0.09204 0.8015 0.0
H2919 H 0.25331 0.2186 0.75361 0.0
H2920 H 0.2851 0.16902 0.80503 0.0
H2921 H 0.22224 0.14315 0.74467 0.0
C2922 C 0.21527 0.10742 0.75466 0.0
C2923 C 0.22074 0.09198 0.77036 0.0
C2924 C 0.27815 0.17991 0.79376 0.0
C2925 C 0.24521 0.14241 0.77574 0.0
C2926 C 0.28951 0.20494 0.79457 0.0
C2927 C 0.28106 0.21975 0.78005 0.0
C2928 C 0.25811 0.1693 0.77819 0.0
C2929 C 0.26082 0.20836 0.76511 0.0
C2930 C 0.22717 0.1322 0.75729 0.0
C2931 C 0.23882 0.10293 0.7889 0.0
N2932 N 0.25031 0.18416 0.76454 0.0
N2933 N 0.25042 0.1273 0.79098 0.0
H2934 H 0.42476 0.96998 0.31297 0.0
H2935 H 0.31525 0.86147 0.26768 0.0
H2936 H 0.35965 0.98377 0.30145 0.0
H2937 H 0.38081 0.84896 0.27766 0.0
H2938 H 0.33071 0.90638 0.28165 0.0
H2939 H 0.40836 0.92534 0.30269 0.0
C2940 C 0.40698 0.9636 0.30847 0.0
C2941 C 0.39355 0.98053 0.30787 0.0
C2942 C 0.34171 0.89382 0.28089 0.0
C2943 C 0.3747 0.92953 0.29582 0.0
C2944 C 0.33287 0.86826 0.27311 0.0
C2945 C 0.34677 0.85173 0.27253 0.0
C2946 C 0.36461 0.90268 0.28766 0.0
C2947 C 0.36959 0.86128 0.27838 0.0
C2948 C 0.39762 0.93811 0.30253 0.0
C2949 C 0.3706 0.97129 0.30204 0.0
N2950 N 0.37782 0.88619 0.28596 0.0
N2951 N 0.36188 0.94632 0.29605 0.0
H2952 H 0.57891 0.36244 0.53787 0.0
H2953 H 0.57355 0.5037 0.59261 0.0
H2954 H 0.59646 0.3984 0.61517 0.0
H2955 H 0.5743 0.47636 0.51422 0.0
H2956 H 0.57867 0.4639 0.60068 0.0
H2957 H 0.57429 0.4022 0.52848 0.0
C2958 C 0.58192 0.37868 0.55291 0.0
C2959 C 0.5882 0.37684 0.57742 0.0
C2960 C 0.5776 0.46641 0.58166 0.0
C2961 C 0.58258 0.42271 0.56668 0.0
C2962 C 0.57457 0.48917 0.57699 0.0
C2963 C 0.57304 0.49336 0.55263 0.0
C2964 C 0.57917 0.44726 0.56186 0.0
C2965 C 0.57486 0.47385 0.53323 0.0
C2966 C 0.57927 0.40144 0.54747 0.0
C2967 C 0.59177 0.39873 0.596 0.0
N2968 N 0.57768 0.45164 0.53824 0.0
N2969 N 0.58877 0.42053 0.59028 0.0
H2970 H 0.46594 0.75028 0.36047 0.0
H2971 H 0.35535 0.80156 0.35225 0.0
H2972 H 0.4425 0.79298 0.42247 0.0
H2973 H 0.37434 0.75521 0.2895 0.0
H2974 H 0.3871 0.79759 0.3779 0.0
H2975 H 0.43282 0.75102 0.33389 0.0
C2976 C 0.45383 0.75966 0.36857 0.0
C2977 C 0.45715 0.77159 0.39386 0.0
C2978 C 0.38442 0.78826 0.35849 0.0
C2979 C 0.41919 0.77261 0.36345 0.0
C2980 C 0.36614 0.7905 0.34371 0.0
C2981 C 0.36218 0.77914 0.31828 0.0
C2982 C 0.39908 0.77443 0.34803 0.0
C2983 C 0.37689 0.76485 0.3087 0.0
C2984 C 0.43493 0.76011 0.35335 0.0
C2985 C 0.44083 0.78353 0.40317 0.0
N2986 N 0.3947 0.76301 0.32348 0.0
N2987 N 0.42275 0.78377 0.38805 0.0
H2988 H 0.11531 0.74395 0.04446 0.0
H2989 H 0.07104 0.61977 0.09317 0.0
H2990 H 0.07502 0.74157 0.10519 0.0
H2991 H 0.0747 0.61579 0.0147 0.0
H2992 H 0.07923 0.6653 0.09991 0.0
H2993 H 0.10664 0.69794 0.03477 0.0
C2994 C 0.10449 0.7338 0.05562 0.0
C2995 C 0.09577 0.74678 0.0756 0.0
C2996 C 0.07847 0.65452 0.08123 0.0
C2997 C 0.08636 0.69414 0.065 0.0
C2998 C 0.07393 0.62851 0.07736 0.0
C2999 C 0.07263 0.61386 0.0534 0.0
C3000 C 0.082 0.66631 0.06104 0.0
C3001 C 0.07616 0.62631 0.03357 0.0
C3002 C 0.09957 0.70756 0.05004 0.0
C3003 C 0.08195 0.73252 0.08947 0.0
N3004 N 0.08089 0.65183 0.03785 0.0
N3005 N 0.07795 0.70711 0.08413 0.0
H3006 H 0.06344 0.26575 0.86031 0.0
H3007 H 0.19337 0.30582 0.84731 0.0
H3008 H 0.11346 0.29403 0.92332 0.0
H3009 H 0.14314 0.2729 0.78514 0.0
H3010 H 0.1647 0.30064 0.87563 0.0
H3011 H 0.09262 0.26787 0.83261 0.0
C3012 C 0.08055 0.27238 0.86835 0.0
C3013 C 0.08596 0.27975 0.89422 0.0
C3014 C 0.15998 0.29449 0.85578 0.0
C3015 C 0.11958 0.28225 0.86252 0.0
C3016 C 0.17638 0.29729 0.83959 0.0
C3017 C 0.1707 0.29004 0.81371 0.0
C3018 C 0.1377 0.28437 0.84607 0.0
C3019 C 0.14831 0.27929 0.80487 0.0
C3020 C 0.09725 0.27356 0.8525 0.0
C3021 C 0.10848 0.28816 0.90351 0.0
N3022 N 0.13269 0.27691 0.82096 0.0
N3023 N 0.12442 0.28923 0.8877 0.0
H3024 H 0.58067 0.81128 0.97027 0.0
H3025 H 0.60322 0.69042 0.01181 0.0
H3026 H 0.60641 0.75585 0.92312 0.0
H3027 H 0.55521 0.72867 0.04358 0.0
H3028 H 0.60874 0.71784 0.9823 0.0
H3029 H 0.57499 0.78434 1.0005 0.0
C3030 C 0.58509 0.79344 0.96629 0.0
C3031 C 0.59404 0.78572 0.94426 0.0
C3032 C 0.59705 0.72026 0.99578 0.0
C3033 C 0.58782 0.75518 0.97865 0.0
C3034 C 0.59386 0.70465 0.01261 0.0
C3035 C 0.57853 0.70715 0.03002 0.0
C3036 C 0.58514 0.73881 0.99663 0.0
C3037 C 0.56729 0.72627 0.03061 0.0
C3038 C 0.5818 0.77811 0.98347 0.0
C3039 C 0.5994 0.76243 0.93988 0.0
N3040 N 0.5708 0.74142 0.01406 0.0
N3041 N 0.59633 0.74799 0.95706 0.0
H3042 H 0.07258 0.71917 0.67358 0.0
H3043 H 0.17421 0.77358 0.77708 0.0
H3044 H 0.07632 0.78656 0.7282 0.0
H3045 H 0.15297 0.69525 0.74326 0.0
H3046 H 0.13985 0.78021 0.75817 0.0
H3047 H 0.10389 0.71158 0.69723 0.0
C3048 C 0.08007 0.73243 0.69055 0.0
C3049 C 0.07201 0.75361 0.69894 0.0
C3050 C 0.14259 0.76154 0.75523 0.0
C3051 C 0.10778 0.74501 0.72602 0.0
C3052 C 0.16214 0.75777 0.76591 0.0
C3053 C 0.1663 0.73384 0.76164 0.0
C3054 C 0.1274 0.7413 0.73984 0.0
C3055 C 0.15024 0.71392 0.74712 0.0
C3056 C 0.0978 0.72796 0.70413 0.0
C3057 C 0.08213 0.77003 0.72116 0.0
N3058 N 0.13157 0.71815 0.73645 0.0
N3059 N 0.09972 0.76551 0.73388 0.0
H3060 H 0.12229 0.412 0.38219 0.0
H3061 H 0.08788 0.46879 0.51304 0.0
H3062 H 0.11812 0.37511 0.44443 0.0
H3063 H 0.1015 0.51104 0.4557 0.0
H3064 H 0.10112 0.43514 0.48878 0.0
H3065 H 0.11715 0.44961 0.4094 0.0
C3066 C 0.12059 0.41192 0.40162 0.0
C3067 C 0.12035 0.39036 0.41102 0.0
C3068 C 0.10157 0.4519 0.48162 0.0
C3069 C 0.11433 0.43303 0.44204 0.0
C3070 C 0.09424 0.47121 0.49562 0.0
C3071 C 0.09413 0.49281 0.48654 0.0
C3072 C 0.10846 0.45412 0.45821 0.0
C3073 C 0.10142 0.49457 0.46327 0.0
C3074 C 0.11764 0.43335 0.41712 0.0
C3075 C 0.11819 0.39126 0.43634 0.0
N3076 N 0.10824 0.47535 0.44978 0.0
N3077 N 0.11502 0.41218 0.45092 0.0
H3078 H 0.46772 0.27132 0.24042 0.0
H3079 H 0.34241 0.26767 0.21867 0.0
H3080 H 0.42912 0.23178 0.17102 0.0
H3081 H 0.36947 0.25996 0.28999 0.0
H3082 H 0.3753 0.25848 0.20069 0.0
H3083 H 0.43318 0.27098 0.25985 0.0
C3084 C 0.45193 0.26287 0.22933 0.0
C3085 C 0.45095 0.2518 0.20421 0.0
C3086 C 0.37396 0.25856 0.22021 0.0
C3087 C 0.41198 0.25228 0.2257 0.0
C3088 C 0.35534 0.26388 0.23042 0.0
C3089 C 0.35373 0.26492 0.25576 0.0
C3090 C 0.39117 0.25483 0.23567 0.0
C3091 C 0.37055 0.25959 0.27038 0.0
C3092 C 0.43237 0.2626 0.24035 0.0
C3093 C 0.43033 0.24061 0.19049 0.0
N3094 N 0.38899 0.25525 0.2602 0.0
N3095 N 0.41154 0.24156 0.20132 0.0
H3096 H 0.66336 0.54701 0.35575 0.0
H3097 H 0.56807 0.49375 0.43975 0.0
H3098 H 0.61507 0.47696 0.33313 0.0
H3099 H 0.61464 0.56466 0.4652 0.0
H3100 H 0.58529 0.48814 0.40088 0.0
H3101 H 0.64651 0.55461 0.39525 0.0
C3102 C 0.64923 0.53323 0.35882 0.0
C3103 C 0.64089 0.51119 0.34044 0.0
C3104 C 0.59183 0.50501 0.41487 0.0
C3105 C 0.6212 0.51989 0.38648 0.0
C3106 C 0.58182 0.50831 0.4373 0.0
C3107 C 0.58947 0.52988 0.45632 0.0
C3108 C 0.61005 0.52327 0.41077 0.0
C3109 C 0.60783 0.54768 0.45145 0.0
C3110 C 0.63957 0.53759 0.38161 0.0
C3111 C 0.62243 0.49423 0.34624 0.0
N3112 N 0.61733 0.54401 0.42949 0.0
N3113 N 0.61345 0.49889 0.3683 0.0
H3114 H 0.32119 0.92459 0.08735 0.0
H3115 H 0.36112 0.80202 0.10162 0.0
H3116 H 0.35627 0.88668 0.03321 0.0
H3117 H 0.34263 0.85096 0.16295 0.0
H3118 H 0.35729 0.83154 0.07524 0.0
H3119 H 0.32612 0.89586 0.11435 0.0
C3120 C 0.32986 0.91018 0.08113 0.0
C3121 C 0.33833 0.90794 0.05806 0.0
C3122 C 0.35419 0.83586 0.09452 0.0
C3123 C 0.34404 0.87522 0.0887 0.0
C3124 C 0.35653 0.81911 0.1096 0.0
C3125 C 0.35216 0.82404 0.13445 0.0
C3126 C 0.34731 0.85754 0.10436 0.0
C3127 C 0.34584 0.84626 0.14375 0.0
C3128 C 0.33276 0.8939 0.09657 0.0
C3129 C 0.34951 0.88906 0.0509 0.0
N3130 N 0.34348 0.86216 0.12864 0.0
N3131 N 0.352 0.87336 0.06617 0.0
H3132 H 0.98449 0.5558 0.83946 0.0
H3133 H 0.01159 0.57406 0.98597 0.0
H3134 H 0.93806 0.56712 0.89308 0.0
H3135 H 0.05552 0.55092 0.93381 0.0
H3136 H 0.98714 0.57865 0.95187 0.0
H3137 H 0.01311 0.56015 0.87358 0.0
C3138 C 0.98036 0.5593 0.85841 0.0
C3139 C 0.95886 0.56088 0.86354 0.0
C3140 C 1.00221 0.57281 0.94778 0.0
C3141 C 0.99141 0.56605 0.90236 0.0
C3142 C 0.0161 0.57017 0.96721 0.0
C3143 C 0.03524 0.56182 0.96238 0.0
C3144 C 0.0075 0.56685 0.92336 0.0
C3145 C 0.04083 0.55748 0.93804 0.0
C3146 C 0.99669 0.56181 0.87781 0.0
C3147 C 0.95437 0.56554 0.88832 0.0
N3148 N 0.02676 0.55974 0.91918 0.0
N3149 N 0.97052 0.56788 0.90683 0.0
H3150 H 0.29457 0.19499 0.58553 0.0
H3151 H 0.31316 0.30493 0.70607 0.0
H3152 H 0.30437 0.2723 0.58018 0.0
H3153 H 0.30122 0.22648 0.70659 0.0
H3154 H 0.30719 0.2944 0.6602 0.0
H3155 H 0.29468 0.20709 0.63007 0.0
C3156 C 0.29676 0.2146 0.59373 0.0
C3157 C 0.29959 0.23267 0.57904 0.0
C3158 C 0.3056 0.27953 0.67042 0.0
C3159 C 0.29975 0.2468 0.63054 0.0
C3160 C 0.30882 0.28553 0.69649 0.0
C3161 C 0.30737 0.26644 0.70988 0.0
C3162 C 0.30118 0.25437 0.658 0.0
C3163 C 0.30232 0.24166 0.69682 0.0
C3164 C 0.29675 0.22152 0.61928 0.0
C3165 C 0.3022 0.25777 0.59084 0.0
N3166 N 0.29945 0.23636 0.67166 0.0
N3167 N 0.30235 0.26416 0.616 0.0
H3168 H 0.66807 0.51369 0.18701 0.0
H3169 H 0.56532 0.53828 0.10288 0.0
H3170 H 0.60938 0.52944 0.21727 0.0
H3171 H 0.62809 0.53354 0.07633 0.0
H3172 H 0.58021 0.53386 0.14421 0.0
H3173 H 0.653 0.5187 0.1461 0.0
C3174 C 0.65198 0.51796 0.18521 0.0
C3175 C 0.6402 0.52099 0.20623 0.0
C3176 C 0.59079 0.53384 0.12936 0.0
C3177 C 0.62249 0.52698 0.15854 0.0
C3178 C 0.58225 0.53657 0.10564 0.0
C3179 C 0.59539 0.53669 0.08566 0.0
C3180 C 0.61263 0.53066 0.13346 0.0
C3181 C 0.61717 0.53378 0.09085 0.0
C3182 C 0.64334 0.52099 0.16167 0.0
C3183 C 0.61937 0.52682 0.20205 0.0
N3184 N 0.6249 0.53086 0.11377 0.0
N3185 N 0.61134 0.52952 0.17911 0.0
H3186 H 0.30501 0.89852 0.96194 0.0
H3187 H 0.35753 0.85713 0.83847 0.0
H3188 H 0.36547 0.9407 0.94164 0.0
H3189 H 0.30673 0.80654 0.86579 0.0
H3190 H 0.36184 0.88678 0.8775 0.0
H3191 H 0.3054 0.8641 0.92746 0.0
C3192 C 0.31829 0.9006 0.95016 0.0
C3193 C 0.3351 0.92262 0.95441 0.0
C3194 C 0.34983 0.86912 0.87513 0.0
C3195 C 0.33578 0.8833 0.91537 0.0
C3196 C 0.34734 0.85209 0.85278 0.0
C3197 C 0.33104 0.82966 0.84845 0.0
C3198 C 0.33582 0.86383 0.89331 0.0
C3199 C 0.31884 0.82398 0.86798 0.0
C3200 C 0.31862 0.88085 0.93069 0.0
C3201 C 0.35208 0.92417 0.93888 0.0
N3202 N 0.32114 0.84124 0.88949 0.0
N3203 N 0.3519 0.90481 0.91995 0.0
H3204 H 0.99208 0.59283 0.75327 0.0
H3205 H 0.97712 0.50042 0.6214 0.0
H3206 H 0.92961 0.54526 0.71721 0.0
H3207 H 0.04029 0.54192 0.66117 0.0
H3208 H 0.9586 0.52366 0.65212 0.0
H3209 H 0.00896 0.58193 0.71514 0.0
C3210 C 0.98182 0.58048 0.7372 0.0
C3211 C 0.95956 0.5695 0.73853 0.0
C3212 C 0.97653 0.5279 0.65391 0.0
C3213 C 0.97873 0.5568 0.69511 0.0
C3214 C 0.98708 0.51451 0.63651 0.0
C3215 C 0.01024 0.51892 0.63901 0.0
C3216 C 0.98926 0.54571 0.67399 0.0
C3217 C 0.02239 0.53788 0.65853 0.0
C3218 C 0.99147 0.57421 0.71547 0.0
C3219 C 0.94697 0.5538 0.71711 0.0
N3220 N 0.01173 0.55036 0.67546 0.0
N3221 N 0.95682 0.54761 0.69639 0.0
H3222 H 0.31754 0.24452 0.46336 0.0
H3223 H 0.3061 0.22855 0.31546 0.0
H3224 H 0.29454 0.17403 0.41125 0.0
H3225 H 0.33209 0.29956 0.36567 0.0
H3226 H 0.30315 0.20837 0.35085 0.0
H3227 H 0.32417 0.26535 0.4283 0.0
C3228 C 0.31389 0.23344 0.44458 0.0
C3229 C 0.30543 0.20751 0.44019 0.0
C3230 C 0.30977 0.22835 0.3542 0.0
C3231 C 0.313 0.23111 0.40019 0.0
C3232 C 0.31147 0.23988 0.33397 0.0
C3233 C 0.31953 0.26577 0.33766 0.0
C3234 C 0.31604 0.24282 0.37838 0.0
C3235 C 0.32626 0.27953 0.362 0.0
C3236 C 0.31773 0.24532 0.42461 0.0
C3237 C 0.30108 0.19404 0.41553 0.0
N3238 N 0.32421 0.2679 0.38153 0.0
N3239 N 0.30486 0.20601 0.3965 0.0
H3240 H 0.34574 0.58862 0.56407 0.0
H3241 H 0.39761 0.50401 0.4614 0.0
H3242 H 0.33737 0.58775 0.48541 0.0
H3243 H 0.42056 0.52138 0.53973 0.0
H3244 H 0.36953 0.52801 0.47024 0.0
H3245 H 0.36809 0.55777 0.55563 0.0
C3246 C 0.34851 0.58184 0.54505 0.0
C3247 C 0.33988 0.59081 0.52543 0.0
C3248 C 0.38055 0.52628 0.48551 0.0
C3249 C 0.36508 0.55558 0.51567 0.0
C3250 C 0.39635 0.51242 0.4805 0.0
C3251 C 0.41131 0.51086 0.49989 0.0
C3252 C 0.37974 0.53845 0.51006 0.0
C3253 C 0.40933 0.52234 0.52429 0.0
C3254 C 0.36123 0.56429 0.54025 0.0
C3255 C 0.34391 0.58145 0.50111 0.0
N3256 N 0.39389 0.53583 0.52869 0.0
N3257 N 0.35627 0.56434 0.49691 0.0
H3258 H 0.8859 0.93823 0.51654 0.0
H3259 H 1.00039 0.02932 0.58241 0.0
H3260 H 0.89819 0.96541 0.59611 0.0
H3261 H 0.99131 0.98568 0.50742 0.0
H3262 H 0.96218 1.00957 0.58748 0.0
H3263 H 0.9236 0.95937 0.51252 0.0
C3264 C 0.89649 0.94876 0.5332 0.0
C3265 C 0.88885 0.95001 0.55673 0.0
C3266 C 0.96864 1.00433 0.56997 0.0
C3267 C 0.93223 0.9743 0.55219 0.0
C3268 C 0.9904 0.01563 0.56702 0.0
C3269 C 0.99908 1.00922 0.54442 0.0
C3270 C 0.95546 0.98665 0.55012 0.0
C3271 C 0.98541 0.99123 0.52519 0.0
C3272 C 0.91809 0.96076 0.53088 0.0
C3273 C 0.90341 0.96392 0.57762 0.0
N3274 N 0.9643 0.98068 0.52846 0.0
N3275 N 0.92444 0.97557 0.57487 0.0
H3276 H 0.90008 0.14683 0.31152 0.0
H3277 H 0.84624 0.2319 0.23159 0.0
H3278 H 0.89656 0.14026 0.23209 0.0
H3279 H 0.84538 0.24532 0.311 0.0
H3280 H 0.86386 0.1976 0.23352 0.0
H3281 H 0.88037 0.18124 0.31397 0.0
C3282 C 0.8953 0.15236 0.29457 0.0
C3283 C 0.9004 0.13991 0.27148 0.0
C3284 C 0.8598 0.20768 0.25071 0.0
C3285 C 0.87734 0.18006 0.27423 0.0
C3286 C 0.84948 0.22752 0.2496 0.0
C3287 C 0.84376 0.24195 0.27102 0.0
C3288 C 0.86515 0.2014 0.27359 0.0
C3289 C 0.84898 0.23488 0.29376 0.0
C3290 C 0.88392 0.17221 0.29601 0.0
C3291 C 0.89339 0.14863 0.25046 0.0
N3292 N 0.85932 0.21537 0.29441 0.0
N3293 N 0.88255 0.16762 0.2524 0.0
H3294 H 0.72736 0.08614 0.01501 0.0
H3295 H 0.61454 0.12035 0.04429 0.0
H3296 H 0.72479 0.15029 0.0711 0.0
H3297 H 0.61873 0.0443 0.0183 0.0
H3298 H 0.65507 0.13271 0.05266 0.0
H3299 H 0.68732 0.07082 0.01426 0.0
C3300 C 0.71841 0.09686 0.02731 0.0
C3301 C 0.72933 0.11957 0.04302 0.0
C3302 C 0.64703 0.11324 0.04554 0.0
C3303 C 0.68373 0.10239 0.04202 0.0
C3304 C 0.62402 0.10626 0.04071 0.0
C3305 C 0.61338 0.08125 0.03116 0.0
C3306 C 0.65937 0.09515 0.03988 0.0
C3307 C 0.62626 0.06364 0.02634 0.0
C3308 C 0.69562 0.08808 0.02695 0.0
C3309 C 0.71699 0.1327 0.05866 0.0
N3310 N 0.64865 0.07097 0.03055 0.0
N3311 N 0.69475 0.12409 0.05752 0.0
H3312 H 0.22795 0.49004 0.32188 0.0
H3313 H 0.34304 0.45906 0.28888 0.0
H3314 H 0.25604 0.49762 0.2532 0.0
H3315 H 0.31538 0.44917 0.3571 0.0
H3316 H 0.31269 0.47717 0.27741 0.0
H3317 H 0.26059 0.47695 0.33634 0.0
C3318 C 0.24091 0.48879 0.30981 0.0
C3319 C 0.23935 0.49489 0.28636 0.0
C3320 C 0.31342 0.47149 0.29512 0.0
C3321 C 0.27669 0.48049 0.30286 0.0
C3322 C 0.33084 0.46144 0.30174 0.0
C3323 C 0.3316 0.45282 0.32396 0.0
C3324 C 0.29664 0.47278 0.31081 0.0
C3325 C 0.3154 0.45595 0.33996 0.0
C3326 C 0.25956 0.48151 0.31812 0.0
C3327 C 0.25654 0.493 0.27141 0.0
N3328 N 0.29832 0.46545 0.33291 0.0
N3329 N 0.27456 0.48604 0.27998 0.0
H3330 H 0.27855 0.43703 0.00641 0.0
H3331 H 0.19001 0.51343 0.05497 0.0
H3332 H 0.26744 0.45425 0.08371 0.0
H3333 H 0.21162 0.50828 0.98165 0.0
H3334 H 0.21471 0.48729 0.06475 0.0
H3335 H 0.25056 0.45879 0.99608 0.0
C3336 C 0.27015 0.44529 0.02123 0.0
C3337 C 0.27545 0.44398 0.04601 0.0
C3338 C 0.21401 0.49188 0.04653 0.0
C3339 C 0.24332 0.46892 0.03425 0.0
C3340 C 0.19986 0.50666 0.04089 0.0
C3341 C 0.19899 0.51321 0.01754 0.0
C3342 C 0.22723 0.48349 0.02862 0.0
C3343 C 0.21213 0.50404 1.00002 0.0
C3344 C 0.25418 0.45777 0.0153 0.0
C3345 C 0.26398 0.455 0.0644 0.0
N3346 N 0.22574 0.48967 0.00594 0.0
N3347 N 0.24844 0.46708 0.05815 0.0
H3348 H 0.87448 1.00413 0.26568 0.0
H3349 H 0.87549 0.86574 0.28677 0.0
H3350 H 0.9327 0.97952 0.28621 0.0
H3351 H 0.81663 0.88165 0.25454 0.0
H3352 H 0.8954 0.90842 0.28835 0.0
H3353 H 0.85199 0.96126 0.26326 0.0
C3354 C 0.88259 0.98991 0.26971 0.0
C3355 C 0.90575 0.99585 0.27612 0.0
C3356 C 0.87809 0.90278 0.28096 0.0
C3357 C 0.87992 0.94645 0.27348 0.0
C3358 C 0.86654 0.87811 0.28006 0.0
C3359 C 0.84397 0.86956 0.27073 0.0
C3360 C 0.86732 0.91976 0.27255 0.0
C3361 C 0.8338 0.8871 0.2622 0.0
C3362 C 0.86971 0.96534 0.26827 0.0
C3363 C 0.91507 0.97627 0.2811 0.0
N3364 N 0.84544 0.91122 0.26339 0.0
N3365 N 0.90228 0.95288 0.27973 0.0
H3366 H 0.76165 0.10133 0.76456 0.0
H3367 H 0.76822 0.23973 0.74576 0.0
H3368 H 0.72676 0.11824 0.702 0.0
H3369 H 0.79631 0.22244 0.81201 0.0
H3370 H 0.75215 0.19543 0.72962 0.0
H3371 H 0.77549 0.14574 0.7814 0.0
C3372 C 0.75705 0.11439 0.75422 0.0
C3373 C 0.74289 0.10609 0.73191 0.0
C3374 C 0.7617 0.20127 0.74775 0.0
C3375 C 0.75841 0.15696 0.75135 0.0
C3376 C 0.77096 0.22651 0.75689 0.0
C3377 C 0.78432 0.23435 0.77969 0.0
C3378 C 0.76592 0.18394 0.76161 0.0
C3379 C 0.7866 0.21681 0.79397 0.0
C3380 C 0.76482 0.13976 0.76398 0.0
C3381 C 0.73758 0.12385 0.7193 0.0
N3382 N 0.7778 0.19223 0.78447 0.0
N3383 N 0.74529 0.14854 0.72928 0.0
loop_
_geom_bond_atom_site_label_1
_geom_bond_atom_site_label_2
_geom_bond_distance
_geom_bond_site_symmetry_2
_ccdc_geom_bond_type
C0 O1 1.160 . S
C0 O7 1.185 . S
O1 C0 1.160 . S
O2 Zn3 1.899 . S
O2 C10 1.284 . S
Zn3 O2 1.899 . S
Zn3 O4 2.032 . S
Zn3 O7 2.086 . S
Zn3 O12 1.977 . S
O4 Zn3 2.032 . S
O4 C8 1.278 . S
C5 O6 1.203 . S
C5 O12 1.267 . S
O6 C5 1.203 . S
O7 C0 1.185 . S
O7 Zn3 2.086 . S
C8 O4 1.278 . S
C8 O9 1.211 . S
O9 C8 1.211 . S
C10 O2 1.284 . S
C10 O11 1.273 . S
O11 C10 1.273 . S
O12 Zn3 1.977 . S
O12 C5 1.267 . S
C13 O14 1.160 . S
C13 O20 1.185 . S
O14 C13 1.160 . S
O15 Zn16 1.899 . S
O15 C23 1.284 . S
Zn16 O15 1.899 . S
Zn16 O17 2.032 . S
Zn16 O20 2.086 . S
Zn16 O25 1.977 1_655 S
O17 Zn16 2.032 . S
O17 C21 1.278 1_655 S
C18 O19 1.203 . S
C18 O25 1.267 . S
O19 C18 1.203 . S
O20 C13 1.185 . S
O20 Zn16 2.086 . S
C21 O17 1.278 1_455 S
C21 O22 1.211 . S
O22 C21 1.211 . S
C23 O15 1.284 . S
C23 O24 1.273 1_655 S
O24 C23 1.273 1_455 S
O25 Zn16 1.977 1_455 S
O25 C18 1.267 . S
C26 O27 1.160 . S
C26 O33 1.185 . S
O27 C26 1.160 . S
O28 Zn29 1.899 . S
O28 C36 1.284 . S
Zn29 O28 1.899 . S
Zn29 O30 2.032 . S
Zn29 O33 2.086 . S
Zn29 O38 1.977 . S
O30 Zn29 2.032 . S
O30 C34 1.278 . S
C31 O32 1.203 . S
C31 O38 1.267 . S
O32 C31 1.203 . S
O33 C26 1.185 . S
O33 Zn29 2.086 . S
C34 O30 1.278 . S
C34 O35 1.211 . S
O35 C34 1.211 . S
C36 O28 1.284 . S
C36 O37 1.273 . S
O37 C36 1.273 . S
O38 Zn29 1.977 . S
O38 C31 1.267 . S
C39 O40 1.160 . S
C39 O46 1.185 . S
O40 C39 1.160 . S
O41 Zn42 1.899 . S
O41 C49 1.284 . S
Zn42 O41 1.899 . S
Zn42 O43 2.032 . S
Zn42 O46 2.086 . S
Zn42 O51 1.977 . S
O43 Zn42 2.032 . S
O43 C47 1.278 . S
C44 O45 1.203 . S
C44 O51 1.267 . S
O45 C44 1.203 . S
O46 C39 1.185 . S
O46 Zn42 2.086 . S
C47 O43 1.278 . S
C47 O48 1.211 . S
O48 C47 1.211 . S
C49 O41 1.284 . S
C49 O50 1.273 . S
O50 C49 1.273 . S
O51 Zn42 1.977 . S
O51 C44 1.267 . S
C52 O53 1.160 . S
C52 O59 1.185 . S
O53 C52 1.160 . S
O54 Zn55 1.899 . S
O54 C62 1.284 . S
Zn55 O54 1.899 . S
Zn55 O56 2.032 . S
Zn55 O59 2.086 . S
Zn55 O64 1.977 . S
O56 Zn55 2.032 . S
O56 C60 1.278 . S
C57 O58 1.203 . S
C57 O64 1.267 . S
O58 C57 1.203 . S
O59 C52 1.185 . S
O59 Zn55 2.086 . S
C60 O56 1.278 . S
C60 O61 1.211 . S
O61 C60 1.211 . S
C62 O54 1.284 . S
C62 O63 1.273 . S
O63 C62 1.273 . S
O64 Zn55 1.977 . S
O64 C57 1.267 . S
C65 O66 1.160 . S
C65 O72 1.185 . S
O66 C65 1.160 . S
O67 Zn68 1.899 . S
O67 C75 1.284 . S
Zn68 O67 1.899 . S
Zn68 O69 2.032 . S
Zn68 O72 2.086 . S
Zn68 O77 1.977 . S
O69 Zn68 2.032 . S
O69 C73 1.278 . S
C70 O71 1.203 . S
C70 O77 1.267 . S
O71 C70 1.203 . S
O72 C65 1.185 . S
O72 Zn68 2.086 . S
C73 O69 1.278 . S
C73 O74 1.211 . S
O74 C73 1.211 . S
C75 O67 1.284 . S
C75 O76 1.273 . S
O76 C75 1.273 . S
O77 Zn68 1.977 . S
O77 C70 1.267 . S
C78 O79 1.160 . S
C78 O85 1.185 . S
O79 C78 1.160 . S
O80 Zn81 1.899 . S
O80 C88 1.284 . S
Zn81 O80 1.899 . S
Zn81 O82 2.032 . S
Zn81 O85 2.086 . S
Zn81 O90 1.977 . S
O82 Zn81 2.032 . S
O82 C86 1.278 . S
C83 O84 1.203 . S
C83 O90 1.267 . S
O84 C83 1.203 . S
O85 C78 1.185 . S
O85 Zn81 2.086 . S
C86 O82 1.278 . S
C86 O87 1.211 . S
O87 C86 1.211 . S
C88 O80 1.284 . S
C88 O89 1.273 . S
O89 C88 1.273 . S
O90 Zn81 1.977 . S
O90 C83 1.267 . S
C91 O92 1.160 . S
C91 O98 1.185 . S
O92 C91 1.160 . S
O93 Zn94 1.899 . S
O93 C101 1.284 . S
Zn94 O93 1.899 . S
Zn94 O95 2.032 . S
Zn94 O98 2.086 . S
Zn94 O103 1.977 1_455 S
O95 Zn94 2.032 . S
O95 C99 1.278 . S
C96 O97 1.203 . S
C96 O103 1.267 . S
O97 C96 1.203 . S
O98 C91 1.185 . S
O98 Zn94 2.086 . S
C99 O95 1.278 . S
C99 O100 1.211 . S
O100 C99 1.211 . S
C101 O93 1.284 . S
C101 O102 1.273 . S
O102 C101 1.273 . S
O103 Zn94 1.977 1_655 S
O103 C96 1.267 . S
C104 O105 1.160 . S
C104 O111 1.185 . S
O105 C104 1.160 . S
O106 Zn107 1.899 . S
O106 C114 1.284 . S
Zn107 O106 1.899 . S
Zn107 O108 2.032 . S
Zn107 O111 2.086 . S
Zn107 O116 1.977 1_545 S
O108 Zn107 2.032 . S
O108 C112 1.278 . S
C109 O110 1.203 . S
C109 O116 1.267 . S
O110 C109 1.203 . S
O111 C104 1.185 . S
O111 Zn107 2.086 . S
C112 O108 1.278 . S
C112 O113 1.183 1_545 S
O113 C112 1.183 1_565 S
C114 O106 1.284 . S
C114 O115 1.273 . S
O115 C114 1.273 . S
O116 Zn107 1.977 1_565 S
O116 C109 1.267 . S
C117 O118 1.160 . S
C117 O124 1.185 . S
O118 C117 1.160 . S
O119 Zn120 1.899 . S
O119 C127 1.284 . S
Zn120 O119 1.899 . S
Zn120 O121 2.032 . S
Zn120 O124 2.086 . S
Zn120 O129 1.977 . S
O121 Zn120 2.032 . S
O121 C125 1.278 . S
C122 O123 1.203 . S
C122 O129 1.267 . S
O123 C122 1.203 . S
O124 C117 1.185 . S
O124 Zn120 2.086 . S
C125 O121 1.278 . S
C125 O126 1.211 . S
O126 C125 1.211 . S
C127 O119 1.284 . S
C127 O128 1.273 . S
O128 C127 1.273 . S
O129 Zn120 1.977 . S
O129 C122 1.267 . S
C130 O131 1.160 . S
C130 O137 1.185 . S
O131 C130 1.160 . S
O132 Zn133 1.899 . S
O132 C140 1.284 . S
Zn133 O132 1.899 . S
Zn133 O134 2.032 . S
Zn133 O137 2.086 . S
Zn133 O142 1.977 1_565 S
O134 Zn133 2.032 . S
O134 C138 1.278 1_565 S
C135 O136 1.203 . S
C135 O142 1.267 . S
O136 C135 1.203 . S
O137 C130 1.185 . S
O137 Zn133 2.086 . S
C138 O134 1.278 1_545 S
C138 O139 1.211 . S
O139 C138 1.211 . S
C140 O132 1.284 . S
C140 O141 1.273 1_565 S
O141 C140 1.273 1_545 S
O142 Zn133 1.977 1_545 S
O142 C135 1.267 . S
C143 O144 1.160 . S
C143 O150 1.185 . S
O144 C143 1.160 . S
O145 Zn146 1.899 . S
O145 C153 1.284 . S
Zn146 O145 1.899 . S
Zn146 O147 2.032 1_554 S
Zn146 O150 2.086 . S
Zn146 O155 1.977 . S
O147 Zn146 2.032 1_556 S
O147 C151 1.278 . S
C148 O149 1.203 . S
C148 O155 1.267 . S
O149 C148 1.203 . S
O150 C143 1.185 . S
O150 Zn146 2.086 . S
C151 O147 1.278 . S
C151 O152 1.211 . S
O152 C151 1.211 . S
C153 O145 1.284 . S
C153 O154 1.273 . S
O154 C153 1.273 . S
O155 Zn146 1.977 . S
O155 C148 1.267 . S
C156 O157 1.160 . S
C156 O163 1.185 . S
O157 C156 1.160 . S
O158 Zn159 1.899 . S
O158 C166 1.284 . S
Zn159 O158 1.899 . S
Zn159 O160 2.032 . S
Zn159 O163 2.086 . S
Zn159 O168 1.977 . S
O160 Zn159 2.032 . S
O160 C164 1.278 1_554 S
C161 O162 1.203 . S
C161 O168 1.267 . S
O162 C161 1.203 . S
O163 C156 1.185 . S
O163 Zn159 2.086 . S
C164 O160 1.278 1_556 S
C164 O165 1.209 1_556 S
O165 C164 1.209 1_554 S
C166 O158 1.284 . S
C166 O167 1.273 . S
O167 C166 1.273 . S
O168 Zn159 1.977 . S
O168 C161 1.267 . S
C169 O170 1.160 . S
C169 O176 1.185 . S
O170 C169 1.160 . S
O171 Zn172 1.899 . S
O171 C179 1.284 . S
Zn172 O171 1.899 . S
Zn172 O173 2.032 . S
Zn172 O176 2.086 . S
Zn172 O181 1.977 . S
O173 Zn172 2.032 . S
O173 C177 1.278 1_554 S
C174 O175 1.203 . S
C174 O181 1.267 . S
O175 C174 1.203 . S
O176 C169 1.185 . S
O176 Zn172 2.086 . S
C177 O173 1.278 1_556 S
C177 O178 1.211 . S
O178 C177 1.211 . S
C179 O171 1.284 . S
C179 O180 1.273 . S
O180 C179 1.273 . S
O181 Zn172 1.977 . S
O181 C174 1.267 . S
C182 O183 1.160 . S
C182 O189 1.185 . S
O183 C182 1.160 . S
O184 Zn185 1.899 . S
O184 C192 1.284 . S
Zn185 O184 1.899 . S
Zn185 O186 2.032 . S
Zn185 O189 2.086 . S
Zn185 O194 1.977 . S
O186 Zn185 2.032 . S
O186 C190 1.278 . S
C187 O188 1.203 . S
C187 O194 1.267 . S
O188 C187 1.203 . S
O189 C182 1.185 . S
O189 Zn185 2.086 . S
C190 O186 1.278 . S
C190 O191 1.211 . S
O191 C190 1.211 . S
C192 O184 1.284 . S
C192 O193 1.273 . S
O193 C192 1.273 . S
O194 Zn185 1.977 . S
O194 C187 1.267 . S
C195 O196 1.160 . S
C195 O202 1.185 . S
O196 C195 1.160 . S
O197 Zn198 1.899 . S
O197 C205 1.284 . S
Zn198 O197 1.899 . S
Zn198 O199 2.032 . S
Zn198 O202 2.086 . S
Zn198 O207 1.977 . S
O199 Zn198 2.032 . S
O199 C203 1.278 . S
C200 O201 1.203 . S
C200 O207 1.267 . S
O201 C200 1.203 . S
O202 C195 1.185 . S
O202 Zn198 2.086 . S
C203 O199 1.278 . S
C203 O204 1.211 . S
O204 C203 1.211 . S
C205 O197 1.284 . S
C205 O206 1.273 . S
O206 C205 1.273 . S
O207 Zn198 1.977 . S
O207 C200 1.267 . S
C208 O209 1.160 . S
C208 O215 1.185 . S
O209 C208 1.160 . S
O210 Zn211 1.899 . S
O210 C218 1.284 . S
Zn211 O210 1.899 . S
Zn211 O212 2.032 . S
Zn211 O215 2.086 . S
Zn211 O220 1.977 . S
O212 Zn211 2.032 . S
O212 C216 1.278 . S
C213 O214 1.203 . S
C213 O220 1.267 . S
O214 C213 1.203 . S
O215 C208 1.185 . S
O215 Zn211 2.086 . S
C216 O212 1.278 . S
C216 O217 1.211 . S
O217 C216 1.211 . S
C218 O210 1.284 . S
C218 O219 1.273 . S
O219 C218 1.273 . S
O220 Zn211 1.977 . S
O220 C213 1.267 . S
C221 O222 1.160 . S
C221 O228 1.185 . S
O222 C221 1.160 . S
O223 Zn224 1.899 . S
O223 C231 1.284 . S
Zn224 O223 1.899 . S
Zn224 O225 2.032 . S
Zn224 O228 2.086 . S
Zn224 O233 1.977 . S
O225 Zn224 2.032 . S
O225 C229 1.278 . S
C226 O227 1.203 . S
C226 O233 1.267 . S
O227 C226 1.203 . S
O228 C221 1.185 . S
O228 Zn224 2.086 . S
C229 O225 1.278 . S
C229 O230 1.211 . S
O230 C229 1.211 . S
C231 O223 1.284 . S
C231 O232 1.273 . S
O232 C231 1.273 . S
O233 Zn224 1.977 . S
O233 C226 1.267 . S
C234 O235 1.160 . S
C234 O241 1.185 . S
O235 C234 1.160 . S
O236 Zn237 1.899 . S
O236 C244 1.284 . S
Zn237 O236 1.899 . S
Zn237 O238 2.032 . S
Zn237 O241 2.086 . S
Zn237 O246 1.977 . S
O238 Zn237 2.032 . S
O238 C242 1.278 . S
C239 O240 1.203 . S
C239 O246 1.267 . S
O240 C239 1.203 . S
O241 C234 1.185 . S
O241 Zn237 2.086 . S
C242 O238 1.278 . S
C242 O243 1.211 . S
O243 C242 1.211 . S
C244 O236 1.284 . S
C244 O245 1.273 . S
O245 C244 1.273 . S
O246 Zn237 1.977 . S
O246 C239 1.267 . S
C247 O248 1.160 1_545 S
C247 O254 1.185 . S
O248 C247 1.160 1_565 S
O249 Zn250 1.899 . S
O249 C257 1.284 . S
Zn250 O249 1.899 . S
Zn250 O251 2.032 . S
Zn250 O254 2.086 . S
Zn250 O259 1.977 . S
O251 Zn250 2.032 . S
O251 C255 1.278 . S
C252 O253 1.203 . S
C252 O259 1.267 . S
O253 C252 1.203 . S
O254 C247 1.185 . S
O254 Zn250 2.086 . S
C255 O251 1.278 . S
C255 O256 1.211 . S
O256 C255 1.211 . S
C257 O249 1.284 . S
C257 O258 1.273 . S
O258 C257 1.273 . S
O259 Zn250 1.977 . S
O259 C252 1.267 . S
C260 O261 1.160 . S
C260 O267 1.185 1_554 S
O261 C260 1.160 . S
O262 Zn263 1.899 . S
O262 C270 1.284 . S
Zn263 O262 1.899 . S
Zn263 O264 2.032 1_554 S
Zn263 O267 2.086 1_554 S
Zn263 O272 1.977 1_554 S
O264 Zn263 2.032 1_556 S
O264 C268 1.278 . S
C265 O266 1.203 1_556 S
C265 O272 1.267 . S
O266 C265 1.203 1_554 S
O267 C260 1.185 1_556 S
O267 Zn263 2.086 1_556 S
C268 O264 1.278 . S
C268 O269 1.211 . S
O269 C268 1.211 . S
C270 O262 1.284 . S
C270 O271 1.273 . S
O271 C270 1.273 . S
O272 Zn263 1.977 1_556 S
O272 C265 1.267 . S
C273 O274 1.160 . S
C273 O280 1.185 . S
O274 C273 1.160 . S
O275 Zn276 1.899 . S
O275 C283 1.284 . S
Zn276 O275 1.899 . S
Zn276 O277 2.032 . S
Zn276 O280 2.086 . S
Zn276 O285 1.977 . S
O277 Zn276 2.032 . S
O277 C281 1.278 . S
C278 O279 1.203 . S
C278 O285 1.267 . S
O279 C278 1.203 . S
O280 C273 1.185 . S
O280 Zn276 2.086 . S
C281 O277 1.278 . S
C281 O282 1.211 . S
O282 C281 1.211 . S
C283 O275 1.284 . S
C283 O284 1.273 . S
O284 C283 1.273 . S
O285 Zn276 1.977 . S
O285 C278 1.267 . S
C286 O287 1.160 . S
C286 O293 1.185 . S
O287 C286 1.160 . S
O288 Zn289 1.899 . S
O288 C296 1.284 . S
Zn289 O288 1.899 . S
Zn289 O290 2.032 . S
Zn289 O293 2.086 . S
Zn289 O298 1.977 . S
O290 Zn289 2.032 . S
O290 C294 1.278 . S
C291 O292 1.203 . S
C291 O298 1.267 . S
O292 C291 1.203 . S
O293 C286 1.185 . S
O293 Zn289 2.086 . S
C294 O290 1.278 . S
C294 O295 1.211 . S
O295 C294 1.211 . S
C296 O288 1.284 . S
C296 O297 1.273 . S
O297 C296 1.273 . S
O298 Zn289 1.977 . S
O298 C291 1.267 . S
C299 O300 1.160 . S
C299 O306 1.185 . S
O300 C299 1.160 . S
O301 Zn302 1.899 . S
O301 C309 1.284 . S
Zn302 O301 1.899 . S
Zn302 O303 2.032 . S
Zn302 O306 2.086 . S
Zn302 O311 1.977 . S
O303 Zn302 2.032 . S
O303 C307 1.278 . S
C304 O305 1.203 . S
C304 O311 1.267 . S
O305 C304 1.203 . S
O306 C299 1.185 . S
O306 Zn302 2.086 . S
C307 O303 1.278 . S
C307 O308 1.211 . S
O308 C307 1.211 . S
C309 O301 1.284 . S
C309 O310 1.273 . S
O310 C309 1.273 . S
O311 Zn302 1.977 . S
O311 C304 1.267 . S
Gd312 N343 2.661 . S
Gd312 N349 2.601 . S
Gd312 O356 2.545 . S
Gd312 O357 2.606 . S
Gd312 O359 2.429 . S
Gd312 O360 2.545 . S
Gd312 O361 2.412 . S
Gd312 O363 2.362 . S
Gd312 O364 2.324 1_554 S
Gd312 C371 2.828 . S
Gd313 N322 2.642 1_546 S
Gd313 N326 2.617 1_545 S
Gd313 O357 2.350 1_556 S
Gd313 O358 2.292 1_556 S
Gd313 O362 2.566 1_455 S
Gd313 O363 2.602 1_556 S
Gd313 O365 2.455 . S
Gd313 O366 2.554 . S
Gd313 O367 2.405 1_456 S
Gd313 C380 2.836 1_455 S
C314 C317 1.417 . S
C314 C319 1.431 1_554 S
C314 C320 1.412 . S
C315 C318 1.437 . S
C315 C319 1.317 . S
C315 H334 0.929 . S
C316 C317 1.426 1_556 S
C316 C318 1.413 . S
C316 N326 1.359 1_655 S
C317 C314 1.417 . S
C317 C316 1.426 1_554 S
C317 N322 1.350 1_655 S
C318 C315 1.437 . S
C318 C316 1.413 . S
C318 C328 1.391 . S
C319 C314 1.431 1_556 S
C319 C315 1.317 . S
C319 H330 0.930 . S
C320 C314 1.412 . S
C320 C321 1.355 . S
C320 H332 0.930 . S
C321 C320 1.355 . S
C321 C323 1.402 1_655 S
C321 H333 0.929 . S
N322 Gd313 2.642 1_564 S
N322 C317 1.350 1_455 S
N322 C323 1.307 . S
C323 C321 1.402 1_455 S
C323 N322 1.307 . S
C323 H324 0.930 . S
H324 C323 0.930 . S
C325 N326 1.334 . S
C325 C327 1.394 1_455 S
C325 H329 0.930 . S
N326 Gd313 2.617 1_565 S
N326 C316 1.359 1_455 S
N326 C325 1.334 . S
C327 C325 1.394 1_655 S
C327 C328 1.359 . S
C327 H339 0.930 . S
C328 C318 1.391 . S
C328 C327 1.359 . S
C328 H340 0.929 . S
H329 C325 0.930 . S
H330 C319 0.930 . S
H331 C348 0.930 . S
H332 C320 0.930 . S
H333 C321 0.929 . S
H334 C315 0.929 . S
H335 C353 0.930 . S
H336 C344 0.930 . S
H337 C345 0.930 . S
H338 C369 0.929 . S
H339 C327 0.930 . S
H340 C328 0.929 . S
H341 C370 0.930 . S
H342 C351 0.930 . S
N343 Gd312 2.661 . S
N343 C347 1.350 . S
N343 C348 1.307 1_554 S
C344 H336 0.930 . S
C344 C345 1.355 . S
C344 C346 1.412 1_556 S
C345 H337 0.930 . S
C345 C344 1.355 . S
C345 C348 1.402 . S
C346 C344 1.412 1_554 S
C346 C347 1.417 . S
C346 C370 1.431 . S
C347 N343 1.350 . S
C347 C346 1.417 . S
C347 C350 1.426 . S
C348 H331 0.930 . S
C348 N343 1.307 1_556 S
C348 C345 1.402 . S
N349 Gd312 2.601 . S
N349 C350 1.359 . S
N349 C353 1.334 . S
C350 C347 1.426 . S
C350 N349 1.359 . S
C350 C354 1.413 . S
C351 H342 0.930 . S
C351 C352 1.359 . S
C351 C353 1.394 . S
C352 C351 1.359 . S
C352 C354 1.391 . S
C352 H355 0.929 . S
C353 H335 0.930 . S
C353 N349 1.334 . S
C353 C351 1.394 . S
C354 C350 1.413 . S
C354 C352 1.391 . S
C354 C369 1.437 . S
H355 C352 0.929 . S
O356 Gd312 2.545 . S
O356 C371 1.258 . S
O357 Gd312 2.606 . S
O357 Gd313 2.350 1_554 S
O357 C368 1.284 1_545 S
O358 Gd313 2.292 1_554 S
O358 C378 1.254 . S
O359 Gd312 2.429 . S
O359 C378 1.268 . S
O360 Gd312 2.545 . S
O360 C368 1.250 1_545 S
O361 Gd312 2.412 . S
O361 C371 1.252 . S
O362 Gd313 2.566 1_655 S
O362 C380 1.258 . S
O363 Gd312 2.362 . S
O363 Gd313 2.602 1_554 S
O363 C379 1.284 . S
O364 Gd312 2.324 1_556 S
O364 C387 1.254 . S
O365 Gd313 2.455 . S
O365 C387 1.268 . S
O366 Gd313 2.554 . S
O366 C379 1.250 1_556 S
O367 Gd313 2.405 1_654 S
O367 C380 1.252 1_554 S
C368 O357 1.284 1_565 S
C368 O360 1.250 1_565 S
C369 H338 0.929 . S
C369 C354 1.437 . S
C369 C370 1.317 . S
C370 H341 0.930 . S
C370 C346 1.431 . S
C370 C369 1.317 . S
C371 Gd312 2.828 . S
C371 O356 1.258 . S
C371 O361 1.252 . S
C371 C372 1.497 . S
C372 C371 1.497 . S
C372 C373 1.395 . S
C372 C374 1.380 . S
C373 C372 1.395 . S
C373 C376 1.398 . S
C373 H388 0.930 . S
C374 C372 1.380 . S
C374 C375 1.391 . S
C374 H389 0.930 . S
C375 C374 1.391 . S
C375 C377 1.387 . S
C376 C373 1.398 . S
C376 C377 1.380 . S
C376 H390 0.930 . S
C377 C375 1.387 . S
C377 C376 1.380 . S
C377 H391 0.930 . S
C378 O358 1.254 . S
C378 O359 1.268 . S
C379 O363 1.284 . S
C379 O366 1.250 1_554 S
C380 Gd313 2.836 1_655 S
C380 O362 1.258 . S
C380 O367 1.252 1_556 S
C380 C381 1.497 . S
C381 C380 1.497 . S
C381 C382 1.395 . S
C381 C383 1.380 . S
C382 C381 1.395 . S
C382 C385 1.398 . S
C382 H392 0.930 . S
C383 C381 1.380 . S
C383 C384 1.391 . S
C383 H393 0.930 1_556 S
C384 C383 1.391 . S
C384 C386 1.387 . S
C385 C382 1.398 . S
C385 C386 1.380 . S
C385 H394 0.930 . S
C386 C384 1.387 . S
C386 C385 1.380 . S
C386 H395 0.930 . S
C387 O364 1.254 . S
C387 O365 1.268 . S
H388 C373 0.930 . S
H389 C374 0.930 . S
H390 C376 0.930 . S
H391 C377 0.930 . S
H392 C382 0.930 . S
H393 C383 0.930 1_554 S
H394 C385 0.930 . S
H395 C386 0.930 . S
Gd396 N427 2.661 . S
Gd396 N433 2.601 . S
Gd396 O440 2.545 . S
Gd396 O441 2.606 . S
Gd396 O443 2.429 . S
Gd396 O444 2.545 . S
Gd396 O445 2.412 . S
Gd396 O447 2.362 . S
Gd396 O448 2.324 . S
Gd396 C455 2.828 . S
Gd397 N406 2.661 . S
Gd397 N410 2.601 . S
Gd397 O441 2.362 . S
Gd397 O442 2.324 . S
Gd397 O446 2.545 . S
Gd397 O447 2.606 . S
Gd397 O449 2.429 . S
Gd397 O450 2.545 . S
Gd397 O451 2.412 . S
Gd397 C464 2.828 . S
C398 C401 1.417 . S
C398 C403 1.431 . S
C398 C404 1.412 . S
C399 C402 1.437 . S
C399 C403 1.317 . S
C399 H418 0.929 . S
C400 C401 1.426 . S
C400 C402 1.413 . S
C400 N410 1.359 . S
C401 C398 1.417 . S
C401 C400 1.426 . S
C401 N406 1.350 . S
C402 C399 1.437 . S
C402 C400 1.413 . S
C402 C412 1.391 . S
C403 C398 1.431 . S
C403 C399 1.317 . S
C403 H414 0.930 . S
C404 C398 1.412 . S
C404 C405 1.355 . S
C404 H416 0.930 . S
C405 C404 1.355 . S
C405 C407 1.402 . S
C405 H417 0.930 . S
N406 Gd397 2.661 . S
N406 C401 1.350 . S
N406 C407 1.307 . S
C407 C405 1.402 . S
C407 N406 1.307 . S
C407 H408 0.930 . S
H408 C407 0.930 . S
C409 N410 1.334 . S
C409 C411 1.394 . S
C409 H413 0.930 . S
N410 Gd397 2.601 . S
N410 C400 1.359 . S
N410 C409 1.334 . S
C411 C409 1.394 . S
C411 C412 1.359 . S
C411 H423 0.930 . S
C412 C402 1.391 . S
C412 C411 1.359 . S
C412 H424 0.929 . S
H413 C409 0.930 . S
H414 C403 0.930 . S
H415 C432 0.930 . S
H416 C404 0.930 . S
H417 C405 0.930 . S
H418 C399 0.929 . S
H419 C437 0.930 . S
H420 C428 0.930 . S
H421 C429 0.930 . S
H422 C453 0.929 . S
H423 C411 0.930 . S
H424 C412 0.929 . S
H425 C454 0.930 . S
H426 C435 0.930 . S
N427 Gd396 2.661 . S
N427 C431 1.350 . S
N427 C432 1.307 . S
C428 H420 0.930 . S
C428 C429 1.355 . S
C428 C430 1.412 . S
C429 H421 0.930 . S
C429 C428 1.355 . S
C429 C432 1.402 . S
C430 C428 1.412 . S
C430 C431 1.417 . S
C430 C454 1.431 . S
C431 N427 1.350 . S
C431 C430 1.417 . S
C431 C434 1.426 . S
C432 H415 0.930 . S
C432 N427 1.307 . S
C432 C429 1.402 . S
N433 Gd396 2.601 . S
N433 C434 1.359 . S
N433 C437 1.334 . S
C434 C431 1.426 . S
C434 N433 1.359 . S
C434 C438 1.413 . S
C435 H426 0.930 . S
C435 C436 1.359 . S
C435 C437 1.394 . S
C436 C435 1.359 . S
C436 C438 1.391 . S
C436 H439 0.929 . S
C437 H419 0.930 . S
C437 N433 1.334 . S
C437 C435 1.394 . S
C438 C434 1.413 . S
C438 C436 1.391 . S
C438 C453 1.437 . S
H439 C436 0.929 . S
O440 Gd396 2.545 . S
O440 C455 1.258 . S
O441 Gd396 2.606 . S
O441 Gd397 2.362 . S
O441 C452 1.284 . S
O442 Gd397 2.324 . S
O442 C462 1.254 . S
O443 Gd396 2.429 . S
O443 C462 1.268 . S
O444 Gd396 2.545 . S
O444 C452 1.250 . S
O445 Gd396 2.412 . S
O445 C455 1.252 . S
O446 Gd397 2.545 . S
O446 C464 1.258 . S
O447 Gd396 2.362 . S
O447 Gd397 2.606 . S
O447 C463 1.284 . S
O448 Gd396 2.324 . S
O448 C471 1.254 . S
O449 Gd397 2.429 . S
O449 C471 1.268 . S
O450 Gd397 2.545 . S
O450 C463 1.250 . S
O451 Gd397 2.412 . S
O451 C464 1.252 . S
C452 O441 1.284 . S
C452 O444 1.250 . S
C453 H422 0.929 . S
C453 C438 1.437 . S
C453 C454 1.317 . S
C454 H425 0.930 . S
C454 C430 1.431 . S
C454 C453 1.317 . S
C455 Gd396 2.828 . S
C455 O440 1.258 . S
C455 O445 1.252 . S
C455 C456 1.497 . S
C456 C455 1.497 . S
C456 C457 1.395 . S
C456 C458 1.380 . S
C457 C456 1.395 . S
C457 C460 1.398 . S
C457 H472 0.930 . S
C458 C456 1.380 . S
C458 C459 1.391 . S
C458 H473 0.930 . S
C459 C458 1.391 . S
C459 C461 1.387 . S
C460 C457 1.398 . S
C460 C461 1.380 . S
C460 H474 0.930 . S
C461 C459 1.387 . S
C461 C460 1.380 . S
C461 H475 0.930 . S
C462 O442 1.254 . S
C462 O443 1.268 . S
C463 O447 1.284 . S
C463 O450 1.250 . S
C464 Gd397 2.828 . S
C464 O446 1.258 . S
C464 O451 1.252 . S
C464 C465 1.497 . S
C465 C464 1.497 . S
C465 C466 1.395 . S
C465 C467 1.380 . S
C466 C465 1.395 . S
C466 C469 1.398 . S
C466 H476 0.930 . S
C467 C465 1.380 . S
C467 C468 1.391 . S
C467 H477 0.930 . S
C468 C467 1.391 . S
C468 C470 1.387 . S
C469 C466 1.398 . S
C469 C470 1.380 . S
C469 H478 0.930 . S
C470 C468 1.387 . S
C470 C469 1.380 . S
C470 H479 0.930 . S
C471 O448 1.254 . S
C471 O449 1.268 . S
H472 C457 0.930 . S
H473 C458 0.930 . S
H474 C460 0.930 . S
H475 C461 0.930 . S
H476 C466 0.930 . S
H477 C467 0.930 . S
H478 C469 0.930 . S
H479 C470 0.930 . S
Gd480 N511 2.661 1_545 S
Gd480 N517 2.601 . S
Gd480 O524 2.545 . S
Gd480 O525 2.606 . S
Gd480 O527 2.429 . S
Gd480 O528 2.545 . S
Gd480 O529 2.412 . S
Gd480 O531 2.362 . S
Gd480 O532 2.324 . S
Gd480 C539 2.828 . S
Gd481 N490 2.661 . S
Gd481 N494 2.601 . S
Gd481 O525 2.362 . S
Gd481 O526 2.324 . S
Gd481 O530 2.545 . S
Gd481 O531 2.606 . S
Gd481 O533 2.429 . S
Gd481 O534 2.545 1_545 S
Gd481 O535 2.412 . S
Gd481 C548 2.828 . S
C482 C485 1.417 . S
C482 C487 1.431 . S
C482 C488 1.412 . S
C483 C486 1.437 . S
C483 C487 1.317 . S
C483 H502 0.929 . S
C484 C485 1.426 . S
C484 C486 1.413 . S
C484 N494 1.359 . S
C485 C482 1.417 . S
C485 C484 1.426 . S
C485 N490 1.350 . S
C486 C483 1.437 . S
C486 C484 1.413 . S
C486 C496 1.391 . S
C487 C482 1.431 . S
C487 C483 1.317 . S
C487 H498 0.930 . S
C488 C482 1.412 . S
C488 C489 1.355 . S
C488 H500 0.930 . S
C489 C488 1.355 . S
C489 C491 1.402 . S
C489 H501 0.930 . S
N490 Gd481 2.661 . S
N490 C485 1.350 . S
N490 C491 1.307 . S
C491 C489 1.402 . S
C491 N490 1.307 . S
C491 H492 0.930 . S
H492 C491 0.930 . S
C493 N494 1.334 . S
C493 C495 1.394 . S
C493 H497 0.930 . S
N494 Gd481 2.601 . S
N494 C484 1.359 . S
N494 C493 1.334 . S
C495 C493 1.394 . S
C495 C496 1.359 . S
C495 H507 0.930 . S
C496 C486 1.391 . S
C496 C495 1.359 . S
C496 H508 0.929 . S
H497 C493 0.930 . S
H498 C487 0.930 . S
H499 C516 0.930 . S
H500 C488 0.930 . S
H501 C489 0.930 . S
H502 C483 0.929 . S
H503 C521 0.930 . S
H504 C512 0.930 . S
H505 C513 0.930 . S
H506 C537 0.929 . S
H507 C495 0.930 . S
H508 C496 0.929 . S
H509 C538 0.930 . S
H510 C519 0.930 . S
N511 Gd480 2.661 1_565 S
N511 C515 1.350 . S
N511 C516 1.307 . S
C512 H504 0.930 . S
C512 C513 1.355 . S
C512 C514 1.412 . S
C513 H505 0.930 . S
C513 C512 1.355 . S
C513 C516 1.402 . S
C514 C512 1.412 . S
C514 C515 1.417 . S
C514 C538 1.431 . S
C515 N511 1.350 . S
C515 C514 1.417 . S
C515 C518 1.426 . S
C516 H499 0.930 . S
C516 N511 1.307 . S
C516 C513 1.402 . S
N517 Gd480 2.601 . S
N517 C518 1.359 1_545 S
N517 C521 1.334 . S
C518 C515 1.426 . S
C518 N517 1.359 1_565 S
C518 C522 1.413 . S
C519 H510 0.930 . S
C519 C520 1.359 1_545 S
C519 C521 1.394 . S
C520 C519 1.359 1_565 S
C520 C522 1.391 . S
C520 H523 0.929 . S
C521 H503 0.930 . S
C521 N517 1.334 . S
C521 C519 1.394 . S
C522 C518 1.413 . S
C522 C520 1.391 . S
C522 C537 1.437 . S
H523 C520 0.929 . S
O524 Gd480 2.545 . S
O524 C539 1.258 . S
O525 Gd480 2.606 . S
O525 Gd481 2.362 . S
O525 C536 1.284 . S
O526 Gd481 2.324 . S
O526 C546 1.254 . S
O527 Gd480 2.429 . S
O527 C546 1.268 . S
O528 Gd480 2.545 . S
O528 C536 1.250 . S
O529 Gd480 2.412 . S
O529 C539 1.252 . S
O530 Gd481 2.545 . S
O530 C548 1.258 . S
O531 Gd480 2.362 . S
O531 Gd481 2.606 . S
O531 C547 1.284 1_545 S
O532 Gd480 2.324 . S
O532 C555 1.254 . S
O533 Gd481 2.429 . S
O533 C555 1.268 . S
O534 Gd481 2.545 1_565 S
O534 C547 1.250 . S
O535 Gd481 2.412 . S
O535 C548 1.252 . S
C536 O525 1.284 . S
C536 O528 1.250 . S
C537 H506 0.929 . S
C537 C522 1.437 . S
C537 C538 1.317 . S
C538 H509 0.930 . S
C538 C514 1.431 . S
C538 C537 1.317 . S
C539 Gd480 2.828 . S
C539 O524 1.258 . S
C539 O529 1.252 . S
C539 C540 1.497 . S
C540 C539 1.497 . S
C540 C541 1.395 . S
C540 C542 1.380 . S
C541 C540 1.395 . S
C541 C544 1.398 . S
C541 H556 0.930 . S
C542 C540 1.380 . S
C542 C543 1.391 . S
C542 H557 0.930 . S
C543 C542 1.391 . S
C543 C545 1.387 . S
C544 C541 1.398 . S
C544 C545 1.380 . S
C544 H558 0.930 . S
C545 C543 1.387 . S
C545 C544 1.380 . S
C545 H559 0.930 . S
C546 O526 1.254 . S
C546 O527 1.268 . S
C547 O531 1.284 1_565 S
C547 O534 1.250 . S
C548 Gd481 2.828 . S
C548 O530 1.258 . S
C548 O535 1.252 . S
C548 C549 1.497 . S
C549 C548 1.497 . S
C549 C550 1.395 . S
C549 C551 1.380 1_545 S
C550 C549 1.395 . S
C550 C553 1.398 1_545 S
C550 H560 0.930 . S
C551 C549 1.380 1_565 S
C551 C552 1.391 . S
C551 H561 0.930 . S
C552 C551 1.391 . S
C552 C554 1.387 . S
C553 C550 1.398 1_565 S
C553 C554 1.380 . S
C553 H562 0.930 . S
C554 C552 1.387 . S
C554 C553 1.380 . S
C554 H563 0.930 . S
C555 O532 1.254 . S
C555 O533 1.268 . S
H556 C541 0.930 . S
H557 C542 0.930 . S
H558 C544 0.930 . S
H559 C545 0.930 . S
H560 C550 0.930 . S
H561 C551 0.930 . S
H562 C553 0.930 . S
H563 C554 0.930 . S
Gd564 N595 2.661 . S
Gd564 N601 2.601 . S
Gd564 O608 2.545 . S
Gd564 O609 2.606 . S
Gd564 O611 2.429 . S
Gd564 O612 2.545 . S
Gd564 O613 2.412 . S
Gd564 O615 2.362 . S
Gd564 O616 2.324 . S
Gd564 C623 2.828 . S
Gd565 N574 2.661 . S
Gd565 N578 2.601 . S
Gd565 O609 2.362 . S
Gd565 O610 2.324 . S
Gd565 O614 2.545 . S
Gd565 O615 2.606 . S
Gd565 O617 2.429 . S
Gd565 O618 2.545 . S
Gd565 O619 2.412 . S
Gd565 C632 2.828 . S
C566 C569 1.417 . S
C566 C571 1.431 . S
C566 C572 1.412 . S
C567 C570 1.437 . S
C567 C571 1.317 . S
C567 H586 0.929 . S
C568 C569 1.426 . S
C568 C570 1.413 . S
C568 N578 1.359 . S
C569 C566 1.417 . S
C569 C568 1.426 . S
C569 N574 1.350 . S
C570 C567 1.437 . S
C570 C568 1.413 . S
C570 C580 1.391 . S
C571 C566 1.431 . S
C571 C567 1.317 . S
C571 H582 0.930 . S
C572 C566 1.412 . S
C572 C573 1.355 . S
C572 H584 0.930 . S
C573 C572 1.355 . S
C573 C575 1.402 . S
C573 H585 0.930 . S
N574 Gd565 2.661 . S
N574 C569 1.350 . S
N574 C575 1.307 . S
C575 C573 1.402 . S
C575 N574 1.307 . S
C575 H576 0.930 . S
H576 C575 0.930 . S
C577 N578 1.334 . S
C577 C579 1.394 . S
C577 H581 0.930 . S
N578 Gd565 2.601 . S
N578 C568 1.359 . S
N578 C577 1.334 . S
C579 C577 1.394 . S
C579 C580 1.359 . S
C579 H591 0.930 . S
C580 C570 1.391 . S
C580 C579 1.359 . S
C580 H592 0.929 . S
H581 C577 0.930 . S
H582 C571 0.930 . S
H583 C600 0.930 . S
H584 C572 0.930 . S
H585 C573 0.930 . S
H586 C567 0.929 . S
H587 C605 0.930 . S
H588 C596 0.930 . S
H589 C597 0.930 . S
H590 C621 0.929 . S
H591 C579 0.930 . S
H592 C580 0.929 . S
H593 C622 0.930 . S
H594 C603 0.930 . S
N595 Gd564 2.661 . S
N595 C599 1.350 . S
N595 C600 1.307 . S
C596 H588 0.930 . S
C596 C597 1.355 . S
C596 C598 1.412 . S
C597 H589 0.930 . S
C597 C596 1.355 . S
C597 C600 1.402 . S
C598 C596 1.412 . S
C598 C599 1.417 . S
C598 C622 1.431 . S
C599 N595 1.350 . S
C599 C598 1.417 . S
C599 C602 1.426 . S
C600 H583 0.930 . S
C600 N595 1.307 . S
C600 C597 1.402 . S
N601 Gd564 2.601 . S
N601 C602 1.359 . S
N601 C605 1.334 . S
C602 C599 1.426 . S
C602 N601 1.359 . S
C602 C606 1.413 . S
C603 H594 0.930 . S
C603 C604 1.359 . S
C603 C605 1.394 . S
C604 C603 1.359 . S
C604 C606 1.391 . S
C604 H607 0.929 . S
C605 H587 0.930 . S
C605 N601 1.334 . S
C605 C603 1.394 . S
C606 C602 1.413 . S
C606 C604 1.391 . S
C606 C621 1.437 . S
H607 C604 0.929 . S
O608 Gd564 2.545 . S
O608 C623 1.258 . S
O609 Gd564 2.606 . S
O609 Gd565 2.362 . S
O609 C620 1.284 . S
O610 Gd565 2.324 . S
O610 C630 1.254 . S
O611 Gd564 2.429 . S
O611 C630 1.268 . S
O612 Gd564 2.545 . S
O612 C620 1.250 . S
O613 Gd564 2.412 . S
O613 C623 1.252 . S
O614 Gd565 2.545 . S
O614 C632 1.258 . S
O615 Gd564 2.362 . S
O615 Gd565 2.606 . S
O615 C631 1.284 . S
O616 Gd564 2.324 . S
O616 C639 1.254 . S
O617 Gd565 2.429 . S
O617 C639 1.268 . S
O618 Gd565 2.545 . S
O618 C631 1.250 . S
O619 Gd565 2.412 . S
O619 C632 1.252 . S
C620 O609 1.284 . S
C620 O612 1.250 . S
C621 H590 0.929 . S
C621 C606 1.437 . S
C621 C622 1.317 . S
C622 H593 0.930 . S
C622 C598 1.431 . S
C622 C621 1.317 . S
C623 Gd564 2.828 . S
C623 O608 1.258 . S
C623 O613 1.252 . S
C623 C624 1.497 . S
C624 C623 1.497 . S
C624 C625 1.395 . S
C624 C626 1.380 . S
C625 C624 1.395 . S
C625 C628 1.398 . S
C625 H640 0.930 . S
C626 C624 1.380 . S
C626 C627 1.391 . S
C626 H641 0.930 . S
C627 C626 1.391 . S
C627 C629 1.387 . S
C628 C625 1.398 . S
C628 C629 1.380 . S
C628 H642 0.930 . S
C629 C627 1.387 . S
C629 C628 1.380 . S
C629 H643 0.930 . S
C630 O610 1.254 . S
C630 O611 1.268 . S
C631 O615 1.284 . S
C631 O618 1.250 . S
C632 Gd565 2.828 . S
C632 O614 1.258 . S
C632 O619 1.252 . S
C632 C633 1.497 . S
C633 C632 1.497 . S
C633 C634 1.395 . S
C633 C635 1.380 . S
C634 C633 1.395 . S
C634 C637 1.398 . S
C634 H644 0.930 . S
C635 C633 1.380 . S
C635 C636 1.391 . S
C635 H645 0.930 . S
C636 C635 1.391 . S
C636 C638 1.387 . S
C637 C634 1.398 . S
C637 C638 1.380 . S
C637 H646 0.930 . S
C638 C636 1.387 . S
C638 C637 1.380 . S
C638 H647 0.930 . S
C639 O616 1.254 . S
C639 O617 1.268 . S
H640 C625 0.930 . S
H641 C626 0.930 . S
H642 C628 0.930 . S
H643 C629 0.930 . S
H644 C634 0.930 . S
H645 C635 0.930 . S
H646 C637 0.930 . S
H647 C638 0.930 . S
Gd648 N679 2.661 1_545 S
Gd648 N685 2.601 1_545 S
Gd648 O692 2.545 1_545 S
Gd648 O693 2.606 . S
Gd648 O695 2.429 . S
Gd648 O696 2.545 . S
Gd648 O697 2.412 1_545 S
Gd648 O699 2.362 . S
Gd648 O700 2.324 . S
Gd648 C707 2.828 1_545 S
Gd649 N658 2.661 . S
Gd649 N662 2.601 . S
Gd649 O693 2.362 . S
Gd649 O694 2.324 . S
Gd649 O698 2.545 . S
Gd649 O699 2.606 . S
Gd649 O701 2.429 . S
Gd649 O702 2.545 . S
Gd649 O703 2.412 . S
Gd649 C716 2.828 . S
C650 C653 1.417 . S
C650 C655 1.431 . S
C650 C656 1.412 . S
C651 C654 1.437 . S
C651 C655 1.317 . S
C651 H670 0.929 . S
C652 C653 1.426 . S
C652 C654 1.413 . S
C652 N662 1.359 . S
C653 C650 1.417 . S
C653 C652 1.426 . S
C653 N658 1.350 . S
C654 C651 1.437 . S
C654 C652 1.413 . S
C654 C664 1.391 . S
C655 C650 1.431 . S
C655 C651 1.317 . S
C655 H666 0.930 . S
C656 C650 1.412 . S
C656 C657 1.355 . S
C656 H668 0.930 . S
C657 C656 1.355 . S
C657 C659 1.402 . S
C657 H669 0.930 . S
N658 Gd649 2.661 . S
N658 C653 1.350 . S
N658 C659 1.307 . S
C659 C657 1.402 . S
C659 N658 1.307 . S
C659 H660 0.930 . S
H660 C659 0.930 . S
C661 N662 1.334 . S
C661 C663 1.409 . S
C661 H665 0.930 . S
N662 Gd649 2.601 . S
N662 C652 1.359 . S
N662 C661 1.334 . S
C663 C661 1.409 . S
C663 C664 1.369 . S
C663 H675 0.907 1_455 S
C664 C654 1.391 . S
C664 C663 1.369 . S
C664 H676 0.929 . S
H665 C661 0.930 . S
H666 C655 0.930 . S
H667 C684 0.930 . S
H668 C656 0.930 . S
H669 C657 0.930 . S
H670 C651 0.929 . S
H671 C689 0.930 . S
H672 C680 0.930 1_655 S
H673 C681 0.930 . S
H674 C705 0.929 . S
H675 C663 0.907 1_655 S
H676 C664 0.929 . S
H677 C706 0.930 . S
H678 C687 0.930 . S
N679 Gd648 2.661 1_565 S
N679 C683 1.350 . S
N679 C684 1.307 . S
C680 H672 0.930 1_455 S
C680 C681 1.355 1_455 S
C680 C682 1.412 . S
C681 H673 0.930 . S
C681 C680 1.355 1_655 S
C681 C684 1.402 1_655 S
C682 C680 1.412 . S
C682 C683 1.417 . S
C682 C706 1.431 . S
C683 N679 1.350 . S
C683 C682 1.417 . S
C683 C686 1.426 . S
C684 H667 0.930 . S
C684 N679 1.307 . S
C684 C681 1.402 1_455 S
N685 Gd648 2.601 1_565 S
N685 C686 1.359 . S
N685 C689 1.334 . S
C686 C683 1.426 . S
C686 N685 1.359 . S
C686 C690 1.413 . S
C687 H678 0.930 . S
C687 C688 1.359 . S
C687 C689 1.394 . S
C688 C687 1.359 . S
C688 C690 1.391 . S
C688 H691 0.929 . S
C689 H671 0.930 . S
C689 N685 1.334 . S
C689 C687 1.394 . S
C690 C686 1.413 . S
C690 C688 1.391 . S
C690 C705 1.437 . S
H691 C688 0.929 . S
O692 Gd648 2.545 1_565 S
O692 C707 1.258 . S
O693 Gd648 2.606 . S
O693 Gd649 2.362 . S
O693 C704 1.284 . S
O694 Gd649 2.324 . S
O694 C714 1.254 . S
O695 Gd648 2.429 . S
O695 C714 1.268 . S
O696 Gd648 2.545 . S
O696 C704 1.250 . S
O697 Gd648 2.412 1_565 S
O697 C707 1.252 . S
O698 Gd649 2.545 . S
O698 C716 1.258 . S
O699 Gd648 2.362 . S
O699 Gd649 2.606 . S
O699 C715 1.284 . S
O700 Gd648 2.324 . S
O700 C723 1.254 . S
O701 Gd649 2.429 . S
O701 C723 1.268 . S
O702 Gd649 2.545 . S
O702 C715 1.250 . S
O703 Gd649 2.412 . S
O703 C716 1.252 . S
C704 O693 1.284 . S
C704 O696 1.250 . S
C705 H674 0.929 . S
C705 C690 1.437 . S
C705 C706 1.317 . S
C706 H677 0.930 . S
C706 C682 1.431 . S
C706 C705 1.317 . S
C707 Gd648 2.828 1_565 S
C707 O692 1.258 . S
C707 O697 1.252 . S
C707 C708 1.497 . S
C708 C707 1.497 . S
C708 C709 1.395 . S
C708 C710 1.380 . S
C709 C708 1.395 . S
C709 C712 1.398 . S
C709 H724 0.930 . S
C710 C708 1.380 . S
C710 C711 1.391 . S
C710 H725 0.930 . S
C711 C710 1.391 . S
C711 C713 1.387 . S
C712 C709 1.398 . S
C712 C713 1.380 . S
C712 H726 0.930 . S
C713 C711 1.387 . S
C713 C712 1.380 . S
C713 H727 0.930 . S
C714 O694 1.254 . S
C714 O695 1.268 . S
C715 O699 1.284 . S
C715 O702 1.250 . S
C716 Gd649 2.828 . S
C716 O698 1.258 . S
C716 O703 1.252 . S
C716 C717 1.497 . S
C717 C716 1.497 . S
C717 C718 1.395 . S
C717 C719 1.380 . S
C718 C717 1.395 . S
C718 C721 1.398 . S
C718 H728 0.930 . S
C719 C717 1.380 . S
C719 C720 1.391 . S
C719 H729 0.930 . S
C720 C719 1.391 . S
C720 C722 1.387 . S
C721 C718 1.398 . S
C721 C722 1.380 . S
C721 H730 0.930 . S
C722 C720 1.387 . S
C722 C721 1.380 . S
C722 H731 0.930 . S
C723 O700 1.254 . S
C723 O701 1.268 . S
H724 C709 0.930 . S
H725 C710 0.930 . S
H726 C712 0.930 . S
H727 C713 0.930 . S
H728 C718 0.930 . S
H729 C719 0.930 . S
H730 C721 0.930 . S
H731 C722 0.930 . S
Gd732 N763 2.661 . S
Gd732 N769 2.601 . S
Gd732 O776 2.545 . S
Gd732 O777 2.606 . S
Gd732 O779 2.429 . S
Gd732 O780 2.545 . S
Gd732 O781 2.412 . S
Gd732 O783 2.362 . S
Gd732 O784 2.324 . S
Gd732 C791 2.828 . S
Gd733 N742 2.661 . S
Gd733 N746 2.601 . S
Gd733 O777 2.362 . S
Gd733 O778 2.324 . S
Gd733 O782 2.545 . S
Gd733 O783 2.606 . S
Gd733 O785 2.429 . S
Gd733 O786 2.545 . S
Gd733 O787 2.412 . S
Gd733 C800 2.828 . S
C734 C737 1.417 . S
C734 C739 1.431 . S
C734 C740 1.412 . S
C735 C738 1.437 . S
C735 C739 1.317 . S
C735 H754 0.929 . S
C736 C737 1.426 . S
C736 C738 1.413 . S
C736 N746 1.359 . S
C737 C734 1.417 . S
C737 C736 1.426 . S
C737 N742 1.350 . S
C738 C735 1.437 . S
C738 C736 1.413 . S
C738 C748 1.391 . S
C739 C734 1.431 . S
C739 C735 1.317 . S
C739 H750 0.930 . S
C740 C734 1.412 . S
C740 C741 1.355 . S
C740 H752 0.930 . S
C741 C740 1.355 . S
C741 C743 1.402 . S
C741 H753 0.930 . S
N742 Gd733 2.661 . S
N742 C737 1.350 . S
N742 C743 1.307 . S
C743 C741 1.402 . S
C743 N742 1.307 . S
C743 H744 0.930 . S
H744 C743 0.930 . S
C745 N746 1.334 . S
C745 C747 1.394 . S
C745 H749 0.930 . S
N746 Gd733 2.601 . S
N746 C736 1.359 . S
N746 C745 1.334 . S
C747 C745 1.394 . S
C747 C748 1.359 . S
C747 H759 0.930 . S
C748 C738 1.391 . S
C748 C747 1.359 . S
C748 H760 0.929 . S
H749 C745 0.930 . S
H750 C739 0.930 . S
H751 C768 0.930 . S
H752 C740 0.930 . S
H753 C741 0.930 . S
H754 C735 0.929 . S
H755 C773 0.930 . S
H756 C764 0.930 . S
H757 C765 0.930 . S
H758 C789 0.929 . S
H759 C747 0.930 . S
H760 C748 0.929 . S
H761 C790 0.930 . S
H762 C771 0.930 . S
N763 Gd732 2.661 . S
N763 C767 1.350 . S
N763 C768 1.307 . S
C764 H756 0.930 . S
C764 C765 1.355 . S
C764 C766 1.412 . S
C765 H757 0.930 . S
C765 C764 1.355 . S
C765 C768 1.402 . S
C766 C764 1.412 . S
C766 C767 1.417 . S
C766 C790 1.431 . S
C767 N763 1.350 . S
C767 C766 1.417 . S
C767 C770 1.426 . S
C768 H751 0.930 . S
C768 N763 1.307 . S
C768 C765 1.402 . S
N769 Gd732 2.601 . S
N769 C770 1.359 . S
N769 C773 1.334 . S
C770 C767 1.426 . S
C770 N769 1.359 . S
C770 C774 1.413 . S
C771 H762 0.930 . S
C771 C772 1.359 . S
C771 C773 1.394 . S
C772 C771 1.359 . S
C772 C774 1.391 . S
C772 H775 0.929 . S
C773 H755 0.930 . S
C773 N769 1.334 . S
C773 C771 1.394 . S
C774 C770 1.413 . S
C774 C772 1.391 . S
C774 C789 1.437 . S
H775 C772 0.929 . S
O776 Gd732 2.545 . S
O776 C791 1.258 . S
O777 Gd732 2.606 . S
O777 Gd733 2.362 . S
O777 C788 1.284 . S
O778 Gd733 2.324 . S
O778 C798 1.254 . S
O779 Gd732 2.429 . S
O779 C798 1.268 . S
O780 Gd732 2.545 . S
O780 C788 1.250 . S
O781 Gd732 2.412 . S
O781 C791 1.252 . S
O782 Gd733 2.545 . S
O782 C800 1.258 . S
O783 Gd732 2.362 . S
O783 Gd733 2.606 . S
O783 C799 1.284 . S
O784 Gd732 2.324 . S
O784 C807 1.254 . S
O785 Gd733 2.429 . S
O785 C807 1.268 . S
O786 Gd733 2.545 . S
O786 C799 1.250 . S
O787 Gd733 2.412 . S
O787 C800 1.252 . S
C788 O777 1.284 . S
C788 O780 1.250 . S
C789 H758 0.929 . S
C789 C774 1.437 . S
C789 C790 1.317 . S
C790 H761 0.930 . S
C790 C766 1.431 . S
C790 C789 1.317 . S
C791 Gd732 2.828 . S
C791 O776 1.258 . S
C791 O781 1.252 . S
C791 C792 1.497 . S
C792 C791 1.497 . S
C792 C793 1.395 . S
C792 C794 1.380 . S
C793 C792 1.395 . S
C793 C796 1.398 . S
C793 H808 0.930 . S
C794 C792 1.380 . S
C794 C795 1.391 . S
C794 H809 0.930 . S
C795 C794 1.391 . S
C795 C797 1.387 . S
C796 C793 1.398 . S
C796 C797 1.380 . S
C796 H810 0.930 . S
C797 C795 1.387 . S
C797 C796 1.380 . S
C797 H811 0.930 . S
C798 O778 1.254 . S
C798 O779 1.268 . S
C799 O783 1.284 . S
C799 O786 1.250 . S
C800 Gd733 2.828 . S
C800 O782 1.258 . S
C800 O787 1.252 . S
C800 C801 1.497 . S
C801 C800 1.497 . S
C801 C802 1.395 . S
C801 C803 1.380 . S
C802 C801 1.395 . S
C802 C805 1.398 . S
C802 H812 0.930 . S
C803 C801 1.380 . S
C803 C804 1.391 . S
C803 H813 0.930 . S
C804 C803 1.391 . S
C804 C806 1.387 . S
C805 C802 1.398 . S
C805 C806 1.380 . S
C805 H814 0.930 . S
C806 C804 1.387 . S
C806 C805 1.380 . S
C806 H815 0.930 . S
C807 O784 1.254 . S
C807 O785 1.268 . S
H808 C793 0.930 . S
H809 C794 0.930 . S
H810 C796 0.930 . S
H811 C797 0.930 . S
H812 C802 0.930 . S
H813 C803 0.930 . S
H814 C805 0.930 . S
H815 C806 0.930 . S
Gd816 N847 2.661 . S
Gd816 N853 2.601 . S
Gd816 O860 2.545 . S
Gd816 O861 2.606 1_556 S
Gd816 O863 2.429 1_556 S
Gd816 O864 2.545 . S
Gd816 O865 2.412 . S
Gd816 O867 2.362 1_556 S
Gd816 O868 2.324 . S
Gd816 C875 2.828 . S
Gd817 N826 2.661 . S
Gd817 N830 2.601 . S
Gd817 O861 2.362 . S
Gd817 O862 2.324 . S
Gd817 O866 2.545 1_545 S
Gd817 O867 2.606 . S
Gd817 O869 2.429 1_545 S
Gd817 O870 2.545 . S
Gd817 O871 2.412 . S
Gd817 C884 2.828 . S
C818 C821 1.417 . S
C818 C823 1.431 . S
C818 C824 1.412 . S
C819 C822 1.437 . S
C819 C823 1.317 . S
C819 H838 0.929 . S
C820 C821 1.426 . S
C820 C822 1.413 . S
C820 N830 1.359 . S
C821 C818 1.417 . S
C821 C820 1.426 . S
C821 N826 1.350 . S
C822 C819 1.437 . S
C822 C820 1.413 . S
C822 C832 1.391 1_545 S
C823 C818 1.431 . S
C823 C819 1.317 . S
C823 H834 0.930 . S
C824 C818 1.412 . S
C824 C825 1.355 . S
C824 H836 0.930 . S
C825 C824 1.355 . S
C825 C827 1.402 . S
C825 H837 0.930 . S
N826 Gd817 2.661 . S
N826 C821 1.350 . S
N826 C827 1.307 . S
C827 C825 1.402 . S
C827 N826 1.307 . S
C827 H828 0.930 . S
H828 C827 0.930 . S
C829 N830 1.334 1_565 S
C829 C831 1.394 . S
C829 H833 0.930 . S
N830 Gd817 2.601 . S
N830 C820 1.359 . S
N830 C829 1.334 1_545 S
C831 C829 1.394 . S
C831 C832 1.359 . S
C831 H843 0.930 . S
C832 C822 1.391 1_565 S
C832 C831 1.359 . S
C832 H844 0.929 . S
H833 C829 0.930 . S
H834 C823 0.930 . S
H835 C852 0.930 . S
H836 C824 0.930 . S
H837 C825 0.930 . S
H838 C819 0.929 . S
H839 C857 0.930 . S
H840 C848 0.930 . S
H841 C849 0.930 . S
H842 C873 0.929 . S
H843 C831 0.930 . S
H844 C832 0.929 . S
H845 C874 0.930 . S
H846 C855 0.930 . S
N847 Gd816 2.661 . S
N847 C851 1.350 . S
N847 C852 1.307 1_545 S
C848 H840 0.930 . S
C848 C849 1.355 . S
C848 C850 1.412 1_565 S
C849 H841 0.930 . S
C849 C848 1.355 . S
C849 C852 1.402 . S
C850 C848 1.412 1_545 S
C850 C851 1.417 . S
C850 C874 1.431 . S
C851 N847 1.350 . S
C851 C850 1.417 . S
C851 C854 1.426 . S
C852 H835 0.930 . S
C852 N847 1.307 1_565 S
C852 C849 1.402 . S
N853 Gd816 2.601 . S
N853 C854 1.359 . S
N853 C857 1.334 . S
C854 C851 1.426 . S
C854 N853 1.359 . S
C854 C858 1.413 . S
C855 H846 0.930 . S
C855 C856 1.359 . S
C855 C857 1.394 . S
C856 C855 1.359 . S
C856 C858 1.391 . S
C856 H859 0.929 . S
C857 H839 0.930 . S
C857 N853 1.334 . S
C857 C855 1.394 . S
C858 C854 1.413 . S
C858 C856 1.391 . S
C858 C873 1.437 . S
H859 C856 0.929 . S
O860 Gd816 2.545 . S
O860 C875 1.258 . S
O861 Gd816 2.606 1_554 S
O861 Gd817 2.362 . S
O861 C872 1.284 . S
O862 Gd817 2.324 . S
O862 C882 1.254 . S
O863 Gd816 2.429 1_554 S
O863 C882 1.268 . S
O864 Gd816 2.545 . S
O864 C872 1.250 1_556 S
O865 Gd816 2.412 . S
O865 C875 1.252 . S
O866 Gd817 2.545 1_565 S
O866 C884 1.258 1_565 S
O867 Gd816 2.362 1_554 S
O867 Gd817 2.606 . S
O867 C883 1.284 . S
O868 Gd816 2.324 . S
O868 C891 1.254 1_545 S
O869 Gd817 2.429 1_565 S
O869 C891 1.268 1_554 S
O870 Gd817 2.545 . S
O870 C883 1.250 . S
O871 Gd817 2.412 . S
O871 C884 1.252 . S
C872 O861 1.284 . S
C872 O864 1.250 1_554 S
C873 H842 0.929 . S
C873 C858 1.437 . S
C873 C874 1.317 . S
C874 H845 0.930 . S
C874 C850 1.431 . S
C874 C873 1.317 . S
C875 Gd816 2.828 . S
C875 O860 1.258 . S
C875 O865 1.252 . S
C875 C876 1.497 . S
C876 C875 1.497 . S
C876 C877 1.395 . S
C876 C878 1.380 . S
C877 C876 1.395 . S
C877 C880 1.398 . S
C877 H892 0.930 . S
C878 C876 1.380 . S
C878 C879 1.391 . S
C878 H893 0.930 . S
C879 C878 1.391 . S
C879 C881 1.387 . S
C880 C877 1.398 . S
C880 C881 1.380 . S
C880 H894 0.930 . S
C881 C879 1.387 . S
C881 C880 1.380 . S
C881 H895 0.930 . S
C882 O862 1.254 . S
C882 O863 1.268 . S
C883 O867 1.284 . S
C883 O870 1.250 . S
C884 Gd817 2.828 . S
C884 O866 1.258 1_545 S
C884 O871 1.252 . S
C884 C885 1.501 . S
C885 C884 1.501 . S
C885 C886 1.383 1_545 S
C885 C887 1.389 . S
C886 C885 1.383 1_565 S
C886 C889 1.398 . S
C886 H896 0.930 . S
C887 C885 1.389 . S
C887 C888 1.391 . S
C887 H897 0.930 . S
C888 C887 1.391 . S
C888 C890 1.387 1_545 S
C889 C886 1.398 . S
C889 C890 1.380 . S
C889 H898 0.930 . S
C890 C888 1.387 1_565 S
C890 C889 1.380 . S
C890 H899 0.930 . S
C891 O868 1.254 1_565 S
C891 O869 1.268 1_556 S
H892 C877 0.930 . S
H893 C878 0.930 . S
H894 C880 0.930 . S
H895 C881 0.930 . S
H896 C886 0.930 . S
H897 C887 0.930 . S
H898 C889 0.930 . S
H899 C890 0.930 . S
Gd900 N931 2.661 . S
Gd900 N937 2.601 . S
Gd900 O944 2.545 . S
Gd900 O945 2.606 . S
Gd900 O947 2.429 . S
Gd900 O948 2.545 . S
Gd900 O949 2.412 . S
Gd900 O951 2.362 . S
Gd900 O952 2.324 . S
Gd900 C959 2.828 . S
Gd901 N910 2.661 . S
Gd901 N914 2.601 . S
Gd901 O945 2.362 . S
Gd901 O946 2.324 . S
Gd901 O950 2.545 . S
Gd901 O951 2.606 . S
Gd901 O953 2.429 . S
Gd901 O954 2.545 . S
Gd901 O955 2.412 . S
Gd901 C968 2.828 . S
C902 C905 1.417 . S
C902 C907 1.431 . S
C902 C908 1.412 . S
C903 C906 1.437 . S
C903 C907 1.317 . S
C903 H922 0.929 . S
C904 C905 1.426 . S
C904 C906 1.413 . S
C904 N914 1.359 . S
C905 C902 1.417 . S
C905 C904 1.426 . S
C905 N910 1.350 . S
C906 C903 1.437 . S
C906 C904 1.413 . S
C906 C916 1.391 . S
C907 C902 1.431 . S
C907 C903 1.317 . S
C907 H918 0.930 . S
C908 C902 1.412 . S
C908 C909 1.355 . S
C908 H920 0.930 . S
C909 C908 1.355 . S
C909 C911 1.402 . S
C909 H921 0.930 . S
N910 Gd901 2.661 . S
N910 C905 1.350 . S
N910 C911 1.307 . S
C911 C909 1.402 . S
C911 N910 1.307 . S
C911 H912 0.930 . S
H912 C911 0.930 . S
C913 N914 1.334 . S
C913 C915 1.394 . S
C913 H917 0.930 . S
N914 Gd901 2.601 . S
N914 C904 1.359 . S
N914 C913 1.334 . S
C915 C913 1.394 . S
C915 C916 1.359 . S
C915 H927 0.930 . S
C916 C906 1.391 . S
C916 C915 1.359 . S
C916 H928 0.929 . S
H917 C913 0.930 . S
H918 C907 0.930 . S
H919 C936 0.930 . S
H920 C908 0.930 . S
H921 C909 0.930 . S
H922 C903 0.929 . S
H923 C941 0.930 . S
H924 C932 0.930 . S
H925 C933 0.930 . S
H926 C957 0.929 . S
H927 C915 0.930 . S
H928 C916 0.929 . S
H929 C958 0.930 . S
H930 C939 0.930 . S
N931 Gd900 2.661 . S
N931 C935 1.350 . S
N931 C936 1.307 . S
C932 H924 0.930 . S
C932 C933 1.355 . S
C932 C934 1.412 . S
C933 H925 0.930 . S
C933 C932 1.355 . S
C933 C936 1.402 . S
C934 C932 1.412 . S
C934 C935 1.417 . S
C934 C958 1.431 . S
C935 N931 1.350 . S
C935 C934 1.417 . S
C935 C938 1.426 . S
C936 H919 0.930 . S
C936 N931 1.307 . S
C936 C933 1.402 . S
N937 Gd900 2.601 . S
N937 C938 1.359 . S
N937 C941 1.334 . S
C938 C935 1.426 . S
C938 N937 1.359 . S
C938 C942 1.413 . S
C939 H930 0.930 . S
C939 C940 1.359 . S
C939 C941 1.394 . S
C940 C939 1.359 . S
C940 C942 1.391 . S
C940 H943 0.929 . S
C941 H923 0.930 . S
C941 N937 1.334 . S
C941 C939 1.394 . S
C942 C938 1.413 . S
C942 C940 1.391 . S
C942 C957 1.437 . S
H943 C940 0.929 . S
O944 Gd900 2.545 . S
O944 C959 1.258 . S
O945 Gd900 2.606 . S
O945 Gd901 2.362 . S
O945 C956 1.284 . S
O946 Gd901 2.324 . S
O946 C966 1.254 . S
O947 Gd900 2.429 . S
O947 C966 1.268 . S
O948 Gd900 2.545 . S
O948 C956 1.250 . S
O949 Gd900 2.412 . S
O949 C959 1.252 . S
O950 Gd901 2.545 . S
O950 C968 1.258 . S
O951 Gd900 2.362 . S
O951 Gd901 2.606 . S
O951 C967 1.284 . S
O952 Gd900 2.324 . S
O952 C975 1.254 . S
O953 Gd901 2.429 . S
O953 C975 1.268 . S
O954 Gd901 2.545 . S
O954 C967 1.250 . S
O955 Gd901 2.412 . S
O955 C968 1.252 . S
C956 O945 1.284 . S
C956 O948 1.250 . S
C957 H926 0.929 . S
C957 C942 1.437 . S
C957 C958 1.317 . S
C958 H929 0.930 . S
C958 C934 1.431 . S
C958 C957 1.317 . S
C959 Gd900 2.828 . S
C959 O944 1.258 . S
C959 O949 1.252 . S
C959 C960 1.497 . S
C960 C959 1.497 . S
C960 C961 1.395 . S
C960 C962 1.380 . S
C961 C960 1.395 . S
C961 C964 1.398 . S
C961 H976 0.930 . S
C962 C960 1.380 . S
C962 C963 1.391 . S
C962 H977 0.930 . S
C963 C962 1.391 . S
C963 C965 1.387 . S
C964 C961 1.398 . S
C964 C965 1.380 . S
C964 H978 0.930 . S
C965 C963 1.387 . S
C965 C964 1.380 . S
C965 H979 0.930 . S
C966 O946 1.254 . S
C966 O947 1.268 . S
C967 O951 1.284 . S
C967 O954 1.250 . S
C968 Gd901 2.828 . S
C968 O950 1.258 . S
C968 O955 1.252 . S
C968 C969 1.497 . S
C969 C968 1.497 . S
C969 C970 1.395 . S
C969 C971 1.380 . S
C970 C969 1.395 . S
C970 C973 1.398 . S
C970 H980 0.930 . S
C971 C969 1.380 . S
C971 C972 1.391 . S
C971 H981 0.930 . S
C972 C971 1.391 . S
C972 C974 1.387 . S
C973 C970 1.398 . S
C973 C974 1.380 . S
C973 H982 0.930 . S
C974 C972 1.387 . S
C974 C973 1.380 . S
C974 H983 0.930 . S
C975 O952 1.254 . S
C975 O953 1.268 . S
H976 C961 0.930 . S
H977 C962 0.930 . S
H978 C964 0.930 . S
H979 C965 0.930 . S
H980 C970 0.930 . S
H981 C971 0.930 . S
H982 C973 0.930 . S
H983 C974 0.930 . S
Gd984 N1015 2.661 1_554 S
Gd984 N1021 2.601 1_554 S
Gd984 O1028 2.545 . S
Gd984 O1029 2.606 . S
Gd984 O1031 2.429 . S
Gd984 O1032 2.545 . S
Gd984 O1033 2.412 . S
Gd984 O1035 2.362 1_554 S
Gd984 O1036 2.324 . S
Gd984 C1043 2.828 . S
Gd985 N994 2.661 . S
Gd985 N998 2.601 . S
Gd985 O1029 2.362 . S
Gd985 O1030 2.324 . S
Gd985 O1034 2.545 . S
Gd985 O1035 2.606 1_554 S
Gd985 O1037 2.429 . S
Gd985 O1038 2.545 1_554 S
Gd985 O1039 2.412 . S
Gd985 C1052 2.828 . S
C986 C989 1.417 . S
C986 C991 1.431 . S
C986 C992 1.412 . S
C987 C990 1.437 . S
C987 C991 1.317 . S
C987 H1006 0.929 . S
C988 C989 1.426 . S
C988 C990 1.413 . S
C988 N998 1.359 . S
C989 C986 1.417 . S
C989 C988 1.426 . S
C989 N994 1.350 . S
C990 C987 1.437 . S
C990 C988 1.413 . S
C990 C1000 1.391 . S
C991 C986 1.431 . S
C991 C987 1.317 . S
C991 H1002 0.930 . S
C992 C986 1.412 . S
C992 C993 1.355 . S
C992 H1004 0.930 . S
C993 C992 1.355 . S
C993 C995 1.402 . S
C993 H1005 0.930 . S
N994 Gd985 2.661 . S
N994 C989 1.350 . S
N994 C995 1.307 . S
C995 C993 1.402 . S
C995 N994 1.307 . S
C995 H996 0.930 . S
H996 C995 0.930 . S
C997 N998 1.334 . S
C997 C999 1.394 . S
C997 H1001 0.930 . S
N998 Gd985 2.601 . S
N998 C988 1.359 . S
N998 C997 1.334 . S
C999 C997 1.394 . S
C999 C1000 1.359 . S
C999 H1011 0.930 . S
C1000 C990 1.391 . S
C1000 C999 1.359 . S
C1000 H1012 0.929 . S
H1001 C997 0.930 . S
H1002 C991 0.930 . S
H1003 C1020 0.930 . S
H1004 C992 0.930 . S
H1005 C993 0.930 . S
H1006 C987 0.929 . S
H1007 C1025 0.930 . S
H1008 C1016 0.930 . S
H1009 C1017 0.930 . S
H1010 C1041 0.929 . S
H1011 C999 0.930 . S
H1012 C1000 0.929 . S
H1013 C1042 0.930 . S
H1014 C1023 0.930 . S
N1015 Gd984 2.661 1_556 S
N1015 C1019 1.350 . S
N1015 C1020 1.307 . S
C1016 H1008 0.930 . S
C1016 C1017 1.355 . S
C1016 C1018 1.412 . S
C1017 H1009 0.930 . S
C1017 C1016 1.355 . S
C1017 C1020 1.402 . S
C1018 C1016 1.412 . S
C1018 C1019 1.417 . S
C1018 C1042 1.431 . S
C1019 N1015 1.350 . S
C1019 C1018 1.417 . S
C1019 C1022 1.426 . S
C1020 H1003 0.930 . S
C1020 N1015 1.307 . S
C1020 C1017 1.402 . S
N1021 Gd984 2.601 1_556 S
N1021 C1022 1.359 . S
N1021 C1025 1.334 . S
C1022 C1019 1.426 . S
C1022 N1021 1.359 . S
C1022 C1026 1.413 . S
C1023 H1014 0.930 . S
C1023 C1024 1.359 . S
C1023 C1025 1.394 . S
C1024 C1023 1.359 . S
C1024 C1026 1.391 . S
C1024 H1027 0.929 . S
C1025 H1007 0.930 . S
C1025 N1021 1.334 . S
C1025 C1023 1.394 . S
C1026 C1022 1.413 . S
C1026 C1024 1.391 . S
C1026 C1041 1.437 . S
H1027 C1024 0.929 . S
O1028 Gd984 2.545 . S
O1028 C1043 1.258 . S
O1029 Gd984 2.606 . S
O1029 Gd985 2.362 . S
O1029 C1040 1.284 . S
O1030 Gd985 2.324 . S
O1030 C1050 1.254 . S
O1031 Gd984 2.429 . S
O1031 C1050 1.268 . S
O1032 Gd984 2.545 . S
O1032 C1040 1.250 . S
O1033 Gd984 2.412 . S
O1033 C1043 1.252 . S
O1034 Gd985 2.545 . S
O1034 C1052 1.258 . S
O1035 Gd984 2.362 1_556 S
O1035 Gd985 2.606 1_556 S
O1035 C1051 1.284 . S
O1036 Gd984 2.324 . S
O1036 C1059 1.254 . S
O1037 Gd985 2.429 . S
O1037 C1059 1.268 . S
O1038 Gd985 2.545 1_556 S
O1038 C1051 1.250 . S
O1039 Gd985 2.412 . S
O1039 C1052 1.252 . S
C1040 O1029 1.284 . S
C1040 O1032 1.250 . S
C1041 H1010 0.929 . S
C1041 C1026 1.437 . S
C1041 C1042 1.317 . S
C1042 H1013 0.930 . S
C1042 C1018 1.431 . S
C1042 C1041 1.317 . S
C1043 Gd984 2.828 . S
C1043 O1028 1.258 . S
C1043 O1033 1.252 . S
C1043 C1044 1.497 . S
C1044 C1043 1.497 . S
C1044 C1045 1.395 . S
C1044 C1046 1.380 . S
C1045 C1044 1.395 . S
C1045 C1048 1.398 . S
C1045 H1060 0.930 . S
C1046 C1044 1.380 . S
C1046 C1047 1.391 . S
C1046 H1061 0.930 . S
C1047 C1046 1.391 . S
C1047 C1049 1.387 . S
C1048 C1045 1.398 . S
C1048 C1049 1.380 . S
C1048 H1062 0.930 . S
C1049 C1047 1.387 . S
C1049 C1048 1.380 . S
C1049 H1063 0.930 . S
C1050 O1030 1.254 . S
C1050 O1031 1.268 . S
C1051 O1035 1.284 . S
C1051 O1038 1.250 . S
C1052 Gd985 2.828 . S
C1052 O1034 1.258 . S
C1052 O1039 1.252 . S
C1052 C1053 1.497 . S
C1053 C1052 1.497 . S
C1053 C1054 1.395 . S
C1053 C1055 1.380 . S
C1054 C1053 1.395 . S
C1054 C1057 1.398 . S
C1054 H1064 0.930 . S
C1055 C1053 1.380 . S
C1055 C1056 1.391 1_554 S
C1055 H1065 0.932 . S
C1056 C1055 1.391 1_556 S
C1056 C1058 1.387 1_556 S
C1057 C1054 1.398 . S
C1057 C1058 1.380 . S
C1057 H1066 0.930 . S
C1058 C1056 1.387 1_554 S
C1058 C1057 1.380 . S
C1058 H1067 0.930 . S
C1059 O1036 1.254 . S
C1059 O1037 1.268 . S
H1060 C1045 0.930 . S
H1061 C1046 0.930 . S
H1062 C1048 0.930 . S
H1063 C1049 0.930 . S
H1064 C1054 0.930 . S
H1065 C1055 0.932 . S
H1066 C1057 0.930 . S
H1067 C1058 0.930 . S
Gd1068 N1099 2.661 . S
Gd1068 N1105 2.601 . S
Gd1068 O1112 2.545 . S
Gd1068 O1113 2.606 . S
Gd1068 O1115 2.429 . S
Gd1068 O1116 2.545 . S
Gd1068 O1117 2.412 . S
Gd1068 O1119 2.362 . S
Gd1068 O1120 2.324 . S
Gd1068 C1127 2.828 . S
Gd1069 N1078 2.661 . S
Gd1069 N1082 2.601 . S
Gd1069 O1113 2.362 . S
Gd1069 O1114 2.324 . S
Gd1069 O1118 2.545 . S
Gd1069 O1119 2.606 . S
Gd1069 O1121 2.429 . S
Gd1069 O1122 2.545 . S
Gd1069 O1123 2.412 . S
Gd1069 C1136 2.828 . S
C1070 C1073 1.417 . S
C1070 C1075 1.431 . S
C1070 C1076 1.412 . S
C1071 C1074 1.437 . S
C1071 C1075 1.317 . S
C1071 H1090 0.929 . S
C1072 C1073 1.426 . S
C1072 C1074 1.413 . S
C1072 N1082 1.359 . S
C1073 C1070 1.417 . S
C1073 C1072 1.426 . S
C1073 N1078 1.350 . S
C1074 C1071 1.437 . S
C1074 C1072 1.413 . S
C1074 C1084 1.391 . S
C1075 C1070 1.431 . S
C1075 C1071 1.317 . S
C1075 H1086 0.930 . S
C1076 C1070 1.412 . S
C1076 C1077 1.355 . S
C1076 H1088 0.930 . S
C1077 C1076 1.355 . S
C1077 C1079 1.402 . S
C1077 H1089 0.930 . S
N1078 Gd1069 2.661 . S
N1078 C1073 1.350 . S
N1078 C1079 1.307 . S
C1079 C1077 1.402 . S
C1079 N1078 1.307 . S
C1079 H1080 0.930 . S
H1080 C1079 0.930 . S
C1081 N1082 1.334 . S
C1081 C1083 1.394 . S
C1081 H1085 0.930 . S
N1082 Gd1069 2.601 . S
N1082 C1072 1.359 . S
N1082 C1081 1.334 . S
C1083 C1081 1.394 . S
C1083 C1084 1.359 . S
C1083 H1095 0.930 . S
C1084 C1074 1.391 . S
C1084 C1083 1.359 . S
C1084 H1096 0.929 . S
H1085 C1081 0.930 . S
H1086 C1075 0.930 . S
H1087 C1104 0.930 . S
H1088 C1076 0.930 . S
H1089 C1077 0.930 . S
H1090 C1071 0.929 . S
H1091 C1109 0.930 . S
H1092 C1100 0.930 . S
H1093 C1101 0.930 . S
H1094 C1125 0.929 . S
H1095 C1083 0.930 . S
H1096 C1084 0.929 . S
H1097 C1126 0.930 . S
H1098 C1107 0.930 . S
N1099 Gd1068 2.661 . S
N1099 C1103 1.350 . S
N1099 C1104 1.307 . S
C1100 H1092 0.930 . S
C1100 C1101 1.355 . S
C1100 C1102 1.412 . S
C1101 H1093 0.930 . S
C1101 C1100 1.355 . S
C1101 C1104 1.402 . S
C1102 C1100 1.412 . S
C1102 C1103 1.417 . S
C1102 C1126 1.431 . S
C1103 N1099 1.350 . S
C1103 C1102 1.417 . S
C1103 C1106 1.426 . S
C1104 H1087 0.930 . S
C1104 N1099 1.307 . S
C1104 C1101 1.402 . S
N1105 Gd1068 2.601 . S
N1105 C1106 1.359 . S
N1105 C1109 1.334 . S
C1106 C1103 1.426 . S
C1106 N1105 1.359 . S
C1106 C1110 1.413 . S
C1107 H1098 0.930 . S
C1107 C1108 1.359 . S
C1107 C1109 1.394 . S
C1108 C1107 1.359 . S
C1108 C1110 1.391 . S
C1108 H1111 0.929 . S
C1109 H1091 0.930 . S
C1109 N1105 1.334 . S
C1109 C1107 1.394 . S
C1110 C1106 1.413 . S
C1110 C1108 1.391 . S
C1110 C1125 1.437 . S
H1111 C1108 0.929 . S
O1112 Gd1068 2.545 . S
O1112 C1127 1.258 . S
O1113 Gd1068 2.606 . S
O1113 Gd1069 2.362 . S
O1113 C1124 1.284 . S
O1114 Gd1069 2.324 . S
O1114 C1134 1.254 . S
O1115 Gd1068 2.429 . S
O1115 C1134 1.268 . S
O1116 Gd1068 2.545 . S
O1116 C1124 1.250 . S
O1117 Gd1068 2.412 . S
O1117 C1127 1.252 . S
O1118 Gd1069 2.545 . S
O1118 C1136 1.258 . S
O1119 Gd1068 2.362 . S
O1119 Gd1069 2.606 . S
O1119 C1135 1.284 . S
O1120 Gd1068 2.324 . S
O1120 C1143 1.254 . S
O1121 Gd1069 2.429 . S
O1121 C1143 1.268 . S
O1122 Gd1069 2.545 . S
O1122 C1135 1.250 . S
O1123 Gd1069 2.412 . S
O1123 C1136 1.252 . S
C1124 O1113 1.284 . S
C1124 O1116 1.250 . S
C1125 H1094 0.929 . S
C1125 C1110 1.437 . S
C1125 C1126 1.317 . S
C1126 H1097 0.930 . S
C1126 C1102 1.431 . S
C1126 C1125 1.317 . S
C1127 Gd1068 2.828 . S
C1127 O1112 1.258 . S
C1127 O1117 1.252 . S
C1127 C1128 1.497 . S
C1128 C1127 1.497 . S
C1128 C1129 1.395 . S
C1128 C1130 1.380 . S
C1129 C1128 1.395 . S
C1129 C1132 1.398 . S
C1129 H1144 0.930 . S
C1130 C1128 1.380 . S
C1130 C1131 1.391 . S
C1130 H1145 0.930 . S
C1131 C1130 1.391 . S
C1131 C1133 1.387 . S
C1132 C1129 1.398 . S
C1132 C1133 1.380 . S
C1132 H1146 0.930 . S
C1133 C1131 1.387 . S
C1133 C1132 1.380 . S
C1133 H1147 0.930 . S
C1134 O1114 1.254 . S
C1134 O1115 1.268 . S
C1135 O1119 1.284 . S
C1135 O1122 1.250 . S
C1136 Gd1069 2.828 . S
C1136 O1118 1.258 . S
C1136 O1123 1.252 . S
C1136 C1137 1.497 . S
C1137 C1136 1.497 . S
C1137 C1138 1.395 . S
C1137 C1139 1.380 . S
C1138 C1137 1.395 . S
C1138 C1141 1.398 . S
C1138 H1148 0.930 . S
C1139 C1137 1.380 . S
C1139 C1140 1.391 . S
C1139 H1149 0.930 . S
C1140 C1139 1.391 . S
C1140 C1142 1.387 . S
C1141 C1138 1.398 . S
C1141 C1142 1.380 . S
C1141 H1150 0.930 . S
C1142 C1140 1.387 . S
C1142 C1141 1.380 . S
C1142 H1151 0.930 . S
C1143 O1120 1.254 . S
C1143 O1121 1.268 . S
H1144 C1129 0.930 . S
H1145 C1130 0.930 . S
H1146 C1132 0.930 . S
H1147 C1133 0.930 . S
H1148 C1138 0.930 . S
H1149 C1139 0.930 . S
H1150 C1141 0.930 . S
H1151 C1142 0.930 . S
Gd1152 N1183 2.661 . S
Gd1152 N1189 2.601 . S
Gd1152 O1196 2.545 . S
Gd1152 O1197 2.606 . S
Gd1152 O1199 2.429 . S
Gd1152 O1200 2.545 . S
Gd1152 O1201 2.412 . S
Gd1152 O1203 2.362 . S
Gd1152 O1204 2.324 . S
Gd1152 C1211 2.828 . S
Gd1153 N1162 2.661 . S
Gd1153 N1166 2.601 . S
Gd1153 O1197 2.362 . S
Gd1153 O1198 2.324 . S
Gd1153 O1202 2.545 . S
Gd1153 O1203 2.606 . S
Gd1153 O1205 2.429 . S
Gd1153 O1206 2.545 . S
Gd1153 O1207 2.412 . S
Gd1153 C1220 2.828 . S
C1154 C1157 1.417 . S
C1154 C1159 1.431 . S
C1154 C1160 1.412 . S
C1155 C1158 1.437 . S
C1155 C1159 1.317 . S
C1155 H1174 0.929 . S
C1156 C1157 1.426 . S
C1156 C1158 1.413 . S
C1156 N1166 1.359 . S
C1157 C1154 1.417 . S
C1157 C1156 1.426 . S
C1157 N1162 1.350 . S
C1158 C1155 1.437 . S
C1158 C1156 1.413 . S
C1158 C1168 1.391 . S
C1159 C1154 1.431 . S
C1159 C1155 1.317 . S
C1159 H1170 0.930 . S
C1160 C1154 1.412 . S
C1160 C1161 1.355 . S
C1160 H1172 0.930 . S
C1161 C1160 1.355 . S
C1161 C1163 1.402 . S
C1161 H1173 0.930 . S
N1162 Gd1153 2.661 . S
N1162 C1157 1.350 . S
N1162 C1163 1.307 . S
C1163 C1161 1.402 . S
C1163 N1162 1.307 . S
C1163 H1164 0.930 . S
H1164 C1163 0.930 . S
C1165 N1166 1.334 . S
C1165 C1167 1.394 . S
C1165 H1169 0.930 . S
N1166 Gd1153 2.601 . S
N1166 C1156 1.359 . S
N1166 C1165 1.334 . S
C1167 C1165 1.394 . S
C1167 C1168 1.359 . S
C1167 H1179 0.930 . S
C1168 C1158 1.391 . S
C1168 C1167 1.359 . S
C1168 H1180 0.929 . S
H1169 C1165 0.930 . S
H1170 C1159 0.930 . S
H1171 C1188 0.930 . S
H1172 C1160 0.930 . S
H1173 C1161 0.930 . S
H1174 C1155 0.929 . S
H1175 C1193 0.930 . S
H1176 C1184 0.930 . S
H1177 C1185 0.924 . S
H1178 C1209 0.929 . S
H1179 C1167 0.930 . S
H1180 C1168 0.929 . S
H1181 C1210 0.930 . S
H1182 C1191 0.930 . S
N1183 Gd1152 2.661 . S
N1183 C1187 1.350 . S
N1183 C1188 1.307 . S
C1184 H1176 0.930 . S
C1184 C1185 1.383 . S
C1184 C1186 1.412 . S
C1185 H1177 0.924 . S
C1185 C1184 1.383 . S
C1185 C1188 1.381 1_655 S
C1186 C1184 1.412 . S
C1186 C1187 1.417 1_655 S
C1186 C1210 1.431 . S
C1187 N1183 1.350 . S
C1187 C1186 1.417 1_455 S
C1187 C1190 1.426 . S
C1188 H1171 0.930 . S
C1188 N1183 1.307 . S
C1188 C1185 1.381 1_455 S
N1189 Gd1152 2.601 . S
N1189 C1190 1.359 . S
N1189 C1193 1.334 . S
C1190 C1187 1.426 . S
C1190 N1189 1.359 . S
C1190 C1194 1.413 1_455 S
C1191 H1182 0.930 . S
C1191 C1192 1.359 1_455 S
C1191 C1193 1.394 . S
C1192 C1191 1.359 1_655 S
C1192 C1194 1.391 . S
C1192 H1195 0.929 . S
C1193 H1175 0.930 . S
C1193 N1189 1.334 . S
C1193 C1191 1.394 . S
C1194 C1190 1.413 1_655 S
C1194 C1192 1.391 . S
C1194 C1209 1.437 . S
H1195 C1192 0.929 . S
O1196 Gd1152 2.545 . S
O1196 C1211 1.258 . S
O1197 Gd1152 2.606 . S
O1197 Gd1153 2.362 . S
O1197 C1208 1.284 . S
O1198 Gd1153 2.324 . S
O1198 C1218 1.254 . S
O1199 Gd1152 2.429 . S
O1199 C1218 1.268 . S
O1200 Gd1152 2.545 . S
O1200 C1208 1.250 . S
O1201 Gd1152 2.412 . S
O1201 C1211 1.252 . S
O1202 Gd1153 2.545 . S
O1202 C1220 1.258 . S
O1203 Gd1152 2.362 . S
O1203 Gd1153 2.606 . S
O1203 C1219 1.284 . S
O1204 Gd1152 2.324 . S
O1204 C1227 1.254 . S
O1205 Gd1153 2.429 . S
O1205 C1227 1.268 . S
O1206 Gd1153 2.545 . S
O1206 C1219 1.250 . S
O1207 Gd1153 2.412 . S
O1207 C1220 1.252 . S
C1208 O1197 1.284 . S
C1208 O1200 1.250 . S
C1209 H1178 0.929 . S
C1209 C1194 1.437 . S
C1209 C1210 1.317 . S
C1210 H1181 0.930 . S
C1210 C1186 1.431 . S
C1210 C1209 1.317 . S
C1211 Gd1152 2.828 . S
C1211 O1196 1.258 . S
C1211 O1201 1.252 . S
C1211 C1212 1.497 . S
C1212 C1211 1.497 . S
C1212 C1213 1.395 . S
C1212 C1214 1.380 . S
C1213 C1212 1.395 . S
C1213 C1216 1.398 . S
C1213 H1228 0.930 . S
C1214 C1212 1.380 . S
C1214 C1215 1.391 . S
C1214 H1229 0.930 . S
C1215 C1214 1.391 . S
C1215 C1217 1.387 . S
C1216 C1213 1.398 . S
C1216 C1217 1.380 . S
C1216 H1230 0.930 . S
C1217 C1215 1.387 . S
C1217 C1216 1.380 . S
C1217 H1231 0.930 . S
C1218 O1198 1.254 . S
C1218 O1199 1.268 . S
C1219 O1203 1.284 . S
C1219 O1206 1.250 . S
C1220 Gd1153 2.828 . S
C1220 O1202 1.258 . S
C1220 O1207 1.252 . S
C1220 C1221 1.497 . S
C1221 C1220 1.497 . S
C1221 C1222 1.395 . S
C1221 C1223 1.380 . S
C1222 C1221 1.395 . S
C1222 C1225 1.398 . S
C1222 H1232 0.930 . S
C1223 C1221 1.380 . S
C1223 C1224 1.391 . S
C1223 H1233 0.930 . S
C1224 C1223 1.391 . S
C1224 C1226 1.387 . S
C1225 C1222 1.398 . S
C1225 C1226 1.380 . S
C1225 H1234 0.930 . S
C1226 C1224 1.387 . S
C1226 C1225 1.380 . S
C1226 H1235 0.930 . S
C1227 O1204 1.254 . S
C1227 O1205 1.268 . S
H1228 C1213 0.930 . S
H1229 C1214 0.930 . S
H1230 C1216 0.930 . S
H1231 C1217 0.930 . S
H1232 C1222 0.930 . S
H1233 C1223 0.930 . S
H1234 C1225 0.930 . S
H1235 C1226 0.930 . S
Gd1236 N1267 2.661 . S
Gd1236 N1273 2.601 . S
Gd1236 O1280 2.545 . S
Gd1236 O1281 2.606 . S
Gd1236 O1283 2.429 . S
Gd1236 O1284 2.545 . S
Gd1236 O1285 2.412 . S
Gd1236 O1287 2.362 . S
Gd1236 O1288 2.324 . S
Gd1236 C1295 2.828 . S
Gd1237 N1246 2.661 . S
Gd1237 N1250 2.601 . S
Gd1237 O1281 2.362 . S
Gd1237 O1282 2.324 . S
Gd1237 O1286 2.545 . S
Gd1237 O1287 2.606 . S
Gd1237 O1289 2.429 . S
Gd1237 O1290 2.545 . S
Gd1237 O1291 2.412 . S
Gd1237 C1304 2.828 . S
C1238 C1241 1.417 . S
C1238 C1243 1.431 . S
C1238 C1244 1.412 . S
C1239 C1242 1.437 . S
C1239 C1243 1.317 . S
C1239 H1258 0.929 . S
C1240 C1241 1.426 . S
C1240 C1242 1.413 . S
C1240 N1250 1.359 . S
C1241 C1238 1.417 . S
C1241 C1240 1.426 . S
C1241 N1246 1.350 . S
C1242 C1239 1.437 . S
C1242 C1240 1.413 . S
C1242 C1252 1.391 . S
C1243 C1238 1.431 . S
C1243 C1239 1.317 . S
C1243 H1254 0.930 . S
C1244 C1238 1.412 . S
C1244 C1245 1.355 . S
C1244 H1256 0.930 . S
C1245 C1244 1.355 . S
C1245 C1247 1.402 . S
C1245 H1257 0.930 . S
N1246 Gd1237 2.661 . S
N1246 C1241 1.350 . S
N1246 C1247 1.307 . S
C1247 C1245 1.402 . S
C1247 N1246 1.307 . S
C1247 H1248 0.930 . S
H1248 C1247 0.930 . S
C1249 N1250 1.334 . S
C1249 C1251 1.394 . S
C1249 H1253 0.930 . S
N1250 Gd1237 2.601 . S
N1250 C1240 1.359 . S
N1250 C1249 1.334 . S
C1251 C1249 1.394 . S
C1251 C1252 1.359 . S
C1251 H1263 0.930 . S
C1252 C1242 1.391 . S
C1252 C1251 1.359 . S
C1252 H1264 0.929 . S
H1253 C1249 0.930 . S
H1254 C1243 0.930 . S
H1255 C1272 0.930 . S
H1256 C1244 0.930 . S
H1257 C1245 0.930 . S
H1258 C1239 0.929 . S
H1259 C1277 0.930 . S
H1260 C1268 0.930 . S
H1261 C1269 0.930 . S
H1262 C1293 0.929 . S
H1263 C1251 0.930 . S
H1264 C1252 0.929 . S
H1265 C1294 0.930 . S
H1266 C1275 0.930 . S
N1267 Gd1236 2.661 . S
N1267 C1271 1.350 . S
N1267 C1272 1.307 . S
C1268 H1260 0.930 . S
C1268 C1269 1.355 . S
C1268 C1270 1.412 . S
C1269 H1261 0.930 . S
C1269 C1268 1.355 . S
C1269 C1272 1.402 . S
C1270 C1268 1.412 . S
C1270 C1271 1.417 . S
C1270 C1294 1.431 . S
C1271 N1267 1.350 . S
C1271 C1270 1.417 . S
C1271 C1274 1.426 . S
C1272 H1255 0.930 . S
C1272 N1267 1.307 . S
C1272 C1269 1.402 . S
N1273 Gd1236 2.601 . S
N1273 C1274 1.359 . S
N1273 C1277 1.334 . S
C1274 C1271 1.426 . S
C1274 N1273 1.359 . S
C1274 C1278 1.413 . S
C1275 H1266 0.930 . S
C1275 C1276 1.359 . S
C1275 C1277 1.394 . S
C1276 C1275 1.359 . S
C1276 C1278 1.391 . S
C1276 H1279 0.929 . S
C1277 H1259 0.930 . S
C1277 N1273 1.334 . S
C1277 C1275 1.394 . S
C1278 C1274 1.413 . S
C1278 C1276 1.391 . S
C1278 C1293 1.437 . S
H1279 C1276 0.929 . S
O1280 Gd1236 2.545 . S
O1280 C1295 1.258 . S
O1281 Gd1236 2.606 . S
O1281 Gd1237 2.362 . S
O1281 C1292 1.284 . S
O1282 Gd1237 2.324 . S
O1282 C1302 1.254 . S
O1283 Gd1236 2.429 . S
O1283 C1302 1.268 . S
O1284 Gd1236 2.545 . S
O1284 C1292 1.250 . S
O1285 Gd1236 2.412 . S
O1285 C1295 1.252 . S
O1286 Gd1237 2.545 . S
O1286 C1304 1.258 . S
O1287 Gd1236 2.362 . S
O1287 Gd1237 2.606 . S
O1287 C1303 1.284 . S
O1288 Gd1236 2.324 . S
O1288 C1311 1.254 . S
O1289 Gd1237 2.429 . S
O1289 C1311 1.268 . S
O1290 Gd1237 2.545 . S
O1290 C1303 1.250 . S
O1291 Gd1237 2.412 . S
O1291 C1304 1.252 . S
C1292 O1281 1.284 . S
C1292 O1284 1.250 . S
C1293 H1262 0.929 . S
C1293 C1278 1.437 . S
C1293 C1294 1.317 . S
C1294 H1265 0.930 . S
C1294 C1270 1.431 . S
C1294 C1293 1.317 . S
C1295 Gd1236 2.828 . S
C1295 O1280 1.258 . S
C1295 O1285 1.252 . S
C1295 C1296 1.497 . S
C1296 C1295 1.497 . S
C1296 C1297 1.395 . S
C1296 C1298 1.380 . S
C1297 C1296 1.395 . S
C1297 C1300 1.398 . S
C1297 H1312 0.930 . S
C1298 C1296 1.380 . S
C1298 C1299 1.391 . S
C1298 H1313 0.930 . S
C1299 C1298 1.391 . S
C1299 C1301 1.387 . S
C1300 C1297 1.398 . S
C1300 C1301 1.380 . S
C1300 H1314 0.930 . S
C1301 C1299 1.387 . S
C1301 C1300 1.380 . S
C1301 H1315 0.930 . S
C1302 O1282 1.254 . S
C1302 O1283 1.268 . S
C1303 O1287 1.284 . S
C1303 O1290 1.250 . S
C1304 Gd1237 2.828 . S
C1304 O1286 1.258 . S
C1304 O1291 1.252 . S
C1304 C1305 1.497 . S
C1305 C1304 1.497 . S
C1305 C1306 1.395 . S
C1305 C1307 1.380 . S
C1306 C1305 1.395 . S
C1306 C1309 1.398 . S
C1306 H1316 0.930 . S
C1307 C1305 1.380 . S
C1307 C1308 1.391 . S
C1307 H1317 0.930 . S
C1308 C1307 1.391 . S
C1308 C1310 1.387 . S
C1309 C1306 1.398 . S
C1309 C1310 1.380 . S
C1309 H1318 0.930 . S
C1310 C1308 1.387 . S
C1310 C1309 1.380 . S
C1310 H1319 0.930 . S
C1311 O1288 1.254 . S
C1311 O1289 1.268 . S
H1312 C1297 0.930 . S
H1313 C1298 0.930 . S
H1314 C1300 0.930 . S
H1315 C1301 0.930 . S
H1316 C1306 0.930 . S
H1317 C1307 0.930 . S
H1318 C1309 0.930 . S
H1319 C1310 0.930 . S
Gd1320 N1351 2.661 . S
Gd1320 N1357 2.601 . S
Gd1320 O1364 2.545 . S
Gd1320 O1365 2.606 . S
Gd1320 O1367 2.429 . S
Gd1320 O1368 2.545 . S
Gd1320 O1369 2.412 . S
Gd1320 O1371 2.362 . S
Gd1320 O1372 2.324 . S
Gd1320 C1379 2.828 . S
Gd1321 N1330 2.661 . S
Gd1321 N1334 2.601 . S
Gd1321 O1365 2.362 . S
Gd1321 O1366 2.324 . S
Gd1321 O1370 2.545 . S
Gd1321 O1371 2.606 . S
Gd1321 O1373 2.429 . S
Gd1321 O1374 2.545 . S
Gd1321 O1375 2.412 . S
Gd1321 C1388 2.828 . S
C1322 C1325 1.417 . S
C1322 C1327 1.431 . S
C1322 C1328 1.412 . S
C1323 C1326 1.437 . S
C1323 C1327 1.317 . S
C1323 H1342 0.929 . S
C1324 C1325 1.426 . S
C1324 C1326 1.413 . S
C1324 N1334 1.359 . S
C1325 C1322 1.417 . S
C1325 C1324 1.426 . S
C1325 N1330 1.350 . S
C1326 C1323 1.437 . S
C1326 C1324 1.413 . S
C1326 C1336 1.391 . S
C1327 C1322 1.431 . S
C1327 C1323 1.317 . S
C1327 H1338 0.930 . S
C1328 C1322 1.412 . S
C1328 C1329 1.355 . S
C1328 H1340 0.930 . S
C1329 C1328 1.355 . S
C1329 C1331 1.402 . S
C1329 H1341 0.930 . S
N1330 Gd1321 2.661 . S
N1330 C1325 1.350 . S
N1330 C1331 1.307 . S
C1331 C1329 1.402 . S
C1331 N1330 1.307 . S
C1331 H1332 0.930 . S
H1332 C1331 0.930 . S
C1333 N1334 1.334 . S
C1333 C1335 1.394 . S
C1333 H1337 0.930 . S
N1334 Gd1321 2.601 . S
N1334 C1324 1.359 . S
N1334 C1333 1.334 . S
C1335 C1333 1.394 . S
C1335 C1336 1.359 . S
C1335 H1347 0.930 . S
C1336 C1326 1.391 . S
C1336 C1335 1.359 . S
C1336 H1348 0.929 . S
H1337 C1333 0.930 . S
H1338 C1327 0.930 . S
H1339 C1356 0.930 . S
H1340 C1328 0.930 . S
H1341 C1329 0.930 . S
H1342 C1323 0.929 . S
H1343 C1361 0.930 . S
H1344 C1352 0.930 . S
H1345 C1353 0.930 . S
H1346 C1377 0.929 . S
H1347 C1335 0.930 . S
H1348 C1336 0.929 . S
H1349 C1378 0.930 . S
H1350 C1359 0.930 . S
N1351 Gd1320 2.661 . S
N1351 C1355 1.350 . S
N1351 C1356 1.307 . S
C1352 H1344 0.930 . S
C1352 C1353 1.355 . S
C1352 C1354 1.412 . S
C1353 H1345 0.930 . S
C1353 C1352 1.355 . S
C1353 C1356 1.402 . S
C1354 C1352 1.412 . S
C1354 C1355 1.417 . S
C1354 C1378 1.431 . S
C1355 N1351 1.350 . S
C1355 C1354 1.417 . S
C1355 C1358 1.426 . S
C1356 H1339 0.930 . S
C1356 N1351 1.307 . S
C1356 C1353 1.402 . S
N1357 Gd1320 2.601 . S
N1357 C1358 1.359 . S
N1357 C1361 1.334 . S
C1358 C1355 1.426 . S
C1358 N1357 1.359 . S
C1358 C1362 1.413 . S
C1359 H1350 0.930 . S
C1359 C1360 1.359 . S
C1359 C1361 1.394 . S
C1360 C1359 1.359 . S
C1360 C1362 1.391 . S
C1360 H1363 0.929 . S
C1361 H1343 0.930 . S
C1361 N1357 1.334 . S
C1361 C1359 1.394 . S
C1362 C1358 1.413 . S
C1362 C1360 1.391 . S
C1362 C1377 1.437 . S
H1363 C1360 0.929 . S
O1364 Gd1320 2.545 . S
O1364 C1379 1.258 . S
O1365 Gd1320 2.606 . S
O1365 Gd1321 2.362 . S
O1365 C1376 1.284 . S
O1366 Gd1321 2.324 . S
O1366 C1386 1.254 . S
O1367 Gd1320 2.429 . S
O1367 C1386 1.268 . S
O1368 Gd1320 2.545 . S
O1368 C1376 1.250 . S
O1369 Gd1320 2.412 . S
O1369 C1379 1.252 . S
O1370 Gd1321 2.545 . S
O1370 C1388 1.258 . S
O1371 Gd1320 2.362 . S
O1371 Gd1321 2.606 . S
O1371 C1387 1.284 . S
O1372 Gd1320 2.324 . S
O1372 C1395 1.254 . S
O1373 Gd1321 2.429 . S
O1373 C1395 1.268 . S
O1374 Gd1321 2.545 . S
O1374 C1387 1.250 . S
O1375 Gd1321 2.412 . S
O1375 C1388 1.252 . S
C1376 O1365 1.284 . S
C1376 O1368 1.250 . S
C1377 H1346 0.929 . S
C1377 C1362 1.437 . S
C1377 C1378 1.317 . S
C1378 H1349 0.930 . S
C1378 C1354 1.431 . S
C1378 C1377 1.317 . S
C1379 Gd1320 2.828 . S
C1379 O1364 1.258 . S
C1379 O1369 1.252 . S
C1379 C1380 1.497 . S
C1380 C1379 1.497 . S
C1380 C1381 1.395 . S
C1380 C1382 1.380 . S
C1381 C1380 1.395 . S
C1381 C1384 1.398 . S
C1381 H1396 0.930 . S
C1382 C1380 1.380 . S
C1382 C1383 1.391 . S
C1382 H1397 0.930 . S
C1383 C1382 1.391 . S
C1383 C1385 1.387 . S
C1384 C1381 1.398 . S
C1384 C1385 1.380 . S
C1384 H1398 0.930 . S
C1385 C1383 1.387 . S
C1385 C1384 1.380 . S
C1385 H1399 0.930 . S
C1386 O1366 1.254 . S
C1386 O1367 1.268 . S
C1387 O1371 1.284 . S
C1387 O1374 1.250 . S
C1388 Gd1321 2.828 . S
C1388 O1370 1.258 . S
C1388 O1375 1.252 . S
C1388 C1389 1.497 . S
C1389 C1388 1.497 . S
C1389 C1390 1.395 . S
C1389 C1391 1.380 . S
C1390 C1389 1.395 . S
C1390 C1393 1.398 . S
C1390 H1400 0.930 . S
C1391 C1389 1.380 . S
C1391 C1392 1.391 . S
C1391 H1401 0.930 . S
C1392 C1391 1.391 . S
C1392 C1394 1.387 . S
C1393 C1390 1.398 . S
C1393 C1394 1.380 . S
C1393 H1402 0.930 . S
C1394 C1392 1.387 . S
C1394 C1393 1.380 . S
C1394 H1403 0.930 . S
C1395 O1372 1.254 . S
C1395 O1373 1.268 . S
H1396 C1381 0.930 . S
H1397 C1382 0.930 . S
H1398 C1384 0.930 . S
H1399 C1385 0.930 . S
H1400 C1390 0.930 . S
H1401 C1391 0.930 . S
H1402 C1393 0.930 . S
H1403 C1394 0.930 . S
Gd1404 N1435 2.661 . S
Gd1404 N1441 2.601 . S
Gd1404 O1448 2.545 . S
Gd1404 O1449 2.606 . S
Gd1404 O1451 2.429 . S
Gd1404 O1452 2.545 . S
Gd1404 O1453 2.412 . S
Gd1404 O1455 2.362 . S
Gd1404 O1456 2.324 . S
Gd1404 C1463 2.828 . S
Gd1405 N1414 2.661 . S
Gd1405 N1418 2.601 . S
Gd1405 O1449 2.362 . S
Gd1405 O1450 2.324 . S
Gd1405 O1454 2.545 . S
Gd1405 O1455 2.606 . S
Gd1405 O1457 2.429 . S
Gd1405 O1458 2.545 . S
Gd1405 O1459 2.412 . S
Gd1405 C1472 2.828 . S
C1406 C1409 1.417 . S
C1406 C1411 1.431 . S
C1406 C1412 1.412 . S
C1407 C1410 1.437 . S
C1407 C1411 1.317 . S
C1407 H1426 0.929 . S
C1408 C1409 1.426 . S
C1408 C1410 1.413 . S
C1408 N1418 1.359 . S
C1409 C1406 1.417 . S
C1409 C1408 1.426 . S
C1409 N1414 1.350 . S
C1410 C1407 1.437 . S
C1410 C1408 1.413 . S
C1410 C1420 1.391 . S
C1411 C1406 1.431 . S
C1411 C1407 1.317 . S
C1411 H1422 0.930 . S
C1412 C1406 1.412 . S
C1412 C1413 1.355 . S
C1412 H1424 0.930 . S
C1413 C1412 1.355 . S
C1413 C1415 1.402 . S
C1413 H1425 0.930 . S
N1414 Gd1405 2.661 . S
N1414 C1409 1.350 . S
N1414 C1415 1.307 . S
C1415 C1413 1.402 . S
C1415 N1414 1.307 . S
C1415 H1416 0.930 . S
H1416 C1415 0.930 . S
C1417 N1418 1.334 . S
C1417 C1419 1.394 . S
C1417 H1421 0.930 . S
N1418 Gd1405 2.601 . S
N1418 C1408 1.359 . S
N1418 C1417 1.334 . S
C1419 C1417 1.394 . S
C1419 C1420 1.359 . S
C1419 H1431 0.930 . S
C1420 C1410 1.391 . S
C1420 C1419 1.359 . S
C1420 H1432 0.929 . S
H1421 C1417 0.930 . S
H1422 C1411 0.930 . S
H1423 C1440 0.930 . S
H1424 C1412 0.930 . S
H1425 C1413 0.930 . S
H1426 C1407 0.929 . S
H1427 C1445 0.930 . S
H1428 C1436 0.930 . S
H1429 C1437 0.930 . S
H1430 C1461 0.929 . S
H1431 C1419 0.930 . S
H1432 C1420 0.929 . S
H1433 C1462 0.930 . S
H1434 C1443 0.930 . S
N1435 Gd1404 2.661 . S
N1435 C1439 1.350 . S
N1435 C1440 1.307 . S
C1436 H1428 0.930 . S
C1436 C1437 1.355 . S
C1436 C1438 1.412 . S
C1437 H1429 0.930 . S
C1437 C1436 1.355 . S
C1437 C1440 1.402 . S
C1438 C1436 1.412 . S
C1438 C1439 1.417 . S
C1438 C1462 1.431 . S
C1439 N1435 1.350 . S
C1439 C1438 1.417 . S
C1439 C1442 1.426 . S
C1440 H1423 0.930 . S
C1440 N1435 1.307 . S
C1440 C1437 1.402 . S
N1441 Gd1404 2.601 . S
N1441 C1442 1.359 . S
N1441 C1445 1.334 . S
C1442 C1439 1.426 . S
C1442 N1441 1.359 . S
C1442 C1446 1.413 . S
C1443 H1434 0.930 . S
C1443 C1444 1.359 . S
C1443 C1445 1.394 . S
C1444 C1443 1.359 . S
C1444 C1446 1.391 . S
C1444 H1447 0.929 . S
C1445 H1427 0.930 . S
C1445 N1441 1.334 . S
C1445 C1443 1.394 . S
C1446 C1442 1.413 . S
C1446 C1444 1.391 . S
C1446 C1461 1.437 . S
H1447 C1444 0.929 . S
O1448 Gd1404 2.545 . S
O1448 C1463 1.258 . S
O1449 Gd1404 2.606 . S
O1449 Gd1405 2.362 . S
O1449 C1460 1.284 . S
O1450 Gd1405 2.324 . S
O1450 C1470 1.254 . S
O1451 Gd1404 2.429 . S
O1451 C1470 1.268 . S
O1452 Gd1404 2.545 . S
O1452 C1460 1.250 . S
O1453 Gd1404 2.412 . S
O1453 C1463 1.252 . S
O1454 Gd1405 2.545 . S
O1454 C1472 1.258 . S
O1455 Gd1404 2.362 . S
O1455 Gd1405 2.606 . S
O1455 C1471 1.284 . S
O1456 Gd1404 2.324 . S
O1456 C1479 1.254 . S
O1457 Gd1405 2.429 . S
O1457 C1479 1.268 . S
O1458 Gd1405 2.545 . S
O1458 C1471 1.250 . S
O1459 Gd1405 2.412 . S
O1459 C1472 1.252 . S
C1460 O1449 1.284 . S
C1460 O1452 1.250 . S
C1461 H1430 0.929 . S
C1461 C1446 1.437 . S
C1461 C1462 1.317 . S
C1462 H1433 0.930 . S
C1462 C1438 1.431 . S
C1462 C1461 1.317 . S
C1463 Gd1404 2.828 . S
C1463 O1448 1.258 . S
C1463 O1453 1.252 . S
C1463 C1464 1.497 . S
C1464 C1463 1.497 . S
C1464 C1465 1.395 . S
C1464 C1466 1.380 . S
C1465 C1464 1.395 . S
C1465 C1468 1.398 . S
C1465 H1480 0.930 . S
C1466 C1464 1.380 . S
C1466 C1467 1.391 . S
C1466 H1481 0.930 . S
C1467 C1466 1.391 . S
C1467 C1469 1.387 . S
C1468 C1465 1.398 . S
C1468 C1469 1.380 . S
C1468 H1482 0.930 . S
C1469 C1467 1.387 . S
C1469 C1468 1.380 . S
C1469 H1483 0.930 . S
C1470 O1450 1.254 . S
C1470 O1451 1.268 . S
C1471 O1455 1.284 . S
C1471 O1458 1.250 . S
C1472 Gd1405 2.828 . S
C1472 O1454 1.258 . S
C1472 O1459 1.252 . S
C1472 C1473 1.497 . S
C1473 C1472 1.497 . S
C1473 C1474 1.395 . S
C1473 C1475 1.380 . S
C1474 C1473 1.395 . S
C1474 C1477 1.398 . S
C1474 H1484 0.930 . S
C1475 C1473 1.380 . S
C1475 C1476 1.391 . S
C1475 H1485 0.930 . S
C1476 C1475 1.391 . S
C1476 C1478 1.387 . S
C1477 C1474 1.398 . S
C1477 C1478 1.380 . S
C1477 H1486 0.930 . S
C1478 C1476 1.387 . S
C1478 C1477 1.380 . S
C1478 H1487 0.930 . S
C1479 O1456 1.254 . S
C1479 O1457 1.268 . S
H1480 C1465 0.930 . S
H1481 C1466 0.930 . S
H1482 C1468 0.930 . S
H1483 C1469 0.930 . S
H1484 C1474 0.930 . S
H1485 C1475 0.930 . S
H1486 C1477 0.930 . S
H1487 C1478 0.930 . S
Gd1488 N1519 2.661 . S
Gd1488 N1525 2.601 . S
Gd1488 O1532 2.545 . S
Gd1488 O1533 2.606 . S
Gd1488 O1535 2.429 . S
Gd1488 O1536 2.545 . S
Gd1488 O1537 2.412 . S
Gd1488 O1539 2.362 . S
Gd1488 O1540 2.324 . S
Gd1488 C1547 2.828 . S
Gd1489 N1498 2.661 . S
Gd1489 N1502 2.601 . S
Gd1489 O1533 2.362 . S
Gd1489 O1534 2.324 . S
Gd1489 O1538 2.545 . S
Gd1489 O1539 2.606 . S
Gd1489 O1541 2.429 . S
Gd1489 O1542 2.545 . S
Gd1489 O1543 2.412 . S
Gd1489 C1556 2.828 . S
C1490 C1493 1.417 . S
C1490 C1495 1.431 . S
C1490 C1496 1.412 . S
C1491 C1494 1.437 . S
C1491 C1495 1.317 . S
C1491 H1510 0.929 . S
C1492 C1493 1.426 . S
C1492 C1494 1.413 . S
C1492 N1502 1.359 . S
C1493 C1490 1.417 . S
C1493 C1492 1.426 . S
C1493 N1498 1.350 . S
C1494 C1491 1.437 . S
C1494 C1492 1.413 . S
C1494 C1504 1.391 . S
C1495 C1490 1.431 . S
C1495 C1491 1.317 . S
C1495 H1506 0.930 . S
C1496 C1490 1.412 . S
C1496 C1497 1.355 . S
C1496 H1508 0.930 . S
C1497 C1496 1.355 . S
C1497 C1499 1.402 . S
C1497 H1509 0.930 . S
N1498 Gd1489 2.661 . S
N1498 C1493 1.350 . S
N1498 C1499 1.307 . S
C1499 C1497 1.402 . S
C1499 N1498 1.307 . S
C1499 H1500 0.930 . S
H1500 C1499 0.930 . S
C1501 N1502 1.334 . S
C1501 C1503 1.394 . S
C1501 H1505 0.930 . S
N1502 Gd1489 2.601 . S
N1502 C1492 1.359 . S
N1502 C1501 1.334 . S
C1503 C1501 1.394 . S
C1503 C1504 1.359 . S
C1503 H1515 0.930 . S
C1504 C1494 1.391 . S
C1504 C1503 1.359 . S
C1504 H1516 0.929 . S
H1505 C1501 0.930 . S
H1506 C1495 0.930 . S
H1507 C1524 0.930 . S
H1508 C1496 0.930 . S
H1509 C1497 0.930 . S
H1510 C1491 0.929 . S
H1511 C1529 0.930 . S
H1512 C1520 0.930 . S
H1513 C1521 0.930 . S
H1514 C1545 0.929 . S
H1515 C1503 0.930 . S
H1516 C1504 0.929 . S
H1517 C1546 0.930 . S
H1518 C1527 0.930 . S
N1519 Gd1488 2.661 . S
N1519 C1523 1.350 . S
N1519 C1524 1.307 . S
C1520 H1512 0.930 . S
C1520 C1521 1.355 . S
C1520 C1522 1.412 . S
C1521 H1513 0.930 . S
C1521 C1520 1.355 . S
C1521 C1524 1.402 . S
C1522 C1520 1.412 . S
C1522 C1523 1.417 . S
C1522 C1546 1.431 . S
C1523 N1519 1.350 . S
C1523 C1522 1.417 . S
C1523 C1526 1.426 . S
C1524 H1507 0.930 . S
C1524 N1519 1.307 . S
C1524 C1521 1.402 . S
N1525 Gd1488 2.601 . S
N1525 C1526 1.359 . S
N1525 C1529 1.334 . S
C1526 C1523 1.426 . S
C1526 N1525 1.359 . S
C1526 C1530 1.413 . S
C1527 H1518 0.930 . S
C1527 C1528 1.359 . S
C1527 C1529 1.394 . S
C1528 C1527 1.359 . S
C1528 C1530 1.391 . S
C1528 H1531 0.929 . S
C1529 H1511 0.930 . S
C1529 N1525 1.334 . S
C1529 C1527 1.394 . S
C1530 C1526 1.413 . S
C1530 C1528 1.391 . S
C1530 C1545 1.437 . S
H1531 C1528 0.929 . S
O1532 Gd1488 2.545 . S
O1532 C1547 1.258 . S
O1533 Gd1488 2.606 . S
O1533 Gd1489 2.362 . S
O1533 C1544 1.284 . S
O1534 Gd1489 2.324 . S
O1534 C1554 1.254 . S
O1535 Gd1488 2.429 . S
O1535 C1554 1.268 . S
O1536 Gd1488 2.545 . S
O1536 C1544 1.250 . S
O1537 Gd1488 2.412 . S
O1537 C1547 1.252 . S
O1538 Gd1489 2.545 . S
O1538 C1556 1.258 . S
O1539 Gd1488 2.362 . S
O1539 Gd1489 2.606 . S
O1539 C1555 1.284 . S
O1540 Gd1488 2.324 . S
O1540 C1563 1.254 . S
O1541 Gd1489 2.429 . S
O1541 C1563 1.268 . S
O1542 Gd1489 2.545 . S
O1542 C1555 1.250 . S
O1543 Gd1489 2.412 . S
O1543 C1556 1.252 . S
C1544 O1533 1.284 . S
C1544 O1536 1.250 . S
C1545 H1514 0.929 . S
C1545 C1530 1.437 . S
C1545 C1546 1.317 . S
C1546 H1517 0.930 . S
C1546 C1522 1.431 . S
C1546 C1545 1.317 . S
C1547 Gd1488 2.828 . S
C1547 O1532 1.258 . S
C1547 O1537 1.252 . S
C1547 C1548 1.497 . S
C1548 C1547 1.497 . S
C1548 C1549 1.395 . S
C1548 C1550 1.380 . S
C1549 C1548 1.395 . S
C1549 C1552 1.398 . S
C1549 H1564 0.930 . S
C1550 C1548 1.380 . S
C1550 C1551 1.391 . S
C1550 H1565 0.930 . S
C1551 C1550 1.391 . S
C1551 C1553 1.387 . S
C1552 C1549 1.398 . S
C1552 C1553 1.380 . S
C1552 H1566 0.930 . S
C1553 C1551 1.387 . S
C1553 C1552 1.380 . S
C1553 H1567 0.930 . S
C1554 O1534 1.254 . S
C1554 O1535 1.268 . S
C1555 O1539 1.284 . S
C1555 O1542 1.250 . S
C1556 Gd1489 2.828 . S
C1556 O1538 1.258 . S
C1556 O1543 1.252 . S
C1556 C1557 1.497 . S
C1557 C1556 1.497 . S
C1557 C1558 1.395 . S
C1557 C1559 1.380 . S
C1558 C1557 1.395 . S
C1558 C1561 1.398 . S
C1558 H1568 0.930 . S
C1559 C1557 1.380 . S
C1559 C1560 1.391 . S
C1559 H1569 0.930 . S
C1560 C1559 1.391 . S
C1560 C1562 1.387 . S
C1561 C1558 1.398 . S
C1561 C1562 1.380 . S
C1561 H1570 0.930 . S
C1562 C1560 1.387 . S
C1562 C1561 1.380 . S
C1562 H1571 0.930 . S
C1563 O1540 1.254 . S
C1563 O1541 1.268 . S
H1564 C1549 0.930 . S
H1565 C1550 0.930 . S
H1566 C1552 0.930 . S
H1567 C1553 0.930 . S
H1568 C1558 0.930 . S
H1569 C1559 0.930 . S
H1570 C1561 0.930 . S
H1571 C1562 0.930 . S
Gd1572 N1603 2.661 . S
Gd1572 N1609 2.601 . S
Gd1572 O1616 2.545 . S
Gd1572 O1617 2.606 . S
Gd1572 O1619 2.429 . S
Gd1572 O1620 2.545 . S
Gd1572 O1621 2.412 1_455 S
Gd1572 O1623 2.362 . S
Gd1572 O1624 2.324 1_554 S
Gd1572 C1631 2.828 1_455 S
Gd1573 N1582 2.653 1_556 S
Gd1573 N1586 2.632 . S
Gd1573 O1617 2.351 1_556 S
Gd1573 O1618 2.285 1_556 S
Gd1573 O1622 2.570 . S
Gd1573 O1623 2.587 1_556 S
Gd1573 O1625 2.455 . S
Gd1573 O1626 2.540 . S
Gd1573 O1627 2.406 1_556 S
Gd1573 C1640 2.839 . S
C1574 C1577 1.417 . S
C1574 C1579 1.431 1_554 S
C1574 C1580 1.412 . S
C1575 C1578 1.437 . S
C1575 C1579 1.317 . S
C1575 H1594 0.929 . S
C1576 C1577 1.426 1_556 S
C1576 C1578 1.413 . S
C1576 N1586 1.359 . S
C1577 C1574 1.417 . S
C1577 C1576 1.426 1_554 S
C1577 N1582 1.350 . S
C1578 C1575 1.437 . S
C1578 C1576 1.413 . S
C1578 C1588 1.391 . S
C1579 C1574 1.431 1_556 S
C1579 C1575 1.317 . S
C1579 H1590 0.930 1_556 S
C1580 C1574 1.412 . S
C1580 C1581 1.355 . S
C1580 H1592 0.930 . S
C1581 C1580 1.355 . S
C1581 C1583 1.402 . S
C1581 H1593 0.930 . S
N1582 Gd1573 2.653 1_554 S
N1582 C1577 1.350 . S
N1582 C1583 1.307 . S
C1583 C1581 1.402 . S
C1583 N1582 1.307 . S
C1583 H1584 0.930 . S
H1584 C1583 0.930 . S
C1585 N1586 1.334 . S
C1585 C1587 1.394 . S
C1585 H1589 0.930 . S
N1586 Gd1573 2.632 . S
N1586 C1576 1.359 . S
N1586 C1585 1.334 . S
C1587 C1585 1.394 . S
C1587 C1588 1.359 . S
C1587 H1599 0.930 . S
C1588 C1578 1.391 . S
C1588 C1587 1.359 . S
C1588 H1600 0.929 . S
H1589 C1585 0.930 . S
H1590 C1579 0.930 1_554 S
H1591 C1608 0.930 1_455 S
H1592 C1580 0.930 . S
H1593 C1581 0.930 . S
H1594 C1575 0.929 . S
H1595 C1613 0.930 . S
H1596 C1604 0.930 . S
H1597 C1605 0.930 . S
H1598 C1629 0.929 . S
H1599 C1587 0.930 . S
H1600 C1588 0.929 . S
H1601 C1630 0.930 . S
H1602 C1611 0.930 . S
N1603 Gd1572 2.661 . S
N1603 C1607 1.350 1_455 S
N1603 C1608 1.307 1_454 S
C1604 H1596 0.930 . S
C1604 C1605 1.355 . S
C1604 C1606 1.412 1_556 S
C1605 H1597 0.930 . S
C1605 C1604 1.355 . S
C1605 C1608 1.402 . S
C1606 C1604 1.412 1_554 S
C1606 C1607 1.417 . S
C1606 C1630 1.431 . S
C1607 N1603 1.350 1_655 S
C1607 C1606 1.417 . S
C1607 C1610 1.432 . S
C1608 H1591 0.930 1_655 S
C1608 N1603 1.307 1_656 S
C1608 C1605 1.402 . S
N1609 Gd1572 2.601 . S
N1609 C1610 1.335 1_455 S
N1609 C1613 1.334 . S
C1610 C1607 1.432 . S
C1610 N1609 1.335 1_655 S
C1610 C1614 1.433 . S
C1611 H1602 0.930 . S
C1611 C1612 1.359 1_455 S
C1611 C1613 1.394 . S
C1612 C1611 1.359 1_655 S
C1612 C1614 1.391 . S
C1612 H1615 0.929 . S
C1613 H1595 0.930 . S
C1613 N1609 1.334 . S
C1613 C1611 1.394 . S
C1614 C1610 1.433 . S
C1614 C1612 1.391 . S
C1614 C1629 1.437 . S
H1615 C1612 0.929 . S
O1616 Gd1572 2.545 . S
O1616 C1631 1.258 1_455 S
O1617 Gd1572 2.606 . S
O1617 Gd1573 2.351 1_554 S
O1617 C1628 1.284 . S
O1618 Gd1573 2.285 1_554 S
O1618 C1638 1.254 . S
O1619 Gd1572 2.429 . S
O1619 C1638 1.268 . S
O1620 Gd1572 2.545 . S
O1620 C1628 1.250 . S
O1621 Gd1572 2.412 1_655 S
O1621 C1631 1.252 . S
O1622 Gd1573 2.570 . S
O1622 C1640 1.258 . S
O1623 Gd1572 2.362 . S
O1623 Gd1573 2.587 1_554 S
O1623 C1639 1.284 . S
O1624 Gd1572 2.324 1_556 S
O1624 C1647 1.254 . S
O1625 Gd1573 2.455 . S
O1625 C1647 1.268 . S
O1626 Gd1573 2.540 . S
O1626 C1639 1.250 1_556 S
O1627 Gd1573 2.406 1_554 S
O1627 C1640 1.252 1_554 S
C1628 O1617 1.284 . S
C1628 O1620 1.250 . S
C1629 H1598 0.929 . S
C1629 C1614 1.437 . S
C1629 C1630 1.317 . S
C1630 H1601 0.930 . S
C1630 C1606 1.431 . S
C1630 C1629 1.317 . S
C1631 Gd1572 2.828 1_655 S
C1631 O1616 1.258 1_655 S
C1631 O1621 1.252 . S
C1631 C1632 1.497 . S
C1632 C1631 1.497 . S
C1632 C1633 1.395 . S
C1632 C1634 1.380 . S
C1633 C1632 1.395 . S
C1633 C1636 1.398 . S
C1633 H1648 0.930 . S
C1634 C1632 1.380 . S
C1634 C1635 1.391 . S
C1634 H1649 0.930 . S
C1635 C1634 1.391 . S
C1635 C1637 1.387 . S
C1636 C1633 1.398 . S
C1636 C1637 1.380 . S
C1636 H1650 0.930 . S
C1637 C1635 1.387 . S
C1637 C1636 1.380 . S
C1637 H1651 0.930 . S
C1638 O1618 1.254 . S
C1638 O1619 1.268 . S
C1639 O1623 1.284 . S
C1639 O1626 1.250 1_554 S
C1640 Gd1573 2.839 . S
C1640 O1622 1.258 . S
C1640 O1627 1.252 1_556 S
C1640 C1641 1.497 . S
C1641 C1640 1.497 . S
C1641 C1642 1.395 . S
C1641 C1643 1.380 . S
C1642 C1641 1.395 . S
C1642 C1645 1.398 . S
C1642 H1652 0.930 . S
C1643 C1641 1.380 . S
C1643 C1644 1.391 . S
C1643 H1653 0.930 1_556 S
C1644 C1643 1.391 . S
C1644 C1646 1.387 . S
C1645 C1642 1.398 . S
C1645 C1646 1.380 . S
C1645 H1654 0.930 . S
C1646 C1644 1.387 . S
C1646 C1645 1.380 . S
C1646 H1655 0.930 . S
C1647 O1624 1.254 . S
C1647 O1625 1.268 . S
H1648 C1633 0.930 . S
H1649 C1634 0.930 . S
H1650 C1636 0.930 . S
H1651 C1637 0.930 . S
H1652 C1642 0.930 . S
H1653 C1643 0.930 1_554 S
H1654 C1645 0.930 . S
H1655 C1646 0.930 . S
H1656 C1662 0.930 . S
H1657 C1666 0.930 . S
H1658 C1671 0.931 1_554 S
H1659 C1669 0.929 . S
H1660 C1664 0.929 . S
H1661 C1670 0.929 . S
C1662 H1656 0.930 . S
C1662 C1663 1.367 . S
C1662 C1670 1.378 . S
C1663 C1662 1.367 . S
C1663 C1671 1.430 . S
C1664 H1660 0.929 . S
C1664 C1666 1.378 . S
C1664 C1668 1.350 1_554 S
C1665 C1668 1.463 . S
C1665 C1670 1.350 . S
C1665 N1673 1.427 1_556 S
C1666 H1657 0.930 . S
C1666 C1664 1.378 . S
C1666 C1667 1.367 . S
C1667 C1666 1.367 . S
C1667 C1669 1.433 1_554 S
C1668 C1664 1.350 1_556 S
C1668 C1665 1.463 . S
C1668 N1672 1.427 . S
C1669 H1659 0.929 . S
C1669 C1667 1.433 1_556 S
C1669 N1672 1.384 . S
C1670 H1661 0.929 . S
C1670 C1662 1.378 . S
C1670 C1665 1.350 . S
C1671 H1658 0.931 1_556 S
C1671 C1663 1.430 . S
C1671 N1673 1.385 1_556 S
N1672 C1668 1.427 . S
N1672 C1669 1.384 . S
N1673 C1665 1.427 1_554 S
N1673 C1671 1.385 1_554 S
H1674 C1680 0.930 . S
H1675 C1684 0.930 . S
H1676 C1689 0.929 . S
H1677 C1687 0.929 . S
H1678 C1682 0.929 . S
H1679 C1688 0.929 . S
C1680 H1674 0.930 . S
C1680 C1681 1.367 . S
C1680 C1688 1.378 . S
C1681 C1680 1.367 . S
C1681 C1689 1.433 . S
C1682 H1678 0.929 . S
C1682 C1684 1.378 . S
C1682 C1686 1.350 . S
C1683 C1686 1.463 . S
C1683 C1688 1.350 . S
C1683 N1691 1.427 . S
C1684 H1675 0.930 . S
C1684 C1682 1.378 . S
C1684 C1685 1.367 . S
C1685 C1684 1.367 . S
C1685 C1687 1.433 . S
C1686 C1682 1.350 . S
C1686 C1683 1.463 . S
C1686 N1690 1.427 . S
C1687 H1677 0.929 . S
C1687 C1685 1.433 . S
C1687 N1690 1.384 . S
C1688 H1679 0.929 . S
C1688 C1680 1.378 . S
C1688 C1683 1.350 . S
C1689 H1676 0.929 . S
C1689 C1681 1.433 . S
C1689 N1691 1.384 . S
N1690 C1686 1.427 . S
N1690 C1687 1.384 . S
N1691 C1683 1.427 . S
N1691 C1689 1.384 . S
H1692 C1698 0.930 . S
H1693 C1702 0.930 . S
H1694 C1707 0.929 . S
H1695 C1705 0.929 . S
H1696 C1700 0.929 . S
H1697 C1706 0.929 . S
C1698 H1692 0.930 . S
C1698 C1699 1.367 . S
C1698 C1706 1.378 . S
C1699 C1698 1.367 . S
C1699 C1707 1.433 . S
C1700 H1696 0.929 . S
C1700 C1702 1.378 . S
C1700 C1704 1.350 . S
C1701 C1704 1.463 . S
C1701 C1706 1.350 . S
C1701 N1709 1.427 . S
C1702 H1693 0.930 . S
C1702 C1700 1.378 . S
C1702 C1703 1.367 . S
C1703 C1702 1.367 . S
C1703 C1705 1.433 . S
C1704 C1700 1.350 . S
C1704 C1701 1.463 . S
C1704 N1708 1.427 . S
C1705 H1695 0.929 . S
C1705 C1703 1.433 . S
C1705 N1708 1.384 . S
C1706 H1697 0.929 . S
C1706 C1698 1.378 . S
C1706 C1701 1.350 . S
C1707 H1694 0.929 . S
C1707 C1699 1.433 . S
C1707 N1709 1.384 . S
N1708 C1704 1.427 . S
N1708 C1705 1.384 . S
N1709 C1701 1.427 . S
N1709 C1707 1.384 . S
H1710 C1716 0.930 . S
H1711 C1720 0.930 . S
H1712 C1725 0.929 . S
H1713 C1723 0.929 . S
H1714 C1718 0.929 . S
H1715 C1724 0.929 . S
C1716 H1710 0.930 . S
C1716 C1717 1.367 . S
C1716 C1724 1.378 . S
C1717 C1716 1.367 . S
C1717 C1725 1.433 . S
C1718 H1714 0.929 . S
C1718 C1720 1.378 . S
C1718 C1722 1.350 . S
C1719 C1722 1.463 . S
C1719 C1724 1.350 . S
C1719 N1727 1.427 . S
C1720 H1711 0.930 . S
C1720 C1718 1.378 . S
C1720 C1721 1.367 . S
C1721 C1720 1.367 . S
C1721 C1723 1.433 . S
C1722 C1718 1.350 . S
C1722 C1719 1.463 . S
C1722 N1726 1.427 . S
C1723 H1713 0.929 . S
C1723 C1721 1.433 . S
C1723 N1726 1.384 . S
C1724 H1715 0.929 . S
C1724 C1716 1.378 . S
C1724 C1719 1.350 . S
C1725 H1712 0.929 . S
C1725 C1717 1.433 . S
C1725 N1727 1.384 . S
N1726 C1722 1.427 . S
N1726 C1723 1.384 . S
N1727 C1719 1.427 . S
N1727 C1725 1.384 . S
H1728 C1734 0.930 . S
H1729 C1738 0.930 . S
H1730 C1743 0.929 1_655 S
H1731 C1741 0.929 . S
H1732 C1736 0.929 . S
H1733 C1742 0.929 . S
C1734 H1728 0.930 . S
C1734 C1735 1.367 . S
C1734 C1742 1.378 . S
C1735 C1734 1.367 . S
C1735 C1743 1.433 . S
C1736 H1732 0.929 . S
C1736 C1738 1.378 . S
C1736 C1740 1.350 . S
C1737 C1740 1.463 . S
C1737 C1742 1.350 . S
C1737 N1745 1.427 . S
C1738 H1729 0.930 . S
C1738 C1736 1.378 . S
C1738 C1739 1.367 . S
C1739 C1738 1.367 . S
C1739 C1741 1.433 . S
C1740 C1736 1.350 . S
C1740 C1737 1.463 . S
C1740 N1744 1.427 . S
C1741 H1731 0.929 . S
C1741 C1739 1.433 . S
C1741 N1744 1.384 . S
C1742 H1733 0.929 . S
C1742 C1734 1.378 . S
C1742 C1737 1.350 . S
C1743 H1730 0.929 1_455 S
C1743 C1735 1.433 . S
C1743 N1745 1.384 . S
N1744 C1740 1.427 . S
N1744 C1741 1.384 . S
N1745 C1737 1.427 . S
N1745 C1743 1.384 . S
H1746 C1752 0.930 . S
H1747 C1756 0.930 . S
H1748 C1761 0.929 . S
H1749 C1759 0.929 . S
H1750 C1754 0.929 . S
H1751 C1760 0.929 . S
C1752 H1746 0.930 . S
C1752 C1753 1.367 . S
C1752 C1760 1.378 . S
C1753 C1752 1.367 . S
C1753 C1761 1.433 . S
C1754 H1750 0.929 . S
C1754 C1756 1.378 . S
C1754 C1758 1.350 . S
C1755 C1758 1.463 . S
C1755 C1760 1.350 . S
C1755 N1763 1.427 . S
C1756 H1747 0.930 . S
C1756 C1754 1.378 . S
C1756 C1757 1.367 . S
C1757 C1756 1.367 . S
C1757 C1759 1.433 . S
C1758 C1754 1.350 . S
C1758 C1755 1.463 . S
C1758 N1762 1.427 . S
C1759 H1749 0.929 . S
C1759 C1757 1.433 . S
C1759 N1762 1.384 . S
C1760 H1751 0.929 . S
C1760 C1752 1.378 . S
C1760 C1755 1.350 . S
C1761 H1748 0.929 . S
C1761 C1753 1.433 . S
C1761 N1763 1.384 . S
N1762 C1758 1.427 . S
N1762 C1759 1.384 . S
N1763 C1755 1.427 . S
N1763 C1761 1.384 . S
H1764 C1770 0.930 . S
H1765 C1774 0.930 . S
H1766 C1779 0.929 . S
H1767 C1777 0.929 . S
H1768 C1772 0.929 . S
H1769 C1778 0.929 . S
C1770 H1764 0.930 . S
C1770 C1771 1.367 . S
C1770 C1778 1.378 . S
C1771 C1770 1.367 . S
C1771 C1779 1.433 . S
C1772 H1768 0.929 . S
C1772 C1774 1.378 . S
C1772 C1776 1.350 . S
C1773 C1776 1.463 . S
C1773 C1778 1.350 . S
C1773 N1781 1.427 . S
C1774 H1765 0.930 . S
C1774 C1772 1.378 . S
C1774 C1775 1.367 . S
C1775 C1774 1.367 . S
C1775 C1777 1.433 . S
C1776 C1772 1.350 . S
C1776 C1773 1.463 . S
C1776 N1780 1.427 . S
C1777 H1767 0.929 . S
C1777 C1775 1.433 . S
C1777 N1780 1.384 . S
C1778 H1769 0.929 . S
C1778 C1770 1.378 . S
C1778 C1773 1.350 . S
C1779 H1766 0.929 . S
C1779 C1771 1.433 . S
C1779 N1781 1.384 . S
N1780 C1776 1.427 . S
N1780 C1777 1.384 . S
N1781 C1773 1.427 . S
N1781 C1779 1.384 . S
H1782 C1788 0.930 . S
H1783 C1792 0.930 . S
H1784 C1797 0.929 . S
H1785 C1795 0.929 . S
H1786 C1790 0.929 . S
H1787 C1796 0.929 . S
C1788 H1782 0.930 . S
C1788 C1789 1.367 . S
C1788 C1796 1.378 . S
C1789 C1788 1.367 . S
C1789 C1797 1.433 . S
C1790 H1786 0.929 . S
C1790 C1792 1.378 . S
C1790 C1794 1.350 . S
C1791 C1794 1.463 . S
C1791 C1796 1.350 . S
C1791 N1799 1.427 . S
C1792 H1783 0.930 . S
C1792 C1790 1.378 . S
C1792 C1793 1.367 . S
C1793 C1792 1.367 . S
C1793 C1795 1.433 . S
C1794 C1790 1.350 . S
C1794 C1791 1.463 . S
C1794 N1798 1.427 . S
C1795 H1785 0.929 . S
C1795 C1793 1.433 . S
C1795 N1798 1.384 . S
C1796 H1787 0.929 . S
C1796 C1788 1.378 . S
C1796 C1791 1.350 . S
C1797 H1784 0.929 . S
C1797 C1789 1.433 . S
C1797 N1799 1.384 . S
N1798 C1794 1.427 . S
N1798 C1795 1.384 . S
N1799 C1791 1.427 . S
N1799 C1797 1.384 . S
H1800 C1806 0.930 . S
H1801 C1810 0.930 1_655 S
H1802 C1815 0.929 . S
H1803 C1813 0.929 . S
H1804 C1808 0.929 . S
H1805 C1814 0.929 . S
C1806 H1800 0.930 . S
C1806 C1807 1.367 1_455 S
C1806 C1814 1.378 . S
C1807 C1806 1.367 1_655 S
C1807 C1815 1.433 . S
C1808 H1804 0.929 . S
C1808 C1810 1.378 1_655 S
C1808 C1812 1.350 1_655 S
C1809 C1812 1.468 . S
C1809 C1814 1.355 . S
C1809 N1817 1.417 1_455 S
C1810 H1801 0.930 1_455 S
C1810 C1808 1.378 1_455 S
C1810 C1811 1.367 . S
C1811 C1810 1.367 . S
C1811 C1813 1.433 . S
C1812 C1808 1.350 1_455 S
C1812 C1809 1.468 . S
C1812 N1816 1.427 . S
C1813 H1803 0.929 . S
C1813 C1811 1.433 . S
C1813 N1816 1.384 . S
C1814 H1805 0.929 . S
C1814 C1806 1.378 . S
C1814 C1809 1.355 . S
C1815 H1802 0.929 . S
C1815 C1807 1.433 . S
C1815 N1817 1.384 . S
N1816 C1812 1.427 . S
N1816 C1813 1.384 . S
N1817 C1809 1.417 1_655 S
N1817 C1815 1.384 . S
H1818 C1824 0.930 . S
H1819 C1828 0.930 . S
H1820 C1833 0.929 . S
H1821 C1831 0.929 . S
H1822 C1826 0.929 . S
H1823 C1832 0.929 . S
C1824 H1818 0.930 . S
C1824 C1825 1.367 . S
C1824 C1832 1.378 . S
C1825 C1824 1.367 . S
C1825 C1833 1.433 . S
C1826 H1822 0.929 . S
C1826 C1828 1.378 . S
C1826 C1830 1.350 . S
C1827 C1830 1.463 . S
C1827 C1832 1.350 . S
C1827 N1835 1.427 . S
C1828 H1819 0.930 . S
C1828 C1826 1.378 . S
C1828 C1829 1.367 . S
C1829 C1828 1.367 . S
C1829 C1831 1.433 . S
C1830 C1826 1.350 . S
C1830 C1827 1.463 . S
C1830 N1834 1.427 . S
C1831 H1821 0.929 . S
C1831 C1829 1.433 . S
C1831 N1834 1.384 . S
C1832 H1823 0.929 . S
C1832 C1824 1.378 . S
C1832 C1827 1.350 . S
C1833 H1820 0.929 . S
C1833 C1825 1.433 . S
C1833 N1835 1.384 . S
N1834 C1830 1.427 . S
N1834 C1831 1.384 . S
N1835 C1827 1.427 . S
N1835 C1833 1.384 . S
H1836 C1842 0.930 . S
H1837 C1846 0.930 1_565 S
H1838 C1851 0.929 . S
H1839 C1849 0.929 . S
H1840 C1844 0.929 . S
H1841 C1850 0.929 . S
C1842 H1836 0.930 . S
C1842 C1843 1.367 . S
C1842 C1850 1.378 . S
C1843 C1842 1.367 . S
C1843 C1851 1.433 . S
C1844 H1840 0.929 . S
C1844 C1846 1.378 . S
C1844 C1848 1.350 . S
C1845 C1848 1.463 . S
C1845 C1850 1.350 . S
C1845 N1853 1.427 . S
C1846 H1837 0.930 1_545 S
C1846 C1844 1.378 . S
C1846 C1847 1.367 . S
C1847 C1846 1.367 . S
C1847 C1849 1.433 . S
C1848 C1844 1.350 . S
C1848 C1845 1.463 . S
C1848 N1852 1.427 . S
C1849 H1839 0.929 . S
C1849 C1847 1.433 . S
C1849 N1852 1.384 . S
C1850 H1841 0.929 . S
C1850 C1842 1.378 . S
C1850 C1845 1.350 . S
C1851 H1838 0.929 . S
C1851 C1843 1.433 . S
C1851 N1853 1.384 . S
N1852 C1848 1.427 . S
N1852 C1849 1.384 . S
N1853 C1845 1.427 . S
N1853 C1851 1.384 . S
H1854 C1860 0.930 . S
H1855 C1864 0.930 . S
H1856 C1869 0.929 . S
H1857 C1867 0.929 . S
H1858 C1862 0.929 . S
H1859 C1868 0.929 . S
C1860 H1854 0.930 . S
C1860 C1861 1.367 . S
C1860 C1868 1.378 . S
C1861 C1860 1.367 . S
C1861 C1869 1.433 . S
C1862 H1858 0.929 . S
C1862 C1864 1.378 . S
C1862 C1866 1.350 . S
C1863 C1866 1.463 . S
C1863 C1868 1.350 . S
C1863 N1871 1.427 . S
C1864 H1855 0.930 . S
C1864 C1862 1.378 . S
C1864 C1865 1.367 . S
C1865 C1864 1.367 . S
C1865 C1867 1.433 . S
C1866 C1862 1.350 . S
C1866 C1863 1.463 . S
C1866 N1870 1.427 . S
C1867 H1857 0.929 . S
C1867 C1865 1.433 . S
C1867 N1870 1.384 . S
C1868 H1859 0.929 . S
C1868 C1860 1.378 . S
C1868 C1863 1.350 . S
C1869 H1856 0.929 . S
C1869 C1861 1.433 . S
C1869 N1871 1.384 . S
N1870 C1866 1.427 . S
N1870 C1867 1.384 . S
N1871 C1863 1.427 . S
N1871 C1869 1.384 . S
H1872 C1878 0.930 . S
H1873 C1882 0.930 . S
H1874 C1887 0.929 . S
H1875 C1885 0.929 . S
H1876 C1880 0.929 . S
H1877 C1886 0.929 . S
C1878 H1872 0.930 . S
C1878 C1879 1.367 . S
C1878 C1886 1.378 . S
C1879 C1878 1.367 . S
C1879 C1887 1.433 1_655 S
C1880 H1876 0.929 . S
C1880 C1882 1.378 . S
C1880 C1884 1.350 . S
C1881 C1884 1.463 . S
C1881 C1886 1.350 1_455 S
C1881 N1889 1.427 . S
C1882 H1873 0.930 . S
C1882 C1880 1.378 . S
C1882 C1883 1.367 . S
C1883 C1882 1.367 . S
C1883 C1885 1.433 . S
C1884 C1880 1.350 . S
C1884 C1881 1.463 . S
C1884 N1888 1.427 . S
C1885 H1875 0.929 . S
C1885 C1883 1.433 . S
C1885 N1888 1.384 . S
C1886 H1877 0.929 . S
C1886 C1878 1.378 . S
C1886 C1881 1.350 1_655 S
C1887 H1874 0.929 . S
C1887 C1879 1.433 1_455 S
C1887 N1889 1.384 . S
N1888 C1884 1.427 . S
N1888 C1885 1.384 . S
N1889 C1881 1.427 . S
N1889 C1887 1.384 . S
H1890 C1896 0.930 . S
H1891 C1900 0.930 . S
H1892 C1905 0.929 . S
H1893 C1903 0.929 . S
H1894 C1898 0.929 . S
H1895 C1904 0.929 . S
C1896 H1890 0.930 . S
C1896 C1897 1.367 . S
C1896 C1904 1.378 . S
C1897 C1896 1.367 . S
C1897 C1905 1.433 . S
C1898 H1894 0.929 . S
C1898 C1900 1.378 . S
C1898 C1902 1.350 . S
C1899 C1902 1.463 . S
C1899 C1904 1.350 . S
C1899 N1907 1.427 . S
C1900 H1891 0.930 . S
C1900 C1898 1.378 . S
C1900 C1901 1.367 . S
C1901 C1900 1.367 . S
C1901 C1903 1.433 . S
C1902 C1898 1.350 . S
C1902 C1899 1.463 . S
C1902 N1906 1.427 . S
C1903 H1893 0.929 . S
C1903 C1901 1.433 . S
C1903 N1906 1.384 . S
C1904 H1895 0.929 . S
C1904 C1896 1.378 . S
C1904 C1899 1.350 . S
C1905 H1892 0.929 . S
C1905 C1897 1.433 . S
C1905 N1907 1.384 . S
N1906 C1902 1.427 . S
N1906 C1903 1.384 . S
N1907 C1899 1.427 . S
N1907 C1905 1.384 . S
H1908 C1914 0.930 . S
H1909 C1918 0.930 . S
H1910 C1923 0.929 . S
H1911 C1921 0.929 . S
H1912 C1916 0.929 . S
H1913 C1922 0.929 . S
C1914 H1908 0.930 . S
C1914 C1915 1.367 . S
C1914 C1922 1.378 . S
C1915 C1914 1.367 . S
C1915 C1923 1.433 . S
C1916 H1912 0.929 . S
C1916 C1918 1.378 . S
C1916 C1920 1.350 . S
C1917 C1920 1.463 . S
C1917 C1922 1.350 . S
C1917 N1925 1.427 . S
C1918 H1909 0.930 . S
C1918 C1916 1.378 . S
C1918 C1919 1.367 . S
C1919 C1918 1.367 . S
C1919 C1921 1.433 . S
C1920 C1916 1.350 . S
C1920 C1917 1.463 . S
C1920 N1924 1.427 . S
C1921 H1911 0.929 . S
C1921 C1919 1.433 . S
C1921 N1924 1.384 . S
C1922 H1913 0.929 . S
C1922 C1914 1.378 . S
C1922 C1917 1.350 . S
C1923 H1910 0.929 . S
C1923 C1915 1.433 . S
C1923 N1925 1.384 . S
N1924 C1920 1.427 . S
N1924 C1921 1.384 . S
N1925 C1917 1.427 . S
N1925 C1923 1.384 . S
H1926 C1932 0.930 . S
H1927 C1936 0.930 . S
H1928 C1941 0.929 . S
H1929 C1939 0.929 . S
H1930 C1934 0.929 . S
H1931 C1940 0.929 . S
C1932 H1926 0.930 . S
C1932 C1933 1.367 . S
C1932 C1940 1.378 . S
C1933 C1932 1.367 . S
C1933 C1941 1.433 . S
C1934 H1930 0.929 . S
C1934 C1936 1.378 . S
C1934 C1938 1.350 . S
C1935 C1938 1.463 . S
C1935 C1940 1.350 . S
C1935 N1943 1.427 . S
C1936 H1927 0.930 . S
C1936 C1934 1.378 . S
C1936 C1937 1.367 . S
C1937 C1936 1.367 . S
C1937 C1939 1.433 . S
C1938 C1934 1.350 . S
C1938 C1935 1.463 . S
C1938 N1942 1.427 . S
C1939 H1929 0.929 . S
C1939 C1937 1.433 . S
C1939 N1942 1.384 . S
C1940 H1931 0.929 . S
C1940 C1932 1.378 . S
C1940 C1935 1.350 . S
C1941 H1928 0.929 . S
C1941 C1933 1.433 . S
C1941 N1943 1.384 . S
N1942 C1938 1.427 . S
N1942 C1939 1.384 . S
N1943 C1935 1.427 . S
N1943 C1941 1.384 . S
H1944 C1950 0.930 . S
H1945 C1954 0.930 . S
H1946 C1959 0.929 1_545 S
H1947 C1957 0.929 . S
H1948 C1952 0.929 . S
H1949 C1958 0.929 1_556 S
C1950 H1944 0.930 . S
C1950 C1951 1.367 1_556 S
C1950 C1958 1.378 1_556 S
C1951 C1950 1.367 1_554 S
C1951 C1959 1.433 . S
C1952 H1948 0.929 . S
C1952 C1954 1.378 . S
C1952 C1956 1.350 1_545 S
C1953 C1956 1.463 . S
C1953 C1958 1.350 . S
C1953 N1961 1.415 1_565 S
C1954 H1945 0.930 . S
C1954 C1952 1.378 . S
C1954 C1955 1.367 . S
C1955 C1954 1.367 . S
C1955 C1957 1.433 1_545 S
C1956 C1952 1.350 1_565 S
C1956 C1953 1.463 . S
C1956 N1960 1.427 . S
C1957 H1947 0.929 . S
C1957 C1955 1.433 1_565 S
C1957 N1960 1.384 . S
C1958 H1949 0.929 1_554 S
C1958 C1950 1.378 1_554 S
C1958 C1953 1.350 . S
C1959 H1946 0.929 1_565 S
C1959 C1951 1.433 . S
C1959 N1961 1.366 1_565 S
N1960 C1956 1.427 . S
N1960 C1957 1.384 . S
N1961 C1953 1.415 1_545 S
N1961 C1959 1.366 1_545 S
H1962 C1968 0.930 . S
H1963 C1972 0.930 . S
H1964 C1977 0.929 . S
H1965 C1975 0.929 . S
H1966 C1970 0.929 . S
H1967 C1976 0.929 . S
C1968 H1962 0.930 . S
C1968 C1969 1.367 1_554 S
C1968 C1976 1.378 . S
C1969 C1968 1.367 1_556 S
C1969 C1977 1.433 . S
C1970 H1966 0.929 . S
C1970 C1972 1.378 . S
C1970 C1974 1.350 . S
C1971 C1974 1.463 . S
C1971 C1976 1.350 1_556 S
C1971 N1979 1.427 . S
C1972 H1963 0.930 . S
C1972 C1970 1.378 . S
C1972 C1973 1.362 1_556 S
C1973 C1972 1.362 1_554 S
C1973 C1975 1.437 . S
C1974 C1970 1.350 . S
C1974 C1971 1.463 . S
C1974 N1978 1.427 1_556 S
C1975 H1965 0.929 . S
C1975 C1973 1.437 . S
C1975 N1978 1.384 . S
C1976 H1967 0.929 . S
C1976 C1968 1.378 . S
C1976 C1971 1.350 1_554 S
C1977 H1964 0.929 . S
C1977 C1969 1.433 . S
C1977 N1979 1.384 . S
N1978 C1974 1.427 1_554 S
N1978 C1975 1.384 . S
N1979 C1971 1.427 . S
N1979 C1977 1.384 . S
H1980 C1986 0.930 . S
H1981 C1990 0.930 . S
H1982 C1995 0.929 . S
H1983 C1993 0.929 . S
H1984 C1988 0.929 . S
H1985 C1994 0.929 . S
C1986 H1980 0.930 . S
C1986 C1987 1.367 . S
C1986 C1994 1.378 . S
C1987 C1986 1.367 . S
C1987 C1995 1.433 . S
C1988 H1984 0.929 . S
C1988 C1990 1.378 . S
C1988 C1992 1.350 . S
C1989 C1992 1.463 . S
C1989 C1994 1.350 . S
C1989 N1997 1.427 . S
C1990 H1981 0.930 . S
C1990 C1988 1.378 . S
C1990 C1991 1.367 . S
C1991 C1990 1.367 . S
C1991 C1993 1.433 . S
C1992 C1988 1.350 . S
C1992 C1989 1.463 . S
C1992 N1996 1.427 . S
C1993 H1983 0.929 . S
C1993 C1991 1.433 . S
C1993 N1996 1.384 . S
C1994 H1985 0.929 . S
C1994 C1986 1.378 . S
C1994 C1989 1.350 . S
C1995 H1982 0.929 . S
C1995 C1987 1.433 . S
C1995 N1997 1.384 . S
N1996 C1992 1.427 . S
N1996 C1993 1.384 . S
N1997 C1989 1.427 . S
N1997 C1995 1.384 . S
H1998 C2004 0.930 . S
H1999 C2008 0.930 1_455 S
H2000 C2013 0.929 . S
H2001 C2011 0.929 1_455 S
H2002 C2006 0.929 . S
H2003 C2012 0.929 . S
C2004 H1998 0.930 . S
C2004 C2005 1.367 . S
C2004 C2012 1.378 . S
C2005 C2004 1.367 . S
C2005 C2013 1.433 . S
C2006 H2002 0.929 . S
C2006 C2008 1.378 . S
C2006 C2010 1.350 . S
C2007 C2010 1.463 . S
C2007 C2012 1.350 . S
C2007 N2015 1.427 . S
C2008 H1999 0.930 1_655 S
C2008 C2006 1.378 . S
C2008 C2009 1.367 1_655 S
C2009 C2008 1.367 1_455 S
C2009 C2011 1.433 1_455 S
C2010 C2006 1.350 . S
C2010 C2007 1.463 . S
C2010 N2014 1.427 . S
C2011 H2001 0.929 1_655 S
C2011 C2009 1.433 1_655 S
C2011 N2014 1.384 . S
C2012 H2003 0.929 . S
C2012 C2004 1.378 . S
C2012 C2007 1.350 . S
C2013 H2000 0.929 . S
C2013 C2005 1.433 . S
C2013 N2015 1.384 . S
N2014 C2010 1.427 . S
N2014 C2011 1.384 . S
N2015 C2007 1.427 . S
N2015 C2013 1.384 . S
H2016 C2022 0.930 . S
H2017 C2026 0.930 . S
H2018 C2031 0.929 . S
H2019 C2029 0.929 . S
H2020 C2024 0.929 . S
H2021 C2030 0.929 . S
C2022 H2016 0.930 . S
C2022 C2023 1.367 . S
C2022 C2030 1.378 . S
C2023 C2022 1.367 . S
C2023 C2031 1.433 . S
C2024 H2020 0.929 . S
C2024 C2026 1.378 . S
C2024 C2028 1.350 . S
C2025 C2028 1.463 . S
C2025 C2030 1.350 . S
C2025 N2033 1.427 . S
C2026 H2017 0.930 . S
C2026 C2024 1.378 . S
C2026 C2027 1.367 . S
C2027 C2026 1.367 . S
C2027 C2029 1.433 . S
C2028 C2024 1.350 . S
C2028 C2025 1.463 . S
C2028 N2032 1.427 . S
C2029 H2019 0.929 . S
C2029 C2027 1.433 . S
C2029 N2032 1.384 . S
C2030 H2021 0.929 . S
C2030 C2022 1.378 . S
C2030 C2025 1.350 . S
C2031 H2018 0.929 . S
C2031 C2023 1.433 . S
C2031 N2033 1.384 . S
N2032 C2028 1.427 . S
N2032 C2029 1.384 . S
N2033 C2025 1.427 . S
N2033 C2031 1.384 . S
H2034 C2040 0.930 . S
H2035 C2044 0.930 . S
H2036 C2049 0.929 . S
H2037 C2047 0.929 . S
H2038 C2042 0.929 . S
H2039 C2048 0.929 . S
C2040 H2034 0.930 . S
C2040 C2041 1.367 . S
C2040 C2048 1.378 . S
C2041 C2040 1.367 . S
C2041 C2049 1.433 . S
C2042 H2038 0.929 . S
C2042 C2044 1.378 . S
C2042 C2046 1.350 . S
C2043 C2046 1.463 . S
C2043 C2048 1.350 . S
C2043 N2051 1.427 . S
C2044 H2035 0.930 . S
C2044 C2042 1.378 . S
C2044 C2045 1.367 . S
C2045 C2044 1.367 . S
C2045 C2047 1.433 . S
C2046 C2042 1.350 . S
C2046 C2043 1.463 . S
C2046 N2050 1.427 . S
C2047 H2037 0.929 . S
C2047 C2045 1.433 . S
C2047 N2050 1.384 . S
C2048 H2039 0.929 . S
C2048 C2040 1.378 . S
C2048 C2043 1.350 . S
C2049 H2036 0.929 . S
C2049 C2041 1.433 . S
C2049 N2051 1.384 . S
N2050 C2046 1.427 . S
N2050 C2047 1.384 . S
N2051 C2043 1.427 . S
N2051 C2049 1.384 . S
H2052 C2058 0.930 . S
H2053 C2062 0.930 . S
H2054 C2067 0.929 . S
H2055 C2065 0.929 . S
H2056 C2060 0.929 . S
H2057 C2066 0.929 . S
C2058 H2052 0.930 . S
C2058 C2059 1.367 . S
C2058 C2066 1.378 . S
C2059 C2058 1.367 . S
C2059 C2067 1.433 . S
C2060 H2056 0.929 . S
C2060 C2062 1.378 . S
C2060 C2064 1.350 . S
C2061 C2064 1.463 . S
C2061 C2066 1.350 . S
C2061 N2069 1.427 . S
C2062 H2053 0.930 . S
C2062 C2060 1.378 . S
C2062 C2063 1.367 . S
C2063 C2062 1.367 . S
C2063 C2065 1.433 . S
C2064 C2060 1.350 . S
C2064 C2061 1.463 . S
C2064 N2068 1.427 . S
C2065 H2055 0.929 . S
C2065 C2063 1.433 . S
C2065 N2068 1.384 . S
C2066 H2057 0.929 . S
C2066 C2058 1.378 . S
C2066 C2061 1.350 . S
C2067 H2054 0.929 . S
C2067 C2059 1.433 . S
C2067 N2069 1.384 . S
N2068 C2064 1.427 . S
N2068 C2065 1.384 . S
N2069 C2061 1.427 . S
N2069 C2067 1.384 . S
H2070 C2076 0.930 . S
H2071 C2080 0.930 . S
H2072 C2085 0.929 . S
H2073 C2083 0.929 . S
H2074 C2078 0.929 . S
H2075 C2084 0.929 . S
C2076 H2070 0.930 . S
C2076 C2077 1.367 . S
C2076 C2084 1.378 . S
C2077 C2076 1.367 . S
C2077 C2085 1.433 . S
C2078 H2074 0.929 . S
C2078 C2080 1.378 . S
C2078 C2082 1.350 . S
C2079 C2082 1.463 . S
C2079 C2084 1.350 . S
C2079 N2087 1.427 . S
C2080 H2071 0.930 . S
C2080 C2078 1.378 . S
C2080 C2081 1.367 . S
C2081 C2080 1.367 . S
C2081 C2083 1.433 . S
C2082 C2078 1.350 . S
C2082 C2079 1.463 . S
C2082 N2086 1.427 . S
C2083 H2073 0.929 . S
C2083 C2081 1.433 . S
C2083 N2086 1.384 . S
C2084 H2075 0.929 . S
C2084 C2076 1.378 . S
C2084 C2079 1.350 . S
C2085 H2072 0.929 . S
C2085 C2077 1.433 . S
C2085 N2087 1.384 . S
N2086 C2082 1.427 . S
N2086 C2083 1.384 . S
N2087 C2079 1.427 . S
N2087 C2085 1.384 . S
H2088 C2094 0.930 . S
H2089 C2098 0.930 . S
H2090 C2103 0.929 . S
H2091 C2101 0.929 1_556 S
H2092 C2096 0.929 . S
H2093 C2102 0.929 . S
C2094 H2088 0.930 . S
C2094 C2095 1.367 . S
C2094 C2102 1.378 . S
C2095 C2094 1.367 . S
C2095 C2103 1.433 . S
C2096 H2092 0.929 . S
C2096 C2098 1.378 . S
C2096 C2100 1.350 . S
C2097 C2100 1.463 . S
C2097 C2102 1.350 . S
C2097 N2105 1.427 . S
C2098 H2089 0.930 . S
C2098 C2096 1.378 . S
C2098 C2099 1.367 . S
C2099 C2098 1.367 . S
C2099 C2101 1.433 . S
C2100 C2096 1.350 . S
C2100 C2097 1.463 . S
C2100 N2104 1.427 . S
C2101 H2091 0.929 1_554 S
C2101 C2099 1.433 . S
C2101 N2104 1.384 . S
C2102 H2093 0.929 . S
C2102 C2094 1.378 . S
C2102 C2097 1.350 . S
C2103 H2090 0.929 . S
C2103 C2095 1.433 . S
C2103 N2105 1.384 . S
N2104 C2100 1.427 . S
N2104 C2101 1.384 . S
N2105 C2097 1.427 . S
N2105 C2103 1.384 . S
H2106 C2112 0.930 . S
H2107 C2116 0.930 . S
H2108 C2121 0.929 . S
H2109 C2119 0.929 . S
H2110 C2114 0.929 . S
H2111 C2120 0.929 . S
C2112 H2106 0.930 . S
C2112 C2113 1.367 . S
C2112 C2120 1.378 . S
C2113 C2112 1.367 . S
C2113 C2121 1.433 . S
C2114 H2110 0.929 . S
C2114 C2116 1.378 . S
C2114 C2118 1.350 . S
C2115 C2118 1.463 . S
C2115 C2120 1.350 . S
C2115 N2123 1.427 . S
C2116 H2107 0.930 . S
C2116 C2114 1.378 . S
C2116 C2117 1.367 . S
C2117 C2116 1.367 . S
C2117 C2119 1.433 . S
C2118 C2114 1.350 . S
C2118 C2115 1.463 . S
C2118 N2122 1.427 . S
C2119 H2109 0.929 . S
C2119 C2117 1.433 . S
C2119 N2122 1.384 . S
C2120 H2111 0.929 . S
C2120 C2112 1.378 . S
C2120 C2115 1.350 . S
C2121 H2108 0.929 . S
C2121 C2113 1.433 . S
C2121 N2123 1.384 . S
N2122 C2118 1.427 . S
N2122 C2119 1.384 . S
N2123 C2115 1.427 . S
N2123 C2121 1.384 . S
H2124 C2130 0.930 . S
H2125 C2134 0.930 . S
H2126 C2139 0.929 . S
H2127 C2137 0.929 . S
H2128 C2132 0.929 . S
H2129 C2138 0.929 . S
C2130 H2124 0.930 . S
C2130 C2131 1.367 . S
C2130 C2138 1.378 . S
C2131 C2130 1.367 . S
C2131 C2139 1.433 . S
C2132 H2128 0.929 . S
C2132 C2134 1.378 . S
C2132 C2136 1.350 . S
C2133 C2136 1.463 . S
C2133 C2138 1.350 . S
C2133 N2141 1.427 . S
C2134 H2125 0.930 . S
C2134 C2132 1.378 . S
C2134 C2135 1.367 . S
C2135 C2134 1.367 . S
C2135 C2137 1.433 . S
C2136 C2132 1.350 . S
C2136 C2133 1.463 . S
C2136 N2140 1.427 . S
C2137 H2127 0.929 . S
C2137 C2135 1.433 . S
C2137 N2140 1.384 . S
C2138 H2129 0.929 . S
C2138 C2130 1.378 . S
C2138 C2133 1.350 . S
C2139 H2126 0.929 . S
C2139 C2131 1.433 . S
C2139 N2141 1.384 . S
N2140 C2136 1.427 . S
N2140 C2137 1.384 . S
N2141 C2133 1.427 . S
N2141 C2139 1.384 . S
H2142 C2148 0.930 . S
H2143 C2152 0.930 . S
H2144 C2157 0.929 . S
H2145 C2155 0.929 . S
H2146 C2150 0.929 . S
H2147 C2156 0.929 . S
C2148 H2142 0.930 . S
C2148 C2149 1.367 . S
C2148 C2156 1.378 . S
C2149 C2148 1.367 . S
C2149 C2157 1.433 . S
C2150 H2146 0.929 . S
C2150 C2152 1.378 . S
C2150 C2154 1.350 . S
C2151 C2154 1.463 . S
C2151 C2156 1.350 . S
C2151 N2159 1.427 . S
C2152 H2143 0.930 . S
C2152 C2150 1.378 . S
C2152 C2153 1.367 . S
C2153 C2152 1.367 . S
C2153 C2155 1.433 . S
C2154 C2150 1.350 . S
C2154 C2151 1.463 . S
C2154 N2158 1.427 . S
C2155 H2145 0.929 . S
C2155 C2153 1.433 . S
C2155 N2158 1.384 . S
C2156 H2147 0.929 . S
C2156 C2148 1.378 . S
C2156 C2151 1.350 . S
C2157 H2144 0.929 . S
C2157 C2149 1.433 . S
C2157 N2159 1.384 . S
N2158 C2154 1.427 . S
N2158 C2155 1.384 . S
N2159 C2151 1.427 . S
N2159 C2157 1.384 . S
H2160 C2166 0.930 . S
H2161 C2170 0.930 . S
H2162 C2175 0.929 . S
H2163 C2173 0.929 . S
H2164 C2168 0.929 . S
H2165 C2174 0.929 . S
C2166 H2160 0.930 . S
C2166 C2167 1.367 . S
C2166 C2174 1.378 . S
C2167 C2166 1.367 . S
C2167 C2175 1.433 . S
C2168 H2164 0.929 . S
C2168 C2170 1.378 . S
C2168 C2172 1.350 . S
C2169 C2172 1.463 . S
C2169 C2174 1.350 . S
C2169 N2177 1.427 . S
C2170 H2161 0.930 . S
C2170 C2168 1.378 . S
C2170 C2171 1.367 . S
C2171 C2170 1.367 . S
C2171 C2173 1.433 . S
C2172 C2168 1.350 . S
C2172 C2169 1.463 . S
C2172 N2176 1.427 . S
C2173 H2163 0.929 . S
C2173 C2171 1.433 . S
C2173 N2176 1.384 . S
C2174 H2165 0.929 . S
C2174 C2166 1.378 . S
C2174 C2169 1.350 . S
C2175 H2162 0.929 . S
C2175 C2167 1.433 . S
C2175 N2177 1.384 . S
N2176 C2172 1.427 . S
N2176 C2173 1.384 . S
N2177 C2169 1.427 . S
N2177 C2175 1.384 . S
H2178 C2184 0.930 . S
H2179 C2188 0.930 . S
H2180 C2193 0.929 . S
H2181 C2191 0.929 . S
H2182 C2186 0.929 . S
H2183 C2192 0.929 . S
C2184 H2178 0.930 . S
C2184 C2185 1.367 . S
C2184 C2192 1.378 . S
C2185 C2184 1.367 . S
C2185 C2193 1.433 . S
C2186 H2182 0.929 . S
C2186 C2188 1.378 . S
C2186 C2190 1.350 . S
C2187 C2190 1.463 . S
C2187 C2192 1.350 . S
C2187 N2195 1.427 . S
C2188 H2179 0.930 . S
C2188 C2186 1.378 . S
C2188 C2189 1.367 . S
C2189 C2188 1.367 . S
C2189 C2191 1.433 . S
C2190 C2186 1.350 . S
C2190 C2187 1.463 . S
C2190 N2194 1.427 . S
C2191 H2181 0.929 . S
C2191 C2189 1.433 . S
C2191 N2194 1.384 . S
C2192 H2183 0.929 . S
C2192 C2184 1.378 . S
C2192 C2187 1.350 . S
C2193 H2180 0.929 . S
C2193 C2185 1.433 . S
C2193 N2195 1.384 . S
N2194 C2190 1.427 . S
N2194 C2191 1.384 . S
N2195 C2187 1.427 . S
N2195 C2193 1.384 . S
H2196 C2202 0.930 . S
H2197 C2206 0.930 . S
H2198 C2211 0.929 . S
H2199 C2209 0.929 . S
H2200 C2204 0.929 . S
H2201 C2210 0.929 . S
C2202 H2196 0.930 . S
C2202 C2203 1.367 . S
C2202 C2210 1.378 . S
C2203 C2202 1.367 . S
C2203 C2211 1.433 . S
C2204 H2200 0.929 . S
C2204 C2206 1.378 . S
C2204 C2208 1.350 . S
C2205 C2208 1.463 . S
C2205 C2210 1.350 . S
C2205 N2213 1.427 . S
C2206 H2197 0.930 . S
C2206 C2204 1.378 . S
C2206 C2207 1.367 . S
C2207 C2206 1.367 . S
C2207 C2209 1.433 1_556 S
C2208 C2204 1.350 . S
C2208 C2205 1.463 . S
C2208 N2212 1.427 . S
C2209 H2199 0.929 . S
C2209 C2207 1.433 1_554 S
C2209 N2212 1.384 1_554 S
C2210 H2201 0.929 . S
C2210 C2202 1.378 . S
C2210 C2205 1.350 . S
C2211 H2198 0.929 . S
C2211 C2203 1.433 . S
C2211 N2213 1.384 . S
N2212 C2208 1.427 . S
N2212 C2209 1.384 1_556 S
N2213 C2205 1.427 . S
N2213 C2211 1.384 . S
H2214 C2220 0.930 . S
H2215 C2224 0.930 . S
H2216 C2229 0.929 . S
H2217 C2227 0.929 . S
H2218 C2222 0.929 . S
H2219 C2228 0.929 . S
C2220 H2214 0.930 . S
C2220 C2221 1.367 . S
C2220 C2228 1.378 . S
C2221 C2220 1.367 . S
C2221 C2229 1.433 . S
C2222 H2218 0.929 . S
C2222 C2224 1.378 . S
C2222 C2226 1.350 . S
C2223 C2226 1.463 . S
C2223 C2228 1.350 . S
C2223 N2231 1.427 . S
C2224 H2215 0.930 . S
C2224 C2222 1.378 . S
C2224 C2225 1.367 . S
C2225 C2224 1.367 . S
C2225 C2227 1.433 . S
C2226 C2222 1.350 . S
C2226 C2223 1.463 . S
C2226 N2230 1.427 . S
C2227 H2217 0.929 . S
C2227 C2225 1.433 . S
C2227 N2230 1.384 . S
C2228 H2219 0.929 . S
C2228 C2220 1.378 . S
C2228 C2223 1.350 . S
C2229 H2216 0.929 . S
C2229 C2221 1.433 . S
C2229 N2231 1.384 . S
N2230 C2226 1.427 . S
N2230 C2227 1.384 . S
N2231 C2223 1.427 . S
N2231 C2229 1.384 . S
H2232 C2238 0.930 . S
H2233 C2242 0.930 . S
H2234 C2247 0.929 . S
H2235 C2245 0.929 . S
H2236 C2240 0.929 . S
H2237 C2246 0.929 . S
C2238 H2232 0.930 . S
C2238 C2239 1.367 . S
C2238 C2246 1.378 . S
C2239 C2238 1.367 . S
C2239 C2247 1.433 1_545 S
C2240 H2236 0.929 . S
C2240 C2242 1.378 . S
C2240 C2244 1.350 1_565 S
C2241 C2244 1.463 . S
C2241 C2246 1.350 . S
C2241 N2249 1.427 1_545 S
C2242 H2233 0.930 . S
C2242 C2240 1.378 . S
C2242 C2243 1.367 1_565 S
C2243 C2242 1.367 1_545 S
C2243 C2245 1.433 . S
C2244 C2240 1.350 1_545 S
C2244 C2241 1.463 . S
C2244 N2248 1.427 . S
C2245 H2235 0.929 . S
C2245 C2243 1.433 . S
C2245 N2248 1.384 . S
C2246 H2237 0.929 . S
C2246 C2238 1.378 . S
C2246 C2241 1.350 . S
C2247 H2234 0.929 . S
C2247 C2239 1.433 1_565 S
C2247 N2249 1.384 . S
N2248 C2244 1.427 . S
N2248 C2245 1.384 . S
N2249 C2241 1.427 1_565 S
N2249 C2247 1.384 . S
H2250 C2256 0.930 . S
H2251 C2260 0.930 . S
H2252 C2265 0.929 . S
H2253 C2263 0.929 . S
H2254 C2258 0.929 . S
H2255 C2264 0.929 . S
C2256 H2250 0.930 . S
C2256 C2257 1.367 . S
C2256 C2264 1.378 . S
C2257 C2256 1.367 . S
C2257 C2265 1.433 . S
C2258 H2254 0.929 . S
C2258 C2260 1.378 . S
C2258 C2262 1.350 . S
C2259 C2262 1.463 . S
C2259 C2264 1.350 . S
C2259 N2267 1.427 . S
C2260 H2251 0.930 . S
C2260 C2258 1.378 . S
C2260 C2261 1.367 . S
C2261 C2260 1.367 . S
C2261 C2263 1.433 . S
C2262 C2258 1.350 . S
C2262 C2259 1.463 . S
C2262 N2266 1.427 . S
C2263 H2253 0.929 . S
C2263 C2261 1.433 . S
C2263 N2266 1.384 . S
C2264 H2255 0.929 . S
C2264 C2256 1.378 . S
C2264 C2259 1.350 . S
C2265 H2252 0.929 . S
C2265 C2257 1.433 . S
C2265 N2267 1.384 . S
N2266 C2262 1.427 . S
N2266 C2263 1.384 . S
N2267 C2259 1.427 . S
N2267 C2265 1.384 . S
H2268 C2274 0.930 . S
H2269 C2278 0.930 . S
H2270 C2283 0.929 . S
H2271 C2281 0.929 . S
H2272 C2276 0.929 . S
H2273 C2282 0.929 . S
C2274 H2268 0.930 . S
C2274 C2275 1.367 . S
C2274 C2282 1.378 . S
C2275 C2274 1.367 . S
C2275 C2283 1.433 . S
C2276 H2272 0.929 . S
C2276 C2278 1.378 . S
C2276 C2280 1.350 . S
C2277 C2280 1.463 . S
C2277 C2282 1.350 . S
C2277 N2285 1.427 . S
C2278 H2269 0.930 . S
C2278 C2276 1.378 . S
C2278 C2279 1.367 . S
C2279 C2278 1.367 . S
C2279 C2281 1.433 . S
C2280 C2276 1.350 . S
C2280 C2277 1.463 . S
C2280 N2284 1.427 . S
C2281 H2271 0.929 . S
C2281 C2279 1.433 . S
C2281 N2284 1.384 . S
C2282 H2273 0.929 . S
C2282 C2274 1.378 . S
C2282 C2277 1.350 . S
C2283 H2270 0.929 . S
C2283 C2275 1.433 . S
C2283 N2285 1.384 . S
N2284 C2280 1.427 . S
N2284 C2281 1.384 . S
N2285 C2277 1.427 . S
N2285 C2283 1.384 . S
H2286 C2292 0.930 . S
H2287 C2296 0.930 . S
H2288 C2301 0.929 . S
H2289 C2299 0.929 . S
H2290 C2294 0.929 . S
H2291 C2300 0.929 . S
C2292 H2286 0.930 . S
C2292 C2293 1.367 . S
C2292 C2300 1.378 . S
C2293 C2292 1.367 . S
C2293 C2301 1.433 . S
C2294 H2290 0.929 . S
C2294 C2296 1.378 . S
C2294 C2298 1.350 . S
C2295 C2298 1.463 . S
C2295 C2300 1.350 . S
C2295 N2303 1.427 . S
C2296 H2287 0.930 . S
C2296 C2294 1.378 . S
C2296 C2297 1.367 . S
C2297 C2296 1.367 . S
C2297 C2299 1.433 . S
C2298 C2294 1.350 . S
C2298 C2295 1.463 . S
C2298 N2302 1.427 . S
C2299 H2289 0.929 . S
C2299 C2297 1.433 . S
C2299 N2302 1.384 . S
C2300 H2291 0.929 . S
C2300 C2292 1.378 . S
C2300 C2295 1.350 . S
C2301 H2288 0.929 . S
C2301 C2293 1.433 . S
C2301 N2303 1.384 . S
N2302 C2298 1.427 . S
N2302 C2299 1.384 . S
N2303 C2295 1.427 . S
N2303 C2301 1.384 . S
H2304 C2310 0.930 . S
H2305 C2314 0.941 . S
H2306 C2319 0.929 . S
H2307 C2317 0.929 . S
H2308 C2312 0.929 1_565 S
H2309 C2318 0.929 . S
C2310 H2304 0.930 . S
C2310 C2311 1.367 1_545 S
C2310 C2318 1.378 . S
C2311 C2310 1.367 1_565 S
C2311 C2319 1.433 . S
C2312 H2308 0.929 1_545 S
C2312 C2314 1.378 . S
C2312 C2316 1.350 . S
C2313 C2316 1.463 . S
C2313 C2318 1.350 . S
C2313 N2321 1.427 1_545 S
C2314 H2305 0.941 . S
C2314 C2312 1.378 . S
C2314 C2315 1.367 . S
C2315 C2314 1.367 . S
C2315 C2317 1.433 . S
C2316 C2312 1.350 . S
C2316 C2313 1.463 . S
C2316 N2320 1.427 . S
C2317 H2307 0.929 . S
C2317 C2315 1.433 . S
C2317 N2320 1.384 . S
C2318 H2309 0.929 . S
C2318 C2310 1.378 . S
C2318 C2313 1.350 . S
C2319 H2306 0.929 . S
C2319 C2311 1.433 . S
C2319 N2321 1.384 . S
N2320 C2316 1.427 . S
N2320 C2317 1.384 . S
N2321 C2313 1.427 1_565 S
N2321 C2319 1.384 . S
H2322 C2328 0.930 . S
H2323 C2332 0.930 . S
H2324 C2337 0.929 . S
H2325 C2335 0.929 . S
H2326 C2330 0.929 . S
H2327 C2336 0.929 . S
C2328 H2322 0.930 . S
C2328 C2329 1.367 . S
C2328 C2336 1.378 . S
C2329 C2328 1.367 . S
C2329 C2337 1.433 . S
C2330 H2326 0.929 . S
C2330 C2332 1.378 . S
C2330 C2334 1.350 . S
C2331 C2334 1.463 . S
C2331 C2336 1.350 . S
C2331 N2339 1.427 . S
C2332 H2323 0.930 . S
C2332 C2330 1.378 . S
C2332 C2333 1.367 . S
C2333 C2332 1.367 . S
C2333 C2335 1.433 . S
C2334 C2330 1.350 . S
C2334 C2331 1.463 . S
C2334 N2338 1.427 . S
C2335 H2325 0.929 . S
C2335 C2333 1.433 . S
C2335 N2338 1.384 . S
C2336 H2327 0.929 . S
C2336 C2328 1.378 . S
C2336 C2331 1.350 . S
C2337 H2324 0.929 . S
C2337 C2329 1.433 . S
C2337 N2339 1.384 . S
N2338 C2334 1.427 . S
N2338 C2335 1.384 . S
N2339 C2331 1.427 . S
N2339 C2337 1.384 . S
H2340 C2346 0.929 . S
H2341 C2350 0.930 . S
H2342 C2355 0.929 . S
H2343 C2353 0.934 . S
H2344 C2348 0.929 . S
H2345 C2354 0.928 . S
C2346 H2340 0.929 . S
C2346 C2347 1.368 1_565 S
C2346 C2354 1.378 . S
C2347 C2346 1.368 1_545 S
C2347 C2355 1.433 . S
C2348 H2344 0.929 . S
C2348 C2350 1.378 . S
C2348 C2352 1.350 . S
C2349 C2352 1.463 . S
C2349 C2354 1.351 1_545 S
C2349 N2357 1.427 . S
C2350 H2341 0.930 . S
C2350 C2348 1.378 . S
C2350 C2351 1.367 . S
C2351 C2350 1.367 . S
C2351 C2353 1.427 1_545 S
C2352 C2348 1.350 . S
C2352 C2349 1.463 . S
C2352 N2356 1.426 1_545 S
C2353 H2343 0.934 . S
C2353 C2351 1.427 1_565 S
C2353 N2356 1.384 . S
C2354 H2345 0.928 . S
C2354 C2346 1.378 . S
C2354 C2349 1.351 1_565 S
C2355 H2342 0.929 . S
C2355 C2347 1.433 . S
C2355 N2357 1.384 . S
N2356 C2352 1.426 1_565 S
N2356 C2353 1.384 . S
N2357 C2349 1.427 . S
N2357 C2355 1.384 . S
H2358 C2364 0.930 . S
H2359 C2368 0.930 . S
H2360 C2373 0.929 . S
H2361 C2371 0.929 . S
H2362 C2366 0.929 . S
H2363 C2372 0.929 . S
C2364 H2358 0.930 . S
C2364 C2365 1.367 . S
C2364 C2372 1.378 . S
C2365 C2364 1.367 . S
C2365 C2373 1.433 . S
C2366 H2362 0.929 . S
C2366 C2368 1.378 . S
C2366 C2370 1.350 . S
C2367 C2370 1.463 . S
C2367 C2372 1.350 . S
C2367 N2375 1.427 . S
C2368 H2359 0.930 . S
C2368 C2366 1.378 . S
C2368 C2369 1.367 . S
C2369 C2368 1.367 . S
C2369 C2371 1.433 . S
C2370 C2366 1.350 . S
C2370 C2367 1.463 . S
C2370 N2374 1.427 . S
C2371 H2361 0.929 . S
C2371 C2369 1.433 . S
C2371 N2374 1.384 . S
C2372 H2363 0.929 . S
C2372 C2364 1.378 . S
C2372 C2367 1.350 . S
C2373 H2360 0.929 . S
C2373 C2365 1.433 . S
C2373 N2375 1.384 . S
N2374 C2370 1.427 . S
N2374 C2371 1.384 . S
N2375 C2367 1.427 . S
N2375 C2373 1.384 . S
H2376 C2382 0.930 . S
H2377 C2386 0.930 . S
H2378 C2391 0.929 . S
H2379 C2389 0.929 1_556 S
H2380 C2384 0.929 . S
H2381 C2390 0.929 . S
C2382 H2376 0.930 . S
C2382 C2383 1.367 . S
C2382 C2390 1.378 . S
C2383 C2382 1.367 . S
C2383 C2391 1.433 . S
C2384 H2380 0.929 . S
C2384 C2386 1.378 . S
C2384 C2388 1.350 . S
C2385 C2388 1.463 . S
C2385 C2390 1.350 . S
C2385 N2393 1.427 . S
C2386 H2377 0.930 . S
C2386 C2384 1.378 . S
C2386 C2387 1.367 . S
C2387 C2386 1.367 . S
C2387 C2389 1.433 . S
C2388 C2384 1.350 . S
C2388 C2385 1.463 . S
C2388 N2392 1.427 . S
C2389 H2379 0.929 1_554 S
C2389 C2387 1.433 . S
C2389 N2392 1.384 . S
C2390 H2381 0.929 . S
C2390 C2382 1.378 . S
C2390 C2385 1.350 . S
C2391 H2378 0.929 . S
C2391 C2383 1.433 . S
C2391 N2393 1.384 . S
N2392 C2388 1.427 . S
N2392 C2389 1.384 . S
N2393 C2385 1.427 . S
N2393 C2391 1.384 . S
H2394 C2400 0.930 . S
H2395 C2404 0.930 . S
H2396 C2409 0.929 . S
H2397 C2407 0.929 . S
H2398 C2402 0.929 . S
H2399 C2408 0.929 . S
C2400 H2394 0.930 . S
C2400 C2401 1.367 . S
C2400 C2408 1.378 . S
C2401 C2400 1.367 . S
C2401 C2409 1.433 . S
C2402 H2398 0.929 . S
C2402 C2404 1.378 . S
C2402 C2406 1.350 . S
C2403 C2406 1.463 . S
C2403 C2408 1.350 . S
C2403 N2411 1.427 . S
C2404 H2395 0.930 . S
C2404 C2402 1.378 . S
C2404 C2405 1.367 . S
C2405 C2404 1.367 . S
C2405 C2407 1.433 . S
C2406 C2402 1.350 . S
C2406 C2403 1.463 . S
C2406 N2410 1.427 . S
C2407 H2397 0.929 . S
C2407 C2405 1.433 . S
C2407 N2410 1.384 . S
C2408 H2399 0.929 . S
C2408 C2400 1.378 . S
C2408 C2403 1.350 . S
C2409 H2396 0.929 . S
C2409 C2401 1.433 . S
C2409 N2411 1.384 . S
N2410 C2406 1.427 . S
N2410 C2407 1.384 . S
N2411 C2403 1.427 . S
N2411 C2409 1.384 . S
H2412 C2418 0.930 . S
H2413 C2422 0.930 . S
H2414 C2427 0.929 . S
H2415 C2425 0.929 . S
H2416 C2420 0.929 . S
H2417 C2426 0.929 . S
C2418 H2412 0.930 . S
C2418 C2419 1.367 . S
C2418 C2426 1.378 . S
C2419 C2418 1.367 . S
C2419 C2427 1.433 . S
C2420 H2416 0.929 . S
C2420 C2422 1.378 . S
C2420 C2424 1.350 . S
C2421 C2424 1.463 . S
C2421 C2426 1.350 . S
C2421 N2429 1.427 . S
C2422 H2413 0.930 . S
C2422 C2420 1.378 . S
C2422 C2423 1.367 . S
C2423 C2422 1.367 . S
C2423 C2425 1.433 . S
C2424 C2420 1.350 . S
C2424 C2421 1.463 . S
C2424 N2428 1.427 . S
C2425 H2415 0.929 . S
C2425 C2423 1.433 . S
C2425 N2428 1.384 . S
C2426 H2417 0.929 . S
C2426 C2418 1.378 . S
C2426 C2421 1.350 . S
C2427 H2414 0.929 . S
C2427 C2419 1.433 . S
C2427 N2429 1.384 . S
N2428 C2424 1.427 . S
N2428 C2425 1.384 . S
N2429 C2421 1.427 . S
N2429 C2427 1.384 . S
H2430 C2436 0.930 . S
H2431 C2440 0.930 . S
H2432 C2445 0.929 . S
H2433 C2443 0.929 . S
H2434 C2438 0.929 . S
H2435 C2444 0.929 . S
C2436 H2430 0.930 . S
C2436 C2437 1.367 . S
C2436 C2444 1.378 . S
C2437 C2436 1.367 . S
C2437 C2445 1.433 . S
C2438 H2434 0.929 . S
C2438 C2440 1.378 . S
C2438 C2442 1.350 . S
C2439 C2442 1.463 . S
C2439 C2444 1.350 . S
C2439 N2447 1.427 . S
C2440 H2431 0.930 . S
C2440 C2438 1.378 . S
C2440 C2441 1.367 . S
C2441 C2440 1.367 . S
C2441 C2443 1.433 . S
C2442 C2438 1.350 . S
C2442 C2439 1.463 . S
C2442 N2446 1.427 . S
C2443 H2433 0.929 . S
C2443 C2441 1.433 . S
C2443 N2446 1.384 . S
C2444 H2435 0.929 . S
C2444 C2436 1.378 . S
C2444 C2439 1.350 . S
C2445 H2432 0.929 . S
C2445 C2437 1.433 . S
C2445 N2447 1.384 . S
N2446 C2442 1.427 . S
N2446 C2443 1.384 . S
N2447 C2439 1.427 . S
N2447 C2445 1.384 . S
H2448 C2454 0.930 . S
H2449 C2458 0.930 . S
H2450 C2463 0.929 . S
H2451 C2461 0.929 . S
H2452 C2456 0.929 . S
H2453 C2462 0.929 1_545 S
C2454 H2448 0.930 . S
C2454 C2455 1.363 1_545 S
C2454 C2462 1.378 1_545 S
C2455 C2454 1.363 1_565 S
C2455 C2463 1.467 . S
C2456 H2452 0.929 . S
C2456 C2458 1.378 . S
C2456 C2460 1.350 . S
C2457 C2460 1.463 . S
C2457 C2462 1.350 . S
C2457 N2465 1.427 . S
C2458 H2449 0.930 . S
C2458 C2456 1.378 . S
C2458 C2459 1.367 . S
C2459 C2458 1.367 . S
C2459 C2461 1.433 . S
C2460 C2456 1.350 . S
C2460 C2457 1.463 . S
C2460 N2464 1.427 . S
C2461 H2451 0.929 . S
C2461 C2459 1.433 . S
C2461 N2464 1.384 . S
C2462 H2453 0.929 1_565 S
C2462 C2454 1.378 1_565 S
C2462 C2457 1.350 . S
C2463 H2450 0.929 . S
C2463 C2455 1.467 . S
C2463 N2465 1.384 . S
N2464 C2460 1.427 . S
N2464 C2461 1.384 . S
N2465 C2457 1.427 . S
N2465 C2463 1.384 . S
H2466 C2472 0.930 . S
H2467 C2476 0.930 . S
H2468 C2481 0.929 . S
H2469 C2479 0.929 . S
H2470 C2474 0.929 . S
H2471 C2480 0.929 . S
C2472 H2466 0.930 . S
C2472 C2473 1.367 . S
C2472 C2480 1.378 . S
C2473 C2472 1.367 . S
C2473 C2481 1.433 . S
C2474 H2470 0.929 . S
C2474 C2476 1.378 . S
C2474 C2478 1.350 . S
C2475 C2478 1.463 . S
C2475 C2480 1.350 . S
C2475 N2483 1.427 . S
C2476 H2467 0.930 . S
C2476 C2474 1.378 . S
C2476 C2477 1.367 . S
C2477 C2476 1.367 . S
C2477 C2479 1.433 . S
C2478 C2474 1.350 . S
C2478 C2475 1.463 . S
C2478 N2482 1.427 . S
C2479 H2469 0.929 . S
C2479 C2477 1.433 . S
C2479 N2482 1.384 . S
C2480 H2471 0.929 . S
C2480 C2472 1.378 . S
C2480 C2475 1.350 . S
C2481 H2468 0.929 . S
C2481 C2473 1.433 . S
C2481 N2483 1.384 . S
N2482 C2478 1.427 . S
N2482 C2479 1.384 . S
N2483 C2475 1.427 . S
N2483 C2481 1.384 . S
H2484 C2490 0.930 . S
H2485 C2494 0.930 . S
H2486 C2499 0.929 . S
H2487 C2497 0.929 . S
H2488 C2492 0.929 . S
H2489 C2498 0.929 . S
C2490 H2484 0.930 . S
C2490 C2491 1.367 . S
C2490 C2498 1.378 . S
C2491 C2490 1.367 . S
C2491 C2499 1.433 . S
C2492 H2488 0.929 . S
C2492 C2494 1.378 . S
C2492 C2496 1.350 . S
C2493 C2496 1.463 . S
C2493 C2498 1.350 . S
C2493 N2501 1.427 . S
C2494 H2485 0.930 . S
C2494 C2492 1.378 . S
C2494 C2495 1.367 . S
C2495 C2494 1.367 . S
C2495 C2497 1.433 . S
C2496 C2492 1.350 . S
C2496 C2493 1.463 . S
C2496 N2500 1.427 . S
C2497 H2487 0.929 . S
C2497 C2495 1.433 . S
C2497 N2500 1.384 . S
C2498 H2489 0.929 . S
C2498 C2490 1.378 . S
C2498 C2493 1.350 . S
C2499 H2486 0.929 . S
C2499 C2491 1.433 . S
C2499 N2501 1.384 . S
N2500 C2496 1.427 . S
N2500 C2497 1.384 . S
N2501 C2493 1.427 . S
N2501 C2499 1.384 . S
H2502 C2508 0.930 . S
H2503 C2512 0.930 . S
H2504 C2517 0.929 . S
H2505 C2515 0.929 . S
H2506 C2510 0.929 . S
H2507 C2516 0.929 . S
C2508 H2502 0.930 . S
C2508 C2509 1.367 . S
C2508 C2516 1.378 . S
C2509 C2508 1.367 . S
C2509 C2517 1.433 . S
C2510 H2506 0.929 . S
C2510 C2512 1.378 . S
C2510 C2514 1.350 . S
C2511 C2514 1.463 . S
C2511 C2516 1.350 . S
C2511 N2519 1.427 . S
C2512 H2503 0.930 . S
C2512 C2510 1.378 . S
C2512 C2513 1.367 . S
C2513 C2512 1.367 . S
C2513 C2515 1.433 . S
C2514 C2510 1.350 . S
C2514 C2511 1.463 . S
C2514 N2518 1.427 . S
C2515 H2505 0.929 . S
C2515 C2513 1.433 . S
C2515 N2518 1.384 . S
C2516 H2507 0.929 . S
C2516 C2508 1.378 . S
C2516 C2511 1.350 . S
C2517 H2504 0.929 . S
C2517 C2509 1.433 . S
C2517 N2519 1.384 . S
N2518 C2514 1.427 . S
N2518 C2515 1.384 . S
N2519 C2511 1.427 . S
N2519 C2517 1.384 . S
H2520 C2526 0.930 . S
H2521 C2530 0.930 . S
H2522 C2535 0.929 . S
H2523 C2533 0.929 . S
H2524 C2528 0.929 . S
H2525 C2534 0.929 . S
C2526 H2520 0.930 . S
C2526 C2527 1.367 . S
C2526 C2534 1.378 . S
C2527 C2526 1.367 . S
C2527 C2535 1.433 . S
C2528 H2524 0.929 . S
C2528 C2530 1.378 . S
C2528 C2532 1.350 . S
C2529 C2532 1.463 . S
C2529 C2534 1.350 . S
C2529 N2537 1.427 . S
C2530 H2521 0.930 . S
C2530 C2528 1.378 . S
C2530 C2531 1.367 . S
C2531 C2530 1.367 . S
C2531 C2533 1.433 . S
C2532 C2528 1.350 . S
C2532 C2529 1.463 . S
C2532 N2536 1.427 . S
C2533 H2523 0.929 . S
C2533 C2531 1.433 . S
C2533 N2536 1.384 . S
C2534 H2525 0.929 . S
C2534 C2526 1.378 . S
C2534 C2529 1.350 . S
C2535 H2522 0.929 . S
C2535 C2527 1.433 . S
C2535 N2537 1.384 . S
N2536 C2532 1.427 . S
N2536 C2533 1.384 . S
N2537 C2529 1.427 . S
N2537 C2535 1.384 . S
H2538 C2544 0.930 . S
H2539 C2548 0.930 . S
H2540 C2553 0.929 . S
H2541 C2551 0.929 . S
H2542 C2546 0.929 . S
H2543 C2552 0.929 . S
C2544 H2538 0.930 . S
C2544 C2545 1.367 . S
C2544 C2552 1.378 . S
C2545 C2544 1.367 . S
C2545 C2553 1.433 . S
C2546 H2542 0.929 . S
C2546 C2548 1.378 . S
C2546 C2550 1.350 . S
C2547 C2550 1.463 . S
C2547 C2552 1.350 . S
C2547 N2555 1.427 . S
C2548 H2539 0.930 . S
C2548 C2546 1.378 . S
C2548 C2549 1.367 . S
C2549 C2548 1.367 . S
C2549 C2551 1.433 . S
C2550 C2546 1.350 . S
C2550 C2547 1.463 . S
C2550 N2554 1.427 . S
C2551 H2541 0.929 . S
C2551 C2549 1.433 . S
C2551 N2554 1.384 . S
C2552 H2543 0.929 . S
C2552 C2544 1.378 . S
C2552 C2547 1.350 . S
C2553 H2540 0.929 . S
C2553 C2545 1.433 . S
C2553 N2555 1.384 . S
N2554 C2550 1.427 . S
N2554 C2551 1.384 . S
N2555 C2547 1.427 . S
N2555 C2553 1.384 . S
H2556 C2562 0.930 . S
H2557 C2566 0.930 . S
H2558 C2571 0.929 . S
H2559 C2569 0.929 . S
H2560 C2564 0.929 . S
H2561 C2570 0.929 . S
C2562 H2556 0.930 . S
C2562 C2563 1.367 1_554 S
C2562 C2570 1.378 . S
C2563 C2562 1.367 1_556 S
C2563 C2571 1.433 . S
C2564 H2560 0.929 . S
C2564 C2566 1.378 . S
C2564 C2568 1.350 . S
C2565 C2568 1.463 . S
C2565 C2570 1.350 1_556 S
C2565 N2573 1.427 . S
C2566 H2557 0.930 . S
C2566 C2564 1.378 . S
C2566 C2567 1.367 1_556 S
C2567 C2566 1.367 1_554 S
C2567 C2569 1.433 . S
C2568 C2564 1.350 . S
C2568 C2565 1.463 . S
C2568 N2572 1.427 1_556 S
C2569 H2559 0.929 . S
C2569 C2567 1.433 . S
C2569 N2572 1.384 . S
C2570 H2561 0.929 . S
C2570 C2562 1.378 . S
C2570 C2565 1.350 1_554 S
C2571 H2558 0.929 . S
C2571 C2563 1.433 . S
C2571 N2573 1.384 . S
N2572 C2568 1.427 1_554 S
N2572 C2569 1.384 . S
N2573 C2565 1.427 . S
N2573 C2571 1.384 . S
H2574 C2580 0.930 . S
H2575 C2584 0.930 . S
H2576 C2589 0.929 . S
H2577 C2587 0.929 . S
H2578 C2582 0.929 . S
H2579 C2588 0.929 1_655 S
C2580 H2574 0.930 . S
C2580 C2581 1.367 . S
C2580 C2588 1.378 . S
C2581 C2580 1.367 . S
C2581 C2589 1.433 . S
C2582 H2578 0.929 . S
C2582 C2584 1.378 . S
C2582 C2586 1.350 . S
C2583 C2586 1.463 . S
C2583 C2588 1.350 1_655 S
C2583 N2591 1.427 1_655 S
C2584 H2575 0.930 . S
C2584 C2582 1.378 . S
C2584 C2585 1.367 . S
C2585 C2584 1.367 . S
C2585 C2587 1.433 . S
C2586 C2582 1.350 . S
C2586 C2583 1.463 . S
C2586 N2590 1.427 . S
C2587 H2577 0.929 . S
C2587 C2585 1.433 . S
C2587 N2590 1.384 . S
C2588 H2579 0.929 1_455 S
C2588 C2580 1.378 . S
C2588 C2583 1.350 1_455 S
C2589 H2576 0.929 . S
C2589 C2581 1.433 . S
C2589 N2591 1.384 . S
N2590 C2586 1.427 . S
N2590 C2587 1.384 . S
N2591 C2583 1.427 1_455 S
N2591 C2589 1.384 . S
H2592 C2598 0.930 . S
H2593 C2602 0.930 . S
H2594 C2607 0.929 . S
H2595 C2605 0.929 . S
H2596 C2600 0.929 . S
H2597 C2606 0.929 . S
C2598 H2592 0.930 . S
C2598 C2599 1.367 . S
C2598 C2606 1.378 . S
C2599 C2598 1.367 . S
C2599 C2607 1.433 . S
C2600 H2596 0.929 . S
C2600 C2602 1.378 . S
C2600 C2604 1.350 . S
C2601 C2604 1.463 . S
C2601 C2606 1.350 . S
C2601 N2609 1.427 . S
C2602 H2593 0.930 . S
C2602 C2600 1.378 . S
C2602 C2603 1.367 . S
C2603 C2602 1.367 . S
C2603 C2605 1.433 . S
C2604 C2600 1.350 . S
C2604 C2601 1.463 . S
C2604 N2608 1.427 . S
C2605 H2595 0.929 . S
C2605 C2603 1.433 . S
C2605 N2608 1.384 . S
C2606 H2597 0.929 . S
C2606 C2598 1.378 . S
C2606 C2601 1.350 . S
C2607 H2594 0.929 . S
C2607 C2599 1.433 . S
C2607 N2609 1.384 . S
N2608 C2604 1.427 . S
N2608 C2605 1.384 . S
N2609 C2601 1.427 . S
N2609 C2607 1.384 . S
H2610 C2616 0.930 . S
H2611 C2620 0.930 . S
H2612 C2625 0.929 . S
H2613 C2623 0.929 . S
H2614 C2618 0.929 . S
H2615 C2624 0.929 . S
C2616 H2610 0.930 . S
C2616 C2617 1.367 . S
C2616 C2624 1.378 . S
C2617 C2616 1.367 . S
C2617 C2625 1.433 . S
C2618 H2614 0.929 . S
C2618 C2620 1.378 . S
C2618 C2622 1.350 . S
C2619 C2622 1.463 1_455 S
C2619 C2624 1.350 . S
C2619 N2627 1.427 . S
C2620 H2611 0.930 . S
C2620 C2618 1.378 . S
C2620 C2621 1.367 . S
C2621 C2620 1.367 . S
C2621 C2623 1.433 . S
C2622 C2618 1.350 . S
C2622 C2619 1.463 1_655 S
C2622 N2626 1.427 . S
C2623 H2613 0.929 . S
C2623 C2621 1.433 . S
C2623 N2626 1.384 . S
C2624 H2615 0.929 . S
C2624 C2616 1.378 . S
C2624 C2619 1.350 . S
C2625 H2612 0.929 . S
C2625 C2617 1.433 . S
C2625 N2627 1.384 . S
N2626 C2622 1.427 . S
N2626 C2623 1.384 . S
N2627 C2619 1.427 . S
N2627 C2625 1.384 . S
H2628 C2634 0.930 . S
H2629 C2638 0.930 . S
H2630 C2643 0.929 . S
H2631 C2641 0.929 . S
H2632 C2636 0.929 . S
H2633 C2642 0.931 1_655 S
C2634 H2628 0.930 . S
C2634 C2635 1.367 . S
C2634 C2642 1.353 1_655 S
C2635 C2634 1.367 . S
C2635 C2643 1.433 1_655 S
C2636 H2632 0.929 . S
C2636 C2638 1.378 . S
C2636 C2640 1.350 . S
C2637 C2640 1.463 . S
C2637 C2642 1.375 . S
C2637 N2645 1.427 . S
C2638 H2629 0.930 . S
C2638 C2636 1.378 . S
C2638 C2639 1.367 . S
C2639 C2638 1.367 . S
C2639 C2641 1.433 . S
C2640 C2636 1.350 . S
C2640 C2637 1.463 . S
C2640 N2644 1.427 . S
C2641 H2631 0.929 . S
C2641 C2639 1.433 . S
C2641 N2644 1.384 . S
C2642 H2633 0.931 1_455 S
C2642 C2634 1.353 1_455 S
C2642 C2637 1.375 . S
C2643 H2630 0.929 . S
C2643 C2635 1.433 1_455 S
C2643 N2645 1.384 . S
N2644 C2640 1.427 . S
N2644 C2641 1.384 . S
N2645 C2637 1.427 . S
N2645 C2643 1.384 . S
H2646 C2652 0.930 . S
H2647 C2656 0.930 . S
H2648 C2661 0.929 . S
H2649 C2659 0.929 . S
H2650 C2654 0.929 . S
H2651 C2660 0.929 . S
C2652 H2646 0.930 . S
C2652 C2653 1.367 . S
C2652 C2660 1.378 . S
C2653 C2652 1.367 . S
C2653 C2661 1.433 . S
C2654 H2650 0.929 . S
C2654 C2656 1.378 . S
C2654 C2658 1.350 . S
C2655 C2658 1.463 . S
C2655 C2660 1.350 . S
C2655 N2663 1.427 . S
C2656 H2647 0.930 . S
C2656 C2654 1.378 . S
C2656 C2657 1.367 . S
C2657 C2656 1.367 . S
C2657 C2659 1.433 . S
C2658 C2654 1.350 . S
C2658 C2655 1.463 . S
C2658 N2662 1.427 . S
C2659 H2649 0.929 . S
C2659 C2657 1.433 . S
C2659 N2662 1.384 . S
C2660 H2651 0.929 . S
C2660 C2652 1.378 . S
C2660 C2655 1.350 . S
C2661 H2648 0.929 . S
C2661 C2653 1.433 . S
C2661 N2663 1.384 . S
N2662 C2658 1.427 . S
N2662 C2659 1.384 . S
N2663 C2655 1.427 . S
N2663 C2661 1.384 . S
H2664 C2670 0.930 . S
H2665 C2674 0.930 . S
H2666 C2679 0.929 . S
H2667 C2677 0.929 . S
H2668 C2672 0.929 . S
H2669 C2678 0.929 . S
C2670 H2664 0.930 . S
C2670 C2671 1.367 . S
C2670 C2678 1.378 . S
C2671 C2670 1.367 . S
C2671 C2679 1.433 . S
C2672 H2668 0.929 . S
C2672 C2674 1.378 . S
C2672 C2676 1.350 . S
C2673 C2676 1.463 . S
C2673 C2678 1.350 . S
C2673 N2681 1.427 . S
C2674 H2665 0.930 . S
C2674 C2672 1.378 . S
C2674 C2675 1.367 . S
C2675 C2674 1.367 . S
C2675 C2677 1.433 . S
C2676 C2672 1.350 . S
C2676 C2673 1.463 . S
C2676 N2680 1.427 . S
C2677 H2667 0.929 . S
C2677 C2675 1.433 . S
C2677 N2680 1.384 . S
C2678 H2669 0.929 . S
C2678 C2670 1.378 . S
C2678 C2673 1.350 . S
C2679 H2666 0.929 . S
C2679 C2671 1.433 . S
C2679 N2681 1.384 . S
N2680 C2676 1.427 . S
N2680 C2677 1.384 . S
N2681 C2673 1.427 . S
N2681 C2679 1.384 . S
H2682 C2688 0.930 . S
H2683 C2692 0.930 . S
H2684 C2697 0.929 1_554 S
H2685 C2695 0.929 . S
H2686 C2690 0.929 . S
H2687 C2696 0.929 . S
C2688 H2682 0.930 . S
C2688 C2689 1.367 . S
C2688 C2696 1.378 . S
C2689 C2688 1.367 . S
C2689 C2697 1.433 . S
C2690 H2686 0.929 . S
C2690 C2692 1.378 . S
C2690 C2694 1.350 . S
C2691 C2694 1.463 . S
C2691 C2696 1.350 . S
C2691 N2699 1.427 . S
C2692 H2683 0.930 . S
C2692 C2690 1.378 . S
C2692 C2693 1.367 . S
C2693 C2692 1.367 . S
C2693 C2695 1.433 . S
C2694 C2690 1.350 . S
C2694 C2691 1.463 . S
C2694 N2698 1.427 . S
C2695 H2685 0.929 . S
C2695 C2693 1.433 . S
C2695 N2698 1.384 . S
C2696 H2687 0.929 . S
C2696 C2688 1.378 . S
C2696 C2691 1.350 . S
C2697 H2684 0.929 1_556 S
C2697 C2689 1.433 . S
C2697 N2699 1.384 . S
N2698 C2694 1.427 . S
N2698 C2695 1.384 . S
N2699 C2691 1.427 . S
N2699 C2697 1.384 . S
H2700 C2706 0.930 . S
H2701 C2710 0.930 . S
H2702 C2715 0.929 . S
H2703 C2713 0.929 . S
H2704 C2708 0.929 . S
H2705 C2714 0.929 . S
C2706 H2700 0.930 . S
C2706 C2707 1.367 . S
C2706 C2714 1.378 . S
C2707 C2706 1.367 . S
C2707 C2715 1.433 . S
C2708 H2704 0.929 . S
C2708 C2710 1.378 . S
C2708 C2712 1.350 . S
C2709 C2712 1.463 . S
C2709 C2714 1.350 . S
C2709 N2717 1.427 . S
C2710 H2701 0.930 . S
C2710 C2708 1.378 . S
C2710 C2711 1.367 . S
C2711 C2710 1.367 . S
C2711 C2713 1.433 . S
C2712 C2708 1.350 . S
C2712 C2709 1.463 . S
C2712 N2716 1.427 . S
C2713 H2703 0.929 . S
C2713 C2711 1.433 . S
C2713 N2716 1.384 . S
C2714 H2705 0.929 . S
C2714 C2706 1.378 . S
C2714 C2709 1.350 . S
C2715 H2702 0.929 . S
C2715 C2707 1.433 . S
C2715 N2717 1.384 . S
N2716 C2712 1.427 . S
N2716 C2713 1.384 . S
N2717 C2709 1.427 . S
N2717 C2715 1.384 . S
H2718 C2724 0.930 . S
H2719 C2728 0.930 . S
H2720 C2733 0.929 . S
H2721 C2731 0.929 . S
H2722 C2726 0.929 . S
H2723 C2732 0.929 . S
C2724 H2718 0.930 . S
C2724 C2725 1.367 . S
C2724 C2732 1.378 . S
C2725 C2724 1.367 . S
C2725 C2733 1.433 . S
C2726 H2722 0.929 . S
C2726 C2728 1.378 . S
C2726 C2730 1.350 . S
C2727 C2730 1.463 . S
C2727 C2732 1.350 . S
C2727 N2735 1.427 . S
C2728 H2719 0.930 . S
C2728 C2726 1.378 . S
C2728 C2729 1.367 . S
C2729 C2728 1.367 . S
C2729 C2731 1.433 . S
C2730 C2726 1.350 . S
C2730 C2727 1.463 . S
C2730 N2734 1.427 . S
C2731 H2721 0.929 . S
C2731 C2729 1.433 . S
C2731 N2734 1.384 . S
C2732 H2723 0.929 . S
C2732 C2724 1.378 . S
C2732 C2727 1.350 . S
C2733 H2720 0.929 . S
C2733 C2725 1.433 . S
C2733 N2735 1.384 . S
N2734 C2730 1.427 . S
N2734 C2731 1.384 . S
N2735 C2727 1.427 . S
N2735 C2733 1.384 . S
H2736 C2742 0.930 . S
H2737 C2746 0.930 . S
H2738 C2751 0.929 . S
H2739 C2749 0.929 . S
H2740 C2744 0.929 . S
H2741 C2750 0.929 . S
C2742 H2736 0.930 . S
C2742 C2743 1.367 . S
C2742 C2750 1.378 . S
C2743 C2742 1.367 . S
C2743 C2751 1.433 . S
C2744 H2740 0.929 . S
C2744 C2746 1.378 . S
C2744 C2748 1.350 . S
C2745 C2748 1.463 . S
C2745 C2750 1.350 . S
C2745 N2753 1.427 . S
C2746 H2737 0.930 . S
C2746 C2744 1.378 . S
C2746 C2747 1.367 . S
C2747 C2746 1.367 . S
C2747 C2749 1.433 . S
C2748 C2744 1.350 . S
C2748 C2745 1.463 . S
C2748 N2752 1.427 . S
C2749 H2739 0.929 . S
C2749 C2747 1.433 . S
C2749 N2752 1.384 . S
C2750 H2741 0.929 . S
C2750 C2742 1.378 . S
C2750 C2745 1.350 . S
C2751 H2738 0.929 . S
C2751 C2743 1.433 . S
C2751 N2753 1.384 . S
N2752 C2748 1.427 . S
N2752 C2749 1.384 . S
N2753 C2745 1.427 . S
N2753 C2751 1.384 . S
H2754 C2760 0.930 . S
H2755 C2764 0.930 . S
H2756 C2769 0.929 . S
H2757 C2767 0.929 . S
H2758 C2762 0.929 . S
H2759 C2768 0.929 . S
C2760 H2754 0.930 . S
C2760 C2761 1.367 . S
C2760 C2768 1.378 . S
C2761 C2760 1.367 . S
C2761 C2769 1.433 . S
C2762 H2758 0.929 . S
C2762 C2764 1.378 . S
C2762 C2766 1.350 . S
C2763 C2766 1.463 . S
C2763 C2768 1.350 . S
C2763 N2771 1.427 . S
C2764 H2755 0.930 . S
C2764 C2762 1.378 . S
C2764 C2765 1.367 . S
C2765 C2764 1.367 . S
C2765 C2767 1.433 . S
C2766 C2762 1.350 . S
C2766 C2763 1.463 . S
C2766 N2770 1.427 . S
C2767 H2757 0.929 . S
C2767 C2765 1.433 . S
C2767 N2770 1.384 . S
C2768 H2759 0.929 . S
C2768 C2760 1.378 . S
C2768 C2763 1.350 . S
C2769 H2756 0.929 . S
C2769 C2761 1.433 . S
C2769 N2771 1.384 . S
N2770 C2766 1.427 . S
N2770 C2767 1.384 . S
N2771 C2763 1.427 . S
N2771 C2769 1.384 . S
H2772 C2778 0.930 . S
H2773 C2782 0.930 . S
H2774 C2787 0.929 . S
H2775 C2785 0.929 . S
H2776 C2780 0.929 . S
H2777 C2786 0.929 . S
C2778 H2772 0.930 . S
C2778 C2779 1.367 . S
C2778 C2786 1.378 . S
C2779 C2778 1.367 . S
C2779 C2787 1.433 . S
C2780 H2776 0.929 . S
C2780 C2782 1.378 . S
C2780 C2784 1.350 . S
C2781 C2784 1.463 . S
C2781 C2786 1.350 . S
C2781 N2789 1.427 . S
C2782 H2773 0.930 . S
C2782 C2780 1.378 . S
C2782 C2783 1.367 . S
C2783 C2782 1.367 . S
C2783 C2785 1.433 . S
C2784 C2780 1.350 . S
C2784 C2781 1.463 . S
C2784 N2788 1.427 . S
C2785 H2775 0.929 . S
C2785 C2783 1.433 . S
C2785 N2788 1.384 . S
C2786 H2777 0.929 . S
C2786 C2778 1.378 . S
C2786 C2781 1.350 . S
C2787 H2774 0.929 . S
C2787 C2779 1.433 . S
C2787 N2789 1.384 . S
N2788 C2784 1.427 . S
N2788 C2785 1.384 . S
N2789 C2781 1.427 . S
N2789 C2787 1.384 . S
H2790 C2796 0.930 . S
H2791 C2800 0.930 . S
H2792 C2805 0.929 . S
H2793 C2803 0.929 . S
H2794 C2798 0.929 . S
H2795 C2804 0.929 . S
C2796 H2790 0.930 . S
C2796 C2797 1.367 . S
C2796 C2804 1.378 . S
C2797 C2796 1.367 . S
C2797 C2805 1.433 . S
C2798 H2794 0.929 . S
C2798 C2800 1.378 . S
C2798 C2802 1.350 . S
C2799 C2802 1.463 . S
C2799 C2804 1.350 . S
C2799 N2807 1.427 . S
C2800 H2791 0.930 . S
C2800 C2798 1.378 . S
C2800 C2801 1.367 . S
C2801 C2800 1.367 . S
C2801 C2803 1.433 . S
C2802 C2798 1.350 . S
C2802 C2799 1.463 . S
C2802 N2806 1.427 . S
C2803 H2793 0.929 . S
C2803 C2801 1.433 . S
C2803 N2806 1.384 . S
C2804 H2795 0.929 . S
C2804 C2796 1.378 . S
C2804 C2799 1.350 . S
C2805 H2792 0.929 . S
C2805 C2797 1.433 . S
C2805 N2807 1.384 . S
N2806 C2802 1.427 . S
N2806 C2803 1.384 . S
N2807 C2799 1.427 . S
N2807 C2805 1.384 . S
H2808 C2814 0.930 . S
H2809 C2818 0.930 . S
H2810 C2823 0.929 . S
H2811 C2821 0.929 . S
H2812 C2816 0.929 . S
H2813 C2822 0.929 . S
C2814 H2808 0.930 . S
C2814 C2815 1.367 . S
C2814 C2822 1.378 . S
C2815 C2814 1.367 . S
C2815 C2823 1.433 . S
C2816 H2812 0.929 . S
C2816 C2818 1.378 . S
C2816 C2820 1.350 . S
C2817 C2820 1.463 . S
C2817 C2822 1.350 . S
C2817 N2825 1.427 . S
C2818 H2809 0.930 . S
C2818 C2816 1.378 . S
C2818 C2819 1.367 . S
C2819 C2818 1.367 . S
C2819 C2821 1.433 . S
C2820 C2816 1.350 . S
C2820 C2817 1.463 . S
C2820 N2824 1.427 . S
C2821 H2811 0.929 . S
C2821 C2819 1.433 . S
C2821 N2824 1.384 . S
C2822 H2813 0.929 . S
C2822 C2814 1.378 . S
C2822 C2817 1.350 . S
C2823 H2810 0.929 . S
C2823 C2815 1.433 . S
C2823 N2825 1.384 . S
N2824 C2820 1.427 . S
N2824 C2821 1.384 . S
N2825 C2817 1.427 . S
N2825 C2823 1.384 . S
H2826 C2832 0.930 . S
H2827 C2836 0.930 . S
H2828 C2841 0.929 . S
H2829 C2839 0.929 . S
H2830 C2834 0.929 . S
H2831 C2840 0.929 . S
C2832 H2826 0.930 . S
C2832 C2833 1.367 . S
C2832 C2840 1.378 . S
C2833 C2832 1.367 . S
C2833 C2841 1.433 . S
C2834 H2830 0.929 . S
C2834 C2836 1.378 . S
C2834 C2838 1.350 . S
C2835 C2838 1.463 . S
C2835 C2840 1.350 . S
C2835 N2843 1.427 . S
C2836 H2827 0.930 . S
C2836 C2834 1.378 . S
C2836 C2837 1.367 . S
C2837 C2836 1.367 . S
C2837 C2839 1.433 . S
C2838 C2834 1.350 . S
C2838 C2835 1.463 . S
C2838 N2842 1.427 . S
C2839 H2829 0.929 . S
C2839 C2837 1.433 . S
C2839 N2842 1.384 . S
C2840 H2831 0.929 . S
C2840 C2832 1.378 . S
C2840 C2835 1.350 . S
C2841 H2828 0.929 . S
C2841 C2833 1.433 . S
C2841 N2843 1.384 . S
N2842 C2838 1.427 . S
N2842 C2839 1.384 . S
N2843 C2835 1.427 . S
N2843 C2841 1.384 . S
H2844 C2850 0.930 . S
H2845 C2854 0.930 . S
H2846 C2859 0.929 . S
H2847 C2857 0.929 . S
H2848 C2852 0.929 . S
H2849 C2858 0.929 . S
C2850 H2844 0.930 . S
C2850 C2851 1.367 . S
C2850 C2858 1.378 . S
C2851 C2850 1.367 . S
C2851 C2859 1.433 . S
C2852 H2848 0.929 . S
C2852 C2854 1.378 . S
C2852 C2856 1.350 . S
C2853 C2856 1.463 . S
C2853 C2858 1.350 . S
C2853 N2861 1.427 . S
C2854 H2845 0.930 . S
C2854 C2852 1.378 . S
C2854 C2855 1.367 . S
C2855 C2854 1.367 . S
C2855 C2857 1.433 . S
C2856 C2852 1.350 . S
C2856 C2853 1.463 . S
C2856 N2860 1.427 . S
C2857 H2847 0.929 . S
C2857 C2855 1.433 . S
C2857 N2860 1.384 . S
C2858 H2849 0.929 . S
C2858 C2850 1.378 . S
C2858 C2853 1.350 . S
C2859 H2846 0.929 . S
C2859 C2851 1.433 . S
C2859 N2861 1.384 . S
N2860 C2856 1.427 . S
N2860 C2857 1.384 . S
N2861 C2853 1.427 . S
N2861 C2859 1.384 . S
H2862 C2868 0.930 . S
H2863 C2872 0.930 . S
H2864 C2877 0.929 . S
H2865 C2875 0.964 . S
H2866 C2870 0.929 . S
H2867 C2876 0.969 . S
C2868 H2862 0.930 . S
C2868 C2869 1.367 1_556 S
C2868 C2876 1.373 . S
C2869 C2868 1.367 1_554 S
C2869 C2877 1.433 . S
C2870 H2866 0.929 . S
C2870 C2872 1.378 1_565 S
C2870 C2874 1.350 . S
C2871 C2874 1.463 . S
C2871 C2876 1.315 1_554 S
C2871 N2879 1.427 . S
C2872 H2863 0.930 . S
C2872 C2870 1.378 1_545 S
C2872 C2873 1.367 . S
C2873 C2872 1.367 . S
C2873 C2875 1.403 1_554 S
C2874 C2870 1.350 . S
C2874 C2871 1.463 . S
C2874 N2878 1.398 1_564 S
C2875 H2865 0.964 . S
C2875 C2873 1.403 1_556 S
C2875 N2878 1.383 . S
C2876 H2867 0.969 . S
C2876 C2868 1.373 . S
C2876 C2871 1.315 1_556 S
C2877 H2864 0.929 . S
C2877 C2869 1.433 . S
C2877 N2879 1.384 . S
N2878 C2874 1.398 1_546 S
N2878 C2875 1.383 . S
N2879 C2871 1.427 . S
N2879 C2877 1.384 . S
H2880 C2886 0.930 . S
H2881 C2890 0.930 . S
H2882 C2895 0.929 . S
H2883 C2893 0.929 . S
H2884 C2888 0.929 . S
H2885 C2894 0.929 . S
C2886 H2880 0.930 . S
C2886 C2887 1.367 . S
C2886 C2894 1.378 . S
C2887 C2886 1.367 . S
C2887 C2895 1.433 . S
C2888 H2884 0.929 . S
C2888 C2890 1.378 . S
C2888 C2892 1.350 . S
C2889 C2892 1.463 . S
C2889 C2894 1.350 . S
C2889 N2897 1.427 . S
C2890 H2881 0.930 . S
C2890 C2888 1.378 . S
C2890 C2891 1.367 . S
C2891 C2890 1.367 . S
C2891 C2893 1.433 . S
C2892 C2888 1.350 . S
C2892 C2889 1.463 . S
C2892 N2896 1.427 . S
C2893 H2883 0.929 . S
C2893 C2891 1.433 . S
C2893 N2896 1.384 . S
C2894 H2885 0.929 . S
C2894 C2886 1.378 . S
C2894 C2889 1.350 . S
C2895 H2882 0.929 . S
C2895 C2887 1.433 . S
C2895 N2897 1.384 . S
N2896 C2892 1.427 . S
N2896 C2893 1.384 . S
N2897 C2889 1.427 . S
N2897 C2895 1.384 . S
H2898 C2904 0.930 . S
H2899 C2908 0.930 . S
H2900 C2913 0.929 . S
H2901 C2911 0.929 . S
H2902 C2906 0.929 . S
H2903 C2912 0.929 . S
C2904 H2898 0.930 . S
C2904 C2905 1.367 . S
C2904 C2912 1.378 . S
C2905 C2904 1.367 . S
C2905 C2913 1.433 1_556 S
C2906 H2902 0.929 . S
C2906 C2908 1.378 . S
C2906 C2910 1.350 . S
C2907 C2910 1.463 . S
C2907 C2912 1.350 1_554 S
C2907 N2915 1.427 . S
C2908 H2899 0.930 . S
C2908 C2906 1.378 . S
C2908 C2909 1.367 . S
C2909 C2908 1.367 . S
C2909 C2911 1.433 . S
C2910 C2906 1.350 . S
C2910 C2907 1.463 . S
C2910 N2914 1.427 . S
C2911 H2901 0.929 . S
C2911 C2909 1.433 . S
C2911 N2914 1.384 . S
C2912 H2903 0.929 . S
C2912 C2904 1.378 . S
C2912 C2907 1.350 1_556 S
C2913 H2900 0.929 . S
C2913 C2905 1.433 1_554 S
C2913 N2915 1.384 . S
N2914 C2910 1.427 . S
N2914 C2911 1.384 . S
N2915 C2907 1.427 . S
N2915 C2913 1.384 . S
H2916 C2922 0.930 . S
H2917 C2926 0.930 . S
H2918 C2931 0.929 . S
H2919 C2929 0.929 . S
H2920 C2924 0.929 . S
H2921 C2930 0.929 . S
C2922 H2916 0.930 . S
C2922 C2923 1.367 . S
C2922 C2930 1.378 . S
C2923 C2922 1.367 . S
C2923 C2931 1.433 . S
C2924 H2920 0.929 . S
C2924 C2926 1.378 . S
C2924 C2928 1.350 . S
C2925 C2928 1.463 . S
C2925 C2930 1.350 . S
C2925 N2933 1.427 . S
C2926 H2917 0.930 . S
C2926 C2924 1.378 . S
C2926 C2927 1.367 . S
C2927 C2926 1.367 . S
C2927 C2929 1.433 . S
C2928 C2924 1.350 . S
C2928 C2925 1.463 . S
C2928 N2932 1.427 . S
C2929 H2919 0.929 . S
C2929 C2927 1.433 . S
C2929 N2932 1.384 . S
C2930 H2921 0.929 . S
C2930 C2922 1.378 . S
C2930 C2925 1.350 . S
C2931 H2918 0.929 . S
C2931 C2923 1.433 . S
C2931 N2933 1.384 . S
N2932 C2928 1.427 . S
N2932 C2929 1.384 . S
N2933 C2925 1.427 . S
N2933 C2931 1.384 . S
H2934 C2940 0.930 . S
H2935 C2944 0.930 . S
H2936 C2949 0.929 . S
H2937 C2947 0.929 . S
H2938 C2942 0.929 . S
H2939 C2948 0.929 . S
C2940 H2934 0.930 . S
C2940 C2941 1.367 . S
C2940 C2948 1.378 . S
C2941 C2940 1.367 . S
C2941 C2949 1.433 . S
C2942 H2938 0.929 . S
C2942 C2944 1.378 . S
C2942 C2946 1.350 . S
C2943 C2946 1.463 . S
C2943 C2948 1.350 . S
C2943 N2951 1.427 . S
C2944 H2935 0.930 . S
C2944 C2942 1.378 . S
C2944 C2945 1.367 . S
C2945 C2944 1.367 . S
C2945 C2947 1.433 . S
C2946 C2942 1.350 . S
C2946 C2943 1.463 . S
C2946 N2950 1.427 . S
C2947 H2937 0.929 . S
C2947 C2945 1.433 . S
C2947 N2950 1.384 . S
C2948 H2939 0.929 . S
C2948 C2940 1.378 . S
C2948 C2943 1.350 . S
C2949 H2936 0.929 . S
C2949 C2941 1.433 . S
C2949 N2951 1.384 . S
N2950 C2946 1.427 . S
N2950 C2947 1.384 . S
N2951 C2943 1.427 . S
N2951 C2949 1.384 . S
H2952 C2958 0.930 . S
H2953 C2962 0.930 . S
H2954 C2967 0.929 . S
H2955 C2965 0.929 . S
H2956 C2960 0.929 . S
H2957 C2966 0.929 . S
C2958 H2952 0.930 . S
C2958 C2959 1.367 . S
C2958 C2966 1.378 . S
C2959 C2958 1.367 . S
C2959 C2967 1.433 . S
C2960 H2956 0.929 . S
C2960 C2962 1.378 . S
C2960 C2964 1.350 . S
C2961 C2964 1.463 . S
C2961 C2966 1.350 . S
C2961 N2969 1.427 . S
C2962 H2953 0.930 . S
C2962 C2960 1.378 . S
C2962 C2963 1.367 . S
C2963 C2962 1.367 . S
C2963 C2965 1.433 . S
C2964 C2960 1.350 . S
C2964 C2961 1.463 . S
C2964 N2968 1.427 . S
C2965 H2955 0.929 . S
C2965 C2963 1.433 . S
C2965 N2968 1.384 . S
C2966 H2957 0.929 . S
C2966 C2958 1.378 . S
C2966 C2961 1.350 . S
C2967 H2954 0.929 . S
C2967 C2959 1.433 . S
C2967 N2969 1.384 . S
N2968 C2964 1.427 . S
N2968 C2965 1.384 . S
N2969 C2961 1.427 . S
N2969 C2967 1.384 . S
H2970 C2976 0.930 . S
H2971 C2980 0.930 . S
H2972 C2985 0.929 . S
H2973 C2983 0.929 . S
H2974 C2978 0.929 . S
H2975 C2984 0.929 . S
C2976 H2970 0.930 . S
C2976 C2977 1.367 . S
C2976 C2984 1.378 . S
C2977 C2976 1.367 . S
C2977 C2985 1.433 . S
C2978 H2974 0.929 . S
C2978 C2980 1.378 . S
C2978 C2982 1.350 . S
C2979 C2982 1.463 . S
C2979 C2984 1.350 . S
C2979 N2987 1.427 . S
C2980 H2971 0.930 . S
C2980 C2978 1.378 . S
C2980 C2981 1.367 . S
C2981 C2980 1.367 . S
C2981 C2983 1.433 . S
C2982 C2978 1.350 . S
C2982 C2979 1.463 . S
C2982 N2986 1.427 . S
C2983 H2973 0.929 . S
C2983 C2981 1.433 . S
C2983 N2986 1.384 . S
C2984 H2975 0.929 . S
C2984 C2976 1.378 . S
C2984 C2979 1.350 . S
C2985 H2972 0.929 . S
C2985 C2977 1.433 . S
C2985 N2987 1.384 . S
N2986 C2982 1.427 . S
N2986 C2983 1.384 . S
N2987 C2979 1.427 . S
N2987 C2985 1.384 . S
H2988 C2994 0.930 . S
H2989 C2998 0.930 . S
H2990 C3003 0.929 . S
H2991 C3001 0.929 . S
H2992 C2996 0.929 . S
H2993 C3002 0.929 . S
C2994 H2988 0.930 . S
C2994 C2995 1.367 . S
C2994 C3002 1.378 . S
C2995 C2994 1.367 . S
C2995 C3003 1.433 . S
C2996 H2992 0.929 . S
C2996 C2998 1.378 . S
C2996 C3000 1.350 . S
C2997 C3000 1.463 . S
C2997 C3002 1.350 . S
C2997 N3005 1.427 . S
C2998 H2989 0.930 . S
C2998 C2996 1.378 . S
C2998 C2999 1.367 . S
C2999 C2998 1.367 . S
C2999 C3001 1.433 . S
C3000 C2996 1.350 . S
C3000 C2997 1.463 . S
C3000 N3004 1.427 . S
C3001 H2991 0.929 . S
C3001 C2999 1.433 . S
C3001 N3004 1.384 . S
C3002 H2993 0.929 . S
C3002 C2994 1.378 . S
C3002 C2997 1.350 . S
C3003 H2990 0.929 . S
C3003 C2995 1.433 . S
C3003 N3005 1.384 . S
N3004 C3000 1.427 . S
N3004 C3001 1.384 . S
N3005 C2997 1.427 . S
N3005 C3003 1.384 . S
H3006 C3012 0.930 . S
H3007 C3016 0.930 . S
H3008 C3021 0.929 . S
H3009 C3019 0.929 . S
H3010 C3014 0.929 . S
H3011 C3020 0.929 . S
C3012 H3006 0.930 . S
C3012 C3013 1.367 . S
C3012 C3020 1.378 . S
C3013 C3012 1.367 . S
C3013 C3021 1.433 . S
C3014 H3010 0.929 . S
C3014 C3016 1.378 . S
C3014 C3018 1.350 . S
C3015 C3018 1.463 . S
C3015 C3020 1.350 . S
C3015 N3023 1.427 . S
C3016 H3007 0.930 . S
C3016 C3014 1.378 . S
C3016 C3017 1.367 . S
C3017 C3016 1.367 . S
C3017 C3019 1.433 . S
C3018 C3014 1.350 . S
C3018 C3015 1.463 . S
C3018 N3022 1.427 . S
C3019 H3009 0.929 . S
C3019 C3017 1.433 . S
C3019 N3022 1.384 . S
C3020 H3011 0.929 . S
C3020 C3012 1.378 . S
C3020 C3015 1.350 . S
C3021 H3008 0.929 . S
C3021 C3013 1.433 . S
C3021 N3023 1.384 . S
N3022 C3018 1.427 . S
N3022 C3019 1.384 . S
N3023 C3015 1.427 . S
N3023 C3021 1.384 . S
H3024 C3030 0.930 . S
H3025 C3034 0.930 . S
H3026 C3039 0.929 . S
H3027 C3037 0.929 . S
H3028 C3032 0.929 . S
H3029 C3038 0.929 . S
C3030 H3024 0.930 . S
C3030 C3031 1.367 . S
C3030 C3038 1.378 . S
C3031 C3030 1.367 . S
C3031 C3039 1.433 . S
C3032 H3028 0.929 . S
C3032 C3034 1.378 . S
C3032 C3036 1.350 . S
C3033 C3036 1.463 . S
C3033 C3038 1.350 . S
C3033 N3041 1.427 . S
C3034 H3025 0.930 . S
C3034 C3032 1.378 . S
C3034 C3035 1.367 . S
C3035 C3034 1.367 . S
C3035 C3037 1.433 . S
C3036 C3032 1.350 . S
C3036 C3033 1.463 . S
C3036 N3040 1.427 . S
C3037 H3027 0.929 . S
C3037 C3035 1.433 . S
C3037 N3040 1.384 . S
C3038 H3029 0.929 . S
C3038 C3030 1.378 . S
C3038 C3033 1.350 . S
C3039 H3026 0.929 . S
C3039 C3031 1.433 . S
C3039 N3041 1.384 . S
N3040 C3036 1.427 . S
N3040 C3037 1.384 . S
N3041 C3033 1.427 . S
N3041 C3039 1.384 . S
H3042 C3048 0.930 . S
H3043 C3052 0.930 . S
H3044 C3057 0.929 . S
H3045 C3055 0.929 . S
H3046 C3050 0.929 . S
H3047 C3056 0.929 . S
C3048 H3042 0.930 . S
C3048 C3049 1.367 . S
C3048 C3056 1.378 . S
C3049 C3048 1.367 . S
C3049 C3057 1.433 . S
C3050 H3046 0.929 . S
C3050 C3052 1.378 . S
C3050 C3054 1.350 . S
C3051 C3054 1.463 . S
C3051 C3056 1.350 . S
C3051 N3059 1.427 . S
C3052 H3043 0.930 . S
C3052 C3050 1.378 . S
C3052 C3053 1.367 . S
C3053 C3052 1.367 . S
C3053 C3055 1.433 . S
C3054 C3050 1.350 . S
C3054 C3051 1.463 . S
C3054 N3058 1.427 . S
C3055 H3045 0.929 . S
C3055 C3053 1.433 . S
C3055 N3058 1.384 . S
C3056 H3047 0.929 . S
C3056 C3048 1.378 . S
C3056 C3051 1.350 . S
C3057 H3044 0.929 . S
C3057 C3049 1.433 . S
C3057 N3059 1.384 . S
N3058 C3054 1.427 . S
N3058 C3055 1.384 . S
N3059 C3051 1.427 . S
N3059 C3057 1.384 . S
H3060 C3066 0.930 . S
H3061 C3070 0.930 . S
H3062 C3075 0.929 . S
H3063 C3073 0.929 . S
H3064 C3068 0.929 . S
H3065 C3074 0.929 . S
C3066 H3060 0.930 . S
C3066 C3067 1.367 . S
C3066 C3074 1.378 . S
C3067 C3066 1.367 . S
C3067 C3075 1.433 . S
C3068 H3064 0.929 . S
C3068 C3070 1.378 . S
C3068 C3072 1.350 . S
C3069 C3072 1.463 . S
C3069 C3074 1.350 . S
C3069 N3077 1.427 . S
C3070 H3061 0.930 . S
C3070 C3068 1.378 . S
C3070 C3071 1.367 . S
C3071 C3070 1.367 . S
C3071 C3073 1.433 . S
C3072 C3068 1.350 . S
C3072 C3069 1.463 . S
C3072 N3076 1.427 . S
C3073 H3063 0.929 . S
C3073 C3071 1.433 . S
C3073 N3076 1.384 . S
C3074 H3065 0.929 . S
C3074 C3066 1.378 . S
C3074 C3069 1.350 . S
C3075 H3062 0.929 . S
C3075 C3067 1.433 . S
C3075 N3077 1.384 . S
N3076 C3072 1.427 . S
N3076 C3073 1.384 . S
N3077 C3069 1.427 . S
N3077 C3075 1.384 . S
H3078 C3084 0.930 . S
H3079 C3088 0.930 . S
H3080 C3093 0.929 . S
H3081 C3091 0.929 . S
H3082 C3086 0.929 . S
H3083 C3092 0.929 . S
C3084 H3078 0.930 . S
C3084 C3085 1.367 . S
C3084 C3092 1.378 . S
C3085 C3084 1.367 . S
C3085 C3093 1.433 . S
C3086 H3082 0.929 . S
C3086 C3088 1.378 . S
C3086 C3090 1.350 . S
C3087 C3090 1.463 . S
C3087 C3092 1.350 . S
C3087 N3095 1.427 . S
C3088 H3079 0.930 . S
C3088 C3086 1.378 . S
C3088 C3089 1.367 . S
C3089 C3088 1.367 . S
C3089 C3091 1.433 . S
C3090 C3086 1.350 . S
C3090 C3087 1.463 . S
C3090 N3094 1.427 . S
C3091 H3081 0.929 . S
C3091 C3089 1.433 . S
C3091 N3094 1.384 . S
C3092 H3083 0.929 . S
C3092 C3084 1.378 . S
C3092 C3087 1.350 . S
C3093 H3080 0.929 . S
C3093 C3085 1.433 . S
C3093 N3095 1.384 . S
N3094 C3090 1.427 . S
N3094 C3091 1.384 . S
N3095 C3087 1.427 . S
N3095 C3093 1.384 . S
H3096 C3102 0.930 . S
H3097 C3106 0.930 . S
H3098 C3111 0.929 . S
H3099 C3109 0.929 . S
H3100 C3104 0.929 . S
H3101 C3110 0.929 . S
C3102 H3096 0.930 . S
C3102 C3103 1.367 . S
C3102 C3110 1.378 . S
C3103 C3102 1.367 . S
C3103 C3111 1.433 . S
C3104 H3100 0.929 . S
C3104 C3106 1.378 . S
C3104 C3108 1.350 . S
C3105 C3108 1.463 . S
C3105 C3110 1.350 . S
C3105 N3113 1.427 . S
C3106 H3097 0.930 . S
C3106 C3104 1.378 . S
C3106 C3107 1.367 . S
C3107 C3106 1.367 . S
C3107 C3109 1.433 . S
C3108 C3104 1.350 . S
C3108 C3105 1.463 . S
C3108 N3112 1.427 . S
C3109 H3099 0.929 . S
C3109 C3107 1.433 . S
C3109 N3112 1.384 . S
C3110 H3101 0.929 . S
C3110 C3102 1.378 . S
C3110 C3105 1.350 . S
C3111 H3098 0.929 . S
C3111 C3103 1.433 . S
C3111 N3113 1.384 . S
N3112 C3108 1.427 . S
N3112 C3109 1.384 . S
N3113 C3105 1.427 . S
N3113 C3111 1.384 . S
H3114 C3120 0.930 . S
H3115 C3124 0.930 . S
H3116 C3129 0.929 . S
H3117 C3127 0.929 . S
H3118 C3122 0.929 . S
H3119 C3128 0.929 . S
C3120 H3114 0.930 . S
C3120 C3121 1.367 . S
C3120 C3128 1.378 . S
C3121 C3120 1.367 . S
C3121 C3129 1.433 . S
C3122 H3118 0.929 . S
C3122 C3124 1.378 . S
C3122 C3126 1.350 . S
C3123 C3126 1.463 . S
C3123 C3128 1.350 . S
C3123 N3131 1.427 . S
C3124 H3115 0.930 . S
C3124 C3122 1.378 . S
C3124 C3125 1.367 . S
C3125 C3124 1.367 . S
C3125 C3127 1.433 . S
C3126 C3122 1.350 . S
C3126 C3123 1.463 . S
C3126 N3130 1.427 . S
C3127 H3117 0.929 . S
C3127 C3125 1.433 . S
C3127 N3130 1.384 . S
C3128 H3119 0.929 . S
C3128 C3120 1.378 . S
C3128 C3123 1.350 . S
C3129 H3116 0.929 . S
C3129 C3121 1.433 . S
C3129 N3131 1.384 . S
N3130 C3126 1.427 . S
N3130 C3127 1.384 . S
N3131 C3123 1.427 . S
N3131 C3129 1.384 . S
H3132 C3138 0.930 . S
H3133 C3142 0.930 . S
H3134 C3147 0.929 . S
H3135 C3145 0.929 . S
H3136 C3140 0.929 . S
H3137 C3146 0.929 1_455 S
C3138 H3132 0.930 . S
C3138 C3139 1.367 . S
C3138 C3146 1.378 . S
C3139 C3138 1.367 . S
C3139 C3147 1.433 . S
C3140 H3136 0.929 . S
C3140 C3142 1.378 1_655 S
C3140 C3144 1.350 . S
C3141 C3144 1.463 . S
C3141 C3146 1.350 . S
C3141 N3149 1.427 . S
C3142 H3133 0.930 . S
C3142 C3140 1.378 1_455 S
C3142 C3143 1.367 . S
C3143 C3142 1.367 . S
C3143 C3145 1.433 . S
C3144 C3140 1.350 . S
C3144 C3141 1.463 . S
C3144 N3148 1.427 1_655 S
C3145 H3135 0.929 . S
C3145 C3143 1.433 . S
C3145 N3148 1.384 . S
C3146 H3137 0.929 1_655 S
C3146 C3138 1.378 . S
C3146 C3141 1.350 . S
C3147 H3134 0.929 . S
C3147 C3139 1.433 . S
C3147 N3149 1.384 . S
N3148 C3144 1.427 1_455 S
N3148 C3145 1.384 . S
N3149 C3141 1.427 . S
N3149 C3147 1.384 . S
H3150 C3156 0.930 . S
H3151 C3160 0.930 . S
H3152 C3165 0.929 . S
H3153 C3163 0.929 . S
H3154 C3158 0.929 . S
H3155 C3164 0.929 . S
C3156 H3150 0.930 . S
C3156 C3157 1.367 . S
C3156 C3164 1.378 . S
C3157 C3156 1.367 . S
C3157 C3165 1.433 . S
C3158 H3154 0.929 . S
C3158 C3160 1.378 . S
C3158 C3162 1.350 . S
C3159 C3162 1.463 . S
C3159 C3164 1.350 . S
C3159 N3167 1.427 . S
C3160 H3151 0.930 . S
C3160 C3158 1.378 . S
C3160 C3161 1.367 . S
C3161 C3160 1.367 . S
C3161 C3163 1.433 . S
C3162 C3158 1.350 . S
C3162 C3159 1.463 . S
C3162 N3166 1.427 . S
C3163 H3153 0.929 . S
C3163 C3161 1.433 . S
C3163 N3166 1.384 . S
C3164 H3155 0.929 . S
C3164 C3156 1.378 . S
C3164 C3159 1.350 . S
C3165 H3152 0.929 . S
C3165 C3157 1.433 . S
C3165 N3167 1.384 . S
N3166 C3162 1.427 . S
N3166 C3163 1.384 . S
N3167 C3159 1.427 . S
N3167 C3165 1.384 . S
H3168 C3174 0.930 . S
H3169 C3178 0.930 . S
H3170 C3183 0.929 . S
H3171 C3181 0.929 . S
H3172 C3176 0.929 . S
H3173 C3182 0.929 . S
C3174 H3168 0.930 . S
C3174 C3175 1.367 . S
C3174 C3182 1.378 . S
C3175 C3174 1.367 . S
C3175 C3183 1.433 . S
C3176 H3172 0.929 . S
C3176 C3178 1.378 . S
C3176 C3180 1.350 . S
C3177 C3180 1.463 . S
C3177 C3182 1.350 . S
C3177 N3185 1.427 . S
C3178 H3169 0.930 . S
C3178 C3176 1.378 . S
C3178 C3179 1.367 . S
C3179 C3178 1.367 . S
C3179 C3181 1.433 . S
C3180 C3176 1.350 . S
C3180 C3177 1.463 . S
C3180 N3184 1.427 . S
C3181 H3171 0.929 . S
C3181 C3179 1.433 . S
C3181 N3184 1.384 . S
C3182 H3173 0.929 . S
C3182 C3174 1.378 . S
C3182 C3177 1.350 . S
C3183 H3170 0.929 . S
C3183 C3175 1.433 . S
C3183 N3185 1.384 . S
N3184 C3180 1.427 . S
N3184 C3181 1.384 . S
N3185 C3177 1.427 . S
N3185 C3183 1.384 . S
H3186 C3192 0.930 . S
H3187 C3196 0.930 . S
H3188 C3201 0.929 . S
H3189 C3199 0.929 . S
H3190 C3194 0.929 . S
H3191 C3200 0.929 . S
C3192 H3186 0.930 . S
C3192 C3193 1.367 . S
C3192 C3200 1.378 . S
C3193 C3192 1.367 . S
C3193 C3201 1.433 . S
C3194 H3190 0.929 . S
C3194 C3196 1.378 . S
C3194 C3198 1.350 . S
C3195 C3198 1.463 . S
C3195 C3200 1.350 . S
C3195 N3203 1.427 . S
C3196 H3187 0.930 . S
C3196 C3194 1.378 . S
C3196 C3197 1.367 . S
C3197 C3196 1.367 . S
C3197 C3199 1.433 . S
C3198 C3194 1.350 . S
C3198 C3195 1.463 . S
C3198 N3202 1.427 . S
C3199 H3189 0.929 . S
C3199 C3197 1.433 . S
C3199 N3202 1.384 . S
C3200 H3191 0.929 . S
C3200 C3192 1.378 . S
C3200 C3195 1.350 . S
C3201 H3188 0.929 . S
C3201 C3193 1.433 . S
C3201 N3203 1.384 . S
N3202 C3198 1.427 . S
N3202 C3199 1.384 . S
N3203 C3195 1.427 . S
N3203 C3201 1.384 . S
H3204 C3210 0.930 . S
H3205 C3214 0.930 . S
H3206 C3219 0.929 . S
H3207 C3217 0.929 . S
H3208 C3212 0.929 . S
H3209 C3218 0.929 . S
C3210 H3204 0.930 . S
C3210 C3211 1.367 . S
C3210 C3218 1.378 . S
C3211 C3210 1.367 . S
C3211 C3219 1.433 . S
C3212 H3208 0.929 . S
C3212 C3214 1.378 . S
C3212 C3216 1.350 . S
C3213 C3216 1.463 . S
C3213 C3218 1.350 . S
C3213 N3221 1.427 . S
C3214 H3205 0.930 . S
C3214 C3212 1.378 . S
C3214 C3215 1.312 1_655 S
C3215 C3214 1.312 1_455 S
C3215 C3217 1.458 . S
C3216 C3212 1.350 . S
C3216 C3213 1.463 . S
C3216 N3220 1.427 1_655 S
C3217 H3207 0.929 . S
C3217 C3215 1.458 . S
C3217 N3220 1.384 . S
C3218 H3209 0.929 . S
C3218 C3210 1.378 . S
C3218 C3213 1.350 . S
C3219 H3206 0.929 . S
C3219 C3211 1.433 . S
C3219 N3221 1.384 . S
N3220 C3216 1.427 1_455 S
N3220 C3217 1.384 . S
N3221 C3213 1.427 . S
N3221 C3219 1.384 . S
H3222 C3228 0.930 . S
H3223 C3232 0.930 . S
H3224 C3237 0.929 . S
H3225 C3235 0.929 . S
H3226 C3230 0.929 . S
H3227 C3236 0.929 . S
C3228 H3222 0.930 . S
C3228 C3229 1.367 . S
C3228 C3236 1.378 . S
C3229 C3228 1.367 . S
C3229 C3237 1.433 . S
C3230 H3226 0.929 . S
C3230 C3232 1.378 . S
C3230 C3234 1.350 . S
C3231 C3234 1.463 . S
C3231 C3236 1.350 . S
C3231 N3239 1.427 . S
C3232 H3223 0.930 . S
C3232 C3230 1.378 . S
C3232 C3233 1.367 . S
C3233 C3232 1.367 . S
C3233 C3235 1.433 . S
C3234 C3230 1.350 . S
C3234 C3231 1.463 . S
C3234 N3238 1.427 . S
C3235 H3225 0.929 . S
C3235 C3233 1.433 . S
C3235 N3238 1.384 . S
C3236 H3227 0.929 . S
C3236 C3228 1.378 . S
C3236 C3231 1.350 . S
C3237 H3224 0.929 . S
C3237 C3229 1.433 . S
C3237 N3239 1.384 . S
N3238 C3234 1.427 . S
N3238 C3235 1.384 . S
N3239 C3231 1.427 . S
N3239 C3237 1.384 . S
H3240 C3246 0.930 . S
H3241 C3250 0.930 . S
H3242 C3255 0.929 . S
H3243 C3253 0.929 . S
H3244 C3248 0.929 . S
H3245 C3254 0.929 . S
C3246 H3240 0.930 . S
C3246 C3247 1.367 . S
C3246 C3254 1.378 . S
C3247 C3246 1.367 . S
C3247 C3255 1.433 . S
C3248 H3244 0.929 . S
C3248 C3250 1.378 . S
C3248 C3252 1.350 . S
C3249 C3252 1.463 . S
C3249 C3254 1.350 . S
C3249 N3257 1.427 . S
C3250 H3241 0.930 . S
C3250 C3248 1.378 . S
C3250 C3251 1.367 . S
C3251 C3250 1.367 . S
C3251 C3253 1.433 . S
C3252 C3248 1.350 . S
C3252 C3249 1.463 . S
C3252 N3256 1.427 . S
C3253 H3243 0.929 . S
C3253 C3251 1.433 . S
C3253 N3256 1.384 . S
C3254 H3245 0.929 . S
C3254 C3246 1.378 . S
C3254 C3249 1.350 . S
C3255 H3242 0.929 . S
C3255 C3247 1.433 . S
C3255 N3257 1.384 . S
N3256 C3252 1.427 . S
N3256 C3253 1.384 . S
N3257 C3249 1.427 . S
N3257 C3255 1.384 . S
H3258 C3264 0.930 . S
H3259 C3268 0.930 . S
H3260 C3273 0.929 . S
H3261 C3271 0.929 . S
H3262 C3266 0.929 . S
H3263 C3272 0.929 . S
C3264 H3258 0.930 . S
C3264 C3265 1.367 . S
C3264 C3272 1.378 . S
C3265 C3264 1.367 . S
C3265 C3273 1.433 . S
C3266 H3262 0.929 . S
C3266 C3268 1.378 . S
C3266 C3270 1.350 . S
C3267 C3270 1.463 . S
C3267 C3272 1.350 . S
C3267 N3275 1.427 . S
C3268 H3259 0.930 . S
C3268 C3266 1.378 . S
C3268 C3269 1.367 . S
C3269 C3268 1.367 . S
C3269 C3271 1.433 . S
C3270 C3266 1.350 . S
C3270 C3267 1.463 . S
C3270 N3274 1.427 . S
C3271 H3261 0.929 . S
C3271 C3269 1.433 . S
C3271 N3274 1.384 . S
C3272 H3263 0.929 . S
C3272 C3264 1.378 . S
C3272 C3267 1.350 . S
C3273 H3260 0.929 . S
C3273 C3265 1.433 . S
C3273 N3275 1.384 . S
N3274 C3270 1.427 . S
N3274 C3271 1.384 . S
N3275 C3267 1.427 . S
N3275 C3273 1.384 . S
H3276 C3282 0.930 . S
H3277 C3286 0.930 . S
H3278 C3291 0.929 . S
H3279 C3289 0.929 . S
H3280 C3284 0.929 . S
H3281 C3290 0.929 . S
C3282 H3276 0.930 . S
C3282 C3283 1.367 . S
C3282 C3290 1.378 . S
C3283 C3282 1.367 . S
C3283 C3291 1.433 . S
C3284 H3280 0.929 . S
C3284 C3286 1.378 . S
C3284 C3288 1.350 . S
C3285 C3288 1.463 . S
C3285 C3290 1.350 . S
C3285 N3293 1.427 . S
C3286 H3277 0.930 . S
C3286 C3284 1.378 . S
C3286 C3287 1.367 . S
C3287 C3286 1.367 . S
C3287 C3289 1.433 . S
C3288 C3284 1.350 . S
C3288 C3285 1.463 . S
C3288 N3292 1.427 . S
C3289 H3279 0.929 . S
C3289 C3287 1.433 . S
C3289 N3292 1.384 . S
C3290 H3281 0.929 . S
C3290 C3282 1.378 . S
C3290 C3285 1.350 . S
C3291 H3278 0.929 . S
C3291 C3283 1.433 . S
C3291 N3293 1.384 . S
N3292 C3288 1.427 . S
N3292 C3289 1.384 . S
N3293 C3285 1.427 . S
N3293 C3291 1.384 . S
H3294 C3300 0.930 1_556 S
H3295 C3304 0.930 . S
H3296 C3309 0.929 . S
H3297 C3307 0.929 1_556 S
H3298 C3302 0.929 . S
H3299 C3308 0.929 1_556 S
C3300 H3294 0.930 1_554 S
C3300 C3301 1.367 . S
C3300 C3308 1.378 . S
C3301 C3300 1.367 . S
C3301 C3309 1.433 . S
C3302 H3298 0.929 . S
C3302 C3304 1.378 . S
C3302 C3306 1.350 . S
C3303 C3306 1.463 . S
C3303 C3308 1.350 . S
C3303 N3311 1.427 . S
C3304 H3295 0.930 . S
C3304 C3302 1.378 . S
C3304 C3305 1.367 . S
C3305 C3304 1.367 . S
C3305 C3307 1.433 . S
C3306 C3302 1.350 . S
C3306 C3303 1.463 . S
C3306 N3310 1.427 . S
C3307 H3297 0.929 1_554 S
C3307 C3305 1.433 . S
C3307 N3310 1.384 . S
C3308 H3299 0.929 1_554 S
C3308 C3300 1.378 . S
C3308 C3303 1.350 . S
C3309 H3296 0.929 . S
C3309 C3301 1.433 . S
C3309 N3311 1.384 . S
N3310 C3306 1.427 . S
N3310 C3307 1.384 . S
N3311 C3303 1.427 . S
N3311 C3309 1.384 . S
H3312 C3318 0.930 . S
H3313 C3322 0.930 . S
H3314 C3327 0.929 . S
H3315 C3325 0.929 . S
H3316 C3320 0.929 . S
H3317 C3326 0.929 . S
C3318 H3312 0.930 . S
C3318 C3319 1.367 . S
C3318 C3326 1.378 . S
C3319 C3318 1.367 . S
C3319 C3327 1.433 . S
C3320 H3316 0.929 . S
C3320 C3322 1.378 . S
C3320 C3324 1.350 . S
C3321 C3324 1.463 . S
C3321 C3326 1.350 . S
C3321 N3329 1.427 . S
C3322 H3313 0.930 . S
C3322 C3320 1.378 . S
C3322 C3323 1.367 . S
C3323 C3322 1.367 . S
C3323 C3325 1.433 . S
C3324 C3320 1.350 . S
C3324 C3321 1.463 . S
C3324 N3328 1.427 . S
C3325 H3315 0.929 . S
C3325 C3323 1.433 . S
C3325 N3328 1.384 . S
C3326 H3317 0.929 . S
C3326 C3318 1.378 . S
C3326 C3321 1.350 . S
C3327 H3314 0.929 . S
C3327 C3319 1.433 . S
C3327 N3329 1.384 . S
N3328 C3324 1.427 . S
N3328 C3325 1.384 . S
N3329 C3321 1.427 . S
N3329 C3327 1.384 . S
H3330 C3336 0.917 1_556 S
H3331 C3340 0.930 . S
H3332 C3345 0.929 . S
H3333 C3343 0.929 . S
H3334 C3338 0.929 . S
H3335 C3344 0.929 1_556 S
C3336 H3330 0.917 1_554 S
C3336 C3337 1.367 . S
C3336 C3344 1.378 . S
C3337 C3336 1.367 . S
C3337 C3345 1.433 . S
C3338 H3334 0.929 . S
C3338 C3340 1.378 . S
C3338 C3342 1.350 . S
C3339 C3342 1.463 . S
C3339 C3344 1.350 . S
C3339 N3347 1.427 . S
C3340 H3331 0.930 . S
C3340 C3338 1.378 . S
C3340 C3341 1.367 . S
C3341 C3340 1.367 . S
C3341 C3343 1.433 1_554 S
C3342 C3338 1.350 . S
C3342 C3339 1.463 . S
C3342 N3346 1.427 1_554 S
C3343 H3333 0.929 . S
C3343 C3341 1.433 1_556 S
C3343 N3346 1.384 . S
C3344 H3335 0.929 1_554 S
C3344 C3336 1.378 . S
C3344 C3339 1.350 . S
C3345 H3332 0.929 . S
C3345 C3337 1.433 . S
C3345 N3347 1.384 . S
N3346 C3342 1.427 1_556 S
N3346 C3343 1.384 . S
N3347 C3339 1.427 . S
N3347 C3345 1.384 . S
H3348 C3354 0.930 . S
H3349 C3358 0.930 . S
H3350 C3363 0.929 . S
H3351 C3361 0.929 . S
H3352 C3356 0.929 . S
H3353 C3362 0.929 . S
C3354 H3348 0.930 . S
C3354 C3355 1.367 . S
C3354 C3362 1.378 . S
C3355 C3354 1.367 . S
C3355 C3363 1.433 . S
C3356 H3352 0.929 . S
C3356 C3358 1.378 . S
C3356 C3360 1.350 . S
C3357 C3360 1.463 . S
C3357 C3362 1.350 . S
C3357 N3365 1.427 . S
C3358 H3349 0.930 . S
C3358 C3356 1.378 . S
C3358 C3359 1.367 . S
C3359 C3358 1.367 . S
C3359 C3361 1.433 . S
C3360 C3356 1.350 . S
C3360 C3357 1.463 . S
C3360 N3364 1.427 . S
C3361 H3351 0.929 . S
C3361 C3359 1.433 . S
C3361 N3364 1.384 . S
C3362 H3353 0.929 . S
C3362 C3354 1.378 . S
C3362 C3357 1.350 . S
C3363 H3350 0.929 . S
C3363 C3355 1.433 . S
C3363 N3365 1.384 . S
N3364 C3360 1.427 . S
N3364 C3361 1.384 . S
N3365 C3357 1.427 . S
N3365 C3363 1.384 . S
H3366 C3372 0.930 . S
H3367 C3376 0.930 . S
H3368 C3381 0.929 . S
H3369 C3379 0.929 . S
H3370 C3374 0.929 . S
H3371 C3380 0.929 . S
C3372 H3366 0.930 . S
C3372 C3373 1.367 . S
C3372 C3380 1.378 . S
C3373 C3372 1.367 . S
C3373 C3381 1.433 . S
C3374 H3370 0.929 . S
C3374 C3376 1.378 . S
C3374 C3378 1.350 . S
C3375 C3378 1.463 . S
C3375 C3380 1.350 . S
C3375 N3383 1.427 . S
C3376 H3367 0.930 . S
C3376 C3374 1.378 . S
C3376 C3377 1.367 . S
C3377 C3376 1.367 . S
C3377 C3379 1.433 . S
C3378 C3374 1.350 . S
C3378 C3375 1.463 . S
C3378 N3382 1.427 . S
C3379 H3369 0.929 . S
C3379 C3377 1.433 . S
C3379 N3382 1.384 . S
C3380 H3371 0.929 . S
C3380 C3372 1.378 . S
C3380 C3375 1.350 . S
C3381 H3368 0.929 . S
C3381 C3373 1.433 . S
C3381 N3383 1.384 . S
N3382 C3378 1.427 . S
N3382 C3379 1.384 . S
N3383 C3375 1.427 . S
N3383 C3381 1.384 . S
C1663 C101 1.866 . S
C1667 C379 1.761 . S
C1681 C57 2.173 . S
C1685 C462 2.148 . S
C1699 C73 1.624 . S
C1703 C547 1.642 . S
C1721 C627 1.413 . S
C1717 C78 1.524 . S
C1735 C21 1.512 . S
C1739 C711 1.512 . S
C1757 C804 0.947 . S
C1753 C31 1.003 . S
C1775 C882 0.969 . S
C1771 C49 0.952 . S
C1789 C0 1.375 . S
C1793 C967 1.311 . S
C1811 C378 2.027 . S
C1807 C218 2.128 . S
C1825 C229 0.701 . S
C1829 C459 0.715 . S
C1847 C546 1.165 . S
C1843 C257 1.188 . S
C1865 C631 1.592 . S
C1861 C164 1.603 . S
C1879 C216 1.975 . S
C1883 C715 1.954 . S
C1901 C807 1.121 . S
C1897 C231 1.205 . S
C1919 C879 0.770 . S
C1915 C255 0.808 . S
C1937 C966 1.497 . S
C1933 C166 1.626 . S
C1955 C375 1.335 . S
C1951 C143 1.378 . S
C1969 C265 1.940 . S
C1973 C1050 1.912 . S
C1991 C1124 2.156 . S
C1987 C299 2.312 . S
C2009 C1219 0.583 . S
C2005 C291 0.568 . S
C2023 C104 0.793 . S
C2027 C963 0.811 . S
C2041 C117 1.375 . S
C2045 C543 1.388 . S
C2059 C304 2.172 . S
C2063 C1302 2.143 . S
C2081 C1387 0.655 . S
C2077 C278 0.673 . S
C2099 C368 1.684 . S
C2095 C60 1.825 . S
C2117 C1395 2.084 . S
C2113 C96 2.148 . S
C2131 C88 1.617 . S
C2135 C536 1.542 . S
C2149 C65 1.465 . S
C2153 C1308 1.352 . S
C2171 C720 1.475 . S
C2167 C10 1.515 . S
C2185 C44 0.961 . S
C2189 C1131 0.927 . S
C2207 C891 0.823 . S
C2203 C34 0.823 . S
C2225 C1460 1.240 . S
C2221 C13 1.442 . S
C2243 C387 1.960 . S
C2239 C138 2.002 . S
C2261 C1392 0.652 . S
C2257 C296 0.654 . S
C2275 C112 1.124 . S
C2279 C555 1.112 . S
C2293 C270 1.593 . S
C2297 C1292 1.484 . S
C2311 C140 2.020 . S
C2315 C704 1.863 . S
C2333 C1134 1.083 . S
C2329 C294 1.144 . S
C2347 C114 0.737 . S
C2351 C888 0.736 . S
C2365 C268 1.527 . S
C2369 C1479 1.428 . S
C2383 C169 1.382 . S
C2387 C384 1.322 1_554 S
C2401 C161 1.898 . S
C2405 C1059 1.842 . S
C2419 C234 2.259 . S
C2423 C799 2.097 . S
C2437 C226 0.518 . S
C2441 C1208 0.519 . S
C2459 C1476 0.876 . S
C2455 C247 0.841 1_565 S
C2473 C195 1.425 . S
C2477 C552 1.377 . S
C2495 C639 2.069 . S
C2491 C239 2.108 . S
C2513 C452 0.657 . S
C2509 C187 0.579 . S
C2527 C75 1.868 . S
C2531 C1555 1.752 . S
C2549 C1386 2.149 . S
C2545 C83 2.172 . S
C2563 C99 1.639 . S
C2567 C1639 1.635 . S
C2581 C52 1.524 . S
C2585 C1299 1.413 . S
C2599 C47 1.513 . S
C2603 C1047 1.511 . S
C2621 C1140 0.969 . S
C2617 C5 1.018 . S
C2639 C1218 0.964 . S
C2635 C23 0.960 . S
C2657 C1471 1.312 . S
C2653 C26 1.375 . S
C2675 C1554 2.025 . S
C2671 C244 2.128 . S
C2689 C177 0.698 . S
C2693 C1383 0.723 . S
C2711 C1638 1.165 . S
C2707 C192 1.187 . S
C2729 C1303 1.592 . S
C2725 C203 1.603 . S
C2747 C1051 1.943 . S
C2743 C242 1.977 . S
C2761 C179 1.204 . S
C2765 C1143 1.121 . S
C2783 C1215 0.806 . S
C2779 C190 0.796 . S
C2797 C205 1.628 . S
C2801 C1470 1.510 . S
C2819 C1551 1.353 . S
C2815 C286 1.382 . S
C2833 C122 1.944 . S
C2837 C714 1.907 . S
C2855 C788 2.157 . S
C2851 C130 2.317 . S
C2873 C883 0.563 . S
C2869 C148 0.594 . S
C2891 C1467 0.814 . S
C2887 C273 0.781 . S
C2905 C260 1.378 1_556 S
C2909 C1635 1.382 . S
C2927 C630 2.148 . S
C2923 C135 2.169 . S
C2945 C463 0.692 . S
C2941 C109 0.649 . S
C2959 C86 1.823 . S
C2963 C1544 1.696 . S
C2981 C471 2.085 . S
C2977 C70 2.147 . S
C2995 C62 1.621 . S
C2999 C1628 1.525 . S
C3013 C91 1.469 . S
C3017 C636 1.361 . S
C3031 C36 1.514 . S
C3035 C1056 1.481 . S
C3053 C795 0.915 . S
C3049 C18 0.940 . S
C3067 C8 0.792 . S
C3071 C1227 0.833 . S
C3085 C39 1.443 . S
C3089 C956 1.237 . S
C3107 C1563 1.950 . S
C3103 C307 2.007 . S
C3121 C153 0.656 . S
C3125 C468 0.656 . S
C3143 C1647 1.099 . S
C3139 C281 1.130 . S
C3157 C127 1.593 . S
C3161 C620 1.506 . S
C3175 C309 2.027 . S
C3179 C1040 1.880 . S
C3197 C798 1.070 . S
C3193 C151 1.151 . S
C3211 C283 0.724 . S
C3215 C1224 0.795 . S
C3233 C975 1.408 . S
C3229 C125 1.535 . S
C3251 C1560 1.315 . S
C3247 C221 1.380 . S
C3269 C723 1.844 1_665 S
C3265 C200 1.897 . S
C3283 C208 2.265 . S
C3287 C1135 2.082 . S
C3305 C872 0.523 . S
C3301 C174 0.518 . S
C3319 C182 0.871 . S
C3323 C972 0.875 . S
C3337 C156 1.426 . S
C3341 C1644 1.380 1_554 S
C3359 C1311 2.070 . S
C3355 C213 2.113 1_565 S
C3377 C1376 0.623 . S
C3373 C252 0.596 . S
