# Generated by pormake.
# Topology gar, (4,6)-cn, num edge types: 1
# Building blocks:
#     Node 0, Type 0, BuildingBlock: AZAVOO_clean_sbu_0, # of connection points: 4
#     Node 1, Type 0, BuildingBlock: AZAVOO_clean_sbu_0, # of connection points: 4
#     Node 2, Type 0, BuildingBlock: AZAVOO_clean_sbu_0, # of connection points: 4
#     Node 3, Type 0, BuildingBlock: AZAVOO_clean_sbu_0, # of connection points: 4
#     Node 4, Type 0, BuildingBlock: AZAVOO_clean_sbu_0, # of connection points: 4
#     Node 5, Type 0, BuildingBlock: AZAVOO_clean_sbu_0, # of connection points: 4
#     Node 6, Type 0, BuildingBlock: AZAVOO_clean_sbu_0, # of connection points: 4
#     Node 7, Type 0, BuildingBlock: AZAVOO_clean_sbu_0, # of connection points: 4
#     Node 8, Type 0, BuildingBlock: AZAVOO_clean_sbu_0, # of connection points: 4
#     Node 9, Type 0, BuildingBlock: AZAVOO_clean_sbu_0, # of connection points: 4
#     Node 10, Type 0, BuildingBlock: AZAVOO_clean_sbu_0, # of connection points: 4
#     Node 11, Type 0, BuildingBlock: AZAVOO_clean_sbu_0, # of connection points: 4
#     Node 12, Type 0, BuildingBlock: AZAVOO_clean_sbu_0, # of connection points: 4
#     Node 13, Type 0, BuildingBlock: AZAVOO_clean_sbu_0, # of connection points: 4
#     Node 14, Type 0, BuildingBlock: AZAVOO_clean_sbu_0, # of connection points: 4
#     Node 15, Type 0, BuildingBlock: AZAVOO_clean_sbu_0, # of connection points: 4
#     Node 16, Type 0, BuildingBlock: AZAVOO_clean_sbu_0, # of connection points: 4
#     Node 17, Type 0, BuildingBlock: AZAVOO_clean_sbu_0, # of connection points: 4
#     Node 18, Type 0, BuildingBlock: AZAVOO_clean_sbu_0, # of connection points: 4
#     Node 19, Type 0, BuildingBlock: AZAVOO_clean_sbu_0, # of connection points: 4
#     Node 20, Type 0, BuildingBlock: AZAVOO_clean_sbu_0, # of connection points: 4
#     Node 21, Type 0, BuildingBlock: AZAVOO_clean_sbu_0, # of connection points: 4
#     Node 22, Type 0, BuildingBlock: AZAVOO_clean_sbu_0, # of connection points: 4
#     Node 23, Type 0, BuildingBlock: AZAVOO_clean_sbu_0, # of connection points: 4
#     Node 24, Type 1, BuildingBlock: MIFKUJ_clean_sbu_0, # of connection points: 6
#     Node 25, Type 1, BuildingBlock: MIFKUJ_clean_sbu_0, # of connection points: 6
#     Node 26, Type 1, BuildingBlock: MIFKUJ_clean_sbu_0, # of connection points: 6
#     Node 27, Type 1, BuildingBlock: MIFKUJ_clean_sbu_0, # of connection points: 6
#     Node 28, Type 1, BuildingBlock: MIFKUJ_clean_sbu_0, # of connection points: 6
#     Node 29, Type 1, BuildingBlock: MIFKUJ_clean_sbu_0, # of connection points: 6
#     Node 30, Type 1, BuildingBlock: MIFKUJ_clean_sbu_0, # of connection points: 6
#     Node 31, Type 1, BuildingBlock: MIFKUJ_clean_sbu_0, # of connection points: 6
#     Node 32, Type 1, BuildingBlock: MIFKUJ_clean_sbu_0, # of connection points: 6
#     Node 33, Type 1, BuildingBlock: MIFKUJ_clean_sbu_0, # of connection points: 6
#     Node 34, Type 1, BuildingBlock: MIFKUJ_clean_sbu_0, # of connection points: 6
#     Node 35, Type 1, BuildingBlock: MIFKUJ_clean_sbu_0, # of connection points: 6
#     Node 36, Type 1, BuildingBlock: MIFKUJ_clean_sbu_0, # of connection points: 6
#     Node 37, Type 1, BuildingBlock: MIFKUJ_clean_sbu_0, # of connection points: 6
#     Node 38, Type 1, BuildingBlock: MIFKUJ_clean_sbu_0, # of connection points: 6
#     Node 39, Type 1, BuildingBlock: MIFKUJ_clean_sbu_0, # of connection points: 6
#     Edge 40, Type (0, 1), BuildingBlock: XUDNAN_clean_linker_2, # of connection points: 2
#     Edge 41, Type (0, 1), BuildingBlock: XUDNAN_clean_linker_2, # of connection points: 2
#     Edge 42, Type (0, 1), BuildingBlock: XUDNAN_clean_linker_2, # of connection points: 2
#     Edge 43, Type (0, 1), BuildingBlock: XUDNAN_clean_linker_2, # of connection points: 2
#     Edge 44, Type (0, 1), BuildingBlock: XUDNAN_clean_linker_2, # of connection points: 2
#     Edge 45, Type (0, 1), BuildingBlock: XUDNAN_clean_linker_2, # of connection points: 2
#     Edge 46, Type (0, 1), BuildingBlock: XUDNAN_clean_linker_2, # of connection points: 2
#     Edge 47, Type (0, 1), BuildingBlock: XUDNAN_clean_linker_2, # of connection points: 2
#     Edge 48, Type (0, 1), BuildingBlock: XUDNAN_clean_linker_2, # of connection points: 2
#     Edge 49, Type (0, 1), BuildingBlock: XUDNAN_clean_linker_2, # of connection points: 2
#     Edge 50, Type (0, 1), BuildingBlock: XUDNAN_clean_linker_2, # of connection points: 2
#     Edge 51, Type (0, 1), BuildingBlock: XUDNAN_clean_linker_2, # of connection points: 2
#     Edge 52, Type (0, 1), BuildingBlock: XUDNAN_clean_linker_2, # of connection points: 2
#     Edge 53, Type (0, 1), BuildingBlock: XUDNAN_clean_linker_2, # of connection points: 2
#     Edge 54, Type (0, 1), BuildingBlock: XUDNAN_clean_linker_2, # of connection points: 2
#     Edge 55, Type (0, 1), BuildingBlock: XUDNAN_clean_linker_2, # of connection points: 2
#     Edge 56, Type (0, 1), BuildingBlock: XUDNAN_clean_linker_2, # of connection points: 2
#     Edge 57, Type (0, 1), BuildingBlock: XUDNAN_clean_linker_2, # of connection points: 2
#     Edge 58, Type (0, 1), BuildingBlock: XUDNAN_clean_linker_2, # of connection points: 2
#     Edge 59, Type (0, 1), BuildingBlock: XUDNAN_clean_linker_2, # of connection points: 2
#     Edge 60, Type (0, 1), BuildingBlock: XUDNAN_clean_linker_2, # of connection points: 2
#     Edge 61, Type (0, 1), BuildingBlock: XUDNAN_clean_linker_2, # of connection points: 2
#     Edge 62, Type (0, 1), BuildingBlock: XUDNAN_clean_linker_2, # of connection points: 2
#     Edge 63, Type (0, 1), BuildingBlock: XUDNAN_clean_linker_2, # of connection points: 2
#     Edge 64, Type (0, 1), BuildingBlock: XUDNAN_clean_linker_2, # of connection points: 2
#     Edge 65, Type (0, 1), BuildingBlock: XUDNAN_clean_linker_2, # of connection points: 2
#     Edge 66, Type (0, 1), BuildingBlock: XUDNAN_clean_linker_2, # of connection points: 2
#     Edge 67, Type (0, 1), BuildingBlock: XUDNAN_clean_linker_2, # of connection points: 2
#     Edge 68, Type (0, 1), BuildingBlock: XUDNAN_clean_linker_2, # of connection points: 2
#     Edge 69, Type (0, 1), BuildingBlock: XUDNAN_clean_linker_2, # of connection points: 2
#     Edge 70, Type (0, 1), BuildingBlock: XUDNAN_clean_linker_2, # of connection points: 2
#     Edge 71, Type (0, 1), BuildingBlock: XUDNAN_clean_linker_2, # of connection points: 2
#     Edge 72, Type (0, 1), BuildingBlock: XUDNAN_clean_linker_2, # of connection points: 2
#     Edge 73, Type (0, 1), BuildingBlock: XUDNAN_clean_linker_2, # of connection points: 2
#     Edge 74, Type (0, 1), BuildingBlock: XUDNAN_clean_linker_2, # of connection points: 2
#     Edge 75, Type (0, 1), BuildingBlock: XUDNAN_clean_linker_2, # of connection points: 2
#     Edge 76, Type (0, 1), BuildingBlock: XUDNAN_clean_linker_2, # of connection points: 2
#     Edge 77, Type (0, 1), BuildingBlock: XUDNAN_clean_linker_2, # of connection points: 2
#     Edge 78, Type (0, 1), BuildingBlock: XUDNAN_clean_linker_2, # of connection points: 2
#     Edge 79, Type (0, 1), BuildingBlock: XUDNAN_clean_linker_2, # of connection points: 2
#     Edge 80, Type (0, 1), BuildingBlock: XUDNAN_clean_linker_2, # of connection points: 2
#     Edge 81, Type (0, 1), BuildingBlock: XUDNAN_clean_linker_2, # of connection points: 2
#     Edge 82, Type (0, 1), BuildingBlock: XUDNAN_clean_linker_2, # of connection points: 2
#     Edge 83, Type (0, 1), BuildingBlock: XUDNAN_clean_linker_2, # of connection points: 2
#     Edge 84, Type (0, 1), BuildingBlock: XUDNAN_clean_linker_2, # of connection points: 2
#     Edge 85, Type (0, 1), BuildingBlock: XUDNAN_clean_linker_2, # of connection points: 2
#     Edge 86, Type (0, 1), BuildingBlock: XUDNAN_clean_linker_2, # of connection points: 2
#     Edge 87, Type (0, 1), BuildingBlock: XUDNAN_clean_linker_2, # of connection points: 2
#     Edge 88, Type (0, 1), BuildingBlock: XUDNAN_clean_linker_2, # of connection points: 2
#     Edge 89, Type (0, 1), BuildingBlock: XUDNAN_clean_linker_2, # of connection points: 2
#     Edge 90, Type (0, 1), BuildingBlock: XUDNAN_clean_linker_2, # of connection points: 2
#     Edge 91, Type (0, 1), BuildingBlock: XUDNAN_clean_linker_2, # of connection points: 2
#     Edge 92, Type (0, 1), BuildingBlock: XUDNAN_clean_linker_2, # of connection points: 2
#     Edge 93, Type (0, 1), BuildingBlock: XUDNAN_clean_linker_2, # of connection points: 2
#     Edge 94, Type (0, 1), BuildingBlock: XUDNAN_clean_linker_2, # of connection points: 2
#     Edge 95, Type (0, 1), BuildingBlock: XUDNAN_clean_linker_2, # of connection points: 2
#     Edge 96, Type (0, 1), BuildingBlock: XUDNAN_clean_linker_2, # of connection points: 2
#     Edge 97, Type (0, 1), BuildingBlock: XUDNAN_clean_linker_2, # of connection points: 2
#     Edge 98, Type (0, 1), BuildingBlock: XUDNAN_clean_linker_2, # of connection points: 2
#     Edge 99, Type (0, 1), BuildingBlock: XUDNAN_clean_linker_2, # of connection points: 2
#     Edge 100, Type (0, 1), BuildingBlock: XUDNAN_clean_linker_2, # of connection points: 2
#     Edge 101, Type (0, 1), BuildingBlock: XUDNAN_clean_linker_2, # of connection points: 2
#     Edge 102, Type (0, 1), BuildingBlock: XUDNAN_clean_linker_2, # of connection points: 2
#     Edge 103, Type (0, 1), BuildingBlock: XUDNAN_clean_linker_2, # of connection points: 2
#     Edge 104, Type (0, 1), BuildingBlock: XUDNAN_clean_linker_2, # of connection points: 2
#     Edge 105, Type (0, 1), BuildingBlock: XUDNAN_clean_linker_2, # of connection points: 2
#     Edge 106, Type (0, 1), BuildingBlock: XUDNAN_clean_linker_2, # of connection points: 2
#     Edge 107, Type (0, 1), BuildingBlock: XUDNAN_clean_linker_2, # of connection points: 2
#     Edge 108, Type (0, 1), BuildingBlock: XUDNAN_clean_linker_2, # of connection points: 2
#     Edge 109, Type (0, 1), BuildingBlock: XUDNAN_clean_linker_2, # of connection points: 2
#     Edge 110, Type (0, 1), BuildingBlock: XUDNAN_clean_linker_2, # of connection points: 2
#     Edge 111, Type (0, 1), BuildingBlock: XUDNAN_clean_linker_2, # of connection points: 2
#     Edge 112, Type (0, 1), BuildingBlock: XUDNAN_clean_linker_2, # of connection points: 2
#     Edge 113, Type (0, 1), BuildingBlock: XUDNAN_clean_linker_2, # of connection points: 2
#     Edge 114, Type (0, 1), BuildingBlock: XUDNAN_clean_linker_2, # of connection points: 2
#     Edge 115, Type (0, 1), BuildingBlock: XUDNAN_clean_linker_2, # of connection points: 2
#     Edge 116, Type (0, 1), BuildingBlock: XUDNAN_clean_linker_2, # of connection points: 2
#     Edge 117, Type (0, 1), BuildingBlock: XUDNAN_clean_linker_2, # of connection points: 2
#     Edge 118, Type (0, 1), BuildingBlock: XUDNAN_clean_linker_2, # of connection points: 2
#     Edge 119, Type (0, 1), BuildingBlock: XUDNAN_clean_linker_2, # of connection points: 2
#     Edge 120, Type (0, 1), BuildingBlock: XUDNAN_clean_linker_2, # of connection points: 2
#     Edge 121, Type (0, 1), BuildingBlock: XUDNAN_clean_linker_2, # of connection points: 2
#     Edge 122, Type (0, 1), BuildingBlock: XUDNAN_clean_linker_2, # of connection points: 2
#     Edge 123, Type (0, 1), BuildingBlock: XUDNAN_clean_linker_2, # of connection points: 2
#     Edge 124, Type (0, 1), BuildingBlock: XUDNAN_clean_linker_2, # of connection points: 2
#     Edge 125, Type (0, 1), BuildingBlock: XUDNAN_clean_linker_2, # of connection points: 2
#     Edge 126, Type (0, 1), BuildingBlock: XUDNAN_clean_linker_2, # of connection points: 2
#     Edge 127, Type (0, 1), BuildingBlock: XUDNAN_clean_linker_2, # of connection points: 2
#     Edge 128, Type (0, 1), BuildingBlock: XUDNAN_clean_linker_2, # of connection points: 2
#     Edge 129, Type (0, 1), BuildingBlock: XUDNAN_clean_linker_2, # of connection points: 2
#     Edge 130, Type (0, 1), BuildingBlock: XUDNAN_clean_linker_2, # of connection points: 2
#     Edge 131, Type (0, 1), BuildingBlock: XUDNAN_clean_linker_2, # of connection points: 2
#     Edge 132, Type (0, 1), BuildingBlock: XUDNAN_clean_linker_2, # of connection points: 2
#     Edge 133, Type (0, 1), BuildingBlock: XUDNAN_clean_linker_2, # of connection points: 2
#     Edge 134, Type (0, 1), BuildingBlock: XUDNAN_clean_linker_2, # of connection points: 2
#     Edge 135, Type (0, 1), BuildingBlock: XUDNAN_clean_linker_2, # of connection points: 2
# Relax obj value: 0.128
# Max RMSD: 0.296
# Mean RMSD: 0.178
data_MOF--net-gar--node1-AZAVOO_clean_sbu_0--node2-MIFKUJ_clean_sbu_0--edge1-XUDNAN_clean_linker_2
_symmetry_space_group_name_H-M    P1
_symmetry_Int_Tables_number       1
_symmetry_cell_setting            triclinic
loop_
_symmetry_equiv_pos_as_xyz
'x, y, z'
_cell_length_a     57.27267
_cell_length_b     54.931476
_cell_length_c     54.031346
_cell_angle_alpha  97.144566
_cell_angle_beta   94.48467
_cell_angle_gamma 100.24476
loop_
_atom_site_label
_atom_site_type_symbol
_atom_site_fract_x
_atom_site_fract_y
_atom_site_fract_z
_atom_type_partial_charge
Mg0 Mg 0.01505 0.26865 0.40019 0.0
O1 O 0.02268 0.30472 0.42878 0.0
O2 O 0.99531 0.29875 0.45609 0.0
Mg3 Mg 0.96829 0.26269 0.44279 0.0
C4 C 0.0136 0.31171 0.44875 0.0
C5 C 0.05348 0.26135 0.36668 0.0
O6 O 0.0345 0.24479 0.35692 0.0
O7 O 0.02811 0.2467 0.42989 0.0
O8 O 0.99707 0.24033 0.45247 0.0
O9 O 0.99173 0.28518 0.37429 0.0
O10 O 0.97923 0.2649 0.40503 0.0
C11 C 0.01768 0.23678 0.44724 0.0
C12 C 0.97453 0.27736 0.38723 0.0
O13 O 0.05193 0.27602 0.38639 0.0
Mg14 Mg 0.99193 0.764 0.65761 0.0
O15 O 0.97863 0.72701 0.63182 0.0
O16 O 0.9438 0.72877 0.61112 0.0
Mg17 Mg 0.93368 0.76616 0.62551 0.0
C18 C 0.9609 0.71737 0.61566 0.0
C19 C 0.034 0.73912 0.67697 0.0
O20 O 0.01682 0.7271 0.68811 0.0
O21 O 0.00096 0.78332 0.62351 0.0
O22 O 0.96471 0.78596 0.60662 0.0
O23 O 0.97202 0.74996 0.68909 0.0
O24 O 0.95747 0.76978 0.66018 0.0
C25 C 0.98743 0.79046 0.60702 0.0
C26 C 0.95447 0.7591 0.6798 0.0
O27 O 0.02919 0.7548 0.66284 0.0
Mg28 Mg 0.50809 0.75482 0.87761 0.0
O29 O 0.51567 0.79169 0.9054 0.0
O30 O 0.48227 0.79306 0.92417 0.0
Mg31 Mg 0.45489 0.75738 0.91068 0.0
C32 C 0.50356 0.80257 0.92071 0.0
C33 C 0.54937 0.74699 0.84837 0.0
O34 O 0.53005 0.734 0.8349 0.0
O35 O 0.51323 0.73231 0.90987 0.0
O36 O 0.47962 0.73371 0.92804 0.0
O37 O 0.4914 0.77315 0.84777 0.0
O38 O 0.47143 0.75428 0.87547 0.0
C39 C 0.49946 0.72628 0.92654 0.0
C40 C 0.47132 0.76681 0.85687 0.0
O41 O 0.54715 0.75891 0.86955 0.0
Mg42 Mg 0.47098 0.26557 0.14358 0.0
O43 O 0.47415 0.22561 0.12802 0.0
O44 O 0.44412 0.21084 0.09794 0.0
Mg45 Mg 0.42029 0.24029 0.09685 0.0
C46 C 0.46295 0.20838 0.11095 0.0
C47 C 0.52234 0.26169 0.17015 0.0
O48 O 0.51193 0.24024 0.17617 0.0
O49 O 0.48152 0.27923 0.10768 0.0
O50 O 0.44938 0.2665 0.07995 0.0
O51 O 0.44994 0.25221 0.17387 0.0
O52 O 0.43427 0.25614 0.13617 0.0
C53 C 0.47071 0.27858 0.08604 0.0
C54 C 0.43119 0.24971 0.15801 0.0
O55 O 0.51009 0.27465 0.15855 0.0
Mg56 Mg 0.01112 0.77799 0.16626 0.0
O57 O 0.01566 0.74097 0.14434 0.0
O58 O 0.98313 0.72685 0.1173 0.0
Mg59 Mg 0.95742 0.75405 0.12272 0.0
C60 C 0.00369 0.72481 0.12679 0.0
C61 C 0.05227 0.79317 0.20596 0.0
O62 O 0.03324 0.79705 0.21678 0.0
O63 O 0.01832 0.79759 0.13213 0.0
O64 O 0.984 0.78366 0.10754 0.0
O65 O 0.9929 0.75804 0.19485 0.0
O66 O 0.97424 0.76759 0.16107 0.0
C67 C 0.00482 0.79733 0.11205 0.0
C68 C 0.97312 0.75741 0.18127 0.0
O69 O 0.05 0.78579 0.18248 0.0
Mg70 Mg 0.47296 0.72237 0.38382 0.0
O71 O 0.48458 0.76293 0.40269 0.0
O72 O 0.45911 0.77037 0.4308 0.0
Mg73 Mg 0.43045 0.73513 0.42862 0.0
C74 C 0.4775 0.77744 0.41968 0.0
C75 C 0.52182 0.73874 0.35903 0.0
O76 O 0.51394 0.75928 0.35578 0.0
O77 O 0.48629 0.70873 0.4194 0.0
O78 O 0.45795 0.71374 0.44469 0.0
O79 O 0.45029 0.73437 0.35382 0.0
O80 O 0.43778 0.72451 0.38958 0.0
C81 C 0.47721 0.70624 0.43996 0.0
C82 C 0.4336 0.73285 0.36872 0.0
O83 O 0.50928 0.72203 0.36927 0.0
Mg84 Mg 0.50791 0.28064 0.655 0.0
O85 O 0.51066 0.24376 0.63105 0.0
O86 O 0.48117 0.23684 0.59977 0.0
Mg87 Mg 0.45722 0.26552 0.60629 0.0
C88 C 0.49957 0.23114 0.61076 0.0
C89 C 0.5497 0.29672 0.69555 0.0
O90 O 0.53237 0.30643 0.70496 0.0
O91 O 0.52018 0.30301 0.6237 0.0
O92 O 0.48724 0.29493 0.59654 0.0
O93 O 0.48445 0.26082 0.6806 0.0
O94 O 0.47134 0.27382 0.64607 0.0
C95 C 0.50865 0.30627 0.6035 0.0
C96 C 0.46659 0.26292 0.6653 0.0
O97 O 0.54577 0.28442 0.67362 0.0
Mg98 Mg 0.97217 0.20443 0.85847 0.0
O99 O 0.98417 0.24415 0.87954 0.0
O100 O 0.95917 0.24988 0.90863 0.0
Mg101 Mg 0.93068 0.21434 0.90534 0.0
C102 C 0.97733 0.25773 0.89749 0.0
C103 C 0.02139 0.22314 0.83517 0.0
O104 O 0.01346 0.24394 0.83346 0.0
O105 O 0.98593 0.18869 0.89256 0.0
O106 O 0.95894 0.19285 0.91965 0.0
O107 O 0.949 0.21856 0.83031 0.0
O108 O 0.93741 0.20647 0.86568 0.0
C109 C 0.97791 0.18551 0.91353 0.0
C110 C 0.93298 0.21658 0.84596 0.0
O111 O 0.00854 0.20527 0.8436 0.0
Mg112 Mg 0.40068 0.06123 0.29007 0.0
O113 O 0.38159 0.02179 0.29256 0.0
O114 O 0.36908 0.01931 0.33041 0.0
Mg115 Mg 0.38149 0.05854 0.35271 0.0
C116 C 0.37082 0.00941 0.30813 0.0
C117 C 0.41901 0.05424 0.23901 0.0
O118 O 0.4373 0.06862 0.25301 0.0
O119 O 0.36473 0.07277 0.28718 0.0
O120 O 0.35472 0.07332 0.32642 0.0
O121 O 0.43509 0.05253 0.30294 0.0
O122 O 0.41086 0.0667 0.32883 0.0
C123 C 0.35052 0.07677 0.30361 0.0
C124 C 0.43026 0.05824 0.32566 0.0
O125 O 0.39921 0.04972 0.24821 0.0
Mg126 Mg 0.28241 0.12842 0.49341 0.0
O127 O 0.2811 0.15104 0.53209 0.0
O128 O 0.31787 0.17222 0.54545 0.0
Mg129 Mg 0.34183 0.1654 0.51414 0.0
C130 C 0.29591 0.16573 0.54866 0.0
C131 C 0.23022 0.11047 0.50582 0.0
O132 O 0.24158 0.11277 0.52831 0.0
O133 O 0.28275 0.16354 0.47464 0.0
O134 O 0.3199 0.18438 0.48693 0.0
O135 O 0.29369 0.09729 0.51129 0.0
O136 O 0.31891 0.12875 0.50087 0.0
C137 C 0.29954 0.18226 0.4744 0.0
C138 C 0.31552 0.1083 0.51059 0.0
O139 O 0.24179 0.11688 0.48777 0.0
Mg140 Mg 0.1348 0.00348 0.79314 0.0
O141 O 0.16065 0.04088 0.80452 0.0
O142 O 0.18422 0.03762 0.83836 0.0
Mg143 Mg 0.17262 0.9987 0.84928 0.0
C144 C 0.17786 0.05006 0.82143 0.0
C145 C 0.11072 0.02883 0.75116 0.0
O146 O 0.10119 0.03904 0.77022 0.0
O147 O 0.16461 0.98545 0.77822 0.0
O148 O 0.18659 0.982 0.81333 0.0
O149 O 0.1084 0.01545 0.81831 0.0
O150 O 0.13675 0.99528 0.82949 0.0
C151 C 0.18235 0.97874 0.78944 0.0
C152 C 0.11891 0.00529 0.83531 0.0
O153 O 0.12532 0.01446 0.75501 0.0
Mg154 Mg 0.2583 0.89324 0.01821 0.0
O155 O 0.247 0.86943 0.97884 0.0
O156 O 0.27299 0.84343 0.9749 0.0
Mg157 Mg 0.30074 0.85067 0.00871 0.0
C158 C 0.25493 0.8517 0.96643 0.0
C159 C 0.22987 0.93343 0.02627 0.0
O160 O 0.25257 0.94344 0.03183 0.0
O161 O 0.24369 0.86017 0.03858 0.0
O162 O 0.27184 0.83704 0.03332 0.0
O163 O 0.28292 0.9216 0.00121 0.0
O164 O 0.29306 0.88831 0.01488 0.0
C165 C 0.25275 0.84111 0.04241 0.0
C166 C 0.29865 0.90769 0.00393 0.0
O167 O 0.2242 0.90994 0.01923 0.0
Mg168 Mg 0.28794 0.39229 0.05995 0.0
O169 O 0.28336 0.36527 0.02247 0.0
O170 O 0.31174 0.3424 0.02664 0.0
Mg171 Mg 0.33514 0.35544 0.06386 0.0
C172 C 0.29408 0.34789 0.01397 0.0
C173 C 0.24433 0.41353 0.03594 0.0
O174 O 0.25898 0.4196 0.01921 0.0
O175 O 0.27284 0.36021 0.08141 0.0
O176 O 0.30425 0.34165 0.08616 0.0
O177 O 0.31329 0.42149 0.04414 0.0
O178 O 0.32427 0.3917 0.06348 0.0
C179 C 0.28315 0.34405 0.09061 0.0
C180 C 0.3301 0.41026 0.0514 0.0
O181 O 0.25089 0.40175 0.05326 0.0
Mg182 Mg 0.77976 0.12579 0.01441 0.0
O183 O 0.7878 0.14611 0.0545 0.0
O184 O 0.82216 0.17337 0.05814 0.0
Mg185 Mg 0.8376 0.16745 0.02025 0.0
C186 C 0.80361 0.16322 0.06735 0.0
C187 C 0.73635 0.10064 0.03959 0.0
O188 O 0.75379 0.09425 0.05307 0.0
O189 O 0.77165 0.16088 -0.00029 0.0
O190 O 0.80795 0.18474 0.00181 0.0
O191 O 0.79847 0.09559 0.02447 0.0
O192 O 0.81586 0.12923 0.00958 0.0
C193 C 0.7854 0.18078 0.99591 0.0
C194 C 0.81748 0.10833 0.01745 0.0
O195 O 0.74126 0.11368 0.02217 0.0
Mg196 Mg 0.13072 0.49354 0.26047 0.0
O197 O 0.15103 0.53417 0.26926 0.0
O198 O 0.16312 0.5416 0.31036 0.0
Mg199 Mg 0.15223 0.50551 0.32724 0.0
C200 C 0.16144 0.54873 0.28879 0.0
C201 C 0.12669 0.47597 0.20296 0.0
O202 O 0.13032 0.45519 0.21096 0.0
O203 O 0.16597 0.47957 0.26167 0.0
O204 O 0.17615 0.48499 0.30313 0.0
O205 O 0.09702 0.50538 0.27098 0.0
O206 O 0.12294 0.49366 0.29728 0.0
C207 C 0.17971 0.4772 0.28069 0.0
C208 C 0.10357 0.50206 0.29358 0.0
O209 O 0.12835 0.49554 0.21873 0.0
Mg210 Mg 0.7821 0.8973 0.55554 0.0
O211 O 0.78429 0.87122 0.51953 0.0
O212 O 0.81746 0.85549 0.52443 0.0
Mg213 Mg 0.83747 0.87333 0.56275 0.0
C214 C 0.79836 0.85716 0.51139 0.0
C215 C 0.73164 0.91102 0.55654 0.0
O216 O 0.74062 0.91978 0.57972 0.0
O217 O 0.77209 0.86372 0.57668 0.0
O218 O 0.80768 0.85301 0.58362 0.0
O219 O 0.80156 0.92963 0.5401 0.0
O220 O 0.81964 0.90567 0.56189 0.0
C221 C 0.78551 0.85059 0.58676 0.0
C222 C 0.82126 0.9241 0.54906 0.0
O223 O 0.74355 0.89875 0.54246 0.0
Mg224 Mg 0.89582 0.0083 0.26249 0.0
O225 O 0.86471 0.97489 0.26326 0.0
O226 O 0.84786 0.98508 0.29822 0.0
Mg227 Mg 0.86911 0.02131 0.3207 0.0
C228 C 0.84862 0.97038 0.27815 0.0
C229 C 0.9172 0.0124 0.21376 0.0
O230 O 0.92728 0.03283 0.22887 0.0
O231 O 0.8695 0.03339 0.25298 0.0
O232 O 0.85617 0.04298 0.29007 0.0
O233 O 0.92128 0.98948 0.28261 0.0
O234 O 0.90027 0.01495 0.30139 0.0
C235 C 0.857 0.04531 0.26688 0.0
C236 C 0.91541 0.00032 0.30324 0.0
O237 O 0.90083 0.99716 0.22148 0.0
Mg238 Mg 0.28358 0.6096 0.50493 0.0
O239 O 0.28521 0.63666 0.54046 0.0
O240 O 0.32189 0.65834 0.552 0.0
Mg241 Mg 0.345 0.6417 0.52339 0.0
C242 C 0.2998 0.65339 0.55522 0.0
C243 C 0.22992 0.59514 0.51455 0.0
O244 O 0.23902 0.58188 0.53008 0.0
O245 O 0.28862 0.64149 0.4817 0.0
O246 O 0.32745 0.65792 0.49071 0.0
O247 O 0.29104 0.57925 0.52676 0.0
O248 O 0.31879 0.60609 0.51302 0.0
C249 C 0.30729 0.65663 0.47809 0.0
C250 C 0.31342 0.58718 0.52476 0.0
O251 O 0.24347 0.6075 0.50112 0.0
Mg252 Mg 0.39008 0.52027 0.75831 0.0
O253 O 0.36387 0.48169 0.75345 0.0
O254 O 0.351 0.47995 0.79152 0.0
Mg255 Mg 0.36553 0.51525 0.81865 0.0
C256 C 0.35152 0.47033 0.76886 0.0
C257 C 0.40679 0.50454 0.70586 0.0
O258 O 0.41038 0.4852 0.71666 0.0
O259 O 0.35858 0.54067 0.75597 0.0
O260 O 0.34582 0.53758 0.79376 0.0
O261 O 0.42038 0.50342 0.77286 0.0
O262 O 0.39584 0.51961 0.79659 0.0
C263 C 0.34445 0.54524 0.77241 0.0
C264 C 0.41354 0.50824 0.7949 0.0
O265 O 0.39555 0.52005 0.71678 0.0
Mg266 Mg 0.6296 0.99678 0.77736 0.0
O267 O 0.65171 0.03618 0.77922 0.0
O268 O 0.67157 0.04707 0.81752 0.0
Mg269 Mg 0.66004 0.01595 0.84073 0.0
C270 C 0.66643 0.05148 0.79533 0.0
C271 C 0.60441 0.98355 0.72331 0.0
O272 O 0.58839 0.97058 0.73509 0.0
O273 O 0.66338 0.98016 0.77636 0.0
O274 O 0.67973 0.99115 0.81606 0.0
O275 O 0.59897 0.01301 0.78985 0.0
O276 O 0.62681 0.00311 0.81544 0.0
C277 C 0.67973 0.98005 0.79384 0.0
C278 C 0.60809 0.01289 0.81251 0.0
O279 O 0.62412 0.99473 0.73534 0.0
Mg280 Mg 0.77569 0.62625 0.98859 0.0
O281 O 0.77153 0.64543 0.02768 0.0
O282 O 0.80581 0.67075 0.04304 0.0
Mg283 Mg 0.83233 0.66628 0.01361 0.0
C284 C 0.78414 0.66123 0.04508 0.0
C285 C 0.7276 0.59561 0.96465 0.0
O286 O 0.74284 0.58658 0.95085 0.0
O287 O 0.77497 0.66188 0.97125 0.0
O288 O 0.81105 0.68455 0.98515 0.0
O289 O 0.78746 0.59515 0.0054 0.0
O290 O 0.81235 0.62839 0.99776 0.0
C291 C 0.79103 0.68136 0.97173 0.0
C292 C 0.80914 0.60733 0.00647 0.0
O293 O 0.73544 0.61383 0.98188 0.0
Mg294 Mg 0.90671 0.5491 0.79995 0.0
O295 O 0.88609 0.51153 0.80788 0.0
O296 O 0.87354 0.51824 0.84587 0.0
Mg297 Mg 0.88844 0.5588 0.86317 0.0
C298 C 0.87454 0.50387 0.82563 0.0
C299 C 0.91909 0.52267 0.7496 0.0
O300 O 0.9359 0.51772 0.76508 0.0
O301 O 0.87184 0.56252 0.79501 0.0
O302 O 0.86263 0.57142 0.83412 0.0
O303 O 0.94121 0.54153 0.81525 0.0
O304 O 0.91712 0.55976 0.83816 0.0
C305 C 0.85841 0.57086 0.81042 0.0
C306 C 0.93652 0.55099 0.83702 0.0
O307 O 0.90379 0.53465 0.75831 0.0
Mg308 Mg 0.7647 0.3912 0.51256 0.0
O309 O 0.75021 0.36442 0.47555 0.0
O310 O 0.77706 0.33951 0.47093 0.0
Mg311 Mg 0.8083 0.35056 0.50133 0.0
C312 C 0.75766 0.34612 0.46361 0.0
C313 C 0.73005 0.41886 0.53774 0.0
O314 O 0.74863 0.4215 0.55441 0.0
O315 O 0.75453 0.3599 0.53639 0.0
O316 O 0.78352 0.33802 0.53045 0.0
O317 O 0.78565 0.41898 0.49159 0.0
O318 O 0.79903 0.38757 0.5059 0.0
C319 C 0.76515 0.34212 0.54104 0.0
C320 C 0.80248 0.40623 0.49358 0.0
O321 O 0.72985 0.40527 0.51682 0.0
Mg322 Mg 0.61987 0.50544 0.29109 0.0
O323 O 0.64615 0.54242 0.30271 0.0
O324 O 0.66351 0.54235 0.34114 0.0
Mg325 Mg 0.64652 0.50585 0.35481 0.0
C326 C 0.66091 0.55282 0.32154 0.0
C327 C 0.59919 0.50817 0.23639 0.0
O328 O 0.57945 0.49914 0.24568 0.0
O329 O 0.65079 0.48462 0.28607 0.0
O330 O 0.66461 0.48323 0.32565 0.0
O331 O 0.59111 0.52276 0.30775 0.0
O332 O 0.6143 0.5021 0.32829 0.0
C333 C 0.66494 0.47756 0.30201 0.0
C334 C 0.59758 0.51495 0.32839 0.0
O335 O 0.61876 0.51297 0.25047 0.0
Zn336 Zn 0.04127 0.00207 0.03571 0.0
Zn337 Zn 0.99255 0.00403 0.01031 0.0
C338 C 0.03752 0.95586 0.0509 0.0
O339 O 0.04807 0.97147 0.07066 0.0
C340 C 0.00523 0.04936 0.99473 0.0
O341 O 0.99525 0.03409 0.97455 0.0
O342 O 0.07613 0.00534 0.04792 0.0
O343 O 0.04146 0.01339 0.0015 0.0
O344 O 0.00934 0.98679 0.98399 0.0
C345 C 0.09314 0.01827 0.0388 0.0
O346 O 0.08849 0.03449 0.02407 0.0
O347 O 0.03103 0.96464 0.03134 0.0
C348 C 0.94457 0.01039 0.01383 0.0
O349 O 0.95054 0.00867 0.03741 0.0
O350 O 0.95882 0.0059 0.99764 0.0
O351 O 0.99095 0.9888 0.04193 0.0
O352 O 0.02157 0.0152 0.06277 0.0
O353 O 0.00737 0.04092 0.01552 0.0
C354 C 0.03018 0.99881 0.9826 0.0
C355 C 0.00147 0.00077 0.06253 0.0
Zn356 Zn 0.24304 0.74721 0.29355 0.0
Zn357 Zn 0.25881 0.78663 0.25279 0.0
C358 C 0.24044 0.70972 0.24588 0.0
O359 O 0.24695 0.70589 0.22315 0.0
C360 C 0.27714 0.83835 0.27722 0.0
O361 O 0.27249 0.83006 0.29841 0.0
O362 O 0.24818 0.72513 0.31996 0.0
O363 O 0.26824 0.77732 0.30499 0.0
O364 O 0.28558 0.77306 0.27071 0.0
C365 C 0.26724 0.71632 0.31949 0.0
O366 O 0.27989 0.71904 0.30042 0.0
O367 O 0.2473 0.73141 0.25847 0.0
C368 C 0.24092 0.78967 0.20479 0.0
O369 O 0.23164 0.8058 0.2191 0.0
O370 O 0.25424 0.77677 0.2152 0.0
O371 O 0.22529 0.78187 0.26426 0.0
O372 O 0.21212 0.7583 0.29251 0.0
O373 O 0.27199 0.82353 0.25673 0.0
C374 C 0.28705 0.77615 0.29452 0.0
C375 C 0.20874 0.77326 0.27707 0.0
Zn376 Zn 0.50079 0.01548 0.52476 0.0
Zn377 Zn 0.54882 0.00011 0.50664 0.0
C378 C 0.51807 0.06249 0.55442 0.0
O379 O 0.50867 0.04975 0.57143 0.0
C380 C 0.53603 0.95685 0.47523 0.0
O381 O 0.54916 0.97281 0.46334 0.0
O382 O 0.46692 0.0193 0.53042 0.0
O383 O 0.50007 0.00466 0.48744 0.0
O384 O 0.53721 0.02046 0.48186 0.0
C385 C 0.46016 0.03635 0.51924 0.0
O386 O 0.47471 0.04806 0.50507 0.0
O387 O 0.51854 0.05115 0.53251 0.0
C388 C 0.59015 0.98365 0.52112 0.0
O389 O 0.57587 0.97753 0.53815 0.0
O390 O 0.58303 0.99546 0.50401 0.0
O391 O 0.54914 0.01516 0.54208 0.0
O392 O 0.51426 0.9961 0.5505 0.0
O393 O 0.53078 0.96457 0.49695 0.0
C394 C 0.51507 0.0156 0.47429 0.0
C395 C 0.53604 0.00552 0.55747 0.0
Zn396 Zn 0.28211 0.25407 0.76872 0.0
Zn397 Zn 0.23203 0.26092 0.78445 0.0
C398 C 0.27343 0.2224 0.72343 0.0
O399 O 0.28707 0.2118 0.73775 0.0
C400 C 0.24286 0.28852 0.83477 0.0
O401 O 0.22722 0.30117 0.82638 0.0
O402 O 0.31653 0.25517 0.76207 0.0
O403 O 0.28005 0.28955 0.78097 0.0
O404 O 0.24382 0.28853 0.76366 0.0
C405 C 0.3209 0.26816 0.74447 0.0
O406 O 0.30517 0.28128 0.7373 0.0
O407 O 0.26565 0.24134 0.73326 0.0
C408 C 0.18949 0.24105 0.80157 0.0
O409 O 0.2052 0.22942 0.8116 0.0
O410 O 0.19661 0.25775 0.78805 0.0
O411 O 0.23567 0.2252 0.7728 0.0
O412 O 0.27186 0.22889 0.79133 0.0
O413 O 0.24831 0.27093 0.82001 0.0
C414 C 0.26502 0.30034 0.77037 0.0
C415 C 0.25098 0.21613 0.78529 0.0
Zn416 Zn 0.03122 0.98505 0.52428 0.0
Zn417 Zn 0.02479 0.03722 0.51862 0.0
C418 C 0.05949 0.99849 0.5718 0.0
O419 O 0.07315 0.98495 0.56019 0.0
C420 C 0.99603 0.02801 0.47341 0.0
O421 O 0.98545 0.04294 0.48768 0.0
O422 O 0.03492 0.94944 0.52508 0.0
O423 O 0.9962 0.98517 0.51704 0.0
O424 O 0.99761 0.02298 0.53732 0.0
C425 C 0.01833 0.93085 0.51711 0.0
O426 O -0.00172 0.9346 0.50604 0.0
O427 O 0.04034 0.00148 0.56007 0.0
C428 C 0.04424 0.08443 0.50755 0.0
O429 O 0.05861 0.0705 0.49796 0.0
O430 O 0.02692 0.07429 0.51849 0.0
O431 O 0.05832 0.03399 0.52976 0.0
O432 O 0.0553 0.00056 0.50236 0.0
O433 O 0.01504 0.02206 0.48253 0.0
C434 C 0.98608 0.00105 0.52909 0.0
C435 C 0.06774 0.0208 0.51392 0.0
Zn436 Zn 0.25256 0.78585 0.74002 0.0
Zn437 Zn 0.26222 0.73899 0.76182 0.0
C438 C 0.20735 0.7651 0.71079 0.0
O439 O 0.2181 0.77635 0.69355 0.0
C440 C 0.30578 0.75617 0.79104 0.0
O441 O 0.29214 0.74555 0.80667 0.0
O442 O 0.25246 0.82059 0.73122 0.0
O443 O 0.25977 0.79255 0.77765 0.0
O444 O 0.24331 0.75565 0.78652 0.0
C445 C 0.23363 0.8294 0.73431 0.0
O446 O 0.21517 0.81536 0.74166 0.0
O447 O 0.21869 0.76609 0.73221 0.0
C448 C 0.27698 0.69341 0.75531 0.0
O449 O 0.28845 0.70585 0.73927 0.0
O450 O 0.26327 0.70397 0.76864 0.0
O451 O 0.25098 0.73414 0.72502 0.0
O452 O 0.2736 0.76857 0.71778 0.0
O453 O 0.29664 0.75696 0.76899 0.0
C454 C 0.24906 0.77921 0.79246 0.0
C455 C 0.26362 0.74597 0.71052 0.0
Zn456 Zn 0.51956 0.02017 0.01259 0.0
Zn457 Zn 0.50486 0.99409 0.05531 0.0
C458 C 0.56291 0.05289 0.03242 0.0
O459 O 0.55237 0.06808 0.0205 0.0
C460 C 0.46646 0.96199 0.02257 0.0
O461 O 0.47947 0.94535 0.02727 0.0
O462 O 0.52484 0.03243 0.9797 0.0
O463 O 0.51359 0.98276 0.00363 0.0
O464 O 0.52869 0.97493 0.03977 0.0
C465 C 0.5432 0.02599 0.97114 0.0
O466 O 0.55518 0.01246 0.98382 0.0
O467 O 0.55164 0.03092 0.0332 0.0
C468 C 0.47853 0.97047 0.09346 0.0
O469 O 0.46582 0.95506 0.07478 0.0
O470 O 0.49718 0.98514 0.08929 0.0
O471 O 0.5143 0.0316 0.06394 0.0
O472 O 0.49593 0.03831 0.0292 0.0
O473 O 0.4735 0.98463 0.03262 0.0
C474 C 0.52446 0.9692 0.01607 0.0
C475 C 0.50296 0.04526 0.05226 0.0
Zn476 Zn 0.25165 0.23565 0.27251 0.0
Zn477 Zn 0.25886 0.29331 0.29148 0.0
C478 C 0.28099 0.22742 0.2354 0.0
O479 O 0.25936 0.21729 0.22503 0.0
C480 C 0.21576 0.28949 0.31463 0.0
O481 O 0.22968 0.30678 0.33093 0.0
O482 O 0.23986 0.19814 0.26599 0.0
O483 O 0.25661 0.24495 0.3108 0.0
O484 O 0.27824 0.28308 0.31946 0.0
C485 C 0.23748 0.18543 0.28407 0.0
O486 O 0.23498 0.1968 0.30627 0.0
O487 O 0.28362 0.23766 0.2582 0.0
C488 C 0.2695 0.34338 0.27778 0.0
O489 O 0.27938 0.33235 0.25949 0.0
O490 O 0.26146 0.33088 0.29464 0.0
O491 O 0.26597 0.28236 0.25669 0.0
O492 O 0.23317 0.25408 0.24929 0.0
O493 O 0.22436 0.28015 0.29545 0.0
C494 C 0.27002 0.26215 0.32623 0.0
C495 C 0.24808 0.27098 0.24179 0.0
Zn496 Zn 0.53635 0.47471 0.00996 0.0
Zn497 Zn 0.52272 0.52714 0.0058 0.0
C498 C 0.56948 0.49594 0.05391 0.0
O499 O 0.58522 0.4932 0.03787 0.0
C500 C 0.48956 0.51351 0.96301 0.0
O501 O 0.47678 0.52372 0.97907 0.0
O502 O 0.53638 0.43755 0.00625 0.0
O503 O 0.50191 0.47476 0.00234 0.0
O504 O 0.50043 0.50854 0.02798 0.0
C505 C 0.54489 0.42677 0.02342 0.0
O506 O 0.55748 0.44044 0.04329 0.0
O507 O 0.54736 0.4896 0.0463 0.0
C508 C 0.52881 0.57539 0.99181 0.0
O509 O 0.54202 0.56449 0.97678 0.0
O510 O 0.51834 0.56304 0.00755 0.0
O511 O 0.55848 0.52849 0.0094 0.0
O512 O 0.55757 0.49184 0.98709 0.0
O513 O 0.51086 0.51217 0.97026 0.0
C514 C 0.49131 0.48619 0.01846 0.0
C515 C 0.56759 0.51454 0.99377 0.0
Zn516 Zn 0.73654 0.28694 0.24273 0.0
Zn517 Zn 0.77658 0.23637 0.27161 0.0
C518 C 0.69605 0.29187 0.21266 0.0
O519 O 0.71297 0.30673 0.20375 0.0
C520 C 0.8119 0.25134 0.31203 0.0
O521 O 0.79428 0.23898 0.32231 0.0
O522 O 0.74467 0.32475 0.24811 0.0
O523 O 0.73931 0.27136 0.27572 0.0
O524 O 0.75348 0.2438 0.2964 0.0
C525 C 0.74682 0.33835 0.26929 0.0
O526 O 0.7483 0.32792 0.28978 0.0
O527 O 0.70173 0.27978 0.23005 0.0
C528 C 0.7936 0.19526 0.24829 0.0
O529 O 0.8069 0.21393 0.23994 0.0
O530 O 0.7776 0.19982 0.26231 0.0
O531 O 0.76687 0.25321 0.24343 0.0
O532 O 0.75352 0.27183 0.21412 0.0
O533 O 0.80911 0.25312 0.28877 0.0
C534 C 0.74142 0.2612 0.29564 0.0
C535 C 0.7649 0.25546 0.22045 0.0
Zn536 Zn 0.01632 0.52967 0.49797 0.0
Zn537 Zn 0.00035 0.51456 0.54614 0.0
C538 C 0.0562 0.56932 0.50802 0.0
O539 O 0.04147 0.57983 0.49493 0.0
C540 C 0.96543 0.47661 0.51724 0.0
O541 O 0.97674 0.46327 0.53085 0.0
O542 O 0.01803 0.53147 0.46125 0.0
O543 O 0.01489 0.49291 0.50019 0.0
O544 O 0.02635 0.49508 0.54029 0.0
C545 C 0.03532 0.52203 0.45354 0.0
O546 O 0.04868 0.51293 0.46958 0.0
O547 O 0.04874 0.54771 0.51366 0.0
C548 C 0.96653 0.51499 0.58016 0.0
O549 O 0.95728 0.52473 0.56158 0.0
O550 O 0.98671 0.50858 0.57854 0.0
O551 O 0.00901 0.55176 0.54852 0.0
O552 O 0.99163 0.54931 0.51056 0.0
O553 O 0.97248 0.50015 0.51981 0.0
C554 C 0.02492 0.48406 0.51796 0.0
C555 C 0.99685 0.56091 0.53271 0.0
Zn556 Zn 0.77381 0.74894 0.26155 0.0
Zn557 Zn 0.72491 0.76171 0.28755 0.0
C558 C 0.75321 0.71254 0.21755 0.0
O559 O 0.7541 0.69597 0.23297 0.0
C560 C 0.73993 0.78704 0.33643 0.0
O561 O 0.72445 0.80004 0.32839 0.0
O562 O 0.80765 0.74508 0.25897 0.0
O563 O 0.77454 0.78609 0.26822 0.0
O564 O 0.737 0.79106 0.26964 0.0
C565 C 0.81698 0.75343 0.2404 0.0
O566 O 0.80482 0.76541 0.22601 0.0
O567 O 0.75886 0.73571 0.22597 0.0
C568 C 0.68357 0.74366 0.30789 0.0
O569 O 0.69883 0.73012 0.31522 0.0
O570 O 0.69054 0.76079 0.29481 0.0
O571 O 0.72484 0.72642 0.2714 0.0
O572 O 0.76137 0.7267 0.28654 0.0
O573 O 0.74402 0.76866 0.32171 0.0
C574 C 0.75884 0.79982 0.26765 0.0
C575 C 0.73966 0.71598 0.28279 0.0
Zn576 Zn 0.74204 0.2762 0.81011 0.0
Zn577 Zn 0.75515 0.28579 0.75654 0.0
C578 C 0.715 0.22716 0.78596 0.0
O579 O 0.69605 0.23734 0.78822 0.0
C580 C 0.78618 0.33372 0.76559 0.0
O581 O 0.79739 0.32274 0.74843 0.0
O582 O 0.74112 0.27474 0.8474 0.0
O583 O 0.77614 0.29062 0.80746 0.0
O584 O 0.77747 0.26596 0.77273 0.0
C585 C 0.72933 0.25652 0.85631 0.0
O586 O 0.71451 0.23905 0.8411 0.0
O587 O 0.73555 0.24034 0.79319 0.0
C588 C 0.74709 0.29711 0.70757 0.0
O589 O 0.73448 0.31142 0.71986 0.0
O590 O 0.75859 0.28374 0.71958 0.0
O591 O 0.71945 0.27749 0.75805 0.0
O592 O 0.71755 0.29461 0.79677 0.0
O593 O 0.76693 0.32175 0.77182 0.0
C594 C 0.78695 0.27616 0.79449 0.0
C595 C 0.70831 0.28836 0.7742 0.0
Zn596 Zn 0.75806 0.73414 0.76827 0.0
Zn597 Zn 0.75903 0.78794 0.7839 0.0
C598 C 0.80978 0.73517 0.7667 0.0
O599 O 0.80572 0.71247 0.77272 0.0
C600 C 0.71436 0.78151 0.80404 0.0
O601 O 0.72765 0.79743 0.82205 0.0
O602 O 0.75547 0.69666 0.76056 0.0
O603 O 0.7513 0.74172 0.80466 0.0
O604 O 0.77713 0.77702 0.81263 0.0
C605 C 0.75078 0.68264 0.77728 0.0
O606 O 0.74316 0.69182 0.79807 0.0
O607 O 0.7929 0.74737 0.76586 0.0
C608 C 0.74962 0.83342 0.7729 0.0
O609 O 0.73752 0.81759 0.75407 0.0
O610 O 0.76163 0.82511 0.78964 0.0
O611 O 0.76908 0.78098 0.7494 0.0
O612 O 0.74112 0.74747 0.73927 0.0
O613 O 0.72387 0.77403 0.78469 0.0
C614 C 0.76611 0.75754 0.82011 0.0
C615 C 0.75464 0.76619 0.73284 0.0
Zn616 Zn 0.55223 0.51905 0.54371 0.0
Zn617 Zn 0.50134 0.51665 0.52576 0.0
C618 C 0.54869 0.4716 0.55744 0.0
O619 O 0.56053 0.48629 0.57719 0.0
C620 C 0.50223 0.56413 0.51388 0.0
O621 O 0.48761 0.54959 0.49591 0.0
O622 O 0.5877 0.52143 0.55253 0.0
O623 O 0.54853 0.53236 0.51064 0.0
O624 O 0.51648 0.50455 0.4949 0.0
C625 C 0.59648 0.50895 0.53531 0.0
O626 O 0.58313 0.50025 0.51407 0.0
O627 O 0.5415 0.48143 0.53885 0.0
C628 C 0.4505 0.50341 0.5333 0.0
O629 O 0.45745 0.49032 0.55026 0.0
O630 O 0.46546 0.51316 0.51943 0.0
O631 O 0.50671 0.50231 0.55763 0.0
O632 O 0.53554 0.53352 0.57275 0.0
O633 O 0.51217 0.5544 0.53103 0.0
C634 C 0.5353 0.51963 0.49175 0.0
C635 C 0.51676 0.51842 0.57592 0.0
Zn636 Zn 0.9961 0.51759 0.03033 0.0
Zn637 Zn 0.04372 0.47392 0.00523 0.0
C638 C 0.03074 0.56232 0.05371 0.0
O639 O 0.04129 0.54712 0.06558 0.0
C640 C 0.03693 0.43409 0.96588 0.0
O641 O 0.05069 0.45165 0.95647 0.0
O642 O 0.96114 0.52031 0.02879 0.0
O643 O 0.00436 0.49953 0.99725 0.0
O644 O 0.0387 0.49903 0.98184 0.0
C645 C 0.95566 0.53902 0.01951 0.0
O646 O 0.97212 0.5537 0.00983 0.0
O647 O 0.01342 0.55332 0.03707 0.0
C648 C 0.09566 0.4763 0.00637 0.0
O649 O 0.09323 0.48106 0.98318 0.0
O650 O 0.07768 0.47438 0.01888 0.0
O651 O 0.02523 0.48414 0.03258 0.0
O652 O 0.00608 0.50085 0.06061 0.0
O653 O 0.0302 0.43926 0.98747 0.0
C654 C 0.01976 0.50826 0.98322 0.0
C655 C 0.02132 0.48737 0.05524 0.0
H656 H 0.9605 0.16398 0.95312 0.0
H657 H 0.02267 0.17454 0.91179 0.0
H658 H 0.04093 0.1468 0.93667 0.0
H659 H 0.99301 0.15648 0.01499 0.0
H660 H 0.9687 0.13277 0.02064 0.0
H661 H 0.96282 0.15776 0.0038 0.0
H662 H 0.94061 0.12538 0.96652 0.0
H663 H 0.94619 0.10075 0.98368 0.0
H664 H 0.95561 0.10164 0.95268 0.0
H665 H 0.04893 0.11228 0.95956 0.0
H666 H 0.0449 0.07243 0.97708 0.0
H667 H 0.97805 0.08407 0.004 0.0
C668 C 0.9783 0.16114 0.94987 0.0
C669 C 0.9902 0.17156 0.93059 0.0
C670 C 0.01321 0.16683 0.92649 0.0
C671 C 0.02383 0.15125 0.94069 0.0
C672 C 0.01132 0.14065 0.95906 0.0
C673 C 0.98907 0.14548 0.96376 0.0
C674 C 0.97793 0.12915 0.98199 0.0
C675 C 0.97548 0.14499 0.00683 0.0
C676 C 0.95367 0.11329 0.97048 0.0
C677 C 0.99663 0.11318 0.98544 0.0
C678 C 0.01611 0.12064 0.97266 0.0
C679 C 0.03423 0.10679 0.97036 0.0
C680 C 0.0319 0.08427 0.98046 0.0
C681 C 0.01168 0.07595 0.99267 0.0
C682 C 0.99424 0.09089 0.99587 0.0
H683 H 0.09678 0.79245 0.1903 0.0
H684 H 0.05887 0.79605 0.2568 0.0
H685 H 0.0955 0.79378 0.28278 0.0
H686 H 0.13119 0.74913 0.20663 0.0
H687 H 0.15791 0.76344 0.19445 0.0
H688 H 0.1292 0.76722 0.18115 0.0
H689 H 0.14268 0.81537 0.18985 0.0
H690 H 0.17149 0.81166 0.20307 0.0
H691 H 0.1541 0.83016 0.22119 0.0
H692 H 0.13468 0.78597 0.30082 0.0
H693 H 0.17525 0.77736 0.31008 0.0
H694 H 0.18833 0.78168 0.23262 0.0
C695 C 0.0963 0.79316 0.21037 0.0
C696 C 0.07496 0.79438 0.2215 0.0
C697 C 0.07503 0.79522 0.24783 0.0
C698 C 0.09574 0.7939 0.26279 0.0
C699 C 0.11636 0.79221 0.2512 0.0
C700 C 0.11695 0.79227 0.22566 0.0
C701 C 0.14131 0.78969 0.21786 0.0
C702 C 0.1398 0.76596 0.19891 0.0
C703 C 0.15309 0.81312 0.20738 0.0
C704 C 0.15404 0.78749 0.24289 0.0
C705 C 0.13933 0.78889 0.26188 0.0
C706 C 0.14657 0.78538 0.28624 0.0
C707 C 0.16953 0.7804 0.29132 0.0
C708 C 0.18495 0.77935 0.27218 0.0
C709 C 0.1771 0.7831 0.24776 0.0
H710 H 0.47071 0.81323 0.45755 0.0
H711 H 0.51304 0.80128 0.39535 0.0
H712 H 0.53251 0.84561 0.40345 0.0
H713 H 0.46092 0.87347 0.44748 0.0
H714 H 0.46358 0.88593 0.48027 0.0
H715 H 0.45337 0.85294 0.47041 0.0
H716 H 0.48705 0.84326 0.50036 0.0
H717 H 0.49727 0.87623 0.51046 0.0
H718 H 0.51759 0.85738 0.49812 0.0
H719 H 0.54565 0.89109 0.4163 0.0
H720 H 0.5541 0.93517 0.43503 0.0
H721 H 0.5044 0.91835 0.49011 0.0
C722 C 0.4842 0.81987 0.44574 0.0
C723 C 0.49028 0.80371 0.42575 0.0
C724 C 0.50807 0.8132 0.41079 0.0
C725 C 0.51921 0.83839 0.4152 0.0
C726 C 0.51255 0.85382 0.43477 0.0
C727 C 0.49567 0.84496 0.45 0.0
C728 C 0.49178 0.8657 0.46969 0.0
C729 C 0.46587 0.86974 0.46678 0.0
C730 C 0.49885 0.86032 0.49623 0.0
C731 C 0.50893 0.88765 0.4629 0.0
C732 C 0.5206 0.88027 0.44263 0.0
C733 C 0.53678 0.89709 0.4323 0.0
C734 C 0.54135 0.92216 0.44306 0.0
C735 C 0.52992 0.93026 0.46409 0.0
C736 C 0.51348 0.91271 0.47414 0.0
H737 H 0.45053 0.25117 0.70983 0.0
H738 H 0.42624 0.26066 0.63409 0.0
H739 H 0.38557 0.25888 0.64581 0.0
H740 H 0.39303 0.20929 0.72146 0.0
H741 H 0.39561 0.22348 0.75373 0.0
H742 H 0.42209 0.22084 0.7384 0.0
H743 H 0.43702 0.26855 0.75011 0.0
H744 H 0.41044 0.27146 0.76498 0.0
H745 H 0.41852 0.2897 0.74036 0.0
H746 H 0.35055 0.26528 0.66696 0.0
H747 H 0.31978 0.27152 0.69499 0.0
H748 H 0.36476 0.2562 0.75747 0.0
C749 C 0.43646 0.2519 0.69549 0.0
C750 C 0.44164 0.25604 0.671 0.0
C751 C 0.42283 0.25745 0.65292 0.0
C752 C 0.39959 0.25648 0.6594 0.0
C753 C 0.39533 0.2538 0.68399 0.0
C754 C 0.413 0.25087 0.70167 0.0
C755 C 0.40378 0.25011 0.72724 0.0
C756 C 0.40361 0.2244 0.7357 0.0
C757 C 0.41831 0.27122 0.74681 0.0
C758 C 0.3786 0.25435 0.7213 0.0
C759 C 0.37425 0.2564 0.69619 0.0
C760 C 0.35338 0.26289 0.68648 0.0
C761 C 0.33615 0.26675 0.70266 0.0
C762 C 0.3399 0.26428 0.72837 0.0
C763 C 0.36134 0.25781 0.7378 0.0
H764 H 0.9639 0.80891 0.56977 0.0
H765 H 0.03499 0.80876 0.60412 0.0
H766 H 0.05172 0.8405 0.57843 0.0
H767 H 0.98125 0.82177 0.50625 0.0
H768 H 0.95956 0.84163 0.50349 0.0
H769 H 0.95385 0.81539 0.5206 0.0
H770 H 0.94717 0.84503 0.55957 0.0
H771 H 0.95293 0.87125 0.54268 0.0
H772 H 0.97024 0.87151 0.57207 0.0
H773 H 0.0597 0.87721 0.55502 0.0
H774 H 0.05828 0.91543 0.53572 0.0
H775 H 0.98198 0.89115 0.51646 0.0
C776 C 0.98308 0.81494 0.57142 0.0
C777 C -0.00188 0.80629 0.58899 0.0
C778 C 0.02309 0.81499 0.59072 0.0
C779 C 0.03277 0.83297 0.57614 0.0
C780 C 0.01728 0.8418 0.55971 0.0
C781 C 0.99296 0.83285 0.5571 0.0
C782 C 0.97981 0.84731 0.54046 0.0
C783 C 0.96792 0.83052 0.51626 0.0
C784 C 0.96148 0.85949 0.55455 0.0
C785 C 0.00039 0.86665 0.53514 0.0
C786 C 0.02192 0.86292 0.54602 0.0
C787 C 0.04305 0.87998 0.54591 0.0
C788 C 0.04205 0.90167 0.53497 0.0
C789 C 0.02004 0.90615 0.52441 0.0
C790 C -0.00085 0.888 0.52387 0.0
H791 H 0.42678 0.75585 0.87246 0.0
H792 H 0.46481 0.78985 0.81526 0.0
H793 H 0.42647 0.79453 0.7937 0.0
H794 H 0.37954 0.72017 0.83308 0.0
H795 H 0.35713 0.72404 0.8541 0.0
H796 H 0.3876 0.72622 0.86651 0.0
H797 H 0.38784 0.77026 0.89033 0.0
H798 H 0.35723 0.76815 0.87812 0.0
H799 H 0.3796 0.79419 0.8733 0.0
H800 H 0.38333 0.79077 0.77585 0.0
H801 H 0.33962 0.78038 0.76438 0.0
H802 H 0.33069 0.75006 0.83422 0.0
C803 C 0.4272 0.7649 0.85578 0.0
C804 C 0.44886 0.77263 0.84567 0.0
C805 C 0.44846 0.78393 0.82348 0.0
C806 C 0.42676 0.78667 0.8111 0.0
C807 C 0.40566 0.77829 0.82131 0.0
C808 C 0.40579 0.76791 0.84334 0.0
C809 C 0.38074 0.75898 0.84972 0.0
C810 C 0.37598 0.73068 0.8509 0.0
C811 C 0.37608 0.77379 0.87433 0.0
C812 C 0.36642 0.76521 0.82744 0.0
C813 C 0.38103 0.77649 0.81129 0.0
C814 C 0.37173 0.78234 0.78859 0.0
C815 C 0.34689 0.77633 0.7822 0.0
C816 C 0.3317 0.76456 0.79846 0.0
C817 C 0.34172 0.75934 0.82149 0.0
H818 H 0.45112 0.17167 0.07006 0.0
H819 H 0.49519 0.19142 0.14139 0.0
H820 H 0.5097 0.1517 0.13424 0.0
H821 H 0.43461 0.10581 0.07279 0.0
H822 H 0.4362 0.09674 0.03983 0.0
H823 H 0.42894 0.12659 0.05064 0.0
H824 H 0.46404 0.14883 0.0292 0.0
H825 H 0.47138 0.11905 0.01829 0.0
H826 H 0.49368 0.14321 0.03666 0.0
H827 H 0.51863 0.10948 0.11998 0.0
H828 H 0.52341 0.0687 0.0984 0.0
H829 H 0.47482 0.07689 0.03544 0.0
C830 C 0.46378 0.16763 0.08422 0.0
C831 C 0.47192 0.18467 0.10636 0.0
C832 C 0.48869 0.17874 0.12428 0.0
C833 C 0.497 0.15618 0.12042 0.0
C834 C 0.48855 0.13981 0.09846 0.0
C835 C 0.47247 0.14532 0.08055 0.0
C836 C 0.46668 0.12472 0.05831 0.0
C837 C 0.44003 0.11276 0.05522 0.0
C838 C 0.47441 0.13455 0.03419 0.0
C839 C 0.48196 0.10674 0.06655 0.0
C840 C 0.49428 0.11575 0.08986 0.0
C841 C 0.5092 0.10231 0.10166 0.0
C842 C 0.51175 0.07912 0.08923 0.0
C843 C 0.4996 0.06963 0.06514 0.0
C844 C 0.48449 0.0837 0.05374 0.0
H845 H 0.09706 0.2919 0.38275 0.0
H846 H 0.0611 0.23279 0.3241 0.0
H847 H 0.09861 0.23348 0.30455 0.0
H848 H 0.13471 0.32618 0.34323 0.0
H849 H 0.16006 0.33451 0.36663 0.0
H850 H 0.1303 0.32952 0.37606 0.0
H851 H 0.14098 0.29633 0.40291 0.0
H852 H 0.17076 0.30119 0.39353 0.0
H853 H 0.15264 0.27028 0.38841 0.0
H854 H 0.13996 0.24032 0.29131 0.0
H855 H 0.18246 0.25321 0.28527 0.0
H856 H 0.19161 0.30771 0.35249 0.0
C857 C 0.09706 0.27915 0.36577 0.0
C858 C 0.0761 0.2623 0.35497 0.0
C859 C 0.0769 0.24588 0.33276 0.0
C860 C 0.09813 0.2461 0.32148 0.0
C861 C 0.11846 0.26285 0.33262 0.0
C862 C 0.11814 0.2791 0.35424 0.0
C863 C 0.14255 0.29517 0.36239 0.0
C864 C 0.14185 0.32299 0.36205 0.0
C865 C 0.1523 0.29045 0.38835 0.0
C866 C 0.15659 0.28538 0.34199 0.0
C867 C 0.14236 0.26676 0.325 0.0
C868 C 0.15131 0.2549 0.30449 0.0
C869 C 0.17546 0.26235 0.30122 0.0
C870 C 0.19038 0.28145 0.31839 0.0
C871 C 0.18072 0.29301 0.33904 0.0
H872 H 0.95077 0.04222 0.19169 0.0
H873 H 0.90564 0.96854 0.18128 0.0
H874 H 0.9241 0.95723 0.14273 0.0
H875 H 0.94882 0.04947 0.12584 0.0
H876 H 0.97933 0.06574 0.12838 0.0
H877 H 0.96236 0.06803 0.15499 0.0
H878 H 0.99498 0.05262 0.18158 0.0
H879 H 0.01188 0.04994 0.15494 0.0
H880 H 0.00337 0.02327 0.17087 0.0
H881 H 0.94757 0.95367 0.10597 0.0
H882 H 0.97242 0.95891 0.07113 0.0
H883 H 0.00281 0.03491 0.10507 0.0
C884 C 0.94466 0.02373 0.18125 0.0
C885 C 0.92676 0.00622 0.18955 0.0
C886 C 0.91924 0.98227 0.17528 0.0
C887 C 0.92972 0.97564 0.15343 0.0
C888 C 0.94762 0.99318 0.14608 0.0
C889 C 0.95487 0.01683 0.15937 0.0
C890 C 0.97418 0.0323 0.14709 0.0
C891 C 0.96566 0.05524 0.13857 0.0
C892 C 0.99748 0.03998 0.16467 0.0
C893 C 0.97676 0.01358 0.12486 0.0
C894 C 0.96126 0.99114 0.12475 0.0
C895 C 0.95977 0.97113 0.10586 0.0
C896 C 0.97398 0.9743 0.08618 0.0
C897 C 0.98958 0.99729 0.08548 0.0
C898 C 0.99134 0.01703 0.10536 0.0
H899 H 0.26751 0.66641 0.45217 0.0
H900 H 0.34467 0.67737 0.45421 0.0
H901 H 0.34263 0.69398 0.41393 0.0
H902 H 0.25403 0.64606 0.38805 0.0
H903 H 0.22964 0.66232 0.38372 0.0
H904 H 0.23696 0.65312 0.41378 0.0
H905 H 0.24183 0.6989 0.43516 0.0
H906 H 0.23405 0.70819 0.40523 0.0
H907 H 0.26164 0.72326 0.42355 0.0
H908 H 0.33192 0.70411 0.37109 0.0
H909 H 0.31377 0.71387 0.33154 0.0
H910 H 0.24381 0.69935 0.35835 0.0
C911 C 0.28402 0.67276 0.4444 0.0
C912 C 0.30625 0.67051 0.45635 0.0
C913 C 0.32744 0.67903 0.44554 0.0
C914 C 0.32646 0.68835 0.42255 0.0
C915 C 0.30421 0.68943 0.41084 0.0
C916 C 0.2834 0.68248 0.42165 0.0
C917 C 0.26179 0.68542 0.40503 0.0
C918 C 0.2446 0.66023 0.39719 0.0
C919 C 0.24908 0.70512 0.41802 0.0
C920 C 0.27366 0.69449 0.38291 0.0
C921 C 0.29812 0.69645 0.38657 0.0
C922 C 0.31283 0.70307 0.3682 0.0
C923 C 0.30232 0.70841 0.34572 0.0
C924 C 0.27741 0.70764 0.34201 0.0
C925 C 0.26292 0.70036 0.36081 0.0
H926 H 0.56638 0.95961 0.68928 0.0
H927 H 0.62776 0.0205 0.70019 0.0
H928 H 0.61498 0.0335 0.66023 0.0
H929 H 0.56814 0.94529 0.62144 0.0
H930 H 0.53613 0.93759 0.61493 0.0
H931 H 0.55013 0.93274 0.64449 0.0
H932 H 0.52397 0.9601 0.6678 0.0
H933 H 0.5102 0.96539 0.6383 0.0
H934 H 0.52457 0.99156 0.66117 0.0
H935 H 0.59533 0.04148 0.62115 0.0
H936 H 0.57258 0.04082 0.58064 0.0
H937 H 0.52406 0.97396 0.59269 0.0
C938 C 0.57721 0.97552 0.6831 0.0
C939 C 0.59802 0.9891 0.69791 0.0
C940 C 0.61182 0.00974 0.68916 0.0
C941 C 0.60462 0.01741 0.66657 0.0
C942 C 0.58377 0.00406 0.65277 0.0
C943 C 0.57046 0.98327 0.6603 0.0
C944 C 0.54921 0.97192 0.64121 0.0
C945 C 0.55102 0.94531 0.62984 0.0
C946 C 0.52559 0.97228 0.65282 0.0
C947 C 0.55256 0.98988 0.62202 0.0
C948 C 0.57256 0.00832 0.62936 0.0
C949 C 0.57975 0.02705 0.61503 0.0
C950 C 0.56666 0.02649 0.59206 0.0
C951 C 0.54665 0.00724 0.58349 0.0
C952 C 0.53914 0.98899 0.59892 0.0
H953 H 0.26407 0.35933 0.9761 0.0
H954 H 0.30856 0.30595 0.99297 0.0
H955 H 0.30004 0.2851 0.94939 0.0
H956 H 0.2191 0.31525 0.9328 0.0
H957 H 0.2152 0.33779 0.91201 0.0
H958 H 0.22389 0.34803 0.94497 0.0
H959 H 0.26089 0.37791 0.93427 0.0
H960 H 0.25243 0.36762 0.90131 0.0
H961 H 0.28158 0.36551 0.91505 0.0
H962 H 0.28839 0.27092 0.90366 0.0
H963 H 0.27274 0.26329 0.85896 0.0
H964 H 0.23561 0.32548 0.87117 0.0
C965 C 0.27176 0.34306 0.97073 0.0
C966 C 0.28701 0.33435 0.98811 0.0
C967 C 0.29688 0.31311 0.98012 0.0
C968 C 0.29215 0.30107 0.95535 0.0
C969 C 0.27747 0.31038 0.93862 0.0
C970 C 0.26726 0.33077 0.94594 0.0
C971 C 0.25251 0.33721 0.92395 0.0
C972 C 0.22611 0.33439 0.92872 0.0
C973 C 0.26246 0.36363 0.91832 0.0
C974 C 0.25619 0.31736 0.90319 0.0
C975 C 0.27066 0.30211 0.9121 0.0
C976 C 0.27693 0.28266 0.89647 0.0
C977 C 0.26801 0.27852 0.87106 0.0
C978 C 0.25292 0.29374 0.86148 0.0
C979 C 0.24706 0.31346 0.87786 0.0
H980 H 0.91058 0.02481 0.34937 0.0
H981 H 0.94716 0.96995 0.31253 0.0
H982 H 0.97052 0.96921 0.35274 0.0
H983 H 0.96015 0.05975 0.38719 0.0
H984 H 0.94451 0.06656 0.41412 0.0
H985 H 0.92881 0.06077 0.38318 0.0
H986 H 0.89817 0.02526 0.3964 0.0
H987 H 0.91363 0.03112 0.42753 0.0
H988 H 0.90858 0.00024 0.40991 0.0
H989 H 0.99263 0.97757 0.3962 0.0
H990 H 0.01012 0.99285 0.43994 0.0
H991 H 0.95866 0.04186 0.44788 0.0
C992 C 0.92307 0.01217 0.34985 0.0
C993 C 0.92694 0.99733 0.32784 0.0
C994 C 0.9438 0.98139 0.3292 0.0
C995 C 0.95717 0.98085 0.35195 0.0
C996 C 0.95338 0.99625 0.37317 0.0
C997 C 0.93655 0.01141 0.37236 0.0
C998 C 0.93677 0.02715 0.39745 0.0
C999 C 0.94293 0.05521 0.39534 0.0
C1000 C 0.91287 0.02053 0.40847 0.0
C1001 C 0.95665 0.01884 0.41237 0.0
C1002 C 0.96599 0.00096 0.39811 0.0
C1003 C 0.98526 0.99135 0.40764 0.0
C1004 C 0.99513 0.0002 0.43244 0.0
C1005 C 0.98571 0.01846 0.44734 0.0
C1006 C 0.96617 0.02774 0.43708 0.0
H1007 H 0.32422 0.6903 0.59299 0.0
H1008 H 0.25349 0.64764 0.56558 0.0
H1009 H 0.23681 0.66913 0.60054 0.0
H1010 H 0.31775 0.68934 0.65804 0.0
H1011 H 0.33393 0.72074 0.66808 0.0
H1012 H 0.34061 0.70302 0.64006 0.0
H1013 H 0.33292 0.73832 0.61464 0.0
H1014 H 0.32611 0.75611 0.6426 0.0
H1015 H 0.30479 0.7487 0.61514 0.0
H1016 H 0.22767 0.69242 0.63929 0.0
H1017 H 0.22668 0.71705 0.68045 0.0
H1018 H 0.30246 0.74649 0.68331 0.0
C1019 C 0.30521 0.68563 0.59424 0.0
C1020 C 0.29025 0.6672 0.57638 0.0
C1021 C 0.26545 0.66161 0.57888 0.0
C1022 C 0.2557 0.67379 0.59869 0.0
C1023 C 0.27086 0.69169 0.61593 0.0
C1024 C 0.29505 0.69773 0.61401 0.0
C1025 C 0.30729 0.71719 0.6358 0.0
C1026 C 0.326 0.70695 0.65142 0.0
C1027 C 0.31843 0.74153 0.62648 0.0
C1028 C 0.2862 0.72076 0.65035 0.0
C1029 C 0.26539 0.70582 0.6384 0.0
C1030 C 0.24375 0.70447 0.6487 0.0
C1031 C 0.24337 0.71848 0.67206 0.0
C1032 C 0.26441 0.73384 0.68477 0.0
C1033 C 0.28604 0.73533 0.67362 0.0
H1034 H 0.62398 0.01562 0.86178 0.0
H1035 H 0.56721 0.03245 0.81261 0.0
H1036 H 0.54662 0.04435 0.84953 0.0
H1037 H 0.58947 0.98633 0.90043 0.0
H1038 H 0.60878 0.99795 0.929 0.0
H1039 H 0.62117 0.99571 0.8995 0.0
H1040 H 0.64034 0.04281 0.90828 0.0
H1041 H 0.6281 0.04519 0.93805 0.0
H1042 H 0.62191 0.06558 0.91571 0.0
H1043 H 0.52946 0.04786 0.8912 0.0
H1044 H 0.51748 0.04244 0.93356 0.0
H1045 H 0.58617 0.02386 0.95447 0.0
C1046 C 0.60768 0.02265 0.85872 0.0
C1047 C 0.5973 0.02328 0.83435 0.0
C1048 C 0.57556 0.03198 0.83118 0.0
C1049 C 0.5638 0.03888 0.85203 0.0
C1050 C 0.57425 0.03734 0.87583 0.0
C1051 C 0.5959 0.02973 0.87923 0.0
C1052 C 0.60223 0.02697 0.90625 0.0
C1053 C 0.60558 0.00016 0.90893 0.0
C1054 C 0.62446 0.0463 0.91775 0.0
C1055 C 0.58014 0.03277 0.9173 0.0
C1056 C 0.56438 0.03927 0.8997 0.0
C1057 C 0.54187 0.04331 0.90527 0.0
C1058 C 0.53519 0.04014 0.9293 0.0
C1059 C 0.5509 0.03264 0.94714 0.0
C1060 C 0.5738 0.02961 0.94118 0.0
H1061 H 0.30533 0.32303 0.12638 0.0
H1062 H 0.23523 0.3325 0.09736 0.0
H1063 H 0.21739 0.31 0.13051 0.0
H1064 H 0.28859 0.26173 0.14755 0.0
H1065 H 0.30974 0.27116 0.17508 0.0
H1066 H 0.31552 0.28421 0.14672 0.0
H1067 H 0.32043 0.32869 0.17209 0.0
H1068 H 0.31405 0.31518 0.20003 0.0
H1069 H 0.29639 0.33659 0.18922 0.0
H1070 H 0.20782 0.28792 0.16899 0.0
H1071 H 0.20824 0.2729 0.21058 0.0
H1072 H 0.28512 0.28105 0.21436 0.0
C1073 C 0.28613 0.31986 0.1265 0.0
C1074 C 0.27162 0.32915 0.10898 0.0
C1075 C 0.24667 0.32534 0.11045 0.0
C1076 C 0.2364 0.31249 0.12914 0.0
C1077 C 0.25136 0.30382 0.14632 0.0
C1078 C 0.27575 0.30759 0.14518 0.0
C1079 C 0.28844 0.29915 0.16723 0.0
C1080 C 0.30131 0.27778 0.1586 0.0
C1081 C 0.30584 0.32122 0.18307 0.0
C1082 C 0.26746 0.2901 0.18113 0.0
C1083 C 0.24611 0.29247 0.16872 0.0
C1084 C 0.22445 0.28588 0.17873 0.0
C1085 C 0.2248 0.27726 0.20224 0.0
C1086 C 0.24669 0.27587 0.21554 0.0
C1087 C 0.26812 0.28194 0.20455 0.0
H1088 H 0.1819 0.92114 0.03288 0.0
H1089 H 0.23768 0.9831 0.02362 0.0
H1090 H 0.20931 0.0118 0.02775 0.0
H1091 H 0.13357 0.94144 -0.0009 0.0
H1092 H 0.11198 0.93163 0.02016 0.0
H1093 H 0.13661 0.91571 0.01605 0.0
H1094 H 0.14865 0.92442 0.06403 0.0
H1095 H 0.12416 0.94056 0.06817 0.0
H1096 H 0.15414 0.95612 0.0798 0.0
H1097 H 0.17483 0.0337 0.03107 0.0
H1098 H 0.13612 0.04734 0.03426 0.0
H1099 H 0.10315 0.97224 0.04432 0.0
C1100 C 0.18803 0.94071 0.03158 0.0
C1101 C 0.21199 0.94986 0.02785 0.0
C1102 C 0.21944 0.97566 0.02654 0.0
C1103 C 0.20346 0.99215 0.02886 0.0
C1104 C 0.18009 0.98269 0.03283 0.0
C1105 C 0.17234 0.95763 0.0343 0.0
C1106 C 0.14626 0.95253 0.03898 0.0
C1107 C 0.13122 0.93425 0.01728 0.0
C1108 C 0.14313 0.94284 0.06425 0.0
C1109 C 0.14062 0.97856 0.03963 0.0
C1110 C 0.16037 0.99565 0.03591 0.0
C1111 C 0.15928 0.02058 0.03432 0.0
C1112 C 0.13728 0.02819 0.03621 0.0
C1113 C 0.1168 0.01102 0.04001 0.0
C1114 C 0.11866 0.98597 0.04209 0.0
H1115 H 0.6924 0.60609 0.99382 0.0
H1116 H 0.706 0.55534 0.93061 0.0
H1117 H 0.66553 0.53053 0.9297 0.0
H1118 H 0.66136 0.56086 0.02508 0.0
H1119 H 0.6399 0.57901 0.03587 0.0
H1120 H 0.66895 0.59451 0.03004 0.0
H1121 H 0.64958 0.61957 -0.00076 0.0
H1122 H 0.62041 0.60431 0.00517 0.0
H1123 H 0.62845 0.6031 0.97351 0.0
H1124 H 0.6255 0.50884 0.9383 0.0
H1125 H 0.58737 0.49299 0.9543 0.0
H1126 H 0.59927 0.55812 0.01146 0.0
C1127 C 0.68671 0.59007 0.97944 0.0
C1128 C 0.70239 0.58267 0.96227 0.0
C1129 C 0.69432 0.56141 0.94394 0.0
C1130 C 0.67135 0.54718 0.94326 0.0
C1131 C 0.65658 0.55458 0.96088 0.0
C1132 C 0.66379 0.57568 0.97845 0.0
C1133 C 0.64484 0.57881 0.99604 0.0
C1134 C 0.65434 0.57826 0.02337 0.0
C1135 C 0.63525 0.60288 0.99332 0.0
C1136 C 0.62616 0.55581 0.98601 0.0
C1137 C 0.63326 0.54217 0.96566 0.0
C1138 C 0.61958 0.51953 0.954 0.0
C1139 C 0.59802 0.51061 0.96332 0.0
C1140 C 0.59031 0.52434 0.98409 0.0
C1141 C 0.60456 0.54732 0.99542 0.0
H1142 H 0.68909 0.44926 0.32928 0.0
H1143 H 0.67758 0.46821 0.25421 0.0
H1144 H 0.70267 0.43848 0.23882 0.0
H1145 H 0.75105 0.43865 0.32588 0.0
H1146 H 0.74609 0.41262 0.34336 0.0
H1147 H 0.73012 0.4379 0.34915 0.0
H1148 H 0.68996 0.40638 0.34049 0.0
H1149 H 0.70579 0.3811 0.3348 0.0
H1150 H 0.68347 0.38556 0.31124 0.0
H1151 H 0.72551 0.40375 0.23083 0.0
H1152 H 0.7421 0.36525 0.23033 0.0
H1153 H 0.73832 0.36867 0.31059 0.0
C1154 C 0.69228 0.44764 0.30971 0.0
C1155 C 0.68149 0.46126 0.29299 0.0
C1156 C 0.6857 0.45807 0.2674 0.0
C1157 C 0.70004 0.44133 0.25851 0.0
C1158 C 0.71009 0.42792 0.27544 0.0
C1159 C 0.70636 0.43088 0.3005 0.0
C1160 C 0.71718 0.41252 0.31433 0.0
C1161 C 0.73731 0.42625 0.33437 0.0
C1162 C 0.69795 0.39538 0.32588 0.0
C1163 C 0.72693 0.39821 0.29297 0.0
C1164 C 0.72304 0.40767 0.27078 0.0
C1165 C 0.72896 0.39642 0.24816 0.0
C1166 C 0.73841 0.37454 0.24808 0.0
C1167 C 0.74167 0.36396 0.27045 0.0
C1168 C 0.73647 0.37647 0.29325 0.0
H1169 H 0.82704 0.45344 0.49484 0.0
H1170 H 0.83045 0.37577 0.47258 0.0
H1171 H 0.87297 0.38782 0.46662 0.0
H1172 H 0.87538 0.48173 0.45487 0.0
H1173 H 0.88638 0.50714 0.47983 0.0
H1174 H 0.85501 0.49357 0.47492 0.0
H1175 H 0.85621 0.48537 0.52116 0.0
H1176 H 0.88744 0.4986 0.52613 0.0
H1177 H 0.87707 0.46729 0.53257 0.0
H1178 H 0.91562 0.4061 0.47353 0.0
H1179 H 0.95525 0.42948 0.49199 0.0
H1180 H 0.92532 0.49591 0.50941 0.0
C1181 C 0.83652 0.43921 0.48744 0.0
C1182 C 0.82561 0.41375 0.48397 0.0
C1183 C 0.83861 0.39538 0.47534 0.0
C1184 C 0.86271 0.40209 0.4717 0.0
C1185 C 0.87347 0.42727 0.47671 0.0
C1186 C 0.86074 0.44565 0.48409 0.0
C1187 C 0.87724 0.47064 0.49248 0.0
C1188 C 0.87326 0.48938 0.47444 0.0
C1189 C 0.87431 0.48105 0.51969 0.0
C1190 C 0.90124 0.46304 0.49042 0.0
C1191 C 0.89864 0.43808 0.48065 0.0
C1192 C 0.91798 0.42583 0.48039 0.0
C1193 C 0.94037 0.43918 0.49103 0.0
C1194 C 0.94323 0.46449 0.5017 0.0
C1195 C 0.92364 0.47679 0.50057 0.0
H1196 H 0.32404 0.10225 0.33385 0.0
H1197 H 0.32867 0.07391 0.25613 0.0
H1198 H 0.29475 0.0932 0.24311 0.0
H1199 H 0.25835 0.0985 0.33085 0.0
H1200 H 0.26167 0.12789 0.35103 0.0
H1201 H 0.28341 0.1082 0.35451 0.0
H1202 H 0.31674 0.14505 0.34943 0.0
H1203 H 0.2955 0.16494 0.34491 0.0
H1204 H 0.3154 0.15983 0.32149 0.0
H1205 H 0.26406 0.12009 0.23807 0.0
H1206 H 0.24072 0.15392 0.24143 0.0
H1207 H 0.25595 0.16437 0.32236 0.0
C1208 C 0.31745 0.09944 0.31417 0.0
C1209 C 0.32885 0.08637 0.29604 0.0
C1210 C 0.32017 0.08381 0.27037 0.0
C1211 C 0.3008 0.09454 0.2628 0.0
C1212 C 0.29024 0.10775 0.28112 0.0
C1213 C 0.29828 0.11023 0.30628 0.0
C1214 C 0.28613 0.12811 0.32188 0.0
C1215 C 0.27152 0.11487 0.34068 0.0
C1216 C 0.30453 0.15081 0.33521 0.0
C1217 C 0.27009 0.13544 0.30158 0.0
C1218 C 0.27257 0.12337 0.27819 0.0
C1219 C 0.26154 0.12922 0.25634 0.0
C1220 C 0.24826 0.14842 0.25841 0.0
C1221 C 0.24614 0.16151 0.28217 0.0
C1222 C 0.25656 0.15424 0.30399 0.0
H1223 H 0.36151 0.11935 0.49916 0.0
H1224 H 0.31491 0.0701 0.53887 0.0
H1225 H 0.34751 0.04723 0.54744 0.0
H1226 H 0.38787 0.0727 0.4686 0.0
H1227 H 0.41708 0.09195 0.47031 0.0
H1228 H 0.39106 0.1061 0.46982 0.0
H1229 H 0.40842 0.1349 0.51135 0.0
H1230 H 0.43459 0.12091 0.5118 0.0
H1231 H 0.41738 0.12119 0.53834 0.0
H1232 H 0.38485 0.02803 0.54926 0.0
H1233 H 0.42349 0.01456 0.54422 0.0
H1234 H 0.44437 0.07568 0.50189 0.0
C1235 C 0.35832 0.10414 0.51019 0.0
C1236 C 0.33575 0.09667 0.51859 0.0
C1237 C 0.33213 0.07626 0.53242 0.0
C1238 C 0.35053 0.06314 0.53735 0.0
C1239 C 0.3724 0.0706 0.52822 0.0
C1240 C 0.37635 0.09068 0.51498 0.0
C1241 C 0.40084 0.09396 0.50576 0.0
C1242 C 0.39909 0.09099 0.47692 0.0
C1243 C 0.41622 0.11924 0.51752 0.0
C1244 C 0.40997 0.07245 0.51562 0.0
C1245 C 0.39347 0.05926 0.52871 0.0
C1246 C 0.39795 0.03833 0.53915 0.0
C1247 C 0.4199 0.03077 0.53615 0.0
C1248 C 0.43695 0.044 0.52263 0.0
C1249 C 0.43176 0.06509 0.51232 0.0
H1250 H 0.65199 0.58735 0.29118 0.0
H1251 H 0.70347 0.57427 0.34901 0.0
H1252 H 0.7291 0.61471 0.34559 0.0
H1253 H 0.69327 0.61648 0.25293 0.0
H1254 H 0.67565 0.63912 0.2452 0.0
H1255 H 0.66125 0.6093 0.25238 0.0
H1256 H 0.64073 0.63168 0.28706 0.0
H1257 H 0.65523 0.66172 0.28041 0.0
H1258 H 0.65866 0.65382 0.31172 0.0
H1259 H 0.75012 0.6555 0.33417 0.0
H1260 H 0.76364 0.69516 0.31788 0.0
H1261 H 0.69751 0.68262 0.26903 0.0
C1262 C 0.66864 0.593 0.30317 0.0
C1263 C 0.67579 0.57757 0.32029 0.0
C1264 C 0.69759 0.58579 0.33582 0.0
C1265 C 0.7123 0.60869 0.33395 0.0
C1266 C 0.7048 0.62334 0.31674 0.0
C1267 C 0.68335 0.61597 0.30184 0.0
C1268 C 0.67926 0.63536 0.28514 0.0
C1269 C 0.67724 0.6244 0.25726 0.0
C1270 C 0.65716 0.6463 0.29146 0.0
C1271 C 0.70198 0.65457 0.29263 0.0
C1272 C 0.71652 0.64724 0.3108 0.0
C1273 C 0.73879 0.66154 0.32009 0.0
C1274 C 0.74636 0.68398 0.31064 0.0
C1275 C 0.73161 0.69202 0.29224 0.0
C1276 C 0.70911 0.67707 0.28322 0.0
H1277 H 0.87439 0.46616 0.78689 0.0
H1278 H 0.84245 0.48316 0.85578 0.0
H1279 H 0.81658 0.44147 0.84799 0.0
H1280 H 0.82157 0.43283 0.75062 0.0
H1281 H 0.83581 0.40981 0.73423 0.0
H1282 H 0.85262 0.44064 0.74562 0.0
H1283 H 0.88374 0.42164 0.77053 0.0
H1284 H 0.86714 0.39072 0.75905 0.0
H1285 H 0.87396 0.40058 0.79232 0.0
H1286 H 0.79244 0.39895 0.8315 0.0
H1287 H 0.77388 0.35722 0.80899 0.0
H1288 H 0.82225 0.36746 0.75153 0.0
C1289 C 0.86213 0.46108 0.80049 0.0
C1290 C 0.86048 0.47804 0.82195 0.0
C1291 C 0.84415 0.47055 0.83924 0.0
C1292 C 0.8293 0.44691 0.83495 0.0
C1293 C 0.8311 0.43085 0.81341 0.0
C1294 C 0.84728 0.43748 0.79661 0.0
C1295 C 0.84554 0.41677 0.77486 0.0
C1296 C 0.83846 0.42555 0.74986 0.0
C1297 C 0.86899 0.40684 0.77416 0.0
C1298 C 0.82567 0.39759 0.78193 0.0
C1299 C 0.81751 0.40612 0.80418 0.0
C1300 C 0.7988 0.39198 0.81416 0.0
C1301 C 0.78829 0.36836 0.80117 0.0
C1302 C 0.79665 0.35908 0.77855 0.0
C1303 C 0.81556 0.37398 0.76886 0.0
H1304 H 0.03987 0.83912 0.12141 0.0
H1305 H 0.98523 0.7972 0.06411 0.0
H1306 H 0.99191 0.83164 0.03871 0.0
H1307 H 0.02284 0.8945 0.12064 0.0
H1308 H 0.05217 0.91388 0.12554 0.0
H1309 H 0.04732 0.88403 0.13652 0.0
H1310 H 0.08048 0.87051 0.11097 0.0
H1311 H 0.08569 0.90056 0.10009 0.0
H1312 H 0.07907 0.87236 0.07782 0.0
H1313 H -0.00031 0.8732 0.02298 0.0
H1314 H 0.00852 0.91811 0.01827 0.0
H1315 H 0.05727 0.9326 0.08634 0.0
C1316 C 0.02997 0.83674 0.10309 0.0
C1317 C 0.01212 0.81544 0.09472 0.0
C1318 C -0.00093 0.81335 0.0709 0.0
C1319 C 0.00279 0.83278 0.05627 0.0
C1320 C 0.01974 0.85408 0.06563 0.0
C1321 C 0.03334 0.85603 0.08838 0.0
C1322 C 0.0482 0.88195 0.09575 0.0
C1323 C 0.04225 0.8943 0.12109 0.0
C1324 C 0.07495 0.8813 0.09617 0.0
C1325 C 0.0399 0.8946 0.0743 0.0
C1326 C 0.0239 0.87816 0.0568 0.0
C1327 C 0.01256 0.88615 0.03631 0.0
C1328 C 0.01759 0.91166 0.03382 0.0
C1329 C 0.03349 0.92878 0.05198 0.0
C1330 C 0.04503 0.91995 0.07214 0.0
H1331 H 0.90584 0.21755 0.80201 0.0
H1332 H 0.91194 0.24108 0.88227 0.0
H1333 H 0.87581 0.25915 0.87736 0.0
H1334 H 0.88405 0.27131 0.78318 0.0
H1335 H 0.86348 0.2534 0.7577 0.0
H1336 H 0.89033 0.24271 0.76725 0.0
H1337 H 0.86516 0.20033 0.77377 0.0
H1338 H 0.83825 0.21088 0.76424 0.0
H1339 H 0.84169 0.19995 0.79418 0.0
H1340 H 0.83966 0.27487 0.86421 0.0
H1341 H 0.80398 0.28604 0.8438 0.0
H1342 H 0.81949 0.25147 0.77166 0.0
C1343 C 0.89954 0.22661 0.81847 0.0
C1344 C 0.9115 0.22767 0.8426 0.0
C1345 C 0.90277 0.23952 0.86375 0.0
C1346 C 0.88237 0.25007 0.8611 0.0
C1347 C 0.8708 0.24848 0.83716 0.0
C1348 C 0.8789 0.23696 0.81619 0.0
C1349 C 0.86253 0.23724 0.79275 0.0
C1350 C 0.8759 0.25205 0.77412 0.0
C1351 C 0.85124 0.21051 0.78052 0.0
C1352 C 0.84405 0.25076 0.80391 0.0
C1353 C 0.84938 0.2572 0.82954 0.0
C1354 C 0.83525 0.26994 0.84415 0.0
C1355 C 0.81502 0.27625 0.83232 0.0
C1356 C 0.8089 0.26966 0.80609 0.0
C1357 C 0.82366 0.25671 0.79173 0.0
H1358 H 0.51064 0.19202 0.63294 0.0
H1359 H 0.50694 0.2209 0.56199 0.0
H1360 H 0.51824 0.18273 0.54096 0.0
H1361 H 0.55934 0.15588 0.62174 0.0
H1362 H 0.54492 0.1303 0.6364 0.0
H1363 H 0.54119 0.16173 0.64683 0.0
H1364 H 0.49526 0.14753 0.63895 0.0
H1365 H 0.49887 0.11616 0.62861 0.0
H1366 H 0.48203 0.13199 0.6084 0.0
H1367 H 0.52595 0.14027 0.52695 0.0
H1368 H 0.5252 0.09491 0.51997 0.0
H1369 H 0.52142 0.09229 0.59956 0.0
C1370 C 0.51297 0.19051 0.61314 0.0
C1371 C 0.5084 0.2094 0.59905 0.0
C1372 C 0.51063 0.20659 0.57302 0.0
C1373 C 0.51718 0.1851 0.561 0.0
C1374 C 0.52116 0.1665 0.57527 0.0
C1375 C 0.51894 0.16886 0.60074 0.0
C1376 C 0.52082 0.14476 0.61098 0.0
C1377 C 0.54289 0.14839 0.63012 0.0
C1378 C 0.49788 0.13451 0.62239 0.0
C1379 C 0.52371 0.1283 0.58718 0.0
C1380 C 0.52449 0.1414 0.56693 0.0
C1381 C 0.52566 0.12986 0.5427 0.0
C1382 C 0.52527 0.10408 0.53893 0.0
C1383 C 0.52329 0.09008 0.55923 0.0
C1384 C 0.52315 0.10254 0.58372 0.0
H1385 H 0.5551 0.77109 0.33842 0.0
H1386 H 0.54167 0.69742 0.36184 0.0
H1387 H 0.58072 0.69056 0.3497 0.0
H1388 H 0.58638 0.7541 0.2845 0.0
H1389 H 0.60762 0.78314 0.28932 0.0
H1390 H 0.57813 0.78226 0.29905 0.0
H1391 H 0.59641 0.80135 0.34416 0.0
H1392 H 0.62594 0.80229 0.33457 0.0
H1393 H 0.61717 0.78622 0.36046 0.0
H1394 H 0.62134 0.69187 0.33687 0.0
H1395 H 0.66173 0.70129 0.32375 0.0
H1396 H 0.64966 0.77385 0.3077 0.0
C1397 C 0.56031 0.75347 0.34084 0.0
C1398 C 0.54523 0.73479 0.35108 0.0
C1399 C 0.55282 0.71204 0.35405 0.0
C1400 C 0.57499 0.70791 0.34717 0.0
C1401 C 0.58943 0.72667 0.33727 0.0
C1402 C 0.58248 0.74899 0.33403 0.0
C1403 C 0.60183 0.7662 0.32347 0.0
C1404 C 0.59295 0.77174 0.29754 0.0
C1405 C 0.61087 0.79045 0.34176 0.0
C1406 C 0.62075 0.75009 0.32152 0.0
C1407 C 0.6131 0.72736 0.32958 0.0
C1408 C 0.62751 0.70954 0.33039 0.0
C1409 C 0.65046 0.71511 0.32294 0.0
C1410 C 0.65884 0.73827 0.31465 0.0
C1411 C 0.64366 0.7559 0.31372 0.0
H1412 H 0.99697 0.20534 0.47813 0.0
H1413 H 0.06303 0.22711 0.4453 0.0
H1414 H 0.07926 0.19349 0.46297 0.0
H1415 H 0.02364 0.18475 0.53565 0.0
H1416 H -0.00104 0.15903 0.5344 0.0
H1417 H 0.99425 0.18752 0.52317 0.0
H1418 H 0.97586 0.16226 0.48021 0.0
H1419 H 0.98061 0.1338 0.49121 0.0
H1420 H 0.99287 0.14247 0.46313 0.0
H1421 H 0.08609 0.15436 0.47898 0.0
H1422 H 0.08288 0.11235 0.49148 0.0
H1423 H 0.01207 0.11572 0.51336 0.0
C1424 C 0.01512 0.20358 0.47524 0.0
C1425 C 0.02878 0.21899 0.46043 0.0
C1426 C 0.05226 0.21562 0.45666 0.0
C1427 C 0.06167 0.19664 0.46672 0.0
C1428 C 0.04742 0.18131 0.48059 0.0
C1429 C 0.02469 0.18466 0.48497 0.0
C1430 C 0.01203 0.16404 0.49803 0.0
C1431 C 0.00693 0.17446 0.52438 0.0
C1432 C 0.989 0.14981 0.48219 0.0
C1433 C 0.03081 0.14794 0.49936 0.0
C1434 C 0.05126 0.15848 0.48963 0.0
C1435 C 0.07034 0.14614 0.48702 0.0
C1436 C 0.06829 0.12223 0.49407 0.0
C1437 C 0.04722 0.11082 0.50343 0.0
C1438 C 0.02852 0.12414 0.50664 0.0
H1439 H 0.55486 0.24158 0.1978 0.0
H1440 H 0.54905 0.30105 0.15294 0.0
H1441 H 0.5926 0.31467 0.15884 0.0
H1442 H 0.60296 0.27752 0.24269 0.0
H1443 H 0.6176 0.25141 0.24566 0.0
H1444 H 0.58575 0.24616 0.2381 0.0
H1445 H 0.58925 0.2159 0.19834 0.0
H1446 H 0.62112 0.22115 0.20573 0.0
H1447 H 0.60872 0.22662 0.17567 0.0
H1448 H 0.63645 0.32125 0.16811 0.0
H1449 H 0.67846 0.32194 0.18242 0.0
H1450 H 0.65657 0.25915 0.22243 0.0
C1451 C 0.56276 0.25751 0.18932 0.0
C1452 C 0.54849 0.27021 0.1749 0.0
C1453 C 0.55953 0.29103 0.16414 0.0
C1454 C 0.5843 0.29891 0.16731 0.0
C1455 C 0.59783 0.28592 0.18144 0.0
C1456 C 0.58755 0.26582 0.19247 0.0
C1457 C 0.60637 0.25538 0.20692 0.0
C1458 C 0.60296 0.25777 0.23501 0.0
C1459 C 0.60636 0.22815 0.196 0.0
C1460 C 0.62878 0.2727 0.2021 0.0
C1461 C 0.62337 0.29007 0.18724 0.0
C1462 C 0.64096 0.30783 0.17985 0.0
C1463 C 0.66478 0.308 0.18802 0.0
C1464 C 0.67081 0.29063 0.20356 0.0
C1465 C 0.65251 0.27272 0.21063 0.0
H1466 H 0.48766 0.84566 0.91741 0.0
H1467 H 0.54204 0.81464 0.95613 0.0
H1468 H 0.55541 0.85512 0.98401 0.0
H1469 H 0.52461 0.90923 0.92073 0.0
H1470 H 0.49918 0.92404 0.92438 0.0
H1471 H 0.49543 0.89333 0.90665 0.0
H1472 H 0.46361 0.8762 0.93516 0.0
H1473 H 0.46722 0.90704 0.95228 0.0
H1474 H 0.47106 0.88113 0.96868 0.0
H1475 H 0.55888 0.8976 0.01099 0.0
H1476 H 0.55517 0.93951 0.03162 0.0
H1477 H 0.50043 0.94299 0.97266 0.0
C1478 C 0.50272 0.84766 0.93143 0.0
C1479 C 0.51398 0.82732 0.93472 0.0
C1480 C 0.53347 0.83028 0.95328 0.0
C1481 C 0.54106 0.85311 0.96919 0.0
C1482 C 0.52924 0.8728 0.96582 0.0
C1483 C 0.51083 0.87041 0.94699 0.0
C1484 C 0.50081 0.89412 0.94735 0.0
C1485 C 0.50528 0.90587 0.92335 0.0
C1486 C 0.4741 0.88931 0.95112 0.0
C1487 C 0.5157 0.90991 0.97 0.0
C1488 C 0.53203 0.8974 0.98047 0.0
C1489 C 0.5465 0.90774 0.00263 0.0
C1490 C 0.54421 0.93148 0.01428 0.0
C1491 C 0.52777 0.94464 0.00359 0.0
C1492 C 0.51355 0.93367 0.98104 0.0
H1493 H 0.93421 0.72688 0.71112 0.0
H1494 H 0.92465 0.7917 0.67576 0.0
H1495 H 0.88857 0.79432 0.69703 0.0
H1496 H 0.87139 0.69961 0.70471 0.0
H1497 H 0.87256 0.68734 0.73412 0.0
H1498 H 0.89854 0.69125 0.71721 0.0
H1499 H 0.92305 0.71853 0.75648 0.0
H1500 H 0.89704 0.71493 0.77341 0.0
H1501 H 0.91287 0.74574 0.77059 0.0
H1502 H 0.85432 0.79084 0.72223 0.0
H1503 H 0.82025 0.77799 0.74573 0.0
H1504 H 0.84961 0.71364 0.76306 0.0
C1505 C 0.9245 0.74161 0.70798 0.0
C1506 C 0.93227 0.75917 0.69191 0.0
C1507 C 0.91897 0.778 0.68792 0.0
C1508 C 0.89855 0.77979 0.70007 0.0
C1509 C 0.89144 0.76239 0.71592 0.0
C1510 C 0.90367 0.74337 0.7196 0.0
C1511 C 0.89105 0.72619 0.73633 0.0
C1512 C 0.8829 0.69952 0.72224 0.0
C1513 C 0.90696 0.72637 0.76065 0.0
C1514 C 0.86994 0.73864 0.74145 0.0
C1515 C 0.87081 0.7597 0.72976 0.0
C1516 C 0.85336 0.77434 0.73146 0.0
C1517 C 0.83408 0.76689 0.74492 0.0
C1518 C 0.83215 0.74473 0.75617 0.0
C1519 C 0.8506 0.73071 0.75476 0.0
H1520 H 0.09168 0.03442 0.86113 0.0
H1521 H 0.12319 0.96834 0.86319 0.0
H1522 H 0.10254 0.95884 0.90014 0.0
H1523 H 0.09688 0.05084 0.93004 0.0
H1524 H 0.06941 0.06257 0.92951 0.0
H1525 H 0.087 0.06443 0.90333 0.0
H1526 H 0.05017 0.04061 0.87353 0.0
H1527 H 0.03263 0.03833 0.89969 0.0
H1528 H 0.03526 0.01044 0.8795 0.0
H1529 H 0.07616 0.9544 0.93443 0.0
H1530 H 0.05044 0.95921 0.96884 0.0
H1531 H 0.03842 0.02966 0.94717 0.0
C1532 C 0.09442 0.01816 0.86961 0.0
C1533 C 0.10895 0.00207 0.85931 0.0
C1534 C 0.11226 0.98101 0.87091 0.0
C1535 C 0.10048 0.97534 0.89178 0.0
C1536 C 0.08586 0.99121 0.90117 0.0
C1537 C 0.08327 0.01256 0.89095 0.0
C1538 C 0.06715 0.02689 0.90541 0.0
C1539 C 0.08094 0.05271 0.91781 0.0
C1540 C 0.04499 0.02919 0.88851 0.0
C1541 C 0.06062 0.00985 0.92483 0.0
C1542 C 0.07144 0.98925 0.92184 0.0
C1543 C 0.06772 0.97053 0.93711 0.0
C1544 C 0.05299 0.97326 0.95638 0.0
C1545 C 0.04245 0.99459 0.9602 0.0
C1546 C 0.0462 0.01307 0.94427 0.0
H1547 H 0.73944 0.3546 0.58 0.0
H1548 H 0.77602 0.29704 0.54861 0.0
H1549 H 0.77152 0.27661 0.58648 0.0
H1550 H 0.76667 0.36199 0.63949 0.0
H1551 H 0.74117 0.36672 0.65573 0.0
H1552 H 0.74304 0.37443 0.62449 0.0
H1553 H 0.7023 0.3453 0.60957 0.0
H1554 H 0.7001 0.33773 0.64093 0.0
H1555 H 0.69781 0.31314 0.61496 0.0
H1556 H 0.769 0.26629 0.62995 0.0
H1557 H 0.76604 0.26524 0.67519 0.0
H1558 H 0.73075 0.3291 0.6784 0.0
C1559 C 0.74569 0.33719 0.58069 0.0
C1560 C 0.758 0.32738 0.56129 0.0
C1561 C 0.7665 0.3049 0.56322 0.0
C1562 C 0.76399 0.29311 0.58465 0.0
C1563 C 0.75276 0.30387 0.60394 0.0
C1564 C 0.7434 0.32519 0.60204 0.0
C1565 C 0.73413 0.33421 0.62638 0.0
C1566 C 0.74703 0.36091 0.63715 0.0
C1567 C 0.70697 0.33248 0.62274 0.0
C1568 C 0.7407 0.31528 0.6425 0.0
C1569 C 0.75118 0.29778 0.62913 0.0
C1570 C 0.76037 0.27957 0.64051 0.0
C1571 C 0.75875 0.27922 0.66624 0.0
C1572 C 0.74807 0.297 0.68029 0.0
C1573 C 0.73874 0.31505 0.66811 0.0
H1574 H 0.41992 0.04753 0.37273 0.0
H1575 H 0.47764 0.06008 0.32558 0.0
H1576 H 0.50571 0.05171 0.35893 0.0
H1577 H 0.45505 0.07402 0.43296 0.0
H1578 H 0.43982 0.05055 0.44965 0.0
H1579 H 0.42442 0.05958 0.42291 0.0
H1580 H 0.41441 0.01335 0.40202 0.0
H1581 H 0.42989 0.00425 0.42865 0.0
H1582 H 0.43822 0.99625 0.39761 0.0
H1583 H 0.52746 0.04135 0.3965 0.0
H1584 H 0.54147 0.02816 0.4362 0.0
H1585 H 0.46948 0.01975 0.45831 0.0
C1586 C 0.43853 0.04893 0.36967 0.0
C1587 C 0.44668 0.05462 0.34669 0.0
C1588 C 0.47106 0.05573 0.34309 0.0
C1589 C 0.48716 0.05109 0.36192 0.0
C1590 C 0.47858 0.04515 0.38421 0.0
C1591 C 0.45486 0.04396 0.38824 0.0
C1592 C 0.45019 0.03569 0.41344 0.0
C1593 C 0.44188 0.05618 0.43075 0.0
C1594 C 0.43211 0.01091 0.41022 0.0
C1595 C 0.47493 0.03229 0.4227 0.0
C1596 C 0.49106 0.03814 0.40566 0.0
C1597 C 0.51503 0.0367 0.41005 0.0
C1598 C 0.52282 0.02918 0.43261 0.0
C1599 C 0.50658 0.02289 0.45029 0.0
C1600 C 0.48231 0.02434 0.44512 0.0
H1601 H 0.80177 0.69946 0.08375 0.0
H1602 H 0.74286 0.63708 0.06039 0.0
H1603 H 0.7267 0.64542 0.1009 0.0
H1604 H 0.8103 0.68965 0.14667 0.0
H1605 H 0.81689 0.7222 0.15976 0.0
H1606 H 0.82337 0.71276 0.1283 0.0
H1607 H 0.79776 0.74247 0.11114 0.0
H1608 H 0.79148 0.75246 0.14257 0.0
H1609 H 0.7673 0.74024 0.11832 0.0
H1610 H 0.71957 0.65732 0.14584 0.0
H1611 H 0.72052 0.67427 0.19073 0.0
H1612 H 0.7818 0.7309 0.18364 0.0
C1613 C 0.78531 0.68773 0.087 0.0
C1614 C 0.77363 0.66758 0.0688 0.0
C1615 C 0.75213 0.65269 0.07392 0.0
C1616 C 0.74279 0.65726 0.09692 0.0
C1617 C 0.75489 0.67704 0.11455 0.0
C1618 C 0.77552 0.69225 0.10975 0.0
C1619 C 0.78541 0.71186 0.13217 0.0
C1620 C 0.81048 0.70893 0.14231 0.0
C1621 C 0.78548 0.73833 0.12565 0.0
C1622 C 0.7673 0.70508 0.15039 0.0
C1623 C 0.74994 0.6848 0.13996 0.0
C1624 C 0.73269 0.6736 0.15402 0.0
C1625 C 0.73333 0.6833 0.17943 0.0
C1626 C 0.75076 0.70426 0.1903 0.0
C1627 C 0.76773 0.71544 0.17548 0.0
H1628 H 0.12643 0.00908 0.70797 0.0
H1629 H 0.07629 0.05411 0.73547 0.0
H1630 H 0.05983 0.05437 0.69186 0.0
H1631 H 0.13627 0.03761 0.65017 0.0
H1632 H 0.13793 0.00808 0.63235 0.0
H1633 H 0.14756 0.01409 0.66546 0.0
H1634 H 0.1185 0.97402 0.67201 0.0
H1635 H 0.10867 0.96799 0.63902 0.0
H1636 H 0.08725 0.97035 0.6615 0.0
H1637 H 0.04605 0.0458 0.64558 0.0
H1638 H 0.03681 0.03005 0.60037 0.0
H1639 H 0.09625 0.99089 0.60358 0.0
C1640 C 0.11231 0.01945 0.70487 0.0
C1641 C 0.10266 0.0316 0.72515 0.0
C1642 C 0.08403 0.04474 0.72023 0.0
C1643 C 0.07458 0.04501 0.69552 0.0
C1644 C 0.08411 0.03226 0.67599 0.0
C1645 C 0.10272 0.01992 0.6804 0.0
C1646 C 0.10878 0.00629 0.65636 0.0
C1647 C 0.13414 0.01718 0.65076 0.0
C1648 C 0.1056 0.978 0.65729 0.0
C1649 C 0.09018 0.01222 0.63779 0.0
C1650 C 0.07625 0.02741 0.6494 0.0
C1651 C 0.05706 0.03419 0.63624 0.0
C1652 C 0.0519 0.02508 0.61059 0.0
C1653 C 0.06585 0.00929 0.59843 0.0
C1654 C 0.08539 0.00311 0.61225 0.0
H1655 H 0.76108 0.3001 0.44093 0.0
H1656 H 0.72638 0.36273 0.431 0.0
H1657 H 0.71173 0.34337 0.38734 0.0
H1658 H 0.78362 0.29569 0.38492 0.0
H1659 H 0.7797 0.26208 0.37995 0.0
H1660 H 0.78299 0.27846 0.41125 0.0
H1661 H 0.74293 0.2517 0.41952 0.0
H1662 H 0.73964 0.23546 0.38796 0.0
H1663 H 0.71631 0.25079 0.399 0.0
H1664 H 0.70678 0.32019 0.34256 0.0
H1665 H 0.71258 0.29643 0.30219 0.0
H1666 H 0.75117 0.24993 0.34257 0.0
C1667 C 0.7498 0.30945 0.42986 0.0
C1668 C 0.74484 0.33291 0.43939 0.0
C1669 C 0.73018 0.3446 0.42419 0.0
C1670 C 0.7218 0.33373 0.39936 0.0
C1671 C 0.72791 0.31099 0.39023 0.0
C1672 C 0.74136 0.29889 0.40525 0.0
C1673 C 0.74788 0.27621 0.3906 0.0
C1674 C 0.77516 0.27828 0.39175 0.0
C1675 C 0.73597 0.25211 0.39982 0.0
C1676 C 0.73716 0.2781 0.36462 0.0
C1677 C 0.72525 0.29791 0.36472 0.0
C1678 C 0.71577 0.30444 0.34241 0.0
C1679 C 0.7193 0.29095 0.31953 0.0
C1680 C 0.73267 0.27155 0.31914 0.0
C1681 C 0.74074 0.26451 0.34209 0.0
H1682 H 0.45892 0.0598 0.21401 0.0
H1683 H 0.38806 0.01471 0.21119 0.0
H1684 H 0.39682 0.98635 0.17541 0.0
H1685 H 0.46178 0.05369 0.14664 0.0
H1686 H 0.49314 0.05269 0.14937 0.0
H1687 H 0.48076 0.06957 0.17422 0.0
H1688 H 0.49769 0.04352 0.20575 0.0
H1689 H 0.50964 0.02616 0.18086 0.0
H1690 H 0.48963 0.00991 0.20013 0.0
H1691 H 0.41389 0.96208 0.14096 0.0
H1692 H 0.43601 0.94684 0.10671 0.0
H1693 H 0.49569 0.00784 0.1325 0.0
C1694 C 0.44511 0.04415 0.20569 0.0
C1695 C 0.42282 0.03946 0.21541 0.0
C1696 C 0.40524 0.01876 0.20398 0.0
C1697 C 0.41011 0.00242 0.18379 0.0
C1698 C 0.43257 0.00714 0.17522 0.0
C1699 C 0.44963 0.02773 0.18552 0.0
C1700 C 0.47222 0.02884 0.17258 0.0
C1701 C 0.47726 0.0526 0.15995 0.0
C1702 C 0.49355 0.02699 0.19093 0.0
C1703 C 0.46521 0.00561 0.15341 0.0
C1704 C 0.44236 0.99323 0.15536 0.0
C1705 C 0.4318 0.97161 0.13923 0.0
C1706 C 0.44458 0.96301 0.11994 0.0
C1707 C 0.4676 0.97611 0.11689 0.0
C1708 C 0.47824 0.99723 0.1344 0.0
H1709 H 0.75718 0.67511 0.93135 0.0
H1710 H 0.8177 0.72808 0.97149 0.0
H1711 H 0.8155 0.75544 0.93878 0.0
H1712 H 0.77463 0.6794 0.87199 0.0
H1713 H 0.74513 0.67672 0.85635 0.0
H1714 H 0.74911 0.663 0.88455 0.0
H1715 H 0.71985 0.68821 0.90535 0.0
H1716 H 0.71561 0.70186 0.87706 0.0
H1717 H 0.72513 0.72171 0.90657 0.0
H1718 H 0.80945 0.77489 0.89943 0.0
H1719 H 0.79974 0.78485 0.85691 0.0
H1720 H 0.7433 0.71914 0.84259 0.0
C1721 C 0.76957 0.69279 0.93368 0.0
C1722 C 0.78752 0.69948 0.95415 0.0
C1723 C 0.80371 0.72255 0.95608 0.0
C1724 C 0.80259 0.73826 0.93759 0.0
C1725 C 0.78514 0.73072 0.91728 0.0
C1726 C 0.76879 0.70861 0.91532 0.0
C1727 C 0.75301 0.70384 0.89069 0.0
C1728 C 0.75564 0.67929 0.87497 0.0
C1729 C 0.72685 0.70392 0.89519 0.0
C1730 C 0.76348 0.72634 0.87882 0.0
C1731 C 0.78181 0.74179 0.89454 0.0
C1732 C 0.79492 0.76308 0.88709 0.0
C1733 C 0.7893 0.76858 0.86287 0.0
C1734 C 0.77082 0.75275 0.8463 0.0
C1735 C 0.75758 0.7316 0.85468 0.0
H1736 H 0.83276 0.07325 0.04355 0.0
H1737 H 0.85054 0.1184 0.9848 0.0
H1738 H 0.88318 0.09588 0.97544 0.0
H1739 H 0.89485 0.07243 0.06516 0.0
H1740 H 0.88784 0.04105 0.07265 0.0
H1741 H 0.86588 0.06078 0.07451 0.0
H1742 H 0.83613 0.02687 0.04428 0.0
H1743 H 0.85819 0.00729 0.04191 0.0
H1744 H 0.84446 0.01594 0.01397 0.0
H1745 H 0.91142 0.06593 0.96997 0.0
H1746 H 0.93985 0.03757 0.97522 0.0
H1747 H 0.90574 0.01394 0.0395 0.0
C1748 C 0.84373 0.07856 0.02893 0.0
C1749 C 0.8391 0.09746 0.01481 0.0
C1750 C 0.85388 0.10405 0.99593 0.0
C1751 C 0.87229 0.09119 0.9903 0.0
C1752 C 0.87594 0.07212 0.00403 0.0
C1753 C 0.86258 0.06632 0.02346 0.0
C1754 C 0.87108 0.04595 0.03619 0.0
C1755 C 0.88048 0.05564 0.06375 0.0
C1756 C 0.85128 0.02263 0.03394 0.0
C1757 C 0.89109 0.04101 0.02066 0.0
C1758 C 0.89329 0.05596 0.0019 0.0
C1759 C 0.91017 0.05441 0.98484 0.0
C1760 C 0.92602 0.03799 0.98776 0.0
C1761 C 0.92496 0.02353 0.00774 0.0
C1762 C 0.90693 0.02475 0.02404 0.0
H1763 H 0.35403 0.45729 0.04615 0.0
H1764 H 0.36227 0.37999 0.04293 0.0
H1765 H 0.40449 0.392 0.03675 0.0
H1766 H 0.39349 0.47266 0.99834 0.0
H1767 H 0.40578 0.50376 0.01397 0.0
H1768 H 0.37585 0.48923 0.01817 0.0
H1769 H 0.3868 0.49653 0.06628 0.0
H1770 H 0.41685 0.51084 0.06221 0.0
H1771 H 0.41168 0.48461 0.07939 0.0
H1772 H 0.44519 0.41143 0.03097 0.0
H1773 H 0.4828 0.4374 0.02332 0.0
H1774 H 0.45009 0.5031 0.03025 0.0
C1775 C 0.36475 0.44294 0.04394 0.0
C1776 C 0.35492 0.41769 0.04549 0.0
C1777 C 0.36946 0.39945 0.04256 0.0
C1778 C 0.3935 0.40609 0.03886 0.0
C1779 C 0.40282 0.43112 0.03812 0.0
C1780 C 0.389 0.44932 0.04035 0.0
C1781 C 0.4038 0.47484 0.03862 0.0
C1782 C 0.39415 0.48576 0.01592 0.0
C1783 C 0.40484 0.49276 0.06309 0.0
C1784 C 0.42799 0.46797 0.03496 0.0
C1785 C 0.42683 0.4426 0.03482 0.0
C1786 C 0.44639 0.43133 0.03108 0.0
C1787 C 0.46766 0.44625 0.02677 0.0
C1788 C 0.46933 0.47223 0.02632 0.0
C1789 C 0.44936 0.48336 0.03092 0.0
H1790 H 0.3468 0.58062 0.74057 0.0
H1791 H 0.30414 0.54823 0.79547 0.0
H1792 H 0.27944 0.58056 0.79393 0.0
H1793 H 0.34989 0.64184 0.76563 0.0
H1794 H 0.34811 0.65419 0.73629 0.0
H1795 H 0.35993 0.6262 0.73824 0.0
H1796 H 0.32878 0.60228 0.70203 0.0
H1797 H 0.31701 0.63035 0.69975 0.0
H1798 H 0.29751 0.60204 0.70437 0.0
H1799 H 0.2629 0.61941 0.79085 0.0
H1800 H 0.25478 0.66117 0.78498 0.0
H1801 H 0.30826 0.66829 0.73229 0.0
C1802 C 0.33175 0.57982 0.75159 0.0
C1803 C 0.3273 0.56182 0.76801 0.0
C1804 C 0.30785 0.56183 0.7827 0.0
C1805 C 0.29367 0.58009 0.78193 0.0
C1806 C 0.2991 0.59817 0.7663 0.0
C1807 C 0.31751 0.59805 0.75118 0.0
C1808 C 0.321 0.6209 0.73785 0.0
C1809 C 0.34622 0.63671 0.74494 0.0
C1810 C 0.31576 0.61344 0.70931 0.0
C1811 C 0.30221 0.63421 0.74844 0.0
C1812 C 0.28959 0.62069 0.76461 0.0
C1813 C 0.27237 0.62999 0.77788 0.0
C1814 C 0.26795 0.65375 0.77453 0.0
C1815 C 0.28079 0.66793 0.75811 0.0
C1816 C 0.29795 0.65782 0.74478 0.0
H1817 H 0.19381 0.56366 0.53148 0.0
H1818 H 0.20839 0.63017 0.49519 0.0
H1819 H 0.16582 0.63314 0.49361 0.0
H1820 H 0.13905 0.53739 0.49483 0.0
H1821 H 0.12482 0.52441 0.52012 0.0
H1822 H 0.15672 0.52878 0.52028 0.0
H1823 H 0.1617 0.55538 0.56417 0.0
H1824 H 0.12976 0.55124 0.56402 0.0
H1825 H 0.14765 0.58226 0.56866 0.0
H1826 H 0.12165 0.62805 0.49447 0.0
H1827 H 0.07839 0.61324 0.49436 0.0
H1828 H 0.09236 0.54944 0.52919 0.0
C1829 C 0.18808 0.57898 0.52343 0.0
C1830 C 0.2044 0.59675 0.51355 0.0
C1831 C 0.19617 0.61632 0.50282 0.0
C1832 C 0.17206 0.61827 0.502 0.0
C1833 C 0.15642 0.60045 0.51189 0.0
C1834 C 0.16403 0.58106 0.52221 0.0
C1835 C 0.14329 0.56338 0.52989 0.0
C1836 C 0.14083 0.53693 0.51541 0.0
C1837 C 0.14576 0.56306 0.55838 0.0
C1838 C 0.12281 0.57567 0.52194 0.0
C1839 C 0.13081 0.59723 0.51193 0.0
C1840 C 0.11515 0.61129 0.5024 0.0
C1841 C 0.0906 0.60273 0.50247 0.0
C1842 C 0.08196 0.5802 0.51179 0.0
C1843 C 0.09838 0.56686 0.52215 0.0
H1844 H 0.67818 0.9412 0.75631 0.0
H1845 H 0.72233 0.98374 0.82185 0.0
H1846 H 0.74934 0.9535 0.81925 0.0
H1847 H 0.67883 0.8845 0.77319 0.0
H1848 H 0.68 0.86794 0.74247 0.0
H1849 H 0.66727 0.89563 0.74559 0.0
H1850 H 0.69672 0.91579 0.71655 0.0
H1851 H 0.70944 0.88795 0.71308 0.0
H1852 H 0.72834 0.91791 0.72387 0.0
H1853 H 0.76681 0.91511 0.81478 0.0
H1854 H 0.77423 0.87197 0.8076 0.0
H1855 H 0.71909 0.85445 0.74481 0.0
C1856 C 0.69405 0.94469 0.76949 0.0
C1857 C 0.69818 0.96484 0.78922 0.0
C1858 C 0.7188 0.96841 0.80655 0.0
C1859 C 0.73434 0.9514 0.80516 0.0
C1860 C 0.72915 0.93104 0.78621 0.0
C1861 C 0.70968 0.92778 0.76844 0.0
C1862 C 0.70639 0.90279 0.75195 0.0
C1863 C 0.68167 0.88679 0.75342 0.0
C1864 C 0.71048 0.90633 0.72475 0.0
C1865 C 0.72616 0.89198 0.76416 0.0
C1866 C 0.73938 0.90873 0.78357 0.0
C1867 C 0.757 0.90203 0.79922 0.0
C1868 C 0.761 0.87746 0.79511 0.0
C1869 C 0.74732 0.85992 0.77559 0.0
C1870 C 0.7301 0.86754 0.75964 0.0
H1871 H 0.69725 0.92888 0.58197 0.0
H1872 H 0.71769 0.91184 0.50702 0.0
H1873 H 0.68455 0.93005 0.48967 0.0
H1874 H 0.63308 0.91424 0.56365 0.0
H1875 H 0.62727 0.9388 0.58637 0.0
H1876 H 0.65236 0.92401 0.59251 0.0
H1877 H 0.68043 0.96737 0.59936 0.0
H1878 H 0.65547 0.98222 0.59283 0.0
H1879 H 0.68076 0.98697 0.57494 0.0
H1880 H 0.65056 0.95294 0.48091 0.0
H1881 H 0.61511 0.97313 0.48095 0.0
H1882 H 0.61615 0.97308 0.5613 0.0
C1883 C 0.6946 0.92873 0.56188 0.0
C1884 C 0.71008 0.919 0.54586 0.0
C1885 C 0.70597 0.91907 0.51966 0.0
C1886 C 0.6873 0.92954 0.50963 0.0
C1887 C 0.6727 0.93953 0.52602 0.0
C1888 C 0.67586 0.93874 0.55153 0.0
C1889 C 0.6574 0.9502 0.56506 0.0
C1890 C 0.64159 0.93065 0.57763 0.0
C1891 C 0.66923 0.97305 0.58417 0.0
C1892 C 0.64355 0.95783 0.54323 0.0
C1893 C 0.65276 0.9518 0.52089 0.0
C1894 C 0.6431 0.95757 0.49829 0.0
C1895 C 0.62312 0.96921 0.49849 0.0
C1896 C 0.61294 0.97462 0.52109 0.0
C1897 C 0.62353 0.96907 0.54371 0.0
H1898 H 0.35169 0.43222 0.79555 0.0
H1899 H 0.32052 0.45083 0.72639 0.0
H1900 H 0.29356 0.40913 0.71891 0.0
H1901 H 0.35007 0.36642 0.77275 0.0
H1902 H 0.34386 0.35709 0.80275 0.0
H1903 H 0.36089 0.38765 0.80117 0.0
H1904 H 0.33085 0.40755 0.82675 0.0
H1905 H 0.31345 0.37711 0.82794 0.0
H1906 H 0.29962 0.40057 0.81535 0.0
H1907 H 0.2675 0.36578 0.72184 0.0
H1908 H 0.24939 0.32387 0.73164 0.0
H1909 H 0.29973 0.33502 0.79808 0.0
C1910 C 0.33944 0.42735 0.7786 0.0
C1911 C 0.33809 0.44457 0.76151 0.0
C1912 C 0.32192 0.43767 0.73954 0.0
C1913 C 0.30646 0.41416 0.73531 0.0
C1914 C 0.30778 0.39783 0.75307 0.0
C1915 C 0.3243 0.40407 0.77399 0.0
C1916 C 0.32256 0.38359 0.79036 0.0
C1917 C 0.34571 0.37306 0.79183 0.0
C1918 C 0.31624 0.39276 0.81664 0.0
C1919 C 0.30218 0.36484 0.7757 0.0
C1920 C 0.29362 0.37326 0.75433 0.0
C1921 C 0.27428 0.359 0.73841 0.0
C1922 C 0.26396 0.33536 0.74421 0.0
C1923 C 0.27322 0.32624 0.76556 0.0
C1924 C 0.29236 0.34142 0.78152 0.0
H1925 H 0.1858 0.56631 0.2511 0.0
H1926 H 0.15984 0.59006 0.32168 0.0
H1927 H 0.17592 0.6342 0.31781 0.0
H1928 H 0.24123 0.61079 0.26261 0.0
H1929 H 0.24209 0.61555 0.23026 0.0
H1930 H 0.22732 0.58609 0.23795 0.0
H1931 H 0.18852 0.59034 0.21211 0.0
H1932 H 0.20316 0.61987 0.20442 0.0
H1933 H 0.17587 0.61789 0.2192 0.0
H1934 H 0.19272 0.6759 0.30461 0.0
H1935 H 0.21366 0.71143 0.2862 0.0
H1936 H 0.23334 0.66005 0.22747 0.0
C1937 C 0.18341 0.58086 0.26562 0.0
C1938 C 0.1714 0.57494 0.28656 0.0
C1939 C 0.16898 0.59433 0.30549 0.0
C1940 C 0.17795 0.6194 0.3034 0.0
C1941 C 0.1897 0.62467 0.28249 0.0
C1942 C 0.19282 0.60592 0.26417 0.0
C1943 C 0.20739 0.61647 0.24441 0.0
C1944 C 0.2309 0.60664 0.24379 0.0
C1945 C 0.19286 0.6108 0.2185 0.0
C1946 C 0.21179 0.64408 0.25436 0.0
C1947 C 0.20113 0.64847 0.27611 0.0
C1948 C 0.20175 0.67262 0.28799 0.0
C1949 C 0.21405 0.69276 0.27764 0.0
C1950 C 0.22629 0.68867 0.25622 0.0
C1951 C 0.22467 0.66392 0.24424 0.0
H1952 H 0.45411 0.67736 0.4711 0.0
H1953 H 0.52408 0.70151 0.44749 0.0
H1954 H 0.54041 0.67275 0.47297 0.0
H1955 H 0.47388 0.66331 0.53514 0.0
H1956 H 0.45081 0.63586 0.53204 0.0
H1957 H 0.4457 0.66243 0.51735 0.0
H1958 H 0.43507 0.63465 0.47424 0.0
H1959 H 0.43966 0.60792 0.48854 0.0
H1960 H 0.4559 0.61606 0.46257 0.0
H1961 H 0.54779 0.63729 0.49633 0.0
H1962 H 0.54421 0.59544 0.51009 0.0
H1963 H 0.46876 0.59249 0.51436 0.0
C1964 C 0.47306 0.67732 0.47209 0.0
C1965 C 0.48794 0.69195 0.45774 0.0
C1966 C 0.51245 0.69062 0.45862 0.0
C1967 C 0.52189 0.67448 0.47318 0.0
C1968 C 0.50654 0.6597 0.48658 0.0
C1969 C 0.48257 0.66092 0.48598 0.0
C1970 C 0.46893 0.64029 0.49824 0.0
C1971 C 0.45926 0.65112 0.5221 0.0
C1972 C 0.44873 0.62377 0.47978 0.0
C1973 C 0.48864 0.62639 0.50456 0.0
C1974 C 0.51043 0.63839 0.49871 0.0
C1975 C 0.5309 0.62798 0.50136 0.0
C1976 C 0.52877 0.60428 0.50921 0.0
C1977 C 0.50624 0.59117 0.51347 0.0
C1978 C 0.4862 0.60264 0.51181 0.0
H1979 H 0.58922 0.27773 0.68271 0.0
H1980 H 0.56251 0.32133 0.74312 0.0
H1981 H 0.60027 0.32436 0.76953 0.0
H1982 H 0.61967 0.24261 0.72124 0.0
H1983 H 0.64457 0.24269 0.70279 0.0
H1984 H 0.61571 0.24455 0.68816 0.0
H1985 H 0.63405 0.28538 0.67177 0.0
H1986 H 0.66299 0.2836 0.6863 0.0
H1987 H 0.65065 0.3113 0.69364 0.0
H1988 H 0.6403 0.32149 0.79003 0.0
H1989 H 0.68048 0.31393 0.80267 0.0
H1990 H 0.68137 0.27266 0.72886 0.0
C1991 C 0.59137 0.28806 0.70143 0.0
C1992 C 0.57286 0.29928 0.71082 0.0
C1993 C 0.57639 0.31256 0.73546 0.0
C1994 C 0.59779 0.3144 0.75065 0.0
C1995 C 0.61556 0.30293 0.74093 0.0
C1996 C 0.61266 0.29013 0.71685 0.0
C1997 C 0.6345 0.27926 0.7111 0.0
C1998 C 0.62823 0.25058 0.7055 0.0
C1999 C 0.64624 0.29057 0.68942 0.0
C2000 C 0.65 0.28783 0.73576 0.0
C2001 C 0.63874 0.30144 0.75271 0.0
C2002 C 0.64936 0.31095 0.77689 0.0
C2003 C 0.67216 0.30651 0.78391 0.0
C2004 C 0.68412 0.29272 0.76679 0.0
C2005 C 0.67278 0.28333 0.7424 0.0
H2006 H 0.9708 0.2913 0.93733 0.0
H2007 H 0.01281 0.28342 0.87423 0.0
H2008 H 0.0325 0.32761 0.88501 0.0
H2009 H 0.96128 0.35268 0.9317 0.0
H2010 H 0.96395 0.3628 0.96501 0.0
H2011 H 0.95353 0.3303 0.95285 0.0
H2012 H 0.98701 0.31825 0.98127 0.0
H2013 H 0.99744 0.3507 0.99365 0.0
H2014 H 0.01763 0.3326 0.97975 0.0
H2015 H 0.04628 0.37294 0.90135 0.0
H2016 H 0.05518 0.41595 0.92377 0.0
H2017 H 0.00494 0.39422 0.9769 0.0
C2018 C 0.98424 0.29877 0.92583 0.0
C2019 C 0.99019 0.28383 0.90487 0.0
C2020 C 0.00793 0.29441 0.89039 0.0
C2021 C 0.0192 0.31953 0.89633 0.0
C2022 C 0.01266 0.33377 0.91688 0.0
C2023 C 0.99577 0.32375 0.93157 0.0
C2024 C 0.992 0.34314 0.95264 0.0
C2025 C 0.96616 0.34748 0.9504 0.0
C2026 C -0.00106 0.33573 0.97835 0.0
C2027 C 0.00929 0.36569 0.94737 0.0
C2028 C 0.02094 0.35988 0.9266 0.0
C2029 C 0.03739 0.3777 0.91773 0.0
C2030 C 0.04225 0.40211 0.93056 0.0
C2031 C 0.03079 0.40844 0.95212 0.0
C2032 C 0.01406 0.38993 0.96055 0.0
H2033 H 0.92959 0.76479 0.16324 0.0
H2034 H 0.9646 0.73059 0.22018 0.0
H2035 H 0.92686 0.72223 0.23962 0.0
H2036 H 0.89904 0.7972 0.20341 0.0
H2037 H 0.87239 0.79408 0.18229 0.0
H2038 H 0.90053 0.79315 0.16998 0.0
H2039 H 0.88353 0.7496 0.14386 0.0
H2040 H 0.85514 0.75151 0.15533 0.0
H2041 H 0.86869 0.72481 0.15927 0.0
H2042 H 0.88695 0.72264 0.25585 0.0
H2043 H 0.84754 0.73043 0.26675 0.0
H2044 H 0.83947 0.76545 0.19962 0.0
C2045 C 0.92913 0.75473 0.17927 0.0
C2046 C 0.94992 0.7481 0.19008 0.0
C2047 C 0.94878 0.73564 0.2115 0.0
C2048 C 0.92744 0.73082 0.22265 0.0
C2049 C 0.90749 0.73857 0.21211 0.0
C2050 C 0.90811 0.75006 0.19075 0.0
C2051 C 0.88511 0.75898 0.18463 0.0
C2052 C 0.88955 0.78753 0.18512 0.0
C2053 C 0.87236 0.74538 0.15927 0.0
C2054 C 0.87162 0.7512 0.20618 0.0
C2055 C 0.8847 0.73926 0.22172 0.0
C2056 C 0.87639 0.73164 0.24363 0.0
C2057 C 0.85407 0.73627 0.24973 0.0
C2058 C 0.84048 0.74858 0.23407 0.0
C2059 C 0.84941 0.75597 0.21198 0.0
H2060 H 0.51292 0.31193 0.09587 0.0
H2061 H 0.45488 0.28227 0.03737 0.0
H2062 H 0.4721 0.31346 0.01129 0.0
H2063 H 0.51272 0.37309 0.09206 0.0
H2064 H 0.54451 0.3838 0.09834 0.0
H2065 H 0.53055 0.35617 0.10999 0.0
H2066 H 0.5587 0.33075 0.08747 0.0
H2067 H 0.57287 0.35842 0.07575 0.0
H2068 H 0.56039 0.3305 0.05426 0.0
H2069 H 0.49226 0.35172 0.99449 0.0
H2070 H 0.51243 0.39407 0.98919 0.0
H2071 H 0.55679 0.39875 0.05916 0.0
C2072 C 0.50415 0.31139 0.07726 0.0
C2073 C 0.48258 0.29449 0.06864 0.0
C2074 C 0.47149 0.2949 0.04436 0.0
C2075 C 0.4812 0.31251 0.02936 0.0
C2076 C 0.50208 0.32945 0.03885 0.0
C2077 C 0.51347 0.3289 0.06223 0.0
C2078 C 0.53389 0.3509 0.06954 0.0
C2079 C 0.53017 0.36693 0.0939 0.0
C2080 C 0.55789 0.34211 0.07188 0.0
C2081 C 0.53163 0.36455 0.04709 0.0
C2082 C 0.51351 0.35166 0.02933 0.0
C2083 C 0.50677 0.36172 0.00803 0.0
C2084 C 0.51837 0.38583 0.00518 0.0
C2085 C 0.53629 0.39973 0.02371 0.0
C2086 C 0.54341 0.38852 0.04448 0.0
H2087 H 0.95276 0.27963 0.34107 0.0
H2088 H 0.94108 0.28313 0.41964 0.0
H2089 H 0.89842 0.28274 0.40875 0.0
H2090 H 0.90628 0.31683 0.32248 0.0
H2091 H 0.89786 0.297 0.2928 0.0
H2092 H 0.9282 0.30241 0.30706 0.0
H2093 H 0.92587 0.25463 0.30469 0.0
H2094 H 0.89555 0.24908 0.29068 0.0
H2095 H 0.90258 0.23642 0.31896 0.0
H2096 H 0.85689 0.27544 0.3894 0.0
H2097 H 0.81875 0.26221 0.36276 0.0
H2098 H 0.8565 0.26333 0.29622 0.0
C2099 C 0.94133 0.28124 0.356 0.0
C2100 C 0.95014 0.28147 0.3812 0.0
C2101 C 0.93463 0.28277 0.40023 0.0
C2102 C 0.91041 0.28277 0.39423 0.0
C2103 C 0.90204 0.28154 0.36911 0.0
C2104 C 0.91701 0.28099 0.35027 0.0
C2105 C 0.90298 0.27677 0.32461 0.0
C2106 C 0.9092 0.29962 0.31093 0.0
C2107 C 0.90699 0.2528 0.30882 0.0
C2108 C 0.87776 0.27396 0.33199 0.0
C2109 C 0.87771 0.2772 0.35777 0.0
C2110 C 0.85666 0.27338 0.3692 0.0
C2111 C 0.83509 0.26573 0.35389 0.0
C2112 C 0.83469 0.26193 0.32745 0.0
C2113 C 0.85628 0.26659 0.31637 0.0
H2114 H 0.98996 0.68404 0.62442 0.0
H2115 H 0.93252 0.69566 0.57246 0.0
H2116 H 0.93523 0.65674 0.54546 0.0
H2117 H 0.02474 0.66066 0.57921 0.0
H2118 H 0.03388 0.63783 0.59721 0.0
H2119 H 0.02676 0.66602 0.61298 0.0
H2120 H 0.99544 0.63984 0.63608 0.0
H2121 H 0.00262 0.61155 0.62055 0.0
H2122 H 0.97224 0.61633 0.61812 0.0
H2123 H 0.94603 0.61773 0.52279 0.0
H2124 H 0.96196 0.58003 0.50807 0.0
H2125 H 0.0114 0.59381 0.57561 0.0
C2126 C 0.97778 0.67834 0.60749 0.0
C2127 C 0.96105 0.69297 0.60057 0.0
C2128 C 0.94543 0.68473 0.57825 0.0
C2129 C 0.94688 0.6627 0.56272 0.0
C2130 C 0.96388 0.64898 0.5699 0.0
C2131 C 0.97885 0.65633 0.59192 0.0
C2132 C 0.99562 0.63834 0.59538 0.0
C2133 C 0.02179 0.65151 0.59624 0.0
C2134 C 0.9912 0.62577 0.61892 0.0
C2135 C 0.98798 0.61989 0.5717 0.0
C2136 C 0.96972 0.62635 0.55717 0.0
C2137 C 0.9602 0.61238 0.53411 0.0
C2138 C 0.96942 0.59109 0.52585 0.0
C2139 C 0.98784 0.58394 0.54072 0.0
C2140 C 0.9972 0.59866 0.56388 0.0
H2141 H 0.59327 0.77402 0.86963 0.0
H2142 H 0.55856 0.72282 0.804 0.0
H2143 H 0.59693 0.72549 0.78594 0.0
H2144 H 0.63278 0.8136 0.83706 0.0
H2145 H 0.65755 0.81866 0.86102 0.0
H2146 H 0.62746 0.81218 0.86935 0.0
H2147 H 0.63695 0.77471 0.89048 0.0
H2148 H 0.6671 0.78113 0.88225 0.0
H2149 H 0.64885 0.75061 0.87267 0.0
H2150 H 0.63884 0.73437 0.7743 0.0
H2151 H 0.68159 0.74879 0.77028 0.0
H2152 H 0.68919 0.79414 0.8433 0.0
C2153 C 0.59377 0.76325 0.85155 0.0
C2154 C 0.57285 0.74819 0.83828 0.0
C2155 C 0.5743 0.73449 0.81459 0.0
C2156 C 0.59604 0.73586 0.80412 0.0
C2157 C 0.61627 0.75098 0.81756 0.0
C2158 C 0.61539 0.76439 0.84078 0.0
C2159 C 0.63975 0.77951 0.85109 0.0
C2160 C 0.63935 0.80765 0.85484 0.0
C2161 C 0.64868 0.77097 0.87557 0.0
C2162 C 0.65433 0.77265 0.82996 0.0
C2163 C 0.64047 0.75611 0.81083 0.0
C2164 C 0.64992 0.74727 0.7892 0.0
C2165 C 0.67422 0.75558 0.78707 0.0
C2166 C 0.68877 0.77258 0.80644 0.0
C2167 C 0.67859 0.78112 0.82815 0.0
H2168 H 0.42278 0.47353 0.66985 0.0
H2169 H 0.42403 0.55169 0.69618 0.0
H2170 H 0.45375 0.56395 0.66705 0.0
H2171 H 0.48338 0.47749 0.66224 0.0
H2172 H 0.47921 0.45606 0.63345 0.0
H2173 H 0.45717 0.45317 0.65545 0.0
H2174 H 0.42422 0.45656 0.62095 0.0
H2175 H 0.44608 0.45887 0.5987 0.0
H2176 H 0.42835 0.48272 0.60358 0.0
H2177 H 0.48649 0.56755 0.63783 0.0
H2178 H 0.51401 0.56218 0.60517 0.0
H2179 H 0.48938 0.48197 0.59624 0.0
C2180 C 0.42899 0.49321 0.66912 0.0
C2181 C 0.42109 0.51164 0.68528 0.0
C2182 C 0.42963 0.53723 0.6838 0.0
C2183 C 0.4467 0.54439 0.66748 0.0
C2184 C 0.45469 0.52575 0.65237 0.0
C2185 C 0.4456 0.5007 0.65251 0.0
C2186 C 0.45668 0.48439 0.6339 0.0
C2187 C 0.46989 0.46674 0.64706 0.0
C2188 C 0.4377 0.46978 0.61305 0.0
C2189 C 0.47393 0.50412 0.62388 0.0
C2190 C 0.47271 0.52788 0.63488 0.0
C2191 C 0.48742 0.54903 0.62891 0.0
C2192 C 0.50319 0.54583 0.61059 0.0
C2193 C 0.50383 0.5217 0.59832 0.0
C2194 C 0.48925 0.50065 0.6054 0.0
H2195 H 0.74663 0.17074 0.96087 0.0
H2196 H 0.80281 0.23075 0.99793 0.0
H2197 H 0.7901 0.25904 0.96961 0.0
H2198 H 0.75536 0.18295 0.90131 0.0
H2199 H 0.72446 0.17497 0.88873 0.0
H2200 H 0.73464 0.16098 0.91489 0.0
H2201 H 0.7029 0.177 0.9409 0.0
H2202 H 0.69249 0.19096 0.91469 0.0
H2203 H 0.70165 0.20981 0.94481 0.0
H2204 H 0.77511 0.2789 0.93385 0.0
H2205 H 0.75982 0.28841 0.89286 0.0
H2206 H 0.71394 0.21515 0.87846 0.0
C2207 C 0.75567 0.19009 0.96364 0.0
C2208 C 0.77547 0.19869 0.98183 0.0
C2209 C 0.78746 0.22387 0.98424 0.0
C2210 C 0.78031 0.24009 0.9683 0.0
C2211 C 0.76119 0.23081 0.94999 0.0
C2212 C 0.74899 0.2064 0.94762 0.0
C2213 C 0.73114 0.20012 0.92447 0.0
C2214 C 0.73675 0.17849 0.90629 0.0
C2215 C 0.70552 0.19413 0.93166 0.0
C2216 C 0.73569 0.22456 0.91381 0.0
C2217 C 0.75281 0.24216 0.92901 0.0
C2218 C 0.76137 0.26544 0.92202 0.0
C2219 C 0.75259 0.27067 0.89867 0.0
C2220 C 0.73554 0.25262 0.88249 0.0
C2221 C 0.72664 0.22953 0.89054 0.0
H2222 H 0.09925 0.50777 0.18682 0.0
H2223 H 0.12741 0.44169 0.16164 0.0
H2224 H 0.10368 0.43744 0.12044 0.0
H2225 H 0.04078 0.48427 0.16014 0.0
H2226 H 0.03507 0.51359 0.15179 0.0
H2227 H 0.05639 0.51331 0.17801 0.0
H2228 H 0.0891 0.54146 0.15831 0.0
H2229 H 0.06776 0.54221 0.13223 0.0
H2230 H 0.09536 0.53202 0.12674 0.0
H2231 H 0.07557 0.43984 0.08251 0.0
H2232 H 0.04562 0.44881 0.05098 0.0
H2233 H 0.03388 0.51115 0.10303 0.0
C2234 C 0.10094 0.49275 0.17246 0.0
C2235 C 0.11541 0.47522 0.17727 0.0
C2236 C 0.11657 0.45543 0.15821 0.0
C2237 C 0.10313 0.45285 0.13482 0.0
C2238 C 0.08845 0.47005 0.13101 0.0
C2239 C 0.08733 0.48964 0.14931 0.0
C2240 C 0.06907 0.50465 0.14125 0.0
C2241 C 0.04916 0.50389 0.15885 0.0
C2242 C 0.08104 0.53168 0.13953 0.0
C2243 C 0.05988 0.49034 0.11562 0.0
C2244 C 0.07145 0.47062 0.10987 0.0
C2245 C 0.06635 0.45517 0.08687 0.0
C2246 C 0.04929 0.46032 0.06915 0.0
C2247 C 0.03728 0.48042 0.07478 0.0
C2248 C 0.04246 0.49536 0.09843 0.0
H2249 H 0.76376 0.86171 0.47501 0.0
H2250 H 0.82014 0.82037 0.4896 0.0
H2251 H 0.81108 0.79733 0.44664 0.0
H2252 H 0.72247 0.8111 0.437 0.0
H2253 H 0.71236 0.83094 0.41593 0.0
H2254 H 0.72289 0.84354 0.44805 0.0
H2255 H 0.75372 0.87772 0.43308 0.0
H2256 H 0.74333 0.8652 0.40093 0.0
H2257 H 0.77444 0.86864 0.41188 0.0
H2258 H 0.79578 0.77885 0.40159 0.0
H2259 H 0.77607 0.76731 0.35821 0.0
H2260 H 0.73061 0.82163 0.37341 0.0
C2261 C 0.77414 0.8477 0.46931 0.0
C2262 C 0.79263 0.84283 0.4858 0.0
C2263 C 0.80588 0.82448 0.47736 0.0
C2264 C 0.80085 0.81125 0.45299 0.0
C2265 C 0.78259 0.81664 0.4372 0.0
C2266 C 0.76948 0.83448 0.44504 0.0
C2267 C 0.75118 0.83723 0.42431 0.0
C2268 C 0.72572 0.83028 0.43177 0.0
C2269 C 0.75596 0.86377 0.41713 0.0
C2270 C 0.75604 0.81819 0.40355 0.0
C2271 C 0.77412 0.80638 0.41133 0.0
C2272 C 0.78161 0.788 0.39531 0.0
C2273 C 0.77032 0.78157 0.37071 0.0
C2274 C 0.75186 0.79361 0.36236 0.0
C2275 C 0.74472 0.81213 0.37912 0.0
H2276 H 0.40312 0.51712 0.84322 0.0
H2277 H 0.4524 0.48535 0.79773 0.0
H2278 H 0.47544 0.47891 0.83628 0.0
H2279 H 0.44442 0.55113 0.88938 0.0
H2280 H 0.42656 0.54605 0.91495 0.0
H2281 H 0.41231 0.5449 0.88388 0.0
H2282 H 0.38888 0.5003 0.8857 0.0
H2283 H 0.40293 0.50137 0.91696 0.0
H2284 H 0.40488 0.47618 0.89289 0.0
H2285 H 0.49564 0.48097 0.8801 0.0
H2286 H 0.5106 0.49034 0.92511 0.0
H2287 H 0.44697 0.51965 0.94097 0.0
C2288 C 0.41828 0.50809 0.84118 0.0
C2289 C 0.4258 0.50152 0.81743 0.0
C2290 C 0.4462 0.49037 0.81576 0.0
C2291 C 0.45937 0.4866 0.83754 0.0
C2292 C 0.45167 0.4938 0.86073 0.0
C2293 C 0.43142 0.50405 0.8626 0.0
C2294 C 0.42775 0.51195 0.8896 0.0
C2295 C 0.42778 0.54017 0.89473 0.0
C2296 C 0.40475 0.49652 0.8967 0.0
C2297 C 0.44961 0.50542 0.90268 0.0
C2298 C 0.4631 0.49474 0.8858 0.0
C2299 C 0.485 0.4889 0.89351 0.0
C2300 C 0.49338 0.49436 0.91908 0.0
C2301 C 0.47989 0.50563 0.93654 0.0
C2302 C 0.45757 0.51077 0.92817 0.0
H2303 H 0.81578 0.21092 0.09261 0.0
H2304 H 0.78119 0.13567 0.10017 0.0
H2305 H 0.77097 0.15082 0.14221 0.0
H2306 H 0.83832 0.2317 0.15958 0.0
H2307 H 0.83189 0.26256 0.15877 0.0
H2308 H 0.83951 0.24531 0.1309 0.0
H2309 H 0.80026 0.25056 0.10665 0.0
H2310 H 0.79248 0.26768 0.13442 0.0
H2311 H 0.77221 0.24026 0.11863 0.0
H2312 H 0.76197 0.17435 0.18185 0.0
H2313 H 0.75304 0.20511 0.21555 0.0
H2314 H 0.79142 0.26551 0.18158 0.0
C2315 C 0.8066 0.19758 0.10343 0.0
C2316 C 0.79956 0.17207 0.09335 0.0
C2317 C 0.78687 0.15526 0.10766 0.0
C2318 C 0.78107 0.16367 0.13157 0.0
C2319 C 0.78784 0.18901 0.14079 0.0
C2320 C 0.80023 0.20577 0.12715 0.0
C2321 C 0.80331 0.23236 0.14034 0.0
C2322 C 0.82984 0.24364 0.14784 0.0
C2323 C 0.79135 0.24866 0.12404 0.0
C2324 C 0.79027 0.22797 0.16322 0.0
C2325 C 0.7819 0.20277 0.16333 0.0
C2326 C 0.76869 0.19409 0.18212 0.0
C2327 C 0.76381 0.21163 0.20122 0.0
C2328 C 0.77207 0.23748 0.20135 0.0
C2329 C 0.78533 0.24576 0.18205 0.0
H2330 H 0.10988 0.49023 0.34065 0.0
H2331 H 0.06589 0.52696 0.29407 0.0
H2332 H 0.04276 0.53604 0.32991 0.0
H2333 H 0.0633 0.46143 0.37365 0.0
H2334 H 0.08202 0.46559 0.40284 0.0
H2335 H 0.09491 0.4623 0.37354 0.0
H2336 H 0.12442 0.50432 0.38754 0.0
H2337 H 0.11172 0.50767 0.41692 0.0
H2338 H 0.11296 0.53209 0.39738 0.0
H2339 H 0.02469 0.54107 0.3717 0.0
H2340 H 0.01366 0.54166 0.41523 0.0
H2341 H 0.07001 0.5012 0.43275 0.0
C2342 C 0.09553 0.50038 0.33795 0.0
C2343 C 0.08979 0.5081 0.31468 0.0
C2344 C 0.07061 0.52096 0.31183 0.0
C2345 C 0.05739 0.52617 0.33204 0.0
C2346 C 0.06358 0.51825 0.3548 0.0
C2347 C 0.08221 0.5056 0.35774 0.0
C2348 C 0.08538 0.49888 0.38387 0.0
C2349 C 0.08114 0.47036 0.38343 0.0
C2350 C 0.11008 0.5115 0.39721 0.0
C2351 C 0.06574 0.50991 0.39534 0.0
C2352 C 0.05326 0.52096 0.3784 0.0
C2353 C 0.03435 0.53244 0.38509 0.0
C2354 C 0.0282 0.53266 0.4098 0.0
C2355 C 0.04099 0.52151 0.42735 0.0
C2356 C 0.05988 0.50994 0.41984 0.0
H2357 H 0.81036 0.83431 0.62454 0.0
H2358 H 0.73862 0.82871 0.58916 0.0
H2359 H 0.72283 0.80205 0.6202 0.0
H2360 H 0.80353 0.77167 0.64312 0.0
H2361 H 0.82143 0.78289 0.67264 0.0
H2362 H 0.82708 0.79871 0.64582 0.0
H2363 H 0.82207 0.84037 0.67133 0.0
H2364 H 0.81654 0.82463 0.69814 0.0
H2365 H 0.79509 0.84171 0.68611 0.0
H2366 H 0.71495 0.77716 0.65706 0.0
H2367 H 0.71562 0.76072 0.69792 0.0
H2368 H 0.79231 0.78541 0.70947 0.0
C2369 C 0.79136 0.82704 0.62291 0.0
C2370 C 0.77576 0.8333 0.60414 0.0
C2371 C 0.75094 0.82401 0.60324 0.0
C2372 C 0.74183 0.80877 0.62074 0.0
C2373 C 0.75775 0.80317 0.63917 0.0
C2374 C 0.782 0.81226 0.64041 0.0
C2375 C 0.79523 0.80577 0.6633 0.0
C2376 C 0.81286 0.78874 0.65576 0.0
C2377 C 0.80797 0.82953 0.68074 0.0
C2378 C 0.77467 0.79185 0.67498 0.0
C2379 C 0.75319 0.79004 0.66066 0.0
C2380 C 0.73172 0.77839 0.6683 0.0
C2381 C 0.73224 0.76897 0.69142 0.0
C2382 C 0.754 0.77175 0.70673 0.0
C2383 C 0.77542 0.78295 0.69808 0.0
H2384 H 0.69209 0.42328 0.50516 0.0
H2385 H 0.72539 0.44801 0.58126 0.0
H2386 H 0.69576 0.47494 0.58874 0.0
H2387 H 0.67895 0.48204 0.49317 0.0
H2388 H 0.65062 0.46889 0.47531 0.0
H2389 H 0.67401 0.45091 0.47609 0.0
H2390 H 0.64582 0.41509 0.49199 0.0
H2391 H 0.62227 0.43284 0.49094 0.0
H2392 H 0.63114 0.42185 0.51966 0.0
H2393 H 0.66252 0.49979 0.58776 0.0
H2394 H 0.62722 0.51878 0.57875 0.0
H2395 H 0.61657 0.47831 0.50319 0.0
C2396 C 0.69304 0.43418 0.52347 0.0
C2397 C 0.71109 0.4335 0.5426 0.0
C2398 C 0.71174 0.44819 0.56627 0.0
C2399 C 0.69501 0.46362 0.57071 0.0
C2400 C 0.67772 0.4642 0.55131 0.0
C2401 C 0.67653 0.44974 0.52821 0.0
C2402 C 0.65621 0.4538 0.51051 0.0
C2403 C 0.66552 0.46455 0.48741 0.0
C2404 C 0.63777 0.42945 0.50283 0.0
C2405 C 0.64626 0.47285 0.52721 0.0
C2406 C 0.65885 0.47864 0.55068 0.0
C2407 C 0.65255 0.49544 0.5694 0.0
C2408 C 0.63256 0.50624 0.56409 0.0
C2409 C 0.61919 0.50019 0.54025 0.0
C2410 C 0.62647 0.48354 0.52157 0.0
H2411 H 0.19703 0.10641 0.53945 0.0
H2412 H 0.20702 0.08433 0.46166 0.0
H2413 H 0.16662 0.05804 0.45519 0.0
H2414 H 0.1654 0.04868 0.55129 0.0
H2415 H 0.14505 0.06184 0.57039 0.0
H2416 H 0.17437 0.07959 0.56874 0.0
H2417 H 0.15592 0.116 0.55435 0.0
H2418 H 0.12656 0.09851 0.55641 0.0
H2419 H 0.13387 0.1098 0.52751 0.0
H2420 H 0.12619 0.03138 0.4584 0.0
H2421 H 0.08686 0.01122 0.46951 0.0
H2422 H 0.10299 0.05285 0.54438 0.0
C2423 C 0.1906 0.09625 0.52099 0.0
C2424 C 0.20513 0.09731 0.50108 0.0
C2425 C 0.19609 0.08389 0.47714 0.0
C2426 C 0.17324 0.06879 0.47332 0.0
C2427 C 0.15957 0.06769 0.49354 0.0
C2428 C 0.16773 0.0815 0.51675 0.0
C2429 C 0.14942 0.07745 0.53528 0.0
C2430 C 0.15915 0.06622 0.55774 0.0
C2431 C 0.14094 0.10189 0.54388 0.0
C2432 C 0.12989 0.05882 0.51903 0.0
C2433 C 0.13609 0.05321 0.49507 0.0
C2434 C 0.12105 0.03583 0.47703 0.0
C2435 C 0.09887 0.02434 0.48354 0.0
C2436 C 0.09194 0.03058 0.50774 0.0
C2437 C 0.10779 0.04786 0.52568 0.0
H2438 H 0.16558 0.93995 0.75291 0.0
H2439 H 0.23068 0.98222 0.79491 0.0
H2440 H 0.25328 0.95153 0.7759 0.0
H2441 H 0.17531 0.88482 0.76639 0.0
H2442 H 0.16217 0.86628 0.73709 0.0
H2443 H 0.15265 0.89494 0.74726 0.0
H2444 H 0.16304 0.91118 0.70567 0.0
H2445 H 0.17257 0.88237 0.6953 0.0
H2446 H 0.19258 0.91183 0.69613 0.0
H2447 H 0.26734 0.9131 0.75838 0.0
H2448 H 0.27068 0.86875 0.74845 0.0
H2449 H 0.19563 0.84988 0.72124 0.0
C2450 C 0.18479 0.94332 0.75706 0.0
C2451 C 0.19661 0.96366 0.77474 0.0
C2452 C 0.2215 0.96692 0.78096 0.0
C2453 C 0.23445 0.94967 0.77016 0.0
C2454 C 0.22213 0.92913 0.75346 0.0
C2455 C 0.19776 0.92584 0.74705 0.0
C2456 C 0.18785 0.9 0.73302 0.0
C2457 C 0.16837 0.88568 0.74678 0.0
C2458 C 0.17846 0.90144 0.70592 0.0
C2459 C 0.21013 0.88878 0.73377 0.0
C2460 C 0.22991 0.90614 0.7447 0.0
C2461 C 0.25209 0.89948 0.74935 0.0
C2462 C 0.25386 0.87428 0.7436 0.0
C2463 C 0.23341 0.8561 0.73401 0.0
C2464 C 0.21155 0.86359 0.72829 0.0
H2465 H 0.32784 0.95309 0.01168 0.0
H2466 H 0.32315 0.87614 0.97882 0.0
H2467 H 0.36567 0.88519 0.97164 0.0
H2468 H 0.37614 0.98273 0.9735 0.0
H2469 H 0.39017 0.00438 0.00062 0.0
H2470 H 0.35825 0.99391 0.99683 0.0
H2471 H 0.36042 0.9791 0.04052 0.0
H2472 H 0.39219 0.98937 0.04436 0.0
H2473 H 0.37959 0.9574 0.04691 0.0
H2474 H 0.40903 0.89972 0.97568 0.0
H2475 H 0.45052 0.91804 0.99218 0.0
H2476 H 0.42826 0.98582 0.02344 0.0
C2477 C 0.33563 0.93853 0.00195 0.0
C2478 C 0.32241 0.91404 0.99548 0.0
C2479 C 0.33315 0.89502 0.9838 0.0
C2480 C 0.35719 0.90008 0.97945 0.0
C2481 C 0.37016 0.92421 0.98701 0.0
C2482 C 0.35978 0.94321 0.99797 0.0
C2483 C 0.37843 0.96619 0.00832 0.0
C2484 C 0.37557 0.9881 0.99395 0.0
C2485 C 0.3776 0.97341 0.0367 0.0
C2486 C 0.40097 0.95662 0.00285 0.0
C2487 C 0.39573 0.93263 0.98988 0.0
C2488 C 0.4134 0.91871 0.98524 0.0
C2489 C 0.43692 0.92925 0.99475 0.0
C2490 C 0.44257 0.9534 0.00885 0.0
C2491 C 0.42448 0.96755 0.0122 0.0
H2492 H 0.82919 0.59663 0.83688 0.0
H2493 H 0.84183 0.56917 0.76114 0.0
H2494 H 0.81072 0.59006 0.74419 0.0
H2495 H 0.76361 0.59376 0.82422 0.0
H2496 H 0.76492 0.62244 0.84498 0.0
H2497 H 0.78552 0.60212 0.85118 0.0
H2498 H 0.82088 0.63892 0.85188 0.0
H2499 H 0.80057 0.65929 0.84535 0.0
H2500 H 0.82352 0.6554 0.82507 0.0
H2501 H 0.78284 0.61888 0.73541 0.0
H2502 H 0.76008 0.65319 0.73582 0.0
H2503 H 0.76447 0.66062 0.817 0.0
C2504 C 0.825 0.59443 0.81674 0.0
C2505 C 0.83797 0.58118 0.80039 0.0
C2506 C 0.83219 0.57919 0.77411 0.0
C2507 C 0.81442 0.59089 0.76426 0.0
C2508 C 0.80239 0.60431 0.78089 0.0
C2509 C 0.8073 0.60597 0.80658 0.0
C2510 C 0.79355 0.62358 0.82035 0.0
C2511 C 0.77584 0.60963 0.83611 0.0
C2512 C 0.81065 0.64559 0.83661 0.0
C2513 C 0.78067 0.63206 0.79839 0.0
C2514 C 0.78585 0.62061 0.77577 0.0
C2515 C 0.77813 0.62751 0.75297 0.0
C2516 C 0.76523 0.64699 0.75336 0.0
C2517 C 0.76012 0.65921 0.77638 0.0
C2518 C 0.76741 0.65111 0.79905 0.0
H2519 H 0.85647 0.62195 0.00026 0.0
H2520 H 0.80744 0.5664 0.03075 0.0
H2521 H 0.84003 0.54365 0.03919 0.0
H2522 H 0.8867 0.58011 0.96826 0.0
H2523 H 0.9158 0.59989 0.97431 0.0
H2524 H 0.88951 0.61362 0.97335 0.0
H2525 H 0.90297 0.63775 0.01805 0.0
H2526 H 0.92949 0.62434 0.01897 0.0
H2527 H 0.90989 0.6208 0.04332 0.0
H2528 H 0.87715 0.52489 0.0409 0.0
H2529 H 0.91652 0.51281 0.03747 0.0
H2530 H 0.9409 0.58038 0.00542 0.0
C2531 C 0.85274 0.60537 0.00933 0.0
C2532 C 0.82944 0.59604 0.015 0.0
C2533 C 0.82518 0.57397 0.02635 0.0
C2534 C 0.84357 0.56089 0.0312 0.0
C2535 C 0.86615 0.57013 0.02463 0.0
C2536 C 0.87088 0.592 0.01417 0.0
C2537 C 0.89634 0.59712 0.00752 0.0
C2538 C 0.89711 0.59771 0.97918 0.0
C2539 C 0.91051 0.62145 0.02288 0.0
C2540 C 0.90499 0.57449 0.01542 0.0
C2541 C 0.88741 0.5592 0.02539 0.0
C2542 C 0.89113 0.53685 0.03333 0.0
C2543 C 0.9135 0.53008 0.03121 0.0
C2544 C 0.93178 0.54557 0.02112 0.0
C2545 C 0.92732 0.56804 0.01316 0.0
H2546 H 0.16692 0.085 0.79229 0.0
H2547 H 0.22037 0.07245 0.84847 0.0
H2548 H 0.24476 0.11348 0.84527 0.0
H2549 H 0.20709 0.11529 0.75371 0.0
H2550 H 0.18883 0.13752 0.74642 0.0
H2551 H 0.17513 0.10739 0.75351 0.0
H2552 H 0.15455 0.12877 0.78885 0.0
H2553 H 0.1681 0.15899 0.78187 0.0
H2554 H 0.17237 0.15136 0.81322 0.0
H2555 H 0.26433 0.15484 0.83452 0.0
H2556 H 0.27646 0.19516 0.81905 0.0
H2557 H 0.2098 0.18143 0.77082 0.0
C2558 C 0.18368 0.09091 0.80405 0.0
C2559 C 0.19171 0.07541 0.82061 0.0
C2560 C 0.21375 0.08396 0.8357 0.0
C2561 C 0.22779 0.10722 0.83397 0.0
C2562 C 0.21949 0.12185 0.81723 0.0
C2563 C 0.19785 0.11417 0.80272 0.0
C2564 C 0.19305 0.13352 0.78627 0.0
C2565 C 0.19091 0.12278 0.75832 0.0
C2566 C 0.1707 0.14377 0.79297 0.0
C2567 C 0.2155 0.15315 0.79363 0.0
C2568 C 0.23056 0.14599 0.81143 0.0
C2569 C 0.25263 0.16074 0.8207 0.0
C2570 C 0.2594 0.18357 0.81171 0.0
C2571 C 0.2441 0.19148 0.79374 0.0
C2572 C 0.22188 0.17596 0.78461 0.0
H2573 H 0.35047 0.97389 0.33599 0.0
H2574 H 0.36272 0.98616 0.25974 0.0
H2575 H 0.33959 0.94422 0.24389 0.0
H2576 H 0.3552 0.90806 0.3271 0.0
H2577 H 0.33234 0.8993 0.34716 0.0
H2578 H 0.35028 0.93028 0.35273 0.0
H2579 H 0.31193 0.94914 0.35012 0.0
H2580 H 0.29388 0.91822 0.34431 0.0
H2581 H 0.29079 0.94008 0.32255 0.0
H2582 H 0.31394 0.90205 0.23587 0.0
H2583 H 0.28973 0.86037 0.23637 0.0
H2584 H 0.29459 0.87444 0.31774 0.0
C2585 C 0.34842 0.9677 0.31598 0.0
C2586 C 0.35841 0.98341 0.29915 0.0
C2587 C 0.35536 0.97452 0.27308 0.0
C2588 C 0.34215 0.95073 0.26383 0.0
C2589 C 0.33226 0.93591 0.28086 0.0
C2590 C 0.33545 0.94384 0.30639 0.0
C2591 C 0.32309 0.92393 0.32055 0.0
C2592 C 0.34132 0.91485 0.33791 0.0
C2593 C 0.30377 0.93342 0.33524 0.0
C2594 C 0.31219 0.90379 0.29892 0.0
C2595 C 0.3177 0.91118 0.27622 0.0
C2596 C 0.3096 0.89595 0.25352 0.0
C2597 C 0.2958 0.87232 0.25403 0.0
C2598 C 0.29027 0.86408 0.2771 0.0
C2599 C 0.29845 0.88019 0.2998 0.0
H2600 H 0.54164 0.34857 0.62082 0.0
H2601 H 0.49715 0.30923 0.55414 0.0
H2602 H 0.50677 0.34637 0.53278 0.0
H2603 H 0.52272 0.4032 0.61988 0.0
H2604 H 0.55084 0.42373 0.63067 0.0
H2605 H 0.5452 0.39268 0.63891 0.0
H2606 H 0.58318 0.38321 0.61955 0.0
H2607 H 0.58923 0.4145 0.61163 0.0
H2608 H 0.58709 0.38806 0.58763 0.0
H2609 H 0.51543 0.38963 0.52136 0.0
H2610 H 0.52428 0.43521 0.5202 0.0
H2611 H 0.56249 0.44625 0.59456 0.0
C2612 C 0.5348 0.34741 0.60136 0.0
C2613 C 0.51883 0.32599 0.58906 0.0
C2614 C 0.50954 0.32546 0.56387 0.0
C2615 C 0.51492 0.34644 0.55156 0.0
C2616 C 0.52971 0.36776 0.56466 0.0
C2617 C 0.53981 0.3683 0.5889 0.0
C2618 C 0.55275 0.39434 0.59986 0.0
C2619 C 0.54223 0.40404 0.62373 0.0
C2620 C 0.57966 0.39506 0.60496 0.0
C2621 C 0.54744 0.4085 0.57846 0.0
C2622 C 0.53446 0.39284 0.55816 0.0
C2623 C 0.52601 0.40203 0.53695 0.0
C2624 C 0.53098 0.42793 0.5365 0.0
C2625 C 0.54409 0.44426 0.55725 0.0
C2626 C 0.55257 0.43427 0.57831 0.0
H2627 H 0.41529 0.74089 0.32261 0.0
H2628 H 0.40037 0.74335 0.40033 0.0
H2629 H 0.36284 0.75733 0.3899 0.0
H2630 H 0.39008 0.79433 0.30869 0.0
H2631 H 0.37717 0.77989 0.27769 0.0
H2632 H 0.40379 0.77143 0.29135 0.0
H2633 H 0.38294 0.72481 0.28454 0.0
H2634 H 0.35635 0.73315 0.27071 0.0
H2635 H 0.35486 0.71596 0.29705 0.0
H2636 H 0.32717 0.77099 0.37147 0.0
H2637 H 0.29322 0.77942 0.34541 0.0
H2638 H 0.32964 0.76628 0.27881 0.0
C2639 C 0.40426 0.74466 0.33749 0.0
C2640 C 0.41104 0.74138 0.36242 0.0
C2641 C 0.39582 0.74592 0.3812 0.0
C2642 C 0.37443 0.75397 0.37547 0.0
C2643 C 0.36836 0.75716 0.35079 0.0
C2644 C 0.38262 0.75234 0.332 0.0
C2645 C 0.37106 0.75567 0.30672 0.0
C2646 C 0.38645 0.77658 0.29545 0.0
C2647 C 0.366 0.73092 0.2887 0.0
C2648 C 0.34814 0.76319 0.3143 0.0
C2649 C 0.34716 0.7642 0.33988 0.0
C2650 C 0.32774 0.77036 0.35143 0.0
C2651 C 0.30852 0.77511 0.33639 0.0
C2652 C 0.30871 0.77348 0.31 0.0
C2653 C 0.32899 0.76777 0.2989 0.0
H2654 H 0.9859 0.68927 0.08627 0.0
H2655 H 0.04461 0.71084 0.14537 0.0
H2656 H 0.06076 0.67365 0.12992 0.0
H2657 H 0.97639 0.62501 0.08871 0.0
H2658 H 0.96954 0.61595 0.05534 0.0
H2659 H 0.9639 0.64531 0.06982 0.0
H2660 H 0.98996 0.66834 0.0396 0.0
H2661 H 0.99579 0.63894 0.02516 0.0
H2662 H 0.02027 0.66391 0.03789 0.0
H2663 H 0.06832 0.63196 0.11048 0.0
H2664 H 0.06621 0.58906 0.08895 0.0
H2665 H 0.00351 0.59607 0.04175 0.0
C2666 C 0.00229 0.68637 0.09586 0.0
C2667 C 0.01395 0.70301 0.11707 0.0
C2668 C 0.03534 0.69842 0.12906 0.0
C2669 C 0.04472 0.67737 0.12037 0.0
C2670 C 0.03266 0.66127 0.09952 0.0
C2671 C 0.01196 0.66561 0.08735 0.0
C2672 C 0.00172 0.64484 0.06615 0.0
C2673 C 0.97641 0.63202 0.07027 0.0
C2674 C 0.00197 0.6546 0.04069 0.0
C2675 C 0.01949 0.62774 0.06881 0.0
C2676 C 0.03733 0.6376 0.08799 0.0
C2677 C 0.05467 0.62423 0.09514 0.0
C2678 C 0.05336 0.59989 0.08279 0.0
C2679 C 0.03484 0.58925 0.06353 0.0
C2680 C 0.01816 0.60375 0.05608 0.0
H2681 H 0.05477 0.25754 0.81706 0.0
H2682 H 0.04327 0.18338 0.83945 0.0
H2683 H 0.08427 0.17972 0.8315 0.0
H2684 H 0.09225 0.24372 0.76702 0.0
H2685 H 0.11158 0.27396 0.7736 0.0
H2686 H 0.08082 0.27058 0.77992 0.0
H2687 H 0.09415 0.29031 0.82607 0.0
H2688 H 0.12493 0.29369 0.81991 0.0
H2689 H 0.11461 0.27684 0.84477 0.0
H2690 H 0.1268 0.18477 0.82416 0.0
H2691 H 0.16852 0.19767 0.81605 0.0
H2692 H 0.1532 0.26797 0.79666 0.0
C2693 C 0.0608 0.24043 0.82004 0.0
C2694 C 0.04571 0.22074 0.82889 0.0
C2695 C 0.05438 0.19873 0.83266 0.0
C2696 C 0.07768 0.19644 0.82819 0.0
C2697 C 0.09213 0.21623 0.81977 0.0
C2698 C 0.08408 0.23775 0.81552 0.0
C2699 C 0.10364 0.25638 0.80695 0.0
C2700 C 0.09665 0.26145 0.78028 0.0
C2701 C 0.10969 0.28074 0.82554 0.0
C2702 C 0.12399 0.24205 0.80743 0.0
C2703 C 0.11685 0.21895 0.81492 0.0
C2704 C 0.13255 0.20269 0.818 0.0
C2705 C 0.15625 0.21023 0.81339 0.0
C2706 C 0.16407 0.23372 0.80552 0.0
C2707 C 0.14764 0.24977 0.80232 0.0
H2708 H 0.53018 0.6934 0.91982 0.0
H2709 H 0.48111 0.71772 0.97059 0.0
H2710 H 0.48635 0.68394 0.99541 0.0
H2711 H 0.509 0.63001 0.91739 0.0
H2712 H 0.53754 0.62064 0.91613 0.0
H2713 H 0.53286 0.64886 0.90448 0.0
H2714 H 0.56903 0.67428 0.93422 0.0
H2715 H 0.57395 0.64605 0.94586 0.0
H2716 H 0.57011 0.67252 0.96738 0.0
H2717 H 0.49335 0.64479 0.01197 0.0
H2718 H 0.50208 0.60359 0.01917 0.0
H2719 H 0.54627 0.60466 0.95744 0.0
C2720 C 0.52109 0.69209 0.93658 0.0
C2721 C 0.50536 0.70835 0.94334 0.0
C2722 C 0.49331 0.70555 0.96506 0.0
C2723 C 0.49621 0.68645 0.97933 0.0
C2724 C 0.51126 0.67027 0.97171 0.0
C2725 C 0.52364 0.67298 0.95094 0.0
C2726 C 0.5371 0.65186 0.94553 0.0
C2727 C 0.52861 0.63697 0.91934 0.0
C2728 C 0.56416 0.66177 0.94843 0.0
C2729 C 0.52984 0.63652 0.96607 0.0
C2730 C 0.51515 0.64757 0.98116 0.0
C2731 C 0.50513 0.63613 0.00051 0.0
C2732 C 0.51014 0.6127 0.00442 0.0
C2733 C 0.52493 0.60091 0.98896 0.0
C2734 C 0.53508 0.61324 0.96977 0.0
H2735 H 0.07355 0.76056 0.65636 0.0
H2736 H 0.05112 0.71153 0.71069 0.0
H2737 H 0.09321 0.7099 0.7229 0.0
H2738 H 0.12416 0.73154 0.63795 0.0
H2739 H 0.14233 0.76118 0.63494 0.0
H2740 H 0.11034 0.75656 0.6289 0.0
H2741 H 0.11003 0.79518 0.66169 0.0
H2742 H 0.14195 0.79986 0.66787 0.0
H2743 H 0.12351 0.79643 0.69323 0.0
H2744 H 0.1379 0.71741 0.73241 0.0
H2745 H 0.18164 0.73211 0.73713 0.0
H2746 H 0.17469 0.77494 0.67559 0.0
C2747 C 0.07743 0.74913 0.67053 0.0
C2748 C 0.059 0.73617 0.68257 0.0
C2749 C 0.0649 0.72156 0.70114 0.0
C2750 C 0.08877 0.72051 0.7082 0.0
C2751 C 0.10652 0.73392 0.69631 0.0
C2752 C 0.10112 0.74775 0.67769 0.0
C2753 C 0.12352 0.76144 0.6687 0.0
C2754 C 0.12518 0.75211 0.64098 0.0
C2755 C 0.12482 0.78991 0.67315 0.0
C2756 C 0.14238 0.75368 0.68562 0.0
C2757 C 0.13224 0.73774 0.70137 0.0
C2758 C 0.14606 0.72953 0.71988 0.0
C2759 C 0.17086 0.73802 0.72247 0.0
C2760 C 0.18156 0.75443 0.70656 0.0
C2761 C 0.16709 0.762 0.68769 0.0
H2762 H 0.02308 0.35648 0.43131 0.0
H2763 H 0.02406 0.32216 0.49922 0.0
H2764 H 0.03395 0.36396 0.52469 0.0
H2765 H 0.06951 0.41449 0.45454 0.0
H2766 H 0.05272 0.43372 0.4385 0.0
H2767 H 0.05129 0.40155 0.42555 0.0
H2768 H 0.0052 0.39356 0.42471 0.0
H2769 H 0.00655 0.42558 0.4377 0.0
H2770 H 0.99195 0.4008 0.45327 0.0
H2771 H 0.03824 0.40881 0.54275 0.0
H2772 H 0.03422 0.45297 0.55205 0.0
H2773 H 0.02816 0.458 0.47234 0.0
C2774 C 0.0264 0.3579 0.45149 0.0
C2775 C 0.02343 0.3363 0.46341 0.0
C2776 C 0.02669 0.33863 0.48987 0.0
C2777 C 0.03237 0.36225 0.50443 0.0
C2778 C 0.03446 0.38332 0.49221 0.0
C2779 C 0.03154 0.38138 0.46631 0.0
C2780 C 0.03107 0.40663 0.45795 0.0
C2781 C 0.05242 0.41456 0.44327 0.0
C2782 C 0.00728 0.40663 0.44251 0.0
C2783 C 0.03337 0.42284 0.48314 0.0
C2784 C 0.03587 0.40919 0.50267 0.0
C2785 C 0.03667 0.4198 0.52763 0.0
C2786 C 0.03437 0.4449 0.53274 0.0
C2787 C 0.03089 0.45892 0.51293 0.0
C2788 C 0.03094 0.44781 0.4879 0.0
H2789 H 0.4171 0.25282 0.20529 0.0
H2790 H 0.39064 0.2288 0.12701 0.0
H2791 H 0.34963 0.21886 0.13883 0.0
H2792 H 0.37494 0.20729 0.23203 0.0
H2793 H 0.37183 0.22957 0.25844 0.0
H2794 H 0.39937 0.23255 0.24409 0.0
H2795 H 0.39623 0.27782 0.23735 0.0
H2796 H 0.36862 0.2749 0.25152 0.0
H2797 H 0.36974 0.28342 0.22042 0.0
H2798 H 0.31163 0.21336 0.15868 0.0
H2799 H 0.27857 0.21314 0.18509 0.0
H2800 H 0.32917 0.24229 0.25074 0.0
C2801 C 0.40273 0.24494 0.19071 0.0
C2802 C 0.40705 0.24132 0.16523 0.0
C2803 C 0.38774 0.23163 0.14661 0.0
C2804 C 0.36439 0.22589 0.15317 0.0
C2805 C 0.36068 0.23015 0.17839 0.0
C2806 C 0.37926 0.23947 0.1969 0.0
C2807 C 0.37018 0.24385 0.2224 0.0
C2808 C 0.37964 0.22732 0.2403 0.0
C2809 C 0.37658 0.27165 0.23357 0.0
C2810 C 0.34357 0.23564 0.2153 0.0
C2811 C 0.33856 0.22762 0.18984 0.0
C2812 C 0.31532 0.21941 0.17866 0.0
C2813 C 0.29666 0.21938 0.19389 0.0
C2814 C 0.30127 0.2276 0.22004 0.0
C2815 C 0.32508 0.23586 0.23084 0.0
H2816 H 0.57629 0.48206 0.35708 0.0
H2817 H 0.59445 0.56105 0.3516 0.0
H2818 H 0.5781 0.57092 0.3921 0.0
H2819 H 0.51942 0.48596 0.38406 0.0
H2820 H 0.52247 0.46204 0.40345 0.0
H2821 H 0.53502 0.46136 0.37386 0.0
H2822 H 0.57649 0.46066 0.39641 0.0
H2823 H 0.56409 0.46134 0.42602 0.0
H2824 H 0.58926 0.48485 0.422 0.0
H2825 H 0.56394 0.57192 0.43507 0.0
H2826 H 0.54956 0.5642 0.47585 0.0
H2827 H 0.53647 0.48439 0.45142 0.0
C2828 C 0.57659 0.5014 0.36441 0.0
C2829 C 0.58665 0.5209 0.35155 0.0
C2830 C 0.58669 0.54597 0.36133 0.0
C2831 C 0.57748 0.55169 0.38424 0.0
C2832 C 0.56774 0.53201 0.39661 0.0
C2833 C 0.56679 0.50735 0.38681 0.0
C2834 C 0.55516 0.48971 0.40369 0.0
C2835 C 0.53162 0.47383 0.39047 0.0
C2836 C 0.57228 0.47318 0.41255 0.0
C2837 C 0.55064 0.50829 0.42509 0.0
C2838 C 0.55806 0.5326 0.42062 0.0
C2839 C 0.55756 0.55301 0.43851 0.0
C2840 C 0.54942 0.54846 0.46161 0.0
C2841 C 0.54152 0.52377 0.46646 0.0
C2842 C 0.5418 0.50345 0.44783 0.0
H2843 H 0.22847 0.8532 0.08257 0.0
H2844 H 0.25742 0.79287 0.04426 0.0
H2845 H 0.25156 0.76957 0.08009 0.0
H2846 H 0.25725 0.85426 0.13907 0.0
H2847 H 0.23385 0.86065 0.15792 0.0
H2848 H 0.23455 0.87 0.12726 0.0
H2849 H 0.19167 0.84496 0.11417 0.0
H2850 H 0.19065 0.83576 0.14502 0.0
H2851 H 0.1848 0.81232 0.11768 0.0
H2852 H 0.251 0.7572 0.12292 0.0
H2853 H 0.25262 0.75538 0.16854 0.0
H2854 H 0.22313 0.82301 0.1789 0.0
C2855 C 0.23245 0.83456 0.08123 0.0
C2856 C 0.24324 0.82479 0.06057 0.0
C2857 C 0.24902 0.80069 0.05987 0.0
C2858 C 0.24572 0.78726 0.08014 0.0
C2859 C 0.23636 0.79803 0.1009 0.0
C2860 C 0.22933 0.82093 0.10142 0.0
C2861 C 0.22252 0.82971 0.12711 0.0
C2862 C 0.23797 0.85514 0.13849 0.0
C2863 C 0.19582 0.83074 0.12591 0.0
C2864 C 0.22812 0.80893 0.14121 0.0
C2865 C 0.23576 0.79064 0.12571 0.0
C2866 C 0.2444 0.77103 0.13512 0.0
C2867 C 0.2454 0.77021 0.16106 0.0
C2868 C 0.23783 0.7889 0.17724 0.0
C2869 C 0.22864 0.80815 0.16699 0.0
H2870 H 0.9259 0.54336 0.88457 0.0
H2871 H 0.98452 0.55866 0.83917 0.0
H2872 H 0.0131 0.55644 0.87501 0.0
H2873 H 0.95855 0.57511 0.94691 0.0
H2874 H 0.94392 0.55074 0.96294 0.0
H2875 H 0.92875 0.55877 0.93551 0.0
H2876 H 0.92211 0.51233 0.91515 0.0
H2877 H 0.93756 0.50465 0.94251 0.0
H2878 H 0.94751 0.49732 0.9121 0.0
H2879 H 0.0348 0.54802 0.91334 0.0
H2880 H 0.04798 0.53028 0.95057 0.0
H2881 H 0.97536 0.51817 0.97082 0.0
C2882 C 0.94481 0.547 0.88254 0.0
C2883 C 0.95314 0.55153 0.85934 0.0
C2884 C 0.97789 0.55528 0.85692 0.0
C2885 C 0.99425 0.55427 0.87721 0.0
C2886 C 0.98556 0.5493 0.89976 0.0
C2887 C 0.96141 0.54556 0.90257 0.0
C2888 C 0.9566 0.53709 0.92765 0.0
C2889 C 0.94636 0.55661 0.94423 0.0
C2890 C 0.93998 0.51132 0.92412 0.0
C2891 C 0.98168 0.53574 0.93797 0.0
C2892 C -0.00185 0.54351 0.92185 0.0
C2893 C 0.02217 0.54223 0.92634 0.0
C2894 C 0.02948 0.53207 0.9475 0.0
C2895 C 0.01277 0.523 0.96373 0.0
C2896 C 0.98869 0.52549 0.95915 0.0
H2897 H 0.31974 0.17193 0.59533 0.0
H2898 H 0.25309 0.17974 0.55617 0.0
H2899 H 0.2397 0.19589 0.59657 0.0
H2900 H 0.29289 0.14947 0.64867 0.0
H2901 H 0.31807 0.16474 0.67065 0.0
H2902 H 0.32241 0.15483 0.63858 0.0
H2903 H 0.34309 0.19992 0.63458 0.0
H2904 H 0.3388 0.20984 0.66662 0.0
H2905 H 0.32767 0.22536 0.6419 0.0
H2906 H 0.23483 0.2134 0.64195 0.0
H2907 H 0.23721 0.2261 0.68803 0.0
H2908 H 0.30559 0.20298 0.6967 0.0
C2909 C 0.30239 0.1772 0.59527 0.0
C2910 C 0.28757 0.17498 0.57267 0.0
C2911 C 0.26474 0.18145 0.57334 0.0
C2912 C 0.25704 0.19068 0.59616 0.0
C2913 C 0.27216 0.19274 0.61818 0.0
C2914 C 0.29419 0.18572 0.61788 0.0
C2915 C 0.30662 0.18839 0.64408 0.0
C2916 C 0.31019 0.16284 0.65089 0.0
C2917 C 0.33045 0.20701 0.64696 0.0
C2918 C 0.28845 0.19859 0.65921 0.0
C2919 C 0.26874 0.2012 0.64404 0.0
C2920 C 0.25006 0.21112 0.654 0.0
C2921 C 0.25154 0.21832 0.68013 0.0
C2922 C 0.27133 0.21509 0.69592 0.0
C2923 C 0.28995 0.20516 0.68517 0.0
H2924 H 0.56079 0.4966 0.2004 0.0
H2925 H 0.63681 0.52698 0.2116 0.0
H2926 H 0.63667 0.53033 0.16647 0.0
H2927 H 0.56119 0.45904 0.14292 0.0
H2928 H 0.5331 0.46428 0.12922 0.0
H2929 H 0.53871 0.46629 0.16272 0.0
H2930 H 0.52966 0.51112 0.16814 0.0
H2931 H 0.52402 0.50924 0.1346 0.0
H2932 H 0.54587 0.53449 0.15201 0.0
H2933 H 0.629 0.5273 0.1198 0.0
H2934 H 0.6143 0.51816 0.07483 0.0
H2935 H 0.54316 0.49026 0.09392 0.0
C2936 C 0.57736 0.50429 0.19346 0.0
C2937 C 0.59881 0.51157 0.20959 0.0
C2938 C 0.62014 0.52131 0.19965 0.0
C2939 C 0.62024 0.52334 0.17404 0.0
C2940 C 0.59885 0.5157 0.15862 0.0
C2941 C 0.57778 0.50646 0.16794 0.0
C2942 C 0.55749 0.49839 0.14715 0.0
C2943 C 0.54702 0.47034 0.1454 0.0
C2944 C 0.53812 0.51426 0.15069 0.0
C2945 C 0.57057 0.504 0.1246 0.0
C2946 C 0.59438 0.51414 0.13166 0.0
C2947 C 0.61034 0.51964 0.11407 0.0
C2948 C 0.60183 0.51432 0.08857 0.0
C2949 C 0.57757 0.50362 0.08088 0.0
C2950 C 0.56171 0.49879 0.09922 0.0
H2951 H 0.25601 0.80599 0.9407 0.0
H2952 H 0.233 0.8759 0.93255 0.0
H2953 H 0.22497 0.86284 0.8867 0.0
H2954 H 0.28716 0.80305 0.8895 0.0
H2955 H 0.27899 0.76976 0.8801 0.0
H2956 H 0.27924 0.78261 0.91241 0.0
H2957 H 0.23511 0.7612 0.91235 0.0
H2958 H 0.23479 0.74789 0.88007 0.0
H2959 H 0.21296 0.76637 0.88899 0.0
H2960 H 0.22694 0.84563 0.84158 0.0
H2961 H 0.23382 0.82332 0.80092 0.0
H2962 H 0.25309 0.76337 0.83846 0.0
C2963 C 0.24856 0.81823 0.92936 0.0
C2964 C 0.24505 0.84195 0.94019 0.0
C2965 C 0.23552 0.85754 0.92472 0.0
C2966 C 0.23103 0.8503 0.89864 0.0
C2967 C 0.2357 0.82723 0.88846 0.0
C2968 C 0.24372 0.81116 0.90344 0.0
C2969 C 0.24879 0.78812 0.88784 0.0
C2970 C 0.2751 0.78577 0.89276 0.0
C2971 C 0.2319 0.76449 0.8926 0.0
C2972 C 0.2433 0.79415 0.86168 0.0
C2973 C 0.23579 0.81681 0.86243 0.0
C2974 C 0.23214 0.82757 0.84075 0.0
C2975 C 0.23623 0.81486 0.81779 0.0
C2976 C 0.24358 0.79149 0.81662 0.0
C2977 C 0.24684 0.78089 0.83881 0.0
H2978 H 0.95511 0.50773 0.72477 0.0
H2979 H 0.88472 0.52584 0.71263 0.0
H2980 H 0.88775 0.52134 0.66703 0.0
H2981 H 0.98106 0.54247 0.6817 0.0
H2982 H -0.0003 0.52096 0.67091 0.0
H2983 H 0.99069 0.52177 0.7021 0.0
H2984 H 0.97263 0.47444 0.69306 0.0
H2985 H 0.98176 0.47343 0.66183 0.0
H2986 H 0.95096 0.4627 0.6663 0.0
H2987 H 0.90013 0.5197 0.6238 0.0
H2988 H 0.92083 0.52072 0.58556 0.0
H2989 H 0.98346 0.50401 0.62569 0.0
C2990 C 0.94006 0.51011 0.71249 0.0
C2991 C 0.91962 0.51703 0.72222 0.0
C2992 C 0.90052 0.52048 0.70556 0.0
C2993 C 0.90205 0.51788 0.67964 0.0
C2994 C 0.92273 0.51173 0.67072 0.0
C2995 C 0.94135 0.50773 0.68659 0.0
C2996 C 0.96242 0.50346 0.67245 0.0
C2997 C 0.98477 0.52335 0.68238 0.0
C2998 C 0.96722 0.47692 0.67347 0.0
C2999 C 0.95303 0.50651 0.64627 0.0
C3000 C 0.92999 0.51095 0.64565 0.0
C3001 C 0.91804 0.5159 0.62396 0.0
C3002 C 0.93001 0.51656 0.60237 0.0
C3003 C 0.95375 0.51241 0.60266 0.0
C3004 C 0.96523 0.50696 0.62483 0.0
H3005 H 0.26303 0.17952 0.43726 0.0
H3006 H 0.32924 0.22686 0.47215 0.0
H3007 H 0.3268 0.25499 0.44024 0.0
H3008 H 0.27491 0.18182 0.37657 0.0
H3009 H 0.24514 0.18281 0.36365 0.0
H3010 H 0.24951 0.16844 0.39135 0.0
H3011 H 0.22589 0.19764 0.41582 0.0
H3012 H 0.22081 0.21185 0.38805 0.0
H3013 H 0.23437 0.231 0.41688 0.0
H3014 H 0.31926 0.27581 0.40199 0.0
H3015 H 0.30739 0.28695 0.36042 0.0
H3016 H 0.24664 0.22564 0.35042 0.0
C3017 C 0.2767 0.19615 0.43864 0.0
C3018 C 0.29629 0.20095 0.45736 0.0
C3019 C 0.31401 0.22273 0.45809 0.0
C3020 C 0.31276 0.23891 0.44006 0.0
C3021 C 0.29359 0.23321 0.42144 0.0
C3022 C 0.27576 0.21247 0.42075 0.0
C3023 C 0.25809 0.20943 0.39768 0.0
C3024 C 0.25685 0.18412 0.38133 0.0
C3025 C 0.23333 0.21268 0.40506 0.0
C3026 C 0.26938 0.23101 0.38495 0.0
C3027 C 0.28955 0.24485 0.39917 0.0
C3028 C 0.30335 0.26524 0.39081 0.0
C3029 C 0.29648 0.27144 0.36718 0.0
C3030 C 0.27621 0.25706 0.35204 0.0
C3031 C 0.26237 0.23686 0.36136 0.0
H3032 H 0.35997 0.5953 0.51517 0.0
H3033 H 0.30843 0.54664 0.55045 0.0
H3034 H 0.3381 0.51972 0.55717 0.0
H3035 H 0.38282 0.54872 0.48138 0.0
H3036 H 0.41336 0.56505 0.48527 0.0
H3037 H 0.38951 0.58241 0.48588 0.0
H3038 H 0.40694 0.60637 0.52919 0.0
H3039 H 0.43121 0.58957 0.52958 0.0
H3040 H 0.41259 0.58943 0.55486 0.0
H3041 H 0.37332 0.49697 0.55792 0.0
H3042 H 0.41098 0.48125 0.55357 0.0
H3043 H 0.43772 0.54413 0.51568 0.0
C3044 C 0.35501 0.5793 0.52482 0.0
C3045 C 0.33192 0.57317 0.53246 0.0
C3046 C 0.32609 0.55181 0.54463 0.0
C3047 C 0.3428 0.53637 0.54843 0.0
C3048 C 0.36516 0.54254 0.53987 0.0
C3049 C 0.37128 0.56362 0.52847 0.0
C3050 C 0.396 0.56572 0.52 0.0
C3051 C 0.39536 0.56546 0.49144 0.0
C3052 C 0.41266 0.58917 0.53426 0.0
C3053 C 0.40267 0.54215 0.52774 0.0
C3054 C 0.38486 0.52915 0.53951 0.0
C3055 C 0.38734 0.507 0.54867 0.0
C3056 C 0.40871 0.49814 0.54601 0.0
C3057 C 0.4271 0.51121 0.53392 0.0
C3058 C 0.42383 0.53338 0.52454 0.0
H3059 H 0.86576 0.91087 0.55111 0.0
H3060 H 0.82907 0.97144 0.53788 0.0
H3061 H 0.86729 0.99789 0.53241 0.0
H3062 H 0.9195 0.94866 0.58483 0.0
H3063 H 0.93911 0.93 0.57061 0.0
H3064 H 0.90893 0.91581 0.57424 0.0
H3065 H 0.90154 0.89989 0.52658 0.0
H3066 H 0.93173 0.91397 0.52292 0.0
H3067 H 0.90719 0.92185 0.50457 0.0
H3068 H 0.90947 0.01864 0.53047 0.0
H3069 H 0.95276 0.03071 0.52731 0.0
H3070 H 0.96198 0.95594 0.53814 0.0
C3071 C 0.86581 0.92969 0.5471 0.0
C3072 C 0.84444 0.93914 0.54507 0.0
C3073 C 0.8452 0.96378 0.53948 0.0
C3074 C 0.86684 0.97901 0.53645 0.0
C3075 C 0.88759 0.96924 0.53868 0.0
C3076 C 0.88728 0.94505 0.54349 0.0
C3077 C 0.91212 0.93895 0.54399 0.0
C3078 C 0.9204 0.93301 0.56996 0.0
C3079 C 0.9132 0.91739 0.52327 0.0
C3080 C 0.92632 0.9635 0.53872 0.0
C3081 C 0.91186 0.98084 0.53616 0.0
C3082 C 0.92098 0.00517 0.53221 0.0
C3083 C 0.94554 0.01191 0.53056 0.0
C3084 C 0.96054 0.99421 0.53233 0.0
C3085 C 0.95078 0.96972 0.53647 0.0
H3086 H 0.82581 0.0712 0.28957 0.0
H3087 H 0.86006 0.06181 0.22102 0.0
H3088 H 0.84292 0.09626 0.20624 0.0
H3089 H 0.77094 0.08898 0.26089 0.0
H3090 H 0.76968 0.11121 0.28803 0.0
H3091 H 0.78184 0.08359 0.29157 0.0
H3092 H 0.82096 0.11124 0.31418 0.0
H3093 H 0.80898 0.13886 0.31065 0.0
H3094 H 0.83694 0.1354 0.29879 0.0
H3095 H 0.8272 0.13557 0.20187 0.0
H3096 H 0.81293 0.17561 0.20766 0.0
H3097 H 0.78761 0.15844 0.27821 0.0
C3098 C 0.82931 0.07596 0.27119 0.0
C3099 C 0.84432 0.06372 0.25647 0.0
C3100 C 0.84854 0.07076 0.23261 0.0
C3101 C 0.83885 0.09031 0.22403 0.0
C3102 C 0.82468 0.10241 0.23934 0.0
C3103 C 0.81967 0.09529 0.26229 0.0
C3104 C 0.80543 0.11245 0.276 0.0
C3105 C 0.78049 0.0982 0.27931 0.0
C3106 C 0.81889 0.12524 0.30139 0.0
C3107 C 0.80405 0.13098 0.25766 0.0
C3108 C 0.81507 0.12474 0.23651 0.0
C3109 C 0.81807 0.14034 0.21807 0.0
C3110 C 0.80999 0.16306 0.22155 0.0
C3111 C 0.79892 0.16989 0.24321 0.0
C3112 C 0.79544 0.15335 0.26116 0.0
H3113 H 0.69649 0.11333 0.01722 0.0
H3114 H 0.71943 0.06891 0.07224 0.0
H3115 H 0.67736 0.05376 0.07864 0.0
H3116 H 0.64698 0.13112 0.04867 0.0
H3117 H 0.62831 0.12899 0.01975 0.0
H3118 H 0.66026 0.13708 0.02032 0.0
H3119 H 0.65953 0.10023 0.98504 0.0
H3120 H 0.62761 0.09208 0.98431 0.0
H3121 H 0.64569 0.0691 0.9893 0.0
H3122 H 0.63251 0.04097 0.07651 0.0
H3123 H 0.58858 0.03268 0.06681 0.0
H3124 H 0.59558 0.08703 0.01477 0.0
C3125 C 0.69272 0.10057 0.03077 0.0
C3126 C 0.71126 0.09229 0.04421 0.0
C3127 C 0.70553 0.07554 0.06174 0.0
C3128 C 0.68169 0.06684 0.06553 0.0
C3129 C 0.66384 0.07525 0.05181 0.0
C3130 C 0.6691 0.09185 0.03489 0.0
C3131 C 0.64668 0.0975 0.02198 0.0
C3132 C 0.64549 0.12532 0.02806 0.0
C3133 C 0.64477 0.08923 0.99348 0.0
C3134 C 0.62795 0.08132 0.03412 0.0
C3135 C 0.63815 0.06854 0.05121 0.0
C3136 C 0.62432 0.05117 0.06346 0.0
C3137 C 0.59944 0.04658 0.05786 0.0
C3138 C 0.58873 0.05951 0.04038 0.0
C3139 C 0.60322 0.07733 0.0287 0.0
H3140 H 0.19882 0.45144 0.31441 0.0
H3141 H 0.20269 0.46874 0.23848 0.0
H3142 H 0.23147 0.44042 0.23171 0.0
H3143 H 0.2612 0.44258 0.32728 0.0
H3144 H 0.25201 0.41666 0.34402 0.0
H3145 H 0.23526 0.44152 0.34427 0.0
H3146 H 0.19677 0.40923 0.32754 0.0
H3147 H 0.21336 0.38434 0.32721 0.0
H3148 H 0.19639 0.38831 0.29896 0.0
H3149 H 0.25676 0.40728 0.23209 0.0
H3150 H 0.27341 0.36972 0.238 0.0
H3151 H 0.25094 0.37271 0.31304 0.0
C3152 C 0.20628 0.44992 0.29659 0.0
C3153 C 0.19885 0.46262 0.27709 0.0
C3154 C 0.20835 0.45937 0.25375 0.0
C3155 C 0.22477 0.44343 0.24979 0.0
C3156 C 0.23134 0.43079 0.26931 0.0
C3157 C 0.22226 0.43379 0.29222 0.0
C3158 C 0.22966 0.41582 0.30905 0.0
C3159 C 0.24548 0.43 0.33255 0.0
C3160 C 0.20774 0.3984 0.31608 0.0
C3161 C 0.24381 0.40171 0.29181 0.0
C3162 C 0.24505 0.41098 0.2692 0.0
C3163 C 0.25612 0.40006 0.24982 0.0
C3164 C 0.26557 0.37873 0.2534 0.0
C3165 C 0.26351 0.36828 0.27602 0.0
C3166 C 0.25298 0.38036 0.29563 0.0
H3167 H 0.22215 0.43489 -0.00054 0.0
H3168 H 0.21421 0.41174 0.07282 0.0
H3169 H 0.17666 0.42769 0.07421 0.0
H3170 H 0.19859 0.49158 0.0109 0.0
H3171 H 0.18317 0.48791 0.97989 0.0
H3172 H 0.20985 0.47525 0.98474 0.0
H3173 H 0.18701 0.43136 0.9645 0.0
H3174 H 0.16036 0.44394 0.95938 0.0
H3175 H 0.15997 0.41784 0.97663 0.0
H3176 H 0.14012 0.44631 0.06792 0.0
H3177 H 0.10528 0.46296 0.05271 0.0
H3178 H 0.13625 0.47318 0.983 0.0
C3179 C 0.21253 0.43318 0.01583 0.0
C3180 C 0.22121 0.42212 0.03607 0.0
C3181 C 0.20795 0.4201 0.05705 0.0
C3182 C 0.18664 0.42922 0.0581 0.0
C3183 C 0.17872 0.44023 0.03796 0.0
C3184 C 0.19109 0.44203 0.01711 0.0
C3185 C 0.17816 0.45387 0.99763 0.0
C3186 C 0.19336 0.47862 0.99303 0.0
C3187 C 0.17095 0.43566 0.97309 0.0
C3188 C 0.15655 0.45832 0.01076 0.0
C3189 C 0.15736 0.45055 0.03412 0.0
C3190 C 0.13928 0.45244 0.04965 0.0
C3191 C 0.11956 0.46198 0.04085 0.0
C3192 C 0.11795 0.46935 0.01663 0.0
C3193 C 0.13695 0.46784 0.00163 0.0
H3194 H 0.85436 0.92306 0.25972 0.0
H3195 H 0.80183 0.96546 0.28573 0.0
H3196 H 0.77177 0.92652 0.28159 0.0
H3197 H 0.81293 0.87365 0.2157 0.0
H3198 H 0.82814 0.84937 0.22414 0.0
H3199 H 0.84451 0.88081 0.22546 0.0
H3200 H 0.85945 0.8809 0.27199 0.0
H3201 H 0.84307 0.84956 0.27083 0.0
H3202 H 0.83804 0.87405 0.29412 0.0
H3203 H 0.74828 0.88289 0.27787 0.0
H3204 H 0.73372 0.83762 0.27682 0.0
H3205 H 0.80198 0.8232 0.25523 0.0
C3206 C 0.83633 0.92413 0.26381 0.0
C3207 C 0.83026 0.94726 0.27267 0.0
C3208 C 0.80674 0.94791 0.27872 0.0
C3209 C 0.78954 0.92592 0.27636 0.0
C3210 C 0.79617 0.90331 0.26814 0.0
C3211 C 0.81901 0.90221 0.26201 0.0
C3212 C 0.82214 0.87532 0.25612 0.0
C3213 C 0.82722 0.86944 0.22872 0.0
C3214 C 0.84183 0.86963 0.27436 0.0
C3215 C 0.79769 0.86157 0.2604 0.0
C3216 C 0.78285 0.87805 0.26689 0.0
C3217 C 0.75967 0.86978 0.27257 0.0
C3218 C 0.75153 0.84401 0.2719 0.0
C3219 C 0.76664 0.82679 0.26593 0.0
C3220 C 0.78993 0.83582 0.25982 0.0
H3221 H 0.64487 0.0886 0.78139 0.0
H3222 H 0.71381 0.06799 0.79485 0.0
H3223 H 0.73374 0.10957 0.7865 0.0
H3224 H 0.6601 0.13083 0.73342 0.0
H3225 H 0.64295 0.1529 0.74645 0.0
H3226 H 0.63397 0.12011 0.74855 0.0
H3227 H 0.635 0.13028 0.79682 0.0
H3228 H 0.64387 0.16299 0.79484 0.0
H3229 H 0.6619 0.14796 0.81469 0.0
H3230 H 0.74613 0.15418 0.78118 0.0
H3231 H 0.75054 0.19987 0.7835 0.0
H3232 H 0.67346 0.19245 0.77585 0.0
C3233 C 0.66412 0.09273 0.78178 0.0
C3234 C 0.67796 0.07523 0.78821 0.0
C3235 C 0.70309 0.08128 0.78962 0.0
C3236 C 0.71447 0.10471 0.78477 0.0
C3237 C 0.7004 0.12186 0.77886 0.0
C3238 C 0.67576 0.11626 0.77756 0.0
C3239 C 0.66499 0.13909 0.77447 0.0
C3240 C 0.64959 0.13551 0.74921 0.0
C3241 C 0.65061 0.14545 0.79652 0.0
C3242 C 0.68743 0.15854 0.77494 0.0
C3243 C 0.70761 0.14808 0.77688 0.0
C3244 C 0.73047 0.16256 0.77936 0.0
C3245 C 0.73278 0.18852 0.78069 0.0
C3246 C 0.71234 0.19975 0.7799 0.0
C3247 C 0.68942 0.18443 0.77625 0.0
loop_
_geom_bond_atom_site_label_1
_geom_bond_atom_site_label_2
_geom_bond_distance
_geom_bond_site_symmetry_2
_ccdc_geom_bond_type
Mg0 O1 2.028 . S
Mg0 O7 1.986 . S
Mg0 O9 2.108 1_455 S
Mg0 O10 2.251 1_455 S
Mg0 O13 2.010 . S
O1 Mg0 2.028 . S
O1 C4 1.250 . S
O2 Mg3 2.028 1_455 S
O2 C4 1.248 . S
Mg3 O2 2.028 1_655 S
Mg3 O8 2.032 . S
Mg3 O10 2.079 . S
C4 O1 1.250 . S
C4 O2 1.248 . S
C5 O6 1.264 . S
C5 O13 1.249 . S
O6 C5 1.264 . S
O7 Mg0 1.986 . S
O7 C11 1.246 . S
O8 Mg3 2.032 . S
O8 C11 1.259 1_655 S
O9 Mg0 2.108 1_655 S
O9 C12 1.260 . S
O10 Mg0 2.251 1_655 S
O10 Mg3 2.079 . S
O10 C12 1.273 . S
C11 O7 1.246 . S
C11 O8 1.259 1_455 S
C12 O9 1.260 . S
C12 O10 1.273 . S
O13 Mg0 2.010 . S
O13 C5 1.249 . S
Mg14 O15 2.028 . S
Mg14 O21 1.986 . S
Mg14 O23 2.114 1_455 S
Mg14 O24 2.251 1_455 S
Mg14 O27 2.010 . S
O15 Mg14 2.028 . S
O15 C18 1.250 1_455 S
O16 Mg17 2.028 . S
O16 C18 1.248 . S
Mg17 O16 2.028 . S
Mg17 O22 2.032 . S
Mg17 O24 2.079 . S
C18 O15 1.250 1_655 S
C18 O16 1.248 . S
C19 O20 1.264 . S
C19 O27 1.249 . S
O20 C19 1.264 . S
O21 Mg14 1.986 . S
O21 C25 1.246 . S
O22 Mg17 2.032 . S
O22 C25 1.259 1_655 S
O23 Mg14 2.114 1_655 S
O23 C26 1.252 . S
O24 Mg14 2.251 1_655 S
O24 Mg17 2.079 . S
O24 C26 1.273 . S
C25 O21 1.246 . S
C25 O22 1.259 1_455 S
C26 O23 1.252 . S
C26 O24 1.273 . S
O27 Mg14 2.010 . S
O27 C19 1.249 . S
Mg28 O29 2.028 . S
Mg28 O35 1.986 . S
Mg28 O37 2.114 . S
Mg28 O38 2.251 . S
Mg28 O41 2.010 . S
O29 Mg28 2.028 . S
O29 C32 1.250 . S
O30 Mg31 2.028 . S
O30 C32 1.248 . S
Mg31 O30 2.028 . S
Mg31 O36 2.032 . S
Mg31 O38 2.079 . S
C32 O29 1.250 . S
C32 O30 1.248 . S
C33 O34 1.264 . S
C33 O41 1.249 . S
O34 C33 1.264 . S
O35 Mg28 1.986 . S
O35 C39 1.246 . S
O36 Mg31 2.032 . S
O36 C39 1.259 . S
O37 Mg28 2.114 . S
O37 C40 1.252 . S
O38 Mg28 2.251 . S
O38 Mg31 2.079 . S
O38 C40 1.273 . S
C39 O35 1.246 . S
C39 O36 1.259 . S
C40 O37 1.252 . S
C40 O38 1.273 . S
O41 Mg28 2.010 . S
O41 C33 1.249 . S
Mg42 O43 2.028 . S
Mg42 O49 1.986 . S
Mg42 O51 2.114 . S
Mg42 O52 2.251 . S
Mg42 O55 2.010 . S
O43 Mg42 2.028 . S
O43 C46 1.250 . S
O44 Mg45 2.028 . S
O44 C46 1.248 . S
Mg45 O44 2.028 . S
Mg45 O50 2.032 . S
Mg45 O52 2.079 . S
C46 O43 1.250 . S
C46 O44 1.248 . S
C47 O48 1.264 . S
C47 O55 1.249 . S
O48 C47 1.264 . S
O49 Mg42 1.986 . S
O49 C53 1.246 . S
O50 Mg45 2.032 . S
O50 C53 1.259 . S
O51 Mg42 2.114 . S
O51 C54 1.252 . S
O52 Mg42 2.251 . S
O52 Mg45 2.079 . S
O52 C54 1.273 . S
C53 O49 1.246 . S
C53 O50 1.259 . S
C54 O51 1.252 . S
C54 O52 1.273 . S
O55 Mg42 2.010 . S
O55 C47 1.249 . S
Mg56 O57 2.028 . S
Mg56 O63 1.986 . S
Mg56 O65 2.114 . S
Mg56 O66 2.251 1_455 S
Mg56 O69 2.010 . S
O57 Mg56 2.028 . S
O57 C60 1.250 . S
O58 Mg59 2.028 1_455 S
O58 C60 1.248 . S
Mg59 O58 2.028 1_655 S
Mg59 O64 2.032 1_655 S
Mg59 O66 2.079 . S
C60 O57 1.250 . S
C60 O58 1.248 . S
C61 O62 1.264 . S
C61 O69 1.249 . S
O62 C61 1.264 . S
O63 Mg56 1.986 . S
O63 C67 1.246 . S
O64 Mg59 2.032 1_455 S
O64 C67 1.259 . S
O65 Mg56 2.114 . S
O65 C68 1.252 1_455 S
O66 Mg56 2.251 1_655 S
O66 Mg59 2.079 . S
O66 C68 1.273 . S
C67 O63 1.246 . S
C67 O64 1.259 . S
C68 O65 1.252 1_655 S
C68 O66 1.273 . S
O69 Mg56 2.010 . S
O69 C61 1.249 . S
Mg70 O71 2.028 . S
Mg70 O77 1.986 . S
Mg70 O79 2.114 . S
Mg70 O80 2.251 . S
Mg70 O83 2.010 . S
O71 Mg70 2.028 . S
O71 C74 1.250 . S
O72 Mg73 2.028 . S
O72 C74 1.248 . S
Mg73 O72 2.028 . S
Mg73 O78 2.032 . S
Mg73 O80 2.079 . S
C74 O71 1.250 . S
C74 O72 1.248 . S
C75 O76 1.264 . S
C75 O83 1.249 . S
O76 C75 1.264 . S
O77 Mg70 1.986 . S
O77 C81 1.246 . S
O78 Mg73 2.032 . S
O78 C81 1.259 . S
O79 Mg70 2.114 . S
O79 C82 1.252 . S
O80 Mg70 2.251 . S
O80 Mg73 2.079 . S
O80 C82 1.273 . S
C81 O77 1.246 . S
C81 O78 1.259 . S
C82 O79 1.252 . S
C82 O80 1.273 . S
O83 Mg70 2.010 . S
O83 C75 1.249 . S
Mg84 O85 2.028 . S
Mg84 O91 1.986 . S
Mg84 O93 2.114 . S
Mg84 O94 2.251 . S
Mg84 O97 2.010 . S
O85 Mg84 2.028 . S
O85 C88 1.250 . S
O86 Mg87 2.028 . S
O86 C88 1.248 . S
Mg87 O86 2.028 . S
Mg87 O92 2.032 . S
Mg87 O94 2.079 . S
C88 O85 1.250 . S
C88 O86 1.248 . S
C89 O90 1.264 . S
C89 O97 1.249 . S
O90 C89 1.264 . S
O91 Mg84 1.986 . S
O91 C95 1.246 . S
O92 Mg87 2.032 . S
O92 C95 1.259 . S
O93 Mg84 2.114 . S
O93 C96 1.252 . S
O94 Mg84 2.251 . S
O94 Mg87 2.079 . S
O94 C96 1.273 . S
C95 O91 1.246 . S
C95 O92 1.259 . S
C96 O93 1.252 . S
C96 O94 1.273 . S
O97 Mg84 2.010 . S
O97 C89 1.249 . S
Mg98 O99 2.028 1_655 S
Mg98 O105 1.986 1_655 S
Mg98 O107 2.114 . S
Mg98 O108 2.251 . S
Mg98 O111 2.010 1_655 S
O99 Mg98 2.028 1_455 S
O99 C102 1.250 1_455 S
O100 Mg101 2.028 . S
O100 C102 1.248 . S
Mg101 O100 2.028 . S
Mg101 O106 2.032 . S
Mg101 O108 2.079 . S
C102 O99 1.250 1_655 S
C102 O100 1.248 . S
C103 O104 1.264 . S
C103 O111 1.249 . S
O104 C103 1.264 . S
O105 Mg98 1.986 1_455 S
O105 C109 1.246 1_455 S
O106 Mg101 2.032 . S
O106 C109 1.259 . S
O107 Mg98 2.114 . S
O107 C110 1.252 . S
O108 Mg98 2.251 . S
O108 Mg101 2.079 . S
O108 C110 1.273 . S
C109 O105 1.246 1_655 S
C109 O106 1.259 . S
C110 O107 1.252 . S
C110 O108 1.273 . S
O111 Mg98 2.010 1_455 S
O111 C103 1.249 . S
Mg112 O113 2.060 . S
Mg112 O119 1.986 . S
Mg112 O121 2.114 . S
Mg112 O122 2.251 . S
Mg112 O125 2.010 . S
O113 Mg112 2.060 . S
O113 C116 1.232 1_545 S
O114 Mg115 2.028 1_565 S
O114 C116 1.248 . S
Mg115 O114 2.028 1_545 S
Mg115 O120 2.032 . S
Mg115 O122 2.079 . S
C116 O113 1.232 1_565 S
C116 O114 1.248 . S
C117 O118 1.264 . S
C117 O125 1.249 . S
O118 C117 1.264 . S
O119 Mg112 1.986 . S
O119 C123 1.246 . S
O120 Mg115 2.032 . S
O120 C123 1.259 . S
O121 Mg112 2.114 . S
O121 C124 1.252 . S
O122 Mg112 2.251 . S
O122 Mg115 2.079 . S
O122 C124 1.273 . S
C123 O119 1.246 . S
C123 O120 1.259 . S
C124 O121 1.252 . S
C124 O122 1.273 . S
O125 Mg112 2.010 . S
O125 C117 1.249 . S
Mg126 O127 2.028 . S
Mg126 O133 1.986 . S
Mg126 O135 2.114 . S
Mg126 O136 2.251 . S
Mg126 O139 2.010 . S
O127 Mg126 2.028 . S
O127 C130 1.250 . S
O128 Mg129 2.028 . S
O128 C130 1.248 . S
Mg129 O128 2.028 . S
Mg129 O134 2.032 . S
Mg129 O136 2.079 . S
C130 O127 1.250 . S
C130 O128 1.248 . S
C131 O132 1.264 . S
C131 O139 1.249 . S
O132 C131 1.264 . S
O133 Mg126 1.986 . S
O133 C137 1.246 . S
O134 Mg129 2.032 . S
O134 C137 1.259 . S
O135 Mg126 2.114 . S
O135 C138 1.252 . S
O136 Mg126 2.251 . S
O136 Mg129 2.079 . S
O136 C138 1.273 . S
C137 O133 1.246 . S
C137 O134 1.259 . S
C138 O135 1.252 . S
C138 O136 1.273 . S
O139 Mg126 2.010 . S
O139 C131 1.249 . S
Mg140 O141 2.028 . S
Mg140 O147 1.986 1_545 S
Mg140 O149 2.114 . S
Mg140 O150 2.251 . S
Mg140 O153 2.010 1_545 S
O141 Mg140 2.028 . S
O141 C144 1.250 . S
O142 Mg143 2.028 . S
O142 C144 1.248 . S
Mg143 O142 2.028 . S
Mg143 O148 2.032 1_545 S
Mg143 O150 2.079 . S
C144 O141 1.250 . S
C144 O142 1.248 . S
C145 O146 1.264 . S
C145 O153 1.249 . S
O146 C145 1.264 . S
O147 Mg140 1.986 1_565 S
O147 C151 1.246 . S
O148 Mg143 2.032 1_565 S
O148 C151 1.259 . S
O149 Mg140 2.114 . S
O149 C152 1.252 . S
O150 Mg140 2.251 . S
O150 Mg143 2.079 . S
O150 C152 1.273 . S
C151 O147 1.246 . S
C151 O148 1.259 . S
C152 O149 1.252 . S
C152 O150 1.273 . S
O153 Mg140 2.010 1_565 S
O153 C145 1.249 . S
Mg154 O155 2.028 1_554 S
Mg154 O161 1.986 . S
Mg154 O163 2.114 . S
Mg154 O164 2.251 . S
Mg154 O167 2.010 . S
O155 Mg154 2.028 1_556 S
O155 C158 1.250 . S
O156 Mg157 2.028 1_556 S
O156 C158 1.248 . S
Mg157 O156 2.028 1_554 S
Mg157 O162 2.032 . S
Mg157 O164 2.079 . S
C158 O155 1.250 . S
C158 O156 1.248 . S
C159 O160 1.264 . S
C159 O167 1.249 . S
O160 C159 1.264 . S
O161 Mg154 1.986 . S
O161 C165 1.246 . S
O162 Mg157 2.032 . S
O162 C165 1.259 . S
O163 Mg154 2.114 . S
O163 C166 1.252 . S
O164 Mg154 2.251 . S
O164 Mg157 2.079 . S
O164 C166 1.273 . S
C165 O161 1.246 . S
C165 O162 1.259 . S
C166 O163 1.252 . S
C166 O164 1.273 . S
O167 Mg154 2.010 . S
O167 C159 1.249 . S
Mg168 O169 2.028 . S
Mg168 O175 1.986 . S
Mg168 O177 2.114 . S
Mg168 O178 2.251 . S
Mg168 O181 2.010 . S
O169 Mg168 2.028 . S
O169 C172 1.250 . S
O170 Mg171 2.028 . S
O170 C172 1.248 . S
Mg171 O170 2.028 . S
Mg171 O176 2.032 . S
Mg171 O178 2.079 . S
C172 O169 1.250 . S
C172 O170 1.248 . S
C173 O174 1.264 . S
C173 O181 1.249 . S
O174 C173 1.264 . S
O175 Mg168 1.986 . S
O175 C179 1.246 . S
O176 Mg171 2.032 . S
O176 C179 1.259 . S
O177 Mg168 2.114 . S
O177 C180 1.252 . S
O178 Mg168 2.251 . S
O178 Mg171 2.079 . S
O178 C180 1.273 . S
C179 O175 1.246 . S
C179 O176 1.259 . S
C180 O177 1.252 . S
C180 O178 1.273 . S
O181 Mg168 2.010 . S
O181 C173 1.249 . S
Mg182 O183 2.028 . S
Mg182 O189 1.986 1_554 S
Mg182 O191 2.114 . S
Mg182 O192 2.251 . S
Mg182 O195 2.010 . S
O183 Mg182 2.028 . S
O183 C186 1.250 . S
O184 Mg185 2.028 . S
O184 C186 1.248 . S
Mg185 O184 2.028 . S
Mg185 O190 2.032 . S
Mg185 O192 2.079 . S
C186 O183 1.250 . S
C186 O184 1.248 . S
C187 O188 1.264 . S
C187 O195 1.249 . S
O188 C187 1.264 . S
O189 Mg182 1.986 1_556 S
O189 C193 1.246 . S
O190 Mg185 2.032 . S
O190 C193 1.259 1_554 S
O191 Mg182 2.114 . S
O191 C194 1.252 . S
O192 Mg182 2.251 . S
O192 Mg185 2.079 . S
O192 C194 1.273 . S
C193 O189 1.246 . S
C193 O190 1.259 1_556 S
C194 O191 1.252 . S
C194 O192 1.273 . S
O195 Mg182 2.010 . S
O195 C187 1.249 . S
Mg196 O197 2.028 . S
Mg196 O203 1.986 . S
Mg196 O205 2.114 . S
Mg196 O206 2.251 . S
Mg196 O209 2.010 . S
O197 Mg196 2.028 . S
O197 C200 1.250 . S
O198 Mg199 2.028 . S
O198 C200 1.248 . S
Mg199 O198 2.028 . S
Mg199 O204 2.032 . S
Mg199 O206 2.079 . S
C200 O197 1.250 . S
C200 O198 1.248 . S
C201 O202 1.264 . S
C201 O209 1.249 . S
O202 C201 1.264 . S
O203 Mg196 1.986 . S
O203 C207 1.246 . S
O204 Mg199 2.032 . S
O204 C207 1.259 . S
O205 Mg196 2.114 . S
O205 C208 1.252 . S
O206 Mg196 2.251 . S
O206 Mg199 2.079 . S
O206 C208 1.273 . S
C207 O203 1.246 . S
C207 O204 1.259 . S
C208 O205 1.252 . S
C208 O206 1.273 . S
O209 Mg196 2.010 . S
O209 C201 1.249 . S
Mg210 O211 2.028 . S
Mg210 O217 1.986 . S
Mg210 O219 2.114 . S
Mg210 O220 2.251 . S
Mg210 O223 2.010 . S
O211 Mg210 2.028 . S
O211 C214 1.250 . S
O212 Mg213 2.028 . S
O212 C214 1.248 . S
Mg213 O212 2.028 . S
Mg213 O218 2.032 . S
Mg213 O220 2.079 . S
C214 O211 1.250 . S
C214 O212 1.248 . S
C215 O216 1.264 . S
C215 O223 1.249 . S
O216 C215 1.264 . S
O217 Mg210 1.986 . S
O217 C221 1.246 . S
O218 Mg213 2.032 . S
O218 C221 1.259 . S
O219 Mg210 2.114 . S
O219 C222 1.252 . S
O220 Mg210 2.251 . S
O220 Mg213 2.079 . S
O220 C222 1.273 . S
C221 O217 1.246 . S
C221 O218 1.259 . S
C222 O219 1.252 . S
C222 O220 1.273 . S
O223 Mg210 2.010 . S
O223 C215 1.249 . S
Mg224 O225 2.028 1_545 S
Mg224 O231 1.986 . S
Mg224 O233 2.114 . S
Mg224 O234 2.251 . S
Mg224 O237 2.010 . S
O225 Mg224 2.028 1_565 S
O225 C228 1.250 . S
O226 Mg227 2.028 1_565 S
O226 C228 1.248 . S
Mg227 O226 2.028 1_545 S
Mg227 O232 2.032 . S
Mg227 O234 2.079 . S
C228 O225 1.250 . S
C228 O226 1.248 . S
C229 O230 1.264 . S
C229 O237 1.249 . S
O230 C229 1.264 . S
O231 Mg224 1.986 . S
O231 C235 1.246 . S
O232 Mg227 2.032 . S
O232 C235 1.259 . S
O233 Mg224 2.114 . S
O233 C236 1.252 . S
O234 Mg224 2.251 . S
O234 Mg227 2.079 . S
O234 C236 1.273 . S
C235 O231 1.246 . S
C235 O232 1.259 . S
C236 O233 1.252 . S
C236 O234 1.273 . S
O237 Mg224 2.010 . S
O237 C229 1.249 . S
Mg238 O239 2.028 . S
Mg238 O245 1.986 . S
Mg238 O247 2.114 . S
Mg238 O248 2.251 . S
Mg238 O251 2.010 . S
O239 Mg238 2.028 . S
O239 C242 1.250 . S
O240 Mg241 2.028 . S
O240 C242 1.248 . S
Mg241 O240 2.028 . S
Mg241 O246 2.032 . S
Mg241 O248 2.079 . S
C242 O239 1.250 . S
C242 O240 1.248 . S
C243 O244 1.264 . S
C243 O251 1.249 . S
O244 C243 1.264 . S
O245 Mg238 1.986 . S
O245 C249 1.246 . S
O246 Mg241 2.032 . S
O246 C249 1.259 . S
O247 Mg238 2.114 . S
O247 C250 1.252 . S
O248 Mg238 2.251 . S
O248 Mg241 2.079 . S
O248 C250 1.273 . S
C249 O245 1.246 . S
C249 O246 1.259 . S
C250 O247 1.252 . S
C250 O248 1.273 . S
O251 Mg238 2.010 . S
O251 C243 1.249 . S
Mg252 O253 2.028 . S
Mg252 O259 1.986 . S
Mg252 O261 2.114 . S
Mg252 O262 2.251 . S
Mg252 O265 2.010 . S
O253 Mg252 2.028 . S
O253 C256 1.250 . S
O254 Mg255 2.028 . S
O254 C256 1.248 . S
Mg255 O254 2.028 . S
Mg255 O260 2.032 . S
Mg255 O262 2.079 . S
C256 O253 1.250 . S
C256 O254 1.248 . S
C257 O258 1.264 . S
C257 O265 1.249 . S
O258 C257 1.264 . S
O259 Mg252 1.986 . S
O259 C263 1.246 . S
O260 Mg255 2.032 . S
O260 C263 1.259 . S
O261 Mg252 2.114 . S
O261 C264 1.252 . S
O262 Mg252 2.251 . S
O262 Mg255 2.079 . S
O262 C264 1.273 . S
C263 O259 1.246 . S
C263 O260 1.259 . S
C264 O261 1.252 . S
C264 O262 1.273 . S
O265 Mg252 2.010 . S
O265 C257 1.249 . S
Mg266 O267 2.028 1_565 S
Mg266 O273 1.986 . S
Mg266 O275 2.114 1_565 S
Mg266 O276 2.251 . S
Mg266 O279 2.010 . S
O267 Mg266 2.028 1_545 S
O267 C270 1.250 . S
O268 Mg269 2.028 . S
O268 C270 1.248 . S
Mg269 O268 2.028 . S
Mg269 O274 2.032 1_545 S
Mg269 O276 2.079 1_545 S
C270 O267 1.250 . S
C270 O268 1.248 . S
C271 O272 1.264 . S
C271 O279 1.249 . S
O272 C271 1.264 . S
O273 Mg266 1.986 . S
O273 C277 1.246 . S
O274 Mg269 2.032 1_565 S
O274 C277 1.259 . S
O275 Mg266 2.114 1_545 S
O275 C278 1.252 . S
O276 Mg266 2.251 . S
O276 Mg269 2.079 1_565 S
O276 C278 1.273 1_565 S
C277 O273 1.246 . S
C277 O274 1.259 . S
C278 O275 1.252 . S
C278 O276 1.273 1_545 S
O279 Mg266 2.010 . S
O279 C271 1.249 . S
Mg280 O281 2.028 1_556 S
Mg280 O287 1.986 . S
Mg280 O289 2.114 1_556 S
Mg280 O290 2.251 . S
Mg280 O293 2.010 . S
O281 Mg280 2.028 1_554 S
O281 C284 1.250 . S
O282 Mg283 2.028 . S
O282 C284 1.248 . S
Mg283 O282 2.028 . S
Mg283 O288 2.032 1_554 S
Mg283 O290 2.079 1_554 S
C284 O281 1.250 . S
C284 O282 1.248 . S
C285 O286 1.264 . S
C285 O293 1.249 . S
O286 C285 1.264 . S
O287 Mg280 1.986 . S
O287 C291 1.246 . S
O288 Mg283 2.032 1_556 S
O288 C291 1.259 . S
O289 Mg280 2.114 1_554 S
O289 C292 1.252 . S
O290 Mg280 2.251 . S
O290 Mg283 2.079 1_556 S
O290 C292 1.273 1_556 S
C291 O287 1.246 . S
C291 O288 1.259 . S
C292 O289 1.252 . S
C292 O290 1.273 1_554 S
O293 Mg280 2.010 . S
O293 C285 1.249 . S
Mg294 O295 2.028 . S
Mg294 O301 1.986 . S
Mg294 O303 2.114 . S
Mg294 O304 2.251 . S
Mg294 O307 2.010 . S
O295 Mg294 2.028 . S
O295 C298 1.250 . S
O296 Mg297 2.028 . S
O296 C298 1.248 . S
Mg297 O296 2.028 . S
Mg297 O302 2.032 . S
Mg297 O304 2.079 . S
C298 O295 1.250 . S
C298 O296 1.248 . S
C299 O300 1.264 . S
C299 O307 1.249 . S
O300 C299 1.264 . S
O301 Mg294 1.986 . S
O301 C305 1.246 . S
O302 Mg297 2.032 . S
O302 C305 1.259 . S
O303 Mg294 2.114 . S
O303 C306 1.252 . S
O304 Mg294 2.251 . S
O304 Mg297 2.079 . S
O304 C306 1.273 . S
C305 O301 1.246 . S
C305 O302 1.259 . S
C306 O303 1.252 . S
C306 O304 1.273 . S
O307 Mg294 2.010 . S
O307 C299 1.249 . S
Mg308 O309 2.028 . S
Mg308 O315 1.986 . S
Mg308 O317 2.114 . S
Mg308 O318 2.251 . S
Mg308 O321 2.010 . S
O309 Mg308 2.028 . S
O309 C312 1.250 . S
O310 Mg311 2.028 . S
O310 C312 1.248 . S
Mg311 O310 2.028 . S
Mg311 O316 2.032 . S
Mg311 O318 2.079 . S
C312 O309 1.250 . S
C312 O310 1.248 . S
C313 O314 1.264 . S
C313 O321 1.249 . S
O314 C313 1.264 . S
O315 Mg308 1.986 . S
O315 C319 1.246 . S
O316 Mg311 2.032 . S
O316 C319 1.259 . S
O317 Mg308 2.114 . S
O317 C320 1.252 . S
O318 Mg308 2.251 . S
O318 Mg311 2.079 . S
O318 C320 1.273 . S
C319 O315 1.246 . S
C319 O316 1.259 . S
C320 O317 1.252 . S
C320 O318 1.273 . S
O321 Mg308 2.010 . S
O321 C313 1.249 . S
Mg322 O323 2.028 . S
Mg322 O329 1.986 . S
Mg322 O331 2.114 . S
Mg322 O332 2.251 . S
Mg322 O335 2.010 . S
O323 Mg322 2.028 . S
O323 C326 1.250 . S
O324 Mg325 2.028 . S
O324 C326 1.248 . S
Mg325 O324 2.028 . S
Mg325 O330 2.032 . S
Mg325 O332 2.079 . S
C326 O323 1.250 . S
C326 O324 1.248 . S
C327 O328 1.264 . S
C327 O335 1.249 . S
O328 C327 1.264 . S
O329 Mg322 1.986 . S
O329 C333 1.246 . S
O330 Mg325 2.032 . S
O330 C333 1.259 . S
O331 Mg322 2.114 . S
O331 C334 1.252 . S
O332 Mg322 2.251 . S
O332 Mg325 2.079 . S
O332 C334 1.273 . S
C333 O329 1.246 . S
C333 O330 1.259 . S
C334 O331 1.252 . S
C334 O332 1.273 . S
O335 Mg322 2.010 . S
O335 C327 1.249 . S
Zn336 O342 1.969 . S
Zn336 O343 1.965 1_565 S
Zn336 O347 2.024 . S
Zn336 O352 1.969 . S
Zn337 O344 1.969 1_654 S
Zn337 O350 1.969 1_554 S
Zn337 O351 1.965 . S
Zn337 O353 2.024 1_655 S
C338 O339 1.229 . S
C338 O347 1.058 . S
O339 C338 1.229 . S
C340 O341 1.229 1_454 S
C340 O353 1.058 . S
O341 C340 1.229 1_656 S
O342 Zn336 1.969 . S
O342 C345 1.267 . S
O343 Zn336 1.965 1_545 S
O343 C354 1.260 1_554 S
O344 Zn337 1.969 1_456 S
O344 C354 1.258 . S
C345 O342 1.267 . S
C345 O346 1.228 . S
O346 C345 1.228 . S
O347 Zn336 2.024 . S
O347 C338 1.058 . S
C348 O349 1.228 . S
C348 O350 1.267 1_554 S
O349 C348 1.228 . S
O350 Zn337 1.969 1_556 S
O350 C348 1.267 1_556 S
O351 Zn337 1.965 . S
O351 C355 1.264 . S
O352 Zn336 1.969 . S
O352 C355 1.250 1_465 S
O353 Zn337 2.024 1_455 S
O353 C340 1.058 . S
C354 O343 1.260 1_556 S
C354 O344 1.258 . S
C355 O351 1.264 . S
C355 O352 1.250 1_645 S
Zn356 O362 1.969 . S
Zn356 O363 1.965 . S
Zn356 O367 2.024 . S
Zn356 O372 1.969 . S
Zn357 O364 1.969 . S
Zn357 O370 1.969 . S
Zn357 O371 1.965 . S
Zn357 O373 2.024 . S
C358 O359 1.229 . S
C358 O367 1.058 . S
O359 C358 1.229 . S
C360 O361 1.229 . S
C360 O373 1.058 . S
O361 C360 1.229 . S
O362 Zn356 1.969 . S
O362 C365 1.267 . S
O363 Zn356 1.965 . S
O363 C374 1.260 . S
O364 Zn357 1.969 . S
O364 C374 1.258 . S
C365 O362 1.267 . S
C365 O366 1.228 . S
O366 C365 1.228 . S
O367 Zn356 2.024 . S
O367 C358 1.058 . S
C368 O369 1.228 . S
C368 O370 1.267 . S
O369 C368 1.228 . S
O370 Zn357 1.969 . S
O370 C368 1.267 . S
O371 Zn357 1.965 . S
O371 C375 1.260 . S
O372 Zn356 1.969 . S
O372 C375 1.258 . S
O373 Zn357 2.024 . S
O373 C360 1.058 . S
C374 O363 1.260 . S
C374 O364 1.258 . S
C375 O371 1.260 . S
C375 O372 1.258 . S
Zn376 O382 1.969 . S
Zn376 O383 1.965 . S
Zn376 O387 2.024 . S
Zn376 O392 1.969 . S
Zn377 O384 1.969 . S
Zn377 O390 1.969 . S
Zn377 O391 1.965 1_565 S
Zn377 O393 2.024 . S
C378 O379 1.229 . S
C378 O387 1.058 . S
O379 C378 1.229 . S
C380 O381 1.229 . S
C380 O393 1.058 . S
O381 C380 1.229 . S
O382 Zn376 1.969 . S
O382 C385 1.267 . S
O383 Zn376 1.965 . S
O383 C394 1.260 . S
O384 Zn377 1.969 . S
O384 C394 1.258 1_565 S
C385 O382 1.267 . S
C385 O386 1.228 . S
O386 C385 1.228 . S
O387 Zn376 2.024 . S
O387 C378 1.058 . S
C388 O389 1.228 . S
C388 O390 1.267 . S
O389 C388 1.228 . S
O390 Zn377 1.969 . S
O390 C388 1.267 . S
O391 Zn377 1.965 1_545 S
O391 C395 1.260 . S
O392 Zn376 1.969 . S
O392 C395 1.258 . S
O393 Zn377 2.024 . S
O393 C380 1.058 . S
C394 O383 1.260 . S
C394 O384 1.258 1_545 S
C395 O391 1.260 . S
C395 O392 1.258 . S
Zn396 O402 1.969 . S
Zn396 O403 1.965 . S
Zn396 O407 2.024 . S
Zn396 O412 1.969 . S
Zn397 O404 1.969 . S
Zn397 O410 1.969 . S
Zn397 O411 1.965 . S
Zn397 O413 2.024 . S
C398 O399 1.229 . S
C398 O407 1.058 . S
O399 C398 1.229 . S
C400 O401 1.229 . S
C400 O413 1.058 . S
O401 C400 1.229 . S
O402 Zn396 1.969 . S
O402 C405 1.267 . S
O403 Zn396 1.965 . S
O403 C414 1.260 . S
O404 Zn397 1.969 . S
O404 C414 1.258 . S
C405 O402 1.267 . S
C405 O406 1.228 . S
O406 C405 1.228 . S
O407 Zn396 2.024 . S
O407 C398 1.058 . S
C408 O409 1.228 . S
C408 O410 1.267 . S
O409 C408 1.228 . S
O410 Zn397 1.969 . S
O410 C408 1.267 . S
O411 Zn397 1.965 . S
O411 C415 1.260 . S
O412 Zn396 1.969 . S
O412 C415 1.258 . S
O413 Zn397 2.024 . S
O413 C400 1.058 . S
C414 O403 1.260 . S
C414 O404 1.258 . S
C415 O411 1.260 . S
C415 O412 1.258 . S
Zn416 O422 1.969 . S
Zn416 O423 1.965 1_455 S
Zn416 O427 2.024 1_565 S
Zn416 O432 1.969 1_565 S
Zn417 O424 1.969 . S
Zn417 O430 1.969 . S
Zn417 O431 1.965 1_655 S
Zn417 O433 2.026 . S
C418 O419 1.229 1_545 S
C418 O427 1.058 . S
O419 C418 1.229 1_565 S
C420 O421 1.229 . S
C420 O433 1.065 . S
O421 C420 1.229 . S
O422 Zn416 1.969 . S
O422 C425 1.267 . S
O423 Zn416 1.965 1_655 S
O423 C434 1.260 . S
O424 Zn417 1.969 . S
O424 C434 1.258 1_545 S
C425 O422 1.267 . S
C425 O426 1.228 . S
O426 C425 1.228 . S
O427 Zn416 2.024 1_545 S
O427 C418 1.058 . S
C428 O429 1.228 . S
C428 O430 1.267 1_455 S
O429 C428 1.228 . S
O430 Zn417 1.969 . S
O430 C428 1.267 1_655 S
O431 Zn417 1.965 1_455 S
O431 C435 1.260 . S
O432 Zn416 1.969 1_545 S
O432 C435 1.258 . S
O433 Zn417 2.026 . S
O433 C420 1.065 . S
C434 O423 1.260 . S
C434 O424 1.258 1_565 S
C435 O431 1.260 . S
C435 O432 1.258 . S
Zn436 O442 1.969 . S
Zn436 O443 1.965 . S
Zn436 O447 2.024 . S
Zn436 O452 1.969 . S
Zn437 O444 1.969 . S
Zn437 O450 1.969 . S
Zn437 O451 1.965 . S
Zn437 O453 2.024 . S
C438 O439 1.229 . S
C438 O447 1.058 . S
O439 C438 1.229 . S
C440 O441 1.229 . S
C440 O453 1.058 . S
O441 C440 1.229 . S
O442 Zn436 1.969 . S
O442 C445 1.267 . S
O443 Zn436 1.965 . S
O443 C454 1.260 . S
O444 Zn437 1.969 . S
O444 C454 1.258 . S
C445 O442 1.267 . S
C445 O446 1.228 . S
O446 C445 1.228 . S
O447 Zn436 2.024 . S
O447 C438 1.058 . S
C448 O449 1.228 . S
C448 O450 1.267 . S
O449 C448 1.228 . S
O450 Zn437 1.969 . S
O450 C448 1.267 . S
O451 Zn437 1.965 . S
O451 C455 1.260 . S
O452 Zn436 1.969 . S
O452 C455 1.258 . S
O453 Zn437 2.024 . S
O453 C440 1.058 . S
C454 O443 1.260 . S
C454 O444 1.258 . S
C455 O451 1.260 . S
C455 O452 1.258 . S
Zn456 O462 1.981 . S
Zn456 O463 1.970 1_545 S
Zn456 O467 2.018 1_556 S
Zn456 O472 1.964 1_556 S
Zn457 O464 1.969 . S
Zn457 O470 1.969 . S
Zn457 O471 1.965 1_565 S
Zn457 O473 2.024 . S
C458 O459 1.229 . S
C458 O467 1.058 . S
O459 C458 1.229 . S
C460 O461 1.229 . S
C460 O473 1.058 . S
O461 C460 1.229 . S
O462 Zn456 1.981 . S
O462 C465 1.267 . S
O463 Zn456 1.970 1_565 S
O463 C474 1.234 1_556 S
O464 Zn457 1.969 . S
O464 C474 1.258 . S
C465 O462 1.267 . S
C465 O466 1.228 . S
O466 C465 1.228 . S
O467 Zn456 2.018 1_554 S
O467 C458 1.058 . S
C468 O469 1.211 1_565 S
C468 O470 1.279 . S
O469 C468 1.211 1_545 S
O470 Zn457 1.969 . S
O470 C468 1.279 . S
O471 Zn457 1.965 1_545 S
O471 C475 1.260 . S
O472 Zn456 1.964 1_554 S
O472 C475 1.258 . S
O473 Zn457 2.024 . S
O473 C460 1.058 . S
C474 O463 1.234 1_554 S
C474 O464 1.258 . S
C475 O471 1.260 . S
C475 O472 1.258 . S
Zn476 O482 1.969 . S
Zn476 O483 1.965 . S
Zn476 O487 2.024 . S
Zn476 O492 1.969 . S
Zn477 O484 1.969 . S
Zn477 O490 1.969 . S
Zn477 O491 1.965 . S
Zn477 O493 2.024 . S
C478 O479 1.229 . S
C478 O487 1.058 . S
O479 C478 1.229 . S
C480 O481 1.229 . S
C480 O493 1.058 . S
O481 C480 1.229 . S
O482 Zn476 1.969 . S
O482 C485 1.267 . S
O483 Zn476 1.965 . S
O483 C494 1.260 . S
O484 Zn477 1.969 . S
O484 C494 1.258 . S
C485 O482 1.267 . S
C485 O486 1.228 . S
O486 C485 1.228 . S
O487 Zn476 2.024 . S
O487 C478 1.058 . S
C488 O489 1.228 . S
C488 O490 1.267 . S
O489 C488 1.228 . S
O490 Zn477 1.969 . S
O490 C488 1.267 . S
O491 Zn477 1.965 . S
O491 C495 1.260 . S
O492 Zn476 1.969 . S
O492 C495 1.258 . S
O493 Zn477 2.024 . S
O493 C480 1.058 . S
C494 O483 1.260 . S
C494 O484 1.258 . S
C495 O491 1.260 . S
C495 O492 1.258 . S
Zn496 O502 1.969 . S
Zn496 O503 1.965 . S
Zn496 O507 2.024 . S
Zn496 O512 1.969 . S
Zn497 O504 1.969 1_556 S
Zn497 O510 1.969 1_556 S
Zn497 O511 1.965 1_556 S
Zn497 O513 2.024 . S
C498 O499 1.229 . S
C498 O507 1.058 . S
O499 C498 1.229 . S
C500 O501 1.229 . S
C500 O513 1.058 . S
O501 C500 1.229 . S
O502 Zn496 1.969 . S
O502 C505 1.267 . S
O503 Zn496 1.965 . S
O503 C514 1.260 . S
O504 Zn497 1.969 1_554 S
O504 C514 1.258 . S
C505 O502 1.267 . S
C505 O506 1.228 . S
O506 C505 1.228 . S
O507 Zn496 2.024 . S
O507 C498 1.058 . S
C508 O509 1.228 . S
C508 O510 1.267 1_556 S
O509 C508 1.228 . S
O510 Zn497 1.969 1_554 S
O510 C508 1.267 1_554 S
O511 Zn497 1.965 1_554 S
O511 C515 1.260 . S
O512 Zn496 1.969 . S
O512 C515 1.258 . S
O513 Zn497 2.024 . S
O513 C500 1.058 . S
C514 O503 1.260 . S
C514 O504 1.258 . S
C515 O511 1.260 . S
C515 O512 1.258 . S
Zn516 O522 1.969 . S
Zn516 O523 1.965 . S
Zn516 O527 2.024 . S
Zn516 O532 1.969 . S
Zn517 O524 1.969 . S
Zn517 O530 1.969 . S
Zn517 O531 1.965 . S
Zn517 O533 2.024 . S
C518 O519 1.229 . S
C518 O527 1.058 . S
O519 C518 1.229 . S
C520 O521 1.229 . S
C520 O533 1.058 . S
O521 C520 1.229 . S
O522 Zn516 1.969 . S
O522 C525 1.267 . S
O523 Zn516 1.965 . S
O523 C534 1.260 . S
O524 Zn517 1.969 . S
O524 C534 1.258 . S
C525 O522 1.267 . S
C525 O526 1.228 . S
O526 C525 1.228 . S
O527 Zn516 2.024 . S
O527 C518 1.058 . S
C528 O529 1.228 . S
C528 O530 1.267 . S
O529 C528 1.228 . S
O530 Zn517 1.969 . S
O530 C528 1.267 . S
O531 Zn517 1.965 . S
O531 C535 1.260 . S
O532 Zn516 1.969 . S
O532 C535 1.258 . S
O533 Zn517 2.024 . S
O533 C520 1.058 . S
C534 O523 1.260 . S
C534 O524 1.258 . S
C535 O531 1.260 . S
C535 O532 1.258 . S
Zn536 O542 1.969 . S
Zn536 O543 1.965 . S
Zn536 O547 2.024 . S
Zn536 O552 1.969 . S
Zn537 O544 1.986 . S
Zn537 O550 1.969 . S
Zn537 O551 1.965 1_655 S
Zn537 O553 2.024 . S
C538 O539 1.229 . S
C538 O547 1.058 . S
O539 C538 1.229 . S
C540 O541 1.229 . S
C540 O553 1.058 . S
O541 C540 1.229 . S
O542 Zn536 1.969 . S
O542 C545 1.267 . S
O543 Zn536 1.965 . S
O543 C554 1.260 . S
O544 Zn537 1.986 . S
O544 C554 1.239 1_655 S
C545 O542 1.267 . S
C545 O546 1.228 . S
O546 C545 1.228 . S
O547 Zn536 2.024 . S
O547 C538 1.058 . S
C548 O549 1.228 . S
C548 O550 1.267 . S
O549 C548 1.228 . S
O550 Zn537 1.969 . S
O550 C548 1.267 . S
O551 Zn537 1.965 1_455 S
O551 C555 1.260 . S
O552 Zn536 1.969 . S
O552 C555 1.258 . S
O553 Zn537 2.024 . S
O553 C540 1.058 . S
C554 O543 1.260 . S
C554 O544 1.239 1_455 S
C555 O551 1.260 . S
C555 O552 1.258 . S
Zn556 O562 1.969 . S
Zn556 O563 1.965 . S
Zn556 O567 2.024 . S
Zn556 O572 1.969 . S
Zn557 O564 1.969 . S
Zn557 O570 1.969 . S
Zn557 O571 1.965 . S
Zn557 O573 2.024 . S
C558 O559 1.229 . S
C558 O567 1.058 . S
O559 C558 1.229 . S
C560 O561 1.229 . S
C560 O573 1.058 . S
O561 C560 1.229 . S
O562 Zn556 1.969 . S
O562 C565 1.267 . S
O563 Zn556 1.965 . S
O563 C574 1.260 . S
O564 Zn557 1.969 . S
O564 C574 1.258 . S
C565 O562 1.267 . S
C565 O566 1.228 . S
O566 C565 1.228 . S
O567 Zn556 2.024 . S
O567 C558 1.058 . S
C568 O569 1.228 . S
C568 O570 1.267 . S
O569 C568 1.228 . S
O570 Zn557 1.969 . S
O570 C568 1.267 . S
O571 Zn557 1.965 . S
O571 C575 1.260 . S
O572 Zn556 1.969 . S
O572 C575 1.258 . S
O573 Zn557 2.024 . S
O573 C560 1.058 . S
C574 O563 1.260 . S
C574 O564 1.258 . S
C575 O571 1.260 . S
C575 O572 1.258 . S
Zn576 O582 1.969 . S
Zn576 O583 1.965 . S
Zn576 O587 2.024 . S
Zn576 O592 1.969 . S
Zn577 O584 1.969 . S
Zn577 O590 1.969 . S
Zn577 O591 1.965 . S
Zn577 O593 2.024 . S
C578 O579 1.229 . S
C578 O587 1.058 . S
O579 C578 1.229 . S
C580 O581 1.229 . S
C580 O593 1.058 . S
O581 C580 1.229 . S
O582 Zn576 1.969 . S
O582 C585 1.267 . S
O583 Zn576 1.965 . S
O583 C594 1.260 . S
O584 Zn577 1.969 . S
O584 C594 1.258 . S
C585 O582 1.267 . S
C585 O586 1.228 . S
O586 C585 1.228 . S
O587 Zn576 2.024 . S
O587 C578 1.058 . S
C588 O589 1.228 . S
C588 O590 1.267 . S
O589 C588 1.228 . S
O590 Zn577 1.969 . S
O590 C588 1.267 . S
O591 Zn577 1.965 . S
O591 C595 1.260 . S
O592 Zn576 1.969 . S
O592 C595 1.258 . S
O593 Zn577 2.024 . S
O593 C580 1.058 . S
C594 O583 1.260 . S
C594 O584 1.258 . S
C595 O591 1.260 . S
C595 O592 1.258 . S
Zn596 O602 1.969 . S
Zn596 O603 1.965 . S
Zn596 O607 2.024 . S
Zn596 O612 1.969 . S
Zn597 O604 1.969 . S
Zn597 O610 1.969 . S
Zn597 O611 1.965 . S
Zn597 O613 2.024 . S
C598 O599 1.229 . S
C598 O607 1.058 . S
O599 C598 1.229 . S
C600 O601 1.229 . S
C600 O613 1.058 . S
O601 C600 1.229 . S
O602 Zn596 1.969 . S
O602 C605 1.267 . S
O603 Zn596 1.965 . S
O603 C614 1.260 . S
O604 Zn597 1.969 . S
O604 C614 1.258 . S
C605 O602 1.267 . S
C605 O606 1.228 . S
O606 C605 1.228 . S
O607 Zn596 2.024 . S
O607 C598 1.058 . S
C608 O609 1.228 . S
C608 O610 1.267 . S
O609 C608 1.228 . S
O610 Zn597 1.969 . S
O610 C608 1.267 . S
O611 Zn597 1.965 . S
O611 C615 1.260 . S
O612 Zn596 1.969 . S
O612 C615 1.258 . S
O613 Zn597 2.024 . S
O613 C600 1.058 . S
C614 O603 1.260 . S
C614 O604 1.258 . S
C615 O611 1.260 . S
C615 O612 1.258 . S
Zn616 O622 1.969 . S
Zn616 O623 1.965 . S
Zn616 O627 2.024 . S
Zn616 O632 1.969 . S
Zn617 O624 1.969 . S
Zn617 O630 1.969 . S
Zn617 O631 1.965 . S
Zn617 O633 2.024 . S
C618 O619 1.229 . S
C618 O627 1.058 . S
O619 C618 1.229 . S
C620 O621 1.229 . S
C620 O633 1.058 . S
O621 C620 1.229 . S
O622 Zn616 1.969 . S
O622 C625 1.267 . S
O623 Zn616 1.965 . S
O623 C634 1.260 . S
O624 Zn617 1.969 . S
O624 C634 1.258 . S
C625 O622 1.267 . S
C625 O626 1.228 . S
O626 C625 1.228 . S
O627 Zn616 2.024 . S
O627 C618 1.058 . S
C628 O629 1.228 . S
C628 O630 1.267 . S
O629 C628 1.228 . S
O630 Zn617 1.969 . S
O630 C628 1.267 . S
O631 Zn617 1.965 . S
O631 C635 1.260 . S
O632 Zn616 1.969 . S
O632 C635 1.258 . S
O633 Zn617 2.024 . S
O633 C620 1.058 . S
C634 O623 1.260 . S
C634 O624 1.258 . S
C635 O631 1.260 . S
C635 O632 1.258 . S
Zn636 O642 1.969 . S
Zn636 O643 1.965 . S
Zn636 O647 2.024 1_655 S
Zn636 O652 1.969 1_655 S
Zn637 O644 1.969 1_554 S
Zn637 O650 1.976 . S
Zn637 O651 1.965 . S
Zn637 O653 2.024 . S
C638 O639 1.229 1_455 S
C638 O647 1.058 . S
O639 C638 1.229 1_655 S
C640 O641 1.229 . S
C640 O653 1.058 1_556 S
O641 C640 1.229 . S
O642 Zn636 1.969 . S
O642 C645 1.267 . S
O643 Zn636 1.965 . S
O643 C654 1.260 1_654 S
O644 Zn637 1.969 1_556 S
O644 C654 1.258 . S
C645 O642 1.267 . S
C645 O646 1.228 . S
O646 C645 1.228 . S
O647 Zn636 2.024 1_455 S
O647 C638 1.058 . S
C648 O649 1.228 . S
C648 O650 1.279 . S
O649 C648 1.228 . S
O650 Zn637 1.976 . S
O650 C648 1.279 . S
O651 Zn637 1.965 . S
O651 C655 1.260 . S
O652 Zn636 1.969 1_455 S
O652 C655 1.258 . S
O653 Zn637 2.024 . S
O653 C640 1.058 1_554 S
C654 O643 1.260 1_456 S
C654 O644 1.258 . S
C655 O651 1.260 . S
C655 O652 1.258 . S
H656 C668 0.930 . S
H657 C670 0.930 . S
H658 C671 0.930 . S
H659 C675 0.933 1_455 S
H660 C675 0.959 . S
H661 C675 0.961 . S
H662 C676 0.960 . S
H663 C676 0.961 . S
H664 C676 0.959 . S
H665 C679 0.929 . S
H666 C680 0.931 . S
H667 C682 0.945 . S
C668 H656 0.930 . S
C668 C669 1.399 . S
C668 C673 1.399 . S
C669 C668 1.399 . S
C669 C670 1.376 1_655 S
C670 H657 0.930 . S
C670 C669 1.376 1_455 S
C670 C671 1.388 . S
C671 H658 0.930 . S
C671 C670 1.388 . S
C671 C672 1.390 . S
C672 C671 1.390 . S
C672 C673 1.394 1_455 S
C672 C678 1.465 . S
C673 C668 1.399 . S
C673 C672 1.394 1_655 S
C673 C674 1.516 . S
C674 C673 1.516 . S
C674 C675 1.502 1_556 S
C674 C676 1.561 . S
C674 C677 1.526 . S
C675 H659 0.933 1_655 S
C675 H660 0.959 . S
C675 H661 0.961 . S
C675 C674 1.502 1_554 S
C676 H662 0.960 . S
C676 H663 0.961 . S
C676 H664 0.959 . S
C676 C674 1.561 . S
C677 C674 1.526 . S
C677 C678 1.396 1_655 S
C677 C682 1.376 1_556 S
C678 C672 1.465 . S
C678 C677 1.396 1_455 S
C678 C679 1.399 . S
C679 H665 0.929 . S
C679 C678 1.399 . S
C679 C680 1.385 . S
C680 H666 0.931 . S
C680 C679 1.385 . S
C680 C681 1.389 . S
C681 C680 1.389 . S
C681 C682 1.385 1_456 S
C682 H667 0.945 . S
C682 C677 1.376 1_554 S
C682 C681 1.385 1_654 S
H683 C695 0.930 . S
H684 C697 0.930 . S
H685 C698 0.930 . S
H686 C702 0.959 . S
H687 C702 0.959 . S
H688 C702 0.961 . S
H689 C703 0.960 . S
H690 C703 0.961 . S
H691 C703 0.959 . S
H692 C706 0.929 . S
H693 C707 0.931 . S
H694 C709 0.930 . S
C695 H683 0.930 . S
C695 C696 1.399 . S
C695 C700 1.399 . S
C696 C695 1.399 . S
C696 C697 1.376 . S
C697 H684 0.930 . S
C697 C696 1.376 . S
C697 C698 1.388 . S
C698 H685 0.930 . S
C698 C697 1.388 . S
C698 C699 1.390 . S
C699 C698 1.390 . S
C699 C700 1.394 . S
C699 C705 1.465 . S
C700 C695 1.399 . S
C700 C699 1.394 . S
C700 C701 1.516 . S
C701 C700 1.516 . S
C701 C702 1.502 . S
C701 C703 1.561 . S
C701 C704 1.526 . S
C702 H686 0.959 . S
C702 H687 0.959 . S
C702 H688 0.961 . S
C702 C701 1.502 . S
C703 H689 0.960 . S
C703 H690 0.961 . S
C703 H691 0.959 . S
C703 C701 1.561 . S
C704 C701 1.526 . S
C704 C705 1.396 . S
C704 C709 1.390 . S
C705 C699 1.465 . S
C705 C704 1.396 . S
C705 C706 1.399 . S
C706 H692 0.929 . S
C706 C705 1.399 . S
C706 C707 1.385 . S
C707 H693 0.931 . S
C707 C706 1.385 . S
C707 C708 1.389 . S
C708 C707 1.389 . S
C708 C709 1.387 . S
C709 H694 0.930 . S
C709 C704 1.390 . S
C709 C708 1.387 . S
H710 C722 0.930 . S
H711 C724 0.930 . S
H712 C725 0.930 . S
H713 C729 0.959 . S
H714 C729 0.959 . S
H715 C729 0.961 . S
H716 C730 0.960 . S
H717 C730 0.961 . S
H718 C730 0.959 . S
H719 C733 0.929 . S
H720 C734 0.931 . S
H721 C736 0.930 . S
C722 H710 0.930 . S
C722 C723 1.399 . S
C722 C727 1.399 . S
C723 C722 1.399 . S
C723 C724 1.376 . S
C724 H711 0.930 . S
C724 C723 1.376 . S
C724 C725 1.388 . S
C725 H712 0.930 . S
C725 C724 1.388 . S
C725 C726 1.390 . S
C726 C725 1.390 . S
C726 C727 1.394 . S
C726 C732 1.465 . S
C727 C722 1.399 . S
C727 C726 1.394 . S
C727 C728 1.516 . S
C728 C727 1.516 . S
C728 C729 1.502 . S
C728 C730 1.561 . S
C728 C731 1.526 . S
C729 H713 0.959 . S
C729 H714 0.959 . S
C729 H715 0.961 . S
C729 C728 1.502 . S
C730 H716 0.960 . S
C730 H717 0.961 . S
C730 H718 0.959 . S
C730 C728 1.561 . S
C731 C728 1.526 . S
C731 C732 1.396 . S
C731 C736 1.390 . S
C732 C726 1.465 . S
C732 C731 1.396 . S
C732 C733 1.399 . S
C733 H719 0.929 . S
C733 C732 1.399 . S
C733 C734 1.385 . S
C734 H720 0.931 . S
C734 C733 1.385 . S
C734 C735 1.389 . S
C735 C734 1.389 . S
C735 C736 1.387 . S
C736 H721 0.930 . S
C736 C731 1.390 . S
C736 C735 1.387 . S
H737 C749 0.930 . S
H738 C751 0.930 . S
H739 C752 0.930 . S
H740 C756 0.959 . S
H741 C756 0.959 . S
H742 C756 0.961 . S
H743 C757 0.960 . S
H744 C757 0.961 . S
H745 C757 0.959 . S
H746 C760 0.929 . S
H747 C761 0.931 . S
H748 C763 0.930 . S
C749 H737 0.930 . S
C749 C750 1.399 . S
C749 C754 1.399 . S
C750 C749 1.399 . S
C750 C751 1.376 . S
C751 H738 0.930 . S
C751 C750 1.376 . S
C751 C752 1.388 . S
C752 H739 0.930 . S
C752 C751 1.388 . S
C752 C753 1.390 . S
C753 C752 1.390 . S
C753 C754 1.394 . S
C753 C759 1.465 . S
C754 C749 1.399 . S
C754 C753 1.394 . S
C754 C755 1.516 . S
C755 C754 1.516 . S
C755 C756 1.502 . S
C755 C757 1.561 . S
C755 C758 1.526 . S
C756 H740 0.959 . S
C756 H741 0.959 . S
C756 H742 0.961 . S
C756 C755 1.502 . S
C757 H743 0.960 . S
C757 H744 0.961 . S
C757 H745 0.959 . S
C757 C755 1.561 . S
C758 C755 1.526 . S
C758 C759 1.396 . S
C758 C763 1.390 . S
C759 C753 1.465 . S
C759 C758 1.396 . S
C759 C760 1.399 . S
C760 H746 0.929 . S
C760 C759 1.399 . S
C760 C761 1.385 . S
C761 H747 0.931 . S
C761 C760 1.385 . S
C761 C762 1.389 . S
C762 C761 1.389 . S
C762 C763 1.387 . S
C763 H748 0.930 . S
C763 C758 1.390 . S
C763 C762 1.387 . S
H764 C776 0.930 . S
H765 C778 0.922 1_655 S
H766 C779 0.935 . S
H767 C783 0.959 . S
H768 C783 0.959 . S
H769 C783 0.961 . S
H770 C784 0.960 . S
H771 C784 0.961 . S
H772 C784 0.959 . S
H773 C787 0.929 . S
H774 C788 0.931 . S
H775 C790 0.930 . S
C776 H764 0.930 . S
C776 C777 1.399 . S
C776 C781 1.399 . S
C777 C776 1.399 . S
C777 C778 1.376 . S
C778 H765 0.922 1_455 S
C778 C777 1.376 . S
C778 C779 1.388 . S
C779 H766 0.935 . S
C779 C778 1.388 . S
C779 C780 1.390 . S
C780 C779 1.390 . S
C780 C781 1.394 . S
C780 C786 1.465 . S
C781 C776 1.399 . S
C781 C780 1.394 . S
C781 C782 1.516 . S
C782 C781 1.516 . S
C782 C783 1.502 . S
C782 C784 1.561 1_455 S
C782 C785 1.526 . S
C783 H767 0.959 . S
C783 H768 0.959 . S
C783 H769 0.961 . S
C783 C782 1.502 . S
C784 H770 0.960 . S
C784 H771 0.961 . S
C784 H772 0.959 . S
C784 C782 1.561 1_655 S
C785 C782 1.526 . S
C785 C786 1.396 . S
C785 C790 1.390 . S
C786 C780 1.465 . S
C786 C785 1.396 . S
C786 C787 1.399 . S
C787 H773 0.929 . S
C787 C786 1.399 . S
C787 C788 1.385 . S
C788 H774 0.931 . S
C788 C787 1.385 . S
C788 C789 1.389 . S
C789 C788 1.389 . S
C789 C790 1.387 . S
C790 H775 0.930 . S
C790 C785 1.390 . S
C790 C789 1.387 . S
H791 C803 0.930 . S
H792 C805 0.930 . S
H793 C806 0.930 . S
H794 C810 0.959 . S
H795 C810 0.959 . S
H796 C810 0.961 . S
H797 C811 0.960 . S
H798 C811 0.961 . S
H799 C811 0.959 . S
H800 C814 0.929 . S
H801 C815 0.931 . S
H802 C817 0.930 . S
C803 H791 0.930 . S
C803 C804 1.399 . S
C803 C808 1.399 . S
C804 C803 1.399 . S
C804 C805 1.376 . S
C805 H792 0.930 . S
C805 C804 1.376 . S
C805 C806 1.388 . S
C806 H793 0.930 . S
C806 C805 1.388 . S
C806 C807 1.390 . S
C807 C806 1.390 . S
C807 C808 1.394 . S
C807 C813 1.465 . S
C808 C803 1.399 . S
C808 C807 1.394 . S
C808 C809 1.516 . S
C809 C808 1.516 . S
C809 C810 1.502 . S
C809 C811 1.561 . S
C809 C812 1.526 . S
C810 H794 0.959 . S
C810 H795 0.959 . S
C810 H796 0.961 . S
C810 C809 1.502 . S
C811 H797 0.960 . S
C811 H798 0.961 . S
C811 H799 0.959 . S
C811 C809 1.561 . S
C812 C809 1.526 . S
C812 C813 1.396 . S
C812 C817 1.390 . S
C813 C807 1.465 . S
C813 C812 1.396 . S
C813 C814 1.399 . S
C814 H800 0.929 . S
C814 C813 1.399 . S
C814 C815 1.385 . S
C815 H801 0.931 . S
C815 C814 1.385 . S
C815 C816 1.389 . S
C816 C815 1.389 . S
C816 C817 1.387 . S
C817 H802 0.930 . S
C817 C812 1.390 . S
C817 C816 1.387 . S
H818 C830 0.930 . S
H819 C832 0.930 . S
H820 C833 0.930 . S
H821 C837 0.959 . S
H822 C837 0.959 . S
H823 C837 0.961 . S
H824 C838 0.960 . S
H825 C838 0.961 . S
H826 C838 0.959 . S
H827 C841 0.929 . S
H828 C842 0.931 . S
H829 C844 0.930 . S
C830 H818 0.930 . S
C830 C831 1.399 . S
C830 C835 1.399 . S
C831 C830 1.399 . S
C831 C832 1.376 . S
C832 H819 0.930 . S
C832 C831 1.376 . S
C832 C833 1.388 . S
C833 H820 0.930 . S
C833 C832 1.388 . S
C833 C834 1.390 . S
C834 C833 1.390 . S
C834 C835 1.394 . S
C834 C840 1.465 . S
C835 C830 1.399 . S
C835 C834 1.394 . S
C835 C836 1.516 . S
C836 C835 1.516 . S
C836 C837 1.502 . S
C836 C838 1.561 . S
C836 C839 1.526 . S
C837 H821 0.959 . S
C837 H822 0.959 . S
C837 H823 0.961 . S
C837 C836 1.502 . S
C838 H824 0.960 . S
C838 H825 0.961 . S
C838 H826 0.959 . S
C838 C836 1.561 . S
C839 C836 1.526 . S
C839 C840 1.396 . S
C839 C844 1.390 . S
C840 C834 1.465 . S
C840 C839 1.396 . S
C840 C841 1.399 . S
C841 H827 0.929 . S
C841 C840 1.399 . S
C841 C842 1.385 . S
C842 H828 0.931 . S
C842 C841 1.385 . S
C842 C843 1.389 . S
C843 C842 1.389 . S
C843 C844 1.387 . S
C844 H829 0.930 . S
C844 C839 1.390 . S
C844 C843 1.387 . S
H845 C857 0.930 . S
H846 C859 0.930 . S
H847 C860 0.930 . S
H848 C864 0.959 . S
H849 C864 0.959 . S
H850 C864 0.961 . S
H851 C865 0.960 . S
H852 C865 0.961 . S
H853 C865 0.959 . S
H854 C868 0.929 . S
H855 C869 0.931 . S
H856 C871 0.930 . S
C857 H845 0.930 . S
C857 C858 1.399 . S
C857 C862 1.399 . S
C858 C857 1.399 . S
C858 C859 1.376 . S
C859 H846 0.930 . S
C859 C858 1.376 . S
C859 C860 1.388 . S
C860 H847 0.930 . S
C860 C859 1.388 . S
C860 C861 1.390 . S
C861 C860 1.390 . S
C861 C862 1.394 . S
C861 C867 1.465 . S
C862 C857 1.399 . S
C862 C861 1.394 . S
C862 C863 1.516 . S
C863 C862 1.516 . S
C863 C864 1.502 . S
C863 C865 1.561 . S
C863 C866 1.526 . S
C864 H848 0.959 . S
C864 H849 0.959 . S
C864 H850 0.961 . S
C864 C863 1.502 . S
C865 H851 0.960 . S
C865 H852 0.961 . S
C865 H853 0.959 . S
C865 C863 1.561 . S
C866 C863 1.526 . S
C866 C867 1.396 . S
C866 C871 1.390 . S
C867 C861 1.465 . S
C867 C866 1.396 . S
C867 C868 1.399 . S
C868 H854 0.929 . S
C868 C867 1.399 . S
C868 C869 1.385 . S
C869 H855 0.931 . S
C869 C868 1.385 . S
C869 C870 1.389 . S
C870 C869 1.389 . S
C870 C871 1.387 . S
C871 H856 0.930 . S
C871 C866 1.390 . S
C871 C870 1.387 . S
H872 C884 0.930 . S
H873 C886 0.930 . S
H874 C887 0.930 . S
H875 C891 0.959 . S
H876 C891 0.959 . S
H877 C891 0.961 . S
H878 C892 0.960 . S
H879 C892 0.961 . S
H880 C892 0.959 . S
H881 C895 0.929 . S
H882 C896 0.931 1_455 S
H883 C898 0.930 . S
C884 H872 0.930 . S
C884 C885 1.399 . S
C884 C889 1.399 . S
C885 C884 1.399 . S
C885 C886 1.376 1_545 S
C886 H873 0.930 . S
C886 C885 1.376 1_565 S
C886 C887 1.388 . S
C887 H874 0.930 . S
C887 C886 1.388 . S
C887 C888 1.390 1_565 S
C888 C887 1.390 1_545 S
C888 C889 1.394 . S
C888 C894 1.465 . S
C889 C884 1.399 . S
C889 C888 1.394 . S
C889 C890 1.516 . S
C890 C889 1.516 . S
C890 C891 1.502 . S
C890 C892 1.561 . S
C890 C893 1.526 . S
C891 H875 0.959 . S
C891 H876 0.959 . S
C891 H877 0.961 . S
C891 C890 1.502 . S
C892 H878 0.960 . S
C892 H879 0.961 . S
C892 H880 0.959 . S
C892 C890 1.561 . S
C893 C890 1.526 . S
C893 C894 1.396 . S
C893 C898 1.390 . S
C894 C888 1.465 . S
C894 C893 1.396 . S
C894 C895 1.399 1_545 S
C895 H881 0.929 . S
C895 C894 1.399 1_565 S
C895 C896 1.385 . S
C896 H882 0.931 1_655 S
C896 C895 1.385 . S
C896 C897 1.389 1_565 S
C897 C896 1.389 1_545 S
C897 C898 1.387 . S
C898 H883 0.930 . S
C898 C893 1.390 . S
C898 C897 1.387 . S
H899 C911 0.930 . S
H900 C913 0.930 . S
H901 C914 0.930 . S
H902 C918 0.959 . S
H903 C918 0.959 . S
H904 C918 0.961 . S
H905 C919 0.960 . S
H906 C919 0.961 . S
H907 C919 0.959 . S
H908 C922 0.929 . S
H909 C923 0.931 . S
H910 C925 0.930 . S
C911 H899 0.930 . S
C911 C912 1.399 . S
C911 C916 1.399 . S
C912 C911 1.399 . S
C912 C913 1.376 . S
C913 H900 0.930 . S
C913 C912 1.376 . S
C913 C914 1.388 . S
C914 H901 0.930 . S
C914 C913 1.388 . S
C914 C915 1.390 . S
C915 C914 1.390 . S
C915 C916 1.394 . S
C915 C921 1.465 . S
C916 C911 1.399 . S
C916 C915 1.394 . S
C916 C917 1.516 . S
C917 C916 1.516 . S
C917 C918 1.502 . S
C917 C919 1.561 . S
C917 C920 1.526 . S
C918 H902 0.959 . S
C918 H903 0.959 . S
C918 H904 0.961 . S
C918 C917 1.502 . S
C919 H905 0.960 . S
C919 H906 0.961 . S
C919 H907 0.959 . S
C919 C917 1.561 . S
C920 C917 1.526 . S
C920 C921 1.396 . S
C920 C925 1.390 . S
C921 C915 1.465 . S
C921 C920 1.396 . S
C921 C922 1.399 . S
C922 H908 0.929 . S
C922 C921 1.399 . S
C922 C923 1.385 . S
C923 H909 0.931 . S
C923 C922 1.385 . S
C923 C924 1.389 . S
C924 C923 1.389 . S
C924 C925 1.387 . S
C925 H910 0.930 . S
C925 C920 1.390 . S
C925 C924 1.387 . S
H926 C938 0.930 . S
H927 C940 0.930 . S
H928 C941 0.930 . S
H929 C945 0.959 . S
H930 C945 0.959 . S
H931 C945 0.961 . S
H932 C946 0.960 . S
H933 C946 0.961 . S
H934 C946 0.959 . S
H935 C949 0.929 . S
H936 C950 0.931 . S
H937 C952 0.930 . S
C938 H926 0.930 . S
C938 C939 1.399 . S
C938 C943 1.399 . S
C939 C938 1.399 . S
C939 C940 1.376 1_565 S
C940 H927 0.930 . S
C940 C939 1.376 1_545 S
C940 C941 1.388 . S
C941 H928 0.930 . S
C941 C940 1.388 . S
C941 C942 1.390 . S
C942 C941 1.390 . S
C942 C943 1.394 1_545 S
C942 C948 1.465 . S
C943 C938 1.399 . S
C943 C942 1.394 1_565 S
C943 C944 1.516 . S
C944 C943 1.516 . S
C944 C945 1.502 . S
C944 C946 1.561 . S
C944 C947 1.526 . S
C945 H929 0.959 . S
C945 H930 0.959 . S
C945 H931 0.961 . S
C945 C944 1.502 . S
C946 H932 0.960 . S
C946 H933 0.961 . S
C946 H934 0.959 . S
C946 C944 1.561 . S
C947 C944 1.526 . S
C947 C948 1.396 1_565 S
C947 C952 1.390 . S
C948 C942 1.465 . S
C948 C947 1.396 1_545 S
C948 C949 1.399 . S
C949 H935 0.929 . S
C949 C948 1.399 . S
C949 C950 1.385 . S
C950 H936 0.931 . S
C950 C949 1.385 . S
C950 C951 1.389 . S
C951 C950 1.389 . S
C951 C952 1.387 1_545 S
C952 H937 0.930 . S
C952 C947 1.390 . S
C952 C951 1.387 1_565 S
H953 C965 0.930 . S
H954 C967 0.930 1_554 S
H955 C968 0.930 . S
H956 C972 0.959 . S
H957 C972 0.959 . S
H958 C972 0.961 . S
H959 C973 0.960 . S
H960 C973 0.961 . S
H961 C973 0.959 . S
H962 C976 0.929 . S
H963 C977 0.931 . S
H964 C979 0.930 . S
C965 H953 0.930 . S
C965 C966 1.399 . S
C965 C970 1.399 . S
C966 C965 1.399 . S
C966 C967 1.376 . S
C967 H954 0.930 1_556 S
C967 C966 1.376 . S
C967 C968 1.388 . S
C968 H955 0.930 . S
C968 C967 1.388 . S
C968 C969 1.390 . S
C969 C968 1.390 . S
C969 C970 1.394 . S
C969 C975 1.465 . S
C970 C965 1.399 . S
C970 C969 1.394 . S
C970 C971 1.516 . S
C971 C970 1.516 . S
C971 C972 1.502 . S
C971 C973 1.561 . S
C971 C974 1.526 . S
C972 H956 0.959 . S
C972 H957 0.959 . S
C972 H958 0.961 . S
C972 C971 1.502 . S
C973 H959 0.960 . S
C973 H960 0.961 . S
C973 H961 0.959 . S
C973 C971 1.561 . S
C974 C971 1.526 . S
C974 C975 1.396 . S
C974 C979 1.390 . S
C975 C969 1.465 . S
C975 C974 1.396 . S
C975 C976 1.399 . S
C976 H962 0.929 . S
C976 C975 1.399 . S
C976 C977 1.385 . S
C977 H963 0.931 . S
C977 C976 1.385 . S
C977 C978 1.389 . S
C978 C977 1.389 . S
C978 C979 1.387 . S
C979 H964 0.930 . S
C979 C974 1.390 . S
C979 C978 1.387 . S
H980 C992 0.930 . S
H981 C994 0.930 . S
H982 C995 0.930 . S
H983 C999 0.959 . S
H984 C999 0.959 1_455 S
H985 C999 0.961 . S
H986 C1000 0.960 . S
H987 C1000 0.961 . S
H988 C1000 0.959 . S
H989 C1003 0.929 . S
H990 C1004 0.931 . S
H991 C1006 0.930 . S
C992 H980 0.930 . S
C992 C993 1.399 . S
C992 C997 1.399 . S
C993 C992 1.399 . S
C993 C994 1.376 1_545 S
C994 H981 0.930 . S
C994 C993 1.376 1_565 S
C994 C995 1.388 . S
C995 H982 0.930 . S
C995 C994 1.388 . S
C995 C996 1.378 1_565 S
C996 C995 1.378 1_545 S
C996 C997 1.416 . S
C996 C1002 1.459 1_545 S
C997 C992 1.399 . S
C997 C996 1.416 . S
C997 C998 1.516 . S
C998 C997 1.516 . S
C998 C999 1.502 . S
C998 C1000 1.561 . S
C998 C1001 1.526 . S
C999 H983 0.959 . S
C999 H984 0.959 1_655 S
C999 H985 0.961 . S
C999 C998 1.502 . S
C1000 H986 0.960 . S
C1000 H987 0.961 . S
C1000 H988 0.959 . S
C1000 C998 1.561 . S
C1001 C998 1.526 . S
C1001 C1002 1.396 1_545 S
C1001 C1006 1.390 . S
C1002 C996 1.459 1_565 S
C1002 C1001 1.396 1_565 S
C1002 C1003 1.399 . S
C1003 H989 0.929 . S
C1003 C1002 1.399 . S
C1003 C1004 1.385 . S
C1004 H990 0.931 . S
C1004 C1003 1.385 . S
C1004 C1005 1.389 1_565 S
C1005 C1004 1.389 1_545 S
C1005 C1006 1.387 . S
C1006 H991 0.930 . S
C1006 C1001 1.390 . S
C1006 C1005 1.387 . S
H1007 C1019 0.930 . S
H1008 C1021 0.930 . S
H1009 C1022 0.930 . S
H1010 C1026 0.959 . S
H1011 C1026 0.959 . S
H1012 C1026 0.961 . S
H1013 C1027 0.960 . S
H1014 C1027 0.961 . S
H1015 C1027 0.959 . S
H1016 C1030 0.929 . S
H1017 C1031 0.931 . S
H1018 C1033 0.930 . S
C1019 H1007 0.930 . S
C1019 C1020 1.399 . S
C1019 C1024 1.399 . S
C1020 C1019 1.399 . S
C1020 C1021 1.376 . S
C1021 H1008 0.930 . S
C1021 C1020 1.376 . S
C1021 C1022 1.388 . S
C1022 H1009 0.930 . S
C1022 C1021 1.388 . S
C1022 C1023 1.390 . S
C1023 C1022 1.390 . S
C1023 C1024 1.394 . S
C1023 C1029 1.465 . S
C1024 C1019 1.399 . S
C1024 C1023 1.394 . S
C1024 C1025 1.516 . S
C1025 C1024 1.516 . S
C1025 C1026 1.502 . S
C1025 C1027 1.561 . S
C1025 C1028 1.526 . S
C1026 H1010 0.959 . S
C1026 H1011 0.959 . S
C1026 H1012 0.961 . S
C1026 C1025 1.502 . S
C1027 H1013 0.960 . S
C1027 H1014 0.961 . S
C1027 H1015 0.959 . S
C1027 C1025 1.561 . S
C1028 C1025 1.526 . S
C1028 C1029 1.396 . S
C1028 C1033 1.390 . S
C1029 C1023 1.465 . S
C1029 C1028 1.396 . S
C1029 C1030 1.399 . S
C1030 H1016 0.929 . S
C1030 C1029 1.399 . S
C1030 C1031 1.385 . S
C1031 H1017 0.931 . S
C1031 C1030 1.385 . S
C1031 C1032 1.389 . S
C1032 C1031 1.389 . S
C1032 C1033 1.387 . S
C1033 H1018 0.930 . S
C1033 C1028 1.390 . S
C1033 C1032 1.387 . S
H1034 C1046 0.930 . S
H1035 C1048 0.930 . S
H1036 C1049 0.930 . S
H1037 C1053 0.959 . S
H1038 C1053 0.959 . S
H1039 C1053 0.961 . S
H1040 C1054 0.960 . S
H1041 C1054 0.961 . S
H1042 C1054 0.959 . S
H1043 C1057 0.929 . S
H1044 C1058 0.931 . S
H1045 C1060 0.930 . S
C1046 H1034 0.930 . S
C1046 C1047 1.399 . S
C1046 C1051 1.399 . S
C1047 C1046 1.399 . S
C1047 C1048 1.376 . S
C1048 H1035 0.930 . S
C1048 C1047 1.376 . S
C1048 C1049 1.388 . S
C1049 H1036 0.930 . S
C1049 C1048 1.388 . S
C1049 C1050 1.390 . S
C1050 C1049 1.390 . S
C1050 C1051 1.394 . S
C1050 C1056 1.465 . S
C1051 C1046 1.399 . S
C1051 C1050 1.394 . S
C1051 C1052 1.516 . S
C1052 C1051 1.516 . S
C1052 C1053 1.502 1_545 S
C1052 C1054 1.561 . S
C1052 C1055 1.526 . S
C1053 H1037 0.959 . S
C1053 H1038 0.959 . S
C1053 H1039 0.961 . S
C1053 C1052 1.502 1_565 S
C1054 H1040 0.960 . S
C1054 H1041 0.961 . S
C1054 H1042 0.959 . S
C1054 C1052 1.561 . S
C1055 C1052 1.526 . S
C1055 C1056 1.396 . S
C1055 C1060 1.390 . S
C1056 C1050 1.465 . S
C1056 C1055 1.396 . S
C1056 C1057 1.399 . S
C1057 H1043 0.929 . S
C1057 C1056 1.399 . S
C1057 C1058 1.385 . S
C1058 H1044 0.931 . S
C1058 C1057 1.385 . S
C1058 C1059 1.389 . S
C1059 C1058 1.389 . S
C1059 C1060 1.387 . S
C1060 H1045 0.930 . S
C1060 C1055 1.390 . S
C1060 C1059 1.387 . S
H1061 C1073 0.930 . S
H1062 C1075 0.930 . S
H1063 C1076 0.930 . S
H1064 C1080 0.959 . S
H1065 C1080 0.959 . S
H1066 C1080 0.961 . S
H1067 C1081 0.960 . S
H1068 C1081 0.961 . S
H1069 C1081 0.959 . S
H1070 C1084 0.929 . S
H1071 C1085 0.931 . S
H1072 C1087 0.930 . S
C1073 H1061 0.930 . S
C1073 C1074 1.399 . S
C1073 C1078 1.399 . S
C1074 C1073 1.399 . S
C1074 C1075 1.376 . S
C1075 H1062 0.930 . S
C1075 C1074 1.376 . S
C1075 C1076 1.388 . S
C1076 H1063 0.930 . S
C1076 C1075 1.388 . S
C1076 C1077 1.390 . S
C1077 C1076 1.390 . S
C1077 C1078 1.394 . S
C1077 C1083 1.465 . S
C1078 C1073 1.399 . S
C1078 C1077 1.394 . S
C1078 C1079 1.516 . S
C1079 C1078 1.516 . S
C1079 C1080 1.502 . S
C1079 C1081 1.561 . S
C1079 C1082 1.526 . S
C1080 H1064 0.959 . S
C1080 H1065 0.959 . S
C1080 H1066 0.961 . S
C1080 C1079 1.502 . S
C1081 H1067 0.960 . S
C1081 H1068 0.961 . S
C1081 H1069 0.959 . S
C1081 C1079 1.561 . S
C1082 C1079 1.526 . S
C1082 C1083 1.396 . S
C1082 C1087 1.390 . S
C1083 C1077 1.465 . S
C1083 C1082 1.396 . S
C1083 C1084 1.399 . S
C1084 H1070 0.929 . S
C1084 C1083 1.399 . S
C1084 C1085 1.385 . S
C1085 H1071 0.931 . S
C1085 C1084 1.385 . S
C1085 C1086 1.389 . S
C1086 C1085 1.389 . S
C1086 C1087 1.387 . S
C1087 H1072 0.930 . S
C1087 C1082 1.390 . S
C1087 C1086 1.387 . S
H1088 C1100 0.930 . S
H1089 C1102 0.930 . S
H1090 C1103 0.930 . S
H1091 C1107 0.959 . S
H1092 C1107 0.959 . S
H1093 C1107 0.961 . S
H1094 C1108 0.960 . S
H1095 C1108 0.961 . S
H1096 C1108 0.959 . S
H1097 C1111 0.929 1_556 S
H1098 C1112 0.931 . S
H1099 C1114 0.930 . S
C1100 H1088 0.930 . S
C1100 C1101 1.399 . S
C1100 C1105 1.399 . S
C1101 C1100 1.399 . S
C1101 C1102 1.376 1_554 S
C1102 H1089 0.930 . S
C1102 C1101 1.376 1_556 S
C1102 C1103 1.388 . S
C1103 H1090 0.930 . S
C1103 C1102 1.388 . S
C1103 C1104 1.390 1_556 S
C1104 C1103 1.390 1_554 S
C1104 C1105 1.394 . S
C1104 C1110 1.465 . S
C1105 C1100 1.399 . S
C1105 C1104 1.394 . S
C1105 C1106 1.516 . S
C1106 C1105 1.516 . S
C1106 C1107 1.502 . S
C1106 C1108 1.561 . S
C1106 C1109 1.526 . S
C1107 H1091 0.959 . S
C1107 H1092 0.959 . S
C1107 H1093 0.961 . S
C1107 C1106 1.502 . S
C1108 H1094 0.960 . S
C1108 H1095 0.961 . S
C1108 H1096 0.959 . S
C1108 C1106 1.561 . S
C1109 C1106 1.526 . S
C1109 C1110 1.396 . S
C1109 C1114 1.390 . S
C1110 C1104 1.465 . S
C1110 C1109 1.396 . S
C1110 C1111 1.399 . S
C1111 H1097 0.929 1_554 S
C1111 C1110 1.399 . S
C1111 C1112 1.385 . S
C1112 H1098 0.931 . S
C1112 C1111 1.385 . S
C1112 C1113 1.389 . S
C1113 C1112 1.389 . S
C1113 C1114 1.387 . S
C1114 H1099 0.930 . S
C1114 C1109 1.390 . S
C1114 C1113 1.387 . S
H1115 C1127 0.930 . S
H1116 C1129 0.930 . S
H1117 C1130 0.930 . S
H1118 C1134 0.959 . S
H1119 C1134 0.959 . S
H1120 C1134 0.961 . S
H1121 C1135 0.960 . S
H1122 C1135 0.961 . S
H1123 C1135 0.979 . S
H1124 C1138 0.929 . S
H1125 C1139 0.931 . S
H1126 C1141 0.930 . S
C1127 H1115 0.930 . S
C1127 C1128 1.399 1_554 S
C1127 C1132 1.399 . S
C1128 C1127 1.399 1_556 S
C1128 C1129 1.376 . S
C1129 H1116 0.930 . S
C1129 C1128 1.376 . S
C1129 C1130 1.388 . S
C1130 H1117 0.930 . S
C1130 C1129 1.388 . S
C1130 C1131 1.390 . S
C1131 C1130 1.390 . S
C1131 C1132 1.394 1_556 S
C1131 C1137 1.465 . S
C1132 C1127 1.399 . S
C1132 C1131 1.394 1_554 S
C1132 C1133 1.516 . S
C1133 C1132 1.516 . S
C1133 C1134 1.502 . S
C1133 C1135 1.561 . S
C1133 C1136 1.526 . S
C1134 H1118 0.959 . S
C1134 H1119 0.959 . S
C1134 H1120 0.961 . S
C1134 C1133 1.502 . S
C1135 H1121 0.960 . S
C1135 H1122 0.961 . S
C1135 H1123 0.979 . S
C1135 C1133 1.561 . S
C1136 C1133 1.526 . S
C1136 C1137 1.396 1_554 S
C1136 C1141 1.390 . S
C1137 C1131 1.465 . S
C1137 C1136 1.396 1_556 S
C1137 C1138 1.399 . S
C1138 H1124 0.929 . S
C1138 C1137 1.399 . S
C1138 C1139 1.385 . S
C1139 H1125 0.931 . S
C1139 C1138 1.385 . S
C1139 C1140 1.389 1_556 S
C1140 C1139 1.389 1_554 S
C1140 C1141 1.387 . S
C1141 H1126 0.930 . S
C1141 C1136 1.390 . S
C1141 C1140 1.387 . S
H1142 C1154 0.930 . S
H1143 C1156 0.930 . S
H1144 C1157 0.930 . S
H1145 C1161 0.959 . S
H1146 C1161 0.959 . S
H1147 C1161 0.961 . S
H1148 C1162 0.960 . S
H1149 C1162 0.961 . S
H1150 C1162 0.959 . S
H1151 C1165 0.929 . S
H1152 C1166 0.931 . S
H1153 C1168 0.930 . S
C1154 H1142 0.930 . S
C1154 C1155 1.399 . S
C1154 C1159 1.399 . S
C1155 C1154 1.399 . S
C1155 C1156 1.376 . S
C1156 H1143 0.930 . S
C1156 C1155 1.376 . S
C1156 C1157 1.388 . S
C1157 H1144 0.930 . S
C1157 C1156 1.388 . S
C1157 C1158 1.390 . S
C1158 C1157 1.390 . S
C1158 C1159 1.394 . S
C1158 C1164 1.465 . S
C1159 C1154 1.399 . S
C1159 C1158 1.394 . S
C1159 C1160 1.516 . S
C1160 C1159 1.516 . S
C1160 C1161 1.502 . S
C1160 C1162 1.561 . S
C1160 C1163 1.526 . S
C1161 H1145 0.959 . S
C1161 H1146 0.959 . S
C1161 H1147 0.961 . S
C1161 C1160 1.502 . S
C1162 H1148 0.960 . S
C1162 H1149 0.961 . S
C1162 H1150 0.959 . S
C1162 C1160 1.561 . S
C1163 C1160 1.526 . S
C1163 C1164 1.396 . S
C1163 C1168 1.390 . S
C1164 C1158 1.465 . S
C1164 C1163 1.396 . S
C1164 C1165 1.399 . S
C1165 H1151 0.929 . S
C1165 C1164 1.399 . S
C1165 C1166 1.385 . S
C1166 H1152 0.931 . S
C1166 C1165 1.385 . S
C1166 C1167 1.389 . S
C1167 C1166 1.389 . S
C1167 C1168 1.387 . S
C1168 H1153 0.930 . S
C1168 C1163 1.390 . S
C1168 C1167 1.387 . S
H1169 C1181 0.930 . S
H1170 C1183 0.930 . S
H1171 C1184 0.930 . S
H1172 C1188 0.959 . S
H1173 C1188 0.959 . S
H1174 C1188 0.961 . S
H1175 C1189 0.960 . S
H1176 C1189 0.961 . S
H1177 C1189 0.959 . S
H1178 C1192 0.929 . S
H1179 C1193 0.931 . S
H1180 C1195 0.930 . S
C1181 H1169 0.930 . S
C1181 C1182 1.399 . S
C1181 C1186 1.399 . S
C1182 C1181 1.399 . S
C1182 C1183 1.376 . S
C1183 H1170 0.930 . S
C1183 C1182 1.376 . S
C1183 C1184 1.388 . S
C1184 H1171 0.930 . S
C1184 C1183 1.388 . S
C1184 C1185 1.390 . S
C1185 C1184 1.390 . S
C1185 C1186 1.394 . S
C1185 C1191 1.465 . S
C1186 C1181 1.399 . S
C1186 C1185 1.394 . S
C1186 C1187 1.516 . S
C1187 C1186 1.516 . S
C1187 C1188 1.502 . S
C1187 C1189 1.561 . S
C1187 C1190 1.526 . S
C1188 H1172 0.959 . S
C1188 H1173 0.959 . S
C1188 H1174 0.961 . S
C1188 C1187 1.502 . S
C1189 H1175 0.960 . S
C1189 H1176 0.961 . S
C1189 H1177 0.959 . S
C1189 C1187 1.561 . S
C1190 C1187 1.526 . S
C1190 C1191 1.396 . S
C1190 C1195 1.390 . S
C1191 C1185 1.465 . S
C1191 C1190 1.396 . S
C1191 C1192 1.399 . S
C1192 H1178 0.929 . S
C1192 C1191 1.399 . S
C1192 C1193 1.385 . S
C1193 H1179 0.931 . S
C1193 C1192 1.385 . S
C1193 C1194 1.389 . S
C1194 C1193 1.389 . S
C1194 C1195 1.387 . S
C1195 H1180 0.930 . S
C1195 C1190 1.390 . S
C1195 C1194 1.387 . S
H1196 C1208 0.930 . S
H1197 C1210 0.930 . S
H1198 C1211 0.930 . S
H1199 C1215 0.959 . S
H1200 C1215 0.959 . S
H1201 C1215 0.961 . S
H1202 C1216 0.960 . S
H1203 C1216 0.961 . S
H1204 C1216 0.959 . S
H1205 C1219 0.929 . S
H1206 C1220 0.931 . S
H1207 C1222 0.930 . S
C1208 H1196 0.930 . S
C1208 C1209 1.399 . S
C1208 C1213 1.399 . S
C1209 C1208 1.399 . S
C1209 C1210 1.376 . S
C1210 H1197 0.930 . S
C1210 C1209 1.376 . S
C1210 C1211 1.388 . S
C1211 H1198 0.930 . S
C1211 C1210 1.388 . S
C1211 C1212 1.390 . S
C1212 C1211 1.390 . S
C1212 C1213 1.394 . S
C1212 C1218 1.465 . S
C1213 C1208 1.399 . S
C1213 C1212 1.394 . S
C1213 C1214 1.516 . S
C1214 C1213 1.516 . S
C1214 C1215 1.502 . S
C1214 C1216 1.561 . S
C1214 C1217 1.526 . S
C1215 H1199 0.959 . S
C1215 H1200 0.959 . S
C1215 H1201 0.961 . S
C1215 C1214 1.502 . S
C1216 H1202 0.960 . S
C1216 H1203 0.961 . S
C1216 H1204 0.959 . S
C1216 C1214 1.561 . S
C1217 C1214 1.526 . S
C1217 C1218 1.396 . S
C1217 C1222 1.390 . S
C1218 C1212 1.465 . S
C1218 C1217 1.396 . S
C1218 C1219 1.399 . S
C1219 H1205 0.929 . S
C1219 C1218 1.399 . S
C1219 C1220 1.385 . S
C1220 H1206 0.931 . S
C1220 C1219 1.385 . S
C1220 C1221 1.389 . S
C1221 C1220 1.389 . S
C1221 C1222 1.387 . S
C1222 H1207 0.930 . S
C1222 C1217 1.390 . S
C1222 C1221 1.387 . S
H1223 C1235 0.930 . S
H1224 C1237 0.930 . S
H1225 C1238 0.930 . S
H1226 C1242 0.959 . S
H1227 C1242 0.959 . S
H1228 C1242 0.961 . S
H1229 C1243 0.960 . S
H1230 C1243 0.961 . S
H1231 C1243 0.959 . S
H1232 C1246 0.929 . S
H1233 C1247 0.931 . S
H1234 C1249 0.930 . S
C1235 H1223 0.930 . S
C1235 C1236 1.399 . S
C1235 C1240 1.399 . S
C1236 C1235 1.399 . S
C1236 C1237 1.376 . S
C1237 H1224 0.930 . S
C1237 C1236 1.376 . S
C1237 C1238 1.388 . S
C1238 H1225 0.930 . S
C1238 C1237 1.388 . S
C1238 C1239 1.390 . S
C1239 C1238 1.390 . S
C1239 C1240 1.394 . S
C1239 C1245 1.465 . S
C1240 C1235 1.399 . S
C1240 C1239 1.394 . S
C1240 C1241 1.516 . S
C1241 C1240 1.516 . S
C1241 C1242 1.502 . S
C1241 C1243 1.561 . S
C1241 C1244 1.526 . S
C1242 H1226 0.959 . S
C1242 H1227 0.959 . S
C1242 H1228 0.961 . S
C1242 C1241 1.502 . S
C1243 H1229 0.960 . S
C1243 H1230 0.961 . S
C1243 H1231 0.959 . S
C1243 C1241 1.561 . S
C1244 C1241 1.526 . S
C1244 C1245 1.396 . S
C1244 C1249 1.390 . S
C1245 C1239 1.465 . S
C1245 C1244 1.396 . S
C1245 C1246 1.399 . S
C1246 H1232 0.929 . S
C1246 C1245 1.399 . S
C1246 C1247 1.385 . S
C1247 H1233 0.931 . S
C1247 C1246 1.385 . S
C1247 C1248 1.389 . S
C1248 C1247 1.389 . S
C1248 C1249 1.387 . S
C1249 H1234 0.930 . S
C1249 C1244 1.390 . S
C1249 C1248 1.387 . S
H1250 C1262 0.930 . S
H1251 C1264 0.930 . S
H1252 C1265 0.930 . S
H1253 C1269 0.959 . S
H1254 C1269 0.959 . S
H1255 C1269 0.961 . S
H1256 C1270 0.960 . S
H1257 C1270 0.961 . S
H1258 C1270 0.959 . S
H1259 C1273 0.929 . S
H1260 C1274 0.931 . S
H1261 C1276 0.930 . S
C1262 H1250 0.930 . S
C1262 C1263 1.399 . S
C1262 C1267 1.399 . S
C1263 C1262 1.399 . S
C1263 C1264 1.376 . S
C1264 H1251 0.930 . S
C1264 C1263 1.376 . S
C1264 C1265 1.388 . S
C1265 H1252 0.930 . S
C1265 C1264 1.388 . S
C1265 C1266 1.390 . S
C1266 C1265 1.390 . S
C1266 C1267 1.394 . S
C1266 C1272 1.465 . S
C1267 C1262 1.399 . S
C1267 C1266 1.394 . S
C1267 C1268 1.516 . S
C1268 C1267 1.516 . S
C1268 C1269 1.502 . S
C1268 C1270 1.561 . S
C1268 C1271 1.526 . S
C1269 H1253 0.959 . S
C1269 H1254 0.959 . S
C1269 H1255 0.961 . S
C1269 C1268 1.502 . S
C1270 H1256 0.960 . S
C1270 H1257 0.961 . S
C1270 H1258 0.959 . S
C1270 C1268 1.561 . S
C1271 C1268 1.526 . S
C1271 C1272 1.396 . S
C1271 C1276 1.390 . S
C1272 C1266 1.465 . S
C1272 C1271 1.396 . S
C1272 C1273 1.399 . S
C1273 H1259 0.929 . S
C1273 C1272 1.399 . S
C1273 C1274 1.385 . S
C1274 H1260 0.931 . S
C1274 C1273 1.385 . S
C1274 C1275 1.389 . S
C1275 C1274 1.389 . S
C1275 C1276 1.387 . S
C1276 H1261 0.930 . S
C1276 C1271 1.390 . S
C1276 C1275 1.387 . S
H1277 C1289 0.930 . S
H1278 C1291 0.930 . S
H1279 C1292 0.930 . S
H1280 C1296 0.959 . S
H1281 C1296 0.959 . S
H1282 C1296 0.961 . S
H1283 C1297 0.960 . S
H1284 C1297 0.961 . S
H1285 C1297 0.959 . S
H1286 C1300 0.929 . S
H1287 C1301 0.931 . S
H1288 C1303 0.930 . S
C1289 H1277 0.930 . S
C1289 C1290 1.399 . S
C1289 C1294 1.399 . S
C1290 C1289 1.399 . S
C1290 C1291 1.376 . S
C1291 H1278 0.930 . S
C1291 C1290 1.376 . S
C1291 C1292 1.388 . S
C1292 H1279 0.930 . S
C1292 C1291 1.388 . S
C1292 C1293 1.390 . S
C1293 C1292 1.390 . S
C1293 C1294 1.394 . S
C1293 C1299 1.465 . S
C1294 C1289 1.399 . S
C1294 C1293 1.394 . S
C1294 C1295 1.516 . S
C1295 C1294 1.516 . S
C1295 C1296 1.502 . S
C1295 C1297 1.561 . S
C1295 C1298 1.526 . S
C1296 H1280 0.959 . S
C1296 H1281 0.959 . S
C1296 H1282 0.961 . S
C1296 C1295 1.502 . S
C1297 H1283 0.960 . S
C1297 H1284 0.961 . S
C1297 H1285 0.959 . S
C1297 C1295 1.561 . S
C1298 C1295 1.526 . S
C1298 C1299 1.396 . S
C1298 C1303 1.390 . S
C1299 C1293 1.465 . S
C1299 C1298 1.396 . S
C1299 C1300 1.399 . S
C1300 H1286 0.929 . S
C1300 C1299 1.399 . S
C1300 C1301 1.385 . S
C1301 H1287 0.931 . S
C1301 C1300 1.385 . S
C1301 C1302 1.389 . S
C1302 C1301 1.389 . S
C1302 C1303 1.387 . S
C1303 H1288 0.930 . S
C1303 C1298 1.390 . S
C1303 C1302 1.387 . S
H1304 C1316 0.930 . S
H1305 C1318 0.930 . S
H1306 C1319 0.930 . S
H1307 C1323 0.927 1_655 S
H1308 C1323 0.951 . S
H1309 C1323 0.967 . S
H1310 C1324 0.960 . S
H1311 C1324 0.961 . S
H1312 C1324 0.959 . S
H1313 C1327 0.929 . S
H1314 C1328 0.931 . S
H1315 C1330 0.930 . S
C1316 H1304 0.930 . S
C1316 C1317 1.399 . S
C1316 C1321 1.399 . S
C1317 C1316 1.399 . S
C1317 C1318 1.376 . S
C1318 H1305 0.930 . S
C1318 C1317 1.376 . S
C1318 C1319 1.388 . S
C1319 H1306 0.930 . S
C1319 C1318 1.388 . S
C1319 C1320 1.390 . S
C1320 C1319 1.390 . S
C1320 C1321 1.394 . S
C1320 C1326 1.465 . S
C1321 C1316 1.399 . S
C1321 C1320 1.394 . S
C1321 C1322 1.516 . S
C1322 C1321 1.516 . S
C1322 C1323 1.539 . S
C1322 C1324 1.561 . S
C1322 C1325 1.526 . S
C1323 H1307 0.927 1_455 S
C1323 H1308 0.951 . S
C1323 H1309 0.967 . S
C1323 C1322 1.539 . S
C1324 H1310 0.960 . S
C1324 H1311 0.961 . S
C1324 H1312 0.959 . S
C1324 C1322 1.561 . S
C1325 C1322 1.526 . S
C1325 C1326 1.396 . S
C1325 C1330 1.390 . S
C1326 C1320 1.465 . S
C1326 C1325 1.396 . S
C1326 C1327 1.399 . S
C1327 H1313 0.929 . S
C1327 C1326 1.399 . S
C1327 C1328 1.385 . S
C1328 H1314 0.931 . S
C1328 C1327 1.385 . S
C1328 C1329 1.389 . S
C1329 C1328 1.389 . S
C1329 C1330 1.387 . S
C1330 H1315 0.930 . S
C1330 C1325 1.390 . S
C1330 C1329 1.387 . S
H1331 C1343 0.930 . S
H1332 C1345 0.930 . S
H1333 C1346 0.930 . S
H1334 C1350 0.959 . S
H1335 C1350 0.959 . S
H1336 C1350 0.961 . S
H1337 C1351 0.960 . S
H1338 C1351 0.961 . S
H1339 C1351 0.959 . S
H1340 C1354 0.929 . S
H1341 C1355 0.931 . S
H1342 C1357 0.930 . S
C1343 H1331 0.930 . S
C1343 C1344 1.399 . S
C1343 C1348 1.399 . S
C1344 C1343 1.399 . S
C1344 C1345 1.376 . S
C1345 H1332 0.930 . S
C1345 C1344 1.376 . S
C1345 C1346 1.388 . S
C1346 H1333 0.930 . S
C1346 C1345 1.388 . S
C1346 C1347 1.390 . S
C1347 C1346 1.390 . S
C1347 C1348 1.394 . S
C1347 C1353 1.465 . S
C1348 C1343 1.399 . S
C1348 C1347 1.394 . S
C1348 C1349 1.516 . S
C1349 C1348 1.516 . S
C1349 C1350 1.502 . S
C1349 C1351 1.561 . S
C1349 C1352 1.526 . S
C1350 H1334 0.959 . S
C1350 H1335 0.959 . S
C1350 H1336 0.961 . S
C1350 C1349 1.502 . S
C1351 H1337 0.960 . S
C1351 H1338 0.961 . S
C1351 H1339 0.959 . S
C1351 C1349 1.561 . S
C1352 C1349 1.526 . S
C1352 C1353 1.396 . S
C1352 C1357 1.390 . S
C1353 C1347 1.465 . S
C1353 C1352 1.396 . S
C1353 C1354 1.399 . S
C1354 H1340 0.929 . S
C1354 C1353 1.399 . S
C1354 C1355 1.385 . S
C1355 H1341 0.931 . S
C1355 C1354 1.385 . S
C1355 C1356 1.389 . S
C1356 C1355 1.389 . S
C1356 C1357 1.387 . S
C1357 H1342 0.930 . S
C1357 C1352 1.390 . S
C1357 C1356 1.387 . S
H1358 C1370 0.930 . S
H1359 C1372 0.930 . S
H1360 C1373 0.930 . S
H1361 C1377 0.959 . S
H1362 C1377 0.959 . S
H1363 C1377 0.961 . S
H1364 C1378 0.960 . S
H1365 C1378 0.961 . S
H1366 C1378 0.959 . S
H1367 C1381 0.929 . S
H1368 C1382 0.931 . S
H1369 C1384 0.930 . S
C1370 H1358 0.930 . S
C1370 C1371 1.399 . S
C1370 C1375 1.399 . S
C1371 C1370 1.399 . S
C1371 C1372 1.376 . S
C1372 H1359 0.930 . S
C1372 C1371 1.376 . S
C1372 C1373 1.388 . S
C1373 H1360 0.930 . S
C1373 C1372 1.388 . S
C1373 C1374 1.390 . S
C1374 C1373 1.390 . S
C1374 C1375 1.394 . S
C1374 C1380 1.465 . S
C1375 C1370 1.399 . S
C1375 C1374 1.394 . S
C1375 C1376 1.516 . S
C1376 C1375 1.516 . S
C1376 C1377 1.502 . S
C1376 C1378 1.561 . S
C1376 C1379 1.526 . S
C1377 H1361 0.959 . S
C1377 H1362 0.959 . S
C1377 H1363 0.961 . S
C1377 C1376 1.502 . S
C1378 H1364 0.960 . S
C1378 H1365 0.961 . S
C1378 H1366 0.959 . S
C1378 C1376 1.561 . S
C1379 C1376 1.526 . S
C1379 C1380 1.396 . S
C1379 C1384 1.390 . S
C1380 C1374 1.465 . S
C1380 C1379 1.396 . S
C1380 C1381 1.399 . S
C1381 H1367 0.929 . S
C1381 C1380 1.399 . S
C1381 C1382 1.385 . S
C1382 H1368 0.931 . S
C1382 C1381 1.385 . S
C1382 C1383 1.389 . S
C1383 C1382 1.389 . S
C1383 C1384 1.387 . S
C1384 H1369 0.930 . S
C1384 C1379 1.390 . S
C1384 C1383 1.387 . S
H1385 C1397 0.930 . S
H1386 C1399 0.930 . S
H1387 C1400 0.930 . S
H1388 C1404 0.959 . S
H1389 C1404 0.959 . S
H1390 C1404 0.961 . S
H1391 C1405 0.960 . S
H1392 C1405 0.961 . S
H1393 C1405 0.959 . S
H1394 C1408 0.929 . S
H1395 C1409 0.931 . S
H1396 C1411 0.930 . S
C1397 H1385 0.930 . S
C1397 C1398 1.399 . S
C1397 C1402 1.399 . S
C1398 C1397 1.399 . S
C1398 C1399 1.376 . S
C1399 H1386 0.930 . S
C1399 C1398 1.376 . S
C1399 C1400 1.388 . S
C1400 H1387 0.930 . S
C1400 C1399 1.388 . S
C1400 C1401 1.390 . S
C1401 C1400 1.390 . S
C1401 C1402 1.394 . S
C1401 C1407 1.465 . S
C1402 C1397 1.399 . S
C1402 C1401 1.394 . S
C1402 C1403 1.516 . S
C1403 C1402 1.516 . S
C1403 C1404 1.502 . S
C1403 C1405 1.561 . S
C1403 C1406 1.526 . S
C1404 H1388 0.959 . S
C1404 H1389 0.959 . S
C1404 H1390 0.961 . S
C1404 C1403 1.502 . S
C1405 H1391 0.960 . S
C1405 H1392 0.961 . S
C1405 H1393 0.959 . S
C1405 C1403 1.561 . S
C1406 C1403 1.526 . S
C1406 C1407 1.396 . S
C1406 C1411 1.390 . S
C1407 C1401 1.465 . S
C1407 C1406 1.396 . S
C1407 C1408 1.399 . S
C1408 H1394 0.929 . S
C1408 C1407 1.399 . S
C1408 C1409 1.385 . S
C1409 H1395 0.931 . S
C1409 C1408 1.385 . S
C1409 C1410 1.389 . S
C1410 C1409 1.389 . S
C1410 C1411 1.387 . S
C1411 H1396 0.930 . S
C1411 C1406 1.390 . S
C1411 C1410 1.387 . S
H1412 C1424 0.930 . S
H1413 C1426 0.930 . S
H1414 C1427 0.930 . S
H1415 C1431 0.959 . S
H1416 C1431 0.959 . S
H1417 C1431 0.961 . S
H1418 C1432 0.960 . S
H1419 C1432 0.961 . S
H1420 C1432 0.959 . S
H1421 C1435 0.929 . S
H1422 C1436 0.931 . S
H1423 C1438 0.936 . S
C1424 H1412 0.930 . S
C1424 C1425 1.399 . S
C1424 C1429 1.399 . S
C1425 C1424 1.399 . S
C1425 C1426 1.376 . S
C1426 H1413 0.930 . S
C1426 C1425 1.376 . S
C1426 C1427 1.388 . S
C1427 H1414 0.930 . S
C1427 C1426 1.388 . S
C1427 C1428 1.390 . S
C1428 C1427 1.390 . S
C1428 C1429 1.394 . S
C1428 C1434 1.465 . S
C1429 C1424 1.399 . S
C1429 C1428 1.394 . S
C1429 C1430 1.516 . S
C1430 C1429 1.516 . S
C1430 C1431 1.502 . S
C1430 C1432 1.561 1_455 S
C1430 C1433 1.526 . S
C1431 H1415 0.959 . S
C1431 H1416 0.959 . S
C1431 H1417 0.961 . S
C1431 C1430 1.502 . S
C1432 H1418 0.960 . S
C1432 H1419 0.961 . S
C1432 H1420 0.959 . S
C1432 C1430 1.561 1_655 S
C1433 C1430 1.526 . S
C1433 C1434 1.396 . S
C1433 C1438 1.390 . S
C1434 C1428 1.465 . S
C1434 C1433 1.396 . S
C1434 C1435 1.399 . S
C1435 H1421 0.929 . S
C1435 C1434 1.399 . S
C1435 C1436 1.385 . S
C1436 H1422 0.931 . S
C1436 C1435 1.385 . S
C1436 C1437 1.389 . S
C1437 C1436 1.389 . S
C1437 C1438 1.387 . S
C1438 H1423 0.936 . S
C1438 C1433 1.390 . S
C1438 C1437 1.387 . S
H1439 C1451 0.930 . S
H1440 C1453 0.930 . S
H1441 C1454 0.930 . S
H1442 C1458 0.959 . S
H1443 C1458 0.959 . S
H1444 C1458 0.961 . S
H1445 C1459 0.960 . S
H1446 C1459 0.961 . S
H1447 C1459 0.959 . S
H1448 C1462 0.929 . S
H1449 C1463 0.931 . S
H1450 C1465 0.930 . S
C1451 H1439 0.930 . S
C1451 C1452 1.399 . S
C1451 C1456 1.399 . S
C1452 C1451 1.399 . S
C1452 C1453 1.376 . S
C1453 H1440 0.930 . S
C1453 C1452 1.376 . S
C1453 C1454 1.388 . S
C1454 H1441 0.930 . S
C1454 C1453 1.388 . S
C1454 C1455 1.390 . S
C1455 C1454 1.390 . S
C1455 C1456 1.394 . S
C1455 C1461 1.465 . S
C1456 C1451 1.399 . S
C1456 C1455 1.394 . S
C1456 C1457 1.516 . S
C1457 C1456 1.516 . S
C1457 C1458 1.502 . S
C1457 C1459 1.561 . S
C1457 C1460 1.526 . S
C1458 H1442 0.959 . S
C1458 H1443 0.959 . S
C1458 H1444 0.961 . S
C1458 C1457 1.502 . S
C1459 H1445 0.960 . S
C1459 H1446 0.961 . S
C1459 H1447 0.959 . S
C1459 C1457 1.561 . S
C1460 C1457 1.526 . S
C1460 C1461 1.396 . S
C1460 C1465 1.390 . S
C1461 C1455 1.465 . S
C1461 C1460 1.396 . S
C1461 C1462 1.399 . S
C1462 H1448 0.929 . S
C1462 C1461 1.399 . S
C1462 C1463 1.385 . S
C1463 H1449 0.931 . S
C1463 C1462 1.385 . S
C1463 C1464 1.389 . S
C1464 C1463 1.389 . S
C1464 C1465 1.387 . S
C1465 H1450 0.930 . S
C1465 C1460 1.390 . S
C1465 C1464 1.387 . S
H1466 C1478 0.930 . S
H1467 C1480 0.930 . S
H1468 C1481 0.930 . S
H1469 C1485 0.959 . S
H1470 C1485 0.959 . S
H1471 C1485 0.961 . S
H1472 C1486 0.960 . S
H1473 C1486 0.961 . S
H1474 C1486 0.959 . S
H1475 C1489 0.929 . S
H1476 C1490 0.931 . S
H1477 C1492 0.930 . S
C1478 H1466 0.930 . S
C1478 C1479 1.399 . S
C1478 C1483 1.399 . S
C1479 C1478 1.399 . S
C1479 C1480 1.376 . S
C1480 H1467 0.930 . S
C1480 C1479 1.376 . S
C1480 C1481 1.388 . S
C1481 H1468 0.930 . S
C1481 C1480 1.388 . S
C1481 C1482 1.390 . S
C1482 C1481 1.390 . S
C1482 C1483 1.394 . S
C1482 C1488 1.465 . S
C1483 C1478 1.399 . S
C1483 C1482 1.394 . S
C1483 C1484 1.516 . S
C1484 C1483 1.516 . S
C1484 C1485 1.502 . S
C1484 C1486 1.561 . S
C1484 C1487 1.526 . S
C1485 H1469 0.959 . S
C1485 H1470 0.959 . S
C1485 H1471 0.961 . S
C1485 C1484 1.502 . S
C1486 H1472 0.960 . S
C1486 H1473 0.961 . S
C1486 H1474 0.959 . S
C1486 C1484 1.561 . S
C1487 C1484 1.526 . S
C1487 C1488 1.396 . S
C1487 C1492 1.390 . S
C1488 C1482 1.465 . S
C1488 C1487 1.396 . S
C1488 C1489 1.399 1_556 S
C1489 H1475 0.929 . S
C1489 C1488 1.399 1_554 S
C1489 C1490 1.385 . S
C1490 H1476 0.931 . S
C1490 C1489 1.385 . S
C1490 C1491 1.389 . S
C1491 C1490 1.389 . S
C1491 C1492 1.387 1_554 S
C1492 H1477 0.930 . S
C1492 C1487 1.390 . S
C1492 C1491 1.387 1_556 S
H1493 C1505 0.930 . S
H1494 C1507 0.930 . S
H1495 C1508 0.930 . S
H1496 C1512 0.959 . S
H1497 C1512 0.959 . S
H1498 C1512 0.961 . S
H1499 C1513 0.960 . S
H1500 C1513 0.961 . S
H1501 C1513 0.959 . S
H1502 C1516 0.929 . S
H1503 C1517 0.931 . S
H1504 C1519 0.930 . S
C1505 H1493 0.930 . S
C1505 C1506 1.399 . S
C1505 C1510 1.399 . S
C1506 C1505 1.399 . S
C1506 C1507 1.376 . S
C1507 H1494 0.930 . S
C1507 C1506 1.376 . S
C1507 C1508 1.388 . S
C1508 H1495 0.930 . S
C1508 C1507 1.388 . S
C1508 C1509 1.390 . S
C1509 C1508 1.390 . S
C1509 C1510 1.394 . S
C1509 C1515 1.465 . S
C1510 C1505 1.399 . S
C1510 C1509 1.394 . S
C1510 C1511 1.516 . S
C1511 C1510 1.516 . S
C1511 C1512 1.502 . S
C1511 C1513 1.561 . S
C1511 C1514 1.526 . S
C1512 H1496 0.959 . S
C1512 H1497 0.959 . S
C1512 H1498 0.961 . S
C1512 C1511 1.502 . S
C1513 H1499 0.960 . S
C1513 H1500 0.961 . S
C1513 H1501 0.959 . S
C1513 C1511 1.561 . S
C1514 C1511 1.526 . S
C1514 C1515 1.396 . S
C1514 C1519 1.390 . S
C1515 C1509 1.465 . S
C1515 C1514 1.396 . S
C1515 C1516 1.399 . S
C1516 H1502 0.929 . S
C1516 C1515 1.399 . S
C1516 C1517 1.385 . S
C1517 H1503 0.931 . S
C1517 C1516 1.385 . S
C1517 C1518 1.389 . S
C1518 C1517 1.389 . S
C1518 C1519 1.387 . S
C1519 H1504 0.930 . S
C1519 C1514 1.390 . S
C1519 C1518 1.387 . S
H1520 C1532 0.930 . S
H1521 C1534 0.930 . S
H1522 C1535 0.930 . S
H1523 C1539 0.959 . S
H1524 C1539 0.959 . S
H1525 C1539 0.961 . S
H1526 C1540 0.960 . S
H1527 C1540 0.961 . S
H1528 C1540 0.959 . S
H1529 C1543 0.929 . S
H1530 C1544 0.931 . S
H1531 C1546 0.930 . S
C1532 H1520 0.930 . S
C1532 C1533 1.399 . S
C1532 C1537 1.399 . S
C1533 C1532 1.399 . S
C1533 C1534 1.376 1_545 S
C1534 H1521 0.930 . S
C1534 C1533 1.376 1_565 S
C1534 C1535 1.388 . S
C1535 H1522 0.930 . S
C1535 C1534 1.388 . S
C1535 C1536 1.390 . S
C1536 C1535 1.390 . S
C1536 C1537 1.394 1_565 S
C1536 C1542 1.465 . S
C1537 C1532 1.399 . S
C1537 C1536 1.394 1_545 S
C1537 C1538 1.516 . S
C1538 C1537 1.516 . S
C1538 C1539 1.502 . S
C1538 C1540 1.561 . S
C1538 C1541 1.526 . S
C1539 H1523 0.959 . S
C1539 H1524 0.959 . S
C1539 H1525 0.961 . S
C1539 C1538 1.502 . S
C1540 H1526 0.960 . S
C1540 H1527 0.961 . S
C1540 H1528 0.959 . S
C1540 C1538 1.561 . S
C1541 C1538 1.526 . S
C1541 C1542 1.396 1_545 S
C1541 C1546 1.390 . S
C1542 C1536 1.465 . S
C1542 C1541 1.396 1_565 S
C1542 C1543 1.399 . S
C1543 H1529 0.929 . S
C1543 C1542 1.399 . S
C1543 C1544 1.385 . S
C1544 H1530 0.931 . S
C1544 C1543 1.385 . S
C1544 C1545 1.389 . S
C1545 C1544 1.389 . S
C1545 C1546 1.387 1_565 S
C1546 H1531 0.930 . S
C1546 C1541 1.390 . S
C1546 C1545 1.387 1_545 S
H1547 C1559 0.930 . S
H1548 C1561 0.930 . S
H1549 C1562 0.930 . S
H1550 C1566 0.959 . S
H1551 C1566 0.959 . S
H1552 C1566 0.961 . S
H1553 C1567 0.960 . S
H1554 C1567 0.961 . S
H1555 C1567 0.959 . S
H1556 C1570 0.929 . S
H1557 C1571 0.931 . S
H1558 C1573 0.930 . S
C1559 H1547 0.930 . S
C1559 C1560 1.399 . S
C1559 C1564 1.399 . S
C1560 C1559 1.399 . S
C1560 C1561 1.376 . S
C1561 H1548 0.930 . S
C1561 C1560 1.376 . S
C1561 C1562 1.388 . S
C1562 H1549 0.930 . S
C1562 C1561 1.388 . S
C1562 C1563 1.390 . S
C1563 C1562 1.390 . S
C1563 C1564 1.394 . S
C1563 C1569 1.465 . S
C1564 C1559 1.399 . S
C1564 C1563 1.394 . S
C1564 C1565 1.516 . S
C1565 C1564 1.516 . S
C1565 C1566 1.502 . S
C1565 C1567 1.561 . S
C1565 C1568 1.526 . S
C1566 H1550 0.959 . S
C1566 H1551 0.959 . S
C1566 H1552 0.961 . S
C1566 C1565 1.502 . S
C1567 H1553 0.960 . S
C1567 H1554 0.961 . S
C1567 H1555 0.959 . S
C1567 C1565 1.561 . S
C1568 C1565 1.526 . S
C1568 C1569 1.396 . S
C1568 C1573 1.390 . S
C1569 C1563 1.465 . S
C1569 C1568 1.396 . S
C1569 C1570 1.399 . S
C1570 H1556 0.929 . S
C1570 C1569 1.399 . S
C1570 C1571 1.385 . S
C1571 H1557 0.931 . S
C1571 C1570 1.385 . S
C1571 C1572 1.389 . S
C1572 C1571 1.389 . S
C1572 C1573 1.387 . S
C1573 H1558 0.930 . S
C1573 C1568 1.390 . S
C1573 C1572 1.387 . S
H1574 C1586 0.930 . S
H1575 C1588 0.930 . S
H1576 C1589 0.930 . S
H1577 C1593 0.959 . S
H1578 C1593 0.959 . S
H1579 C1593 0.961 . S
H1580 C1594 0.960 . S
H1581 C1594 0.961 . S
H1582 C1594 0.959 . S
H1583 C1597 0.929 . S
H1584 C1598 0.931 . S
H1585 C1600 0.930 . S
C1586 H1574 0.930 . S
C1586 C1587 1.399 . S
C1586 C1591 1.399 . S
C1587 C1586 1.399 . S
C1587 C1588 1.376 . S
C1588 H1575 0.930 . S
C1588 C1587 1.376 . S
C1588 C1589 1.388 . S
C1589 H1576 0.930 . S
C1589 C1588 1.388 . S
C1589 C1590 1.390 . S
C1590 C1589 1.390 . S
C1590 C1591 1.394 . S
C1590 C1596 1.465 . S
C1591 C1586 1.399 . S
C1591 C1590 1.394 . S
C1591 C1592 1.516 . S
C1592 C1591 1.516 . S
C1592 C1593 1.502 . S
C1592 C1594 1.561 1_545 S
C1592 C1595 1.526 . S
C1593 H1577 0.959 . S
C1593 H1578 0.959 . S
C1593 H1579 0.961 . S
C1593 C1592 1.502 . S
C1594 H1580 0.960 . S
C1594 H1581 0.961 . S
C1594 H1582 0.959 . S
C1594 C1592 1.561 1_565 S
C1595 C1592 1.526 . S
C1595 C1596 1.396 . S
C1595 C1600 1.390 . S
C1596 C1590 1.465 . S
C1596 C1595 1.396 . S
C1596 C1597 1.399 . S
C1597 H1583 0.929 . S
C1597 C1596 1.399 . S
C1597 C1598 1.385 . S
C1598 H1584 0.931 . S
C1598 C1597 1.385 . S
C1598 C1599 1.389 . S
C1599 C1598 1.389 . S
C1599 C1600 1.387 . S
C1600 H1585 0.930 . S
C1600 C1595 1.390 . S
C1600 C1599 1.387 . S
H1601 C1613 0.930 . S
H1602 C1615 0.930 . S
H1603 C1616 0.930 . S
H1604 C1620 0.959 . S
H1605 C1620 0.959 . S
H1606 C1620 0.961 . S
H1607 C1621 0.960 . S
H1608 C1621 0.961 . S
H1609 C1621 0.959 . S
H1610 C1624 0.929 . S
H1611 C1625 0.931 . S
H1612 C1627 0.930 . S
C1613 H1601 0.930 . S
C1613 C1614 1.399 . S
C1613 C1618 1.399 . S
C1614 C1613 1.399 . S
C1614 C1615 1.376 . S
C1615 H1602 0.930 . S
C1615 C1614 1.376 . S
C1615 C1616 1.388 . S
C1616 H1603 0.930 . S
C1616 C1615 1.388 . S
C1616 C1617 1.390 . S
C1617 C1616 1.390 . S
C1617 C1618 1.394 . S
C1617 C1623 1.465 . S
C1618 C1613 1.399 . S
C1618 C1617 1.394 . S
C1618 C1619 1.516 . S
C1619 C1618 1.516 . S
C1619 C1620 1.502 . S
C1619 C1621 1.561 . S
C1619 C1622 1.526 . S
C1620 H1604 0.959 . S
C1620 H1605 0.959 . S
C1620 H1606 0.961 . S
C1620 C1619 1.502 . S
C1621 H1607 0.960 . S
C1621 H1608 0.961 . S
C1621 H1609 0.959 . S
C1621 C1619 1.561 . S
C1622 C1619 1.526 . S
C1622 C1623 1.396 . S
C1622 C1627 1.390 . S
C1623 C1617 1.465 . S
C1623 C1622 1.396 . S
C1623 C1624 1.399 . S
C1624 H1610 0.929 . S
C1624 C1623 1.399 . S
C1624 C1625 1.385 . S
C1625 H1611 0.931 . S
C1625 C1624 1.385 . S
C1625 C1626 1.389 . S
C1626 C1625 1.389 . S
C1626 C1627 1.387 . S
C1627 H1612 0.930 . S
C1627 C1622 1.390 . S
C1627 C1626 1.387 . S
H1628 C1640 0.930 . S
H1629 C1642 0.930 . S
H1630 C1643 0.930 . S
H1631 C1647 0.959 . S
H1632 C1647 0.959 . S
H1633 C1647 0.961 . S
H1634 C1648 0.960 . S
H1635 C1648 0.961 . S
H1636 C1648 0.959 . S
H1637 C1651 0.929 . S
H1638 C1652 0.931 . S
H1639 C1654 0.930 . S
C1640 H1628 0.930 . S
C1640 C1641 1.399 1_565 S
C1640 C1645 1.399 . S
C1641 C1640 1.399 1_545 S
C1641 C1642 1.376 . S
C1642 H1629 0.930 . S
C1642 C1641 1.376 . S
C1642 C1643 1.388 . S
C1643 H1630 0.930 . S
C1643 C1642 1.388 . S
C1643 C1644 1.390 . S
C1644 C1643 1.390 . S
C1644 C1645 1.394 1_545 S
C1644 C1650 1.465 . S
C1645 C1640 1.399 . S
C1645 C1644 1.394 1_565 S
C1645 C1646 1.516 . S
C1646 C1645 1.516 . S
C1646 C1647 1.502 . S
C1646 C1648 1.561 . S
C1646 C1649 1.526 1_565 S
C1647 H1631 0.959 . S
C1647 H1632 0.959 . S
C1647 H1633 0.961 . S
C1647 C1646 1.502 . S
C1648 H1634 0.960 . S
C1648 H1635 0.961 . S
C1648 H1636 0.959 . S
C1648 C1646 1.561 . S
C1649 C1646 1.526 1_545 S
C1649 C1650 1.396 . S
C1649 C1654 1.390 1_545 S
C1650 C1644 1.465 . S
C1650 C1649 1.396 . S
C1650 C1651 1.399 . S
C1651 H1637 0.929 . S
C1651 C1650 1.399 . S
C1651 C1652 1.385 . S
C1652 H1638 0.931 . S
C1652 C1651 1.385 . S
C1652 C1653 1.389 . S
C1653 C1652 1.389 . S
C1653 C1654 1.387 1_545 S
C1654 H1639 0.930 . S
C1654 C1649 1.390 1_565 S
C1654 C1653 1.387 1_565 S
H1655 C1667 0.930 . S
H1656 C1669 0.930 . S
H1657 C1670 0.930 . S
H1658 C1674 0.959 . S
H1659 C1674 0.959 . S
H1660 C1674 0.961 . S
H1661 C1675 0.960 . S
H1662 C1675 0.961 . S
H1663 C1675 0.959 . S
H1664 C1678 0.929 . S
H1665 C1679 0.931 . S
H1666 C1681 0.930 . S
C1667 H1655 0.930 . S
C1667 C1668 1.399 . S
C1667 C1672 1.399 . S
C1668 C1667 1.399 . S
C1668 C1669 1.376 . S
C1669 H1656 0.930 . S
C1669 C1668 1.376 . S
C1669 C1670 1.388 . S
C1670 H1657 0.930 . S
C1670 C1669 1.388 . S
C1670 C1671 1.390 . S
C1671 C1670 1.390 . S
C1671 C1672 1.394 . S
C1671 C1677 1.465 . S
C1672 C1667 1.399 . S
C1672 C1671 1.394 . S
C1672 C1673 1.516 . S
C1673 C1672 1.516 . S
C1673 C1674 1.502 . S
C1673 C1675 1.561 . S
C1673 C1676 1.526 . S
C1674 H1658 0.959 . S
C1674 H1659 0.959 . S
C1674 H1660 0.961 . S
C1674 C1673 1.502 . S
C1675 H1661 0.960 . S
C1675 H1662 0.961 . S
C1675 H1663 0.959 . S
C1675 C1673 1.561 . S
C1676 C1673 1.526 . S
C1676 C1677 1.396 . S
C1676 C1681 1.390 . S
C1677 C1671 1.465 . S
C1677 C1676 1.396 . S
C1677 C1678 1.399 . S
C1678 H1664 0.929 . S
C1678 C1677 1.399 . S
C1678 C1679 1.385 . S
C1679 H1665 0.931 . S
C1679 C1678 1.385 . S
C1679 C1680 1.389 . S
C1680 C1679 1.389 . S
C1680 C1681 1.387 . S
C1681 H1666 0.930 . S
C1681 C1676 1.390 . S
C1681 C1680 1.387 . S
H1682 C1694 0.930 1_565 S
H1683 C1696 0.930 . S
H1684 C1697 0.930 . S
H1685 C1701 0.959 . S
H1686 C1701 0.959 . S
H1687 C1701 0.961 . S
H1688 C1702 0.960 . S
H1689 C1702 0.961 . S
H1690 C1702 0.959 . S
H1691 C1705 0.929 . S
H1692 C1706 0.931 . S
H1693 C1708 0.930 . S
C1694 H1682 0.930 1_545 S
C1694 C1695 1.399 . S
C1694 C1699 1.399 . S
C1695 C1694 1.399 . S
C1695 C1696 1.376 . S
C1696 H1683 0.930 . S
C1696 C1695 1.376 . S
C1696 C1697 1.388 . S
C1697 H1684 0.930 . S
C1697 C1696 1.388 . S
C1697 C1698 1.390 . S
C1698 C1697 1.390 . S
C1698 C1699 1.394 . S
C1698 C1704 1.465 . S
C1699 C1694 1.399 . S
C1699 C1698 1.394 . S
C1699 C1700 1.516 1_545 S
C1700 C1699 1.516 1_565 S
C1700 C1701 1.502 . S
C1700 C1702 1.561 . S
C1700 C1703 1.526 . S
C1701 H1685 0.959 . S
C1701 H1686 0.959 . S
C1701 H1687 0.961 . S
C1701 C1700 1.502 . S
C1702 H1688 0.960 . S
C1702 H1689 0.961 . S
C1702 H1690 0.959 . S
C1702 C1700 1.561 . S
C1703 C1700 1.526 . S
C1703 C1704 1.396 1_565 S
C1703 C1708 1.390 . S
C1704 C1698 1.465 . S
C1704 C1703 1.396 1_545 S
C1704 C1705 1.399 . S
C1705 H1691 0.929 . S
C1705 C1704 1.399 . S
C1705 C1706 1.385 . S
C1706 H1692 0.931 . S
C1706 C1705 1.385 . S
C1706 C1707 1.366 1_545 S
C1707 C1706 1.366 1_565 S
C1707 C1708 1.403 . S
C1708 H1693 0.930 . S
C1708 C1703 1.390 . S
C1708 C1707 1.403 . S
H1709 C1721 0.930 . S
H1710 C1723 0.930 . S
H1711 C1724 0.930 . S
H1712 C1728 0.959 . S
H1713 C1728 0.959 . S
H1714 C1728 0.961 . S
H1715 C1729 0.960 . S
H1716 C1729 0.961 . S
H1717 C1729 0.959 . S
H1718 C1732 0.929 . S
H1719 C1733 0.931 . S
H1720 C1735 0.930 . S
C1721 H1709 0.930 . S
C1721 C1722 1.399 . S
C1721 C1726 1.399 . S
C1722 C1721 1.399 . S
C1722 C1723 1.376 . S
C1723 H1710 0.930 . S
C1723 C1722 1.376 . S
C1723 C1724 1.388 . S
C1724 H1711 0.930 . S
C1724 C1723 1.388 . S
C1724 C1725 1.390 . S
C1725 C1724 1.390 . S
C1725 C1726 1.394 . S
C1725 C1731 1.465 . S
C1726 C1721 1.399 . S
C1726 C1725 1.394 . S
C1726 C1727 1.516 . S
C1727 C1726 1.516 . S
C1727 C1728 1.502 . S
C1727 C1729 1.561 . S
C1727 C1730 1.526 . S
C1728 H1712 0.959 . S
C1728 H1713 0.959 . S
C1728 H1714 0.961 . S
C1728 C1727 1.502 . S
C1729 H1715 0.960 . S
C1729 H1716 0.961 . S
C1729 H1717 0.959 . S
C1729 C1727 1.561 . S
C1730 C1727 1.526 . S
C1730 C1731 1.396 . S
C1730 C1735 1.390 . S
C1731 C1725 1.465 . S
C1731 C1730 1.396 . S
C1731 C1732 1.399 . S
C1732 H1718 0.929 . S
C1732 C1731 1.399 . S
C1732 C1733 1.385 . S
C1733 H1719 0.931 . S
C1733 C1732 1.385 . S
C1733 C1734 1.389 . S
C1734 C1733 1.389 . S
C1734 C1735 1.387 . S
C1735 H1720 0.930 . S
C1735 C1730 1.390 . S
C1735 C1734 1.387 . S
H1736 C1748 0.930 . S
H1737 C1750 0.920 1_556 S
H1738 C1751 0.930 . S
H1739 C1755 0.959 . S
H1740 C1755 0.959 . S
H1741 C1755 0.961 . S
H1742 C1756 0.960 . S
H1743 C1756 0.961 . S
H1744 C1756 0.959 . S
H1745 C1759 0.929 . S
H1746 C1760 0.931 . S
H1747 C1762 0.930 . S
C1748 H1736 0.930 . S
C1748 C1749 1.399 . S
C1748 C1753 1.399 . S
C1749 C1748 1.399 . S
C1749 C1750 1.394 . S
C1750 H1737 0.920 1_554 S
C1750 C1749 1.394 . S
C1750 C1751 1.381 1_554 S
C1751 H1738 0.930 . S
C1751 C1750 1.381 1_556 S
C1751 C1752 1.390 1_556 S
C1752 C1751 1.390 1_554 S
C1752 C1753 1.394 . S
C1752 C1758 1.465 1_554 S
C1753 C1748 1.399 . S
C1753 C1752 1.394 . S
C1753 C1754 1.516 . S
C1754 C1753 1.516 . S
C1754 C1755 1.502 . S
C1754 C1756 1.561 . S
C1754 C1757 1.526 . S
C1755 H1739 0.959 . S
C1755 H1740 0.959 . S
C1755 H1741 0.961 . S
C1755 C1754 1.502 . S
C1756 H1742 0.960 . S
C1756 H1743 0.961 . S
C1756 H1744 0.959 . S
C1756 C1754 1.561 . S
C1757 C1754 1.526 . S
C1757 C1758 1.396 1_554 S
C1757 C1762 1.390 . S
C1758 C1752 1.465 1_556 S
C1758 C1757 1.396 1_556 S
C1758 C1759 1.399 . S
C1759 H1745 0.929 . S
C1759 C1758 1.399 . S
C1759 C1760 1.385 . S
C1760 H1746 0.931 . S
C1760 C1759 1.385 . S
C1760 C1761 1.389 . S
C1761 C1760 1.389 . S
C1761 C1762 1.387 1_556 S
C1762 H1747 0.930 . S
C1762 C1757 1.390 . S
C1762 C1761 1.387 1_554 S
H1763 C1775 0.930 . S
H1764 C1777 0.930 . S
H1765 C1778 0.930 . S
H1766 C1782 0.959 . S
H1767 C1782 0.959 . S
H1768 C1782 0.961 . S
H1769 C1783 0.960 . S
H1770 C1783 0.961 . S
H1771 C1783 0.959 . S
H1772 C1786 0.929 . S
H1773 C1787 0.931 . S
H1774 C1789 0.930 . S
C1775 H1763 0.930 . S
C1775 C1776 1.399 . S
C1775 C1780 1.399 . S
C1776 C1775 1.399 . S
C1776 C1777 1.376 . S
C1777 H1764 0.930 . S
C1777 C1776 1.376 . S
C1777 C1778 1.388 . S
C1778 H1765 0.930 . S
C1778 C1777 1.388 . S
C1778 C1779 1.390 . S
C1779 C1778 1.390 . S
C1779 C1780 1.394 . S
C1779 C1785 1.465 . S
C1780 C1775 1.399 . S
C1780 C1779 1.394 . S
C1780 C1781 1.516 . S
C1781 C1780 1.516 . S
C1781 C1782 1.502 . S
C1781 C1783 1.561 . S
C1781 C1784 1.526 . S
C1782 H1766 0.959 . S
C1782 H1767 0.959 . S
C1782 H1768 0.961 . S
C1782 C1781 1.502 . S
C1783 H1769 0.960 . S
C1783 H1770 0.961 . S
C1783 H1771 0.959 . S
C1783 C1781 1.561 . S
C1784 C1781 1.526 . S
C1784 C1785 1.396 . S
C1784 C1789 1.390 . S
C1785 C1779 1.465 . S
C1785 C1784 1.396 . S
C1785 C1786 1.399 . S
C1786 H1772 0.929 . S
C1786 C1785 1.399 . S
C1786 C1787 1.385 . S
C1787 H1773 0.931 . S
C1787 C1786 1.385 . S
C1787 C1788 1.389 . S
C1788 C1787 1.389 . S
C1788 C1789 1.387 . S
C1789 H1774 0.930 . S
C1789 C1784 1.390 . S
C1789 C1788 1.387 . S
H1790 C1802 0.930 . S
H1791 C1804 0.930 . S
H1792 C1805 0.930 . S
H1793 C1809 0.959 . S
H1794 C1809 0.959 . S
H1795 C1809 0.961 . S
H1796 C1810 0.960 . S
H1797 C1810 0.961 . S
H1798 C1810 0.959 . S
H1799 C1813 0.929 . S
H1800 C1814 0.931 . S
H1801 C1816 0.930 . S
C1802 H1790 0.930 . S
C1802 C1803 1.399 . S
C1802 C1807 1.399 . S
C1803 C1802 1.399 . S
C1803 C1804 1.376 . S
C1804 H1791 0.930 . S
C1804 C1803 1.376 . S
C1804 C1805 1.388 . S
C1805 H1792 0.930 . S
C1805 C1804 1.388 . S
C1805 C1806 1.390 . S
C1806 C1805 1.390 . S
C1806 C1807 1.394 . S
C1806 C1812 1.465 . S
C1807 C1802 1.399 . S
C1807 C1806 1.394 . S
C1807 C1808 1.516 . S
C1808 C1807 1.516 . S
C1808 C1809 1.502 . S
C1808 C1810 1.561 . S
C1808 C1811 1.526 . S
C1809 H1793 0.959 . S
C1809 H1794 0.959 . S
C1809 H1795 0.961 . S
C1809 C1808 1.502 . S
C1810 H1796 0.960 . S
C1810 H1797 0.961 . S
C1810 H1798 0.959 . S
C1810 C1808 1.561 . S
C1811 C1808 1.526 . S
C1811 C1812 1.396 . S
C1811 C1816 1.390 . S
C1812 C1806 1.465 . S
C1812 C1811 1.396 . S
C1812 C1813 1.399 . S
C1813 H1799 0.929 . S
C1813 C1812 1.399 . S
C1813 C1814 1.385 . S
C1814 H1800 0.931 . S
C1814 C1813 1.385 . S
C1814 C1815 1.389 . S
C1815 C1814 1.389 . S
C1815 C1816 1.387 . S
C1816 H1801 0.930 . S
C1816 C1811 1.390 . S
C1816 C1815 1.387 . S
H1817 C1829 0.930 . S
H1818 C1831 0.930 . S
H1819 C1832 0.930 . S
H1820 C1836 0.959 . S
H1821 C1836 0.959 . S
H1822 C1836 0.961 . S
H1823 C1837 0.960 . S
H1824 C1837 0.961 . S
H1825 C1837 0.959 . S
H1826 C1840 0.929 . S
H1827 C1841 0.931 . S
H1828 C1843 0.930 . S
C1829 H1817 0.930 . S
C1829 C1830 1.399 . S
C1829 C1834 1.399 . S
C1830 C1829 1.399 . S
C1830 C1831 1.376 . S
C1831 H1818 0.930 . S
C1831 C1830 1.376 . S
C1831 C1832 1.388 . S
C1832 H1819 0.930 . S
C1832 C1831 1.388 . S
C1832 C1833 1.390 . S
C1833 C1832 1.390 . S
C1833 C1834 1.394 . S
C1833 C1839 1.465 . S
C1834 C1829 1.399 . S
C1834 C1833 1.394 . S
C1834 C1835 1.516 . S
C1835 C1834 1.516 . S
C1835 C1836 1.502 . S
C1835 C1837 1.561 . S
C1835 C1838 1.526 . S
C1836 H1820 0.959 . S
C1836 H1821 0.959 . S
C1836 H1822 0.961 . S
C1836 C1835 1.502 . S
C1837 H1823 0.960 . S
C1837 H1824 0.961 . S
C1837 H1825 0.959 . S
C1837 C1835 1.561 . S
C1838 C1835 1.526 . S
C1838 C1839 1.396 . S
C1838 C1843 1.390 . S
C1839 C1833 1.465 . S
C1839 C1838 1.396 . S
C1839 C1840 1.399 . S
C1840 H1826 0.929 . S
C1840 C1839 1.399 . S
C1840 C1841 1.385 . S
C1841 H1827 0.931 . S
C1841 C1840 1.385 . S
C1841 C1842 1.389 . S
C1842 C1841 1.389 . S
C1842 C1843 1.387 . S
C1843 H1828 0.930 . S
C1843 C1838 1.390 . S
C1843 C1842 1.387 . S
H1844 C1856 0.930 . S
H1845 C1858 0.930 . S
H1846 C1859 0.930 . S
H1847 C1863 0.959 . S
H1848 C1863 0.959 . S
H1849 C1863 0.961 . S
H1850 C1864 0.960 . S
H1851 C1864 0.961 . S
H1852 C1864 0.959 . S
H1853 C1867 0.929 . S
H1854 C1868 0.931 . S
H1855 C1870 0.930 . S
C1856 H1844 0.930 . S
C1856 C1857 1.399 . S
C1856 C1861 1.399 . S
C1857 C1856 1.399 . S
C1857 C1858 1.376 . S
C1858 H1845 0.930 . S
C1858 C1857 1.376 . S
C1858 C1859 1.388 . S
C1859 H1846 0.930 . S
C1859 C1858 1.388 . S
C1859 C1860 1.390 . S
C1860 C1859 1.390 . S
C1860 C1861 1.394 . S
C1860 C1866 1.465 . S
C1861 C1856 1.399 . S
C1861 C1860 1.394 . S
C1861 C1862 1.516 . S
C1862 C1861 1.516 . S
C1862 C1863 1.502 . S
C1862 C1864 1.561 . S
C1862 C1865 1.526 . S
C1863 H1847 0.959 . S
C1863 H1848 0.959 . S
C1863 H1849 0.961 . S
C1863 C1862 1.502 . S
C1864 H1850 0.960 . S
C1864 H1851 0.961 . S
C1864 H1852 0.959 . S
C1864 C1862 1.561 . S
C1865 C1862 1.526 . S
C1865 C1866 1.396 . S
C1865 C1870 1.390 . S
C1866 C1860 1.465 . S
C1866 C1865 1.396 . S
C1866 C1867 1.399 . S
C1867 H1853 0.929 . S
C1867 C1866 1.399 . S
C1867 C1868 1.385 . S
C1868 H1854 0.931 . S
C1868 C1867 1.385 . S
C1868 C1869 1.389 . S
C1869 C1868 1.389 . S
C1869 C1870 1.387 . S
C1870 H1855 0.930 . S
C1870 C1865 1.390 . S
C1870 C1869 1.387 . S
H1871 C1883 0.930 . S
H1872 C1885 0.930 . S
H1873 C1886 0.930 . S
H1874 C1890 0.959 . S
H1875 C1890 0.959 . S
H1876 C1890 0.961 . S
H1877 C1891 0.960 . S
H1878 C1891 0.961 . S
H1879 C1891 0.959 . S
H1880 C1894 0.929 . S
H1881 C1895 0.931 . S
H1882 C1897 0.930 . S
C1883 H1871 0.930 . S
C1883 C1884 1.399 . S
C1883 C1888 1.399 . S
C1884 C1883 1.399 . S
C1884 C1885 1.376 . S
C1885 H1872 0.930 . S
C1885 C1884 1.376 . S
C1885 C1886 1.388 . S
C1886 H1873 0.930 . S
C1886 C1885 1.388 . S
C1886 C1887 1.390 . S
C1887 C1886 1.390 . S
C1887 C1888 1.394 . S
C1887 C1893 1.465 . S
C1888 C1883 1.399 . S
C1888 C1887 1.394 . S
C1888 C1889 1.516 . S
C1889 C1888 1.516 . S
C1889 C1890 1.502 . S
C1889 C1891 1.561 . S
C1889 C1892 1.526 . S
C1890 H1874 0.959 . S
C1890 H1875 0.959 . S
C1890 H1876 0.961 . S
C1890 C1889 1.502 . S
C1891 H1877 0.960 . S
C1891 H1878 0.961 . S
C1891 H1879 0.959 . S
C1891 C1889 1.561 . S
C1892 C1889 1.526 . S
C1892 C1893 1.396 . S
C1892 C1897 1.390 . S
C1893 C1887 1.465 . S
C1893 C1892 1.396 . S
C1893 C1894 1.399 . S
C1894 H1880 0.929 . S
C1894 C1893 1.399 . S
C1894 C1895 1.385 . S
C1895 H1881 0.931 . S
C1895 C1894 1.385 . S
C1895 C1896 1.389 . S
C1896 C1895 1.389 . S
C1896 C1897 1.387 . S
C1897 H1882 0.930 . S
C1897 C1892 1.390 . S
C1897 C1896 1.387 . S
H1898 C1910 0.930 . S
H1899 C1912 0.930 . S
H1900 C1913 0.930 . S
H1901 C1917 0.959 . S
H1902 C1917 0.959 . S
H1903 C1917 0.961 . S
H1904 C1918 0.960 . S
H1905 C1918 0.961 . S
H1906 C1918 0.959 . S
H1907 C1921 0.929 . S
H1908 C1922 0.931 . S
H1909 C1924 0.930 . S
C1910 H1898 0.930 . S
C1910 C1911 1.399 . S
C1910 C1915 1.399 . S
C1911 C1910 1.399 . S
C1911 C1912 1.376 . S
C1912 H1899 0.930 . S
C1912 C1911 1.376 . S
C1912 C1913 1.388 . S
C1913 H1900 0.930 . S
C1913 C1912 1.388 . S
C1913 C1914 1.390 . S
C1914 C1913 1.390 . S
C1914 C1915 1.394 . S
C1914 C1920 1.465 . S
C1915 C1910 1.399 . S
C1915 C1914 1.394 . S
C1915 C1916 1.516 . S
C1916 C1915 1.516 . S
C1916 C1917 1.502 . S
C1916 C1918 1.561 . S
C1916 C1919 1.526 . S
C1917 H1901 0.959 . S
C1917 H1902 0.959 . S
C1917 H1903 0.961 . S
C1917 C1916 1.502 . S
C1918 H1904 0.960 . S
C1918 H1905 0.961 . S
C1918 H1906 0.959 . S
C1918 C1916 1.561 . S
C1919 C1916 1.526 . S
C1919 C1920 1.396 . S
C1919 C1924 1.390 . S
C1920 C1914 1.465 . S
C1920 C1919 1.396 . S
C1920 C1921 1.399 . S
C1921 H1907 0.929 . S
C1921 C1920 1.399 . S
C1921 C1922 1.385 . S
C1922 H1908 0.931 . S
C1922 C1921 1.385 . S
C1922 C1923 1.389 . S
C1923 C1922 1.389 . S
C1923 C1924 1.387 . S
C1924 H1909 0.930 . S
C1924 C1919 1.390 . S
C1924 C1923 1.387 . S
H1925 C1937 0.930 . S
H1926 C1939 0.930 . S
H1927 C1940 0.930 . S
H1928 C1944 0.959 . S
H1929 C1944 0.959 . S
H1930 C1944 0.961 . S
H1931 C1945 0.960 . S
H1932 C1945 0.961 . S
H1933 C1945 0.959 . S
H1934 C1948 0.929 . S
H1935 C1949 0.931 . S
H1936 C1951 0.930 . S
C1937 H1925 0.930 . S
C1937 C1938 1.399 . S
C1937 C1942 1.399 . S
C1938 C1937 1.399 . S
C1938 C1939 1.376 . S
C1939 H1926 0.930 . S
C1939 C1938 1.376 . S
C1939 C1940 1.388 . S
C1940 H1927 0.930 . S
C1940 C1939 1.388 . S
C1940 C1941 1.390 . S
C1941 C1940 1.390 . S
C1941 C1942 1.394 . S
C1941 C1947 1.465 . S
C1942 C1937 1.399 . S
C1942 C1941 1.394 . S
C1942 C1943 1.516 . S
C1943 C1942 1.516 . S
C1943 C1944 1.502 . S
C1943 C1945 1.561 . S
C1943 C1946 1.526 . S
C1944 H1928 0.959 . S
C1944 H1929 0.959 . S
C1944 H1930 0.961 . S
C1944 C1943 1.502 . S
C1945 H1931 0.960 . S
C1945 H1932 0.961 . S
C1945 H1933 0.959 . S
C1945 C1943 1.561 . S
C1946 C1943 1.526 . S
C1946 C1947 1.396 . S
C1946 C1951 1.390 . S
C1947 C1941 1.465 . S
C1947 C1946 1.396 . S
C1947 C1948 1.399 . S
C1948 H1934 0.929 . S
C1948 C1947 1.399 . S
C1948 C1949 1.385 . S
C1949 H1935 0.931 . S
C1949 C1948 1.385 . S
C1949 C1950 1.389 . S
C1950 C1949 1.389 . S
C1950 C1951 1.387 . S
C1951 H1936 0.930 . S
C1951 C1946 1.390 . S
C1951 C1950 1.387 . S
H1952 C1964 0.930 . S
H1953 C1966 0.930 . S
H1954 C1967 0.930 . S
H1955 C1971 0.959 . S
H1956 C1971 0.959 . S
H1957 C1971 0.961 . S
H1958 C1972 0.960 . S
H1959 C1972 0.961 . S
H1960 C1972 0.959 . S
H1961 C1975 0.929 . S
H1962 C1976 0.931 . S
H1963 C1978 0.930 . S
C1964 H1952 0.930 . S
C1964 C1965 1.399 . S
C1964 C1969 1.399 . S
C1965 C1964 1.399 . S
C1965 C1966 1.376 . S
C1966 H1953 0.930 . S
C1966 C1965 1.376 . S
C1966 C1967 1.388 . S
C1967 H1954 0.930 . S
C1967 C1966 1.388 . S
C1967 C1968 1.390 . S
C1968 C1967 1.390 . S
C1968 C1969 1.394 . S
C1968 C1974 1.465 . S
C1969 C1964 1.399 . S
C1969 C1968 1.394 . S
C1969 C1970 1.516 . S
C1970 C1969 1.516 . S
C1970 C1971 1.502 . S
C1970 C1972 1.561 . S
C1970 C1973 1.526 . S
C1971 H1955 0.959 . S
C1971 H1956 0.959 . S
C1971 H1957 0.961 . S
C1971 C1970 1.502 . S
C1972 H1958 0.960 . S
C1972 H1959 0.961 . S
C1972 H1960 0.959 . S
C1972 C1970 1.561 . S
C1973 C1970 1.526 . S
C1973 C1974 1.396 . S
C1973 C1978 1.390 . S
C1974 C1968 1.465 . S
C1974 C1973 1.396 . S
C1974 C1975 1.399 . S
C1975 H1961 0.929 . S
C1975 C1974 1.399 . S
C1975 C1976 1.385 . S
C1976 H1962 0.931 . S
C1976 C1975 1.385 . S
C1976 C1977 1.389 . S
C1977 C1976 1.389 . S
C1977 C1978 1.387 . S
C1978 H1963 0.930 . S
C1978 C1973 1.390 . S
C1978 C1977 1.387 . S
H1979 C1991 0.930 . S
H1980 C1993 0.930 . S
H1981 C1994 0.930 . S
H1982 C1998 0.959 . S
H1983 C1998 0.959 . S
H1984 C1998 0.961 . S
H1985 C1999 0.960 . S
H1986 C1999 0.961 . S
H1987 C1999 0.959 . S
H1988 C2002 0.929 . S
H1989 C2003 0.931 . S
H1990 C2005 0.930 . S
C1991 H1979 0.930 . S
C1991 C1992 1.399 . S
C1991 C1996 1.399 . S
C1992 C1991 1.399 . S
C1992 C1993 1.376 . S
C1993 H1980 0.930 . S
C1993 C1992 1.376 . S
C1993 C1994 1.388 . S
C1994 H1981 0.930 . S
C1994 C1993 1.388 . S
C1994 C1995 1.390 . S
C1995 C1994 1.390 . S
C1995 C1996 1.394 . S
C1995 C2001 1.465 . S
C1996 C1991 1.399 . S
C1996 C1995 1.394 . S
C1996 C1997 1.516 . S
C1997 C1996 1.516 . S
C1997 C1998 1.502 . S
C1997 C1999 1.561 . S
C1997 C2000 1.526 . S
C1998 H1982 0.959 . S
C1998 H1983 0.959 . S
C1998 H1984 0.961 . S
C1998 C1997 1.502 . S
C1999 H1985 0.960 . S
C1999 H1986 0.961 . S
C1999 H1987 0.959 . S
C1999 C1997 1.561 . S
C2000 C1997 1.526 . S
C2000 C2001 1.396 . S
C2000 C2005 1.390 . S
C2001 C1995 1.465 . S
C2001 C2000 1.396 . S
C2001 C2002 1.399 . S
C2002 H1988 0.929 . S
C2002 C2001 1.399 . S
C2002 C2003 1.385 . S
C2003 H1989 0.931 . S
C2003 C2002 1.385 . S
C2003 C2004 1.389 . S
C2004 C2003 1.389 . S
C2004 C2005 1.387 . S
C2005 H1990 0.930 . S
C2005 C2000 1.390 . S
C2005 C2004 1.387 . S
H2006 C2018 0.930 . S
H2007 C2020 0.931 1_655 S
H2008 C2021 0.934 . S
H2009 C2025 0.938 1_656 S
H2010 C2025 0.961 . S
H2011 C2025 0.968 . S
H2012 C2026 0.960 . S
H2013 C2026 0.961 1_554 S
H2014 C2026 0.959 . S
H2015 C2029 0.929 . S
H2016 C2030 0.931 . S
H2017 C2032 0.930 1_554 S
C2018 H2006 0.930 . S
C2018 C2019 1.399 . S
C2018 C2023 1.399 . S
C2019 C2018 1.399 . S
C2019 C2020 1.386 . S
C2020 H2007 0.931 1_455 S
C2020 C2019 1.386 . S
C2020 C2021 1.377 1_455 S
C2021 H2008 0.934 . S
C2021 C2020 1.377 1_655 S
C2021 C2022 1.389 1_655 S
C2022 C2021 1.389 1_455 S
C2022 C2023 1.394 . S
C2022 C2028 1.465 . S
C2023 C2018 1.399 . S
C2023 C2022 1.394 . S
C2023 C2024 1.516 . S
C2024 C2023 1.516 . S
C2024 C2025 1.513 1_556 S
C2024 C2026 1.561 . S
C2024 C2027 1.526 . S
C2025 H2009 0.938 1_454 S
C2025 H2010 0.961 . S
C2025 H2011 0.968 . S
C2025 C2024 1.513 1_554 S
C2026 H2012 0.960 . S
C2026 H2013 0.961 1_556 S
C2026 H2014 0.959 . S
C2026 C2024 1.561 . S
C2027 C2024 1.526 . S
C2027 C2028 1.396 . S
C2027 C2032 1.390 . S
C2028 C2022 1.465 . S
C2028 C2027 1.396 . S
C2028 C2029 1.399 1_455 S
C2029 H2015 0.929 . S
C2029 C2028 1.399 1_655 S
C2029 C2030 1.385 . S
C2030 H2016 0.931 . S
C2030 C2029 1.385 . S
C2030 C2031 1.389 1_655 S
C2031 C2030 1.389 1_455 S
C2031 C2032 1.387 . S
C2032 H2017 0.930 1_556 S
C2032 C2027 1.390 . S
C2032 C2031 1.387 . S
H2033 C2045 0.930 . S
H2034 C2047 0.930 . S
H2035 C2048 0.930 . S
H2036 C2052 0.959 . S
H2037 C2052 0.959 . S
H2038 C2052 0.961 . S
H2039 C2053 0.960 . S
H2040 C2053 0.961 . S
H2041 C2053 0.959 . S
H2042 C2056 0.929 . S
H2043 C2057 0.931 . S
H2044 C2059 0.930 . S
C2045 H2033 0.930 . S
C2045 C2046 1.399 . S
C2045 C2050 1.399 . S
C2046 C2045 1.399 . S
C2046 C2047 1.376 . S
C2047 H2034 0.930 . S
C2047 C2046 1.376 . S
C2047 C2048 1.388 . S
C2048 H2035 0.930 . S
C2048 C2047 1.388 . S
C2048 C2049 1.390 . S
C2049 C2048 1.390 . S
C2049 C2050 1.394 . S
C2049 C2055 1.465 . S
C2050 C2045 1.399 . S
C2050 C2049 1.394 . S
C2050 C2051 1.516 . S
C2051 C2050 1.516 . S
C2051 C2052 1.502 . S
C2051 C2053 1.561 . S
C2051 C2054 1.526 . S
C2052 H2036 0.959 . S
C2052 H2037 0.959 . S
C2052 H2038 0.961 . S
C2052 C2051 1.502 . S
C2053 H2039 0.960 . S
C2053 H2040 0.961 . S
C2053 H2041 0.959 . S
C2053 C2051 1.561 . S
C2054 C2051 1.526 . S
C2054 C2055 1.396 . S
C2054 C2059 1.390 . S
C2055 C2049 1.465 . S
C2055 C2054 1.396 . S
C2055 C2056 1.399 . S
C2056 H2042 0.929 . S
C2056 C2055 1.399 . S
C2056 C2057 1.385 . S
C2057 H2043 0.931 . S
C2057 C2056 1.385 . S
C2057 C2058 1.389 . S
C2058 C2057 1.389 . S
C2058 C2059 1.387 . S
C2059 H2044 0.930 . S
C2059 C2054 1.390 . S
C2059 C2058 1.387 . S
H2060 C2072 0.930 . S
H2061 C2074 0.930 . S
H2062 C2075 0.930 . S
H2063 C2079 0.959 . S
H2064 C2079 0.959 . S
H2065 C2079 0.961 . S
H2066 C2080 0.960 . S
H2067 C2080 0.961 . S
H2068 C2080 0.959 . S
H2069 C2083 0.929 . S
H2070 C2084 0.931 . S
H2071 C2086 0.930 . S
C2072 H2060 0.930 . S
C2072 C2073 1.399 . S
C2072 C2077 1.399 . S
C2073 C2072 1.399 . S
C2073 C2074 1.376 . S
C2074 H2061 0.930 . S
C2074 C2073 1.376 . S
C2074 C2075 1.388 . S
C2075 H2062 0.930 . S
C2075 C2074 1.388 . S
C2075 C2076 1.390 . S
C2076 C2075 1.390 . S
C2076 C2077 1.394 . S
C2076 C2082 1.465 . S
C2077 C2072 1.399 . S
C2077 C2076 1.394 . S
C2077 C2078 1.516 . S
C2078 C2077 1.516 . S
C2078 C2079 1.502 . S
C2078 C2080 1.561 . S
C2078 C2081 1.526 . S
C2079 H2063 0.959 . S
C2079 H2064 0.959 . S
C2079 H2065 0.961 . S
C2079 C2078 1.502 . S
C2080 H2066 0.960 . S
C2080 H2067 0.961 . S
C2080 H2068 0.959 . S
C2080 C2078 1.561 . S
C2081 C2078 1.526 . S
C2081 C2082 1.396 . S
C2081 C2086 1.390 . S
C2082 C2076 1.465 . S
C2082 C2081 1.396 . S
C2082 C2083 1.399 . S
C2083 H2069 0.929 . S
C2083 C2082 1.399 . S
C2083 C2084 1.385 . S
C2084 H2070 0.931 . S
C2084 C2083 1.385 . S
C2084 C2085 1.389 . S
C2085 C2084 1.389 . S
C2085 C2086 1.387 . S
C2086 H2071 0.930 . S
C2086 C2081 1.390 . S
C2086 C2085 1.387 . S
H2087 C2099 0.930 . S
H2088 C2101 0.930 . S
H2089 C2102 0.930 . S
H2090 C2106 0.959 . S
H2091 C2106 0.959 . S
H2092 C2106 0.961 . S
H2093 C2107 0.960 . S
H2094 C2107 0.961 . S
H2095 C2107 0.959 . S
H2096 C2110 0.929 . S
H2097 C2111 0.931 . S
H2098 C2113 0.930 . S
C2099 H2087 0.930 . S
C2099 C2100 1.399 . S
C2099 C2104 1.399 . S
C2100 C2099 1.399 . S
C2100 C2101 1.376 . S
C2101 H2088 0.930 . S
C2101 C2100 1.376 . S
C2101 C2102 1.388 . S
C2102 H2089 0.930 . S
C2102 C2101 1.388 . S
C2102 C2103 1.390 . S
C2103 C2102 1.390 . S
C2103 C2104 1.394 . S
C2103 C2109 1.465 . S
C2104 C2099 1.399 . S
C2104 C2103 1.394 . S
C2104 C2105 1.516 . S
C2105 C2104 1.516 . S
C2105 C2106 1.502 . S
C2105 C2107 1.561 . S
C2105 C2108 1.526 . S
C2106 H2090 0.959 . S
C2106 H2091 0.959 . S
C2106 H2092 0.961 . S
C2106 C2105 1.502 . S
C2107 H2093 0.960 . S
C2107 H2094 0.961 . S
C2107 H2095 0.959 . S
C2107 C2105 1.561 . S
C2108 C2105 1.526 . S
C2108 C2109 1.396 . S
C2108 C2113 1.390 . S
C2109 C2103 1.465 . S
C2109 C2108 1.396 . S
C2109 C2110 1.399 . S
C2110 H2096 0.929 . S
C2110 C2109 1.399 . S
C2110 C2111 1.385 . S
C2111 H2097 0.931 . S
C2111 C2110 1.385 . S
C2111 C2112 1.389 . S
C2112 C2111 1.389 . S
C2112 C2113 1.387 . S
C2113 H2098 0.930 . S
C2113 C2108 1.390 . S
C2113 C2112 1.387 . S
H2114 C2126 0.930 . S
H2115 C2128 0.930 . S
H2116 C2129 0.930 . S
H2117 C2133 0.959 . S
H2118 C2133 0.959 . S
H2119 C2133 0.961 . S
H2120 C2134 0.960 . S
H2121 C2134 0.961 . S
H2122 C2134 0.959 . S
H2123 C2137 0.929 . S
H2124 C2138 0.931 . S
H2125 C2140 0.930 . S
C2126 H2114 0.930 . S
C2126 C2127 1.399 1_455 S
C2126 C2131 1.399 . S
C2127 C2126 1.399 1_655 S
C2127 C2128 1.376 . S
C2128 H2115 0.930 . S
C2128 C2127 1.376 . S
C2128 C2129 1.388 . S
C2129 H2116 0.930 . S
C2129 C2128 1.388 . S
C2129 C2130 1.390 . S
C2130 C2129 1.390 . S
C2130 C2131 1.394 1_655 S
C2130 C2136 1.465 . S
C2131 C2126 1.399 . S
C2131 C2130 1.394 1_455 S
C2131 C2132 1.516 . S
C2132 C2131 1.516 . S
C2132 C2133 1.502 . S
C2132 C2134 1.561 1_455 S
C2132 C2135 1.526 . S
C2133 H2117 0.959 . S
C2133 H2118 0.959 . S
C2133 H2119 0.961 . S
C2133 C2132 1.502 . S
C2134 H2120 0.960 . S
C2134 H2121 0.961 . S
C2134 H2122 0.959 . S
C2134 C2132 1.561 1_655 S
C2135 C2132 1.526 . S
C2135 C2136 1.396 1_455 S
C2135 C2140 1.390 . S
C2136 C2130 1.465 . S
C2136 C2135 1.396 1_655 S
C2136 C2137 1.399 . S
C2137 H2123 0.929 . S
C2137 C2136 1.399 . S
C2137 C2138 1.385 . S
C2138 H2124 0.931 . S
C2138 C2137 1.385 . S
C2138 C2139 1.389 1_655 S
C2139 C2138 1.389 1_455 S
C2139 C2140 1.387 . S
C2140 H2125 0.930 . S
C2140 C2135 1.390 . S
C2140 C2139 1.387 . S
H2141 C2153 0.930 . S
H2142 C2155 0.930 . S
H2143 C2156 0.930 . S
H2144 C2160 0.959 . S
H2145 C2160 0.959 . S
H2146 C2160 0.961 . S
H2147 C2161 0.960 . S
H2148 C2161 0.961 . S
H2149 C2161 0.959 . S
H2150 C2164 0.929 . S
H2151 C2165 0.931 . S
H2152 C2167 0.930 . S
C2153 H2141 0.930 . S
C2153 C2154 1.399 . S
C2153 C2158 1.399 . S
C2154 C2153 1.399 . S
C2154 C2155 1.376 . S
C2155 H2142 0.930 . S
C2155 C2154 1.376 . S
C2155 C2156 1.388 . S
C2156 H2143 0.930 . S
C2156 C2155 1.388 . S
C2156 C2157 1.390 . S
C2157 C2156 1.390 . S
C2157 C2158 1.394 . S
C2157 C2163 1.465 . S
C2158 C2153 1.399 . S
C2158 C2157 1.394 . S
C2158 C2159 1.516 . S
C2159 C2158 1.516 . S
C2159 C2160 1.502 . S
C2159 C2161 1.561 . S
C2159 C2162 1.526 . S
C2160 H2144 0.959 . S
C2160 H2145 0.959 . S
C2160 H2146 0.961 . S
C2160 C2159 1.502 . S
C2161 H2147 0.960 . S
C2161 H2148 0.961 . S
C2161 H2149 0.959 . S
C2161 C2159 1.561 . S
C2162 C2159 1.526 . S
C2162 C2163 1.396 . S
C2162 C2167 1.390 . S
C2163 C2157 1.465 . S
C2163 C2162 1.396 . S
C2163 C2164 1.399 . S
C2164 H2150 0.929 . S
C2164 C2163 1.399 . S
C2164 C2165 1.385 . S
C2165 H2151 0.931 . S
C2165 C2164 1.385 . S
C2165 C2166 1.389 . S
C2166 C2165 1.389 . S
C2166 C2167 1.387 . S
C2167 H2152 0.930 . S
C2167 C2162 1.390 . S
C2167 C2166 1.387 . S
H2168 C2180 0.930 . S
H2169 C2182 0.930 . S
H2170 C2183 0.930 . S
H2171 C2187 0.959 . S
H2172 C2187 0.959 . S
H2173 C2187 0.961 . S
H2174 C2188 0.960 . S
H2175 C2188 0.961 . S
H2176 C2188 0.959 . S
H2177 C2191 0.929 . S
H2178 C2192 0.931 . S
H2179 C2194 0.930 . S
C2180 H2168 0.930 . S
C2180 C2181 1.399 . S
C2180 C2185 1.399 . S
C2181 C2180 1.399 . S
C2181 C2182 1.376 . S
C2182 H2169 0.930 . S
C2182 C2181 1.376 . S
C2182 C2183 1.388 . S
C2183 H2170 0.930 . S
C2183 C2182 1.388 . S
C2183 C2184 1.390 . S
C2184 C2183 1.390 . S
C2184 C2185 1.394 . S
C2184 C2190 1.465 . S
C2185 C2180 1.399 . S
C2185 C2184 1.394 . S
C2185 C2186 1.516 . S
C2186 C2185 1.516 . S
C2186 C2187 1.502 . S
C2186 C2188 1.561 . S
C2186 C2189 1.526 . S
C2187 H2171 0.959 . S
C2187 H2172 0.959 . S
C2187 H2173 0.961 . S
C2187 C2186 1.502 . S
C2188 H2174 0.960 . S
C2188 H2175 0.961 . S
C2188 H2176 0.959 . S
C2188 C2186 1.561 . S
C2189 C2186 1.526 . S
C2189 C2190 1.396 . S
C2189 C2194 1.390 . S
C2190 C2184 1.465 . S
C2190 C2189 1.396 . S
C2190 C2191 1.399 . S
C2191 H2177 0.929 . S
C2191 C2190 1.399 . S
C2191 C2192 1.385 . S
C2192 H2178 0.931 . S
C2192 C2191 1.385 . S
C2192 C2193 1.389 . S
C2193 C2192 1.389 . S
C2193 C2194 1.387 . S
C2194 H2179 0.930 . S
C2194 C2189 1.390 . S
C2194 C2193 1.387 . S
H2195 C2207 0.930 . S
H2196 C2209 0.930 . S
H2197 C2210 0.930 . S
H2198 C2214 0.959 . S
H2199 C2214 0.959 . S
H2200 C2214 0.961 . S
H2201 C2215 0.960 . S
H2202 C2215 0.961 . S
H2203 C2215 0.959 . S
H2204 C2218 0.929 . S
H2205 C2219 0.931 . S
H2206 C2221 0.930 . S
C2207 H2195 0.930 . S
C2207 C2208 1.399 . S
C2207 C2212 1.399 . S
C2208 C2207 1.399 . S
C2208 C2209 1.376 . S
C2209 H2196 0.930 . S
C2209 C2208 1.376 . S
C2209 C2210 1.388 . S
C2210 H2197 0.930 . S
C2210 C2209 1.388 . S
C2210 C2211 1.390 . S
C2211 C2210 1.390 . S
C2211 C2212 1.394 . S
C2211 C2217 1.465 . S
C2212 C2207 1.399 . S
C2212 C2211 1.394 . S
C2212 C2213 1.516 . S
C2213 C2212 1.516 . S
C2213 C2214 1.502 . S
C2213 C2215 1.561 . S
C2213 C2216 1.526 . S
C2214 H2198 0.959 . S
C2214 H2199 0.959 . S
C2214 H2200 0.961 . S
C2214 C2213 1.502 . S
C2215 H2201 0.960 . S
C2215 H2202 0.961 . S
C2215 H2203 0.959 . S
C2215 C2213 1.561 . S
C2216 C2213 1.526 . S
C2216 C2217 1.396 . S
C2216 C2221 1.390 . S
C2217 C2211 1.465 . S
C2217 C2216 1.396 . S
C2217 C2218 1.399 . S
C2218 H2204 0.929 . S
C2218 C2217 1.399 . S
C2218 C2219 1.385 . S
C2219 H2205 0.931 . S
C2219 C2218 1.385 . S
C2219 C2220 1.389 . S
C2220 C2219 1.389 . S
C2220 C2221 1.387 . S
C2221 H2206 0.930 . S
C2221 C2216 1.390 . S
C2221 C2220 1.387 . S
H2222 C2234 0.930 . S
H2223 C2236 0.930 . S
H2224 C2237 0.930 . S
H2225 C2241 0.959 . S
H2226 C2241 0.959 . S
H2227 C2241 0.961 . S
H2228 C2242 0.960 . S
H2229 C2242 0.961 . S
H2230 C2242 0.959 . S
H2231 C2245 0.929 . S
H2232 C2246 0.931 . S
H2233 C2248 0.930 . S
C2234 H2222 0.930 . S
C2234 C2235 1.399 . S
C2234 C2239 1.399 . S
C2235 C2234 1.399 . S
C2235 C2236 1.376 . S
C2236 H2223 0.930 . S
C2236 C2235 1.376 . S
C2236 C2237 1.388 . S
C2237 H2224 0.930 . S
C2237 C2236 1.388 . S
C2237 C2238 1.390 . S
C2238 C2237 1.390 . S
C2238 C2239 1.394 . S
C2238 C2244 1.465 . S
C2239 C2234 1.399 . S
C2239 C2238 1.394 . S
C2239 C2240 1.516 . S
C2240 C2239 1.516 . S
C2240 C2241 1.502 . S
C2240 C2242 1.561 . S
C2240 C2243 1.526 . S
C2241 H2225 0.959 . S
C2241 H2226 0.959 . S
C2241 H2227 0.961 . S
C2241 C2240 1.502 . S
C2242 H2228 0.960 . S
C2242 H2229 0.961 . S
C2242 H2230 0.959 . S
C2242 C2240 1.561 . S
C2243 C2240 1.526 . S
C2243 C2244 1.396 . S
C2243 C2248 1.390 . S
C2244 C2238 1.465 . S
C2244 C2243 1.396 . S
C2244 C2245 1.399 . S
C2245 H2231 0.929 . S
C2245 C2244 1.399 . S
C2245 C2246 1.385 . S
C2246 H2232 0.931 . S
C2246 C2245 1.385 . S
C2246 C2247 1.389 . S
C2247 C2246 1.389 . S
C2247 C2248 1.387 . S
C2248 H2233 0.930 . S
C2248 C2243 1.390 . S
C2248 C2247 1.387 . S
H2249 C2261 0.930 . S
H2250 C2263 0.930 . S
H2251 C2264 0.930 . S
H2252 C2268 0.959 . S
H2253 C2268 0.959 . S
H2254 C2268 0.961 . S
H2255 C2269 0.960 . S
H2256 C2269 0.961 . S
H2257 C2269 0.959 . S
H2258 C2272 0.929 . S
H2259 C2273 0.931 . S
H2260 C2275 0.930 . S
C2261 H2249 0.930 . S
C2261 C2262 1.399 . S
C2261 C2266 1.399 . S
C2262 C2261 1.399 . S
C2262 C2263 1.376 . S
C2263 H2250 0.930 . S
C2263 C2262 1.376 . S
C2263 C2264 1.388 . S
C2264 H2251 0.930 . S
C2264 C2263 1.388 . S
C2264 C2265 1.390 . S
C2265 C2264 1.390 . S
C2265 C2266 1.394 . S
C2265 C2271 1.465 . S
C2266 C2261 1.399 . S
C2266 C2265 1.394 . S
C2266 C2267 1.516 . S
C2267 C2266 1.516 . S
C2267 C2268 1.502 . S
C2267 C2269 1.561 . S
C2267 C2270 1.526 . S
C2268 H2252 0.959 . S
C2268 H2253 0.959 . S
C2268 H2254 0.961 . S
C2268 C2267 1.502 . S
C2269 H2255 0.960 . S
C2269 H2256 0.961 . S
C2269 H2257 0.959 . S
C2269 C2267 1.561 . S
C2270 C2267 1.526 . S
C2270 C2271 1.396 . S
C2270 C2275 1.390 . S
C2271 C2265 1.465 . S
C2271 C2270 1.396 . S
C2271 C2272 1.399 . S
C2272 H2258 0.929 . S
C2272 C2271 1.399 . S
C2272 C2273 1.385 . S
C2273 H2259 0.931 . S
C2273 C2272 1.385 . S
C2273 C2274 1.389 . S
C2274 C2273 1.389 . S
C2274 C2275 1.387 . S
C2275 H2260 0.930 . S
C2275 C2270 1.390 . S
C2275 C2274 1.387 . S
H2276 C2288 0.930 . S
H2277 C2290 0.930 . S
H2278 C2291 0.930 . S
H2279 C2295 0.959 . S
H2280 C2295 0.959 . S
H2281 C2295 0.961 . S
H2282 C2296 0.960 . S
H2283 C2296 0.961 . S
H2284 C2296 0.959 . S
H2285 C2299 0.929 . S
H2286 C2300 0.931 . S
H2287 C2302 0.930 . S
C2288 H2276 0.930 . S
C2288 C2289 1.399 . S
C2288 C2293 1.399 . S
C2289 C2288 1.399 . S
C2289 C2290 1.376 . S
C2290 H2277 0.930 . S
C2290 C2289 1.376 . S
C2290 C2291 1.388 . S
C2291 H2278 0.930 . S
C2291 C2290 1.388 . S
C2291 C2292 1.390 . S
C2292 C2291 1.390 . S
C2292 C2293 1.394 . S
C2292 C2298 1.465 . S
C2293 C2288 1.399 . S
C2293 C2292 1.394 . S
C2293 C2294 1.516 . S
C2294 C2293 1.516 . S
C2294 C2295 1.502 . S
C2294 C2296 1.561 . S
C2294 C2297 1.526 . S
C2295 H2279 0.959 . S
C2295 H2280 0.959 . S
C2295 H2281 0.961 . S
C2295 C2294 1.502 . S
C2296 H2282 0.960 . S
C2296 H2283 0.961 . S
C2296 H2284 0.959 . S
C2296 C2294 1.561 . S
C2297 C2294 1.526 . S
C2297 C2298 1.396 . S
C2297 C2302 1.390 . S
C2298 C2292 1.465 . S
C2298 C2297 1.396 . S
C2298 C2299 1.399 . S
C2299 H2285 0.929 . S
C2299 C2298 1.399 . S
C2299 C2300 1.385 . S
C2300 H2286 0.931 . S
C2300 C2299 1.385 . S
C2300 C2301 1.389 . S
C2301 C2300 1.389 . S
C2301 C2302 1.387 . S
C2302 H2287 0.930 . S
C2302 C2297 1.390 . S
C2302 C2301 1.387 . S
H2303 C2315 0.930 . S
H2304 C2317 0.930 . S
H2305 C2318 0.930 . S
H2306 C2322 0.959 . S
H2307 C2322 0.959 . S
H2308 C2322 0.961 . S
H2309 C2323 0.960 . S
H2310 C2323 0.961 . S
H2311 C2323 0.959 . S
H2312 C2326 0.929 . S
H2313 C2327 0.931 . S
H2314 C2329 0.930 . S
C2315 H2303 0.930 . S
C2315 C2316 1.399 . S
C2315 C2320 1.399 . S
C2316 C2315 1.399 . S
C2316 C2317 1.376 . S
C2317 H2304 0.930 . S
C2317 C2316 1.376 . S
C2317 C2318 1.388 . S
C2318 H2305 0.930 . S
C2318 C2317 1.388 . S
C2318 C2319 1.390 . S
C2319 C2318 1.390 . S
C2319 C2320 1.394 . S
C2319 C2325 1.465 . S
C2320 C2315 1.399 . S
C2320 C2319 1.394 . S
C2320 C2321 1.516 . S
C2321 C2320 1.516 . S
C2321 C2322 1.502 . S
C2321 C2323 1.561 . S
C2321 C2324 1.526 . S
C2322 H2306 0.959 . S
C2322 H2307 0.959 . S
C2322 H2308 0.961 . S
C2322 C2321 1.502 . S
C2323 H2309 0.960 . S
C2323 H2310 0.961 . S
C2323 H2311 0.959 . S
C2323 C2321 1.561 . S
C2324 C2321 1.526 . S
C2324 C2325 1.396 . S
C2324 C2329 1.390 . S
C2325 C2319 1.465 . S
C2325 C2324 1.396 . S
C2325 C2326 1.399 . S
C2326 H2312 0.929 . S
C2326 C2325 1.399 . S
C2326 C2327 1.385 . S
C2327 H2313 0.931 . S
C2327 C2326 1.385 . S
C2327 C2328 1.389 . S
C2328 C2327 1.389 . S
C2328 C2329 1.387 . S
C2329 H2314 0.930 . S
C2329 C2324 1.390 . S
C2329 C2328 1.387 . S
H2330 C2342 0.930 . S
H2331 C2344 0.930 . S
H2332 C2345 0.930 . S
H2333 C2349 0.959 . S
H2334 C2349 0.959 . S
H2335 C2349 0.961 . S
H2336 C2350 0.960 . S
H2337 C2350 0.961 . S
H2338 C2350 0.959 . S
H2339 C2353 0.929 . S
H2340 C2354 0.931 . S
H2341 C2356 0.930 . S
C2342 H2330 0.930 . S
C2342 C2343 1.399 . S
C2342 C2347 1.399 . S
C2343 C2342 1.399 . S
C2343 C2344 1.376 . S
C2344 H2331 0.930 . S
C2344 C2343 1.376 . S
C2344 C2345 1.388 . S
C2345 H2332 0.930 . S
C2345 C2344 1.388 . S
C2345 C2346 1.390 . S
C2346 C2345 1.390 . S
C2346 C2347 1.394 . S
C2346 C2352 1.465 . S
C2347 C2342 1.399 . S
C2347 C2346 1.394 . S
C2347 C2348 1.516 . S
C2348 C2347 1.516 . S
C2348 C2349 1.502 . S
C2348 C2350 1.561 . S
C2348 C2351 1.526 . S
C2349 H2333 0.959 . S
C2349 H2334 0.959 . S
C2349 H2335 0.961 . S
C2349 C2348 1.502 . S
C2350 H2336 0.960 . S
C2350 H2337 0.961 . S
C2350 H2338 0.959 . S
C2350 C2348 1.561 . S
C2351 C2348 1.526 . S
C2351 C2352 1.396 . S
C2351 C2356 1.390 . S
C2352 C2346 1.465 . S
C2352 C2351 1.396 . S
C2352 C2353 1.399 . S
C2353 H2339 0.929 . S
C2353 C2352 1.399 . S
C2353 C2354 1.385 . S
C2354 H2340 0.931 . S
C2354 C2353 1.385 . S
C2354 C2355 1.389 . S
C2355 C2354 1.389 . S
C2355 C2356 1.387 . S
C2356 H2341 0.930 . S
C2356 C2351 1.390 . S
C2356 C2355 1.387 . S
H2357 C2369 0.930 . S
H2358 C2371 0.930 . S
H2359 C2372 0.930 . S
H2360 C2376 0.959 . S
H2361 C2376 0.959 . S
H2362 C2376 0.961 . S
H2363 C2377 0.960 . S
H2364 C2377 0.961 . S
H2365 C2377 0.959 . S
H2366 C2380 0.929 . S
H2367 C2381 0.931 . S
H2368 C2383 0.930 . S
C2369 H2357 0.930 . S
C2369 C2370 1.399 . S
C2369 C2374 1.399 . S
C2370 C2369 1.399 . S
C2370 C2371 1.376 . S
C2371 H2358 0.930 . S
C2371 C2370 1.376 . S
C2371 C2372 1.388 . S
C2372 H2359 0.930 . S
C2372 C2371 1.388 . S
C2372 C2373 1.390 . S
C2373 C2372 1.390 . S
C2373 C2374 1.394 . S
C2373 C2379 1.465 . S
C2374 C2369 1.399 . S
C2374 C2373 1.394 . S
C2374 C2375 1.516 . S
C2375 C2374 1.516 . S
C2375 C2376 1.502 . S
C2375 C2377 1.561 . S
C2375 C2378 1.526 . S
C2376 H2360 0.959 . S
C2376 H2361 0.959 . S
C2376 H2362 0.961 . S
C2376 C2375 1.502 . S
C2377 H2363 0.960 . S
C2377 H2364 0.961 . S
C2377 H2365 0.959 . S
C2377 C2375 1.561 . S
C2378 C2375 1.526 . S
C2378 C2379 1.396 . S
C2378 C2383 1.390 . S
C2379 C2373 1.465 . S
C2379 C2378 1.396 . S
C2379 C2380 1.399 . S
C2380 H2366 0.929 . S
C2380 C2379 1.399 . S
C2380 C2381 1.385 . S
C2381 H2367 0.931 . S
C2381 C2380 1.385 . S
C2381 C2382 1.389 . S
C2382 C2381 1.389 . S
C2382 C2383 1.387 . S
C2383 H2368 0.930 . S
C2383 C2378 1.390 . S
C2383 C2382 1.387 . S
H2384 C2396 0.930 . S
H2385 C2398 0.930 . S
H2386 C2399 0.930 . S
H2387 C2403 0.959 . S
H2388 C2403 0.959 . S
H2389 C2403 0.961 . S
H2390 C2404 0.960 . S
H2391 C2404 0.961 . S
H2392 C2404 0.959 . S
H2393 C2407 0.929 . S
H2394 C2408 0.931 . S
H2395 C2410 0.930 . S
C2396 H2384 0.930 . S
C2396 C2397 1.399 . S
C2396 C2401 1.399 . S
C2397 C2396 1.399 . S
C2397 C2398 1.376 . S
C2398 H2385 0.930 . S
C2398 C2397 1.376 . S
C2398 C2399 1.388 . S
C2399 H2386 0.930 . S
C2399 C2398 1.388 . S
C2399 C2400 1.390 . S
C2400 C2399 1.390 . S
C2400 C2401 1.394 . S
C2400 C2406 1.465 . S
C2401 C2396 1.399 . S
C2401 C2400 1.394 . S
C2401 C2402 1.516 . S
C2402 C2401 1.516 . S
C2402 C2403 1.502 . S
C2402 C2404 1.561 . S
C2402 C2405 1.526 . S
C2403 H2387 0.959 . S
C2403 H2388 0.959 . S
C2403 H2389 0.961 . S
C2403 C2402 1.502 . S
C2404 H2390 0.960 . S
C2404 H2391 0.961 . S
C2404 H2392 0.959 . S
C2404 C2402 1.561 . S
C2405 C2402 1.526 . S
C2405 C2406 1.396 . S
C2405 C2410 1.390 . S
C2406 C2400 1.465 . S
C2406 C2405 1.396 . S
C2406 C2407 1.399 . S
C2407 H2393 0.929 . S
C2407 C2406 1.399 . S
C2407 C2408 1.385 . S
C2408 H2394 0.931 . S
C2408 C2407 1.385 . S
C2408 C2409 1.389 . S
C2409 C2408 1.389 . S
C2409 C2410 1.387 . S
C2410 H2395 0.930 . S
C2410 C2405 1.390 . S
C2410 C2409 1.387 . S
H2411 C2423 0.930 . S
H2412 C2425 0.930 . S
H2413 C2426 0.930 . S
H2414 C2430 0.959 . S
H2415 C2430 0.959 . S
H2416 C2430 0.961 . S
H2417 C2431 0.960 . S
H2418 C2431 0.961 . S
H2419 C2431 0.959 . S
H2420 C2434 0.929 . S
H2421 C2435 0.931 . S
H2422 C2437 0.930 . S
C2423 H2411 0.930 . S
C2423 C2424 1.399 . S
C2423 C2428 1.399 . S
C2424 C2423 1.399 . S
C2424 C2425 1.376 . S
C2425 H2412 0.930 . S
C2425 C2424 1.376 . S
C2425 C2426 1.388 . S
C2426 H2413 0.930 . S
C2426 C2425 1.388 . S
C2426 C2427 1.390 . S
C2427 C2426 1.390 . S
C2427 C2428 1.394 . S
C2427 C2433 1.465 . S
C2428 C2423 1.399 . S
C2428 C2427 1.394 . S
C2428 C2429 1.516 . S
C2429 C2428 1.516 . S
C2429 C2430 1.502 . S
C2429 C2431 1.561 . S
C2429 C2432 1.526 . S
C2430 H2414 0.959 . S
C2430 H2415 0.959 . S
C2430 H2416 0.961 . S
C2430 C2429 1.502 . S
C2431 H2417 0.960 . S
C2431 H2418 0.961 . S
C2431 H2419 0.959 . S
C2431 C2429 1.561 . S
C2432 C2429 1.526 . S
C2432 C2433 1.396 . S
C2432 C2437 1.390 . S
C2433 C2427 1.465 . S
C2433 C2432 1.396 . S
C2433 C2434 1.399 . S
C2434 H2420 0.929 . S
C2434 C2433 1.399 . S
C2434 C2435 1.385 . S
C2435 H2421 0.931 . S
C2435 C2434 1.385 . S
C2435 C2436 1.389 . S
C2436 C2435 1.389 . S
C2436 C2437 1.387 . S
C2437 H2422 0.930 . S
C2437 C2432 1.390 . S
C2437 C2436 1.387 . S
H2438 C2450 0.930 . S
H2439 C2452 0.930 . S
H2440 C2453 0.930 . S
H2441 C2457 0.959 . S
H2442 C2457 0.959 . S
H2443 C2457 0.961 . S
H2444 C2458 0.960 . S
H2445 C2458 0.961 . S
H2446 C2458 0.959 . S
H2447 C2461 0.929 . S
H2448 C2462 0.931 . S
H2449 C2464 0.930 . S
C2450 H2438 0.930 . S
C2450 C2451 1.399 . S
C2450 C2455 1.399 . S
C2451 C2450 1.399 . S
C2451 C2452 1.376 . S
C2452 H2439 0.930 . S
C2452 C2451 1.376 . S
C2452 C2453 1.388 . S
C2453 H2440 0.930 . S
C2453 C2452 1.388 . S
C2453 C2454 1.390 . S
C2454 C2453 1.390 . S
C2454 C2455 1.394 . S
C2454 C2460 1.465 . S
C2455 C2450 1.399 . S
C2455 C2454 1.394 . S
C2455 C2456 1.516 . S
C2456 C2455 1.516 . S
C2456 C2457 1.502 . S
C2456 C2458 1.561 . S
C2456 C2459 1.526 . S
C2457 H2441 0.959 . S
C2457 H2442 0.959 . S
C2457 H2443 0.961 . S
C2457 C2456 1.502 . S
C2458 H2444 0.960 . S
C2458 H2445 0.961 . S
C2458 H2446 0.959 . S
C2458 C2456 1.561 . S
C2459 C2456 1.526 . S
C2459 C2460 1.396 . S
C2459 C2464 1.390 . S
C2460 C2454 1.465 . S
C2460 C2459 1.396 . S
C2460 C2461 1.399 . S
C2461 H2447 0.929 . S
C2461 C2460 1.399 . S
C2461 C2462 1.385 . S
C2462 H2448 0.931 . S
C2462 C2461 1.385 . S
C2462 C2463 1.389 . S
C2463 C2462 1.389 . S
C2463 C2464 1.387 . S
C2464 H2449 0.930 . S
C2464 C2459 1.390 . S
C2464 C2463 1.387 . S
H2465 C2477 0.930 . S
H2466 C2479 0.929 1_556 S
H2467 C2480 0.930 1_556 S
H2468 C2484 0.959 . S
H2469 C2484 0.959 1_545 S
H2470 C2484 0.961 . S
H2471 C2485 0.960 . S
H2472 C2485 0.961 . S
H2473 C2485 0.959 . S
H2474 C2488 0.929 1_556 S
H2475 C2489 0.931 1_556 S
H2476 C2491 0.930 . S
C2477 H2465 0.930 . S
C2477 C2478 1.399 . S
C2477 C2482 1.399 . S
C2478 C2477 1.399 . S
C2478 C2479 1.376 . S
C2479 H2466 0.929 1_554 S
C2479 C2478 1.376 . S
C2479 C2480 1.388 . S
C2480 H2467 0.930 1_554 S
C2480 C2479 1.388 . S
C2480 C2481 1.390 . S
C2481 C2480 1.390 . S
C2481 C2482 1.394 . S
C2481 C2487 1.465 . S
C2482 C2477 1.399 . S
C2482 C2481 1.394 . S
C2482 C2483 1.516 . S
C2483 C2482 1.516 . S
C2483 C2484 1.502 . S
C2483 C2485 1.561 . S
C2483 C2486 1.526 . S
C2484 H2468 0.959 . S
C2484 H2469 0.959 1_565 S
C2484 H2470 0.961 . S
C2484 C2483 1.502 . S
C2485 H2471 0.960 . S
C2485 H2472 0.961 . S
C2485 H2473 0.959 . S
C2485 C2483 1.561 . S
C2486 C2483 1.526 . S
C2486 C2487 1.396 . S
C2486 C2491 1.390 . S
C2487 C2481 1.465 . S
C2487 C2486 1.396 . S
C2487 C2488 1.399 . S
C2488 H2474 0.929 1_554 S
C2488 C2487 1.399 . S
C2488 C2489 1.385 . S
C2489 H2475 0.931 1_554 S
C2489 C2488 1.385 . S
C2489 C2490 1.389 . S
C2490 C2489 1.389 . S
C2490 C2491 1.387 . S
C2491 H2476 0.930 . S
C2491 C2486 1.390 . S
C2491 C2490 1.387 . S
H2492 C2504 0.930 . S
H2493 C2506 0.930 . S
H2494 C2507 0.930 . S
H2495 C2511 0.959 . S
H2496 C2511 0.959 . S
H2497 C2511 0.961 . S
H2498 C2512 0.960 . S
H2499 C2512 0.961 . S
H2500 C2512 0.959 . S
H2501 C2515 0.929 . S
H2502 C2516 0.931 . S
H2503 C2518 0.930 . S
C2504 H2492 0.930 . S
C2504 C2505 1.399 . S
C2504 C2509 1.399 . S
C2505 C2504 1.399 . S
C2505 C2506 1.376 . S
C2506 H2493 0.930 . S
C2506 C2505 1.376 . S
C2506 C2507 1.388 . S
C2507 H2494 0.930 . S
C2507 C2506 1.388 . S
C2507 C2508 1.390 . S
C2508 C2507 1.390 . S
C2508 C2509 1.394 . S
C2508 C2514 1.465 . S
C2509 C2504 1.399 . S
C2509 C2508 1.394 . S
C2509 C2510 1.516 . S
C2510 C2509 1.516 . S
C2510 C2511 1.502 . S
C2510 C2512 1.561 . S
C2510 C2513 1.526 . S
C2511 H2495 0.959 . S
C2511 H2496 0.959 . S
C2511 H2497 0.961 . S
C2511 C2510 1.502 . S
C2512 H2498 0.960 . S
C2512 H2499 0.961 . S
C2512 H2500 0.959 . S
C2512 C2510 1.561 . S
C2513 C2510 1.526 . S
C2513 C2514 1.396 . S
C2513 C2518 1.390 . S
C2514 C2508 1.465 . S
C2514 C2513 1.396 . S
C2514 C2515 1.399 . S
C2515 H2501 0.929 . S
C2515 C2514 1.399 . S
C2515 C2516 1.385 . S
C2516 H2502 0.931 . S
C2516 C2515 1.385 . S
C2516 C2517 1.389 . S
C2517 C2516 1.389 . S
C2517 C2518 1.387 . S
C2518 H2503 0.930 . S
C2518 C2513 1.390 . S
C2518 C2517 1.387 . S
H2519 C2531 0.930 . S
H2520 C2533 0.930 . S
H2521 C2534 0.930 . S
H2522 C2538 0.957 . S
H2523 C2538 0.959 . S
H2524 C2538 0.961 . S
H2525 C2539 0.960 . S
H2526 C2539 0.961 . S
H2527 C2539 0.959 . S
H2528 C2542 0.929 . S
H2529 C2543 0.931 . S
H2530 C2545 0.901 1_556 S
C2531 H2519 0.930 . S
C2531 C2532 1.399 1_556 S
C2531 C2536 1.399 1_556 S
C2532 C2531 1.399 1_554 S
C2532 C2533 1.376 . S
C2533 H2520 0.930 . S
C2533 C2532 1.376 . S
C2533 C2534 1.388 . S
C2534 H2521 0.930 . S
C2534 C2533 1.388 . S
C2534 C2535 1.390 . S
C2535 C2534 1.390 . S
C2535 C2536 1.394 . S
C2535 C2541 1.465 . S
C2536 C2531 1.399 1_554 S
C2536 C2535 1.394 . S
C2536 C2537 1.516 1_554 S
C2537 C2536 1.516 1_556 S
C2537 C2538 1.502 . S
C2537 C2539 1.561 . S
C2537 C2540 1.526 1_556 S
C2538 H2522 0.957 . S
C2538 H2523 0.959 . S
C2538 H2524 0.961 . S
C2538 C2537 1.502 . S
C2539 H2525 0.960 . S
C2539 H2526 0.961 . S
C2539 H2527 0.959 . S
C2539 C2537 1.561 . S
C2540 C2537 1.526 1_554 S
C2540 C2541 1.396 . S
C2540 C2545 1.390 . S
C2541 C2535 1.465 . S
C2541 C2540 1.396 . S
C2541 C2542 1.399 . S
C2542 H2528 0.929 . S
C2542 C2541 1.399 . S
C2542 C2543 1.385 . S
C2543 H2529 0.931 . S
C2543 C2542 1.385 . S
C2543 C2544 1.389 . S
C2544 C2543 1.389 . S
C2544 C2545 1.387 . S
C2545 H2530 0.901 1_554 S
C2545 C2540 1.390 . S
C2545 C2544 1.387 . S
H2546 C2558 0.930 . S
H2547 C2560 0.930 . S
H2548 C2561 0.930 . S
H2549 C2565 0.959 . S
H2550 C2565 0.959 . S
H2551 C2565 0.961 . S
H2552 C2566 0.960 . S
H2553 C2566 0.961 . S
H2554 C2566 0.959 . S
H2555 C2569 0.929 . S
H2556 C2570 0.931 . S
H2557 C2572 0.930 . S
C2558 H2546 0.930 . S
C2558 C2559 1.399 . S
C2558 C2563 1.399 . S
C2559 C2558 1.399 . S
C2559 C2560 1.376 . S
C2560 H2547 0.930 . S
C2560 C2559 1.376 . S
C2560 C2561 1.388 . S
C2561 H2548 0.930 . S
C2561 C2560 1.388 . S
C2561 C2562 1.390 . S
C2562 C2561 1.390 . S
C2562 C2563 1.394 . S
C2562 C2568 1.465 . S
C2563 C2558 1.399 . S
C2563 C2562 1.394 . S
C2563 C2564 1.516 . S
C2564 C2563 1.516 . S
C2564 C2565 1.502 . S
C2564 C2566 1.561 . S
C2564 C2567 1.526 . S
C2565 H2549 0.959 . S
C2565 H2550 0.959 . S
C2565 H2551 0.961 . S
C2565 C2564 1.502 . S
C2566 H2552 0.960 . S
C2566 H2553 0.961 . S
C2566 H2554 0.959 . S
C2566 C2564 1.561 . S
C2567 C2564 1.526 . S
C2567 C2568 1.396 . S
C2567 C2572 1.390 . S
C2568 C2562 1.465 . S
C2568 C2567 1.396 . S
C2568 C2569 1.399 . S
C2569 H2555 0.929 . S
C2569 C2568 1.399 . S
C2569 C2570 1.385 . S
C2570 H2556 0.931 . S
C2570 C2569 1.385 . S
C2570 C2571 1.389 . S
C2571 C2570 1.389 . S
C2571 C2572 1.387 . S
C2572 H2557 0.930 . S
C2572 C2567 1.390 . S
C2572 C2571 1.387 . S
H2573 C2585 0.930 . S
H2574 C2587 0.930 . S
H2575 C2588 0.930 . S
H2576 C2592 0.959 . S
H2577 C2592 0.959 . S
H2578 C2592 0.961 . S
H2579 C2593 0.960 . S
H2580 C2593 0.961 . S
H2581 C2593 0.959 . S
H2582 C2596 0.929 . S
H2583 C2597 0.931 . S
H2584 C2599 0.930 . S
C2585 H2573 0.930 . S
C2585 C2586 1.399 . S
C2585 C2590 1.399 . S
C2586 C2585 1.399 . S
C2586 C2587 1.376 . S
C2587 H2574 0.930 . S
C2587 C2586 1.376 . S
C2587 C2588 1.388 . S
C2588 H2575 0.930 . S
C2588 C2587 1.388 . S
C2588 C2589 1.390 . S
C2589 C2588 1.390 . S
C2589 C2590 1.394 . S
C2589 C2595 1.465 . S
C2590 C2585 1.399 . S
C2590 C2589 1.394 . S
C2590 C2591 1.516 . S
C2591 C2590 1.516 . S
C2591 C2592 1.502 . S
C2591 C2593 1.561 . S
C2591 C2594 1.526 . S
C2592 H2576 0.959 . S
C2592 H2577 0.959 . S
C2592 H2578 0.961 . S
C2592 C2591 1.502 . S
C2593 H2579 0.960 . S
C2593 H2580 0.961 . S
C2593 H2581 0.959 . S
C2593 C2591 1.561 . S
C2594 C2591 1.526 . S
C2594 C2595 1.396 . S
C2594 C2599 1.390 . S
C2595 C2589 1.465 . S
C2595 C2594 1.396 . S
C2595 C2596 1.399 . S
C2596 H2582 0.929 . S
C2596 C2595 1.399 . S
C2596 C2597 1.385 . S
C2597 H2583 0.931 . S
C2597 C2596 1.385 . S
C2597 C2598 1.389 . S
C2598 C2597 1.389 . S
C2598 C2599 1.387 . S
C2599 H2584 0.930 . S
C2599 C2594 1.390 . S
C2599 C2598 1.387 . S
H2600 C2612 0.930 . S
H2601 C2614 0.930 . S
H2602 C2615 0.930 . S
H2603 C2619 0.959 . S
H2604 C2619 0.959 . S
H2605 C2619 0.961 . S
H2606 C2620 0.960 . S
H2607 C2620 0.961 . S
H2608 C2620 0.959 . S
H2609 C2623 0.929 . S
H2610 C2624 0.931 . S
H2611 C2626 0.930 . S
C2612 H2600 0.930 . S
C2612 C2613 1.399 . S
C2612 C2617 1.399 . S
C2613 C2612 1.399 . S
C2613 C2614 1.376 . S
C2614 H2601 0.930 . S
C2614 C2613 1.376 . S
C2614 C2615 1.388 . S
C2615 H2602 0.930 . S
C2615 C2614 1.388 . S
C2615 C2616 1.390 . S
C2616 C2615 1.390 . S
C2616 C2617 1.394 . S
C2616 C2622 1.465 . S
C2617 C2612 1.399 . S
C2617 C2616 1.394 . S
C2617 C2618 1.516 . S
C2618 C2617 1.516 . S
C2618 C2619 1.502 . S
C2618 C2620 1.561 . S
C2618 C2621 1.526 . S
C2619 H2603 0.959 . S
C2619 H2604 0.959 . S
C2619 H2605 0.961 . S
C2619 C2618 1.502 . S
C2620 H2606 0.960 . S
C2620 H2607 0.961 . S
C2620 H2608 0.959 . S
C2620 C2618 1.561 . S
C2621 C2618 1.526 . S
C2621 C2622 1.396 . S
C2621 C2626 1.390 . S
C2622 C2616 1.465 . S
C2622 C2621 1.396 . S
C2622 C2623 1.399 . S
C2623 H2609 0.929 . S
C2623 C2622 1.399 . S
C2623 C2624 1.385 . S
C2624 H2610 0.931 . S
C2624 C2623 1.385 . S
C2624 C2625 1.389 . S
C2625 C2624 1.389 . S
C2625 C2626 1.387 . S
C2626 H2611 0.930 . S
C2626 C2621 1.390 . S
C2626 C2625 1.387 . S
H2627 C2639 0.930 . S
H2628 C2641 0.930 . S
H2629 C2642 0.930 . S
H2630 C2646 0.959 . S
H2631 C2646 0.959 . S
H2632 C2646 0.961 . S
H2633 C2647 0.960 . S
H2634 C2647 0.961 . S
H2635 C2647 0.959 . S
H2636 C2650 0.929 . S
H2637 C2651 0.931 . S
H2638 C2653 0.930 . S
C2639 H2627 0.930 . S
C2639 C2640 1.399 . S
C2639 C2644 1.399 . S
C2640 C2639 1.399 . S
C2640 C2641 1.376 . S
C2641 H2628 0.930 . S
C2641 C2640 1.376 . S
C2641 C2642 1.388 . S
C2642 H2629 0.930 . S
C2642 C2641 1.388 . S
C2642 C2643 1.390 . S
C2643 C2642 1.390 . S
C2643 C2644 1.394 . S
C2643 C2649 1.465 . S
C2644 C2639 1.399 . S
C2644 C2643 1.394 . S
C2644 C2645 1.516 . S
C2645 C2644 1.516 . S
C2645 C2646 1.502 . S
C2645 C2647 1.561 . S
C2645 C2648 1.526 . S
C2646 H2630 0.959 . S
C2646 H2631 0.959 . S
C2646 H2632 0.961 . S
C2646 C2645 1.502 . S
C2647 H2633 0.960 . S
C2647 H2634 0.961 . S
C2647 H2635 0.959 . S
C2647 C2645 1.561 . S
C2648 C2645 1.526 . S
C2648 C2649 1.396 . S
C2648 C2653 1.390 . S
C2649 C2643 1.465 . S
C2649 C2648 1.396 . S
C2649 C2650 1.399 . S
C2650 H2636 0.929 . S
C2650 C2649 1.399 . S
C2650 C2651 1.385 . S
C2651 H2637 0.931 . S
C2651 C2650 1.385 . S
C2651 C2652 1.389 . S
C2652 C2651 1.389 . S
C2652 C2653 1.387 . S
C2653 H2638 0.930 . S
C2653 C2648 1.390 . S
C2653 C2652 1.387 . S
H2654 C2666 0.895 1_655 S
H2655 C2668 0.930 . S
H2656 C2669 0.930 . S
H2657 C2673 0.959 . S
H2658 C2673 0.959 . S
H2659 C2673 0.961 . S
H2660 C2674 0.960 . S
H2661 C2674 0.960 . S
H2662 C2674 0.959 . S
H2663 C2677 0.929 . S
H2664 C2678 0.931 . S
H2665 C2680 0.930 1_655 S
C2666 H2654 0.895 1_455 S
C2666 C2667 1.399 . S
C2666 C2671 1.399 . S
C2667 C2666 1.399 . S
C2667 C2668 1.376 . S
C2668 H2655 0.930 . S
C2668 C2667 1.376 . S
C2668 C2669 1.388 . S
C2669 H2656 0.930 . S
C2669 C2668 1.388 . S
C2669 C2670 1.390 . S
C2670 C2669 1.390 . S
C2670 C2671 1.394 . S
C2670 C2676 1.465 . S
C2671 C2666 1.399 . S
C2671 C2670 1.394 . S
C2671 C2672 1.516 . S
C2672 C2671 1.516 . S
C2672 C2673 1.502 1_455 S
C2672 C2674 1.561 . S
C2672 C2675 1.526 . S
C2673 H2657 0.959 . S
C2673 H2658 0.959 . S
C2673 H2659 0.961 . S
C2673 C2672 1.502 1_655 S
C2674 H2660 0.960 . S
C2674 H2661 0.960 . S
C2674 H2662 0.959 . S
C2674 C2672 1.561 . S
C2675 C2672 1.526 . S
C2675 C2676 1.396 . S
C2675 C2680 1.390 . S
C2676 C2670 1.465 . S
C2676 C2675 1.396 . S
C2676 C2677 1.399 . S
C2677 H2663 0.929 . S
C2677 C2676 1.399 . S
C2677 C2678 1.385 . S
C2678 H2664 0.931 . S
C2678 C2677 1.385 . S
C2678 C2679 1.389 . S
C2679 C2678 1.389 . S
C2679 C2680 1.387 . S
C2680 H2665 0.930 1_455 S
C2680 C2675 1.390 . S
C2680 C2679 1.387 . S
H2681 C2693 0.930 . S
H2682 C2695 0.930 . S
H2683 C2696 0.930 . S
H2684 C2700 0.959 . S
H2685 C2700 0.959 . S
H2686 C2700 0.961 . S
H2687 C2701 0.960 . S
H2688 C2701 0.961 . S
H2689 C2701 0.959 . S
H2690 C2704 0.929 . S
H2691 C2705 0.931 . S
H2692 C2707 0.930 . S
C2693 H2681 0.930 . S
C2693 C2694 1.399 . S
C2693 C2698 1.399 . S
C2694 C2693 1.399 . S
C2694 C2695 1.376 . S
C2695 H2682 0.930 . S
C2695 C2694 1.376 . S
C2695 C2696 1.388 . S
C2696 H2683 0.930 . S
C2696 C2695 1.388 . S
C2696 C2697 1.390 . S
C2697 C2696 1.390 . S
C2697 C2698 1.394 . S
C2697 C2703 1.465 . S
C2698 C2693 1.399 . S
C2698 C2697 1.394 . S
C2698 C2699 1.516 . S
C2699 C2698 1.516 . S
C2699 C2700 1.502 . S
C2699 C2701 1.561 . S
C2699 C2702 1.526 . S
C2700 H2684 0.959 . S
C2700 H2685 0.959 . S
C2700 H2686 0.961 . S
C2700 C2699 1.502 . S
C2701 H2687 0.960 . S
C2701 H2688 0.961 . S
C2701 H2689 0.959 . S
C2701 C2699 1.561 . S
C2702 C2699 1.526 . S
C2702 C2703 1.396 . S
C2702 C2707 1.390 . S
C2703 C2697 1.465 . S
C2703 C2702 1.396 . S
C2703 C2704 1.399 . S
C2704 H2690 0.929 . S
C2704 C2703 1.399 . S
C2704 C2705 1.385 . S
C2705 H2691 0.931 . S
C2705 C2704 1.385 . S
C2705 C2706 1.389 . S
C2706 C2705 1.389 . S
C2706 C2707 1.387 . S
C2707 H2692 0.930 . S
C2707 C2702 1.390 . S
C2707 C2706 1.387 . S
H2708 C2720 0.930 . S
H2709 C2722 0.930 . S
H2710 C2723 0.930 . S
H2711 C2727 0.959 . S
H2712 C2727 0.959 . S
H2713 C2727 0.961 . S
H2714 C2728 0.960 . S
H2715 C2728 0.961 . S
H2716 C2728 0.959 . S
H2717 C2731 0.929 . S
H2718 C2732 0.931 . S
H2719 C2734 0.930 . S
C2720 H2708 0.930 . S
C2720 C2721 1.399 . S
C2720 C2725 1.399 . S
C2721 C2720 1.399 . S
C2721 C2722 1.376 . S
C2722 H2709 0.930 . S
C2722 C2721 1.376 . S
C2722 C2723 1.388 . S
C2723 H2710 0.930 . S
C2723 C2722 1.388 . S
C2723 C2724 1.390 . S
C2724 C2723 1.390 . S
C2724 C2725 1.394 . S
C2724 C2730 1.465 . S
C2725 C2720 1.399 . S
C2725 C2724 1.394 . S
C2725 C2726 1.516 . S
C2726 C2725 1.516 . S
C2726 C2727 1.502 . S
C2726 C2728 1.561 . S
C2726 C2729 1.526 . S
C2727 H2711 0.959 . S
C2727 H2712 0.959 . S
C2727 H2713 0.961 . S
C2727 C2726 1.502 . S
C2728 H2714 0.960 . S
C2728 H2715 0.961 . S
C2728 H2716 0.959 . S
C2728 C2726 1.561 . S
C2729 C2726 1.526 . S
C2729 C2730 1.396 . S
C2729 C2734 1.390 . S
C2730 C2724 1.465 . S
C2730 C2729 1.396 . S
C2730 C2731 1.399 1_556 S
C2731 H2717 0.929 . S
C2731 C2730 1.399 1_554 S
C2731 C2732 1.385 . S
C2732 H2718 0.931 . S
C2732 C2731 1.385 . S
C2732 C2733 1.389 1_554 S
C2733 C2732 1.389 1_556 S
C2733 C2734 1.387 . S
C2734 H2719 0.930 . S
C2734 C2729 1.390 . S
C2734 C2733 1.387 . S
H2735 C2747 0.930 . S
H2736 C2749 0.930 . S
H2737 C2750 0.930 . S
H2738 C2754 0.959 . S
H2739 C2754 0.959 . S
H2740 C2754 0.961 . S
H2741 C2755 0.960 . S
H2742 C2755 0.961 . S
H2743 C2755 0.959 . S
H2744 C2758 0.929 . S
H2745 C2759 0.931 . S
H2746 C2761 0.930 . S
C2747 H2735 0.930 . S
C2747 C2748 1.399 . S
C2747 C2752 1.399 . S
C2748 C2747 1.399 . S
C2748 C2749 1.376 . S
C2749 H2736 0.930 . S
C2749 C2748 1.376 . S
C2749 C2750 1.388 . S
C2750 H2737 0.930 . S
C2750 C2749 1.388 . S
C2750 C2751 1.390 . S
C2751 C2750 1.390 . S
C2751 C2752 1.394 . S
C2751 C2757 1.465 . S
C2752 C2747 1.399 . S
C2752 C2751 1.394 . S
C2752 C2753 1.516 . S
C2753 C2752 1.516 . S
C2753 C2754 1.502 . S
C2753 C2755 1.561 . S
C2753 C2756 1.526 . S
C2754 H2738 0.959 . S
C2754 H2739 0.959 . S
C2754 H2740 0.961 . S
C2754 C2753 1.502 . S
C2755 H2741 0.960 . S
C2755 H2742 0.961 . S
C2755 H2743 0.959 . S
C2755 C2753 1.561 . S
C2756 C2753 1.526 . S
C2756 C2757 1.396 . S
C2756 C2761 1.390 . S
C2757 C2751 1.465 . S
C2757 C2756 1.396 . S
C2757 C2758 1.399 . S
C2758 H2744 0.929 . S
C2758 C2757 1.399 . S
C2758 C2759 1.385 . S
C2759 H2745 0.931 . S
C2759 C2758 1.385 . S
C2759 C2760 1.389 . S
C2760 C2759 1.389 . S
C2760 C2761 1.387 . S
C2761 H2746 0.930 . S
C2761 C2756 1.390 . S
C2761 C2760 1.387 . S
H2762 C2774 0.930 . S
H2763 C2776 0.930 . S
H2764 C2777 0.930 . S
H2765 C2781 0.959 . S
H2766 C2781 0.959 . S
H2767 C2781 0.961 . S
H2768 C2782 0.960 . S
H2769 C2782 0.961 . S
H2770 C2782 0.959 1_655 S
H2771 C2785 0.929 . S
H2772 C2786 0.931 . S
H2773 C2788 0.930 . S
C2774 H2762 0.930 . S
C2774 C2775 1.399 . S
C2774 C2779 1.399 . S
C2775 C2774 1.399 . S
C2775 C2776 1.376 . S
C2776 H2763 0.930 . S
C2776 C2775 1.376 . S
C2776 C2777 1.388 . S
C2777 H2764 0.930 . S
C2777 C2776 1.388 . S
C2777 C2778 1.390 . S
C2778 C2777 1.390 . S
C2778 C2779 1.394 . S
C2778 C2784 1.465 . S
C2779 C2774 1.399 . S
C2779 C2778 1.394 . S
C2779 C2780 1.516 . S
C2780 C2779 1.516 . S
C2780 C2781 1.502 . S
C2780 C2782 1.561 . S
C2780 C2783 1.526 . S
C2781 H2765 0.959 . S
C2781 H2766 0.959 . S
C2781 H2767 0.961 . S
C2781 C2780 1.502 . S
C2782 H2768 0.960 . S
C2782 H2769 0.961 . S
C2782 H2770 0.959 1_455 S
C2782 C2780 1.561 . S
C2783 C2780 1.526 . S
C2783 C2784 1.396 . S
C2783 C2788 1.390 . S
C2784 C2778 1.465 . S
C2784 C2783 1.396 . S
C2784 C2785 1.399 . S
C2785 H2771 0.929 . S
C2785 C2784 1.399 . S
C2785 C2786 1.385 . S
C2786 H2772 0.931 . S
C2786 C2785 1.385 . S
C2786 C2787 1.389 . S
C2787 C2786 1.389 . S
C2787 C2788 1.387 . S
C2788 H2773 0.930 . S
C2788 C2783 1.390 . S
C2788 C2787 1.387 . S
H2789 C2801 0.930 . S
H2790 C2803 0.930 . S
H2791 C2804 0.930 . S
H2792 C2808 0.959 . S
H2793 C2808 0.959 . S
H2794 C2808 0.961 . S
H2795 C2809 0.960 . S
H2796 C2809 0.961 . S
H2797 C2809 0.959 . S
H2798 C2812 0.929 . S
H2799 C2813 0.931 . S
H2800 C2815 0.930 . S
C2801 H2789 0.930 . S
C2801 C2802 1.399 . S
C2801 C2806 1.399 . S
C2802 C2801 1.399 . S
C2802 C2803 1.376 . S
C2803 H2790 0.930 . S
C2803 C2802 1.376 . S
C2803 C2804 1.388 . S
C2804 H2791 0.930 . S
C2804 C2803 1.388 . S
C2804 C2805 1.390 . S
C2805 C2804 1.390 . S
C2805 C2806 1.394 . S
C2805 C2811 1.465 . S
C2806 C2801 1.399 . S
C2806 C2805 1.394 . S
C2806 C2807 1.516 . S
C2807 C2806 1.516 . S
C2807 C2808 1.502 . S
C2807 C2809 1.561 . S
C2807 C2810 1.526 . S
C2808 H2792 0.959 . S
C2808 H2793 0.959 . S
C2808 H2794 0.961 . S
C2808 C2807 1.502 . S
C2809 H2795 0.960 . S
C2809 H2796 0.961 . S
C2809 H2797 0.959 . S
C2809 C2807 1.561 . S
C2810 C2807 1.526 . S
C2810 C2811 1.396 . S
C2810 C2815 1.390 . S
C2811 C2805 1.465 . S
C2811 C2810 1.396 . S
C2811 C2812 1.399 . S
C2812 H2798 0.929 . S
C2812 C2811 1.399 . S
C2812 C2813 1.385 . S
C2813 H2799 0.931 . S
C2813 C2812 1.385 . S
C2813 C2814 1.389 . S
C2814 C2813 1.389 . S
C2814 C2815 1.387 . S
C2815 H2800 0.930 . S
C2815 C2810 1.390 . S
C2815 C2814 1.387 . S
H2816 C2828 0.930 . S
H2817 C2830 0.930 . S
H2818 C2831 0.930 . S
H2819 C2835 0.959 . S
H2820 C2835 0.959 . S
H2821 C2835 0.961 . S
H2822 C2836 0.960 . S
H2823 C2836 0.961 . S
H2824 C2836 0.959 . S
H2825 C2839 0.929 . S
H2826 C2840 0.931 . S
H2827 C2842 0.930 . S
C2828 H2816 0.930 . S
C2828 C2829 1.399 . S
C2828 C2833 1.399 . S
C2829 C2828 1.399 . S
C2829 C2830 1.376 . S
C2830 H2817 0.930 . S
C2830 C2829 1.376 . S
C2830 C2831 1.388 . S
C2831 H2818 0.930 . S
C2831 C2830 1.388 . S
C2831 C2832 1.390 . S
C2832 C2831 1.390 . S
C2832 C2833 1.394 . S
C2832 C2838 1.465 . S
C2833 C2828 1.399 . S
C2833 C2832 1.394 . S
C2833 C2834 1.516 . S
C2834 C2833 1.516 . S
C2834 C2835 1.502 . S
C2834 C2836 1.561 . S
C2834 C2837 1.526 . S
C2835 H2819 0.959 . S
C2835 H2820 0.959 . S
C2835 H2821 0.961 . S
C2835 C2834 1.502 . S
C2836 H2822 0.960 . S
C2836 H2823 0.961 . S
C2836 H2824 0.959 . S
C2836 C2834 1.561 . S
C2837 C2834 1.526 . S
C2837 C2838 1.396 . S
C2837 C2842 1.390 . S
C2838 C2832 1.465 . S
C2838 C2837 1.396 . S
C2838 C2839 1.399 . S
C2839 H2825 0.929 . S
C2839 C2838 1.399 . S
C2839 C2840 1.385 . S
C2840 H2826 0.931 . S
C2840 C2839 1.385 . S
C2840 C2841 1.389 . S
C2841 C2840 1.389 . S
C2841 C2842 1.387 . S
C2842 H2827 0.930 . S
C2842 C2837 1.390 . S
C2842 C2841 1.387 . S
H2843 C2855 0.930 . S
H2844 C2857 0.930 . S
H2845 C2858 0.930 . S
H2846 C2862 0.959 . S
H2847 C2862 0.959 . S
H2848 C2862 0.961 . S
H2849 C2863 0.960 . S
H2850 C2863 0.961 . S
H2851 C2863 0.959 . S
H2852 C2866 0.929 . S
H2853 C2867 0.931 . S
H2854 C2869 0.930 . S
C2855 H2843 0.930 . S
C2855 C2856 1.399 . S
C2855 C2860 1.399 . S
C2856 C2855 1.399 . S
C2856 C2857 1.376 . S
C2857 H2844 0.930 . S
C2857 C2856 1.376 . S
C2857 C2858 1.388 . S
C2858 H2845 0.930 . S
C2858 C2857 1.388 . S
C2858 C2859 1.390 . S
C2859 C2858 1.390 . S
C2859 C2860 1.394 . S
C2859 C2865 1.465 . S
C2860 C2855 1.399 . S
C2860 C2859 1.394 . S
C2860 C2861 1.516 . S
C2861 C2860 1.516 . S
C2861 C2862 1.502 . S
C2861 C2863 1.561 . S
C2861 C2864 1.526 . S
C2862 H2846 0.959 . S
C2862 H2847 0.959 . S
C2862 H2848 0.961 . S
C2862 C2861 1.502 . S
C2863 H2849 0.960 . S
C2863 H2850 0.961 . S
C2863 H2851 0.959 . S
C2863 C2861 1.561 . S
C2864 C2861 1.526 . S
C2864 C2865 1.396 . S
C2864 C2869 1.390 . S
C2865 C2859 1.465 . S
C2865 C2864 1.396 . S
C2865 C2866 1.399 . S
C2866 H2852 0.929 . S
C2866 C2865 1.399 . S
C2866 C2867 1.385 . S
C2867 H2853 0.931 . S
C2867 C2866 1.385 . S
C2867 C2868 1.389 . S
C2868 C2867 1.389 . S
C2868 C2869 1.387 . S
C2869 H2854 0.930 . S
C2869 C2864 1.390 . S
C2869 C2868 1.387 . S
H2870 C2882 0.930 . S
H2871 C2884 0.930 . S
H2872 C2885 0.950 . S
H2873 C2889 0.959 . S
H2874 C2889 0.959 . S
H2875 C2889 0.961 . S
H2876 C2890 0.960 . S
H2877 C2890 0.961 . S
H2878 C2890 0.959 . S
H2879 C2893 0.929 . S
H2880 C2894 0.931 . S
H2881 C2896 0.930 . S
C2882 H2870 0.930 . S
C2882 C2883 1.399 . S
C2882 C2887 1.399 . S
C2883 C2882 1.399 . S
C2883 C2884 1.376 . S
C2884 H2871 0.930 . S
C2884 C2883 1.376 . S
C2884 C2885 1.388 . S
C2885 H2872 0.950 . S
C2885 C2884 1.388 . S
C2885 C2886 1.390 . S
C2886 C2885 1.390 . S
C2886 C2887 1.394 . S
C2886 C2892 1.465 . S
C2887 C2882 1.399 . S
C2887 C2886 1.394 . S
C2887 C2888 1.516 . S
C2888 C2887 1.516 . S
C2888 C2889 1.502 . S
C2888 C2890 1.561 . S
C2888 C2891 1.526 . S
C2889 H2873 0.959 . S
C2889 H2874 0.959 . S
C2889 H2875 0.961 . S
C2889 C2888 1.502 . S
C2890 H2876 0.960 . S
C2890 H2877 0.961 . S
C2890 H2878 0.959 . S
C2890 C2888 1.561 . S
C2891 C2888 1.526 . S
C2891 C2892 1.396 . S
C2891 C2896 1.390 . S
C2892 C2886 1.465 . S
C2892 C2891 1.396 . S
C2892 C2893 1.399 1_655 S
C2893 H2879 0.929 . S
C2893 C2892 1.399 1_455 S
C2893 C2894 1.385 . S
C2894 H2880 0.931 . S
C2894 C2893 1.385 . S
C2894 C2895 1.389 1_455 S
C2895 C2894 1.389 1_655 S
C2895 C2896 1.387 . S
C2896 H2881 0.930 . S
C2896 C2891 1.390 . S
C2896 C2895 1.387 . S
H2897 C2909 0.930 . S
H2898 C2911 0.930 . S
H2899 C2912 0.930 . S
H2900 C2916 0.959 . S
H2901 C2916 0.959 . S
H2902 C2916 0.961 . S
H2903 C2917 0.960 . S
H2904 C2917 0.961 . S
H2905 C2917 0.959 . S
H2906 C2920 0.929 . S
H2907 C2921 0.931 . S
H2908 C2923 0.930 . S
C2909 H2897 0.930 . S
C2909 C2910 1.399 . S
C2909 C2914 1.399 . S
C2910 C2909 1.399 . S
C2910 C2911 1.376 . S
C2911 H2898 0.930 . S
C2911 C2910 1.376 . S
C2911 C2912 1.388 . S
C2912 H2899 0.930 . S
C2912 C2911 1.388 . S
C2912 C2913 1.390 . S
C2913 C2912 1.390 . S
C2913 C2914 1.394 . S
C2913 C2919 1.465 . S
C2914 C2909 1.399 . S
C2914 C2913 1.394 . S
C2914 C2915 1.516 . S
C2915 C2914 1.516 . S
C2915 C2916 1.502 . S
C2915 C2917 1.561 . S
C2915 C2918 1.526 . S
C2916 H2900 0.959 . S
C2916 H2901 0.959 . S
C2916 H2902 0.961 . S
C2916 C2915 1.502 . S
C2917 H2903 0.960 . S
C2917 H2904 0.961 . S
C2917 H2905 0.959 . S
C2917 C2915 1.561 . S
C2918 C2915 1.526 . S
C2918 C2919 1.396 . S
C2918 C2923 1.390 . S
C2919 C2913 1.465 . S
C2919 C2918 1.396 . S
C2919 C2920 1.399 . S
C2920 H2906 0.929 . S
C2920 C2919 1.399 . S
C2920 C2921 1.385 . S
C2921 H2907 0.931 . S
C2921 C2920 1.385 . S
C2921 C2922 1.389 . S
C2922 C2921 1.389 . S
C2922 C2923 1.387 . S
C2923 H2908 0.930 . S
C2923 C2918 1.390 . S
C2923 C2922 1.387 . S
H2924 C2936 0.930 . S
H2925 C2938 0.930 . S
H2926 C2939 0.930 . S
H2927 C2943 0.959 . S
H2928 C2943 0.959 . S
H2929 C2943 0.961 . S
H2930 C2944 0.960 . S
H2931 C2944 0.961 . S
H2932 C2944 0.959 . S
H2933 C2947 0.929 . S
H2934 C2948 0.931 . S
H2935 C2950 0.930 . S
C2936 H2924 0.930 . S
C2936 C2937 1.399 . S
C2936 C2941 1.399 . S
C2937 C2936 1.399 . S
C2937 C2938 1.376 . S
C2938 H2925 0.930 . S
C2938 C2937 1.376 . S
C2938 C2939 1.388 . S
C2939 H2926 0.930 . S
C2939 C2938 1.388 . S
C2939 C2940 1.390 . S
C2940 C2939 1.390 . S
C2940 C2941 1.394 . S
C2940 C2946 1.465 . S
C2941 C2936 1.399 . S
C2941 C2940 1.394 . S
C2941 C2942 1.516 . S
C2942 C2941 1.516 . S
C2942 C2943 1.502 . S
C2942 C2944 1.561 . S
C2942 C2945 1.526 . S
C2943 H2927 0.959 . S
C2943 H2928 0.959 . S
C2943 H2929 0.961 . S
C2943 C2942 1.502 . S
C2944 H2930 0.960 . S
C2944 H2931 0.961 . S
C2944 H2932 0.959 . S
C2944 C2942 1.561 . S
C2945 C2942 1.526 . S
C2945 C2946 1.396 . S
C2945 C2950 1.390 . S
C2946 C2940 1.465 . S
C2946 C2945 1.396 . S
C2946 C2947 1.399 . S
C2947 H2933 0.929 . S
C2947 C2946 1.399 . S
C2947 C2948 1.385 . S
C2948 H2934 0.931 . S
C2948 C2947 1.385 . S
C2948 C2949 1.389 . S
C2949 C2948 1.389 . S
C2949 C2950 1.387 . S
C2950 H2935 0.930 . S
C2950 C2945 1.390 . S
C2950 C2949 1.387 . S
H2951 C2963 0.930 . S
H2952 C2965 0.930 . S
H2953 C2966 0.930 . S
H2954 C2970 0.959 . S
H2955 C2970 0.959 . S
H2956 C2970 0.961 . S
H2957 C2971 0.960 . S
H2958 C2971 0.961 . S
H2959 C2971 0.959 . S
H2960 C2974 0.929 . S
H2961 C2975 0.931 . S
H2962 C2977 0.930 . S
C2963 H2951 0.930 . S
C2963 C2964 1.399 . S
C2963 C2968 1.399 . S
C2964 C2963 1.399 . S
C2964 C2965 1.376 . S
C2965 H2952 0.930 . S
C2965 C2964 1.376 . S
C2965 C2966 1.388 . S
C2966 H2953 0.930 . S
C2966 C2965 1.388 . S
C2966 C2967 1.390 . S
C2967 C2966 1.390 . S
C2967 C2968 1.394 . S
C2967 C2973 1.465 . S
C2968 C2963 1.399 . S
C2968 C2967 1.394 . S
C2968 C2969 1.516 . S
C2969 C2968 1.516 . S
C2969 C2970 1.502 . S
C2969 C2971 1.561 . S
C2969 C2972 1.526 . S
C2970 H2954 0.959 . S
C2970 H2955 0.959 . S
C2970 H2956 0.961 . S
C2970 C2969 1.502 . S
C2971 H2957 0.960 . S
C2971 H2958 0.961 . S
C2971 H2959 0.959 . S
C2971 C2969 1.561 . S
C2972 C2969 1.526 . S
C2972 C2973 1.396 . S
C2972 C2977 1.390 . S
C2973 C2967 1.465 . S
C2973 C2972 1.396 . S
C2973 C2974 1.399 . S
C2974 H2960 0.929 . S
C2974 C2973 1.399 . S
C2974 C2975 1.385 . S
C2975 H2961 0.931 . S
C2975 C2974 1.385 . S
C2975 C2976 1.389 . S
C2976 C2975 1.389 . S
C2976 C2977 1.387 . S
C2977 H2962 0.930 . S
C2977 C2972 1.390 . S
C2977 C2976 1.387 . S
H2978 C2990 0.930 . S
H2979 C2992 0.930 . S
H2980 C2993 0.930 . S
H2981 C2997 0.959 . S
H2982 C2997 0.959 . S
H2983 C2997 0.961 . S
H2984 C2998 0.960 . S
H2985 C2998 0.961 . S
H2986 C2998 0.959 . S
H2987 C3001 0.929 . S
H2988 C3002 0.931 . S
H2989 C3004 0.930 . S
C2990 H2978 0.930 . S
C2990 C2991 1.399 . S
C2990 C2995 1.399 . S
C2991 C2990 1.399 . S
C2991 C2992 1.376 . S
C2992 H2979 0.930 . S
C2992 C2991 1.376 . S
C2992 C2993 1.388 . S
C2993 H2980 0.930 . S
C2993 C2992 1.388 . S
C2993 C2994 1.390 . S
C2994 C2993 1.390 . S
C2994 C2995 1.394 . S
C2994 C3000 1.465 . S
C2995 C2990 1.399 . S
C2995 C2994 1.394 . S
C2995 C2996 1.516 . S
C2996 C2995 1.516 . S
C2996 C2997 1.502 . S
C2996 C2998 1.561 . S
C2996 C2999 1.526 . S
C2997 H2981 0.959 . S
C2997 H2982 0.959 . S
C2997 H2983 0.961 . S
C2997 C2996 1.502 . S
C2998 H2984 0.960 . S
C2998 H2985 0.961 . S
C2998 H2986 0.959 . S
C2998 C2996 1.561 . S
C2999 C2996 1.526 . S
C2999 C3000 1.396 . S
C2999 C3004 1.390 . S
C3000 C2994 1.465 . S
C3000 C2999 1.396 . S
C3000 C3001 1.399 . S
C3001 H2987 0.929 . S
C3001 C3000 1.399 . S
C3001 C3002 1.385 . S
C3002 H2988 0.931 . S
C3002 C3001 1.385 . S
C3002 C3003 1.389 . S
C3003 C3002 1.389 . S
C3003 C3004 1.387 . S
C3004 H2989 0.930 . S
C3004 C2999 1.390 . S
C3004 C3003 1.387 . S
H3005 C3017 0.930 . S
H3006 C3019 0.930 . S
H3007 C3020 0.930 . S
H3008 C3024 0.959 . S
H3009 C3024 0.959 . S
H3010 C3024 0.961 . S
H3011 C3025 0.960 . S
H3012 C3025 0.961 . S
H3013 C3025 0.959 . S
H3014 C3028 0.929 . S
H3015 C3029 0.931 . S
H3016 C3031 0.930 . S
C3017 H3005 0.930 . S
C3017 C3018 1.399 . S
C3017 C3022 1.399 . S
C3018 C3017 1.399 . S
C3018 C3019 1.376 . S
C3019 H3006 0.930 . S
C3019 C3018 1.376 . S
C3019 C3020 1.388 . S
C3020 H3007 0.930 . S
C3020 C3019 1.388 . S
C3020 C3021 1.390 . S
C3021 C3020 1.390 . S
C3021 C3022 1.394 . S
C3021 C3027 1.465 . S
C3022 C3017 1.399 . S
C3022 C3021 1.394 . S
C3022 C3023 1.516 . S
C3023 C3022 1.516 . S
C3023 C3024 1.502 . S
C3023 C3025 1.561 . S
C3023 C3026 1.526 . S
C3024 H3008 0.959 . S
C3024 H3009 0.959 . S
C3024 H3010 0.961 . S
C3024 C3023 1.502 . S
C3025 H3011 0.960 . S
C3025 H3012 0.961 . S
C3025 H3013 0.959 . S
C3025 C3023 1.561 . S
C3026 C3023 1.526 . S
C3026 C3027 1.396 . S
C3026 C3031 1.390 . S
C3027 C3021 1.465 . S
C3027 C3026 1.396 . S
C3027 C3028 1.399 . S
C3028 H3014 0.929 . S
C3028 C3027 1.399 . S
C3028 C3029 1.385 . S
C3029 H3015 0.931 . S
C3029 C3028 1.385 . S
C3029 C3030 1.389 . S
C3030 C3029 1.389 . S
C3030 C3031 1.387 . S
C3031 H3016 0.930 . S
C3031 C3026 1.390 . S
C3031 C3030 1.387 . S
H3032 C3044 0.930 . S
H3033 C3046 0.930 . S
H3034 C3047 0.930 . S
H3035 C3051 0.959 . S
H3036 C3051 0.959 . S
H3037 C3051 0.961 . S
H3038 C3052 0.960 . S
H3039 C3052 0.961 . S
H3040 C3052 0.959 . S
H3041 C3055 0.929 . S
H3042 C3056 0.931 . S
H3043 C3058 0.930 . S
C3044 H3032 0.930 . S
C3044 C3045 1.399 . S
C3044 C3049 1.399 . S
C3045 C3044 1.399 . S
C3045 C3046 1.376 . S
C3046 H3033 0.930 . S
C3046 C3045 1.376 . S
C3046 C3047 1.388 . S
C3047 H3034 0.930 . S
C3047 C3046 1.388 . S
C3047 C3048 1.390 . S
C3048 C3047 1.390 . S
C3048 C3049 1.394 . S
C3048 C3054 1.465 . S
C3049 C3044 1.399 . S
C3049 C3048 1.394 . S
C3049 C3050 1.516 . S
C3050 C3049 1.516 . S
C3050 C3051 1.502 . S
C3050 C3052 1.561 . S
C3050 C3053 1.526 . S
C3051 H3035 0.959 . S
C3051 H3036 0.959 . S
C3051 H3037 0.961 . S
C3051 C3050 1.502 . S
C3052 H3038 0.960 . S
C3052 H3039 0.961 . S
C3052 H3040 0.959 . S
C3052 C3050 1.561 . S
C3053 C3050 1.526 . S
C3053 C3054 1.396 . S
C3053 C3058 1.390 . S
C3054 C3048 1.465 . S
C3054 C3053 1.396 . S
C3054 C3055 1.399 . S
C3055 H3041 0.929 . S
C3055 C3054 1.399 . S
C3055 C3056 1.385 . S
C3056 H3042 0.931 . S
C3056 C3055 1.385 . S
C3056 C3057 1.389 . S
C3057 C3056 1.389 . S
C3057 C3058 1.387 . S
C3058 H3043 0.930 . S
C3058 C3053 1.390 . S
C3058 C3057 1.387 . S
H3059 C3071 0.930 . S
H3060 C3073 0.930 . S
H3061 C3074 0.930 . S
H3062 C3078 0.959 . S
H3063 C3078 0.959 . S
H3064 C3078 0.961 . S
H3065 C3079 0.960 . S
H3066 C3079 0.961 . S
H3067 C3079 0.959 . S
H3068 C3082 0.929 . S
H3069 C3083 0.931 . S
H3070 C3085 0.930 1_545 S
C3071 H3059 0.930 . S
C3071 C3072 1.399 . S
C3071 C3076 1.399 . S
C3072 C3071 1.399 . S
C3072 C3073 1.376 . S
C3073 H3060 0.930 . S
C3073 C3072 1.376 . S
C3073 C3074 1.388 . S
C3074 H3061 0.930 . S
C3074 C3073 1.388 . S
C3074 C3075 1.390 . S
C3075 C3074 1.390 . S
C3075 C3076 1.394 . S
C3075 C3081 1.465 . S
C3076 C3071 1.399 . S
C3076 C3075 1.394 . S
C3076 C3077 1.516 . S
C3077 C3076 1.516 . S
C3077 C3078 1.502 1_565 S
C3077 C3079 1.561 . S
C3077 C3080 1.526 . S
C3078 H3062 0.959 . S
C3078 H3063 0.959 . S
C3078 H3064 0.961 . S
C3078 C3077 1.502 1_545 S
C3079 H3065 0.960 . S
C3079 H3066 0.961 . S
C3079 H3067 0.959 . S
C3079 C3077 1.561 . S
C3080 C3077 1.526 . S
C3080 C3081 1.396 . S
C3080 C3085 1.390 . S
C3081 C3075 1.465 . S
C3081 C3080 1.396 . S
C3081 C3082 1.399 . S
C3082 H3068 0.929 . S
C3082 C3081 1.399 . S
C3082 C3083 1.385 . S
C3083 H3069 0.931 . S
C3083 C3082 1.385 . S
C3083 C3084 1.389 . S
C3084 C3083 1.389 . S
C3084 C3085 1.387 . S
C3085 H3070 0.930 1_565 S
C3085 C3080 1.390 . S
C3085 C3084 1.387 . S
H3086 C3098 0.930 . S
H3087 C3100 0.930 . S
H3088 C3101 0.930 . S
H3089 C3105 0.959 . S
H3090 C3105 0.959 . S
H3091 C3105 0.961 . S
H3092 C3106 0.960 . S
H3093 C3106 0.961 . S
H3094 C3106 0.959 . S
H3095 C3109 0.929 . S
H3096 C3110 0.931 . S
H3097 C3112 0.930 . S
C3098 H3086 0.930 . S
C3098 C3099 1.399 . S
C3098 C3103 1.399 . S
C3099 C3098 1.399 . S
C3099 C3100 1.376 . S
C3100 H3087 0.930 . S
C3100 C3099 1.376 . S
C3100 C3101 1.388 . S
C3101 H3088 0.930 . S
C3101 C3100 1.388 . S
C3101 C3102 1.390 . S
C3102 C3101 1.390 . S
C3102 C3103 1.394 . S
C3102 C3108 1.465 . S
C3103 C3098 1.399 . S
C3103 C3102 1.394 . S
C3103 C3104 1.516 . S
C3104 C3103 1.516 . S
C3104 C3105 1.502 . S
C3104 C3106 1.561 . S
C3104 C3107 1.526 . S
C3105 H3089 0.959 . S
C3105 H3090 0.959 . S
C3105 H3091 0.961 . S
C3105 C3104 1.502 . S
C3106 H3092 0.960 . S
C3106 H3093 0.961 . S
C3106 H3094 0.959 . S
C3106 C3104 1.561 . S
C3107 C3104 1.526 . S
C3107 C3108 1.396 . S
C3107 C3112 1.390 . S
C3108 C3102 1.465 . S
C3108 C3107 1.396 . S
C3108 C3109 1.399 . S
C3109 H3095 0.929 . S
C3109 C3108 1.399 . S
C3109 C3110 1.385 . S
C3110 H3096 0.931 . S
C3110 C3109 1.385 . S
C3110 C3111 1.389 . S
C3111 C3110 1.389 . S
C3111 C3112 1.387 . S
C3112 H3097 0.930 . S
C3112 C3107 1.390 . S
C3112 C3111 1.387 . S
H3113 C3125 0.930 1_556 S
H3114 C3127 0.930 . S
H3115 C3128 0.930 . S
H3116 C3132 0.959 . S
H3117 C3132 0.959 . S
H3118 C3132 0.961 . S
H3119 C3133 0.960 . S
H3120 C3133 0.961 . S
H3121 C3133 0.959 . S
H3122 C3136 0.929 . S
H3123 C3137 0.931 . S
H3124 C3139 0.930 1_556 S
C3125 H3113 0.930 1_554 S
C3125 C3126 1.399 . S
C3125 C3130 1.399 . S
C3126 C3125 1.399 . S
C3126 C3127 1.376 . S
C3127 H3114 0.930 . S
C3127 C3126 1.376 . S
C3127 C3128 1.388 . S
C3128 H3115 0.930 . S
C3128 C3127 1.388 . S
C3128 C3129 1.390 . S
C3129 C3128 1.390 . S
C3129 C3130 1.394 . S
C3129 C3135 1.465 . S
C3130 C3125 1.399 . S
C3130 C3129 1.394 . S
C3130 C3131 1.516 1_554 S
C3131 C3130 1.516 1_556 S
C3131 C3132 1.502 . S
C3131 C3133 1.561 . S
C3131 C3134 1.526 1_556 S
C3132 H3116 0.959 . S
C3132 H3117 0.959 . S
C3132 H3118 0.961 . S
C3132 C3131 1.502 . S
C3133 H3119 0.960 . S
C3133 H3120 0.961 . S
C3133 H3121 0.959 . S
C3133 C3131 1.561 . S
C3134 C3131 1.526 1_554 S
C3134 C3135 1.396 . S
C3134 C3139 1.390 . S
C3135 C3129 1.465 . S
C3135 C3134 1.396 . S
C3135 C3136 1.399 . S
C3136 H3122 0.929 . S
C3136 C3135 1.399 . S
C3136 C3137 1.385 . S
C3137 H3123 0.931 . S
C3137 C3136 1.385 . S
C3137 C3138 1.389 . S
C3138 C3137 1.389 . S
C3138 C3139 1.387 . S
C3139 H3124 0.930 1_554 S
C3139 C3134 1.390 . S
C3139 C3138 1.387 . S
H3140 C3152 0.930 . S
H3141 C3154 0.930 . S
H3142 C3155 0.930 . S
H3143 C3159 0.959 . S
H3144 C3159 0.959 . S
H3145 C3159 0.961 . S
H3146 C3160 0.960 . S
H3147 C3160 0.961 . S
H3148 C3160 0.959 . S
H3149 C3163 0.929 . S
H3150 C3164 0.931 . S
H3151 C3166 0.930 . S
C3152 H3140 0.930 . S
C3152 C3153 1.399 . S
C3152 C3157 1.399 . S
C3153 C3152 1.399 . S
C3153 C3154 1.376 . S
C3154 H3141 0.930 . S
C3154 C3153 1.376 . S
C3154 C3155 1.388 . S
C3155 H3142 0.930 . S
C3155 C3154 1.388 . S
C3155 C3156 1.390 . S
C3156 C3155 1.390 . S
C3156 C3157 1.394 . S
C3156 C3162 1.465 . S
C3157 C3152 1.399 . S
C3157 C3156 1.394 . S
C3157 C3158 1.516 . S
C3158 C3157 1.516 . S
C3158 C3159 1.502 . S
C3158 C3160 1.561 . S
C3158 C3161 1.526 . S
C3159 H3143 0.959 . S
C3159 H3144 0.959 . S
C3159 H3145 0.961 . S
C3159 C3158 1.502 . S
C3160 H3146 0.960 . S
C3160 H3147 0.961 . S
C3160 H3148 0.959 . S
C3160 C3158 1.561 . S
C3161 C3158 1.526 . S
C3161 C3162 1.396 . S
C3161 C3166 1.390 . S
C3162 C3156 1.465 . S
C3162 C3161 1.396 . S
C3162 C3163 1.399 . S
C3163 H3149 0.929 . S
C3163 C3162 1.399 . S
C3163 C3164 1.385 . S
C3164 H3150 0.931 . S
C3164 C3163 1.385 . S
C3164 C3165 1.389 . S
C3165 C3164 1.389 . S
C3165 C3166 1.387 . S
C3166 H3151 0.930 . S
C3166 C3161 1.390 . S
C3166 C3165 1.387 . S
H3167 C3179 0.930 . S
H3168 C3181 0.930 . S
H3169 C3182 0.930 . S
H3170 C3186 0.959 1_554 S
H3171 C3186 0.959 . S
H3172 C3186 0.961 . S
H3173 C3187 0.960 . S
H3174 C3187 0.961 . S
H3175 C3187 0.959 . S
H3176 C3190 0.929 . S
H3177 C3191 0.931 . S
H3178 C3193 0.930 1_556 S
C3179 H3167 0.930 . S
C3179 C3180 1.399 . S
C3179 C3184 1.399 . S
C3180 C3179 1.399 . S
C3180 C3181 1.376 . S
C3181 H3168 0.930 . S
C3181 C3180 1.376 . S
C3181 C3182 1.388 . S
C3182 H3169 0.930 . S
C3182 C3181 1.388 . S
C3182 C3183 1.390 . S
C3183 C3182 1.390 . S
C3183 C3184 1.394 . S
C3183 C3189 1.465 . S
C3184 C3179 1.399 . S
C3184 C3183 1.394 . S
C3184 C3185 1.516 1_554 S
C3185 C3184 1.516 1_556 S
C3185 C3186 1.502 . S
C3185 C3187 1.561 . S
C3185 C3188 1.526 1_556 S
C3186 H3170 0.959 1_556 S
C3186 H3171 0.959 . S
C3186 H3172 0.961 . S
C3186 C3185 1.502 . S
C3187 H3173 0.960 . S
C3187 H3174 0.961 . S
C3187 H3175 0.959 . S
C3187 C3185 1.561 . S
C3188 C3185 1.526 1_554 S
C3188 C3189 1.396 . S
C3188 C3193 1.390 . S
C3189 C3183 1.465 . S
C3189 C3188 1.396 . S
C3189 C3190 1.399 . S
C3190 H3176 0.929 . S
C3190 C3189 1.399 . S
C3190 C3191 1.385 . S
C3191 H3177 0.931 . S
C3191 C3190 1.385 . S
C3191 C3192 1.389 . S
C3192 C3191 1.389 . S
C3192 C3193 1.387 . S
C3193 H3178 0.930 1_554 S
C3193 C3188 1.390 . S
C3193 C3192 1.387 . S
H3194 C3206 0.930 . S
H3195 C3208 0.930 . S
H3196 C3209 0.930 . S
H3197 C3213 0.959 . S
H3198 C3213 0.959 . S
H3199 C3213 0.961 . S
H3200 C3214 0.960 . S
H3201 C3214 0.961 . S
H3202 C3214 0.959 . S
H3203 C3217 0.929 . S
H3204 C3218 0.931 . S
H3205 C3220 0.930 . S
C3206 H3194 0.930 . S
C3206 C3207 1.399 . S
C3206 C3211 1.399 . S
C3207 C3206 1.399 . S
C3207 C3208 1.376 . S
C3208 H3195 0.930 . S
C3208 C3207 1.376 . S
C3208 C3209 1.388 . S
C3209 H3196 0.930 . S
C3209 C3208 1.388 . S
C3209 C3210 1.390 . S
C3210 C3209 1.390 . S
C3210 C3211 1.394 . S
C3210 C3216 1.465 . S
C3211 C3206 1.399 . S
C3211 C3210 1.394 . S
C3211 C3212 1.516 . S
C3212 C3211 1.516 . S
C3212 C3213 1.502 . S
C3212 C3214 1.561 . S
C3212 C3215 1.526 . S
C3213 H3197 0.959 . S
C3213 H3198 0.959 . S
C3213 H3199 0.961 . S
C3213 C3212 1.502 . S
C3214 H3200 0.960 . S
C3214 H3201 0.961 . S
C3214 H3202 0.959 . S
C3214 C3212 1.561 . S
C3215 C3212 1.526 . S
C3215 C3216 1.396 . S
C3215 C3220 1.390 . S
C3216 C3210 1.465 . S
C3216 C3215 1.396 . S
C3216 C3217 1.399 . S
C3217 H3203 0.929 . S
C3217 C3216 1.399 . S
C3217 C3218 1.385 . S
C3218 H3204 0.931 . S
C3218 C3217 1.385 . S
C3218 C3219 1.389 . S
C3219 C3218 1.389 . S
C3219 C3220 1.387 . S
C3220 H3205 0.930 . S
C3220 C3215 1.390 . S
C3220 C3219 1.387 . S
H3221 C3233 0.930 . S
H3222 C3235 0.930 . S
H3223 C3236 0.930 . S
H3224 C3240 0.959 . S
H3225 C3240 0.959 . S
H3226 C3240 0.961 . S
H3227 C3241 0.960 . S
H3228 C3241 0.961 . S
H3229 C3241 0.959 . S
H3230 C3244 0.929 . S
H3231 C3245 0.931 . S
H3232 C3247 0.930 . S
C3233 H3221 0.930 . S
C3233 C3234 1.399 . S
C3233 C3238 1.399 . S
C3234 C3233 1.399 . S
C3234 C3235 1.376 . S
C3235 H3222 0.930 . S
C3235 C3234 1.376 . S
C3235 C3236 1.388 . S
C3236 H3223 0.930 . S
C3236 C3235 1.388 . S
C3236 C3237 1.390 . S
C3237 C3236 1.390 . S
C3237 C3238 1.394 . S
C3237 C3243 1.465 . S
C3238 C3233 1.399 . S
C3238 C3237 1.394 . S
C3238 C3239 1.516 . S
C3239 C3238 1.516 . S
C3239 C3240 1.502 . S
C3239 C3241 1.561 . S
C3239 C3242 1.526 . S
C3240 H3224 0.959 . S
C3240 H3225 0.959 . S
C3240 H3226 0.961 . S
C3240 C3239 1.502 . S
C3241 H3227 0.960 . S
C3241 H3228 0.961 . S
C3241 H3229 0.959 . S
C3241 C3239 1.561 . S
C3242 C3239 1.526 . S
C3242 C3243 1.396 . S
C3242 C3247 1.390 . S
C3243 C3237 1.465 . S
C3243 C3242 1.396 . S
C3243 C3244 1.399 . S
C3244 H3230 0.929 . S
C3244 C3243 1.399 . S
C3244 C3245 1.385 . S
C3245 H3231 0.931 . S
C3245 C3244 1.385 . S
C3245 C3246 1.389 . S
C3246 C3245 1.389 . S
C3246 C3247 1.387 . S
C3247 H3232 0.930 . S
C3247 C3242 1.390 . S
C3247 C3246 1.387 . S
C669 C109 1.311 . S
C681 C340 1.154 1_556 S
C696 C61 1.243 . S
C708 C375 1.399 . S
C723 C74 1.097 . S
C735 C380 0.960 . S
C762 C405 1.351 . S
C750 C96 1.457 . S
C777 C25 1.353 . S
C789 C425 1.269 . S
C816 C440 0.927 . S
C804 C40 1.050 . S
C843 C475 1.476 . S
C831 C46 1.511 . S
C858 C5 0.971 . S
C870 C480 1.239 . S
C897 C355 1.347 . S
C885 C229 1.189 . S
C912 C249 0.975 . S
C924 C365 0.877 . S
C951 C395 1.261 . S
C939 C271 1.166 . S
C978 C400 1.237 . S
C966 C172 1.216 1_556 S
C993 C236 1.141 . S
C1005 C420 1.111 . S
C1032 C455 1.534 . S
C1020 C242 1.599 . S
C1059 C465 0.985 . S
C1047 C278 0.950 . S
C1086 C495 1.542 . S
C1074 C179 1.574 . S
C1113 C345 1.267 . S
C1101 C159 1.117 . S
C1128 C285 1.434 . S
C1140 C515 1.664 . S
C1167 C525 1.342 . S
C1155 C333 1.422 . S
C1194 C540 0.987 . S
C1182 C320 1.002 . S
C1209 C123 1.333 . S
C1221 C485 1.169 . S
C1236 C138 1.536 . S
C1248 C385 1.432 . S
C1263 C326 1.808 . S
C1275 C575 1.791 . S
C1302 C580 1.081 . S
C1290 C298 1.033 . S
C1329 C338 1.187 . S
C1317 C67 1.296 . S
C1356 C594 1.326 . S
C1344 C110 1.374 . S
C1371 C88 1.052 . S
C1383 C378 1.017 . S
C1398 C75 1.161 . S
C1410 C568 1.292 . S
C1437 C428 1.227 . S
C1425 C11 1.309 . S
C1452 C47 0.899 . S
C1464 C518 0.874 . S
C1491 C474 1.402 . S
C1479 C32 1.350 . S
C1518 C598 1.272 . S
C1506 C26 1.368 . S
C1545 C354 1.517 1_565 S
C1533 C152 1.544 . S
C1572 C588 0.991 . S
C1560 C319 1.012 . S
C1587 C124 1.306 . S
C1599 C394 1.284 . S
C1614 C284 1.312 . S
C1626 C558 1.254 . S
C1641 C145 1.041 1_545 S
C1653 C418 1.117 . S
C1680 C534 1.447 . S
C1668 C312 1.450 . S
C1695 C117 0.773 . S
C1707 C468 0.722 . S
C1722 C291 1.503 . S
C1734 C614 1.436 . S
C1749 C194 1.422 . S
C1761 C348 1.336 1_556 S
C1776 C180 1.624 . S
C1788 C514 1.589 . S
C1803 C263 1.280 . S
C1815 C448 1.303 . S
C1830 C243 0.826 . S
C1842 C538 0.816 . S
C1869 C608 1.220 . S
C1857 C277 1.293 . S
C1884 C215 1.337 . S
C1896 C388 1.453 . S
C1923 C414 1.720 . S
C1911 C256 1.683 . S
C1950 C358 0.993 . S
C1938 C200 1.144 . S
C1965 C81 1.300 . S
C1977 C620 1.079 . S
C2004 C595 1.436 . S
C1992 C89 1.217 . S
C2019 C102 1.083 1_455 S
C2031 C640 0.984 . S
C2046 C68 1.472 . S
C2058 C565 1.403 . S
C2073 C53 1.348 . S
C2085 C505 1.287 . S
C2112 C520 0.883 . S
C2100 C12 1.038 . S
C2139 C555 1.501 . S
C2127 C18 1.489 . S
C2166 C600 1.148 . S
C2154 C33 1.070 . S
C2193 C635 1.385 . S
C2181 C257 1.201 . S
C2208 C193 0.995 . S
C2220 C585 1.009 . S
C2247 C655 1.305 . S
C2235 C201 1.142 . S
C2274 C560 1.241 . S
C2262 C214 1.213 . S
C2301 C500 1.034 . S
C2289 C264 1.173 . S
C2316 C186 1.595 . S
C2328 C535 1.540 . S
C2355 C545 0.904 . S
C2343 C208 0.939 . S
C2370 C221 1.581 . S
C2382 C615 1.553 . S
C2409 C625 1.300 . S
C2397 C313 1.065 . S
C2424 C131 1.468 . S
C2436 C435 1.666 . S
C2463 C445 1.371 . S
C2451 C151 1.409 . S
C2490 C460 0.952 . S
C2478 C166 1.002 . S
C2517 C605 1.273 . S
C2505 C305 1.329 . S
C2532 C292 1.535 . S
C2544 C645 1.438 . S
C2571 C415 1.800 . S
C2559 C144 1.802 . S
C2598 C360 1.011 . S
C2586 C116 1.080 . S
C2613 C95 1.291 . S
C2625 C618 1.194 . S
C2652 C374 1.326 . S
C2640 C82 1.374 . S
C2667 C60 1.116 . S
C2679 C638 1.052 . S
C2694 C103 1.165 . S
C2706 C408 1.290 . S
C2721 C39 1.343 . S
C2733 C508 1.292 . S
C2760 C438 1.045 . S
C2748 C19 0.963 . S
C2775 C4 1.347 . S
C2787 C554 1.399 . S
C2802 C54 1.406 . S
C2814 C478 1.120 . S
C2841 C634 1.423 . S
C2829 C334 1.568 . S
C2856 C165 1.023 . S
C2868 C368 0.966 . S
C2895 C654 1.291 1_655 S
C2883 C306 1.309 . S
C2910 C130 1.288 . S
C2922 C398 1.253 . S
C2937 C327 0.984 . S
C2949 C498 0.960 . S
C2976 C454 1.463 . S
C2964 C158 1.469 . S
C2991 C299 0.725 . S
C3003 C548 0.744 . S
C3030 C494 1.459 . S
C3018 C137 1.470 . S
C3057 C628 1.255 . S
C3045 C250 1.463 . S
C3084 C434 1.581 . S
C3072 C222 1.622 . S
C3099 C235 1.322 . S
C3111 C528 1.196 . S
C3138 C458 0.981 . S
C3126 C187 0.913 . S
C3153 C207 1.358 . S
C3165 C488 1.163 . S
C3180 C173 1.314 . S
C3192 C648 1.364 . S
C3219 C574 1.675 . S
C3207 C228 1.626 . S
C3246 C578 0.992 . S
C3234 C270 1.134 . S
