# Generated by pormake.
# Topology ctn, (3,4)-cn, num edge types: 1
# Building blocks:
#     Node 0, Type 0, BuildingBlock: WUSLED_clean_sbu_0, # of connection points: 3
#     Node 1, Type 0, BuildingBlock: WUSLED_clean_sbu_0, # of connection points: 3
#     Node 2, Type 0, BuildingBlock: WUSLED_clean_sbu_0, # of connection points: 3
#     Node 3, Type 0, BuildingBlock: WUSLED_clean_sbu_0, # of connection points: 3
#     Node 4, Type 0, BuildingBlock: WUSLED_clean_sbu_0, # of connection points: 3
#     Node 5, Type 0, BuildingBlock: WUSLED_clean_sbu_0, # of connection points: 3
#     Node 6, Type 0, BuildingBlock: WUSLED_clean_sbu_0, # of connection points: 3
#     Node 7, Type 0, BuildingBlock: WUSLED_clean_sbu_0, # of connection points: 3
#     Node 8, Type 0, BuildingBlock: WUSLED_clean_sbu_0, # of connection points: 3
#     Node 9, Type 0, BuildingBlock: WUSLED_clean_sbu_0, # of connection points: 3
#     Node 10, Type 0, BuildingBlock: WUSLED_clean_sbu_0, # of connection points: 3
#     Node 11, Type 0, BuildingBlock: WUSLED_clean_sbu_0, # of connection points: 3
#     Node 12, Type 0, BuildingBlock: WUSLED_clean_sbu_0, # of connection points: 3
#     Node 13, Type 0, BuildingBlock: WUSLED_clean_sbu_0, # of connection points: 3
#     Node 14, Type 0, BuildingBlock: WUSLED_clean_sbu_0, # of connection points: 3
#     Node 15, Type 0, BuildingBlock: WUSLED_clean_sbu_0, # of connection points: 3
#     Node 16, Type 1, BuildingBlock: NAHDIM_clean_sbu_0, # of connection points: 4
#     Node 17, Type 1, BuildingBlock: NAHDIM_clean_sbu_0, # of connection points: 4
#     Node 18, Type 1, BuildingBlock: NAHDIM_clean_sbu_0, # of connection points: 4
#     Node 19, Type 1, BuildingBlock: NAHDIM_clean_sbu_0, # of connection points: 4
#     Node 20, Type 1, BuildingBlock: NAHDIM_clean_sbu_0, # of connection points: 4
#     Node 21, Type 1, BuildingBlock: NAHDIM_clean_sbu_0, # of connection points: 4
#     Node 22, Type 1, BuildingBlock: NAHDIM_clean_sbu_0, # of connection points: 4
#     Node 23, Type 1, BuildingBlock: NAHDIM_clean_sbu_0, # of connection points: 4
#     Node 24, Type 1, BuildingBlock: NAHDIM_clean_sbu_0, # of connection points: 4
#     Node 25, Type 1, BuildingBlock: NAHDIM_clean_sbu_0, # of connection points: 4
#     Node 26, Type 1, BuildingBlock: NAHDIM_clean_sbu_0, # of connection points: 4
#     Node 27, Type 1, BuildingBlock: NAHDIM_clean_sbu_0, # of connection points: 4
#     Edge 28, Type (0, 1), BuildingBlock: MIFKUJ_clean_linker_0, # of connection points: 2
#     Edge 29, Type (0, 1), BuildingBlock: MIFKUJ_clean_linker_0, # of connection points: 2
#     Edge 30, Type (0, 1), BuildingBlock: MIFKUJ_clean_linker_0, # of connection points: 2
#     Edge 31, Type (0, 1), BuildingBlock: MIFKUJ_clean_linker_0, # of connection points: 2
#     Edge 32, Type (0, 1), BuildingBlock: MIFKUJ_clean_linker_0, # of connection points: 2
#     Edge 33, Type (0, 1), BuildingBlock: MIFKUJ_clean_linker_0, # of connection points: 2
#     Edge 34, Type (0, 1), BuildingBlock: MIFKUJ_clean_linker_0, # of connection points: 2
#     Edge 35, Type (0, 1), BuildingBlock: MIFKUJ_clean_linker_0, # of connection points: 2
#     Edge 36, Type (0, 1), BuildingBlock: MIFKUJ_clean_linker_0, # of connection points: 2
#     Edge 37, Type (0, 1), BuildingBlock: MIFKUJ_clean_linker_0, # of connection points: 2
#     Edge 38, Type (0, 1), BuildingBlock: MIFKUJ_clean_linker_0, # of connection points: 2
#     Edge 39, Type (0, 1), BuildingBlock: MIFKUJ_clean_linker_0, # of connection points: 2
#     Edge 40, Type (0, 1), BuildingBlock: MIFKUJ_clean_linker_0, # of connection points: 2
#     Edge 41, Type (0, 1), BuildingBlock: MIFKUJ_clean_linker_0, # of connection points: 2
#     Edge 42, Type (0, 1), BuildingBlock: MIFKUJ_clean_linker_0, # of connection points: 2
#     Edge 43, Type (0, 1), BuildingBlock: MIFKUJ_clean_linker_0, # of connection points: 2
#     Edge 44, Type (0, 1), BuildingBlock: MIFKUJ_clean_linker_0, # of connection points: 2
#     Edge 45, Type (0, 1), BuildingBlock: MIFKUJ_clean_linker_0, # of connection points: 2
#     Edge 46, Type (0, 1), BuildingBlock: MIFKUJ_clean_linker_0, # of connection points: 2
#     Edge 47, Type (0, 1), BuildingBlock: MIFKUJ_clean_linker_0, # of connection points: 2
#     Edge 48, Type (0, 1), BuildingBlock: MIFKUJ_clean_linker_0, # of connection points: 2
#     Edge 49, Type (0, 1), BuildingBlock: MIFKUJ_clean_linker_0, # of connection points: 2
#     Edge 50, Type (0, 1), BuildingBlock: MIFKUJ_clean_linker_0, # of connection points: 2
#     Edge 51, Type (0, 1), BuildingBlock: MIFKUJ_clean_linker_0, # of connection points: 2
#     Edge 52, Type (0, 1), BuildingBlock: MIFKUJ_clean_linker_0, # of connection points: 2
#     Edge 53, Type (0, 1), BuildingBlock: MIFKUJ_clean_linker_0, # of connection points: 2
#     Edge 54, Type (0, 1), BuildingBlock: MIFKUJ_clean_linker_0, # of connection points: 2
#     Edge 55, Type (0, 1), BuildingBlock: MIFKUJ_clean_linker_0, # of connection points: 2
#     Edge 56, Type (0, 1), BuildingBlock: MIFKUJ_clean_linker_0, # of connection points: 2
#     Edge 57, Type (0, 1), BuildingBlock: MIFKUJ_clean_linker_0, # of connection points: 2
#     Edge 58, Type (0, 1), BuildingBlock: MIFKUJ_clean_linker_0, # of connection points: 2
#     Edge 59, Type (0, 1), BuildingBlock: MIFKUJ_clean_linker_0, # of connection points: 2
#     Edge 60, Type (0, 1), BuildingBlock: MIFKUJ_clean_linker_0, # of connection points: 2
#     Edge 61, Type (0, 1), BuildingBlock: MIFKUJ_clean_linker_0, # of connection points: 2
#     Edge 62, Type (0, 1), BuildingBlock: MIFKUJ_clean_linker_0, # of connection points: 2
#     Edge 63, Type (0, 1), BuildingBlock: MIFKUJ_clean_linker_0, # of connection points: 2
#     Edge 64, Type (0, 1), BuildingBlock: MIFKUJ_clean_linker_0, # of connection points: 2
#     Edge 65, Type (0, 1), BuildingBlock: MIFKUJ_clean_linker_0, # of connection points: 2
#     Edge 66, Type (0, 1), BuildingBlock: MIFKUJ_clean_linker_0, # of connection points: 2
#     Edge 67, Type (0, 1), BuildingBlock: MIFKUJ_clean_linker_0, # of connection points: 2
#     Edge 68, Type (0, 1), BuildingBlock: MIFKUJ_clean_linker_0, # of connection points: 2
#     Edge 69, Type (0, 1), BuildingBlock: MIFKUJ_clean_linker_0, # of connection points: 2
#     Edge 70, Type (0, 1), BuildingBlock: MIFKUJ_clean_linker_0, # of connection points: 2
#     Edge 71, Type (0, 1), BuildingBlock: MIFKUJ_clean_linker_0, # of connection points: 2
#     Edge 72, Type (0, 1), BuildingBlock: MIFKUJ_clean_linker_0, # of connection points: 2
#     Edge 73, Type (0, 1), BuildingBlock: MIFKUJ_clean_linker_0, # of connection points: 2
#     Edge 74, Type (0, 1), BuildingBlock: MIFKUJ_clean_linker_0, # of connection points: 2
#     Edge 75, Type (0, 1), BuildingBlock: MIFKUJ_clean_linker_0, # of connection points: 2
# Relax obj value: 0.002
# Max RMSD: 0.034
# Mean RMSD: 0.020
data_MOF--net-ctn--node1-WUSLED_clean_sbu_0--node2-NAHDIM_clean_sbu_0--edge1-MIFKUJ_clean_linker_0
_symmetry_space_group_name_H-M    P1
_symmetry_Int_Tables_number       1
_symmetry_cell_setting            triclinic
loop_
_symmetry_equiv_pos_as_xyz
'x, y, z'
_cell_length_a     87.60629
_cell_length_b     88.481703
_cell_length_c     87.515819
_cell_angle_alpha  91.651594
_cell_angle_beta   90.021476
_cell_angle_gamma 91.774232
loop_
_atom_site_label
_atom_site_type_symbol
_atom_site_fract_x
_atom_site_fract_y
_atom_site_fract_z
_atom_type_partial_charge
C0 C 0.0138 0.06133 0.0818 0.0
C1 C 0.01633 0.04782 0.08931 0.0
C2 C 0.99605 0.05352 0.10761 0.0
C3 C 0.00753 0.04395 0.10211 0.0
C4 C 0.99374 0.0671 0.10006 0.0
C5 C 1.00251 0.07093 0.08731 0.0
U6 U 0.04684 0.05707 0.05281 0.0
O7 O 0.04632 0.05941 0.02779 0.0
O8 O 0.06077 0.07488 0.04198 0.0
C9 C 0.05535 0.07156 0.02823 0.0
C10 C 0.02258 0.06564 0.06812 0.0
C11 C 0.05038 0.08443 0.01924 0.0
C12 C 0.03815 0.10864 0.01715 0.0
C13 C 0.04208 0.09627 0.02586 0.0
C14 C 0.05049 0.09735 0.99506 0.0
C15 C 0.04242 0.10942 1.00164 0.0
C16 C 0.05443 0.08503 1.00377 0.0
C17 C 0.07613 0.02556 0.05791 0.0
C18 C 0.09362 0.01508 0.03902 0.0
C19 C 0.0966 0.00947 0.06574 0.0
C20 C 0.08408 0.01834 0.06938 0.0
C21 C 0.10146 0.00757 0.0505 0.0
C22 C 0.08107 0.02399 0.04269 0.0
C23 C 0.0625 0.03416 0.06219 0.0
O24 O 0.03635 0.07151 0.07059 0.0
O25 O 0.02198 0.05593 0.05646 0.0
O26 O 0.05064 0.03261 0.053 0.0
O27 O 0.06502 0.04817 0.06717 0.0
H28 H 0.025 0.04024 0.08521 0.0
H29 H 0.00956 0.03336 0.10755 0.0
H30 H 0.98523 0.07489 0.10409 0.0
H31 H 1.00043 0.08145 0.08171 0.0
H32 H 0.03205 0.11775 0.02266 0.0
H33 H 0.03882 0.09603 0.03779 0.0
H34 H 0.05372 0.09736 0.98312 0.0
H35 H 0.06077 0.07599 0.99842 0.0
H36 H 0.09696 0.01381 0.02715 0.0
H37 H 0.1025 1.00414 0.07493 0.0
H38 H 0.08051 0.01944 0.0812 0.0
H39 H 0.07511 0.02948 0.03364 0.0
C40 C 0.27991 0.74094 0.1875 0.0
C41 C 0.28968 0.75382 0.18854 0.0
C42 C 0.27927 0.76303 0.16472 0.0
C43 C 0.28934 0.76478 0.17727 0.0
C44 C 0.26953 0.75007 0.16382 0.0
C45 C 0.26986 0.73918 0.17507 0.0
U46 U 0.29619 0.72172 0.22286 0.0
O47 O 0.28377 0.71192 0.24233 0.0
O48 O 0.29756 0.69746 0.22735 0.0
C49 C 0.28781 0.69808 0.23875 0.0
C50 C 0.2798 0.72926 0.1992 0.0
C51 C 0.27552 0.68621 0.23898 0.0
C52 C 0.25946 0.66652 0.22647 0.0
C53 C 0.27049 0.67832 0.22564 0.0
C54 C 0.2581 0.67054 0.2539 0.0
C55 C 0.25317 0.66243 0.24064 0.0
C56 C 0.26914 0.68225 0.25307 0.0
C57 C 0.33294 0.73829 0.24242 0.0
C58 C 0.34972 0.72582 0.25998 0.0
C59 C 0.35237 0.75286 0.25681 0.0
C60 C 0.34032 0.75215 0.2463 0.0
C61 C 0.35739 0.7397 0.26367 0.0
C62 C 0.33761 0.72512 0.24945 0.0
C63 C 0.32078 0.73795 0.23069 0.0
O64 O 0.29079 0.7195 0.19828 0.0
O65 O 0.27703 0.73392 0.2133 0.0
O66 O 0.30702 0.74112 0.23553 0.0
O67 O 0.32084 0.72666 0.22059 0.0
H68 H 0.29755 0.75537 0.19805 0.0
H69 H 0.29711 0.77453 0.17827 0.0
H70 H 0.26146 0.74843 0.1545 0.0
H71 H 0.26218 0.72936 0.1741 0.0
H72 H 0.25581 0.66064 0.21601 0.0
H73 H 0.27517 0.68116 0.2146 0.0
H74 H 0.25369 0.66759 0.26502 0.0
H75 H 0.2729 0.68809 0.26352 0.0
H76 H 0.35331 0.71544 0.26495 0.0
H77 H 0.35775 0.76379 0.25957 0.0
H78 H 0.33685 0.76245 0.24108 0.0
H79 H 0.33204 0.7143 0.24665 0.0
C80 C 0.96431 0.44443 0.01463 0.0
C81 C 0.97914 0.43906 0.01619 0.0
C82 C 0.97315 0.41806 0.99821 0.0
C83 C 0.98353 0.42604 0.00802 0.0
C84 C 0.95826 0.42344 0.99685 0.0
C85 C 0.95392 0.43648 1.00496 0.0
U86 U 0.96769 0.47442 0.04732 0.0
O87 O 0.96538 0.49915 0.04666 0.0
O88 O 0.94958 0.48553 0.06047 0.0
C89 C 0.95308 0.49899 0.05525 0.0
C90 C 0.95946 0.45833 0.02276 0.0
C91 C 0.94019 0.50784 0.04987 0.0
C92 C 0.91645 0.51008 0.03571 0.0
C93 C 0.92887 0.5015 0.04006 0.0
C94 C 0.92669 0.53147 0.0507 0.0
C95 C 0.91512 0.52516 0.04109 0.0
C96 C 0.93905 0.5229 0.05503 0.0
C97 C 0.9993 0.46993 0.07787 0.0
C98 C 1.0067 0.48807 0.0982 0.0
C99 C 0.01783 0.46335 0.09708 0.0
C100 C 0.00922 0.45956 0.08399 0.0
C101 C 0.01672 0.47766 0.10439 0.0
C102 C 0.99804 0.48423 0.08507 0.0
C103 C 0.99064 0.4655 0.06389 0.0
O104 O 0.9532 0.45645 0.03625 0.0
O105 O 0.96909 0.47002 0.02249 0.0
O106 O 0.99235 0.47439 0.0522 0.0
O107 O 0.97644 0.46075 0.06587 0.0
H108 H 0.98733 0.44498 0.02367 0.0
H109 H 0.99502 0.42213 0.00948 0.0
H110 H 0.95002 0.41774 0.98928 0.0
H111 H 0.94243 0.44044 1.00358 0.0
H112 H 0.90772 0.50478 0.02841 0.0
H113 H 0.92953 0.48988 0.03593 0.0
H114 H 0.92625 0.5431 0.05484 0.0
H115 H 0.9477 0.52804 0.06254 0.0
H116 H 1.00543 0.49912 0.1036 0.0
H117 H 0.02559 0.45514 0.1013 0.0
H118 H 0.0104 0.44849 0.07856 0.0
H119 H 0.9904 0.49239 0.08052 0.0
C120 C 0.71108 0.77717 0.18481 0.0
C121 C 0.7265 0.77413 0.18197 0.0
C122 C 0.71954 0.76023 0.15832 0.0
C123 C 0.73067 0.7657 0.16889 0.0
C124 C 0.70417 0.76357 0.16109 0.0
C125 C 0.7 0.7719 0.17419 0.0
U126 U 0.71462 0.80905 0.21587 0.0
O127 O 0.69655 0.82184 0.22737 0.0
O128 O 0.71146 0.80782 0.24079 0.0
C129 C 0.69946 0.81637 0.24083 0.0
C130 C 0.70613 0.7852 0.19896 0.0
C131 C 0.68616 0.81085 0.24964 0.0
C132 C 0.66276 0.79551 0.25205 0.0
C133 C 0.6754 0.80032 0.24339 0.0
C134 C 0.67159 0.81161 0.27329 0.0
C135 C 0.6607 0.80109 0.26714 0.0
C136 C 0.68416 0.81641 0.26464 0.0
C137 C 0.74754 0.83906 0.21306 0.0
C138 C 0.75085 0.86189 0.2291 0.0
C139 C 0.77065 0.85484 0.2112 0.0
C140 C 0.76187 0.84207 0.20652 0.0
C141 C 0.7653 0.86492 0.22257 0.0
C142 C 0.74206 0.84904 0.22441 0.0
C143 C 0.73862 0.82552 0.2077 0.0
O144 O 0.71514 0.78456 0.21093 0.0
O145 O 0.70049 0.79864 0.19727 0.0
O146 O 0.7247 0.82777 0.20283 0.0
O147 O 0.7395 0.81353 0.21613 0.0
H148 H 0.73531 0.77812 0.18992 0.0
H149 H 0.74263 0.76349 0.16703 0.0
H150 H 0.69527 0.7594 0.15333 0.0
H151 H 0.68804 0.77404 0.17616 0.0
H152 H 0.6547 0.78729 0.24699 0.0
H153 H 0.67677 0.79585 0.23183 0.0
H154 H 0.67029 0.81635 0.28475 0.0
H155 H 0.6923 0.82458 0.26966 0.0
H156 H 0.74644 0.86932 0.23798 0.0
H157 H 0.78156 0.85691 0.20572 0.0
H158 H 0.76627 0.83454 0.1977 0.0
H159 H 0.73103 0.84689 0.22963 0.0
C160 C 0.01334 0.97206 0.43964 0.0
C161 C 0.01273 0.98738 0.43593 0.0
C162 C 0.99627 0.9808 0.41402 0.0
C163 C 1.00422 0.99171 0.42327 0.0
C164 C 0.99705 0.96547 0.41777 0.0
C165 C 1.00548 0.96118 0.43043 0.0
U166 U 0.04653 0.97562 0.46865 0.0
O167 O 0.04656 0.97186 0.49339 0.0
O168 O 0.06035 0.95768 0.47813 0.0
C169 C 0.05529 0.96006 0.4921 0.0
C170 C 0.02189 0.96709 0.45309 0.0
C171 C 0.05043 0.94646 0.50052 0.0
C172 C 0.03088 0.93033 0.51215 0.0
C173 C 0.03498 0.94286 0.50339 0.0
C174 C 0.05756 0.92465 0.51498 0.0
C175 C 0.04213 0.9211 0.51815 0.0
C176 C 0.06164 0.93718 0.5063 0.0
C177 C 0.07632 0.00869 0.46441 0.0
C178 C 0.09668 0.01634 0.48224 0.0
C179 C 0.09493 0.02838 0.45783 0.0
C180 C 0.08208 0.01926 0.45411 0.0
C181 C 0.10235 0.02716 0.47199 0.0
C182 C 0.08374 1.00719 0.47849 0.0
C183 C 0.06245 0.99966 0.46014 0.0
O184 O 0.03543 0.96168 0.45028 0.0
O185 O 0.02163 0.97599 0.46538 0.0
O186 O 0.05094 1.00026 0.46975 0.0
O187 O 0.06459 0.98597 0.45447 0.0
H188 H 0.01879 0.99598 0.44282 0.0
H189 H 1.00401 1.00358 0.42064 0.0
H190 H 0.99092 0.95678 0.41106 0.0
H191 H 1.00576 0.94931 0.43311 0.0
H192 H 0.01888 0.92783 0.51419 0.0
H193 H 0.02609 0.94979 0.499 0.0
H194 H 0.06655 0.91796 0.51955 0.0
H195 H 0.07363 0.93977 0.50429 0.0
H196 H 0.10204 0.01515 0.49327 0.0
H197 H 0.09911 0.03634 0.44952 0.0
H198 H 0.07656 0.02053 0.44316 0.0
H199 H 0.07947 0.99906 0.48659 0.0
C200 C 0.20924 0.75845 0.83603 0.0
C201 C 0.2192 0.75288 0.84697 0.0
C202 C 0.21794 0.77654 0.862 0.0
C203 C 0.22348 0.76184 0.85987 0.0
C204 C 0.20797 0.78199 0.85096 0.0
C205 C 0.20369 0.77304 0.83814 0.0
U206 U 0.21276 0.72496 0.80706 0.0
O207 O 0.19454 0.71075 0.79614 0.0
O208 O 0.20975 0.72471 0.78206 0.0
C209 C 0.1976 0.71564 0.7824 0.0
C210 C 0.20439 0.74935 0.82239 0.0
C211 C 0.18439 0.72013 0.7733 0.0
C212 C 0.16311 0.73648 0.76865 0.0
C213 C 0.17567 0.73261 0.77756 0.0
C214 C 0.16794 0.71546 0.75117 0.0
C215 C 0.15903 0.72789 0.75537 0.0
C216 C 0.18045 0.71164 0.76004 0.0
C217 C 0.24516 0.69657 0.81199 0.0
C218 C 0.25531 0.67895 0.79292 0.0
C219 C 0.26254 0.67718 0.8195 0.0
C220 C 0.25333 0.68936 0.8233 0.0
C221 C 0.26383 0.67191 0.80423 0.0
C222 C 0.24606 0.69118 0.79677 0.0
C223 C 0.23638 0.71001 0.81638 0.0
O224 O 0.21374 0.74973 0.81066 0.0
O225 O 0.19867 0.73573 0.82486 0.0
O226 O 0.2224 0.70743 0.82132 0.0
O227 O 0.23753 0.72156 0.80728 0.0
H228 H 0.22366 0.74165 0.84552 0.0
H229 H 0.23128 0.75733 0.86805 0.0
H230 H 0.20328 0.79313 0.85231 0.0
H231 H 0.19595 0.77753 0.82986 0.0
H232 H 0.15646 0.74605 0.77229 0.0
H233 H 0.17855 0.73931 0.78777 0.0
H234 H 0.16537 0.70875 0.7409 0.0
H235 H 0.18708 0.70201 0.75652 0.0
H236 H 0.25609 0.67528 0.78105 0.0
H237 H 0.26867 0.67189 0.82856 0.0
H238 H 0.25275 0.69329 0.83512 0.0
H239 H 0.23983 0.69657 0.78783 0.0
C240 C 0.96524 0.58214 0.50485 0.0
C241 C 0.9803 0.58806 0.50503 0.0
C242 C 0.97301 0.60837 0.52286 0.0
C243 C 0.98416 0.60108 0.51395 0.0
C244 C 0.95789 0.6025 0.52233 0.0
C245 C 0.95408 0.58955 0.51345 0.0
U246 U 0.97015 0.55129 0.47298 0.0
O247 O 0.96608 0.5267 0.47427 0.0
O248 O 0.9523 0.53974 0.45874 0.0
C249 C 0.95443 0.52655 0.46479 0.0
C250 C 0.96081 0.56808 0.49625 0.0
C251 C 0.94052 0.51805 0.46954 0.0
C252 C 0.92246 0.50966 0.48895 0.0
C253 C 0.93532 0.51845 0.48473 0.0
C254 C 0.9197 0.50027 0.46281 0.0
C255 C 0.91457 0.50032 0.47806 0.0
C256 C 0.93252 0.50901 0.45863 0.0
C257 C 1.00417 0.55372 0.44487 0.0
C258 C 1.00703 0.53891 0.42119 0.0
C259 C 0.02824 0.55446 0.43103 0.0
C260 C 0.0193 0.55908 0.44345 0.0
C261 C 0.02225 0.54433 0.4197 0.0
C262 C 0.99808 0.54353 0.43369 0.0
C263 C 0.995 0.55922 0.45793 0.0
O264 O 0.95605 0.56966 0.48216 0.0
O265 O 0.9698 0.55657 0.49769 0.0
O266 O 0.99516 0.55102 0.47022 0.0
O267 O 0.98137 0.56406 0.45469 0.0
H268 H 0.9891 0.58252 0.49845 0.0
H269 H 0.99592 0.60522 0.51414 0.0
H270 H 0.94894 0.60795 0.52877 0.0
H271 H 0.94237 0.58521 0.51341 0.0
H272 H 0.91892 0.50993 0.50081 0.0
H273 H 0.94129 0.52539 0.49335 0.0
H274 H 0.91377 0.49348 0.45404 0.0
H275 H 0.93629 0.5086 0.44684 0.0
H276 H 1.00208 0.53099 0.41277 0.0
H277 H 0.0398 0.55908 0.43017 0.0
H278 H 0.0242 0.567 0.45191 0.0
H279 H 0.98642 0.53921 0.43459 0.0
C280 C 0.78492 0.78433 0.8363 0.0
C281 C 0.78658 0.76896 0.83231 0.0
C282 C 0.78437 0.76217 0.8591 0.0
C283 C 0.78625 0.75801 0.84358 0.0
C284 C 0.78305 0.77761 0.86306 0.0
C285 C 0.78328 0.78853 0.85179 0.0
U286 U 0.79948 0.8041 0.80008 0.0
O287 O 0.78649 0.81334 0.78111 0.0
O288 O 0.80137 0.82838 0.79531 0.0
C289 C 0.7913 0.82732 0.78416 0.0
C290 C 0.78425 0.7961 0.82461 0.0
C291 C 0.7796 0.83897 0.78416 0.0
C292 C 0.75814 0.85194 0.79568 0.0
C293 C 0.7689 0.8405 0.796 0.0
C294 C 0.76861 0.86029 0.77164 0.0
C295 C 0.75794 0.86207 0.78354 0.0
C296 C 0.7793 0.84889 0.77198 0.0
C297 C 0.83517 0.78831 0.77959 0.0
C298 C 0.84999 0.8003 0.75948 0.0
C299 C 0.85598 0.77512 0.76726 0.0
C300 C 0.8441 0.77551 0.77792 0.0
C301 C 0.85923 0.78756 0.75801 0.0
C302 C 0.83808 0.80068 0.77021 0.0
C303 C 0.82331 0.78852 0.79157 0.0
O304 O 0.79538 0.80642 0.82491 0.0
O305 O 0.7804 0.79151 0.81066 0.0
O306 O 0.80928 0.78496 0.78715 0.0
O307 O 0.82408 0.79999 0.80146 0.0
H308 H 0.78796 0.76537 0.82047 0.0
H309 H 0.78749 0.74625 0.84014 0.0
H310 H 0.78141 0.78123 0.87486 0.0
H311 H 0.78192 0.80029 0.85516 0.0
H312 H 0.75018 0.85304 0.80508 0.0
H313 H 0.76896 0.83294 0.80552 0.0
H314 H 0.76865 0.86765 0.76197 0.0
H315 H 0.7874 0.84784 0.76268 0.0
H316 H 0.85222 0.81012 0.75262 0.0
H317 H 0.86263 0.76502 0.76627 0.0
H318 H 0.842 0.76582 0.78501 0.0
H319 H 0.83129 0.81068 0.77134 0.0
C320 C 0.28408 0.28345 0.3367 0.0
C321 C 0.29497 0.27213 0.33638 0.0
C322 C 0.28392 0.2613 0.35945 0.0
C323 C 0.29487 0.26114 0.34764 0.0
C324 C 0.27305 0.2727 0.35961 0.0
C325 C 0.27315 0.28363 0.34837 0.0
U326 U 0.29997 0.30353 0.30118 0.0
O327 O 0.28744 0.31292 0.28197 0.0
O328 O 0.30176 0.32789 0.29679 0.0
C329 C 0.29203 0.3269 0.28535 0.0
C330 C 0.28383 0.29518 0.32504 0.0
C331 C 0.28025 0.33846 0.2852 0.0
C332 C 0.2583 0.35099 0.29627 0.0
C333 C 0.26906 0.33955 0.29664 0.0
C334 C 0.26975 0.3602 0.27301 0.0
C335 C 0.2586 0.36156 0.2845 0.0
C336 C 0.28043 0.3488 0.27338 0.0
C337 C 0.33633 0.28914 0.28127 0.0
C338 C 0.34599 0.29704 0.25655 0.0
C339 C 0.36129 0.28139 0.2724 0.0
C340 C 0.34982 0.28138 0.28351 0.0
C341 C 0.35954 0.28918 0.25873 0.0
C342 C 0.3345 0.29705 0.26774 0.0
C343 C 0.32434 0.28858 0.29311 0.0
O344 O 0.29494 0.3055 0.32581 0.0
O345 O 0.28077 0.29039 0.31098 0.0
O346 O 0.31047 0.28477 0.28838 0.0
O347 O 0.32464 0.29979 0.3033 0.0
H348 H 0.30353 0.27182 0.32746 0.0
H349 H 0.3035 0.25264 0.34722 0.0
H350 H 0.26428 0.27307 0.36833 0.0
H351 H 0.26461 0.29224 0.34878 0.0
H352 H 0.24996 0.35175 0.30537 0.0
H353 H 0.26875 0.33167 0.30588 0.0
H354 H 0.27019 0.36792 0.26363 0.0
H355 H 0.28893 0.34811 0.26441 0.0
H356 H 0.34431 0.30329 0.24626 0.0
H357 H 0.37143 0.27503 0.2744 0.0
H358 H 0.35143 0.27517 0.29385 0.0
H359 H 0.32419 0.30318 0.26581 0.0
C360 C 0.46658 0.94725 0.51309 0.0
C361 C 0.47487 0.93597 0.52004 0.0
C362 C 0.4754 0.92134 0.49592 0.0
C363 C 0.4792 0.9231 0.51154 0.0
C364 C 0.46715 0.93276 0.48907 0.0
C365 C 0.46281 0.94555 0.49756 0.0
U366 U 0.46853 0.97595 0.5472 0.0
O367 O 0.46631 1.00072 0.54718 0.0
O368 O 0.44977 0.98668 0.55972 0.0
C369 C 0.45347 1.00027 0.55494 0.0
C370 C 0.46153 0.96077 0.52172 0.0
C371 C 0.44091 0.00937 0.54907 0.0
C372 C 0.41499 0.01176 0.53944 0.0
C373 C 0.42698 1.00271 0.54395 0.0
C374 C 0.43078 0.03423 0.54474 0.0
C375 C 0.41671 0.02766 0.53986 0.0
C376 C 0.4427 0.02519 0.54931 0.0
C377 C 0.4985 0.97087 0.57925 0.0
C378 C 0.51042 0.98938 0.59704 0.0
C379 C 0.51145 0.96267 0.60203 0.0
C380 C 0.50318 0.9593 0.58863 0.0
C381 C 0.51529 0.97775 0.60639 0.0
C382 C 0.50207 0.98598 0.58361 0.0
C383 C 0.49061 0.96671 0.5647 0.0
O384 O 0.4547 0.95836 0.53484 0.0
O385 O 0.47125 0.97239 0.52232 0.0
O386 O 0.4929 0.97578 0.55323 0.0
O387 O 0.47637 0.96173 0.56578 0.0
H388 H 0.47795 0.9371 0.53201 0.0
H389 H 0.48566 0.91462 0.51715 0.0
H390 H 0.46381 0.9317 0.47716 0.0
H391 H 0.45637 0.95409 0.492 0.0
H392 H 0.40438 1.00631 0.53558 0.0
H393 H 0.42527 0.99053 0.54358 0.0
H394 H 0.43247 0.0464 0.54542 0.0
H395 H 0.45329 0.03061 0.5533 0.0
H396 H 0.51301 1.00112 0.60012 0.0
H397 H 0.51517 0.95341 0.60879 0.0
H398 H 0.50064 0.94756 0.58545 0.0
H399 H 0.49855 0.99514 0.57659 0.0
C400 C 0.21199 0.27613 0.68633 0.0
C401 C 0.22652 0.27864 0.67996 0.0
C402 C 0.22135 0.25868 0.66056 0.0
C403 C 0.23116 0.27 0.66718 0.0
C404 C 0.20673 0.25642 0.66694 0.0
C405 C 0.20213 0.26504 0.67968 0.0
U406 U 0.2158 0.3087 0.71653 0.0
O407 O 0.19779 0.32226 0.72721 0.0
O408 O 0.21192 0.30814 0.74135 0.0
C409 C 0.2002 0.31704 0.74088 0.0
C410 C 0.20693 0.28466 0.70006 0.0
C411 C 0.18654 0.31207 0.74944 0.0
C412 C 0.16554 0.29411 0.7541 0.0
C413 C 0.1783 0.29867 0.74547 0.0
C414 C 0.16912 0.31634 0.77065 0.0
C415 C 0.16085 0.30286 0.76688 0.0
C416 C 0.18181 0.32087 0.76203 0.0
C417 C 0.24946 0.33785 0.71455 0.0
C418 C 0.25137 0.36315 0.72629 0.0
C419 C 0.27419 0.35095 0.71733 0.0
C420 C 0.26535 0.33825 0.71254 0.0
C421 C 0.26733 0.36361 0.72421 0.0
C422 C 0.24253 0.35037 0.72155 0.0
C423 C 0.24049 0.32439 0.70891 0.0
O424 O 0.21576 0.28409 0.71216 0.0
O425 O 0.20193 0.29827 0.69779 0.0
O426 O 0.22685 0.32679 0.70336 0.0
O427 O 0.24079 0.31246 0.71748 0.0
H428 H 0.23431 0.28716 0.68494 0.0
H429 H 0.24253 0.27198 0.66268 0.0
H430 H 0.19876 0.24803 0.66202 0.0
H431 H 0.19085 0.26298 0.68439 0.0
H432 H 0.15954 0.28361 0.75093 0.0
H433 H 0.1818 0.2917 0.73579 0.0
H434 H 0.16572 0.32351 0.78021 0.0
H435 H 0.18799 0.33128 0.76524 0.0
H436 H 0.24574 0.37262 0.7317 0.0
H437 H 0.28639 0.35096 0.71535 0.0
H438 H 0.27093 0.32874 0.70712 0.0
H439 H 0.23028 0.3503 0.7233 0.0
C440 C 0.77907 0.24128 0.68762 0.0
C441 C 0.79166 0.25102 0.68484 0.0
C442 C 0.77744 0.26335 0.66489 0.0
C443 C 0.79085 0.26197 0.67359 0.0
C444 C 0.7648 0.2537 0.66798 0.0
C445 C 0.76563 0.2428 0.67919 0.0
U446 U 0.79646 0.22163 0.72225 0.0
O447 O 0.78461 0.21059 0.74128 0.0
O448 O 0.79896 0.19725 0.72579 0.0
C449 C 0.78936 0.19708 0.73732 0.0
C450 C 0.77964 0.22925 0.69893 0.0
C451 C 0.77772 0.18464 0.73712 0.0
C452 C 0.75235 0.17422 0.73089 0.0
C453 C 0.76336 0.18605 0.73026 0.0
C454 C 0.77002 0.1594 0.74501 0.0
C455 C 0.75552 0.16075 0.73835 0.0
C456 C 0.78097 0.17121 0.7444 0.0
C457 C 0.83234 0.23875 0.74268 0.0
C458 C 0.84969 0.22599 0.75946 0.0
C459 C 0.85006 0.25335 0.75912 0.0
C460 C 0.83845 0.2527 0.74813 0.0
C461 C 0.85589 0.24001 0.76491 0.0
C462 C 0.83798 0.22536 0.74848 0.0
C463 C 0.82035 0.23856 0.73078 0.0
O464 O 0.79111 0.22006 0.69767 0.0
O465 O 0.77666 0.23329 0.71316 0.0
O466 O 0.80642 0.24103 0.7356 0.0
O467 O 0.82089 0.22774 0.72018 0.0
H468 H 0.80215 0.25004 0.69125 0.0
H469 H 0.80084 0.26912 0.67147 0.0
H470 H 0.75419 0.25459 0.66176 0.0
H471 H 0.75575 0.23545 0.68121 0.0
H472 H 0.74138 0.17559 0.72548 0.0
H473 H 0.76064 0.19632 0.72453 0.0
H474 H 0.77282 0.14933 0.75104 0.0
H475 H 0.79196 0.16992 0.74982 0.0
H476 H 0.85379 0.21551 0.76378 0.0
H477 H 0.85469 0.26433 0.76287 0.0
H478 H 0.8343 0.26316 0.74378 0.0
H479 H 0.83338 0.21444 0.7445 0.0
C480 C 0.51454 0.56061 0.58113 0.0
C481 C 0.51941 0.54934 0.59082 0.0
C482 C 0.49689 0.55261 0.60694 0.0
C483 C 0.51068 0.54539 0.60364 0.0
C484 C 0.4921 0.56386 0.59711 0.0
C485 C 0.50083 0.56779 0.58436 0.0
U486 U 0.54732 0.55615 0.55194 0.0
O487 O 0.54701 0.55958 0.52715 0.0
O488 O 0.56208 0.5739 0.54188 0.0
C489 C 0.55653 0.57136 0.52806 0.0
C490 C 0.52352 0.56521 0.56769 0.0
C491 C 0.55208 0.58484 0.51971 0.0
C492 C 0.53303 0.60231 0.51132 0.0
C493 C 0.53702 0.58985 0.51989 0.0
C494 C 0.55915 0.60505 0.50256 0.0
C495 C 0.54405 0.61004 0.50248 0.0
C496 C 0.5631 0.59259 0.51106 0.0
C497 C 0.57461 0.52261 0.55526 0.0
C498 C 0.60006 0.51973 0.54452 0.0
C499 C 0.58634 0.49803 0.55458 0.0
C500 C 0.57404 0.50714 0.55831 0.0
C501 C 0.59957 0.50419 0.5477 0.0
C502 C 0.58767 0.52885 0.54823 0.0
C503 C 0.56161 0.53191 0.56006 0.0
O504 O 0.53756 0.57024 0.57041 0.0
O505 O 0.52243 0.55613 0.55556 0.0
O506 O 0.54968 0.5314 0.55093 0.0
O507 O 0.56493 0.54558 0.56563 0.0
H508 H 0.52996 0.54362 0.58849 0.0
H509 H 0.51464 0.53659 0.61086 0.0
H510 H 0.48171 0.56985 0.59939 0.0
H511 H 0.49691 0.57656 0.57705 0.0
H512 H 0.52134 0.60594 0.51169 0.0
H513 H 0.52833 0.58408 0.52655 0.0
H514 H 0.56789 0.61056 0.49575 0.0
H515 H 0.57477 0.58888 0.51073 0.0
H516 H 0.60997 0.52483 0.53908 0.0
H517 H 0.58561 0.4862 0.55743 0.0
H518 H 0.56411 0.50211 0.56379 0.0
H519 H 0.58835 0.54077 0.54571 0.0
C520 C 0.51265 0.47272 0.94046 0.0
C521 C 0.51425 0.48734 0.93472 0.0
C522 C 0.4941 0.48149 0.9159 0.0
C523 C 0.50507 0.49169 0.92253 0.0
C524 C 0.49279 0.46679 0.92161 0.0
C525 C 0.50194 0.46249 0.93374 0.0
U526 U 0.5468 0.47592 0.96866 0.0
O527 O 0.54706 0.47194 0.99338 0.0
O528 O 0.56038 0.45765 0.97781 0.0
C529 C 0.55571 0.46011 0.99191 0.0
C530 C 0.52171 0.46784 0.95358 0.0
C531 C 0.5509 0.4466 1.00043 0.0
C532 C 0.53162 0.42811 0.00861 0.0
C533 C 0.53582 0.44072 0.99999 0.0
C534 C 0.55753 0.42704 0.01805 0.0
C535 C 0.54243 0.42111 0.01779 0.0
C536 C 0.56169 0.43962 0.00947 0.0
C537 C 0.57745 0.50803 0.96495 0.0
C538 C 0.59716 0.51519 0.98367 0.0
C539 C 0.59792 0.52596 0.95855 0.0
C540 C 0.58463 0.51762 0.9545 0.0
C541 C 0.60437 0.52492 0.97321 0.0
C542 C 0.58385 0.5068 0.97957 0.0
C543 C 0.56324 0.4997 0.96035 0.0
O544 O 0.53514 0.46237 0.95036 0.0
O545 O 0.52188 0.47681 0.96582 0.0
O546 O 0.55173 0.50047 0.96995 0.0
O547 O 0.56488 0.48606 0.95435 0.0
H548 H 0.52248 0.49542 0.93974 0.0
H549 H 0.50634 0.50312 0.91851 0.0
H550 H 0.48472 0.45853 0.91664 0.0
H551 H 0.50057 0.45112 0.93794 0.0
H552 H 0.51993 0.42377 0.00799 0.0
H553 H 0.52731 0.44591 0.99303 0.0
H554 H 0.56611 0.42215 0.02513 0.0
H555 H 0.57337 0.44401 0.01003 0.0
H556 H 0.60188 0.51397 0.99499 0.0
H557 H 0.60297 0.53347 0.95027 0.0
H558 H 0.57986 0.51877 0.94318 0.0
H559 H 0.57852 0.49941 0.9878 0.0
C560 C 0.70855 0.2571 0.3385 0.0
C561 C 0.72402 0.25948 0.34241 0.0
C562 C 0.71696 0.27428 0.36519 0.0
C563 C 0.72818 0.26803 0.35559 0.0
C564 C 0.70149 0.27156 0.36138 0.0
C565 C 0.69735 0.2631 0.34818 0.0
U566 U 0.71223 0.22569 0.30723 0.0
O567 O 0.69419 0.21229 0.29509 0.0
O568 O 0.70971 0.22713 0.28224 0.0
C569 C 0.69749 0.21813 0.2818 0.0
C570 C 0.70378 0.24901 0.32416 0.0
C571 C 0.68448 0.22331 0.27277 0.0
C572 C 0.66016 0.23572 0.27066 0.0
C573 C 0.6726 0.23145 0.27951 0.0
C574 C 0.67148 0.22398 0.24823 0.0
C575 C 0.65942 0.23199 0.25489 0.0
C576 C 0.68384 0.2197 0.25708 0.0
C577 C 0.74439 0.19691 0.31073 0.0
C578 C 0.75007 0.1769 0.29209 0.0
C579 C 0.76478 0.1796 0.31549 0.0
C580 C 0.7561 0.19194 0.32008 0.0
C581 C 0.76195 0.17194 0.30141 0.0
C582 C 0.74138 0.1893 0.29671 0.0
C583 C 0.73565 0.21008 0.31592 0.0
O584 O 0.71314 0.25016 0.31249 0.0
O585 O 0.69785 0.23529 0.32557 0.0
O586 O 0.72155 0.20721 0.32036 0.0
O587 O 0.73699 0.22217 0.30758 0.0
H588 H 0.7329 0.25489 0.3352 0.0
H589 H 0.74019 0.26973 0.35828 0.0
H590 H 0.69255 0.27633 0.36839 0.0
H591 H 0.68536 0.26145 0.34537 0.0
H592 H 0.65117 0.24202 0.27614 0.0
H593 H 0.67289 0.23443 0.2916 0.0
H594 H 0.67122 0.22072 0.23621 0.0
H595 H 0.69287 0.21338 0.25166 0.0
H596 H 0.74765 0.17137 0.28112 0.0
H597 H 0.77361 0.17597 0.3231 0.0
H598 H 0.75855 0.19762 0.33098 0.0
H599 H 0.73238 0.19299 0.28932 0.0
C600 C 0.46475 0.08292 1.00459 0.0
C601 C 0.48025 0.08663 0.00729 0.0
C602 C 0.47343 0.1097 0.02139 0.0
C603 C 0.48454 0.09986 0.01564 0.0
C604 C 0.45795 0.10606 0.01836 0.0
C605 C 0.45368 0.09282 0.01009 0.0
U606 U 0.46822 0.05119 0.97355 0.0
O607 O 0.46478 0.02655 0.97563 0.0
O608 O 0.45008 0.03895 0.96039 0.0
C609 C 0.45277 0.02594 0.96661 0.0
C610 C 0.45974 0.06856 0.99674 0.0
C611 C 0.43933 0.01718 0.97212 0.0
C612 C 0.41483 0.01537 0.98524 0.0
C613 C 0.42762 0.02401 0.98055 0.0
C614 C 0.42543 0.99301 0.9733 0.0
C615 C 0.41357 0.99974 0.98167 0.0
C616 C 0.43813 1.00164 0.9686 0.0
C617 C 0.5016 0.05402 0.94442 0.0
C618 C 0.50573 0.03744 0.92219 0.0
C619 C 0.52463 0.05697 0.92916 0.0
C620 C 0.51561 0.06145 0.94156 0.0
C621 C 0.51987 0.04488 0.9193 0.0
C622 C 0.49669 0.04195 0.93467 0.0
C623 C 0.49242 0.0593 0.95756 0.0
O624 O 0.45425 0.06965 0.98284 0.0
O625 O 0.46866 0.057 0.99815 0.0
O626 O 0.49312 0.05134 0.96997 0.0
O627 O 0.47855 0.0636 0.9545 0.0
H628 H 0.48905 0.07924 1.0031 0.0
H629 H 0.49657 0.10239 0.01759 0.0
H630 H 0.44907 0.11324 0.02274 0.0
H631 H 0.44165 0.09017 0.00821 0.0
H632 H 0.40601 0.0209 0.99179 0.0
H633 H 0.42834 0.03599 0.98346 0.0
H634 H 0.42478 0.98109 0.97012 0.0
H635 H 0.44701 0.99617 0.96206 0.0
H636 H 0.50175 0.02802 0.91492 0.0
H637 H 0.53527 0.06316 0.92717 0.0
H638 H 0.51957 0.07084 0.9489 0.0
H639 H 0.4859 0.03605 0.93671 0.0
C640 C 0.2317 0.91478 0.01902 0.0
O641 O 0.24171 0.91918 0.00876 0.0
O642 O 0.24897 0.87583 1.00383 0.0
Zn643 Zn 0.25306 0.89035 0.02207 0.0
O644 O 0.27104 0.90475 0.01739 0.0
C645 C 0.25958 0.86382 0.03991 0.0
O646 O 0.25859 0.85706 0.02637 0.0
O647 O 0.23407 0.90274 0.0262 0.0
C648 C 0.28487 0.90077 0.01804 0.0
O649 O 0.28771 0.88689 0.02187 0.0
C650 C 0.24967 0.87969 0.98994 0.0
O651 O 0.25308 0.89385 0.9869 0.0
O652 O 0.25778 0.87805 0.041 0.0
C653 C 0.16025 0.48722 0.26366 0.0
O654 O 0.16702 0.49912 0.25769 0.0
O655 O 0.11902 0.51054 0.27943 0.0
Zn656 Zn 0.13342 0.50603 0.26162 0.0
O657 O 0.14787 0.52421 0.25782 0.0
C658 C 0.11634 0.51159 0.23367 0.0
O659 O 0.12106 0.52562 0.23656 0.0
O660 O 0.14596 0.4875 0.26635 0.0
C661 C 0.14611 0.53742 0.26361 0.0
O662 O 0.13429 0.53982 0.27248 0.0
C663 C 0.1234 0.5111 0.29332 0.0
O664 O 0.13782 0.50881 0.29639 0.0
O665 O 0.12031 0.50132 0.24263 0.0
C666 C 0.78769 0.61748 1.00241 0.0
O667 O 0.7814 0.61626 0.98878 0.0
O668 O 0.76884 0.65389 0.99023 0.0
Zn669 Zn 0.76393 0.63973 0.00779 0.0
O670 O 0.74536 0.62591 1.00246 0.0
C671 C 0.75066 0.66383 0.02633 0.0
O672 O 0.74398 0.66663 0.01331 0.0
O673 O 0.78224 0.62676 0.01223 0.0
C674 C 0.73525 0.62235 0.01229 0.0
O675 O 0.73673 0.62773 0.02638 0.0
C676 C 0.7631 0.65206 0.9769 0.0
O677 O 0.75386 0.64034 0.97405 0.0
O678 O 0.75961 0.65278 0.02683 0.0
C679 C 0.85306 0.04256 0.26307 0.0
O680 O 0.84673 0.03094 0.25554 0.0
O681 O 0.89305 0.02009 0.28201 0.0
Zn682 Zn 0.87946 0.02302 0.26326 0.0
O683 O 0.8647 1.00481 0.26014 0.0
C684 C 0.90671 0.02466 0.24325 0.0
O685 O 0.91406 0.02112 0.25565 0.0
O686 O 0.86692 0.04185 0.26738 0.0
C687 C 0.86796 0.99285 0.25254 0.0
O688 O 0.88156 0.99188 0.24633 0.0
C689 C 0.89995 0.00791 0.28443 0.0
O690 O 0.89842 0.99656 0.27449 0.0
O691 O 0.89228 0.02607 0.24385 0.0
C692 C 0.29517 0.12945 0.5078 0.0
O693 O 0.29823 0.1419 0.5004 0.0
O694 O 0.26661 0.15386 0.4905 0.0
Zn695 Zn 0.2631 0.13965 0.50828 0.0
O696 O 0.24491 0.12523 0.50392 0.0
C697 C 0.26342 0.16601 0.5292 0.0
O698 O 0.27191 0.17191 0.51839 0.0
O699 O 0.28152 0.12661 0.51207 0.0
C700 C 0.23235 0.12931 0.49829 0.0
O701 O 0.23089 0.14354 0.49482 0.0
C702 C 0.26942 0.14966 0.47678 0.0
O703 O 0.27032 0.13514 0.47343 0.0
O704 O 0.2585 0.15236 0.52752 0.0
C705 C 0.36923 0.55163 0.77579 0.0
O706 O 0.38192 0.55191 0.78381 0.0
O707 O 0.39454 0.51985 0.78083 0.0
Zn708 Zn 0.38037 0.52274 0.76257 0.0
O709 O 0.36627 0.50421 0.75881 0.0
C710 C 0.40759 0.5257 0.7431 0.0
O711 O 0.41479 0.52286 0.75582 0.0
O712 O 0.36654 0.54065 0.76635 0.0
C713 C 0.37011 0.49054 0.76004 0.0
O714 O 0.38416 0.48773 0.76408 0.0
C715 C 0.39039 0.51343 0.79305 0.0
O716 O 0.37616 0.50852 0.79434 0.0
O717 O 0.39306 0.52624 0.74326 0.0
C718 C 0.72339 0.40169 0.52331 0.0
O719 O 0.72012 0.3881 0.51754 0.0
O720 O 0.75013 0.37709 0.50393 0.0
Zn721 Zn 0.75509 0.39144 0.52217 0.0
O722 O 0.7739 0.40494 0.51801 0.0
C723 C 0.75326 0.3656 0.54211 0.0
O724 O 0.74415 0.36024 0.53118 0.0
O725 O 0.73726 0.40537 0.52629 0.0
C726 C 0.78626 0.40026 0.51216 0.0
O727 O 0.78728 0.38583 0.50846 0.0
C728 C 0.7536 0.37962 0.49009 0.0
O729 O 0.76074 0.3924 0.48683 0.0
O730 O 0.75917 0.37886 0.54095 0.0
C731 C 0.65915 0.98737 0.76255 0.0
O732 O 0.66565 0.99884 0.75559 0.0
O733 O 0.61836 0.01123 0.78008 0.0
Zn734 Zn 0.63335 1.00736 0.76262 0.0
O735 O 0.64842 0.02529 0.76074 0.0
C736 C 0.60959 0.99594 0.74167 0.0
O737 O 0.60563 0.98799 0.75356 0.0
O738 O 0.64522 0.98823 0.76658 0.0
C739 C 0.64441 0.039 0.7608 0.0
O740 O 0.62989 0.04195 0.7625 0.0
C741 C 0.62275 0.01467 0.79364 0.0
O742 O 0.63747 0.01584 0.79651 0.0
O743 O 0.62125 1.00487 0.74273 0.0
C744 C 1.00614 0.23687 0.90931 0.0
O745 O 0.99307 0.24356 0.9113 0.0
O746 O 0.99212 0.25477 0.87263 0.0
Zn747 Zn 0.01047 0.26007 0.88652 0.0
O748 O 1.00553 0.27797 0.90084 0.0
C749 C 0.02931 0.26284 0.85891 0.0
O750 O 0.01726 0.25635 0.85226 0.0
O751 O 0.0154 0.24187 0.89931 0.0
C752 C 0.01481 0.2891 0.9035 0.0
O753 O 0.0283 0.28913 0.89694 0.0
C754 C 0.98 0.26236 0.87284 0.0
O755 O 0.979 0.27385 0.8826 0.0
O756 O 0.02904 0.26549 0.8733 0.0
C757 C 0.5062 0.7314 0.40299 0.0
O758 O 0.49281 0.73104 0.39622 0.0
O759 O 0.49133 0.75533 0.37445 0.0
Zn760 Zn 0.51034 0.76041 0.3875 0.0
O761 O 0.50606 0.77853 0.40172 0.0
C762 C 0.52963 0.76157 0.35983 0.0
O763 O 0.51817 0.75385 0.35343 0.0
O764 O 0.51539 0.74257 0.40082 0.0
C765 C 0.50877 0.79215 0.39799 0.0
O766 O 0.51458 0.79476 0.38444 0.0
C767 C 0.48674 0.76428 0.36439 0.0
O768 O 0.49444 0.77704 0.36238 0.0
O769 O 0.52884 0.7654 0.37396 0.0
C770 C 0.00865 0.79936 0.62117 0.0
O771 O 0.99781 0.80097 0.63139 0.0
O772 O 0.99187 0.77281 0.64682 0.0
Zn773 Zn 0.01129 0.76914 0.6343 0.0
O774 O 0.0083 0.75032 0.62031 0.0
C775 C 0.03384 0.75374 0.65267 0.0
O776 O 0.02645 0.74158 0.6473 0.0
O777 O 0.01584 0.78706 0.62051 0.0
C778 C 0.99929 0.73924 0.62333 0.0
O779 O 0.9915 0.73966 0.63615 0.0
C780 C 0.99059 0.76879 0.66064 0.0
O781 O 1.00197 0.76194 0.66695 0.0
O782 O 0.02952 0.76667 0.64868 0.0
C783 C 0.50546 0.29805 0.11832 0.0
O784 O 0.4921 0.29757 0.12512 0.0
O785 O 0.49258 0.27387 0.14904 0.0
Zn786 Zn 0.51026 0.26956 0.13442 0.0
O787 O 0.50484 0.25102 0.12065 0.0
C788 C 0.52817 0.26071 0.16067 0.0
O789 O 0.51451 0.25768 0.16618 0.0
O790 O 0.5148 0.2876 0.1207 0.0
C791 C 0.51102 0.23826 0.12189 0.0
O792 O 0.52129 0.23669 0.13261 0.0
C793 C 0.47857 0.27146 0.14561 0.0
O794 O 0.47502 0.26626 0.13181 0.0
O795 O 0.52931 0.2658 0.14723 0.0
H796 H 0.22095 0.76818 0.89188 0.0
H797 H 0.22742 0.78443 0.91424 0.0
H798 H 0.23119 0.8231 0.88544 0.0
H799 H 0.2252 0.8069 0.86304 0.0
H800 H 0.254 0.82366 0.90582 0.0
H801 H 0.19919 0.81593 0.90742 0.0
H802 H 0.17517 0.80068 0.90812 0.0
H803 H 0.18927 0.78104 0.94994 0.0
H804 H 0.21348 0.79603 0.94938 0.0
H805 H 0.24867 0.88456 0.95922 0.0
H806 H 0.24416 0.86596 0.93843 0.0
H807 H 0.23991 0.83046 0.97105 0.0
H808 H 0.24413 0.84908 0.99199 0.0
H809 H 0.2184 0.82675 0.94979 0.0
H810 H 0.27243 0.83521 0.94924 0.0
H811 H 0.29659 0.85026 0.94886 0.0
H812 H 0.28446 0.86798 0.90549 0.0
H813 H 0.26012 0.85319 0.90571 0.0
C814 C 0.22334 0.78011 0.89027 0.0
C815 C 0.22244 0.78623 0.87563 0.0
C816 C 0.22689 0.78942 0.9031 0.0
C817 C 0.22959 0.80506 0.90159 0.0
C818 C 0.22909 0.8111 0.88695 0.0
C819 C 0.22552 0.80183 0.87414 0.0
C820 C 0.23278 0.81522 0.91519 0.0
C821 C 0.24613 0.82444 0.91536 0.0
C822 C 0.22278 0.81595 0.9279 0.0
C823 C 0.20821 0.80698 0.92827 0.0
C824 C 0.19722 0.80827 0.9167 0.0
C825 C 0.18356 0.79969 0.91708 0.0
C826 C 0.18071 0.78986 0.92904 0.0
C827 C 0.1915 0.78863 0.94067 0.0
C828 C 0.20519 0.79718 0.94033 0.0
C829 C 0.24679 0.87279 0.96201 0.0
C830 C 0.24683 0.86833 0.97731 0.0
C831 C 0.24428 0.86214 0.95007 0.0
C832 C 0.24192 0.84673 0.9531 0.0
C833 C 0.24175 0.84226 0.96838 0.0
C834 C 0.2442 0.85293 0.98036 0.0
C835 C 0.23951 0.83537 0.94032 0.0
C836 C 0.22632 0.82591 0.94031 0.0
C837 C 0.24971 0.83435 0.92779 0.0
C838 C 0.26439 0.84319 0.92756 0.0
C839 C 0.27487 0.84239 0.93967 0.0
C840 C 0.2886 0.85087 0.93948 0.0
C841 C 0.29204 0.86009 0.92718 0.0
C842 C 0.28177 0.86083 0.91502 0.0
C843 C 0.26801 0.8524 0.91517 0.0
H844 H 0.30268 0.86665 0.92706 0.0
H845 H 0.17013 0.78323 0.92931 0.0
H846 H 0.05253 0.53735 0.41963 0.0
H847 H 0.06871 0.53144 0.39769 0.0
H848 H 0.0301 0.53473 0.36752 0.0
H849 H 0.0138 0.54075 0.38948 0.0
H850 H 0.04736 0.51093 0.35917 0.0
H851 H 0.05641 0.56357 0.37084 0.0
H852 H 0.06265 0.58601 0.38729 0.0
H853 H 0.10663 0.56844 0.39707 0.0
H854 H 0.10056 0.54577 0.38086 0.0
H855 H 0.0926 0.51574 0.29122 0.0
H856 H 0.07472 0.52097 0.31208 0.0
H857 H 0.11139 0.51878 0.34475 0.0
H858 H 0.12934 0.51373 0.324 0.0
H859 H 0.09422 0.54262 0.35105 0.0
H860 H 0.08475 0.48961 0.33972 0.0
H861 H 0.07835 0.46725 0.32322 0.0
H862 H 0.03503 0.48575 0.31248 0.0
H863 H 0.04126 0.50833 0.32877 0.0
C864 C 0.04745 0.5369 0.40833 0.0
C865 C 0.03186 0.53971 0.40635 0.0
C866 C 0.05674 0.53348 0.39578 0.0
C867 C 0.05071 0.53288 0.38088 0.0
C868 C 0.03504 0.53516 0.37888 0.0
C869 C 0.02572 0.53856 0.39147 0.0
C870 C 0.06087 0.5302 0.36746 0.0
C871 C 0.05749 0.51799 0.35727 0.0
C872 C 0.07424 0.53925 0.36506 0.0
C873 C 0.07797 0.55291 0.37474 0.0
C874 C 0.06737 0.56443 0.37659 0.0
C875 C 0.07088 0.5772 0.38586 0.0
C876 C 0.08501 0.57863 0.39325 0.0
C877 C 0.09568 0.56731 0.39136 0.0
C878 C 0.09221 0.5545 0.38212 0.0
C879 C 0.09687 0.51636 0.30285 0.0
C880 C 0.11243 0.51428 0.30591 0.0
C881 C 0.0866 0.51928 0.31478 0.0
C882 C 0.09165 0.52013 0.33004 0.0
C883 C 0.10719 0.51818 0.3331 0.0
C884 C 0.11745 0.51525 0.32119 0.0
C885 C 0.08083 0.52323 0.34285 0.0
C886 C 0.08408 0.53556 0.35292 0.0
C887 C 0.06733 0.51432 0.34509 0.0
C888 C 0.06354 0.50073 0.33534 0.0
C889 C 0.07391 0.48897 0.33374 0.0
C890 C 0.0703 0.47624 0.32445 0.0
C891 C 0.05631 0.4751 0.31677 0.0
C892 C 0.04587 0.48666 0.31842 0.0
C893 C 0.04943 0.49942 0.32769 0.0
H894 H 0.05354 0.46524 0.30958 0.0
H895 H 0.08771 0.58852 0.40042 0.0
H896 H 0.79734 0.76315 0.88773 0.0
H897 H 0.79461 0.74445 0.9077 0.0
H898 H 0.76642 0.716 0.87762 0.0
H899 H 0.76886 0.73477 0.85771 0.0
H900 H 0.75391 0.71858 0.90575 0.0
H901 H 0.8032 0.70722 0.8852 0.0
H902 H 0.82975 0.7128 0.87732 0.0
H903 H 0.8413 0.727 0.92333 0.0
H904 H 0.81475 0.7217 0.93144 0.0
H905 H 0.7523 0.65145 0.94754 0.0
H906 H 0.75681 0.67011 0.92791 0.0
H907 H 0.78542 0.69685 0.95912 0.0
H908 H 0.78111 0.67807 0.97884 0.0
H909 H 0.79797 0.69565 0.93096 0.0
H910 H 0.74904 0.70704 0.95168 0.0
H911 H 0.72252 0.70175 0.95982 0.0
H912 H 0.71028 0.68803 0.91386 0.0
H913 H 0.7368 0.69304 0.90547 0.0
C914 C 0.79054 0.75293 0.88536 0.0
C915 C 0.78333 0.75049 0.87108 0.0
C916 C 0.78909 0.74217 0.89676 0.0
C917 C 0.7804 0.72873 0.89416 0.0
C918 C 0.77322 0.72625 0.87991 0.0
C919 C 0.77473 0.73695 0.86848 0.0
C920 C 0.77841 0.71744 0.9064 0.0
C921 C 0.76355 0.71342 0.91111 0.0
C922 C 0.79098 0.71101 0.91375 0.0
C923 C 0.80694 0.71422 0.90889 0.0
C924 C 0.81137 0.71166 0.89361 0.0
C925 C 0.82643 0.71475 0.88911 0.0
C926 C 0.8372 0.7203 0.89981 0.0
C927 C 0.83294 0.72273 0.91505 0.0
C928 C 0.81789 0.71968 0.91961 0.0
C929 C 0.75959 0.66127 0.95027 0.0
C930 C 0.76628 0.66326 0.96484 0.0
C931 C 0.76211 0.67198 0.93901 0.0
C932 C 0.77128 0.68503 0.94206 0.0
C933 C 0.77826 0.68691 0.95648 0.0
C934 C 0.77575 0.67617 0.96777 0.0
C935 C 0.77345 0.69671 0.93021 0.0
C936 C 0.78834 0.70083 0.92561 0.0
C937 C 0.76091 0.7033 0.92298 0.0
C938 C 0.74494 0.70028 0.92798 0.0
C939 C 0.74072 0.70278 0.94333 0.0
C940 C 0.72568 0.69985 0.94799 0.0
C941 C 0.71473 0.69452 0.93737 0.0
C942 C 0.71879 0.69214 0.92207 0.0
C943 C 0.73382 0.69504 0.91736 0.0
H944 H 0.70309 0.69227 0.941 0.0
H945 H 0.84885 0.72267 0.8963 0.0
H946 H 0.97741 1.00492 0.41188 0.0
H947 H 0.96162 0.01156 0.39012 0.0
H948 H 0.97817 0.97328 0.36417 0.0
H949 H 0.99427 0.96682 0.38569 0.0
H950 H 0.9771 0.99754 0.34663 0.0
H951 H 0.943 0.97218 0.38129 0.0
H952 H 0.93022 0.9679 0.40596 0.0
H953 H 0.91117 0.01199 0.40485 0.0
H954 H 0.92403 0.01662 0.38026 0.0
H955 H 0.9201 0.98574 0.28988 0.0
H956 H 0.93681 0.98344 0.31198 0.0
H957 H 0.91945 0.02459 0.3319 0.0
H958 H 0.90268 0.02705 0.30968 0.0
H959 H 0.92103 1.00131 0.35281 0.0
H960 H 0.9538 0.0258 0.31701 0.0
H961 H 0.96627 0.02959 0.29211 0.0
H962 H 0.98764 0.98676 0.29517 0.0
H963 H 0.97511 0.98259 0.32 0.0
C964 C 0.97784 0.99802 0.40148 0.0
C965 C 0.98706 0.98527 0.4006 0.0
C966 C 0.96869 1.00175 0.38908 0.0
C967 C 0.96853 0.99282 0.37553 0.0
C968 C 0.97803 0.98033 0.37449 0.0
C969 C 0.98714 0.97657 0.38688 0.0
C970 C 0.95835 0.99627 0.36249 0.0
C971 C 0.96483 0.99822 0.34797 0.0
C972 C 0.94235 0.99756 0.36425 0.0
C973 C 0.93462 0.99481 0.37903 0.0
C974 C 0.93619 0.98101 0.38637 0.0
C975 C 0.92892 0.97851 0.40033 0.0
C976 C 0.91993 0.98968 0.40699 0.0
C977 C 0.91817 1.00336 0.39969 0.0
C978 C 0.92544 1.00593 0.38574 0.0
C979 C 0.91981 0.99434 0.29894 0.0
C980 C 0.91005 1.00661 0.29797 0.0
C981 C 0.92943 0.99302 0.31156 0.0
C982 C 0.92949 1.0039 0.32356 0.0
C983 C 0.91963 0.01608 0.32276 0.0
C984 C 0.91009 0.01749 0.31003 0.0
C985 C 0.93978 1.00237 0.33695 0.0
C986 C 0.93332 1.00077 0.35151 0.0
C987 C 0.95579 1.00135 0.33523 0.0
C988 C 0.9634 1.00382 0.32031 0.0
C989 C 0.96106 0.01712 0.31232 0.0
C990 C 0.96816 0.01936 0.29822 0.0
C991 C 0.97772 0.00841 0.29204 0.0
C992 C 0.98022 0.99523 0.29997 0.0
C993 C 0.97313 0.99293 0.31406 0.0
H994 H 0.9832 0.01016 0.28113 0.0
H995 H 0.9143 0.98773 0.41779 0.0
H996 H 0.21588 0.22828 0.65526 0.0
H997 H 0.2233 0.21279 0.63314 0.0
H998 H 0.24588 0.25167 0.61357 0.0
H999 H 0.23801 0.26741 0.63548 0.0
H1000 H 0.22961 0.23607 0.59227 0.0
H1001 H 0.26626 0.22378 0.63017 0.0
H1002 H 0.2751 0.21569 0.65531 0.0
H1003 H 0.25111 0.17296 0.64858 0.0
H1004 H 0.24195 0.18087 0.62347 0.0
H1005 H 0.27087 0.19583 0.53526 0.0
H1006 H 0.264 0.21136 0.55757 0.0
H1007 H 0.23993 0.17307 0.57665 0.0
H1008 H 0.24687 0.15737 0.55435 0.0
H1009 H 0.25718 0.18844 0.59816 0.0
H1010 H 0.22046 0.20095 0.56024 0.0
H1011 H 0.21181 0.20911 0.53505 0.0
H1012 H 0.23625 0.25159 0.54183 0.0
H1013 H 0.24523 0.24359 0.56698 0.0
C1014 C 0.22232 0.23361 0.64621 0.0
C1015 C 0.22631 0.24915 0.64719 0.0
C1016 C 0.22671 0.22467 0.63361 0.0
C1017 C 0.23533 0.23098 0.62172 0.0
C1018 C 0.23929 0.2465 0.62261 0.0
C1019 C 0.23489 0.25547 0.63523 0.0
C1020 C 0.23996 0.22144 0.60827 0.0
C1021 C 0.23584 0.22578 0.59356 0.0
C1022 C 0.24779 0.20779 0.60991 0.0
C1023 C 0.2533 0.20298 0.625 0.0
C1024 C 0.26277 0.21271 0.6341 0.0
C1025 C 0.26785 0.20814 0.64834 0.0
C1026 C 0.26364 0.19384 0.65356 0.0
C1027 C 0.25435 0.18405 0.64453 0.0
C1028 C 0.24922 0.18856 0.63029 0.0
C1029 C 0.26412 0.19066 0.54419 0.0
C1030 C 0.25939 0.17533 0.54295 0.0
C1031 C 0.26014 0.19961 0.55693 0.0
C1032 C 0.25128 0.19346 0.56874 0.0
C1033 C 0.24674 0.17809 0.56768 0.0
C1034 C 0.25069 0.16913 0.5549 0.0
C1035 C 0.24681 0.20308 0.58218 0.0
C1036 C 0.25096 0.19874 0.59689 0.0
C1037 C 0.23905 0.21675 0.58053 0.0
C1038 C 0.23364 0.22161 0.56543 0.0
C1039 C 0.22409 0.21198 0.55631 0.0
C1040 C 0.21911 0.21659 0.54204 0.0
C1041 C 0.22351 0.23085 0.53682 0.0
C1042 C 0.23287 0.24054 0.54587 0.0
C1043 C 0.2379 0.23598 0.56014 0.0
H1044 H 0.21964 0.23439 0.52578 0.0
H1045 H 0.26759 0.19033 0.66459 0.0
H1046 H 0.46569 0.54967 0.60911 0.0
H1047 H 0.45035 0.54453 0.6318 0.0
H1048 H 0.49143 0.54128 0.65851 0.0
H1049 H 0.50688 0.54652 0.63585 0.0
H1050 H 0.47083 0.51921 0.6655 0.0
H1051 H 0.47023 0.57313 0.6604 0.0
H1052 H 0.46621 0.59679 0.64694 0.0
H1053 H 0.41885 0.58427 0.64052 0.0
H1054 H 0.42264 0.56042 0.65376 0.0
H1055 H 0.4386 0.52622 0.73944 0.0
H1056 H 0.45318 0.53008 0.71606 0.0
H1057 H 0.41132 0.53435 0.69081 0.0
H1058 H 0.39659 0.53074 0.7143 0.0
H1059 H 0.43184 0.55547 0.68265 0.0
H1060 H 0.43214 0.50185 0.68816 0.0
H1061 H 0.43603 0.47809 0.70147 0.0
H1062 H 0.48368 0.4898 0.70696 0.0
H1063 H 0.48004 0.51374 0.69386 0.0
C1064 C 0.47149 0.54796 0.61982 0.0
C1065 C 0.48755 0.54865 0.62064 0.0
C1066 C 0.46269 0.54499 0.6328 0.0
C1067 C 0.4697 0.54273 0.64696 0.0
C1068 C 0.48573 0.543 0.64774 0.0
C1069 C 0.49456 0.54595 0.63474 0.0
C1070 C 0.46033 0.5403 0.66096 0.0
C1071 C 0.46244 0.52724 0.66936 0.0
C1072 C 0.44908 0.55055 0.66581 0.0
C1073 C 0.44675 0.56493 0.65794 0.0
C1074 C 0.45898 0.57537 0.65602 0.0
C1075 C 0.45674 0.58883 0.64844 0.0
C1076 C 0.44229 0.59202 0.64285 0.0
C1077 C 0.43004 0.58178 0.64485 0.0
C1078 C 0.43222 0.5683 0.65239 0.0
C1079 C 0.43244 0.52796 0.72893 0.0
C1080 C 0.41638 0.52811 0.72878 0.0
C1081 C 0.44083 0.53009 0.71552 0.0
C1082 C 0.43338 0.53228 0.70157 0.0
C1083 C 0.41735 0.53263 0.7014 0.0
C1084 C 0.40893 0.53053 0.71484 0.0
C1085 C 0.44237 0.5344 0.68725 0.0
C1086 C 0.44019 0.54741 0.67879 0.0
C1087 C 0.45353 0.52408 0.68232 0.0
C1088 C 0.45578 0.50966 0.69015 0.0
C1089 C 0.44342 0.49941 0.69231 0.0
C1090 C 0.44559 0.4859 0.69979 0.0
C1091 C 0.46008 0.48245 0.70509 0.0
C1092 C 0.47246 0.49249 0.70286 0.0
C1093 C 0.47035 0.50603 0.69539 0.0
H1094 H 0.46174 0.47198 0.71088 0.0
H1095 H 0.44058 0.60244 0.63699 0.0
H1096 H 0.78899 0.29269 0.66479 0.0
H1097 H 0.78694 0.31103 0.6445 0.0
H1098 H 0.76154 0.27792 0.6168 0.0
H1099 H 0.764 0.25943 0.63672 0.0
H1100 H 0.78179 0.29246 0.59976 0.0
H1101 H 0.74403 0.307 0.63707 0.0
H1102 H 0.7349 0.3148 0.66268 0.0
H1103 H 0.76468 0.35426 0.66231 0.0
H1104 H 0.77413 0.34658 0.63677 0.0
H1105 H 0.74408 0.33626 0.54646 0.0
H1106 H 0.75017 0.32025 0.56771 0.0
H1107 H 0.7766 0.357 0.58901 0.0
H1108 H 0.77048 0.37323 0.56769 0.0
H1109 H 0.75844 0.34214 0.60977 0.0
H1110 H 0.79468 0.32855 0.5715 0.0
H1111 H 0.80351 0.32083 0.54578 0.0
H1112 H 0.77655 0.27958 0.54789 0.0
H1113 H 0.76738 0.28716 0.57354 0.0
C1114 C 0.78311 0.28926 0.65432 0.0
C1115 C 0.77656 0.27457 0.65249 0.0
C1116 C 0.78181 0.29982 0.64277 0.0
C1117 C 0.77389 0.29596 0.62915 0.0
C1118 C 0.76764 0.28123 0.62719 0.0
C1119 C 0.76894 0.27069 0.63869 0.0
C1120 C 0.772 0.30717 0.6169 0.0
C1121 C 0.77656 0.30326 0.60195 0.0
C1122 C 0.7656 0.3215 0.61976 0.0
C1123 C 0.75991 0.32613 0.63509 0.0
C1124 C 0.74872 0.31728 0.64251 0.0
C1125 C 0.74347 0.32169 0.657 0.0
C1126 C 0.74924 0.33499 0.66414 0.0
C1127 C 0.76024 0.34394 0.65678 0.0
C1128 C 0.76554 0.33957 0.64229 0.0
C1129 C 0.75118 0.34101 0.55565 0.0
C1130 C 0.75683 0.35606 0.5553 0.0
C1131 C 0.75471 0.33178 0.56778 0.0
C1132 C 0.76401 0.33733 0.57989 0.0
C1133 C 0.76945 0.35244 0.57977 0.0
C1134 C 0.76597 0.3617 0.56756 0.0
C1135 C 0.76794 0.32727 0.59261 0.0
C1136 C 0.7638 0.3314 0.60762 0.0
C1137 C 0.77471 0.31313 0.58982 0.0
C1138 C 0.78024 0.30849 0.5744 0.0
C1139 C 0.79054 0.31789 0.56644 0.0
C1140 C 0.79562 0.31353 0.55187 0.0
C1141 C 0.79057 0.29974 0.54519 0.0
C1142 C 0.78045 0.29026 0.55307 0.0
C1143 C 0.77531 0.29458 0.56763 0.0
H1144 H 0.79452 0.29638 0.53391 0.0
H1145 H 0.74516 0.33839 0.67535 0.0
H1146 H 0.51296 0.9644 0.63423 0.0
H1147 H 0.52908 0.96895 0.65676 0.0
H1148 H 0.55468 1.00357 0.63322 0.0
H1149 H 0.53885 0.99874 0.61041 0.0
H1150 H 0.57356 0.98552 0.64775 0.0
H1151 H 0.52915 0.01278 0.66141 0.0
H1152 H 0.50166 0.01667 0.66529 0.0
H1153 H 0.49996 0.98182 0.69844 0.0
H1154 H 0.52741 0.97757 0.69461 0.0
H1155 H 0.61336 0.01191 0.71536 0.0
H1156 H 0.59753 0.01024 0.69227 0.0
H1157 H 0.56908 0.97559 0.71252 0.0
H1158 H 0.58464 0.97738 0.73569 0.0
H1159 H 0.55186 0.99552 0.69926 0.0
H1160 H 0.59604 0.96745 0.68452 0.0
H1161 H 0.62354 0.9636 0.68055 0.0
H1162 H 0.62565 1.00022 0.6494 0.0
H1163 H 0.59819 1.00442 0.65334 0.0
C1164 C 0.52204 0.97296 0.6338 0.0
C1165 C 0.52459 0.98119 0.62045 0.0
C1166 C 0.53118 0.97566 0.64677 0.0
C1167 C 0.54304 0.98672 0.64679 0.0
C1168 C 0.54559 0.99501 0.63352 0.0
C1169 C 0.53643 0.99233 0.62053 0.0
C1170 C 0.55297 0.98933 0.66054 0.0
C1171 C 0.56883 0.98796 0.65897 0.0
C1172 C 0.54682 0.99223 0.67527 0.0
C1173 C 0.53031 0.99477 0.67762 0.0
C1174 C 0.52289 1.00587 0.66944 0.0
C1175 C 0.50732 0.00815 0.67165 0.0
C1176 C 0.49906 0.99948 0.68208 0.0
C1177 C 0.50637 0.98852 0.69035 0.0
C1178 C 0.52194 0.98618 0.68818 0.0
C1179 C 0.60376 1.0039 0.71489 0.0
C1180 C 0.60031 0.99476 0.72741 0.0
C1181 C 0.59474 1.00292 0.70164 0.0
C1182 C 0.58215 0.99268 0.70055 0.0
C1183 C 0.57869 0.98358 0.71305 0.0
C1184 C 0.58766 0.98459 0.7263 0.0
C1185 C 0.57244 0.99151 0.68652 0.0
C1186 C 0.5566 0.99316 0.68803 0.0
C1187 C 0.57861 0.98888 0.67175 0.0
C1188 C 0.5951 0.98635 0.66935 0.0
C1189 C 0.6024 0.97476 0.67691 0.0
C1190 C 0.61797 0.9725 0.67466 0.0
C1191 C 0.62634 0.98169 0.66477 0.0
C1192 C 0.61915 0.99313 0.65708 0.0
C1193 C 0.60359 0.99545 0.65931 0.0
H1194 H 0.6384 0.97992 0.66304 0.0
H1195 H 0.487 1.00126 0.68377 0.0
H1196 H 0.88121 0.22249 0.76627 0.0
H1197 H 0.90244 0.22487 0.78447 0.0
H1198 H 0.88038 0.26184 0.80778 0.0
H1199 H 0.85918 0.25953 0.78965 0.0
H1200 H 0.90953 0.26894 0.80315 0.0
H1201 H 0.88176 0.22586 0.82284 0.0
H1202 H 0.86949 0.20039 0.82154 0.0
H1203 H 0.91229 0.18117 0.80905 0.0
H1204 H 0.92478 0.20656 0.81009 0.0
H1205 H 0.95261 0.27614 0.87093 0.0
H1206 H 0.9321 0.27098 0.85249 0.0
H1207 H 0.95799 0.23542 0.83129 0.0
H1208 H 0.9786 0.2404 0.84992 0.0
H1209 H 0.92811 0.22689 0.83375 0.0
H1210 H 0.95609 0.26954 0.81472 0.0
H1211 H 0.96861 0.29489 0.81589 0.0
H1212 H 0.9257 0.31478 0.82667 0.0
H1213 H 0.91295 0.28952 0.82577 0.0
C1214 C 0.88077 0.23099 0.7754 0.0
C1215 C 0.86848 0.24084 0.77645 0.0
C1216 C 0.89295 0.23235 0.78581 0.0
C1217 C 0.89302 0.24349 0.7976 0.0
C1218 C 0.88066 0.2532 0.79877 0.0
C1219 C 0.86854 0.25189 0.78835 0.0
C1220 C 0.90615 0.24545 0.80843 0.0
C1221 C 0.91344 0.25977 0.80997 0.0
C1222 C 0.91165 0.23339 0.817 0.0
C1223 C 0.90416 0.21813 0.81638 0.0
C1224 C 0.88853 0.21621 0.8197 0.0
C1225 C 0.88154 0.20179 0.81903 0.0
C1226 C 0.8901 0.18917 0.81517 0.0
C1227 C 0.90567 0.19095 0.81201 0.0
C1228 C 0.91271 0.20536 0.81265 0.0
C1229 C 0.95398 0.26719 0.86239 0.0
C1230 C 0.96733 0.25875 0.86188 0.0
C1231 C 0.94223 0.26429 0.85179 0.0
C1232 C 0.94356 0.25296 0.84033 0.0
C1233 C 0.9567 0.24425 0.83999 0.0
C1234 C 0.9685 0.24714 0.85063 0.0
C1235 C 0.93128 0.25044 0.82864 0.0
C1236 C 0.9242 0.23602 0.82689 0.0
C1237 C 0.92598 0.26239 0.81982 0.0
C1238 C 0.93359 0.27762 0.82031 0.0
C1239 C 0.94935 0.27931 0.81745 0.0
C1240 C 0.95648 0.29367 0.81805 0.0
C1241 C 0.94797 0.30644 0.82138 0.0
C1242 C 0.93229 0.30488 0.8241 0.0
C1243 C 0.9251 0.29054 0.82353 0.0
H1244 H 0.95351 0.31754 0.82184 0.0
H1245 H 0.88467 0.17801 0.81466 0.0
H1246 H 0.48619 0.91996 0.46654 0.0
H1247 H 0.49188 0.89751 0.45095 0.0
H1248 H 0.48039 0.86917 0.48879 0.0
H1249 H 0.47463 0.89165 0.5045 0.0
H1250 H 0.50545 0.85923 0.47414 0.0
H1251 H 0.45527 0.87288 0.4596 0.0
H1252 H 0.43537 0.88989 0.45114 0.0
H1253 H 0.4599 0.89735 0.40943 0.0
H1254 H 0.48008 0.88055 0.41774 0.0
H1255 H 0.499 0.79106 0.4278 0.0
H1256 H 0.49355 0.81238 0.44524 0.0
H1257 H 0.50551 0.84358 0.40991 0.0
H1258 H 0.51091 0.8224 0.39243 0.0
H1259 H 0.47929 0.85124 0.42413 0.0
H1260 H 0.52985 0.83791 0.43927 0.0
H1261 H 0.54952 0.82073 0.44791 0.0
H1262 H 0.52376 0.81225 0.48868 0.0
H1263 H 0.50382 0.82923 0.48017 0.0
C1264 C 0.4848 0.90896 0.47156 0.0
C1265 C 0.47978 0.90764 0.48675 0.0
C1266 C 0.48808 0.89611 0.46262 0.0
C1267 C 0.48632 0.88159 0.46859 0.0
C1268 C 0.4818 0.88023 0.4839 0.0
C1269 C 0.47855 0.89311 0.49289 0.0
C1270 C 0.48891 0.86789 0.4587 0.0
C1271 C 0.49956 0.85737 0.46331 0.0
C1272 C 0.48141 0.86551 0.44444 0.0
C1273 C 0.46925 0.87556 0.43936 0.0
C1274 C 0.45648 0.87823 0.44867 0.0
C1275 C 0.44514 0.88782 0.44389 0.0
C1276 C 0.44638 0.89472 0.42977 0.0
C1277 C 0.45896 0.89201 0.42037 0.0
C1278 C 0.47034 0.88244 0.42511 0.0
C1279 C 0.50048 0.80246 0.42374 0.0
C1280 C 0.50543 0.80499 0.4087 0.0
C1281 C 0.49742 0.81465 0.43375 0.0
C1282 C 0.49923 0.82962 0.42895 0.0
C1283 C 0.50403 0.83215 0.4139 0.0
C1284 C 0.50717 0.82 0.40392 0.0
C1285 C 0.49597 0.84269 0.43946 0.0
C1286 C 0.48515 0.85307 0.43498 0.0
C1287 C 0.50327 0.84488 0.45384 0.0
C1288 C 0.51526 0.83471 0.459 0.0
C1289 C 0.52831 0.83228 0.45001 0.0
C1290 C 0.53953 0.8226 0.4549 0.0
C1291 C 0.53787 0.81537 0.46881 0.0
C1292 C 0.52502 0.81784 0.47789 0.0
C1293 C 0.51376 0.8275 0.47305 0.0
H1294 H 0.54656 0.80788 0.47258 0.0
H1295 H 0.43759 0.90214 0.42609 0.0
H1296 H 0.15796 0.3046 0.79808 0.0
H1297 H 0.13579 0.29762 0.81353 0.0
H1298 H 0.1113 0.28276 0.77278 0.0
H1299 H 0.13332 0.2902 0.75716 0.0
H1300 H 0.09344 0.29921 0.7912 0.0
H1301 H 0.12596 0.2573 0.79741 0.0
H1302 H 0.14986 0.2447 0.80342 0.0
H1303 H 0.14872 0.26329 0.84925 0.0
H1304 H 0.12491 0.27618 0.84346 0.0
H1305 H 0.03285 0.25956 0.82796 0.0
H1306 H 0.0552 0.26621 0.81263 0.0
H1307 H 0.07916 0.28215 0.85332 0.0
H1308 H 0.05681 0.27539 0.86883 0.0
H1309 H 0.09728 0.26512 0.83498 0.0
H1310 H 0.06473 0.30704 0.82867 0.0
H1311 H 0.04078 0.31953 0.82262 0.0
H1312 H 0.04195 0.30075 0.77686 0.0
H1313 H 0.06581 0.28797 0.7827 0.0
C1314 C 0.14784 0.29994 0.79236 0.0
C1315 C 0.14746 0.29801 0.77633 0.0
C1316 C 0.1352 0.2958 0.80125 0.0
C1317 C 0.12189 0.2895 0.79437 0.0
C1318 C 0.12145 0.28755 0.77838 0.0
C1319 C 0.13411 0.29169 0.76946 0.0
C1320 C 0.10835 0.28524 0.80385 0.0
C1321 C 0.09424 0.29157 0.80062 0.0
C1322 C 0.10943 0.27558 0.81642 0.0
C1323 C 0.12373 0.26782 0.81995 0.0
C1324 C 0.13087 0.2588 0.80874 0.0
C1325 C 0.14439 0.25159 0.81211 0.0
C1326 C 0.15082 0.25323 0.82669 0.0
C1327 C 0.14373 0.26205 0.83795 0.0
C1328 C 0.13022 0.2693 0.83464 0.0
C1329 C 0.04285 0.26449 0.8337 0.0
C1330 C 0.04298 0.26697 0.84966 0.0
C1331 C 0.05562 0.26835 0.82487 0.0
C1332 C 0.06884 0.27485 0.83177 0.0
C1333 C 0.06909 0.27718 0.84772 0.0
C1334 C 0.05628 0.27335 0.85658 0.0
C1335 C 0.08238 0.27907 0.82231 0.0
C1336 C 0.09649 0.27275 0.82554 0.0
C1337 C 0.0813 0.28872 0.80973 0.0
C1338 C 0.06698 0.29643 0.80617 0.0
C1339 C 0.05981 0.30547 0.81735 0.0
C1340 C 0.04627 0.31262 0.81396 0.0
C1341 C 0.03982 0.3109 0.79938 0.0
C1342 C 0.04694 0.30206 0.78815 0.0
C1343 C 0.06049 0.29487 0.7915 0.0
H1344 H 0.02934 0.31645 0.79677 0.0
H1345 H 0.16129 0.24763 0.82928 0.0
H1346 H 0.5182 0.61298 0.48516 0.0
H1347 H 0.51183 0.63383 0.46879 0.0
H1348 H 0.55408 0.65722 0.48141 0.0
H1349 H 0.56032 0.63662 0.49815 0.0
H1350 H 0.53122 0.67665 0.48084 0.0
H1351 H 0.55025 0.63808 0.44706 0.0
H1352 H 0.55167 0.61245 0.43542 0.0
H1353 H 0.50538 0.61479 0.41973 0.0
H1354 H 0.50361 0.64036 0.43147 0.0
H1355 H 0.5321 0.72928 0.42046 0.0
H1356 H 0.53855 0.709 0.43757 0.0
H1357 H 0.49619 0.68529 0.42598 0.0
H1358 H 0.48972 0.70541 0.40879 0.0
H1359 H 0.51944 0.66614 0.42603 0.0
H1360 H 0.50053 0.70485 0.45999 0.0
H1361 H 0.49939 0.73055 0.47151 0.0
H1362 H 0.54583 0.72804 0.48668 0.0
H1363 H 0.54732 0.70239 0.47506 0.0
C1364 C 0.52606 0.62264 0.48462 0.0
C1365 C 0.53983 0.62304 0.49295 0.0
C1366 C 0.52247 0.6345 0.47512 0.0
C1367 C 0.53257 0.64704 0.47366 0.0
C1368 C 0.54613 0.64766 0.48226 0.0
C1369 C 0.54974 0.63579 0.49174 0.0
C1370 C 0.52911 0.65939 0.46304 0.0
C1371 C 0.52884 0.67436 0.46881 0.0
C1372 C 0.52572 0.65644 0.44738 0.0
C1373 C 0.52675 0.64108 0.44028 0.0
C1374 C 0.54034 0.63308 0.44124 0.0
C1375 C 0.54121 0.61857 0.4346 0.0
C1376 C 0.52861 0.61198 0.42688 0.0
C1377 C 0.51512 0.6199 0.42574 0.0
C1378 C 0.51418 0.63441 0.43237 0.0
C1379 C 0.52416 0.71975 0.42153 0.0
C1380 C 0.51036 0.71903 0.41325 0.0
C1381 C 0.52783 0.70818 0.43139 0.0
C1382 C 0.51779 0.69566 0.43322 0.0
C1383 C 0.50413 0.69482 0.4248 0.0
C1384 C 0.50042 0.70639 0.41498 0.0
C1385 C 0.52149 0.68339 0.44384 0.0
C1386 C 0.52182 0.66843 0.43806 0.0
C1387 C 0.52497 0.68636 0.45947 0.0
C1388 C 0.52409 0.70176 0.46652 0.0
C1389 C 0.51054 0.70982 0.46567 0.0
C1390 C 0.50982 0.72437 0.47224 0.0
C1391 C 0.52254 0.73094 0.47978 0.0
C1392 C 0.536 0.72295 0.48081 0.0
C1393 C 0.53678 0.7084 0.47425 0.0
H1394 H 0.52196 0.74221 0.48486 0.0
H1395 H 0.52931 0.60075 0.42174 0.0
H1396 H 0.88763 0.77661 0.76292 0.0
H1397 H 0.90902 0.77528 0.74518 0.0
H1398 H 0.88253 0.79679 0.71093 0.0
H1399 H 0.86079 0.79778 0.72858 0.0
H1400 H 0.89763 0.77307 0.69864 0.0
H1401 H 0.91092 0.81652 0.72983 0.0
H1402 H 0.9152 0.83136 0.75381 0.0
H1403 H 0.95024 0.80133 0.76673 0.0
H1404 H 0.94603 0.78617 0.74292 0.0
H1405 H 0.96439 0.78238 0.65141 0.0
H1406 H 0.94151 0.78735 0.66668 0.0
H1407 H 0.96213 0.7669 0.70544 0.0
H1408 H 0.98498 0.76206 0.6904 0.0
H1409 H 0.9492 0.79276 0.71394 0.0
H1410 H 0.9343 0.74824 0.68363 0.0
H1411 H 0.92993 0.73341 0.65965 0.0
H1412 H 0.8979 0.76578 0.64496 0.0
H1413 H 0.90224 0.78092 0.66878 0.0
C1414 C 0.88626 0.78097 0.75158 0.0
C1415 C 0.87242 0.78726 0.74719 0.0
C1416 C 0.8986 0.78034 0.74148 0.0
C1417 C 0.89749 0.78609 0.72674 0.0
C1418 C 0.88369 0.79234 0.72225 0.0
C1419 C 0.87131 0.793 0.7324 0.0
C1420 C 0.91074 0.78529 0.71606 0.0
C1421 C 0.90885 0.77762 0.70187 0.0
C1422 C 0.92546 0.79103 0.72031 0.0
C1423 C 0.92807 0.80014 0.73463 0.0
C1424 C 0.91946 0.81301 0.73784 0.0
C1425 C 0.92189 0.82149 0.75139 0.0
C1426 C 0.93297 0.81727 0.7618 0.0
C1427 C 0.94166 0.80458 0.75866 0.0
C1428 C 0.93927 0.79605 0.74513 0.0
C1429 C 0.96404 0.77892 0.66318 0.0
C1430 C 0.97654 0.77179 0.66965 0.0
C1431 C 0.95092 0.78173 0.67189 0.0
C1432 C 0.95002 0.77741 0.68721 0.0
C1433 C 0.96253 0.77037 0.69367 0.0
C1434 C 0.9756 0.76756 0.68501 0.0
C1435 C 0.93617 0.78024 0.69667 0.0
C1436 C 0.93795 0.78833 0.71064 0.0
C1437 C 0.92137 0.77491 0.69219 0.0
C1438 C 0.91873 0.7658 0.6779 0.0
C1439 C 0.92642 0.75226 0.67523 0.0
C1440 C 0.92393 0.74379 0.66168 0.0
C1441 C 0.91368 0.74867 0.65077 0.0
C1442 C 0.90586 0.76202 0.65341 0.0
C1443 C 0.90832 0.77055 0.66693 0.0
H1444 H 0.91177 0.74209 0.64028 0.0
H1445 H 0.93483 0.82385 0.77229 0.0
H1446 H 0.05451 0.89294 0.51808 0.0
H1447 H 0.0486 0.87217 0.53513 0.0
H1448 H 0.01418 0.89873 0.5574 0.0
H1449 H 0.02033 0.91974 0.54065 0.0
H1450 H 0.03152 0.88558 0.57807 0.0
H1451 H 1.00456 0.86909 0.53262 0.0
H1452 H 1.00144 0.86269 0.50516 0.0
H1453 H 0.03468 0.82827 0.50847 0.0
H1454 H 0.03815 0.83461 0.53592 0.0
H1455 H 0.9955 0.82695 0.6198 0.0
H1456 H 1.00111 0.84715 0.60202 0.0
H1457 H 0.03553 0.82015 0.58032 0.0
H1458 H 0.02984 0.79975 0.59799 0.0
H1459 H 0.01838 0.83337 0.55927 0.0
H1460 H 0.0454 0.84985 0.60464 0.0
H1461 H 0.04856 0.85619 0.6321 0.0
H1462 H 0.01533 0.89064 0.62893 0.0
H1463 H 0.01181 0.88436 0.60147 0.0
C1464 C 0.0457 0.89441 0.52662 0.0
C1465 C 0.03791 0.90807 0.52797 0.0
C1466 C 0.04223 0.88243 0.53629 0.0
C1467 C 0.03084 0.88379 0.5475 0.0
C1468 C 0.02299 0.89738 0.54883 0.0
C1469 C 0.02643 0.90935 0.53914 0.0
C1470 C 0.02741 0.87122 0.55812 0.0
C1471 C 0.02842 0.87422 0.57395 0.0
C1472 C 0.02378 0.85626 0.5528 0.0
C1473 C 0.02172 0.85243 0.53629 0.0
C1474 C 0.0113 0.86025 0.52746 0.0
C1475 C 0.00945 0.85661 0.51191 0.0
C1476 C 0.01789 0.84511 0.50507 0.0
C1477 C 0.02817 0.83719 0.51378 0.0
C1478 C 0.03007 0.84079 0.52934 0.0
C1479 C 1.0043 0.82528 0.61128 0.0
C1480 C 0.01225 0.8117 0.6104 0.0
C1481 C 0.00753 0.8369 0.60113 0.0
C1482 C 0.01888 0.83529 0.58991 0.0
C1483 C 0.02674 0.82169 0.58889 0.0
C1484 C 0.02351 0.81004 0.59905 0.0
C1485 C 0.02243 0.84776 0.57921 0.0
C1486 C 0.02147 0.84474 0.56339 0.0
C1487 C 0.02613 0.86271 0.58453 0.0
C1488 C 0.02824 0.86653 0.60103 0.0
C1489 C 0.03867 0.8587 0.60982 0.0
C1490 C 0.04055 0.86229 0.62538 0.0
C1491 C 0.03212 0.87378 0.63226 0.0
C1492 C 0.02183 0.88172 0.62359 0.0
C1493 C 0.01991 0.87816 0.60802 0.0
H1494 H 0.03359 0.87655 0.64431 0.0
H1495 H 0.01643 0.84231 0.49302 0.0
H1496 H 0.13793 0.70843 0.74163 0.0
H1497 H 0.117 0.71445 0.72467 0.0
H1498 H 0.12841 0.76201 0.73057 0.0
H1499 H 0.14956 0.75606 0.74753 0.0
H1500 H 0.09736 0.75656 0.731 0.0
H1501 H 0.13906 0.74341 0.6985 0.0
H1502 H 0.15997 0.72766 0.689 0.0
H1503 H 0.12784 0.69125 0.67836 0.0
H1504 H 0.10675 0.7067 0.688 0.0
H1505 H 0.05145 0.77634 0.66688 0.0
H1506 H 0.07273 0.7735 0.68466 0.0
H1507 H 0.0667 0.72498 0.68083 0.0
H1508 H 0.04564 0.7277 0.66298 0.0
H1509 H 0.09609 0.73284 0.67893 0.0
H1510 H 0.05456 0.74554 0.71249 0.0
H1511 H 0.03364 0.76115 0.7222 0.0
H1512 H 0.06536 0.79839 0.73083 0.0
H1513 H 0.08645 0.78306 0.72096 0.0
C1514 C 0.13608 0.72019 0.73928 0.0
C1515 C 0.14561 0.73174 0.74582 0.0
C1516 C 0.12405 0.72362 0.7296 0.0
C1517 C 0.12125 0.73868 0.72611 0.0
C1518 C 0.13036 0.7503 0.73304 0.0
C1519 C 0.14244 0.74687 0.74277 0.0
C1520 C 0.10907 0.74214 0.71493 0.0
C1521 C 0.0972 0.75157 0.71953 0.0
C1522 C 0.10871 0.73547 0.70002 0.0
C1523 C 0.12134 0.72618 0.69409 0.0
C1524 C 0.13646 0.73201 0.69423 0.0
C1525 C 0.14835 0.72314 0.68881 0.0
C1526 C 0.14524 0.70845 0.68311 0.0
C1527 C 0.13023 0.70262 0.68279 0.0
C1528 C 0.11831 0.71143 0.68822 0.0
C1529 C 0.05465 0.76507 0.66982 0.0
C1530 C 0.0468 0.75225 0.66347 0.0
C1531 C 0.06679 0.76346 0.68006 0.0
C1532 C 0.07128 0.74901 0.68423 0.0
C1533 C 0.0635 0.73624 0.67782 0.0
C1534 C 0.0514 0.73783 0.66761 0.0
C1535 C 0.08419 0.74705 0.69506 0.0
C1536 C 0.09626 0.73792 0.69037 0.0
C1537 C 0.08471 0.75399 0.70986 0.0
C1538 C 0.07205 0.76321 0.71582 0.0
C1539 C 0.05705 0.7571 0.71634 0.0
C1540 C 0.04517 0.76589 0.72189 0.0
C1541 C 0.04816 0.78077 0.72708 0.0
C1542 C 0.06305 0.78688 0.72677 0.0
C1543 C 0.07498 0.77814 0.72121 0.0
H1544 H 0.03894 0.78756 0.73138 0.0
H1545 H 0.15445 0.7016 0.67891 0.0
H1546 H 0.99236 0.6326 0.51672 0.0
H1547 H 0.99798 0.65508 0.53301 0.0
H1548 H 0.96834 0.63724 0.56791 0.0
H1549 H 0.96275 0.61479 0.5518 0.0
H1550 H 0.96259 0.6661 0.56342 0.0
H1551 H 0.0077 0.6374 0.57107 0.0
H1552 H 0.03057 0.62368 0.56306 0.0
H1553 H 0.0492 0.66382 0.54277 0.0
H1554 H 0.02633 0.67773 0.55049 0.0
H1555 H 0.9819 0.71339 0.62704 0.0
H1556 H 0.97859 0.69177 0.60928 0.0
H1557 H 0.00911 0.71329 0.57731 0.0
H1558 H 0.01271 0.73494 0.5952 0.0
H1559 H 0.01481 0.68374 0.57878 0.0
H1560 H 0.97034 0.71272 0.57178 0.0
H1561 H 0.94757 0.72664 0.5797 0.0
H1562 H 0.92771 0.6862 0.59833 0.0
H1563 H 0.95047 0.67208 0.59071 0.0
C1564 C 0.98718 0.63338 0.52794 0.0
C1565 C 0.97702 0.62188 0.53288 0.0
C1566 C 0.9904 0.64626 0.53725 0.0
C1567 C 0.98363 0.64787 0.55175 0.0
C1568 C 0.97363 0.63634 0.55675 0.0
C1569 C 0.9704 0.62351 0.54748 0.0
C1570 C 0.98657 0.66169 0.56164 0.0
C1571 C 0.97401 0.66984 0.56691 0.0
C1572 C 1.00148 0.6669 0.56584 0.0
C1573 C 0.01523 0.65855 0.5612 0.0
C1574 C 0.01662 0.64326 0.56478 0.0
C1575 C 0.02959 0.63546 0.56032 0.0
C1576 C 0.04131 0.64286 0.55237 0.0
C1577 C 0.0401 0.65809 0.54891 0.0
C1578 C 0.02714 0.66595 0.55333 0.0
C1579 C 0.98794 0.71357 0.61624 0.0
C1580 C 0.99751 0.72599 0.61253 0.0
C1581 C 0.98598 0.70119 0.60605 0.0
C1582 C 0.9934 0.70096 0.59181 0.0
C1583 C 1.00321 0.7132 0.58819 0.0
C1584 C 1.00522 0.7256 0.59842 0.0
C1585 C 0.99081 0.68797 0.58076 0.0
C1586 C 1.0034 0.68002 0.57524 0.0
C1587 C 0.97592 0.68294 0.57626 0.0
C1588 C 0.96217 0.69138 0.58078 0.0
C1589 C 0.96117 0.70682 0.57766 0.0
C1590 C 0.94826 0.71474 0.58209 0.0
C1591 C 0.93622 0.70732 0.58955 0.0
C1592 C 0.93705 0.69194 0.59256 0.0
C1593 C 0.94995 0.68397 0.58818 0.0
H1594 H 0.92623 0.71347 0.59297 0.0
H1595 H 0.05135 0.6368 0.54893 0.0
H1596 H 0.79625 0.86679 0.22715 0.0
H1597 H 0.81212 0.88914 0.23378 0.0
H1598 H 0.77203 0.91619 0.23622 0.0
H1599 H 0.75606 0.89387 0.22902 0.0
H1600 H 0.79398 0.93076 0.22124 0.0
H1601 H 0.79088 0.90647 0.26878 0.0
H1602 H 0.79204 0.88561 0.28677 0.0
H1603 H 0.83977 0.88108 0.2772 0.0
H1604 H 0.83886 0.90178 0.25897 0.0
H1605 H 0.83692 0.99337 0.25661 0.0
H1606 H 0.81825 0.97232 0.2529 0.0
H1607 H 0.85462 0.94251 0.24085 0.0
H1608 H 0.87329 0.9635 0.24424 0.0
H1609 H 0.83286 0.93056 0.26248 0.0
H1610 H 0.83455 0.95442 0.21341 0.0
H1611 H 0.83265 0.97592 0.19628 0.0
H1612 H 0.78625 0.98205 0.21036 0.0
H1613 H 0.78795 0.9607 0.22776 0.0
C1614 C 0.79077 0.87749 0.22902 0.0
C1615 C 0.77484 0.8785 0.22749 0.0
C1616 C 0.79987 0.89027 0.23298 0.0
C1617 C 0.7933 0.90438 0.23569 0.0
C1618 C 0.77739 0.90544 0.23425 0.0
C1619 C 0.76825 0.89263 0.23026 0.0
C1620 C 0.80316 0.91802 0.23956 0.0
C1621 C 0.80228 0.93079 0.23045 0.0
C1622 C 0.81414 0.91809 0.25147 0.0
C1623 C 0.81476 0.9056 0.2624 0.0
C1624 C 0.8016 0.90095 0.27041 0.0
C1625 C 0.80222 0.88916 0.28067 0.0
C1626 C 0.81596 0.882 0.2831 0.0
C1627 C 0.82913 0.88663 0.27529 0.0
C1628 C 0.82857 0.8984 0.26501 0.0
C1629 C 0.84094 0.98232 0.2532 0.0
C1630 C 0.8566 0.98012 0.25068 0.0
C1631 C 0.83026 0.97032 0.25105 0.0
C1632 C 0.83505 0.95585 0.24657 0.0
C1633 C 0.85068 0.95357 0.24433 0.0
C1634 C 0.86133 0.9656 0.24621 0.0
C1635 C 0.8238 0.94308 0.24401 0.0
C1636 C 0.82444 0.93052 0.25338 0.0
C1637 C 0.81248 0.94328 0.23249 0.0
C1638 C 0.81144 0.95608 0.22202 0.0
C1639 C 0.82399 0.96044 0.21297 0.0
C1640 C 0.82294 0.97258 0.20318 0.0
C1641 C 0.80936 0.98038 0.20226 0.0
C1642 C 0.79678 0.97602 0.2111 0.0
C1643 C 0.79777 0.9639 0.22092 0.0
H1644 H 0.80857 0.98977 0.19468 0.0
H1645 H 0.81642 0.87288 0.29105 0.0
H1646 H 0.79283 0.16898 0.30492 0.0
H1647 H 0.80817 0.14725 0.29808 0.0
H1648 H 0.76814 0.12362 0.2797 0.0
H1649 H 0.75258 0.14518 0.28703 0.0
H1650 H 0.7843 0.10524 0.29667 0.0
H1651 H 0.79574 0.1391 0.25623 0.0
H1652 H 0.80379 0.16325 0.24489 0.0
H1653 H 0.8476 0.16119 0.26662 0.0
H1654 H 0.83973 0.1371 0.27827 0.0
H1655 H 0.82282 0.04656 0.25719 0.0
H1656 H 0.80768 0.0686 0.26341 0.0
H1657 H 0.84734 0.09144 0.28347 0.0
H1658 H 0.86266 0.06938 0.27719 0.0
H1659 H 0.83143 0.1102 0.26556 0.0
H1660 H 0.81987 0.07637 0.30605 0.0
H1661 H 0.81179 0.0522 0.31733 0.0
H1662 H 0.7681 0.05422 0.29535 0.0
H1663 H 0.776 0.07832 0.28376 0.0
C1664 C 0.78723 0.15914 0.29951 0.0
C1665 C 0.77142 0.15887 0.29657 0.0
C1666 C 0.79608 0.14675 0.29545 0.0
C1667 C 0.78938 0.13381 0.28821 0.0
C1668 C 0.77361 0.13348 0.28523 0.0
C1669 C 0.76473 0.14589 0.28931 0.0
C1670 C 0.79879 0.12052 0.28406 0.0
C1671 C 0.79447 0.1063 0.28967 0.0
C1672 C 0.81232 0.12191 0.27525 0.0
C1673 C 0.81709 0.13637 0.26824 0.0
C1674 C 0.80705 0.14385 0.25869 0.0
C1675 C 0.81159 0.15752 0.25219 0.0
C1676 C 0.82618 0.16377 0.25507 0.0
C1677 C 0.83629 0.15634 0.26442 0.0
C1678 C 0.8318 0.14267 0.27096 0.0
C1679 C 0.82837 0.05625 0.26292 0.0
C1680 C 0.84398 0.05614 0.26673 0.0
C1681 C 0.81965 0.06885 0.26653 0.0
C1682 C 0.8263 0.08165 0.27407 0.0
C1683 C 0.84194 0.08169 0.27768 0.0
C1684 C 0.85068 0.06905 0.27412 0.0
C1685 C 0.81691 0.09495 0.27815 0.0
C1686 C 0.82124 0.10916 0.27254 0.0
C1687 C 0.80339 0.09355 0.28694 0.0
C1688 C 0.79859 0.07908 0.29391 0.0
C1689 C 0.80859 0.0716 0.30352 0.0
C1690 C 0.80403 0.05792 0.30999 0.0
C1691 C 0.78946 0.05166 0.30703 0.0
C1692 C 0.77939 0.05908 0.29762 0.0
C1693 C 0.7839 0.07275 0.2911 0.0
H1694 H 0.78595 0.04107 0.31205 0.0
H1695 H 0.82968 0.17435 0.25002 0.0
H1696 H 0.38333 1.00728 0.98138 0.0
H1697 H 0.36102 0.99141 0.98793 0.0
H1698 H 0.39055 0.95521 0.99908 0.0
H1699 H 0.41286 0.97099 0.99262 0.0
H1700 H 0.36754 0.9447 0.98165 0.0
H1701 H 0.37232 0.97667 0.02695 0.0
H1702 H 0.37413 1.00091 0.04156 0.0
H1703 H 0.33028 0.01286 0.02452 0.0
H1704 H 0.32829 0.98876 0.00964 0.0
H1705 H 0.31554 0.89596 0.01927 0.0
H1706 H 0.33658 0.91353 0.01332 0.0
H1707 H 0.30443 0.94764 1.00269 0.0
H1708 H 0.28323 0.93015 0.00889 0.0
H1709 H 0.32791 0.95987 0.01903 0.0
H1710 H 0.32272 0.92791 0.97424 0.0
H1711 H 0.32067 0.90374 0.95953 0.0
H1712 H 0.36509 0.892 0.97522 0.0
H1713 H 0.36732 0.91602 0.9902 0.0
C1714 C 0.3851 0.99602 0.98543 0.0
C1715 C 0.39994 0.99042 0.98641 0.0
C1716 C 0.37231 0.98693 0.98916 0.0
C1717 C 0.37406 0.97209 0.99409 0.0
C1718 C 0.38886 0.96657 0.99524 0.0
C1719 C 0.40163 0.97561 0.99149 0.0
C1720 C 0.36052 0.96212 0.99761 0.0
C1721 C 0.35899 0.94796 0.98998 0.0
C1722 C 0.34906 0.9665 0.00811 0.0
C1723 C 0.35023 0.98098 0.01706 0.0
C1724 C 0.36312 0.98452 0.02622 0.0
C1725 C 0.36417 0.99823 0.03457 0.0
C1726 C 0.35235 0.00844 0.03393 0.0
C1727 C 0.33944 1.00495 0.02498 0.0
C1728 C 0.33834 0.99127 0.0166 0.0
C1729 C 0.31289 0.90719 0.01567 0.0
C1730 C 0.29765 0.91159 0.01449 0.0
C1731 C 0.32497 0.91723 0.0122 0.0
C1732 C 0.32214 0.93188 0.00733 0.0
C1733 C 0.30693 0.9364 1.00638 0.0
C1734 C 0.29482 0.92636 0.00988 0.0
C1735 C 0.33506 0.94239 1.00322 0.0
C1736 C 0.33645 0.95664 0.01069 0.0
C1737 C 0.34639 0.93813 0.99252 0.0
C1738 C 0.34512 0.92371 0.98346 0.0
C1739 C 0.332 0.92013 0.97465 0.0
C1740 C 0.33081 0.90646 0.96624 0.0
C1741 C 0.34272 0.89633 0.96647 0.0
C1742 C 0.35586 0.89985 0.97507 0.0
C1743 C 0.3571 0.9135 0.98351 0.0
H1744 H 0.34178 0.88575 0.95996 0.0
H1745 H 0.35318 0.01904 0.04041 0.0
H1746 H 0.2643 0.39107 0.27714 0.0
H1747 H 0.24624 0.41137 0.27549 0.0
H1748 H 0.2098 0.38113 0.28984 0.0
H1749 H 0.22783 0.36052 0.29107 0.0
H1750 H 0.20075 0.39756 0.26626 0.0
H1751 H 0.22462 0.40856 0.31437 0.0
H1752 H 0.24597 0.41286 0.3325 0.0
H1753 H 0.26204 0.45101 0.30715 0.0
H1754 H 0.2409 0.44682 0.28874 0.0
H1755 H 0.15008 0.4598 0.27461 0.0
H1756 H 0.16533 0.43777 0.28001 0.0
H1757 H 0.20606 0.46213 0.26585 0.0
H1758 H 0.19101 0.48412 0.26057 0.0
H1759 H 0.21108 0.44762 0.2918 0.0
H1760 H 0.1883 0.43505 0.24258 0.0
H1761 H 0.16695 0.4306 0.22448 0.0
H1762 H 0.1486 0.39528 0.25237 0.0
H1763 H 0.16976 0.39966 0.27075 0.0
C1764 C 0.25244 0.38866 0.27987 0.0
C1765 C 0.24755 0.37409 0.28419 0.0
C1766 C 0.24212 0.40036 0.27907 0.0
C1767 C 0.22664 0.39788 0.28271 0.0
C1768 C 0.22168 0.38336 0.28704 0.0
C1769 C 0.23203 0.37161 0.28785 0.0
C1770 C 0.2157 0.41042 0.28163 0.0
C1771 C 0.20286 0.40842 0.27208 0.0
C1772 C 0.21852 0.4247 0.28903 0.0
C1773 C 0.23123 0.4273 0.3001 0.0
C1774 C 0.23277 0.4178 0.31259 0.0
C1775 C 0.24482 0.42023 0.32293 0.0
C1776 C 0.25537 0.43218 0.32096 0.0
C1777 C 0.25387 0.44175 0.30866 0.0
C1778 C 0.24184 0.43936 0.29828 0.0
C1779 C 0.16229 0.46047 0.27266 0.0
C1780 C 0.16929 0.47375 0.26711 0.0
C1781 C 0.17099 0.44783 0.2757 0.0
C1782 C 0.18686 0.44822 0.27323 0.0
C1783 C 0.19386 0.46153 0.26787 0.0
C1784 C 0.18519 0.4741 0.2648 0.0
C1785 C 0.19631 0.43485 0.27619 0.0
C1786 C 0.20888 0.43671 0.28611 0.0
C1787 C 0.19321 0.42045 0.26917 0.0
C1788 C 0.18051 0.4178 0.25813 0.0
C1789 C 0.17964 0.42642 0.24492 0.0
C1790 C 0.16759 0.42389 0.2346 0.0
C1791 C 0.1564 0.41269 0.2373 0.0
C1792 C 0.15726 0.40397 0.25031 0.0
C1793 C 0.16929 0.40646 0.26068 0.0
H1794 H 0.14708 0.41075 0.22929 0.0
H1795 H 0.2647 0.43404 0.32898 0.0
H1796 H 0.12898 0.02002 0.48649 0.0
H1797 H 0.15144 0.03656 0.49174 0.0
H1798 H 0.12875 0.07369 0.47157 0.0
H1799 H 0.10632 0.05732 0.46639 0.0
H1800 H 0.15707 0.07199 0.46096 0.0
H1801 H 0.13348 0.07133 0.51062 0.0
H1802 H 0.12269 0.05954 0.53358 0.0
H1803 H 0.16566 0.0394 0.54245 0.0
H1804 H 0.17664 0.0509 0.5194 0.0
H1805 H 0.20441 0.13414 0.4856 0.0
H1806 H 0.18308 0.116 0.48173 0.0
H1807 H 0.20946 0.08115 0.50151 0.0
H1808 H 0.23087 0.0993 0.50556 0.0
H1809 H 0.18042 0.08042 0.51226 0.0
H1810 H 0.20429 0.08169 0.46321 0.0
H1811 H 0.2152 0.09349 0.44031 0.0
H1812 H 0.17184 0.11227 0.43028 0.0
H1813 H 0.16071 0.10076 0.45324 0.0
C1814 C 0.1287 0.03175 0.48335 0.0
C1815 C 0.11584 0.03728 0.47593 0.0
C1816 C 0.14157 0.04121 0.48634 0.0
C1817 C 0.14181 0.05642 0.4821 0.0
C1818 C 0.12892 0.06199 0.47487 0.0
C1819 C 0.11609 0.05257 0.47187 0.0
C1820 C 0.15558 0.06652 0.48475 0.0
C1821 C 0.16205 0.07396 0.47222 0.0
C1822 C 0.16242 0.06878 0.49935 0.0
C1823 C 0.15583 0.06184 0.51319 0.0
C1824 C 0.14059 0.06428 0.51739 0.0
C1825 C 0.13445 0.05767 0.53044 0.0
C1826 C 0.14347 0.04869 0.53944 0.0
C1827 C 0.15867 0.04633 0.53544 0.0
C1828 C 0.16486 0.0529 0.52239 0.0
C1829 C 0.20572 0.12262 0.48912 0.0
C1830 C 0.21941 0.11819 0.49584 0.0
C1831 C 0.19351 0.11223 0.48685 0.0
C1832 C 0.19469 0.09713 0.49117 0.0
C1833 C 0.20827 0.09271 0.49806 0.0
C1834 C 0.22053 0.1031 0.50031 0.0
C1835 C 0.18173 0.08604 0.48851 0.0
C1836 C 0.17546 0.0784 0.501 0.0
C1837 C 0.17506 0.08356 0.47387 0.0
C1838 C 0.1817 0.09047 0.46003 0.0
C1839 C 0.19711 0.08844 0.45619 0.0
C1840 C 0.20333 0.09506 0.44318 0.0
C1841 C 0.19423 0.10366 0.43387 0.0
C1842 C 0.17888 0.10562 0.43751 0.0
C1843 C 0.17261 0.09904 0.45052 0.0
H1844 H 0.19907 0.10877 0.4238 0.0
H1845 H 0.1387 0.04359 0.54954 0.0
H1846 H 0.75955 0.13012 0.73571 0.0
H1847 H 0.7406 0.10968 0.73913 0.0
H1848 H 0.70573 0.14242 0.74671 0.0
H1849 H 0.72477 0.16297 0.74382 0.0
H1850 H 0.70359 0.12101 0.76744 0.0
H1851 H 0.70794 0.12145 0.71289 0.0
H1852 H 0.72126 0.1209 0.68808 0.0
H1853 H 0.73831 0.07713 0.69742 0.0
H1854 H 0.72525 0.0775 0.72239 0.0
H1855 H 0.63977 0.06948 0.76138 0.0
H1856 H 0.65852 0.08998 0.75725 0.0
H1857 H 0.69382 0.05747 0.75106 0.0
H1858 H 0.67509 0.03685 0.75506 0.0
H1859 H 0.69561 0.07877 0.72949 0.0
H1860 H 0.69144 0.07846 0.78409 0.0
H1861 H 0.67808 0.07896 0.80888 0.0
H1862 H 0.66065 0.12253 0.79937 0.0
H1863 H 0.67375 0.1222 0.77441 0.0
C1864 C 0.74787 0.13301 0.73816 0.0
C1865 C 0.74373 0.14824 0.7395 0.0
C1866 C 0.73698 0.12128 0.73997 0.0
C1867 C 0.72166 0.12446 0.74304 0.0
C1868 C 0.71746 0.13965 0.74431 0.0
C1869 C 0.72835 0.1514 0.7425 0.0
C1870 C 0.71012 0.11197 0.74537 0.0
C1871 C 0.70169 0.11191 0.75902 0.0
C1872 C 0.70787 0.09983 0.7346 0.0
C1873 C 0.71573 0.09957 0.71958 0.0
C1874 C 0.71463 0.11176 0.70971 0.0
C1875 C 0.72211 0.11147 0.69561 0.0
C1876 C 0.73066 0.09901 0.69119 0.0
C1877 C 0.7317 0.08679 0.70086 0.0
C1878 C 0.72425 0.08703 0.71499 0.0
C1879 C 0.65153 0.06666 0.75918 0.0
C1880 C 0.65591 0.05148 0.7586 0.0
C1881 C 0.66226 0.07843 0.75687 0.0
C1882 C 0.67764 0.07531 0.75398 0.0
C1883 C 0.68203 0.06017 0.75329 0.0
C1884 C 0.67131 0.04839 0.75564 0.0
C1885 C 0.68909 0.08785 0.75154 0.0
C1886 C 0.69751 0.0879 0.73789 0.0
C1887 C 0.69132 0.09998 0.7623 0.0
C1888 C 0.68345 0.10023 0.77731 0.0
C1889 C 0.68466 0.08809 0.78723 0.0
C1890 C 0.67715 0.08835 0.80132 0.0
C1891 C 0.66849 0.10075 0.80568 0.0
C1892 C 0.66735 0.11293 0.79597 0.0
C1893 C 0.67482 0.11271 0.78185 0.0
H1894 H 0.66268 0.10094 0.8166 0.0
H1895 H 0.73644 0.09881 0.68026 0.0
H1896 H 0.41789 0.05345 0.52316 0.0
H1897 H 0.39707 0.07016 0.51745 0.0
H1898 H 0.36549 0.04084 0.54127 0.0
H1899 H 0.38629 0.02402 0.54698 0.0
H1900 H 0.3527 0.05022 0.51567 0.0
H1901 H 0.37967 0.0742 0.55789 0.0
H1902 H 0.4022 0.08477 0.57184 0.0
H1903 H 0.40978 0.11725 0.5369 0.0
H1904 H 0.3874 0.10673 0.52263 0.0
H1905 H 0.29297 0.10286 0.52318 0.0
H1906 H 0.31325 0.08528 0.52826 0.0
H1907 H 0.3455 0.11398 0.50456 0.0
H1908 H 0.32535 0.13173 0.49965 0.0
H1909 H 0.35773 0.10472 0.53034 0.0
H1910 H 0.33059 0.08057 0.48812 0.0
H1911 H 0.30796 0.06992 0.47437 0.0
H1912 H 0.30053 0.03775 0.50961 0.0
H1913 H 0.323 0.04834 0.52368 0.0
C1914 C 0.40653 0.05057 0.52724 0.0
C1915 C 0.40382 0.03742 0.53564 0.0
C1916 C 0.39461 0.06015 0.52396 0.0
C1917 C 0.3797 0.05693 0.52914 0.0
C1918 C 0.37687 0.0436 0.53716 0.0
C1919 C 0.38879 0.03396 0.54038 0.0
C1920 C 0.36715 0.06758 0.52637 0.0
C1921 C 0.35373 0.06209 0.51906 0.0
C1922 C 0.36854 0.08317 0.53052 0.0
C1923 C 0.38194 0.08958 0.53912 0.0
C1924 C 0.3862 0.08353 0.55313 0.0
C1925 C 0.39894 0.08952 0.5611 0.0
C1926 C 0.40744 0.10165 0.55524 0.0
C1927 C 0.4032 0.10784 0.54141 0.0
C1928 C 0.39048 0.10187 0.53339 0.0
C1929 C 0.30438 0.10545 0.51903 0.0
C1930 C 0.30749 0.11873 0.51096 0.0
C1931 C 0.31596 0.09532 0.52188 0.0
C1932 C 0.33092 0.09817 0.51664 0.0
C1933 C 0.33408 0.11149 0.50872 0.0
C1934 C 0.32251 0.12164 0.50588 0.0
C1935 C 0.34331 0.08739 0.51955 0.0
C1936 C 0.3567 0.09285 0.52693 0.0
C1937 C 0.34187 0.07178 0.5155 0.0
C1938 C 0.32839 0.06535 0.50703 0.0
C1939 C 0.32406 0.0713 0.493 0.0
C1940 C 0.31128 0.06526 0.48513 0.0
C1941 C 0.30279 0.05319 0.49114 0.0
C1942 C 0.3071 0.04711 0.50499 0.0
C1943 C 0.31987 0.05312 0.51291 0.0
H1944 H 0.29289 0.04853 0.48503 0.0
H1945 H 0.4173 0.10627 0.56143 0.0
H1946 H 0.63021 0.51106 0.55142 0.0
H1947 H 0.65169 0.49444 0.547 0.0
H1948 H 0.62045 0.45848 0.53181 0.0
H1949 H 0.59896 0.47502 0.53612 0.0
H1950 H 0.6405 0.44819 0.55152 0.0
H1951 H 0.64341 0.47817 0.5066 0.0
H1952 H 0.6452 0.50174 0.49225 0.0
H1953 H 0.68789 0.51369 0.51423 0.0
H1954 H 0.68625 0.49027 0.52886 0.0
H1955 H 0.69266 0.39713 0.51865 0.0
H1956 H 0.6724 0.41513 0.52281 0.0
H1957 H 0.70568 0.44911 0.53827 0.0
H1958 H 0.72611 0.43118 0.53398 0.0
H1959 H 0.6853 0.46097 0.5192 0.0
H1960 H 0.68274 0.43095 0.56373 0.0
H1961 H 0.68108 0.40746 0.57821 0.0
H1962 H 0.63781 0.39579 0.55725 0.0
H1963 H 0.63932 0.41912 0.54248 0.0
C1964 C 0.62792 0.49969 0.54692 0.0
C1965 C 0.61281 0.4944 0.54417 0.0
C1966 C 0.64023 0.49017 0.54441 0.0
C1967 C 0.63774 0.47518 0.53899 0.0
C1968 C 0.62269 0.46995 0.53607 0.0
C1969 C 0.61039 0.47944 0.53858 0.0
C1970 C 0.6507 0.46477 0.5368 0.0
C1971 C 0.65019 0.45092 0.54428 0.0
C1972 C 0.66361 0.46846 0.52773 0.0
C1973 C 0.66462 0.48254 0.51894 0.0
C1974 C 0.65311 0.48588 0.50847 0.0
C1975 C 0.65411 0.4992 0.50026 0.0
C1976 C 0.66663 0.50922 0.50236 0.0
C1977 C 0.67819 0.50592 0.51264 0.0
C1978 C 0.67724 0.49262 0.52088 0.0
C1979 C 0.69572 0.40842 0.52297 0.0
C1980 C 0.71105 0.41265 0.52604 0.0
C1981 C 0.68407 0.4187 0.5254 0.0
C1982 C 0.68745 0.43347 0.53103 0.0
C1983 C 0.70277 0.4378 0.53395 0.0
C1984 C 0.71444 0.42749 0.53154 0.0
C1985 C 0.67499 0.44434 0.53378 0.0
C1986 C 0.67561 0.45827 0.52645 0.0
C1987 C 0.66217 0.44075 0.54301 0.0
C1988 C 0.66122 0.42672 0.55189 0.0
C1989 C 0.67293 0.42332 0.56211 0.0
C1990 C 0.67201 0.41004 0.57039 0.0
C1991 C 0.65937 0.40012 0.56862 0.0
C1992 C 0.64761 0.40348 0.5586 0.0
C1993 C 0.64849 0.41673 0.55028 0.0
H1994 H 0.65867 0.38985 0.57505 0.0
H1995 H 0.66738 0.51953 0.496 0.0
H1996 H 0.73965 0.29627 0.3675 0.0
H1997 H 0.74606 0.31293 0.38946 0.0
H1998 H 0.71054 0.2911 0.41578 0.0
H1999 H 0.70398 0.27447 0.39376 0.0
H2000 H 0.70929 0.32033 0.42018 0.0
H2001 H 0.74916 0.2851 0.42211 0.0
H2002 H 0.77039 0.26986 0.41249 0.0
H2003 H 0.79632 0.3104 0.40269 0.0
H2004 H 0.77515 0.32589 0.41206 0.0
H2005 H 0.73459 0.35445 0.49155 0.0
H2006 H 0.72848 0.33573 0.47109 0.0
H2007 H 0.75818 0.35998 0.44039 0.0
H2008 H 0.76424 0.3788 0.4607 0.0
H2009 H 0.76228 0.32857 0.43934 0.0
H2010 H 0.72108 0.36344 0.43714 0.0
H2011 H 0.69972 0.37789 0.44776 0.0
H2012 H 0.67621 0.33652 0.45944 0.0
H2013 H 0.69754 0.32182 0.44908 0.0
C2014 C 0.73334 0.29486 0.37802 0.0
C2015 C 0.72132 0.28398 0.37885 0.0
C2016 C 0.73701 0.30441 0.39061 0.0
C2017 C 0.72891 0.30321 0.40441 0.0
C2018 C 0.71696 0.29231 0.40529 0.0
C2019 C 0.71321 0.28281 0.39267 0.0
C2020 C 0.73262 0.31361 0.41774 0.0
C2021 C 0.72085 0.32191 0.4245 0.0
C2022 C 0.74773 0.31592 0.42333 0.0
C2023 C 0.7605 0.30666 0.41766 0.0
C2024 C 0.75933 0.29077 0.41779 0.0
C2025 C 0.77137 0.28209 0.4124 0.0
C2026 C 0.78468 0.28916 0.40695 0.0
C2027 C 0.786 0.30494 0.4069 0.0
C2028 C 0.77399 0.31368 0.41226 0.0
C2029 C 0.73982 0.35581 0.48045 0.0
C2030 C 0.74987 0.36817 0.47776 0.0
C2031 C 0.73629 0.34511 0.46875 0.0
C2032 C 0.74282 0.34649 0.45417 0.0
C2033 C 0.75301 0.35869 0.45154 0.0
C2034 C 0.75641 0.36948 0.46316 0.0
C2035 C 0.73898 0.33529 0.44161 0.0
C2036 C 0.75073 0.32687 0.43502 0.0
C2037 C 0.72383 0.33273 0.43631 0.0
C2038 C 0.71098 0.34154 0.44249 0.0
C2039 C 0.71141 0.35743 0.4421 0.0
C2040 C 0.6993 0.36567 0.44804 0.0
C2041 C 0.68663 0.35813 0.45431 0.0
C2042 C 0.68604 0.34234 0.45461 0.0
C2043 C 0.69813 0.33405 0.44869 0.0
H2044 H 0.67727 0.36453 0.45891 0.0
H2045 H 0.79399 0.28242 0.40279 0.0
H2046 H 0.55101 0.04286 0.91858 0.0
H2047 H 0.56725 0.03722 0.89663 0.0
H2048 H 0.52739 0.03059 0.86803 0.0
H2049 H 0.51098 0.03638 0.89 0.0
H2050 H 0.54869 0.00924 0.86168 0.0
H2051 H 0.54811 0.06316 0.86666 0.0
H2052 H 0.55053 0.08798 0.88011 0.0
H2053 H 0.59756 0.08006 0.8901 0.0
H2054 H 0.59535 0.05507 0.87689 0.0
H2055 H 0.5914 0.013 0.79192 0.0
H2056 H 0.57304 0.01748 0.81253 0.0
H2057 H 0.61017 0.02663 0.84417 0.0
H2058 H 0.62854 0.02238 0.82363 0.0
H2059 H 0.58889 0.04716 0.84792 0.0
H2060 H 0.58916 0.99281 0.84367 0.0
H2061 H 0.58663 0.96793 0.83031 0.0
H2062 H 0.54016 0.97673 0.81879 0.0
H2063 H 0.54247 1.00176 0.83192 0.0
C2064 C 0.54565 0.04028 0.90762 0.0
C2065 C 0.52965 0.04028 0.90607 0.0
C2066 C 0.55498 0.03701 0.89507 0.0
C2067 C 0.54858 0.03372 0.88059 0.0
C2068 C 0.5326 0.03314 0.87907 0.0
C2069 C 0.52323 0.03641 0.89166 0.0
C2070 C 0.55867 0.03129 0.86705 0.0
C2071 C 0.55733 0.01762 0.85853 0.0
C2072 C 0.57012 0.04212 0.86303 0.0
C2073 C 0.57152 0.05718 0.8709 0.0
C2074 C 0.55893 0.06666 0.87182 0.0
C2075 C 0.56027 0.08077 0.87938 0.0
C2076 C 0.57418 0.08558 0.88598 0.0
C2077 C 0.58679 0.07631 0.88499 0.0
C2078 C 0.5855 0.06218 0.87746 0.0
C2079 C 0.59566 0.01595 0.80326 0.0
C2080 C 0.61148 0.0173 0.80609 0.0
C2081 C 0.58514 0.01844 0.81507 0.0
C2082 C 0.59018 0.02226 0.82999 0.0
C2083 C 0.60596 0.0237 0.83279 0.0
C2084 C 0.61647 0.02122 0.82101 0.0
C2085 C 0.57911 0.02499 0.84267 0.0
C2086 C 0.58023 0.03877 0.85102 0.0
C2087 C 0.56747 0.01427 0.84649 0.0
C2088 C 0.56604 0.99922 0.83863 0.0
C2089 C 0.57844 0.98949 0.83818 0.0
C2090 C 0.57704 0.97535 0.83067 0.0
C2091 C 0.56326 0.97078 0.82366 0.0
C2092 C 0.55083 0.98031 0.8242 0.0
C2093 C 0.55218 0.99446 0.83168 0.0
H2094 H 0.56219 0.95983 0.81786 0.0
H2095 H 0.5752 0.09651 0.89183 0.0
H2096 H 0.28888 0.23081 0.3562 0.0
H2097 H 0.28759 0.21175 0.37591 0.0
H2098 H 0.27667 0.2462 0.40967 0.0
H2099 H 0.27846 0.26537 0.39016 0.0
H2100 H 0.29655 0.22734 0.42112 0.0
H2101 H 0.24896 0.22196 0.39381 0.0
H2102 H 0.23256 0.21811 0.37104 0.0
H2103 H 0.25215 0.17489 0.36188 0.0
H2104 H 0.26883 0.17858 0.3845 0.0
H2105 H 0.26704 0.18048 0.47946 0.0
H2106 H 0.27039 0.19905 0.45949 0.0
H2107 H 0.28033 0.16331 0.42678 0.0
H2108 H 0.2767 0.14464 0.44663 0.0
H2109 H 0.26163 0.18243 0.41446 0.0
H2110 H 0.30876 0.18748 0.44223 0.0
H2111 H 0.32508 0.19133 0.46506 0.0
H2112 H 0.30642 0.23511 0.4734 0.0
H2113 H 0.28983 0.23143 0.45073 0.0
C2114 C 0.28639 0.23438 0.36784 0.0
C2115 C 0.28367 0.24966 0.37152 0.0
C2116 C 0.2855 0.22342 0.3791 0.0
C2117 C 0.2818 0.22746 0.39428 0.0
C2118 C 0.27947 0.24275 0.39805 0.0
C2119 C 0.28036 0.2537 0.38682 0.0
C2120 C 0.28017 0.21579 0.40622 0.0
C2121 C 0.28879 0.21761 0.41973 0.0
C2122 C 0.2703 0.20288 0.40432 0.0
C2123 C 0.26025 0.20062 0.39075 0.0
C2124 C 0.24986 0.21169 0.38687 0.0
C2125 C 0.2405 0.20953 0.374 0.0
C2126 C 0.24135 0.19628 0.36499 0.0
C2127 C 0.25153 0.18516 0.36886 0.0
C2128 C 0.26093 0.18727 0.3817 0.0
C2129 C 0.26997 0.17654 0.46802 0.0
C2130 C 0.27163 0.16103 0.46469 0.0
C2131 C 0.27196 0.18721 0.45661 0.0
C2132 C 0.27582 0.18265 0.44161 0.0
C2133 C 0.27738 0.16715 0.43824 0.0
C2134 C 0.27534 0.15647 0.44963 0.0
C2135 C 0.27798 0.19399 0.42941 0.0
C2136 C 0.26945 0.19212 0.41585 0.0
C2137 C 0.28793 0.20685 0.43126 0.0
C2138 C 0.29795 0.20912 0.44486 0.0
C2139 C 0.30806 0.19788 0.449 0.0
C2140 C 0.31737 0.20004 0.4619 0.0
C2141 C 0.31676 0.21344 0.4707 0.0
C2142 C 0.30687 0.22473 0.46659 0.0
C2143 C 0.29752 0.22262 0.4537 0.0
H2144 H 0.32399 0.21509 0.48068 0.0
H2145 H 0.23409 0.19463 0.35503 0.0
H2146 H 0.46365 0.47447 0.91187 0.0
H2147 H 0.44721 0.48073 0.89061 0.0
H2148 H 0.48468 0.50535 0.86992 0.0
H2149 H 0.50133 0.49901 0.8912 0.0
H2150 H 0.45833 0.52054 0.86766 0.0
H2151 H 0.47416 0.47039 0.85627 0.0
H2152 H 0.47861 0.44359 0.86121 0.0
H2153 H 0.43055 0.43555 0.86809 0.0
H2154 H 0.42583 0.46238 0.86341 0.0
H2155 H 0.42043 0.52329 0.79494 0.0
H2156 H 0.43878 0.51886 0.81535 0.0
H2157 H 0.40406 0.49382 0.83979 0.0
H2158 H 0.38572 0.49812 0.81946 0.0
H2159 H 0.43056 0.47903 0.83898 0.0
H2160 H 0.41513 0.52978 0.85109 0.0
H2161 H 0.41106 0.55659 0.84586 0.0
H2162 H 0.45894 0.56343 0.83696 0.0
H2163 H 0.46327 0.53658 0.84194 0.0
C2164 C 0.46848 0.48112 0.90276 0.0
C2165 C 0.48392 0.48605 0.90321 0.0
C2166 C 0.45903 0.48473 0.8906 0.0
C2167 C 0.46474 0.49331 0.87849 0.0
C2168 C 0.48 0.49868 0.8791 0.0
C2169 C 0.4895 0.49507 0.8913 0.0
C2170 C 0.45477 0.49641 0.86517 0.0
C2171 C 0.45245 0.51145 0.86124 0.0
C2172 C 0.44689 0.48459 0.85686 0.0
C2173 C 0.44966 0.46843 0.85962 0.0
C2174 C 0.46455 0.46294 0.85895 0.0
C2175 C 0.46712 0.44774 0.86168 0.0
C2176 C 0.45487 0.43788 0.865 0.0
C2177 C 0.44003 0.4432 0.86554 0.0
C2178 C 0.4374 0.4584 0.86284 0.0
C2179 C 0.41668 0.51688 0.80468 0.0
C2180 C 0.40156 0.51109 0.80554 0.0
C2181 C 0.42718 0.5144 0.81638 0.0
C2182 C 0.4228 0.50609 0.8292 0.0
C2183 C 0.40774 0.50027 0.83004 0.0
C2184 C 0.39723 0.50278 0.8184 0.0
C2185 C 0.43392 0.50317 0.84164 0.0
C2186 C 0.43649 0.48813 0.84536 0.0
C2187 C 0.44207 0.51499 0.84967 0.0
C2188 C 0.43949 0.53114 0.84672 0.0
C2189 C 0.42477 0.53697 0.84789 0.0
C2190 C 0.42242 0.55218 0.845 0.0
C2191 C 0.43473 0.5617 0.84104 0.0
C2192 C 0.44942 0.55604 0.84001 0.0
C2193 C 0.45183 0.54083 0.84287 0.0
H2194 H 0.43288 0.57347 0.8388 0.0
H2195 H 0.45688 0.42612 0.86711 0.0
H2196 H 0.70879 0.76174 0.12899 0.0
H2197 H 0.71476 0.74542 0.10692 0.0
H2198 H 0.74585 0.72096 0.13454 0.0
H2199 H 0.73998 0.73733 0.15666 0.0
H2200 H 0.75788 0.72535 0.10702 0.0
H2201 H 0.70971 0.70658 0.12566 0.0
H2202 H 0.68291 0.70822 0.13399 0.0
H2203 H 0.67024 0.72316 0.08962 0.0
H2204 H 0.69702 0.72181 0.08109 0.0
H2205 H 0.76297 0.66178 0.05507 0.0
H2206 H 0.75837 0.67806 0.07761 0.0
H2207 H 0.72762 0.70428 0.05138 0.0
H2208 H 0.73201 0.688 0.0289 0.0
H2209 H 0.71566 0.69841 0.0787 0.0
H2210 H 0.76406 0.71739 0.06024 0.0
H2211 H 0.7909 0.71564 0.05205 0.0
H2212 H 0.80313 0.69992 0.09624 0.0
H2213 H 0.77631 0.70139 0.10463 0.0
C2214 C 0.71686 0.75286 0.13039 0.0
C2215 C 0.72381 0.75079 0.14465 0.0
C2216 C 0.72028 0.74352 0.11775 0.0
C2217 C 0.73057 0.73175 0.11908 0.0
C2218 C 0.73785 0.72992 0.13319 0.0
C2219 C 0.73451 0.73933 0.14584 0.0
C2220 C 0.73354 0.72124 0.10584 0.0
C2221 C 0.74866 0.7193 0.10097 0.0
C2222 C 0.72152 0.7135 0.09772 0.0
C2223 C 0.70539 0.71423 0.10278 0.0
C2224 C 0.70123 0.71032 0.11771 0.0
C2225 C 0.68604 0.71118 0.12246 0.0
C2226 C 0.67489 0.71583 0.11235 0.0
C2227 C 0.67889 0.71958 0.09745 0.0
C2228 C 0.69407 0.71876 0.09264 0.0
C2229 C 0.75523 0.67101 0.05409 0.0
C2230 C 0.74789 0.67358 0.04013 0.0
C2231 C 0.75266 0.68037 0.06699 0.0
C2232 C 0.74276 0.69253 0.06619 0.0
C2233 C 0.73531 0.695 0.05231 0.0
C2234 C 0.73787 0.68567 0.03943 0.0
C2235 C 0.73998 0.70261 0.07981 0.0
C2236 C 0.72489 0.70444 0.08477 0.0
C2237 C 0.75202 0.7102 0.08802 0.0
C2238 C 0.76815 0.70935 0.08301 0.0
C2239 C 0.77245 0.71345 0.06817 0.0
C2240 C 0.78766 0.71252 0.0635 0.0
C2241 C 0.7987 0.70763 0.07361 0.0
C2242 C 0.79456 0.70368 0.08842 0.0
C2243 C 0.77936 0.70457 0.09314 0.0
H2244 H 0.81047 0.70692 0.06997 0.0
H2245 H 0.66313 0.71649 0.11605 0.0
H2246 H 0.96533 0.05732 0.11164 0.0
H2247 H 0.94986 0.05183 0.13412 0.0
H2248 H 0.98932 0.03484 0.15667 0.0
H2249 H 1.00495 0.04042 0.1342 0.0
H2250 H 0.96445 0.01683 0.16142 0.0
H2251 H 0.97643 0.07002 0.16563 0.0
H2252 H 0.97804 0.09627 0.15692 0.0
H2253 H 0.92929 0.09616 0.15176 0.0
H2254 H 0.92741 0.06981 0.16023 0.0
H2255 H 0.93687 0.01968 0.23771 0.0
H2256 H 0.95119 0.02376 0.21418 0.0
H2257 H 0.91054 0.03908 0.19241 0.0
H2258 H 0.89607 0.03505 0.21601 0.0
H2259 H 0.93542 0.05768 0.18691 0.0
H2260 H 0.92349 1.00457 0.18349 0.0
H2261 H 0.92207 0.97839 0.19242 0.0
H2262 H 0.97093 0.97845 0.1964 0.0
H2263 H 0.97263 1.00472 0.18769 0.0
C2264 C 0.97079 0.05252 0.12141 0.0
C2265 C 0.98647 0.04947 0.12112 0.0
C2266 C 0.96189 0.04935 0.13427 0.0
C2267 C 0.96844 0.04312 0.14722 0.0
C2268 C 0.98399 0.03966 0.14683 0.0
C2269 C 0.99291 0.04282 0.13395 0.0
C2270 C 0.95911 0.04041 0.1612 0.0
C2271 C 0.95826 0.02581 0.16709 0.0
C2272 C 0.95071 0.05202 0.16845 0.0
C2273 C 0.9518 0.06789 0.16341 0.0
C2274 C 0.96607 0.07555 0.16252 0.0
C2275 C 0.96702 0.09046 0.15765 0.0
C2276 C 0.95378 0.09787 0.15375 0.0
C2277 C 0.93954 0.0904 0.15476 0.0
C2278 C 0.93852 0.07548 0.15961 0.0
C2279 C 0.93092 0.02389 0.22793 0.0
C2280 C 0.91528 0.02701 0.22878 0.0
C2281 C 0.93914 0.02615 0.21443 0.0
C2282 C 0.93194 0.03159 0.20145 0.0
C2283 C 0.91635 0.03484 0.20227 0.0
C2284 C 0.90807 0.03249 0.21576 0.0
C2285 C 0.94079 0.03411 0.18714 0.0
C2286 C 0.94156 0.04869 0.1812 0.0
C2287 C 0.94914 0.02249 0.17987 0.0
C2288 C 0.94817 1.00667 0.18508 0.0
C2289 C 0.93392 0.99905 0.18639 0.0
C2290 C 0.93307 0.98418 0.19139 0.0
C2291 C 0.9464 0.97677 0.19501 0.0
C2292 C 0.96061 0.98421 0.1936 0.0
C2293 C 0.96153 0.99908 0.18862 0.0
H2294 H 0.94571 0.96526 0.19888 0.0
H2295 H 0.95455 0.10941 0.14999 0.0
H2296 H 0.27648 0.75813 0.13376 0.0
H2297 H 0.27457 0.77683 0.11397 0.0
H2298 H 0.27952 0.8128 0.14807 0.0
H2299 H 0.28096 0.79407 0.1681 0.0
H2300 H 0.25706 0.81858 0.12831 0.0
H2301 H 0.309 0.80436 0.1239 0.0
H2302 H 0.3303 0.78689 0.12145 0.0
H2303 H 0.31229 0.76965 0.07853 0.0
H2304 H 0.29075 0.78689 0.08083 0.0
H2305 H 0.26411 0.87379 0.06977 0.0
H2306 H 0.269 0.85843 0.09205 0.0
H2307 H 0.26636 0.818 0.06333 0.0
H2308 H 0.26183 0.83319 0.04111 0.0
H2309 H 0.28965 0.81662 0.082 0.0
H2310 H 0.23657 0.82922 0.08763 0.0
H2311 H 0.21509 0.84648 0.09018 0.0
H2312 H 0.23529 0.86673 0.13085 0.0
H2313 H 0.257 0.8497 0.12842 0.0
C2314 C 0.27708 0.77001 0.13711 0.0
C2315 C 0.27884 0.77455 0.15258 0.0
C2316 C 0.27615 0.78072 0.12573 0.0
C2317 C 0.27707 0.79627 0.12946 0.0
C2318 C 0.27884 0.80088 0.14488 0.0
C2319 C 0.27979 0.79015 0.15631 0.0
C2320 C 0.27586 0.80761 0.11724 0.0
C2321 C 0.26437 0.81832 0.11831 0.0
C2322 C 0.28523 0.80719 0.10405 0.0
C2323 C 0.2982 0.79685 0.1026 0.0
C2324 C 0.30952 0.79677 0.11399 0.0
C2325 C 0.32165 0.78692 0.11262 0.0
C2326 C 0.32263 0.77715 0.09986 0.0
C2327 C 0.31151 0.77723 0.08842 0.0
C2328 C 0.29935 0.78705 0.08974 0.0
C2329 C 0.26458 0.86163 0.06821 0.0
C2330 C 0.26255 0.85475 0.05362 0.0
C2331 C 0.26731 0.85284 0.08099 0.0
C2332 C 0.26792 0.83699 0.07945 0.0
C2333 C 0.26599 0.83017 0.06486 0.0
C2334 C 0.26335 0.83892 0.05213 0.0
C2335 C 0.27061 0.82736 0.09288 0.0
C2336 C 0.28242 0.81698 0.09206 0.0
C2337 C 0.26153 0.82809 0.10628 0.0
C2338 C 0.24849 0.83831 0.10774 0.0
C2339 C 0.23649 0.83744 0.09704 0.0
C2340 C 0.22426 0.84716 0.09848 0.0
C2341 C 0.22385 0.85773 0.11064 0.0
C2342 C 0.23564 0.85856 0.12142 0.0
C2343 C 0.24791 0.84887 0.12002 0.0
H2344 H 0.21437 0.86525 0.11173 0.0
H2345 H 0.33203 0.76953 0.09882 0.0
H2346 H 0.03158 0.5047 0.11193 0.0
H2347 H 0.04795 0.51067 0.13408 0.0
H2348 H 0.04009 0.46547 0.15015 0.0
H2349 H 0.02328 0.45961 0.12837 0.0
H2350 H 0.0394 0.4851 0.17347 0.0
H2351 H 0.07341 0.47598 0.13157 0.0
H2352 H 0.08416 0.4794 0.10582 0.0
H2353 H 0.09518 0.52601 0.11713 0.0
H2354 H 0.08429 0.52293 0.14289 0.0
H2355 H 0.10188 0.48445 0.22582 0.0
H2356 H 0.08473 0.47888 0.20412 0.0
H2357 H 0.09064 0.52486 0.18966 0.0
H2358 H 0.10781 0.53051 0.21123 0.0
H2359 H 0.09234 0.50488 0.16561 0.0
H2360 H 0.05837 0.51356 0.20786 0.0
H2361 H 0.04794 0.50963 0.23365 0.0
H2362 H 0.03725 0.4631 0.22168 0.0
H2363 H 0.04782 0.4667 0.19586 0.0
C2364 C 0.03315 0.49608 0.12027 0.0
C2365 C 0.02616 0.48162 0.11825 0.0
C2366 C 0.04267 0.49946 0.13287 0.0
C2367 C 0.0455 0.48844 0.1437 0.0
C2368 C 0.03819 0.47415 0.14194 0.0
C2369 C 0.02867 0.47077 0.12937 0.0
C2370 C 0.05619 0.49171 0.15676 0.0
C2371 C 0.05103 0.48925 0.17172 0.0
C2372 C 0.07132 0.49737 0.15458 0.0
C2373 C 0.07789 0.49926 0.1391 0.0
C2374 C 0.07801 0.48699 0.12852 0.0
C2375 C 0.08415 0.48886 0.11393 0.0
C2376 C 0.09031 0.50292 0.10982 0.0
C2377 C 0.09038 0.51513 0.12032 0.0
C2378 C 0.08423 0.51333 0.13492 0.0
C2379 C 0.09956 0.49338 0.21801 0.0
C2380 C 0.10621 0.50795 0.22032 0.0
C2381 C 0.08969 0.49019 0.20563 0.0
C2382 C 0.08625 0.50149 0.19531 0.0
C2383 C 0.09309 0.51596 0.19746 0.0
C2384 C 0.10288 0.51918 0.20985 0.0
C2385 C 0.07554 0.49829 0.18229 0.0
C2386 C 0.0807 0.50074 0.16735 0.0
C2387 C 0.06045 0.49255 0.18449 0.0
C2388 C 0.05403 0.49037 0.19998 0.0
C2389 C 0.05391 0.50246 0.21076 0.0
C2390 C 0.04795 0.5003 0.22538 0.0
C2391 C 0.04197 0.48611 0.22932 0.0
C2392 C 0.0419 0.47407 0.21862 0.0
C2393 C 0.04787 0.47617 0.20399 0.0
H2394 H 0.03736 0.48446 0.24064 0.0
H2395 H 0.09506 0.50434 0.09852 0.0
H2396 H 0.36132 0.72437 0.29031 0.0
H2397 H 0.38312 0.72622 0.30786 0.0
H2398 H 0.40523 0.75903 0.27908 0.0
H2399 H 0.38384 0.75681 0.26125 0.0
H2400 H 0.42536 0.73981 0.28823 0.0
H2401 H 0.38651 0.76916 0.31281 0.0
H2402 H 0.36109 0.77371 0.32381 0.0
H2403 H 0.36772 0.7391 0.35636 0.0
H2404 H 0.39312 0.73421 0.3454 0.0
H2405 H 0.47792 0.77784 0.33834 0.0
H2406 H 0.45597 0.77125 0.322 0.0
H2407 H 0.4429 0.73512 0.3518 0.0
H2408 H 0.46504 0.74157 0.36823 0.0
H2409 H 0.41821 0.75327 0.34313 0.0
H2410 H 0.4583 0.72566 0.31951 0.0
H2411 H 0.48395 0.7221 0.30866 0.0
H2412 H 0.47508 0.75437 0.2743 0.0
H2413 H 0.44945 0.75831 0.28509 0.0
C2414 C 0.37089 0.73186 0.28763 0.0
C2415 C 0.37071 0.74053 0.27438 0.0
C2416 C 0.3833 0.73302 0.29777 0.0
C2417 C 0.39578 0.74293 0.29494 0.0
C2418 C 0.39575 0.75135 0.28159 0.0
C2419 C 0.38339 0.75018 0.27145 0.0
C2420 C 0.40889 0.74467 0.30583 0.0
C2421 C 0.42377 0.74287 0.3002 0.0
C2422 C 0.40688 0.74829 0.32158 0.0
C2423 C 0.39163 0.7512 0.32817 0.0
C2424 C 0.38249 0.76243 0.32222 0.0
C2425 C 0.3681 0.76509 0.32847 0.0
C2426 C 0.36278 0.75666 0.34074 0.0
C2427 C 0.37185 0.74559 0.34683 0.0
C2428 C 0.38624 0.74288 0.34061 0.0
C2429 C 0.4704 0.76848 0.34146 0.0
C2430 C 0.47327 0.76022 0.3546 0.0
C2431 C 0.45787 0.7647 0.33206 0.0
C2432 C 0.44784 0.75263 0.33561 0.0
C2433 C 0.45051 0.74447 0.34883 0.0
C2434 C 0.46319 0.74814 0.35817 0.0
C2435 C 0.4346 0.74866 0.32543 0.0
C2436 C 0.41975 0.75004 0.33119 0.0
C2437 C 0.43661 0.74476 0.30978 0.0
C2438 C 0.45199 0.74237 0.3032 0.0
C2439 C 0.46186 0.73209 0.30972 0.0
C2440 C 0.47639 0.72999 0.30357 0.0
C2441 C 0.48115 0.73803 0.29082 0.0
C2442 C 0.47138 0.74816 0.28418 0.0
C2443 C 0.45684 0.75032 0.2903 0.0
H2444 H 0.49241 0.73638 0.28607 0.0
H2445 H 0.35163 0.75874 0.34556 0.0
H2446 H 0.95659 0.3916 0.99276 0.0
H2447 H 0.96379 0.36958 0.97719 0.0
H2448 H 0.00748 0.39117 0.96794 0.0
H2449 H 1.00019 0.41343 0.98319 0.0
H2450 H 0.99511 0.37884 0.94222 0.0
H2451 H 1.00417 0.36222 0.99296 0.0
H2452 H 0.99783 0.35708 0.0198 0.0
H2453 H 0.96168 0.32615 1.00507 0.0
H2454 H 0.96768 0.33126 0.97813 0.0
H2455 H 0.03176 0.31481 0.91074 0.0
H2456 H 0.02462 0.33624 0.92712 0.0
H2457 H 0.9809 0.31438 0.93568 0.0
H2458 H 0.98803 0.29275 0.91936 0.0
H2459 H 0.99311 0.32674 0.96177 0.0
H2460 H 0.98402 0.34338 0.91106 0.0
H2461 H 0.99037 0.34848 0.88422 0.0
H2462 H 0.02655 0.37939 0.89891 0.0
H2463 H 0.02055 0.37431 0.92586 0.0
C2464 C 0.96772 0.39171 0.98738 0.0
C2465 C 0.9778 0.40433 0.98925 0.0
C2466 C 0.97188 0.37903 0.97857 0.0
C2467 C 0.98624 0.37862 0.97147 0.0
C2468 C 0.99635 0.39118 0.97332 0.0
C2469 C 0.99221 0.40386 0.98216 0.0
C2470 C 0.99058 0.36525 0.96182 0.0
C2471 C 0.99489 0.36748 0.94658 0.0
C2472 C 0.98991 0.35034 0.96734 0.0
C2473 C 0.98628 0.34724 0.98353 0.0
C2474 C 0.99479 0.35442 0.99544 0.0
C2475 C 0.99127 0.35149 0.01068 0.0
C2476 C 0.97933 0.34132 0.01414 0.0
C2477 C 0.97091 0.33404 1.00237 0.0
C2478 C 0.97437 0.33693 0.98712 0.0
C2479 C 0.02061 0.31451 0.91609 0.0
C2480 C 0.01045 0.30204 0.91366 0.0
C2481 C 0.01652 0.32684 0.92543 0.0
C2482 C 1.00214 0.32704 0.93252 0.0
C2483 C 0.99205 0.31451 0.93032 0.0
C2484 C 0.99613 0.30217 0.92094 0.0
C2485 C 0.99768 0.34034 0.94219 0.0
C2486 C 0.99334 0.3381 0.95743 0.0
C2487 C 0.99831 0.35525 0.93667 0.0
C2488 C 1.00193 0.35835 0.92048 0.0
C2489 C 0.99341 0.35117 0.90857 0.0
C2490 C 0.99693 0.35407 0.89333 0.0
C2491 C 0.00888 0.36422 0.88986 0.0
C2492 C 0.01731 0.37152 0.90162 0.0
C2493 C 0.01384 0.36864 0.91688 0.0
H2494 H 0.01159 0.36645 0.87806 0.0
H2495 H 0.97663 0.33907 0.02594 0.0
H2496 H 0.65991 0.79473 0.29764 0.0
H2497 H 0.63776 0.78791 0.31318 0.0
H2498 H 0.6088 0.78901 0.27338 0.0
H2499 H 0.63089 0.79638 0.25784 0.0
H2500 H 0.59556 0.80286 0.29687 0.0
H2501 H 0.61891 0.75534 0.28884 0.0
H2502 H 0.63965 0.73713 0.28852 0.0
H2503 H 0.64497 0.74315 0.33711 0.0
H2504 H 0.6244 0.76158 0.3377 0.0
H2505 H 0.53166 0.76243 0.32874 0.0
H2506 H 0.55396 0.76929 0.3133 0.0
H2507 H 0.58075 0.77691 0.35427 0.0
H2508 H 0.55834 0.77035 0.36988 0.0
H2509 H 0.59489 0.7585 0.33031 0.0
H2510 H 0.57084 0.80625 0.33763 0.0
H2511 H 0.54942 0.82366 0.33721 0.0
H2512 H 0.54469 0.81599 0.28875 0.0
H2513 H 0.56595 0.79834 0.28892 0.0
C2514 C 0.64883 0.79361 0.29218 0.0
C2515 C 0.64723 0.79615 0.27645 0.0
C2516 C 0.63616 0.78954 0.30107 0.0
C2517 C 0.62157 0.78777 0.29446 0.0
C2518 C 0.61993 0.79026 0.27876 0.0
C2519 C 0.63261 0.79434 0.26985 0.0
C2520 C 0.60803 0.78367 0.30401 0.0
C2521 C 0.59536 0.79303 0.304 0.0
C2522 C 0.6078 0.771 0.31359 0.0
C2523 C 0.62022 0.75997 0.31329 0.0
C2524 C 0.62459 0.75289 0.29944 0.0
C2525 C 0.6363 0.7425 0.29922 0.0
C2526 C 0.64365 0.73901 0.31278 0.0
C2527 C 0.63928 0.74588 0.32661 0.0
C2528 C 0.62759 0.75629 0.3269 0.0
C2529 C 0.54228 0.76558 0.3345 0.0
C2530 C 0.54321 0.76584 0.35056 0.0
C2531 C 0.55501 0.76953 0.32564 0.0
C2532 C 0.56901 0.77364 0.33263 0.0
C2533 C 0.57005 0.77377 0.34865 0.0
C2534 C 0.55723 0.77008 0.35755 0.0
C2535 C 0.58254 0.7777 0.32315 0.0
C2536 C 0.59516 0.76832 0.32317 0.0
C2537 C 0.58266 0.79024 0.31346 0.0
C2538 C 0.56988 0.80084 0.31332 0.0
C2539 C 0.56514 0.80816 0.32691 0.0
C2540 C 0.55305 0.8181 0.32671 0.0
C2541 C 0.54567 0.8209 0.31297 0.0
C2542 C 0.5504 0.81379 0.29939 0.0
C2543 C 0.56247 0.80383 0.29953 0.0
H2544 H 0.53632 0.8286 0.31283 0.0
H2545 H 0.65271 0.73096 0.31258 0.0
H2546 H 0.01615 0.12576 1.00209 0.0
H2547 H 0.01016 0.14748 0.98675 0.0
H2548 H 0.05394 0.14483 0.96449 0.0
H2549 H 0.06026 0.12354 0.9802 0.0
H2550 H 0.04812 0.17338 0.97109 0.0
H2551 H 0.02035 0.13167 0.94687 0.0
H2552 H 1.00235 0.10969 0.94551 0.0
H2553 H 0.96582 0.13787 0.96027 0.0
H2554 H 0.98366 0.15999 0.96192 0.0
H2555 H 0.03225 0.2204 0.90856 0.0
H2556 H 0.03841 0.19894 0.92425 0.0
H2557 H 0.99502 0.20223 0.94716 0.0
H2558 H 0.98869 0.22352 0.93141 0.0
H2559 H 1.00063 0.17339 0.94022 0.0
H2560 H 0.02857 0.21514 0.96432 0.0
H2561 H 0.04666 0.23706 0.96546 0.0
H2562 H 0.083 0.20866 0.95064 0.0
H2563 H 0.06507 0.1866 0.94921 0.0
C2564 C 0.02458 0.12988 0.99405 0.0
C2565 C 0.03867 0.12277 0.99237 0.0
C2566 C 0.02106 0.14223 0.98515 0.0
C2567 C 0.03149 0.14771 0.97426 0.0
C2568 C 0.04565 0.1408 0.97273 0.0
C2569 C 0.04919 0.1285 0.98165 0.0
C2570 C 0.02771 0.16065 0.96447 0.0
C2571 C 0.03783 0.17328 0.96419 0.0
C2572 C 0.01413 0.16073 0.95567 0.0
C2573 C 1.00337 0.14746 0.95467 0.0
C2574 C 0.0085 0.13316 0.94994 0.0
C2575 C 0.99832 0.12068 0.9491 0.0
C2576 C 0.98296 0.12238 0.95284 0.0
C2577 C 0.97773 0.13657 0.9574 0.0
C2578 C 0.98787 0.14908 0.95828 0.0
C2579 C 0.02401 0.21657 0.91694 0.0
C2580 C 0.00998 0.22376 0.91873 0.0
C2581 C 0.02758 0.20432 0.92596 0.0
C2582 C 0.01726 0.19903 0.93705 0.0
C2583 C 1.00319 0.20608 0.93872 0.0
C2584 C 0.99961 0.21831 0.92971 0.0
C2585 C 0.02104 0.18611 0.94684 0.0
C2586 C 0.01092 0.17349 0.94712 0.0
C2587 C 0.03463 0.18602 0.95561 0.0
C2588 C 0.04544 0.19925 0.95651 0.0
C2589 C 0.04039 0.21359 0.96119 0.0
C2590 C 0.05062 0.22604 0.96191 0.0
C2591 C 0.06596 0.22426 0.95809 0.0
C2592 C 0.07111 0.21003 0.95358 0.0
C2593 C 0.06092 0.19755 0.95282 0.0
H2594 H 0.07386 0.23391 0.95866 0.0
H2595 H 0.97509 0.1127 0.95218 0.0
H2596 H 0.35614 0.28636 0.22754 0.0
H2597 H 0.37618 0.28462 0.20816 0.0
H2598 H 0.41057 0.28898 0.2434 0.0
H2599 H 0.39062 0.2912 0.2628 0.0
H2600 H 0.41871 0.30543 0.21919 0.0
H2601 H 0.40044 0.25444 0.22713 0.0
H2602 H 0.38099 0.23378 0.22861 0.0
H2603 H 0.3691 0.23957 0.18158 0.0
H2604 H 0.38834 0.26042 0.17989 0.0
H2605 H 0.4818 0.27841 0.17624 0.0
H2606 H 0.46161 0.28234 0.1951 0.0
H2607 H 0.42755 0.27518 0.1598 0.0
H2608 H 0.44766 0.27082 0.14099 0.0
H2609 H 0.41901 0.26056 0.18389 0.0
H2610 H 0.43755 0.31125 0.17564 0.0
H2611 H 0.45694 0.33195 0.1741 0.0
H2612 H 0.46825 0.32694 0.22139 0.0
H2613 H 0.44905 0.30606 0.22317 0.0
C2614 C 0.36796 0.28716 0.23117 0.0
C2615 C 0.37173 0.28882 0.24678 0.0
C2616 C 0.37943 0.28601 0.22007 0.0
C2617 C 0.39492 0.28644 0.22431 0.0
C2618 C 0.39872 0.28854 0.23983 0.0
C2619 C 0.38728 0.28967 0.25093 0.0
C2620 C 0.40716 0.2844 0.21264 0.0
C2621 C 0.41887 0.29553 0.21158 0.0
C2622 C 0.40725 0.27166 0.20246 0.0
C2623 C 0.39572 0.25909 0.20343 0.0
C2624 C 0.39359 0.25138 0.21714 0.0
C2625 C 0.38262 0.23963 0.21801 0.0
C2626 C 0.37379 0.23539 0.20521 0.0
C2627 C 0.37593 0.24288 0.19149 0.0
C2628 C 0.38688 0.25466 0.19057 0.0
C2629 C 0.47001 0.27773 0.17247 0.0
C2630 C 0.46637 0.27432 0.15706 0.0
C2631 C 0.45846 0.28006 0.18328 0.0
C2632 C 0.44299 0.27927 0.1789 0.0
C2633 C 0.43936 0.27587 0.16352 0.0
C2634 C 0.45089 0.27341 0.15274 0.0
C2635 C 0.43059 0.28161 0.19037 0.0
C2636 C 0.41885 0.2705 0.19143 0.0
C2637 C 0.43047 0.2944 0.20051 0.0
C2638 C 0.44196 0.307 0.1995 0.0
C2639 C 0.44424 0.31449 0.18569 0.0
C2640 C 0.45519 0.32627 0.18477 0.0
C2641 C 0.46385 0.33073 0.19763 0.0
C2642 C 0.46155 0.32346 0.21144 0.0
C2643 C 0.45063 0.31166 0.21241 0.0
H2644 H 0.47231 0.33985 0.1969 0.0
H2645 H 0.3653 0.22628 0.2059 0.0
H2646 H 0.55887 0.39579 0.02287 0.0
H2647 H 0.55242 0.37486 0.03951 0.0
H2648 H 0.50951 0.39508 0.05062 0.0
H2649 H 0.51613 0.41637 0.03438 0.0
H2650 H 0.5228 0.38569 0.07584 0.0
H2651 H 0.5116 0.36361 0.02633 0.0
H2652 H 0.51672 0.35627 0.99947 0.0
H2653 H 0.55368 0.32915 0.01366 0.0
H2654 H 0.5489 0.33649 0.04061 0.0
H2655 H 0.48823 0.32223 0.11143 0.0
H2656 H 0.49449 0.34267 0.09414 0.0
H2657 H 0.53786 0.32288 0.08413 0.0
H2658 H 0.5316 0.30223 0.10134 0.0
H2659 H 0.52437 0.33194 0.05832 0.0
H2660 H 0.5356 0.35414 0.10781 0.0
H2661 H 0.53037 0.36141 0.13467 0.0
H2662 H 0.49325 0.38831 0.12043 0.0
H2663 H 0.49813 0.38103 0.09349 0.0
C2664 C 0.54808 0.39585 0.02889 0.0
C2665 C 0.53805 0.40785 0.02727 0.0
C2666 C 0.54432 0.38376 0.0383 0.0
C2667 C 0.53039 0.38325 0.04625 0.0
C2668 C 0.52031 0.39516 0.0446 0.0
C2669 C 0.52406 0.40727 0.03518 0.0
C2670 C 0.52655 0.37055 0.0566 0.0
C2671 C 0.52292 0.37395 0.07193 0.0
C2672 C 0.52708 0.35517 0.05167 0.0
C2673 C 0.52998 0.35072 0.03548 0.0
C2674 C 0.5209 0.35618 0.02372 0.0
C2675 C 0.52372 0.352 0.00848 0.0
C2676 C 0.53555 0.34228 1.00486 0.0
C2677 C 0.54454 0.33669 0.01648 0.0
C2678 C 0.54177 0.34085 0.03174 0.0
C2679 C 0.49913 0.32219 0.10559 0.0
C2680 C 0.50943 0.31056 0.10786 0.0
C2681 C 0.50272 0.33396 0.09573 0.0
C2682 C 0.51673 0.33446 0.08792 0.0
C2683 C 0.52699 0.32279 0.09003 0.0
C2684 C 0.52341 0.311 0.09992 0.0
C2685 C 0.5206 0.34711 0.07753 0.0
C2686 C 0.52424 0.34369 0.06221 0.0
C2687 C 0.52007 0.36248 0.08245 0.0
C2688 C 0.51714 0.36692 0.09864 0.0
C2689 C 0.52624 0.36151 0.11041 0.0
C2690 C 0.52336 0.36565 0.12565 0.0
C2691 C 0.51146 0.37528 0.12926 0.0
C2692 C 0.50245 0.38083 0.11763 0.0
C2693 C 0.50528 0.37671 0.10237 0.0
H2694 H 0.50925 0.37848 0.14106 0.0
H2695 H 0.53772 0.33905 0.99305 0.0
H2696 H 0.62901 0.23083 0.26262 0.0
H2697 H 0.6071 0.23648 0.24666 0.0
H2698 H 0.63747 0.24769 0.20962 0.0
H2699 H 0.65945 0.2425 0.22567 0.0
H2700 H 0.61489 0.26755 0.21184 0.0
H2701 H 0.61825 0.21349 0.2101 0.0
H2702 H 0.61969 0.18812 0.22087 0.0
H2703 H 0.57625 0.1937 0.24268 0.0
H2704 H 0.57465 0.2192 0.23221 0.0
H2705 H 0.55843 0.26446 0.15273 0.0
H2706 H 0.5809 0.26015 0.16851 0.0
H2707 H 0.55159 0.24722 0.20582 0.0
H2708 H 0.52916 0.25121 0.19008 0.0
H2709 H 0.574 0.22821 0.20311 0.0
H2710 H 0.57065 0.28233 0.20508 0.0
H2711 H 0.56918 0.30775 0.19443 0.0
H2712 H 0.61246 0.30217 0.1723 0.0
H2713 H 0.61409 0.27662 0.18265 0.0
C2714 C 0.63106 0.23469 0.25116 0.0
C2715 C 0.64604 0.23611 0.24543 0.0
C2716 C 0.6185 0.23778 0.24197 0.0
C2717 C 0.62059 0.2423 0.22682 0.0
C2718 C 0.63553 0.24415 0.22122 0.0
C2719 C 0.6481 0.24105 0.23039 0.0
C2720 C 0.60722 0.24485 0.21674 0.0
C2721 C 0.60605 0.25888 0.20978 0.0
C2722 C 0.59549 0.23367 0.21424 0.0
C2723 C 0.5964 0.21831 0.2205 0.0
C2724 C 0.60906 0.20935 0.21729 0.0
C2725 C 0.60989 0.19494 0.22332 0.0
C2726 C 0.59809 0.18932 0.23248 0.0
C2727 C 0.5854 0.19808 0.2356 0.0
C2728 C 0.58451 0.21251 0.22961 0.0
C2729 C 0.55677 0.26071 0.16429 0.0
C2730 C 0.54195 0.25821 0.17011 0.0
C2731 C 0.56964 0.25832 0.17335 0.0
C2732 C 0.56799 0.25351 0.18846 0.0
C2733 C 0.55321 0.25092 0.19422 0.0
C2734 C 0.54037 0.25325 0.18519 0.0
C2735 C 0.58158 0.25096 0.19826 0.0
C2736 C 0.58282 0.23691 0.20516 0.0
C2737 C 0.59335 0.26214 0.20071 0.0
C2738 C 0.59241 0.2775 0.19451 0.0
C2739 C 0.57979 0.28647 0.19784 0.0
C2740 C 0.57894 0.30091 0.19188 0.0
C2741 C 0.5907 0.30655 0.18266 0.0
C2742 C 0.60335 0.29778 0.17942 0.0
C2743 C 0.60425 0.28332 0.18534 0.0
H2744 H 0.59002 0.31774 0.17805 0.0
H2745 H 0.59875 0.17816 0.23714 0.0
H2746 H 0.49523 0.11248 0.0439 0.0
H2747 H 0.50164 0.13465 0.06026 0.0
H2748 H 0.46787 0.16011 0.03714 0.0
H2749 H 0.46164 0.13807 0.02048 0.0
H2750 H 0.49385 0.17707 0.04223 0.0
H2751 H 0.46027 0.14566 0.07181 0.0
H2752 H 0.45135 0.12206 0.08371 0.0
H2753 H 0.49265 0.12148 0.11009 0.0
H2754 H 0.50193 0.14497 0.09817 0.0
H2755 H 0.49037 0.23731 0.09817 0.0
H2756 H 0.48398 0.21593 0.08069 0.0
H2757 H 0.51615 0.18864 0.10389 0.0
H2758 H 0.52242 0.20982 0.1215 0.0
H2759 H 0.49043 0.1728 0.09853 0.0
H2760 H 0.52422 0.20399 0.06883 0.0
H2761 H 0.53331 0.2275 0.05687 0.0
H2762 H 0.49186 0.2285 0.03076 0.0
H2763 H 0.48243 0.20509 0.04272 0.0
C2764 C 0.4893 0.12285 0.04214 0.0
C2765 C 0.47786 0.12344 0.03089 0.0
C2766 C 0.49288 0.13549 0.05161 0.0
C2767 C 0.4851 0.14903 0.0501 0.0
C2768 C 0.47398 0.14979 0.0386 0.0
C2769 C 0.47035 0.13713 0.02915 0.0
C2770 C 0.48836 0.16226 0.06067 0.0
C2771 C 0.49291 0.17619 0.05453 0.0
C2772 C 0.48742 0.16109 0.07676 0.0
C2773 C 0.48186 0.147 0.08398 0.0
C2774 C 0.4675 0.14044 0.08006 0.0
C2775 C 0.46237 0.12709 0.08682 0.0
C2776 C 0.47144 0.12026 0.09762 0.0
C2777 C 0.48565 0.12678 0.1017 0.0
C2778 C 0.49084 0.14011 0.09496 0.0
C2779 C 0.49608 0.22676 0.09956 0.0
C2780 C 0.50694 0.22533 0.11124 0.0
C2781 C 0.49247 0.21455 0.08949 0.0
C2782 C 0.4997 0.20067 0.09083 0.0
C2783 C 0.51041 0.1992 0.10259 0.0
C2784 C 0.51402 0.21137 0.11265 0.0
C2785 C 0.49604 0.18762 0.08012 0.0
C2786 C 0.49138 0.17371 0.08623 0.0
C2787 C 0.4969 0.18882 0.06402 0.0
C2788 C 0.50255 0.20287 0.05679 0.0
C2789 C 0.51699 0.20929 0.06063 0.0
C2790 C 0.52221 0.22258 0.05383 0.0
C2791 C 0.51315 0.22951 0.04309 0.0
C2792 C 0.49886 0.22313 0.0391 0.0
C2793 C 0.49357 0.20984 0.04587 0.0
H2794 H 0.51721 0.23981 0.03784 0.0
H2795 H 0.46745 0.10993 0.10284 0.0
H2796 H 0.29528 0.36453 0.73835 0.0
H2797 H 0.31144 0.38673 0.74505 0.0
H2798 H 0.27713 0.41579 0.72791 0.0
H2799 H 0.26102 0.39355 0.72079 0.0
H2800 H 0.30493 0.42447 0.71804 0.0
H2801 H 0.28285 0.41298 0.76622 0.0
H2802 H 0.27528 0.39709 0.78778 0.0
H2803 H 0.32234 0.38832 0.79667 0.0
H2804 H 0.3302 0.404 0.775 0.0
H2805 H 0.34085 0.49217 0.74912 0.0
H2806 H 0.32249 0.4713 0.7437 0.0
H2807 H 0.35537 0.43944 0.75831 0.0
H2808 H 0.37379 0.46024 0.76383 0.0
H2809 H 0.32702 0.4331 0.76989 0.0
H2810 H 0.34868 0.44404 0.72068 0.0
H2811 H 0.35582 0.46029 0.69923 0.0
H2812 H 0.30875 0.47061 0.69262 0.0
H2813 H 0.30134 0.45457 0.71417 0.0
C2814 C 0.29117 0.37564 0.73595 0.0
C2815 C 0.27684 0.37723 0.729 0.0
C2816 C 0.30038 0.38835 0.73993 0.0
C2817 C 0.29547 0.40298 0.73713 0.0
C2818 C 0.28116 0.40463 0.73023 0.0
C2819 C 0.2719 0.3919 0.72628 0.0
C2820 C 0.30549 0.41648 0.74104 0.0
C2821 C 0.30955 0.42649 0.72945 0.0
C2822 C 0.31177 0.41902 0.75585 0.0
C2823 C 0.3071 0.40956 0.76889 0.0
C2824 C 0.29158 0.40756 0.77268 0.0
C2825 C 0.28724 0.39861 0.78494 0.0
C2826 C 0.29832 0.39167 0.79357 0.0
C2827 C 0.31377 0.39369 0.78997 0.0
C2828 C 0.31818 0.40263 0.77771 0.0
C2829 C 0.3442 0.48073 0.7512 0.0
C2830 C 0.35885 0.4779 0.75687 0.0
C2831 C 0.33368 0.4688 0.74804 0.0
C2832 C 0.33758 0.45377 0.75047 0.0
C2833 C 0.3521 0.45093 0.75634 0.0
C2834 C 0.36265 0.46285 0.75943 0.0
C2835 C 0.32656 0.44098 0.74685 0.0
C2836 C 0.32233 0.43111 0.75851 0.0
C2837 C 0.32005 0.43863 0.73212 0.0
C2838 C 0.32448 0.44824 0.71914 0.0
C2839 C 0.33986 0.44988 0.71473 0.0
C2840 C 0.34396 0.45903 0.70254 0.0
C2841 C 0.33275 0.46651 0.69459 0.0
C2842 C 0.31742 0.46482 0.6988 0.0
C2843 C 0.31327 0.4557 0.71099 0.0
H2844 H 0.33594 0.47359 0.68516 0.0
H2845 H 0.29493 0.38475 0.80306 0.0
H2846 H 0.29238 0.6674 0.81572 0.0
H2847 H 0.30947 0.64685 0.80964 0.0
H2848 H 0.27669 0.62772 0.77718 0.0
H2849 H 0.25922 0.64808 0.7836 0.0
H2850 H 0.28848 0.60594 0.79415 0.0
H2851 H 0.30878 0.64666 0.76505 0.0
H2852 H 0.31834 0.67264 0.7605 0.0
H2853 H 0.35483 0.66723 0.79245 0.0
H2854 H 0.34537 0.64127 0.79736 0.0
H2855 H 0.34156 0.55436 0.7615 0.0
H2856 H 0.32329 0.57453 0.76509 0.0
H2857 H 0.35326 0.5968 0.79837 0.0
H2858 H 0.37165 0.5768 0.79472 0.0
H2859 H 0.34223 0.61684 0.77919 0.0
H2860 H 0.32102 0.57642 0.80905 0.0
H2861 H 0.31131 0.55046 0.8135 0.0
H2862 H 0.2764 0.55531 0.77969 0.0
H2863 H 0.28603 0.58125 0.7749 0.0
C2864 C 0.28869 0.65877 0.80738 0.0
C2865 C 0.27435 0.65942 0.80019 0.0
C2866 C 0.29858 0.64708 0.80379 0.0
C2867 C 0.29449 0.63579 0.7928 0.0
C2868 C 0.28015 0.63632 0.78565 0.0
C2869 C 0.27022 0.64804 0.78925 0.0
C2870 C 0.30517 0.62342 0.78897 0.0
C2871 C 0.30015 0.60832 0.79063 0.0
C2872 C 0.32051 0.62647 0.78463 0.0
C2873 C 0.32628 0.64206 0.78166 0.0
C2874 C 0.31878 0.65105 0.77119 0.0
C2875 C 0.32419 0.66577 0.76853 0.0
C2876 C 0.33717 0.6716 0.77621 0.0
C2877 C 0.34478 0.6627 0.78653 0.0
C2878 C 0.3394 0.64798 0.78924 0.0
C2879 C 0.34429 0.56355 0.76959 0.0
C2880 C 0.3581 0.56391 0.77784 0.0
C2881 C 0.33378 0.57505 0.77168 0.0
C2882 C 0.33679 0.58714 0.78213 0.0
C2883 C 0.35064 0.58761 0.79025 0.0
C2884 C 0.36115 0.57612 0.78817 0.0
C2885 C 0.3256 0.59937 0.78458 0.0
C2886 C 0.33052 0.61445 0.78263 0.0
C2887 C 0.31017 0.59629 0.78861 0.0
C2888 C 0.30435 0.58071 0.7915 0.0
C2889 C 0.31135 0.57191 0.80248 0.0
C2890 C 0.30585 0.55721 0.80508 0.0
C2891 C 0.29328 0.55123 0.79685 0.0
C2892 C 0.28616 0.55995 0.78604 0.0
C2893 C 0.29162 0.57466 0.78338 0.0
H2894 H 0.28903 0.53984 0.79888 0.0
H2895 H 0.34134 0.68299 0.77413 0.0
H2896 H 0.90757 0.47128 0.46811 0.0
H2897 H 0.88538 0.45539 0.47455 0.0
H2898 H 0.86915 0.49076 0.50472 0.0
H2899 H 0.89135 0.50686 0.49822 0.0
H2900 H 0.86573 0.46347 0.51764 0.0
H2901 H 0.85277 0.48437 0.47002 0.0
H2902 H 0.85632 0.49127 0.44313 0.0
H2903 H 0.85896 0.44434 0.42981 0.0
H2904 H 0.85565 0.43716 0.45667 0.0
H2905 H 0.79024 0.42962 0.52277 0.0
H2906 H 0.81171 0.44721 0.51781 0.0
H2907 H 0.83305 0.41294 0.4899 0.0
H2908 H 0.81173 0.39525 0.49489 0.0
H2909 H 0.83284 0.44103 0.47619 0.0
H2910 H 0.84644 0.42062 0.52462 0.0
H2911 H 0.84232 0.41435 0.5516 0.0
H2912 H 0.83748 0.46139 0.56341 0.0
H2913 H 0.84137 0.46793 0.53643 0.0
C2914 C 0.89923 0.47579 0.47601 0.0
C2915 C 0.90121 0.49047 0.4825 0.0
C2916 C 0.88654 0.46664 0.47972 0.0
C2917 C 0.87543 0.47194 0.48995 0.0
C2918 C 0.87754 0.48642 0.49677 0.0
C2919 C 0.89027 0.49561 0.49307 0.0
C2920 C 0.86163 0.46232 0.49336 0.0
C2921 C 0.85841 0.45876 0.50859 0.0
C2922 C 0.85212 0.45599 0.48156 0.0
C2923 C 0.8541 0.46024 0.46538 0.0
C2924 C 0.85423 0.47553 0.46138 0.0
C2925 C 0.85618 0.47949 0.44614 0.0
C2926 C 0.8579 0.46826 0.43478 0.0
C2927 C 0.85764 0.45303 0.43863 0.0
C2928 C 0.85571 0.44901 0.45386 0.0
C2929 C 0.79951 0.42581 0.51559 0.0
C2930 C 0.79926 0.411 0.50926 0.0
C2931 C 0.8118 0.43587 0.51281 0.0
C2932 C 0.82404 0.43138 0.50354 0.0
C2933 C 0.82374 0.41666 0.49709 0.0
C2934 C 0.81156 0.40654 0.50001 0.0
C2935 C 0.8371 0.44203 0.50042 0.0
C2936 C 0.84014 0.4458 0.48523 0.0
C2937 C 0.84633 0.44865 0.51226 0.0
C2938 C 0.84402 0.44475 0.52848 0.0
C2939 C 0.84436 0.42962 0.53294 0.0
C2940 C 0.84209 0.42601 0.54824 0.0
C2941 C 0.83959 0.43746 0.55921 0.0
C2942 C 0.8394 0.45254 0.5549 0.0
C2943 C 0.84164 0.4562 0.53961 0.0
H2944 H 0.83785 0.43465 0.57105 0.0
H2945 H 0.85941 0.47135 0.42298 0.0
H2946 H 0.76326 0.89124 0.77479 0.0
H2947 H 0.74512 0.91146 0.77312 0.0
H2948 H 0.70939 0.8819 0.79023 0.0
H2949 H 0.72748 0.86134 0.79146 0.0
H2950 H 0.69919 0.89743 0.76653 0.0
H2951 H 0.72529 0.91024 0.81304 0.0
H2952 H 0.74744 0.91514 0.83005 0.0
H2953 H 0.76243 0.95213 0.80251 0.0
H2954 H 0.74048 0.94732 0.7852 0.0
H2955 H 0.64933 0.96054 0.77509 0.0
H2956 H 0.66464 0.93853 0.78049 0.0
H2957 H 0.70466 0.96164 0.76286 0.0
H2958 H 0.68955 0.98357 0.75752 0.0
H2959 H 0.71085 0.9484 0.7895 0.0
H2960 H 0.68566 0.9339 0.74191 0.0
H2961 H 0.66339 0.92885 0.72507 0.0
H2962 H 0.64636 0.89492 0.75534 0.0
H2963 H 0.66844 0.89992 0.77248 0.0
C2964 C 0.75153 0.88895 0.77812 0.0
C2965 C 0.74686 0.87459 0.78321 0.0
C2966 C 0.74117 0.90062 0.77731 0.0
C2967 C 0.72588 0.89831 0.78171 0.0
C2968 C 0.72113 0.884 0.78682 0.0
C2969 C 0.73153 0.87228 0.78764 0.0
C2970 C 0.7149 0.91083 0.78066 0.0
C2971 C 0.7016 0.90849 0.7718 0.0
C2972 C 0.71808 0.92536 0.78735 0.0
C2973 C 0.73129 0.92833 0.79775 0.0
C2974 C 0.73337 0.91935 0.81054 0.0
C2975 C 0.74588 0.92212 0.82025 0.0
C2976 C 0.75635 0.93392 0.81734 0.0
C2977 C 0.75431 0.94299 0.80474 0.0
C2978 C 0.74182 0.94025 0.79499 0.0
C2979 C 0.66139 0.96092 0.77235 0.0
C2980 C 0.66818 0.97384 0.76584 0.0
C2981 C 0.67013 0.94831 0.77541 0.0
C2982 C 0.68582 0.94837 0.77201 0.0
C2983 C 0.6926 0.9613 0.76562 0.0
C2984 C 0.6839 0.97384 0.76251 0.0
C2985 C 0.69534 0.93509 0.77511 0.0
C2986 C 0.70836 0.93728 0.78437 0.0
C2987 C 0.69185 0.92044 0.76885 0.0
C2988 C 0.6786 0.91741 0.75856 0.0
C2989 C 0.6771 0.92546 0.74504 0.0
C2990 C 0.66453 0.92258 0.73543 0.0
C2991 C 0.65345 0.9116 0.73916 0.0
C2992 C 0.65494 0.90344 0.75249 0.0
C2993 C 0.66748 0.90629 0.76214 0.0
H2994 H 0.64372 0.90939 0.7317 0.0
H2995 H 0.76603 0.93605 0.82487 0.0
H2996 H 0.61083 0.5399 1.00052 0.0
H2997 H 0.63331 0.55584 1.00712 0.0
H2998 H 0.65195 0.54723 0.96222 0.0
H2999 H 0.62975 0.53089 0.95571 0.0
H3000 H 0.67392 0.54635 0.98327 0.0
H3001 H 0.63458 0.58054 0.97133 0.0
H3002 H 0.60916 0.59165 0.97327 0.0
H3003 H 0.6173 0.60323 0.02063 0.0
H3004 H 0.6427 0.59198 0.01902 0.0
H3005 H 0.72949 0.60731 0.98485 0.0
H3006 H 0.70762 0.59045 0.9782 0.0
H3007 H 0.68912 0.59749 0.02341 0.0
H3008 H 0.71083 0.61437 0.03011 0.0
H3009 H 0.66718 0.5992 1.00191 0.0
H3010 H 0.70672 0.56491 0.01362 0.0
H3011 H 0.73221 0.554 0.01133 0.0
H3012 H 0.72377 0.54291 0.96392 0.0
H3013 H 0.6983 0.55395 0.96588 0.0
C3014 C 0.61979 0.54122 0.9921 0.0
C3015 C 0.61838 0.53415 0.97753 0.0
C3016 C 0.6326 0.55048 0.99584 0.0
C3017 C 0.64427 0.55296 0.98509 0.0
C3018 C 0.64309 0.54559 0.97069 0.0
C3019 C 0.6303 0.53633 0.96694 0.0
C3020 C 0.65759 0.56338 0.98876 0.0
C3021 C 0.67243 0.55796 0.98716 0.0
C3022 C 0.65573 0.57848 0.99409 0.0
C3023 C 0.64047 0.58528 0.99509 0.0
C3024 C 0.6309 0.58534 0.98219 0.0
C3025 C 0.61651 0.59169 0.98323 0.0
C3026 C 0.6116 0.59811 0.99708 0.0
C3027 C 0.6211 0.59823 0.00991 0.0
C3028 C 0.6355 0.59188 0.00894 0.0
C3029 C 0.72076 0.60527 0.99339 0.0
C3030 C 0.72197 0.61218 0.00805 0.0
C3031 C 0.70829 0.59558 0.98958 0.0
C3032 C 0.69675 0.59256 1.00035 0.0
C3033 C 0.69785 0.5996 0.01491 0.0
C3034 C 0.71033 0.60924 0.01874 0.0
C3035 C 0.6835 0.58216 0.99647 0.0
C3036 C 0.66866 0.58759 0.99802 0.0
C3037 C 0.68538 0.56709 0.99104 0.0
C3038 C 0.70066 0.5604 0.98986 0.0
C3039 C 0.71034 0.56025 1.00267 0.0
C3040 C 0.72478 0.55403 1.00144 0.0
C3041 C 0.72962 0.54781 0.98748 0.0
C3042 C 0.72002 0.54776 0.97473 0.0
C3043 C 0.70557 0.55398 0.97589 0.0
H3044 H 0.7408 0.54299 0.98655 0.0
H3045 H 0.60046 0.60302 0.99785 0.0
H3046 H 0.25315 0.63477 0.22551 0.0
H3047 H 0.23515 0.61334 0.2284 0.0
H3048 H 0.20945 0.63949 0.2612 0.0
H3049 H 0.2274 0.66092 0.25839 0.0
H3050 H 0.21371 0.61217 0.27153 0.0
H3051 H 0.19659 0.63182 0.22402 0.0
H3052 H 0.19927 0.64021 0.19751 0.0
H3053 H 0.21366 0.59606 0.18324 0.0
H3054 H 0.21126 0.58745 0.20973 0.0
H3055 H 0.14634 0.56638 0.27544 0.0
H3056 H 0.16475 0.58698 0.27066 0.0
H3057 H 0.18966 0.55771 0.24006 0.0
H3058 H 0.17117 0.53698 0.24472 0.0
H3059 H 0.18662 0.58567 0.22825 0.0
H3060 H 0.20319 0.56585 0.2755 0.0
H3061 H 0.2005 0.55733 0.30197 0.0
H3062 H 0.18729 0.60176 0.31666 0.0
H3063 H 0.18969 0.6105 0.29022 0.0
C3064 C 0.24355 0.63604 0.23318 0.0
C3065 C 0.24176 0.6496 0.24173 0.0
C3066 C 0.23325 0.62375 0.23484 0.0
C3067 C 0.22084 0.62478 0.24496 0.0
C3068 C 0.21895 0.63835 0.25337 0.0
C3069 C 0.22926 0.65061 0.25177 0.0
C3070 C 0.21006 0.61161 0.24717 0.0
C3071 C 0.20764 0.60653 0.26206 0.0
C3072 C 0.20245 0.60389 0.23481 0.0
C3073 C 0.2039 0.60904 0.21889 0.0
C3074 C 0.20045 0.62393 0.21526 0.0
C3075 C 0.20189 0.62872 0.20023 0.0
C3076 C 0.20668 0.61869 0.18871 0.0
C3077 C 0.20998 0.60383 0.19218 0.0
C3078 C 0.20857 0.59898 0.2072 0.0
C3079 C 0.15572 0.56428 0.26768 0.0
C3080 C 0.15728 0.54997 0.26051 0.0
C3081 C 0.16628 0.57609 0.265 0.0
C3082 C 0.17871 0.57388 0.25513 0.0
C3083 C 0.18019 0.55969 0.24775 0.0
C3084 C 0.16963 0.54783 0.25046 0.0
C3085 C 0.19015 0.58641 0.25261 0.0
C3086 C 0.19272 0.59133 0.23769 0.0
C3087 C 0.19792 0.59399 0.26493 0.0
C3088 C 0.19648 0.58879 0.28085 0.0
C3089 C 0.19959 0.57377 0.28435 0.0
C3090 C 0.19814 0.56891 0.29935 0.0
C3091 C 0.19369 0.57899 0.31098 0.0
C3092 C 0.19072 0.59397 0.30763 0.0
C3093 C 0.19214 0.59888 0.29265 0.0
H3094 H 0.19257 0.57521 0.32259 0.0
H3095 H 0.20779 0.62242 0.17708 0.0
H3096 H 0.90024 0.52595 0.01339 0.0
H3097 H 0.87848 0.54116 1.00671 0.0
H3098 H 0.87805 0.56054 0.05248 0.0
H3099 H 0.8994 0.545 0.0594 0.0
H3100 H 0.84977 0.55386 0.04339 0.0
H3101 H 0.8931 0.58012 0.02194 0.0
H3102 H 0.9163 0.58289 1.00619 0.0
H3103 H 0.89043 0.5704 0.96585 0.0
H3104 H 0.8671 0.56736 0.98139 0.0
H3105 H 0.80302 0.61646 0.02975 0.0
H3106 H 0.82442 0.60063 0.03605 0.0
H3107 H 0.82347 0.5811 0.99033 0.0
H3108 H 0.80221 0.59701 0.98388 0.0
H3109 H 0.85229 0.5876 0.99911 0.0
H3110 H 0.80886 0.56166 0.02067 0.0
H3111 H 0.78569 0.55912 0.0365 0.0
H3112 H 0.81184 0.57123 0.07677 0.0
H3113 H 0.83514 0.57405 0.06114 0.0
C3114 C 0.89543 0.53333 0.02209 0.0
C3115 C 0.9017 0.53428 0.03692 0.0
C3116 C 0.88307 0.54216 0.01821 0.0
C3117 C 0.87671 0.55221 0.02902 0.0
C3118 C 0.88276 0.55296 0.04389 0.0
C3119 C 0.8951 0.54415 0.04779 0.0
C3120 C 0.86376 0.56192 0.02491 0.0
C3121 C 0.85042 0.56137 0.03382 0.0
C3122 C 0.86438 0.57152 0.01222 0.0
C3123 C 0.87839 0.57336 1.00285 0.0
C3124 C 0.89238 0.57784 0.00972 0.0
C3125 C 0.90555 0.57948 1.00083 0.0
C3126 C 0.90485 0.57678 0.98504 0.0
C3127 C 0.89096 0.57247 0.97809 0.0
C3128 C 0.87776 0.5708 0.98693 0.0
C3129 C 0.80736 0.60881 0.02102 0.0
C3130 C 0.80082 0.608 1.00631 0.0
C3131 C 0.81958 0.5997 0.02466 0.0
C3132 C 0.8255 0.5895 0.01373 0.0
C3133 C 0.81913 0.58884 0.99898 0.0
C3134 C 0.80691 0.59793 0.99533 0.0
C3135 C 0.83833 0.57957 0.01762 0.0
C3136 C 0.85164 0.58007 0.00867 0.0
C3137 C 0.83769 0.56995 0.03029 0.0
C3138 C 0.82371 0.56821 0.03971 0.0
C3139 C 0.80964 0.5639 0.03289 0.0
C3140 C 0.79649 0.56239 0.04182 0.0
C3141 C 0.79728 0.56505 0.05762 0.0
C3142 C 0.81124 0.56919 0.06452 0.0
C3143 C 0.82442 0.57073 0.05564 0.0
H3144 H 0.78709 0.56387 0.06452 0.0
H3145 H 0.91506 0.57806 0.97817 0.0
H3146 H 0.10807 0.98032 0.06273 0.0
H3147 H 0.12981 0.96446 0.05721 0.0
H3148 H 0.14619 0.99612 0.02398 0.0
H3149 H 0.12447 0.01217 0.02954 0.0
H3150 H 0.14842 0.96731 0.01326 0.0
H3151 H 0.16271 0.99495 0.05931 0.0
H3152 H 0.15947 1.00447 0.08583 0.0
H3153 H 0.15696 0.95891 0.10149 0.0
H3154 H 0.15998 0.94911 0.07501 0.0
H3155 H 0.22374 0.94096 1.00564 0.0
H3156 H 0.20138 0.95607 0.01077 0.0
H3157 H 0.186 0.92442 0.04447 0.0
H3158 H 0.20854 0.9093 0.03954 0.0
H3159 H 0.18301 0.95291 0.05495 0.0
H3160 H 0.16903 0.9252 0.00904 0.0
H3161 H 0.17221 0.91559 0.98254 0.0
H3162 H 0.17402 0.96107 0.96663 0.0
H3163 H 0.17106 0.97097 0.99308 0.0
C3164 C 0.11635 0.98403 0.05434 0.0
C3165 C 0.11454 0.99765 0.0467 0.0
C3166 C 0.12879 0.97489 0.05117 0.0
C3167 C 0.1398 0.97917 0.04033 0.0
C3168 C 0.13787 0.99257 0.03241 0.0
C3169 C 0.1254 1.00173 0.03557 0.0
C3170 C 0.15333 0.96967 0.03733 0.0
C3171 C 0.1561 0.96434 0.02235 0.0
C3172 C 0.16318 0.96544 0.04922 0.0
C3173 C 0.16143 0.9713 0.06516 0.0
C3174 C 0.16135 0.98696 0.06839 0.0
C3175 C 0.15957 0.9924 0.08342 0.0
C3176 C 0.15797 0.9823 0.09533 0.0
C3177 C 0.15818 0.96672 0.09225 0.0
C3178 C 0.15994 0.96122 0.07723 0.0
C3179 C 0.2156 0.93715 0.01414 0.0
C3180 C 0.21795 0.92385 0.02215 0.0
C3181 C 0.20275 0.9458 0.017 0.0
C3182 C 0.19184 0.94132 0.02787 0.0
C3183 C 0.19421 0.92811 0.036 0.0
C3184 C 0.2071 0.91944 0.03314 0.0
C3185 C 0.17812 0.95055 0.03087 0.0
C3186 C 0.17532 0.95586 0.04586 0.0
C3187 C 0.16824 0.95474 0.01899 0.0
C3188 C 0.16997 0.94883 1.00306 0.0
C3189 C 0.17022 0.93316 0.99991 0.0
C3190 C 0.17196 0.92766 0.98489 0.0
C3191 C 0.17335 0.93772 0.97292 0.0
C3192 C 0.17296 0.9533 0.97593 0.0
C3193 C 0.17124 0.95886 0.99092 0.0
H3194 H 0.1747 0.93344 0.9613 0.0
H3195 H 0.15659 0.98654 0.10696 0.0
loop_
_geom_bond_atom_site_label_1
_geom_bond_atom_site_label_2
_geom_bond_distance
_geom_bond_site_symmetry_2
_ccdc_geom_bond_type
C0 C1 1.264 . S
C0 C5 1.479 1_455 S
C0 C10 1.465 . S
C1 C0 1.264 . S
C1 C3 1.339 1_455 S
C1 H28 0.931 . S
C2 C3 1.395 . S
C2 C4 1.320 . S
C3 C1 1.339 1_655 S
C3 C2 1.395 . S
C3 H29 0.929 . S
C4 C2 1.320 . S
C4 C5 1.405 . S
C4 H30 0.930 . S
C5 C0 1.479 1_655 S
C5 C4 1.405 . S
C5 H31 0.931 . S
U6 O7 2.454 . S
U6 O8 2.458 . S
U6 C9 2.984 . S
U6 C10 2.847 . S
U6 C23 2.882 . S
U6 O24 2.441 . S
U6 O25 2.420 . S
U6 O26 2.455 . S
U6 O27 2.449 . S
O7 U6 2.454 . S
O7 C9 1.353 . S
O8 U6 2.458 . S
O8 C9 1.286 . S
C9 U6 2.984 . S
C9 O7 1.353 . S
C9 O8 1.286 . S
C9 C11 1.363 . S
C10 C0 1.465 . S
C10 U6 2.847 . S
C10 O24 1.249 . S
C10 O25 1.202 . S
C11 C9 1.363 . S
C11 C13 1.408 . S
C11 C16 1.342 . S
C12 C13 1.310 . S
C12 C15 1.461 1_554 S
C12 H32 0.932 . S
C13 C11 1.408 . S
C13 C12 1.310 . S
C13 H33 0.930 . S
C14 C15 1.474 . S
C14 C16 1.285 1_556 S
C14 H34 0.929 . S
C15 C12 1.461 1_556 S
C15 C14 1.474 . S
C16 C11 1.342 . S
C16 C14 1.285 1_554 S
C16 H35 0.930 . S
C17 C20 1.424 . S
C17 C22 1.245 . S
C17 C23 1.428 . S
C18 C21 1.260 1_545 S
C18 C22 1.477 . S
C18 H36 0.932 . S
C19 C20 1.384 1_565 S
C19 C21 1.479 . S
C19 H37 0.929 . S
C20 C17 1.424 . S
C20 C19 1.384 1_545 S
C20 H38 0.928 . S
C21 C18 1.260 1_565 S
C21 C19 1.479 . S
C22 C17 1.245 . S
C22 C18 1.477 . S
C22 H39 0.932 . S
C23 U6 2.882 . S
C23 C17 1.428 . S
C23 O26 1.301 . S
C23 O27 1.282 . S
O24 U6 2.441 . S
O24 C10 1.249 . S
O25 U6 2.420 . S
O25 C10 1.202 . S
O26 U6 2.455 . S
O26 C23 1.301 . S
O27 U6 2.449 . S
O27 C23 1.282 . S
H28 C1 0.931 . S
H29 C3 0.929 . S
H30 C4 0.930 . S
H31 C5 0.931 . S
H32 C12 0.932 . S
H33 C13 0.930 . S
H34 C14 0.929 . S
H35 C16 0.930 . S
H36 C18 0.932 . S
H37 C19 0.929 . S
H38 C20 0.928 . S
H39 C22 0.932 . S
C40 C41 1.264 . S
C40 C45 1.479 . S
C40 C50 1.465 . S
C41 C40 1.264 . S
C41 C43 1.339 . S
C41 H68 0.931 . S
C42 C43 1.395 . S
C42 C44 1.320 . S
C43 C41 1.339 . S
C43 C42 1.395 . S
C43 H69 0.929 . S
C44 C42 1.320 . S
C44 C45 1.405 . S
C44 H70 0.930 . S
C45 C40 1.479 . S
C45 C44 1.405 . S
C45 H71 0.931 . S
U46 O47 2.454 . S
U46 O48 2.458 . S
U46 C49 2.984 . S
U46 C50 2.847 . S
U46 C63 2.882 . S
U46 O64 2.441 . S
U46 O65 2.420 . S
U46 O66 2.455 . S
U46 O67 2.449 . S
O47 U46 2.454 . S
O47 C49 1.353 . S
O48 U46 2.458 . S
O48 C49 1.286 . S
C49 U46 2.984 . S
C49 O47 1.353 . S
C49 O48 1.286 . S
C49 C51 1.363 . S
C50 C40 1.465 . S
C50 U46 2.847 . S
C50 O64 1.249 . S
C50 O65 1.202 . S
C51 C49 1.363 . S
C51 C53 1.408 . S
C51 C56 1.342 . S
C52 C53 1.310 . S
C52 C55 1.461 . S
C52 H72 0.932 . S
C53 C51 1.408 . S
C53 C52 1.310 . S
C53 H73 0.930 . S
C54 C55 1.474 . S
C54 C56 1.285 . S
C54 H74 0.929 . S
C55 C52 1.461 . S
C55 C54 1.474 . S
C56 C51 1.342 . S
C56 C54 1.285 . S
C56 H75 0.930 . S
C57 C60 1.424 . S
C57 C62 1.245 . S
C57 C63 1.428 . S
C58 C61 1.260 . S
C58 C62 1.477 . S
C58 H76 0.932 . S
C59 C60 1.384 . S
C59 C61 1.479 . S
C59 H77 0.929 . S
C60 C57 1.424 . S
C60 C59 1.384 . S
C60 H78 0.928 . S
C61 C58 1.260 . S
C61 C59 1.479 . S
C62 C57 1.245 . S
C62 C58 1.477 . S
C62 H79 0.932 . S
C63 U46 2.882 . S
C63 C57 1.428 . S
C63 O66 1.301 . S
C63 O67 1.282 . S
O64 U46 2.441 . S
O64 C50 1.249 . S
O65 U46 2.420 . S
O65 C50 1.202 . S
O66 U46 2.455 . S
O66 C63 1.301 . S
O67 U46 2.449 . S
O67 C63 1.282 . S
H68 C41 0.931 . S
H69 C43 0.929 . S
H70 C44 0.930 . S
H71 C45 0.931 . S
H72 C52 0.932 . S
H73 C53 0.930 . S
H74 C54 0.929 . S
H75 C56 0.930 . S
H76 C58 0.932 . S
H77 C59 0.929 . S
H78 C60 0.928 . S
H79 C62 0.932 . S
C80 C81 1.264 . S
C80 C85 1.479 1_554 S
C80 C90 1.465 . S
C81 C80 1.264 . S
C81 C83 1.339 1_554 S
C81 H108 0.931 . S
C82 C83 1.395 . S
C82 C84 1.320 . S
C83 C81 1.339 1_556 S
C83 C82 1.395 . S
C83 H109 0.943 . S
C84 C82 1.320 . S
C84 C85 1.405 . S
C84 H110 0.930 . S
C85 C80 1.479 1_556 S
C85 C84 1.405 . S
C85 H111 0.931 . S
U86 O87 2.454 . S
U86 O88 2.458 . S
U86 C89 2.984 . S
U86 C90 2.847 . S
U86 C103 2.882 . S
U86 O104 2.441 . S
U86 O105 2.420 . S
U86 O106 2.455 . S
U86 O107 2.449 . S
O87 U86 2.454 . S
O87 C89 1.353 . S
O88 U86 2.458 . S
O88 C89 1.286 . S
C89 U86 2.984 . S
C89 O87 1.353 . S
C89 O88 1.286 . S
C89 C91 1.363 . S
C90 C80 1.465 . S
C90 U86 2.847 . S
C90 O104 1.249 . S
C90 O105 1.202 . S
C91 C89 1.363 . S
C91 C93 1.408 . S
C91 C96 1.342 . S
C92 C93 1.310 . S
C92 C95 1.461 . S
C92 H112 0.932 . S
C93 C91 1.408 . S
C93 C92 1.310 . S
C93 H113 0.930 . S
C94 C95 1.474 . S
C94 C96 1.285 . S
C94 H114 0.929 . S
C95 C92 1.461 . S
C95 C94 1.474 . S
C96 C91 1.342 . S
C96 C94 1.285 . S
C96 H115 0.930 . S
C97 C100 1.424 1_655 S
C97 C102 1.245 . S
C97 C103 1.428 . S
C98 C101 1.260 . S
C98 C102 1.477 1_455 S
C98 H116 0.932 . S
C99 C100 1.384 . S
C99 C101 1.479 . S
C99 H117 0.929 . S
C100 C97 1.424 1_455 S
C100 C99 1.384 . S
C100 H118 0.928 . S
C101 C98 1.260 . S
C101 C99 1.479 . S
C102 C97 1.245 . S
C102 C98 1.477 1_655 S
C102 H119 0.932 . S
C103 U86 2.882 . S
C103 C97 1.428 . S
C103 O106 1.301 . S
C103 O107 1.282 . S
O104 U86 2.441 . S
O104 C90 1.249 . S
O105 U86 2.420 . S
O105 C90 1.202 . S
O106 U86 2.455 . S
O106 C103 1.301 . S
O107 U86 2.449 . S
O107 C103 1.282 . S
H108 C81 0.931 . S
H109 C83 0.943 . S
H110 C84 0.930 . S
H111 C85 0.931 . S
H112 C92 0.932 . S
H113 C93 0.930 . S
H114 C94 0.929 . S
H115 C96 0.930 . S
H116 C98 0.932 . S
H117 C99 0.929 . S
H118 C100 0.928 . S
H119 C102 0.932 . S
C120 C121 1.264 . S
C120 C125 1.479 . S
C120 C130 1.465 . S
C121 C120 1.264 . S
C121 C123 1.339 . S
C121 H148 0.931 . S
C122 C123 1.395 . S
C122 C124 1.320 . S
C123 C121 1.339 . S
C123 C122 1.395 . S
C123 H149 0.929 . S
C124 C122 1.320 . S
C124 C125 1.405 . S
C124 H150 0.930 . S
C125 C120 1.479 . S
C125 C124 1.405 . S
C125 H151 0.931 . S
U126 O127 2.454 . S
U126 O128 2.458 . S
U126 C129 2.984 . S
U126 C130 2.847 . S
U126 C143 2.882 . S
U126 O144 2.441 . S
U126 O145 2.420 . S
U126 O146 2.455 . S
U126 O147 2.449 . S
O127 U126 2.454 . S
O127 C129 1.353 . S
O128 U126 2.458 . S
O128 C129 1.286 . S
C129 U126 2.984 . S
C129 O127 1.353 . S
C129 O128 1.286 . S
C129 C131 1.363 . S
C130 C120 1.465 . S
C130 U126 2.847 . S
C130 O144 1.249 . S
C130 O145 1.202 . S
C131 C129 1.363 . S
C131 C133 1.408 . S
C131 C136 1.342 . S
C132 C133 1.310 . S
C132 C135 1.461 . S
C132 H152 0.932 . S
C133 C131 1.408 . S
C133 C132 1.310 . S
C133 H153 0.930 . S
C134 C135 1.474 . S
C134 C136 1.285 . S
C134 H154 0.929 . S
C135 C132 1.461 . S
C135 C134 1.474 . S
C136 C131 1.342 . S
C136 C134 1.285 . S
C136 H155 0.930 . S
C137 C140 1.424 . S
C137 C142 1.245 . S
C137 C143 1.428 . S
C138 C141 1.260 . S
C138 C142 1.477 . S
C138 H156 0.932 . S
C139 C140 1.384 . S
C139 C141 1.479 . S
C139 H157 0.929 . S
C140 C137 1.424 . S
C140 C139 1.384 . S
C140 H158 0.928 . S
C141 C138 1.260 . S
C141 C139 1.479 . S
C142 C137 1.245 . S
C142 C138 1.477 . S
C142 H159 0.932 . S
C143 U126 2.882 . S
C143 C137 1.428 . S
C143 O146 1.301 . S
C143 O147 1.282 . S
O144 U126 2.441 . S
O144 C130 1.249 . S
O145 U126 2.420 . S
O145 C130 1.202 . S
O146 U126 2.455 . S
O146 C143 1.301 . S
O147 U126 2.449 . S
O147 C143 1.282 . S
H148 C121 0.931 . S
H149 C123 0.929 . S
H150 C124 0.930 . S
H151 C125 0.931 . S
H152 C132 0.932 . S
H153 C133 0.930 . S
H154 C134 0.929 . S
H155 C136 0.930 . S
H156 C138 0.932 . S
H157 C139 0.929 . S
H158 C140 0.928 . S
H159 C142 0.932 . S
C160 C161 1.264 . S
C160 C165 1.479 1_455 S
C160 C170 1.465 . S
C161 C160 1.264 . S
C161 C163 1.305 1_455 S
C161 H188 0.931 1_565 S
C162 C163 1.440 . S
C162 C164 1.320 . S
C163 C161 1.305 1_655 S
C163 C162 1.440 . S
C163 H189 0.919 1_665 S
C164 C162 1.320 . S
C164 C165 1.405 . S
C164 H190 0.930 . S
C165 C160 1.479 1_655 S
C165 C164 1.405 . S
C165 H191 0.931 . S
U166 O167 2.454 . S
U166 O168 2.458 . S
U166 C169 2.984 . S
U166 C170 2.847 . S
U166 C183 2.882 . S
U166 O184 2.441 . S
U166 O185 2.420 . S
U166 O186 2.455 . S
U166 O187 2.480 . S
O167 U166 2.454 . S
O167 C169 1.353 . S
O168 U166 2.458 . S
O168 C169 1.286 . S
C169 U166 2.984 . S
C169 O167 1.353 . S
C169 O168 1.286 . S
C169 C171 1.363 . S
C170 C160 1.465 . S
C170 U166 2.847 . S
C170 O184 1.249 . S
C170 O185 1.202 . S
C171 C169 1.363 . S
C171 C173 1.408 . S
C171 C176 1.342 . S
C172 C173 1.310 . S
C172 C175 1.461 . S
C172 H192 0.932 . S
C173 C171 1.408 . S
C173 C172 1.310 . S
C173 H193 0.930 . S
C174 C175 1.474 . S
C174 C176 1.285 . S
C174 H194 0.929 . S
C175 C172 1.461 . S
C175 C174 1.474 . S
C176 C171 1.342 . S
C176 C174 1.285 . S
C176 H195 0.930 . S
C177 C180 1.424 . S
C177 C182 1.245 . S
C177 C183 1.428 1_545 S
C178 C181 1.260 . S
C178 C182 1.477 . S
C178 H196 0.932 . S
C179 C180 1.384 . S
C179 C181 1.479 . S
C179 H197 0.929 . S
C180 C177 1.424 . S
C180 C179 1.384 . S
C180 H198 0.928 . S
C181 C178 1.260 . S
C181 C179 1.479 . S
C182 C177 1.245 . S
C182 C178 1.477 . S
C182 H199 0.932 1_545 S
C183 U166 2.882 . S
C183 C177 1.428 1_565 S
C183 O186 1.301 . S
C183 O187 1.291 . S
O184 U166 2.441 . S
O184 C170 1.249 . S
O185 U166 2.420 . S
O185 C170 1.202 . S
O186 U166 2.455 . S
O186 C183 1.301 . S
O187 U166 2.480 . S
O187 C183 1.291 . S
H188 C161 0.931 1_545 S
H189 C163 0.919 1_445 S
H190 C164 0.930 . S
H191 C165 0.931 . S
H192 C172 0.932 . S
H193 C173 0.930 . S
H194 C174 0.929 . S
H195 C176 0.930 . S
H196 C178 0.932 . S
H197 C179 0.929 . S
H198 C180 0.928 . S
H199 C182 0.932 1_565 S
C200 C201 1.264 . S
C200 C205 1.479 . S
C200 C210 1.465 . S
C201 C200 1.264 . S
C201 C203 1.339 . S
C201 H228 0.931 . S
C202 C203 1.395 . S
C202 C204 1.320 . S
C203 C201 1.339 . S
C203 C202 1.395 . S
C203 H229 0.929 . S
C204 C202 1.320 . S
C204 C205 1.405 . S
C204 H230 0.930 . S
C205 C200 1.479 . S
C205 C204 1.405 . S
C205 H231 0.931 . S
U206 O207 2.454 . S
U206 O208 2.458 . S
U206 C209 2.984 . S
U206 C210 2.847 . S
U206 C223 2.882 . S
U206 O224 2.441 . S
U206 O225 2.420 . S
U206 O226 2.455 . S
U206 O227 2.449 . S
O207 U206 2.454 . S
O207 C209 1.353 . S
O208 U206 2.458 . S
O208 C209 1.286 . S
C209 U206 2.984 . S
C209 O207 1.353 . S
C209 O208 1.286 . S
C209 C211 1.363 . S
C210 C200 1.465 . S
C210 U206 2.847 . S
C210 O224 1.249 . S
C210 O225 1.202 . S
C211 C209 1.363 . S
C211 C213 1.408 . S
C211 C216 1.342 . S
C212 C213 1.310 . S
C212 C215 1.461 . S
C212 H232 0.932 . S
C213 C211 1.408 . S
C213 C212 1.310 . S
C213 H233 0.930 . S
C214 C215 1.474 . S
C214 C216 1.285 . S
C214 H234 0.929 . S
C215 C212 1.461 . S
C215 C214 1.474 . S
C216 C211 1.342 . S
C216 C214 1.285 . S
C216 H235 0.930 . S
C217 C220 1.424 . S
C217 C222 1.245 . S
C217 C223 1.428 . S
C218 C221 1.260 . S
C218 C222 1.477 . S
C218 H236 0.932 . S
C219 C220 1.384 . S
C219 C221 1.479 . S
C219 H237 0.929 . S
C220 C217 1.424 . S
C220 C219 1.384 . S
C220 H238 0.928 . S
C221 C218 1.260 . S
C221 C219 1.479 . S
C222 C217 1.245 . S
C222 C218 1.477 . S
C222 H239 0.932 . S
C223 U206 2.882 . S
C223 C217 1.428 . S
C223 O226 1.301 . S
C223 O227 1.282 . S
O224 U206 2.441 . S
O224 C210 1.249 . S
O225 U206 2.420 . S
O225 C210 1.202 . S
O226 U206 2.455 . S
O226 C223 1.301 . S
O227 U206 2.449 . S
O227 C223 1.282 . S
H228 C201 0.931 . S
H229 C203 0.929 . S
H230 C204 0.930 . S
H231 C205 0.931 . S
H232 C212 0.932 . S
H233 C213 0.930 . S
H234 C214 0.929 . S
H235 C216 0.930 . S
H236 C218 0.932 . S
H237 C219 0.929 . S
H238 C220 0.928 . S
H239 C222 0.932 . S
C240 C241 1.264 . S
C240 C245 1.479 . S
C240 C250 1.465 . S
C241 C240 1.264 . S
C241 C243 1.339 . S
C241 H268 0.931 . S
C242 C243 1.395 . S
C242 C244 1.320 . S
C243 C241 1.339 . S
C243 C242 1.395 . S
C243 H269 0.929 . S
C244 C242 1.320 . S
C244 C245 1.405 . S
C244 H270 0.930 . S
C245 C240 1.479 . S
C245 C244 1.405 . S
C245 H271 0.931 . S
U246 O247 2.454 . S
U246 O248 2.458 . S
U246 C249 2.984 . S
U246 C250 2.847 . S
U246 C263 2.882 . S
U246 O264 2.441 . S
U246 O265 2.420 . S
U246 O266 2.455 . S
U246 O267 2.449 . S
O247 U246 2.454 . S
O247 C249 1.353 . S
O248 U246 2.458 . S
O248 C249 1.286 . S
C249 U246 2.984 . S
C249 O247 1.353 . S
C249 O248 1.286 . S
C249 C251 1.363 . S
C250 C240 1.465 . S
C250 U246 2.847 . S
C250 O264 1.249 . S
C250 O265 1.202 . S
C251 C249 1.363 . S
C251 C253 1.408 . S
C251 C256 1.342 . S
C252 C253 1.310 . S
C252 C255 1.461 . S
C252 H272 0.932 . S
C253 C251 1.408 . S
C253 C252 1.310 . S
C253 H273 0.930 . S
C254 C255 1.474 . S
C254 C256 1.285 . S
C254 H274 0.929 . S
C255 C252 1.461 . S
C255 C254 1.474 . S
C256 C251 1.342 . S
C256 C254 1.285 . S
C256 H275 0.930 . S
C257 C260 1.424 1_655 S
C257 C262 1.245 . S
C257 C263 1.428 . S
C258 C261 1.260 . S
C258 C262 1.477 1_455 S
C258 H276 0.932 . S
C259 C260 1.384 . S
C259 C261 1.479 . S
C259 H277 0.929 . S
C260 C257 1.424 1_455 S
C260 C259 1.384 . S
C260 H278 0.928 . S
C261 C258 1.260 . S
C261 C259 1.479 . S
C262 C257 1.245 . S
C262 C258 1.477 1_655 S
C262 H279 0.932 . S
C263 U246 2.882 . S
C263 C257 1.428 . S
C263 O266 1.301 . S
C263 O267 1.282 . S
O264 U246 2.441 . S
O264 C250 1.249 . S
O265 U246 2.420 . S
O265 C250 1.202 . S
O266 U246 2.455 . S
O266 C263 1.301 . S
O267 U246 2.449 . S
O267 C263 1.282 . S
H268 C241 0.931 . S
H269 C243 0.929 . S
H270 C244 0.930 . S
H271 C245 0.931 . S
H272 C252 0.932 . S
H273 C253 0.930 . S
H274 C254 0.929 . S
H275 C256 0.930 . S
H276 C258 0.932 . S
H277 C259 0.929 . S
H278 C260 0.928 . S
H279 C262 0.932 . S
C280 C281 1.264 . S
C280 C285 1.479 . S
C280 C290 1.465 . S
C281 C280 1.264 . S
C281 C283 1.339 . S
C281 H308 0.931 . S
C282 C283 1.395 . S
C282 C284 1.320 . S
C283 C281 1.339 . S
C283 C282 1.395 . S
C283 H309 0.929 . S
C284 C282 1.320 . S
C284 C285 1.405 . S
C284 H310 0.930 . S
C285 C280 1.479 . S
C285 C284 1.405 . S
C285 H311 0.931 . S
U286 O287 2.454 . S
U286 O288 2.458 . S
U286 C289 2.984 . S
U286 C290 2.847 . S
U286 C303 2.882 . S
U286 O304 2.441 . S
U286 O305 2.420 . S
U286 O306 2.455 . S
U286 O307 2.449 . S
O287 U286 2.454 . S
O287 C289 1.353 . S
O288 U286 2.458 . S
O288 C289 1.286 . S
C289 U286 2.984 . S
C289 O287 1.353 . S
C289 O288 1.286 . S
C289 C291 1.363 . S
C290 C280 1.465 . S
C290 U286 2.847 . S
C290 O304 1.249 . S
C290 O305 1.202 . S
C291 C289 1.363 . S
C291 C293 1.408 . S
C291 C296 1.342 . S
C292 C293 1.310 . S
C292 C295 1.461 . S
C292 H312 0.932 . S
C293 C291 1.408 . S
C293 C292 1.310 . S
C293 H313 0.930 . S
C294 C295 1.474 . S
C294 C296 1.285 . S
C294 H314 0.929 . S
C295 C292 1.461 . S
C295 C294 1.474 . S
C296 C291 1.342 . S
C296 C294 1.285 . S
C296 H315 0.930 . S
C297 C300 1.424 . S
C297 C302 1.245 . S
C297 C303 1.428 . S
C298 C301 1.260 . S
C298 C302 1.477 . S
C298 H316 0.932 . S
C299 C300 1.384 . S
C299 C301 1.479 . S
C299 H317 0.929 . S
C300 C297 1.424 . S
C300 C299 1.384 . S
C300 H318 0.928 . S
C301 C298 1.260 . S
C301 C299 1.479 . S
C302 C297 1.245 . S
C302 C298 1.477 . S
C302 H319 0.932 . S
C303 U286 2.882 . S
C303 C297 1.428 . S
C303 O306 1.301 . S
C303 O307 1.282 . S
O304 U286 2.441 . S
O304 C290 1.249 . S
O305 U286 2.420 . S
O305 C290 1.202 . S
O306 U286 2.455 . S
O306 C303 1.301 . S
O307 U286 2.449 . S
O307 C303 1.282 . S
H308 C281 0.931 . S
H309 C283 0.929 . S
H310 C284 0.930 . S
H311 C285 0.931 . S
H312 C292 0.932 . S
H313 C293 0.930 . S
H314 C294 0.929 . S
H315 C296 0.930 . S
H316 C298 0.932 . S
H317 C299 0.929 . S
H318 C300 0.928 . S
H319 C302 0.932 . S
C320 C321 1.264 . S
C320 C325 1.479 . S
C320 C330 1.465 . S
C321 C320 1.264 . S
C321 C323 1.339 . S
C321 H348 0.931 . S
C322 C323 1.395 . S
C322 C324 1.320 . S
C323 C321 1.339 . S
C323 C322 1.395 . S
C323 H349 0.929 . S
C324 C322 1.320 . S
C324 C325 1.405 . S
C324 H350 0.930 . S
C325 C320 1.479 . S
C325 C324 1.405 . S
C325 H351 0.931 . S
U326 O327 2.454 . S
U326 O328 2.458 . S
U326 C329 2.984 . S
U326 C330 2.847 . S
U326 C343 2.882 . S
U326 O344 2.441 . S
U326 O345 2.420 . S
U326 O346 2.455 . S
U326 O347 2.449 . S
O327 U326 2.454 . S
O327 C329 1.353 . S
O328 U326 2.458 . S
O328 C329 1.286 . S
C329 U326 2.984 . S
C329 O327 1.353 . S
C329 O328 1.286 . S
C329 C331 1.363 . S
C330 C320 1.465 . S
C330 U326 2.847 . S
C330 O344 1.249 . S
C330 O345 1.202 . S
C331 C329 1.363 . S
C331 C333 1.408 . S
C331 C336 1.342 . S
C332 C333 1.310 . S
C332 C335 1.461 . S
C332 H352 0.932 . S
C333 C331 1.408 . S
C333 C332 1.310 . S
C333 H353 0.930 . S
C334 C335 1.474 . S
C334 C336 1.285 . S
C334 H354 0.929 . S
C335 C332 1.461 . S
C335 C334 1.474 . S
C336 C331 1.342 . S
C336 C334 1.285 . S
C336 H355 0.930 . S
C337 C340 1.424 . S
C337 C342 1.245 . S
C337 C343 1.428 . S
C338 C341 1.260 . S
C338 C342 1.477 . S
C338 H356 0.932 . S
C339 C340 1.384 . S
C339 C341 1.479 . S
C339 H357 0.929 . S
C340 C337 1.424 . S
C340 C339 1.384 . S
C340 H358 0.928 . S
C341 C338 1.260 . S
C341 C339 1.479 . S
C342 C337 1.245 . S
C342 C338 1.477 . S
C342 H359 0.932 . S
C343 U326 2.882 . S
C343 C337 1.428 . S
C343 O346 1.301 . S
C343 O347 1.282 . S
O344 U326 2.441 . S
O344 C330 1.249 . S
O345 U326 2.420 . S
O345 C330 1.202 . S
O346 U326 2.455 . S
O346 C343 1.301 . S
O347 U326 2.449 . S
O347 C343 1.282 . S
H348 C321 0.931 . S
H349 C323 0.929 . S
H350 C324 0.930 . S
H351 C325 0.931 . S
H352 C332 0.932 . S
H353 C333 0.930 . S
H354 C334 0.929 . S
H355 C336 0.930 . S
H356 C338 0.932 . S
H357 C339 0.929 . S
H358 C340 0.928 . S
H359 C342 0.932 . S
C360 C361 1.264 . S
C360 C365 1.479 . S
C360 C370 1.465 . S
C361 C360 1.264 . S
C361 C363 1.339 . S
C361 H388 0.931 . S
C362 C363 1.395 . S
C362 C364 1.320 . S
C363 C361 1.339 . S
C363 C362 1.395 . S
C363 H389 0.929 . S
C364 C362 1.320 . S
C364 C365 1.405 . S
C364 H390 0.930 . S
C365 C360 1.479 . S
C365 C364 1.405 . S
C365 H391 0.931 . S
U366 O367 2.454 . S
U366 O368 2.458 . S
U366 C369 2.984 . S
U366 C370 2.847 . S
U366 C383 2.882 . S
U366 O384 2.441 . S
U366 O385 2.420 . S
U366 O386 2.455 . S
U366 O387 2.449 . S
O367 U366 2.454 . S
O367 C369 1.353 . S
O368 U366 2.458 . S
O368 C369 1.286 . S
C369 U366 2.984 . S
C369 O367 1.353 . S
C369 O368 1.286 . S
C369 C371 1.337 1_565 S
C370 C360 1.465 . S
C370 U366 2.847 . S
C370 O384 1.249 . S
C370 O385 1.202 . S
C371 C369 1.337 1_545 S
C371 C373 1.404 1_545 S
C371 C376 1.371 . S
C372 C373 1.310 1_545 S
C372 C375 1.461 . S
C372 H392 0.932 . S
C373 C371 1.404 1_565 S
C373 C372 1.310 1_565 S
C373 H393 0.930 . S
C374 C375 1.474 . S
C374 C376 1.285 . S
C374 H394 0.929 . S
C375 C372 1.461 . S
C375 C374 1.474 . S
C376 C371 1.371 . S
C376 C374 1.285 . S
C376 H395 0.930 . S
C377 C380 1.424 . S
C377 C382 1.245 . S
C377 C383 1.428 . S
C378 C381 1.260 . S
C378 C382 1.477 . S
C378 H396 0.932 . S
C379 C380 1.384 . S
C379 C381 1.479 . S
C379 H397 0.929 . S
C380 C377 1.424 . S
C380 C379 1.384 . S
C380 H398 0.928 . S
C381 C378 1.260 . S
C381 C379 1.479 . S
C382 C377 1.245 . S
C382 C378 1.477 . S
C382 H399 0.932 . S
C383 U366 2.882 . S
C383 C377 1.428 . S
C383 O386 1.301 . S
C383 O387 1.282 . S
O384 U366 2.441 . S
O384 C370 1.249 . S
O385 U366 2.420 . S
O385 C370 1.202 . S
O386 U366 2.455 . S
O386 C383 1.301 . S
O387 U366 2.449 . S
O387 C383 1.282 . S
H388 C361 0.931 . S
H389 C363 0.929 . S
H390 C364 0.930 . S
H391 C365 0.931 . S
H392 C372 0.932 . S
H393 C373 0.930 . S
H394 C374 0.929 . S
H395 C376 0.930 . S
H396 C378 0.932 . S
H397 C379 0.929 . S
H398 C380 0.928 . S
H399 C382 0.932 . S
C400 C401 1.264 . S
C400 C405 1.479 . S
C400 C410 1.465 . S
C401 C400 1.264 . S
C401 C403 1.339 . S
C401 H428 0.931 . S
C402 C403 1.395 . S
C402 C404 1.320 . S
C403 C401 1.339 . S
C403 C402 1.395 . S
C403 H429 0.929 . S
C404 C402 1.320 . S
C404 C405 1.405 . S
C404 H430 0.930 . S
C405 C400 1.479 . S
C405 C404 1.405 . S
C405 H431 0.931 . S
U406 O407 2.454 . S
U406 O408 2.458 . S
U406 C409 2.984 . S
U406 C410 2.847 . S
U406 C423 2.882 . S
U406 O424 2.441 . S
U406 O425 2.420 . S
U406 O426 2.455 . S
U406 O427 2.449 . S
O407 U406 2.454 . S
O407 C409 1.353 . S
O408 U406 2.458 . S
O408 C409 1.286 . S
C409 U406 2.984 . S
C409 O407 1.353 . S
C409 O408 1.286 . S
C409 C411 1.363 . S
C410 C400 1.465 . S
C410 U406 2.847 . S
C410 O424 1.249 . S
C410 O425 1.202 . S
C411 C409 1.363 . S
C411 C413 1.408 . S
C411 C416 1.342 . S
C412 C413 1.310 . S
C412 C415 1.461 . S
C412 H432 0.932 . S
C413 C411 1.408 . S
C413 C412 1.310 . S
C413 H433 0.930 . S
C414 C415 1.474 . S
C414 C416 1.285 . S
C414 H434 0.929 . S
C415 C412 1.461 . S
C415 C414 1.474 . S
C416 C411 1.342 . S
C416 C414 1.285 . S
C416 H435 0.930 . S
C417 C420 1.424 . S
C417 C422 1.245 . S
C417 C423 1.428 . S
C418 C421 1.260 . S
C418 C422 1.477 . S
C418 H436 0.932 . S
C419 C420 1.384 . S
C419 C421 1.479 . S
C419 H437 0.929 . S
C420 C417 1.424 . S
C420 C419 1.384 . S
C420 H438 0.928 . S
C421 C418 1.260 . S
C421 C419 1.479 . S
C422 C417 1.245 . S
C422 C418 1.477 . S
C422 H439 0.932 . S
C423 U406 2.882 . S
C423 C417 1.428 . S
C423 O426 1.301 . S
C423 O427 1.282 . S
O424 U406 2.441 . S
O424 C410 1.249 . S
O425 U406 2.420 . S
O425 C410 1.202 . S
O426 U406 2.455 . S
O426 C423 1.301 . S
O427 U406 2.449 . S
O427 C423 1.282 . S
H428 C401 0.931 . S
H429 C403 0.929 . S
H430 C404 0.930 . S
H431 C405 0.931 . S
H432 C412 0.932 . S
H433 C413 0.930 . S
H434 C414 0.929 . S
H435 C416 0.930 . S
H436 C418 0.932 . S
H437 C419 0.929 . S
H438 C420 0.928 . S
H439 C422 0.932 . S
C440 C441 1.264 . S
C440 C445 1.479 . S
C440 C450 1.465 . S
C441 C440 1.264 . S
C441 C443 1.339 . S
C441 H468 0.931 . S
C442 C443 1.395 . S
C442 C444 1.320 . S
C443 C441 1.339 . S
C443 C442 1.395 . S
C443 H469 0.929 . S
C444 C442 1.320 . S
C444 C445 1.405 . S
C444 H470 0.930 . S
C445 C440 1.479 . S
C445 C444 1.405 . S
C445 H471 0.931 . S
U446 O447 2.454 . S
U446 O448 2.458 . S
U446 C449 2.984 . S
U446 C450 2.847 . S
U446 C463 2.882 . S
U446 O464 2.441 . S
U446 O465 2.420 . S
U446 O466 2.455 . S
U446 O467 2.449 . S
O447 U446 2.454 . S
O447 C449 1.353 . S
O448 U446 2.458 . S
O448 C449 1.286 . S
C449 U446 2.984 . S
C449 O447 1.353 . S
C449 O448 1.286 . S
C449 C451 1.363 . S
C450 C440 1.465 . S
C450 U446 2.847 . S
C450 O464 1.249 . S
C450 O465 1.202 . S
C451 C449 1.363 . S
C451 C453 1.408 . S
C451 C456 1.342 . S
C452 C453 1.310 . S
C452 C455 1.461 . S
C452 H472 0.932 . S
C453 C451 1.408 . S
C453 C452 1.310 . S
C453 H473 0.930 . S
C454 C455 1.474 . S
C454 C456 1.285 . S
C454 H474 0.929 . S
C455 C452 1.461 . S
C455 C454 1.474 . S
C456 C451 1.342 . S
C456 C454 1.285 . S
C456 H475 0.930 . S
C457 C460 1.424 . S
C457 C462 1.245 . S
C457 C463 1.428 . S
C458 C461 1.260 . S
C458 C462 1.477 . S
C458 H476 0.932 . S
C459 C460 1.384 . S
C459 C461 1.479 . S
C459 H477 0.929 . S
C460 C457 1.424 . S
C460 C459 1.384 . S
C460 H478 0.928 . S
C461 C458 1.260 . S
C461 C459 1.479 . S
C462 C457 1.245 . S
C462 C458 1.477 . S
C462 H479 0.932 . S
C463 U446 2.882 . S
C463 C457 1.428 . S
C463 O466 1.301 . S
C463 O467 1.282 . S
O464 U446 2.441 . S
O464 C450 1.249 . S
O465 U446 2.420 . S
O465 C450 1.202 . S
O466 U446 2.455 . S
O466 C463 1.301 . S
O467 U446 2.449 . S
O467 C463 1.282 . S
H468 C441 0.931 . S
H469 C443 0.929 . S
H470 C444 0.930 . S
H471 C445 0.931 . S
H472 C452 0.932 . S
H473 C453 0.930 . S
H474 C454 0.929 . S
H475 C456 0.930 . S
H476 C458 0.932 . S
H477 C459 0.929 . S
H478 C460 0.928 . S
H479 C462 0.932 . S
C480 C481 1.264 . S
C480 C485 1.479 . S
C480 C490 1.465 . S
C481 C480 1.264 . S
C481 C483 1.339 . S
C481 H508 0.931 . S
C482 C483 1.395 . S
C482 C484 1.320 . S
C483 C481 1.339 . S
C483 C482 1.395 . S
C483 H509 0.929 . S
C484 C482 1.320 . S
C484 C485 1.405 . S
C484 H510 0.930 . S
C485 C480 1.479 . S
C485 C484 1.405 . S
C485 H511 0.931 . S
U486 O487 2.454 . S
U486 O488 2.458 . S
U486 C489 2.984 . S
U486 C490 2.847 . S
U486 C503 2.882 . S
U486 O504 2.441 . S
U486 O505 2.420 . S
U486 O506 2.455 . S
U486 O507 2.449 . S
O487 U486 2.454 . S
O487 C489 1.353 . S
O488 U486 2.458 . S
O488 C489 1.286 . S
C489 U486 2.984 . S
C489 O487 1.353 . S
C489 O488 1.286 . S
C489 C491 1.363 . S
C490 C480 1.465 . S
C490 U486 2.847 . S
C490 O504 1.249 . S
C490 O505 1.202 . S
C491 C489 1.363 . S
C491 C493 1.408 . S
C491 C496 1.342 . S
C492 C493 1.310 . S
C492 C495 1.461 . S
C492 H512 0.932 . S
C493 C491 1.408 . S
C493 C492 1.310 . S
C493 H513 0.930 . S
C494 C495 1.474 . S
C494 C496 1.285 . S
C494 H514 0.929 . S
C495 C492 1.461 . S
C495 C494 1.474 . S
C496 C491 1.342 . S
C496 C494 1.285 . S
C496 H515 0.930 . S
C497 C500 1.424 . S
C497 C502 1.245 . S
C497 C503 1.428 . S
C498 C501 1.260 . S
C498 C502 1.477 . S
C498 H516 0.932 . S
C499 C500 1.384 . S
C499 C501 1.479 . S
C499 H517 0.929 . S
C500 C497 1.424 . S
C500 C499 1.384 . S
C500 H518 0.928 . S
C501 C498 1.260 . S
C501 C499 1.479 . S
C502 C497 1.245 . S
C502 C498 1.477 . S
C502 H519 0.932 . S
C503 U486 2.882 . S
C503 C497 1.428 . S
C503 O506 1.301 . S
C503 O507 1.282 . S
O504 U486 2.441 . S
O504 C490 1.249 . S
O505 U486 2.420 . S
O505 C490 1.202 . S
O506 U486 2.455 . S
O506 C503 1.301 . S
O507 U486 2.449 . S
O507 C503 1.282 . S
H508 C481 0.931 . S
H509 C483 0.929 . S
H510 C484 0.930 . S
H511 C485 0.931 . S
H512 C492 0.932 . S
H513 C493 0.930 . S
H514 C494 0.929 . S
H515 C496 0.930 . S
H516 C498 0.932 . S
H517 C499 0.929 . S
H518 C500 0.928 . S
H519 C502 0.932 . S
C520 C521 1.264 . S
C520 C525 1.479 . S
C520 C530 1.465 . S
C521 C520 1.264 . S
C521 C523 1.339 . S
C521 H548 0.931 . S
C522 C523 1.395 . S
C522 C524 1.320 . S
C523 C521 1.339 . S
C523 C522 1.395 . S
C523 H549 0.929 . S
C524 C522 1.320 . S
C524 C525 1.405 . S
C524 H550 0.930 . S
C525 C520 1.479 . S
C525 C524 1.405 . S
C525 H551 0.931 . S
U526 O527 2.454 . S
U526 O528 2.458 . S
U526 C529 2.984 . S
U526 C530 2.847 . S
U526 C543 2.882 . S
U526 O544 2.441 . S
U526 O545 2.420 . S
U526 O546 2.455 . S
U526 O547 2.449 . S
O527 U526 2.454 . S
O527 C529 1.353 . S
O528 U526 2.458 . S
O528 C529 1.286 . S
C529 U526 2.984 . S
C529 O527 1.353 . S
C529 O528 1.286 . S
C529 C531 1.363 . S
C530 C520 1.465 . S
C530 U526 2.847 . S
C530 O544 1.249 . S
C530 O545 1.202 . S
C531 C529 1.363 . S
C531 C533 1.408 . S
C531 C536 1.342 1_556 S
C532 C533 1.344 . S
C532 C535 1.422 1_556 S
C532 H552 0.940 . S
C533 C531 1.408 . S
C533 C532 1.344 . S
C533 H553 0.930 . S
C534 C535 1.474 . S
C534 C536 1.285 . S
C534 H554 0.929 . S
C535 C532 1.422 1_554 S
C535 C534 1.474 . S
C536 C531 1.342 1_554 S
C536 C534 1.285 . S
C536 H555 0.930 . S
C537 C540 1.424 . S
C537 C542 1.245 . S
C537 C543 1.428 . S
C538 C541 1.260 . S
C538 C542 1.477 . S
C538 H556 0.932 . S
C539 C540 1.384 . S
C539 C541 1.479 . S
C539 H557 0.929 . S
C540 C537 1.424 . S
C540 C539 1.384 . S
C540 H558 0.928 . S
C541 C538 1.260 . S
C541 C539 1.479 . S
C542 C537 1.245 . S
C542 C538 1.477 . S
C542 H559 0.932 . S
C543 U526 2.882 . S
C543 C537 1.428 . S
C543 O546 1.301 . S
C543 O547 1.282 . S
O544 U526 2.441 . S
O544 C530 1.249 . S
O545 U526 2.420 . S
O545 C530 1.202 . S
O546 U526 2.455 . S
O546 C543 1.301 . S
O547 U526 2.449 . S
O547 C543 1.282 . S
H548 C521 0.931 . S
H549 C523 0.929 . S
H550 C524 0.930 . S
H551 C525 0.931 . S
H552 C532 0.940 . S
H553 C533 0.930 . S
H554 C534 0.929 . S
H555 C536 0.930 . S
H556 C538 0.932 . S
H557 C539 0.929 . S
H558 C540 0.928 . S
H559 C542 0.932 . S
C560 C561 1.264 . S
C560 C565 1.479 . S
C560 C570 1.465 . S
C561 C560 1.264 . S
C561 C563 1.339 . S
C561 H588 0.931 . S
C562 C563 1.395 . S
C562 C564 1.320 . S
C563 C561 1.339 . S
C563 C562 1.395 . S
C563 H589 0.929 . S
C564 C562 1.320 . S
C564 C565 1.405 . S
C564 H590 0.930 . S
C565 C560 1.479 . S
C565 C564 1.405 . S
C565 H591 0.931 . S
U566 O567 2.454 . S
U566 O568 2.458 . S
U566 C569 2.984 . S
U566 C570 2.847 . S
U566 C583 2.882 . S
U566 O584 2.441 . S
U566 O585 2.420 . S
U566 O586 2.455 . S
U566 O587 2.449 . S
O567 U566 2.454 . S
O567 C569 1.353 . S
O568 U566 2.458 . S
O568 C569 1.286 . S
C569 U566 2.984 . S
C569 O567 1.353 . S
C569 O568 1.286 . S
C569 C571 1.363 . S
C570 C560 1.465 . S
C570 U566 2.847 . S
C570 O584 1.249 . S
C570 O585 1.202 . S
C571 C569 1.363 . S
C571 C573 1.408 . S
C571 C576 1.342 . S
C572 C573 1.310 . S
C572 C575 1.461 . S
C572 H592 0.932 . S
C573 C571 1.408 . S
C573 C572 1.310 . S
C573 H593 0.930 . S
C574 C575 1.474 . S
C574 C576 1.285 . S
C574 H594 0.929 . S
C575 C572 1.461 . S
C575 C574 1.474 . S
C576 C571 1.342 . S
C576 C574 1.285 . S
C576 H595 0.930 . S
C577 C580 1.424 . S
C577 C582 1.245 . S
C577 C583 1.428 . S
C578 C581 1.260 . S
C578 C582 1.477 . S
C578 H596 0.932 . S
C579 C580 1.384 . S
C579 C581 1.479 . S
C579 H597 0.929 . S
C580 C577 1.424 . S
C580 C579 1.384 . S
C580 H598 0.928 . S
C581 C578 1.260 . S
C581 C579 1.479 . S
C582 C577 1.245 . S
C582 C578 1.477 . S
C582 H599 0.932 . S
C583 U566 2.882 . S
C583 C577 1.428 . S
C583 O586 1.301 . S
C583 O587 1.282 . S
O584 U566 2.441 . S
O584 C570 1.249 . S
O585 U566 2.420 . S
O585 C570 1.202 . S
O586 U566 2.455 . S
O586 C583 1.301 . S
O587 U566 2.449 . S
O587 C583 1.282 . S
H588 C561 0.931 . S
H589 C563 0.929 . S
H590 C564 0.930 . S
H591 C565 0.931 . S
H592 C572 0.932 . S
H593 C573 0.930 . S
H594 C574 0.929 . S
H595 C576 0.930 . S
H596 C578 0.932 . S
H597 C579 0.929 . S
H598 C580 0.928 . S
H599 C582 0.932 . S
C600 C601 1.265 1_554 S
C600 C605 1.479 . S
C600 C610 1.465 1_554 S
C601 C600 1.265 1_556 S
C601 C603 1.340 1_556 S
C601 H628 0.929 . S
C602 C603 1.395 . S
C602 C604 1.320 . S
C603 C601 1.340 1_554 S
C603 C602 1.395 . S
C603 H629 0.929 . S
C604 C602 1.320 . S
C604 C605 1.405 . S
C604 H630 0.930 . S
C605 C600 1.479 . S
C605 C604 1.405 . S
C605 H631 0.931 . S
U606 O607 2.454 . S
U606 O608 2.458 . S
U606 C609 2.984 . S
U606 C610 2.847 . S
U606 C623 2.882 . S
U606 O624 2.441 . S
U606 O625 2.420 . S
U606 O626 2.455 . S
U606 O627 2.449 . S
O607 U606 2.454 . S
O607 C609 1.353 . S
O608 U606 2.458 . S
O608 C609 1.286 . S
C609 U606 2.984 . S
C609 O607 1.353 . S
C609 O608 1.286 . S
C609 C611 1.363 . S
C610 C600 1.465 1_556 S
C610 U606 2.847 . S
C610 O624 1.249 . S
C610 O625 1.202 . S
C611 C609 1.363 . S
C611 C613 1.408 . S
C611 C616 1.342 1_545 S
C612 C613 1.310 . S
C612 C615 1.461 1_545 S
C612 H632 0.924 1_556 S
C613 C611 1.408 . S
C613 C612 1.310 . S
C613 H633 0.930 . S
C614 C615 1.474 . S
C614 C616 1.285 . S
C614 H634 0.929 . S
C615 C612 1.461 1_565 S
C615 C614 1.474 . S
C616 C611 1.342 1_565 S
C616 C614 1.285 . S
C616 H635 0.930 . S
C617 C620 1.424 . S
C617 C622 1.245 . S
C617 C623 1.428 . S
C618 C621 1.260 . S
C618 C622 1.477 . S
C618 H636 0.932 . S
C619 C620 1.384 . S
C619 C621 1.479 . S
C619 H637 0.929 . S
C620 C617 1.424 . S
C620 C619 1.384 . S
C620 H638 0.928 . S
C621 C618 1.260 . S
C621 C619 1.479 . S
C622 C617 1.245 . S
C622 C618 1.477 . S
C622 H639 0.932 . S
C623 U606 2.882 . S
C623 C617 1.428 . S
C623 O626 1.301 . S
C623 O627 1.282 . S
O624 U606 2.441 . S
O624 C610 1.249 . S
O625 U606 2.420 . S
O625 C610 1.202 . S
O626 U606 2.455 . S
O626 C623 1.301 . S
O627 U606 2.449 . S
O627 C623 1.282 . S
H628 C601 0.929 . S
H629 C603 0.929 . S
H630 C604 0.930 . S
H631 C605 0.931 . S
H632 C612 0.924 1_554 S
H633 C613 0.930 . S
H634 C614 0.929 . S
H635 C616 0.930 . S
H636 C618 0.932 . S
H637 C619 0.929 . S
H638 C620 0.928 . S
H639 C622 0.932 . S
C640 O641 1.160 . S
C640 O647 1.185 . S
O641 C640 1.160 . S
O642 Zn643 1.899 . S
O642 C650 1.284 1_554 S
Zn643 O642 1.899 . S
Zn643 O644 2.032 . S
Zn643 O647 2.086 . S
Zn643 O652 1.977 . S
O644 Zn643 2.032 . S
O644 C648 1.278 . S
C645 O646 1.203 . S
C645 O652 1.267 . S
O646 C645 1.203 . S
O647 C640 1.185 . S
O647 Zn643 2.086 . S
C648 O644 1.278 . S
C648 O649 1.211 . S
O649 C648 1.211 . S
C650 O642 1.284 1_556 S
C650 O651 1.273 . S
O651 C650 1.273 . S
O652 Zn643 1.977 . S
O652 C645 1.267 . S
C653 O654 1.160 . S
C653 O660 1.185 . S
O654 C653 1.160 . S
O655 Zn656 1.899 . S
O655 C663 1.284 . S
Zn656 O655 1.899 . S
Zn656 O657 2.032 . S
Zn656 O660 2.086 . S
Zn656 O665 1.977 . S
O657 Zn656 2.032 . S
O657 C661 1.278 . S
C658 O659 1.203 . S
C658 O665 1.267 . S
O659 C658 1.203 . S
O660 C653 1.185 . S
O660 Zn656 2.086 . S
C661 O657 1.278 . S
C661 O662 1.211 . S
O662 C661 1.211 . S
C663 O655 1.284 . S
C663 O664 1.273 . S
O664 C663 1.273 . S
O665 Zn656 1.977 . S
O665 C658 1.267 . S
C666 O667 1.160 1_554 S
C666 O673 1.185 . S
O667 C666 1.160 1_556 S
O668 Zn669 1.899 1_556 S
O668 C676 1.284 . S
Zn669 O668 1.899 1_554 S
Zn669 O670 2.032 1_554 S
Zn669 O673 2.086 . S
Zn669 O678 1.977 . S
O670 Zn669 2.032 1_556 S
O670 C674 1.278 . S
C671 O672 1.203 . S
C671 O678 1.267 . S
O672 C671 1.203 . S
O673 C666 1.185 . S
O673 Zn669 2.086 . S
C674 O670 1.278 . S
C674 O675 1.211 1_556 S
O675 C674 1.211 1_554 S
C676 O668 1.284 . S
C676 O677 1.273 . S
O677 C676 1.273 . S
O678 Zn669 1.977 . S
O678 C671 1.267 . S
C679 O680 1.160 . S
C679 O686 1.185 . S
O680 C679 1.160 . S
O681 Zn682 1.899 . S
O681 C689 1.284 . S
Zn682 O681 1.899 . S
Zn682 O683 2.032 . S
Zn682 O686 2.086 . S
Zn682 O691 1.977 . S
O683 Zn682 2.032 . S
O683 C687 1.278 1_545 S
C684 O685 1.203 . S
C684 O691 1.267 . S
O685 C684 1.203 . S
O686 C679 1.185 . S
O686 Zn682 2.086 . S
C687 O683 1.278 1_565 S
C687 O688 1.211 . S
O688 C687 1.211 . S
C689 O681 1.284 . S
C689 O690 1.273 1_545 S
O690 C689 1.273 1_565 S
O691 Zn682 1.977 . S
O691 C684 1.267 . S
C692 O693 1.160 . S
C692 O699 1.185 . S
O693 C692 1.160 . S
O694 Zn695 1.899 . S
O694 C702 1.284 . S
Zn695 O694 1.899 . S
Zn695 O696 2.032 . S
Zn695 O699 2.086 . S
Zn695 O704 1.977 . S
O696 Zn695 2.032 . S
O696 C700 1.278 . S
C697 O698 1.203 . S
C697 O704 1.267 . S
O698 C697 1.203 . S
O699 C692 1.185 . S
O699 Zn695 2.086 . S
C700 O696 1.278 . S
C700 O701 1.211 . S
O701 C700 1.211 . S
C702 O694 1.284 . S
C702 O703 1.273 . S
O703 C702 1.273 . S
O704 Zn695 1.977 . S
O704 C697 1.267 . S
C705 O706 1.160 . S
C705 O712 1.185 . S
O706 C705 1.160 . S
O707 Zn708 1.899 . S
O707 C715 1.284 . S
Zn708 O707 1.899 . S
Zn708 O709 2.032 . S
Zn708 O712 2.086 . S
Zn708 O717 1.977 . S
O709 Zn708 2.032 . S
O709 C713 1.278 . S
C710 O711 1.203 . S
C710 O717 1.267 . S
O711 C710 1.203 . S
O712 C705 1.185 . S
O712 Zn708 2.086 . S
C713 O709 1.278 . S
C713 O714 1.211 . S
O714 C713 1.211 . S
C715 O707 1.284 . S
C715 O716 1.273 . S
O716 C715 1.273 . S
O717 Zn708 1.977 . S
O717 C710 1.267 . S
C718 O719 1.160 . S
C718 O725 1.185 . S
O719 C718 1.160 . S
O720 Zn721 1.899 . S
O720 C728 1.284 . S
Zn721 O720 1.899 . S
Zn721 O722 2.032 . S
Zn721 O725 2.086 . S
Zn721 O730 1.977 . S
O722 Zn721 2.032 . S
O722 C726 1.278 . S
C723 O724 1.203 . S
C723 O730 1.267 . S
O724 C723 1.203 . S
O725 C718 1.185 . S
O725 Zn721 2.086 . S
C726 O722 1.278 . S
C726 O727 1.211 . S
O727 C726 1.211 . S
C728 O720 1.284 . S
C728 O729 1.273 . S
O729 C728 1.273 . S
O730 Zn721 1.977 . S
O730 C723 1.267 . S
C731 O732 1.160 . S
C731 O738 1.185 . S
O732 C731 1.160 . S
O733 Zn734 1.899 . S
O733 C741 1.284 1_565 S
Zn734 O733 1.899 . S
Zn734 O735 2.032 1_565 S
Zn734 O738 2.086 . S
Zn734 O743 1.977 . S
O735 Zn734 2.032 1_545 S
O735 C739 1.278 . S
C736 O737 1.158 1_565 S
C736 O743 1.305 . S
O737 C736 1.158 1_545 S
O738 C731 1.185 . S
O738 Zn734 2.086 . S
C739 O735 1.278 . S
C739 O740 1.211 . S
O740 C739 1.211 . S
C741 O733 1.284 1_545 S
C741 O742 1.273 . S
O742 C741 1.273 . S
O743 Zn734 1.977 . S
O743 C736 1.305 . S
C744 O745 1.160 1_455 S
C744 O751 1.185 . S
O745 C744 1.160 1_655 S
O746 Zn747 1.899 1_655 S
O746 C754 1.284 . S
Zn747 O746 1.899 1_455 S
Zn747 O748 2.032 . S
Zn747 O751 2.086 . S
Zn747 O756 1.977 . S
O748 Zn747 2.032 . S
O748 C752 1.278 . S
C749 O750 1.203 . S
C749 O756 1.267 . S
O750 C749 1.203 . S
O751 C744 1.185 . S
O751 Zn747 2.086 . S
C752 O748 1.278 . S
C752 O753 1.211 . S
O753 C752 1.211 . S
C754 O746 1.284 . S
C754 O755 1.273 . S
O755 C754 1.273 . S
O756 Zn747 1.977 . S
O756 C749 1.267 . S
C757 O758 1.160 . S
C757 O764 1.185 . S
O758 C757 1.160 . S
O759 Zn760 1.899 . S
O759 C767 1.284 . S
Zn760 O759 1.899 . S
Zn760 O761 2.032 . S
Zn760 O764 2.086 . S
Zn760 O769 1.977 . S
O761 Zn760 2.032 . S
O761 C765 1.278 . S
C762 O763 1.203 . S
C762 O769 1.267 . S
O763 C762 1.203 . S
O764 C757 1.185 . S
O764 Zn760 2.086 . S
C765 O761 1.278 . S
C765 O766 1.211 . S
O766 C765 1.211 . S
C767 O759 1.284 . S
C767 O768 1.273 . S
O768 C767 1.273 . S
O769 Zn760 1.977 . S
O769 C762 1.267 . S
C770 O771 1.160 1_455 S
C770 O777 1.185 . S
O771 C770 1.160 1_655 S
O772 Zn773 1.899 1_655 S
O772 C780 1.284 . S
Zn773 O772 1.899 1_455 S
Zn773 O774 2.031 . S
Zn773 O777 2.086 . S
Zn773 O782 1.977 . S
O774 Zn773 2.031 . S
O774 C778 1.277 . S
C775 O776 1.203 . S
C775 O782 1.267 . S
O776 C775 1.203 . S
O777 C770 1.185 . S
O777 Zn773 2.086 . S
C778 O774 1.277 . S
C778 O779 1.211 . S
O779 C778 1.211 . S
C780 O772 1.284 . S
C780 O781 1.273 . S
O781 C780 1.273 . S
O782 Zn773 1.977 . S
O782 C775 1.267 . S
C783 O784 1.160 . S
C783 O790 1.185 . S
O784 C783 1.160 . S
O785 Zn786 1.899 . S
O785 C793 1.284 . S
Zn786 O785 1.899 . S
Zn786 O787 2.032 . S
Zn786 O790 2.086 . S
Zn786 O795 1.977 . S
O787 Zn786 2.032 . S
O787 C791 1.278 . S
C788 O789 1.203 . S
C788 O795 1.267 . S
O789 C788 1.203 . S
O790 C783 1.185 . S
O790 Zn786 2.086 . S
C791 O787 1.278 . S
C791 O792 1.211 . S
O792 C791 1.211 . S
C793 O785 1.284 . S
C793 O794 1.273 . S
O794 C793 1.273 . S
O795 Zn786 1.977 . S
O795 C788 1.267 . S
H796 C814 0.951 . S
H797 C816 0.951 . S
H798 C818 0.950 . S
H799 C819 0.950 . S
H800 C821 0.950 . S
H801 C824 0.950 . S
H802 C825 0.950 . S
H803 C827 0.950 . S
H804 C828 0.950 . S
H805 C829 0.951 . S
H806 C831 0.951 . S
H807 C833 0.950 . S
H808 C834 0.950 . S
H809 C836 0.950 . S
H810 C839 0.950 . S
H811 C840 0.950 . S
H812 C842 0.950 . S
H813 C843 0.950 . S
C814 H796 0.951 . S
C814 C815 1.366 . S
C814 C816 1.388 . S
C815 C814 1.366 . S
C815 C819 1.385 . S
C816 H797 0.951 . S
C816 C814 1.388 . S
C816 C817 1.366 . S
C817 C816 1.366 . S
C817 C818 1.414 . S
C817 C820 1.499 . S
C818 H798 0.950 . S
C818 C817 1.414 . S
C818 C819 1.374 . S
C819 H799 0.950 . S
C819 C815 1.385 . S
C819 C818 1.374 . S
C820 C817 1.499 . S
C820 C821 1.373 . S
C820 C822 1.389 . S
C821 H800 0.950 . S
C821 C820 1.373 . S
C821 C837 1.377 . S
C822 C820 1.389 . S
C822 C823 1.524 . S
C822 C836 1.377 . S
C823 C822 1.524 . S
C823 C824 1.397 . S
C823 C828 1.363 . S
C824 H801 0.950 . S
C824 C823 1.397 . S
C824 C825 1.334 . S
C825 H802 0.950 . S
C825 C824 1.334 . S
C825 C826 1.287 . S
C826 C825 1.287 . S
C826 C827 1.524 . S
C826 H845 0.913 . S
C827 H803 0.950 . S
C827 C826 1.524 . S
C827 C828 1.415 . S
C828 H804 0.950 . S
C828 C823 1.363 . S
C828 C827 1.415 . S
C829 H805 0.951 . S
C829 C830 1.366 . S
C829 C831 1.388 . S
C830 C829 1.366 . S
C830 C834 1.385 . S
C831 H806 0.951 . S
C831 C829 1.388 . S
C831 C832 1.366 . S
C832 C831 1.366 . S
C832 C833 1.414 . S
C832 C835 1.499 . S
C833 H807 0.950 . S
C833 C832 1.414 . S
C833 C834 1.374 . S
C834 H808 0.950 . S
C834 C830 1.385 . S
C834 C833 1.374 . S
C835 C832 1.499 . S
C835 C836 1.373 . S
C835 C837 1.389 . S
C836 H809 0.950 . S
C836 C822 1.377 . S
C836 C835 1.373 . S
C837 C821 1.377 . S
C837 C835 1.389 . S
C837 C838 1.524 . S
C838 C837 1.524 . S
C838 C839 1.397 . S
C838 C843 1.363 . S
C839 H810 0.950 . S
C839 C838 1.397 . S
C839 C840 1.334 . S
C840 H811 0.950 . S
C840 C839 1.334 . S
C840 C841 1.287 . S
C841 C840 1.287 . S
C841 C842 1.524 . S
C841 H844 0.999 . S
C842 H812 0.950 . S
C842 C841 1.524 . S
C842 C843 1.415 . S
C843 H813 0.950 . S
C843 C838 1.363 . S
C843 C842 1.415 . S
H844 C841 0.999 . S
H845 C826 0.913 . S
H846 C864 0.951 . S
H847 C866 0.951 . S
H848 C868 0.950 . S
H849 C869 0.950 . S
H850 C871 0.950 . S
H851 C874 0.950 . S
H852 C875 0.950 . S
H853 C877 0.950 . S
H854 C878 0.950 . S
H855 C879 0.951 . S
H856 C881 0.951 . S
H857 C883 0.950 . S
H858 C884 0.950 . S
H859 C886 0.950 . S
H860 C889 0.950 . S
H861 C890 0.950 . S
H862 C892 0.950 . S
H863 C893 0.950 . S
C864 H846 0.951 . S
C864 C865 1.366 . S
C864 C866 1.388 . S
C865 C864 1.366 . S
C865 C869 1.385 . S
C866 H847 0.951 . S
C866 C864 1.388 . S
C866 C867 1.366 . S
C867 C866 1.366 . S
C867 C868 1.414 . S
C867 C870 1.499 . S
C868 H848 0.950 . S
C868 C867 1.414 . S
C868 C869 1.374 . S
C869 H849 0.950 . S
C869 C865 1.385 . S
C869 C868 1.374 . S
C870 C867 1.499 . S
C870 C871 1.373 . S
C870 C872 1.389 . S
C871 H850 0.950 . S
C871 C870 1.373 . S
C871 C887 1.377 . S
C872 C870 1.389 . S
C872 C873 1.524 . S
C872 C886 1.377 . S
C873 C872 1.524 . S
C873 C874 1.397 . S
C873 C878 1.363 . S
C874 H851 0.950 . S
C874 C873 1.397 . S
C874 C875 1.334 . S
C875 H852 0.950 . S
C875 C874 1.334 . S
C875 C876 1.287 . S
C876 C875 1.287 . S
C876 C877 1.524 . S
C876 H895 0.913 . S
C877 H853 0.950 . S
C877 C876 1.524 . S
C877 C878 1.415 . S
C878 H854 0.950 . S
C878 C873 1.363 . S
C878 C877 1.415 . S
C879 H855 0.951 . S
C879 C880 1.366 . S
C879 C881 1.388 . S
C880 C879 1.366 . S
C880 C884 1.385 . S
C881 H856 0.951 . S
C881 C879 1.388 . S
C881 C882 1.366 . S
C882 C881 1.366 . S
C882 C883 1.414 . S
C882 C885 1.499 . S
C883 H857 0.950 . S
C883 C882 1.414 . S
C883 C884 1.374 . S
C884 H858 0.950 . S
C884 C880 1.385 . S
C884 C883 1.374 . S
C885 C882 1.499 . S
C885 C886 1.373 . S
C885 C887 1.389 . S
C886 H859 0.950 . S
C886 C872 1.377 . S
C886 C885 1.373 . S
C887 C871 1.377 . S
C887 C885 1.389 . S
C887 C888 1.524 . S
C888 C887 1.524 . S
C888 C889 1.397 . S
C888 C893 1.363 . S
C889 H860 0.950 . S
C889 C888 1.397 . S
C889 C890 1.334 . S
C890 H861 0.950 . S
C890 C889 1.334 . S
C890 C891 1.287 . S
C891 C890 1.287 . S
C891 C892 1.524 . S
C891 H894 0.999 . S
C892 H862 0.950 . S
C892 C891 1.524 . S
C892 C893 1.415 . S
C893 H863 0.950 . S
C893 C888 1.363 . S
C893 C892 1.415 . S
H894 C891 0.999 . S
H895 C876 0.913 . S
H896 C914 0.951 . S
H897 C916 0.951 . S
H898 C918 0.950 . S
H899 C919 0.950 . S
H900 C921 0.950 . S
H901 C924 0.950 . S
H902 C925 0.950 . S
H903 C927 0.950 . S
H904 C928 0.950 . S
H905 C929 0.951 . S
H906 C931 0.951 . S
H907 C933 0.950 . S
H908 C934 0.950 . S
H909 C936 0.950 . S
H910 C939 0.950 . S
H911 C940 0.950 . S
H912 C942 0.950 . S
H913 C943 0.950 . S
C914 H896 0.951 . S
C914 C915 1.366 . S
C914 C916 1.388 . S
C915 C914 1.366 . S
C915 C919 1.385 . S
C916 H897 0.951 . S
C916 C914 1.388 . S
C916 C917 1.366 . S
C917 C916 1.366 . S
C917 C918 1.414 . S
C917 C920 1.499 . S
C918 H898 0.950 . S
C918 C917 1.414 . S
C918 C919 1.374 . S
C919 H899 0.950 . S
C919 C915 1.385 . S
C919 C918 1.374 . S
C920 C917 1.499 . S
C920 C921 1.373 . S
C920 C922 1.389 . S
C921 H900 0.950 . S
C921 C920 1.373 . S
C921 C937 1.377 . S
C922 C920 1.389 . S
C922 C923 1.524 . S
C922 C936 1.377 . S
C923 C922 1.524 . S
C923 C924 1.397 . S
C923 C928 1.363 . S
C924 H901 0.950 . S
C924 C923 1.397 . S
C924 C925 1.334 . S
C925 H902 0.950 . S
C925 C924 1.334 . S
C925 C926 1.287 . S
C926 C925 1.287 . S
C926 C927 1.524 . S
C926 H945 0.913 . S
C927 H903 0.950 . S
C927 C926 1.524 . S
C927 C928 1.415 . S
C928 H904 0.950 . S
C928 C923 1.363 . S
C928 C927 1.415 . S
C929 H905 0.951 . S
C929 C930 1.366 . S
C929 C931 1.388 . S
C930 C929 1.366 . S
C930 C934 1.385 . S
C931 H906 0.951 . S
C931 C929 1.388 . S
C931 C932 1.366 . S
C932 C931 1.366 . S
C932 C933 1.414 . S
C932 C935 1.499 . S
C933 H907 0.950 . S
C933 C932 1.414 . S
C933 C934 1.374 . S
C934 H908 0.950 . S
C934 C930 1.385 . S
C934 C933 1.374 . S
C935 C932 1.499 . S
C935 C936 1.373 . S
C935 C937 1.389 . S
C936 H909 0.950 . S
C936 C922 1.377 . S
C936 C935 1.373 . S
C937 C921 1.377 . S
C937 C935 1.389 . S
C937 C938 1.524 . S
C938 C937 1.524 . S
C938 C939 1.397 . S
C938 C943 1.363 . S
C939 H910 0.950 . S
C939 C938 1.397 . S
C939 C940 1.334 . S
C940 H911 0.950 . S
C940 C939 1.334 . S
C940 C941 1.287 . S
C941 C940 1.287 . S
C941 C942 1.524 . S
C941 H944 0.999 . S
C942 H912 0.950 . S
C942 C941 1.524 . S
C942 C943 1.415 . S
C943 H913 0.950 . S
C943 C938 1.363 . S
C943 C942 1.415 . S
H944 C941 0.999 . S
H945 C926 0.913 . S
H946 C964 0.951 1_545 S
H947 C966 0.944 1_545 S
H948 C968 0.950 . S
H949 C969 0.950 . S
H950 C971 0.953 . S
H951 C974 0.950 . S
H952 C975 0.950 . S
H953 C977 0.950 . S
H954 C978 0.950 1_545 S
H955 C979 0.951 . S
H956 C981 0.951 . S
H957 C983 0.950 . S
H958 C984 0.950 . S
H959 C986 0.950 . S
H960 C989 0.950 . S
H961 C990 0.950 . S
H962 C992 0.961 . S
H963 C993 0.950 . S
C964 H946 0.951 1_565 S
C964 C965 1.366 . S
C964 C966 1.390 . S
C965 C964 1.366 . S
C965 C969 1.385 . S
C966 H947 0.944 1_565 S
C966 C964 1.390 . S
C966 C967 1.371 . S
C967 C966 1.371 . S
C967 C968 1.414 . S
C967 C970 1.499 . S
C968 H948 0.950 . S
C968 C967 1.414 . S
C968 C969 1.374 . S
C969 H949 0.950 . S
C969 C965 1.385 . S
C969 C968 1.374 . S
C970 C967 1.499 . S
C970 C971 1.373 . S
C970 C972 1.389 . S
C971 H950 0.953 . S
C971 C970 1.373 . S
C971 C987 1.377 1_565 S
C972 C970 1.389 . S
C972 C973 1.524 . S
C972 C986 1.377 . S
C973 C972 1.524 . S
C973 C974 1.397 . S
C973 C978 1.363 . S
C974 H951 0.950 . S
C974 C973 1.397 . S
C974 C975 1.334 . S
C975 H952 0.950 . S
C975 C974 1.334 . S
C975 C976 1.287 . S
C976 C975 1.287 . S
C976 C977 1.524 . S
C976 H995 0.913 . S
C977 H953 0.950 . S
C977 C976 1.524 . S
C977 C978 1.415 . S
C978 H954 0.950 1_565 S
C978 C973 1.363 . S
C978 C977 1.415 . S
C979 H955 0.951 . S
C979 C980 1.366 1_565 S
C979 C981 1.388 . S
C980 C979 1.366 1_545 S
C980 C984 1.385 . S
C981 H956 0.951 . S
C981 C979 1.388 . S
C981 C982 1.366 1_565 S
C982 C981 1.366 1_545 S
C982 C983 1.414 . S
C982 C985 1.499 . S
C983 H957 0.950 . S
C983 C982 1.414 . S
C983 C984 1.374 . S
C984 H958 0.950 . S
C984 C980 1.385 . S
C984 C983 1.374 . S
C985 C982 1.499 . S
C985 C986 1.373 1_545 S
C985 C987 1.389 . S
C986 H959 0.950 . S
C986 C972 1.377 . S
C986 C985 1.373 1_565 S
C987 C971 1.377 1_545 S
C987 C985 1.389 . S
C987 C988 1.524 . S
C988 C987 1.524 . S
C988 C989 1.397 . S
C988 C993 1.363 1_545 S
C989 H960 0.950 . S
C989 C988 1.397 . S
C989 C990 1.334 . S
C990 H961 0.950 . S
C990 C989 1.334 . S
C990 C991 1.287 . S
C991 C990 1.287 . S
C991 C992 1.524 . S
C991 H994 0.999 . S
C992 H962 0.961 . S
C992 C991 1.524 . S
C992 C993 1.415 1_545 S
C993 H963 0.950 . S
C993 C988 1.363 1_565 S
C993 C992 1.415 1_565 S
H994 C991 0.999 . S
H995 C976 0.913 . S
H996 C1014 0.951 . S
H997 C1016 0.951 . S
H998 C1018 0.950 . S
H999 C1019 0.950 . S
H1000 C1021 0.950 . S
H1001 C1024 0.950 . S
H1002 C1025 0.950 . S
H1003 C1027 0.950 . S
H1004 C1028 0.950 . S
H1005 C1029 0.951 . S
H1006 C1031 0.951 . S
H1007 C1033 0.950 . S
H1008 C1034 0.950 . S
H1009 C1036 0.950 . S
H1010 C1039 0.950 . S
H1011 C1040 0.950 . S
H1012 C1042 0.950 . S
H1013 C1043 0.950 . S
C1014 H996 0.951 . S
C1014 C1015 1.366 . S
C1014 C1016 1.388 . S
C1015 C1014 1.366 . S
C1015 C1019 1.385 . S
C1016 H997 0.951 . S
C1016 C1014 1.388 . S
C1016 C1017 1.366 . S
C1017 C1016 1.366 . S
C1017 C1018 1.414 . S
C1017 C1020 1.499 . S
C1018 H998 0.950 . S
C1018 C1017 1.414 . S
C1018 C1019 1.374 . S
C1019 H999 0.950 . S
C1019 C1015 1.385 . S
C1019 C1018 1.374 . S
C1020 C1017 1.499 . S
C1020 C1021 1.373 . S
C1020 C1022 1.389 . S
C1021 H1000 0.950 . S
C1021 C1020 1.373 . S
C1021 C1037 1.377 . S
C1022 C1020 1.389 . S
C1022 C1023 1.524 . S
C1022 C1036 1.377 . S
C1023 C1022 1.524 . S
C1023 C1024 1.397 . S
C1023 C1028 1.363 . S
C1024 H1001 0.950 . S
C1024 C1023 1.397 . S
C1024 C1025 1.334 . S
C1025 H1002 0.950 . S
C1025 C1024 1.334 . S
C1025 C1026 1.287 . S
C1026 C1025 1.287 . S
C1026 C1027 1.524 . S
C1026 H1045 0.913 . S
C1027 H1003 0.950 . S
C1027 C1026 1.524 . S
C1027 C1028 1.415 . S
C1028 H1004 0.950 . S
C1028 C1023 1.363 . S
C1028 C1027 1.415 . S
C1029 H1005 0.951 . S
C1029 C1030 1.366 . S
C1029 C1031 1.388 . S
C1030 C1029 1.366 . S
C1030 C1034 1.385 . S
C1031 H1006 0.951 . S
C1031 C1029 1.388 . S
C1031 C1032 1.366 . S
C1032 C1031 1.366 . S
C1032 C1033 1.414 . S
C1032 C1035 1.499 . S
C1033 H1007 0.950 . S
C1033 C1032 1.414 . S
C1033 C1034 1.374 . S
C1034 H1008 0.950 . S
C1034 C1030 1.385 . S
C1034 C1033 1.374 . S
C1035 C1032 1.499 . S
C1035 C1036 1.373 . S
C1035 C1037 1.389 . S
C1036 H1009 0.950 . S
C1036 C1022 1.377 . S
C1036 C1035 1.373 . S
C1037 C1021 1.377 . S
C1037 C1035 1.389 . S
C1037 C1038 1.524 . S
C1038 C1037 1.524 . S
C1038 C1039 1.397 . S
C1038 C1043 1.363 . S
C1039 H1010 0.950 . S
C1039 C1038 1.397 . S
C1039 C1040 1.334 . S
C1040 H1011 0.950 . S
C1040 C1039 1.334 . S
C1040 C1041 1.287 . S
C1041 C1040 1.287 . S
C1041 C1042 1.524 . S
C1041 H1044 0.999 . S
C1042 H1012 0.950 . S
C1042 C1041 1.524 . S
C1042 C1043 1.415 . S
C1043 H1013 0.950 . S
C1043 C1038 1.363 . S
C1043 C1042 1.415 . S
H1044 C1041 0.999 . S
H1045 C1026 0.913 . S
H1046 C1064 0.951 . S
H1047 C1066 0.951 . S
H1048 C1068 0.950 . S
H1049 C1069 0.950 . S
H1050 C1071 0.950 . S
H1051 C1074 0.950 . S
H1052 C1075 0.950 . S
H1053 C1077 0.950 . S
H1054 C1078 0.950 . S
H1055 C1079 0.951 . S
H1056 C1081 0.951 . S
H1057 C1083 0.950 . S
H1058 C1084 0.950 . S
H1059 C1086 0.950 . S
H1060 C1089 0.950 . S
H1061 C1090 0.950 . S
H1062 C1092 0.950 . S
H1063 C1093 0.950 . S
C1064 H1046 0.951 . S
C1064 C1065 1.366 . S
C1064 C1066 1.388 . S
C1065 C1064 1.366 . S
C1065 C1069 1.385 . S
C1066 H1047 0.951 . S
C1066 C1064 1.388 . S
C1066 C1067 1.366 . S
C1067 C1066 1.366 . S
C1067 C1068 1.414 . S
C1067 C1070 1.499 . S
C1068 H1048 0.950 . S
C1068 C1067 1.414 . S
C1068 C1069 1.374 . S
C1069 H1049 0.950 . S
C1069 C1065 1.385 . S
C1069 C1068 1.374 . S
C1070 C1067 1.499 . S
C1070 C1071 1.373 . S
C1070 C1072 1.389 . S
C1071 H1050 0.950 . S
C1071 C1070 1.373 . S
C1071 C1087 1.377 . S
C1072 C1070 1.389 . S
C1072 C1073 1.524 . S
C1072 C1086 1.377 . S
C1073 C1072 1.524 . S
C1073 C1074 1.397 . S
C1073 C1078 1.363 . S
C1074 H1051 0.950 . S
C1074 C1073 1.397 . S
C1074 C1075 1.334 . S
C1075 H1052 0.950 . S
C1075 C1074 1.334 . S
C1075 C1076 1.287 . S
C1076 C1075 1.287 . S
C1076 C1077 1.524 . S
C1076 H1095 0.913 . S
C1077 H1053 0.950 . S
C1077 C1076 1.524 . S
C1077 C1078 1.415 . S
C1078 H1054 0.950 . S
C1078 C1073 1.363 . S
C1078 C1077 1.415 . S
C1079 H1055 0.951 . S
C1079 C1080 1.366 . S
C1079 C1081 1.388 . S
C1080 C1079 1.366 . S
C1080 C1084 1.385 . S
C1081 H1056 0.951 . S
C1081 C1079 1.388 . S
C1081 C1082 1.366 . S
C1082 C1081 1.366 . S
C1082 C1083 1.414 . S
C1082 C1085 1.499 . S
C1083 H1057 0.950 . S
C1083 C1082 1.414 . S
C1083 C1084 1.374 . S
C1084 H1058 0.950 . S
C1084 C1080 1.385 . S
C1084 C1083 1.374 . S
C1085 C1082 1.499 . S
C1085 C1086 1.373 . S
C1085 C1087 1.389 . S
C1086 H1059 0.950 . S
C1086 C1072 1.377 . S
C1086 C1085 1.373 . S
C1087 C1071 1.377 . S
C1087 C1085 1.389 . S
C1087 C1088 1.524 . S
C1088 C1087 1.524 . S
C1088 C1089 1.397 . S
C1088 C1093 1.363 . S
C1089 H1060 0.950 . S
C1089 C1088 1.397 . S
C1089 C1090 1.334 . S
C1090 H1061 0.950 . S
C1090 C1089 1.334 . S
C1090 C1091 1.287 . S
C1091 C1090 1.287 . S
C1091 C1092 1.524 . S
C1091 H1094 0.999 . S
C1092 H1062 0.950 . S
C1092 C1091 1.524 . S
C1092 C1093 1.415 . S
C1093 H1063 0.950 . S
C1093 C1088 1.363 . S
C1093 C1092 1.415 . S
H1094 C1091 0.999 . S
H1095 C1076 0.913 . S
H1096 C1114 0.951 . S
H1097 C1116 0.951 . S
H1098 C1118 0.950 . S
H1099 C1119 0.950 . S
H1100 C1121 0.950 . S
H1101 C1124 0.950 . S
H1102 C1125 0.950 . S
H1103 C1127 0.950 . S
H1104 C1128 0.950 . S
H1105 C1129 0.951 . S
H1106 C1131 0.951 . S
H1107 C1133 0.950 . S
H1108 C1134 0.950 . S
H1109 C1136 0.950 . S
H1110 C1139 0.950 . S
H1111 C1140 0.950 . S
H1112 C1142 0.950 . S
H1113 C1143 0.950 . S
C1114 H1096 0.951 . S
C1114 C1115 1.366 . S
C1114 C1116 1.388 . S
C1115 C1114 1.366 . S
C1115 C1119 1.385 . S
C1116 H1097 0.951 . S
C1116 C1114 1.388 . S
C1116 C1117 1.366 . S
C1117 C1116 1.366 . S
C1117 C1118 1.414 . S
C1117 C1120 1.499 . S
C1118 H1098 0.950 . S
C1118 C1117 1.414 . S
C1118 C1119 1.374 . S
C1119 H1099 0.950 . S
C1119 C1115 1.385 . S
C1119 C1118 1.374 . S
C1120 C1117 1.499 . S
C1120 C1121 1.373 . S
C1120 C1122 1.389 . S
C1121 H1100 0.950 . S
C1121 C1120 1.373 . S
C1121 C1137 1.377 . S
C1122 C1120 1.389 . S
C1122 C1123 1.524 . S
C1122 C1136 1.377 . S
C1123 C1122 1.524 . S
C1123 C1124 1.397 . S
C1123 C1128 1.363 . S
C1124 H1101 0.950 . S
C1124 C1123 1.397 . S
C1124 C1125 1.334 . S
C1125 H1102 0.950 . S
C1125 C1124 1.334 . S
C1125 C1126 1.287 . S
C1126 C1125 1.287 . S
C1126 C1127 1.524 . S
C1126 H1145 0.913 . S
C1127 H1103 0.950 . S
C1127 C1126 1.524 . S
C1127 C1128 1.415 . S
C1128 H1104 0.950 . S
C1128 C1123 1.363 . S
C1128 C1127 1.415 . S
C1129 H1105 0.951 . S
C1129 C1130 1.366 . S
C1129 C1131 1.388 . S
C1130 C1129 1.366 . S
C1130 C1134 1.385 . S
C1131 H1106 0.951 . S
C1131 C1129 1.388 . S
C1131 C1132 1.366 . S
C1132 C1131 1.366 . S
C1132 C1133 1.414 . S
C1132 C1135 1.499 . S
C1133 H1107 0.950 . S
C1133 C1132 1.414 . S
C1133 C1134 1.374 . S
C1134 H1108 0.950 . S
C1134 C1130 1.385 . S
C1134 C1133 1.374 . S
C1135 C1132 1.499 . S
C1135 C1136 1.373 . S
C1135 C1137 1.389 . S
C1136 H1109 0.950 . S
C1136 C1122 1.377 . S
C1136 C1135 1.373 . S
C1137 C1121 1.377 . S
C1137 C1135 1.389 . S
C1137 C1138 1.524 . S
C1138 C1137 1.524 . S
C1138 C1139 1.397 . S
C1138 C1143 1.363 . S
C1139 H1110 0.950 . S
C1139 C1138 1.397 . S
C1139 C1140 1.334 . S
C1140 H1111 0.950 . S
C1140 C1139 1.334 . S
C1140 C1141 1.287 . S
C1141 C1140 1.287 . S
C1141 C1142 1.524 . S
C1141 H1144 0.999 . S
C1142 H1112 0.950 . S
C1142 C1141 1.524 . S
C1142 C1143 1.415 . S
C1143 H1113 0.950 . S
C1143 C1138 1.363 . S
C1143 C1142 1.415 . S
H1144 C1141 0.999 . S
H1145 C1126 0.913 . S
H1146 C1164 0.951 . S
H1147 C1166 0.951 . S
H1148 C1168 0.950 1_545 S
H1149 C1169 0.983 . S
H1150 C1171 0.950 . S
H1151 C1174 0.950 1_545 S
H1152 C1175 0.950 . S
H1153 C1177 0.950 . S
H1154 C1178 0.950 . S
H1155 C1179 0.951 . S
H1156 C1181 0.951 . S
H1157 C1183 0.950 . S
H1158 C1184 0.950 . S
H1159 C1186 0.950 . S
H1160 C1189 0.950 . S
H1161 C1190 0.950 . S
H1162 C1192 0.950 1_545 S
H1163 C1193 0.950 1_545 S
C1164 H1146 0.951 . S
C1164 C1165 1.366 . S
C1164 C1166 1.388 . S
C1165 C1164 1.366 . S
C1165 C1169 1.385 . S
C1166 H1147 0.951 . S
C1166 C1164 1.388 . S
C1166 C1167 1.366 . S
C1167 C1166 1.366 . S
C1167 C1168 1.414 . S
C1167 C1170 1.499 . S
C1168 H1148 0.950 1_565 S
C1168 C1167 1.414 . S
C1168 C1169 1.374 . S
C1169 H1149 0.983 . S
C1169 C1165 1.385 . S
C1169 C1168 1.374 . S
C1170 C1167 1.499 . S
C1170 C1171 1.373 . S
C1170 C1172 1.389 . S
C1171 H1150 0.950 . S
C1171 C1170 1.373 . S
C1171 C1187 1.377 . S
C1172 C1170 1.389 . S
C1172 C1173 1.524 . S
C1172 C1186 1.377 . S
C1173 C1172 1.524 . S
C1173 C1174 1.396 . S
C1173 C1178 1.363 . S
C1174 H1151 0.950 1_565 S
C1174 C1173 1.396 . S
C1174 C1175 1.334 1_565 S
C1175 H1152 0.950 . S
C1175 C1174 1.334 1_545 S
C1175 C1176 1.287 1_545 S
C1176 C1175 1.287 1_565 S
C1176 C1177 1.524 . S
C1176 H1195 0.913 . S
C1177 H1153 0.950 . S
C1177 C1176 1.524 . S
C1177 C1178 1.415 . S
C1178 H1154 0.950 . S
C1178 C1173 1.363 . S
C1178 C1177 1.415 . S
C1179 H1155 0.951 . S
C1179 C1180 1.366 1_545 S
C1179 C1181 1.388 . S
C1180 C1179 1.366 1_565 S
C1180 C1184 1.385 . S
C1181 H1156 0.951 . S
C1181 C1179 1.388 . S
C1181 C1182 1.366 1_545 S
C1182 C1181 1.366 1_565 S
C1182 C1183 1.414 . S
C1182 C1185 1.499 . S
C1183 H1157 0.950 . S
C1183 C1182 1.414 . S
C1183 C1184 1.374 . S
C1184 H1158 0.950 . S
C1184 C1180 1.385 . S
C1184 C1183 1.374 . S
C1185 C1182 1.499 . S
C1185 C1186 1.373 . S
C1185 C1187 1.389 . S
C1186 H1159 0.950 . S
C1186 C1172 1.377 . S
C1186 C1185 1.373 . S
C1187 C1171 1.377 . S
C1187 C1185 1.389 . S
C1187 C1188 1.524 . S
C1188 C1187 1.524 . S
C1188 C1189 1.397 . S
C1188 C1193 1.363 . S
C1189 H1160 0.950 . S
C1189 C1188 1.397 . S
C1189 C1190 1.334 . S
C1190 H1161 0.950 . S
C1190 C1189 1.334 . S
C1190 C1191 1.287 . S
C1191 C1190 1.287 . S
C1191 C1192 1.524 . S
C1191 H1194 0.999 . S
C1192 H1162 0.950 1_565 S
C1192 C1191 1.524 . S
C1192 C1193 1.415 . S
C1193 H1163 0.950 1_565 S
C1193 C1188 1.363 . S
C1193 C1192 1.415 . S
H1194 C1191 0.999 . S
H1195 C1176 0.913 . S
H1196 C1214 0.951 . S
H1197 C1216 0.951 . S
H1198 C1218 0.950 . S
H1199 C1219 0.950 . S
H1200 C1221 0.950 . S
H1201 C1224 0.950 . S
H1202 C1225 0.950 . S
H1203 C1227 0.950 . S
H1204 C1228 0.950 . S
H1205 C1229 0.951 . S
H1206 C1231 0.951 . S
H1207 C1233 0.950 . S
H1208 C1234 0.950 . S
H1209 C1236 0.950 . S
H1210 C1239 0.950 . S
H1211 C1240 0.950 . S
H1212 C1242 0.950 . S
H1213 C1243 0.950 . S
C1214 H1196 0.951 . S
C1214 C1215 1.366 . S
C1214 C1216 1.388 . S
C1215 C1214 1.366 . S
C1215 C1219 1.385 . S
C1216 H1197 0.951 . S
C1216 C1214 1.388 . S
C1216 C1217 1.366 . S
C1217 C1216 1.366 . S
C1217 C1218 1.414 . S
C1217 C1220 1.499 . S
C1218 H1198 0.950 . S
C1218 C1217 1.414 . S
C1218 C1219 1.374 . S
C1219 H1199 0.950 . S
C1219 C1215 1.385 . S
C1219 C1218 1.374 . S
C1220 C1217 1.499 . S
C1220 C1221 1.373 . S
C1220 C1222 1.389 . S
C1221 H1200 0.950 . S
C1221 C1220 1.373 . S
C1221 C1237 1.377 . S
C1222 C1220 1.389 . S
C1222 C1223 1.524 . S
C1222 C1236 1.377 . S
C1223 C1222 1.524 . S
C1223 C1224 1.397 . S
C1223 C1228 1.363 . S
C1224 H1201 0.950 . S
C1224 C1223 1.397 . S
C1224 C1225 1.334 . S
C1225 H1202 0.950 . S
C1225 C1224 1.334 . S
C1225 C1226 1.287 . S
C1226 C1225 1.287 . S
C1226 C1227 1.524 . S
C1226 H1245 0.913 . S
C1227 H1203 0.950 . S
C1227 C1226 1.524 . S
C1227 C1228 1.415 . S
C1228 H1204 0.950 . S
C1228 C1223 1.363 . S
C1228 C1227 1.415 . S
C1229 H1205 0.951 . S
C1229 C1230 1.366 . S
C1229 C1231 1.388 . S
C1230 C1229 1.366 . S
C1230 C1234 1.385 . S
C1231 H1206 0.951 . S
C1231 C1229 1.388 . S
C1231 C1232 1.366 . S
C1232 C1231 1.366 . S
C1232 C1233 1.414 . S
C1232 C1235 1.499 . S
C1233 H1207 0.950 . S
C1233 C1232 1.414 . S
C1233 C1234 1.374 . S
C1234 H1208 0.950 . S
C1234 C1230 1.385 . S
C1234 C1233 1.374 . S
C1235 C1232 1.499 . S
C1235 C1236 1.373 . S
C1235 C1237 1.389 . S
C1236 H1209 0.950 . S
C1236 C1222 1.377 . S
C1236 C1235 1.373 . S
C1237 C1221 1.377 . S
C1237 C1235 1.389 . S
C1237 C1238 1.524 . S
C1238 C1237 1.524 . S
C1238 C1239 1.397 . S
C1238 C1243 1.363 . S
C1239 H1210 0.950 . S
C1239 C1238 1.397 . S
C1239 C1240 1.334 . S
C1240 H1211 0.950 . S
C1240 C1239 1.334 . S
C1240 C1241 1.287 . S
C1241 C1240 1.287 . S
C1241 C1242 1.524 . S
C1241 H1244 0.999 . S
C1242 H1212 0.950 . S
C1242 C1241 1.524 . S
C1242 C1243 1.415 . S
C1243 H1213 0.950 . S
C1243 C1238 1.363 . S
C1243 C1242 1.415 . S
H1244 C1241 0.999 . S
H1245 C1226 0.913 . S
H1246 C1264 0.951 . S
H1247 C1266 0.951 . S
H1248 C1268 0.950 . S
H1249 C1269 0.950 . S
H1250 C1271 0.950 . S
H1251 C1274 0.950 . S
H1252 C1275 0.950 . S
H1253 C1277 0.950 . S
H1254 C1278 0.950 . S
H1255 C1279 0.951 . S
H1256 C1281 0.951 . S
H1257 C1283 0.950 . S
H1258 C1284 0.950 . S
H1259 C1286 0.950 . S
H1260 C1289 0.950 . S
H1261 C1290 0.950 . S
H1262 C1292 0.950 . S
H1263 C1293 0.950 . S
C1264 H1246 0.951 . S
C1264 C1265 1.366 . S
C1264 C1266 1.388 . S
C1265 C1264 1.366 . S
C1265 C1269 1.385 . S
C1266 H1247 0.951 . S
C1266 C1264 1.388 . S
C1266 C1267 1.366 . S
C1267 C1266 1.366 . S
C1267 C1268 1.414 . S
C1267 C1270 1.499 . S
C1268 H1248 0.950 . S
C1268 C1267 1.414 . S
C1268 C1269 1.374 . S
C1269 H1249 0.950 . S
C1269 C1265 1.385 . S
C1269 C1268 1.374 . S
C1270 C1267 1.499 . S
C1270 C1271 1.373 . S
C1270 C1272 1.389 . S
C1271 H1250 0.950 . S
C1271 C1270 1.373 . S
C1271 C1287 1.377 . S
C1272 C1270 1.389 . S
C1272 C1273 1.524 . S
C1272 C1286 1.377 . S
C1273 C1272 1.524 . S
C1273 C1274 1.397 . S
C1273 C1278 1.363 . S
C1274 H1251 0.950 . S
C1274 C1273 1.397 . S
C1274 C1275 1.334 . S
C1275 H1252 0.950 . S
C1275 C1274 1.334 . S
C1275 C1276 1.287 . S
C1276 C1275 1.287 . S
C1276 C1277 1.524 . S
C1276 H1295 0.913 . S
C1277 H1253 0.950 . S
C1277 C1276 1.524 . S
C1277 C1278 1.415 . S
C1278 H1254 0.950 . S
C1278 C1273 1.363 . S
C1278 C1277 1.415 . S
C1279 H1255 0.951 . S
C1279 C1280 1.366 . S
C1279 C1281 1.388 . S
C1280 C1279 1.366 . S
C1280 C1284 1.385 . S
C1281 H1256 0.951 . S
C1281 C1279 1.388 . S
C1281 C1282 1.366 . S
C1282 C1281 1.366 . S
C1282 C1283 1.414 . S
C1282 C1285 1.499 . S
C1283 H1257 0.950 . S
C1283 C1282 1.414 . S
C1283 C1284 1.374 . S
C1284 H1258 0.950 . S
C1284 C1280 1.385 . S
C1284 C1283 1.374 . S
C1285 C1282 1.499 . S
C1285 C1286 1.373 . S
C1285 C1287 1.389 . S
C1286 H1259 0.950 . S
C1286 C1272 1.377 . S
C1286 C1285 1.373 . S
C1287 C1271 1.377 . S
C1287 C1285 1.389 . S
C1287 C1288 1.524 . S
C1288 C1287 1.524 . S
C1288 C1289 1.397 . S
C1288 C1293 1.363 . S
C1289 H1260 0.950 . S
C1289 C1288 1.397 . S
C1289 C1290 1.334 . S
C1290 H1261 0.950 . S
C1290 C1289 1.334 . S
C1290 C1291 1.287 . S
C1291 C1290 1.287 . S
C1291 C1292 1.524 . S
C1291 H1294 0.999 . S
C1292 H1262 0.950 . S
C1292 C1291 1.524 . S
C1292 C1293 1.415 . S
C1293 H1263 0.950 . S
C1293 C1288 1.363 . S
C1293 C1292 1.415 . S
H1294 C1291 0.999 . S
H1295 C1276 0.913 . S
H1296 C1314 0.951 . S
H1297 C1316 0.951 . S
H1298 C1318 0.950 . S
H1299 C1319 0.950 . S
H1300 C1321 0.950 . S
H1301 C1324 0.950 . S
H1302 C1325 0.950 . S
H1303 C1327 0.950 . S
H1304 C1328 0.950 . S
H1305 C1329 0.951 . S
H1306 C1331 0.951 . S
H1307 C1333 0.950 . S
H1308 C1334 0.950 . S
H1309 C1336 0.950 . S
H1310 C1339 0.950 . S
H1311 C1340 0.950 . S
H1312 C1342 0.950 . S
H1313 C1343 0.950 . S
C1314 H1296 0.951 . S
C1314 C1315 1.366 . S
C1314 C1316 1.388 . S
C1315 C1314 1.366 . S
C1315 C1319 1.385 . S
C1316 H1297 0.951 . S
C1316 C1314 1.388 . S
C1316 C1317 1.366 . S
C1317 C1316 1.366 . S
C1317 C1318 1.414 . S
C1317 C1320 1.499 . S
C1318 H1298 0.950 . S
C1318 C1317 1.414 . S
C1318 C1319 1.374 . S
C1319 H1299 0.950 . S
C1319 C1315 1.385 . S
C1319 C1318 1.374 . S
C1320 C1317 1.499 . S
C1320 C1321 1.373 . S
C1320 C1322 1.389 . S
C1321 H1300 0.950 . S
C1321 C1320 1.373 . S
C1321 C1337 1.377 . S
C1322 C1320 1.389 . S
C1322 C1323 1.524 . S
C1322 C1336 1.377 . S
C1323 C1322 1.524 . S
C1323 C1324 1.397 . S
C1323 C1328 1.363 . S
C1324 H1301 0.950 . S
C1324 C1323 1.397 . S
C1324 C1325 1.334 . S
C1325 H1302 0.950 . S
C1325 C1324 1.334 . S
C1325 C1326 1.287 . S
C1326 C1325 1.287 . S
C1326 C1327 1.524 . S
C1326 H1345 0.913 . S
C1327 H1303 0.950 . S
C1327 C1326 1.524 . S
C1327 C1328 1.415 . S
C1328 H1304 0.950 . S
C1328 C1323 1.363 . S
C1328 C1327 1.415 . S
C1329 H1305 0.951 . S
C1329 C1330 1.366 . S
C1329 C1331 1.388 . S
C1330 C1329 1.366 . S
C1330 C1334 1.385 . S
C1331 H1306 0.951 . S
C1331 C1329 1.388 . S
C1331 C1332 1.366 . S
C1332 C1331 1.366 . S
C1332 C1333 1.414 . S
C1332 C1335 1.499 . S
C1333 H1307 0.950 . S
C1333 C1332 1.414 . S
C1333 C1334 1.374 . S
C1334 H1308 0.950 . S
C1334 C1330 1.385 . S
C1334 C1333 1.374 . S
C1335 C1332 1.499 . S
C1335 C1336 1.373 . S
C1335 C1337 1.389 . S
C1336 H1309 0.950 . S
C1336 C1322 1.377 . S
C1336 C1335 1.373 . S
C1337 C1321 1.377 . S
C1337 C1335 1.389 . S
C1337 C1338 1.524 . S
C1338 C1337 1.524 . S
C1338 C1339 1.397 . S
C1338 C1343 1.363 . S
C1339 H1310 0.950 . S
C1339 C1338 1.397 . S
C1339 C1340 1.334 . S
C1340 H1311 0.950 . S
C1340 C1339 1.334 . S
C1340 C1341 1.287 . S
C1341 C1340 1.287 . S
C1341 C1342 1.524 . S
C1341 H1344 0.999 . S
C1342 H1312 0.950 . S
C1342 C1341 1.524 . S
C1342 C1343 1.415 . S
C1343 H1313 0.950 . S
C1343 C1338 1.363 . S
C1343 C1342 1.415 . S
H1344 C1341 0.999 . S
H1345 C1326 0.913 . S
H1346 C1364 0.951 . S
H1347 C1366 0.951 . S
H1348 C1368 0.950 . S
H1349 C1369 0.950 . S
H1350 C1371 0.950 . S
H1351 C1374 0.950 . S
H1352 C1375 0.950 . S
H1353 C1377 0.950 . S
H1354 C1378 0.950 . S
H1355 C1379 0.951 . S
H1356 C1381 0.951 . S
H1357 C1383 0.950 . S
H1358 C1384 0.950 . S
H1359 C1386 0.950 . S
H1360 C1389 0.950 . S
H1361 C1390 0.950 . S
H1362 C1392 0.950 . S
H1363 C1393 0.950 . S
C1364 H1346 0.951 . S
C1364 C1365 1.366 . S
C1364 C1366 1.388 . S
C1365 C1364 1.366 . S
C1365 C1369 1.385 . S
C1366 H1347 0.951 . S
C1366 C1364 1.388 . S
C1366 C1367 1.366 . S
C1367 C1366 1.366 . S
C1367 C1368 1.414 . S
C1367 C1370 1.499 . S
C1368 H1348 0.950 . S
C1368 C1367 1.414 . S
C1368 C1369 1.374 . S
C1369 H1349 0.950 . S
C1369 C1365 1.385 . S
C1369 C1368 1.374 . S
C1370 C1367 1.499 . S
C1370 C1371 1.373 . S
C1370 C1372 1.389 . S
C1371 H1350 0.950 . S
C1371 C1370 1.373 . S
C1371 C1387 1.377 . S
C1372 C1370 1.389 . S
C1372 C1373 1.524 . S
C1372 C1386 1.377 . S
C1373 C1372 1.524 . S
C1373 C1374 1.397 . S
C1373 C1378 1.363 . S
C1374 H1351 0.950 . S
C1374 C1373 1.397 . S
C1374 C1375 1.334 . S
C1375 H1352 0.950 . S
C1375 C1374 1.334 . S
C1375 C1376 1.287 . S
C1376 C1375 1.287 . S
C1376 C1377 1.524 . S
C1376 H1395 0.913 . S
C1377 H1353 0.950 . S
C1377 C1376 1.524 . S
C1377 C1378 1.415 . S
C1378 H1354 0.950 . S
C1378 C1373 1.363 . S
C1378 C1377 1.415 . S
C1379 H1355 0.951 . S
C1379 C1380 1.366 . S
C1379 C1381 1.388 . S
C1380 C1379 1.366 . S
C1380 C1384 1.385 . S
C1381 H1356 0.951 . S
C1381 C1379 1.388 . S
C1381 C1382 1.366 . S
C1382 C1381 1.366 . S
C1382 C1383 1.414 . S
C1382 C1385 1.499 . S
C1383 H1357 0.950 . S
C1383 C1382 1.414 . S
C1383 C1384 1.374 . S
C1384 H1358 0.950 . S
C1384 C1380 1.385 . S
C1384 C1383 1.374 . S
C1385 C1382 1.499 . S
C1385 C1386 1.373 . S
C1385 C1387 1.389 . S
C1386 H1359 0.950 . S
C1386 C1372 1.377 . S
C1386 C1385 1.373 . S
C1387 C1371 1.377 . S
C1387 C1385 1.389 . S
C1387 C1388 1.524 . S
C1388 C1387 1.524 . S
C1388 C1389 1.397 . S
C1388 C1393 1.363 . S
C1389 H1360 0.950 . S
C1389 C1388 1.397 . S
C1389 C1390 1.334 . S
C1390 H1361 0.950 . S
C1390 C1389 1.334 . S
C1390 C1391 1.287 . S
C1391 C1390 1.287 . S
C1391 C1392 1.524 . S
C1391 H1394 0.999 . S
C1392 H1362 0.950 . S
C1392 C1391 1.524 . S
C1392 C1393 1.415 . S
C1393 H1363 0.950 . S
C1393 C1388 1.363 . S
C1393 C1392 1.415 . S
H1394 C1391 0.999 . S
H1395 C1376 0.913 . S
H1396 C1414 0.951 . S
H1397 C1416 0.951 . S
H1398 C1418 0.950 . S
H1399 C1419 0.950 . S
H1400 C1421 0.950 . S
H1401 C1424 0.950 . S
H1402 C1425 0.950 . S
H1403 C1427 0.950 . S
H1404 C1428 0.950 . S
H1405 C1429 0.951 . S
H1406 C1431 0.951 . S
H1407 C1433 0.950 . S
H1408 C1434 0.950 . S
H1409 C1436 0.950 . S
H1410 C1439 0.950 . S
H1411 C1440 0.950 . S
H1412 C1442 0.950 . S
H1413 C1443 0.950 . S
C1414 H1396 0.951 . S
C1414 C1415 1.366 . S
C1414 C1416 1.388 . S
C1415 C1414 1.366 . S
C1415 C1419 1.385 . S
C1416 H1397 0.951 . S
C1416 C1414 1.388 . S
C1416 C1417 1.366 . S
C1417 C1416 1.366 . S
C1417 C1418 1.414 . S
C1417 C1420 1.499 . S
C1418 H1398 0.950 . S
C1418 C1417 1.414 . S
C1418 C1419 1.374 . S
C1419 H1399 0.950 . S
C1419 C1415 1.385 . S
C1419 C1418 1.374 . S
C1420 C1417 1.499 . S
C1420 C1421 1.373 . S
C1420 C1422 1.389 . S
C1421 H1400 0.950 . S
C1421 C1420 1.373 . S
C1421 C1437 1.377 . S
C1422 C1420 1.389 . S
C1422 C1423 1.524 . S
C1422 C1436 1.377 . S
C1423 C1422 1.524 . S
C1423 C1424 1.397 . S
C1423 C1428 1.363 . S
C1424 H1401 0.950 . S
C1424 C1423 1.397 . S
C1424 C1425 1.334 . S
C1425 H1402 0.950 . S
C1425 C1424 1.334 . S
C1425 C1426 1.287 . S
C1426 C1425 1.287 . S
C1426 C1427 1.524 . S
C1426 H1445 0.913 . S
C1427 H1403 0.950 . S
C1427 C1426 1.524 . S
C1427 C1428 1.415 . S
C1428 H1404 0.950 . S
C1428 C1423 1.363 . S
C1428 C1427 1.415 . S
C1429 H1405 0.951 . S
C1429 C1430 1.366 . S
C1429 C1431 1.388 . S
C1430 C1429 1.366 . S
C1430 C1434 1.385 . S
C1431 H1406 0.951 . S
C1431 C1429 1.388 . S
C1431 C1432 1.366 . S
C1432 C1431 1.366 . S
C1432 C1433 1.414 . S
C1432 C1435 1.499 . S
C1433 H1407 0.950 . S
C1433 C1432 1.414 . S
C1433 C1434 1.374 . S
C1434 H1408 0.950 . S
C1434 C1430 1.385 . S
C1434 C1433 1.374 . S
C1435 C1432 1.499 . S
C1435 C1436 1.373 . S
C1435 C1437 1.389 . S
C1436 H1409 0.950 . S
C1436 C1422 1.377 . S
C1436 C1435 1.373 . S
C1437 C1421 1.377 . S
C1437 C1435 1.389 . S
C1437 C1438 1.524 . S
C1438 C1437 1.524 . S
C1438 C1439 1.397 . S
C1438 C1443 1.363 . S
C1439 H1410 0.950 . S
C1439 C1438 1.397 . S
C1439 C1440 1.334 . S
C1440 H1411 0.950 . S
C1440 C1439 1.334 . S
C1440 C1441 1.287 . S
C1441 C1440 1.287 . S
C1441 C1442 1.524 . S
C1441 H1444 0.999 . S
C1442 H1412 0.950 . S
C1442 C1441 1.524 . S
C1442 C1443 1.415 . S
C1443 H1413 0.950 . S
C1443 C1438 1.363 . S
C1443 C1442 1.415 . S
H1444 C1441 0.999 . S
H1445 C1426 0.913 . S
H1446 C1464 0.951 . S
H1447 C1466 0.951 . S
H1448 C1468 0.950 . S
H1449 C1469 0.950 . S
H1450 C1471 0.950 . S
H1451 C1474 0.950 1_655 S
H1452 C1475 0.965 . S
H1453 C1477 0.950 . S
H1454 C1478 0.950 . S
H1455 C1479 0.951 1_655 S
H1456 C1481 0.951 1_655 S
H1457 C1483 0.950 . S
H1458 C1484 0.950 . S
H1459 C1486 0.950 . S
H1460 C1489 0.950 . S
H1461 C1490 0.950 . S
H1462 C1492 0.950 . S
H1463 C1493 0.950 . S
C1464 H1446 0.951 . S
C1464 C1465 1.366 . S
C1464 C1466 1.388 . S
C1465 C1464 1.366 . S
C1465 C1469 1.385 . S
C1466 H1447 0.951 . S
C1466 C1464 1.388 . S
C1466 C1467 1.366 . S
C1467 C1466 1.366 . S
C1467 C1468 1.414 . S
C1467 C1470 1.499 . S
C1468 H1448 0.950 . S
C1468 C1467 1.414 . S
C1468 C1469 1.374 . S
C1469 H1449 0.950 . S
C1469 C1465 1.385 . S
C1469 C1468 1.374 . S
C1470 C1467 1.499 . S
C1470 C1471 1.373 . S
C1470 C1472 1.389 . S
C1471 H1450 0.950 . S
C1471 C1470 1.373 . S
C1471 C1487 1.377 . S
C1472 C1470 1.389 . S
C1472 C1473 1.524 . S
C1472 C1486 1.377 . S
C1473 C1472 1.524 . S
C1473 C1474 1.397 . S
C1473 C1478 1.363 . S
C1474 H1451 0.950 1_455 S
C1474 C1473 1.397 . S
C1474 C1475 1.330 1_455 S
C1475 H1452 0.965 . S
C1475 C1474 1.330 1_655 S
C1475 C1476 1.276 1_655 S
C1476 C1475 1.276 1_455 S
C1476 C1477 1.524 . S
C1476 H1495 0.913 . S
C1477 H1453 0.950 . S
C1477 C1476 1.524 . S
C1477 C1478 1.415 . S
C1478 H1454 0.950 . S
C1478 C1473 1.363 . S
C1478 C1477 1.415 . S
C1479 H1455 0.951 1_455 S
C1479 C1480 1.366 . S
C1479 C1481 1.388 . S
C1480 C1479 1.366 . S
C1480 C1484 1.385 . S
C1481 H1456 0.951 1_455 S
C1481 C1479 1.388 . S
C1481 C1482 1.366 . S
C1482 C1481 1.366 . S
C1482 C1483 1.414 . S
C1482 C1485 1.499 . S
C1483 H1457 0.950 . S
C1483 C1482 1.414 . S
C1483 C1484 1.374 . S
C1484 H1458 0.950 . S
C1484 C1480 1.385 . S
C1484 C1483 1.374 . S
C1485 C1482 1.499 . S
C1485 C1486 1.373 . S
C1485 C1487 1.389 . S
C1486 H1459 0.950 . S
C1486 C1472 1.377 . S
C1486 C1485 1.373 . S
C1487 C1471 1.377 . S
C1487 C1485 1.389 . S
C1487 C1488 1.524 . S
C1488 C1487 1.524 . S
C1488 C1489 1.397 . S
C1488 C1493 1.363 . S
C1489 H1460 0.950 . S
C1489 C1488 1.397 . S
C1489 C1490 1.334 . S
C1490 H1461 0.950 . S
C1490 C1489 1.334 . S
C1490 C1491 1.287 . S
C1491 C1490 1.287 . S
C1491 C1492 1.524 . S
C1491 H1494 0.999 . S
C1492 H1462 0.950 . S
C1492 C1491 1.524 . S
C1492 C1493 1.415 . S
C1493 H1463 0.950 . S
C1493 C1488 1.363 . S
C1493 C1492 1.415 . S
H1494 C1491 0.999 . S
H1495 C1476 0.913 . S
H1496 C1514 0.951 . S
H1497 C1516 0.951 . S
H1498 C1518 0.950 . S
H1499 C1519 0.950 . S
H1500 C1521 0.950 . S
H1501 C1524 0.950 . S
H1502 C1525 0.950 . S
H1503 C1527 0.950 . S
H1504 C1528 0.950 . S
H1505 C1529 0.951 . S
H1506 C1531 0.951 . S
H1507 C1533 0.950 . S
H1508 C1534 0.950 . S
H1509 C1536 0.950 . S
H1510 C1539 0.950 . S
H1511 C1540 0.950 . S
H1512 C1542 0.950 . S
H1513 C1543 0.950 . S
C1514 H1496 0.951 . S
C1514 C1515 1.366 . S
C1514 C1516 1.388 . S
C1515 C1514 1.366 . S
C1515 C1519 1.385 . S
C1516 H1497 0.951 . S
C1516 C1514 1.388 . S
C1516 C1517 1.366 . S
C1517 C1516 1.366 . S
C1517 C1518 1.414 . S
C1517 C1520 1.499 . S
C1518 H1498 0.950 . S
C1518 C1517 1.414 . S
C1518 C1519 1.374 . S
C1519 H1499 0.950 . S
C1519 C1515 1.385 . S
C1519 C1518 1.374 . S
C1520 C1517 1.499 . S
C1520 C1521 1.373 . S
C1520 C1522 1.389 . S
C1521 H1500 0.950 . S
C1521 C1520 1.373 . S
C1521 C1537 1.377 . S
C1522 C1520 1.389 . S
C1522 C1523 1.524 . S
C1522 C1536 1.377 . S
C1523 C1522 1.524 . S
C1523 C1524 1.397 . S
C1523 C1528 1.363 . S
C1524 H1501 0.950 . S
C1524 C1523 1.397 . S
C1524 C1525 1.334 . S
C1525 H1502 0.950 . S
C1525 C1524 1.334 . S
C1525 C1526 1.287 . S
C1526 C1525 1.287 . S
C1526 C1527 1.524 . S
C1526 H1545 0.913 . S
C1527 H1503 0.950 . S
C1527 C1526 1.524 . S
C1527 C1528 1.415 . S
C1528 H1504 0.950 . S
C1528 C1523 1.363 . S
C1528 C1527 1.415 . S
C1529 H1505 0.951 . S
C1529 C1530 1.366 . S
C1529 C1531 1.388 . S
C1530 C1529 1.366 . S
C1530 C1534 1.385 . S
C1531 H1506 0.951 . S
C1531 C1529 1.388 . S
C1531 C1532 1.366 . S
C1532 C1531 1.366 . S
C1532 C1533 1.414 . S
C1532 C1535 1.499 . S
C1533 H1507 0.950 . S
C1533 C1532 1.414 . S
C1533 C1534 1.374 . S
C1534 H1508 0.950 . S
C1534 C1530 1.385 . S
C1534 C1533 1.374 . S
C1535 C1532 1.499 . S
C1535 C1536 1.373 . S
C1535 C1537 1.389 . S
C1536 H1509 0.950 . S
C1536 C1522 1.377 . S
C1536 C1535 1.373 . S
C1537 C1521 1.377 . S
C1537 C1535 1.389 . S
C1537 C1538 1.524 . S
C1538 C1537 1.524 . S
C1538 C1539 1.397 . S
C1538 C1543 1.363 . S
C1539 H1510 0.950 . S
C1539 C1538 1.397 . S
C1539 C1540 1.334 . S
C1540 H1511 0.950 . S
C1540 C1539 1.334 . S
C1540 C1541 1.287 . S
C1541 C1540 1.287 . S
C1541 C1542 1.524 . S
C1541 H1544 0.999 . S
C1542 H1512 0.950 . S
C1542 C1541 1.524 . S
C1542 C1543 1.415 . S
C1543 H1513 0.950 . S
C1543 C1538 1.363 . S
C1543 C1542 1.415 . S
H1544 C1541 0.999 . S
H1545 C1526 0.913 . S
H1546 C1564 0.951 . S
H1547 C1566 0.951 . S
H1548 C1568 0.950 . S
H1549 C1569 0.950 . S
H1550 C1571 0.950 . S
H1551 C1574 0.950 . S
H1552 C1575 0.950 . S
H1553 C1577 0.950 . S
H1554 C1578 0.950 . S
H1555 C1579 0.951 . S
H1556 C1581 0.951 . S
H1557 C1583 0.950 . S
H1558 C1584 0.950 . S
H1559 C1586 0.950 . S
H1560 C1589 0.950 . S
H1561 C1590 0.950 . S
H1562 C1592 0.950 . S
H1563 C1593 0.950 . S
C1564 H1546 0.951 . S
C1564 C1565 1.366 . S
C1564 C1566 1.388 . S
C1565 C1564 1.366 . S
C1565 C1569 1.385 . S
C1566 H1547 0.951 . S
C1566 C1564 1.388 . S
C1566 C1567 1.366 . S
C1567 C1566 1.366 . S
C1567 C1568 1.414 . S
C1567 C1570 1.499 . S
C1568 H1548 0.950 . S
C1568 C1567 1.414 . S
C1568 C1569 1.374 . S
C1569 H1549 0.950 . S
C1569 C1565 1.385 . S
C1569 C1568 1.374 . S
C1570 C1567 1.499 . S
C1570 C1571 1.373 . S
C1570 C1572 1.389 1_655 S
C1571 H1550 0.950 . S
C1571 C1570 1.373 . S
C1571 C1587 1.377 . S
C1572 C1570 1.389 1_455 S
C1572 C1573 1.524 . S
C1572 C1586 1.377 . S
C1573 C1572 1.524 . S
C1573 C1574 1.397 . S
C1573 C1578 1.363 . S
C1574 H1551 0.950 . S
C1574 C1573 1.397 . S
C1574 C1575 1.334 . S
C1575 H1552 0.950 . S
C1575 C1574 1.334 . S
C1575 C1576 1.287 . S
C1576 C1575 1.287 . S
C1576 C1577 1.524 . S
C1576 H1595 0.913 . S
C1577 H1553 0.950 . S
C1577 C1576 1.524 . S
C1577 C1578 1.415 . S
C1578 H1554 0.950 . S
C1578 C1573 1.363 . S
C1578 C1577 1.415 . S
C1579 H1555 0.951 . S
C1579 C1580 1.366 . S
C1579 C1581 1.388 . S
C1580 C1579 1.366 . S
C1580 C1584 1.385 1_655 S
C1581 H1556 0.951 . S
C1581 C1579 1.388 . S
C1581 C1582 1.366 . S
C1582 C1581 1.366 . S
C1582 C1583 1.414 1_655 S
C1582 C1585 1.499 . S
C1583 H1557 0.950 . S
C1583 C1582 1.414 1_455 S
C1583 C1584 1.374 . S
C1584 H1558 0.950 . S
C1584 C1580 1.385 1_455 S
C1584 C1583 1.374 . S
C1585 C1582 1.499 . S
C1585 C1586 1.373 1_655 S
C1585 C1587 1.389 . S
C1586 H1559 0.950 . S
C1586 C1572 1.377 . S
C1586 C1585 1.373 1_455 S
C1587 C1571 1.377 . S
C1587 C1585 1.389 . S
C1587 C1588 1.524 . S
C1588 C1587 1.524 . S
C1588 C1589 1.397 . S
C1588 C1593 1.363 . S
C1589 H1560 0.950 . S
C1589 C1588 1.397 . S
C1589 C1590 1.334 . S
C1590 H1561 0.950 . S
C1590 C1589 1.334 . S
C1590 C1591 1.287 . S
C1591 C1590 1.287 . S
C1591 C1592 1.524 . S
C1591 H1594 0.999 . S
C1592 H1562 0.950 . S
C1592 C1591 1.524 . S
C1592 C1593 1.415 . S
C1593 H1563 0.950 . S
C1593 C1588 1.363 . S
C1593 C1592 1.415 . S
H1594 C1591 0.999 . S
H1595 C1576 0.913 . S
H1596 C1614 0.951 . S
H1597 C1616 0.951 . S
H1598 C1618 0.950 . S
H1599 C1619 0.950 . S
H1600 C1621 0.950 . S
H1601 C1624 0.950 . S
H1602 C1625 0.950 . S
H1603 C1627 0.950 . S
H1604 C1628 0.950 . S
H1605 C1629 0.951 . S
H1606 C1631 0.951 . S
H1607 C1633 0.950 . S
H1608 C1634 0.950 . S
H1609 C1636 0.950 . S
H1610 C1639 0.950 . S
H1611 C1640 0.950 . S
H1612 C1642 0.950 . S
H1613 C1643 0.950 . S
C1614 H1596 0.951 . S
C1614 C1615 1.366 . S
C1614 C1616 1.388 . S
C1615 C1614 1.366 . S
C1615 C1619 1.385 . S
C1616 H1597 0.951 . S
C1616 C1614 1.388 . S
C1616 C1617 1.366 . S
C1617 C1616 1.366 . S
C1617 C1618 1.414 . S
C1617 C1620 1.499 . S
C1618 H1598 0.950 . S
C1618 C1617 1.414 . S
C1618 C1619 1.374 . S
C1619 H1599 0.950 . S
C1619 C1615 1.385 . S
C1619 C1618 1.374 . S
C1620 C1617 1.499 . S
C1620 C1621 1.373 . S
C1620 C1622 1.389 . S
C1621 H1600 0.950 . S
C1621 C1620 1.373 . S
C1621 C1637 1.377 . S
C1622 C1620 1.389 . S
C1622 C1623 1.524 . S
C1622 C1636 1.377 . S
C1623 C1622 1.524 . S
C1623 C1624 1.397 . S
C1623 C1628 1.363 . S
C1624 H1601 0.950 . S
C1624 C1623 1.397 . S
C1624 C1625 1.334 . S
C1625 H1602 0.950 . S
C1625 C1624 1.334 . S
C1625 C1626 1.287 . S
C1626 C1625 1.287 . S
C1626 C1627 1.524 . S
C1626 H1645 0.913 . S
C1627 H1603 0.950 . S
C1627 C1626 1.524 . S
C1627 C1628 1.415 . S
C1628 H1604 0.950 . S
C1628 C1623 1.363 . S
C1628 C1627 1.415 . S
C1629 H1605 0.951 . S
C1629 C1630 1.366 . S
C1629 C1631 1.388 . S
C1630 C1629 1.366 . S
C1630 C1634 1.385 . S
C1631 H1606 0.951 . S
C1631 C1629 1.388 . S
C1631 C1632 1.366 . S
C1632 C1631 1.366 . S
C1632 C1633 1.414 . S
C1632 C1635 1.499 . S
C1633 H1607 0.950 . S
C1633 C1632 1.414 . S
C1633 C1634 1.374 . S
C1634 H1608 0.950 . S
C1634 C1630 1.385 . S
C1634 C1633 1.374 . S
C1635 C1632 1.499 . S
C1635 C1636 1.373 . S
C1635 C1637 1.389 . S
C1636 H1609 0.950 . S
C1636 C1622 1.377 . S
C1636 C1635 1.373 . S
C1637 C1621 1.377 . S
C1637 C1635 1.389 . S
C1637 C1638 1.524 . S
C1638 C1637 1.524 . S
C1638 C1639 1.397 . S
C1638 C1643 1.363 . S
C1639 H1610 0.950 . S
C1639 C1638 1.397 . S
C1639 C1640 1.334 . S
C1640 H1611 0.950 . S
C1640 C1639 1.334 . S
C1640 C1641 1.287 . S
C1641 C1640 1.287 . S
C1641 C1642 1.524 . S
C1641 H1644 0.999 . S
C1642 H1612 0.950 . S
C1642 C1641 1.524 . S
C1642 C1643 1.415 . S
C1643 H1613 0.950 . S
C1643 C1638 1.363 . S
C1643 C1642 1.415 . S
H1644 C1641 0.999 . S
H1645 C1626 0.913 . S
H1646 C1664 0.951 . S
H1647 C1666 0.951 . S
H1648 C1668 0.950 . S
H1649 C1669 0.950 . S
H1650 C1671 0.950 . S
H1651 C1674 0.950 . S
H1652 C1675 0.950 . S
H1653 C1677 0.950 . S
H1654 C1678 0.950 . S
H1655 C1679 0.951 . S
H1656 C1681 0.951 . S
H1657 C1683 0.950 . S
H1658 C1684 0.950 . S
H1659 C1686 0.950 . S
H1660 C1689 0.950 . S
H1661 C1690 0.950 . S
H1662 C1692 0.950 . S
H1663 C1693 0.950 . S
C1664 H1646 0.951 . S
C1664 C1665 1.366 . S
C1664 C1666 1.388 . S
C1665 C1664 1.366 . S
C1665 C1669 1.385 . S
C1666 H1647 0.951 . S
C1666 C1664 1.388 . S
C1666 C1667 1.366 . S
C1667 C1666 1.366 . S
C1667 C1668 1.414 . S
C1667 C1670 1.499 . S
C1668 H1648 0.950 . S
C1668 C1667 1.414 . S
C1668 C1669 1.374 . S
C1669 H1649 0.950 . S
C1669 C1665 1.385 . S
C1669 C1668 1.374 . S
C1670 C1667 1.499 . S
C1670 C1671 1.373 . S
C1670 C1672 1.389 . S
C1671 H1650 0.950 . S
C1671 C1670 1.373 . S
C1671 C1687 1.377 . S
C1672 C1670 1.389 . S
C1672 C1673 1.524 . S
C1672 C1686 1.377 . S
C1673 C1672 1.524 . S
C1673 C1674 1.397 . S
C1673 C1678 1.363 . S
C1674 H1651 0.950 . S
C1674 C1673 1.397 . S
C1674 C1675 1.334 . S
C1675 H1652 0.950 . S
C1675 C1674 1.334 . S
C1675 C1676 1.287 . S
C1676 C1675 1.287 . S
C1676 C1677 1.524 . S
C1676 H1695 0.913 . S
C1677 H1653 0.950 . S
C1677 C1676 1.524 . S
C1677 C1678 1.415 . S
C1678 H1654 0.950 . S
C1678 C1673 1.363 . S
C1678 C1677 1.415 . S
C1679 H1655 0.951 . S
C1679 C1680 1.366 . S
C1679 C1681 1.388 . S
C1680 C1679 1.366 . S
C1680 C1684 1.385 . S
C1681 H1656 0.951 . S
C1681 C1679 1.388 . S
C1681 C1682 1.366 . S
C1682 C1681 1.366 . S
C1682 C1683 1.414 . S
C1682 C1685 1.499 . S
C1683 H1657 0.950 . S
C1683 C1682 1.414 . S
C1683 C1684 1.374 . S
C1684 H1658 0.950 . S
C1684 C1680 1.385 . S
C1684 C1683 1.374 . S
C1685 C1682 1.499 . S
C1685 C1686 1.373 . S
C1685 C1687 1.389 . S
C1686 H1659 0.950 . S
C1686 C1672 1.377 . S
C1686 C1685 1.373 . S
C1687 C1671 1.377 . S
C1687 C1685 1.389 . S
C1687 C1688 1.524 . S
C1688 C1687 1.524 . S
C1688 C1689 1.397 . S
C1688 C1693 1.363 . S
C1689 H1660 0.950 . S
C1689 C1688 1.397 . S
C1689 C1690 1.334 . S
C1690 H1661 0.950 . S
C1690 C1689 1.334 . S
C1690 C1691 1.287 . S
C1691 C1690 1.287 . S
C1691 C1692 1.524 . S
C1691 H1694 0.999 . S
C1692 H1662 0.950 . S
C1692 C1691 1.524 . S
C1692 C1693 1.415 . S
C1693 H1663 0.950 . S
C1693 C1688 1.363 . S
C1693 C1692 1.415 . S
H1694 C1691 0.999 . S
H1695 C1676 0.913 . S
H1696 C1714 0.951 . S
H1697 C1716 0.951 . S
H1698 C1718 0.950 . S
H1699 C1719 0.950 . S
H1700 C1721 0.950 . S
H1701 C1724 0.950 . S
H1702 C1725 0.950 . S
H1703 C1727 0.950 1_545 S
H1704 C1728 0.950 . S
H1705 C1729 0.951 . S
H1706 C1731 0.951 . S
H1707 C1733 0.965 . S
H1708 C1734 0.950 . S
H1709 C1736 0.950 . S
H1710 C1739 0.950 . S
H1711 C1740 0.950 . S
H1712 C1742 0.950 . S
H1713 C1743 0.950 . S
C1714 H1696 0.951 . S
C1714 C1715 1.366 . S
C1714 C1716 1.388 . S
C1715 C1714 1.366 . S
C1715 C1719 1.385 . S
C1716 H1697 0.951 . S
C1716 C1714 1.388 . S
C1716 C1717 1.366 . S
C1717 C1716 1.366 . S
C1717 C1718 1.414 . S
C1717 C1720 1.499 . S
C1718 H1698 0.950 . S
C1718 C1717 1.414 . S
C1718 C1719 1.374 . S
C1719 H1699 0.950 . S
C1719 C1715 1.385 . S
C1719 C1718 1.374 . S
C1720 C1717 1.499 . S
C1720 C1721 1.373 . S
C1720 C1722 1.389 1_556 S
C1721 H1700 0.950 . S
C1721 C1720 1.373 . S
C1721 C1737 1.377 . S
C1722 C1720 1.389 1_554 S
C1722 C1723 1.524 . S
C1722 C1736 1.377 . S
C1723 C1722 1.524 . S
C1723 C1724 1.397 . S
C1723 C1728 1.363 . S
C1724 H1701 0.950 . S
C1724 C1723 1.397 . S
C1724 C1725 1.334 . S
C1725 H1702 0.950 . S
C1725 C1724 1.334 . S
C1725 C1726 1.287 . S
C1726 C1725 1.287 . S
C1726 C1727 1.524 . S
C1726 H1745 0.913 1_565 S
C1727 H1703 0.950 1_565 S
C1727 C1726 1.524 . S
C1727 C1728 1.415 . S
C1728 H1704 0.950 . S
C1728 C1723 1.363 . S
C1728 C1727 1.415 . S
C1729 H1705 0.951 . S
C1729 C1730 1.366 . S
C1729 C1731 1.388 . S
C1730 C1729 1.366 . S
C1730 C1734 1.385 . S
C1731 H1706 0.951 . S
C1731 C1729 1.388 . S
C1731 C1732 1.387 . S
C1732 C1731 1.387 . S
C1732 C1733 1.408 1_554 S
C1732 C1735 1.488 1_554 S
C1733 H1707 0.965 . S
C1733 C1732 1.408 1_556 S
C1733 C1734 1.365 1_556 S
C1734 H1708 0.950 . S
C1734 C1730 1.385 . S
C1734 C1733 1.365 1_554 S
C1735 C1732 1.488 1_556 S
C1735 C1736 1.373 1_556 S
C1735 C1737 1.389 . S
C1736 H1709 0.950 . S
C1736 C1722 1.377 . S
C1736 C1735 1.373 1_554 S
C1737 C1721 1.377 . S
C1737 C1735 1.389 . S
C1737 C1738 1.524 . S
C1738 C1737 1.524 . S
C1738 C1739 1.397 . S
C1738 C1743 1.363 . S
C1739 H1710 0.950 . S
C1739 C1738 1.397 . S
C1739 C1740 1.334 . S
C1740 H1711 0.950 . S
C1740 C1739 1.334 . S
C1740 C1741 1.287 . S
C1741 C1740 1.287 . S
C1741 C1742 1.524 . S
C1741 H1744 0.999 . S
C1742 H1712 0.950 . S
C1742 C1741 1.524 . S
C1742 C1743 1.415 . S
C1743 H1713 0.950 . S
C1743 C1738 1.363 . S
C1743 C1742 1.415 . S
H1744 C1741 0.999 . S
H1745 C1726 0.913 1_545 S
H1746 C1764 0.951 . S
H1747 C1766 0.951 . S
H1748 C1768 0.950 . S
H1749 C1769 0.950 . S
H1750 C1771 0.950 . S
H1751 C1774 0.950 . S
H1752 C1775 0.950 . S
H1753 C1777 0.950 . S
H1754 C1778 0.950 . S
H1755 C1779 0.951 . S
H1756 C1781 0.951 . S
H1757 C1783 0.950 . S
H1758 C1784 0.950 . S
H1759 C1786 0.950 . S
H1760 C1789 0.950 . S
H1761 C1790 0.950 . S
H1762 C1792 0.950 . S
H1763 C1793 0.950 . S
C1764 H1746 0.951 . S
C1764 C1765 1.366 . S
C1764 C1766 1.388 . S
C1765 C1764 1.366 . S
C1765 C1769 1.385 . S
C1766 H1747 0.951 . S
C1766 C1764 1.388 . S
C1766 C1767 1.366 . S
C1767 C1766 1.366 . S
C1767 C1768 1.414 . S
C1767 C1770 1.499 . S
C1768 H1748 0.950 . S
C1768 C1767 1.414 . S
C1768 C1769 1.374 . S
C1769 H1749 0.950 . S
C1769 C1765 1.385 . S
C1769 C1768 1.374 . S
C1770 C1767 1.499 . S
C1770 C1771 1.373 . S
C1770 C1772 1.389 . S
C1771 H1750 0.950 . S
C1771 C1770 1.373 . S
C1771 C1787 1.377 . S
C1772 C1770 1.389 . S
C1772 C1773 1.524 . S
C1772 C1786 1.377 . S
C1773 C1772 1.524 . S
C1773 C1774 1.397 . S
C1773 C1778 1.363 . S
C1774 H1751 0.950 . S
C1774 C1773 1.397 . S
C1774 C1775 1.334 . S
C1775 H1752 0.950 . S
C1775 C1774 1.334 . S
C1775 C1776 1.287 . S
C1776 C1775 1.287 . S
C1776 C1777 1.524 . S
C1776 H1795 0.913 . S
C1777 H1753 0.950 . S
C1777 C1776 1.524 . S
C1777 C1778 1.415 . S
C1778 H1754 0.950 . S
C1778 C1773 1.363 . S
C1778 C1777 1.415 . S
C1779 H1755 0.951 . S
C1779 C1780 1.366 . S
C1779 C1781 1.388 . S
C1780 C1779 1.366 . S
C1780 C1784 1.385 . S
C1781 H1756 0.951 . S
C1781 C1779 1.388 . S
C1781 C1782 1.366 . S
C1782 C1781 1.366 . S
C1782 C1783 1.414 . S
C1782 C1785 1.499 . S
C1783 H1757 0.950 . S
C1783 C1782 1.414 . S
C1783 C1784 1.374 . S
C1784 H1758 0.950 . S
C1784 C1780 1.385 . S
C1784 C1783 1.374 . S
C1785 C1782 1.499 . S
C1785 C1786 1.373 . S
C1785 C1787 1.389 . S
C1786 H1759 0.950 . S
C1786 C1772 1.377 . S
C1786 C1785 1.373 . S
C1787 C1771 1.377 . S
C1787 C1785 1.389 . S
C1787 C1788 1.524 . S
C1788 C1787 1.524 . S
C1788 C1789 1.397 . S
C1788 C1793 1.363 . S
C1789 H1760 0.950 . S
C1789 C1788 1.397 . S
C1789 C1790 1.334 . S
C1790 H1761 0.950 . S
C1790 C1789 1.334 . S
C1790 C1791 1.287 . S
C1791 C1790 1.287 . S
C1791 C1792 1.524 . S
C1791 H1794 0.999 . S
C1792 H1762 0.950 . S
C1792 C1791 1.524 . S
C1792 C1793 1.415 . S
C1793 H1763 0.950 . S
C1793 C1788 1.363 . S
C1793 C1792 1.415 . S
H1794 C1791 0.999 . S
H1795 C1776 0.913 . S
H1796 C1814 0.951 . S
H1797 C1816 0.951 . S
H1798 C1818 0.950 . S
H1799 C1819 0.950 . S
H1800 C1821 0.950 . S
H1801 C1824 0.950 . S
H1802 C1825 0.950 . S
H1803 C1827 0.950 . S
H1804 C1828 0.950 . S
H1805 C1829 0.951 . S
H1806 C1831 0.951 . S
H1807 C1833 0.950 . S
H1808 C1834 0.950 . S
H1809 C1836 0.950 . S
H1810 C1839 0.950 . S
H1811 C1840 0.950 . S
H1812 C1842 0.950 . S
H1813 C1843 0.950 . S
C1814 H1796 0.951 . S
C1814 C1815 1.366 . S
C1814 C1816 1.388 . S
C1815 C1814 1.366 . S
C1815 C1819 1.385 . S
C1816 H1797 0.951 . S
C1816 C1814 1.388 . S
C1816 C1817 1.366 . S
C1817 C1816 1.366 . S
C1817 C1818 1.414 . S
C1817 C1820 1.499 . S
C1818 H1798 0.950 . S
C1818 C1817 1.414 . S
C1818 C1819 1.374 . S
C1819 H1799 0.950 . S
C1819 C1815 1.385 . S
C1819 C1818 1.374 . S
C1820 C1817 1.499 . S
C1820 C1821 1.373 . S
C1820 C1822 1.389 . S
C1821 H1800 0.950 . S
C1821 C1820 1.373 . S
C1821 C1837 1.377 . S
C1822 C1820 1.389 . S
C1822 C1823 1.524 . S
C1822 C1836 1.377 . S
C1823 C1822 1.524 . S
C1823 C1824 1.397 . S
C1823 C1828 1.363 . S
C1824 H1801 0.950 . S
C1824 C1823 1.397 . S
C1824 C1825 1.334 . S
C1825 H1802 0.950 . S
C1825 C1824 1.334 . S
C1825 C1826 1.287 . S
C1826 C1825 1.287 . S
C1826 C1827 1.524 . S
C1826 H1845 0.913 . S
C1827 H1803 0.950 . S
C1827 C1826 1.524 . S
C1827 C1828 1.415 . S
C1828 H1804 0.950 . S
C1828 C1823 1.363 . S
C1828 C1827 1.415 . S
C1829 H1805 0.951 . S
C1829 C1830 1.366 . S
C1829 C1831 1.388 . S
C1830 C1829 1.366 . S
C1830 C1834 1.385 . S
C1831 H1806 0.951 . S
C1831 C1829 1.388 . S
C1831 C1832 1.366 . S
C1832 C1831 1.366 . S
C1832 C1833 1.414 . S
C1832 C1835 1.499 . S
C1833 H1807 0.950 . S
C1833 C1832 1.414 . S
C1833 C1834 1.374 . S
C1834 H1808 0.950 . S
C1834 C1830 1.385 . S
C1834 C1833 1.374 . S
C1835 C1832 1.499 . S
C1835 C1836 1.373 . S
C1835 C1837 1.389 . S
C1836 H1809 0.950 . S
C1836 C1822 1.377 . S
C1836 C1835 1.373 . S
C1837 C1821 1.377 . S
C1837 C1835 1.389 . S
C1837 C1838 1.524 . S
C1838 C1837 1.524 . S
C1838 C1839 1.397 . S
C1838 C1843 1.363 . S
C1839 H1810 0.950 . S
C1839 C1838 1.397 . S
C1839 C1840 1.334 . S
C1840 H1811 0.950 . S
C1840 C1839 1.334 . S
C1840 C1841 1.287 . S
C1841 C1840 1.287 . S
C1841 C1842 1.524 . S
C1841 H1844 0.999 . S
C1842 H1812 0.950 . S
C1842 C1841 1.524 . S
C1842 C1843 1.415 . S
C1843 H1813 0.950 . S
C1843 C1838 1.363 . S
C1843 C1842 1.415 . S
H1844 C1841 0.999 . S
H1845 C1826 0.913 . S
H1846 C1864 0.951 . S
H1847 C1866 0.951 . S
H1848 C1868 0.950 . S
H1849 C1869 0.950 . S
H1850 C1871 0.950 . S
H1851 C1874 0.950 . S
H1852 C1875 0.950 . S
H1853 C1877 0.950 . S
H1854 C1878 0.950 . S
H1855 C1879 0.951 . S
H1856 C1881 0.951 . S
H1857 C1883 0.950 . S
H1858 C1884 0.950 . S
H1859 C1886 0.950 . S
H1860 C1889 0.950 . S
H1861 C1890 0.950 . S
H1862 C1892 0.950 . S
H1863 C1893 0.950 . S
C1864 H1846 0.951 . S
C1864 C1865 1.366 . S
C1864 C1866 1.388 . S
C1865 C1864 1.366 . S
C1865 C1869 1.385 . S
C1866 H1847 0.951 . S
C1866 C1864 1.388 . S
C1866 C1867 1.366 . S
C1867 C1866 1.366 . S
C1867 C1868 1.414 . S
C1867 C1870 1.499 . S
C1868 H1848 0.950 . S
C1868 C1867 1.414 . S
C1868 C1869 1.374 . S
C1869 H1849 0.950 . S
C1869 C1865 1.385 . S
C1869 C1868 1.374 . S
C1870 C1867 1.499 . S
C1870 C1871 1.373 . S
C1870 C1872 1.389 . S
C1871 H1850 0.950 . S
C1871 C1870 1.373 . S
C1871 C1887 1.377 . S
C1872 C1870 1.389 . S
C1872 C1873 1.524 . S
C1872 C1886 1.377 . S
C1873 C1872 1.524 . S
C1873 C1874 1.397 . S
C1873 C1878 1.363 . S
C1874 H1851 0.950 . S
C1874 C1873 1.397 . S
C1874 C1875 1.334 . S
C1875 H1852 0.950 . S
C1875 C1874 1.334 . S
C1875 C1876 1.287 . S
C1876 C1875 1.287 . S
C1876 C1877 1.524 . S
C1876 H1895 0.913 . S
C1877 H1853 0.950 . S
C1877 C1876 1.524 . S
C1877 C1878 1.415 . S
C1878 H1854 0.950 . S
C1878 C1873 1.363 . S
C1878 C1877 1.415 . S
C1879 H1855 0.951 . S
C1879 C1880 1.366 . S
C1879 C1881 1.388 . S
C1880 C1879 1.366 . S
C1880 C1884 1.385 . S
C1881 H1856 0.951 . S
C1881 C1879 1.388 . S
C1881 C1882 1.366 . S
C1882 C1881 1.366 . S
C1882 C1883 1.414 . S
C1882 C1885 1.499 . S
C1883 H1857 0.950 . S
C1883 C1882 1.414 . S
C1883 C1884 1.374 . S
C1884 H1858 0.950 . S
C1884 C1880 1.385 . S
C1884 C1883 1.374 . S
C1885 C1882 1.499 . S
C1885 C1886 1.373 . S
C1885 C1887 1.389 . S
C1886 H1859 0.950 . S
C1886 C1872 1.377 . S
C1886 C1885 1.373 . S
C1887 C1871 1.377 . S
C1887 C1885 1.389 . S
C1887 C1888 1.524 . S
C1888 C1887 1.524 . S
C1888 C1889 1.397 . S
C1888 C1893 1.363 . S
C1889 H1860 0.950 . S
C1889 C1888 1.397 . S
C1889 C1890 1.334 . S
C1890 H1861 0.950 . S
C1890 C1889 1.334 . S
C1890 C1891 1.287 . S
C1891 C1890 1.287 . S
C1891 C1892 1.524 . S
C1891 H1894 0.999 . S
C1892 H1862 0.950 . S
C1892 C1891 1.524 . S
C1892 C1893 1.415 . S
C1893 H1863 0.950 . S
C1893 C1888 1.363 . S
C1893 C1892 1.415 . S
H1894 C1891 0.999 . S
H1895 C1876 0.913 . S
H1896 C1914 0.951 . S
H1897 C1916 0.951 . S
H1898 C1918 0.950 . S
H1899 C1919 0.950 . S
H1900 C1921 0.950 . S
H1901 C1924 0.950 . S
H1902 C1925 0.950 . S
H1903 C1927 0.950 . S
H1904 C1928 0.950 . S
H1905 C1929 0.951 . S
H1906 C1931 0.951 . S
H1907 C1933 0.950 . S
H1908 C1934 0.950 . S
H1909 C1936 0.950 . S
H1910 C1939 0.950 . S
H1911 C1940 0.950 . S
H1912 C1942 0.950 . S
H1913 C1943 0.950 . S
C1914 H1896 0.951 . S
C1914 C1915 1.366 . S
C1914 C1916 1.388 . S
C1915 C1914 1.366 . S
C1915 C1919 1.385 . S
C1916 H1897 0.951 . S
C1916 C1914 1.388 . S
C1916 C1917 1.366 . S
C1917 C1916 1.366 . S
C1917 C1918 1.414 . S
C1917 C1920 1.499 . S
C1918 H1898 0.950 . S
C1918 C1917 1.414 . S
C1918 C1919 1.374 . S
C1919 H1899 0.950 . S
C1919 C1915 1.385 . S
C1919 C1918 1.374 . S
C1920 C1917 1.499 . S
C1920 C1921 1.373 . S
C1920 C1922 1.389 . S
C1921 H1900 0.950 . S
C1921 C1920 1.373 . S
C1921 C1937 1.377 . S
C1922 C1920 1.389 . S
C1922 C1923 1.524 . S
C1922 C1936 1.377 . S
C1923 C1922 1.524 . S
C1923 C1924 1.397 . S
C1923 C1928 1.363 . S
C1924 H1901 0.950 . S
C1924 C1923 1.397 . S
C1924 C1925 1.334 . S
C1925 H1902 0.950 . S
C1925 C1924 1.334 . S
C1925 C1926 1.287 . S
C1926 C1925 1.287 . S
C1926 C1927 1.524 . S
C1926 H1945 0.913 . S
C1927 H1903 0.950 . S
C1927 C1926 1.524 . S
C1927 C1928 1.415 . S
C1928 H1904 0.950 . S
C1928 C1923 1.363 . S
C1928 C1927 1.415 . S
C1929 H1905 0.951 . S
C1929 C1930 1.366 . S
C1929 C1931 1.388 . S
C1930 C1929 1.366 . S
C1930 C1934 1.385 . S
C1931 H1906 0.951 . S
C1931 C1929 1.388 . S
C1931 C1932 1.366 . S
C1932 C1931 1.366 . S
C1932 C1933 1.414 . S
C1932 C1935 1.499 . S
C1933 H1907 0.950 . S
C1933 C1932 1.414 . S
C1933 C1934 1.374 . S
C1934 H1908 0.950 . S
C1934 C1930 1.385 . S
C1934 C1933 1.374 . S
C1935 C1932 1.499 . S
C1935 C1936 1.373 . S
C1935 C1937 1.389 . S
C1936 H1909 0.950 . S
C1936 C1922 1.377 . S
C1936 C1935 1.373 . S
C1937 C1921 1.377 . S
C1937 C1935 1.389 . S
C1937 C1938 1.524 . S
C1938 C1937 1.524 . S
C1938 C1939 1.397 . S
C1938 C1943 1.363 . S
C1939 H1910 0.950 . S
C1939 C1938 1.397 . S
C1939 C1940 1.334 . S
C1940 H1911 0.950 . S
C1940 C1939 1.334 . S
C1940 C1941 1.287 . S
C1941 C1940 1.287 . S
C1941 C1942 1.524 . S
C1941 H1944 0.999 . S
C1942 H1912 0.950 . S
C1942 C1941 1.524 . S
C1942 C1943 1.415 . S
C1943 H1913 0.950 . S
C1943 C1938 1.363 . S
C1943 C1942 1.415 . S
H1944 C1941 0.999 . S
H1945 C1926 0.913 . S
H1946 C1964 0.951 . S
H1947 C1966 0.951 . S
H1948 C1968 0.950 . S
H1949 C1969 0.950 . S
H1950 C1971 0.950 . S
H1951 C1974 0.950 . S
H1952 C1975 0.950 . S
H1953 C1977 0.950 . S
H1954 C1978 0.950 . S
H1955 C1979 0.951 . S
H1956 C1981 0.951 . S
H1957 C1983 0.950 . S
H1958 C1984 0.950 . S
H1959 C1986 0.950 . S
H1960 C1989 0.950 . S
H1961 C1990 0.950 . S
H1962 C1992 0.950 . S
H1963 C1993 0.950 . S
C1964 H1946 0.951 . S
C1964 C1965 1.366 . S
C1964 C1966 1.388 . S
C1965 C1964 1.366 . S
C1965 C1969 1.385 . S
C1966 H1947 0.951 . S
C1966 C1964 1.388 . S
C1966 C1967 1.366 . S
C1967 C1966 1.366 . S
C1967 C1968 1.414 . S
C1967 C1970 1.499 . S
C1968 H1948 0.950 . S
C1968 C1967 1.414 . S
C1968 C1969 1.374 . S
C1969 H1949 0.950 . S
C1969 C1965 1.385 . S
C1969 C1968 1.374 . S
C1970 C1967 1.499 . S
C1970 C1971 1.373 . S
C1970 C1972 1.389 . S
C1971 H1950 0.950 . S
C1971 C1970 1.373 . S
C1971 C1987 1.377 . S
C1972 C1970 1.389 . S
C1972 C1973 1.524 . S
C1972 C1986 1.377 . S
C1973 C1972 1.524 . S
C1973 C1974 1.397 . S
C1973 C1978 1.363 . S
C1974 H1951 0.950 . S
C1974 C1973 1.397 . S
C1974 C1975 1.334 . S
C1975 H1952 0.950 . S
C1975 C1974 1.334 . S
C1975 C1976 1.287 . S
C1976 C1975 1.287 . S
C1976 C1977 1.524 . S
C1976 H1995 0.913 . S
C1977 H1953 0.950 . S
C1977 C1976 1.524 . S
C1977 C1978 1.415 . S
C1978 H1954 0.950 . S
C1978 C1973 1.363 . S
C1978 C1977 1.415 . S
C1979 H1955 0.951 . S
C1979 C1980 1.366 . S
C1979 C1981 1.388 . S
C1980 C1979 1.366 . S
C1980 C1984 1.385 . S
C1981 H1956 0.951 . S
C1981 C1979 1.388 . S
C1981 C1982 1.366 . S
C1982 C1981 1.366 . S
C1982 C1983 1.414 . S
C1982 C1985 1.499 . S
C1983 H1957 0.950 . S
C1983 C1982 1.414 . S
C1983 C1984 1.374 . S
C1984 H1958 0.950 . S
C1984 C1980 1.385 . S
C1984 C1983 1.374 . S
C1985 C1982 1.499 . S
C1985 C1986 1.373 . S
C1985 C1987 1.389 . S
C1986 H1959 0.950 . S
C1986 C1972 1.377 . S
C1986 C1985 1.373 . S
C1987 C1971 1.377 . S
C1987 C1985 1.389 . S
C1987 C1988 1.524 . S
C1988 C1987 1.524 . S
C1988 C1989 1.397 . S
C1988 C1993 1.363 . S
C1989 H1960 0.950 . S
C1989 C1988 1.397 . S
C1989 C1990 1.334 . S
C1990 H1961 0.950 . S
C1990 C1989 1.334 . S
C1990 C1991 1.287 . S
C1991 C1990 1.287 . S
C1991 C1992 1.524 . S
C1991 H1994 0.999 . S
C1992 H1962 0.950 . S
C1992 C1991 1.524 . S
C1992 C1993 1.415 . S
C1993 H1963 0.950 . S
C1993 C1988 1.363 . S
C1993 C1992 1.415 . S
H1994 C1991 0.999 . S
H1995 C1976 0.913 . S
H1996 C2014 0.951 . S
H1997 C2016 0.951 . S
H1998 C2018 0.950 . S
H1999 C2019 0.950 . S
H2000 C2021 0.950 . S
H2001 C2024 0.950 . S
H2002 C2025 0.950 . S
H2003 C2027 0.950 . S
H2004 C2028 0.950 . S
H2005 C2029 0.951 . S
H2006 C2031 0.951 . S
H2007 C2033 0.950 . S
H2008 C2034 0.950 . S
H2009 C2036 0.950 . S
H2010 C2039 0.950 . S
H2011 C2040 0.950 . S
H2012 C2042 0.950 . S
H2013 C2043 0.950 . S
C2014 H1996 0.951 . S
C2014 C2015 1.366 . S
C2014 C2016 1.388 . S
C2015 C2014 1.366 . S
C2015 C2019 1.385 . S
C2016 H1997 0.951 . S
C2016 C2014 1.388 . S
C2016 C2017 1.366 . S
C2017 C2016 1.366 . S
C2017 C2018 1.414 . S
C2017 C2020 1.499 . S
C2018 H1998 0.950 . S
C2018 C2017 1.414 . S
C2018 C2019 1.374 . S
C2019 H1999 0.950 . S
C2019 C2015 1.385 . S
C2019 C2018 1.374 . S
C2020 C2017 1.499 . S
C2020 C2021 1.373 . S
C2020 C2022 1.389 . S
C2021 H2000 0.950 . S
C2021 C2020 1.373 . S
C2021 C2037 1.377 . S
C2022 C2020 1.389 . S
C2022 C2023 1.524 . S
C2022 C2036 1.377 . S
C2023 C2022 1.524 . S
C2023 C2024 1.397 . S
C2023 C2028 1.363 . S
C2024 H2001 0.950 . S
C2024 C2023 1.397 . S
C2024 C2025 1.334 . S
C2025 H2002 0.950 . S
C2025 C2024 1.334 . S
C2025 C2026 1.287 . S
C2026 C2025 1.287 . S
C2026 C2027 1.524 . S
C2026 H2045 0.913 . S
C2027 H2003 0.950 . S
C2027 C2026 1.524 . S
C2027 C2028 1.415 . S
C2028 H2004 0.950 . S
C2028 C2023 1.363 . S
C2028 C2027 1.415 . S
C2029 H2005 0.951 . S
C2029 C2030 1.366 . S
C2029 C2031 1.388 . S
C2030 C2029 1.366 . S
C2030 C2034 1.385 . S
C2031 H2006 0.951 . S
C2031 C2029 1.388 . S
C2031 C2032 1.366 . S
C2032 C2031 1.366 . S
C2032 C2033 1.414 . S
C2032 C2035 1.499 . S
C2033 H2007 0.950 . S
C2033 C2032 1.414 . S
C2033 C2034 1.374 . S
C2034 H2008 0.950 . S
C2034 C2030 1.385 . S
C2034 C2033 1.374 . S
C2035 C2032 1.499 . S
C2035 C2036 1.373 . S
C2035 C2037 1.389 . S
C2036 H2009 0.950 . S
C2036 C2022 1.377 . S
C2036 C2035 1.373 . S
C2037 C2021 1.377 . S
C2037 C2035 1.389 . S
C2037 C2038 1.524 . S
C2038 C2037 1.524 . S
C2038 C2039 1.397 . S
C2038 C2043 1.363 . S
C2039 H2010 0.950 . S
C2039 C2038 1.397 . S
C2039 C2040 1.334 . S
C2040 H2011 0.950 . S
C2040 C2039 1.334 . S
C2040 C2041 1.287 . S
C2041 C2040 1.287 . S
C2041 C2042 1.524 . S
C2041 H2044 0.999 . S
C2042 H2012 0.950 . S
C2042 C2041 1.524 . S
C2042 C2043 1.415 . S
C2043 H2013 0.950 . S
C2043 C2038 1.363 . S
C2043 C2042 1.415 . S
H2044 C2041 0.999 . S
H2045 C2026 0.913 . S
H2046 C2064 0.951 . S
H2047 C2066 0.951 . S
H2048 C2068 0.950 . S
H2049 C2069 0.950 . S
H2050 C2071 0.903 1_565 S
H2051 C2074 0.950 . S
H2052 C2075 0.950 . S
H2053 C2077 0.950 . S
H2054 C2078 0.950 . S
H2055 C2079 0.951 . S
H2056 C2081 0.951 . S
H2057 C2083 0.950 . S
H2058 C2084 0.950 . S
H2059 C2086 0.950 . S
H2060 C2089 0.950 . S
H2061 C2090 0.950 . S
H2062 C2092 0.950 . S
H2063 C2093 0.950 . S
C2064 H2046 0.951 . S
C2064 C2065 1.366 . S
C2064 C2066 1.388 . S
C2065 C2064 1.366 . S
C2065 C2069 1.385 . S
C2066 H2047 0.951 . S
C2066 C2064 1.388 . S
C2066 C2067 1.366 . S
C2067 C2066 1.366 . S
C2067 C2068 1.414 . S
C2067 C2070 1.499 . S
C2068 H2048 0.950 . S
C2068 C2067 1.414 . S
C2068 C2069 1.374 . S
C2069 H2049 0.950 . S
C2069 C2065 1.385 . S
C2069 C2068 1.374 . S
C2070 C2067 1.499 . S
C2070 C2071 1.373 . S
C2070 C2072 1.389 . S
C2071 H2050 0.903 1_545 S
C2071 C2070 1.373 . S
C2071 C2087 1.377 . S
C2072 C2070 1.389 . S
C2072 C2073 1.524 . S
C2072 C2086 1.377 . S
C2073 C2072 1.524 . S
C2073 C2074 1.397 . S
C2073 C2078 1.363 . S
C2074 H2051 0.950 . S
C2074 C2073 1.397 . S
C2074 C2075 1.334 . S
C2075 H2052 0.950 . S
C2075 C2074 1.334 . S
C2075 C2076 1.287 . S
C2076 C2075 1.287 . S
C2076 C2077 1.524 . S
C2076 H2095 0.913 . S
C2077 H2053 0.950 . S
C2077 C2076 1.524 . S
C2077 C2078 1.415 . S
C2078 H2054 0.950 . S
C2078 C2073 1.363 . S
C2078 C2077 1.415 . S
C2079 H2055 0.951 . S
C2079 C2080 1.366 . S
C2079 C2081 1.388 . S
C2080 C2079 1.366 . S
C2080 C2084 1.385 . S
C2081 H2056 0.951 . S
C2081 C2079 1.388 . S
C2081 C2082 1.366 . S
C2082 C2081 1.366 . S
C2082 C2083 1.414 . S
C2082 C2085 1.499 . S
C2083 H2057 0.950 . S
C2083 C2082 1.414 . S
C2083 C2084 1.374 . S
C2084 H2058 0.950 . S
C2084 C2080 1.385 . S
C2084 C2083 1.374 . S
C2085 C2082 1.499 . S
C2085 C2086 1.373 . S
C2085 C2087 1.389 . S
C2086 H2059 0.950 . S
C2086 C2072 1.377 . S
C2086 C2085 1.373 . S
C2087 C2071 1.377 . S
C2087 C2085 1.389 . S
C2087 C2088 1.524 1_545 S
C2088 C2087 1.524 1_565 S
C2088 C2089 1.397 . S
C2088 C2093 1.363 . S
C2089 H2060 0.950 . S
C2089 C2088 1.397 . S
C2089 C2090 1.334 . S
C2090 H2061 0.950 . S
C2090 C2089 1.334 . S
C2090 C2091 1.287 . S
C2091 C2090 1.287 . S
C2091 C2092 1.524 . S
C2091 H2094 0.999 . S
C2092 H2062 0.950 . S
C2092 C2091 1.524 . S
C2092 C2093 1.415 . S
C2093 H2063 0.950 . S
C2093 C2088 1.363 . S
C2093 C2092 1.415 . S
H2094 C2091 0.999 . S
H2095 C2076 0.913 . S
H2096 C2114 0.951 . S
H2097 C2116 0.951 . S
H2098 C2118 0.950 . S
H2099 C2119 0.950 . S
H2100 C2121 0.950 . S
H2101 C2124 0.950 . S
H2102 C2125 0.950 . S
H2103 C2127 0.950 . S
H2104 C2128 0.950 . S
H2105 C2129 0.951 . S
H2106 C2131 0.951 . S
H2107 C2133 0.950 . S
H2108 C2134 0.950 . S
H2109 C2136 0.950 . S
H2110 C2139 0.950 . S
H2111 C2140 0.950 . S
H2112 C2142 0.950 . S
H2113 C2143 0.950 . S
C2114 H2096 0.951 . S
C2114 C2115 1.366 . S
C2114 C2116 1.388 . S
C2115 C2114 1.366 . S
C2115 C2119 1.385 . S
C2116 H2097 0.951 . S
C2116 C2114 1.388 . S
C2116 C2117 1.366 . S
C2117 C2116 1.366 . S
C2117 C2118 1.414 . S
C2117 C2120 1.499 . S
C2118 H2098 0.950 . S
C2118 C2117 1.414 . S
C2118 C2119 1.374 . S
C2119 H2099 0.950 . S
C2119 C2115 1.385 . S
C2119 C2118 1.374 . S
C2120 C2117 1.499 . S
C2120 C2121 1.373 . S
C2120 C2122 1.389 . S
C2121 H2100 0.950 . S
C2121 C2120 1.373 . S
C2121 C2137 1.377 . S
C2122 C2120 1.389 . S
C2122 C2123 1.524 . S
C2122 C2136 1.377 . S
C2123 C2122 1.524 . S
C2123 C2124 1.397 . S
C2123 C2128 1.363 . S
C2124 H2101 0.950 . S
C2124 C2123 1.397 . S
C2124 C2125 1.334 . S
C2125 H2102 0.950 . S
C2125 C2124 1.334 . S
C2125 C2126 1.287 . S
C2126 C2125 1.287 . S
C2126 C2127 1.524 . S
C2126 H2145 0.913 . S
C2127 H2103 0.950 . S
C2127 C2126 1.524 . S
C2127 C2128 1.415 . S
C2128 H2104 0.950 . S
C2128 C2123 1.363 . S
C2128 C2127 1.415 . S
C2129 H2105 0.951 . S
C2129 C2130 1.366 . S
C2129 C2131 1.388 . S
C2130 C2129 1.366 . S
C2130 C2134 1.385 . S
C2131 H2106 0.951 . S
C2131 C2129 1.388 . S
C2131 C2132 1.366 . S
C2132 C2131 1.366 . S
C2132 C2133 1.414 . S
C2132 C2135 1.499 . S
C2133 H2107 0.950 . S
C2133 C2132 1.414 . S
C2133 C2134 1.374 . S
C2134 H2108 0.950 . S
C2134 C2130 1.385 . S
C2134 C2133 1.374 . S
C2135 C2132 1.499 . S
C2135 C2136 1.373 . S
C2135 C2137 1.389 . S
C2136 H2109 0.950 . S
C2136 C2122 1.377 . S
C2136 C2135 1.373 . S
C2137 C2121 1.377 . S
C2137 C2135 1.389 . S
C2137 C2138 1.524 . S
C2138 C2137 1.524 . S
C2138 C2139 1.397 . S
C2138 C2143 1.363 . S
C2139 H2110 0.950 . S
C2139 C2138 1.397 . S
C2139 C2140 1.334 . S
C2140 H2111 0.950 . S
C2140 C2139 1.334 . S
C2140 C2141 1.287 . S
C2141 C2140 1.287 . S
C2141 C2142 1.524 . S
C2141 H2144 0.999 . S
C2142 H2112 0.950 . S
C2142 C2141 1.524 . S
C2142 C2143 1.415 . S
C2143 H2113 0.950 . S
C2143 C2138 1.363 . S
C2143 C2142 1.415 . S
H2144 C2141 0.999 . S
H2145 C2126 0.913 . S
H2146 C2164 0.951 . S
H2147 C2166 0.951 . S
H2148 C2168 0.950 . S
H2149 C2169 0.950 . S
H2150 C2171 0.950 . S
H2151 C2174 0.950 . S
H2152 C2175 0.950 . S
H2153 C2177 0.950 . S
H2154 C2178 0.950 . S
H2155 C2179 0.951 . S
H2156 C2181 0.951 . S
H2157 C2183 0.950 . S
H2158 C2184 0.950 . S
H2159 C2186 0.950 . S
H2160 C2189 0.950 . S
H2161 C2190 0.950 . S
H2162 C2192 0.950 . S
H2163 C2193 0.950 . S
C2164 H2146 0.951 . S
C2164 C2165 1.366 . S
C2164 C2166 1.388 . S
C2165 C2164 1.366 . S
C2165 C2169 1.385 . S
C2166 H2147 0.951 . S
C2166 C2164 1.388 . S
C2166 C2167 1.366 . S
C2167 C2166 1.366 . S
C2167 C2168 1.414 . S
C2167 C2170 1.499 . S
C2168 H2148 0.950 . S
C2168 C2167 1.414 . S
C2168 C2169 1.374 . S
C2169 H2149 0.950 . S
C2169 C2165 1.385 . S
C2169 C2168 1.374 . S
C2170 C2167 1.499 . S
C2170 C2171 1.373 . S
C2170 C2172 1.389 . S
C2171 H2150 0.950 . S
C2171 C2170 1.373 . S
C2171 C2187 1.377 . S
C2172 C2170 1.389 . S
C2172 C2173 1.524 . S
C2172 C2186 1.377 . S
C2173 C2172 1.524 . S
C2173 C2174 1.397 . S
C2173 C2178 1.363 . S
C2174 H2151 0.950 . S
C2174 C2173 1.397 . S
C2174 C2175 1.334 . S
C2175 H2152 0.950 . S
C2175 C2174 1.334 . S
C2175 C2176 1.287 . S
C2176 C2175 1.287 . S
C2176 C2177 1.524 . S
C2176 H2195 0.913 . S
C2177 H2153 0.950 . S
C2177 C2176 1.524 . S
C2177 C2178 1.415 . S
C2178 H2154 0.950 . S
C2178 C2173 1.363 . S
C2178 C2177 1.415 . S
C2179 H2155 0.951 . S
C2179 C2180 1.366 . S
C2179 C2181 1.388 . S
C2180 C2179 1.366 . S
C2180 C2184 1.385 . S
C2181 H2156 0.951 . S
C2181 C2179 1.388 . S
C2181 C2182 1.366 . S
C2182 C2181 1.366 . S
C2182 C2183 1.414 . S
C2182 C2185 1.499 . S
C2183 H2157 0.950 . S
C2183 C2182 1.414 . S
C2183 C2184 1.374 . S
C2184 H2158 0.950 . S
C2184 C2180 1.385 . S
C2184 C2183 1.374 . S
C2185 C2182 1.499 . S
C2185 C2186 1.373 . S
C2185 C2187 1.389 . S
C2186 H2159 0.950 . S
C2186 C2172 1.377 . S
C2186 C2185 1.373 . S
C2187 C2171 1.377 . S
C2187 C2185 1.389 . S
C2187 C2188 1.524 . S
C2188 C2187 1.524 . S
C2188 C2189 1.397 . S
C2188 C2193 1.363 . S
C2189 H2160 0.950 . S
C2189 C2188 1.397 . S
C2189 C2190 1.334 . S
C2190 H2161 0.950 . S
C2190 C2189 1.334 . S
C2190 C2191 1.287 . S
C2191 C2190 1.287 . S
C2191 C2192 1.524 . S
C2191 H2194 0.999 . S
C2192 H2162 0.950 . S
C2192 C2191 1.524 . S
C2192 C2193 1.415 . S
C2193 H2163 0.950 . S
C2193 C2188 1.363 . S
C2193 C2192 1.415 . S
H2194 C2191 0.999 . S
H2195 C2176 0.913 . S
H2196 C2214 0.951 . S
H2197 C2216 0.951 . S
H2198 C2218 0.950 . S
H2199 C2219 0.950 . S
H2200 C2221 0.950 . S
H2201 C2224 0.950 . S
H2202 C2225 0.950 . S
H2203 C2227 0.950 . S
H2204 C2228 0.950 . S
H2205 C2229 0.951 . S
H2206 C2231 0.951 . S
H2207 C2233 0.950 . S
H2208 C2234 0.950 . S
H2209 C2236 0.950 . S
H2210 C2239 0.950 . S
H2211 C2240 0.950 . S
H2212 C2242 0.950 . S
H2213 C2243 0.950 . S
C2214 H2196 0.951 . S
C2214 C2215 1.366 . S
C2214 C2216 1.388 . S
C2215 C2214 1.366 . S
C2215 C2219 1.385 . S
C2216 H2197 0.951 . S
C2216 C2214 1.388 . S
C2216 C2217 1.366 . S
C2217 C2216 1.366 . S
C2217 C2218 1.414 . S
C2217 C2220 1.499 . S
C2218 H2198 0.950 . S
C2218 C2217 1.414 . S
C2218 C2219 1.374 . S
C2219 H2199 0.950 . S
C2219 C2215 1.385 . S
C2219 C2218 1.374 . S
C2220 C2217 1.499 . S
C2220 C2221 1.373 . S
C2220 C2222 1.389 . S
C2221 H2200 0.950 . S
C2221 C2220 1.373 . S
C2221 C2237 1.377 . S
C2222 C2220 1.389 . S
C2222 C2223 1.524 . S
C2222 C2236 1.377 . S
C2223 C2222 1.524 . S
C2223 C2224 1.397 . S
C2223 C2228 1.363 . S
C2224 H2201 0.950 . S
C2224 C2223 1.397 . S
C2224 C2225 1.334 . S
C2225 H2202 0.950 . S
C2225 C2224 1.334 . S
C2225 C2226 1.287 . S
C2226 C2225 1.287 . S
C2226 C2227 1.524 . S
C2226 H2245 0.913 . S
C2227 H2203 0.950 . S
C2227 C2226 1.524 . S
C2227 C2228 1.415 . S
C2228 H2204 0.950 . S
C2228 C2223 1.363 . S
C2228 C2227 1.415 . S
C2229 H2205 0.951 . S
C2229 C2230 1.366 . S
C2229 C2231 1.388 . S
C2230 C2229 1.366 . S
C2230 C2234 1.385 . S
C2231 H2206 0.951 . S
C2231 C2229 1.388 . S
C2231 C2232 1.366 . S
C2232 C2231 1.366 . S
C2232 C2233 1.414 . S
C2232 C2235 1.499 . S
C2233 H2207 0.950 . S
C2233 C2232 1.414 . S
C2233 C2234 1.374 . S
C2234 H2208 0.950 . S
C2234 C2230 1.385 . S
C2234 C2233 1.374 . S
C2235 C2232 1.499 . S
C2235 C2236 1.373 . S
C2235 C2237 1.389 . S
C2236 H2209 0.950 . S
C2236 C2222 1.377 . S
C2236 C2235 1.373 . S
C2237 C2221 1.377 . S
C2237 C2235 1.389 . S
C2237 C2238 1.524 . S
C2238 C2237 1.524 . S
C2238 C2239 1.397 . S
C2238 C2243 1.363 . S
C2239 H2210 0.950 . S
C2239 C2238 1.397 . S
C2239 C2240 1.334 . S
C2240 H2211 0.950 . S
C2240 C2239 1.334 . S
C2240 C2241 1.287 . S
C2241 C2240 1.287 . S
C2241 C2242 1.524 . S
C2241 H2244 0.999 . S
C2242 H2212 0.950 . S
C2242 C2241 1.524 . S
C2242 C2243 1.415 . S
C2243 H2213 0.950 . S
C2243 C2238 1.363 . S
C2243 C2242 1.415 . S
H2244 C2241 0.999 . S
H2245 C2226 0.913 . S
H2246 C2264 0.951 . S
H2247 C2266 0.951 . S
H2248 C2268 0.950 . S
H2249 C2269 0.950 . S
H2250 C2271 0.950 . S
H2251 C2274 0.950 . S
H2252 C2275 0.950 . S
H2253 C2277 0.950 . S
H2254 C2278 0.950 . S
H2255 C2279 0.951 . S
H2256 C2281 0.951 . S
H2257 C2283 0.950 . S
H2258 C2284 0.950 . S
H2259 C2286 0.950 . S
H2260 C2289 0.950 . S
H2261 C2290 0.950 . S
H2262 C2292 0.950 . S
H2263 C2293 0.950 . S
C2264 H2246 0.951 . S
C2264 C2265 1.366 . S
C2264 C2266 1.388 . S
C2265 C2264 1.366 . S
C2265 C2269 1.385 . S
C2266 H2247 0.951 . S
C2266 C2264 1.388 . S
C2266 C2267 1.366 . S
C2267 C2266 1.366 . S
C2267 C2268 1.414 . S
C2267 C2270 1.499 . S
C2268 H2248 0.950 . S
C2268 C2267 1.414 . S
C2268 C2269 1.374 . S
C2269 H2249 0.950 . S
C2269 C2265 1.385 . S
C2269 C2268 1.374 . S
C2270 C2267 1.499 . S
C2270 C2271 1.373 . S
C2270 C2272 1.389 . S
C2271 H2250 0.950 . S
C2271 C2270 1.373 . S
C2271 C2287 1.377 . S
C2272 C2270 1.389 . S
C2272 C2273 1.524 . S
C2272 C2286 1.377 . S
C2273 C2272 1.524 . S
C2273 C2274 1.397 . S
C2273 C2278 1.363 . S
C2274 H2251 0.950 . S
C2274 C2273 1.397 . S
C2274 C2275 1.334 . S
C2275 H2252 0.950 . S
C2275 C2274 1.334 . S
C2275 C2276 1.287 . S
C2276 C2275 1.287 . S
C2276 C2277 1.524 . S
C2276 H2295 0.913 . S
C2277 H2253 0.950 . S
C2277 C2276 1.524 . S
C2277 C2278 1.415 . S
C2278 H2254 0.950 . S
C2278 C2273 1.363 . S
C2278 C2277 1.415 . S
C2279 H2255 0.951 . S
C2279 C2280 1.366 . S
C2279 C2281 1.388 . S
C2280 C2279 1.366 . S
C2280 C2284 1.385 . S
C2281 H2256 0.951 . S
C2281 C2279 1.388 . S
C2281 C2282 1.366 . S
C2282 C2281 1.366 . S
C2282 C2283 1.414 . S
C2282 C2285 1.499 . S
C2283 H2257 0.950 . S
C2283 C2282 1.414 . S
C2283 C2284 1.374 . S
C2284 H2258 0.950 . S
C2284 C2280 1.385 . S
C2284 C2283 1.374 . S
C2285 C2282 1.499 . S
C2285 C2286 1.373 . S
C2285 C2287 1.389 . S
C2286 H2259 0.950 . S
C2286 C2272 1.377 . S
C2286 C2285 1.373 . S
C2287 C2271 1.377 . S
C2287 C2285 1.389 . S
C2287 C2288 1.524 1_545 S
C2288 C2287 1.524 1_565 S
C2288 C2289 1.397 . S
C2288 C2293 1.363 . S
C2289 H2260 0.950 . S
C2289 C2288 1.397 . S
C2289 C2290 1.334 . S
C2290 H2261 0.950 . S
C2290 C2289 1.334 . S
C2290 C2291 1.287 . S
C2291 C2290 1.287 . S
C2291 C2292 1.524 . S
C2291 H2294 0.999 . S
C2292 H2262 0.950 . S
C2292 C2291 1.524 . S
C2292 C2293 1.415 . S
C2293 H2263 0.950 . S
C2293 C2288 1.363 . S
C2293 C2292 1.415 . S
H2294 C2291 0.999 . S
H2295 C2276 0.913 . S
H2296 C2314 0.951 . S
H2297 C2316 0.951 . S
H2298 C2318 0.950 . S
H2299 C2319 0.950 . S
H2300 C2321 0.950 . S
H2301 C2324 0.950 . S
H2302 C2325 0.950 . S
H2303 C2327 0.950 . S
H2304 C2328 0.950 . S
H2305 C2329 0.951 . S
H2306 C2331 0.951 . S
H2307 C2333 0.950 . S
H2308 C2334 0.950 . S
H2309 C2336 0.950 . S
H2310 C2339 0.950 . S
H2311 C2340 0.950 . S
H2312 C2342 0.950 . S
H2313 C2343 0.950 . S
C2314 H2296 0.951 . S
C2314 C2315 1.366 . S
C2314 C2316 1.388 . S
C2315 C2314 1.366 . S
C2315 C2319 1.385 . S
C2316 H2297 0.951 . S
C2316 C2314 1.388 . S
C2316 C2317 1.366 . S
C2317 C2316 1.366 . S
C2317 C2318 1.414 . S
C2317 C2320 1.499 . S
C2318 H2298 0.950 . S
C2318 C2317 1.414 . S
C2318 C2319 1.374 . S
C2319 H2299 0.950 . S
C2319 C2315 1.385 . S
C2319 C2318 1.374 . S
C2320 C2317 1.499 . S
C2320 C2321 1.373 . S
C2320 C2322 1.389 . S
C2321 H2300 0.950 . S
C2321 C2320 1.373 . S
C2321 C2337 1.377 . S
C2322 C2320 1.389 . S
C2322 C2323 1.524 . S
C2322 C2336 1.377 . S
C2323 C2322 1.524 . S
C2323 C2324 1.397 . S
C2323 C2328 1.363 . S
C2324 H2301 0.950 . S
C2324 C2323 1.397 . S
C2324 C2325 1.334 . S
C2325 H2302 0.950 . S
C2325 C2324 1.334 . S
C2325 C2326 1.287 . S
C2326 C2325 1.287 . S
C2326 C2327 1.524 . S
C2326 H2345 0.913 . S
C2327 H2303 0.950 . S
C2327 C2326 1.524 . S
C2327 C2328 1.415 . S
C2328 H2304 0.950 . S
C2328 C2323 1.363 . S
C2328 C2327 1.415 . S
C2329 H2305 0.951 . S
C2329 C2330 1.366 . S
C2329 C2331 1.388 . S
C2330 C2329 1.366 . S
C2330 C2334 1.385 . S
C2331 H2306 0.951 . S
C2331 C2329 1.388 . S
C2331 C2332 1.366 . S
C2332 C2331 1.366 . S
C2332 C2333 1.414 . S
C2332 C2335 1.499 . S
C2333 H2307 0.950 . S
C2333 C2332 1.414 . S
C2333 C2334 1.374 . S
C2334 H2308 0.950 . S
C2334 C2330 1.385 . S
C2334 C2333 1.374 . S
C2335 C2332 1.499 . S
C2335 C2336 1.373 . S
C2335 C2337 1.389 . S
C2336 H2309 0.950 . S
C2336 C2322 1.377 . S
C2336 C2335 1.373 . S
C2337 C2321 1.377 . S
C2337 C2335 1.389 . S
C2337 C2338 1.524 . S
C2338 C2337 1.524 . S
C2338 C2339 1.397 . S
C2338 C2343 1.363 . S
C2339 H2310 0.950 . S
C2339 C2338 1.397 . S
C2339 C2340 1.334 . S
C2340 H2311 0.950 . S
C2340 C2339 1.334 . S
C2340 C2341 1.287 . S
C2341 C2340 1.287 . S
C2341 C2342 1.524 . S
C2341 H2344 0.999 . S
C2342 H2312 0.950 . S
C2342 C2341 1.524 . S
C2342 C2343 1.415 . S
C2343 H2313 0.950 . S
C2343 C2338 1.363 . S
C2343 C2342 1.415 . S
H2344 C2341 0.999 . S
H2345 C2326 0.913 . S
H2346 C2364 0.951 . S
H2347 C2366 0.951 . S
H2348 C2368 0.950 . S
H2349 C2369 0.950 . S
H2350 C2371 0.950 . S
H2351 C2374 0.950 . S
H2352 C2375 0.950 . S
H2353 C2377 0.950 . S
H2354 C2378 0.950 . S
H2355 C2379 0.951 . S
H2356 C2381 0.951 . S
H2357 C2383 0.950 . S
H2358 C2384 0.950 . S
H2359 C2386 0.950 . S
H2360 C2389 0.950 . S
H2361 C2390 0.950 . S
H2362 C2392 0.950 . S
H2363 C2393 0.950 . S
C2364 H2346 0.951 . S
C2364 C2365 1.366 . S
C2364 C2366 1.388 . S
C2365 C2364 1.366 . S
C2365 C2369 1.385 . S
C2366 H2347 0.951 . S
C2366 C2364 1.388 . S
C2366 C2367 1.366 . S
C2367 C2366 1.366 . S
C2367 C2368 1.414 . S
C2367 C2370 1.499 . S
C2368 H2348 0.950 . S
C2368 C2367 1.414 . S
C2368 C2369 1.374 . S
C2369 H2349 0.950 . S
C2369 C2365 1.385 . S
C2369 C2368 1.374 . S
C2370 C2367 1.499 . S
C2370 C2371 1.373 . S
C2370 C2372 1.389 . S
C2371 H2350 0.950 . S
C2371 C2370 1.373 . S
C2371 C2387 1.377 . S
C2372 C2370 1.389 . S
C2372 C2373 1.524 . S
C2372 C2386 1.377 . S
C2373 C2372 1.524 . S
C2373 C2374 1.397 . S
C2373 C2378 1.363 . S
C2374 H2351 0.950 . S
C2374 C2373 1.397 . S
C2374 C2375 1.334 . S
C2375 H2352 0.950 . S
C2375 C2374 1.334 . S
C2375 C2376 1.287 . S
C2376 C2375 1.287 . S
C2376 C2377 1.524 . S
C2376 H2395 0.913 . S
C2377 H2353 0.950 . S
C2377 C2376 1.524 . S
C2377 C2378 1.415 . S
C2378 H2354 0.950 . S
C2378 C2373 1.363 . S
C2378 C2377 1.415 . S
C2379 H2355 0.951 . S
C2379 C2380 1.366 . S
C2379 C2381 1.388 . S
C2380 C2379 1.366 . S
C2380 C2384 1.385 . S
C2381 H2356 0.951 . S
C2381 C2379 1.388 . S
C2381 C2382 1.366 . S
C2382 C2381 1.366 . S
C2382 C2383 1.414 . S
C2382 C2385 1.499 . S
C2383 H2357 0.950 . S
C2383 C2382 1.414 . S
C2383 C2384 1.374 . S
C2384 H2358 0.950 . S
C2384 C2380 1.385 . S
C2384 C2383 1.374 . S
C2385 C2382 1.499 . S
C2385 C2386 1.373 . S
C2385 C2387 1.389 . S
C2386 H2359 0.950 . S
C2386 C2372 1.377 . S
C2386 C2385 1.373 . S
C2387 C2371 1.377 . S
C2387 C2385 1.389 . S
C2387 C2388 1.524 . S
C2388 C2387 1.524 . S
C2388 C2389 1.397 . S
C2388 C2393 1.363 . S
C2389 H2360 0.950 . S
C2389 C2388 1.397 . S
C2389 C2390 1.334 . S
C2390 H2361 0.950 . S
C2390 C2389 1.334 . S
C2390 C2391 1.287 . S
C2391 C2390 1.287 . S
C2391 C2392 1.524 . S
C2391 H2394 0.999 . S
C2392 H2362 0.950 . S
C2392 C2391 1.524 . S
C2392 C2393 1.415 . S
C2393 H2363 0.950 . S
C2393 C2388 1.363 . S
C2393 C2392 1.415 . S
H2394 C2391 0.999 . S
H2395 C2376 0.913 . S
H2396 C2414 0.951 . S
H2397 C2416 0.951 . S
H2398 C2418 0.950 . S
H2399 C2419 0.950 . S
H2400 C2421 0.950 . S
H2401 C2424 0.950 . S
H2402 C2425 0.950 . S
H2403 C2427 0.950 . S
H2404 C2428 0.950 . S
H2405 C2429 0.951 . S
H2406 C2431 0.951 . S
H2407 C2433 0.950 . S
H2408 C2434 0.950 . S
H2409 C2436 0.950 . S
H2410 C2439 0.950 . S
H2411 C2440 0.950 . S
H2412 C2442 0.950 . S
H2413 C2443 0.950 . S
C2414 H2396 0.951 . S
C2414 C2415 1.366 . S
C2414 C2416 1.388 . S
C2415 C2414 1.366 . S
C2415 C2419 1.385 . S
C2416 H2397 0.951 . S
C2416 C2414 1.388 . S
C2416 C2417 1.366 . S
C2417 C2416 1.366 . S
C2417 C2418 1.414 . S
C2417 C2420 1.499 . S
C2418 H2398 0.950 . S
C2418 C2417 1.414 . S
C2418 C2419 1.374 . S
C2419 H2399 0.950 . S
C2419 C2415 1.385 . S
C2419 C2418 1.374 . S
C2420 C2417 1.499 . S
C2420 C2421 1.373 . S
C2420 C2422 1.389 . S
C2421 H2400 0.950 . S
C2421 C2420 1.373 . S
C2421 C2437 1.377 . S
C2422 C2420 1.389 . S
C2422 C2423 1.524 . S
C2422 C2436 1.377 . S
C2423 C2422 1.524 . S
C2423 C2424 1.397 . S
C2423 C2428 1.363 . S
C2424 H2401 0.950 . S
C2424 C2423 1.397 . S
C2424 C2425 1.334 . S
C2425 H2402 0.950 . S
C2425 C2424 1.334 . S
C2425 C2426 1.287 . S
C2426 C2425 1.287 . S
C2426 C2427 1.524 . S
C2426 H2445 0.913 . S
C2427 H2403 0.950 . S
C2427 C2426 1.524 . S
C2427 C2428 1.415 . S
C2428 H2404 0.950 . S
C2428 C2423 1.363 . S
C2428 C2427 1.415 . S
C2429 H2405 0.951 . S
C2429 C2430 1.366 . S
C2429 C2431 1.388 . S
C2430 C2429 1.366 . S
C2430 C2434 1.385 . S
C2431 H2406 0.951 . S
C2431 C2429 1.388 . S
C2431 C2432 1.366 . S
C2432 C2431 1.366 . S
C2432 C2433 1.414 . S
C2432 C2435 1.499 . S
C2433 H2407 0.950 . S
C2433 C2432 1.414 . S
C2433 C2434 1.374 . S
C2434 H2408 0.950 . S
C2434 C2430 1.385 . S
C2434 C2433 1.374 . S
C2435 C2432 1.499 . S
C2435 C2436 1.373 . S
C2435 C2437 1.389 . S
C2436 H2409 0.950 . S
C2436 C2422 1.377 . S
C2436 C2435 1.373 . S
C2437 C2421 1.377 . S
C2437 C2435 1.389 . S
C2437 C2438 1.524 . S
C2438 C2437 1.524 . S
C2438 C2439 1.397 . S
C2438 C2443 1.363 . S
C2439 H2410 0.950 . S
C2439 C2438 1.397 . S
C2439 C2440 1.334 . S
C2440 H2411 0.950 . S
C2440 C2439 1.334 . S
C2440 C2441 1.287 . S
C2441 C2440 1.287 . S
C2441 C2442 1.524 . S
C2441 H2444 0.999 . S
C2442 H2412 0.950 . S
C2442 C2441 1.524 . S
C2442 C2443 1.415 . S
C2443 H2413 0.950 . S
C2443 C2438 1.363 . S
C2443 C2442 1.415 . S
H2444 C2441 0.999 . S
H2445 C2426 0.913 . S
H2446 C2464 0.951 . S
H2447 C2466 0.951 . S
H2448 C2468 0.950 1_455 S
H2449 C2469 0.950 1_455 S
H2450 C2471 0.950 . S
H2451 C2474 0.967 . S
H2452 C2475 0.950 1_554 S
H2453 C2477 0.950 . S
H2454 C2478 0.950 . S
H2455 C2479 0.951 . S
H2456 C2481 0.951 . S
H2457 C2483 0.950 . S
H2458 C2484 0.950 . S
H2459 C2486 0.950 . S
H2460 C2489 0.950 . S
H2461 C2490 0.950 . S
H2462 C2492 0.950 . S
H2463 C2493 0.950 . S
C2464 H2446 0.951 . S
C2464 C2465 1.366 . S
C2464 C2466 1.388 . S
C2465 C2464 1.366 . S
C2465 C2469 1.385 . S
C2466 H2447 0.951 . S
C2466 C2464 1.388 . S
C2466 C2467 1.366 . S
C2467 C2466 1.366 . S
C2467 C2468 1.414 . S
C2467 C2470 1.499 . S
C2468 H2448 0.950 1_655 S
C2468 C2467 1.414 . S
C2468 C2469 1.374 . S
C2469 H2449 0.950 1_655 S
C2469 C2465 1.385 . S
C2469 C2468 1.374 . S
C2470 C2467 1.499 . S
C2470 C2471 1.373 . S
C2470 C2472 1.389 . S
C2471 H2450 0.950 . S
C2471 C2470 1.373 . S
C2471 C2487 1.377 . S
C2472 C2470 1.389 . S
C2472 C2473 1.524 . S
C2472 C2486 1.377 . S
C2473 C2472 1.524 . S
C2473 C2474 1.397 . S
C2473 C2478 1.363 . S
C2474 H2451 0.967 . S
C2474 C2473 1.397 . S
C2474 C2475 1.334 . S
C2475 H2452 0.950 1_556 S
C2475 C2474 1.334 . S
C2475 C2476 1.268 1_556 S
C2476 C2475 1.268 1_554 S
C2476 C2477 1.479 1_554 S
C2476 H2495 0.989 . S
C2477 H2453 0.950 . S
C2477 C2476 1.479 1_556 S
C2477 C2478 1.415 . S
C2478 H2454 0.950 . S
C2478 C2473 1.363 . S
C2478 C2477 1.415 . S
C2479 H2455 0.951 . S
C2479 C2480 1.366 1_455 S
C2479 C2481 1.388 . S
C2480 C2479 1.366 1_655 S
C2480 C2484 1.385 . S
C2481 H2456 0.951 . S
C2481 C2479 1.388 . S
C2481 C2482 1.366 1_455 S
C2482 C2481 1.366 1_655 S
C2482 C2483 1.414 . S
C2482 C2485 1.499 . S
C2483 H2457 0.950 . S
C2483 C2482 1.414 . S
C2483 C2484 1.374 . S
C2484 H2458 0.950 . S
C2484 C2480 1.385 . S
C2484 C2483 1.374 . S
C2485 C2482 1.499 . S
C2485 C2486 1.373 . S
C2485 C2487 1.389 . S
C2486 H2459 0.950 . S
C2486 C2472 1.377 . S
C2486 C2485 1.373 . S
C2487 C2471 1.377 . S
C2487 C2485 1.389 . S
C2487 C2488 1.524 . S
C2488 C2487 1.524 . S
C2488 C2489 1.397 . S
C2488 C2493 1.363 1_655 S
C2489 H2460 0.950 . S
C2489 C2488 1.397 . S
C2489 C2490 1.334 . S
C2490 H2461 0.950 . S
C2490 C2489 1.334 . S
C2490 C2491 1.284 . S
C2491 C2490 1.284 . S
C2491 C2492 1.526 1_655 S
C2491 H2494 1.000 1_655 S
C2492 H2462 0.950 . S
C2492 C2491 1.526 1_455 S
C2492 C2493 1.415 . S
C2493 H2463 0.950 . S
C2493 C2488 1.363 1_455 S
C2493 C2492 1.415 . S
H2494 C2491 1.000 1_455 S
H2495 C2476 0.989 . S
H2496 C2514 0.951 . S
H2497 C2516 0.951 . S
H2498 C2518 0.950 . S
H2499 C2519 0.950 . S
H2500 C2521 0.950 . S
H2501 C2524 0.950 . S
H2502 C2525 0.950 . S
H2503 C2527 0.950 . S
H2504 C2528 0.950 . S
H2505 C2529 0.951 . S
H2506 C2531 0.951 . S
H2507 C2533 0.950 . S
H2508 C2534 0.950 . S
H2509 C2536 0.950 . S
H2510 C2539 0.950 . S
H2511 C2540 0.950 . S
H2512 C2542 0.950 . S
H2513 C2543 0.950 . S
C2514 H2496 0.951 . S
C2514 C2515 1.366 . S
C2514 C2516 1.388 . S
C2515 C2514 1.366 . S
C2515 C2519 1.385 . S
C2516 H2497 0.951 . S
C2516 C2514 1.388 . S
C2516 C2517 1.366 . S
C2517 C2516 1.366 . S
C2517 C2518 1.414 . S
C2517 C2520 1.499 . S
C2518 H2498 0.950 . S
C2518 C2517 1.414 . S
C2518 C2519 1.374 . S
C2519 H2499 0.950 . S
C2519 C2515 1.385 . S
C2519 C2518 1.374 . S
C2520 C2517 1.499 . S
C2520 C2521 1.373 . S
C2520 C2522 1.389 . S
C2521 H2500 0.950 . S
C2521 C2520 1.373 . S
C2521 C2537 1.377 . S
C2522 C2520 1.389 . S
C2522 C2523 1.524 . S
C2522 C2536 1.377 . S
C2523 C2522 1.524 . S
C2523 C2524 1.397 . S
C2523 C2528 1.363 . S
C2524 H2501 0.950 . S
C2524 C2523 1.397 . S
C2524 C2525 1.334 . S
C2525 H2502 0.950 . S
C2525 C2524 1.334 . S
C2525 C2526 1.287 . S
C2526 C2525 1.287 . S
C2526 C2527 1.524 . S
C2526 H2545 0.913 . S
C2527 H2503 0.950 . S
C2527 C2526 1.524 . S
C2527 C2528 1.415 . S
C2528 H2504 0.950 . S
C2528 C2523 1.363 . S
C2528 C2527 1.415 . S
C2529 H2505 0.951 . S
C2529 C2530 1.366 . S
C2529 C2531 1.388 . S
C2530 C2529 1.366 . S
C2530 C2534 1.385 . S
C2531 H2506 0.951 . S
C2531 C2529 1.388 . S
C2531 C2532 1.366 . S
C2532 C2531 1.366 . S
C2532 C2533 1.414 . S
C2532 C2535 1.499 . S
C2533 H2507 0.950 . S
C2533 C2532 1.414 . S
C2533 C2534 1.374 . S
C2534 H2508 0.950 . S
C2534 C2530 1.385 . S
C2534 C2533 1.374 . S
C2535 C2532 1.499 . S
C2535 C2536 1.373 . S
C2535 C2537 1.389 . S
C2536 H2509 0.950 . S
C2536 C2522 1.377 . S
C2536 C2535 1.373 . S
C2537 C2521 1.377 . S
C2537 C2535 1.389 . S
C2537 C2538 1.524 . S
C2538 C2537 1.524 . S
C2538 C2539 1.397 . S
C2538 C2543 1.363 . S
C2539 H2510 0.950 . S
C2539 C2538 1.397 . S
C2539 C2540 1.334 . S
C2540 H2511 0.950 . S
C2540 C2539 1.334 . S
C2540 C2541 1.287 . S
C2541 C2540 1.287 . S
C2541 C2542 1.524 . S
C2541 H2544 0.999 . S
C2542 H2512 0.950 . S
C2542 C2541 1.524 . S
C2542 C2543 1.415 . S
C2543 H2513 0.950 . S
C2543 C2538 1.363 . S
C2543 C2542 1.415 . S
H2544 C2541 0.999 . S
H2545 C2526 0.913 . S
H2546 C2564 0.951 . S
H2547 C2566 0.951 . S
H2548 C2568 0.950 . S
H2549 C2569 0.950 . S
H2550 C2571 0.950 . S
H2551 C2574 0.934 1_455 S
H2552 C2575 0.950 . S
H2553 C2577 0.950 . S
H2554 C2578 0.950 . S
H2555 C2579 0.951 . S
H2556 C2581 0.951 . S
H2557 C2583 0.964 . S
H2558 C2584 0.950 . S
H2559 C2586 0.950 1_655 S
H2560 C2589 0.950 . S
H2561 C2590 0.950 . S
H2562 C2592 0.950 . S
H2563 C2593 0.950 . S
C2564 H2546 0.951 . S
C2564 C2565 1.366 . S
C2564 C2566 1.388 . S
C2565 C2564 1.366 . S
C2565 C2569 1.385 . S
C2566 H2547 0.951 . S
C2566 C2564 1.388 . S
C2566 C2567 1.366 . S
C2567 C2566 1.366 . S
C2567 C2568 1.414 . S
C2567 C2570 1.499 . S
C2568 H2548 0.950 . S
C2568 C2567 1.414 . S
C2568 C2569 1.374 . S
C2569 H2549 0.950 . S
C2569 C2565 1.385 . S
C2569 C2568 1.374 . S
C2570 C2567 1.499 . S
C2570 C2571 1.373 . S
C2570 C2572 1.389 . S
C2571 H2550 0.950 . S
C2571 C2570 1.373 . S
C2571 C2587 1.377 . S
C2572 C2570 1.389 . S
C2572 C2573 1.524 1_455 S
C2572 C2586 1.377 . S
C2573 C2572 1.524 1_655 S
C2573 C2574 1.402 . S
C2573 C2578 1.363 . S
C2574 H2551 0.934 1_655 S
C2574 C2573 1.402 . S
C2574 C2575 1.344 . S
C2575 H2552 0.950 . S
C2575 C2574 1.344 . S
C2575 C2576 1.287 . S
C2576 C2575 1.287 . S
C2576 C2577 1.524 . S
C2576 H2595 0.913 . S
C2577 H2553 0.950 . S
C2577 C2576 1.524 . S
C2577 C2578 1.415 . S
C2578 H2554 0.950 . S
C2578 C2573 1.363 . S
C2578 C2577 1.415 . S
C2579 H2555 0.951 . S
C2579 C2580 1.366 . S
C2579 C2581 1.388 . S
C2580 C2579 1.366 . S
C2580 C2584 1.385 1_455 S
C2581 H2556 0.951 . S
C2581 C2579 1.388 . S
C2581 C2582 1.366 . S
C2582 C2581 1.366 . S
C2582 C2583 1.397 1_455 S
C2582 C2585 1.499 . S
C2583 H2557 0.964 . S
C2583 C2582 1.397 1_655 S
C2583 C2584 1.377 . S
C2584 H2558 0.950 . S
C2584 C2580 1.385 1_655 S
C2584 C2583 1.377 . S
C2585 C2582 1.499 . S
C2585 C2586 1.373 . S
C2585 C2587 1.389 . S
C2586 H2559 0.950 1_455 S
C2586 C2572 1.377 . S
C2586 C2585 1.373 . S
C2587 C2571 1.377 . S
C2587 C2585 1.389 . S
C2587 C2588 1.524 . S
C2588 C2587 1.524 . S
C2588 C2589 1.397 . S
C2588 C2593 1.363 . S
C2589 H2560 0.950 . S
C2589 C2588 1.397 . S
C2589 C2590 1.334 . S
C2590 H2561 0.950 . S
C2590 C2589 1.334 . S
C2590 C2591 1.287 . S
C2591 C2590 1.287 . S
C2591 C2592 1.524 . S
C2591 H2594 0.999 . S
C2592 H2562 0.950 . S
C2592 C2591 1.524 . S
C2592 C2593 1.415 . S
C2593 H2563 0.950 . S
C2593 C2588 1.363 . S
C2593 C2592 1.415 . S
H2594 C2591 0.999 . S
H2595 C2576 0.913 . S
H2596 C2614 0.951 . S
H2597 C2616 0.951 . S
H2598 C2618 0.950 . S
H2599 C2619 0.950 . S
H2600 C2621 0.950 . S
H2601 C2624 0.950 . S
H2602 C2625 0.950 . S
H2603 C2627 0.950 . S
H2604 C2628 0.950 . S
H2605 C2629 0.951 . S
H2606 C2631 0.951 . S
H2607 C2633 0.950 . S
H2608 C2634 0.950 . S
H2609 C2636 0.950 . S
H2610 C2639 0.950 . S
H2611 C2640 0.950 . S
H2612 C2642 0.950 . S
H2613 C2643 0.950 . S
C2614 H2596 0.951 . S
C2614 C2615 1.366 . S
C2614 C2616 1.388 . S
C2615 C2614 1.366 . S
C2615 C2619 1.385 . S
C2616 H2597 0.951 . S
C2616 C2614 1.388 . S
C2616 C2617 1.366 . S
C2617 C2616 1.366 . S
C2617 C2618 1.414 . S
C2617 C2620 1.499 . S
C2618 H2598 0.950 . S
C2618 C2617 1.414 . S
C2618 C2619 1.374 . S
C2619 H2599 0.950 . S
C2619 C2615 1.385 . S
C2619 C2618 1.374 . S
C2620 C2617 1.499 . S
C2620 C2621 1.373 . S
C2620 C2622 1.389 . S
C2621 H2600 0.950 . S
C2621 C2620 1.373 . S
C2621 C2637 1.377 . S
C2622 C2620 1.389 . S
C2622 C2623 1.524 . S
C2622 C2636 1.377 . S
C2623 C2622 1.524 . S
C2623 C2624 1.397 . S
C2623 C2628 1.363 . S
C2624 H2601 0.950 . S
C2624 C2623 1.397 . S
C2624 C2625 1.334 . S
C2625 H2602 0.950 . S
C2625 C2624 1.334 . S
C2625 C2626 1.287 . S
C2626 C2625 1.287 . S
C2626 C2627 1.524 . S
C2626 H2645 0.913 . S
C2627 H2603 0.950 . S
C2627 C2626 1.524 . S
C2627 C2628 1.415 . S
C2628 H2604 0.950 . S
C2628 C2623 1.363 . S
C2628 C2627 1.415 . S
C2629 H2605 0.951 . S
C2629 C2630 1.366 . S
C2629 C2631 1.388 . S
C2630 C2629 1.366 . S
C2630 C2634 1.385 . S
C2631 H2606 0.951 . S
C2631 C2629 1.388 . S
C2631 C2632 1.366 . S
C2632 C2631 1.366 . S
C2632 C2633 1.414 . S
C2632 C2635 1.499 . S
C2633 H2607 0.950 . S
C2633 C2632 1.414 . S
C2633 C2634 1.374 . S
C2634 H2608 0.950 . S
C2634 C2630 1.385 . S
C2634 C2633 1.374 . S
C2635 C2632 1.499 . S
C2635 C2636 1.373 . S
C2635 C2637 1.389 . S
C2636 H2609 0.950 . S
C2636 C2622 1.377 . S
C2636 C2635 1.373 . S
C2637 C2621 1.377 . S
C2637 C2635 1.389 . S
C2637 C2638 1.524 . S
C2638 C2637 1.524 . S
C2638 C2639 1.397 . S
C2638 C2643 1.363 . S
C2639 H2610 0.950 . S
C2639 C2638 1.397 . S
C2639 C2640 1.334 . S
C2640 H2611 0.950 . S
C2640 C2639 1.334 . S
C2640 C2641 1.287 . S
C2641 C2640 1.287 . S
C2641 C2642 1.524 . S
C2641 H2644 0.999 . S
C2642 H2612 0.950 . S
C2642 C2641 1.524 . S
C2642 C2643 1.415 . S
C2643 H2613 0.950 . S
C2643 C2638 1.363 . S
C2643 C2642 1.415 . S
H2644 C2641 0.999 . S
H2645 C2626 0.913 . S
H2646 C2664 0.951 . S
H2647 C2666 0.951 . S
H2648 C2668 0.950 . S
H2649 C2669 0.950 . S
H2650 C2671 0.950 . S
H2651 C2674 0.950 . S
H2652 C2675 0.950 1_556 S
H2653 C2677 0.950 . S
H2654 C2678 0.950 . S
H2655 C2679 0.951 . S
H2656 C2681 0.951 . S
H2657 C2683 0.950 . S
H2658 C2684 0.950 . S
H2659 C2686 0.950 . S
H2660 C2689 0.950 . S
H2661 C2690 0.950 . S
H2662 C2692 0.950 . S
H2663 C2693 0.950 . S
C2664 H2646 0.951 . S
C2664 C2665 1.366 . S
C2664 C2666 1.388 . S
C2665 C2664 1.366 . S
C2665 C2669 1.385 . S
C2666 H2647 0.951 . S
C2666 C2664 1.388 . S
C2666 C2667 1.366 . S
C2667 C2666 1.366 . S
C2667 C2668 1.414 . S
C2667 C2670 1.499 . S
C2668 H2648 0.950 . S
C2668 C2667 1.414 . S
C2668 C2669 1.374 . S
C2669 H2649 0.950 . S
C2669 C2665 1.385 . S
C2669 C2668 1.374 . S
C2670 C2667 1.499 . S
C2670 C2671 1.373 . S
C2670 C2672 1.389 . S
C2671 H2650 0.950 . S
C2671 C2670 1.373 . S
C2671 C2687 1.377 . S
C2672 C2670 1.389 . S
C2672 C2673 1.524 . S
C2672 C2686 1.377 . S
C2673 C2672 1.524 . S
C2673 C2674 1.397 . S
C2673 C2678 1.363 . S
C2674 H2651 0.950 . S
C2674 C2673 1.397 . S
C2674 C2675 1.334 . S
C2675 H2652 0.950 1_554 S
C2675 C2674 1.334 . S
C2675 C2676 1.287 1_554 S
C2676 C2675 1.287 1_556 S
C2676 C2677 1.524 1_556 S
C2676 H2695 0.913 . S
C2677 H2653 0.950 . S
C2677 C2676 1.524 1_554 S
C2677 C2678 1.415 . S
C2678 H2654 0.950 . S
C2678 C2673 1.363 . S
C2678 C2677 1.415 . S
C2679 H2655 0.951 . S
C2679 C2680 1.366 . S
C2679 C2681 1.388 . S
C2680 C2679 1.366 . S
C2680 C2684 1.385 . S
C2681 H2656 0.951 . S
C2681 C2679 1.388 . S
C2681 C2682 1.366 . S
C2682 C2681 1.366 . S
C2682 C2683 1.414 . S
C2682 C2685 1.499 . S
C2683 H2657 0.950 . S
C2683 C2682 1.414 . S
C2683 C2684 1.374 . S
C2684 H2658 0.950 . S
C2684 C2680 1.385 . S
C2684 C2683 1.374 . S
C2685 C2682 1.499 . S
C2685 C2686 1.373 . S
C2685 C2687 1.389 . S
C2686 H2659 0.950 . S
C2686 C2672 1.377 . S
C2686 C2685 1.373 . S
C2687 C2671 1.377 . S
C2687 C2685 1.389 . S
C2687 C2688 1.524 . S
C2688 C2687 1.524 . S
C2688 C2689 1.397 . S
C2688 C2693 1.363 . S
C2689 H2660 0.950 . S
C2689 C2688 1.397 . S
C2689 C2690 1.334 . S
C2690 H2661 0.950 . S
C2690 C2689 1.334 . S
C2690 C2691 1.287 . S
C2691 C2690 1.287 . S
C2691 C2692 1.524 . S
C2691 H2694 0.999 . S
C2692 H2662 0.950 . S
C2692 C2691 1.524 . S
C2692 C2693 1.415 . S
C2693 H2663 0.950 . S
C2693 C2688 1.363 . S
C2693 C2692 1.415 . S
H2694 C2691 0.999 . S
H2695 C2676 0.913 . S
H2696 C2714 0.951 . S
H2697 C2716 0.951 . S
H2698 C2718 0.950 . S
H2699 C2719 0.950 . S
H2700 C2721 0.950 . S
H2701 C2724 0.950 . S
H2702 C2725 0.950 . S
H2703 C2727 0.950 . S
H2704 C2728 0.950 . S
H2705 C2729 0.951 . S
H2706 C2731 0.951 . S
H2707 C2733 0.950 . S
H2708 C2734 0.950 . S
H2709 C2736 0.950 . S
H2710 C2739 0.950 . S
H2711 C2740 0.950 . S
H2712 C2742 0.950 . S
H2713 C2743 0.950 . S
C2714 H2696 0.951 . S
C2714 C2715 1.366 . S
C2714 C2716 1.388 . S
C2715 C2714 1.366 . S
C2715 C2719 1.385 . S
C2716 H2697 0.951 . S
C2716 C2714 1.388 . S
C2716 C2717 1.366 . S
C2717 C2716 1.366 . S
C2717 C2718 1.414 . S
C2717 C2720 1.499 . S
C2718 H2698 0.950 . S
C2718 C2717 1.414 . S
C2718 C2719 1.374 . S
C2719 H2699 0.950 . S
C2719 C2715 1.385 . S
C2719 C2718 1.374 . S
C2720 C2717 1.499 . S
C2720 C2721 1.373 . S
C2720 C2722 1.389 . S
C2721 H2700 0.950 . S
C2721 C2720 1.373 . S
C2721 C2737 1.377 . S
C2722 C2720 1.389 . S
C2722 C2723 1.524 . S
C2722 C2736 1.377 . S
C2723 C2722 1.524 . S
C2723 C2724 1.397 . S
C2723 C2728 1.363 . S
C2724 H2701 0.950 . S
C2724 C2723 1.397 . S
C2724 C2725 1.334 . S
C2725 H2702 0.950 . S
C2725 C2724 1.334 . S
C2725 C2726 1.287 . S
C2726 C2725 1.287 . S
C2726 C2727 1.524 . S
C2726 H2745 0.913 . S
C2727 H2703 0.950 . S
C2727 C2726 1.524 . S
C2727 C2728 1.415 . S
C2728 H2704 0.950 . S
C2728 C2723 1.363 . S
C2728 C2727 1.415 . S
C2729 H2705 0.951 . S
C2729 C2730 1.366 . S
C2729 C2731 1.388 . S
C2730 C2729 1.366 . S
C2730 C2734 1.385 . S
C2731 H2706 0.951 . S
C2731 C2729 1.388 . S
C2731 C2732 1.366 . S
C2732 C2731 1.366 . S
C2732 C2733 1.414 . S
C2732 C2735 1.499 . S
C2733 H2707 0.950 . S
C2733 C2732 1.414 . S
C2733 C2734 1.374 . S
C2734 H2708 0.950 . S
C2734 C2730 1.385 . S
C2734 C2733 1.374 . S
C2735 C2732 1.499 . S
C2735 C2736 1.373 . S
C2735 C2737 1.389 . S
C2736 H2709 0.950 . S
C2736 C2722 1.377 . S
C2736 C2735 1.373 . S
C2737 C2721 1.377 . S
C2737 C2735 1.389 . S
C2737 C2738 1.524 . S
C2738 C2737 1.524 . S
C2738 C2739 1.397 . S
C2738 C2743 1.363 . S
C2739 H2710 0.950 . S
C2739 C2738 1.397 . S
C2739 C2740 1.334 . S
C2740 H2711 0.950 . S
C2740 C2739 1.334 . S
C2740 C2741 1.287 . S
C2741 C2740 1.287 . S
C2741 C2742 1.524 . S
C2741 H2744 0.999 . S
C2742 H2712 0.950 . S
C2742 C2741 1.524 . S
C2742 C2743 1.415 . S
C2743 H2713 0.950 . S
C2743 C2738 1.363 . S
C2743 C2742 1.415 . S
H2744 C2741 0.999 . S
H2745 C2726 0.913 . S
H2746 C2764 0.951 . S
H2747 C2766 0.951 . S
H2748 C2768 0.950 . S
H2749 C2769 0.950 . S
H2750 C2771 0.950 . S
H2751 C2774 0.950 . S
H2752 C2775 0.950 . S
H2753 C2777 0.950 . S
H2754 C2778 0.950 . S
H2755 C2779 0.951 . S
H2756 C2781 0.951 . S
H2757 C2783 0.950 . S
H2758 C2784 0.950 . S
H2759 C2786 0.950 . S
H2760 C2789 0.950 . S
H2761 C2790 0.950 . S
H2762 C2792 0.950 . S
H2763 C2793 0.950 . S
C2764 H2746 0.951 . S
C2764 C2765 1.366 . S
C2764 C2766 1.388 . S
C2765 C2764 1.366 . S
C2765 C2769 1.385 . S
C2766 H2747 0.951 . S
C2766 C2764 1.388 . S
C2766 C2767 1.366 . S
C2767 C2766 1.366 . S
C2767 C2768 1.414 . S
C2767 C2770 1.499 . S
C2768 H2748 0.950 . S
C2768 C2767 1.414 . S
C2768 C2769 1.374 . S
C2769 H2749 0.950 . S
C2769 C2765 1.385 . S
C2769 C2768 1.374 . S
C2770 C2767 1.499 . S
C2770 C2771 1.373 . S
C2770 C2772 1.389 . S
C2771 H2750 0.950 . S
C2771 C2770 1.373 . S
C2771 C2787 1.377 . S
C2772 C2770 1.389 . S
C2772 C2773 1.524 . S
C2772 C2786 1.377 . S
C2773 C2772 1.524 . S
C2773 C2774 1.397 . S
C2773 C2778 1.363 . S
C2774 H2751 0.950 . S
C2774 C2773 1.397 . S
C2774 C2775 1.334 . S
C2775 H2752 0.950 . S
C2775 C2774 1.334 . S
C2775 C2776 1.287 . S
C2776 C2775 1.287 . S
C2776 C2777 1.524 . S
C2776 H2795 0.913 . S
C2777 H2753 0.950 . S
C2777 C2776 1.524 . S
C2777 C2778 1.415 . S
C2778 H2754 0.950 . S
C2778 C2773 1.363 . S
C2778 C2777 1.415 . S
C2779 H2755 0.951 . S
C2779 C2780 1.366 . S
C2779 C2781 1.388 . S
C2780 C2779 1.366 . S
C2780 C2784 1.385 . S
C2781 H2756 0.951 . S
C2781 C2779 1.388 . S
C2781 C2782 1.366 . S
C2782 C2781 1.366 . S
C2782 C2783 1.414 . S
C2782 C2785 1.499 . S
C2783 H2757 0.950 . S
C2783 C2782 1.414 . S
C2783 C2784 1.374 . S
C2784 H2758 0.950 . S
C2784 C2780 1.385 . S
C2784 C2783 1.374 . S
C2785 C2782 1.499 . S
C2785 C2786 1.373 . S
C2785 C2787 1.389 . S
C2786 H2759 0.950 . S
C2786 C2772 1.377 . S
C2786 C2785 1.373 . S
C2787 C2771 1.377 . S
C2787 C2785 1.389 . S
C2787 C2788 1.524 . S
C2788 C2787 1.524 . S
C2788 C2789 1.397 . S
C2788 C2793 1.363 . S
C2789 H2760 0.950 . S
C2789 C2788 1.397 . S
C2789 C2790 1.334 . S
C2790 H2761 0.950 . S
C2790 C2789 1.334 . S
C2790 C2791 1.287 . S
C2791 C2790 1.287 . S
C2791 C2792 1.524 . S
C2791 H2794 0.999 . S
C2792 H2762 0.950 . S
C2792 C2791 1.524 . S
C2792 C2793 1.415 . S
C2793 H2763 0.950 . S
C2793 C2788 1.363 . S
C2793 C2792 1.415 . S
H2794 C2791 0.999 . S
H2795 C2776 0.913 . S
H2796 C2814 0.951 . S
H2797 C2816 0.951 . S
H2798 C2818 0.950 . S
H2799 C2819 0.950 . S
H2800 C2821 0.950 . S
H2801 C2824 0.950 . S
H2802 C2825 0.950 . S
H2803 C2827 0.950 . S
H2804 C2828 0.950 . S
H2805 C2829 0.951 . S
H2806 C2831 0.951 . S
H2807 C2833 0.950 . S
H2808 C2834 0.950 . S
H2809 C2836 0.950 . S
H2810 C2839 0.950 . S
H2811 C2840 0.950 . S
H2812 C2842 0.950 . S
H2813 C2843 0.950 . S
C2814 H2796 0.951 . S
C2814 C2815 1.366 . S
C2814 C2816 1.388 . S
C2815 C2814 1.366 . S
C2815 C2819 1.385 . S
C2816 H2797 0.951 . S
C2816 C2814 1.388 . S
C2816 C2817 1.366 . S
C2817 C2816 1.366 . S
C2817 C2818 1.414 . S
C2817 C2820 1.499 . S
C2818 H2798 0.950 . S
C2818 C2817 1.414 . S
C2818 C2819 1.374 . S
C2819 H2799 0.950 . S
C2819 C2815 1.385 . S
C2819 C2818 1.374 . S
C2820 C2817 1.499 . S
C2820 C2821 1.373 . S
C2820 C2822 1.389 . S
C2821 H2800 0.950 . S
C2821 C2820 1.373 . S
C2821 C2837 1.377 . S
C2822 C2820 1.389 . S
C2822 C2823 1.524 . S
C2822 C2836 1.377 . S
C2823 C2822 1.524 . S
C2823 C2824 1.397 . S
C2823 C2828 1.363 . S
C2824 H2801 0.950 . S
C2824 C2823 1.397 . S
C2824 C2825 1.334 . S
C2825 H2802 0.950 . S
C2825 C2824 1.334 . S
C2825 C2826 1.287 . S
C2826 C2825 1.287 . S
C2826 C2827 1.524 . S
C2826 H2845 0.913 . S
C2827 H2803 0.950 . S
C2827 C2826 1.524 . S
C2827 C2828 1.415 . S
C2828 H2804 0.950 . S
C2828 C2823 1.363 . S
C2828 C2827 1.415 . S
C2829 H2805 0.951 . S
C2829 C2830 1.366 . S
C2829 C2831 1.388 . S
C2830 C2829 1.366 . S
C2830 C2834 1.385 . S
C2831 H2806 0.951 . S
C2831 C2829 1.388 . S
C2831 C2832 1.366 . S
C2832 C2831 1.366 . S
C2832 C2833 1.414 . S
C2832 C2835 1.499 . S
C2833 H2807 0.950 . S
C2833 C2832 1.414 . S
C2833 C2834 1.374 . S
C2834 H2808 0.950 . S
C2834 C2830 1.385 . S
C2834 C2833 1.374 . S
C2835 C2832 1.499 . S
C2835 C2836 1.373 . S
C2835 C2837 1.389 . S
C2836 H2809 0.950 . S
C2836 C2822 1.377 . S
C2836 C2835 1.373 . S
C2837 C2821 1.377 . S
C2837 C2835 1.389 . S
C2837 C2838 1.524 . S
C2838 C2837 1.524 . S
C2838 C2839 1.397 . S
C2838 C2843 1.363 . S
C2839 H2810 0.950 . S
C2839 C2838 1.397 . S
C2839 C2840 1.334 . S
C2840 H2811 0.950 . S
C2840 C2839 1.334 . S
C2840 C2841 1.287 . S
C2841 C2840 1.287 . S
C2841 C2842 1.524 . S
C2841 H2844 0.999 . S
C2842 H2812 0.950 . S
C2842 C2841 1.524 . S
C2842 C2843 1.415 . S
C2843 H2813 0.950 . S
C2843 C2838 1.363 . S
C2843 C2842 1.415 . S
H2844 C2841 0.999 . S
H2845 C2826 0.913 . S
H2846 C2864 0.951 . S
H2847 C2866 0.951 . S
H2848 C2868 0.950 . S
H2849 C2869 0.950 . S
H2850 C2871 0.950 . S
H2851 C2874 0.950 . S
H2852 C2875 0.950 . S
H2853 C2877 0.950 . S
H2854 C2878 0.950 . S
H2855 C2879 0.951 . S
H2856 C2881 0.951 . S
H2857 C2883 0.950 . S
H2858 C2884 0.950 . S
H2859 C2886 0.950 . S
H2860 C2889 0.950 . S
H2861 C2890 0.950 . S
H2862 C2892 0.950 . S
H2863 C2893 0.950 . S
C2864 H2846 0.951 . S
C2864 C2865 1.366 . S
C2864 C2866 1.388 . S
C2865 C2864 1.366 . S
C2865 C2869 1.385 . S
C2866 H2847 0.951 . S
C2866 C2864 1.388 . S
C2866 C2867 1.366 . S
C2867 C2866 1.366 . S
C2867 C2868 1.414 . S
C2867 C2870 1.499 . S
C2868 H2848 0.950 . S
C2868 C2867 1.414 . S
C2868 C2869 1.374 . S
C2869 H2849 0.950 . S
C2869 C2865 1.385 . S
C2869 C2868 1.374 . S
C2870 C2867 1.499 . S
C2870 C2871 1.373 . S
C2870 C2872 1.389 . S
C2871 H2850 0.950 . S
C2871 C2870 1.373 . S
C2871 C2887 1.377 . S
C2872 C2870 1.389 . S
C2872 C2873 1.524 . S
C2872 C2886 1.377 . S
C2873 C2872 1.524 . S
C2873 C2874 1.397 . S
C2873 C2878 1.363 . S
C2874 H2851 0.950 . S
C2874 C2873 1.397 . S
C2874 C2875 1.334 . S
C2875 H2852 0.950 . S
C2875 C2874 1.334 . S
C2875 C2876 1.287 . S
C2876 C2875 1.287 . S
C2876 C2877 1.524 . S
C2876 H2895 0.913 . S
C2877 H2853 0.950 . S
C2877 C2876 1.524 . S
C2877 C2878 1.415 . S
C2878 H2854 0.950 . S
C2878 C2873 1.363 . S
C2878 C2877 1.415 . S
C2879 H2855 0.951 . S
C2879 C2880 1.366 . S
C2879 C2881 1.388 . S
C2880 C2879 1.366 . S
C2880 C2884 1.385 . S
C2881 H2856 0.951 . S
C2881 C2879 1.388 . S
C2881 C2882 1.366 . S
C2882 C2881 1.366 . S
C2882 C2883 1.414 . S
C2882 C2885 1.499 . S
C2883 H2857 0.950 . S
C2883 C2882 1.414 . S
C2883 C2884 1.374 . S
C2884 H2858 0.950 . S
C2884 C2880 1.385 . S
C2884 C2883 1.374 . S
C2885 C2882 1.499 . S
C2885 C2886 1.373 . S
C2885 C2887 1.389 . S
C2886 H2859 0.950 . S
C2886 C2872 1.377 . S
C2886 C2885 1.373 . S
C2887 C2871 1.377 . S
C2887 C2885 1.389 . S
C2887 C2888 1.524 . S
C2888 C2887 1.524 . S
C2888 C2889 1.397 . S
C2888 C2893 1.363 . S
C2889 H2860 0.950 . S
C2889 C2888 1.397 . S
C2889 C2890 1.334 . S
C2890 H2861 0.950 . S
C2890 C2889 1.334 . S
C2890 C2891 1.287 . S
C2891 C2890 1.287 . S
C2891 C2892 1.524 . S
C2891 H2894 0.999 . S
C2892 H2862 0.950 . S
C2892 C2891 1.524 . S
C2892 C2893 1.415 . S
C2893 H2863 0.950 . S
C2893 C2888 1.363 . S
C2893 C2892 1.415 . S
H2894 C2891 0.999 . S
H2895 C2876 0.913 . S
H2896 C2914 0.951 . S
H2897 C2916 0.951 . S
H2898 C2918 0.950 . S
H2899 C2919 0.950 . S
H2900 C2921 0.950 . S
H2901 C2924 0.950 . S
H2902 C2925 0.950 . S
H2903 C2927 0.950 . S
H2904 C2928 0.950 . S
H2905 C2929 0.951 . S
H2906 C2931 0.951 . S
H2907 C2933 0.950 . S
H2908 C2934 0.950 . S
H2909 C2936 0.950 . S
H2910 C2939 0.950 . S
H2911 C2940 0.950 . S
H2912 C2942 0.950 . S
H2913 C2943 0.950 . S
C2914 H2896 0.951 . S
C2914 C2915 1.366 . S
C2914 C2916 1.388 . S
C2915 C2914 1.366 . S
C2915 C2919 1.385 . S
C2916 H2897 0.951 . S
C2916 C2914 1.388 . S
C2916 C2917 1.366 . S
C2917 C2916 1.366 . S
C2917 C2918 1.414 . S
C2917 C2920 1.499 . S
C2918 H2898 0.950 . S
C2918 C2917 1.414 . S
C2918 C2919 1.374 . S
C2919 H2899 0.950 . S
C2919 C2915 1.385 . S
C2919 C2918 1.374 . S
C2920 C2917 1.499 . S
C2920 C2921 1.373 . S
C2920 C2922 1.389 . S
C2921 H2900 0.950 . S
C2921 C2920 1.373 . S
C2921 C2937 1.377 . S
C2922 C2920 1.389 . S
C2922 C2923 1.524 . S
C2922 C2936 1.377 . S
C2923 C2922 1.524 . S
C2923 C2924 1.397 . S
C2923 C2928 1.363 . S
C2924 H2901 0.950 . S
C2924 C2923 1.397 . S
C2924 C2925 1.334 . S
C2925 H2902 0.950 . S
C2925 C2924 1.334 . S
C2925 C2926 1.287 . S
C2926 C2925 1.287 . S
C2926 C2927 1.524 . S
C2926 H2945 0.913 . S
C2927 H2903 0.950 . S
C2927 C2926 1.524 . S
C2927 C2928 1.415 . S
C2928 H2904 0.950 . S
C2928 C2923 1.363 . S
C2928 C2927 1.415 . S
C2929 H2905 0.951 . S
C2929 C2930 1.366 . S
C2929 C2931 1.388 . S
C2930 C2929 1.366 . S
C2930 C2934 1.385 . S
C2931 H2906 0.951 . S
C2931 C2929 1.388 . S
C2931 C2932 1.366 . S
C2932 C2931 1.366 . S
C2932 C2933 1.414 . S
C2932 C2935 1.499 . S
C2933 H2907 0.950 . S
C2933 C2932 1.414 . S
C2933 C2934 1.374 . S
C2934 H2908 0.950 . S
C2934 C2930 1.385 . S
C2934 C2933 1.374 . S
C2935 C2932 1.499 . S
C2935 C2936 1.373 . S
C2935 C2937 1.389 . S
C2936 H2909 0.950 . S
C2936 C2922 1.377 . S
C2936 C2935 1.373 . S
C2937 C2921 1.377 . S
C2937 C2935 1.389 . S
C2937 C2938 1.524 . S
C2938 C2937 1.524 . S
C2938 C2939 1.397 . S
C2938 C2943 1.363 . S
C2939 H2910 0.950 . S
C2939 C2938 1.397 . S
C2939 C2940 1.334 . S
C2940 H2911 0.950 . S
C2940 C2939 1.334 . S
C2940 C2941 1.287 . S
C2941 C2940 1.287 . S
C2941 C2942 1.524 . S
C2941 H2944 0.999 . S
C2942 H2912 0.950 . S
C2942 C2941 1.524 . S
C2942 C2943 1.415 . S
C2943 H2913 0.950 . S
C2943 C2938 1.363 . S
C2943 C2942 1.415 . S
H2944 C2941 0.999 . S
H2945 C2926 0.913 . S
H2946 C2964 0.951 . S
H2947 C2966 0.951 . S
H2948 C2968 0.950 . S
H2949 C2969 0.950 . S
H2950 C2971 0.950 . S
H2951 C2974 0.950 . S
H2952 C2975 0.950 . S
H2953 C2977 0.950 . S
H2954 C2978 0.950 . S
H2955 C2979 0.951 . S
H2956 C2981 0.951 . S
H2957 C2983 0.950 . S
H2958 C2984 0.950 . S
H2959 C2986 0.950 . S
H2960 C2989 0.950 . S
H2961 C2990 0.950 . S
H2962 C2992 0.950 . S
H2963 C2993 0.950 . S
C2964 H2946 0.951 . S
C2964 C2965 1.366 . S
C2964 C2966 1.388 . S
C2965 C2964 1.366 . S
C2965 C2969 1.385 . S
C2966 H2947 0.951 . S
C2966 C2964 1.388 . S
C2966 C2967 1.366 . S
C2967 C2966 1.366 . S
C2967 C2968 1.414 . S
C2967 C2970 1.499 . S
C2968 H2948 0.950 . S
C2968 C2967 1.414 . S
C2968 C2969 1.374 . S
C2969 H2949 0.950 . S
C2969 C2965 1.385 . S
C2969 C2968 1.374 . S
C2970 C2967 1.499 . S
C2970 C2971 1.373 . S
C2970 C2972 1.389 . S
C2971 H2950 0.950 . S
C2971 C2970 1.373 . S
C2971 C2987 1.377 . S
C2972 C2970 1.389 . S
C2972 C2973 1.524 . S
C2972 C2986 1.377 . S
C2973 C2972 1.524 . S
C2973 C2974 1.397 . S
C2973 C2978 1.363 . S
C2974 H2951 0.950 . S
C2974 C2973 1.397 . S
C2974 C2975 1.334 . S
C2975 H2952 0.950 . S
C2975 C2974 1.334 . S
C2975 C2976 1.287 . S
C2976 C2975 1.287 . S
C2976 C2977 1.524 . S
C2976 H2995 0.913 . S
C2977 H2953 0.950 . S
C2977 C2976 1.524 . S
C2977 C2978 1.415 . S
C2978 H2954 0.950 . S
C2978 C2973 1.363 . S
C2978 C2977 1.415 . S
C2979 H2955 0.951 . S
C2979 C2980 1.366 . S
C2979 C2981 1.388 . S
C2980 C2979 1.366 . S
C2980 C2984 1.385 . S
C2981 H2956 0.951 . S
C2981 C2979 1.388 . S
C2981 C2982 1.366 . S
C2982 C2981 1.366 . S
C2982 C2983 1.414 . S
C2982 C2985 1.499 . S
C2983 H2957 0.950 . S
C2983 C2982 1.414 . S
C2983 C2984 1.374 . S
C2984 H2958 0.950 . S
C2984 C2980 1.385 . S
C2984 C2983 1.374 . S
C2985 C2982 1.499 . S
C2985 C2986 1.373 . S
C2985 C2987 1.389 . S
C2986 H2959 0.950 . S
C2986 C2972 1.377 . S
C2986 C2985 1.373 . S
C2987 C2971 1.377 . S
C2987 C2985 1.389 . S
C2987 C2988 1.524 . S
C2988 C2987 1.524 . S
C2988 C2989 1.397 . S
C2988 C2993 1.363 . S
C2989 H2960 0.950 . S
C2989 C2988 1.397 . S
C2989 C2990 1.334 . S
C2990 H2961 0.950 . S
C2990 C2989 1.334 . S
C2990 C2991 1.287 . S
C2991 C2990 1.287 . S
C2991 C2992 1.524 . S
C2991 H2994 0.999 . S
C2992 H2962 0.950 . S
C2992 C2991 1.524 . S
C2992 C2993 1.415 . S
C2993 H2963 0.950 . S
C2993 C2988 1.363 . S
C2993 C2992 1.415 . S
H2994 C2991 0.999 . S
H2995 C2976 0.913 . S
H2996 C3014 0.951 . S
H2997 C3016 1.002 . S
H2998 C3018 0.950 . S
H2999 C3019 0.950 . S
H3000 C3021 0.950 . S
H3001 C3024 0.950 . S
H3002 C3025 0.950 . S
H3003 C3027 0.950 . S
H3004 C3028 0.991 . S
H3005 C3029 0.951 . S
H3006 C3031 0.951 . S
H3007 C3033 0.950 . S
H3008 C3034 0.950 . S
H3009 C3036 0.950 . S
H3010 C3039 0.950 1_554 S
H3011 C3040 0.950 1_554 S
H3012 C3042 0.950 . S
H3013 C3043 0.950 . S
C3014 H2996 0.951 . S
C3014 C3015 1.366 . S
C3014 C3016 1.388 . S
C3015 C3014 1.366 . S
C3015 C3019 1.385 . S
C3016 H2997 1.002 . S
C3016 C3014 1.388 . S
C3016 C3017 1.366 . S
C3017 C3016 1.366 . S
C3017 C3018 1.414 . S
C3017 C3020 1.499 . S
C3018 H2998 0.950 . S
C3018 C3017 1.414 . S
C3018 C3019 1.374 . S
C3019 H2999 0.950 . S
C3019 C3015 1.385 . S
C3019 C3018 1.374 . S
C3020 C3017 1.499 . S
C3020 C3021 1.373 . S
C3020 C3022 1.389 . S
C3021 H3000 0.950 . S
C3021 C3020 1.373 . S
C3021 C3037 1.377 . S
C3022 C3020 1.389 . S
C3022 C3023 1.524 . S
C3022 C3036 1.377 . S
C3023 C3022 1.524 . S
C3023 C3024 1.397 . S
C3023 C3028 1.321 1_556 S
C3024 H3001 0.950 . S
C3024 C3023 1.397 . S
C3024 C3025 1.334 . S
C3025 H3002 0.950 . S
C3025 C3024 1.334 . S
C3025 C3026 1.287 . S
C3026 C3025 1.287 . S
C3026 C3027 1.524 1_556 S
C3026 H3045 0.913 . S
C3027 H3003 0.950 . S
C3027 C3026 1.524 1_554 S
C3027 C3028 1.419 . S
C3028 H3004 0.991 . S
C3028 C3023 1.321 1_554 S
C3028 C3027 1.419 . S
C3029 H3005 0.951 . S
C3029 C3030 1.366 . S
C3029 C3031 1.388 . S
C3030 C3029 1.366 . S
C3030 C3034 1.385 1_556 S
C3031 H3006 0.951 . S
C3031 C3029 1.388 . S
C3031 C3032 1.366 . S
C3032 C3031 1.366 . S
C3032 C3033 1.414 1_556 S
C3032 C3035 1.499 . S
C3033 H3007 0.950 . S
C3033 C3032 1.414 1_554 S
C3033 C3034 1.374 . S
C3034 H3008 0.950 . S
C3034 C3030 1.385 1_554 S
C3034 C3033 1.374 . S
C3035 C3032 1.499 . S
C3035 C3036 1.373 . S
C3035 C3037 1.389 . S
C3036 H3009 0.950 . S
C3036 C3022 1.377 . S
C3036 C3035 1.373 . S
C3037 C3021 1.377 . S
C3037 C3035 1.389 . S
C3037 C3038 1.524 . S
C3038 C3037 1.524 . S
C3038 C3039 1.397 . S
C3038 C3043 1.363 . S
C3039 H3010 0.950 1_556 S
C3039 C3038 1.397 . S
C3039 C3040 1.334 . S
C3040 H3011 0.950 1_556 S
C3040 C3039 1.334 . S
C3040 C3041 1.287 . S
C3041 C3040 1.287 . S
C3041 C3042 1.524 . S
C3041 H3044 0.999 . S
C3042 H3012 0.950 . S
C3042 C3041 1.524 . S
C3042 C3043 1.415 . S
C3043 H3013 0.950 . S
C3043 C3038 1.363 . S
C3043 C3042 1.415 . S
H3044 C3041 0.999 . S
H3045 C3026 0.913 . S
H3046 C3064 0.951 . S
H3047 C3066 0.951 . S
H3048 C3068 0.950 . S
H3049 C3069 0.950 . S
H3050 C3071 0.950 . S
H3051 C3074 0.950 . S
H3052 C3075 0.950 . S
H3053 C3077 0.950 . S
H3054 C3078 0.950 . S
H3055 C3079 0.951 . S
H3056 C3081 0.951 . S
H3057 C3083 0.950 . S
H3058 C3084 0.950 . S
H3059 C3086 0.950 . S
H3060 C3089 0.950 . S
H3061 C3090 0.950 . S
H3062 C3092 0.950 . S
H3063 C3093 0.950 . S
C3064 H3046 0.951 . S
C3064 C3065 1.366 . S
C3064 C3066 1.388 . S
C3065 C3064 1.366 . S
C3065 C3069 1.385 . S
C3066 H3047 0.951 . S
C3066 C3064 1.388 . S
C3066 C3067 1.366 . S
C3067 C3066 1.366 . S
C3067 C3068 1.414 . S
C3067 C3070 1.499 . S
C3068 H3048 0.950 . S
C3068 C3067 1.414 . S
C3068 C3069 1.374 . S
C3069 H3049 0.950 . S
C3069 C3065 1.385 . S
C3069 C3068 1.374 . S
C3070 C3067 1.499 . S
C3070 C3071 1.373 . S
C3070 C3072 1.389 . S
C3071 H3050 0.950 . S
C3071 C3070 1.373 . S
C3071 C3087 1.377 . S
C3072 C3070 1.389 . S
C3072 C3073 1.524 . S
C3072 C3086 1.377 . S
C3073 C3072 1.524 . S
C3073 C3074 1.397 . S
C3073 C3078 1.363 . S
C3074 H3051 0.950 . S
C3074 C3073 1.397 . S
C3074 C3075 1.334 . S
C3075 H3052 0.950 . S
C3075 C3074 1.334 . S
C3075 C3076 1.287 . S
C3076 C3075 1.287 . S
C3076 C3077 1.524 . S
C3076 H3095 0.913 . S
C3077 H3053 0.950 . S
C3077 C3076 1.524 . S
C3077 C3078 1.415 . S
C3078 H3054 0.950 . S
C3078 C3073 1.363 . S
C3078 C3077 1.415 . S
C3079 H3055 0.951 . S
C3079 C3080 1.366 . S
C3079 C3081 1.388 . S
C3080 C3079 1.366 . S
C3080 C3084 1.385 . S
C3081 H3056 0.951 . S
C3081 C3079 1.388 . S
C3081 C3082 1.366 . S
C3082 C3081 1.366 . S
C3082 C3083 1.414 . S
C3082 C3085 1.499 . S
C3083 H3057 0.950 . S
C3083 C3082 1.414 . S
C3083 C3084 1.374 . S
C3084 H3058 0.950 . S
C3084 C3080 1.385 . S
C3084 C3083 1.374 . S
C3085 C3082 1.499 . S
C3085 C3086 1.373 . S
C3085 C3087 1.389 . S
C3086 H3059 0.950 . S
C3086 C3072 1.377 . S
C3086 C3085 1.373 . S
C3087 C3071 1.377 . S
C3087 C3085 1.389 . S
C3087 C3088 1.524 . S
C3088 C3087 1.524 . S
C3088 C3089 1.397 . S
C3088 C3093 1.363 . S
C3089 H3060 0.950 . S
C3089 C3088 1.397 . S
C3089 C3090 1.334 . S
C3090 H3061 0.950 . S
C3090 C3089 1.334 . S
C3090 C3091 1.287 . S
C3091 C3090 1.287 . S
C3091 C3092 1.524 . S
C3091 H3094 0.999 . S
C3092 H3062 0.950 . S
C3092 C3091 1.524 . S
C3092 C3093 1.415 . S
C3093 H3063 0.950 . S
C3093 C3088 1.363 . S
C3093 C3092 1.415 . S
H3094 C3091 0.999 . S
H3095 C3076 0.913 . S
H3096 C3114 0.951 . S
H3097 C3116 0.951 1_556 S
H3098 C3118 0.950 . S
H3099 C3119 0.950 . S
H3100 C3121 0.950 . S
H3101 C3124 0.950 . S
H3102 C3125 0.950 . S
H3103 C3127 0.950 . S
H3104 C3128 0.950 . S
H3105 C3129 0.951 . S
H3106 C3131 0.951 . S
H3107 C3133 0.950 . S
H3108 C3134 0.950 . S
H3109 C3136 0.950 1_556 S
H3110 C3139 0.950 . S
H3111 C3140 0.950 . S
H3112 C3142 0.950 . S
H3113 C3143 0.950 . S
C3114 H3096 0.951 . S
C3114 C3115 1.366 . S
C3114 C3116 1.388 . S
C3115 C3114 1.366 . S
C3115 C3119 1.385 . S
C3116 H3097 0.951 1_554 S
C3116 C3114 1.388 . S
C3116 C3117 1.366 . S
C3117 C3116 1.366 . S
C3117 C3118 1.414 . S
C3117 C3120 1.499 . S
C3118 H3098 0.950 . S
C3118 C3117 1.414 . S
C3118 C3119 1.374 . S
C3119 H3099 0.950 . S
C3119 C3115 1.385 . S
C3119 C3118 1.374 . S
C3120 C3117 1.499 . S
C3120 C3121 1.373 . S
C3120 C3122 1.389 . S
C3121 H3100 0.950 . S
C3121 C3120 1.373 . S
C3121 C3137 1.377 . S
C3122 C3120 1.389 . S
C3122 C3123 1.524 1_554 S
C3122 C3136 1.377 . S
C3123 C3122 1.524 1_556 S
C3123 C3124 1.397 1_556 S
C3123 C3128 1.363 . S
C3124 H3101 0.950 . S
C3124 C3123 1.397 1_554 S
C3124 C3125 1.334 1_554 S
C3125 H3102 0.950 . S
C3125 C3124 1.334 1_556 S
C3125 C3126 1.287 . S
C3126 C3125 1.287 . S
C3126 C3127 1.524 . S
C3126 H3145 0.913 . S
C3127 H3103 0.950 . S
C3127 C3126 1.524 . S
C3127 C3128 1.415 . S
C3128 H3104 0.950 . S
C3128 C3123 1.363 . S
C3128 C3127 1.415 . S
C3129 H3105 0.951 . S
C3129 C3130 1.366 . S
C3129 C3131 1.388 . S
C3130 C3129 1.366 . S
C3130 C3134 1.385 1_554 S
C3131 H3106 0.951 . S
C3131 C3129 1.388 . S
C3131 C3132 1.366 . S
C3132 C3131 1.366 . S
C3132 C3133 1.414 1_554 S
C3132 C3135 1.499 . S
C3133 H3107 0.950 . S
C3133 C3132 1.414 1_556 S
C3133 C3134 1.374 . S
C3134 H3108 0.950 . S
C3134 C3130 1.385 1_556 S
C3134 C3133 1.374 . S
C3135 C3132 1.499 . S
C3135 C3136 1.373 . S
C3135 C3137 1.389 . S
C3136 H3109 0.950 1_554 S
C3136 C3122 1.377 . S
C3136 C3135 1.373 . S
C3137 C3121 1.377 . S
C3137 C3135 1.389 . S
C3137 C3138 1.524 . S
C3138 C3137 1.524 . S
C3138 C3139 1.397 . S
C3138 C3143 1.363 . S
C3139 H3110 0.950 . S
C3139 C3138 1.397 . S
C3139 C3140 1.334 . S
C3140 H3111 0.950 . S
C3140 C3139 1.334 . S
C3140 C3141 1.287 . S
C3141 C3140 1.287 . S
C3141 C3142 1.524 . S
C3141 H3144 0.999 . S
C3142 H3112 0.950 . S
C3142 C3141 1.524 . S
C3142 C3143 1.415 . S
C3143 H3113 0.950 . S
C3143 C3138 1.363 . S
C3143 C3142 1.415 . S
H3144 C3141 0.999 . S
H3145 C3126 0.913 . S
H3146 C3164 0.951 . S
H3147 C3166 0.951 . S
H3148 C3168 0.950 . S
H3149 C3169 0.902 1_545 S
H3150 C3171 0.950 . S
H3151 C3174 0.950 . S
H3152 C3175 0.950 . S
H3153 C3177 0.950 . S
H3154 C3178 0.950 . S
H3155 C3179 0.951 . S
H3156 C3181 0.951 . S
H3157 C3183 0.950 . S
H3158 C3184 0.950 . S
H3159 C3186 0.950 . S
H3160 C3189 0.950 1_554 S
H3161 C3190 0.950 . S
H3162 C3192 0.950 . S
H3163 C3193 0.950 . S
C3164 H3146 0.951 . S
C3164 C3165 1.366 . S
C3164 C3166 1.388 . S
C3165 C3164 1.366 . S
C3165 C3169 1.385 . S
C3166 H3147 0.951 . S
C3166 C3164 1.388 . S
C3166 C3167 1.366 . S
C3167 C3166 1.366 . S
C3167 C3168 1.414 . S
C3167 C3170 1.499 . S
C3168 H3148 0.950 . S
C3168 C3167 1.414 . S
C3168 C3169 1.374 . S
C3169 H3149 0.902 1_565 S
C3169 C3165 1.385 . S
C3169 C3168 1.374 . S
C3170 C3167 1.499 . S
C3170 C3171 1.373 . S
C3170 C3172 1.389 . S
C3171 H3150 0.950 . S
C3171 C3170 1.373 . S
C3171 C3187 1.377 . S
C3172 C3170 1.389 . S
C3172 C3173 1.524 . S
C3172 C3186 1.377 . S
C3173 C3172 1.524 . S
C3173 C3174 1.397 . S
C3173 C3178 1.363 . S
C3174 H3151 0.950 . S
C3174 C3173 1.397 . S
C3174 C3175 1.334 . S
C3175 H3152 0.950 . S
C3175 C3174 1.334 . S
C3175 C3176 1.287 . S
C3176 C3175 1.287 . S
C3176 C3177 1.524 . S
C3176 H3195 0.913 . S
C3177 H3153 0.950 . S
C3177 C3176 1.524 . S
C3177 C3178 1.415 . S
C3178 H3154 0.950 . S
C3178 C3173 1.363 . S
C3178 C3177 1.415 . S
C3179 H3155 0.951 . S
C3179 C3180 1.366 . S
C3179 C3181 1.388 . S
C3180 C3179 1.366 . S
C3180 C3184 1.385 . S
C3181 H3156 0.951 . S
C3181 C3179 1.388 . S
C3181 C3182 1.366 . S
C3182 C3181 1.366 . S
C3182 C3183 1.414 . S
C3182 C3185 1.499 . S
C3183 H3157 0.950 . S
C3183 C3182 1.414 . S
C3183 C3184 1.374 . S
C3184 H3158 0.950 . S
C3184 C3180 1.385 . S
C3184 C3183 1.374 . S
C3185 C3182 1.499 . S
C3185 C3186 1.373 . S
C3185 C3187 1.389 . S
C3186 H3159 0.950 . S
C3186 C3172 1.377 . S
C3186 C3185 1.373 . S
C3187 C3171 1.377 . S
C3187 C3185 1.389 . S
C3187 C3188 1.524 1_554 S
C3188 C3187 1.524 1_556 S
C3188 C3189 1.397 . S
C3188 C3193 1.363 . S
C3189 H3160 0.950 1_556 S
C3189 C3188 1.397 . S
C3189 C3190 1.334 . S
C3190 H3161 0.950 . S
C3190 C3189 1.334 . S
C3190 C3191 1.287 . S
C3191 C3190 1.287 . S
C3191 C3192 1.524 . S
C3191 H3194 0.999 . S
C3192 H3162 0.950 . S
C3192 C3191 1.524 . S
C3192 C3193 1.415 . S
C3193 H3163 0.950 . S
C3193 C3188 1.363 . S
C3193 C3192 1.415 . S
H3194 C3191 0.999 . S
H3195 C3176 0.913 . S
C830 C650 1.383 . S
C815 C202 1.383 . S
C880 C663 1.639 . S
C865 C261 1.646 . S
C915 C282 1.433 . S
C930 C676 1.440 . S
C980 C689 1.534 . S
C965 C162 1.535 . S
C1030 C697 1.446 . S
C1015 C402 1.464 . S
C1080 C710 1.407 . S
C1065 C482 1.417 . S
C1115 C442 1.515 . S
C1130 C723 1.503 . S
C1180 C736 1.529 . S
C1165 C381 1.526 . S
C1215 C461 1.459 . S
C1230 C754 1.457 . S
C1280 C765 1.490 . S
C1265 C362 1.511 . S
C1315 C415 1.401 . S
C1330 C749 1.376 . S
C1380 C757 1.480 . S
C1365 C495 1.508 . S
C1415 C301 1.528 . S
C1430 C780 1.527 . S
C1465 C175 1.543 . S
C1480 C770 1.512 . S
C1515 C215 1.465 . S
C1530 C775 1.436 . S
C1565 C242 1.548 . S
C1580 C778 1.527 1_655 S
C1615 C141 1.478 . S
C1630 C687 1.457 . S
C1665 C581 1.443 . S
C1680 C679 1.429 . S
C1730 C648 1.512 . S
C1715 C615 1.538 . S
C1780 C653 1.472 . S
C1765 C335 1.494 . S
C1815 C181 1.609 . S
C1830 C700 1.586 . S
C1880 C739 1.491 . S
C1865 C455 1.515 . S
C1930 C692 1.435 . S
C1915 C375 1.460 . S
C1980 C718 1.506 . S
C1965 C501 1.531 . S
C2030 C728 1.383 . S
C2015 C562 1.383 . S
C2065 C621 1.646 . S
C2080 C741 1.639 . S
C2115 C322 1.434 . S
C2130 C702 1.434 . S
C2180 C715 1.534 . S
C2165 C522 1.535 . S
C2215 C122 1.464 . S
C2230 C671 1.440 . S
C2280 C684 1.407 . S
C2265 C2 1.417 . S
C2330 C645 1.502 . S
C2315 C42 1.515 . S
C2380 C658 1.515 . S
C2365 C101 1.526 . S
C2415 C61 1.459 . S
C2430 C767 1.456 . S
C2465 C82 1.511 . S
C2480 C752 1.490 1_655 S
C2515 C135 1.401 . S
C2530 C762 1.376 . S
C2565 C15 1.508 . S
C2580 C744 1.480 . S
C2630 C793 1.527 . S
C2615 C341 1.529 . S
C2680 C783 1.512 . S
C2665 C535 1.543 . S
C2730 C788 1.435 . S
C2715 C575 1.465 . S
C2765 C602 1.549 . S
C2780 C791 1.528 . S
C2815 C421 1.478 . S
C2830 C713 1.457 . S
C2880 C705 1.429 . S
C2865 C221 1.443 . S
C2930 C726 1.512 . S
C2915 C255 1.538 . S
C2980 C731 1.472 . S
C2965 C295 1.497 . S
C3015 C541 1.609 . S
C3030 C674 1.588 . S
C3080 C661 1.490 . S
C3065 C55 1.518 . S
C3115 C95 1.460 . S
C3130 C666 1.432 . S
C3180 C640 1.507 . S
C3165 C21 1.531 . S
